# Generated by pormake.
# Topology bwt, (3,3)-cn, num edge types: 1
# Building blocks:
#     Node 0, Type 0, BuildingBlock: OLANEW_clean_sbu_2, # of connection points: 3
#     Node 1, Type 0, BuildingBlock: OLANEW_clean_sbu_2, # of connection points: 3
#     Node 2, Type 0, BuildingBlock: OLANEW_clean_sbu_2, # of connection points: 3
#     Node 3, Type 0, BuildingBlock: OLANEW_clean_sbu_2, # of connection points: 3
#     Node 4, Type 0, BuildingBlock: OLANEW_clean_sbu_2, # of connection points: 3
#     Node 5, Type 0, BuildingBlock: OLANEW_clean_sbu_2, # of connection points: 3
#     Node 6, Type 0, BuildingBlock: OLANEW_clean_sbu_2, # of connection points: 3
#     Node 7, Type 0, BuildingBlock: OLANEW_clean_sbu_2, # of connection points: 3
#     Node 8, Type 0, BuildingBlock: OLANEW_clean_sbu_2, # of connection points: 3
#     Node 9, Type 0, BuildingBlock: OLANEW_clean_sbu_2, # of connection points: 3
#     Node 10, Type 0, BuildingBlock: OLANEW_clean_sbu_2, # of connection points: 3
#     Node 11, Type 0, BuildingBlock: OLANEW_clean_sbu_2, # of connection points: 3
#     Node 12, Type 0, BuildingBlock: OLANEW_clean_sbu_2, # of connection points: 3
#     Node 13, Type 0, BuildingBlock: OLANEW_clean_sbu_2, # of connection points: 3
#     Node 14, Type 0, BuildingBlock: OLANEW_clean_sbu_2, # of connection points: 3
#     Node 15, Type 0, BuildingBlock: OLANEW_clean_sbu_2, # of connection points: 3
#     Node 16, Type 0, BuildingBlock: OLANEW_clean_sbu_2, # of connection points: 3
#     Node 17, Type 0, BuildingBlock: OLANEW_clean_sbu_2, # of connection points: 3
#     Node 18, Type 0, BuildingBlock: OLANEW_clean_sbu_2, # of connection points: 3
#     Node 19, Type 0, BuildingBlock: OLANEW_clean_sbu_2, # of connection points: 3
#     Node 20, Type 0, BuildingBlock: OLANEW_clean_sbu_2, # of connection points: 3
#     Node 21, Type 0, BuildingBlock: OLANEW_clean_sbu_2, # of connection points: 3
#     Node 22, Type 0, BuildingBlock: OLANEW_clean_sbu_2, # of connection points: 3
#     Node 23, Type 0, BuildingBlock: OLANEW_clean_sbu_2, # of connection points: 3
#     Node 24, Type 1, BuildingBlock: BELTOD_clean_linker_0, # of connection points: 3
#     Node 25, Type 1, BuildingBlock: BELTOD_clean_linker_0, # of connection points: 3
#     Node 26, Type 1, BuildingBlock: BELTOD_clean_linker_0, # of connection points: 3
#     Node 27, Type 1, BuildingBlock: BELTOD_clean_linker_0, # of connection points: 3
#     Node 28, Type 1, BuildingBlock: BELTOD_clean_linker_0, # of connection points: 3
#     Node 29, Type 1, BuildingBlock: BELTOD_clean_linker_0, # of connection points: 3
#     Node 30, Type 1, BuildingBlock: BELTOD_clean_linker_0, # of connection points: 3
#     Node 31, Type 1, BuildingBlock: BELTOD_clean_linker_0, # of connection points: 3
#     Node 32, Type 1, BuildingBlock: BELTOD_clean_linker_0, # of connection points: 3
#     Node 33, Type 1, BuildingBlock: BELTOD_clean_linker_0, # of connection points: 3
#     Node 34, Type 1, BuildingBlock: BELTOD_clean_linker_0, # of connection points: 3
#     Node 35, Type 1, BuildingBlock: BELTOD_clean_linker_0, # of connection points: 3
#     Node 36, Type 1, BuildingBlock: BELTOD_clean_linker_0, # of connection points: 3
#     Node 37, Type 1, BuildingBlock: BELTOD_clean_linker_0, # of connection points: 3
#     Node 38, Type 1, BuildingBlock: BELTOD_clean_linker_0, # of connection points: 3
#     Node 39, Type 1, BuildingBlock: BELTOD_clean_linker_0, # of connection points: 3
#     Node 40, Type 1, BuildingBlock: BELTOD_clean_linker_0, # of connection points: 3
#     Node 41, Type 1, BuildingBlock: BELTOD_clean_linker_0, # of connection points: 3
#     Node 42, Type 1, BuildingBlock: BELTOD_clean_linker_0, # of connection points: 3
#     Node 43, Type 1, BuildingBlock: BELTOD_clean_linker_0, # of connection points: 3
#     Node 44, Type 1, BuildingBlock: BELTOD_clean_linker_0, # of connection points: 3
#     Node 45, Type 1, BuildingBlock: BELTOD_clean_linker_0, # of connection points: 3
#     Node 46, Type 1, BuildingBlock: BELTOD_clean_linker_0, # of connection points: 3
#     Node 47, Type 1, BuildingBlock: BELTOD_clean_linker_0, # of connection points: 3
#     Edge 48, Type (0, 1), BuildingBlock: KIFKEQ_clean_linker_1, # of connection points: 2
#     Edge 49, Type (0, 1), BuildingBlock: KIFKEQ_clean_linker_1, # of connection points: 2
#     Edge 50, Type (0, 1), BuildingBlock: KIFKEQ_clean_linker_1, # of connection points: 2
#     Edge 51, Type (0, 1), BuildingBlock: KIFKEQ_clean_linker_1, # of connection points: 2
#     Edge 52, Type (0, 1), BuildingBlock: KIFKEQ_clean_linker_1, # of connection points: 2
#     Edge 53, Type (0, 1), BuildingBlock: KIFKEQ_clean_linker_1, # of connection points: 2
#     Edge 54, Type (0, 1), BuildingBlock: KIFKEQ_clean_linker_1, # of connection points: 2
#     Edge 55, Type (0, 1), BuildingBlock: KIFKEQ_clean_linker_1, # of connection points: 2
#     Edge 56, Type (0, 1), BuildingBlock: KIFKEQ_clean_linker_1, # of connection points: 2
#     Edge 57, Type (0, 1), BuildingBlock: KIFKEQ_clean_linker_1, # of connection points: 2
#     Edge 58, Type (0, 1), BuildingBlock: KIFKEQ_clean_linker_1, # of connection points: 2
#     Edge 59, Type (0, 1), BuildingBlock: KIFKEQ_clean_linker_1, # of connection points: 2
#     Edge 60, Type (0, 1), BuildingBlock: KIFKEQ_clean_linker_1, # of connection points: 2
#     Edge 61, Type (0, 1), BuildingBlock: KIFKEQ_clean_linker_1, # of connection points: 2
#     Edge 62, Type (0, 1), BuildingBlock: KIFKEQ_clean_linker_1, # of connection points: 2
#     Edge 63, Type (0, 1), BuildingBlock: KIFKEQ_clean_linker_1, # of connection points: 2
#     Edge 64, Type (0, 1), BuildingBlock: KIFKEQ_clean_linker_1, # of connection points: 2
#     Edge 65, Type (0, 1), BuildingBlock: KIFKEQ_clean_linker_1, # of connection points: 2
#     Edge 66, Type (0, 1), BuildingBlock: KIFKEQ_clean_linker_1, # of connection points: 2
#     Edge 67, Type (0, 1), BuildingBlock: KIFKEQ_clean_linker_1, # of connection points: 2
#     Edge 68, Type (0, 1), BuildingBlock: KIFKEQ_clean_linker_1, # of connection points: 2
#     Edge 69, Type (0, 1), BuildingBlock: KIFKEQ_clean_linker_1, # of connection points: 2
#     Edge 70, Type (0, 1), BuildingBlock: KIFKEQ_clean_linker_1, # of connection points: 2
#     Edge 71, Type (0, 1), BuildingBlock: KIFKEQ_clean_linker_1, # of connection points: 2
#     Edge 72, Type (0, 1), BuildingBlock: KIFKEQ_clean_linker_1, # of connection points: 2
#     Edge 73, Type (0, 1), BuildingBlock: KIFKEQ_clean_linker_1, # of connection points: 2
#     Edge 74, Type (0, 1), BuildingBlock: KIFKEQ_clean_linker_1, # of connection points: 2
#     Edge 75, Type (0, 1), BuildingBlock: KIFKEQ_clean_linker_1, # of connection points: 2
#     Edge 76, Type (0, 1), BuildingBlock: KIFKEQ_clean_linker_1, # of connection points: 2
#     Edge 77, Type (0, 1), BuildingBlock: KIFKEQ_clean_linker_1, # of connection points: 2
#     Edge 78, Type (0, 1), BuildingBlock: KIFKEQ_clean_linker_1, # of connection points: 2
#     Edge 79, Type (0, 1), BuildingBlock: KIFKEQ_clean_linker_1, # of connection points: 2
#     Edge 80, Type (0, 1), BuildingBlock: KIFKEQ_clean_linker_1, # of connection points: 2
#     Edge 81, Type (0, 1), BuildingBlock: KIFKEQ_clean_linker_1, # of connection points: 2
#     Edge 82, Type (0, 1), BuildingBlock: KIFKEQ_clean_linker_1, # of connection points: 2
#     Edge 83, Type (0, 1), BuildingBlock: KIFKEQ_clean_linker_1, # of connection points: 2
#     Edge 84, Type (0, 1), BuildingBlock: KIFKEQ_clean_linker_1, # of connection points: 2
#     Edge 85, Type (0, 1), BuildingBlock: KIFKEQ_clean_linker_1, # of connection points: 2
#     Edge 86, Type (0, 1), BuildingBlock: KIFKEQ_clean_linker_1, # of connection points: 2
#     Edge 87, Type (0, 1), BuildingBlock: KIFKEQ_clean_linker_1, # of connection points: 2
#     Edge 88, Type (0, 1), BuildingBlock: KIFKEQ_clean_linker_1, # of connection points: 2
#     Edge 89, Type (0, 1), BuildingBlock: KIFKEQ_clean_linker_1, # of connection points: 2
#     Edge 90, Type (0, 1), BuildingBlock: KIFKEQ_clean_linker_1, # of connection points: 2
#     Edge 91, Type (0, 1), BuildingBlock: KIFKEQ_clean_linker_1, # of connection points: 2
#     Edge 92, Type (0, 1), BuildingBlock: KIFKEQ_clean_linker_1, # of connection points: 2
#     Edge 93, Type (0, 1), BuildingBlock: KIFKEQ_clean_linker_1, # of connection points: 2
#     Edge 94, Type (0, 1), BuildingBlock: KIFKEQ_clean_linker_1, # of connection points: 2
#     Edge 95, Type (0, 1), BuildingBlock: KIFKEQ_clean_linker_1, # of connection points: 2
#     Edge 96, Type (0, 1), BuildingBlock: KIFKEQ_clean_linker_1, # of connection points: 2
#     Edge 97, Type (0, 1), BuildingBlock: KIFKEQ_clean_linker_1, # of connection points: 2
#     Edge 98, Type (0, 1), BuildingBlock: KIFKEQ_clean_linker_1, # of connection points: 2
#     Edge 99, Type (0, 1), BuildingBlock: KIFKEQ_clean_linker_1, # of connection points: 2
#     Edge 100, Type (0, 1), BuildingBlock: KIFKEQ_clean_linker_1, # of connection points: 2
#     Edge 101, Type (0, 1), BuildingBlock: KIFKEQ_clean_linker_1, # of connection points: 2
#     Edge 102, Type (0, 1), BuildingBlock: KIFKEQ_clean_linker_1, # of connection points: 2
#     Edge 103, Type (0, 1), BuildingBlock: KIFKEQ_clean_linker_1, # of connection points: 2
#     Edge 104, Type (0, 1), BuildingBlock: KIFKEQ_clean_linker_1, # of connection points: 2
#     Edge 105, Type (0, 1), BuildingBlock: KIFKEQ_clean_linker_1, # of connection points: 2
#     Edge 106, Type (0, 1), BuildingBlock: KIFKEQ_clean_linker_1, # of connection points: 2
#     Edge 107, Type (0, 1), BuildingBlock: KIFKEQ_clean_linker_1, # of connection points: 2
#     Edge 108, Type (0, 1), BuildingBlock: KIFKEQ_clean_linker_1, # of connection points: 2
#     Edge 109, Type (0, 1), BuildingBlock: KIFKEQ_clean_linker_1, # of connection points: 2
#     Edge 110, Type (0, 1), BuildingBlock: KIFKEQ_clean_linker_1, # of connection points: 2
#     Edge 111, Type (0, 1), BuildingBlock: KIFKEQ_clean_linker_1, # of connection points: 2
#     Edge 112, Type (0, 1), BuildingBlock: KIFKEQ_clean_linker_1, # of connection points: 2
#     Edge 113, Type (0, 1), BuildingBlock: KIFKEQ_clean_linker_1, # of connection points: 2
#     Edge 114, Type (0, 1), BuildingBlock: KIFKEQ_clean_linker_1, # of connection points: 2
#     Edge 115, Type (0, 1), BuildingBlock: KIFKEQ_clean_linker_1, # of connection points: 2
#     Edge 116, Type (0, 1), BuildingBlock: KIFKEQ_clean_linker_1, # of connection points: 2
#     Edge 117, Type (0, 1), BuildingBlock: KIFKEQ_clean_linker_1, # of connection points: 2
#     Edge 118, Type (0, 1), BuildingBlock: KIFKEQ_clean_linker_1, # of connection points: 2
#     Edge 119, Type (0, 1), BuildingBlock: KIFKEQ_clean_linker_1, # of connection points: 2
# Relax obj value: 0.133
# Max RMSD: 0.134
# Mean RMSD: 0.085
data_MOF--net-bwt--node1-OLANEW_clean_sbu_2--node2-BELTOD_clean_linker_0--edge1-KIFKEQ_clean_linker_1
_symmetry_space_group_name_H-M    P1
_symmetry_Int_Tables_number       1
_symmetry_cell_setting            triclinic
loop_
_symmetry_equiv_pos_as_xyz
'x, y, z'
_cell_length_a     67.572742
_cell_length_b     67.602068
_cell_length_c     67.595866
_cell_angle_alpha  93.336971
_cell_angle_beta   93.337696
_cell_angle_gamma 93.344851
loop_
_atom_site_label
_atom_site_type_symbol
_atom_site_fract_x
_atom_site_fract_y
_atom_site_fract_z
_atom_type_partial_charge
O0 O 0.2933 0.59811 0.33431 0.0
Cd1 Cd 0.28309 0.59974 0.29915 0.0
O2 O 0.31575 0.62303 0.33452 0.0
Cd3 Cd 0.31598 0.62246 0.30226 0.0
O4 O 0.34155 0.61213 0.28737 0.0
C5 C 0.34426 0.59369 0.28762 0.0
O6 O 0.33029 0.58187 0.29415 0.0
C7 C 0.3061 0.61018 0.34378 0.0
C8 C 0.24287 0.58783 0.29293 0.0
O9 O 0.25627 0.5753 0.29114 0.0
O10 O 0.24851 0.60606 0.29733 0.0
O11 O 0.20568 0.41889 0.68722 0.0
Cd12 Cd 0.20314 0.40635 0.65239 0.0
O13 O 0.20044 0.38878 0.69719 0.0
Cd14 Cd 0.18458 0.37812 0.66923 0.0
O15 O 0.15216 0.375 0.66743 0.0
C16 C 0.14494 0.36457 0.68064 0.0
O17 O 0.15716 0.3552 0.69211 0.0
C18 C 0.20548 0.40705 0.70117 0.0
C19 C 0.24165 0.40675 0.63949 0.0
O20 O 0.23066 0.42126 0.63658 0.0
O21 O 0.23418 0.39177 0.64788 0.0
O22 O 0.77565 0.97603 0.66399 0.0
Cd23 Cd 0.7738 0.97716 0.70008 0.0
O24 O 0.79186 0.94876 0.66349 0.0
Cd25 Cd 0.80183 0.95423 0.6947 0.0
O26 O 0.82828 0.97005 0.70935 0.0
C27 C 0.82951 0.98888 0.70924 0.0
O28 O 0.81403 0.99788 0.70242 0.0
C29 C 0.78272 0.96169 0.65424 0.0
C30 C 0.7372 0.99039 0.71033 0.0
O31 O 0.75269 0.00236 0.71106 0.0
O32 O 0.73906 0.97212 0.70504 0.0
O33 O 0.74824 0.04296 0.32356 0.0
Cd34 Cd 0.7619 0.04342 0.35776 0.0
O35 O 0.72058 0.0274 0.33125 0.0
Cd36 Cd 0.69205 0.01099 0.32333 0.0
O37 O 0.66397 0.99738 0.30989 0.0
C38 C 0.66353 0.9892 0.29244 0.0
O39 O 0.68008 0.98882 0.28318 0.0
C40 C 0.73111 0.035 0.31828 0.0
C41 C 0.79841 0.02638 0.35856 0.0
O42 O 0.78231 0.01578 0.36023 0.0
O43 O 0.79723 0.04508 0.35698 0.0
O44 O 0.33902 0.26473 0.63204 0.0
Cd45 Cd 0.31068 0.24569 0.64388 0.0
O46 O 0.32043 0.28898 0.62407 0.0
Cd47 Cd 0.31637 0.31725 0.61066 0.0
O48 O 0.32418 0.34613 0.59954 0.0
C49 C 0.31151 0.35872 0.59556 0.0
O50 O 0.29266 0.35432 0.59803 0.0
C51 C 0.33738 0.2817 0.62519 0.0
C52 C 0.30893 0.20659 0.62799 0.0
O53 O 0.2989 0.2197 0.61968 0.0
O54 O 0.31959 0.21194 0.64391 0.0
O55 O 0.32697 0.74553 0.04345 0.0
Cd56 Cd 0.36051 0.76091 0.04272 0.0
O57 O 0.33422 0.72144 0.02242 0.0
Cd58 Cd 0.3267 0.69305 0.00566 0.0
O59 O 0.31387 0.66487 0.99175 0.0
C60 C 0.29832 0.6571 0.99862 0.0
O61 O 0.29083 0.66607 0.01398 0.0
C62 C 0.3216 0.72986 0.03274 0.0
C63 C 0.35776 0.79657 0.02431 0.0
O64 O 0.3603 0.78038 0.01419 0.0
O65 O 0.35713 0.79594 0.04318 0.0
O66 O 0.67501 0.22703 0.38768 0.0
Cd67 Cd 0.64298 0.23369 0.37144 0.0
O68 O 0.67924 0.20218 0.36624 0.0
Cd69 Cd 0.69557 0.1764 0.35765 0.0
O70 O 0.711 0.14919 0.36063 0.0
C71 C 0.7025 0.13575 0.37009 0.0
O72 O 0.68498 0.13875 0.37678 0.0
C73 C 0.68552 0.2133 0.38139 0.0
C74 C 0.63707 0.27384 0.37864 0.0
O75 O 0.63121 0.26097 0.39057 0.0
O76 O 0.64517 0.26762 0.36295 0.0
O77 O 0.67014 0.76807 0.98538 0.0
Cd78 Cd 0.70642 0.76941 0.98563 0.0
O79 O 0.66757 0.78454 0.95835 0.0
Cd80 Cd 0.69786 0.79753 0.96382 0.0
O81 O 0.71077 0.82438 0.98035 0.0
C82 C 0.71286 0.82438 0.99916 0.0
O83 O 0.70924 0.80768 0.00769 0.0
C84 C 0.65945 0.77435 0.97125 0.0
C85 C 0.71971 0.73298 0.99625 0.0
O86 O 0.71975 0.74768 0.00911 0.0
O87 O 0.71377 0.73561 0.9783 0.0
O88 O 0.60724 0.33066 0.26561 0.0
Cd89 Cd 0.61932 0.29961 0.25206 0.0
O90 O 0.60965 0.32095 0.296 0.0
Cd91 Cd 0.60799 0.3251 0.32819 0.0
O92 O 0.59886 0.33407 0.35762 0.0
C93 C 0.59142 0.32134 0.36862 0.0
O94 O 0.58981 0.30254 0.36226 0.0
C95 C 0.60487 0.33394 0.28399 0.0
C96 C 0.60646 0.29418 0.21207 0.0
O97 O 0.5957 0.28783 0.22565 0.0
O98 O 0.62354 0.30269 0.21738 0.0
O99 O 0.03061 0.31731 0.73807 0.0
Cd100 Cd 0.02781 0.35143 0.75101 0.0
O101 O 0.01271 0.32246 0.71095 0.0
Cd102 Cd 0.99535 0.31269 0.68339 0.0
O103 O 0.98011 0.29992 0.65579 0.0
C104 C 0.9727 0.28215 0.65491 0.0
O105 O 0.97425 0.27187 0.67078 0.0
C106 C 0.02222 0.31074 0.72149 0.0
C107 C 0.01224 0.3504 0.78831 0.0
O108 O 0.00082 0.35026 0.77248 0.0
O109 O 0.03104 0.35154 0.78654 0.0
O110 O 0.40162 0.70114 0.21579 0.0
Cd111 Cd 0.39043 0.66617 0.21712 0.0
O112 O 0.37585 0.70841 0.19683 0.0
Cd113 Cd 0.3669 0.67764 0.18746 0.0
O114 O 0.36856 0.67156 0.15558 0.0
C115 C 0.35942 0.68365 0.14522 0.0
O116 O 0.34839 0.69631 0.15426 0.0
C117 C 0.39168 0.71393 0.20723 0.0
C118 C 0.39818 0.6557 0.25597 0.0
O119 O 0.41096 0.65344 0.24286 0.0
O120 O 0.38143 0.66226 0.25052 0.0
O121 O 0.98801 0.65614 0.77168 0.0
Cd122 Cd 0.9926 0.69235 0.77487 0.0
O123 O 0.96143 0.65513 0.78894 0.0
Cd124 Cd 0.96916 0.68491 0.80246 0.0
O125 O 0.98546 0.69883 0.82902 0.0
C126 C 0.00421 0.70188 0.82911 0.0
O127 O 0.01303 0.69842 0.81255 0.0
C128 C 0.97327 0.64634 0.77797 0.0
C129 C 0.00046 0.70577 0.73773 0.0
O130 O 0.01459 0.70224 0.75026 0.0
O131 O 0.98259 0.70345 0.74298 0.0
O132 O 0.71768 0.35167 0.65912 0.0
Cd133 Cd 0.7268 0.33488 0.689 0.0
O134 O 0.70018 0.3718 0.67662 0.0
Cd135 Cd 0.67846 0.39439 0.67841 0.0
O136 O 0.65236 0.41184 0.6778 0.0
C137 C 0.64341 0.41533 0.66142 0.0
O138 O 0.65037 0.40865 0.64472 0.0
C139 C 0.70676 0.36633 0.66007 0.0
C140 C 0.76559 0.34723 0.70235 0.0
O141 O 0.76201 0.33189 0.69034 0.0
O142 O 0.7508 0.35651 0.70826 0.0
O143 O 0.75224 0.63646 0.29285 0.0
Cd144 Cd 0.75405 0.65131 0.32679 0.0
O145 O 0.78454 0.63497 0.29224 0.0
Cd146 Cd 0.81155 0.6247 0.27974 0.0
O147 O 0.8395 0.61187 0.27308 0.0
C148 C 0.85538 0.62287 0.27287 0.0
O149 O 0.85461 0.64217 0.27606 0.0
C150 C 0.7673 0.63151 0.28376 0.0
C151 C 0.71983 0.63766 0.34411 0.0
O152 O 0.72048 0.65414 0.33562 0.0
O153 O 0.73562 0.62805 0.34504 0.0
O154 O 0.28083 0.05357 0.30163 0.0
Cd155 Cd 0.27998 0.05932 0.2663 0.0
O156 O 0.24909 0.04451 0.30001 0.0
Cd157 Cd 0.22136 0.03165 0.31039 0.0
O158 O 0.19143 0.01934 0.31475 0.0
C159 C 0.1777 0.03094 0.3181 0.0
O160 O 0.182 0.05019 0.31951 0.0
C161 C 0.26562 0.04719 0.31008 0.0
C162 C 0.31018 0.03876 0.24974 0.0
O163 O 0.31313 0.05705 0.25591 0.0
O164 O 0.2928 0.03041 0.25093 0.0
O165 O 0.24718 0.9854 0.71575 0.0
Cd166 Cd 0.23846 0.9932 0.68165 0.0
O167 O 0.27402 0.00539 0.71683 0.0
Cd168 Cd 0.30238 0.01881 0.73006 0.0
O169 O 0.33293 0.0306 0.7372 0.0
C170 C 0.3458 0.01953 0.74429 0.0
O171 O 0.34027 0.00119 0.74787 0.0
C172 C 0.26263 0.99335 0.72534 0.0
C173 C 0.20205 0.01063 0.6792 0.0
O174 O 0.20296 0.99173 0.67731 0.0
O175 O 0.21839 0.02129 0.68211 0.0
O176 O 0.65292 0.74014 0.34614 0.0
Cd177 Cd 0.68165 0.74641 0.32658 0.0
O178 O 0.66704 0.71487 0.35859 0.0
Cd179 Cd 0.66762 0.68868 0.37602 0.0
O180 O 0.66868 0.66274 0.39361 0.0
C181 C 0.65302 0.65252 0.39711 0.0
O182 O 0.6357 0.65782 0.3901 0.0
C183 C 0.65252 0.72601 0.35773 0.0
C184 C 0.70347 0.78086 0.34154 0.0
O185 O 0.68932 0.7815 0.32816 0.0
O186 O 0.70743 0.76386 0.34769 0.0
O187 O 0.71873 0.23618 0.98606 0.0
Cd188 Cd 0.68411 0.22685 0.99154 0.0
O189 O 0.7166 0.26451 0.00305 0.0
Cd190 Cd 0.72709 0.29435 0.01492 0.0
O191 O 0.73208 0.32519 0.02658 0.0
C192 C 0.74122 0.33812 0.01698 0.0
O193 O 0.74822 0.33267 -9e-05 0.0
C194 C 0.72687 0.25266 0.99327 0.0
C195 C 0.68084 0.19079 0.00954 0.0
O196 O 0.67976 0.19135 0.99059 0.0
O197 O 0.68336 0.2073 0.01996 0.0
O198 O 0.26405 0.74732 0.66765 0.0
Cd199 Cd 0.29731 0.74973 0.68415 0.0
O200 O 0.27395 0.77134 0.64948 0.0
Cd201 Cd 0.27009 0.79349 0.62746 0.0
O202 O 0.26992 0.81963 0.60997 0.0
C203 C 0.2678 0.83635 0.61892 0.0
O204 O 0.2653 0.83709 0.63808 0.0
C205 C 0.26051 0.75853 0.65359 0.0
C206 C 0.31926 0.72094 0.66602 0.0
O207 O 0.31034 0.7175 0.6818 0.0
O208 O 0.31825 0.73816 0.65917 0.0
O209 O 0.30414 0.27339 0.04544 0.0
Cd210 Cd 0.2679 0.27134 0.04387 0.0
O211 O 0.30389 0.24147 0.03787 0.0
Cd212 Cd 0.31533 0.21225 0.03168 0.0
O213 O 0.31737 0.18073 0.02349 0.0
C214 C 0.30337 0.16899 0.02839 0.0
O215 O 0.28912 0.17632 0.03845 0.0
C216 C 0.31361 0.25811 0.04148 0.0
C217 C 0.25437 0.30365 0.02442 0.0
O218 O 0.25579 0.304 0.04343 0.0
O219 O 0.25895 0.28791 0.01468 0.0
O220 O 0.34648 0.65734 0.73702 0.0
Cd221 Cd 0.32983 0.68744 0.74567 0.0
O222 O 0.35751 0.67121 0.71095 0.0
Cd223 Cd 0.3757 0.6725 0.68534 0.0
O224 O 0.39255 0.67452 0.65893 0.0
C225 C 0.39924 0.65921 0.65049 0.0
O226 O 0.39597 0.64188 0.65793 0.0
C227 C 0.35648 0.6564 0.7217 0.0
C228 C 0.34535 0.70392 0.78244 0.0
O229 O 0.33015 0.69154 0.7811 0.0
O230 O 0.35299 0.70872 0.76634 0.0
O231 O 0.97987 0.72261 0.23683 0.0
Cd232 Cd 0.98523 0.68785 0.22811 0.0
O233 O 0.99637 0.72037 0.26541 0.0
Cd234 Cd 0.00779 0.73078 0.29542 0.0
O235 O 0.01826 0.73677 0.3265 0.0
C236 C 0.00609 0.74143 0.33939 0.0
O237 O 0.98739 0.7431 0.33361 0.0
C238 C 0.9869 0.73072 0.25338 0.0
C239 C 0.00518 0.68394 0.19325 0.0
O240 O 0.98615 0.68313 0.19278 0.0
O241 O 0.01476 0.68651 0.21022 0.0
O242 O 0.6676 0.28197 0.74055 0.0
Cd243 Cd 0.68378 0.31528 0.74091 0.0
O244 O 0.64804 0.29316 0.76284 0.0
Cd245 Cd 0.6252 0.28957 0.78422 0.0
O246 O 0.60786 0.2876 0.81039 0.0
C247 C 0.61682 0.28327 0.82647 0.0
O248 O 0.63576 0.27982 0.82645 0.0
C249 C 0.65307 0.279 0.75135 0.0
C250 C 0.66338 0.33629 0.71282 0.0
O251 O 0.67865 0.32698 0.70832 0.0
O252 O 0.65815 0.3361 0.73073 0.0
O253 O 0.03469 0.29551 0.28 0.0
Cd254 Cd 0.03355 0.25928 0.27935 0.0
O255 O 0.0218 0.29507 0.24946 0.0
Cd256 Cd 0.01204 0.30713 0.22138 0.0
O257 O 0.00206 0.31146 0.19066 0.0
C258 C 0.01451 0.31625 0.1781 0.0
O259 O 0.03337 0.31928 0.18403 0.0
C260 C 0.0286 0.30487 0.26528 0.0
C261 C 0.01024 0.24513 0.30884 0.0
O262 O 0.02871 0.25023 0.31255 0.0
O263 O 0.00282 0.2466 0.29114 0.0
P264 P 0.3831 0.55615 0.53948 0.0
H265 H 0.40745 0.58921 0.56001 0.0
H266 H 0.39948 0.61634 0.58307 0.0
H267 H 0.33832 0.59337 0.58021 0.0
H268 H 0.34647 0.56605 0.55738 0.0
H269 H 0.3699 0.51944 0.51599 0.0
H270 H 0.35732 0.48679 0.52517 0.0
H271 H 0.36326 0.50736 0.58707 0.0
H272 H 0.37585 0.53994 0.5778 0.0
H273 H 0.39954 0.57992 0.50916 0.0
H274 H 0.34372 0.54885 0.5187 0.0
O275 O 0.40764 0.55504 0.53866 0.0
H276 H 0.38553 0.59106 0.47798 0.0
H277 H 0.3298 0.55899 0.48699 0.0
C278 C 0.37761 0.57545 0.55734 0.0
C279 C 0.39238 0.58988 0.56454 0.0
C280 C 0.38779 0.60548 0.57761 0.0
C281 C 0.36833 0.60698 0.58358 0.0
C282 C 0.35355 0.59246 0.57622 0.0
C283 C 0.35815 0.57688 0.56312 0.0
C284 C 0.37312 0.53234 0.54615 0.0
C285 C 0.36818 0.51703 0.53151 0.0
C286 C 0.36101 0.49837 0.53677 0.0
C287 C 0.35911 0.49458 0.55683 0.0
C288 C 0.36456 0.50983 0.57149 0.0
C289 C 0.37159 0.52852 0.56619 0.0
C290 C 0.3729 0.56297 0.51585 0.0
C291 C 0.38437 0.57513 0.50429 0.0
C292 C 0.37632 0.58145 0.48641 0.0
C293 C 0.35658 0.57572 0.47973 0.0
C294 C 0.34501 0.56381 0.49164 0.0
C295 C 0.35304 0.55771 0.50967 0.0
P296 P 0.19645 0.47169 0.91039 0.0
H297 H 0.18211 0.45748 0.94724 0.0
H298 H 0.19253 0.43155 0.96853 0.0
H299 H 0.2389 0.41833 0.9291 0.0
H300 H 0.2292 0.44517 0.90885 0.0
H301 H 0.18422 0.5048 0.93547 0.0
H302 H 0.20162 0.53543 0.9496 0.0
H303 H 0.25434 0.51967 0.92049 0.0
H304 H 0.23692 0.48859 0.90707 0.0
H305 H 0.19346 0.43407 0.88673 0.0
H306 H 0.2079 0.49568 0.87736 0.0
O307 O 0.17201 0.47336 0.91163 0.0
H308 H 0.19911 0.42514 0.85212 0.0
H309 H 0.2137 0.4868 0.84263 0.0
C310 C 0.20444 0.45274 0.92612 0.0
C311 C 0.19453 0.44897 0.94325 0.0
C312 C 0.20046 0.43402 0.95534 0.0
C313 C 0.2164 0.42251 0.95045 0.0
C314 C 0.22668 0.42689 0.93353 0.0
C315 C 0.22095 0.44208 0.9217 0.0
C316 C 0.20914 0.49473 0.9198 0.0
C317 C 0.19946 0.50803 0.93198 0.0
C318 C 0.20944 0.52561 0.94 0.0
C319 C 0.22935 0.5302 0.93602 0.0
C320 C 0.23907 0.5166 0.92398 0.0
C321 C 0.22909 0.49893 0.91611 0.0
C322 C 0.20106 0.46542 0.88486 0.0
C323 C 0.1982 0.44565 0.87732 0.0
C324 C 0.20146 0.44055 0.85752 0.0
C325 C 0.20719 0.45523 0.84473 0.0
C326 C 0.2094 0.47516 0.85216 0.0
C327 C 0.20626 0.48022 0.87205 0.0
P328 P 0.80293 0.96318 0.43893 0.0
H329 H 0.81421 0.93804 0.40522 0.0
H330 H 0.79837 0.90793 0.38777 0.0
H331 H 0.75099 0.90898 0.42803 0.0
H332 H 0.76678 0.93911 0.4452 0.0
H333 H 0.81752 0.99603 0.41596 0.0
H334 H 0.80124 0.02386 0.40203 0.0
H335 H 0.74577 0.00276 0.42461 0.0
H336 H 0.76212 0.97487 0.43816 0.0
H337 H 0.80793 0.93294 0.46751 0.0
H338 H 0.79178 0.99376 0.46841 0.0
O339 O 0.82721 0.96489 0.43549 0.0
H340 H 0.80334 0.93241 0.50307 0.0
H341 H 0.78636 0.99313 0.50367 0.0
C342 C 0.79184 0.94055 0.42671 0.0
C343 C 0.80051 0.93166 0.41037 0.0
C344 C 0.79146 0.91445 0.40044 0.0
C345 C 0.77345 0.90605 0.40656 0.0
C346 C 0.76476 0.91518 0.42284 0.0
C347 C 0.77384 0.93232 0.43277 0.0
C348 C 0.79102 0.98346 0.42816 0.0
C349 C 0.80185 0.99737 0.41784 0.0
C350 C 0.79251 0.01333 0.40993 0.0
C351 C 0.77215 0.01556 0.41212 0.0
C352 C 0.76137 0.00136 0.42231 0.0
C353 C 0.77071 0.98544 0.43018 0.0
C354 C 0.79974 0.9632 0.4652 0.0
C355 C 0.80319 0.94612 0.47533 0.0
C356 C 0.80043 0.94581 0.49564 0.0
C357 C 0.79424 0.96266 0.50624 0.0
C358 C 0.79123 0.97991 0.49605 0.0
C359 C 0.79412 0.98023 0.47577 0.0
P360 P 0.66155 0.00271 0.10808 0.0
H361 H 0.63288 0.0291 0.09159 0.0
H362 H 0.63669 0.05998 0.07483 0.0
H363 H 0.70048 0.0568 0.07975 0.0
H364 H 0.6965 0.02593 0.09677 0.0
H365 H 0.67754 0.96702 0.12343 0.0
H366 H 0.69259 0.93872 0.10756 0.0
H367 H 0.6877 0.9659 0.05131 0.0
H368 H 0.67307 0.99435 0.06739 0.0
H369 H 0.64109 0.01179 0.14412 0.0
H370 H 0.70136 0.00603 0.12794 0.0
O371 O 0.63758 0.99503 0.10719 0.0
H372 H 0.65283 0.0185 0.17888 0.0
H373 H 0.7133 0.01305 0.16266 0.0
C374 C 0.66441 0.02517 0.09526 0.0
C375 C 0.64768 0.03497 0.08898 0.0
C376 C 0.64988 0.0526 0.07932 0.0
C377 C 0.66889 0.06081 0.07587 0.0
C378 C 0.68564 0.05096 0.08233 0.0
C379 C 0.68341 0.03329 0.09196 0.0
C380 C 0.67466 0.98303 0.09671 0.0
C381 C 0.68011 0.9671 0.10777 0.0
C382 C 0.68855 0.95083 0.09863 0.0
C383 C 0.6914 0.95005 0.07816 0.0
C384 C 0.68608 0.96618 0.06716 0.0
C385 C 0.67766 0.98246 0.07635 0.0
C386 C 0.67033 0.008 0.13357 0.0
C387 C 0.65686 0.01196 0.14806 0.0
C388 C 0.66361 0.01596 0.16791 0.0
C389 C 0.68399 0.01618 0.17356 0.0
C390 C 0.69748 0.01264 0.15884 0.0
C391 C 0.6907 0.0087 0.139 0.0
P392 P 0.51661 0.38754 0.56009 0.0
H393 H 0.5428 0.41531 0.58623 0.0
H394 H 0.57007 0.41017 0.61045 0.0
H395 H 0.56245 0.34691 0.59657 0.0
H396 H 0.53546 0.35215 0.57218 0.0
H397 H 0.51602 0.34813 0.53941 0.0
H398 H 0.52785 0.33666 0.50742 0.0
H399 H 0.54534 0.39723 0.49596 0.0
H400 H 0.53342 0.40855 0.52789 0.0
H401 H 0.48001 0.37169 0.53787 0.0
H402 H 0.50439 0.37485 0.59845 0.0
O403 O 0.51202 0.41153 0.56019 0.0
H404 H 0.44963 0.3546 0.54799 0.0
H405 H 0.47449 0.35735 0.60855 0.0
C406 C 0.53717 0.3841 0.57739 0.0
C407 C 0.54708 0.40035 0.58831 0.0
C408 C 0.56258 0.3974 0.60225 0.0
C409 C 0.56838 0.37815 0.60546 0.0
C410 C 0.55853 0.36194 0.59425 0.0
C411 C 0.54306 0.36491 0.58035 0.0
C412 C 0.52351 0.37922 0.53582 0.0
C413 C 0.52221 0.35894 0.5299 0.0
C414 C 0.52911 0.3524 0.51169 0.0
C415 C 0.53748 0.36605 0.49914 0.0
C416 C 0.53868 0.38638 0.50515 0.0
C417 C 0.53188 0.39287 0.5234 0.0
C418 C 0.49467 0.37405 0.56729 0.0
C419 C 0.47895 0.36843 0.55328 0.0
C420 C 0.46161 0.35863 0.55909 0.0
C421 C 0.45964 0.3545 0.57908 0.0
C422 C 0.4754 0.36042 0.59308 0.0
C423 C 0.49266 0.37024 0.58726 0.0
P424 P 0.11162 0.65838 0.0105 0.0
H425 H 0.09458 0.63077 0.03759 0.0
H426 H 0.0769 0.63567 0.06779 0.0
H427 H 0.08237 0.69916 0.06264 0.0
H428 H 0.10029 0.6941 0.03245 0.0
H429 H 0.12762 0.67397 0.97486 0.0
H430 H 0.1121 0.68826 0.94592 0.0
H431 H 0.05525 0.68321 0.97199 0.0
H432 H 0.07098 0.66938 0.00109 0.0
H433 H 0.14744 0.63735 0.01899 0.0
H434 H 0.13204 0.69793 0.01395 0.0
O435 O 0.11032 0.63424 0.00344 0.0
H436 H 0.1824 0.64855 0.02514 0.0
H437 H 0.16705 0.70928 0.01976 0.0
C438 C 0.0986 0.66208 0.03273 0.0
C439 C 0.09194 0.64575 0.04291 0.0
C440 C 0.08175 0.64856 0.06014 0.0
C441 C 0.07813 0.6678 0.06756 0.0
C442 C 0.08507 0.68417 0.0574 0.0
C443 C 0.09523 0.68131 0.04012 0.0
C444 C 0.10056 0.67109 0.99037 0.0
C445 C 0.1119 0.67638 0.97457 0.0
C446 C 0.10297 0.68437 0.95793 0.0
C447 C 0.08243 0.68692 0.95664 0.0
C448 C 0.07116 0.68182 0.97266 0.0
C449 C 0.08014 0.67385 0.98931 0.0
C450 C 0.13724 0.6668 0.01566 0.0
C451 C 0.1516 0.65307 0.01913 0.0
C452 C 0.1716 0.65949 0.02259 0.0
C453 C 0.17755 0.6798 0.02277 0.0
C454 C 0.16296 0.69356 0.01987 0.0
C455 C 0.14296 0.68709 0.01642 0.0
P456 P 0.88426 0.18344 0.46807 0.0
H457 H 0.91797 0.16535 0.45055 0.0
H458 H 0.93869 0.17442 0.4237 0.0
H459 H 0.90553 0.22652 0.41591 0.0
H460 H 0.88444 0.21689 0.44212 0.0
H461 H 0.8855 0.17278 0.50929 0.0
H462 H 0.8988 0.19016 0.54032 0.0
H463 H 0.91456 0.24179 0.50838 0.0
H464 H 0.9017 0.22411 0.47737 0.0
H465 H 0.8509 0.15693 0.45176 0.0
H466 H 0.86142 0.21913 0.46965 0.0
O467 O 0.8861 0.15927 0.47115 0.0
H468 H 0.81682 0.16272 0.44037 0.0
H469 H 0.82744 0.22508 0.45767 0.0
C470 C 0.89942 0.19023 0.44815 0.0
C471 C 0.91504 0.17862 0.44293 0.0
C472 C 0.92702 0.18395 0.42767 0.0
C473 C 0.92377 0.20119 0.41752 0.0
C474 C 0.90823 0.21292 0.42305 0.0
C475 C 0.89616 0.20746 0.43817 0.0
C476 C 0.89299 0.19697 0.49095 0.0
C477 C 0.89185 0.18783 0.50896 0.0
C478 C 0.89932 0.19787 0.52674 0.0
C479 C 0.90791 0.21734 0.52685 0.0
C480 C 0.90843 0.22667 0.50879 0.0
C481 C 0.90099 0.21658 0.49102 0.0
C482 C 0.85865 0.18757 0.46169 0.0
C483 C 0.84582 0.17179 0.45348 0.0
C484 C 0.82635 0.1751 0.44698 0.0
C485 C 0.81956 0.19434 0.44817 0.0
C486 C 0.83238 0.21012 0.45656 0.0
C487 C 0.85174 0.20672 0.46343 0.0
P488 P 0.44227 0.77253 0.97661 0.0
H489 H 0.41056 0.78901 0.95248 0.0
H490 H 0.39375 0.77811 0.92031 0.0
H491 H 0.42906 0.72685 0.91746 0.0
H492 H 0.44593 0.73798 0.94953 0.0
H493 H 0.4105 0.77935 0.00303 0.0
H494 H 0.39497 0.75916 0.02737 0.0
H495 H 0.43392 0.71239 0.01403 0.0
H496 H 0.44937 0.73268 0.98949 0.0
H497 H 0.46911 0.77811 0.9449 0.0
H498 H 0.47366 0.76369 0.00626 0.0
O499 O 0.43855 0.7964 0.98191 0.0
H500 H 0.50498 0.7764 0.94326 0.0
H501 H 0.50963 0.76195 0.00471 0.0
C502 C 0.42976 0.76451 0.9531 0.0
C503 C 0.41473 0.77548 0.94487 0.0
C504 C 0.40504 0.76916 0.92657 0.0
C505 C 0.4102 0.75171 0.91628 0.0
C506 C 0.42501 0.74055 0.92485 0.0
C507 C 0.43462 0.74684 0.94318 0.0
C508 C 0.4315 0.75775 0.99495 0.0
C509 C 0.41581 0.76482 0.00543 0.0
C510 C 0.4068 0.75319 0.01917 0.0
C511 C 0.41327 0.73423 0.0226 0.0
C512 C 0.42881 0.72704 0.01183 0.0
C513 C 0.43767 0.73863 0.99789 0.0
C514 C 0.46862 0.77034 0.97549 0.0
C515 C 0.47779 0.7743 0.95796 0.0
C516 C 0.49832 0.77349 0.95708 0.0
C517 C 0.51009 0.76888 0.97382 0.0
C518 C 0.50088 0.76515 0.99147 0.0
C519 C 0.48033 0.76612 0.99236 0.0
P520 P 0.53123 0.52415 0.35571 0.0
H521 H 0.55776 0.54029 0.38938 0.0
H522 H 0.58802 0.56218 0.39166 0.0
H523 H 0.58372 0.56551 0.32788 0.0
H524 H 0.55315 0.54434 0.32587 0.0
H525 H 0.49572 0.50424 0.33535 0.0
H526 H 0.467 0.51646 0.31743 0.0
H527 H 0.49463 0.57602 0.32409 0.0
H528 H 0.52263 0.56382 0.34301 0.0
H529 H 0.53288 0.48542 0.37301 0.0
H530 H 0.54461 0.5103 0.31722 0.0
O531 O 0.52282 0.52213 0.37828 0.0
H532 H 0.5439 0.45345 0.36044 0.0
H533 H 0.55612 0.47851 0.3048 0.0
C534 C 0.5531 0.54085 0.35747 0.0
C535 C 0.56323 0.54592 0.37592 0.0
C536 C 0.58062 0.55832 0.37719 0.0
C537 C 0.58828 0.5657 0.35997 0.0
C538 C 0.57807 0.56044 0.3415 0.0
C539 C 0.56067 0.54814 0.34028 0.0
C540 C 0.51153 0.53302 0.34013 0.0
C541 C 0.49569 0.51989 0.33268 0.0
C542 C 0.4793 0.52691 0.32231 0.0
C543 C 0.47843 0.54727 0.31918 0.0
C544 C 0.49461 0.5603 0.32638 0.0
C545 C 0.51084 0.55328 0.337 0.0
C546 C 0.53805 0.50028 0.34608 0.0
C547 C 0.53774 0.48401 0.35804 0.0
C548 C 0.544 0.46575 0.35085 0.0
C549 C 0.55096 0.46358 0.3317 0.0
C550 C 0.55104 0.47986 0.3197 0.0
C551 C 0.54448 0.49802 0.32679 0.0
P552 P 0.00774 0.09756 0.66106 0.0
H553 H 0.03714 0.08683 0.63295 0.0
H554 H 0.06969 0.07319 0.63697 0.0
H555 H 0.06407 0.07328 0.70034 0.0
H556 H 0.03131 0.08682 0.69613 0.0
H557 H 0.97002 0.1093 0.6754 0.0
H558 H 0.94303 0.0911 0.69027 0.0
H559 H 0.97755 0.03924 0.69093 0.0
H560 H 0.00413 0.05735 0.67534 0.0
H561 H 0.01166 0.13326 0.63888 0.0
H562 H 0.01052 0.11889 0.70012 0.0
O563 O 0.99992 0.09498 0.63712 0.0
H564 H 0.01518 0.16859 0.64913 0.0
H565 H 0.01445 0.15426 0.71059 0.0
C566 C 0.03168 0.08745 0.6642 0.0
C567 C 0.04285 0.08384 0.6477 0.0
C568 C 0.06154 0.07618 0.65004 0.0
C569 C 0.06942 0.07209 0.66897 0.0
C570 C 0.05827 0.07601 0.68553 0.0
C571 C 0.0396 0.08379 0.68317 0.0
C572 C 0.9893 0.08486 0.67471 0.0
C573 C 0.97193 0.09413 0.67911 0.0
C574 C 0.95652 0.0837 0.6877 0.0
C575 C 0.95811 0.06369 0.69191 0.0
C576 C 0.97573 0.05456 0.68776 0.0
C577 C 0.99108 0.065 0.67904 0.0
C578 C 0.01044 0.12353 0.66874 0.0
C579 C 0.01214 0.13773 0.65455 0.0
C580 C 0.01434 0.15793 0.66045 0.0
C581 C 0.01501 0.16427 0.68068 0.0
C582 C 0.01365 0.1499 0.69488 0.0
C583 C 0.01148 0.12969 0.68894 0.0
P584 P 0.47287 0.91787 0.18885 0.0
H585 H 0.47081 0.96075 0.19429 0.0
H586 H 0.44473 0.9819 0.20496 0.0
H587 H 0.40647 0.92955 0.21193 0.0
H588 H 0.43266 0.9087 0.20208 0.0
H589 H 0.51374 0.91711 0.17732 0.0
H590 H 0.5457 0.92727 0.19486 0.0
H591 H 0.51542 0.94401 0.24732 0.0
H592 H 0.48355 0.9334 0.22975 0.0
H593 H 0.44722 0.88945 0.16398 0.0
H594 H 0.4823 0.88986 0.21936 0.0
O595 O 0.47509 0.92158 0.16487 0.0
H596 H 0.43471 0.85554 0.16819 0.0
H597 H 0.47061 0.85552 0.22331 0.0
C598 C 0.4538 0.93317 0.19751 0.0
C599 C 0.45684 0.95388 0.1983 0.0
C600 C 0.44186 0.96594 0.20425 0.0
C601 C 0.42347 0.95745 0.20933 0.0
C602 C 0.42054 0.93663 0.20848 0.0
C603 C 0.43555 0.92463 0.20267 0.0
C604 C 0.4963 0.92494 0.20211 0.0
C605 C 0.514 0.92301 0.19259 0.0
C606 C 0.53225 0.92889 0.20261 0.0
C607 C 0.53311 0.93666 0.22243 0.0
C608 C 0.5153 0.93801 0.2321 0.0
C609 C 0.49706 0.93212 0.22203 0.0
C610 C 0.46596 0.89203 0.19114 0.0
C611 C 0.4526 0.88203 0.17682 0.0
C612 C 0.44551 0.86258 0.17925 0.0
C613 C 0.45172 0.85264 0.19605 0.0
C614 C 0.46532 0.86273 0.2103 0.0
C615 C 0.47223 0.88231 0.20794 0.0
P616 P 0.96608 0.42861 0.76954 0.0
H617 H 0.94028 0.39648 0.78296 0.0
H618 H 0.90778 0.38167 0.77039 0.0
H619 H 0.90874 0.4194 0.72094 0.0
H620 H 0.94115 0.43434 0.7338 0.0
H621 H 0.9956 0.40106 0.78155 0.0
H622 H 0.02282 0.38683 0.76484 0.0
H623 H 0.00721 0.4179 0.71254 0.0
H624 H 0.9796 0.43178 0.72938 0.0
H625 H 0.93544 0.45647 0.77551 0.0
H626 H 0.99659 0.45909 0.76021 0.0
O627 O 0.96884 0.42475 0.79368 0.0
H628 H 0.93505 0.49251 0.77433 0.0
H629 H 0.99627 0.49516 0.75897 0.0
C630 C 0.94286 0.41678 0.75952 0.0
C631 C 0.9335 0.40153 0.7694 0.0
C632 C 0.91499 0.39298 0.76212 0.0
C633 C 0.9056 0.39949 0.74476 0.0
C634 C 0.91542 0.41432 0.73453 0.0
C635 C 0.93396 0.4228 0.74181 0.0
C636 C 0.98585 0.41779 0.75683 0.0
C637 C 0.99801 0.40482 0.76649 0.0
C638 C 0.01364 0.39667 0.75687 0.0
C639 C 0.01736 0.40122 0.73731 0.0
C640 C 0.00471 0.41384 0.7275 0.0
C641 C 0.98902 0.42195 0.73715 0.0
C642 C 0.96585 0.45502 0.76739 0.0
C643 C 0.9487 0.46477 0.77163 0.0
C644 C 0.94854 0.48538 0.77109 0.0
C645 C 0.96559 0.49664 0.76643 0.0
C646 C 0.9828 0.48683 0.76225 0.0
C647 C 0.98298 0.4662 0.76294 0.0
P648 P 0.69888 0.46361 0.47257 0.0
H649 H 0.69347 0.45554 0.42975 0.0
H650 H 0.67649 0.428 0.40897 0.0
H651 H 0.65597 0.40206 0.46161 0.0
H652 H 0.67257 0.4294 0.48204 0.0
H653 H 0.71757 0.50349 0.47565 0.0
H654 H 0.70565 0.53558 0.4678 0.0
H655 H 0.64628 0.50844 0.4557 0.0
H656 H 0.6586 0.47612 0.4631 0.0
H657 H 0.72958 0.44651 0.49703 0.0
H658 H 0.67073 0.4663 0.50395 0.0
O659 O 0.72181 0.46455 0.46459 0.0
H660 H 0.72959 0.43294 0.52954 0.0
H661 H 0.6701 0.45171 0.53622 0.0
C662 C 0.68452 0.44447 0.45745 0.0
C663 C 0.6851 0.44401 0.43674 0.0
C664 C 0.67544 0.42827 0.42491 0.0
C665 C 0.66493 0.41281 0.43365 0.0
C666 C 0.66369 0.41384 0.45436 0.0
C667 C 0.67339 0.42951 0.46614 0.0
C668 C 0.68905 0.48743 0.46952 0.0
C669 C 0.70195 0.50448 0.47146 0.0
C670 C 0.69504 0.52288 0.46713 0.0
C671 C 0.67499 0.52461 0.46097 0.0
C672 C 0.66187 0.50757 0.46005 0.0
C673 C 0.66886 0.48911 0.46435 0.0
C674 C 0.7002 0.45751 0.49814 0.0
C675 C 0.71674 0.4482 0.5057 0.0
C676 C 0.71659 0.44016 0.52422 0.0
C677 C 0.69967 0.44081 0.53539 0.0
C678 C 0.68344 0.45102 0.52814 0.0
C679 C 0.68376 0.45939 0.50969 0.0
P680 P 0.71611 0.54405 0.08275 0.0
H681 H 0.70138 0.55666 0.04426 0.0
H682 H 0.70895 0.58661 0.02665 0.0
H683 H 0.7571 0.6039 0.07016 0.0
H684 H 0.74974 0.57383 0.08747 0.0
H685 H 0.70969 0.50575 0.09909 0.0
H686 H 0.7187 0.4724 0.08885 0.0
H687 H 0.75038 0.49619 0.04091 0.0
H688 H 0.74111 0.52957 0.0512 0.0
H689 H 0.70308 0.57603 0.10813 0.0
H690 H 0.74503 0.53058 0.11294 0.0
O691 O 0.69135 0.54197 0.0802 0.0
H692 H 0.71382 0.58945 0.14169 0.0
H693 H 0.7555 0.5437 0.14673 0.0
C694 C 0.72463 0.56334 0.06744 0.0
C695 C 0.71384 0.56668 0.04974 0.0
C696 C 0.71823 0.58373 0.03966 0.0
C697 C 0.73342 0.59768 0.04725 0.0
C698 C 0.74514 0.5935 0.06417 0.0
C699 C 0.74091 0.57633 0.07407 0.0
C700 C 0.72483 0.5201 0.076 0.0
C701 C 0.71879 0.5038 0.08653 0.0
C702 C 0.72404 0.48476 0.08071 0.0
C703 C 0.73531 0.48164 0.06409 0.0
C704 C 0.74157 0.4981 0.05369 0.0
C705 C 0.73637 0.5172 0.05962 0.0
C706 C 0.72295 0.5521 0.10821 0.0
C707 C 0.71437 0.56875 0.11654 0.0
C708 C 0.72062 0.5765 0.13561 0.0
C709 C 0.73548 0.56759 0.14674 0.0
C710 C 0.74389 0.55071 0.13849 0.0
C711 C 0.73784 0.54316 0.11923 0.0
P712 P 0.32111 0.01544 0.51695 0.0
H713 H 0.34651 0.03538 0.54925 0.0
H714 H 0.3432 0.0651 0.57076 0.0
H715 H 0.28536 0.07217 0.54201 0.0
H716 H 0.28841 0.04176 0.52142 0.0
H717 H 0.34155 0.98678 0.53987 0.0
H718 H 0.32988 0.9579 0.55693 0.0
H719 H 0.26931 0.96819 0.53822 0.0
H720 H 0.28118 0.99725 0.52108 0.0
H721 H 0.31612 0.04935 0.49283 0.0
H722 H 0.30107 0.98631 0.48721 0.0
O723 O 0.34528 0.01396 0.51362 0.0
H724 H 0.30222 0.05252 0.45916 0.0
H725 H 0.28689 0.98941 0.45349 0.0
C726 C 0.318 0.03682 0.5333 0.0
C727 C 0.33311 0.04334 0.54764 0.0
C728 C 0.33122 0.06042 0.55986 0.0
C729 C 0.31418 0.07135 0.55791 0.0
C730 C 0.29867 0.06417 0.54404 0.0
C731 C 0.30048 0.0469 0.53204 0.0
C732 C 0.31225 0.99382 0.52882 0.0
C733 C 0.32577 0.98276 0.53928 0.0
C734 C 0.31907 0.96635 0.54918 0.0
C735 C 0.29868 0.96076 0.54886 0.0
C736 C 0.28512 0.97201 0.53848 0.0
C737 C 0.29186 0.98857 0.52872 0.0
C738 C 0.30896 0.01772 0.49283 0.0
C739 C 0.30934 0.03626 0.48455 0.0
C740 C 0.30136 0.03806 0.46527 0.0
C741 C 0.29321 0.02126 0.45373 0.0
C742 C 0.29301 0.00264 0.46202 0.0
C743 C 0.30095 0.00088 0.48138 0.0
P744 P 0.26929 0.96634 0.93897 0.0
H745 H 0.25802 0.92556 0.94691 0.0
H746 H 0.27668 0.89838 0.95883 0.0
H747 H 0.33082 0.93604 0.96142 0.0
H748 H 0.31186 0.9634 0.94973 0.0
H749 H 0.26623 0.00607 0.92501 0.0
H750 H 0.27409 0.03915 0.94084 0.0
H751 H 0.29727 0.01319 0.99358 0.0
H752 H 0.28913 0.97994 0.97772 0.0
H753 H 0.23855 0.9697 0.90737 0.0
H754 H 0.30187 0.96421 0.91228 0.0
O755 O 0.24579 0.96211 0.94472 0.0
H756 H 0.23968 0.97219 0.87164 0.0
H757 H 0.30309 0.96603 0.87635 0.0
C758 C 0.28349 0.94661 0.94791 0.0
C759 C 0.27389 0.92803 0.95016 0.0
C760 C 0.28462 0.91243 0.95678 0.0
C761 C 0.30525 0.91504 0.9611 0.0
C762 C 0.31491 0.93364 0.95848 0.0
C763 C 0.30411 0.94926 0.9518 0.0
C764 C 0.27763 0.9905 0.94995 0.0
C765 C 0.27335 0.00741 0.93983 0.0
C766 C 0.27769 0.02634 0.94894 0.0
C767 C 0.28634 0.02871 0.96841 0.0
C768 C 0.29087 0.01177 0.97846 0.0
C769 C 0.28629 0.99278 0.96938 0.0
C770 C 0.27006 0.96637 0.91242 0.0
C771 C 0.25266 0.96863 0.9007 0.0
C772 C 0.25333 0.97 0.88022 0.0
C773 C 0.27147 0.96916 0.87105 0.0
C774 C 0.2889 0.96688 0.88292 0.0
C775 C 0.2882 0.96561 0.90345 0.0
P776 P 0.46864 0.70311 0.45901 0.0
H777 H 0.45621 0.72105 0.42301 0.0
H778 H 0.44326 0.70724 0.39034 0.0
H779 H 0.44026 0.64849 0.41223 0.0
H780 H 0.45362 0.66242 0.44507 0.0
H781 H 0.43287 0.68335 0.4726 0.0
H782 H 0.42518 0.67084 0.50464 0.0
H783 H 0.48671 0.6819 0.5255 0.0
H784 H 0.49426 0.6945 0.49344 0.0
H785 H 0.4949 0.67373 0.44391 0.0
H786 H 0.49889 0.73618 0.46176 0.0
O787 O 0.46122 0.72593 0.46376 0.0
H788 H 0.52771 0.67707 0.43058 0.0
H789 H 0.53191 0.73956 0.44906 0.0
C790 C 0.4554 0.69284 0.43657 0.0
C791 C 0.45234 0.70526 0.42096 0.0
C792 C 0.44511 0.69735 0.40227 0.0
C793 C 0.44083 0.67682 0.39882 0.0
C794 C 0.44329 0.66439 0.41462 0.0
C795 C 0.45081 0.67234 0.43335 0.0
C796 C 0.4642 0.68944 0.48049 0.0
C797 C 0.44482 0.68245 0.48384 0.0
C798 C 0.44045 0.67532 0.50218 0.0
C799 C 0.45534 0.67541 0.51762 0.0
C800 C 0.47491 0.68175 0.51393 0.0
C801 C 0.47927 0.68879 0.49555 0.0
C802 C 0.49438 0.70475 0.45353 0.0
C803 C 0.50305 0.68806 0.44536 0.0
C804 C 0.52186 0.68999 0.43783 0.0
C805 C 0.53232 0.70866 0.43848 0.0
C806 C 0.52406 0.72507 0.44792 0.0
C807 C 0.50522 0.72313 0.45533 0.0
P808 P 0.94205 0.27572 0.97141 0.0
H809 H 0.97828 0.29915 0.96355 0.0
H810 H 0.98859 0.31551 0.93418 0.0
H811 H 0.93024 0.30111 0.90546 0.0
H812 H 0.9205 0.28399 0.93437 0.0
H813 H 0.96625 0.25657 0.00104 0.0
H814 H 0.98018 0.26757 0.03416 0.0
H815 H 0.95819 0.32564 0.02689 0.0
H816 H 0.94404 0.31436 0.99361 0.0
H817 H 0.91454 0.24346 0.98125 0.0
H818 H 0.91196 0.30524 0.96937 0.0
O819 O 0.949 0.25294 0.96552 0.0
H820 H 0.87887 0.2412 0.98531 0.0
H821 H 0.87605 0.30298 0.97263 0.0
C822 C 0.94846 0.29081 0.95137 0.0
C823 C 0.96761 0.29987 0.95106 0.0
C824 C 0.97347 0.30927 0.93424 0.0
C825 C 0.96026 0.30965 0.91738 0.0
C826 C 0.94091 0.30091 0.91803 0.0
C827 C 0.93519 0.29135 0.93472 0.0
C828 C 0.95428 0.28472 0.99482 0.0
C829 C 0.96466 0.27176 0.0064 0.0
C830 C 0.9727 0.27811 0.02536 0.0
C831 C 0.97036 0.29752 0.03316 0.0
C832 C 0.96012 0.31056 0.02136 0.0
C833 C 0.95215 0.30419 0.00232 0.0
C834 C 0.91575 0.27435 0.97444 0.0
C835 C 0.90623 0.25649 0.97928 0.0
C836 C 0.88579 0.25521 0.98151 0.0
C837 C 0.87448 0.27182 0.97898 0.0
C838 C 0.88427 0.28991 0.97475 0.0
C839 C 0.90477 0.29119 0.97269 0.0
P840 P 0.07116 0.70479 0.54082 0.0
H841 H 0.05108 0.67709 0.56576 0.0
H842 H 0.03451 0.68195 0.59658 0.0
H843 H 0.04134 0.74551 0.5925 0.0
H844 H 0.05799 0.74049 0.5615 0.0
H845 H 0.09227 0.7171 0.50689 0.0
H846 H 0.08095 0.72926 0.47515 0.0
H847 H 0.02182 0.73273 0.49585 0.0
H848 H 0.03317 0.71988 0.52729 0.0
H849 H 0.10435 0.68255 0.55486 0.0
H850 H 0.0921 0.74383 0.54873 0.0
O851 O 0.07014 0.68072 0.53352 0.0
H852 H 0.1364 0.6928 0.5719 0.0
H853 H 0.12384 0.75434 0.56658 0.0
C854 C 0.05561 0.70843 0.56127 0.0
C855 C 0.0486 0.69207 0.5712 0.0
C856 C 0.03908 0.69487 0.58883 0.0
C857 C 0.03662 0.71412 0.59699 0.0
C858 C 0.04315 0.73051 0.58665 0.0
C859 C 0.05256 0.72766 0.56891 0.0
C860 C 0.06366 0.71794 0.51956 0.0
C861 C 0.07699 0.72095 0.50476 0.0
C862 C 0.07048 0.72796 0.48661 0.0
C863 C 0.05043 0.73195 0.48288 0.0
C864 C 0.03729 0.72959 0.49811 0.0
C865 C 0.04382 0.72246 0.51622 0.0
C866 C 0.09599 0.71243 0.55032 0.0
C867 C 0.10869 0.69823 0.55695 0.0
C868 C 0.12692 0.70415 0.56694 0.0
C869 C 0.13265 0.72442 0.57083 0.0
C870 C 0.12004 0.73861 0.56367 0.0
C871 C 0.10185 0.73264 0.55352 0.0
P872 P 0.5203 0.31924 0.01231 0.0
H873 H 0.53199 0.34458 0.0479 0.0
H874 H 0.5472 0.33787 0.08028 0.0
H875 H 0.55246 0.27677 0.05988 0.0
H876 H 0.53698 0.28358 0.02739 0.0
H877 H 0.5048 0.3114 0.97134 0.0
H878 H 0.52044 0.30193 0.94081 0.0
H879 H 0.57584 0.29638 0.9748 0.0
H880 H 0.5603 0.30663 0.00505 0.0
H881 H 0.48754 0.33484 0.03271 0.0
H882 H 0.49884 0.28124 0.99857 0.0
O883 O 0.5198 0.34368 0.01024 0.0
H884 H 0.45434 0.32098 0.03859 0.0
H885 H 0.46541 0.26733 0.0042 0.0
C886 C 0.53385 0.31469 0.03511 0.0
C887 C 0.53671 0.32982 0.05024 0.0
C888 C 0.54524 0.32593 0.06879 0.0
C889 C 0.55101 0.30681 0.07255 0.0
C890 C 0.54836 0.2917 0.05728 0.0
C891 C 0.53958 0.29557 0.03875 0.0
C892 C 0.53121 0.30918 0.99054 0.0
C893 C 0.52021 0.30775 0.97224 0.0
C894 C 0.52918 0.30229 0.95479 0.0
C895 C 0.54942 0.29833 0.95531 0.0
C896 C 0.56029 0.2995 0.9738 0.0
C897 C 0.55132 0.30509 0.9912 0.0
C898 C 0.49538 0.30931 0.01472 0.0
C899 C 0.48274 0.3202 0.02623 0.0
C900 C 0.46387 0.31219 0.02975 0.0
C901 C 0.45732 0.29309 0.02183 0.0
C902 C 0.47003 0.28217 0.01028 0.0
C903 C 0.48906 0.29013 0.00698 0.0
P904 P 0.44031 0.46346 0.68721 0.0
H905 H 0.41871 0.42467 0.68726 0.0
H906 H 0.38858 0.4111 0.66858 0.0
H907 H 0.39252 0.45945 0.62958 0.0
H908 H 0.42258 0.47318 0.64871 0.0
H909 H 0.47757 0.46706 0.71083 0.0
H910 H 0.51197 0.46425 0.70283 0.0
H911 H 0.49337 0.45601 0.64044 0.0
H912 H 0.45871 0.45833 0.64874 0.0
H913 H 0.40211 0.47855 0.6945 0.0
H914 H 0.46136 0.5032 0.687 0.0
O915 O 0.43868 0.45345 0.70909 0.0
H916 H 0.39037 0.51193 0.69823 0.0
H917 H 0.44964 0.53681 0.69088 0.0
C918 C 0.42262 0.45013 0.66959 0.0
C919 C 0.41345 0.43205 0.67435 0.0
C920 C 0.39622 0.42424 0.66355 0.0
C921 C 0.38793 0.4344 0.6478 0.0
C922 C 0.39834 0.45148 0.64188 0.0
C923 C 0.41559 0.45927 0.6527 0.0
C924 C 0.46559 0.4625 0.68043 0.0
C925 C 0.48088 0.46465 0.69542 0.0
C926 C 0.50061 0.46327 0.69078 0.0
C927 C 0.50549 0.4599 0.67097 0.0
C928 C 0.4901 0.45834 0.65587 0.0
C929 C 0.47029 0.45972 0.66058 0.0
C930 C 0.43252 0.4884 0.69025 0.0
C931 C 0.41258 0.49118 0.69359 0.0
C932 C 0.40587 0.51025 0.69563 0.0
C933 C 0.41905 0.52695 0.69464 0.0
C934 C 0.43917 0.52417 0.69171 0.0
C935 C 0.44586 0.50498 0.68945 0.0
P936 P 0.97454 0.94662 0.28058 0.0
H937 H 0.93302 0.95045 0.26897 0.0
H938 H 0.90487 0.96099 0.28706 0.0
H939 H 0.94258 0.96897 0.34116 0.0
H940 H 0.97084 0.95855 0.3228 0.0
H941 H 0.01289 0.92942 0.28934 0.0
H942 H 0.04562 0.9444 0.3002 0.0
H943 H 0.02111 0.00194 0.3062 0.0
H944 H 0.98833 0.98683 0.2948 0.0
H945 H 0.98387 0.91889 0.24834 0.0
H946 H 0.96505 0.91584 0.308 0.0
O947 O 0.97168 0.95505 0.25794 0.0
H948 H 0.98447 0.8828 0.24521 0.0
H949 H 0.96511 0.87958 0.30485 0.0
C950 C 0.95407 0.95422 0.29445 0.0
C951 C 0.93525 0.95453 0.28472 0.0
C952 C 0.91912 0.96037 0.29513 0.0
C953 C 0.92148 0.96586 0.31556 0.0
C954 C 0.94034 0.96509 0.32538 0.0
C955 C 0.95649 0.95916 0.31491 0.0
C956 C 0.99809 0.957 0.29146 0.0
C957 C 0.01441 0.9452 0.29328 0.0
C958 C 0.03319 0.9538 0.2996 0.0
C959 C 0.03602 0.97439 0.30408 0.0
C960 C 0.01949 0.98607 0.30267 0.0
C961 C 0.00072 0.97745 0.29632 0.0
C962 C 0.97399 0.91996 0.27822 0.0
C963 C 0.97957 0.9104 0.26066 0.0
C964 C 0.97984 0.88975 0.25889 0.0
C965 C 0.97464 0.87826 0.27471 0.0
C966 C 0.96929 0.88798 0.29242 0.0
C967 C 0.96907 0.90868 0.29418 0.0
P968 P 0.54857 0.08308 0.71099 0.0
H969 H 0.56006 0.0448 0.6944 0.0
H970 H 0.59029 0.02683 0.69917 0.0
H971 H 0.61217 0.07032 0.7458 0.0
H972 H 0.58195 0.08798 0.74127 0.0
H973 H 0.51282 0.10391 0.71681 0.0
H974 H 0.48066 0.09367 0.72873 0.0
H975 H 0.50338 0.03771 0.74408 0.0
H976 H 0.53543 0.04796 0.73167 0.0
H977 H 0.56593 0.11254 0.68625 0.0
H978 H 0.55047 0.10967 0.74702 0.0
O979 O 0.54254 0.0794 0.68671 0.0
H980 H 0.58117 0.14587 0.69369 0.0
H981 H 0.56668 0.14267 0.75498 0.0
C982 C 0.56897 0.06804 0.71707 0.0
C983 C 0.57122 0.05029 0.70586 0.0
C984 C 0.58844 0.03999 0.70865 0.0
C985 C 0.60366 0.04739 0.72265 0.0
C986 C 0.60078 0.06449 0.73469 0.0
C987 C 0.58348 0.07461 0.73207 0.0
C988 C 0.52658 0.07684 0.72363 0.0
C989 C 0.51102 0.08963 0.72319 0.0
C990 C 0.49262 0.08375 0.73006 0.0
C991 C 0.48939 0.06484 0.73736 0.0
C992 C 0.50529 0.0523 0.73837 0.0
C993 C 0.5237 0.05821 0.73144 0.0
C994 C 0.55687 0.10876 0.71603 0.0
C995 C 0.56561 0.11921 0.70117 0.0
C996 C 0.57459 0.1382 0.70555 0.0
C997 C 0.57545 0.14695 0.72503 0.0
C998 C 0.56613 0.13658 0.73977 0.0
C999 C 0.55687 0.11767 0.73527 0.0
P1000 P 0.03451 0.52051 0.30948 0.0
H1001 H 0.07123 0.5225 0.33423 0.0
H1002 H 0.10535 0.53361 0.32877 0.0
H1003 H 0.08686 0.5488 0.26956 0.0
H1004 H 0.05254 0.53791 0.27533 0.0
H1005 H 0.99533 0.50817 0.29047 0.0
H1006 H 0.9678 0.52697 0.2787 0.0
H1007 H 0.00441 0.58149 0.2903 0.0
H1008 H 0.03176 0.56253 0.30263 0.0
H1009 H 0.01649 0.48631 0.32771 0.0
H1010 H 0.04642 0.49749 0.27449 0.0
O1011 O 0.03134 0.52334 0.33376 0.0
H1012 H 0.01416 0.45078 0.31846 0.0
H1013 H 0.04462 0.46185 0.26533 0.0
C1014 C 0.05932 0.52982 0.30536 0.0
C1015 C 0.07447 0.52844 0.32015 0.0
C1016 C 0.09402 0.5346 0.31693 0.0
C1017 C 0.09884 0.54207 0.29871 0.0
C1018 C 0.08359 0.54337 0.28384 0.0
C1019 C 0.06398 0.53715 0.28711 0.0
C1020 C 0.01574 0.53391 0.29706 0.0
C1021 C 0.99762 0.52411 0.29005 0.0
C1022 C 0.98186 0.53492 0.28325 0.0
C1023 C 0.98386 0.55577 0.28354 0.0
C1024 C 0.00229 0.56547 0.29004 0.0
C1025 C 0.01802 0.55464 0.2969 0.0
C1026 C 0.03204 0.49446 0.30202 0.0
C1027 C 0.02266 0.4811 0.31407 0.0
C1028 C 0.0214 0.46077 0.30879 0.0
C1029 C 0.02945 0.45343 0.29129 0.0
C1030 C 0.0382 0.467 0.27887 0.0
C1031 C 0.03941 0.48737 0.28417 0.0
H1032 H 0.22634 0.55046 0.28292 0.0
H1033 H 0.21107 0.61036 0.29833 0.0
H1034 H 0.19133 0.53922 0.28179 0.0
H1035 H 0.17611 0.59904 0.29764 0.0
H1036 H 0.11281 0.57495 0.28066 0.0
H1037 H 0.14739 0.5858 0.27658 0.0
H1038 H 0.16667 0.53445 0.3058 0.0
H1039 H 0.13223 0.52327 0.30916 0.0
C1040 C 0.21551 0.56125 0.28599 0.0
C1041 C 0.22151 0.58128 0.29084 0.0
C1042 C 0.19545 0.55479 0.28544 0.0
C1043 C 0.18092 0.5682 0.28978 0.0
C1044 C 0.18688 0.58835 0.29403 0.0
C1045 C 0.20694 0.59482 0.29454 0.0
C1046 C 0.12444 0.56584 0.28593 0.0
C1047 C 0.11977 0.54831 0.29535 0.0
C1048 C 0.14425 0.57216 0.28378 0.0
C1049 C 0.15981 0.56103 0.29092 0.0
C1050 C 0.15508 0.54328 0.29993 0.0
C1051 C 0.13532 0.537 0.30209 0.0
H1052 H 0.26064 0.43375 0.61737 0.0
H1053 H 0.27059 0.38274 0.6514 0.0
H1054 H 0.2962 0.43865 0.61386 0.0
H1055 H 0.30612 0.3881 0.64876 0.0
H1056 H 0.37012 0.39718 0.63825 0.0
H1057 H 0.33474 0.38857 0.6316 0.0
H1058 H 0.32356 0.45099 0.63371 0.0
H1059 H 0.35866 0.45942 0.64023 0.0
C1060 C 0.27043 0.4235 0.62399 0.0
C1061 C 0.26282 0.40803 0.6349 0.0
C1062 C 0.29087 0.4264 0.62214 0.0
C1063 C 0.30423 0.41405 0.63136 0.0
C1064 C 0.29644 0.39787 0.64128 0.0
C1065 C 0.27598 0.39484 0.64292 0.0
C1066 C 0.36007 0.40902 0.63699 0.0
C1067 C 0.36722 0.42898 0.6399 0.0
C1068 C 0.33975 0.40411 0.63326 0.0
C1069 C 0.32609 0.41904 0.63227 0.0
C1070 C 0.33349 0.439 0.63401 0.0
C1071 C 0.35375 0.44389 0.63777 0.0
H1072 H 0.70064 0.97272 0.69905 0.0
H1073 H 0.72952 0.02442 0.73144 0.0
H1074 H 0.66841 0.98597 0.70371 0.0
H1075 H 0.69728 0.03724 0.73718 0.0
H1076 H 0.63996 0.06643 0.72141 0.0
H1077 H 0.67197 0.05204 0.72009 0.0
H1078 H 0.6435 0.99364 0.72487 0.0
H1079 H 0.61123 0.00821 0.72519 0.0
C1080 C 0.70006 0.98677 0.7075 0.0
C1081 C 0.7176 0.99763 0.71473 0.0
C1082 C 0.68153 0.99433 0.71031 0.0
C1083 C 0.68011 0.0128 0.72072 0.0
C1084 C 0.69773 0.02323 0.72864 0.0
C1085 C 0.71624 0.01583 0.72549 0.0
C1086 C 0.6406 0.05054 0.7224 0.0
C1087 C 0.62316 0.03843 0.72345 0.0
C1088 C 0.659 0.04224 0.72175 0.0
C1089 C 0.66048 0.02161 0.72244 0.0
C1090 C 0.64297 0.00953 0.72396 0.0
C1091 C 0.62449 0.01785 0.72427 0.0
H1092 H 0.80609 0.98745 0.3626 0.0
H1093 H 0.83425 0.04441 0.35143 0.0
H1094 H 0.83689 0.97166 0.35628 0.0
H1095 H 0.8648 0.02864 0.34476 0.0
H1096 H 0.92127 0.99739 0.34287 0.0
H1097 H 0.89254 0.01109 0.3577 0.0
H1098 H 0.85426 0.96458 0.32648 0.0
H1099 H 0.88301 0.9505 0.31231 0.0
C1100 C 0.81889 0.99662 0.35897 0.0
C1101 C 0.81765 0.01714 0.35724 0.0
C1102 C 0.83651 0.98757 0.35528 0.0
C1103 C 0.85326 0.99885 0.34981 0.0
C1104 C 0.85228 0.01952 0.34911 0.0
C1105 C 0.83469 0.02856 0.35281 0.0
C1106 C 0.90677 0.98984 0.33955 0.0
C1107 C 0.90439 0.97297 0.32626 0.0
C1108 C 0.89029 0.9978 0.34789 0.0
C1109 C 0.87107 0.98904 0.34315 0.0
C1110 C 0.86884 0.97163 0.3306 0.0
C1111 C 0.8853 0.96369 0.32226 0.0
H1112 H 0.3339 0.17781 0.63754 0.0
H1113 H 0.2834 0.18893 0.59843 0.0
H1114 H 0.33458 0.14444 0.62177 0.0
H1115 H 0.28406 0.15547 0.58278 0.0
H1116 H 0.28133 0.08676 0.57384 0.0
H1117 H 0.27931 0.11901 0.59163 0.0
H1118 H 0.34218 0.13139 0.58696 0.0
H1119 H 0.3442 0.09965 0.56855 0.0
C1120 C 0.32285 0.17309 0.62569 0.0
C1121 C 0.30864 0.18603 0.61916 0.0
C1122 C 0.32331 0.15402 0.61663 0.0
C1123 C 0.3094 0.14742 0.60104 0.0
C1124 C 0.29486 0.16015 0.59486 0.0
C1125 C 0.29456 0.17932 0.60375 0.0
C1126 C 0.29471 0.0964 0.57643 0.0
C1127 C 0.31294 0.09051 0.56971 0.0
C1128 C 0.29354 0.11483 0.5867 0.0
C1129 C 0.3106 0.12763 0.59071 0.0
C1130 C 0.32885 0.12167 0.58432 0.0
C1131 C 0.32999 0.1034 0.57384 0.0
H1132 H 0.35024 0.83264 0.04165 0.0
H1133 H 0.35713 0.80244 0.98457 0.0
H1134 H 0.34044 0.86195 0.02522 0.0
H1135 H 0.34769 0.83198 0.96812 0.0
H1136 H 0.30119 0.87581 0.94833 0.0
H1137 H 0.31685 0.84814 0.96296 0.0
H1138 H 0.35076 0.88906 0.00532 0.0
H1139 H 0.33447 0.91674 0.99111 0.0
C1140 C 0.35 0.83237 0.0256 0.0
C1141 C 0.35427 0.81513 0.01441 0.0
C1142 C 0.34449 0.84924 0.01617 0.0
C1143 C 0.34314 0.84928 0.99534 0.0
C1144 C 0.34827 0.83232 0.98418 0.0
C1145 C 0.35379 0.81543 0.99361 0.0
C1146 C 0.312 0.87891 0.96076 0.0
C1147 C 0.31641 0.89846 0.96869 0.0
C1148 C 0.32118 0.86306 0.96899 0.0
C1149 C 0.33503 0.86637 0.98537 0.0
C1150 C 0.33999 0.88599 0.99286 0.0
C1151 C 0.3308 0.90187 0.98459 0.0
H1152 H 0.6468 0.30468 0.35585 0.0
H1153 H 0.62516 0.29162 0.41286 0.0
H1154 H 0.64956 0.33997 0.36604 0.0
H1155 H 0.62856 0.32668 0.4233 0.0
H1156 H 0.62936 0.39186 0.43664 0.0
H1157 H 0.61879 0.35939 0.42079 0.0
H1158 H 0.67181 0.36038 0.38795 0.0
H1159 H 0.68237 0.39268 0.40385 0.0
C1160 C 0.6425 0.30935 0.37051 0.0
C1161 C 0.63607 0.29533 0.38367 0.0
C1162 C 0.6442 0.32957 0.3764 0.0
C1163 C 0.63963 0.3362 0.39562 0.0
C1164 C 0.63212 0.32221 0.40834 0.0
C1165 C 0.63028 0.30203 0.4024 0.0
C1166 C 0.63861 0.38522 0.42583 0.0
C1167 C 0.65678 0.39478 0.42162 0.0
C1168 C 0.63253 0.36662 0.4167 0.0
C1169 C 0.64442 0.35717 0.40309 0.0
C1170 C 0.66206 0.36728 0.39809 0.0
C1171 C 0.66816 0.38586 0.40723 0.0
H1172 H 0.7092 0.69696 0.97717 0.0
H1173 H 0.7428 0.72455 0.02878 0.0
H1174 H 0.71521 0.66435 0.98878 0.0
H1175 H 0.74996 0.69195 0.03989 0.0
H1176 H 0.73458 0.63348 0.06762 0.0
H1177 H 0.73382 0.66603 0.0544 0.0
H1178 H 0.73642 0.63926 0.99494 0.0
H1179 H 0.73611 0.60645 0.00837 0.0
C1180 C 0.71826 0.69601 0.9908 0.0
C1181 C 0.72535 0.71328 0.00219 0.0
C1182 C 0.72186 0.67727 0.99743 0.0
C1183 C 0.73296 0.67536 0.01543 0.0
C1184 C 0.7409 0.69275 0.02625 0.0
C1185 C 0.73693 0.71148 0.01982 0.0
C1186 C 0.73531 0.63461 0.05175 0.0
C1187 C 0.73542 0.61747 0.03901 0.0
C1188 C 0.73497 0.65333 0.04412 0.0
C1189 C 0.73505 0.65545 0.02352 0.0
C1190 C 0.73594 0.63826 0.01083 0.0
C1191 C 0.73591 0.61945 0.01849 0.0
H1192 H 0.62674 0.30306 0.17953 0.0
H1193 H 0.56903 0.28221 0.19702 0.0
H1194 H 0.6133 0.30377 0.14525 0.0
H1195 H 0.55567 0.28294 0.16277 0.0
H1196 H 0.53588 0.31689 0.10788 0.0
H1197 H 0.54958 0.31132 0.14114 0.0
H1198 H 0.59793 0.28157 0.11589 0.0
H1199 H 0.58419 0.28726 0.08244 0.0
C1200 C 0.61126 0.29841 0.17603 0.0
C1201 C 0.59891 0.29272 0.19102 0.0
C1202 C 0.60361 0.29872 0.15638 0.0
C1203 C 0.58342 0.29354 0.1514 0.0
C1204 C 0.57124 0.28722 0.16625 0.0
C1205 C 0.57893 0.28673 0.18584 0.0
C1206 C 0.54943 0.30915 0.10944 0.0
C1207 C 0.55906 0.30261 0.09262 0.0
C1208 C 0.55716 0.3058 0.12845 0.0
C1209 C 0.5748 0.29598 0.13108 0.0
C1210 C 0.58436 0.28925 0.11426 0.0
C1211 C 0.57647 0.2924 0.09518 0.0
H1212 H 0.03248 0.35094 0.82462 0.0
H1213 H 0.97325 0.34435 0.79631 0.0
H1214 H 0.0191 0.3433 0.85626 0.0
H1215 H 0.95992 0.33683 0.82799 0.0
H1216 H 0.95087 0.29513 0.87915 0.0
H1217 H 0.96246 0.30778 0.8487 0.0
H1218 H 0.99713 0.35512 0.88263 0.0
H1219 H 0.98513 0.34273 0.91332 0.0
C1220 C 0.01659 0.34813 0.82519 0.0
C1221 C 0.00395 0.34805 0.8079 0.0
C1222 C 0.00892 0.34385 0.84335 0.0
C1223 C 0.98848 0.3393 0.84457 0.0
C1224 C 0.97577 0.34001 0.82744 0.0
C1225 C 0.98341 0.3444 0.80932 0.0
C1226 C 0.96061 0.3085 0.8802 0.0
C1227 C 0.96695 0.31796 0.89877 0.0
C1228 C 0.9673 0.31572 0.86269 0.0
C1229 C 0.98064 0.33249 0.86326 0.0
C1230 C 0.98696 0.34207 0.88175 0.0
C1231 C 0.98012 0.33492 0.89932 0.0
H1232 H 0.37495 0.66073 0.2875 0.0
H1233 H 0.43308 0.64365 0.27228 0.0
H1234 H 0.38532 0.66077 0.32267 0.0
H1235 H 0.44332 0.64352 0.30746 0.0
H1236 H 0.46024 0.68318 0.36569 0.0
H1237 H 0.44948 0.67283 0.33147 0.0
H1238 H 0.3975 0.64157 0.35154 0.0
H1239 H 0.40842 0.65209 0.38608 0.0
C1240 C 0.38981 0.65662 0.29164 0.0
C1241 C 0.4033 0.65253 0.27709 0.0
C1242 C 0.39569 0.65648 0.31181 0.0
C1243 C 0.41521 0.6524 0.3178 0.0
C1244 C 0.42827 0.64703 0.30325 0.0
C1245 C 0.42239 0.6471 0.28311 0.0
C1246 C 0.44662 0.67392 0.36279 0.0
C1247 C 0.43503 0.66859 0.37842 0.0
C1248 C 0.44056 0.66781 0.34323 0.0
C1249 C 0.42265 0.65636 0.33882 0.0
C1250 C 0.41133 0.65045 0.35453 0.0
C1251 C 0.41758 0.65638 0.37423 0.0
H1252 H 0.03665 0.71332 0.72283 0.0
H1253 H 0.97368 0.71023 0.70659 0.0
H1254 H 0.04366 0.71861 0.68854 0.0
H1255 H 0.98074 0.71575 0.67225 0.0
H1256 H 0.00473 0.69421 0.61154 0.0
H1257 H 0.99489 0.69545 0.64572 0.0
H1258 H 0.04087 0.74163 0.66176 0.0
H1259 H 0.05105 0.74002 0.62767 0.0
C1260 C 0.02429 0.71406 0.71201 0.0
C1261 C 0.00462 0.71119 0.71742 0.0
C1262 C 0.02831 0.71723 0.69236 0.0
C1263 C 0.01275 0.71752 0.67766 0.0
C1264 C 0.99305 0.71538 0.68321 0.0
C1265 C 0.98902 0.71231 0.7029 0.0
C1266 C 0.01261 0.70475 0.62234 0.0
C1267 C 0.02876 0.7169 0.61695 0.0
C1268 C 0.00686 0.7056 0.64187 0.0
C1269 C 0.01719 0.71855 0.65647 0.0
C1270 C 0.03277 0.73134 0.65089 0.0
C1271 C 0.03846 0.73056 0.63132 0.0
H1272 H 0.77787 0.38028 0.72605 0.0
H1273 H 0.79998 0.33027 0.69325 0.0
H1274 H 0.81184 0.39248 0.73603 0.0
H1275 H 0.834 0.34266 0.70306 0.0
H1276 H 0.89089 0.36074 0.74283 0.0
H1277 H 0.85706 0.34778 0.73285 0.0
H1278 H 0.84087 0.40692 0.72058 0.0
H1279 H 0.87447 0.41995 0.7311 0.0
C1280 C 0.78997 0.37187 0.72098 0.0
C1281 C 0.78622 0.35431 0.70885 0.0
C1282 C 0.80944 0.37895 0.72659 0.0
C1283 C 0.8256 0.36859 0.72025 0.0
C1284 C 0.82186 0.35088 0.70832 0.0
C1285 C 0.80237 0.34384 0.70264 0.0
C1286 C 0.88007 0.37097 0.73807 0.0
C1287 C 0.88535 0.39137 0.73778 0.0
C1288 C 0.86075 0.36352 0.73219 0.0
C1289 C 0.84628 0.37634 0.72599 0.0
C1290 C 0.85162 0.3967 0.72551 0.0
C1291 C 0.87094 0.40413 0.7313 0.0
H1292 H 0.71254 0.6009 0.35776 0.0
H1293 H 0.68443 0.65513 0.34598 0.0
H1294 H 0.68062 0.5851 0.36428 0.0
H1295 H 0.6525 0.63958 0.35314 0.0
H1296 H 0.59711 0.59806 0.33886 0.0
H1297 H 0.62883 0.61658 0.33802 0.0
H1298 H 0.65363 0.58137 0.38366 0.0
H1299 H 0.62214 0.56196 0.38347 0.0
C1300 C 0.69958 0.60959 0.35698 0.0
C1301 C 0.70099 0.62918 0.35108 0.0
C1302 C 0.68121 0.60055 0.36085 0.0
C1303 C 0.6638 0.61094 0.35905 0.0
C1304 C 0.66545 0.63091 0.35421 0.0
C1305 C 0.68382 0.63992 0.35025 0.0
C1306 C 0.60936 0.59421 0.34866 0.0
C1307 C 0.60712 0.57836 0.36106 0.0
C1308 C 0.62754 0.60508 0.34843 0.0
C1309 C 0.64396 0.60053 0.36075 0.0
C1310 C 0.64148 0.58513 0.37371 0.0
C1311 C 0.6233 0.57416 0.37383 0.0
H1312 H 0.30983 0.99886 0.24071 0.0
H1313 H 0.34763 0.05282 0.24222 0.0
H1314 H 0.3374 0.9797 0.23059 0.0
H1315 H 0.37524 0.03356 0.23211 0.0
H1316 H 0.41278 0.99221 0.19383 0.0
H1317 H 0.38546 0.01233 0.20291 0.0
H1318 H 0.36987 0.97128 0.2469 0.0
H1319 H 0.39738 0.95142 0.23824 0.0
C1320 C 0.32397 0.00666 0.23876 0.0
C1321 C 0.32655 0.02736 0.24233 0.0
C1322 C 0.3398 0.99566 0.23309 0.0
C1323 C 0.3585 0.00513 0.2307 0.0
C1324 C 0.36096 0.02588 0.23374 0.0
C1325 C 0.34517 0.03689 0.2396 0.0
C1326 C 0.40372 0.98762 0.20564 0.0
C1327 C 0.40726 0.97012 0.21524 0.0
C1328 C 0.38803 0.99911 0.21077 0.0
C1329 C 0.37545 0.99328 0.22549 0.0
C1330 C 0.3791 0.97595 0.23524 0.0
C1331 C 0.39486 0.96456 0.23024 0.0
H1332 H 0.19541 0.05018 0.68022 0.0
H1333 H 0.16492 0.99194 0.67583 0.0
H1334 H 0.1635 0.06534 0.67853 0.0
H1335 H 0.13305 0.00713 0.67395 0.0
H1336 H 0.07999 0.0419 0.69187 0.0
H1337 H 0.11222 0.0274 0.69501 0.0
H1338 H 0.13544 0.06828 0.65405 0.0
H1339 H 0.10339 0.08309 0.6513 0.0
C1340 C 0.18191 0.04061 0.67887 0.0
C1341 C 0.18271 0.01985 0.67813 0.0
C1342 C 0.16364 0.04931 0.67781 0.0
C1343 C 0.14576 0.03744 0.67611 0.0
C1344 C 0.14656 0.01668 0.67549 0.0
C1345 C 0.16483 0.00798 0.67643 0.0
C1346 C 0.09205 0.04792 0.68372 0.0
C1347 C 0.08915 0.06362 0.67132 0.0
C1348 C 0.11043 0.03949 0.68536 0.0
C1349 C 0.12635 0.04665 0.67473 0.0
C1350 C 0.12352 0.06253 0.66255 0.0
C1351 C 0.10511 0.07089 0.66082 0.0
H1352 H 0.69753 0.81905 0.33258 0.0
H1353 H 0.73451 0.78425 0.36959 0.0
H1354 H 0.71507 0.84941 0.34729 0.0
H1355 H 0.75184 0.81465 0.38449 0.0
H1356 H 0.7908 0.87253 0.39342 0.0
H1357 H 0.77454 0.84244 0.37654 0.0
H1358 H 0.71771 0.86827 0.3795 0.0
H1359 H 0.73401 0.89851 0.39581 0.0
C1360 C 0.70942 0.81787 0.34383 0.0
C1361 C 0.71459 0.79923 0.34995 0.0
C1362 C 0.71939 0.83527 0.35233 0.0
C1363 C 0.73479 0.83444 0.36711 0.0
C1364 C 0.74018 0.81578 0.37299 0.0
C1365 C 0.73017 0.79837 0.36453 0.0
C1366 C 0.77486 0.87185 0.39025 0.0
C1367 C 0.76368 0.88788 0.39598 0.0
C1368 C 0.76553 0.85455 0.38077 0.0
C1369 C 0.74484 0.85296 0.37672 0.0
C1370 C 0.7337 0.86909 0.38224 0.0
C1371 C 0.74301 0.88634 0.39178 0.0
H1372 H 0.67492 0.15348 0.9915 0.0
H1373 H 0.68336 0.18479 0.04923 0.0
H1374 H 0.67261 0.12195 0.00727 0.0
H1375 H 0.68074 0.15329 0.06499 0.0
H1376 H 0.6957 0.09233 0.08546 0.0
H1377 H 0.69908 0.12348 0.0691 0.0
H1378 H 0.65011 0.10335 0.02747 0.0
H1379 H 0.64717 0.07196 0.04341 0.0
C1380 C 0.67622 0.15365 0.00755 0.0
C1381 C 0.67932 0.17165 0.01911 0.0
C1382 C 0.67481 0.13558 0.01659 0.0
C1383 C 0.67649 0.13511 0.03739 0.0
C1384 C 0.67963 0.15312 0.04893 0.0
C1385 C 0.68101 0.17119 0.0399 0.0
C1386 C 0.68581 0.09447 0.07268 0.0
C1387 C 0.67116 0.07967 0.06575 0.0
C1388 C 0.6876 0.1124 0.06344 0.0
C1389 C 0.67482 0.11592 0.04702 0.0
C1390 C 0.6603 0.10104 0.03997 0.0
C1391 C 0.65847 0.08314 0.04924 0.0
H1392 H 0.32914 0.68514 0.67928 0.0
H1393 H 0.33207 0.72091 0.62851 0.0
H1394 H 0.34327 0.65807 0.66061 0.0
H1395 H 0.34537 0.69365 0.60955 0.0
H1396 H 0.38107 0.64612 0.58286 0.0
H1397 H 0.37182 0.67396 0.60404 0.0
H1398 H 0.33415 0.63398 0.63521 0.0
H1399 H 0.34419 0.6061 0.61464 0.0
C1400 C 0.33285 0.68723 0.66414 0.0
C1401 C 0.3294 0.70512 0.65534 0.0
C1402 C 0.34082 0.67164 0.65336 0.0
C1403 C 0.34534 0.67351 0.63346 0.0
C1404 C 0.3424 0.69168 0.6249 0.0
C1405 C 0.33464 0.70732 0.63575 0.0
C1406 C 0.37104 0.64325 0.59444 0.0
C1407 C 0.3633 0.62389 0.59701 0.0
C1408 C 0.36554 0.65927 0.60646 0.0
C1409 C 0.35217 0.65634 0.62138 0.0
C1410 C 0.34472 0.63688 0.62414 0.0
C1411 C 0.35025 0.62086 0.61213 0.0
H1412 H 0.23384 0.33447 0.03887 0.0
H1413 H 0.26117 0.31229 0.98646 0.0
H1414 H 0.22441 0.36373 0.0216 0.0
H1415 H 0.25212 0.34172 0.96948 0.0
H1416 H 0.25368 0.40953 0.95872 0.0
H1417 H 0.26239 0.38068 0.97662 0.0
H1418 H 0.20097 0.36907 0.98867 0.0
H1419 H 0.19186 0.39719 0.96981 0.0
C1420 C 0.23783 0.33585 0.0237 0.0
C1421 C 0.24821 0.3211 0.01399 0.0
C1422 C 0.2324 0.35253 0.01385 0.0
C1423 C 0.23765 0.35493 0.9943 0.0
C1424 C 0.24805 0.34023 0.98461 0.0
C1425 C 0.2531 0.32337 0.99429 0.0
C1426 C 0.24192 0.40075 0.9649 0.0
C1427 C 0.222 0.40573 0.9626 0.0
C1428 C 0.24698 0.3843 0.97527 0.0
C1429 C 0.23233 0.37271 0.98393 0.0
C1430 C 0.21254 0.37791 0.98222 0.0
C1431 C 0.20739 0.39412 0.97151 0.0
H1432 H 0.37879 0.72851 0.79011 0.0
H1433 H 0.33185 0.69756 0.81903 0.0
H1434 H 0.39404 0.74076 0.82243 0.0
H1435 H 0.34727 0.70964 0.85135 0.0
H1436 H 0.37063 0.75118 0.90488 0.0
H1437 H 0.35451 0.74067 0.87237 0.0
H1438 H 0.41135 0.72668 0.85092 0.0
H1439 H 0.4275 0.73768 0.88321 0.0
C1440 C 0.37169 0.72436 0.80335 0.0
C1441 C 0.35413 0.71202 0.80201 0.0
C1442 C 0.3805 0.73129 0.82186 0.0
C1443 C 0.3719 0.7261 0.83943 0.0
C1444 C 0.35415 0.71405 0.83807 0.0
C1445 C 0.34538 0.70705 0.81956 0.0
C1446 C 0.37968 0.74602 0.89316 0.0
C1447 C 0.40033 0.74524 0.8966 0.0
C1448 C 0.37043 0.73983 0.87461 0.0
C1449 C 0.38167 0.73286 0.85909 0.0
C1450 C 0.40232 0.73218 0.86252 0.0
C1451 C 0.41154 0.73826 0.88107 0.0
H1452 H 0.98903 0.67745 0.15523 0.0
H1453 H 0.04528 0.68601 0.18937 0.0
H1454 H 0.00648 0.6742 0.12474 0.0
H1455 H 0.06271 0.68246 0.15889 0.0
H1456 H 0.08656 0.69542 0.09862 0.0
H1457 H 0.06865 0.6999 0.12875 0.0
H1458 H 0.02737 0.65082 0.10813 0.0
H1459 H 0.04488 0.64674 0.07776 0.0
C1460 C 0.00512 0.6786 0.15624 0.0
C1461 C 0.01577 0.68197 0.17473 0.0
C1462 C 0.01511 0.67664 0.13877 0.0
C1463 C 0.03598 0.67806 0.13939 0.0
C1464 C 0.04663 0.68153 0.15788 0.0
C1465 C 0.03663 0.68344 0.17536 0.0
C1466 C 0.07354 0.68573 0.10044 0.0
C1467 C 0.06716 0.67071 0.08582 0.0
C1468 C 0.06341 0.68816 0.11778 0.0
C1469 C 0.04661 0.67569 0.12085 0.0
C1470 C 0.04014 0.66079 0.10614 0.0
C1471 C 0.0503 0.65831 0.08884 0.0
H1472 H 0.67197 0.34169 0.67441 0.0
H1473 H 0.62755 0.35229 0.71654 0.0
H1474 H 0.65121 0.35544 0.64864 0.0
H1475 H 0.60609 0.36452 0.69056 0.0
H1476 H 0.57373 0.39538 0.64312 0.0
H1477 H 0.59858 0.38867 0.66894 0.0
H1478 H 0.62277 0.34556 0.62869 0.0
H1479 H 0.59858 0.35316 0.60265 0.0
C1480 C 0.65782 0.3471 0.6782 0.0
C1481 C 0.65145 0.34596 0.69753 0.0
C1482 C 0.64575 0.35473 0.66335 0.0
C1483 C 0.62675 0.36086 0.66734 0.0
C1484 C 0.62068 0.36024 0.68688 0.0
C1485 C 0.63294 0.35304 0.70181 0.0
C1486 C 0.58465 0.3848 0.63969 0.0
C1487 C 0.58421 0.37483 0.62084 0.0
C1488 C 0.59878 0.38073 0.65459 0.0
C1489 C 0.61279 0.36653 0.65103 0.0
C1490 C 0.61253 0.35686 0.63199 0.0
C1491 C 0.59846 0.36099 0.61709 0.0
H1492 H 0.97255 0.22781 0.30456 0.0
H1493 H 0.01978 0.24631 0.34874 0.0
H1494 H 0.95197 0.21629 0.3305 0.0
H1495 H 0.99896 0.23554 0.37478 0.0
H1496 H 0.96392 0.19783 0.41545 0.0
H1497 H 0.9847 0.20721 0.38891 0.0
H1498 H 0.93364 0.22832 0.35692 0.0
H1499 H 0.91265 0.21773 0.3828 0.0
C1500 C 0.9785 0.22952 0.31983 0.0
C1501 C 0.9978 0.23797 0.32459 0.0
C1502 C 0.96665 0.22303 0.33474 0.0
C1503 C 0.97373 0.22502 0.3548 0.0
C1504 C 0.99309 0.23345 0.35951 0.0
C1505 C 0.00501 0.23976 0.34457 0.0
C1506 C 0.95704 0.20417 0.40262 0.0
C1507 C 0.93656 0.20699 0.40132 0.0
C1508 C 0.96904 0.20983 0.38749 0.0
C1509 C 0.96091 0.21861 0.37074 0.0
C1510 C 0.94042 0.22139 0.36944 0.0
C1511 C 0.9284 0.21558 0.38448 0.0
H1512 H 0.28679 0.58674 0.36926 0.0
H1513 H 0.33751 0.62831 0.36645 0.0
H1514 H 0.29815 0.57984 0.40303 0.0
H1515 H 0.34878 0.62131 0.40008 0.0
H1516 H 0.37551 0.57949 0.44527 0.0
H1517 H 0.36207 0.59009 0.41372 0.0
H1518 H 0.30503 0.59623 0.43823 0.0
H1519 H 0.3186 0.5863 0.4702 0.0
C1520 C 0.30018 0.59462 0.37593 0.0
C1521 C 0.31131 0.60797 0.3651 0.0
C1522 C 0.30663 0.5907 0.39527 0.0
C1523 C 0.32444 0.59989 0.40406 0.0
C1524 C 0.33513 0.61383 0.39355 0.0
C1525 C 0.32858 0.61792 0.37433 0.0
C1526 C 0.3602 0.58343 0.44414 0.0
C1527 C 0.3482 0.5821 0.4604 0.0
C1528 C 0.3525 0.58945 0.42601 0.0
C1529 C 0.33255 0.59407 0.42358 0.0
C1530 C 0.32044 0.59263 0.43969 0.0
C1531 C 0.32822 0.58683 0.45795 0.0
H1532 H 0.20464 0.38588 0.7343 0.0
H1533 H 0.21516 0.44542 0.71552 0.0
H1534 H 0.20757 0.39853 0.76877 0.0
H1535 H 0.21858 0.45807 0.75022 0.0
H1536 H 0.19419 0.47365 0.81185 0.0
H1537 H 0.19674 0.46274 0.77711 0.0
H1538 H 0.22989 0.41338 0.7952 0.0
H1539 H 0.22709 0.42418 0.82992 0.0
C1540 C 0.2079 0.40164 0.73752 0.0
C1541 C 0.20953 0.41463 0.72212 0.0
C1542 C 0.20971 0.40891 0.75734 0.0
C1543 C 0.21325 0.42934 0.76229 0.0
C1544 C 0.21557 0.44228 0.7469 0.0
C1545 C 0.21374 0.435 0.72703 0.0
C1546 C 0.20229 0.46065 0.80838 0.0
C1547 C 0.21027 0.44966 0.82361 0.0
C1548 C 0.2038 0.45442 0.78847 0.0
C1549 C 0.21341 0.4371 0.78335 0.0
C1550 C 0.22206 0.42656 0.79862 0.0
C1551 C 0.22047 0.43275 0.81851 0.0
H1552 H 0.79347 0.93174 0.62885 0.0
H1553 H 0.76984 0.98983 0.62986 0.0
H1554 H 0.7948 0.93178 0.59288 0.0
H1555 H 0.7711 0.98975 0.59385 0.0
H1556 H 0.80354 0.99228 0.53532 0.0
H1557 H 0.79853 0.99156 0.57067 0.0
H1558 H 0.77311 0.9314 0.56161 0.0
H1559 H 0.77771 0.93218 0.52612 0.0
C1560 C 0.78835 0.94442 0.62139 0.0
C1561 C 0.78165 0.96083 0.63226 0.0
C1562 C 0.78904 0.94439 0.60077 0.0
C1563 C 0.78318 0.96082 0.59057 0.0
C1564 C 0.77595 0.97699 0.60135 0.0
C1565 C 0.77511 0.97696 0.62196 0.0
C1566 C 0.7966 0.97898 0.54077 0.0
C1567 C 0.79105 0.96228 0.52782 0.0
C1568 C 0.79375 0.97858 0.56105 0.0
C1569 C 0.7854 0.96143 0.5689 0.0
C1570 C 0.77978 0.94475 0.556 0.0
C1571 C 0.7825 0.94519 0.53569 0.0
H1572 H 0.75353 0.02975 0.2866 0.0
H1573 H 0.69336 0.03796 0.30209 0.0
H1574 H 0.74238 0.02619 0.25152 0.0
H1575 H 0.68198 0.03343 0.2671 0.0
H1576 H 0.6719 0.04367 0.20096 0.0
H1577 H 0.68335 0.04918 0.23586 0.0
H1578 H 0.72345 0.00209 0.22894 0.0
H1579 H 0.71209 0.99669 0.19408 0.0
C1580 C 0.73789 0.03068 0.28248 0.0
C1581 C 0.72422 0.03357 0.29708 0.0
C1582 C 0.73147 0.02847 0.26241 0.0
C1583 C 0.71124 0.02924 0.2565 0.0
C1584 C 0.69766 0.03277 0.27112 0.0
C1585 C 0.70411 0.03498 0.2912 0.0
C1586 C 0.68309 0.03444 0.20694 0.0
C1587 C 0.69112 0.01977 0.19474 0.0
C1588 C 0.68964 0.03758 0.22694 0.0
C1589 C 0.70435 0.0261 0.2352 0.0
C1590 C 0.71236 0.01144 0.22298 0.0
C1591 C 0.70585 0.00833 0.20299 0.0
H1592 H 0.36799 0.26614 0.60643 0.0
H1593 H 0.34722 0.32158 0.62941 0.0
H1594 H 0.39735 0.28388 0.59511 0.0
H1595 H 0.37583 0.3395 0.61705 0.0
H1596 H 0.44017 0.36244 0.61279 0.0
H1597 H 0.41087 0.34475 0.62391 0.0
H1598 H 0.40743 0.30612 0.57043 0.0
H1599 H 0.43737 0.32323 0.55975 0.0
C1600 C 0.3696 0.28216 0.60882 0.0
C1601 C 0.35503 0.29255 0.61826 0.0
C1602 C 0.38631 0.29235 0.60217 0.0
C1603 C 0.38887 0.31315 0.60495 0.0
C1604 C 0.37438 0.32348 0.61468 0.0
C1605 C 0.35774 0.31326 0.6214 0.0
C1606 C 0.43329 0.35005 0.60348 0.0
C1607 C 0.44122 0.34419 0.58542 0.0
C1608 C 0.41632 0.34006 0.60974 0.0
C1609 C 0.40676 0.32399 0.59808 0.0
C1610 C 0.41455 0.31827 0.57991 0.0
C1611 C 0.43158 0.32824 0.57366 0.0
H1612 H 0.29907 0.71415 0.0004 0.0
H1613 H 0.29693 0.72865 0.06322 0.0
H1614 H 0.26444 0.70159 0.99879 0.0
H1615 H 0.26215 0.71595 0.06172 0.0
H1616 H 0.19457 0.71228 0.04496 0.0
H1617 H 0.2295 0.72413 0.04783 0.0
H1618 H 0.24383 0.67404 0.00982 0.0
H1619 H 0.20888 0.66259 0.00638 0.0
C1620 C 0.29129 0.7142 0.01396 0.0
C1621 C 0.30079 0.72184 0.03203 0.0
C1622 C 0.27142 0.70713 0.01303 0.0
C1623 C 0.26059 0.70756 0.03017 0.0
C1624 C 0.27006 0.71547 0.04824 0.0
C1625 C 0.28996 0.72264 0.04913 0.0
C1626 C 0.20517 0.70386 0.03715 0.0
C1627 C 0.19892 0.68653 0.02539 0.0
C1628 C 0.22521 0.71052 0.03897 0.0
C1629 C 0.23943 0.70004 0.02902 0.0
C1630 C 0.23321 0.68256 0.0175 0.0
C1631 C 0.21321 0.67588 0.01571 0.0
H1632 H 0.69443 0.21464 0.4213 0.0
H1633 H 0.72019 0.20587 0.36475 0.0
H1634 H 0.7268 0.21026 0.43842 0.0
H1635 H 0.75252 0.20175 0.38181 0.0
H1636 H 0.80987 0.22132 0.42147 0.0
H1637 H 0.77705 0.22595 0.40566 0.0
H1638 H 0.75127 0.18024 0.43993 0.0
H1639 H 0.7842 0.17535 0.45552 0.0
C1640 C 0.70701 0.21172 0.41258 0.0
C1641 C 0.70483 0.21028 0.39175 0.0
C1642 C 0.72545 0.20916 0.42234 0.0
C1643 C 0.74207 0.20568 0.41139 0.0
C1644 C 0.73991 0.20447 0.39056 0.0
C1645 C 0.72142 0.20662 0.38083 0.0
C1646 C 0.79715 0.21241 0.42574 0.0
C1647 C 0.7995 0.198 0.4397 0.0
C1648 C 0.77845 0.21496 0.41662 0.0
C1649 C 0.76172 0.20341 0.42159 0.0
C1650 C 0.76396 0.18937 0.43594 0.0
C1651 C 0.78274 0.18653 0.44477 0.0
H1652 H 0.63668 0.75968 0.99986 0.0
H1653 H 0.63265 0.7817 0.94111 0.0
H1654 H 0.60059 0.75742 4e-05 0.0
H1655 H 0.59657 0.7788 0.94099 0.0
H1656 H 0.53516 0.79582 0.95787 0.0
H1657 H 0.57105 0.79556 0.95657 0.0
H1658 H 0.57035 0.7406 0.98626 0.0
H1659 H 0.53436 0.74116 0.9879 0.0
C1660 C 0.62809 0.76373 0.98684 0.0
C1661 C 0.63755 0.77102 0.97053 0.0
C1662 C 0.60737 0.76235 0.98691 0.0
C1663 C 0.59563 0.76809 0.9706 0.0
C1664 C 0.60513 0.77466 0.95399 0.0
C1665 C 0.62584 0.7762 0.95399 0.0
C1666 C 0.54267 0.7836 0.96397 0.0
C1667 C 0.53195 0.7685 0.97295 0.0
C1668 C 0.56325 0.7834 0.96317 0.0
C1669 C 0.57363 0.76799 0.9712 0.0
C1670 C 0.56288 0.75282 0.98015 0.0
C1671 C 0.54227 0.75312 0.98107 0.0
H1672 H 0.581 0.34049 0.31489 0.0
H1673 H 0.60921 0.36979 0.26797 0.0
H1674 H 0.56893 0.37182 0.327 0.0
H1675 H 0.59558 0.40087 0.27884 0.0
H1676 H 0.58596 0.45794 0.31483 0.0
H1677 H 0.59903 0.42665 0.30363 0.0
H1678 H 0.54563 0.39504 0.32035 0.0
H1679 H 0.53311 0.42637 0.33235 0.0
C1680 C 0.585 0.35371 0.30742 0.0
C1681 C 0.59685 0.35283 0.29104 0.0
C1682 C 0.57757 0.37164 0.31401 0.0
C1683 C 0.58135 0.38905 0.30402 0.0
C1684 C 0.59274 0.38796 0.28724 0.0
C1685 C 0.60041 0.37008 0.28087 0.0
C1686 C 0.57704 0.44427 0.31602 0.0
C1687 C 0.55855 0.44454 0.32444 0.0
C1688 C 0.58446 0.42631 0.30953 0.0
C1689 C 0.57342 0.4082 0.31101 0.0
C1690 C 0.55478 0.40858 0.3193 0.0
C1691 C 0.54751 0.42653 0.32608 0.0
H1692 H 0.02215 0.27993 0.74548 0.0
H1693 H 0.02368 0.29342 0.68393 0.0
H1694 H 0.02131 0.24453 0.73582 0.0
H1695 H 0.02185 0.258 0.67413 0.0
H1696 H 0.03878 0.19344 0.66592 0.0
H1697 H 0.04135 0.22884 0.67574 0.0
H1698 H 0.998 0.21916 0.71926 0.0
H1699 H 0.99543 0.18381 0.70945 0.0
C1700 C 0.02221 0.2753 0.72986 0.0
C1701 C 0.02244 0.28941 0.71541 0.0
C1702 C 0.02154 0.25503 0.72431 0.0
C1703 C 0.02125 0.24842 0.70419 0.0
C1704 C 0.02207 0.26259 0.68976 0.0
C1705 C 0.02273 0.28288 0.69534 0.0
C1706 C 0.02971 0.19889 0.6775 0.0
C1707 C 0.0169 0.18579 0.68691 0.0
C1708 C 0.03118 0.21918 0.68312 0.0
C1709 C 0.01989 0.22683 0.69829 0.0
C1710 C 0.00715 0.21371 0.70774 0.0
C1711 C 0.00567 0.19343 0.70213 0.0
H1712 H 0.3789 0.74291 0.18404 0.0
H1713 H 0.42212 0.73241 0.23139 0.0
H1714 H 0.39368 0.77647 0.18236 0.0
H1715 H 0.43679 0.76622 0.22972 0.0
H1716 H 0.44192 0.83625 0.23077 0.0
H1717 H 0.42728 0.80293 0.23486 0.0
H1718 H 0.42774 0.78943 0.17172 0.0
H1719 H 0.44305 0.82231 0.1676 0.0
C1720 C 0.39139 0.74783 0.19428 0.0
C1721 C 0.39939 0.73494 0.2078 0.0
C1722 C 0.39992 0.76701 0.19319 0.0
C1723 C 0.41647 0.77384 0.20578 0.0
C1724 C 0.42401 0.7613 0.21988 0.0
C1725 C 0.41563 0.74197 0.22079 0.0
C1726 C 0.43925 0.82609 0.21778 0.0
C1727 C 0.44359 0.83209 0.19882 0.0
C1728 C 0.43077 0.80705 0.22015 0.0
C1729 C 0.4262 0.79373 0.20358 0.0
C1730 C 0.43079 0.79956 0.1847 0.0
C1731 C 0.4395 0.81844 0.18236 0.0
H1732 H 0.94139 0.62148 0.78505 0.0
H1733 H 0.99943 0.62191 0.76136 0.0
H1734 H 0.93834 0.5854 0.78044 0.0
H1735 H 0.99672 0.58584 0.75742 0.0
H1736 H 0.98023 0.52106 0.73911 0.0
H1737 H 0.98066 0.55724 0.73984 0.0
H1738 H 0.95195 0.55786 0.79537 0.0
H1739 H 0.95113 0.52179 0.79431 0.0
C1740 C 0.95349 0.61388 0.77881 0.0
C1741 C 0.9707 0.62457 0.77367 0.0
C1742 C 0.95181 0.59317 0.77629 0.0
C1743 C 0.96737 0.58264 0.76874 0.0
C1744 C 0.98434 0.59341 0.76306 0.0
C1745 C 0.98594 0.61413 0.76541 0.0
C1746 C 0.97402 0.52898 0.75144 0.0
C1747 C 0.96562 0.51861 0.76663 0.0
C1748 C 0.97429 0.54971 0.7519 0.0
C1749 C 0.96631 0.56053 0.76765 0.0
C1750 C 0.95785 0.55006 0.78279 0.0
C1751 C 0.95744 0.52936 0.78223 0.0
H1752 H 0.70503 0.40618 0.65727 0.0
H1753 H 0.6987 0.35042 0.62241 0.0
H1754 H 0.70107 0.42405 0.62717 0.0
H1755 H 0.69401 0.36814 0.59222 0.0
H1756 H 0.71434 0.40487 0.54235 0.0
H1757 H 0.71393 0.38717 0.5724 0.0
H1758 H 0.68059 0.43287 0.59985 0.0
H1759 H 0.68231 0.45144 0.57005 0.0
C1760 C 0.70219 0.39775 0.64317 0.0
C1761 C 0.70207 0.37695 0.64212 0.0
C1762 C 0.69992 0.40798 0.62588 0.0
C1763 C 0.69738 0.39759 0.60717 0.0
C1764 C 0.69641 0.37668 0.60629 0.0
C1765 C 0.69896 0.36649 0.62357 0.0
C1766 C 0.70719 0.41138 0.55486 0.0
C1767 C 0.69864 0.4298 0.5538 0.0
C1768 C 0.70659 0.40097 0.57204 0.0
C1769 C 0.69713 0.40848 0.58861 0.0
C1770 C 0.68821 0.42672 0.58747 0.0
C1771 C 0.68901 0.43729 0.57029 0.0
H1772 H 0.7376 0.60435 0.27076 0.0
H1773 H 0.79008 0.63566 0.25193 0.0
H1774 H 0.73171 0.58786 0.23761 0.0
H1775 H 0.78418 0.61913 0.21869 0.0
H1776 H 0.74687 0.60617 0.15761 0.0
H1777 H 0.75634 0.62079 0.19102 0.0
H1778 H 0.74865 0.563 0.21453 0.0
H1779 H 0.73928 0.54833 0.18102 0.0
C1780 C 0.74795 0.60757 0.25955 0.0
C1781 C 0.76442 0.62109 0.26393 0.0
C1782 C 0.74466 0.59805 0.24065 0.0
C1783 C 0.75755 0.60215 0.22566 0.0
C1784 C 0.77404 0.61569 0.23002 0.0
C1785 C 0.77752 0.62498 0.24905 0.0
C1786 C 0.74731 0.5966 0.16993 0.0
C1787 C 0.74227 0.57616 0.16681 0.0
C1788 C 0.75287 0.60493 0.18898 0.0
C1789 C 0.7532 0.59301 0.20531 0.0
C1790 C 0.74842 0.57251 0.20217 0.0
C1791 C 0.74317 0.56412 0.18305 0.0
H1792 H 0.23839 0.04988 0.33864 0.0
H1793 H 0.29807 0.03361 0.32894 0.0
H1794 H 0.24273 0.04151 0.3733 0.0
H1795 H 0.30263 0.02586 0.36356 0.0
H1796 H 0.29982 0.99684 0.42144 0.0
H1797 H 0.29098 0.00156 0.38663 0.0
H1798 H 0.26256 0.05503 0.40361 0.0
H1799 H 0.27088 0.04999 0.43852 0.0
C1800 C 0.25228 0.04419 0.34381 0.0
C1801 C 0.26776 0.04205 0.331 0.0
C1802 C 0.25487 0.03966 0.36371 0.0
C1803 C 0.27297 0.03286 0.37112 0.0
C1804 C 0.28839 0.03071 0.35824 0.0
C1805 C 0.28584 0.03533 0.33845 0.0
C1806 C 0.29132 0.00937 0.41779 0.0
C1807 C 0.28615 0.0231 0.43274 0.0
C1808 C 0.28644 0.01219 0.39783 0.0
C1809 C 0.27624 0.02877 0.39236 0.0
C1810 C 0.27034 0.04206 0.40734 0.0
C1811 C 0.27528 0.03928 0.42732 0.0
H1812 H 0.27875 0.01824 0.75609 0.0
H1813 H 0.25522 0.9581 0.7416 0.0
H1814 H 0.28271 0.01122 0.791 0.0
H1815 H 0.25956 0.95081 0.77644 0.0
H1816 H 0.24469 0.95338 0.84157 0.0
H1817 H 0.24434 0.95863 0.80632 0.0
H1818 H 0.29997 0.99379 0.81569 0.0
H1819 H 0.29969 0.9895 0.85122 0.0
C1820 C 0.27501 0.00334 0.76031 0.0
C1821 C 0.2669 0.98865 0.74613 0.0
C1822 C 0.27721 0.99931 0.78034 0.0
C1823 C 0.2714 0.98045 0.7866 0.0
C1824 C 0.26385 0.9656 0.77224 0.0
C1825 C 0.26147 0.96971 0.75226 0.0
C1826 C 0.25679 0.96235 0.83616 0.0
C1827 C 0.27213 0.97114 0.84929 0.0
C1828 C 0.25675 0.96512 0.81585 0.0
C1829 C 0.27214 0.97664 0.8081 0.0
C1830 C 0.28775 0.98504 0.82116 0.0
C1831 C 0.28773 0.98236 0.84152 0.0
H1832 H 0.61404 0.73236 0.34765 0.0
H1833 H 0.65209 0.71306 0.39536 0.0
H1834 H 0.58539 0.72779 0.36762 0.0
H1835 H 0.62344 0.70826 0.41531 0.0
H1836 H 0.54316 0.73919 0.41592 0.0
H1837 H 0.57255 0.74311 0.39711 0.0
H1838 H 0.59245 0.68764 0.41711 0.0
H1839 H 0.56329 0.68409 0.43669 0.0
C1840 C 0.61624 0.72702 0.36237 0.0
C1841 C 0.63522 0.72261 0.36975 0.0
C1842 C 0.59987 0.72448 0.37385 0.0
C1843 C 0.60213 0.71764 0.39307 0.0
C1844 C 0.62114 0.7132 0.40044 0.0
C1845 C 0.63753 0.71577 0.38893 0.0
C1846 C 0.55396 0.72799 0.41664 0.0
C1847 C 0.55089 0.71136 0.42791 0.0
C1848 C 0.57068 0.7301 0.4056 0.0
C1849 C 0.58475 0.7156 0.40545 0.0
C1850 C 0.58193 0.69913 0.41699 0.0
C1851 C 0.56515 0.69701 0.42807 0.0
H1852 H 0.75448 0.27295 0.01917 0.0
H1853 H 0.74707 0.24271 0.96097 0.0
H1854 H 0.78991 0.27877 0.01508 0.0
H1855 H 0.78242 0.24881 0.95661 0.0
H1856 H 0.84851 0.24071 0.96564 0.0
H1857 H 0.81292 0.23729 0.9689 0.0
H1858 H 0.8148 0.29616 0.99782 0.0
H1859 H 0.85073 0.29911 0.99563 0.0
C1860 C 0.76034 0.26807 0.00527 0.0
C1861 C 0.748 0.25763 0.99027 0.0
C1862 C 0.78068 0.27132 0.00294 0.0
C1863 C 0.78909 0.26421 0.98553 0.0
C1864 C 0.77656 0.25418 0.97036 0.0
C1865 C 0.75628 0.25078 0.97278 0.0
C1866 C 0.84141 0.25285 0.97293 0.0
C1867 C 0.85256 0.27013 0.98049 0.0
C1868 C 0.8209 0.25101 0.97451 0.0
C1869 C 0.81091 0.26648 0.98354 0.0
C1870 C 0.82202 0.28387 0.99095 0.0
C1871 C 0.8426 0.28565 0.98947 0.0
H1872 H 0.22436 0.74808 0.66685 0.0
H1873 H 0.25347 0.76248 0.61392 0.0
H1874 H 0.19293 0.74152 0.64724 0.0
H1875 H 0.22225 0.75564 0.5942 0.0
H1876 H 0.15944 0.75573 0.56608 0.0
H1877 H 0.18948 0.76603 0.58677 0.0
H1878 H 0.17825 0.71688 0.62354 0.0
H1879 H 0.14777 0.70733 0.60365 0.0
C1880 C 0.22397 0.75001 0.65103 0.0
C1881 C 0.24125 0.75615 0.64196 0.0
C1882 C 0.20602 0.74613 0.63976 0.0
C1883 C 0.20504 0.74798 0.61909 0.0
C1884 C 0.22233 0.75443 0.61011 0.0
C1885 C 0.24024 0.75846 0.62143 0.0
C1886 C 0.16327 0.74728 0.57872 0.0
C1887 C 0.15121 0.73063 0.58311 0.0
C1888 C 0.18061 0.75306 0.59047 0.0
C1889 C 0.18631 0.74231 0.60685 0.0
C1890 C 0.1742 0.72571 0.61124 0.0
C1891 C 0.15686 0.72001 0.59959 0.0
H1892 H 0.33889 0.28629 0.06102 0.0
H1893 H 0.33754 0.23563 0.01891 0.0
H1894 H 0.37416 0.29253 0.05703 0.0
H1895 H 0.37313 0.2411 0.01578 0.0
H1896 H 0.42914 0.27502 0.99508 0.0
H1897 H 0.395 0.26427 0.00105 0.0
H1898 H 0.40639 0.28123 0.06353 0.0
H1899 H 0.44029 0.29247 0.05735 0.0
C1900 C 0.34624 0.27619 0.05126 0.0
C1901 C 0.33545 0.26022 0.04059 0.0
C1902 C 0.36653 0.27966 0.04908 0.0
C1903 C 0.37658 0.26725 0.03616 0.0
C1904 C 0.36586 0.25101 0.02579 0.0
C1905 C 0.34549 0.2476 0.02791 0.0
C1906 C 0.42436 0.27619 0.01011 0.0
C1907 C 0.43725 0.28477 0.02572 0.0
C1908 C 0.40483 0.26996 0.01357 0.0
C1909 C 0.39786 0.27202 0.03277 0.0
C1910 C 0.4111 0.27982 0.0485 0.0
C1911 C 0.43053 0.28622 0.04499 0.0
H1912 H 0.36111 0.63862 0.68506 0.0
H1913 H 0.37508 0.63329 0.74756 0.0
H1914 H 0.37811 0.60845 0.67733 0.0
H1915 H 0.39183 0.60293 0.73991 0.0
H1916 H 0.43552 0.55886 0.71788 0.0
H1917 H 0.42172 0.59126 0.72352 0.0
H1918 H 0.37187 0.57263 0.68243 0.0
H1919 H 0.38578 0.54045 0.67661 0.0
C1920 C 0.36814 0.6312 0.6971 0.0
C1921 C 0.3671 0.63845 0.71687 0.0
C1922 C 0.37767 0.61381 0.69271 0.0
C1923 C 0.38643 0.60342 0.70801 0.0
C1924 C 0.3855 0.61079 0.72779 0.0
C1925 C 0.37578 0.62805 0.73218 0.0
C1926 C 0.42177 0.56184 0.70986 0.0
C1927 C 0.41165 0.54713 0.6969 0.0
C1928 C 0.4138 0.58029 0.71321 0.0
C1929 C 0.39567 0.58443 0.70349 0.0
C1930 C 0.38592 0.56993 0.69003 0.0
C1931 C 0.39379 0.55146 0.68683 0.0
H1932 H 0.01244 0.75801 0.27458 0.0
H1933 H 0.95516 0.75135 0.24237 0.0
H1934 H 0.00826 0.79331 0.28102 0.0
H1935 H 0.95085 0.78668 0.24885 0.0
H1936 H 0.9622 0.85342 0.24246 0.0
H1937 H 0.96457 0.81767 0.23841 0.0
H1938 H 0.98955 0.81736 0.29871 0.0
H1939 H 0.98803 0.85334 0.30245 0.0
C1940 C 0.9987 0.76398 0.26938 0.0
C1941 C 0.98396 0.75187 0.25832 0.0
C1942 C 0.99634 0.78426 0.27297 0.0
C1943 C 0.9792 0.79285 0.26548 0.0
C1944 C 0.96435 0.78061 0.25461 0.0
C1945 C 0.96676 0.76037 0.25098 0.0
C1946 C 0.96832 0.84576 0.25482 0.0
C1947 C 0.97505 0.85628 0.27273 0.0
C1948 C 0.96944 0.8252 0.25259 0.0
C1949 C 0.97724 0.81462 0.26825 0.0
C1950 C 0.98366 0.82508 0.28629 0.0
C1951 C 0.98257 0.84568 0.28851 0.0
H1952 H 0.66795 0.24267 0.74621 0.0
H1953 H 0.61317 0.27145 0.75266 0.0
H1954 H 0.64946 0.21048 0.74171 0.0
H1955 H 0.5945 0.23947 0.74749 0.0
H1956 H 0.56675 0.17731 0.75145 0.0
H1957 H 0.58605 0.20848 0.76008 0.0
H1958 H 0.62862 0.19208 0.71764 0.0
H1959 H 0.61024 0.16045 0.71019 0.0
C1960 C 0.65193 0.24205 0.74676 0.0
C1961 C 0.64201 0.25947 0.75009 0.0
C1962 C 0.64129 0.22364 0.74402 0.0
C1963 C 0.62041 0.2223 0.7441 0.0
C1964 C 0.61055 0.23981 0.74771 0.0
C1965 C 0.62125 0.25817 0.75073 0.0
C1966 C 0.58038 0.18022 0.74418 0.0
C1967 C 0.58683 0.16632 0.73004 0.0
C1968 C 0.59135 0.19825 0.74895 0.0
C1969 C 0.60895 0.20289 0.73958 0.0
C1970 C 0.61535 0.18897 0.72544 0.0
C1971 C 0.60454 0.1709 0.72085 0.0
H1972 H 0.05564 0.32921 0.2875 0.0
H1973 H 0.00346 0.33001 0.24762 0.0
H1974 H 0.05638 0.36521 0.29261 0.0
H1975 H 0.00411 0.36611 0.25275 0.0
H1976 H 0.02202 0.43315 0.25494 0.0
H1977 H 0.02272 0.39741 0.24725 0.0
H1978 H 0.03671 0.38891 0.30924 0.0
H1979 H 0.03681 0.4245 0.31676 0.0
C1980 C 0.04441 0.33712 0.2797 0.0
C1981 C 0.02965 0.32681 0.26694 0.0
C1982 C 0.04476 0.35774 0.28269 0.0
C1983 C 0.03023 0.36854 0.27317 0.0
C1984 C 0.01569 0.35826 0.26008 0.0
C1985 C 0.01538 0.33758 0.25703 0.0
C1986 C 0.02541 0.42364 0.26687 0.0
C1987 C 0.02934 0.43169 0.28647 0.0
C1988 C 0.02562 0.40316 0.2625 0.0
C1989 C 0.02985 0.39031 0.27761 0.0
C1990 C 0.03369 0.39839 0.29719 0.0
C1991 C 0.03347 0.4188 0.30155 0.0
H1992 H 0.37848 0.61553 0.28157 0.0
H1993 H 0.35544 0.55553 0.28834 0.0
H1994 H 0.41233 0.60472 0.28482 0.0
H1995 H 0.38922 0.54478 0.29155 0.0
H1996 H 0.45361 0.5298 0.28848 0.0
H1997 H 0.42185 0.541 0.27577 0.0
H1998 H 0.43037 0.59363 0.31539 0.0
H1999 H 0.46158 0.58226 0.32862 0.0
C2000 C 0.38062 0.59999 0.28333 0.0
C2001 C 0.36429 0.58648 0.28508 0.0
C2002 C 0.39999 0.59383 0.28527 0.0
C2003 C 0.4034 0.574 0.28874 0.0
C2004 C 0.38706 0.56016 0.28883 0.0
C2005 C 0.36769 0.56635 0.28707 0.0
C2006 C 0.44873 0.54376 0.29451 0.0
C2007 C 0.46019 0.55502 0.30972 0.0
C2008 C 0.43059 0.55021 0.28711 0.0
C2009 C 0.42365 0.56818 0.29457 0.0
C2010 C 0.43547 0.57985 0.30912 0.0
C2011 C 0.45344 0.57331 0.31668 0.0
H2012 H 0.12607 0.34584 0.70952 0.0
H2013 H 0.11638 0.38637 0.66325 0.0
H2014 H 0.0937 0.35224 0.72167 0.0
H2015 H 0.08388 0.39278 0.67555 0.0
H2016 H 0.02021 0.38909 0.69796 0.0
H2017 H 0.04941 0.37751 0.68209 0.0
H2018 H 0.08284 0.38353 0.73872 0.0
H2019 H 0.05418 0.3957 0.75445 0.0
C2020 C 0.11692 0.35587 0.70171 0.0
C2021 C 0.12395 0.36581 0.68557 0.0
C2022 C 0.0984 0.35958 0.70875 0.0
C2023 C 0.08642 0.37323 0.69974 0.0
C2024 C 0.0928 0.38215 0.68276 0.0
C2025 C 0.11143 0.37852 0.67576 0.0
C2026 C 0.03383 0.38809 0.70701 0.0
C2027 C 0.03475 0.39335 0.72754 0.0
C2028 C 0.05049 0.38135 0.69791 0.0
C2029 C 0.06833 0.37948 0.70919 0.0
C2030 C 0.06918 0.38445 0.7297 0.0
C2031 C 0.05267 0.3914 0.73873 0.0
H2032 H 0.83732 0.029 0.70961 0.0
H2033 H 0.86586 0.97411 0.71705 0.0
H2034 H 0.86971 0.04677 0.70954 0.0
H2035 H 0.8983 0.992 0.71721 0.0
H2036 H 0.94516 0.02531 0.68091 0.0
H2037 H 0.91528 0.00725 0.69005 0.0
H2038 H 0.90155 0.05762 0.72796 0.0
H2039 H 0.93178 0.07572 0.71904 0.0
C2040 C 0.8505 0.02078 0.71167 0.0
C2041 C 0.84899 9e-05 0.71304 0.0
C2042 C 0.86909 0.03101 0.71173 0.0
C2043 C 0.88657 0.02074 0.71312 0.0
C2044 C 0.88508 0.00025 0.71579 0.0
C2045 C 0.86649 0.99003 0.71582 0.0
C2046 C 0.93611 0.03241 0.6916 0.0
C2047 C 0.94089 0.05204 0.69917 0.0
C2048 C 0.91892 0.02202 0.69685 0.0
C2049 C 0.90601 0.03101 0.70971 0.0
C2050 C 0.91109 0.05038 0.71784 0.0
C2051 C 0.92838 0.06076 0.71267 0.0
H2052 H 0.65746 0.97163 0.25496 0.0
H2053 H 0.62668 0.98757 0.3073 0.0
H2054 H 0.62621 0.95817 0.23829 0.0
H2055 H 0.59536 0.97446 0.29046 0.0
H2056 H 0.54612 0.93133 0.26083 0.0
H2057 H 0.57774 0.94337 0.27789 0.0
H2058 H 0.59538 0.97004 0.22458 0.0
H2059 H 0.56384 0.95802 0.20755 0.0
C2060 C 0.64403 0.97227 0.26292 0.0
C2061 C 0.64457 0.98069 0.28247 0.0
C2062 C 0.62609 0.96466 0.25331 0.0
C2063 C 0.60827 0.96528 0.26302 0.0
C2064 C 0.60885 0.97353 0.28264 0.0
C2065 C 0.62679 0.98116 0.29225 0.0
C2066 C 0.55671 0.93986 0.25279 0.0
C2067 C 0.55247 0.94369 0.23282 0.0
C2068 C 0.57483 0.94676 0.26257 0.0
C2069 C 0.58911 0.95765 0.2526 0.0
C2070 C 0.58487 0.96141 0.2326 0.0
C2071 C 0.56678 0.95452 0.22284 0.0
H2072 H 0.2886 0.38906 0.58528 0.0
H2073 H 0.34953 0.37281 0.59077 0.0
H2074 H 0.29988 0.42192 0.57574 0.0
H2075 H 0.36071 0.4056 0.58125 0.0
H2076 H 0.37413 0.4729 0.58648 0.0
H2077 H 0.36231 0.43999 0.59538 0.0
H2078 H 0.31582 0.43828 0.54855 0.0
H2079 H 0.3275 0.47134 0.53981 0.0
C2080 C 0.30437 0.39242 0.58429 0.0
C2081 C 0.31816 0.37833 0.58885 0.0
C2082 C 0.31082 0.41123 0.57877 0.0
C2083 C 0.33119 0.41638 0.57787 0.0
C2084 C 0.34494 0.40218 0.58209 0.0
C2085 C 0.3385 0.38333 0.58741 0.0
C2086 C 0.36129 0.46556 0.5782 0.0
C2087 C 0.35175 0.47469 0.56243 0.0
C2088 C 0.35461 0.44666 0.5832 0.0
C2089 C 0.33813 0.43655 0.57267 0.0
C2090 C 0.32845 0.44577 0.55704 0.0
C2091 C 0.33525 0.4646 0.55192 0.0
H2092 H 0.26184 0.64034 0.00547 0.0
H2093 H 0.31265 0.63166 0.97068 0.0
H2094 H 0.24548 0.60974 0.98994 0.0
H2095 H 0.29621 0.60099 0.95516 0.0
H2096 H 0.26815 0.53614 0.9507 0.0
H2097 H 0.28508 0.56686 0.96535 0.0
H2098 H 0.23132 0.59741 0.95589 0.0
H2099 H 0.21447 0.56692 0.94076 0.0
C2100 C 0.26953 0.6319 0.99453 0.0
C2101 C 0.28854 0.63843 0.9893 0.0
C2102 C 0.2601 0.61444 0.98556 0.0
C2103 C 0.26956 0.60301 0.97132 0.0
C2104 C 0.28864 0.60943 0.9662 0.0
C2105 C 0.298 0.62703 0.97502 0.0
C2106 C 0.25999 0.54945 0.95145 0.0
C2107 C 0.23989 0.54899 0.94459 0.0
C2108 C 0.2697 0.56703 0.95991 0.0
C2109 C 0.25948 0.58449 0.96184 0.0
C2110 C 0.23947 0.5841 0.95486 0.0
C2111 C 0.22982 0.56659 0.94625 0.0
H2112 H 0.73992 0.12608 0.36115 0.0
H2113 H 0.68777 0.10409 0.3891 0.0
H2114 H 0.75682 0.09654 0.36991 0.0
H2115 H 0.70476 0.07481 0.39807 0.0
H2116 H 0.73466 0.01607 0.39439 0.0
H2117 H 0.71778 0.04463 0.38311 0.0
H2118 H 0.77028 0.08261 0.40045 0.0
H2119 H 0.7871 0.05414 0.41202 0.0
C2120 C 0.73204 0.11493 0.36909 0.0
C2121 C 0.71252 0.11746 0.37448 0.0
C2122 C 0.74176 0.09808 0.37421 0.0
C2123 C 0.73214 0.08339 0.38474 0.0
C2124 C 0.7125 0.08576 0.38977 0.0
C2125 C 0.70281 0.10261 0.38472 0.0
C2126 C 0.74257 0.03053 0.39597 0.0
C2127 C 0.76221 0.0328 0.40426 0.0
C2128 C 0.73288 0.04689 0.38948 0.0
C2129 C 0.74266 0.06589 0.39097 0.0
C2130 C 0.76242 0.06812 0.39888 0.0
C2131 C 0.77208 0.05178 0.40548 0.0
H2132 H 0.71343 0.86213 0.98644 0.0
H2133 H 0.71814 0.82964 0.03954 0.0
H2134 H 0.7117 0.89287 0.0067 0.0
H2135 H 0.71693 0.86049 0.05982 0.0
H2136 H 0.68085 0.91143 0.08435 0.0
H2137 H 0.69034 0.88172 0.06629 0.0
H2138 H 0.72749 0.91773 0.03073 0.0
H2139 H 0.71786 0.94764 0.04889 0.0
C2140 C 0.71458 0.8616 0.00245 0.0
C2141 C 0.71561 0.84338 0.01137 0.0
C2142 C 0.71367 0.87927 0.01409 0.0
C2143 C 0.71387 0.87912 0.0349 0.0
C2144 C 0.71629 0.86107 0.04382 0.0
C2145 C 0.71711 0.84339 0.03219 0.0
C2146 C 0.69137 0.91304 0.07297 0.0
C2147 C 0.69858 0.93193 0.06806 0.0
C2148 C 0.69686 0.89596 0.06261 0.0
C2149 C 0.70972 0.8973 0.04706 0.0
C2150 C 0.71736 0.91618 0.04246 0.0
C2151 C 0.71184 0.93331 0.05285 0.0
H2152 H 0.57695 0.2979 0.39678 0.0
H2153 H 0.5895 0.35923 0.38449 0.0
H2154 H 0.56384 0.3085 0.42825 0.0
H2155 H 0.57682 0.36981 0.41611 0.0
H2156 H 0.53263 0.38214 0.46313 0.0
H2157 H 0.54591 0.3712 0.43185 0.0
H2158 H 0.57363 0.32361 0.46074 0.0
H2159 H 0.56009 0.33444 0.49196 0.0
C2160 C 0.57698 0.31364 0.40082 0.0
C2161 C 0.58413 0.32772 0.38806 0.0
C2162 C 0.56959 0.31972 0.41894 0.0
C2163 C 0.56917 0.34002 0.4247 0.0
C2164 C 0.57654 0.35407 0.41199 0.0
C2165 C 0.58396 0.34799 0.3939 0.0
C2166 C 0.54164 0.3694 0.4628 0.0
C2167 C 0.5453 0.35915 0.48001 0.0
C2168 C 0.5493 0.36315 0.44489 0.0
C2169 C 0.56091 0.34655 0.44377 0.0
C2170 C 0.56451 0.33627 0.46099 0.0
C2171 C 0.55676 0.34247 0.47889 0.0
H2172 H 0.95427 0.24504 0.64845 0.0
H2173 H 0.96839 0.29871 0.61904 0.0
H2174 H 0.93821 0.22991 0.61755 0.0
H2175 H 0.9521 0.28363 0.58821 0.0
H2176 H 0.9424 0.24087 0.5323 0.0
H2177 H 0.95748 0.25693 0.56319 0.0
H2178 H 0.90878 0.233 0.59493 0.0
H2179 H 0.89356 0.21706 0.56398 0.0
C2180 C 0.95388 0.25365 0.63543 0.0
C2181 C 0.96264 0.27308 0.63622 0.0
C2182 C 0.94456 0.24501 0.61774 0.0
C2183 C 0.94387 0.25557 0.60042 0.0
C2184 C 0.95257 0.27502 0.60124 0.0
C2185 C 0.96182 0.2837 0.61894 0.0
C2186 C 0.93474 0.23926 0.5458 0.0
C2187 C 0.91675 0.22766 0.54563 0.0
C2188 C 0.94341 0.24845 0.56352 0.0
C2189 C 0.93435 0.24621 0.58152 0.0
C2190 C 0.91628 0.23476 0.58135 0.0
C2191 C 0.90757 0.22562 0.56362 0.0
H2192 H 0.34405 0.70982 0.12025 0.0
H2193 H 0.38546 0.66356 0.12303 0.0
H2194 H 0.35581 0.71853 0.08852 0.0
H2195 H 0.39688 0.67189 0.09074 0.0
H2196 H 0.43194 0.71492 0.05199 0.0
H2197 H 0.41686 0.69883 0.07928 0.0
H2198 H 0.35858 0.71028 0.05432 0.0
H2199 H 0.37387 0.72683 0.02732 0.0
C2200 C 0.35536 0.70118 0.11387 0.0
C2201 C 0.36401 0.68617 0.12433 0.0
C2202 C 0.36205 0.7061 0.09553 0.0
C2203 C 0.37748 0.69606 0.08711 0.0
C2204 C 0.38525 0.68019 0.09699 0.0
C2205 C 0.37859 0.6753 0.11541 0.0
C2206 C 0.4159 0.71367 0.05219 0.0
C2207 C 0.40404 0.72232 0.03773 0.0
C2208 C 0.40721 0.70437 0.06778 0.0
C2209 C 0.38647 0.70338 0.06911 0.0
C2210 C 0.3746 0.71113 0.05398 0.0
C2211 C 0.38331 0.72057 0.03852 0.0
H2212 H 0.04447 0.70873 0.83462 0.0
H2213 H 0.99113 0.70335 0.86672 0.0
H2214 H 0.06458 0.70934 0.8658 0.0
H2215 H 0.01123 0.70346 0.89779 0.0
H2216 H 0.05264 0.71268 0.95287 0.0
H2217 H 0.03461 0.7209 0.92232 0.0
H2218 H 0.07169 0.68374 0.88812 0.0
H2219 H 0.08961 0.6756 0.91844 0.0
C2220 C 0.03702 0.70794 0.84834 0.0
C2221 C 0.0162 0.7057 0.84815 0.0
C2222 C 0.04855 0.70818 0.86621 0.0
C2223 C 0.03954 0.70611 0.88427 0.0
C2224 C 0.01869 0.70519 0.88419 0.0
C2225 C 0.00714 0.70503 0.86632 0.0
C2226 C 0.05698 0.70637 0.93879 0.0
C2227 C 0.07255 0.69346 0.93811 0.0
C2228 C 0.04667 0.71109 0.92131 0.0
C2229 C 0.0517 0.70299 0.90276 0.0
C2230 C 0.06765 0.69056 0.90208 0.0
C2231 C 0.07794 0.68586 0.91952 0.0
H2232 H 0.62411 0.42883 0.6934 0.0
H2233 H 0.61986 0.42446 0.62922 0.0
H2234 H 0.59158 0.44243 0.69346 0.0
H2235 H 0.58732 0.43855 0.62938 0.0
H2236 H 0.51935 0.43302 0.64395 0.0
H2237 H 0.55373 0.42541 0.63982 0.0
H2238 H 0.57355 0.47215 0.68398 0.0
H2239 H 0.5392 0.48014 0.68784 0.0
C2240 C 0.61639 0.43105 0.67929 0.0
C2241 C 0.62455 0.42544 0.66131 0.0
C2242 C 0.59776 0.43895 0.67933 0.0
C2243 C 0.58686 0.44145 0.66141 0.0
C2244 C 0.59529 0.43651 0.6434 0.0
C2245 C 0.61397 0.42858 0.64334 0.0
C2246 C 0.53104 0.44204 0.65241 0.0
C2247 C 0.52646 0.45702 0.66643 0.0
C2248 C 0.55076 0.43763 0.65005 0.0
C2249 C 0.56631 0.44802 0.66175 0.0
C2250 C 0.56183 0.46367 0.67501 0.0
C2251 C 0.54215 0.46818 0.67726 0.0
H2252 H 0.89238 0.64186 0.27462 0.0
H2253 H 0.86212 0.58358 0.2665 0.0
H2254 H 0.92431 0.62682 0.27415 0.0
H2255 H 0.89401 0.56858 0.26634 0.0
H2256 H 0.95465 0.54764 0.2537 0.0
H2257 H 0.92414 0.56477 0.24822 0.0
H2258 H 0.94287 0.60697 0.29711 0.0
H2259 H 0.97315 0.58986 0.30269 0.0
C2260 C 0.89252 0.62586 0.27258 0.0
C2261 C 0.87469 0.61391 0.27077 0.0
C2262 C 0.91083 0.61724 0.2724 0.0
C2263 C 0.91171 0.5965 0.27034 0.0
C2264 C 0.89386 0.58461 0.26776 0.0
C2265 C 0.87557 0.59322 0.26798 0.0
C2266 C 0.95228 0.56063 0.26322 0.0
C2267 C 0.96634 0.56732 0.27868 0.0
C2268 C 0.93481 0.57044 0.26007 0.0
C2269 C 0.93105 0.58719 0.27226 0.0
C2270 C 0.94543 0.59429 0.28725 0.0
C2271 C 0.96284 0.58447 0.29044 0.0
H2272 H 0.16365 0.99202 0.31492 0.0
H2273 H 0.14465 0.05174 0.32315 0.0
H2274 H 0.12917 0.97904 0.31374 0.0
H2275 H 0.11018 0.03869 0.32229 0.0
H2276 H 0.05214 0.009 0.29117 0.0
H2277 H 0.08611 0.02303 0.29695 0.0
H2278 H 0.10012 0.97478 0.33348 0.0
H2279 H 0.066 0.96073 0.32777 0.0
C2280 C 0.15214 0.00237 0.31671 0.0
C2281 C 0.15691 0.02293 0.31898 0.0
C2282 C 0.13237 0.99491 0.31616 0.0
C2283 C 0.11691 0.00784 0.31784 0.0
C2284 C 0.12173 0.02836 0.32068 0.0
C2285 C 0.1415 0.03583 0.32127 0.0
C2286 C 0.06233 0.00157 0.30076 0.0
C2287 C 0.05634 0.98371 0.30897 0.0
C2288 C 0.08183 0.00962 0.30406 0.0
C2289 C 0.09584 -1e-05 0.31563 0.0
C2290 C 0.08975 0.98239 0.32425 0.0
C2291 C 0.07021 0.97435 0.32098 0.0
H2292 H 0.36221 0.05641 0.73792 0.0
H2293 H 0.37742 0.99879 0.75645 0.0
H2294 H 0.39733 0.06717 0.73926 0.0
H2295 H 0.41256 0.0097 0.75807 0.0
H2296 H 0.4709 0.02803 0.72873 0.0
H2297 H 0.43661 0.01732 0.73347 0.0
H2298 H 0.42728 0.07488 0.76132 0.0
H2299 H 0.46176 0.08562 0.75671 0.0
C2300 C 0.37302 0.04611 0.74253 0.0
C2301 C 0.367 0.02667 0.74691 0.0
C2302 C 0.39317 0.05233 0.74342 0.0
C2303 C 0.40775 0.03926 0.74869 0.0
C2304 C 0.40169 0.02004 0.7537 0.0
C2305 C 0.38154 0.01382 0.75286 0.0
C2306 C 0.46172 0.03828 0.7363 0.0
C2307 C 0.4691 0.05772 0.74228 0.0
C2308 C 0.44201 0.03213 0.73899 0.0
C2309 C 0.42917 0.04527 0.74769 0.0
C2310 C 0.43671 0.0645 0.75429 0.0
C2311 C 0.45646 0.07064 0.75165 0.0
H2312 H 0.68646 0.63819 0.41397 0.0
H2313 H 0.62301 0.62555 0.40496 0.0
H2314 H 0.6893 0.60785 0.43131 0.0
H2315 H 0.62595 0.59507 0.42248 0.0
H2316 H 0.64924 0.53074 0.42937 0.0
H2317 H 0.64189 0.56228 0.41575 0.0
H2318 H 0.67885 0.59359 0.46309 0.0
H2319 H 0.68584 0.56212 0.47711 0.0
C2320 C 0.67308 0.62904 0.41585 0.0
C2321 C 0.65449 0.63435 0.40817 0.0
C2322 C 0.67471 0.61171 0.42589 0.0
C2323 C 0.65782 0.59921 0.4284 0.0
C2324 C 0.6392 0.60448 0.42079 0.0
C2325 C 0.63753 0.62194 0.41082 0.0
C2326 C 0.65538 0.54435 0.43721 0.0
C2327 C 0.66833 0.54385 0.45424 0.0
C2328 C 0.65121 0.56242 0.42934 0.0
C2329 C 0.66001 0.58034 0.43821 0.0
C2330 C 0.67214 0.57995 0.45575 0.0
C2331 C 0.67618 0.56192 0.46374 0.0
H2332 H 0.75855 0.36982 0.99961 0.0
H2333 H 0.72767 0.35424 0.05127 0.0
H2334 H 0.75982 0.40477 0.01122 0.0
H2335 H 0.72861 0.38911 0.06263 0.0
H2336 H 0.74695 0.45149 0.08657 0.0
H2337 H 0.75072 0.417 0.07553 0.0
H2338 H 0.73668 0.43086 0.01491 0.0
H2339 H 0.733 0.46535 0.02596 0.0
C2340 C 0.75209 0.37383 0.01346 0.0
C2341 C 0.74294 0.35923 0.02447 0.0
C2342 C 0.75274 0.39387 0.02006 0.0
C2343 C 0.74429 0.39976 0.03783 0.0
C2344 C 0.73551 0.38509 0.04902 0.0
C2345 C 0.73485 0.36508 0.04243 0.0
C2346 C 0.74474 0.44718 0.07088 0.0
C2347 C 0.73955 0.46113 0.05716 0.0
C2348 C 0.74687 0.42741 0.06455 0.0
C2349 C 0.74384 0.42112 0.04435 0.0
C2350 C 0.73935 0.43524 0.03055 0.0
C2351 C 0.73724 0.45502 0.03688 0.0
H2352 H 0.27243 0.84016 0.57931 0.0
H2353 H 0.26705 0.87447 0.63452 0.0
H2354 H 0.2778 0.8708 0.56244 0.0
H2355 H 0.27222 0.90504 0.61759 0.0
H2356 H 0.31049 0.9512 0.58617 0.0
H2357 H 0.30095 0.9214 0.60283 0.0
H2358 H 0.26147 0.90105 0.55225 0.0
H2359 H 0.27136 0.93081 0.53537 0.0
C2360 C 0.27219 0.85422 0.58781 0.0
C2361 C 0.26948 0.85486 0.6083 0.0
C2362 C 0.27514 0.87178 0.57811 0.0
C2363 C 0.27554 0.89032 0.58872 0.0
C2364 C 0.27225 0.89096 0.60908 0.0
C2365 C 0.26921 0.87343 0.61875 0.0
C2366 C 0.29977 0.94036 0.57861 0.0
C2367 C 0.29176 0.94326 0.55942 0.0
C2368 C 0.29415 0.92339 0.58823 0.0
C2369 C 0.28046 0.90887 0.57884 0.0
C2370 C 0.27217 0.91192 0.55978 0.0
C2371 C 0.27769 0.92901 0.5502 0.0
H2372 H 0.33045 0.14866 0.00788 0.0
H2373 H 0.27365 0.14109 0.03367 0.0
H2374 H 0.32706 0.11408 0.99468 0.0
H2375 H 0.27037 0.10666 0.02053 0.0
H2376 H 0.26009 0.05763 0.97002 0.0
H2377 H 0.2652 0.09098 0.98596 0.0
H2378 H 0.32492 0.07857 0.0056 0.0
H2379 H 0.3198 0.04504 0.98946 0.0
C2380 C 0.31735 0.13959 0.01089 0.0
C2381 C 0.30224 0.14768 0.02168 0.0
C2382 C 0.31547 0.11978 0.00341 0.0
C2383 C 0.29838 0.10775 0.00646 0.0
C2384 C 0.28358 0.11568 0.01774 0.0
C2385 C 0.28551 0.13539 0.02532 0.0
C2386 C 0.27433 0.06205 0.97769 0.0
C2387 C 0.28959 0.04881 0.97844 0.0
C2388 C 0.27719 0.08106 0.98696 0.0
C2389 C 0.29544 0.08733 0.99707 0.0
C2390 C 0.31074 0.07412 0.99782 0.0
C2391 C 0.30778 0.05495 0.98872 0.0
H2392 H 0.41479 0.62946 0.62815 0.0
H2393 H 0.40761 0.69268 0.63106 0.0
H2394 H 0.43103 0.63221 0.59693 0.0
H2395 H 0.42324 0.6952 0.59968 0.0
H2396 H 0.4677 0.69615 0.55234 0.0
H2397 H 0.45637 0.69123 0.58539 0.0
H2398 H 0.41898 0.64027 0.56194 0.0
H2399 H 0.4306 0.64497 0.52882 0.0
C2400 C 0.41673 0.64393 0.6222 0.0
C2401 C 0.40989 0.66085 0.63209 0.0
C2402 C 0.42588 0.64545 0.60427 0.0
C2403 C 0.42824 0.66387 0.59583 0.0
C2404 C 0.42178 0.68083 0.60592 0.0
C2405 C 0.41275 0.67935 0.62387 0.0
C2406 C 0.4574 0.68362 0.55429 0.0
C2407 C 0.45004 0.67094 0.53796 0.0
C2408 C 0.45077 0.68094 0.57318 0.0
C2409 C 0.43672 0.66545 0.5762 0.0
C2410 C 0.42993 0.65226 0.56006 0.0
C2411 C 0.43645 0.65504 0.5411 0.0
H2412 H 0.04367 0.73939 0.35624 0.0
H2413 H 0.98324 0.74803 0.37092 0.0
H2414 H 0.05385 0.73993 0.39147 0.0
H2415 H 0.99351 0.74881 0.40617 0.0
H2416 H 0.01551 0.71853 0.46275 0.0
H2417 H 0.00462 0.72379 0.42867 0.0
H2418 H 0.05779 0.76106 0.42271 0.0
H2419 H 0.06866 0.75603 0.45706 0.0
C2420 C 0.0326 0.74164 0.36698 0.0
C2421 C 0.01261 0.74349 0.36075 0.0
C2422 C 0.03846 0.74209 0.38718 0.0
C2423 C 0.02447 0.74433 0.40161 0.0
C2424 C 0.0046 0.74681 0.3954 0.0
C2425 C 0.99874 0.74644 0.37519 0.0
C2426 C 0.02469 0.72826 0.45439 0.0
C2427 C 0.043 0.73684 0.46269 0.0
C2428 C 0.01844 0.73123 0.43479 0.0
C2429 C 0.03037 0.74279 0.42296 0.0
C2430 C 0.0484 0.75185 0.43138 0.0
C2431 C 0.05462 0.74895 0.45105 0.0
H2432 H 0.57759 0.28892 0.83173 0.0
H2433 H 0.63267 0.27752 0.86362 0.0
H2434 H 0.56123 0.2909 0.86299 0.0
H2435 H 0.61624 0.27932 0.89477 0.0
H2436 H 0.58657 0.3117 0.94616 0.0
H2437 H 0.60253 0.30615 0.91518 0.0
H2438 H 0.55076 0.27058 0.89065 0.0
H2439 H 0.5348 0.27583 0.92189 0.0
C2440 C 0.58617 0.28667 0.84537 0.0
C2441 C 0.60648 0.28321 0.84519 0.0
C2442 C 0.57675 0.28769 0.86326 0.0
C2443 C 0.58748 0.28537 0.88134 0.0
C2444 C 0.60766 0.28144 0.8811 0.0
C2445 C 0.61704 0.28032 0.86323 0.0
C2446 C 0.57869 0.30237 0.93435 0.0
C2447 C 0.5594 0.29416 0.93659 0.0
C2448 C 0.58784 0.29923 0.91654 0.0
C2449 C 0.57791 0.28791 0.90048 0.0
C2450 C 0.55869 0.27956 0.90271 0.0
C2451 C 0.54956 0.28259 0.92059 0.0
H2452 H 0.97697 0.30921 0.16073 0.0
H2453 H 0.03751 0.32444 0.14723 0.0
H2454 H 0.96691 0.30728 0.12546 0.0
H2455 H 0.02733 0.32287 0.11193 0.0
H2456 H 0.00586 0.28985 0.05183 0.0
H2457 H 0.01657 0.29675 0.08671 0.0
H2458 H 0.96264 0.32635 0.09619 0.0
H2459 H 0.9516 0.31881 0.0614 0.0
C2460 C 0.98809 0.3124 0.15026 0.0
C2461 C 0.00808 0.31682 0.15681 0.0
C2462 C 0.98229 0.31142 0.13002 0.0
C2463 C 0.99633 0.31484 0.11585 0.0
C2464 C 0.0162 0.31987 0.12244 0.0
C2465 C 0.02201 0.32087 0.14269 0.0
C2466 C 0.9963 0.29787 0.06135 0.0
C2467 C 0.97781 0.30364 0.05387 0.0
C2468 C 0.00254 0.30202 0.0813 0.0
C2469 C 0.99042 0.31205 0.09427 0.0
C2470 C 0.97221 0.3184 0.08665 0.0
C2471 C 0.96599 0.31427 0.06666 0.0
loop_
_geom_bond_atom_site_label_1
_geom_bond_atom_site_label_2
_geom_bond_distance
_geom_bond_site_symmetry_2
_ccdc_geom_bond_type
O0 Cd1 2.300 . S
O0 C7 1.275 . S
Cd1 O0 2.300 . S
Cd1 O9 2.381 . S
Cd1 O10 2.378 . S
O2 Cd3 2.385 . S
O2 C7 1.255 . S
Cd3 O2 2.385 . S
Cd3 O4 2.317 . S
O4 Cd3 2.317 . S
O4 C5 1.232 . S
C5 O4 1.232 . S
C5 O6 1.218 . S
O6 C5 1.218 . S
C7 O0 1.275 . S
C7 O2 1.255 . S
C8 O9 1.258 . S
C8 O10 1.256 . S
O9 Cd1 2.381 . S
O9 C8 1.258 . S
O10 Cd1 2.378 . S
O10 C8 1.256 . S
O11 Cd12 2.300 . S
O11 C18 1.275 . S
Cd12 O11 2.300 . S
Cd12 O20 2.381 . S
Cd12 O21 2.378 . S
O13 Cd14 2.385 . S
O13 C18 1.255 . S
Cd14 O13 2.385 . S
Cd14 O15 2.317 . S
O15 Cd14 2.317 . S
O15 C16 1.232 . S
C16 O15 1.232 . S
C16 O17 1.218 . S
O17 C16 1.218 . S
C18 O11 1.275 . S
C18 O13 1.255 . S
C19 O20 1.258 . S
C19 O21 1.256 . S
O20 Cd12 2.381 . S
O20 C19 1.258 . S
O21 Cd12 2.378 . S
O21 C19 1.256 . S
O22 Cd23 2.300 . S
O22 C29 1.275 . S
Cd23 O22 2.300 . S
Cd23 O31 2.381 1_565 S
Cd23 O32 2.378 . S
O24 Cd25 2.385 . S
O24 C29 1.255 . S
Cd25 O24 2.385 . S
Cd25 O26 2.317 . S
O26 Cd25 2.317 . S
O26 C27 1.232 . S
C27 O26 1.232 . S
C27 O28 1.218 . S
O28 C27 1.218 . S
C29 O22 1.275 . S
C29 O24 1.255 . S
C30 O31 1.258 . S
C30 O32 1.256 1_545 S
O31 Cd23 2.381 1_545 S
O31 C30 1.258 . S
O32 Cd23 2.378 . S
O32 C30 1.256 1_565 S
O33 Cd34 2.300 . S
O33 C40 1.275 . S
Cd34 O33 2.300 . S
Cd34 O42 2.381 1_545 S
Cd34 O43 2.378 . S
O35 Cd36 2.385 . S
O35 C40 1.255 . S
Cd36 O35 2.385 . S
Cd36 O37 2.317 . S
O37 Cd36 2.317 . S
O37 C38 1.232 . S
C38 O37 1.232 . S
C38 O39 1.218 . S
O39 C38 1.218 . S
C40 O33 1.275 . S
C40 O35 1.255 . S
C41 O42 1.258 . S
C41 O43 1.256 1_565 S
O42 Cd34 2.381 1_565 S
O42 C41 1.258 . S
O43 Cd34 2.378 . S
O43 C41 1.256 1_545 S
O44 Cd45 2.300 . S
O44 C51 1.275 . S
Cd45 O44 2.300 . S
Cd45 O53 2.381 . S
Cd45 O54 2.378 . S
O46 Cd47 2.385 . S
O46 C51 1.255 . S
Cd47 O46 2.385 . S
Cd47 O48 2.317 . S
O48 Cd47 2.317 . S
O48 C49 1.232 . S
C49 O48 1.232 . S
C49 O50 1.218 . S
O50 C49 1.218 . S
C51 O44 1.275 . S
C51 O46 1.255 . S
C52 O53 1.258 . S
C52 O54 1.256 . S
O53 Cd45 2.381 . S
O53 C52 1.258 . S
O54 Cd45 2.378 . S
O54 C52 1.256 . S
O55 Cd56 2.300 . S
O55 C62 1.275 . S
Cd56 O55 2.300 . S
Cd56 O64 2.381 1_554 S
Cd56 O65 2.378 . S
O57 Cd58 2.385 . S
O57 C62 1.255 . S
Cd58 O57 2.385 . S
Cd58 O59 2.317 . S
O59 Cd58 2.317 . S
O59 C60 1.232 . S
C60 O59 1.232 . S
C60 O61 1.218 . S
O61 C60 1.218 . S
C62 O55 1.275 . S
C62 O57 1.255 . S
C63 O64 1.258 . S
C63 O65 1.256 1_556 S
O64 Cd56 2.381 1_556 S
O64 C63 1.258 . S
O65 Cd56 2.378 . S
O65 C63 1.256 1_554 S
O66 Cd67 2.300 . S
O66 C73 1.275 . S
Cd67 O66 2.300 . S
Cd67 O75 2.381 . S
Cd67 O76 2.378 . S
O68 Cd69 2.385 . S
O68 C73 1.255 . S
Cd69 O68 2.385 . S
Cd69 O70 2.317 . S
O70 Cd69 2.317 . S
O70 C71 1.232 . S
C71 O70 1.232 . S
C71 O72 1.218 . S
O72 C71 1.218 . S
C73 O66 1.275 . S
C73 O68 1.255 . S
C74 O75 1.258 . S
C74 O76 1.256 . S
O75 Cd67 2.381 . S
O75 C74 1.258 . S
O76 Cd67 2.378 . S
O76 C74 1.256 . S
O77 Cd78 2.300 . S
O77 C84 1.275 . S
Cd78 O77 2.300 . S
Cd78 O86 2.381 1_556 S
Cd78 O87 2.378 . S
O79 Cd80 2.385 . S
O79 C84 1.255 . S
Cd80 O79 2.385 . S
Cd80 O81 2.317 . S
O81 Cd80 2.317 . S
O81 C82 1.232 . S
C82 O81 1.232 . S
C82 O83 1.218 . S
O83 C82 1.218 . S
C84 O77 1.275 . S
C84 O79 1.255 . S
C85 O86 1.258 . S
C85 O87 1.256 1_554 S
O86 Cd78 2.381 1_554 S
O86 C85 1.258 . S
O87 Cd78 2.378 . S
O87 C85 1.256 1_556 S
O88 Cd89 2.300 . S
O88 C95 1.275 . S
Cd89 O88 2.300 . S
Cd89 O97 2.381 . S
Cd89 O98 2.378 . S
O90 Cd91 2.385 . S
O90 C95 1.255 . S
Cd91 O90 2.385 . S
Cd91 O92 2.317 . S
O92 Cd91 2.317 . S
O92 C93 1.232 . S
C93 O92 1.232 . S
C93 O94 1.218 . S
O94 C93 1.218 . S
C95 O88 1.275 . S
C95 O90 1.255 . S
C96 O97 1.258 . S
C96 O98 1.256 . S
O97 Cd89 2.381 . S
O97 C96 1.258 . S
O98 Cd89 2.378 . S
O98 C96 1.256 . S
O99 Cd100 2.300 . S
O99 C106 1.275 . S
Cd100 O99 2.300 . S
Cd100 O108 2.381 1_455 S
Cd100 O109 2.378 . S
O101 Cd102 2.385 . S
O101 C106 1.255 . S
Cd102 O101 2.385 . S
Cd102 O103 2.317 . S
O103 Cd102 2.317 . S
O103 C104 1.232 . S
C104 O103 1.232 . S
C104 O105 1.218 . S
O105 C104 1.218 . S
C106 O99 1.275 . S
C106 O101 1.255 . S
C107 O108 1.258 . S
C107 O109 1.256 1_655 S
O108 Cd100 2.381 1_655 S
O108 C107 1.258 . S
O109 Cd100 2.378 . S
O109 C107 1.256 1_455 S
O110 Cd111 2.300 . S
O110 C117 1.275 . S
Cd111 O110 2.300 . S
Cd111 O119 2.381 . S
Cd111 O120 2.378 . S
O112 Cd113 2.385 . S
O112 C117 1.255 . S
Cd113 O112 2.385 . S
Cd113 O114 2.317 . S
O114 Cd113 2.317 . S
O114 C115 1.232 . S
C115 O114 1.232 . S
C115 O116 1.218 . S
O116 C115 1.218 . S
C117 O110 1.275 . S
C117 O112 1.255 . S
C118 O119 1.258 . S
C118 O120 1.256 . S
O119 Cd111 2.381 . S
O119 C118 1.258 . S
O120 Cd111 2.378 . S
O120 C118 1.256 . S
O121 Cd122 2.300 . S
O121 C128 1.275 . S
Cd122 O121 2.300 . S
Cd122 O130 2.381 1_655 S
Cd122 O131 2.378 . S
O123 Cd124 2.385 . S
O123 C128 1.255 . S
Cd124 O123 2.385 . S
Cd124 O125 2.317 . S
O125 Cd124 2.317 . S
O125 C126 1.232 . S
C126 O125 1.232 . S
C126 O127 1.218 . S
O127 C126 1.218 . S
C128 O121 1.275 . S
C128 O123 1.255 . S
C129 O130 1.258 . S
C129 O131 1.256 1_455 S
O130 Cd122 2.381 1_455 S
O130 C129 1.258 . S
O131 Cd122 2.378 . S
O131 C129 1.256 1_655 S
O132 Cd133 2.300 . S
O132 C139 1.275 . S
Cd133 O132 2.300 . S
Cd133 O141 2.381 . S
Cd133 O142 2.378 . S
O134 Cd135 2.385 . S
O134 C139 1.255 . S
Cd135 O134 2.385 . S
Cd135 O136 2.317 . S
O136 Cd135 2.317 . S
O136 C137 1.232 . S
C137 O136 1.232 . S
C137 O138 1.218 . S
O138 C137 1.218 . S
C139 O132 1.275 . S
C139 O134 1.255 . S
C140 O141 1.258 . S
C140 O142 1.256 . S
O141 Cd133 2.381 . S
O141 C140 1.258 . S
O142 Cd133 2.378 . S
O142 C140 1.256 . S
O143 Cd144 2.300 . S
O143 C150 1.275 . S
Cd144 O143 2.300 . S
Cd144 O152 2.381 . S
Cd144 O153 2.378 . S
O145 Cd146 2.385 . S
O145 C150 1.255 . S
Cd146 O145 2.385 . S
Cd146 O147 2.317 . S
O147 Cd146 2.317 . S
O147 C148 1.232 . S
C148 O147 1.232 . S
C148 O149 1.218 . S
O149 C148 1.218 . S
C150 O143 1.275 . S
C150 O145 1.255 . S
C151 O152 1.258 . S
C151 O153 1.256 . S
O152 Cd144 2.381 . S
O152 C151 1.258 . S
O153 Cd144 2.378 . S
O153 C151 1.256 . S
O154 Cd155 2.300 1_545 S
O154 C161 1.275 . S
Cd155 O154 2.300 1_565 S
Cd155 O163 2.381 1_565 S
Cd155 O164 2.378 . S
O156 Cd157 2.385 . S
O156 C161 1.255 1_565 S
Cd157 O156 2.385 . S
Cd157 O158 2.317 . S
O158 Cd157 2.317 . S
O158 C159 1.232 . S
C159 O158 1.232 . S
C159 O160 1.218 . S
O160 C159 1.218 . S
C161 O154 1.275 . S
C161 O156 1.255 1_545 S
C162 O163 1.258 1_565 S
C162 O164 1.256 . S
O163 Cd155 2.381 1_545 S
O163 C162 1.258 1_545 S
O164 Cd155 2.378 . S
O164 C162 1.256 . S
O165 Cd166 2.300 1_565 S
O165 C172 1.275 . S
Cd166 O165 2.300 1_545 S
Cd166 O174 2.381 1_545 S
Cd166 O175 2.378 . S
O167 Cd168 2.385 . S
O167 C172 1.255 1_545 S
Cd168 O167 2.385 . S
Cd168 O169 2.317 . S
O169 Cd168 2.317 . S
O169 C170 1.232 . S
C170 O169 1.232 . S
C170 O171 1.218 . S
O171 C170 1.218 . S
C172 O165 1.275 . S
C172 O167 1.255 1_565 S
C173 O174 1.258 1_545 S
C173 O175 1.256 . S
O174 Cd166 2.381 1_565 S
O174 C173 1.258 1_565 S
O175 Cd166 2.378 . S
O175 C173 1.256 . S
O176 Cd177 2.300 . S
O176 C183 1.275 . S
Cd177 O176 2.300 . S
Cd177 O185 2.381 . S
Cd177 O186 2.378 . S
O178 Cd179 2.385 . S
O178 C183 1.255 . S
Cd179 O178 2.385 . S
Cd179 O180 2.317 . S
O180 Cd179 2.317 . S
O180 C181 1.232 . S
C181 O180 1.232 . S
C181 O182 1.218 . S
O182 C181 1.218 . S
C183 O176 1.275 . S
C183 O178 1.255 . S
C184 O185 1.258 . S
C184 O186 1.256 . S
O185 Cd177 2.381 . S
O185 C184 1.258 . S
O186 Cd177 2.378 . S
O186 C184 1.256 . S
O187 Cd188 2.300 1_556 S
O187 C194 1.275 . S
Cd188 O187 2.300 1_554 S
Cd188 O196 2.381 1_554 S
Cd188 O197 2.378 . S
O189 Cd190 2.385 . S
O189 C194 1.255 1_554 S
Cd190 O189 2.385 . S
Cd190 O191 2.317 . S
O191 Cd190 2.317 . S
O191 C192 1.232 . S
C192 O191 1.232 . S
C192 O193 1.218 . S
O193 C192 1.218 . S
C194 O187 1.275 . S
C194 O189 1.255 1_556 S
C195 O196 1.258 1_554 S
C195 O197 1.256 . S
O196 Cd188 2.381 1_556 S
O196 C195 1.258 1_556 S
O197 Cd188 2.378 . S
O197 C195 1.256 . S
O198 Cd199 2.300 . S
O198 C205 1.275 . S
Cd199 O198 2.300 . S
Cd199 O207 2.381 . S
Cd199 O208 2.378 . S
O200 Cd201 2.385 . S
O200 C205 1.255 . S
Cd201 O200 2.385 . S
Cd201 O202 2.317 . S
O202 Cd201 2.317 . S
O202 C203 1.232 . S
C203 O202 1.232 . S
C203 O204 1.218 . S
O204 C203 1.218 . S
C205 O198 1.275 . S
C205 O200 1.255 . S
C206 O207 1.258 . S
C206 O208 1.256 . S
O207 Cd199 2.381 . S
O207 C206 1.258 . S
O208 Cd199 2.378 . S
O208 C206 1.256 . S
O209 Cd210 2.300 1_554 S
O209 C216 1.275 . S
Cd210 O209 2.300 1_556 S
Cd210 O218 2.381 1_556 S
Cd210 O219 2.378 . S
O211 Cd212 2.385 . S
O211 C216 1.255 1_556 S
Cd212 O211 2.385 . S
Cd212 O213 2.317 . S
O213 Cd212 2.317 . S
O213 C214 1.232 . S
C214 O213 1.232 . S
C214 O215 1.218 . S
O215 C214 1.218 . S
C216 O209 1.275 . S
C216 O211 1.255 1_554 S
C217 O218 1.258 1_556 S
C217 O219 1.256 . S
O218 Cd210 2.381 1_554 S
O218 C217 1.258 1_554 S
O219 Cd210 2.378 . S
O219 C217 1.256 . S
O220 Cd221 2.300 . S
O220 C227 1.275 . S
Cd221 O220 2.300 . S
Cd221 O229 2.381 . S
Cd221 O230 2.378 . S
O222 Cd223 2.385 . S
O222 C227 1.255 . S
Cd223 O222 2.385 . S
Cd223 O224 2.317 . S
O224 Cd223 2.317 . S
O224 C225 1.232 . S
C225 O224 1.232 . S
C225 O226 1.218 . S
O226 C225 1.218 . S
C227 O220 1.275 . S
C227 O222 1.255 . S
C228 O229 1.258 . S
C228 O230 1.256 . S
O229 Cd221 2.381 . S
O229 C228 1.258 . S
O230 Cd221 2.378 . S
O230 C228 1.256 . S
O231 Cd232 2.300 1_655 S
O231 C238 1.275 . S
Cd232 O231 2.300 1_455 S
Cd232 O240 2.381 1_455 S
Cd232 O241 2.378 . S
O233 Cd234 2.385 . S
O233 C238 1.255 1_455 S
Cd234 O233 2.385 . S
Cd234 O235 2.317 . S
O235 Cd234 2.317 . S
O235 C236 1.232 . S
C236 O235 1.232 . S
C236 O237 1.218 . S
O237 C236 1.218 . S
C238 O231 1.275 . S
C238 O233 1.255 1_655 S
C239 O240 1.258 1_455 S
C239 O241 1.256 . S
O240 Cd232 2.381 1_655 S
O240 C239 1.258 1_655 S
O241 Cd232 2.378 . S
O241 C239 1.256 . S
O242 Cd243 2.300 . S
O242 C249 1.275 . S
Cd243 O242 2.300 . S
Cd243 O251 2.381 . S
Cd243 O252 2.378 . S
O244 Cd245 2.385 . S
O244 C249 1.255 . S
Cd245 O244 2.385 . S
Cd245 O246 2.317 . S
O246 Cd245 2.317 . S
O246 C247 1.232 . S
C247 O246 1.232 . S
C247 O248 1.218 . S
O248 C247 1.218 . S
C249 O242 1.275 . S
C249 O244 1.255 . S
C250 O251 1.258 . S
C250 O252 1.256 . S
O251 Cd243 2.381 . S
O251 C250 1.258 . S
O252 Cd243 2.378 . S
O252 C250 1.256 . S
O253 Cd254 2.300 1_455 S
O253 C260 1.275 . S
Cd254 O253 2.300 1_655 S
Cd254 O262 2.381 1_655 S
Cd254 O263 2.378 . S
O255 Cd256 2.385 . S
O255 C260 1.255 1_655 S
Cd256 O255 2.385 . S
Cd256 O257 2.317 . S
O257 Cd256 2.317 . S
O257 C258 1.232 . S
C258 O257 1.232 . S
C258 O259 1.218 . S
O259 C258 1.218 . S
C260 O253 1.275 . S
C260 O255 1.255 1_455 S
C261 O262 1.258 1_655 S
C261 O263 1.256 . S
O262 Cd254 2.381 1_455 S
O262 C261 1.258 1_455 S
O263 Cd254 2.378 . S
O263 C261 1.256 . S
P264 O275 1.490 . S
P264 C278 1.812 . S
P264 C284 1.803 . S
P264 C290 1.819 . S
H265 C279 0.941 . S
H266 C280 0.939 . S
H267 C282 0.940 . S
H268 C283 0.940 . S
H269 C285 0.939 . S
H270 C286 0.942 . S
H271 C288 0.940 . S
H272 C289 0.939 . S
H273 C291 0.941 . S
H274 C295 0.939 . S
O275 P264 1.490 . S
H276 C292 0.939 . S
H277 C294 0.940 . S
C278 P264 1.812 . S
C278 C279 1.389 . S
C278 C283 1.391 . S
C279 H265 0.941 . S
C279 C278 1.389 . S
C279 C280 1.397 . S
C280 H266 0.939 . S
C280 C279 1.397 . S
C280 C281 1.378 . S
C281 C280 1.378 . S
C281 C282 1.378 . S
C282 H267 0.940 . S
C282 C281 1.378 . S
C282 C283 1.396 . S
C283 H268 0.940 . S
C283 C278 1.391 . S
C283 C282 1.396 . S
C284 P264 1.803 . S
C284 C285 1.378 . S
C284 C289 1.400 . S
C285 H269 0.939 . S
C285 C284 1.378 . S
C285 C286 1.361 . S
C286 H270 0.942 . S
C286 C285 1.361 . S
C286 C287 1.369 . S
C287 C286 1.369 . S
C287 C288 1.404 . S
C288 H271 0.940 . S
C288 C287 1.404 . S
C288 C289 1.389 . S
C289 H272 0.939 . S
C289 C284 1.400 . S
C289 C288 1.389 . S
C290 P264 1.819 . S
C290 C291 1.391 . S
C290 C295 1.391 . S
C291 H273 0.941 . S
C291 C290 1.391 . S
C291 C292 1.396 . S
C292 H276 0.939 . S
C292 C291 1.396 . S
C292 C293 1.397 . S
C293 C292 1.397 . S
C293 C294 1.385 . S
C294 H277 0.940 . S
C294 C293 1.385 . S
C294 C295 1.388 . S
C295 H274 0.939 . S
C295 C290 1.391 . S
C295 C294 1.388 . S
P296 O307 1.490 . S
P296 C310 1.812 . S
P296 C316 1.803 . S
P296 C322 1.819 . S
H297 C311 0.941 . S
H298 C312 0.939 . S
H299 C314 0.940 . S
H300 C315 0.940 . S
H301 C317 0.939 . S
H302 C318 0.942 . S
H303 C320 0.940 . S
H304 C321 0.939 . S
H305 C323 0.941 . S
H306 C327 0.939 . S
O307 P296 1.490 . S
H308 C324 0.939 . S
H309 C326 0.940 . S
C310 P296 1.812 . S
C310 C311 1.389 . S
C310 C315 1.391 . S
C311 H297 0.941 . S
C311 C310 1.389 . S
C311 C312 1.397 . S
C312 H298 0.939 . S
C312 C311 1.397 . S
C312 C313 1.378 . S
C313 C312 1.378 . S
C313 C314 1.378 . S
C314 H299 0.940 . S
C314 C313 1.378 . S
C314 C315 1.396 . S
C315 H300 0.940 . S
C315 C310 1.391 . S
C315 C314 1.396 . S
C316 P296 1.803 . S
C316 C317 1.378 . S
C316 C321 1.400 . S
C317 H301 0.939 . S
C317 C316 1.378 . S
C317 C318 1.361 . S
C318 H302 0.942 . S
C318 C317 1.361 . S
C318 C319 1.369 . S
C319 C318 1.369 . S
C319 C320 1.404 . S
C320 H303 0.940 . S
C320 C319 1.404 . S
C320 C321 1.389 . S
C321 H304 0.939 . S
C321 C316 1.400 . S
C321 C320 1.389 . S
C322 P296 1.819 . S
C322 C323 1.391 . S
C322 C327 1.391 . S
C323 H305 0.941 . S
C323 C322 1.391 . S
C323 C324 1.396 . S
C324 H308 0.939 . S
C324 C323 1.396 . S
C324 C325 1.397 . S
C325 C324 1.397 . S
C325 C326 1.385 . S
C326 H309 0.940 . S
C326 C325 1.385 . S
C326 C327 1.388 . S
C327 H306 0.939 . S
C327 C322 1.391 . S
C327 C326 1.388 . S
P328 O339 1.493 . S
P328 C342 1.812 1_545 S
P328 C348 1.803 . S
P328 C354 1.819 . S
H329 C343 0.941 . S
H330 C344 0.939 . S
H331 C346 0.940 . S
H332 C347 0.940 . S
H333 C349 0.939 . S
H334 C350 0.942 . S
H335 C352 0.940 . S
H336 C353 0.939 . S
H337 C355 0.941 . S
H338 C359 0.939 . S
O339 P328 1.493 . S
H340 C356 0.939 . S
H341 C358 0.940 . S
C342 P328 1.812 1_565 S
C342 C343 1.389 . S
C342 C347 1.391 . S
C343 H329 0.941 . S
C343 C342 1.389 . S
C343 C344 1.397 . S
C344 H330 0.939 . S
C344 C343 1.397 . S
C344 C345 1.378 . S
C345 C344 1.378 . S
C345 C346 1.378 . S
C346 H331 0.940 . S
C346 C345 1.378 . S
C346 C347 1.396 . S
C347 H332 0.940 . S
C347 C342 1.391 . S
C347 C346 1.396 . S
C348 P328 1.803 . S
C348 C349 1.378 . S
C348 C353 1.400 . S
C349 H333 0.939 . S
C349 C348 1.378 . S
C349 C350 1.361 . S
C350 H334 0.942 . S
C350 C349 1.361 . S
C350 C351 1.369 . S
C351 C350 1.369 . S
C351 C352 1.404 . S
C352 H335 0.940 . S
C352 C351 1.404 . S
C352 C353 1.389 . S
C353 H336 0.939 . S
C353 C348 1.400 . S
C353 C352 1.389 . S
C354 P328 1.819 . S
C354 C355 1.391 1_545 S
C354 C359 1.391 . S
C355 H337 0.941 . S
C355 C354 1.391 1_565 S
C355 C356 1.396 . S
C356 H340 0.939 . S
C356 C355 1.396 . S
C356 C357 1.397 1_565 S
C357 C356 1.397 1_545 S
C357 C358 1.385 . S
C358 H341 0.940 . S
C358 C357 1.385 . S
C358 C359 1.388 . S
C359 H338 0.939 . S
C359 C354 1.391 . S
C359 C358 1.388 . S
P360 O371 1.490 . S
P360 C374 1.812 1_565 S
P360 C380 1.803 . S
P360 C386 1.819 . S
H361 C375 0.941 . S
H362 C376 0.939 . S
H363 C378 0.940 . S
H364 C379 0.940 . S
H365 C381 0.939 . S
H366 C382 0.942 . S
H367 C384 0.940 . S
H368 C385 0.939 . S
H369 C387 0.941 . S
H370 C391 0.939 . S
O371 P360 1.490 . S
H372 C388 0.939 . S
H373 C390 0.940 . S
C374 P360 1.812 1_545 S
C374 C375 1.389 . S
C374 C379 1.391 . S
C375 H361 0.941 . S
C375 C374 1.389 . S
C375 C376 1.397 . S
C376 H362 0.939 . S
C376 C375 1.397 . S
C376 C377 1.378 . S
C377 C376 1.378 . S
C377 C378 1.378 . S
C378 H363 0.940 . S
C378 C377 1.378 . S
C378 C379 1.396 . S
C379 H364 0.940 . S
C379 C374 1.391 . S
C379 C378 1.396 . S
C380 P360 1.803 . S
C380 C381 1.378 . S
C380 C385 1.400 . S
C381 H365 0.939 . S
C381 C380 1.378 . S
C381 C382 1.361 . S
C382 H366 0.942 . S
C382 C381 1.361 . S
C382 C383 1.369 . S
C383 C382 1.369 . S
C383 C384 1.404 . S
C384 H367 0.940 . S
C384 C383 1.404 . S
C384 C385 1.389 . S
C385 H368 0.939 . S
C385 C380 1.400 . S
C385 C384 1.389 . S
C386 P360 1.819 . S
C386 C387 1.391 1_565 S
C386 C391 1.391 . S
C387 H369 0.941 . S
C387 C386 1.391 1_545 S
C387 C388 1.396 . S
C388 H372 0.939 . S
C388 C387 1.396 . S
C388 C389 1.397 . S
C389 C388 1.397 . S
C389 C390 1.385 1_545 S
C390 H373 0.940 . S
C390 C389 1.385 1_565 S
C390 C391 1.388 . S
C391 H370 0.939 . S
C391 C386 1.391 . S
C391 C390 1.388 . S
P392 O403 1.490 . S
P392 C406 1.812 . S
P392 C412 1.803 . S
P392 C418 1.819 . S
H393 C407 0.941 . S
H394 C408 0.939 . S
H395 C410 0.940 . S
H396 C411 0.940 . S
H397 C413 0.939 . S
H398 C414 0.942 . S
H399 C416 0.940 . S
H400 C417 0.939 . S
H401 C419 0.941 . S
H402 C423 0.939 . S
O403 P392 1.490 . S
H404 C420 0.939 . S
H405 C422 0.940 . S
C406 P392 1.812 . S
C406 C407 1.389 . S
C406 C411 1.391 . S
C407 H393 0.941 . S
C407 C406 1.389 . S
C407 C408 1.397 . S
C408 H394 0.939 . S
C408 C407 1.397 . S
C408 C409 1.378 . S
C409 C408 1.378 . S
C409 C410 1.378 . S
C410 H395 0.940 . S
C410 C409 1.378 . S
C410 C411 1.396 . S
C411 H396 0.940 . S
C411 C406 1.391 . S
C411 C410 1.396 . S
C412 P392 1.803 . S
C412 C413 1.378 . S
C412 C417 1.400 . S
C413 H397 0.939 . S
C413 C412 1.378 . S
C413 C414 1.361 . S
C414 H398 0.942 . S
C414 C413 1.361 . S
C414 C415 1.369 . S
C415 C414 1.369 . S
C415 C416 1.404 . S
C416 H399 0.940 . S
C416 C415 1.404 . S
C416 C417 1.389 . S
C417 H400 0.939 . S
C417 C412 1.400 . S
C417 C416 1.389 . S
C418 P392 1.819 . S
C418 C419 1.391 . S
C418 C423 1.391 . S
C419 H401 0.941 . S
C419 C418 1.391 . S
C419 C420 1.396 . S
C420 H404 0.939 . S
C420 C419 1.396 . S
C420 C421 1.397 . S
C421 C420 1.397 . S
C421 C422 1.385 . S
C422 H405 0.940 . S
C422 C421 1.385 . S
C422 C423 1.388 . S
C423 H402 0.939 . S
C423 C418 1.391 . S
C423 C422 1.388 . S
P424 O435 1.490 . S
P424 C438 1.812 1_556 S
P424 C444 1.803 . S
P424 C450 1.819 . S
H425 C439 0.941 . S
H426 C440 0.939 . S
H427 C442 0.940 . S
H428 C443 0.940 . S
H429 C445 0.939 . S
H430 C446 0.942 . S
H431 C448 0.940 . S
H432 C449 0.939 . S
H433 C451 0.941 . S
H434 C455 0.939 . S
O435 P424 1.490 . S
H436 C452 0.939 . S
H437 C454 0.940 . S
C438 P424 1.812 1_554 S
C438 C439 1.389 . S
C438 C443 1.391 . S
C439 H425 0.941 . S
C439 C438 1.389 . S
C439 C440 1.397 . S
C440 H426 0.939 . S
C440 C439 1.397 . S
C440 C441 1.378 . S
C441 C440 1.378 . S
C441 C442 1.378 . S
C442 H427 0.940 . S
C442 C441 1.378 . S
C442 C443 1.396 . S
C443 H428 0.940 . S
C443 C438 1.391 . S
C443 C442 1.396 . S
C444 P424 1.803 . S
C444 C445 1.378 . S
C444 C449 1.400 . S
C445 H429 0.939 . S
C445 C444 1.378 . S
C445 C446 1.361 . S
C446 H430 0.942 . S
C446 C445 1.361 . S
C446 C447 1.369 . S
C447 C446 1.369 . S
C447 C448 1.404 . S
C448 H431 0.940 . S
C448 C447 1.404 . S
C448 C449 1.389 . S
C449 H432 0.939 . S
C449 C444 1.400 . S
C449 C448 1.389 . S
C450 P424 1.819 . S
C450 C451 1.391 1_556 S
C450 C455 1.391 . S
C451 H433 0.941 . S
C451 C450 1.391 1_554 S
C451 C452 1.396 . S
C452 H436 0.939 . S
C452 C451 1.396 . S
C452 C453 1.397 . S
C453 C452 1.397 . S
C453 C454 1.385 1_554 S
C454 H437 0.940 . S
C454 C453 1.385 1_556 S
C454 C455 1.388 . S
C455 H434 0.939 . S
C455 C450 1.391 . S
C455 C454 1.388 . S
P456 O467 1.490 . S
P456 C470 1.812 . S
P456 C476 1.803 . S
P456 C482 1.819 . S
H457 C471 0.941 . S
H458 C472 0.939 . S
H459 C474 0.940 . S
H460 C475 0.940 . S
H461 C477 0.939 . S
H462 C478 0.942 . S
H463 C480 0.940 . S
H464 C481 0.939 . S
H465 C483 0.941 . S
H466 C487 0.939 . S
O467 P456 1.490 . S
H468 C484 0.939 . S
H469 C486 0.940 . S
C470 P456 1.812 . S
C470 C471 1.389 . S
C470 C475 1.391 . S
C471 H457 0.941 . S
C471 C470 1.389 . S
C471 C472 1.397 . S
C472 H458 0.939 . S
C472 C471 1.397 . S
C472 C473 1.378 . S
C473 C472 1.378 . S
C473 C474 1.378 . S
C474 H459 0.940 . S
C474 C473 1.378 . S
C474 C475 1.396 . S
C475 H460 0.940 . S
C475 C470 1.391 . S
C475 C474 1.396 . S
C476 P456 1.803 . S
C476 C477 1.378 . S
C476 C481 1.400 . S
C477 H461 0.939 . S
C477 C476 1.378 . S
C477 C478 1.361 . S
C478 H462 0.942 . S
C478 C477 1.361 . S
C478 C479 1.369 . S
C479 C478 1.369 . S
C479 C480 1.404 . S
C480 H463 0.940 . S
C480 C479 1.404 . S
C480 C481 1.389 . S
C481 H464 0.939 . S
C481 C476 1.400 . S
C481 C480 1.389 . S
C482 P456 1.819 . S
C482 C483 1.391 . S
C482 C487 1.391 . S
C483 H465 0.941 . S
C483 C482 1.391 . S
C483 C484 1.396 . S
C484 H468 0.939 . S
C484 C483 1.396 . S
C484 C485 1.397 . S
C485 C484 1.397 . S
C485 C486 1.385 . S
C486 H469 0.940 . S
C486 C485 1.385 . S
C486 C487 1.388 . S
C487 H466 0.939 . S
C487 C482 1.391 . S
C487 C486 1.388 . S
P488 O499 1.493 . S
P488 C502 1.812 1_554 S
P488 C508 1.803 . S
P488 C514 1.819 . S
H489 C503 0.941 . S
H490 C504 0.939 . S
H491 C506 0.940 . S
H492 C507 0.940 . S
H493 C509 0.939 . S
H494 C510 0.942 . S
H495 C512 0.940 . S
H496 C513 0.939 . S
H497 C515 0.941 . S
H498 C519 0.939 . S
O499 P488 1.493 . S
H500 C516 0.939 . S
H501 C518 0.940 . S
C502 P488 1.812 1_556 S
C502 C503 1.389 . S
C502 C507 1.391 . S
C503 H489 0.941 . S
C503 C502 1.389 . S
C503 C504 1.397 . S
C504 H490 0.939 . S
C504 C503 1.397 . S
C504 C505 1.378 . S
C505 C504 1.378 . S
C505 C506 1.378 . S
C506 H491 0.940 . S
C506 C505 1.378 . S
C506 C507 1.396 . S
C507 H492 0.940 . S
C507 C502 1.391 . S
C507 C506 1.396 . S
C508 P488 1.803 . S
C508 C509 1.378 . S
C508 C513 1.400 . S
C509 H493 0.939 . S
C509 C508 1.378 . S
C509 C510 1.361 . S
C510 H494 0.942 . S
C510 C509 1.361 . S
C510 C511 1.369 . S
C511 C510 1.369 . S
C511 C512 1.404 . S
C512 H495 0.940 . S
C512 C511 1.404 . S
C512 C513 1.389 . S
C513 H496 0.939 . S
C513 C508 1.400 . S
C513 C512 1.389 . S
C514 P488 1.819 . S
C514 C515 1.391 1_554 S
C514 C519 1.391 . S
C515 H497 0.941 . S
C515 C514 1.391 1_556 S
C515 C516 1.396 . S
C516 H500 0.939 . S
C516 C515 1.396 . S
C516 C517 1.397 1_556 S
C517 C516 1.397 1_554 S
C517 C518 1.385 . S
C518 H501 0.940 . S
C518 C517 1.385 . S
C518 C519 1.388 . S
C519 H498 0.939 . S
C519 C514 1.391 . S
C519 C518 1.388 . S
P520 O531 1.490 . S
P520 C534 1.812 . S
P520 C540 1.803 . S
P520 C546 1.819 . S
H521 C535 0.941 . S
H522 C536 0.939 . S
H523 C538 0.940 . S
H524 C539 0.940 . S
H525 C541 0.939 . S
H526 C542 0.942 . S
H527 C544 0.940 . S
H528 C545 0.939 . S
H529 C547 0.941 . S
H530 C551 0.939 . S
O531 P520 1.490 . S
H532 C548 0.939 . S
H533 C550 0.940 . S
C534 P520 1.812 . S
C534 C535 1.389 . S
C534 C539 1.391 . S
C535 H521 0.941 . S
C535 C534 1.389 . S
C535 C536 1.397 . S
C536 H522 0.939 . S
C536 C535 1.397 . S
C536 C537 1.378 . S
C537 C536 1.378 . S
C537 C538 1.378 . S
C538 H523 0.940 . S
C538 C537 1.378 . S
C538 C539 1.396 . S
C539 H524 0.940 . S
C539 C534 1.391 . S
C539 C538 1.396 . S
C540 P520 1.803 . S
C540 C541 1.378 . S
C540 C545 1.400 . S
C541 H525 0.939 . S
C541 C540 1.378 . S
C541 C542 1.361 . S
C542 H526 0.942 . S
C542 C541 1.361 . S
C542 C543 1.369 . S
C543 C542 1.369 . S
C543 C544 1.404 . S
C544 H527 0.940 . S
C544 C543 1.404 . S
C544 C545 1.389 . S
C545 H528 0.939 . S
C545 C540 1.400 . S
C545 C544 1.389 . S
C546 P520 1.819 . S
C546 C547 1.391 . S
C546 C551 1.391 . S
C547 H529 0.941 . S
C547 C546 1.391 . S
C547 C548 1.396 . S
C548 H532 0.939 . S
C548 C547 1.396 . S
C548 C549 1.397 . S
C549 C548 1.397 . S
C549 C550 1.385 . S
C550 H533 0.940 . S
C550 C549 1.385 . S
C550 C551 1.388 . S
C551 H530 0.939 . S
C551 C546 1.391 . S
C551 C550 1.388 . S
P552 O563 1.490 . S
P552 C566 1.812 1_655 S
P552 C572 1.803 . S
P552 C578 1.819 . S
H553 C567 0.941 . S
H554 C568 0.939 . S
H555 C570 0.940 . S
H556 C571 0.940 . S
H557 C573 0.939 . S
H558 C574 0.942 . S
H559 C576 0.940 . S
H560 C577 0.939 . S
H561 C579 0.941 . S
H562 C583 0.939 . S
O563 P552 1.490 . S
H564 C580 0.939 . S
H565 C582 0.940 . S
C566 P552 1.812 1_455 S
C566 C567 1.389 . S
C566 C571 1.391 . S
C567 H553 0.941 . S
C567 C566 1.389 . S
C567 C568 1.397 . S
C568 H554 0.939 . S
C568 C567 1.397 . S
C568 C569 1.378 . S
C569 C568 1.378 . S
C569 C570 1.378 . S
C570 H555 0.940 . S
C570 C569 1.378 . S
C570 C571 1.396 . S
C571 H556 0.940 . S
C571 C566 1.391 . S
C571 C570 1.396 . S
C572 P552 1.803 . S
C572 C573 1.378 . S
C572 C577 1.400 . S
C573 H557 0.939 . S
C573 C572 1.378 . S
C573 C574 1.361 . S
C574 H558 0.942 . S
C574 C573 1.361 . S
C574 C575 1.369 . S
C575 C574 1.369 . S
C575 C576 1.404 . S
C576 H559 0.940 . S
C576 C575 1.404 . S
C576 C577 1.389 . S
C577 H560 0.939 . S
C577 C572 1.400 . S
C577 C576 1.389 . S
C578 P552 1.819 . S
C578 C579 1.391 1_655 S
C578 C583 1.391 . S
C579 H561 0.941 . S
C579 C578 1.391 1_455 S
C579 C580 1.396 . S
C580 H564 0.939 . S
C580 C579 1.396 . S
C580 C581 1.397 . S
C581 C580 1.397 . S
C581 C582 1.385 1_455 S
C582 H565 0.940 . S
C582 C581 1.385 1_655 S
C582 C583 1.388 . S
C583 H562 0.939 . S
C583 C578 1.391 . S
C583 C582 1.388 . S
P584 O595 1.490 . S
P584 C598 1.812 . S
P584 C604 1.803 . S
P584 C610 1.819 . S
H585 C599 0.941 . S
H586 C600 0.939 . S
H587 C602 0.940 . S
H588 C603 0.940 . S
H589 C605 0.939 . S
H590 C606 0.942 . S
H591 C608 0.940 . S
H592 C609 0.939 . S
H593 C611 0.941 . S
H594 C615 0.939 . S
O595 P584 1.490 . S
H596 C612 0.939 . S
H597 C614 0.940 . S
C598 P584 1.812 . S
C598 C599 1.389 . S
C598 C603 1.391 . S
C599 H585 0.941 . S
C599 C598 1.389 . S
C599 C600 1.397 . S
C600 H586 0.939 . S
C600 C599 1.397 . S
C600 C601 1.378 . S
C601 C600 1.378 . S
C601 C602 1.378 . S
C602 H587 0.940 . S
C602 C601 1.378 . S
C602 C603 1.396 . S
C603 H588 0.940 . S
C603 C598 1.391 . S
C603 C602 1.396 . S
C604 P584 1.803 . S
C604 C605 1.378 . S
C604 C609 1.400 . S
C605 H589 0.939 . S
C605 C604 1.378 . S
C605 C606 1.361 . S
C606 H590 0.942 . S
C606 C605 1.361 . S
C606 C607 1.369 . S
C607 C606 1.369 . S
C607 C608 1.404 . S
C608 H591 0.940 . S
C608 C607 1.404 . S
C608 C609 1.389 . S
C609 H592 0.939 . S
C609 C604 1.400 . S
C609 C608 1.389 . S
C610 P584 1.819 . S
C610 C611 1.391 . S
C610 C615 1.391 . S
C611 H593 0.941 . S
C611 C610 1.391 . S
C611 C612 1.396 . S
C612 H596 0.939 . S
C612 C611 1.396 . S
C612 C613 1.397 . S
C613 C612 1.397 . S
C613 C614 1.385 . S
C614 H597 0.940 . S
C614 C613 1.385 . S
C614 C615 1.388 . S
C615 H594 0.939 . S
C615 C610 1.391 . S
C615 C614 1.388 . S
P616 O627 1.493 . S
P616 C630 1.812 1_455 S
P616 C636 1.803 . S
P616 C642 1.819 . S
H617 C631 0.941 . S
H618 C632 0.939 . S
H619 C634 0.940 . S
H620 C635 0.940 . S
H621 C637 0.939 . S
H622 C638 0.942 . S
H623 C640 0.940 . S
H624 C641 0.939 . S
H625 C643 0.941 . S
H626 C647 0.939 . S
O627 P616 1.493 . S
H628 C644 0.939 . S
H629 C646 0.940 . S
C630 P616 1.812 1_655 S
C630 C631 1.389 . S
C630 C635 1.391 . S
C631 H617 0.941 . S
C631 C630 1.389 . S
C631 C632 1.397 . S
C632 H618 0.939 . S
C632 C631 1.397 . S
C632 C633 1.378 . S
C633 C632 1.378 . S
C633 C634 1.378 . S
C634 H619 0.940 . S
C634 C633 1.378 . S
C634 C635 1.396 . S
C635 H620 0.940 . S
C635 C630 1.391 . S
C635 C634 1.396 . S
C636 P616 1.803 . S
C636 C637 1.378 . S
C636 C641 1.400 . S
C637 H621 0.939 . S
C637 C636 1.378 . S
C637 C638 1.361 . S
C638 H622 0.942 . S
C638 C637 1.361 . S
C638 C639 1.369 . S
C639 C638 1.369 . S
C639 C640 1.404 . S
C640 H623 0.940 . S
C640 C639 1.404 . S
C640 C641 1.389 . S
C641 H624 0.939 . S
C641 C636 1.400 . S
C641 C640 1.389 . S
C642 P616 1.819 . S
C642 C643 1.391 1_455 S
C642 C647 1.391 . S
C643 H625 0.941 . S
C643 C642 1.391 1_655 S
C643 C644 1.396 . S
C644 H628 0.939 . S
C644 C643 1.396 . S
C644 C645 1.397 1_655 S
C645 C644 1.397 1_455 S
C645 C646 1.385 . S
C646 H629 0.940 . S
C646 C645 1.385 . S
C646 C647 1.388 . S
C647 H626 0.939 . S
C647 C642 1.391 . S
C647 C646 1.388 . S
P648 O659 1.490 . S
P648 C662 1.812 . S
P648 C668 1.803 . S
P648 C674 1.819 . S
H649 C663 0.941 . S
H650 C664 0.939 . S
H651 C666 0.940 . S
H652 C667 0.940 . S
H653 C669 0.939 . S
H654 C670 0.942 . S
H655 C672 0.940 . S
H656 C673 0.939 . S
H657 C675 0.941 . S
H658 C679 0.939 . S
O659 P648 1.490 . S
H660 C676 0.939 . S
H661 C678 0.940 . S
C662 P648 1.812 . S
C662 C663 1.389 . S
C662 C667 1.391 . S
C663 H649 0.941 . S
C663 C662 1.389 . S
C663 C664 1.397 . S
C664 H650 0.939 . S
C664 C663 1.397 . S
C664 C665 1.378 . S
C665 C664 1.378 . S
C665 C666 1.378 . S
C666 H651 0.940 . S
C666 C665 1.378 . S
C666 C667 1.396 . S
C667 H652 0.940 . S
C667 C662 1.391 . S
C667 C666 1.396 . S
C668 P648 1.803 . S
C668 C669 1.378 . S
C668 C673 1.400 . S
C669 H653 0.939 . S
C669 C668 1.378 . S
C669 C670 1.361 . S
C670 H654 0.942 . S
C670 C669 1.361 . S
C670 C671 1.369 . S
C671 C670 1.369 . S
C671 C672 1.404 . S
C672 H655 0.940 . S
C672 C671 1.404 . S
C672 C673 1.389 . S
C673 H656 0.939 . S
C673 C668 1.400 . S
C673 C672 1.389 . S
C674 P648 1.819 . S
C674 C675 1.391 . S
C674 C679 1.391 . S
C675 H657 0.941 . S
C675 C674 1.391 . S
C675 C676 1.396 . S
C676 H660 0.939 . S
C676 C675 1.396 . S
C676 C677 1.397 . S
C677 C676 1.397 . S
C677 C678 1.385 . S
C678 H661 0.940 . S
C678 C677 1.385 . S
C678 C679 1.388 . S
C679 H658 0.939 . S
C679 C674 1.391 . S
C679 C678 1.388 . S
P680 O691 1.490 . S
P680 C694 1.812 . S
P680 C700 1.803 . S
P680 C706 1.819 . S
H681 C695 0.941 . S
H682 C696 0.939 . S
H683 C698 0.940 . S
H684 C699 0.940 . S
H685 C701 0.939 . S
H686 C702 0.942 . S
H687 C704 0.940 . S
H688 C705 0.939 . S
H689 C707 0.941 . S
H690 C711 0.939 . S
O691 P680 1.490 . S
H692 C708 0.939 . S
H693 C710 0.940 . S
C694 P680 1.812 . S
C694 C695 1.389 . S
C694 C699 1.391 . S
C695 H681 0.941 . S
C695 C694 1.389 . S
C695 C696 1.397 . S
C696 H682 0.939 . S
C696 C695 1.397 . S
C696 C697 1.378 . S
C697 C696 1.378 . S
C697 C698 1.378 . S
C698 H683 0.940 . S
C698 C697 1.378 . S
C698 C699 1.396 . S
C699 H684 0.940 . S
C699 C694 1.391 . S
C699 C698 1.396 . S
C700 P680 1.803 . S
C700 C701 1.378 . S
C700 C705 1.400 . S
C701 H685 0.939 . S
C701 C700 1.378 . S
C701 C702 1.361 . S
C702 H686 0.942 . S
C702 C701 1.361 . S
C702 C703 1.369 . S
C703 C702 1.369 . S
C703 C704 1.404 . S
C704 H687 0.940 . S
C704 C703 1.404 . S
C704 C705 1.389 . S
C705 H688 0.939 . S
C705 C700 1.400 . S
C705 C704 1.389 . S
C706 P680 1.819 . S
C706 C707 1.391 . S
C706 C711 1.391 . S
C707 H689 0.941 . S
C707 C706 1.391 . S
C707 C708 1.396 . S
C708 H692 0.939 . S
C708 C707 1.396 . S
C708 C709 1.397 . S
C709 C708 1.397 . S
C709 C710 1.385 . S
C710 H693 0.940 . S
C710 C709 1.385 . S
C710 C711 1.388 . S
C711 H690 0.939 . S
C711 C706 1.391 . S
C711 C710 1.388 . S
P712 O723 1.491 . S
P712 C726 1.761 1_565 S
P712 C732 1.850 . S
P712 C738 1.821 . S
H713 C727 0.941 . S
H714 C728 0.939 . S
H715 C730 0.940 . S
H716 C731 0.940 . S
H717 C733 0.939 . S
H718 C734 0.942 . S
H719 C736 0.940 . S
H720 C737 0.939 . S
H721 C739 0.941 . S
H722 C743 0.939 . S
O723 P712 1.491 . S
H724 C740 0.939 . S
H725 C742 0.940 . S
C726 P712 1.761 1_545 S
C726 C727 1.389 . S
C726 C731 1.391 . S
C727 H713 0.941 . S
C727 C726 1.389 . S
C727 C728 1.397 . S
C728 H714 0.939 . S
C728 C727 1.397 . S
C728 C729 1.378 . S
C729 C728 1.378 . S
C729 C730 1.378 . S
C730 H715 0.940 . S
C730 C729 1.378 . S
C730 C731 1.396 . S
C731 H716 0.940 . S
C731 C726 1.391 . S
C731 C730 1.396 . S
C732 P712 1.850 . S
C732 C733 1.378 . S
C732 C737 1.400 . S
C733 H717 0.939 . S
C733 C732 1.378 . S
C733 C734 1.361 . S
C734 H718 0.942 . S
C734 C733 1.361 . S
C734 C735 1.369 . S
C735 C734 1.369 . S
C735 C736 1.404 . S
C736 H719 0.940 . S
C736 C735 1.404 . S
C736 C737 1.389 . S
C737 H720 0.939 . S
C737 C732 1.400 . S
C737 C736 1.389 . S
C738 P712 1.821 . S
C738 C739 1.391 1_565 S
C738 C743 1.391 . S
C739 H721 0.941 . S
C739 C738 1.391 1_545 S
C739 C740 1.396 . S
C740 H724 0.939 . S
C740 C739 1.396 . S
C740 C741 1.397 1_545 S
C741 C740 1.397 1_565 S
C741 C742 1.385 . S
C742 H725 0.940 . S
C742 C741 1.385 . S
C742 C743 1.388 . S
C743 H722 0.939 . S
C743 C738 1.391 . S
C743 C742 1.388 . S
P744 O755 1.490 1_545 S
P744 C758 1.816 1_545 S
P744 C764 1.800 . S
P744 C770 1.818 . S
H745 C759 0.941 . S
H746 C760 0.939 . S
H747 C762 0.940 . S
H748 C763 0.940 . S
H749 C765 0.939 . S
H750 C766 0.942 . S
H751 C768 0.940 . S
H752 C769 0.939 . S
H753 C771 0.941 . S
H754 C775 0.939 . S
O755 P744 1.490 1_565 S
H756 C772 0.939 . S
H757 C774 0.940 . S
C758 P744 1.816 1_565 S
C758 C759 1.389 . S
C758 C763 1.391 . S
C759 H745 0.941 . S
C759 C758 1.389 . S
C759 C760 1.397 . S
C760 H746 0.939 . S
C760 C759 1.397 . S
C760 C761 1.378 . S
C761 C760 1.378 . S
C761 C762 1.378 . S
C762 H747 0.940 . S
C762 C761 1.378 . S
C762 C763 1.396 . S
C763 H748 0.940 . S
C763 C758 1.391 . S
C763 C762 1.396 . S
C764 P744 1.800 . S
C764 C765 1.378 . S
C764 C769 1.400 . S
C765 H749 0.939 . S
C765 C764 1.378 . S
C765 C766 1.361 . S
C766 H750 0.942 . S
C766 C765 1.361 . S
C766 C767 1.369 . S
C767 C766 1.369 . S
C767 C768 1.404 . S
C768 H751 0.940 . S
C768 C767 1.404 . S
C768 C769 1.389 . S
C769 H752 0.939 . S
C769 C764 1.400 . S
C769 C768 1.389 . S
C770 P744 1.818 . S
C770 C771 1.384 1_545 S
C770 C775 1.399 . S
C771 H753 0.941 . S
C771 C770 1.384 1_565 S
C771 C772 1.396 . S
C772 H756 0.939 . S
C772 C771 1.396 . S
C772 C773 1.397 . S
C773 C772 1.397 . S
C773 C774 1.385 1_565 S
C774 H757 0.940 . S
C774 C773 1.385 1_545 S
C774 C775 1.388 . S
C775 H754 0.939 . S
C775 C770 1.399 . S
C775 C774 1.388 . S
P776 O787 1.490 . S
P776 C790 1.812 . S
P776 C796 1.803 . S
P776 C802 1.819 . S
H777 C791 0.941 . S
H778 C792 0.939 . S
H779 C794 0.940 . S
H780 C795 0.940 . S
H781 C797 0.939 . S
H782 C798 0.942 . S
H783 C800 0.940 . S
H784 C801 0.939 . S
H785 C803 0.941 . S
H786 C807 0.939 . S
O787 P776 1.490 . S
H788 C804 0.939 . S
H789 C806 0.940 . S
C790 P776 1.812 . S
C790 C791 1.389 . S
C790 C795 1.391 . S
C791 H777 0.941 . S
C791 C790 1.389 . S
C791 C792 1.397 . S
C792 H778 0.939 . S
C792 C791 1.397 . S
C792 C793 1.378 . S
C793 C792 1.378 . S
C793 C794 1.378 . S
C794 H779 0.940 . S
C794 C793 1.378 . S
C794 C795 1.396 . S
C795 H780 0.940 . S
C795 C790 1.391 . S
C795 C794 1.396 . S
C796 P776 1.803 . S
C796 C797 1.378 . S
C796 C801 1.400 . S
C797 H781 0.939 . S
C797 C796 1.378 . S
C797 C798 1.361 . S
C798 H782 0.942 . S
C798 C797 1.361 . S
C798 C799 1.369 . S
C799 C798 1.369 . S
C799 C800 1.404 . S
C800 H783 0.940 . S
C800 C799 1.404 . S
C800 C801 1.389 . S
C801 H784 0.939 . S
C801 C796 1.400 . S
C801 C800 1.389 . S
C802 P776 1.819 . S
C802 C803 1.391 . S
C802 C807 1.391 . S
C803 H785 0.941 . S
C803 C802 1.391 . S
C803 C804 1.396 . S
C804 H788 0.939 . S
C804 C803 1.396 . S
C804 C805 1.397 . S
C805 C804 1.397 . S
C805 C806 1.385 . S
C806 H789 0.940 . S
C806 C805 1.385 . S
C806 C807 1.388 . S
C807 H786 0.939 . S
C807 C802 1.391 . S
C807 C806 1.388 . S
P808 O819 1.490 1_554 S
P808 C822 1.816 1_554 S
P808 C828 1.800 . S
P808 C834 1.818 . S
H809 C823 0.941 . S
H810 C824 0.939 . S
H811 C826 0.940 . S
H812 C827 0.940 . S
H813 C829 0.939 . S
H814 C830 0.942 . S
H815 C832 0.940 . S
H816 C833 0.939 . S
H817 C835 0.941 . S
H818 C839 0.939 . S
O819 P808 1.490 1_556 S
H820 C836 0.939 . S
H821 C838 0.940 . S
C822 P808 1.816 1_556 S
C822 C823 1.389 . S
C822 C827 1.391 . S
C823 H809 0.941 . S
C823 C822 1.389 . S
C823 C824 1.397 . S
C824 H810 0.939 . S
C824 C823 1.397 . S
C824 C825 1.378 . S
C825 C824 1.378 . S
C825 C826 1.378 . S
C826 H811 0.940 . S
C826 C825 1.378 . S
C826 C827 1.396 . S
C827 H812 0.940 . S
C827 C822 1.391 . S
C827 C826 1.396 . S
C828 P808 1.800 . S
C828 C829 1.378 . S
C828 C833 1.400 . S
C829 H813 0.939 . S
C829 C828 1.378 . S
C829 C830 1.361 . S
C830 H814 0.942 . S
C830 C829 1.361 . S
C830 C831 1.369 . S
C831 C830 1.369 . S
C831 C832 1.404 . S
C832 H815 0.940 . S
C832 C831 1.404 . S
C832 C833 1.389 . S
C833 H816 0.939 . S
C833 C828 1.400 . S
C833 C832 1.389 . S
C834 P808 1.818 . S
C834 C835 1.384 1_554 S
C834 C839 1.399 . S
C835 H817 0.941 . S
C835 C834 1.384 1_556 S
C835 C836 1.396 . S
C836 H820 0.939 . S
C836 C835 1.396 . S
C836 C837 1.397 . S
C837 C836 1.397 . S
C837 C838 1.385 1_556 S
C838 H821 0.940 . S
C838 C837 1.385 1_554 S
C838 C839 1.388 . S
C839 H818 0.939 . S
C839 C834 1.399 . S
C839 C838 1.388 . S
P840 O851 1.490 . S
P840 C854 1.812 . S
P840 C860 1.803 . S
P840 C866 1.819 . S
H841 C855 0.941 . S
H842 C856 0.939 . S
H843 C858 0.940 . S
H844 C859 0.940 . S
H845 C861 0.939 . S
H846 C862 0.942 . S
H847 C864 0.940 . S
H848 C865 0.939 . S
H849 C867 0.941 . S
H850 C871 0.939 . S
O851 P840 1.490 . S
H852 C868 0.939 . S
H853 C870 0.940 . S
C854 P840 1.812 . S
C854 C855 1.389 . S
C854 C859 1.391 . S
C855 H841 0.941 . S
C855 C854 1.389 . S
C855 C856 1.397 . S
C856 H842 0.939 . S
C856 C855 1.397 . S
C856 C857 1.378 . S
C857 C856 1.378 . S
C857 C858 1.378 . S
C858 H843 0.940 . S
C858 C857 1.378 . S
C858 C859 1.396 . S
C859 H844 0.940 . S
C859 C854 1.391 . S
C859 C858 1.396 . S
C860 P840 1.803 . S
C860 C861 1.378 . S
C860 C865 1.400 . S
C861 H845 0.939 . S
C861 C860 1.378 . S
C861 C862 1.361 . S
C862 H846 0.942 . S
C862 C861 1.361 . S
C862 C863 1.369 . S
C863 C862 1.369 . S
C863 C864 1.404 . S
C864 H847 0.940 . S
C864 C863 1.404 . S
C864 C865 1.389 . S
C865 H848 0.939 . S
C865 C860 1.400 . S
C865 C864 1.389 . S
C866 P840 1.819 . S
C866 C867 1.391 . S
C866 C871 1.391 . S
C867 H849 0.941 . S
C867 C866 1.391 . S
C867 C868 1.396 . S
C868 H852 0.939 . S
C868 C867 1.396 . S
C868 C869 1.397 . S
C869 C868 1.397 . S
C869 C870 1.385 . S
C870 H853 0.940 . S
C870 C869 1.385 . S
C870 C871 1.388 . S
C871 H850 0.939 . S
C871 C866 1.391 . S
C871 C870 1.388 . S
P872 O883 1.491 . S
P872 C886 1.761 1_556 S
P872 C892 1.850 . S
P872 C898 1.821 . S
H873 C887 0.941 . S
H874 C888 0.939 . S
H875 C890 0.940 . S
H876 C891 0.940 . S
H877 C893 0.939 . S
H878 C894 0.942 . S
H879 C896 0.940 . S
H880 C897 0.939 . S
H881 C899 0.941 . S
H882 C903 0.939 . S
O883 P872 1.491 . S
H884 C900 0.939 . S
H885 C902 0.940 . S
C886 P872 1.761 1_554 S
C886 C887 1.389 . S
C886 C891 1.391 . S
C887 H873 0.941 . S
C887 C886 1.389 . S
C887 C888 1.397 . S
C888 H874 0.939 . S
C888 C887 1.397 . S
C888 C889 1.378 . S
C889 C888 1.378 . S
C889 C890 1.378 . S
C890 H875 0.940 . S
C890 C889 1.378 . S
C890 C891 1.396 . S
C891 H876 0.940 . S
C891 C886 1.391 . S
C891 C890 1.396 . S
C892 P872 1.850 . S
C892 C893 1.378 . S
C892 C897 1.400 . S
C893 H877 0.939 . S
C893 C892 1.378 . S
C893 C894 1.361 . S
C894 H878 0.942 . S
C894 C893 1.361 . S
C894 C895 1.369 . S
C895 C894 1.369 . S
C895 C896 1.404 . S
C896 H879 0.940 . S
C896 C895 1.404 . S
C896 C897 1.389 . S
C897 H880 0.939 . S
C897 C892 1.400 . S
C897 C896 1.389 . S
C898 P872 1.821 . S
C898 C899 1.391 1_556 S
C898 C903 1.391 . S
C899 H881 0.941 . S
C899 C898 1.391 1_554 S
C899 C900 1.396 . S
C900 H884 0.939 . S
C900 C899 1.396 . S
C900 C901 1.397 1_554 S
C901 C900 1.397 1_556 S
C901 C902 1.385 . S
C902 H885 0.940 . S
C902 C901 1.385 . S
C902 C903 1.388 . S
C903 H882 0.939 . S
C903 C898 1.391 . S
C903 C902 1.388 . S
P904 O915 1.490 . S
P904 C918 1.812 . S
P904 C924 1.803 . S
P904 C930 1.819 . S
H905 C919 0.941 . S
H906 C920 0.939 . S
H907 C922 0.940 . S
H908 C923 0.940 . S
H909 C925 0.939 . S
H910 C926 0.942 . S
H911 C928 0.940 . S
H912 C929 0.939 . S
H913 C931 0.941 . S
H914 C935 0.939 . S
O915 P904 1.490 . S
H916 C932 0.939 . S
H917 C934 0.940 . S
C918 P904 1.812 . S
C918 C919 1.389 . S
C918 C923 1.391 . S
C919 H905 0.941 . S
C919 C918 1.389 . S
C919 C920 1.397 . S
C920 H906 0.939 . S
C920 C919 1.397 . S
C920 C921 1.378 . S
C921 C920 1.378 . S
C921 C922 1.378 . S
C922 H907 0.940 . S
C922 C921 1.378 . S
C922 C923 1.396 . S
C923 H908 0.940 . S
C923 C918 1.391 . S
C923 C922 1.396 . S
C924 P904 1.803 . S
C924 C925 1.378 . S
C924 C929 1.400 . S
C925 H909 0.939 . S
C925 C924 1.378 . S
C925 C926 1.361 . S
C926 H910 0.942 . S
C926 C925 1.361 . S
C926 C927 1.369 . S
C927 C926 1.369 . S
C927 C928 1.404 . S
C928 H911 0.940 . S
C928 C927 1.404 . S
C928 C929 1.389 . S
C929 H912 0.939 . S
C929 C924 1.400 . S
C929 C928 1.389 . S
C930 P904 1.819 . S
C930 C931 1.391 . S
C930 C935 1.391 . S
C931 H913 0.941 . S
C931 C930 1.391 . S
C931 C932 1.396 . S
C932 H916 0.939 . S
C932 C931 1.396 . S
C932 C933 1.397 . S
C933 C932 1.397 . S
C933 C934 1.385 . S
C934 H917 0.940 . S
C934 C933 1.385 . S
C934 C935 1.388 . S
C935 H914 0.939 . S
C935 C930 1.391 . S
C935 C934 1.388 . S
P936 O947 1.490 1_455 S
P936 C950 1.816 1_455 S
P936 C956 1.800 . S
P936 C962 1.818 . S
H937 C951 0.941 . S
H938 C952 0.939 . S
H939 C954 0.940 . S
H940 C955 0.940 . S
H941 C957 0.939 . S
H942 C958 0.942 . S
H943 C960 0.940 . S
H944 C961 0.939 . S
H945 C963 0.941 . S
H946 C967 0.939 . S
O947 P936 1.490 1_655 S
H948 C964 0.939 . S
H949 C966 0.940 . S
C950 P936 1.816 1_655 S
C950 C951 1.389 . S
C950 C955 1.391 . S
C951 H937 0.941 . S
C951 C950 1.389 . S
C951 C952 1.397 . S
C952 H938 0.939 . S
C952 C951 1.397 . S
C952 C953 1.378 . S
C953 C952 1.378 . S
C953 C954 1.378 . S
C954 H939 0.940 . S
C954 C953 1.378 . S
C954 C955 1.396 . S
C955 H940 0.940 . S
C955 C950 1.391 . S
C955 C954 1.396 . S
C956 P936 1.800 . S
C956 C957 1.378 . S
C956 C961 1.400 . S
C957 H941 0.939 . S
C957 C956 1.378 . S
C957 C958 1.361 . S
C958 H942 0.942 . S
C958 C957 1.361 . S
C958 C959 1.369 . S
C959 C958 1.369 . S
C959 C960 1.404 . S
C960 H943 0.940 . S
C960 C959 1.404 . S
C960 C961 1.389 . S
C961 H944 0.939 . S
C961 C956 1.400 . S
C961 C960 1.389 . S
C962 P936 1.818 . S
C962 C963 1.384 1_455 S
C962 C967 1.399 . S
C963 H945 0.941 . S
C963 C962 1.384 1_655 S
C963 C964 1.396 . S
C964 H948 0.939 . S
C964 C963 1.396 . S
C964 C965 1.397 . S
C965 C964 1.397 . S
C965 C966 1.385 1_655 S
C966 H949 0.940 . S
C966 C965 1.385 1_455 S
C966 C967 1.388 . S
C967 H946 0.939 . S
C967 C962 1.399 . S
C967 C966 1.388 . S
P968 O979 1.490 . S
P968 C982 1.812 . S
P968 C988 1.803 . S
P968 C994 1.819 . S
H969 C983 0.941 . S
H970 C984 0.939 . S
H971 C986 0.940 . S
H972 C987 0.940 . S
H973 C989 0.939 . S
H974 C990 0.942 . S
H975 C992 0.940 . S
H976 C993 0.939 . S
H977 C995 0.941 . S
H978 C999 0.939 . S
O979 P968 1.490 . S
H980 C996 0.939 . S
H981 C998 0.940 . S
C982 P968 1.812 . S
C982 C983 1.389 . S
C982 C987 1.391 . S
C983 H969 0.941 . S
C983 C982 1.389 . S
C983 C984 1.397 . S
C984 H970 0.939 . S
C984 C983 1.397 . S
C984 C985 1.378 . S
C985 C984 1.378 . S
C985 C986 1.378 . S
C986 H971 0.940 . S
C986 C985 1.378 . S
C986 C987 1.396 . S
C987 H972 0.940 . S
C987 C982 1.391 . S
C987 C986 1.396 . S
C988 P968 1.803 . S
C988 C989 1.378 . S
C988 C993 1.400 . S
C989 H973 0.939 . S
C989 C988 1.378 . S
C989 C990 1.361 . S
C990 H974 0.942 . S
C990 C989 1.361 . S
C990 C991 1.369 . S
C991 C990 1.369 . S
C991 C992 1.404 . S
C992 H975 0.940 . S
C992 C991 1.404 . S
C992 C993 1.389 . S
C993 H976 0.939 . S
C993 C988 1.400 . S
C993 C992 1.389 . S
C994 P968 1.819 . S
C994 C995 1.391 . S
C994 C999 1.391 . S
C995 H977 0.941 . S
C995 C994 1.391 . S
C995 C996 1.396 . S
C996 H980 0.939 . S
C996 C995 1.396 . S
C996 C997 1.397 . S
C997 C996 1.397 . S
C997 C998 1.385 . S
C998 H981 0.940 . S
C998 C997 1.385 . S
C998 C999 1.388 . S
C999 H978 0.939 . S
C999 C994 1.391 . S
C999 C998 1.388 . S
P1000 O1011 1.491 . S
P1000 C1014 1.761 1_655 S
P1000 C1020 1.850 . S
P1000 C1026 1.821 . S
H1001 C1015 0.941 . S
H1002 C1016 0.939 . S
H1003 C1018 0.940 . S
H1004 C1019 0.940 . S
H1005 C1021 0.939 . S
H1006 C1022 0.942 . S
H1007 C1024 0.940 . S
H1008 C1025 0.939 . S
H1009 C1027 0.941 . S
H1010 C1031 0.939 . S
O1011 P1000 1.491 . S
H1012 C1028 0.939 . S
H1013 C1030 0.940 . S
C1014 P1000 1.761 1_455 S
C1014 C1015 1.389 . S
C1014 C1019 1.391 . S
C1015 H1001 0.941 . S
C1015 C1014 1.389 . S
C1015 C1016 1.397 . S
C1016 H1002 0.939 . S
C1016 C1015 1.397 . S
C1016 C1017 1.378 . S
C1017 C1016 1.378 . S
C1017 C1018 1.378 . S
C1018 H1003 0.940 . S
C1018 C1017 1.378 . S
C1018 C1019 1.396 . S
C1019 H1004 0.940 . S
C1019 C1014 1.391 . S
C1019 C1018 1.396 . S
C1020 P1000 1.850 . S
C1020 C1021 1.378 . S
C1020 C1025 1.400 . S
C1021 H1005 0.939 . S
C1021 C1020 1.378 . S
C1021 C1022 1.361 . S
C1022 H1006 0.942 . S
C1022 C1021 1.361 . S
C1022 C1023 1.369 . S
C1023 C1022 1.369 . S
C1023 C1024 1.404 . S
C1024 H1007 0.940 . S
C1024 C1023 1.404 . S
C1024 C1025 1.389 . S
C1025 H1008 0.939 . S
C1025 C1020 1.400 . S
C1025 C1024 1.389 . S
C1026 P1000 1.821 . S
C1026 C1027 1.391 1_655 S
C1026 C1031 1.391 . S
C1027 H1009 0.941 . S
C1027 C1026 1.391 1_455 S
C1027 C1028 1.396 . S
C1028 H1012 0.939 . S
C1028 C1027 1.396 . S
C1028 C1029 1.397 1_455 S
C1029 C1028 1.397 1_655 S
C1029 C1030 1.385 . S
C1030 H1013 0.940 . S
C1030 C1029 1.385 . S
C1030 C1031 1.388 . S
C1031 H1010 0.939 . S
C1031 C1026 1.391 . S
C1031 C1030 1.388 . S
H1032 C1040 0.950 . S
H1033 C1045 0.950 . S
H1034 C1042 0.950 . S
H1035 C1044 0.950 . S
H1036 C1046 0.950 . S
H1037 C1048 0.950 . S
H1038 C1050 0.950 . S
H1039 C1051 0.950 . S
C1040 H1032 0.950 . S
C1040 C1041 1.386 . S
C1040 C1042 1.391 . S
C1041 C1040 1.386 . S
C1041 C1045 1.393 . S
C1042 H1034 0.950 . S
C1042 C1040 1.391 . S
C1042 C1043 1.400 . S
C1043 C1042 1.400 . S
C1043 C1044 1.398 . S
C1043 C1049 1.491 . S
C1044 H1035 0.950 . S
C1044 C1043 1.398 . S
C1044 C1045 1.391 . S
C1045 H1033 0.950 . S
C1045 C1041 1.393 . S
C1045 C1044 1.391 . S
C1046 H1036 0.950 . S
C1046 C1047 1.386 . S
C1046 C1048 1.391 . S
C1047 C1046 1.386 . S
C1047 C1051 1.393 . S
C1048 H1037 0.950 . S
C1048 C1046 1.391 . S
C1048 C1049 1.400 . S
C1049 C1043 1.491 . S
C1049 C1048 1.400 . S
C1049 C1050 1.398 . S
C1050 H1038 0.950 . S
C1050 C1049 1.398 . S
C1050 C1051 1.391 . S
C1051 H1039 0.950 . S
C1051 C1047 1.393 . S
C1051 C1050 1.391 . S
H1052 C1060 0.950 . S
H1053 C1065 0.950 . S
H1054 C1062 0.950 . S
H1055 C1064 0.950 . S
H1056 C1066 0.950 . S
H1057 C1068 0.950 . S
H1058 C1070 0.950 . S
H1059 C1071 0.950 . S
C1060 H1052 0.950 . S
C1060 C1061 1.386 . S
C1060 C1062 1.391 . S
C1061 C1060 1.386 . S
C1061 C1065 1.393 . S
C1062 H1054 0.950 . S
C1062 C1060 1.391 . S
C1062 C1063 1.400 . S
C1063 C1062 1.400 . S
C1063 C1064 1.398 . S
C1063 C1069 1.491 . S
C1064 H1055 0.950 . S
C1064 C1063 1.398 . S
C1064 C1065 1.391 . S
C1065 H1053 0.950 . S
C1065 C1061 1.393 . S
C1065 C1064 1.391 . S
C1066 H1056 0.950 . S
C1066 C1067 1.386 . S
C1066 C1068 1.391 . S
C1067 C1066 1.386 . S
C1067 C1071 1.393 . S
C1068 H1057 0.950 . S
C1068 C1066 1.391 . S
C1068 C1069 1.400 . S
C1069 C1063 1.491 . S
C1069 C1068 1.400 . S
C1069 C1070 1.398 . S
C1070 H1058 0.950 . S
C1070 C1069 1.398 . S
C1070 C1071 1.391 . S
C1071 H1059 0.950 . S
C1071 C1067 1.393 . S
C1071 C1070 1.391 . S
H1072 C1080 0.950 1_565 S
H1073 C1085 0.950 . S
H1074 C1082 0.950 . S
H1075 C1084 0.950 . S
H1076 C1086 0.950 . S
H1077 C1088 0.950 . S
H1078 C1090 0.950 . S
H1079 C1091 0.950 . S
C1080 H1072 0.950 1_545 S
C1080 C1081 1.386 . S
C1080 C1082 1.391 . S
C1081 C1080 1.386 . S
C1081 C1085 1.393 . S
C1082 H1074 0.950 . S
C1082 C1080 1.391 . S
C1082 C1083 1.400 . S
C1083 C1082 1.400 . S
C1083 C1084 1.398 . S
C1083 C1089 1.491 . S
C1084 H1075 0.950 . S
C1084 C1083 1.398 . S
C1084 C1085 1.391 . S
C1085 H1073 0.950 . S
C1085 C1081 1.393 . S
C1085 C1084 1.391 . S
C1086 H1076 0.950 . S
C1086 C1087 1.386 . S
C1086 C1088 1.391 . S
C1087 C1086 1.386 . S
C1087 C1091 1.393 . S
C1088 H1077 0.950 . S
C1088 C1086 1.391 . S
C1088 C1089 1.400 . S
C1089 C1083 1.491 . S
C1089 C1088 1.400 . S
C1089 C1090 1.398 . S
C1090 H1078 0.950 . S
C1090 C1089 1.398 . S
C1090 C1091 1.391 . S
C1091 H1079 0.950 . S
C1091 C1087 1.393 . S
C1091 C1090 1.391 . S
H1092 C1100 0.950 . S
H1093 C1105 0.950 1_545 S
H1094 C1102 0.950 . S
H1095 C1104 0.949 1_545 S
H1096 C1106 0.950 . S
H1097 C1108 0.950 . S
H1098 C1110 0.950 . S
H1099 C1111 0.950 . S
C1100 H1092 0.950 . S
C1100 C1101 1.386 . S
C1100 C1102 1.391 . S
C1101 C1100 1.386 . S
C1101 C1105 1.393 . S
C1102 H1094 0.950 . S
C1102 C1100 1.391 . S
C1102 C1103 1.400 . S
C1103 C1102 1.400 . S
C1103 C1104 1.398 . S
C1103 C1109 1.491 . S
C1104 H1095 0.949 1_565 S
C1104 C1103 1.398 . S
C1104 C1105 1.391 . S
C1105 H1093 0.950 1_565 S
C1105 C1101 1.393 . S
C1105 C1104 1.391 . S
C1106 H1096 0.950 . S
C1106 C1107 1.386 . S
C1106 C1108 1.391 . S
C1107 C1106 1.386 . S
C1107 C1111 1.393 . S
C1108 H1097 0.950 . S
C1108 C1106 1.391 . S
C1108 C1109 1.400 . S
C1109 C1103 1.491 . S
C1109 C1108 1.400 . S
C1109 C1110 1.398 . S
C1110 H1098 0.950 . S
C1110 C1109 1.398 . S
C1110 C1111 1.391 . S
C1111 H1099 0.950 . S
C1111 C1107 1.393 . S
C1111 C1110 1.391 . S
H1112 C1120 0.950 . S
H1113 C1125 0.950 . S
H1114 C1122 0.950 . S
H1115 C1124 0.950 . S
H1116 C1126 0.950 . S
H1117 C1128 0.950 . S
H1118 C1130 0.950 . S
H1119 C1131 0.950 . S
C1120 H1112 0.950 . S
C1120 C1121 1.386 . S
C1120 C1122 1.391 . S
C1121 C1120 1.386 . S
C1121 C1125 1.393 . S
C1122 H1114 0.950 . S
C1122 C1120 1.391 . S
C1122 C1123 1.400 . S
C1123 C1122 1.400 . S
C1123 C1124 1.398 . S
C1123 C1129 1.491 . S
C1124 H1115 0.950 . S
C1124 C1123 1.398 . S
C1124 C1125 1.391 . S
C1125 H1113 0.950 . S
C1125 C1121 1.393 . S
C1125 C1124 1.391 . S
C1126 H1116 0.950 . S
C1126 C1127 1.386 . S
C1126 C1128 1.391 . S
C1127 C1126 1.386 . S
C1127 C1131 1.393 . S
C1128 H1117 0.950 . S
C1128 C1126 1.391 . S
C1128 C1129 1.400 . S
C1129 C1123 1.491 . S
C1129 C1128 1.400 . S
C1129 C1130 1.398 . S
C1130 H1118 0.950 . S
C1130 C1129 1.398 . S
C1130 C1131 1.391 . S
C1131 H1119 0.950 . S
C1131 C1127 1.393 . S
C1131 C1130 1.391 . S
H1132 C1140 0.950 . S
H1133 C1145 0.950 . S
H1134 C1142 0.950 . S
H1135 C1144 0.950 . S
H1136 C1146 0.950 . S
H1137 C1148 0.950 . S
H1138 C1150 0.950 . S
H1139 C1151 0.950 . S
C1140 H1132 0.950 . S
C1140 C1141 1.386 . S
C1140 C1142 1.391 . S
C1141 C1140 1.386 . S
C1141 C1145 1.393 . S
C1142 H1134 0.950 . S
C1142 C1140 1.391 . S
C1142 C1143 1.400 . S
C1143 C1142 1.400 . S
C1143 C1144 1.398 . S
C1143 C1149 1.491 . S
C1144 H1135 0.950 . S
C1144 C1143 1.398 . S
C1144 C1145 1.391 . S
C1145 H1133 0.950 . S
C1145 C1141 1.393 . S
C1145 C1144 1.391 . S
C1146 H1136 0.950 . S
C1146 C1147 1.386 . S
C1146 C1148 1.391 . S
C1147 C1146 1.386 . S
C1147 C1151 1.393 . S
C1148 H1137 0.950 . S
C1148 C1146 1.391 . S
C1148 C1149 1.400 . S
C1149 C1143 1.491 . S
C1149 C1148 1.400 . S
C1149 C1150 1.398 . S
C1150 H1138 0.950 . S
C1150 C1149 1.398 . S
C1150 C1151 1.391 . S
C1151 H1139 0.950 . S
C1151 C1147 1.393 . S
C1151 C1150 1.391 . S
H1152 C1160 0.950 . S
H1153 C1165 0.950 . S
H1154 C1162 0.950 . S
H1155 C1164 0.950 . S
H1156 C1166 0.950 . S
H1157 C1168 0.950 . S
H1158 C1170 0.950 . S
H1159 C1171 0.950 . S
C1160 H1152 0.950 . S
C1160 C1161 1.386 . S
C1160 C1162 1.391 . S
C1161 C1160 1.386 . S
C1161 C1165 1.393 . S
C1162 H1154 0.950 . S
C1162 C1160 1.391 . S
C1162 C1163 1.400 . S
C1163 C1162 1.400 . S
C1163 C1164 1.398 . S
C1163 C1169 1.491 . S
C1164 H1155 0.950 . S
C1164 C1163 1.398 . S
C1164 C1165 1.391 . S
C1165 H1153 0.950 . S
C1165 C1161 1.393 . S
C1165 C1164 1.391 . S
C1166 H1156 0.950 . S
C1166 C1167 1.386 . S
C1166 C1168 1.391 . S
C1167 C1166 1.386 . S
C1167 C1171 1.393 . S
C1168 H1157 0.950 . S
C1168 C1166 1.391 . S
C1168 C1169 1.400 . S
C1169 C1163 1.491 . S
C1169 C1168 1.400 . S
C1169 C1170 1.398 . S
C1170 H1158 0.950 . S
C1170 C1169 1.398 . S
C1170 C1171 1.391 . S
C1171 H1159 0.950 . S
C1171 C1167 1.393 . S
C1171 C1170 1.391 . S
H1172 C1180 0.949 1_556 S
H1173 C1185 0.950 . S
H1174 C1182 0.932 1_556 S
H1175 C1184 0.950 . S
H1176 C1186 0.950 . S
H1177 C1188 0.950 . S
H1178 C1190 0.950 . S
H1179 C1191 0.950 . S
C1180 H1172 0.949 1_554 S
C1180 C1181 1.386 . S
C1180 C1182 1.391 . S
C1181 C1180 1.386 . S
C1181 C1185 1.393 . S
C1182 H1174 0.932 1_554 S
C1182 C1180 1.391 . S
C1182 C1183 1.400 . S
C1183 C1182 1.400 . S
C1183 C1184 1.398 . S
C1183 C1189 1.491 . S
C1184 H1175 0.950 . S
C1184 C1183 1.398 . S
C1184 C1185 1.391 . S
C1185 H1173 0.950 . S
C1185 C1181 1.393 . S
C1185 C1184 1.391 . S
C1186 H1176 0.950 . S
C1186 C1187 1.386 . S
C1186 C1188 1.391 . S
C1187 C1186 1.386 . S
C1187 C1191 1.393 . S
C1188 H1177 0.950 . S
C1188 C1186 1.391 . S
C1188 C1189 1.400 . S
C1189 C1183 1.491 . S
C1189 C1188 1.400 . S
C1189 C1190 1.398 . S
C1190 H1178 0.950 . S
C1190 C1189 1.398 . S
C1190 C1191 1.391 . S
C1191 H1179 0.950 . S
C1191 C1187 1.393 . S
C1191 C1190 1.391 . S
H1192 C1200 0.950 . S
H1193 C1205 0.950 . S
H1194 C1202 0.950 . S
H1195 C1204 0.950 . S
H1196 C1206 0.950 . S
H1197 C1208 0.950 . S
H1198 C1210 0.950 . S
H1199 C1211 0.950 . S
C1200 H1192 0.950 . S
C1200 C1201 1.386 . S
C1200 C1202 1.391 . S
C1201 C1200 1.386 . S
C1201 C1205 1.393 . S
C1202 H1194 0.950 . S
C1202 C1200 1.391 . S
C1202 C1203 1.400 . S
C1203 C1202 1.400 . S
C1203 C1204 1.398 . S
C1203 C1209 1.491 . S
C1204 H1195 0.950 . S
C1204 C1203 1.398 . S
C1204 C1205 1.391 . S
C1205 H1193 0.950 . S
C1205 C1201 1.393 . S
C1205 C1204 1.391 . S
C1206 H1196 0.950 . S
C1206 C1207 1.386 . S
C1206 C1208 1.391 . S
C1207 C1206 1.386 . S
C1207 C1211 1.393 . S
C1208 H1197 0.950 . S
C1208 C1206 1.391 . S
C1208 C1209 1.400 . S
C1209 C1203 1.491 . S
C1209 C1208 1.400 . S
C1209 C1210 1.398 . S
C1210 H1198 0.950 . S
C1210 C1209 1.398 . S
C1210 C1211 1.391 . S
C1211 H1199 0.950 . S
C1211 C1207 1.393 . S
C1211 C1210 1.391 . S
H1212 C1220 0.950 . S
H1213 C1225 0.950 . S
H1214 C1222 0.950 1_455 S
H1215 C1224 0.950 . S
H1216 C1226 0.950 . S
H1217 C1228 0.950 . S
H1218 C1230 0.950 . S
H1219 C1231 0.950 . S
C1220 H1212 0.950 . S
C1220 C1221 1.386 1_455 S
C1220 C1222 1.391 1_455 S
C1221 C1220 1.386 1_655 S
C1221 C1225 1.393 . S
C1222 H1214 0.950 1_655 S
C1222 C1220 1.391 1_655 S
C1222 C1223 1.400 . S
C1223 C1222 1.400 . S
C1223 C1224 1.398 . S
C1223 C1229 1.491 . S
C1224 H1215 0.950 . S
C1224 C1223 1.398 . S
C1224 C1225 1.391 . S
C1225 H1213 0.950 . S
C1225 C1221 1.393 . S
C1225 C1224 1.391 . S
C1226 H1216 0.950 . S
C1226 C1227 1.386 . S
C1226 C1228 1.391 . S
C1227 C1226 1.386 . S
C1227 C1231 1.393 . S
C1228 H1217 0.950 . S
C1228 C1226 1.391 . S
C1228 C1229 1.400 . S
C1229 C1223 1.491 . S
C1229 C1228 1.400 . S
C1229 C1230 1.398 . S
C1230 H1218 0.950 . S
C1230 C1229 1.398 . S
C1230 C1231 1.391 . S
C1231 H1219 0.950 . S
C1231 C1227 1.393 . S
C1231 C1230 1.391 . S
H1232 C1240 0.950 . S
H1233 C1245 0.950 . S
H1234 C1242 0.950 . S
H1235 C1244 0.950 . S
H1236 C1246 0.950 . S
H1237 C1248 0.950 . S
H1238 C1250 0.950 . S
H1239 C1251 0.950 . S
C1240 H1232 0.950 . S
C1240 C1241 1.386 . S
C1240 C1242 1.391 . S
C1241 C1240 1.386 . S
C1241 C1245 1.393 . S
C1242 H1234 0.950 . S
C1242 C1240 1.391 . S
C1242 C1243 1.400 . S
C1243 C1242 1.400 . S
C1243 C1244 1.398 . S
C1243 C1249 1.491 . S
C1244 H1235 0.950 . S
C1244 C1243 1.398 . S
C1244 C1245 1.391 . S
C1245 H1233 0.950 . S
C1245 C1241 1.393 . S
C1245 C1244 1.391 . S
C1246 H1236 0.950 . S
C1246 C1247 1.386 . S
C1246 C1248 1.391 . S
C1247 C1246 1.386 . S
C1247 C1251 1.393 . S
C1248 H1237 0.950 . S
C1248 C1246 1.391 . S
C1248 C1249 1.400 . S
C1249 C1243 1.491 . S
C1249 C1248 1.400 . S
C1249 C1250 1.398 . S
C1250 H1238 0.950 . S
C1250 C1249 1.398 . S
C1250 C1251 1.391 . S
C1251 H1239 0.950 . S
C1251 C1247 1.393 . S
C1251 C1250 1.391 . S
H1252 C1260 0.950 . S
H1253 C1265 0.950 1_655 S
H1254 C1262 0.950 . S
H1255 C1264 0.950 . S
H1256 C1266 0.950 . S
H1257 C1268 0.950 . S
H1258 C1270 0.950 . S
H1259 C1271 0.950 . S
C1260 H1252 0.950 . S
C1260 C1261 1.386 . S
C1260 C1262 1.391 . S
C1261 C1260 1.386 . S
C1261 C1265 1.393 . S
C1262 H1254 0.950 . S
C1262 C1260 1.391 . S
C1262 C1263 1.400 . S
C1263 C1262 1.400 . S
C1263 C1264 1.398 . S
C1263 C1269 1.491 . S
C1264 H1255 0.950 . S
C1264 C1263 1.398 . S
C1264 C1265 1.391 . S
C1265 H1253 0.950 1_455 S
C1265 C1261 1.393 . S
C1265 C1264 1.391 . S
C1266 H1256 0.950 . S
C1266 C1267 1.386 . S
C1266 C1268 1.391 . S
C1267 C1266 1.386 . S
C1267 C1271 1.393 . S
C1268 H1257 0.950 . S
C1268 C1266 1.391 . S
C1268 C1269 1.400 . S
C1269 C1263 1.491 . S
C1269 C1268 1.400 . S
C1269 C1270 1.398 . S
C1270 H1258 0.950 . S
C1270 C1269 1.398 . S
C1270 C1271 1.391 . S
C1271 H1259 0.950 . S
C1271 C1267 1.393 . S
C1271 C1270 1.391 . S
H1272 C1280 0.950 . S
H1273 C1285 0.950 . S
H1274 C1282 0.950 . S
H1275 C1284 0.950 . S
H1276 C1286 0.950 . S
H1277 C1288 0.950 . S
H1278 C1290 0.950 . S
H1279 C1291 0.950 . S
C1280 H1272 0.950 . S
C1280 C1281 1.386 . S
C1280 C1282 1.391 . S
C1281 C1280 1.386 . S
C1281 C1285 1.393 . S
C1282 H1274 0.950 . S
C1282 C1280 1.391 . S
C1282 C1283 1.400 . S
C1283 C1282 1.400 . S
C1283 C1284 1.398 . S
C1283 C1289 1.491 . S
C1284 H1275 0.950 . S
C1284 C1283 1.398 . S
C1284 C1285 1.391 . S
C1285 H1273 0.950 . S
C1285 C1281 1.393 . S
C1285 C1284 1.391 . S
C1286 H1276 0.950 . S
C1286 C1287 1.386 . S
C1286 C1288 1.391 . S
C1287 C1286 1.386 . S
C1287 C1291 1.393 . S
C1288 H1277 0.950 . S
C1288 C1286 1.391 . S
C1288 C1289 1.400 . S
C1289 C1283 1.491 . S
C1289 C1288 1.400 . S
C1289 C1290 1.398 . S
C1290 H1278 0.950 . S
C1290 C1289 1.398 . S
C1290 C1291 1.391 . S
C1291 H1279 0.950 . S
C1291 C1287 1.393 . S
C1291 C1290 1.391 . S
H1292 C1300 0.950 . S
H1293 C1305 0.950 . S
H1294 C1302 0.950 . S
H1295 C1304 0.950 . S
H1296 C1306 0.950 . S
H1297 C1308 0.950 . S
H1298 C1310 0.950 . S
H1299 C1311 0.950 . S
C1300 H1292 0.950 . S
C1300 C1301 1.386 . S
C1300 C1302 1.391 . S
C1301 C1300 1.386 . S
C1301 C1305 1.393 . S
C1302 H1294 0.950 . S
C1302 C1300 1.391 . S
C1302 C1303 1.400 . S
C1303 C1302 1.400 . S
C1303 C1304 1.398 . S
C1303 C1309 1.491 . S
C1304 H1295 0.950 . S
C1304 C1303 1.398 . S
C1304 C1305 1.391 . S
C1305 H1293 0.950 . S
C1305 C1301 1.393 . S
C1305 C1304 1.391 . S
C1306 H1296 0.950 . S
C1306 C1307 1.386 . S
C1306 C1308 1.391 . S
C1307 C1306 1.386 . S
C1307 C1311 1.393 . S
C1308 H1297 0.950 . S
C1308 C1306 1.391 . S
C1308 C1309 1.400 . S
C1309 C1303 1.491 . S
C1309 C1308 1.400 . S
C1309 C1310 1.398 . S
C1310 H1298 0.950 . S
C1310 C1309 1.398 . S
C1310 C1311 1.391 . S
C1311 H1299 0.950 . S
C1311 C1307 1.393 . S
C1311 C1310 1.391 . S
H1312 C1320 0.950 . S
H1313 C1325 0.950 1_545 S
H1314 C1322 0.950 . S
H1315 C1324 0.950 . S
H1316 C1326 0.950 . S
H1317 C1328 0.950 . S
H1318 C1330 0.950 . S
H1319 C1331 0.950 . S
C1320 H1312 0.950 . S
C1320 C1321 1.386 . S
C1320 C1322 1.391 . S
C1321 C1320 1.386 . S
C1321 C1325 1.393 . S
C1322 H1314 0.950 . S
C1322 C1320 1.391 . S
C1322 C1323 1.400 . S
C1323 C1322 1.400 . S
C1323 C1324 1.398 . S
C1323 C1329 1.491 . S
C1324 H1315 0.950 . S
C1324 C1323 1.398 . S
C1324 C1325 1.391 . S
C1325 H1313 0.950 1_565 S
C1325 C1321 1.393 . S
C1325 C1324 1.391 . S
C1326 H1316 0.950 . S
C1326 C1327 1.386 . S
C1326 C1328 1.391 . S
C1327 C1326 1.386 . S
C1327 C1331 1.393 . S
C1328 H1317 0.950 . S
C1328 C1326 1.391 . S
C1328 C1329 1.400 . S
C1329 C1323 1.491 . S
C1329 C1328 1.400 . S
C1329 C1330 1.398 . S
C1330 H1318 0.950 . S
C1330 C1329 1.398 . S
C1330 C1331 1.391 . S
C1331 H1319 0.950 . S
C1331 C1327 1.393 . S
C1331 C1330 1.391 . S
H1332 C1340 0.950 . S
H1333 C1345 0.950 . S
H1334 C1342 0.950 . S
H1335 C1344 0.950 . S
H1336 C1346 0.950 . S
H1337 C1348 0.950 . S
H1338 C1350 0.950 . S
H1339 C1351 0.950 . S
C1340 H1332 0.950 . S
C1340 C1341 1.386 . S
C1340 C1342 1.391 . S
C1341 C1340 1.386 . S
C1341 C1345 1.393 . S
C1342 H1334 0.950 . S
C1342 C1340 1.391 . S
C1342 C1343 1.400 . S
C1343 C1342 1.400 . S
C1343 C1344 1.398 . S
C1343 C1349 1.491 . S
C1344 H1335 0.950 . S
C1344 C1343 1.398 . S
C1344 C1345 1.391 . S
C1345 H1333 0.950 . S
C1345 C1341 1.393 . S
C1345 C1344 1.391 . S
C1346 H1336 0.950 . S
C1346 C1347 1.386 . S
C1346 C1348 1.391 . S
C1347 C1346 1.386 . S
C1347 C1351 1.393 . S
C1348 H1337 0.950 . S
C1348 C1346 1.391 . S
C1348 C1349 1.400 . S
C1349 C1343 1.491 . S
C1349 C1348 1.400 . S
C1349 C1350 1.398 . S
C1350 H1338 0.950 . S
C1350 C1349 1.398 . S
C1350 C1351 1.391 . S
C1351 H1339 0.950 . S
C1351 C1347 1.393 . S
C1351 C1350 1.391 . S
H1352 C1360 0.950 . S
H1353 C1365 0.950 . S
H1354 C1362 0.950 . S
H1355 C1364 0.950 . S
H1356 C1366 0.950 . S
H1357 C1368 0.950 . S
H1358 C1370 0.950 . S
H1359 C1371 0.950 . S
C1360 H1352 0.950 . S
C1360 C1361 1.386 . S
C1360 C1362 1.391 . S
C1361 C1360 1.386 . S
C1361 C1365 1.393 . S
C1362 H1354 0.950 . S
C1362 C1360 1.391 . S
C1362 C1363 1.400 . S
C1363 C1362 1.400 . S
C1363 C1364 1.398 . S
C1363 C1369 1.491 . S
C1364 H1355 0.950 . S
C1364 C1363 1.398 . S
C1364 C1365 1.391 . S
C1365 H1353 0.950 . S
C1365 C1361 1.393 . S
C1365 C1364 1.391 . S
C1366 H1356 0.950 . S
C1366 C1367 1.386 . S
C1366 C1368 1.391 . S
C1367 C1366 1.386 . S
C1367 C1371 1.393 . S
C1368 H1357 0.950 . S
C1368 C1366 1.391 . S
C1368 C1369 1.400 . S
C1369 C1363 1.491 . S
C1369 C1368 1.400 . S
C1369 C1370 1.398 . S
C1370 H1358 0.950 . S
C1370 C1369 1.398 . S
C1370 C1371 1.391 . S
C1371 H1359 0.950 . S
C1371 C1367 1.393 . S
C1371 C1370 1.391 . S
H1372 C1380 0.950 . S
H1373 C1385 0.950 . S
H1374 C1382 0.950 1_556 S
H1375 C1384 0.950 . S
H1376 C1386 0.950 . S
H1377 C1388 0.950 . S
H1378 C1390 0.950 1_556 S
H1379 C1391 0.950 . S
C1380 H1372 0.950 . S
C1380 C1381 1.386 1_556 S
C1380 C1382 1.391 1_556 S
C1381 C1380 1.386 1_554 S
C1381 C1385 1.393 . S
C1382 H1374 0.950 1_554 S
C1382 C1380 1.391 1_554 S
C1382 C1383 1.400 . S
C1383 C1382 1.400 . S
C1383 C1384 1.398 . S
C1383 C1389 1.491 . S
C1384 H1375 0.950 . S
C1384 C1383 1.398 . S
C1384 C1385 1.391 . S
C1385 H1373 0.950 . S
C1385 C1381 1.393 . S
C1385 C1384 1.391 . S
C1386 H1376 0.950 . S
C1386 C1387 1.386 . S
C1386 C1388 1.391 . S
C1387 C1386 1.386 . S
C1387 C1391 1.393 . S
C1388 H1377 0.950 . S
C1388 C1386 1.391 . S
C1388 C1389 1.400 . S
C1389 C1383 1.491 . S
C1389 C1388 1.400 . S
C1389 C1390 1.398 . S
C1390 H1378 0.950 1_554 S
C1390 C1389 1.398 . S
C1390 C1391 1.391 . S
C1391 H1379 0.950 . S
C1391 C1387 1.393 . S
C1391 C1390 1.391 . S
H1392 C1400 0.950 . S
H1393 C1405 0.950 . S
H1394 C1402 0.950 . S
H1395 C1404 0.950 . S
H1396 C1406 0.950 . S
H1397 C1408 0.950 . S
H1398 C1410 0.950 . S
H1399 C1411 0.950 . S
C1400 H1392 0.950 . S
C1400 C1401 1.386 . S
C1400 C1402 1.391 . S
C1401 C1400 1.386 . S
C1401 C1405 1.393 . S
C1402 H1394 0.950 . S
C1402 C1400 1.391 . S
C1402 C1403 1.400 . S
C1403 C1402 1.400 . S
C1403 C1404 1.398 . S
C1403 C1409 1.491 . S
C1404 H1395 0.950 . S
C1404 C1403 1.398 . S
C1404 C1405 1.391 . S
C1405 H1393 0.950 . S
C1405 C1401 1.393 . S
C1405 C1404 1.391 . S
C1406 H1396 0.950 . S
C1406 C1407 1.386 . S
C1406 C1408 1.391 . S
C1407 C1406 1.386 . S
C1407 C1411 1.393 . S
C1408 H1397 0.950 . S
C1408 C1406 1.391 . S
C1408 C1409 1.400 . S
C1409 C1403 1.491 . S
C1409 C1408 1.400 . S
C1409 C1410 1.398 . S
C1410 H1398 0.950 . S
C1410 C1409 1.398 . S
C1410 C1411 1.391 . S
C1411 H1399 0.950 . S
C1411 C1407 1.393 . S
C1411 C1410 1.391 . S
H1412 C1420 0.950 . S
H1413 C1425 0.950 . S
H1414 C1422 0.950 . S
H1415 C1424 0.950 . S
H1416 C1426 0.950 . S
H1417 C1428 0.950 . S
H1418 C1430 0.950 . S
H1419 C1431 0.950 . S
C1420 H1412 0.950 . S
C1420 C1421 1.386 . S
C1420 C1422 1.391 . S
C1421 C1420 1.386 . S
C1421 C1425 1.393 . S
C1422 H1414 0.950 . S
C1422 C1420 1.391 . S
C1422 C1423 1.400 . S
C1423 C1422 1.400 . S
C1423 C1424 1.398 . S
C1423 C1429 1.491 . S
C1424 H1415 0.950 . S
C1424 C1423 1.398 . S
C1424 C1425 1.391 . S
C1425 H1413 0.950 . S
C1425 C1421 1.393 . S
C1425 C1424 1.391 . S
C1426 H1416 0.950 . S
C1426 C1427 1.386 . S
C1426 C1428 1.391 . S
C1427 C1426 1.386 . S
C1427 C1431 1.393 . S
C1428 H1417 0.950 . S
C1428 C1426 1.391 . S
C1428 C1429 1.400 . S
C1429 C1423 1.491 . S
C1429 C1428 1.400 . S
C1429 C1430 1.398 . S
C1430 H1418 0.950 . S
C1430 C1429 1.398 . S
C1430 C1431 1.391 . S
C1431 H1419 0.950 . S
C1431 C1427 1.393 . S
C1431 C1430 1.391 . S
H1432 C1440 0.950 . S
H1433 C1445 0.950 . S
H1434 C1442 0.950 . S
H1435 C1444 0.950 . S
H1436 C1446 0.950 . S
H1437 C1448 0.950 . S
H1438 C1450 0.950 . S
H1439 C1451 0.950 . S
C1440 H1432 0.950 . S
C1440 C1441 1.386 . S
C1440 C1442 1.391 . S
C1441 C1440 1.386 . S
C1441 C1445 1.393 . S
C1442 H1434 0.950 . S
C1442 C1440 1.391 . S
C1442 C1443 1.400 . S
C1443 C1442 1.400 . S
C1443 C1444 1.398 . S
C1443 C1449 1.491 . S
C1444 H1435 0.950 . S
C1444 C1443 1.398 . S
C1444 C1445 1.391 . S
C1445 H1433 0.950 . S
C1445 C1441 1.393 . S
C1445 C1444 1.391 . S
C1446 H1436 0.950 . S
C1446 C1447 1.386 . S
C1446 C1448 1.391 . S
C1447 C1446 1.386 . S
C1447 C1451 1.393 . S
C1448 H1437 0.950 . S
C1448 C1446 1.391 . S
C1448 C1449 1.400 . S
C1449 C1443 1.491 . S
C1449 C1448 1.400 . S
C1449 C1450 1.398 . S
C1450 H1438 0.950 . S
C1450 C1449 1.398 . S
C1450 C1451 1.391 . S
C1451 H1439 0.950 . S
C1451 C1447 1.393 . S
C1451 C1450 1.391 . S
H1452 C1460 0.950 . S
H1453 C1465 0.950 . S
H1454 C1462 0.950 1_655 S
H1455 C1464 0.950 . S
H1456 C1466 0.950 . S
H1457 C1468 0.950 . S
H1458 C1470 0.950 1_655 S
H1459 C1471 0.950 . S
C1460 H1452 0.950 . S
C1460 C1461 1.386 1_655 S
C1460 C1462 1.391 1_655 S
C1461 C1460 1.386 1_455 S
C1461 C1465 1.393 . S
C1462 H1454 0.950 1_455 S
C1462 C1460 1.391 1_455 S
C1462 C1463 1.400 . S
C1463 C1462 1.400 . S
C1463 C1464 1.398 . S
C1463 C1469 1.491 . S
C1464 H1455 0.950 . S
C1464 C1463 1.398 . S
C1464 C1465 1.391 . S
C1465 H1453 0.950 . S
C1465 C1461 1.393 . S
C1465 C1464 1.391 . S
C1466 H1456 0.950 . S
C1466 C1467 1.386 . S
C1466 C1468 1.391 . S
C1467 C1466 1.386 . S
C1467 C1471 1.393 . S
C1468 H1457 0.950 . S
C1468 C1466 1.391 . S
C1468 C1469 1.400 . S
C1469 C1463 1.491 . S
C1469 C1468 1.400 . S
C1469 C1470 1.398 . S
C1470 H1458 0.950 1_455 S
C1470 C1469 1.398 . S
C1470 C1471 1.391 . S
C1471 H1459 0.950 . S
C1471 C1467 1.393 . S
C1471 C1470 1.391 . S
H1472 C1480 0.950 . S
H1473 C1485 0.950 . S
H1474 C1482 0.950 . S
H1475 C1484 0.950 . S
H1476 C1486 0.950 . S
H1477 C1488 0.950 . S
H1478 C1490 0.950 . S
H1479 C1491 0.950 . S
C1480 H1472 0.950 . S
C1480 C1481 1.386 . S
C1480 C1482 1.391 . S
C1481 C1480 1.386 . S
C1481 C1485 1.393 . S
C1482 H1474 0.950 . S
C1482 C1480 1.391 . S
C1482 C1483 1.400 . S
C1483 C1482 1.400 . S
C1483 C1484 1.398 . S
C1483 C1489 1.491 . S
C1484 H1475 0.950 . S
C1484 C1483 1.398 . S
C1484 C1485 1.391 . S
C1485 H1473 0.950 . S
C1485 C1481 1.393 . S
C1485 C1484 1.391 . S
C1486 H1476 0.950 . S
C1486 C1487 1.386 . S
C1486 C1488 1.391 . S
C1487 C1486 1.386 . S
C1487 C1491 1.393 . S
C1488 H1477 0.950 . S
C1488 C1486 1.391 . S
C1488 C1489 1.400 . S
C1489 C1483 1.491 . S
C1489 C1488 1.400 . S
C1489 C1490 1.398 . S
C1490 H1478 0.950 . S
C1490 C1489 1.398 . S
C1490 C1491 1.391 . S
C1491 H1479 0.950 . S
C1491 C1487 1.393 . S
C1491 C1490 1.391 . S
H1492 C1500 0.950 . S
H1493 C1505 0.950 . S
H1494 C1502 0.950 . S
H1495 C1504 0.950 . S
H1496 C1506 0.950 . S
H1497 C1508 0.950 1_455 S
H1498 C1510 0.950 . S
H1499 C1511 0.950 . S
C1500 H1492 0.950 . S
C1500 C1501 1.386 . S
C1500 C1502 1.391 . S
C1501 C1500 1.386 . S
C1501 C1505 1.393 1_655 S
C1502 H1494 0.950 . S
C1502 C1500 1.391 . S
C1502 C1503 1.400 . S
C1503 C1502 1.400 . S
C1503 C1504 1.398 1_655 S
C1503 C1509 1.491 . S
C1504 H1495 0.950 . S
C1504 C1503 1.398 1_455 S
C1504 C1505 1.391 . S
C1505 H1493 0.950 . S
C1505 C1501 1.393 1_455 S
C1505 C1504 1.391 . S
C1506 H1496 0.950 . S
C1506 C1507 1.386 . S
C1506 C1508 1.391 . S
C1507 C1506 1.386 . S
C1507 C1511 1.393 . S
C1508 H1497 0.950 1_655 S
C1508 C1506 1.391 . S
C1508 C1509 1.400 . S
C1509 C1503 1.491 . S
C1509 C1508 1.400 . S
C1509 C1510 1.398 . S
C1510 H1498 0.950 . S
C1510 C1509 1.398 . S
C1510 C1511 1.391 . S
C1511 H1499 0.950 . S
C1511 C1507 1.393 . S
C1511 C1510 1.391 . S
H1512 C1520 0.950 . S
H1513 C1525 0.950 . S
H1514 C1522 0.950 . S
H1515 C1524 0.950 . S
H1516 C1526 0.950 . S
H1517 C1528 0.950 . S
H1518 C1530 0.950 . S
H1519 C1531 0.950 . S
C1520 H1512 0.950 . S
C1520 C1521 1.386 . S
C1520 C1522 1.391 . S
C1521 C1520 1.386 . S
C1521 C1525 1.393 . S
C1522 H1514 0.950 . S
C1522 C1520 1.391 . S
C1522 C1523 1.400 . S
C1523 C1522 1.400 . S
C1523 C1524 1.398 . S
C1523 C1529 1.491 . S
C1524 H1515 0.950 . S
C1524 C1523 1.398 . S
C1524 C1525 1.391 . S
C1525 H1513 0.950 . S
C1525 C1521 1.393 . S
C1525 C1524 1.391 . S
C1526 H1516 0.950 . S
C1526 C1527 1.386 . S
C1526 C1528 1.391 . S
C1527 C1526 1.386 . S
C1527 C1531 1.393 . S
C1528 H1517 0.950 . S
C1528 C1526 1.391 . S
C1528 C1529 1.400 . S
C1529 C1523 1.491 . S
C1529 C1528 1.400 . S
C1529 C1530 1.398 . S
C1530 H1518 0.950 . S
C1530 C1529 1.398 . S
C1530 C1531 1.391 . S
C1531 H1519 0.950 . S
C1531 C1527 1.393 . S
C1531 C1530 1.391 . S
H1532 C1540 0.950 . S
H1533 C1545 0.950 . S
H1534 C1542 0.950 . S
H1535 C1544 0.950 . S
H1536 C1546 0.950 . S
H1537 C1548 0.950 . S
H1538 C1550 0.950 . S
H1539 C1551 0.950 . S
C1540 H1532 0.950 . S
C1540 C1541 1.386 . S
C1540 C1542 1.391 . S
C1541 C1540 1.386 . S
C1541 C1545 1.393 . S
C1542 H1534 0.950 . S
C1542 C1540 1.391 . S
C1542 C1543 1.400 . S
C1543 C1542 1.400 . S
C1543 C1544 1.398 . S
C1543 C1549 1.491 . S
C1544 H1535 0.950 . S
C1544 C1543 1.398 . S
C1544 C1545 1.391 . S
C1545 H1533 0.950 . S
C1545 C1541 1.393 . S
C1545 C1544 1.391 . S
C1546 H1536 0.950 . S
C1546 C1547 1.386 . S
C1546 C1548 1.391 . S
C1547 C1546 1.386 . S
C1547 C1551 1.393 . S
C1548 H1537 0.950 . S
C1548 C1546 1.391 . S
C1548 C1549 1.400 . S
C1549 C1543 1.491 . S
C1549 C1548 1.400 . S
C1549 C1550 1.398 . S
C1550 H1538 0.950 . S
C1550 C1549 1.398 . S
C1550 C1551 1.391 . S
C1551 H1539 0.950 . S
C1551 C1547 1.393 . S
C1551 C1550 1.391 . S
H1552 C1560 0.950 . S
H1553 C1565 0.950 . S
H1554 C1562 0.950 . S
H1555 C1564 0.950 . S
H1556 C1566 0.950 . S
H1557 C1568 0.950 . S
H1558 C1570 0.950 . S
H1559 C1571 0.950 . S
C1560 H1552 0.950 . S
C1560 C1561 1.386 . S
C1560 C1562 1.391 . S
C1561 C1560 1.386 . S
C1561 C1565 1.393 1_565 S
C1562 H1554 0.950 . S
C1562 C1560 1.391 . S
C1562 C1563 1.400 . S
C1563 C1562 1.400 . S
C1563 C1564 1.398 1_565 S
C1563 C1569 1.491 . S
C1564 H1555 0.950 . S
C1564 C1563 1.398 1_545 S
C1564 C1565 1.391 . S
C1565 H1553 0.950 . S
C1565 C1561 1.393 1_545 S
C1565 C1564 1.391 . S
C1566 H1556 0.950 . S
C1566 C1567 1.386 . S
C1566 C1568 1.391 . S
C1567 C1566 1.386 . S
C1567 C1571 1.393 1_545 S
C1568 H1557 0.950 . S
C1568 C1566 1.391 . S
C1568 C1569 1.400 1_545 S
C1569 C1563 1.491 . S
C1569 C1568 1.400 1_565 S
C1569 C1570 1.398 . S
C1570 H1558 0.950 . S
C1570 C1569 1.398 . S
C1570 C1571 1.391 . S
C1571 H1559 0.950 . S
C1571 C1567 1.393 1_565 S
C1571 C1570 1.391 . S
H1572 C1580 0.950 . S
H1573 C1585 0.950 . S
H1574 C1582 0.950 . S
H1575 C1584 0.950 . S
H1576 C1586 0.950 . S
H1577 C1588 0.950 . S
H1578 C1590 0.950 . S
H1579 C1591 0.950 . S
C1580 H1572 0.950 . S
C1580 C1581 1.386 1_565 S
C1580 C1582 1.391 . S
C1581 C1580 1.386 1_545 S
C1581 C1585 1.393 . S
C1582 H1574 0.950 . S
C1582 C1580 1.391 . S
C1582 C1583 1.400 1_565 S
C1583 C1582 1.400 1_545 S
C1583 C1584 1.398 . S
C1583 C1589 1.491 . S
C1584 H1575 0.950 . S
C1584 C1583 1.398 . S
C1584 C1585 1.391 . S
C1585 H1573 0.950 . S
C1585 C1581 1.393 . S
C1585 C1584 1.391 . S
C1586 H1576 0.950 . S
C1586 C1587 1.386 . S
C1586 C1588 1.391 . S
C1587 C1586 1.386 . S
C1587 C1591 1.393 1_545 S
C1588 H1577 0.950 . S
C1588 C1586 1.391 . S
C1588 C1589 1.400 . S
C1589 C1583 1.491 . S
C1589 C1588 1.400 . S
C1589 C1590 1.398 1_545 S
C1590 H1578 0.950 . S
C1590 C1589 1.398 1_565 S
C1590 C1591 1.391 . S
C1591 H1579 0.950 . S
C1591 C1587 1.393 1_565 S
C1591 C1590 1.391 . S
H1592 C1600 0.950 . S
H1593 C1605 0.950 . S
H1594 C1602 0.950 . S
H1595 C1604 0.950 . S
H1596 C1606 0.950 . S
H1597 C1608 0.950 . S
H1598 C1610 0.950 . S
H1599 C1611 0.950 . S
C1600 H1592 0.950 . S
C1600 C1601 1.386 . S
C1600 C1602 1.391 . S
C1601 C1600 1.386 . S
C1601 C1605 1.393 . S
C1602 H1594 0.950 . S
C1602 C1600 1.391 . S
C1602 C1603 1.400 . S
C1603 C1602 1.400 . S
C1603 C1604 1.398 . S
C1603 C1609 1.491 . S
C1604 H1595 0.950 . S
C1604 C1603 1.398 . S
C1604 C1605 1.391 . S
C1605 H1593 0.950 . S
C1605 C1601 1.393 . S
C1605 C1604 1.391 . S
C1606 H1596 0.950 . S
C1606 C1607 1.386 . S
C1606 C1608 1.391 . S
C1607 C1606 1.386 . S
C1607 C1611 1.393 . S
C1608 H1597 0.950 . S
C1608 C1606 1.391 . S
C1608 C1609 1.400 . S
C1609 C1603 1.491 . S
C1609 C1608 1.400 . S
C1609 C1610 1.398 . S
C1610 H1598 0.950 . S
C1610 C1609 1.398 . S
C1610 C1611 1.391 . S
C1611 H1599 0.950 . S
C1611 C1607 1.393 . S
C1611 C1610 1.391 . S
H1612 C1620 0.950 1_556 S
H1613 C1625 0.950 . S
H1614 C1622 0.950 1_556 S
H1615 C1624 0.950 . S
H1616 C1626 0.950 . S
H1617 C1628 0.950 . S
H1618 C1630 0.950 . S
H1619 C1631 0.950 . S
C1620 H1612 0.950 1_554 S
C1620 C1621 1.386 . S
C1620 C1622 1.391 . S
C1621 C1620 1.386 . S
C1621 C1625 1.393 . S
C1622 H1614 0.950 1_554 S
C1622 C1620 1.391 . S
C1622 C1623 1.400 . S
C1623 C1622 1.400 . S
C1623 C1624 1.398 . S
C1623 C1629 1.491 . S
C1624 H1615 0.950 . S
C1624 C1623 1.398 . S
C1624 C1625 1.391 . S
C1625 H1613 0.950 . S
C1625 C1621 1.393 . S
C1625 C1624 1.391 . S
C1626 H1616 0.950 . S
C1626 C1627 1.386 . S
C1626 C1628 1.391 . S
C1627 C1626 1.386 . S
C1627 C1631 1.393 1_554 S
C1628 H1617 0.950 . S
C1628 C1626 1.391 . S
C1628 C1629 1.400 . S
C1629 C1623 1.491 . S
C1629 C1628 1.400 . S
C1629 C1630 1.398 1_554 S
C1630 H1618 0.950 . S
C1630 C1629 1.398 1_556 S
C1630 C1631 1.391 . S
C1631 H1619 0.950 . S
C1631 C1627 1.393 1_556 S
C1631 C1630 1.391 . S
H1632 C1640 0.950 . S
H1633 C1645 0.950 . S
H1634 C1642 0.950 . S
H1635 C1644 0.950 . S
H1636 C1646 0.950 . S
H1637 C1648 0.950 . S
H1638 C1650 0.950 . S
H1639 C1651 0.950 . S
C1640 H1632 0.950 . S
C1640 C1641 1.386 . S
C1640 C1642 1.391 . S
C1641 C1640 1.386 . S
C1641 C1645 1.393 . S
C1642 H1634 0.950 . S
C1642 C1640 1.391 . S
C1642 C1643 1.400 . S
C1643 C1642 1.400 . S
C1643 C1644 1.398 . S
C1643 C1649 1.491 . S
C1644 H1635 0.950 . S
C1644 C1643 1.398 . S
C1644 C1645 1.391 . S
C1645 H1633 0.950 . S
C1645 C1641 1.393 . S
C1645 C1644 1.391 . S
C1646 H1636 0.950 . S
C1646 C1647 1.386 . S
C1646 C1648 1.391 . S
C1647 C1646 1.386 . S
C1647 C1651 1.393 . S
C1648 H1637 0.950 . S
C1648 C1646 1.391 . S
C1648 C1649 1.400 . S
C1649 C1643 1.491 . S
C1649 C1648 1.400 . S
C1649 C1650 1.398 . S
C1650 H1638 0.950 . S
C1650 C1649 1.398 . S
C1650 C1651 1.391 . S
C1651 H1639 0.950 . S
C1651 C1647 1.393 . S
C1651 C1650 1.391 . S
H1652 C1660 0.950 . S
H1653 C1665 0.950 . S
H1654 C1662 0.950 . S
H1655 C1664 0.950 . S
H1656 C1666 0.948 . S
H1657 C1668 0.950 . S
H1658 C1670 0.951 . S
H1659 C1671 0.950 . S
C1660 H1652 0.950 . S
C1660 C1661 1.386 . S
C1660 C1662 1.391 . S
C1661 C1660 1.386 . S
C1661 C1665 1.393 . S
C1662 H1654 0.950 . S
C1662 C1660 1.391 . S
C1662 C1663 1.400 . S
C1663 C1662 1.400 . S
C1663 C1664 1.398 . S
C1663 C1669 1.491 . S
C1664 H1655 0.950 . S
C1664 C1663 1.398 . S
C1664 C1665 1.391 . S
C1665 H1653 0.950 . S
C1665 C1661 1.393 . S
C1665 C1664 1.391 . S
C1666 H1656 0.948 . S
C1666 C1667 1.396 . S
C1666 C1668 1.384 1_554 S
C1667 C1666 1.396 . S
C1667 C1671 1.393 . S
C1668 H1657 0.950 . S
C1668 C1666 1.384 1_556 S
C1668 C1669 1.400 . S
C1669 C1663 1.491 . S
C1669 C1668 1.400 . S
C1669 C1670 1.398 1_556 S
C1670 H1658 0.951 . S
C1670 C1669 1.398 1_554 S
C1670 C1671 1.391 . S
C1671 H1659 0.950 . S
C1671 C1667 1.393 . S
C1671 C1670 1.391 . S
H1672 C1680 0.950 . S
H1673 C1685 0.950 . S
H1674 C1682 0.950 . S
H1675 C1684 0.950 . S
H1676 C1686 0.950 . S
H1677 C1688 0.950 . S
H1678 C1690 0.950 . S
H1679 C1691 0.950 . S
C1680 H1672 0.950 . S
C1680 C1681 1.386 . S
C1680 C1682 1.391 . S
C1681 C1680 1.386 . S
C1681 C1685 1.393 . S
C1682 H1674 0.950 . S
C1682 C1680 1.391 . S
C1682 C1683 1.400 . S
C1683 C1682 1.400 . S
C1683 C1684 1.398 . S
C1683 C1689 1.491 . S
C1684 H1675 0.950 . S
C1684 C1683 1.398 . S
C1684 C1685 1.391 . S
C1685 H1673 0.950 . S
C1685 C1681 1.393 . S
C1685 C1684 1.391 . S
C1686 H1676 0.950 . S
C1686 C1687 1.386 . S
C1686 C1688 1.391 . S
C1687 C1686 1.386 . S
C1687 C1691 1.393 . S
C1688 H1677 0.950 . S
C1688 C1686 1.391 . S
C1688 C1689 1.400 . S
C1689 C1683 1.491 . S
C1689 C1688 1.400 . S
C1689 C1690 1.398 . S
C1690 H1678 0.950 . S
C1690 C1689 1.398 . S
C1690 C1691 1.391 . S
C1691 H1679 0.950 . S
C1691 C1687 1.393 . S
C1691 C1690 1.391 . S
H1692 C1700 0.941 1_655 S
H1693 C1705 0.950 . S
H1694 C1702 0.950 . S
H1695 C1704 0.950 . S
H1696 C1706 0.950 . S
H1697 C1708 0.950 . S
H1698 C1710 0.950 . S
H1699 C1711 0.950 . S
C1700 H1692 0.941 1_455 S
C1700 C1701 1.394 . S
C1700 C1702 1.391 1_455 S
C1701 C1700 1.394 . S
C1701 C1705 1.393 . S
C1702 H1694 0.950 . S
C1702 C1700 1.391 1_655 S
C1702 C1703 1.400 1_655 S
C1703 C1702 1.400 1_455 S
C1703 C1704 1.398 . S
C1703 C1709 1.491 . S
C1704 H1695 0.950 . S
C1704 C1703 1.398 . S
C1704 C1705 1.391 . S
C1705 H1693 0.950 . S
C1705 C1701 1.393 . S
C1705 C1704 1.391 . S
C1706 H1696 0.950 . S
C1706 C1707 1.386 . S
C1706 C1708 1.391 . S
C1707 C1706 1.386 . S
C1707 C1711 1.393 1_455 S
C1708 H1697 0.950 . S
C1708 C1706 1.391 . S
C1708 C1709 1.400 . S
C1709 C1703 1.491 . S
C1709 C1708 1.400 . S
C1709 C1710 1.398 1_455 S
C1710 H1698 0.950 . S
C1710 C1709 1.398 1_655 S
C1710 C1711 1.391 . S
C1711 H1699 0.950 . S
C1711 C1707 1.393 1_655 S
C1711 C1710 1.391 . S
H1712 C1720 0.950 . S
H1713 C1725 0.950 . S
H1714 C1722 0.950 . S
H1715 C1724 0.950 . S
H1716 C1726 0.950 . S
H1717 C1728 0.950 . S
H1718 C1730 0.950 . S
H1719 C1731 0.950 . S
C1720 H1712 0.950 . S
C1720 C1721 1.386 . S
C1720 C1722 1.391 . S
C1721 C1720 1.386 . S
C1721 C1725 1.393 . S
C1722 H1714 0.950 . S
C1722 C1720 1.391 . S
C1722 C1723 1.400 . S
C1723 C1722 1.400 . S
C1723 C1724 1.398 . S
C1723 C1729 1.491 . S
C1724 H1715 0.950 . S
C1724 C1723 1.398 . S
C1724 C1725 1.391 . S
C1725 H1713 0.950 . S
C1725 C1721 1.393 . S
C1725 C1724 1.391 . S
C1726 H1716 0.950 . S
C1726 C1727 1.386 . S
C1726 C1728 1.391 . S
C1727 C1726 1.386 . S
C1727 C1731 1.393 . S
C1728 H1717 0.950 . S
C1728 C1726 1.391 . S
C1728 C1729 1.400 . S
C1729 C1723 1.491 . S
C1729 C1728 1.400 . S
C1729 C1730 1.398 . S
C1730 H1718 0.950 . S
C1730 C1729 1.398 . S
C1730 C1731 1.391 . S
C1731 H1719 0.950 . S
C1731 C1727 1.393 . S
C1731 C1730 1.391 . S
H1732 C1740 0.950 . S
H1733 C1745 0.950 . S
H1734 C1742 0.941 1_455 S
H1735 C1744 0.950 . S
H1736 C1746 0.949 1_655 S
H1737 C1748 0.950 . S
H1738 C1750 0.950 . S
H1739 C1751 0.950 . S
C1740 H1732 0.950 . S
C1740 C1741 1.386 . S
C1740 C1742 1.391 . S
C1741 C1740 1.386 . S
C1741 C1745 1.393 . S
C1742 H1734 0.941 1_655 S
C1742 C1740 1.391 . S
C1742 C1743 1.400 . S
C1743 C1742 1.400 . S
C1743 C1744 1.398 . S
C1743 C1749 1.506 . S
C1744 H1735 0.950 . S
C1744 C1743 1.398 . S
C1744 C1745 1.391 . S
C1745 H1733 0.950 . S
C1745 C1741 1.393 . S
C1745 C1744 1.391 . S
C1746 H1736 0.949 1_455 S
C1746 C1747 1.390 . S
C1746 C1748 1.388 1_455 S
C1747 C1746 1.390 . S
C1747 C1751 1.393 . S
C1748 H1737 0.950 . S
C1748 C1746 1.388 1_655 S
C1748 C1749 1.402 . S
C1749 C1743 1.506 . S
C1749 C1748 1.402 . S
C1749 C1750 1.383 1_655 S
C1750 H1738 0.950 . S
C1750 C1749 1.383 1_455 S
C1750 C1751 1.391 . S
C1751 H1739 0.950 . S
C1751 C1747 1.393 . S
C1751 C1750 1.391 . S
H1752 C1760 0.950 . S
H1753 C1765 0.950 . S
H1754 C1762 0.950 . S
H1755 C1764 0.950 . S
H1756 C1766 0.950 . S
H1757 C1768 0.950 . S
H1758 C1770 0.950 . S
H1759 C1771 0.950 . S
C1760 H1752 0.950 . S
C1760 C1761 1.386 . S
C1760 C1762 1.391 . S
C1761 C1760 1.386 . S
C1761 C1765 1.393 . S
C1762 H1754 0.950 . S
C1762 C1760 1.391 . S
C1762 C1763 1.400 . S
C1763 C1762 1.400 . S
C1763 C1764 1.398 . S
C1763 C1769 1.491 . S
C1764 H1755 0.950 . S
C1764 C1763 1.398 . S
C1764 C1765 1.391 . S
C1765 H1753 0.950 . S
C1765 C1761 1.393 . S
C1765 C1764 1.391 . S
C1766 H1756 0.950 . S
C1766 C1767 1.386 . S
C1766 C1768 1.391 . S
C1767 C1766 1.386 . S
C1767 C1771 1.393 . S
C1768 H1757 0.950 . S
C1768 C1766 1.391 . S
C1768 C1769 1.400 . S
C1769 C1763 1.491 . S
C1769 C1768 1.400 . S
C1769 C1770 1.398 . S
C1770 H1758 0.950 . S
C1770 C1769 1.398 . S
C1770 C1771 1.391 . S
C1771 H1759 0.950 . S
C1771 C1767 1.393 . S
C1771 C1770 1.391 . S
H1772 C1780 0.950 . S
H1773 C1785 0.950 . S
H1774 C1782 0.950 . S
H1775 C1784 0.950 . S
H1776 C1786 0.950 . S
H1777 C1788 0.950 . S
H1778 C1790 0.950 . S
H1779 C1791 0.950 . S
C1780 H1772 0.950 . S
C1780 C1781 1.386 . S
C1780 C1782 1.391 . S
C1781 C1780 1.386 . S
C1781 C1785 1.393 . S
C1782 H1774 0.950 . S
C1782 C1780 1.391 . S
C1782 C1783 1.400 . S
C1783 C1782 1.400 . S
C1783 C1784 1.398 . S
C1783 C1789 1.491 . S
C1784 H1775 0.950 . S
C1784 C1783 1.398 . S
C1784 C1785 1.391 . S
C1785 H1773 0.950 . S
C1785 C1781 1.393 . S
C1785 C1784 1.391 . S
C1786 H1776 0.950 . S
C1786 C1787 1.386 . S
C1786 C1788 1.391 . S
C1787 C1786 1.386 . S
C1787 C1791 1.393 . S
C1788 H1777 0.950 . S
C1788 C1786 1.391 . S
C1788 C1789 1.400 . S
C1789 C1783 1.491 . S
C1789 C1788 1.400 . S
C1789 C1790 1.398 . S
C1790 H1778 0.950 . S
C1790 C1789 1.398 . S
C1790 C1791 1.391 . S
C1791 H1779 0.950 . S
C1791 C1787 1.393 . S
C1791 C1790 1.391 . S
H1792 C1800 0.950 1_565 S
H1793 C1805 0.950 . S
H1794 C1802 0.972 . S
H1795 C1804 0.950 . S
H1796 C1806 0.950 . S
H1797 C1808 0.950 . S
H1798 C1810 0.950 . S
H1799 C1811 0.950 . S
C1800 H1792 0.950 1_545 S
C1800 C1801 1.386 . S
C1800 C1802 1.382 1_545 S
C1801 C1800 1.386 . S
C1801 C1805 1.393 . S
C1802 H1794 0.972 . S
C1802 C1800 1.382 1_565 S
C1802 C1803 1.392 1_565 S
C1803 C1802 1.392 1_545 S
C1803 C1804 1.398 . S
C1803 C1809 1.491 . S
C1804 H1795 0.950 . S
C1804 C1803 1.398 . S
C1804 C1805 1.391 . S
C1805 H1793 0.950 . S
C1805 C1801 1.393 . S
C1805 C1804 1.391 . S
C1806 H1796 0.950 . S
C1806 C1807 1.386 1_545 S
C1806 C1808 1.391 . S
C1807 C1806 1.386 1_565 S
C1807 C1811 1.393 . S
C1808 H1797 0.950 . S
C1808 C1806 1.391 . S
C1808 C1809 1.400 . S
C1809 C1803 1.491 . S
C1809 C1808 1.400 . S
C1809 C1810 1.398 1_545 S
C1810 H1798 0.950 . S
C1810 C1809 1.398 1_565 S
C1810 C1811 1.391 . S
C1811 H1799 0.950 . S
C1811 C1807 1.393 . S
C1811 C1810 1.391 . S
H1812 C1820 0.954 . S
H1813 C1825 0.950 . S
H1814 C1822 0.950 1_545 S
H1815 C1824 0.950 . S
H1816 C1826 0.950 . S
H1817 C1828 0.950 . S
H1818 C1830 0.950 . S
H1819 C1831 0.950 . S
C1820 H1812 0.954 . S
C1820 C1821 1.386 . S
C1820 C1822 1.391 . S
C1821 C1820 1.386 . S
C1821 C1825 1.393 . S
C1822 H1814 0.950 1_565 S
C1822 C1820 1.391 . S
C1822 C1823 1.400 . S
C1823 C1822 1.400 . S
C1823 C1824 1.398 . S
C1823 C1829 1.491 . S
C1824 H1815 0.950 . S
C1824 C1823 1.398 . S
C1824 C1825 1.391 . S
C1825 H1813 0.950 . S
C1825 C1821 1.393 . S
C1825 C1824 1.391 . S
C1826 H1816 0.950 . S
C1826 C1827 1.386 . S
C1826 C1828 1.391 . S
C1827 C1826 1.386 . S
C1827 C1831 1.393 1_565 S
C1828 H1817 0.950 . S
C1828 C1826 1.391 . S
C1828 C1829 1.400 . S
C1829 C1823 1.491 . S
C1829 C1828 1.400 . S
C1829 C1830 1.398 1_565 S
C1830 H1818 0.950 . S
C1830 C1829 1.398 1_545 S
C1830 C1831 1.391 . S
C1831 H1819 0.950 . S
C1831 C1827 1.393 1_545 S
C1831 C1830 1.391 . S
H1832 C1840 0.950 . S
H1833 C1845 0.950 . S
H1834 C1842 0.950 . S
H1835 C1844 0.950 . S
H1836 C1846 0.950 . S
H1837 C1848 0.950 . S
H1838 C1850 0.950 . S
H1839 C1851 0.950 . S
C1840 H1832 0.950 . S
C1840 C1841 1.386 . S
C1840 C1842 1.391 . S
C1841 C1840 1.386 . S
C1841 C1845 1.393 . S
C1842 H1834 0.950 . S
C1842 C1840 1.391 . S
C1842 C1843 1.400 . S
C1843 C1842 1.400 . S
C1843 C1844 1.398 . S
C1843 C1849 1.491 . S
C1844 H1835 0.950 . S
C1844 C1843 1.398 . S
C1844 C1845 1.391 . S
C1845 H1833 0.950 . S
C1845 C1841 1.393 . S
C1845 C1844 1.391 . S
C1846 H1836 0.950 . S
C1846 C1847 1.386 . S
C1846 C1848 1.391 . S
C1847 C1846 1.386 . S
C1847 C1851 1.393 . S
C1848 H1837 0.950 . S
C1848 C1846 1.391 . S
C1848 C1849 1.400 . S
C1849 C1843 1.491 . S
C1849 C1848 1.400 . S
C1849 C1850 1.398 . S
C1850 H1838 0.950 . S
C1850 C1849 1.398 . S
C1850 C1851 1.391 . S
C1851 H1839 0.950 . S
C1851 C1847 1.393 . S
C1851 C1850 1.391 . S
H1852 C1860 0.950 . S
H1853 C1865 0.950 . S
H1854 C1862 0.950 . S
H1855 C1864 0.950 . S
H1856 C1866 0.950 . S
H1857 C1868 0.950 . S
H1858 C1870 0.950 . S
H1859 C1871 0.950 . S
C1860 H1852 0.950 . S
C1860 C1861 1.386 1_554 S
C1860 C1862 1.391 . S
C1861 C1860 1.386 1_556 S
C1861 C1865 1.393 . S
C1862 H1854 0.950 . S
C1862 C1860 1.391 . S
C1862 C1863 1.400 1_554 S
C1863 C1862 1.400 1_556 S
C1863 C1864 1.398 . S
C1863 C1869 1.491 . S
C1864 H1855 0.950 . S
C1864 C1863 1.398 . S
C1864 C1865 1.391 . S
C1865 H1853 0.950 . S
C1865 C1861 1.393 . S
C1865 C1864 1.391 . S
C1866 H1856 0.950 . S
C1866 C1867 1.386 . S
C1866 C1868 1.391 . S
C1867 C1866 1.386 . S
C1867 C1871 1.393 1_556 S
C1868 H1857 0.950 . S
C1868 C1866 1.391 . S
C1868 C1869 1.400 . S
C1869 C1863 1.491 . S
C1869 C1868 1.400 . S
C1869 C1870 1.398 1_556 S
C1870 H1858 0.950 . S
C1870 C1869 1.398 1_554 S
C1870 C1871 1.391 . S
C1871 H1859 0.950 . S
C1871 C1867 1.393 1_554 S
C1871 C1870 1.391 . S
H1872 C1880 0.950 . S
H1873 C1885 0.950 . S
H1874 C1882 0.950 . S
H1875 C1884 0.950 . S
H1876 C1886 0.950 . S
H1877 C1888 0.950 . S
H1878 C1890 0.950 . S
H1879 C1891 0.950 . S
C1880 H1872 0.950 . S
C1880 C1881 1.386 . S
C1880 C1882 1.391 . S
C1881 C1880 1.386 . S
C1881 C1885 1.393 . S
C1882 H1874 0.950 . S
C1882 C1880 1.391 . S
C1882 C1883 1.400 . S
C1883 C1882 1.400 . S
C1883 C1884 1.398 . S
C1883 C1889 1.491 . S
C1884 H1875 0.950 . S
C1884 C1883 1.398 . S
C1884 C1885 1.391 . S
C1885 H1873 0.950 . S
C1885 C1881 1.393 . S
C1885 C1884 1.391 . S
C1886 H1876 0.950 . S
C1886 C1887 1.386 . S
C1886 C1888 1.391 . S
C1887 C1886 1.386 . S
C1887 C1891 1.393 . S
C1888 H1877 0.950 . S
C1888 C1886 1.391 . S
C1888 C1889 1.400 . S
C1889 C1883 1.491 . S
C1889 C1888 1.400 . S
C1889 C1890 1.398 . S
C1890 H1878 0.950 . S
C1890 C1889 1.398 . S
C1890 C1891 1.391 . S
C1891 H1879 0.950 . S
C1891 C1887 1.393 . S
C1891 C1890 1.391 . S
H1892 C1900 0.950 . S
H1893 C1905 0.950 . S
H1894 C1902 0.950 . S
H1895 C1904 0.950 . S
H1896 C1906 0.950 . S
H1897 C1908 0.950 . S
H1898 C1910 0.950 . S
H1899 C1911 0.950 . S
C1900 H1892 0.950 . S
C1900 C1901 1.386 . S
C1900 C1902 1.391 . S
C1901 C1900 1.386 . S
C1901 C1905 1.393 1_554 S
C1902 H1894 0.950 . S
C1902 C1900 1.391 . S
C1902 C1903 1.400 . S
C1903 C1902 1.400 . S
C1903 C1904 1.398 1_554 S
C1903 C1909 1.491 . S
C1904 H1895 0.950 . S
C1904 C1903 1.398 1_556 S
C1904 C1905 1.391 . S
C1905 H1893 0.950 . S
C1905 C1901 1.393 1_556 S
C1905 C1904 1.391 . S
C1906 H1896 0.950 . S
C1906 C1907 1.386 . S
C1906 C1908 1.391 . S
C1907 C1906 1.386 . S
C1907 C1911 1.393 1_556 S
C1908 H1897 0.950 . S
C1908 C1906 1.391 . S
C1908 C1909 1.400 1_556 S
C1909 C1903 1.491 . S
C1909 C1908 1.400 1_554 S
C1909 C1910 1.398 . S
C1910 H1898 0.950 . S
C1910 C1909 1.398 . S
C1910 C1911 1.391 . S
C1911 H1899 0.950 . S
C1911 C1907 1.393 1_554 S
C1911 C1910 1.391 . S
H1912 C1920 0.950 . S
H1913 C1925 0.950 . S
H1914 C1922 0.950 . S
H1915 C1924 0.950 . S
H1916 C1926 0.950 . S
H1917 C1928 0.950 . S
H1918 C1930 0.950 . S
H1919 C1931 0.950 . S
C1920 H1912 0.950 . S
C1920 C1921 1.386 . S
C1920 C1922 1.391 . S
C1921 C1920 1.386 . S
C1921 C1925 1.393 . S
C1922 H1914 0.950 . S
C1922 C1920 1.391 . S
C1922 C1923 1.400 . S
C1923 C1922 1.400 . S
C1923 C1924 1.398 . S
C1923 C1929 1.491 . S
C1924 H1915 0.950 . S
C1924 C1923 1.398 . S
C1924 C1925 1.391 . S
C1925 H1913 0.950 . S
C1925 C1921 1.393 . S
C1925 C1924 1.391 . S
C1926 H1916 0.950 . S
C1926 C1927 1.386 . S
C1926 C1928 1.391 . S
C1927 C1926 1.386 . S
C1927 C1931 1.393 . S
C1928 H1917 0.950 . S
C1928 C1926 1.391 . S
C1928 C1929 1.400 . S
C1929 C1923 1.491 . S
C1929 C1928 1.400 . S
C1929 C1930 1.398 . S
C1930 H1918 0.950 . S
C1930 C1929 1.398 . S
C1930 C1931 1.391 . S
C1931 H1919 0.950 . S
C1931 C1927 1.393 . S
C1931 C1930 1.391 . S
H1932 C1940 0.950 . S
H1933 C1945 0.950 . S
H1934 C1942 0.950 . S
H1935 C1944 0.950 . S
H1936 C1946 0.950 . S
H1937 C1948 0.950 . S
H1938 C1950 0.950 . S
H1939 C1951 0.950 . S
C1940 H1932 0.950 . S
C1940 C1941 1.386 1_455 S
C1940 C1942 1.391 . S
C1941 C1940 1.386 1_655 S
C1941 C1945 1.393 . S
C1942 H1934 0.950 . S
C1942 C1940 1.391 . S
C1942 C1943 1.400 1_455 S
C1943 C1942 1.400 1_655 S
C1943 C1944 1.398 . S
C1943 C1949 1.491 . S
C1944 H1935 0.950 . S
C1944 C1943 1.398 . S
C1944 C1945 1.391 . S
C1945 H1933 0.950 . S
C1945 C1941 1.393 . S
C1945 C1944 1.391 . S
C1946 H1936 0.950 . S
C1946 C1947 1.386 . S
C1946 C1948 1.391 . S
C1947 C1946 1.386 . S
C1947 C1951 1.393 1_655 S
C1948 H1937 0.950 . S
C1948 C1946 1.391 . S
C1948 C1949 1.400 . S
C1949 C1943 1.491 . S
C1949 C1948 1.400 . S
C1949 C1950 1.398 1_655 S
C1950 H1938 0.950 . S
C1950 C1949 1.398 1_455 S
C1950 C1951 1.391 . S
C1951 H1939 0.950 . S
C1951 C1947 1.393 1_455 S
C1951 C1950 1.391 . S
H1952 C1960 0.950 . S
H1953 C1965 0.950 . S
H1954 C1962 0.950 . S
H1955 C1964 0.950 . S
H1956 C1966 0.950 . S
H1957 C1968 0.950 . S
H1958 C1970 0.950 . S
H1959 C1971 0.950 . S
C1960 H1952 0.950 . S
C1960 C1961 1.386 . S
C1960 C1962 1.391 . S
C1961 C1960 1.386 . S
C1961 C1965 1.393 . S
C1962 H1954 0.950 . S
C1962 C1960 1.391 . S
C1962 C1963 1.400 . S
C1963 C1962 1.400 . S
C1963 C1964 1.398 . S
C1963 C1969 1.491 . S
C1964 H1955 0.950 . S
C1964 C1963 1.398 . S
C1964 C1965 1.391 . S
C1965 H1953 0.950 . S
C1965 C1961 1.393 . S
C1965 C1964 1.391 . S
C1966 H1956 0.950 . S
C1966 C1967 1.386 . S
C1966 C1968 1.391 . S
C1967 C1966 1.386 . S
C1967 C1971 1.393 . S
C1968 H1957 0.950 . S
C1968 C1966 1.391 . S
C1968 C1969 1.400 . S
C1969 C1963 1.491 . S
C1969 C1968 1.400 . S
C1969 C1970 1.398 . S
C1970 H1958 0.950 . S
C1970 C1969 1.398 . S
C1970 C1971 1.391 . S
C1971 H1959 0.950 . S
C1971 C1967 1.393 . S
C1971 C1970 1.391 . S
H1972 C1980 0.950 . S
H1973 C1985 0.950 . S
H1974 C1982 0.950 . S
H1975 C1984 0.950 . S
H1976 C1986 0.951 . S
H1977 C1988 0.950 . S
H1978 C1990 0.955 . S
H1979 C1991 0.950 . S
C1980 H1972 0.950 . S
C1980 C1981 1.386 . S
C1980 C1982 1.391 . S
C1981 C1980 1.386 . S
C1981 C1985 1.393 . S
C1982 H1974 0.950 . S
C1982 C1980 1.391 . S
C1982 C1983 1.400 . S
C1983 C1982 1.400 . S
C1983 C1984 1.398 . S
C1983 C1989 1.491 . S
C1984 H1975 0.950 . S
C1984 C1983 1.398 . S
C1984 C1985 1.391 . S
C1985 H1973 0.950 . S
C1985 C1981 1.393 . S
C1985 C1984 1.391 . S
C1986 H1976 0.951 . S
C1986 C1987 1.393 . S
C1986 C1988 1.383 1_655 S
C1987 C1986 1.393 . S
C1987 C1991 1.393 . S
C1988 H1977 0.950 . S
C1988 C1986 1.383 1_455 S
C1988 C1989 1.400 . S
C1989 C1983 1.491 . S
C1989 C1988 1.400 . S
C1989 C1990 1.398 1_455 S
C1990 H1978 0.955 . S
C1990 C1989 1.398 1_655 S
C1990 C1991 1.391 . S
C1991 H1979 0.950 . S
C1991 C1987 1.393 . S
C1991 C1990 1.391 . S
H1992 C2000 0.950 . S
H1993 C2005 0.950 . S
H1994 C2002 0.950 . S
H1995 C2004 0.950 . S
H1996 C2006 0.950 . S
H1997 C2008 0.950 . S
H1998 C2010 0.950 . S
H1999 C2011 0.950 . S
C2000 H1992 0.950 . S
C2000 C2001 1.386 . S
C2000 C2002 1.391 . S
C2001 C2000 1.386 . S
C2001 C2005 1.393 . S
C2002 H1994 0.950 . S
C2002 C2000 1.391 . S
C2002 C2003 1.400 . S
C2003 C2002 1.400 . S
C2003 C2004 1.398 . S
C2003 C2009 1.491 . S
C2004 H1995 0.950 . S
C2004 C2003 1.398 . S
C2004 C2005 1.391 . S
C2005 H1993 0.950 . S
C2005 C2001 1.393 . S
C2005 C2004 1.391 . S
C2006 H1996 0.950 . S
C2006 C2007 1.386 . S
C2006 C2008 1.391 . S
C2007 C2006 1.386 . S
C2007 C2011 1.393 . S
C2008 H1997 0.950 . S
C2008 C2006 1.391 . S
C2008 C2009 1.400 . S
C2009 C2003 1.491 . S
C2009 C2008 1.400 . S
C2009 C2010 1.398 . S
C2010 H1998 0.950 . S
C2010 C2009 1.398 . S
C2010 C2011 1.391 . S
C2011 H1999 0.950 . S
C2011 C2007 1.393 . S
C2011 C2010 1.391 . S
H2012 C2020 0.950 . S
H2013 C2025 0.950 . S
H2014 C2022 0.950 . S
H2015 C2024 0.950 . S
H2016 C2026 0.950 . S
H2017 C2028 0.950 . S
H2018 C2030 0.950 . S
H2019 C2031 0.950 . S
C2020 H2012 0.950 . S
C2020 C2021 1.386 . S
C2020 C2022 1.391 . S
C2021 C2020 1.386 . S
C2021 C2025 1.393 . S
C2022 H2014 0.950 . S
C2022 C2020 1.391 . S
C2022 C2023 1.400 . S
C2023 C2022 1.400 . S
C2023 C2024 1.398 . S
C2023 C2029 1.491 . S
C2024 H2015 0.950 . S
C2024 C2023 1.398 . S
C2024 C2025 1.391 . S
C2025 H2013 0.950 . S
C2025 C2021 1.393 . S
C2025 C2024 1.391 . S
C2026 H2016 0.950 . S
C2026 C2027 1.386 . S
C2026 C2028 1.391 . S
C2027 C2026 1.386 . S
C2027 C2031 1.393 . S
C2028 H2017 0.950 . S
C2028 C2026 1.391 . S
C2028 C2029 1.400 . S
C2029 C2023 1.491 . S
C2029 C2028 1.400 . S
C2029 C2030 1.398 . S
C2030 H2018 0.950 . S
C2030 C2029 1.398 . S
C2030 C2031 1.391 . S
C2031 H2019 0.950 . S
C2031 C2027 1.393 . S
C2031 C2030 1.391 . S
H2032 C2040 0.950 . S
H2033 C2045 0.950 . S
H2034 C2042 0.950 . S
H2035 C2044 0.950 . S
H2036 C2046 0.950 . S
H2037 C2048 0.950 1_565 S
H2038 C2050 0.950 . S
H2039 C2051 0.950 . S
C2040 H2032 0.950 . S
C2040 C2041 1.386 . S
C2040 C2042 1.391 . S
C2041 C2040 1.386 . S
C2041 C2045 1.393 1_545 S
C2042 H2034 0.950 . S
C2042 C2040 1.391 . S
C2042 C2043 1.400 . S
C2043 C2042 1.400 . S
C2043 C2044 1.398 1_545 S
C2043 C2049 1.491 . S
C2044 H2035 0.950 . S
C2044 C2043 1.398 1_565 S
C2044 C2045 1.391 . S
C2045 H2033 0.950 . S
C2045 C2041 1.393 1_565 S
C2045 C2044 1.391 . S
C2046 H2036 0.950 . S
C2046 C2047 1.386 . S
C2046 C2048 1.391 . S
C2047 C2046 1.386 . S
C2047 C2051 1.393 . S
C2048 H2037 0.950 1_545 S
C2048 C2046 1.391 . S
C2048 C2049 1.400 . S
C2049 C2043 1.491 . S
C2049 C2048 1.400 . S
C2049 C2050 1.398 . S
C2050 H2038 0.950 . S
C2050 C2049 1.398 . S
C2050 C2051 1.391 . S
C2051 H2039 0.950 . S
C2051 C2047 1.393 . S
C2051 C2050 1.391 . S
H2052 C2060 0.950 1_545 S
H2053 C2065 0.950 . S
H2054 C2062 0.916 1_545 S
H2055 C2064 0.950 . S
H2056 C2066 0.950 . S
H2057 C2068 0.950 . S
H2058 C2070 0.950 . S
H2059 C2071 0.950 . S
C2060 H2052 0.950 1_565 S
C2060 C2061 1.386 . S
C2060 C2062 1.391 . S
C2061 C2060 1.386 . S
C2061 C2065 1.393 . S
C2062 H2054 0.916 1_565 S
C2062 C2060 1.391 . S
C2062 C2063 1.400 . S
C2063 C2062 1.400 . S
C2063 C2064 1.398 . S
C2063 C2069 1.491 . S
C2064 H2055 0.950 . S
C2064 C2063 1.398 . S
C2064 C2065 1.391 . S
C2065 H2053 0.950 . S
C2065 C2061 1.393 . S
C2065 C2064 1.391 . S
C2066 H2056 0.950 . S
C2066 C2067 1.386 . S
C2066 C2068 1.391 . S
C2067 C2066 1.386 . S
C2067 C2071 1.393 . S
C2068 H2057 0.950 . S
C2068 C2066 1.391 . S
C2068 C2069 1.400 . S
C2069 C2063 1.491 . S
C2069 C2068 1.400 . S
C2069 C2070 1.398 . S
C2070 H2058 0.950 . S
C2070 C2069 1.398 . S
C2070 C2071 1.391 . S
C2071 H2059 0.950 . S
C2071 C2067 1.393 . S
C2071 C2070 1.391 . S
H2072 C2080 0.950 . S
H2073 C2085 0.950 . S
H2074 C2082 0.950 . S
H2075 C2084 0.950 . S
H2076 C2086 0.950 . S
H2077 C2088 0.950 . S
H2078 C2090 0.950 . S
H2079 C2091 0.950 . S
C2080 H2072 0.950 . S
C2080 C2081 1.386 . S
C2080 C2082 1.391 . S
C2081 C2080 1.386 . S
C2081 C2085 1.393 . S
C2082 H2074 0.950 . S
C2082 C2080 1.391 . S
C2082 C2083 1.400 . S
C2083 C2082 1.400 . S
C2083 C2084 1.398 . S
C2083 C2089 1.491 . S
C2084 H2075 0.950 . S
C2084 C2083 1.398 . S
C2084 C2085 1.391 . S
C2085 H2073 0.950 . S
C2085 C2081 1.393 . S
C2085 C2084 1.391 . S
C2086 H2076 0.950 . S
C2086 C2087 1.386 . S
C2086 C2088 1.391 . S
C2087 C2086 1.386 . S
C2087 C2091 1.393 . S
C2088 H2077 0.950 . S
C2088 C2086 1.391 . S
C2088 C2089 1.400 . S
C2089 C2083 1.491 . S
C2089 C2088 1.400 . S
C2089 C2090 1.398 . S
C2090 H2078 0.950 . S
C2090 C2089 1.398 . S
C2090 C2091 1.391 . S
C2091 H2079 0.950 . S
C2091 C2087 1.393 . S
C2091 C2090 1.391 . S
H2092 C2100 0.950 . S
H2093 C2105 0.950 . S
H2094 C2102 0.950 . S
H2095 C2104 0.950 . S
H2096 C2106 0.950 . S
H2097 C2108 0.950 . S
H2098 C2110 0.950 . S
H2099 C2111 0.950 . S
C2100 H2092 0.950 . S
C2100 C2101 1.386 . S
C2100 C2102 1.391 . S
C2101 C2100 1.386 . S
C2101 C2105 1.393 . S
C2102 H2094 0.950 . S
C2102 C2100 1.391 . S
C2102 C2103 1.400 . S
C2103 C2102 1.400 . S
C2103 C2104 1.398 . S
C2103 C2109 1.491 . S
C2104 H2095 0.950 . S
C2104 C2103 1.398 . S
C2104 C2105 1.391 . S
C2105 H2093 0.950 . S
C2105 C2101 1.393 . S
C2105 C2104 1.391 . S
C2106 H2096 0.950 . S
C2106 C2107 1.386 . S
C2106 C2108 1.391 . S
C2107 C2106 1.386 . S
C2107 C2111 1.393 . S
C2108 H2097 0.950 . S
C2108 C2106 1.391 . S
C2108 C2109 1.400 . S
C2109 C2103 1.491 . S
C2109 C2108 1.400 . S
C2109 C2110 1.398 . S
C2110 H2098 0.950 . S
C2110 C2109 1.398 . S
C2110 C2111 1.391 . S
C2111 H2099 0.950 . S
C2111 C2107 1.393 . S
C2111 C2110 1.391 . S
H2112 C2120 0.950 . S
H2113 C2125 0.950 . S
H2114 C2122 0.950 . S
H2115 C2124 0.950 . S
H2116 C2126 0.950 . S
H2117 C2128 0.950 . S
H2118 C2130 0.950 . S
H2119 C2131 0.950 . S
C2120 H2112 0.950 . S
C2120 C2121 1.386 . S
C2120 C2122 1.391 . S
C2121 C2120 1.386 . S
C2121 C2125 1.393 . S
C2122 H2114 0.950 . S
C2122 C2120 1.391 . S
C2122 C2123 1.400 . S
C2123 C2122 1.400 . S
C2123 C2124 1.398 . S
C2123 C2129 1.491 . S
C2124 H2115 0.950 . S
C2124 C2123 1.398 . S
C2124 C2125 1.391 . S
C2125 H2113 0.950 . S
C2125 C2121 1.393 . S
C2125 C2124 1.391 . S
C2126 H2116 0.950 . S
C2126 C2127 1.386 . S
C2126 C2128 1.391 . S
C2127 C2126 1.386 . S
C2127 C2131 1.393 . S
C2128 H2117 0.950 . S
C2128 C2126 1.391 . S
C2128 C2129 1.400 . S
C2129 C2123 1.491 . S
C2129 C2128 1.400 . S
C2129 C2130 1.398 . S
C2130 H2118 0.950 . S
C2130 C2129 1.398 . S
C2130 C2131 1.391 . S
C2131 H2119 0.950 . S
C2131 C2127 1.393 . S
C2131 C2130 1.391 . S
H2132 C2140 0.950 . S
H2133 C2145 0.950 1_556 S
H2134 C2142 0.950 . S
H2135 C2144 0.950 . S
H2136 C2146 0.950 . S
H2137 C2148 0.950 . S
H2138 C2150 0.950 . S
H2139 C2151 0.950 . S
C2140 H2132 0.950 . S
C2140 C2141 1.386 . S
C2140 C2142 1.391 . S
C2141 C2140 1.386 . S
C2141 C2145 1.393 . S
C2142 H2134 0.950 . S
C2142 C2140 1.391 . S
C2142 C2143 1.400 . S
C2143 C2142 1.400 . S
C2143 C2144 1.398 . S
C2143 C2149 1.491 . S
C2144 H2135 0.950 . S
C2144 C2143 1.398 . S
C2144 C2145 1.391 . S
C2145 H2133 0.950 1_554 S
C2145 C2141 1.393 . S
C2145 C2144 1.391 . S
C2146 H2136 0.950 . S
C2146 C2147 1.386 . S
C2146 C2148 1.391 . S
C2147 C2146 1.386 . S
C2147 C2151 1.393 . S
C2148 H2137 0.950 . S
C2148 C2146 1.391 . S
C2148 C2149 1.400 . S
C2149 C2143 1.491 . S
C2149 C2148 1.400 . S
C2149 C2150 1.398 . S
C2150 H2138 0.950 . S
C2150 C2149 1.398 . S
C2150 C2151 1.391 . S
C2151 H2139 0.950 . S
C2151 C2147 1.393 . S
C2151 C2150 1.391 . S
H2152 C2160 0.950 . S
H2153 C2165 0.950 . S
H2154 C2162 0.950 . S
H2155 C2164 0.950 . S
H2156 C2166 0.950 . S
H2157 C2168 0.950 . S
H2158 C2170 0.950 . S
H2159 C2171 0.950 . S
C2160 H2152 0.950 . S
C2160 C2161 1.386 . S
C2160 C2162 1.391 . S
C2161 C2160 1.386 . S
C2161 C2165 1.393 . S
C2162 H2154 0.950 . S
C2162 C2160 1.391 . S
C2162 C2163 1.400 . S
C2163 C2162 1.400 . S
C2163 C2164 1.398 . S
C2163 C2169 1.491 . S
C2164 H2155 0.950 . S
C2164 C2163 1.398 . S
C2164 C2165 1.391 . S
C2165 H2153 0.950 . S
C2165 C2161 1.393 . S
C2165 C2164 1.391 . S
C2166 H2156 0.950 . S
C2166 C2167 1.386 . S
C2166 C2168 1.391 . S
C2167 C2166 1.386 . S
C2167 C2171 1.393 . S
C2168 H2157 0.950 . S
C2168 C2166 1.391 . S
C2168 C2169 1.400 . S
C2169 C2163 1.491 . S
C2169 C2168 1.400 . S
C2169 C2170 1.398 . S
C2170 H2158 0.950 . S
C2170 C2169 1.398 . S
C2170 C2171 1.391 . S
C2171 H2159 0.950 . S
C2171 C2167 1.393 . S
C2171 C2170 1.391 . S
H2172 C2180 0.950 . S
H2173 C2185 0.950 1_455 S
H2174 C2182 0.950 . S
H2175 C2184 0.950 1_455 S
H2176 C2186 0.950 . S
H2177 C2188 0.950 . S
H2178 C2190 0.950 . S
H2179 C2191 0.950 . S
C2180 H2172 0.950 . S
C2180 C2181 1.386 . S
C2180 C2182 1.391 . S
C2181 C2180 1.386 . S
C2181 C2185 1.393 . S
C2182 H2174 0.950 . S
C2182 C2180 1.391 . S
C2182 C2183 1.400 . S
C2183 C2182 1.400 . S
C2183 C2184 1.398 . S
C2183 C2189 1.491 . S
C2184 H2175 0.950 1_655 S
C2184 C2183 1.398 . S
C2184 C2185 1.391 . S
C2185 H2173 0.950 1_655 S
C2185 C2181 1.393 . S
C2185 C2184 1.391 . S
C2186 H2176 0.950 . S
C2186 C2187 1.386 . S
C2186 C2188 1.391 . S
C2187 C2186 1.386 . S
C2187 C2191 1.393 . S
C2188 H2177 0.950 . S
C2188 C2186 1.391 . S
C2188 C2189 1.400 . S
C2189 C2183 1.491 . S
C2189 C2188 1.400 . S
C2189 C2190 1.398 . S
C2190 H2178 0.950 . S
C2190 C2189 1.398 . S
C2190 C2191 1.391 . S
C2191 H2179 0.950 . S
C2191 C2187 1.393 . S
C2191 C2190 1.391 . S
H2192 C2200 0.950 . S
H2193 C2205 0.950 . S
H2194 C2202 0.950 . S
H2195 C2204 0.950 . S
H2196 C2206 0.950 . S
H2197 C2208 0.950 . S
H2198 C2210 0.950 . S
H2199 C2211 0.950 . S
C2200 H2192 0.950 . S
C2200 C2201 1.386 . S
C2200 C2202 1.391 . S
C2201 C2200 1.386 . S
C2201 C2205 1.393 . S
C2202 H2194 0.950 . S
C2202 C2200 1.391 . S
C2202 C2203 1.400 . S
C2203 C2202 1.400 . S
C2203 C2204 1.398 . S
C2203 C2209 1.491 . S
C2204 H2195 0.950 . S
C2204 C2203 1.398 . S
C2204 C2205 1.391 . S
C2205 H2193 0.950 . S
C2205 C2201 1.393 . S
C2205 C2204 1.391 . S
C2206 H2196 0.950 . S
C2206 C2207 1.386 . S
C2206 C2208 1.391 . S
C2207 C2206 1.386 . S
C2207 C2211 1.393 . S
C2208 H2197 0.950 . S
C2208 C2206 1.391 . S
C2208 C2209 1.400 . S
C2209 C2203 1.491 . S
C2209 C2208 1.400 . S
C2209 C2210 1.398 . S
C2210 H2198 0.950 . S
C2210 C2209 1.398 . S
C2210 C2211 1.391 . S
C2211 H2199 0.950 . S
C2211 C2207 1.393 . S
C2211 C2210 1.391 . S
H2212 C2220 0.943 1_655 S
H2213 C2225 0.950 . S
H2214 C2222 0.929 1_655 S
H2215 C2224 0.950 . S
H2216 C2226 0.950 . S
H2217 C2228 0.950 . S
H2218 C2230 0.950 . S
H2219 C2231 0.950 . S
C2220 H2212 0.943 1_455 S
C2220 C2221 1.390 . S
C2220 C2222 1.393 . S
C2221 C2220 1.390 . S
C2221 C2225 1.393 . S
C2222 H2214 0.929 1_455 S
C2222 C2220 1.393 . S
C2222 C2223 1.400 . S
C2223 C2222 1.400 . S
C2223 C2224 1.398 . S
C2223 C2229 1.491 . S
C2224 H2215 0.950 . S
C2224 C2223 1.398 . S
C2224 C2225 1.391 . S
C2225 H2213 0.950 . S
C2225 C2221 1.393 . S
C2225 C2224 1.391 . S
C2226 H2216 0.950 . S
C2226 C2227 1.386 . S
C2226 C2228 1.391 . S
C2227 C2226 1.386 . S
C2227 C2231 1.393 . S
C2228 H2217 0.950 . S
C2228 C2226 1.391 . S
C2228 C2229 1.400 . S
C2229 C2223 1.491 . S
C2229 C2228 1.400 . S
C2229 C2230 1.398 . S
C2230 H2218 0.950 . S
C2230 C2229 1.398 . S
C2230 C2231 1.391 . S
C2231 H2219 0.950 . S
C2231 C2227 1.393 . S
C2231 C2230 1.391 . S
H2232 C2240 0.950 . S
H2233 C2245 0.950 . S
H2234 C2242 0.950 . S
H2235 C2244 0.950 . S
H2236 C2246 0.950 . S
H2237 C2248 0.950 . S
H2238 C2250 0.950 . S
H2239 C2251 0.950 . S
C2240 H2232 0.950 . S
C2240 C2241 1.386 . S
C2240 C2242 1.391 . S
C2241 C2240 1.386 . S
C2241 C2245 1.393 . S
C2242 H2234 0.950 . S
C2242 C2240 1.391 . S
C2242 C2243 1.400 . S
C2243 C2242 1.400 . S
C2243 C2244 1.398 . S
C2243 C2249 1.491 . S
C2244 H2235 0.950 . S
C2244 C2243 1.398 . S
C2244 C2245 1.391 . S
C2245 H2233 0.950 . S
C2245 C2241 1.393 . S
C2245 C2244 1.391 . S
C2246 H2236 0.950 . S
C2246 C2247 1.386 . S
C2246 C2248 1.391 . S
C2247 C2246 1.386 . S
C2247 C2251 1.393 . S
C2248 H2237 0.950 . S
C2248 C2246 1.391 . S
C2248 C2249 1.400 . S
C2249 C2243 1.491 . S
C2249 C2248 1.400 . S
C2249 C2250 1.398 . S
C2250 H2238 0.950 . S
C2250 C2249 1.398 . S
C2250 C2251 1.391 . S
C2251 H2239 0.950 . S
C2251 C2247 1.393 . S
C2251 C2250 1.391 . S
H2252 C2260 0.950 . S
H2253 C2265 0.950 . S
H2254 C2262 0.950 . S
H2255 C2264 0.950 . S
H2256 C2266 0.950 . S
H2257 C2268 0.950 . S
H2258 C2270 0.950 . S
H2259 C2271 0.950 . S
C2260 H2252 0.950 . S
C2260 C2261 1.386 . S
C2260 C2262 1.391 . S
C2261 C2260 1.386 . S
C2261 C2265 1.393 . S
C2262 H2254 0.950 . S
C2262 C2260 1.391 . S
C2262 C2263 1.400 . S
C2263 C2262 1.400 . S
C2263 C2264 1.398 . S
C2263 C2269 1.491 . S
C2264 H2255 0.950 . S
C2264 C2263 1.398 . S
C2264 C2265 1.391 . S
C2265 H2253 0.950 . S
C2265 C2261 1.393 . S
C2265 C2264 1.391 . S
C2266 H2256 0.950 . S
C2266 C2267 1.386 . S
C2266 C2268 1.391 . S
C2267 C2266 1.386 . S
C2267 C2271 1.393 . S
C2268 H2257 0.950 . S
C2268 C2266 1.391 . S
C2268 C2269 1.400 . S
C2269 C2263 1.491 . S
C2269 C2268 1.400 . S
C2269 C2270 1.398 . S
C2270 H2258 0.950 . S
C2270 C2269 1.398 . S
C2270 C2271 1.391 . S
C2271 H2259 0.950 . S
C2271 C2267 1.393 . S
C2271 C2270 1.391 . S
H2272 C2280 0.950 . S
H2273 C2285 0.950 . S
H2274 C2282 0.950 . S
H2275 C2284 0.919 1_545 S
H2276 C2286 0.950 . S
H2277 C2288 0.950 1_545 S
H2278 C2290 0.950 . S
H2279 C2291 0.950 . S
C2280 H2272 0.950 . S
C2280 C2281 1.386 . S
C2280 C2282 1.391 . S
C2281 C2280 1.386 . S
C2281 C2285 1.393 1_565 S
C2282 H2274 0.950 . S
C2282 C2280 1.391 . S
C2282 C2283 1.400 . S
C2283 C2282 1.400 . S
C2283 C2284 1.442 . S
C2283 C2289 1.491 . S
C2284 H2275 0.919 1_565 S
C2284 C2283 1.442 . S
C2284 C2285 1.381 1_565 S
C2285 H2273 0.950 . S
C2285 C2281 1.393 1_545 S
C2285 C2284 1.381 1_545 S
C2286 H2276 0.950 . S
C2286 C2287 1.386 . S
C2286 C2288 1.391 . S
C2287 C2286 1.386 . S
C2287 C2291 1.393 . S
C2288 H2277 0.950 1_565 S
C2288 C2286 1.391 . S
C2288 C2289 1.400 . S
C2289 C2283 1.491 . S
C2289 C2288 1.400 . S
C2289 C2290 1.398 . S
C2290 H2278 0.950 . S
C2290 C2289 1.398 . S
C2290 C2291 1.391 . S
C2291 H2279 0.950 . S
C2291 C2287 1.393 . S
C2291 C2290 1.391 . S
H2292 C2300 0.950 . S
H2293 C2305 0.956 . S
H2294 C2302 0.950 . S
H2295 C2304 0.950 1_565 S
H2296 C2306 0.950 . S
H2297 C2308 0.950 . S
H2298 C2310 0.950 . S
H2299 C2311 0.950 . S
C2300 H2292 0.950 . S
C2300 C2301 1.386 . S
C2300 C2302 1.391 . S
C2301 C2300 1.386 . S
C2301 C2305 1.388 1_545 S
C2302 H2294 0.950 . S
C2302 C2300 1.391 . S
C2302 C2303 1.400 . S
C2303 C2302 1.400 . S
C2303 C2304 1.398 . S
C2303 C2309 1.491 . S
C2304 H2295 0.950 1_545 S
C2304 C2303 1.398 . S
C2304 C2305 1.389 1_545 S
C2305 H2293 0.956 . S
C2305 C2301 1.388 1_565 S
C2305 C2304 1.389 1_565 S
C2306 H2296 0.950 . S
C2306 C2307 1.386 . S
C2306 C2308 1.391 . S
C2307 C2306 1.386 . S
C2307 C2311 1.393 . S
C2308 H2297 0.950 . S
C2308 C2306 1.391 . S
C2308 C2309 1.400 . S
C2309 C2303 1.491 . S
C2309 C2308 1.400 . S
C2309 C2310 1.398 . S
C2310 H2298 0.950 . S
C2310 C2309 1.398 . S
C2310 C2311 1.391 . S
C2311 H2299 0.950 . S
C2311 C2307 1.393 . S
C2311 C2310 1.391 . S
H2312 C2320 0.950 . S
H2313 C2325 0.950 . S
H2314 C2322 0.950 . S
H2315 C2324 0.950 . S
H2316 C2326 0.950 . S
H2317 C2328 0.950 . S
H2318 C2330 0.950 . S
H2319 C2331 0.950 . S
C2320 H2312 0.950 . S
C2320 C2321 1.386 . S
C2320 C2322 1.391 . S
C2321 C2320 1.386 . S
C2321 C2325 1.393 . S
C2322 H2314 0.950 . S
C2322 C2320 1.391 . S
C2322 C2323 1.400 . S
C2323 C2322 1.400 . S
C2323 C2324 1.398 . S
C2323 C2329 1.491 . S
C2324 H2315 0.950 . S
C2324 C2323 1.398 . S
C2324 C2325 1.391 . S
C2325 H2313 0.950 . S
C2325 C2321 1.393 . S
C2325 C2324 1.391 . S
C2326 H2316 0.950 . S
C2326 C2327 1.386 . S
C2326 C2328 1.391 . S
C2327 C2326 1.386 . S
C2327 C2331 1.393 . S
C2328 H2317 0.950 . S
C2328 C2326 1.391 . S
C2328 C2329 1.400 . S
C2329 C2323 1.491 . S
C2329 C2328 1.400 . S
C2329 C2330 1.398 . S
C2330 H2318 0.950 . S
C2330 C2329 1.398 . S
C2330 C2331 1.391 . S
C2331 H2319 0.950 . S
C2331 C2327 1.393 . S
C2331 C2330 1.391 . S
H2332 C2340 0.950 1_556 S
H2333 C2345 0.950 . S
H2334 C2342 0.978 . S
H2335 C2344 0.950 . S
H2336 C2346 0.950 . S
H2337 C2348 0.950 . S
H2338 C2350 0.950 . S
H2339 C2351 0.950 . S
C2340 H2332 0.950 1_554 S
C2340 C2341 1.386 . S
C2340 C2342 1.391 . S
C2341 C2340 1.386 . S
C2341 C2345 1.393 . S
C2342 H2334 0.978 . S
C2342 C2340 1.391 . S
C2342 C2343 1.400 . S
C2343 C2342 1.400 . S
C2343 C2344 1.398 . S
C2343 C2349 1.491 . S
C2344 H2335 0.950 . S
C2344 C2343 1.398 . S
C2344 C2345 1.391 . S
C2345 H2333 0.950 . S
C2345 C2341 1.393 . S
C2345 C2344 1.391 . S
C2346 H2336 0.950 . S
C2346 C2347 1.386 . S
C2346 C2348 1.391 . S
C2347 C2346 1.386 . S
C2347 C2351 1.393 . S
C2348 H2337 0.950 . S
C2348 C2346 1.391 . S
C2348 C2349 1.400 . S
C2349 C2343 1.491 . S
C2349 C2348 1.400 . S
C2349 C2350 1.398 . S
C2350 H2338 0.950 . S
C2350 C2349 1.398 . S
C2350 C2351 1.391 . S
C2351 H2339 0.950 . S
C2351 C2347 1.393 . S
C2351 C2350 1.391 . S
H2352 C2360 0.950 . S
H2353 C2365 0.950 . S
H2354 C2362 0.950 . S
H2355 C2364 0.950 . S
H2356 C2366 0.950 . S
H2357 C2368 0.950 . S
H2358 C2370 0.950 . S
H2359 C2371 0.950 . S
C2360 H2352 0.950 . S
C2360 C2361 1.386 . S
C2360 C2362 1.391 . S
C2361 C2360 1.386 . S
C2361 C2365 1.393 . S
C2362 H2354 0.950 . S
C2362 C2360 1.391 . S
C2362 C2363 1.400 . S
C2363 C2362 1.400 . S
C2363 C2364 1.398 . S
C2363 C2369 1.491 . S
C2364 H2355 0.950 . S
C2364 C2363 1.398 . S
C2364 C2365 1.391 . S
C2365 H2353 0.950 . S
C2365 C2361 1.393 . S
C2365 C2364 1.391 . S
C2366 H2356 0.950 . S
C2366 C2367 1.386 . S
C2366 C2368 1.391 . S
C2367 C2366 1.386 . S
C2367 C2371 1.393 . S
C2368 H2357 0.950 . S
C2368 C2366 1.391 . S
C2368 C2369 1.400 . S
C2369 C2363 1.491 . S
C2369 C2368 1.400 . S
C2369 C2370 1.398 . S
C2370 H2358 0.950 . S
C2370 C2369 1.398 . S
C2370 C2371 1.391 . S
C2371 H2359 0.950 . S
C2371 C2367 1.393 . S
C2371 C2370 1.391 . S
H2372 C2380 0.950 . S
H2373 C2385 0.950 . S
H2374 C2382 0.950 . S
H2375 C2384 0.950 . S
H2376 C2386 0.950 . S
H2377 C2388 0.950 1_554 S
H2378 C2390 0.950 . S
H2379 C2391 0.950 . S
C2380 H2372 0.950 . S
C2380 C2381 1.386 . S
C2380 C2382 1.391 . S
C2381 C2380 1.386 . S
C2381 C2385 1.393 1_556 S
C2382 H2374 0.950 . S
C2382 C2380 1.391 . S
C2382 C2383 1.400 . S
C2383 C2382 1.400 . S
C2383 C2384 1.398 1_556 S
C2383 C2389 1.491 . S
C2384 H2375 0.950 . S
C2384 C2383 1.398 1_554 S
C2384 C2385 1.391 . S
C2385 H2373 0.950 . S
C2385 C2381 1.393 1_554 S
C2385 C2384 1.391 . S
C2386 H2376 0.950 . S
C2386 C2387 1.386 . S
C2386 C2388 1.391 . S
C2387 C2386 1.386 . S
C2387 C2391 1.393 . S
C2388 H2377 0.950 1_556 S
C2388 C2386 1.391 . S
C2388 C2389 1.400 . S
C2389 C2383 1.491 . S
C2389 C2388 1.400 . S
C2389 C2390 1.398 . S
C2390 H2378 0.950 . S
C2390 C2389 1.398 . S
C2390 C2391 1.391 . S
C2391 H2379 0.950 . S
C2391 C2387 1.393 . S
C2391 C2390 1.391 . S
H2392 C2400 0.950 . S
H2393 C2405 0.950 . S
H2394 C2402 0.950 . S
H2395 C2404 0.950 . S
H2396 C2406 0.950 . S
H2397 C2408 0.950 . S
H2398 C2410 0.950 . S
H2399 C2411 0.950 . S
C2400 H2392 0.950 . S
C2400 C2401 1.386 . S
C2400 C2402 1.391 . S
C2401 C2400 1.386 . S
C2401 C2405 1.393 . S
C2402 H2394 0.950 . S
C2402 C2400 1.391 . S
C2402 C2403 1.400 . S
C2403 C2402 1.400 . S
C2403 C2404 1.398 . S
C2403 C2409 1.491 . S
C2404 H2395 0.950 . S
C2404 C2403 1.398 . S
C2404 C2405 1.391 . S
C2405 H2393 0.950 . S
C2405 C2401 1.393 . S
C2405 C2404 1.391 . S
C2406 H2396 0.950 . S
C2406 C2407 1.386 . S
C2406 C2408 1.391 . S
C2407 C2406 1.386 . S
C2407 C2411 1.393 . S
C2408 H2397 0.950 . S
C2408 C2406 1.391 . S
C2408 C2409 1.400 . S
C2409 C2403 1.491 . S
C2409 C2408 1.400 . S
C2409 C2410 1.398 . S
C2410 H2398 0.950 . S
C2410 C2409 1.398 . S
C2410 C2411 1.391 . S
C2411 H2399 0.950 . S
C2411 C2407 1.393 . S
C2411 C2410 1.391 . S
H2412 C2420 0.950 . S
H2413 C2425 0.950 1_655 S
H2414 C2422 0.950 . S
H2415 C2424 0.950 1_655 S
H2416 C2426 0.950 . S
H2417 C2428 0.950 . S
H2418 C2430 0.950 . S
H2419 C2431 0.950 . S
C2420 H2412 0.950 . S
C2420 C2421 1.386 . S
C2420 C2422 1.391 . S
C2421 C2420 1.386 . S
C2421 C2425 1.393 . S
C2422 H2414 0.950 . S
C2422 C2420 1.391 . S
C2422 C2423 1.400 . S
C2423 C2422 1.400 . S
C2423 C2424 1.398 . S
C2423 C2429 1.491 . S
C2424 H2415 0.950 1_455 S
C2424 C2423 1.398 . S
C2424 C2425 1.391 . S
C2425 H2413 0.950 1_455 S
C2425 C2421 1.393 . S
C2425 C2424 1.391 . S
C2426 H2416 0.950 . S
C2426 C2427 1.386 . S
C2426 C2428 1.391 . S
C2427 C2426 1.386 . S
C2427 C2431 1.393 . S
C2428 H2417 0.950 . S
C2428 C2426 1.391 . S
C2428 C2429 1.400 . S
C2429 C2423 1.491 . S
C2429 C2428 1.400 . S
C2429 C2430 1.398 . S
C2430 H2418 0.950 . S
C2430 C2429 1.398 . S
C2430 C2431 1.391 . S
C2431 H2419 0.950 . S
C2431 C2427 1.393 . S
C2431 C2430 1.391 . S
H2432 C2440 0.950 . S
H2433 C2445 0.950 . S
H2434 C2442 0.950 . S
H2435 C2444 0.950 . S
H2436 C2446 0.950 . S
H2437 C2448 0.950 . S
H2438 C2450 0.950 . S
H2439 C2451 0.950 . S
C2440 H2432 0.950 . S
C2440 C2441 1.386 . S
C2440 C2442 1.391 . S
C2441 C2440 1.386 . S
C2441 C2445 1.393 . S
C2442 H2434 0.950 . S
C2442 C2440 1.391 . S
C2442 C2443 1.400 . S
C2443 C2442 1.400 . S
C2443 C2444 1.398 . S
C2443 C2449 1.491 . S
C2444 H2435 0.950 . S
C2444 C2443 1.398 . S
C2444 C2445 1.391 . S
C2445 H2433 0.950 . S
C2445 C2441 1.393 . S
C2445 C2444 1.391 . S
C2446 H2436 0.950 . S
C2446 C2447 1.386 . S
C2446 C2448 1.391 . S
C2447 C2446 1.386 . S
C2447 C2451 1.393 . S
C2448 H2437 0.950 . S
C2448 C2446 1.391 . S
C2448 C2449 1.400 . S
C2449 C2443 1.491 . S
C2449 C2448 1.400 . S
C2449 C2450 1.398 . S
C2450 H2438 0.950 . S
C2450 C2449 1.398 . S
C2450 C2451 1.391 . S
C2451 H2439 0.950 . S
C2451 C2447 1.393 . S
C2451 C2450 1.391 . S
H2452 C2460 0.950 . S
H2453 C2465 0.950 . S
H2454 C2462 0.950 . S
H2455 C2464 0.944 1_455 S
H2456 C2466 0.950 . S
H2457 C2468 0.950 1_455 S
H2458 C2470 0.950 . S
H2459 C2471 0.950 . S
C2460 H2452 0.950 . S
C2460 C2461 1.386 . S
C2460 C2462 1.391 . S
C2461 C2460 1.386 . S
C2461 C2465 1.393 1_655 S
C2462 H2454 0.950 . S
C2462 C2460 1.391 . S
C2462 C2463 1.400 . S
C2463 C2462 1.400 . S
C2463 C2464 1.406 . S
C2463 C2469 1.491 . S
C2464 H2455 0.944 1_655 S
C2464 C2463 1.406 . S
C2464 C2465 1.389 1_655 S
C2465 H2453 0.950 . S
C2465 C2461 1.393 1_455 S
C2465 C2464 1.389 1_455 S
C2466 H2456 0.950 . S
C2466 C2467 1.386 . S
C2466 C2468 1.391 . S
C2467 C2466 1.386 . S
C2467 C2471 1.393 . S
C2468 H2457 0.950 1_655 S
C2468 C2466 1.391 . S
C2468 C2469 1.400 . S
C2469 C2463 1.491 . S
C2469 C2468 1.400 . S
C2469 C2470 1.398 . S
C2470 H2458 0.950 . S
C2470 C2469 1.398 . S
C2470 C2471 1.391 . S
C2471 H2459 0.950 . S
C2471 C2467 1.393 . S
C2471 C2470 1.391 . S
C1047 C1017 1.804 . S
C1041 C8 1.826 . S
C1067 C921 1.506 . S
C1061 C19 1.459 . S
C1087 C985 1.341 . S
C1081 C30 1.385 . S
C1107 C953 1.990 . S
C1101 C41 1.971 . S
C1127 C729 1.796 . S
C1121 C52 1.830 . S
C1141 C63 1.975 . S
C1147 C761 1.993 . S
C1167 C665 1.489 . S
C1161 C74 1.474 . S
C1181 C85 1.388 . S
C1187 C697 1.338 . S
C1207 C889 1.803 . S
C1201 C96 1.836 . S
C1221 C107 1.979 . S
C1227 C825 1.986 . S
C1241 C118 1.476 . S
C1247 C793 1.496 . S
C1267 C857 1.348 . S
C1261 C129 1.377 . S
C1287 C633 1.830 . S
C1281 C140 1.814 . S
C1301 C151 1.433 . S
C1307 C537 1.479 . S
C1327 C601 1.391 . S
C1321 C162 1.354 . S
C1341 C173 1.919 . S
C1347 C569 1.983 . S
C1367 C345 1.831 . S
C1361 C184 1.797 . S
C1387 C377 1.975 . S
C1381 C195 1.907 . S
C1401 C206 1.411 . S
C1407 C281 1.492 . S
C1421 C217 1.357 . S
C1427 C313 1.374 . S
C1441 C228 1.808 . S
C1447 C505 1.837 . S
C1461 C239 1.902 . S
C1467 C441 1.980 . S
C1487 C409 1.487 . S
C1481 C250 1.405 . S
C1501 C261 1.367 . S
C1507 C473 1.386 . S
C1527 C293 1.203 . S
C1521 C7 1.221 . S
C1547 C325 1.173 . S
C1541 C18 1.175 . S
C1561 C29 1.159 . S
C1567 C357 1.164 . S
C1581 C40 0.921 . S
C1587 C389 0.923 . S
C1607 C421 1.221 . S
C1601 C51 1.226 . S
C1621 C62 0.921 . S
C1627 C453 0.918 . S
C1647 C485 1.187 . S
C1641 C73 1.192 . S
C1667 C517 1.165 . S
C1661 C84 1.166 . S
C1687 C549 1.216 . S
C1681 C95 1.222 . S
C1701 C106 0.919 . S
C1707 C581 0.922 . S
C1721 C117 1.181 . S
C1727 C613 1.181 . S
C1741 C128 1.170 . S
C1747 C645 1.174 . S
C1761 C139 1.159 . S
C1767 C677 1.191 . S
C1781 C150 1.101 . S
C1787 C709 1.113 . S
C1801 C161 1.065 . S
C1807 C741 1.122 . S
C1821 C172 0.897 . S
C1827 C773 0.903 . S
C1841 C183 1.146 . S
C1847 C805 1.159 . S
C1867 C837 0.915 . S
C1861 C194 0.876 . S
C1887 C869 1.093 . S
C1881 C205 1.060 . S
C1907 C901 1.094 . S
C1901 C216 1.092 . S
C1927 C933 1.179 . S
C1921 C227 1.125 . S
C1941 C238 0.880 . S
C1947 C965 0.914 . S
C1961 C249 1.075 . S
C1967 C997 1.090 . S
C1981 C260 1.065 . S
C1987 C1029 1.116 . S
C2001 C5 1.414 . S
C2007 C543 1.677 . S
C2027 C639 1.603 . S
C2021 C16 1.400 . S
C2041 C27 1.216 1_545 S
C2047 C575 1.353 . S
C2067 C607 2.081 . S
C2061 C38 1.835 1_565 S
C2081 C49 1.459 . S
C2087 C287 1.677 . S
C2101 C60 1.848 1_556 S
C2107 C319 2.081 . S
C2121 C71 1.401 . S
C2127 C351 1.597 . S
C2141 C82 1.190 1_554 S
C2147 C383 1.350 . S
C2167 C415 1.674 . S
C2161 C93 1.446 . S
C2187 C479 2.082 . S
C2181 C104 1.838 1_655 S
C2201 C115 1.404 . S
C2207 C511 1.598 . S
C2221 C126 1.230 1_455 S
C2227 C447 1.364 . S
C2247 C927 1.587 . S
C2241 C137 1.262 . S
C2267 C1023 1.509 . S
C2261 C148 1.139 . S
C2281 C159 1.013 . S
C2287 C959 1.279 . S
C2307 C991 1.929 . S
C2301 C170 1.472 . S
C2321 C181 1.259 . S
C2327 C671 1.587 . S
C2341 C192 1.518 . S
C2347 C703 1.949 . S
C2361 C203 1.096 . S
C2367 C735 1.477 . S
C2387 C767 1.281 . S
C2381 C214 1.019 . S
C2407 C799 1.610 . S
C2401 C225 1.272 . S
C2427 C863 1.929 . S
C2421 C236 1.489 . S
C2441 C247 1.102 . S
C2447 C895 1.476 . S
C2467 C831 1.286 . S
C2461 C258 1.010 . S
