# Generated by pormake.
# Topology ptr, (4,4)-cn, num edge types: 1
# Building blocks:
#     Node 0, Type 0, BuildingBlock: TATPOV_clean_sbu_0, # of connection points: 4
#     Node 1, Type 0, BuildingBlock: TATPOV_clean_sbu_0, # of connection points: 4
#     Node 2, Type 0, BuildingBlock: TATPOV_clean_sbu_0, # of connection points: 4
#     Node 3, Type 0, BuildingBlock: TATPOV_clean_sbu_0, # of connection points: 4
#     Node 4, Type 0, BuildingBlock: TATPOV_clean_sbu_0, # of connection points: 4
#     Node 5, Type 0, BuildingBlock: TATPOV_clean_sbu_0, # of connection points: 4
#     Node 6, Type 0, BuildingBlock: TATPOV_clean_sbu_0, # of connection points: 4
#     Node 7, Type 0, BuildingBlock: TATPOV_clean_sbu_0, # of connection points: 4
#     Node 8, Type 0, BuildingBlock: TATPOV_clean_sbu_0, # of connection points: 4
#     Node 9, Type 0, BuildingBlock: TATPOV_clean_sbu_0, # of connection points: 4
#     Node 10, Type 0, BuildingBlock: TATPOV_clean_sbu_0, # of connection points: 4
#     Node 11, Type 0, BuildingBlock: TATPOV_clean_sbu_0, # of connection points: 4
#     Node 12, Type 0, BuildingBlock: TATPOV_clean_sbu_0, # of connection points: 4
#     Node 13, Type 0, BuildingBlock: TATPOV_clean_sbu_0, # of connection points: 4
#     Node 14, Type 0, BuildingBlock: TATPOV_clean_sbu_0, # of connection points: 4
#     Node 15, Type 0, BuildingBlock: TATPOV_clean_sbu_0, # of connection points: 4
#     Node 16, Type 0, BuildingBlock: TATPOV_clean_sbu_0, # of connection points: 4
#     Node 17, Type 0, BuildingBlock: TATPOV_clean_sbu_0, # of connection points: 4
#     Node 18, Type 1, BuildingBlock: NAHDIM_clean_linker_0, # of connection points: 4
#     Node 19, Type 1, BuildingBlock: NAHDIM_clean_linker_0, # of connection points: 4
#     Node 20, Type 1, BuildingBlock: NAHDIM_clean_linker_0, # of connection points: 4
#     Node 21, Type 1, BuildingBlock: NAHDIM_clean_linker_0, # of connection points: 4
#     Node 22, Type 1, BuildingBlock: NAHDIM_clean_linker_0, # of connection points: 4
#     Node 23, Type 1, BuildingBlock: NAHDIM_clean_linker_0, # of connection points: 4
#     Node 24, Type 1, BuildingBlock: NAHDIM_clean_linker_0, # of connection points: 4
#     Node 25, Type 1, BuildingBlock: NAHDIM_clean_linker_0, # of connection points: 4
#     Node 26, Type 1, BuildingBlock: NAHDIM_clean_linker_0, # of connection points: 4
#     Node 27, Type 1, BuildingBlock: NAHDIM_clean_linker_0, # of connection points: 4
#     Node 28, Type 1, BuildingBlock: NAHDIM_clean_linker_0, # of connection points: 4
#     Node 29, Type 1, BuildingBlock: NAHDIM_clean_linker_0, # of connection points: 4
#     Node 30, Type 1, BuildingBlock: NAHDIM_clean_linker_0, # of connection points: 4
#     Node 31, Type 1, BuildingBlock: NAHDIM_clean_linker_0, # of connection points: 4
#     Node 32, Type 1, BuildingBlock: NAHDIM_clean_linker_0, # of connection points: 4
#     Node 33, Type 1, BuildingBlock: NAHDIM_clean_linker_0, # of connection points: 4
#     Node 34, Type 1, BuildingBlock: NAHDIM_clean_linker_0, # of connection points: 4
#     Node 35, Type 1, BuildingBlock: NAHDIM_clean_linker_0, # of connection points: 4
#     Edge 36, Type (0, 1), BuildingBlock: EZIPEK_clean_linker_0, # of connection points: 2
#     Edge 37, Type (0, 1), BuildingBlock: EZIPEK_clean_linker_0, # of connection points: 2
#     Edge 38, Type (0, 1), BuildingBlock: EZIPEK_clean_linker_0, # of connection points: 2
#     Edge 39, Type (0, 1), BuildingBlock: EZIPEK_clean_linker_0, # of connection points: 2
#     Edge 40, Type (0, 1), BuildingBlock: EZIPEK_clean_linker_0, # of connection points: 2
#     Edge 41, Type (0, 1), BuildingBlock: EZIPEK_clean_linker_0, # of connection points: 2
#     Edge 42, Type (0, 1), BuildingBlock: EZIPEK_clean_linker_0, # of connection points: 2
#     Edge 43, Type (0, 1), BuildingBlock: EZIPEK_clean_linker_0, # of connection points: 2
#     Edge 44, Type (0, 1), BuildingBlock: EZIPEK_clean_linker_0, # of connection points: 2
#     Edge 45, Type (0, 1), BuildingBlock: EZIPEK_clean_linker_0, # of connection points: 2
#     Edge 46, Type (0, 1), BuildingBlock: EZIPEK_clean_linker_0, # of connection points: 2
#     Edge 47, Type (0, 1), BuildingBlock: EZIPEK_clean_linker_0, # of connection points: 2
#     Edge 48, Type (0, 1), BuildingBlock: EZIPEK_clean_linker_0, # of connection points: 2
#     Edge 49, Type (0, 1), BuildingBlock: EZIPEK_clean_linker_0, # of connection points: 2
#     Edge 50, Type (0, 1), BuildingBlock: EZIPEK_clean_linker_0, # of connection points: 2
#     Edge 51, Type (0, 1), BuildingBlock: EZIPEK_clean_linker_0, # of connection points: 2
#     Edge 52, Type (0, 1), BuildingBlock: EZIPEK_clean_linker_0, # of connection points: 2
#     Edge 53, Type (0, 1), BuildingBlock: EZIPEK_clean_linker_0, # of connection points: 2
#     Edge 54, Type (0, 1), BuildingBlock: EZIPEK_clean_linker_0, # of connection points: 2
#     Edge 55, Type (0, 1), BuildingBlock: EZIPEK_clean_linker_0, # of connection points: 2
#     Edge 56, Type (0, 1), BuildingBlock: EZIPEK_clean_linker_0, # of connection points: 2
#     Edge 57, Type (0, 1), BuildingBlock: EZIPEK_clean_linker_0, # of connection points: 2
#     Edge 58, Type (0, 1), BuildingBlock: EZIPEK_clean_linker_0, # of connection points: 2
#     Edge 59, Type (0, 1), BuildingBlock: EZIPEK_clean_linker_0, # of connection points: 2
#     Edge 60, Type (0, 1), BuildingBlock: EZIPEK_clean_linker_0, # of connection points: 2
#     Edge 61, Type (0, 1), BuildingBlock: EZIPEK_clean_linker_0, # of connection points: 2
#     Edge 62, Type (0, 1), BuildingBlock: EZIPEK_clean_linker_0, # of connection points: 2
#     Edge 63, Type (0, 1), BuildingBlock: EZIPEK_clean_linker_0, # of connection points: 2
#     Edge 64, Type (0, 1), BuildingBlock: EZIPEK_clean_linker_0, # of connection points: 2
#     Edge 65, Type (0, 1), BuildingBlock: EZIPEK_clean_linker_0, # of connection points: 2
#     Edge 66, Type (0, 1), BuildingBlock: EZIPEK_clean_linker_0, # of connection points: 2
#     Edge 67, Type (0, 1), BuildingBlock: EZIPEK_clean_linker_0, # of connection points: 2
#     Edge 68, Type (0, 1), BuildingBlock: EZIPEK_clean_linker_0, # of connection points: 2
#     Edge 69, Type (0, 1), BuildingBlock: EZIPEK_clean_linker_0, # of connection points: 2
#     Edge 70, Type (0, 1), BuildingBlock: EZIPEK_clean_linker_0, # of connection points: 2
#     Edge 71, Type (0, 1), BuildingBlock: EZIPEK_clean_linker_0, # of connection points: 2
#     Edge 72, Type (0, 1), BuildingBlock: EZIPEK_clean_linker_0, # of connection points: 2
#     Edge 73, Type (0, 1), BuildingBlock: EZIPEK_clean_linker_0, # of connection points: 2
#     Edge 74, Type (0, 1), BuildingBlock: EZIPEK_clean_linker_0, # of connection points: 2
#     Edge 75, Type (0, 1), BuildingBlock: EZIPEK_clean_linker_0, # of connection points: 2
#     Edge 76, Type (0, 1), BuildingBlock: EZIPEK_clean_linker_0, # of connection points: 2
#     Edge 77, Type (0, 1), BuildingBlock: EZIPEK_clean_linker_0, # of connection points: 2
#     Edge 78, Type (0, 1), BuildingBlock: EZIPEK_clean_linker_0, # of connection points: 2
#     Edge 79, Type (0, 1), BuildingBlock: EZIPEK_clean_linker_0, # of connection points: 2
#     Edge 80, Type (0, 1), BuildingBlock: EZIPEK_clean_linker_0, # of connection points: 2
#     Edge 81, Type (0, 1), BuildingBlock: EZIPEK_clean_linker_0, # of connection points: 2
#     Edge 82, Type (0, 1), BuildingBlock: EZIPEK_clean_linker_0, # of connection points: 2
#     Edge 83, Type (0, 1), BuildingBlock: EZIPEK_clean_linker_0, # of connection points: 2
#     Edge 84, Type (0, 1), BuildingBlock: EZIPEK_clean_linker_0, # of connection points: 2
#     Edge 85, Type (0, 1), BuildingBlock: EZIPEK_clean_linker_0, # of connection points: 2
#     Edge 86, Type (0, 1), BuildingBlock: EZIPEK_clean_linker_0, # of connection points: 2
#     Edge 87, Type (0, 1), BuildingBlock: EZIPEK_clean_linker_0, # of connection points: 2
#     Edge 88, Type (0, 1), BuildingBlock: EZIPEK_clean_linker_0, # of connection points: 2
#     Edge 89, Type (0, 1), BuildingBlock: EZIPEK_clean_linker_0, # of connection points: 2
#     Edge 90, Type (0, 1), BuildingBlock: EZIPEK_clean_linker_0, # of connection points: 2
#     Edge 91, Type (0, 1), BuildingBlock: EZIPEK_clean_linker_0, # of connection points: 2
#     Edge 92, Type (0, 1), BuildingBlock: EZIPEK_clean_linker_0, # of connection points: 2
#     Edge 93, Type (0, 1), BuildingBlock: EZIPEK_clean_linker_0, # of connection points: 2
#     Edge 94, Type (0, 1), BuildingBlock: EZIPEK_clean_linker_0, # of connection points: 2
#     Edge 95, Type (0, 1), BuildingBlock: EZIPEK_clean_linker_0, # of connection points: 2
#     Edge 96, Type (0, 1), BuildingBlock: EZIPEK_clean_linker_0, # of connection points: 2
#     Edge 97, Type (0, 1), BuildingBlock: EZIPEK_clean_linker_0, # of connection points: 2
#     Edge 98, Type (0, 1), BuildingBlock: EZIPEK_clean_linker_0, # of connection points: 2
#     Edge 99, Type (0, 1), BuildingBlock: EZIPEK_clean_linker_0, # of connection points: 2
#     Edge 100, Type (0, 1), BuildingBlock: EZIPEK_clean_linker_0, # of connection points: 2
#     Edge 101, Type (0, 1), BuildingBlock: EZIPEK_clean_linker_0, # of connection points: 2
#     Edge 102, Type (0, 1), BuildingBlock: EZIPEK_clean_linker_0, # of connection points: 2
#     Edge 103, Type (0, 1), BuildingBlock: EZIPEK_clean_linker_0, # of connection points: 2
#     Edge 104, Type (0, 1), BuildingBlock: EZIPEK_clean_linker_0, # of connection points: 2
#     Edge 105, Type (0, 1), BuildingBlock: EZIPEK_clean_linker_0, # of connection points: 2
#     Edge 106, Type (0, 1), BuildingBlock: EZIPEK_clean_linker_0, # of connection points: 2
#     Edge 107, Type (0, 1), BuildingBlock: EZIPEK_clean_linker_0, # of connection points: 2
# Relax obj value: 0.077
# Max RMSD: 0.285
# Mean RMSD: 0.116
data_MOF--net-ptr--node1-TATPOV_clean_sbu_0--node2-NAHDIM_clean_linker_0--edge1-EZIPEK_clean_linker_0
_symmetry_space_group_name_H-M    P1
_symmetry_Int_Tables_number       1
_symmetry_cell_setting            triclinic
loop_
_symmetry_equiv_pos_as_xyz
'x, y, z'
_cell_length_a     75.756115
_cell_length_b     76.782833
_cell_length_c     63.89747
_cell_angle_alpha  90.697591
_cell_angle_beta   91.100505
_cell_angle_gamma 121.80458
loop_
_atom_site_label
_atom_site_type_symbol
_atom_site_fract_x
_atom_site_fract_y
_atom_site_fract_z
_atom_type_partial_charge
Zn0 Zn 0.97278 0.35686 0.00902 0.0
Zn1 Zn 0.00147 0.34566 0.01414 0.0
O2 O 0.97397 0.31841 0.00803 0.0
O3 O 0.95069 0.32708 0.00327 0.0
O4 O 0.02208 0.33698 0.01875 0.0
O5 O 0.98044 0.3696 0.03837 0.0
O6 O 0.00367 0.36064 0.04161 0.0
C7 C 0.95542 0.31356 0.0038 0.0
C8 C 0.00628 0.37504 0.97977 0.0
O9 O 0.01285 0.36506 0.98949 0.0
O10 O 0.98974 0.37403 0.98504 0.0
C11 C 0.02192 0.32353 0.00687 0.0
O12 O 0.00853 0.31557 0.99101 0.0
C13 C 0.99466 0.36939 0.04888 0.0
Zn14 Zn 0.66002 0.62803 0.00068 0.0
Zn15 Zn 0.65875 0.66037 0.01869 0.0
O16 O 0.68864 0.67329 0.00944 0.0
O17 O 0.69057 0.6481 0.99507 0.0
O18 O 0.65886 0.68452 0.03198 0.0
O19 O 0.65148 0.61405 0.02851 0.0
O20 O 0.64957 0.63956 0.04217 0.0
C21 C 0.69903 0.66684 0.00042 0.0
C22 C 0.63051 0.6361 0.98068 0.0
O23 O 0.6377 0.65062 0.99432 0.0
O24 O 0.63723 0.62408 0.98004 0.0
C25 C 0.64752 0.69107 0.02538 0.0
O26 O 0.63453 0.68171 0.00946 0.0
C27 C 0.64749 0.62205 0.04371 0.0
Zn28 Zn 0.3381 0.97314 0.00202 0.0
Zn29 Zn 0.34153 0.01074 0.00176 0.0
O30 O 0.31159 0.98945 0.00872 0.0
O31 O 0.30731 0.95876 0.00839 0.0
O32 O 0.34124 0.0368 0.99857 0.0
O33 O 0.34826 0.97777 0.97213 0.0
O34 O 0.35171 0.00788 0.97334 0.0
C35 C 0.3001 0.97021 0.01092 0.0
C36 C 0.36752 0.00414 0.03318 0.0
O37 O 0.3622 0.016 0.02553 0.0
O38 O 0.35962 0.98592 0.02613 0.0
C39 C 0.3264 0.03847 0.00503 0.0
O40 O 0.31161 0.02373 0.01581 0.0
C41 C 0.35327 0.99438 0.96328 0.0
Zn42 Zn 0.03517 0.65824 0.02768 0.0
Zn43 Zn 0.99905 0.654 0.01118 0.0
O44 O 0.01718 0.68342 0.02187 0.0
O45 O 0.04679 0.68857 0.03467 0.0
O46 O 0.97557 0.65543 0.99783 0.0
O47 O 0.03921 0.64877 0.99913 0.0
O48 O 0.01034 0.64579 0.98675 0.0
C49 C 0.03502 0.69522 0.03037 0.0
C50 C 0.99638 0.6279 0.0476 0.0
O51 O 0.98715 0.63286 0.03425 0.0
O52 O 0.01599 0.63649 0.04803 0.0
C53 C 0.9678 0.6642 0.00766 0.0
O54 O 0.97414 0.67009 0.02718 0.0
C55 C 0.02614 0.64432 0.98419 0.0
Zn56 Zn 0.35271 0.38551 0.02724 0.0
Zn57 Zn 0.35082 0.35368 0.00484 0.0
O58 O 0.32293 0.34071 0.01841 0.0
O59 O 0.32249 0.36572 0.03525 0.0
O60 O 0.34702 0.3299 0.98772 0.0
O61 O 0.35929 0.40132 4e-05 0.0
O62 O 0.35536 0.37441 0.98282 0.0
C63 C 0.31366 0.34699 0.02965 0.0
C64 C 0.38232 0.37419 0.04098 0.0
O65 O 0.37473 0.36132 0.02566 0.0
O66 O 0.37568 0.38594 0.04491 0.0
C67 C 0.3411 0.31293 0.99633 0.0
O68 O 0.3388 0.31215 0.01669 0.0
C69 C 0.35863 0.39245 0.98291 0.0
Zn70 Zn 0.67445 0.04559 0.99279 0.0
Zn71 Zn 0.67078 0.01131 0.01041 0.0
O72 O 0.70044 0.02843 0.00096 0.0
O73 O 0.70503 0.05659 0.98711 0.0
O74 O 0.67221 0.98876 0.02419 0.0
O75 O 0.66526 0.05119 0.02058 0.0
O76 O 0.66237 0.02345 0.03389 0.0
C77 C 0.71204 0.04543 0.99228 0.0
C78 C 0.64384 0.00621 0.97229 0.0
O79 O 0.64931 0.99819 0.98633 0.0
O80 O 0.65212 0.02549 0.97172 0.0
C81 C 0.67912 0.97941 0.01396 0.0
O82 O 0.68274 0.98289 0.99395 0.0
C83 C 0.66068 0.03903 0.03561 0.0
Zn84 Zn 0.63361 0.6824 0.33115 0.0
Zn85 Zn 0.6646 0.68002 0.35106 0.0
O86 O 0.64794 0.65363 0.33347 0.0
O87 O 0.6221 0.65409 0.31794 0.0
O88 O 0.68476 0.67472 0.36614 0.0
O89 O 0.62383 0.68549 0.35936 0.0
O90 O 0.64911 0.68376 0.37494 0.0
C91 C 0.63179 0.64512 0.3216 0.0
C92 C 0.67619 0.71496 0.3219 0.0
O93 O 0.68196 0.70589 0.33425 0.0
O94 O 0.65709 0.70797 0.31811 0.0
C95 C 0.69465 0.66852 0.35581 0.0
O96 O 0.69316 0.66768 0.33529 0.0
C97 C 0.63355 0.68587 0.37588 0.0
Zn98 Zn 0.29887 0.94112 0.34005 0.0
Zn99 Zn 0.31006 0.97735 0.35842 0.0
O100 O 0.33667 0.98239 0.34477 0.0
O101 O 0.32769 0.95289 0.32933 0.0
O102 O 0.32046 0.0046 0.37311 0.0
O103 O 0.29119 0.92752 0.36768 0.0
O104 O 0.2997 0.95702 0.38278 0.0
C105 C 0.34117 0.97148 0.33364 0.0
C106 C 0.2759 0.95879 0.32415 0.0
O107 O 0.28745 0.97364 0.33691 0.0
O108 O 0.2776 0.94326 0.32307 0.0
C109 C 0.33083 0.02104 0.36313 0.0
O110 O 0.33329 0.02003 0.34298 0.0
C111 C 0.29279 0.93793 0.38386 0.0
Zn112 Zn 0.01407 0.30263 0.36837 0.0
Zn113 Zn 0.02226 0.3351 0.34434 0.0
O114 O 0.99142 0.32121 0.35157 0.0
O115 O 0.98409 0.29441 0.37026 0.0
O116 O 0.02651 0.35902 0.32765 0.0
O117 O 0.02266 0.292 0.34392 0.0
O118 O 0.03015 0.31885 0.32501 0.0
C119 C 0.97842 0.30542 0.36144 0.0
C120 C 0.04656 0.34218 0.38547 0.0
O121 O 0.04298 0.34886 0.36882 0.0
O122 O 0.03621 0.32321 0.38925 0.0
C123 C 0.02208 0.37097 0.33679 0.0
O124 O 0.01522 0.36714 0.35594 0.0
C125 C 0.02922 0.30193 0.32726 0.0
Zn126 Zn 0.71021 0.98475 0.3724 0.0
Zn127 Zn 0.67784 0.97775 0.3457 0.0
O128 O 0.69158 0.00757 0.35595 0.0
O129 O 0.71638 0.01353 0.37893 0.0
O130 O 0.65476 0.97351 0.3257 0.0
O131 O 0.72348 0.98042 0.34691 0.0
O132 O 0.69582 0.97182 0.32709 0.0
C133 C 0.70599 0.01953 0.36898 0.0
C134 C 0.66902 0.95194 0.38455 0.0
O135 O 0.66284 0.95714 0.3685 0.0
O136 O 0.68827 0.96059 0.38911 0.0
C137 C 0.64919 0.98642 0.32391 0.0
O138 O 0.65817 0.00318 0.33568 0.0
C139 C 0.71381 0.97443 0.32934 0.0
Zn140 Zn 0.01823 0.72308 0.36935 0.0
Zn141 Zn 0.01764 0.6914 0.34762 0.0
O142 O 0.98868 0.67902 0.35845 0.0
O143 O 0.98719 0.7036 0.37491 0.0
O144 O 0.01395 0.66751 0.3307 0.0
O145 O 0.02728 0.7394 0.34227 0.0
O146 O 0.02498 0.71291 0.32571 0.0
C147 C 0.97853 0.68513 0.36843 0.0
C148 C 0.0465 0.71079 0.38578 0.0
O149 O 0.03985 0.69815 0.37025 0.0
O150 O 0.03975 0.72259 0.38882 0.0
C151 C 0.00846 0.6506 0.33921 0.0
O152 O 0.00792 0.64949 0.35971 0.0
C153 C 0.02842 0.73101 0.32555 0.0
Zn154 Zn 0.3164 0.36951 0.32185 0.0
Zn155 Zn 0.31599 0.3365 0.3397 0.0
O156 O 0.3444 0.35463 0.32752 0.0
O157 O 0.34632 0.3814 0.31295 0.0
O158 O 0.32039 0.3155 0.35327 0.0
O159 O 0.31072 0.37645 0.35103 0.0
O160 O 0.30901 0.34909 0.36397 0.0
C161 C 0.35455 0.37123 0.31774 0.0
C162 C 0.28544 0.32838 0.30412 0.0
O163 O 0.29274 0.32155 0.31762 0.0
O164 O 0.29257 0.34746 0.30303 0.0
C165 C 0.32921 0.30808 0.34295 0.0
O166 O 0.33338 0.31271 0.32321 0.0
C167 C 0.30782 0.36492 0.36631 0.0
Zn168 Zn 0.3009 0.02007 0.65647 0.0
Zn169 Zn 0.33259 0.02447 0.68205 0.0
O170 O 0.31693 0.99495 0.67055 0.0
O171 O 0.29211 0.99084 0.64866 0.0
O172 O 0.35399 0.02389 0.70069 0.0
O173 O 0.28932 0.02587 0.68214 0.0
O174 O 0.31576 0.03065 0.70211 0.0
C175 C 0.30187 0.98376 0.65782 0.0
C176 C 0.34235 0.05326 0.64582 0.0
O177 O 0.34875 0.04729 0.66107 0.0
O178 O 0.32319 0.04425 0.64092 0.0
C179 C 0.36408 0.01658 0.69285 0.0
O180 O 0.36203 0.01213 0.67271 0.0
C181 C 0.29885 0.0303 0.69976 0.0
Zn182 Zn 0.98503 0.28302 0.65963 0.0
Zn183 Zn 0.9856 0.31369 0.6817 0.0
O184 O 0.01541 0.32828 0.67135 0.0
O185 O 0.01451 0.30404 0.65157 0.0
O186 O 0.98389 0.33483 0.6989 0.0
O187 O 0.97894 0.26665 0.68582 0.0
O188 O 0.97841 0.29135 0.70319 0.0
C189 C 0.02425 0.32227 0.65897 0.0
C190 C 0.95463 0.29166 0.64464 0.0
O191 O 0.96325 0.306 0.65852 0.0
O192 O 0.96069 0.27923 0.64238 0.0
C193 C 0.98121 0.34822 0.69055 0.0
O194 O 0.98099 0.34947 0.67007 0.0
C195 C 0.97634 0.2738 0.7026 0.0
Zn196 Zn 0.68906 0.64538 0.69394 0.0
Zn197 Zn 0.68543 0.67584 0.67641 0.0
O198 O 0.65749 0.65614 0.68914 0.0
O199 O 0.65871 0.63023 0.70179 0.0
O200 O 0.6784 0.69498 0.66293 0.0
O201 O 0.69662 0.63995 0.66518 0.0
O202 O 0.69296 0.66424 0.65167 0.0
C203 C 0.64874 0.63892 0.69797 0.0
C204 C 0.71758 0.68698 0.71133 0.0
O205 O 0.7095 0.69267 0.69743 0.0
O206 O 0.71134 0.66817 0.71314 0.0
C207 C 0.67431 0.70621 0.67397 0.0
O208 O 0.67745 0.7074 0.69437 0.0
C209 C 0.69705 0.65024 0.64962 0.0
Zn210 Zn 0.36355 0.31462 0.70314 0.0
Zn211 Zn 0.33192 0.31718 0.68232 0.0
O212 O 0.35377 0.34491 0.69486 0.0
O213 O 0.37921 0.34494 0.71206 0.0
O214 O 0.31307 0.32467 0.66722 0.0
O215 O 0.36874 0.30636 0.67435 0.0
O216 O 0.34248 0.30678 0.65925 0.0
C217 C 0.37066 0.35434 0.70557 0.0
C218 C 0.3206 0.28824 0.71829 0.0
O219 O 0.315 0.29586 0.70393 0.0
O220 O 0.3395 0.29359 0.72082 0.0
C221 C 0.3124 0.33968 0.67487 0.0
O222 O 0.31988 0.34638 0.69397 0.0
C223 C 0.35746 0.3038 0.65825 0.0
Zn224 Zn 0.70216 0.06952 0.69972 0.0
Zn225 Zn 0.69109 0.03309 0.67911 0.0
O226 O 0.6649 0.02662 0.69339 0.0
O227 O 0.672 0.05531 0.70944 0.0
O228 O 0.682 0.00655 0.66408 0.0
O229 O 0.70901 0.08295 0.67095 0.0
O230 O 0.69859 0.05305 0.65557 0.0
C231 C 0.65931 0.03661 0.70447 0.0
C232 C 0.7253 0.05079 0.7133 0.0
O233 O 0.71426 0.03734 0.69919 0.0
O234 O 0.72325 0.06591 0.71681 0.0
C235 C 0.67345 0.99009 0.67424 0.0
O236 O 0.67146 0.99078 0.69456 0.0
C237 C 0.70531 0.07206 0.65444 0.0
Zn238 Zn 0.98052 0.70098 0.6444 0.0
Zn239 Zn 0.97688 0.67005 0.66941 0.0
O240 O 0.00639 0.68471 0.65951 0.0
O241 O 0.01085 0.70997 0.63971 0.0
O242 O 0.97665 0.64839 0.6867 0.0
O243 O 0.97301 0.71146 0.67039 0.0
O244 O 0.97061 0.68657 0.68956 0.0
C245 C 0.01783 0.69987 0.64819 0.0
C246 C 0.94939 0.65931 0.63004 0.0
O247 O 0.95501 0.65415 0.6465 0.0
O248 O 0.95772 0.67803 0.62548 0.0
C249 C 0.98029 0.636 0.67727 0.0
O250 O 0.98292 0.63722 0.65697 0.0
C251 C 0.96975 0.70259 0.68778 0.0
C252 C 0.22554 0.26395 0.05857 0.0
C253 C 0.23101 0.28629 0.05765 0.0
C254 C 0.21266 0.29358 0.08435 0.0
C255 C 0.21642 0.30911 0.09866 0.0
C256 C 0.20003 0.3099 0.10737 0.0
C257 C 0.17927 0.29389 0.10265 0.0
C258 C 0.17535 0.27814 0.08801 0.0
C259 C 0.19211 0.27841 0.07866 0.0
C260 C 0.20509 0.32775 0.12183 0.0
C261 C 0.15352 0.2608 0.08244 0.0
C262 C 0.04925 0.30561 0.04041 0.0
C263 C 0.06149 0.29736 0.04958 0.0
C264 C 0.09038 0.3073 0.07465 0.0
C265 C 0.08844 0.28805 0.07468 0.0
C266 C 0.10203 0.28486 0.0869 0.0
C267 C 0.11828 0.30138 0.09886 0.0
C268 C 0.12076 0.32096 0.09825 0.0
C269 C 0.10656 0.32357 0.08638 0.0
C270 C 0.09891 0.26375 0.08712 0.0
C271 C 0.1383 0.33911 0.11024 0.0
C272 C 0.08001 0.29455 0.23453 0.0
C273 C 0.0756 0.27494 0.22848 0.0
C274 C 0.08978 0.27255 0.21693 0.0
C275 C 0.10883 0.29009 0.21149 0.0
C276 C 0.11322 0.30986 0.21733 0.0
C277 C 0.0986 0.31181 0.22859 0.0
C278 C 0.08447 0.25127 0.21067 0.0
C279 C 0.13345 0.32889 0.21189 0.0
C280 C 0.22839 0.25075 0.24512 0.0
C281 C 0.22394 0.26803 0.24392 0.0
C282 C 0.19103 0.26582 0.23637 0.0
C283 C 0.17048 0.25075 0.23112 0.0
C284 C 0.15762 0.25548 0.21965 0.0
C285 C 0.16543 0.27597 0.21384 0.0
C286 C 0.18598 0.29149 0.22 0.0
C287 C 0.1986 0.28622 0.23114 0.0
C288 C 0.13579 0.23854 0.2135 0.0
C289 C 0.19462 0.3136 0.2147 0.0
C290 C 0.16187 0.29327 0.11368 0.0
C291 C 0.14868 0.29761 0.1024 0.0
C292 C 0.1325 0.298 0.11211 0.0
C293 C 0.12986 0.29482 0.13389 0.0
C294 C 0.11414 0.29568 0.14432 0.0
C295 C 0.11221 0.29332 0.16587 0.0
C296 C 0.1257 0.28967 0.17778 0.0
C297 C 0.12419 0.28773 0.19975 0.0
C298 C 0.13746 0.28351 0.21104 0.0
C299 C 0.15224 0.28103 0.20096 0.0
C300 C 0.15414 0.28317 0.17902 0.0
C301 C 0.1687 0.28062 0.16831 0.0
C302 C 0.17098 0.28351 0.14686 0.0
C303 C 0.15883 0.28912 0.13527 0.0
C304 C 0.14323 0.29058 0.14552 0.0
C305 C 0.14101 0.28779 0.16745 0.0
C306 C 0.04375 0.29041 0.27482 0.0
C307 C 0.05076 0.28227 0.25776 0.0
O308 O 0.22928 0.29346 0.07703 0.0
O309 O 0.20298 0.26018 0.24673 0.0
O310 O 0.06711 0.29739 0.24664 0.0
O311 O 0.077 0.31082 0.06375 0.0
H312 H 0.2197 0.28686 0.04679 0.0
H313 H 0.21134 0.25451 0.0676 0.0
H314 H 0.23823 0.26273 0.06587 0.0
H315 H 0.22259 0.25709 0.04253 0.0
H316 H 0.23237 0.32084 0.1028 0.0
H317 H 0.18905 0.26641 0.06744 0.0
H318 H 0.19345 0.33228 0.11995 0.0
H319 H 0.22075 0.34129 0.11895 0.0
H320 H 0.20503 0.32332 0.1383 0.0
H321 H 0.15331 0.2479 0.07412 0.0
H322 H 0.14593 0.26658 0.07202 0.0
H323 H 0.14416 0.25489 0.09669 0.0
H324 H 0.05169 0.28158 0.05563 0.0
H325 H 0.03301 0.29535 0.04607 0.0
H326 H 0.05611 0.30801 0.00919 0.0
H327 H 0.05265 0.31921 0.05055 0.0
H328 H 0.07624 0.27534 0.06545 0.0
H329 H 0.10808 0.33841 0.08612 0.0
H330 H 0.11216 0.26416 0.07952 0.0
H331 H 0.08432 0.25208 0.07874 0.0
H332 H 0.09856 0.25892 0.1035 0.0
H333 H 0.13964 0.35374 0.10601 0.0
H334 H 0.15327 0.34028 0.10722 0.0
H335 H 0.13563 0.33696 0.12728 0.0
H336 H 0.03807 0.27031 0.24729 0.0
H337 H 0.06115 0.26143 0.23277 0.0
H338 H 0.10187 0.32686 0.23332 0.0
H339 H 0.08666 0.25039 0.19364 0.0
H340 H 0.06823 0.23935 0.21432 0.0
H341 H 0.09514 0.2478 0.21914 0.0
H342 H 0.1351 0.34303 0.21883 0.0
H343 H 0.13437 0.33031 0.19462 0.0
H344 H 0.14673 0.3277 0.21751 0.0
H345 H 0.22724 0.27265 0.22748 0.0
H346 H 0.24491 0.25676 0.24157 0.0
H347 H 0.21846 0.23847 0.23333 0.0
H348 H 0.22532 0.24377 0.26073 0.0
H349 H 0.1647 0.2351 0.23556 0.0
H350 H 0.2142 0.29806 0.23603 0.0
H351 H 0.133 0.23865 0.1964 0.0
H352 H 0.12454 0.24114 0.22165 0.0
H353 H 0.1327 0.22317 0.21761 0.0
H354 H 0.20997 0.32408 0.22257 0.0
H355 H 0.18365 0.31833 0.21932 0.0
H356 H 0.19645 0.31535 0.19753 0.0
H357 H 0.151 0.30067 0.08583 0.0
H358 H 0.10333 0.29847 0.136 0.0
H359 H 0.10001 0.29443 0.17309 0.0
H360 H 0.13617 0.28201 0.2279 0.0
H361 H 0.17865 0.27654 0.17641 0.0
H362 H 0.1825 0.2814 0.13952 0.0
H363 H 0.02738 0.28564 0.27009 0.0
H364 H 0.05053 0.30717 0.2718 0.0
H365 H 0.05073 0.2802 0.30172 0.0
C366 C 0.7093 0.91823 0.03315 0.0
C367 C 0.702 0.92535 0.05187 0.0
C368 C 0.71764 0.91968 0.08257 0.0
C369 C 0.7003 0.90556 0.09371 0.0
C370 C 0.70162 0.89242 0.10781 0.0
C371 C 0.72066 0.89331 0.11064 0.0
C372 C 0.73841 0.90811 0.10004 0.0
C373 C 0.73672 0.92135 0.08631 0.0
C374 C 0.68252 0.87729 0.11937 0.0
C375 C 0.75895 0.90956 0.10288 0.0
C376 C 0.67151 0.74425 0.0481 0.0
C377 C 0.67572 0.76409 0.0573 0.0
C378 C 0.69318 0.78706 0.08742 0.0
C379 C 0.71274 0.79767 0.09746 0.0
C380 C 0.71938 0.81578 0.1092 0.0
C381 C 0.70554 0.82274 0.11196 0.0
C382 C 0.68538 0.81155 0.10247 0.0
C383 C 0.6796 0.79412 0.08996 0.0
C384 C 0.74128 0.82756 0.11833 0.0
C385 C 0.66986 0.818 0.10533 0.0
C386 C 0.70384 0.79483 0.24844 0.0
C387 C 0.72417 0.80671 0.24121 0.0
C388 C 0.73024 0.82444 0.22979 0.0
C389 C 0.71567 0.83026 0.2255 0.0
C390 C 0.69531 0.81844 0.23302 0.0
C391 C 0.6897 0.80088 0.24443 0.0
C392 C 0.75212 0.83685 0.22209 0.0
C393 C 0.6794 0.82423 0.22877 0.0
C394 C 0.78185 0.99415 0.26362 0.0
C395 C 0.76234 0.97277 0.26028 0.0
C396 C 0.7592 0.94089 0.24761 0.0
C397 C 0.7716 0.93316 0.24225 0.0
C398 C 0.7636 0.9152 0.22993 0.0
C399 C 0.74241 0.90433 0.22336 0.0
C400 C 0.7296 0.91184 0.22913 0.0
C401 C 0.7382 0.93021 0.24104 0.0
C402 C 0.77778 0.90774 0.22413 0.0
C403 C 0.70678 0.90026 0.22305 0.0
C404 C 0.72124 0.8775 0.12323 0.0
C405 C 0.71574 0.85908 0.11295 0.0
C406 C 0.71229 0.84205 0.12407 0.0
C407 C 0.71438 0.84341 0.14618 0.0
C408 C 0.70953 0.82623 0.15805 0.0
C409 C 0.71178 0.82778 0.17976 0.0
C410 C 0.71899 0.84657 0.19046 0.0
C411 C 0.72139 0.84827 0.21251 0.0
C412 C 0.72871 0.86718 0.22267 0.0
C413 C 0.7336 0.8846 0.21141 0.0
C414 C 0.73085 0.88312 0.18934 0.0
C415 C 0.73505 0.90015 0.17749 0.0
C416 C 0.73175 0.89833 0.15583 0.0
C417 C 0.72483 0.8796 0.14515 0.0
C418 C 0.72113 0.8624 0.1567 0.0
C419 C 0.7237 0.86404 0.17884 0.0
C420 C 0.69675 0.75145 0.27947 0.0
C421 C 0.70836 0.76864 0.26501 0.0
O422 O 0.71641 0.93205 0.06842 0.0
O423 O 0.768 0.95833 0.25962 0.0
O424 O 0.69714 0.77752 0.25939 0.0
O425 O 0.68785 0.77005 0.07561 0.0
H426 H 0.68737 0.9112 0.05602 0.0
H427 H 0.71021 0.90476 0.03755 0.0
H428 H 0.72484 0.93023 0.02791 0.0
H429 H 0.69799 0.9135 0.01975 0.0
H430 H 0.68574 0.90478 0.09147 0.0
H431 H 0.75012 0.93259 0.07787 0.0
H432 H 0.67772 0.86144 0.11449 0.0
H433 H 0.66925 0.87936 0.11636 0.0
H434 H 0.68609 0.87896 0.13647 0.0
H435 H 0.77157 0.92263 0.09443 0.0
H436 H 0.75742 0.89514 0.097 0.0
H437 H 0.76339 0.91132 0.11979 0.0
H438 H 0.68143 0.77689 0.0461 0.0
H439 H 0.67986 0.74837 0.03288 0.0
H440 H 0.63968 0.72544 0.04949 0.0
H441 H 0.68251 0.74067 0.05625 0.0
H442 H 0.7231 0.79208 0.09546 0.0
H443 H 0.66429 0.78592 0.08255 0.0
H444 H 0.74096 0.82507 0.13542 0.0
H445 H 0.74855 0.84427 0.11602 0.0
H446 H 0.75121 0.82255 0.11121 0.0
H447 H 0.65372 0.80529 0.10139 0.0
H448 H 0.67367 0.83083 0.0948 0.0
H449 H 0.67046 0.82338 0.12169 0.0
H450 H 0.71499 0.76515 0.2513 0.0
H451 H 0.73528 0.8022 0.24435 0.0
H452 H 0.6741 0.79165 0.25021 0.0
H453 H 0.75174 0.83674 0.20471 0.0
H454 H 0.76188 0.83084 0.22751 0.0
H455 H 0.75951 0.85305 0.22763 0.0
H456 H 0.66421 0.8134 0.23574 0.0
H457 H 0.67698 0.82451 0.21161 0.0
H458 H 0.68521 0.83988 0.23525 0.0
H459 H 0.75656 0.97325 0.24444 0.0
H460 H 0.77769 0.00602 0.26284 0.0
H461 H 0.79303 0.99709 0.25112 0.0
H462 H 0.7897 0.99577 0.27899 0.0
H463 H 0.78774 0.94146 0.24758 0.0
H464 H 0.72841 0.93586 0.24563 0.0
H465 H 0.77627 0.90406 0.20708 0.0
H466 H 0.77319 0.89346 0.23257 0.0
H467 H 0.79434 0.91923 0.22822 0.0
H468 H 0.69862 0.90732 0.23007 0.0
H469 H 0.69923 0.88415 0.2281 0.0
H470 H 0.70486 0.89991 0.20576 0.0
H471 H 0.71334 0.85774 0.09606 0.0
H472 H 0.70384 0.81135 0.15071 0.0
H473 H 0.70784 0.81402 0.18805 0.0
H474 H 0.73066 0.86835 0.2396 0.0
H475 H 0.74065 0.915 0.18486 0.0
H476 H 0.73492 0.91184 0.1475 0.0
H477 H 0.71462 0.76164 0.30683 0.0
H478 H 0.69373 0.73741 0.27044 0.0
H479 H 0.68004 0.74712 0.27871 0.0
C480 C 0.20196 0.91854 0.0176 0.0
C481 C 0.21466 0.93237 0.03665 0.0
C482 C 0.19587 0.91028 0.06627 0.0
C483 C 0.17911 0.91334 0.06583 0.0
C484 C 0.16272 0.90309 0.07969 0.0
C485 C 0.16287 0.88923 0.09398 0.0
C486 C 0.1798 0.88625 0.09454 0.0
C487 C 0.19617 0.89703 0.08084 0.0
C488 C 0.14502 0.90677 0.07878 0.0
C489 C 0.18036 0.87123 0.10916 0.0
C490 C 0.03391 0.77472 0.02013 0.0
C491 C 0.0494 0.77698 0.03739 0.0
C492 C 0.06095 0.79809 0.06947 0.0
C493 C 0.07789 0.79647 0.07557 0.0
C494 C 0.09368 0.81128 0.08906 0.0
C495 C 0.09248 0.82806 0.09651 0.0
C496 C 0.07494 0.82923 0.09104 0.0
C497 C 0.05921 0.81399 0.07782 0.0
C498 C 0.11185 0.80921 0.09504 0.0
C499 C 0.07314 0.84693 0.09855 0.0
C500 C 0.06834 0.80606 0.23482 0.0
C501 C 0.08695 0.80721 0.23011 0.0
C502 C 0.10173 0.82289 0.21771 0.0
C503 C 0.09806 0.83801 0.21028 0.0
C504 C 0.07979 0.83748 0.21583 0.0
C505 C 0.06517 0.82149 0.22813 0.0
C506 C 0.1213 0.82328 0.21253 0.0
C507 C 0.07568 0.85367 0.2086 0.0
C508 C 0.22321 0.97759 0.25943 0.0
C509 C 0.21512 0.95497 0.26363 0.0
C510 C 0.19907 0.93297 0.23201 0.0
C511 C 0.20072 0.91876 0.21971 0.0
C512 C 0.18373 0.90352 0.20774 0.0
C513 C 0.16502 0.90353 0.20675 0.0
C514 C 0.1637 0.91876 0.21811 0.0
C515 C 0.18065 0.93317 0.23085 0.0
C516 C 0.18579 0.88717 0.19675 0.0
C517 C 0.14428 0.91967 0.21706 0.0
C518 C 0.14453 0.87638 0.10692 0.0
C519 C 0.1273 0.85944 0.09707 0.0
C520 C 0.11031 0.84524 0.10845 0.0
C521 C 0.11068 0.84759 0.13047 0.0
C522 C 0.09456 0.83284 0.14261 0.0
C523 C 0.09537 0.83508 0.16432 0.0
C524 C 0.1122 0.85228 0.1747 0.0
C525 C 0.11346 0.8544 0.19678 0.0
C526 C 0.13048 0.87159 0.20657 0.0
C527 C 0.14652 0.88687 0.19495 0.0
C528 C 0.1455 0.88506 0.17282 0.0
C529 C 0.16125 0.90013 0.16055 0.0
C530 C 0.16092 0.89741 0.13893 0.0
C531 C 0.14455 0.87978 0.12872 0.0
C532 C 0.1278 0.86505 0.1406 0.0
C533 C 0.1284 0.86756 0.16271 0.0
C534 C 0.02843 0.75932 0.22777 0.0
C535 C 0.04656 0.76994 0.24385 0.0
O536 O 0.21188 0.91937 0.05286 0.0
O537 O 0.21555 0.94604 0.24478 0.0
O538 O 0.05339 0.7906 0.24614 0.0
O539 O 0.046 0.78455 0.05568 0.0
H540 H 0.20914 0.94269 0.04109 0.0
H541 H 0.18578 0.90731 0.02207 0.0
H542 H 0.20895 0.90984 0.0119 0.0
H543 H 0.20081 0.92719 0.00448 0.0
H544 H 0.17845 0.92341 0.05461 0.0
H545 H 0.20915 0.89479 0.08108 0.0
H546 H 0.13104 0.89309 0.0716 0.0
H547 H 0.14874 0.9203 0.06937 0.0
H548 H 0.14109 0.90908 0.09481 0.0
H549 H 0.1936 0.86924 0.10618 0.0
H550 H 0.16568 0.85605 0.10749 0.0
H551 H 0.18179 0.87674 0.1256 0.0
H552 H 0.06448 0.78901 0.03133 0.0
H553 H 0.03725 0.76964 0.00516 0.0
H554 H 0.03546 0.78976 0.01765 0.0
H555 H 0.01757 0.76352 0.02399 0.0
H556 H 0.07872 0.78359 0.06996 0.0
H557 H 0.04585 0.81486 0.07326 0.0
H558 H 0.1151 0.8117 0.1122 0.0
H559 H 0.12592 0.82112 0.08713 0.0
H560 H 0.10906 0.79393 0.09047 0.0
H561 H 0.05896 0.84605 0.0921 0.0
H562 H 0.08698 0.86165 0.09395 0.0
H563 H 0.07271 0.8471 0.1159 0.0
H564 H 0.05928 0.76884 0.23723 0.0
H565 H 0.09019 0.79609 0.23629 0.0
H566 H 0.05097 0.82074 0.23223 0.0
H567 H 0.12291 0.82338 0.19529 0.0
H568 H 0.12145 0.80992 0.21879 0.0
H569 H 0.13504 0.83755 0.21917 0.0
H570 H 0.06112 0.85154 0.21491 0.0
H571 H 0.0745 0.85323 0.19123 0.0
H572 H 0.08887 0.8691 0.21356 0.0
H573 H 0.19891 0.94722 0.26904 0.0
H574 H 0.22267 0.98595 0.2734 0.0
H575 H 0.21357 0.97868 0.24681 0.0
H576 H 0.23952 0.98545 0.25426 0.0
H577 H 0.21516 0.91903 0.22026 0.0
H578 H 0.17949 0.94462 0.23972 0.0
H579 H 0.1888 0.89082 0.17996 0.0
H580 H 0.17134 0.87186 0.19774 0.0
H581 H 0.19892 0.88628 0.20347 0.0
H582 H 0.14706 0.93447 0.22341 0.0
H583 H 0.1321 0.90712 0.22638 0.0
H584 H 0.13823 0.91745 0.20065 0.0
H585 H 0.12725 0.85709 0.08027 0.0
H586 H 0.0813 0.81926 0.13545 0.0
H587 H 0.08265 0.82311 0.17289 0.0
H588 H 0.13159 0.87276 0.22355 0.0
H589 H 0.17422 0.91402 0.1676 0.0
H590 H 0.17367 0.90927 0.13029 0.0
H591 H 0.02387 0.74313 0.22514 0.0
H592 H 0.03325 0.7672 0.2126 0.0
H593 H 0.01462 0.75946 0.23294 0.0
C594 C 0.34595 0.12663 0.98732 0.0
C595 C 0.32485 0.10954 0.97797 0.0
C596 C 0.31818 0.12014 0.94451 0.0
C597 C 0.29726 0.11413 0.94583 0.0
C598 C 0.28885 0.12286 0.93302 0.0
C599 C 0.30182 0.13833 0.91901 0.0
C600 C 0.323 0.14449 0.91778 0.0
C601 C 0.33073 0.13486 0.93018 0.0
C602 C 0.26612 0.11555 0.93455 0.0
C603 C 0.33761 0.16143 0.90367 0.0
C604 C 0.26091 0.2548 0.9556 0.0
C605 C 0.27604 0.24857 0.94832 0.0
C606 C 0.27167 0.21512 0.94041 0.0
C607 C 0.29142 0.22185 0.93269 0.0
C608 C 0.29524 0.20841 0.92148 0.0
C609 C 0.27902 0.18775 0.9182 0.0
C610 C 0.25928 0.18073 0.92656 0.0
C611 C 0.25592 0.19454 0.93768 0.0
C612 C 0.31659 0.21625 0.91314 0.0
C613 C 0.24174 0.1587 0.92358 0.0
C614 C 0.25358 0.19993 0.7827 0.0
C615 C 0.27427 0.20751 0.78901 0.0
C616 C 0.27967 0.19526 0.80017 0.0
C617 C 0.26398 0.17509 0.80531 0.0
C618 C 0.2432 0.16723 0.79843 0.0
C619 C 0.23833 0.17972 0.78696 0.0
C620 C 0.30214 0.2039 0.80652 0.0
C621 C 0.22609 0.14578 0.80349 0.0
C622 C 0.28182 0.04794 0.79216 0.0
C623 C 0.27418 0.05534 0.77374 0.0
C624 C 0.28361 0.0902 0.7853 0.0
C625 C 0.29905 0.11094 0.78436 0.0
C626 C 0.29737 0.12598 0.7952 0.0
C627 C 0.27949 0.12008 0.8069 0.0
C628 C 0.26354 0.09913 0.80758 0.0
C629 C 0.26593 0.08435 0.79712 0.0
C630 C 0.3148 0.14813 0.79429 0.0
C631 C 0.24397 0.09231 0.81944 0.0
C632 C 0.29346 0.1487 0.90641 0.0
C633 C 0.29006 0.16275 0.91681 0.0
C634 C 0.28269 0.17347 0.90601 0.0
C635 C 0.27904 0.17061 0.88412 0.0
C636 C 0.27224 0.18166 0.87272 0.0
C637 C 0.26899 0.17896 0.85111 0.0
C638 C 0.27227 0.16498 0.8401 0.0
C639 C 0.26932 0.16235 0.81809 0.0
C640 C 0.27183 0.14767 0.80777 0.0
C641 C 0.27763 0.13574 0.81879 0.0
C642 C 0.28148 0.13874 0.84068 0.0
C643 C 0.28808 0.12754 0.85215 0.0
C644 C 0.29175 0.13057 0.87369 0.0
C645 C 0.28924 0.1451 0.88459 0.0
C646 C 0.2823 0.15634 0.87337 0.0
C647 C 0.27865 0.15333 0.85137 0.0
C648 C 0.23961 0.23766 0.7719 0.0
C649 C 0.25646 0.23248 0.77495 0.0
O650 O 0.32643 0.11149 0.95643 0.0
O651 O 0.28652 0.07659 0.77444 0.0
O652 O 0.2478 0.21153 0.77225 0.0
O653 O 0.26731 0.22775 0.95105 0.0
H654 H 0.31258 0.11213 0.98355 0.0
H655 H 0.35846 0.12406 0.98253 0.0
H656 H 0.34961 0.1417 0.98142 0.0
H657 H 0.34624 0.1277 0.00462 0.0
H658 H 0.28741 0.10233 0.9566 0.0
H659 H 0.34682 0.13923 0.9292 0.0
H660 H 0.26461 0.12744 0.9429 0.0
H661 H 0.25746 0.10107 0.94322 0.0
H662 H 0.2588 0.11311 0.91869 0.0
H663 H 0.35414 0.16694 0.9075 0.0
H664 H 0.33543 0.17462 0.90489 0.0
H665 H 0.33424 0.1557 0.88717 0.0
H666 H 0.27664 0.25111 0.93131 0.0
H667 H 0.2578 0.25226 0.97252 0.0
H668 H 0.24586 0.24567 0.94674 0.0
H669 H 0.26734 0.27128 0.95258 0.0
H670 H 0.30405 0.23737 0.93571 0.0
H671 H 0.24082 0.18939 0.94405 0.0
H672 H 0.31549 0.21387 0.89588 0.0
H673 H 0.32308 0.20744 0.91986 0.0
H674 H 0.32753 0.2328 0.91691 0.0
H675 H 0.22737 0.1556 0.93128 0.0
H676 H 0.2465 0.1484 0.93009 0.0
H677 H 0.23821 0.15487 0.9066 0.0
H678 H 0.26086 0.2363 0.79168 0.0
H679 H 0.28628 0.22281 0.78495 0.0
H680 H 0.22244 0.17391 0.78173 0.0
H681 H 0.30405 0.20609 0.8238 0.0
H682 H 0.31271 0.21888 0.79928 0.0
H683 H 0.30689 0.19298 0.80197 0.0
H684 H 0.21051 0.14246 0.79826 0.0
H685 H 0.22605 0.14353 0.82063 0.0
H686 H 0.22895 0.13452 0.79571 0.0
H687 H 0.25753 0.04999 0.77531 0.0
H688 H 0.2711 0.03159 0.79554 0.0
H689 H 0.28313 0.05665 0.80672 0.0
H690 H 0.29743 0.0506 0.78902 0.0
H691 H 0.31262 0.11532 0.77522 0.0
H692 H 0.25388 0.06841 0.79836 0.0
H693 H 0.31978 0.15489 0.81037 0.0
H694 H 0.30919 0.15696 0.78588 0.0
H695 H 0.32847 0.14995 0.78613 0.0
H696 H 0.23177 0.07607 0.81577 0.0
H697 H 0.23764 0.10211 0.81573 0.0
H698 H 0.24763 0.09393 0.83652 0.0
H699 H 0.29321 0.1654 0.93356 0.0
H700 H 0.26949 0.19265 0.88034 0.0
H701 H 0.26383 0.18794 0.84317 0.0
H702 H 0.26926 0.14552 0.79092 0.0
H703 H 0.29053 0.11633 0.84459 0.0
H704 H 0.29667 0.12141 0.8817 0.0
H705 H 0.24622 0.25421 0.7755 0.0
H706 H 0.22678 0.22865 0.78277 0.0
H707 H 0.23292 0.23426 0.75573 0.0
C708 C 0.79604 0.04738 0.99879 0.0
C709 C 0.79549 0.06169 0.98259 0.0
C710 C 0.81135 0.07335 0.94885 0.0
C711 C 0.80276 0.08462 0.94185 0.0
C712 C 0.8132 0.10037 0.9276 0.0
C713 C 0.8326 0.10488 0.92017 0.0
C714 C 0.8408 0.09284 0.92637 0.0
C715 C 0.82989 0.07701 0.94051 0.0
C716 C 0.80372 0.11255 0.92088 0.0
C717 C 0.86133 0.09711 0.91854 0.0
C718 C 0.93257 0.26051 0.9814 0.0
C719 C 0.9189 0.23847 0.97508 0.0
C720 C 0.90586 0.21663 0.9438 0.0
C721 C 0.91513 0.20966 0.93019 0.0
C722 C 0.90324 0.19091 0.91909 0.0
C723 C 0.88127 0.17968 0.92048 0.0
C724 C 0.87182 0.18686 0.93419 0.0
C725 C 0.8843 0.20496 0.94612 0.0
C726 C 0.91434 0.18338 0.9059 0.0
C727 C 0.84852 0.17571 0.93611 0.0
C728 C 0.90552 0.21162 0.78281 0.0
C729 C 0.91392 0.20402 0.7972 0.0
C730 C 0.90094 0.18665 0.80882 0.0
C731 C 0.87907 0.17755 0.80717 0.0
C732 C 0.87064 0.18578 0.79335 0.0
C733 C 0.88399 0.20241 0.78102 0.0
C734 C 0.9108 0.17791 0.82246 0.0
C735 C 0.84753 0.17696 0.79138 0.0
C736 C 0.77475 0.01347 0.7642 0.0
C737 C 0.77697 0.0342 0.76863 0.0
C738 C 0.80772 0.06696 0.7802 0.0
C739 C 0.82907 0.07618 0.78387 0.0
C740 C 0.84023 0.09377 0.79684 0.0
C741 C 0.82978 0.10268 0.80585 0.0
C742 C 0.80822 0.09372 0.80171 0.0
C743 C 0.79735 0.07582 0.78908 0.0
C744 C 0.86318 0.10282 0.80088 0.0
C745 C 0.79672 0.10321 0.81043 0.0
C746 C 0.84501 0.1233 0.90748 0.0
C747 C 0.8577 0.14195 0.9183 0.0
C748 C 0.86821 0.16044 0.90779 0.0
C749 C 0.86617 0.1603 0.88571 0.0
C750 C 0.87546 0.17861 0.87459 0.0
C751 C 0.87472 0.17825 0.85282 0.0
C752 C 0.86451 0.15957 0.84135 0.0
C753 C 0.86512 0.15901 0.81926 0.0
C754 C 0.85351 0.14025 0.8083 0.0
C755 C 0.84164 0.12189 0.81877 0.0
C756 C 0.84186 0.12204 0.84093 0.0
C757 C 0.83103 0.1038 0.85209 0.0
C758 C 0.83179 0.10416 0.87391 0.0
C759 C 0.84362 0.12275 0.88537 0.0
C760 C 0.85441 0.14134 0.87445 0.0
C761 C 0.85348 0.14098 0.85223 0.0
C762 C 0.94734 0.25144 0.75123 0.0
C763 C 0.93881 0.24054 0.77112 0.0
O764 O 0.802 0.05877 0.96344 0.0
O765 O 0.79774 0.04966 0.76791 0.0
O766 O 0.91743 0.22712 0.76976 0.0
O767 O 0.91785 0.23517 0.9536 0.0
H768 H 0.80757 0.07701 0.98891 0.0
H769 H 0.81199 0.0502 0.0002 0.0
H770 H 0.78527 0.03095 0.99463 0.0
H771 H 0.79185 0.0505 0.01437 0.0
H772 H 0.78791 0.08117 0.94739 0.0
H773 H 0.83617 0.06791 0.9457 0.0
H774 H 0.81359 0.12858 0.92695 0.0
H775 H 0.78777 0.10606 0.92672 0.0
H776 H 0.80312 0.113 0.90353 0.0
H777 H 0.86516 0.0858 0.92413 0.0
H778 H 0.87389 0.11269 0.92394 0.0
H779 H 0.861 0.09683 0.90115 0.0
H780 H 0.92187 0.2277 0.98378 0.0
H781 H 0.94607 0.26151 0.99027 0.0
H782 H 0.91236 0.26733 0.99519 0.0
H783 H 0.94184 0.26878 0.96736 0.0
H784 H 0.93184 0.21878 0.92858 0.0
H785 H 0.87704 0.21031 0.95663 0.0
H786 H 0.91512 0.18853 0.88961 0.0
H787 H 0.90615 0.16639 0.90555 0.0
H788 H 0.93055 0.18975 0.91183 0.0
H789 H 0.84357 0.18562 0.94338 0.0
H790 H 0.84332 0.16224 0.94614 0.0
H791 H 0.84052 0.17012 0.92055 0.0
H792 H 0.94382 0.25047 0.78559 0.0
H793 H 0.93055 0.21109 0.79903 0.0
H794 H 0.87763 0.2084 0.76992 0.0
H795 H 0.91216 0.1835 0.83885 0.0
H796 H 0.92668 0.1828 0.81739 0.0
H797 H 0.90132 0.1609 0.82223 0.0
H798 H 0.84392 0.18764 0.78361 0.0
H799 H 0.84044 0.17333 0.80701 0.0
H800 H 0.84017 0.1625 0.78185 0.0
H801 H 0.77237 0.03396 0.78506 0.0
H802 H 0.7584 0.00074 0.76594 0.0
H803 H 0.78468 0.01126 0.77552 0.0
H804 H 0.77947 0.01246 0.74813 0.0
H805 H 0.83693 0.0693 0.7768 0.0
H806 H 0.78088 0.06901 0.78589 0.0
H807 H 0.867 0.10578 0.81792 0.0
H808 H 0.87209 0.11773 0.793 0.0
H809 H 0.86839 0.09263 0.79496 0.0
H810 H 0.78039 0.09537 0.80435 0.0
H811 H 0.80479 0.11966 0.80644 0.0
H812 H 0.79662 0.10239 0.82776 0.0
H813 H 0.8591 0.1421 0.93525 0.0
H814 H 0.88366 0.19344 0.88257 0.0
H815 H 0.88245 0.19281 0.84507 0.0
H816 H 0.85401 0.13988 0.79135 0.0
H817 H 0.82196 0.08903 0.84407 0.0
H818 H 0.82325 0.08966 0.88171 0.0
H819 H 0.96686 0.24168 0.74196 0.0
H820 H 0.95315 0.26798 0.75512 0.0
H821 H 0.93376 0.24893 0.74119 0.0
C822 C 0.79715 0.71122 0.00214 0.0
C823 C 0.78653 0.71461 0.9831 0.0
C824 C 0.80492 0.70985 0.95412 0.0
C825 C 0.82244 0.72991 0.95442 0.0
C826 C 0.83925 0.73507 0.94155 0.0
C827 C 0.83878 0.71976 0.92855 0.0
C828 C 0.82127 0.69951 0.92841 0.0
C829 C 0.80441 0.69496 0.94091 0.0
C830 C 0.85761 0.75686 0.94199 0.0
C831 C 0.82043 0.68256 0.91533 0.0
C832 C 0.99132 0.73837 0.96335 0.0
C833 C 0.96794 0.72416 0.95863 0.0
C834 C 0.94202 0.73322 0.95081 0.0
C835 C 0.92548 0.71431 0.94309 0.0
C836 C 0.90913 0.71315 0.93113 0.0
C837 C 0.90917 0.73128 0.92723 0.0
C838 C 0.92552 0.7503 0.93558 0.0
C839 C 0.94172 0.75099 0.94737 0.0
C840 C 0.8917 0.69255 0.92286 0.0
C841 C 0.92582 0.76985 0.9321 0.0
C842 C 0.93731 0.73802 0.78751 0.0
C843 C 0.92272 0.71996 0.79751 0.0
C844 C 0.90776 0.71963 0.81038 0.0
C845 C 0.90773 0.73785 0.81397 0.0
C846 C 0.92259 0.75611 0.80431 0.0
C847 C 0.93703 0.75587 0.79106 0.0
C848 C 0.89174 0.69964 0.81988 0.0
C849 C 0.92311 0.77584 0.80786 0.0
C850 C 0.7645 0.72606 0.79585 0.0
C851 C 0.77859 0.73121 0.77686 0.0
C852 C 0.80455 0.72372 0.79098 0.0
C853 C 0.80862 0.70806 0.79279 0.0
C854 C 0.82542 0.71071 0.8051 0.0
C855 C 0.83889 0.72981 0.81545 0.0
C856 C 0.83508 0.74591 0.81346 0.0
C857 C 0.81774 0.74261 0.80152 0.0
C858 C 0.8288 0.69307 0.80691 0.0
C859 C 0.84944 0.76666 0.8238 0.0
C860 C 0.85698 0.72473 0.91582 0.0
C861 C 0.87419 0.7262 0.92609 0.0
C862 C 0.89168 0.73022 0.91514 0.0
C863 C 0.89209 0.73275 0.89323 0.0
C864 C 0.90934 0.73656 0.88168 0.0
C865 C 0.90934 0.73846 0.86005 0.0
C866 C 0.89207 0.73652 0.84913 0.0
C867 C 0.89152 0.73742 0.82705 0.0
C868 C 0.87433 0.73596 0.81675 0.0
C869 C 0.85724 0.73298 0.82779 0.0
C870 C 0.85727 0.73152 0.84985 0.0
C871 C 0.84014 0.72798 0.86146 0.0
C872 C 0.84017 0.72617 0.8831 0.0
C873 C 0.85715 0.72741 0.89394 0.0
C874 C 0.87471 0.73126 0.8826 0.0
C875 C 0.87476 0.7333 0.86053 0.0
C876 C 0.97723 0.73046 0.78129 0.0
C877 C 0.95686 0.72468 0.76962 0.0
O878 O 0.78823 0.704 0.96628 0.0
O879 O 0.78784 0.71976 0.77881 0.0
O880 O 0.95158 0.73909 0.77405 0.0
O881 O 0.95809 0.73481 0.96226 0.0
H882 H 0.79421 0.7312 0.97998 0.0
H883 H 0.81235 0.71355 0.99774 0.0
H884 H 0.78736 0.6953 0.00771 0.0
H885 H 0.80064 0.72217 0.01528 0.0
H886 H 0.82324 0.74169 0.96454 0.0
H887 H 0.79086 0.67954 0.94081 0.0
H888 H 0.87115 0.75745 0.94977 0.0
H889 H 0.85439 0.7675 0.9506 0.0
H890 H 0.86199 0.76231 0.9258 0.0
H891 H 0.80707 0.66722 0.91923 0.0
H892 H 0.83501 0.68258 0.91761 0.0
H893 H 0.81893 0.68513 0.89851 0.0
H894 H 0.96724 0.72111 0.94159 0.0
H895 H 0.99474 0.74385 0.97993 0.0
H896 H 0.99772 0.75201 0.95333 0.0
H897 H 0.99951 0.73024 0.95987 0.0
H898 H 0.92497 0.7004 0.94689 0.0
H899 H 0.95437 0.76548 0.95379 0.0
H900 H 0.88979 0.69303 0.90564 0.0
H901 H 0.87689 0.68895 0.92992 0.0
H902 H 0.89447 0.68004 0.92638 0.0
H903 H 0.93959 0.7834 0.93976 0.0
H904 H 0.91153 0.7684 0.93834 0.0
H905 H 0.92587 0.77251 0.91506 0.0
H906 H 0.9457 0.7095 0.77583 0.0
H907 H 0.92235 0.70585 0.79524 0.0
H908 H 0.94828 0.76974 0.78335 0.0
H909 H 0.89481 0.70044 0.83702 0.0
H910 H 0.89197 0.68635 0.8132 0.0
H911 H 0.8759 0.69688 0.81738 0.0
H912 H 0.9371 0.78919 0.80126 0.0
H913 H 0.92283 0.77876 0.82488 0.0
H914 H 0.90908 0.77447 0.80035 0.0
H915 H 0.79045 0.74786 0.77681 0.0
H916 H 0.75906 0.73673 0.79821 0.0
H917 H 0.7732 0.72713 0.81049 0.0
H918 H 0.75081 0.71016 0.7942 0.0
H919 H 0.79838 0.69356 0.7846 0.0
H920 H 0.81484 0.75492 0.80039 0.0
H921 H 0.83156 0.69092 0.82354 0.0
H922 H 0.8428 0.69657 0.7982 0.0
H923 H 0.81536 0.67848 0.80042 0.0
H924 H 0.84566 0.77819 0.81892 0.0
H925 H 0.8658 0.7723 0.81994 0.0
H926 H 0.84828 0.76533 0.84106 0.0
H927 H 0.8739 0.72403 0.94286 0.0
H928 H 0.92296 0.73796 0.88923 0.0
H929 H 0.92301 0.74131 0.85194 0.0
H930 H 0.87393 0.73641 0.79978 0.0
H931 H 0.82648 0.72651 0.85393 0.0
H932 H 0.8266 0.72354 0.89122 0.0
H933 H 0.98245 0.71999 0.77635 0.0
H934 H 0.97462 0.72887 0.7984 0.0
H935 H 0.98986 0.74648 0.77876 0.0
C936 C 0.88585 0.60183 0.35916 0.0
C937 C 0.89153 0.61969 0.37447 0.0
C938 C 0.87624 0.61758 0.40806 0.0
C939 C 0.88274 0.63811 0.41212 0.0
C940 C 0.87132 0.64318 0.42516 0.0
C941 C 0.85271 0.62732 0.43376 0.0
C942 C 0.8463 0.60656 0.42979 0.0
C943 C 0.85853 0.60201 0.41742 0.0
C944 C 0.87891 0.66546 0.42935 0.0
C945 C 0.8262 0.58912 0.43795 0.0
C946 C 0.73485 0.65586 0.37112 0.0
C947 C 0.74615 0.64657 0.38028 0.0
C948 C 0.77593 0.65558 0.40347 0.0
C949 C 0.76993 0.63516 0.40713 0.0
C950 C 0.78194 0.63067 0.42032 0.0
C951 C 0.80047 0.64689 0.42987 0.0
C952 C 0.80669 0.66744 0.4261 0.0
C953 C 0.79423 0.6715 0.41303 0.0
C954 C 0.77483 0.60856 0.42406 0.0
C955 C 0.82649 0.68506 0.43586 0.0
C956 C 0.75685 0.63991 0.56138 0.0
C957 C 0.75126 0.62135 0.55098 0.0
C958 C 0.7663 0.61882 0.54137 0.0
C959 C 0.78729 0.63523 0.5419 0.0
C960 C 0.79298 0.65386 0.55241 0.0
C961 C 0.77767 0.6559 0.56208 0.0
C962 C 0.75971 0.59866 0.53044 0.0
C963 C 0.81521 0.67167 0.55319 0.0
C964 C 0.88992 0.57459 0.57233 0.0
C965 C 0.88935 0.59424 0.57238 0.0
C966 C 0.85979 0.5984 0.56733 0.0
C967 C 0.83857 0.58617 0.56245 0.0
C968 C 0.82819 0.59407 0.55152 0.0
C969 C 0.83925 0.61499 0.5461 0.0
C970 C 0.86045 0.62781 0.55237 0.0
C971 C 0.87061 0.61928 0.5626 0.0
C972 C 0.80554 0.57991 0.54535 0.0
C973 C 0.87248 0.65041 0.54793 0.0
C974 C 0.83919 0.63241 0.44549 0.0
C975 C 0.82738 0.63821 0.43388 0.0
C976 C 0.81345 0.64221 0.44351 0.0
C977 C 0.81121 0.64052 0.46542 0.0
C978 C 0.7972 0.64428 0.47558 0.0
C979 C 0.79475 0.64213 0.4971 0.0
C980 C 0.80607 0.63593 0.50926 0.0
C981 C 0.80315 0.633 0.53102 0.0
C982 C 0.81463 0.62683 0.54266 0.0
C983 C 0.82882 0.62311 0.5331 0.0
C984 C 0.83193 0.6259 0.51131 0.0
C985 C 0.84594 0.62215 0.50109 0.0
C986 C 0.84877 0.6248 0.47966 0.0
C987 C 0.8372 0.63066 0.46746 0.0
C988 C 0.82307 0.63464 0.47743 0.0
C989 C 0.82048 0.63232 0.49938 0.0
C990 C 0.71092 0.63003 0.55075 0.0
C991 C 0.72149 0.63007 0.57155 0.0
O992 O 0.88644 0.61242 0.3946 0.0
O993 O 0.86938 0.58951 0.57635 0.0
O994 O 0.74288 0.64319 0.57085 0.0
O995 O 0.76445 0.66049 0.39108 0.0
H996 H 0.88136 0.62556 0.37009 0.0
H997 H 0.86911 0.5899 0.36032 0.0
H998 H 0.89503 0.59469 0.36249 0.0
H999 H 0.88867 0.60712 0.34279 0.0
H1000 H 0.8967 0.65011 0.40504 0.0
H1001 H 0.85376 0.58621 0.41414 0.0
H1002 H 0.86892 0.66952 0.42039 0.0
H1003 H 0.89523 0.67575 0.42462 0.0
H1004 H 0.87782 0.66827 0.44623 0.0
H1005 H 0.82178 0.57416 0.43049 0.0
H1006 H 0.81335 0.59185 0.43518 0.0
H1007 H 0.8279 0.58803 0.45509 0.0
H1008 H 0.7483 0.63648 0.36926 0.0
H1009 H 0.73532 0.65405 0.35368 0.0
H1010 H 0.74606 0.67296 0.37157 0.0
H1011 H 0.70744 0.64196 0.38694 0.0
H1012 H 0.75585 0.62261 0.39982 0.0
H1013 H 0.79875 0.68719 0.41015 0.0
H1014 H 0.78638 0.60524 0.41788 0.0
H1015 H 0.75945 0.59771 0.41643 0.0
H1016 H 0.77382 0.60577 0.44114 0.0
H1017 H 0.82954 0.70018 0.4308 0.0
H1018 H 0.83984 0.68366 0.43162 0.0
H1019 H 0.82555 0.68451 0.45318 0.0
H1020 H 0.71851 0.61454 0.57428 0.0
H1021 H 0.73526 0.60877 0.55014 0.0
H1022 H 0.78186 0.67014 0.57012 0.0
H1023 H 0.76206 0.60099 0.51337 0.0
H1024 H 0.74314 0.58685 0.53289 0.0
H1025 H 0.76948 0.59278 0.5362 0.0
H1026 H 0.81703 0.68534 0.5615 0.0
H1027 H 0.82084 0.67592 0.53703 0.0
H1028 H 0.82522 0.66711 0.56126 0.0
H1029 H 0.8926 0.59999 0.55619 0.0
H1030 H 0.90546 0.57787 0.56789 0.0
H1031 H 0.87822 0.5633 0.56075 0.0
H1032 H 0.88647 0.56752 0.58793 0.0
H1033 H 0.83034 0.57014 0.56649 0.0
H1034 H 0.88694 0.62892 0.56692 0.0
H1035 H 0.80293 0.5812 0.52843 0.0
H1036 H 0.79607 0.58444 0.55426 0.0
H1037 H 0.7999 0.56364 0.54861 0.0
H1038 H 0.88728 0.65884 0.55731 0.0
H1039 H 0.86304 0.65725 0.55134 0.0
H1040 H 0.87623 0.65256 0.53111 0.0
H1041 H 0.8287 0.63918 0.41699 0.0
H1042 H 0.78791 0.64888 0.467 0.0
H1043 H 0.78373 0.64522 0.50405 0.0
H1044 H 0.81212 0.62441 0.55931 0.0
H1045 H 0.85492 0.61711 0.50952 0.0
H1046 H 0.85993 0.6219 0.4727 0.0
H1047 H 0.69385 0.61923 0.55118 0.0
H1048 H 0.71679 0.62511 0.5376 0.0
H1049 H 0.71386 0.64545 0.54737 0.0
C1050 C 0.39282 0.28062 0.36262 0.0
C1051 C 0.37344 0.27133 0.3761 0.0
C1052 C 0.37899 0.25802 0.40785 0.0
C1053 C 0.36136 0.24383 0.41843 0.0
C1054 C 0.36115 0.22811 0.4296 0.0
C1055 C 0.37921 0.22696 0.43046 0.0
C1056 C 0.39723 0.24163 0.42008 0.0
C1057 C 0.3969 0.25707 0.40887 0.0
C1058 C 0.34164 0.21272 0.44043 0.0
C1059 C 0.41679 0.24098 0.42092 0.0
C1060 C 0.35098 0.07639 0.37581 0.0
C1061 C 0.36238 0.09777 0.38459 0.0
C1062 C 0.35563 0.12161 0.40322 0.0
C1063 C 0.37666 0.13635 0.40788 0.0
C1064 C 0.38234 0.15408 0.41988 0.0
C1065 C 0.3667 0.15707 0.42751 0.0
C1066 C 0.34555 0.14232 0.4228 0.0
C1067 C 0.34031 0.1248 0.41065 0.0
C1068 C 0.40504 0.1696 0.42451 0.0
C1069 C 0.32848 0.14502 0.43073 0.0
C1070 C 0.36624 0.12362 0.56319 0.0
C1071 C 0.38688 0.13756 0.5578 0.0
C1072 C 0.39194 0.15519 0.5466 0.0
C1073 C 0.37606 0.1588 0.54068 0.0
C1074 C 0.35529 0.14468 0.54604 0.0
C1075 C 0.35069 0.12727 0.5572 0.0
C1076 C 0.41421 0.17 0.54109 0.0
C1077 C 0.33795 0.14806 0.54007 0.0
C1078 C 0.40455 0.30796 0.57784 0.0
C1079 C 0.3856 0.28639 0.58138 0.0
C1080 C 0.39208 0.25964 0.57058 0.0
C1081 C 0.40914 0.25747 0.5685 0.0
C1082 C 0.40819 0.24247 0.5549 0.0
C1083 C 0.38942 0.22887 0.54367 0.0
C1084 C 0.37189 0.23068 0.54615 0.0
C1085 C 0.37351 0.24621 0.55937 0.0
C1086 C 0.42718 0.24103 0.55271 0.0
C1087 C 0.35126 0.21591 0.53529 0.0
C1088 C 0.37906 0.21021 0.44197 0.0
C1089 C 0.37433 0.19253 0.43058 0.0
C1090 C 0.37244 0.17556 0.44055 0.0
C1091 C 0.37528 0.17612 0.46255 0.0
C1092 C 0.37305 0.15915 0.47313 0.0
C1093 C 0.37521 0.1596 0.49484 0.0
C1094 C 0.37967 0.17703 0.50679 0.0
C1095 C 0.38097 0.1773 0.5289 0.0
C1096 C 0.38495 0.19469 0.54034 0.0
C1097 C 0.38764 0.21198 0.53033 0.0
C1098 C 0.38674 0.21215 0.50819 0.0
C1099 C 0.38972 0.22938 0.49754 0.0
C1100 C 0.38749 0.2289 0.47583 0.0
C1101 C 0.38235 0.21122 0.46393 0.0
C1102 C 0.3802 0.194 0.47427 0.0
C1103 C 0.38243 0.19448 0.49642 0.0
C1104 C 0.36218 0.08488 0.59943 0.0
C1105 C 0.37325 0.10065 0.5834 0.0
O1106 O 0.37889 0.27305 0.39716 0.0
O1107 O 0.39354 0.27393 0.5845 0.0
O1108 O 0.36055 0.10669 0.57446 0.0
O1109 O 0.34947 0.1041 0.39188 0.0
H1110 H 0.36454 0.25494 0.37091 0.0
H1111 H 0.39987 0.2711 0.36355 0.0
H1112 H 0.4049 0.29642 0.36776 0.0
H1113 H 0.38845 0.28076 0.34595 0.0
H1114 H 0.34775 0.24505 0.41783 0.0
H1115 H 0.41059 0.26844 0.40089 0.0
H1116 H 0.33687 0.19693 0.4353 0.0
H1117 H 0.32856 0.21502 0.43717 0.0
H1118 H 0.34474 0.21403 0.4576 0.0
H1119 H 0.42982 0.25414 0.41296 0.0
H1120 H 0.41372 0.22653 0.41329 0.0
H1121 H 0.42157 0.24105 0.43747 0.0
H1122 H 0.3747 0.10933 0.37442 0.0
H1123 H 0.35459 0.07793 0.35869 0.0
H1124 H 0.3343 0.0718 0.37327 0.0
H1125 H 0.35973 0.06132 0.39584 0.0
H1126 H 0.38874 0.13413 0.40223 0.0
H1127 H 0.32415 0.11336 0.40703 0.0
H1128 H 0.40895 0.18493 0.41921 0.0
H1129 H 0.41538 0.16545 0.41677 0.0
H1130 H 0.40821 0.17087 0.44168 0.0
H1131 H 0.31276 0.13182 0.42629 0.0
H1132 H 0.33015 0.15916 0.42428 0.0
H1133 H 0.32983 0.14691 0.44806 0.0
H1134 H 0.38145 0.09695 0.57151 0.0
H1135 H 0.39902 0.13479 0.56232 0.0
H1136 H 0.33485 0.11642 0.56152 0.0
H1137 H 0.41536 0.17144 0.52383 0.0
H1138 H 0.42481 0.16508 0.54688 0.0
H1139 H 0.4195 0.18542 0.54792 0.0
H1140 H 0.32257 0.13546 0.54519 0.0
H1141 H 0.33721 0.14931 0.52282 0.0
H1142 H 0.34112 0.1627 0.54727 0.0
H1143 H 0.37558 0.28149 0.56694 0.0
H1144 H 0.40016 0.31888 0.57256 0.0
H1145 H 0.41423 0.30716 0.56546 0.0
H1146 H 0.41426 0.31418 0.59247 0.0
H1147 H 0.42331 0.26771 0.57747 0.0
H1148 H 0.35998 0.24729 0.56158 0.0
H1149 H 0.43008 0.23996 0.5359 0.0
H1150 H 0.42449 0.2269 0.56021 0.0
H1151 H 0.44127 0.25441 0.56016 0.0
H1152 H 0.33847 0.2174 0.54142 0.0
H1153 H 0.34718 0.19986 0.53718 0.0
H1154 H 0.35233 0.21894 0.51829 0.0
H1155 H 0.37171 0.19184 0.41375 0.0
H1156 H 0.3694 0.14523 0.46478 0.0
H1157 H 0.37316 0.14603 0.50214 0.0
H1158 H 0.38517 0.19446 0.55732 0.0
H1159 H 0.39354 0.24334 0.50593 0.0
H1160 H 0.38968 0.24252 0.46849 0.0
H1161 H 0.37839 0.09922 0.62697 0.0
H1162 H 0.36108 0.07067 0.59284 0.0
H1163 H 0.34508 0.07877 0.59718 0.0
C1164 C 0.88295 0.2487 0.35169 0.0
C1165 C 0.89047 0.26531 0.36926 0.0
C1166 C 0.86975 0.24352 0.39832 0.0
C1167 C 0.85193 0.24459 0.39517 0.0
C1168 C 0.83401 0.23233 0.40666 0.0
C1169 C 0.83374 0.21837 0.42113 0.0
C1170 C 0.85154 0.21695 0.4239 0.0
C1171 C 0.86943 0.22991 0.4128 0.0
C1172 C 0.81542 0.23441 0.40344 0.0
C1173 C 0.85176 0.20174 0.4385 0.0
C1174 C 0.6984 0.09495 0.35313 0.0
C1175 C 0.71579 0.09956 0.36913 0.0
C1176 C 0.73018 0.12455 0.39813 0.0
C1177 C 0.74598 0.12229 0.40671 0.0
C1178 C 0.76254 0.13831 0.41853 0.0
C1179 C 0.76298 0.15677 0.4221 0.0
C1180 C 0.74667 0.1588 0.41398 0.0
C1181 C 0.73034 0.14253 0.40222 0.0
C1182 C 0.77948 0.13551 0.42731 0.0
C1183 C 0.74656 0.1782 0.41765 0.0
C1184 C 0.73226 0.13649 0.55878 0.0
C1185 C 0.75027 0.136 0.55535 0.0
C1186 C 0.76638 0.15107 0.54351 0.0
C1187 C 0.76467 0.1672 0.5354 0.0
C1188 C 0.74704 0.1683 0.53973 0.0
C1189 C 0.73106 0.1529 0.55144 0.0
C1190 C 0.78521 0.14971 0.53957 0.0
C1191 C 0.745 0.1856 0.5318 0.0
C1192 C 0.89547 0.30367 0.58367 0.0
C1193 C 0.88802 0.28124 0.58812 0.0
C1194 C 0.86979 0.25875 0.55738 0.0
C1195 C 0.87011 0.24388 0.5449 0.0
C1196 C 0.85238 0.22903 0.53353 0.0
C1197 C 0.83425 0.23009 0.53333 0.0
C1198 C 0.83414 0.24579 0.54511 0.0
C1199 C 0.85182 0.25978 0.55728 0.0
C1200 C 0.85312 0.21208 0.52211 0.0
C1201 C 0.81536 0.24779 0.54495 0.0
C1202 C 0.81491 0.20516 0.43336 0.0
C1203 C 0.79799 0.18818 0.42315 0.0
C1204 C 0.78057 0.17407 0.43414 0.0
C1205 C 0.78021 0.1765 0.45608 0.0
C1206 C 0.76343 0.16206 0.46779 0.0
C1207 C 0.76364 0.1642 0.48948 0.0
C1208 C 0.78056 0.18097 0.50026 0.0
C1209 C 0.78133 0.1829 0.52235 0.0
C1210 C 0.79869 0.19941 0.53257 0.0
C1211 C 0.81532 0.2144 0.52132 0.0
C1212 C 0.8145 0.2131 0.49918 0.0
C1213 C 0.83055 0.22829 0.4873 0.0
C1214 C 0.83052 0.22595 0.46568 0.0
C1215 C 0.81433 0.20844 0.4551 0.0
C1216 C 0.79721 0.19373 0.46658 0.0
C1217 C 0.79733 0.19603 0.48867 0.0
C1218 C 0.68783 0.0888 0.5572 0.0
C1219 C 0.70874 0.1009 0.56925 0.0
O1220 O 0.88765 0.25528 0.38798 0.0
O1221 O 0.88711 0.27174 0.56919 0.0
O1222 O 0.71596 0.1217 0.56939 0.0
O1223 O 0.71409 0.10929 0.38668 0.0
H1224 H 0.88144 0.2729 0.36859 0.0
H1225 H 0.8674 0.23535 0.35525 0.0
H1226 H 0.89385 0.24321 0.3504 0.0
H1227 H 0.88108 0.25395 0.33625 0.0
H1228 H 0.8519 0.2551 0.38411 0.0
H1229 H 0.88324 0.22918 0.41508 0.0
H1230 H 0.80267 0.22037 0.39535 0.0
H1231 H 0.81905 0.24783 0.39386 0.0
H1232 H 0.80966 0.23597 0.41877 0.0
H1233 H 0.86486 0.19953 0.43544 0.0
H1234 H 0.83698 0.18663 0.43696 0.0
H1235 H 0.85349 0.2074 0.45492 0.0
H1236 H 0.72994 0.11067 0.36084 0.0
H1237 H 0.69986 0.08752 0.33878 0.0
H1238 H 0.69965 0.10948 0.34861 0.0
H1239 H 0.68274 0.08478 0.35942 0.0
H1240 H 0.74519 0.1079 0.40451 0.0
H1241 H 0.71775 0.14389 0.39587 0.0
H1242 H 0.7805 0.13751 0.44462 0.0
H1243 H 0.79469 0.14743 0.42118 0.0
H1244 H 0.77679 0.12016 0.42326 0.0
H1245 H 0.73275 0.17737 0.41022 0.0
H1246 H 0.76081 0.19142 0.41128 0.0
H1247 H 0.74674 0.18115 0.43473 0.0
H1248 H 0.71953 0.09843 0.56018 0.0
H1249 H 0.75192 0.12403 0.56202 0.0
H1250 H 0.71732 0.15339 0.55458 0.0
H1251 H 0.78753 0.14964 0.52247 0.0
H1252 H 0.7838 0.13575 0.54622 0.0
H1253 H 0.79927 0.1634 0.54663 0.0
H1254 H 0.7308 0.1848 0.53739 0.0
H1255 H 0.74444 0.18511 0.51441 0.0
H1256 H 0.75882 0.20055 0.53697 0.0
H1257 H 0.87225 0.27344 0.59465 0.0
H1258 H 0.89588 0.31222 0.59796 0.0
H1259 H 0.88485 0.30437 0.57198 0.0
H1260 H 0.91132 0.31154 0.57725 0.0
H1261 H 0.88417 0.24344 0.54463 0.0
H1262 H 0.85162 0.27163 0.56641 0.0
H1263 H 0.85619 0.21587 0.50535 0.0
H1264 H 0.83817 0.1972 0.52304 0.0
H1265 H 0.86574 0.21021 0.52854 0.0
H1266 H 0.81902 0.26277 0.5517 0.0
H1267 H 0.80305 0.23543 0.55433 0.0
H1268 H 0.809 0.24605 0.52873 0.0
H1269 H 0.79846 0.18576 0.40646 0.0
H1270 H 0.75009 0.14875 0.46036 0.0
H1271 H 0.75045 0.15243 0.49772 0.0
H1272 H 0.7995 0.20029 0.54955 0.0
H1273 H 0.84352 0.24198 0.49464 0.0
H1274 H 0.84348 0.23794 0.45737 0.0
H1275 H 0.68273 0.07235 0.5559 0.0
H1276 H 0.68948 0.09473 0.54113 0.0
H1277 H 0.67551 0.08995 0.56497 0.0
C1278 C 0.04606 0.46123 0.32191 0.0
C1279 C 0.02857 0.44513 0.30723 0.0
C1280 C 0.02503 0.46105 0.2761 0.0
C1281 C 0.00359 0.45217 0.27302 0.0
C1282 C 0.9957 0.46224 0.26165 0.0
C1283 C 0.00962 0.48157 0.25315 0.0
C1284 C 0.03132 0.49051 0.25614 0.0
C1285 C 0.03876 0.47995 0.26739 0.0
C1286 C 0.9725 0.45208 0.2584 0.0
C1287 C 0.0466 0.5111 0.24731 0.0
C1288 C 0.94995 0.58334 0.27185 0.0
C1289 C 0.96968 0.58331 0.27773 0.0
C1290 C 0.97055 0.55204 0.27325 0.0
C1291 C 0.99076 0.56049 0.26604 0.0
C1292 C 0.99652 0.54824 0.25538 0.0
C1293 C 0.9818 0.52707 0.25215 0.0
C1294 C 0.96168 0.51835 0.26022 0.0
C1295 C 0.95637 0.53098 0.27084 0.0
C1296 C 0.01828 0.55792 0.24743 0.0
C1297 C 0.94573 0.49577 0.25733 0.0
C1298 C 0.95409 0.53621 0.11633 0.0
C1299 C 0.97467 0.54756 0.12423 0.0
C1300 C 0.98333 0.53795 0.1352 0.0
C1301 C 0.97099 0.51664 0.13877 0.0
C1302 C 0.95036 0.50514 0.13045 0.0
C1303 C 0.94232 0.51506 0.11903 0.0
C1304 C 0.00567 0.55059 0.143 0.0
C1305 C 0.93675 0.4824 0.13378 0.0
C1306 C 0.03691 0.41962 0.14049 0.0
C1307 C 0.02013 0.4189 0.12601 0.0
C1308 C 0.01739 0.44949 0.12567 0.0
C1309 C 0.03034 0.47074 0.12794 0.0
C1310 C 0.02271 0.48275 0.13527 0.0
C1311 C 0.0015 0.47317 0.1402 0.0
C1312 C 0.98795 0.45187 0.13632 0.0
C1313 C 0.99601 0.44022 0.12895 0.0
C1314 C 0.0375 0.50551 0.13879 0.0
C1315 C 0.96514 0.44132 0.14085 0.0
C1316 C 0.00146 0.49207 0.24052 0.0
C1317 C 0.99555 0.50418 0.25101 0.0
C1318 C 0.98738 0.51414 0.24005 0.0
C1319 C 0.98494 0.51198 0.21798 0.0
C1320 C 0.97638 0.52145 0.2065 0.0
C1321 C 0.97428 0.51942 0.18476 0.0
C1322 C 0.98096 0.5081 0.17362 0.0
C1323 C 0.97949 0.50643 0.15146 0.0
C1324 C 0.9862 0.49492 0.14095 0.0
C1325 C 0.99423 0.48488 0.15201 0.0
C1326 C 0.99575 0.48634 0.17413 0.0
C1327 C 0.00365 0.4763 0.18569 0.0
C1328 C 0.00537 0.478 0.20741 0.0
C1329 C 0.99942 0.48995 0.21844 0.0
C1330 C 0.99119 0.50001 0.20714 0.0
C1331 C 0.98928 0.49813 0.18494 0.0
C1332 C 0.9287 0.56358 0.10738 0.0
C1333 C 0.94948 0.56472 0.1088 0.0
O1334 O 0.0328 0.45122 0.28667 0.0
O1335 O 0.02613 0.4386 0.12019 0.0
O1336 O 0.94544 0.5451 0.10533 0.0
O1337 O 0.96432 0.56366 0.28291 0.0
H1338 H 0.01498 0.44563 0.31232 0.0
H1339 H 0.04663 0.47596 0.32105 0.0
H1340 H 0.06155 0.46426 0.31774 0.0
H1341 H 0.04307 0.45611 0.33836 0.0
H1342 H 0.99307 0.43716 0.27904 0.0
H1343 H 0.05532 0.48651 0.26965 0.0
H1344 H 0.96736 0.46194 0.26539 0.0
H1345 H 0.96377 0.43676 0.26555 0.0
H1346 H 0.96848 0.45032 0.24139 0.0
H1347 H 0.06288 0.51662 0.2523 0.0
H1348 H 0.04279 0.52261 0.25237 0.0
H1349 H 0.0454 0.51001 0.22995 0.0
H1350 H 0.97787 0.5873 0.26286 0.0
H1351 H 0.95405 0.59905 0.26776 0.0
H1352 H 0.93873 0.57792 0.28466 0.0
H1353 H 0.94201 0.57303 0.25797 0.0
H1354 H 0.00209 0.57655 0.26894 0.0
H1355 H 0.94092 0.52455 0.27686 0.0
H1356 H 0.01764 0.55616 0.23011 0.0
H1357 H 0.02579 0.54994 0.25387 0.0
H1358 H 0.02809 0.57449 0.25176 0.0
H1359 H 0.93074 0.49136 0.26451 0.0
H1360 H 0.95176 0.48672 0.26446 0.0
H1361 H 0.94287 0.49162 0.24036 0.0
H1362 H 0.95529 0.56897 0.12522 0.0
H1363 H 0.98407 0.56385 0.12151 0.0
H1364 H 0.92658 0.50641 0.11253 0.0
H1365 H 0.00618 0.55245 0.16029 0.0
H1366 H 0.01403 0.56608 0.13618 0.0
H1367 H 0.01401 0.5427 0.13915 0.0
H1368 H 0.92049 0.47607 0.12807 0.0
H1369 H 0.93666 0.47914 0.15068 0.0
H1370 H 0.94313 0.47429 0.12533 0.0
H1371 H 0.00609 0.41278 0.13552 0.0
H1372 H 0.03172 0.40412 0.14629 0.0
H1373 H 0.03987 0.42989 0.15424 0.0
H1374 H 0.05176 0.42533 0.13247 0.0
H1375 H 0.04671 0.47782 0.12479 0.0
H1376 H 0.98561 0.42392 0.12596 0.0
H1377 H 0.03949 0.50922 0.15585 0.0
H1378 H 0.03098 0.51405 0.13145 0.0
H1379 H 0.05301 0.51091 0.1323 0.0
H1380 H 0.95632 0.42503 0.13533 0.0
H1381 H 0.95833 0.44946 0.13321 0.0
H1382 H 0.96324 0.44189 0.15798 0.0
H1383 H 0.99731 0.50587 0.26794 0.0
H1384 H 0.97117 0.53053 0.21418 0.0
H1385 H 0.9675 0.52698 0.1768 0.0
H1386 H 0.9852 0.49381 0.12398 0.0
H1387 H 0.00865 0.46699 0.17813 0.0
H1388 H 0.01155 0.46992 0.21542 0.0
H1389 H 0.9217 0.55867 0.09132 0.0
H1390 H 0.93073 0.57868 0.11128 0.0
H1391 H 0.91775 0.55229 0.11861 0.0
C1392 C 0.43738 0.37338 0.32272 0.0
C1393 C 0.43769 0.38838 0.30685 0.0
C1394 C 0.4559 0.40125 0.27446 0.0
C1395 C 0.4487 0.4136 0.26716 0.0
C1396 C 0.46087 0.43005 0.25412 0.0
C1397 C 0.4806 0.43413 0.2483 0.0
C1398 C 0.48749 0.42111 0.25494 0.0
C1399 C 0.47485 0.4046 0.26774 0.0
C1400 C 0.45285 0.44336 0.24696 0.0
C1401 C 0.50849 0.42507 0.24912 0.0
C1402 C 0.59414 0.58989 0.30943 0.0
C1403 C 0.58317 0.56791 0.30268 0.0
C1404 C 0.55502 0.54419 0.27836 0.0
C1405 C 0.56098 0.52968 0.27744 0.0
C1406 C 0.54974 0.51185 0.26481 0.0
C1407 C 0.53197 0.50826 0.25325 0.0
C1408 C 0.52557 0.52253 0.25465 0.0
C1409 C 0.53738 0.54045 0.26701 0.0
C1410 C 0.55699 0.49694 0.26368 0.0
C1411 C 0.50636 0.51892 0.24299 0.0
C1412 C 0.57417 0.54799 0.1234 0.0
C1413 C 0.58072 0.53518 0.1312 0.0
C1414 C 0.56652 0.5164 0.14013 0.0
C1415 C 0.54539 0.5103 0.14123 0.0
C1416 C 0.53866 0.52286 0.13285 0.0
C1417 C 0.55315 0.54147 0.12385 0.0
C1418 C 0.57408 0.50307 0.14847 0.0
C1419 C 0.51621 0.51674 0.13366 0.0
C1420 C 0.43646 0.34698 0.09199 0.0
C1421 C 0.43994 0.36801 0.0979 0.0
C1422 C 0.47107 0.40024 0.10977 0.0
C1423 C 0.49168 0.40772 0.11593 0.0
C1424 C 0.50284 0.42532 0.1289 0.0
C1425 C 0.49321 0.43597 0.13538 0.0
C1426 C 0.47259 0.42892 0.12852 0.0
C1427 C 0.46169 0.41105 0.11587 0.0
C1428 C 0.52485 0.43246 0.13578 0.0
C1429 C 0.46209 0.44031 0.13447 0.0
C1430 C 0.49476 0.45304 0.23694 0.0
C1431 C 0.50621 0.47121 0.24884 0.0
C1432 C 0.5202 0.48966 0.23954 0.0
C1433 C 0.52294 0.49015 0.2177 0.0
C1434 C 0.53714 0.50844 0.20789 0.0
C1435 C 0.53957 0.50883 0.18637 0.0
C1436 C 0.52806 0.49091 0.17383 0.0
C1437 C 0.53052 0.49118 0.15195 0.0
C1438 C 0.51887 0.47312 0.1399 0.0
C1439 C 0.50481 0.45459 0.14916 0.0
C1440 C 0.50217 0.45398 0.17107 0.0
C1441 C 0.48829 0.4356 0.18097 0.0
C1442 C 0.48571 0.43524 0.20252 0.0
C1443 C 0.49709 0.4532 0.21502 0.0
C1444 C 0.51126 0.47187 0.20538 0.0
C1445 C 0.51381 0.47225 0.18341 0.0
C1446 C 0.60908 0.5972 0.13237 0.0
C1447 C 0.60821 0.57978 0.11929 0.0
O1448 O 0.44483 0.38594 0.28789 0.0
O1449 O 0.46094 0.38285 0.09763 0.0
O1450 O 0.58732 0.56611 0.11428 0.0
O1451 O 0.56598 0.56205 0.28967 0.0
H1452 H 0.4496 0.40346 0.31385 0.0
H1453 H 0.45327 0.3762 0.32492 0.0
H1454 H 0.42689 0.35714 0.31767 0.0
H1455 H 0.43229 0.37578 0.33812 0.0
H1456 H 0.43361 0.41044 0.2716 0.0
H1457 H 0.48006 0.39469 0.27322 0.0
H1458 H 0.46229 0.45876 0.25466 0.0
H1459 H 0.43631 0.4368 0.25081 0.0
H1460 H 0.45447 0.44541 0.22978 0.0
H1461 H 0.51167 0.41367 0.25581 0.0
H1462 H 0.52086 0.44063 0.2548 0.0
H1463 H 0.50939 0.4246 0.23182 0.0
H1464 H 0.57959 0.55693 0.31555 0.0
H1465 H 0.59199 0.5897 0.32682 0.0
H1466 H 0.58343 0.5955 0.30556 0.0
H1467 H 0.62285 0.60215 0.29661 0.0
H1468 H 0.57449 0.53225 0.2863 0.0
H1469 H 0.53286 0.55169 0.2679 0.0
H1470 H 0.54518 0.48221 0.27054 0.0
H1471 H 0.57207 0.50278 0.27222 0.0
H1472 H 0.55865 0.49371 0.24708 0.0
H1473 H 0.50216 0.53024 0.24766 0.0
H1474 H 0.49301 0.50326 0.24586 0.0
H1475 H 0.50904 0.52005 0.22592 0.0
H1476 H 0.61484 0.57261 0.12899 0.0
H1477 H 0.59671 0.53943 0.12992 0.0
H1478 H 0.54817 0.55124 0.11739 0.0
H1479 H 0.57194 0.50157 0.16563 0.0
H1480 H 0.59074 0.5094 0.14537 0.0
H1481 H 0.56472 0.48744 0.14124 0.0
H1482 H 0.51346 0.52824 0.12647 0.0
H1483 H 0.51139 0.51482 0.1502 0.0
H1484 H 0.5062 0.50174 0.12534 0.0
H1485 H 0.43537 0.36613 0.11439 0.0
H1486 H 0.41982 0.33488 0.09363 0.0
H1487 H 0.44587 0.34349 0.1027 0.0
H1488 H 0.44084 0.34618 0.07573 0.0
H1489 H 0.49889 0.39944 0.11087 0.0
H1490 H 0.44608 0.4059 0.11045 0.0
H1491 H 0.52663 0.43456 0.15308 0.0
H1492 H 0.53567 0.44754 0.12889 0.0
H1493 H 0.52945 0.4215 0.13089 0.0
H1494 H 0.44674 0.43392 0.1263 0.0
H1495 H 0.47213 0.45676 0.1307 0.0
H1496 H 0.45976 0.43944 0.15161 0.0
H1497 H 0.50429 0.47097 0.26565 0.0
H1498 H 0.54652 0.52269 0.21674 0.0
H1499 H 0.55064 0.5234 0.17972 0.0
H1500 H 0.52085 0.47348 0.1231 0.0
H1501 H 0.4792 0.42128 0.17216 0.0
H1502 H 0.47472 0.4207 0.20929 0.0
H1503 H 0.60414 0.60586 0.12259 0.0
H1504 H 0.62471 0.60805 0.13931 0.0
H1505 H 0.59833 0.59064 0.14559 0.0
C1506 C 0.39844 0.98444 0.26236 0.0
C1507 C 0.40904 0.98719 0.28403 0.0
C1508 C 0.44586 0.00576 0.27479 0.0
C1509 C 0.46398 0.02516 0.27442 0.0
C1510 C 0.48146 0.02837 0.26379 0.0
C1511 C 0.48075 0.01165 0.25339 0.0
C1512 C 0.46271 0.99184 0.25418 0.0
C1513 C 0.44545 0.98907 0.26487 0.0
C1514 C 0.50054 0.04966 0.26331 0.0
C1515 C 0.46157 0.97363 0.24344 0.0
C1516 C 0.60253 0.98522 0.30342 0.0
C1517 C 0.58437 0.98263 0.29117 0.0
C1518 C 0.57216 0.00376 0.27612 0.0
C1519 C 0.55542 0.98767 0.26449 0.0
C1520 C 0.54201 0.99117 0.25235 0.0
C1521 C 0.54545 0.01115 0.25177 0.0
C1522 C 0.56247 0.02742 0.26317 0.0
C1523 C 0.57562 0.02349 0.27521 0.0
C1524 C 0.52396 0.97347 0.24038 0.0
C1525 C 0.5666 0.0489 0.26281 0.0
C1526 C 0.58559 0.03939 0.1145 0.0
C1527 C 0.56683 0.02052 0.11452 0.0
C1528 C 0.55075 0.01726 0.12757 0.0
C1529 C 0.55338 0.03352 0.14065 0.0
C1530 C 0.5724 0.05268 0.14084 0.0
C1531 C 0.58845 0.05533 0.128 0.0
C1532 C 0.53084 0.99651 0.12715 0.0
C1533 C 0.57564 0.07048 0.1543 0.0
C1534 C 0.42319 0.04593 0.11708 0.0
C1535 C 0.42951 0.03485 0.1015 0.0
C1536 C 0.45013 0.02346 0.12078 0.0
C1537 C 0.45029 0.00598 0.12611 0.0
C1538 C 0.46756 0.00744 0.13636 0.0
C1539 C 0.485 0.02701 0.14183 0.0
C1540 C 0.48507 0.04485 0.13637 0.0
C1541 C 0.46765 0.04292 0.12582 0.0
C1542 C 0.46702 0.98805 0.14162 0.0
C1543 C 0.5034 0.0659 0.14211 0.0
C1544 C 0.49858 0.0149 0.24107 0.0
C1545 C 0.51389 0.01287 0.25113 0.0
C1546 C 0.53056 0.01473 0.24016 0.0
C1547 C 0.53228 0.01906 0.21858 0.0
C1548 C 0.54893 0.0212 0.20709 0.0
C1549 C 0.55024 0.02511 0.18576 0.0
C1550 C 0.53491 0.02698 0.17511 0.0
C1551 C 0.53592 0.03072 0.1534 0.0
C1552 C 0.51979 0.03135 0.14313 0.0
C1553 C 0.50271 0.0286 0.154 0.0
C1554 C 0.50194 0.02588 0.17587 0.0
C1555 C 0.48541 0.02397 0.1874 0.0
C1556 C 0.48442 0.02065 0.20879 0.0
C1557 C 0.49982 0.01893 0.21945 0.0
C1558 C 0.51676 0.02105 0.20818 0.0
C1559 C 0.51795 0.02478 0.1864 0.0
C1560 C 0.61945 0.07411 0.08578 0.0
C1561 C 0.62035 0.05792 0.09904 0.0
O1562 O 0.42922 0.00396 0.28464 0.0
O1563 O 0.43257 0.02062 0.11128 0.0
O1564 O 0.60014 0.04151 0.10085 0.0
O1565 O 0.58528 0.00096 0.28836 0.0
H1566 H 0.40899 0.97286 0.28611 0.0
H1567 H 0.38156 0.97274 0.26293 0.0
H1568 H 0.40048 0.99895 0.25668 0.0
H1569 H 0.40517 0.97902 0.25058 0.0
H1570 H 0.46425 0.03793 0.2822 0.0
H1571 H 0.43178 0.97383 0.26517 0.0
H1572 H 0.51423 0.04954 0.26961 0.0
H1573 H 0.49879 0.06099 0.27255 0.0
H1574 H 0.50372 0.0547 0.24686 0.0
H1575 H 0.44659 0.9591 0.24594 0.0
H1576 H 0.47445 0.97195 0.24939 0.0
H1577 H 0.4635 0.97616 0.22636 0.0
H1578 H 0.56893 0.97021 0.29658 0.0
H1579 H 0.59588 0.9767 0.31826 0.0
H1580 H 0.61049 0.00089 0.31123 0.0
H1581 H 0.61709 0.97684 0.28223 0.0
H1582 H 0.55263 0.97233 0.26494 0.0
H1583 H 0.58863 0.03582 0.28413 0.0
H1584 H 0.52491 0.97693 0.22347 0.0
H1585 H 0.50914 0.97131 0.2459 0.0
H1586 H 0.52355 0.95889 0.24222 0.0
H1587 H 0.5811 0.06008 0.27166 0.0
H1588 H 0.55338 0.04911 0.26975 0.0
H1589 H 0.56778 0.05387 0.24639 0.0
H1590 H 0.6272 0.06427 0.11488 0.0
H1591 H 0.5648 0.00828 0.10413 0.0
H1592 H 0.60292 0.07001 0.12831 0.0
H1593 H 0.52601 0.99133 0.14334 0.0
H1594 H 0.53239 0.98474 0.11856 0.0
H1595 H 0.51829 0.99766 0.11933 0.0
H1596 H 0.59049 0.08491 0.15113 0.0
H1597 H 0.57577 0.06694 0.17107 0.0
H1598 H 0.56262 0.07299 0.1516 0.0
H1599 H 0.44436 0.04739 0.09548 0.0
H1600 H 0.42077 0.05712 0.10867 0.0
H1601 H 0.43575 0.05455 0.12912 0.0
H1602 H 0.40885 0.03546 0.12541 0.0
H1603 H 0.43672 0.99105 0.12217 0.0
H1604 H 0.46776 0.05665 0.12198 0.0
H1605 H 0.46645 0.98629 0.15885 0.0
H1606 H 0.48135 0.98896 0.13634 0.0
H1607 H 0.45331 0.97419 0.13428 0.0
H1608 H 0.5009 0.0783 0.1372 0.0
H1609 H 0.51751 0.06813 0.13457 0.0
H1610 H 0.5064 0.06727 0.15931 0.0
H1611 H 0.51261 0.00941 0.26765 0.0
H1612 H 0.56112 0.01983 0.21447 0.0
H1613 H 0.56334 0.02649 0.17769 0.0
H1614 H 0.52032 0.03358 0.12637 0.0
H1615 H 0.47304 0.02503 0.18001 0.0
H1616 H 0.4713 0.01927 0.21683 0.0
H1617 H 0.61392 0.06805 0.06954 0.0
H1618 H 0.63479 0.08855 0.08513 0.0
H1619 H 0.60855 0.07807 0.09241 0.0
C1620 C 0.56853 0.96626 0.69681 0.0
C1621 C 0.57133 0.98218 0.71344 0.0
C1622 C 0.55208 0.97779 0.74509 0.0
C1623 C 0.55966 0.99829 0.75075 0.0
C1624 C 0.54836 0.00344 0.76388 0.0
C1625 C 0.52919 0.9877 0.77155 0.0
C1626 C 0.52191 0.96694 0.76644 0.0
C1627 C 0.53365 0.96227 0.75346 0.0
C1628 C 0.55679 0.02567 0.76944 0.0
C1629 C 0.50154 0.94974 0.77434 0.0
C1630 C 0.40423 0.00585 0.71298 0.0
C1631 C 0.4158 0.99803 0.72455 0.0
C1632 C 0.44755 0.00991 0.74555 0.0
C1633 C 0.44184 0.99023 0.75213 0.0
C1634 C 0.45527 0.98732 0.76492 0.0
C1635 C 0.47482 0.00442 0.77136 0.0
C1636 C 0.48054 0.02428 0.76502 0.0
C1637 C 0.46678 0.02676 0.7522 0.0
C1638 C 0.44868 0.96592 0.77139 0.0
C1639 C 0.50127 0.0428 0.77167 0.0
C1640 C 0.44136 0.00243 0.9061 0.0
C1641 C 0.43803 0.9831 0.90143 0.0
C1642 C 0.45259 0.98088 0.89044 0.0
C1643 C 0.47138 0.99856 0.8846 0.0
C1644 C 0.47516 0.01825 0.88979 0.0
C1645 C 0.45997 0.02 0.90018 0.0
C1646 C 0.44781 0.9596 0.88506 0.0
C1647 C 0.49519 0.03744 0.8842 0.0
C1648 C 0.57333 0.94192 0.8993 0.0
C1649 C 0.57868 0.96295 0.90796 0.0
C1650 C 0.5498 0.96833 0.90575 0.0
C1651 C 0.52863 0.95469 0.90169 0.0
C1652 C 0.51665 0.96091 0.8909 0.0
C1653 C 0.52601 0.98156 0.88481 0.0
C1654 C 0.5473 0.99569 0.88986 0.0
C1655 C 0.55905 0.98883 0.90008 0.0
C1656 C 0.49404 0.94533 0.88596 0.0
C1657 C 0.55768 0.01796 0.88431 0.0
C1658 C 0.5163 0.99292 0.78417 0.0
C1659 C 0.50316 0.99761 0.77341 0.0
C1660 C 0.48948 0.0013 0.78408 0.0
C1661 C 0.48899 0.00054 0.80617 0.0
C1662 C 0.47518 0.00384 0.81736 0.0
C1663 C 0.47439 0.00249 0.83905 0.0
C1664 C 0.48756 0.99802 0.85043 0.0
C1665 C 0.48669 0.99638 0.87247 0.0
C1666 C 0.49977 0.99156 0.88325 0.0
C1667 C 0.51366 0.9881 0.87259 0.0
C1668 C 0.51475 0.98971 0.85054 0.0
C1669 C 0.52829 0.98604 0.83924 0.0
C1670 C 0.52908 0.98742 0.81755 0.0
C1671 C 0.51612 0.99218 0.80627 0.0
C1672 C 0.50239 0.99598 0.8173 0.0
C1673 C 0.5017 0.99475 0.83946 0.0
C1674 C 0.43645 0.03203 0.93871 0.0
C1675 C 0.42394 0.0199 0.91882 0.0
O1676 O 0.56228 0.97244 0.7318 0.0
O1677 O 0.56091 0.96146 0.91557 0.0
O1678 O 0.42632 0.00328 0.91651 0.0
O1679 O 0.43499 0.01321 0.73287 0.0
H1680 H 0.56202 0.98811 0.70671 0.0
H1681 H 0.55172 0.95476 0.69407 0.0
H1682 H 0.57624 0.95797 0.70153 0.0
H1683 H 0.57504 0.97387 0.68178 0.0
H1684 H 0.57449 0.01024 0.7452 0.0
H1685 H 0.52817 0.94646 0.74925 0.0
H1686 H 0.54629 0.03028 0.76268 0.0
H1687 H 0.57264 0.03596 0.7635 0.0
H1688 H 0.55726 0.02781 0.78671 0.0
H1689 H 0.49764 0.9345 0.76815 0.0
H1690 H 0.4888 0.95218 0.76976 0.0
H1691 H 0.5023 0.94968 0.7917 0.0
H1692 H 0.41667 0.98576 0.71597 0.0
H1693 H 0.4032 0.0006 0.69624 0.0
H1694 H 0.41573 0.02252 0.71003 0.0
H1695 H 0.37827 0.99616 0.73059 0.0
H1696 H 0.42696 0.977 0.74728 0.0
H1697 H 0.47105 0.04189 0.74717 0.0
H1698 H 0.44897 0.96527 0.78873 0.0
H1699 H 0.45981 0.9619 0.76549 0.0
H1700 H 0.43284 0.95424 0.76532 0.0
H1701 H 0.50316 0.05729 0.76598 0.0
H1702 H 0.51397 0.04121 0.7655 0.0
H1703 H 0.50295 0.04377 0.78902 0.0
H1704 H 0.42988 0.02964 0.90486 0.0
H1705 H 0.42368 0.96965 0.90614 0.0
H1706 H 0.46288 0.03511 0.90378 0.0
H1707 H 0.45131 0.95849 0.86848 0.0
H1708 H 0.4313 0.94769 0.88767 0.0
H1709 H 0.45774 0.95629 0.89508 0.0
H1710 H 0.49693 0.05142 0.89169 0.0
H1711 H 0.49559 0.03918 0.86697 0.0
H1712 H 0.50869 0.03629 0.88905 0.0
H1713 H 0.58392 0.97357 0.89463 0.0
H1714 H 0.5872 0.94264 0.8929 0.0
H1715 H 0.56141 0.93678 0.88645 0.0
H1716 H 0.5671 0.93015 0.91149 0.0
H1717 H 0.52164 0.93895 0.90649 0.0
H1718 H 0.57539 0.99945 0.90382 0.0
H1719 H 0.48986 0.94653 0.86952 0.0
H1720 H 0.48438 0.94838 0.89638 0.0
H1721 H 0.49013 0.92939 0.88844 0.0
H1722 H 0.57334 0.02747 0.89194 0.0
H1723 H 0.54795 0.02415 0.88901 0.0
H1724 H 0.55936 0.01938 0.8671 0.0
H1725 H 0.50317 0.99783 0.75643 0.0
H1726 H 0.4647 0.00736 0.80945 0.0
H1727 H 0.46326 0.00495 0.84676 0.0
H1728 H 0.49883 0.99007 0.90012 0.0
H1729 H 0.53843 0.98201 0.84701 0.0
H1730 H 0.53986 0.98451 0.80971 0.0
H1731 H 0.4293 0.02285 0.95283 0.0
H1732 H 0.43726 0.04681 0.9405 0.0
H1733 H 0.45266 0.03563 0.93823 0.0
C1734 C 0.02245 0.58689 0.70264 0.0
C1735 C 0.00245 0.58142 0.71392 0.0
C1736 C 0.00214 0.56451 0.74555 0.0
C1737 C 0.9832 0.55139 0.75483 0.0
C1738 C 0.98038 0.53482 0.76654 0.0
C1739 C 0.99704 0.53159 0.76907 0.0
C1740 C 0.01619 0.54482 0.75952 0.0
C1741 C 0.01856 0.56129 0.74796 0.0
C1742 C 0.95985 0.52107 0.77663 0.0
C1743 C 0.03427 0.54184 0.76195 0.0
C1744 C 0.93665 0.36797 0.75972 0.0
C1745 C 0.95625 0.387 0.75177 0.0
C1746 C 0.96017 0.42045 0.75571 0.0
C1747 C 0.98172 0.43401 0.7572 0.0
C1748 C 0.99029 0.45348 0.76679 0.0
C1749 C 0.97692 0.45937 0.77506 0.0
C1750 C 0.95512 0.44582 0.7731 0.0
C1751 C 0.94702 0.42657 0.76319 0.0
C1752 C 0.01358 0.4678 0.768 0.0
C1753 C 0.9404 0.45165 0.78154 0.0
C1754 C 0.02035 0.45006 0.90287 0.0
C1755 C 0.03462 0.46138 0.8874 0.0
C1756 C 0.03385 0.47704 0.87714 0.0
C1757 C 0.01808 0.48098 0.88196 0.0
C1758 C 0.00389 0.46979 0.89774 0.0
C1759 C 0.00542 0.45465 0.90816 0.0
C1760 C 0.04973 0.48913 0.8609 0.0
C1761 C 0.98683 0.47349 0.90327 0.0
C1762 C 0.04437 0.63693 0.88688 0.0
C1763 C 0.03537 0.61799 0.90061 0.0
C1764 C 0.04155 0.59006 0.894 0.0
C1765 C 0.05609 0.58658 0.88492 0.0
C1766 C 0.05031 0.56708 0.87703 0.0
C1767 C 0.02947 0.55065 0.87845 0.0
C1768 C 0.01499 0.55378 0.88882 0.0
C1769 C 0.02122 0.57344 0.89663 0.0
C1770 C 0.06625 0.56416 0.86647 0.0
C1771 C 0.99277 0.53646 0.89109 0.0
C1772 C 0.99493 0.51515 0.78268 0.0
C1773 C 0.98714 0.49566 0.77373 0.0
C1774 C 0.98567 0.47977 0.78555 0.0
C1775 C 0.99248 0.48345 0.80682 0.0
C1776 C 0.99156 0.46794 0.81909 0.0
C1777 C 0.99902 0.47197 0.83976 0.0
C1778 C 0.00749 0.49162 0.84903 0.0
C1779 C 0.01588 0.4961 0.86976 0.0
C1780 C 0.02301 0.51544 0.87892 0.0
C1781 C 0.0224 0.53066 0.86773 0.0
C1782 C 0.01514 0.52679 0.8466 0.0
C1783 C 0.01528 0.54207 0.83456 0.0
C1784 C 0.00865 0.53831 0.81365 0.0
C1785 C 0.0013 0.519 0.80404 0.0
C1786 C 0.0004 0.50319 0.81605 0.0
C1787 C 0.00763 0.50719 0.83726 0.0
C1788 C 0.01876 0.4096 0.88989 0.0
C1789 C 0.0308 0.42478 0.90835 0.0
O1790 O 0.00496 0.58105 0.73536 0.0
O1791 O 0.0477 0.60959 0.89986 0.0
O1792 O 0.02016 0.43449 0.913 0.0
O1793 O 0.95166 0.40165 0.74645 0.0
H1794 H 0.99092 0.56574 0.70773 0.0
H1795 H 0.02493 0.57389 0.70341 0.0
H1796 H 0.03645 0.60056 0.70968 0.0
H1797 H 0.02102 0.58966 0.68583 0.0
H1798 H 0.97075 0.55434 0.75308 0.0
H1799 H 0.0333 0.57188 0.74107 0.0
H1800 H 0.95332 0.50495 0.77123 0.0
H1801 H 0.94836 0.52549 0.77294 0.0
H1802 H 0.96225 0.52169 0.79389 0.0
H1803 H 0.04762 0.55261 0.75238 0.0
H1804 H 0.02934 0.52588 0.7573 0.0
H1805 H 0.03954 0.54423 0.77864 0.0
H1806 H 0.96667 0.39239 0.76581 0.0
H1807 H 0.9401 0.35603 0.76388 0.0
H1808 H 0.92363 0.36135 0.74797 0.0
H1809 H 0.93139 0.37215 0.77399 0.0
H1810 H 0.99177 0.42954 0.75044 0.0
H1811 H 0.93036 0.41604 0.76157 0.0
H1812 H 0.01794 0.48277 0.76126 0.0
H1813 H 0.02175 0.46147 0.75955 0.0
H1814 H 0.01906 0.47072 0.78463 0.0
H1815 H 0.92392 0.43885 0.78003 0.0
H1816 H 0.94217 0.46491 0.7729 0.0
H1817 H 0.94429 0.45644 0.7983 0.0
H1818 H 0.04698 0.436 0.90391 0.0
H1819 H 0.04636 0.45815 0.88312 0.0
H1820 H 0.99455 0.44589 0.9202 0.0
H1821 H 0.04236 0.48394 0.84504 0.0
H1822 H 0.06316 0.48704 0.86191 0.0
H1823 H 0.05556 0.50572 0.8627 0.0
H1824 H 0.97595 0.46225 0.91458 0.0
H1825 H 0.97786 0.4726 0.88891 0.0
H1826 H 0.99379 0.48914 0.91027 0.0
H1827 H 0.02056 0.60748 0.89233 0.0
H1828 H 0.03422 0.64336 0.88716 0.0
H1829 H 0.04499 0.63248 0.87042 0.0
H1830 H 0.06029 0.64919 0.89193 0.0
H1831 H 0.07187 0.59941 0.88337 0.0
H1832 H 0.01015 0.57575 0.90465 0.0
H1833 H 0.06192 0.56038 0.84959 0.0
H1834 H 0.06649 0.55109 0.87339 0.0
H1835 H 0.08211 0.57808 0.86791 0.0
H1836 H 0.98363 0.54115 0.90039 0.0
H1837 H 0.9924 0.52339 0.89879 0.0
H1838 H 0.98517 0.53096 0.87535 0.0
H1839 H 0.98224 0.49284 0.75733 0.0
H1840 H 0.9853 0.45256 0.81278 0.0
H1841 H 0.99808 0.45947 0.84838 0.0
H1842 H 0.02919 0.51871 0.89491 0.0
H1843 H 0.02076 0.55723 0.84107 0.0
H1844 H 0.00935 0.55074 0.80512 0.0
H1845 H 0.02842 0.40511 0.88143 0.0
H1846 H 0.01389 0.41684 0.87804 0.0
H1847 H 0.0045 0.39572 0.89535 0.0
C1848 C 0.55607 0.57025 0.70165 0.0
C1849 C 0.56209 0.58828 0.71705 0.0
C1850 C 0.54325 0.56993 0.74807 0.0
C1851 C 0.52758 0.57452 0.74814 0.0
C1852 C 0.50958 0.56275 0.75962 0.0
C1853 C 0.50722 0.54608 0.77116 0.0
C1854 C 0.52317 0.54169 0.7714 0.0
C1855 C 0.54115 0.55393 0.7601 0.0
C1856 C 0.49307 0.56813 0.75947 0.0
C1857 C 0.52112 0.52391 0.78336 0.0
C1858 C 0.37733 0.4357 0.6889 0.0
C1859 C 0.39206 0.43813 0.70708 0.0
C1860 C 0.40381 0.46011 0.73864 0.0
C1861 C 0.41899 0.45644 0.74629 0.0
C1862 C 0.43451 0.47017 0.76068 0.0
C1863 C 0.43478 0.4879 0.76753 0.0
C1864 C 0.419 0.49122 0.76045 0.0
C1865 C 0.40351 0.47706 0.74628 0.0
C1866 C 0.45078 0.46588 0.76836 0.0
C1867 C 0.41882 0.50998 0.7674 0.0
C1868 C 0.39155 0.46358 0.89662 0.0
C1869 C 0.4085 0.46086 0.89646 0.0
C1870 C 0.42754 0.47586 0.88832 0.0
C1871 C 0.42974 0.49407 0.8806 0.0
C1872 C 0.41323 0.49753 0.88229 0.0
C1873 C 0.39432 0.4822 0.89034 0.0
C1874 C 0.44505 0.47195 0.88725 0.0
C1875 C 0.41529 0.51706 0.8748 0.0
C1876 C 0.564 0.635 0.90896 0.0
C1877 C 0.56161 0.61796 0.92332 0.0
C1878 C 0.53894 0.58531 0.90374 0.0
C1879 C 0.53789 0.56769 0.89606 0.0
C1880 C 0.51965 0.55162 0.8864 0.0
C1881 C 0.50224 0.55366 0.8836 0.0
C1882 C 0.50293 0.57119 0.89189 0.0
C1883 C 0.52118 0.58671 0.90217 0.0
C1884 C 0.51926 0.53276 0.87866 0.0
C1885 C 0.48463 0.57383 0.88932 0.0
C1886 C 0.48787 0.53288 0.78256 0.0
C1887 C 0.47066 0.51751 0.77111 0.0
C1888 C 0.45232 0.50363 0.78096 0.0
C1889 C 0.45113 0.50482 0.80294 0.0
C1890 C 0.43321 0.49064 0.81346 0.0
C1891 C 0.4323 0.49189 0.83512 0.0
C1892 C 0.44928 0.50737 0.84711 0.0
C1893 C 0.44859 0.50868 0.86916 0.0
C1894 C 0.46595 0.52391 0.88064 0.0
C1895 C 0.48401 0.53823 0.87061 0.0
C1896 C 0.48478 0.53751 0.84852 0.0
C1897 C 0.50245 0.55207 0.83787 0.0
C1898 C 0.50346 0.55068 0.81626 0.0
C1899 C 0.48673 0.53483 0.80443 0.0
C1900 C 0.46841 0.52054 0.8147 0.0
C1901 C 0.46747 0.52183 0.83679 0.0
C1902 C 0.343 0.417 0.88862 0.0
C1903 C 0.364 0.42758 0.90056 0.0
O1904 O 0.56077 0.58078 0.73697 0.0
O1905 O 0.55748 0.60061 0.91203 0.0
O1906 O 0.37227 0.44855 0.90226 0.0
O1907 O 0.38908 0.44753 0.72413 0.0
H1908 H 0.55117 0.59363 0.71483 0.0
H1909 H 0.54052 0.55697 0.70539 0.0
H1910 H 0.56752 0.56541 0.70303 0.0
H1911 H 0.55508 0.57388 0.68514 0.0
H1912 H 0.52945 0.58746 0.73967 0.0
H1913 H 0.55347 0.55073 0.76014 0.0
H1914 H 0.47873 0.55558 0.75148 0.0
H1915 H 0.49804 0.58263 0.75129 0.0
H1916 H 0.48912 0.56964 0.77577 0.0
H1917 H 0.53408 0.52146 0.78042 0.0
H1918 H 0.5062 0.50962 0.77896 0.0
H1919 H 0.52097 0.5268 0.8004 0.0
H1920 H 0.40756 0.44905 0.70098 0.0
H1921 H 0.38034 0.4291 0.67483 0.0
H1922 H 0.38004 0.45094 0.68484 0.0
H1923 H 0.36075 0.42564 0.69274 0.0
H1924 H 0.41867 0.4428 0.74128 0.0
H1925 H 0.39146 0.47953 0.74054 0.0
H1926 H 0.46608 0.47744 0.7621 0.0
H1927 H 0.44711 0.45038 0.76337 0.0
H1928 H 0.45227 0.46724 0.78571 0.0
H1929 H 0.40581 0.51061 0.75994 0.0
H1930 H 0.43371 0.52403 0.76349 0.0
H1931 H 0.41742 0.51007 0.78465 0.0
H1932 H 0.37412 0.42514 0.89029 0.0
H1933 H 0.40684 0.44692 0.90236 0.0
H1934 H 0.3813 0.48435 0.89099 0.0
H1935 H 0.44897 0.47163 0.87064 0.0
H1936 H 0.44105 0.45723 0.89438 0.0
H1937 H 0.45914 0.48463 0.89545 0.0
H1938 H 0.40188 0.51832 0.87917 0.0
H1939 H 0.41637 0.51755 0.85749 0.0
H1940 H 0.4298 0.53056 0.88146 0.0
H1941 H 0.54802 0.61315 0.93328 0.0
H1942 H 0.56308 0.64675 0.91832 0.0
H1943 H 0.57911 0.64289 0.9011 0.0
H1944 H 0.55149 0.62879 0.89667 0.0
H1945 H 0.55156 0.5666 0.89757 0.0
H1946 H 0.52155 0.60007 0.90838 0.0
H1947 H 0.5212 0.53347 0.86147 0.0
H1948 H 0.50415 0.51867 0.88192 0.0
H1949 H 0.53197 0.53157 0.88603 0.0
H1950 H 0.48815 0.589 0.89535 0.0
H1951 H 0.47127 0.56168 0.89787 0.0
H1952 H 0.4798 0.57214 0.87252 0.0
H1953 H 0.47162 0.51621 0.75429 0.0
H1954 H 0.41973 0.47835 0.80505 0.0
H1955 H 0.41812 0.48047 0.84235 0.0
H1956 H 0.46542 0.52457 0.89757 0.0
H1957 H 0.51582 0.56464 0.84611 0.0
H1958 H 0.51754 0.56218 0.80894 0.0
H1959 H 0.33727 0.40051 0.88592 0.0
H1960 H 0.34484 0.42412 0.87315 0.0
H1961 H 0.33104 0.41812 0.89719 0.0
C1962 C 0.62816 0.75344 0.66249 0.0
C1963 C 0.63059 0.74415 0.64204 0.0
C1964 C 0.63766 0.77029 0.61594 0.0
C1965 C 0.61726 0.76621 0.61415 0.0
C1966 C 0.61225 0.77706 0.60021 0.0
C1967 C 0.62795 0.79245 0.58798 0.0
C1968 C 0.64847 0.79658 0.58969 0.0
C1969 C 0.653 0.78535 0.60359 0.0
C1970 C 0.59021 0.77228 0.59876 0.0
C1971 C 0.66569 0.81307 0.57709 0.0
C1972 C 0.63425 0.89539 0.6579 0.0
C1973 C 0.64369 0.90918 0.63895 0.0
C1974 C 0.62792 0.88602 0.60869 0.0
C1975 C 0.64513 0.88663 0.60013 0.0
C1976 C 0.6426 0.87044 0.58741 0.0
C1977 C 0.62243 0.85318 0.58336 0.0
C1978 C 0.60496 0.85282 0.59136 0.0
C1979 C 0.60794 0.86948 0.60369 0.0
C1980 C 0.66156 0.87157 0.57873 0.0
C1981 C 0.58325 0.8346 0.5874 0.0
C1982 C 0.59616 0.86186 0.44624 0.0
C1983 C 0.61632 0.86785 0.45311 0.0
C1984 C 0.61985 0.85479 0.46525 0.0
C1985 C 0.60278 0.8355 0.47089 0.0
C1986 C 0.5825 0.82928 0.46354 0.0
C1987 C 0.57952 0.84246 0.45103 0.0
C1988 C 0.64181 0.8616 0.47202 0.0
C1989 C 0.56394 0.80879 0.46907 0.0
C1990 C 0.60134 0.6986 0.46948 0.0
C1991 C 0.6048 0.70896 0.44823 0.0
C1992 C 0.61547 0.74455 0.45813 0.0
C1993 C 0.6326 0.76458 0.45988 0.0
C1994 C 0.63088 0.78045 0.46855 0.0
C1995 C 0.61141 0.77613 0.47554 0.0
C1996 C 0.59379 0.75603 0.47318 0.0
C1997 C 0.59598 0.74038 0.46458 0.0
C1998 C 0.64998 0.80173 0.47076 0.0
C1999 C 0.57276 0.75104 0.48027 0.0
C2000 C 0.62321 0.80514 0.57446 0.0
C2001 C 0.62339 0.82171 0.58394 0.0
C2002 C 0.61997 0.83495 0.57224 0.0
C2003 C 0.61591 0.8315 0.55042 0.0
C2004 C 0.61233 0.84449 0.53818 0.0
C2005 C 0.60872 0.84114 0.51663 0.0
C2006 C 0.60899 0.82493 0.50645 0.0
C2007 C 0.60611 0.82184 0.48445 0.0
C2008 C 0.60663 0.80564 0.47488 0.0
C2009 C 0.6099 0.79233 0.48669 0.0
C2010 C 0.61265 0.79508 0.50869 0.0
C2011 C 0.61593 0.7819 0.52101 0.0
C2012 C 0.61907 0.78497 0.54259 0.0
C2013 C 0.6193 0.80146 0.55265 0.0
C2014 C 0.61571 0.81475 0.54057 0.0
C2015 C 0.61235 0.81153 0.51856 0.0
C2016 C 0.58595 0.90147 0.43231 0.0
C2017 C 0.60172 0.89521 0.43726 0.0
O2018 O 0.64337 0.7604 0.62944 0.0
O2019 O 0.6187 0.72993 0.45038 0.0
O2020 O 0.59226 0.87418 0.43457 0.0
O2021 O 0.63013 0.90119 0.6217 0.0
H2022 H 0.61531 0.73415 0.63389 0.0
H2023 H 0.62271 0.76401 0.65899 0.0
H2024 H 0.64336 0.76236 0.67113 0.0
H2025 H 0.61671 0.74168 0.67294 0.0
H2026 H 0.60516 0.75485 0.62374 0.0
H2027 H 0.66868 0.78842 0.60506 0.0
H2028 H 0.58972 0.78556 0.60507 0.0
H2029 H 0.57935 0.75851 0.60765 0.0
H2030 H 0.5847 0.76978 0.58213 0.0
H2031 H 0.68101 0.81504 0.58096 0.0
H2032 H 0.66679 0.82791 0.57995 0.0
H2033 H 0.66212 0.80915 0.56014 0.0
H2034 H 0.65786 0.90873 0.63622 0.0
H2035 H 0.6447 0.90248 0.67194 0.0
H2036 H 0.63253 0.88031 0.65462 0.0
H2037 H 0.61869 0.89244 0.66156 0.0
H2038 H 0.66058 0.89971 0.60329 0.0
H2039 H 0.59473 0.86932 0.61016 0.0
H2040 H 0.65909 0.86739 0.56177 0.0
H2041 H 0.66423 0.86039 0.58678 0.0
H2042 H 0.67576 0.88707 0.58094 0.0
H2043 H 0.57131 0.83664 0.59485 0.0
H2044 H 0.58215 0.82061 0.59357 0.0
H2045 H 0.57976 0.83205 0.5703 0.0
H2046 H 0.60507 0.89889 0.45419 0.0
H2047 H 0.62934 0.88249 0.44866 0.0
H2048 H 0.56405 0.83788 0.44533 0.0
H2049 H 0.6438 0.86457 0.4892 0.0
H2050 H 0.65349 0.8758 0.46421 0.0
H2051 H 0.64496 0.84931 0.46848 0.0
H2052 H 0.54904 0.80697 0.46359 0.0
H2053 H 0.5636 0.80693 0.4863 0.0
H2054 H 0.56525 0.79632 0.46182 0.0
H2055 H 0.58993 0.70666 0.44203 0.0
H2056 H 0.59013 0.68184 0.46774 0.0
H2057 H 0.5949 0.70486 0.48066 0.0
H2058 H 0.61601 0.70103 0.47644 0.0
H2059 H 0.64752 0.76766 0.45475 0.0
H2060 H 0.58249 0.725 0.46323 0.0
H2061 H 0.65325 0.80651 0.48756 0.0
H2062 H 0.64718 0.8128 0.46263 0.0
H2063 H 0.66391 0.80265 0.46418 0.0
H2064 H 0.56027 0.73509 0.47588 0.0
H2065 H 0.56883 0.7618 0.47331 0.0
H2066 H 0.57324 0.75303 0.49755 0.0
H2067 H 0.62675 0.82463 0.60065 0.0
H2068 H 0.61226 0.85738 0.54513 0.0
H2069 H 0.60595 0.85158 0.50803 0.0
H2070 H 0.60469 0.80349 0.45799 0.0
H2071 H 0.61615 0.76907 0.51413 0.0
H2072 H 0.62152 0.77437 0.55128 0.0
H2073 H 0.59311 0.91815 0.4356 0.0
H2074 H 0.57229 0.89301 0.44238 0.0
H2075 H 0.58034 0.89816 0.41574 0.0
C2076 C 0.09464 0.69184 0.66166 0.0
C2077 C 0.09921 0.71055 0.64897 0.0
C2078 C 0.12268 0.72869 0.62075 0.0
C2079 C 0.11586 0.74117 0.61287 0.0
C2080 C 0.12941 0.7591 0.60232 0.0
C2081 C 0.15002 0.76426 0.599 0.0
C2082 C 0.15668 0.75122 0.60615 0.0
C2083 C 0.14283 0.73349 0.61689 0.0
C2084 C 0.12172 0.77258 0.59478 0.0
C2085 C 0.17843 0.75608 0.60252 0.0
C2086 C 0.27937 0.88685 0.65865 0.0
C2087 C 0.27171 0.89718 0.64366 0.0
C2088 C 0.23641 0.87055 0.631 0.0
C2089 C 0.24215 0.85875 0.61934 0.0
C2090 C 0.22741 0.84192 0.60692 0.0
C2091 C 0.20657 0.83696 0.60584 0.0
C2092 C 0.20067 0.84863 0.61774 0.0
C2093 C 0.21568 0.86519 0.6303 0.0
C2094 C 0.23417 0.82948 0.59486 0.0
C2095 C 0.1786 0.84377 0.61694 0.0
C2096 C 0.23048 0.88287 0.47192 0.0
C2097 C 0.23957 0.87439 0.48417 0.0
C2098 C 0.22718 0.85573 0.49417 0.0
C2099 C 0.20525 0.84624 0.49336 0.0
C2100 C 0.19616 0.85548 0.48208 0.0
C2101 C 0.20891 0.87344 0.47117 0.0
C2102 C 0.23771 0.84617 0.50523 0.0
C2103 C 0.17295 0.84628 0.4812 0.0
C2104 C 0.09879 0.68391 0.44055 0.0
C2105 C 0.10222 0.70503 0.44593 0.0
C2106 C 0.13344 0.73678 0.45875 0.0
C2107 C 0.15422 0.74434 0.46425 0.0
C2108 C 0.16544 0.76148 0.47781 0.0
C2109 C 0.15568 0.77153 0.48566 0.0
C2110 C 0.13484 0.76438 0.47956 0.0
C2111 C 0.12392 0.74704 0.46619 0.0
C2112 C 0.18767 0.76875 0.48388 0.0
C2113 C 0.12417 0.77512 0.48714 0.0
C2114 C 0.1646 0.78349 0.58837 0.0
C2115 C 0.17797 0.80079 0.60087 0.0
C2116 C 0.19116 0.81975 0.59196 0.0
C2117 C 0.19052 0.82175 0.57005 0.0
C2118 C 0.20226 0.84093 0.56075 0.0
C2119 C 0.20213 0.84263 0.53912 0.0
C2120 C 0.19084 0.82513 0.52594 0.0
C2121 C 0.19179 0.82651 0.50389 0.0
C2122 C 0.18015 0.80878 0.49131 0.0
C2123 C 0.16736 0.78965 0.50008 0.0
C2124 C 0.16627 0.78795 0.5221 0.0
C2125 C 0.15365 0.76894 0.53151 0.0
C2126 C 0.15287 0.76744 0.55321 0.0
C2127 C 0.16496 0.78484 0.56631 0.0
C2128 C 0.17785 0.80412 0.55715 0.0
C2129 C 0.17827 0.80574 0.53504 0.0
C2130 C 0.26935 0.92097 0.43713 0.0
C2131 C 0.2631 0.91121 0.45794 0.0
O2132 O 0.10987 0.71144 0.63123 0.0
O2133 O 0.12326 0.7198 0.44603 0.0
O2134 O 0.24167 0.89933 0.45965 0.0
O2135 O 0.25018 0.88706 0.64318 0.0
H2136 H 0.10995 0.7235 0.65968 0.0
H2137 H 0.10946 0.69304 0.6663 0.0
H2138 H 0.08495 0.67723 0.65266 0.0
H2139 H 0.08648 0.69125 0.67615 0.0
H2140 H 0.09994 0.73689 0.61469 0.0
H2141 H 0.14776 0.72343 0.6226 0.0
H2142 H 0.13223 0.78853 0.60084 0.0
H2143 H 0.10569 0.7671 0.5998 0.0
H2144 H 0.12188 0.77294 0.57742 0.0
H2145 H 0.18074 0.74366 0.60774 0.0
H2146 H 0.18978 0.77048 0.61117 0.0
H2147 H 0.18184 0.75861 0.58562 0.0
H2148 H 0.27632 0.89623 0.62753 0.0
H2149 H 0.27173 0.87028 0.65463 0.0
H2150 H 0.27611 0.88839 0.67517 0.0
H2151 H 0.2964 0.89387 0.65752 0.0
H2152 H 0.25803 0.86244 0.61988 0.0
H2153 H 0.21135 0.87428 0.63945 0.0
H2154 H 0.23368 0.83204 0.57786 0.0
H2155 H 0.22337 0.81286 0.59744 0.0
H2156 H 0.25019 0.83367 0.59942 0.0
H2157 H 0.17681 0.85514 0.62605 0.0
H2158 H 0.16815 0.82835 0.62333 0.0
H2159 H 0.1735 0.84338 0.60043 0.0
H2160 H 0.2708 0.92165 0.47185 0.0
H2161 H 0.25628 0.88179 0.48551 0.0
H2162 H 0.20203 0.88016 0.4618 0.0
H2163 H 0.23977 0.85047 0.52214 0.0
H2164 H 0.25334 0.85169 0.49899 0.0
H2165 H 0.22833 0.82918 0.50368 0.0
H2166 H 0.1688 0.85728 0.47538 0.0
H2167 H 0.16636 0.84121 0.49693 0.0
H2168 H 0.16555 0.83262 0.47047 0.0
H2169 H 0.09724 0.70333 0.46226 0.0
H2170 H 0.0821 0.67187 0.44191 0.0
H2171 H 0.10793 0.6805 0.45172 0.0
H2172 H 0.10352 0.68295 0.42449 0.0
H2173 H 0.16152 0.73647 0.45819 0.0
H2174 H 0.10814 0.74182 0.46128 0.0
H2175 H 0.18957 0.76935 0.5012 0.0
H2176 H 0.19809 0.78452 0.47826 0.0
H2177 H 0.19269 0.75865 0.47723 0.0
H2178 H 0.10823 0.76823 0.4802 0.0
H2179 H 0.13344 0.79158 0.48318 0.0
H2180 H 0.12316 0.77432 0.50445 0.0
H2181 H 0.17819 0.79945 0.61775 0.0
H2182 H 0.21162 0.85485 0.5701 0.0
H2183 H 0.21129 0.85782 0.53287 0.0
H2184 H 0.18114 0.80988 0.4744 0.0
H2185 H 0.14423 0.755 0.52221 0.0
H2186 H 0.1429 0.75242 0.5596 0.0
H2187 H 0.28512 0.9083 0.42435 0.0
H2188 H 0.27702 0.93788 0.44063 0.0
H2189 H 0.25507 0.91936 0.42934 0.0
C2190 C 0.11852 0.39173 0.65868 0.0
C2191 C 0.1109 0.37814 0.63865 0.0
C2192 C 0.13918 0.37411 0.62625 0.0
C2193 C 0.15224 0.39413 0.61918 0.0
C2194 C 0.16965 0.39912 0.60732 0.0
C2195 C 0.1739 0.38372 0.60218 0.0
C2196 C 0.161 0.36367 0.60961 0.0
C2197 C 0.14398 0.35923 0.62179 0.0
C2198 C 0.1835 0.42084 0.60025 0.0
C2199 C 0.16506 0.34687 0.60449 0.0
C2200 C 0.33142 0.42109 0.6448 0.0
C2201 C 0.31041 0.40492 0.63471 0.0
C2202 C 0.28026 0.40718 0.62514 0.0
C2203 C 0.26802 0.38862 0.61389 0.0
C2204 C 0.2509 0.38512 0.60144 0.0
C2205 C 0.2463 0.40073 0.59992 0.0
C2206 C 0.25884 0.41955 0.61111 0.0
C2207 C 0.27544 0.42235 0.62388 0.0
C2208 C 0.23741 0.36455 0.59042 0.0
C2209 C 0.25455 0.43661 0.60984 0.0
C2210 C 0.2689 0.4 0.45803 0.0
C2211 C 0.25679 0.38266 0.47006 0.0
C2212 C 0.24212 0.38184 0.48374 0.0
C2213 C 0.23994 0.39901 0.48591 0.0
C2214 C 0.25237 0.41664 0.47403 0.0
C2215 C 0.26643 0.41673 0.45994 0.0
C2216 C 0.22847 0.36233 0.49529 0.0
C2217 C 0.2506 0.43526 0.47592 0.0
C2218 C 0.09433 0.38484 0.46934 0.0
C2219 C 0.10814 0.38704 0.45088 0.0
C2220 C 0.13342 0.3793 0.46637 0.0
C2221 C 0.13791 0.36392 0.46817 0.0
C2222 C 0.15559 0.36736 0.47939 0.0
C2223 C 0.16933 0.38687 0.4888 0.0
C2224 C 0.16502 0.40263 0.48692 0.0
C2225 C 0.14693 0.39862 0.47597 0.0
C2226 C 0.15953 0.3501 0.48124 0.0
C2227 C 0.17952 0.42373 0.49648 0.0
C2228 C 0.19183 0.38855 0.58908 0.0
C2229 C 0.21009 0.39236 0.59916 0.0
C2230 C 0.22759 0.39695 0.58786 0.0
C2231 C 0.22699 0.39789 0.56577 0.0
C2232 C 0.24441 0.40285 0.55388 0.0
C2233 C 0.24338 0.40302 0.5321 0.0
C2234 C 0.22496 0.39842 0.52141 0.0
C2235 C 0.22346 0.39776 0.49926 0.0
C2236 C 0.20529 0.39429 0.48922 0.0
C2237 C 0.18819 0.39074 0.50061 0.0
C2238 C 0.18897 0.39022 0.5227 0.0
C2239 C 0.17162 0.38547 0.53459 0.0
C2240 C 0.1725 0.38487 0.55631 0.0
C2241 C 0.19079 0.3891 0.567 0.0
C2242 C 0.20845 0.3938 0.55532 0.0
C2243 C 0.2075 0.39426 0.53313 0.0
C2244 C 0.31714 0.41277 0.45028 0.0
C2245 C 0.29546 0.3935 0.44608 0.0
O2246 O 0.12198 0.36846 0.6375 0.0
O2247 O 0.11592 0.37463 0.45522 0.0
O2248 O 0.28203 0.40052 0.44348 0.0
O2249 O 0.29615 0.41063 0.6382 0.0
H2250 H 0.11399 0.38765 0.62466 0.0
H2251 H 0.13561 0.40253 0.65848 0.0
H2252 H 0.11493 0.38209 0.67268 0.0
H2253 H 0.11131 0.401 0.66036 0.0
H2254 H 0.1491 0.40598 0.62303 0.0
H2255 H 0.13402 0.34391 0.62757 0.0
H2256 H 0.19998 0.4265 0.60453 0.0
H2257 H 0.1793 0.43145 0.60724 0.0
H2258 H 0.18227 0.4212 0.58294 0.0
H2259 H 0.15265 0.33173 0.61007 0.0
H2260 H 0.1801 0.35067 0.6119 0.0
H2261 H 0.1663 0.34569 0.5873 0.0
H2262 H 0.31341 0.40608 0.61774 0.0
H2263 H 0.33049 0.42225 0.66202 0.0
H2264 H 0.33666 0.43634 0.63823 0.0
H2265 H 0.34332 0.41721 0.64145 0.0
H2266 H 0.2713 0.37659 0.61542 0.0
H2267 H 0.28489 0.43654 0.63285 0.0
H2268 H 0.23881 0.36647 0.57323 0.0
H2269 H 0.22084 0.3581 0.59408 0.0
H2270 H 0.24182 0.35339 0.59491 0.0
H2271 H 0.2675 0.45125 0.61684 0.0
H2272 H 0.2402 0.43224 0.61835 0.0
H2273 H 0.25193 0.43912 0.59327 0.0
H2274 H 0.29141 0.38365 0.45994 0.0
H2275 H 0.25804 0.36933 0.46809 0.0
H2276 H 0.27566 0.42995 0.4504 0.0
H2277 H 0.23281 0.36497 0.51223 0.0
H2278 H 0.23002 0.34949 0.48957 0.0
H2279 H 0.2119 0.35764 0.49359 0.0
H2280 H 0.26367 0.44882 0.46847 0.0
H2281 H 0.2502 0.43912 0.49264 0.0
H2282 H 0.23585 0.43188 0.46815 0.0
H2283 H 0.12089 0.40326 0.44937 0.0
H2284 H 0.08971 0.39629 0.46946 0.0
H2285 H 0.10293 0.3871 0.48441 0.0
H2286 H 0.08011 0.36923 0.46908 0.0
H2287 H 0.12736 0.34907 0.46076 0.0
H2288 H 0.14357 0.41063 0.47507 0.0
H2289 H 0.16248 0.34819 0.4979 0.0
H2290 H 0.17361 0.35389 0.47253 0.0
H2291 H 0.14628 0.33531 0.47488 0.0
H2292 H 0.17523 0.43491 0.49165 0.0
H2293 H 0.19573 0.42951 0.49189 0.0
H2294 H 0.17915 0.4229 0.5138 0.0
H2295 H 0.21068 0.39172 0.61611 0.0
H2296 H 0.25897 0.40647 0.56129 0.0
H2297 H 0.25719 0.40676 0.52372 0.0
H2298 H 0.20425 0.3939 0.47224 0.0
H2299 H 0.15711 0.38204 0.52723 0.0
H2300 H 0.15862 0.38101 0.5646 0.0
H2301 H 0.32242 0.42231 0.43613 0.0
H2302 H 0.32897 0.40915 0.45498 0.0
H2303 H 0.31646 0.4221 0.46331 0.0
C2304 C 0.99021 0.37352 0.08698 0.0
C2305 C 0.00226 0.38113 0.06894 0.0
C2306 C 0.02814 0.41234 0.08853 0.0
C2307 C 0.01565 0.40494 0.10666 0.0
N2308 N 0.98969 0.37492 0.1247 0.0
N2309 N 0.03427 0.40577 0.05293 0.0
C2310 C 0.99814 0.38445 0.10638 0.0
C2311 C 0.02175 0.39989 0.06988 0.0
N2312 N 0.97105 0.35586 0.0856 0.0
N2313 N 0.0459 0.43137 0.08885 0.0
H2314 H 0.02962 0.39799 0.03848 0.0
H2315 H 0.04977 0.41767 0.05337 0.0
H2316 H 0.05322 0.43999 0.10244 0.0
H2317 H 0.05341 0.43904 0.07544 0.0
H2318 H 0.96044 0.35097 0.09757 0.0
H2319 H 0.96514 0.3468 0.07194 0.0
H2320 H 0.97819 0.35945 0.12541 0.0
H2321 H 0.99583 0.38153 0.13944 0.0
C2322 C 0.65023 0.6172 0.08227 0.0
C2323 C 0.63895 0.61012 0.06286 0.0
C2324 C 0.61239 0.57887 0.07937 0.0
C2325 C 0.62102 0.58796 0.09936 0.0
N2326 N 0.65355 0.60924 0.11825 0.0
N2327 N 0.60814 0.58475 0.04318 0.0
C2328 C 0.64166 0.60531 0.10043 0.0
C2329 C 0.61981 0.59101 0.06142 0.0
N2330 N 0.6689 0.6354 0.08341 0.0
N2331 N 0.5988 0.55822 0.07727 0.0
H2332 H 0.61261 0.59334 0.02964 0.0
H2333 H 0.59307 0.57193 0.04217 0.0
H2334 H 0.59602 0.54845 0.08963 0.0
H2335 H 0.59321 0.55062 0.0628 0.0
H2336 H 0.67664 0.64266 0.09745 0.0
H2337 H 0.67623 0.64385 0.07025 0.0
H2338 H 0.66925 0.62056 0.11964 0.0
H2339 H 0.64825 0.5995 0.13094 0.0
C2340 C 0.40454 0.02471 0.04627 0.0
C2341 C 0.38322 0.0115 0.05048 0.0
C2342 C 0.39207 0.00952 0.08704 0.0
C2343 C 0.41346 0.02416 0.08338 0.0
N2344 N 0.4399 0.03662 0.0573 0.0
N2345 N 0.35642 0.99055 0.07463 0.0
C2346 C 0.41973 0.02927 0.06233 0.0
C2347 C 0.37699 0.00365 0.07072 0.0
N2348 N 0.41034 0.03292 0.02691 0.0
N2349 N 0.38547 -7e-05 0.1056 0.0
H2350 H 0.34457 0.98606 0.06333 0.0
H2351 H 0.35121 0.98454 0.08939 0.0
H2352 H 0.39519 0.00151 0.1182 0.0
H2353 H 0.39519 0.00151 0.1182 0.0
H2354 H 0.42543 0.04458 0.0237 0.0
H2355 H 0.39979 0.02921 0.01441 0.0
H2356 H 0.445 0.03906 0.04199 0.0
H2357 H 0.45088 0.03729 0.0679 0.0
C2358 C 0.37629 0.02024 0.93667 0.0
C2359 C 0.36453 0.99957 0.94302 0.0
C2360 C 0.38486 0.99172 0.91969 0.0
C2361 C 0.40087 0.01278 0.92094 0.0
N2362 N 0.40663 0.04706 0.92085 0.0
N2363 N 0.35236 0.96448 0.93332 0.0
C2364 C 0.39498 0.02704 0.92613 0.0
C2365 C 0.36705 0.98483 0.93209 0.0
N2366 N 0.36963 0.03337 0.94032 0.0
N2367 N 0.38581 0.979 0.90527 0.0
H2368 H 0.33777 0.95936 0.9394 0.0
H2369 H 0.35458 0.95287 0.92816 0.0
H2370 H 0.39704 0.98466 0.89382 0.0
H2371 H 0.37413 0.96371 0.90275 0.0
H2372 H 0.37838 0.04882 0.93653 0.0
H2373 H 0.35463 0.02829 0.94515 0.0
H2374 H 0.41998 0.05305 0.91203 0.0
H2375 H 0.41998 0.05305 0.91203 0.0
C2376 C 0.02236 0.38198 0.94433 0.0
C2377 C 0.01867 0.38933 0.96322 0.0
C2378 C 0.03326 0.42331 0.94826 0.0
C2379 C 0.03208 0.41441 0.9283 0.0
N2380 N 0.0411 0.39183 0.91208 0.0
N2381 N 0.02433 0.41789 0.98491 0.0
C2382 C 0.03145 0.39566 0.92763 0.0
C2383 C 0.02561 0.41043 0.96582 0.0
N2384 N 0.01618 0.36185 0.94182 0.0
N2385 N 0.04265 0.4441 0.95037 0.0
H2386 H 0.02046 0.40925 0.99842 0.0
H2387 H 0.02665 0.43238 0.98736 0.0
H2388 H 0.04991 0.45377 0.9379 0.0
H2389 H 0.04525 0.45192 0.9646 0.0
H2390 H 0.01653 0.35545 0.92746 0.0
H2391 H 0.00944 0.35124 0.95365 0.0
H2392 H 0.0423 0.37892 0.91158 0.0
H2393 H 0.05062 0.40321 0.90174 0.0
C2394 C 0.61613 0.63157 0.9439 0.0
C2395 C 0.61388 0.63309 0.96569 0.0
C2396 C 0.581 0.63118 0.95863 0.0
C2397 C 0.58115 0.62564 0.93732 0.0
N2398 N 0.60196 0.624 0.90923 0.0
N2399 N 0.59208 0.63054 0.99412 0.0
C2400 C 0.59943 0.62678 0.92981 0.0
C2401 C 0.59582 0.63199 0.97316 0.0
N2402 N 0.63441 0.63493 0.93633 0.0
N2403 N 0.56738 0.63661 0.96498 0.0
H2404 H 0.60193 0.63004 0.00539 0.0
H2405 H 0.57805 0.62752 7e-05 0.0
H2406 H 0.5574 0.63804 0.95471 0.0
H2407 H 0.56801 0.64245 0.97998 0.0
H2408 H 0.63657 0.63373 0.92041 0.0
H2409 H 0.6477 0.63986 0.94573 0.0
H2410 H 0.59136 0.62119 0.89706 0.0
H2411 H 0.59136 0.62119 0.89706 0.0
C2412 C 0.01193 0.61876 0.95413 0.0
C2413 C 0.02881 0.63672 0.96372 0.0
C2414 C 0.05084 0.63851 0.93533 0.0
C2415 C 0.03298 0.6232 0.92339 0.0
N2416 N 0.99494 0.60068 0.92199 0.0
N2417 N 0.0635 0.66622 0.96094 0.0
C2418 C 0.01306 0.61383 0.93287 0.0
C2419 C 0.04805 0.64728 0.95368 0.0
N2420 N 0.99503 0.60581 0.96554 0.0
N2421 N 0.07056 0.64464 0.92965 0.0
H2422 H 0.06189 0.67373 0.97378 0.0
H2423 H 0.07702 0.67541 0.95276 0.0
H2424 H 0.07412 0.63889 0.91668 0.0
H2425 H 0.08357 0.65413 0.93925 0.0
H2426 H 0.9833 0.59138 0.95991 0.0
H2427 H 0.99393 0.60833 0.98141 0.0
H2428 H 0.98043 0.59615 0.92789 0.0
H2429 H 0.9936 0.59522 0.90677 0.0
C2430 C 0.37288 0.40125 0.94689 0.0
C2431 C 0.36069 0.40254 0.96262 0.0
C2432 C 0.35192 0.42194 0.93889 0.0
C2433 C 0.36202 0.41828 0.9222 0.0
N2434 N 0.37479 0.39684 0.90991 0.0
N2435 N 0.33374 0.40915 0.97114 0.0
C2436 C 0.37039 0.40572 0.92601 0.0
C2437 C 0.34891 0.41159 0.95803 0.0
N2438 N 0.3871 0.39602 0.95182 0.0
N2439 N 0.34495 0.43504 0.93679 0.0
H2440 H 0.32997 0.40064 0.9847 0.0
H2441 H 0.32322 0.41353 0.96728 0.0
H2442 H 0.34492 0.442 0.92296 0.0
H2443 H 0.34021 0.44006 0.94951 0.0
H2444 H 0.39753 0.39659 0.94102 0.0
H2445 H 0.3901 0.39351 0.96713 0.0
H2446 H 0.3796 0.38655 0.91241 0.0
H2447 H 0.37065 0.39699 0.89432 0.0
C2448 C 0.63317 0.99509 0.93479 0.0
C2449 C 0.62781 0.99301 0.95615 0.0
C2450 C 0.59163 0.96713 0.94646 0.0
C2451 C 0.59617 0.97144 0.92487 0.0
N2452 N 0.62255 0.98416 0.89857 0.0
N2453 N 0.60177 0.97894 0.98247 0.0
C2454 C 0.61736 0.9839 0.91903 0.0
C2455 C 0.60707 0.97935 0.96205 0.0
N2456 N 0.65342 0.00821 0.92961 0.0
N2457 N 0.573 0.95074 0.95221 0.0
H2458 H 0.61252 0.98758 0.9945 0.0
H2459 H 0.58645 0.97143 0.98725 0.0
H2460 H 0.5614 0.94055 0.94164 0.0
H2461 H 0.56991 0.94568 0.96752 0.0
H2462 H 0.65825 0.01301 0.91451 0.0
H2463 H 0.66564 0.01511 0.9407 0.0
H2464 H 0.63771 0.99123 0.89348 0.0
H2465 H 0.6119 0.97572 0.88647 0.0
C2466 C 0.63285 0.02694 0.06233 0.0
C2467 C 0.65241 0.04253 0.05498 0.0
C2468 C 0.65464 0.0659 0.0828 0.0
C2469 C 0.63393 0.05114 0.0883 0.0
N2470 N 0.61148 0.01466 0.0926 0.0
N2471 N 0.68393 0.07559 0.06113 0.0
C2472 C 0.62534 0.03065 0.08092 0.0
C2473 C 0.66395 0.06153 0.06621 0.0
N2474 N 0.62081 0.00901 0.05113 0.0
N2475 N 0.66614 0.08411 0.0935 0.0
H2476 H 0.69183 0.07275 0.04972 0.0
H2477 H 0.69271 0.08985 0.06884 0.0
H2478 H 0.66106 0.08815 0.10671 0.0
H2479 H 0.66106 0.08815 0.10671 0.0
H2480 H 0.60559 0.99822 0.05506 0.0
H2481 H 0.6251 0.00576 0.0369 0.0
H2482 H 0.60588 0.9994 0.08846 0.0
H2483 H 0.60836 0.01683 0.10793 0.0
C2484 C 0.98505 0.61771 0.0842 0.0
C2485 C 0.98435 0.61197 0.06301 0.0
C2486 C 0.96675 0.5759 0.0724 0.0
C2487 C 0.96483 0.58109 0.09357 0.0
N2488 N 0.97341 0.6093 0.11873 0.0
N2489 N 0.9709 0.58559 0.03603 0.0
C2490 C 0.97433 0.60248 0.09921 0.0
C2491 C 0.97382 0.59107 0.05684 0.0
N2492 N 0.99529 0.638 0.09014 0.0
N2493 N 0.96421 0.55738 0.0672 0.0
H2494 H 0.97671 0.59624 0.02415 0.0
H2495 H 0.96103 0.57053 0.03058 0.0
H2496 H 0.96448 0.54761 0.07803 0.0
H2497 H 0.96636 0.5535 0.0522 0.0
H2498 H 0.99635 0.64296 0.10566 0.0
H2499 H 0.00269 0.64987 0.0796 0.0
H2500 H 0.966 0.60021 0.13147 0.0
H2501 H 0.966 0.60021 0.13147 0.0
C2502 C 0.39256 0.36858 0.07647 0.0
C2503 C 0.3978 0.37423 0.05548 0.0
C2504 C 0.43138 0.37734 0.06175 0.0
C2505 C 0.42675 0.37303 0.08344 0.0
N2506 N 0.40532 0.37222 0.11194 0.0
N2507 N 0.42379 0.38855 0.02927 0.0
C2508 C 0.40809 0.37095 0.091 0.0
C2509 C 0.4177 0.38001 0.04847 0.0
N2510 N 0.3725 0.36026 0.08252 0.0
N2511 N 0.44836 0.3783 0.05342 0.0
H2512 H 0.41412 0.39059 0.0191 0.0
H2513 H 0.43899 0.39536 0.02427 0.0
H2514 H 0.45971 0.37757 0.06201 0.0
H2515 H 0.45053 0.37843 0.03736 0.0
H2516 H 0.3674 0.35367 0.09705 0.0
H2517 H 0.3605 0.35802 0.07235 0.0
H2518 H 0.39267 0.37248 0.11766 0.0
H2519 H 0.41669 0.37616 0.12355 0.0
C2520 C 0.64118 0.70606 0.40963 0.0
C2521 C 0.62693 0.68939 0.39634 0.0
C2522 C 0.59844 0.68257 0.4192 0.0
C2523 C 0.61274 0.69974 0.43225 0.0
N2524 N 0.6487 0.72073 0.44459 0.0
N2525 N 0.59361 0.65807 0.39184 0.0
C2526 C 0.63445 0.70916 0.42907 0.0
C2527 C 0.60601 0.67648 0.40217 0.0
N2528 N 0.66083 0.71977 0.40329 0.0
N2529 N 0.57761 0.67223 0.42277 0.0
H2530 H 0.59888 0.65297 0.37966 0.0
H2531 H 0.57887 0.64697 0.39664 0.0
H2532 H 0.57134 0.67434 0.43622 0.0
H2533 H 0.56636 0.66184 0.412 0.0
H2534 H 0.67092 0.73342 0.41154 0.0
H2535 H 0.6664 0.71866 0.38886 0.0
H2536 H 0.66451 0.72632 0.44342 0.0
H2537 H 0.64466 0.72266 0.45954 0.0
C2538 C 0.30513 0.93768 0.42604 0.0
C2539 C 0.28674 0.92751 0.40384 0.0
C2540 C 0.25626 0.887 0.4272 0.0
C2541 C 0.27252 0.90052 0.45104 0.0
N2542 N 0.31238 0.93014 0.46689 0.0
N2543 N 0.25038 0.89482 0.38678 0.0
C2544 C 0.29941 0.92333 0.44991 0.0
C2545 C 0.26303 0.90227 0.40403 0.0
N2546 N 0.32349 0.95555 0.42443 0.0
N2547 N 0.23969 0.86765 0.42773 0.0
H2548 H 0.25348 0.90356 0.37346 0.0
H2549 H 0.23677 0.88039 0.38663 0.0
H2550 H 0.23639 0.85942 0.44147 0.0
H2551 H 0.23033 0.86039 0.41442 0.0
H2552 H 0.33431 0.9615 0.43689 0.0
H2553 H 0.32731 0.96374 0.41066 0.0
H2554 H 0.32702 0.94352 0.46657 0.0
H2555 H 0.30779 0.92188 0.48064 0.0
C2556 C 0.08173 0.35416 0.40143 0.0
C2557 C 0.0643 0.35638 0.39951 0.0
C2558 C 0.08107 0.38547 0.42437 0.0
C2559 C 0.09584 0.38012 0.4298 0.0
N2560 N 0.11757 0.36997 0.41353 0.0
N2561 N 0.04871 0.37628 0.40714 0.0
C2562 C 0.09847 0.36754 0.41535 0.0
C2563 C 0.06447 0.37279 0.41017 0.0
N2564 N 0.08236 0.33935 0.38998 0.0
N2565 N 0.08321 0.40327 0.43142 0.0
H2566 H 0.03584 0.36714 0.39723 0.0
H2567 H 0.04841 0.38809 0.41505 0.0
H2568 H 0.09632 0.41459 0.43986 0.0
H2569 H 0.09632 0.41459 0.43986 0.0
H2570 H 0.09339 0.3354 0.39274 0.0
H2571 H 0.0713 0.33035 0.37831 0.0
H2572 H 0.12095 0.36238 0.40218 0.0
H2573 H 0.13072 0.38181 0.42143 0.0
C2574 C 0.02079 0.26804 0.30159 0.0
C2575 C 0.03727 0.29436 0.31128 0.0
C2576 C 0.07625 0.29968 0.28848 0.0
C2577 C 0.0574 0.27505 0.2745 0.0
N2578 N 0.0195 0.23745 0.27654 0.0
N2579 N 0.07681 0.32844 0.31498 0.0
C2580 C 0.03107 0.25683 0.28432 0.0
C2581 C 0.06475 0.30979 0.30559 0.0
N2582 N 0.00089 0.25674 0.30757 0.0
N2583 N 0.09674 0.30992 0.28464 0.0
H2584 H 0.07054 0.33423 0.32531 0.0
H2585 H 0.09263 0.33744 0.31213 0.0
H2586 H 0.10254 0.30354 0.27443 0.0
H2587 H 0.10708 0.32401 0.29201 0.0
H2588 H 0.99119 0.24159 0.30233 0.0
H2589 H 0.99472 0.26307 0.31734 0.0
H2590 H 0.00434 0.22756 0.28126 0.0
H2591 H 0.0258 0.23214 0.26567 0.0
C2592 C 0.71335 0.73649 0.29883 0.0
C2593 C 0.69149 0.73435 0.31263 0.0
C2594 C 0.70391 0.77912 0.30113 0.0
C2595 C 0.722 0.77818 0.28254 0.0
N2596 N 0.74685 0.7619 0.27402 0.0
N2597 N 0.67199 0.75393 0.32657 0.0
C2598 C 0.7307 0.75963 0.28486 0.0
C2599 C 0.68727 0.75557 0.31459 0.0
N2600 N 0.71637 0.72065 0.29858 0.0
N2601 N 0.70193 0.79555 0.30256 0.0
H2602 H 0.66273 0.74081 0.33508 0.0
H2603 H 0.66931 0.76589 0.32785 0.0
H2604 H 0.71143 0.8085 0.29387 0.0
H2605 H 0.69122 0.79574 0.3124 0.0
H2606 H 0.72867 0.72152 0.29061 0.0
H2607 H 0.70632 0.70712 0.30616 0.0
H2608 H 0.751 0.75094 0.27442 0.0
H2609 H 0.75552 0.77492 0.26513 0.0
C2610 C 0.2604 0.95344 0.28836 0.0
C2611 C 0.26087 0.95946 0.30945 0.0
C2612 C 0.22957 0.96068 0.3019 0.0
C2613 C 0.22857 0.95316 0.28101 0.0
N2614 N 0.2363 0.93056 0.26206 0.0
N2615 N 0.24309 0.96453 0.3376 0.0
C2616 C 0.24214 0.94628 0.27611 0.0
C2617 C 0.24472 0.96202 0.31666 0.0
N2618 N 0.27712 0.95394 0.28004 0.0
N2619 N 0.21591 0.96618 0.30785 0.0
H2620 H 0.25365 0.96536 0.34886 0.0
H2621 H 0.23034 0.9641 0.34402 0.0
H2622 H 0.20307 0.96324 0.29868 0.0
H2623 H 0.21778 0.97439 0.32167 0.0
H2624 H 0.27743 0.95053 0.26423 0.0
H2625 H 0.29124 0.95984 0.2883 0.0
H2626 H 0.24567 0.9247 0.2588 0.0
H2627 H 0.22078 0.92082 0.25741 0.0
C2628 C 0.73567 0.9619 0.31405 0.0
C2629 C 0.72393 0.97122 0.31117 0.0
C2630 C 0.73097 0.97323 0.2738 0.0
C2631 C 0.74678 0.96874 0.27756 0.0
N2632 N 0.76623 0.96222 0.30407 0.0
N2633 N 0.71489 0.99046 0.28823 0.0
C2634 C 0.74971 0.96393 0.29845 0.0
C2635 C 0.72272 0.97816 0.29102 0.0
N2636 N 0.73323 0.95075 0.33143 0.0
N2637 N 0.72332 0.97249 0.25405 0.0
H2638 H 0.71021 0.99603 0.3005 0.0
H2639 H 0.71553 0.99723 0.27398 0.0
H2640 H 0.72685 0.96685 0.24095 0.0
H2641 H 0.71089 0.97448 0.25123 0.0
H2642 H 0.74021 0.94221 0.33326 0.0
H2643 H 0.72231 0.94799 0.34269 0.0
H2644 H 0.76967 0.96084 0.31962 0.0
H2645 H 0.77779 0.96425 0.29409 0.0
C2646 C 0.02219 0.75101 0.29832 0.0
C2647 C 0.0333 0.74189 0.30538 0.0
C2648 C 0.04815 0.74642 0.27084 0.0
C2649 C 0.04055 0.75921 0.26498 0.0
N2650 N 0.02039 0.77432 0.27469 0.0
N2651 N 0.06094 0.73565 0.29958 0.0
C2652 C 0.02768 0.76182 0.27921 0.0
C2653 C 0.04757 0.74111 0.29204 0.0
N2654 N 0.00544 0.74821 0.30898 0.0
N2655 N 0.05478 0.73819 0.25617 0.0
H2656 H 0.06176 0.73257 0.31531 0.0
H2657 H 0.07279 0.73656 0.29068 0.0
H2658 H 0.05309 0.73921 0.2401 0.0
H2659 H 0.05904 0.72768 0.25991 0.0
H2660 H 0.99537 0.75253 0.30321 0.0
H2661 H 0.00012 0.73958 0.32243 0.0
H2662 H 0.0137 0.77889 0.28588 0.0
H2663 H 0.02173 0.78101 0.26031 0.0
C2664 C 0.24949 0.29824 0.29627 0.0
C2665 C 0.26888 0.31395 0.28902 0.0
C2666 C 0.25583 0.3037 0.25287 0.0
C2667 C 0.23787 0.28544 0.25988 0.0
N2668 N 0.21882 0.26492 0.28967 0.0
N2669 N 0.29196 0.32933 0.26032 0.0
C2670 C 0.23494 0.28263 0.28199 0.0
C2671 C 0.27246 0.31605 0.2673 0.0
N2672 N 0.24469 0.2985 0.31675 0.0
N2673 N 0.25697 0.30999 0.23273 0.0
H2674 H 0.30474 0.33846 0.27033 0.0
H2675 H 0.29585 0.32968 0.2447 0.0
H2676 H 0.24477 0.30309 0.22172 0.0
H2677 H 0.26912 0.32405 0.22776 0.0
H2678 H 0.22988 0.28883 0.32242 0.0
H2679 H 0.25492 0.30973 0.32764 0.0
H2680 H 0.21797 0.26124 0.30541 0.0
H2681 H 0.20699 0.25305 0.28058 0.0
C2682 C 0.31614 0.3727 0.40477 0.0
C2683 C 0.30306 0.36985 0.38717 0.0
C2684 C 0.28027 0.37482 0.40999 0.0
C2685 C 0.29531 0.38119 0.42665 0.0
N2686 N 0.31958 0.37361 0.4425 0.0
N2687 N 0.27212 0.36753 0.37286 0.0
C2688 C 0.31086 0.37626 0.42488 0.0
C2689 C 0.28496 0.37073 0.38973 0.0
N2690 N 0.33436 0.37336 0.40217 0.0
N2691 N 0.26058 0.36994 0.41412 0.0
H2692 H 0.27376 0.36255 0.35818 0.0
H2693 H 0.26044 0.37083 0.37317 0.0
H2694 H 0.25548 0.36857 0.42934 0.0
H2695 H 0.24844 0.36387 0.40299 0.0
H2696 H 0.34556 0.37775 0.41414 0.0
H2697 H 0.33929 0.37149 0.38765 0.0
H2698 H 0.32952 0.36807 0.44218 0.0
H2699 H 0.31484 0.37448 0.45749 0.0
C2700 C 0.63764 0.91691 0.38958 0.0
C2701 C 0.65342 0.93605 0.39831 0.0
C2702 C 0.6395 0.92439 0.43303 0.0
C2703 C 0.62106 0.90724 0.42384 0.0
N2704 N 0.60251 0.88824 0.39175 0.0
N2705 N 0.66703 0.95946 0.42825 0.0
C2706 C 0.62014 0.90366 0.40166 0.0
C2707 C 0.65379 0.94019 0.42002 0.0
N2708 N 0.63956 0.9111 0.36986 0.0
N2709 N 0.64399 0.92551 0.45401 0.0
H2710 H 0.67728 0.97183 0.41928 0.0
H2711 H 0.66621 0.96362 0.44363 0.0
H2712 H 0.63552 0.91361 0.46419 0.0
H2713 H 0.65804 0.9371 0.46079 0.0
H2714 H 0.62962 0.89641 0.36351 0.0
H2715 H 0.65238 0.92021 0.36073 0.0
H2716 H 0.60042 0.88706 0.37551 0.0
H2717 H 0.58927 0.87743 0.39928 0.0
C2718 C 0.05536 0.70516 0.42195 0.0
C2719 C 0.06144 0.71094 0.40116 0.0
C2720 C 0.0949 0.71431 0.40917 0.0
C2721 C 0.08946 0.70995 0.43071 0.0
N2722 N 0.06656 0.70846 0.45798 0.0
N2723 N 0.0886 0.72574 0.37617 0.0
C2724 C 0.07035 0.70757 0.43727 0.0
C2725 C 0.08171 0.71698 0.39515 0.0
N2726 N 0.03502 0.69667 0.42706 0.0
N2727 N 0.11214 0.71524 0.40164 0.0
H2728 H 0.07933 0.7278 0.36545 0.0
H2729 H 0.10405 0.73273 0.3719 0.0
H2730 H 0.1231 0.71428 0.41071 0.0
H2731 H 0.11488 0.71544 0.3857 0.0
H2732 H 0.02931 0.68992 0.44141 0.0
H2733 H 0.02343 0.69447 0.41632 0.0
H2734 H 0.05361 0.7086 0.46298 0.0
H2735 H 0.07727 0.71207 0.47021 0.0
C2736 C 0.29204 0.05501 0.71808 0.0
C2737 C 0.29041 0.03574 0.71754 0.0
C2738 C 0.27063 0.0264 0.74964 0.0
C2739 C 0.27609 0.04705 0.75238 0.0
N2740 N 0.27872 0.07488 0.73267 0.0
N2741 N 0.27777 0.00258 0.73238 0.0
C2742 C 0.28292 0.05971 0.73464 0.0
C2743 C 0.27947 0.0212 0.73314 0.0
N2744 N 0.30294 0.06912 0.70322 0.0
N2745 N 0.25534 0.01152 0.7613 0.0
H2746 H 0.28333 0.99791 0.72008 0.0
H2747 H 0.27205 0.99235 0.74462 0.0
H2748 H 0.24656 0.01466 0.77127 0.0
H2749 H 0.24946 0.99593 0.75896 0.0
H2750 H 0.3066 0.08423 0.70427 0.0
H2751 H 0.30975 0.06623 0.69069 0.0
H2752 H 0.28189 0.08358 0.71932 0.0
H2753 H 0.26921 0.07657 0.74303 0.0
C2754 C 0.94743 0.23498 0.71844 0.0
C2755 C 0.96963 0.26113 0.72113 0.0
C2756 C 0.97656 0.25589 0.76883 0.0
C2757 C 0.95061 0.23169 0.76646 0.0
N2758 N 0.92251 0.19894 0.73966 0.0
N2759 N 0.00186 0.29025 0.74635 0.0
C2760 C 0.93847 0.21863 0.74087 0.0
C2761 C 0.98455 0.2713 0.74561 0.0
N2762 N 0.93741 0.22776 0.69969 0.0
N2763 N 0.9869 0.26271 0.78744 0.0
H2764 H 0.00681 0.29912 0.73302 0.0
H2765 H 0.01069 0.29637 0.76019 0.0
H2766 H 0.98092 0.25374 0.80062 0.0
H2767 H 0.00087 0.27679 0.78896 0.0
H2768 H 0.92462 0.21285 0.6979 0.0
H2769 H 0.94189 0.23704 0.68667 0.0
H2770 H 0.91522 0.19191 0.72536 0.0
H2771 H 0.91751 0.19034 0.75318 0.0
C2772 C 0.75454 0.70319 0.72442 0.0
C2773 C 0.73534 0.70237 0.72476 0.0
C2774 C 0.74967 0.72885 0.75253 0.0
C2775 C 0.76625 0.72556 0.75581 0.0
N2776 N 0.79062 0.7211 0.73654 0.0
N2777 N 0.71561 0.71667 0.73779 0.0
C2778 C 0.77066 0.71614 0.73919 0.0
C2779 C 0.7333 0.71605 0.73817 0.0
N2780 N 0.75732 0.69152 0.71012 0.0
N2781 N 0.74972 0.74485 0.76191 0.0
H2782 H 0.7027 0.70711 0.72814 0.0
H2783 H 0.71375 0.72641 0.7478 0.0
H2784 H 0.76243 0.75638 0.77064 0.0
H2785 H 0.76243 0.75638 0.77064 0.0
H2786 H 0.76978 0.68936 0.71089 0.0
H2787 H 0.74674 0.6834 0.69779 0.0
H2788 H 0.79528 0.71599 0.72387 0.0
H2789 H 0.803 0.73259 0.74563 0.0
C2790 C 0.71923 0.66098 0.61804 0.0
C2791 C 0.70192 0.6456 0.62873 0.0
C2792 C 0.69511 0.62057 0.60064 0.0
C2793 C 0.71281 0.63601 0.58999 0.0
N2794 N 0.73517 0.6726 0.58469 0.0
N2795 N 0.67001 0.61262 0.62766 0.0
C2796 C 0.72283 0.65678 0.59742 0.0
C2797 C 0.68886 0.62591 0.61929 0.0
N2798 N 0.73282 0.67939 0.62783 0.0
N2799 N 0.68427 0.60075 0.59311 0.0
H2800 H 0.66477 0.61613 0.6411 0.0
H2801 H 0.6587 0.59893 0.62029 0.0
H2802 H 0.68609 0.59629 0.57827 0.0
H2803 H 0.67363 0.58845 0.6019 0.0
H2804 H 0.74695 0.69023 0.62153 0.0
H2805 H 0.73099 0.68307 0.64307 0.0
H2806 H 0.74117 0.68791 0.58893 0.0
H2807 H 0.73732 0.67058 0.56902 0.0
C2808 C 0.34983 0.09114 0.63192 0.0
C2809 C 0.35674 0.07187 0.63477 0.0
C2810 C 0.39674 0.09703 0.60799 0.0
C2811 C 0.3856 0.11287 0.60081 0.0
N2812 N 0.36168 0.12872 0.61459 0.0
N2813 N 0.38525 0.06079 0.62725 0.0
C2814 C 0.36545 0.11347 0.61639 0.0
C2815 C 0.38028 0.07503 0.62386 0.0
N2816 N 0.33335 0.08912 0.64198 0.0
N2817 N 0.41408 0.09993 0.59914 0.0
H2818 H 0.37577 0.04793 0.63603 0.0
H2819 H 0.39856 0.06222 0.62101 0.0
H2820 H 0.42224 0.11207 0.58904 0.0
H2821 H 0.41964 0.09035 0.60228 0.0
H2822 H 0.32915 0.09998 0.64053 0.0
H2823 H 0.32463 0.07684 0.65172 0.0
H2824 H 0.34992 0.12866 0.62283 0.0
H2825 H 0.37088 0.14106 0.60506 0.0
C2826 C 0.93664 0.2839 0.60955 0.0
C2827 C 0.93729 0.2891 0.63097 0.0
C2828 C 0.9041 0.28719 0.62556 0.0
C2829 C 0.90283 0.28024 0.60438 0.0
N2830 N 0.91291 0.26057 0.58325 0.0
N2831 N 0.91829 0.28993 0.66062 0.0
C2832 C 0.9177 0.27541 0.5981 0.0
C2833 C 0.92009 0.28918 0.63942 0.0
N2834 N 0.95392 0.2868 0.59998 0.0
N2835 N 0.89012 0.29185 0.63265 0.0
H2836 H 0.929 0.29036 0.67141 0.0
H2837 H 0.90502 0.2879 0.66756 0.0
H2838 H 0.87702 0.28903 0.62405 0.0
H2839 H 0.8922 0.29961 0.64686 0.0
H2840 H 0.95394 0.28406 0.58394 0.0
H2841 H 0.96854 0.29408 0.60746 0.0
H2842 H 0.92338 0.25634 0.57893 0.0
H2843 H 0.89755 0.24976 0.57896 0.0
C2844 C 0.36194 0.27885 0.63661 0.0
C2845 C 0.36174 0.29723 0.63802 0.0
C2846 C 0.36714 0.30154 0.6004 0.0
C2847 C 0.37287 0.28665 0.59999 0.0
N2848 N 0.36739 0.25571 0.61563 0.0
N2849 N 0.36594 0.32722 0.62128 0.0
C2850 C 0.36791 0.27367 0.61756 0.0
C2851 C 0.36455 0.30875 0.61988 0.0
N2852 N 0.35516 0.26579 0.65304 0.0
N2853 N 0.36344 0.30829 0.58213 0.0
H2854 H 0.36503 0.33369 0.63535 0.0
H2855 H 0.37012 0.33708 0.60874 0.0
H2856 H 0.36398 0.30246 0.5675 0.0
H2857 H 0.35745 0.31778 0.58166 0.0
H2858 H 0.35359 0.2515 0.65289 0.0
H2859 H 0.34966 0.2686 0.66671 0.0
H2860 H 0.36804 0.24756 0.6282 0.0
H2861 H 0.36468 0.24817 0.60121 0.0
C2862 C 0.6959 0.0903 0.62815 0.0
C2863 C 0.70716 0.08086 0.63344 0.0
C2864 C 0.71478 0.08026 0.59655 0.0
C2865 C 0.70697 0.09311 0.59163 0.0
N2866 N 0.69026 0.11095 0.60411 0.0
N2867 N 0.73105 0.07081 0.62317 0.0
C2868 C 0.6977 0.09843 0.60784 0.0
C2869 C 0.71782 0.07716 0.61779 0.0
N2870 N 0.68224 0.09022 0.64192 0.0
N2871 N 0.71802 0.0698 0.58116 0.0
H2872 H 0.73409 0.06882 0.63867 0.0
H2873 H 0.74065 0.06972 0.61243 0.0
H2874 H 0.71361 0.06924 0.56551 0.0
H2875 H 0.72219 0.05915 0.58439 0.0
H2876 H 0.67174 0.09459 0.63791 0.0
H2877 H 0.67972 0.08382 0.65666 0.0
H2878 H 0.68662 0.11774 0.61612 0.0
H2879 H 0.68835 0.11537 0.58936 0.0
C2880 C 0.94091 0.64002 0.59579 0.0
C2881 C 0.9342 0.64306 0.61529 0.0
C2882 C 0.90037 0.61151 0.60919 0.0
C2883 C 0.9056 0.6103 0.58809 0.0
N2884 N 0.93207 0.62322 0.56171 0.0
N2885 N 0.90679 0.63349 0.63953 0.0
C2886 C 0.92624 0.6245 0.58152 0.0
C2887 C 0.91371 0.62933 0.62167 0.0
N2888 N 0.96159 0.65118 0.5914 0.0
N2889 N 0.88335 0.59532 0.61786 0.0
H2890 H 0.91615 0.64641 0.64912 0.0
H2891 H 0.89127 0.6252 0.6437 0.0
H2892 H 0.87388 0.58123 0.61019 0.0
H2893 H 0.88015 0.59492 0.63369 0.0
H2894 H 0.96792 0.64795 0.57871 0.0
H2895 H 0.97288 0.66266 0.60139 0.0
H2896 H 0.94529 0.63513 0.55498 0.0
H2897 H 0.92374 0.61053 0.55165 0.0
C2898 C 0.94495 0.69819 0.71555 0.0
C2899 C 0.96454 0.71061 0.70628 0.0
C2900 C 0.97497 0.73649 0.73437 0.0
C2901 C 0.95764 0.7221 0.74587 0.0
N2902 N 0.92177 0.69457 0.74322 0.0
N2903 N 0.99859 0.74161 0.70684 0.0
C2904 C 0.9412 0.70446 0.73516 0.0
C2905 C 0.9795 0.72999 0.71542 0.0
N2906 N 0.9302 0.68023 0.70574 0.0
N2907 N 0.98636 0.75656 0.74092 0.0
H2908 H 0.00268 0.73746 0.69301 0.0
H2909 H 0.01092 0.7546 0.71433 0.0
H2910 H 0.98229 0.76209 0.75374 0.0
H2911 H 0.99807 0.76808 0.73218 0.0
H2912 H 0.9166 0.66914 0.71263 0.0
H2913 H 0.93184 0.67604 0.69064 0.0
H2914 H 0.90868 0.68229 0.73583 0.0
H2915 H 0.91817 0.70018 0.75634 0.0
C2916 C 0.28852 0.2541 0.72467 0.0
C2917 C 0.30496 0.27326 0.73259 0.0
C2918 C 0.29334 0.26273 0.76822 0.0
C2919 C 0.27457 0.24506 0.76018 0.0
N2920 N 0.25392 0.22522 0.72924 0.0
N2921 N 0.32094 0.29747 0.76157 0.0
C2922 C 0.27207 0.24102 0.73798 0.0
C2923 C 0.30678 0.27805 0.75425 0.0
N2924 N 0.28885 0.24809 0.70452 0.0
N2925 N 0.29914 0.26476 0.78895 0.0
H2926 H 0.33099 0.30925 0.75187 0.0
H2927 H 0.32121 0.30238 0.77692 0.0
H2928 H 0.29146 0.25346 0.7999 0.0
H2929 H 0.31353 0.27661 0.7948 0.0
H2930 H 0.27861 0.23328 0.69861 0.0
H2931 H 0.30063 0.25725 0.69431 0.0
H2932 H 0.25056 0.22368 0.71319 0.0
H2933 H 0.2414 0.21438 0.73764 0.0
C2934 C 0.75937 0.05443 0.72253 0.0
C2935 C 0.73854 0.04705 0.72751 0.0
C2936 C 0.74206 0.03043 0.75853 0.0
C2937 C 0.76306 0.03749 0.75334 0.0
N2938 N 0.78812 0.04938 0.72562 0.0
N2939 N 0.70864 0.02525 0.74785 0.0
C2940 C 0.77075 0.04754 0.73396 0.0
C2941 C 0.72951 0.03431 0.74486 0.0
N2942 N 0.76838 0.06812 0.70687 0.0
N2943 N 0.7339 0.01992 0.77648 0.0
H2944 H 0.69908 0.02837 0.73878 0.0
H2945 H 0.7004 0.01359 0.75836 0.0
H2946 H 0.7405 0.01335 0.78529 0.0
H2947 H 0.72045 0.01786 0.78297 0.0
H2948 H 0.78424 0.07586 0.70411 0.0
H2949 H 0.76034 0.07311 0.69784 0.0
H2950 H 0.7931 0.05484 0.71069 0.0
H2951 H 0.79613 0.04308 0.73214 0.0
C2952 C 0.02624 0.28898 0.00987 0.0
C2953 C 0.03611 0.3164 0.01143 0.0
C2954 C 0.08104 0.32705 0.02524 0.0
C2955 C 0.06866 0.29897 0.02904 0.0
N2956 N 0.03656 0.25952 0.01609 0.0
N2957 N 0.07035 0.35551 0.01736 0.0
C2958 C 0.04308 0.27961 0.01675 0.0
C2959 C 0.06327 0.3353 0.01817 0.0
N2960 N 0.00618 0.27548 0.00417 0.0
N2961 N 0.10135 0.34032 0.03 0.0
H2962 H 0.0606 0.36059 0.01266 0.0
H2963 H 0.08581 0.36651 0.02115 0.0
H2964 H 0.11068 0.3348 0.03492 0.0
H2965 H 0.10803 0.35608 0.02874 0.0
H2966 H 0.00033 0.25979 0.00336 0.0
H2967 H 0.99588 0.28026 0.00095 0.0
H2968 H 0.02183 0.2485 0.01014 0.0
H2969 H 0.04646 0.25482 0.02144 0.0
C2970 C 0.64562 0.72678 0.01989 0.0
C2971 C 0.64862 0.70881 0.03575 0.0
C2972 C 0.65149 0.73244 0.07768 0.0
C2973 C 0.65414 0.753 0.06047 0.0
N2974 N 0.64454 0.76246 0.02123 0.0
N2975 N 0.65062 0.69628 0.07563 0.0
C2976 C 0.6462 0.74848 0.03223 0.0
C2977 C 0.65071 0.71106 0.06429 0.0
N2978 N 0.64369 0.72444 0.99881 0.0
N2979 N 0.65243 0.73462 0.09872 0.0
H2980 H 0.6491 0.68327 0.06849 0.0
H2981 H 0.65163 0.69731 0.09193 0.0
H2982 H 0.65371 0.74765 0.1056 0.0
H2983 H 0.65174 0.72345 0.10837 0.0
H2984 H 0.64213 0.73469 0.98962 0.0
H2985 H 0.6445 0.71288 0.99109 0.0
H2986 H 0.64128 0.76057 0.00516 0.0
H2987 H 0.64643 0.77544 0.0289 0.0
C2988 C 0.26411 0.96327 0.00516 0.0
C2989 C 0.27866 0.9617 0.01803 0.0
C2990 C 0.25366 0.94841 0.0462 0.0
C2991 C 0.23794 0.94611 0.03188 0.0
N2992 N 0.23224 0.9634 0.00381 0.0
N2993 N 0.28771 0.95324 0.05125 0.0
C2994 C 0.2443 0.95714 0.01304 0.0
C2995 C 0.27356 0.95439 0.03869 0.0
N2996 N 0.26886 0.96979 0.98509 0.0
N2997 N 0.25045 0.94754 0.06723 0.0
H2998 H 0.30297 0.95877 0.04703 0.0
H2999 H 0.28389 0.94563 0.06539 0.0
H3000 H 0.23749 0.94697 0.07334 0.0
H3001 H 0.26185 0.95065 0.07858 0.0
H3002 H 0.258 0.96906 0.97428 0.0
H3003 H 0.28317 0.9743 0.97866 0.0
H3004 H 0.23687 0.97306 0.99109 0.0
H3005 H 0.21881 0.96114 0.01064 0.0
C3006 C 0.3208 0.05751 0.97662 0.0
C3007 C 0.32416 0.05557 0.9982 0.0
C3008 C 0.32018 0.08445 0.00681 0.0
C3009 C 0.31982 0.08828 0.98509 0.0
N3010 N 0.30618 0.07029 0.95185 0.0
N3011 N 0.32546 0.06634 0.03422 0.0
C3012 C 0.31639 0.07259 0.97049 0.0
C3013 C 0.32314 0.06861 0.01335 0.0
N3014 N 0.32134 0.04473 0.96192 0.0
N3015 N 0.31697 0.09518 0.02176 0.0
H3016 H 0.32848 0.05547 0.03995 0.0
H3017 H 0.32496 0.07581 0.04575 0.0
H3018 H 0.31304 0.10603 0.01855 0.0
H3019 H 0.31304 0.10603 0.01855 0.0
H3020 H 0.32178 0.04732 0.94592 0.0
H3021 H 0.32249 0.03217 0.96562 0.0
H3022 H 0.30189 0.05825 0.94118 0.0
H3023 H 0.29873 0.07817 0.94878 0.0
C3024 C 0.92545 0.28718 0.97324 0.0
C3025 C 0.93955 0.29233 0.99816 0.0
C3026 C 0.91274 0.24603 0.01065 0.0
C3027 C 0.90303 0.24091 0.98287 0.0
N3028 N 0.89373 0.25679 0.9477 0.0
N3029 N 0.94284 0.27734 0.03592 0.0
C3030 C 0.9051 0.2613 0.96569 0.0
C3031 C 0.93292 0.27238 0.017 0.0
N3032 N 0.93022 0.30274 0.96027 0.0
N3033 N 0.90731 0.23061 0.02396 0.0
H3034 H 0.95428 0.29248 0.03981 0.0
H3035 H 0.93927 0.26619 0.04701 0.0
H3036 H 0.89651 0.21554 0.01908 0.0
H3037 H 0.91361 0.23342 0.03915 0.0
H3038 H 0.92238 0.30011 0.9459 0.0
H3039 H 0.94218 0.31768 0.96413 0.0
H3040 H 0.89558 0.26828 0.93781 0.0
H3041 H 0.88254 0.24162 0.94364 0.0
C3042 C 0.73557 0.69408 0.01147 0.0
C3043 C 0.72097 0.68158 0.99535 0.0
C3044 C 0.7485 0.69742 0.96966 0.0
C3045 C 0.7634 0.70658 0.98644 0.0
N3046 N 0.76878 0.72502 0.01899 0.0
N3047 N 0.71284 0.67295 0.95847 0.0
C3048 C 0.75633 0.70845 0.00618 0.0
C3049 C 0.72721 0.68381 0.97419 0.0
N3050 N 0.73004 0.69158 0.03195 0.0
N3051 N 0.75448 0.7034 0.94965 0.0
H3052 H 0.69688 0.66451 0.96077 0.0
H3053 H 0.71676 0.67171 0.94323 0.0
H3054 H 0.76941 0.71545 0.94638 0.0
H3055 H 0.74426 0.69853 0.93674 0.0
H3056 H 0.74083 0.699 0.04428 0.0
H3057 H 0.71517 0.68078 0.03676 0.0
H3058 H 0.7638 0.72796 0.03294 0.0
H3059 H 0.78289 0.73725 0.01397 0.0
C3060 C 0.95501 0.68837 0.00556 0.0
C3061 C 0.95731 0.67319 0.99571 0.0
C3062 C 0.95371 0.68555 0.96161 0.0
C3063 C 0.95907 0.70461 0.9716 0.0
N3064 N 0.96267 0.72294 0.0045 0.0
N3065 N 0.95073 0.65252 0.96464 0.0
C3066 C 0.95861 0.70554 0.99398 0.0
C3067 C 0.95392 0.67017 0.97375 0.0
N3068 N 0.9488 0.68605 0.02577 0.0
N3069 N 0.94786 0.68184 0.94085 0.0
H3070 H 0.94709 0.63974 0.97345 0.0
H3071 H 0.9515 0.6504 0.94865 0.0
H3072 H 0.94593 0.69174 0.9315 0.0
H3073 H 0.94254 0.66787 0.93312 0.0
H3074 H 0.94528 0.6959 0.03334 0.0
H3075 H 0.94441 0.67265 0.03379 0.0
H3076 H 0.96531 0.72491 0.02067 0.0
H3077 H 0.96473 0.73595 0.99742 0.0
C3078 C 0.31821 0.27467 0.9926 0.0
C3079 C 0.33128 0.29359 0.98315 0.0
C3080 C 0.31459 0.27766 0.94915 0.0
C3081 C 0.29725 0.26173 0.9599 0.0
N3082 N 0.28396 0.24455 0.99302 0.0
N3083 N 0.34709 0.31077 0.95147 0.0
C3084 C 0.29959 0.25979 0.9819 0.0
C3085 C 0.33118 0.2943 0.96102 0.0
N3086 N 0.32393 0.27072 0.01147 0.0
N3087 N 0.31571 0.27661 0.92785 0.0
H3088 H 0.361 0.32105 0.95951 0.0
H3089 H 0.34664 0.31423 0.93585 0.0
H3090 H 0.3052 0.26407 0.91847 0.0
H3091 H 0.32847 0.28706 0.91942 0.0
H3092 H 0.31573 0.25647 0.01842 0.0
H3093 H 0.33847 0.28082 0.01854 0.0
H3094 H 0.28435 0.24448 0.00934 0.0
H3095 H 0.27 0.23272 0.98654 0.0
C3096 C 0.75082 0.0696 0.99476 0.0
C3097 C 0.73332 0.05111 0.98693 0.0
C3098 C 0.75607 0.04015 0.97322 0.0
C3099 C 0.77384 0.05892 0.98097 0.0
N3100 N 0.78705 0.09463 0.99029 0.0
N3101 N 0.71946 0.02193 0.96317 0.0
C3102 C 0.77096 0.07464 0.98908 0.0
C3103 C 0.73601 0.03734 0.97446 0.0
N3104 N 0.7484 0.08209 0.00826 0.0
N3105 N 0.75804 0.02475 0.96501 0.0
H3106 H 0.70465 0.01974 0.96325 0.0
H3107 H 0.72083 0.01273 0.95203 0.0
H3108 H 0.77214 0.02622 0.96179 0.0
H3109 H 0.74543 0.00987 0.96233 0.0
H3110 H 0.76088 0.09458 0.01623 0.0
H3111 H 0.73392 0.07894 0.01297 0.0
H3112 H 0.78511 0.10662 0.99466 0.0
H3113 H 0.80147 0.09978 0.98388 0.0
C3114 C 0.70692 0.97283 0.02562 0.0
C3115 C 0.68567 0.96691 0.02526 0.0
C3116 C 0.67749 0.93869 0.04847 0.0
C3117 C 0.69767 0.94212 0.0458 0.0
N3118 N 0.73363 0.96702 0.03876 0.0
N3119 N 0.65023 0.94303 0.03446 0.0
C3120 C 0.71307 0.96055 0.03631 0.0
C3121 C 0.67086 0.94964 0.03631 0.0
N3122 N 0.72115 0.99014 0.01559 0.0
N3123 N 0.66516 0.92611 0.06375 0.0
H3124 H 0.6446 0.95046 0.02554 0.0
H3125 H 0.63852 0.92909 0.04016 0.0
H3126 H 0.67041 0.91989 0.0748 0.0
H3127 H 0.65101 0.9244 0.0675 0.0
H3128 H 0.73618 0.99395 0.01248 0.0
H3129 H 0.71783 0.00072 0.00967 0.0
H3130 H 0.74583 0.981 0.03381 0.0
H3131 H 0.73899 0.95931 0.0475 0.0
C3132 C 0.05896 0.73341 0.02739 0.0
C3133 C 0.0412 0.71652 0.03596 0.0
C3134 C 0.02995 0.7392 0.0489 0.0
C3135 C 0.04807 0.75646 0.04056 0.0
N3136 N 0.08358 0.7698 0.02986 0.0
N3137 N 0.01374 0.70425 0.06059 0.0
C3138 C 0.06379 0.75357 0.03234 0.0
C3139 C 0.02799 0.71975 0.04858 0.0
N3140 N 0.07077 0.73032 0.01372 0.0
N3141 N 0.01408 0.74086 0.05637 0.0
H3142 H 0.01218 0.68991 0.061 0.0
H3143 H 0.00513 0.70629 0.07179 0.0
H3144 H 0.01453 0.75454 0.05819 0.0
H3145 H 0.99955 0.72815 0.05953 0.0
H3146 H 0.0824 0.74208 0.0051 0.0
H3147 H 0.06779 0.71582 0.00955 0.0
H3148 H 0.09571 0.76799 0.02548 0.0
H3149 H 0.08884 0.78469 0.03504 0.0
C3150 C 0.27584 0.32223 0.02218 0.0
C3151 C 0.29273 0.33178 0.03687 0.0
C3152 C 0.27064 0.30914 0.06429 0.0
C3153 C 0.25313 0.30048 0.04995 0.0
N3154 N 0.24127 0.29355 0.0136 0.0
N3155 N 0.30648 0.33594 0.07211 0.0
C3156 C 0.25635 0.30551 0.02839 0.0
C3157 C 0.2902 0.32565 0.05796 0.0
N3158 N 0.2782 0.32981 0.00248 0.0
N3159 N 0.26901 0.30076 0.0835 0.0
H3160 H 0.3214 0.34728 0.06794 0.0
H3161 H 0.30498 0.33437 0.08825 0.0
H3162 H 0.25545 0.28828 0.08895 0.0
H3163 H 0.28168 0.30471 0.09345 0.0
H3164 H 0.26589 0.32531 0.99181 0.0
H3165 H 0.29225 0.34204 0.99737 0.0
H3166 H 0.24355 0.29516 0.99755 0.0
H3167 H 0.22722 0.28039 0.01702 0.0
C3168 C 0.6992 0.63414 0.35768 0.0
C3169 C 0.70471 0.65922 0.36684 0.0
C3170 C 0.73014 0.65904 0.40647 0.0
C3171 C 0.7289 0.6366 0.39332 0.0
N3172 N 0.70599 0.60258 0.36606 0.0
N3173 N 0.722 0.6892 0.39812 0.0
C3174 C 0.70962 0.62113 0.37203 0.0
C3175 C 0.71926 0.6712 0.39128 0.0
N3176 N 0.68653 0.6247 0.34074 0.0
N3177 N 0.74068 0.66698 0.42484 0.0
H3178 H 0.71639 0.69675 0.38939 0.0
H3179 H 0.73024 0.69624 0.41205 0.0
H3180 H 0.74739 0.65985 0.43252 0.0
H3181 H 0.74209 0.68004 0.43173 0.0
H3182 H 0.68307 0.61028 0.33555 0.0
H3183 H 0.67959 0.63129 0.33257 0.0
H3184 H 0.69591 0.59426 0.35349 0.0
H3185 H 0.71329 0.59627 0.37422 0.0
C3186 C 0.32955 0.04581 0.3959 0.0
C3187 C 0.34212 0.04088 0.37453 0.0
C3188 C 0.38424 0.08312 0.38299 0.0
C3189 C 0.369 0.0896 0.40039 0.0
N3190 N 0.33519 0.07408 0.42721 0.0
N3191 N 0.37882 0.05369 0.3543 0.0
C3192 C 0.34354 0.06978 0.41099 0.0
C3193 C 0.36933 0.05884 0.36863 0.0
N3194 N 0.30973 0.03169 0.40048 0.0
N3195 N 0.40438 0.09692 0.37937 0.0
H3196 H 0.37109 0.03944 0.34659 0.0
H3197 H 0.39437 0.06373 0.35093 0.0
H3198 H 0.4119 0.11112 0.38726 0.0
H3199 H 0.41271 0.0937 0.36887 0.0
H3200 H 0.30234 0.03429 0.41261 0.0
H3201 H 0.30117 0.01809 0.39167 0.0
H3202 H 0.32057 0.06325 0.43255 0.0
H3203 H 0.34355 0.08842 0.4348 0.0
C3204 C 0.94397 0.29711 0.34553 0.0
C3205 C 0.95671 0.3002 0.36353 0.0
C3206 C 0.92685 0.29009 0.38572 0.0
C3207 C 0.91362 0.28215 0.36759 0.0
N3208 N 0.91168 0.29111 0.33177 0.0
N3209 N 0.96116 0.30312 0.40124 0.0
C3210 C 0.92269 0.2897 0.34799 0.0
C3211 C 0.94844 0.29792 0.38383 0.0
N3212 N 0.95175 0.3006 0.32589 0.0
N3213 N 0.91899 0.2917 0.4042 0.0
H3214 H 0.97731 0.31085 0.40052 0.0
H3215 H 0.95568 0.29926 0.41634 0.0
H3216 H 0.90378 0.28839 0.40512 0.0
H3217 H 0.928 0.29869 0.41775 0.0
H3218 H 0.94244 0.29805 0.31254 0.0
H3219 H 0.96705 0.30523 0.32283 0.0
H3220 H 0.89669 0.28829 0.3332 0.0
H3221 H 0.89669 0.28829 0.3332 0.0
C3222 C 0.0421 0.40447 0.31846 0.0
C3223 C 0.02299 0.38819 0.32561 0.0
C3224 C 0.00588 0.40676 0.31617 0.0
C3225 C 0.02539 0.42372 0.30985 0.0
N3226 N 0.05929 0.43393 0.29657 0.0
N3227 N 0.98572 0.37086 0.32524 0.0
C3228 C 0.0426 0.42103 0.30822 0.0
C3229 C 0.00458 0.38845 0.32267 0.0
N3230 N 0.06006 0.40477 0.3224 0.0
N3231 N 0.9885 0.40792 0.31617 0.0
H3232 H 0.9842 0.35707 0.32954 0.0
H3233 H 0.97156 0.36926 0.32113 0.0
H3234 H 0.98698 0.41869 0.30801 0.0
H3235 H 0.97528 0.39793 0.32435 0.0
H3236 H 0.07475 0.41751 0.31984 0.0
H3237 H 0.06046 0.39299 0.32991 0.0
H3238 H 0.0711 0.43126 0.29327 0.0
H3239 H 0.06041 0.446 0.28825 0.0
C3240 C 0.62835 0.60653 0.32663 0.0
C3241 C 0.62432 0.62472 0.31224 0.0
C3242 C 0.60215 0.59331 0.27418 0.0
C3243 C 0.60156 0.57396 0.29186 0.0
N3244 N 0.62115 0.56698 0.32556 0.0
N3245 N 0.61152 0.63304 0.2748 0.0
C3246 C 0.61876 0.58104 0.31563 0.0
C3247 C 0.61217 0.61856 0.286 0.0
N3248 N 0.63771 0.61153 0.34586 0.0
N3249 N 0.59368 0.5881 0.25463 0.0
H3250 H 0.61828 0.64805 0.28048 0.0
H3251 H 0.60469 0.62968 0.25982 0.0
H3252 H 0.58749 0.57315 0.24885 0.0
H3253 H 0.59332 0.59875 0.24497 0.0
H3254 H 0.63989 0.60116 0.35411 0.0
H3255 H 0.64242 0.62547 0.35338 0.0
H3256 H 0.63 0.57062 0.33942 0.0
H3257 H 0.61421 0.55214 0.31918 0.0
C3258 C 0.37424 0.97199 0.33113 0.0
C3259 C 0.36218 0.98038 0.32527 0.0
C3260 C 0.38809 0.00152 0.29967 0.0
C3261 C 0.39675 0.98911 0.30173 0.0
N3262 N 0.4039 0.96942 0.32617 0.0
N3263 N 0.3578 0.0039 0.30427 0.0
C3264 C 0.39181 0.97664 0.31953 0.0
C3265 C 0.36941 0.99579 0.31 0.0
N3266 N 0.36891 0.95935 0.34779 0.0
N3267 N 0.39807 0.01902 0.2885 0.0
H3268 H 0.34398 0.00012 0.31135 0.0
H3269 H 0.36113 0.01333 0.29147 0.0
H3270 H 0.4125 0.0242 0.28201 0.0
H3271 H 0.39339 0.02956 0.28788 0.0
H3272 H 0.37721 0.95257 0.35225 0.0
H3273 H 0.35654 0.95612 0.35731 0.0
H3274 H 0.41807 0.97349 0.31965 0.0
H3275 H 0.41807 0.97349 0.31965 0.0
C3276 C 0.6382 0.00442 0.29182 0.0
C3277 C 0.63332 0.9831 0.30817 0.0
C3278 C 0.58936 0.95369 0.28632 0.0
C3279 C 0.59279 0.9773 0.27455 0.0
N3280 N 0.62158 0.01647 0.25996 0.0
N3281 N 0.60703 0.94221 0.31683 0.0
C3282 C 0.61862 0.00143 0.27285 0.0
C3283 C 0.60968 0.95783 0.30498 0.0
N3284 N 0.65673 0.02231 0.29331 0.0
N3285 N 0.57144 0.93543 0.28355 0.0
H3286 H 0.61815 0.94433 0.3281 0.0
H3287 H 0.59356 0.92772 0.31527 0.0
H3288 H 0.5597 0.93418 0.27363 0.0
H3289 H 0.56906 0.9224 0.29101 0.0
H3290 H 0.65977 0.03463 0.28407 0.0
H3291 H 0.66856 0.02414 0.30344 0.0
H3292 H 0.63582 0.03031 0.25964 0.0
H3293 H 0.6095 0.01426 0.24991 0.0
C3294 C 0.0122 0.63166 0.30921 0.0
C3295 C 0.00021 0.63188 0.32576 0.0
C3296 C 0.97221 0.59727 0.31518 0.0
C3297 C 0.98208 0.59886 0.29579 0.0
N3298 N 0.01276 0.61922 0.27471 0.0
N3299 N 0.96698 0.61607 0.34232 0.0
C3300 C 0.00251 0.6164 0.29294 0.0
C3301 C 0.97982 0.61494 0.32834 0.0
N3302 N 0.03308 0.6458 0.3093 0.0
N3303 N 0.95554 0.57909 0.32125 0.0
H3304 H 0.97132 0.62898 0.35171 0.0
H3305 H 0.95119 0.60494 0.34295 0.0
H3306 H 0.94882 0.56545 0.31255 0.0
H3307 H 0.94957 0.5771 0.3362 0.0
H3308 H 0.04315 0.64507 0.29894 0.0
H3309 H 0.04071 0.65697 0.32117 0.0
H3310 H 0.0257 0.63329 0.2709 0.0
H3311 H 0.00854 0.60825 0.26288 0.0
C3312 C 0.39316 0.39632 0.31875 0.0
C3313 C 0.3757 0.3777 0.3111 0.0
C3314 C 0.3985 0.36727 0.29642 0.0
C3315 C 0.41621 0.3859 0.30453 0.0
N3316 N 0.42943 0.42144 0.3144 0.0
N3317 N 0.36168 0.34874 0.28711 0.0
C3318 C 0.4133 0.40149 0.3129 0.0
C3319 C 0.37838 0.36422 0.29816 0.0
N3320 N 0.39071 0.40872 0.33234 0.0
N3321 N 0.4006 0.35218 0.28759 0.0
H3322 H 0.34679 0.34632 0.2878 0.0
H3323 H 0.3629 0.33968 0.27568 0.0
H3324 H 0.41477 0.35388 0.28415 0.0
H3325 H 0.38809 0.33732 0.28455 0.0
H3326 H 0.40318 0.42124 0.34029 0.0
H3327 H 0.37623 0.40556 0.33703 0.0
H3328 H 0.42753 0.43342 0.31894 0.0
H3329 H 0.44393 0.42659 0.30818 0.0
C3330 C 0.35984 0.31162 0.36248 0.0
C3331 C 0.33928 0.29876 0.35423 0.0
C3332 C 0.33893 0.26847 0.36651 0.0
C3333 C 0.36047 0.28107 0.37205 0.0
N3334 N 0.38763 0.3148 0.38466 0.0
N3335 N 0.30915 0.26513 0.34754 0.0
C3336 C 0.36985 0.30275 0.37287 0.0
C3337 C 0.3287 0.27724 0.35622 0.0
N3338 N 0.37018 0.33231 0.35954 0.0
N3339 N 0.3279 0.2485 0.37244 0.0
H3340 H 0.30096 0.2711 0.34055 0.0
H3341 H 0.30158 0.24924 0.346 0.0
H3342 H 0.33424 0.24212 0.38196 0.0
H3343 H 0.31186 0.23899 0.3704 0.0
H3344 H 0.38608 0.34211 0.36246 0.0
H3345 H 0.36322 0.33959 0.35274 0.0
H3346 H 0.39398 0.3304 0.38756 0.0
H3347 H 0.39479 0.30894 0.39371 0.0
C3348 C 0.72876 0.0576 0.36582 0.0
C3349 C 0.71014 0.04044 0.3728 0.0
C3350 C 0.69744 0.06276 0.38326 0.0
C3351 C 0.71537 0.0798 0.37444 0.0
N3352 N 0.75159 0.09438 0.36614 0.0
N3353 N 0.67691 0.02599 0.3887 0.0
C3354 C 0.73211 0.07754 0.36839 0.0
C3355 C 0.69468 0.04291 0.38199 0.0
N3356 N 0.74275 0.05476 0.3555 0.0
N3357 N 0.68343 0.0656 0.39354 0.0
H3358 H 0.67508 0.01157 0.38956 0.0
H3359 H 0.66356 0.02581 0.39262 0.0
H3360 H 0.68431 0.07953 0.39487 0.0
H3361 H 0.67149 0.05449 0.40235 0.0
H3362 H 0.75511 0.06628 0.3474 0.0
H3363 H 0.7411 0.04047 0.35349 0.0
H3364 H 0.76466 0.09348 0.36383 0.0
H3365 H 0.75556 0.10934 0.36945 0.0
C3366 C 0.9409 0.67064 0.35983 0.0
C3367 C 0.95635 0.67011 0.37205 0.0
C3368 C 0.93046 0.63622 0.38482 0.0
C3369 C 0.91453 0.6368 0.37302 0.0
N3370 N 0.90645 0.65181 0.3439 0.0
N3371 N 0.96579 0.65498 0.39925 0.0
C3372 C 0.92022 0.65334 0.35913 0.0
C3373 C 0.95108 0.65362 0.3854 0.0
N3374 N 0.94599 0.68784 0.34894 0.0
N3375 N 0.92646 0.61858 0.39412 0.0
H3376 H 0.98103 0.66756 0.40009 0.0
H3377 H 0.96249 0.64477 0.41129 0.0
H3378 H 0.91215 0.60488 0.39337 0.0
H3379 H 0.93797 0.61664 0.40068 0.0
H3380 H 0.93504 0.69043 0.34205 0.0
H3381 H 0.96112 0.70046 0.34829 0.0
H3382 H 0.91046 0.66223 0.33196 0.0
H3383 H 0.89163 0.63901 0.34126 0.0
C3384 C 0.3676 0.98279 0.70329 0.0
C3385 C 0.37435 0.00927 0.7067 0.0
C3386 C 0.40258 0.0163 0.74676 0.0
C3387 C 0.39976 0.99144 0.73898 0.0
N3388 N 0.37424 0.953 0.71908 0.0
N3389 N 0.39439 0.04466 0.73119 0.0
C3390 C 0.37873 0.97246 0.72082 0.0
C3391 C 0.39088 0.0256 0.72853 0.0
N3392 N 0.35339 0.97041 0.6884 0.0
N3393 N 0.41474 0.0276 0.76332 0.0
H3394 H 0.38807 0.05036 0.72068 0.0
H3395 H 0.40378 0.05423 0.74358 0.0
H3396 H 0.42191 0.02194 0.77273 0.0
H3397 H 0.41704 0.04191 0.76707 0.0
H3398 H 0.34925 0.95521 0.68641 0.0
H3399 H 0.3458 0.97549 0.67887 0.0
H3400 H 0.36314 0.94257 0.7082 0.0
H3401 H 0.38195 0.94816 0.72884 0.0
C3402 C 0.99123 0.37464 0.71914 0.0
C3403 C 0.97641 0.36099 0.70392 0.0
C3404 C 0.95227 0.37114 0.71496 0.0
C3405 C 0.96515 0.38139 0.73315 0.0
N3406 N 0.99858 0.39434 0.75128 0.0
N3407 N 0.94171 0.34425 0.6887 0.0
C3408 C 0.98521 0.38374 0.73478 0.0
C3409 C 0.95674 0.35889 0.702 0.0
N3410 N 0.01136 0.37949 0.71817 0.0
N3411 N 0.93581 0.3731 0.70976 0.0
H3412 H 0.94406 0.33465 0.67907 0.0
H3413 H 0.92627 0.3403 0.68866 0.0
H3414 H 0.93145 0.38168 0.71842 0.0
H3415 H 0.92763 0.3678 0.69548 0.0
H3416 H 0.02356 0.39112 0.72724 0.0
H3417 H 0.01628 0.3732 0.70684 0.0
H3418 H 0.01122 0.39302 0.75528 0.0
H3419 H 0.99739 0.40449 0.76115 0.0
C3420 C 0.61129 0.62411 0.6875 0.0
C3421 C 0.62663 0.62891 0.70344 0.0
C3422 C 0.59956 0.61553 0.7296 0.0
C3423 C 0.58419 0.60652 0.71322 0.0
N3424 N 0.57612 0.6123 0.67798 0.0
N3425 N 0.63568 0.63053 0.74019 0.0
C3426 C 0.59017 0.61398 0.69272 0.0
C3427 C 0.62087 0.62505 0.72469 0.0
N3428 N 0.61658 0.62852 0.66706 0.0
N3429 N 0.59397 0.61718 0.74938 0.0
H3430 H 0.65158 0.63899 0.73751 0.0
H3431 H 0.6321 0.62577 0.75556 0.0
H3432 H 0.57897 0.61361 0.75256 0.0
H3433 H 0.60461 0.62494 0.76172 0.0
H3434 H 0.60553 0.62493 0.65507 0.0
H3435 H 0.63171 0.63496 0.66193 0.0
H3436 H 0.56053 0.60662 0.68097 0.0
H3437 H 0.56053 0.60662 0.68097 0.0
C3438 C 0.67052 0.72799 0.64753 0.0
C3439 C 0.6622 0.71427 0.66429 0.0
C3440 C 0.62999 0.71461 0.66123 0.0
C3441 C 0.63972 0.7307 0.64669 0.0
N3442 N 0.6621 0.74069 0.61705 0.0
N3443 N 0.6331 0.69247 0.68585 0.0
C3444 C 0.65801 0.73408 0.63712 0.0
C3445 C 0.64158 0.70687 0.6707 0.0
N3446 N 0.69057 0.73573 0.64186 0.0
N3447 N 0.60921 0.70564 0.66457 0.0
H3448 H 0.63991 0.68459 0.6914 0.0
H3449 H 0.61957 0.68869 0.6935 0.0
H3450 H 0.59992 0.70981 0.6566 0.0
H3451 H 0.60058 0.69271 0.67349 0.0
H3452 H 0.69796 0.74744 0.63118 0.0
H3453 H 0.70037 0.73176 0.64914 0.0
H3454 H 0.6745 0.742 0.60886 0.0
H3455 H 0.65117 0.74133 0.60747 0.0
C3456 C 0.27651 0.94683 0.66442 0.0
C3457 C 0.29495 0.96191 0.65494 0.0
C3458 C 0.30039 0.93523 0.6409 0.0
C3459 C 0.28136 0.91991 0.64983 0.0
N3460 N 0.25672 0.91246 0.67723 0.0
N3461 N 0.32655 0.9714 0.63745 0.0
C3462 C 0.27101 0.92607 0.66375 0.0
C3463 C 0.30756 0.95638 0.64423 0.0
N3464 N 0.2641 0.95227 0.67412 0.0
N3465 N 0.31155 0.92964 0.62905 0.0
H3466 H 0.33171 0.98696 0.63838 0.0
H3467 H 0.33779 0.96873 0.63199 0.0
H3468 H 0.30899 0.91492 0.62859 0.0
H3469 H 0.32338 0.93955 0.61932 0.0
H3470 H 0.24911 0.94164 0.67874 0.0
H3471 H 0.26811 0.96743 0.67627 0.0
H3472 H 0.25045 0.91674 0.68913 0.0
H3473 H 0.25282 0.89735 0.67841 0.0
C3474 C 0.06016 0.32993 0.65274 0.0
C3475 C 0.04594 0.33659 0.65264 0.0
C3476 C 0.07312 0.36977 0.63938 0.0
C3477 C 0.08719 0.36267 0.63915 0.0
N3478 N 0.08748 0.3316 0.63295 0.0
N3479 N 0.03719 0.36065 0.63972 0.0
C3480 C 0.07898 0.34147 0.64223 0.0
C3481 C 0.05189 0.35592 0.64421 0.0
N3482 N 0.05594 0.31266 0.66291 0.0
N3483 N 0.07986 0.38966 0.6349 0.0
H3484 H 0.02141 0.35068 0.64224 0.0
H3485 H 0.04026 0.37355 0.63152 0.0
H3486 H 0.09443 0.39984 0.62903 0.0
H3487 H 0.07121 0.39634 0.63785 0.0
H3488 H 0.0668 0.30828 0.66438 0.0
H3489 H 0.04272 0.30414 0.67173 0.0
H3490 H 0.08117 0.31587 0.6342 0.0
H3491 H 0.09794 0.33811 0.6209 0.0
C3492 C 0.31227 0.3571 0.64118 0.0
C3493 C 0.30585 0.35155 0.6621 0.0
C3494 C 0.2975 0.37828 0.66427 0.0
C3495 C 0.30359 0.38362 0.64312 0.0
N3496 N 0.30652 0.37037 0.60953 0.0
N3497 N 0.28452 0.35137 0.68965 0.0
C3498 C 0.30747 0.37042 0.6309 0.0
C3499 C 0.29573 0.36026 0.67227 0.0
N3500 N 0.32426 0.35121 0.63141 0.0
N3501 N 0.29448 0.39066 0.67731 0.0
H3502 H 0.28242 0.33775 0.69542 0.0
H3503 H 0.2754 0.35613 0.69668 0.0
H3504 H 0.2954 0.40407 0.67289 0.0
H3505 H 0.29259 0.38834 0.69336 0.0
H3506 H 0.33086 0.35692 0.61699 0.0
H3507 H 0.32957 0.34253 0.63826 0.0
H3508 H 0.30799 0.35995 0.60026 0.0
H3509 H 0.30123 0.37838 0.60117 0.0
C3510 C 0.64344 0.95535 0.663 0.0
C3511 C 0.6651 0.97019 0.66302 0.0
C3512 C 0.67058 0.94758 0.64054 0.0
C3513 C 0.64985 0.93136 0.64375 0.0
N3514 N 0.61472 0.92262 0.64961 0.0
N3515 N 0.69975 0.97997 0.65339 0.0
C3516 C 0.63563 0.93602 0.65256 0.0
C3517 C 0.67877 0.9663 0.652 0.0
N3518 N 0.63042 0.95965 0.67324 0.0
N3519 N 0.68199 0.9456 0.62547 0.0
H3520 H 0.70656 0.99382 0.66187 0.0
H3521 H 0.71055 0.97673 0.64772 0.0
H3522 H 0.67564 0.93307 0.61506 0.0
H3523 H 0.69658 0.95755 0.62123 0.0
H3524 H 0.61506 0.94875 0.67641 0.0
H3525 H 0.63519 0.97415 0.67946 0.0
H3526 H 0.60346 0.92569 0.65401 0.0
H3527 H 0.60844 0.9091 0.64071 0.0
C3528 C 0.04201 0.69053 0.63313 0.0
C3529 C 0.03918 0.70489 0.64437 0.0
C3530 C 0.0766 0.7262 0.65201 0.0
C3531 C 0.07908 0.71025 0.64388 0.0
N3532 N 0.06558 0.68104 0.61977 0.0
N3533 N 0.05314 0.73569 0.66571 0.0
C3534 C 0.0622 0.69352 0.6323 0.0
C3535 C 0.05633 0.72269 0.65385 0.0
N3536 N 0.0251 0.67353 0.624 0.0
N3537 N 0.09361 0.7452 0.65675 0.0
H3538 H 0.03861 0.73396 0.66712 0.0
H3539 H 0.0646 0.74729 0.67545 0.0
H3540 H 0.10877 0.74934 0.65374 0.0
H3541 H 0.09263 0.75783 0.66083 0.0
H3542 H 0.0252 0.66081 0.61838 0.0
H3543 H 0.01044 0.67167 0.62283 0.0
H3544 H 0.05457 0.67014 0.6092 0.0
H3545 H 0.07993 0.68251 0.61833 0.0
C3546 C 0.96964 0.60127 0.69019 0.0
C3547 C 0.98475 0.62248 0.68941 0.0
C3548 C 0.00905 0.61777 0.71076 0.0
C3549 C 0.99516 0.59615 0.7088 0.0
N3550 N 0.95904 0.5689 0.70623 0.0
N3551 N 0.0193 0.65118 0.69762 0.0
C3552 C 0.97443 0.58828 0.70131 0.0
C3553 C 0.00448 0.63087 0.6996 0.0
N3554 N 0.95094 0.59346 0.67975 0.0
N3555 N 0.0259 0.62586 0.72425 0.0
H3556 H 0.01653 0.66143 0.68989 0.0
H3557 H 0.03482 0.65758 0.70223 0.0
H3558 H 0.02908 0.61696 0.73389 0.0
H3559 H 0.03535 0.64146 0.72786 0.0
H3560 H 0.94031 0.57783 0.6774 0.0
H3561 H 0.94657 0.60266 0.6722 0.0
H3562 H 0.94336 0.56283 0.70267 0.0
H3563 H 0.96149 0.55981 0.7164 0.0
C3564 C 0.36671 0.38131 0.72248 0.0
C3565 C 0.37921 0.37615 0.7111 0.0
C3566 C 0.40409 0.41252 0.70579 0.0
C3567 C 0.3891 0.41724 0.71238 0.0
N3568 N 0.35517 0.40483 0.72734 0.0
N3569 N 0.40943 0.38666 0.69063 0.0
C3570 C 0.37026 0.40135 0.72117 0.0
C3571 C 0.39793 0.3917 0.70259 0.0
N3572 N 0.35141 0.36693 0.73462 0.0
N3573 N 0.42436 0.42767 0.70322 0.0
H3574 H 0.40569 0.37161 0.68826 0.0
H3575 H 0.42179 0.39731 0.68182 0.0
H3576 H 0.43044 0.44301 0.70723 0.0
H3577 H 0.43593 0.42463 0.70001 0.0
H3578 H 0.34311 0.37028 0.74501 0.0
H3579 H 0.34859 0.35213 0.73593 0.0
H3580 H 0.34021 0.39305 0.7308 0.0
H3581 H 0.35669 0.41908 0.72778 0.0
C3582 C 0.63066 0.0088 0.72441 0.0
C3583 C 0.63764 0.02583 0.7114 0.0
C3584 C 0.60221 0.01863 0.70813 0.0
C3585 C 0.59448 0.99887 0.71674 0.0
N3586 N 0.60249 0.97545 0.73377 0.0
N3587 N 0.63002 0.04645 0.68938 0.0
C3588 C 0.60902 0.99415 0.72543 0.0
C3589 C 0.62347 0.03077 0.70304 0.0
N3590 N 0.64484 0.00675 0.73593 0.0
N3591 N 0.58961 0.02626 0.70536 0.0
H3592 H 0.64552 0.05595 0.68543 0.0
H3593 H 0.6198 0.04896 0.68072 0.0
H3594 H 0.57443 0.01908 0.71042 0.0
H3595 H 0.59516 0.0412 0.70074 0.0
H3596 H 0.64075 0.99588 0.74745 0.0
H3597 H 0.66079 0.01735 0.73551 0.0
H3598 H 0.61251 0.97038 0.73726 0.0
H3599 H 0.58707 0.96426 0.73616 0.0
loop_
_geom_bond_atom_site_label_1
_geom_bond_atom_site_label_2
_geom_bond_distance
_geom_bond_site_symmetry_2
_ccdc_geom_bond_type
Zn0 O3 2.011 1_554 S
Zn0 O5 2.082 . S
Zn0 O10 2.049 1_554 S
Zn1 O2 1.962 1_455 S
Zn1 O4 1.986 . S
Zn1 O6 1.996 1_455 S
Zn1 O9 1.943 1_554 S
O2 Zn1 1.962 1_655 S
O2 C7 1.254 1_554 S
O3 Zn0 2.011 1_556 S
O3 C7 1.269 . S
O4 Zn1 1.986 . S
O4 C11 1.262 . S
O5 Zn0 2.082 . S
O5 C13 1.260 . S
O6 Zn1 1.996 1_655 S
O6 C13 1.257 . S
C7 O2 1.254 1_556 S
C7 O3 1.269 . S
C8 O9 1.249 . S
C8 O10 1.270 1_455 S
O9 Zn1 1.943 1_556 S
O9 C8 1.249 . S
O10 Zn0 2.049 1_556 S
O10 C8 1.270 1_655 S
C11 O4 1.262 . S
C11 O12 1.232 . S
O12 C11 1.232 . S
C13 O5 1.260 . S
C13 O6 1.257 . S
Zn14 O17 2.031 1_554 S
Zn14 O19 2.049 . S
Zn14 O24 2.067 1_554 S
Zn15 O16 1.962 . S
Zn15 O18 1.986 . S
Zn15 O20 1.996 . S
Zn15 O23 1.943 . S
O16 Zn15 1.962 . S
O16 C21 1.254 1_554 S
O17 Zn14 2.031 1_556 S
O17 C21 1.269 . S
O18 Zn15 1.986 . S
O18 C25 1.262 . S
O19 Zn14 2.049 . S
O19 C27 1.260 . S
O20 Zn15 1.996 . S
O20 C27 1.257 . S
C21 O16 1.254 1_556 S
C21 O17 1.269 . S
C22 O23 1.249 1_556 S
C22 O24 1.270 . S
O23 Zn15 1.943 . S
O23 C22 1.249 1_554 S
O24 Zn14 2.067 1_556 S
O24 C22 1.270 . S
C25 O18 1.262 . S
C25 O26 1.232 . S
O26 C25 1.232 . S
C27 O19 1.260 . S
C27 O20 1.257 . S
Zn28 O31 2.031 . S
Zn28 O33 2.049 1_554 S
Zn28 O38 2.039 1_565 S
Zn29 O30 1.962 1_545 S
Zn29 O32 1.986 1_554 S
Zn29 O34 1.996 1_544 S
Zn29 O37 1.943 . S
O30 Zn29 1.962 1_565 S
O30 C35 1.254 . S
O31 Zn28 2.031 . S
O31 C35 1.269 . S
O32 Zn29 1.986 1_556 S
O32 C39 1.262 . S
O33 Zn28 2.049 1_556 S
O33 C41 1.260 . S
O34 Zn29 1.996 1_566 S
O34 C41 1.257 . S
C35 O30 1.254 . S
C35 O31 1.269 . S
C36 O37 1.249 . S
C36 O38 1.323 . S
O37 Zn29 1.943 . S
O37 C36 1.249 . S
O38 Zn28 2.039 1_545 S
O38 C36 1.323 . S
C39 O32 1.262 . S
C39 O40 1.232 1_556 S
O40 C39 1.232 1_554 S
C41 O33 1.260 . S
C41 O34 1.257 . S
Zn42 O45 2.031 . S
Zn42 O47 2.049 1_554 S
Zn42 O52 2.067 . S
Zn43 O44 1.962 1_655 S
Zn43 O46 1.986 1_554 S
Zn43 O48 1.996 1_654 S
Zn43 O51 1.943 . S
O44 Zn43 1.962 1_455 S
O44 C49 1.254 . S
O45 Zn42 2.031 . S
O45 C49 1.269 . S
O46 Zn43 1.986 1_556 S
O46 C53 1.262 . S
O47 Zn42 2.049 1_556 S
O47 C55 1.260 . S
O48 Zn43 1.996 1_456 S
O48 C55 1.257 . S
C49 O44 1.254 . S
C49 O45 1.269 . S
C50 O51 1.249 . S
C50 O52 1.270 1_655 S
O51 Zn43 1.943 . S
O51 C50 1.249 . S
O52 Zn42 2.067 . S
O52 C50 1.270 1_455 S
C53 O46 1.262 . S
C53 O54 1.232 1_556 S
O54 C53 1.232 1_554 S
C55 O47 1.260 . S
C55 O48 1.257 . S
Zn56 O59 2.031 . S
Zn56 O61 2.049 1_554 S
Zn56 O66 2.067 . S
Zn57 O58 1.962 1_556 S
Zn57 O60 1.986 . S
Zn57 O62 1.996 . S
Zn57 O65 1.943 1_556 S
O58 Zn57 1.962 1_554 S
O58 C63 1.254 . S
O59 Zn56 2.031 . S
O59 C63 1.269 . S
O60 Zn57 1.986 . S
O60 C67 1.262 . S
O61 Zn56 2.049 1_556 S
O61 C69 1.260 . S
O62 Zn57 1.996 . S
O62 C69 1.257 . S
C63 O58 1.254 . S
C63 O59 1.269 . S
C64 O65 1.249 . S
C64 O66 1.270 . S
O65 Zn57 1.943 1_554 S
O65 C64 1.249 . S
O66 Zn56 2.067 . S
O66 C64 1.270 . S
C67 O60 1.262 . S
C67 O68 1.232 1_556 S
O68 C67 1.232 1_554 S
C69 O61 1.260 . S
C69 O62 1.257 . S
Zn70 O73 2.031 1_554 S
Zn70 O75 2.049 . S
Zn70 O80 2.067 1_554 S
Zn71 O72 1.962 1_565 S
Zn71 O74 1.986 . S
Zn71 O76 1.996 1_565 S
Zn71 O79 1.920 1_554 S
O72 Zn71 1.962 1_545 S
O72 C77 1.254 1_554 S
O73 Zn70 2.031 1_556 S
O73 C77 1.269 . S
O74 Zn71 1.986 . S
O74 C81 1.262 . S
O75 Zn70 2.049 . S
O75 C83 1.260 . S
O76 Zn71 1.996 1_545 S
O76 C83 1.257 . S
C77 O72 1.254 1_556 S
C77 O73 1.269 . S
C78 O79 1.267 . S
C78 O80 1.270 1_565 S
O79 Zn71 1.920 1_556 S
O79 C78 1.267 . S
O80 Zn70 2.067 1_556 S
O80 C78 1.270 1_545 S
C81 O74 1.262 . S
C81 O82 1.232 . S
O82 C81 1.232 . S
C83 O75 1.260 . S
C83 O76 1.257 . S
Zn84 O87 2.031 . S
Zn84 O89 2.049 . S
Zn84 O94 2.067 . S
Zn85 O86 1.962 . S
Zn85 O88 1.986 . S
Zn85 O90 1.996 . S
Zn85 O93 1.943 . S
O86 Zn85 1.962 . S
O86 C91 1.254 . S
O87 Zn84 2.031 . S
O87 C91 1.269 . S
O88 Zn85 1.986 . S
O88 C95 1.262 . S
O89 Zn84 2.049 . S
O89 C97 1.260 . S
O90 Zn85 1.996 . S
O90 C97 1.257 . S
C91 O86 1.254 . S
C91 O87 1.269 . S
C92 O93 1.249 . S
C92 O94 1.270 . S
O93 Zn85 1.943 . S
O93 C92 1.249 . S
O94 Zn84 2.067 . S
O94 C92 1.270 . S
C95 O88 1.262 . S
C95 O96 1.232 . S
O96 C95 1.232 . S
C97 O89 1.260 . S
C97 O90 1.257 . S
Zn98 O101 2.031 . S
Zn98 O103 2.049 . S
Zn98 O108 2.067 . S
Zn99 O100 1.962 . S
Zn99 O102 1.986 1_565 S
Zn99 O104 1.996 . S
Zn99 O107 1.943 . S
O100 Zn99 1.962 . S
O100 C105 1.254 . S
O101 Zn98 2.031 . S
O101 C105 1.269 . S
O102 Zn99 1.986 1_545 S
O102 C109 1.262 . S
O103 Zn98 2.049 . S
O103 C111 1.260 . S
O104 Zn99 1.996 . S
O104 C111 1.257 . S
C105 O100 1.254 . S
C105 O101 1.269 . S
C106 O107 1.249 . S
C106 O108 1.270 . S
O107 Zn99 1.943 . S
O107 C106 1.249 . S
O108 Zn98 2.067 . S
O108 C106 1.270 . S
C109 O102 1.262 . S
C109 O110 1.232 . S
O110 C109 1.232 . S
C111 O103 1.260 . S
C111 O104 1.257 . S
Zn112 O115 2.031 . S
Zn112 O117 2.049 . S
Zn112 O122 2.067 . S
Zn113 O114 1.962 1_455 S
Zn113 O116 1.986 . S
Zn113 O118 1.996 . S
Zn113 O121 1.943 . S
O114 Zn113 1.962 1_655 S
O114 C119 1.254 . S
O115 Zn112 2.031 . S
O115 C119 1.269 1_455 S
O116 Zn113 1.986 . S
O116 C123 1.262 . S
O117 Zn112 2.049 . S
O117 C125 1.260 . S
O118 Zn113 1.996 . S
O118 C125 1.257 . S
C119 O114 1.254 . S
C119 O115 1.269 1_655 S
C120 O121 1.249 . S
C120 O122 1.270 . S
O121 Zn113 1.943 . S
O121 C120 1.249 . S
O122 Zn112 2.067 . S
O122 C120 1.270 . S
C123 O116 1.262 . S
C123 O124 1.232 . S
O124 C123 1.232 . S
C125 O117 1.260 . S
C125 O118 1.257 . S
Zn126 O129 2.013 1_565 S
Zn126 O131 2.049 . S
Zn126 O136 2.067 . S
Zn127 O128 1.962 1_565 S
Zn127 O130 1.986 . S
Zn127 O132 1.996 . S
Zn127 O135 1.943 . S
O128 Zn127 1.962 1_545 S
O128 C133 1.254 . S
O129 Zn126 2.013 1_545 S
O129 C133 1.289 . S
O130 Zn127 1.986 . S
O130 C137 1.262 . S
O131 Zn126 2.049 . S
O131 C139 1.260 . S
O132 Zn127 1.996 . S
O132 C139 1.257 . S
C133 O128 1.254 . S
C133 O129 1.289 . S
C134 O135 1.249 . S
C134 O136 1.270 . S
O135 Zn127 1.943 . S
O135 C134 1.249 . S
O136 Zn126 2.067 . S
O136 C134 1.270 . S
C137 O130 1.262 . S
C137 O138 1.232 . S
O138 C137 1.232 . S
C139 O131 1.260 . S
C139 O132 1.257 . S
Zn140 O143 2.045 . S
Zn140 O145 2.049 . S
Zn140 O150 2.067 . S
Zn141 O142 1.962 1_455 S
Zn141 O144 1.986 . S
Zn141 O146 1.996 . S
Zn141 O149 1.943 . S
O142 Zn141 1.962 1_655 S
O142 C147 1.254 . S
O143 Zn140 2.045 . S
O143 C147 1.248 1_455 S
O144 Zn141 1.986 . S
O144 C151 1.262 . S
O145 Zn140 2.049 . S
O145 C153 1.260 . S
O146 Zn141 1.996 . S
O146 C153 1.257 . S
C147 O142 1.254 . S
C147 O143 1.248 1_655 S
C148 O149 1.249 . S
C148 O150 1.270 . S
O149 Zn141 1.943 . S
O149 C148 1.249 . S
O150 Zn140 2.067 . S
O150 C148 1.270 . S
C151 O144 1.262 . S
C151 O152 1.232 . S
O152 C151 1.232 . S
C153 O145 1.260 . S
C153 O146 1.257 . S
Zn154 O157 2.031 . S
Zn154 O159 2.049 . S
Zn154 O164 2.067 . S
Zn155 O156 1.962 . S
Zn155 O158 1.986 . S
Zn155 O160 1.996 . S
Zn155 O163 1.943 . S
O156 Zn155 1.962 . S
O156 C161 1.254 . S
O157 Zn154 2.031 . S
O157 C161 1.269 . S
O158 Zn155 1.986 . S
O158 C165 1.262 . S
O159 Zn154 2.049 . S
O159 C167 1.260 . S
O160 Zn155 1.996 . S
O160 C167 1.257 . S
C161 O156 1.254 . S
C161 O157 1.269 . S
C162 O163 1.249 . S
C162 O164 1.270 . S
O163 Zn155 1.943 . S
O163 C162 1.249 . S
O164 Zn154 2.067 . S
O164 C162 1.270 . S
C165 O158 1.262 . S
C165 O166 1.232 . S
O166 C165 1.232 . S
C167 O159 1.260 . S
C167 O160 1.257 . S
Zn168 O171 2.031 . S
Zn168 O173 2.049 . S
Zn168 O178 2.067 . S
Zn169 O170 1.962 1_545 S
Zn169 O172 1.986 . S
Zn169 O174 1.996 . S
Zn169 O177 1.943 . S
O170 Zn169 1.962 1_565 S
O170 C175 1.254 . S
O171 Zn168 2.031 . S
O171 C175 1.269 1_545 S
O172 Zn169 1.986 . S
O172 C179 1.262 . S
O173 Zn168 2.049 . S
O173 C181 1.260 . S
O174 Zn169 1.996 . S
O174 C181 1.257 . S
C175 O170 1.254 . S
C175 O171 1.269 1_565 S
C176 O177 1.249 . S
C176 O178 1.270 . S
O177 Zn169 1.943 . S
O177 C176 1.249 . S
O178 Zn168 2.067 . S
O178 C176 1.270 . S
C179 O172 1.262 . S
C179 O180 1.232 . S
O180 C179 1.232 . S
C181 O173 1.260 . S
C181 O174 1.257 . S
Zn182 O185 2.031 1_655 S
Zn182 O187 2.049 . S
Zn182 O192 2.067 . S
Zn183 O184 1.962 1_655 S
Zn183 O186 1.986 . S
Zn183 O188 1.996 . S
Zn183 O191 1.943 . S
O184 Zn183 1.962 1_455 S
O184 C189 1.254 . S
O185 Zn182 2.031 1_455 S
O185 C189 1.269 . S
O186 Zn183 1.986 . S
O186 C193 1.262 . S
O187 Zn182 2.049 . S
O187 C195 1.260 . S
O188 Zn183 1.996 . S
O188 C195 1.257 . S
C189 O184 1.254 . S
C189 O185 1.269 . S
C190 O191 1.249 . S
C190 O192 1.270 . S
O191 Zn183 1.943 . S
O191 C190 1.249 . S
O192 Zn182 2.067 . S
O192 C190 1.270 . S
C193 O186 1.262 . S
C193 O194 1.232 . S
O194 C193 1.232 . S
C195 O187 1.260 . S
C195 O188 1.257 . S
Zn196 O199 2.031 . S
Zn196 O201 2.049 . S
Zn196 O206 2.067 . S
Zn197 O198 1.962 . S
Zn197 O200 1.986 . S
Zn197 O202 1.996 . S
Zn197 O205 1.943 . S
O198 Zn197 1.962 . S
O198 C203 1.254 . S
O199 Zn196 2.031 . S
O199 C203 1.269 . S
O200 Zn197 1.986 . S
O200 C207 1.262 . S
O201 Zn196 2.049 . S
O201 C209 1.260 . S
O202 Zn197 1.996 . S
O202 C209 1.257 . S
C203 O198 1.254 . S
C203 O199 1.269 . S
C204 O205 1.249 . S
C204 O206 1.270 . S
O205 Zn197 1.943 . S
O205 C204 1.249 . S
O206 Zn196 2.067 . S
O206 C204 1.270 . S
C207 O200 1.262 . S
C207 O208 1.232 . S
O208 C207 1.232 . S
C209 O201 1.260 . S
C209 O202 1.257 . S
Zn210 O213 2.031 . S
Zn210 O215 2.049 . S
Zn210 O220 2.067 . S
Zn211 O212 1.962 . S
Zn211 O214 1.986 . S
Zn211 O216 1.996 . S
Zn211 O219 1.943 . S
O212 Zn211 1.962 . S
O212 C217 1.254 . S
O213 Zn210 2.031 . S
O213 C217 1.269 . S
O214 Zn211 1.986 . S
O214 C221 1.262 . S
O215 Zn210 2.049 . S
O215 C223 1.260 . S
O216 Zn211 1.996 . S
O216 C223 1.257 . S
C217 O212 1.254 . S
C217 O213 1.269 . S
C218 O219 1.249 . S
C218 O220 1.270 . S
O219 Zn211 1.943 . S
O219 C218 1.249 . S
O220 Zn210 2.067 . S
O220 C218 1.270 . S
C221 O214 1.262 . S
C221 O222 1.232 . S
O222 C221 1.232 . S
C223 O215 1.260 . S
C223 O216 1.257 . S
Zn224 O227 2.031 . S
Zn224 O229 2.049 . S
Zn224 O234 2.067 . S
Zn225 O226 1.962 . S
Zn225 O228 1.986 1_545 S
Zn225 O230 1.996 . S
Zn225 O233 1.943 . S
O226 Zn225 1.962 . S
O226 C231 1.254 . S
O227 Zn224 2.031 . S
O227 C231 1.269 . S
O228 Zn225 1.986 1_565 S
O228 C235 1.262 . S
O229 Zn224 2.049 . S
O229 C237 1.260 . S
O230 Zn225 1.996 . S
O230 C237 1.257 . S
C231 O226 1.254 . S
C231 O227 1.269 . S
C232 O233 1.249 . S
C232 O234 1.270 . S
O233 Zn225 1.943 . S
O233 C232 1.249 . S
O234 Zn224 2.067 . S
O234 C232 1.270 . S
C235 O228 1.262 . S
C235 O236 1.232 . S
O236 C235 1.232 . S
C237 O229 1.260 . S
C237 O230 1.257 . S
Zn238 O241 2.031 . S
Zn238 O243 2.049 . S
Zn238 O248 2.067 . S
Zn239 O240 1.962 1_655 S
Zn239 O242 1.986 . S
Zn239 O244 1.996 . S
Zn239 O247 1.943 . S
O240 Zn239 1.962 1_455 S
O240 C245 1.254 . S
O241 Zn238 2.031 . S
O241 C245 1.269 1_655 S
O242 Zn239 1.986 . S
O242 C249 1.262 . S
O243 Zn238 2.049 . S
O243 C251 1.260 . S
O244 Zn239 1.996 . S
O244 C251 1.257 . S
C245 O240 1.254 . S
C245 O241 1.269 1_455 S
C246 O247 1.249 . S
C246 O248 1.270 . S
O247 Zn239 1.943 . S
O247 C246 1.249 . S
O248 Zn238 2.067 . S
O248 C246 1.270 . S
C249 O242 1.262 . S
C249 O250 1.232 . S
O250 C249 1.232 . S
C251 O243 1.260 . S
C251 O244 1.257 . S
C252 C253 1.560 . S
C252 H313 0.959 . S
C252 H314 0.959 . S
C252 H315 0.960 . S
C253 C252 1.560 . S
C253 O308 1.426 . S
C253 H312 0.980 . S
C254 C255 1.407 . S
C254 C259 1.418 . S
C254 O308 1.334 . S
C255 C254 1.407 . S
C255 C256 1.360 . S
C255 H316 0.929 . S
C256 C255 1.360 . S
C256 C257 1.401 . S
C256 C260 1.527 . S
C257 C256 1.401 . S
C257 C258 1.405 . S
C257 C290 1.587 . S
C258 C257 1.405 . S
C258 C259 1.332 . S
C258 C261 1.496 . S
C259 C254 1.418 . S
C259 C258 1.332 . S
C259 H317 0.929 . S
C260 C256 1.527 . S
C260 H318 0.959 . S
C260 H319 0.961 . S
C260 H320 0.961 . S
C261 C258 1.496 . S
C261 H321 0.960 . S
C261 H322 0.960 . S
C261 H323 0.961 . S
C262 C263 1.517 . S
C262 H325 0.961 . S
C262 H326 0.960 . S
C262 H327 0.959 . S
C263 C262 1.517 . S
C263 O311 1.468 . S
C263 H324 0.980 . S
C264 C265 1.349 . S
C264 C269 1.367 . S
C264 O311 1.408 . S
C265 C264 1.349 . S
C265 C266 1.407 . S
C265 H328 0.930 . S
C266 C265 1.407 . S
C266 C267 1.449 . S
C266 C270 1.535 . S
C267 C266 1.449 . S
C267 C268 1.384 . S
C267 C292 1.553 . S
C268 C267 1.384 . S
C268 C269 1.364 . S
C268 C271 1.450 . S
C269 C264 1.367 . S
C269 C268 1.364 . S
C269 H329 0.931 . S
C270 C266 1.535 . S
C270 H330 0.959 . S
C270 H331 0.961 . S
C270 H332 0.959 . S
C271 C268 1.450 . S
C271 H333 0.960 . S
C271 H334 0.960 . S
C271 H335 0.960 . S
C272 C273 1.309 . S
C272 C277 1.304 . S
C272 O310 1.435 . S
C273 C272 1.309 . S
C273 C274 1.476 . S
C273 H337 0.930 . S
C274 C273 1.476 . S
C274 C275 1.400 . S
C274 C278 1.567 . S
C275 C274 1.400 . S
C275 C276 1.373 . S
C275 C297 1.432 . S
C276 C275 1.373 . S
C276 C277 1.339 . S
C276 C279 1.530 . S
C277 C272 1.304 . S
C277 C276 1.339 . S
C277 H338 0.930 . S
C278 C274 1.567 . S
C278 H339 0.961 . S
C278 H340 0.960 . S
C278 H341 0.958 . S
C279 C276 1.530 . S
C279 H342 0.961 . S
C279 H343 0.960 . S
C279 H344 0.960 . S
C280 C281 1.530 . S
C280 H346 0.961 . S
C280 H347 0.961 . S
C280 H348 0.959 . S
C281 C280 1.530 . S
C281 O309 1.412 . S
C281 H345 0.980 . S
C282 C283 1.288 . S
C282 C287 1.377 . S
C282 O309 1.393 . S
C283 C282 1.288 . S
C283 C284 1.369 . S
C283 H349 0.932 . S
C284 C283 1.369 . S
C284 C285 1.398 . S
C284 C288 1.527 . S
C285 C284 1.398 . S
C285 C286 1.380 . S
C285 C299 1.497 . S
C286 C285 1.380 . S
C286 C287 1.383 . S
C286 C289 1.603 . S
C287 C282 1.377 . S
C287 C286 1.383 . S
C287 H350 0.929 . S
C288 C284 1.527 . S
C288 H351 0.961 . S
C288 H352 0.959 . S
C288 H353 0.959 . S
C289 C286 1.603 . S
C289 H354 0.960 . S
C289 H355 0.962 . S
C289 H356 0.961 . S
C290 C257 1.587 . S
C290 C291 1.360 . S
C290 C303 1.412 . S
C291 C290 1.360 . S
C291 C292 1.365 . S
C291 H357 0.929 . S
C292 C267 1.553 . S
C292 C291 1.365 . S
C292 C293 1.404 . S
C293 C292 1.404 . S
C293 C294 1.395 . S
C293 C304 1.451 . S
C294 C293 1.395 . S
C294 C295 1.322 . S
C294 H358 0.930 . S
C295 C294 1.322 . S
C295 C296 1.459 . S
C295 H359 0.929 . S
C296 C295 1.459 . S
C296 C297 1.445 . S
C296 C305 1.395 . S
C297 C275 1.432 . S
C297 C296 1.445 . S
C297 C298 1.370 . S
C298 C297 1.370 . S
C298 C299 1.438 . S
C298 H360 0.930 . S
C299 C285 1.497 . S
C299 C298 1.438 . S
C299 C300 1.360 . S
C300 C299 1.360 . S
C300 C301 1.401 . S
C300 C305 1.446 . S
C301 C300 1.401 . S
C301 C302 1.347 . S
C301 H361 0.929 . S
C302 C301 1.347 . S
C302 C303 1.455 . S
C302 H362 0.930 . S
C303 C290 1.412 . S
C303 C302 1.455 . S
C303 C304 1.331 . S
C304 C293 1.451 . S
C304 C303 1.331 . S
C304 C305 1.497 . S
C305 C296 1.395 . S
C305 C300 1.446 . S
C305 C304 1.497 . S
C306 C307 1.582 . S
C306 H363 0.962 . S
C306 H364 0.959 . S
C306 H365 0.958 . S
C307 C306 1.582 . S
C307 O310 1.458 . S
C307 H336 0.980 . S
O308 C253 1.426 . S
O308 C254 1.334 . S
O309 C281 1.412 . S
O309 C282 1.393 . S
O310 C272 1.435 . S
O310 C307 1.458 . S
O311 C263 1.468 . S
O311 C264 1.408 . S
H312 C253 0.980 . S
H313 C252 0.959 . S
H314 C252 0.959 . S
H315 C252 0.960 . S
H316 C255 0.929 . S
H317 C259 0.929 . S
H318 C260 0.959 . S
H319 C260 0.961 . S
H320 C260 0.961 . S
H321 C261 0.960 . S
H322 C261 0.960 . S
H323 C261 0.961 . S
H324 C263 0.980 . S
H325 C262 0.961 . S
H326 C262 0.960 . S
H327 C262 0.959 . S
H328 C265 0.930 . S
H329 C269 0.931 . S
H330 C270 0.959 . S
H331 C270 0.961 . S
H332 C270 0.959 . S
H333 C271 0.960 . S
H334 C271 0.960 . S
H335 C271 0.960 . S
H336 C307 0.980 . S
H337 C273 0.930 . S
H338 C277 0.930 . S
H339 C278 0.961 . S
H340 C278 0.960 . S
H341 C278 0.958 . S
H342 C279 0.961 . S
H343 C279 0.960 . S
H344 C279 0.960 . S
H345 C281 0.980 . S
H346 C280 0.961 . S
H347 C280 0.961 . S
H348 C280 0.959 . S
H349 C283 0.932 . S
H350 C287 0.929 . S
H351 C288 0.961 . S
H352 C288 0.959 . S
H353 C288 0.959 . S
H354 C289 0.960 . S
H355 C289 0.962 . S
H356 C289 0.961 . S
H357 C291 0.929 . S
H358 C294 0.930 . S
H359 C295 0.929 . S
H360 C298 0.930 . S
H361 C301 0.929 . S
H362 C302 0.930 . S
H363 C306 0.962 . S
H364 C306 0.959 . S
H365 C306 0.958 . S
C366 C367 1.560 . S
C366 H427 0.959 . S
C366 H428 0.959 . S
C366 H429 0.960 . S
C367 C366 1.560 . S
C367 O422 1.426 . S
C367 H426 0.980 . S
C368 C369 1.407 . S
C368 C373 1.418 . S
C368 O422 1.334 . S
C369 C368 1.407 . S
C369 C370 1.360 . S
C369 H430 0.929 . S
C370 C369 1.360 . S
C370 C371 1.401 . S
C370 C374 1.527 . S
C371 C370 1.401 . S
C371 C372 1.405 . S
C371 C404 1.587 . S
C372 C371 1.405 . S
C372 C373 1.332 . S
C372 C375 1.496 . S
C373 C368 1.418 . S
C373 C372 1.332 . S
C373 H431 0.929 . S
C374 C370 1.527 . S
C374 H432 0.959 . S
C374 H433 0.961 . S
C374 H434 0.961 . S
C375 C372 1.496 . S
C375 H435 0.960 . S
C375 H436 0.960 . S
C375 H437 0.961 . S
C376 C377 1.517 . S
C376 H439 0.961 . S
C376 H440 0.960 . S
C376 H441 0.959 . S
C377 C376 1.517 . S
C377 O425 1.468 . S
C377 H438 0.980 . S
C378 C379 1.349 . S
C378 C383 1.367 . S
C378 O425 1.408 . S
C379 C378 1.349 . S
C379 C380 1.407 . S
C379 H442 0.930 . S
C380 C379 1.407 . S
C380 C381 1.449 . S
C380 C384 1.535 . S
C381 C380 1.449 . S
C381 C382 1.384 . S
C381 C406 1.553 . S
C382 C381 1.384 . S
C382 C383 1.364 . S
C382 C385 1.450 . S
C383 C378 1.367 . S
C383 C382 1.364 . S
C383 H443 0.931 . S
C384 C380 1.535 . S
C384 H444 0.959 . S
C384 H445 0.961 . S
C384 H446 0.959 . S
C385 C382 1.450 . S
C385 H447 0.960 . S
C385 H448 0.960 . S
C385 H449 0.960 . S
C386 C387 1.309 . S
C386 C391 1.304 . S
C386 O424 1.435 . S
C387 C386 1.309 . S
C387 C388 1.476 . S
C387 H451 0.930 . S
C388 C387 1.476 . S
C388 C389 1.400 . S
C388 C392 1.567 . S
C389 C388 1.400 . S
C389 C390 1.373 . S
C389 C411 1.432 . S
C390 C389 1.373 . S
C390 C391 1.339 . S
C390 C393 1.530 . S
C391 C386 1.304 . S
C391 C390 1.339 . S
C391 H452 0.930 . S
C392 C388 1.567 . S
C392 H453 0.961 . S
C392 H454 0.960 . S
C392 H455 0.958 . S
C393 C390 1.530 . S
C393 H456 0.961 . S
C393 H457 0.960 . S
C393 H458 0.960 . S
C394 C395 1.530 . S
C394 H460 0.961 . S
C394 H461 0.961 . S
C394 H462 0.959 . S
C395 C394 1.530 . S
C395 O423 1.412 . S
C395 H459 0.980 . S
C396 C397 1.288 . S
C396 C401 1.377 . S
C396 O423 1.393 . S
C397 C396 1.288 . S
C397 C398 1.369 . S
C397 H463 0.932 . S
C398 C397 1.369 . S
C398 C399 1.398 . S
C398 C402 1.527 . S
C399 C398 1.398 . S
C399 C400 1.380 . S
C399 C413 1.497 . S
C400 C399 1.380 . S
C400 C401 1.383 . S
C400 C403 1.603 . S
C401 C396 1.377 . S
C401 C400 1.383 . S
C401 H464 0.929 . S
C402 C398 1.527 . S
C402 H465 0.961 . S
C402 H466 0.959 . S
C402 H467 0.959 . S
C403 C400 1.603 . S
C403 H468 0.960 . S
C403 H469 0.962 . S
C403 H470 0.961 . S
C404 C371 1.587 . S
C404 C405 1.360 . S
C404 C417 1.412 . S
C405 C404 1.360 . S
C405 C406 1.365 . S
C405 H471 0.929 . S
C406 C381 1.553 . S
C406 C405 1.365 . S
C406 C407 1.404 . S
C407 C406 1.404 . S
C407 C408 1.395 . S
C407 C418 1.451 . S
C408 C407 1.395 . S
C408 C409 1.322 . S
C408 H472 0.930 . S
C409 C408 1.322 . S
C409 C410 1.459 . S
C409 H473 0.929 . S
C410 C409 1.459 . S
C410 C411 1.445 . S
C410 C419 1.395 . S
C411 C389 1.432 . S
C411 C410 1.445 . S
C411 C412 1.370 . S
C412 C411 1.370 . S
C412 C413 1.438 . S
C412 H474 0.930 . S
C413 C399 1.497 . S
C413 C412 1.438 . S
C413 C414 1.360 . S
C414 C413 1.360 . S
C414 C415 1.401 . S
C414 C419 1.446 . S
C415 C414 1.401 . S
C415 C416 1.347 . S
C415 H475 0.929 . S
C416 C415 1.347 . S
C416 C417 1.455 . S
C416 H476 0.930 . S
C417 C404 1.412 . S
C417 C416 1.455 . S
C417 C418 1.331 . S
C418 C407 1.451 . S
C418 C417 1.331 . S
C418 C419 1.497 . S
C419 C410 1.395 . S
C419 C414 1.446 . S
C419 C418 1.497 . S
C420 C421 1.582 . S
C420 H477 0.962 . S
C420 H478 0.959 . S
C420 H479 0.958 . S
C421 C420 1.582 . S
C421 O424 1.458 . S
C421 H450 0.980 . S
O422 C367 1.426 . S
O422 C368 1.334 . S
O423 C395 1.412 . S
O423 C396 1.393 . S
O424 C386 1.435 . S
O424 C421 1.458 . S
O425 C377 1.468 . S
O425 C378 1.408 . S
H426 C367 0.980 . S
H427 C366 0.959 . S
H428 C366 0.959 . S
H429 C366 0.960 . S
H430 C369 0.929 . S
H431 C373 0.929 . S
H432 C374 0.959 . S
H433 C374 0.961 . S
H434 C374 0.961 . S
H435 C375 0.960 . S
H436 C375 0.960 . S
H437 C375 0.961 . S
H438 C377 0.980 . S
H439 C376 0.961 . S
H440 C376 0.960 . S
H441 C376 0.959 . S
H442 C379 0.930 . S
H443 C383 0.931 . S
H444 C384 0.959 . S
H445 C384 0.961 . S
H446 C384 0.959 . S
H447 C385 0.960 . S
H448 C385 0.960 . S
H449 C385 0.960 . S
H450 C421 0.980 . S
H451 C387 0.930 . S
H452 C391 0.930 . S
H453 C392 0.961 . S
H454 C392 0.960 . S
H455 C392 0.958 . S
H456 C393 0.961 . S
H457 C393 0.960 . S
H458 C393 0.960 . S
H459 C395 0.980 . S
H460 C394 0.961 . S
H461 C394 0.961 . S
H462 C394 0.959 . S
H463 C397 0.932 . S
H464 C401 0.929 . S
H465 C402 0.961 . S
H466 C402 0.959 . S
H467 C402 0.959 . S
H468 C403 0.960 . S
H469 C403 0.962 . S
H470 C403 0.961 . S
H471 C405 0.929 . S
H472 C408 0.930 . S
H473 C409 0.929 . S
H474 C412 0.930 . S
H475 C415 0.929 . S
H476 C416 0.930 . S
H477 C420 0.962 . S
H478 C420 0.959 . S
H479 C420 0.958 . S
C480 C481 1.560 . S
C480 H541 0.959 . S
C480 H542 0.959 . S
C480 H543 0.960 . S
C481 C480 1.560 . S
C481 O536 1.426 . S
C481 H540 0.980 . S
C482 C483 1.407 . S
C482 C487 1.418 . S
C482 O536 1.334 . S
C483 C482 1.407 . S
C483 C484 1.360 . S
C483 H544 0.929 . S
C484 C483 1.360 . S
C484 C485 1.401 . S
C484 C488 1.527 . S
C485 C484 1.401 . S
C485 C486 1.405 . S
C485 C518 1.587 . S
C486 C485 1.405 . S
C486 C487 1.332 . S
C486 C489 1.496 . S
C487 C482 1.418 . S
C487 C486 1.332 . S
C487 H545 0.929 . S
C488 C484 1.527 . S
C488 H546 0.959 . S
C488 H547 0.961 . S
C488 H548 0.961 . S
C489 C486 1.496 . S
C489 H549 0.960 . S
C489 H550 0.960 . S
C489 H551 0.961 . S
C490 C491 1.517 . S
C490 H553 0.961 . S
C490 H554 0.960 . S
C490 H555 0.959 . S
C491 C490 1.517 . S
C491 O539 1.468 . S
C491 H552 0.980 . S
C492 C493 1.349 . S
C492 C497 1.367 . S
C492 O539 1.408 . S
C493 C492 1.349 . S
C493 C494 1.407 . S
C493 H556 0.930 . S
C494 C493 1.407 . S
C494 C495 1.449 . S
C494 C498 1.535 . S
C495 C494 1.449 . S
C495 C496 1.384 . S
C495 C520 1.553 . S
C496 C495 1.384 . S
C496 C497 1.364 . S
C496 C499 1.450 . S
C497 C492 1.367 . S
C497 C496 1.364 . S
C497 H557 0.931 . S
C498 C494 1.535 . S
C498 H558 0.959 . S
C498 H559 0.961 . S
C498 H560 0.959 . S
C499 C496 1.450 . S
C499 H561 0.960 . S
C499 H562 0.960 . S
C499 H563 0.960 . S
C500 C501 1.309 . S
C500 C505 1.304 . S
C500 O538 1.435 . S
C501 C500 1.309 . S
C501 C502 1.476 . S
C501 H565 0.930 . S
C502 C501 1.476 . S
C502 C503 1.400 . S
C502 C506 1.567 . S
C503 C502 1.400 . S
C503 C504 1.373 . S
C503 C525 1.432 . S
C504 C503 1.373 . S
C504 C505 1.339 . S
C504 C507 1.530 . S
C505 C500 1.304 . S
C505 C504 1.339 . S
C505 H566 0.930 . S
C506 C502 1.567 . S
C506 H567 0.961 . S
C506 H568 0.960 . S
C506 H569 0.958 . S
C507 C504 1.530 . S
C507 H570 0.961 . S
C507 H571 0.960 . S
C507 H572 0.960 . S
C508 C509 1.530 . S
C508 H574 0.961 . S
C508 H575 0.961 . S
C508 H576 0.959 . S
C509 C508 1.530 . S
C509 O537 1.412 . S
C509 H573 0.980 . S
C510 C511 1.288 . S
C510 C515 1.377 . S
C510 O537 1.393 . S
C511 C510 1.288 . S
C511 C512 1.369 . S
C511 H577 0.932 . S
C512 C511 1.369 . S
C512 C513 1.398 . S
C512 C516 1.527 . S
C513 C512 1.398 . S
C513 C514 1.380 . S
C513 C527 1.497 . S
C514 C513 1.380 . S
C514 C515 1.383 . S
C514 C517 1.603 . S
C515 C510 1.377 . S
C515 C514 1.383 . S
C515 H578 0.929 . S
C516 C512 1.527 . S
C516 H579 0.961 . S
C516 H580 0.959 . S
C516 H581 0.959 . S
C517 C514 1.603 . S
C517 H582 0.960 . S
C517 H583 0.962 . S
C517 H584 0.961 . S
C518 C485 1.587 . S
C518 C519 1.360 . S
C518 C531 1.412 . S
C519 C518 1.360 . S
C519 C520 1.365 . S
C519 H585 0.929 . S
C520 C495 1.553 . S
C520 C519 1.365 . S
C520 C521 1.404 . S
C521 C520 1.404 . S
C521 C522 1.395 . S
C521 C532 1.451 . S
C522 C521 1.395 . S
C522 C523 1.322 . S
C522 H586 0.930 . S
C523 C522 1.322 . S
C523 C524 1.459 . S
C523 H587 0.929 . S
C524 C523 1.459 . S
C524 C525 1.445 . S
C524 C533 1.395 . S
C525 C503 1.432 . S
C525 C524 1.445 . S
C525 C526 1.370 . S
C526 C525 1.370 . S
C526 C527 1.438 . S
C526 H588 0.930 . S
C527 C513 1.497 . S
C527 C526 1.438 . S
C527 C528 1.360 . S
C528 C527 1.360 . S
C528 C529 1.401 . S
C528 C533 1.446 . S
C529 C528 1.401 . S
C529 C530 1.347 . S
C529 H589 0.929 . S
C530 C529 1.347 . S
C530 C531 1.455 . S
C530 H590 0.930 . S
C531 C518 1.412 . S
C531 C530 1.455 . S
C531 C532 1.331 . S
C532 C521 1.451 . S
C532 C531 1.331 . S
C532 C533 1.497 . S
C533 C524 1.395 . S
C533 C528 1.446 . S
C533 C532 1.497 . S
C534 C535 1.582 . S
C534 H591 0.962 . S
C534 H592 0.959 . S
C534 H593 0.958 . S
C535 C534 1.582 . S
C535 O538 1.458 . S
C535 H564 0.980 . S
O536 C481 1.426 . S
O536 C482 1.334 . S
O537 C509 1.412 . S
O537 C510 1.393 . S
O538 C500 1.435 . S
O538 C535 1.458 . S
O539 C491 1.468 . S
O539 C492 1.408 . S
H540 C481 0.980 . S
H541 C480 0.959 . S
H542 C480 0.959 . S
H543 C480 0.960 . S
H544 C483 0.929 . S
H545 C487 0.929 . S
H546 C488 0.959 . S
H547 C488 0.961 . S
H548 C488 0.961 . S
H549 C489 0.960 . S
H550 C489 0.960 . S
H551 C489 0.961 . S
H552 C491 0.980 . S
H553 C490 0.961 . S
H554 C490 0.960 . S
H555 C490 0.959 . S
H556 C493 0.930 . S
H557 C497 0.931 . S
H558 C498 0.959 . S
H559 C498 0.961 . S
H560 C498 0.959 . S
H561 C499 0.960 . S
H562 C499 0.960 . S
H563 C499 0.960 . S
H564 C535 0.980 . S
H565 C501 0.930 . S
H566 C505 0.930 . S
H567 C506 0.961 . S
H568 C506 0.960 . S
H569 C506 0.958 . S
H570 C507 0.961 . S
H571 C507 0.960 . S
H572 C507 0.960 . S
H573 C509 0.980 . S
H574 C508 0.961 . S
H575 C508 0.961 . S
H576 C508 0.959 . S
H577 C511 0.932 . S
H578 C515 0.929 . S
H579 C516 0.961 . S
H580 C516 0.959 . S
H581 C516 0.959 . S
H582 C517 0.960 . S
H583 C517 0.962 . S
H584 C517 0.961 . S
H585 C519 0.929 . S
H586 C522 0.930 . S
H587 C523 0.929 . S
H588 C526 0.930 . S
H589 C529 0.929 . S
H590 C530 0.930 . S
H591 C534 0.962 . S
H592 C534 0.959 . S
H593 C534 0.958 . S
C594 C595 1.560 . S
C594 H655 0.959 . S
C594 H656 0.959 . S
C594 H657 0.960 . S
C595 C594 1.560 . S
C595 O650 1.426 . S
C595 H654 0.980 . S
C596 C597 1.407 . S
C596 C601 1.418 . S
C596 O650 1.334 . S
C597 C596 1.407 . S
C597 C598 1.360 . S
C597 H658 0.929 . S
C598 C597 1.360 . S
C598 C599 1.401 . S
C598 C602 1.527 . S
C599 C598 1.401 . S
C599 C600 1.405 . S
C599 C632 1.587 . S
C600 C599 1.405 . S
C600 C601 1.332 . S
C600 C603 1.496 . S
C601 C596 1.418 . S
C601 C600 1.332 . S
C601 H659 0.929 . S
C602 C598 1.527 . S
C602 H660 0.959 . S
C602 H661 0.961 . S
C602 H662 0.961 . S
C603 C600 1.496 . S
C603 H663 0.960 . S
C603 H664 0.960 . S
C603 H665 0.961 . S
C604 C605 1.517 . S
C604 H667 0.961 . S
C604 H668 0.960 . S
C604 H669 0.959 . S
C605 C604 1.517 . S
C605 O653 1.468 . S
C605 H666 0.980 . S
C606 C607 1.349 . S
C606 C611 1.367 . S
C606 O653 1.408 . S
C607 C606 1.349 . S
C607 C608 1.407 . S
C607 H670 0.930 . S
C608 C607 1.407 . S
C608 C609 1.449 . S
C608 C612 1.535 . S
C609 C608 1.449 . S
C609 C610 1.384 . S
C609 C634 1.553 . S
C610 C609 1.384 . S
C610 C611 1.364 . S
C610 C613 1.450 . S
C611 C606 1.367 . S
C611 C610 1.364 . S
C611 H671 0.931 . S
C612 C608 1.535 . S
C612 H672 0.959 . S
C612 H673 0.961 . S
C612 H674 0.959 . S
C613 C610 1.450 . S
C613 H675 0.960 . S
C613 H676 0.960 . S
C613 H677 0.960 . S
C614 C615 1.309 . S
C614 C619 1.304 . S
C614 O652 1.435 . S
C615 C614 1.309 . S
C615 C616 1.476 . S
C615 H679 0.930 . S
C616 C615 1.476 . S
C616 C617 1.400 . S
C616 C620 1.567 . S
C617 C616 1.400 . S
C617 C618 1.373 . S
C617 C639 1.432 . S
C618 C617 1.373 . S
C618 C619 1.339 . S
C618 C621 1.530 . S
C619 C614 1.304 . S
C619 C618 1.339 . S
C619 H680 0.930 . S
C620 C616 1.567 . S
C620 H681 0.961 . S
C620 H682 0.960 . S
C620 H683 0.958 . S
C621 C618 1.530 . S
C621 H684 0.961 . S
C621 H685 0.960 . S
C621 H686 0.960 . S
C622 C623 1.530 . S
C622 H688 0.961 . S
C622 H689 0.961 . S
C622 H690 0.959 . S
C623 C622 1.530 . S
C623 O651 1.412 . S
C623 H687 0.980 . S
C624 C625 1.288 . S
C624 C629 1.377 . S
C624 O651 1.393 . S
C625 C624 1.288 . S
C625 C626 1.369 . S
C625 H691 0.932 . S
C626 C625 1.369 . S
C626 C627 1.398 . S
C626 C630 1.527 . S
C627 C626 1.398 . S
C627 C628 1.380 . S
C627 C641 1.497 . S
C628 C627 1.380 . S
C628 C629 1.383 . S
C628 C631 1.603 . S
C629 C624 1.377 . S
C629 C628 1.383 . S
C629 H692 0.929 . S
C630 C626 1.527 . S
C630 H693 0.961 . S
C630 H694 0.959 . S
C630 H695 0.959 . S
C631 C628 1.603 . S
C631 H696 0.960 . S
C631 H697 0.962 . S
C631 H698 0.961 . S
C632 C599 1.587 . S
C632 C633 1.360 . S
C632 C645 1.412 . S
C633 C632 1.360 . S
C633 C634 1.365 . S
C633 H699 0.929 . S
C634 C609 1.553 . S
C634 C633 1.365 . S
C634 C635 1.404 . S
C635 C634 1.404 . S
C635 C636 1.395 . S
C635 C646 1.451 . S
C636 C635 1.395 . S
C636 C637 1.322 . S
C636 H700 0.930 . S
C637 C636 1.322 . S
C637 C638 1.459 . S
C637 H701 0.929 . S
C638 C637 1.459 . S
C638 C639 1.445 . S
C638 C647 1.395 . S
C639 C617 1.432 . S
C639 C638 1.445 . S
C639 C640 1.370 . S
C640 C639 1.370 . S
C640 C641 1.438 . S
C640 H702 0.930 . S
C641 C627 1.497 . S
C641 C640 1.438 . S
C641 C642 1.360 . S
C642 C641 1.360 . S
C642 C643 1.401 . S
C642 C647 1.446 . S
C643 C642 1.401 . S
C643 C644 1.347 . S
C643 H703 0.929 . S
C644 C643 1.347 . S
C644 C645 1.455 . S
C644 H704 0.930 . S
C645 C632 1.412 . S
C645 C644 1.455 . S
C645 C646 1.331 . S
C646 C635 1.451 . S
C646 C645 1.331 . S
C646 C647 1.497 . S
C647 C638 1.395 . S
C647 C642 1.446 . S
C647 C646 1.497 . S
C648 C649 1.582 . S
C648 H705 0.962 . S
C648 H706 0.959 . S
C648 H707 0.958 . S
C649 C648 1.582 . S
C649 O652 1.458 . S
C649 H678 0.980 . S
O650 C595 1.426 . S
O650 C596 1.334 . S
O651 C623 1.412 . S
O651 C624 1.393 . S
O652 C614 1.435 . S
O652 C649 1.458 . S
O653 C605 1.468 . S
O653 C606 1.408 . S
H654 C595 0.980 . S
H655 C594 0.959 . S
H656 C594 0.959 . S
H657 C594 0.960 . S
H658 C597 0.929 . S
H659 C601 0.929 . S
H660 C602 0.959 . S
H661 C602 0.961 . S
H662 C602 0.961 . S
H663 C603 0.960 . S
H664 C603 0.960 . S
H665 C603 0.961 . S
H666 C605 0.980 . S
H667 C604 0.961 . S
H668 C604 0.960 . S
H669 C604 0.959 . S
H670 C607 0.930 . S
H671 C611 0.931 . S
H672 C612 0.959 . S
H673 C612 0.961 . S
H674 C612 0.959 . S
H675 C613 0.960 . S
H676 C613 0.960 . S
H677 C613 0.960 . S
H678 C649 0.980 . S
H679 C615 0.930 . S
H680 C619 0.930 . S
H681 C620 0.961 . S
H682 C620 0.960 . S
H683 C620 0.958 . S
H684 C621 0.961 . S
H685 C621 0.960 . S
H686 C621 0.960 . S
H687 C623 0.980 . S
H688 C622 0.961 . S
H689 C622 0.961 . S
H690 C622 0.959 . S
H691 C625 0.932 . S
H692 C629 0.929 . S
H693 C630 0.961 . S
H694 C630 0.959 . S
H695 C630 0.959 . S
H696 C631 0.960 . S
H697 C631 0.962 . S
H698 C631 0.961 . S
H699 C633 0.929 . S
H700 C636 0.930 . S
H701 C637 0.929 . S
H702 C640 0.930 . S
H703 C643 0.929 . S
H704 C644 0.930 . S
H705 C648 0.962 . S
H706 C648 0.959 . S
H707 C648 0.958 . S
C708 C709 1.560 . S
C708 H769 0.959 . S
C708 H770 0.959 . S
C708 H771 0.960 . S
C709 C708 1.560 . S
C709 O764 1.426 . S
C709 H768 0.980 . S
C710 C711 1.407 . S
C710 C715 1.418 . S
C710 O764 1.334 . S
C711 C710 1.407 . S
C711 C712 1.360 . S
C711 H772 0.929 . S
C712 C711 1.360 . S
C712 C713 1.401 . S
C712 C716 1.527 . S
C713 C712 1.401 . S
C713 C714 1.405 . S
C713 C746 1.587 . S
C714 C713 1.405 . S
C714 C715 1.332 . S
C714 C717 1.496 . S
C715 C710 1.418 . S
C715 C714 1.332 . S
C715 H773 0.929 . S
C716 C712 1.527 . S
C716 H774 0.959 . S
C716 H775 0.961 . S
C716 H776 0.961 . S
C717 C714 1.496 . S
C717 H777 0.960 . S
C717 H778 0.960 . S
C717 H779 0.961 . S
C718 C719 1.517 . S
C718 H781 0.961 . S
C718 H782 0.960 . S
C718 H783 0.959 . S
C719 C718 1.517 . S
C719 O767 1.468 . S
C719 H780 0.980 . S
C720 C721 1.349 . S
C720 C725 1.367 . S
C720 O767 1.408 . S
C721 C720 1.349 . S
C721 C722 1.407 . S
C721 H784 0.930 . S
C722 C721 1.407 . S
C722 C723 1.449 . S
C722 C726 1.535 . S
C723 C722 1.449 . S
C723 C724 1.384 . S
C723 C748 1.553 . S
C724 C723 1.384 . S
C724 C725 1.364 . S
C724 C727 1.450 . S
C725 C720 1.367 . S
C725 C724 1.364 . S
C725 H785 0.931 . S
C726 C722 1.535 . S
C726 H786 0.959 . S
C726 H787 0.961 . S
C726 H788 0.959 . S
C727 C724 1.450 . S
C727 H789 0.960 . S
C727 H790 0.960 . S
C727 H791 0.960 . S
C728 C729 1.309 . S
C728 C733 1.304 . S
C728 O766 1.435 . S
C729 C728 1.309 . S
C729 C730 1.476 . S
C729 H793 0.930 . S
C730 C729 1.476 . S
C730 C731 1.400 . S
C730 C734 1.567 . S
C731 C730 1.400 . S
C731 C732 1.373 . S
C731 C753 1.432 . S
C732 C731 1.373 . S
C732 C733 1.339 . S
C732 C735 1.530 . S
C733 C728 1.304 . S
C733 C732 1.339 . S
C733 H794 0.930 . S
C734 C730 1.567 . S
C734 H795 0.961 . S
C734 H796 0.960 . S
C734 H797 0.958 . S
C735 C732 1.530 . S
C735 H798 0.961 . S
C735 H799 0.960 . S
C735 H800 0.960 . S
C736 C737 1.530 . S
C736 H802 0.961 . S
C736 H803 0.961 . S
C736 H804 0.959 . S
C737 C736 1.530 . S
C737 O765 1.412 . S
C737 H801 0.980 . S
C738 C739 1.288 . S
C738 C743 1.377 . S
C738 O765 1.393 . S
C739 C738 1.288 . S
C739 C740 1.369 . S
C739 H805 0.932 . S
C740 C739 1.369 . S
C740 C741 1.398 . S
C740 C744 1.527 . S
C741 C740 1.398 . S
C741 C742 1.380 . S
C741 C755 1.497 . S
C742 C741 1.380 . S
C742 C743 1.383 . S
C742 C745 1.603 . S
C743 C738 1.377 . S
C743 C742 1.383 . S
C743 H806 0.929 . S
C744 C740 1.527 . S
C744 H807 0.961 . S
C744 H808 0.959 . S
C744 H809 0.959 . S
C745 C742 1.603 . S
C745 H810 0.960 . S
C745 H811 0.962 . S
C745 H812 0.961 . S
C746 C713 1.587 . S
C746 C747 1.360 . S
C746 C759 1.412 . S
C747 C746 1.360 . S
C747 C748 1.365 . S
C747 H813 0.929 . S
C748 C723 1.553 . S
C748 C747 1.365 . S
C748 C749 1.404 . S
C749 C748 1.404 . S
C749 C750 1.395 . S
C749 C760 1.451 . S
C750 C749 1.395 . S
C750 C751 1.322 . S
C750 H814 0.930 . S
C751 C750 1.322 . S
C751 C752 1.459 . S
C751 H815 0.929 . S
C752 C751 1.459 . S
C752 C753 1.445 . S
C752 C761 1.395 . S
C753 C731 1.432 . S
C753 C752 1.445 . S
C753 C754 1.370 . S
C754 C753 1.370 . S
C754 C755 1.438 . S
C754 H816 0.930 . S
C755 C741 1.497 . S
C755 C754 1.438 . S
C755 C756 1.360 . S
C756 C755 1.360 . S
C756 C757 1.401 . S
C756 C761 1.446 . S
C757 C756 1.401 . S
C757 C758 1.347 . S
C757 H817 0.929 . S
C758 C757 1.347 . S
C758 C759 1.455 . S
C758 H818 0.930 . S
C759 C746 1.412 . S
C759 C758 1.455 . S
C759 C760 1.331 . S
C760 C749 1.451 . S
C760 C759 1.331 . S
C760 C761 1.497 . S
C761 C752 1.395 . S
C761 C756 1.446 . S
C761 C760 1.497 . S
C762 C763 1.582 . S
C762 H819 0.962 . S
C762 H820 0.959 . S
C762 H821 0.958 . S
C763 C762 1.582 . S
C763 O766 1.458 . S
C763 H792 0.980 . S
O764 C709 1.426 . S
O764 C710 1.334 . S
O765 C737 1.412 . S
O765 C738 1.393 . S
O766 C728 1.435 . S
O766 C763 1.458 . S
O767 C719 1.468 . S
O767 C720 1.408 . S
H768 C709 0.980 . S
H769 C708 0.959 . S
H770 C708 0.959 . S
H771 C708 0.960 . S
H772 C711 0.929 . S
H773 C715 0.929 . S
H774 C716 0.959 . S
H775 C716 0.961 . S
H776 C716 0.961 . S
H777 C717 0.960 . S
H778 C717 0.960 . S
H779 C717 0.961 . S
H780 C719 0.980 . S
H781 C718 0.961 . S
H782 C718 0.960 . S
H783 C718 0.959 . S
H784 C721 0.930 . S
H785 C725 0.931 . S
H786 C726 0.959 . S
H787 C726 0.961 . S
H788 C726 0.959 . S
H789 C727 0.960 . S
H790 C727 0.960 . S
H791 C727 0.960 . S
H792 C763 0.980 . S
H793 C729 0.930 . S
H794 C733 0.930 . S
H795 C734 0.961 . S
H796 C734 0.960 . S
H797 C734 0.958 . S
H798 C735 0.961 . S
H799 C735 0.960 . S
H800 C735 0.960 . S
H801 C737 0.980 . S
H802 C736 0.961 . S
H803 C736 0.961 . S
H804 C736 0.959 . S
H805 C739 0.932 . S
H806 C743 0.929 . S
H807 C744 0.961 . S
H808 C744 0.959 . S
H809 C744 0.959 . S
H810 C745 0.960 . S
H811 C745 0.962 . S
H812 C745 0.961 . S
H813 C747 0.929 . S
H814 C750 0.930 . S
H815 C751 0.929 . S
H816 C754 0.930 . S
H817 C757 0.929 . S
H818 C758 0.930 . S
H819 C762 0.962 . S
H820 C762 0.959 . S
H821 C762 0.958 . S
C822 C823 1.560 . S
C822 H883 0.959 . S
C822 H884 0.959 . S
C822 H885 0.960 . S
C823 C822 1.560 . S
C823 O878 1.426 . S
C823 H882 0.980 . S
C824 C825 1.407 . S
C824 C829 1.418 . S
C824 O878 1.334 . S
C825 C824 1.407 . S
C825 C826 1.360 . S
C825 H886 0.929 . S
C826 C825 1.360 . S
C826 C827 1.401 . S
C826 C830 1.527 . S
C827 C826 1.401 . S
C827 C828 1.405 . S
C827 C860 1.587 . S
C828 C827 1.405 . S
C828 C829 1.332 . S
C828 C831 1.496 . S
C829 C824 1.418 . S
C829 C828 1.332 . S
C829 H887 0.929 . S
C830 C826 1.527 . S
C830 H888 0.959 . S
C830 H889 0.961 . S
C830 H890 0.961 . S
C831 C828 1.496 . S
C831 H891 0.960 . S
C831 H892 0.960 . S
C831 H893 0.961 . S
C832 C833 1.517 . S
C832 H895 0.961 . S
C832 H896 0.960 . S
C832 H897 0.959 . S
C833 C832 1.517 . S
C833 O881 1.468 . S
C833 H894 0.980 . S
C834 C835 1.349 . S
C834 C839 1.367 . S
C834 O881 1.408 . S
C835 C834 1.349 . S
C835 C836 1.407 . S
C835 H898 0.930 . S
C836 C835 1.407 . S
C836 C837 1.449 . S
C836 C840 1.535 . S
C837 C836 1.449 . S
C837 C838 1.384 . S
C837 C862 1.553 . S
C838 C837 1.384 . S
C838 C839 1.364 . S
C838 C841 1.450 . S
C839 C834 1.367 . S
C839 C838 1.364 . S
C839 H899 0.931 . S
C840 C836 1.535 . S
C840 H900 0.959 . S
C840 H901 0.961 . S
C840 H902 0.959 . S
C841 C838 1.450 . S
C841 H903 0.960 . S
C841 H904 0.960 . S
C841 H905 0.960 . S
C842 C843 1.309 . S
C842 C847 1.304 . S
C842 O880 1.435 . S
C843 C842 1.309 . S
C843 C844 1.476 . S
C843 H907 0.930 . S
C844 C843 1.476 . S
C844 C845 1.400 . S
C844 C848 1.567 . S
C845 C844 1.400 . S
C845 C846 1.373 . S
C845 C867 1.432 . S
C846 C845 1.373 . S
C846 C847 1.339 . S
C846 C849 1.530 . S
C847 C842 1.304 . S
C847 C846 1.339 . S
C847 H908 0.930 . S
C848 C844 1.567 . S
C848 H909 0.961 . S
C848 H910 0.960 . S
C848 H911 0.958 . S
C849 C846 1.530 . S
C849 H912 0.961 . S
C849 H913 0.960 . S
C849 H914 0.960 . S
C850 C851 1.530 . S
C850 H916 0.961 . S
C850 H917 0.961 . S
C850 H918 0.959 . S
C851 C850 1.530 . S
C851 O879 1.412 . S
C851 H915 0.980 . S
C852 C853 1.288 . S
C852 C857 1.377 . S
C852 O879 1.393 . S
C853 C852 1.288 . S
C853 C854 1.369 . S
C853 H919 0.932 . S
C854 C853 1.369 . S
C854 C855 1.398 . S
C854 C858 1.527 . S
C855 C854 1.398 . S
C855 C856 1.380 . S
C855 C869 1.497 . S
C856 C855 1.380 . S
C856 C857 1.383 . S
C856 C859 1.603 . S
C857 C852 1.377 . S
C857 C856 1.383 . S
C857 H920 0.929 . S
C858 C854 1.527 . S
C858 H921 0.961 . S
C858 H922 0.959 . S
C858 H923 0.959 . S
C859 C856 1.603 . S
C859 H924 0.960 . S
C859 H925 0.962 . S
C859 H926 0.961 . S
C860 C827 1.587 . S
C860 C861 1.360 . S
C860 C873 1.412 . S
C861 C860 1.360 . S
C861 C862 1.365 . S
C861 H927 0.929 . S
C862 C837 1.553 . S
C862 C861 1.365 . S
C862 C863 1.404 . S
C863 C862 1.404 . S
C863 C864 1.395 . S
C863 C874 1.451 . S
C864 C863 1.395 . S
C864 C865 1.322 . S
C864 H928 0.930 . S
C865 C864 1.322 . S
C865 C866 1.459 . S
C865 H929 0.929 . S
C866 C865 1.459 . S
C866 C867 1.445 . S
C866 C875 1.395 . S
C867 C845 1.432 . S
C867 C866 1.445 . S
C867 C868 1.370 . S
C868 C867 1.370 . S
C868 C869 1.438 . S
C868 H930 0.930 . S
C869 C855 1.497 . S
C869 C868 1.438 . S
C869 C870 1.360 . S
C870 C869 1.360 . S
C870 C871 1.401 . S
C870 C875 1.446 . S
C871 C870 1.401 . S
C871 C872 1.347 . S
C871 H931 0.929 . S
C872 C871 1.347 . S
C872 C873 1.455 . S
C872 H932 0.930 . S
C873 C860 1.412 . S
C873 C872 1.455 . S
C873 C874 1.331 . S
C874 C863 1.451 . S
C874 C873 1.331 . S
C874 C875 1.497 . S
C875 C866 1.395 . S
C875 C870 1.446 . S
C875 C874 1.497 . S
C876 C877 1.582 . S
C876 H933 0.962 . S
C876 H934 0.959 . S
C876 H935 0.958 . S
C877 C876 1.582 . S
C877 O880 1.458 . S
C877 H906 0.980 . S
O878 C823 1.426 . S
O878 C824 1.334 . S
O879 C851 1.412 . S
O879 C852 1.393 . S
O880 C842 1.435 . S
O880 C877 1.458 . S
O881 C833 1.468 . S
O881 C834 1.408 . S
H882 C823 0.980 . S
H883 C822 0.959 . S
H884 C822 0.959 . S
H885 C822 0.960 . S
H886 C825 0.929 . S
H887 C829 0.929 . S
H888 C830 0.959 . S
H889 C830 0.961 . S
H890 C830 0.961 . S
H891 C831 0.960 . S
H892 C831 0.960 . S
H893 C831 0.961 . S
H894 C833 0.980 . S
H895 C832 0.961 . S
H896 C832 0.960 . S
H897 C832 0.959 . S
H898 C835 0.930 . S
H899 C839 0.931 . S
H900 C840 0.959 . S
H901 C840 0.961 . S
H902 C840 0.959 . S
H903 C841 0.960 . S
H904 C841 0.960 . S
H905 C841 0.960 . S
H906 C877 0.980 . S
H907 C843 0.930 . S
H908 C847 0.930 . S
H909 C848 0.961 . S
H910 C848 0.960 . S
H911 C848 0.958 . S
H912 C849 0.961 . S
H913 C849 0.960 . S
H914 C849 0.960 . S
H915 C851 0.980 . S
H916 C850 0.961 . S
H917 C850 0.961 . S
H918 C850 0.959 . S
H919 C853 0.932 . S
H920 C857 0.929 . S
H921 C858 0.961 . S
H922 C858 0.959 . S
H923 C858 0.959 . S
H924 C859 0.960 . S
H925 C859 0.962 . S
H926 C859 0.961 . S
H927 C861 0.929 . S
H928 C864 0.930 . S
H929 C865 0.929 . S
H930 C868 0.930 . S
H931 C871 0.929 . S
H932 C872 0.930 . S
H933 C876 0.962 . S
H934 C876 0.959 . S
H935 C876 0.958 . S
C936 C937 1.560 . S
C936 H997 0.959 . S
C936 H998 0.959 . S
C936 H999 0.960 . S
C937 C936 1.560 . S
C937 O992 1.426 . S
C937 H996 0.980 . S
C938 C939 1.407 . S
C938 C943 1.418 . S
C938 O992 1.334 . S
C939 C938 1.407 . S
C939 C940 1.360 . S
C939 H1000 0.929 . S
C940 C939 1.360 . S
C940 C941 1.401 . S
C940 C944 1.527 . S
C941 C940 1.401 . S
C941 C942 1.405 . S
C941 C974 1.587 . S
C942 C941 1.405 . S
C942 C943 1.332 . S
C942 C945 1.496 . S
C943 C938 1.418 . S
C943 C942 1.332 . S
C943 H1001 0.929 . S
C944 C940 1.527 . S
C944 H1002 0.959 . S
C944 H1003 0.961 . S
C944 H1004 0.961 . S
C945 C942 1.496 . S
C945 H1005 0.960 . S
C945 H1006 0.960 . S
C945 H1007 0.961 . S
C946 C947 1.517 . S
C946 H1009 0.961 . S
C946 H1010 0.960 . S
C946 H1011 0.959 . S
C947 C946 1.517 . S
C947 O995 1.468 . S
C947 H1008 0.980 . S
C948 C949 1.349 . S
C948 C953 1.367 . S
C948 O995 1.408 . S
C949 C948 1.349 . S
C949 C950 1.407 . S
C949 H1012 0.930 . S
C950 C949 1.407 . S
C950 C951 1.449 . S
C950 C954 1.535 . S
C951 C950 1.449 . S
C951 C952 1.384 . S
C951 C976 1.553 . S
C952 C951 1.384 . S
C952 C953 1.364 . S
C952 C955 1.450 . S
C953 C948 1.367 . S
C953 C952 1.364 . S
C953 H1013 0.931 . S
C954 C950 1.535 . S
C954 H1014 0.959 . S
C954 H1015 0.961 . S
C954 H1016 0.959 . S
C955 C952 1.450 . S
C955 H1017 0.960 . S
C955 H1018 0.960 . S
C955 H1019 0.960 . S
C956 C957 1.309 . S
C956 C961 1.304 . S
C956 O994 1.435 . S
C957 C956 1.309 . S
C957 C958 1.476 . S
C957 H1021 0.930 . S
C958 C957 1.476 . S
C958 C959 1.400 . S
C958 C962 1.567 . S
C959 C958 1.400 . S
C959 C960 1.373 . S
C959 C981 1.432 . S
C960 C959 1.373 . S
C960 C961 1.339 . S
C960 C963 1.530 . S
C961 C956 1.304 . S
C961 C960 1.339 . S
C961 H1022 0.930 . S
C962 C958 1.567 . S
C962 H1023 0.961 . S
C962 H1024 0.960 . S
C962 H1025 0.958 . S
C963 C960 1.530 . S
C963 H1026 0.961 . S
C963 H1027 0.960 . S
C963 H1028 0.960 . S
C964 C965 1.530 . S
C964 H1030 0.961 . S
C964 H1031 0.961 . S
C964 H1032 0.959 . S
C965 C964 1.530 . S
C965 O993 1.412 . S
C965 H1029 0.980 . S
C966 C967 1.288 . S
C966 C971 1.377 . S
C966 O993 1.393 . S
C967 C966 1.288 . S
C967 C968 1.369 . S
C967 H1033 0.932 . S
C968 C967 1.369 . S
C968 C969 1.398 . S
C968 C972 1.527 . S
C969 C968 1.398 . S
C969 C970 1.380 . S
C969 C983 1.497 . S
C970 C969 1.380 . S
C970 C971 1.383 . S
C970 C973 1.603 . S
C971 C966 1.377 . S
C971 C970 1.383 . S
C971 H1034 0.929 . S
C972 C968 1.527 . S
C972 H1035 0.961 . S
C972 H1036 0.959 . S
C972 H1037 0.959 . S
C973 C970 1.603 . S
C973 H1038 0.960 . S
C973 H1039 0.962 . S
C973 H1040 0.961 . S
C974 C941 1.587 . S
C974 C975 1.360 . S
C974 C987 1.412 . S
C975 C974 1.360 . S
C975 C976 1.365 . S
C975 H1041 0.929 . S
C976 C951 1.553 . S
C976 C975 1.365 . S
C976 C977 1.404 . S
C977 C976 1.404 . S
C977 C978 1.395 . S
C977 C988 1.451 . S
C978 C977 1.395 . S
C978 C979 1.322 . S
C978 H1042 0.930 . S
C979 C978 1.322 . S
C979 C980 1.459 . S
C979 H1043 0.929 . S
C980 C979 1.459 . S
C980 C981 1.445 . S
C980 C989 1.395 . S
C981 C959 1.432 . S
C981 C980 1.445 . S
C981 C982 1.370 . S
C982 C981 1.370 . S
C982 C983 1.438 . S
C982 H1044 0.930 . S
C983 C969 1.497 . S
C983 C982 1.438 . S
C983 C984 1.360 . S
C984 C983 1.360 . S
C984 C985 1.401 . S
C984 C989 1.446 . S
C985 C984 1.401 . S
C985 C986 1.347 . S
C985 H1045 0.929 . S
C986 C985 1.347 . S
C986 C987 1.455 . S
C986 H1046 0.930 . S
C987 C974 1.412 . S
C987 C986 1.455 . S
C987 C988 1.331 . S
C988 C977 1.451 . S
C988 C987 1.331 . S
C988 C989 1.497 . S
C989 C980 1.395 . S
C989 C984 1.446 . S
C989 C988 1.497 . S
C990 C991 1.582 . S
C990 H1047 0.962 . S
C990 H1048 0.959 . S
C990 H1049 0.958 . S
C991 C990 1.582 . S
C991 O994 1.458 . S
C991 H1020 0.980 . S
O992 C937 1.426 . S
O992 C938 1.334 . S
O993 C965 1.412 . S
O993 C966 1.393 . S
O994 C956 1.435 . S
O994 C991 1.458 . S
O995 C947 1.468 . S
O995 C948 1.408 . S
H996 C937 0.980 . S
H997 C936 0.959 . S
H998 C936 0.959 . S
H999 C936 0.960 . S
H1000 C939 0.929 . S
H1001 C943 0.929 . S
H1002 C944 0.959 . S
H1003 C944 0.961 . S
H1004 C944 0.961 . S
H1005 C945 0.960 . S
H1006 C945 0.960 . S
H1007 C945 0.961 . S
H1008 C947 0.980 . S
H1009 C946 0.961 . S
H1010 C946 0.960 . S
H1011 C946 0.959 . S
H1012 C949 0.930 . S
H1013 C953 0.931 . S
H1014 C954 0.959 . S
H1015 C954 0.961 . S
H1016 C954 0.959 . S
H1017 C955 0.960 . S
H1018 C955 0.960 . S
H1019 C955 0.960 . S
H1020 C991 0.980 . S
H1021 C957 0.930 . S
H1022 C961 0.930 . S
H1023 C962 0.961 . S
H1024 C962 0.960 . S
H1025 C962 0.958 . S
H1026 C963 0.961 . S
H1027 C963 0.960 . S
H1028 C963 0.960 . S
H1029 C965 0.980 . S
H1030 C964 0.961 . S
H1031 C964 0.961 . S
H1032 C964 0.959 . S
H1033 C967 0.932 . S
H1034 C971 0.929 . S
H1035 C972 0.961 . S
H1036 C972 0.959 . S
H1037 C972 0.959 . S
H1038 C973 0.960 . S
H1039 C973 0.962 . S
H1040 C973 0.961 . S
H1041 C975 0.929 . S
H1042 C978 0.930 . S
H1043 C979 0.929 . S
H1044 C982 0.930 . S
H1045 C985 0.929 . S
H1046 C986 0.930 . S
H1047 C990 0.962 . S
H1048 C990 0.959 . S
H1049 C990 0.958 . S
C1050 C1051 1.560 . S
C1050 H1111 0.959 . S
C1050 H1112 0.959 . S
C1050 H1113 0.960 . S
C1051 C1050 1.560 . S
C1051 O1106 1.426 . S
C1051 H1110 0.980 . S
C1052 C1053 1.407 . S
C1052 C1057 1.418 . S
C1052 O1106 1.334 . S
C1053 C1052 1.407 . S
C1053 C1054 1.360 . S
C1053 H1114 0.929 . S
C1054 C1053 1.360 . S
C1054 C1055 1.401 . S
C1054 C1058 1.527 . S
C1055 C1054 1.401 . S
C1055 C1056 1.405 . S
C1055 C1088 1.587 . S
C1056 C1055 1.405 . S
C1056 C1057 1.332 . S
C1056 C1059 1.496 . S
C1057 C1052 1.418 . S
C1057 C1056 1.332 . S
C1057 H1115 0.929 . S
C1058 C1054 1.527 . S
C1058 H1116 0.959 . S
C1058 H1117 0.961 . S
C1058 H1118 0.961 . S
C1059 C1056 1.496 . S
C1059 H1119 0.960 . S
C1059 H1120 0.960 . S
C1059 H1121 0.961 . S
C1060 C1061 1.517 . S
C1060 H1123 0.961 . S
C1060 H1124 0.960 . S
C1060 H1125 0.959 . S
C1061 C1060 1.517 . S
C1061 O1109 1.468 . S
C1061 H1122 0.980 . S
C1062 C1063 1.349 . S
C1062 C1067 1.367 . S
C1062 O1109 1.408 . S
C1063 C1062 1.349 . S
C1063 C1064 1.407 . S
C1063 H1126 0.930 . S
C1064 C1063 1.407 . S
C1064 C1065 1.449 . S
C1064 C1068 1.535 . S
C1065 C1064 1.449 . S
C1065 C1066 1.384 . S
C1065 C1090 1.553 . S
C1066 C1065 1.384 . S
C1066 C1067 1.364 . S
C1066 C1069 1.450 . S
C1067 C1062 1.367 . S
C1067 C1066 1.364 . S
C1067 H1127 0.931 . S
C1068 C1064 1.535 . S
C1068 H1128 0.959 . S
C1068 H1129 0.961 . S
C1068 H1130 0.959 . S
C1069 C1066 1.450 . S
C1069 H1131 0.960 . S
C1069 H1132 0.960 . S
C1069 H1133 0.960 . S
C1070 C1071 1.309 . S
C1070 C1075 1.304 . S
C1070 O1108 1.435 . S
C1071 C1070 1.309 . S
C1071 C1072 1.476 . S
C1071 H1135 0.930 . S
C1072 C1071 1.476 . S
C1072 C1073 1.400 . S
C1072 C1076 1.567 . S
C1073 C1072 1.400 . S
C1073 C1074 1.373 . S
C1073 C1095 1.432 . S
C1074 C1073 1.373 . S
C1074 C1075 1.339 . S
C1074 C1077 1.530 . S
C1075 C1070 1.304 . S
C1075 C1074 1.339 . S
C1075 H1136 0.930 . S
C1076 C1072 1.567 . S
C1076 H1137 0.961 . S
C1076 H1138 0.960 . S
C1076 H1139 0.958 . S
C1077 C1074 1.530 . S
C1077 H1140 0.961 . S
C1077 H1141 0.960 . S
C1077 H1142 0.960 . S
C1078 C1079 1.530 . S
C1078 H1144 0.961 . S
C1078 H1145 0.961 . S
C1078 H1146 0.959 . S
C1079 C1078 1.530 . S
C1079 O1107 1.412 . S
C1079 H1143 0.980 . S
C1080 C1081 1.288 . S
C1080 C1085 1.377 . S
C1080 O1107 1.393 . S
C1081 C1080 1.288 . S
C1081 C1082 1.369 . S
C1081 H1147 0.932 . S
C1082 C1081 1.369 . S
C1082 C1083 1.398 . S
C1082 C1086 1.527 . S
C1083 C1082 1.398 . S
C1083 C1084 1.380 . S
C1083 C1097 1.497 . S
C1084 C1083 1.380 . S
C1084 C1085 1.383 . S
C1084 C1087 1.603 . S
C1085 C1080 1.377 . S
C1085 C1084 1.383 . S
C1085 H1148 0.929 . S
C1086 C1082 1.527 . S
C1086 H1149 0.961 . S
C1086 H1150 0.959 . S
C1086 H1151 0.959 . S
C1087 C1084 1.603 . S
C1087 H1152 0.960 . S
C1087 H1153 0.962 . S
C1087 H1154 0.961 . S
C1088 C1055 1.587 . S
C1088 C1089 1.360 . S
C1088 C1101 1.412 . S
C1089 C1088 1.360 . S
C1089 C1090 1.365 . S
C1089 H1155 0.929 . S
C1090 C1065 1.553 . S
C1090 C1089 1.365 . S
C1090 C1091 1.404 . S
C1091 C1090 1.404 . S
C1091 C1092 1.395 . S
C1091 C1102 1.451 . S
C1092 C1091 1.395 . S
C1092 C1093 1.322 . S
C1092 H1156 0.930 . S
C1093 C1092 1.322 . S
C1093 C1094 1.459 . S
C1093 H1157 0.929 . S
C1094 C1093 1.459 . S
C1094 C1095 1.445 . S
C1094 C1103 1.395 . S
C1095 C1073 1.432 . S
C1095 C1094 1.445 . S
C1095 C1096 1.370 . S
C1096 C1095 1.370 . S
C1096 C1097 1.438 . S
C1096 H1158 0.930 . S
C1097 C1083 1.497 . S
C1097 C1096 1.438 . S
C1097 C1098 1.360 . S
C1098 C1097 1.360 . S
C1098 C1099 1.401 . S
C1098 C1103 1.446 . S
C1099 C1098 1.401 . S
C1099 C1100 1.347 . S
C1099 H1159 0.929 . S
C1100 C1099 1.347 . S
C1100 C1101 1.455 . S
C1100 H1160 0.930 . S
C1101 C1088 1.412 . S
C1101 C1100 1.455 . S
C1101 C1102 1.331 . S
C1102 C1091 1.451 . S
C1102 C1101 1.331 . S
C1102 C1103 1.497 . S
C1103 C1094 1.395 . S
C1103 C1098 1.446 . S
C1103 C1102 1.497 . S
C1104 C1105 1.582 . S
C1104 H1161 0.962 . S
C1104 H1162 0.959 . S
C1104 H1163 0.958 . S
C1105 C1104 1.582 . S
C1105 O1108 1.458 . S
C1105 H1134 0.980 . S
O1106 C1051 1.426 . S
O1106 C1052 1.334 . S
O1107 C1079 1.412 . S
O1107 C1080 1.393 . S
O1108 C1070 1.435 . S
O1108 C1105 1.458 . S
O1109 C1061 1.468 . S
O1109 C1062 1.408 . S
H1110 C1051 0.980 . S
H1111 C1050 0.959 . S
H1112 C1050 0.959 . S
H1113 C1050 0.960 . S
H1114 C1053 0.929 . S
H1115 C1057 0.929 . S
H1116 C1058 0.959 . S
H1117 C1058 0.961 . S
H1118 C1058 0.961 . S
H1119 C1059 0.960 . S
H1120 C1059 0.960 . S
H1121 C1059 0.961 . S
H1122 C1061 0.980 . S
H1123 C1060 0.961 . S
H1124 C1060 0.960 . S
H1125 C1060 0.959 . S
H1126 C1063 0.930 . S
H1127 C1067 0.931 . S
H1128 C1068 0.959 . S
H1129 C1068 0.961 . S
H1130 C1068 0.959 . S
H1131 C1069 0.960 . S
H1132 C1069 0.960 . S
H1133 C1069 0.960 . S
H1134 C1105 0.980 . S
H1135 C1071 0.930 . S
H1136 C1075 0.930 . S
H1137 C1076 0.961 . S
H1138 C1076 0.960 . S
H1139 C1076 0.958 . S
H1140 C1077 0.961 . S
H1141 C1077 0.960 . S
H1142 C1077 0.960 . S
H1143 C1079 0.980 . S
H1144 C1078 0.961 . S
H1145 C1078 0.961 . S
H1146 C1078 0.959 . S
H1147 C1081 0.932 . S
H1148 C1085 0.929 . S
H1149 C1086 0.961 . S
H1150 C1086 0.959 . S
H1151 C1086 0.959 . S
H1152 C1087 0.960 . S
H1153 C1087 0.962 . S
H1154 C1087 0.961 . S
H1155 C1089 0.929 . S
H1156 C1092 0.930 . S
H1157 C1093 0.929 . S
H1158 C1096 0.930 . S
H1159 C1099 0.929 . S
H1160 C1100 0.930 . S
H1161 C1104 0.962 . S
H1162 C1104 0.959 . S
H1163 C1104 0.958 . S
C1164 C1165 1.560 . S
C1164 H1225 0.959 . S
C1164 H1226 0.959 . S
C1164 H1227 0.960 . S
C1165 C1164 1.560 . S
C1165 O1220 1.426 . S
C1165 H1224 0.980 . S
C1166 C1167 1.407 . S
C1166 C1171 1.418 . S
C1166 O1220 1.334 . S
C1167 C1166 1.407 . S
C1167 C1168 1.360 . S
C1167 H1228 0.929 . S
C1168 C1167 1.360 . S
C1168 C1169 1.401 . S
C1168 C1172 1.527 . S
C1169 C1168 1.401 . S
C1169 C1170 1.405 . S
C1169 C1202 1.587 . S
C1170 C1169 1.405 . S
C1170 C1171 1.332 . S
C1170 C1173 1.496 . S
C1171 C1166 1.418 . S
C1171 C1170 1.332 . S
C1171 H1229 0.929 . S
C1172 C1168 1.527 . S
C1172 H1230 0.959 . S
C1172 H1231 0.961 . S
C1172 H1232 0.961 . S
C1173 C1170 1.496 . S
C1173 H1233 0.960 . S
C1173 H1234 0.960 . S
C1173 H1235 0.961 . S
C1174 C1175 1.517 . S
C1174 H1237 0.961 . S
C1174 H1238 0.960 . S
C1174 H1239 0.959 . S
C1175 C1174 1.517 . S
C1175 O1223 1.468 . S
C1175 H1236 0.980 . S
C1176 C1177 1.349 . S
C1176 C1181 1.367 . S
C1176 O1223 1.408 . S
C1177 C1176 1.349 . S
C1177 C1178 1.407 . S
C1177 H1240 0.930 . S
C1178 C1177 1.407 . S
C1178 C1179 1.449 . S
C1178 C1182 1.535 . S
C1179 C1178 1.449 . S
C1179 C1180 1.384 . S
C1179 C1204 1.553 . S
C1180 C1179 1.384 . S
C1180 C1181 1.364 . S
C1180 C1183 1.450 . S
C1181 C1176 1.367 . S
C1181 C1180 1.364 . S
C1181 H1241 0.931 . S
C1182 C1178 1.535 . S
C1182 H1242 0.959 . S
C1182 H1243 0.961 . S
C1182 H1244 0.959 . S
C1183 C1180 1.450 . S
C1183 H1245 0.960 . S
C1183 H1246 0.960 . S
C1183 H1247 0.960 . S
C1184 C1185 1.309 . S
C1184 C1189 1.304 . S
C1184 O1222 1.435 . S
C1185 C1184 1.309 . S
C1185 C1186 1.476 . S
C1185 H1249 0.930 . S
C1186 C1185 1.476 . S
C1186 C1187 1.400 . S
C1186 C1190 1.567 . S
C1187 C1186 1.400 . S
C1187 C1188 1.373 . S
C1187 C1209 1.432 . S
C1188 C1187 1.373 . S
C1188 C1189 1.339 . S
C1188 C1191 1.530 . S
C1189 C1184 1.304 . S
C1189 C1188 1.339 . S
C1189 H1250 0.930 . S
C1190 C1186 1.567 . S
C1190 H1251 0.961 . S
C1190 H1252 0.960 . S
C1190 H1253 0.958 . S
C1191 C1188 1.530 . S
C1191 H1254 0.961 . S
C1191 H1255 0.960 . S
C1191 H1256 0.960 . S
C1192 C1193 1.530 . S
C1192 H1258 0.961 . S
C1192 H1259 0.961 . S
C1192 H1260 0.959 . S
C1193 C1192 1.530 . S
C1193 O1221 1.412 . S
C1193 H1257 0.980 . S
C1194 C1195 1.288 . S
C1194 C1199 1.377 . S
C1194 O1221 1.393 . S
C1195 C1194 1.288 . S
C1195 C1196 1.369 . S
C1195 H1261 0.932 . S
C1196 C1195 1.369 . S
C1196 C1197 1.398 . S
C1196 C1200 1.527 . S
C1197 C1196 1.398 . S
C1197 C1198 1.380 . S
C1197 C1211 1.497 . S
C1198 C1197 1.380 . S
C1198 C1199 1.383 . S
C1198 C1201 1.603 . S
C1199 C1194 1.377 . S
C1199 C1198 1.383 . S
C1199 H1262 0.929 . S
C1200 C1196 1.527 . S
C1200 H1263 0.961 . S
C1200 H1264 0.959 . S
C1200 H1265 0.959 . S
C1201 C1198 1.603 . S
C1201 H1266 0.960 . S
C1201 H1267 0.962 . S
C1201 H1268 0.961 . S
C1202 C1169 1.587 . S
C1202 C1203 1.360 . S
C1202 C1215 1.412 . S
C1203 C1202 1.360 . S
C1203 C1204 1.365 . S
C1203 H1269 0.929 . S
C1204 C1179 1.553 . S
C1204 C1203 1.365 . S
C1204 C1205 1.404 . S
C1205 C1204 1.404 . S
C1205 C1206 1.395 . S
C1205 C1216 1.451 . S
C1206 C1205 1.395 . S
C1206 C1207 1.322 . S
C1206 H1270 0.930 . S
C1207 C1206 1.322 . S
C1207 C1208 1.459 . S
C1207 H1271 0.929 . S
C1208 C1207 1.459 . S
C1208 C1209 1.445 . S
C1208 C1217 1.395 . S
C1209 C1187 1.432 . S
C1209 C1208 1.445 . S
C1209 C1210 1.370 . S
C1210 C1209 1.370 . S
C1210 C1211 1.438 . S
C1210 H1272 0.930 . S
C1211 C1197 1.497 . S
C1211 C1210 1.438 . S
C1211 C1212 1.360 . S
C1212 C1211 1.360 . S
C1212 C1213 1.401 . S
C1212 C1217 1.446 . S
C1213 C1212 1.401 . S
C1213 C1214 1.347 . S
C1213 H1273 0.929 . S
C1214 C1213 1.347 . S
C1214 C1215 1.455 . S
C1214 H1274 0.930 . S
C1215 C1202 1.412 . S
C1215 C1214 1.455 . S
C1215 C1216 1.331 . S
C1216 C1205 1.451 . S
C1216 C1215 1.331 . S
C1216 C1217 1.497 . S
C1217 C1208 1.395 . S
C1217 C1212 1.446 . S
C1217 C1216 1.497 . S
C1218 C1219 1.582 . S
C1218 H1275 0.962 . S
C1218 H1276 0.959 . S
C1218 H1277 0.958 . S
C1219 C1218 1.582 . S
C1219 O1222 1.458 . S
C1219 H1248 0.980 . S
O1220 C1165 1.426 . S
O1220 C1166 1.334 . S
O1221 C1193 1.412 . S
O1221 C1194 1.393 . S
O1222 C1184 1.435 . S
O1222 C1219 1.458 . S
O1223 C1175 1.468 . S
O1223 C1176 1.408 . S
H1224 C1165 0.980 . S
H1225 C1164 0.959 . S
H1226 C1164 0.959 . S
H1227 C1164 0.960 . S
H1228 C1167 0.929 . S
H1229 C1171 0.929 . S
H1230 C1172 0.959 . S
H1231 C1172 0.961 . S
H1232 C1172 0.961 . S
H1233 C1173 0.960 . S
H1234 C1173 0.960 . S
H1235 C1173 0.961 . S
H1236 C1175 0.980 . S
H1237 C1174 0.961 . S
H1238 C1174 0.960 . S
H1239 C1174 0.959 . S
H1240 C1177 0.930 . S
H1241 C1181 0.931 . S
H1242 C1182 0.959 . S
H1243 C1182 0.961 . S
H1244 C1182 0.959 . S
H1245 C1183 0.960 . S
H1246 C1183 0.960 . S
H1247 C1183 0.960 . S
H1248 C1219 0.980 . S
H1249 C1185 0.930 . S
H1250 C1189 0.930 . S
H1251 C1190 0.961 . S
H1252 C1190 0.960 . S
H1253 C1190 0.958 . S
H1254 C1191 0.961 . S
H1255 C1191 0.960 . S
H1256 C1191 0.960 . S
H1257 C1193 0.980 . S
H1258 C1192 0.961 . S
H1259 C1192 0.961 . S
H1260 C1192 0.959 . S
H1261 C1195 0.932 . S
H1262 C1199 0.929 . S
H1263 C1200 0.961 . S
H1264 C1200 0.959 . S
H1265 C1200 0.959 . S
H1266 C1201 0.960 . S
H1267 C1201 0.962 . S
H1268 C1201 0.961 . S
H1269 C1203 0.929 . S
H1270 C1206 0.930 . S
H1271 C1207 0.929 . S
H1272 C1210 0.930 . S
H1273 C1213 0.929 . S
H1274 C1214 0.930 . S
H1275 C1218 0.962 . S
H1276 C1218 0.959 . S
H1277 C1218 0.958 . S
C1278 C1279 1.560 . S
C1278 H1339 0.959 . S
C1278 H1340 0.959 . S
C1278 H1341 0.960 . S
C1279 C1278 1.560 . S
C1279 O1334 1.426 . S
C1279 H1338 0.980 . S
C1280 C1281 1.407 1_455 S
C1280 C1285 1.418 . S
C1280 O1334 1.334 . S
C1281 C1280 1.407 1_655 S
C1281 C1282 1.360 . S
C1281 H1342 0.929 . S
C1282 C1281 1.360 . S
C1282 C1283 1.401 1_655 S
C1282 C1286 1.527 . S
C1283 C1282 1.401 1_455 S
C1283 C1284 1.405 . S
C1283 C1316 1.587 1_455 S
C1284 C1283 1.405 . S
C1284 C1285 1.332 . S
C1284 C1287 1.496 . S
C1285 C1280 1.418 . S
C1285 C1284 1.332 . S
C1285 H1343 0.929 . S
C1286 C1282 1.527 . S
C1286 H1344 0.959 . S
C1286 H1345 0.961 . S
C1286 H1346 0.961 . S
C1287 C1284 1.496 . S
C1287 H1347 0.960 . S
C1287 H1348 0.960 . S
C1287 H1349 0.961 . S
C1288 C1289 1.517 . S
C1288 H1351 0.961 . S
C1288 H1352 0.960 . S
C1288 H1353 0.959 . S
C1289 C1288 1.517 . S
C1289 O1337 1.468 . S
C1289 H1350 0.980 1_655 S
C1290 C1291 1.349 . S
C1290 C1295 1.367 . S
C1290 O1337 1.408 . S
C1291 C1290 1.349 . S
C1291 C1292 1.407 1_655 S
C1291 H1354 0.930 1_655 S
C1292 C1291 1.407 1_455 S
C1292 C1293 1.449 1_455 S
C1292 C1296 1.535 . S
C1293 C1292 1.449 1_655 S
C1293 C1294 1.384 . S
C1293 C1318 1.553 . S
C1294 C1293 1.384 . S
C1294 C1295 1.364 . S
C1294 C1297 1.450 . S
C1295 C1290 1.367 . S
C1295 C1294 1.364 . S
C1295 H1355 0.931 . S
C1296 C1292 1.535 . S
C1296 H1356 0.959 . S
C1296 H1357 0.961 . S
C1296 H1358 0.959 . S
C1297 C1294 1.450 . S
C1297 H1359 0.960 . S
C1297 H1360 0.960 . S
C1297 H1361 0.960 . S
C1298 C1299 1.309 . S
C1298 C1303 1.304 . S
C1298 O1336 1.435 . S
C1299 C1298 1.309 . S
C1299 C1300 1.472 . S
C1299 H1363 0.930 1_655 S
C1300 C1299 1.472 . S
C1300 C1301 1.398 . S
C1300 C1304 1.572 1_655 S
C1301 C1300 1.398 . S
C1301 C1302 1.373 . S
C1301 C1323 1.432 . S
C1302 C1301 1.373 . S
C1302 C1303 1.339 . S
C1302 C1305 1.530 . S
C1303 C1298 1.304 . S
C1303 C1302 1.339 . S
C1303 H1364 0.930 . S
C1304 C1300 1.572 1_455 S
C1304 H1365 0.961 . S
C1304 H1366 0.960 . S
C1304 H1367 0.958 . S
C1305 C1302 1.530 . S
C1305 H1368 0.961 . S
C1305 H1369 0.960 . S
C1305 H1370 0.960 . S
C1306 C1307 1.527 . S
C1306 H1372 0.961 . S
C1306 H1373 0.961 . S
C1306 H1374 0.959 . S
C1307 C1306 1.527 . S
C1307 O1335 1.411 . S
C1307 H1371 0.981 1_455 S
C1308 C1309 1.288 . S
C1308 C1313 1.377 1_455 S
C1308 O1335 1.393 . S
C1309 C1308 1.288 . S
C1309 C1310 1.369 . S
C1309 H1375 0.932 . S
C1310 C1309 1.369 . S
C1310 C1311 1.398 1_455 S
C1310 C1314 1.527 . S
C1311 C1310 1.398 1_655 S
C1311 C1312 1.380 . S
C1311 C1325 1.497 . S
C1312 C1311 1.380 . S
C1312 C1313 1.383 . S
C1312 C1315 1.603 . S
C1313 C1308 1.377 1_655 S
C1313 C1312 1.383 . S
C1313 H1376 0.929 . S
C1314 C1310 1.527 . S
C1314 H1377 0.961 . S
C1314 H1378 0.959 . S
C1314 H1379 0.959 . S
C1315 C1312 1.603 . S
C1315 H1380 0.960 . S
C1315 H1381 0.962 . S
C1315 H1382 0.961 . S
C1316 C1283 1.587 1_655 S
C1316 C1317 1.360 . S
C1316 C1329 1.412 . S
C1317 C1316 1.360 . S
C1317 C1318 1.365 . S
C1317 H1383 0.929 . S
C1318 C1293 1.553 . S
C1318 C1317 1.365 . S
C1318 C1319 1.404 . S
C1319 C1318 1.404 . S
C1319 C1320 1.395 . S
C1319 C1330 1.451 . S
C1320 C1319 1.395 . S
C1320 C1321 1.322 . S
C1320 H1384 0.930 . S
C1321 C1320 1.322 . S
C1321 C1322 1.459 . S
C1321 H1385 0.929 . S
C1322 C1321 1.459 . S
C1322 C1323 1.445 . S
C1322 C1331 1.395 . S
C1323 C1301 1.432 . S
C1323 C1322 1.445 . S
C1323 C1324 1.370 . S
C1324 C1323 1.370 . S
C1324 C1325 1.438 . S
C1324 H1386 0.930 . S
C1325 C1311 1.497 . S
C1325 C1324 1.438 . S
C1325 C1326 1.360 . S
C1326 C1325 1.360 . S
C1326 C1327 1.401 . S
C1326 C1331 1.446 . S
C1327 C1326 1.401 . S
C1327 C1328 1.347 . S
C1327 H1387 0.929 . S
C1328 C1327 1.347 . S
C1328 C1329 1.455 . S
C1328 H1388 0.930 . S
C1329 C1316 1.412 . S
C1329 C1328 1.455 . S
C1329 C1330 1.331 . S
C1330 C1319 1.451 . S
C1330 C1329 1.331 . S
C1330 C1331 1.497 . S
C1331 C1322 1.395 . S
C1331 C1326 1.446 . S
C1331 C1330 1.497 . S
C1332 C1333 1.582 . S
C1332 H1389 0.962 . S
C1332 H1390 0.959 . S
C1332 H1391 0.958 . S
C1333 C1332 1.582 . S
C1333 O1336 1.458 . S
C1333 H1362 0.980 . S
O1334 C1279 1.426 . S
O1334 C1280 1.334 . S
O1335 C1307 1.411 . S
O1335 C1308 1.393 . S
O1336 C1298 1.435 . S
O1336 C1333 1.458 . S
O1337 C1289 1.468 . S
O1337 C1290 1.408 . S
H1338 C1279 0.980 . S
H1339 C1278 0.959 . S
H1340 C1278 0.959 . S
H1341 C1278 0.960 . S
H1342 C1281 0.929 . S
H1343 C1285 0.929 . S
H1344 C1286 0.959 . S
H1345 C1286 0.961 . S
H1346 C1286 0.961 . S
H1347 C1287 0.960 . S
H1348 C1287 0.960 . S
H1349 C1287 0.961 . S
H1350 C1289 0.980 1_455 S
H1351 C1288 0.961 . S
H1352 C1288 0.960 . S
H1353 C1288 0.959 . S
H1354 C1291 0.930 1_455 S
H1355 C1295 0.931 . S
H1356 C1296 0.959 . S
H1357 C1296 0.961 . S
H1358 C1296 0.959 . S
H1359 C1297 0.960 . S
H1360 C1297 0.960 . S
H1361 C1297 0.960 . S
H1362 C1333 0.980 . S
H1363 C1299 0.930 1_455 S
H1364 C1303 0.930 . S
H1365 C1304 0.961 . S
H1366 C1304 0.960 . S
H1367 C1304 0.958 . S
H1368 C1305 0.961 . S
H1369 C1305 0.960 . S
H1370 C1305 0.960 . S
H1371 C1307 0.981 1_655 S
H1372 C1306 0.961 . S
H1373 C1306 0.961 . S
H1374 C1306 0.959 . S
H1375 C1309 0.932 . S
H1376 C1313 0.929 . S
H1377 C1314 0.961 . S
H1378 C1314 0.959 . S
H1379 C1314 0.959 . S
H1380 C1315 0.960 . S
H1381 C1315 0.962 . S
H1382 C1315 0.961 . S
H1383 C1317 0.929 . S
H1384 C1320 0.930 . S
H1385 C1321 0.929 . S
H1386 C1324 0.930 . S
H1387 C1327 0.929 . S
H1388 C1328 0.930 . S
H1389 C1332 0.962 . S
H1390 C1332 0.959 . S
H1391 C1332 0.958 . S
C1392 C1393 1.560 . S
C1392 H1453 0.959 . S
C1392 H1454 0.959 . S
C1392 H1455 0.960 . S
C1393 C1392 1.560 . S
C1393 O1448 1.426 . S
C1393 H1452 0.980 . S
C1394 C1395 1.407 . S
C1394 C1399 1.418 . S
C1394 O1448 1.334 . S
C1395 C1394 1.407 . S
C1395 C1396 1.360 . S
C1395 H1456 0.929 . S
C1396 C1395 1.360 . S
C1396 C1397 1.401 . S
C1396 C1400 1.527 . S
C1397 C1396 1.401 . S
C1397 C1398 1.405 . S
C1397 C1430 1.587 . S
C1398 C1397 1.405 . S
C1398 C1399 1.332 . S
C1398 C1401 1.496 . S
C1399 C1394 1.418 . S
C1399 C1398 1.332 . S
C1399 H1457 0.929 . S
C1400 C1396 1.527 . S
C1400 H1458 0.959 . S
C1400 H1459 0.961 . S
C1400 H1460 0.961 . S
C1401 C1398 1.496 . S
C1401 H1461 0.960 . S
C1401 H1462 0.960 . S
C1401 H1463 0.961 . S
C1402 C1403 1.517 . S
C1402 H1465 0.961 . S
C1402 H1466 0.960 . S
C1402 H1467 0.959 . S
C1403 C1402 1.517 . S
C1403 O1451 1.468 . S
C1403 H1464 0.980 . S
C1404 C1405 1.349 . S
C1404 C1409 1.367 . S
C1404 O1451 1.408 . S
C1405 C1404 1.349 . S
C1405 C1406 1.407 . S
C1405 H1468 0.930 . S
C1406 C1405 1.407 . S
C1406 C1407 1.449 . S
C1406 C1410 1.535 . S
C1407 C1406 1.449 . S
C1407 C1408 1.384 . S
C1407 C1432 1.553 . S
C1408 C1407 1.384 . S
C1408 C1409 1.364 . S
C1408 C1411 1.450 . S
C1409 C1404 1.367 . S
C1409 C1408 1.364 . S
C1409 H1469 0.931 . S
C1410 C1406 1.535 . S
C1410 H1470 0.959 . S
C1410 H1471 0.961 . S
C1410 H1472 0.959 . S
C1411 C1408 1.450 . S
C1411 H1473 0.960 . S
C1411 H1474 0.960 . S
C1411 H1475 0.960 . S
C1412 C1413 1.309 . S
C1412 C1417 1.304 . S
C1412 O1450 1.435 . S
C1413 C1412 1.309 . S
C1413 C1414 1.476 . S
C1413 H1477 0.930 . S
C1414 C1413 1.476 . S
C1414 C1415 1.400 . S
C1414 C1418 1.567 . S
C1415 C1414 1.400 . S
C1415 C1416 1.373 . S
C1415 C1437 1.432 . S
C1416 C1415 1.373 . S
C1416 C1417 1.339 . S
C1416 C1419 1.530 . S
C1417 C1412 1.304 . S
C1417 C1416 1.339 . S
C1417 H1478 0.930 . S
C1418 C1414 1.567 . S
C1418 H1479 0.961 . S
C1418 H1480 0.960 . S
C1418 H1481 0.958 . S
C1419 C1416 1.530 . S
C1419 H1482 0.961 . S
C1419 H1483 0.960 . S
C1419 H1484 0.960 . S
C1420 C1421 1.530 . S
C1420 H1486 0.961 . S
C1420 H1487 0.961 . S
C1420 H1488 0.959 . S
C1421 C1420 1.530 . S
C1421 O1449 1.412 . S
C1421 H1485 0.980 . S
C1422 C1423 1.288 . S
C1422 C1427 1.377 . S
C1422 O1449 1.393 . S
C1423 C1422 1.288 . S
C1423 C1424 1.369 . S
C1423 H1489 0.932 . S
C1424 C1423 1.369 . S
C1424 C1425 1.398 . S
C1424 C1428 1.527 . S
C1425 C1424 1.398 . S
C1425 C1426 1.380 . S
C1425 C1439 1.497 . S
C1426 C1425 1.380 . S
C1426 C1427 1.383 . S
C1426 C1429 1.603 . S
C1427 C1422 1.377 . S
C1427 C1426 1.383 . S
C1427 H1490 0.929 . S
C1428 C1424 1.527 . S
C1428 H1491 0.961 . S
C1428 H1492 0.959 . S
C1428 H1493 0.959 . S
C1429 C1426 1.603 . S
C1429 H1494 0.960 . S
C1429 H1495 0.962 . S
C1429 H1496 0.961 . S
C1430 C1397 1.587 . S
C1430 C1431 1.360 . S
C1430 C1443 1.412 . S
C1431 C1430 1.360 . S
C1431 C1432 1.365 . S
C1431 H1497 0.929 . S
C1432 C1407 1.553 . S
C1432 C1431 1.365 . S
C1432 C1433 1.404 . S
C1433 C1432 1.404 . S
C1433 C1434 1.395 . S
C1433 C1444 1.451 . S
C1434 C1433 1.395 . S
C1434 C1435 1.322 . S
C1434 H1498 0.930 . S
C1435 C1434 1.322 . S
C1435 C1436 1.459 . S
C1435 H1499 0.929 . S
C1436 C1435 1.459 . S
C1436 C1437 1.445 . S
C1436 C1445 1.395 . S
C1437 C1415 1.432 . S
C1437 C1436 1.445 . S
C1437 C1438 1.370 . S
C1438 C1437 1.370 . S
C1438 C1439 1.438 . S
C1438 H1500 0.930 . S
C1439 C1425 1.497 . S
C1439 C1438 1.438 . S
C1439 C1440 1.360 . S
C1440 C1439 1.360 . S
C1440 C1441 1.401 . S
C1440 C1445 1.446 . S
C1441 C1440 1.401 . S
C1441 C1442 1.347 . S
C1441 H1501 0.929 . S
C1442 C1441 1.347 . S
C1442 C1443 1.455 . S
C1442 H1502 0.930 . S
C1443 C1430 1.412 . S
C1443 C1442 1.455 . S
C1443 C1444 1.331 . S
C1444 C1433 1.451 . S
C1444 C1443 1.331 . S
C1444 C1445 1.497 . S
C1445 C1436 1.395 . S
C1445 C1440 1.446 . S
C1445 C1444 1.497 . S
C1446 C1447 1.582 . S
C1446 H1503 0.962 . S
C1446 H1504 0.959 . S
C1446 H1505 0.958 . S
C1447 C1446 1.582 . S
C1447 O1450 1.458 . S
C1447 H1476 0.980 . S
O1448 C1393 1.426 . S
O1448 C1394 1.334 . S
O1449 C1421 1.412 . S
O1449 C1422 1.393 . S
O1450 C1412 1.435 . S
O1450 C1447 1.458 . S
O1451 C1403 1.468 . S
O1451 C1404 1.408 . S
H1452 C1393 0.980 . S
H1453 C1392 0.959 . S
H1454 C1392 0.959 . S
H1455 C1392 0.960 . S
H1456 C1395 0.929 . S
H1457 C1399 0.929 . S
H1458 C1400 0.959 . S
H1459 C1400 0.961 . S
H1460 C1400 0.961 . S
H1461 C1401 0.960 . S
H1462 C1401 0.960 . S
H1463 C1401 0.961 . S
H1464 C1403 0.980 . S
H1465 C1402 0.961 . S
H1466 C1402 0.960 . S
H1467 C1402 0.959 . S
H1468 C1405 0.930 . S
H1469 C1409 0.931 . S
H1470 C1410 0.959 . S
H1471 C1410 0.961 . S
H1472 C1410 0.959 . S
H1473 C1411 0.960 . S
H1474 C1411 0.960 . S
H1475 C1411 0.960 . S
H1476 C1447 0.980 . S
H1477 C1413 0.930 . S
H1478 C1417 0.930 . S
H1479 C1418 0.961 . S
H1480 C1418 0.960 . S
H1481 C1418 0.958 . S
H1482 C1419 0.961 . S
H1483 C1419 0.960 . S
H1484 C1419 0.960 . S
H1485 C1421 0.980 . S
H1486 C1420 0.961 . S
H1487 C1420 0.961 . S
H1488 C1420 0.959 . S
H1489 C1423 0.932 . S
H1490 C1427 0.929 . S
H1491 C1428 0.961 . S
H1492 C1428 0.959 . S
H1493 C1428 0.959 . S
H1494 C1429 0.960 . S
H1495 C1429 0.962 . S
H1496 C1429 0.961 . S
H1497 C1431 0.929 . S
H1498 C1434 0.930 . S
H1499 C1435 0.929 . S
H1500 C1438 0.930 . S
H1501 C1441 0.929 . S
H1502 C1442 0.930 . S
H1503 C1446 0.962 . S
H1504 C1446 0.959 . S
H1505 C1446 0.958 . S
C1506 C1507 1.560 . S
C1506 H1567 0.959 . S
C1506 H1568 0.959 . S
C1506 H1569 0.960 . S
C1507 C1506 1.560 . S
C1507 O1562 1.426 . S
C1507 H1566 0.980 . S
C1508 C1509 1.407 1_565 S
C1508 C1513 1.418 . S
C1508 O1562 1.334 . S
C1509 C1508 1.407 1_545 S
C1509 C1510 1.360 . S
C1509 H1570 0.929 . S
C1510 C1509 1.360 . S
C1510 C1511 1.401 1_545 S
C1510 C1514 1.527 . S
C1511 C1510 1.401 1_565 S
C1511 C1512 1.405 . S
C1511 C1544 1.587 1_565 S
C1512 C1511 1.405 . S
C1512 C1513 1.332 . S
C1512 C1515 1.496 . S
C1513 C1508 1.418 . S
C1513 C1512 1.332 . S
C1513 H1571 0.929 . S
C1514 C1510 1.527 . S
C1514 H1572 0.959 . S
C1514 H1573 0.961 . S
C1514 H1574 0.961 . S
C1515 C1512 1.496 . S
C1515 H1575 0.960 . S
C1515 H1576 0.960 . S
C1515 H1577 0.961 . S
C1516 C1517 1.517 . S
C1516 H1579 0.961 1_545 S
C1516 H1580 0.960 . S
C1516 H1581 0.959 . S
C1517 C1516 1.517 . S
C1517 O1565 1.468 . S
C1517 H1578 0.980 1_545 S
C1518 C1519 1.348 1_545 S
C1518 C1523 1.367 . S
C1518 O1565 1.408 . S
C1519 C1518 1.348 1_565 S
C1519 C1520 1.407 . S
C1519 H1582 0.933 . S
C1520 C1519 1.407 . S
C1520 C1521 1.449 1_565 S
C1520 C1524 1.535 . S
C1521 C1520 1.449 1_545 S
C1521 C1522 1.384 . S
C1521 C1546 1.553 . S
C1522 C1521 1.384 . S
C1522 C1523 1.364 . S
C1522 C1525 1.450 . S
C1523 C1518 1.367 . S
C1523 C1522 1.364 . S
C1523 H1583 0.931 . S
C1524 C1520 1.535 . S
C1524 H1584 0.959 . S
C1524 H1585 0.961 . S
C1524 H1586 0.959 . S
C1525 C1522 1.450 . S
C1525 H1587 0.960 . S
C1525 H1588 0.960 . S
C1525 H1589 0.960 . S
C1526 C1527 1.309 . S
C1526 C1531 1.304 . S
C1526 O1564 1.435 . S
C1527 C1526 1.309 . S
C1527 C1528 1.476 1_545 S
C1527 H1591 0.930 1_545 S
C1528 C1527 1.476 1_565 S
C1528 C1529 1.400 1_565 S
C1528 C1532 1.567 . S
C1529 C1528 1.400 1_545 S
C1529 C1530 1.373 . S
C1529 C1551 1.432 . S
C1530 C1529 1.373 . S
C1530 C1531 1.339 . S
C1530 C1533 1.530 . S
C1531 C1526 1.304 . S
C1531 C1530 1.339 . S
C1531 H1592 0.930 . S
C1532 C1528 1.567 . S
C1532 H1593 0.961 . S
C1532 H1594 0.960 . S
C1532 H1595 0.958 . S
C1533 C1530 1.530 . S
C1533 H1596 0.961 . S
C1533 H1597 0.960 . S
C1533 H1598 0.960 . S
C1534 C1535 1.530 1_565 S
C1534 H1600 0.961 . S
C1534 H1601 0.961 . S
C1534 H1602 0.959 . S
C1535 C1534 1.530 1_545 S
C1535 O1563 1.412 1_545 S
C1535 H1599 0.980 . S
C1536 C1537 1.288 . S
C1536 C1541 1.377 1_565 S
C1536 O1563 1.393 . S
C1537 C1536 1.288 . S
C1537 C1538 1.369 . S
C1537 H1603 0.932 . S
C1538 C1537 1.369 . S
C1538 C1539 1.398 1_565 S
C1538 C1542 1.527 . S
C1539 C1538 1.398 1_545 S
C1539 C1540 1.380 . S
C1539 C1553 1.497 . S
C1540 C1539 1.380 . S
C1540 C1541 1.383 . S
C1540 C1543 1.603 . S
C1541 C1536 1.377 1_545 S
C1541 C1540 1.383 . S
C1541 H1604 0.929 . S
C1542 C1538 1.527 . S
C1542 H1605 0.961 . S
C1542 H1606 0.959 . S
C1542 H1607 0.959 . S
C1543 C1540 1.603 . S
C1543 H1608 0.960 . S
C1543 H1609 0.962 . S
C1543 H1610 0.961 . S
C1544 C1511 1.587 1_545 S
C1544 C1545 1.360 . S
C1544 C1557 1.412 . S
C1545 C1544 1.360 . S
C1545 C1546 1.365 . S
C1545 H1611 0.929 . S
C1546 C1521 1.553 . S
C1546 C1545 1.365 . S
C1546 C1547 1.404 . S
C1547 C1546 1.404 . S
C1547 C1548 1.395 . S
C1547 C1558 1.451 . S
C1548 C1547 1.395 . S
C1548 C1549 1.322 . S
C1548 H1612 0.930 . S
C1549 C1548 1.322 . S
C1549 C1550 1.459 . S
C1549 H1613 0.929 . S
C1550 C1549 1.459 . S
C1550 C1551 1.445 . S
C1550 C1559 1.395 . S
C1551 C1529 1.432 . S
C1551 C1550 1.445 . S
C1551 C1552 1.370 . S
C1552 C1551 1.370 . S
C1552 C1553 1.438 . S
C1552 H1614 0.930 . S
C1553 C1539 1.497 . S
C1553 C1552 1.438 . S
C1553 C1554 1.360 . S
C1554 C1553 1.360 . S
C1554 C1555 1.401 . S
C1554 C1559 1.446 . S
C1555 C1554 1.401 . S
C1555 C1556 1.347 . S
C1555 H1615 0.929 . S
C1556 C1555 1.347 . S
C1556 C1557 1.455 . S
C1556 H1616 0.930 . S
C1557 C1544 1.412 . S
C1557 C1556 1.455 . S
C1557 C1558 1.331 . S
C1558 C1547 1.451 . S
C1558 C1557 1.331 . S
C1558 C1559 1.497 . S
C1559 C1550 1.395 . S
C1559 C1554 1.446 . S
C1559 C1558 1.497 . S
C1560 C1561 1.582 . S
C1560 H1617 0.962 . S
C1560 H1618 0.959 . S
C1560 H1619 0.958 . S
C1561 C1560 1.582 . S
C1561 O1564 1.458 . S
C1561 H1590 0.980 . S
O1562 C1507 1.426 . S
O1562 C1508 1.334 . S
O1563 C1535 1.412 1_565 S
O1563 C1536 1.393 . S
O1564 C1526 1.435 . S
O1564 C1561 1.458 . S
O1565 C1517 1.468 . S
O1565 C1518 1.408 . S
H1566 C1507 0.980 . S
H1567 C1506 0.959 . S
H1568 C1506 0.959 . S
H1569 C1506 0.960 . S
H1570 C1509 0.929 . S
H1571 C1513 0.929 . S
H1572 C1514 0.959 . S
H1573 C1514 0.961 . S
H1574 C1514 0.961 . S
H1575 C1515 0.960 . S
H1576 C1515 0.960 . S
H1577 C1515 0.961 . S
H1578 C1517 0.980 1_565 S
H1579 C1516 0.961 1_565 S
H1580 C1516 0.960 . S
H1581 C1516 0.959 . S
H1582 C1519 0.933 . S
H1583 C1523 0.931 . S
H1584 C1524 0.959 . S
H1585 C1524 0.961 . S
H1586 C1524 0.959 . S
H1587 C1525 0.960 . S
H1588 C1525 0.960 . S
H1589 C1525 0.960 . S
H1590 C1561 0.980 . S
H1591 C1527 0.930 1_565 S
H1592 C1531 0.930 . S
H1593 C1532 0.961 . S
H1594 C1532 0.960 . S
H1595 C1532 0.958 . S
H1596 C1533 0.961 . S
H1597 C1533 0.960 . S
H1598 C1533 0.960 . S
H1599 C1535 0.980 . S
H1600 C1534 0.961 . S
H1601 C1534 0.961 . S
H1602 C1534 0.959 . S
H1603 C1537 0.932 . S
H1604 C1541 0.929 . S
H1605 C1542 0.961 . S
H1606 C1542 0.959 . S
H1607 C1542 0.959 . S
H1608 C1543 0.960 . S
H1609 C1543 0.962 . S
H1610 C1543 0.961 . S
H1611 C1545 0.929 . S
H1612 C1548 0.930 . S
H1613 C1549 0.929 . S
H1614 C1552 0.930 . S
H1615 C1555 0.929 . S
H1616 C1556 0.930 . S
H1617 C1560 0.962 . S
H1618 C1560 0.959 . S
H1619 C1560 0.958 . S
C1620 C1621 1.560 . S
C1620 H1681 0.959 . S
C1620 H1682 0.959 . S
C1620 H1683 0.960 . S
C1621 C1620 1.560 . S
C1621 O1676 1.426 . S
C1621 H1680 0.980 1_565 S
C1622 C1623 1.407 1_565 S
C1622 C1627 1.418 . S
C1622 O1676 1.334 . S
C1623 C1622 1.407 1_545 S
C1623 C1624 1.360 . S
C1623 H1684 0.929 . S
C1624 C1623 1.360 . S
C1624 C1625 1.401 . S
C1624 C1628 1.527 . S
C1625 C1624 1.401 . S
C1625 C1626 1.405 1_545 S
C1625 C1658 1.587 . S
C1626 C1625 1.405 1_565 S
C1626 C1627 1.332 . S
C1626 C1629 1.496 . S
C1627 C1622 1.418 . S
C1627 C1626 1.332 . S
C1627 H1685 0.929 . S
C1628 C1624 1.527 . S
C1628 H1686 0.959 . S
C1628 H1687 0.961 . S
C1628 H1688 0.961 . S
C1629 C1626 1.496 . S
C1629 H1689 0.960 . S
C1629 H1690 0.960 . S
C1629 H1691 0.961 . S
C1630 C1631 1.517 . S
C1630 H1693 0.961 . S
C1630 H1694 0.960 . S
C1630 H1695 0.959 . S
C1631 C1630 1.517 . S
C1631 O1679 1.468 . S
C1631 H1692 0.980 . S
C1632 C1633 1.349 . S
C1632 C1637 1.367 . S
C1632 O1679 1.408 . S
C1633 C1632 1.349 . S
C1633 C1634 1.407 . S
C1633 H1696 0.943 . S
C1634 C1633 1.407 . S
C1634 C1635 1.449 . S
C1634 C1638 1.535 1_545 S
C1635 C1634 1.449 . S
C1635 C1636 1.384 . S
C1635 C1660 1.553 . S
C1636 C1635 1.384 . S
C1636 C1637 1.364 . S
C1636 C1639 1.450 . S
C1637 C1632 1.367 . S
C1637 C1636 1.364 . S
C1637 H1697 0.931 . S
C1638 C1634 1.535 1_565 S
C1638 H1698 0.959 . S
C1638 H1699 0.961 . S
C1638 H1700 0.959 . S
C1639 C1636 1.450 . S
C1639 H1701 0.960 . S
C1639 H1702 0.960 . S
C1639 H1703 0.960 . S
C1640 C1641 1.309 1_545 S
C1640 C1645 1.304 . S
C1640 O1678 1.435 . S
C1641 C1640 1.309 1_565 S
C1641 C1642 1.476 . S
C1641 H1705 0.930 . S
C1642 C1641 1.476 . S
C1642 C1643 1.400 1_565 S
C1642 C1646 1.567 . S
C1643 C1642 1.400 1_545 S
C1643 C1644 1.373 . S
C1643 C1665 1.432 . S
C1644 C1643 1.373 . S
C1644 C1645 1.339 . S
C1644 C1647 1.530 . S
C1645 C1640 1.304 . S
C1645 C1644 1.339 . S
C1645 H1706 0.930 . S
C1646 C1642 1.567 . S
C1646 H1707 0.961 . S
C1646 H1708 0.960 . S
C1646 H1709 0.958 . S
C1647 C1644 1.530 . S
C1647 H1710 0.961 . S
C1647 H1711 0.960 . S
C1647 H1712 0.960 . S
C1648 C1649 1.530 . S
C1648 H1714 0.961 . S
C1648 H1715 0.961 . S
C1648 H1716 0.959 . S
C1649 C1648 1.530 . S
C1649 O1677 1.412 . S
C1649 H1713 0.980 . S
C1650 C1651 1.288 . S
C1650 C1655 1.377 1_565 S
C1650 O1677 1.393 . S
C1651 C1650 1.288 . S
C1651 C1652 1.369 . S
C1651 H1717 0.932 . S
C1652 C1651 1.369 . S
C1652 C1653 1.398 . S
C1652 C1656 1.527 . S
C1653 C1652 1.398 . S
C1653 C1654 1.380 1_565 S
C1653 C1667 1.497 1_565 S
C1654 C1653 1.380 1_545 S
C1654 C1655 1.383 . S
C1654 C1657 1.603 . S
C1655 C1650 1.377 1_545 S
C1655 C1654 1.383 . S
C1655 H1718 0.929 . S
C1656 C1652 1.527 . S
C1656 H1719 0.961 . S
C1656 H1720 0.959 . S
C1656 H1721 0.959 . S
C1657 C1654 1.603 . S
C1657 H1722 0.960 . S
C1657 H1723 0.962 . S
C1657 H1724 0.961 . S
C1658 C1625 1.587 . S
C1658 C1659 1.360 . S
C1658 C1671 1.412 . S
C1659 C1658 1.360 . S
C1659 C1660 1.365 . S
C1659 H1725 0.929 . S
C1660 C1635 1.553 . S
C1660 C1659 1.365 . S
C1660 C1661 1.404 . S
C1661 C1660 1.404 . S
C1661 C1662 1.395 . S
C1661 C1672 1.451 . S
C1662 C1661 1.395 . S
C1662 C1663 1.322 . S
C1662 H1726 0.930 . S
C1663 C1662 1.322 . S
C1663 C1664 1.459 . S
C1663 H1727 0.929 . S
C1664 C1663 1.459 . S
C1664 C1665 1.445 . S
C1664 C1673 1.395 . S
C1665 C1643 1.432 . S
C1665 C1664 1.445 . S
C1665 C1666 1.370 . S
C1666 C1665 1.370 . S
C1666 C1667 1.438 . S
C1666 H1728 0.930 . S
C1667 C1653 1.497 1_545 S
C1667 C1666 1.438 . S
C1667 C1668 1.360 . S
C1668 C1667 1.360 . S
C1668 C1669 1.401 . S
C1668 C1673 1.446 . S
C1669 C1668 1.401 . S
C1669 C1670 1.347 . S
C1669 H1729 0.933 . S
C1670 C1669 1.347 . S
C1670 C1671 1.455 . S
C1670 H1730 0.930 . S
C1671 C1658 1.412 . S
C1671 C1670 1.455 . S
C1671 C1672 1.331 . S
C1672 C1661 1.451 . S
C1672 C1671 1.331 . S
C1672 C1673 1.497 . S
C1673 C1664 1.395 . S
C1673 C1668 1.446 . S
C1673 C1672 1.497 . S
C1674 C1675 1.582 . S
C1674 H1731 0.962 . S
C1674 H1732 0.959 . S
C1674 H1733 0.958 . S
C1675 C1674 1.582 . S
C1675 O1678 1.458 . S
C1675 H1704 0.981 1_545 S
O1676 C1621 1.426 . S
O1676 C1622 1.334 . S
O1677 C1649 1.412 . S
O1677 C1650 1.393 . S
O1678 C1640 1.435 . S
O1678 C1675 1.458 . S
O1679 C1631 1.468 . S
O1679 C1632 1.408 . S
H1680 C1621 0.980 1_545 S
H1681 C1620 0.959 . S
H1682 C1620 0.959 . S
H1683 C1620 0.960 . S
H1684 C1623 0.929 . S
H1685 C1627 0.929 . S
H1686 C1628 0.959 . S
H1687 C1628 0.961 . S
H1688 C1628 0.961 . S
H1689 C1629 0.960 . S
H1690 C1629 0.960 . S
H1691 C1629 0.961 . S
H1692 C1631 0.980 . S
H1693 C1630 0.961 . S
H1694 C1630 0.960 . S
H1695 C1630 0.959 . S
H1696 C1633 0.943 . S
H1697 C1637 0.931 . S
H1698 C1638 0.959 . S
H1699 C1638 0.961 . S
H1700 C1638 0.959 . S
H1701 C1639 0.960 . S
H1702 C1639 0.960 . S
H1703 C1639 0.960 . S
H1704 C1675 0.981 1_565 S
H1705 C1641 0.930 . S
H1706 C1645 0.930 . S
H1707 C1646 0.961 . S
H1708 C1646 0.960 . S
H1709 C1646 0.958 . S
H1710 C1647 0.961 . S
H1711 C1647 0.960 . S
H1712 C1647 0.960 . S
H1713 C1649 0.980 . S
H1714 C1648 0.961 . S
H1715 C1648 0.961 . S
H1716 C1648 0.959 . S
H1717 C1651 0.932 . S
H1718 C1655 0.929 . S
H1719 C1656 0.961 . S
H1720 C1656 0.959 . S
H1721 C1656 0.959 . S
H1722 C1657 0.960 . S
H1723 C1657 0.962 . S
H1724 C1657 0.961 . S
H1725 C1659 0.929 . S
H1726 C1662 0.930 . S
H1727 C1663 0.929 . S
H1728 C1666 0.930 . S
H1729 C1669 0.933 . S
H1730 C1670 0.930 . S
H1731 C1674 0.962 . S
H1732 C1674 0.959 . S
H1733 C1674 0.958 . S
C1734 C1735 1.560 . S
C1734 H1795 0.959 . S
C1734 H1796 0.959 . S
C1734 H1797 0.960 . S
C1735 C1734 1.560 . S
C1735 O1790 1.426 . S
C1735 H1794 0.980 1_455 S
C1736 C1737 1.407 1_455 S
C1736 C1741 1.418 . S
C1736 O1790 1.334 . S
C1737 C1736 1.407 1_655 S
C1737 C1738 1.360 . S
C1737 H1798 0.929 . S
C1738 C1737 1.360 . S
C1738 C1739 1.401 . S
C1738 C1742 1.527 . S
C1739 C1738 1.401 . S
C1739 C1740 1.405 1_655 S
C1739 C1772 1.587 . S
C1740 C1739 1.405 1_455 S
C1740 C1741 1.332 . S
C1740 C1743 1.496 . S
C1741 C1736 1.418 . S
C1741 C1740 1.332 . S
C1741 H1799 0.929 . S
C1742 C1738 1.527 . S
C1742 H1800 0.959 . S
C1742 H1801 0.961 . S
C1742 H1802 0.961 . S
C1743 C1740 1.496 . S
C1743 H1803 0.960 . S
C1743 H1804 0.960 . S
C1743 H1805 0.961 . S
C1744 C1745 1.517 . S
C1744 H1807 0.961 . S
C1744 H1808 0.960 . S
C1744 H1809 0.959 . S
C1745 C1744 1.517 . S
C1745 O1793 1.468 . S
C1745 H1806 0.980 . S
C1746 C1747 1.349 . S
C1746 C1751 1.367 . S
C1746 O1793 1.408 . S
C1747 C1746 1.349 . S
C1747 C1748 1.407 . S
C1747 H1810 0.921 1_655 S
C1748 C1747 1.407 . S
C1748 C1749 1.449 . S
C1748 C1752 1.535 1_655 S
C1749 C1748 1.449 . S
C1749 C1750 1.384 . S
C1749 C1774 1.553 . S
C1750 C1749 1.384 . S
C1750 C1751 1.364 . S
C1750 C1753 1.450 . S
C1751 C1746 1.367 . S
C1751 C1750 1.364 . S
C1751 H1811 0.931 . S
C1752 C1748 1.535 1_455 S
C1752 H1812 0.959 . S
C1752 H1813 0.961 . S
C1752 H1814 0.959 . S
C1753 C1750 1.450 . S
C1753 H1815 0.960 . S
C1753 H1816 0.960 . S
C1753 H1817 0.960 . S
C1754 C1755 1.309 1_655 S
C1754 C1759 1.304 . S
C1754 O1792 1.435 . S
C1755 C1754 1.309 1_455 S
C1755 C1756 1.476 . S
C1755 H1819 0.930 . S
C1756 C1755 1.476 . S
C1756 C1757 1.400 1_455 S
C1756 C1760 1.567 . S
C1757 C1756 1.400 1_655 S
C1757 C1758 1.373 . S
C1757 C1779 1.432 . S
C1758 C1757 1.373 . S
C1758 C1759 1.339 . S
C1758 C1761 1.530 . S
C1759 C1754 1.304 . S
C1759 C1758 1.339 . S
C1759 H1820 0.930 . S
C1760 C1756 1.567 . S
C1760 H1821 0.961 . S
C1760 H1822 0.960 . S
C1760 H1823 0.958 . S
C1761 C1758 1.530 . S
C1761 H1824 0.961 . S
C1761 H1825 0.960 . S
C1761 H1826 0.960 . S
C1762 C1763 1.530 . S
C1762 H1828 0.961 . S
C1762 H1829 0.961 . S
C1762 H1830 0.959 . S
C1763 C1762 1.530 . S
C1763 O1791 1.412 . S
C1763 H1827 0.978 . S
C1764 C1765 1.288 . S
C1764 C1769 1.377 1_455 S
C1764 O1791 1.393 . S
C1765 C1764 1.288 . S
C1765 C1766 1.369 . S
C1765 H1831 0.932 . S
C1766 C1765 1.369 . S
C1766 C1767 1.398 . S
C1766 C1770 1.527 . S
C1767 C1766 1.398 . S
C1767 C1768 1.380 1_455 S
C1767 C1781 1.497 1_455 S
C1768 C1767 1.380 1_655 S
C1768 C1769 1.383 . S
C1768 C1771 1.603 . S
C1769 C1764 1.377 1_655 S
C1769 C1768 1.383 . S
C1769 H1832 0.929 . S
C1770 C1766 1.527 . S
C1770 H1833 0.961 . S
C1770 H1834 0.959 . S
C1770 H1835 0.959 . S
C1771 C1768 1.603 . S
C1771 H1836 0.960 . S
C1771 H1837 0.962 . S
C1771 H1838 0.961 . S
C1772 C1739 1.587 . S
C1772 C1773 1.360 . S
C1772 C1785 1.412 . S
C1773 C1772 1.360 . S
C1773 C1774 1.365 . S
C1773 H1839 0.929 . S
C1774 C1749 1.553 . S
C1774 C1773 1.365 . S
C1774 C1775 1.404 . S
C1775 C1774 1.404 . S
C1775 C1776 1.395 . S
C1775 C1786 1.451 . S
C1776 C1775 1.395 . S
C1776 C1777 1.322 . S
C1776 H1840 0.930 . S
C1777 C1776 1.322 . S
C1777 C1778 1.459 . S
C1777 H1841 0.929 . S
C1778 C1777 1.459 . S
C1778 C1779 1.445 . S
C1778 C1787 1.395 . S
C1779 C1757 1.432 . S
C1779 C1778 1.445 . S
C1779 C1780 1.370 . S
C1780 C1779 1.370 . S
C1780 C1781 1.438 . S
C1780 H1842 0.930 . S
C1781 C1767 1.497 1_655 S
C1781 C1780 1.438 . S
C1781 C1782 1.360 . S
C1782 C1781 1.360 . S
C1782 C1783 1.401 . S
C1782 C1787 1.446 . S
C1783 C1782 1.401 . S
C1783 C1784 1.347 . S
C1783 H1843 0.929 . S
C1784 C1783 1.347 . S
C1784 C1785 1.455 . S
C1784 H1844 0.930 . S
C1785 C1772 1.412 . S
C1785 C1784 1.455 . S
C1785 C1786 1.331 . S
C1786 C1775 1.451 . S
C1786 C1785 1.331 . S
C1786 C1787 1.497 . S
C1787 C1778 1.395 . S
C1787 C1782 1.446 . S
C1787 C1786 1.497 . S
C1788 C1789 1.582 1_655 S
C1788 H1845 0.962 1_655 S
C1788 H1846 0.959 . S
C1788 H1847 0.958 . S
C1789 C1788 1.582 1_455 S
C1789 O1792 1.458 1_455 S
C1789 H1818 0.980 . S
O1790 C1735 1.426 . S
O1790 C1736 1.334 . S
O1791 C1763 1.412 . S
O1791 C1764 1.393 . S
O1792 C1754 1.435 . S
O1792 C1789 1.458 1_655 S
O1793 C1745 1.468 . S
O1793 C1746 1.408 . S
H1794 C1735 0.980 1_655 S
H1795 C1734 0.959 . S
H1796 C1734 0.959 . S
H1797 C1734 0.960 . S
H1798 C1737 0.929 . S
H1799 C1741 0.929 . S
H1800 C1742 0.959 . S
H1801 C1742 0.961 . S
H1802 C1742 0.961 . S
H1803 C1743 0.960 . S
H1804 C1743 0.960 . S
H1805 C1743 0.961 . S
H1806 C1745 0.980 . S
H1807 C1744 0.961 . S
H1808 C1744 0.960 . S
H1809 C1744 0.959 . S
H1810 C1747 0.921 1_455 S
H1811 C1751 0.931 . S
H1812 C1752 0.959 . S
H1813 C1752 0.961 . S
H1814 C1752 0.959 . S
H1815 C1753 0.960 . S
H1816 C1753 0.960 . S
H1817 C1753 0.960 . S
H1818 C1789 0.980 . S
H1819 C1755 0.930 . S
H1820 C1759 0.930 . S
H1821 C1760 0.961 . S
H1822 C1760 0.960 . S
H1823 C1760 0.958 . S
H1824 C1761 0.961 . S
H1825 C1761 0.960 . S
H1826 C1761 0.960 . S
H1827 C1763 0.978 . S
H1828 C1762 0.961 . S
H1829 C1762 0.961 . S
H1830 C1762 0.959 . S
H1831 C1765 0.932 . S
H1832 C1769 0.929 . S
H1833 C1770 0.961 . S
H1834 C1770 0.959 . S
H1835 C1770 0.959 . S
H1836 C1771 0.960 . S
H1837 C1771 0.962 . S
H1838 C1771 0.961 . S
H1839 C1773 0.929 . S
H1840 C1776 0.930 . S
H1841 C1777 0.929 . S
H1842 C1780 0.930 . S
H1843 C1783 0.929 . S
H1844 C1784 0.930 . S
H1845 C1788 0.962 1_455 S
H1846 C1788 0.959 . S
H1847 C1788 0.958 . S
C1848 C1849 1.560 . S
C1848 H1909 0.959 . S
C1848 H1910 0.959 . S
C1848 H1911 0.960 . S
C1849 C1848 1.560 . S
C1849 O1904 1.426 . S
C1849 H1908 0.980 . S
C1850 C1851 1.407 . S
C1850 C1855 1.418 . S
C1850 O1904 1.334 . S
C1851 C1850 1.407 . S
C1851 C1852 1.360 . S
C1851 H1912 0.929 . S
C1852 C1851 1.360 . S
C1852 C1853 1.401 . S
C1852 C1856 1.527 . S
C1853 C1852 1.401 . S
C1853 C1854 1.405 . S
C1853 C1886 1.587 . S
C1854 C1853 1.405 . S
C1854 C1855 1.332 . S
C1854 C1857 1.496 . S
C1855 C1850 1.418 . S
C1855 C1854 1.332 . S
C1855 H1913 0.929 . S
C1856 C1852 1.527 . S
C1856 H1914 0.959 . S
C1856 H1915 0.961 . S
C1856 H1916 0.961 . S
C1857 C1854 1.496 . S
C1857 H1917 0.960 . S
C1857 H1918 0.960 . S
C1857 H1919 0.961 . S
C1858 C1859 1.517 . S
C1858 H1921 0.961 . S
C1858 H1922 0.960 . S
C1858 H1923 0.959 . S
C1859 C1858 1.517 . S
C1859 O1907 1.468 . S
C1859 H1920 0.980 . S
C1860 C1861 1.349 . S
C1860 C1865 1.367 . S
C1860 O1907 1.408 . S
C1861 C1860 1.349 . S
C1861 C1862 1.407 . S
C1861 H1924 0.930 . S
C1862 C1861 1.407 . S
C1862 C1863 1.449 . S
C1862 C1866 1.535 . S
C1863 C1862 1.449 . S
C1863 C1864 1.384 . S
C1863 C1888 1.553 . S
C1864 C1863 1.384 . S
C1864 C1865 1.364 . S
C1864 C1867 1.450 . S
C1865 C1860 1.367 . S
C1865 C1864 1.364 . S
C1865 H1925 0.931 . S
C1866 C1862 1.535 . S
C1866 H1926 0.959 . S
C1866 H1927 0.961 . S
C1866 H1928 0.959 . S
C1867 C1864 1.450 . S
C1867 H1929 0.960 . S
C1867 H1930 0.960 . S
C1867 H1931 0.960 . S
C1868 C1869 1.309 . S
C1868 C1873 1.304 . S
C1868 O1906 1.435 . S
C1869 C1868 1.309 . S
C1869 C1870 1.476 . S
C1869 H1933 0.930 . S
C1870 C1869 1.476 . S
C1870 C1871 1.400 . S
C1870 C1874 1.567 . S
C1871 C1870 1.400 . S
C1871 C1872 1.373 . S
C1871 C1893 1.432 . S
C1872 C1871 1.373 . S
C1872 C1873 1.339 . S
C1872 C1875 1.530 . S
C1873 C1868 1.304 . S
C1873 C1872 1.339 . S
C1873 H1934 0.930 . S
C1874 C1870 1.567 . S
C1874 H1935 0.961 . S
C1874 H1936 0.960 . S
C1874 H1937 0.958 . S
C1875 C1872 1.530 . S
C1875 H1938 0.961 . S
C1875 H1939 0.960 . S
C1875 H1940 0.960 . S
C1876 C1877 1.530 . S
C1876 H1942 0.961 . S
C1876 H1943 0.961 . S
C1876 H1944 0.959 . S
C1877 C1876 1.530 . S
C1877 O1905 1.412 . S
C1877 H1941 0.980 . S
C1878 C1879 1.288 . S
C1878 C1883 1.377 . S
C1878 O1905 1.393 . S
C1879 C1878 1.288 . S
C1879 C1880 1.369 . S
C1879 H1945 0.932 . S
C1880 C1879 1.369 . S
C1880 C1881 1.398 . S
C1880 C1884 1.527 . S
C1881 C1880 1.398 . S
C1881 C1882 1.380 . S
C1881 C1895 1.497 . S
C1882 C1881 1.380 . S
C1882 C1883 1.383 . S
C1882 C1885 1.603 . S
C1883 C1878 1.377 . S
C1883 C1882 1.383 . S
C1883 H1946 0.929 . S
C1884 C1880 1.527 . S
C1884 H1947 0.961 . S
C1884 H1948 0.959 . S
C1884 H1949 0.959 . S
C1885 C1882 1.603 . S
C1885 H1950 0.960 . S
C1885 H1951 0.962 . S
C1885 H1952 0.961 . S
C1886 C1853 1.587 . S
C1886 C1887 1.360 . S
C1886 C1899 1.412 . S
C1887 C1886 1.360 . S
C1887 C1888 1.365 . S
C1887 H1953 0.929 . S
C1888 C1863 1.553 . S
C1888 C1887 1.365 . S
C1888 C1889 1.404 . S
C1889 C1888 1.404 . S
C1889 C1890 1.395 . S
C1889 C1900 1.451 . S
C1890 C1889 1.395 . S
C1890 C1891 1.322 . S
C1890 H1954 0.930 . S
C1891 C1890 1.322 . S
C1891 C1892 1.459 . S
C1891 H1955 0.929 . S
C1892 C1891 1.459 . S
C1892 C1893 1.445 . S
C1892 C1901 1.395 . S
C1893 C1871 1.432 . S
C1893 C1892 1.445 . S
C1893 C1894 1.370 . S
C1894 C1893 1.370 . S
C1894 C1895 1.438 . S
C1894 H1956 0.930 . S
C1895 C1881 1.497 . S
C1895 C1894 1.438 . S
C1895 C1896 1.360 . S
C1896 C1895 1.360 . S
C1896 C1897 1.401 . S
C1896 C1901 1.446 . S
C1897 C1896 1.401 . S
C1897 C1898 1.347 . S
C1897 H1957 0.929 . S
C1898 C1897 1.347 . S
C1898 C1899 1.455 . S
C1898 H1958 0.930 . S
C1899 C1886 1.412 . S
C1899 C1898 1.455 . S
C1899 C1900 1.331 . S
C1900 C1889 1.451 . S
C1900 C1899 1.331 . S
C1900 C1901 1.497 . S
C1901 C1892 1.395 . S
C1901 C1896 1.446 . S
C1901 C1900 1.497 . S
C1902 C1903 1.582 . S
C1902 H1959 0.962 . S
C1902 H1960 0.959 . S
C1902 H1961 0.958 . S
C1903 C1902 1.582 . S
C1903 O1906 1.458 . S
C1903 H1932 0.980 . S
O1904 C1849 1.426 . S
O1904 C1850 1.334 . S
O1905 C1877 1.412 . S
O1905 C1878 1.393 . S
O1906 C1868 1.435 . S
O1906 C1903 1.458 . S
O1907 C1859 1.468 . S
O1907 C1860 1.408 . S
H1908 C1849 0.980 . S
H1909 C1848 0.959 . S
H1910 C1848 0.959 . S
H1911 C1848 0.960 . S
H1912 C1851 0.929 . S
H1913 C1855 0.929 . S
H1914 C1856 0.959 . S
H1915 C1856 0.961 . S
H1916 C1856 0.961 . S
H1917 C1857 0.960 . S
H1918 C1857 0.960 . S
H1919 C1857 0.961 . S
H1920 C1859 0.980 . S
H1921 C1858 0.961 . S
H1922 C1858 0.960 . S
H1923 C1858 0.959 . S
H1924 C1861 0.930 . S
H1925 C1865 0.931 . S
H1926 C1866 0.959 . S
H1927 C1866 0.961 . S
H1928 C1866 0.959 . S
H1929 C1867 0.960 . S
H1930 C1867 0.960 . S
H1931 C1867 0.960 . S
H1932 C1903 0.980 . S
H1933 C1869 0.930 . S
H1934 C1873 0.930 . S
H1935 C1874 0.961 . S
H1936 C1874 0.960 . S
H1937 C1874 0.958 . S
H1938 C1875 0.961 . S
H1939 C1875 0.960 . S
H1940 C1875 0.960 . S
H1941 C1877 0.980 . S
H1942 C1876 0.961 . S
H1943 C1876 0.961 . S
H1944 C1876 0.959 . S
H1945 C1879 0.932 . S
H1946 C1883 0.929 . S
H1947 C1884 0.961 . S
H1948 C1884 0.959 . S
H1949 C1884 0.959 . S
H1950 C1885 0.960 . S
H1951 C1885 0.962 . S
H1952 C1885 0.961 . S
H1953 C1887 0.929 . S
H1954 C1890 0.930 . S
H1955 C1891 0.929 . S
H1956 C1894 0.930 . S
H1957 C1897 0.929 . S
H1958 C1898 0.930 . S
H1959 C1902 0.962 . S
H1960 C1902 0.959 . S
H1961 C1902 0.958 . S
C1962 C1963 1.560 . S
C1962 H2023 0.959 . S
C1962 H2024 0.959 . S
C1962 H2025 0.960 . S
C1963 C1962 1.560 . S
C1963 O2018 1.426 . S
C1963 H2022 0.980 . S
C1964 C1965 1.407 . S
C1964 C1969 1.418 . S
C1964 O2018 1.334 . S
C1965 C1964 1.407 . S
C1965 C1966 1.360 . S
C1965 H2026 0.929 . S
C1966 C1965 1.360 . S
C1966 C1967 1.401 . S
C1966 C1970 1.527 . S
C1967 C1966 1.401 . S
C1967 C1968 1.405 . S
C1967 C2000 1.587 . S
C1968 C1967 1.405 . S
C1968 C1969 1.332 . S
C1968 C1971 1.496 . S
C1969 C1964 1.418 . S
C1969 C1968 1.332 . S
C1969 H2027 0.929 . S
C1970 C1966 1.527 . S
C1970 H2028 0.959 . S
C1970 H2029 0.961 . S
C1970 H2030 0.961 . S
C1971 C1968 1.496 . S
C1971 H2031 0.960 . S
C1971 H2032 0.960 . S
C1971 H2033 0.961 . S
C1972 C1973 1.517 . S
C1972 H2035 0.961 . S
C1972 H2036 0.960 . S
C1972 H2037 0.959 . S
C1973 C1972 1.517 . S
C1973 O2021 1.468 . S
C1973 H2034 0.980 . S
C1974 C1975 1.349 . S
C1974 C1979 1.367 . S
C1974 O2021 1.408 . S
C1975 C1974 1.349 . S
C1975 C1976 1.407 . S
C1975 H2038 0.930 . S
C1976 C1975 1.407 . S
C1976 C1977 1.449 . S
C1976 C1980 1.535 . S
C1977 C1976 1.449 . S
C1977 C1978 1.384 . S
C1977 C2002 1.553 . S
C1978 C1977 1.384 . S
C1978 C1979 1.364 . S
C1978 C1981 1.450 . S
C1979 C1974 1.367 . S
C1979 C1978 1.364 . S
C1979 H2039 0.931 . S
C1980 C1976 1.535 . S
C1980 H2040 0.959 . S
C1980 H2041 0.961 . S
C1980 H2042 0.959 . S
C1981 C1978 1.450 . S
C1981 H2043 0.960 . S
C1981 H2044 0.960 . S
C1981 H2045 0.960 . S
C1982 C1983 1.309 . S
C1982 C1987 1.304 . S
C1982 O2020 1.435 . S
C1983 C1982 1.309 . S
C1983 C1984 1.476 . S
C1983 H2047 0.930 . S
C1984 C1983 1.476 . S
C1984 C1985 1.400 . S
C1984 C1988 1.567 . S
C1985 C1984 1.400 . S
C1985 C1986 1.373 . S
C1985 C2007 1.432 . S
C1986 C1985 1.373 . S
C1986 C1987 1.339 . S
C1986 C1989 1.530 . S
C1987 C1982 1.304 . S
C1987 C1986 1.339 . S
C1987 H2048 0.930 . S
C1988 C1984 1.567 . S
C1988 H2049 0.961 . S
C1988 H2050 0.960 . S
C1988 H2051 0.958 . S
C1989 C1986 1.530 . S
C1989 H2052 0.961 . S
C1989 H2053 0.960 . S
C1989 H2054 0.960 . S
C1990 C1991 1.530 . S
C1990 H2056 0.961 . S
C1990 H2057 0.961 . S
C1990 H2058 0.959 . S
C1991 C1990 1.530 . S
C1991 O2019 1.412 . S
C1991 H2055 0.980 . S
C1992 C1993 1.288 . S
C1992 C1997 1.377 . S
C1992 O2019 1.393 . S
C1993 C1992 1.288 . S
C1993 C1994 1.369 . S
C1993 H2059 0.932 . S
C1994 C1993 1.369 . S
C1994 C1995 1.398 . S
C1994 C1998 1.527 . S
C1995 C1994 1.398 . S
C1995 C1996 1.380 . S
C1995 C2009 1.497 . S
C1996 C1995 1.380 . S
C1996 C1997 1.383 . S
C1996 C1999 1.603 . S
C1997 C1992 1.377 . S
C1997 C1996 1.383 . S
C1997 H2060 0.929 . S
C1998 C1994 1.527 . S
C1998 H2061 0.961 . S
C1998 H2062 0.959 . S
C1998 H2063 0.959 . S
C1999 C1996 1.603 . S
C1999 H2064 0.960 . S
C1999 H2065 0.962 . S
C1999 H2066 0.961 . S
C2000 C1967 1.587 . S
C2000 C2001 1.360 . S
C2000 C2013 1.412 . S
C2001 C2000 1.360 . S
C2001 C2002 1.365 . S
C2001 H2067 0.929 . S
C2002 C1977 1.553 . S
C2002 C2001 1.365 . S
C2002 C2003 1.404 . S
C2003 C2002 1.404 . S
C2003 C2004 1.395 . S
C2003 C2014 1.451 . S
C2004 C2003 1.395 . S
C2004 C2005 1.322 . S
C2004 H2068 0.930 . S
C2005 C2004 1.322 . S
C2005 C2006 1.459 . S
C2005 H2069 0.929 . S
C2006 C2005 1.459 . S
C2006 C2007 1.445 . S
C2006 C2015 1.395 . S
C2007 C1985 1.432 . S
C2007 C2006 1.445 . S
C2007 C2008 1.370 . S
C2008 C2007 1.370 . S
C2008 C2009 1.438 . S
C2008 H2070 0.930 . S
C2009 C1995 1.497 . S
C2009 C2008 1.438 . S
C2009 C2010 1.360 . S
C2010 C2009 1.360 . S
C2010 C2011 1.401 . S
C2010 C2015 1.446 . S
C2011 C2010 1.401 . S
C2011 C2012 1.347 . S
C2011 H2071 0.929 . S
C2012 C2011 1.347 . S
C2012 C2013 1.455 . S
C2012 H2072 0.930 . S
C2013 C2000 1.412 . S
C2013 C2012 1.455 . S
C2013 C2014 1.331 . S
C2014 C2003 1.451 . S
C2014 C2013 1.331 . S
C2014 C2015 1.497 . S
C2015 C2006 1.395 . S
C2015 C2010 1.446 . S
C2015 C2014 1.497 . S
C2016 C2017 1.582 . S
C2016 H2073 0.962 . S
C2016 H2074 0.959 . S
C2016 H2075 0.958 . S
C2017 C2016 1.582 . S
C2017 O2020 1.458 . S
C2017 H2046 0.980 . S
O2018 C1963 1.426 . S
O2018 C1964 1.334 . S
O2019 C1991 1.412 . S
O2019 C1992 1.393 . S
O2020 C1982 1.435 . S
O2020 C2017 1.458 . S
O2021 C1973 1.468 . S
O2021 C1974 1.408 . S
H2022 C1963 0.980 . S
H2023 C1962 0.959 . S
H2024 C1962 0.959 . S
H2025 C1962 0.960 . S
H2026 C1965 0.929 . S
H2027 C1969 0.929 . S
H2028 C1970 0.959 . S
H2029 C1970 0.961 . S
H2030 C1970 0.961 . S
H2031 C1971 0.960 . S
H2032 C1971 0.960 . S
H2033 C1971 0.961 . S
H2034 C1973 0.980 . S
H2035 C1972 0.961 . S
H2036 C1972 0.960 . S
H2037 C1972 0.959 . S
H2038 C1975 0.930 . S
H2039 C1979 0.931 . S
H2040 C1980 0.959 . S
H2041 C1980 0.961 . S
H2042 C1980 0.959 . S
H2043 C1981 0.960 . S
H2044 C1981 0.960 . S
H2045 C1981 0.960 . S
H2046 C2017 0.980 . S
H2047 C1983 0.930 . S
H2048 C1987 0.930 . S
H2049 C1988 0.961 . S
H2050 C1988 0.960 . S
H2051 C1988 0.958 . S
H2052 C1989 0.961 . S
H2053 C1989 0.960 . S
H2054 C1989 0.960 . S
H2055 C1991 0.980 . S
H2056 C1990 0.961 . S
H2057 C1990 0.961 . S
H2058 C1990 0.959 . S
H2059 C1993 0.932 . S
H2060 C1997 0.929 . S
H2061 C1998 0.961 . S
H2062 C1998 0.959 . S
H2063 C1998 0.959 . S
H2064 C1999 0.960 . S
H2065 C1999 0.962 . S
H2066 C1999 0.961 . S
H2067 C2001 0.929 . S
H2068 C2004 0.930 . S
H2069 C2005 0.929 . S
H2070 C2008 0.930 . S
H2071 C2011 0.929 . S
H2072 C2012 0.930 . S
H2073 C2016 0.962 . S
H2074 C2016 0.959 . S
H2075 C2016 0.958 . S
C2076 C2077 1.560 . S
C2076 H2137 0.959 . S
C2076 H2138 0.959 . S
C2076 H2139 0.960 . S
C2077 C2076 1.560 . S
C2077 O2132 1.426 . S
C2077 H2136 0.980 . S
C2078 C2079 1.407 . S
C2078 C2083 1.418 . S
C2078 O2132 1.334 . S
C2079 C2078 1.407 . S
C2079 C2080 1.360 . S
C2079 H2140 0.929 . S
C2080 C2079 1.360 . S
C2080 C2081 1.401 . S
C2080 C2084 1.527 . S
C2081 C2080 1.401 . S
C2081 C2082 1.405 . S
C2081 C2114 1.587 . S
C2082 C2081 1.405 . S
C2082 C2083 1.332 . S
C2082 C2085 1.496 . S
C2083 C2078 1.418 . S
C2083 C2082 1.332 . S
C2083 H2141 0.929 . S
C2084 C2080 1.527 . S
C2084 H2142 0.959 . S
C2084 H2143 0.961 . S
C2084 H2144 0.961 . S
C2085 C2082 1.496 . S
C2085 H2145 0.960 . S
C2085 H2146 0.960 . S
C2085 H2147 0.961 . S
C2086 C2087 1.517 . S
C2086 H2149 0.961 . S
C2086 H2150 0.960 . S
C2086 H2151 0.959 . S
C2087 C2086 1.517 . S
C2087 O2135 1.468 . S
C2087 H2148 0.980 . S
C2088 C2089 1.349 . S
C2088 C2093 1.367 . S
C2088 O2135 1.408 . S
C2089 C2088 1.349 . S
C2089 C2090 1.407 . S
C2089 H2152 0.930 . S
C2090 C2089 1.407 . S
C2090 C2091 1.449 . S
C2090 C2094 1.535 . S
C2091 C2090 1.449 . S
C2091 C2092 1.384 . S
C2091 C2116 1.553 . S
C2092 C2091 1.384 . S
C2092 C2093 1.364 . S
C2092 C2095 1.450 . S
C2093 C2088 1.367 . S
C2093 C2092 1.364 . S
C2093 H2153 0.931 . S
C2094 C2090 1.535 . S
C2094 H2154 0.959 . S
C2094 H2155 0.961 . S
C2094 H2156 0.959 . S
C2095 C2092 1.450 . S
C2095 H2157 0.960 . S
C2095 H2158 0.960 . S
C2095 H2159 0.960 . S
C2096 C2097 1.309 . S
C2096 C2101 1.304 . S
C2096 O2134 1.435 . S
C2097 C2096 1.309 . S
C2097 C2098 1.476 . S
C2097 H2161 0.930 . S
C2098 C2097 1.476 . S
C2098 C2099 1.400 . S
C2098 C2102 1.567 . S
C2099 C2098 1.400 . S
C2099 C2100 1.373 . S
C2099 C2121 1.432 . S
C2100 C2099 1.373 . S
C2100 C2101 1.339 . S
C2100 C2103 1.530 . S
C2101 C2096 1.304 . S
C2101 C2100 1.339 . S
C2101 H2162 0.930 . S
C2102 C2098 1.567 . S
C2102 H2163 0.961 . S
C2102 H2164 0.960 . S
C2102 H2165 0.958 . S
C2103 C2100 1.530 . S
C2103 H2166 0.961 . S
C2103 H2167 0.960 . S
C2103 H2168 0.960 . S
C2104 C2105 1.530 . S
C2104 H2170 0.961 . S
C2104 H2171 0.961 . S
C2104 H2172 0.959 . S
C2105 C2104 1.530 . S
C2105 O2133 1.412 . S
C2105 H2169 0.980 . S
C2106 C2107 1.288 . S
C2106 C2111 1.377 . S
C2106 O2133 1.393 . S
C2107 C2106 1.288 . S
C2107 C2108 1.369 . S
C2107 H2173 0.932 . S
C2108 C2107 1.369 . S
C2108 C2109 1.398 . S
C2108 C2112 1.527 . S
C2109 C2108 1.398 . S
C2109 C2110 1.380 . S
C2109 C2123 1.497 . S
C2110 C2109 1.380 . S
C2110 C2111 1.383 . S
C2110 C2113 1.603 . S
C2111 C2106 1.377 . S
C2111 C2110 1.383 . S
C2111 H2174 0.929 . S
C2112 C2108 1.527 . S
C2112 H2175 0.961 . S
C2112 H2176 0.959 . S
C2112 H2177 0.959 . S
C2113 C2110 1.603 . S
C2113 H2178 0.960 . S
C2113 H2179 0.962 . S
C2113 H2180 0.961 . S
C2114 C2081 1.587 . S
C2114 C2115 1.360 . S
C2114 C2127 1.412 . S
C2115 C2114 1.360 . S
C2115 C2116 1.365 . S
C2115 H2181 0.929 . S
C2116 C2091 1.553 . S
C2116 C2115 1.365 . S
C2116 C2117 1.404 . S
C2117 C2116 1.404 . S
C2117 C2118 1.395 . S
C2117 C2128 1.451 . S
C2118 C2117 1.395 . S
C2118 C2119 1.322 . S
C2118 H2182 0.930 . S
C2119 C2118 1.322 . S
C2119 C2120 1.459 . S
C2119 H2183 0.929 . S
C2120 C2119 1.459 . S
C2120 C2121 1.445 . S
C2120 C2129 1.395 . S
C2121 C2099 1.432 . S
C2121 C2120 1.445 . S
C2121 C2122 1.370 . S
C2122 C2121 1.370 . S
C2122 C2123 1.438 . S
C2122 H2184 0.930 . S
C2123 C2109 1.497 . S
C2123 C2122 1.438 . S
C2123 C2124 1.360 . S
C2124 C2123 1.360 . S
C2124 C2125 1.401 . S
C2124 C2129 1.446 . S
C2125 C2124 1.401 . S
C2125 C2126 1.347 . S
C2125 H2185 0.929 . S
C2126 C2125 1.347 . S
C2126 C2127 1.455 . S
C2126 H2186 0.930 . S
C2127 C2114 1.412 . S
C2127 C2126 1.455 . S
C2127 C2128 1.331 . S
C2128 C2117 1.451 . S
C2128 C2127 1.331 . S
C2128 C2129 1.497 . S
C2129 C2120 1.395 . S
C2129 C2124 1.446 . S
C2129 C2128 1.497 . S
C2130 C2131 1.582 . S
C2130 H2187 0.962 . S
C2130 H2188 0.959 . S
C2130 H2189 0.958 . S
C2131 C2130 1.582 . S
C2131 O2134 1.458 . S
C2131 H2160 0.980 . S
O2132 C2077 1.426 . S
O2132 C2078 1.334 . S
O2133 C2105 1.412 . S
O2133 C2106 1.393 . S
O2134 C2096 1.435 . S
O2134 C2131 1.458 . S
O2135 C2087 1.468 . S
O2135 C2088 1.408 . S
H2136 C2077 0.980 . S
H2137 C2076 0.959 . S
H2138 C2076 0.959 . S
H2139 C2076 0.960 . S
H2140 C2079 0.929 . S
H2141 C2083 0.929 . S
H2142 C2084 0.959 . S
H2143 C2084 0.961 . S
H2144 C2084 0.961 . S
H2145 C2085 0.960 . S
H2146 C2085 0.960 . S
H2147 C2085 0.961 . S
H2148 C2087 0.980 . S
H2149 C2086 0.961 . S
H2150 C2086 0.960 . S
H2151 C2086 0.959 . S
H2152 C2089 0.930 . S
H2153 C2093 0.931 . S
H2154 C2094 0.959 . S
H2155 C2094 0.961 . S
H2156 C2094 0.959 . S
H2157 C2095 0.960 . S
H2158 C2095 0.960 . S
H2159 C2095 0.960 . S
H2160 C2131 0.980 . S
H2161 C2097 0.930 . S
H2162 C2101 0.930 . S
H2163 C2102 0.961 . S
H2164 C2102 0.960 . S
H2165 C2102 0.958 . S
H2166 C2103 0.961 . S
H2167 C2103 0.960 . S
H2168 C2103 0.960 . S
H2169 C2105 0.980 . S
H2170 C2104 0.961 . S
H2171 C2104 0.961 . S
H2172 C2104 0.959 . S
H2173 C2107 0.932 . S
H2174 C2111 0.929 . S
H2175 C2112 0.961 . S
H2176 C2112 0.959 . S
H2177 C2112 0.959 . S
H2178 C2113 0.960 . S
H2179 C2113 0.962 . S
H2180 C2113 0.961 . S
H2181 C2115 0.929 . S
H2182 C2118 0.930 . S
H2183 C2119 0.929 . S
H2184 C2122 0.930 . S
H2185 C2125 0.929 . S
H2186 C2126 0.930 . S
H2187 C2130 0.962 . S
H2188 C2130 0.959 . S
H2189 C2130 0.958 . S
C2190 C2191 1.560 . S
C2190 H2251 0.959 . S
C2190 H2252 0.959 . S
C2190 H2253 0.960 . S
C2191 C2190 1.560 . S
C2191 O2246 1.426 . S
C2191 H2250 0.980 . S
C2192 C2193 1.407 . S
C2192 C2197 1.418 . S
C2192 O2246 1.334 . S
C2193 C2192 1.407 . S
C2193 C2194 1.360 . S
C2193 H2254 0.929 . S
C2194 C2193 1.360 . S
C2194 C2195 1.401 . S
C2194 C2198 1.527 . S
C2195 C2194 1.401 . S
C2195 C2196 1.405 . S
C2195 C2228 1.587 . S
C2196 C2195 1.405 . S
C2196 C2197 1.332 . S
C2196 C2199 1.496 . S
C2197 C2192 1.418 . S
C2197 C2196 1.332 . S
C2197 H2255 0.929 . S
C2198 C2194 1.527 . S
C2198 H2256 0.959 . S
C2198 H2257 0.961 . S
C2198 H2258 0.961 . S
C2199 C2196 1.496 . S
C2199 H2259 0.960 . S
C2199 H2260 0.960 . S
C2199 H2261 0.961 . S
C2200 C2201 1.517 . S
C2200 H2263 0.961 . S
C2200 H2264 0.960 . S
C2200 H2265 0.959 . S
C2201 C2200 1.517 . S
C2201 O2249 1.468 . S
C2201 H2262 0.980 . S
C2202 C2203 1.349 . S
C2202 C2207 1.367 . S
C2202 O2249 1.408 . S
C2203 C2202 1.349 . S
C2203 C2204 1.407 . S
C2203 H2266 0.930 . S
C2204 C2203 1.407 . S
C2204 C2205 1.449 . S
C2204 C2208 1.535 . S
C2205 C2204 1.449 . S
C2205 C2206 1.384 . S
C2205 C2230 1.553 . S
C2206 C2205 1.384 . S
C2206 C2207 1.364 . S
C2206 C2209 1.450 . S
C2207 C2202 1.367 . S
C2207 C2206 1.364 . S
C2207 H2267 0.931 . S
C2208 C2204 1.535 . S
C2208 H2268 0.959 . S
C2208 H2269 0.961 . S
C2208 H2270 0.959 . S
C2209 C2206 1.450 . S
C2209 H2271 0.960 . S
C2209 H2272 0.960 . S
C2209 H2273 0.960 . S
C2210 C2211 1.309 . S
C2210 C2215 1.304 . S
C2210 O2248 1.435 . S
C2211 C2210 1.309 . S
C2211 C2212 1.476 . S
C2211 H2275 0.930 . S
C2212 C2211 1.476 . S
C2212 C2213 1.400 . S
C2212 C2216 1.567 . S
C2213 C2212 1.400 . S
C2213 C2214 1.373 . S
C2213 C2235 1.432 . S
C2214 C2213 1.373 . S
C2214 C2215 1.339 . S
C2214 C2217 1.530 . S
C2215 C2210 1.304 . S
C2215 C2214 1.339 . S
C2215 H2276 0.930 . S
C2216 C2212 1.567 . S
C2216 H2277 0.961 . S
C2216 H2278 0.960 . S
C2216 H2279 0.958 . S
C2217 C2214 1.530 . S
C2217 H2280 0.961 . S
C2217 H2281 0.960 . S
C2217 H2282 0.960 . S
C2218 C2219 1.530 . S
C2218 H2284 0.961 . S
C2218 H2285 0.961 . S
C2218 H2286 0.959 . S
C2219 C2218 1.530 . S
C2219 O2247 1.412 . S
C2219 H2283 0.980 . S
C2220 C2221 1.288 . S
C2220 C2225 1.377 . S
C2220 O2247 1.393 . S
C2221 C2220 1.288 . S
C2221 C2222 1.369 . S
C2221 H2287 0.932 . S
C2222 C2221 1.369 . S
C2222 C2223 1.398 . S
C2222 C2226 1.527 . S
C2223 C2222 1.398 . S
C2223 C2224 1.380 . S
C2223 C2237 1.497 . S
C2224 C2223 1.380 . S
C2224 C2225 1.383 . S
C2224 C2227 1.603 . S
C2225 C2220 1.377 . S
C2225 C2224 1.383 . S
C2225 H2288 0.929 . S
C2226 C2222 1.527 . S
C2226 H2289 0.961 . S
C2226 H2290 0.959 . S
C2226 H2291 0.959 . S
C2227 C2224 1.603 . S
C2227 H2292 0.960 . S
C2227 H2293 0.962 . S
C2227 H2294 0.961 . S
C2228 C2195 1.587 . S
C2228 C2229 1.360 . S
C2228 C2241 1.412 . S
C2229 C2228 1.360 . S
C2229 C2230 1.365 . S
C2229 H2295 0.929 . S
C2230 C2205 1.553 . S
C2230 C2229 1.365 . S
C2230 C2231 1.404 . S
C2231 C2230 1.404 . S
C2231 C2232 1.395 . S
C2231 C2242 1.451 . S
C2232 C2231 1.395 . S
C2232 C2233 1.322 . S
C2232 H2296 0.930 . S
C2233 C2232 1.322 . S
C2233 C2234 1.459 . S
C2233 H2297 0.929 . S
C2234 C2233 1.459 . S
C2234 C2235 1.445 . S
C2234 C2243 1.395 . S
C2235 C2213 1.432 . S
C2235 C2234 1.445 . S
C2235 C2236 1.370 . S
C2236 C2235 1.370 . S
C2236 C2237 1.438 . S
C2236 H2298 0.930 . S
C2237 C2223 1.497 . S
C2237 C2236 1.438 . S
C2237 C2238 1.360 . S
C2238 C2237 1.360 . S
C2238 C2239 1.401 . S
C2238 C2243 1.446 . S
C2239 C2238 1.401 . S
C2239 C2240 1.347 . S
C2239 H2299 0.929 . S
C2240 C2239 1.347 . S
C2240 C2241 1.455 . S
C2240 H2300 0.930 . S
C2241 C2228 1.412 . S
C2241 C2240 1.455 . S
C2241 C2242 1.331 . S
C2242 C2231 1.451 . S
C2242 C2241 1.331 . S
C2242 C2243 1.497 . S
C2243 C2234 1.395 . S
C2243 C2238 1.446 . S
C2243 C2242 1.497 . S
C2244 C2245 1.582 . S
C2244 H2301 0.962 . S
C2244 H2302 0.959 . S
C2244 H2303 0.958 . S
C2245 C2244 1.582 . S
C2245 O2248 1.458 . S
C2245 H2274 0.980 . S
O2246 C2191 1.426 . S
O2246 C2192 1.334 . S
O2247 C2219 1.412 . S
O2247 C2220 1.393 . S
O2248 C2210 1.435 . S
O2248 C2245 1.458 . S
O2249 C2201 1.468 . S
O2249 C2202 1.408 . S
H2250 C2191 0.980 . S
H2251 C2190 0.959 . S
H2252 C2190 0.959 . S
H2253 C2190 0.960 . S
H2254 C2193 0.929 . S
H2255 C2197 0.929 . S
H2256 C2198 0.959 . S
H2257 C2198 0.961 . S
H2258 C2198 0.961 . S
H2259 C2199 0.960 . S
H2260 C2199 0.960 . S
H2261 C2199 0.961 . S
H2262 C2201 0.980 . S
H2263 C2200 0.961 . S
H2264 C2200 0.960 . S
H2265 C2200 0.959 . S
H2266 C2203 0.930 . S
H2267 C2207 0.931 . S
H2268 C2208 0.959 . S
H2269 C2208 0.961 . S
H2270 C2208 0.959 . S
H2271 C2209 0.960 . S
H2272 C2209 0.960 . S
H2273 C2209 0.960 . S
H2274 C2245 0.980 . S
H2275 C2211 0.930 . S
H2276 C2215 0.930 . S
H2277 C2216 0.961 . S
H2278 C2216 0.960 . S
H2279 C2216 0.958 . S
H2280 C2217 0.961 . S
H2281 C2217 0.960 . S
H2282 C2217 0.960 . S
H2283 C2219 0.980 . S
H2284 C2218 0.961 . S
H2285 C2218 0.961 . S
H2286 C2218 0.959 . S
H2287 C2221 0.932 . S
H2288 C2225 0.929 . S
H2289 C2226 0.961 . S
H2290 C2226 0.959 . S
H2291 C2226 0.959 . S
H2292 C2227 0.960 . S
H2293 C2227 0.962 . S
H2294 C2227 0.961 . S
H2295 C2229 0.929 . S
H2296 C2232 0.930 . S
H2297 C2233 0.929 . S
H2298 C2236 0.930 . S
H2299 C2239 0.929 . S
H2300 C2240 0.930 . S
H2301 C2244 0.962 . S
H2302 C2244 0.959 . S
H2303 C2244 0.958 . S
C2304 C2305 1.363 . S
C2304 C2310 1.379 . S
C2304 N2312 1.356 . S
C2305 C2304 1.363 . S
C2305 C2311 1.363 1_655 S
C2306 C2307 1.363 1_455 S
C2306 C2311 1.379 . S
C2306 N2313 1.356 . S
C2307 C2306 1.363 1_655 S
C2307 C2310 1.363 . S
N2308 C2310 1.356 . S
N2308 H2320 0.984 . S
N2308 H2321 0.985 . S
N2309 C2311 1.356 . S
N2309 H2314 0.984 . S
N2309 H2315 0.985 . S
C2310 C2304 1.379 . S
C2310 C2307 1.363 . S
C2310 N2308 1.356 . S
C2311 C2305 1.363 1_455 S
C2311 C2306 1.379 . S
C2311 N2309 1.356 . S
N2312 C2304 1.356 . S
N2312 H2318 0.984 . S
N2312 H2319 0.984 . S
N2313 C2306 1.356 . S
N2313 H2316 0.984 . S
N2313 H2317 0.985 . S
H2314 N2309 0.984 . S
H2315 N2309 0.985 . S
H2316 N2313 0.984 . S
H2317 N2313 0.985 . S
H2318 N2312 0.984 . S
H2319 N2312 0.984 . S
H2320 N2308 0.984 . S
H2321 N2308 0.985 . S
C2322 C2323 1.363 . S
C2322 C2328 1.379 . S
C2322 N2330 1.356 . S
C2323 C2322 1.363 . S
C2323 C2329 1.363 . S
C2324 C2325 1.363 . S
C2324 C2329 1.379 . S
C2324 N2331 1.356 . S
C2325 C2324 1.363 . S
C2325 C2328 1.363 . S
N2326 C2328 1.356 . S
N2326 H2338 0.984 . S
N2326 H2339 0.985 . S
N2327 C2329 1.356 . S
N2327 H2332 0.984 . S
N2327 H2333 0.985 . S
C2328 C2322 1.379 . S
C2328 C2325 1.363 . S
C2328 N2326 1.356 . S
C2329 C2323 1.363 . S
C2329 C2324 1.379 . S
C2329 N2327 1.356 . S
N2330 C2322 1.356 . S
N2330 H2336 0.984 . S
N2330 H2337 0.984 . S
N2331 C2324 1.356 . S
N2331 H2334 0.984 . S
N2331 H2335 0.985 . S
H2332 N2327 0.984 . S
H2333 N2327 0.985 . S
H2334 N2331 0.984 . S
H2335 N2331 0.985 . S
H2336 N2330 0.984 . S
H2337 N2330 0.984 . S
H2338 N2326 0.984 . S
H2339 N2326 0.985 . S
C2340 C2341 1.363 . S
C2340 C2346 1.379 . S
C2340 N2348 1.356 . S
C2341 C2340 1.363 . S
C2341 C2347 1.363 . S
C2342 C2343 1.363 1_565 S
C2342 C2347 1.379 1_565 S
C2342 N2349 1.356 . S
C2343 C2342 1.363 1_545 S
C2343 C2346 1.363 . S
N2344 C2346 1.356 . S
N2344 H2356 0.984 . S
N2344 H2357 0.985 . S
N2345 C2347 1.356 1_565 S
N2345 H2350 0.984 . S
N2345 H2351 0.985 . S
C2346 C2340 1.379 . S
C2346 C2343 1.363 . S
C2346 N2344 1.356 . S
C2347 C2341 1.363 . S
C2347 C2342 1.379 1_545 S
C2347 N2345 1.356 1_545 S
N2348 C2340 1.356 . S
N2348 H2354 0.984 . S
N2348 H2355 0.984 . S
N2349 C2342 1.356 . S
N2349 H2352 0.984 . S
N2349 H2353 0.985 . S
H2350 N2345 0.984 . S
H2351 N2345 0.985 . S
H2352 N2349 0.984 . S
H2353 N2349 0.985 . S
H2354 N2348 0.984 . S
H2355 N2348 0.984 . S
H2356 N2344 0.984 . S
H2357 N2344 0.985 . S
C2358 C2359 1.363 1_545 S
C2358 C2364 1.379 . S
C2358 N2366 1.356 . S
C2359 C2358 1.363 1_565 S
C2359 C2365 1.363 . S
C2360 C2361 1.363 . S
C2360 C2365 1.379 . S
C2360 N2367 1.356 . S
C2361 C2360 1.363 . S
C2361 C2364 1.363 1_565 S
N2362 C2364 1.356 . S
N2362 H2374 0.984 . S
N2362 H2375 0.985 . S
N2363 C2365 1.356 . S
N2363 H2368 0.984 . S
N2363 H2369 0.985 . S
C2364 C2358 1.379 . S
C2364 C2361 1.363 1_545 S
C2364 N2362 1.356 . S
C2365 C2359 1.363 . S
C2365 C2360 1.379 . S
C2365 N2363 1.356 . S
N2366 C2358 1.356 . S
N2366 H2372 0.984 . S
N2366 H2373 0.984 . S
N2367 C2360 1.356 . S
N2367 H2370 0.984 . S
N2367 H2371 0.985 . S
H2368 N2363 0.984 . S
H2369 N2363 0.985 . S
H2370 N2367 0.984 . S
H2371 N2367 0.985 . S
H2372 N2366 0.984 . S
H2373 N2366 0.984 . S
H2374 N2362 0.984 . S
H2375 N2362 0.985 . S
C2376 C2377 1.363 . S
C2376 C2382 1.379 . S
C2376 N2384 1.356 . S
C2377 C2376 1.363 . S
C2377 C2383 1.363 . S
C2378 C2379 1.363 . S
C2378 C2383 1.379 . S
C2378 N2385 1.348 1_455 S
C2379 C2378 1.363 . S
C2379 C2382 1.363 . S
N2380 C2382 1.356 . S
N2380 H2392 0.984 . S
N2380 H2393 0.985 . S
N2381 C2383 1.356 . S
N2381 H2386 0.984 . S
N2381 H2387 0.985 1_455 S
C2382 C2376 1.379 . S
C2382 C2379 1.363 . S
C2382 N2380 1.356 . S
C2383 C2377 1.363 . S
C2383 C2378 1.379 . S
C2383 N2381 1.356 . S
N2384 C2376 1.356 . S
N2384 H2390 0.984 . S
N2384 H2391 0.984 . S
N2385 C2378 1.348 1_655 S
N2385 H2388 0.989 1_655 S
N2385 H2389 0.990 . S
H2386 N2381 0.984 . S
H2387 N2381 0.985 1_655 S
H2388 N2385 0.989 1_455 S
H2389 N2385 0.990 . S
H2390 N2384 0.984 . S
H2391 N2384 0.984 . S
H2392 N2380 0.984 . S
H2393 N2380 0.985 . S
C2394 C2395 1.363 . S
C2394 C2400 1.379 . S
C2394 N2402 1.356 . S
C2395 C2394 1.363 . S
C2395 C2401 1.363 . S
C2396 C2397 1.363 . S
C2396 C2401 1.379 . S
C2396 N2403 1.356 . S
C2397 C2396 1.363 . S
C2397 C2400 1.363 . S
N2398 C2400 1.356 . S
N2398 H2410 0.984 . S
N2398 H2411 0.985 . S
N2399 C2401 1.393 . S
N2399 H2404 0.970 1_556 S
N2399 H2405 0.963 1_556 S
C2400 C2394 1.379 . S
C2400 C2397 1.363 . S
C2400 N2398 1.356 . S
C2401 C2395 1.363 . S
C2401 C2396 1.379 . S
C2401 N2399 1.393 . S
N2402 C2394 1.356 . S
N2402 H2408 0.984 . S
N2402 H2409 0.984 . S
N2403 C2396 1.356 . S
N2403 H2406 0.984 . S
N2403 H2407 0.985 . S
H2404 N2399 0.970 1_554 S
H2405 N2399 0.963 1_554 S
H2406 N2403 0.984 . S
H2407 N2403 0.985 . S
H2408 N2402 0.984 . S
H2409 N2402 0.984 . S
H2410 N2398 0.984 . S
H2411 N2398 0.985 . S
C2412 C2413 1.363 1_655 S
C2412 C2418 1.379 . S
C2412 N2420 1.356 . S
C2413 C2412 1.363 1_455 S
C2413 C2419 1.363 . S
C2414 C2415 1.363 . S
C2414 C2419 1.379 . S
C2414 N2421 1.356 . S
C2415 C2414 1.363 . S
C2415 C2418 1.363 1_455 S
N2416 C2418 1.356 . S
N2416 H2428 0.984 . S
N2416 H2429 0.985 . S
N2417 C2419 1.356 . S
N2417 H2422 0.984 . S
N2417 H2423 0.985 . S
C2418 C2412 1.379 . S
C2418 C2415 1.363 1_655 S
C2418 N2416 1.356 . S
C2419 C2413 1.363 . S
C2419 C2414 1.379 . S
C2419 N2417 1.356 . S
N2420 C2412 1.356 . S
N2420 H2426 0.984 . S
N2420 H2427 0.984 . S
N2421 C2414 1.356 . S
N2421 H2424 0.984 . S
N2421 H2425 0.985 . S
H2422 N2417 0.984 . S
H2423 N2417 0.985 . S
H2424 N2421 0.984 . S
H2425 N2421 0.985 . S
H2426 N2420 0.984 . S
H2427 N2420 0.984 . S
H2428 N2416 0.984 . S
H2429 N2416 0.985 . S
C2430 C2431 1.363 . S
C2430 C2436 1.379 . S
C2430 N2438 1.356 . S
C2431 C2430 1.363 . S
C2431 C2437 1.363 . S
C2432 C2433 1.363 . S
C2432 C2437 1.379 . S
C2432 N2439 1.356 . S
C2433 C2432 1.363 . S
C2433 C2436 1.363 . S
N2434 C2436 1.356 . S
N2434 H2446 0.984 . S
N2434 H2447 0.985 . S
N2435 C2437 1.356 . S
N2435 H2440 0.984 . S
N2435 H2441 0.985 . S
C2436 C2430 1.379 . S
C2436 C2433 1.363 . S
C2436 N2434 1.356 . S
C2437 C2431 1.363 . S
C2437 C2432 1.379 . S
C2437 N2435 1.356 . S
N2438 C2430 1.356 . S
N2438 H2444 0.984 . S
N2438 H2445 0.984 . S
N2439 C2432 1.356 . S
N2439 H2442 0.984 . S
N2439 H2443 0.985 . S
H2440 N2435 0.984 . S
H2441 N2435 0.985 . S
H2442 N2439 0.984 . S
H2443 N2439 0.985 . S
H2444 N2438 0.984 . S
H2445 N2438 0.984 . S
H2446 N2434 0.984 . S
H2447 N2434 0.985 . S
C2448 C2449 1.363 . S
C2448 C2454 1.379 . S
C2448 N2456 1.356 . S
C2449 C2448 1.363 . S
C2449 C2455 1.363 . S
C2450 C2451 1.363 . S
C2450 C2455 1.379 . S
C2450 N2457 1.382 . S
C2451 C2450 1.363 . S
C2451 C2454 1.363 . S
N2452 C2454 1.356 . S
N2452 H2464 0.984 . S
N2452 H2465 0.985 . S
N2453 C2455 1.356 . S
N2453 H2458 0.984 1_556 S
N2453 H2459 0.985 1_556 S
C2454 C2448 1.379 . S
C2454 C2451 1.363 . S
C2454 N2452 1.356 . S
C2455 C2449 1.363 . S
C2455 C2450 1.379 . S
C2455 N2453 1.356 . S
N2456 C2448 1.356 . S
N2456 H2462 0.984 . S
N2456 H2463 0.984 . S
N2457 C2450 1.382 . S
N2457 H2460 0.971 1_565 S
N2457 H2461 0.971 1_565 S
H2458 N2453 0.984 1_554 S
H2459 N2453 0.985 1_554 S
H2460 N2457 0.971 1_545 S
H2461 N2457 0.971 1_545 S
H2462 N2456 0.984 . S
H2463 N2456 0.984 . S
H2464 N2452 0.984 . S
H2465 N2452 0.985 . S
C2466 C2467 1.357 1_565 S
C2466 C2472 1.372 . S
C2466 N2474 1.371 . S
C2467 C2466 1.357 1_545 S
C2467 C2473 1.363 . S
C2468 C2469 1.363 . S
C2468 C2473 1.379 . S
C2468 N2475 1.356 . S
C2469 C2468 1.363 . S
C2469 C2472 1.363 1_545 S
N2470 C2472 1.356 . S
N2470 H2482 0.984 . S
N2470 H2483 0.985 . S
N2471 C2473 1.356 . S
N2471 H2476 0.984 . S
N2471 H2477 0.985 . S
C2472 C2466 1.372 . S
C2472 C2469 1.363 1_565 S
C2472 N2470 1.356 . S
C2473 C2467 1.363 . S
C2473 C2468 1.379 . S
C2473 N2471 1.356 . S
N2474 C2466 1.371 . S
N2474 H2480 0.984 . S
N2474 H2481 0.987 1_565 S
N2475 C2468 1.356 . S
N2475 H2478 0.984 . S
N2475 H2479 0.985 . S
H2476 N2471 0.984 . S
H2477 N2471 0.985 . S
H2478 N2475 0.984 . S
H2479 N2475 0.985 . S
H2480 N2474 0.984 . S
H2481 N2474 0.987 1_545 S
H2482 N2470 0.984 . S
H2483 N2470 0.985 . S
C2484 C2485 1.363 . S
C2484 C2490 1.379 . S
C2484 N2492 1.356 . S
C2485 C2484 1.363 . S
C2485 C2491 1.363 1_655 S
C2486 C2487 1.363 1_455 S
C2486 C2491 1.379 . S
C2486 N2493 1.356 . S
C2487 C2486 1.363 1_655 S
C2487 C2490 1.363 . S
N2488 C2490 1.356 . S
N2488 H2500 0.984 . S
N2488 H2501 0.985 . S
N2489 C2491 1.356 . S
N2489 H2494 0.984 . S
N2489 H2495 0.985 . S
C2490 C2484 1.379 . S
C2490 C2487 1.363 . S
C2490 N2488 1.356 . S
C2491 C2485 1.363 1_455 S
C2491 C2486 1.379 . S
C2491 N2489 1.356 . S
N2492 C2484 1.356 . S
N2492 H2498 0.984 . S
N2492 H2499 0.984 . S
N2493 C2486 1.356 . S
N2493 H2496 0.984 . S
N2493 H2497 0.985 . S
H2494 N2489 0.984 . S
H2495 N2489 0.985 . S
H2496 N2493 0.984 . S
H2497 N2493 0.985 . S
H2498 N2492 0.984 . S
H2499 N2492 0.984 . S
H2500 N2488 0.984 . S
H2501 N2488 0.985 . S
C2502 C2503 1.363 . S
C2502 C2508 1.379 . S
C2502 N2510 1.356 . S
C2503 C2502 1.363 . S
C2503 C2509 1.363 . S
C2504 C2505 1.363 . S
C2504 C2509 1.379 . S
C2504 N2511 1.356 . S
C2505 C2504 1.363 . S
C2505 C2508 1.363 . S
N2506 C2508 1.356 . S
N2506 H2518 0.984 . S
N2506 H2519 0.985 . S
N2507 C2509 1.356 . S
N2507 H2512 0.984 . S
N2507 H2513 0.985 . S
C2508 C2502 1.379 . S
C2508 C2505 1.363 . S
C2508 N2506 1.356 . S
C2509 C2503 1.363 . S
C2509 C2504 1.379 . S
C2509 N2507 1.356 . S
N2510 C2502 1.356 . S
N2510 H2516 0.984 . S
N2510 H2517 0.984 . S
N2511 C2504 1.356 . S
N2511 H2514 0.984 . S
N2511 H2515 0.985 . S
H2512 N2507 0.984 . S
H2513 N2507 0.985 . S
H2514 N2511 0.984 . S
H2515 N2511 0.985 . S
H2516 N2510 0.984 . S
H2517 N2510 0.984 . S
H2518 N2506 0.984 . S
H2519 N2506 0.985 . S
C2520 C2521 1.363 . S
C2520 C2526 1.379 . S
C2520 N2528 1.356 . S
C2521 C2520 1.363 . S
C2521 C2527 1.363 . S
C2522 C2523 1.363 . S
C2522 C2527 1.379 . S
C2522 N2529 1.356 . S
C2523 C2522 1.363 . S
C2523 C2526 1.363 . S
N2524 C2526 1.356 . S
N2524 H2536 0.984 . S
N2524 H2537 0.985 . S
N2525 C2527 1.356 . S
N2525 H2530 0.984 . S
N2525 H2531 0.985 . S
C2526 C2520 1.379 . S
C2526 C2523 1.363 . S
C2526 N2524 1.356 . S
C2527 C2521 1.363 . S
C2527 C2522 1.379 . S
C2527 N2525 1.356 . S
N2528 C2520 1.356 . S
N2528 H2534 0.984 . S
N2528 H2535 0.984 . S
N2529 C2522 1.356 . S
N2529 H2532 0.984 . S
N2529 H2533 0.985 . S
H2530 N2525 0.984 . S
H2531 N2525 0.985 . S
H2532 N2529 0.984 . S
H2533 N2529 0.985 . S
H2534 N2528 0.984 . S
H2535 N2528 0.984 . S
H2536 N2524 0.984 . S
H2537 N2524 0.985 . S
C2538 C2539 1.363 . S
C2538 C2544 1.379 . S
C2538 N2546 1.356 . S
C2539 C2538 1.363 . S
C2539 C2545 1.363 . S
C2540 C2541 1.363 . S
C2540 C2545 1.379 . S
C2540 N2547 1.356 . S
C2541 C2540 1.363 . S
C2541 C2544 1.363 . S
N2542 C2544 1.356 . S
N2542 H2554 0.984 . S
N2542 H2555 0.985 . S
N2543 C2545 1.356 . S
N2543 H2548 0.984 . S
N2543 H2549 0.985 . S
C2544 C2538 1.379 . S
C2544 C2541 1.363 . S
C2544 N2542 1.356 . S
C2545 C2539 1.363 . S
C2545 C2540 1.379 . S
C2545 N2543 1.356 . S
N2546 C2538 1.356 . S
N2546 H2552 0.984 . S
N2546 H2553 0.984 . S
N2547 C2540 1.356 . S
N2547 H2550 0.984 . S
N2547 H2551 0.985 . S
H2548 N2543 0.984 . S
H2549 N2543 0.985 . S
H2550 N2547 0.984 . S
H2551 N2547 0.985 . S
H2552 N2546 0.984 . S
H2553 N2546 0.984 . S
H2554 N2542 0.984 . S
H2555 N2542 0.985 . S
C2556 C2557 1.363 . S
C2556 C2562 1.379 . S
C2556 N2564 1.356 . S
C2557 C2556 1.363 . S
C2557 C2563 1.363 . S
C2558 C2559 1.363 . S
C2558 C2563 1.379 . S
C2558 N2565 1.356 . S
C2559 C2558 1.363 . S
C2559 C2562 1.363 . S
N2560 C2562 1.356 . S
N2560 H2572 0.984 . S
N2560 H2573 0.985 . S
N2561 C2563 1.356 . S
N2561 H2566 0.984 . S
N2561 H2567 0.985 . S
C2562 C2556 1.379 . S
C2562 C2559 1.363 . S
C2562 N2560 1.356 . S
C2563 C2557 1.363 . S
C2563 C2558 1.379 . S
C2563 N2561 1.356 . S
N2564 C2556 1.356 . S
N2564 H2570 0.984 . S
N2564 H2571 0.984 . S
N2565 C2558 1.356 . S
N2565 H2568 0.984 . S
N2565 H2569 0.985 . S
H2566 N2561 0.984 . S
H2567 N2561 0.985 . S
H2568 N2565 0.984 . S
H2569 N2565 0.985 . S
H2570 N2564 0.984 . S
H2571 N2564 0.984 . S
H2572 N2560 0.984 . S
H2573 N2560 0.985 . S
C2574 C2575 1.363 . S
C2574 C2580 1.379 . S
C2574 N2582 1.356 . S
C2575 C2574 1.363 . S
C2575 C2581 1.363 . S
C2576 C2577 1.363 . S
C2576 C2581 1.379 . S
C2576 N2583 1.356 . S
C2577 C2576 1.363 . S
C2577 C2580 1.363 . S
N2578 C2580 1.356 . S
N2578 H2590 0.984 . S
N2578 H2591 0.985 . S
N2579 C2581 1.356 . S
N2579 H2584 0.984 . S
N2579 H2585 0.985 . S
C2580 C2574 1.379 . S
C2580 C2577 1.363 . S
C2580 N2578 1.356 . S
C2581 C2575 1.363 . S
C2581 C2576 1.379 . S
C2581 N2579 1.356 . S
N2582 C2574 1.356 . S
N2582 H2588 0.984 . S
N2582 H2589 0.984 . S
N2583 C2576 1.356 . S
N2583 H2586 0.984 . S
N2583 H2587 0.985 . S
H2584 N2579 0.984 . S
H2585 N2579 0.985 . S
H2586 N2583 0.984 . S
H2587 N2583 0.985 . S
H2588 N2582 0.984 . S
H2589 N2582 0.984 . S
H2590 N2578 0.984 . S
H2591 N2578 0.985 . S
C2592 C2593 1.363 . S
C2592 C2598 1.379 . S
C2592 N2600 1.356 . S
C2593 C2592 1.363 . S
C2593 C2599 1.363 . S
C2594 C2595 1.363 . S
C2594 C2599 1.379 . S
C2594 N2601 1.356 . S
C2595 C2594 1.363 . S
C2595 C2598 1.363 . S
N2596 C2598 1.356 . S
N2596 H2608 0.984 . S
N2596 H2609 0.985 . S
N2597 C2599 1.356 . S
N2597 H2602 0.984 . S
N2597 H2603 0.985 . S
C2598 C2592 1.379 . S
C2598 C2595 1.363 . S
C2598 N2596 1.356 . S
C2599 C2593 1.363 . S
C2599 C2594 1.379 . S
C2599 N2597 1.356 . S
N2600 C2592 1.356 . S
N2600 H2606 0.984 . S
N2600 H2607 0.984 . S
N2601 C2594 1.356 . S
N2601 H2604 0.984 . S
N2601 H2605 0.985 . S
H2602 N2597 0.984 . S
H2603 N2597 0.985 . S
H2604 N2601 0.984 . S
H2605 N2601 0.985 . S
H2606 N2600 0.984 . S
H2607 N2600 0.984 . S
H2608 N2596 0.984 . S
H2609 N2596 0.985 . S
C2610 C2611 1.363 . S
C2610 C2616 1.379 . S
C2610 N2618 1.356 . S
C2611 C2610 1.363 . S
C2611 C2617 1.363 . S
C2612 C2613 1.363 . S
C2612 C2617 1.379 . S
C2612 N2619 1.356 . S
C2613 C2612 1.363 . S
C2613 C2616 1.363 . S
N2614 C2616 1.356 . S
N2614 H2626 0.984 . S
N2614 H2627 0.985 . S
N2615 C2617 1.356 . S
N2615 H2620 0.984 . S
N2615 H2621 0.985 1_565 S
C2616 C2610 1.379 . S
C2616 C2613 1.363 . S
C2616 N2614 1.356 . S
C2617 C2611 1.363 . S
C2617 C2612 1.379 . S
C2617 N2615 1.356 . S
N2618 C2610 1.356 . S
N2618 H2624 0.984 . S
N2618 H2625 0.984 . S
N2619 C2612 1.356 . S
N2619 H2622 0.984 . S
N2619 H2623 0.978 . S
H2620 N2615 0.984 . S
H2621 N2615 0.985 1_545 S
H2622 N2619 0.984 . S
H2623 N2619 0.978 . S
H2624 N2618 0.984 . S
H2625 N2618 0.984 . S
H2626 N2614 0.984 . S
H2627 N2614 0.985 . S
C2628 C2629 1.363 . S
C2628 C2634 1.379 . S
C2628 N2636 1.356 . S
C2629 C2628 1.363 . S
C2629 C2635 1.363 . S
C2630 C2631 1.363 . S
C2630 C2635 1.379 . S
C2630 N2637 1.356 . S
C2631 C2630 1.363 . S
C2631 C2634 1.363 . S
N2632 C2634 1.356 . S
N2632 H2644 0.984 . S
N2632 H2645 0.985 . S
N2633 C2635 1.356 . S
N2633 H2638 0.984 . S
N2633 H2639 0.985 . S
C2634 C2628 1.379 . S
C2634 C2631 1.363 . S
C2634 N2632 1.356 . S
C2635 C2629 1.363 . S
C2635 C2630 1.379 . S
C2635 N2633 1.356 . S
N2636 C2628 1.356 . S
N2636 H2642 0.984 . S
N2636 H2643 0.984 . S
N2637 C2630 1.356 . S
N2637 H2640 0.984 . S
N2637 H2641 0.985 . S
H2638 N2633 0.984 . S
H2639 N2633 0.985 . S
H2640 N2637 0.984 . S
H2641 N2637 0.985 . S
H2642 N2636 0.984 . S
H2643 N2636 0.984 . S
H2644 N2632 0.984 . S
H2645 N2632 0.985 . S
C2646 C2647 1.363 . S
C2646 C2652 1.379 . S
C2646 N2654 1.356 . S
C2647 C2646 1.363 . S
C2647 C2653 1.363 . S
C2648 C2649 1.363 . S
C2648 C2653 1.379 . S
C2648 N2655 1.356 . S
C2649 C2648 1.363 . S
C2649 C2652 1.363 . S
N2650 C2652 1.356 . S
N2650 H2662 0.984 . S
N2650 H2663 0.985 . S
N2651 C2653 1.356 . S
N2651 H2656 0.984 . S
N2651 H2657 0.985 . S
C2652 C2646 1.379 . S
C2652 C2649 1.363 . S
C2652 N2650 1.356 . S
C2653 C2647 1.363 . S
C2653 C2648 1.379 . S
C2653 N2651 1.356 . S
N2654 C2646 1.356 . S
N2654 H2660 0.984 . S
N2654 H2661 0.984 . S
N2655 C2648 1.356 . S
N2655 H2658 0.984 . S
N2655 H2659 0.985 . S
H2656 N2651 0.984 . S
H2657 N2651 0.985 . S
H2658 N2655 0.984 . S
H2659 N2655 0.985 . S
H2660 N2654 0.984 . S
H2661 N2654 0.984 . S
H2662 N2650 0.984 . S
H2663 N2650 0.985 . S
C2664 C2665 1.363 . S
C2664 C2670 1.379 . S
C2664 N2672 1.356 . S
C2665 C2664 1.363 . S
C2665 C2671 1.363 . S
C2666 C2667 1.363 . S
C2666 C2671 1.379 . S
C2666 N2673 1.356 . S
C2667 C2666 1.363 . S
C2667 C2670 1.363 . S
N2668 C2670 1.356 . S
N2668 H2680 0.984 . S
N2668 H2681 0.985 . S
N2669 C2671 1.356 . S
N2669 H2674 0.984 . S
N2669 H2675 0.985 . S
C2670 C2664 1.379 . S
C2670 C2667 1.363 . S
C2670 N2668 1.356 . S
C2671 C2665 1.363 . S
C2671 C2666 1.379 . S
C2671 N2669 1.356 . S
N2672 C2664 1.356 . S
N2672 H2678 0.984 . S
N2672 H2679 0.984 . S
N2673 C2666 1.356 . S
N2673 H2676 0.984 . S
N2673 H2677 0.985 . S
H2674 N2669 0.984 . S
H2675 N2669 0.985 . S
H2676 N2673 0.984 . S
H2677 N2673 0.985 . S
H2678 N2672 0.984 . S
H2679 N2672 0.984 . S
H2680 N2668 0.984 . S
H2681 N2668 0.985 . S
C2682 C2683 1.363 . S
C2682 C2688 1.379 . S
C2682 N2690 1.356 . S
C2683 C2682 1.363 . S
C2683 C2689 1.363 . S
C2684 C2685 1.363 . S
C2684 C2689 1.379 . S
C2684 N2691 1.356 . S
C2685 C2684 1.363 . S
C2685 C2688 1.363 . S
N2686 C2688 1.356 . S
N2686 H2698 0.984 . S
N2686 H2699 0.985 . S
N2687 C2689 1.356 . S
N2687 H2692 0.984 . S
N2687 H2693 0.985 . S
C2688 C2682 1.379 . S
C2688 C2685 1.363 . S
C2688 N2686 1.356 . S
C2689 C2683 1.363 . S
C2689 C2684 1.379 . S
C2689 N2687 1.356 . S
N2690 C2682 1.356 . S
N2690 H2696 0.984 . S
N2690 H2697 0.984 . S
N2691 C2684 1.356 . S
N2691 H2694 0.984 . S
N2691 H2695 0.985 . S
H2692 N2687 0.984 . S
H2693 N2687 0.985 . S
H2694 N2691 0.984 . S
H2695 N2691 0.985 . S
H2696 N2690 0.984 . S
H2697 N2690 0.984 . S
H2698 N2686 0.984 . S
H2699 N2686 0.985 . S
C2700 C2701 1.363 . S
C2700 C2706 1.379 . S
C2700 N2708 1.356 . S
C2701 C2700 1.363 . S
C2701 C2707 1.363 . S
C2702 C2703 1.363 . S
C2702 C2707 1.379 . S
C2702 N2709 1.356 . S
C2703 C2702 1.363 . S
C2703 C2706 1.363 . S
N2704 C2706 1.356 . S
N2704 H2716 0.984 . S
N2704 H2717 0.985 . S
N2705 C2707 1.356 . S
N2705 H2710 0.984 . S
N2705 H2711 0.985 . S
C2706 C2700 1.379 . S
C2706 C2703 1.363 . S
C2706 N2704 1.356 . S
C2707 C2701 1.363 . S
C2707 C2702 1.379 . S
C2707 N2705 1.356 . S
N2708 C2700 1.356 . S
N2708 H2714 0.984 . S
N2708 H2715 0.984 . S
N2709 C2702 1.356 . S
N2709 H2712 0.984 . S
N2709 H2713 0.985 . S
H2710 N2705 0.984 . S
H2711 N2705 0.985 . S
H2712 N2709 0.984 . S
H2713 N2709 0.985 . S
H2714 N2708 0.984 . S
H2715 N2708 0.984 . S
H2716 N2704 0.984 . S
H2717 N2704 0.985 . S
C2718 C2719 1.363 . S
C2718 C2724 1.379 . S
C2718 N2726 1.356 . S
C2719 C2718 1.363 . S
C2719 C2725 1.363 . S
C2720 C2721 1.363 . S
C2720 C2725 1.379 . S
C2720 N2727 1.356 . S
C2721 C2720 1.363 . S
C2721 C2724 1.363 . S
N2722 C2724 1.356 . S
N2722 H2734 0.984 . S
N2722 H2735 0.985 . S
N2723 C2725 1.356 . S
N2723 H2728 0.984 . S
N2723 H2729 0.985 . S
C2724 C2718 1.379 . S
C2724 C2721 1.363 . S
C2724 N2722 1.356 . S
C2725 C2719 1.363 . S
C2725 C2720 1.379 . S
C2725 N2723 1.356 . S
N2726 C2718 1.356 . S
N2726 H2732 0.984 . S
N2726 H2733 0.984 . S
N2727 C2720 1.356 . S
N2727 H2730 0.984 . S
N2727 H2731 0.985 . S
H2728 N2723 0.984 . S
H2729 N2723 0.985 . S
H2730 N2727 0.984 . S
H2731 N2727 0.985 . S
H2732 N2726 0.984 . S
H2733 N2726 0.984 . S
H2734 N2722 0.984 . S
H2735 N2722 0.985 . S
C2736 C2737 1.363 . S
C2736 C2742 1.379 . S
C2736 N2744 1.356 . S
C2737 C2736 1.363 . S
C2737 C2743 1.363 . S
C2738 C2739 1.363 . S
C2738 C2743 1.379 . S
C2738 N2745 1.356 . S
C2739 C2738 1.363 . S
C2739 C2742 1.363 . S
N2740 C2742 1.356 . S
N2740 H2752 0.984 . S
N2740 H2753 0.985 . S
N2741 C2743 1.356 . S
N2741 H2746 0.984 . S
N2741 H2747 0.985 1_545 S
C2742 C2736 1.379 . S
C2742 C2739 1.363 . S
C2742 N2740 1.356 . S
C2743 C2737 1.363 . S
C2743 C2738 1.379 . S
C2743 N2741 1.356 . S
N2744 C2736 1.356 . S
N2744 H2750 0.984 . S
N2744 H2751 0.984 . S
N2745 C2738 1.356 . S
N2745 H2748 0.984 . S
N2745 H2749 0.985 . S
H2746 N2741 0.984 . S
H2747 N2741 0.985 1_565 S
H2748 N2745 0.984 . S
H2749 N2745 0.985 . S
H2750 N2744 0.984 . S
H2751 N2744 0.984 . S
H2752 N2740 0.984 . S
H2753 N2740 0.985 . S
C2754 C2755 1.363 . S
C2754 C2760 1.379 . S
C2754 N2762 1.356 . S
C2755 C2754 1.363 . S
C2755 C2761 1.363 . S
C2756 C2757 1.363 . S
C2756 C2761 1.379 . S
C2756 N2763 1.356 . S
C2757 C2756 1.363 . S
C2757 C2760 1.363 . S
N2758 C2760 1.356 . S
N2758 H2770 0.984 . S
N2758 H2771 0.985 . S
N2759 C2761 1.356 . S
N2759 H2764 0.984 . S
N2759 H2765 0.985 . S
C2760 C2754 1.379 . S
C2760 C2757 1.363 . S
C2760 N2758 1.356 . S
C2761 C2755 1.363 . S
C2761 C2756 1.379 . S
C2761 N2759 1.356 . S
N2762 C2754 1.356 . S
N2762 H2768 0.984 . S
N2762 H2769 0.984 . S
N2763 C2756 1.356 . S
N2763 H2766 0.984 . S
N2763 H2767 0.985 . S
H2764 N2759 0.984 . S
H2765 N2759 0.985 . S
H2766 N2763 0.984 . S
H2767 N2763 0.985 . S
H2768 N2762 0.984 . S
H2769 N2762 0.984 . S
H2770 N2758 0.984 . S
H2771 N2758 0.985 . S
C2772 C2773 1.363 . S
C2772 C2778 1.379 . S
C2772 N2780 1.356 . S
C2773 C2772 1.363 . S
C2773 C2779 1.363 . S
C2774 C2775 1.363 . S
C2774 C2779 1.379 . S
C2774 N2781 1.356 . S
C2775 C2774 1.363 . S
C2775 C2778 1.363 . S
N2776 C2778 1.356 . S
N2776 H2788 0.984 . S
N2776 H2789 0.985 . S
N2777 C2779 1.356 . S
N2777 H2782 0.984 . S
N2777 H2783 0.985 . S
C2778 C2772 1.379 . S
C2778 C2775 1.363 . S
C2778 N2776 1.356 . S
C2779 C2773 1.363 . S
C2779 C2774 1.379 . S
C2779 N2777 1.356 . S
N2780 C2772 1.356 . S
N2780 H2786 0.984 . S
N2780 H2787 0.984 . S
N2781 C2774 1.356 . S
N2781 H2784 0.984 . S
N2781 H2785 0.985 . S
H2782 N2777 0.984 . S
H2783 N2777 0.985 . S
H2784 N2781 0.984 . S
H2785 N2781 0.985 . S
H2786 N2780 0.984 . S
H2787 N2780 0.984 . S
H2788 N2776 0.984 . S
H2789 N2776 0.985 . S
C2790 C2791 1.363 . S
C2790 C2796 1.379 . S
C2790 N2798 1.356 . S
C2791 C2790 1.363 . S
C2791 C2797 1.363 . S
C2792 C2793 1.363 . S
C2792 C2797 1.379 . S
C2792 N2799 1.356 . S
C2793 C2792 1.363 . S
C2793 C2796 1.363 . S
N2794 C2796 1.356 . S
N2794 H2806 0.984 . S
N2794 H2807 0.985 . S
N2795 C2797 1.356 . S
N2795 H2800 0.984 . S
N2795 H2801 0.985 . S
C2796 C2790 1.379 . S
C2796 C2793 1.363 . S
C2796 N2794 1.356 . S
C2797 C2791 1.363 . S
C2797 C2792 1.379 . S
C2797 N2795 1.356 . S
N2798 C2790 1.356 . S
N2798 H2804 0.984 . S
N2798 H2805 0.984 . S
N2799 C2792 1.356 . S
N2799 H2802 0.984 . S
N2799 H2803 0.985 . S
H2800 N2795 0.984 . S
H2801 N2795 0.985 . S
H2802 N2799 0.984 . S
H2803 N2799 0.985 . S
H2804 N2798 0.984 . S
H2805 N2798 0.984 . S
H2806 N2794 0.984 . S
H2807 N2794 0.985 . S
C2808 C2809 1.363 . S
C2808 C2814 1.379 . S
C2808 N2816 1.356 . S
C2809 C2808 1.363 . S
C2809 C2815 1.363 . S
C2810 C2811 1.363 . S
C2810 C2815 1.379 . S
C2810 N2817 1.356 . S
C2811 C2810 1.363 . S
C2811 C2814 1.363 . S
N2812 C2814 1.356 . S
N2812 H2824 0.984 . S
N2812 H2825 0.985 . S
N2813 C2815 1.356 . S
N2813 H2818 0.984 . S
N2813 H2819 0.985 . S
C2814 C2808 1.379 . S
C2814 C2811 1.363 . S
C2814 N2812 1.356 . S
C2815 C2809 1.363 . S
C2815 C2810 1.379 . S
C2815 N2813 1.356 . S
N2816 C2808 1.356 . S
N2816 H2822 0.984 . S
N2816 H2823 0.984 . S
N2817 C2810 1.356 . S
N2817 H2820 0.984 . S
N2817 H2821 0.985 . S
H2818 N2813 0.984 . S
H2819 N2813 0.985 . S
H2820 N2817 0.984 . S
H2821 N2817 0.985 . S
H2822 N2816 0.984 . S
H2823 N2816 0.984 . S
H2824 N2812 0.984 . S
H2825 N2812 0.985 . S
C2826 C2827 1.363 . S
C2826 C2832 1.379 . S
C2826 N2834 1.356 . S
C2827 C2826 1.363 . S
C2827 C2833 1.363 . S
C2828 C2829 1.363 . S
C2828 C2833 1.379 . S
C2828 N2835 1.356 . S
C2829 C2828 1.363 . S
C2829 C2832 1.363 . S
N2830 C2832 1.356 . S
N2830 H2842 0.984 . S
N2830 H2843 0.985 . S
N2831 C2833 1.356 . S
N2831 H2836 0.984 . S
N2831 H2837 0.985 . S
C2832 C2826 1.379 . S
C2832 C2829 1.363 . S
C2832 N2830 1.356 . S
C2833 C2827 1.363 . S
C2833 C2828 1.379 . S
C2833 N2831 1.356 . S
N2834 C2826 1.356 . S
N2834 H2840 0.984 . S
N2834 H2841 0.984 . S
N2835 C2828 1.356 . S
N2835 H2838 0.984 . S
N2835 H2839 0.985 . S
H2836 N2831 0.984 . S
H2837 N2831 0.985 . S
H2838 N2835 0.984 . S
H2839 N2835 0.985 . S
H2840 N2834 0.984 . S
H2841 N2834 0.984 . S
H2842 N2830 0.984 . S
H2843 N2830 0.985 . S
C2844 C2845 1.363 . S
C2844 C2850 1.379 . S
C2844 N2852 1.356 . S
C2845 C2844 1.363 . S
C2845 C2851 1.363 . S
C2846 C2847 1.363 . S
C2846 C2851 1.379 . S
C2846 N2853 1.356 . S
C2847 C2846 1.363 . S
C2847 C2850 1.363 . S
N2848 C2850 1.356 . S
N2848 H2860 0.984 . S
N2848 H2861 0.985 . S
N2849 C2851 1.356 . S
N2849 H2854 0.984 . S
N2849 H2855 0.985 . S
C2850 C2844 1.379 . S
C2850 C2847 1.363 . S
C2850 N2848 1.356 . S
C2851 C2845 1.363 . S
C2851 C2846 1.379 . S
C2851 N2849 1.356 . S
N2852 C2844 1.356 . S
N2852 H2858 0.984 . S
N2852 H2859 0.984 . S
N2853 C2846 1.356 . S
N2853 H2856 0.984 . S
N2853 H2857 0.985 . S
H2854 N2849 0.984 . S
H2855 N2849 0.985 . S
H2856 N2853 0.984 . S
H2857 N2853 0.985 . S
H2858 N2852 0.984 . S
H2859 N2852 0.984 . S
H2860 N2848 0.984 . S
H2861 N2848 0.985 . S
C2862 C2863 1.363 . S
C2862 C2868 1.379 . S
C2862 N2870 1.356 . S
C2863 C2862 1.363 . S
C2863 C2869 1.363 . S
C2864 C2865 1.363 . S
C2864 C2869 1.379 . S
C2864 N2871 1.356 . S
C2865 C2864 1.363 . S
C2865 C2868 1.363 . S
N2866 C2868 1.356 . S
N2866 H2878 0.984 . S
N2866 H2879 0.985 . S
N2867 C2869 1.356 . S
N2867 H2872 0.984 . S
N2867 H2873 0.985 . S
C2868 C2862 1.379 . S
C2868 C2865 1.363 . S
C2868 N2866 1.356 . S
C2869 C2863 1.363 . S
C2869 C2864 1.379 . S
C2869 N2867 1.356 . S
N2870 C2862 1.356 . S
N2870 H2876 0.984 . S
N2870 H2877 0.984 . S
N2871 C2864 1.356 . S
N2871 H2874 0.984 . S
N2871 H2875 0.985 . S
H2872 N2867 0.984 . S
H2873 N2867 0.985 . S
H2874 N2871 0.984 . S
H2875 N2871 0.985 . S
H2876 N2870 0.984 . S
H2877 N2870 0.984 . S
H2878 N2866 0.984 . S
H2879 N2866 0.985 . S
C2880 C2881 1.363 . S
C2880 C2886 1.379 . S
C2880 N2888 1.356 . S
C2881 C2880 1.363 . S
C2881 C2887 1.363 . S
C2882 C2883 1.363 . S
C2882 C2887 1.379 . S
C2882 N2889 1.356 . S
C2883 C2882 1.363 . S
C2883 C2886 1.363 . S
N2884 C2886 1.356 . S
N2884 H2896 0.984 . S
N2884 H2897 0.985 . S
N2885 C2887 1.356 . S
N2885 H2890 0.984 . S
N2885 H2891 0.985 . S
C2886 C2880 1.379 . S
C2886 C2883 1.363 . S
C2886 N2884 1.356 . S
C2887 C2881 1.363 . S
C2887 C2882 1.379 . S
C2887 N2885 1.356 . S
N2888 C2880 1.356 . S
N2888 H2894 0.984 . S
N2888 H2895 0.984 . S
N2889 C2882 1.356 . S
N2889 H2892 0.984 . S
N2889 H2893 0.985 . S
H2890 N2885 0.984 . S
H2891 N2885 0.985 . S
H2892 N2889 0.984 . S
H2893 N2889 0.985 . S
H2894 N2888 0.984 . S
H2895 N2888 0.984 . S
H2896 N2884 0.984 . S
H2897 N2884 0.985 . S
C2898 C2899 1.363 . S
C2898 C2904 1.379 . S
C2898 N2906 1.356 . S
C2899 C2898 1.363 . S
C2899 C2905 1.363 . S
C2900 C2901 1.363 . S
C2900 C2905 1.379 . S
C2900 N2907 1.356 . S
C2901 C2900 1.363 . S
C2901 C2904 1.363 . S
N2902 C2904 1.356 . S
N2902 H2914 0.984 . S
N2902 H2915 0.985 . S
N2903 C2905 1.356 . S
N2903 H2908 0.984 . S
N2903 H2909 0.985 . S
C2904 C2898 1.379 . S
C2904 C2901 1.363 . S
C2904 N2902 1.356 . S
C2905 C2899 1.363 . S
C2905 C2900 1.379 . S
C2905 N2903 1.356 . S
N2906 C2898 1.356 . S
N2906 H2912 0.984 . S
N2906 H2913 0.984 . S
N2907 C2900 1.356 . S
N2907 H2910 0.984 . S
N2907 H2911 0.985 . S
H2908 N2903 0.984 . S
H2909 N2903 0.985 . S
H2910 N2907 0.984 . S
H2911 N2907 0.985 . S
H2912 N2906 0.984 . S
H2913 N2906 0.984 . S
H2914 N2902 0.984 . S
H2915 N2902 0.985 . S
C2916 C2917 1.363 . S
C2916 C2922 1.379 . S
C2916 N2924 1.356 . S
C2917 C2916 1.363 . S
C2917 C2923 1.363 . S
C2918 C2919 1.363 . S
C2918 C2923 1.379 . S
C2918 N2925 1.356 . S
C2919 C2918 1.363 . S
C2919 C2922 1.363 . S
N2920 C2922 1.356 . S
N2920 H2932 0.984 . S
N2920 H2933 0.985 . S
N2921 C2923 1.356 . S
N2921 H2926 0.984 . S
N2921 H2927 0.985 . S
C2922 C2916 1.379 . S
C2922 C2919 1.363 . S
C2922 N2920 1.356 . S
C2923 C2917 1.363 . S
C2923 C2918 1.379 . S
C2923 N2921 1.356 . S
N2924 C2916 1.356 . S
N2924 H2930 0.984 . S
N2924 H2931 0.984 . S
N2925 C2918 1.356 . S
N2925 H2928 0.984 . S
N2925 H2929 0.985 . S
H2926 N2921 0.984 . S
H2927 N2921 0.985 . S
H2928 N2925 0.984 . S
H2929 N2925 0.985 . S
H2930 N2924 0.984 . S
H2931 N2924 0.984 . S
H2932 N2920 0.984 . S
H2933 N2920 0.985 . S
C2934 C2935 1.363 . S
C2934 C2940 1.379 . S
C2934 N2942 1.356 . S
C2935 C2934 1.363 . S
C2935 C2941 1.363 . S
C2936 C2937 1.363 . S
C2936 C2941 1.379 . S
C2936 N2943 1.356 . S
C2937 C2936 1.363 . S
C2937 C2940 1.363 . S
N2938 C2940 1.356 . S
N2938 H2950 0.984 . S
N2938 H2951 0.985 . S
N2939 C2941 1.356 . S
N2939 H2944 0.984 . S
N2939 H2945 1.024 . S
C2940 C2934 1.379 . S
C2940 C2937 1.363 . S
C2940 N2938 1.356 . S
C2941 C2935 1.363 . S
C2941 C2936 1.379 . S
C2941 N2939 1.356 . S
N2942 C2934 1.356 . S
N2942 H2948 0.984 . S
N2942 H2949 0.984 . S
N2943 C2936 1.356 . S
N2943 H2946 0.984 . S
N2943 H2947 0.985 . S
H2944 N2939 0.984 . S
H2945 N2939 1.024 . S
H2946 N2943 0.984 . S
H2947 N2943 0.985 . S
H2948 N2942 0.984 . S
H2949 N2942 0.984 . S
H2950 N2938 0.984 . S
H2951 N2938 0.985 . S
C2952 C2953 1.363 . S
C2952 C2958 1.379 . S
C2952 N2960 1.356 . S
C2953 C2952 1.363 . S
C2953 C2959 1.363 . S
C2954 C2955 1.363 . S
C2954 C2959 1.379 . S
C2954 N2961 1.356 . S
C2955 C2954 1.363 . S
C2955 C2958 1.363 . S
N2956 C2958 1.356 . S
N2956 H2968 0.984 . S
N2956 H2969 0.985 . S
N2957 C2959 1.356 . S
N2957 H2962 0.984 . S
N2957 H2963 0.985 . S
C2958 C2952 1.379 . S
C2958 C2955 1.363 . S
C2958 N2956 1.356 . S
C2959 C2953 1.363 . S
C2959 C2954 1.379 . S
C2959 N2957 1.356 . S
N2960 C2952 1.356 . S
N2960 H2966 0.984 . S
N2960 H2967 0.984 . S
N2961 C2954 1.356 . S
N2961 H2964 0.984 . S
N2961 H2965 0.985 . S
H2962 N2957 0.984 . S
H2963 N2957 0.985 . S
H2964 N2961 0.984 . S
H2965 N2961 0.985 . S
H2966 N2960 0.984 . S
H2967 N2960 0.984 . S
H2968 N2956 0.984 . S
H2969 N2956 0.985 . S
C2970 C2971 1.363 . S
C2970 C2976 1.379 . S
C2970 N2978 1.356 . S
C2971 C2970 1.363 . S
C2971 C2977 1.363 . S
C2972 C2973 1.363 . S
C2972 C2977 1.379 . S
C2972 N2979 1.356 . S
C2973 C2972 1.363 . S
C2973 C2976 1.363 . S
N2974 C2976 1.356 . S
N2974 H2986 0.984 . S
N2974 H2987 0.985 . S
N2975 C2977 1.356 . S
N2975 H2980 0.984 . S
N2975 H2981 0.985 . S
C2976 C2970 1.379 . S
C2976 C2973 1.363 . S
C2976 N2974 1.356 . S
C2977 C2971 1.363 . S
C2977 C2972 1.379 . S
C2977 N2975 1.356 . S
N2978 C2970 1.356 . S
N2978 H2984 0.984 . S
N2978 H2985 0.984 . S
N2979 C2972 1.356 . S
N2979 H2982 0.984 . S
N2979 H2983 0.985 . S
H2980 N2975 0.984 . S
H2981 N2975 0.985 . S
H2982 N2979 0.984 . S
H2983 N2979 0.985 . S
H2984 N2978 0.984 . S
H2985 N2978 0.984 . S
H2986 N2974 0.984 . S
H2987 N2974 0.985 . S
C2988 C2989 1.363 . S
C2988 C2994 1.379 . S
C2988 N2996 1.356 . S
C2989 C2988 1.363 . S
C2989 C2995 1.363 . S
C2990 C2991 1.363 . S
C2990 C2995 1.379 . S
C2990 N2997 1.356 . S
C2991 C2990 1.363 . S
C2991 C2994 1.363 . S
N2992 C2994 1.356 . S
N2992 H3004 0.984 . S
N2992 H3005 0.985 . S
N2993 C2995 1.356 . S
N2993 H2998 0.984 . S
N2993 H2999 0.985 . S
C2994 C2988 1.379 . S
C2994 C2991 1.363 . S
C2994 N2992 1.356 . S
C2995 C2989 1.363 . S
C2995 C2990 1.379 . S
C2995 N2993 1.356 . S
N2996 C2988 1.356 . S
N2996 H3002 0.984 1_554 S
N2996 H3003 0.984 . S
N2997 C2990 1.356 . S
N2997 H3000 0.984 . S
N2997 H3001 0.985 . S
H2998 N2993 0.984 . S
H2999 N2993 0.985 . S
H3000 N2997 0.984 . S
H3001 N2997 0.985 . S
H3002 N2996 0.984 1_556 S
H3003 N2996 0.984 . S
H3004 N2992 0.984 . S
H3005 N2992 0.985 . S
C3006 C3007 1.363 . S
C3006 C3012 1.379 . S
C3006 N3014 1.356 . S
C3007 C3006 1.363 . S
C3007 C3013 1.363 . S
C3008 C3009 1.363 . S
C3008 C3013 1.379 . S
C3008 N3015 1.356 . S
C3009 C3008 1.363 . S
C3009 C3012 1.363 . S
N3010 C3012 1.356 . S
N3010 H3022 0.984 . S
N3010 H3023 0.985 . S
N3011 C3013 1.356 1_554 S
N3011 H3016 0.984 . S
N3011 H3017 0.985 . S
C3012 C3006 1.379 . S
C3012 C3009 1.363 . S
C3012 N3010 1.356 . S
C3013 C3007 1.363 . S
C3013 C3008 1.379 . S
C3013 N3011 1.356 1_556 S
N3014 C3006 1.356 . S
N3014 H3020 0.984 . S
N3014 H3021 0.984 . S
N3015 C3008 1.356 . S
N3015 H3018 0.984 . S
N3015 H3019 0.985 . S
H3016 N3011 0.984 . S
H3017 N3011 0.985 . S
H3018 N3015 0.984 . S
H3019 N3015 0.985 . S
H3020 N3014 0.984 . S
H3021 N3014 0.984 . S
H3022 N3010 0.984 . S
H3023 N3010 0.985 . S
C3024 C3025 1.363 . S
C3024 C3030 1.379 . S
C3024 N3032 1.356 . S
C3025 C3024 1.363 . S
C3025 C3031 1.363 . S
C3026 C3027 1.363 . S
C3026 C3031 1.379 . S
C3026 N3033 1.356 . S
C3027 C3026 1.363 . S
C3027 C3030 1.363 . S
N3028 C3030 1.356 . S
N3028 H3040 0.984 . S
N3028 H3041 0.985 . S
N3029 C3031 1.356 1_554 S
N3029 H3034 0.984 . S
N3029 H3035 0.985 . S
C3030 C3024 1.379 . S
C3030 C3027 1.363 . S
C3030 N3028 1.356 . S
C3031 C3025 1.363 . S
C3031 C3026 1.379 . S
C3031 N3029 1.356 1_556 S
N3032 C3024 1.356 . S
N3032 H3038 0.984 . S
N3032 H3039 0.984 . S
N3033 C3026 1.356 . S
N3033 H3036 0.984 . S
N3033 H3037 0.985 . S
H3034 N3029 0.984 . S
H3035 N3029 0.985 . S
H3036 N3033 0.984 . S
H3037 N3033 0.985 . S
H3038 N3032 0.984 . S
H3039 N3032 0.984 . S
H3040 N3028 0.984 . S
H3041 N3028 0.985 . S
C3042 C3043 1.363 . S
C3042 C3048 1.379 . S
C3042 N3050 1.356 1_556 S
C3043 C3042 1.363 . S
C3043 C3049 1.363 . S
C3044 C3045 1.363 . S
C3044 C3049 1.379 . S
C3044 N3051 1.356 . S
C3045 C3044 1.363 . S
C3045 C3048 1.363 . S
N3046 C3048 1.356 . S
N3046 H3058 0.984 1_556 S
N3046 H3059 0.985 . S
N3047 C3049 1.356 . S
N3047 H3052 0.984 . S
N3047 H3053 0.985 . S
C3048 C3042 1.379 . S
C3048 C3045 1.363 . S
C3048 N3046 1.356 . S
C3049 C3043 1.363 . S
C3049 C3044 1.379 . S
C3049 N3047 1.356 . S
N3050 C3042 1.356 1_554 S
N3050 H3056 0.984 . S
N3050 H3057 0.984 . S
N3051 C3044 1.356 . S
N3051 H3054 0.984 . S
N3051 H3055 0.985 . S
H3052 N3047 0.984 . S
H3053 N3047 0.985 . S
H3054 N3051 0.984 . S
H3055 N3051 0.985 . S
H3056 N3050 0.984 . S
H3057 N3050 0.984 . S
H3058 N3046 0.984 1_554 S
H3059 N3046 0.985 . S
C3060 C3061 1.363 . S
C3060 C3066 1.379 . S
C3060 N3068 1.356 1_556 S
C3061 C3060 1.363 . S
C3061 C3067 1.363 . S
C3062 C3063 1.363 . S
C3062 C3067 1.379 . S
C3062 N3069 1.356 . S
C3063 C3062 1.363 . S
C3063 C3066 1.363 . S
N3064 C3066 1.356 . S
N3064 H3076 0.984 . S
N3064 H3077 0.985 . S
N3065 C3067 1.356 . S
N3065 H3070 0.984 . S
N3065 H3071 0.985 . S
C3066 C3060 1.379 . S
C3066 C3063 1.363 . S
C3066 N3064 1.356 . S
C3067 C3061 1.363 . S
C3067 C3062 1.379 . S
C3067 N3065 1.356 . S
N3068 C3060 1.356 1_554 S
N3068 H3074 0.984 . S
N3068 H3075 0.984 . S
N3069 C3062 1.356 . S
N3069 H3072 0.984 . S
N3069 H3073 0.985 . S
H3070 N3065 0.984 . S
H3071 N3065 0.985 . S
H3072 N3069 0.984 . S
H3073 N3069 0.985 . S
H3074 N3068 0.984 . S
H3075 N3068 0.984 . S
H3076 N3064 0.984 . S
H3077 N3064 0.985 . S
C3078 C3079 1.363 . S
C3078 C3084 1.379 . S
C3078 N3086 1.356 . S
C3079 C3078 1.363 . S
C3079 C3085 1.363 . S
C3080 C3081 1.363 . S
C3080 C3085 1.379 . S
C3080 N3087 1.356 . S
C3081 C3080 1.363 . S
C3081 C3084 1.363 . S
N3082 C3084 1.356 . S
N3082 H3094 0.984 . S
N3082 H3095 0.985 . S
N3083 C3085 1.356 . S
N3083 H3088 0.984 . S
N3083 H3089 0.985 . S
C3084 C3078 1.379 . S
C3084 C3081 1.363 . S
C3084 N3082 1.356 . S
C3085 C3079 1.363 . S
C3085 C3080 1.379 . S
C3085 N3083 1.356 . S
N3086 C3078 1.356 . S
N3086 H3092 0.984 1_556 S
N3086 H3093 0.993 . S
N3087 C3080 1.356 . S
N3087 H3090 0.984 . S
N3087 H3091 0.985 . S
H3088 N3083 0.984 . S
H3089 N3083 0.985 . S
H3090 N3087 0.984 . S
H3091 N3087 0.985 . S
H3092 N3086 0.984 1_554 S
H3093 N3086 0.993 . S
H3094 N3082 0.984 . S
H3095 N3082 0.985 . S
C3096 C3097 1.363 . S
C3096 C3102 1.379 . S
C3096 N3104 1.356 . S
C3097 C3096 1.363 . S
C3097 C3103 1.363 . S
C3098 C3099 1.363 . S
C3098 C3103 1.379 . S
C3098 N3105 1.356 . S
C3099 C3098 1.363 . S
C3099 C3102 1.363 . S
N3100 C3102 1.356 . S
N3100 H3112 0.984 . S
N3100 H3113 0.985 . S
N3101 C3103 1.356 . S
N3101 H3106 0.984 1_556 S
N3101 H3107 0.985 1_545 S
C3102 C3096 1.379 . S
C3102 C3099 1.363 . S
C3102 N3100 1.356 . S
C3103 C3097 1.363 . S
C3103 C3098 1.379 . S
C3103 N3101 1.356 . S
N3104 C3096 1.356 . S
N3104 H3110 0.984 . S
N3104 H3111 0.984 . S
N3105 C3098 1.356 . S
N3105 H3108 0.984 . S
N3105 H3109 0.985 . S
H3106 N3101 0.984 1_554 S
H3107 N3101 0.985 1_565 S
H3108 N3105 0.984 . S
H3109 N3105 0.985 . S
H3110 N3104 0.984 . S
H3111 N3104 0.984 . S
H3112 N3100 0.984 . S
H3113 N3100 0.985 . S
C3114 C3115 1.363 . S
C3114 C3120 1.379 . S
C3114 N3122 1.356 . S
C3115 C3114 1.363 . S
C3115 C3121 1.363 . S
C3116 C3117 1.363 . S
C3116 C3121 1.379 . S
C3116 N3123 1.356 . S
C3117 C3116 1.363 . S
C3117 C3120 1.363 . S
N3118 C3120 1.356 . S
N3118 H3130 0.984 . S
N3118 H3131 0.985 . S
N3119 C3121 1.356 . S
N3119 H3124 0.984 . S
N3119 H3125 0.985 . S
C3120 C3114 1.379 . S
C3120 C3117 1.363 . S
C3120 N3118 1.356 . S
C3121 C3115 1.363 . S
C3121 C3116 1.379 . S
C3121 N3119 1.356 . S
N3122 C3114 1.356 . S
N3122 H3128 0.984 . S
N3122 H3129 0.984 . S
N3123 C3116 1.356 . S
N3123 H3126 0.984 . S
N3123 H3127 0.985 . S
H3124 N3119 0.984 . S
H3125 N3119 0.985 . S
H3126 N3123 0.984 . S
H3127 N3123 0.985 . S
H3128 N3122 0.984 . S
H3129 N3122 0.984 . S
H3130 N3118 0.984 . S
H3131 N3118 0.985 . S
C3132 C3133 1.363 . S
C3132 C3138 1.379 . S
C3132 N3140 1.356 . S
C3133 C3132 1.363 . S
C3133 C3139 1.363 . S
C3134 C3135 1.363 . S
C3134 C3139 1.379 . S
C3134 N3141 1.356 . S
C3135 C3134 1.363 . S
C3135 C3138 1.363 . S
N3136 C3138 1.356 . S
N3136 H3148 0.984 . S
N3136 H3149 0.985 . S
N3137 C3139 1.356 . S
N3137 H3142 0.984 . S
N3137 H3143 0.985 . S
C3138 C3132 1.379 . S
C3138 C3135 1.363 . S
C3138 N3136 1.356 . S
C3139 C3133 1.363 . S
C3139 C3134 1.379 . S
C3139 N3137 1.356 . S
N3140 C3132 1.356 . S
N3140 H3146 0.984 . S
N3140 H3147 0.984 . S
N3141 C3134 1.356 . S
N3141 H3144 0.984 . S
N3141 H3145 0.985 . S
H3142 N3137 0.984 . S
H3143 N3137 0.985 . S
H3144 N3141 0.984 . S
H3145 N3141 0.985 . S
H3146 N3140 0.984 . S
H3147 N3140 0.984 . S
H3148 N3136 0.984 . S
H3149 N3136 0.985 . S
C3150 C3151 1.363 . S
C3150 C3156 1.379 . S
C3150 N3158 1.356 . S
C3151 C3150 1.363 . S
C3151 C3157 1.363 . S
C3152 C3153 1.363 . S
C3152 C3157 1.379 . S
C3152 N3159 1.356 . S
C3153 C3152 1.363 . S
C3153 C3156 1.363 . S
N3154 C3156 1.356 . S
N3154 H3166 0.984 . S
N3154 H3167 0.985 . S
N3155 C3157 1.356 . S
N3155 H3160 0.984 . S
N3155 H3161 0.985 . S
C3156 C3150 1.379 . S
C3156 C3153 1.363 . S
C3156 N3154 1.356 . S
C3157 C3151 1.363 . S
C3157 C3152 1.379 . S
C3157 N3155 1.356 . S
N3158 C3150 1.356 . S
N3158 H3164 0.984 1_554 S
N3158 H3165 0.984 . S
N3159 C3152 1.356 . S
N3159 H3162 0.984 . S
N3159 H3163 0.985 . S
H3160 N3155 0.984 . S
H3161 N3155 0.985 . S
H3162 N3159 0.984 . S
H3163 N3159 0.985 . S
H3164 N3158 0.984 1_556 S
H3165 N3158 0.984 . S
H3166 N3154 0.984 . S
H3167 N3154 0.985 . S
C3168 C3169 1.363 . S
C3168 C3174 1.379 . S
C3168 N3176 1.356 . S
C3169 C3168 1.363 . S
C3169 C3175 1.363 . S
C3170 C3171 1.363 . S
C3170 C3175 1.379 . S
C3170 N3177 1.356 . S
C3171 C3170 1.363 . S
C3171 C3174 1.363 . S
N3172 C3174 1.356 . S
N3172 H3184 0.984 . S
N3172 H3185 0.985 . S
N3173 C3175 1.356 . S
N3173 H3178 0.984 . S
N3173 H3179 0.985 . S
C3174 C3168 1.379 . S
C3174 C3171 1.363 . S
C3174 N3172 1.356 . S
C3175 C3169 1.363 . S
C3175 C3170 1.379 . S
C3175 N3173 1.356 . S
N3176 C3168 1.356 . S
N3176 H3182 0.984 . S
N3176 H3183 0.984 . S
N3177 C3170 1.356 . S
N3177 H3180 0.984 . S
N3177 H3181 0.985 . S
H3178 N3173 0.984 . S
H3179 N3173 0.985 . S
H3180 N3177 0.984 . S
H3181 N3177 0.985 . S
H3182 N3176 0.984 . S
H3183 N3176 0.984 . S
H3184 N3172 0.984 . S
H3185 N3172 0.985 . S
C3186 C3187 1.363 . S
C3186 C3192 1.379 . S
C3186 N3194 1.356 . S
C3187 C3186 1.363 . S
C3187 C3193 1.363 . S
C3188 C3189 1.363 . S
C3188 C3193 1.379 . S
C3188 N3195 1.356 . S
C3189 C3188 1.363 . S
C3189 C3192 1.363 . S
N3190 C3192 1.356 . S
N3190 H3202 0.984 . S
N3190 H3203 0.985 . S
N3191 C3193 1.356 . S
N3191 H3196 0.984 . S
N3191 H3197 0.985 . S
C3192 C3186 1.379 . S
C3192 C3189 1.363 . S
C3192 N3190 1.356 . S
C3193 C3187 1.363 . S
C3193 C3188 1.379 . S
C3193 N3191 1.356 . S
N3194 C3186 1.356 . S
N3194 H3200 0.984 . S
N3194 H3201 0.984 . S
N3195 C3188 1.356 . S
N3195 H3198 0.984 . S
N3195 H3199 0.985 . S
H3196 N3191 0.984 . S
H3197 N3191 0.985 . S
H3198 N3195 0.984 . S
H3199 N3195 0.985 . S
H3200 N3194 0.984 . S
H3201 N3194 0.984 . S
H3202 N3190 0.984 . S
H3203 N3190 0.985 . S
C3204 C3205 1.363 . S
C3204 C3210 1.379 . S
C3204 N3212 1.356 . S
C3205 C3204 1.363 . S
C3205 C3211 1.363 . S
C3206 C3207 1.363 . S
C3206 C3211 1.379 . S
C3206 N3213 1.356 . S
C3207 C3206 1.363 . S
C3207 C3210 1.363 . S
N3208 C3210 1.356 . S
N3208 H3220 0.984 . S
N3208 H3221 0.985 . S
N3209 C3211 1.356 . S
N3209 H3214 0.984 . S
N3209 H3215 0.985 . S
C3210 C3204 1.379 . S
C3210 C3207 1.363 . S
C3210 N3208 1.356 . S
C3211 C3205 1.363 . S
C3211 C3206 1.379 . S
C3211 N3209 1.356 . S
N3212 C3204 1.356 . S
N3212 H3218 0.984 . S
N3212 H3219 0.984 . S
N3213 C3206 1.356 . S
N3213 H3216 0.984 . S
N3213 H3217 0.985 . S
H3214 N3209 0.984 . S
H3215 N3209 0.985 . S
H3216 N3213 0.984 . S
H3217 N3213 0.985 . S
H3218 N3212 0.984 . S
H3219 N3212 0.984 . S
H3220 N3208 0.984 . S
H3221 N3208 0.985 . S
C3222 C3223 1.363 . S
C3222 C3228 1.379 . S
C3222 N3230 1.356 . S
C3223 C3222 1.363 . S
C3223 C3229 1.363 . S
C3224 C3225 1.363 . S
C3224 C3229 1.379 . S
C3224 N3231 1.356 1_455 S
C3225 C3224 1.363 . S
C3225 C3228 1.363 . S
N3226 C3228 1.356 . S
N3226 H3238 0.984 . S
N3226 H3239 0.985 . S
N3227 C3229 1.356 . S
N3227 H3232 0.984 . S
N3227 H3233 0.985 1_455 S
C3228 C3222 1.379 . S
C3228 C3225 1.363 . S
C3228 N3226 1.356 . S
C3229 C3223 1.363 . S
C3229 C3224 1.379 . S
C3229 N3227 1.356 . S
N3230 C3222 1.356 . S
N3230 H3236 0.984 . S
N3230 H3237 0.984 . S
N3231 C3224 1.356 1_655 S
N3231 H3234 0.984 . S
N3231 H3235 0.985 . S
H3232 N3227 0.984 . S
H3233 N3227 0.985 1_655 S
H3234 N3231 0.984 . S
H3235 N3231 0.985 . S
H3236 N3230 0.984 . S
H3237 N3230 0.984 . S
H3238 N3226 0.984 . S
H3239 N3226 0.985 . S
C3240 C3241 1.363 . S
C3240 C3246 1.379 . S
C3240 N3248 1.356 . S
C3241 C3240 1.363 . S
C3241 C3247 1.363 . S
C3242 C3243 1.363 . S
C3242 C3247 1.379 . S
C3242 N3249 1.356 . S
C3243 C3242 1.363 . S
C3243 C3246 1.363 . S
N3244 C3246 1.356 . S
N3244 H3256 0.984 . S
N3244 H3257 0.985 . S
N3245 C3247 1.356 . S
N3245 H3250 0.984 . S
N3245 H3251 0.985 . S
C3246 C3240 1.379 . S
C3246 C3243 1.363 . S
C3246 N3244 1.356 . S
C3247 C3241 1.363 . S
C3247 C3242 1.379 . S
C3247 N3245 1.356 . S
N3248 C3240 1.356 . S
N3248 H3254 0.984 . S
N3248 H3255 0.984 . S
N3249 C3242 1.356 . S
N3249 H3252 0.984 . S
N3249 H3253 0.985 . S
H3250 N3245 0.984 . S
H3251 N3245 0.985 . S
H3252 N3249 0.984 . S
H3253 N3249 0.985 . S
H3254 N3248 0.984 . S
H3255 N3248 0.984 . S
H3256 N3244 0.984 . S
H3257 N3244 0.985 . S
C3258 C3259 1.363 . S
C3258 C3264 1.379 . S
C3258 N3266 1.356 . S
C3259 C3258 1.363 . S
C3259 C3265 1.363 1_565 S
C3260 C3261 1.363 1_545 S
C3260 C3265 1.379 . S
C3260 N3267 1.356 . S
C3261 C3260 1.363 1_565 S
C3261 C3264 1.363 . S
N3262 C3264 1.356 . S
N3262 H3274 0.984 . S
N3262 H3275 0.985 . S
N3263 C3265 1.356 . S
N3263 H3268 0.984 . S
N3263 H3269 0.985 . S
C3264 C3258 1.379 . S
C3264 C3261 1.363 . S
C3264 N3262 1.356 . S
C3265 C3259 1.363 1_545 S
C3265 C3260 1.379 . S
C3265 N3263 1.356 . S
N3266 C3258 1.356 . S
N3266 H3272 0.984 . S
N3266 H3273 0.984 . S
N3267 C3260 1.356 . S
N3267 H3270 0.984 . S
N3267 H3271 0.985 . S
H3268 N3263 0.984 . S
H3269 N3263 0.985 . S
H3270 N3267 0.984 . S
H3271 N3267 0.985 . S
H3272 N3266 0.984 . S
H3273 N3266 0.984 . S
H3274 N3262 0.984 . S
H3275 N3262 0.985 . S
C3276 C3277 1.363 1_545 S
C3276 C3282 1.379 . S
C3276 N3284 1.356 . S
C3277 C3276 1.363 1_565 S
C3277 C3283 1.363 . S
C3278 C3279 1.363 . S
C3278 C3283 1.379 . S
C3278 N3285 1.356 . S
C3279 C3278 1.363 . S
C3279 C3282 1.363 1_565 S
N3280 C3282 1.356 . S
N3280 H3292 0.984 . S
N3280 H3293 0.985 . S
N3281 C3283 1.356 . S
N3281 H3286 0.984 . S
N3281 H3287 0.985 . S
C3282 C3276 1.379 . S
C3282 C3279 1.363 1_545 S
C3282 N3280 1.356 . S
C3283 C3277 1.363 . S
C3283 C3278 1.379 . S
C3283 N3281 1.356 . S
N3284 C3276 1.356 . S
N3284 H3290 0.984 . S
N3284 H3291 0.984 . S
N3285 C3278 1.356 . S
N3285 H3288 0.984 . S
N3285 H3289 0.985 . S
H3286 N3281 0.984 . S
H3287 N3281 0.985 . S
H3288 N3285 0.984 . S
H3289 N3285 0.985 . S
H3290 N3284 0.984 . S
H3291 N3284 0.984 . S
H3292 N3280 0.984 . S
H3293 N3280 0.985 . S
C3294 C3295 1.363 . S
C3294 C3300 1.379 . S
C3294 N3302 1.356 . S
C3295 C3294 1.363 . S
C3295 C3301 1.365 . S
C3296 C3297 1.363 1_655 S
C3296 C3301 1.388 1_655 S
C3296 N3303 1.356 . S
C3297 C3296 1.363 1_455 S
C3297 C3300 1.363 . S
N3298 C3300 1.356 . S
N3298 H3310 0.984 . S
N3298 H3311 0.985 . S
N3299 C3301 1.346 1_655 S
N3299 H3304 0.984 1_655 S
N3299 H3305 0.985 . S
C3300 C3294 1.379 . S
C3300 C3297 1.363 . S
C3300 N3298 1.356 . S
C3301 C3295 1.365 . S
C3301 C3296 1.388 1_455 S
C3301 N3299 1.346 1_455 S
N3302 C3294 1.356 . S
N3302 H3308 0.984 . S
N3302 H3309 0.984 . S
N3303 C3296 1.356 . S
N3303 H3306 0.984 . S
N3303 H3307 0.985 . S
H3304 N3299 0.984 1_455 S
H3305 N3299 0.985 . S
H3306 N3303 0.984 . S
H3307 N3303 0.985 . S
H3308 N3302 0.984 . S
H3309 N3302 0.984 . S
H3310 N3298 0.984 . S
H3311 N3298 0.985 . S
C3312 C3313 1.363 . S
C3312 C3318 1.379 . S
C3312 N3320 1.356 . S
C3313 C3312 1.363 . S
C3313 C3319 1.363 . S
C3314 C3315 1.363 . S
C3314 C3319 1.379 . S
C3314 N3321 1.356 . S
C3315 C3314 1.363 . S
C3315 C3318 1.363 . S
N3316 C3318 1.356 . S
N3316 H3328 0.984 . S
N3316 H3329 0.985 . S
N3317 C3319 1.356 . S
N3317 H3322 0.984 . S
N3317 H3323 0.985 . S
C3318 C3312 1.379 . S
C3318 C3315 1.363 . S
C3318 N3316 1.356 . S
C3319 C3313 1.363 . S
C3319 C3314 1.379 . S
C3319 N3317 1.356 . S
N3320 C3312 1.356 . S
N3320 H3326 0.984 . S
N3320 H3327 0.984 . S
N3321 C3314 1.356 . S
N3321 H3324 0.984 . S
N3321 H3325 0.985 . S
H3322 N3317 0.984 . S
H3323 N3317 0.985 . S
H3324 N3321 0.984 . S
H3325 N3321 0.985 . S
H3326 N3320 0.984 . S
H3327 N3320 0.984 . S
H3328 N3316 0.984 . S
H3329 N3316 0.985 . S
C3330 C3331 1.363 . S
C3330 C3336 1.379 . S
C3330 N3338 1.356 . S
C3331 C3330 1.363 . S
C3331 C3337 1.363 . S
C3332 C3333 1.363 . S
C3332 C3337 1.379 . S
C3332 N3339 1.356 . S
C3333 C3332 1.363 . S
C3333 C3336 1.363 . S
N3334 C3336 1.356 . S
N3334 H3346 0.984 . S
N3334 H3347 0.985 . S
N3335 C3337 1.356 . S
N3335 H3340 0.984 . S
N3335 H3341 0.985 . S
C3336 C3330 1.379 . S
C3336 C3333 1.363 . S
C3336 N3334 1.356 . S
C3337 C3331 1.363 . S
C3337 C3332 1.379 . S
C3337 N3335 1.356 . S
N3338 C3330 1.356 . S
N3338 H3344 0.984 . S
N3338 H3345 0.984 . S
N3339 C3332 1.356 . S
N3339 H3342 0.984 . S
N3339 H3343 0.985 . S
H3340 N3335 0.984 . S
H3341 N3335 0.985 . S
H3342 N3339 0.984 . S
H3343 N3339 0.985 . S
H3344 N3338 0.984 . S
H3345 N3338 0.984 . S
H3346 N3334 0.984 . S
H3347 N3334 0.985 . S
C3348 C3349 1.363 . S
C3348 C3354 1.379 . S
C3348 N3356 1.356 . S
C3349 C3348 1.363 . S
C3349 C3355 1.363 . S
C3350 C3351 1.363 . S
C3350 C3355 1.379 . S
C3350 N3357 1.356 . S
C3351 C3350 1.363 . S
C3351 C3354 1.363 . S
N3352 C3354 1.356 . S
N3352 H3364 0.984 . S
N3352 H3365 0.985 . S
N3353 C3355 1.356 . S
N3353 H3358 0.984 . S
N3353 H3359 0.985 . S
C3354 C3348 1.379 . S
C3354 C3351 1.363 . S
C3354 N3352 1.356 . S
C3355 C3349 1.363 . S
C3355 C3350 1.379 . S
C3355 N3353 1.356 . S
N3356 C3348 1.356 . S
N3356 H3362 0.984 . S
N3356 H3363 0.984 . S
N3357 C3350 1.356 . S
N3357 H3360 0.984 . S
N3357 H3361 0.985 . S
H3358 N3353 0.984 . S
H3359 N3353 0.985 . S
H3360 N3357 0.984 . S
H3361 N3357 0.985 . S
H3362 N3356 0.984 . S
H3363 N3356 0.984 . S
H3364 N3352 0.984 . S
H3365 N3352 0.985 . S
C3366 C3367 1.363 . S
C3366 C3372 1.379 . S
C3366 N3374 1.356 . S
C3367 C3366 1.363 . S
C3367 C3373 1.363 . S
C3368 C3369 1.363 . S
C3368 C3373 1.379 . S
C3368 N3375 1.356 . S
C3369 C3368 1.363 . S
C3369 C3372 1.363 . S
N3370 C3372 1.356 . S
N3370 H3382 0.984 . S
N3370 H3383 0.985 . S
N3371 C3373 1.356 . S
N3371 H3376 0.984 . S
N3371 H3377 0.985 . S
C3372 C3366 1.379 . S
C3372 C3369 1.363 . S
C3372 N3370 1.356 . S
C3373 C3367 1.363 . S
C3373 C3368 1.379 . S
C3373 N3371 1.356 . S
N3374 C3366 1.356 . S
N3374 H3380 0.984 . S
N3374 H3381 0.984 . S
N3375 C3368 1.356 . S
N3375 H3378 0.984 . S
N3375 H3379 0.985 . S
H3376 N3371 0.984 . S
H3377 N3371 0.985 . S
H3378 N3375 0.984 . S
H3379 N3375 0.985 . S
H3380 N3374 0.984 . S
H3381 N3374 0.984 . S
H3382 N3370 0.984 . S
H3383 N3370 0.985 . S
C3384 C3385 1.363 1_565 S
C3384 C3390 1.379 . S
C3384 N3392 1.356 . S
C3385 C3384 1.363 1_545 S
C3385 C3391 1.363 . S
C3386 C3387 1.363 . S
C3386 C3391 1.379 . S
C3386 N3393 1.356 . S
C3387 C3386 1.363 . S
C3387 C3390 1.363 1_545 S
N3388 C3390 1.356 . S
N3388 H3400 0.984 . S
N3388 H3401 0.985 . S
N3389 C3391 1.356 . S
N3389 H3394 0.984 . S
N3389 H3395 0.985 . S
C3390 C3384 1.379 . S
C3390 C3387 1.363 1_565 S
C3390 N3388 1.356 . S
C3391 C3385 1.363 . S
C3391 C3386 1.379 . S
C3391 N3389 1.356 . S
N3392 C3384 1.356 . S
N3392 H3398 0.984 . S
N3392 H3399 0.984 . S
N3393 C3386 1.356 . S
N3393 H3396 0.984 . S
N3393 H3397 0.985 . S
H3394 N3389 0.984 . S
H3395 N3389 0.985 . S
H3396 N3393 0.984 . S
H3397 N3393 0.985 . S
H3398 N3392 0.984 . S
H3399 N3392 0.984 . S
H3400 N3388 0.984 . S
H3401 N3388 0.985 . S
C3402 C3403 1.363 . S
C3402 C3408 1.379 . S
C3402 N3410 1.356 1_655 S
C3403 C3402 1.363 . S
C3403 C3409 1.363 . S
C3404 C3405 1.363 . S
C3404 C3409 1.379 . S
C3404 N3411 1.356 . S
C3405 C3404 1.363 . S
C3405 C3408 1.363 . S
N3406 C3408 1.356 1_455 S
N3406 H3418 0.984 . S
N3406 H3419 0.985 . S
N3407 C3409 1.356 . S
N3407 H3412 0.984 . S
N3407 H3413 0.985 . S
C3408 C3402 1.379 . S
C3408 C3405 1.363 . S
C3408 N3406 1.356 1_655 S
C3409 C3403 1.363 . S
C3409 C3404 1.379 . S
C3409 N3407 1.356 . S
N3410 C3402 1.356 1_455 S
N3410 H3416 0.984 . S
N3410 H3417 0.984 1_455 S
N3411 C3404 1.356 . S
N3411 H3414 0.984 . S
N3411 H3415 0.985 . S
H3412 N3407 0.984 . S
H3413 N3407 0.985 . S
H3414 N3411 0.984 . S
H3415 N3411 0.985 . S
H3416 N3410 0.984 . S
H3417 N3410 0.984 1_655 S
H3418 N3406 0.984 . S
H3419 N3406 0.985 . S
C3420 C3421 1.363 . S
C3420 C3426 1.379 . S
C3420 N3428 1.356 . S
C3421 C3420 1.363 . S
C3421 C3427 1.363 . S
C3422 C3423 1.363 . S
C3422 C3427 1.379 . S
C3422 N3429 1.356 . S
C3423 C3422 1.363 . S
C3423 C3426 1.363 . S
N3424 C3426 1.356 . S
N3424 H3436 0.984 . S
N3424 H3437 0.985 . S
N3425 C3427 1.356 . S
N3425 H3430 0.984 . S
N3425 H3431 0.985 . S
C3426 C3420 1.379 . S
C3426 C3423 1.363 . S
C3426 N3424 1.356 . S
C3427 C3421 1.363 . S
C3427 C3422 1.379 . S
C3427 N3425 1.356 . S
N3428 C3420 1.356 . S
N3428 H3434 0.984 . S
N3428 H3435 0.984 . S
N3429 C3422 1.356 . S
N3429 H3432 0.984 . S
N3429 H3433 0.985 . S
H3430 N3425 0.984 . S
H3431 N3425 0.985 . S
H3432 N3429 0.984 . S
H3433 N3429 0.985 . S
H3434 N3428 0.984 . S
H3435 N3428 0.984 . S
H3436 N3424 0.984 . S
H3437 N3424 0.985 . S
C3438 C3439 1.363 . S
C3438 C3444 1.379 . S
C3438 N3446 1.356 . S
C3439 C3438 1.363 . S
C3439 C3445 1.363 . S
C3440 C3441 1.363 . S
C3440 C3445 1.379 . S
C3440 N3447 1.356 . S
C3441 C3440 1.363 . S
C3441 C3444 1.363 . S
N3442 C3444 1.356 . S
N3442 H3454 0.984 . S
N3442 H3455 0.985 . S
N3443 C3445 1.356 . S
N3443 H3448 0.984 . S
N3443 H3449 0.985 . S
C3444 C3438 1.379 . S
C3444 C3441 1.363 . S
C3444 N3442 1.356 . S
C3445 C3439 1.363 . S
C3445 C3440 1.379 . S
C3445 N3443 1.356 . S
N3446 C3438 1.356 . S
N3446 H3452 0.984 . S
N3446 H3453 0.984 . S
N3447 C3440 1.356 . S
N3447 H3450 0.984 . S
N3447 H3451 0.985 . S
H3448 N3443 0.984 . S
H3449 N3443 0.985 . S
H3450 N3447 0.984 . S
H3451 N3447 0.985 . S
H3452 N3446 0.984 . S
H3453 N3446 0.984 . S
H3454 N3442 0.984 . S
H3455 N3442 0.985 . S
C3456 C3457 1.363 . S
C3456 C3462 1.379 . S
C3456 N3464 1.356 . S
C3457 C3456 1.363 . S
C3457 C3463 1.363 . S
C3458 C3459 1.363 . S
C3458 C3463 1.379 . S
C3458 N3465 1.356 . S
C3459 C3458 1.363 . S
C3459 C3462 1.363 . S
N3460 C3462 1.356 . S
N3460 H3472 0.984 . S
N3460 H3473 0.985 . S
N3461 C3463 1.356 . S
N3461 H3466 0.984 . S
N3461 H3467 0.985 . S
C3462 C3456 1.379 . S
C3462 C3459 1.363 . S
C3462 N3460 1.356 . S
C3463 C3457 1.363 . S
C3463 C3458 1.379 . S
C3463 N3461 1.356 . S
N3464 C3456 1.356 . S
N3464 H3470 0.984 . S
N3464 H3471 0.984 . S
N3465 C3458 1.356 . S
N3465 H3468 0.984 . S
N3465 H3469 0.985 . S
H3466 N3461 0.984 . S
H3467 N3461 0.985 . S
H3468 N3465 0.984 . S
H3469 N3465 0.985 . S
H3470 N3464 0.984 . S
H3471 N3464 0.984 . S
H3472 N3460 0.984 . S
H3473 N3460 0.985 . S
C3474 C3475 1.363 . S
C3474 C3480 1.379 . S
C3474 N3482 1.356 . S
C3475 C3474 1.363 . S
C3475 C3481 1.363 . S
C3476 C3477 1.363 . S
C3476 C3481 1.379 . S
C3476 N3483 1.356 . S
C3477 C3476 1.363 . S
C3477 C3480 1.363 . S
N3478 C3480 1.356 . S
N3478 H3490 0.984 . S
N3478 H3491 0.985 . S
N3479 C3481 1.356 . S
N3479 H3484 0.984 . S
N3479 H3485 0.985 . S
C3480 C3474 1.379 . S
C3480 C3477 1.363 . S
C3480 N3478 1.356 . S
C3481 C3475 1.363 . S
C3481 C3476 1.379 . S
C3481 N3479 1.356 . S
N3482 C3474 1.356 . S
N3482 H3488 0.984 . S
N3482 H3489 0.984 . S
N3483 C3476 1.356 . S
N3483 H3486 0.984 . S
N3483 H3487 0.985 . S
H3484 N3479 0.984 . S
H3485 N3479 0.985 . S
H3486 N3483 0.984 . S
H3487 N3483 0.985 . S
H3488 N3482 0.984 . S
H3489 N3482 0.984 . S
H3490 N3478 0.984 . S
H3491 N3478 0.985 . S
C3492 C3493 1.363 . S
C3492 C3498 1.379 . S
C3492 N3500 1.356 . S
C3493 C3492 1.363 . S
C3493 C3499 1.363 . S
C3494 C3495 1.363 . S
C3494 C3499 1.379 . S
C3494 N3501 1.356 . S
C3495 C3494 1.363 . S
C3495 C3498 1.363 . S
N3496 C3498 1.356 . S
N3496 H3508 0.984 . S
N3496 H3509 0.985 . S
N3497 C3499 1.356 . S
N3497 H3502 0.984 . S
N3497 H3503 0.985 . S
C3498 C3492 1.379 . S
C3498 C3495 1.363 . S
C3498 N3496 1.356 . S
C3499 C3493 1.363 . S
C3499 C3494 1.379 . S
C3499 N3497 1.356 . S
N3500 C3492 1.356 . S
N3500 H3506 0.984 . S
N3500 H3507 0.984 . S
N3501 C3494 1.356 . S
N3501 H3504 0.984 . S
N3501 H3505 0.985 . S
H3502 N3497 0.984 . S
H3503 N3497 0.985 . S
H3504 N3501 0.984 . S
H3505 N3501 0.985 . S
H3506 N3500 0.984 . S
H3507 N3500 0.984 . S
H3508 N3496 0.984 . S
H3509 N3496 0.985 . S
C3510 C3511 1.363 . S
C3510 C3516 1.379 . S
C3510 N3518 1.356 . S
C3511 C3510 1.363 . S
C3511 C3517 1.363 . S
C3512 C3513 1.363 . S
C3512 C3517 1.379 . S
C3512 N3519 1.356 . S
C3513 C3512 1.363 . S
C3513 C3516 1.363 . S
N3514 C3516 1.356 . S
N3514 H3526 0.984 . S
N3514 H3527 0.985 . S
N3515 C3517 1.356 . S
N3515 H3520 0.984 . S
N3515 H3521 0.985 . S
C3516 C3510 1.379 . S
C3516 C3513 1.363 . S
C3516 N3514 1.356 . S
C3517 C3511 1.363 . S
C3517 C3512 1.379 . S
C3517 N3515 1.356 . S
N3518 C3510 1.356 . S
N3518 H3524 0.984 . S
N3518 H3525 0.984 . S
N3519 C3512 1.356 . S
N3519 H3522 0.984 . S
N3519 H3523 0.985 . S
H3520 N3515 0.984 . S
H3521 N3515 0.985 . S
H3522 N3519 0.984 . S
H3523 N3519 0.985 . S
H3524 N3518 0.984 . S
H3525 N3518 0.984 . S
H3526 N3514 0.984 . S
H3527 N3514 0.985 . S
C3528 C3529 1.363 . S
C3528 C3534 1.379 . S
C3528 N3536 1.356 . S
C3529 C3528 1.363 . S
C3529 C3535 1.363 . S
C3530 C3531 1.363 . S
C3530 C3535 1.379 . S
C3530 N3537 1.356 . S
C3531 C3530 1.363 . S
C3531 C3534 1.363 . S
N3532 C3534 1.356 . S
N3532 H3544 0.984 . S
N3532 H3545 0.985 . S
N3533 C3535 1.356 . S
N3533 H3538 0.984 . S
N3533 H3539 0.985 . S
C3534 C3528 1.379 . S
C3534 C3531 1.363 . S
C3534 N3532 1.356 . S
C3535 C3529 1.363 . S
C3535 C3530 1.379 . S
C3535 N3533 1.356 . S
N3536 C3528 1.356 . S
N3536 H3542 0.984 . S
N3536 H3543 0.984 . S
N3537 C3530 1.356 . S
N3537 H3540 0.984 . S
N3537 H3541 0.985 . S
H3538 N3533 0.984 . S
H3539 N3533 0.985 . S
H3540 N3537 0.984 . S
H3541 N3537 0.985 . S
H3542 N3536 0.984 . S
H3543 N3536 0.984 . S
H3544 N3532 0.984 . S
H3545 N3532 0.985 . S
C3546 C3547 1.363 . S
C3546 C3552 1.379 . S
C3546 N3554 1.356 . S
C3547 C3546 1.363 . S
C3547 C3553 1.382 . S
C3548 C3549 1.363 1_455 S
C3548 C3553 1.360 1_455 S
C3548 N3555 1.356 . S
C3549 C3548 1.363 1_655 S
C3549 C3552 1.363 . S
N3550 C3552 1.356 . S
N3550 H3562 0.984 . S
N3550 H3563 0.985 . S
N3551 C3553 1.363 1_455 S
N3551 H3556 0.975 1_455 S
N3551 H3557 0.985 . S
C3552 C3546 1.379 . S
C3552 C3549 1.363 . S
C3552 N3550 1.356 . S
C3553 C3547 1.382 . S
C3553 C3548 1.360 1_655 S
C3553 N3551 1.363 1_655 S
N3554 C3546 1.356 . S
N3554 H3560 0.984 . S
N3554 H3561 0.984 . S
N3555 C3548 1.356 . S
N3555 H3558 0.984 . S
N3555 H3559 0.985 . S
H3556 N3551 0.975 1_655 S
H3557 N3551 0.985 . S
H3558 N3555 0.984 . S
H3559 N3555 0.985 . S
H3560 N3554 0.984 . S
H3561 N3554 0.984 . S
H3562 N3550 0.984 . S
H3563 N3550 0.985 . S
C3564 C3565 1.363 . S
C3564 C3570 1.379 . S
C3564 N3572 1.356 . S
C3565 C3564 1.363 . S
C3565 C3571 1.363 . S
C3566 C3567 1.363 . S
C3566 C3571 1.379 . S
C3566 N3573 1.356 . S
C3567 C3566 1.363 . S
C3567 C3570 1.363 . S
N3568 C3570 1.356 . S
N3568 H3580 0.984 . S
N3568 H3581 0.985 . S
N3569 C3571 1.356 . S
N3569 H3574 0.984 . S
N3569 H3575 0.985 . S
C3570 C3564 1.379 . S
C3570 C3567 1.363 . S
C3570 N3568 1.356 . S
C3571 C3565 1.363 . S
C3571 C3566 1.379 . S
C3571 N3569 1.356 . S
N3572 C3564 1.356 . S
N3572 H3578 0.984 . S
N3572 H3579 0.984 . S
N3573 C3566 1.356 . S
N3573 H3576 0.984 . S
N3573 H3577 0.985 . S
H3574 N3569 0.984 . S
H3575 N3569 0.985 . S
H3576 N3573 0.984 . S
H3577 N3573 0.985 . S
H3578 N3572 0.984 . S
H3579 N3572 0.984 . S
H3580 N3568 0.984 . S
H3581 N3568 0.985 . S
C3582 C3583 1.363 . S
C3582 C3588 1.379 . S
C3582 N3590 1.356 . S
C3583 C3582 1.363 . S
C3583 C3589 1.363 1_545 S
C3584 C3585 1.363 1_565 S
C3584 C3589 1.379 . S
C3584 N3591 1.356 . S
C3585 C3584 1.363 1_545 S
C3585 C3588 1.363 . S
N3586 C3588 1.356 . S
N3586 H3598 0.984 . S
N3586 H3599 0.985 . S
N3587 C3589 1.356 . S
N3587 H3592 0.985 . S
N3587 H3593 0.985 . S
C3588 C3582 1.379 . S
C3588 C3585 1.363 . S
C3588 N3586 1.356 . S
C3589 C3583 1.363 1_565 S
C3589 C3584 1.379 . S
C3589 N3587 1.356 . S
N3590 C3582 1.356 . S
N3590 H3596 0.984 . S
N3590 H3597 0.984 . S
N3591 C3584 1.356 . S
N3591 H3594 0.984 . S
N3591 H3595 0.985 . S
H3592 N3587 0.985 . S
H3593 N3587 0.985 . S
H3594 N3591 0.984 . S
H3595 N3591 0.985 . S
H3596 N3590 0.984 . S
H3597 N3590 0.984 . S
H3598 N3586 0.984 . S
H3599 N3586 0.985 . S
C2305 C13 1.321 . S
C2307 C1307 1.116 1_655 S
C2323 C27 1.445 . S
C2325 C1447 0.963 . S
C2343 C1535 1.160 . S
C2341 C36 1.249 . S
C2359 C41 1.405 . S
C2361 C1675 1.082 1_565 S
C2377 C8 1.373 . S
C2379 C1789 1.128 . S
C2395 C22 1.627 . S
C2397 C1877 1.185 . S
C2413 C55 1.361 . S
C2415 C1763 1.069 . S
C2433 C1903 1.222 . S
C2431 C69 1.367 . S
C2451 C1649 1.122 . S
C2449 C78 1.271 . S
C2467 C83 1.446 . S
C2469 C1561 1.014 . S
C2487 C1333 1.091 . S
C2485 C50 1.382 . S
C2503 C64 1.502 . S
C2505 C1421 1.392 . S
C2521 C97 1.679 . S
C2523 C1991 1.270 . S
C2539 C111 1.560 . S
C2541 C2131 1.049 . S
C2559 C2219 1.247 . S
C2557 C120 1.749 . S
C2575 C125 1.658 . S
C2577 C307 1.095 . S
C2593 C92 1.966 . S
C2595 C421 1.217 . S
C2611 C106 1.761 . S
C2613 C509 1.266 . S
C2629 C139 1.476 . S
C2631 C395 1.478 . S
C2647 C153 1.461 . S
C2649 C535 1.362 . S
C2667 C281 1.528 . S
C2665 C162 1.629 . S
C2685 C2245 1.567 . S
C2683 C167 1.661 . S
C2703 C2017 1.630 . S
C2701 C134 1.804 . S
C2721 C2105 1.553 . S
C2719 C148 1.651 . S
C2737 C181 1.589 . S
C2739 C623 1.180 . S
C2755 C195 1.546 . S
C2757 C763 1.024 . S
C2773 C204 1.764 . S
C2775 C851 1.271 . S
C2791 C209 1.756 . S
C2793 C991 1.187 . S
C2811 C1105 1.206 . S
C2809 C176 1.965 . S
C2829 C1193 1.289 . S
C2827 C190 1.796 . S
C2847 C1079 1.577 . S
C2845 C223 1.579 . S
C2865 C1219 1.401 . S
C2863 C237 1.476 . S
C2881 C246 1.599 . S
C2883 C965 1.500 . S
C2901 C877 1.469 . S
C2899 C251 1.553 . S
C2917 C218 1.822 . S
C2919 C649 1.642 . S
C2937 C737 1.529 . S
C2935 C232 1.623 . S
C2955 C263 0.946 . S
C2953 C11 1.779 . S
C2971 C25 1.612 . S
C2973 C377 0.833 . S
C2991 C481 1.204 . S
C2989 C35 1.780 . S
C3009 C595 1.233 . S
C3007 C39 1.692 . S
C3027 C719 1.008 . S
C3025 C7 1.883 . S
C3045 C823 1.189 . S
C3043 C21 1.766 . S
C3061 C53 1.907 . S
C3063 C833 1.640 . S
C3079 C67 1.738 . S
C3081 C605 1.541 . S
C3097 C77 1.924 . S
C3099 C709 1.750 . S
C3115 C81 1.849 . S
C3117 C367 1.839 . S
C3135 C491 1.704 . S
C3133 C49 2.037 . S
C3151 C63 1.915 . S
C3153 C253 1.750 . S
C3171 C947 0.939 . S
C3169 C95 1.696 . S
C3187 C109 1.684 . S
C3189 C1061 0.896 . S
C3205 C119 1.774 . S
C3207 C1165 1.273 . S
C3225 C1279 1.009 . S
C3223 C123 1.206 . S
C3241 C91 1.729 . S
C3243 C1403 0.944 . S
C3259 C105 1.251 . S
C3261 C1507 1.004 . S
C3277 C137 1.396 . S
C3279 C1517 0.925 1_565 S
C3295 C151 1.183 . S
C3297 C1289 0.834 1_455 S
C3315 C1393 1.580 . S
C3313 C161 1.762 . S
C3331 C165 1.795 . S
C3333 C1051 1.792 . S
C3349 C133 1.991 . S
C3351 C1175 1.662 . S
C3369 C937 1.792 . S
C3367 C147 1.974 . S
C3387 C1631 0.862 . S
C3385 C179 1.397 . S
C3403 C193 1.153 . S
C3405 C1745 0.769 . S
C3421 C203 1.622 . S
C3423 C1849 1.124 . S
C3441 C1963 1.227 . S
C3439 C207 1.633 . S
C3459 C2087 1.082 . S
C3457 C175 1.863 . S
C3475 C189 1.828 . S
C3477 C2191 1.274 . S
C3493 C221 1.828 . S
C3495 C2201 1.570 . S
C3511 C235 1.814 . S
C3513 C1973 1.560 . S
C3531 C2077 1.731 . S
C3529 C245 1.894 . S
C3549 C1735 1.068 1_655 S
C3547 C249 1.210 . S
C3567 C1859 1.520 . S
C3565 C217 1.866 . S
C3583 C231 1.323 . S
C3585 C1621 1.100 1_545 S
