# Generated by pormake.
# Topology rtl, (3,6)-cn, num edge types: 1
# Building blocks:
#     Node 0, Type 0, BuildingBlock: BELTOD_clean_linker_0, # of connection points: 3
#     Node 1, Type 0, BuildingBlock: BELTOD_clean_linker_0, # of connection points: 3
#     Node 2, Type 0, BuildingBlock: BELTOD_clean_linker_0, # of connection points: 3
#     Node 3, Type 0, BuildingBlock: BELTOD_clean_linker_0, # of connection points: 3
#     Node 4, Type 1, BuildingBlock: KUMBOL_clean_sbu_1, # of connection points: 6
#     Node 5, Type 1, BuildingBlock: KUMBOL_clean_sbu_1, # of connection points: 6
#     Edge 6, Type (0, 1), BuildingBlock: CIFDUS_clean_linker_0, # of connection points: 2
#     Edge 7, Type (0, 1), BuildingBlock: CIFDUS_clean_linker_0, # of connection points: 2
#     Edge 8, Type (0, 1), BuildingBlock: CIFDUS_clean_linker_0, # of connection points: 2
#     Edge 9, Type (0, 1), BuildingBlock: CIFDUS_clean_linker_0, # of connection points: 2
#     Edge 10, Type (0, 1), BuildingBlock: CIFDUS_clean_linker_0, # of connection points: 2
#     Edge 11, Type (0, 1), BuildingBlock: CIFDUS_clean_linker_0, # of connection points: 2
#     Edge 12, Type (0, 1), BuildingBlock: CIFDUS_clean_linker_0, # of connection points: 2
#     Edge 13, Type (0, 1), BuildingBlock: CIFDUS_clean_linker_0, # of connection points: 2
#     Edge 14, Type (0, 1), BuildingBlock: CIFDUS_clean_linker_0, # of connection points: 2
#     Edge 15, Type (0, 1), BuildingBlock: CIFDUS_clean_linker_0, # of connection points: 2
#     Edge 16, Type (0, 1), BuildingBlock: CIFDUS_clean_linker_0, # of connection points: 2
#     Edge 17, Type (0, 1), BuildingBlock: CIFDUS_clean_linker_0, # of connection points: 2
# Relax obj value: 0.019
# Max RMSD: 0.107
# Mean RMSD: 0.067
data_MOF--net-rtl--node1-KUMBOL_clean_sbu_1--node2-BELTOD_clean_linker_0--edge1-CIFDUS_clean_linker_0
_symmetry_space_group_name_H-M    P1
_symmetry_Int_Tables_number       1
_symmetry_cell_setting            triclinic
loop_
_symmetry_equiv_pos_as_xyz
'x, y, z'
_cell_length_a     33.332698
_cell_length_b     33.984573
_cell_length_c     29.686613
_cell_angle_alpha  77.195737
_cell_angle_beta   99.982177
_cell_angle_gamma 90.870721
loop_
_atom_site_label
_atom_site_type_symbol
_atom_site_fract_x
_atom_site_fract_y
_atom_site_fract_z
_atom_type_partial_charge
P0 P 0.26267 0.89367 0.01286 0.0
H1 H 0.29469 0.85246 0.10885 0.0
H2 H 0.27285 0.85046 0.18344 0.0
H3 H 0.16638 0.92367 0.11045 0.0
H4 H 0.18738 0.92365 0.03579 0.0
H5 H 0.33547 0.87976 0.97578 0.0
H6 H 0.36977 0.81848 0.97003 0.0
H7 H 0.2797 0.74627 0.0371 0.0
H8 H 0.24596 0.80782 0.04336 0.0
H9 H 0.21579 0.96841 0.97018 0.0
H10 H 0.22742 0.85153 0.93876 0.0
O11 O 0.29652 0.93035 0.01283 0.0
H12 H 0.16944 0.99095 0.89586 0.0
H13 H 0.18407 0.8746 0.86325 0.0
C14 C 0.24247 0.88767 0.06652 0.0
C15 C 0.26611 0.86726 0.10875 0.0
C16 C 0.25383 0.86664 0.15154 0.0
C17 C 0.21802 0.88731 0.15318 0.0
C18 C 0.19388 0.90705 0.11062 0.0
C19 C 0.20604 0.90725 0.06771 0.0
C20 C 0.28894 0.84821 0.01125 0.0
C21 C 0.32342 0.85071 0.98976 0.0
C22 C 0.34269 0.81566 0.98596 0.0
C23 C 0.32754 0.77746 0.00324 0.0
C24 C 0.29253 0.77518 0.02416 0.0
C25 C 0.27327 0.81029 0.02787 0.0
C26 C 0.22506 0.9083 0.96028 0.0
C27 C 0.2082 0.94752 0.9474 0.0
C28 C 0.18212 0.96053 0.90447 0.0
C29 C 0.17318 0.93485 0.87292 0.0
C30 C 0.18954 0.89518 0.88662 0.0
C31 C 0.21487 0.88197 0.92998 0.0
P32 P 0.74621 0.64721 0.66216 0.0
H33 H 0.76613 0.59838 0.5992 0.0
H34 H 0.72647 0.57677 0.53268 0.0
H35 H 0.62173 0.64425 0.54597 0.0
H36 H 0.66141 0.66378 0.61471 0.0
H37 H 0.81407 0.68926 0.70442 0.0
H38 H 0.84584 0.75293 0.67627 0.0
H39 H 0.74654 0.7825 0.55867 0.0
H40 H 0.71573 0.71811 0.58632 0.0
H41 H 0.73508 0.57227 0.72599 0.0
H42 H 0.69453 0.69613 0.70241 0.0
O43 O 0.78849 0.61818 0.67865 0.0
H44 H 0.69822 0.55374 0.79124 0.0
H45 H 0.6572 0.67767 0.76869 0.0
C46 C 0.71662 0.63245 0.61209 0.0
C47 C 0.73458 0.60838 0.58803 0.0
C48 C 0.71186 0.5964 0.54946 0.0
C49 C 0.67079 0.60891 0.53347 0.0
C50 C 0.65303 0.6335 0.55755 0.0
C51 C 0.67572 0.64494 0.59669 0.0
C52 C 0.76286 0.69853 0.64722 0.0
C53 C 0.79875 0.70977 0.67303 0.0
C54 C 0.81685 0.74639 0.65688 0.0
C55 C 0.79914 0.77279 0.61469 0.0
C56 C 0.76159 0.76254 0.59065 0.0
C57 C 0.74365 0.72575 0.60674 0.0
C58 C 0.71845 0.63573 0.71024 0.0
C59 C 0.7185 0.59563 0.73524 0.0
C60 C 0.6974 0.58506 0.77262 0.0
C61 C 0.67533 0.61434 0.7857 0.0
C62 C 0.67408 0.65448 0.75954 0.0
C63 C 0.69557 0.66511 0.72196 0.0
P64 P 0.82723 0.21458 0.04202 0.0
H65 H 0.7843 0.24682 0.94714 0.0
H66 H 0.78472 0.22788 0.8727 0.0
H67 H 0.86292 0.12488 0.94464 0.0
H68 H 0.86173 0.1435 0.01955 0.0
H69 H 0.81362 0.28526 0.0779 0.0
H70 H 0.75271 0.32502 0.07535 0.0
H71 H 0.67849 0.24068 0.01009 0.0
H72 H 0.74003 0.20078 0.01281 0.0
H73 H 0.9064 0.17944 0.0892 0.0
H74 H 0.78186 0.1653 0.11073 0.0
O75 O 0.86412 0.24833 0.03883 0.0
H76 H 0.92953 0.13402 0.16522 0.0
H77 H 0.80492 0.12022 0.18749 0.0
C78 C 0.82197 0.19592 0.98918 0.0
C79 C 0.80038 0.21934 0.94728 0.0
C80 C 0.80072 0.20858 0.90465 0.0
C81 C 0.82366 0.17481 0.90297 0.0
C82 C 0.84493 0.15104 0.94504 0.0
C83 C 0.84407 0.16154 0.98786 0.0
C84 C 0.78138 0.24073 0.04446 0.0
C85 C 0.78427 0.27514 0.06329 0.0
C86 C 0.74936 0.29772 0.06205 0.0
C87 C 0.71083 0.28612 0.04217 0.0
C88 C 0.70785 0.25064 0.02495 0.0
C89 C 0.7429 0.22783 0.02659 0.0
C90 C 0.84255 0.17636 0.09478 0.0
C91 C 0.884 0.16631 0.11019 0.0
C92 C 0.89719 0.14048 0.15374 0.0
C93 C 0.86911 0.12411 0.18273 0.0
C94 C 0.82728 0.13235 0.16595 0.0
C95 C 0.81408 0.1583 0.1222 0.0
P96 P 0.36831 0.26752 0.47544 0.0
H97 H 0.42149 0.25846 0.56697 0.0
H98 H 0.41958 0.28859 0.6339 0.0
H99 H 0.31251 0.35927 0.55742 0.0
H100 H 0.31408 0.32796 0.49094 0.0
H101 H 0.35311 0.18955 0.53182 0.0
H102 H 0.29373 0.14643 0.53275 0.0
H103 H 0.22724 0.23272 0.4154 0.0
H104 H 0.28672 0.27629 0.41521 0.0
H105 H 0.3941 0.35167 0.45756 0.0
H106 H 0.35148 0.2639 0.37636 0.0
O107 O 0.41004 0.23807 0.48626 0.0
H108 H 0.40651 0.39864 0.38684 0.0
H109 H 0.36309 0.31126 0.30493 0.0
C110 C 0.36802 0.29119 0.52395 0.0
C111 C 0.39773 0.2806 0.56447 0.0
C112 C 0.39677 0.2981 0.60266 0.0
C113 C 0.36599 0.32652 0.60105 0.0
C114 C 0.3364 0.33721 0.56007 0.0
C115 C 0.33734 0.31953 0.52196 0.0
C116 C 0.3247 0.23558 0.4727 0.0
C117 C 0.3259 0.19904 0.50596 0.0
C118 C 0.29189 0.17454 0.50666 0.0
C119 C 0.25595 0.18612 0.47399 0.0
C120 C 0.25476 0.22281 0.44056 0.0
C121 C 0.28874 0.24765 0.44035 0.0
C122 C 0.37066 0.30461 0.42214 0.0
C123 C 0.38618 0.34288 0.42432 0.0
C124 C 0.39333 0.36983 0.3837 0.0
C125 C 0.38569 0.35884 0.3401 0.0
C126 C 0.36958 0.32062 0.33797 0.0
C127 C 0.36246 0.29366 0.3787 0.0
C128 C 0.92962 0.11693 0.4627 0.0
C129 C 0.86207 0.09304 0.43878 0.0
C130 C 0.90014 0.08776 0.46907 0.0
C131 C 0.85493 0.12672 0.40095 0.0
C132 C 0.92231 0.15115 0.42531 0.0
C133 C 0.88497 0.15566 0.3942 0.0
N134 N 0.96599 0.11122 0.49245 0.0
C135 C 0.99588 0.13897 0.48796 0.0
C136 C 0.95299 0.17958 0.42003 0.0
C137 C 0.98985 0.17355 0.45162 0.0
Gd138 Gd 0.02533 0.96045 0.51078 0.0
Gd139 Gd 0.97427 0.05163 0.55068 0.0
N140 N 0.90821 0.05497 0.50553 0.0
C141 C 0.83191 0.06483 0.44808 0.0
C142 C 0.87752 0.02976 0.51724 0.0
C143 C 0.83939 0.03358 0.48808 0.0
H144 H 0.88153 0.00735 0.54967 0.0
H145 H 0.81553 0.01287 0.497 0.0
H146 H 0.11963 0.98424 0.55772 0.0
H147 H 0.02453 0.13402 0.51215 0.0
H148 H 0.17637 0.9527 0.61922 0.0
H149 H 0.80225 0.06784 0.42572 0.0
H150 H 0.82601 0.13097 0.37706 0.0
H151 H 0.9586 0.88761 0.49824 0.0
H152 H 0.94855 0.20624 0.39168 0.0
H153 H 0.0137 0.19538 0.44781 0.0
H154 H 0.13196 0.81831 0.67454 0.0
H155 H 0.87891 0.18156 0.365 0.0
H156 H 0.00182 0.78054 0.60113 0.0
H157 H 0.94885 0.81656 0.53675 0.0
N158 N 0.0151 0.89215 0.54217 0.0
C159 C 0.04506 0.87264 0.57659 0.0
C160 C 0.98128 0.87233 0.52714 0.0
C161 C 0.00596 0.81179 0.58474 0.0
C162 C 0.97597 0.83203 0.54846 0.0
C163 C 0.04124 0.83194 0.59895 0.0
H164 H 0.07025 0.78145 0.65222 0.0
N165 N 0.08222 0.93289 0.56736 0.0
C166 C 0.07985 0.89344 0.58928 0.0
C167 C 0.14656 0.89592 0.63568 0.0
C168 C 0.11173 0.87407 0.62447 0.0
C169 C 0.11682 0.95377 0.57671 0.0
C170 C 0.14925 0.9358 0.61137 0.0
O171 O 0.98733 0.05723 0.47742 0.0
O172 O 0.97101 0.99532 0.46396 0.0
O173 O 0.06382 0.97319 0.45734 0.0
O174 O 0.02583 0.92093 0.46251 0.0
O175 O 0.95296 0.98799 0.57346 0.0
O176 O 0.95762 0.96024 0.51075 0.0
O177 O 0.02939 0.95485 0.58923 0.0
O178 O 0.02701 0.01929 0.60284 0.0
O179 O 0.94013 0.05467 0.60576 0.0
O180 O 0.98005 0.10302 0.58361 0.0
O181 O 0.05927 0.02 0.50342 0.0
O182 O 0.04228 0.05612 0.55628 0.0
C183 C 0.97247 0.03438 0.44875 0.0
C184 C 0.94329 0.96005 0.54935 0.0
C185 C 0.08799 0.91593 0.43643 0.0
C186 C 0.12874 0.89344 0.38547 0.0
C187 C 0.14439 0.86817 0.47005 0.0
C188 C 0.11227 0.89143 0.47559 0.0
C189 C 0.15266 0.86912 0.42536 0.0
C190 C 0.09619 0.91676 0.39134 0.0
C191 C 0.05405 0.94051 0.44223 0.0
C192 C 0.10786 0.83366 0.64721 0.0
C193 C 0.0727 0.81266 0.63452 0.0
H194 H 0.17171 0.88215 0.66259 0.0
C195 C 0.03677 0.98066 0.61661 0.0
C196 C 0.06638 0.04792 0.52849 0.0
C197 C 0.92278 0.11918 0.61369 0.0
C198 C 0.88739 0.14927 0.66363 0.0
C199 C 0.86979 0.17024 0.57857 0.0
C200 C 0.89915 0.14328 0.57372 0.0
C201 C 0.86387 0.1733 0.6232 0.0
C202 C 0.91671 0.12213 0.65833 0.0
C203 C 0.95338 0.09 0.61023 0.0
H204 H 0.16287 0.84925 0.5005 0.0
H205 H 0.1064 0.89011 0.51041 0.0
H206 H 0.17751 0.85042 0.42196 0.0
H207 H 0.07761 0.93588 0.36103 0.0
H208 H 0.85164 0.18891 0.54766 0.0
H209 H 0.90331 0.14124 0.53898 0.0
H210 H 0.84134 0.19483 0.62605 0.0
H211 H 0.93461 0.10277 0.68902 0.0
C212 C 0.60365 0.59606 0.04349 0.0
C213 C 0.57472 0.66374 0.02632 0.0
C214 C 0.57238 0.62194 0.04463 0.0
C215 C 0.6077 0.67856 0.0043 0.0
C216 C 0.63796 0.61095 0.02391 0.0
C217 C 0.63931 0.65221 0.00316 0.0
N218 N 0.60112 0.5563 0.06322 0.0
C219 C 0.63327 0.53026 0.06858 0.0
C220 C 0.67025 0.58405 0.02689 0.0
C221 C 0.66818 0.54365 0.05006 0.0
Gd222 Gd 0.45839 0.49167 0.99837 0.0
Gd223 Gd 0.54125 0.53569 0.09194 0.0
N224 N 0.54137 0.60662 0.06696 0.0
C225 C 0.54478 0.68951 0.03254 0.0
C226 C 0.51476 0.63202 0.07736 0.0
C227 C 0.5152 0.67364 0.0591 0.0
H228 H 0.49333 0.62038 0.10012 0.0
H229 H 0.49313 0.69349 0.06619 0.0
H230 H 0.47871 0.39312 0.02322 0.0
H231 H 0.63132 0.49897 0.08608 0.0
H232 H 0.45027 0.32962 0.06318 0.0
H233 H 0.54541 0.72181 0.01896 0.0
H234 H 0.60975 0.71052 0.9895 0.0
H235 H 0.38086 0.56077 0.97243 0.0
H236 H 0.69719 0.59429 0.01229 0.0
H237 H 0.69327 0.5228 0.05328 0.0
H238 H 0.32956 0.37336 0.10832 0.0
H239 H 0.66514 0.66421 0.98731 0.0
H240 H 0.28788 0.51236 0.05017 0.0
H241 H 0.31545 0.56918 0.99751 0.0
N242 N 0.39308 0.50166 0.01533 0.0
C243 C 0.37686 0.46912 0.041 0.0
C244 C 0.37031 0.53645 0.99736 0.0
C245 C 0.31725 0.5089 0.04037 0.0
C246 C 0.33272 0.54105 0.01071 0.0
C247 C 0.33873 0.47192 0.05469 0.0
H248 H 0.29352 0.43908 0.09168 0.0
N249 N 0.43274 0.43038 0.0349 0.0
C250 C 0.39695 0.43213 0.05039 0.0
C251 C 0.39968 0.35976 0.07894 0.0
C252 C 0.3798 0.39695 0.07366 0.0
C253 C 0.45117 0.39411 0.0376 0.0
C254 C 0.43517 0.35828 0.06013 0.0
O255 O 0.55439 0.53369 0.01998 0.0
O256 O 0.4925 0.54764 0.9721 0.0
O257 O 0.46991 0.46359 0.94222 0.0
O258 O 0.41392 0.49698 0.93464 0.0
O259 O 0.47533 0.55601 0.07913 0.0
O260 O 0.454 0.55787 1.00076 0.0
O261 O 0.47389 0.45959 0.075 0.0
O262 O 0.48288 0.51047 0.11437 0.0
O263 O 0.56424 0.56155 0.15205 0.0
O264 O 0.57658 0.49883 0.15488 0.0
O265 O 0.52191 0.46254 0.01358 0.0
O266 O 0.55221 0.47129 0.08785 0.0
C267 C 0.53233 0.54958 0.97901 0.0
C268 C 0.45256 0.57168 0.03852 0.0
C269 C 0.41029 0.4403 0.90105 0.0
C270 C 0.39063 0.40037 0.84194 0.0
C271 C 0.35961 0.38856 0.912 0.0
C272 C 0.38233 0.41929 0.92731 0.0
C273 C 0.36371 0.37905 0.8697 0.0
C274 C 0.41439 0.43074 0.85831 0.0
C275 C 0.43389 0.47315 0.91727 0.0
C276 C 0.34299 0.39995 0.08975 0.0
C277 C 0.32253 0.4374 0.08036 0.0
H278 H 0.38743 0.33199 0.09653 0.0
C279 C 0.47025 0.47426 0.1114 0.0
C280 C 0.54896 0.45245 0.05292 0.0
C281 C 0.56804 0.51616 0.22544 0.0
C282 C 0.57859 0.52442 0.30641 0.0
C283 C 0.5302 0.47577 0.28129 0.0
C284 C 0.53943 0.48637 0.23615 0.0
C285 C 0.54976 0.4944 0.31631 0.0
C286 C 0.58714 0.53535 0.26043 0.0
C287 C 0.5788 0.52718 0.17825 0.0
H288 H 0.33843 0.37231 0.93277 0.0
H289 H 0.37752 0.42695 0.95935 0.0
H290 H 0.34575 0.35492 0.85872 0.0
H291 H 0.43516 0.44764 0.83736 0.0
H292 H 0.50824 0.4526 0.28934 0.0
H293 H 0.52458 0.47102 0.2098 0.0
H294 H 0.54289 0.48458 0.35134 0.0
H295 H 0.6087 0.55878 0.25164 0.0
H296 H 0.22236 0.15394 0.55034 0.0
H297 H 0.20809 0.16071 0.40171 0.0
H298 H 0.14919 0.11673 0.40552 0.0
H299 H 0.10137 0.07649 0.45156 0.0
H300 H 0.11411 0.07349 0.59934 0.0
H301 H 0.17419 0.11534 0.59568 0.0
C302 C 0.20645 0.14558 0.51885 0.0
C303 C 0.21964 0.1603 0.47587 0.0
C304 C 0.17244 0.12081 0.52126 0.0
C305 C 0.19835 0.14985 0.43516 0.0
C306 C 0.16483 0.12459 0.43739 0.0
C307 C 0.11761 0.0848 0.48292 0.0
C308 C 0.10359 0.07181 0.52571 0.0
C309 C 0.1516 0.10982 0.48028 0.0
C310 C 0.12435 0.08326 0.56601 0.0
C311 C 0.15869 0.10716 0.56394 0.0
H312 H 0.34339 0.70855 0.07065 0.0
H313 H 0.3597 0.76283 0.92941 0.0
H314 H 0.39786 0.70281 0.92652 0.0
H315 H 0.42923 0.63579 0.96569 0.0
H316 H 0.41321 0.5827 0.10727 0.0
H317 H 0.37158 0.6409 0.10812 0.0
C318 C 0.35471 0.70702 0.03894 0.0
C319 C 0.34878 0.74018 1.00039 0.0
C320 C 0.37668 0.67256 0.03757 0.0
C321 C 0.3643 0.73793 0.95985 0.0
C322 C 0.38595 0.70354 0.95806 0.0
C323 C 0.41608 0.63688 0.99636 0.0
C324 C 0.42431 0.60528 0.0364 0.0
C325 C 0.3927 0.67082 0.99691 0.0
C326 C 0.40749 0.60697 0.07618 0.0
C327 C 0.38373 0.64019 0.07671 0.0
H328 H 0.84415 0.82418 0.6612 0.0
H329 H 0.80435 0.80328 0.52232 0.0
H330 H 0.84375 0.8602 0.48945 0.0
H331 H 0.89171 0.91477 0.50033 0.0
H332 H 0.93429 0.93267 0.63991 0.0
H333 H 0.89182 0.87824 0.67209 0.0
C334 C 0.84419 0.83187 0.62376 0.0
C335 C 0.82114 0.80928 0.59446 0.0
C336 C 0.86764 0.86414 0.60509 0.0
C337 C 0.82115 0.82037 0.54583 0.0
C338 C 0.84403 0.85277 0.52694 0.0
C339 C 0.89192 0.90645 0.5378 0.0
C340 C 0.91654 0.92738 0.5677 0.0
C341 C 0.86774 0.87464 0.55628 0.0
C342 C 0.91566 0.91701 0.61607 0.0
C343 C 0.89147 0.88577 0.63458 0.0
H344 H 0.69021 0.32063 0.10902 0.0
H345 H 0.64997 0.30994 0.96628 0.0
H346 H 0.59435 0.35886 0.95739 0.0
H347 H 0.56049 0.40861 0.9887 0.0
H348 H 0.60314 0.41925 0.1315 0.0
H349 H 0.65447 0.36683 0.14147 0.0
C350 C 0.66921 0.32896 0.07598 0.0
C351 C 0.67441 0.31204 0.03827 0.0
C352 C 0.63789 0.35744 0.07092 0.0
C353 C 0.64647 0.32244 0.99596 0.0
C354 C 0.61487 0.35063 0.99074 0.0
C355 C 0.58082 0.39927 0.02207 0.0
C356 C 0.57809 0.41839 0.05898 0.0
C357 C 0.61076 0.36895 0.02775 0.0
C358 C 0.60461 0.40559 0.10213 0.0
C359 C 0.63409 0.37546 0.10805 0.0
H360 H 0.14218 0.88507 0.1777 0.0
H361 H 0.26968 0.89615 0.23227 0.0
H362 H 0.2532 0.8993 0.30808 0.0
H363 H 0.20299 0.89888 0.35928 0.0
H364 H 0.07532 0.88954 0.30535 0.0
H365 H 0.09137 0.88712 0.22856 0.0
C366 C 0.16635 0.88857 0.206 0.0
C367 C 0.20721 0.88982 0.19918 0.0
C368 C 0.15663 0.89103 0.2496 0.0
C369 C 0.23807 0.89405 0.23659 0.0
C370 C 0.22867 0.89625 0.27997 0.0
C371 C 0.17867 0.89614 0.33077 0.0
C372 C 0.13806 0.89414 0.3381 0.0
C373 C 0.18813 0.89458 0.28693 0.0
C374 C 0.10682 0.89141 0.30053 0.0
C375 C 0.11602 0.88976 0.25672 0.0
H376 H 0.59779 0.63431 0.79378 0.0
H377 H 0.70646 0.56713 0.87078 0.0
H378 H 0.67175 0.54131 0.93673 0.0
H379 H 0.6098 0.53449 0.97073 0.0
H380 H 0.50116 0.60273 0.89674 0.0
H381 H 0.53616 0.63072 0.83094 0.0
C382 C 0.61395 0.61447 0.82526 0.0
C383 C 0.65455 0.60232 0.82707 0.0
C384 C 0.59367 0.59947 0.86329 0.0
C385 C 0.67502 0.5764 0.86809 0.0
C386 C 0.65523 0.56164 0.90589 0.0
C387 C 0.59402 0.55623 0.94079 0.0
C388 C 0.55315 0.56692 0.93905 0.0
C389 C 0.61445 0.57248 0.9036 0.0
C390 C 0.53267 0.59394 0.899 0.0
C391 C 0.55274 0.6101 0.86146 0.0
H392 H 0.9311 0.14328 0.24516 0.0
H393 H 0.83968 0.05378 0.22999 0.0
H394 H 0.86438 0.0169 0.31079 0.0
H395 H 0.91211 0.01067 0.38628 0.0
H396 H 0.0024 0.10158 0.3998 0.0
H397 H 0.97833 0.13708 0.31901 0.0
C398 C 0.91689 0.11539 0.25926 0.0
C399 C 0.88392 0.10105 0.23144 0.0
C400 C 0.93113 0.09458 0.30548 0.0
C401 C 0.86511 0.06547 0.25073 0.0
C402 C 0.87933 0.04432 0.29683 0.0
C403 C 0.92674 0.03794 0.37115 0.0
C404 C 0.95904 0.05345 0.39877 0.0
C405 C 0.91239 0.05858 0.32457 0.0
C406 C 0.97741 0.08914 0.37919 0.0
C407 C 0.96368 0.10948 0.33302 0.0
H408 H 0.42892 0.35078 0.6603 0.0
H409 H 0.29807 0.34023 0.63579 0.0
H410 H 0.29421 0.36476 0.7061 0.0
H411 H 0.32792 0.38608 0.77643 0.0
H412 H 0.4589 0.39359 0.80386 0.0
H413 H 0.46272 0.37363 0.73037 0.0
C414 C 0.39956 0.35368 0.67043 0.0
C415 C 0.36385 0.34354 0.6427 0.0
C416 C 0.39757 0.36723 0.71146 0.0
C417 C 0.32601 0.34825 0.65598 0.0
C418 C 0.32378 0.36201 0.69644 0.0
C419 C 0.35737 0.38314 0.76651 0.0
C420 C 0.3931 0.3909 0.7959 0.0
C421 C 0.35936 0.37108 0.72471 0.0
C422 C 0.4309 0.38798 0.78183 0.0
C423 C 0.43312 0.37631 0.73996 0.0
H424 H 0.6971 0.5989 0.45448 0.0
H425 H 0.59002 0.58907 0.51961 0.0
H426 H 0.55155 0.56491 0.45381 0.0
H427 H 0.54896 0.54392 0.37937 0.0
H428 H 0.65832 0.54712 0.31905 0.0
H429 H 0.69503 0.57644 0.38144 0.0
C430 C 0.66548 0.59105 0.45475 0.0
C431 C 0.64673 0.59573 0.49235 0.0
C432 C 0.64381 0.57595 0.41754 0.0
C433 C 0.60531 0.58639 0.49106 0.0
C434 C 0.58329 0.57218 0.45357 0.0
C435 C 0.58092 0.5506 0.38001 0.0
C436 C 0.60061 0.54327 0.34419 0.0
C437 C 0.60237 0.56639 0.41689 0.0
C438 C 0.64193 0.55304 0.34539 0.0
C439 C 0.66317 0.56952 0.3814 0.0
H440 H 0.89373 0.16129 0.87406 0.0
H441 H 0.76354 0.17177 0.82859 0.0
H442 H 0.77161 0.16438 0.75041 0.0
H443 H 0.816 0.15655 0.69463 0.0
H444 H 0.94647 0.14915 0.7399 0.0
H445 H 0.93793 0.15316 0.81866 0.0
C446 C 0.86712 0.1613 0.84721 0.0
C447 C 0.82811 0.16679 0.85702 0.0
C448 C 0.87206 0.15776 0.80229 0.0
C449 C 0.79389 0.16761 0.82171 0.0
C450 C 0.7985 0.16344 0.77708 0.0
C451 C 0.84257 0.15616 0.72162 0.0
C452 C 0.8818 0.15244 0.71131 0.0
C453 C 0.83749 0.15898 0.76682 0.0
C454 C 0.91588 0.1514 0.74696 0.0
C455 C 0.91107 0.15388 0.792 0.0
H456 H 0.42246 0.33815 0.27351 0.0
H457 H 0.37504 0.44112 0.312 0.0
H458 H 0.39731 0.48613 0.24494 0.0
H459 H 0.43093 0.49625 0.17541 0.0
H460 H 0.47855 0.3928 0.13827 0.0
H461 H 0.45467 0.34796 0.20395 0.0
C462 C 0.41633 0.37036 0.26685 0.0
C463 C 0.39697 0.38614 0.29775 0.0
C464 C 0.42918 0.39602 0.2283 0.0
C465 C 0.39019 0.42813 0.28905 0.0
C466 C 0.4028 0.45391 0.25062 0.0
C467 C 0.43605 0.46388 0.18187 0.0
C468 C 0.456 0.44776 0.15176 0.0
C469 C 0.42255 0.43821 0.22014 0.0
C470 C 0.46252 0.40583 0.16041 0.0
C471 C 0.44914 0.38018 0.19817 0.0
H472 H 0.11995 0.89283 0.82079 0.0
H473 H 0.17152 0.01082 0.81656 0.0
H474 H 0.13258 0.03544 0.73832 0.0
H475 H 0.08548 0.02339 0.67 0.0
H476 H 0.03805 0.90443 0.67109 0.0
H477 H 0.07503 0.87996 0.75103 0.0
C478 C 0.12318 0.92381 0.80272 0.0
C479 C 0.14858 0.94986 0.8252 0.0
C480 C 0.10172 0.93757 0.75687 0.0
C481 C 0.15155 0.99015 0.80105 0.0
C482 C 0.1296 0.00426 0.75592 0.0
C483 C 0.08302 0.99217 0.68787 0.0
C484 C 0.05892 0.96581 0.66488 0.0
C485 C 0.1047 0.97824 0.73348 0.0
C486 C 0.05654 0.92528 0.6881 0.0
C487 C 0.07755 0.91132 0.73382 0.0
loop_
_geom_bond_atom_site_label_1
_geom_bond_atom_site_label_2
_geom_bond_distance
_geom_bond_site_symmetry_2
_ccdc_geom_bond_type
P0 O11 1.490 . S
P0 C14 1.812 . S
P0 C20 1.803 . S
P0 C26 1.819 1_554 S
H1 C15 0.941 . S
H2 C16 0.939 . S
H3 C18 0.940 . S
H4 C19 0.940 . S
H5 C21 0.937 1_556 S
H6 C22 0.942 . S
H7 C24 0.940 . S
H8 C25 0.939 . S
H9 C27 0.941 . S
H10 C31 0.939 . S
O11 P0 1.490 . S
H12 C28 0.939 . S
H13 C30 0.940 . S
C14 P0 1.812 . S
C14 C15 1.389 . S
C14 C19 1.391 . S
C15 H1 0.941 . S
C15 C14 1.389 . S
C15 C16 1.397 . S
C16 H2 0.939 . S
C16 C15 1.397 . S
C16 C17 1.378 . S
C17 C16 1.378 . S
C17 C18 1.378 . S
C18 H3 0.940 . S
C18 C17 1.378 . S
C18 C19 1.396 . S
C19 H4 0.940 . S
C19 C14 1.391 . S
C19 C18 1.396 . S
C20 P0 1.803 . S
C20 C21 1.378 . S
C20 C25 1.400 . S
C21 H5 0.937 1_554 S
C21 C20 1.378 . S
C21 C22 1.361 . S
C22 H6 0.942 . S
C22 C21 1.361 . S
C22 C23 1.369 . S
C23 C22 1.369 . S
C23 C24 1.404 . S
C24 H7 0.940 . S
C24 C23 1.404 . S
C24 C25 1.389 . S
C25 H8 0.939 . S
C25 C20 1.400 . S
C25 C24 1.389 . S
C26 P0 1.819 1_556 S
C26 C27 1.391 . S
C26 C31 1.391 . S
C27 H9 0.941 . S
C27 C26 1.391 . S
C27 C28 1.396 . S
C28 H12 0.939 . S
C28 C27 1.396 . S
C28 C29 1.397 . S
C29 C28 1.397 . S
C29 C30 1.385 . S
C30 H13 0.940 . S
C30 C29 1.385 . S
C30 C31 1.388 . S
C31 H10 0.939 . S
C31 C26 1.391 . S
C31 C30 1.388 . S
P32 O43 1.490 . S
P32 C46 1.812 . S
P32 C52 1.803 . S
P32 C58 1.819 . S
H33 C47 0.941 . S
H34 C48 0.939 . S
H35 C50 0.940 . S
H36 C51 0.940 . S
H37 C53 0.939 . S
H38 C54 0.942 . S
H39 C56 0.940 . S
H40 C57 0.939 . S
H41 C59 0.941 . S
H42 C63 0.939 . S
O43 P32 1.490 . S
H44 C60 0.939 . S
H45 C62 0.940 . S
C46 P32 1.812 . S
C46 C47 1.389 . S
C46 C51 1.391 . S
C47 H33 0.941 . S
C47 C46 1.389 . S
C47 C48 1.397 . S
C48 H34 0.939 . S
C48 C47 1.397 . S
C48 C49 1.378 . S
C49 C48 1.378 . S
C49 C50 1.378 . S
C50 H35 0.940 . S
C50 C49 1.378 . S
C50 C51 1.396 . S
C51 H36 0.940 . S
C51 C46 1.391 . S
C51 C50 1.396 . S
C52 P32 1.803 . S
C52 C53 1.378 . S
C52 C57 1.400 . S
C53 H37 0.939 . S
C53 C52 1.378 . S
C53 C54 1.361 . S
C54 H38 0.942 . S
C54 C53 1.361 . S
C54 C55 1.369 . S
C55 C54 1.369 . S
C55 C56 1.404 . S
C56 H39 0.940 . S
C56 C55 1.404 . S
C56 C57 1.389 . S
C57 H40 0.939 . S
C57 C52 1.400 . S
C57 C56 1.389 . S
C58 P32 1.819 . S
C58 C59 1.391 . S
C58 C63 1.391 . S
C59 H41 0.941 . S
C59 C58 1.391 . S
C59 C60 1.396 . S
C60 H44 0.939 . S
C60 C59 1.396 . S
C60 C61 1.397 . S
C61 C60 1.397 . S
C61 C62 1.385 . S
C62 H45 0.940 . S
C62 C61 1.385 . S
C62 C63 1.388 . S
C63 H42 0.939 . S
C63 C58 1.391 . S
C63 C62 1.388 . S
P64 O75 1.490 . S
P64 C78 1.812 . S
P64 C84 1.803 . S
P64 C90 1.819 . S
H65 C79 0.941 . S
H66 C80 0.939 . S
H67 C82 0.940 . S
H68 C83 0.940 . S
H69 C85 0.939 . S
H70 C86 0.942 . S
H71 C88 0.940 . S
H72 C89 0.939 . S
H73 C91 0.941 . S
H74 C95 0.939 . S
O75 P64 1.490 . S
H76 C92 0.939 . S
H77 C94 0.940 . S
C78 P64 1.812 . S
C78 C79 1.389 1_554 S
C78 C83 1.391 . S
C79 H65 0.941 . S
C79 C78 1.389 1_556 S
C79 C80 1.397 . S
C80 H66 0.939 . S
C80 C79 1.397 . S
C80 C81 1.378 . S
C81 C80 1.378 . S
C81 C82 1.378 . S
C82 H67 0.940 . S
C82 C81 1.378 . S
C82 C83 1.396 1_556 S
C83 H68 0.940 . S
C83 C78 1.391 . S
C83 C82 1.396 1_554 S
C84 P64 1.803 . S
C84 C85 1.378 . S
C84 C89 1.400 . S
C85 H69 0.939 . S
C85 C84 1.378 . S
C85 C86 1.361 . S
C86 H70 0.942 . S
C86 C85 1.361 . S
C86 C87 1.369 . S
C87 C86 1.369 . S
C87 C88 1.404 . S
C88 H71 0.940 . S
C88 C87 1.404 . S
C88 C89 1.389 . S
C89 H72 0.939 . S
C89 C84 1.400 . S
C89 C88 1.389 . S
C90 P64 1.819 . S
C90 C91 1.391 . S
C90 C95 1.391 . S
C91 H73 0.941 . S
C91 C90 1.391 . S
C91 C92 1.396 . S
C92 H76 0.939 . S
C92 C91 1.396 . S
C92 C93 1.397 . S
C93 C92 1.397 . S
C93 C94 1.385 . S
C94 H77 0.940 . S
C94 C93 1.385 . S
C94 C95 1.388 . S
C95 H74 0.939 . S
C95 C90 1.391 . S
C95 C94 1.388 . S
P96 O107 1.490 . S
P96 C110 1.812 . S
P96 C116 1.803 . S
P96 C122 1.819 . S
H97 C111 0.941 . S
H98 C112 0.939 . S
H99 C114 0.940 . S
H100 C115 0.940 . S
H101 C117 0.939 . S
H102 C118 0.942 . S
H103 C120 0.940 . S
H104 C121 0.939 . S
H105 C123 0.941 . S
H106 C127 0.939 . S
O107 P96 1.490 . S
H108 C124 0.939 . S
H109 C126 0.940 . S
C110 P96 1.812 . S
C110 C111 1.389 . S
C110 C115 1.391 . S
C111 H97 0.941 . S
C111 C110 1.389 . S
C111 C112 1.397 . S
C112 H98 0.939 . S
C112 C111 1.397 . S
C112 C113 1.378 . S
C113 C112 1.378 . S
C113 C114 1.378 . S
C114 H99 0.940 . S
C114 C113 1.378 . S
C114 C115 1.396 . S
C115 H100 0.940 . S
C115 C110 1.391 . S
C115 C114 1.396 . S
C116 P96 1.803 . S
C116 C117 1.378 . S
C116 C121 1.400 . S
C117 H101 0.939 . S
C117 C116 1.378 . S
C117 C118 1.361 . S
C118 H102 0.942 . S
C118 C117 1.361 . S
C118 C119 1.369 . S
C119 C118 1.369 . S
C119 C120 1.404 . S
C120 H103 0.940 . S
C120 C119 1.404 . S
C120 C121 1.389 . S
C121 H104 0.939 . S
C121 C116 1.400 . S
C121 C120 1.389 . S
C122 P96 1.819 . S
C122 C123 1.391 . S
C122 C127 1.391 . S
C123 H105 0.941 . S
C123 C122 1.391 . S
C123 C124 1.396 . S
C124 H108 0.939 . S
C124 C123 1.396 . S
C124 C125 1.397 . S
C125 C124 1.397 . S
C125 C126 1.385 . S
C126 H109 0.940 . S
C126 C125 1.385 . S
C126 C127 1.388 . S
C127 H106 0.939 . S
C127 C122 1.391 . S
C127 C126 1.388 . S
C128 C130 1.422 . S
C128 C132 1.415 . S
C128 N134 1.369 . S
C129 C130 1.421 . S
C129 C131 1.417 . S
C129 C141 1.422 . S
C130 C128 1.422 . S
C130 C129 1.421 . S
C130 N140 1.359 . S
C131 C129 1.417 . S
C131 C133 1.329 . S
C131 H150 0.930 . S
C132 C128 1.415 . S
C132 C133 1.437 . S
C132 C136 1.413 . S
C133 C131 1.329 . S
C133 C132 1.437 . S
C133 H155 0.929 . S
N134 C128 1.369 . S
N134 C135 1.341 . S
N134 Gd139 2.622 . S
C135 N134 1.341 . S
C135 C137 1.378 . S
C135 H147 0.925 1_655 S
C136 C132 1.413 . S
C136 C137 1.348 . S
C136 H152 0.931 . S
C137 C135 1.378 . S
C137 C136 1.348 . S
C137 H153 0.930 1_655 S
Gd138 N158 2.622 . S
Gd138 N165 2.570 . S
Gd138 O172 2.353 1_465 S
Gd138 O173 2.468 . S
Gd138 O174 2.427 . S
Gd138 O176 2.388 1_455 S
Gd138 O177 2.386 . S
Gd138 O181 2.307 1_565 S
Gd138 C191 2.805 . S
Gd139 N134 2.622 . S
Gd139 N140 2.570 . S
Gd139 O171 2.386 . S
Gd139 O175 2.307 1_545 S
Gd139 O178 2.353 1_655 S
Gd139 O179 2.468 . S
Gd139 O180 2.427 . S
Gd139 O182 2.388 1_655 S
Gd139 C203 2.805 . S
N140 C130 1.359 . S
N140 Gd139 2.570 . S
N140 C142 1.343 . S
C141 C129 1.422 . S
C141 C143 1.321 . S
C141 H149 0.931 . S
C142 N140 1.343 . S
C142 C143 1.390 . S
C142 H144 0.931 . S
C143 C141 1.321 . S
C143 C142 1.390 . S
C143 H145 0.930 . S
H144 C142 0.931 . S
H145 C143 0.930 . S
H146 C169 0.931 . S
H147 C135 0.925 1_455 S
H148 C170 0.930 . S
H149 C141 0.931 . S
H150 C131 0.930 . S
H151 C160 0.929 1_655 S
H152 C136 0.931 . S
H153 C137 0.930 1_455 S
H154 C192 0.930 . S
H155 C133 0.929 . S
H156 C161 0.931 . S
H157 C162 0.930 1_655 S
N158 Gd138 2.622 . S
N158 C159 1.369 . S
N158 C160 1.338 . S
C159 N158 1.369 . S
C159 C163 1.415 . S
C159 C166 1.422 . S
C160 H151 0.929 1_455 S
C160 N158 1.338 . S
C160 C162 1.378 . S
C161 H156 0.931 . S
C161 C162 1.348 . S
C161 C163 1.413 . S
C162 H157 0.930 1_455 S
C162 C160 1.378 . S
C162 C161 1.348 . S
C163 C159 1.415 . S
C163 C161 1.413 . S
C163 C193 1.437 . S
H164 C193 0.929 . S
N165 Gd138 2.570 . S
N165 C166 1.359 . S
N165 C169 1.343 . S
C166 C159 1.422 . S
C166 N165 1.359 . S
C166 C168 1.421 . S
C167 C168 1.422 . S
C167 C170 1.321 . S
C167 H194 0.931 . S
C168 C166 1.421 . S
C168 C167 1.422 . S
C168 C192 1.417 . S
C169 H146 0.931 . S
C169 N165 1.343 . S
C169 C170 1.390 . S
C170 H148 0.930 . S
C170 C167 1.321 . S
C170 C169 1.390 . S
O171 Gd139 2.386 . S
O171 C183 1.265 . S
O172 Gd138 2.353 1_645 S
O172 C183 1.242 . S
O173 Gd138 2.468 . S
O173 C191 1.263 . S
O174 Gd138 2.427 . S
O174 C191 1.252 . S
O175 Gd139 2.307 1_565 S
O175 C184 1.261 . S
O176 Gd138 2.388 1_655 S
O176 C184 1.252 . S
O177 Gd138 2.386 . S
O177 C195 1.265 . S
O178 Gd139 2.353 1_455 S
O178 C195 1.242 1_545 S
O179 Gd139 2.468 . S
O179 C203 1.263 . S
O180 Gd139 2.427 . S
O180 C203 1.252 . S
O181 Gd138 2.307 1_545 S
O181 C196 1.261 . S
O182 Gd139 2.388 1_455 S
O182 C196 1.252 . S
C183 O171 1.265 . S
C183 O172 1.242 . S
C184 O175 1.261 . S
C184 O176 1.252 . S
C185 C188 1.394 . S
C185 C190 1.370 . S
C185 C191 1.500 . S
C186 C189 1.383 . S
C186 C190 1.395 . S
C187 C188 1.396 . S
C187 C189 1.365 . S
C187 H204 0.929 . S
C188 C185 1.394 . S
C188 C187 1.396 . S
C188 H205 0.930 . S
C189 C186 1.383 . S
C189 C187 1.365 . S
C189 H206 0.931 . S
C190 C185 1.370 . S
C190 C186 1.395 . S
C190 H207 0.930 . S
C191 Gd138 2.805 . S
C191 O173 1.263 . S
C191 O174 1.252 . S
C191 C185 1.500 . S
C192 H154 0.930 . S
C192 C168 1.417 . S
C192 C193 1.329 . S
C193 C163 1.437 . S
C193 H164 0.929 . S
C193 C192 1.329 . S
H194 C167 0.931 . S
C195 O177 1.265 . S
C195 O178 1.242 1_565 S
C196 O181 1.261 . S
C196 O182 1.252 . S
C197 C200 1.394 . S
C197 C202 1.370 . S
C197 C203 1.500 . S
C198 C201 1.383 . S
C198 C202 1.395 . S
C199 C200 1.396 . S
C199 C201 1.365 . S
C199 H208 0.929 . S
C200 C197 1.394 . S
C200 C199 1.396 . S
C200 H209 0.930 . S
C201 C198 1.383 . S
C201 C199 1.365 . S
C201 H210 0.931 . S
C202 C197 1.370 . S
C202 C198 1.395 . S
C202 H211 0.930 . S
C203 Gd139 2.805 . S
C203 O179 1.263 . S
C203 O180 1.252 . S
C203 C197 1.500 . S
H204 C187 0.929 . S
H205 C188 0.930 . S
H206 C189 0.931 . S
H207 C190 0.930 . S
H208 C199 0.929 . S
H209 C200 0.930 . S
H210 C201 0.931 . S
H211 C202 0.930 . S
C212 C214 1.422 . S
C212 C216 1.415 . S
C212 N218 1.369 . S
C213 C214 1.421 . S
C213 C215 1.417 . S
C213 C225 1.422 . S
C214 C212 1.422 . S
C214 C213 1.421 . S
C214 N224 1.359 . S
C215 C213 1.417 . S
C215 C217 1.329 . S
C215 H234 0.930 . S
C216 C212 1.415 . S
C216 C217 1.437 . S
C216 C220 1.413 . S
C217 C215 1.329 . S
C217 C216 1.437 . S
C217 H239 0.929 . S
N218 C212 1.369 . S
N218 C219 1.338 . S
N218 Gd223 2.622 . S
C219 N218 1.338 . S
C219 C221 1.378 . S
C219 H231 0.929 . S
C220 C216 1.413 . S
C220 C221 1.348 . S
C220 H236 0.931 . S
C221 C219 1.378 . S
C221 C220 1.348 . S
C221 H237 0.930 . S
Gd222 N242 2.624 . S
Gd222 N249 2.570 1_556 S
Gd222 O256 2.353 . S
Gd222 O257 2.468 . S
Gd222 O258 2.427 . S
Gd222 O260 2.388 1_556 S
Gd222 O261 2.386 1_556 S
Gd222 O265 2.307 1_556 S
Gd222 C275 2.805 . S
Gd223 N218 2.622 . S
Gd223 N224 2.570 . S
Gd223 O255 2.386 . S
Gd223 O259 2.307 . S
Gd223 O262 2.353 . S
Gd223 O263 2.468 . S
Gd223 O264 2.427 . S
Gd223 O266 2.388 . S
Gd223 C287 2.805 . S
N224 C214 1.359 . S
N224 Gd223 2.570 . S
N224 C226 1.343 . S
C225 C213 1.422 . S
C225 C227 1.321 . S
C225 H233 0.931 . S
C226 N224 1.343 . S
C226 C227 1.390 . S
C226 H228 0.931 . S
C227 C225 1.321 . S
C227 C226 1.390 . S
C227 H229 0.930 . S
H228 C226 0.931 . S
H229 C227 0.930 . S
H230 C253 0.931 . S
H231 C219 0.929 . S
H232 C254 0.930 . S
H233 C225 0.931 . S
H234 C215 0.930 . S
H235 C244 0.929 . S
H236 C220 0.931 . S
H237 C221 0.930 . S
H238 C276 0.930 . S
H239 C217 0.929 . S
H240 C245 0.931 . S
H241 C246 0.930 . S
N242 Gd222 2.624 . S
N242 C243 1.367 1_556 S
N242 C244 1.337 . S
C243 N242 1.367 1_554 S
C243 C247 1.415 . S
C243 C250 1.422 . S
C244 H235 0.929 . S
C244 N242 1.337 . S
C244 C246 1.378 . S
C245 H240 0.931 . S
C245 C246 1.348 1_554 S
C245 C247 1.413 . S
C246 H241 0.930 . S
C246 C244 1.378 . S
C246 C245 1.348 1_556 S
C247 C243 1.415 . S
C247 C245 1.413 . S
C247 C277 1.437 . S
H248 C277 0.929 . S
N249 Gd222 2.570 1_554 S
N249 C250 1.359 . S
N249 C253 1.343 . S
C250 C243 1.422 . S
C250 N249 1.359 . S
C250 C252 1.421 . S
C251 C252 1.422 . S
C251 C254 1.321 . S
C251 H278 0.931 . S
C252 C250 1.421 . S
C252 C251 1.422 . S
C252 C276 1.417 . S
C253 H230 0.931 . S
C253 N249 1.343 . S
C253 C254 1.390 . S
C254 H232 0.930 . S
C254 C251 1.321 . S
C254 C253 1.390 . S
O255 Gd223 2.386 . S
O255 C267 1.265 1_554 S
O256 Gd222 2.353 . S
O256 C267 1.242 . S
O257 Gd222 2.468 . S
O257 C275 1.263 . S
O258 Gd222 2.427 . S
O258 C275 1.252 . S
O259 Gd223 2.307 . S
O259 C268 1.261 . S
O260 Gd222 2.388 1_554 S
O260 C268 1.252 . S
O261 Gd222 2.386 1_554 S
O261 C279 1.265 . S
O262 Gd223 2.353 . S
O262 C279 1.242 . S
O263 Gd223 2.468 . S
O263 C287 1.263 . S
O264 Gd223 2.427 . S
O264 C287 1.252 . S
O265 Gd222 2.307 1_554 S
O265 C280 1.261 . S
O266 Gd223 2.388 . S
O266 C280 1.252 . S
C267 O255 1.265 1_556 S
C267 O256 1.242 . S
C268 O259 1.261 . S
C268 O260 1.252 . S
C269 C272 1.394 . S
C269 C274 1.370 . S
C269 C275 1.500 . S
C270 C273 1.383 . S
C270 C274 1.395 . S
C271 C272 1.396 . S
C271 C273 1.365 . S
C271 H288 0.929 . S
C272 C269 1.394 . S
C272 C271 1.396 . S
C272 H289 0.930 . S
C273 C270 1.383 . S
C273 C271 1.365 . S
C273 H290 0.931 . S
C274 C269 1.370 . S
C274 C270 1.395 . S
C274 H291 0.930 . S
C275 Gd222 2.805 . S
C275 O257 1.263 . S
C275 O258 1.252 . S
C275 C269 1.500 . S
C276 H238 0.930 . S
C276 C252 1.417 . S
C276 C277 1.329 . S
C277 C247 1.437 . S
C277 H248 0.929 . S
C277 C276 1.329 . S
H278 C251 0.931 . S
C279 O261 1.265 . S
C279 O262 1.242 . S
C280 O265 1.261 . S
C280 O266 1.252 . S
C281 C284 1.394 . S
C281 C286 1.370 . S
C281 C287 1.500 . S
C282 C285 1.383 . S
C282 C286 1.395 . S
C283 C284 1.396 . S
C283 C285 1.365 . S
C283 H292 0.929 . S
C284 C281 1.394 . S
C284 C283 1.396 . S
C284 H293 0.930 . S
C285 C282 1.383 . S
C285 C283 1.365 . S
C285 H294 0.931 . S
C286 C281 1.370 . S
C286 C282 1.395 . S
C286 H295 0.930 . S
C287 Gd223 2.805 . S
C287 O263 1.263 . S
C287 O264 1.252 . S
C287 C281 1.500 . S
H288 C271 0.929 . S
H289 C272 0.930 . S
H290 C273 0.931 . S
H291 C274 0.930 . S
H292 C283 0.929 . S
H293 C284 0.930 . S
H294 C285 0.931 . S
H295 C286 0.930 . S
H296 C302 0.930 . S
H297 C305 0.930 . S
H298 C306 0.930 . S
H299 C307 0.930 . S
H300 C310 0.930 . S
H301 C311 0.930 . S
C302 H296 0.930 . S
C302 C303 1.355 . S
C302 C304 1.415 . S
C303 C302 1.355 . S
C303 C305 1.419 . S
C304 C302 1.415 . S
C304 C309 1.425 . S
C304 C311 1.409 . S
C305 H297 0.930 . S
C305 C303 1.419 . S
C305 C306 1.362 . S
C306 H298 0.930 . S
C306 C305 1.362 . S
C306 C309 1.409 . S
C307 H299 0.930 . S
C307 C308 1.355 . S
C307 C309 1.415 . S
C308 C307 1.355 . S
C308 C310 1.419 . S
C309 C304 1.425 . S
C309 C306 1.409 . S
C309 C307 1.415 . S
C310 H300 0.930 . S
C310 C308 1.419 . S
C310 C311 1.362 . S
C311 H301 0.930 . S
C311 C304 1.409 . S
C311 C310 1.362 . S
H312 C318 0.930 . S
H313 C321 0.930 . S
H314 C322 0.930 . S
H315 C323 0.930 . S
H316 C326 0.930 . S
H317 C327 0.930 . S
C318 H312 0.930 . S
C318 C319 1.355 . S
C318 C320 1.415 . S
C319 C318 1.355 . S
C319 C321 1.419 . S
C320 C318 1.415 . S
C320 C325 1.425 . S
C320 C327 1.409 . S
C321 H313 0.930 . S
C321 C319 1.419 . S
C321 C322 1.362 . S
C322 H314 0.930 . S
C322 C321 1.362 . S
C322 C325 1.409 . S
C323 H315 0.930 . S
C323 C324 1.355 . S
C323 C325 1.415 . S
C324 C323 1.355 . S
C324 C326 1.419 . S
C325 C320 1.425 . S
C325 C322 1.409 . S
C325 C323 1.415 . S
C326 H316 0.930 . S
C326 C324 1.419 . S
C326 C327 1.362 . S
C327 H317 0.930 . S
C327 C320 1.409 . S
C327 C326 1.362 . S
H328 C334 0.930 . S
H329 C337 0.930 . S
H330 C338 0.930 . S
H331 C339 0.930 . S
H332 C342 0.930 . S
H333 C343 0.930 . S
C334 H328 0.930 . S
C334 C335 1.355 . S
C334 C336 1.415 . S
C335 C334 1.355 . S
C335 C337 1.419 . S
C336 C334 1.415 . S
C336 C341 1.425 . S
C336 C343 1.409 . S
C337 H329 0.930 . S
C337 C335 1.419 . S
C337 C338 1.362 . S
C338 H330 0.930 . S
C338 C337 1.362 . S
C338 C341 1.409 . S
C339 H331 0.930 . S
C339 C340 1.355 . S
C339 C341 1.415 . S
C340 C339 1.355 . S
C340 C342 1.419 . S
C341 C336 1.425 . S
C341 C338 1.409 . S
C341 C339 1.415 . S
C342 H332 0.930 . S
C342 C340 1.419 . S
C342 C343 1.362 . S
C343 H333 0.930 . S
C343 C336 1.409 . S
C343 C342 1.362 . S
H344 C350 0.930 . S
H345 C353 0.930 . S
H346 C354 0.930 . S
H347 C355 0.930 1_556 S
H348 C358 0.930 . S
H349 C359 0.930 . S
C350 H344 0.930 . S
C350 C351 1.355 . S
C350 C352 1.415 . S
C351 C350 1.355 . S
C351 C353 1.419 1_554 S
C352 C350 1.415 . S
C352 C357 1.425 . S
C352 C359 1.409 . S
C353 H345 0.930 . S
C353 C351 1.419 1_556 S
C353 C354 1.362 . S
C354 H346 0.930 . S
C354 C353 1.362 . S
C354 C357 1.409 1_556 S
C355 H347 0.930 1_554 S
C355 C356 1.355 . S
C355 C357 1.415 . S
C356 C355 1.355 . S
C356 C358 1.419 . S
C357 C352 1.425 . S
C357 C354 1.409 1_554 S
C357 C355 1.415 . S
C358 H348 0.930 . S
C358 C356 1.419 . S
C358 C359 1.362 . S
C359 H349 0.930 . S
C359 C352 1.409 . S
C359 C358 1.362 . S
H360 C366 0.930 . S
H361 C369 0.930 . S
H362 C370 0.930 . S
H363 C371 0.930 . S
H364 C374 0.930 . S
H365 C375 0.930 . S
C366 H360 0.930 . S
C366 C367 1.355 . S
C366 C368 1.415 . S
C367 C366 1.355 . S
C367 C369 1.419 . S
C368 C366 1.415 . S
C368 C373 1.425 . S
C368 C375 1.409 . S
C369 H361 0.930 . S
C369 C367 1.419 . S
C369 C370 1.362 . S
C370 H362 0.930 . S
C370 C369 1.362 . S
C370 C373 1.409 . S
C371 H363 0.930 . S
C371 C372 1.355 . S
C371 C373 1.415 . S
C372 C371 1.355 . S
C372 C374 1.419 . S
C373 C368 1.425 . S
C373 C370 1.409 . S
C373 C371 1.415 . S
C374 H364 0.930 . S
C374 C372 1.419 . S
C374 C375 1.362 . S
C375 H365 0.930 . S
C375 C368 1.409 . S
C375 C374 1.362 . S
H376 C382 0.930 . S
H377 C385 0.930 . S
H378 C386 0.930 . S
H379 C387 0.930 . S
H380 C390 0.930 . S
H381 C391 0.930 . S
C382 H376 0.930 . S
C382 C383 1.355 . S
C382 C384 1.415 . S
C383 C382 1.355 . S
C383 C385 1.419 . S
C384 C382 1.415 . S
C384 C389 1.425 . S
C384 C391 1.409 . S
C385 H377 0.930 . S
C385 C383 1.419 . S
C385 C386 1.362 . S
C386 H378 0.930 . S
C386 C385 1.362 . S
C386 C389 1.409 . S
C387 H379 0.930 . S
C387 C388 1.355 . S
C387 C389 1.415 . S
C388 C387 1.355 . S
C388 C390 1.419 . S
C389 C384 1.425 . S
C389 C386 1.409 . S
C389 C387 1.415 . S
C390 H380 0.930 . S
C390 C388 1.419 . S
C390 C391 1.362 . S
C391 H381 0.930 . S
C391 C384 1.409 . S
C391 C390 1.362 . S
H392 C398 0.930 . S
H393 C401 0.930 . S
H394 C402 0.949 . S
H395 C403 0.930 . S
H396 C406 0.930 . S
H397 C407 0.930 . S
C398 H392 0.930 . S
C398 C399 1.355 . S
C398 C400 1.415 . S
C399 C398 1.355 . S
C399 C401 1.419 . S
C400 C398 1.415 . S
C400 C405 1.425 . S
C400 C407 1.409 . S
C401 H393 0.930 . S
C401 C399 1.419 . S
C401 C402 1.362 . S
C402 H394 0.949 . S
C402 C401 1.362 . S
C402 C405 1.409 . S
C403 H395 0.930 . S
C403 C404 1.355 . S
C403 C405 1.415 . S
C404 C403 1.355 . S
C404 C406 1.419 . S
C405 C400 1.425 . S
C405 C402 1.409 . S
C405 C403 1.415 . S
C406 H396 0.930 . S
C406 C404 1.419 . S
C406 C407 1.362 . S
C407 H397 0.930 . S
C407 C400 1.409 . S
C407 C406 1.362 . S
H408 C414 0.930 . S
H409 C417 0.930 . S
H410 C418 0.930 . S
H411 C419 0.930 . S
H412 C422 0.930 . S
H413 C423 0.930 . S
C414 H408 0.930 . S
C414 C415 1.355 . S
C414 C416 1.415 . S
C415 C414 1.355 . S
C415 C417 1.419 . S
C416 C414 1.415 . S
C416 C421 1.425 . S
C416 C423 1.409 . S
C417 H409 0.930 . S
C417 C415 1.419 . S
C417 C418 1.362 . S
C418 H410 0.930 . S
C418 C417 1.362 . S
C418 C421 1.409 . S
C419 H411 0.930 . S
C419 C420 1.355 . S
C419 C421 1.415 . S
C420 C419 1.355 . S
C420 C422 1.419 . S
C421 C416 1.425 . S
C421 C418 1.409 . S
C421 C419 1.415 . S
C422 H412 0.930 . S
C422 C420 1.419 . S
C422 C423 1.362 . S
C423 H413 0.930 . S
C423 C416 1.409 . S
C423 C422 1.362 . S
H424 C430 0.930 . S
H425 C433 0.930 . S
H426 C434 0.930 . S
H427 C435 0.930 . S
H428 C438 0.930 . S
H429 C439 0.930 . S
C430 H424 0.930 . S
C430 C431 1.355 . S
C430 C432 1.415 . S
C431 C430 1.355 . S
C431 C433 1.419 . S
C432 C430 1.415 . S
C432 C437 1.425 . S
C432 C439 1.409 . S
C433 H425 0.930 . S
C433 C431 1.419 . S
C433 C434 1.362 . S
C434 H426 0.930 . S
C434 C433 1.362 . S
C434 C437 1.409 . S
C435 H427 0.930 . S
C435 C436 1.355 . S
C435 C437 1.415 . S
C436 C435 1.355 . S
C436 C438 1.419 . S
C437 C432 1.425 . S
C437 C434 1.409 . S
C437 C435 1.415 . S
C438 H428 0.930 . S
C438 C436 1.419 . S
C438 C439 1.362 . S
C439 H429 0.930 . S
C439 C432 1.409 . S
C439 C438 1.362 . S
H440 C446 0.930 . S
H441 C449 0.930 . S
H442 C450 0.930 . S
H443 C451 0.930 . S
H444 C454 0.930 . S
H445 C455 0.930 . S
C446 H440 0.930 . S
C446 C447 1.355 . S
C446 C448 1.415 . S
C447 C446 1.355 . S
C447 C449 1.419 . S
C448 C446 1.415 . S
C448 C453 1.425 . S
C448 C455 1.409 . S
C449 H441 0.930 . S
C449 C447 1.419 . S
C449 C450 1.362 . S
C450 H442 0.930 . S
C450 C449 1.362 . S
C450 C453 1.409 . S
C451 H443 0.930 . S
C451 C452 1.355 . S
C451 C453 1.415 . S
C452 C451 1.355 . S
C452 C454 1.419 . S
C453 C448 1.425 . S
C453 C450 1.409 . S
C453 C451 1.415 . S
C454 H444 0.930 . S
C454 C452 1.419 . S
C454 C455 1.362 . S
C455 H445 0.930 . S
C455 C448 1.409 . S
C455 C454 1.362 . S
H456 C462 0.930 . S
H457 C465 0.930 . S
H458 C466 0.930 . S
H459 C467 0.930 . S
H460 C470 0.930 . S
H461 C471 0.930 . S
C462 H456 0.930 . S
C462 C463 1.355 . S
C462 C464 1.415 . S
C463 C462 1.355 . S
C463 C465 1.419 . S
C464 C462 1.415 . S
C464 C469 1.425 . S
C464 C471 1.409 . S
C465 H457 0.930 . S
C465 C463 1.419 . S
C465 C466 1.362 . S
C466 H458 0.930 . S
C466 C465 1.362 . S
C466 C469 1.409 . S
C467 H459 0.930 . S
C467 C468 1.355 . S
C467 C469 1.415 . S
C468 C467 1.355 . S
C468 C470 1.419 . S
C469 C464 1.425 . S
C469 C466 1.409 . S
C469 C467 1.415 . S
C470 H460 0.930 . S
C470 C468 1.419 . S
C470 C471 1.362 . S
C471 H461 0.930 . S
C471 C464 1.409 . S
C471 C470 1.362 . S
H472 C478 0.930 . S
H473 C481 0.930 . S
H474 C482 0.930 1_545 S
H475 C483 0.930 1_545 S
H476 C486 0.930 . S
H477 C487 0.930 . S
C478 H472 0.930 . S
C478 C479 1.355 . S
C478 C480 1.415 . S
C479 C478 1.355 . S
C479 C481 1.419 . S
C480 C478 1.415 . S
C480 C485 1.425 . S
C480 C487 1.409 . S
C481 H473 0.930 . S
C481 C479 1.419 . S
C481 C482 1.362 . S
C482 H474 0.930 1_565 S
C482 C481 1.362 . S
C482 C485 1.409 . S
C483 H475 0.930 1_565 S
C483 C484 1.355 . S
C483 C485 1.415 . S
C484 C483 1.355 . S
C484 C486 1.419 . S
C485 C480 1.425 . S
C485 C482 1.409 . S
C485 C483 1.415 . S
C486 H476 0.930 . S
C486 C484 1.419 . S
C486 C487 1.362 . S
C487 H477 0.930 . S
C487 C480 1.409 . S
C487 C486 1.362 . S
C308 C196 1.614 . S
C303 C119 1.634 . S
C319 C23 1.613 . S
C324 C268 1.602 . S
C335 C55 1.520 . S
C340 C184 1.635 . S
C351 C87 1.538 . S
C356 C280 1.577 . S
C372 C186 1.330 . S
C367 C17 1.521 . S
C388 C267 1.604 . S
C383 C61 1.492 . S
C399 C93 1.495 . S
C404 C183 1.605 . S
C415 C113 1.526 . S
C420 C270 1.445 . S
C436 C282 1.369 . S
C431 C49 1.507 . S
C452 C198 1.383 . S
C447 C81 1.496 . S
C468 C279 1.599 . S
C463 C125 1.580 . S
C479 C29 1.589 . S
C484 C195 1.603 . S
