# Generated by pormake.
# Topology pyr, (3,6)-cn, num edge types: 1
# Building blocks:
#     Node 0, Type 0, BuildingBlock: MIDCAF_clean_linker_0, # of connection points: 3
#     Node 1, Type 0, BuildingBlock: MIDCAF_clean_linker_0, # of connection points: 3
#     Node 2, Type 0, BuildingBlock: MIDCAF_clean_linker_0, # of connection points: 3
#     Node 3, Type 0, BuildingBlock: MIDCAF_clean_linker_0, # of connection points: 3
#     Node 4, Type 0, BuildingBlock: MIDCAF_clean_linker_0, # of connection points: 3
#     Node 5, Type 0, BuildingBlock: MIDCAF_clean_linker_0, # of connection points: 3
#     Node 6, Type 0, BuildingBlock: MIDCAF_clean_linker_0, # of connection points: 3
#     Node 7, Type 0, BuildingBlock: MIDCAF_clean_linker_0, # of connection points: 3
#     Node 8, Type 1, BuildingBlock: LEVNOQ01_clean_sbu_1, # of connection points: 6
#     Node 9, Type 1, BuildingBlock: LEVNOQ01_clean_sbu_1, # of connection points: 6
#     Node 10, Type 1, BuildingBlock: LEVNOQ01_clean_sbu_1, # of connection points: 6
#     Node 11, Type 1, BuildingBlock: LEVNOQ01_clean_sbu_1, # of connection points: 6
#     Edge 12, Type (0, 1), BuildingBlock: KIFKEQ_clean_linker_1, # of connection points: 2
#     Edge 13, Type (0, 1), BuildingBlock: KIFKEQ_clean_linker_1, # of connection points: 2
#     Edge 14, Type (0, 1), BuildingBlock: KIFKEQ_clean_linker_1, # of connection points: 2
#     Edge 15, Type (0, 1), BuildingBlock: KIFKEQ_clean_linker_1, # of connection points: 2
#     Edge 16, Type (0, 1), BuildingBlock: KIFKEQ_clean_linker_1, # of connection points: 2
#     Edge 17, Type (0, 1), BuildingBlock: KIFKEQ_clean_linker_1, # of connection points: 2
#     Edge 18, Type (0, 1), BuildingBlock: KIFKEQ_clean_linker_1, # of connection points: 2
#     Edge 19, Type (0, 1), BuildingBlock: KIFKEQ_clean_linker_1, # of connection points: 2
#     Edge 20, Type (0, 1), BuildingBlock: KIFKEQ_clean_linker_1, # of connection points: 2
#     Edge 21, Type (0, 1), BuildingBlock: KIFKEQ_clean_linker_1, # of connection points: 2
#     Edge 22, Type (0, 1), BuildingBlock: KIFKEQ_clean_linker_1, # of connection points: 2
#     Edge 23, Type (0, 1), BuildingBlock: KIFKEQ_clean_linker_1, # of connection points: 2
#     Edge 24, Type (0, 1), BuildingBlock: KIFKEQ_clean_linker_1, # of connection points: 2
#     Edge 25, Type (0, 1), BuildingBlock: KIFKEQ_clean_linker_1, # of connection points: 2
#     Edge 26, Type (0, 1), BuildingBlock: KIFKEQ_clean_linker_1, # of connection points: 2
#     Edge 27, Type (0, 1), BuildingBlock: KIFKEQ_clean_linker_1, # of connection points: 2
#     Edge 28, Type (0, 1), BuildingBlock: KIFKEQ_clean_linker_1, # of connection points: 2
#     Edge 29, Type (0, 1), BuildingBlock: KIFKEQ_clean_linker_1, # of connection points: 2
#     Edge 30, Type (0, 1), BuildingBlock: KIFKEQ_clean_linker_1, # of connection points: 2
#     Edge 31, Type (0, 1), BuildingBlock: KIFKEQ_clean_linker_1, # of connection points: 2
#     Edge 32, Type (0, 1), BuildingBlock: KIFKEQ_clean_linker_1, # of connection points: 2
#     Edge 33, Type (0, 1), BuildingBlock: KIFKEQ_clean_linker_1, # of connection points: 2
#     Edge 34, Type (0, 1), BuildingBlock: KIFKEQ_clean_linker_1, # of connection points: 2
#     Edge 35, Type (0, 1), BuildingBlock: KIFKEQ_clean_linker_1, # of connection points: 2
# Relax obj value: 0.035
# Max RMSD: 0.111
# Mean RMSD: 0.047
data_MOF--net-pry--node1-LEVNOQ01_clean_sbu_1--node2-MIDCAF_clean_linker_0--edge1-KIFKEQ_clean_linker_1
_symmetry_space_group_name_H-M    P1
_symmetry_Int_Tables_number       1
_symmetry_cell_setting            triclinic
loop_
_symmetry_equiv_pos_as_xyz
'x, y, z'
_cell_length_a     46.303278
_cell_length_b     44.634192
_cell_length_c     44.575887
_cell_angle_alpha  92.24396
_cell_angle_beta   91.046397
_cell_angle_gamma 93.518377
loop_
_atom_site_label
_atom_site_type_symbol
_atom_site_fract_x
_atom_site_fract_y
_atom_site_fract_z
_atom_type_partial_charge
C0 C 0.0991 0.13499 0.23709 0.0
C1 C 0.10562 0.10632 0.24608 0.0
C2 C 0.1228 0.08883 0.22755 0.0
C3 C 0.1334 0.09982 0.20069 0.0
H4 H 0.20239 0.0925 0.14619 0.0
H5 H 0.2444 0.06998 0.12539 0.0
H6 H 0.2439 0.13065 0.05226 0.0
H7 H 0.20127 0.15296 0.07278 0.0
H8 H 0.16269 0.21684 0.08832 0.0
H9 H 0.14177 0.2614 0.06958 0.0
H10 H 0.06011 0.23439 0.1092 0.0
H11 H 0.08169 0.19101 0.12935 0.0
H12 H 0.10385 0.16801 0.20361 0.0
H13 H 0.08571 0.14884 0.25085 0.0
H14 H 0.12829 0.0667 0.23402 0.0
H15 H 0.14667 0.08576 0.18703 0.0
N16 N 0.1613 0.12776 0.15014 0.0
N17 N 0.16064 0.16222 0.11173 0.0
N18 N 0.12633 0.16348 0.14993 0.0
C19 C 0.17271 0.13858 0.12454 0.0
C20 C 0.13728 0.17465 0.12425 0.0
C21 C 0.13826 0.14009 0.16305 0.0
C22 C 0.19831 0.12473 0.11127 0.0
C23 C 0.21107 0.10111 0.12561 0.0
C24 C 0.23538 0.08822 0.11375 0.0
C25 C 0.24772 0.0985 0.08718 0.0
C26 C 0.23481 0.1219 0.0726 0.0
C27 C 0.21044 0.13486 0.0845 0.0
C28 C 0.12399 0.20052 0.11061 0.0
C29 C 0.14024 0.22042 0.0929 0.0
C30 C 0.12808 0.24596 0.08196 0.0
C31 C 0.09912 0.25197 0.08793 0.0
C32 C 0.08265 0.23127 0.10473 0.0
C33 C 0.09499 0.20613 0.11615 0.0
C34 C 0.12671 0.12842 0.19147 0.0
C35 C 0.10932 0.14584 0.20994 0.0
C36 C 0.26183 0.91475 0.59531 0.0
C37 C 0.2536 0.90299 0.5665 0.0
C38 C 0.27284 0.88565 0.55044 0.0
C39 C 0.29974 0.88002 0.56302 0.0
H40 H 0.36275 0.82042 0.55641 0.0
H41 H 0.38727 0.77716 0.53746 0.0
H42 H 0.45553 0.79603 0.60411 0.0
H43 H 0.43074 0.839 0.62362 0.0
H44 H 0.42615 0.89405 0.67049 0.0
H45 H 0.44345 0.92054 0.71673 0.0
H46 H 0.36255 0.96332 0.72356 0.0
H47 H 0.34496 0.93662 0.6774 0.0
H48 H 0.29451 0.91889 0.62999 0.0
H49 H 0.24754 0.92853 0.60803 0.0
H50 H 0.26698 0.87624 0.52823 0.0
H51 H 0.31403 0.86649 0.55004 0.0
N52 N 0.3524 0.86419 0.59268 0.0
N53 N 0.38858 0.87408 0.62982 0.0
N54 N 0.34706 0.90166 0.63011 0.0
C55 C 0.37836 0.85805 0.60486 0.0
C56 C 0.37308 0.896 0.64255 0.0
C57 C 0.33663 0.88593 0.6051 0.0
C58 C 0.39458 0.83314 0.59179 0.0
C59 C 0.38309 0.81556 0.56697 0.0
C60 C 0.39727 0.79081 0.5559 0.0
C61 C 0.42329 0.78302 0.56934 0.0
C62 C 0.43527 0.80115 0.59353 0.0
C63 C 0.42109 0.8259 0.60463 0.0
C64 C 0.38408 0.91304 0.67016 0.0
C65 C 0.41202 0.90918 0.6817 0.0
C66 C 0.42206 0.92457 0.70813 0.0
C67 C 0.4044 0.94412 0.72378 0.0
C68 C 0.37659 0.94826 0.71213 0.0
C69 C 0.36658 0.933 0.68558 0.0
C70 C 0.3081 0.89193 0.59179 0.0
C71 C 0.28884 0.90942 0.60777 0.0
C72 C 0.62269 0.2717 0.90183 0.0
C73 C 0.59941 0.25785 0.88475 0.0
C74 C 0.58471 0.2748 0.8642 0.0
C75 C 0.59379 0.30472 0.86002 0.0
H76 H 0.59711 0.35948 0.79342 0.0
H77 H 0.58562 0.37474 0.74367 0.0
H78 H 0.63792 0.45754 0.75987 0.0
H79 H 0.65062 0.44159 0.81018 0.0
H80 H 0.68429 0.44983 0.88035 0.0
H81 H 0.724 0.47281 0.91197 0.0
H82 H 0.73089 0.38875 0.95587 0.0
H83 H 0.69089 0.36659 0.92567 0.0
H84 H 0.64998 0.31152 0.91098 0.0
H85 H 0.63403 0.25928 0.91828 0.0
H86 H 0.56665 0.2647 0.8508 0.0
H87 H 0.58237 0.31697 0.8435 0.0
N88 N 0.62094 0.36136 0.84401 0.0
N89 N 0.6529 0.40346 0.85443 0.0
N90 N 0.6491 0.36415 0.88805 0.0
C91 C 0.63271 0.38835 0.83594 0.0
C92 C 0.66108 0.39141 0.88072 0.0
C93 C 0.6289 0.34908 0.86989 0.0
C94 C 0.62484 0.39933 0.80605 0.0
C95 C 0.60626 0.38104 0.7867 0.0
C96 C 0.59947 0.38987 0.758 0.0
C97 C 0.61066 0.41746 0.74775 0.0
C98 C 0.62918 0.43597 0.76699 0.0
C99 C 0.63624 0.42697 0.7959 0.0
C100 C 0.68434 0.40635 0.90038 0.0
C101 C 0.69417 0.43644 0.897 0.0
C102 C 0.71703 0.44956 0.91508 0.0
C103 C 0.73078 0.43276 0.9367 0.0
C104 C 0.72056 0.4028 0.94016 0.0
C105 C 0.69761 0.3899 0.92248 0.0
C106 C 0.6176 0.31839 0.87652 0.0
C107 C 0.63161 0.30171 0.89787 0.0
C108 C 0.78697 0.59551 0.46715 0.0
C109 C 0.77081 0.57049 0.4543 0.0
C110 C 0.78173 0.55511 0.42924 0.0
C111 C 0.8079 0.56509 0.41675 0.0
H112 H 0.8522 0.56347 0.33532 0.0
H113 H 0.86615 0.54645 0.28503 0.0
H114 H 0.94534 0.6026 0.2944 0.0
H115 H 0.93181 0.61937 0.3443 0.0
H116 H 0.93825 0.67021 0.39564 0.0
H117 H 0.96203 0.71593 0.41846 0.0
H118 H 0.90613 0.70875 0.49468 0.0
H119 H 0.88201 0.66335 0.47182 0.0
H120 H 0.82488 0.625 0.46516 0.0
H121 H 0.77919 0.60764 0.4866 0.0
H122 H 0.76956 0.53591 0.41866 0.0
H123 H 0.81541 0.55308 0.39709 0.0
N124 N 0.85857 0.59177 0.38766 0.0
N125 N 0.89885 0.62646 0.38901 0.0
N126 N 0.86718 0.62508 0.4293 0.0
C127 C 0.88267 0.60369 0.37443 0.0
C128 C 0.89128 0.63723 0.41649 0.0
C129 C 0.85074 0.60236 0.41519 0.0
C130 C 0.89091 0.59276 0.34402 0.0
C131 C 0.87265 0.5721 0.3267 0.0
C132 C 0.88051 0.56246 0.29782 0.0
C133 C 0.90692 0.57302 0.28586 0.0
C134 C 0.92506 0.59366 0.30316 0.0
C135 C 0.91718 0.60341 0.33179 0.0
C136 C 0.90792 0.66321 0.43165 0.0
C137 C 0.93121 0.67813 0.41742 0.0
C138 C 0.94501 0.70427 0.43062 0.0
C139 C 0.93586 0.71608 0.45833 0.0
C140 C 0.91342 0.70046 0.47313 0.0
C141 C 0.89964 0.67435 0.45999 0.0
C142 C 0.82381 0.59055 0.42921 0.0
C143 C 0.81323 0.60535 0.45485 0.0
C144 C 0.77995 0.93624 0.90429 0.0
C145 C 0.76785 0.92475 0.9305 0.0
C146 C 0.78144 0.9014 0.9444 0.0
C147 C 0.80581 0.88914 0.93184 0.0
H148 H 0.85983 0.81808 0.93978 0.0
H149 H 0.87832 0.77175 0.95785 0.0
H150 H 0.93997 0.77166 0.88637 0.0
H151 H 0.92151 0.81747 0.86811 0.0
H152 H 0.92635 0.87216 0.82466 0.0
H153 H 0.94416 0.88884 0.77659 0.0
H154 H 0.86543 0.9335 0.76155 0.0
H155 H 0.8475 0.91705 0.80995 0.0
H156 H 0.81255 0.93306 0.87115 0.0
H157 H 0.76992 0.95395 0.89276 0.0
H158 H 0.773 0.89227 0.96485 0.0
H159 H 0.81528 0.87084 0.94295 0.0
N160 N 0.85415 0.86182 0.90303 0.0
N161 N 0.88644 0.85904 0.86325 0.0
N162 N 0.85234 0.89572 0.8641 0.0
C163 C 0.8764 0.84839 0.8895 0.0
C164 C 0.87458 0.8826 0.85036 0.0
C165 C 0.84208 0.88564 0.89055 0.0
C166 C 0.88889 0.8215 0.90223 0.0
C167 C 0.87748 0.80833 0.92802 0.0
C168 C 0.88817 0.78182 0.93851 0.0
C169 C 0.91045 0.7678 0.92339 0.0
C170 C 0.92246 0.78153 0.89824 0.0
C171 C 0.91187 0.80796 0.88783 0.0
C172 C 0.88548 0.89328 0.82126 0.0
C173 C 0.91277 0.88555 0.8112 0.0
C174 C 0.92306 0.8952 0.78369 0.0
C175 C 0.90618 0.91245 0.76533 0.0
C176 C 0.87881 0.92005 0.77517 0.0
C177 C 0.86866 0.91079 0.80298 0.0
C178 C 0.8173 0.89991 0.90503 0.0
C179 C 0.80433 0.924 0.89173 0.0
C180 C 0.61624 0.07059 0.29543 0.0
C181 C 0.59209 0.08147 0.28086 0.0
C182 C 0.57746 0.10454 0.29517 0.0
C183 C 0.58738 0.11727 0.32287 0.0
H184 H 0.56847 0.17861 0.38804 0.0
H185 H 0.54454 0.22163 0.40806 0.0
H186 H 0.6162 0.24279 0.47021 0.0
H187 H 0.6402 0.19911 0.45051 0.0
H188 H 0.6887 0.1482 0.45558 0.0
H189 H 0.73437 0.13204 0.47589 0.0
H190 H 0.74429 0.07651 0.39562 0.0
H191 H 0.69874 0.09185 0.37574 0.0
H192 H 0.64542 0.075 0.33332 0.0
H193 H 0.62809 0.05299 0.28487 0.0
H194 H 0.55854 0.11314 0.28466 0.0
H195 H 0.57588 0.13544 0.33284 0.0
N196 N 0.61032 0.14518 0.37859 0.0
N197 N 0.64737 0.15223 0.41528 0.0
N198 N 0.64986 0.11503 0.37687 0.0
C199 C 0.62165 0.1601 0.4037 0.0
C200 C 0.6616 0.12965 0.40194 0.0
C201 C 0.62423 0.12258 0.36506 0.0
C202 C 0.60646 0.18544 0.41742 0.0
C203 C 0.5792 0.19223 0.40607 0.0
C204 C 0.56547 0.21704 0.41749 0.0
C205 C 0.57861 0.23586 0.4405 0.0
C206 C 0.60544 0.22863 0.45259 0.0
C207 C 0.61924 0.20367 0.44117 0.0
C208 C 0.68981 0.12108 0.41415 0.0
C209 C 0.70067 0.13256 0.44227 0.0
C210 C 0.72691 0.12343 0.45386 0.0
C211 C 0.7428 0.1027 0.43755 0.0
C212 C 0.73227 0.09194 0.40913 0.0
C213 C 0.70612 0.10089 0.39764 0.0
C214 C 0.61228 0.1073 0.33692 0.0
C215 C 0.62628 0.08341 0.32312 0.0
C216 C 0.28013 0.57545 0.09317 0.0
C217 C 0.26493 0.59278 0.07317 0.0
C218 C 0.2742 0.62319 0.07067 0.0
C219 C 0.29751 0.63603 0.08798 0.0
H220 H 0.34864 0.71374 0.09982 0.0
H221 H 0.36745 0.76492 0.09167 0.0
H222 H 0.43519 0.75599 0.15797 0.0
H223 H 0.41647 0.70471 0.16625 0.0
H224 H 0.40603 0.6553 0.21346 0.0
H225 H 0.4148 0.63888 0.26383 0.0
H226 H 0.34314 0.57245 0.25276 0.0
H227 H 0.33453 0.58855 0.20181 0.0
H228 H 0.3141 0.57463 0.12642 0.0
H229 H 0.27409 0.55183 0.09538 0.0
H230 H 0.26283 0.63758 0.05612 0.0
H231 H 0.30352 0.65968 0.0858 0.0
N232 N 0.34798 0.66057 0.12169 0.0
N233 N 0.37561 0.66207 0.16624 0.0
N234 N 0.34262 0.62106 0.15481 0.0
C235 C 0.36836 0.67487 0.14032 0.0
C236 C 0.36287 0.63528 0.17376 0.0
C237 C 0.33521 0.63353 0.12859 0.0
C238 C 0.38095 0.70515 0.13379 0.0
C239 C 0.36764 0.72256 0.11256 0.0
C240 C 0.37822 0.75198 0.1081 0.0
C241 C 0.40252 0.76452 0.12451 0.0
C242 C 0.41637 0.74689 0.1451 0.0
C243 C 0.40559 0.71756 0.14984 0.0
C244 C 0.36942 0.62338 0.20355 0.0
C245 C 0.39209 0.63714 0.22162 0.0
C246 C 0.39699 0.62792 0.25069 0.0
C247 C 0.37934 0.60474 0.26254 0.0
C248 C 0.35712 0.59039 0.24427 0.0
C249 C 0.35222 0.5996 0.21505 0.0
C250 C 0.31196 0.61901 0.10871 0.0
C251 C 0.30321 0.58847 0.11091 0.0
C252 C 0.07718 0.30583 0.55178 0.0
C253 C 0.05291 0.29342 0.56646 0.0
C254 C 0.04201 0.30956 0.59102 0.0
C255 C 0.0559 0.33666 0.60163 0.0
H256 H 0.05921 0.39219 0.67485 0.0
H257 H 0.0469 0.40876 0.72512 0.0
H258 H 0.12315 0.46965 0.73027 0.0
H259 H 0.13598 0.45268 0.67962 0.0
H260 H 0.17836 0.4526 0.6251 0.0
H261 H 0.22542 0.46717 0.60512 0.0
H262 H 0.20694 0.40851 0.52693 0.0
H263 H 0.15952 0.39399 0.54666 0.0
H264 H 0.11034 0.34136 0.55115 0.0
H265 H 0.08628 0.29387 0.53294 0.0
H266 H 0.02304 0.30089 0.6025 0.0
H267 H 0.04727 0.34798 0.62112 0.0
N268 N 0.09025 0.38677 0.62868 0.0
N269 N 0.13028 0.42149 0.6289 0.0
N270 N 0.12164 0.38704 0.58809 0.0
C271 C 0.10636 0.4099 0.64257 0.0
C272 C 0.13799 0.4103 0.60156 0.0
C273 C 0.09765 0.37521 0.60147 0.0
C274 C 0.09858 0.42111 0.67299 0.0
C275 C 0.07342 0.40919 0.68647 0.0
C276 C 0.06624 0.41883 0.71534 0.0
C277 C 0.08393 0.44071 0.73161 0.0
C278 C 0.10917 0.45266 0.71832 0.0
C279 C 0.11638 0.44304 0.68924 0.0
C280 C 0.16522 0.42173 0.58775 0.0
C281 C 0.18405 0.443 0.60347 0.0
C282 C 0.21111 0.45132 0.59208 0.0
C283 C 0.22 0.43867 0.56466 0.0
C284 C 0.20064 0.41868 0.54809 0.0
C285 C 0.17354 0.41023 0.55954 0.0
C286 C 0.08105 0.34837 0.58791 0.0
C287 C 0.09109 0.33302 0.56236 0.0
O288 O 0.01736 0.00065 0.57963 0.0
Mg289 Mg 0.03705 0.02891 0.54797 0.0
O290 O 0.98244 0.98535 0.54725 0.0
Mg291 Mg -0.00019 0.00347 0.50156 0.0
O292 O 0.01111 0.05281 0.52132 0.0
O293 O 0.03826 0.07269 0.56053 0.0
O294 O 0.01811 0.02237 0.45612 0.0
O295 O 0.95394 0.0226 0.495 0.0
Mg296 Mg 0.96781 0.97489 0.44684 0.0
O297 O 0.98707 0.95481 0.48191 0.0
O298 O 0.99725 0.99559 0.41797 0.0
O299 O 0.93013 0.9958 0.4586 0.0
O300 O 0.96436 0.92967 0.44273 0.0
C301 C 0.07122 0.99218 0.51454 0.0
C302 C 0.99359 0.98591 0.5737 0.0
C303 C 0.02114 0.07596 0.53792 0.0
C304 C 0.01558 0.01584 0.42797 0.0
C305 C 0.93099 0.01619 0.47915 0.0
C306 C 0.97842 0.92956 0.46798 0.0
O307 O 0.0754 0.01711 0.52862 0.0
O308 O 0.04549 0.98234 0.50717 0.0
O309 O 0.45647 0.07049 0.02151 0.0
Mg310 Mg 0.50151 0.07244 0.02263 0.0
O311 O 0.45642 0.02129 0.01383 0.0
Mg312 Mg 0.50418 0.00842 0.00076 0.0
O313 O 0.52015 0.05587 0.98481 0.0
O314 O 0.52031 0.10497 0.99854 0.0
O315 O 0.55188 0.9948 0.98739 0.0
O316 O 0.48601 0.0021 0.95057 0.0
Mg317 Mg 0.50354 0.94478 0.97693 0.0
O318 O 0.48802 0.96103 0.01654 0.0
O319 O 0.5482 0.94646 0.97419 0.0
O320 O 0.48136 0.9537 0.93775 0.0
O321 O 0.48557 0.91213 0.00162 0.0
C322 C 0.52941 0.03798 0.06875 0.0
C323 C 0.44292 0.04508 0.01909 0.0
C324 C 0.5272 0.08391 0.97986 0.0
C325 C 0.56348 0.97074 0.97844 0.0
C326 C 0.47846 0.98072 0.93158 0.0
C327 C 0.48054 0.93304 0.02132 0.0
O328 O 0.52379 0.06428 0.06211 0.0
O329 O 0.52293 0.01554 0.05065 0.0
O330 O 0.47887 0.5685 0.5568 0.0
Mg331 Mg 0.47381 0.52338 0.56787 0.0
O332 O 0.48875 0.55856 0.50895 0.0
Mg333 Mg 0.4947 0.50649 0.50256 0.0
O334 O 0.50778 0.50102 0.55206 0.0
O335 O 0.49988 0.50887 0.60095 0.0
O336 O 0.5011 0.45426 0.49713 0.0
O337 O 0.54405 0.51753 0.4949 0.0
Mg338 Mg 0.50974 0.48344 0.43726 0.0
O339 O 0.48216 0.51328 0.45339 0.0
O340 O 0.49595 0.44015 0.44907 0.0
O341 O 0.55267 0.49834 0.44941 0.0
O342 O 0.48723 0.50349 0.40438 0.0
C343 C 0.42738 0.491 0.53016 0.0
C344 C 0.48406 0.57716 0.53062 0.0
C345 C 0.51527 0.49785 0.57987 0.0
C346 C 0.49825 0.43365 0.47634 0.0
C347 C 0.56152 0.51165 0.47387 0.0
C348 C 0.47468 0.51753 0.42583 0.0
O349 O 0.43447 0.49919 0.55693 0.0
O350 O 0.4452 0.49374 0.50878 0.0
O351 O 0.04535 0.4766 0.04805 0.0
Mg352 Mg 0.0282 0.52056 0.04922 0.0
O353 O 0.00558 0.45959 0.02423 0.0
Mg354 Mg -0.00247 0.50773 0.00931 0.0
O355 O 0.98628 0.52456 0.0604 0.0
O356 O 0.02415 0.53263 0.09257 0.0
O357 O 0.98906 0.55579 0.99422 0.0
O358 O 0.94622 0.49855 0.01601 0.0
Mg359 Mg 0.96712 0.49421 0.96853 0.0
O360 O 0.0092 0.49029 0.95855 0.0
O361 O 0.9515 0.5385 0.96678 0.0
O362 O 0.94274 0.45821 0.98765 0.0
O363 O 0.97196 0.47992 0.92596 0.0
C364 C 0.06285 0.54179 0.01088 0.0
C365 C 0.02911 0.45451 0.03779 0.0
C366 C 0.99671 0.53211 0.0872 0.0
C367 C 0.96693 0.56071 0.97814 0.0
C368 C 0.93155 0.47477 0.00705 0.0
C369 C -0.00068 0.48138 0.93189 0.0
O370 O 0.05144 0.55766 0.03072 0.0
O371 O 0.04885 0.51758 0.00192 0.0
H372 H 0.07789 0.05178 0.25368 0.0
H373 H 0.1073 0.13381 0.30222 0.0
H374 H 0.05895 0.03149 0.29962 0.0
H375 H 0.08948 0.11308 0.34891 0.0
H376 H 0.02491 0.07616 0.41974 0.0
H377 H 0.04815 0.09926 0.37661 0.0
H378 H 0.07241 0.01174 0.34455 0.0
H379 H 0.04764 0.98897 0.38637 0.0
C380 C 0.08063 0.06531 0.27437 0.0
C381 C 0.09416 0.09429 0.2744 0.0
C382 C 0.06996 0.05363 0.30087 0.0
C383 C 0.073 0.07039 0.32833 0.0
C384 C 0.08647 0.09955 0.32828 0.0
C385 C 0.09677 0.11143 0.30156 0.0
C386 C 0.0357 0.06214 0.40363 0.0
C387 C 0.03442 0.03086 0.40612 0.0
C388 C 0.04904 0.07528 0.37889 0.0
C389 C 0.06169 0.05735 0.35654 0.0
C390 C 0.06206 0.02625 0.36055 0.0
C391 C 0.04823 0.01317 0.38476 0.0
H392 H 0.45775 0.97144 0.7376 0.0
H393 H 0.37422 0.95026 0.77567 0.0
H394 H 0.47645 0.98985 0.78689 0.0
H395 H 0.39296 0.96844 0.82499 0.0
H396 H 0.43216 0.01063 0.91135 0.0
H397 H 0.41383 0.01002 0.85906 0.0
H398 H 0.48732 0.96165 0.83064 0.0
H399 H 0.50519 0.96241 0.8822 0.0
C400 C 0.44332 0.97096 0.75645 0.0
C401 C 0.41463 0.95898 0.75282 0.0
C402 C 0.45398 0.98161 0.78466 0.0
C403 C 0.43627 0.98037 0.80994 0.0
C404 C 0.40709 0.97007 0.80596 0.0
C405 C 0.39638 0.95951 0.77768 0.0
C406 C 0.44464 0.00074 0.89363 0.0
C407 C 0.47 0.98658 0.90053 0.0
C408 C 0.43411 0.00013 0.86384 0.0
C409 C 0.44908 0.98571 0.84068 0.0
C410 C 0.47541 0.97331 0.8477 0.0
C411 C 0.48562 0.9736 0.87728 0.0
H412 H 0.64469 0.44638 0.70638 0.0
H413 H 0.55761 0.40954 0.72006 0.0
H414 H 0.63005 0.46132 0.65624 0.0
H415 H 0.54348 0.42355 0.67022 0.0
H416 H 0.52085 0.43789 0.57924 0.0
H417 H 0.55145 0.4136 0.61517 0.0
H418 H 0.59559 0.49947 0.63926 0.0
H419 H 0.56505 0.52344 0.60338 0.0
C420 C 0.62254 0.44136 0.6987 0.0
C421 C 0.60237 0.42664 0.71722 0.0
C422 C 0.61429 0.44958 0.66991 0.0
C423 C 0.58583 0.44297 0.65906 0.0
C424 C 0.56584 0.42805 0.6775 0.0
C425 C 0.57393 0.42017 0.70622 0.0
C426 C 0.53828 0.45113 0.59094 0.0
C427 C 0.5408 0.48239 0.58871 0.0
C428 C 0.55554 0.43737 0.61175 0.0
C429 C 0.57541 0.45481 0.63048 0.0
C430 C 0.58052 0.48545 0.62515 0.0
C431 C 0.56314 0.49919 0.60452 0.0
H432 H 0.87465 0.56748 0.23315 0.0
H433 H 0.9598 0.55531 0.27008 0.0
H434 H 0.89241 0.5571 0.18235 0.0
H435 H 0.97733 0.54508 0.21988 0.0
H436 H 0.01011 0.57297 0.1319 0.0
H437 H 0.98478 0.58085 0.1784 0.0
H438 H 0.916 0.5169 0.1471 0.0
H439 H 0.94157 0.50926 0.09957 0.0
C440 C 0.89697 0.56209 0.23047 0.0
C441 C 0.91602 0.56283 0.25552 0.0
C442 C 0.90709 0.55618 0.20145 0.0
C443 C 0.93639 0.55098 0.19715 0.0
C444 C 0.95481 0.54981 0.22243 0.0
C445 C 0.94479 0.55568 0.25119 0.0
C446 C 0.98938 0.56085 0.13467 0.0
C447 C 0.97799 0.54019 0.11234 0.0
C448 C 0.97495 0.56524 0.16139 0.0
C449 C 0.94882 0.54888 0.16672 0.0
C450 C 0.93623 0.52966 0.14361 0.0
C451 C 0.95076 0.52536 0.11647 0.0
H452 H 0.26067 0.08536 0.02835 0.0
H453 H 0.29506 0.08161 0.11879 0.0
H454 H 0.30511 0.06595 0.00882 0.0
H455 H 0.33921 0.06192 0.09925 0.0
H456 H 0.41038 0.01054 0.057 0.0
H457 H 0.36052 0.01865 0.07201 0.0
H458 H 0.35544 0.087 0.00646 0.0
H459 H 0.40493 0.07904 0.99192 0.0
C460 C 0.27765 0.0804 0.04409 0.0
C461 C 0.27425 0.08526 0.07517 0.0
C462 C 0.30306 0.0691 0.03289 0.0
C463 C 0.3257 0.06227 0.05247 0.0
C464 C 0.32201 0.06638 0.08356 0.0
C465 C 0.29666 0.07778 0.09475 0.0
C466 C 0.39816 0.02655 0.04524 0.0
C467 C 0.41133 0.04408 0.02323 0.0
C468 C 0.36979 0.03147 0.05403 0.0
C469 C 0.35405 0.05364 0.04057 0.0
C470 C 0.36676 0.06961 0.01714 0.0
C471 C 0.39513 0.06508 0.0088 0.0
H472 H 0.24286 0.92214 0.51021 0.0
H473 H 0.20068 0.89898 0.59249 0.0
H474 H 0.19701 0.93787 0.48979 0.0
H475 H 0.15493 0.91478 0.57213 0.0
H476 H 0.07253 0.932 0.52267 0.0
H477 H 0.11618 0.90432 0.52994 0.0
H478 H 0.16917 0.98282 0.50712 0.0
H479 H 0.12583 0.01042 0.50045 0.0
C480 C 0.22367 0.91988 0.52367 0.0
C481 C 0.22532 0.9096 0.55301 0.0
C482 C 0.1975 0.92893 0.51203 0.0
C483 C 0.17246 0.92746 0.52936 0.0
C484 C 0.17382 0.91579 0.55814 0.0
C485 C 0.20004 0.9071 0.56992 0.0
C486 C 0.0935 0.94289 0.51825 0.0
C487 C 0.09598 0.97329 0.51111 0.0
C488 C 0.1184 0.92719 0.52264 0.0
C489 C 0.146 0.94153 0.51927 0.0
C490 C 0.1482 0.97114 0.50966 0.0
C491 C 0.12343 0.98696 0.5059 0.0
H492 H 0.74661 0.42167 0.99489 0.0
H493 H 0.7744 0.47227 0.91861 0.0
H494 H 0.79323 0.43469 0.01997 0.0
H495 H 0.82017 0.4866 0.94472 0.0
H496 H 0.89443 0.5197 0.00849 0.0
H497 H 0.84236 0.5141 0.99706 0.0
H498 H 0.84521 0.41777 0.99903 0.0
H499 H 0.89737 0.42326 0.00943 0.0
C500 C 0.76239 0.43586 0.98356 0.0
C501 C 0.7568 0.44534 0.95432 0.0
C502 C 0.78895 0.44352 0.99815 0.0
C503 C 0.81018 0.46156 0.98423 0.0
C504 C 0.80396 0.47289 0.95604 0.0
C505 C 0.77764 0.46471 0.94113 0.0
C506 C 0.88372 0.4974 0.00766 0.0
C507 C 0.89984 0.47187 0.00999 0.0
C508 C 0.85403 0.49423 0.00083 0.0
C509 C 0.83993 0.46553 0.99708 0.0
C510 C 0.85558 0.44014 0.00205 0.0
C511 C 0.88536 0.44327 0.00809 0.0
H512 H 0.72749 0.60678 0.46924 0.0
H513 H 0.74872 0.51387 0.4651 0.0
H514 H 0.67766 0.59149 0.48117 0.0
H515 H 0.69897 0.49855 0.47744 0.0
H516 H 0.60426 0.4861 0.44349 0.0
H517 H 0.65563 0.49947 0.44602 0.0
H518 H 0.64227 0.56702 0.51564 0.0
H519 H 0.58995 0.55359 0.51292 0.0
C520 C 0.72167 0.58313 0.47166 0.0
C521 C 0.74185 0.56145 0.46578 0.0
C522 C 0.69315 0.57439 0.47862 0.0
C523 C 0.6843 0.5438 0.47989 0.0
C524 C 0.70502 0.52228 0.47605 0.0
C525 C 0.73346 0.531 0.46893 0.0
C526 C 0.61214 0.50374 0.4595 0.0
C527 C 0.59296 0.51909 0.47772 0.0
C528 C 0.64174 0.51115 0.46122 0.0
C529 C 0.65308 0.53422 0.48111 0.0
C530 C 0.63408 0.54919 0.5 0.0
C531 C 0.60423 0.54149 0.4985 0.0
H532 H 0.05837 0.28539 0.11585 0.0
H533 H 0.1111 0.28311 0.03672 0.0
H534 H 0.0393 0.33208 0.10025 0.0
H535 H 0.09312 0.33091 0.02241 0.0
H536 H 0.08381 0.43598 0.04197 0.0
H537 H 0.09885 0.38549 0.05098 0.0
H538 H 0.00938 0.35248 0.05274 0.0
H539 H 0.99419 0.40305 0.04275 0.0
C540 C 0.06569 0.29442 0.09494 0.0
C541 C 0.0865 0.28012 0.07768 0.0
C542 C 0.05478 0.32137 0.08613 0.0
C543 C 0.06477 0.3351 0.06018 0.0
C544 C 0.08521 0.32086 0.04266 0.0
C545 C 0.0957 0.29356 0.05109 0.0
C546 C 0.06732 0.41791 0.04402 0.0
C547 C 0.03782 0.42347 0.04175 0.0
C548 C 0.07595 0.38901 0.04901 0.0
C549 C 0.05528 0.36513 0.05256 0.0
C550 C 0.02574 0.37055 0.05012 0.0
C551 C 0.01708 0.3994 0.04432 0.0
H552 H 0.54464 0.23299 0.89072 0.0
H553 H 0.63395 0.21061 0.88738 0.0
H554 H 0.53036 0.18159 0.90276 0.0
H555 H 0.61967 0.15879 0.89885 0.0
H556 H 0.58368 0.10057 0.97794 0.0
H557 H 0.60371 0.13799 0.94478 0.0
H558 H 0.52524 0.12846 0.89023 0.0
H559 H 0.5051 0.09129 0.92429 0.0
C560 C 0.56112 0.21683 0.89182 0.0
C561 C 0.59043 0.22586 0.88863 0.0
C562 C 0.55295 0.18724 0.89846 0.0
C563 C 0.57391 0.16599 0.90183 0.0
C564 C 0.60305 0.17468 0.89678 0.0
C565 C 0.61124 0.20434 0.89038 0.0
C566 C 0.57148 0.10522 0.95784 0.0
C567 C 0.54305 0.0931 0.95341 0.0
C568 C 0.58285 0.12683 0.93884 0.0
C569 C 0.56578 0.13677 0.9152 0.0
C570 C 0.53867 0.1217 0.90861 0.0
C571 C 0.52732 0.10004 0.92773 0.0
H572 H 0.90628 0.76167 0.48287 0.0
H573 H 0.9926 0.73806 0.46058 0.0
H574 H 0.92444 0.81279 0.49569 0.0
H575 H 0.011 0.78947 0.47378 0.0
H576 H 0.0102 0.88863 0.44103 0.0
H577 H 0.00552 0.83488 0.44782 0.0
H578 H 0.95361 0.84974 0.52605 0.0
H579 H 0.95822 0.904 0.51867 0.0
C580 C 0.92932 0.76716 0.48158 0.0
C581 C 0.94794 0.74585 0.47039 0.0
C582 C 0.93981 0.79654 0.48911 0.0
C583 C 0.96921 0.80537 0.48568 0.0
C584 C 0.98817 0.78353 0.47631 0.0
C585 C 0.97763 0.75412 0.46865 0.0
C586 C -0.00103 0.88044 0.46049 0.0
C587 C 0.98465 0.90023 0.47939 0.0
C588 C 0.99622 0.84958 0.46443 0.0
C589 C 0.97876 0.83787 0.48721 0.0
C590 C 0.96685 0.85804 0.50801 0.0
C591 C 0.96979 0.88908 0.50411 0.0
H592 H 0.44691 0.74205 0.60461 0.0
H593 H 0.42981 0.7603 0.51171 0.0
H594 H 0.46671 0.69497 0.58931 0.0
H595 H 0.44986 0.71274 0.49622 0.0
H596 H 0.44868 0.60577 0.49311 0.0
H597 H 0.43747 0.65864 0.49876 0.0
H598 H 0.50683 0.67384 0.56485 0.0
H599 H 0.51697 0.62097 0.55999 0.0
C600 C 0.44794 0.73632 0.58083 0.0
C601 C 0.43693 0.75508 0.55941 0.0
C602 C 0.45937 0.70926 0.572 0.0
C603 C 0.46021 0.70017 0.54146 0.0
C604 C 0.44943 0.71901 0.51991 0.0
C605 C 0.43792 0.74622 0.5288 0.0
C606 C 0.46213 0.6208 0.50794 0.0
C607 C 0.48363 0.60954 0.52615 0.0
C608 C 0.45568 0.65103 0.51131 0.0
C609 C 0.47083 0.6703 0.53281 0.0
C610 C 0.49425 0.65944 0.5487 0.0
C611 C 0.50034 0.62929 0.54566 0.0
H612 H 0.95895 0.93977 0.75487 0.0
H613 H 0.87879 0.90829 0.71012 0.0
H614 H 0.97838 0.95557 0.70738 0.0
H615 H 0.8986 0.92285 0.66193 0.0
H616 H 0.9355 0.9806 0.5852 0.0
H617 H 0.91308 0.96241 0.63096 0.0
H618 H 0.99659 0.93712 0.66293 0.0
H619 H 0.01881 0.95691 0.61832 0.0
C620 C 0.9456 0.93594 0.73471 0.0
C621 C 0.91744 0.92265 0.73618 0.0
C622 C 0.95679 0.94479 0.70732 0.0
C623 C 0.94033 0.94008 0.68045 0.0
C624 C 0.91191 0.9271 0.68204 0.0
C625 C 0.90054 0.91866 0.70964 0.0
C626 C 0.94884 0.97076 0.60194 0.0
C627 C 0.97889 0.9704 0.59842 0.0
C628 C 0.93605 0.9603 0.6282 0.0
C629 C 0.95304 0.9488 0.65117 0.0
C630 C 0.98285 0.94677 0.64644 0.0
C631 C 0.99562 0.95778 0.62065 0.0
H632 H 0.57859 0.11534 0.23396 0.0
H633 H 0.58679 0.02325 0.25756 0.0
H634 H 0.56644 0.09875 0.18249 0.0
H635 H 0.57486 0.00653 0.20531 0.0
H636 H 0.51393 0.00048 0.11399 0.0
H637 H 0.53109 0.00696 0.16663 0.0
H638 H 0.59475 0.0755 0.14098 0.0
H639 H 0.57737 0.06944 0.08912 0.0
C640 C 0.57754 0.09148 0.2282 0.0
C641 C 0.58357 0.07061 0.24985 0.0
C642 C 0.57091 0.08199 0.19861 0.0
C643 C 0.57009 0.05136 0.18982 0.0
C644 C 0.57544 0.03027 0.21151 0.0
C645 C 0.58238 0.03985 0.24127 0.0
C646 C 0.53225 0.0161 0.11961 0.0
C647 C 0.54427 0.03465 0.09776 0.0
C648 C 0.54198 0.0199 0.14965 0.0
C649 C 0.56378 0.04224 0.1579 0.0
C650 C 0.57749 0.05861 0.13536 0.0
C651 C 0.56771 0.05498 0.10567 0.0
H652 H 0.37838 0.54754 0.28244 0.0
H653 H 0.3929 0.64044 0.31284 0.0
H654 H 0.39343 0.53174 0.33157 0.0
H655 H 0.40827 0.62455 0.36214 0.0
H656 H 0.48388 0.57507 0.41078 0.0
H657 H 0.45255 0.60054 0.37689 0.0
H658 H 0.38537 0.53005 0.3859 0.0
H659 H 0.41719 0.50451 0.41962 0.0
C660 C 0.38406 0.56461 0.29984 0.0
C661 C 0.38483 0.59522 0.29358 0.0
C662 C 0.39258 0.55556 0.32812 0.0
C663 C 0.40208 0.57693 0.35078 0.0
C664 C 0.40131 0.60758 0.34506 0.0
C665 C 0.3927 0.61664 0.31678 0.0
C666 C 0.46183 0.56599 0.40678 0.0
C667 C 0.45271 0.53809 0.41777 0.0
C668 C 0.44387 0.58047 0.38726 0.0
C669 C 0.41668 0.56696 0.37824 0.0
C670 C 0.40639 0.54072 0.3921 0.0
C671 C 0.42438 0.52632 0.41169 0.0
H672 H 0.11863 0.44996 0.78243 0.0
H673 H 0.03048 0.45404 0.75014 0.0
H674 H 0.10285 0.45995 0.83406 0.0
H675 H 0.01492 0.46359 0.80121 0.0
H676 H 0.98933 0.43578 0.89133 0.0
H677 H 0.01389 0.42761 0.84431 0.0
H678 H 0.07671 0.50032 0.86888 0.0
H679 H 0.05198 0.50831 0.91685 0.0
C680 C 0.09603 0.45345 0.78628 0.0
C681 C 0.07566 0.45059 0.76232 0.0
C682 C 0.08705 0.45911 0.81577 0.0
C683 C 0.0576 0.46185 0.82162 0.0
C684 C 0.03767 0.46081 0.79742 0.0
C685 C 0.04657 0.4553 0.76817 0.0
C686 C 0.00874 0.44963 0.88704 0.0
C687 C 0.01859 0.47289 0.90746 0.0
C688 C 0.0227 0.44507 0.86006 0.0
C689 C 0.04671 0.46385 0.85265 0.0
C690 C 0.05812 0.48565 0.87405 0.0
C691 C 0.0441 0.49014 0.90144 0.0
H692 H 0.7495 0.98256 0.93426 0.0
H693 H 0.72246 0.89064 0.95188 0.0
H694 H 0.70113 -0.00197 0.94738 0.0
H695 H 0.67496 0.90619 0.96553 0.0
H696 H 0.58674 0.9327 0.93875 0.0
H697 H 0.63717 0.9252 0.93001 0.0
H698 H 0.6623 -0.00083 0.99215 0.0
H699 H 0.61069 0.00695 0.00118 0.0
C700 C 0.73343 0.96574 0.94125 0.0
C701 C 0.73988 0.93528 0.9418 0.0
C702 C 0.70588 0.97469 0.94904 0.0
C703 C 0.68423 0.95329 0.95721 0.0
C704 C 0.69114 0.92317 0.95905 0.0
C705 C 0.71852 0.91429 0.95145 0.0
C706 C 0.60284 0.94756 0.95065 0.0
C707 C 0.59462 0.97004 0.9712 0.0
C708 C 0.63182 0.94316 0.94561 0.0
C709 C 0.65368 0.96106 0.96094 0.0
C710 C 0.6458 0.98488 0.98022 0.0
C711 C 0.61636 0.98935 0.98534 0.0
H712 H 0.75977 0.04537 0.43452 0.0
H713 H 0.78712 0.13459 0.46905 0.0
H714 H 0.80527 0.02712 0.45099 0.0
H715 H 0.83255 0.11582 0.48728 0.0
H716 H 0.92346 0.07558 0.47231 0.0
H717 H 0.8769 0.09845 0.46765 0.0
H718 H 0.83297 0.01512 0.49284 0.0
H719 H 0.87929 0.99216 0.49562 0.0
C720 C 0.77548 0.0611 0.44585 0.0
C721 C 0.76992 0.09153 0.45009 0.0
C722 C 0.80148 0.0505 0.45583 0.0
C723 C 0.82263 0.06992 0.47074 0.0
C724 C 0.81684 0.10028 0.47572 0.0
C725 C 0.79071 0.11098 0.46553 0.0
C726 C 0.9038 0.0626 0.4776 0.0
C727 C 0.90468 0.03221 0.48419 0.0
C728 C 0.87713 0.07562 0.47497 0.0
C729 C 0.85107 0.05843 0.47923 0.0
C730 C 0.85248 0.02877 0.4885 0.0
C731 C 0.87898 0.01567 0.49048 0.0
H732 H 0.24528 0.60608 0.01674 0.0
H733 H 0.22391 0.55061 0.09165 0.0
H734 H 0.19822 0.59123 0.99334 0.0
H735 H 0.17784 0.53462 0.0672 0.0
H736 H 0.10238 0.49919 0.00731 0.0
H737 H 0.15468 0.50771 0.0163 0.0
H738 H 0.14639 0.60345 0.0157 0.0
H739 H 0.0941 0.595 0.00766 0.0
C740 C 0.23084 0.5905 0.02812 0.0
C741 C 0.23842 0.58001 0.05646 0.0
C742 C 0.20403 0.58179 0.01448 0.0
C743 C 0.18452 0.56179 0.02846 0.0
C744 C 0.1927 0.54978 0.05576 0.0
C745 C 0.21923 0.55894 0.06972 0.0
C746 C 0.11191 0.522 0.00791 0.0
C747 C 0.09429 0.54648 0.00668 0.0
C748 C 0.14175 0.52684 0.01334 0.0
C749 C 0.15444 0.55621 0.0168 0.0
C750 C 0.13715 0.58059 0.01288 0.0
C751 C 0.10728 0.57578 0.00821 0.0
H752 H 0.23939 0.45147 0.50825 0.0
H753 H 0.26887 0.43825 0.59898 0.0
H754 H 0.28987 0.4599 0.49293 0.0
H755 H 0.31864 0.44722 0.58406 0.0
H756 H 0.40537 0.43898 0.55102 0.0
H757 H 0.35427 0.4227 0.55385 0.0
H758 H 0.33173 0.49821 0.50231 0.0
H759 H 0.38332 0.51375 0.49861 0.0
C760 C 0.25663 0.45033 0.52485 0.0
C761 C 0.25021 0.4444 0.55485 0.0
C762 C 0.28543 0.45526 0.51612 0.0
C763 C 0.30824 0.45386 0.53719 0.0
C764 C 0.30165 0.44787 0.56711 0.0
C765 C 0.27306 0.44318 0.5758 0.0
C766 C 0.38949 0.45142 0.53943 0.0
C767 C 0.398 0.47751 0.52464 0.0
C768 C 0.36027 0.44233 0.54127 0.0
C769 C 0.33896 0.4596 0.52894 0.0
C770 C 0.34765 0.48443 0.512 0.0
C771 C 0.37709 0.49331 0.50983 0.0
H772 H 0.92152 0.71935 0.88714 0.0
H773 H 0.92124 0.7491 0.9805 0.0
H774 H 0.93648 0.67052 0.90155 0.0
H775 H 0.93581 0.69966 0.99501 0.0
H776 H 0.99069 0.61453 0.00285 0.0
H777 H 0.97793 0.66536 0.99083 0.0
H778 H 0.91302 0.62754 0.92715 0.0
H779 H 0.92558 0.57724 0.93895 0.0
C780 C 0.92488 0.71557 0.91077 0.0
C781 C 0.9202 0.73822 0.93265 0.0
C782 C 0.9332 0.68744 0.91904 0.0
C783 C 0.93719 0.68112 0.94944 0.0
C784 C 0.93306 0.70388 0.9714 0.0
C785 C 0.92446 0.73208 0.9631 0.0
C786 C 0.97368 0.61713 0.98633 0.0
C787 C 0.95926 0.59176 0.9718 0.0
C788 C 0.96629 0.64621 0.97957 0.0
C789 C 0.9446 0.65048 0.95787 0.0
C790 C 0.9301 0.62508 0.94364 0.0
C791 C 0.93724 0.59618 0.95056 0.0
H792 H 0.45834 0.78501 0.11586 0.0
H793 H 0.37151 0.81442 0.12214 0.0
H794 H 0.47551 0.83486 0.10127 0.0
H795 H 0.38871 0.86472 0.10829 0.0
H796 H 0.42386 0.91871 0.02648 0.0
H797 H 0.40364 0.88289 0.0612 0.0
H798 H 0.48496 0.88791 0.111 0.0
H799 H 0.50524 0.92345 0.07533 0.0
C800 C 0.44308 0.80242 0.11489 0.0
C801 C 0.41354 0.79577 0.11962 0.0
C802 C 0.45292 0.83113 0.10676 0.0
C803 C 0.43345 0.85386 0.10343 0.0
C804 C 0.4042 0.84763 0.11017 0.0
C805 C 0.39432 0.81884 0.11801 0.0
C806 C 0.43682 0.91336 0.04583 0.0
C807 C 0.4659 0.92385 0.04853 0.0
C808 C 0.42533 0.89269 0.06574 0.0
C809 C 0.44287 0.882 0.0886 0.0
C810 C 0.47106 0.89526 0.09328 0.0
C811 C 0.48255 0.91598 0.07324 0.0
H812 H 0.04266 0.26774 0.5098 0.0
H813 H 0.03593 0.24923 0.60389 0.0
H814 H 0.02642 0.21558 0.49659 0.0
H815 H 0.02003 0.1976 0.59088 0.0
H816 H 0.98259 0.10871 0.56704 0.0
H817 H 0.98286 0.1635 0.56936 0.0
H818 H 0.04689 0.16713 0.49998 0.0
H819 H 0.04552 0.11229 0.49709 0.0
C820 C 0.03751 0.25263 0.52763 0.0
C821 C 0.04053 0.26268 0.5579 0.0
C822 C 0.02816 0.22279 0.52007 0.0
C823 C 0.02171 0.20238 0.54263 0.0
C824 C 0.02404 0.21277 0.57283 0.0
C825 C 0.03328 0.24247 0.58035 0.0
C826 C 0.99558 0.12132 0.55133 0.0
C827 C 0.01376 0.10656 0.53166 0.0
C828 C 0.99613 0.15266 0.55293 0.0
C829 C 0.0154 0.16977 0.53535 0.0
C830 C 0.03166 0.15475 0.51373 0.0
C831 C 0.03085 0.12333 0.51194 0.0
H832 H 0.55285 0.27546 0.40549 0.0
H833 H 0.57369 0.25951 0.49813 0.0
H834 H 0.5293 0.32037 0.42098 0.0
H835 H 0.54994 0.30509 0.51381 0.0
H836 H 0.53837 0.41164 0.51393 0.0
H837 H 0.55609 0.36104 0.50961 0.0
H838 H 0.48599 0.33415 0.44713 0.0
H839 H 0.46906 0.38471 0.45072 0.0
C840 C 0.55202 0.28131 0.42926 0.0
C841 C 0.56478 0.26362 0.45059 0.0
C842 C 0.53844 0.30708 0.43818 0.0
C843 C 0.53718 0.31597 0.46871 0.0
C844 C 0.55045 0.29872 0.49014 0.0
C845 C 0.5641 0.27272 0.48116 0.0
C846 C 0.52617 0.39451 0.50024 0.0
C847 C 0.50256 0.40202 0.4824 0.0
C848 C 0.53637 0.36559 0.49763 0.0
C849 C 0.5229 0.34388 0.47734 0.0
C850 C 0.49732 0.35063 0.46228 0.0
C851 C 0.48741 0.37946 0.46459 0.0
loop_
_geom_bond_atom_site_label_1
_geom_bond_atom_site_label_2
_geom_bond_distance
_geom_bond_site_symmetry_2
_ccdc_geom_bond_type
C0 C1 1.384 . S
C0 H13 0.947 . S
C0 C35 1.382 . S
C1 C0 1.384 . S
C1 C2 1.378 . S
C2 C1 1.378 . S
C2 C3 1.378 . S
C2 H14 0.952 . S
C3 C2 1.378 . S
C3 H15 0.950 . S
C3 C34 1.383 . S
H4 C23 0.947 . S
H5 C24 0.946 . S
H6 C26 0.953 . S
H7 C27 0.945 . S
H8 C29 0.952 . S
H9 C30 0.949 . S
H10 C32 0.950 . S
H11 C33 0.948 . S
H12 C35 0.951 . S
H13 C0 0.947 . S
H14 C2 0.952 . S
H15 C3 0.950 . S
N16 C19 1.382 . S
N16 C21 1.363 . S
N17 C19 1.371 . S
N17 C20 1.372 . S
N18 C20 1.361 . S
N18 C21 1.377 . S
C19 N16 1.382 . S
C19 N17 1.371 . S
C19 C22 1.480 . S
C20 N17 1.372 . S
C20 N18 1.361 . S
C20 C28 1.457 . S
C21 N16 1.363 . S
C21 N18 1.377 . S
C21 C34 1.479 . S
C22 C19 1.480 . S
C22 C23 1.383 . S
C22 C27 1.385 . S
C23 H4 0.947 . S
C23 C22 1.383 . S
C23 C24 1.388 . S
C24 H5 0.946 . S
C24 C23 1.388 . S
C24 C25 1.384 . S
C25 C24 1.384 . S
C25 C26 1.377 . S
C26 H6 0.953 . S
C26 C25 1.377 . S
C26 C27 1.369 . S
C27 H7 0.945 . S
C27 C22 1.385 . S
C27 C26 1.369 . S
C28 C20 1.457 . S
C28 C29 1.372 . S
C28 C33 1.364 . S
C29 H8 0.952 . S
C29 C28 1.372 . S
C29 C30 1.389 . S
C30 H9 0.949 . S
C30 C29 1.389 . S
C30 C31 1.387 . S
C31 C30 1.387 . S
C31 C32 1.372 . S
C32 H10 0.950 . S
C32 C31 1.372 . S
C32 C33 1.379 . S
C33 H11 0.948 . S
C33 C28 1.364 . S
C33 C32 1.379 . S
C34 C3 1.383 . S
C34 C21 1.479 . S
C34 C35 1.398 . S
C35 C0 1.382 . S
C35 H12 0.951 . S
C35 C34 1.398 . S
C36 C37 1.384 . S
C36 H49 0.947 . S
C36 C71 1.382 . S
C37 C36 1.384 . S
C37 C38 1.378 . S
C38 C37 1.378 . S
C38 C39 1.378 . S
C38 H50 0.952 . S
C39 C38 1.378 . S
C39 H51 0.950 . S
C39 C70 1.383 . S
H40 C59 0.947 . S
H41 C60 0.946 . S
H42 C62 0.953 . S
H43 C63 0.945 . S
H44 C65 0.952 . S
H45 C66 0.949 . S
H46 C68 0.950 . S
H47 C69 0.948 . S
H48 C71 0.951 . S
H49 C36 0.947 . S
H50 C38 0.952 . S
H51 C39 0.950 . S
N52 C55 1.382 . S
N52 C57 1.363 . S
N53 C55 1.371 . S
N53 C56 1.372 . S
N54 C56 1.361 . S
N54 C57 1.377 . S
C55 N52 1.382 . S
C55 N53 1.371 . S
C55 C58 1.480 . S
C56 N53 1.372 . S
C56 N54 1.361 . S
C56 C64 1.457 . S
C57 N52 1.363 . S
C57 N54 1.377 . S
C57 C70 1.479 . S
C58 C55 1.480 . S
C58 C59 1.383 . S
C58 C63 1.385 . S
C59 H40 0.947 . S
C59 C58 1.383 . S
C59 C60 1.388 . S
C60 H41 0.946 . S
C60 C59 1.388 . S
C60 C61 1.384 . S
C61 C60 1.384 . S
C61 C62 1.377 . S
C62 H42 0.953 . S
C62 C61 1.377 . S
C62 C63 1.369 . S
C63 H43 0.945 . S
C63 C58 1.385 . S
C63 C62 1.369 . S
C64 C56 1.457 . S
C64 C65 1.372 . S
C64 C69 1.364 . S
C65 H44 0.952 . S
C65 C64 1.372 . S
C65 C66 1.389 . S
C66 H45 0.949 . S
C66 C65 1.389 . S
C66 C67 1.387 . S
C67 C66 1.387 . S
C67 C68 1.372 . S
C68 H46 0.950 . S
C68 C67 1.372 . S
C68 C69 1.379 . S
C69 H47 0.948 . S
C69 C64 1.364 . S
C69 C68 1.379 . S
C70 C39 1.383 . S
C70 C57 1.479 . S
C70 C71 1.398 . S
C71 C36 1.382 . S
C71 H48 0.951 . S
C71 C70 1.398 . S
C72 C73 1.384 . S
C72 H85 0.947 . S
C72 C107 1.382 . S
C73 C72 1.384 . S
C73 C74 1.378 . S
C74 C73 1.378 . S
C74 C75 1.378 . S
C74 H86 0.952 . S
C75 C74 1.378 . S
C75 H87 0.950 . S
C75 C106 1.383 . S
H76 C95 0.947 . S
H77 C96 0.946 . S
H78 C98 0.953 . S
H79 C99 0.945 . S
H80 C101 0.952 . S
H81 C102 0.949 . S
H82 C104 0.950 . S
H83 C105 0.948 . S
H84 C107 0.951 . S
H85 C72 0.947 . S
H86 C74 0.952 . S
H87 C75 0.950 . S
N88 C91 1.382 . S
N88 C93 1.363 . S
N89 C91 1.371 . S
N89 C92 1.372 . S
N90 C92 1.361 . S
N90 C93 1.377 . S
C91 N88 1.382 . S
C91 N89 1.371 . S
C91 C94 1.480 . S
C92 N89 1.372 . S
C92 N90 1.361 . S
C92 C100 1.457 . S
C93 N88 1.363 . S
C93 N90 1.377 . S
C93 C106 1.479 . S
C94 C91 1.480 . S
C94 C95 1.383 . S
C94 C99 1.385 . S
C95 H76 0.947 . S
C95 C94 1.383 . S
C95 C96 1.388 . S
C96 H77 0.946 . S
C96 C95 1.388 . S
C96 C97 1.384 . S
C97 C96 1.384 . S
C97 C98 1.377 . S
C98 H78 0.953 . S
C98 C97 1.377 . S
C98 C99 1.369 . S
C99 H79 0.945 . S
C99 C94 1.385 . S
C99 C98 1.369 . S
C100 C92 1.457 . S
C100 C101 1.372 . S
C100 C105 1.364 . S
C101 H80 0.952 . S
C101 C100 1.372 . S
C101 C102 1.389 . S
C102 H81 0.949 . S
C102 C101 1.389 . S
C102 C103 1.387 . S
C103 C102 1.387 . S
C103 C104 1.372 . S
C104 H82 0.950 . S
C104 C103 1.372 . S
C104 C105 1.379 . S
C105 H83 0.948 . S
C105 C100 1.364 . S
C105 C104 1.379 . S
C106 C75 1.383 . S
C106 C93 1.479 . S
C106 C107 1.398 . S
C107 C72 1.382 . S
C107 H84 0.951 . S
C107 C106 1.398 . S
C108 C109 1.384 . S
C108 H121 0.947 . S
C108 C143 1.382 . S
C109 C108 1.384 . S
C109 C110 1.378 . S
C110 C109 1.378 . S
C110 C111 1.378 . S
C110 H122 0.952 . S
C111 C110 1.378 . S
C111 H123 0.950 . S
C111 C142 1.383 . S
H112 C131 0.947 . S
H113 C132 0.946 . S
H114 C134 0.953 . S
H115 C135 0.945 . S
H116 C137 0.952 . S
H117 C138 0.949 . S
H118 C140 0.950 . S
H119 C141 0.948 . S
H120 C143 0.951 . S
H121 C108 0.947 . S
H122 C110 0.952 . S
H123 C111 0.950 . S
N124 C127 1.382 . S
N124 C129 1.363 . S
N125 C127 1.371 . S
N125 C128 1.372 . S
N126 C128 1.361 . S
N126 C129 1.377 . S
C127 N124 1.382 . S
C127 N125 1.371 . S
C127 C130 1.480 . S
C128 N125 1.372 . S
C128 N126 1.361 . S
C128 C136 1.457 . S
C129 N124 1.363 . S
C129 N126 1.377 . S
C129 C142 1.479 . S
C130 C127 1.480 . S
C130 C131 1.383 . S
C130 C135 1.385 . S
C131 H112 0.947 . S
C131 C130 1.383 . S
C131 C132 1.388 . S
C132 H113 0.946 . S
C132 C131 1.388 . S
C132 C133 1.384 . S
C133 C132 1.384 . S
C133 C134 1.377 . S
C134 H114 0.953 . S
C134 C133 1.377 . S
C134 C135 1.369 . S
C135 H115 0.945 . S
C135 C130 1.385 . S
C135 C134 1.369 . S
C136 C128 1.457 . S
C136 C137 1.372 . S
C136 C141 1.364 . S
C137 H116 0.952 . S
C137 C136 1.372 . S
C137 C138 1.389 . S
C138 H117 0.949 . S
C138 C137 1.389 . S
C138 C139 1.387 . S
C139 C138 1.387 . S
C139 C140 1.372 . S
C140 H118 0.950 . S
C140 C139 1.372 . S
C140 C141 1.379 . S
C141 H119 0.948 . S
C141 C136 1.364 . S
C141 C140 1.379 . S
C142 C111 1.383 . S
C142 C129 1.479 . S
C142 C143 1.398 . S
C143 C108 1.382 . S
C143 H120 0.951 . S
C143 C142 1.398 . S
C144 C145 1.384 . S
C144 H157 0.947 . S
C144 C179 1.382 . S
C145 C144 1.384 . S
C145 C146 1.378 . S
C146 C145 1.378 . S
C146 C147 1.378 . S
C146 H158 0.952 . S
C147 C146 1.378 . S
C147 H159 0.950 . S
C147 C178 1.383 . S
H148 C167 0.947 . S
H149 C168 0.946 . S
H150 C170 0.953 . S
H151 C171 0.945 . S
H152 C173 0.952 . S
H153 C174 0.949 . S
H154 C176 0.950 . S
H155 C177 0.948 . S
H156 C179 0.951 . S
H157 C144 0.947 . S
H158 C146 0.952 . S
H159 C147 0.950 . S
N160 C163 1.382 . S
N160 C165 1.363 . S
N161 C163 1.371 . S
N161 C164 1.372 . S
N162 C164 1.361 . S
N162 C165 1.377 . S
C163 N160 1.382 . S
C163 N161 1.371 . S
C163 C166 1.480 . S
C164 N161 1.372 . S
C164 N162 1.361 . S
C164 C172 1.457 . S
C165 N160 1.363 . S
C165 N162 1.377 . S
C165 C178 1.479 . S
C166 C163 1.480 . S
C166 C167 1.383 . S
C166 C171 1.385 . S
C167 H148 0.947 . S
C167 C166 1.383 . S
C167 C168 1.388 . S
C168 H149 0.946 . S
C168 C167 1.388 . S
C168 C169 1.384 . S
C169 C168 1.384 . S
C169 C170 1.377 . S
C170 H150 0.953 . S
C170 C169 1.377 . S
C170 C171 1.369 . S
C171 H151 0.945 . S
C171 C166 1.385 . S
C171 C170 1.369 . S
C172 C164 1.457 . S
C172 C173 1.372 . S
C172 C177 1.364 . S
C173 H152 0.952 . S
C173 C172 1.372 . S
C173 C174 1.389 . S
C174 H153 0.949 . S
C174 C173 1.389 . S
C174 C175 1.387 . S
C175 C174 1.387 . S
C175 C176 1.372 . S
C176 H154 0.950 . S
C176 C175 1.372 . S
C176 C177 1.379 . S
C177 H155 0.948 . S
C177 C172 1.364 . S
C177 C176 1.379 . S
C178 C147 1.383 . S
C178 C165 1.479 . S
C178 C179 1.398 . S
C179 C144 1.382 . S
C179 H156 0.951 . S
C179 C178 1.398 . S
C180 C181 1.384 . S
C180 H193 0.947 . S
C180 C215 1.382 . S
C181 C180 1.384 . S
C181 C182 1.378 . S
C182 C181 1.378 . S
C182 C183 1.378 . S
C182 H194 0.952 . S
C183 C182 1.378 . S
C183 H195 0.950 . S
C183 C214 1.383 . S
H184 C203 0.947 . S
H185 C204 0.946 . S
H186 C206 0.953 . S
H187 C207 0.945 . S
H188 C209 0.952 . S
H189 C210 0.949 . S
H190 C212 0.950 . S
H191 C213 0.948 . S
H192 C215 0.951 . S
H193 C180 0.947 . S
H194 C182 0.952 . S
H195 C183 0.950 . S
N196 C199 1.382 . S
N196 C201 1.363 . S
N197 C199 1.371 . S
N197 C200 1.372 . S
N198 C200 1.361 . S
N198 C201 1.377 . S
C199 N196 1.382 . S
C199 N197 1.371 . S
C199 C202 1.480 . S
C200 N197 1.372 . S
C200 N198 1.361 . S
C200 C208 1.457 . S
C201 N196 1.363 . S
C201 N198 1.377 . S
C201 C214 1.479 . S
C202 C199 1.480 . S
C202 C203 1.383 . S
C202 C207 1.385 . S
C203 H184 0.947 . S
C203 C202 1.383 . S
C203 C204 1.388 . S
C204 H185 0.946 . S
C204 C203 1.388 . S
C204 C205 1.384 . S
C205 C204 1.384 . S
C205 C206 1.377 . S
C206 H186 0.953 . S
C206 C205 1.377 . S
C206 C207 1.369 . S
C207 H187 0.945 . S
C207 C202 1.385 . S
C207 C206 1.369 . S
C208 C200 1.457 . S
C208 C209 1.372 . S
C208 C213 1.364 . S
C209 H188 0.952 . S
C209 C208 1.372 . S
C209 C210 1.389 . S
C210 H189 0.949 . S
C210 C209 1.389 . S
C210 C211 1.387 . S
C211 C210 1.387 . S
C211 C212 1.372 . S
C212 H190 0.950 . S
C212 C211 1.372 . S
C212 C213 1.379 . S
C213 H191 0.948 . S
C213 C208 1.364 . S
C213 C212 1.379 . S
C214 C183 1.383 . S
C214 C201 1.479 . S
C214 C215 1.398 . S
C215 C180 1.382 . S
C215 H192 0.951 . S
C215 C214 1.398 . S
C216 C217 1.384 . S
C216 H229 0.947 . S
C216 C251 1.382 . S
C217 C216 1.384 . S
C217 C218 1.378 . S
C218 C217 1.378 . S
C218 C219 1.378 . S
C218 H230 0.952 . S
C219 C218 1.378 . S
C219 H231 0.950 . S
C219 C250 1.383 . S
H220 C239 0.947 . S
H221 C240 0.946 . S
H222 C242 0.953 . S
H223 C243 0.945 . S
H224 C245 0.952 . S
H225 C246 0.949 . S
H226 C248 0.950 . S
H227 C249 0.948 . S
H228 C251 0.951 . S
H229 C216 0.947 . S
H230 C218 0.952 . S
H231 C219 0.950 . S
N232 C235 1.382 . S
N232 C237 1.363 . S
N233 C235 1.371 . S
N233 C236 1.372 . S
N234 C236 1.361 . S
N234 C237 1.377 . S
C235 N232 1.382 . S
C235 N233 1.371 . S
C235 C238 1.480 . S
C236 N233 1.372 . S
C236 N234 1.361 . S
C236 C244 1.457 . S
C237 N232 1.363 . S
C237 N234 1.377 . S
C237 C250 1.479 . S
C238 C235 1.480 . S
C238 C239 1.383 . S
C238 C243 1.385 . S
C239 H220 0.947 . S
C239 C238 1.383 . S
C239 C240 1.388 . S
C240 H221 0.946 . S
C240 C239 1.388 . S
C240 C241 1.384 . S
C241 C240 1.384 . S
C241 C242 1.377 . S
C242 H222 0.953 . S
C242 C241 1.377 . S
C242 C243 1.369 . S
C243 H223 0.945 . S
C243 C238 1.385 . S
C243 C242 1.369 . S
C244 C236 1.457 . S
C244 C245 1.372 . S
C244 C249 1.364 . S
C245 H224 0.952 . S
C245 C244 1.372 . S
C245 C246 1.389 . S
C246 H225 0.949 . S
C246 C245 1.389 . S
C246 C247 1.387 . S
C247 C246 1.387 . S
C247 C248 1.372 . S
C248 H226 0.950 . S
C248 C247 1.372 . S
C248 C249 1.379 . S
C249 H227 0.948 . S
C249 C244 1.364 . S
C249 C248 1.379 . S
C250 C219 1.383 . S
C250 C237 1.479 . S
C250 C251 1.398 . S
C251 C216 1.382 . S
C251 H228 0.951 . S
C251 C250 1.398 . S
C252 C253 1.384 . S
C252 H265 0.947 . S
C252 C287 1.382 . S
C253 C252 1.384 . S
C253 C254 1.378 . S
C254 C253 1.378 . S
C254 C255 1.378 . S
C254 H266 0.952 . S
C255 C254 1.378 . S
C255 H267 0.950 . S
C255 C286 1.383 . S
H256 C275 0.947 . S
H257 C276 0.946 . S
H258 C278 0.953 . S
H259 C279 0.945 . S
H260 C281 0.952 . S
H261 C282 0.949 . S
H262 C284 0.950 . S
H263 C285 0.948 . S
H264 C287 0.951 . S
H265 C252 0.947 . S
H266 C254 0.952 . S
H267 C255 0.950 . S
N268 C271 1.382 . S
N268 C273 1.363 . S
N269 C271 1.371 . S
N269 C272 1.372 . S
N270 C272 1.361 . S
N270 C273 1.377 . S
C271 N268 1.382 . S
C271 N269 1.371 . S
C271 C274 1.480 . S
C272 N269 1.372 . S
C272 N270 1.361 . S
C272 C280 1.457 . S
C273 N268 1.363 . S
C273 N270 1.377 . S
C273 C286 1.479 . S
C274 C271 1.480 . S
C274 C275 1.383 . S
C274 C279 1.385 . S
C275 H256 0.947 . S
C275 C274 1.383 . S
C275 C276 1.388 . S
C276 H257 0.946 . S
C276 C275 1.388 . S
C276 C277 1.384 . S
C277 C276 1.384 . S
C277 C278 1.377 . S
C278 H258 0.953 . S
C278 C277 1.377 . S
C278 C279 1.369 . S
C279 H259 0.945 . S
C279 C274 1.385 . S
C279 C278 1.369 . S
C280 C272 1.457 . S
C280 C281 1.372 . S
C280 C285 1.364 . S
C281 H260 0.952 . S
C281 C280 1.372 . S
C281 C282 1.389 . S
C282 H261 0.949 . S
C282 C281 1.389 . S
C282 C283 1.387 . S
C283 C282 1.387 . S
C283 C284 1.372 . S
C284 H262 0.950 . S
C284 C283 1.372 . S
C284 C285 1.379 . S
C285 H263 0.948 . S
C285 C280 1.364 . S
C285 C284 1.379 . S
C286 C255 1.383 . S
C286 C273 1.479 . S
C286 C287 1.398 . S
C287 C252 1.382 . S
C287 H264 0.951 . S
C287 C286 1.398 . S
O288 Mg289 1.990 . S
O288 C302 1.253 1_445 S
Mg289 O288 1.990 . S
Mg289 O292 2.180 . S
Mg289 O293 2.117 . S
Mg289 O307 2.030 1_545 S
O290 Mg291 2.072 1_665 S
O290 C302 1.260 . S
Mg291 O290 2.072 1_445 S
Mg291 O292 2.099 . S
Mg291 O294 2.079 . S
Mg291 O295 2.072 1_455 S
Mg291 O297 2.099 1_445 S
Mg291 O308 2.079 1_545 S
O292 Mg289 2.180 . S
O292 Mg291 2.099 . S
O292 C303 1.279 . S
O293 Mg289 2.117 . S
O293 C303 1.250 . S
O294 Mg291 2.079 . S
O294 C304 1.264 . S
O295 Mg291 2.072 1_655 S
O295 C305 1.260 . S
Mg296 O297 2.180 . S
Mg296 O298 2.030 1_565 S
Mg296 O299 1.990 1_565 S
Mg296 O300 2.117 . S
O297 Mg291 2.099 1_665 S
O297 Mg296 2.180 . S
O297 C306 1.279 . S
O298 Mg296 2.030 1_545 S
O298 C304 1.248 1_655 S
O299 Mg296 1.990 1_545 S
O299 C305 1.253 . S
O300 Mg296 2.117 . S
O300 C306 1.250 . S
C301 O307 1.248 . S
C301 O308 1.264 . S
C302 O288 1.253 1_665 S
C302 O290 1.260 . S
C303 O292 1.279 . S
C303 O293 1.250 . S
C304 O294 1.264 . S
C304 O298 1.248 1_455 S
C305 O295 1.260 . S
C305 O299 1.253 . S
C306 O297 1.279 . S
C306 O300 1.250 . S
O307 Mg289 2.030 1_565 S
O307 C301 1.248 . S
O308 Mg291 2.079 1_565 S
O308 C301 1.264 . S
O309 Mg310 1.990 . S
O309 C323 1.253 . S
Mg310 O309 1.990 . S
Mg310 O313 2.163 1_554 S
Mg310 O314 2.117 1_554 S
Mg310 O328 2.030 . S
O311 Mg312 2.072 . S
O311 C323 1.260 . S
Mg312 O311 2.072 . S
Mg312 O313 2.094 1_554 S
Mg312 O315 2.079 1_554 S
Mg312 O316 2.072 1_554 S
Mg312 O318 2.099 1_545 S
Mg312 O329 2.079 . S
O313 Mg310 2.163 1_556 S
O313 Mg312 2.094 1_556 S
O313 C324 1.296 . S
O314 Mg310 2.117 1_556 S
O314 C324 1.250 . S
O315 Mg312 2.079 1_556 S
O315 C325 1.264 1_545 S
O316 Mg312 2.072 1_556 S
O316 C326 1.260 1_545 S
Mg317 O318 2.180 1_556 S
Mg317 O319 2.030 . S
Mg317 O320 1.990 . S
Mg317 O321 2.117 1_556 S
O318 Mg312 2.099 1_565 S
O318 Mg317 2.180 1_554 S
O318 C327 1.279 . S
O319 Mg317 2.030 . S
O319 C325 1.248 . S
O320 Mg317 1.990 . S
O320 C326 1.253 . S
O321 Mg317 2.117 1_554 S
O321 C327 1.250 . S
C322 O328 1.248 . S
C322 O329 1.264 . S
C323 O309 1.253 . S
C323 O311 1.260 . S
C324 O313 1.296 . S
C324 O314 1.250 . S
C325 O315 1.264 1_565 S
C325 O319 1.248 . S
C326 O316 1.260 1_565 S
C326 O320 1.253 . S
C327 O318 1.279 . S
C327 O321 1.250 . S
O328 Mg310 2.030 . S
O328 C322 1.248 . S
O329 Mg312 2.079 . S
O329 C322 1.264 . S
O330 Mg331 1.990 . S
O330 C344 1.253 . S
Mg331 O330 1.990 . S
Mg331 O334 2.180 . S
Mg331 O335 2.117 . S
Mg331 O349 2.030 . S
O332 Mg333 2.072 . S
O332 C344 1.260 . S
Mg333 O332 2.072 . S
Mg333 O334 2.099 . S
Mg333 O336 2.079 . S
Mg333 O337 2.072 . S
Mg333 O339 2.099 . S
Mg333 O350 2.079 . S
O334 Mg331 2.180 . S
O334 Mg333 2.099 . S
O334 C345 1.279 . S
O335 Mg331 2.117 . S
O335 C345 1.250 . S
O336 Mg333 2.079 . S
O336 C346 1.264 . S
O337 Mg333 2.072 . S
O337 C347 1.260 . S
Mg338 O339 2.180 . S
Mg338 O340 2.030 . S
Mg338 O341 1.990 . S
Mg338 O342 2.117 . S
O339 Mg333 2.099 . S
O339 Mg338 2.180 . S
O339 C348 1.279 . S
O340 Mg338 2.030 . S
O340 C346 1.248 . S
O341 Mg338 1.990 . S
O341 C347 1.253 . S
O342 Mg338 2.117 . S
O342 C348 1.250 . S
C343 O349 1.248 . S
C343 O350 1.264 . S
C344 O330 1.253 . S
C344 O332 1.260 . S
C345 O334 1.279 . S
C345 O335 1.250 . S
C346 O336 1.264 . S
C346 O340 1.248 . S
C347 O337 1.260 . S
C347 O341 1.253 . S
C348 O339 1.279 . S
C348 O342 1.250 . S
O349 Mg331 2.030 . S
O349 C343 1.248 . S
O350 Mg333 2.079 . S
O350 C343 1.264 . S
O351 Mg352 1.990 . S
O351 C365 1.253 . S
Mg352 O351 1.990 . S
Mg352 O355 2.180 1_455 S
Mg352 O356 2.117 1_455 S
Mg352 O370 2.030 . S
O353 Mg354 2.072 . S
O353 C365 1.260 . S
Mg354 O353 2.072 . S
Mg354 O355 2.099 1_455 S
Mg354 O357 2.079 1_454 S
Mg354 O358 2.072 1_455 S
Mg354 O360 2.099 1_554 S
Mg354 O371 2.079 . S
O355 Mg352 2.180 1_655 S
O355 Mg354 2.099 1_655 S
O355 C366 1.279 . S
O356 Mg352 2.117 1_655 S
O356 C366 1.250 . S
O357 Mg354 2.079 1_656 S
O357 C367 1.264 . S
O358 Mg354 2.072 1_655 S
O358 C368 1.260 1_554 S
Mg359 O360 2.180 1_655 S
Mg359 O361 2.030 . S
Mg359 O362 1.990 . S
Mg359 O363 2.117 . S
O360 Mg354 2.099 1_556 S
O360 Mg359 2.180 1_455 S
O360 C369 1.279 . S
O361 Mg359 2.030 . S
O361 C367 1.248 . S
O362 Mg359 1.990 . S
O362 C368 1.253 . S
O363 Mg359 2.117 . S
O363 C369 1.250 1_655 S
C364 O370 1.248 . S
C364 O371 1.264 . S
C365 O351 1.253 . S
C365 O353 1.260 . S
C366 O355 1.279 . S
C366 O356 1.250 . S
C367 O357 1.264 . S
C367 O361 1.248 . S
C368 O358 1.260 1_556 S
C368 O362 1.253 . S
C369 O360 1.279 . S
C369 O363 1.250 1_455 S
O370 Mg352 2.030 . S
O370 C364 1.248 . S
O371 Mg354 2.079 . S
O371 C364 1.264 . S
H372 C380 0.950 . S
H373 C385 0.950 . S
H374 C382 0.950 . S
H375 C384 0.950 . S
H376 C386 0.950 . S
H377 C388 0.950 . S
H378 C390 0.950 . S
H379 C391 0.950 1_565 S
C380 H372 0.950 . S
C380 C381 1.386 . S
C380 C382 1.391 . S
C381 C380 1.386 . S
C381 C385 1.393 . S
C382 H374 0.950 . S
C382 C380 1.391 . S
C382 C383 1.400 . S
C383 C382 1.400 . S
C383 C384 1.398 . S
C383 C389 1.491 . S
C384 H375 0.950 . S
C384 C383 1.398 . S
C384 C385 1.391 . S
C385 H373 0.950 . S
C385 C381 1.393 . S
C385 C384 1.391 . S
C386 H376 0.950 . S
C386 C387 1.386 . S
C386 C388 1.391 . S
C387 C386 1.386 . S
C387 C391 1.393 . S
C388 H377 0.950 . S
C388 C386 1.391 . S
C388 C389 1.400 . S
C389 C383 1.491 . S
C389 C388 1.400 . S
C389 C390 1.398 . S
C390 H378 0.950 . S
C390 C389 1.398 . S
C390 C391 1.391 . S
C391 H379 0.950 1_545 S
C391 C387 1.393 . S
C391 C390 1.391 . S
H392 C400 0.950 . S
H393 C405 0.950 . S
H394 C402 0.950 . S
H395 C404 0.950 . S
H396 C406 0.950 . S
H397 C408 0.950 . S
H398 C410 0.950 . S
H399 C411 0.950 . S
C400 H392 0.950 . S
C400 C401 1.386 . S
C400 C402 1.391 . S
C401 C400 1.386 . S
C401 C405 1.393 . S
C402 H394 0.950 . S
C402 C400 1.391 . S
C402 C403 1.400 . S
C403 C402 1.400 . S
C403 C404 1.398 . S
C403 C409 1.491 . S
C404 H395 0.950 . S
C404 C403 1.398 . S
C404 C405 1.391 . S
C405 H393 0.950 . S
C405 C401 1.393 . S
C405 C404 1.391 . S
C406 H396 0.950 . S
C406 C407 1.386 . S
C406 C408 1.391 . S
C407 C406 1.386 . S
C407 C411 1.393 . S
C408 H397 0.950 . S
C408 C406 1.391 . S
C408 C409 1.400 . S
C409 C403 1.491 . S
C409 C408 1.400 . S
C409 C410 1.398 . S
C410 H398 0.950 . S
C410 C409 1.398 . S
C410 C411 1.391 . S
C411 H399 0.950 . S
C411 C407 1.393 . S
C411 C410 1.391 . S
H412 C420 0.950 . S
H413 C425 0.950 . S
H414 C422 0.950 . S
H415 C424 0.950 . S
H416 C426 0.950 . S
H417 C428 0.950 . S
H418 C430 0.950 . S
H419 C431 0.950 . S
C420 H412 0.950 . S
C420 C421 1.386 . S
C420 C422 1.391 . S
C421 C420 1.386 . S
C421 C425 1.393 . S
C422 H414 0.950 . S
C422 C420 1.391 . S
C422 C423 1.400 . S
C423 C422 1.400 . S
C423 C424 1.398 . S
C423 C429 1.491 . S
C424 H415 0.950 . S
C424 C423 1.398 . S
C424 C425 1.391 . S
C425 H413 0.950 . S
C425 C421 1.393 . S
C425 C424 1.391 . S
C426 H416 0.950 . S
C426 C427 1.386 . S
C426 C428 1.391 . S
C427 C426 1.386 . S
C427 C431 1.393 . S
C428 H417 0.950 . S
C428 C426 1.391 . S
C428 C429 1.400 . S
C429 C423 1.491 . S
C429 C428 1.400 . S
C429 C430 1.398 . S
C430 H418 0.950 . S
C430 C429 1.398 . S
C430 C431 1.391 . S
C431 H419 0.950 . S
C431 C427 1.393 . S
C431 C430 1.391 . S
H432 C440 0.950 . S
H433 C445 0.950 . S
H434 C442 0.950 . S
H435 C444 0.950 . S
H436 C446 0.948 . S
H437 C448 0.950 . S
H438 C450 0.950 . S
H439 C451 0.950 . S
C440 H432 0.950 . S
C440 C441 1.386 . S
C440 C442 1.391 . S
C441 C440 1.386 . S
C441 C445 1.393 . S
C442 H434 0.950 . S
C442 C440 1.391 . S
C442 C443 1.400 . S
C443 C442 1.400 . S
C443 C444 1.398 . S
C443 C449 1.491 . S
C444 H435 0.950 . S
C444 C443 1.398 . S
C444 C445 1.391 . S
C445 H433 0.950 . S
C445 C441 1.393 . S
C445 C444 1.391 . S
C446 H436 0.948 . S
C446 C447 1.386 . S
C446 C448 1.391 . S
C447 C446 1.386 . S
C447 C451 1.393 . S
C448 H437 0.950 . S
C448 C446 1.391 . S
C448 C449 1.400 . S
C449 C443 1.491 . S
C449 C448 1.400 . S
C449 C450 1.398 . S
C450 H438 0.950 . S
C450 C449 1.398 . S
C450 C451 1.391 . S
C451 H439 0.950 . S
C451 C447 1.393 . S
C451 C450 1.391 . S
H452 C460 0.950 . S
H453 C465 0.950 . S
H454 C462 0.950 . S
H455 C464 0.950 . S
H456 C466 0.950 . S
H457 C468 0.950 . S
H458 C470 0.950 . S
H459 C471 0.950 . S
C460 H452 0.950 . S
C460 C461 1.386 . S
C460 C462 1.391 . S
C461 C460 1.386 . S
C461 C465 1.393 . S
C462 H454 0.950 . S
C462 C460 1.391 . S
C462 C463 1.400 . S
C463 C462 1.400 . S
C463 C464 1.398 . S
C463 C469 1.491 . S
C464 H455 0.950 . S
C464 C463 1.398 . S
C464 C465 1.391 . S
C465 H453 0.950 . S
C465 C461 1.393 . S
C465 C464 1.391 . S
C466 H456 0.950 . S
C466 C467 1.386 . S
C466 C468 1.391 . S
C467 C466 1.386 . S
C467 C471 1.393 . S
C468 H457 0.950 . S
C468 C466 1.391 . S
C468 C469 1.400 . S
C469 C463 1.491 . S
C469 C468 1.400 . S
C469 C470 1.398 . S
C470 H458 0.950 . S
C470 C469 1.398 . S
C470 C471 1.391 . S
C471 H459 0.950 . S
C471 C467 1.393 . S
C471 C470 1.391 . S
H472 C480 0.950 . S
H473 C485 0.950 . S
H474 C482 0.950 . S
H475 C484 0.950 . S
H476 C486 0.950 . S
H477 C488 0.950 . S
H478 C490 0.950 . S
H479 C491 0.950 . S
C480 H472 0.950 . S
C480 C481 1.386 . S
C480 C482 1.391 . S
C481 C480 1.386 . S
C481 C485 1.393 . S
C482 H474 0.950 . S
C482 C480 1.391 . S
C482 C483 1.400 . S
C483 C482 1.400 . S
C483 C484 1.398 . S
C483 C489 1.491 . S
C484 H475 0.950 . S
C484 C483 1.398 . S
C484 C485 1.391 . S
C485 H473 0.950 . S
C485 C481 1.393 . S
C485 C484 1.391 . S
C486 H476 0.950 . S
C486 C487 1.386 . S
C486 C488 1.391 . S
C487 C486 1.386 . S
C487 C491 1.393 . S
C488 H477 0.950 . S
C488 C486 1.391 . S
C488 C489 1.400 . S
C489 C483 1.491 . S
C489 C488 1.400 . S
C489 C490 1.398 . S
C490 H478 0.950 . S
C490 C489 1.398 . S
C490 C491 1.391 . S
C491 H479 0.950 . S
C491 C487 1.393 . S
C491 C490 1.391 . S
H492 C500 0.950 . S
H493 C505 0.950 . S
H494 C502 0.950 . S
H495 C504 0.950 . S
H496 C506 0.950 . S
H497 C508 0.950 . S
H498 C510 0.950 . S
H499 C511 0.950 1_554 S
C500 H492 0.950 . S
C500 C501 1.386 . S
C500 C502 1.391 . S
C501 C500 1.386 . S
C501 C505 1.393 . S
C502 H494 0.950 . S
C502 C500 1.391 . S
C502 C503 1.400 . S
C503 C502 1.400 . S
C503 C504 1.398 . S
C503 C509 1.491 . S
C504 H495 0.950 . S
C504 C503 1.398 . S
C504 C505 1.391 . S
C505 H493 0.950 . S
C505 C501 1.393 . S
C505 C504 1.391 . S
C506 H496 0.950 . S
C506 C507 1.386 . S
C506 C508 1.391 . S
C507 C506 1.386 . S
C507 C511 1.393 . S
C508 H497 0.950 . S
C508 C506 1.391 . S
C508 C509 1.400 . S
C509 C503 1.491 . S
C509 C508 1.400 . S
C509 C510 1.398 . S
C510 H498 0.950 . S
C510 C509 1.398 . S
C510 C511 1.391 . S
C511 H499 0.950 1_556 S
C511 C507 1.393 . S
C511 C510 1.391 . S
H512 C520 0.950 . S
H513 C525 0.950 . S
H514 C522 0.950 . S
H515 C524 0.950 . S
H516 C526 0.950 . S
H517 C528 0.950 . S
H518 C530 0.950 . S
H519 C531 0.950 . S
C520 H512 0.950 . S
C520 C521 1.386 . S
C520 C522 1.391 . S
C521 C520 1.386 . S
C521 C525 1.393 . S
C522 H514 0.950 . S
C522 C520 1.391 . S
C522 C523 1.400 . S
C523 C522 1.400 . S
C523 C524 1.398 . S
C523 C529 1.491 . S
C524 H515 0.950 . S
C524 C523 1.398 . S
C524 C525 1.391 . S
C525 H513 0.950 . S
C525 C521 1.393 . S
C525 C524 1.391 . S
C526 H516 0.950 . S
C526 C527 1.386 . S
C526 C528 1.391 . S
C527 C526 1.386 . S
C527 C531 1.393 . S
C528 H517 0.950 . S
C528 C526 1.391 . S
C528 C529 1.400 . S
C529 C523 1.491 . S
C529 C528 1.400 . S
C529 C530 1.398 . S
C530 H518 0.950 . S
C530 C529 1.398 . S
C530 C531 1.391 . S
C531 H519 0.950 . S
C531 C527 1.393 . S
C531 C530 1.391 . S
H532 C540 0.950 . S
H533 C545 0.950 . S
H534 C542 0.950 . S
H535 C544 0.950 . S
H536 C546 0.950 1_556 S
H537 C548 0.950 . S
H538 C550 0.950 . S
H539 C551 0.950 . S
C540 H532 0.950 . S
C540 C541 1.386 . S
C540 C542 1.391 . S
C541 C540 1.386 . S
C541 C545 1.393 . S
C542 H534 0.950 . S
C542 C540 1.391 . S
C542 C543 1.400 . S
C543 C542 1.400 . S
C543 C544 1.398 . S
C543 C549 1.491 . S
C544 H535 0.950 . S
C544 C543 1.398 . S
C544 C545 1.391 . S
C545 H533 0.950 . S
C545 C541 1.393 . S
C545 C544 1.391 . S
C546 H536 0.950 1_554 S
C546 C547 1.386 . S
C546 C548 1.391 . S
C547 C546 1.386 . S
C547 C551 1.393 . S
C548 H537 0.950 . S
C548 C546 1.391 . S
C548 C549 1.400 . S
C549 C543 1.491 . S
C549 C548 1.400 . S
C549 C550 1.398 . S
C550 H538 0.950 . S
C550 C549 1.398 . S
C550 C551 1.391 . S
C551 H539 0.950 . S
C551 C547 1.393 . S
C551 C550 1.391 . S
H552 C560 0.950 . S
H553 C565 0.950 . S
H554 C562 0.950 . S
H555 C564 0.950 . S
H556 C566 0.950 . S
H557 C568 0.950 . S
H558 C570 0.950 . S
H559 C571 0.950 . S
C560 H552 0.950 . S
C560 C561 1.386 . S
C560 C562 1.391 . S
C561 C560 1.386 . S
C561 C565 1.393 . S
C562 H554 0.950 . S
C562 C560 1.391 . S
C562 C563 1.400 . S
C563 C562 1.400 . S
C563 C564 1.398 . S
C563 C569 1.491 . S
C564 H555 0.950 . S
C564 C563 1.398 . S
C564 C565 1.391 . S
C565 H553 0.950 . S
C565 C561 1.393 . S
C565 C564 1.391 . S
C566 H556 0.950 . S
C566 C567 1.386 . S
C566 C568 1.391 . S
C567 C566 1.386 . S
C567 C571 1.393 . S
C568 H557 0.950 . S
C568 C566 1.391 . S
C568 C569 1.400 . S
C569 C563 1.491 . S
C569 C568 1.400 . S
C569 C570 1.398 . S
C570 H558 0.950 . S
C570 C569 1.398 . S
C570 C571 1.391 . S
C571 H559 0.950 . S
C571 C567 1.393 . S
C571 C570 1.391 . S
H572 C580 0.950 . S
H573 C585 0.950 . S
H574 C582 0.950 . S
H575 C584 0.950 . S
H576 C586 0.950 1_455 S
H577 C588 0.928 1_455 S
H578 C590 0.950 . S
H579 C591 0.950 . S
C580 H572 0.950 . S
C580 C581 1.386 . S
C580 C582 1.391 . S
C581 C580 1.386 . S
C581 C585 1.393 . S
C582 H574 0.950 . S
C582 C580 1.391 . S
C582 C583 1.400 . S
C583 C582 1.400 . S
C583 C584 1.398 . S
C583 C589 1.491 . S
C584 H575 0.950 . S
C584 C583 1.398 . S
C584 C585 1.391 . S
C585 H573 0.950 . S
C585 C581 1.393 . S
C585 C584 1.391 . S
C586 H576 0.950 1_655 S
C586 C587 1.386 . S
C586 C588 1.391 . S
C587 C586 1.386 . S
C587 C591 1.393 . S
C588 H577 0.928 1_655 S
C588 C586 1.391 . S
C588 C589 1.400 . S
C589 C583 1.491 . S
C589 C588 1.400 . S
C589 C590 1.398 . S
C590 H578 0.950 . S
C590 C589 1.398 . S
C590 C591 1.391 . S
C591 H579 0.950 . S
C591 C587 1.393 . S
C591 C590 1.391 . S
H592 C600 0.950 . S
H593 C605 0.950 . S
H594 C602 0.950 . S
H595 C604 0.950 . S
H596 C606 0.950 . S
H597 C608 0.950 . S
H598 C610 0.950 . S
H599 C611 0.950 . S
C600 H592 0.950 . S
C600 C601 1.386 . S
C600 C602 1.391 . S
C601 C600 1.386 . S
C601 C605 1.393 . S
C602 H594 0.950 . S
C602 C600 1.391 . S
C602 C603 1.400 . S
C603 C602 1.400 . S
C603 C604 1.398 . S
C603 C609 1.491 . S
C604 H595 0.950 . S
C604 C603 1.398 . S
C604 C605 1.391 . S
C605 H593 0.950 . S
C605 C601 1.393 . S
C605 C604 1.391 . S
C606 H596 0.950 . S
C606 C607 1.386 . S
C606 C608 1.391 . S
C607 C606 1.386 . S
C607 C611 1.393 . S
C608 H597 0.950 . S
C608 C606 1.391 . S
C608 C609 1.400 . S
C609 C603 1.491 . S
C609 C608 1.400 . S
C609 C610 1.398 . S
C610 H598 0.950 . S
C610 C609 1.398 . S
C610 C611 1.391 . S
C611 H599 0.950 . S
C611 C607 1.393 . S
C611 C610 1.391 . S
H612 C620 0.950 . S
H613 C625 0.950 . S
H614 C622 0.950 . S
H615 C624 0.950 . S
H616 C626 0.950 . S
H617 C628 0.950 . S
H618 C630 0.950 . S
H619 C631 0.950 1_455 S
C620 H612 0.950 . S
C620 C621 1.386 . S
C620 C622 1.391 . S
C621 C620 1.386 . S
C621 C625 1.393 . S
C622 H614 0.950 . S
C622 C620 1.391 . S
C622 C623 1.400 . S
C623 C622 1.400 . S
C623 C624 1.398 . S
C623 C629 1.491 . S
C624 H615 0.950 . S
C624 C623 1.398 . S
C624 C625 1.391 . S
C625 H613 0.950 . S
C625 C621 1.393 . S
C625 C624 1.391 . S
C626 H616 0.950 . S
C626 C627 1.386 . S
C626 C628 1.391 . S
C627 C626 1.386 . S
C627 C631 1.393 . S
C628 H617 0.950 . S
C628 C626 1.391 . S
C628 C629 1.400 . S
C629 C623 1.491 . S
C629 C628 1.400 . S
C629 C630 1.398 . S
C630 H618 0.950 . S
C630 C629 1.398 . S
C630 C631 1.391 . S
C631 H619 0.950 1_655 S
C631 C627 1.393 . S
C631 C630 1.391 . S
H632 C640 0.950 . S
H633 C645 0.950 . S
H634 C642 0.950 . S
H635 C644 0.950 . S
H636 C646 0.955 . S
H637 C648 0.950 . S
H638 C650 0.950 . S
H639 C651 0.950 . S
C640 H632 0.950 . S
C640 C641 1.386 . S
C640 C642 1.391 . S
C641 C640 1.386 . S
C641 C645 1.393 . S
C642 H634 0.950 . S
C642 C640 1.391 . S
C642 C643 1.400 . S
C643 C642 1.400 . S
C643 C644 1.398 . S
C643 C649 1.491 . S
C644 H635 0.950 . S
C644 C643 1.398 . S
C644 C645 1.391 . S
C645 H633 0.950 . S
C645 C641 1.393 . S
C645 C644 1.391 . S
C646 H636 0.955 . S
C646 C647 1.386 . S
C646 C648 1.391 . S
C647 C646 1.386 . S
C647 C651 1.393 . S
C648 H637 0.950 . S
C648 C646 1.391 . S
C648 C649 1.400 . S
C649 C643 1.491 . S
C649 C648 1.400 . S
C649 C650 1.398 . S
C650 H638 0.950 . S
C650 C649 1.398 . S
C650 C651 1.391 . S
C651 H639 0.950 . S
C651 C647 1.393 . S
C651 C650 1.391 . S
H652 C660 0.950 . S
H653 C665 0.950 . S
H654 C662 0.950 . S
H655 C664 0.950 . S
H656 C666 0.950 . S
H657 C668 0.950 . S
H658 C670 0.950 . S
H659 C671 0.950 . S
C660 H652 0.950 . S
C660 C661 1.386 . S
C660 C662 1.391 . S
C661 C660 1.386 . S
C661 C665 1.393 . S
C662 H654 0.950 . S
C662 C660 1.391 . S
C662 C663 1.400 . S
C663 C662 1.400 . S
C663 C664 1.398 . S
C663 C669 1.491 . S
C664 H655 0.950 . S
C664 C663 1.398 . S
C664 C665 1.391 . S
C665 H653 0.950 . S
C665 C661 1.393 . S
C665 C664 1.391 . S
C666 H656 0.950 . S
C666 C667 1.386 . S
C666 C668 1.391 . S
C667 C666 1.386 . S
C667 C671 1.393 . S
C668 H657 0.950 . S
C668 C666 1.391 . S
C668 C669 1.400 . S
C669 C663 1.491 . S
C669 C668 1.400 . S
C669 C670 1.398 . S
C670 H658 0.950 . S
C670 C669 1.398 . S
C670 C671 1.391 . S
C671 H659 0.950 . S
C671 C667 1.393 . S
C671 C670 1.391 . S
H672 C680 0.950 . S
H673 C685 0.950 . S
H674 C682 0.950 . S
H675 C684 0.950 . S
H676 C686 0.950 1_655 S
H677 C688 0.974 . S
H678 C690 0.950 . S
H679 C691 0.950 . S
C680 H672 0.950 . S
C680 C681 1.386 . S
C680 C682 1.391 . S
C681 C680 1.386 . S
C681 C685 1.393 . S
C682 H674 0.950 . S
C682 C680 1.391 . S
C682 C683 1.400 . S
C683 C682 1.400 . S
C683 C684 1.398 . S
C683 C689 1.491 . S
C684 H675 0.950 . S
C684 C683 1.398 . S
C684 C685 1.391 . S
C685 H673 0.950 . S
C685 C681 1.393 . S
C685 C684 1.391 . S
C686 H676 0.950 1_455 S
C686 C687 1.386 . S
C686 C688 1.391 . S
C687 C686 1.386 . S
C687 C691 1.393 . S
C688 H677 0.974 . S
C688 C686 1.391 . S
C688 C689 1.400 . S
C689 C683 1.491 . S
C689 C688 1.400 . S
C689 C690 1.398 . S
C690 H678 0.950 . S
C690 C689 1.398 . S
C690 C691 1.391 . S
C691 H679 0.950 . S
C691 C687 1.393 . S
C691 C690 1.391 . S
H692 C700 0.950 . S
H693 C705 0.950 . S
H694 C702 0.950 . S
H695 C704 0.950 . S
H696 C706 0.950 . S
H697 C708 0.950 . S
H698 C710 0.950 1_545 S
H699 C711 0.941 1_545 S
C700 H692 0.950 . S
C700 C701 1.386 . S
C700 C702 1.391 . S
C701 C700 1.386 . S
C701 C705 1.393 . S
C702 H694 0.950 . S
C702 C700 1.391 . S
C702 C703 1.400 . S
C703 C702 1.400 . S
C703 C704 1.398 . S
C703 C709 1.491 . S
C704 H695 0.950 . S
C704 C703 1.398 . S
C704 C705 1.391 . S
C705 H693 0.950 . S
C705 C701 1.393 . S
C705 C704 1.391 . S
C706 H696 0.950 . S
C706 C707 1.386 . S
C706 C708 1.391 . S
C707 C706 1.386 . S
C707 C711 1.399 . S
C708 H697 0.950 . S
C708 C706 1.391 . S
C708 C709 1.400 . S
C709 C703 1.491 . S
C709 C708 1.400 . S
C709 C710 1.398 . S
C710 H698 0.950 1_565 S
C710 C709 1.398 . S
C710 C711 1.394 . S
C711 H699 0.941 1_565 S
C711 C707 1.399 . S
C711 C710 1.394 . S
H712 C720 0.950 . S
H713 C725 0.950 . S
H714 C722 0.950 . S
H715 C724 0.950 . S
H716 C726 0.950 . S
H717 C728 0.950 . S
H718 C730 0.950 . S
H719 C731 0.950 . S
C720 H712 0.950 . S
C720 C721 1.386 . S
C720 C722 1.391 . S
C721 C720 1.386 . S
C721 C725 1.393 . S
C722 H714 0.950 . S
C722 C720 1.391 . S
C722 C723 1.400 . S
C723 C722 1.400 . S
C723 C724 1.398 . S
C723 C729 1.491 . S
C724 H715 0.950 . S
C724 C723 1.398 . S
C724 C725 1.391 . S
C725 H713 0.950 . S
C725 C721 1.393 . S
C725 C724 1.391 . S
C726 H716 0.950 . S
C726 C727 1.386 . S
C726 C728 1.391 . S
C727 C726 1.386 . S
C727 C731 1.393 . S
C728 H717 0.950 . S
C728 C726 1.391 . S
C728 C729 1.400 . S
C729 C723 1.491 . S
C729 C728 1.400 . S
C729 C730 1.398 . S
C730 H718 0.950 . S
C730 C729 1.398 . S
C730 C731 1.391 . S
C731 H719 0.950 . S
C731 C727 1.393 . S
C731 C730 1.391 . S
H732 C740 0.950 . S
H733 C745 0.950 . S
H734 C742 0.950 . S
H735 C744 0.950 . S
H736 C746 0.950 . S
H737 C748 0.950 . S
H738 C750 0.950 . S
H739 C751 0.950 . S
C740 H732 0.950 . S
C740 C741 1.386 . S
C740 C742 1.391 . S
C741 C740 1.386 . S
C741 C745 1.393 . S
C742 H734 0.950 . S
C742 C740 1.391 . S
C742 C743 1.400 . S
C743 C742 1.400 . S
C743 C744 1.398 . S
C743 C749 1.491 . S
C744 H735 0.950 . S
C744 C743 1.398 . S
C744 C745 1.391 . S
C745 H733 0.950 . S
C745 C741 1.393 . S
C745 C744 1.391 . S
C746 H736 0.950 . S
C746 C747 1.386 . S
C746 C748 1.391 . S
C747 C746 1.386 . S
C747 C751 1.393 . S
C748 H737 0.950 . S
C748 C746 1.391 . S
C748 C749 1.400 . S
C749 C743 1.491 . S
C749 C748 1.400 . S
C749 C750 1.398 . S
C750 H738 0.950 . S
C750 C749 1.398 . S
C750 C751 1.391 . S
C751 H739 0.950 . S
C751 C747 1.393 . S
C751 C750 1.391 . S
H752 C760 0.950 . S
H753 C765 0.950 . S
H754 C762 0.950 . S
H755 C764 0.950 . S
H756 C766 0.950 . S
H757 C768 0.950 . S
H758 C770 0.950 . S
H759 C771 0.950 . S
C760 H752 0.950 . S
C760 C761 1.386 . S
C760 C762 1.391 . S
C761 C760 1.386 . S
C761 C765 1.393 . S
C762 H754 0.950 . S
C762 C760 1.391 . S
C762 C763 1.400 . S
C763 C762 1.400 . S
C763 C764 1.398 . S
C763 C769 1.491 . S
C764 H755 0.950 . S
C764 C763 1.398 . S
C764 C765 1.391 . S
C765 H753 0.950 . S
C765 C761 1.393 . S
C765 C764 1.391 . S
C766 H756 0.950 . S
C766 C767 1.386 . S
C766 C768 1.391 . S
C767 C766 1.386 . S
C767 C771 1.393 . S
C768 H757 0.950 . S
C768 C766 1.391 . S
C768 C769 1.400 . S
C769 C763 1.491 . S
C769 C768 1.400 . S
C769 C770 1.398 . S
C770 H758 0.950 . S
C770 C769 1.398 . S
C770 C771 1.391 . S
C771 H759 0.950 . S
C771 C767 1.393 . S
C771 C770 1.391 . S
H772 C780 0.950 . S
H773 C785 0.950 . S
H774 C782 0.950 . S
H775 C784 0.950 . S
H776 C786 0.950 1_554 S
H777 C788 0.950 1_554 S
H778 C790 0.950 . S
H779 C791 0.950 . S
C780 H772 0.950 . S
C780 C781 1.386 . S
C780 C782 1.391 . S
C781 C780 1.386 . S
C781 C785 1.393 . S
C782 H774 0.950 . S
C782 C780 1.391 . S
C782 C783 1.400 . S
C783 C782 1.400 . S
C783 C784 1.398 . S
C783 C789 1.491 . S
C784 H775 0.950 . S
C784 C783 1.398 . S
C784 C785 1.391 . S
C785 H773 0.950 . S
C785 C781 1.393 . S
C785 C784 1.391 . S
C786 H776 0.950 1_556 S
C786 C787 1.386 . S
C786 C788 1.391 . S
C787 C786 1.386 . S
C787 C791 1.393 . S
C788 H777 0.950 1_556 S
C788 C786 1.391 . S
C788 C789 1.400 . S
C789 C783 1.491 . S
C789 C788 1.400 . S
C789 C790 1.398 . S
C790 H778 0.950 . S
C790 C789 1.398 . S
C790 C791 1.391 . S
C791 H779 0.950 . S
C791 C787 1.393 . S
C791 C790 1.391 . S
H792 C800 0.950 . S
H793 C805 0.950 . S
H794 C802 0.950 . S
H795 C804 0.950 . S
H796 C806 0.950 . S
H797 C808 0.950 . S
H798 C810 0.950 . S
H799 C811 0.950 . S
C800 H792 0.950 . S
C800 C801 1.386 . S
C800 C802 1.391 . S
C801 C800 1.386 . S
C801 C805 1.393 . S
C802 H794 0.950 . S
C802 C800 1.391 . S
C802 C803 1.400 . S
C803 C802 1.400 . S
C803 C804 1.398 . S
C803 C809 1.491 . S
C804 H795 0.950 . S
C804 C803 1.398 . S
C804 C805 1.391 . S
C805 H793 0.950 . S
C805 C801 1.393 . S
C805 C804 1.391 . S
C806 H796 0.950 . S
C806 C807 1.386 . S
C806 C808 1.391 . S
C807 C806 1.386 . S
C807 C811 1.393 . S
C808 H797 0.950 . S
C808 C806 1.391 . S
C808 C809 1.400 . S
C809 C803 1.491 . S
C809 C808 1.400 . S
C809 C810 1.398 . S
C810 H798 0.950 . S
C810 C809 1.398 . S
C810 C811 1.391 . S
C811 H799 0.950 . S
C811 C807 1.393 . S
C811 C810 1.391 . S
H812 C820 0.950 . S
H813 C825 0.950 . S
H814 C822 0.950 . S
H815 C824 0.950 . S
H816 C826 0.950 . S
H817 C828 0.950 . S
H818 C830 0.950 . S
H819 C831 0.950 . S
C820 H812 0.950 . S
C820 C821 1.386 . S
C820 C822 1.391 . S
C821 C820 1.386 . S
C821 C825 1.393 . S
C822 H814 0.950 . S
C822 C820 1.391 . S
C822 C823 1.400 . S
C823 C822 1.400 . S
C823 C824 1.398 . S
C823 C829 1.491 . S
C824 H815 0.950 . S
C824 C823 1.398 . S
C824 C825 1.391 . S
C825 H813 0.950 . S
C825 C821 1.393 . S
C825 C824 1.391 . S
C826 H816 0.950 . S
C826 C827 1.386 . S
C826 C828 1.391 . S
C827 C826 1.386 . S
C827 C831 1.393 . S
C828 H817 0.950 . S
C828 C826 1.391 . S
C828 C829 1.400 . S
C829 C823 1.491 . S
C829 C828 1.400 . S
C829 C830 1.398 . S
C830 H818 0.950 . S
C830 C829 1.398 . S
C830 C831 1.391 . S
C831 H819 0.950 . S
C831 C827 1.393 . S
C831 C830 1.391 . S
H832 C840 0.950 . S
H833 C845 0.950 . S
H834 C842 0.950 . S
H835 C844 0.950 . S
H836 C846 0.950 . S
H837 C848 0.950 . S
H838 C850 0.950 . S
H839 C851 0.950 . S
C840 H832 0.950 . S
C840 C841 1.386 . S
C840 C842 1.391 . S
C841 C840 1.386 . S
C841 C845 1.393 . S
C842 H834 0.950 . S
C842 C840 1.391 . S
C842 C843 1.400 . S
C843 C842 1.400 . S
C843 C844 1.398 . S
C843 C849 1.491 . S
C844 H835 0.950 . S
C844 C843 1.398 . S
C844 C845 1.391 . S
C845 H833 0.950 . S
C845 C841 1.393 . S
C845 C844 1.391 . S
C846 H836 0.950 . S
C846 C847 1.386 . S
C846 C848 1.391 . S
C847 C846 1.386 . S
C847 C851 1.393 . S
C848 H837 0.950 . S
C848 C846 1.391 . S
C848 C849 1.400 . S
C849 C843 1.491 . S
C849 C848 1.400 . S
C849 C850 1.398 . S
C850 H838 0.950 . S
C850 C849 1.398 . S
C850 C851 1.391 . S
C851 H839 0.950 . S
C851 C847 1.393 . S
C851 C850 1.391 . S
C381 C1 1.596 . S
C387 C304 1.557 . S
C401 C67 1.491 . S
C407 C326 1.439 . S
C427 C345 1.179 . S
C421 C97 1.417 . S
C441 C133 1.853 . S
C447 C366 1.499 . S
C467 C323 1.782 . S
C461 C25 1.801 . S
C487 C301 1.661 . S
C481 C37 1.694 . S
C507 C368 1.314 . S
C501 C103 1.342 . S
C527 C347 1.466 . S
C521 C109 1.500 . S
C541 C31 1.733 . S
C547 C365 1.711 . S
C567 C324 1.281 . S
C561 C73 1.582 . S
C581 C139 1.710 . S
C587 C306 1.520 . S
C601 C61 1.488 . S
C607 C344 1.504 . S
C627 C302 1.559 . S
C621 C175 1.649 . S
C641 C181 1.305 . S
C647 C322 1.272 . S
C661 C247 1.529 . S
C667 C348 1.277 . S
C681 C277 1.771 . S
C687 C369 1.426 . S
C701 C145 1.754 . S
C707 C325 1.715 . S
C727 C305 1.732 . S
C721 C211 1.767 . S
C747 C364 1.186 . S
C741 C217 1.244 . S
C767 C343 1.558 . S
C761 C283 1.602 . S
C781 C169 1.568 . S
C787 C367 1.530 . S
C807 C327 1.262 . S
C801 C241 1.518 . S
C827 C303 1.363 . S
C821 C253 1.505 . S
C841 C205 1.453 . S
C847 C346 1.435 . S
