# Generated by pormake.
# Topology ssb, (4,4)-cn, num edge types: 1
# Building blocks:
#     Node 0, Type 0, BuildingBlock: NAWXER_clean_linker_0, # of connection points: 4
#     Node 1, Type 0, BuildingBlock: NAWXER_clean_linker_0, # of connection points: 4
#     Node 2, Type 0, BuildingBlock: NAWXER_clean_linker_0, # of connection points: 4
#     Node 3, Type 0, BuildingBlock: NAWXER_clean_linker_0, # of connection points: 4
#     Node 4, Type 0, BuildingBlock: NAWXER_clean_linker_0, # of connection points: 4
#     Node 5, Type 0, BuildingBlock: NAWXER_clean_linker_0, # of connection points: 4
#     Node 6, Type 0, BuildingBlock: NAWXER_clean_linker_0, # of connection points: 4
#     Node 7, Type 0, BuildingBlock: NAWXER_clean_linker_0, # of connection points: 4
#     Node 8, Type 1, BuildingBlock: NAWXER_clean_sbu_0, # of connection points: 4
#     Node 9, Type 1, BuildingBlock: NAWXER_clean_sbu_0, # of connection points: 4
#     Node 10, Type 1, BuildingBlock: NAWXER_clean_sbu_0, # of connection points: 4
#     Node 11, Type 1, BuildingBlock: NAWXER_clean_sbu_0, # of connection points: 4
#     Node 12, Type 1, BuildingBlock: NAWXER_clean_sbu_0, # of connection points: 4
#     Node 13, Type 1, BuildingBlock: NAWXER_clean_sbu_0, # of connection points: 4
#     Node 14, Type 1, BuildingBlock: NAWXER_clean_sbu_0, # of connection points: 4
#     Node 15, Type 1, BuildingBlock: NAWXER_clean_sbu_0, # of connection points: 4
#     Edge 16, Type (0, 1), BuildingBlock: OJICUG_clean_linker_0, # of connection points: 2
#     Edge 17, Type (0, 1), BuildingBlock: OJICUG_clean_linker_0, # of connection points: 2
#     Edge 18, Type (0, 1), BuildingBlock: OJICUG_clean_linker_0, # of connection points: 2
#     Edge 19, Type (0, 1), BuildingBlock: OJICUG_clean_linker_0, # of connection points: 2
#     Edge 20, Type (0, 1), BuildingBlock: OJICUG_clean_linker_0, # of connection points: 2
#     Edge 21, Type (0, 1), BuildingBlock: OJICUG_clean_linker_0, # of connection points: 2
#     Edge 22, Type (0, 1), BuildingBlock: OJICUG_clean_linker_0, # of connection points: 2
#     Edge 23, Type (0, 1), BuildingBlock: OJICUG_clean_linker_0, # of connection points: 2
#     Edge 24, Type (0, 1), BuildingBlock: OJICUG_clean_linker_0, # of connection points: 2
#     Edge 25, Type (0, 1), BuildingBlock: OJICUG_clean_linker_0, # of connection points: 2
#     Edge 26, Type (0, 1), BuildingBlock: OJICUG_clean_linker_0, # of connection points: 2
#     Edge 27, Type (0, 1), BuildingBlock: OJICUG_clean_linker_0, # of connection points: 2
#     Edge 28, Type (0, 1), BuildingBlock: OJICUG_clean_linker_0, # of connection points: 2
#     Edge 29, Type (0, 1), BuildingBlock: OJICUG_clean_linker_0, # of connection points: 2
#     Edge 30, Type (0, 1), BuildingBlock: OJICUG_clean_linker_0, # of connection points: 2
#     Edge 31, Type (0, 1), BuildingBlock: OJICUG_clean_linker_0, # of connection points: 2
#     Edge 32, Type (0, 1), BuildingBlock: OJICUG_clean_linker_0, # of connection points: 2
#     Edge 33, Type (0, 1), BuildingBlock: OJICUG_clean_linker_0, # of connection points: 2
#     Edge 34, Type (0, 1), BuildingBlock: OJICUG_clean_linker_0, # of connection points: 2
#     Edge 35, Type (0, 1), BuildingBlock: OJICUG_clean_linker_0, # of connection points: 2
#     Edge 36, Type (0, 1), BuildingBlock: OJICUG_clean_linker_0, # of connection points: 2
#     Edge 37, Type (0, 1), BuildingBlock: OJICUG_clean_linker_0, # of connection points: 2
#     Edge 38, Type (0, 1), BuildingBlock: OJICUG_clean_linker_0, # of connection points: 2
#     Edge 39, Type (0, 1), BuildingBlock: OJICUG_clean_linker_0, # of connection points: 2
#     Edge 40, Type (0, 1), BuildingBlock: OJICUG_clean_linker_0, # of connection points: 2
#     Edge 41, Type (0, 1), BuildingBlock: OJICUG_clean_linker_0, # of connection points: 2
#     Edge 42, Type (0, 1), BuildingBlock: OJICUG_clean_linker_0, # of connection points: 2
#     Edge 43, Type (0, 1), BuildingBlock: OJICUG_clean_linker_0, # of connection points: 2
#     Edge 44, Type (0, 1), BuildingBlock: OJICUG_clean_linker_0, # of connection points: 2
#     Edge 45, Type (0, 1), BuildingBlock: OJICUG_clean_linker_0, # of connection points: 2
#     Edge 46, Type (0, 1), BuildingBlock: OJICUG_clean_linker_0, # of connection points: 2
#     Edge 47, Type (0, 1), BuildingBlock: OJICUG_clean_linker_0, # of connection points: 2
# Relax obj value: 0.000
# Max RMSD: 0.001
# Mean RMSD: 0.001
data_MOF--net-ssb--node1-NAWXER_clean_sbu_0--node2-NAWXER_clean_linker_0--edge1-OJICUG_clean_linker_0
_symmetry_space_group_name_H-M    P1
_symmetry_Int_Tables_number       1
_symmetry_cell_setting            triclinic
loop_
_symmetry_equiv_pos_as_xyz
'x, y, z'
_cell_length_a     41.663129
_cell_length_b     41.557911
_cell_length_c     36.379555
_cell_angle_alpha  89.931266
_cell_angle_beta   89.950145
_cell_angle_gamma 90.076011
loop_
_atom_site_label
_atom_site_type_symbol
_atom_site_fract_x
_atom_site_fract_y
_atom_site_fract_z
_atom_type_partial_charge
C0 C 0.33922 0.27568 0.14436 0.0
C1 C 0.371 0.27375 0.15699 0.0
C2 C 0.3136 0.27198 0.16878 0.0
C3 C 0.31934 0.26722 0.20646 0.0
C4 C 0.37666 0.2668 0.19427 0.0
C5 C 0.35099 0.26361 0.21885 0.0
C6 C 0.29277 0.26967 0.23328 0.0
C7 C 0.30963 0.36343 0.17631 0.0
C8 C 0.28261 0.3736 0.15627 0.0
C9 C 0.30657 0.33995 0.20372 0.0
C10 C 0.27665 0.32543 0.21064 0.0
C11 C 0.25231 0.36098 0.16574 0.0
C12 C 0.24942 0.33707 0.19243 0.0
C13 C 0.27319 0.29732 0.23549 0.0
C14 C 0.19493 0.27321 0.37183 0.0
C15 C 0.16502 0.28455 0.35954 0.0
C16 C 0.22044 0.26972 0.34727 0.0
C17 C 0.2162 0.27682 0.30985 0.0
C18 C 0.16135 0.29327 0.32251 0.0
C19 C 0.18676 0.28946 0.29789 0.0
C20 C 0.24254 0.27256 0.28311 0.0
C21 C 0.21907 0.17551 0.33043 0.0
C22 C 0.24499 0.15968 0.34739 0.0
C23 C 0.2243 0.20239 0.30784 0.0
C24 C 0.25549 0.21471 0.3025 0.0
C25 C 0.2763 0.1709 0.33994 0.0
C26 C 0.28144 0.19805 0.31796 0.0
C27 C 0.26158 0.24439 0.28043 0.0
H28 H 0.33418 0.2802 0.1156 0.0
H29 H 0.2893 0.27431 0.15856 0.0
H30 H 0.40096 0.26491 0.20462 0.0
H31 H 0.3559 0.25984 0.24777 0.0
H32 H 0.3333 0.37273 0.17007 0.0
H33 H 0.32779 0.33233 0.2185 0.0
H34 H 0.23073 0.36913 0.15205 0.0
H35 H 0.22595 0.32684 0.19788 0.0
H36 H 0.19845 0.26673 0.4004 0.0
H37 H 0.24332 0.26114 0.35741 0.0
H38 H 0.13849 0.30186 0.31231 0.0
H39 H 0.18314 0.29562 0.26924 0.0
H40 H 0.19463 0.16766 0.3352 0.0
H41 H 0.20383 0.21375 0.29493 0.0
H42 H 0.29707 0.15879 0.35122 0.0
H43 H 0.3058 0.2064 0.31362 0.0
N44 N 0.28639 0.24431 0.25592 0.0
N45 N 0.24884 0.29757 0.26019 0.0
C46 C 0.64896 0.25838 0.16708 0.0
C47 C 0.64762 0.23132 0.1439 0.0
C48 C 0.6729 0.26104 0.19366 0.0
C49 C 0.69613 0.23689 0.19706 0.0
C50 C 0.66997 0.20646 0.14861 0.0
C51 C 0.69402 0.20922 0.17509 0.0
C52 C 0.72227 0.23949 0.22405 0.0
C53 C 0.73176 0.32129 0.14359 0.0
C54 C 0.73229 0.35167 0.16058 0.0
C55 C 0.7365 0.29324 0.16426 0.0
C56 C 0.74098 0.29495 0.20254 0.0
C57 C 0.73777 0.35336 0.19866 0.0
C58 C 0.74205 0.32531 0.21937 0.0
C59 C 0.74414 0.26555 0.22559 0.0
C60 C 0.84771 0.2055 0.31873 0.0
C61 C 0.85891 0.23229 0.33851 0.0
C62 C 0.81979 0.20762 0.29758 0.0
C63 C 0.8023 0.2365 0.2959 0.0
C64 C 0.84152 0.26132 0.33633 0.0
C65 C 0.81369 0.26346 0.315 0.0
C66 C 0.77254 0.23864 0.27369 0.0
C67 C 0.74627 0.17574 0.36877 0.0
C68 C 0.7363 0.14434 0.36025 0.0
C69 C 0.75075 0.19844 0.34097 0.0
C70 C 0.74606 0.18998 0.30398 0.0
C71 C 0.73078 0.13605 0.32339 0.0
C72 C 0.73562 0.1587 0.29549 0.0
C73 C 0.74861 0.21453 0.27457 0.0
H74 H 0.63156 0.27761 0.16447 0.0
H75 H 0.6735 0.28207 0.21121 0.0
H76 H 0.66949 0.18541 0.13108 0.0
H77 H 0.71151 0.19009 0.17781 0.0
H78 H 0.72836 0.31927 0.11416 0.0
H79 H 0.7366 0.27024 0.15031 0.0
H80 H 0.73839 0.37641 0.21251 0.0
H81 H 0.74565 0.32734 0.24877 0.0
H82 H 0.86074 0.18298 0.31916 0.0
H83 H 0.81198 0.18668 0.2823 0.0
H84 H 0.8491 0.28234 0.3516 0.0
H85 H 0.8007 0.286 0.31402 0.0
H86 H 0.7502 0.18287 0.39705 0.0
H87 H 0.75724 0.22276 0.34859 0.0
H88 H 0.72329 0.11191 0.31611 0.0
H89 H 0.73125 0.15175 0.26724 0.0
N90 N 0.72504 0.2154 0.24897 0.0
N91 N 0.76885 0.26383 0.25005 0.0
C92 C 0.69132 0.77269 0.14002 0.0
C93 C 0.66061 0.77917 0.15416 0.0
C94 C 0.71786 0.77033 0.16343 0.0
C95 C 0.71416 0.77323 0.20175 0.0
C96 C 0.65715 0.78407 0.19217 0.0
C97 C 0.68364 0.78105 0.21572 0.0
C98 C 0.74177 0.76852 0.22739 0.0
C99 C 0.73856 0.67164 0.16791 0.0
C100 C 0.76635 0.66525 0.14705 0.0
C101 C 0.73731 0.69821 0.19138 0.0
C102 C 0.7638 0.71887 0.19436 0.0
C103 C 0.79248 0.68655 0.14951 0.0
C104 C 0.79129 0.71292 0.17318 0.0
C105 C 0.76496 0.74393 0.22296 0.0
C106 C 0.8362 0.74234 0.36579 0.0
C107 C 0.86711 0.73504 0.35263 0.0
C108 C 0.81188 0.75171 0.3415 0.0
C109 C 0.81809 0.75415 0.30362 0.0
C110 C 0.87303 0.73699 0.31465 0.0
C111 C 0.84876 0.74627 0.29044 0.0
C112 C 0.79217 0.7615 0.27701 0.0
C113 C 0.80337 0.8519 0.34351 0.0
C114 C 0.7761 0.86052 0.36406 0.0
C115 C 0.80151 0.8277 0.31682 0.0
C116 C 0.77241 0.81144 0.31035 0.0
C117 C 0.74714 0.84388 0.3577 0.0
C118 C 0.74527 0.81987 0.33095 0.0
C119 C 0.76971 0.78667 0.28119 0.0
H120 H 0.69478 0.7694 0.11075 0.0
H121 H 0.74123 0.76605 0.15141 0.0
H122 H 0.63376 0.7891 0.20382 0.0
H123 H 0.68006 0.78397 0.24502 0.0
H124 H 0.71816 0.65548 0.16716 0.0
H125 H 0.71618 0.70191 0.20823 0.0
H126 H 0.81401 0.68272 0.13341 0.0
H127 H 0.81211 0.72845 0.17541 0.0
H128 H 0.83095 0.74135 0.39494 0.0
H129 H 0.78815 0.75657 0.35229 0.0
H130 H 0.89648 0.73123 0.3036 0.0
H131 H 0.85398 0.74733 0.26128 0.0
H132 H 0.82591 0.86447 0.34726 0.0
H133 H 0.82265 0.82219 0.30069 0.0
H134 H 0.72578 0.84943 0.37343 0.0
H135 H 0.72259 0.80771 0.32648 0.0
N136 N 0.74516 0.78896 0.25648 0.0
N137 N 0.78901 0.74151 0.24787 0.0
C138 C 0.33405 0.70541 0.17284 0.0
C139 C 0.34705 0.73174 0.15351 0.0
C140 C 0.30621 0.7091 0.19408 0.0
C141 C 0.29078 0.73912 0.19614 0.0
C142 C 0.33079 0.76139 0.15473 0.0
C143 C 0.3032 0.76509 0.17605 0.0
C144 C 0.26404 0.74481 0.22216 0.0
C145 C 0.2253 0.67944 0.13485 0.0
C146 C 0.22319 0.64759 0.14761 0.0
C147 C 0.22904 0.70489 0.15966 0.0
C148 C 0.23026 0.69894 0.19766 0.0
C149 C 0.22369 0.64177 0.18568 0.0
C150 C 0.22674 0.6673 0.21052 0.0
C151 C 0.23619 0.72552 0.22387 0.0
C152 C 0.15512 0.7985 0.33559 0.0
C153 C 0.14219 0.77229 0.35518 0.0
C154 C 0.17878 0.79364 0.3087 0.0
C155 C 0.19051 0.76254 0.30132 0.0
C156 C 0.15283 0.74108 0.34621 0.0
C157 C 0.17664 0.7363 0.3197 0.0
C158 C 0.21692 0.75683 0.27447 0.0
C159 C 0.2571 0.82071 0.36281 0.0
C160 C 0.26771 0.85094 0.35027 0.0
C161 C 0.25026 0.79606 0.33792 0.0
C162 C 0.25313 0.80139 0.29993 0.0
C163 C 0.2723 0.85568 0.3124 0.0
C164 C 0.26511 0.8311 0.28747 0.0
C165 C 0.24526 0.77576 0.27307 0.0
H166 H 0.34607 0.68232 0.17276 0.0
H167 H 0.29755 0.68887 0.21006 0.0
H168 H 0.33962 0.782 0.13951 0.0
H169 H 0.29176 0.78847 0.1773 0.0
H170 H 0.22526 0.68453 0.10564 0.0
H171 H 0.23146 0.72919 0.14919 0.0
H172 H 0.22211 0.61741 0.19617 0.0
H173 H 0.22753 0.66223 0.23973 0.0
H174 H 0.14749 0.82284 0.34152 0.0
H175 H 0.18816 0.8143 0.29402 0.0
H176 H 0.14279 0.72014 0.35976 0.0
H177 H 0.1847 0.71202 0.31411 0.0
H178 H 0.25383 0.81624 0.39191 0.0
H179 H 0.24244 0.77294 0.3484 0.0
H180 H 0.2803 0.87876 0.30197 0.0
H181 H 0.26815 0.83557 0.25832 0.0
N182 N 0.26739 0.76916 0.24671 0.0
N183 N 0.21373 0.73216 0.25001 0.0
C184 C 0.14816 0.77401 0.69193 0.0
C185 C 0.14664 0.74719 0.66834 0.0
C186 C 0.17501 0.77928 0.71404 0.0
C187 C 0.20091 0.75778 0.71327 0.0
C188 C 0.17213 0.72501 0.66871 0.0
C189 C 0.19891 0.73016 0.69119 0.0
C190 C 0.22988 0.76391 0.73578 0.0
C191 C 0.23334 0.83374 0.64316 0.0
C192 C 0.22841 0.86605 0.65296 0.0
C193 C 0.23904 0.81043 0.66999 0.0
C194 C 0.23968 0.81872 0.70741 0.0
C195 C 0.22866 0.8744 0.69045 0.0
C196 C 0.23455 0.85094 0.71745 0.0
C197 C 0.24646 0.79361 0.73546 0.0
C198 C 0.36302 0.7613 0.82649 0.0
C199 C 0.36247 0.78421 0.85497 0.0
C200 C 0.33759 0.75892 0.80166 0.0
C201 C 0.31092 0.77934 0.80473 0.0
C202 C 0.33671 0.80606 0.85649 0.0
C203 C 0.31119 0.80369 0.83146 0.0
C204 C 0.28207 0.77378 0.78174 0.0
C205 C 0.2865 0.69081 0.86316 0.0
C206 C 0.28603 0.6601 0.84702 0.0
C207 C 0.28072 0.71828 0.84184 0.0
C208 C 0.27522 0.71554 0.80382 0.0
C209 C 0.28103 0.65746 0.809 0.0
C210 C 0.27573 0.68487 0.78765 0.0
C211 C 0.26604 0.74369 0.78096 0.0
H212 H 0.12863 0.79114 0.69317 0.0
H213 H 0.17559 0.80026 0.73168 0.0
H214 H 0.17191 0.70424 0.65078 0.0
H215 H 0.21853 0.71309 0.69048 0.0
H216 H 0.23329 0.82653 0.61455 0.0
H217 H 0.24353 0.7859 0.66138 0.0
H218 H 0.22537 0.89919 0.69878 0.0
H219 H 0.23512 0.85793 0.74612 0.0
H220 H 0.38285 0.74462 0.8239 0.0
H221 H 0.33824 0.7404 0.78074 0.0
H222 H 0.3355 0.82395 0.87806 0.0
H223 H 0.29093 0.81984 0.83414 0.0
H224 H 0.28973 0.69345 0.89255 0.0
H225 H 0.27938 0.74142 0.85536 0.0
H226 H 0.2806 0.63407 0.79588 0.0
H227 H 0.2714 0.68203 0.75846 0.0
N228 N 0.24053 0.74008 0.7581 0.0
N229 N 0.27175 0.79764 0.75883 0.0
C230 C 0.33548 0.26854 0.84203 0.0
C231 C 0.34163 0.24055 0.86272 0.0
C232 C 0.30926 0.26997 0.81826 0.0
C233 C 0.28864 0.24349 0.81484 0.0
C234 C 0.32055 0.21429 0.85967 0.0
C235 C 0.29441 0.2157 0.83576 0.0
C236 C 0.26403 0.2426 0.78584 0.0
C237 C 0.23183 0.32055 0.86471 0.0
C238 C 0.23511 0.35126 0.84885 0.0
C239 C 0.23353 0.29284 0.84282 0.0
C240 C 0.23799 0.29545 0.80465 0.0
C241 C 0.2394 0.35377 0.81065 0.0
C242 C 0.24039 0.32614 0.78872 0.0
C243 C 0.24033 0.26652 0.78098 0.0
C244 C 0.15442 0.2016 0.67004 0.0
C245 C 0.1434 0.2286 0.65053 0.0
C246 C 0.17961 0.20455 0.69522 0.0
C247 C 0.19451 0.23451 0.70114 0.0
C248 C 0.1585 0.25851 0.65645 0.0
C249 C 0.18358 0.26146 0.68168 0.0
C250 C 0.22048 0.23808 0.72867 0.0
C251 C 0.26382 0.17955 0.6387 0.0
C252 C 0.27124 0.14754 0.6479 0.0
C253 C 0.25538 0.2016 0.6659 0.0
C254 C 0.25396 0.19212 0.70291 0.0
C255 C 0.27106 0.13837 0.68512 0.0
C256 C 0.26267 0.16056 0.71241 0.0
C257 C 0.24597 0.21586 0.73181 0.0
H258 H 0.3516 0.28898 0.84316 0.0
H259 H 0.30597 0.29121 0.8014 0.0
H260 H 0.32438 0.19257 0.87553 0.0
H261 H 0.27897 0.19484 0.83307 0.0
H262 H 0.22864 0.31798 0.89412 0.0
H263 H 0.23135 0.26941 0.85566 0.0
H264 H 0.24187 0.37715 0.79774 0.0
H265 H 0.24376 0.32871 0.75932 0.0
H266 H 0.14307 0.17834 0.66657 0.0
H267 H 0.18701 0.18351 0.7106 0.0
H268 H 0.15102 0.27973 0.64144 0.0
H269 H 0.19462 0.2848 0.68578 0.0
H270 H 0.26437 0.18754 0.61036 0.0
H271 H 0.25018 0.22617 0.65795 0.0
H272 H 0.27642 0.11384 0.69306 0.0
H273 H 0.26238 0.1529 0.74089 0.0
N274 N 0.26621 0.21854 0.76078 0.0
N275 N 0.21911 0.26309 0.75282 0.0
C276 C 0.86006 0.2472 0.66925 0.0
C277 C 0.86207 0.27417 0.64586 0.0
C278 C 0.83596 0.24516 0.69582 0.0
C279 C 0.81337 0.26991 0.69916 0.0
C280 C 0.83998 0.29936 0.65017 0.0
C281 C 0.81591 0.29728 0.67674 0.0
C282 C 0.78766 0.26838 0.7268 0.0
C283 C 0.77354 0.18796 0.64595 0.0
C284 C 0.77044 0.15764 0.66272 0.0
C285 C 0.77045 0.21613 0.66674 0.0
C286 C 0.76529 0.21446 0.70493 0.0
C287 C 0.764 0.15601 0.70057 0.0
C288 C 0.76154 0.18412 0.72145 0.0
C289 C 0.76422 0.24373 0.72834 0.0
C290 C 0.66679 0.30761 0.82679 0.0
C291 C 0.65299 0.28055 0.84385 0.0
C292 C 0.69478 0.30459 0.80582 0.0
C293 C 0.70977 0.27449 0.80162 0.0
C294 C 0.66808 0.25044 0.83954 0.0
C295 C 0.69597 0.24742 0.81842 0.0
C296 C 0.73879 0.27105 0.77825 0.0
C297 C 0.77488 0.32566 0.87533 0.0
C298 C 0.78415 0.35766 0.86854 0.0
C299 C 0.76775 0.30502 0.8463 0.0
C300 C 0.76966 0.31594 0.80984 0.0
C301 C 0.78687 0.36832 0.83197 0.0
C302 C 0.7799 0.34754 0.80287 0.0
C303 C 0.76434 0.29338 0.77912 0.0
H304 H 0.87718 0.22771 0.66708 0.0
H305 H 0.83487 0.22426 0.71361 0.0
H306 H 0.8408 0.3203 0.63245 0.0
H307 H 0.79885 0.31681 0.67936 0.0
H308 H 0.77774 0.18988 0.61664 0.0
H309 H 0.77219 0.23915 0.65293 0.0
H310 H 0.76132 0.13294 0.71413 0.0
H311 H 0.7573 0.18211 0.75075 0.0
H312 H 0.65561 0.33103 0.82894 0.0
H313 H 0.70435 0.32575 0.79227 0.0
H314 H 0.6585 0.22914 0.85277 0.0
H315 H 0.70696 0.22395 0.8155 0.0
H316 H 0.77311 0.31656 0.90317 0.0
H317 H 0.76124 0.28033 0.85238 0.0
H318 H 0.79357 0.39294 0.82583 0.0
H319 H 0.78213 0.35625 0.7749 0.0
N320 N 0.78715 0.29182 0.75264 0.0
N321 N 0.74024 0.2464 0.75366 0.0
C322 C 0.81333 0.76614 0.63912 0.0
C323 C 0.84434 0.76485 0.65431 0.0
C324 C 0.7863 0.75921 0.66075 0.0
C325 C 0.78966 0.75157 0.69826 0.0
C326 C 0.84762 0.75676 0.6917 0.0
C327 C 0.82063 0.75014 0.71334 0.0
C328 C 0.76135 0.74484 0.72209 0.0
C329 C 0.75116 0.84658 0.68065 0.0
C330 C 0.72177 0.85347 0.66314 0.0
C331 C 0.75517 0.81823 0.70077 0.0
C332 C 0.73039 0.79538 0.7026 0.0
C333 C 0.69654 0.83111 0.66646 0.0
C334 C 0.70086 0.8024 0.68583 0.0
C335 C 0.73396 0.76507 0.72374 0.0
C336 C 0.66627 0.71619 0.85868 0.0
C337 C 0.63418 0.71975 0.84775 0.0
C338 C 0.69108 0.71982 0.83318 0.0
C339 C 0.68425 0.726 0.79597 0.0
C340 C 0.62732 0.72646 0.8107 0.0
C341 C 0.65215 0.72951 0.78503 0.0
C342 C 0.7105 0.73053 0.76886 0.0
C343 C 0.71234 0.63186 0.81254 0.0
C344 C 0.73721 0.62759 0.83817 0.0
C345 C 0.71328 0.65743 0.78753 0.0
C346 C 0.73891 0.67947 0.78791 0.0
C347 C 0.76373 0.64868 0.83698 0.0
C348 C 0.76464 0.67425 0.81194 0.0
C349 C 0.73717 0.70972 0.76635 0.0
H350 H 0.81002 0.77164 0.61026 0.0
H351 H 0.76278 0.75969 0.64811 0.0
H352 H 0.87114 0.75562 0.70429 0.0
H353 H 0.82395 0.74421 0.7421 0.0
H354 H 0.7714 0.86282 0.67852 0.0
H355 H 0.77772 0.81423 0.71478 0.0
H356 H 0.67331 0.83576 0.65427 0.0
H357 H 0.68106 0.78553 0.68759 0.0
H358 H 0.67223 0.71184 0.88723 0.0
H359 H 0.71562 0.7184 0.84277 0.0
H360 H 0.60274 0.72954 0.80167 0.0
H361 H 0.64629 0.73471 0.75663 0.0
H362 H 0.69192 0.61572 0.81214 0.0
H363 H 0.69336 0.66073 0.76878 0.0
H364 H 0.78322 0.64631 0.85646 0.0
H365 H 0.7846 0.69097 0.81278 0.0
N366 N 0.76185 0.71791 0.74358 0.0
N367 N 0.70975 0.75703 0.74707 0.0
C368 C 0.9607 0.27493 0.53446 0.0
C369 C 0.05161 0.27801 0.45001 0.0
O370 O 0.97413 0.30031 0.52219 0.0
Zn371 Zn 0.00515 0.27858 0.49099 0.0
O372 O 0.97059 0.24726 0.52401 0.0
Zn373 Zn 0.00567 0.22641 0.48922 0.0
O374 O 0.0322 0.20274 0.52439 0.0
O375 O 0.03437 0.25555 0.53114 0.0
O376 O 0.04178 0.24963 0.45789 0.0
O377 O 0.03674 0.3024 0.46247 0.0
O378 O 0.97537 0.25788 0.44999 0.0
O379 O 0.97885 0.20494 0.45267 0.0
C380 C 0.04293 0.22733 0.54132 0.0
C381 C 0.96702 0.23013 0.43808 0.0
C382 C 0.77214 0.04558 0.56908 0.0
C383 C 0.77411 0.96166 0.47378 0.0
O384 O 0.79722 0.03233 0.55595 0.0
Zn385 Zn 0.77531 1.00292 0.52266 0.0
O386 O 0.74434 0.03683 0.55775 0.0
Zn387 Zn 0.72352 1.00437 0.51875 0.0
O388 O 0.69825 0.97537 0.54904 0.0
O389 O 0.75045 0.97179 0.55945 0.0
O390 O 0.74615 0.97191 0.48228 0.0
O391 O 0.79852 0.97261 0.49072 0.0
O392 O 0.75629 0.03658 0.48455 0.0
O393 O 0.7033 0.03385 0.48421 0.0
C394 C 0.7216 0.96318 0.5667 0.0
C395 C 0.72921 0.04638 0.47231 0.0
C396 C 0.95401 0.77529 0.55677 0.0
C397 C 0.04275 0.77889 0.46625 0.0
O398 O 0.96401 0.80061 0.54058 0.0
Zn399 Zn 0.99795 0.7802 0.51063 0.0
O400 O 0.96682 0.74816 0.54913 0.0
Zn401 Zn 1.00229 0.72789 0.51476 0.0
O402 O 0.03199 0.70974 0.55083 0.0
O403 O 0.03118 0.76292 0.55045 0.0
O404 O 0.03542 0.75094 0.47857 0.0
O405 O 0.02683 0.80342 0.47679 0.0
O406 O 0.97084 0.75404 0.47225 0.0
O407 O 0.9762 0.70169 0.48099 0.0
C408 C 0.04242 0.73648 0.56323 0.0
C409 C 0.96409 0.72514 0.46323 0.0
C410 C 0.27839 0.0471 0.53936 0.0
C411 C 0.27423 0.9606 0.44761 0.0
O412 O 0.30294 0.03209 0.52742 0.0
Zn413 Zn 0.27934 1.0043 0.49307 0.0
O414 O 0.25034 0.03933 0.52817 0.0
Zn415 Zn 0.2268 0.00695 0.4925 0.0
O416 O 0.20301 0.98005 0.52816 0.0
O417 O 0.25552 0.97293 0.53009 0.0
O418 O 0.24694 0.97146 0.45791 0.0
O419 O 0.2999 0.97348 0.45969 0.0
O420 O 0.25988 0.03924 0.45687 0.0
O421 O 0.20691 0.03727 0.45738 0.0
C422 C 0.22737 0.96554 0.5414 0.0
C423 C 0.23283 0.04994 0.44557 0.0
C424 C 0.46138 0.72924 0.06349 0.0
C425 C 0.54033 0.72603 0.96397 0.0
O426 O 0.47108 0.7571 0.05318 0.0
Zn427 Zn 0.50365 0.77787 0.0147 0.0
O428 O 0.47342 0.7042 0.04893 0.0
Zn429 Zn 0.50245 0.7261 0.01507 0.0
O430 O 0.53876 0.74672 0.04919 0.0
O431 O 0.53523 0.79958 0.04611 0.0
O432 O 0.52849 0.7018 0.98061 0.0
O433 O 0.53296 0.75457 0.97432 0.0
O434 O 0.47412 0.80173 0.98263 0.0
O435 O 0.46923 0.74899 0.97856 0.0
C436 C 0.54903 0.77458 0.05869 0.0
C437 C 0.46052 0.77722 0.96844 0.0
C438 C 0.23215 0.5473 0.03828 0.0
C439 C 0.23817 0.46334 0.9435 0.0
O440 O 0.26088 0.53934 0.02973 0.0
Zn441 Zn 0.28519 0.50855 0.99191 0.0
O442 O 0.20867 0.53465 0.02125 0.0
Zn443 Zn 0.23392 0.50643 0.98934 0.0
O444 O 0.25621 0.47418 0.02739 0.0
O445 O 0.30881 0.48152 0.02604 0.0
O446 O 0.21294 0.47582 0.9571 0.0
O447 O 0.26585 0.47368 0.95366 0.0
O448 O 0.30796 0.53923 0.9611 0.0
O449 O 0.25556 0.53981 0.95221 0.0
C450 C 0.28436 0.46695 0.03887 0.0
C451 C 0.28364 0.55046 0.94439 0.0
C452 C 0.54306 0.28332 0.94067 0.0
C453 C 0.46906 0.28202 0.04596 0.0
O454 O 0.53218 0.30803 0.95717 0.0
Zn455 Zn 0.50503 0.28535 0.99261 0.0
O456 O 0.53388 0.25523 0.9507 0.0
Zn457 Zn 0.50403 0.23295 0.99069 0.0
O458 O 0.47084 0.21224 0.96127 0.0
O459 O 0.46796 0.2653 0.96058 0.0
O460 O 0.47661 0.25427 0.03346 0.0
O461 O 0.47983 0.30733 0.03038 0.0
O462 O 0.54001 0.2615 0.02444 0.0
O463 O 0.53521 0.20867 0.01953 0.0
C464 C 0.45683 0.23789 0.9509 0.0
C465 C 0.54955 0.23316 0.03276 0.0
C466 C 0.77213 0.55029 0.05748 0.0
C467 C 0.78437 0.45694 0.97726 0.0
O468 O 0.7985 0.53709 0.04832 0.0
Zn469 Zn 0.78053 0.50334 0.01772 0.0
O470 O 0.74555 0.53847 0.04605 0.0
Zn471 Zn 0.7287 0.50041 0.01243 0.0
O472 O 0.70514 0.47233 0.04625 0.0
O473 O 0.75739 0.47254 0.0565 0.0
O474 O 0.75537 0.4654 0.98349 0.0
O475 O 0.80757 0.47287 0.99103 0.0
O476 O 0.76072 0.52974 0.97315 0.0
O477 O 0.70807 0.52405 0.97216 0.0
C478 C 0.72923 0.46225 0.06446 0.0
C479 C 0.73358 0.5359 0.95828 0.0
C480 C 0.11583 0.31085 0.38612 0.0
C481 C 0.13698 0.28451 0.38445 0.0
H482 H 0.07209 0.32976 0.40882 0.0
C483 C 0.1303 0.25692 0.40526 0.0
H484 H 0.12057 0.33244 0.37031 0.0
C485 C 0.10269 0.25526 0.42666 0.0
C486 C 0.08121 0.28129 0.42808 0.0
H487 H 0.14597 0.23614 0.40414 0.0
H488 H 0.09812 0.23337 0.44202 0.0
C489 C 0.08824 0.30937 0.40813 0.0
C490 C 0.75791 0.11649 0.41543 0.0
C491 C 0.73313 0.12001 0.38973 0.0
H492 H 0.77587 0.09057 0.4616 0.0
C493 C 0.70601 0.0999 0.39211 0.0
H494 H 0.77917 0.13149 0.41406 0.0
C495 C 0.70391 0.07644 0.41974 0.0
C496 C 0.72921 0.07247 0.44481 0.0
H497 H 0.68649 0.10235 0.37267 0.0
H498 H 0.68303 0.06092 0.42086 0.0
C499 C 0.75605 0.09291 0.44252 0.0
C500 C 0.92359 0.74272 0.37384 0.0
C501 C 0.89368 0.72764 0.37854 0.0
H502 H 0.96956 0.75301 0.39709 0.0
C503 C 0.88901 0.70747 0.40926 0.0
H504 H 0.92792 0.75864 0.35076 0.0
C505 C 0.91326 0.70387 0.43571 0.0
C506 C 0.94226 0.72073 0.4319 0.0
H507 H 0.86628 0.6953 0.4134 0.0
H508 H 0.90854 0.68979 0.46021 0.0
C509 C 0.94749 0.73945 0.40032 0.0
C510 C 0.24647 0.88432 0.40152 0.0
C511 C 0.27119 0.87813 0.37635 0.0
H512 H 0.22825 0.91505 0.44344 0.0
C513 C 0.29803 0.89879 0.37547 0.0
H514 H 0.22536 0.86908 0.40259 0.0
C515 C 0.29988 0.92529 0.39934 0.0
C516 C 0.27457 0.93183 0.42372 0.0
H517 H 0.31747 0.89445 0.35633 0.0
H518 H 0.32057 0.94106 0.39802 0.0
C519 C 0.24806 0.91087 0.42472 0.0
C520 C 0.1068 0.77103 0.62478 0.0
C521 C 0.11941 0.74363 0.6421 0.0
H522 H 0.07293 0.79022 0.58697 0.0
C523 C 0.10625 0.7133 0.63345 0.0
H524 H 0.11675 0.79468 0.62993 0.0
C525 C 0.08102 0.7106 0.60804 0.0
C526 C 0.06846 0.7382 0.59095 0.0
H527 H 0.11527 0.69169 0.64647 0.0
H528 H 0.0714 0.68701 0.6018 0.0
C529 C 0.08166 0.76838 0.5998 0.0
C530 C 0.3 0.09927 0.6212 0.0
C531 C 0.27629 0.12334 0.61844 0.0
H532 H 0.31998 0.05618 0.59755 0.0
C533 C 0.2558 0.12336 0.58788 0.0
H534 H 0.3163 0.09884 0.64437 0.0
C535 C 0.25795 0.0993 0.5615 0.0
C536 C 0.2807 0.07457 0.56482 0.0
H537 H 0.23705 0.14123 0.58505 0.0
H538 H 0.24103 0.09955 0.53888 0.0
C539 C 0.30236 0.07512 0.59434 0.0
C540 C 0.90357 0.30389 0.60855 0.0
C541 C 0.88654 0.27539 0.61635 0.0
H542 H 0.94056 0.32628 0.57623 0.0
C543 C 0.89294 0.24769 0.59567 0.0
H544 H 0.89916 0.3256 0.62417 0.0
C545 C 0.9165 0.24807 0.56859 0.0
C546 C 0.93421 0.2762 0.56135 0.0
H547 H 0.87969 0.22562 0.60036 0.0
H548 H 0.92095 0.22607 0.55348 0.0
C549 C 0.92723 0.3043 0.58118 0.0
C550 C 0.69875 0.88361 0.60885 0.0
C551 C 0.71792 0.88339 0.64081 0.0
H552 H 0.6842 0.9097 0.56067 0.0
C553 C 0.73485 0.91156 0.65009 0.0
H554 H 0.68563 0.86239 0.60039 0.0
C555 C 0.73465 0.93819 0.62671 0.0
C556 C 0.71667 0.93771 0.59418 0.0
H557 H 0.749 0.9129 0.67498 0.0
H558 H 0.74925 0.95893 0.63359 0.0
C559 C 0.69787 0.9107 0.58597 0.0
C560 C 0.89915 0.74818 0.63356 0.0
C561 C 0.87334 0.76973 0.63086 0.0
H562 H 0.94466 0.73336 0.61262 0.0
C563 C 0.87523 0.79495 0.60498 0.0
H564 H 0.89841 0.72833 0.65288 0.0
C565 C 0.90217 0.79808 0.58189 0.0
C566 C 0.92736 0.77568 0.58387 0.0
H567 H 0.85579 0.81208 0.60243 0.0
H568 H 0.90271 0.81719 0.56162 0.0
C569 C 0.92565 0.75101 0.61031 0.0
C570 C 0.24839 0.8908 0.59483 0.0
C571 C 0.2261 0.89106 0.62376 0.0
H572 H 0.26583 0.91384 0.54635 0.0
C573 C 0.20255 0.91537 0.6245 0.0
H574 H 0.26701 0.87265 0.59359 0.0
C575 C 0.20161 0.93908 0.59684 0.0
C576 C 0.22466 0.93912 0.5686 0.0
H577 H 0.18497 0.91603 0.64644 0.0
H578 H 0.18369 0.9579 0.59824 0.0
C579 C 0.24777 0.91454 0.5678 0.0
C580 C 0.09306 0.25086 0.62309 0.0
C581 C 0.11587 0.22606 0.62465 0.0
H582 H 0.05206 0.27031 0.59597 0.0
C583 C 0.11252 0.19963 0.60069 0.0
H584 H 0.09428 0.27108 0.6418 0.0
C585 C 0.08774 0.19891 0.57456 0.0
C586 C 0.06613 0.22471 0.57189 0.0
H587 H 0.12973 0.18014 0.60114 0.0
H588 H 0.08643 0.17899 0.55545 0.0
C589 C 0.06866 0.25027 0.59698 0.0
C590 C 0.79838 0.12245 0.61643 0.0
C591 C 0.77252 0.12776 0.64056 0.0
H592 H 0.81912 0.09156 0.57546 0.0
C593 C 0.74801 0.10465 0.64283 0.0
H594 H 0.81769 0.13986 0.61438 0.0
C595 C 0.74864 0.07742 0.62042 0.0
C596 C 0.77412 0.07232 0.59576 0.0
H597 H 0.72775 0.1082 0.66106 0.0
H598 H 0.72883 0.06054 0.62194 0.0
C599 C 0.79936 0.09474 0.59448 0.0
C600 C 0.90963 0.25638 0.36365 0.0
C601 C 0.88846 0.23011 0.36147 0.0
H602 H 0.95113 0.27671 0.38911 0.0
C603 C 0.89529 0.20232 0.38231 0.0
H604 H 0.90571 0.27783 0.34733 0.0
C605 C 0.92188 0.20144 0.40589 0.0
C606 C 0.94196 0.22843 0.40933 0.0
H607 H 0.87941 0.18168 0.38151 0.0
H608 H 0.92582 0.18025 0.42265 0.0
C609 C 0.93589 0.25562 0.38739 0.0
C610 C 0.80379 0.89231 0.41439 0.0
C611 C 0.7772 0.88749 0.39105 0.0
H612 H 0.82395 0.9197 0.45897 0.0
C613 C 0.75103 0.9086 0.39385 0.0
H614 H 0.82436 0.87644 0.41301 0.0
C615 C 0.75073 0.93293 0.42014 0.0
C616 C 0.77672 0.93719 0.44429 0.0
H617 H 0.73056 0.90633 0.3757 0.0
H618 H 0.72982 0.94835 0.42165 0.0
C619 C 0.80359 0.91702 0.44074 0.0
C620 C 0.11906 0.75714 0.41653 0.0
C621 C 0.11815 0.77702 0.38526 0.0
H622 H 0.0962 0.74252 0.46639 0.0
C623 C 0.09366 0.80037 0.38283 0.0
H624 H 0.13803 0.73964 0.42016 0.0
C625 C 0.06983 0.80255 0.41016 0.0
C626 C 0.06995 0.78119 0.44012 0.0
H627 H 0.09213 0.8161 0.35915 0.0
H628 H 0.05053 0.81975 0.40692 0.0
C629 C 0.0952 0.75901 0.44332 0.0
C630 C 0.26043 0.12824 0.40368 0.0
C631 C 0.23979 0.13219 0.37345 0.0
H632 H 0.2742 0.09944 0.44962 0.0
C633 C 0.21477 0.10959 0.3686 0.0
H634 H 0.27921 0.14556 0.40941 0.0
C635 C 0.21133 0.08326 0.3927 0.0
C636 C 0.23314 0.07882 0.42165 0.0
H637 H 0.1984 0.11166 0.34564 0.0
H638 H 0.19246 0.06582 0.38788 0.0
C639 C 0.25737 0.10185 0.42708 0.0
C640 C 0.58663 0.74503 0.87751 0.0
C641 C 0.60826 0.71927 0.8756 0.0
H642 H 0.54834 0.76728 0.90713 0.0
C643 C 0.60618 0.69442 0.90181 0.0
H644 H 0.5879 0.76462 0.85787 0.0
C645 C 0.58315 0.6957 0.92988 0.0
C646 C 0.56245 0.72224 0.93257 0.0
H647 H 0.62262 0.67426 0.9008 0.0
H648 H 0.58236 0.67664 0.9502 0.0
C649 C 0.56416 0.74663 0.90585 0.0
C650 C 0.31157 0.62682 0.89692 0.0
C651 C 0.28757 0.63076 0.87016 0.0
H652 H 0.32972 0.5976 0.94101 0.0
C653 C 0.26374 0.60706 0.86656 0.0
H654 H 0.33024 0.64476 0.90014 0.0
C655 C 0.26319 0.58052 0.89005 0.0
C656 C 0.28676 0.57677 0.91728 0.0
H657 H 0.2448 0.60963 0.84639 0.0
H658 H 0.24393 0.56315 0.88727 0.0
C659 C 0.31139 0.5998 0.92005 0.0
C660 C 0.38901 0.21051 0.88872 0.0
C661 C 0.37035 0.23873 0.8867 0.0
H662 H 0.43122 0.18793 0.91073 0.0
C663 C 0.37985 0.26578 0.90697 0.0
H664 H 0.38245 0.18932 0.87314 0.0
C665 C 0.40779 0.26509 0.92782 0.0
C666 C 0.42687 0.23723 0.92929 0.0
H667 H 0.36568 0.28761 0.90673 0.0
H668 H 0.41437 0.28657 0.9429 0.0
C669 C 0.417 0.20972 0.91002 0.0
C670 C 0.76586 0.38009 0.92839 0.0
C671 C 0.78816 0.3805 0.89947 0.0
H672 H 0.7479 0.40379 0.97608 0.0
C673 C 0.81235 0.40424 0.89921 0.0
H674 H 0.74674 0.36242 0.9293 0.0
C675 C 0.81302 0.42816 0.92636 0.0
C676 C 0.78929 0.4287 0.95371 0.0
H677 H 0.83009 0.40488 0.87745 0.0
H678 H 0.83074 0.44721 0.92465 0.0
C679 C 0.76642 0.40391 0.95513 0.0
C680 C 0.61933 0.25744 0.09186 0.0
C681 C 0.62395 0.23008 0.11371 0.0
H682 H 0.59277 0.27943 0.04879 0.0
C683 C 0.60577 0.20219 0.10663 0.0
H684 H 0.6336 0.27894 0.09603 0.0
C685 C 0.58219 0.20233 0.07915 0.0
C686 C 0.57667 0.23037 0.05854 0.0
H687 H 0.60905 0.18071 0.12309 0.0
H688 H 0.56759 0.18106 0.075 0.0
C689 C 0.59602 0.25758 0.06464 0.0
C690 C 0.74131 0.62544 0.10397 0.0
C691 C 0.76833 0.63607 0.12354 0.0
H692 H 0.72138 0.59021 0.06803 0.0
C693 C 0.79705 0.61832 0.12086 0.0
H694 H 0.719 0.63878 0.10479 0.0
C695 C 0.79858 0.59053 0.09923 0.0
C696 C 0.77135 0.57977 0.08017 0.0
H697 H 0.81822 0.62555 0.136 0.0
H698 H 0.82092 0.57727 0.09786 0.0
C699 C 0.74275 0.5976 0.08273 0.0
C700 C 0.38549 0.70163 0.11209 0.0
C701 C 0.37798 0.72904 0.13314 0.0
H702 H 0.41812 0.67993 0.07365 0.0
C703 C 0.4 0.75469 0.13388 0.0
H704 H 0.36906 0.68144 0.1109 0.0
C705 C 0.42775 0.7539 0.11248 0.0
C706 C 0.43453 0.72727 0.09007 0.0
H707 H 0.39558 0.77575 0.15064 0.0
H708 H 0.44361 0.77459 0.1129 0.0
C709 C 0.41359 0.70072 0.09081 0.0
C710 C 0.26563 0.39283 0.094 0.0
C711 C 0.28566 0.39641 0.12484 0.0
H712 H 0.24967 0.41244 0.04289 0.0
C713 C 0.30782 0.42207 0.12534 0.0
H714 H 0.24911 0.37279 0.09183 0.0
C715 C 0.30882 0.44436 0.09637 0.0
C716 C 0.28735 0.44155 0.06686 0.0
H717 H 0.32357 0.42565 0.14863 0.0
H718 H 0.32523 0.46455 0.09791 0.0
C719 C 0.26618 0.41534 0.06567 0.0
C720 C 0.42297 0.25563 0.12981 0.0
C721 C 0.39808 0.27827 0.13104 0.0
H722 H 0.46507 0.23938 0.10187 0.0
C723 C 0.39856 0.30436 0.10629 0.0
H724 H 0.42315 0.23529 0.14847 0.0
C725 C 0.42294 0.30703 0.07987 0.0
C726 C 0.44679 0.28332 0.07746 0.0
H727 H 0.37976 0.32233 0.10698 0.0
H728 H 0.42219 0.32663 0.06023 0.0
C729 C 0.4469 0.25799 0.10312 0.0
C730 C 0.75071 0.407 0.14308 0.0
C731 C 0.72887 0.38157 0.13839 0.0
H732 H 0.76765 0.45252 0.12353 0.0
C733 C 0.70482 0.38448 0.11141 0.0
H734 H 0.7696 0.40543 0.16344 0.0
C735 C 0.70336 0.41185 0.08882 0.0
C736 C 0.72629 0.43646 0.09239 0.0
H737 H 0.68749 0.36536 0.10741 0.0
H738 H 0.68536 0.41295 0.06738 0.0
C739 C 0.74959 0.43397 0.12019 0.0
C740 C 0.62669 0.75235 0.10651 0.0
C741 C 0.63214 0.7789 0.12948 0.0
H742 H 0.59616 0.73013 0.0667 0.0
C743 C 0.6101 0.80455 0.1289 0.0
H744 H 0.64312 0.73215 0.10656 0.0
C745 C 0.5833 0.8037 0.10543 0.0
C746 C 0.57765 0.77679 0.08291 0.0
H747 H 0.61379 0.82535 0.14631 0.0
H748 H 0.56675 0.82377 0.1054 0.0
C749 C 0.59967 0.75116 0.08383 0.0
C750 C 0.24708 0.59674 0.12366 0.0
C751 C 0.2232 0.62042 0.12119 0.0
H752 H 0.26861 0.55526 0.09913 0.0
C753 C 0.20079 0.6188 0.09233 0.0
H754 H 0.26477 0.59757 0.14545 0.0
C755 C 0.20255 0.59408 0.06614 0.0
C756 C 0.2273 0.5712 0.06787 0.0
H757 H 0.18216 0.63683 0.0899 0.0
H758 H 0.18541 0.59364 0.04377 0.0
C759 C 0.24932 0.57263 0.09707 0.0
C760 C 0.39764 0.75362 0.89833 0.0
C761 C 0.38748 0.7834 0.8843 0.0
H762 H 0.4281 0.72845 0.93545 0.0
C763 C 0.40105 0.81172 0.89887 0.0
H764 H 0.38722 0.73135 0.88848 0.0
C765 C 0.42473 0.81011 0.92637 0.0
C766 C 0.43508 0.78014 0.93994 0.0
H767 H 0.39374 0.83507 0.88864 0.0
H768 H 0.43501 0.83223 0.9368 0.0
C769 C 0.42104 0.75201 0.92562 0.0
C770 C 0.20961 0.38687 0.8965 0.0
C771 C 0.23504 0.38062 0.87213 0.0
H772 H 0.19021 0.41847 0.93754 0.0
C773 C 0.26077 0.40244 0.87035 0.0
H774 H 0.18943 0.37047 0.89826 0.0
C775 C 0.2615 0.42952 0.89317 0.0
C776 C 0.23614 0.43581 0.91766 0.0
H777 H 0.28072 0.39812 0.8519 0.0
H778 H 0.28202 0.44552 0.89173 0.0
C779 C 0.20996 0.41442 0.91873 0.0
C780 C 0.61756 0.31012 0.88905 0.0
C781 C 0.62294 0.28347 0.86591 0.0
H782 H 0.58766 0.33133 0.93064 0.0
C783 C 0.59976 0.2589 0.86486 0.0
H784 H 0.63495 0.32945 0.8907 0.0
C785 C 0.57297 0.25991 0.88784 0.0
C786 C 0.56838 0.2857 0.91224 0.0
H787 H 0.60255 0.23848 0.84666 0.0
H788 H 0.55622 0.23996 0.88719 0.0
C789 C 0.59043 0.31128 0.9119 0.0
C790 C 0.70605 0.59528 0.88513 0.0
C791 C 0.73518 0.60203 0.86687 0.0
H792 H 0.68248 0.56894 0.92835 0.0
C793 C 0.76285 0.58516 0.87744 0.0
H794 H 0.68431 0.60805 0.87792 0.0
C795 C 0.76182 0.56317 0.9064 0.0
C796 C 0.73304 0.55718 0.92553 0.0
H797 H 0.78551 0.58917 0.86354 0.0
H798 H 0.78385 0.55109 0.91409 0.0
C799 C 0.70497 0.57297 0.91412 0.0
loop_
_geom_bond_atom_site_label_1
_geom_bond_atom_site_label_2
_geom_bond_distance
_geom_bond_site_symmetry_2
_ccdc_geom_bond_type
C0 C1 1.384 . S
C0 C2 1.384 . S
C0 H28 0.931 . S
C1 C0 1.384 . S
C1 C4 1.382 . S
C2 C0 1.384 . S
C2 C3 1.381 . S
C2 H29 0.930 . S
C3 C2 1.381 . S
C3 C5 1.381 . S
C3 C6 1.487 . S
C4 C1 1.382 . S
C4 C5 1.387 . S
C4 H30 0.930 . S
C5 C3 1.381 . S
C5 C4 1.387 . S
C5 H31 0.931 . S
C6 C3 1.487 . S
C6 C13 1.399 . S
C6 N44 1.343 . S
C7 C8 1.384 . S
C7 C9 1.384 . S
C7 H32 0.931 . S
C8 C7 1.384 . S
C8 C11 1.382 . S
C9 C7 1.384 . S
C9 C10 1.381 . S
C9 H33 0.930 . S
C10 C9 1.381 . S
C10 C12 1.381 . S
C10 C13 1.487 . S
C11 C8 1.382 . S
C11 C12 1.387 . S
C11 H34 0.930 . S
C12 C10 1.381 . S
C12 C11 1.387 . S
C12 H35 0.931 . S
C13 C6 1.399 . S
C13 C10 1.487 . S
C13 N45 1.343 . S
C14 C15 1.384 . S
C14 C16 1.384 . S
C14 H36 0.931 . S
C15 C14 1.384 . S
C15 C18 1.382 . S
C16 C14 1.384 . S
C16 C17 1.381 . S
C16 H37 0.930 . S
C17 C16 1.381 . S
C17 C19 1.381 . S
C17 C20 1.487 . S
C18 C15 1.382 . S
C18 C19 1.387 . S
C18 H38 0.930 . S
C19 C17 1.381 . S
C19 C18 1.387 . S
C19 H39 0.931 . S
C20 C17 1.487 . S
C20 C27 1.399 . S
C20 N45 1.343 . S
C21 C22 1.384 . S
C21 C23 1.384 . S
C21 H40 0.931 . S
C22 C21 1.384 . S
C22 C25 1.382 . S
C23 C21 1.384 . S
C23 C24 1.381 . S
C23 H41 0.930 . S
C24 C23 1.381 . S
C24 C26 1.381 . S
C24 C27 1.487 . S
C25 C22 1.382 . S
C25 C26 1.387 . S
C25 H42 0.930 . S
C26 C24 1.381 . S
C26 C25 1.387 . S
C26 H43 0.931 . S
C27 C20 1.399 . S
C27 C24 1.487 . S
C27 N44 1.343 . S
H28 C0 0.931 . S
H29 C2 0.930 . S
H30 C4 0.930 . S
H31 C5 0.931 . S
H32 C7 0.931 . S
H33 C9 0.930 . S
H34 C11 0.930 . S
H35 C12 0.931 . S
H36 C14 0.931 . S
H37 C16 0.930 . S
H38 C18 0.930 . S
H39 C19 0.931 . S
H40 C21 0.931 . S
H41 C23 0.930 . S
H42 C25 0.930 . S
H43 C26 0.931 . S
N44 C6 1.343 . S
N44 C27 1.343 . S
N45 C13 1.343 . S
N45 C20 1.343 . S
C46 C47 1.384 . S
C46 C48 1.384 . S
C46 H74 0.931 . S
C47 C46 1.384 . S
C47 C50 1.382 . S
C48 C46 1.384 . S
C48 C49 1.381 . S
C48 H75 0.930 . S
C49 C48 1.381 . S
C49 C51 1.381 . S
C49 C52 1.487 . S
C50 C47 1.382 . S
C50 C51 1.387 . S
C50 H76 0.930 . S
C51 C49 1.381 . S
C51 C50 1.387 . S
C51 H77 0.931 . S
C52 C49 1.487 . S
C52 C59 1.399 . S
C52 N90 1.343 . S
C53 C54 1.384 . S
C53 C55 1.384 . S
C53 H78 0.931 . S
C54 C53 1.384 . S
C54 C57 1.382 . S
C55 C53 1.384 . S
C55 C56 1.381 . S
C55 H79 0.930 . S
C56 C55 1.381 . S
C56 C58 1.381 . S
C56 C59 1.487 . S
C57 C54 1.382 . S
C57 C58 1.387 . S
C57 H80 0.930 . S
C58 C56 1.381 . S
C58 C57 1.387 . S
C58 H81 0.931 . S
C59 C52 1.399 . S
C59 C56 1.487 . S
C59 N91 1.343 . S
C60 C61 1.384 . S
C60 C62 1.384 . S
C60 H82 0.931 . S
C61 C60 1.384 . S
C61 C64 1.382 . S
C62 C60 1.384 . S
C62 C63 1.381 . S
C62 H83 0.930 . S
C63 C62 1.381 . S
C63 C65 1.381 . S
C63 C66 1.487 . S
C64 C61 1.382 . S
C64 C65 1.387 . S
C64 H84 0.930 . S
C65 C63 1.381 . S
C65 C64 1.387 . S
C65 H85 0.931 . S
C66 C63 1.487 . S
C66 C73 1.399 . S
C66 N91 1.343 . S
C67 C68 1.384 . S
C67 C69 1.384 . S
C67 H86 0.931 . S
C68 C67 1.384 . S
C68 C71 1.382 . S
C69 C67 1.384 . S
C69 C70 1.381 . S
C69 H87 0.930 . S
C70 C69 1.381 . S
C70 C72 1.381 . S
C70 C73 1.487 . S
C71 C68 1.382 . S
C71 C72 1.387 . S
C71 H88 0.930 . S
C72 C70 1.381 . S
C72 C71 1.387 . S
C72 H89 0.931 . S
C73 C66 1.399 . S
C73 C70 1.487 . S
C73 N90 1.343 . S
H74 C46 0.931 . S
H75 C48 0.930 . S
H76 C50 0.930 . S
H77 C51 0.931 . S
H78 C53 0.931 . S
H79 C55 0.930 . S
H80 C57 0.930 . S
H81 C58 0.931 . S
H82 C60 0.931 . S
H83 C62 0.930 . S
H84 C64 0.930 . S
H85 C65 0.931 . S
H86 C67 0.931 . S
H87 C69 0.930 . S
H88 C71 0.930 . S
H89 C72 0.931 . S
N90 C52 1.343 . S
N90 C73 1.343 . S
N91 C59 1.343 . S
N91 C66 1.343 . S
C92 C93 1.384 . S
C92 C94 1.384 . S
C92 H120 0.931 . S
C93 C92 1.384 . S
C93 C96 1.382 . S
C94 C92 1.384 . S
C94 C95 1.381 . S
C94 H121 0.930 . S
C95 C94 1.381 . S
C95 C97 1.381 . S
C95 C98 1.487 . S
C96 C93 1.382 . S
C96 C97 1.387 . S
C96 H122 0.930 . S
C97 C95 1.381 . S
C97 C96 1.387 . S
C97 H123 0.931 . S
C98 C95 1.487 . S
C98 C105 1.399 . S
C98 N136 1.343 . S
C99 C100 1.384 . S
C99 C101 1.384 . S
C99 H124 0.931 . S
C100 C99 1.384 . S
C100 C103 1.382 . S
C101 C99 1.384 . S
C101 C102 1.381 . S
C101 H125 0.930 . S
C102 C101 1.381 . S
C102 C104 1.381 . S
C102 C105 1.487 . S
C103 C100 1.382 . S
C103 C104 1.387 . S
C103 H126 0.930 . S
C104 C102 1.381 . S
C104 C103 1.387 . S
C104 H127 0.931 . S
C105 C98 1.399 . S
C105 C102 1.487 . S
C105 N137 1.343 . S
C106 C107 1.384 . S
C106 C108 1.384 . S
C106 H128 0.931 . S
C107 C106 1.384 . S
C107 C110 1.382 . S
C108 C106 1.384 . S
C108 C109 1.381 . S
C108 H129 0.930 . S
C109 C108 1.381 . S
C109 C111 1.381 . S
C109 C112 1.487 . S
C110 C107 1.382 . S
C110 C111 1.387 . S
C110 H130 0.930 . S
C111 C109 1.381 . S
C111 C110 1.387 . S
C111 H131 0.931 . S
C112 C109 1.487 . S
C112 C119 1.399 . S
C112 N137 1.343 . S
C113 C114 1.384 . S
C113 C115 1.384 . S
C113 H132 0.931 . S
C114 C113 1.384 . S
C114 C117 1.382 . S
C115 C113 1.384 . S
C115 C116 1.381 . S
C115 H133 0.930 . S
C116 C115 1.381 . S
C116 C118 1.381 . S
C116 C119 1.487 . S
C117 C114 1.382 . S
C117 C118 1.387 . S
C117 H134 0.930 . S
C118 C116 1.381 . S
C118 C117 1.387 . S
C118 H135 0.931 . S
C119 C112 1.399 . S
C119 C116 1.487 . S
C119 N136 1.343 . S
H120 C92 0.931 . S
H121 C94 0.930 . S
H122 C96 0.930 . S
H123 C97 0.931 . S
H124 C99 0.931 . S
H125 C101 0.930 . S
H126 C103 0.930 . S
H127 C104 0.931 . S
H128 C106 0.931 . S
H129 C108 0.930 . S
H130 C110 0.930 . S
H131 C111 0.931 . S
H132 C113 0.931 . S
H133 C115 0.930 . S
H134 C117 0.930 . S
H135 C118 0.931 . S
N136 C98 1.343 . S
N136 C119 1.343 . S
N137 C105 1.343 . S
N137 C112 1.343 . S
C138 C139 1.384 . S
C138 C140 1.384 . S
C138 H166 0.931 . S
C139 C138 1.384 . S
C139 C142 1.382 . S
C140 C138 1.384 . S
C140 C141 1.381 . S
C140 H167 0.930 . S
C141 C140 1.381 . S
C141 C143 1.381 . S
C141 C144 1.487 . S
C142 C139 1.382 . S
C142 C143 1.387 . S
C142 H168 0.930 . S
C143 C141 1.381 . S
C143 C142 1.387 . S
C143 H169 0.931 . S
C144 C141 1.487 . S
C144 C151 1.399 . S
C144 N182 1.343 . S
C145 C146 1.384 . S
C145 C147 1.384 . S
C145 H170 0.931 . S
C146 C145 1.384 . S
C146 C149 1.382 . S
C147 C145 1.384 . S
C147 C148 1.381 . S
C147 H171 0.930 . S
C148 C147 1.381 . S
C148 C150 1.381 . S
C148 C151 1.487 . S
C149 C146 1.382 . S
C149 C150 1.387 . S
C149 H172 0.930 . S
C150 C148 1.381 . S
C150 C149 1.387 . S
C150 H173 0.931 . S
C151 C144 1.399 . S
C151 C148 1.487 . S
C151 N183 1.343 . S
C152 C153 1.384 . S
C152 C154 1.384 . S
C152 H174 0.931 . S
C153 C152 1.384 . S
C153 C156 1.382 . S
C154 C152 1.384 . S
C154 C155 1.381 . S
C154 H175 0.930 . S
C155 C154 1.381 . S
C155 C157 1.381 . S
C155 C158 1.487 . S
C156 C153 1.382 . S
C156 C157 1.387 . S
C156 H176 0.930 . S
C157 C155 1.381 . S
C157 C156 1.387 . S
C157 H177 0.931 . S
C158 C155 1.487 . S
C158 C165 1.399 . S
C158 N183 1.343 . S
C159 C160 1.384 . S
C159 C161 1.384 . S
C159 H178 0.931 . S
C160 C159 1.384 . S
C160 C163 1.382 . S
C161 C159 1.384 . S
C161 C162 1.381 . S
C161 H179 0.930 . S
C162 C161 1.381 . S
C162 C164 1.381 . S
C162 C165 1.487 . S
C163 C160 1.382 . S
C163 C164 1.387 . S
C163 H180 0.930 . S
C164 C162 1.381 . S
C164 C163 1.387 . S
C164 H181 0.931 . S
C165 C158 1.399 . S
C165 C162 1.487 . S
C165 N182 1.343 . S
H166 C138 0.931 . S
H167 C140 0.930 . S
H168 C142 0.930 . S
H169 C143 0.931 . S
H170 C145 0.931 . S
H171 C147 0.930 . S
H172 C149 0.930 . S
H173 C150 0.931 . S
H174 C152 0.931 . S
H175 C154 0.930 . S
H176 C156 0.930 . S
H177 C157 0.931 . S
H178 C159 0.931 . S
H179 C161 0.930 . S
H180 C163 0.930 . S
H181 C164 0.931 . S
N182 C144 1.343 . S
N182 C165 1.343 . S
N183 C151 1.343 . S
N183 C158 1.343 . S
C184 C185 1.384 . S
C184 C186 1.384 . S
C184 H212 0.931 . S
C185 C184 1.384 . S
C185 C188 1.382 . S
C186 C184 1.384 . S
C186 C187 1.381 . S
C186 H213 0.930 . S
C187 C186 1.381 . S
C187 C189 1.381 . S
C187 C190 1.487 . S
C188 C185 1.382 . S
C188 C189 1.387 . S
C188 H214 0.930 . S
C189 C187 1.381 . S
C189 C188 1.387 . S
C189 H215 0.931 . S
C190 C187 1.487 . S
C190 C197 1.399 . S
C190 N228 1.343 . S
C191 C192 1.384 . S
C191 C193 1.384 . S
C191 H216 0.931 . S
C192 C191 1.384 . S
C192 C195 1.382 . S
C193 C191 1.384 . S
C193 C194 1.381 . S
C193 H217 0.930 . S
C194 C193 1.381 . S
C194 C196 1.381 . S
C194 C197 1.487 . S
C195 C192 1.382 . S
C195 C196 1.387 . S
C195 H218 0.930 . S
C196 C194 1.381 . S
C196 C195 1.387 . S
C196 H219 0.931 . S
C197 C190 1.399 . S
C197 C194 1.487 . S
C197 N229 1.343 . S
C198 C199 1.384 . S
C198 C200 1.384 . S
C198 H220 0.931 . S
C199 C198 1.384 . S
C199 C202 1.382 . S
C200 C198 1.384 . S
C200 C201 1.381 . S
C200 H221 0.930 . S
C201 C200 1.381 . S
C201 C203 1.381 . S
C201 C204 1.487 . S
C202 C199 1.382 . S
C202 C203 1.387 . S
C202 H222 0.930 . S
C203 C201 1.381 . S
C203 C202 1.387 . S
C203 H223 0.931 . S
C204 C201 1.487 . S
C204 C211 1.399 . S
C204 N229 1.343 . S
C205 C206 1.384 . S
C205 C207 1.384 . S
C205 H224 0.931 . S
C206 C205 1.384 . S
C206 C209 1.382 . S
C207 C205 1.384 . S
C207 C208 1.381 . S
C207 H225 0.930 . S
C208 C207 1.381 . S
C208 C210 1.381 . S
C208 C211 1.487 . S
C209 C206 1.382 . S
C209 C210 1.387 . S
C209 H226 0.930 . S
C210 C208 1.381 . S
C210 C209 1.387 . S
C210 H227 0.931 . S
C211 C204 1.399 . S
C211 C208 1.487 . S
C211 N228 1.343 . S
H212 C184 0.931 . S
H213 C186 0.930 . S
H214 C188 0.930 . S
H215 C189 0.931 . S
H216 C191 0.931 . S
H217 C193 0.930 . S
H218 C195 0.930 . S
H219 C196 0.931 . S
H220 C198 0.931 . S
H221 C200 0.930 . S
H222 C202 0.930 . S
H223 C203 0.931 . S
H224 C205 0.931 . S
H225 C207 0.930 . S
H226 C209 0.930 . S
H227 C210 0.931 . S
N228 C190 1.343 . S
N228 C211 1.343 . S
N229 C197 1.343 . S
N229 C204 1.343 . S
C230 C231 1.384 . S
C230 C232 1.384 . S
C230 H258 0.931 . S
C231 C230 1.384 . S
C231 C234 1.382 . S
C232 C230 1.384 . S
C232 C233 1.381 . S
C232 H259 0.930 . S
C233 C232 1.381 . S
C233 C235 1.381 . S
C233 C236 1.487 . S
C234 C231 1.382 . S
C234 C235 1.387 . S
C234 H260 0.930 . S
C235 C233 1.381 . S
C235 C234 1.387 . S
C235 H261 0.931 . S
C236 C233 1.487 . S
C236 C243 1.399 . S
C236 N274 1.343 . S
C237 C238 1.384 . S
C237 C239 1.384 . S
C237 H262 0.931 . S
C238 C237 1.384 . S
C238 C241 1.382 . S
C239 C237 1.384 . S
C239 C240 1.381 . S
C239 H263 0.930 . S
C240 C239 1.381 . S
C240 C242 1.381 . S
C240 C243 1.487 . S
C241 C238 1.382 . S
C241 C242 1.387 . S
C241 H264 0.930 . S
C242 C240 1.381 . S
C242 C241 1.387 . S
C242 H265 0.931 . S
C243 C236 1.399 . S
C243 C240 1.487 . S
C243 N275 1.343 . S
C244 C245 1.384 . S
C244 C246 1.384 . S
C244 H266 0.931 . S
C245 C244 1.384 . S
C245 C248 1.382 . S
C246 C244 1.384 . S
C246 C247 1.381 . S
C246 H267 0.930 . S
C247 C246 1.381 . S
C247 C249 1.381 . S
C247 C250 1.487 . S
C248 C245 1.382 . S
C248 C249 1.387 . S
C248 H268 0.930 . S
C249 C247 1.381 . S
C249 C248 1.387 . S
C249 H269 0.931 . S
C250 C247 1.487 . S
C250 C257 1.399 . S
C250 N275 1.343 . S
C251 C252 1.384 . S
C251 C253 1.384 . S
C251 H270 0.931 . S
C252 C251 1.384 . S
C252 C255 1.382 . S
C253 C251 1.384 . S
C253 C254 1.381 . S
C253 H271 0.930 . S
C254 C253 1.381 . S
C254 C256 1.381 . S
C254 C257 1.487 . S
C255 C252 1.382 . S
C255 C256 1.387 . S
C255 H272 0.930 . S
C256 C254 1.381 . S
C256 C255 1.387 . S
C256 H273 0.931 . S
C257 C250 1.399 . S
C257 C254 1.487 . S
C257 N274 1.343 . S
H258 C230 0.931 . S
H259 C232 0.930 . S
H260 C234 0.930 . S
H261 C235 0.931 . S
H262 C237 0.931 . S
H263 C239 0.930 . S
H264 C241 0.930 . S
H265 C242 0.931 . S
H266 C244 0.931 . S
H267 C246 0.930 . S
H268 C248 0.930 . S
H269 C249 0.931 . S
H270 C251 0.931 . S
H271 C253 0.930 . S
H272 C255 0.930 . S
H273 C256 0.931 . S
N274 C236 1.343 . S
N274 C257 1.343 . S
N275 C243 1.343 . S
N275 C250 1.343 . S
C276 C277 1.384 . S
C276 C278 1.384 . S
C276 H304 0.931 . S
C277 C276 1.384 . S
C277 C280 1.382 . S
C278 C276 1.384 . S
C278 C279 1.381 . S
C278 H305 0.930 . S
C279 C278 1.381 . S
C279 C281 1.381 . S
C279 C282 1.487 . S
C280 C277 1.382 . S
C280 C281 1.387 . S
C280 H306 0.930 . S
C281 C279 1.381 . S
C281 C280 1.387 . S
C281 H307 0.931 . S
C282 C279 1.487 . S
C282 C289 1.399 . S
C282 N320 1.343 . S
C283 C284 1.384 . S
C283 C285 1.384 . S
C283 H308 0.931 . S
C284 C283 1.384 . S
C284 C287 1.382 . S
C285 C283 1.384 . S
C285 C286 1.381 . S
C285 H309 0.930 . S
C286 C285 1.381 . S
C286 C288 1.381 . S
C286 C289 1.487 . S
C287 C284 1.382 . S
C287 C288 1.387 . S
C287 H310 0.930 . S
C288 C286 1.381 . S
C288 C287 1.387 . S
C288 H311 0.931 . S
C289 C282 1.399 . S
C289 C286 1.487 . S
C289 N321 1.343 . S
C290 C291 1.384 . S
C290 C292 1.384 . S
C290 H312 0.931 . S
C291 C290 1.384 . S
C291 C294 1.382 . S
C292 C290 1.384 . S
C292 C293 1.381 . S
C292 H313 0.930 . S
C293 C292 1.381 . S
C293 C295 1.381 . S
C293 C296 1.487 . S
C294 C291 1.382 . S
C294 C295 1.387 . S
C294 H314 0.930 . S
C295 C293 1.381 . S
C295 C294 1.387 . S
C295 H315 0.931 . S
C296 C293 1.487 . S
C296 C303 1.399 . S
C296 N321 1.343 . S
C297 C298 1.384 . S
C297 C299 1.384 . S
C297 H316 0.931 . S
C298 C297 1.384 . S
C298 C301 1.382 . S
C299 C297 1.384 . S
C299 C300 1.381 . S
C299 H317 0.930 . S
C300 C299 1.381 . S
C300 C302 1.381 . S
C300 C303 1.487 . S
C301 C298 1.382 . S
C301 C302 1.387 . S
C301 H318 0.930 . S
C302 C300 1.381 . S
C302 C301 1.387 . S
C302 H319 0.931 . S
C303 C296 1.399 . S
C303 C300 1.487 . S
C303 N320 1.343 . S
H304 C276 0.931 . S
H305 C278 0.930 . S
H306 C280 0.930 . S
H307 C281 0.931 . S
H308 C283 0.931 . S
H309 C285 0.930 . S
H310 C287 0.930 . S
H311 C288 0.931 . S
H312 C290 0.931 . S
H313 C292 0.930 . S
H314 C294 0.930 . S
H315 C295 0.931 . S
H316 C297 0.931 . S
H317 C299 0.930 . S
H318 C301 0.930 . S
H319 C302 0.931 . S
N320 C282 1.343 . S
N320 C303 1.343 . S
N321 C289 1.343 . S
N321 C296 1.343 . S
C322 C323 1.384 . S
C322 C324 1.384 . S
C322 H350 0.931 . S
C323 C322 1.384 . S
C323 C326 1.382 . S
C324 C322 1.384 . S
C324 C325 1.381 . S
C324 H351 0.930 . S
C325 C324 1.381 . S
C325 C327 1.381 . S
C325 C328 1.487 . S
C326 C323 1.382 . S
C326 C327 1.387 . S
C326 H352 0.930 . S
C327 C325 1.381 . S
C327 C326 1.387 . S
C327 H353 0.931 . S
C328 C325 1.487 . S
C328 C335 1.399 . S
C328 N366 1.343 . S
C329 C330 1.384 . S
C329 C331 1.384 . S
C329 H354 0.931 . S
C330 C329 1.384 . S
C330 C333 1.382 . S
C331 C329 1.384 . S
C331 C332 1.381 . S
C331 H355 0.930 . S
C332 C331 1.381 . S
C332 C334 1.381 . S
C332 C335 1.487 . S
C333 C330 1.382 . S
C333 C334 1.387 . S
C333 H356 0.930 . S
C334 C332 1.381 . S
C334 C333 1.387 . S
C334 H357 0.931 . S
C335 C328 1.399 . S
C335 C332 1.487 . S
C335 N367 1.343 . S
C336 C337 1.384 . S
C336 C338 1.384 . S
C336 H358 0.931 . S
C337 C336 1.384 . S
C337 C340 1.382 . S
C338 C336 1.384 . S
C338 C339 1.381 . S
C338 H359 0.930 . S
C339 C338 1.381 . S
C339 C341 1.381 . S
C339 C342 1.487 . S
C340 C337 1.382 . S
C340 C341 1.387 . S
C340 H360 0.930 . S
C341 C339 1.381 . S
C341 C340 1.387 . S
C341 H361 0.931 . S
C342 C339 1.487 . S
C342 C349 1.399 . S
C342 N367 1.343 . S
C343 C344 1.384 . S
C343 C345 1.384 . S
C343 H362 0.931 . S
C344 C343 1.384 . S
C344 C347 1.382 . S
C345 C343 1.384 . S
C345 C346 1.381 . S
C345 H363 0.930 . S
C346 C345 1.381 . S
C346 C348 1.381 . S
C346 C349 1.487 . S
C347 C344 1.382 . S
C347 C348 1.387 . S
C347 H364 0.930 . S
C348 C346 1.381 . S
C348 C347 1.387 . S
C348 H365 0.931 . S
C349 C342 1.399 . S
C349 C346 1.487 . S
C349 N366 1.343 . S
H350 C322 0.931 . S
H351 C324 0.930 . S
H352 C326 0.930 . S
H353 C327 0.931 . S
H354 C329 0.931 . S
H355 C331 0.930 . S
H356 C333 0.930 . S
H357 C334 0.931 . S
H358 C336 0.931 . S
H359 C338 0.930 . S
H360 C340 0.930 . S
H361 C341 0.931 . S
H362 C343 0.931 . S
H363 C345 0.930 . S
H364 C347 0.930 . S
H365 C348 0.931 . S
N366 C328 1.343 . S
N366 C349 1.343 . S
N367 C335 1.343 . S
N367 C342 1.343 . S
C368 O370 1.247 . S
C368 O372 1.258 . S
C369 O376 1.247 . S
C369 O377 1.258 . S
O370 C368 1.247 . S
O370 Zn371 2.029 . S
Zn371 O370 2.029 . S
Zn371 O375 2.034 1_655 S
Zn371 O377 2.034 1_655 S
Zn371 O378 2.029 . S
O372 C368 1.258 . S
O372 Zn373 2.028 1_655 S
Zn373 O372 2.028 1_455 S
Zn373 O374 2.035 . S
Zn373 O376 2.035 . S
Zn373 O379 2.028 1_455 S
O374 Zn373 2.035 . S
O374 C380 1.247 . S
O375 Zn371 2.034 1_455 S
O375 C380 1.258 . S
O376 C369 1.247 . S
O376 Zn373 2.035 . S
O377 C369 1.258 . S
O377 Zn371 2.034 1_455 S
O378 Zn371 2.029 . S
O378 C381 1.247 . S
O379 Zn373 2.028 1_655 S
O379 C381 1.258 . S
C380 O374 1.247 . S
C380 O375 1.258 . S
C381 O378 1.247 . S
C381 O379 1.258 . S
C382 O384 1.247 . S
C382 O386 1.258 . S
C383 O390 1.247 . S
C383 O391 1.258 . S
O384 C382 1.247 . S
O384 Zn385 2.035 . S
Zn385 O384 2.035 . S
Zn385 O389 2.028 1_545 S
Zn385 O391 2.028 1_545 S
Zn385 O392 2.035 . S
O386 C382 1.258 . S
O386 Zn387 2.034 1_545 S
Zn387 O386 2.034 1_565 S
Zn387 O388 2.029 . S
Zn387 O390 2.029 . S
Zn387 O393 2.034 1_565 S
O388 Zn387 2.029 . S
O388 C394 1.247 . S
O389 Zn385 2.028 1_565 S
O389 C394 1.258 . S
O390 C383 1.247 . S
O390 Zn387 2.029 . S
O391 C383 1.258 . S
O391 Zn385 2.028 1_565 S
O392 Zn385 2.035 . S
O392 C395 1.247 . S
O393 Zn387 2.034 1_545 S
O393 C395 1.258 . S
C394 O388 1.247 . S
C394 O389 1.258 . S
C395 O392 1.247 . S
C395 O393 1.258 . S
C396 O398 1.247 . S
C396 O400 1.258 . S
C397 O404 1.247 . S
C397 O405 1.258 . S
O398 C396 1.247 . S
O398 Zn399 2.029 . S
Zn399 O398 2.029 . S
Zn399 O403 2.034 1_655 S
Zn399 O405 2.034 1_655 S
Zn399 O406 2.029 . S
O400 C396 1.258 . S
O400 Zn401 2.028 1_655 S
Zn401 O400 2.028 1_455 S
Zn401 O402 2.035 . S
Zn401 O404 2.035 . S
Zn401 O407 2.028 1_455 S
O402 Zn401 2.035 . S
O402 C408 1.247 . S
O403 Zn399 2.034 1_455 S
O403 C408 1.258 . S
O404 C397 1.247 . S
O404 Zn401 2.035 . S
O405 C397 1.258 . S
O405 Zn399 2.034 1_455 S
O406 Zn399 2.029 . S
O406 C409 1.247 . S
O407 Zn401 2.028 1_655 S
O407 C409 1.258 . S
C408 O402 1.247 . S
C408 O403 1.258 . S
C409 O406 1.247 . S
C409 O407 1.258 . S
C410 O412 1.247 . S
C410 O414 1.258 . S
C411 O418 1.247 . S
C411 O419 1.258 . S
O412 C410 1.247 . S
O412 Zn413 2.035 . S
Zn413 O412 2.035 . S
Zn413 O417 2.028 1_545 S
Zn413 O419 2.028 1_545 S
Zn413 O420 2.035 . S
O414 C410 1.258 . S
O414 Zn415 2.034 1_545 S
Zn415 O414 2.034 1_565 S
Zn415 O416 2.029 . S
Zn415 O418 2.029 . S
Zn415 O421 2.034 1_565 S
O416 Zn415 2.029 . S
O416 C422 1.247 . S
O417 Zn413 2.028 1_565 S
O417 C422 1.258 . S
O418 C411 1.247 . S
O418 Zn415 2.029 . S
O419 C411 1.258 . S
O419 Zn413 2.028 1_565 S
O420 Zn413 2.035 . S
O420 C423 1.247 . S
O421 Zn415 2.034 1_545 S
O421 C423 1.258 . S
C422 O416 1.247 . S
C422 O417 1.258 . S
C423 O420 1.247 . S
C423 O421 1.258 . S
C424 O426 1.247 . S
C424 O428 1.258 . S
C425 O432 1.247 . S
C425 O433 1.258 . S
O426 C424 1.247 . S
O426 Zn427 2.028 . S
Zn427 O426 2.028 . S
Zn427 O431 2.035 . S
Zn427 O433 2.035 1_554 S
Zn427 O434 2.028 1_554 S
O428 C424 1.258 . S
O428 Zn429 2.035 . S
Zn429 O428 2.035 . S
Zn429 O430 2.028 . S
Zn429 O432 2.028 1_554 S
Zn429 O435 2.035 1_554 S
O430 Zn429 2.028 . S
O430 C436 1.247 . S
O431 Zn427 2.035 . S
O431 C436 1.258 . S
O432 C425 1.247 . S
O432 Zn429 2.028 1_556 S
O433 C425 1.258 . S
O433 Zn427 2.035 1_556 S
O434 Zn427 2.028 1_556 S
O434 C437 1.247 . S
O435 Zn429 2.035 1_556 S
O435 C437 1.258 . S
C436 O430 1.247 . S
C436 O431 1.258 . S
C437 O434 1.247 . S
C437 O435 1.258 . S
C438 O440 1.247 . S
C438 O442 1.258 . S
C439 O446 1.247 . S
C439 O447 1.258 . S
O440 C438 1.247 . S
O440 Zn441 2.028 . S
Zn441 O440 2.028 . S
Zn441 O445 2.035 . S
Zn441 O447 2.035 1_554 S
Zn441 O448 2.028 1_554 S
O442 C438 1.258 . S
O442 Zn443 2.035 . S
Zn443 O442 2.035 . S
Zn443 O444 2.028 . S
Zn443 O446 2.028 1_554 S
Zn443 O449 2.035 1_554 S
O444 Zn443 2.028 . S
O444 C450 1.247 . S
O445 Zn441 2.035 . S
O445 C450 1.258 . S
O446 C439 1.247 . S
O446 Zn443 2.028 1_556 S
O447 C439 1.258 . S
O447 Zn441 2.035 1_556 S
O448 Zn441 2.028 1_556 S
O448 C451 1.247 . S
O449 Zn443 2.035 1_556 S
O449 C451 1.258 . S
C450 O444 1.247 . S
C450 O445 1.258 . S
C451 O448 1.247 . S
C451 O449 1.258 . S
C452 O454 1.247 . S
C452 O456 1.258 . S
C453 O460 1.247 . S
C453 O461 1.258 . S
O454 C452 1.247 . S
O454 Zn455 2.028 1_556 S
Zn455 O454 2.028 1_554 S
Zn455 O459 2.035 1_554 S
Zn455 O461 2.035 . S
Zn455 O462 2.028 . S
O456 C452 1.258 . S
O456 Zn457 2.035 1_556 S
Zn457 O456 2.035 1_554 S
Zn457 O458 2.028 1_554 S
Zn457 O460 2.028 . S
Zn457 O463 2.035 . S
O458 Zn457 2.028 1_556 S
O458 C464 1.247 . S
O459 Zn455 2.035 1_556 S
O459 C464 1.258 . S
O460 C453 1.247 . S
O460 Zn457 2.028 . S
O461 C453 1.258 . S
O461 Zn455 2.035 . S
O462 Zn455 2.028 . S
O462 C465 1.247 . S
O463 Zn457 2.035 . S
O463 C465 1.258 . S
C464 O458 1.247 . S
C464 O459 1.258 . S
C465 O462 1.247 . S
C465 O463 1.258 . S
C466 O468 1.247 . S
C466 O470 1.258 . S
C467 O474 1.247 . S
C467 O475 1.258 . S
O468 C466 1.247 . S
O468 Zn469 2.028 . S
Zn469 O468 2.028 . S
Zn469 O473 2.035 . S
Zn469 O475 2.035 1_554 S
Zn469 O476 2.028 1_554 S
O470 C466 1.258 . S
O470 Zn471 2.035 . S
Zn471 O470 2.035 . S
Zn471 O472 2.028 . S
Zn471 O474 2.028 1_554 S
Zn471 O477 2.035 1_554 S
O472 Zn471 2.028 . S
O472 C478 1.247 . S
O473 Zn469 2.035 . S
O473 C478 1.258 . S
O474 C467 1.247 . S
O474 Zn471 2.028 1_556 S
O475 C467 1.258 . S
O475 Zn469 2.035 1_556 S
O476 Zn469 2.028 1_556 S
O476 C479 1.247 . S
O477 Zn471 2.035 1_556 S
O477 C479 1.258 . S
C478 O472 1.247 . S
C478 O473 1.258 . S
C479 O476 1.247 . S
C479 O477 1.258 . S
C480 C481 1.387 . S
C480 H484 0.950 . S
C480 C489 1.390 . S
C481 C480 1.387 . S
C481 C483 1.387 . S
H482 C489 0.950 . S
C483 C481 1.387 . S
C483 C485 1.390 . S
C483 H487 0.950 . S
H484 C480 0.950 . S
C485 C483 1.390 . S
C485 C486 1.387 . S
C485 H488 0.950 . S
C486 C485 1.387 . S
C486 C489 1.387 . S
H487 C483 0.950 . S
H488 C485 0.950 . S
C489 C480 1.390 . S
C489 H482 0.950 . S
C489 C486 1.387 . S
C490 C491 1.387 . S
C490 H494 0.950 . S
C490 C499 1.390 . S
C491 C490 1.387 . S
C491 C493 1.387 . S
H492 C499 0.950 . S
C493 C491 1.387 . S
C493 C495 1.390 . S
C493 H497 0.950 . S
H494 C490 0.950 . S
C495 C493 1.390 . S
C495 C496 1.387 . S
C495 H498 0.950 . S
C496 C495 1.387 . S
C496 C499 1.387 . S
H497 C493 0.950 . S
H498 C495 0.950 . S
C499 C490 1.390 . S
C499 H492 0.950 . S
C499 C496 1.387 . S
C500 C501 1.387 . S
C500 H504 0.950 . S
C500 C509 1.390 . S
C501 C500 1.387 . S
C501 C503 1.387 . S
H502 C509 0.950 . S
C503 C501 1.387 . S
C503 C505 1.390 . S
C503 H507 0.950 . S
H504 C500 0.950 . S
C505 C503 1.390 . S
C505 C506 1.387 . S
C505 H508 0.950 . S
C506 C505 1.387 . S
C506 C509 1.387 . S
H507 C503 0.950 . S
H508 C505 0.950 . S
C509 C500 1.390 . S
C509 H502 0.950 . S
C509 C506 1.387 . S
C510 C511 1.387 . S
C510 H514 0.950 . S
C510 C519 1.390 . S
C511 C510 1.387 . S
C511 C513 1.387 . S
H512 C519 0.950 . S
C513 C511 1.387 . S
C513 C515 1.390 . S
C513 H517 0.950 . S
H514 C510 0.950 . S
C515 C513 1.390 . S
C515 C516 1.387 . S
C515 H518 0.950 . S
C516 C515 1.387 . S
C516 C519 1.387 . S
H517 C513 0.950 . S
H518 C515 0.950 . S
C519 C510 1.390 . S
C519 H512 0.950 . S
C519 C516 1.387 . S
C520 C521 1.387 . S
C520 H524 0.950 . S
C520 C529 1.390 . S
C521 C520 1.387 . S
C521 C523 1.387 . S
H522 C529 0.950 . S
C523 C521 1.387 . S
C523 C525 1.390 . S
C523 H527 0.950 . S
H524 C520 0.950 . S
C525 C523 1.390 . S
C525 C526 1.387 . S
C525 H528 0.950 . S
C526 C525 1.387 . S
C526 C529 1.387 . S
H527 C523 0.950 . S
H528 C525 0.950 . S
C529 C520 1.390 . S
C529 H522 0.950 . S
C529 C526 1.387 . S
C530 C531 1.387 . S
C530 H534 0.950 . S
C530 C539 1.390 . S
C531 C530 1.387 . S
C531 C533 1.387 . S
H532 C539 0.950 . S
C533 C531 1.387 . S
C533 C535 1.390 . S
C533 H537 0.950 . S
H534 C530 0.950 . S
C535 C533 1.390 . S
C535 C536 1.387 . S
C535 H538 0.950 . S
C536 C535 1.387 . S
C536 C539 1.387 . S
H537 C533 0.950 . S
H538 C535 0.950 . S
C539 C530 1.390 . S
C539 H532 0.950 . S
C539 C536 1.387 . S
C540 C541 1.387 . S
C540 H544 0.950 . S
C540 C549 1.390 . S
C541 C540 1.387 . S
C541 C543 1.387 . S
H542 C549 0.950 . S
C543 C541 1.387 . S
C543 C545 1.390 . S
C543 H547 0.950 . S
H544 C540 0.950 . S
C545 C543 1.390 . S
C545 C546 1.387 . S
C545 H548 0.950 . S
C546 C545 1.387 . S
C546 C549 1.387 . S
H547 C543 0.950 . S
H548 C545 0.950 . S
C549 C540 1.390 . S
C549 H542 0.950 . S
C549 C546 1.387 . S
C550 C551 1.387 . S
C550 H554 0.950 . S
C550 C559 1.390 . S
C551 C550 1.387 . S
C551 C553 1.387 . S
H552 C559 0.950 . S
C553 C551 1.387 . S
C553 C555 1.390 . S
C553 H557 0.950 . S
H554 C550 0.950 . S
C555 C553 1.390 . S
C555 C556 1.387 . S
C555 H558 0.950 . S
C556 C555 1.387 . S
C556 C559 1.387 . S
H557 C553 0.950 . S
H558 C555 0.950 . S
C559 C550 1.390 . S
C559 H552 0.950 . S
C559 C556 1.387 . S
C560 C561 1.387 . S
C560 H564 0.950 . S
C560 C569 1.390 . S
C561 C560 1.387 . S
C561 C563 1.387 . S
H562 C569 0.950 . S
C563 C561 1.387 . S
C563 C565 1.390 . S
C563 H567 0.950 . S
H564 C560 0.950 . S
C565 C563 1.390 . S
C565 C566 1.387 . S
C565 H568 0.950 . S
C566 C565 1.387 . S
C566 C569 1.387 . S
H567 C563 0.950 . S
H568 C565 0.950 . S
C569 C560 1.390 . S
C569 H562 0.950 . S
C569 C566 1.387 . S
C570 C571 1.387 . S
C570 H574 0.950 . S
C570 C579 1.390 . S
C571 C570 1.387 . S
C571 C573 1.387 . S
H572 C579 0.950 . S
C573 C571 1.387 . S
C573 C575 1.390 . S
C573 H577 0.950 . S
H574 C570 0.950 . S
C575 C573 1.390 . S
C575 C576 1.387 . S
C575 H578 0.950 . S
C576 C575 1.387 . S
C576 C579 1.387 . S
H577 C573 0.950 . S
H578 C575 0.950 . S
C579 C570 1.390 . S
C579 H572 0.950 . S
C579 C576 1.387 . S
C580 C581 1.387 . S
C580 H584 0.950 . S
C580 C589 1.390 . S
C581 C580 1.387 . S
C581 C583 1.387 . S
H582 C589 0.950 . S
C583 C581 1.387 . S
C583 C585 1.390 . S
C583 H587 0.950 . S
H584 C580 0.950 . S
C585 C583 1.390 . S
C585 C586 1.387 . S
C585 H588 0.950 . S
C586 C585 1.387 . S
C586 C589 1.387 . S
H587 C583 0.950 . S
H588 C585 0.950 . S
C589 C580 1.390 . S
C589 H582 0.950 . S
C589 C586 1.387 . S
C590 C591 1.387 . S
C590 H594 0.950 . S
C590 C599 1.390 . S
C591 C590 1.387 . S
C591 C593 1.387 . S
H592 C599 0.950 . S
C593 C591 1.387 . S
C593 C595 1.390 . S
C593 H597 0.950 . S
H594 C590 0.950 . S
C595 C593 1.390 . S
C595 C596 1.387 . S
C595 H598 0.950 . S
C596 C595 1.387 . S
C596 C599 1.387 . S
H597 C593 0.950 . S
H598 C595 0.950 . S
C599 C590 1.390 . S
C599 H592 0.950 . S
C599 C596 1.387 . S
C600 C601 1.387 . S
C600 H604 0.950 . S
C600 C609 1.390 . S
C601 C600 1.387 . S
C601 C603 1.387 . S
H602 C609 0.950 . S
C603 C601 1.387 . S
C603 C605 1.390 . S
C603 H607 0.950 . S
H604 C600 0.950 . S
C605 C603 1.390 . S
C605 C606 1.387 . S
C605 H608 0.950 . S
C606 C605 1.387 . S
C606 C609 1.387 . S
H607 C603 0.950 . S
H608 C605 0.950 . S
C609 C600 1.390 . S
C609 H602 0.950 . S
C609 C606 1.387 . S
C610 C611 1.387 . S
C610 H614 0.950 . S
C610 C619 1.390 . S
C611 C610 1.387 . S
C611 C613 1.387 . S
H612 C619 0.950 . S
C613 C611 1.387 . S
C613 C615 1.390 . S
C613 H617 0.950 . S
H614 C610 0.950 . S
C615 C613 1.390 . S
C615 C616 1.387 . S
C615 H618 0.950 . S
C616 C615 1.387 . S
C616 C619 1.387 . S
H617 C613 0.950 . S
H618 C615 0.950 . S
C619 C610 1.390 . S
C619 H612 0.950 . S
C619 C616 1.387 . S
C620 C621 1.387 . S
C620 H624 0.950 . S
C620 C629 1.390 . S
C621 C620 1.387 . S
C621 C623 1.387 . S
H622 C629 0.950 . S
C623 C621 1.387 . S
C623 C625 1.390 . S
C623 H627 0.950 . S
H624 C620 0.950 . S
C625 C623 1.390 . S
C625 C626 1.387 . S
C625 H628 0.950 . S
C626 C625 1.387 . S
C626 C629 1.387 . S
H627 C623 0.950 . S
H628 C625 0.950 . S
C629 C620 1.390 . S
C629 H622 0.950 . S
C629 C626 1.387 . S
C630 C631 1.387 . S
C630 H634 0.950 . S
C630 C639 1.390 . S
C631 C630 1.387 . S
C631 C633 1.387 . S
H632 C639 0.950 . S
C633 C631 1.387 . S
C633 C635 1.390 . S
C633 H637 0.950 . S
H634 C630 0.950 . S
C635 C633 1.390 . S
C635 C636 1.387 . S
C635 H638 0.950 . S
C636 C635 1.387 . S
C636 C639 1.387 . S
H637 C633 0.950 . S
H638 C635 0.950 . S
C639 C630 1.390 . S
C639 H632 0.950 . S
C639 C636 1.387 . S
C640 C641 1.387 . S
C640 H644 0.950 . S
C640 C649 1.390 . S
C641 C640 1.387 . S
C641 C643 1.387 . S
H642 C649 0.950 . S
C643 C641 1.387 . S
C643 C645 1.390 . S
C643 H647 0.950 . S
H644 C640 0.950 . S
C645 C643 1.390 . S
C645 C646 1.387 . S
C645 H648 0.950 . S
C646 C645 1.387 . S
C646 C649 1.387 . S
H647 C643 0.950 . S
H648 C645 0.950 . S
C649 C640 1.390 . S
C649 H642 0.950 . S
C649 C646 1.387 . S
C650 C651 1.387 . S
C650 H654 0.950 . S
C650 C659 1.390 . S
C651 C650 1.387 . S
C651 C653 1.387 . S
H652 C659 0.950 . S
C653 C651 1.387 . S
C653 C655 1.390 . S
C653 H657 0.950 . S
H654 C650 0.950 . S
C655 C653 1.390 . S
C655 C656 1.387 . S
C655 H658 0.950 . S
C656 C655 1.387 . S
C656 C659 1.387 . S
H657 C653 0.950 . S
H658 C655 0.950 . S
C659 C650 1.390 . S
C659 H652 0.950 . S
C659 C656 1.387 . S
C660 C661 1.387 . S
C660 H664 0.950 . S
C660 C669 1.390 . S
C661 C660 1.387 . S
C661 C663 1.387 . S
H662 C669 0.950 . S
C663 C661 1.387 . S
C663 C665 1.390 . S
C663 H667 0.950 . S
H664 C660 0.950 . S
C665 C663 1.390 . S
C665 C666 1.387 . S
C665 H668 0.950 . S
C666 C665 1.387 . S
C666 C669 1.387 . S
H667 C663 0.950 . S
H668 C665 0.950 . S
C669 C660 1.390 . S
C669 H662 0.950 . S
C669 C666 1.387 . S
C670 C671 1.387 . S
C670 H674 0.950 . S
C670 C679 1.390 . S
C671 C670 1.387 . S
C671 C673 1.387 . S
H672 C679 0.950 . S
C673 C671 1.387 . S
C673 C675 1.390 . S
C673 H677 0.950 . S
H674 C670 0.950 . S
C675 C673 1.390 . S
C675 C676 1.387 . S
C675 H678 0.950 . S
C676 C675 1.387 . S
C676 C679 1.387 . S
H677 C673 0.950 . S
H678 C675 0.950 . S
C679 C670 1.390 . S
C679 H672 0.950 . S
C679 C676 1.387 . S
C680 C681 1.387 . S
C680 H684 0.950 . S
C680 C689 1.390 . S
C681 C680 1.387 . S
C681 C683 1.387 . S
H682 C689 0.950 . S
C683 C681 1.387 . S
C683 C685 1.390 . S
C683 H687 0.950 . S
H684 C680 0.950 . S
C685 C683 1.390 . S
C685 C686 1.387 . S
C685 H688 0.950 . S
C686 C685 1.387 . S
C686 C689 1.387 . S
H687 C683 0.950 . S
H688 C685 0.950 . S
C689 C680 1.390 . S
C689 H682 0.950 . S
C689 C686 1.387 . S
C690 C691 1.387 . S
C690 H694 0.950 . S
C690 C699 1.390 . S
C691 C690 1.387 . S
C691 C693 1.387 . S
H692 C699 0.950 . S
C693 C691 1.387 . S
C693 C695 1.390 . S
C693 H697 0.950 . S
H694 C690 0.950 . S
C695 C693 1.390 . S
C695 C696 1.387 . S
C695 H698 0.950 . S
C696 C695 1.387 . S
C696 C699 1.387 . S
H697 C693 0.950 . S
H698 C695 0.950 . S
C699 C690 1.390 . S
C699 H692 0.950 . S
C699 C696 1.387 . S
C700 C701 1.387 . S
C700 H704 0.950 . S
C700 C709 1.390 . S
C701 C700 1.387 . S
C701 C703 1.387 . S
H702 C709 0.950 . S
C703 C701 1.387 . S
C703 C705 1.390 . S
C703 H707 0.950 . S
H704 C700 0.950 . S
C705 C703 1.390 . S
C705 C706 1.387 . S
C705 H708 0.950 . S
C706 C705 1.387 . S
C706 C709 1.387 . S
H707 C703 0.950 . S
H708 C705 0.950 . S
C709 C700 1.390 . S
C709 H702 0.950 . S
C709 C706 1.387 . S
C710 C711 1.387 . S
C710 H714 0.950 . S
C710 C719 1.390 . S
C711 C710 1.387 . S
C711 C713 1.387 . S
H712 C719 0.950 . S
C713 C711 1.387 . S
C713 C715 1.390 . S
C713 H717 0.950 . S
H714 C710 0.950 . S
C715 C713 1.390 . S
C715 C716 1.387 . S
C715 H718 0.950 . S
C716 C715 1.387 . S
C716 C719 1.387 . S
H717 C713 0.950 . S
H718 C715 0.950 . S
C719 C710 1.390 . S
C719 H712 0.950 . S
C719 C716 1.387 . S
C720 C721 1.387 . S
C720 H724 0.950 . S
C720 C729 1.390 . S
C721 C720 1.387 . S
C721 C723 1.387 . S
H722 C729 0.950 . S
C723 C721 1.387 . S
C723 C725 1.390 . S
C723 H727 0.950 . S
H724 C720 0.950 . S
C725 C723 1.390 . S
C725 C726 1.387 . S
C725 H728 0.950 . S
C726 C725 1.387 . S
C726 C729 1.387 . S
H727 C723 0.950 . S
H728 C725 0.950 . S
C729 C720 1.390 . S
C729 H722 0.950 . S
C729 C726 1.387 . S
C730 C731 1.387 . S
C730 H734 0.950 . S
C730 C739 1.390 . S
C731 C730 1.387 . S
C731 C733 1.387 . S
H732 C739 0.950 . S
C733 C731 1.387 . S
C733 C735 1.390 . S
C733 H737 0.950 . S
H734 C730 0.950 . S
C735 C733 1.390 . S
C735 C736 1.387 . S
C735 H738 0.950 . S
C736 C735 1.387 . S
C736 C739 1.387 . S
H737 C733 0.950 . S
H738 C735 0.950 . S
C739 C730 1.390 . S
C739 H732 0.950 . S
C739 C736 1.387 . S
C740 C741 1.387 . S
C740 H744 0.950 . S
C740 C749 1.390 . S
C741 C740 1.387 . S
C741 C743 1.387 . S
H742 C749 0.950 . S
C743 C741 1.387 . S
C743 C745 1.390 . S
C743 H747 0.950 . S
H744 C740 0.950 . S
C745 C743 1.390 . S
C745 C746 1.387 . S
C745 H748 0.950 . S
C746 C745 1.387 . S
C746 C749 1.387 . S
H747 C743 0.950 . S
H748 C745 0.950 . S
C749 C740 1.390 . S
C749 H742 0.950 . S
C749 C746 1.387 . S
C750 C751 1.387 . S
C750 H754 0.950 . S
C750 C759 1.390 . S
C751 C750 1.387 . S
C751 C753 1.387 . S
H752 C759 0.950 . S
C753 C751 1.387 . S
C753 C755 1.390 . S
C753 H757 0.950 . S
H754 C750 0.950 . S
C755 C753 1.390 . S
C755 C756 1.387 . S
C755 H758 0.950 . S
C756 C755 1.387 . S
C756 C759 1.387 . S
H757 C753 0.950 . S
H758 C755 0.950 . S
C759 C750 1.390 . S
C759 H752 0.950 . S
C759 C756 1.387 . S
C760 C761 1.387 . S
C760 H764 0.950 . S
C760 C769 1.390 . S
C761 C760 1.387 . S
C761 C763 1.387 . S
H762 C769 0.950 . S
C763 C761 1.387 . S
C763 C765 1.390 . S
C763 H767 0.950 . S
H764 C760 0.950 . S
C765 C763 1.390 . S
C765 C766 1.387 . S
C765 H768 0.950 . S
C766 C765 1.387 . S
C766 C769 1.387 . S
H767 C763 0.950 . S
H768 C765 0.950 . S
C769 C760 1.390 . S
C769 H762 0.950 . S
C769 C766 1.387 . S
C770 C771 1.387 . S
C770 H774 0.950 . S
C770 C779 1.390 . S
C771 C770 1.387 . S
C771 C773 1.387 . S
H772 C779 0.950 . S
C773 C771 1.387 . S
C773 C775 1.390 . S
C773 H777 0.950 . S
H774 C770 0.950 . S
C775 C773 1.390 . S
C775 C776 1.387 . S
C775 H778 0.950 . S
C776 C775 1.387 . S
C776 C779 1.387 . S
H777 C773 0.950 . S
H778 C775 0.950 . S
C779 C770 1.390 . S
C779 H772 0.950 . S
C779 C776 1.387 . S
C780 C781 1.387 . S
C780 H784 0.950 . S
C780 C789 1.390 . S
C781 C780 1.387 . S
C781 C783 1.387 . S
H782 C789 0.950 . S
C783 C781 1.387 . S
C783 C785 1.390 . S
C783 H787 0.950 . S
H784 C780 0.950 . S
C785 C783 1.390 . S
C785 C786 1.387 . S
C785 H788 0.950 . S
C786 C785 1.387 . S
C786 C789 1.387 . S
H787 C783 0.950 . S
H788 C785 0.950 . S
C789 C780 1.390 . S
C789 H782 0.950 . S
C789 C786 1.387 . S
C790 C791 1.387 . S
C790 H794 0.950 . S
C790 C799 1.390 . S
C791 C790 1.387 . S
C791 C793 1.387 . S
H792 C799 0.950 . S
C793 C791 1.387 . S
C793 C795 1.390 . S
C793 H797 0.950 . S
H794 C790 0.950 . S
C795 C793 1.390 . S
C795 C796 1.387 . S
C795 H798 0.950 . S
C796 C795 1.387 . S
C796 C799 1.387 . S
H797 C793 0.950 . S
H798 C795 0.950 . S
C799 C790 1.390 . S
C799 H792 0.950 . S
C799 C796 1.387 . S
C486 C369 1.511 . S
C481 C15 1.517 . S
C496 C395 1.512 . S
C491 C68 1.516 . S
C506 C409 1.511 . S
C501 C107 1.518 . S
C516 C411 1.512 . S
C511 C160 1.517 . S
C521 C185 1.516 . S
C526 C408 1.511 . S
C536 C410 1.511 . S
C531 C252 1.517 . S
C546 C368 1.512 . S
C541 C277 1.516 . S
C556 C394 1.512 . S
C551 C330 1.517 . S
C566 C396 1.511 . S
C561 C323 1.518 . S
C576 C422 1.511 . S
C571 C192 1.517 . S
C586 C380 1.511 . S
C581 C245 1.516 . S
C596 C382 1.511 . S
C591 C284 1.516 . S
C606 C381 1.512 . S
C601 C61 1.516 . S
C616 C383 1.512 . S
C611 C114 1.517 . S
C626 C397 1.512 . S
C621 C153 1.515 . S
C636 C423 1.512 . S
C631 C22 1.516 . S
C646 C425 1.511 . S
C641 C337 1.519 . S
C651 C206 1.517 . S
C656 C451 1.514 . S
C661 C231 1.516 . S
C666 C464 1.514 . S
C671 C298 1.517 . S
C676 C467 1.514 . S
C681 C47 1.516 . S
C686 C465 1.509 . S
C691 C100 1.516 . S
C696 C466 1.510 . S
C701 C139 1.516 . S
C706 C424 1.510 . S
C716 C450 1.512 . S
C711 C8 1.514 . S
C726 C453 1.512 . S
C721 C1 1.515 . S
C731 C54 1.517 . S
C736 C478 1.509 . S
C741 C93 1.517 . S
C746 C436 1.509 . S
C751 C146 1.517 . S
C756 C438 1.509 . S
C766 C437 1.512 . S
C761 C199 1.518 . S
C776 C439 1.512 . S
C771 C238 1.520 . S
C781 C291 1.515 . S
C786 C452 1.513 . S
C796 C479 1.511 . S
C791 C344 1.518 . S
