# Generated by pormake.
# Topology zzz, (3,6)-cn, num edge types: 1
# Building blocks:
#     Node 0, Type 0, BuildingBlock: BETDIP_clean_linker_0, # of connection points: 3
#     Node 1, Type 0, BuildingBlock: BETDIP_clean_linker_0, # of connection points: 3
#     Node 2, Type 0, BuildingBlock: BETDIP_clean_linker_0, # of connection points: 3
#     Node 3, Type 0, BuildingBlock: BETDIP_clean_linker_0, # of connection points: 3
#     Node 4, Type 0, BuildingBlock: BETDIP_clean_linker_0, # of connection points: 3
#     Node 5, Type 0, BuildingBlock: BETDIP_clean_linker_0, # of connection points: 3
#     Node 6, Type 0, BuildingBlock: BETDIP_clean_linker_0, # of connection points: 3
#     Node 7, Type 0, BuildingBlock: BETDIP_clean_linker_0, # of connection points: 3
#     Node 8, Type 1, BuildingBlock: BETFAJ_clean_sbu_0, # of connection points: 6
#     Node 9, Type 1, BuildingBlock: BETFAJ_clean_sbu_0, # of connection points: 6
#     Node 10, Type 1, BuildingBlock: BETFAJ_clean_sbu_0, # of connection points: 6
#     Node 11, Type 1, BuildingBlock: BETFAJ_clean_sbu_0, # of connection points: 6
#     Edge 12, Type (0, 1), BuildingBlock: MIFKUJ_clean_linker_0, # of connection points: 2
#     Edge 13, Type (0, 1), BuildingBlock: MIFKUJ_clean_linker_0, # of connection points: 2
#     Edge 14, Type (0, 1), BuildingBlock: MIFKUJ_clean_linker_0, # of connection points: 2
#     Edge 15, Type (0, 1), BuildingBlock: MIFKUJ_clean_linker_0, # of connection points: 2
#     Edge 16, Type (0, 1), BuildingBlock: MIFKUJ_clean_linker_0, # of connection points: 2
#     Edge 17, Type (0, 1), BuildingBlock: MIFKUJ_clean_linker_0, # of connection points: 2
#     Edge 18, Type (0, 1), BuildingBlock: MIFKUJ_clean_linker_0, # of connection points: 2
#     Edge 19, Type (0, 1), BuildingBlock: MIFKUJ_clean_linker_0, # of connection points: 2
#     Edge 20, Type (0, 1), BuildingBlock: MIFKUJ_clean_linker_0, # of connection points: 2
#     Edge 21, Type (0, 1), BuildingBlock: MIFKUJ_clean_linker_0, # of connection points: 2
#     Edge 22, Type (0, 1), BuildingBlock: MIFKUJ_clean_linker_0, # of connection points: 2
#     Edge 23, Type (0, 1), BuildingBlock: MIFKUJ_clean_linker_0, # of connection points: 2
#     Edge 24, Type (0, 1), BuildingBlock: MIFKUJ_clean_linker_0, # of connection points: 2
#     Edge 25, Type (0, 1), BuildingBlock: MIFKUJ_clean_linker_0, # of connection points: 2
#     Edge 26, Type (0, 1), BuildingBlock: MIFKUJ_clean_linker_0, # of connection points: 2
#     Edge 27, Type (0, 1), BuildingBlock: MIFKUJ_clean_linker_0, # of connection points: 2
#     Edge 28, Type (0, 1), BuildingBlock: MIFKUJ_clean_linker_0, # of connection points: 2
#     Edge 29, Type (0, 1), BuildingBlock: MIFKUJ_clean_linker_0, # of connection points: 2
#     Edge 30, Type (0, 1), BuildingBlock: MIFKUJ_clean_linker_0, # of connection points: 2
#     Edge 31, Type (0, 1), BuildingBlock: MIFKUJ_clean_linker_0, # of connection points: 2
#     Edge 32, Type (0, 1), BuildingBlock: MIFKUJ_clean_linker_0, # of connection points: 2
#     Edge 33, Type (0, 1), BuildingBlock: MIFKUJ_clean_linker_0, # of connection points: 2
#     Edge 34, Type (0, 1), BuildingBlock: MIFKUJ_clean_linker_0, # of connection points: 2
#     Edge 35, Type (0, 1), BuildingBlock: MIFKUJ_clean_linker_0, # of connection points: 2
# Relax obj value: 0.228
# Max RMSD: 0.174
# Mean RMSD: 0.159
data_MOF--net-zzz--node1-BETFAJ_clean_sbu_0--node2-BETDIP_clean_linker_0--edge1-MIFKUJ_clean_linker_0
_symmetry_space_group_name_H-M    P1
_symmetry_Int_Tables_number       1
_symmetry_cell_setting            triclinic
loop_
_symmetry_equiv_pos_as_xyz
'x, y, z'
_cell_length_a     68.67348
_cell_length_b     68.6395
_cell_length_c     17.048587
_cell_angle_alpha  89.917275
_cell_angle_beta   90.081763
_cell_angle_gamma 89.836638
loop_
_atom_site_label
_atom_site_type_symbol
_atom_site_fract_x
_atom_site_fract_y
_atom_site_fract_z
_atom_type_partial_charge
H0 H 0.74677 0.51861 0.40778 0.0
H1 H 0.7333 0.54761 0.1895 0.0
H2 H 0.79269 0.54196 0.26517 0.0
H3 H 0.70587 0.5579 0.29377 0.0
C4 C 0.70264 0.54249 0.28714 0.0
C5 C 0.75147 0.52655 0.35628 0.0
C6 C 0.77153 0.5301 0.34401 0.0
C7 C 0.73752 0.53316 0.30082 0.0
C8 C 0.74383 0.5431 0.23335 0.0
C9 C 0.76365 0.54639 0.22005 0.0
C10 C 0.77726 0.53997 0.27595 0.0
N11 N 0.71732 0.52876 0.3094 0.0
H12 H 1.00746 0.75322 0.41581 0.0
H13 H 0.03664 0.73198 0.20938 0.0
H14 H 0.04981 0.78876 0.29709 0.0
H15 H 0.99497 0.73035 0.20181 0.0
C16 C 0.99936 0.71843 0.24017 0.0
C17 C 0.01832 0.75519 0.37054 0.0
C18 C 0.02913 0.77277 0.3665 0.0
C19 C 0.02106 0.74044 0.3134 0.0
C20 C 0.03479 0.74316 0.25363 0.0
C21 C 0.04535 0.76044 0.248 0.0
C22 C 0.0426 0.7749 0.30499 0.0
N23 N 1.00919 0.72342 0.31119 0.0
H24 H 0.76258 0.01521 0.41271 0.0
H25 H 0.78307 0.99017 0.19625 0.0
H26 H 0.72257 0.98657 0.25633 0.0
H27 H 0.8104 0.98242 0.33136 0.0
C28 C 0.81108 0.99736 0.31033 0.0
C29 C 0.75973 1.00696 0.35984 0.0
C30 C 0.7405 1.001 0.34192 0.0
C31 C 0.77526 1.00256 0.30798 0.0
C32 C 0.77139 0.99265 0.23779 0.0
C33 C 0.75241 0.9871 0.21838 0.0
C34 C 0.73729 0.99079 0.27169 0.0
N35 N 0.79447 1.00956 0.32188 0.0
H36 H 0.50493 0.77038 0.41568 0.0
H37 H 0.53651 0.78395 0.20411 0.0
H38 H 0.53741 0.72573 0.29683 0.0
H39 H 0.54277 0.81242 0.31689 0.0
C40 C 0.5276 0.81494 0.30137 0.0
C41 C 0.51438 0.76589 0.36821 0.0
C42 C 0.52124 0.74645 0.36463 0.0
C43 C 0.52043 0.77966 0.31133 0.0
C44 C 0.53245 0.7736 0.24924 0.0
C45 C 0.53861 0.7542 0.24331 0.0
C46 C 0.53317 0.74091 0.3019 0.0
N47 N 0.51413 0.79947 0.31437 0.0
H48 H 0.26016 0.51159 0.0281 0.0
H49 H 0.27362 0.53572 0.25528 0.0
H50 H 0.21602 0.54168 0.1607 0.0
H51 H 0.30187 0.54573 0.13548 0.0
C52 C 0.30449 0.53046 0.14914 0.0
C53 C 0.25565 0.51944 0.08008 0.0
C54 C 0.23638 0.52674 0.08585 0.0
C55 C 0.26931 0.52318 0.1406 0.0
C56 C 0.26333 0.53324 0.20808 0.0
C57 C 0.24419 0.53995 0.21537 0.0
C58 C 0.23096 0.53679 0.15408 0.0
N59 N 0.28909 0.517 0.1347 0.0
H60 H 0.01332 0.26666 0.02225 0.0
H61 H 0.98421 0.2811 0.23926 0.0
H62 H 0.97992 0.22338 0.14561 0.0
H63 H 0.97814 0.31038 0.12494 0.0
C64 C 0.99347 0.31202 0.13961 0.0
C65 C 1.0042 0.26249 0.07122 0.0
C66 C 0.99672 0.24332 0.07583 0.0
C67 C 0.99919 0.27643 0.12922 0.0
C68 C 0.98752 0.27079 0.19305 0.0
C69 C 0.9809 0.25166 0.19915 0.0
C70 C 0.98522 0.23821 0.14023 0.0
N71 N 1.0062 0.29595 0.12543 0.0
H72 H 0.25081 0.014 0.07245 0.0
H73 H 0.2452 0.96419 0.22681 0.0
H74 H 0.29708 0.97187 0.09256 0.0
H75 H 0.21373 0.9664 0.18778 0.0
C76 C 0.21105 0.9819 0.19508 0.0
C77 C 0.25646 1.00051 0.09651 0.0
C78 C 0.27538 0.99409 0.07585 0.0
C79 C 0.24485 0.98927 0.1484 0.0
C80 C 0.253 0.97228 0.18238 0.0
C81 C 0.27158 0.96588 0.16082 0.0
C82 C 0.28242 0.97662 0.10699 0.0
N83 N 0.22547 0.99536 0.16824 0.0
H84 H 0.49039 0.25591 0.05243 0.0
H85 H 0.53989 0.24346 0.20088 0.0
H86 H 0.53536 0.29855 0.08236 0.0
H87 H 0.53315 0.21167 0.1268 0.0
C88 C 0.51886 0.21163 0.15416 0.0
C89 C 0.50428 0.26014 0.07722 0.0
C90 C 0.51222 0.27856 0.05949 0.0
C91 C 0.5146 0.24705 0.12632 0.0
C92 C 0.53237 0.253 0.1601 0.0
C93 C 0.54001 0.27154 0.14449 0.0
C94 C 0.52996 0.28395 0.09307 0.0
N95 N 0.50671 0.22839 0.14495 0.0
Sm96 Sm 0.01404 1.00202 0.80143 0.0
Sm97 Sm 0.99574 0.01594 0.6312 0.0
C98 C 0.01883 0.98496 0.93763 0.0
C99 C 0.02863 0.96621 0.95291 0.0
C100 C 0.01807 0.9512 0.98878 0.0
C101 C 0.02465 0.93199 0.98433 0.0
C102 C 0.04201 0.92751 0.94473 0.0
C103 C 0.05332 0.94263 0.91375 0.0
C104 C 0.04661 0.96185 0.91721 0.0
C105 C 0.04273 1.00425 0.68613 0.0
C106 C 1.00405 0.96912 0.6638 0.0
C107 C 0.99007 0.02949 0.48872 0.0
C108 C 0.97744 0.04507 0.4583 0.0
C109 C 0.98533 0.05912 0.40815 0.0
C110 C 0.97491 0.07607 0.3911 0.0
C111 C 0.95629 0.07923 0.4235 0.0
C112 C 0.94793 0.06448 0.46964 0.0
C113 C 0.95846 0.04761 0.48736 0.0
C114 C 0.96716 0.01406 0.74777 0.0
C115 C 1.00706 0.04894 0.76712 0.0
O116 O 1.00277 0.98331 0.89655 0.0
O117 O 0.02984 0.99956 0.91494 0.0
O118 O 0.02481 1.00784 0.67975 0.0
O119 O 0.04619 0.99949 0.75852 0.0
O120 O 1.00709 0.9729 0.73911 0.0
O121 O 1.00112 0.98305 0.61101 0.0
O122 O 1.00435 0.03547 0.53388 0.0
O123 O 0.98134 0.0138 0.5152 0.0
O124 O 0.98502 1.01008 0.75255 0.0
O125 O 0.96361 0.01912 0.67573 0.0
O126 O 1.00395 0.04503 0.69171 0.0
O127 O 1.00954 0.03511 0.82108 0.0
H128 H 1.00408 0.95417 0.01569 0.0
H129 H 0.01583 0.92051 0.00953 0.0
H130 H 0.06676 0.93946 0.883 0.0
H131 H 0.05493 0.97308 0.88787 0.0
H132 H 1.0 0.05749 0.38578 0.0
H133 H 0.98201 0.08718 0.35633 0.0
H134 H 0.93352 0.06627 0.49441 0.0
H135 H 0.95206 0.03699 0.5266 0.0
Sm136 Sm 0.51276 0.0223 0.79371 0.0
Sm137 Sm 0.50097 1.00175 0.63677 0.0
C138 C 0.53189 0.03188 0.92111 0.0
C139 C 0.55198 0.02585 0.94025 0.0
C140 C 0.55723 1.00602 0.93777 0.0
C141 C 0.57676 1.00051 0.93414 0.0
C142 C 0.59145 0.01469 0.93234 0.0
C143 C 0.58628 0.03443 0.94008 0.0
C144 C 0.56671 0.03995 0.94425 0.0
C145 C 0.50154 0.04697 0.67396 0.0
C146 C 0.54714 1.00866 0.66845 0.0
C147 C 0.48857 0.99419 0.49363 0.0
C148 C 0.47443 0.98068 0.4598 0.0
C149 C 0.47193 0.97982 0.37842 0.0
C150 C 0.45763 0.9678 0.34623 0.0
C151 C 0.44563 0.95649 0.39515 0.0
C152 C 0.44876 0.95683 0.47664 0.0
C153 C 0.46306 0.96887 0.50874 0.0
C154 C 0.50499 0.97362 0.75369 0.0
C155 C 0.4669 0.01302 0.76929 0.0
O156 O 0.51867 0.01812 0.92081 0.0
O157 O 0.5305 0.04354 0.86051 0.0
O158 O 0.51201 0.0319 0.66643 0.0
O159 O 0.49697 0.04966 0.7472 0.0
O160 O 0.54244 0.01188 0.74257 0.0
O161 O 0.53363 1.00668 0.6139 0.0
O162 O 0.48123 1.00816 0.53715 0.0
O163 O 0.50416 0.9861 0.52403 0.0
O164 O 0.50734 0.9917 0.75931 0.0
O165 O 0.50059 0.96957 0.68161 0.0
O166 O 0.47112 1.00927 0.69469 0.0
O167 O 0.48061 0.01661 0.82199 0.0
H168 H 0.54627 0.99475 0.93351 0.0
H169 H 0.58026 0.98519 0.92787 0.0
H170 H 0.59735 0.04564 0.94052 0.0
H171 H 0.56304 0.05531 0.94558 0.0
H172 H 0.48074 0.98875 0.33995 0.0
H173 H 0.45566 0.96767 0.28318 0.0
H174 H 0.4396 0.94849 0.51585 0.0
H175 H 0.4649 0.96936 0.57185 0.0
Sm176 Sm 0.49492 0.51805 0.79504 0.0
Sm177 Sm 0.51525 0.50593 0.63938 0.0
C178 C 0.49141 0.53209 0.93745 0.0
C179 C 0.49951 0.55072 0.96607 0.0
C180 C 0.5197 0.55285 0.97737 0.0
C181 C 0.52815 0.57134 0.97728 0.0
C182 C 0.51649 0.58799 0.96661 0.0
C183 C 0.49615 0.58593 0.96465 0.0
C184 C 0.48773 0.56749 0.96486 0.0
C185 C 0.46618 0.51125 0.68354 0.0
C186 C 0.50489 0.55247 0.668 0.0
C187 C 0.52964 0.49666 0.50096 0.0
C188 C 0.5424 0.48043 0.47774 0.0
C189 C 0.54031 0.47176 0.40388 0.0
C190 C 0.55019 0.45443 0.38659 0.0
C191 C 0.5622 0.44549 0.44324 0.0
C192 C 0.56501 0.4548 0.51565 0.0
C193 C 0.55517 0.47207 0.53281 0.0
C194 C 0.53915 0.50806 0.76946 0.0
C195 C 0.5007 0.47133 0.75849 0.0
O196 O 0.50398 0.51829 0.92037 0.0
O197 O 0.47775 0.53395 0.88418 0.0
O198 O 0.48432 0.50967 0.6741 0.0
O199 O 0.46261 0.51586 0.75592 0.0
O200 O 0.501 0.54821 0.74186 0.0
O201 O 0.50894 0.53872 0.61595 0.0
O202 O 0.51215 0.49155 0.52344 0.0
O203 O 0.53751 0.50981 0.54661 0.0
O204 O 0.52598 0.52014 0.75116 0.0
O205 O 0.54011 0.4943 0.71774 0.0
O206 O 0.50536 0.47586 0.68531 0.0
O207 O 0.49784 0.48482 0.81275 0.0
H208 H 0.52913 0.54022 0.98057 0.0
H209 H 0.54386 0.5725 0.98039 0.0
H210 H 0.48677 0.59858 0.95937 0.0
H211 H 0.4721 0.56635 0.95767 0.0
H212 H 0.53039 0.47791 0.36094 0.0
H213 H 0.54755 0.44748 0.33059 0.0
H214 H 0.57432 0.44837 0.56012 0.0
H215 H 0.55696 0.47846 0.59036 0.0
Sm216 Sm 1.00074 0.49985 0.77385 0.0
Sm217 Sm 1.00972 0.52375 0.62689 0.0
C218 C 0.98405 0.48508 0.89903 0.0
C219 C 0.96469 0.49013 0.92994 0.0
C220 C 0.95982 0.50975 0.94356 0.0
C221 C 0.94042 0.51536 0.95072 0.0
C222 C 0.92551 0.50151 0.94419 0.0
C223 C 0.93041 0.48173 0.93617 0.0
C224 C 0.94989 0.47607 0.92944 0.0
C225 C 0.01283 0.47812 0.64655 0.0
C226 C 0.96454 0.51478 0.65777 0.0
C227 C 0.02555 0.53516 0.49468 0.0
C228 C 0.04258 0.54796 0.48834 0.0
C229 C 0.05634 0.54505 0.42887 0.0
C230 C 0.07481 0.55348 0.435 0.0
C231 C 0.07976 0.56466 0.50125 0.0
C232 C 0.06558 0.56849 0.55808 0.0
C233 C 0.04715 0.56027 0.55152 0.0
C234 C 1.00425 0.54994 0.74962 0.0
C235 C 0.04529 0.51322 0.75337 0.0
O236 O 0.99739 0.49865 0.9033 0.0
O237 O 0.98372 0.47638 0.83082 0.0
O238 O 1.00098 0.49225 0.64423 0.0
O239 O 0.01887 0.47522 0.71784 0.0
O240 O 0.97013 0.51056 0.73041 0.0
O241 O 0.97744 0.51798 0.60187 0.0
O242 O 0.02949 0.51823 0.52673 0.0
O243 O 1.00962 0.54319 0.5225 0.0
O244 O 1.00324 0.53166 0.75353 0.0
O245 O 1.00721 0.555 0.67763 0.0
O246 O 0.04029 0.51733 0.68021 0.0
O247 O 0.03213 0.5081 0.80579 0.0
H248 H 0.97084 0.52101 0.94332 0.0
H249 H 0.93707 0.53073 0.95633 0.0
H250 H 0.91915 0.47075 0.93216 0.0
H251 H 0.95329 0.46089 0.91846 0.0
H252 H 0.05324 0.5353 0.38054 0.0
H253 H 0.08564 0.55014 0.39082 0.0
H254 H 0.06906 0.57707 0.6095 0.0
H255 H 0.03695 0.56253 0.59879 0.0
H256 H 0.19139 0.01748 0.1991 0.0
H257 H 0.16052 0.02456 0.26679 0.0
H258 H 0.15979 0.96586 0.35813 0.0
H259 H 0.18967 0.95861 0.28732 0.0
H260 H 0.12579 0.97295 0.32111 0.0
H261 H 0.1728 1.01021 0.46825 0.0
H262 H 0.19838 0.03488 0.48823 0.0
H263 H 0.15966 0.07963 0.40524 0.0
H264 H 0.13391 0.05517 0.38395 0.0
H265 H 0.07857 0.98819 0.6949 0.0
H266 H 0.10438 0.98804 0.59657 0.0
H267 H 0.06775 0.02084 0.43879 0.0
H268 H 0.04136 0.02055 0.53718 0.0
H269 H 0.11686 0.03039 0.49351 0.0
H270 H 0.0688 0.98927 0.35591 0.0
H271 H 0.04465 0.96273 0.35786 0.0
H272 H 0.08813 0.92308 0.44449 0.0
H273 H 0.11244 0.94951 0.44458 0.0
C274 C 0.18459 1.00618 0.23385 0.0
C275 C 0.19298 0.98749 0.23803 0.0
C276 C 0.16695 1.01022 0.27295 0.0
C277 C 0.15764 0.99582 0.31875 0.0
C278 C 0.16632 0.97727 0.32306 0.0
C279 C 0.18356 0.97315 0.28283 0.0
C280 C 0.13895 0.99961 0.36233 0.0
C281 C 0.12397 0.98562 0.35834 0.0
C282 C 0.13608 0.01615 0.41105 0.0
C283 C 0.15154 0.03084 0.42355 0.0
C284 C 0.1698 0.02529 0.4537 0.0
C285 C 0.18432 0.03924 0.46536 0.0
C286 C 0.18067 0.0588 0.44774 0.0
C287 C 0.16248 0.06447 0.41866 0.0
C288 C 0.14792 0.05057 0.40681 0.0
C289 C 0.07591 0.99537 0.63926 0.0
C290 C 0.05788 1.00439 0.62385 0.0
C291 C 0.09073 0.99529 0.58316 0.0
C292 C 0.08805 1.00444 0.51043 0.0
C293 C 0.07012 0.01366 0.49462 0.0
C294 C 0.05505 0.01345 0.55065 0.0
C295 C 0.10412 1.00378 0.45174 0.0
C296 C 0.11863 0.01813 0.45405 0.0
C297 C 0.10681 0.9874 0.40286 0.0
C298 C 0.09236 0.9714 0.40096 0.0
C299 C 0.07315 0.97494 0.37605 0.0
C300 C 0.05945 0.95991 0.37671 0.0
C301 C 0.06483 0.94124 0.40152 0.0
C302 C 0.08397 0.93755 0.4254 0.0
C303 C 0.09771 0.95255 0.4251 0.0
H304 H 0.0542 0.92964 0.40201 0.0
H305 H 0.19192 0.06957 0.45683 0.0
H306 H 0.53656 0.17649 0.15365 0.0
H307 H 0.52981 0.14809 0.23597 0.0
H308 H 0.48229 0.17897 0.34505 0.0
H309 H 0.48889 0.20749 0.2615 0.0
H310 H 0.50791 0.16127 0.45313 0.0
H311 H 0.47215 0.14267 0.22378 0.0
H312 H 0.46715 0.13658 0.08271 0.0
H313 H 0.51243 0.09332 0.08602 0.0
H314 H 0.5179 0.09934 0.22694 0.0
H315 H 0.47934 0.07995 0.68028 0.0
H316 H 0.47872 0.10716 0.58748 0.0
H317 H 0.52004 0.07705 0.44039 0.0
H318 H 0.52014 0.04947 0.53197 0.0
H319 H 0.49507 0.09492 0.35061 0.0
H320 H 0.53341 0.11468 0.57124 0.0
H321 H 0.54058 0.1207 0.71088 0.0
H322 H 0.49336 0.16173 0.72239 0.0
H323 H 0.48574 0.15576 0.58298 0.0
C324 C 0.52448 0.17714 0.19441 0.0
C325 C 0.51319 0.19418 0.20071 0.0
C326 C 0.52062 0.16087 0.24139 0.0
C327 C 0.50546 0.16127 0.29652 0.0
C328 C 0.49402 0.17826 0.30275 0.0
C329 C 0.49773 0.19452 0.25474 0.0
C330 C 0.50231 0.14425 0.34974 0.0
C331 C 0.5047 0.14683 0.43085 0.0
C332 C 0.4988 0.12524 0.32065 0.0
C333 C 0.49554 0.12159 0.23585 0.0
C334 C 0.48116 0.13198 0.19431 0.0
C335 C 0.47822 0.12851 0.11438 0.0
C336 C 0.48949 0.11461 0.07538 0.0
C337 C 0.50371 0.1041 0.11629 0.0
C338 C 0.50673 0.10752 0.19622 0.0
C339 C 0.48815 0.07905 0.62775 0.0
C340 C 0.49989 0.06261 0.61381 0.0
C341 C 0.48789 0.0947 0.57486 0.0
C342 C 0.49968 0.09449 0.50742 0.0
C343 C 0.51087 0.07771 0.49196 0.0
C344 C 0.51094 0.06193 0.54446 0.0
C345 C 0.50074 0.11189 0.45429 0.0
C346 C 0.49807 0.10938 0.37315 0.0
C347 C 0.50431 0.13094 0.48319 0.0
C348 C 0.50888 0.13461 0.56693 0.0
C349 C 0.52447 0.12487 0.60371 0.0
C350 C 0.52863 0.12829 0.68278 0.0
C351 C 0.5174 0.14154 0.72554 0.0
C352 C 0.50202 0.15144 0.68923 0.0
C353 C 0.49778 0.14806 0.61018 0.0
H354 H 0.52064 0.14417 0.78676 0.0
H355 H 0.48719 0.11194 0.01351 0.0
H356 H 0.33548 0.55378 0.17014 0.0
H357 H 0.36455 0.54811 0.24945 0.0
H358 H 0.34381 0.49062 0.30778 0.0
H359 H 0.3147 0.49619 0.22635 0.0
H360 H 0.36755 0.54362 0.39795 0.0
H361 H 0.38315 0.46115 0.35687 0.0
H362 H 0.38012 0.43593 0.25464 0.0
H363 H 0.38278 0.47989 0.07558 0.0
H364 H 0.38608 0.50534 0.17664 0.0
H365 H 0.42711 0.51185 0.70511 0.0
H366 H 0.40144 0.51241 0.60609 0.0
H367 H 0.44456 0.50807 0.42332 0.0
H368 H 0.47053 0.50723 0.52326 0.0
H369 H 0.41169 0.48635 0.38793 0.0
H370 H 0.42582 0.55151 0.46686 0.0
H371 H 0.43127 0.57815 0.56121 0.0
H372 H 0.37277 0.57211 0.64614 0.0
H373 H 0.36709 0.54513 0.5535 0.0
C374 C 0.33724 0.5398 0.1989 0.0
C375 C 0.3228 0.52544 0.19175 0.0
C376 C 0.35386 0.53659 0.24467 0.0
C377 C 0.35655 0.51893 0.28505 0.0
C378 C 0.34232 0.5043 0.27661 0.0
C379 C 0.32563 0.50749 0.23011 0.0
C380 C 0.37367 0.51653 0.33908 0.0
C381 C 0.37713 0.53105 0.39547 0.0
C382 C 0.38655 0.50035 0.33566 0.0
C383 C 0.38464 0.48516 0.27442 0.0
C384 C 0.38314 0.46542 0.29568 0.0
C385 C 0.38137 0.45109 0.23793 0.0
C386 C 0.38118 0.45631 0.15868 0.0
C387 C 0.38283 0.47587 0.13699 0.0
C388 C 0.38462 0.49026 0.19449 0.0
C389 C 0.43118 0.5108 0.64389 0.0
C390 C 0.45088 0.50963 0.62206 0.0
C391 C 0.41644 0.51116 0.5872 0.0
C392 C 0.42099 0.51058 0.50693 0.0
C393 C 0.44065 0.50857 0.4848 0.0
C394 C 0.45548 0.50813 0.54189 0.0
C395 C 0.40522 0.51327 0.44714 0.0
C396 C 0.40202 0.49886 0.39006 0.0
C397 C 0.39279 0.52978 0.4485 0.0
C398 C 0.39608 0.54618 0.50365 0.0
C399 C 0.41415 0.55577 0.50601 0.0
C400 C 0.41728 0.57094 0.55913 0.0
C401 C 0.40238 0.57682 0.60961 0.0
C402 C 0.38431 0.56754 0.60702 0.0
C403 C 0.38112 0.5523 0.55422 0.0
H404 H 0.40483 0.58857 0.65068 0.0
H405 H 0.37981 0.44519 0.11407 0.0
H406 H 0.02693 0.31927 0.2259 0.0
H407 H 0.03405 0.34852 0.3042 0.0
H408 H 0.98047 0.37484 0.22448 0.0
H409 H 0.97325 0.3457 0.14736 0.0
H410 H 0.01115 0.40138 0.22727 0.0
H411 H 0.98193 0.35328 0.39859 0.0
H412 H 0.97985 0.32107 0.46228 0.0
H413 H 0.03621 0.32951 0.56603 0.0
H414 H 0.03873 0.36168 0.50196 0.0
H415 H 0.99094 0.47425 0.51269 0.0
H416 H 0.99126 0.44716 0.41952 0.0
H417 H 0.03894 0.4207 0.54632 0.0
H418 H 0.03808 0.4474 0.64123 0.0
H419 H 0.01459 0.394 0.51635 0.0
H420 H 0.04346 0.44291 0.35622 0.0
H421 H 0.04676 0.47485 0.29129 0.0
H422 H 0.99358 0.46508 0.16473 0.0
H423 H 0.9898 0.43319 0.2298 0.0
C424 C 0.01685 0.33142 0.22421 0.0
C425 C 0.99953 0.33021 0.18036 0.0
C426 C 0.02087 0.3481 0.26926 0.0
C427 C 1.00773 0.36391 0.27071 0.0
C428 C 0.99086 0.36293 0.22435 0.0
C429 C 0.98674 0.34624 0.18035 0.0
C430 C 0.01083 0.38104 0.32338 0.0
C431 C 0.01181 0.39981 0.29054 0.0
C432 C 0.01218 0.37903 0.40587 0.0
C433 C 0.01062 0.35977 0.44477 0.0
C434 C 0.99394 0.34819 0.43447 0.0
C435 C 0.99268 0.32996 0.47072 0.0
C436 C 1.00792 0.32322 0.51798 0.0
C437 C 0.02443 0.33473 0.52928 0.0
C438 C 0.02579 0.35297 0.49304 0.0
C439 C 1.00165 0.46278 0.52007 0.0
C440 C 0.01448 0.46299 0.58445 0.0
C441 C 1.00191 0.44727 0.46643 0.0
C442 C 0.01527 0.43179 0.47485 0.0
C443 C 0.02843 0.43232 0.53815 0.0
C444 C 0.028 0.44768 0.59232 0.0
C445 C 0.01484 0.41457 0.42057 0.0
C446 C 0.01424 0.39571 0.45311 0.0
C447 C 0.01407 0.41653 0.3377 0.0
C448 C 0.01626 0.43572 0.29848 0.0
C449 C 0.03239 0.44763 0.31502 0.0
C450 C 0.03435 0.46572 0.27811 0.0
C451 C 0.02036 0.47201 0.22406 0.0
C452 C 1.00439 0.4602 0.20669 0.0
C453 C 1.00234 0.44211 0.24353 0.0
H454 H 0.02192 0.48601 0.19552 0.0
H455 H 1.00691 0.3091 0.54601 0.0
H456 H 0.81403 0.02661 0.1991 0.0
H457 H 0.84151 0.03248 0.10959 0.0
H458 H 0.87423 0.98677 0.22327 0.0
H459 H 0.84673 0.98058 0.31123 0.0
H460 H 0.89682 0.02168 0.18519 0.0
H461 H 0.85222 0.97535 0.06595 0.0
H462 H 0.81968 0.96531 0.02014 0.0
H463 H 0.81776 0.01413 0.86251 0.0
H464 H 0.85018 0.02463 0.9084 0.0
H465 H 0.96979 0.99948 0.89891 0.0
H466 H 0.94437 0.99929 0.99981 0.0
H467 H 0.90598 0.03052 0.84295 0.0
H468 H 0.93095 0.02978 0.74155 0.0
H469 H 0.88578 1.0049 0.9059 0.0
H470 H 0.93051 0.0507 0.01165 0.0
H471 H 0.9616 0.06384 0.06082 0.0
H472 H 0.96237 0.02107 0.24468 0.0
H473 H 0.93162 1.00722 0.19523 0.0
C474 C 0.82722 0.01808 0.2059 0.0
C475 C 0.82826 1.00317 0.26244 0.0
C476 C 0.8429 0.02139 0.15454 0.0
C477 C 0.85999 1.01005 0.15955 0.0
C478 C 0.8613 0.99578 0.21837 0.0
C479 C 0.84555 0.99223 0.26853 0.0
C480 C 0.8759 0.01191 0.10017 0.0
C481 C 0.89453 0.01788 0.12413 0.0
C482 C 0.87278 1.00747 0.02014 0.0
C483 C 0.85352 1.00088 0.99118 0.0
C484 C 0.8448 0.98401 0.0219 0.0
C485 C 0.82638 0.97823 0.9959 0.0
C486 C 0.81663 0.98911 0.93863 0.0
C487 C 0.82532 1.00574 0.90697 0.0
C488 C 0.84372 0.0116 0.93292 0.0
C489 C 0.95596 1.00628 0.88615 0.0
C490 C 0.95243 0.0145 0.81194 0.0
C491 C 0.94139 1.00634 0.94421 0.0
C492 C 0.92309 0.01507 0.93002 0.0
C493 C 0.91979 0.02356 0.85604 0.0
C494 C 0.93417 0.02319 0.79788 0.0
C495 C 0.90707 0.01474 0.99021 0.0
C496 C 0.88829 1.00891 0.96657 0.0
C497 C 0.91005 0.01972 0.07027 0.0
C498 C 0.92882 0.02776 0.09907 0.0
C499 C 0.93741 0.04392 0.06195 0.0
C500 C 0.95496 0.05153 0.08998 0.0
C501 C 0.96393 0.04331 0.15581 0.0
C502 C 0.95542 0.0274 0.19358 0.0
C503 C 0.93795 0.01963 0.16546 0.0
H504 H 0.97746 0.04929 0.17763 0.0
H505 H 0.80236 0.98463 0.91867 0.0
H506 H 0.55125 0.84564 0.27955 0.0
H507 H 0.54595 0.87461 0.1991 0.0
H508 H 0.48823 0.85447 0.14149 0.0
H509 H 0.49346 0.8254 0.22372 0.0
H510 H 0.54135 0.87671 0.04914 0.0
H511 H 0.45941 0.89456 0.09205 0.0
H512 H 0.43438 0.89219 0.19539 0.0
H513 H 0.4787 0.89477 0.37273 0.0
H514 H 0.50399 0.89727 0.27068 0.0
H515 H 0.50517 0.9343 0.7385 0.0
H516 H 0.50768 0.90959 0.84142 0.0
H517 H 0.51054 0.95468 0.01678 0.0
H518 H 0.50819 0.97965 0.91311 0.0
H519 H 0.48526 0.92236 0.05799 0.0
H520 H 0.55059 0.93434 0.97597 0.0
H521 H 0.57716 0.93868 0.8805 0.0
H522 H 0.56897 0.88017 0.79813 0.0
H523 H 0.54212 0.87558 0.89238 0.0
C524 C 0.5373 0.8475 0.25067 0.0
C525 C 0.52279 0.83322 0.2581 0.0
C526 C 0.5343 0.86407 0.20432 0.0
C527 C 0.51669 0.86688 0.16379 0.0
C528 C 0.50189 0.85285 0.17271 0.0
C529 C 0.50489 0.83619 0.21963 0.0
C530 C 0.51458 0.88381 0.1087 0.0
C531 C 0.52904 0.88663 0.05144 0.0
C532 C 0.49874 0.89711 0.1118 0.0
C533 C 0.48362 0.89583 0.17361 0.0
C534 C 0.46381 0.89467 0.15309 0.0
C535 C 0.44958 0.89331 0.21141 0.0
C536 C 0.45496 0.89323 0.29045 0.0
C537 C 0.47457 0.8947 0.31144 0.0
C538 C 0.48887 0.89603 0.25338 0.0
C539 C 0.50634 0.93901 0.79895 0.0
C540 C 0.50664 0.95895 0.81761 0.0
C541 C 0.50774 0.92484 0.85779 0.0
C542 C 0.50931 0.93023 0.93696 0.0
C543 C 0.50926 0.95016 0.95616 0.0
C544 C 0.50808 0.96441 0.8969 0.0
C545 C 0.51186 0.91489 0.99844 0.0
C546 C 0.49752 0.91237 0.05627 0.0
C547 C 0.52801 0.90205 0.9972 0.0
C548 C 0.54423 0.90468 0.94075 0.0
C549 C 0.55435 0.92245 0.93706 0.0
C550 C 0.56947 0.92495 0.88325 0.0
C551 C 0.57472 0.90973 0.83315 0.0
C552 C 0.56487 0.89196 0.83692 0.0
C553 C 0.54971 0.88939 0.89058 0.0
H554 H 0.58644 0.91168 0.79152 0.0
H555 H 0.44393 0.892 0.33543 0.0
H556 H 0.69127 0.50659 0.22808 0.0
H557 H 0.66235 0.49972 0.14759 0.0
H558 H 0.64433 0.55974 0.16797 0.0
H559 H 0.67301 0.56656 0.2484 0.0
H560 H 0.61322 0.53666 0.1786 0.0
H561 H 0.66743 0.54321 0.00439 0.0
H562 H 0.70023 0.53599 0.95316 0.0
H563 H 0.68351 0.47673 0.91011 0.0
H564 H 0.65069 0.48352 0.96233 0.0
H565 H 0.5479 0.54156 0.85022 0.0
H566 H 0.57447 0.54656 0.94457 0.0
H567 H 0.59184 0.48649 0.91782 0.0
H568 H 0.56544 0.48156 0.82346 0.0
H569 H 0.62293 0.50905 0.91278 0.0
H570 H 0.56799 0.50338 0.08748 0.0
H571 H 0.53518 0.5118 0.13564 0.0
H572 H 0.55319 0.57095 0.17228 0.0
H573 H 0.5861 0.56289 0.12394 0.0
C574 C 0.681 0.51823 0.21621 0.0
C575 C 0.68443 0.53713 0.2446 0.0
C576 C 0.66451 0.51433 0.16976 0.0
C577 C 0.65115 0.52926 0.15072 0.0
C578 C 0.6543 0.54794 0.18158 0.0
C579 C 0.67076 0.55183 0.2275 0.0
C580 C 0.63436 0.52578 0.09617 0.0
C581 C 0.6154 0.53075 0.12029 0.0
C582 C 0.637 0.51792 0.02005 0.0
C583 C 0.65668 0.51381 0.98814 0.0
C584 C 0.6708 0.5286 0.9846 0.0
C585 C 0.68938 0.52459 0.9553 0.0
C586 C 0.69397 0.5059 0.92862 0.0
C587 C 0.67995 0.49119 0.93097 0.0
C588 C 0.66135 0.49511 0.9604 0.0
C589 C 0.55721 0.52937 0.86553 0.0
C590 C 0.55441 0.51111 0.83016 0.0
C591 C 0.57244 0.53223 0.91943 0.0
C592 C 0.58518 0.51685 0.93932 0.0
C593 C 0.58231 0.49861 0.9038 0.0
C594 C 0.56714 0.49578 0.84999 0.0
C595 C 0.60176 0.51976 0.9954 0.0
C596 C 0.62072 0.51479 0.97135 0.0
C597 C 0.59912 0.52775 0.07128 0.0
C598 C 0.57947 0.53255 0.10178 0.0
C599 C 0.56494 0.51819 0.10568 0.0
C600 C 0.54634 0.52288 0.13316 0.0
C601 C 0.54212 0.54189 0.15718 0.0
C602 C 0.5565 0.55622 0.15395 0.0
C603 C 0.57514 0.55159 0.12668 0.0
H604 H 0.52768 0.54552 0.17805 0.0
H605 H 0.70837 0.50282 0.90596 0.0
H606 H 0.98631 0.7086 0.0972 0.0
H607 H 0.98568 0.67679 0.03468 0.0
H608 H 1.00957 0.6506 0.24407 0.0
H609 H 0.01081 0.68299 0.30658 0.0
H610 H 0.02645 0.63479 0.12074 0.0
H611 H 0.96057 0.64418 0.18969 0.0
H612 H 0.92903 0.66104 0.20375 0.0
H613 H 0.92389 0.66534 0.9533 0.0
H614 H 0.95554 0.64876 0.93766 0.0
H615 H 1.00655 0.54378 0.90987 0.0
H616 H 1.00432 0.56868 0.01402 0.0
H617 H 0.99355 0.61279 0.83886 0.0
H618 H 0.99618 0.58833 0.73574 0.0
H619 H 0.96793 0.61452 0.97106 0.0
H620 H 0.03729 0.6085 0.91057 0.0
H621 H 0.06795 0.58982 0.90199 0.0
H622 H 0.06467 0.5766 0.14789 0.0
H623 H 0.03381 0.59497 0.15761 0.0
C624 C 0.99131 0.69607 0.13041 0.0
C625 C 0.99844 0.69834 0.20711 0.0
C626 C 0.99084 0.67778 0.0946 0.0
C627 C 0.99715 0.66102 0.13483 0.0
C628 C 1.00445 0.66321 0.2117 0.0
C629 C 1.00508 0.68171 0.24761 0.0
C630 C 0.99646 0.64158 0.09456 0.0
C631 C 0.01348 0.63018 0.08959 0.0
C632 C 0.97959 0.63528 0.05363 0.0
C633 C 0.96052 0.64531 0.06256 0.0
C634 C 0.95279 0.64884 0.1376 0.0
C635 C 0.93488 0.65833 0.14585 0.0
C636 C 0.92448 0.66428 0.07947 0.0
C637 C 0.93196 0.66072 0.00468 0.0
C638 C 0.94988 0.65125 0.99608 0.0
C639 C 1.00358 0.55878 0.89397 0.0
C640 C 1.00156 0.5641 0.81462 0.0
C641 C 1.00237 0.573 0.95338 0.0
C642 C 0.9988 0.59267 0.93429 0.0
C643 C 0.99627 0.59777 0.85521 0.0
C644 C 0.99782 0.58373 0.79621 0.0
C645 C 0.99803 0.60831 0.99514 0.0
C646 C 0.98071 0.61898 0.00378 0.0
C647 C 0.01448 0.61368 0.04037 0.0
C648 C 0.03314 0.6029 0.03461 0.0
C649 C 0.04303 0.60147 0.96266 0.0
C650 C 0.06045 0.59097 0.95761 0.0
C651 C 0.06822 0.58197 0.02429 0.0
C652 C 0.05861 0.58353 0.09624 0.0
C653 C 0.04116 0.594 0.10156 0.0
H654 H 0.0817 0.57383 0.02026 0.0
H655 H 0.91061 0.67163 0.08599 0.0
H656 H 0.99642 0.23064 0.31608 0.0
H657 H 0.97862 0.20772 0.3972 0.0
H658 H 0.92425 0.23311 0.31973 0.0
H659 H 0.94237 0.25558 0.23479 0.0
H660 H 0.95307 0.19995 0.50131 0.0
H661 H 0.89503 0.19859 0.267 0.0
H662 H 0.88858 0.21039 0.13234 0.0
H663 H 0.94947 0.20579 0.07786 0.0
H664 H 0.95621 0.19399 0.21208 0.0
H665 H 0.93504 0.09922 0.53405 0.0
H666 H 0.92467 0.13321 0.52843 0.0
H667 H 0.94739 0.13756 0.29293 0.0
H668 H 0.95601 0.10331 0.29547 0.0
H669 H 0.91928 0.16021 0.30048 0.0
H670 H 0.97468 0.14744 0.47713 0.0
H671 H 0.99058 0.13401 0.59543 0.0
H672 H 0.94885 0.16331 0.74128 0.0
H673 H 0.93259 0.17676 0.62356 0.0
C674 C 0.98071 0.23191 0.31937 0.0
C675 C 0.97067 0.24457 0.26906 0.0
C676 C 0.97047 0.21883 0.36594 0.0
C677 C 0.95003 0.21826 0.36276 0.0
C678 C 0.94001 0.233 0.32167 0.0
C679 C 0.95032 0.24593 0.27373 0.0
C680 C 0.94027 0.19986 0.38597 0.0
C681 C 0.9452 0.19137 0.45832 0.0
C682 C 0.93008 0.18857 0.32987 0.0
C683 C 0.92611 0.19568 0.24946 0.0
C684 C 0.907 0.20014 0.22616 0.0
C685 C 0.90331 0.20683 0.15003 0.0
C686 C 0.91862 0.20893 0.09671 0.0
C687 C 0.93764 0.20426 0.11929 0.0
C688 C 0.94141 0.19758 0.19531 0.0
C689 C 0.93714 0.1072 0.47991 0.0
C690 C 0.94677 0.0986 0.41565 0.0
C691 C 0.93143 0.12676 0.47728 0.0
C692 C 0.93575 0.13819 0.41128 0.0
C693 C 0.94396 0.12918 0.34501 0.0
C694 C 0.94919 0.10959 0.34685 0.0
C695 C 0.93392 0.15976 0.41232 0.0
C696 C 0.92628 0.16894 0.34539 0.0
C697 C 0.94284 0.17132 0.47119 0.0
C698 C 0.95224 0.16281 0.54167 0.0
C699 C 0.9688 0.15085 0.53443 0.0
C700 C 0.97788 0.14327 0.60135 0.0
C701 C 0.97068 0.14774 0.67583 0.0
C702 C 0.95436 0.1598 0.68353 0.0
C703 C 0.94519 0.16738 0.61676 0.0
H704 H 0.97777 0.14195 0.72758 0.0
H705 H 0.91573 0.21411 0.03783 0.0
H706 H 0.28139 0.93066 0.09954 0.0
H707 H 0.30835 0.91029 0.14591 0.0
H708 H 0.31313 0.94642 0.35239 0.0
H709 H 0.28555 0.96572 0.30824 0.0
H710 H 0.34097 0.92383 0.14344 0.0
H711 H 0.34159 0.932 0.48893 0.0
H712 H 0.31966 0.92468 0.59917 0.0
H713 H 0.2885 0.88378 0.45632 0.0
H714 H 0.31044 0.89057 0.34542 0.0
H715 H 0.41988 0.97028 0.28796 0.0
H716 H 0.38955 0.95566 0.24615 0.0
H717 H 0.40193 0.90469 0.38652 0.0
H718 H 0.43238 0.91978 0.43105 0.0
H719 H 0.36679 0.91551 0.41296 0.0
H720 H 0.39838 0.9004 0.17475 0.0
H721 H 0.42026 0.90531 0.06164 0.0
H722 H 0.38639 0.95482 0.98855 0.0
H723 H 0.36468 0.95044 0.10232 0.0
C724 C 0.28746 0.93334 0.15721 0.0
C725 C 0.28144 0.94959 0.20082 0.0
C726 C 0.303 0.92184 0.18343 0.0
C727 C 0.31304 0.92679 0.25253 0.0
C728 C 0.30555 0.94184 0.29989 0.0
C729 C 0.28974 0.953 0.27456 0.0
C730 C 0.33341 0.91997 0.26545 0.0
C731 C 0.34647 0.92157 0.20233 0.0
C732 C 0.34086 0.91609 0.34143 0.0
C733 C 0.32774 0.91179 0.4086 0.0
C734 C 0.33021 0.92128 0.48109 0.0
C735 C 0.31772 0.91727 0.54371 0.0
C736 C 0.30269 0.90378 0.53476 0.0
C737 C 0.30013 0.89426 0.46315 0.0
C738 C 0.31258 0.8982 0.40032 0.0
C739 C 0.41648 0.95573 0.30831 0.0
C740 C 0.42859 0.94612 0.36231 0.0
C741 C 0.39911 0.94728 0.28397 0.0
C742 C 0.39359 0.92881 0.31157 0.0
C743 C 0.40593 0.91887 0.36391 0.0
C744 C 0.42328 0.92751 0.38934 0.0
C745 C 0.37389 0.92137 0.29221 0.0
C746 C 0.36109 0.91698 0.35392 0.0
C747 C 0.36662 0.92219 0.21469 0.0
C748 C 0.37973 0.92492 0.14632 0.0
C749 C 0.39564 0.91234 0.13459 0.0
C750 C 0.40805 0.91506 0.07052 0.0
C751 C 0.40468 0.93031 0.0178 0.0
C752 C 0.38893 0.94293 0.02912 0.0
C753 C 0.37653 0.94028 0.09316 0.0
H754 H 0.41431 0.93239 0.96828 0.0
H755 H 0.29303 0.90071 0.5833 0.0
H756 H 0.54648 0.2685 0.30219 0.0
H757 H 0.56353 0.2928 0.38014 0.0
H758 H 0.58646 0.31861 0.16895 0.0
H759 H 0.5704 0.29363 0.09093 0.0
H760 H 0.6079 0.32982 0.29661 0.0
H761 H 0.54032 0.32913 0.21513 0.0
H762 H 0.50789 0.31417 0.2028 0.0
H763 H 0.50348 0.31043 0.45362 0.0
H764 H 0.53609 0.3252 0.46723 0.0
H765 H 0.5794 0.43061 0.31087 0.0
H766 H 0.58709 0.39634 0.28444 0.0
H767 H 0.56967 0.38109 0.51949 0.0
H768 H 0.56178 0.41512 0.54606 0.0
H769 H 0.54891 0.36254 0.4017 0.0
H770 H 0.61536 0.37391 0.47102 0.0
H771 H 0.64693 0.39088 0.46673 0.0
H772 H 0.65244 0.3775 0.22181 0.0
H773 H 0.62076 0.36069 0.22428 0.0
C774 C 0.55614 0.27854 0.27254 0.0
C775 C 0.55648 0.27968 0.19025 0.0
C776 C 0.56583 0.29254 0.31729 0.0
C777 C 0.57549 0.308 0.27996 0.0
C778 C 0.57877 0.30702 0.19892 0.0
C779 C 0.56942 0.29281 0.15428 0.0
C780 C 0.57721 0.3271 0.31973 0.0
C781 C 0.59509 0.33698 0.32022 0.0
C782 C 0.56041 0.33651 0.34979 0.0
C783 C 0.54068 0.32802 0.34213 0.0
C784 C 0.53246 0.32503 0.26756 0.0
C785 C 0.51406 0.31659 0.26035 0.0
C786 C 0.50365 0.31128 0.32736 0.0
C787 C 0.51159 0.3145 0.40176 0.0
C788 C 0.53003 0.32291 0.40928 0.0
C789 C 0.57758 0.41998 0.35729 0.0
C790 C 0.5699 0.42553 0.43035 0.0
C791 C 0.58217 0.40047 0.34244 0.0
C792 C 0.57906 0.38624 0.40027 0.0
C793 C 0.57234 0.3919 0.47443 0.0
C794 C 0.56789 0.41137 0.48949 0.0
C795 C 0.57964 0.36534 0.37939 0.0
C796 C 0.56196 0.35522 0.38104 0.0
C797 C 0.5965 0.35609 0.34949 0.0
C798 C 0.6156 0.36614 0.34776 0.0
C799 C 0.62322 0.37472 0.41607 0.0
C800 C 0.64116 0.38428 0.414 0.0
C801 C 0.65167 0.3853 0.34401 0.0
C802 C 0.64428 0.37671 0.27598 0.0
C803 C 0.62635 0.36713 0.27772 0.0
H804 H 0.66555 0.39271 0.34253 0.0
H805 H 0.4894 0.30472 0.32165 0.0
H806 H 0.22368 0.57363 0.22798 0.0
H807 H 0.2048 0.58424 0.34029 0.0
H808 H 0.23011 0.53822 0.48066 0.0
H809 H 0.24869 0.52715 0.36628 0.0
H810 H 0.19344 0.53428 0.48097 0.0
H811 H 0.23137 0.58732 0.54684 0.0
H812 H 0.2529 0.61576 0.53277 0.0
H813 H 0.20695 0.64768 0.41931 0.0
H814 H 0.18521 0.61937 0.43143 0.0
H815 H 0.10112 0.55742 0.63251 0.0
H816 H 0.13646 0.56048 0.64697 0.0
H817 H 0.1398 0.5867 0.41735 0.0
H818 H 0.1045 0.58351 0.40224 0.0
H819 H 0.1687 0.60094 0.53399 0.0
H820 H 0.1393 0.54015 0.42531 0.0
H821 H 0.11757 0.51194 0.44344 0.0
H822 H 0.14965 0.49494 0.64903 0.0
H823 H 0.17147 0.5231 0.63176 0.0
C824 C 0.22566 0.56615 0.28346 0.0
C825 C 0.23731 0.54938 0.28823 0.0
C826 C 0.21506 0.57239 0.34828 0.0
C827 C 0.21601 0.56208 0.4195 0.0
C828 C 0.22915 0.54644 0.42647 0.0
C829 C 0.23979 0.54014 0.3612 0.0
C830 C 0.20022 0.565 0.47777 0.0
C831 C 0.18849 0.54885 0.49558 0.0
C832 C 0.19368 0.58392 0.49809 0.0
C833 C 0.2066 0.60115 0.49032 0.0
C834 C 0.22586 0.60036 0.51852 0.0
C835 C 0.23811 0.61648 0.51091 0.0
C836 C 0.23129 0.63352 0.47525 0.0
C837 C 0.2122 0.63448 0.44714 0.0
C838 C 0.19987 0.61841 0.45461 0.0
C839 C 0.10934 0.56448 0.58634 0.0
C840 C 0.10022 0.5701 0.51583 0.0
C841 C 0.12947 0.56628 0.59495 0.0
C842 C 0.14065 0.57382 0.53332 0.0
C843 C 0.13134 0.58101 0.46584 0.0
C844 C 0.11126 0.57899 0.45678 0.0
C845 C 0.16185 0.57043 0.53027 0.0
C846 C 0.17435 0.58643 0.52318 0.0
C847 C 0.16929 0.55137 0.5208 0.0
C848 C 0.15675 0.53393 0.52842 0.0
C849 C 0.14165 0.53043 0.47454 0.0
C850 C 0.12934 0.51443 0.48449 0.0
C851 C 0.13218 0.50168 0.5475 0.0
C852 C 0.14743 0.50483 0.60031 0.0
C853 C 0.15975 0.52083 0.59057 0.0
H854 H 0.1226 0.48934 0.55534 0.0
H855 H 0.24081 0.64598 0.46937 0.0
H856 H 0.07997 0.78006 0.23447 0.0
H857 H 0.08729 0.8016 0.12472 0.0
H858 H 0.04318 0.77342 0.98588 0.0
H859 H 0.03488 0.75271 0.09633 0.0
H860 H 0.08912 0.80718 0.94425 0.0
H861 H 0.01219 0.7978 0.99765 0.0
H862 H 0.9884 0.78663 0.09664 0.0
H863 H 0.02099 0.81529 0.27778 0.0
H864 H 0.04524 0.82601 0.18026 0.0
H865 H 0.02012 0.89923 0.87833 0.0
H866 H 0.0271 0.86429 0.87468 0.0
H867 H 0.08321 0.87464 0.9811 0.0
H868 H 0.07636 0.90973 0.98301 0.0
H869 H 0.03045 0.84635 0.00945 0.0
H870 H 0.11254 0.84023 0.9578 0.0
H871 H 0.13777 0.85251 0.86736 0.0
H872 H 0.09521 0.85745 0.68352 0.0
H873 H 0.0698 0.84515 0.77304 0.0
C874 C 0.07241 0.77785 0.17939 0.0
C875 C 0.05617 0.76545 0.17538 0.0
C876 C 0.07682 0.79001 0.11627 0.0
C877 C 0.06527 0.78948 0.04854 0.0
C878 C 0.05204 0.77417 0.03843 0.0
C879 C 0.0473 0.7623 0.10205 0.0
C880 C 0.06186 0.80793 0.00639 0.0
C881 C 0.0762 0.81571 0.95711 0.0
C882 C 0.04504 0.81903 0.02373 0.0
C883 C 0.03051 0.81253 0.08207 0.0
C884 C 0.01427 0.8016 0.05873 0.0
C885 C 1.00079 0.79526 0.11461 0.0
C886 C 1.00328 0.80009 0.19362 0.0
C887 C 0.01919 0.81136 0.2168 0.0
C888 C 0.03285 0.81747 0.16139 0.0
C889 C 0.03408 0.89402 0.89949 0.0
C890 C 0.04758 0.90697 0.93245 0.0
C891 C 0.03814 0.87413 0.89673 0.0
C892 C 0.05571 0.86683 0.92726 0.0
C893 C 0.06973 0.87994 0.95566 0.0
C894 C 0.06575 0.89993 0.9576 0.0
C895 C 0.05748 0.84579 0.94498 0.0
C896 C 0.04297 0.83765 0.99237 0.0
C897 C 0.07411 0.83455 0.92561 0.0
C898 C 0.08928 0.84205 0.87217 0.0
C899 C 0.10861 0.84396 0.89807 0.0
C900 C 0.12292 0.85093 0.84705 0.0
C901 C 0.11808 0.85584 0.76983 0.0
C902 C 0.09893 0.85373 0.74342 0.0
C903 C 0.08456 0.84685 0.79435 0.0
H904 H 0.12918 0.86122 0.7304 0.0
H905 H 0.99283 0.79522 0.23683 0.0
H906 H 0.72803 0.95762 0.17469 0.0
H907 H 0.70976 0.95692 0.0529 0.0
H908 H 0.74719 1.0013 0.95637 0.0
H909 H 0.76502 1.00261 0.07992 0.0
H910 H 0.7134 0.01544 0.97427 0.0
H911 H 0.73387 0.96018 0.84196 0.0
H912 H 0.74552 0.92683 0.81618 0.0
H913 H 0.69192 0.90354 0.90477 0.0
H914 H 0.68002 0.9367 0.9323 0.0
H915 H 0.61792 0.03199 0.83497 0.0
H916 H 0.65207 0.02291 0.81543 0.0
H917 H 0.6453 0.97527 0.97852 0.0
H918 H 0.61119 0.98405 0.99722 0.0
H919 H 0.67014 0.96549 0.8581 0.0
H920 H 0.66031 0.02088 0.04156 0.0
H921 H 0.64901 0.05427 0.07053 0.0
H922 H 0.68425 0.07655 0.88299 0.0
H923 H 0.69561 0.04322 0.8526 0.0
C924 C 0.73288 0.96663 0.12633 0.0
C925 C 0.74743 0.98067 0.13779 0.0
C926 C 0.72256 0.96606 0.05589 0.0
C927 C 0.7268 0.97939 0.9956 0.0
C928 C 0.7435 0.99104 0.00232 0.0
C929 C 0.75373 0.99175 0.07318 0.0
C930 C 0.71084 0.98516 0.94132 0.0
C931 C 0.70439 1.00457 0.94579 0.0
C932 C 0.69893 0.97116 0.90399 0.0
C933 C 0.70604 0.95103 0.88924 0.0
C934 C 0.72461 0.94796 0.85661 0.0
C935 C 0.73125 0.92907 0.84151 0.0
C936 C 0.71947 0.91308 0.85879 0.0
C937 C 0.70102 0.91595 0.89125 0.0
C938 C 0.69429 0.93481 0.90643 0.0
C939 C 0.62375 0.01958 0.86665 0.0
C940 C 0.61198 1.00891 0.9187 0.0
C941 C 0.64317 0.01426 0.85457 0.0
C942 C 0.65124 0.99849 0.89586 0.0
C943 C 0.63931 0.98738 0.94538 0.0
C944 C 0.61986 0.99251 0.95662 0.0
C945 C 0.67254 0.99512 0.89775 0.0
C946 C 0.67979 0.97634 0.88294 0.0
C947 C 0.68531 1.00964 0.92573 0.0
C948 C 0.6786 0.02962 0.94428 0.0
C949 C 0.66556 0.03291 0.00637 0.0
C950 C 0.65916 0.05181 0.02302 0.0
C951 C 0.66586 0.06752 0.97846 0.0
C952 C 0.67904 0.06437 0.91731 0.0
C953 C 0.68546 0.04549 0.90034 0.0
H954 H 0.66089 0.08214 0.99143 0.0
H955 H 0.72463 0.89846 0.84702 0.0
H956 H 0.53037 0.76325 0.09016 0.0
H957 H 0.53667 0.74189 0.97888 0.0
H958 H 0.57393 0.70617 0.12392 0.0
H959 H 0.56875 0.72815 0.2337 0.0
H960 H 0.58089 0.69867 0.97133 0.0
H961 H 0.5238 0.70295 0.14572 0.0
H962 H 0.49615 0.72094 0.20339 0.0
H963 H 0.47346 0.73236 0.97285 0.0
H964 H 0.50116 0.71462 0.91399 0.0
H965 H 0.54693 0.60462 0.04553 0.0
H966 H 0.55901 0.63791 0.03157 0.0
H967 H 0.51834 0.64819 0.84269 0.0
H968 H 0.50624 0.61488 0.85629 0.0
H969 H 0.51347 0.67299 0.96144 0.0
H970 H 0.56602 0.65227 0.80693 0.0
H971 H 0.59376 0.63199 0.76536 0.0
H972 H 0.62536 0.64821 0.97255 0.0
H973 H 0.59771 0.6684 0.01612 0.0
C974 C 0.54086 0.75156 0.09718 0.0
C975 C 0.54838 0.7468 0.17162 0.0
C976 C 0.54441 0.7393 0.03334 0.0
C977 C 0.55498 0.72195 0.04432 0.0
C978 C 0.56536 0.71925 0.11445 0.0
C979 C 0.56217 0.7317 0.17767 0.0
C980 C 0.55072 0.70455 0.99599 0.0
C981 C 0.56617 0.69306 0.96807 0.0
C982 C 0.53142 0.69739 0.99046 0.0
C983 C 0.51461 0.70773 0.02553 0.0
C984 C 0.51292 0.70935 0.10745 0.0
C985 C 0.49727 0.71951 0.14032 0.0
C986 C 0.48308 0.72784 0.09178 0.0
C987 C 0.48449 0.72596 0.01032 0.0
C988 C 0.50017 0.71588 0.97716 0.0
C989 C 0.54089 0.61383 0.99987 0.0
C990 C 0.52536 0.60734 0.95322 0.0
C991 C 0.54792 0.63279 0.99139 0.0
C992 C 0.53963 0.64547 0.93573 0.0
C993 C 0.52494 0.63861 0.88585 0.0
C994 C 0.51789 0.61969 0.8944 0.0
C995 C 0.54374 0.66658 0.94041 0.0
C996 C 0.52816 0.67878 0.9606 0.0
C997 C 0.56293 0.674 0.9407 0.0
C998 C 0.57972 0.66192 0.91482 0.0
C999 C 0.57883 0.65148 0.84391 0.0
C1000 C 0.59456 0.63998 0.81994 0.0
C1001 C 0.61132 0.63882 0.86626 0.0
C1002 C 0.61238 0.64916 0.93664 0.0
C1003 C 0.59669 0.66068 0.96091 0.0
H1004 H 0.62348 0.6299 0.84763 0.0
H1005 H 0.47097 0.73571 0.11729 0.0
H1006 H 0.75052 0.53718 0.07248 0.0
H1007 H 0.77074 0.53774 0.95516 0.0
H1008 H 0.81385 0.57147 0.07893 0.0
H1009 H 0.79306 0.57233 0.19373 0.0
H1010 H 0.82169 0.5731 0.92933 0.0
H1011 H 0.80736 0.51979 0.12004 0.0
H1012 H 0.78413 0.49714 0.18224 0.0
H1013 H 0.76748 0.47552 0.95566 0.0
H1014 H 0.79047 0.49825 0.89218 0.0
H1015 H 0.90753 0.52834 0.03674 0.0
H1016 H 0.87441 0.54093 0.02374 0.0
H1017 H 0.86412 0.50224 0.82888 0.0
H1018 H 0.8975 0.48971 0.84082 0.0
H1019 H 0.83507 0.50212 0.94638 0.0
H1020 H 0.86976 0.54704 0.79212 0.0
H1021 H 0.89781 0.56828 0.76607 0.0
H1022 H 0.87965 0.60689 0.94986 0.0
H1023 H 0.85231 0.58516 0.9814 0.0
C1024 C 0.76371 0.54579 0.07321 0.0
C1025 C 0.77078 0.55384 0.14357 0.0
C1026 C 0.77534 0.54601 0.00593 0.0
C1027 C 0.79431 0.55358 0.00994 0.0
C1028 C 0.79951 0.56499 0.07491 0.0
C1029 C 0.7877 0.56527 0.1412 0.0
C1030 C 0.81027 0.5451 0.96222 0.0
C1031 C 0.82455 0.55757 0.93141 0.0
C1032 C 0.81386 0.52471 0.96366 0.0
C1033 C 0.80041 0.51077 1.00149 0.0
C1034 C 0.79874 0.51016 0.08365 0.0
C1035 C 0.78561 0.49737 0.11907 0.0
C1036 C 0.77433 0.48492 0.07292 0.0
C1037 C 0.7762 0.4852 0.99127 0.0
C1038 C 0.78925 0.49805 0.95552 0.0
C1039 C 0.89825 0.52257 0.99093 0.0
C1040 C 0.90503 0.50804 0.93997 0.0
C1041 C 0.8794 0.52982 0.98332 0.0
C1042 C 0.86703 0.52274 0.92438 0.0
C1043 C 0.87356 0.50794 0.87427 0.0
C1044 C 0.8925 0.5007 0.88174 0.0
C1045 C 0.84694 0.53028 0.91926 0.0
C1046 C 0.83193 0.51754 0.93965 0.0
C1047 C 0.8431 0.55046 0.9112 0.0
C1048 C 0.85883 0.56436 0.88917 0.0
C1049 C 0.87176 0.55997 0.82754 0.0
C1050 C 0.88764 0.57206 0.81207 0.0
C1051 C 0.8904 0.58902 0.85573 0.0
C1052 C 0.87742 0.59379 0.91574 0.0
C1053 C 0.86178 0.5815 0.93282 0.0
H1054 H 0.90263 0.59843 0.84323 0.0
H1055 H 0.76415 0.47503 0.10044 0.0
H1056 H 0.03057 0.2233 0.04732 0.0
H1057 H 0.03336 0.19165 0.98086 0.0
H1058 H 0.97309 0.19563 0.91096 0.0
H1059 H 0.97036 0.22707 0.97764 0.0
H1060 H 0.9791 0.16211 0.97962 0.0
H1061 H 0.0106 0.19726 0.77465 0.0
H1062 H 0.03448 0.21967 0.71566 0.0
H1063 H 0.08133 0.18313 0.79578 0.0
H1064 H 0.05773 0.16062 0.85615 0.0
H1065 H 1.00641 0.08169 0.67391 0.0
H1066 H 1.00558 0.1158 0.71453 0.0
H1067 H 1.00733 0.09809 0.9571 0.0
H1068 H 1.00811 0.06387 0.91706 0.0
H1069 H 0.02947 0.13908 0.79314 0.0
H1070 H 0.9804 0.12996 0.06741 0.0
H1071 H 0.95402 0.10871 0.11518 0.0
H1072 H 0.93834 0.09483 0.87788 0.0
H1073 H 0.96442 0.11621 0.82868 0.0
C1074 C 0.01821 0.21778 0.01483 0.0
C1075 C 1.00036 0.22784 0.01638 0.0
C1076 C 0.01972 0.19957 0.97737 0.0
C1077 C 1.0034 0.19106 0.94083 0.0
C1078 C 0.98589 0.20171 0.93879 0.0
C1079 C 0.9844 0.21983 0.97603 0.0
C1080 C 1.00399 0.1705 0.91079 0.0
C1081 C 0.99016 0.15713 0.93892 0.0
C1082 C 0.01817 0.16386 0.85663 0.0
C1083 C 0.0324 0.17736 0.82059 0.0
C1084 C 0.026 0.19409 0.78027 0.0
C1085 C 0.03949 0.20679 0.74646 0.0
C1086 C 0.05941 0.20285 0.75216 0.0
C1087 C 0.06589 0.18617 0.79151 0.0
C1088 C 0.05247 0.17343 0.82546 0.0
C1089 C 1.00666 0.08497 0.73601 0.0
C1090 C 1.00728 0.06986 0.79208 0.0
C1091 C 1.00623 0.10458 0.75917 0.0
C1092 C 1.00615 0.10968 0.83899 0.0
C1093 C 1.00709 0.09464 0.89513 0.0
C1094 C 1.00764 0.07501 0.87204 0.0
C1095 C 1.00484 0.13064 0.8634 0.0
C1096 C 0.01848 0.14407 0.83417 0.0
C1097 C 0.99026 0.13745 0.91548 0.0
C1098 C 0.97451 0.12454 0.94443 0.0
C1099 C 0.97129 0.12242 0.02543 0.0
C1100 C 0.95637 0.11036 0.05275 0.0
C1101 C 0.94452 0.10043 0.99957 0.0
C1102 C 0.94755 0.10251 0.91898 0.0
C1103 C 0.96242 0.11458 0.89136 0.0
H1104 H 0.93298 0.09111 0.02083 0.0
H1105 H 0.06983 0.2127 0.72593 0.0
H1106 H 0.28281 0.9892 0.92046 0.0
H1107 H 0.3139 0.9964 0.85635 0.0
H1108 H 0.33229 0.02851 0.0605 0.0
H1109 H 0.30101 0.02165 0.12359 0.0
H1110 H 0.34879 0.04389 0.93216 0.0
H1111 H 0.3405 0.98043 0.04006 0.0
H1112 H 0.32496 0.94848 0.05813 0.0
H1113 H 0.33763 0.93358 0.81911 0.0
H1114 H 0.35261 0.9658 0.79855 0.0
H1115 H 0.45156 0.02689 0.90728 0.0
H1116 H 0.41748 0.02717 0.94906 0.0
H1117 H 0.40069 0.99985 0.73192 0.0
H1118 H 0.43477 0.99962 0.68931 0.0
H1119 H 0.38322 0.98265 0.86269 0.0
H1120 H 0.39181 0.0473 0.75832 0.0
H1121 H 0.40791 0.07923 0.74672 0.0
H1122 H 0.39637 0.09084 0.9897 0.0
H1123 H 0.38044 0.05884 0.00304 0.0
C1124 C 0.29304 0.99874 0.94968 0.0
C1125 C 0.28928 1.00522 0.02639 0.0
C1126 C 0.31101 1.00256 0.91364 0.0
C1127 C 0.32576 0.01259 0.95422 0.0
C1128 C 0.32128 0.02068 0.0278 0.0
C1129 C 0.30325 0.01697 0.0636 0.0
C1130 C 0.34634 0.01269 0.92457 0.0
C1131 C 0.3563 0.03047 0.91741 0.0
C1132 C 0.35633 0.99519 0.90502 0.0
C1133 C 0.34744 0.97571 0.9174 0.0
C1134 C 0.33974 0.97048 0.99093 0.0
C1135 C 0.33102 0.9523 0.00165 0.0
C1136 C 0.33028 0.93901 0.93983 0.0
C1137 C 0.33819 0.94391 0.86698 0.0
C1138 C 0.34674 0.96216 0.85566 0.0
C1139 C 0.44066 0.02096 0.86816 0.0
C1140 C 0.44603 0.01329 0.79464 0.0
C1141 C 0.42111 0.0212 0.89213 0.0
C1142 C 0.40638 0.01367 0.84354 0.0
C1143 C 0.41171 1.00579 0.77052 0.0
C1144 C 0.43125 1.00574 0.74608 0.0
C1145 C 0.38551 0.01385 0.86922 0.0
C1146 C 0.37558 0.99607 0.87646 0.0
C1147 C 0.37565 0.03128 0.88989 0.0
C1148 C 0.38508 0.05059 0.88183 0.0
C1149 C 0.39283 0.0566 0.80943 0.0
C1150 C 0.40191 0.07472 0.80251 0.0
C1151 C 0.4032 0.08704 0.86748 0.0
C1152 C 0.39538 0.08128 0.93945 0.0
C1153 C 0.3863 0.06315 0.9467 0.0
H1154 H 0.41024 0.10107 0.86201 0.0
H1155 H 0.32362 0.9249 0.94844 0.0
H1156 H 0.52114 0.28785 0.90945 0.0
H1157 H 0.51502 0.31936 0.84651 0.0
H1158 H 0.47759 0.33579 0.03836 0.0
H1159 H 0.48341 0.30398 0.1004 0.0
H1160 H 0.46521 0.35263 0.90032 0.0
H1161 H 0.5244 0.34772 0.04587 0.0
H1162 H 0.55578 0.3332 0.08536 0.0
H1163 H 0.57797 0.34141 0.85244 0.0
H1164 H 0.54661 0.35586 0.81119 0.0
H1165 H 0.48262 0.45586 0.88763 0.0
H1166 H 0.48074 0.4216 0.92715 0.0
H1167 H 0.5135 0.40504 0.72226 0.0
H1168 H 0.51522 0.43928 0.6816 0.0
H1169 H 0.52744 0.38814 0.8642 0.0
H1170 H 0.46687 0.3956 0.72484 0.0
H1171 H 0.43528 0.4111 0.69488 0.0
H1172 H 0.4156 0.3994 0.92916 0.0
H1173 H 0.44719 0.38407 0.96089 0.0
C1174 C 0.5108 0.29779 0.93604 0.0
C1175 C 0.50251 0.29335 0.00918 0.0
C1176 C 0.50755 0.31595 0.90071 0.0
C1177 C 0.4962 0.3302 0.93847 0.0
C1178 C 0.48644 0.32512 0.00804 0.0
C1179 C 0.48963 0.30685 0.04322 0.0
C1180 C 0.49641 0.35086 0.9103 0.0
C1181 C 0.4788 0.36042 0.89301 0.0
C1182 C 0.51413 0.36116 0.90053 0.0
C1183 C 0.53309 0.35269 0.9252 0.0
C1184 C 0.53592 0.34632 0.00289 0.0
C1185 C 0.55371 0.33811 0.02565 0.0
C1186 C 0.56883 0.33629 0.97141 0.0
C1187 C 0.56622 0.34279 0.89435 0.0
C1188 C 0.54846 0.35102 0.87125 0.0
C1189 C 0.48936 0.44495 0.85064 0.0
C1190 C 0.49904 0.45039 0.78125 0.0
C1191 C 0.4882 0.42532 0.87326 0.0
C1192 C 0.49689 0.41067 0.82757 0.0
C1193 C 0.50664 0.41605 0.75843 0.0
C1194 C 0.50754 0.43565 0.7351 0.0
C1195 C 0.49626 0.38984 0.85315 0.0
C1196 C 0.51384 0.38029 0.8707 0.0
C1197 C 0.4785 0.37974 0.86451 0.0
C1198 C 0.45947 0.38885 0.84546 0.0
C1199 C 0.45587 0.39648 0.77019 0.0
C1200 C 0.43795 0.4052 0.75284 0.0
C1201 C 0.42346 0.40628 0.81014 0.0
C1202 C 0.42684 0.39857 0.88486 0.0
C1203 C 0.44475 0.38985 0.90253 0.0
H1204 H 0.4096 0.41304 0.79659 0.0
H1205 H 0.58257 0.32991 0.98918 0.0
H1206 H 0.22437 0.49294 0.01294 0.0
H1207 H 0.19477 0.48857 0.9334 0.0
H1208 H 0.18364 0.5504 0.94482 0.0
H1209 H 0.21329 0.55477 0.02121 0.0
H1210 H 0.15952 0.49307 0.97348 0.0
H1211 H 0.1537 0.56641 0.79273 0.0
H1212 H 0.17498 0.58812 0.71632 0.0
H1213 H 0.21763 0.54258 0.69678 0.0
H1214 H 0.19649 0.52041 0.77159 0.0
H1215 H 0.06105 0.51353 0.9015 0.0
H1216 H 0.09536 0.51449 0.93874 0.0
H1217 H 0.11173 0.515 0.69453 0.0
H1218 H 0.07736 0.515 0.65705 0.0
H1219 H 0.13545 0.53637 0.76134 0.0
H1220 H 0.11543 0.47239 0.82161 0.0
H1221 H 0.09496 0.4464 0.87761 0.0
H1222 H 0.10707 0.46719 0.11 0.0
H1223 H 0.12741 0.49347 0.05535 0.0
C1224 C 0.21594 0.50563 0.99601 0.0
C1225 C 0.22122 0.52419 0.02348 0.0
C1226 C 0.19886 0.50313 0.95128 0.0
C1227 C 0.18676 0.51914 0.93259 0.0
C1228 C 0.19267 0.53778 0.95678 0.0
C1229 C 0.20967 0.54026 1.001 0.0
C1230 C 0.16716 0.51638 0.8947 0.0
C1231 C 0.15438 0.50253 0.92683 0.0
C1232 C 0.16035 0.52826 0.83199 0.0
C1233 C 0.17351 0.54175 0.78889 0.0
C1234 C 0.16761 0.56098 0.77225 0.0
C1235 C 0.17966 0.57338 0.72912 0.0
C1236 C 0.1977 0.56677 0.7022 0.0
C1237 C 0.20372 0.54773 0.71828 0.0
C1238 C 0.19173 0.53526 0.76139 0.0
C1239 C 0.07193 0.51379 0.8556 0.0
C1240 C 0.06632 0.51394 0.7762 0.0
C1241 C 0.09167 0.51419 0.877 0.0
C1242 C 0.10646 0.5142 0.81972 0.0
C1243 C 0.10083 0.51478 0.74029 0.0
C1244 C 0.08106 0.51473 0.71883 0.0
C1245 C 0.12764 0.51378 0.84293 0.0
C1246 C 0.14069 0.52694 0.80785 0.0
C1247 C 0.13495 0.50083 0.901 0.0
C1248 C 0.12283 0.48499 0.93431 0.0
C1249 C 0.11364 0.47149 0.88464 0.0
C1250 C 0.10207 0.4567 0.91614 0.0
C1251 C 0.09969 0.45517 0.9973 0.0
C1252 C 0.10892 0.4684 0.04714 0.0
C1253 C 0.12049 0.48323 0.01594 0.0
H1254 H 0.09072 0.44372 0.02158 0.0
H1255 H 0.20698 0.57638 0.66865 0.0
H1256 H 0.99442 0.78647 0.43051 0.0
H1257 H 0.98875 0.81799 0.49349 0.0
H1258 H 0.04999 0.83121 0.47315 0.0
H1259 H 0.05596 0.79898 0.42212 0.0
H1260 H 0.04168 0.84973 0.58104 0.0
H1261 H 1.00782 0.84916 0.33492 0.0
H1262 H 0.98482 0.83811 0.23291 0.0
H1263 H 0.93726 0.84423 0.39423 0.0
H1264 H 0.95995 0.85556 0.49688 0.0
H1265 H 1.00038 0.95466 0.5137 0.0
H1266 H 1.003 0.92074 0.47059 0.0
H1267 H 0.0113 0.90243 0.71039 0.0
H1268 H 1.00905 0.93621 0.7538 0.0
H1269 H 0.98425 0.88771 0.49165 0.0
H1270 H 0.04407 0.86878 0.72334 0.0
H1271 H 0.07096 0.88646 0.78856 0.0
H1272 H 0.07463 0.9259 0.59425 0.0
H1273 H 0.04804 0.90845 0.52737 0.0
C1274 C 1.00676 0.79582 0.44206 0.0
C1275 C 0.02561 0.79014 0.41886 0.0
C1276 C 1.00344 0.81423 0.47632 0.0
C1277 C 0.01873 0.82782 0.48533 0.0
C1278 C 0.03768 0.82152 0.46689 0.0
C1279 C 0.04109 0.80293 0.43619 0.0
C1280 C 0.01525 0.84863 0.51165 0.0
C1281 C 0.02903 0.85779 0.56096 0.0
C1282 C 0.99922 0.86002 0.48464 0.0
C1283 C 0.98559 0.85293 0.42374 0.0
C1284 C 0.99247 0.84801 0.34871 0.0
C1285 C 0.9795 0.84173 0.29079 0.0
C1286 C 0.95964 0.84028 0.30732 0.0
C1287 C 0.95267 0.84528 0.38162 0.0
C1288 C 0.96555 0.8517 0.43958 0.0
C1289 C 1.00265 0.94343 0.55747 0.0
C1290 C 1.00457 0.94834 0.63738 0.0
C1291 C 1.00405 0.92396 0.53263 0.0
C1292 C 1.00748 0.90889 0.58693 0.0
C1293 C 1.00889 0.91371 0.66694 0.0
C1294 C 1.00754 0.93314 0.69179 0.0
C1295 C 0.01055 0.88829 0.56013 0.0
C1296 C 0.99676 0.87933 0.51128 0.0
C1297 C 0.02732 0.87757 0.58209 0.0
C1298 C 0.044 0.88736 0.62075 0.0
C1299 C 0.05074 0.88111 0.69435 0.0
C1300 C 0.06585 0.89113 0.73168 0.0
C1301 C 0.07443 0.90725 0.69576 0.0
C1302 C 0.06798 0.9134 0.62208 0.0
C1303 C 0.05289 0.90347 0.58448 0.0
H1304 H 0.08608 0.91496 0.72503 0.0
H1305 H 0.94963 0.83539 0.26242 0.0
H1306 H 0.73561 0.99734 0.50306 0.0
H1307 H 0.7051 1.00101 0.57751 0.0
H1308 H 0.67538 0.01838 0.36535 0.0
H1309 H 0.7057 0.01589 0.29301 0.0
H1310 H 0.6611 0.03841 0.47426 0.0
H1311 H 0.67632 0.96881 0.45545 0.0
H1312 H 0.69606 0.9394 0.48155 0.0
H1313 H 0.69122 0.94921 0.72937 0.0
H1314 H 0.67177 0.9789 0.70475 0.0
H1315 H 0.56269 0.01303 0.52151 0.0
H1316 H 0.59701 0.01357 0.48371 0.0
H1317 H 0.61379 1.00303 0.72353 0.0
H1318 H 0.57935 1.00293 0.76242 0.0
H1319 H 0.63633 0.98192 0.62535 0.0
H1320 H 0.61817 0.04838 0.64722 0.0
H1321 H 0.59787 0.07759 0.62571 0.0
H1322 H 0.6082 0.07403 0.37779 0.0
H1323 H 0.62834 0.04461 0.39767 0.0
C1324 C 0.72264 1.00236 0.47293 0.0
C1325 C 0.72312 1.00599 0.39163 0.0
C1326 C 0.70506 1.00418 0.5153 0.0
C1327 C 0.68755 1.00946 0.47709 0.0
C1328 C 0.68843 0.01412 0.39688 0.0
C1329 C 0.70588 0.01255 0.35514 0.0
C1330 C 0.66809 1.00975 0.51803 0.0
C1331 C 0.65573 0.02592 0.50662 0.0
C1332 C 0.66103 0.99393 0.56362 0.0
C1333 C 0.67283 0.97619 0.57822 0.0
C1334 C 0.67963 0.96478 0.51548 0.0
C1335 C 0.69076 0.94807 0.53004 0.0
C1336 C 0.69498 0.94251 0.60712 0.0
C1337 C 0.68804 0.95361 0.6698 0.0
C1338 C 0.67698 0.97038 0.65558 0.0
C1339 C 0.57363 0.01082 0.56648 0.0
C1340 C 0.56815 1.00809 0.64528 0.0
C1341 C 0.59333 0.01124 0.54477 0.0
C1342 C 0.60815 1.00879 0.60104 0.0
C1343 C 0.60272 1.00534 0.6793 0.0
C1344 C 0.58299 1.00526 0.7014 0.0
C1345 C 0.6292 1.01011 0.57775 0.0
C1346 C 0.64182 0.9944 0.59321 0.0
C1347 C 0.63657 0.02638 0.53617 0.0
C1348 C 0.62465 0.0442 0.5239 0.0
C1349 C 0.61601 0.05375 0.58805 0.0
C1350 C 0.60454 0.07035 0.57616 0.0
C1351 C 0.60171 0.07764 0.50041 0.0
C1352 C 0.6104 0.06836 0.43642 0.0
C1353 C 0.62186 0.05173 0.44797 0.0
H1354 H 0.59282 0.09049 0.49132 0.0
H1355 H 0.70357 0.92955 0.6183 0.0
H1356 H 0.48543 0.73045 0.39527 0.0
H1357 H 0.47917 0.69953 0.46387 0.0
H1358 H 0.53996 0.69564 0.52623 0.0
H1359 H 0.54603 0.72649 0.45925 0.0
H1360 H 0.49169 0.6655 0.42527 0.0
H1361 H 0.54831 0.66712 0.68047 0.0
H1362 H 0.56083 0.69019 0.77912 0.0
H1363 H 0.50814 0.72372 0.76256 0.0
H1364 H 0.49534 0.70096 0.66338 0.0
H1365 H 0.51665 0.56852 0.52759 0.0
H1366 H 0.51682 0.60291 0.48976 0.0
H1367 H 0.49263 0.61842 0.71457 0.0
H1368 H 0.49313 0.58421 0.75384 0.0
H1369 H 0.51811 0.64384 0.68191 0.0
H1370 H 0.46491 0.61776 0.53673 0.0
H1371 H 0.44802 0.5952 0.44718 0.0
H1372 H 0.48629 0.61174 0.25983 0.0
H1373 H 0.50356 0.63426 0.34841 0.0
C1374 C 0.49723 0.72337 0.42655 0.0
C1375 C 0.51615 0.73107 0.42304 0.0
C1376 C 0.49373 0.70554 0.46491 0.0
C1377 C 0.50905 0.69508 0.5009 0.0
C1378 C 0.52774 0.70339 0.50068 0.0
C1379 C 0.53123 0.72111 0.46234 0.0
C1380 C 0.50612 0.67471 0.53117 0.0
C1381 C 0.49738 0.66086 0.48168 0.0
C1382 C 0.51318 0.66844 0.60535 0.0
C1383 C 0.52094 0.6824 0.66396 0.0
C1384 C 0.53938 0.67941 0.69791 0.0
C1385 C 0.54653 0.69243 0.75392 0.0
C1386 C 0.53526 0.70836 0.77732 0.0
C1387 C 0.51687 0.71139 0.74428 0.0
C1388 C 0.50971 0.69849 0.68782 0.0
C1389 C 0.51133 0.57922 0.56902 0.0
C1390 C 0.50479 0.57343 0.64369 0.0
C1391 C 0.51133 0.59897 0.5471 0.0
C1392 C 0.50444 0.61346 0.59864 0.0
C1393 C 0.49803 0.60768 0.67343 0.0
C1394 C 0.49825 0.58799 0.69573 0.0
C1395 C 0.50411 0.63458 0.57514 0.0
C1396 C 0.5123 0.64853 0.62575 0.0
C1397 C 0.49603 0.64105 0.50298 0.0
C1398 C 0.48563 0.62758 0.44942 0.0
C1399 C 0.46981 0.6165 0.47657 0.0
C1400 C 0.46015 0.60373 0.42598 0.0
C1401 C 0.46611 0.602 0.34798 0.0
C1402 C 0.4817 0.61308 0.3203 0.0
C1403 C 0.49141 0.62587 0.37064 0.0
H1404 H 0.45862 0.5921 0.30893 0.0
H1405 H 0.54077 0.71835 0.82104 0.0
H1406 H 0.80082 0.50471 0.31177 0.0
H1407 H 0.83125 0.50034 0.38379 0.0
H1408 H 0.80948 0.53719 0.56887 0.0
H1409 H 0.77892 0.54184 0.49529 0.0
H1410 H 0.84447 0.54883 0.52755 0.0
H1411 H 0.81869 0.48695 0.59677 0.0
H1412 H 0.80302 0.45511 0.57557 0.0
H1413 H 0.85002 0.43768 0.42517 0.0
H1414 H 0.86586 0.46952 0.44459 0.0
H1415 H 0.93339 0.52359 0.75416 0.0
H1416 H 0.89865 0.52544 0.71807 0.0
H1417 H 0.9129 0.50868 0.48153 0.0
H1418 H 0.94751 0.50765 0.51601 0.0
H1419 H 0.88021 0.48676 0.56783 0.0
H1420 H 0.90527 0.54979 0.49785 0.0
H1421 H 0.91986 0.5821 0.5172 0.0
H1422 H 0.87251 0.59841 0.66773 0.0
H1423 H 0.85806 0.56582 0.65233 0.0
C1424 C 0.80224 0.51133 0.36912 0.0
C1425 C 0.7873 0.52338 0.39834 0.0
C1426 C 0.81973 0.50886 0.41043 0.0
C1427 C 0.82284 0.5183 0.48253 0.0
C1428 C 0.80755 0.52967 0.51361 0.0
C1429 C 0.78995 0.53213 0.47208 0.0
C1430 C 0.84257 0.5176 0.52103 0.0
C1431 C 0.85208 0.53521 0.53824 0.0
C1432 C 0.85284 0.49989 0.5335 0.0
C1433 C 0.8434 0.48069 0.52176 0.0
C1434 C 0.82562 0.47638 0.55873 0.0
C1435 C 0.81672 0.45832 0.54711 0.0
C1436 C 0.8255 0.44439 0.49894 0.0
C1437 C 0.84323 0.44848 0.46244 0.0
C1438 C 0.85219 0.46653 0.47384 0.0
C1439 C 0.92912 0.5204 0.69436 0.0
C1440 C 0.94332 0.51561 0.63781 0.0
C1441 C 0.90924 0.5215 0.67379 0.0
C1442 C 0.90312 0.51731 0.59683 0.0
C1443 C 0.91723 0.51207 0.54109 0.0
C1444 C 0.93706 0.51154 0.5609 0.0
C1445 C 0.88207 0.51799 0.57374 0.0
C1446 C 0.8724 0.50035 0.55893 0.0
C1447 C 0.87164 0.5357 0.56388 0.0
C1448 C 0.88087 0.55503 0.57588 0.0
C1449 C 0.89824 0.55998 0.53707 0.0
C1450 C 0.90644 0.57844 0.54695 0.0
C1451 C 0.89721 0.59225 0.59422 0.0
C1452 C 0.87971 0.58767 0.63142 0.0
C1453 C 0.87158 0.56915 0.62254 0.0
H1454 H 0.90354 0.60656 0.60155 0.0
H1455 H 0.81858 0.43042 0.49001 0.0
loop_
_geom_bond_atom_site_label_1
_geom_bond_atom_site_label_2
_geom_bond_distance
_geom_bond_site_symmetry_2
_ccdc_geom_bond_type
H0 C5 0.930 . S
H1 C8 0.930 . S
H2 C10 0.930 . S
H3 C4 1.016 . S
C4 H3 1.016 . S
C4 N11 1.286 . S
C5 H0 0.930 . S
C5 C6 1.397 . S
C5 C7 1.361 . S
C6 C5 1.397 . S
C6 C10 1.390 . S
C7 C5 1.361 . S
C7 C8 1.393 . S
C7 N11 1.413 . S
C8 H1 0.930 . S
C8 C7 1.393 . S
C8 C9 1.399 . S
C9 C8 1.399 . S
C9 C10 1.381 . S
C10 H2 0.930 . S
C10 C6 1.390 . S
C10 C9 1.381 . S
N11 C4 1.286 . S
N11 C7 1.413 . S
H12 C17 0.930 . S
H13 C20 0.930 . S
H14 C22 0.930 . S
H15 C16 1.032 . S
C16 H15 1.032 . S
C16 N23 1.265 1_655 S
C17 H12 0.930 . S
C17 C18 1.405 . S
C17 C19 1.361 . S
C18 C17 1.405 . S
C18 C22 1.386 1_455 S
C19 C17 1.361 . S
C19 C20 1.393 . S
C19 N23 1.413 . S
C20 H13 0.930 . S
C20 C19 1.393 . S
C20 C21 1.400 . S
C21 C20 1.400 . S
C21 C22 1.380 1_455 S
C22 H14 0.930 . S
C22 C18 1.386 1_655 S
C22 C21 1.380 1_655 S
N23 C16 1.265 1_455 S
N23 C19 1.413 . S
H24 C29 0.930 . S
H25 C32 0.930 . S
H26 C34 0.930 . S
H27 C28 1.016 . S
C28 H27 1.016 . S
C28 N35 1.286 1_565 S
C29 H24 0.930 . S
C29 C30 1.398 . S
C29 C31 1.361 . S
C30 C29 1.398 . S
C30 C34 1.389 1_545 S
C31 C29 1.361 . S
C31 C32 1.393 . S
C31 N35 1.413 . S
C32 H25 0.930 . S
C32 C31 1.393 . S
C32 C33 1.397 1_545 S
C33 C32 1.397 1_565 S
C33 C34 1.382 . S
C34 H26 0.930 . S
C34 C30 1.389 1_565 S
C34 C33 1.382 . S
N35 C28 1.286 1_545 S
N35 C31 1.413 . S
H36 C41 0.930 . S
H37 C44 0.930 . S
H38 C46 0.930 . S
H39 C40 1.016 . S
C40 H39 1.016 . S
C40 N47 1.286 . S
C41 H36 0.930 . S
C41 C42 1.397 . S
C41 C43 1.361 . S
C42 C41 1.397 . S
C42 C46 1.390 . S
C43 C41 1.361 . S
C43 C44 1.393 . S
C43 N47 1.413 . S
C44 H37 0.930 . S
C44 C43 1.393 . S
C44 C45 1.399 . S
C45 C44 1.399 . S
C45 C46 1.381 . S
C46 H38 0.930 . S
C46 C42 1.390 . S
C46 C45 1.381 . S
N47 C40 1.286 . S
N47 C43 1.413 . S
H48 C53 0.930 . S
H49 C56 0.930 . S
H50 C58 0.930 . S
H51 C52 1.016 . S
C52 H51 1.016 . S
C52 N59 1.286 . S
C53 H48 0.930 . S
C53 C54 1.397 . S
C53 C55 1.361 1_556 S
C54 C53 1.397 . S
C54 C58 1.390 1_556 S
C55 C53 1.361 1_554 S
C55 C56 1.393 . S
C55 N59 1.413 . S
C56 H49 0.930 . S
C56 C55 1.393 . S
C56 C57 1.399 . S
C57 C56 1.399 . S
C57 C58 1.381 . S
C58 H50 0.930 . S
C58 C54 1.390 1_554 S
C58 C57 1.381 . S
N59 C52 1.286 . S
N59 C55 1.413 . S
H60 C65 0.930 . S
H61 C68 0.930 . S
H62 C70 0.930 . S
H63 C64 1.001 1_655 S
C64 H63 1.001 1_455 S
C64 N71 1.312 . S
C65 H60 0.930 . S
C65 C66 1.397 . S
C65 C67 1.361 1_556 S
C66 C65 1.397 . S
C66 C70 1.390 1_456 S
C67 C65 1.361 1_554 S
C67 C68 1.393 . S
C67 N71 1.413 . S
C68 H61 0.930 . S
C68 C67 1.393 . S
C68 C69 1.399 . S
C69 C68 1.399 . S
C69 C70 1.381 1_455 S
C70 H62 0.930 . S
C70 C66 1.390 1_654 S
C70 C69 1.381 1_655 S
N71 C64 1.312 . S
N71 C67 1.413 . S
H72 C77 0.930 . S
H73 C80 0.930 . S
H74 C82 0.934 . S
H75 C76 1.006 1_565 S
C76 H75 1.006 1_545 S
C76 N83 1.303 . S
C77 H72 0.930 . S
C77 C78 1.397 . S
C77 C79 1.361 1_556 S
C78 C77 1.397 . S
C78 C82 1.388 1_546 S
C79 C77 1.361 1_554 S
C79 C80 1.393 . S
C79 N83 1.413 . S
C80 H73 0.930 . S
C80 C79 1.393 . S
C80 C81 1.399 . S
C81 C80 1.399 . S
C81 C82 1.379 1_545 S
C82 H74 0.934 . S
C82 C78 1.388 1_564 S
C82 C81 1.379 1_565 S
N83 C76 1.303 . S
N83 C79 1.413 . S
H84 C89 0.930 . S
H85 C92 0.930 . S
H86 C94 0.930 . S
H87 C88 1.016 . S
C88 H87 1.016 . S
C88 N95 1.286 . S
C89 H84 0.930 . S
C89 C90 1.397 . S
C89 C91 1.361 1_556 S
C90 C89 1.397 . S
C90 C94 1.390 1_556 S
C91 C89 1.361 1_554 S
C91 C92 1.393 . S
C91 N95 1.413 . S
C92 H85 0.930 . S
C92 C91 1.393 . S
C92 C93 1.399 . S
C93 C92 1.399 . S
C93 C94 1.381 . S
C94 H86 0.930 . S
C94 C90 1.390 1_554 S
C94 C93 1.381 . S
N95 C88 1.286 . S
N95 C91 1.413 . S
Sm96 C98 2.846 . S
Sm96 O116 2.546 . S
Sm96 O117 2.450 . S
Sm96 O118 2.681 1_565 S
Sm96 O119 2.464 . S
Sm96 O120 2.396 . S
Sm96 O124 2.386 1_455 S
Sm96 O127 2.408 1_565 S
Sm97 C107 2.846 . S
Sm97 O118 2.386 1_655 S
Sm97 O121 2.408 1_545 S
Sm97 O122 2.543 1_655 S
Sm97 O123 2.450 . S
Sm97 O124 2.681 1_545 S
Sm97 O125 2.464 . S
Sm97 O126 2.396 . S
C98 Sm96 2.846 . S
C98 C99 1.506 . S
C98 O116 1.268 . S
C98 O117 1.242 . S
C99 C98 1.506 . S
C99 C100 1.358 . S
C99 C104 1.382 . S
C100 C99 1.358 . S
C100 C101 1.385 . S
C100 H128 0.930 1_455 S
C101 C100 1.385 . S
C101 C102 1.395 . S
C101 H129 0.929 1_455 S
C102 C101 1.395 . S
C102 C103 1.335 . S
C103 C102 1.335 . S
C103 C104 1.398 . S
C103 H130 0.930 . S
C104 C99 1.382 . S
C104 C103 1.398 . S
C104 H131 0.929 . S
C105 O118 1.260 1_565 S
C105 O119 1.271 . S
C106 O120 1.252 1_655 S
C106 O121 1.272 . S
C107 Sm97 2.846 . S
C107 C108 1.506 . S
C107 O122 1.261 1_655 S
C107 O123 1.242 . S
C108 C107 1.506 . S
C108 C109 1.358 . S
C108 C113 1.382 . S
C109 C108 1.358 . S
C109 C110 1.385 . S
C109 H132 0.930 1_655 S
C110 C109 1.385 . S
C110 C111 1.395 . S
C110 H133 0.929 1_655 S
C111 C110 1.395 . S
C111 C112 1.335 . S
C112 C111 1.335 . S
C112 C113 1.398 . S
C112 H134 0.930 . S
C113 C108 1.382 . S
C113 C112 1.398 . S
C113 H135 0.929 . S
C114 O124 1.271 1_545 S
C114 O125 1.251 . S
C115 O126 1.252 1_455 S
C115 O127 1.272 . S
O116 Sm96 2.546 . S
O116 C98 1.268 . S
O117 Sm96 2.450 . S
O117 C98 1.242 . S
O118 Sm96 2.681 1_545 S
O118 Sm97 2.386 1_455 S
O118 C105 1.260 1_545 S
O119 Sm96 2.464 . S
O119 C105 1.271 . S
O120 Sm96 2.396 . S
O120 C106 1.252 1_455 S
O121 Sm97 2.408 1_565 S
O121 C106 1.272 . S
O122 Sm97 2.543 1_455 S
O122 C107 1.261 1_455 S
O123 Sm97 2.450 . S
O123 C107 1.242 . S
O124 Sm96 2.386 1_655 S
O124 Sm97 2.681 1_565 S
O124 C114 1.271 1_565 S
O125 Sm97 2.464 . S
O125 C114 1.251 . S
O126 Sm97 2.396 . S
O126 C115 1.252 1_655 S
O127 Sm96 2.408 1_545 S
O127 C115 1.272 . S
H128 C100 0.930 1_655 S
H129 C101 0.929 1_655 S
H130 C103 0.930 . S
H131 C104 0.929 . S
H132 C109 0.930 1_455 S
H133 C110 0.929 1_455 S
H134 C112 0.930 . S
H135 C113 0.929 . S
Sm136 C138 2.846 . S
Sm136 O156 2.541 1_545 S
Sm136 O157 2.450 . S
Sm136 O158 2.681 . S
Sm136 O159 2.464 . S
Sm136 O160 2.396 . S
Sm136 O164 2.386 1_545 S
Sm136 O167 2.408 . S
Sm137 C147 2.846 . S
Sm137 O158 2.386 1_565 S
Sm137 O161 2.408 . S
Sm137 O162 2.526 1_565 S
Sm137 O163 2.450 . S
Sm137 O164 2.681 . S
Sm137 O165 2.464 . S
Sm137 O166 2.396 . S
C138 Sm136 2.846 . S
C138 C139 1.506 . S
C138 O156 1.257 1_545 S
C138 O157 1.242 . S
C139 C138 1.506 . S
C139 C140 1.358 . S
C139 C144 1.382 . S
C140 C139 1.358 . S
C140 C141 1.385 . S
C140 H168 0.930 1_545 S
C141 C140 1.385 . S
C141 C142 1.395 . S
C141 H169 0.929 1_545 S
C142 C141 1.395 . S
C142 C143 1.335 . S
C143 C142 1.335 . S
C143 C144 1.398 . S
C143 H170 0.930 . S
C144 C139 1.382 . S
C144 C143 1.398 . S
C144 H171 0.929 . S
C145 O158 1.271 . S
C145 O159 1.251 . S
C146 O160 1.252 1_565 S
C146 O161 1.272 . S
C147 Sm137 2.846 . S
C147 C148 1.506 . S
C147 O162 1.221 1_565 S
C147 O163 1.242 . S
C148 C147 1.506 . S
C148 C149 1.358 . S
C148 C153 1.382 . S
C149 C148 1.358 . S
C149 C150 1.385 . S
C149 H172 0.930 1_565 S
C150 C149 1.385 . S
C150 C151 1.395 . S
C150 H173 0.929 1_565 S
C151 C150 1.395 . S
C151 C152 1.335 . S
C152 C151 1.335 . S
C152 C153 1.398 . S
C152 H174 0.930 . S
C153 C148 1.382 . S
C153 C152 1.398 . S
C153 H175 0.929 . S
C154 O164 1.271 . S
C154 O165 1.251 . S
C155 O166 1.252 1_545 S
C155 O167 1.272 . S
O156 Sm136 2.541 1_565 S
O156 C138 1.257 1_565 S
O157 Sm136 2.450 . S
O157 C138 1.242 . S
O158 Sm136 2.681 . S
O158 Sm137 2.386 1_545 S
O158 C145 1.271 . S
O159 Sm136 2.464 . S
O159 C145 1.251 . S
O160 Sm136 2.396 . S
O160 C146 1.252 1_545 S
O161 Sm137 2.408 . S
O161 C146 1.272 . S
O162 Sm137 2.526 1_545 S
O162 C147 1.221 1_545 S
O163 Sm137 2.450 . S
O163 C147 1.242 . S
O164 Sm136 2.386 1_565 S
O164 Sm137 2.681 . S
O164 C154 1.271 . S
O165 Sm137 2.464 . S
O165 C154 1.251 . S
O166 Sm137 2.396 . S
O166 C155 1.252 1_565 S
O167 Sm136 2.408 . S
O167 C155 1.272 . S
H168 C140 0.930 1_565 S
H169 C141 0.929 1_565 S
H170 C143 0.930 . S
H171 C144 0.929 . S
H172 C149 0.930 1_545 S
H173 C150 0.929 1_545 S
H174 C152 0.930 . S
H175 C153 0.929 . S
Sm176 C178 2.846 . S
Sm176 O196 2.543 . S
Sm176 O197 2.450 . S
Sm176 O198 2.681 . S
Sm176 O199 2.464 . S
Sm176 O200 2.396 . S
Sm176 O204 2.386 . S
Sm176 O207 2.408 . S
Sm177 C187 2.846 . S
Sm177 O198 2.386 . S
Sm177 O201 2.408 . S
Sm177 O202 2.543 . S
Sm177 O203 2.450 . S
Sm177 O204 2.681 . S
Sm177 O205 2.464 . S
Sm177 O206 2.396 . S
C178 Sm176 2.846 . S
C178 C179 1.506 . S
C178 O196 1.261 . S
C178 O197 1.242 . S
C179 C178 1.506 . S
C179 C180 1.358 . S
C179 C184 1.382 . S
C180 C179 1.358 . S
C180 C181 1.385 . S
C180 H208 0.930 . S
C181 C180 1.385 . S
C181 C182 1.395 . S
C181 H209 0.929 . S
C182 C181 1.395 . S
C182 C183 1.335 . S
C183 C182 1.335 . S
C183 C184 1.398 . S
C183 H210 0.930 . S
C184 C179 1.382 . S
C184 C183 1.398 . S
C184 H211 0.929 . S
C185 O198 1.271 . S
C185 O199 1.251 . S
C186 O200 1.252 . S
C186 O201 1.272 . S
C187 Sm177 2.846 . S
C187 C188 1.506 . S
C187 O202 1.261 . S
C187 O203 1.242 . S
C188 C187 1.506 . S
C188 C189 1.358 . S
C188 C193 1.382 . S
C189 C188 1.358 . S
C189 C190 1.385 . S
C189 H212 0.930 . S
C190 C189 1.385 . S
C190 C191 1.395 . S
C190 H213 0.929 . S
C191 C190 1.395 . S
C191 C192 1.335 . S
C192 C191 1.335 . S
C192 C193 1.398 . S
C192 H214 0.930 . S
C193 C188 1.382 . S
C193 C192 1.398 . S
C193 H215 0.929 . S
C194 O204 1.271 . S
C194 O205 1.251 . S
C195 O206 1.252 . S
C195 O207 1.272 . S
O196 Sm176 2.543 . S
O196 C178 1.261 . S
O197 Sm176 2.450 . S
O197 C178 1.242 . S
O198 Sm176 2.681 . S
O198 Sm177 2.386 . S
O198 C185 1.271 . S
O199 Sm176 2.464 . S
O199 C185 1.251 . S
O200 Sm176 2.396 . S
O200 C186 1.252 . S
O201 Sm177 2.408 . S
O201 C186 1.272 . S
O202 Sm177 2.543 . S
O202 C187 1.261 . S
O203 Sm177 2.450 . S
O203 C187 1.242 . S
O204 Sm176 2.386 . S
O204 Sm177 2.681 . S
O204 C194 1.271 . S
O205 Sm177 2.464 . S
O205 C194 1.251 . S
O206 Sm177 2.396 . S
O206 C195 1.252 . S
O207 Sm176 2.408 . S
O207 C195 1.272 . S
H208 C180 0.930 . S
H209 C181 0.929 . S
H210 C183 0.930 . S
H211 C184 0.929 . S
H212 C189 0.930 . S
H213 C190 0.929 . S
H214 C192 0.930 . S
H215 C193 0.929 . S
Sm216 C218 2.846 . S
Sm216 O236 2.543 . S
Sm216 O237 2.450 . S
Sm216 O238 2.681 1_655 S
Sm216 O239 2.464 . S
Sm216 O240 2.396 . S
Sm216 O244 2.386 . S
Sm216 O247 2.408 1_655 S
Sm217 C227 2.846 . S
Sm217 O238 2.386 . S
Sm217 O241 2.408 1_455 S
Sm217 O242 2.543 . S
Sm217 O243 2.450 . S
Sm217 O244 2.681 1_455 S
Sm217 O245 2.464 . S
Sm217 O246 2.396 . S
C218 Sm216 2.846 . S
C218 C219 1.506 . S
C218 O236 1.261 . S
C218 O237 1.242 . S
C219 C218 1.506 . S
C219 C220 1.358 . S
C219 C224 1.382 . S
C220 C219 1.358 . S
C220 C221 1.385 . S
C220 H248 0.930 . S
C221 C220 1.385 . S
C221 C222 1.395 . S
C221 H249 0.929 . S
C222 C221 1.395 . S
C222 C223 1.335 . S
C223 C222 1.335 . S
C223 C224 1.398 . S
C223 H250 0.930 . S
C224 C219 1.382 . S
C224 C223 1.398 . S
C224 H251 0.929 . S
C225 O238 1.267 1_655 S
C225 O239 1.258 . S
C226 O240 1.252 . S
C226 O241 1.272 . S
C227 Sm217 2.846 . S
C227 C228 1.506 . S
C227 O242 1.261 . S
C227 O243 1.242 . S
C228 C227 1.506 . S
C228 C229 1.358 . S
C228 C233 1.382 . S
C229 C228 1.358 . S
C229 C230 1.385 . S
C229 H252 0.930 . S
C230 C229 1.385 . S
C230 C231 1.395 . S
C230 H253 0.929 . S
C231 C230 1.395 . S
C231 C232 1.335 . S
C232 C231 1.335 . S
C232 C233 1.398 . S
C232 H254 0.930 . S
C233 C228 1.382 . S
C233 C232 1.398 . S
C233 H255 0.929 . S
C234 O244 1.271 1_455 S
C234 O245 1.251 . S
C235 O246 1.252 . S
C235 O247 1.272 . S
O236 Sm216 2.543 . S
O236 C218 1.261 . S
O237 Sm216 2.450 . S
O237 C218 1.242 . S
O238 Sm216 2.681 1_455 S
O238 Sm217 2.386 . S
O238 C225 1.267 1_455 S
O239 Sm216 2.464 . S
O239 C225 1.258 . S
O240 Sm216 2.396 . S
O240 C226 1.252 . S
O241 Sm217 2.408 1_655 S
O241 C226 1.272 . S
O242 Sm217 2.543 . S
O242 C227 1.261 . S
O243 Sm217 2.450 . S
O243 C227 1.242 . S
O244 Sm216 2.386 . S
O244 Sm217 2.681 1_655 S
O244 C234 1.271 1_655 S
O245 Sm217 2.464 . S
O245 C234 1.251 . S
O246 Sm217 2.396 . S
O246 C235 1.252 . S
O247 Sm216 2.408 1_455 S
O247 C235 1.272 . S
H248 C220 0.930 . S
H249 C221 0.929 . S
H250 C223 0.930 . S
H251 C224 0.929 . S
H252 C229 0.930 . S
H253 C230 0.929 . S
H254 C232 0.930 . S
H255 C233 0.929 . S
H256 C274 0.951 . S
H257 C276 0.951 . S
H258 C278 0.950 . S
H259 C279 0.950 . S
H260 C281 0.950 . S
H261 C284 0.950 . S
H262 C285 0.950 . S
H263 C287 0.950 . S
H264 C288 0.950 . S
H265 C289 0.951 . S
H266 C291 0.951 . S
H267 C293 0.950 . S
H268 C294 0.950 . S
H269 C296 0.950 . S
H270 C299 0.950 . S
H271 C300 0.950 . S
H272 C302 0.950 . S
H273 C303 0.950 . S
C274 H256 0.951 . S
C274 C275 1.366 . S
C274 C276 1.388 . S
C275 C274 1.366 . S
C275 C279 1.385 1_545 S
C276 H257 0.951 . S
C276 C274 1.388 . S
C276 C277 1.366 . S
C277 C276 1.366 . S
C277 C278 1.414 1_545 S
C277 C280 1.499 . S
C278 H258 0.950 . S
C278 C277 1.414 1_565 S
C278 C279 1.374 . S
C279 H259 0.950 . S
C279 C275 1.385 1_565 S
C279 C278 1.374 . S
C280 C277 1.499 . S
C280 C281 1.373 1_545 S
C280 C282 1.389 . S
C281 H260 0.950 . S
C281 C280 1.373 1_565 S
C281 C297 1.377 . S
C282 C280 1.389 . S
C282 C283 1.524 . S
C282 C296 1.377 . S
C283 C282 1.524 . S
C283 C284 1.397 . S
C283 C288 1.363 . S
C284 H261 0.950 . S
C284 C283 1.397 . S
C284 C285 1.334 . S
C285 H262 0.950 . S
C285 C284 1.334 . S
C285 C286 1.287 . S
C286 C285 1.287 . S
C286 C287 1.524 . S
C286 H305 0.913 . S
C287 H263 0.950 . S
C287 C286 1.524 . S
C287 C288 1.415 . S
C288 H264 0.950 . S
C288 C283 1.363 . S
C288 C287 1.415 . S
C289 H265 0.951 . S
C289 C290 1.366 1_565 S
C289 C291 1.388 . S
C290 C289 1.366 1_545 S
C290 C294 1.385 . S
C291 H266 0.951 . S
C291 C289 1.388 . S
C291 C292 1.344 1_565 S
C292 C291 1.344 1_545 S
C292 C293 1.438 . S
C292 C295 1.498 . S
C293 H267 0.950 . S
C293 C292 1.438 . S
C293 C294 1.374 . S
C294 H268 0.950 . S
C294 C290 1.385 . S
C294 C293 1.374 . S
C295 C292 1.498 . S
C295 C296 1.427 . S
C295 C297 1.339 1_545 S
C296 H269 0.950 . S
C296 C282 1.377 . S
C296 C295 1.427 . S
C297 C281 1.377 . S
C297 C295 1.339 1_565 S
C297 C298 1.524 . S
C298 C297 1.524 . S
C298 C299 1.397 . S
C298 C303 1.363 . S
C299 H270 0.950 . S
C299 C298 1.397 . S
C299 C300 1.334 . S
C300 H271 0.950 . S
C300 C299 1.334 . S
C300 C301 1.287 . S
C301 C300 1.287 . S
C301 C302 1.524 . S
C301 H304 0.999 . S
C302 H272 0.950 . S
C302 C301 1.524 . S
C302 C303 1.415 . S
C303 H273 0.950 . S
C303 C298 1.363 . S
C303 C302 1.415 . S
H304 C301 0.999 . S
H305 C286 0.913 . S
H306 C324 0.951 . S
H307 C326 0.951 . S
H308 C328 0.950 . S
H309 C329 0.950 . S
H310 C331 0.950 . S
H311 C334 0.950 . S
H312 C335 0.950 . S
H313 C337 0.950 . S
H314 C338 0.950 . S
H315 C339 0.951 . S
H316 C341 0.951 . S
H317 C343 0.950 . S
H318 C344 0.950 . S
H319 C346 0.950 . S
H320 C349 0.950 . S
H321 C350 0.950 . S
H322 C352 0.950 . S
H323 C353 0.950 . S
C324 H306 0.951 . S
C324 C325 1.366 . S
C324 C326 1.388 . S
C325 C324 1.366 . S
C325 C329 1.385 . S
C326 H307 0.951 . S
C326 C324 1.388 . S
C326 C327 1.366 . S
C327 C326 1.366 . S
C327 C328 1.414 . S
C327 C330 1.499 . S
C328 H308 0.950 . S
C328 C327 1.414 . S
C328 C329 1.374 . S
C329 H309 0.950 . S
C329 C325 1.385 . S
C329 C328 1.374 . S
C330 C327 1.499 . S
C330 C331 1.373 . S
C330 C332 1.389 . S
C331 H310 0.950 . S
C331 C330 1.373 . S
C331 C347 1.377 . S
C332 C330 1.389 . S
C332 C333 1.524 . S
C332 C346 1.377 . S
C333 C332 1.524 . S
C333 C334 1.397 . S
C333 C338 1.363 . S
C334 H311 0.950 . S
C334 C333 1.397 . S
C334 C335 1.334 . S
C335 H312 0.950 . S
C335 C334 1.334 . S
C335 C336 1.287 . S
C336 C335 1.287 . S
C336 C337 1.524 . S
C336 H355 0.913 . S
C337 H313 0.950 . S
C337 C336 1.524 . S
C337 C338 1.415 . S
C338 H314 0.950 . S
C338 C333 1.363 . S
C338 C337 1.415 . S
C339 H315 0.951 . S
C339 C340 1.366 . S
C339 C341 1.388 . S
C340 C339 1.366 . S
C340 C344 1.385 . S
C341 H316 0.951 . S
C341 C339 1.388 . S
C341 C342 1.366 . S
C342 C341 1.366 . S
C342 C343 1.414 . S
C342 C345 1.499 . S
C343 H317 0.950 . S
C343 C342 1.414 . S
C343 C344 1.374 . S
C344 H318 0.950 . S
C344 C340 1.385 . S
C344 C343 1.374 . S
C345 C342 1.499 . S
C345 C346 1.373 . S
C345 C347 1.389 . S
C346 H319 0.950 . S
C346 C332 1.377 . S
C346 C345 1.373 . S
C347 C331 1.377 . S
C347 C345 1.389 . S
C347 C348 1.524 . S
C348 C347 1.524 . S
C348 C349 1.397 . S
C348 C353 1.363 . S
C349 H320 0.950 . S
C349 C348 1.397 . S
C349 C350 1.334 . S
C350 H321 0.950 . S
C350 C349 1.334 . S
C350 C351 1.287 . S
C351 C350 1.287 . S
C351 C352 1.524 . S
C351 H354 0.999 . S
C352 H322 0.950 . S
C352 C351 1.524 . S
C352 C353 1.415 . S
C353 H323 0.950 . S
C353 C348 1.363 . S
C353 C352 1.415 . S
H354 C351 0.999 . S
H355 C336 0.913 . S
H356 C374 0.951 . S
H357 C376 0.951 . S
H358 C378 0.950 . S
H359 C379 0.950 . S
H360 C381 0.950 . S
H361 C384 0.950 . S
H362 C385 0.950 . S
H363 C387 0.950 . S
H364 C388 0.950 . S
H365 C389 0.951 . S
H366 C391 0.951 . S
H367 C393 0.950 . S
H368 C394 0.950 . S
H369 C396 0.950 . S
H370 C399 0.950 . S
H371 C400 0.950 . S
H372 C402 0.950 . S
H373 C403 0.950 . S
C374 H356 0.951 . S
C374 C375 1.366 . S
C374 C376 1.388 . S
C375 C374 1.366 . S
C375 C379 1.385 . S
C376 H357 0.951 . S
C376 C374 1.388 . S
C376 C377 1.366 . S
C377 C376 1.366 . S
C377 C378 1.414 . S
C377 C380 1.499 . S
C378 H358 0.950 . S
C378 C377 1.414 . S
C378 C379 1.374 . S
C379 H359 0.950 . S
C379 C375 1.385 . S
C379 C378 1.374 . S
C380 C377 1.499 . S
C380 C381 1.373 . S
C380 C382 1.389 . S
C381 H360 0.950 . S
C381 C380 1.373 . S
C381 C397 1.377 . S
C382 C380 1.389 . S
C382 C383 1.524 . S
C382 C396 1.377 . S
C383 C382 1.524 . S
C383 C384 1.397 . S
C383 C388 1.363 . S
C384 H361 0.950 . S
C384 C383 1.397 . S
C384 C385 1.334 . S
C385 H362 0.950 . S
C385 C384 1.334 . S
C385 C386 1.287 . S
C386 C385 1.287 . S
C386 C387 1.524 . S
C386 H405 0.913 . S
C387 H363 0.950 . S
C387 C386 1.524 . S
C387 C388 1.415 . S
C388 H364 0.950 . S
C388 C383 1.363 . S
C388 C387 1.415 . S
C389 H365 0.951 . S
C389 C390 1.366 . S
C389 C391 1.388 . S
C390 C389 1.366 . S
C390 C394 1.385 . S
C391 H366 0.951 . S
C391 C389 1.388 . S
C391 C392 1.366 . S
C392 C391 1.366 . S
C392 C393 1.414 . S
C392 C395 1.499 . S
C393 H367 0.950 . S
C393 C392 1.414 . S
C393 C394 1.374 . S
C394 H368 0.950 . S
C394 C390 1.385 . S
C394 C393 1.374 . S
C395 C392 1.499 . S
C395 C396 1.373 . S
C395 C397 1.389 . S
C396 H369 0.950 . S
C396 C382 1.377 . S
C396 C395 1.373 . S
C397 C381 1.377 . S
C397 C395 1.389 . S
C397 C398 1.524 . S
C398 C397 1.524 . S
C398 C399 1.397 . S
C398 C403 1.363 . S
C399 H370 0.950 . S
C399 C398 1.397 . S
C399 C400 1.334 . S
C400 H371 0.950 . S
C400 C399 1.334 . S
C400 C401 1.287 . S
C401 C400 1.287 . S
C401 C402 1.524 . S
C401 H404 0.999 . S
C402 H372 0.950 . S
C402 C401 1.524 . S
C402 C403 1.415 . S
C403 H373 0.950 . S
C403 C398 1.363 . S
C403 C402 1.415 . S
H404 C401 0.999 . S
H405 C386 0.913 . S
H406 C424 0.951 . S
H407 C426 0.951 . S
H408 C428 0.950 . S
H409 C429 0.950 . S
H410 C431 0.950 . S
H411 C434 0.950 1_655 S
H412 C435 0.950 . S
H413 C437 0.950 . S
H414 C438 0.950 . S
H415 C439 0.951 . S
H416 C441 0.951 . S
H417 C443 0.950 . S
H418 C444 0.950 . S
H419 C446 0.950 . S
H420 C449 0.950 1_455 S
H421 C450 0.950 . S
H422 C452 0.950 . S
H423 C453 0.950 . S
C424 H406 0.951 . S
C424 C425 1.366 . S
C424 C426 1.388 . S
C425 C424 1.366 . S
C425 C429 1.385 1_455 S
C426 H407 0.951 . S
C426 C424 1.388 . S
C426 C427 1.366 . S
C427 C426 1.366 . S
C427 C428 1.414 1_455 S
C427 C430 1.501 . S
C428 H408 0.950 . S
C428 C427 1.414 1_655 S
C428 C429 1.374 . S
C429 H409 0.950 . S
C429 C425 1.385 1_655 S
C429 C428 1.374 . S
C430 C427 1.501 . S
C430 C431 1.352 1_455 S
C430 C432 1.413 . S
C431 H410 0.950 . S
C431 C430 1.352 1_655 S
C431 C447 1.377 . S
C432 C430 1.413 . S
C432 C433 1.524 . S
C432 C446 1.377 . S
C433 C432 1.524 . S
C433 C434 1.397 . S
C433 C438 1.363 . S
C434 H411 0.950 1_455 S
C434 C433 1.397 . S
C434 C435 1.334 . S
C435 H412 0.950 . S
C435 C434 1.334 . S
C435 C436 1.287 . S
C436 C435 1.287 . S
C436 C437 1.524 . S
C436 H455 0.913 . S
C437 H413 0.950 . S
C437 C436 1.524 . S
C437 C438 1.415 . S
C438 H414 0.950 . S
C438 C433 1.363 . S
C438 C437 1.415 . S
C439 H415 0.951 . S
C439 C440 1.366 1_655 S
C439 C441 1.388 . S
C440 C439 1.366 1_455 S
C440 C444 1.385 . S
C441 H416 0.951 . S
C441 C439 1.388 . S
C441 C442 1.366 1_655 S
C442 C441 1.366 1_455 S
C442 C443 1.414 . S
C442 C445 1.499 . S
C443 H417 0.950 . S
C443 C442 1.414 . S
C443 C444 1.374 . S
C444 H418 0.950 . S
C444 C440 1.385 . S
C444 C443 1.374 . S
C445 C442 1.499 . S
C445 C446 1.373 . S
C445 C447 1.389 1_455 S
C446 H419 0.950 . S
C446 C432 1.377 . S
C446 C445 1.373 . S
C447 C431 1.377 . S
C447 C445 1.389 1_655 S
C447 C448 1.524 . S
C448 C447 1.524 . S
C448 C449 1.397 . S
C448 C453 1.363 . S
C449 H420 0.950 1_655 S
C449 C448 1.397 . S
C449 C450 1.334 . S
C450 H421 0.950 . S
C450 C449 1.334 . S
C450 C451 1.287 . S
C451 C450 1.287 . S
C451 C452 1.524 . S
C451 H454 0.999 . S
C452 H422 0.950 . S
C452 C451 1.524 . S
C452 C453 1.415 . S
C453 H423 0.950 . S
C453 C448 1.363 . S
C453 C452 1.415 . S
H454 C451 0.999 . S
H455 C436 0.913 . S
H456 C474 0.951 . S
H457 C476 0.951 . S
H458 C478 0.960 . S
H459 C479 0.950 . S
H460 C481 0.950 . S
H461 C484 0.950 . S
H462 C485 0.950 . S
H463 C487 0.950 . S
H464 C488 0.950 . S
H465 C489 0.951 . S
H466 C491 0.951 1_554 S
H467 C493 0.950 . S
H468 C494 0.950 . S
H469 C496 0.950 . S
H470 C499 0.950 . S
H471 C500 0.950 . S
H472 C502 0.950 . S
H473 C503 0.950 . S
C474 H456 0.951 . S
C474 C475 1.371 . S
C474 C476 1.388 . S
C475 C474 1.371 . S
C475 C479 1.381 1_565 S
C476 H457 0.951 . S
C476 C474 1.388 . S
C476 C477 1.366 . S
C477 C476 1.366 . S
C477 C478 1.407 1_565 S
C477 C480 1.499 . S
C478 H458 0.960 . S
C478 C477 1.407 1_545 S
C478 C479 1.376 . S
C479 H459 0.950 . S
C479 C475 1.381 1_545 S
C479 C478 1.376 . S
C480 C477 1.499 . S
C480 C481 1.373 1_565 S
C480 C482 1.389 . S
C481 H460 0.950 . S
C481 C480 1.373 1_545 S
C481 C497 1.377 . S
C482 C480 1.389 . S
C482 C483 1.524 . S
C482 C496 1.377 1_554 S
C483 C482 1.524 . S
C483 C484 1.397 . S
C483 C488 1.363 1_554 S
C484 H461 0.950 . S
C484 C483 1.397 . S
C484 C485 1.334 . S
C485 H462 0.950 . S
C485 C484 1.334 . S
C485 C486 1.287 . S
C486 C485 1.287 . S
C486 C487 1.524 1_554 S
C486 H505 0.913 . S
C487 H463 0.950 . S
C487 C486 1.524 1_556 S
C487 C488 1.415 . S
C488 H464 0.950 . S
C488 C483 1.363 1_556 S
C488 C487 1.415 . S
C489 H465 0.951 . S
C489 C490 1.360 1_545 S
C489 C491 1.388 . S
C490 C489 1.360 1_565 S
C490 C494 1.392 . S
C491 H466 0.951 1_556 S
C491 C489 1.388 . S
C491 C492 1.366 . S
C492 C491 1.366 . S
C492 C493 1.414 1_545 S
C492 C495 1.499 . S
C493 H467 0.950 . S
C493 C492 1.414 1_565 S
C493 C494 1.374 . S
C494 H468 0.950 . S
C494 C490 1.392 . S
C494 C493 1.374 . S
C495 C492 1.499 . S
C495 C496 1.370 1_545 S
C495 C497 1.392 1_556 S
C496 H469 0.950 . S
C496 C482 1.377 1_556 S
C496 C495 1.370 1_565 S
C497 C481 1.377 . S
C497 C495 1.392 1_554 S
C497 C498 1.524 . S
C498 C497 1.524 . S
C498 C499 1.397 1_554 S
C498 C503 1.363 . S
C499 H470 0.950 . S
C499 C498 1.397 1_556 S
C499 C500 1.334 . S
C500 H471 0.950 . S
C500 C499 1.334 . S
C500 C501 1.287 1_556 S
C501 C500 1.287 1_554 S
C501 C502 1.524 . S
C501 H504 0.999 . S
C502 H472 0.950 . S
C502 C501 1.524 . S
C502 C503 1.415 . S
C503 H473 0.950 . S
C503 C498 1.363 . S
C503 C502 1.415 . S
H504 C501 0.999 . S
H505 C486 0.913 . S
H506 C524 0.951 . S
H507 C526 0.951 . S
H508 C528 0.950 . S
H509 C529 0.950 . S
H510 C531 0.950 . S
H511 C534 0.950 . S
H512 C535 0.950 . S
H513 C537 0.950 . S
H514 C538 0.950 . S
H515 C539 0.951 . S
H516 C541 0.951 . S
H517 C543 0.950 1_554 S
H518 C544 0.950 . S
H519 C546 0.950 . S
H520 C549 0.950 . S
H521 C550 0.950 . S
H522 C552 0.950 . S
H523 C553 0.950 . S
C524 H506 0.951 . S
C524 C525 1.366 . S
C524 C526 1.388 . S
C525 C524 1.366 . S
C525 C529 1.385 . S
C526 H507 0.951 . S
C526 C524 1.388 . S
C526 C527 1.366 . S
C527 C526 1.366 . S
C527 C528 1.414 . S
C527 C530 1.499 . S
C528 H508 0.950 . S
C528 C527 1.414 . S
C528 C529 1.374 . S
C529 H509 0.950 . S
C529 C525 1.385 . S
C529 C528 1.374 . S
C530 C527 1.499 . S
C530 C531 1.373 . S
C530 C532 1.389 . S
C531 H510 0.950 . S
C531 C530 1.373 . S
C531 C547 1.377 1_554 S
C532 C530 1.389 . S
C532 C533 1.524 . S
C532 C546 1.377 . S
C533 C532 1.524 . S
C533 C534 1.397 . S
C533 C538 1.363 . S
C534 H511 0.950 . S
C534 C533 1.397 . S
C534 C535 1.334 . S
C535 H512 0.950 . S
C535 C534 1.334 . S
C535 C536 1.287 . S
C536 C535 1.287 . S
C536 C537 1.524 . S
C536 H555 0.913 . S
C537 H513 0.950 . S
C537 C536 1.524 . S
C537 C538 1.415 . S
C538 H514 0.950 . S
C538 C533 1.363 . S
C538 C537 1.415 . S
C539 H515 0.951 . S
C539 C540 1.366 . S
C539 C541 1.388 . S
C540 C539 1.366 . S
C540 C544 1.385 . S
C541 H516 0.951 . S
C541 C539 1.388 . S
C541 C542 1.366 . S
C542 C541 1.366 . S
C542 C543 1.414 . S
C542 C545 1.502 . S
C543 H517 0.950 1_556 S
C543 C542 1.414 . S
C543 C544 1.374 . S
C544 H518 0.950 . S
C544 C540 1.385 . S
C544 C543 1.374 . S
C545 C542 1.502 . S
C545 C546 1.370 1_556 S
C545 C547 1.390 . S
C546 H519 0.950 . S
C546 C532 1.377 . S
C546 C545 1.370 1_554 S
C547 C531 1.377 1_556 S
C547 C545 1.390 . S
C547 C548 1.524 . S
C548 C547 1.524 . S
C548 C549 1.397 . S
C548 C553 1.363 . S
C549 H520 0.950 . S
C549 C548 1.397 . S
C549 C550 1.334 . S
C550 H521 0.950 . S
C550 C549 1.334 . S
C550 C551 1.287 . S
C551 C550 1.287 . S
C551 C552 1.524 . S
C551 H554 0.999 . S
C552 H522 0.950 . S
C552 C551 1.524 . S
C552 C553 1.415 . S
C553 H523 0.950 . S
C553 C548 1.363 . S
C553 C552 1.415 . S
H554 C551 0.999 . S
H555 C536 0.913 . S
H556 C574 0.951 . S
H557 C576 0.951 . S
H558 C578 0.950 . S
H559 C579 0.950 . S
H560 C581 0.950 . S
H561 C584 0.950 . S
H562 C585 0.950 . S
H563 C587 0.950 . S
H564 C588 0.950 . S
H565 C589 0.951 . S
H566 C591 0.951 1_554 S
H567 C593 0.950 . S
H568 C594 0.950 . S
H569 C596 0.950 . S
H570 C599 0.950 . S
H571 C600 0.950 . S
H572 C602 0.950 . S
H573 C603 0.950 . S
C574 H556 0.951 . S
C574 C575 1.366 . S
C574 C576 1.388 . S
C575 C574 1.366 . S
C575 C579 1.385 . S
C576 H557 0.951 . S
C576 C574 1.388 . S
C576 C577 1.366 . S
C577 C576 1.366 . S
C577 C578 1.414 . S
C577 C580 1.499 . S
C578 H558 0.950 . S
C578 C577 1.414 . S
C578 C579 1.374 . S
C579 H559 0.950 . S
C579 C575 1.385 . S
C579 C578 1.374 . S
C580 C577 1.499 . S
C580 C581 1.373 . S
C580 C582 1.389 . S
C581 H560 0.950 . S
C581 C580 1.373 . S
C581 C597 1.377 . S
C582 C580 1.389 . S
C582 C583 1.524 1_554 S
C582 C596 1.377 1_554 S
C583 C582 1.524 1_556 S
C583 C584 1.397 1_556 S
C583 C588 1.363 . S
C584 H561 0.950 . S
C584 C583 1.397 1_554 S
C584 C585 1.334 . S
C585 H562 0.950 . S
C585 C584 1.334 . S
C585 C586 1.287 1_554 S
C586 C585 1.287 1_556 S
C586 C587 1.524 . S
C586 H605 0.913 . S
C587 H563 0.950 . S
C587 C586 1.524 . S
C587 C588 1.415 . S
C588 H564 0.950 . S
C588 C583 1.363 . S
C588 C587 1.415 . S
C589 H565 0.951 . S
C589 C590 1.366 . S
C589 C591 1.388 . S
C590 C589 1.366 . S
C590 C594 1.385 . S
C591 H566 0.951 1_556 S
C591 C589 1.388 . S
C591 C592 1.366 . S
C592 C591 1.366 . S
C592 C593 1.414 . S
C592 C595 1.499 . S
C593 H567 0.950 . S
C593 C592 1.414 . S
C593 C594 1.374 . S
C594 H568 0.950 . S
C594 C590 1.385 . S
C594 C593 1.374 . S
C595 C592 1.499 . S
C595 C596 1.373 . S
C595 C597 1.389 1_556 S
C596 H569 0.950 . S
C596 C582 1.377 1_556 S
C596 C595 1.373 . S
C597 C581 1.377 . S
C597 C595 1.389 1_554 S
C597 C598 1.524 . S
C598 C597 1.524 . S
C598 C599 1.397 . S
C598 C603 1.363 . S
C599 H570 0.950 . S
C599 C598 1.397 . S
C599 C600 1.334 . S
C600 H571 0.950 . S
C600 C599 1.334 . S
C600 C601 1.287 . S
C601 C600 1.287 . S
C601 C602 1.524 . S
C601 H604 0.999 . S
C602 H572 0.950 . S
C602 C601 1.524 . S
C602 C603 1.415 . S
C603 H573 0.950 . S
C603 C598 1.363 . S
C603 C602 1.415 . S
H604 C601 0.999 . S
H605 C586 0.913 . S
H606 C624 0.951 . S
H607 C626 0.951 . S
H608 C628 0.950 . S
H609 C629 0.950 . S
H610 C631 0.950 . S
H611 C634 0.950 . S
H612 C635 0.950 . S
H613 C637 0.950 . S
H614 C638 0.950 . S
H615 C639 0.951 . S
H616 C641 0.951 1_554 S
H617 C643 0.950 . S
H618 C644 0.950 . S
H619 C646 0.950 . S
H620 C649 0.950 1_556 S
H621 C650 0.950 1_556 S
H622 C652 0.950 . S
H623 C653 0.950 . S
C624 H606 0.951 . S
C624 C625 1.365 1_455 S
C624 C626 1.388 . S
C625 C624 1.365 1_655 S
C625 C629 1.386 . S
C626 H607 0.951 . S
C626 C624 1.388 . S
C626 C627 1.366 1_455 S
C627 C626 1.366 1_655 S
C627 C628 1.414 . S
C627 C630 1.499 . S
C628 H608 0.950 . S
C628 C627 1.414 . S
C628 C629 1.374 . S
C629 H609 0.950 . S
C629 C625 1.386 . S
C629 C628 1.374 . S
C630 C627 1.499 . S
C630 C631 1.373 1_655 S
C630 C632 1.389 . S
C631 H610 0.950 . S
C631 C630 1.373 1_455 S
C631 C647 1.377 . S
C632 C630 1.389 . S
C632 C633 1.524 . S
C632 C646 1.377 1_554 S
C633 C632 1.524 . S
C633 C634 1.397 . S
C633 C638 1.363 1_554 S
C634 H611 0.950 . S
C634 C633 1.397 . S
C634 C635 1.334 . S
C635 H612 0.950 . S
C635 C634 1.334 . S
C635 C636 1.287 . S
C636 C635 1.287 . S
C636 C637 1.524 1_554 S
C636 H655 0.914 . S
C637 H613 0.950 . S
C637 C636 1.524 1_556 S
C637 C638 1.415 . S
C638 H614 0.950 . S
C638 C633 1.363 1_556 S
C638 C637 1.415 . S
C639 H615 0.951 . S
C639 C640 1.370 . S
C639 C641 1.388 . S
C640 C639 1.370 . S
C640 C644 1.380 1_655 S
C641 H616 0.951 1_556 S
C641 C639 1.388 . S
C641 C642 1.362 1_655 S
C642 C641 1.362 1_455 S
C642 C643 1.417 . S
C642 C645 1.499 . S
C643 H617 0.950 . S
C643 C642 1.417 . S
C643 C644 1.374 . S
C644 H618 0.950 . S
C644 C640 1.380 1_455 S
C644 C643 1.374 . S
C645 C642 1.499 . S
C645 C646 1.347 1_455 S
C645 C647 1.414 1_556 S
C646 H619 0.950 . S
C646 C632 1.377 1_556 S
C646 C645 1.347 1_655 S
C647 C631 1.377 . S
C647 C645 1.414 1_554 S
C647 C648 1.524 . S
C648 C647 1.524 . S
C648 C649 1.397 . S
C648 C653 1.363 . S
C649 H620 0.950 1_554 S
C649 C648 1.397 . S
C649 C650 1.334 . S
C650 H621 0.950 1_554 S
C650 C649 1.334 . S
C650 C651 1.287 . S
C651 C650 1.287 . S
C651 C652 1.524 . S
C651 H654 0.999 . S
C652 H622 0.950 . S
C652 C651 1.524 . S
C652 C653 1.415 . S
C653 H623 0.950 . S
C653 C648 1.363 . S
C653 C652 1.415 . S
H654 C651 0.999 . S
H655 C636 0.914 . S
H656 C674 0.951 . S
H657 C676 0.951 . S
H658 C678 0.950 . S
H659 C679 0.950 . S
H660 C681 0.950 . S
H661 C684 0.950 . S
H662 C685 0.950 . S
H663 C687 0.950 . S
H664 C688 0.950 1_455 S
H665 C689 0.951 . S
H666 C691 0.951 . S
H667 C693 0.950 1_455 S
H668 C694 0.950 . S
H669 C696 0.950 . S
H670 C699 0.950 . S
H671 C700 0.950 . S
H672 C702 0.950 . S
H673 C703 0.950 . S
C674 H656 0.951 . S
C674 C675 1.366 . S
C674 C676 1.388 . S
C675 C674 1.366 . S
C675 C679 1.385 1_455 S
C676 H657 0.951 . S
C676 C674 1.388 . S
C676 C677 1.366 1_455 S
C677 C676 1.366 1_655 S
C677 C678 1.414 . S
C677 C680 1.499 . S
C678 H658 0.950 . S
C678 C677 1.414 . S
C678 C679 1.374 . S
C679 H659 0.950 . S
C679 C675 1.385 1_655 S
C679 C678 1.374 . S
C680 C677 1.499 . S
C680 C681 1.373 . S
C680 C682 1.389 . S
C681 H660 0.950 . S
C681 C680 1.373 . S
C681 C697 1.377 . S
C682 C680 1.389 . S
C682 C683 1.524 . S
C682 C696 1.377 . S
C683 C682 1.524 . S
C683 C684 1.397 . S
C683 C688 1.363 . S
C684 H661 0.950 . S
C684 C683 1.397 . S
C684 C685 1.334 1_554 S
C685 H662 0.950 . S
C685 C684 1.334 1_556 S
C685 C686 1.287 . S
C686 C685 1.287 . S
C686 C687 1.524 . S
C686 H705 0.913 . S
C687 H663 0.950 . S
C687 C686 1.524 . S
C687 C688 1.415 1_556 S
C688 H664 0.950 1_655 S
C688 C683 1.363 . S
C688 C687 1.415 1_554 S
C689 H665 0.951 . S
C689 C690 1.366 . S
C689 C691 1.388 . S
C690 C689 1.366 . S
C690 C694 1.385 . S
C691 H666 0.951 . S
C691 C689 1.388 . S
C691 C692 1.366 . S
C692 C691 1.366 . S
C692 C693 1.414 . S
C692 C695 1.499 . S
C693 H667 0.950 1_655 S
C693 C692 1.414 . S
C693 C694 1.374 . S
C694 H668 0.950 . S
C694 C690 1.385 . S
C694 C693 1.374 . S
C695 C692 1.499 . S
C695 C696 1.373 . S
C695 C697 1.389 . S
C696 H669 0.950 . S
C696 C682 1.377 . S
C696 C695 1.373 . S
C697 C681 1.377 . S
C697 C695 1.389 . S
C697 C698 1.524 . S
C698 C697 1.524 . S
C698 C699 1.397 1_655 S
C698 C703 1.363 . S
C699 H670 0.950 . S
C699 C698 1.397 1_455 S
C699 C700 1.334 . S
C700 H671 0.950 . S
C700 C699 1.334 . S
C700 C701 1.287 . S
C701 C700 1.287 . S
C701 C702 1.524 1_455 S
C701 H704 0.999 . S
C702 H672 0.950 . S
C702 C701 1.524 1_655 S
C702 C703 1.415 . S
C703 H673 0.950 . S
C703 C698 1.363 . S
C703 C702 1.415 . S
H704 C701 0.999 . S
H705 C686 0.913 . S
H706 C724 0.951 . S
H707 C726 0.951 . S
H708 C728 0.950 . S
H709 C729 0.950 . S
H710 C731 0.950 . S
H711 C734 0.950 . S
H712 C735 0.950 . S
H713 C737 0.950 . S
H714 C738 0.950 . S
H715 C739 0.951 1_545 S
H716 C741 0.951 1_545 S
H717 C743 0.950 . S
H718 C744 0.950 . S
H719 C746 0.950 . S
H720 C749 0.950 . S
H721 C750 0.938 1_565 S
H722 C752 0.950 . S
H723 C753 0.950 . S
C724 H706 0.951 . S
C724 C725 1.366 1_565 S
C724 C726 1.388 . S
C725 C724 1.366 1_545 S
C725 C729 1.385 . S
C726 H707 0.951 . S
C726 C724 1.388 . S
C726 C727 1.366 . S
C727 C726 1.366 . S
C727 C728 1.414 1_565 S
C727 C730 1.499 . S
C728 H708 0.950 . S
C728 C727 1.414 1_545 S
C728 C729 1.374 . S
C729 H709 0.950 . S
C729 C725 1.385 . S
C729 C728 1.374 . S
C730 C727 1.499 . S
C730 C731 1.373 1_565 S
C730 C732 1.389 . S
C731 H710 0.950 . S
C731 C730 1.373 1_545 S
C731 C747 1.377 1_545 S
C732 C730 1.389 . S
C732 C733 1.524 . S
C732 C746 1.377 . S
C733 C732 1.524 . S
C733 C734 1.397 . S
C733 C738 1.363 . S
C734 H711 0.950 . S
C734 C733 1.397 . S
C734 C735 1.334 . S
C735 H712 0.950 . S
C735 C734 1.334 . S
C735 C736 1.287 . S
C736 C735 1.287 . S
C736 C737 1.524 . S
C736 H755 0.913 . S
C737 H713 0.950 . S
C737 C736 1.524 . S
C737 C738 1.415 . S
C738 H714 0.950 . S
C738 C733 1.363 . S
C738 C737 1.415 . S
C739 H715 0.951 1_565 S
C739 C740 1.366 . S
C739 C741 1.388 . S
C740 C739 1.366 . S
C740 C744 1.385 . S
C741 H716 0.951 1_565 S
C741 C739 1.388 . S
C741 C742 1.366 . S
C742 C741 1.366 . S
C742 C743 1.414 . S
C742 C745 1.499 . S
C743 H717 0.950 . S
C743 C742 1.414 . S
C743 C744 1.374 . S
C744 H718 0.950 . S
C744 C740 1.385 . S
C744 C743 1.374 . S
C745 C742 1.499 . S
C745 C746 1.373 . S
C745 C747 1.389 . S
C746 H719 0.950 . S
C746 C732 1.377 . S
C746 C745 1.373 . S
C747 C731 1.377 1_565 S
C747 C745 1.389 . S
C747 C748 1.524 1_565 S
C748 C747 1.524 1_545 S
C748 C749 1.397 1_545 S
C748 C753 1.363 . S
C749 H720 0.950 . S
C749 C748 1.397 1_565 S
C749 C750 1.334 1_565 S
C750 H721 0.938 1_545 S
C750 C749 1.334 1_545 S
C750 C751 1.287 . S
C751 C750 1.287 . S
C751 C752 1.524 . S
C751 H754 0.999 . S
C752 H722 0.950 . S
C752 C751 1.524 . S
C752 C753 1.415 . S
C753 H723 0.950 . S
C753 C748 1.363 . S
C753 C752 1.415 . S
H754 C751 0.999 . S
H755 C736 0.913 . S
H756 C774 0.951 . S
H757 C776 0.951 . S
H758 C778 0.950 . S
H759 C779 0.950 . S
H760 C781 0.950 . S
H761 C784 0.950 . S
H762 C785 0.950 1_556 S
H763 C787 0.950 . S
H764 C788 0.950 . S
H765 C789 0.951 . S
H766 C791 0.951 . S
H767 C793 0.950 . S
H768 C794 0.950 . S
H769 C796 0.950 . S
H770 C799 0.950 . S
H771 C800 0.950 . S
H772 C802 0.950 . S
H773 C803 0.950 . S
C774 H756 0.951 . S
C774 C775 1.366 . S
C774 C776 1.388 . S
C775 C774 1.366 . S
C775 C779 1.385 . S
C776 H757 0.951 . S
C776 C774 1.388 . S
C776 C777 1.366 . S
C777 C776 1.366 . S
C777 C778 1.414 . S
C777 C780 1.499 . S
C778 H758 0.950 . S
C778 C777 1.414 . S
C778 C779 1.374 . S
C779 H759 0.950 . S
C779 C775 1.385 . S
C779 C778 1.374 . S
C780 C777 1.499 . S
C780 C781 1.373 . S
C780 C782 1.389 . S
C781 H760 0.950 . S
C781 C780 1.373 . S
C781 C797 1.377 . S
C782 C780 1.389 . S
C782 C783 1.524 . S
C782 C796 1.377 . S
C783 C782 1.524 . S
C783 C784 1.397 . S
C783 C788 1.363 . S
C784 H761 0.950 . S
C784 C783 1.397 . S
C784 C785 1.334 . S
C785 H762 0.950 1_554 S
C785 C784 1.334 . S
C785 C786 1.287 . S
C786 C785 1.287 . S
C786 C787 1.524 . S
C786 H805 0.913 . S
C787 H763 0.950 . S
C787 C786 1.524 . S
C787 C788 1.415 . S
C788 H764 0.950 . S
C788 C783 1.363 . S
C788 C787 1.415 . S
C789 H765 0.951 . S
C789 C790 1.366 . S
C789 C791 1.388 . S
C790 C789 1.366 . S
C790 C794 1.385 . S
C791 H766 0.951 . S
C791 C789 1.388 . S
C791 C792 1.366 . S
C792 C791 1.366 . S
C792 C793 1.414 . S
C792 C795 1.499 . S
C793 H767 0.950 . S
C793 C792 1.414 . S
C793 C794 1.374 . S
C794 H768 0.950 . S
C794 C790 1.385 . S
C794 C793 1.374 . S
C795 C792 1.499 . S
C795 C796 1.373 . S
C795 C797 1.389 . S
C796 H769 0.950 . S
C796 C782 1.377 . S
C796 C795 1.373 . S
C797 C781 1.377 . S
C797 C795 1.389 . S
C797 C798 1.524 . S
C798 C797 1.524 . S
C798 C799 1.397 . S
C798 C803 1.363 . S
C799 H770 0.950 . S
C799 C798 1.397 . S
C799 C800 1.334 . S
C800 H771 0.950 . S
C800 C799 1.334 . S
C800 C801 1.287 . S
C801 C800 1.287 . S
C801 C802 1.524 . S
C801 H804 0.999 . S
C802 H772 0.950 . S
C802 C801 1.524 . S
C802 C803 1.415 . S
C803 H773 0.950 . S
C803 C798 1.363 . S
C803 C802 1.415 . S
H804 C801 0.999 . S
H805 C786 0.913 . S
H806 C824 0.951 . S
H807 C826 0.951 . S
H808 C828 0.950 . S
H809 C829 0.950 . S
H810 C831 0.950 . S
H811 C834 0.950 . S
H812 C835 0.950 . S
H813 C837 0.950 . S
H814 C838 0.950 . S
H815 C839 0.951 . S
H816 C841 0.951 . S
H817 C843 0.950 . S
H818 C844 0.950 . S
H819 C846 0.950 . S
H820 C849 0.950 . S
H821 C850 0.950 . S
H822 C852 0.950 . S
H823 C853 0.950 . S
C824 H806 0.951 . S
C824 C825 1.366 . S
C824 C826 1.388 . S
C825 C824 1.366 . S
C825 C829 1.385 . S
C826 H807 0.951 . S
C826 C824 1.388 . S
C826 C827 1.366 . S
C827 C826 1.366 . S
C827 C828 1.414 . S
C827 C830 1.499 . S
C828 H808 0.950 . S
C828 C827 1.414 . S
C828 C829 1.374 . S
C829 H809 0.950 . S
C829 C825 1.385 . S
C829 C828 1.374 . S
C830 C827 1.499 . S
C830 C831 1.373 . S
C830 C832 1.389 . S
C831 H810 0.950 . S
C831 C830 1.373 . S
C831 C847 1.377 . S
C832 C830 1.389 . S
C832 C833 1.524 . S
C832 C846 1.377 . S
C833 C832 1.524 . S
C833 C834 1.397 . S
C833 C838 1.363 . S
C834 H811 0.950 . S
C834 C833 1.397 . S
C834 C835 1.334 . S
C835 H812 0.950 . S
C835 C834 1.334 . S
C835 C836 1.287 . S
C836 C835 1.287 . S
C836 C837 1.524 . S
C836 H855 0.913 . S
C837 H813 0.950 . S
C837 C836 1.524 . S
C837 C838 1.415 . S
C838 H814 0.950 . S
C838 C833 1.363 . S
C838 C837 1.415 . S
C839 H815 0.951 . S
C839 C840 1.366 . S
C839 C841 1.388 . S
C840 C839 1.366 . S
C840 C844 1.385 . S
C841 H816 0.951 . S
C841 C839 1.388 . S
C841 C842 1.366 . S
C842 C841 1.366 . S
C842 C843 1.414 . S
C842 C845 1.499 . S
C843 H817 0.950 . S
C843 C842 1.414 . S
C843 C844 1.374 . S
C844 H818 0.950 . S
C844 C840 1.385 . S
C844 C843 1.374 . S
C845 C842 1.499 . S
C845 C846 1.373 . S
C845 C847 1.389 . S
C846 H819 0.950 . S
C846 C832 1.377 . S
C846 C845 1.373 . S
C847 C831 1.377 . S
C847 C845 1.389 . S
C847 C848 1.524 . S
C848 C847 1.524 . S
C848 C849 1.397 . S
C848 C853 1.363 . S
C849 H820 0.950 . S
C849 C848 1.397 . S
C849 C850 1.334 . S
C850 H821 0.950 . S
C850 C849 1.334 . S
C850 C851 1.287 . S
C851 C850 1.287 . S
C851 C852 1.524 . S
C851 H854 0.999 . S
C852 H822 0.950 . S
C852 C851 1.524 . S
C852 C853 1.415 . S
C853 H823 0.950 . S
C853 C848 1.363 . S
C853 C852 1.415 . S
H854 C851 0.999 . S
H855 C836 0.913 . S
H856 C874 0.951 . S
H857 C876 0.951 . S
H858 C878 0.950 . S
H859 C879 0.950 . S
H860 C881 0.950 . S
H861 C884 0.950 . S
H862 C885 0.950 . S
H863 C887 0.950 . S
H864 C888 0.950 . S
H865 C889 0.951 . S
H866 C891 0.951 . S
H867 C893 0.950 . S
H868 C894 0.950 . S
H869 C896 0.950 . S
H870 C899 0.956 . S
H871 C900 0.950 . S
H872 C902 0.950 . S
H873 C903 0.950 . S
C874 H856 0.951 . S
C874 C875 1.366 1_455 S
C874 C876 1.388 . S
C875 C874 1.366 1_655 S
C875 C879 1.385 . S
C876 H857 0.951 . S
C876 C874 1.388 . S
C876 C877 1.366 . S
C877 C876 1.366 . S
C877 C878 1.414 1_455 S
C877 C880 1.499 . S
C878 H858 0.950 . S
C878 C877 1.414 1_655 S
C878 C879 1.374 . S
C879 H859 0.950 . S
C879 C875 1.385 . S
C879 C878 1.374 . S
C880 C877 1.499 . S
C880 C881 1.373 . S
C880 C882 1.389 . S
C881 H860 0.950 . S
C881 C880 1.373 . S
C881 C897 1.377 . S
C882 C880 1.389 . S
C882 C883 1.534 . S
C882 C896 1.377 . S
C883 C882 1.534 . S
C883 C884 1.370 1_455 S
C883 C888 1.379 . S
C884 H861 0.950 . S
C884 C883 1.370 1_655 S
C884 C885 1.334 . S
C885 H862 0.950 . S
C885 C884 1.334 . S
C885 C886 1.287 . S
C886 C885 1.287 . S
C886 C887 1.524 1_655 S
C886 H905 0.913 . S
C887 H863 0.950 . S
C887 C886 1.524 1_455 S
C887 C888 1.415 . S
C888 H864 0.950 . S
C888 C883 1.379 . S
C888 C887 1.415 . S
C889 H865 0.951 . S
C889 C890 1.366 . S
C889 C891 1.388 . S
C890 C889 1.366 . S
C890 C894 1.385 1_556 S
C891 H866 0.951 . S
C891 C889 1.388 . S
C891 C892 1.366 1_556 S
C892 C891 1.366 1_554 S
C892 C893 1.414 . S
C892 C895 1.499 . S
C893 H867 0.950 . S
C893 C892 1.414 . S
C893 C894 1.374 . S
C894 H868 0.950 . S
C894 C890 1.385 1_554 S
C894 C893 1.374 . S
C895 C892 1.499 . S
C895 C896 1.373 . S
C895 C897 1.389 . S
C896 H869 0.950 . S
C896 C882 1.377 . S
C896 C895 1.373 . S
C897 C881 1.377 . S
C897 C895 1.389 . S
C897 C898 1.524 1_554 S
C898 C897 1.524 1_556 S
C898 C899 1.397 . S
C898 C903 1.363 . S
C899 H870 0.956 . S
C899 C898 1.397 . S
C899 C900 1.334 . S
C900 H871 0.950 . S
C900 C899 1.334 . S
C900 C901 1.287 . S
C901 C900 1.287 . S
C901 C902 1.524 . S
C901 H904 0.999 . S
C902 H872 0.950 . S
C902 C901 1.524 . S
C902 C903 1.415 . S
C903 H873 0.950 . S
C903 C898 1.363 . S
C903 C902 1.415 . S
H904 C901 0.999 . S
H905 C886 0.913 . S
H906 C924 0.951 . S
H907 C926 0.951 . S
H908 C928 0.950 . S
H909 C929 0.950 . S
H910 C931 0.950 . S
H911 C934 0.950 . S
H912 C935 0.950 . S
H913 C937 0.950 . S
H914 C938 0.950 . S
H915 C939 0.951 . S
H916 C941 0.951 1_556 S
H917 C943 0.922 1_565 S
H918 C944 0.950 . S
H919 C946 0.950 . S
H920 C949 0.950 . S
H921 C950 0.950 . S
H922 C952 0.950 . S
H923 C953 0.950 . S
C924 H906 0.951 . S
C924 C925 1.366 . S
C924 C926 1.388 . S
C925 C924 1.366 . S
C925 C929 1.385 1_565 S
C926 H907 0.951 . S
C926 C924 1.388 . S
C926 C927 1.366 1_565 S
C927 C926 1.366 1_545 S
C927 C928 1.414 . S
C927 C930 1.499 . S
C928 H908 0.950 . S
C928 C927 1.414 . S
C928 C929 1.374 . S
C929 H909 0.950 . S
C929 C925 1.385 1_545 S
C929 C928 1.374 . S
C930 C927 1.499 . S
C930 C931 1.373 . S
C930 C932 1.389 1_545 S
C931 H910 0.950 . S
C931 C930 1.373 . S
C931 C947 1.377 . S
C932 C930 1.389 1_565 S
C932 C933 1.524 . S
C932 C946 1.377 . S
C933 C932 1.524 . S
C933 C934 1.397 . S
C933 C938 1.363 . S
C934 H911 0.950 . S
C934 C933 1.397 . S
C934 C935 1.334 . S
C935 H912 0.950 . S
C935 C934 1.334 . S
C935 C936 1.287 . S
C936 C935 1.287 . S
C936 C937 1.524 . S
C936 H955 0.913 . S
C937 H913 0.950 . S
C937 C936 1.524 . S
C937 C938 1.415 . S
C938 H914 0.950 . S
C938 C933 1.363 . S
C938 C937 1.415 . S
C939 H915 0.951 . S
C939 C940 1.366 . S
C939 C941 1.388 1_556 S
C940 C939 1.366 . S
C940 C944 1.385 1_556 S
C941 H916 0.951 1_554 S
C941 C939 1.388 1_554 S
C941 C942 1.366 . S
C942 C941 1.366 . S
C942 C943 1.414 . S
C942 C945 1.499 . S
C943 H917 0.922 1_545 S
C943 C942 1.414 . S
C943 C944 1.374 . S
C944 H918 0.950 . S
C944 C940 1.385 1_554 S
C944 C943 1.374 . S
C945 C942 1.499 . S
C945 C946 1.373 1_545 S
C945 C947 1.389 . S
C946 H919 0.950 . S
C946 C932 1.377 . S
C946 C945 1.373 1_565 S
C947 C931 1.377 . S
C947 C945 1.389 . S
C947 C948 1.524 . S
C948 C947 1.524 . S
C948 C949 1.397 . S
C948 C953 1.363 . S
C949 H920 0.950 . S
C949 C948 1.397 . S
C949 C950 1.334 . S
C950 H921 0.950 . S
C950 C949 1.334 . S
C950 C951 1.287 . S
C951 C950 1.287 . S
C951 C952 1.524 . S
C951 H954 0.999 . S
C952 H922 0.950 . S
C952 C951 1.524 . S
C952 C953 1.415 . S
C953 H923 0.950 . S
C953 C948 1.363 . S
C953 C952 1.415 . S
H954 C951 0.999 . S
H955 C936 0.913 . S
H956 C974 0.951 . S
H957 C976 0.951 . S
H958 C978 0.950 . S
H959 C979 0.950 . S
H960 C981 0.950 . S
H961 C984 0.950 . S
H962 C985 0.950 . S
H963 C987 0.950 . S
H964 C988 0.950 . S
H965 C989 0.951 . S
H966 C991 0.951 . S
H967 C993 0.950 . S
H968 C994 0.950 . S
H969 C996 0.950 . S
H970 C999 0.950 . S
H971 C1000 0.950 . S
H972 C1002 0.950 1_554 S
H973 C1003 0.950 . S
C974 H956 0.951 . S
C974 C975 1.366 . S
C974 C976 1.388 . S
C975 C974 1.366 . S
C975 C979 1.385 . S
C976 H957 0.951 . S
C976 C974 1.388 . S
C976 C977 1.366 . S
C977 C976 1.366 . S
C977 C978 1.414 . S
C977 C980 1.499 . S
C978 H958 0.950 . S
C978 C977 1.414 . S
C978 C979 1.374 . S
C979 H959 0.950 . S
C979 C975 1.385 . S
C979 C978 1.374 . S
C980 C977 1.499 . S
C980 C981 1.373 . S
C980 C982 1.389 . S
C981 H960 0.950 . S
C981 C980 1.373 . S
C981 C997 1.377 . S
C982 C980 1.389 . S
C982 C983 1.524 . S
C982 C996 1.377 . S
C983 C982 1.524 . S
C983 C984 1.397 . S
C983 C988 1.363 . S
C984 H961 0.950 . S
C984 C983 1.397 . S
C984 C985 1.334 . S
C985 H962 0.950 . S
C985 C984 1.334 . S
C985 C986 1.287 . S
C986 C985 1.287 . S
C986 C987 1.524 . S
C986 H1005 0.913 . S
C987 H963 0.950 . S
C987 C986 1.524 . S
C987 C988 1.415 . S
C988 H964 0.950 . S
C988 C983 1.363 . S
C988 C987 1.415 . S
C989 H965 0.951 . S
C989 C990 1.366 1_554 S
C989 C991 1.388 . S
C990 C989 1.366 1_556 S
C990 C994 1.385 . S
C991 H966 0.951 . S
C991 C989 1.388 . S
C991 C992 1.366 . S
C992 C991 1.366 . S
C992 C993 1.414 . S
C992 C995 1.499 . S
C993 H967 0.950 . S
C993 C992 1.414 . S
C993 C994 1.374 1_554 S
C994 H968 0.950 . S
C994 C990 1.385 . S
C994 C993 1.374 1_556 S
C995 C992 1.499 . S
C995 C996 1.373 . S
C995 C997 1.389 . S
C996 H969 0.950 . S
C996 C982 1.377 . S
C996 C995 1.373 . S
C997 C981 1.377 . S
C997 C995 1.389 . S
C997 C998 1.524 . S
C998 C997 1.524 . S
C998 C999 1.397 1_554 S
C998 C1003 1.363 . S
C999 H970 0.950 . S
C999 C998 1.397 1_556 S
C999 C1000 1.334 . S
C1000 H971 0.950 . S
C1000 C999 1.334 . S
C1000 C1001 1.287 . S
C1001 C1000 1.287 . S
C1001 C1002 1.524 . S
C1001 H1004 0.999 . S
C1002 H972 0.950 1_556 S
C1002 C1001 1.524 . S
C1002 C1003 1.415 1_556 S
C1003 H973 0.950 . S
C1003 C998 1.363 . S
C1003 C1002 1.415 1_554 S
H1004 C1001 0.999 . S
H1005 C986 0.913 . S
H1006 C1024 0.951 . S
H1007 C1026 0.951 . S
H1008 C1028 0.950 . S
H1009 C1029 0.950 . S
H1010 C1031 0.950 . S
H1011 C1034 0.950 . S
H1012 C1035 0.950 . S
H1013 C1037 0.950 . S
H1014 C1038 0.950 . S
H1015 C1039 0.951 . S
H1016 C1041 0.951 . S
H1017 C1043 0.950 . S
H1018 C1044 0.950 . S
H1019 C1046 0.950 . S
H1020 C1049 0.950 . S
H1021 C1050 0.950 1_556 S
H1022 C1052 0.950 . S
H1023 C1053 0.950 . S
C1024 H1006 0.951 . S
C1024 C1025 1.366 . S
C1024 C1026 1.388 . S
C1025 C1024 1.366 . S
C1025 C1029 1.385 . S
C1026 H1007 0.951 . S
C1026 C1024 1.388 . S
C1026 C1027 1.366 . S
C1027 C1026 1.366 . S
C1027 C1028 1.414 . S
C1027 C1030 1.499 . S
C1028 H1008 0.950 . S
C1028 C1027 1.414 . S
C1028 C1029 1.374 . S
C1029 H1009 0.950 . S
C1029 C1025 1.385 . S
C1029 C1028 1.374 . S
C1030 C1027 1.499 . S
C1030 C1031 1.373 . S
C1030 C1032 1.389 . S
C1031 H1010 0.950 . S
C1031 C1030 1.373 . S
C1031 C1047 1.377 . S
C1032 C1030 1.389 . S
C1032 C1033 1.524 . S
C1032 C1046 1.377 . S
C1033 C1032 1.524 . S
C1033 C1034 1.397 . S
C1033 C1038 1.363 . S
C1034 H1011 0.950 . S
C1034 C1033 1.397 . S
C1034 C1035 1.334 . S
C1035 H1012 0.950 . S
C1035 C1034 1.334 . S
C1035 C1036 1.287 . S
C1036 C1035 1.287 . S
C1036 C1037 1.524 . S
C1036 H1055 0.913 . S
C1037 H1013 0.950 . S
C1037 C1036 1.524 . S
C1037 C1038 1.415 . S
C1038 H1014 0.950 . S
C1038 C1033 1.363 . S
C1038 C1037 1.415 . S
C1039 H1015 0.951 . S
C1039 C1040 1.366 1_554 S
C1039 C1041 1.388 . S
C1040 C1039 1.366 1_556 S
C1040 C1044 1.385 . S
C1041 H1016 0.951 . S
C1041 C1039 1.388 . S
C1041 C1042 1.366 . S
C1042 C1041 1.366 . S
C1042 C1043 1.414 1_554 S
C1042 C1045 1.499 . S
C1043 H1017 0.950 . S
C1043 C1042 1.414 1_556 S
C1043 C1044 1.374 . S
C1044 H1018 0.950 . S
C1044 C1040 1.385 . S
C1044 C1043 1.374 . S
C1045 C1042 1.499 . S
C1045 C1046 1.373 . S
C1045 C1047 1.389 . S
C1046 H1019 0.950 . S
C1046 C1032 1.377 . S
C1046 C1045 1.373 . S
C1047 C1031 1.377 . S
C1047 C1045 1.389 . S
C1047 C1048 1.524 . S
C1048 C1047 1.524 . S
C1048 C1049 1.397 . S
C1048 C1053 1.363 . S
C1049 H1020 0.950 . S
C1049 C1048 1.397 . S
C1049 C1050 1.334 . S
C1050 H1021 0.950 1_554 S
C1050 C1049 1.334 . S
C1050 C1051 1.287 . S
C1051 C1050 1.287 . S
C1051 C1052 1.524 . S
C1051 H1054 0.999 . S
C1052 H1022 0.950 . S
C1052 C1051 1.524 . S
C1052 C1053 1.415 . S
C1053 H1023 0.950 . S
C1053 C1048 1.363 . S
C1053 C1052 1.415 . S
H1054 C1051 0.999 . S
H1055 C1036 0.913 . S
H1056 C1074 0.951 . S
H1057 C1076 0.951 . S
H1058 C1078 0.950 . S
H1059 C1079 0.950 . S
H1060 C1081 0.950 . S
H1061 C1084 0.950 . S
H1062 C1085 0.950 . S
H1063 C1087 0.950 . S
H1064 C1088 0.950 . S
H1065 C1089 0.951 . S
H1066 C1091 0.951 . S
H1067 C1093 0.950 . S
H1068 C1094 0.950 . S
H1069 C1096 0.950 . S
H1070 C1099 0.950 1_455 S
H1071 C1100 0.950 . S
H1072 C1102 0.950 . S
H1073 C1103 0.950 . S
C1074 H1056 0.951 . S
C1074 C1075 1.366 . S
C1074 C1076 1.388 . S
C1075 C1074 1.366 . S
C1075 C1079 1.385 1_455 S
C1076 H1057 0.951 . S
C1076 C1074 1.388 . S
C1076 C1077 1.366 . S
C1077 C1076 1.366 . S
C1077 C1078 1.414 1_455 S
C1077 C1080 1.499 . S
C1078 H1058 0.950 . S
C1078 C1077 1.414 1_655 S
C1078 C1079 1.374 . S
C1079 H1059 0.950 . S
C1079 C1075 1.385 1_655 S
C1079 C1078 1.374 . S
C1080 C1077 1.499 . S
C1080 C1081 1.373 1_455 S
C1080 C1082 1.389 . S
C1081 H1060 0.950 . S
C1081 C1080 1.373 1_655 S
C1081 C1097 1.377 . S
C1082 C1080 1.389 . S
C1082 C1083 1.524 . S
C1082 C1096 1.377 . S
C1083 C1082 1.524 . S
C1083 C1084 1.397 . S
C1083 C1088 1.363 . S
C1084 H1061 0.950 . S
C1084 C1083 1.397 . S
C1084 C1085 1.334 . S
C1085 H1062 0.950 . S
C1085 C1084 1.334 . S
C1085 C1086 1.287 . S
C1086 C1085 1.287 . S
C1086 C1087 1.524 . S
C1086 H1105 0.913 . S
C1087 H1063 0.950 . S
C1087 C1086 1.524 . S
C1087 C1088 1.415 . S
C1088 H1064 0.950 . S
C1088 C1083 1.363 . S
C1088 C1087 1.415 . S
C1089 H1065 0.951 . S
C1089 C1090 1.366 1_655 S
C1089 C1091 1.388 . S
C1090 C1089 1.366 1_455 S
C1090 C1094 1.385 . S
C1091 H1066 0.951 . S
C1091 C1089 1.388 . S
C1091 C1092 1.366 1_655 S
C1092 C1091 1.366 1_455 S
C1092 C1093 1.414 . S
C1092 C1095 1.499 . S
C1093 H1067 0.950 . S
C1093 C1092 1.414 . S
C1093 C1094 1.374 . S
C1094 H1068 0.950 . S
C1094 C1090 1.385 . S
C1094 C1093 1.374 . S
C1095 C1092 1.499 . S
C1095 C1096 1.373 . S
C1095 C1097 1.389 1_455 S
C1096 H1069 0.950 . S
C1096 C1082 1.377 . S
C1096 C1095 1.373 . S
C1097 C1081 1.377 . S
C1097 C1095 1.389 1_655 S
C1097 C1098 1.524 . S
C1098 C1097 1.524 . S
C1098 C1099 1.397 . S
C1098 C1103 1.363 . S
C1099 H1070 0.950 1_655 S
C1099 C1098 1.397 . S
C1099 C1100 1.334 1_556 S
C1100 H1071 0.950 . S
C1100 C1099 1.334 1_554 S
C1100 C1101 1.287 . S
C1101 C1100 1.287 . S
C1101 C1102 1.524 . S
C1101 H1104 0.999 . S
C1102 H1072 0.950 . S
C1102 C1101 1.524 . S
C1102 C1103 1.415 1_554 S
C1103 H1073 0.950 . S
C1103 C1098 1.363 . S
C1103 C1102 1.415 1_556 S
H1104 C1101 0.999 . S
H1105 C1086 0.913 . S
H1106 C1124 0.951 . S
H1107 C1126 0.951 . S
H1108 C1128 0.947 1_565 S
H1109 C1129 0.951 1_554 S
H1110 C1131 0.950 . S
H1111 C1134 0.950 . S
H1112 C1135 0.950 . S
H1113 C1137 0.950 . S
H1114 C1138 0.950 . S
H1115 C1139 0.951 . S
H1116 C1141 0.951 . S
H1117 C1143 0.950 . S
H1118 C1144 0.950 . S
H1119 C1146 0.950 . S
H1120 C1149 0.950 . S
H1121 C1150 0.950 . S
H1122 C1152 0.950 . S
H1123 C1153 0.950 . S
C1124 H1106 0.951 . S
C1124 C1125 1.366 . S
C1124 C1126 1.388 . S
C1125 C1124 1.366 . S
C1125 C1129 1.384 1_545 S
C1126 H1107 0.951 . S
C1126 C1124 1.388 . S
C1126 C1127 1.366 . S
C1127 C1126 1.366 . S
C1127 C1128 1.416 . S
C1127 C1130 1.499 . S
C1128 H1108 0.947 1_545 S
C1128 C1127 1.416 . S
C1128 C1129 1.373 1_545 S
C1129 H1109 0.951 1_556 S
C1129 C1125 1.384 1_565 S
C1129 C1128 1.373 1_565 S
C1130 C1127 1.499 . S
C1130 C1131 1.373 . S
C1130 C1132 1.389 1_545 S
C1131 H1110 0.950 . S
C1131 C1130 1.373 . S
C1131 C1147 1.377 . S
C1132 C1130 1.389 1_565 S
C1132 C1133 1.524 . S
C1132 C1146 1.377 . S
C1133 C1132 1.524 . S
C1133 C1134 1.397 . S
C1133 C1138 1.363 . S
C1134 H1111 0.950 . S
C1134 C1133 1.397 . S
C1134 C1135 1.334 . S
C1135 H1112 0.950 . S
C1135 C1134 1.334 . S
C1135 C1136 1.287 . S
C1136 C1135 1.287 . S
C1136 C1137 1.524 . S
C1136 H1155 0.913 . S
C1137 H1113 0.950 . S
C1137 C1136 1.524 . S
C1137 C1138 1.415 . S
C1138 H1114 0.950 . S
C1138 C1133 1.363 . S
C1138 C1137 1.415 . S
C1139 H1115 0.951 . S
C1139 C1140 1.366 . S
C1139 C1141 1.388 . S
C1140 C1139 1.366 . S
C1140 C1144 1.385 . S
C1141 H1116 0.951 . S
C1141 C1139 1.388 . S
C1141 C1142 1.366 . S
C1142 C1141 1.366 . S
C1142 C1143 1.414 . S
C1142 C1145 1.499 . S
C1143 H1117 0.950 . S
C1143 C1142 1.414 . S
C1143 C1144 1.374 . S
C1144 H1118 0.950 . S
C1144 C1140 1.385 . S
C1144 C1143 1.374 . S
C1145 C1142 1.499 . S
C1145 C1146 1.373 1_545 S
C1145 C1147 1.389 . S
C1146 H1119 0.950 . S
C1146 C1132 1.377 . S
C1146 C1145 1.373 1_565 S
C1147 C1131 1.377 . S
C1147 C1145 1.389 . S
C1147 C1148 1.524 . S
C1148 C1147 1.524 . S
C1148 C1149 1.397 . S
C1148 C1153 1.363 1_556 S
C1149 H1120 0.950 . S
C1149 C1148 1.397 . S
C1149 C1150 1.334 . S
C1150 H1121 0.950 . S
C1150 C1149 1.334 . S
C1150 C1151 1.287 . S
C1151 C1150 1.287 . S
C1151 C1152 1.524 1_556 S
C1151 H1154 0.999 1_556 S
C1152 H1122 0.950 . S
C1152 C1151 1.524 1_554 S
C1152 C1153 1.415 . S
C1153 H1123 0.950 . S
C1153 C1148 1.363 1_554 S
C1153 C1152 1.415 . S
H1154 C1151 0.999 1_554 S
H1155 C1136 0.913 . S
H1156 C1174 0.951 . S
H1157 C1176 0.951 . S
H1158 C1178 0.950 . S
H1159 C1179 0.950 . S
H1160 C1181 0.950 . S
H1161 C1184 0.950 . S
H1162 C1185 0.950 1_554 S
H1163 C1187 0.950 . S
H1164 C1188 0.950 . S
H1165 C1189 0.951 . S
H1166 C1191 0.951 . S
H1167 C1193 0.950 . S
H1168 C1194 0.950 . S
H1169 C1196 0.950 . S
H1170 C1199 0.950 . S
H1171 C1200 0.950 . S
H1172 C1202 0.950 . S
H1173 C1203 0.950 . S
C1174 H1156 0.951 . S
C1174 C1175 1.366 . S
C1174 C1176 1.388 . S
C1175 C1174 1.366 . S
C1175 C1179 1.385 . S
C1176 H1157 0.951 . S
C1176 C1174 1.388 . S
C1176 C1177 1.366 . S
C1177 C1176 1.366 . S
C1177 C1178 1.414 . S
C1177 C1180 1.499 . S
C1178 H1158 0.950 . S
C1178 C1177 1.414 . S
C1178 C1179 1.374 . S
C1179 H1159 0.950 . S
C1179 C1175 1.385 . S
C1179 C1178 1.374 . S
C1180 C1177 1.499 . S
C1180 C1181 1.373 . S
C1180 C1182 1.389 . S
C1181 H1160 0.950 . S
C1181 C1180 1.373 . S
C1181 C1197 1.377 . S
C1182 C1180 1.389 . S
C1182 C1183 1.524 . S
C1182 C1196 1.377 . S
C1183 C1182 1.524 . S
C1183 C1184 1.397 . S
C1183 C1188 1.363 . S
C1184 H1161 0.950 . S
C1184 C1183 1.397 . S
C1184 C1185 1.334 . S
C1185 H1162 0.950 1_556 S
C1185 C1184 1.334 . S
C1185 C1186 1.287 . S
C1186 C1185 1.287 . S
C1186 C1187 1.524 . S
C1186 H1205 0.913 . S
C1187 H1163 0.950 . S
C1187 C1186 1.524 . S
C1187 C1188 1.415 . S
C1188 H1164 0.950 . S
C1188 C1183 1.363 . S
C1188 C1187 1.415 . S
C1189 H1165 0.951 . S
C1189 C1190 1.366 . S
C1189 C1191 1.388 . S
C1190 C1189 1.366 . S
C1190 C1194 1.385 . S
C1191 H1166 0.951 . S
C1191 C1189 1.388 . S
C1191 C1192 1.366 . S
C1192 C1191 1.366 . S
C1192 C1193 1.414 . S
C1192 C1195 1.499 . S
C1193 H1167 0.950 . S
C1193 C1192 1.414 . S
C1193 C1194 1.374 . S
C1194 H1168 0.950 . S
C1194 C1190 1.385 . S
C1194 C1193 1.374 . S
C1195 C1192 1.499 . S
C1195 C1196 1.373 . S
C1195 C1197 1.389 . S
C1196 H1169 0.950 . S
C1196 C1182 1.377 . S
C1196 C1195 1.373 . S
C1197 C1181 1.377 . S
C1197 C1195 1.389 . S
C1197 C1198 1.524 . S
C1198 C1197 1.524 . S
C1198 C1199 1.397 . S
C1198 C1203 1.363 . S
C1199 H1170 0.950 . S
C1199 C1198 1.397 . S
C1199 C1200 1.334 . S
C1200 H1171 0.950 . S
C1200 C1199 1.334 . S
C1200 C1201 1.287 . S
C1201 C1200 1.287 . S
C1201 C1202 1.524 . S
C1201 H1204 0.999 . S
C1202 H1172 0.950 . S
C1202 C1201 1.524 . S
C1202 C1203 1.415 . S
C1203 H1173 0.950 . S
C1203 C1198 1.363 . S
C1203 C1202 1.415 . S
H1204 C1201 0.999 . S
H1205 C1186 0.913 . S
H1206 C1224 0.951 . S
H1207 C1226 0.951 . S
H1208 C1228 0.950 . S
H1209 C1229 0.950 . S
H1210 C1231 0.950 . S
H1211 C1234 0.950 . S
H1212 C1235 0.950 . S
H1213 C1237 0.950 . S
H1214 C1238 0.950 . S
H1215 C1239 0.951 . S
H1216 C1241 0.951 . S
H1217 C1243 0.950 . S
H1218 C1244 0.950 . S
H1219 C1246 0.950 . S
H1220 C1249 0.950 . S
H1221 C1250 0.950 . S
H1222 C1252 0.950 . S
H1223 C1253 0.950 . S
C1224 H1206 0.951 . S
C1224 C1225 1.366 . S
C1224 C1226 1.388 . S
C1225 C1224 1.366 . S
C1225 C1229 1.385 . S
C1226 H1207 0.951 . S
C1226 C1224 1.388 . S
C1226 C1227 1.366 . S
C1227 C1226 1.366 . S
C1227 C1228 1.414 . S
C1227 C1230 1.499 . S
C1228 H1208 0.950 . S
C1228 C1227 1.414 . S
C1228 C1229 1.374 . S
C1229 H1209 0.950 . S
C1229 C1225 1.385 . S
C1229 C1228 1.374 . S
C1230 C1227 1.499 . S
C1230 C1231 1.373 . S
C1230 C1232 1.389 . S
C1231 H1210 0.950 . S
C1231 C1230 1.373 . S
C1231 C1247 1.377 . S
C1232 C1230 1.389 . S
C1232 C1233 1.524 . S
C1232 C1246 1.377 . S
C1233 C1232 1.524 . S
C1233 C1234 1.397 . S
C1233 C1238 1.363 . S
C1234 H1211 0.950 . S
C1234 C1233 1.397 . S
C1234 C1235 1.334 . S
C1235 H1212 0.950 . S
C1235 C1234 1.334 . S
C1235 C1236 1.287 . S
C1236 C1235 1.287 . S
C1236 C1237 1.524 . S
C1236 H1255 0.913 . S
C1237 H1213 0.950 . S
C1237 C1236 1.524 . S
C1237 C1238 1.415 . S
C1238 H1214 0.950 . S
C1238 C1233 1.363 . S
C1238 C1237 1.415 . S
C1239 H1215 0.951 . S
C1239 C1240 1.366 . S
C1239 C1241 1.388 . S
C1240 C1239 1.366 . S
C1240 C1244 1.385 . S
C1241 H1216 0.951 . S
C1241 C1239 1.388 . S
C1241 C1242 1.366 . S
C1242 C1241 1.366 . S
C1242 C1243 1.414 . S
C1242 C1245 1.499 . S
C1243 H1217 0.950 . S
C1243 C1242 1.414 . S
C1243 C1244 1.374 . S
C1244 H1218 0.950 . S
C1244 C1240 1.385 . S
C1244 C1243 1.374 . S
C1245 C1242 1.499 . S
C1245 C1246 1.373 . S
C1245 C1247 1.389 . S
C1246 H1219 0.950 . S
C1246 C1232 1.377 . S
C1246 C1245 1.373 . S
C1247 C1231 1.377 . S
C1247 C1245 1.389 . S
C1247 C1248 1.524 . S
C1248 C1247 1.524 . S
C1248 C1249 1.397 . S
C1248 C1253 1.363 1_556 S
C1249 H1220 0.950 . S
C1249 C1248 1.397 . S
C1249 C1250 1.334 . S
C1250 H1221 0.950 . S
C1250 C1249 1.334 . S
C1250 C1251 1.287 1_556 S
C1251 C1250 1.287 1_554 S
C1251 C1252 1.524 . S
C1251 H1254 0.999 . S
C1252 H1222 0.950 . S
C1252 C1251 1.524 . S
C1252 C1253 1.415 . S
C1253 H1223 0.950 . S
C1253 C1248 1.363 1_554 S
C1253 C1252 1.415 . S
H1254 C1251 0.999 . S
H1255 C1236 0.913 . S
H1256 C1274 0.951 . S
H1257 C1276 0.951 . S
H1258 C1278 0.950 . S
H1259 C1279 0.950 . S
H1260 C1281 0.950 . S
H1261 C1284 0.950 1_455 S
H1262 C1285 0.950 . S
H1263 C1287 0.950 . S
H1264 C1288 0.950 . S
H1265 C1289 0.951 . S
H1266 C1291 0.951 . S
H1267 C1293 0.950 . S
H1268 C1294 0.950 . S
H1269 C1296 0.950 . S
H1270 C1299 0.950 . S
H1271 C1300 0.950 1_655 S
H1272 C1302 0.950 . S
H1273 C1303 0.950 . S
C1274 H1256 0.951 . S
C1274 C1275 1.366 . S
C1274 C1276 1.388 . S
C1275 C1274 1.366 . S
C1275 C1279 1.385 1_655 S
C1276 H1257 0.951 . S
C1276 C1274 1.388 . S
C1276 C1277 1.366 . S
C1277 C1276 1.366 . S
C1277 C1278 1.414 1_655 S
C1277 C1280 1.499 . S
C1278 H1258 0.950 . S
C1278 C1277 1.414 1_455 S
C1278 C1279 1.374 . S
C1279 H1259 0.950 . S
C1279 C1275 1.385 1_455 S
C1279 C1278 1.374 . S
C1280 C1277 1.499 . S
C1280 C1281 1.373 1_655 S
C1280 C1282 1.389 . S
C1281 H1260 0.950 . S
C1281 C1280 1.373 1_455 S
C1281 C1297 1.377 . S
C1282 C1280 1.389 . S
C1282 C1283 1.524 . S
C1282 C1296 1.377 . S
C1283 C1282 1.524 . S
C1283 C1284 1.397 . S
C1283 C1288 1.363 . S
C1284 H1261 0.950 1_655 S
C1284 C1283 1.397 . S
C1284 C1285 1.334 . S
C1285 H1262 0.950 . S
C1285 C1284 1.334 . S
C1285 C1286 1.287 . S
C1286 C1285 1.287 . S
C1286 C1287 1.524 . S
C1286 H1305 0.913 . S
C1287 H1263 0.950 . S
C1287 C1286 1.524 . S
C1287 C1288 1.415 . S
C1288 H1264 0.950 . S
C1288 C1283 1.363 . S
C1288 C1287 1.415 . S
C1289 H1265 0.951 . S
C1289 C1290 1.366 1_455 S
C1289 C1291 1.388 . S
C1290 C1289 1.366 1_655 S
C1290 C1294 1.385 . S
C1291 H1266 0.951 . S
C1291 C1289 1.388 . S
C1291 C1292 1.366 1_455 S
C1292 C1291 1.366 1_655 S
C1292 C1293 1.414 . S
C1292 C1295 1.499 . S
C1293 H1267 0.950 . S
C1293 C1292 1.414 . S
C1293 C1294 1.374 . S
C1294 H1268 0.950 . S
C1294 C1290 1.385 . S
C1294 C1293 1.374 . S
C1295 C1292 1.499 . S
C1295 C1296 1.373 . S
C1295 C1297 1.389 1_655 S
C1296 H1269 0.950 . S
C1296 C1282 1.377 . S
C1296 C1295 1.373 . S
C1297 C1281 1.377 . S
C1297 C1295 1.389 1_455 S
C1297 C1298 1.524 . S
C1298 C1297 1.524 . S
C1298 C1299 1.397 1_455 S
C1298 C1303 1.363 . S
C1299 H1270 0.950 . S
C1299 C1298 1.397 1_655 S
C1299 C1300 1.334 1_655 S
C1300 H1271 0.950 1_455 S
C1300 C1299 1.334 1_455 S
C1300 C1301 1.287 . S
C1301 C1300 1.287 . S
C1301 C1302 1.524 . S
C1301 H1304 0.999 . S
C1302 H1272 0.950 . S
C1302 C1301 1.524 . S
C1302 C1303 1.415 . S
C1303 H1273 0.950 . S
C1303 C1298 1.363 . S
C1303 C1302 1.415 . S
H1304 C1301 0.999 . S
H1305 C1286 0.913 . S
H1306 C1324 0.951 . S
H1307 C1326 0.951 . S
H1308 C1328 0.950 . S
H1309 C1329 0.950 . S
H1310 C1331 0.950 . S
H1311 C1334 0.950 . S
H1312 C1335 0.950 . S
H1313 C1337 0.950 . S
H1314 C1338 0.950 . S
H1315 C1339 0.972 . S
H1316 C1341 0.951 . S
H1317 C1343 0.950 . S
H1318 C1344 0.950 . S
H1319 C1346 0.950 . S
H1320 C1349 0.950 . S
H1321 C1350 0.950 . S
H1322 C1352 0.950 . S
H1323 C1353 0.950 . S
C1324 H1306 0.951 . S
C1324 C1325 1.366 . S
C1324 C1326 1.388 . S
C1325 C1324 1.366 . S
C1325 C1329 1.385 1_565 S
C1326 H1307 0.951 . S
C1326 C1324 1.388 . S
C1326 C1327 1.366 . S
C1327 C1326 1.366 . S
C1327 C1328 1.414 1_565 S
C1327 C1330 1.499 . S
C1328 H1308 0.950 . S
C1328 C1327 1.414 1_545 S
C1328 C1329 1.374 . S
C1329 H1309 0.950 . S
C1329 C1325 1.385 1_545 S
C1329 C1328 1.374 . S
C1330 C1327 1.499 . S
C1330 C1331 1.373 1_565 S
C1330 C1332 1.389 . S
C1331 H1310 0.950 . S
C1331 C1330 1.373 1_545 S
C1331 C1347 1.377 . S
C1332 C1330 1.389 . S
C1332 C1333 1.524 . S
C1332 C1346 1.377 . S
C1333 C1332 1.524 . S
C1333 C1334 1.397 . S
C1333 C1338 1.363 . S
C1334 H1311 0.950 . S
C1334 C1333 1.397 . S
C1334 C1335 1.334 . S
C1335 H1312 0.950 . S
C1335 C1334 1.334 . S
C1335 C1336 1.287 . S
C1336 C1335 1.287 . S
C1336 C1337 1.524 . S
C1336 H1355 0.913 . S
C1337 H1313 0.950 . S
C1337 C1336 1.524 . S
C1337 C1338 1.415 . S
C1338 H1314 0.950 . S
C1338 C1333 1.363 . S
C1338 C1337 1.415 . S
C1339 H1315 0.972 . S
C1339 C1340 1.343 1_545 S
C1339 C1341 1.392 . S
C1340 C1339 1.343 1_565 S
C1340 C1344 1.385 . S
C1341 H1316 0.951 . S
C1341 C1339 1.392 . S
C1341 C1342 1.366 1_545 S
C1342 C1341 1.366 1_565 S
C1342 C1343 1.414 . S
C1342 C1345 1.499 . S
C1343 H1317 0.950 . S
C1343 C1342 1.414 . S
C1343 C1344 1.374 . S
C1344 H1318 0.950 . S
C1344 C1340 1.385 . S
C1344 C1343 1.374 . S
C1345 C1342 1.499 . S
C1345 C1346 1.373 . S
C1345 C1347 1.389 1_565 S
C1346 H1319 0.950 . S
C1346 C1332 1.377 . S
C1346 C1345 1.373 . S
C1347 C1331 1.377 . S
C1347 C1345 1.389 1_545 S
C1347 C1348 1.524 . S
C1348 C1347 1.524 . S
C1348 C1349 1.397 . S
C1348 C1353 1.363 . S
C1349 H1320 0.950 . S
C1349 C1348 1.397 . S
C1349 C1350 1.334 . S
C1350 H1321 0.950 . S
C1350 C1349 1.334 . S
C1350 C1351 1.287 . S
C1351 C1350 1.287 . S
C1351 C1352 1.524 . S
C1351 H1354 0.999 . S
C1352 H1322 0.950 . S
C1352 C1351 1.524 . S
C1352 C1353 1.415 . S
C1353 H1323 0.950 . S
C1353 C1348 1.363 . S
C1353 C1352 1.415 . S
H1354 C1351 0.999 . S
H1355 C1336 0.913 . S
H1356 C1374 0.951 . S
H1357 C1376 0.951 . S
H1358 C1378 0.950 . S
H1359 C1379 0.950 . S
H1360 C1381 0.950 . S
H1361 C1384 0.950 . S
H1362 C1385 0.950 . S
H1363 C1387 0.950 . S
H1364 C1388 0.950 . S
H1365 C1389 0.951 . S
H1366 C1391 0.951 . S
H1367 C1393 0.950 . S
H1368 C1394 0.950 . S
H1369 C1396 0.950 . S
H1370 C1399 0.950 . S
H1371 C1400 0.950 . S
H1372 C1402 0.950 . S
H1373 C1403 0.950 . S
C1374 H1356 0.951 . S
C1374 C1375 1.366 . S
C1374 C1376 1.388 . S
C1375 C1374 1.366 . S
C1375 C1379 1.385 . S
C1376 H1357 0.951 . S
C1376 C1374 1.388 . S
C1376 C1377 1.366 . S
C1377 C1376 1.366 . S
C1377 C1378 1.414 . S
C1377 C1380 1.499 . S
C1378 H1358 0.950 . S
C1378 C1377 1.414 . S
C1378 C1379 1.374 . S
C1379 H1359 0.950 . S
C1379 C1375 1.385 . S
C1379 C1378 1.374 . S
C1380 C1377 1.499 . S
C1380 C1381 1.373 . S
C1380 C1382 1.389 . S
C1381 H1360 0.950 . S
C1381 C1380 1.373 . S
C1381 C1397 1.377 . S
C1382 C1380 1.389 . S
C1382 C1383 1.524 . S
C1382 C1396 1.377 . S
C1383 C1382 1.524 . S
C1383 C1384 1.397 . S
C1383 C1388 1.363 . S
C1384 H1361 0.950 . S
C1384 C1383 1.397 . S
C1384 C1385 1.334 . S
C1385 H1362 0.950 . S
C1385 C1384 1.334 . S
C1385 C1386 1.287 . S
C1386 C1385 1.287 . S
C1386 C1387 1.524 . S
C1386 H1405 0.913 . S
C1387 H1363 0.950 . S
C1387 C1386 1.524 . S
C1387 C1388 1.415 . S
C1388 H1364 0.950 . S
C1388 C1383 1.363 . S
C1388 C1387 1.415 . S
C1389 H1365 0.951 . S
C1389 C1390 1.366 . S
C1389 C1391 1.388 . S
C1390 C1389 1.366 . S
C1390 C1394 1.385 . S
C1391 H1366 0.951 . S
C1391 C1389 1.388 . S
C1391 C1392 1.366 . S
C1392 C1391 1.366 . S
C1392 C1393 1.414 . S
C1392 C1395 1.499 . S
C1393 H1367 0.950 . S
C1393 C1392 1.414 . S
C1393 C1394 1.374 . S
C1394 H1368 0.950 . S
C1394 C1390 1.385 . S
C1394 C1393 1.374 . S
C1395 C1392 1.499 . S
C1395 C1396 1.373 . S
C1395 C1397 1.389 . S
C1396 H1369 0.950 . S
C1396 C1382 1.377 . S
C1396 C1395 1.373 . S
C1397 C1381 1.377 . S
C1397 C1395 1.389 . S
C1397 C1398 1.524 . S
C1398 C1397 1.524 . S
C1398 C1399 1.397 . S
C1398 C1403 1.363 . S
C1399 H1370 0.950 . S
C1399 C1398 1.397 . S
C1399 C1400 1.334 . S
C1400 H1371 0.950 . S
C1400 C1399 1.334 . S
C1400 C1401 1.287 . S
C1401 C1400 1.287 . S
C1401 C1402 1.524 . S
C1401 H1404 0.999 . S
C1402 H1372 0.950 . S
C1402 C1401 1.524 . S
C1402 C1403 1.415 . S
C1403 H1373 0.950 . S
C1403 C1398 1.363 . S
C1403 C1402 1.415 . S
H1404 C1401 0.999 . S
H1405 C1386 0.913 . S
H1406 C1424 0.951 . S
H1407 C1426 0.951 . S
H1408 C1428 0.950 . S
H1409 C1429 0.950 . S
H1410 C1431 0.950 . S
H1411 C1434 0.950 . S
H1412 C1435 0.950 . S
H1413 C1437 0.950 . S
H1414 C1438 0.950 . S
H1415 C1439 0.951 . S
H1416 C1441 0.951 . S
H1417 C1443 0.950 . S
H1418 C1444 0.950 . S
H1419 C1446 0.950 . S
H1420 C1449 0.950 . S
H1421 C1450 0.950 . S
H1422 C1452 0.950 . S
H1423 C1453 0.950 . S
C1424 H1406 0.951 . S
C1424 C1425 1.366 . S
C1424 C1426 1.388 . S
C1425 C1424 1.366 . S
C1425 C1429 1.385 . S
C1426 H1407 0.951 . S
C1426 C1424 1.388 . S
C1426 C1427 1.366 . S
C1427 C1426 1.366 . S
C1427 C1428 1.414 . S
C1427 C1430 1.499 . S
C1428 H1408 0.950 . S
C1428 C1427 1.414 . S
C1428 C1429 1.374 . S
C1429 H1409 0.950 . S
C1429 C1425 1.385 . S
C1429 C1428 1.374 . S
C1430 C1427 1.499 . S
C1430 C1431 1.373 . S
C1430 C1432 1.389 . S
C1431 H1410 0.950 . S
C1431 C1430 1.373 . S
C1431 C1447 1.377 . S
C1432 C1430 1.389 . S
C1432 C1433 1.524 . S
C1432 C1446 1.377 . S
C1433 C1432 1.524 . S
C1433 C1434 1.397 . S
C1433 C1438 1.363 . S
C1434 H1411 0.950 . S
C1434 C1433 1.397 . S
C1434 C1435 1.334 . S
C1435 H1412 0.950 . S
C1435 C1434 1.334 . S
C1435 C1436 1.287 . S
C1436 C1435 1.287 . S
C1436 C1437 1.524 . S
C1436 H1455 0.913 . S
C1437 H1413 0.950 . S
C1437 C1436 1.524 . S
C1437 C1438 1.415 . S
C1438 H1414 0.950 . S
C1438 C1433 1.363 . S
C1438 C1437 1.415 . S
C1439 H1415 0.951 . S
C1439 C1440 1.366 . S
C1439 C1441 1.388 . S
C1440 C1439 1.366 . S
C1440 C1444 1.385 . S
C1441 H1416 0.951 . S
C1441 C1439 1.388 . S
C1441 C1442 1.366 . S
C1442 C1441 1.366 . S
C1442 C1443 1.414 . S
C1442 C1445 1.499 . S
C1443 H1417 0.950 . S
C1443 C1442 1.414 . S
C1443 C1444 1.374 . S
C1444 H1418 0.950 . S
C1444 C1440 1.385 . S
C1444 C1443 1.374 . S
C1445 C1442 1.499 . S
C1445 C1446 1.373 . S
C1445 C1447 1.389 . S
C1446 H1419 0.950 . S
C1446 C1432 1.377 . S
C1446 C1445 1.373 . S
C1447 C1431 1.377 . S
C1447 C1445 1.389 . S
C1447 C1448 1.524 . S
C1448 C1447 1.524 . S
C1448 C1449 1.397 . S
C1448 C1453 1.363 . S
C1449 H1420 0.950 . S
C1449 C1448 1.397 . S
C1449 C1450 1.334 . S
C1450 H1421 0.950 . S
C1450 C1449 1.334 . S
C1450 C1451 1.287 . S
C1451 C1450 1.287 . S
C1451 C1452 1.524 . S
C1451 H1454 0.999 . S
C1452 H1422 0.950 . S
C1452 C1451 1.524 . S
C1452 C1453 1.415 . S
C1453 H1423 0.950 . S
C1453 C1448 1.363 . S
C1453 C1452 1.415 . S
H1454 C1451 0.999 . S
H1455 C1436 0.913 . S
C275 C76 1.726 . S
C290 C105 1.819 1_545 S
C340 C145 1.822 . S
C325 C88 1.724 . S
C390 C185 1.822 . S
C375 C52 1.724 . S
C440 C225 1.821 1_455 S
C425 C64 1.728 . S
C490 C114 1.818 1_565 S
C475 C28 1.726 . S
C525 C40 1.723 . S
C540 C154 1.821 . S
C575 C4 1.725 . S
C590 C194 1.822 . S
C625 C16 1.724 . S
C640 C234 1.820 1_655 S
C690 C111 0.313 . S
C675 C69 0.373 . S
C740 C151 0.312 . S
C725 C81 0.370 . S
C790 C191 0.311 . S
C775 C93 0.373 . S
C825 C57 0.372 . S
C840 C231 0.313 . S
C875 C21 0.384 1_655 S
C890 C102 0.311 . S
C940 C142 0.310 . S
C925 C33 0.387 . S
C990 C182 0.313 . S
C975 C45 0.388 . S
C1025 C9 0.387 . S
C1040 C222 0.313 . S
C1075 C66 1.875 . S
C1090 C115 2.060 . S
C1125 C78 1.875 . S
C1140 C155 2.060 . S
C1190 C195 2.060 . S
C1175 C90 1.876 . S
C1240 C235 2.060 . S
C1225 C54 1.875 . S
C1275 C18 1.879 1_655 S
C1290 C106 2.060 . S
C1340 C146 2.060 . S
C1325 C30 1.879 1_565 S
C1390 C186 2.060 . S
C1375 C42 1.879 . S
C1425 C6 1.880 . S
C1440 C226 2.060 . S
