# Generated by pormake.
# Topology pyr, (3,6)-cn, num edge types: 1
# Building blocks:
#     Node 0, Type 0, BuildingBlock: KAKCAD_clean_linker_0, # of connection points: 3
#     Node 1, Type 0, BuildingBlock: KAKCAD_clean_linker_0, # of connection points: 3
#     Node 2, Type 0, BuildingBlock: KAKCAD_clean_linker_0, # of connection points: 3
#     Node 3, Type 0, BuildingBlock: KAKCAD_clean_linker_0, # of connection points: 3
#     Node 4, Type 0, BuildingBlock: KAKCAD_clean_linker_0, # of connection points: 3
#     Node 5, Type 0, BuildingBlock: KAKCAD_clean_linker_0, # of connection points: 3
#     Node 6, Type 0, BuildingBlock: KAKCAD_clean_linker_0, # of connection points: 3
#     Node 7, Type 0, BuildingBlock: KAKCAD_clean_linker_0, # of connection points: 3
#     Node 8, Type 1, BuildingBlock: INOVEN_clean_sbu_0, # of connection points: 6
#     Node 9, Type 1, BuildingBlock: INOVEN_clean_sbu_0, # of connection points: 6
#     Node 10, Type 1, BuildingBlock: INOVEN_clean_sbu_0, # of connection points: 6
#     Node 11, Type 1, BuildingBlock: INOVEN_clean_sbu_0, # of connection points: 6
#     Edge 12, Type (0, 1), None
#     Edge 13, Type (0, 1), None
#     Edge 14, Type (0, 1), None
#     Edge 15, Type (0, 1), None
#     Edge 16, Type (0, 1), None
#     Edge 17, Type (0, 1), None
#     Edge 18, Type (0, 1), None
#     Edge 19, Type (0, 1), None
#     Edge 20, Type (0, 1), None
#     Edge 21, Type (0, 1), None
#     Edge 22, Type (0, 1), None
#     Edge 23, Type (0, 1), None
#     Edge 24, Type (0, 1), None
#     Edge 25, Type (0, 1), None
#     Edge 26, Type (0, 1), None
#     Edge 27, Type (0, 1), None
#     Edge 28, Type (0, 1), None
#     Edge 29, Type (0, 1), None
#     Edge 30, Type (0, 1), None
#     Edge 31, Type (0, 1), None
#     Edge 32, Type (0, 1), None
#     Edge 33, Type (0, 1), None
#     Edge 34, Type (0, 1), None
#     Edge 35, Type (0, 1), None
# Relax obj value: 0.215
# Max RMSD: 0.165
# Mean RMSD: 0.077
data_MOF--net-pyr--node1-INOVEN_clean_sbu_0--node2-KAKCAD_clean_linker_0--edge1-none
_symmetry_space_group_name_H-M    P1
_symmetry_Int_Tables_number       1
_symmetry_cell_setting            triclinic
loop_
_symmetry_equiv_pos_as_xyz
'x, y, z'
_cell_length_a     26.570003
_cell_length_b     26.684399
_cell_length_c     22.801812
_cell_angle_alpha  90.052051
_cell_angle_beta   87.569291
_cell_angle_gamma 105.89626
loop_
_atom_site_label
_atom_site_type_symbol
_atom_site_fract_x
_atom_site_fract_y
_atom_site_fract_z
_atom_type_partial_charge
C0 C 0.34014 0.35922 0.52074 0.0
C1 C 0.3333 0.30525 0.51707 0.0
C2 C 0.38477 0.3935 0.4939 0.0
C3 C 0.41963 0.3733 0.45881 0.0
C4 C 0.4202 0.32164 0.47139 0.0
C5 C 0.37663 0.28754 0.4996 0.0
C6 C 0.43445 0.39381 0.39702 0.0
C7 C 0.40172 0.41992 0.37025 0.0
C8 C 0.38901 0.41131 0.31128 0.0
C9 C 0.41584 0.38276 0.27641 0.0
C10 C 0.45353 0.36159 0.3006 0.0
C11 C 0.46518 0.3705 0.35988 0.0
C12 C 0.46871 0.31833 0.27024 0.0
C13 C 0.42905 0.27644 0.24993 0.0
C14 C 0.52072 0.31506 0.26734 0.0
C15 C 0.5327 0.27081 0.24372 0.0
C16 C 0.49261 0.22869 0.22413 0.0
C17 C 0.34012 0.42171 0.29085 0.0
C18 C 0.29496 0.41079 0.32857 0.0
C19 C 0.33669 0.43916 0.2334 0.0
C20 C 0.28933 0.44578 0.21442 0.0
C21 C 0.24431 0.43495 0.25244 0.0
C22 C 0.24803 0.41772 0.30985 0.0
C23 C 0.44076 0.23226 0.22746 0.0
H24 H 0.30857 0.37459 0.53712 0.0
H25 H 0.38647 0.43445 0.49188 0.0
H26 H 0.44886 0.30443 0.4511 0.0
H27 H 0.37385 0.24626 0.50012 0.0
H28 H 0.37965 0.44087 0.39661 0.0
H29 H 0.49226 0.35181 0.37857 0.0
H30 H 0.40408 0.37284 0.23198 0.0
H31 H 0.38842 0.27708 0.25306 0.0
H32 H 0.5519 0.34654 0.28358 0.0
H33 H 0.57307 0.26934 0.2414 0.0
H34 H 0.29535 0.39571 0.37259 0.0
H35 H 0.37053 0.44753 0.20311 0.0
H36 H 0.40882 0.20093 0.21235 0.0
H37 H 0.21462 0.40964 0.34072 0.0
H38 H 0.28781 0.45855 0.16963 0.0
C39 C 0.15304 0.87457 1.01797 0.0
C40 C 0.20599 0.87657 1.02509 0.0
C41 C 0.12765 0.8519 0.96805 0.0
C42 C 0.15459 0.83014 0.92521 0.0
C43 C 0.20463 0.82537 0.93703 0.0
C44 C 0.22996 0.84818 0.98645 0.0
C45 C 0.13653 0.82222 0.8643 0.0
C46 C 0.12219 0.86257 0.83559 0.0
C47 C 0.1206 0.86403 0.77396 0.0
C48 C 0.13265 0.82339 0.74162 0.0
C49 C 0.15039 0.78497 0.7695 0.0
C50 C 0.1477 0.78218 0.83096 0.0
C51 C 0.18716 0.7602 0.73763 0.0
C52 C 0.19091 0.71084 0.75501 0.0
C53 C 0.22776 0.79173 0.70138 0.0
C54 C 0.27379 0.7774 0.6895 0.0
C55 C 0.28015 0.73119 0.7134 0.0
C56 C 0.11512 0.91173 0.7432 0.0
C57 C 0.08556 0.94346 0.76863 0.0
C58 C 0.14207 0.92761 0.68889 0.0
C59 C 0.13707 0.97152 0.65939 0.0
C60 C 0.10654 1.00211 0.68402 0.0
C61 C 0.08229 0.98884 0.73983 0.0
C62 C 0.23715 0.69656 0.74323 0.0
H63 H 0.13284 0.89469 1.04805 0.0
H64 H 0.08863 0.85509 0.96069 0.0
H65 H 0.22694 0.8092 0.90502 0.0
H66 H 0.27059 0.84867 0.99006 0.0
H67 H 0.11783 0.89561 0.86087 0.0
H68 H 0.16188 0.75307 0.85298 0.0
H69 H 0.13306 0.8239 0.69413 0.0
H70 H 0.15998 0.6853 0.78214 0.0
H71 H 0.22664 0.83019 0.68744 0.0
H72 H 0.30606 0.8049 0.66619 0.0
H73 H 0.06442 0.93312 0.81044 0.0
H74 H 0.16767 0.9066 0.66877 0.0
H75 H 0.24042 0.65989 0.76067 0.0
H76 H 0.05983 1.01273 0.76056 0.0
H77 H 0.15718 0.98142 0.61688 0.0
C78 C 0.83793 0.54948 1.02781 0.0
C79 C 0.86945 0.5187 1.0476 0.0
C80 C 0.79091 0.52679 0.99993 0.0
C81 C 0.77406 0.4726 0.99057 0.0
C82 C 0.80606 0.44209 1.01005 0.0
C83 C 0.85266 0.46467 1.03834 0.0
C84 C 0.72317 0.44747 0.96186 0.0
C85 C 0.70426 0.47287 0.91652 0.0
C86 C 0.65708 0.44839 0.88914 0.0
C87 C 0.62838 0.39796 0.90844 0.0
C88 C 0.64579 0.3721 0.95416 0.0
C89 C 0.69305 0.39727 0.98021 0.0
C90 C 0.61382 0.31968 0.97675 0.0
C91 C 0.55954 0.3098 0.98799 0.0
C92 C 0.63744 0.27984 0.98975 0.0
C93 C 0.60757 0.23169 1.01367 0.0
C94 C 0.55353 0.22251 1.02609 0.0
C95 C 0.63721 0.47526 0.84067 0.0
C96 C 0.63328 0.52658 0.84703 0.0
C97 C 0.62037 0.44917 0.78824 0.0
C98 C 0.59994 0.47346 0.74375 0.0
C99 C 0.59454 0.52422 0.75082 0.0
C100 C 0.61172 0.55046 0.80311 0.0
C101 C 0.52996 0.26214 1.01265 0.0
H102 H 0.84946 0.59127 1.03396 0.0
H103 H 0.76745 0.5518 0.9865 0.0
H104 H 0.79557 0.40048 1.0028 0.0
H105 H 0.87599 0.43963 1.05216 0.0
H106 H 0.7269 0.51115 0.90124 0.0
H107 H 0.70545 0.37811 1.01655 0.0
H108 H 0.59202 0.37895 0.88813 0.0
H109 H 0.54004 0.33958 0.97931 0.0
H110 H 0.67912 0.2859 0.98136 0.0
H111 H 0.62692 0.20206 1.02318 0.0
H112 H 0.64558 0.54784 0.8868 0.0
H113 H 0.62307 0.40978 0.78156 0.0
H114 H 0.48843 0.25653 1.02172 0.0
H115 H 0.60841 0.58959 0.81025 0.0
H116 H 0.58715 0.45188 0.70432 0.0
C117 C 0.90811 0.60777 0.29784 0.0
C118 C 0.9441 0.63375 0.25341 0.0
C119 C 0.88778 0.63554 0.34083 0.0
C120 C 0.90159 0.69061 0.34041 0.0
C121 C 0.93743 0.71658 0.2953 0.0
C122 C 0.95868 0.6886 0.25289 0.0
C123 C 0.87911 0.72015 0.3871 0.0
C124 C 0.82924 0.69716 0.41516 0.0
C125 C 0.80936 0.72214 0.46164 0.0
C126 C 0.83867 0.77189 0.47814 0.0
C127 C 0.88803 0.79629 0.45172 0.0
C128 C 0.90794 0.77034 0.40593 0.0
C129 C 0.91867 0.84732 0.4763 0.0
C130 C 0.92093 0.8528 0.53754 0.0
C131 C 0.94142 0.89168 0.44081 0.0
C132 C 0.96376 0.94066 0.46642 0.0
C133 C 0.96376 0.94616 0.52798 0.0
C134 C 0.75914 0.69657 0.49559 0.0
C135 C 0.71308 0.67046 0.46768 0.0
C136 C 0.75654 0.70087 0.55719 0.0
C137 C 0.70915 0.68214 0.58959 0.0
C138 C 0.6627 0.65825 0.56163 0.0
C139 C 0.66533 0.65156 0.50037 0.0
C140 C 0.94279 0.90113 0.56284 0.0
H141 H 0.89629 0.56559 0.30026 0.0
H142 H 0.86186 0.61327 0.37511 0.0
H143 H 0.94896 0.75867 0.29217 0.0
H144 H 0.98637 0.71002 0.2195 0.0
H145 H 0.8059 0.65932 0.40179 0.0
H146 H 0.94676 0.78839 0.38707 0.0
H147 H 0.82284 0.79202 0.51254 0.0
H148 H 0.90466 0.81951 0.56636 0.0
H149 H 0.94022 0.88892 0.39348 0.0
H150 H 0.9799 0.97428 0.4381 0.0
H151 H 0.71351 0.66636 0.42042 0.0
H152 H 0.79129 0.71957 0.58054 0.0
H153 H 0.94264 0.90303 0.6103 0.0
H154 H 0.63025 0.63301 0.47752 0.0
H155 H 0.70879 0.6874 0.63672 0.0
C156 C 0.70509 0.81381 0.7476 0.0
C157 C 0.7203 0.86841 0.74308 0.0
C158 C 0.66083 0.78855 0.78249 0.0
C159 C 0.63381 0.81818 0.8161 0.0
C160 C 0.64231 0.87105 0.8003 0.0
C161 C 0.68533 0.89594 0.76393 0.0
C162 C 0.61445 0.80147 0.87762 0.0
C163 C 0.64318 0.77468 0.91001 0.0
C164 C 0.64629 0.77992 0.971 0.0
C165 C 0.61731 0.80971 1.00058 0.0
C166 C 0.58555 0.83399 0.96953 0.0
C167 C 0.58179 0.82687 0.90868 0.0
C168 C 0.56929 0.8781 0.99631 0.0
C169 C 0.51844 0.8836 0.99145 0.0
C170 C 0.60764 0.91865 1.02088 0.0
C171 C 0.59592 0.96394 1.0396 0.0
C172 C 0.54526 0.96986 1.03501 0.0
C173 C 0.6898 0.76542 0.99928 0.0
C174 C 0.69903 0.71679 0.98824 0.0
C175 C 0.72799 0.80374 1.0275 0.0
C176 C 0.77587 0.79495 1.04061 0.0
C177 C 0.78658 0.74753 1.02601 0.0
C178 C 0.74676 0.70786 1.00168 0.0
C179 C 0.50626 0.9289 1.01158 0.0
H180 H 0.73056 0.79141 0.73 0.0
H181 H 0.65311 0.74704 0.79024 0.0
H182 H 0.62163 0.89564 0.82279 0.0
H183 H 0.69536 0.93802 0.75994 0.0
H184 H 0.67003 0.75636 0.88747 0.0
H185 H 0.55952 0.84792 0.88472 0.0
H186 H 0.62256 0.81731 1.04696 0.0
H187 H 0.48841 0.8531 0.97184 0.0
H188 H 0.64747 0.91609 1.0239 0.0
H189 H 0.62682 0.99425 1.05821 0.0
H190 H 0.67028 0.68658 0.96647 0.0
H191 H 0.7225 0.84195 1.03552 0.0
H192 H 0.46678 0.9322 1.00799 0.0
H193 H 0.75308 0.6704 0.99118 0.0
H194 H 0.8056 0.82657 1.0589 0.0
C195 C 0.88677 0.26546 0.23524 0.0
C196 C 0.86188 0.29798 0.20653 0.0
C197 C 0.91285 0.28182 0.28648 0.0
C198 C 0.91505 0.33134 0.30944 0.0
C199 C 0.9006 0.36746 0.27313 0.0
C200 C 0.87283 0.35048 0.22273 0.0
C201 C 0.91612 0.33842 0.37451 0.0
C202 C 0.93974 0.30877 0.40987 0.0
C203 C 0.924 0.29898 0.46949 0.0
C204 C 0.88762 0.32324 0.4949 0.0
C205 C 0.86676 0.35603 0.46138 0.0
C206 C 0.88156 0.3638 0.40174 0.0
C207 C 0.82267 0.3752 0.48473 0.0
C208 C 0.77739 0.34003 0.50961 0.0
C209 C 0.82256 0.42702 0.47441 0.0
C210 C 0.77728 0.44284 0.4862 0.0
C211 C 0.73107 0.40698 0.50803 0.0
C212 C 0.93932 0.25797 0.50307 0.0
C213 C 0.94248 0.21135 0.47582 0.0
C214 C 0.94591 0.26287 0.56384 0.0
C215 C 0.95251 0.22138 0.59693 0.0
C216 C 0.95372 0.17439 0.56994 0.0
C217 C 0.95017 0.17012 0.50894 0.0
C218 C 0.73189 0.35573 0.5209 0.0
H219 H 0.87972 0.22487 0.22338 0.0
H220 H 0.9243 0.25271 0.31162 0.0
H221 H 0.9046 0.40701 0.28743 0.0
H222 H 0.85534 0.37682 0.20021 0.0
H223 H 0.96761 0.29017 0.39006 0.0
H224 H 0.86098 0.385 0.37558 0.0
H225 H 0.87319 0.31456 0.53995 0.0
H226 H 0.77625 0.29966 0.51725 0.0
H227 H 0.85694 0.45475 0.45499 0.0
H228 H 0.77775 0.48251 0.47547 0.0
H229 H 0.93677 0.20567 0.4293 0.0
H230 H 0.94486 0.29843 0.58615 0.0
H231 H 0.69696 0.32746 0.53831 0.0
H232 H 0.95132 0.13429 0.48723 0.0
H233 H 0.95635 0.22604 0.64388 0.0
C234 C 0.18477 0.65255 0.24229 0.0
C235 C 0.1729 0.67175 0.18874 0.0
C236 C 0.23176 0.67627 0.26946 0.0
C237 C 0.26961 0.71905 0.24301 0.0
C238 C 0.25781 0.7371 0.18821 0.0
C239 C 0.2099 0.71449 0.16219 0.0
C240 C 0.32036 0.74489 0.27251 0.0
C241 C 0.3418 0.71747 0.31376 0.0
C242 C 0.3881 0.74177 0.34268 0.0
C243 C 0.41468 0.79391 0.3276 0.0
C244 C 0.39545 0.82203 0.28555 0.0
C245 C 0.34774 0.79752 0.25976 0.0
C246 C 0.42642 0.87614 0.26637 0.0
C247 C 0.48093 0.88765 0.25565 0.0
C248 C 0.40207 0.91605 0.25612 0.0
C249 C 0.43147 0.96575 0.23556 0.0
C250 C 0.48582 0.97661 0.22398 0.0
C251 C 0.40856 0.71309 0.38914 0.0
C252 C 0.4109 0.6613 0.38125 0.0
C253 C 0.42609 0.73754 0.44218 0.0
C254 C 0.44521 0.71125 0.4858 0.0
C255 C 0.44811 0.65974 0.4778 0.0
C256 C 0.43084 0.63522 0.42466 0.0
C257 C 0.51002 0.93688 0.2346 0.0
H258 H 0.15692 0.61987 0.26422 0.0
H259 H 0.23748 0.66125 0.31193 0.0
H260 H 0.28557 0.76851 0.16447 0.0
H261 H 0.20226 0.72989 1.12055 0.0
H262 H 0.32251 0.67707 0.3241 0.0
H263 H 0.33251 0.81985 0.229 0.0
H264 H 0.45082 0.81263 0.34847 0.0
H265 H 0.50114 0.85804 0.26198 0.0
H266 H 0.36023 0.90893 0.26415 0.0
H267 H 0.41156 0.99534 0.22809 0.0
H268 H 0.39817 0.64116 0.34098 0.0
H269 H 0.42463 0.77712 0.45029 0.0
H270 H 0.55175 0.94357 0.22595 0.0
H271 H 0.43249 0.59567 0.41665 0.0
H272 H 0.45878 0.73187 0.52547 0.0
C273 C 0.09681 0.27402 0.68978 0.0
C274 C 0.08526 0.22884 0.72533 0.0
C275 C 0.11702 0.32342 0.71326 0.0
C276 C 0.12647 0.32989 0.77332 0.0
C277 C 0.1126 0.28523 0.80999 0.0
C278 C 0.09209 0.23509 0.78619 0.0
C279 C 0.15574 0.38275 0.79426 0.0
C280 C 0.20229 0.40882 0.76332 0.0
C281 C 0.22919 0.46051 0.77542 0.0
C282 C 0.20893 0.48659 0.82062 0.0
C283 C 0.16239 0.4615 0.85417 0.0
C284 C 0.13665 0.40875 0.84055 0.0
C285 C 0.14004 0.4911 0.9012 0.0
C286 C 0.17215 0.53527 0.9288 0.0
C287 C 0.08607 0.47674 0.91817 0.0
C288 C 0.06533 0.50535 0.96017 0.0
C289 C 0.09737 0.55028 0.9855 0.0
C290 C 0.27789 0.48638 0.73911 0.0
C291 C 0.27956 0.47888 0.67793 0.0
C292 C 0.32413 0.51471 0.76509 0.0
C293 C 0.37129 0.53251 0.73118 0.0
C294 C 0.37315 0.52267 0.67051 0.0
C295 C 0.32641 0.49672 0.64421 0.0
C296 C 0.15103 0.56473 0.96932 0.0
H297 H 0.09078 0.27141 0.64307 0.0
H298 H 0.12652 0.35688 0.68382 0.0
H299 H 0.11956 0.28887 0.85645 0.0
H300 H 0.08315 0.20129 0.81502 0.0
H301 H 0.21773 0.38833 0.72894 0.0
H302 H 0.10126 0.38786 0.86475 0.0
H303 H 0.22878 0.52714 0.82767 0.0
H304 H 0.21398 0.54755 0.91954 0.0
H305 H 0.059 0.44412 0.89815 0.0
H306 H 0.0237 0.49321 0.97135 0.0
H307 H 0.24462 0.45808 0.65612 0.0
H308 H 0.32439 0.52113 0.81199 0.0
H309 H 0.17697 0.5988 0.98848 0.0
H310 H 0.32621 0.4889 0.59758 0.0
H311 H 0.40657 0.55263 0.75278 0.0
Gd312 Gd 0.06337 0.10736 0.5763 0.0
Gd313 Gd 0.99012 1.0664 0.67849 0.0
C314 C 0.06709 0.17677 0.69668 0.0
C315 C 0.12506 0.16753 0.49967 0.0
C316 C 0.17717 0.20466 0.5043 0.0
C317 C 0.21695 0.20236 0.46314 0.0
C318 C 0.18896 0.23952 0.55143 0.0
C319 C 0.27993 0.26891 0.5159 0.0
C320 C 0.23989 0.27178 0.55689 0.0
C321 C 0.2677 0.23404 0.46883 0.0
C322 C 0.09763 1.04472 0.64835 0.0
C323 C 0.98487 0.99738 0.55769 0.0
C324 C 0.92697 1.00514 0.75288 0.0
C325 C 0.87593 0.96743 0.74456 0.0
C326 C 0.84055 0.97833 0.7056 0.0
C327 C 0.86259 0.91973 0.7749 0.0
C328 C 0.77615 0.89737 0.73397 0.0
C329 C 0.81316 0.88485 0.76951 0.0
C330 C 0.79084 0.94376 0.70076 0.0
C331 C 0.95798 0.13037 0.60636 0.0
O332 O 0.07498 0.17523 0.63908 0.0
O333 O 0.04185 0.1341 0.7265 0.0
O334 O 0.12364 0.11861 0.50684 0.0
O335 O 0.08546 0.1797 0.5262 0.0
O336 O 0.10681 1.04803 0.59222 0.0
O337 O 0.07462 1.07812 0.66511 0.0
O338 O 0.97704 0.99873 0.61527 0.0
O339 O 1.01122 1.03988 0.52835 0.0
O340 O 0.9287 1.0543 0.74665 0.0
O341 O 0.96711 0.99342 0.72741 0.0
O342 O 0.94975 0.12849 0.66266 0.0
O343 O 0.979 0.09542 0.59008 0.0
H344 H 0.20882 0.1757 0.42666 0.0
H345 H 0.15904 0.24168 0.58422 0.0
H346 H 0.248 0.29866 0.59313 0.0
H347 H 0.29722 0.23201 0.43533 0.0
H348 H 0.85064 1.01439 0.68042 0.0
H349 H 0.88975 0.91024 0.80426 0.0
H350 H 0.80264 0.84981 0.79649 0.0
H351 H 0.76299 0.95439 0.67333 0.0
Gd352 Gd 0.5762 0.1148 0.13968 0.0
Gd353 Gd 0.46215 0.08641 1.11374 0.0
C354 C 0.50367 0.18202 0.19722 0.0
C355 C 0.67612 0.15197 0.14782 0.0
C356 C 0.72114 0.19838 0.14868 0.0
C357 C 0.71949 0.24231 0.18165 0.0
C358 C 0.76892 0.19521 0.12262 0.0
C359 C 0.81473 0.27301 0.17378 0.0
C360 C 0.81546 0.23232 0.13498 0.0
C361 C 0.76609 0.2796 0.1939 0.0
C362 C 0.51813 1.02759 0.1987 0.0
C363 C 0.53407 1.01774 1.0582 0.0
C364 C 0.36238 1.0513 1.10242 0.0
C365 C 0.31927 1.00451 1.0952 0.0
C366 C 0.27166 1.01082 1.07755 0.0
C367 C 0.32567 0.95438 1.10107 0.0
C368 C 0.23974 0.91773 1.06117 0.0
C369 C 0.28582 0.91107 1.08464 0.0
C370 C 0.2322 0.96792 1.06067 0.0
C371 C 0.52118 0.17326 1.05481 0.0
O372 O 0.55154 0.18337 0.17761 0.0
O373 O 0.46355 0.14176 0.18727 0.0
O374 O 0.64307 0.14252 0.19348 0.0
O375 O 0.65386 0.13979 1.09784 0.0
O376 O 0.56672 1.0359 0.18159 0.0
O377 O 0.50364 1.06813 0.18897 0.0
O378 O 0.48609 1.0172 1.07654 0.0
O379 O 0.57435 1.05799 1.06762 0.0
O380 O 0.39609 1.06504 1.0578 0.0
O381 O 0.38408 1.05758 0.15325 0.0
O382 O 0.47322 0.1664 1.0736 0.0
O383 O 0.5347 0.13219 1.06414 0.0
H384 H 0.68286 0.24574 0.20163 0.0
H385 H 0.77078 0.16174 1.09654 0.0
H386 H 0.85233 0.22645 1.11878 0.0
H387 H 0.76425 0.31034 0.2243 0.0
H388 H 0.26615 1.04942 1.07334 0.0
H389 H 0.36221 0.949 1.11547 0.0
H390 H 0.29251 0.87286 1.08665 0.0
H391 H 0.19786 0.97507 1.04234 0.0
Gd392 Gd 0.51676 0.5455 0.57614 0.0
Gd393 Gd 0.51848 0.63319 0.65492 0.0
C394 C 0.56933 0.54874 0.70516 0.0
C395 C 0.54272 0.4743 0.51501 0.0
C396 C 0.58981 0.45576 0.51546 0.0
C397 C 0.58944 0.40697 0.49259 0.0
C398 C 0.63576 0.48727 0.53878 0.0
C399 C 0.6816 0.42244 0.51367 0.0
C400 C 0.6813 0.47083 0.53771 0.0
C401 C 0.63504 0.39033 0.49179 0.0
C402 C 0.4235 0.5368 0.63483 0.0
C403 C 0.47038 0.63281 0.524 0.0
C404 C 0.48614 0.69906 0.71806 0.0
C405 C 0.43574 0.71229 0.71776 0.0
C406 C 0.41858 0.73018 0.66633 0.0
C407 C 0.40144 0.70062 0.76741 0.0
C408 C 0.33306 0.72274 0.7137 0.0
C409 C 0.35064 0.70572 0.76543 0.0
C410 C 0.36776 0.73535 0.6643 0.0
C411 C 0.61205 0.64311 0.59667 0.0
O412 O 0.5663 0.5308 0.65078 0.0
O413 O 0.54957 0.58742 0.71999 0.0
O414 O 0.51201 0.46384 0.56231 0.0
O415 O 0.55061 0.52227 0.49638 0.0
O416 O 0.42815 0.52201 0.58112 0.0
O417 O 0.46828 0.55265 0.65562 0.0
O418 O 0.47193 0.64985 0.5787 0.0
O419 O 0.48939 0.59346 0.50964 0.0
O420 O 0.51833 0.71319 0.67216 0.0
O421 O 0.48233 0.65156 0.73575 0.0
O422 O 0.60683 0.65889 0.64995 0.0
O423 O 0.56744 0.62633 0.57542 0.0
H424 H 0.5542 0.38216 0.47466 0.0
H425 H 0.63665 0.52498 0.55707 0.0
H426 H 0.71639 0.49614 0.55535 0.0
H427 H 0.63431 0.35307 0.47241 0.0
H428 H 0.44401 0.73925 0.62727 0.0
H429 H 0.4136 0.68644 0.80746 0.0
H430 H 0.32536 0.69697 0.80475 0.0
H431 H 0.35546 0.74868 0.62386 0.0
Gd432 Gd 0.01977 0.54488 0.14801 0.0
Gd433 Gd 0.02325 0.64347 1.08716 0.0
C434 C 0.12193 0.64734 0.16152 0.0
C435 C 0.04691 0.46408 0.18287 0.0
C436 C 0.0972 0.45617 0.19956 0.0
C437 C 0.09786 0.4141 0.23586 0.0
C438 C 0.14491 0.49054 0.17934 0.0
C439 C 0.19358 0.44158 0.23291 0.0
C440 C 0.19256 0.48348 0.19603 0.0
C441 C 0.14554 0.4067 0.25218 0.0
C442 C 0.96672 0.60317 0.20933 0.0
C443 C 0.92056 0.54285 1.07521 0.0
C444 C 0.99543 0.72245 1.04882 0.0
C445 C 0.94294 0.73066 1.04153 0.0
C446 C 0.91302 0.70988 0.99336 0.0
C447 C 0.92107 0.75721 1.08458 0.0
C448 C 0.84009 0.7409 1.03222 0.0
C449 C 0.87026 0.76214 1.08009 0.0
C450 C 0.86231 0.71493 0.98878 0.0
C451 C 0.07489 0.58295 1.02691 0.0
O452 O 0.10067 0.59659 0.16849 0.0
O453 O 0.0981 0.67657 0.13295 0.0
O454 O 0.02622 0.49226 0.21837 0.0
O455 O 0.04435 0.4758 0.12765 0.0
O456 O 0.95202 0.55249 0.20715 0.0
O457 O 1.01014 0.62042 0.18085 0.0
O458 O 0.93952 0.59418 1.07476 0.0
O459 O 0.94722 0.51291 1.09764 0.0
O460 O 1.0091 0.68898 1.01393 0.0
O461 O 1.0084 0.7183 1.10293 0.0
O462 O 0.09158 0.63346 1.02926 0.0
O463 O 0.03109 0.56768 1.05454 0.0
H464 H 0.06149 0.38693 0.25154 0.0
H465 H 0.14545 0.52299 0.15067 0.0
H466 H 0.22854 0.51145 0.18083 0.0
H467 H 0.14468 0.37341 0.27971 0.0
H468 H 0.92854 0.6893 0.95923 0.0
H469 H 0.94302 0.77364 0.12231 0.0
H470 H 0.85442 0.78209 1.11457 0.0
H471 H 0.84081 0.69907 0.9506 0.0
loop_
_geom_bond_atom_site_label_1
_geom_bond_atom_site_label_2
_geom_bond_distance
_geom_bond_site_symmetry_2
_ccdc_geom_bond_type
C0 C1 1.386 . S
C0 C2 1.397 . S
C0 H24 0.931 . S
C1 C0 1.386 . S
C1 C5 1.397 . S
C2 C0 1.397 . S
C2 C3 1.384 . S
C2 H25 0.930 . S
C3 C2 1.384 . S
C3 C4 1.377 . S
C3 C6 1.481 . S
C4 C3 1.377 . S
C4 C5 1.389 . S
C4 H26 0.929 . S
C5 C1 1.397 . S
C5 C4 1.389 . S
C5 H27 0.931 . S
C6 C3 1.481 . S
C6 C7 1.387 . S
C6 C11 1.390 . S
C7 C6 1.387 . S
C7 C8 1.401 . S
C7 H28 0.930 . S
C8 C7 1.401 . S
C8 C9 1.376 . S
C8 C17 1.511 . S
C9 C8 1.376 . S
C9 C10 1.392 . S
C9 H30 0.931 . S
C10 C9 1.392 . S
C10 C11 1.361 . S
C10 C12 1.500 . S
C11 C6 1.390 . S
C11 C10 1.361 . S
C11 H29 0.931 . S
C12 C10 1.500 . S
C12 C13 1.371 . S
C12 C14 1.365 . S
C13 C12 1.371 . S
C13 C23 1.386 . S
C13 H31 0.931 . S
C14 C12 1.365 . S
C14 C15 1.409 . S
C14 H32 0.929 . S
C15 C14 1.409 . S
C15 C16 1.380 . S
C15 H33 0.930 . S
C16 C15 1.380 . S
C16 C23 1.357 . S
C17 C8 1.511 . S
C17 C18 1.341 . S
C17 C19 1.371 . S
C18 C17 1.341 . S
C18 C22 1.394 . S
C18 H34 0.930 . S
C19 C17 1.371 . S
C19 C20 1.392 . S
C19 H35 0.931 . S
C20 C19 1.392 . S
C20 C21 1.331 . S
C20 H38 0.932 . S
C21 C20 1.331 . S
C21 C22 1.336 . S
C22 C18 1.394 . S
C22 C21 1.336 . S
C22 H37 0.929 . S
C23 C13 1.386 . S
C23 C16 1.357 . S
C23 H36 0.928 . S
H24 C0 0.931 . S
H25 C2 0.930 . S
H26 C4 0.929 . S
H27 C5 0.931 . S
H28 C7 0.930 . S
H29 C11 0.931 . S
H30 C9 0.931 . S
H31 C13 0.931 . S
H32 C14 0.929 . S
H33 C15 0.930 . S
H34 C18 0.930 . S
H35 C19 0.931 . S
H36 C23 0.928 . S
H37 C22 0.929 . S
H38 C20 0.932 . S
C39 C40 1.386 . S
C39 C41 1.397 . S
C39 H63 0.931 . S
C40 C39 1.386 . S
C40 C44 1.397 . S
C41 C39 1.397 . S
C41 C42 1.384 . S
C41 H64 0.930 . S
C42 C41 1.384 . S
C42 C43 1.377 . S
C42 C45 1.481 . S
C43 C42 1.377 . S
C43 C44 1.389 . S
C43 H65 0.929 . S
C44 C40 1.397 . S
C44 C43 1.389 . S
C44 H66 0.931 . S
C45 C42 1.481 . S
C45 C46 1.387 . S
C45 C50 1.390 . S
C46 C45 1.387 . S
C46 C47 1.401 . S
C46 H67 0.930 . S
C47 C46 1.401 . S
C47 C48 1.376 . S
C47 C56 1.511 . S
C48 C47 1.376 . S
C48 C49 1.392 . S
C48 H69 0.931 . S
C49 C48 1.392 . S
C49 C50 1.361 . S
C49 C51 1.500 . S
C50 C45 1.390 . S
C50 C49 1.361 . S
C50 H68 0.931 . S
C51 C49 1.500 . S
C51 C52 1.371 . S
C51 C53 1.365 . S
C52 C51 1.371 . S
C52 C62 1.386 . S
C52 H70 0.931 . S
C53 C51 1.365 . S
C53 C54 1.409 . S
C53 H71 0.929 . S
C54 C53 1.409 . S
C54 C55 1.380 . S
C54 H72 0.930 . S
C55 C54 1.380 . S
C55 C62 1.357 . S
C56 C47 1.511 . S
C56 C57 1.341 . S
C56 C58 1.371 . S
C57 C56 1.341 . S
C57 C61 1.394 . S
C57 H73 0.930 . S
C58 C56 1.371 . S
C58 C59 1.392 . S
C58 H74 0.931 . S
C59 C58 1.392 . S
C59 C60 1.331 . S
C59 H77 0.932 . S
C60 C59 1.331 . S
C60 C61 1.336 . S
C61 C57 1.394 . S
C61 C60 1.336 . S
C61 H76 0.929 . S
C62 C52 1.386 . S
C62 C55 1.357 . S
C62 H75 0.928 . S
H63 C39 0.931 . S
H64 C41 0.930 . S
H65 C43 0.929 . S
H66 C44 0.931 . S
H67 C46 0.930 . S
H68 C50 0.931 . S
H69 C48 0.931 . S
H70 C52 0.931 . S
H71 C53 0.929 . S
H72 C54 0.930 . S
H73 C57 0.930 . S
H74 C58 0.931 . S
H75 C62 0.928 . S
H76 C61 0.929 . S
H77 C59 0.932 . S
C78 C79 1.386 . S
C78 C80 1.397 . S
C78 H102 0.931 . S
C79 C78 1.386 . S
C79 C83 1.397 . S
C80 C78 1.397 . S
C80 C81 1.384 . S
C80 H103 0.930 . S
C81 C80 1.384 . S
C81 C82 1.377 . S
C81 C84 1.481 . S
C82 C81 1.377 . S
C82 C83 1.389 . S
C82 H104 0.929 . S
C83 C79 1.397 . S
C83 C82 1.389 . S
C83 H105 0.931 . S
C84 C81 1.481 . S
C84 C85 1.387 . S
C84 C89 1.390 . S
C85 C84 1.387 . S
C85 C86 1.401 . S
C85 H106 0.930 . S
C86 C85 1.401 . S
C86 C87 1.376 . S
C86 C95 1.511 . S
C87 C86 1.376 . S
C87 C88 1.392 . S
C87 H108 0.931 . S
C88 C87 1.392 . S
C88 C89 1.361 . S
C88 C90 1.500 . S
C89 C84 1.390 . S
C89 C88 1.361 . S
C89 H107 0.931 . S
C90 C88 1.500 . S
C90 C91 1.371 . S
C90 C92 1.365 . S
C91 C90 1.371 . S
C91 C101 1.386 . S
C91 H109 0.931 . S
C92 C90 1.365 . S
C92 C93 1.409 . S
C92 H110 0.929 . S
C93 C92 1.409 . S
C93 C94 1.380 . S
C93 H111 0.930 . S
C94 C93 1.380 . S
C94 C101 1.357 . S
C95 C86 1.511 . S
C95 C96 1.341 . S
C95 C97 1.371 . S
C96 C95 1.341 . S
C96 C100 1.394 . S
C96 H112 0.930 . S
C97 C95 1.371 . S
C97 C98 1.392 . S
C97 H113 0.931 . S
C98 C97 1.392 . S
C98 C99 1.331 . S
C98 H116 0.932 . S
C99 C98 1.331 . S
C99 C100 1.336 . S
C100 C96 1.394 . S
C100 C99 1.336 . S
C100 H115 0.929 . S
C101 C91 1.386 . S
C101 C94 1.357 . S
C101 H114 0.928 . S
H102 C78 0.931 . S
H103 C80 0.930 . S
H104 C82 0.929 . S
H105 C83 0.931 . S
H106 C85 0.930 . S
H107 C89 0.931 . S
H108 C87 0.931 . S
H109 C91 0.931 . S
H110 C92 0.929 . S
H111 C93 0.930 . S
H112 C96 0.930 . S
H113 C97 0.931 . S
H114 C101 0.928 . S
H115 C100 0.929 . S
H116 C98 0.932 . S
C117 C118 1.386 . S
C117 C119 1.397 . S
C117 H141 0.931 . S
C118 C117 1.386 . S
C118 C122 1.397 . S
C119 C117 1.397 . S
C119 C120 1.384 . S
C119 H142 0.930 . S
C120 C119 1.384 . S
C120 C121 1.377 . S
C120 C123 1.481 . S
C121 C120 1.377 . S
C121 C122 1.389 . S
C121 H143 0.929 . S
C122 C118 1.397 . S
C122 C121 1.389 . S
C122 H144 0.931 . S
C123 C120 1.481 . S
C123 C124 1.387 . S
C123 C128 1.390 . S
C124 C123 1.387 . S
C124 C125 1.401 . S
C124 H145 0.930 . S
C125 C124 1.401 . S
C125 C126 1.376 . S
C125 C134 1.511 . S
C126 C125 1.376 . S
C126 C127 1.392 . S
C126 H147 0.931 . S
C127 C126 1.392 . S
C127 C128 1.361 . S
C127 C129 1.500 . S
C128 C123 1.390 . S
C128 C127 1.361 . S
C128 H146 0.931 . S
C129 C127 1.500 . S
C129 C130 1.371 . S
C129 C131 1.365 . S
C130 C129 1.371 . S
C130 C140 1.386 . S
C130 H148 0.931 . S
C131 C129 1.365 . S
C131 C132 1.409 . S
C131 H149 0.929 . S
C132 C131 1.409 . S
C132 C133 1.380 . S
C132 H150 0.930 . S
C133 C132 1.380 . S
C133 C140 1.357 . S
C134 C125 1.511 . S
C134 C135 1.341 . S
C134 C136 1.371 . S
C135 C134 1.341 . S
C135 C139 1.394 . S
C135 H151 0.930 . S
C136 C134 1.371 . S
C136 C137 1.392 . S
C136 H152 0.931 . S
C137 C136 1.392 . S
C137 C138 1.331 . S
C137 H155 0.932 . S
C138 C137 1.331 . S
C138 C139 1.336 . S
C139 C135 1.394 . S
C139 C138 1.336 . S
C139 H154 0.929 . S
C140 C130 1.386 . S
C140 C133 1.357 . S
C140 H153 0.928 . S
H141 C117 0.931 . S
H142 C119 0.930 . S
H143 C121 0.929 . S
H144 C122 0.931 . S
H145 C124 0.930 . S
H146 C128 0.931 . S
H147 C126 0.931 . S
H148 C130 0.931 . S
H149 C131 0.929 . S
H150 C132 0.930 . S
H151 C135 0.930 . S
H152 C136 0.931 . S
H153 C140 0.928 . S
H154 C139 0.929 . S
H155 C137 0.932 . S
C156 C157 1.386 . S
C156 C158 1.397 . S
C156 H180 0.931 . S
C157 C156 1.386 . S
C157 C161 1.397 . S
C158 C156 1.397 . S
C158 C159 1.384 . S
C158 H181 0.930 . S
C159 C158 1.384 . S
C159 C160 1.377 . S
C159 C162 1.481 . S
C160 C159 1.377 . S
C160 C161 1.389 . S
C160 H182 0.929 . S
C161 C157 1.397 . S
C161 C160 1.389 . S
C161 H183 0.931 . S
C162 C159 1.481 . S
C162 C163 1.387 . S
C162 C167 1.390 . S
C163 C162 1.387 . S
C163 C164 1.401 . S
C163 H184 0.930 . S
C164 C163 1.401 . S
C164 C165 1.376 . S
C164 C173 1.511 . S
C165 C164 1.376 . S
C165 C166 1.392 . S
C165 H186 0.931 . S
C166 C165 1.392 . S
C166 C167 1.361 . S
C166 C168 1.500 . S
C167 C162 1.390 . S
C167 C166 1.361 . S
C167 H185 0.931 . S
C168 C166 1.500 . S
C168 C169 1.371 . S
C168 C170 1.365 . S
C169 C168 1.371 . S
C169 C179 1.386 . S
C169 H187 0.931 . S
C170 C168 1.365 . S
C170 C171 1.409 . S
C170 H188 0.929 . S
C171 C170 1.409 . S
C171 C172 1.380 . S
C171 H189 0.930 . S
C172 C171 1.380 . S
C172 C179 1.357 . S
C173 C164 1.511 . S
C173 C174 1.341 . S
C173 C175 1.371 . S
C174 C173 1.341 . S
C174 C178 1.394 . S
C174 H190 0.930 . S
C175 C173 1.371 . S
C175 C176 1.392 . S
C175 H191 0.931 . S
C176 C175 1.392 . S
C176 C177 1.331 . S
C176 H194 0.932 . S
C177 C176 1.331 . S
C177 C178 1.336 . S
C178 C174 1.394 . S
C178 C177 1.336 . S
C178 H193 0.929 . S
C179 C169 1.386 . S
C179 C172 1.357 . S
C179 H192 0.928 . S
H180 C156 0.931 . S
H181 C158 0.930 . S
H182 C160 0.929 . S
H183 C161 0.931 . S
H184 C163 0.930 . S
H185 C167 0.931 . S
H186 C165 0.931 . S
H187 C169 0.931 . S
H188 C170 0.929 . S
H189 C171 0.930 . S
H190 C174 0.930 . S
H191 C175 0.931 . S
H192 C179 0.928 . S
H193 C178 0.929 . S
H194 C176 0.932 . S
C195 C196 1.386 . S
C195 C197 1.397 . S
C195 H219 0.931 . S
C196 C195 1.386 . S
C196 C200 1.397 . S
C197 C195 1.397 . S
C197 C198 1.384 . S
C197 H220 0.930 . S
C198 C197 1.384 . S
C198 C199 1.377 . S
C198 C201 1.481 . S
C199 C198 1.377 . S
C199 C200 1.389 . S
C199 H221 0.929 . S
C200 C196 1.397 . S
C200 C199 1.389 . S
C200 H222 0.931 . S
C201 C198 1.481 . S
C201 C202 1.387 . S
C201 C206 1.390 . S
C202 C201 1.387 . S
C202 C203 1.401 . S
C202 H223 0.930 . S
C203 C202 1.401 . S
C203 C204 1.376 . S
C203 C212 1.511 . S
C204 C203 1.376 . S
C204 C205 1.392 . S
C204 H225 0.931 . S
C205 C204 1.392 . S
C205 C206 1.361 . S
C205 C207 1.500 . S
C206 C201 1.390 . S
C206 C205 1.361 . S
C206 H224 0.931 . S
C207 C205 1.500 . S
C207 C208 1.371 . S
C207 C209 1.365 . S
C208 C207 1.371 . S
C208 C218 1.386 . S
C208 H226 0.931 . S
C209 C207 1.365 . S
C209 C210 1.409 . S
C209 H227 0.929 . S
C210 C209 1.409 . S
C210 C211 1.380 . S
C210 H228 0.930 . S
C211 C210 1.380 . S
C211 C218 1.357 . S
C212 C203 1.511 . S
C212 C213 1.341 . S
C212 C214 1.371 . S
C213 C212 1.341 . S
C213 C217 1.394 . S
C213 H229 0.930 . S
C214 C212 1.371 . S
C214 C215 1.392 . S
C214 H230 0.931 . S
C215 C214 1.392 . S
C215 C216 1.331 . S
C215 H233 0.932 1_655 S
C216 C215 1.331 . S
C216 C217 1.336 . S
C217 C213 1.394 . S
C217 C216 1.336 . S
C217 H232 0.929 . S
C218 C208 1.386 . S
C218 C211 1.357 . S
C218 H231 0.928 . S
H219 C195 0.931 . S
H220 C197 0.930 . S
H221 C199 0.929 . S
H222 C200 0.931 . S
H223 C202 0.930 . S
H224 C206 0.931 . S
H225 C204 0.931 . S
H226 C208 0.931 . S
H227 C209 0.929 . S
H228 C210 0.930 . S
H229 C213 0.930 . S
H230 C214 0.931 . S
H231 C218 0.928 . S
H232 C217 0.929 . S
H233 C215 0.932 1_455 S
C234 C235 1.386 . S
C234 C236 1.397 . S
C234 H258 0.931 . S
C235 C234 1.386 . S
C235 C239 1.397 . S
C236 C234 1.397 . S
C236 C237 1.384 . S
C236 H259 0.930 . S
C237 C236 1.384 . S
C237 C238 1.377 . S
C237 C240 1.481 . S
C238 C237 1.377 . S
C238 C239 1.389 . S
C238 H260 0.929 . S
C239 C235 1.397 . S
C239 C238 1.389 . S
C239 H261 0.931 . S
C240 C237 1.481 . S
C240 C241 1.387 . S
C240 C245 1.390 . S
C241 C240 1.387 . S
C241 C242 1.401 . S
C241 H262 0.930 . S
C242 C241 1.401 . S
C242 C243 1.376 . S
C242 C251 1.511 . S
C243 C242 1.376 . S
C243 C244 1.392 . S
C243 H264 0.931 . S
C244 C243 1.392 . S
C244 C245 1.361 . S
C244 C246 1.500 . S
C245 C240 1.390 . S
C245 C244 1.361 . S
C245 H263 0.931 . S
C246 C244 1.500 . S
C246 C247 1.371 . S
C246 C248 1.365 . S
C247 C246 1.371 . S
C247 C257 1.386 . S
C247 H265 0.931 . S
C248 C246 1.365 . S
C248 C249 1.409 . S
C248 H266 0.929 . S
C249 C248 1.409 . S
C249 C250 1.380 . S
C249 H267 0.930 . S
C250 C249 1.380 . S
C250 C257 1.357 . S
C251 C242 1.511 . S
C251 C252 1.341 . S
C251 C253 1.371 . S
C252 C251 1.341 . S
C252 C256 1.394 . S
C252 H268 0.930 . S
C253 C251 1.371 . S
C253 C254 1.392 . S
C253 H269 0.931 . S
C254 C253 1.392 . S
C254 C255 1.331 . S
C254 H272 0.932 . S
C255 C254 1.331 . S
C255 C256 1.336 . S
C256 C252 1.394 . S
C256 C255 1.336 . S
C256 H271 0.929 . S
C257 C247 1.386 . S
C257 C250 1.357 . S
C257 H270 0.928 . S
H258 C234 0.931 . S
H259 C236 0.930 . S
H260 C238 0.929 . S
H261 C239 0.931 . S
H262 C241 0.930 . S
H263 C245 0.931 . S
H264 C243 0.931 . S
H265 C247 0.931 . S
H266 C248 0.929 . S
H267 C249 0.930 . S
H268 C252 0.930 . S
H269 C253 0.931 . S
H270 C257 0.928 . S
H271 C256 0.929 . S
H272 C254 0.932 . S
C273 C274 1.386 . S
C273 C275 1.397 . S
C273 H297 0.931 . S
C274 C273 1.386 . S
C274 C278 1.397 . S
C275 C273 1.397 . S
C275 C276 1.384 . S
C275 H298 0.930 . S
C276 C275 1.384 . S
C276 C277 1.377 . S
C276 C279 1.481 . S
C277 C276 1.377 . S
C277 C278 1.389 . S
C277 H299 0.929 . S
C278 C274 1.397 . S
C278 C277 1.389 . S
C278 H300 0.931 . S
C279 C276 1.481 . S
C279 C280 1.387 . S
C279 C284 1.390 . S
C280 C279 1.387 . S
C280 C281 1.401 . S
C280 H301 0.930 . S
C281 C280 1.401 . S
C281 C282 1.376 . S
C281 C290 1.511 . S
C282 C281 1.376 . S
C282 C283 1.392 . S
C282 H303 0.931 . S
C283 C282 1.392 . S
C283 C284 1.361 . S
C283 C285 1.500 . S
C284 C279 1.390 . S
C284 C283 1.361 . S
C284 H302 0.931 . S
C285 C283 1.500 . S
C285 C286 1.371 . S
C285 C287 1.365 . S
C286 C285 1.371 . S
C286 C296 1.386 . S
C286 H304 0.931 . S
C287 C285 1.365 . S
C287 C288 1.409 . S
C287 H305 0.929 . S
C288 C287 1.409 . S
C288 C289 1.380 . S
C288 H306 0.930 . S
C289 C288 1.380 . S
C289 C296 1.357 . S
C290 C281 1.511 . S
C290 C291 1.341 . S
C290 C292 1.371 . S
C291 C290 1.341 . S
C291 C295 1.394 . S
C291 H307 0.930 . S
C292 C290 1.371 . S
C292 C293 1.392 . S
C292 H308 0.931 . S
C293 C292 1.392 . S
C293 C294 1.331 . S
C293 H311 0.932 . S
C294 C293 1.331 . S
C294 C295 1.336 . S
C295 C291 1.394 . S
C295 C294 1.336 . S
C295 H310 0.929 . S
C296 C286 1.386 . S
C296 C289 1.357 . S
C296 H309 0.928 . S
H297 C273 0.931 . S
H298 C275 0.930 . S
H299 C277 0.929 . S
H300 C278 0.931 . S
H301 C280 0.930 . S
H302 C284 0.931 . S
H303 C282 0.931 . S
H304 C286 0.931 . S
H305 C287 0.929 . S
H306 C288 0.930 . S
H307 C291 0.930 . S
H308 C292 0.931 . S
H309 C296 0.928 . S
H310 C295 0.929 . S
H311 C293 0.932 . S
Gd312 C315 2.818 . S
Gd312 O332 2.377 . S
Gd312 O334 2.448 . S
Gd312 O335 2.506 . S
Gd312 O336 2.435 1_545 S
Gd312 O337 2.717 1_545 S
Gd312 O339 2.395 1_445 S
Gd312 O343 2.327 1_455 S
Gd313 C324 2.818 1_545 S
Gd313 O333 2.395 1_655 S
Gd313 O337 2.327 1_645 S
Gd313 O338 2.377 1_545 S
Gd313 O340 2.448 1_545 S
Gd313 O341 2.506 1_545 S
Gd313 O342 2.435 . S
Gd313 O343 2.717 . S
C314 O332 1.240 . S
C314 O333 1.240 . S
C315 Gd312 2.818 . S
C315 C316 1.510 . S
C315 O334 1.249 . S
C315 O335 1.252 . S
C316 C315 1.510 . S
C316 C317 1.404 . S
C316 C318 1.352 . S
C317 C316 1.404 . S
C317 C321 1.389 . S
C317 H344 0.930 . S
C318 C316 1.352 . S
C318 C320 1.374 . S
C318 H345 0.931 . S
C319 C320 1.359 . S
C319 C321 1.364 . S
C320 C318 1.374 . S
C320 C319 1.359 . S
C320 H346 0.931 . S
C321 C317 1.389 . S
C321 C319 1.364 . S
C321 H347 0.931 . S
C322 O336 1.256 . S
C322 O337 1.257 . S
C323 O338 1.240 . S
C323 O339 1.240 . S
C324 Gd313 2.818 1_565 S
C324 C325 1.510 . S
C324 O340 1.249 . S
C324 O341 1.252 . S
C325 C324 1.510 . S
C325 C326 1.404 . S
C325 C327 1.352 . S
C326 C325 1.404 . S
C326 C330 1.389 . S
C326 H348 0.930 . S
C327 C325 1.352 . S
C327 C329 1.374 . S
C327 H349 0.931 . S
C328 C329 1.359 . S
C328 C330 1.364 . S
C329 C327 1.374 . S
C329 C328 1.359 . S
C329 H350 0.931 . S
C330 C326 1.389 . S
C330 C328 1.364 . S
C330 H351 0.931 . S
C331 O342 1.256 . S
C331 O343 1.257 . S
O332 Gd312 2.377 . S
O332 C314 1.240 . S
O333 Gd313 2.395 1_455 S
O333 C314 1.240 . S
O334 Gd312 2.448 . S
O334 C315 1.249 . S
O335 Gd312 2.506 . S
O335 C315 1.252 . S
O336 Gd312 2.435 1_565 S
O336 C322 1.256 . S
O337 Gd312 2.717 1_565 S
O337 Gd313 2.327 1_465 S
O337 C322 1.257 . S
O338 Gd313 2.377 1_565 S
O338 C323 1.240 . S
O339 Gd312 2.395 1_665 S
O339 C323 1.240 . S
O340 Gd313 2.448 1_565 S
O340 C324 1.249 . S
O341 Gd313 2.506 1_565 S
O341 C324 1.252 . S
O342 Gd313 2.435 . S
O342 C331 1.256 . S
O343 Gd312 2.327 1_655 S
O343 Gd313 2.717 . S
O343 C331 1.257 . S
H344 C317 0.930 . S
H345 C318 0.931 . S
H346 C320 0.931 . S
H347 C321 0.931 . S
H348 C326 0.930 . S
H349 C327 0.931 . S
H350 C329 0.931 . S
H351 C330 0.931 . S
Gd352 C355 2.818 . S
Gd352 O372 2.377 . S
Gd352 O374 2.448 . S
Gd352 O375 2.506 . S
Gd352 O376 2.435 1_545 S
Gd352 O377 2.717 1_545 S
Gd352 O379 2.395 1_544 S
Gd352 O383 2.327 1_554 S
Gd353 C364 2.818 1_545 S
Gd353 O373 2.395 1_556 S
Gd353 O377 2.327 1_546 S
Gd353 O378 2.377 1_545 S
Gd353 O380 2.448 1_545 S
Gd353 O381 2.506 1_545 S
Gd353 O382 2.435 . S
Gd353 O383 2.717 . S
C354 O372 1.240 . S
C354 O373 1.240 . S
C355 Gd352 2.818 . S
C355 C356 1.510 . S
C355 O374 1.249 . S
C355 O375 1.252 . S
C356 C355 1.510 . S
C356 C357 1.404 . S
C356 C358 1.352 . S
C357 C356 1.404 . S
C357 C361 1.389 . S
C357 H384 0.930 . S
C358 C356 1.352 . S
C358 C360 1.374 . S
C358 H385 0.931 . S
C359 C360 1.359 . S
C359 C361 1.364 . S
C360 C358 1.374 . S
C360 C359 1.359 . S
C360 H386 0.931 . S
C361 C357 1.389 . S
C361 C359 1.364 . S
C361 H387 0.931 . S
C362 O376 1.256 . S
C362 O377 1.257 . S
C363 O378 1.240 . S
C363 O379 1.240 . S
C364 Gd353 2.818 1_565 S
C364 C365 1.510 . S
C364 O380 1.249 . S
C364 O381 1.252 . S
C365 C364 1.510 . S
C365 C366 1.404 . S
C365 C367 1.352 . S
C366 C365 1.404 . S
C366 C370 1.389 . S
C366 H388 0.930 . S
C367 C365 1.352 . S
C367 C369 1.374 . S
C367 H389 0.931 . S
C368 C369 1.359 . S
C368 C370 1.364 . S
C369 C367 1.374 . S
C369 C368 1.359 . S
C369 H390 0.931 . S
C370 C366 1.389 . S
C370 C368 1.364 . S
C370 H391 0.931 . S
C371 O382 1.256 . S
C371 O383 1.257 . S
O372 Gd352 2.377 . S
O372 C354 1.240 . S
O373 Gd353 2.395 1_554 S
O373 C354 1.240 . S
O374 Gd352 2.448 . S
O374 C355 1.249 . S
O375 Gd352 2.506 . S
O375 C355 1.252 . S
O376 Gd352 2.435 1_565 S
O376 C362 1.256 . S
O377 Gd352 2.717 1_565 S
O377 Gd353 2.327 1_564 S
O377 C362 1.257 . S
O378 Gd353 2.377 1_565 S
O378 C363 1.240 . S
O379 Gd352 2.395 1_566 S
O379 C363 1.240 . S
O380 Gd353 2.448 1_565 S
O380 C364 1.249 . S
O381 Gd353 2.506 1_565 S
O381 C364 1.252 . S
O382 Gd353 2.435 . S
O382 C371 1.256 . S
O383 Gd352 2.327 1_556 S
O383 Gd353 2.717 . S
O383 C371 1.257 . S
H384 C357 0.930 . S
H385 C358 0.931 . S
H386 C360 0.931 . S
H387 C361 0.931 . S
H388 C366 0.930 . S
H389 C367 0.931 . S
H390 C369 0.931 . S
H391 C370 0.931 . S
Gd392 C395 2.818 . S
Gd392 O412 2.377 . S
Gd392 O414 2.448 . S
Gd392 O415 2.506 . S
Gd392 O416 2.435 . S
Gd392 O417 2.717 . S
Gd392 O419 2.395 . S
Gd392 O423 2.327 . S
Gd393 C404 2.818 . S
Gd393 O413 2.395 . S
Gd393 O417 2.327 . S
Gd393 O418 2.377 . S
Gd393 O420 2.448 . S
Gd393 O421 2.506 . S
Gd393 O422 2.435 . S
Gd393 O423 2.717 . S
C394 O412 1.240 . S
C394 O413 1.240 . S
C395 Gd392 2.818 . S
C395 C396 1.510 . S
C395 O414 1.249 . S
C395 O415 1.252 . S
C396 C395 1.510 . S
C396 C397 1.404 . S
C396 C398 1.352 . S
C397 C396 1.404 . S
C397 C401 1.389 . S
C397 H424 0.930 . S
C398 C396 1.352 . S
C398 C400 1.374 . S
C398 H425 0.931 . S
C399 C400 1.359 . S
C399 C401 1.364 . S
C400 C398 1.374 . S
C400 C399 1.359 . S
C400 H426 0.931 . S
C401 C397 1.389 . S
C401 C399 1.364 . S
C401 H427 0.931 . S
C402 O416 1.256 . S
C402 O417 1.257 . S
C403 O418 1.240 . S
C403 O419 1.240 . S
C404 Gd393 2.818 . S
C404 C405 1.510 . S
C404 O420 1.249 . S
C404 O421 1.252 . S
C405 C404 1.510 . S
C405 C406 1.404 . S
C405 C407 1.352 . S
C406 C405 1.404 . S
C406 C410 1.389 . S
C406 H428 0.930 . S
C407 C405 1.352 . S
C407 C409 1.374 . S
C407 H429 0.931 . S
C408 C409 1.359 . S
C408 C410 1.364 . S
C409 C407 1.374 . S
C409 C408 1.359 . S
C409 H430 0.931 . S
C410 C406 1.389 . S
C410 C408 1.364 . S
C410 H431 0.931 . S
C411 O422 1.256 . S
C411 O423 1.257 . S
O412 Gd392 2.377 . S
O412 C394 1.240 . S
O413 Gd393 2.395 . S
O413 C394 1.240 . S
O414 Gd392 2.448 . S
O414 C395 1.249 . S
O415 Gd392 2.506 . S
O415 C395 1.252 . S
O416 Gd392 2.435 . S
O416 C402 1.256 . S
O417 Gd392 2.717 . S
O417 Gd393 2.327 . S
O417 C402 1.257 . S
O418 Gd393 2.377 . S
O418 C403 1.240 . S
O419 Gd392 2.395 . S
O419 C403 1.240 . S
O420 Gd393 2.448 . S
O420 C404 1.249 . S
O421 Gd393 2.506 . S
O421 C404 1.252 . S
O422 Gd393 2.435 . S
O422 C411 1.256 . S
O423 Gd392 2.327 . S
O423 Gd393 2.717 . S
O423 C411 1.257 . S
H424 C397 0.930 . S
H425 C398 0.931 . S
H426 C400 0.931 . S
H427 C401 0.931 . S
H428 C406 0.930 . S
H429 C407 0.931 . S
H430 C409 0.931 . S
H431 C410 0.931 . S
Gd432 C435 2.818 . S
Gd432 O452 2.377 . S
Gd432 O454 2.448 . S
Gd432 O455 2.506 . S
Gd432 O456 2.435 1_455 S
Gd432 O457 2.717 1_455 S
Gd432 O459 2.395 1_454 S
Gd432 O463 2.327 1_554 S
Gd433 C444 2.836 . S
Gd433 O453 2.377 1_656 S
Gd433 O457 2.332 1_556 S
Gd433 O458 2.389 . S
Gd433 O460 2.460 . S
Gd433 O461 2.526 . S
Gd433 O462 2.425 1_655 S
Gd433 O463 2.706 1_655 S
C434 O452 1.240 . S
C434 O453 1.240 . S
C435 Gd432 2.818 . S
C435 C436 1.510 . S
C435 O454 1.249 . S
C435 O455 1.252 . S
C436 C435 1.510 . S
C436 C437 1.404 . S
C436 C438 1.352 . S
C437 C436 1.404 . S
C437 C441 1.389 . S
C437 H464 0.930 . S
C438 C436 1.352 . S
C438 C440 1.374 . S
C438 H465 0.931 . S
C439 C440 1.359 . S
C439 C441 1.364 . S
C440 C438 1.374 . S
C440 C439 1.359 . S
C440 H466 0.931 . S
C441 C437 1.389 . S
C441 C439 1.364 . S
C441 H467 0.931 . S
C442 O456 1.256 . S
C442 O457 1.257 . S
C443 O458 1.240 . S
C443 O459 1.240 . S
C444 Gd433 2.836 . S
C444 C445 1.510 . S
C444 O460 1.249 . S
C444 O461 1.252 . S
C445 C444 1.510 . S
C445 C446 1.404 . S
C445 C447 1.352 . S
C446 C445 1.404 . S
C446 C450 1.389 . S
C446 H468 0.930 . S
C447 C445 1.352 . S
C447 C449 1.374 . S
C447 H469 0.931 . S
C448 C449 1.359 . S
C448 C450 1.364 . S
C449 C447 1.374 . S
C449 C448 1.359 . S
C449 H470 0.931 . S
C450 C446 1.389 . S
C450 C448 1.364 . S
C450 H471 0.931 . S
C451 O462 1.256 . S
C451 O463 1.257 . S
O452 Gd432 2.377 . S
O452 C434 1.240 . S
O453 Gd433 2.377 1_454 S
O453 C434 1.240 . S
O454 Gd432 2.448 . S
O454 C435 1.249 . S
O455 Gd432 2.506 . S
O455 C435 1.252 . S
O456 Gd432 2.435 1_655 S
O456 C442 1.256 . S
O457 Gd432 2.717 1_655 S
O457 Gd433 2.332 1_554 S
O457 C442 1.257 . S
O458 Gd433 2.389 . S
O458 C443 1.240 . S
O459 Gd432 2.395 1_656 S
O459 C443 1.240 . S
O460 Gd433 2.460 . S
O460 C444 1.249 . S
O461 Gd433 2.526 . S
O461 C444 1.252 . S
O462 Gd433 2.425 1_455 S
O462 C451 1.256 . S
O463 Gd432 2.327 1_556 S
O463 Gd433 2.706 1_455 S
O463 C451 1.257 . S
H464 C437 0.930 . S
H465 C438 0.931 . S
H466 C440 0.931 . S
H467 C441 0.931 . S
H468 C446 0.930 . S
H469 C447 0.931 . S
H470 C449 0.931 . S
H471 C450 0.931 . S
C1 C319 2.127 . S
C40 C368 1.900 . S
C394 C99 3.616 . S
C118 C442 3.512 . S
C354 C16 4.480 . S
C322 C60 1.898 . S
C443 C79 2.533 . S
C411 C138 2.174 . S
C21 C439 3.000 . S
C371 C94 3.329 . S
C133 C323 3.261 . S
C55 C408 2.660 . S
C328 C157 2.156 . S
C196 C359 1.903 . S
C255 C403 3.614 . S
C289 C451 3.505 . S
C172 C363 4.459 . S
C331 C216 1.851 . S
C434 C235 2.539 . S
C402 C294 2.184 . S
C177 C448 3.032 . S
C362 C250 3.331 . S
C314 C274 3.262 . S
C211 C399 2.680 . S
