# Generated by pormake.
# Topology pyr, (3,6)-cn, num edge types: 1
# Building blocks:
#     Node 0, Type 0, BuildingBlock: KAKCAD_clean_linker_0, # of connection points: 3
#     Node 1, Type 0, BuildingBlock: KAKCAD_clean_linker_0, # of connection points: 3
#     Node 2, Type 0, BuildingBlock: KAKCAD_clean_linker_0, # of connection points: 3
#     Node 3, Type 0, BuildingBlock: KAKCAD_clean_linker_0, # of connection points: 3
#     Node 4, Type 0, BuildingBlock: KAKCAD_clean_linker_0, # of connection points: 3
#     Node 5, Type 0, BuildingBlock: KAKCAD_clean_linker_0, # of connection points: 3
#     Node 6, Type 0, BuildingBlock: KAKCAD_clean_linker_0, # of connection points: 3
#     Node 7, Type 0, BuildingBlock: KAKCAD_clean_linker_0, # of connection points: 3
#     Node 8, Type 1, BuildingBlock: BETGAK_clean_sbu_0, # of connection points: 6
#     Node 9, Type 1, BuildingBlock: BETGAK_clean_sbu_0, # of connection points: 6
#     Node 10, Type 1, BuildingBlock: BETGAK_clean_sbu_0, # of connection points: 6
#     Node 11, Type 1, BuildingBlock: BETGAK_clean_sbu_0, # of connection points: 6
#     Edge 12, Type (0, 1), BuildingBlock: CIFDUS_clean_linker_0, # of connection points: 2
#     Edge 13, Type (0, 1), BuildingBlock: CIFDUS_clean_linker_0, # of connection points: 2
#     Edge 14, Type (0, 1), BuildingBlock: CIFDUS_clean_linker_0, # of connection points: 2
#     Edge 15, Type (0, 1), BuildingBlock: CIFDUS_clean_linker_0, # of connection points: 2
#     Edge 16, Type (0, 1), BuildingBlock: CIFDUS_clean_linker_0, # of connection points: 2
#     Edge 17, Type (0, 1), BuildingBlock: CIFDUS_clean_linker_0, # of connection points: 2
#     Edge 18, Type (0, 1), BuildingBlock: CIFDUS_clean_linker_0, # of connection points: 2
#     Edge 19, Type (0, 1), BuildingBlock: CIFDUS_clean_linker_0, # of connection points: 2
#     Edge 20, Type (0, 1), BuildingBlock: CIFDUS_clean_linker_0, # of connection points: 2
#     Edge 21, Type (0, 1), BuildingBlock: CIFDUS_clean_linker_0, # of connection points: 2
#     Edge 22, Type (0, 1), BuildingBlock: CIFDUS_clean_linker_0, # of connection points: 2
#     Edge 23, Type (0, 1), BuildingBlock: CIFDUS_clean_linker_0, # of connection points: 2
#     Edge 24, Type (0, 1), BuildingBlock: CIFDUS_clean_linker_0, # of connection points: 2
#     Edge 25, Type (0, 1), BuildingBlock: CIFDUS_clean_linker_0, # of connection points: 2
#     Edge 26, Type (0, 1), BuildingBlock: CIFDUS_clean_linker_0, # of connection points: 2
#     Edge 27, Type (0, 1), BuildingBlock: CIFDUS_clean_linker_0, # of connection points: 2
#     Edge 28, Type (0, 1), BuildingBlock: CIFDUS_clean_linker_0, # of connection points: 2
#     Edge 29, Type (0, 1), BuildingBlock: CIFDUS_clean_linker_0, # of connection points: 2
#     Edge 30, Type (0, 1), BuildingBlock: CIFDUS_clean_linker_0, # of connection points: 2
#     Edge 31, Type (0, 1), BuildingBlock: CIFDUS_clean_linker_0, # of connection points: 2
#     Edge 32, Type (0, 1), BuildingBlock: CIFDUS_clean_linker_0, # of connection points: 2
#     Edge 33, Type (0, 1), BuildingBlock: CIFDUS_clean_linker_0, # of connection points: 2
#     Edge 34, Type (0, 1), BuildingBlock: CIFDUS_clean_linker_0, # of connection points: 2
#     Edge 35, Type (0, 1), BuildingBlock: CIFDUS_clean_linker_0, # of connection points: 2
# Relax obj value: 0.109
# Max RMSD: 0.123
# Mean RMSD: 0.059
data_MOF--net-pyr--node1-BETGAK_clean_sbu_0--node2-KAKCAD_clean_linker_0--edge1-CIFDUS_clean_linker_0
_symmetry_space_group_name_H-M    P1
_symmetry_Int_Tables_number       1
_symmetry_cell_setting            triclinic
loop_
_symmetry_equiv_pos_as_xyz
'x, y, z'
_cell_length_a     42.650825
_cell_length_b     43.791147
_cell_length_c     39.191292
_cell_angle_alpha  90.861521
_cell_angle_beta   88.262836
_cell_angle_gamma 100.4832
loop_
_atom_site_label
_atom_site_type_symbol
_atom_site_fract_x
_atom_site_fract_y
_atom_site_fract_z
_atom_type_partial_charge
C0 C 0.22768 0.26813 0.32072 0.0
C1 C 0.23686 0.25359 0.34955 0.0
C2 C 0.25034 0.28143 0.29639 0.0
C3 C 0.28279 0.28044 0.30011 0.0
C4 C 0.29226 0.26671 0.32931 0.0
C5 C 0.26952 0.25356 0.35392 0.0
C6 C 0.30583 0.29148 0.27192 0.0
C7 C 0.30376 0.31893 0.25499 0.0
C8 C 0.31982 0.32618 0.22362 0.0
C9 C 0.33945 0.30635 0.20981 0.0
C10 C 0.34294 0.27929 0.22723 0.0
C11 C 0.32613 0.2722 0.25842 0.0
C12 C 0.36088 0.25641 0.21131 0.0
C13 C 0.35771 0.24869 0.17649 0.0
C14 C 0.37923 0.24031 0.23132 0.0
C15 C 0.39318 0.21636 0.2171 0.0
C16 C 0.3891 0.20796 0.18254 0.0
C17 C 0.31069 0.35115 0.20327 0.0
C18 C 0.29502 0.34348 0.1725 0.0
C19 C 0.31071 0.38055 0.21804 0.0
C20 C 0.29267 0.40067 0.20417 0.0
C21 C 0.27382 0.39149 0.17565 0.0
C22 C 0.27662 0.36342 0.15886 0.0
C23 C 0.3717 0.22479 0.16228 0.0
H24 H 0.20277 0.26799 0.31598 0.0
H25 H 0.24218 0.29122 0.27379 0.0
H26 H 0.31716 0.26576 0.33283 0.0
H27 H 0.27745 0.24289 0.37605 0.0
H28 H 0.28752 0.33351 0.26496 0.0
H29 H 0.32677 0.25034 0.27076 0.0
H30 H 0.35123 0.31162 0.18515 0.0
H31 H 0.34343 0.26032 0.16041 0.0
H32 H 0.38232 0.24588 0.25817 0.0
H33 H 0.40632 0.20379 0.23346 0.0
H34 H 0.29439 0.32079 0.16085 0.0
H35 H 0.32274 0.38696 0.24175 0.0
H36 H 0.36855 0.21927 0.13543 0.0
H37 H 0.26238 0.35544 0.13697 0.0
H38 H 0.29174 0.42249 0.2172 0.0
C39 C 0.29522 0.8662 0.7602 0.0
C40 C 0.32799 0.8782 0.76175 0.0
C41 C 0.28114 0.85902 0.7287 0.0
C42 C 0.29971 0.86335 0.69835 0.0
C43 C 0.33278 0.87368 0.70007 0.0
C44 C 0.34678 0.88123 0.73153 0.0
C45 C 0.28436 0.85959 0.6649 0.0
C46 C 0.25843 0.87416 0.65894 0.0
C47 C 0.24499 0.87265 0.6266 0.0
C48 C 0.25704 0.85553 0.60035 0.0
C49 C 0.28305 0.84105 0.60597 0.0
C50 C 0.29673 0.84325 0.63826 0.0
C51 C 0.29587 0.8231 0.57851 0.0
C52 C 0.27579 0.79886 0.56182 0.0
C53 C 0.32883 0.82786 0.57165 0.0
C54 C 0.34188 0.8068 0.55125 0.0
C55 C 0.32217 0.78042 0.53774 0.0
C56 C 0.22012 0.89097 0.6196 0.0
C57 C 0.19484 0.89207 0.64317 0.0
C58 C 0.22253 0.90878 0.58985 0.0
C59 C 0.20018 0.92742 0.58378 0.0
C60 C 0.17493 0.9286 0.60731 0.0
C61 C 0.1724 0.91077 0.63707 0.0
C62 C 0.28889 0.77756 0.54158 0.0
H63 H 0.28023 0.86389 0.78318 0.0
H64 H 0.25562 0.85087 0.72796 0.0
H65 H 0.34756 0.87736 0.677 0.0
H66 H 0.37213 0.89036 0.73219 0.0
H67 H 0.24979 0.88805 0.67904 0.0
H68 H 0.31672 0.83183 0.64282 0.0
H69 H 0.24661 0.85395 0.57535 0.0
H70 H 0.25023 0.79493 0.56662 0.0
H71 H 0.34466 0.84677 0.58385 0.0
H72 H 0.36762 0.80957 0.54903 0.0
H73 H 0.19239 0.8784 0.66623 0.0
H74 H 0.24217 0.90892 0.57163 0.0
H75 H 0.2732 0.7575 0.5313 0.0
H76 H 0.15295 0.91107 0.65543 0.0
H77 H 0.20302 0.94137 0.56093 0.0
C78 C 0.76978 0.44824 0.9231 0.0
C79 C 0.7893 0.42952 0.93807 0.0
C80 C 0.7403 0.43508 0.90848 0.0
C81 C 0.72912 0.4026 0.90801 0.0
C82 C 0.74881 0.38405 0.92284 0.0
C83 C 0.77781 0.39714 0.93783 0.0
C84 C 0.69728 0.38783 0.89274 0.0
C85 C 0.68423 0.40134 0.86488 0.0
C86 C 0.65485 0.38722 0.85041 0.0
C87 C 0.63903 0.35835 0.86386 0.0
C88 C 0.65129 0.34408 0.89152 0.0
C89 C 0.67991 0.3595 0.90594 0.0
C90 C 0.63494 0.31261 0.90492 0.0
C91 C 0.63062 0.30668 0.94025 0.0
C92 C 0.62472 0.28767 0.88245 0.0
C93 C 0.61095 0.25796 0.89469 0.0
C94 C 0.60597 0.25187 0.93007 0.0
C95 C 0.64032 0.40276 0.82173 0.0
C96 C 0.60741 0.40374 0.82216 0.0
C97 C 0.6589 0.41706 0.79384 0.0
C98 C 0.64509 0.43172 0.76757 0.0
C99 C 0.61229 0.43329 0.76855 0.0
C100 C 0.59379 0.41888 0.79636 0.0
C101 C 0.61621 0.27704 0.95257 0.0
H102 H 0.77736 0.47318 0.92219 0.0
H103 H 0.72616 0.45058 0.89786 0.0
H104 H 0.74216 0.35901 0.92271 0.0
H105 H 0.79107 0.38145 0.94953 0.0
H106 H 0.69685 0.42299 0.85438 0.0
H107 H 0.68882 0.34891 0.92752 0.0
H108 H 0.61697 0.34687 0.85276 0.0
H109 H 0.63802 0.32517 0.95853 0.0
H110 H 0.62814 0.29089 0.85515 0.0
H111 H 0.60472 0.23963 0.87598 0.0
H112 H 0.59212 0.39333 0.84303 0.0
H113 H 0.68423 0.41675 0.79217 0.0
H114 H 0.61275 0.27416 0.97986 0.0
H115 H 0.56848 0.41927 0.79823 0.0
H116 H 0.66033 0.44258 0.7469 0.0
C117 C 0.87319 0.64071 0.26992 0.0
C118 C 0.90666 0.64607 0.26465 0.0
C119 C 0.85874 0.65422 0.2979 0.0
C120 C 0.87713 0.67372 0.32179 0.0
C121 C 0.91058 0.67875 0.3167 0.0
C122 C 0.92499 0.66524 0.28885 0.0
C123 C 0.86181 0.68879 0.35171 0.0
C124 C 0.83396 0.67295 0.36907 0.0
C125 C 0.82003 0.68647 0.39752 0.0
C126 C 0.83452 0.71665 0.40818 0.0
C127 C 0.86215 0.73345 0.39168 0.0
C128 C 0.87535 0.71908 0.36335 0.0
C129 C 0.87713 0.76571 0.40457 0.0
C130 C 0.85855 0.78543 0.42133 0.0
C131 C 0.91029 0.77703 0.40116 0.0
C132 C 0.92412 0.80658 0.4139 0.0
C133 C 0.9055 0.82578 0.43117 0.0
C134 C 0.79076 0.66935 0.41692 0.0
C135 C 0.76597 0.64911 0.40054 0.0
C136 C 0.7869 0.67388 0.45241 0.0
C137 C 0.75935 0.65963 0.47056 0.0
C138 C 0.73447 0.63939 0.45442 0.0
C139 C 0.73839 0.63438 0.41893 0.0
C140 C 0.8725 0.81465 0.43471 0.0
H141 H 0.8579 0.62654 0.25199 0.0
H142 H 0.83297 0.64983 0.30033 0.0
H143 H 0.92592 0.69289 0.33461 0.0
H144 H 0.95077 0.66961 0.28667 0.0
H145 H 0.82373 0.64956 0.36115 0.0
H146 H 0.89589 0.73184 0.34967 0.0
H147 H 0.82417 0.72714 0.42984 0.0
H148 H 0.83292 0.77865 0.4239 0.0
H149 H 0.9259 0.76288 0.38916 0.0
H150 H 0.94965 0.8142 0.41078 0.0
H151 H 0.76757 0.64495 0.3733 0.0
H152 H 0.80533 0.68851 0.46661 0.0
H153 H 0.85724 0.82888 0.44726 0.0
H154 H 0.72028 0.61885 0.40522 0.0
H155 H 0.75761 0.66502 0.4975 0.0
C156 C 0.76389 0.78814 0.76347 0.0
C157 C 0.77461 0.81963 0.75612 0.0
C158 C 0.73849 0.77927 0.78671 0.0
C159 C 0.72389 0.80181 0.80369 0.0
C160 C 0.73294 0.83306 0.79398 0.0
C161 C 0.75795 0.84184 0.77028 0.0
C162 C 0.70377 0.79376 0.83514 0.0
C163 C 0.71296 0.77353 0.85874 0.0
C164 C 0.69888 0.77001 0.89158 0.0
C165 C 0.67484 0.78687 0.90082 0.0
C166 C 0.66495 0.80711 0.87745 0.0
C167 C 0.67906 0.80978 0.84441 0.0
C168 C 0.643 0.82829 0.88885 0.0
C169 C 0.61657 0.81798 0.91076 0.0
C170 C 0.64973 0.85977 0.8796 0.0
C171 C 0.63118 0.88058 0.89271 0.0
C172 C 0.6055 0.87056 0.91557 0.0
C173 C 0.71333 0.75242 0.91707 0.0
C174 C 0.72245 0.72412 0.9077 0.0
C175 C 0.72311 0.76626 0.94848 0.0
C176 C 0.74398 0.75355 0.96855 0.0
C177 C 0.75554 0.72682 0.95753 0.0
C178 C 0.74339 0.7115 0.92763 0.0
C179 C 0.59795 0.8389 0.92392 0.0
H180 H 0.77618 0.77058 0.75251 0.0
H181 H 0.73161 0.75492 0.79296 0.0
H182 H 0.72257 0.85115 0.80665 0.0
H183 H 0.7659 0.86631 0.76515 0.0
H184 H 0.73323 0.76247 0.85267 0.0
H185 H 0.67169 0.82536 0.8263 0.0
H186 H 0.66504 0.7854 0.9267 0.0
H187 H 0.61061 0.79385 0.91817 0.0
H188 H 0.67014 0.86868 0.8632 0.0
H189 H 0.63737 0.90475 0.88544 0.0
H190 H 0.71502 0.7128 0.88375 0.0
H191 H 0.71659 0.78814 0.95635 0.0
H192 H 0.5784 0.8305 0.94163 0.0
H193 H 0.7518 0.69097 0.91821 0.0
H194 H 0.75238 0.76558 0.9918 0.0
C195 C 0.67901 0.18928 0.37045 0.0
C196 C 0.68202 0.21373 0.34708 0.0
C197 C 0.69536 0.19322 0.40094 0.0
C198 C 0.71468 0.22179 0.40877 0.0
C199 C 0.7172 0.24647 0.38575 0.0
C200 C 0.7012 0.24238 0.35497 0.0
C201 C 0.73229 0.22573 0.44087 0.0
C202 C 0.7509 0.20404 0.45009 0.0
C203 C 0.76767 0.20774 0.48061 0.0
C204 C 0.76509 0.23307 0.50228 0.0
C205 C 0.74691 0.25503 0.49308 0.0
C206 C 0.73058 0.25125 0.4623 0.0
C207 C 0.74424 0.2818 0.5156 0.0
C208 C 0.73613 0.27765 0.55044 0.0
C209 C 0.74674 0.3113 0.50141 0.0
C210 C 0.73796 0.33547 0.52061 0.0
C211 C 0.72657 0.33071 0.55459 0.0
C212 C 0.78881 0.18591 0.48936 0.0
C213 C 0.77961 0.15379 0.48357 0.0
C214 C 0.81865 0.19728 0.50337 0.0
C215 C 0.83862 0.17697 0.51202 0.0
C216 C 0.82932 0.14493 0.50654 0.0
C217 C 0.79981 0.13345 0.49196 0.0
C218 C 0.72742 0.302 0.56986 0.0
H219 H 0.66467 0.16683 0.36472 0.0
H220 H 0.69288 0.17395 0.41843 0.0
H221 H 0.73209 0.26869 0.39126 0.0
H222 H 0.70388 0.26152 0.33729 0.0
H223 H 0.75308 0.18485 0.43293 0.0
H224 H 0.7158 0.26777 0.45541 0.0
H225 H 0.7775 0.23594 0.52618 0.0
H226 H 0.73434 0.25508 0.56204 0.0
H227 H 0.75364 0.31522 0.47477 0.0
H228 H 0.73746 0.35697 0.50755 0.0
H229 H 0.75663 0.14435 0.47306 0.0
H230 H 0.82676 0.22194 0.50736 0.0
H231 H 0.71932 0.29769 0.5961 0.0
H232 H 0.79215 0.10875 0.4877 0.0
H233 H 0.86155 0.18636 0.52272 0.0
C234 C 0.23991 0.64848 0.20553 0.0
C235 C 0.23435 0.65616 0.17167 0.0
C236 C 0.26862 0.66146 0.22176 0.0
C237 C 0.2931 0.68229 0.20456 0.0
C238 C 0.28769 0.68891 0.17023 0.0
C239 C 0.25892 0.67643 0.15434 0.0
C240 C 0.32394 0.69729 0.22174 0.0
C241 C 0.33734 0.68231 0.24815 0.0
C242 C 0.36687 0.6956 0.26269 0.0
C243 C 0.38332 0.72442 0.24969 0.0
C244 C 0.37042 0.74092 0.22409 0.0
C245 C 0.34038 0.72696 0.21121 0.0
C246 C 0.38783 0.77267 0.21101 0.0
C247 C 0.4115 0.79166 0.23015 0.0
C248 C 0.38104 0.78474 0.1792 0.0
C249 C 0.39622 0.81448 0.16786 0.0
C250 C 0.41974 0.83352 0.1872 0.0
C251 C 0.38091 0.67923 0.29105 0.0
C252 C 0.36205 0.66575 0.31915 0.0
C253 C 0.41355 0.67712 0.29054 0.0
C254 C 0.42666 0.66177 0.31659 0.0
C255 C 0.40788 0.64831 0.34471 0.0
C256 C 0.37534 0.6509 0.34565 0.0
C257 C 0.42736 0.82085 0.21832 0.0
H258 H 0.22161 0.63312 0.21991 0.0
H259 H 0.27116 0.65562 0.24813 0.0
H260 H 0.30584 0.70374 0.15516 0.0
H261 H 0.25601 0.68258 0.12811 0.0
H262 H 0.32538 0.6597 0.25679 0.0
H263 H 0.32907 0.7396 0.19324 0.0
H264 H 0.40628 0.73391 0.26002 0.0
H265 H 0.41793 0.78444 0.25482 0.0
H266 H 0.36398 0.77132 0.16245 0.0
H267 H 0.38898 0.82244 0.14386 0.0
H268 H 0.33692 0.66695 0.32087 0.0
H269 H 0.42904 0.6869 0.26953 0.0
H270 H 0.4459 0.83322 0.23413 0.0
H271 H 0.35989 0.64077 0.36653 0.0
H272 H 0.45179 0.66057 0.31472 0.0
C273 C 0.14347 0.27074 0.68249 0.0
C274 C 0.11059 0.25953 0.68731 0.0
C275 C 0.15783 0.30004 0.69544 0.0
C276 C 0.13975 0.31979 0.713 0.0
C277 C 0.10665 0.30843 0.71739 0.0
C278 C 0.09248 0.27879 0.70518 0.0
C279 C 0.15515 0.35196 0.72602 0.0
C280 C 0.18352 0.36833 0.7103 0.0
C281 C 0.19799 0.39826 0.72139 0.0
C282 C 0.18341 0.41247 0.74872 0.0
C283 C 0.15521 0.39701 0.76562 0.0
C284 C 0.14163 0.36671 0.75398 0.0
C285 C 0.13991 0.41239 0.79534 0.0
C286 C 0.15841 0.43188 0.81917 0.0
C287 C 0.10646 0.40774 0.8003 0.0
C288 C 0.09216 0.42169 0.82792 0.0
C289 C 0.11061 0.44093 0.85199 0.0
C290 C 0.22823 0.41459 0.70378 0.0
C291 C 0.25545 0.40054 0.70102 0.0
C292 C 0.22977 0.44364 0.68825 0.0
C293 C 0.25731 0.45769 0.6696 0.0
C294 C 0.2845 0.44358 0.66672 0.0
C295 C 0.28331 0.41501 0.68319 0.0
C296 C 0.14408 0.44583 0.84688 0.0
H297 H 0.15833 0.25647 0.66933 0.0
H298 H 0.18338 0.30679 0.69195 0.0
H299 H 0.09127 0.32254 0.72986 0.0
H300 H 0.06705 0.27112 0.70924 0.0
H301 H 0.19421 0.35835 0.68845 0.0
H302 H 0.12079 0.35428 0.76745 0.0
H303 H 0.19418 0.43569 0.75674 0.0
H304 H 0.18419 0.43594 0.8169 0.0
H305 H 0.09106 0.39358 0.78246 0.0
H306 H 0.06638 0.41763 0.83003 0.0
H307 H 0.25514 0.37819 0.71263 0.0
H308 H 0.20927 0.45505 0.68964 0.0
H309 H 0.15946 0.45999 0.86474 0.0
H310 H 0.30361 0.40333 0.68132 0.0
H311 H 0.25732 0.47965 0.65724 0.0
La312 La 1.00623 0.0572 0.52594 0.0
La313 La 1.0043 1.02783 0.5953 0.0
C314 C 1.00386 0.09469 0.47861 0.0
C315 C 0.02824 0.12128 0.46826 0.0
C316 C 0.05793 0.12592 0.48382 0.0
C317 C 0.08264 0.1491 0.47244 0.0
C318 C 0.07835 0.16782 0.44481 0.0
C319 C 0.04818 0.16387 0.42997 0.0
C320 C 0.02324 0.14067 0.44165 0.0
C321 C 0.05408 1.02929 0.5374 0.0
C322 C 0.03758 0.09772 0.59109 0.0
C323 C 1.00673 0.99017 0.64263 0.0
C324 C 0.98443 0.96166 0.65257 0.0
C325 C 0.97368 0.95787 0.6867 0.0
C326 C 0.94735 0.93503 0.69536 0.0
C327 C 0.93119 0.91603 0.66989 0.0
C328 C 0.94316 0.91843 0.63616 0.0
C329 C 0.96987 0.94079 0.62765 0.0
C330 C 0.95649 0.0557 0.58313 0.0
C331 C 0.97319 0.98747 0.52986 0.0
O332 O 0.01268 0.06781 0.47401 0.0
O333 O 0.99044 0.09699 0.50884 0.0
O334 O 0.04304 1.03193 0.50746 0.0
O335 O 0.04074 0.04469 0.55877 0.0
O336 O 0.02687 0.09681 0.55946 0.0
O337 O 0.03491 0.07199 0.6093 0.0
O338 O 0.9951 1.01568 0.64668 0.0
O339 O 0.02219 0.98953 0.61329 0.0
O340 O 0.96783 0.05404 0.61314 0.0
O341 O 0.96986 1.03992 0.56228 0.0
O342 O 0.98369 0.98833 0.56157 0.0
O343 O 0.97561 1.01324 0.51186 0.0
H344 H 0.06238 0.11085 0.50408 0.0
H345 H 0.10542 0.15183 0.48472 0.0
H346 H 0.04426 0.17778 0.40842 0.0
H347 H 1.0005 0.13724 0.42924 0.0
H348 H 0.98447 0.97373 0.70631 0.0
H349 H 0.93835 0.93357 0.72155 0.0
H350 H 0.93113 0.90379 0.61623 0.0
H351 H 0.97804 0.94266 0.60127 0.0
La352 La 0.54501 0.05142 0.08417 0.0
La353 La 0.48537 1.03918 1.04019 0.0
C354 C 0.59917 0.07535 0.10494 0.0
C355 C 0.61358 0.10547 0.11937 0.0
C356 C 0.64562 0.11053 0.1283 0.0
C357 C 0.65788 0.13588 0.14895 0.0
C358 C 0.63808 0.1563 0.16112 0.0
C359 C 0.6067 0.1526 0.14963 0.0
C360 C 0.59453 0.12733 0.12883 0.0
C361 C 0.50716 0.99737 0.10235 0.0
C362 C 0.48622 0.08124 0.10768 0.0
C363 C 0.43096 1.02268 1.01594 0.0
C364 C 0.41902 1.00599 0.98475 0.0
C365 C 0.40054 1.01988 0.96276 0.0
C366 C 0.39064 1.00542 0.93197 0.0
C367 C 0.3988 0.97666 0.92287 0.0
C368 C 0.41673 0.96242 0.94519 0.0
C369 C 0.42697 0.97706 0.97581 0.0
C370 C 0.53097 0.08613 1.01955 0.0
C371 C 0.54241 1.00687 1.019 0.0
O372 O 0.57664 0.05925 0.12426 0.0
O373 O 0.59162 0.07483 0.07271 0.0
O374 O 0.53348 1.00937 0.11691 0.0
O375 O 0.50391 1.01643 0.07952 0.0
O376 O 0.51707 0.0816 0.11074 0.0
O377 O 0.46916 0.06428 0.0841 0.0
O378 O 0.44839 0.05021 1.01128 0.0
O379 O 0.44284 1.00665 1.03863 0.0
O380 O 0.51273 0.06718 0.99956 0.0
O381 O 0.52254 0.07863 1.05011 0.0
O382 O 0.51129 1.00556 1.01701 0.0
O383 O 0.56021 1.02595 1.04025 0.0
H384 H 0.66057 0.09378 0.12123 0.0
H385 H 0.68205 0.13795 0.15767 0.0
H386 H 0.59103 0.16814 0.15846 0.0
H387 H 0.56972 0.1238 0.12198 0.0
H388 H 0.39418 1.04217 0.96918 0.0
H389 H 0.37656 1.01668 0.91526 0.0
H390 H 0.42349 0.94036 0.93856 0.0
H391 H 0.44147 0.96592 0.99216 0.0
La392 La 0.50784 0.51491 0.53443 0.0
La393 La 0.50861 0.56603 0.581 0.0
C394 C 0.52768 0.4733 0.50028 0.0
C395 C 0.55748 0.46227 0.50655 0.0
C396 C 0.55769 0.43043 0.50803 0.0
C397 C 0.58421 0.41999 0.52036 0.0
C398 C 0.6108 0.44129 0.53172 0.0
C399 C 0.61091 0.4732 0.52904 0.0
C400 C 0.58451 0.48358 0.51664 0.0
C401 C 0.45333 0.51133 0.57054 0.0
C402 C 0.54052 0.51377 0.60832 0.0
C403 C 0.49015 0.60848 0.61513 0.0
C404 C 0.46328 0.62377 0.60738 0.0
C405 C 0.46858 0.65599 0.60297 0.0
C406 C 0.44484 0.67007 0.58966 0.0
C407 C 0.41539 0.65212 0.58064 0.0
C408 C 0.40971 0.62002 0.58618 0.0
C409 C 0.43349 0.60592 0.59923 0.0
C410 C 0.56324 0.56912 0.54522 0.0
C411 C 0.47633 0.5675 0.50688 0.0
O412 O 0.50593 0.46725 0.52467 0.0
O413 O 0.53109 0.50201 0.49002 0.0
O414 O 0.45539 0.5029 0.53877 0.0
O415 O 0.48136 0.51999 0.58095 0.0
O416 O 0.53964 0.50478 0.5757 0.0
O417 O 0.52671 0.5372 0.61808 0.0
O418 O 0.5141 0.6136 0.59309 0.0
O419 O 0.48267 0.57916 0.62332 0.0
O420 O 0.56109 0.57719 0.57709 0.0
O421 O 0.53524 0.5609 0.53457 0.0
O422 O 0.47773 0.57708 0.5393 0.0
O423 O 0.48932 0.54347 0.49743 0.0
H424 H 0.53697 0.41366 0.50076 0.0
H425 H 0.58377 0.39521 0.52124 0.0
H426 H 0.63087 0.49018 0.53772 0.0
H427 H 0.58477 0.50836 0.51644 0.0
H428 H 0.49145 0.67011 0.60872 0.0
H429 H 0.44954 0.69502 0.58633 0.0
H430 H 0.38726 0.60568 0.57938 0.0
H431 H 0.42886 0.58088 0.60169 0.0
La432 La 0.00956 0.51477 0.07149 0.0
La433 La 0.00953 0.5749 1.04412 0.0
C434 C 0.02646 0.46504 0.08834 0.0
C435 C 0.05817 0.45741 0.09348 0.0
C436 C 0.06244 0.43756 0.11994 0.0
C437 C 0.09274 0.43127 0.12602 0.0
C438 C 0.11925 0.44467 0.10561 0.0
C439 C 0.11487 0.46441 0.07895 0.0
C440 C 0.08462 0.47089 0.07306 0.0
C441 C 0.97384 0.54741 0.10923 0.0
C442 C 0.06884 0.57022 0.08638 0.0
C443 C 0.99367 0.62524 1.02723 0.0
C444 C 0.96273 0.63459 1.02237 0.0
C445 C 0.96095 0.66 1.00173 0.0
C446 C 0.93151 0.66858 0.99628 0.0
C447 C 0.90332 0.65175 1.01126 0.0
C448 C 0.90525 0.62632 1.03206 0.0
C449 C 0.93472 0.6179 1.03769 0.0
C450 C 0.04504 0.54187 1.00637 0.0
C451 C 0.95047 0.51918 1.02932 0.0
O452 O 0.01746 0.48463 0.11036 0.0
O453 O 0.02031 0.47147 0.05706 0.0
O454 O 0.96695 0.51777 0.10319 0.0
O455 O 1.00074 0.55765 0.09505 0.0
O456 O 0.05805 0.53991 0.08373 0.0
O457 O 0.05199 0.58998 0.07444 0.0
O458 O 1.00132 0.60491 1.00527 0.0
O459 O 0.99953 0.61851 0.0585 0.0
O460 O 0.05207 0.57151 1.01222 0.0
O461 O 0.01812 0.532 1.02058 0.0
O462 O 0.96067 0.54954 1.03284 0.0
O463 O 0.96797 0.49956 1.0402 0.0
H464 H 0.04238 0.4271 0.13605 0.0
H465 H 0.09541 0.41571 0.14653 0.0
H466 H 0.13492 0.47526 0.06307 0.0
H467 H 0.08198 0.48665 1.05273 0.0
H468 H 0.98231 0.67305 0.98962 0.0
H469 H 0.93073 0.68803 0.97976 0.0
H470 H 0.88401 0.61309 1.04419 0.0
H471 H 0.93561 0.59834 1.05397 0.0
H472 H 0.18078 0.27002 0.37165 0.0
H473 H 0.2368 0.19772 0.37974 0.0
H474 H 0.19346 0.16606 0.41208 0.0
H475 H 0.13809 0.15665 0.43301 0.0
H476 H 0.0806 0.22735 0.42273 0.0
H477 H 0.12582 0.26151 0.39516 0.0
C478 C 0.18354 0.24734 0.38047 0.0
C479 C 0.21204 0.23628 0.37302 0.0
C480 C 0.15808 0.22874 0.39811 0.0
C481 C 0.2154 0.20709 0.38538 0.0
C482 C 0.19045 0.18876 0.40357 0.0
C483 C 0.13557 0.17976 0.42533 0.0
C484 C 0.10603 0.18948 0.42993 0.0
C485 C 0.16149 0.19907 0.40939 0.0
C486 C 0.10301 0.21923 0.41916 0.0
C487 C 0.12888 0.23879 0.40357 0.0
H488 H 0.36245 0.93509 0.77266 0.0
H489 H 0.32328 0.84948 0.82362 0.0
H490 H 0.34305 0.87211 0.87823 0.0
H491 H 0.36959 0.91717 0.91156 0.0
H492 H 0.40636 1.00333 0.86037 0.0
H493 H 0.38942 0.9796 0.80555 0.0
C494 C 0.35872 0.92128 0.79567 0.0
C495 C 0.34179 0.89067 0.79428 0.0
C496 C 0.36946 0.93463 0.82683 0.0
C497 C 0.33636 0.87313 0.82427 0.0
C498 C 0.3476 0.88605 0.85538 0.0
C499 C 0.37408 0.93057 0.8883 0.0
C500 C 0.38908 0.96188 0.88982 0.0
C501 C 0.36388 0.9169 0.857 0.0
C502 C 0.39453 0.97924 0.85971 0.0
C503 C 0.38499 0.96568 0.82842 0.0
H504 H 0.61916 0.43281 0.69735 0.0
H505 H 0.5715 0.47423 0.77964 0.0
H506 H 0.54636 0.50287 0.73862 0.0
H507 H 0.53686 0.51631 0.67902 0.0
H508 H 0.58177 0.47291 0.59626 0.0
H509 H 0.60861 0.44551 0.63715 0.0
C510 C 0.60339 0.44819 0.70638 0.0
C511 C 0.59744 0.45103 0.74205 0.0
C512 C 0.58829 0.4645 0.68226 0.0
C513 C 0.57652 0.47105 0.75269 0.0
C514 C 0.56211 0.48766 0.72909 0.0
C515 C 0.55263 0.501 0.66979 0.0
C516 C 0.55728 0.49721 0.63409 0.0
C517 C 0.56764 0.48458 0.69375 0.0
C518 C 0.57763 0.47672 0.62322 0.0
C519 C 0.59307 0.46088 0.6468 0.0
H520 H 0.88827 0.58925 0.23151 0.0
H521 H 0.96127 0.67161 0.22782 0.0
H522 H 0.98805 0.64949 0.18019 0.0
H523 H 0.99174 0.60606 0.13903 0.0
H524 H 0.91804 0.5244 0.1426 0.0
H525 H 0.89086 0.54702 0.18959 0.0
C526 C 0.90984 0.60267 0.22021 0.0
C527 C 0.92251 0.63226 0.23416 0.0
C528 C 0.9253 0.58981 0.19226 0.0
C529 C 0.9509 0.64864 0.21874 0.0
C530 C 0.96628 0.63603 0.19104 0.0
C531 C 0.96965 0.59328 0.14997 0.0
C532 C 0.95721 0.56329 0.13701 0.0
C533 C 0.95389 0.60651 0.17756 0.0
C534 C 0.92846 0.54734 0.15182 0.0
C535 C 0.91278 0.56031 0.1789 0.0
H536 H 0.44711 0.19226 0.19325 0.0
H537 H 0.35997 0.16318 0.13898 0.0
H538 H 0.38149 0.12018 0.11296 0.0
H539 H 0.42567 0.09218 0.1037 0.0
H540 H 0.51308 0.1211 0.15769 0.0
H541 H 0.49043 0.16225 0.18639 0.0
C542 C 0.43268 0.1763 0.17606 0.0
C543 C 0.4021 0.1812 0.16781 0.0
C544 C 0.44516 0.15148 0.16124 0.0
C545 C 0.38384 0.1604 0.14523 0.0
C546 C 0.39603 0.13563 0.13053 0.0
C547 C 0.43972 0.1072 0.12203 0.0
C548 C 0.47112 0.10354 0.12833 0.0
C549 C 0.42677 0.13115 0.13805 0.0
C550 C 0.48887 0.12333 0.15222 0.0
C551 C 0.47598 0.147 0.16859 0.0
H552 H 0.14657 0.93397 0.54769 0.0
H553 H 0.15072 0.9677 0.65174 0.0
H554 H 0.11366 1.0024 0.63921 0.0
H555 H 0.08137 1.02406 0.598 0.0
H556 H 0.07761 0.98987 0.4941 0.0
H557 H 0.11416 0.955 0.50696 0.0
C558 C 0.13952 0.94908 0.56755 0.0
C559 C 0.15142 0.9485 0.60047 0.0
C560 C 0.11864 0.96906 0.56009 0.0
C561 C 0.14162 0.96765 0.62623 0.0
C562 C 0.12067 0.98762 0.61903 0.0
C563 C 0.08854 1.00887 0.5783 0.0
C564 C 0.07689 1.00931 0.54526 0.0
C565 C 0.10923 0.98865 0.58598 0.0
C566 C 0.08642 0.98985 0.51974 0.0
C567 C 0.10717 0.96986 0.52708 0.0
H568 H 0.81043 0.4878 0.96844 0.0
H569 H 0.84274 0.40232 0.94165 0.0
H570 H 0.89313 0.42127 0.96842 0.0
H571 H 0.92931 0.46198 0.99965 0.0
H572 H 0.89981 0.54931 1.02222 0.0
H573 H 0.84816 0.53007 0.99667 0.0
C574 C 0.82844 0.47326 0.968 0.0
C575 C 0.82152 0.44298 0.95332 0.0
C576 C 0.85846 0.48476 0.98286 0.0
C577 C 0.84597 0.42508 0.95354 0.0
C578 C 0.87535 0.43609 0.96867 0.0
C579 C 0.91159 0.47685 0.99912 0.0
C580 C 0.91875 0.50713 1.01332 0.0
C581 C 0.88191 0.46579 0.98364 0.0
C582 C 0.89533 0.52597 1.0117 0.0
C583 C 0.86559 0.5149 0.99703 0.0
H584 H 0.67154 0.62069 0.43399 0.0
H585 H 0.73051 0.62142 0.52187 0.0
H586 H 0.68386 0.60064 0.55685 0.0
H587 H 0.62559 0.58324 0.56394 0.0
H588 H 0.56671 0.57801 0.47591 0.0
H589 H 0.61366 0.5986 0.44001 0.0
C590 C 0.67448 0.616 0.46065 0.0
C591 C 0.70515 0.6238 0.47493 0.0
C592 C 0.64723 0.603 0.48097 0.0
C593 C 0.70762 0.61716 0.50983 0.0
C594 C 0.68076 0.6048 0.53007 0.0
C595 C 0.62303 0.58645 0.53685 0.0
C596 C 0.59241 0.57931 0.52287 0.0
C597 C 0.65035 0.59797 0.51614 0.0
C598 C 0.58981 0.58333 0.48755 0.0
C599 C 0.61676 0.59523 0.46695 0.0
H600 H 0.25263 0.40218 0.11229 0.0
H601 H 0.2353 0.4174 0.21985 0.0
H602 H 0.18744 0.43734 0.2073 0.0
H603 H 0.14756 0.44581 0.16661 0.0
H604 H 0.16289 0.42873 0.05932 0.0
H605 H 0.21419 0.414 0.07094 0.0
C606 C 0.2385 0.41005 0.13295 0.0
C607 C 0.24772 0.40818 0.16695 0.0
C608 C 0.21032 0.42078 0.12568 0.0
C609 C 0.22929 0.41898 0.19336 0.0
C610 C 0.20157 0.43006 0.18629 0.0
C611 C 0.16217 0.43887 0.1458 0.0
C612 C 0.15133 0.43795 0.11226 0.0
C613 C 0.19143 0.43029 0.15268 0.0
C614 C 0.17078 0.42961 0.08539 0.0
C615 C 0.20003 0.42109 0.09203 0.0
H616 H 0.61121 0.22275 0.99276 0.0
H617 H 0.56241 0.20739 0.89715 0.0
H618 H 0.53776 0.15574 0.91513 0.0
H619 H 0.5285 0.11414 0.95787 0.0
H620 H 0.57209 0.13008 1.05576 0.0
H621 H 0.59948 0.18169 1.03725 0.0
C622 C 0.59499 0.20846 0.97576 0.0
C623 C 0.58978 0.21978 0.94288 0.0
C624 C 0.57961 0.17836 0.98679 0.0
C625 C 0.56843 0.1999 0.92189 0.0
C626 C 0.55375 0.17006 0.93237 0.0
C627 C 0.5441 0.12878 0.97523 0.0
C628 C 0.54836 0.11771 1.00822 0.0
C629 C 0.55916 0.15891 0.96465 0.0
C630 C 0.56842 0.13756 1.03023 0.0
C631 C 0.58408 0.16726 1.01959 0.0
H632 H 0.89706 0.85191 0.49453 0.0
H633 H 0.94752 0.87142 0.39813 0.0
H634 H 0.97139 0.9232 0.4189 0.0
H635 H 0.97869 0.96341 0.46501 0.0
H636 H 0.93105 0.94235 0.56257 0.0
H637 H 0.90555 0.89139 0.54108 0.0
C638 C 0.9132 0.86752 0.478 0.0
C639 C 0.92029 0.85751 0.44462 0.0
C640 C 0.92747 0.89728 0.49045 0.0
C641 C 0.94166 0.87816 0.42391 0.0
C642 C 0.95528 0.90795 0.43579 0.0
C643 C 0.96253 0.94773 0.48145 0.0
C644 C 0.9568 0.95693 0.51546 0.0
C645 C 0.94844 0.91786 0.46905 0.0
C646 C 0.93615 0.93596 0.53647 0.0
C647 C 0.92144 0.90674 0.52409 0.0
H648 H 0.30324 0.72216 0.56023 0.0
H649 H 0.37456 0.77809 0.49598 0.0
H650 H 0.40873 0.73906 0.49933 0.0
H651 H 0.42242 0.69524 0.53068 0.0
H652 H 0.35232 0.64244 0.59889 0.0
H653 H 0.31319 0.67365 0.58325 0.0
C654 C 0.32563 0.72523 0.5457 0.0
C655 C 0.33665 0.75314 0.52833 0.0
C656 C 0.34567 0.70357 0.5492 0.0
C657 C 0.36582 0.75687 0.50984 0.0
C658 C 0.38545 0.73474 0.51204 0.0
C659 C 0.39843 0.69041 0.54175 0.0
C660 C 0.39042 0.6672 0.56652 0.0
C661 C 0.37639 0.70904 0.53342 0.0
C662 C 0.35907 0.66039 0.57996 0.0
C663 C 0.33674 0.6783 0.57114 0.0
H664 H 0.78751 0.85901 0.70244 0.0
H665 H 0.83128 0.80396 0.77067 0.0
H666 H 0.88416 0.82754 0.7485 0.0
H667 H 0.91812 0.86785 0.71382 0.0
H668 H 0.87448 0.92153 0.64409 0.0
H669 H 0.82141 0.89454 0.66251 0.0
C670 C 0.80867 0.85187 0.71193 0.0
C671 C 0.80564 0.82994 0.73815 0.0
C672 C 0.83898 0.86552 0.69906 0.0
C673 C 0.8331 0.82065 0.75025 0.0
C674 C 0.86333 0.8343 0.73781 0.0
C675 C 0.89691 0.87316 0.70241 0.0
C676 C 0.8999 0.8966 0.67791 0.0
C677 C 0.86659 0.85734 0.71286 0.0
C678 C 0.8725 0.9034 0.66297 0.0
C679 C 0.84224 0.88811 0.67358 0.0
H680 H 0.70976 0.22618 0.2846 0.0
H681 H 0.62013 0.18863 0.33515 0.0
H682 H 0.59686 0.17205 0.28017 0.0
H683 H 0.60446 0.16183 0.21939 0.0
H684 H 0.69503 0.19605 0.16893 0.0
H685 H 0.71548 0.22091 0.2222 0.0
C686 C 0.68492 0.21505 0.28339 0.0
C687 C 0.66667 0.20837 0.31371 0.0
C688 C 0.67203 0.20484 0.25182 0.0
C689 C 0.63464 0.19365 0.31204 0.0
C690 C 0.62137 0.1842 0.28068 0.0
C691 C 0.62833 0.17558 0.21975 0.0
C692 C 0.64825 0.17713 0.19036 0.0
C693 C 0.64017 0.18877 0.25059 0.0
C694 C 0.67935 0.19448 0.19136 0.0
C695 C 0.69105 0.20854 0.22179 0.0
H696 H 0.40096 0.65004 0.41589 0.0
H697 H 0.44731 0.60595 0.33467 0.0
H698 H 0.47131 0.57704 0.37639 0.0
H699 H 0.4801 0.56402 0.43628 0.0
H700 H 0.43646 0.60988 0.51804 0.0
H701 H 0.41088 0.63778 0.47644 0.0
C702 C 0.4162 0.63402 0.40725 0.0
C703 C 0.42211 0.6305 0.37165 0.0
C704 C 0.43063 0.61753 0.43179 0.0
C705 C 0.44234 0.60967 0.36152 0.0
C706 C 0.45609 0.59289 0.38554 0.0
C707 C 0.46487 0.57997 0.44514 0.0
C708 C 0.46022 0.58433 0.48076 0.0
C709 C 0.45056 0.5966 0.42079 0.0
C710 C 0.4406 0.60565 0.49115 0.0
C711 C 0.42586 0.62175 0.46717 0.0
H712 H 0.12965 0.498 0.8844 0.0
H713 H 0.05577 0.41638 0.88897 0.0
H714 H 0.02942 0.43928 0.93637 0.0
H715 H 0.02641 0.48315 0.97712 0.0
H716 H 0.10089 0.56413 0.97263 0.0
H717 H 0.12764 0.54076 0.92583 0.0
C718 C 0.10798 0.48491 0.89584 0.0
C719 C 0.09494 0.45528 0.88223 0.0
C720 C 0.09276 0.49823 0.92365 0.0
C721 C 0.06642 0.43935 0.89781 0.0
C722 C 0.05128 0.45241 0.92537 0.0
C723 C 0.04857 0.49562 0.96602 0.0
C724 C 0.06138 0.52562 0.97866 0.0
C725 C 0.06405 0.48195 0.93854 0.0
C726 C 0.0902 0.54118 0.96365 0.0
C727 C 0.10563 0.52778 0.93668 0.0
H728 H 0.63117 0.92656 0.94219 0.0
H729 H 0.54095 0.86583 0.927 0.0
H730 H 0.51307 0.90341 0.95622 0.0
H731 H 0.51474 0.95305 0.98753 0.0
H732 H 0.60569 1.01269 1.00317 0.0
H733 H 0.63279 0.97622 0.97173 0.0
C734 C 0.60536 0.92171 0.94479 0.0
C735 C 0.58815 0.89352 0.93227 0.0
C736 C 0.58961 0.94325 0.96168 0.0
C737 C 0.55476 0.88729 0.9366 0.0
C738 C 0.53882 0.90882 0.95317 0.0
C739 C 0.54044 0.9582 0.98372 0.0
C740 C 0.55815 0.98556 0.99772 0.0
C741 C 0.55604 0.93682 0.96601 0.0
C742 C 0.59148 0.99174 0.99285 0.0
C743 C 0.60704 0.9709 0.97486 0.0
H744 H 0.85706 0.14353 0.5671 0.0
H745 H 0.84881 0.09915 0.46801 0.0
H746 H 0.8873 0.06676 0.48337 0.0
H747 H 0.92496 0.053 0.52422 0.0
H748 H 0.9326 0.09724 0.62348 0.0
H749 H 0.89265 0.12807 0.60881 0.0
C750 C 0.86374 0.12672 0.54895 0.0
C751 C 0.85053 0.12376 0.51646 0.0
C752 C 0.88576 0.10839 0.55793 0.0
C753 C 0.85875 0.10162 0.49323 0.0
C754 C 0.88081 0.0833 0.50192 0.0
C755 C 0.91772 0.06934 0.5426 0.0
C756 C 0.93162 0.07314 0.57473 0.0
C757 C 0.89472 0.08678 0.53405 0.0
C758 C 0.92209 0.09409 0.59856 0.0
C759 C 0.89935 0.11169 0.59019 0.0
H760 H 0.19859 0.59637 0.16917 0.0
H761 H 0.19878 0.68957 0.13519 0.0
H762 H 0.14861 0.67198 0.10637 0.0
H763 H 0.10398 0.63004 0.09023 0.0
H764 H 0.1049 0.53631 0.12195 0.0
H765 H 0.15454 0.55403 0.15163 0.0
C766 C 0.1876 0.61288 0.15561 0.0
C767 C 0.20288 0.64445 0.15461 0.0
C768 C 0.15862 0.60242 0.13835 0.0
C769 C 0.18808 0.66519 0.13639 0.0
C770 C 0.15916 0.65511 0.11986 0.0
C771 C 0.11498 0.61341 0.10358 0.0
C772 C 0.10015 0.58172 0.10365 0.0
C773 C 0.14413 0.62376 0.12051 0.0
C774 C 0.11532 0.56078 0.12115 0.0
C775 C 0.14391 0.57095 0.13834 0.0
H776 H 0.3477 0.45886 0.68435 0.0
H777 H 0.28575 0.46004 0.59977 0.0
H778 H 0.3317 0.48089 0.56271 0.0
H779 H 0.39017 0.49788 0.5536 0.0
H780 H 0.45168 0.50063 0.63924 0.0
H781 H 0.40578 0.47961 0.67624 0.0
C782 C 0.34428 0.46375 0.65782 0.0
C783 C 0.31311 0.45763 0.64493 0.0
C784 C 0.37096 0.47656 0.63668 0.0
C785 C 0.30928 0.46453 0.61051 0.0
C786 C 0.33565 0.47642 0.58922 0.0
C787 C 0.3935 0.49402 0.58041 0.0
C788 C 0.42459 0.50066 0.59339 0.0
C789 C 0.36669 0.48243 0.60189 0.0
C790 C 0.42822 0.49578 0.62837 0.0
C791 C 0.40188 0.48361 0.64961 0.0
H792 H 0.76556 0.6679 0.96915 0.0
H793 H 0.80805 0.76446 0.98269 0.0
H794 H 0.85656 0.74963 1.0027 0.0
H795 H 0.88875 0.7096 1.0118 0.0
H796 H 0.84758 0.61314 0.9958 0.0
H797 H 0.79694 0.62757 0.98118 0.0
C798 C 0.78538 0.68569 0.97663 0.0
C799 C 0.78304 0.71726 0.9743 0.0
C800 C 0.81365 0.67705 0.98734 0.0
C801 C 0.80884 0.73998 0.98466 0.0
C802 C 0.83682 0.73154 0.99575 0.0
C803 C 0.86868 0.69175 1.00509 0.0
C804 C 0.87201 0.66039 1.00459 0.0
C805 C 0.83976 0.70021 0.99644 0.0
C806 C 0.8456 0.63745 0.99653 0.0
C807 C 0.81668 0.64569 0.98801 0.0
H808 H 0.42504 0.86098 0.12172 0.0
H809 H 0.45084 0.88261 0.22656 0.0
H810 H 0.4796 0.93277 0.20945 0.0
H811 H 0.499 0.97158 0.16528 0.0
H812 H 0.4687 0.95444 0.0619 0.0
H813 H 0.43968 0.90259 0.07817 0.0
C814 C 0.43644 0.87647 0.14124 0.0
C815 C 0.43599 0.86618 0.1757 0.0
C816 C 0.45222 0.90685 0.13148 0.0
C817 C 0.4514 0.88789 0.19971 0.0
C818 C 0.46774 0.91736 0.19002 0.0
C819 C 0.48575 0.95666 0.14629 0.0
C820 C 0.48613 0.96715 0.11233 0.0
C821 C 0.46861 0.92707 0.15603 0.0
C822 C 0.46866 0.94734 0.08826 0.0
C823 C 0.45221 0.91748 0.0976 0.0
H824 H 0.11478 0.23378 0.62305 0.0
H825 H 0.0718 0.21328 0.72291 0.0
H826 H 0.04712 0.16132 0.70324 0.0
H827 H 0.03681 0.12125 0.65703 0.0
H828 H 0.07627 0.14388 0.55611 0.0
H829 H 0.10299 0.19465 0.57656 0.0
C830 C 0.1001 0.2179 0.64055 0.0
C831 C 0.09538 0.22766 0.67459 0.0
C832 C 0.08521 0.1881 0.62875 0.0
C833 C 0.07584 0.20669 0.69662 0.0
C834 C 0.06174 0.17681 0.68536 0.0
C835 C 0.05145 0.13721 0.63959 0.0
C836 C 0.05459 0.12835 0.60496 0.0
C837 C 0.06614 0.16715 0.65142 0.0
C838 C 0.07327 0.1498 0.58276 0.0
C839 C 0.08866 0.17899 0.59451 0.0
H840 H 0.73822 0.39398 0.55035 0.0
H841 H 0.67162 0.3174 0.59397 0.0
H842 H 0.63064 0.34921 0.59782 0.0
H843 H 0.60994 0.39285 0.57436 0.0
H844 H 0.67413 0.46507 0.52059 0.0
H845 H 0.71928 0.4411 0.53466 0.0
C846 C 0.71488 0.38443 0.56127 0.0
C847 C 0.70772 0.35291 0.57033 0.0
C848 C 0.69048 0.40185 0.56044 0.0
C849 C 0.67793 0.3414 0.58621 0.0
C850 C 0.65413 0.35945 0.58786 0.0
C851 C 0.63386 0.40343 0.56592 0.0
C852 C 0.63854 0.43008 0.54553 0.0
C853 C 0.65949 0.3887 0.57255 0.0
C854 C 0.66978 0.44434 0.53603 0.0
C855 C 0.69564 0.43057 0.54393 0.0
loop_
_geom_bond_atom_site_label_1
_geom_bond_atom_site_label_2
_geom_bond_distance
_geom_bond_site_symmetry_2
_ccdc_geom_bond_type
C0 C1 1.386 . S
C0 C2 1.397 . S
C0 H24 0.931 . S
C1 C0 1.386 . S
C1 C5 1.397 . S
C2 C0 1.397 . S
C2 C3 1.384 . S
C2 H25 0.930 . S
C3 C2 1.384 . S
C3 C4 1.377 . S
C3 C6 1.481 . S
C4 C3 1.377 . S
C4 C5 1.389 . S
C4 H26 0.929 . S
C5 C1 1.397 . S
C5 C4 1.389 . S
C5 H27 0.931 . S
C6 C3 1.481 . S
C6 C7 1.387 . S
C6 C11 1.390 . S
C7 C6 1.387 . S
C7 C8 1.401 . S
C7 H28 0.930 . S
C8 C7 1.401 . S
C8 C9 1.376 . S
C8 C17 1.511 . S
C9 C8 1.376 . S
C9 C10 1.392 . S
C9 H30 0.931 . S
C10 C9 1.392 . S
C10 C11 1.361 . S
C10 C12 1.500 . S
C11 C6 1.390 . S
C11 C10 1.361 . S
C11 H29 0.931 . S
C12 C10 1.500 . S
C12 C13 1.371 . S
C12 C14 1.365 . S
C13 C12 1.371 . S
C13 C23 1.386 . S
C13 H31 0.931 . S
C14 C12 1.365 . S
C14 C15 1.409 . S
C14 H32 0.929 . S
C15 C14 1.409 . S
C15 C16 1.380 . S
C15 H33 0.930 . S
C16 C15 1.380 . S
C16 C23 1.357 . S
C17 C8 1.511 . S
C17 C18 1.341 . S
C17 C19 1.371 . S
C18 C17 1.341 . S
C18 C22 1.394 . S
C18 H34 0.930 . S
C19 C17 1.371 . S
C19 C20 1.392 . S
C19 H35 0.931 . S
C20 C19 1.392 . S
C20 C21 1.331 . S
C20 H38 0.932 . S
C21 C20 1.331 . S
C21 C22 1.336 . S
C22 C18 1.394 . S
C22 C21 1.336 . S
C22 H37 0.929 . S
C23 C13 1.386 . S
C23 C16 1.357 . S
C23 H36 0.928 . S
H24 C0 0.931 . S
H25 C2 0.930 . S
H26 C4 0.929 . S
H27 C5 0.931 . S
H28 C7 0.930 . S
H29 C11 0.931 . S
H30 C9 0.931 . S
H31 C13 0.931 . S
H32 C14 0.929 . S
H33 C15 0.930 . S
H34 C18 0.930 . S
H35 C19 0.931 . S
H36 C23 0.928 . S
H37 C22 0.929 . S
H38 C20 0.932 . S
C39 C40 1.386 . S
C39 C41 1.397 . S
C39 H63 0.931 . S
C40 C39 1.386 . S
C40 C44 1.397 . S
C41 C39 1.397 . S
C41 C42 1.384 . S
C41 H64 0.930 . S
C42 C41 1.384 . S
C42 C43 1.377 . S
C42 C45 1.481 . S
C43 C42 1.377 . S
C43 C44 1.389 . S
C43 H65 0.929 . S
C44 C40 1.397 . S
C44 C43 1.389 . S
C44 H66 0.931 . S
C45 C42 1.481 . S
C45 C46 1.387 . S
C45 C50 1.390 . S
C46 C45 1.387 . S
C46 C47 1.401 . S
C46 H67 0.930 . S
C47 C46 1.401 . S
C47 C48 1.376 . S
C47 C56 1.511 . S
C48 C47 1.376 . S
C48 C49 1.392 . S
C48 H69 0.931 . S
C49 C48 1.392 . S
C49 C50 1.361 . S
C49 C51 1.500 . S
C50 C45 1.390 . S
C50 C49 1.361 . S
C50 H68 0.931 . S
C51 C49 1.500 . S
C51 C52 1.371 . S
C51 C53 1.365 . S
C52 C51 1.371 . S
C52 C62 1.386 . S
C52 H70 0.931 . S
C53 C51 1.365 . S
C53 C54 1.409 . S
C53 H71 0.929 . S
C54 C53 1.409 . S
C54 C55 1.380 . S
C54 H72 0.930 . S
C55 C54 1.380 . S
C55 C62 1.357 . S
C56 C47 1.511 . S
C56 C57 1.341 . S
C56 C58 1.371 . S
C57 C56 1.341 . S
C57 C61 1.394 . S
C57 H73 0.930 . S
C58 C56 1.371 . S
C58 C59 1.392 . S
C58 H74 0.931 . S
C59 C58 1.392 . S
C59 C60 1.331 . S
C59 H77 0.932 . S
C60 C59 1.331 . S
C60 C61 1.336 . S
C61 C57 1.394 . S
C61 C60 1.336 . S
C61 H76 0.929 . S
C62 C52 1.386 . S
C62 C55 1.357 . S
C62 H75 0.928 . S
H63 C39 0.931 . S
H64 C41 0.930 . S
H65 C43 0.929 . S
H66 C44 0.931 . S
H67 C46 0.930 . S
H68 C50 0.931 . S
H69 C48 0.931 . S
H70 C52 0.931 . S
H71 C53 0.929 . S
H72 C54 0.930 . S
H73 C57 0.930 . S
H74 C58 0.931 . S
H75 C62 0.928 . S
H76 C61 0.929 . S
H77 C59 0.932 . S
C78 C79 1.386 . S
C78 C80 1.397 . S
C78 H102 0.931 . S
C79 C78 1.386 . S
C79 C83 1.397 . S
C80 C78 1.397 . S
C80 C81 1.384 . S
C80 H103 0.930 . S
C81 C80 1.384 . S
C81 C82 1.377 . S
C81 C84 1.481 . S
C82 C81 1.377 . S
C82 C83 1.389 . S
C82 H104 0.929 . S
C83 C79 1.397 . S
C83 C82 1.389 . S
C83 H105 0.931 . S
C84 C81 1.481 . S
C84 C85 1.387 . S
C84 C89 1.390 . S
C85 C84 1.387 . S
C85 C86 1.401 . S
C85 H106 0.930 . S
C86 C85 1.401 . S
C86 C87 1.376 . S
C86 C95 1.511 . S
C87 C86 1.376 . S
C87 C88 1.392 . S
C87 H108 0.931 . S
C88 C87 1.392 . S
C88 C89 1.361 . S
C88 C90 1.500 . S
C89 C84 1.390 . S
C89 C88 1.361 . S
C89 H107 0.931 . S
C90 C88 1.500 . S
C90 C91 1.371 . S
C90 C92 1.365 . S
C91 C90 1.371 . S
C91 C101 1.386 . S
C91 H109 0.931 . S
C92 C90 1.365 . S
C92 C93 1.409 . S
C92 H110 0.929 . S
C93 C92 1.409 . S
C93 C94 1.380 . S
C93 H111 0.930 . S
C94 C93 1.380 . S
C94 C101 1.357 . S
C95 C86 1.511 . S
C95 C96 1.341 . S
C95 C97 1.371 . S
C96 C95 1.341 . S
C96 C100 1.394 . S
C96 H112 0.930 . S
C97 C95 1.371 . S
C97 C98 1.392 . S
C97 H113 0.931 . S
C98 C97 1.392 . S
C98 C99 1.331 . S
C98 H116 0.932 . S
C99 C98 1.331 . S
C99 C100 1.336 . S
C100 C96 1.394 . S
C100 C99 1.336 . S
C100 H115 0.929 . S
C101 C91 1.386 . S
C101 C94 1.357 . S
C101 H114 0.928 . S
H102 C78 0.931 . S
H103 C80 0.930 . S
H104 C82 0.929 . S
H105 C83 0.931 . S
H106 C85 0.930 . S
H107 C89 0.931 . S
H108 C87 0.931 . S
H109 C91 0.931 . S
H110 C92 0.929 . S
H111 C93 0.930 . S
H112 C96 0.930 . S
H113 C97 0.931 . S
H114 C101 0.928 . S
H115 C100 0.929 . S
H116 C98 0.932 . S
C117 C118 1.386 . S
C117 C119 1.397 . S
C117 H141 0.931 . S
C118 C117 1.386 . S
C118 C122 1.397 . S
C119 C117 1.397 . S
C119 C120 1.384 . S
C119 H142 0.930 . S
C120 C119 1.384 . S
C120 C121 1.377 . S
C120 C123 1.481 . S
C121 C120 1.377 . S
C121 C122 1.389 . S
C121 H143 0.929 . S
C122 C118 1.397 . S
C122 C121 1.389 . S
C122 H144 0.931 . S
C123 C120 1.481 . S
C123 C124 1.387 . S
C123 C128 1.390 . S
C124 C123 1.387 . S
C124 C125 1.401 . S
C124 H145 0.930 . S
C125 C124 1.401 . S
C125 C126 1.376 . S
C125 C134 1.511 . S
C126 C125 1.376 . S
C126 C127 1.392 . S
C126 H147 0.931 . S
C127 C126 1.392 . S
C127 C128 1.361 . S
C127 C129 1.500 . S
C128 C123 1.390 . S
C128 C127 1.361 . S
C128 H146 0.931 . S
C129 C127 1.500 . S
C129 C130 1.371 . S
C129 C131 1.365 . S
C130 C129 1.371 . S
C130 C140 1.386 . S
C130 H148 0.931 . S
C131 C129 1.365 . S
C131 C132 1.409 . S
C131 H149 0.929 . S
C132 C131 1.409 . S
C132 C133 1.380 . S
C132 H150 0.930 . S
C133 C132 1.380 . S
C133 C140 1.357 . S
C134 C125 1.511 . S
C134 C135 1.341 . S
C134 C136 1.371 . S
C135 C134 1.341 . S
C135 C139 1.394 . S
C135 H151 0.930 . S
C136 C134 1.371 . S
C136 C137 1.392 . S
C136 H152 0.931 . S
C137 C136 1.392 . S
C137 C138 1.331 . S
C137 H155 0.932 . S
C138 C137 1.331 . S
C138 C139 1.336 . S
C139 C135 1.394 . S
C139 C138 1.336 . S
C139 H154 0.929 . S
C140 C130 1.386 . S
C140 C133 1.357 . S
C140 H153 0.928 . S
H141 C117 0.931 . S
H142 C119 0.930 . S
H143 C121 0.929 . S
H144 C122 0.931 . S
H145 C124 0.930 . S
H146 C128 0.931 . S
H147 C126 0.931 . S
H148 C130 0.931 . S
H149 C131 0.929 . S
H150 C132 0.930 . S
H151 C135 0.930 . S
H152 C136 0.931 . S
H153 C140 0.928 . S
H154 C139 0.929 . S
H155 C137 0.932 . S
C156 C157 1.386 . S
C156 C158 1.397 . S
C156 H180 0.931 . S
C157 C156 1.386 . S
C157 C161 1.397 . S
C158 C156 1.397 . S
C158 C159 1.384 . S
C158 H181 0.930 . S
C159 C158 1.384 . S
C159 C160 1.377 . S
C159 C162 1.481 . S
C160 C159 1.377 . S
C160 C161 1.389 . S
C160 H182 0.929 . S
C161 C157 1.397 . S
C161 C160 1.389 . S
C161 H183 0.931 . S
C162 C159 1.481 . S
C162 C163 1.387 . S
C162 C167 1.390 . S
C163 C162 1.387 . S
C163 C164 1.401 . S
C163 H184 0.930 . S
C164 C163 1.401 . S
C164 C165 1.376 . S
C164 C173 1.511 . S
C165 C164 1.376 . S
C165 C166 1.392 . S
C165 H186 0.931 . S
C166 C165 1.392 . S
C166 C167 1.361 . S
C166 C168 1.500 . S
C167 C162 1.390 . S
C167 C166 1.361 . S
C167 H185 0.931 . S
C168 C166 1.500 . S
C168 C169 1.371 . S
C168 C170 1.365 . S
C169 C168 1.371 . S
C169 C179 1.386 . S
C169 H187 0.931 . S
C170 C168 1.365 . S
C170 C171 1.409 . S
C170 H188 0.929 . S
C171 C170 1.409 . S
C171 C172 1.380 . S
C171 H189 0.930 . S
C172 C171 1.380 . S
C172 C179 1.357 . S
C173 C164 1.511 . S
C173 C174 1.341 . S
C173 C175 1.371 . S
C174 C173 1.341 . S
C174 C178 1.394 . S
C174 H190 0.930 . S
C175 C173 1.371 . S
C175 C176 1.392 . S
C175 H191 0.931 . S
C176 C175 1.392 . S
C176 C177 1.331 . S
C176 H194 0.932 . S
C177 C176 1.331 . S
C177 C178 1.336 . S
C178 C174 1.394 . S
C178 C177 1.336 . S
C178 H193 0.929 . S
C179 C169 1.386 . S
C179 C172 1.357 . S
C179 H192 0.928 . S
H180 C156 0.931 . S
H181 C158 0.930 . S
H182 C160 0.929 . S
H183 C161 0.931 . S
H184 C163 0.930 . S
H185 C167 0.931 . S
H186 C165 0.931 . S
H187 C169 0.931 . S
H188 C170 0.929 . S
H189 C171 0.930 . S
H190 C174 0.930 . S
H191 C175 0.931 . S
H192 C179 0.928 . S
H193 C178 0.929 . S
H194 C176 0.932 . S
C195 C196 1.386 . S
C195 C197 1.397 . S
C195 H219 0.931 . S
C196 C195 1.386 . S
C196 C200 1.397 . S
C197 C195 1.397 . S
C197 C198 1.384 . S
C197 H220 0.930 . S
C198 C197 1.384 . S
C198 C199 1.377 . S
C198 C201 1.481 . S
C199 C198 1.377 . S
C199 C200 1.389 . S
C199 H221 0.929 . S
C200 C196 1.397 . S
C200 C199 1.389 . S
C200 H222 0.931 . S
C201 C198 1.481 . S
C201 C202 1.387 . S
C201 C206 1.390 . S
C202 C201 1.387 . S
C202 C203 1.401 . S
C202 H223 0.930 . S
C203 C202 1.401 . S
C203 C204 1.376 . S
C203 C212 1.511 . S
C204 C203 1.376 . S
C204 C205 1.392 . S
C204 H225 0.931 . S
C205 C204 1.392 . S
C205 C206 1.361 . S
C205 C207 1.500 . S
C206 C201 1.390 . S
C206 C205 1.361 . S
C206 H224 0.931 . S
C207 C205 1.500 . S
C207 C208 1.371 . S
C207 C209 1.365 . S
C208 C207 1.371 . S
C208 C218 1.386 . S
C208 H226 0.931 . S
C209 C207 1.365 . S
C209 C210 1.409 . S
C209 H227 0.929 . S
C210 C209 1.409 . S
C210 C211 1.380 . S
C210 H228 0.930 . S
C211 C210 1.380 . S
C211 C218 1.357 . S
C212 C203 1.511 . S
C212 C213 1.341 . S
C212 C214 1.371 . S
C213 C212 1.341 . S
C213 C217 1.394 . S
C213 H229 0.930 . S
C214 C212 1.371 . S
C214 C215 1.392 . S
C214 H230 0.931 . S
C215 C214 1.392 . S
C215 C216 1.331 . S
C215 H233 0.932 . S
C216 C215 1.331 . S
C216 C217 1.336 . S
C217 C213 1.394 . S
C217 C216 1.336 . S
C217 H232 0.929 . S
C218 C208 1.386 . S
C218 C211 1.357 . S
C218 H231 0.928 . S
H219 C195 0.931 . S
H220 C197 0.930 . S
H221 C199 0.929 . S
H222 C200 0.931 . S
H223 C202 0.930 . S
H224 C206 0.931 . S
H225 C204 0.931 . S
H226 C208 0.931 . S
H227 C209 0.929 . S
H228 C210 0.930 . S
H229 C213 0.930 . S
H230 C214 0.931 . S
H231 C218 0.928 . S
H232 C217 0.929 . S
H233 C215 0.932 . S
C234 C235 1.386 . S
C234 C236 1.397 . S
C234 H258 0.931 . S
C235 C234 1.386 . S
C235 C239 1.397 . S
C236 C234 1.397 . S
C236 C237 1.384 . S
C236 H259 0.930 . S
C237 C236 1.384 . S
C237 C238 1.377 . S
C237 C240 1.481 . S
C238 C237 1.377 . S
C238 C239 1.389 . S
C238 H260 0.929 . S
C239 C235 1.397 . S
C239 C238 1.389 . S
C239 H261 0.931 . S
C240 C237 1.481 . S
C240 C241 1.387 . S
C240 C245 1.390 . S
C241 C240 1.387 . S
C241 C242 1.401 . S
C241 H262 0.930 . S
C242 C241 1.401 . S
C242 C243 1.376 . S
C242 C251 1.511 . S
C243 C242 1.376 . S
C243 C244 1.392 . S
C243 H264 0.931 . S
C244 C243 1.392 . S
C244 C245 1.361 . S
C244 C246 1.500 . S
C245 C240 1.390 . S
C245 C244 1.361 . S
C245 H263 0.931 . S
C246 C244 1.500 . S
C246 C247 1.371 . S
C246 C248 1.365 . S
C247 C246 1.371 . S
C247 C257 1.386 . S
C247 H265 0.931 . S
C248 C246 1.365 . S
C248 C249 1.409 . S
C248 H266 0.929 . S
C249 C248 1.409 . S
C249 C250 1.380 . S
C249 H267 0.930 . S
C250 C249 1.380 . S
C250 C257 1.357 . S
C251 C242 1.511 . S
C251 C252 1.341 . S
C251 C253 1.371 . S
C252 C251 1.341 . S
C252 C256 1.394 . S
C252 H268 0.930 . S
C253 C251 1.371 . S
C253 C254 1.392 . S
C253 H269 0.931 . S
C254 C253 1.392 . S
C254 C255 1.331 . S
C254 H272 0.932 . S
C255 C254 1.331 . S
C255 C256 1.336 . S
C256 C252 1.394 . S
C256 C255 1.336 . S
C256 H271 0.929 . S
C257 C247 1.386 . S
C257 C250 1.357 . S
C257 H270 0.928 . S
H258 C234 0.931 . S
H259 C236 0.930 . S
H260 C238 0.929 . S
H261 C239 0.931 . S
H262 C241 0.930 . S
H263 C245 0.931 . S
H264 C243 0.931 . S
H265 C247 0.931 . S
H266 C248 0.929 . S
H267 C249 0.930 . S
H268 C252 0.930 . S
H269 C253 0.931 . S
H270 C257 0.928 . S
H271 C256 0.929 . S
H272 C254 0.932 . S
C273 C274 1.386 . S
C273 C275 1.397 . S
C273 H297 0.931 . S
C274 C273 1.386 . S
C274 C278 1.397 . S
C275 C273 1.397 . S
C275 C276 1.384 . S
C275 H298 0.930 . S
C276 C275 1.384 . S
C276 C277 1.377 . S
C276 C279 1.481 . S
C277 C276 1.377 . S
C277 C278 1.389 . S
C277 H299 0.929 . S
C278 C274 1.397 . S
C278 C277 1.389 . S
C278 H300 0.931 . S
C279 C276 1.481 . S
C279 C280 1.387 . S
C279 C284 1.390 . S
C280 C279 1.387 . S
C280 C281 1.401 . S
C280 H301 0.930 . S
C281 C280 1.401 . S
C281 C282 1.376 . S
C281 C290 1.511 . S
C282 C281 1.376 . S
C282 C283 1.392 . S
C282 H303 0.931 . S
C283 C282 1.392 . S
C283 C284 1.361 . S
C283 C285 1.500 . S
C284 C279 1.390 . S
C284 C283 1.361 . S
C284 H302 0.931 . S
C285 C283 1.500 . S
C285 C286 1.371 . S
C285 C287 1.365 . S
C286 C285 1.371 . S
C286 C296 1.386 . S
C286 H304 0.931 . S
C287 C285 1.365 . S
C287 C288 1.409 . S
C287 H305 0.929 . S
C288 C287 1.409 . S
C288 C289 1.380 . S
C288 H306 0.930 . S
C289 C288 1.380 . S
C289 C296 1.357 . S
C290 C281 1.511 . S
C290 C291 1.341 . S
C290 C292 1.371 . S
C291 C290 1.341 . S
C291 C295 1.394 . S
C291 H307 0.930 . S
C292 C290 1.371 . S
C292 C293 1.392 . S
C292 H308 0.931 . S
C293 C292 1.392 . S
C293 C294 1.331 . S
C293 H311 0.932 . S
C294 C293 1.331 . S
C294 C295 1.336 . S
C295 C291 1.394 . S
C295 C294 1.336 . S
C295 H310 0.929 . S
C296 C286 1.386 . S
C296 C289 1.357 . S
C296 H309 0.928 . S
H297 C273 0.931 . S
H298 C275 0.930 . S
H299 C277 0.929 . S
H300 C278 0.931 . S
H301 C280 0.930 . S
H302 C284 0.931 . S
H303 C282 0.931 . S
H304 C286 0.931 . S
H305 C287 0.929 . S
H306 C288 0.930 . S
H307 C291 0.930 . S
H308 C292 0.931 . S
H309 C296 0.928 . S
H310 C295 0.929 . S
H311 C293 0.932 . S
La312 C314 2.928 . S
La312 O332 2.521 . S
La312 O333 2.628 . S
La312 O334 2.554 1_545 S
La312 O335 2.757 1_545 S
La312 O336 2.470 . S
La312 O341 2.482 1_455 S
La312 O343 2.503 1_445 S
La313 C323 2.928 . S
La313 O335 2.482 1_655 S
La313 O337 2.503 1_665 S
La313 O338 2.521 . S
La313 O339 2.628 . S
La313 O340 2.554 1_565 S
La313 O341 2.757 1_565 S
La313 O342 2.470 . S
C314 La312 2.928 . S
C314 C315 1.503 . S
C314 O332 1.261 . S
C314 O333 1.243 . S
C315 C314 1.503 . S
C315 C316 1.394 . S
C315 C320 1.373 . S
C316 C315 1.394 . S
C316 C317 1.380 . S
C316 H344 0.930 . S
C317 C316 1.380 . S
C317 C318 1.376 . S
C317 H345 0.930 . S
C318 C317 1.376 . S
C318 C319 1.370 . S
C319 C318 1.370 . S
C319 C320 1.396 . S
C319 H346 0.929 . S
C320 C315 1.373 . S
C320 C319 1.396 . S
C320 H347 0.929 . S
C321 O334 1.240 . S
C321 O335 1.289 . S
C322 O336 1.258 . S
C322 O337 1.256 . S
C323 La313 2.928 . S
C323 C324 1.503 . S
C323 O338 1.261 . S
C323 O339 1.243 . S
C324 C323 1.503 . S
C324 C325 1.394 . S
C324 C329 1.373 . S
C325 C324 1.394 . S
C325 C326 1.380 . S
C325 H348 0.930 . S
C326 C325 1.380 . S
C326 C327 1.376 . S
C326 H349 0.930 . S
C327 C326 1.376 . S
C327 C328 1.370 . S
C328 C327 1.370 . S
C328 C329 1.396 . S
C328 H350 0.929 . S
C329 C324 1.373 . S
C329 C328 1.396 . S
C329 H351 0.929 . S
C330 O340 1.240 . S
C330 O341 1.289 . S
C331 O342 1.258 . S
C331 O343 1.256 . S
O332 La312 2.521 . S
O332 C314 1.261 . S
O333 La312 2.628 . S
O333 C314 1.243 . S
O334 La312 2.554 1_565 S
O334 C321 1.240 . S
O335 La312 2.757 1_565 S
O335 La313 2.482 1_455 S
O335 C321 1.289 . S
O336 La312 2.470 . S
O336 C322 1.258 . S
O337 La313 2.503 1_445 S
O337 C322 1.256 . S
O338 La313 2.521 . S
O338 C323 1.261 . S
O339 La313 2.628 . S
O339 C323 1.243 . S
O340 La313 2.554 1_545 S
O340 C330 1.240 . S
O341 La312 2.482 1_655 S
O341 La313 2.757 1_545 S
O341 C330 1.289 . S
O342 La313 2.470 . S
O342 C331 1.258 . S
O343 La312 2.503 1_665 S
O343 C331 1.256 . S
H344 C316 0.930 . S
H345 C317 0.930 . S
H346 C319 0.929 . S
H347 C320 0.929 . S
H348 C325 0.930 . S
H349 C326 0.930 . S
H350 C328 0.929 . S
H351 C329 0.929 . S
La352 C354 2.917 1_565 S
La352 O372 2.520 1_565 S
La352 O373 2.609 1_565 S
La352 O374 2.571 . S
La352 O375 2.766 . S
La352 O376 2.458 1_565 S
La352 O381 2.465 1_564 S
La352 O383 2.516 1_554 S
La353 C363 2.928 1_545 S
La353 O375 2.482 1_546 S
La353 O377 2.503 1_556 S
La353 O378 2.521 1_545 S
La353 O379 2.628 1_545 S
La353 O380 2.554 . S
La353 O381 2.757 . S
La353 O382 2.470 1_545 S
C354 La352 2.917 1_545 S
C354 C355 1.503 . S
C354 O372 1.261 . S
C354 O373 1.243 . S
C355 C354 1.503 . S
C355 C356 1.394 . S
C355 C360 1.373 . S
C356 C355 1.394 . S
C356 C357 1.380 . S
C356 H384 0.930 . S
C357 C356 1.380 . S
C357 C358 1.376 . S
C357 H385 0.930 . S
C358 C357 1.376 . S
C358 C359 1.370 . S
C359 C358 1.370 . S
C359 C360 1.396 . S
C359 H386 0.929 . S
C360 C355 1.373 . S
C360 C359 1.396 . S
C360 H387 0.929 . S
C361 O374 1.240 . S
C361 O375 1.289 . S
C362 O376 1.258 . S
C362 O377 1.256 . S
C363 La353 2.928 1_565 S
C363 C364 1.503 . S
C363 O378 1.261 . S
C363 O379 1.243 . S
C364 C363 1.503 . S
C364 C365 1.394 . S
C364 C369 1.373 . S
C365 C364 1.394 . S
C365 C366 1.380 . S
C365 H388 0.930 . S
C366 C365 1.380 . S
C366 C367 1.376 . S
C366 H389 0.930 . S
C367 C366 1.376 . S
C367 C368 1.370 . S
C368 C367 1.370 . S
C368 C369 1.396 . S
C368 H390 0.929 . S
C369 C364 1.373 . S
C369 C368 1.396 . S
C369 H391 0.929 . S
C370 O380 1.240 . S
C370 O381 1.289 . S
C371 O382 1.258 . S
C371 O383 1.256 . S
O372 La352 2.520 1_545 S
O372 C354 1.261 . S
O373 La352 2.609 1_545 S
O373 C354 1.243 . S
O374 La352 2.571 . S
O374 C361 1.240 . S
O375 La352 2.766 . S
O375 La353 2.482 1_564 S
O375 C361 1.289 . S
O376 La352 2.458 1_545 S
O376 C362 1.258 . S
O377 La353 2.503 1_554 S
O377 C362 1.256 . S
O378 La353 2.521 1_565 S
O378 C363 1.261 . S
O379 La353 2.628 1_565 S
O379 C363 1.243 . S
O380 La353 2.554 . S
O380 C370 1.240 . S
O381 La352 2.465 1_546 S
O381 La353 2.757 . S
O381 C370 1.289 . S
O382 La353 2.470 1_565 S
O382 C371 1.258 . S
O383 La352 2.516 1_556 S
O383 C371 1.256 . S
H384 C356 0.930 . S
H385 C357 0.930 . S
H386 C359 0.929 . S
H387 C360 0.929 . S
H388 C365 0.930 . S
H389 C366 0.930 . S
H390 C368 0.929 . S
H391 C369 0.929 . S
La392 C394 2.928 . S
La392 O412 2.521 . S
La392 O413 2.628 . S
La392 O414 2.554 . S
La392 O415 2.757 . S
La392 O416 2.470 . S
La392 O421 2.482 . S
La392 O423 2.503 . S
La393 C403 2.928 . S
La393 O415 2.482 . S
La393 O417 2.503 . S
La393 O418 2.521 . S
La393 O419 2.628 . S
La393 O420 2.554 . S
La393 O421 2.757 . S
La393 O422 2.470 . S
C394 La392 2.928 . S
C394 C395 1.503 . S
C394 O412 1.261 . S
C394 O413 1.243 . S
C395 C394 1.503 . S
C395 C396 1.394 . S
C395 C400 1.373 . S
C396 C395 1.394 . S
C396 C397 1.380 . S
C396 H424 0.930 . S
C397 C396 1.380 . S
C397 C398 1.376 . S
C397 H425 0.930 . S
C398 C397 1.376 . S
C398 C399 1.370 . S
C399 C398 1.370 . S
C399 C400 1.396 . S
C399 H426 0.929 . S
C400 C395 1.373 . S
C400 C399 1.396 . S
C400 H427 0.929 . S
C401 O414 1.240 . S
C401 O415 1.289 . S
C402 O416 1.258 . S
C402 O417 1.256 . S
C403 La393 2.928 . S
C403 C404 1.503 . S
C403 O418 1.261 . S
C403 O419 1.243 . S
C404 C403 1.503 . S
C404 C405 1.394 . S
C404 C409 1.373 . S
C405 C404 1.394 . S
C405 C406 1.380 . S
C405 H428 0.930 . S
C406 C405 1.380 . S
C406 C407 1.376 . S
C406 H429 0.930 . S
C407 C406 1.376 . S
C407 C408 1.370 . S
C408 C407 1.370 . S
C408 C409 1.396 . S
C408 H430 0.929 . S
C409 C404 1.373 . S
C409 C408 1.396 . S
C409 H431 0.929 . S
C410 O420 1.240 . S
C410 O421 1.289 . S
C411 O422 1.258 . S
C411 O423 1.256 . S
O412 La392 2.521 . S
O412 C394 1.261 . S
O413 La392 2.628 . S
O413 C394 1.243 . S
O414 La392 2.554 . S
O414 C401 1.240 . S
O415 La392 2.757 . S
O415 La393 2.482 . S
O415 C401 1.289 . S
O416 La392 2.470 . S
O416 C402 1.258 . S
O417 La393 2.503 . S
O417 C402 1.256 . S
O418 La393 2.521 . S
O418 C403 1.261 . S
O419 La393 2.628 . S
O419 C403 1.243 . S
O420 La393 2.554 . S
O420 C410 1.240 . S
O421 La392 2.482 . S
O421 La393 2.757 . S
O421 C410 1.289 . S
O422 La393 2.470 . S
O422 C411 1.258 . S
O423 La392 2.503 . S
O423 C411 1.256 . S
H424 C396 0.930 . S
H425 C397 0.930 . S
H426 C399 0.929 . S
H427 C400 0.929 . S
H428 C405 0.930 . S
H429 C406 0.930 . S
H430 C408 0.929 . S
H431 C409 0.929 . S
La432 C434 2.928 . S
La432 O452 2.521 . S
La432 O453 2.628 . S
La432 O454 2.554 1_455 S
La432 O455 2.757 1_455 S
La432 O456 2.470 . S
La432 O461 2.482 1_554 S
La432 O463 2.503 1_454 S
La433 C443 2.928 . S
La433 O455 2.482 1_556 S
La433 O457 2.503 1_656 S
La433 O458 2.521 . S
La433 O459 2.628 . S
La433 O460 2.554 1_655 S
La433 O461 2.757 1_655 S
La433 O462 2.470 . S
C434 La432 2.928 . S
C434 C435 1.503 . S
C434 O452 1.261 . S
C434 O453 1.243 . S
C435 C434 1.503 . S
C435 C436 1.394 . S
C435 C440 1.373 . S
C436 C435 1.394 . S
C436 C437 1.380 . S
C436 H464 0.930 . S
C437 C436 1.380 . S
C437 C438 1.376 . S
C437 H465 0.930 . S
C438 C437 1.376 . S
C438 C439 1.370 . S
C439 C438 1.370 . S
C439 C440 1.396 . S
C439 H466 0.929 . S
C440 C435 1.373 . S
C440 C439 1.396 . S
C440 H467 0.929 . S
C441 O454 1.240 . S
C441 O455 1.289 . S
C442 O456 1.258 . S
C442 O457 1.256 . S
C443 La433 2.928 . S
C443 C444 1.503 . S
C443 O458 1.261 . S
C443 O459 1.243 . S
C444 C443 1.503 . S
C444 C445 1.394 . S
C444 C449 1.373 . S
C445 C444 1.394 . S
C445 C446 1.380 . S
C445 H468 0.930 . S
C446 C445 1.380 . S
C446 C447 1.376 . S
C446 H469 0.930 . S
C447 C446 1.376 . S
C447 C448 1.370 . S
C448 C447 1.370 . S
C448 C449 1.396 . S
C448 H470 0.929 . S
C449 C444 1.373 . S
C449 C448 1.396 . S
C449 H471 0.929 . S
C450 O460 1.240 . S
C450 O461 1.289 . S
C451 O462 1.258 . S
C451 O463 1.256 . S
O452 La432 2.521 . S
O452 C434 1.261 . S
O453 La432 2.628 . S
O453 C434 1.243 . S
O454 La432 2.554 1_655 S
O454 C441 1.240 . S
O455 La432 2.757 1_655 S
O455 La433 2.482 1_554 S
O455 C441 1.289 . S
O456 La432 2.470 . S
O456 C442 1.258 . S
O457 La433 2.503 1_454 S
O457 C442 1.256 . S
O458 La433 2.521 . S
O458 C443 1.261 . S
O459 La433 2.628 . S
O459 C443 1.243 . S
O460 La433 2.554 1_455 S
O460 C450 1.240 . S
O461 La432 2.482 1_556 S
O461 La433 2.757 1_455 S
O461 C450 1.289 . S
O462 La433 2.470 . S
O462 C451 1.258 . S
O463 La432 2.503 1_656 S
O463 C451 1.256 . S
H464 C436 0.930 . S
H465 C437 0.930 . S
H466 C439 0.929 . S
H467 C440 0.929 . S
H468 C445 0.930 . S
H469 C446 0.930 . S
H470 C448 0.929 . S
H471 C449 0.929 . S
H472 C478 0.930 . S
H473 C481 0.930 . S
H474 C482 0.930 . S
H475 C483 0.930 . S
H476 C486 0.930 . S
H477 C487 0.930 . S
C478 H472 0.930 . S
C478 C479 1.355 . S
C478 C480 1.415 . S
C479 C478 1.355 . S
C479 C481 1.419 . S
C480 C478 1.415 . S
C480 C485 1.425 . S
C480 C487 1.409 . S
C481 H473 0.930 . S
C481 C479 1.419 . S
C481 C482 1.362 . S
C482 H474 0.930 . S
C482 C481 1.362 . S
C482 C485 1.409 . S
C483 H475 0.930 . S
C483 C484 1.355 . S
C483 C485 1.415 . S
C484 C483 1.355 . S
C484 C486 1.419 . S
C485 C480 1.425 . S
C485 C482 1.409 . S
C485 C483 1.415 . S
C486 H476 0.930 . S
C486 C484 1.419 . S
C486 C487 1.362 . S
C487 H477 0.930 . S
C487 C480 1.409 . S
C487 C486 1.362 . S
H488 C494 0.930 . S
H489 C497 0.930 . S
H490 C498 0.930 . S
H491 C499 0.930 . S
H492 C502 0.930 . S
H493 C503 0.930 . S
C494 H488 0.930 . S
C494 C495 1.355 . S
C494 C496 1.415 . S
C495 C494 1.355 . S
C495 C497 1.419 . S
C496 C494 1.415 . S
C496 C501 1.425 . S
C496 C503 1.409 . S
C497 H489 0.930 . S
C497 C495 1.419 . S
C497 C498 1.362 . S
C498 H490 0.930 . S
C498 C497 1.362 . S
C498 C501 1.409 . S
C499 H491 0.930 . S
C499 C500 1.355 . S
C499 C501 1.415 . S
C500 C499 1.355 . S
C500 C502 1.419 . S
C501 C496 1.425 . S
C501 C498 1.409 . S
C501 C499 1.415 . S
C502 H492 0.930 . S
C502 C500 1.419 . S
C502 C503 1.362 . S
C503 H493 0.930 . S
C503 C496 1.409 . S
C503 C502 1.362 . S
H504 C510 0.930 . S
H505 C513 0.930 . S
H506 C514 0.930 . S
H507 C515 0.930 . S
H508 C518 0.930 . S
H509 C519 0.930 . S
C510 H504 0.930 . S
C510 C511 1.355 . S
C510 C512 1.415 . S
C511 C510 1.355 . S
C511 C513 1.419 . S
C512 C510 1.415 . S
C512 C517 1.425 . S
C512 C519 1.409 . S
C513 H505 0.930 . S
C513 C511 1.419 . S
C513 C514 1.362 . S
C514 H506 0.930 . S
C514 C513 1.362 . S
C514 C517 1.409 . S
C515 H507 0.930 . S
C515 C516 1.355 . S
C515 C517 1.415 . S
C516 C515 1.355 . S
C516 C518 1.419 . S
C517 C512 1.425 . S
C517 C514 1.409 . S
C517 C515 1.415 . S
C518 H508 0.930 . S
C518 C516 1.419 . S
C518 C519 1.362 . S
C519 H509 0.930 . S
C519 C512 1.409 . S
C519 C518 1.362 . S
H520 C526 0.930 . S
H521 C529 0.930 . S
H522 C530 0.930 . S
H523 C531 0.930 . S
H524 C534 0.930 . S
H525 C535 0.930 . S
C526 H520 0.930 . S
C526 C527 1.355 . S
C526 C528 1.415 . S
C527 C526 1.355 . S
C527 C529 1.419 . S
C528 C526 1.415 . S
C528 C533 1.425 . S
C528 C535 1.409 . S
C529 H521 0.930 . S
C529 C527 1.419 . S
C529 C530 1.362 . S
C530 H522 0.930 . S
C530 C529 1.362 . S
C530 C533 1.409 . S
C531 H523 0.930 . S
C531 C532 1.355 . S
C531 C533 1.415 . S
C532 C531 1.355 . S
C532 C534 1.419 . S
C533 C528 1.425 . S
C533 C530 1.409 . S
C533 C531 1.415 . S
C534 H524 0.930 . S
C534 C532 1.419 . S
C534 C535 1.362 . S
C535 H525 0.930 . S
C535 C528 1.409 . S
C535 C534 1.362 . S
H536 C542 0.930 . S
H537 C545 0.930 . S
H538 C546 0.930 . S
H539 C547 0.930 . S
H540 C550 0.930 . S
H541 C551 0.930 . S
C542 H536 0.930 . S
C542 C543 1.355 . S
C542 C544 1.415 . S
C543 C542 1.355 . S
C543 C545 1.419 . S
C544 C542 1.415 . S
C544 C549 1.425 . S
C544 C551 1.409 . S
C545 H537 0.930 . S
C545 C543 1.419 . S
C545 C546 1.362 . S
C546 H538 0.930 . S
C546 C545 1.362 . S
C546 C549 1.409 . S
C547 H539 0.930 . S
C547 C548 1.355 . S
C547 C549 1.415 . S
C548 C547 1.355 . S
C548 C550 1.419 . S
C549 C544 1.425 . S
C549 C546 1.409 . S
C549 C547 1.415 . S
C550 H540 0.930 . S
C550 C548 1.419 . S
C550 C551 1.362 . S
C551 H541 0.930 . S
C551 C544 1.409 . S
C551 C550 1.362 . S
H552 C558 0.930 . S
H553 C561 0.930 . S
H554 C562 0.930 . S
H555 C563 0.930 . S
H556 C566 0.930 . S
H557 C567 0.930 . S
C558 H552 0.930 . S
C558 C559 1.355 . S
C558 C560 1.415 . S
C559 C558 1.355 . S
C559 C561 1.419 . S
C560 C558 1.415 . S
C560 C565 1.425 . S
C560 C567 1.409 . S
C561 H553 0.930 . S
C561 C559 1.419 . S
C561 C562 1.362 . S
C562 H554 0.930 . S
C562 C561 1.362 . S
C562 C565 1.409 . S
C563 H555 0.930 . S
C563 C564 1.355 . S
C563 C565 1.415 . S
C564 C563 1.355 . S
C564 C566 1.419 . S
C565 C560 1.425 . S
C565 C562 1.409 . S
C565 C563 1.415 . S
C566 H556 0.930 . S
C566 C564 1.419 . S
C566 C567 1.362 . S
C567 H557 0.930 . S
C567 C560 1.409 . S
C567 C566 1.362 . S
H568 C574 0.930 . S
H569 C577 0.930 . S
H570 C578 0.930 . S
H571 C579 0.930 . S
H572 C582 0.930 . S
H573 C583 0.930 . S
C574 H568 0.930 . S
C574 C575 1.355 . S
C574 C576 1.415 . S
C575 C574 1.355 . S
C575 C577 1.419 . S
C576 C574 1.415 . S
C576 C581 1.425 . S
C576 C583 1.409 . S
C577 H569 0.930 . S
C577 C575 1.419 . S
C577 C578 1.362 . S
C578 H570 0.930 . S
C578 C577 1.362 . S
C578 C581 1.409 . S
C579 H571 0.930 . S
C579 C580 1.355 . S
C579 C581 1.415 . S
C580 C579 1.355 . S
C580 C582 1.419 . S
C581 C576 1.425 . S
C581 C578 1.409 . S
C581 C579 1.415 . S
C582 H572 0.930 . S
C582 C580 1.419 . S
C582 C583 1.362 . S
C583 H573 0.930 . S
C583 C576 1.409 . S
C583 C582 1.362 . S
H584 C590 0.930 . S
H585 C593 0.930 . S
H586 C594 0.930 . S
H587 C595 0.930 . S
H588 C598 0.930 . S
H589 C599 0.930 . S
C590 H584 0.930 . S
C590 C591 1.355 . S
C590 C592 1.415 . S
C591 C590 1.355 . S
C591 C593 1.419 . S
C592 C590 1.415 . S
C592 C597 1.425 . S
C592 C599 1.409 . S
C593 H585 0.930 . S
C593 C591 1.419 . S
C593 C594 1.362 . S
C594 H586 0.930 . S
C594 C593 1.362 . S
C594 C597 1.409 . S
C595 H587 0.930 . S
C595 C596 1.355 . S
C595 C597 1.415 . S
C596 C595 1.355 . S
C596 C598 1.419 . S
C597 C592 1.425 . S
C597 C594 1.409 . S
C597 C595 1.415 . S
C598 H588 0.930 . S
C598 C596 1.419 . S
C598 C599 1.362 . S
C599 H589 0.930 . S
C599 C592 1.409 . S
C599 C598 1.362 . S
H600 C606 0.930 . S
H601 C609 0.930 . S
H602 C610 0.930 . S
H603 C611 0.930 . S
H604 C614 0.930 . S
H605 C615 0.930 . S
C606 H600 0.930 . S
C606 C607 1.355 . S
C606 C608 1.415 . S
C607 C606 1.355 . S
C607 C609 1.419 . S
C608 C606 1.415 . S
C608 C613 1.425 . S
C608 C615 1.409 . S
C609 H601 0.930 . S
C609 C607 1.419 . S
C609 C610 1.362 . S
C610 H602 0.930 . S
C610 C609 1.362 . S
C610 C613 1.409 . S
C611 H603 0.930 . S
C611 C612 1.355 . S
C611 C613 1.415 . S
C612 C611 1.355 . S
C612 C614 1.419 . S
C613 C608 1.425 . S
C613 C610 1.409 . S
C613 C611 1.415 . S
C614 H604 0.930 . S
C614 C612 1.419 . S
C614 C615 1.362 . S
C615 H605 0.930 . S
C615 C608 1.409 . S
C615 C614 1.362 . S
H616 C622 0.930 . S
H617 C625 0.930 . S
H618 C626 0.930 . S
H619 C627 0.930 . S
H620 C630 0.930 . S
H621 C631 0.930 . S
C622 H616 0.930 . S
C622 C623 1.355 . S
C622 C624 1.415 . S
C623 C622 1.355 . S
C623 C625 1.419 . S
C624 C622 1.415 . S
C624 C629 1.425 . S
C624 C631 1.409 . S
C625 H617 0.930 . S
C625 C623 1.419 . S
C625 C626 1.362 . S
C626 H618 0.930 . S
C626 C625 1.362 . S
C626 C629 1.409 . S
C627 H619 0.930 . S
C627 C628 1.355 . S
C627 C629 1.415 . S
C628 C627 1.355 . S
C628 C630 1.419 . S
C629 C624 1.425 . S
C629 C626 1.409 . S
C629 C627 1.415 . S
C630 H620 0.930 . S
C630 C628 1.419 . S
C630 C631 1.362 . S
C631 H621 0.930 . S
C631 C624 1.409 . S
C631 C630 1.362 . S
H632 C638 0.930 . S
H633 C641 0.930 . S
H634 C642 0.930 . S
H635 C643 0.930 . S
H636 C646 0.930 . S
H637 C647 0.930 . S
C638 H632 0.930 . S
C638 C639 1.355 . S
C638 C640 1.415 . S
C639 C638 1.355 . S
C639 C641 1.419 . S
C640 C638 1.415 . S
C640 C645 1.425 . S
C640 C647 1.409 . S
C641 H633 0.930 . S
C641 C639 1.419 . S
C641 C642 1.362 . S
C642 H634 0.930 . S
C642 C641 1.362 . S
C642 C645 1.409 . S
C643 H635 0.930 . S
C643 C644 1.355 . S
C643 C645 1.415 . S
C644 C643 1.355 . S
C644 C646 1.419 . S
C645 C640 1.425 . S
C645 C642 1.409 . S
C645 C643 1.415 . S
C646 H636 0.930 . S
C646 C644 1.419 . S
C646 C647 1.362 . S
C647 H637 0.930 . S
C647 C640 1.409 . S
C647 C646 1.362 . S
H648 C654 0.930 . S
H649 C657 0.930 . S
H650 C658 0.930 . S
H651 C659 0.930 . S
H652 C662 0.930 . S
H653 C663 0.930 . S
C654 H648 0.930 . S
C654 C655 1.355 . S
C654 C656 1.415 . S
C655 C654 1.355 . S
C655 C657 1.419 . S
C656 C654 1.415 . S
C656 C661 1.425 . S
C656 C663 1.409 . S
C657 H649 0.930 . S
C657 C655 1.419 . S
C657 C658 1.362 . S
C658 H650 0.930 . S
C658 C657 1.362 . S
C658 C661 1.409 . S
C659 H651 0.930 . S
C659 C660 1.355 . S
C659 C661 1.415 . S
C660 C659 1.355 . S
C660 C662 1.419 . S
C661 C656 1.425 . S
C661 C658 1.409 . S
C661 C659 1.415 . S
C662 H652 0.930 . S
C662 C660 1.419 . S
C662 C663 1.362 . S
C663 H653 0.930 . S
C663 C656 1.409 . S
C663 C662 1.362 . S
H664 C670 0.930 . S
H665 C673 0.930 . S
H666 C674 0.930 . S
H667 C675 0.930 . S
H668 C678 0.930 . S
H669 C679 0.930 . S
C670 H664 0.930 . S
C670 C671 1.355 . S
C670 C672 1.415 . S
C671 C670 1.355 . S
C671 C673 1.419 . S
C672 C670 1.415 . S
C672 C677 1.425 . S
C672 C679 1.409 . S
C673 H665 0.930 . S
C673 C671 1.419 . S
C673 C674 1.362 . S
C674 H666 0.930 . S
C674 C673 1.362 . S
C674 C677 1.409 . S
C675 H667 0.930 . S
C675 C676 1.355 . S
C675 C677 1.415 . S
C676 C675 1.355 . S
C676 C678 1.419 . S
C677 C672 1.425 . S
C677 C674 1.409 . S
C677 C675 1.415 . S
C678 H668 0.930 . S
C678 C676 1.419 . S
C678 C679 1.362 . S
C679 H669 0.930 . S
C679 C672 1.409 . S
C679 C678 1.362 . S
H680 C686 0.930 . S
H681 C689 0.930 . S
H682 C690 0.930 . S
H683 C691 0.930 . S
H684 C694 0.930 . S
H685 C695 0.930 . S
C686 H680 0.930 . S
C686 C687 1.355 . S
C686 C688 1.415 . S
C687 C686 1.355 . S
C687 C689 1.419 . S
C688 C686 1.415 . S
C688 C693 1.425 . S
C688 C695 1.409 . S
C689 H681 0.930 . S
C689 C687 1.419 . S
C689 C690 1.362 . S
C690 H682 0.930 . S
C690 C689 1.362 . S
C690 C693 1.409 . S
C691 H683 0.930 . S
C691 C692 1.355 . S
C691 C693 1.415 . S
C692 C691 1.355 . S
C692 C694 1.419 . S
C693 C688 1.425 . S
C693 C690 1.409 . S
C693 C691 1.415 . S
C694 H684 0.930 . S
C694 C692 1.419 . S
C694 C695 1.362 . S
C695 H685 0.930 . S
C695 C688 1.409 . S
C695 C694 1.362 . S
H696 C702 0.930 . S
H697 C705 0.930 . S
H698 C706 0.930 . S
H699 C707 0.930 . S
H700 C710 0.930 . S
H701 C711 0.930 . S
C702 H696 0.930 . S
C702 C703 1.355 . S
C702 C704 1.415 . S
C703 C702 1.355 . S
C703 C705 1.419 . S
C704 C702 1.415 . S
C704 C709 1.425 . S
C704 C711 1.409 . S
C705 H697 0.930 . S
C705 C703 1.419 . S
C705 C706 1.362 . S
C706 H698 0.930 . S
C706 C705 1.362 . S
C706 C709 1.409 . S
C707 H699 0.930 . S
C707 C708 1.355 . S
C707 C709 1.415 . S
C708 C707 1.355 . S
C708 C710 1.419 . S
C709 C704 1.425 . S
C709 C706 1.409 . S
C709 C707 1.415 . S
C710 H700 0.930 . S
C710 C708 1.419 . S
C710 C711 1.362 . S
C711 H701 0.930 . S
C711 C704 1.409 . S
C711 C710 1.362 . S
H712 C718 0.930 . S
H713 C721 0.930 . S
H714 C722 0.930 . S
H715 C723 0.930 . S
H716 C726 0.930 . S
H717 C727 0.930 . S
C718 H712 0.930 . S
C718 C719 1.355 . S
C718 C720 1.415 . S
C719 C718 1.355 . S
C719 C721 1.419 . S
C720 C718 1.415 . S
C720 C725 1.425 . S
C720 C727 1.409 . S
C721 H713 0.930 . S
C721 C719 1.419 . S
C721 C722 1.362 . S
C722 H714 0.930 . S
C722 C721 1.362 . S
C722 C725 1.409 . S
C723 H715 0.930 . S
C723 C724 1.355 . S
C723 C725 1.415 . S
C724 C723 1.355 . S
C724 C726 1.419 . S
C725 C720 1.425 . S
C725 C722 1.409 . S
C725 C723 1.415 . S
C726 H716 0.930 . S
C726 C724 1.419 . S
C726 C727 1.362 . S
C727 H717 0.930 . S
C727 C720 1.409 . S
C727 C726 1.362 . S
H728 C734 0.930 . S
H729 C737 0.930 . S
H730 C738 0.930 . S
H731 C739 0.930 . S
H732 C742 0.930 . S
H733 C743 0.930 . S
C734 H728 0.930 . S
C734 C735 1.355 . S
C734 C736 1.415 . S
C735 C734 1.355 . S
C735 C737 1.419 . S
C736 C734 1.415 . S
C736 C741 1.425 . S
C736 C743 1.409 . S
C737 H729 0.930 . S
C737 C735 1.419 . S
C737 C738 1.362 . S
C738 H730 0.930 . S
C738 C737 1.362 . S
C738 C741 1.409 . S
C739 H731 0.930 . S
C739 C740 1.355 . S
C739 C741 1.415 . S
C740 C739 1.355 . S
C740 C742 1.419 . S
C741 C736 1.425 . S
C741 C738 1.409 . S
C741 C739 1.415 . S
C742 H732 0.930 . S
C742 C740 1.419 . S
C742 C743 1.362 . S
C743 H733 0.930 . S
C743 C736 1.409 . S
C743 C742 1.362 . S
H744 C750 0.930 . S
H745 C753 0.930 . S
H746 C754 0.930 . S
H747 C755 0.930 . S
H748 C758 0.930 1_565 S
H749 C759 0.930 . S
C750 H744 0.930 . S
C750 C751 1.355 . S
C750 C752 1.415 . S
C751 C750 1.355 . S
C751 C753 1.419 . S
C752 C750 1.415 . S
C752 C757 1.425 . S
C752 C759 1.409 . S
C753 H745 0.930 . S
C753 C751 1.419 . S
C753 C754 1.362 . S
C754 H746 0.930 . S
C754 C753 1.362 . S
C754 C757 1.409 . S
C755 H747 0.930 . S
C755 C756 1.355 . S
C755 C757 1.415 . S
C756 C755 1.355 . S
C756 C758 1.419 . S
C757 C752 1.425 . S
C757 C754 1.409 . S
C757 C755 1.415 . S
C758 H748 0.930 1_545 S
C758 C756 1.419 . S
C758 C759 1.362 . S
C759 H749 0.930 . S
C759 C752 1.409 . S
C759 C758 1.362 . S
H760 C766 0.930 . S
H761 C769 0.930 . S
H762 C770 0.930 . S
H763 C771 0.930 . S
H764 C774 0.930 . S
H765 C775 0.930 . S
C766 H760 0.930 . S
C766 C767 1.355 . S
C766 C768 1.415 . S
C767 C766 1.355 . S
C767 C769 1.419 . S
C768 C766 1.415 . S
C768 C773 1.425 . S
C768 C775 1.409 . S
C769 H761 0.930 . S
C769 C767 1.419 . S
C769 C770 1.362 . S
C770 H762 0.930 . S
C770 C769 1.362 . S
C770 C773 1.409 . S
C771 H763 0.930 . S
C771 C772 1.355 . S
C771 C773 1.415 . S
C772 C771 1.355 . S
C772 C774 1.419 . S
C773 C768 1.425 . S
C773 C770 1.409 . S
C773 C771 1.415 . S
C774 H764 0.930 . S
C774 C772 1.419 . S
C774 C775 1.362 . S
C775 H765 0.930 . S
C775 C768 1.409 . S
C775 C774 1.362 . S
H776 C782 0.930 . S
H777 C785 0.930 . S
H778 C786 0.930 . S
H779 C787 0.930 . S
H780 C790 0.930 . S
H781 C791 0.930 . S
C782 H776 0.930 . S
C782 C783 1.355 . S
C782 C784 1.415 . S
C783 C782 1.355 . S
C783 C785 1.419 . S
C784 C782 1.415 . S
C784 C789 1.425 . S
C784 C791 1.409 . S
C785 H777 0.930 . S
C785 C783 1.419 . S
C785 C786 1.362 . S
C786 H778 0.930 . S
C786 C785 1.362 . S
C786 C789 1.409 . S
C787 H779 0.930 . S
C787 C788 1.355 . S
C787 C789 1.415 . S
C788 C787 1.355 . S
C788 C790 1.419 . S
C789 C784 1.425 . S
C789 C786 1.409 . S
C789 C787 1.415 . S
C790 H780 0.930 . S
C790 C788 1.419 . S
C790 C791 1.362 . S
C791 H781 0.930 . S
C791 C784 1.409 . S
C791 C790 1.362 . S
H792 C798 0.930 . S
H793 C801 0.930 . S
H794 C802 0.930 . S
H795 C803 0.930 . S
H796 C806 0.930 . S
H797 C807 0.930 . S
C798 H792 0.930 . S
C798 C799 1.355 . S
C798 C800 1.415 . S
C799 C798 1.355 . S
C799 C801 1.419 . S
C800 C798 1.415 . S
C800 C805 1.425 . S
C800 C807 1.409 . S
C801 H793 0.930 . S
C801 C799 1.419 . S
C801 C802 1.362 . S
C802 H794 0.930 . S
C802 C801 1.362 . S
C802 C805 1.409 . S
C803 H795 0.930 . S
C803 C804 1.355 . S
C803 C805 1.415 . S
C804 C803 1.355 . S
C804 C806 1.419 . S
C805 C800 1.425 . S
C805 C802 1.409 . S
C805 C803 1.415 . S
C806 H796 0.930 . S
C806 C804 1.419 . S
C806 C807 1.362 . S
C807 H797 0.930 . S
C807 C800 1.409 . S
C807 C806 1.362 . S
H808 C814 0.930 . S
H809 C817 0.930 . S
H810 C818 0.930 . S
H811 C819 0.930 . S
H812 C822 0.930 . S
H813 C823 0.930 . S
C814 H808 0.930 . S
C814 C815 1.355 . S
C814 C816 1.415 . S
C815 C814 1.355 . S
C815 C817 1.419 . S
C816 C814 1.415 . S
C816 C821 1.425 . S
C816 C823 1.409 . S
C817 H809 0.930 . S
C817 C815 1.419 . S
C817 C818 1.362 . S
C818 H810 0.930 . S
C818 C817 1.362 . S
C818 C821 1.409 . S
C819 H811 0.930 . S
C819 C820 1.355 . S
C819 C821 1.415 . S
C820 C819 1.355 . S
C820 C822 1.419 . S
C821 C816 1.425 . S
C821 C818 1.409 . S
C821 C819 1.415 . S
C822 H812 0.930 . S
C822 C820 1.419 . S
C822 C823 1.362 . S
C823 H813 0.930 . S
C823 C816 1.409 . S
C823 C822 1.362 . S
H824 C830 0.930 . S
H825 C833 0.930 . S
H826 C834 0.930 . S
H827 C835 0.930 . S
H828 C838 0.930 . S
H829 C839 0.930 . S
C830 H824 0.930 . S
C830 C831 1.355 . S
C830 C832 1.415 . S
C831 C830 1.355 . S
C831 C833 1.419 . S
C832 C830 1.415 . S
C832 C837 1.425 . S
C832 C839 1.409 . S
C833 H825 0.930 . S
C833 C831 1.419 . S
C833 C834 1.362 . S
C834 H826 0.930 . S
C834 C833 1.362 . S
C834 C837 1.409 . S
C835 H827 0.930 . S
C835 C836 1.355 . S
C835 C837 1.415 . S
C836 C835 1.355 . S
C836 C838 1.419 . S
C837 C832 1.425 . S
C837 C834 1.409 . S
C837 C835 1.415 . S
C838 H828 0.930 . S
C838 C836 1.419 . S
C838 C839 1.362 . S
C839 H829 0.930 . S
C839 C832 1.409 . S
C839 C838 1.362 . S
H840 C846 0.930 . S
H841 C849 0.930 . S
H842 C850 0.930 . S
H843 C851 0.930 . S
H844 C854 0.930 . S
H845 C855 0.930 . S
C846 H840 0.930 . S
C846 C847 1.355 . S
C846 C848 1.415 . S
C847 C846 1.355 . S
C847 C849 1.419 . S
C848 C846 1.415 . S
C848 C853 1.425 . S
C848 C855 1.409 . S
C849 H841 0.930 . S
C849 C847 1.419 . S
C849 C850 1.362 . S
C850 H842 0.930 . S
C850 C849 1.362 . S
C850 C853 1.409 . S
C851 H843 0.930 . S
C851 C852 1.355 . S
C851 C853 1.415 . S
C852 C851 1.355 . S
C852 C854 1.419 . S
C853 C848 1.425 . S
C853 C850 1.409 . S
C853 C851 1.415 . S
C854 H844 0.930 . S
C854 C852 1.419 . S
C854 C855 1.362 . S
C855 H845 0.930 . S
C855 C848 1.409 . S
C855 C854 1.362 . S
C479 C1 1.268 . S
C484 C318 1.334 . S
C495 C40 0.964 . S
C500 C367 0.960 . S
C516 C402 2.468 . S
C511 C99 2.545 . S
C527 C118 2.434 . S
C532 C441 2.371 . S
C548 C362 2.506 . S
C543 C16 2.319 . S
C564 C321 0.795 . S
C559 C60 0.805 . S
C580 C451 1.928 . S
C575 C79 1.973 . S
C596 C410 1.640 . S
C591 C138 1.659 . S
C607 C21 1.679 . S
C612 C438 1.748 . S
C628 C370 2.313 . S
C623 C94 2.431 . S
C639 C133 2.342 . S
C644 C331 2.330 . S
C655 C55 0.870 . S
C660 C407 0.898 . S
C676 C327 1.287 . S
C671 C157 1.237 . S
C687 C196 0.950 . S
C692 C358 0.944 . S
C703 C255 2.545 . S
C708 C411 2.486 . S
C719 C289 2.428 . S
C724 C450 2.354 . S
C735 C172 2.335 . S
C740 C371 2.505 . S
C756 C330 0.865 . S
C751 C216 0.882 . S
C772 C442 1.912 . S
C767 C235 1.968 . S
C788 C401 1.612 . S
C783 C294 1.665 . S
C799 C177 1.631 . S
C804 C447 1.727 . S
C820 C361 2.348 . S
C815 C250 2.441 . S
C836 C322 2.336 . S
C831 C274 2.344 . S
C847 C211 0.925 . S
C852 C398 0.913 . S
