# Generated by pormake.
# Topology pto, (3,4)-cn, num edge types: 1
# Building blocks:
#     Node 0, Type 0, BuildingBlock: CUQRIR_clean_linker_1, # of connection points: 3
#     Node 1, Type 0, BuildingBlock: CUQRIR_clean_linker_1, # of connection points: 3
#     Node 2, Type 0, BuildingBlock: CUQRIR_clean_linker_1, # of connection points: 3
#     Node 3, Type 0, BuildingBlock: CUQRIR_clean_linker_1, # of connection points: 3
#     Node 4, Type 0, BuildingBlock: CUQRIR_clean_linker_1, # of connection points: 3
#     Node 5, Type 0, BuildingBlock: CUQRIR_clean_linker_1, # of connection points: 3
#     Node 6, Type 0, BuildingBlock: CUQRIR_clean_linker_1, # of connection points: 3
#     Node 7, Type 0, BuildingBlock: CUQRIR_clean_linker_1, # of connection points: 3
#     Node 8, Type 1, BuildingBlock: KOZSID_clean_sbu_0, # of connection points: 4
#     Node 9, Type 1, BuildingBlock: KOZSID_clean_sbu_0, # of connection points: 4
#     Node 10, Type 1, BuildingBlock: KOZSID_clean_sbu_0, # of connection points: 4
#     Node 11, Type 1, BuildingBlock: KOZSID_clean_sbu_0, # of connection points: 4
#     Node 12, Type 1, BuildingBlock: KOZSID_clean_sbu_0, # of connection points: 4
#     Node 13, Type 1, BuildingBlock: KOZSID_clean_sbu_0, # of connection points: 4
#     Edge 14, Type (0, 1), BuildingBlock: KIFKEQ_clean_linker_1, # of connection points: 2
#     Edge 15, Type (0, 1), BuildingBlock: KIFKEQ_clean_linker_1, # of connection points: 2
#     Edge 16, Type (0, 1), BuildingBlock: KIFKEQ_clean_linker_1, # of connection points: 2
#     Edge 17, Type (0, 1), BuildingBlock: KIFKEQ_clean_linker_1, # of connection points: 2
#     Edge 18, Type (0, 1), BuildingBlock: KIFKEQ_clean_linker_1, # of connection points: 2
#     Edge 19, Type (0, 1), BuildingBlock: KIFKEQ_clean_linker_1, # of connection points: 2
#     Edge 20, Type (0, 1), BuildingBlock: KIFKEQ_clean_linker_1, # of connection points: 2
#     Edge 21, Type (0, 1), BuildingBlock: KIFKEQ_clean_linker_1, # of connection points: 2
#     Edge 22, Type (0, 1), BuildingBlock: KIFKEQ_clean_linker_1, # of connection points: 2
#     Edge 23, Type (0, 1), BuildingBlock: KIFKEQ_clean_linker_1, # of connection points: 2
#     Edge 24, Type (0, 1), BuildingBlock: KIFKEQ_clean_linker_1, # of connection points: 2
#     Edge 25, Type (0, 1), BuildingBlock: KIFKEQ_clean_linker_1, # of connection points: 2
#     Edge 26, Type (0, 1), BuildingBlock: KIFKEQ_clean_linker_1, # of connection points: 2
#     Edge 27, Type (0, 1), BuildingBlock: KIFKEQ_clean_linker_1, # of connection points: 2
#     Edge 28, Type (0, 1), BuildingBlock: KIFKEQ_clean_linker_1, # of connection points: 2
#     Edge 29, Type (0, 1), BuildingBlock: KIFKEQ_clean_linker_1, # of connection points: 2
#     Edge 30, Type (0, 1), BuildingBlock: KIFKEQ_clean_linker_1, # of connection points: 2
#     Edge 31, Type (0, 1), BuildingBlock: KIFKEQ_clean_linker_1, # of connection points: 2
#     Edge 32, Type (0, 1), BuildingBlock: KIFKEQ_clean_linker_1, # of connection points: 2
#     Edge 33, Type (0, 1), BuildingBlock: KIFKEQ_clean_linker_1, # of connection points: 2
#     Edge 34, Type (0, 1), BuildingBlock: KIFKEQ_clean_linker_1, # of connection points: 2
#     Edge 35, Type (0, 1), BuildingBlock: KIFKEQ_clean_linker_1, # of connection points: 2
#     Edge 36, Type (0, 1), BuildingBlock: KIFKEQ_clean_linker_1, # of connection points: 2
#     Edge 37, Type (0, 1), BuildingBlock: KIFKEQ_clean_linker_1, # of connection points: 2
# Relax obj value: 0.020
# Max RMSD: 0.180
# Mean RMSD: 0.078
data_MOF--net-pto--node1-KOZSID_clean_sbu_0--node2-CUQRIR_clean_linker_1--edge1-KIFKEQ_clean_linker_1
_symmetry_space_group_name_H-M    P1
_symmetry_Int_Tables_number       1
_symmetry_cell_setting            triclinic
loop_
_symmetry_equiv_pos_as_xyz
'x, y, z'
_cell_length_a     36.940374
_cell_length_b     47.795906
_cell_length_c     42.070285
_cell_angle_alpha  77.695553
_cell_angle_beta   92.572654
_cell_angle_gamma 98.913761
loop_
_atom_site_label
_atom_site_type_symbol
_atom_site_fract_x
_atom_site_fract_y
_atom_site_fract_z
_atom_type_partial_charge
C0 C 0.30123 0.27401 0.2964 0.0
N1 N 0.32015 0.25601 0.28522 0.0
N2 N 0.30293 0.29978 0.27515 0.0
C3 C 0.28373 0.26743 0.32934 0.0
C4 C 0.32392 0.29699 0.25076 0.0
N5 N 0.33478 0.27049 0.25703 0.0
C6 C 0.33117 0.31921 0.21963 0.0
H7 H 0.25524 0.25638 0.32748 0.0
H8 H 0.28282 0.2876 0.33815 0.0
H9 H 0.29896 0.25295 0.3474 0.0
H10 H 0.35755 0.33329 0.22212 0.0
H11 H 0.3092 0.33302 0.21436 0.0
H12 H 0.33321 0.30867 0.19883 0.0
C13 C 0.29313 0.75242 0.71792 0.0
N14 N 0.31776 0.76951 0.73299 0.0
N15 N 0.28077 0.72732 0.73872 0.0
C16 C 0.27888 0.76127 0.68372 0.0
C17 C 0.29848 0.72987 0.76708 0.0
N18 N 0.32068 0.75569 0.76373 0.0
C19 C 0.29605 0.70628 0.79731 0.0
H20 H 0.27857 0.78497 0.67711 0.0
H21 H 0.25078 0.7499 0.68076 0.0
H22 H 0.29722 0.75559 0.66666 0.0
H23 H 0.2875 0.68468 0.79134 0.0
H24 H 0.27545 0.71002 0.81374 0.0
H25 H 0.3228 0.70642 0.81042 0.0
C26 C 0.9011 0.79171 0.33486 0.0
N27 N 0.88672 0.77415 0.31459 0.0
N28 N 0.87905 0.8116 0.33604 0.0
C29 C 0.93668 0.78954 0.3534 0.0
C30 C 0.85059 0.80539 0.31601 0.0
N31 N 0.85501 0.78241 0.30325 0.0
C32 C 0.81873 0.82203 0.30847 0.0
H33 H 0.93746 0.79922 0.37518 0.0
H34 H 0.95952 0.80147 0.33736 0.0
H35 H 0.94106 0.7666 0.36099 0.0
H36 H 0.81168 0.82519 0.28215 0.0
H37 H 0.82444 0.84338 0.31545 0.0
H38 H 0.79454 0.80934 0.32222 0.0
C39 C 0.77208 0.22469 0.75567 0.0
N40 N 0.79799 0.23668 0.73285 0.0
N41 N 0.76791 0.24344 0.77481 0.0
C42 C 0.75301 0.1939 0.76103 0.0
C43 C 0.79229 0.2672 0.76294 0.0
N44 N 0.81085 0.26298 0.73776 0.0
C45 C 0.79626 0.2953 0.77445 0.0
H46 H 0.72795 0.19299 0.74551 0.0
H47 H 0.74483 0.18574 0.7868 0.0
H48 H 0.77097 0.17954 0.75432 0.0
H49 H 0.81806 0.29526 0.79347 0.0
H50 H 0.77034 0.29801 0.78498 0.0
H51 H 0.80429 0.31406 0.75422 0.0
C52 C 0.80495 0.74044 0.7734 0.0
N53 N 0.8243 0.75117 0.74567 0.0
N54 N 0.79664 0.7622 0.78645 0.0
C55 C 0.79657 0.70882 0.78912 0.0
C56 C 0.81176 0.78653 0.76583 0.0
N57 N 0.829 0.77987 0.74131 0.0
C58 C 0.80754 0.81681 0.7684 0.0
H59 H 0.77111 0.6992 0.77805 0.0
H60 H 0.79241 0.70576 0.81566 0.0
H61 H 0.81908 0.69711 0.78506 0.0
H62 H 0.83179 0.82595 0.78144 0.0
H63 H 0.78259 0.81691 0.78206 0.0
H64 H 0.80603 0.831 0.74394 0.0
C65 C 0.81452 0.25649 0.28735 0.0
N66 N 0.84402 0.26775 0.30329 0.0
N67 N 0.8089 0.2746 0.25877 0.0
C68 C 0.79289 0.22681 0.29848 0.0
C69 C 0.83627 0.29716 0.25765 0.0
N70 N 0.85797 0.29286 0.2846 0.0
C71 C 0.84001 0.3243 0.23146 0.0
H72 H 0.81082 0.21138 0.31156 0.0
H73 H 0.77943 0.21831 0.27766 0.0
H74 H 0.77142 0.22818 0.31546 0.0
H75 H 0.81343 0.3273 0.21885 0.0
H76 H 0.86 0.32262 0.21329 0.0
H77 H 0.85029 0.34359 0.24181 0.0
C78 C 0.26508 0.28093 0.72646 0.0
N79 N 0.28139 0.25797 0.72419 0.0
N80 N 0.23983 0.28582 0.7024 0.0
C81 C 0.27181 0.29718 0.75367 0.0
C82 C 0.24106 0.26474 0.68559 0.0
N83 N 0.26623 0.24761 0.69901 0.0
C84 C 0.21991 0.26241 0.65464 0.0
H85 H 0.27972 0.28288 0.77648 0.0
H86 H 0.24707 0.30622 0.75818 0.0
H87 H 0.29456 0.31533 0.74686 0.0
H88 H 0.23585 0.25392 0.63804 0.0
H89 H 0.2129 0.28377 0.64197 0.0
H90 H 0.19406 0.24724 0.66063 0.0
C91 C 0.3434 0.77962 0.32885 0.0
N92 N 0.3494 0.76615 0.30475 0.0
N93 N 0.36626 0.80508 0.32614 0.0
C94 C 0.31424 0.76852 0.3542 0.0
C95 C 0.38622 0.80667 0.29939 0.0
N96 N 0.3757 0.7831 0.28621 0.0
C97 C 0.41617 0.83118 0.28668 0.0
H98 H 0.28745 0.77348 0.34329 0.0
H99 H 0.32006 0.77877 0.37554 0.0
H100 H 0.31194 0.74472 0.36257 0.0
H101 H 0.44074 0.82889 0.30262 0.0
H102 H 0.40743 0.8522 0.28752 0.0
H103 H 0.42414 0.83143 0.26158 0.0
C104 C 0.15443 0.57529 0.32089 0.0
C105 C 0.17052 0.58098 0.34979 0.0
C106 C 0.15174 0.56183 0.37444 0.0
C107 C 0.1253 0.54564 0.35934 0.0
N108 N 0.12598 0.55327 0.32646 0.0
Co109 Co 0.09221 0.53539 0.2951 0.0
N110 N 0.06495 0.50696 0.33152 0.0
C111 C 0.07026 0.50563 0.3638 0.0
C112 C 0.04845 0.48308 0.38292 0.0
C113 C 0.02835 0.46884 0.36163 0.0
C114 C 0.03907 0.48365 0.33061 0.0
N115 N 0.05897 0.51699 0.26378 0.0
C116 C 0.03415 0.49245 0.26934 0.0
C117 C 0.01818 0.48634 0.24062 0.0
C118 C 0.0341 0.50738 0.21594 0.0
C119 C 0.05871 0.52509 0.23094 0.0
N120 N 0.11915 0.564 0.25865 0.0
C121 C 0.11178 0.56678 0.22641 0.0
C122 C 0.13472 0.58847 0.20722 0.0
C123 C 0.15806 0.60042 0.22842 0.0
C124 C 0.14789 0.58531 0.25948 0.0
N125 N 0.1265 0.50755 0.29388 0.0
C126 C 0.17105 0.46509 0.29196 0.0
C127 C 0.15871 0.48182 0.26332 0.0
C128 C 0.13671 0.50275 0.26482 0.0
C129 C 0.16148 0.47056 0.3216 0.0
C130 C 0.13951 0.49181 0.322 0.0
N131 N 0.05768 0.56345 0.29622 0.0
C132 C 0.01969 0.59826 0.26801 0.0
C133 C 0.01304 0.60642 0.29693 0.0
C134 C 0.02822 0.592 0.32565 0.0
C135 C 0.05013 0.57078 0.32476 0.0
C136 C 0.04173 0.57694 0.26823 0.0
H137 H 0.06104 0.56098 0.34748 0.0
H138 H 0.04567 0.57205 0.2453 0.0
H139 H 0.12774 0.51444 0.24215 0.0
H140 H 0.13299 0.49491 0.34532 0.0
C141 C 0.09883 0.52372 0.37537 0.0
C142 C 0.16645 0.59204 0.2889 0.0
C143 C 0.02575 0.47374 0.30115 0.0
C144 C 0.08368 0.54823 0.21485 0.0
H145 H 0.19321 0.5975 0.35281 0.0
H146 H 0.15651 0.56013 0.40031 0.0
H147 H 0.04842 0.47692 0.40922 0.0
H148 H 0.00895 0.4492 0.36826 0.0
H149 H 0.99774 0.46816 0.23779 0.0
H150 H 0.02918 0.50903 0.19009 0.0
H151 H 0.13461 0.59475 0.18093 0.0
H152 H 0.18013 0.61823 0.22177 0.0
H153 H 0.16509 0.47826 0.23974 0.0
H154 H 0.17088 0.45849 0.34446 0.0
H155 H 0.00795 0.60828 0.24515 0.0
H156 H 0.02412 0.59757 0.34874 0.0
C157 C 0.06685 0.54966 0.72576 0.0
C158 C 0.07749 0.55221 0.75723 0.0
C159 C 0.05341 0.53283 0.77762 0.0
C160 C 0.0296 0.51955 0.75758 0.0
N161 N 0.03724 0.52903 0.72557 0.0
Co162 Co 0.00892 0.51624 0.68811 0.0
N163 N 0.97503 0.48645 0.71824 0.0
C164 C 0.97506 0.48129 0.75113 0.0
C165 C 0.95062 0.4577 0.76506 0.0
C166 C 0.93487 0.44656 0.73958 0.0
C167 C 0.95071 0.46412 0.71156 0.0
N168 N 0.97988 0.50374 0.6508 0.0
C169 C 0.95463 0.47993 0.65073 0.0
C170 C 0.94246 0.47804 0.61951 0.0
C171 C 0.9614 0.50123 0.599 0.0
C172 C 0.98396 0.51586 0.61883 0.0
N173 N 0.04373 0.54509 0.65788 0.0
C174 C 0.04267 0.55051 0.62496 0.0
C175 C 0.07029 0.57142 0.61082 0.0
C176 C 0.09014 0.5799 0.63619 0.0
C177 C 0.07338 0.56363 0.66448 0.0
N178 N 0.04093 0.48653 0.6883 0.0
C179 C 0.08421 0.44286 0.68856 0.0
C180 C 0.07271 0.45923 0.65932 0.0
C181 C 0.05145 0.48092 0.65973 0.0
C182 C 0.07385 0.44886 0.71766 0.0
C183 C 0.05227 0.47054 0.71699 0.0
N184 N 0.97684 0.54641 0.68795 0.0
C185 C 0.95475 0.59098 0.66136 0.0
C186 C 0.93868 0.59303 0.69003 0.0
C187 C 0.94081 0.57075 0.71726 0.0
C188 C 0.95975 0.54792 0.7157 0.0
C189 C 0.97314 0.56758 0.66077 0.0
H190 H 0.96066 0.53212 0.73755 0.0
H191 H 0.98451 0.56745 0.63807 0.0
H192 H 0.04368 0.49284 0.63666 0.0
H193 H 0.04478 0.47386 0.73995 0.0
C194 C 1.00075 0.49733 0.76816 0.0
C195 C 0.08546 0.56763 0.69693 0.0
C196 C 0.94403 0.45751 0.67939 0.0
C197 C 0.01398 0.53696 0.60813 0.0
H198 H 0.10026 0.56666 0.76469 0.0
H199 H 0.05338 0.5288 0.80393 0.0
H200 H 0.94616 0.44882 0.79072 0.0
H201 H 0.91509 0.42706 0.74141 0.0
H202 H 0.92326 0.46093 0.61228 0.0
H203 H 0.96081 0.50563 0.57267 0.0
H204 H 0.07494 0.57994 0.58512 0.0
H205 H 0.11382 0.59662 0.63409 0.0
H206 H 0.08047 0.4556 0.63617 0.0
H207 H 0.08184 0.43656 0.74092 0.0
H208 H 0.95314 0.60736 0.63936 0.0
H209 H 0.92884 0.57128 0.74012 0.0
C210 C 0.38073 0.98638 0.58218 0.0
C211 C 0.41454 0.98356 0.5973 0.0
C212 C 0.4392 0.00536 0.58062 0.0
C213 C 0.41917 0.02014 0.55634 0.0
N214 N 0.38311 0.00929 0.55659 0.0
Co215 Co 0.34436 0.02389 0.52511 0.0
N216 N 0.38144 0.05381 0.49832 0.0
C217 C 0.41799 0.05844 0.504 0.0
C218 C 0.43652 0.0806 0.4818 0.0
C219 C 0.41031 0.09076 0.46052 0.0
C220 C 0.37711 0.074 0.4709 0.0
N221 N 0.30545 0.03885 0.49406 0.0
C222 C 0.30822 0.06034 0.46698 0.0
C223 C 0.27426 0.06315 0.45207 0.0
C224 C 0.2491 0.04324 0.47069 0.0
C225 C 0.26897 0.02924 0.49568 0.0
N226 N 0.30743 0.99342 0.55135 0.0
C227 C 0.27083 0.98869 0.54587 0.0
C228 C 0.25271 0.96568 0.56735 0.0
C229 C 0.27937 0.95471 0.58751 0.0
C230 C 0.31234 0.97172 0.57704 0.0
N231 N 0.33693 0.05193 0.55235 0.0
C232 C 0.3251 0.09347 0.5882 0.0
C233 C 0.29606 0.07398 0.57955 0.0
C234 C 0.3025 0.05371 0.56183 0.0
C235 C 0.36042 0.09126 0.5793 0.0
C236 C 0.36567 0.07049 0.5616 0.0
N237 N 0.35159 0.996 0.49789 0.0
C238 C 0.32608 0.96209 0.46465 0.0
C239 C 0.36088 0.9565 0.45884 0.0
C240 C 0.39107 0.97081 0.47317 0.0
C241 C 0.38586 0.99052 0.4923 0.0
C242 C 0.32209 0.98155 0.48419 0.0
H243 H 0.40989 1.00113 0.50228 0.0
H244 H 0.29476 0.98445 0.48791 0.0
H245 H 0.27897 0.03989 0.55595 0.0
H246 H 0.39318 0.07013 0.55539 0.0
C247 C 0.43391 0.04253 0.53126 0.0
C248 C 0.34761 0.9659 0.59187 0.0
C249 C 0.34218 0.07868 0.45444 0.0
C250 C 0.25439 0.00594 0.51994 0.0
H251 H 0.42095 0.96704 0.61777 0.0
H252 H 0.46846 0.00934 0.58498 0.0
H253 H 0.46556 0.08874 0.48146 0.0
H254 H 0.41519 0.10878 0.43999 0.0
H255 H 0.26822 0.07795 0.42987 0.0
H256 H 0.21986 0.03913 0.46626 0.0
H257 H 0.22366 0.95758 0.56798 0.0
H258 H 0.27512 0.93606 0.60745 0.0
H259 H 0.26824 0.07423 0.58647 0.0
H260 H 0.38391 0.1059 0.58527 0.0
H261 H 0.30182 0.95113 0.45453 0.0
H262 H 0.41859 0.96719 0.46923 0.0
C263 C 0.53759 0.79008 0.07917 0.0
C264 C 0.53234 0.817 0.08401 0.0
C265 C 0.55545 0.83713 0.06345 0.0
C266 C 0.57347 0.82146 0.04732 0.0
N267 N 0.56317 0.79247 0.0562 0.0
Co268 Co 0.5828 0.76164 0.03919 0.0
N269 N 0.61764 0.7913 0.0097 0.0
C270 C 0.6223 0.82037 0.00682 0.0
C271 C 0.64784 0.83512 0.98424 0.0
C272 C 0.66007 0.81426 0.97172 0.0
C273 C 0.64115 0.78791 0.98744 0.0
N274 N 0.60223 0.73081 0.02206 0.0
C275 C 0.6272 0.73321 0.99862 0.0
C276 C 0.63234 0.70632 0.99362 0.0
C277 C 0.6096 0.68616 0.01448 0.0
C278 C 0.59195 0.70183 0.03092 0.0
N279 N 0.54807 0.73197 0.06879 0.0
C280 C 0.54384 0.70287 0.07202 0.0
C281 C 0.51825 0.68808 0.09451 0.0
C282 C 0.50547 0.70893 0.10661 0.0
C283 C 0.52418 0.73534 0.09076 0.0
N284 N 0.54496 0.76403 0.00389 0.0
C285 C 0.49429 0.76752 0.95134 0.0
C286 C 0.4998 0.74077 0.97058 0.0
C287 C 0.52502 0.73953 0.99649 0.0
C288 C 0.51413 0.79248 0.9593 0.0
C289 C 0.53894 0.79027 0.98547 0.0
N290 N 0.62089 0.75934 0.07433 0.0
C291 C 0.65572 0.73129 0.11618 0.0
C292 C 0.67586 0.75649 0.12344 0.0
C293 C 0.66766 0.78307 0.10585 0.0
C294 C 0.6404 0.78399 0.08172 0.0
C295 C 0.62862 0.7332 0.09176 0.0
H296 H 0.63561 0.80496 0.06947 0.0
H297 H 0.61438 0.71321 0.0874 0.0
H298 H 0.5282 0.71849 0.00994 0.0
H299 H 0.55309 0.81014 0.99015 0.0
C300 C 0.60106 0.83326 0.02457 0.0
C301 C 0.5185 0.76291 0.09775 0.0
C302 C 0.64584 0.76037 0.97978 0.0
C303 C 0.5648 0.69003 0.05403 0.0
H304 H 0.51403 0.82161 0.10097 0.0
H305 H 0.55909 0.86041 0.06093 0.0
H306 H 0.65608 0.85831 0.97728 0.0
H307 H 0.68028 0.81802 0.95283 0.0
H308 H 0.65033 0.70177 0.97635 0.0
H309 H 0.60593 0.66289 0.01699 0.0
H310 H 0.5101 0.66489 0.10149 0.0
H311 H 0.48489 0.70514 0.12518 0.0
H312 H 0.48531 0.72074 0.9653 0.0
H313 H 0.51039 0.81376 0.94554 0.0
H314 H 0.66111 0.71013 0.12897 0.0
H315 H 0.68185 0.80327 0.11094 0.0
C316 C 0.9064 0.98858 0.58441 0.0
C317 C 0.93841 0.98165 0.60067 0.0
C318 C 0.96571 0.00353 0.58867 0.0
C319 C 0.94897 0.02247 0.5658 0.0
N320 N 0.91247 0.01425 0.56278 0.0
Co321 Co 0.87791 0.03477 0.53125 0.0
N322 N 0.91905 0.06452 0.51023 0.0
C323 C 0.95516 0.06547 0.51763 0.0
C324 C 0.97686 0.08868 0.49942 0.0
C325 C 0.95318 0.10367 0.47935 0.0
C326 C 0.91827 0.08865 0.48657 0.0
N327 N 0.84317 0.05571 0.50035 0.0
C328 C 0.8495 0.0811 0.4783 0.0
C329 C 0.81736 0.08877 0.46289 0.0
C330 C 0.78963 0.06777 0.47609 0.0
C331 C 0.80631 0.04855 0.49868 0.0
N332 N 0.83693 0.00444 0.55161 0.0
C333 C 0.80089 1.0029 0.54358 0.0
C334 C 0.77961 0.97868 0.5604 0.0
C335 C 0.80354 0.96345 0.57984 0.0
C336 C 0.83819 0.97933 0.57366 0.0
N337 N 0.87118 0.05954 0.56251 0.0
C338 C 0.86074 0.09933 0.60122 0.0
C339 C 0.83099 0.0828 0.58891 0.0
C340 C 0.83676 0.06312 0.57013 0.0
C341 C 0.89595 0.09488 0.59454 0.0
C342 C 0.9005 0.075 0.5754 0.0
N343 N 0.88444 0.0101 0.49996 0.0
C344 C 0.85805 0.98013 0.46264 0.0
C345 C 0.89152 0.97073 0.46001 0.0
C346 C 0.92173 0.98207 0.47698 0.0
C347 C 0.9177 1.0018 0.49641 0.0
C348 C 0.85514 0.99957 0.48255 0.0
H349 H 0.94174 0.00974 0.50869 0.0
H350 H 0.82864 0.00526 0.48393 0.0
H351 H 0.8128 0.05151 0.56153 0.0
H352 H 0.928 0.0728 0.57101 0.0
C353 C 0.96741 0.0459 0.5439 0.0
C354 C 0.87152 0.96919 0.5886 0.0
C355 C 0.88515 0.09904 0.47169 0.0
C356 C 0.78813 0.02385 0.51904 0.0
H357 H 0.94204 0.96226 0.61846 0.0
H358 H 0.99464 0.00471 0.59467 0.0
H359 H 0.00625 0.09459 0.50134 0.0
H360 H 0.96066 0.12382 0.46204 0.0
H361 H 0.81425 0.10781 0.44435 0.0
H362 H 0.76068 0.06686 0.47029 0.0
H363 H 0.75032 0.97244 0.55813 0.0
H364 H 0.79642 0.9427 0.59622 0.0
H365 H 0.80309 0.08545 0.59294 0.0
H366 H 0.91999 0.10663 0.60403 0.0
H367 H 0.83375 0.97183 0.45017 0.0
H368 H 0.9484 0.97577 0.47528 0.0
C369 C 0.47065 0.25848 0.04475 0.0
C370 C 0.45935 0.28466 0.04561 0.0
C371 C 0.47806 0.30498 0.02179 0.0
C372 C 0.49954 0.29009 0.00776 0.0
N373 N 0.4952 0.26138 0.02084 0.0
Co374 Co 0.5217 0.23172 0.00856 0.0
N375 N 0.55461 0.26231 0.97834 0.0
C376 C 0.55504 0.2913 0.97318 0.0
C377 C 0.58143 0.30694 0.95191 0.0
C378 C 0.5988 0.28676 0.94279 0.0
C379 C 0.58167 0.25982 0.95884 0.0
N380 N 0.54723 0.20191 0.9954 0.0
C381 C 0.57377 0.205 0.9731 0.0
C382 C 0.58173 0.17833 0.96968 0.0
C383 C 0.55958 0.15771 0.99058 0.0
C384 C 0.5392 0.17283 0.00532 0.0
N385 N 0.48991 0.20134 0.04003 0.0
C386 C 0.48998 0.17242 0.04608 0.0
C387 C 0.46723 0.15726 0.07078 0.0
C388 C 0.45234 0.17781 0.08173 0.0
C389 C 0.46688 0.20435 0.06289 0.0
N390 N 0.48566 0.22796 0.97244 0.0
C391 C 0.44256 0.22222 0.91654 0.0
C392 C 0.44452 0.19838 0.94195 0.0
C393 C 0.46626 0.20168 0.96947 0.0
C394 C 0.46077 0.24913 0.92026 0.0
C395 C 0.48149 0.25156 0.94829 0.0
N396 N 0.55788 0.23553 0.04416 0.0
C397 C 0.59826 0.21455 0.08635 0.0
C398 C 0.61057 0.24167 0.09363 0.0
C399 C 0.59581 0.26554 0.07595 0.0
C400 C 0.56981 0.26204 0.05152 0.0
C401 C 0.57188 0.21195 0.06181 0.0
H402 H 0.55992 0.28116 0.0388 0.0
H403 H 0.5632 0.19071 0.05748 0.0
H404 H 0.46738 0.18257 0.98766 0.0
H405 H 0.49433 0.27279 0.94946 0.0
C406 C 0.52831 0.30298 0.98653 0.0
C407 C 0.45939 0.23189 0.06857 0.0
C408 C 0.59125 0.23255 0.95386 0.0
C409 C 0.51291 0.16036 0.02904 0.0
H410 H 0.44065 0.28879 0.06257 0.0
H411 H 0.47771 0.32811 0.01667 0.0
H412 H 0.58681 0.3302 0.94344 0.0
H413 H 0.62112 0.29135 0.92577 0.0
H414 H 0.60117 0.17409 0.95347 0.0
H415 H 0.55829 0.13446 0.99439 0.0
H416 H 0.46285 0.13412 0.08032 0.0
H417 H 0.43359 0.17382 0.10179 0.0
H418 H 0.4303 0.17716 0.94018 0.0
H419 H 0.45907 0.26835 0.90151 0.0
H420 H 0.60864 0.19537 0.09972 0.0
H421 H 0.60479 0.28703 0.08047 0.0
H422 H 0.33419 0.35538 0.27043 0.0
H423 H 0.2312 0.29843 0.28494 0.0
H424 H 0.30363 0.39628 0.27542 0.0
H425 H 0.20036 0.33899 0.28994 0.0
H426 H 0.16402 0.41076 0.33058 0.0
H427 H 0.19734 0.3713 0.3272 0.0
H428 H 0.25913 0.4261 0.24646 0.0
H429 H 0.22661 0.46591 0.25053 0.0
C430 C 0.30495 0.35179 0.27448 0.0
C431 C 0.28494 0.32393 0.27742 0.0
C432 C 0.28743 0.37508 0.27732 0.0
C433 C 0.24957 0.37087 0.28326 0.0
C434 C 0.22964 0.3429 0.28597 0.0
C435 C 0.24716 0.31971 0.28303 0.0
C436 C 0.1851 0.41454 0.31243 0.0
C437 C 0.19261 0.44149 0.2908 0.0
C438 C 0.2039 0.39181 0.31023 0.0
C439 C 0.23073 0.39548 0.28642 0.0
C440 C 0.23879 0.42261 0.26522 0.0
C441 C 0.2199 0.44533 0.26735 0.0
H442 H 0.28128 0.69756 0.69112 0.0
H443 H 0.21896 0.70499 0.77223 0.0
H444 H 0.23381 0.65913 0.67927 0.0
H445 H 0.17191 0.66603 0.76135 0.0
H446 H 0.07683 0.61872 0.71155 0.0
H447 H 0.12468 0.65774 0.721 0.0
H448 H 0.20742 0.609 0.70143 0.0
H449 H 0.15915 0.5703 0.69146 0.0
C450 C 0.25738 0.69076 0.70643 0.0
C451 C 0.25354 0.70405 0.73252 0.0
C452 C 0.23038 0.6687 0.69987 0.0
C453 C 0.19899 0.65956 0.7193 0.0
C454 C 0.19546 0.67281 0.74562 0.0
C455 C 0.22247 0.69484 0.75212 0.0
C456 C 0.10531 0.61663 0.70908 0.0
C457 C 0.11461 0.5918 0.70078 0.0
C458 C 0.13268 0.63875 0.71472 0.0
C459 C 0.1699 0.63641 0.71218 0.0
C460 C 0.17904 0.61161 0.70328 0.0
C461 C 0.15158 0.58946 0.69767 0.0
H462 H 0.95341 0.77573 0.29043 0.0
H463 H 0.85431 0.71859 0.32338 0.0
H464 H 0.98208 0.73443 0.2843 0.0
H465 H 0.88229 0.67695 0.31642 0.0
H466 H 0.96271 0.60964 0.34167 0.0
H467 H 0.93014 0.65001 0.34312 0.0
H468 H 0.98094 0.69735 0.25308 0.0
H469 H 0.01457 0.65752 0.2523 0.0
C470 C 0.93776 0.75422 0.29604 0.0
C471 C 0.90194 0.75013 0.30767 0.0
C472 C 0.95394 0.73058 0.29228 0.0
C473 C 0.93458 0.70228 0.30004 0.0
C474 C 0.89817 0.69838 0.31067 0.0
C475 C 0.88199 0.72213 0.31436 0.0
C476 C 0.96705 0.6287 0.32225 0.0
C477 C 0.99143 0.63032 0.29695 0.0
C478 C 0.948 0.65173 0.32286 0.0
C479 C 0.95292 0.67699 0.29823 0.0
C480 C 0.97677 0.67837 0.27263 0.0
C481 C 0.99577 0.65535 0.272 0.0
H482 H 0.87855 0.28137 0.75692 0.0
H483 H 0.80129 0.29412 0.67759 0.0
H484 H 0.91529 0.32767 0.73403 0.0
H485 H 0.83815 0.34064 0.65378 0.0
H486 H 0.9798 0.41104 0.68786 0.0
H487 H 0.95281 0.36017 0.69267 0.0
H488 H 0.84577 0.38619 0.67178 0.0
H489 H 0.87327 0.43692 0.66625 0.0
C490 C 0.87057 0.29363 0.73363 0.0
C491 C 0.83752 0.28433 0.71877 0.0
C492 C 0.89144 0.32021 0.72048 0.0
C493 C 0.87947 0.33816 0.6922 0.0
C494 C 0.84789 0.32756 0.67582 0.0
C495 C 0.82708 0.30082 0.68905 0.0
C496 C 0.95066 0.40572 0.68346 0.0
C497 C 0.92846 0.4276 0.67659 0.0
C498 C 0.93514 0.37667 0.68639 0.0
C499 C 0.89704 0.36898 0.68281 0.0
C500 C 0.87523 0.39124 0.67421 0.0
C501 C 0.89083 0.42028 0.67118 0.0
H502 H 0.38382 0.23498 0.30194 0.0
H503 H 0.26642 0.21222 0.30653 0.0
H504 H 0.39068 0.1893 0.34034 0.0
H505 H 0.27304 0.16727 0.34559 0.0
H506 H 0.30849 0.12569 0.45228 0.0
H507 H 0.30377 0.16616 0.40626 0.0
H508 H 0.36882 0.12898 0.34813 0.0
H509 H 0.37231 0.08769 0.39404 0.0
C510 C 0.35961 0.21979 0.3105 0.0
C511 C 0.3246 0.22706 0.30175 0.0
C512 C 0.36348 0.19385 0.33251 0.0
C513 C 0.33234 0.17512 0.3462 0.0
C514 C 0.29742 0.18155 0.33565 0.0
C515 C 0.29363 0.20713 0.31336 0.0
C516 C 0.32157 0.12613 0.4296 0.0
C517 C 0.3406 0.10364 0.42654 0.0
C518 C 0.31887 0.14918 0.40335 0.0
C519 C 0.3358 0.15051 0.37371 0.0
C520 C 0.35558 0.12837 0.37078 0.0
C521 C 0.35758 0.10489 0.39691 0.0
H522 H 0.39399 0.77014 0.75993 0.0
H523 H 0.30243 0.7616 0.82281 0.0
H524 H 0.43649 0.77648 0.80523 0.0
H525 H 0.34443 0.76822 0.86818 0.0
H526 H 0.42642 0.7358 0.94772 0.0
H527 H 0.38461 0.73764 0.90115 0.0
H528 H 0.46076 0.80589 0.84462 0.0
H529 H 0.50323 0.80338 0.89102 0.0
C530 C 0.38313 0.77049 0.7833 0.0
C531 C 0.34518 0.76519 0.78818 0.0
C532 C 0.40732 0.77402 0.80926 0.0
C533 C 0.39386 0.77235 0.84052 0.0
C534 C 0.35573 0.76895 0.84465 0.0
C535 C 0.33168 0.7654 0.81874 0.0
C536 C 0.43436 0.75111 0.92533 0.0
C537 C 0.46825 0.76937 0.92313 0.0
C538 C 0.41016 0.75245 0.89871 0.0
C539 C 0.4192 0.77205 0.86914 0.0
C540 C 0.45301 0.79045 0.86696 0.0
C541 C 0.4772 0.78918 0.89366 0.0
H542 H 0.8959 0.86844 0.31063 0.0
H543 H 0.87507 0.80641 0.40071 0.0
H544 H 0.90277 0.90819 0.34003 0.0
H545 H 0.88174 0.84589 0.43052 0.0
H546 H 0.92649 0.92305 0.47637 0.0
H547 H 0.92705 0.88488 0.44589 0.0
H548 H 0.86215 0.92987 0.36953 0.0
H549 H 0.86224 0.96821 0.39963 0.0
C550 C 0.89303 0.8635 0.33682 0.0
C551 C 0.88496 0.83466 0.3536 0.0
C552 C 0.89678 0.8861 0.35364 0.0
C553 C 0.89272 0.88022 0.38763 0.0
C554 C 0.88545 0.85116 0.40442 0.0
C555 C 0.88149 0.8286 0.3875 0.0
C556 C 0.91286 0.92499 0.45283 0.0
C557 C 0.89425 0.94863 0.44045 0.0
C558 C 0.91285 0.90299 0.43554 0.0
C559 C 0.89453 0.90427 0.40533 0.0
C560 C 0.87679 0.92832 0.39258 0.0
C561 C 0.87656 0.95017 0.40996 0.0
H562 H 0.69491 0.22625 0.77353 0.0
H563 H 0.78439 0.25206 0.83536 0.0
H564 H 0.65183 0.22152 0.81752 0.0
H565 H 0.74151 0.24903 0.87893 0.0
H566 H 0.65943 0.2167 0.96082 0.0
H567 H 0.70207 0.21694 0.91786 0.0
H568 H 0.62431 0.25085 0.84545 0.0
H569 H 0.58135 0.24924 0.88856 0.0
C570 C 0.70524 0.23078 0.79668 0.0
C571 C 0.74281 0.23953 0.80118 0.0
C572 C 0.68063 0.22846 0.82175 0.0
C573 C 0.69307 0.23508 0.85182 0.0
C574 C 0.73089 0.24343 0.85633 0.0
C575 C 0.75546 0.24549 0.83133 0.0
C576 C 0.6516 0.22399 0.93563 0.0
C577 C 0.61728 0.23286 0.92779 0.0
C578 C 0.67602 0.22437 0.91103 0.0
C579 C 0.66672 0.23392 0.87807 0.0
C580 C 0.63222 0.24287 0.87043 0.0
C581 C 0.60773 0.24224 0.89505 0.0
H582 H 0.30479 0.81772 0.75085 0.0
H583 H 0.36411 0.78681 0.683 0.0
H584 H 0.31781 0.86714 0.71839 0.0
H585 H 0.37837 0.83613 0.65075 0.0
H586 H 0.35912 0.9566 0.65769 0.0
H587 H 0.36028 0.90999 0.69576 0.0
H588 H 0.34064 0.86611 0.61535 0.0
H589 H 0.34053 0.91267 0.57772 0.0
C590 C 0.32189 0.82188 0.72961 0.0
C591 C 0.33351 0.79879 0.7192 0.0
C592 C 0.3293 0.85007 0.71093 0.0
C593 C 0.34858 0.85557 0.68156 0.0
C594 C 0.36271 0.8326 0.67277 0.0
C595 C 0.35505 0.80448 0.69134 0.0
C596 C 0.35552 0.93688 0.64839 0.0
C597 C 0.34993 0.93797 0.61496 0.0
C598 C 0.35599 0.91024 0.67008 0.0
C599 C 0.35079 0.88425 0.65866 0.0
C600 C 0.34555 0.88565 0.62501 0.0
C601 C 0.34514 0.91222 0.60343 0.0
H602 H 0.78332 0.76073 0.30849 0.0
H603 H 0.87443 0.77965 0.24318 0.0
H604 H 0.74149 0.75029 0.26444 0.0
H605 H 0.83307 0.76815 0.19899 0.0
H606 H 0.74244 0.79101 0.12249 0.0
H607 H 0.78733 0.79222 0.16642 0.0
H608 H 0.72079 0.71969 0.22675 0.0
H609 H 0.67496 0.71934 0.18314 0.0
C610 C 0.79433 0.76205 0.28471 0.0
C611 C 0.83181 0.77127 0.27894 0.0
C612 C 0.77053 0.75586 0.25952 0.0
C613 C 0.78379 0.75867 0.22797 0.0
C614 C 0.8218 0.76626 0.2228 0.0
C615 C 0.84557 0.77251 0.24808 0.0
C616 C 0.73729 0.77534 0.14514 0.0
C617 C 0.7048 0.75532 0.14936 0.0
C618 C 0.76336 0.77575 0.17023 0.0
C619 C 0.75774 0.75608 0.20025 0.0
C620 C 0.72584 0.73538 0.2041 0.0
C621 C 0.6997 0.73499 0.17896 0.0
H622 H 0.7558 0.21327 0.68877 0.0
H623 H 0.86716 0.22851 0.72319 0.0
H624 H 0.77333 0.18152 0.65543 0.0
H625 H 0.88523 0.19695 0.68937 0.0
H626 H 0.90129 0.15297 0.60114 0.0
H627 H 0.88865 0.18955 0.63029 0.0
H628 H 0.79339 0.13216 0.673 0.0
H629 H 0.80643 0.09538 0.64502 0.0
C630 C 0.78419 0.21014 0.68865 0.0
C631 C 0.81008 0.22297 0.70868 0.0
C632 C 0.79423 0.19192 0.66976 0.0
C633 C 0.83053 0.18633 0.67024 0.0
C634 C 0.85705 0.20084 0.68852 0.0
C635 C 0.84684 0.21897 0.70771 0.0
C636 C 0.87798 0.14793 0.61714 0.0
C637 C 0.85468 0.1212 0.62036 0.0
C638 C 0.87067 0.169 0.63369 0.0
C639 C 0.8397 0.16391 0.6535 0.0
C640 C 0.81699 0.137 0.6573 0.0
C641 C 0.82447 0.1159 0.64115 0.0
H642 H 0.40194 0.2936 0.23444 0.0
H643 H 0.31456 0.22334 0.23107 0.0
H644 H 0.43337 0.28081 0.19091 0.0
H645 H 0.34626 0.20965 0.18791 0.0
H646 H 0.38653 0.22508 0.08119 0.0
H647 H 0.35802 0.23024 0.13071 0.0
H648 H 0.4654 0.24635 0.17434 0.0
H649 H 0.4935 0.24182 0.12437 0.0
C650 C 0.39001 0.27495 0.22473 0.0
C651 C 0.35594 0.25949 0.2358 0.0
C652 C 0.40799 0.26749 0.19993 0.0
C653 C 0.39224 0.24431 0.18564 0.0
C654 C 0.3589 0.22789 0.19801 0.0
C655 C 0.34095 0.23541 0.22293 0.0
C656 C 0.40378 0.2295 0.10159 0.0
C657 C 0.44201 0.23317 0.09925 0.0
C658 C 0.38759 0.23223 0.13002 0.0
C659 C 0.40939 0.23872 0.1566 0.0
C660 C 0.44777 0.2417 0.15427 0.0
C661 C 0.4639 0.239 0.12582 0.0
H662 H 0.78841 0.71034 0.71599 0.0
H663 H 0.89603 0.75328 0.73467 0.0
H664 H 0.81546 0.67363 0.69639 0.0
H665 H 0.92361 0.7165 0.71539 0.0
H666 H 0.96212 0.65058 0.66496 0.0
H667 H 0.93385 0.69221 0.6709 0.0
H668 H 0.84644 0.63426 0.72611 0.0
H669 H 0.87415 0.59285 0.71957 0.0
C670 C 0.81795 0.71222 0.71503 0.0
C671 C 0.84024 0.73439 0.72687 0.0
C672 C 0.83348 0.69112 0.70416 0.0
C673 C 0.87171 0.69178 0.70491 0.0
C674 C 0.89408 0.71536 0.71437 0.0
C675 C 0.87842 0.73649 0.72528 0.0
C676 C 0.93655 0.64675 0.67791 0.0
C677 C 0.92044 0.61836 0.69187 0.0
C678 C 0.92053 0.67063 0.68154 0.0
C679 C 0.88782 0.66663 0.69891 0.0
C680 C 0.87134 0.63819 0.71218 0.0
C681 C 0.88746 0.6144 0.70877 0.0
H682 H 0.86373 0.31633 0.33772 0.0
H683 H 0.91846 0.31611 0.24963 0.0
H684 H 0.90788 0.35811 0.3463 0.0
H685 H 0.96206 0.35819 0.2573 0.0
H686 H 0.04805 0.426 0.28769 0.0
H687 H 0.01157 0.37836 0.28884 0.0
H688 H 0.91752 0.40904 0.31965 0.0
H689 H 0.95447 0.45633 0.31896 0.0
C690 C 0.88584 0.32489 0.32068 0.0
C691 C 0.88783 0.31329 0.29299 0.0
C692 C 0.91079 0.34899 0.32526 0.0
C693 C 0.93826 0.36182 0.30224 0.0
C694 C 0.94149 0.34886 0.27564 0.0
C695 C 0.91653 0.32485 0.27111 0.0
C696 C 0.01964 0.42227 0.29497 0.0
C697 C 0.0039 0.44455 0.30333 0.0
C698 C 0.99872 0.39512 0.29554 0.0
C699 C 0.96157 0.38979 0.3044 0.0
C700 C 0.94615 0.41215 0.31327 0.0
C701 C 0.96711 0.43928 0.31267 0.0
H702 H 0.26325 0.3429 0.69561 0.0
H703 H 0.16619 0.28002 0.69557 0.0
H704 H 0.2254 0.3814 0.69048 0.0
H705 H 0.12793 0.3185 0.69006 0.0
H706 H 0.07517 0.40142 0.65166 0.0
H707 H 0.11302 0.36358 0.65215 0.0
H708 H 0.18232 0.39431 0.7268 0.0
H709 H 0.14491 0.4323 0.72595 0.0
C710 C 0.23374 0.33746 0.69434 0.0
C711 C 0.21749 0.30862 0.69622 0.0
C712 C 0.21208 0.35939 0.69148 0.0
C713 C 0.17366 0.35294 0.69018 0.0
C714 C 0.15746 0.32417 0.69081 0.0
C715 C 0.17922 0.30218 0.69391 0.0
C716 C 0.09866 0.40018 0.66798 0.0
C717 C 0.10709 0.41984 0.68876 0.0
C718 C 0.12013 0.37839 0.66845 0.0
C719 C 0.15071 0.37602 0.68943 0.0
C720 C 0.15918 0.39577 0.71009 0.0
C721 C 0.13755 0.41735 0.70984 0.0
H722 H 0.30346 0.76227 0.25406 0.0
H723 H 0.34735 0.71205 0.34023 0.0
H724 H 0.26131 0.71928 0.24585 0.0
H725 H 0.30492 0.66907 0.33291 0.0
H726 H 0.23967 0.59163 0.29984 0.0
H727 H 0.28771 0.63332 0.29952 0.0
H728 H 0.20671 0.69083 0.27319 0.0
H729 H 0.15914 0.64905 0.27314 0.0
C730 C 0.30423 0.7418 0.27093 0.0
C731 C 0.3281 0.74022 0.29787 0.0
C732 C 0.28002 0.7173 0.2665 0.0
C733 C 0.27942 0.69075 0.28892 0.0
C734 C 0.30475 0.68904 0.31504 0.0
C735 C 0.32887 0.71357 0.31942 0.0
C736 C 0.23247 0.61328 0.29369 0.0
C737 C 0.19596 0.61735 0.28655 0.0
C738 C 0.2598 0.63711 0.29364 0.0
C739 C 0.25109 0.66546 0.28638 0.0
C740 C 0.21452 0.66938 0.27843 0.0
C741 C 0.18724 0.64555 0.27855 0.0
H742 H 0.80127 0.78993 0.68058 0.0
H743 H 0.89045 0.81776 0.74129 0.0
H744 H 0.81583 0.83512 0.64007 0.0
H745 H 0.90599 0.86271 0.70083 0.0
H746 H 0.86086 0.91832 0.5676 0.0
H747 H 0.85729 0.86899 0.60071 0.0
H748 H 0.87371 0.90426 0.68761 0.0
H749 H 0.87758 0.95322 0.65437 0.0
C750 C 0.82512 0.80521 0.68435 0.0
C751 C 0.84496 0.80055 0.71371 0.0
C752 C 0.83336 0.83117 0.66138 0.0
C753 C 0.86162 0.85285 0.66753 0.0
C754 C 0.88355 0.84679 0.69565 0.0
C755 C 0.87517 0.82093 0.71855 0.0
C756 C 0.86387 0.91529 0.5938 0.0
C757 C 0.86973 0.93933 0.6086 0.0
C758 C 0.86179 0.88716 0.61273 0.0
C759 C 0.86565 0.88262 0.64681 0.0
C760 C 0.8715 0.90691 0.66141 0.0
C761 C 0.87343 0.93493 0.64251 0.0
H762 H 0.81745 0.2747 0.19556 0.0
H763 H 0.73636 0.26505 0.26905 0.0
H764 H 0.7688 0.26619 0.15556 0.0
H765 H 0.6875 0.25601 0.22953 0.0
H766 H 0.6115 0.27394 0.14007 0.0
H767 H 0.65982 0.28237 0.17989 0.0
H768 H 0.72201 0.22588 0.14488 0.0
H769 H 0.67398 0.21797 0.10447 0.0
C770 C 0.7891 0.27085 0.20295 0.0
C771 C 0.78035 0.27052 0.23511 0.0
C772 C 0.76133 0.26571 0.18029 0.0
C773 C 0.72432 0.26032 0.18944 0.0
C774 C 0.71571 0.26032 0.22167 0.0
C775 C 0.74351 0.26531 0.2443 0.0
C776 C 0.63554 0.26338 0.14083 0.0
C777 C 0.63901 0.24536 0.11908 0.0
C778 C 0.66306 0.26802 0.1638 0.0
C779 C 0.69476 0.25486 0.16545 0.0
C780 C 0.69807 0.23658 0.14394 0.0
C781 C 0.67041 0.23179 0.12107 0.0
H782 H 0.22101 0.20082 0.68791 0.0
H783 H 0.33397 0.24076 0.68337 0.0
H784 H 0.23647 0.16264 0.66269 0.0
H785 H 0.3499 0.20255 0.65813 0.0
H786 H 0.36617 0.11351 0.6373 0.0
H787 H 0.35321 0.14981 0.66668 0.0
H788 H 0.25535 0.1608 0.60816 0.0
H789 H 0.26838 0.12504 0.57868 0.0
C790 C 0.2492 0.20123 0.68159 0.0
C791 C 0.27627 0.2237 0.68724 0.0
C792 C 0.2581 0.1795 0.66709 0.0
C793 C 0.29437 0.17974 0.65802 0.0
C794 C 0.32176 0.20164 0.66498 0.0
C795 C 0.31275 0.22346 0.67942 0.0
C796 C 0.34207 0.12388 0.63052 0.0
C797 C 0.31815 0.11609 0.60579 0.0
C798 C 0.33462 0.14462 0.64741 0.0
C799 C 0.30301 0.15795 0.64003 0.0
C800 C 0.27947 0.15047 0.615 0.0
C801 C 0.28696 0.1299 0.59809 0.0
H802 H 0.37299 0.81278 0.22443 0.0
H803 H 0.4122 0.73891 0.28519 0.0
H804 H 0.40539 0.80568 0.17794 0.0
H805 H 0.44388 0.73081 0.23865 0.0
H806 H 0.53545 0.75221 0.16215 0.0
H807 H 0.49729 0.75429 0.20741 0.0
H808 H 0.40934 0.77568 0.13954 0.0
H809 H 0.44828 0.77424 0.09439 0.0
C810 C 0.38823 0.79475 0.22748 0.0
C811 C 0.39087 0.77666 0.25817 0.0
C812 C 0.40656 0.79049 0.20095 0.0
C813 C 0.42765 0.76784 0.20459 0.0
C814 C 0.42855 0.74882 0.23512 0.0
C815 C 0.41025 0.7532 0.26166 0.0
C816 C 0.50788 0.75724 0.15716 0.0
C817 C 0.49464 0.76323 0.12508 0.0
C818 C 0.48589 0.75821 0.18298 0.0
C819 C 0.45014 0.76511 0.17717 0.0
C820 C 0.43684 0.77064 0.14488 0.0
C821 C 0.45894 0.76973 0.11907 0.0
H822 H 0.81243 0.25133 0.3617 0.0
H823 H 0.90967 0.24937 0.31021 0.0
H824 H 0.82936 0.21362 0.40619 0.0
H825 H 0.92772 0.21194 0.35508 0.0
H826 H 0.90476 0.11454 0.40815 0.0
H827 H 0.90273 0.16124 0.37102 0.0
H828 H 0.86875 0.19562 0.45015 0.0
H829 H 0.87002 0.14846 0.48685 0.0
C830 C 0.8383 0.24355 0.36074 0.0
C831 C 0.85978 0.25299 0.33278 0.0
C832 C 0.84808 0.22194 0.38614 0.0
C833 C 0.87966 0.20934 0.38403 0.0
C834 C 0.90287 0.22078 0.3572 0.0
C835 C 0.89297 0.24247 0.33178 0.0
C836 C 0.89738 0.13231 0.41749 0.0
C837 C 0.88742 0.12816 0.45008 0.0
C838 C 0.8965 0.15913 0.39641 0.0
C839 C 0.88561 0.1823 0.40757 0.0
C840 C 0.87692 0.17822 0.44065 0.0
C841 C 0.87772 0.15135 0.46168 0.0
H842 H 0.27714 0.20466 0.76272 0.0
H843 H 0.3474 0.28628 0.73519 0.0
H844 H 0.31964 0.18924 0.80742 0.0
H845 H 0.38924 0.27187 0.77993 0.0
H846 H 0.46776 0.23989 0.85484 0.0
H847 H 0.43236 0.24204 0.80427 0.0
H848 H 0.33485 0.20212 0.85922 0.0
H849 H 0.37093 0.19897 0.90971 0.0
C850 C 0.30222 0.21891 0.7659 0.0
C851 C 0.30926 0.24659 0.74589 0.0
C852 C 0.32629 0.21034 0.7916 0.0
C853 C 0.35778 0.22939 0.79756 0.0
C854 C 0.36566 0.2564 0.77601 0.0
C855 C 0.34169 0.26482 0.75045 0.0
C856 C 0.43886 0.23115 0.85595 0.0
C857 C 0.42189 0.21961 0.88607 0.0
C858 C 0.41852 0.23246 0.82703 0.0
C859 C 0.38056 0.22274 0.8276 0.0
C860 C 0.36405 0.20961 0.85775 0.0
C861 C 0.38461 0.20791 0.88672 0.0
H862 H 0.30969 0.83122 0.33627 0.0
H863 H 0.42402 0.82799 0.35876 0.0
H864 H 0.31 0.86819 0.36841 0.0
H865 H 0.42534 0.8662 0.38962 0.0
H866 H 0.4024 0.91251 0.47089 0.0
H867 H 0.40477 0.87587 0.4387 0.0
H868 H 0.33167 0.91761 0.36726 0.0
H869 H 0.32863 0.95354 0.3999 0.0
C870 C 0.3349 0.83859 0.34814 0.0
C871 C 0.36678 0.82686 0.34519 0.0
C872 C 0.33531 0.86001 0.36621 0.0
C873 C 0.3678 0.87044 0.38149 0.0
C874 C 0.39976 0.85857 0.37848 0.0
C875 C 0.39919 0.83695 0.36056 0.0
C876 C 0.38718 0.91394 0.44813 0.0
C877 C 0.36508 0.93571 0.43805 0.0
C878 C 0.38855 0.89299 0.42962 0.0
C879 C 0.36808 0.89353 0.40048 0.0
C880 C 0.34704 0.916 0.38994 0.0
C881 C 0.34543 0.93672 0.40856 0.0
H882 H 0.72853 0.73359 0.79966 0.0
H883 H 0.8181 0.78646 0.83764 0.0
H884 H 0.69205 0.73185 0.84749 0.0
H885 H 0.78163 0.7856 0.88513 0.0
H886 H 0.71781 0.7542 0.98047 0.0
H887 H 0.75515 0.75306 0.93412 0.0
H888 H 0.66146 0.76498 0.87001 0.0
H889 H 0.62435 0.76562 0.91662 0.0
C890 C 0.74034 0.74467 0.81847 0.0
C891 C 0.77591 0.76015 0.81521 0.0
C892 C 0.71947 0.74396 0.84562 0.0
C893 C 0.73387 0.75872 0.87006 0.0
C894 C 0.76983 0.77379 0.86693 0.0
C895 C 0.79061 0.7745 0.83974 0.0
C896 C 0.70548 0.75656 0.95637 0.0
C897 C 0.66851 0.76002 0.95176 0.0
C898 C 0.72673 0.75603 0.92988 0.0
C899 C 0.71126 0.75889 0.89836 0.0
C900 C 0.67407 0.76231 0.89399 0.0
C901 C 0.65291 0.7629 0.92049 0.0
loop_
_geom_bond_atom_site_label_1
_geom_bond_atom_site_label_2
_geom_bond_distance
_geom_bond_site_symmetry_2
_ccdc_geom_bond_type
C0 N1 1.317 . S
C0 N2 1.348 . S
C0 C3 1.485 . S
N1 C0 1.317 . S
N1 N5 1.370 . S
N2 C0 1.348 . S
N2 C4 1.346 . S
C3 C0 1.485 . S
C3 H7 0.960 . S
C3 H8 0.961 . S
C3 H9 0.960 . S
C4 N2 1.346 . S
C4 N5 1.307 . S
C4 C6 1.486 . S
N5 N1 1.370 . S
N5 C4 1.307 . S
C6 C4 1.486 . S
C6 H10 0.960 . S
C6 H11 0.960 . S
C6 H12 0.959 . S
H7 C3 0.960 . S
H8 C3 0.961 . S
H9 C3 0.960 . S
H10 C6 0.960 . S
H11 C6 0.960 . S
H12 C6 0.959 . S
C13 N14 1.317 . S
C13 N15 1.348 . S
C13 C16 1.485 . S
N14 C13 1.317 . S
N14 N18 1.370 . S
N15 C13 1.348 . S
N15 C17 1.346 . S
C16 C13 1.485 . S
C16 H20 0.960 . S
C16 H21 0.961 . S
C16 H22 0.960 . S
C17 N15 1.346 . S
C17 N18 1.307 . S
C17 C19 1.486 . S
N18 N14 1.370 . S
N18 C17 1.307 . S
C19 C17 1.486 . S
C19 H23 0.960 . S
C19 H24 0.960 . S
C19 H25 0.959 . S
H20 C16 0.960 . S
H21 C16 0.961 . S
H22 C16 0.960 . S
H23 C19 0.960 . S
H24 C19 0.960 . S
H25 C19 0.959 . S
C26 N27 1.317 . S
C26 N28 1.348 . S
C26 C29 1.485 . S
N27 C26 1.317 . S
N27 N31 1.370 . S
N28 C26 1.348 . S
N28 C30 1.346 . S
C29 C26 1.485 . S
C29 H33 0.960 . S
C29 H34 0.961 . S
C29 H35 0.960 . S
C30 N28 1.346 . S
C30 N31 1.307 . S
C30 C32 1.486 . S
N31 N27 1.370 . S
N31 C30 1.307 . S
C32 C30 1.486 . S
C32 H36 0.960 . S
C32 H37 0.960 . S
C32 H38 0.959 . S
H33 C29 0.960 . S
H34 C29 0.961 . S
H35 C29 0.960 . S
H36 C32 0.960 . S
H37 C32 0.960 . S
H38 C32 0.959 . S
C39 N40 1.317 . S
C39 N41 1.348 . S
C39 C42 1.485 . S
N40 C39 1.317 . S
N40 N44 1.370 . S
N41 C39 1.348 . S
N41 C43 1.346 . S
C42 C39 1.485 . S
C42 H46 0.960 . S
C42 H47 0.961 . S
C42 H48 0.960 . S
C43 N41 1.346 . S
C43 N44 1.307 . S
C43 C45 1.486 . S
N44 N40 1.370 . S
N44 C43 1.307 . S
C45 C43 1.486 . S
C45 H49 0.960 . S
C45 H50 0.960 . S
C45 H51 0.959 . S
H46 C42 0.960 . S
H47 C42 0.961 . S
H48 C42 0.960 . S
H49 C45 0.960 . S
H50 C45 0.960 . S
H51 C45 0.959 . S
C52 N53 1.317 . S
C52 N54 1.348 . S
C52 C55 1.485 . S
N53 C52 1.317 . S
N53 N57 1.370 . S
N54 C52 1.348 . S
N54 C56 1.346 . S
C55 C52 1.485 . S
C55 H59 0.960 . S
C55 H60 0.961 . S
C55 H61 0.960 . S
C56 N54 1.346 . S
C56 N57 1.307 . S
C56 C58 1.486 . S
N57 N53 1.370 . S
N57 C56 1.307 . S
C58 C56 1.486 . S
C58 H62 0.960 . S
C58 H63 0.960 . S
C58 H64 0.959 . S
H59 C55 0.960 . S
H60 C55 0.961 . S
H61 C55 0.960 . S
H62 C58 0.960 . S
H63 C58 0.960 . S
H64 C58 0.959 . S
C65 N66 1.317 . S
C65 N67 1.348 . S
C65 C68 1.485 . S
N66 C65 1.317 . S
N66 N70 1.370 . S
N67 C65 1.348 . S
N67 C69 1.346 . S
C68 C65 1.485 . S
C68 H72 0.960 . S
C68 H73 0.961 . S
C68 H74 0.960 . S
C69 N67 1.346 . S
C69 N70 1.307 . S
C69 C71 1.486 . S
N70 N66 1.370 . S
N70 C69 1.307 . S
C71 C69 1.486 . S
C71 H75 0.960 . S
C71 H76 0.960 . S
C71 H77 0.959 . S
H72 C68 0.960 . S
H73 C68 0.961 . S
H74 C68 0.960 . S
H75 C71 0.960 . S
H76 C71 0.960 . S
H77 C71 0.959 . S
C78 N79 1.317 . S
C78 N80 1.348 . S
C78 C81 1.485 . S
N79 C78 1.317 . S
N79 N83 1.370 . S
N80 C78 1.348 . S
N80 C82 1.346 . S
C81 C78 1.485 . S
C81 H85 0.960 . S
C81 H86 0.961 . S
C81 H87 0.960 . S
C82 N80 1.346 . S
C82 N83 1.307 . S
C82 C84 1.486 . S
N83 N79 1.370 . S
N83 C82 1.307 . S
C84 C82 1.486 . S
C84 H88 0.960 . S
C84 H89 0.960 . S
C84 H90 0.959 . S
H85 C81 0.960 . S
H86 C81 0.961 . S
H87 C81 0.960 . S
H88 C84 0.960 . S
H89 C84 0.960 . S
H90 C84 0.959 . S
C91 N92 1.317 . S
C91 N93 1.348 . S
C91 C94 1.485 . S
N92 C91 1.317 . S
N92 N96 1.370 . S
N93 C91 1.348 . S
N93 C95 1.346 . S
C94 C91 1.485 . S
C94 H98 0.960 . S
C94 H99 0.961 . S
C94 H100 0.960 . S
C95 N93 1.346 . S
C95 N96 1.307 . S
C95 C97 1.486 . S
N96 N92 1.370 . S
N96 C95 1.307 . S
C97 C95 1.486 . S
C97 H101 0.960 . S
C97 H102 0.960 . S
C97 H103 0.959 . S
H98 C94 0.960 . S
H99 C94 0.961 . S
H100 C94 0.960 . S
H101 C97 0.960 . S
H102 C97 0.960 . S
H103 C97 0.959 . S
C104 C105 1.443 . S
C104 N108 1.376 . S
C104 C142 1.389 . S
C105 C104 1.443 . S
C105 C106 1.340 . S
C105 H145 0.951 . S
C106 C105 1.340 . S
C106 C107 1.439 . S
C106 H146 0.950 . S
C107 C106 1.439 . S
C107 N108 1.374 . S
C107 C141 1.395 . S
N108 C104 1.376 . S
N108 C107 1.374 . S
N108 Co109 2.008 . S
Co109 N108 2.008 . S
Co109 N110 1.995 . S
Co109 N115 2.008 . S
Co109 N120 1.995 . S
Co109 N125 2.282 . S
Co109 N131 2.282 . S
N110 Co109 1.995 . S
N110 C111 1.376 . S
N110 C114 1.383 . S
C111 N110 1.376 . S
C111 C112 1.446 . S
C111 C141 1.391 . S
C112 C111 1.446 . S
C112 C113 1.339 . S
C112 H147 0.949 . S
C113 C112 1.339 . S
C113 C114 1.439 . S
C113 H148 0.950 1_455 S
C114 N110 1.383 . S
C114 C113 1.439 . S
C114 C143 1.392 . S
N115 Co109 2.008 . S
N115 C116 1.376 . S
N115 C119 1.374 . S
C116 N115 1.376 . S
C116 C117 1.443 . S
C116 C143 1.389 . S
C117 C116 1.443 . S
C117 C118 1.340 . S
C117 H149 0.951 . S
C118 C117 1.340 . S
C118 C119 1.439 . S
C118 H150 0.950 . S
C119 N115 1.374 . S
C119 C118 1.439 . S
C119 C144 1.395 . S
N120 Co109 1.995 . S
N120 C121 1.376 . S
N120 C124 1.383 . S
C121 N120 1.376 . S
C121 C122 1.446 . S
C121 C144 1.391 . S
C122 C121 1.446 . S
C122 C123 1.339 . S
C122 H151 0.949 . S
C123 C122 1.339 . S
C123 C124 1.439 . S
C123 H152 0.950 . S
C124 N120 1.383 . S
C124 C123 1.439 . S
C124 C142 1.392 . S
N125 Co109 2.282 . S
N125 C128 1.332 . S
N125 C130 1.332 . S
C126 C127 1.386 . S
C126 C129 1.388 . S
C127 C126 1.386 . S
C127 C128 1.382 . S
C127 H153 0.950 . S
C128 N125 1.332 . S
C128 C127 1.382 . S
C128 H139 0.952 . S
C129 C126 1.388 . S
C129 C130 1.382 . S
C129 H154 0.950 . S
C130 N125 1.332 . S
C130 C129 1.382 . S
C130 H140 0.948 . S
N131 Co109 2.282 . S
N131 C135 1.332 . S
N131 C136 1.332 . S
C132 C133 1.388 . S
C132 C136 1.382 . S
C132 H155 0.950 . S
C133 C132 1.388 . S
C133 C134 1.386 . S
C134 C133 1.386 . S
C134 C135 1.382 . S
C134 H156 0.950 . S
C135 N131 1.332 . S
C135 C134 1.382 . S
C135 H137 0.952 . S
C136 N131 1.332 . S
C136 C132 1.382 . S
C136 H138 0.948 . S
H137 C135 0.952 . S
H138 C136 0.948 . S
H139 C128 0.952 . S
H140 C130 0.948 . S
C141 C107 1.395 . S
C141 C111 1.391 . S
C142 C104 1.389 . S
C142 C124 1.392 . S
C143 C114 1.392 . S
C143 C116 1.389 . S
C144 C119 1.395 . S
C144 C121 1.391 . S
H145 C105 0.951 . S
H146 C106 0.950 . S
H147 C112 0.949 . S
H148 C113 0.950 1_655 S
H149 C117 0.951 . S
H150 C118 0.950 . S
H151 C122 0.949 . S
H152 C123 0.950 . S
H153 C127 0.950 . S
H154 C129 0.950 . S
H155 C132 0.950 . S
H156 C134 0.950 . S
C157 C158 1.443 . S
C157 N161 1.376 . S
C157 C195 1.389 . S
C158 C157 1.443 . S
C158 C159 1.340 . S
C158 H198 0.951 . S
C159 C158 1.340 . S
C159 C160 1.439 . S
C159 H199 0.950 . S
C160 C159 1.439 . S
C160 N161 1.374 . S
C160 C194 1.395 1_455 S
N161 C157 1.376 . S
N161 C160 1.374 . S
N161 Co162 2.020 . S
Co162 N161 2.020 . S
Co162 N163 1.981 1_455 S
Co162 N168 1.997 1_455 S
Co162 N173 2.008 . S
Co162 N178 2.302 . S
Co162 N184 2.263 1_455 S
N163 Co162 1.981 1_655 S
N163 C164 1.376 . S
N163 C167 1.383 . S
C164 N163 1.376 . S
C164 C165 1.446 . S
C164 C194 1.391 . S
C165 C164 1.446 . S
C165 C166 1.339 . S
C165 H200 0.949 . S
C166 C165 1.339 . S
C166 C167 1.439 . S
C166 H201 0.950 . S
C167 N163 1.383 . S
C167 C166 1.439 . S
C167 C196 1.392 . S
N168 Co162 1.997 1_655 S
N168 C169 1.376 . S
N168 C172 1.374 . S
C169 N168 1.376 . S
C169 C170 1.443 . S
C169 C196 1.389 . S
C170 C169 1.443 . S
C170 C171 1.340 . S
C170 H202 0.951 . S
C171 C170 1.340 . S
C171 C172 1.439 . S
C171 H203 0.950 . S
C172 N168 1.374 . S
C172 C171 1.439 . S
C172 C197 1.395 1_655 S
N173 Co162 2.008 . S
N173 C174 1.376 . S
N173 C177 1.383 . S
C174 N173 1.376 . S
C174 C175 1.446 . S
C174 C197 1.391 . S
C175 C174 1.446 . S
C175 C176 1.339 . S
C175 H204 0.949 . S
C176 C175 1.339 . S
C176 C177 1.439 . S
C176 H205 0.950 . S
C177 N173 1.383 . S
C177 C176 1.439 . S
C177 C195 1.392 . S
N178 Co162 2.302 . S
N178 C181 1.332 . S
N178 C183 1.332 . S
C179 C180 1.386 . S
C179 C182 1.388 . S
C180 C179 1.386 . S
C180 C181 1.382 . S
C180 H206 0.950 . S
C181 N178 1.332 . S
C181 C180 1.382 . S
C181 H192 0.952 . S
C182 C179 1.388 . S
C182 C183 1.382 . S
C182 H207 0.950 . S
C183 N178 1.332 . S
C183 C182 1.382 . S
C183 H193 0.948 . S
N184 Co162 2.263 1_655 S
N184 C188 1.332 . S
N184 C189 1.332 . S
C185 C186 1.388 . S
C185 C189 1.382 . S
C185 H208 0.950 . S
C186 C185 1.388 . S
C186 C187 1.386 . S
C187 C186 1.386 . S
C187 C188 1.382 . S
C187 H209 0.950 . S
C188 N184 1.332 . S
C188 C187 1.382 . S
C188 H190 0.952 . S
C189 N184 1.332 . S
C189 C185 1.382 . S
C189 H191 0.948 . S
H190 C188 0.952 . S
H191 C189 0.948 . S
H192 C181 0.952 . S
H193 C183 0.948 . S
C194 C160 1.395 1_655 S
C194 C164 1.391 . S
C195 C157 1.389 . S
C195 C177 1.392 . S
C196 C167 1.392 . S
C196 C169 1.389 . S
C197 C172 1.395 1_455 S
C197 C174 1.391 . S
H198 C158 0.951 . S
H199 C159 0.950 . S
H200 C165 0.949 . S
H201 C166 0.950 . S
H202 C170 0.951 . S
H203 C171 0.950 . S
H204 C175 0.949 . S
H205 C176 0.950 . S
H206 C180 0.950 . S
H207 C182 0.950 . S
H208 C185 0.950 . S
H209 C187 0.950 . S
C210 C211 1.443 . S
C210 N214 1.376 1_565 S
C210 C248 1.389 . S
C211 C210 1.443 . S
C211 C212 1.340 . S
C211 H251 0.951 . S
C212 C211 1.340 . S
C212 C213 1.439 1_565 S
C212 H252 0.950 . S
C213 C212 1.439 1_545 S
C213 N214 1.374 . S
C213 C247 1.395 . S
N214 C210 1.376 1_545 S
N214 C213 1.374 . S
N214 Co215 2.008 . S
Co215 N214 2.008 . S
Co215 N216 1.995 . S
Co215 N221 2.008 . S
Co215 N226 1.995 . S
Co215 N231 2.282 . S
Co215 N237 2.277 1_545 S
N216 Co215 1.995 . S
N216 C217 1.376 . S
N216 C220 1.383 . S
C217 N216 1.376 . S
C217 C218 1.446 . S
C217 C247 1.391 . S
C218 C217 1.446 . S
C218 C219 1.339 . S
C218 H253 0.949 . S
C219 C218 1.339 . S
C219 C220 1.439 . S
C219 H254 0.950 . S
C220 N216 1.383 . S
C220 C219 1.439 . S
C220 C249 1.392 . S
N221 Co215 2.008 . S
N221 C222 1.376 . S
N221 C225 1.374 . S
C222 N221 1.376 . S
C222 C223 1.443 . S
C222 C249 1.389 . S
C223 C222 1.443 . S
C223 C224 1.340 . S
C223 H255 0.951 . S
C224 C223 1.340 . S
C224 C225 1.439 . S
C224 H256 0.950 . S
C225 N221 1.374 . S
C225 C224 1.439 . S
C225 C250 1.395 . S
N226 Co215 1.995 . S
N226 C227 1.378 1_545 S
N226 C230 1.383 1_545 S
C227 N226 1.378 1_565 S
C227 C228 1.466 . S
C227 C250 1.373 1_565 S
C228 C227 1.466 . S
C228 C229 1.339 . S
C228 H257 0.949 . S
C229 C228 1.339 . S
C229 C230 1.439 . S
C229 H258 0.950 . S
C230 N226 1.383 1_565 S
C230 C229 1.439 . S
C230 C248 1.392 . S
N231 Co215 2.282 . S
N231 C234 1.332 . S
N231 C236 1.332 . S
C232 C233 1.386 . S
C232 C235 1.388 . S
C233 C232 1.386 . S
C233 C234 1.382 . S
C233 H259 0.950 . S
C234 N231 1.332 . S
C234 C233 1.382 . S
C234 H245 0.952 . S
C235 C232 1.388 . S
C235 C236 1.382 . S
C235 H260 0.950 . S
C236 N231 1.332 . S
C236 C235 1.382 . S
C236 H246 0.948 . S
N237 Co215 2.277 1_565 S
N237 C241 1.334 . S
N237 C242 1.337 . S
C238 C239 1.388 . S
C238 C242 1.382 . S
C238 H261 0.950 . S
C239 C238 1.388 . S
C239 C240 1.386 . S
C240 C239 1.386 . S
C240 C241 1.382 . S
C240 H262 0.950 . S
C241 N237 1.334 . S
C241 C240 1.382 . S
C241 H243 0.952 1_565 S
C242 N237 1.337 . S
C242 C238 1.382 . S
C242 H244 0.948 . S
H243 C241 0.952 1_545 S
H244 C242 0.948 . S
H245 C234 0.952 . S
H246 C236 0.948 . S
C247 C213 1.395 . S
C247 C217 1.391 . S
C248 C210 1.389 . S
C248 C230 1.392 . S
C249 C220 1.392 . S
C249 C222 1.389 . S
C250 C225 1.395 . S
C250 C227 1.373 1_545 S
H251 C211 0.951 . S
H252 C212 0.950 . S
H253 C218 0.949 . S
H254 C219 0.950 . S
H255 C223 0.951 . S
H256 C224 0.950 . S
H257 C228 0.949 . S
H258 C229 0.950 . S
H259 C233 0.950 . S
H260 C235 0.950 . S
H261 C238 0.950 . S
H262 C240 0.950 . S
C263 C264 1.443 . S
C263 N267 1.376 . S
C263 C301 1.389 . S
C264 C263 1.443 . S
C264 C265 1.340 . S
C264 H304 0.951 . S
C265 C264 1.340 . S
C265 C266 1.439 . S
C265 H305 0.950 . S
C266 C265 1.439 . S
C266 N267 1.374 . S
C266 C300 1.395 . S
N267 C263 1.376 . S
N267 C266 1.374 . S
N267 Co268 2.008 . S
Co268 N267 2.008 . S
Co268 N269 1.995 . S
Co268 N274 2.008 . S
Co268 N279 1.995 . S
Co268 N284 2.282 . S
Co268 N290 2.282 . S
N269 Co268 1.995 . S
N269 C270 1.376 . S
N269 C273 1.383 1_554 S
C270 N269 1.376 . S
C270 C271 1.446 1_554 S
C270 C300 1.391 . S
C271 C270 1.446 1_556 S
C271 C272 1.339 . S
C271 H306 0.949 . S
C272 C271 1.339 . S
C272 C273 1.439 . S
C272 H307 0.950 . S
C273 N269 1.383 1_556 S
C273 C272 1.439 . S
C273 C302 1.392 . S
N274 Co268 2.008 . S
N274 C275 1.376 1_554 S
N274 C278 1.374 . S
C275 N274 1.376 1_556 S
C275 C276 1.443 . S
C275 C302 1.389 . S
C276 C275 1.443 . S
C276 C277 1.340 1_556 S
C276 H308 0.951 . S
C277 C276 1.340 1_554 S
C277 C278 1.439 . S
C277 H309 0.950 . S
C278 N274 1.374 . S
C278 C277 1.439 . S
C278 C303 1.395 . S
N279 Co268 1.995 . S
N279 C280 1.376 . S
N279 C283 1.383 . S
C280 N279 1.376 . S
C280 C281 1.446 . S
C280 C303 1.391 . S
C281 C280 1.446 . S
C281 C282 1.339 . S
C281 H310 0.949 . S
C282 C281 1.339 . S
C282 C283 1.439 . S
C282 H311 0.950 . S
C283 N279 1.383 . S
C283 C282 1.439 . S
C283 C301 1.392 . S
N284 Co268 2.282 . S
N284 C287 1.332 . S
N284 C289 1.332 1_554 S
C285 C286 1.386 . S
C285 C288 1.388 . S
C286 C285 1.386 . S
C286 C287 1.382 1_556 S
C286 H312 0.950 . S
C287 N284 1.332 . S
C287 C286 1.382 1_554 S
C287 H298 0.952 . S
C288 C285 1.388 . S
C288 C289 1.382 . S
C288 H313 0.950 . S
C289 N284 1.332 1_556 S
C289 C288 1.382 . S
C289 H299 0.948 . S
N290 Co268 2.282 . S
N290 C294 1.332 . S
N290 C295 1.332 . S
C291 C292 1.388 . S
C291 C295 1.382 . S
C291 H314 0.950 . S
C292 C291 1.388 . S
C292 C293 1.386 . S
C293 C292 1.386 . S
C293 C294 1.382 . S
C293 H315 0.950 . S
C294 N290 1.332 . S
C294 C293 1.382 . S
C294 H296 0.952 . S
C295 N290 1.332 . S
C295 C291 1.382 . S
C295 H297 0.948 . S
H296 C294 0.952 . S
H297 C295 0.948 . S
H298 C287 0.952 . S
H299 C289 0.948 . S
C300 C266 1.395 . S
C300 C270 1.391 . S
C301 C263 1.389 . S
C301 C283 1.392 . S
C302 C273 1.392 . S
C302 C275 1.389 . S
C303 C278 1.395 . S
C303 C280 1.391 . S
H304 C264 0.951 . S
H305 C265 0.950 . S
H306 C271 0.949 . S
H307 C272 0.950 . S
H308 C276 0.951 . S
H309 C277 0.950 . S
H310 C281 0.949 . S
H311 C282 0.950 . S
H312 C286 0.950 . S
H313 C288 0.950 . S
H314 C291 0.950 . S
H315 C293 0.950 . S
C316 C317 1.436 1_645 S
C316 N320 1.376 . S
C316 C354 1.389 1_545 S
C317 C316 1.436 1_465 S
C317 C318 1.328 1_565 S
C317 H357 0.968 . S
C318 C317 1.328 1_545 S
C318 C319 1.439 . S
C318 H358 0.950 . S
C319 C318 1.439 . S
C319 N320 1.374 1_455 S
C319 C353 1.395 . S
N320 C316 1.376 . S
N320 C319 1.374 1_655 S
N320 Co321 2.008 . S
Co321 N320 2.008 . S
Co321 N322 1.995 . S
Co321 N327 2.008 . S
Co321 N332 1.995 . S
Co321 N337 2.282 . S
Co321 N343 2.282 . S
N322 Co321 1.995 . S
N322 C323 1.376 1_655 S
N322 C326 1.383 . S
C323 N322 1.376 1_455 S
C323 C324 1.446 . S
C323 C353 1.391 . S
C324 C323 1.446 . S
C324 C325 1.339 . S
C324 H359 0.949 . S
C325 C324 1.339 . S
C325 C326 1.439 1_455 S
C325 H360 0.950 . S
C326 N322 1.383 . S
C326 C325 1.439 1_655 S
C326 C355 1.392 . S
N327 Co321 2.008 . S
N327 C328 1.376 . S
N327 C331 1.374 . S
C328 N327 1.376 . S
C328 C329 1.443 . S
C328 C355 1.389 . S
C329 C328 1.443 . S
C329 C330 1.340 . S
C329 H361 0.951 . S
C330 C329 1.340 . S
C330 C331 1.439 . S
C330 H362 0.950 . S
C331 N327 1.374 . S
C331 C330 1.439 . S
C331 C356 1.395 . S
N332 Co321 1.995 . S
N332 C333 1.376 . S
N332 C336 1.383 1_545 S
C333 N332 1.376 . S
C333 C334 1.446 1_545 S
C333 C356 1.391 . S
C334 C333 1.446 1_565 S
C334 C335 1.339 . S
C334 H363 0.949 . S
C335 C334 1.339 . S
C335 C336 1.439 . S
C335 H364 0.950 . S
C336 N332 1.383 1_565 S
C336 C335 1.439 . S
C336 C354 1.392 . S
N337 Co321 2.282 . S
N337 C340 1.332 . S
N337 C342 1.332 . S
C338 C339 1.386 . S
C338 C341 1.388 . S
C339 C338 1.386 . S
C339 C340 1.382 . S
C339 H365 0.950 . S
C340 N337 1.332 . S
C340 C339 1.382 . S
C340 H351 0.952 . S
C341 C338 1.388 . S
C341 C342 1.382 . S
C341 H366 0.950 . S
C342 N337 1.332 . S
C342 C341 1.382 . S
C342 H352 0.948 . S
N343 Co321 2.282 . S
N343 C347 1.332 . S
N343 C348 1.332 . S
C344 C345 1.388 . S
C344 C348 1.382 1_565 S
C344 H367 0.950 . S
C345 C344 1.388 . S
C345 C346 1.373 1_565 S
C346 C345 1.373 1_545 S
C346 C347 1.398 . S
C346 H368 0.951 1_655 S
C347 N343 1.332 . S
C347 C346 1.398 . S
C347 H349 0.952 . S
C348 N343 1.332 . S
C348 C344 1.382 1_545 S
C348 H350 0.948 . S
H349 C347 0.952 . S
H350 C348 0.948 . S
H351 C340 0.952 . S
H352 C342 0.948 . S
C353 C319 1.395 . S
C353 C323 1.391 . S
C354 C316 1.389 1_565 S
C354 C336 1.392 . S
C355 C326 1.392 . S
C355 C328 1.389 . S
C356 C331 1.395 . S
C356 C333 1.391 . S
H357 C317 0.968 . S
H358 C318 0.950 . S
H359 C324 0.949 . S
H360 C325 0.950 . S
H361 C329 0.951 . S
H362 C330 0.950 . S
H363 C334 0.949 . S
H364 C335 0.950 . S
H365 C339 0.950 . S
H366 C341 0.950 . S
H367 C344 0.950 . S
H368 C346 0.951 1_455 S
C369 C370 1.443 . S
C369 N373 1.376 . S
C369 C407 1.389 . S
C370 C369 1.443 . S
C370 C371 1.340 . S
C370 H410 0.951 . S
C371 C370 1.340 . S
C371 C372 1.439 . S
C371 H411 0.950 . S
C372 C371 1.439 . S
C372 N373 1.374 . S
C372 C406 1.395 . S
N373 C369 1.376 . S
N373 C372 1.374 . S
N373 Co374 2.008 . S
Co374 N373 2.008 . S
Co374 N375 1.995 1_554 S
Co374 N380 2.008 1_554 S
Co374 N385 1.995 . S
Co374 N390 2.282 1_554 S
Co374 N396 2.282 . S
N375 Co374 1.995 1_556 S
N375 C376 1.376 . S
N375 C379 1.383 . S
C376 N375 1.376 . S
C376 C377 1.446 . S
C376 C406 1.391 1_556 S
C377 C376 1.446 . S
C377 C378 1.339 . S
C377 H412 0.949 . S
C378 C377 1.339 . S
C378 C379 1.439 . S
C378 H413 0.950 . S
C379 N375 1.383 . S
C379 C378 1.439 . S
C379 C408 1.392 . S
N380 Co374 2.008 1_556 S
N380 C381 1.376 . S
N380 C384 1.374 1_556 S
C381 N380 1.376 . S
C381 C382 1.443 . S
C381 C408 1.389 . S
C382 C381 1.443 . S
C382 C383 1.340 . S
C382 H414 0.951 . S
C383 C382 1.340 . S
C383 C384 1.439 1_556 S
C383 H415 0.950 . S
C384 N380 1.374 1_554 S
C384 C383 1.439 1_554 S
C384 C409 1.395 . S
N385 Co374 1.995 . S
N385 C386 1.376 . S
N385 C389 1.383 . S
C386 N385 1.376 . S
C386 C387 1.446 . S
C386 C409 1.391 . S
C387 C386 1.446 . S
C387 C388 1.339 . S
C387 H416 0.949 . S
C388 C387 1.339 . S
C388 C389 1.439 . S
C388 H417 0.950 . S
C389 N385 1.383 . S
C389 C388 1.439 . S
C389 C407 1.392 . S
N390 Co374 2.282 1_556 S
N390 C393 1.332 . S
N390 C395 1.332 . S
C391 C392 1.386 . S
C391 C394 1.388 . S
C392 C391 1.386 . S
C392 C393 1.382 . S
C392 H418 0.950 . S
C393 N390 1.332 . S
C393 C392 1.382 . S
C393 H404 0.952 . S
C394 C391 1.388 . S
C394 C395 1.382 . S
C394 H419 0.950 . S
C395 N390 1.332 . S
C395 C394 1.382 . S
C395 H405 0.948 . S
N396 Co374 2.282 . S
N396 C400 1.332 . S
N396 C401 1.332 . S
C397 C398 1.388 . S
C397 C401 1.382 . S
C397 H420 0.950 . S
C398 C397 1.388 . S
C398 C399 1.386 . S
C399 C398 1.386 . S
C399 C400 1.382 . S
C399 H421 0.950 . S
C400 N396 1.332 . S
C400 C399 1.382 . S
C400 H402 0.952 . S
C401 N396 1.332 . S
C401 C397 1.382 . S
C401 H403 0.948 . S
H402 C400 0.952 . S
H403 C401 0.948 . S
H404 C393 0.952 . S
H405 C395 0.948 . S
C406 C372 1.395 . S
C406 C376 1.391 1_554 S
C407 C369 1.389 . S
C407 C389 1.392 . S
C408 C379 1.392 . S
C408 C381 1.389 . S
C409 C384 1.395 . S
C409 C386 1.391 . S
H410 C370 0.951 . S
H411 C371 0.950 . S
H412 C377 0.949 . S
H413 C378 0.950 . S
H414 C382 0.951 . S
H415 C383 0.950 . S
H416 C387 0.949 . S
H417 C388 0.950 . S
H418 C392 0.950 . S
H419 C394 0.950 . S
H420 C397 0.950 . S
H421 C399 0.950 . S
H422 C430 0.950 . S
H423 C435 0.950 . S
H424 C432 0.950 . S
H425 C434 0.950 . S
H426 C436 0.950 . S
H427 C438 0.950 . S
H428 C440 0.950 . S
H429 C441 0.950 . S
C430 H422 0.950 . S
C430 C431 1.386 . S
C430 C432 1.391 . S
C431 C430 1.386 . S
C431 C435 1.393 . S
C432 H424 0.950 . S
C432 C430 1.391 . S
C432 C433 1.400 . S
C433 C432 1.400 . S
C433 C434 1.398 . S
C433 C439 1.491 . S
C434 H425 0.950 . S
C434 C433 1.398 . S
C434 C435 1.391 . S
C435 H423 0.950 . S
C435 C431 1.393 . S
C435 C434 1.391 . S
C436 H426 0.950 . S
C436 C437 1.386 . S
C436 C438 1.391 . S
C437 C436 1.386 . S
C437 C441 1.393 . S
C438 H427 0.950 . S
C438 C436 1.391 . S
C438 C439 1.400 . S
C439 C433 1.491 . S
C439 C438 1.400 . S
C439 C440 1.398 . S
C440 H428 0.950 . S
C440 C439 1.398 . S
C440 C441 1.391 . S
C441 H429 0.950 . S
C441 C437 1.393 . S
C441 C440 1.391 . S
H442 C450 0.950 . S
H443 C455 0.950 . S
H444 C452 0.950 . S
H445 C454 0.950 . S
H446 C456 0.950 . S
H447 C458 0.950 . S
H448 C460 0.950 . S
H449 C461 0.950 . S
C450 H442 0.950 . S
C450 C451 1.386 . S
C450 C452 1.391 . S
C451 C450 1.386 . S
C451 C455 1.393 . S
C452 H444 0.950 . S
C452 C450 1.391 . S
C452 C453 1.400 . S
C453 C452 1.400 . S
C453 C454 1.398 . S
C453 C459 1.491 . S
C454 H445 0.950 . S
C454 C453 1.398 . S
C454 C455 1.391 . S
C455 H443 0.950 . S
C455 C451 1.393 . S
C455 C454 1.391 . S
C456 H446 0.950 . S
C456 C457 1.386 . S
C456 C458 1.391 . S
C457 C456 1.386 . S
C457 C461 1.393 . S
C458 H447 0.950 . S
C458 C456 1.391 . S
C458 C459 1.400 . S
C459 C453 1.491 . S
C459 C458 1.400 . S
C459 C460 1.398 . S
C460 H448 0.950 . S
C460 C459 1.398 . S
C460 C461 1.391 . S
C461 H449 0.950 . S
C461 C457 1.393 . S
C461 C460 1.391 . S
H462 C470 0.950 . S
H463 C475 0.950 . S
H464 C472 0.950 . S
H465 C474 0.950 . S
H466 C476 0.950 . S
H467 C478 0.950 . S
H468 C480 0.950 . S
H469 C481 0.950 1_455 S
C470 H462 0.950 . S
C470 C471 1.386 . S
C470 C472 1.391 . S
C471 C470 1.386 . S
C471 C475 1.393 . S
C472 H464 0.950 . S
C472 C470 1.391 . S
C472 C473 1.400 . S
C473 C472 1.400 . S
C473 C474 1.398 . S
C473 C479 1.491 . S
C474 H465 0.950 . S
C474 C473 1.398 . S
C474 C475 1.391 . S
C475 H463 0.950 . S
C475 C471 1.393 . S
C475 C474 1.391 . S
C476 H466 0.950 . S
C476 C477 1.373 1_655 S
C476 C478 1.391 . S
C477 C476 1.373 1_455 S
C477 C481 1.389 1_455 S
C478 H467 0.950 . S
C478 C476 1.391 . S
C478 C479 1.400 . S
C479 C473 1.491 . S
C479 C478 1.400 . S
C479 C480 1.398 . S
C480 H468 0.950 . S
C480 C479 1.398 . S
C480 C481 1.391 . S
C481 H469 0.950 1_655 S
C481 C477 1.389 1_655 S
C481 C480 1.391 . S
H482 C490 0.950 . S
H483 C495 0.950 . S
H484 C492 0.950 . S
H485 C494 0.950 . S
H486 C496 0.950 . S
H487 C498 0.950 . S
H488 C500 0.950 . S
H489 C501 0.950 . S
C490 H482 0.950 . S
C490 C491 1.386 . S
C490 C492 1.391 . S
C491 C490 1.386 . S
C491 C495 1.393 . S
C492 H484 0.950 . S
C492 C490 1.391 . S
C492 C493 1.400 . S
C493 C492 1.400 . S
C493 C494 1.398 . S
C493 C499 1.491 . S
C494 H485 0.950 . S
C494 C493 1.398 . S
C494 C495 1.391 . S
C495 H483 0.950 . S
C495 C491 1.393 . S
C495 C494 1.391 . S
C496 H486 0.950 . S
C496 C497 1.386 . S
C496 C498 1.391 . S
C497 C496 1.386 . S
C497 C501 1.393 . S
C498 H487 0.950 . S
C498 C496 1.391 . S
C498 C499 1.400 . S
C499 C493 1.491 . S
C499 C498 1.400 . S
C499 C500 1.398 . S
C500 H488 0.950 . S
C500 C499 1.398 . S
C500 C501 1.391 . S
C501 H489 0.950 . S
C501 C497 1.393 . S
C501 C500 1.391 . S
H502 C510 0.950 . S
H503 C515 0.950 . S
H504 C512 0.950 . S
H505 C514 0.950 . S
H506 C516 0.950 . S
H507 C518 0.950 . S
H508 C520 0.950 . S
H509 C521 0.950 . S
C510 H502 0.950 . S
C510 C511 1.386 . S
C510 C512 1.391 . S
C511 C510 1.386 . S
C511 C515 1.393 . S
C512 H504 0.950 . S
C512 C510 1.391 . S
C512 C513 1.400 . S
C513 C512 1.400 . S
C513 C514 1.398 . S
C513 C519 1.491 . S
C514 H505 0.950 . S
C514 C513 1.398 . S
C514 C515 1.391 . S
C515 H503 0.950 . S
C515 C511 1.393 . S
C515 C514 1.391 . S
C516 H506 0.950 . S
C516 C517 1.386 . S
C516 C518 1.391 . S
C517 C516 1.386 . S
C517 C521 1.393 . S
C518 H507 0.950 . S
C518 C516 1.391 . S
C518 C519 1.400 . S
C519 C513 1.491 . S
C519 C518 1.400 . S
C519 C520 1.398 . S
C520 H508 0.950 . S
C520 C519 1.398 . S
C520 C521 1.391 . S
C521 H509 0.950 . S
C521 C517 1.393 . S
C521 C520 1.391 . S
H522 C530 0.950 . S
H523 C535 0.950 . S
H524 C532 0.950 . S
H525 C534 0.950 . S
H526 C536 0.950 . S
H527 C538 0.950 . S
H528 C540 0.950 . S
H529 C541 0.950 . S
C530 H522 0.950 . S
C530 C531 1.386 . S
C530 C532 1.391 . S
C531 C530 1.386 . S
C531 C535 1.393 . S
C532 H524 0.950 . S
C532 C530 1.391 . S
C532 C533 1.400 . S
C533 C532 1.400 . S
C533 C534 1.398 . S
C533 C539 1.491 . S
C534 H525 0.950 . S
C534 C533 1.398 . S
C534 C535 1.391 . S
C535 H523 0.950 . S
C535 C531 1.393 . S
C535 C534 1.391 . S
C536 H526 0.950 . S
C536 C537 1.386 . S
C536 C538 1.391 . S
C537 C536 1.386 . S
C537 C541 1.393 . S
C538 H527 0.950 . S
C538 C536 1.391 . S
C538 C539 1.400 . S
C539 C533 1.491 . S
C539 C538 1.400 . S
C539 C540 1.398 . S
C540 H528 0.950 . S
C540 C539 1.398 . S
C540 C541 1.391 . S
C541 H529 0.950 . S
C541 C537 1.393 . S
C541 C540 1.391 . S
H542 C550 0.950 . S
H543 C555 0.950 . S
H544 C552 0.950 . S
H545 C554 0.950 . S
H546 C556 0.950 . S
H547 C558 0.950 . S
H548 C560 0.950 . S
H549 C561 0.950 . S
C550 H542 0.950 . S
C550 C551 1.386 . S
C550 C552 1.391 . S
C551 C550 1.386 . S
C551 C555 1.393 . S
C552 H544 0.950 . S
C552 C550 1.391 . S
C552 C553 1.400 . S
C553 C552 1.400 . S
C553 C554 1.398 . S
C553 C559 1.491 . S
C554 H545 0.950 . S
C554 C553 1.398 . S
C554 C555 1.391 . S
C555 H543 0.950 . S
C555 C551 1.393 . S
C555 C554 1.391 . S
C556 H546 0.950 . S
C556 C557 1.386 . S
C556 C558 1.391 . S
C557 C556 1.386 . S
C557 C561 1.393 . S
C558 H547 0.950 . S
C558 C556 1.391 . S
C558 C559 1.400 . S
C559 C553 1.491 . S
C559 C558 1.400 . S
C559 C560 1.398 . S
C560 H548 0.950 . S
C560 C559 1.398 . S
C560 C561 1.391 . S
C561 H549 0.950 . S
C561 C557 1.393 . S
C561 C560 1.391 . S
H562 C570 0.950 . S
H563 C575 0.950 . S
H564 C572 0.950 . S
H565 C574 0.950 . S
H566 C576 0.950 . S
H567 C578 0.950 . S
H568 C580 0.950 . S
H569 C581 0.950 . S
C570 H562 0.950 . S
C570 C571 1.386 . S
C570 C572 1.391 . S
C571 C570 1.386 . S
C571 C575 1.393 . S
C572 H564 0.950 . S
C572 C570 1.391 . S
C572 C573 1.400 . S
C573 C572 1.400 . S
C573 C574 1.398 . S
C573 C579 1.491 . S
C574 H565 0.950 . S
C574 C573 1.398 . S
C574 C575 1.391 . S
C575 H563 0.950 . S
C575 C571 1.393 . S
C575 C574 1.391 . S
C576 H566 0.950 . S
C576 C577 1.386 . S
C576 C578 1.391 . S
C577 C576 1.386 . S
C577 C581 1.393 . S
C578 H567 0.950 . S
C578 C576 1.391 . S
C578 C579 1.400 . S
C579 C573 1.491 . S
C579 C578 1.400 . S
C579 C580 1.398 . S
C580 H568 0.950 . S
C580 C579 1.398 . S
C580 C581 1.391 . S
C581 H569 0.950 . S
C581 C577 1.393 . S
C581 C580 1.391 . S
H582 C590 0.950 . S
H583 C595 0.950 . S
H584 C592 0.950 . S
H585 C594 0.950 . S
H586 C596 0.950 . S
H587 C598 0.950 . S
H588 C600 0.950 . S
H589 C601 0.950 . S
C590 H582 0.950 . S
C590 C591 1.386 . S
C590 C592 1.391 . S
C591 C590 1.386 . S
C591 C595 1.393 . S
C592 H584 0.950 . S
C592 C590 1.391 . S
C592 C593 1.400 . S
C593 C592 1.400 . S
C593 C594 1.398 . S
C593 C599 1.491 . S
C594 H585 0.950 . S
C594 C593 1.398 . S
C594 C595 1.391 . S
C595 H583 0.950 . S
C595 C591 1.393 . S
C595 C594 1.391 . S
C596 H586 0.950 . S
C596 C597 1.386 . S
C596 C598 1.391 . S
C597 C596 1.386 . S
C597 C601 1.393 . S
C598 H587 0.950 . S
C598 C596 1.391 . S
C598 C599 1.400 . S
C599 C593 1.491 . S
C599 C598 1.400 . S
C599 C600 1.398 . S
C600 H588 0.950 . S
C600 C599 1.398 . S
C600 C601 1.391 . S
C601 H589 0.950 . S
C601 C597 1.393 . S
C601 C600 1.391 . S
H602 C610 0.950 . S
H603 C615 0.950 . S
H604 C612 0.950 . S
H605 C614 0.950 . S
H606 C616 0.950 . S
H607 C618 0.950 . S
H608 C620 0.950 . S
H609 C621 0.950 . S
C610 H602 0.950 . S
C610 C611 1.386 . S
C610 C612 1.391 . S
C611 C610 1.386 . S
C611 C615 1.393 . S
C612 H604 0.950 . S
C612 C610 1.391 . S
C612 C613 1.400 . S
C613 C612 1.400 . S
C613 C614 1.398 . S
C613 C619 1.491 . S
C614 H605 0.950 . S
C614 C613 1.398 . S
C614 C615 1.391 . S
C615 H603 0.950 . S
C615 C611 1.393 . S
C615 C614 1.391 . S
C616 H606 0.950 . S
C616 C617 1.386 . S
C616 C618 1.391 . S
C617 C616 1.386 . S
C617 C621 1.393 . S
C618 H607 0.950 . S
C618 C616 1.391 . S
C618 C619 1.400 . S
C619 C613 1.491 . S
C619 C618 1.400 . S
C619 C620 1.398 . S
C620 H608 0.950 . S
C620 C619 1.398 . S
C620 C621 1.391 . S
C621 H609 0.950 . S
C621 C617 1.393 . S
C621 C620 1.391 . S
H622 C630 0.950 . S
H623 C635 0.950 . S
H624 C632 0.950 . S
H625 C634 0.950 . S
H626 C636 0.950 . S
H627 C638 0.950 . S
H628 C640 0.950 . S
H629 C641 0.950 . S
C630 H622 0.950 . S
C630 C631 1.386 . S
C630 C632 1.391 . S
C631 C630 1.386 . S
C631 C635 1.393 . S
C632 H624 0.950 . S
C632 C630 1.391 . S
C632 C633 1.400 . S
C633 C632 1.400 . S
C633 C634 1.398 . S
C633 C639 1.491 . S
C634 H625 0.950 . S
C634 C633 1.398 . S
C634 C635 1.391 . S
C635 H623 0.950 . S
C635 C631 1.393 . S
C635 C634 1.391 . S
C636 H626 0.950 . S
C636 C637 1.386 . S
C636 C638 1.391 . S
C637 C636 1.386 . S
C637 C641 1.393 . S
C638 H627 0.950 . S
C638 C636 1.391 . S
C638 C639 1.400 . S
C639 C633 1.491 . S
C639 C638 1.400 . S
C639 C640 1.398 . S
C640 H628 0.950 . S
C640 C639 1.398 . S
C640 C641 1.391 . S
C641 H629 0.950 . S
C641 C637 1.393 . S
C641 C640 1.391 . S
H642 C650 0.950 . S
H643 C655 0.950 . S
H644 C652 0.950 . S
H645 C654 0.950 . S
H646 C656 0.950 . S
H647 C658 0.950 . S
H648 C660 0.950 . S
H649 C661 0.950 . S
C650 H642 0.950 . S
C650 C651 1.386 . S
C650 C652 1.391 . S
C651 C650 1.386 . S
C651 C655 1.393 . S
C652 H644 0.950 . S
C652 C650 1.391 . S
C652 C653 1.400 . S
C653 C652 1.400 . S
C653 C654 1.398 . S
C653 C659 1.491 . S
C654 H645 0.950 . S
C654 C653 1.398 . S
C654 C655 1.391 . S
C655 H643 0.950 . S
C655 C651 1.393 . S
C655 C654 1.391 . S
C656 H646 0.950 . S
C656 C657 1.386 . S
C656 C658 1.391 . S
C657 C656 1.386 . S
C657 C661 1.393 . S
C658 H647 0.950 . S
C658 C656 1.391 . S
C658 C659 1.400 . S
C659 C653 1.491 . S
C659 C658 1.400 . S
C659 C660 1.398 . S
C660 H648 0.950 . S
C660 C659 1.398 . S
C660 C661 1.391 . S
C661 H649 0.950 . S
C661 C657 1.393 . S
C661 C660 1.391 . S
H662 C670 0.950 . S
H663 C675 0.950 . S
H664 C672 0.950 . S
H665 C674 0.950 . S
H666 C676 0.950 . S
H667 C678 0.950 . S
H668 C680 0.950 . S
H669 C681 0.950 . S
C670 H662 0.950 . S
C670 C671 1.386 . S
C670 C672 1.391 . S
C671 C670 1.386 . S
C671 C675 1.393 . S
C672 H664 0.950 . S
C672 C670 1.391 . S
C672 C673 1.400 . S
C673 C672 1.400 . S
C673 C674 1.398 . S
C673 C679 1.491 . S
C674 H665 0.950 . S
C674 C673 1.398 . S
C674 C675 1.391 . S
C675 H663 0.950 . S
C675 C671 1.393 . S
C675 C674 1.391 . S
C676 H666 0.950 . S
C676 C677 1.386 . S
C676 C678 1.391 . S
C677 C676 1.386 . S
C677 C681 1.393 . S
C678 H667 0.950 . S
C678 C676 1.391 . S
C678 C679 1.400 . S
C679 C673 1.491 . S
C679 C678 1.400 . S
C679 C680 1.398 . S
C680 H668 0.950 . S
C680 C679 1.398 . S
C680 C681 1.391 . S
C681 H669 0.950 . S
C681 C677 1.393 . S
C681 C680 1.391 . S
H682 C690 0.950 . S
H683 C695 0.950 . S
H684 C692 0.950 . S
H685 C694 0.950 . S
H686 C696 0.966 . S
H687 C698 0.950 . S
H688 C700 0.950 . S
H689 C701 0.950 . S
C690 H682 0.950 . S
C690 C691 1.386 . S
C690 C692 1.391 . S
C691 C690 1.386 . S
C691 C695 1.393 . S
C692 H684 0.950 . S
C692 C690 1.391 . S
C692 C693 1.400 . S
C693 C692 1.400 . S
C693 C694 1.398 . S
C693 C699 1.491 . S
C694 H685 0.950 . S
C694 C693 1.398 . S
C694 C695 1.391 . S
C695 H683 0.950 . S
C695 C691 1.393 . S
C695 C694 1.391 . S
C696 H686 0.966 . S
C696 C697 1.386 . S
C696 C698 1.391 . S
C697 C696 1.386 . S
C697 C701 1.393 . S
C698 H687 0.950 . S
C698 C696 1.391 . S
C698 C699 1.400 . S
C699 C693 1.491 . S
C699 C698 1.400 . S
C699 C700 1.398 . S
C700 H688 0.950 . S
C700 C699 1.398 . S
C700 C701 1.391 . S
C701 H689 0.950 . S
C701 C697 1.393 . S
C701 C700 1.391 . S
H702 C710 0.950 . S
H703 C715 0.950 . S
H704 C712 0.950 . S
H705 C714 0.950 . S
H706 C716 0.950 . S
H707 C718 0.950 . S
H708 C720 0.950 . S
H709 C721 0.950 . S
C710 H702 0.950 . S
C710 C711 1.386 . S
C710 C712 1.391 . S
C711 C710 1.386 . S
C711 C715 1.393 . S
C712 H704 0.950 . S
C712 C710 1.391 . S
C712 C713 1.400 . S
C713 C712 1.400 . S
C713 C714 1.398 . S
C713 C719 1.491 . S
C714 H705 0.950 . S
C714 C713 1.398 . S
C714 C715 1.391 . S
C715 H703 0.950 . S
C715 C711 1.393 . S
C715 C714 1.391 . S
C716 H706 0.950 . S
C716 C717 1.386 . S
C716 C718 1.391 . S
C717 C716 1.386 . S
C717 C721 1.393 . S
C718 H707 0.950 . S
C718 C716 1.391 . S
C718 C719 1.400 . S
C719 C713 1.491 . S
C719 C718 1.400 . S
C719 C720 1.398 . S
C720 H708 0.950 . S
C720 C719 1.398 . S
C720 C721 1.391 . S
C721 H709 0.950 . S
C721 C717 1.393 . S
C721 C720 1.391 . S
H722 C730 0.950 . S
H723 C735 0.950 . S
H724 C732 0.950 . S
H725 C734 0.950 . S
H726 C736 0.950 . S
H727 C738 0.950 . S
H728 C740 0.950 . S
H729 C741 0.950 . S
C730 H722 0.950 . S
C730 C731 1.386 . S
C730 C732 1.391 . S
C731 C730 1.386 . S
C731 C735 1.393 . S
C732 H724 0.950 . S
C732 C730 1.391 . S
C732 C733 1.400 . S
C733 C732 1.400 . S
C733 C734 1.398 . S
C733 C739 1.491 . S
C734 H725 0.950 . S
C734 C733 1.398 . S
C734 C735 1.391 . S
C735 H723 0.950 . S
C735 C731 1.393 . S
C735 C734 1.391 . S
C736 H726 0.950 . S
C736 C737 1.386 . S
C736 C738 1.391 . S
C737 C736 1.386 . S
C737 C741 1.393 . S
C738 H727 0.950 . S
C738 C736 1.391 . S
C738 C739 1.400 . S
C739 C733 1.491 . S
C739 C738 1.400 . S
C739 C740 1.398 . S
C740 H728 0.950 . S
C740 C739 1.398 . S
C740 C741 1.391 . S
C741 H729 0.950 . S
C741 C737 1.393 . S
C741 C740 1.391 . S
H742 C750 0.950 . S
H743 C755 0.950 . S
H744 C752 0.950 . S
H745 C754 0.950 . S
H746 C756 0.950 . S
H747 C758 0.950 . S
H748 C760 0.950 . S
H749 C761 0.950 . S
C750 H742 0.950 . S
C750 C751 1.386 . S
C750 C752 1.391 . S
C751 C750 1.386 . S
C751 C755 1.393 . S
C752 H744 0.950 . S
C752 C750 1.391 . S
C752 C753 1.400 . S
C753 C752 1.400 . S
C753 C754 1.398 . S
C753 C759 1.491 . S
C754 H745 0.950 . S
C754 C753 1.398 . S
C754 C755 1.391 . S
C755 H743 0.950 . S
C755 C751 1.393 . S
C755 C754 1.391 . S
C756 H746 0.950 . S
C756 C757 1.386 . S
C756 C758 1.391 . S
C757 C756 1.386 . S
C757 C761 1.393 . S
C758 H747 0.950 . S
C758 C756 1.391 . S
C758 C759 1.400 . S
C759 C753 1.491 . S
C759 C758 1.400 . S
C759 C760 1.398 . S
C760 H748 0.950 . S
C760 C759 1.398 . S
C760 C761 1.391 . S
C761 H749 0.950 . S
C761 C757 1.393 . S
C761 C760 1.391 . S
H762 C770 0.950 . S
H763 C775 0.950 . S
H764 C772 0.950 . S
H765 C774 0.950 . S
H766 C776 0.950 . S
H767 C778 0.950 . S
H768 C780 0.950 . S
H769 C781 0.950 . S
C770 H762 0.950 . S
C770 C771 1.386 . S
C770 C772 1.391 . S
C771 C770 1.386 . S
C771 C775 1.393 . S
C772 H764 0.950 . S
C772 C770 1.391 . S
C772 C773 1.400 . S
C773 C772 1.400 . S
C773 C774 1.398 . S
C773 C779 1.491 . S
C774 H765 0.950 . S
C774 C773 1.398 . S
C774 C775 1.391 . S
C775 H763 0.950 . S
C775 C771 1.393 . S
C775 C774 1.391 . S
C776 H766 0.950 . S
C776 C777 1.386 . S
C776 C778 1.391 . S
C777 C776 1.386 . S
C777 C781 1.393 . S
C778 H767 0.950 . S
C778 C776 1.391 . S
C778 C779 1.400 . S
C779 C773 1.491 . S
C779 C778 1.400 . S
C779 C780 1.398 . S
C780 H768 0.950 . S
C780 C779 1.398 . S
C780 C781 1.391 . S
C781 H769 0.950 . S
C781 C777 1.393 . S
C781 C780 1.391 . S
H782 C790 0.950 . S
H783 C795 0.950 . S
H784 C792 0.950 . S
H785 C794 0.950 . S
H786 C796 0.950 . S
H787 C798 0.950 . S
H788 C800 0.950 . S
H789 C801 0.950 . S
C790 H782 0.950 . S
C790 C791 1.386 . S
C790 C792 1.391 . S
C791 C790 1.386 . S
C791 C795 1.393 . S
C792 H784 0.950 . S
C792 C790 1.391 . S
C792 C793 1.400 . S
C793 C792 1.400 . S
C793 C794 1.398 . S
C793 C799 1.491 . S
C794 H785 0.950 . S
C794 C793 1.398 . S
C794 C795 1.391 . S
C795 H783 0.950 . S
C795 C791 1.393 . S
C795 C794 1.391 . S
C796 H786 0.950 . S
C796 C797 1.386 . S
C796 C798 1.391 . S
C797 C796 1.386 . S
C797 C801 1.393 . S
C798 H787 0.950 . S
C798 C796 1.391 . S
C798 C799 1.400 . S
C799 C793 1.491 . S
C799 C798 1.400 . S
C799 C800 1.398 . S
C800 H788 0.950 . S
C800 C799 1.398 . S
C800 C801 1.391 . S
C801 H789 0.950 . S
C801 C797 1.393 . S
C801 C800 1.391 . S
H802 C810 0.950 . S
H803 C815 0.950 . S
H804 C812 0.950 . S
H805 C814 0.950 . S
H806 C816 0.950 . S
H807 C818 0.950 . S
H808 C820 0.950 . S
H809 C821 0.950 . S
C810 H802 0.950 . S
C810 C811 1.386 . S
C810 C812 1.391 . S
C811 C810 1.386 . S
C811 C815 1.393 . S
C812 H804 0.950 . S
C812 C810 1.391 . S
C812 C813 1.400 . S
C813 C812 1.400 . S
C813 C814 1.398 . S
C813 C819 1.491 . S
C814 H805 0.950 . S
C814 C813 1.398 . S
C814 C815 1.391 . S
C815 H803 0.950 . S
C815 C811 1.393 . S
C815 C814 1.391 . S
C816 H806 0.950 . S
C816 C817 1.386 . S
C816 C818 1.391 . S
C817 C816 1.386 . S
C817 C821 1.393 . S
C818 H807 0.950 . S
C818 C816 1.391 . S
C818 C819 1.400 . S
C819 C813 1.491 . S
C819 C818 1.400 . S
C819 C820 1.398 . S
C820 H808 0.950 . S
C820 C819 1.398 . S
C820 C821 1.391 . S
C821 H809 0.950 . S
C821 C817 1.393 . S
C821 C820 1.391 . S
H822 C830 0.950 . S
H823 C835 0.950 . S
H824 C832 0.950 . S
H825 C834 0.950 . S
H826 C836 0.950 . S
H827 C838 0.950 . S
H828 C840 0.950 . S
H829 C841 0.950 . S
C830 H822 0.950 . S
C830 C831 1.386 . S
C830 C832 1.391 . S
C831 C830 1.386 . S
C831 C835 1.393 . S
C832 H824 0.950 . S
C832 C830 1.391 . S
C832 C833 1.400 . S
C833 C832 1.400 . S
C833 C834 1.398 . S
C833 C839 1.491 . S
C834 H825 0.950 . S
C834 C833 1.398 . S
C834 C835 1.391 . S
C835 H823 0.950 . S
C835 C831 1.393 . S
C835 C834 1.391 . S
C836 H826 0.950 . S
C836 C837 1.386 . S
C836 C838 1.391 . S
C837 C836 1.386 . S
C837 C841 1.393 . S
C838 H827 0.950 . S
C838 C836 1.391 . S
C838 C839 1.400 . S
C839 C833 1.491 . S
C839 C838 1.400 . S
C839 C840 1.398 . S
C840 H828 0.950 . S
C840 C839 1.398 . S
C840 C841 1.391 . S
C841 H829 0.950 . S
C841 C837 1.393 . S
C841 C840 1.391 . S
H842 C850 0.950 . S
H843 C855 0.950 . S
H844 C852 0.950 . S
H845 C854 0.950 . S
H846 C856 0.950 . S
H847 C858 0.950 . S
H848 C860 0.950 . S
H849 C861 0.950 . S
C850 H842 0.950 . S
C850 C851 1.386 . S
C850 C852 1.391 . S
C851 C850 1.386 . S
C851 C855 1.393 . S
C852 H844 0.950 . S
C852 C850 1.391 . S
C852 C853 1.400 . S
C853 C852 1.400 . S
C853 C854 1.398 . S
C853 C859 1.491 . S
C854 H845 0.950 . S
C854 C853 1.398 . S
C854 C855 1.391 . S
C855 H843 0.950 . S
C855 C851 1.393 . S
C855 C854 1.391 . S
C856 H846 0.950 . S
C856 C857 1.386 . S
C856 C858 1.391 . S
C857 C856 1.386 . S
C857 C861 1.393 . S
C858 H847 0.950 . S
C858 C856 1.391 . S
C858 C859 1.400 . S
C859 C853 1.491 . S
C859 C858 1.400 . S
C859 C860 1.398 . S
C860 H848 0.950 . S
C860 C859 1.398 . S
C860 C861 1.391 . S
C861 H849 0.950 . S
C861 C857 1.393 . S
C861 C860 1.391 . S
H862 C870 0.950 . S
H863 C875 0.950 . S
H864 C872 0.950 . S
H865 C874 0.950 . S
H866 C876 0.950 . S
H867 C878 0.950 . S
H868 C880 0.950 . S
H869 C881 0.950 . S
C870 H862 0.950 . S
C870 C871 1.386 . S
C870 C872 1.391 . S
C871 C870 1.386 . S
C871 C875 1.393 . S
C872 H864 0.950 . S
C872 C870 1.391 . S
C872 C873 1.400 . S
C873 C872 1.400 . S
C873 C874 1.398 . S
C873 C879 1.491 . S
C874 H865 0.950 . S
C874 C873 1.398 . S
C874 C875 1.391 . S
C875 H863 0.950 . S
C875 C871 1.393 . S
C875 C874 1.391 . S
C876 H866 0.950 . S
C876 C877 1.386 . S
C876 C878 1.391 . S
C877 C876 1.386 . S
C877 C881 1.393 . S
C878 H867 0.950 . S
C878 C876 1.391 . S
C878 C879 1.400 . S
C879 C873 1.491 . S
C879 C878 1.400 . S
C879 C880 1.398 . S
C880 H868 0.950 . S
C880 C879 1.398 . S
C880 C881 1.391 . S
C881 H869 0.950 . S
C881 C877 1.393 . S
C881 C880 1.391 . S
H882 C890 0.950 . S
H883 C895 0.950 . S
H884 C892 0.950 . S
H885 C894 0.950 . S
H886 C896 0.950 . S
H887 C898 0.950 . S
H888 C900 0.950 . S
H889 C901 0.950 . S
C890 H882 0.950 . S
C890 C891 1.386 . S
C890 C892 1.391 . S
C891 C890 1.386 . S
C891 C895 1.393 . S
C892 H884 0.950 . S
C892 C890 1.391 . S
C892 C893 1.400 . S
C893 C892 1.400 . S
C893 C894 1.398 . S
C893 C899 1.491 . S
C894 H885 0.950 . S
C894 C893 1.398 . S
C894 C895 1.391 . S
C895 H883 0.950 . S
C895 C891 1.393 . S
C895 C894 1.391 . S
C896 H886 0.950 . S
C896 C897 1.386 . S
C896 C898 1.391 . S
C897 C896 1.386 . S
C897 C901 1.393 . S
C898 H887 0.950 . S
C898 C896 1.391 . S
C898 C899 1.400 . S
C899 C893 1.491 . S
C899 C898 1.400 . S
C899 C900 1.398 . S
C900 H888 0.950 . S
C900 C899 1.398 . S
C900 C901 1.391 . S
C901 H889 0.950 . S
C901 C897 1.393 . S
C901 C900 1.391 . S
C437 C126 1.380 . S
C431 N2 1.385 . S
C457 C195 1.604 . S
C451 N15 1.626 . S
C477 C133 1.549 . S
C471 N27 1.521 . S
C497 C196 1.803 . S
C491 N44 1.820 . S
C517 C249 1.679 . S
C511 N1 1.702 . S
C537 C285 1.740 . S
C531 N18 1.728 . S
C551 N28 1.733 . S
C557 C345 1.691 . S
C577 C408 1.662 . S
C571 N41 1.671 . S
C597 C248 1.654 . S
C591 N14 1.669 . S
C611 N31 1.667 . S
C617 C292 1.674 . S
C637 C338 1.915 . S
C631 N40 1.929 . S
C657 C407 1.722 . S
C651 N5 1.750 . S
C671 N53 1.937 . S
C677 C186 1.903 . S
C697 C143 1.620 1_655 S
C691 N70 1.608 . S
C711 N80 1.689 . S
C717 C179 1.652 . S
C731 N92 1.603 . S
C737 C142 1.604 . S
C757 C354 1.896 . S
C751 N57 1.922 . S
C777 C398 1.547 . S
C771 N67 1.558 . S
C797 C232 1.731 . S
C791 N83 1.754 . S
C811 N96 1.632 . S
C817 C301 1.635 . S
C837 C355 1.724 . S
C831 N66 1.756 . S
C857 C391 1.613 . S
C851 N79 1.637 . S
C877 C239 1.666 . S
C871 N93 1.696 . S
C891 N54 1.475 . S
C897 C302 1.476 . S
