# Generated by pormake.
# Topology ctn, (3,4)-cn, num edge types: 1
# Building blocks:
#     Node 0, Type 0, BuildingBlock: KAKCAD_clean_linker_0, # of connection points: 3
#     Node 1, Type 0, BuildingBlock: KAKCAD_clean_linker_0, # of connection points: 3
#     Node 2, Type 0, BuildingBlock: KAKCAD_clean_linker_0, # of connection points: 3
#     Node 3, Type 0, BuildingBlock: KAKCAD_clean_linker_0, # of connection points: 3
#     Node 4, Type 0, BuildingBlock: KAKCAD_clean_linker_0, # of connection points: 3
#     Node 5, Type 0, BuildingBlock: KAKCAD_clean_linker_0, # of connection points: 3
#     Node 6, Type 0, BuildingBlock: KAKCAD_clean_linker_0, # of connection points: 3
#     Node 7, Type 0, BuildingBlock: KAKCAD_clean_linker_0, # of connection points: 3
#     Node 8, Type 0, BuildingBlock: KAKCAD_clean_linker_0, # of connection points: 3
#     Node 9, Type 0, BuildingBlock: KAKCAD_clean_linker_0, # of connection points: 3
#     Node 10, Type 0, BuildingBlock: KAKCAD_clean_linker_0, # of connection points: 3
#     Node 11, Type 0, BuildingBlock: KAKCAD_clean_linker_0, # of connection points: 3
#     Node 12, Type 0, BuildingBlock: KAKCAD_clean_linker_0, # of connection points: 3
#     Node 13, Type 0, BuildingBlock: KAKCAD_clean_linker_0, # of connection points: 3
#     Node 14, Type 0, BuildingBlock: KAKCAD_clean_linker_0, # of connection points: 3
#     Node 15, Type 0, BuildingBlock: KAKCAD_clean_linker_0, # of connection points: 3
#     Node 16, Type 1, BuildingBlock: QUQFOY_clean_sbu_1, # of connection points: 4
#     Node 17, Type 1, BuildingBlock: QUQFOY_clean_sbu_1, # of connection points: 4
#     Node 18, Type 1, BuildingBlock: QUQFOY_clean_sbu_1, # of connection points: 4
#     Node 19, Type 1, BuildingBlock: QUQFOY_clean_sbu_1, # of connection points: 4
#     Node 20, Type 1, BuildingBlock: QUQFOY_clean_sbu_1, # of connection points: 4
#     Node 21, Type 1, BuildingBlock: QUQFOY_clean_sbu_1, # of connection points: 4
#     Node 22, Type 1, BuildingBlock: QUQFOY_clean_sbu_1, # of connection points: 4
#     Node 23, Type 1, BuildingBlock: QUQFOY_clean_sbu_1, # of connection points: 4
#     Node 24, Type 1, BuildingBlock: QUQFOY_clean_sbu_1, # of connection points: 4
#     Node 25, Type 1, BuildingBlock: QUQFOY_clean_sbu_1, # of connection points: 4
#     Node 26, Type 1, BuildingBlock: QUQFOY_clean_sbu_1, # of connection points: 4
#     Node 27, Type 1, BuildingBlock: QUQFOY_clean_sbu_1, # of connection points: 4
#     Edge 28, Type (0, 1), BuildingBlock: TEMPAE_clean_linker_10, # of connection points: 2
#     Edge 29, Type (0, 1), BuildingBlock: TEMPAE_clean_linker_10, # of connection points: 2
#     Edge 30, Type (0, 1), BuildingBlock: TEMPAE_clean_linker_10, # of connection points: 2
#     Edge 31, Type (0, 1), BuildingBlock: TEMPAE_clean_linker_10, # of connection points: 2
#     Edge 32, Type (0, 1), BuildingBlock: TEMPAE_clean_linker_10, # of connection points: 2
#     Edge 33, Type (0, 1), BuildingBlock: TEMPAE_clean_linker_10, # of connection points: 2
#     Edge 34, Type (0, 1), BuildingBlock: TEMPAE_clean_linker_10, # of connection points: 2
#     Edge 35, Type (0, 1), BuildingBlock: TEMPAE_clean_linker_10, # of connection points: 2
#     Edge 36, Type (0, 1), BuildingBlock: TEMPAE_clean_linker_10, # of connection points: 2
#     Edge 37, Type (0, 1), BuildingBlock: TEMPAE_clean_linker_10, # of connection points: 2
#     Edge 38, Type (0, 1), BuildingBlock: TEMPAE_clean_linker_10, # of connection points: 2
#     Edge 39, Type (0, 1), BuildingBlock: TEMPAE_clean_linker_10, # of connection points: 2
#     Edge 40, Type (0, 1), BuildingBlock: TEMPAE_clean_linker_10, # of connection points: 2
#     Edge 41, Type (0, 1), BuildingBlock: TEMPAE_clean_linker_10, # of connection points: 2
#     Edge 42, Type (0, 1), BuildingBlock: TEMPAE_clean_linker_10, # of connection points: 2
#     Edge 43, Type (0, 1), BuildingBlock: TEMPAE_clean_linker_10, # of connection points: 2
#     Edge 44, Type (0, 1), BuildingBlock: TEMPAE_clean_linker_10, # of connection points: 2
#     Edge 45, Type (0, 1), BuildingBlock: TEMPAE_clean_linker_10, # of connection points: 2
#     Edge 46, Type (0, 1), BuildingBlock: TEMPAE_clean_linker_10, # of connection points: 2
#     Edge 47, Type (0, 1), BuildingBlock: TEMPAE_clean_linker_10, # of connection points: 2
#     Edge 48, Type (0, 1), BuildingBlock: TEMPAE_clean_linker_10, # of connection points: 2
#     Edge 49, Type (0, 1), BuildingBlock: TEMPAE_clean_linker_10, # of connection points: 2
#     Edge 50, Type (0, 1), BuildingBlock: TEMPAE_clean_linker_10, # of connection points: 2
#     Edge 51, Type (0, 1), BuildingBlock: TEMPAE_clean_linker_10, # of connection points: 2
#     Edge 52, Type (0, 1), BuildingBlock: TEMPAE_clean_linker_10, # of connection points: 2
#     Edge 53, Type (0, 1), BuildingBlock: TEMPAE_clean_linker_10, # of connection points: 2
#     Edge 54, Type (0, 1), BuildingBlock: TEMPAE_clean_linker_10, # of connection points: 2
#     Edge 55, Type (0, 1), BuildingBlock: TEMPAE_clean_linker_10, # of connection points: 2
#     Edge 56, Type (0, 1), BuildingBlock: TEMPAE_clean_linker_10, # of connection points: 2
#     Edge 57, Type (0, 1), BuildingBlock: TEMPAE_clean_linker_10, # of connection points: 2
#     Edge 58, Type (0, 1), BuildingBlock: TEMPAE_clean_linker_10, # of connection points: 2
#     Edge 59, Type (0, 1), BuildingBlock: TEMPAE_clean_linker_10, # of connection points: 2
#     Edge 60, Type (0, 1), BuildingBlock: TEMPAE_clean_linker_10, # of connection points: 2
#     Edge 61, Type (0, 1), BuildingBlock: TEMPAE_clean_linker_10, # of connection points: 2
#     Edge 62, Type (0, 1), BuildingBlock: TEMPAE_clean_linker_10, # of connection points: 2
#     Edge 63, Type (0, 1), BuildingBlock: TEMPAE_clean_linker_10, # of connection points: 2
#     Edge 64, Type (0, 1), BuildingBlock: TEMPAE_clean_linker_10, # of connection points: 2
#     Edge 65, Type (0, 1), BuildingBlock: TEMPAE_clean_linker_10, # of connection points: 2
#     Edge 66, Type (0, 1), BuildingBlock: TEMPAE_clean_linker_10, # of connection points: 2
#     Edge 67, Type (0, 1), BuildingBlock: TEMPAE_clean_linker_10, # of connection points: 2
#     Edge 68, Type (0, 1), BuildingBlock: TEMPAE_clean_linker_10, # of connection points: 2
#     Edge 69, Type (0, 1), BuildingBlock: TEMPAE_clean_linker_10, # of connection points: 2
#     Edge 70, Type (0, 1), BuildingBlock: TEMPAE_clean_linker_10, # of connection points: 2
#     Edge 71, Type (0, 1), BuildingBlock: TEMPAE_clean_linker_10, # of connection points: 2
#     Edge 72, Type (0, 1), BuildingBlock: TEMPAE_clean_linker_10, # of connection points: 2
#     Edge 73, Type (0, 1), BuildingBlock: TEMPAE_clean_linker_10, # of connection points: 2
#     Edge 74, Type (0, 1), BuildingBlock: TEMPAE_clean_linker_10, # of connection points: 2
#     Edge 75, Type (0, 1), BuildingBlock: TEMPAE_clean_linker_10, # of connection points: 2
# Relax obj value: 0.036
# Max RMSD: 0.144
# Mean RMSD: 0.065
data_MOF--net-ctn--node1-QUQFOY_clean_sbu_1--node2-KAKCAD_clean_linker_0--edge1-TEMPAE_clean_linker_10
_symmetry_space_group_name_H-M    P1
_symmetry_Int_Tables_number       1
_symmetry_cell_setting            triclinic
loop_
_symmetry_equiv_pos_as_xyz
'x, y, z'
_cell_length_a     68.167581
_cell_length_b     68.019899
_cell_length_c     68.126531
_cell_angle_alpha  92.893535
_cell_angle_beta   90.409347
_cell_angle_gamma 94.766502
loop_
_atom_site_label
_atom_site_type_symbol
_atom_site_fract_x
_atom_site_fract_y
_atom_site_fract_z
_atom_type_partial_charge
C0 C 0.06859 0.1403 0.02529 0.0
C1 C 0.0664 0.16063 0.02829 0.0
C2 C 0.07219 0.1288 0.04112 0.0
C3 C 0.0734 0.13726 0.06035 0.0
C4 C 0.07165 0.15758 0.06343 0.0
C5 C 0.0684 0.1692 0.04754 0.0
C6 C 0.07517 0.12452 0.07714 0.0
C7 C 0.08949 0.11086 0.07708 0.0
C8 C 0.08977 0.09693 0.09162 0.0
C9 C 0.07578 0.09734 0.10667 0.0
C10 C 0.06121 0.11086 0.10693 0.0
C11 C 0.06121 0.12458 0.09218 0.0
C12 C 0.04499 0.10939 0.12148 0.0
C13 C 0.03721 0.09075 0.12719 0.0
C14 C 0.0366 0.12635 0.12917 0.0
C15 C 0.02071 0.12464 0.14209 0.0
C16 C 0.01318 0.10598 0.14779 0.0
C17 C 0.10324 0.08074 0.09003 0.0
C18 C 0.10754 0.07219 0.07147 0.0
C19 C 0.11075 0.07271 0.10693 0.0
C20 C 0.12159 0.05611 0.1053 0.0
C21 C 0.1255 0.04751 0.08674 0.0
C22 C 0.11866 0.05589 0.06986 0.0
C23 C 0.02164 0.0891 0.1403 0.0
H24 H 0.06677 0.13303 0.01081 0.0
H25 H 0.07323 0.11309 0.0384 0.0
H26 H 0.07266 0.16444 0.07815 0.0
H27 H 0.06722 0.18485 0.05042 0.0
H28 H 0.10021 0.11092 0.0654 0.0
H29 H 0.04961 0.13451 0.09161 0.0
H30 H 0.0757 0.08654 0.11781 0.0
H31 H 0.04277 0.07729 0.12117 0.0
H32 H 0.0423 0.14094 0.12525 0.0
H33 H 0.01441 0.13787 0.14772 0.0
H34 H 0.10168 0.07753 0.05812 0.0
H35 H 0.10807 0.07907 0.12145 0.0
H36 H 0.01583 0.07451 0.1442 0.0
H37 H 0.12127 0.04933 0.05538 0.0
H38 H 0.12684 0.04994 0.11851 0.0
C39 C 0.34711 0.7592 0.26027 0.0
C40 C 0.35903 0.74335 0.26116 0.0
C41 C 0.32906 0.75683 0.25027 0.0
C42 C 0.32255 0.73856 0.24088 0.0
C43 C 0.33484 0.72295 0.24109 0.0
C44 C 0.35287 0.72531 0.25115 0.0
C45 C 0.30258 0.73549 0.23187 0.0
C46 C 0.29491 0.75026 0.2211 0.0
C47 C 0.27572 0.74759 0.21319 0.0
C48 C 0.26405 0.73006 0.21638 0.0
C49 C 0.27158 0.71522 0.22701 0.0
C50 C 0.2908 0.71792 0.2346 0.0
C51 C 0.25929 0.69698 0.2307 0.0
C52 C 0.24255 0.69775 0.24242 0.0
C53 C 0.26477 0.67867 0.22329 0.0
C54 C 0.25362 0.66127 0.22753 0.0
C55 C 0.23702 0.66184 0.23968 0.0
C56 C 0.26817 0.76279 0.20101 0.0
C57 C 0.27052 0.78288 0.20716 0.0
C58 C 0.25917 0.75729 0.18275 0.0
C59 C 0.25311 0.77161 0.17061 0.0
C60 C 0.2557 0.79179 0.17655 0.0
C61 C 0.26426 0.79724 0.1951 0.0
C62 C 0.23163 0.68034 0.24705 0.0
H63 H 0.3516 0.77338 0.2676 0.0
H64 H 0.31991 0.76911 0.25049 0.0
H65 H 0.33037 0.70878 0.23374 0.0
H66 H 0.36165 0.71278 0.25165 0.0
H67 H 0.30406 0.76365 0.21844 0.0
H68 H 0.2963 0.70655 0.24322 0.0
H69 H 0.24914 0.72791 0.21056 0.0
H70 H 0.23827 0.71178 0.24845 0.0
H71 H 0.27766 0.67785 0.21415 0.0
H72 H 0.25801 0.64741 0.22122 0.0
H73 H 0.27724 0.78749 0.22128 0.0
H74 H 0.25742 0.74192 0.17754 0.0
H75 H 0.21923 0.68142 0.25677 0.0
H76 H 0.26622 0.8126 0.20027 0.0
H77 H 0.247 0.76685 0.15627 0.0
C78 C 0.97361 0.47182 0.14079 0.0
C79 C 0.99268 0.46596 0.13748 0.0
C80 C 0.95941 0.46973 0.12574 0.0
C81 C 0.96402 0.46185 0.10703 0.0
C82 C 0.98304 0.45582 0.10385 0.0
C83 C 0.99711 0.45769 0.11891 0.0
C84 C 0.94941 0.46037 0.09059 0.0
C85 C 0.93701 0.47552 0.08779 0.0
C86 C 0.92484 0.47505 0.071 0.0
C87 C 0.92506 0.4592 0.05694 0.0
C88 C 0.93727 0.44392 0.05963 0.0
C89 C 0.94895 0.4444 0.07669 0.0
C90 C 0.93914 0.42811 0.04416 0.0
C91 C 0.9225 0.41791 0.03498 0.0
C92 C 0.95795 0.42291 0.03878 0.0
C93 C 0.96012 0.40747 0.02499 0.0
C94 C 0.94354 0.3968 0.01623 0.0
C95 C 0.91297 0.49182 0.06751 0.0
C96 C 0.90068 0.49899 0.08222 0.0
C97 C 0.91422 0.50105 0.04953 0.0
C98 C 0.90344 0.51718 0.04633 0.0
C99 C 0.891 0.52424 0.06094 0.0
C100 C 0.88963 0.51496 0.07889 0.0
C101 C 0.92468 0.40234 0.02112 0.0
H102 H 0.96976 0.47846 0.15488 0.0
H103 H 0.94487 0.47437 0.12875 0.0
H104 H 0.98729 0.45001 0.08956 0.0
H105 H 0.01155 0.45279 0.11591 0.0
H106 H 0.93754 0.48823 0.09809 0.0
H107 H 0.95804 0.43235 0.07896 0.0
H108 H 0.91613 0.45905 0.04369 0.0
H109 H 0.90784 0.42164 0.03888 0.0
H110 H 0.97106 0.43083 0.04526 0.0
H111 H 0.97485 0.40392 0.02114 0.0
H112 H 0.89947 0.49209 0.0962 0.0
H113 H 0.92374 0.49592 0.03803 0.0
H114 H 0.91164 0.39435 0.01458 0.0
H115 H 0.88014 0.52016 0.09038 0.0
H116 H 0.90459 0.52397 0.03228 0.0
C117 C 0.71894 0.7544 0.17828 0.0
C118 C 0.73849 0.75293 0.17238 0.0
C119 C 0.71446 0.76837 0.19293 0.0
C120 C 0.72944 0.78118 0.20206 0.0
C121 C 0.74908 0.77926 0.19661 0.0
C122 C 0.75355 0.76531 0.1819 0.0
C123 C 0.72438 0.79715 0.21638 0.0
C124 C 0.70942 0.79363 0.23019 0.0
C125 C 0.70347 0.80905 0.24275 0.0
C126 C 0.71278 0.82815 0.24134 0.0
C127 C 0.72813 0.83169 0.2281 0.0
C128 C 0.73391 0.81622 0.2157 0.0
C129 C 0.73847 0.85154 0.22758 0.0
C130 C 0.72862 0.86753 0.22158 0.0
C131 C 0.75819 0.85461 0.23365 0.0
C132 C 0.76789 0.87352 0.23411 0.0
C133 C 0.75818 0.88972 0.22803 0.0
C134 C 0.68752 0.80527 0.25726 0.0
C135 C 0.67119 0.79179 0.25256 0.0
C136 C 0.68838 0.81529 0.27586 0.0
C137 C 0.67311 0.81226 0.28923 0.0
C138 C 0.65671 0.7989 0.28447 0.0
C139 C 0.65607 0.78854 0.26605 0.0
C140 C 0.73844 0.88643 0.22159 0.0
H141 H 0.70697 0.7453 0.17102 0.0
H142 H 0.69916 0.76964 0.19655 0.0
H143 H 0.76099 0.78868 0.20359 0.0
H144 H 0.76878 0.76434 0.17782 0.0
H145 H 0.70262 0.77877 0.23131 0.0
H146 H 0.74544 0.81927 0.20513 0.0
H147 H 0.70823 0.84035 0.25058 0.0
H148 H 0.71337 0.86537 0.21678 0.0
H149 H 0.76595 0.84243 0.23853 0.0
H150 H 0.78288 0.87543 0.23966 0.0
H151 H 0.66986 0.78395 0.23832 0.0
H152 H 0.70086 0.82552 0.28017 0.0
H153 H 0.73054 0.89839 0.21649 0.0
H154 H 0.64385 0.77789 0.26196 0.0
H155 H 0.67405 0.82071 0.30316 0.0
C156 C -0.00055 0.96658 0.3883 0.0
C157 C 0.00344 0.98041 0.37385 0.0
C158 C 0.01349 0.96383 0.40275 0.0
C159 C 0.03208 0.97449 0.40287 0.0
C160 C 0.03645 0.98744 0.38774 0.0
C161 C 0.02227 0.99058 0.37364 0.0
C162 C 0.04646 0.97306 0.41924 0.0
C163 C 0.04778 0.95528 0.42869 0.0
C164 C 0.0605 0.95439 0.44491 0.0
C165 C 0.07274 0.97128 0.45096 0.0
C166 C 0.07181 0.98913 0.44166 0.0
C167 C 0.05837 0.98993 0.42609 0.0
C168 C 0.08472 0.007 0.44833 0.0
C169 C 0.08966 0.01076 0.46832 0.0
C170 C 0.09259 0.02025 0.43465 0.0
C171 C 0.10532 0.03658 0.44076 0.0
C172 C 0.11088 0.03988 0.46066 0.0
C173 C 0.05978 0.93656 0.45678 0.0
C174 C 0.04155 0.92644 0.46089 0.0
C175 C 0.07688 0.93088 0.46591 0.0
C176 C 0.0756 0.91646 0.47985 0.0
C177 C 0.05723 0.90718 0.48467 0.0
C178 C 0.04032 0.91184 0.47461 0.0
C179 C 0.10272 0.02685 0.47438 0.0
H180 H 0.98533 0.95807 0.38873 0.0
H181 H 0.00944 0.9538 0.41417 0.0
H182 H 0.05076 0.99555 0.38697 0.0
H183 H 0.02598 0.00153 0.363 0.0
H184 H 0.03883 0.94211 0.42352 0.0
H185 H 0.05674 0.00396 0.4197 0.0
H186 H 0.08273 0.97064 0.46328 0.0
H187 H 0.08356 0.0012 0.47938 0.0
H188 H 0.08929 0.0178 0.41911 0.0
H189 H 0.11098 0.04648 0.4298 0.0
H190 H 0.02804 0.93055 0.45439 0.0
H191 H 0.09122 0.93805 0.46277 0.0
H192 H 0.10679 0.0287 0.48979 0.0
H193 H 0.02594 0.90505 0.47821 0.0
H194 H 0.08888 0.91295 0.48727 0.0
C195 C 0.16554 0.75386 0.73318 0.0
C196 C 0.15949 0.77301 0.7318 0.0
C197 C 0.17883 0.74981 0.74785 0.0
C198 C 0.18638 0.76483 0.76144 0.0
C199 C 0.18098 0.78415 0.75951 0.0
C200 C 0.16766 0.78819 0.74487 0.0
C201 C 0.19881 0.76012 0.77829 0.0
C202 C 0.21352 0.74694 0.77577 0.0
C203 C 0.22456 0.74164 0.79193 0.0
C204 C 0.2208 0.74994 0.81073 0.0
C205 C 0.20638 0.76338 0.81345 0.0
C206 C 0.1954 0.76828 0.79718 0.0
C207 C 0.20289 0.77249 0.83325 0.0
C208 C 0.20245 0.76117 0.84998 0.0
C209 C 0.20029 0.79275 0.83556 0.0
C210 C 0.19768 0.80158 0.85418 0.0
C211 C 0.19763 0.79036 0.87095 0.0
C212 C 0.23969 0.72716 0.78932 0.0
C213 C 0.23649 0.71073 0.77597 0.0
C214 C 0.2572 0.7293 0.80057 0.0
C215 C 0.27082 0.71506 0.799 0.0
C216 C 0.26743 0.69844 0.78593 0.0
C217 C 0.25024 0.69664 0.7742 0.0
C218 C 0.19982 0.77002 0.86865 0.0
H219 H 0.15932 0.7418 0.72347 0.0
H220 H 0.18253 0.73473 0.74906 0.0
H221 H 0.18682 0.79612 0.76953 0.0
H222 H 0.1635 0.80315 0.74397 0.0
H223 H 0.21651 0.74101 0.76114 0.0
H224 H 0.18375 0.77805 0.79934 0.0
H225 H 0.2291 0.74594 0.82333 0.0
H226 H 0.20416 0.74548 0.84865 0.0
H227 H 0.2007 0.80191 0.82299 0.0
H228 H 0.19581 0.81725 0.85547 0.0
H229 H 0.22313 0.70844 0.76718 0.0
H230 H 0.26038 0.74194 0.81073 0.0
H231 H 0.19998 0.76102 0.88131 0.0
H232 H 0.24728 0.68423 0.76371 0.0
H233 H 0.28377 0.71689 0.80842 0.0
C234 C 0.95115 0.6514 0.48538 0.0
C235 C 0.94314 0.65299 0.50432 0.0
C236 C 0.94735 0.63414 0.47348 0.0
C237 C 0.93594 0.61777 0.48041 0.0
C238 C 0.92747 0.61965 0.49913 0.0
C239 C 0.93071 0.6371 0.51072 0.0
C240 C 0.93392 0.59842 0.46892 0.0
C241 C 0.94935 0.59243 0.45704 0.0
C242 C 0.94835 0.57349 0.44772 0.0
C243 C 0.93208 0.56008 0.45103 0.0
C244 C 0.91656 0.56566 0.46296 0.0
C245 C 0.91724 0.58512 0.47104 0.0
C246 C 0.90044 0.55083 0.4683 0.0
C247 C 0.89328 0.53548 0.45487 0.0
C248 C 0.89278 0.55141 0.48742 0.0
C249 C 0.87846 0.53702 0.493 0.0
C250 C 0.87168 0.52136 0.47979 0.0
C251 C 0.9646 0.56761 0.43495 0.0
C252 C 0.97294 0.5807 0.4214 0.0
C253 C 0.97182 0.54894 0.4361 0.0
C254 C 0.98699 0.54343 0.42386 0.0
C255 C 0.99526 0.55651 0.41026 0.0
C256 C 0.9881 0.57521 0.40918 0.0
C257 C 0.87918 0.52083 0.46059 0.0
H258 H 0.96089 0.66319 0.47988 0.0
H259 H 0.95376 0.63356 0.45899 0.0
H260 H 0.91883 0.60745 0.50529 0.0
H261 H 0.92374 0.63789 0.52493 0.0
H262 H 0.96261 0.60215 0.4556 0.0
H263 H 0.90483 0.58978 0.47937 0.0
H264 H 0.93173 0.54518 0.44456 0.0
H265 H 0.89863 0.53467 0.43995 0.0
H266 H 0.89814 0.56274 0.49834 0.0
H267 H 0.87274 0.53821 0.50776 0.0
H268 H 0.9675 0.59509 0.42 0.0
H269 H 0.96591 0.53866 0.44662 0.0
H270 H 0.87443 0.50891 0.45005 0.0
H271 H 0.99398 0.58548 0.39863 0.0
H272 H 0.99239 0.52902 0.42517 0.0
C273 C 0.81133 0.77699 0.86077 0.0
C274 C 0.79346 0.76728 0.86653 0.0
C275 C 0.81189 0.78917 0.84484 0.0
C276 C 0.7946 0.79185 0.83427 0.0
C277 C 0.77671 0.78226 0.84014 0.0
C278 C 0.77613 0.77015 0.85611 0.0
C279 C 0.79526 0.80432 0.81696 0.0
C280 C 0.81078 0.80359 0.8036 0.0
C281 C 0.81161 0.81527 0.78719 0.0
C282 C 0.7963 0.82735 0.78383 0.0
C283 C 0.78061 0.82841 0.79708 0.0
C284 C 0.78039 0.81693 0.81371 0.0
C285 C 0.76479 0.84187 0.79394 0.0
C286 C 0.76906 0.86017 0.78549 0.0
C287 C 0.74536 0.83679 0.79983 0.0
C288 C 0.73082 0.84992 0.79804 0.0
C289 C 0.73517 0.86835 0.78989 0.0
C290 C 0.82873 0.8151 0.77385 0.0
C291 C 0.84789 0.8151 0.78164 0.0
C292 C 0.82615 0.81504 0.75336 0.0
C293 C 0.84237 0.81488 0.74095 0.0
C294 C 0.86152 0.81476 0.74875 0.0
C295 C 0.86408 0.81488 0.76924 0.0
C296 C 0.75442 0.8731 0.78327 0.0
H297 H 0.82496 0.77498 0.86839 0.0
H298 H 0.82588 0.79655 0.84086 0.0
H299 H 0.76315 0.78385 0.8322 0.0
H300 H 0.76207 0.76311 0.86034 0.0
H301 H 0.82212 0.79363 0.8058 0.0
H302 H 0.76891 0.81815 0.8245 0.0
H303 H 0.79678 0.8361 0.77098 0.0
H304 H 0.78384 0.86483 0.78097 0.0
H305 H 0.74132 0.82268 0.80599 0.0
H306 H 0.71628 0.84575 0.80353 0.0
H307 H 0.85041 0.81541 0.79737 0.0
H308 H 0.81157 0.81488 0.7469 0.0
H309 H 0.75831 0.88692 0.7765 0.0
H310 H 0.8786 0.81457 0.77572 0.0
H311 H 0.83993 0.81499 0.72523 0.0
C312 C 0.30451 0.27418 0.3608 0.0
C313 C 0.28868 0.26002 0.36376 0.0
C314 C 0.30456 0.28608 0.34469 0.0
C315 C 0.28861 0.28438 0.33141 0.0
C316 C 0.27259 0.27064 0.33448 0.0
C317 C 0.27269 0.25844 0.35038 0.0
C318 C 0.28912 0.29633 0.31389 0.0
C319 C 0.30499 0.29572 0.30102 0.0
C320 C 0.30566 0.30669 0.28413 0.0
C321 C 0.29017 0.31833 0.28019 0.0
C322 C 0.27439 0.31971 0.2933 0.0
C323 C 0.27393 0.30836 0.31007 0.0
C324 C 0.25914 0.3338 0.29008 0.0
C325 C 0.2642 0.35181 0.28132 0.0
C326 C 0.23964 0.32985 0.29636 0.0
C327 C 0.22587 0.34384 0.29467 0.0
C328 C 0.2311 0.362 0.28626 0.0
C329 C 0.32281 0.30633 0.2709 0.0
C330 C 0.34201 0.30773 0.27878 0.0
C331 C 0.32015 0.30464 0.2504 0.0
C332 C 0.33638 0.30415 0.23803 0.0
C333 C 0.35558 0.30542 0.24593 0.0
C334 C 0.35822 0.30729 0.26643 0.0
C335 C 0.25033 0.36552 0.27917 0.0
H336 H 0.31686 0.27618 0.37099 0.0
H337 H 0.31702 0.29671 0.34263 0.0
H338 H 0.26024 0.26895 0.32426 0.0
H339 H 0.2604 0.24751 0.35191 0.0
H340 H 0.31668 0.28637 0.30399 0.0
H341 H 0.2622 0.30935 0.32062 0.0
H342 H 0.29069 0.32664 0.26703 0.0
H343 H 0.27906 0.35571 0.27656 0.0
H344 H 0.23498 0.31603 0.3028 0.0
H345 H 0.21129 0.34058 0.30047 0.0
H346 H 0.34452 0.30928 0.29452 0.0
H347 H 0.30551 0.30342 0.24392 0.0
H348 H 0.25486 0.37907 0.27215 0.0
H349 H 0.37283 0.3081 0.27295 0.0
H350 H 0.33392 0.30285 0.22228 0.0
C351 C 0.46662 0.95959 0.64289 0.0
C352 C 0.48681 0.95995 0.63846 0.0
C353 C 0.45249 0.95931 0.62783 0.0
C354 C 0.45833 0.95908 0.60813 0.0
C355 C 0.47842 0.95963 0.6037 0.0
C356 C 0.49249 0.9602 0.61867 0.0
C357 C 0.44372 0.95749 0.59191 0.0
C358 C 0.43023 0.97176 0.58997 0.0
C359 C 0.41819 0.97139 0.57305 0.0
C360 C 0.41936 0.95614 0.55842 0.0
C361 C 0.43274 0.94173 0.56038 0.0
C362 C 0.44468 0.94245 0.57726 0.0
C363 C 0.43538 0.9266 0.54443 0.0
C364 C 0.41916 0.91563 0.53526 0.0
C365 C 0.45448 0.92263 0.53874 0.0
C366 C 0.45737 0.90757 0.52473 0.0
C367 C 0.44124 0.8961 0.51603 0.0
C368 C 0.40576 0.98785 0.5698 0.0
C369 C 0.39393 0.99515 0.58486 0.0
C370 C 0.40615 0.99675 0.55163 0.0
C371 C 0.39498 0.01261 0.54855 0.0
C372 C 0.38308 0.0199 0.56353 0.0
C373 C 0.38257 0.01096 0.5817 0.0
C374 C 0.42207 0.90047 0.52116 0.0
H375 H 0.4617 0.95925 0.65795 0.0
H376 H 0.43703 0.95878 0.63152 0.0
H377 H 0.48324 0.9597 0.58858 0.0
H378 H 0.50788 0.96108 0.61468 0.0
H379 H 0.42997 0.98379 0.601 0.0
H380 H 0.45507 0.93138 0.57891 0.0
H381 H 0.41034 0.95586 0.54523 0.0
H382 H 0.40429 0.91839 0.53941 0.0
H383 H 0.46726 0.93116 0.5452 0.0
H384 H 0.4723 0.90489 0.5207 0.0
H385 H 0.39334 0.98854 0.599 0.0
H386 H 0.41534 0.99163 0.53985 0.0
H387 H 0.40937 0.89185 0.51467 0.0
H388 H 0.37355 0.01632 0.59351 0.0
H389 H 0.39548 0.01905 0.53432 0.0
C390 C 0.21945 0.25633 0.68542 0.0
C391 C 0.23771 0.25747 0.67584 0.0
C392 C 0.21573 0.2698 0.70083 0.0
C393 C 0.23037 0.28446 0.70757 0.0
C394 C 0.24887 0.2851 0.69848 0.0
C395 C 0.25239 0.27202 0.68269 0.0
C396 C 0.22627 0.2992 0.72371 0.0
C397 C 0.21302 0.29416 0.73876 0.0
C398 C 0.20879 0.30814 0.75365 0.0
C399 C 0.21837 0.32721 0.75391 0.0
C400 C 0.23169 0.33258 0.7391 0.0
C401 C 0.23533 0.31859 0.72396 0.0
C402 C 0.24185 0.35277 0.73943 0.0
C403 C 0.23163 0.36944 0.74435 0.0
C404 C 0.26198 0.35548 0.73508 0.0
C405 C 0.27175 0.37437 0.73591 0.0
C406 C 0.26163 0.391 0.74113 0.0
C407 C 0.19357 0.30314 0.76839 0.0
C408 C 0.17495 0.29468 0.76219 0.0
C409 C 0.19718 0.30754 0.78851 0.0
C410 C 0.18232 0.30372 0.80219 0.0
C411 C 0.16346 0.29569 0.79597 0.0
C412 C 0.16003 0.29114 0.77579 0.0
C413 C 0.24142 0.38836 0.74517 0.0
H414 H 0.20786 0.24512 0.68096 0.0
H415 H 0.20119 0.26886 0.70715 0.0
H416 H 0.26074 0.2958 0.70346 0.0
H417 H 0.26656 0.27369 0.67562 0.0
H418 H 0.20605 0.27929 0.73912 0.0
H419 H 0.2449 0.32308 0.71209 0.0
H420 H 0.21528 0.33793 0.76555 0.0
H421 H 0.21606 0.36786 0.74753 0.0
H422 H 0.2703 0.34294 0.73138 0.0
H423 H 0.28728 0.37595 0.73248 0.0
H424 H 0.17171 0.29142 0.74672 0.0
H425 H 0.2115 0.31394 0.79365 0.0
H426 H 0.23325 0.40088 0.74937 0.0
H427 H 0.14562 0.28538 0.77034 0.0
H428 H 0.1856 0.30713 0.81762 0.0
C429 C 0.83987 0.22682 0.78008 0.0
C430 C 0.85749 0.23325 0.77095 0.0
C431 C 0.82213 0.22512 0.7696 0.0
C432 C 0.8216 0.22991 0.7498 0.0
C433 C 0.83919 0.23642 0.74065 0.0
C434 C 0.85704 0.23796 0.75111 0.0
C435 C 0.80267 0.22779 0.73882 0.0
C436 C 0.79689 0.24302 0.72743 0.0
C437 C 0.7785 0.2412 0.71772 0.0
C438 C 0.76585 0.22402 0.71965 0.0
C439 C 0.77166 0.20865 0.73071 0.0
C440 C 0.79005 0.21055 0.74016 0.0
C441 C 0.75842 0.19067 0.73281 0.0
C442 C 0.74021 0.19184 0.742 0.0
C443 C 0.76436 0.17219 0.72647 0.0
C444 C 0.75227 0.15502 0.72941 0.0
C445 C 0.73421 0.15599 0.73916 0.0
C446 C 0.77259 0.25698 0.70523 0.0
C447 C 0.77551 0.27698 0.71165 0.0
C448 C 0.76415 0.25204 0.68659 0.0
C449 C 0.75891 0.26676 0.67453 0.0
C450 C 0.76187 0.2868 0.68085 0.0
C451 C 0.77016 0.29175 0.6996 0.0
C452 C 0.7283 0.17466 0.74533 0.0
H453 H 0.83984 0.22296 0.79531 0.0
H454 H 0.80875 0.2202 0.77705 0.0
H455 H 0.83918 0.24008 0.72536 0.0
H456 H 0.87042 0.24307 0.7438 0.0
H457 H 0.80669 0.25627 0.72617 0.0
H458 H 0.79445 0.19862 0.74875 0.0
H459 H 0.75151 0.22252 0.71249 0.0
H460 H 0.73551 0.20601 0.74716 0.0
H461 H 0.77836 0.17105 0.71925 0.0
H462 H 0.75714 0.141 0.72405 0.0
H463 H 0.7818 0.28119 0.72605 0.0
H464 H 0.76201 0.23677 0.68112 0.0
H465 H 0.71471 0.17604 0.75322 0.0
H466 H 0.77247 0.30703 0.70497 0.0
H467 H 0.75301 0.26242 0.66001 0.0
C468 C 0.55643 0.63367 0.51816 0.0
C469 C 0.55604 0.65429 0.52083 0.0
C470 C 0.5598 0.62219 0.53408 0.0
C471 C 0.5626 0.63101 0.55307 0.0
C472 C 0.56253 0.65159 0.55579 0.0
C473 C 0.55945 0.66313 0.53983 0.0
C474 C 0.56491 0.61865 0.57008 0.0
C475 C 0.57816 0.60392 0.56928 0.0
C476 C 0.57971 0.59148 0.58493 0.0
C477 C 0.56798 0.59401 0.60155 0.0
C478 C 0.55396 0.60811 0.60229 0.0
C479 C 0.55284 0.62064 0.58657 0.0
C480 C 0.53925 0.60832 0.6184 0.0
C481 C 0.53199 0.59048 0.62636 0.0
C482 C 0.53146 0.62596 0.62518 0.0
C483 C 0.51651 0.62563 0.63919 0.0
C484 C 0.5094 0.60774 0.64698 0.0
C485 C 0.5921 0.5746 0.58315 0.0
C486 C 0.59067 0.56195 0.56617 0.0
C487 C 0.60455 0.57038 0.59865 0.0
C488 C 0.61537 0.55377 0.59716 0.0
C489 C 0.61364 0.54095 0.5803 0.0
C490 C 0.60126 0.54526 0.5648 0.0
C491 C 0.51742 0.59024 0.64059 0.0
H492 H 0.5535 0.62627 0.50387 0.0
H493 H 0.55956 0.60631 0.53163 0.0
H494 H 0.56485 0.65874 0.57029 0.0
H495 H 0.55965 0.67898 0.54241 0.0
H496 H 0.5872 0.60206 0.5564 0.0
H497 H 0.54181 0.63121 0.58653 0.0
H498 H 0.56919 0.5843 0.61355 0.0
H499 H 0.53705 0.57648 0.62119 0.0
H500 H 0.53681 0.64001 0.6196 0.0
H501 H 0.51051 0.63931 0.64396 0.0
H502 H 0.58101 0.56472 0.55411 0.0
H503 H 0.60591 0.57993 0.61189 0.0
H504 H 0.51191 0.5762 0.64614 0.0
H505 H 0.59987 0.53577 0.55152 0.0
H506 H 0.62484 0.55076 0.6093 0.0
C507 C 0.49661 0.47947 0.90322 0.0
C508 C 0.50237 0.48728 0.88524 0.0
C509 C 0.51059 0.47303 0.91598 0.0
C510 C 0.53062 0.47423 0.91101 0.0
C511 C 0.5363 0.48169 0.89284 0.0
C512 C 0.52234 0.48817 0.88011 0.0
C513 C 0.54566 0.46842 0.92498 0.0
C514 C 0.54207 0.45159 0.93595 0.0
C515 C 0.55605 0.44655 0.94965 0.0
C516 C 0.57396 0.4582 0.95194 0.0
C517 C 0.57758 0.47552 0.94166 0.0
C518 C 0.56332 0.4804 0.92812 0.0
C519 C 0.5954 0.4893 0.94623 0.0
C520 C 0.60324 0.49151 0.96545 0.0
C521 C 0.60415 0.50108 0.93174 0.0
C522 C 0.61975 0.51519 0.93653 0.0
C523 C 0.62738 0.51756 0.95583 0.0
C524 C 0.55123 0.43052 0.96319 0.0
C525 C 0.53331 0.42977 0.9733 0.0
C526 C 0.56514 0.41721 0.96762 0.0
C527 C 0.56144 0.40382 0.98233 0.0
C528 C 0.54388 0.4037 0.993 0.0
C529 C 0.52971 0.41654 0.9881 0.0
C530 C 0.61918 0.50518 0.97009 0.0
H531 H 0.48135 0.47881 0.90766 0.0
H532 H 0.50577 0.46764 0.92999 0.0
H533 H 0.55158 0.48252 0.88846 0.0
H534 H 0.52716 0.49382 0.86621 0.0
H535 H 0.52835 0.44242 0.93395 0.0
H536 H 0.56545 0.49408 0.92065 0.0
H537 H 0.58472 0.45416 0.96245 0.0
H538 H 0.59681 0.48308 0.9772 0.0
H539 H 0.59883 0.49961 0.91668 0.0
H540 H 0.62546 0.52453 0.92513 0.0
H541 H 0.52242 0.43999 0.97035 0.0
H542 H 0.57903 0.41744 0.95999 0.0
H543 H 0.6249 0.50612 0.985 0.0
H544 H 0.51593 0.41654 0.99593 0.0
H545 H 0.57259 0.39405 0.98584 0.0
C546 C 0.67026 0.25167 0.23977 0.0
C547 C 0.66491 0.27073 0.23638 0.0
C548 C 0.68466 0.24888 0.25381 0.0
C549 C 0.69403 0.26509 0.26477 0.0
C550 C 0.68915 0.28422 0.26091 0.0
C551 C 0.67472 0.28701 0.24688 0.0
C552 C 0.70807 0.26196 0.28086 0.0
C553 C 0.72175 0.24768 0.27857 0.0
C554 C 0.73442 0.24416 0.2941 0.0
C555 C 0.73332 0.25496 0.3121 0.0
C556 C 0.71956 0.2691 0.31471 0.0
C557 C 0.70714 0.27264 0.29899 0.0
C558 C 0.71751 0.27959 0.33408 0.0
C559 C 0.71657 0.26909 0.35134 0.0
C560 C 0.71596 0.30008 0.3354 0.0
C561 C 0.71366 0.3099 0.35364 0.0
C562 C 0.71266 0.29939 0.37088 0.0
C563 C 0.74826 0.22861 0.2918 0.0
C564 C 0.7413 0.20934 0.28549 0.0
C565 C 0.76834 0.23279 0.29629 0.0
C566 C 0.78129 0.21792 0.29438 0.0
C567 C 0.77434 0.19847 0.2883 0.0
C568 C 0.75414 0.1944 0.28393 0.0
C569 C 0.71408 0.27888 0.36955 0.0
H570 H 0.66276 0.23881 0.23214 0.0
H571 H 0.68787 0.23394 0.25661 0.0
H572 H 0.69634 0.29703 0.26888 0.0
H573 H 0.67107 0.30189 0.24441 0.0
H574 H 0.72268 0.23938 0.26465 0.0
H575 H 0.69612 0.28312 0.30117 0.0
H576 H 0.74295 0.2521 0.32418 0.0
H577 H 0.7175 0.25325 0.35071 0.0
H578 H 0.7167 0.30854 0.32233 0.0
H579 H 0.71252 0.32571 0.35425 0.0
H580 H 0.7258 0.20572 0.28219 0.0
H581 H 0.77404 0.24761 0.30107 0.0
H582 H 0.71354 0.27046 0.38265 0.0
H583 H 0.74809 0.17956 0.27968 0.0
H584 H 0.79676 0.22174 0.29756 0.0
C585 C 0.45754 0.13068 0.99505 0.0
C586 C 0.45535 0.12738 0.01514 0.0
C587 C 0.45062 0.11622 0.98084 0.0
C588 C 0.44136 0.09817 0.98644 0.0
C589 C 0.43942 0.09476 0.00654 0.0
C590 C 0.44634 0.10923 0.02074 0.0
C591 C 0.43358 0.08299 0.97136 0.0
C592 C 0.44469 0.07858 0.95472 0.0
C593 C 0.4375 0.06417 0.9403 0.0
C594 C 0.41896 0.05397 0.94299 0.0
C595 C 0.40794 0.05782 0.9599 0.0
C596 C 0.41521 0.07262 0.97379 0.0
C597 C 0.38942 0.04566 0.96376 0.0
C598 C 0.37559 0.04013 0.94866 0.0
C599 C 0.38575 0.03906 0.98271 0.0
C600 C 0.36867 0.02724 0.98652 0.0
C601 C 0.35487 0.02164 0.97146 0.0
C602 C 0.44991 0.05916 0.92314 0.0
C603 C 0.46276 0.07378 0.91502 0.0
C604 C 0.44985 0.03959 0.9154 0.0
C605 C 0.46268 0.0347 0.90038 0.0
C606 C 0.4763 0.04913 0.89304 0.0
C607 C 0.47595 0.0688 0.9004 0.0
C608 C 0.35847 0.0282 0.95248 0.0
H609 H 0.46417 0.14465 0.9903 0.0
H610 H 0.45212 0.11934 0.96546 0.0
H611 H 0.43267 0.08085 0.0113 0.0
H612 H 0.44469 0.10618 0.03613 0.0
H613 H 0.45929 0.08594 0.95342 0.0
H614 H 0.40648 0.07612 0.98653 0.0
H615 H 0.41326 0.04269 0.93218 0.0
H616 H 0.37793 0.04514 0.93396 0.0
H617 H 0.39631 0.04268 0.99457 0.0
H618 H 0.3665 0.02207 0.00119 0.0
H619 H 0.46294 0.0891 0.9202 0.0
H620 H 0.44037 0.02783 0.92132 0.0
H621 H 0.34799 0.0242 0.94062 0.0
H622 H 0.48629 0.08037 0.89538 0.0
H623 H 0.4621 0.01947 0.89479 0.0
O624 O 0.21982 0.86708 0.00907 0.0
Cd625 Cd 0.2316 0.88681 0.03082 0.0
Cd626 Cd 0.20415 0.90821 0.01787 0.0
O627 O 0.19418 0.88297 0.00158 0.0
O628 O 0.24775 0.87057 0.04688 0.0
O629 O 0.22218 0.88516 0.05867 0.0
C630 C 0.23625 0.87395 0.06138 0.0
C631 C 0.18383 0.92614 0.03774 0.0
C632 C 0.20404 0.868 -0.00075 0.0
C633 C 0.24571 0.92368 0.01163 0.0
O634 O 0.22778 0.92494 0.00704 0.0
O635 O 0.25045 0.91 0.0223 0.0
O636 O 0.18233 0.92574 0.01884 0.0
O637 O 0.19627 0.91537 0.04549 0.0
O638 O 0.1547 0.53182 0.2915 0.0
Cd639 Cd 0.13644 0.50775 0.299 0.0
Cd640 Cd 0.11261 0.51876 0.27071 0.0
O641 O 0.13762 0.53654 0.26476 0.0
O642 O 0.15227 0.48801 0.31057 0.0
O643 O 0.13655 0.48299 0.28185 0.0
C644 C 0.14775 0.47668 0.29515 0.0
C645 C 0.09306 0.50632 0.24393 0.0
C646 C 0.15267 0.54072 0.27575 0.0
C647 C 0.0986 0.52089 0.31281 0.0
O648 O 0.09619 0.52534 0.29512 0.0
O649 O 0.1137 0.51251 0.31771 0.0
O650 O 0.09426 0.52473 0.24954 0.0
O651 O 0.10359 0.4948 0.25323 0.0
O652 O 0.76198 0.68057 0.99085 0.0
Cd653 Cd 0.75083 0.66245 0.01193 0.0
Cd654 Cd 0.77793 0.63855 0.99778 0.0
O655 O 0.78467 0.66172 0.97973 0.0
O656 O 0.73696 0.67962 0.03063 0.0
O657 O 0.76288 0.66421 0.03904 0.0
C658 C 0.74951 0.67591 0.04392 0.0
C659 C 0.80324 0.6226 0.01162 0.0
C660 C 0.77594 0.6775 0.97915 0.0
C661 C 0.73502 0.62331 0.9949 0.0
O662 O 0.75284 0.62007 0.99183 0.0
O663 O 0.73068 0.63963 0.00286 0.0
O664 O 0.79897 0.62044 0.99315 0.0
O665 O 0.79361 0.63467 0.02229 0.0
O666 O 0.89792 0.02265 0.26804 0.0
Cd667 Cd 0.88126 0.03556 0.24757 0.0
Cd668 Cd 0.86379 0.04776 0.27913 0.0
O669 O 0.88898 0.04116 0.29337 0.0
O670 O 0.89714 0.03593 0.22322 0.0
O671 O 0.89048 0.06306 0.24035 0.0
C672 C 0.89929 0.05492 0.22573 0.0
C673 C 0.85194 0.07873 0.28293 0.0
C674 C 0.9 0.02863 0.28597 0.0
C675 C 0.84163 0.01684 0.25303 0.0
O676 O 0.84374 0.02442 0.27043 0.0
O677 O 0.85419 0.02144 0.24002 0.0
O678 O 0.84921 0.06596 0.29624 0.0
O679 O 0.86197 0.07405 0.26762 0.0
O680 O 0.26829 0.18244 0.49356 0.0
Cd681 Cd 0.25307 0.16831 0.5154 0.0
Cd682 Cd 0.27155 0.13722 0.50119 0.0
O683 O 0.28001 0.15612 0.47933 0.0
O684 O 0.24501 0.19023 0.53301 0.0
O685 O 0.26378 0.16741 0.54288 0.0
C686 C 0.25482 0.18312 0.54685 0.0
C687 C 0.29484 0.11856 0.51492 0.0
C688 C 0.27761 0.17446 0.47965 0.0
C689 C 0.22733 0.13259 0.50255 0.0
O690 O 0.24321 0.12427 0.50028 0.0
O691 O 0.22773 0.15085 0.50758 0.0
O692 O 0.28786 0.11449 0.49742 0.0
O693 O 0.28892 0.13374 0.52461 0.0
O694 O 0.40184 0.53232 0.77682 0.0
Cd695 Cd 0.38369 0.54123 0.75525 0.0
Cd696 Cd 0.3634 0.55284 0.78595 0.0
O697 O 0.38776 0.54683 0.802 0.0
O698 O 0.3997 0.54045 0.73097 0.0
O699 O 0.39037 0.56817 0.74493 0.0
C700 C 0.40005 0.55944 0.73132 0.0
C701 C 0.35168 0.58393 0.78692 0.0
C702 C 0.40146 0.53704 0.79509 0.0
C703 C 0.34418 0.51984 0.76035 0.0
O704 O 0.34388 0.52931 0.7769 0.0
O705 O 0.35824 0.52351 0.74857 0.0
O706 O 0.34865 0.57237 0.80126 0.0
O707 O 0.36194 0.57796 0.77224 0.0
O708 O 0.73203 0.36895 0.51335 0.0
Cd709 Cd 0.74483 0.38581 0.53654 0.0
Cd710 Cd 0.71997 0.41251 0.5245 0.0
O711 O 0.71141 0.39001 0.50388 0.0
O712 O 0.75798 0.36665 0.55196 0.0
O713 O 0.73437 0.38401 0.56402 0.0
C714 C 0.74677 0.37093 0.56643 0.0
C715 C 0.69618 0.43199 0.53775 0.0
C716 C 0.71867 0.37343 0.50169 0.0
C717 C 0.76391 0.42356 0.52337 0.0
O718 O 0.74657 0.42841 0.52057 0.0
O719 O 0.76678 0.40685 0.52983 0.0
O720 O 0.70144 0.43278 0.51969 0.0
O721 O 0.7039 0.41936 0.54834 0.0
O722 O 0.64683 0.02989 0.79097 0.0
Cd723 Cd 0.62917 0.00563 0.79847 0.0
Cd724 Cd 0.60821 0.01126 0.76609 0.0
O725 O 0.63318 0.02988 0.76152 0.0
O726 O 0.64473 0.98678 0.81186 0.0
O727 O 0.63161 0.98091 0.78196 0.0
C728 C 0.64215 0.97532 0.79618 0.0
C729 C 0.59244 0.99529 0.73857 0.0
C730 C 0.6464 0.03658 0.77393 0.0
C731 C 0.58898 0.01648 0.80578 0.0
O732 O 0.58822 0.01851 0.78737 0.0
O733 O 0.60413 0.01051 0.81372 0.0
O734 O 0.59301 0.01414 0.74163 0.0
O735 O 0.60156 0.9853 0.75083 0.0
O736 O 0.97686 0.27489 0.91818 0.0
Cd737 Cd 0.98835 0.25202 0.90231 0.0
Cd738 Cd 0.00524 0.28093 0.88206 0.0
O739 O 0.99508 0.29866 0.90452 0.0
O740 O 0.98809 0.22923 0.91952 0.0
O741 O 0.01546 0.24568 0.90985 0.0
C742 C 0.00706 0.23194 0.92006 0.0
C743 C 0.03764 0.28577 0.87162 0.0
C744 C 0.98254 0.29309 0.91725 0.0
C745 C 0.97453 0.25302 0.86113 0.0
O746 O 0.98513 0.26928 0.86103 0.0
O747 O 0.97462 0.24257 0.87607 0.0
O748 O 0.02465 0.29759 0.86715 0.0
O749 O 0.03234 0.27142 0.88265 0.0
O750 O 0.47539 0.77662 0.41478 0.0
Cd751 Cd 0.4862 0.75445 0.39737 0.0
Cd752 Cd 0.504 0.78419 0.37912 0.0
O753 O 0.49497 0.80057 0.40313 0.0
O754 O 0.48432 0.73035 0.41286 0.0
O755 O 0.51265 0.74611 0.40479 0.0
C756 C 0.5033 0.73205 0.4139 0.0
C757 C 0.53642 0.78767 0.36865 0.0
C758 C 0.48202 0.79466 0.41531 0.0
C759 C 0.47256 0.75911 0.35654 0.0
O760 O 0.48333 0.77531 0.35762 0.0
O761 O 0.47261 0.74742 0.37051 0.0
O762 O 0.52465 0.80125 0.36617 0.0
O763 O 0.52991 0.77226 0.37772 0.0
O764 O 0.9844 0.78986 0.65561 0.0
Cd765 Cd 0.00634 0.78252 0.6363 0.0
Cd766 Cd 0.98976 0.80811 0.61532 0.0
O767 O 0.97559 0.8157 0.64062 0.0
O768 O 0.02388 0.76751 0.65223 0.0
O769 O 0.03362 0.79608 0.63984 0.0
C770 C 0.03758 0.78145 0.65015 0.0
C771 C 0.00839 0.83081 0.59752 0.0
C772 C 0.97424 0.80469 0.65512 0.0
C773 C 0.98577 0.76709 0.59921 0.0
O774 O 0.97816 0.78348 0.59928 0.0
O775 O 0.99896 0.76423 0.61177 0.0
O776 O 0.98943 0.83037 0.59775 0.0
O777 O 0.01691 0.81882 0.60828 0.0
O778 O 0.48366 0.27443 0.16321 0.0
Cd779 Cd 0.50648 0.26477 0.14665 0.0
Cd780 Cd 0.49109 0.28711 0.11932 0.0
O781 O 0.47273 0.29438 0.1419 0.0
O782 O 0.52459 0.25453 0.16582 0.0
O783 O 0.5331 0.27995 0.14776 0.0
C784 C 0.53773 0.2681 0.16097 0.0
C785 C 0.50313 0.31181 0.09905 0.0
C786 C 0.47175 0.2869 0.15861 0.0
C787 C 0.49133 0.24333 0.10978 0.0
O788 O 0.48602 0.25987 0.10492 0.0
O789 O 0.50036 0.24196 0.12595 0.0
O790 O 0.48493 0.305 0.09848 0.0
O791 O 0.5146 0.305 0.11178 0.0
C792 C 0.20717 0.81808 0.89547 0.0
C793 C 0.19616 0.8001 0.89082 0.0
C794 C 0.20631 0.82748 0.91417 0.0
C795 C 0.19416 0.81868 0.92863 0.0
C796 C 0.18292 0.80057 0.92406 0.0
C797 C 0.1841 0.79144 0.90517 0.0
C798 C 0.21864 0.84674 0.9185 0.0
C799 C 0.16977 0.79082 0.93911 0.0
C800 C 0.21037 0.83698 0.97997 0.0
C801 C 0.19869 0.85284 0.9833 0.0
C802 C 0.20809 0.82476 0.96277 0.0
C803 C 0.19376 0.82846 0.94861 0.0
C804 C 0.18085 0.84339 0.95262 0.0
C805 C 0.18347 0.85542 0.96994 0.0
C806 C 0.22206 0.80889 0.95911 0.0
C807 C 0.16524 0.84765 0.93795 0.0
H808 H 0.21677 0.82467 0.88454 0.0
H809 H 0.17544 0.77762 0.90158 0.0
H810 H 0.20908 0.85845 0.92335 0.0
H811 H 0.22918 0.84507 0.93067 0.0
H812 H 0.22708 0.85175 0.90552 0.0
H813 H 0.1617 0.77693 0.9331 0.0
H814 H 0.17867 0.7874 0.95201 0.0
H815 H 0.1589 0.80106 0.94447 0.0
H816 H 0.22203 0.8347 0.9903 0.0
H817 H 0.17425 0.86752 0.97245 0.0
H818 H 0.23269 0.81349 0.94761 0.0
H819 H 0.21395 0.79485 0.95364 0.0
H820 H 0.23049 0.80611 0.97257 0.0
H821 H 0.17236 0.85485 0.92527 0.0
H822 H 0.1546 0.85758 0.94444 0.0
H823 H 0.15704 0.83375 0.93222 0.0
C824 C 0.00972 0.53182 0.38736 0.0
C825 C 0.01111 0.5506 0.397 0.0
C826 C 0.02422 0.52634 0.37415 0.0
C827 C 0.04046 0.53998 0.37053 0.0
C828 C 0.04212 0.55883 0.38048 0.0
C829 C 0.02741 0.56391 0.3936 0.0
C830 C 0.02194 0.50614 0.36373 0.0
C831 C 0.05928 0.57372 0.37703 0.0
C832 C 0.08621 0.52112 0.34734 0.0
C833 C 0.0837 0.52557 0.32763 0.0
C834 C 0.07219 0.52566 0.36149 0.0
C835 C 0.05532 0.53484 0.35576 0.0
C836 C 0.05266 0.53929 0.33591 0.0
C837 C 0.06689 0.53461 0.32209 0.0
C838 C 0.07547 0.52071 0.38256 0.0
C839 C 0.03483 0.54907 0.32928 0.0
H840 H 0.99703 0.52157 0.38978 0.0
H841 H 0.02866 0.57834 0.40124 0.0
H842 H 0.02041 0.50766 0.34767 0.0
H843 H 0.03527 0.49822 0.36612 0.0
H844 H 0.00889 0.49697 0.36883 0.0
H845 H 0.05872 0.58748 0.38644 0.0
H846 H 0.07336 0.56726 0.37998 0.0
H847 H 0.05937 0.57763 0.36141 0.0
H848 H 0.09914 0.51414 0.35174 0.0
H849 H 0.0648 0.53809 0.30689 0.0
H850 H 0.06295 0.51075 0.38749 0.0
H851 H 0.07609 0.53436 0.39224 0.0
H852 H 0.0893 0.51344 0.38457 0.0
H853 H 0.02119 0.53991 0.33278 0.0
H854 H 0.03488 0.55136 0.31324 0.0
H855 H 0.03424 0.56361 0.3373 0.0
C856 C 0.80385 0.75949 0.9005 0.0
C857 C 0.79283 0.75411 0.8833 0.0
C858 C 0.80292 0.74738 0.91661 0.0
C859 C 0.79056 0.72958 0.91552 0.0
C860 C 0.77966 0.72391 0.8981 0.0
C861 C 0.781 0.7362 0.88218 0.0
C862 C 0.81481 0.75385 0.93493 0.0
C863 C 0.76628 0.70503 0.8964 0.0
C864 C 0.79636 0.68887 0.95073 0.0
C865 C 0.78107 0.69184 0.96396 0.0
C866 C 0.8001 0.70147 0.93524 0.0
C867 C 0.78819 0.71729 0.93289 0.0
C868 C 0.77317 0.72073 0.94654 0.0
C869 C 0.76984 0.70802 0.96194 0.0
C870 C 0.81639 0.6975 0.92106 0.0
C871 C 0.7601 0.73741 0.94447 0.0
H872 H 0.81288 0.77339 0.90155 0.0
H873 H 0.77274 0.73176 0.8688 0.0
H874 H 0.80476 0.75677 0.94729 0.0
H875 H 0.82386 0.74191 0.93923 0.0
H876 H 0.82468 0.76743 0.93295 0.0
H877 H 0.75923 0.7025 0.88164 0.0
H878 H 0.77472 0.69222 0.89937 0.0
H879 H 0.75455 0.70556 0.90757 0.0
H880 H 0.80517 0.67647 0.95223 0.0
H881 H 0.75801 0.71048 0.9721 0.0
H882 H 0.8263 0.71111 0.91951 0.0
H883 H 0.81001 0.6931 0.9063 0.0
H884 H 0.8253 0.68559 0.9258 0.0
H885 H 0.76916 0.75165 0.9436 0.0
H886 H 0.74976 0.73871 0.95691 0.0
H887 H 0.75138 0.73497 0.93062 0.0
C888 C 0.99267 0.991 0.34083 0.0
C889 C 0.9878 0.98511 0.35979 0.0
C890 C 0.97846 0.99755 0.32827 0.0
C891 C 0.9587 0.99752 0.3345 0.0
C892 C 0.95343 0.99062 0.35313 0.0
C893 C 0.96807 0.98484 0.36567 0.0
C894 C 0.98471 0.00516 0.30863 0.0
C895 C 0.93239 0.98983 0.36006 0.0
C896 C 0.92513 0.03285 0.31291 0.0
C897 C 0.91508 0.02074 0.29825 0.0
C898 C 0.93968 0.02556 0.32454 0.0
C899 C 0.9437 0.0055 0.32188 0.0
C900 C 0.93333 0.99313 0.30728 0.0
C901 C 0.91936 0.00101 0.29539 0.0
C902 C 0.95085 0.03936 0.33956 0.0
C903 C 0.93673 0.97152 0.30448 0.0
H904 H 0.0077 0.9908 0.33582 0.0
H905 H 0.96403 0.98068 0.38033 0.0
H906 H 0.97617 0.99678 0.29658 0.0
H907 H 0.98156 0.02086 0.30797 0.0
H908 H 0.00064 0.00406 0.30591 0.0
H909 H 0.93039 0.98215 0.37401 0.0
H910 H 0.92784 0.00504 0.36242 0.0
H911 H 0.92238 0.98211 0.34871 0.0
H912 H 0.92189 0.04815 0.31499 0.0
H913 H 0.91141 0.99161 0.28415 0.0
H914 H 0.96691 0.03944 0.33693 0.0
H915 H 0.94815 0.03413 0.35453 0.0
H916 H 0.94657 0.05474 0.33915 0.0
H917 H 0.9523 0.96985 0.30065 0.0
H918 H 0.92714 0.96382 0.29274 0.0
H919 H 0.93386 0.96407 0.31842 0.0
C920 C 0.22567 0.23791 0.64513 0.0
C921 C 0.24116 0.24415 0.6583 0.0
C922 C 0.22884 0.22632 0.62803 0.0
C923 C 0.24812 0.22141 0.62352 0.0
C924 C 0.26379 0.22732 0.63679 0.0
C925 C 0.26007 0.2383 0.65418 0.0
C926 C 0.21162 0.2199 0.61445 0.0
C927 C 0.28463 0.22274 0.63226 0.0
C928 C 0.2535 0.18143 0.58331 0.0
C929 C 0.25529 0.19272 0.5667 0.0
C930 C 0.25149 0.19056 0.60208 0.0
C931 C 0.25197 0.21143 0.60419 0.0
C932 C 0.25489 0.22287 0.58749 0.0
C933 C 0.25613 0.21333 0.56889 0.0
C934 C 0.24779 0.17787 0.61943 0.0
C935 C 0.25612 0.24517 0.58918 0.0
H936 H 0.21106 0.24254 0.64778 0.0
H937 H 0.27211 0.24252 0.66439 0.0
H938 H 0.21313 0.22788 0.60067 0.0
H939 H 0.2114 0.20387 0.6104 0.0
H940 H 0.1973 0.22288 0.62118 0.0
H941 H 0.29504 0.2276 0.64452 0.0
H942 H 0.2853 0.20666 0.62911 0.0
H943 H 0.28965 0.23028 0.61889 0.0
H944 H 0.25266 0.16546 0.58151 0.0
H945 H 0.25767 0.22202 0.55599 0.0
H946 H 0.2327 0.17949 0.62495 0.0
H947 H 0.25818 0.18276 0.63165 0.0
H948 H 0.24924 0.16199 0.61559 0.0
H949 H 0.24161 0.25017 0.59351 0.0
H950 H 0.26047 0.25185 0.57515 0.0
H951 H 0.26693 0.25086 0.60079 0.0
C952 C 0.47474 0.61326 0.65588 0.0
C953 C 0.49297 0.60675 0.66101 0.0
C954 C 0.45803 0.60892 0.66734 0.0
C955 C 0.45976 0.598 0.68434 0.0
C956 C 0.4785 0.59276 0.69033 0.0
C957 C 0.49485 0.59707 0.67849 0.0
C958 C 0.43833 0.61472 0.66046 0.0
C959 C 0.48107 0.58142 0.70854 0.0
C960 C 0.4197 0.59034 0.72232 0.0
C961 C 0.41264 0.57071 0.71754 0.0
C962 C 0.43439 0.59996 0.71102 0.0
C963 C 0.44193 0.58973 0.69449 0.0
C964 C 0.43378 0.57043 0.68883 0.0
C965 C 0.41934 0.56111 0.7005 0.0
C966 C 0.44273 0.62051 0.71754 0.0
C967 C 0.44114 0.55912 0.67109 0.0
H968 H 0.4733 0.62066 0.64228 0.0
H969 H 0.50902 0.5922 0.68249 0.0
H970 H 0.42947 0.60141 0.65421 0.0
H971 H 0.42999 0.62087 0.67292 0.0
H972 H 0.4399 0.62576 0.64898 0.0
H973 H 0.49683 0.58056 0.71239 0.0
H974 H 0.4737 0.58842 0.72123 0.0
H975 H 0.47407 0.56616 0.70611 0.0
H976 H 0.41458 0.59781 0.73551 0.0
H977 H 0.41376 0.54601 0.69664 0.0
H978 H 0.44438 0.63006 0.70483 0.0
H979 H 0.45761 0.61978 0.72405 0.0
H980 H 0.43336 0.62752 0.72869 0.0
H981 H 0.44146 0.5683 0.65808 0.0
H982 H 0.43187 0.54517 0.66751 0.0
H983 H 0.45643 0.55543 0.67392 0.0
C984 C 0.77024 0.31921 0.66559 0.0
C985 C 0.75718 0.30234 0.66738 0.0
C986 C 0.76737 0.33259 0.65102 0.0
C987 C 0.7512 0.32888 0.63782 0.0
C988 C 0.73731 0.31258 0.64035 0.0
C989 C 0.74041 0.29958 0.65517 0.0
C990 C 0.78237 0.34996 0.64896 0.0
C991 C 0.71989 0.30807 0.62656 0.0
C992 C 0.73835 0.36711 0.60195 0.0
C993 C 0.74802 0.3607 0.58499 0.0
C994 C 0.73949 0.35715 0.61946 0.0
C995 C 0.75031 0.34027 0.61984 0.0
C996 C 0.76011 0.3338 0.60276 0.0
C997 C 0.75894 0.34415 0.58561 0.0
C998 C 0.7291 0.36459 0.6375 0.0
C999 C 0.77165 0.31575 0.60249 0.0
H1000 H 0.78328 0.32144 0.67488 0.0
H1001 H 0.73 0.28684 0.65679 0.0
H1002 H 0.79155 0.3472 0.63589 0.0
H1003 H 0.77497 0.36361 0.64667 0.0
H1004 H 0.79222 0.35252 0.66206 0.0
H1005 H 0.70932 0.29622 0.63183 0.0
H1006 H 0.71201 0.32149 0.62472 0.0
H1007 H 0.72515 0.30325 0.61185 0.0
H1008 H 0.72997 0.37995 0.60156 0.0
H1009 H 0.7664 0.33905 0.57255 0.0
H1010 H 0.73975 0.36757 0.6499 0.0
H1011 H 0.71776 0.35312 0.64206 0.0
H1012 H 0.72188 0.37831 0.63498 0.0
H1013 H 0.78352 0.31773 0.6138 0.0
H1014 H 0.7784 0.31269 0.58798 0.0
H1015 H 0.76185 0.30261 0.60612 0.0
C1016 C 0.51926 0.95087 0.6514 0.0
C1017 C 0.50209 0.96071 0.65425 0.0
C1018 C 0.53492 0.9535 0.66499 0.0
C1019 C 0.53321 0.96594 0.68204 0.0
C1020 C 0.51544 0.97483 0.68568 0.0
C1021 C 0.50016 0.97225 0.67166 0.0
C1022 C 0.55368 0.94388 0.66054 0.0
C1023 C 0.51293 0.98793 0.70391 0.0
C1024 C 0.56913 0.96765 0.72509 0.0
C1025 C 0.58008 0.98567 0.72248 0.0
C1026 C 0.55422 0.9605 0.71159 0.0
C1027 C 0.5506 0.97148 0.69501 0.0
C1028 C 0.56267 0.98891 0.69163 0.0
C1029 C 0.5771 0.99592 0.70556 0.0
C1030 C 0.54149 0.942 0.71581 0.0
C1031 C 0.55963 0.00077 0.67386 0.0
H1032 H 0.5207 0.94147 0.63826 0.0
H1033 H 0.48706 0.98002 0.67399 0.0
H1034 H 0.56549 0.95539 0.65714 0.0
H1035 H 0.55867 0.93634 0.67351 0.0
H1036 H 0.5519 0.93296 0.64783 0.0
H1037 H 0.4975 0.99179 0.70568 0.0
H1038 H 0.5174 0.98055 0.71719 0.0
H1039 H 0.52259 0.00181 0.70307 0.0
H1040 H 0.57132 0.95983 0.73831 0.0
H1041 H 0.58567 0.00982 0.70352 0.0
H1042 H 0.53944 0.93204 0.70243 0.0
H1043 H 0.5267 0.94605 0.7204 0.0
H1044 H 0.54782 0.9338 0.72771 0.0
H1045 H 0.55893 0.99103 0.66027 0.0
H1046 H 0.57156 0.01274 0.67234 0.0
H1047 H 0.54541 0.00756 0.67508 0.0
C1048 C 0.89309 0.22734 0.77482 0.0
C1049 C 0.87618 0.23528 0.78234 0.0
C1050 C 0.91064 0.22867 0.78591 0.0
C1051 C 0.91125 0.23835 0.80482 0.0
C1052 C 0.89427 0.24659 0.81235 0.0
C1053 C 0.87693 0.24489 0.80104 0.0
C1054 C 0.92843 0.21958 0.77752 0.0
C1055 C 0.89439 0.25724 0.83236 0.0
C1056 C 0.94798 0.23001 0.84487 0.0
C1057 C 0.96051 0.24743 0.84469 0.0
C1058 C 0.93258 0.22618 0.83108 0.0
C1059 C 0.9296 0.24017 0.81689 0.0
C1060 C 0.94296 0.25713 0.81582 0.0
C1061 C 0.95831 0.26051 0.82968 0.0
C1062 C 0.91878 0.20777 0.83248 0.0
C1063 C 0.94027 0.27241 0.80091 0.0
H1064 H 0.89245 0.21976 0.76041 0.0
H1065 H 0.86393 0.25124 0.80676 0.0
H1066 H 0.94097 0.231 0.77683 0.0
H1067 H 0.93302 0.20818 0.78728 0.0
H1068 H 0.92555 0.21265 0.76255 0.0
H1069 H 0.87997 0.26295 0.83596 0.0
H1070 H 0.89812 0.24712 0.84385 0.0
H1071 H 0.90586 0.26984 0.83301 0.0
H1072 H 0.94968 0.21971 0.85629 0.0
H1073 H 0.968 0.27395 0.82931 0.0
H1074 H 0.91611 0.20027 0.81775 0.0
H1075 H 0.90436 0.21188 0.8381 0.0
H1076 H 0.92459 0.19717 0.84248 0.0
H1077 H 0.93783 0.26527 0.786 0.0
H1078 H 0.95315 0.28351 0.80052 0.0
H1079 H 0.92703 0.28024 0.80462 0.0
C1080 C 0.45929 0.86689 0.50582 0.0
C1081 C 0.44471 0.87956 0.50183 0.0
C1082 C 0.46412 0.85224 0.49194 0.0
C1083 C 0.45405 0.85015 0.47363 0.0
C1084 C 0.43873 0.86233 0.4698 0.0
C1085 C 0.43423 0.87693 0.48398 0.0
C1086 C 0.48046 0.83946 0.49662 0.0
C1087 C 0.42763 0.86044 0.45045 0.0
C1088 C 0.48234 0.82866 0.43114 0.0
C1089 C 0.47451 0.80889 0.43001 0.0
C1090 C 0.47552 0.8423 0.44505 0.0
C1091 C 0.46047 0.83605 0.45811 0.0
C1092 C 0.45231 0.81621 0.4569 0.0
C1093 C 0.45945 0.80284 0.44287 0.0
C1094 C 0.48465 0.86334 0.44597 0.0
C1095 C 0.43622 0.80906 0.47058 0.0
H1096 H 0.46716 0.86864 0.51977 0.0
H1097 H 0.423 0.88674 0.48083 0.0
H1098 H 0.47525 0.82361 0.49442 0.0
H1099 H 0.49289 0.84237 0.48645 0.0
H1100 H 0.48605 0.84223 0.51195 0.0
H1101 H 0.4151 0.86989 0.4504 0.0
H1102 H 0.43775 0.86475 0.43844 0.0
H1103 H 0.42193 0.84486 0.44714 0.0
H1104 H 0.49393 0.83349 0.42126 0.0
H1105 H 0.45325 0.78761 0.44205 0.0
H1106 H 0.49189 0.8669 0.46051 0.0
H1107 H 0.47307 0.87371 0.4444 0.0
H1108 H 0.49576 0.86598 0.43434 0.0
H1109 H 0.44175 0.81052 0.48598 0.0
H1110 H 0.43082 0.79339 0.46715 0.0
H1111 H 0.42362 0.81831 0.46969 0.0
C1112 C 0.13278 0.2769 0.8075 0.0
C1113 C 0.14709 0.29291 0.8102 0.0
C1114 C 0.11598 0.27539 0.81926 0.0
C1115 C 0.11363 0.28997 0.83442 0.0
C1116 C 0.12857 0.30547 0.83807 0.0
C1117 C 0.14503 0.30688 0.82579 0.0
C1118 C 0.10028 0.25873 0.81477 0.0
C1119 C 0.12676 0.32108 0.85436 0.0
C1120 C 0.06107 0.29942 0.84692 0.0
C1121 C 0.0576 0.28796 0.86327 0.0
C1122 C 0.07936 0.30041 0.83762 0.0
C1123 C 0.0947 0.29002 0.8451 0.0
C1124 C 0.09155 0.27905 0.86207 0.0
C1125 C 0.07292 0.27796 0.87085 0.0
C1126 C 0.08203 0.31204 0.81936 0.0
C1127 C 0.10772 0.26818 0.87072 0.0
H1128 H 0.13447 0.26574 0.79586 0.0
H1129 H 0.15585 0.31941 0.82796 0.0
H1130 H 0.0966 0.25074 0.82822 0.0
H1131 H 0.08664 0.26485 0.80969 0.0
H1132 H 0.10486 0.24798 0.80322 0.0
H1133 H 0.14074 0.33049 0.857 0.0
H1134 H 0.11512 0.33072 0.85048 0.0
H1135 H 0.12236 0.31415 0.86823 0.0
H1136 H 0.04926 0.30711 0.84094 0.0
H1137 H 0.07032 0.26918 0.88357 0.0
H1138 H 0.08541 0.30202 0.8067 0.0
H1139 H 0.09465 0.32336 0.82136 0.0
H1140 H 0.06872 0.31954 0.81565 0.0
H1141 H 0.11151 0.2561 0.86025 0.0
H1142 H 0.10341 0.26172 0.88487 0.0
H1143 H 0.12121 0.27833 0.87319 0.0
C1144 C 0.53912 0.682 0.50701 0.0
C1145 C 0.55111 0.66633 0.50407 0.0
C1146 C 0.53326 0.69271 0.49124 0.0
C1147 C 0.53921 0.68743 0.47196 0.0
C1148 C 0.55164 0.67193 0.46888 0.0
C1149 C 0.55757 0.66167 0.48499 0.0
C1150 C 0.52017 0.70931 0.49517 0.0
C1151 C 0.55817 0.6658 0.44851 0.0
C1152 C 0.50419 0.7016 0.43267 0.0
C1153 C 0.51378 0.71921 0.42652 0.0
C1154 C 0.51284 0.69052 0.44669 0.0
C1155 C 0.53138 0.69744 0.45502 0.0
C1156 C 0.54153 0.71478 0.44825 0.0
C1157 C 0.53266 0.72539 0.43393 0.0
C1158 C 0.50172 0.67189 0.45322 0.0
C1159 C 0.56121 0.72274 0.45694 0.0
H1160 H 0.53375 0.68557 0.52158 0.0
H1161 H 0.56713 0.64985 0.48258 0.0
H1162 H 0.5265 0.72296 0.48852 0.0
H1163 H 0.5055 0.70534 0.48825 0.0
H1164 H 0.51813 0.71257 0.51113 0.0
H1165 H 0.56869 0.65417 0.44871 0.0
H1166 H 0.54515 0.66007 0.43944 0.0
H1167 H 0.56523 0.67872 0.44119 0.0
H1168 H 0.48966 0.69669 0.42685 0.0
H1169 H 0.5401 0.73905 0.42928 0.0
H1170 H 0.49698 0.67418 0.46866 0.0
H1171 H 0.51139 0.65954 0.45276 0.0
H1172 H 0.48846 0.66749 0.44393 0.0
H1173 H 0.55924 0.72803 0.47242 0.0
H1174 H 0.56807 0.73519 0.44873 0.0
H1175 H 0.57148 0.71093 0.45708 0.0
C1176 C 0.89634 0.82583 0.74039 0.0
C1177 C 0.87877 0.81428 0.7356 0.0
C1178 C 0.91284 0.82523 0.72825 0.0
C1179 C 0.9117 0.81287 0.71088 0.0
C1180 C 0.89399 0.80126 0.70591 0.0
C1181 C 0.87776 0.80206 0.71836 0.0
C1182 C 0.93149 0.83782 0.73401 0.0
C1183 C 0.89222 0.7879 0.68747 0.0
C1184 C 0.94656 0.82291 0.66877 0.0
C1185 C 0.95961 0.80818 0.67061 0.0
C1186 C 0.93123 0.82498 0.68213 0.0
C1187 C 0.92895 0.81208 0.69776 0.0
C1188 C 0.94254 0.79773 0.7002 0.0
C1189 C 0.95769 0.79592 0.68657 0.0
C1190 C 0.91701 0.84047 0.67906 0.0
C1191 C 0.94065 0.78383 0.71681 0.0
H1192 H 0.89713 0.8355 0.75356 0.0
H1193 H 0.86434 0.79288 0.71472 0.0
H1194 H 0.94386 0.82835 0.73542 0.0
H1195 H 0.93545 0.84822 0.72237 0.0
H1196 H 0.93003 0.84646 0.74812 0.0
H1197 H 0.87735 0.77997 0.68564 0.0
H1198 H 0.89533 0.79668 0.67439 0.0
H1199 H 0.90326 0.77683 0.68784 0.0
H1200 H 0.94793 0.83247 0.65652 0.0
H1201 H 0.96776 0.78456 0.68817 0.0
H1202 H 0.91575 0.84982 0.69274 0.0
H1203 H 0.90215 0.83317 0.67552 0.0
H1204 H 0.92156 0.85015 0.66696 0.0
H1205 H 0.93977 0.79229 0.73108 0.0
H1206 H 0.9532 0.77445 0.71746 0.0
H1207 H 0.92683 0.77406 0.71493 0.0
C1208 C 0.0634 0.90084 0.51985 0.0
C1209 C 0.05524 0.89424 0.5015 0.0
C1210 C 0.05884 0.89047 0.53674 0.0
C1211 C 0.04595 0.87304 0.53513 0.0
C1212 C 0.03878 0.8656 0.5164 0.0
C1213 C 0.04341 0.87639 0.49981 0.0
C1214 C 0.06667 0.89894 0.55644 0.0
C1215 C 0.02526 0.84688 0.51404 0.0
C1216 C 0.03803 0.83849 0.57699 0.0
C1217 C 0.01966 0.84347 0.58388 0.0
C1218 C 0.04725 0.84847 0.56154 0.0
C1219 C 0.03795 0.86391 0.55307 0.0
C1220 C 0.02001 0.86977 0.56085 0.0
C1221 C 0.01101 0.85938 0.57606 0.0
C1222 C 0.06632 0.84175 0.55356 0.0
C1223 C 0.0098 0.88642 0.55248 0.0
H1224 H 0.07242 0.91476 0.52121 0.0
H1225 H 0.03725 0.87119 0.48558 0.0
H1226 H 0.05454 0.90507 0.56492 0.0
H1227 H 0.07239 0.88725 0.56513 0.0
H1228 H 0.07859 0.91092 0.55492 0.0
H1229 H 0.02289 0.84188 0.49836 0.0
H1230 H 0.03137 0.83485 0.52195 0.0
H1231 H 0.01077 0.84941 0.52057 0.0
H1232 H 0.04471 0.82612 0.58295 0.0
H1233 H 0.99688 0.86337 0.58146 0.0
H1234 H 0.07721 0.85458 0.55181 0.0
H1235 H 0.06361 0.83434 0.5388 0.0
H1236 H 0.07283 0.83125 0.56321 0.0
H1237 H 0.02019 0.89981 0.55181 0.0
H1238 H 0.99687 0.89024 0.56128 0.0
H1239 H 0.00471 0.88212 0.53723 0.0
C1240 C 0.128 0.78755 0.7242 0.0
C1241 C 0.1436 0.77673 0.71779 0.0
C1242 C 0.1118 0.78954 0.71189 0.0
C1243 C 0.1112 0.78054 0.69268 0.0
C1244 C 0.12728 0.77032 0.68582 0.0
C1245 C 0.14328 0.76847 0.6985 0.0
C1246 C 0.09487 0.80043 0.71981 0.0
C1247 C 0.12724 0.76068 0.66536 0.0
C1248 C 0.06018 0.76525 0.67199 0.0
C1249 C 0.05697 0.78081 0.65992 0.0
C1250 C 0.07794 0.76481 0.68236 0.0
C1251 C 0.09295 0.78026 0.68056 0.0
C1252 C 0.09005 0.79575 0.66799 0.0
C1253 C 0.07204 0.79588 0.65784 0.0
C1254 C 0.08042 0.74805 0.69567 0.0
C1255 C 0.1058 0.81239 0.66563 0.0
H1256 H 0.12804 0.79376 0.73917 0.0
H1257 H 0.15542 0.7603 0.69342 0.0
H1258 H 0.09098 0.81165 0.70951 0.0
H1259 H 0.0817 0.78987 0.72118 0.0
H1260 H 0.09831 0.80792 0.73445 0.0
H1261 H 0.14166 0.75507 0.6616 0.0
H1262 H 0.11576 0.74812 0.66419 0.0
H1263 H 0.12357 0.77131 0.65434 0.0
H1264 H 0.04864 0.75351 0.67366 0.0
H1265 H 0.06968 0.80791 0.64849 0.0
H1266 H 0.08238 0.75394 0.71111 0.0
H1267 H 0.09383 0.74064 0.69166 0.0
H1268 H 0.06759 0.73684 0.6949 0.0
H1269 H 0.10832 0.82098 0.67983 0.0
H1270 H 0.10178 0.8226 0.65431 0.0
H1271 H 0.11992 0.80638 0.6615 0.0
C1272 C 0.95034 0.66851 0.5381 0.0
C1273 C 0.94848 0.67064 0.51777 0.0
C1274 C 0.95567 0.68477 0.551 0.0
C1275 C 0.96006 0.70356 0.54338 0.0
C1276 C 0.95844 0.7059 0.52294 0.0
C1277 C 0.95233 0.68948 0.51041 0.0
C1278 C 0.95681 0.68178 0.5728 0.0
C1279 C 0.96349 0.72566 0.51426 0.0
C1280 C 0.95951 0.74852 0.57855 0.0
C1281 C 0.9793 0.75132 0.58447 0.0
C1282 C 0.953 0.73305 0.56508 0.0
C1283 C 0.9668 0.72061 0.55688 0.0
C1284 C 0.98694 0.72384 0.56234 0.0
C1285 C 0.99289 0.73896 0.57638 0.0
C1286 C 0.93132 0.72962 0.56012 0.0
C1287 C 0.00216 0.71124 0.55345 0.0
H1288 H 0.94799 0.65404 0.54402 0.0
H1289 H 0.95065 0.69147 0.49483 0.0
H1290 H 0.97226 0.68466 0.57807 0.0
H1291 H 0.94798 0.69239 0.58099 0.0
H1292 H 0.9514 0.66656 0.57647 0.0
H1293 H 0.96179 0.72493 0.49801 0.0
H1294 H 0.95392 0.73674 0.52055 0.0
H1295 H 0.97892 0.73104 0.51813 0.0
H1296 H 0.94901 0.75806 0.58495 0.0
H1297 H 0.00824 0.74132 0.58084 0.0
H1298 H 0.92563 0.71477 0.56461 0.0
H1299 H 0.92895 0.7299 0.54402 0.0
H1300 H 0.92258 0.74084 0.56754 0.0
H1301 H -0.00069 0.69581 0.55791 0.0
H1302 H 0.01738 0.71672 0.55808 0.0
H1303 H 0.00115 0.71091 0.53717 0.0
C1304 C 0.78886 0.9126 0.22564 0.0
C1305 C 0.76854 0.90996 0.22903 0.0
C1306 C 0.79926 0.93118 0.22856 0.0
C1307 C 0.78901 0.94775 0.23432 0.0
C1308 C 0.76835 0.9455 0.23657 0.0
C1309 C 0.7584 0.9266 0.23421 0.0
C1310 C 0.82136 0.9329 0.22628 0.0
C1311 C 0.75684 0.96294 0.24212 0.0
C1312 C 0.81938 0.98851 0.26342 0.0
C1313 C 0.82599 0.00087 0.24857 0.0
C1314 C 0.80683 0.97146 0.25905 0.0
C1315 C 0.80025 0.96701 0.23944 0.0
C1316 C 0.80584 0.98014 0.22461 0.0
C1317 C 0.81896 0.99677 0.22929 0.0
C1318 C 0.80159 0.9576 0.27521 0.0
C1319 C 0.79853 0.97627 0.20369 0.0
H1320 H 0.7968 0.90004 0.22103 0.0
H1321 H 0.74275 0.92484 0.23705 0.0
H1322 H 0.82579 0.94399 0.21542 0.0
H1323 H 0.82853 0.93807 0.2405 0.0
H1324 H 0.82707 0.91863 0.22144 0.0
H1325 H 0.7407 0.95925 0.24056 0.0
H1326 H 0.76017 0.96798 0.25761 0.0
H1327 H 0.76118 0.97549 0.23284 0.0
H1328 H 0.82491 0.99155 0.27832 0.0
H1329 H 0.82395 0.00642 0.21781 0.0
H1330 H 0.80785 0.94327 0.27189 0.0
H1331 H 0.78539 0.95456 0.27607 0.0
H1332 H 0.80726 0.96362 0.28982 0.0
H1333 H 0.80555 0.96351 0.19686 0.0
H1334 H 0.80193 0.98922 0.19463 0.0
H1335 H 0.78239 0.97241 0.20335 0.0
C1336 C 0.78501 0.16709 0.27225 0.0
C1337 C 0.78791 0.18236 0.28689 0.0
C1338 C 0.79665 0.15102 0.27163 0.0
C1339 C 0.81196 0.15042 0.28566 0.0
C1340 C 0.8156 0.16617 0.29993 0.0
C1341 C 0.80339 0.18182 0.30054 0.0
C1342 C 0.79213 0.13438 0.25632 0.0
C1343 C 0.83205 0.16622 0.3149 0.0
C1344 C 0.82667 0.09963 0.29703 0.0
C1345 C 0.84284 0.0977 0.28469 0.0
C1346 C 0.81669 0.11685 0.29769 0.0
C1347 C 0.82332 0.1327 0.28607 0.0
C1348 C 0.84012 0.13115 0.27417 0.0
C1349 C 0.84955 0.11353 0.27342 0.0
C1350 C 0.7986 0.11778 0.31029 0.0
C1351 C 0.84792 0.14795 0.26198 0.0
H1352 H 0.77346 0.16755 0.26131 0.0
H1353 H 0.80569 0.19336 0.31207 0.0
H1354 H 0.80538 0.13201 0.24744 0.0
H1355 H 0.78801 0.12045 0.26365 0.0
H1356 H 0.77993 0.13727 0.24625 0.0
H1357 H 0.83424 0.18047 0.32367 0.0
H1358 H 0.82871 0.15422 0.32511 0.0
H1359 H 0.84605 0.16334 0.3075 0.0
H1360 H 0.82136 0.08738 0.30568 0.0
H1361 H 0.86213 0.11212 0.26396 0.0
H1362 H 0.78557 0.11947 0.30085 0.0
H1363 H 0.80032 0.13084 0.32076 0.0
H1364 H 0.79563 0.10434 0.31877 0.0
H1365 H 0.83701 0.15041 0.25039 0.0
H1366 H 0.86205 0.14502 0.25482 0.0
H1367 H 0.85018 0.16182 0.2713 0.0
C1368 C 0.32652 0.0117 0.99286 0.0
C1369 C 0.33714 0.00847 0.97561 0.0
C1370 C 0.31084 0.99837 0.99798 0.0
C1371 C 0.30568 0.98142 0.98553 0.0
C1372 C 0.31587 0.97844 0.96774 0.0
C1373 C 0.33151 0.99204 0.96298 0.0
C1374 C 0.30021 0.00211 0.01701 0.0
C1375 C 0.31074 0.96053 0.9541 0.0
C1376 C 0.28091 0.93698 0.00956 0.0
C1377 C 0.26107 0.93825 0.0046 0.0
C1378 C 0.29559 0.95083 0.00324 0.0
C1379 C 0.2903 0.96632 0.99169 0.0
C1380 C 0.27035 0.96762 0.98647 0.0
C1381 C 0.25595 0.95356 0.99299 0.0
C1382 C 0.31675 0.94899 0.0091 0.0
C1383 C 0.26419 0.98396 0.97417 0.0
H1384 H 0.33066 0.02456 0.00251 0.0
H1385 H 0.3398 0.98941 0.94972 0.0
H1386 H 0.28413 0.0018 0.01424 0.0
H1387 H 0.3026 0.99023 0.02713 0.0
H1388 H 0.30533 0.01654 0.02448 0.0
H1389 H 0.31917 0.96109 0.94022 0.0
H1390 H 0.31391 0.94698 0.96154 0.0
H1391 H 0.29478 0.95922 0.95045 0.0
H1392 H 0.28501 0.92519 0.01848 0.0
H1393 H 0.24066 0.95466 0.98906 0.0
H1394 H 0.32252 0.96237 0.01799 0.0
H1395 H 0.32599 0.94797 0.9958 0.0
H1396 H 0.31845 0.93583 0.01778 0.0
H1397 H 0.26818 0.99851 0.98191 0.0
H1398 H 0.24812 0.98261 0.97099 0.0
H1399 H 0.27217 0.98385 0.96003 0.0
C1400 C 0.19668 0.37271 0.28309 0.0
C1401 C 0.21699 0.37761 0.28575 0.0
C1402 C 0.18331 0.38739 0.28365 0.0
C1403 C 0.19047 0.40747 0.28646 0.0
C1404 C 0.21095 0.41257 0.28857 0.0
C1405 C 0.22388 0.39761 0.28851 0.0
C1406 C 0.16153 0.3814 0.28173 0.0
C1407 C 0.21922 0.43385 0.29133 0.0
C1408 C 0.16052 0.44979 0.2738 0.0
C1409 C 0.15607 0.4574 0.29258 0.0
C1410 C 0.17103 0.43294 0.27145 0.0
C1411 C 0.1767 0.42328 0.28827 0.0
C1412 C 0.171 0.43016 0.30717 0.0
C1413 C 0.16101 0.44734 0.30911 0.0
C1414 C 0.17719 0.42629 0.2511 0.0
C1415 C 0.17629 0.41997 0.32543 0.0
H1416 H 0.19115 0.35738 0.28064 0.0
H1417 H 0.23942 0.40168 0.2911 0.0
H1418 H 0.15402 0.38603 0.29539 0.0
H1419 H 0.15506 0.38899 0.26951 0.0
H1420 H 0.15837 0.36519 0.27903 0.0
H1421 H 0.23557 0.4354 0.29109 0.0
H1422 H 0.21359 0.4427 0.2796 0.0
H1423 H 0.21436 0.44025 0.3056 0.0
H1424 H 0.15676 0.45764 0.26101 0.0
H1425 H 0.15736 0.45311 0.32364 0.0
H1426 H 0.17384 0.41013 0.24852 0.0
H1427 H 0.19335 0.42941 0.24973 0.0
H1428 H 0.16982 0.43397 0.23945 0.0
H1429 H 0.17256 0.4038 0.32342 0.0
H1430 H 0.16858 0.42559 0.33862 0.0
H1431 H 0.19239 0.42239 0.32821 0.0
C1432 C 0.142 0.06105 0.45481 0.0
C1433 C 0.12594 0.05615 0.46694 0.0
C1434 C 0.15711 0.07524 0.46106 0.0
C1435 C 0.15647 0.08443 0.48011 0.0
C1436 C 0.14012 0.08001 0.49227 0.0
C1437 C 0.12494 0.0661 0.48544 0.0
C1438 C 0.17418 0.0798 0.44753 0.0
C1439 C 0.13908 0.08932 0.51279 0.0
C1440 C 0.20695 0.10051 0.50147 0.0
C1441 C 0.20842 0.12084 0.49868 0.0
C1442 C 0.1897 0.08868 0.49637 0.0
C1443 C 0.17374 0.09733 0.4878 0.0
C1444 C 0.17494 0.11795 0.4854 0.0
C1445 C 0.19224 0.12954 0.49111 0.0
C1446 C 0.18882 0.06681 0.49959 0.0
C1447 C 0.15836 0.12759 0.47594 0.0
H1448 H 0.14319 0.0533 0.44064 0.0
H1449 H 0.11242 0.06278 0.49478 0.0
H1450 H 0.17718 0.09601 0.44656 0.0
H1451 H 0.18765 0.0741 0.45353 0.0
H1452 H 0.17141 0.07306 0.43247 0.0
H1453 H 0.12475 0.08537 0.51986 0.0
H1454 H 0.15102 0.08436 0.52202 0.0
H1455 H 0.1414 0.10563 0.51251 0.0
H1456 H 0.2194 0.09381 0.50752 0.0
H1457 H 0.19343 0.14526 0.48884 0.0
H1458 H 0.18826 0.05838 0.4852 0.0
H1459 H 0.17524 0.06212 0.5076 0.0
H1460 H 0.20175 0.06276 0.50805 0.0
H1461 H 0.15676 0.12224 0.4603 0.0
H1462 H 0.16095 0.14396 0.47656 0.0
H1463 H 0.14421 0.12346 0.4832 0.0
C1464 C 0.70121 0.13728 0.743 0.0
C1465 C 0.72183 0.13762 0.74336 0.0
C1466 C 0.68941 0.1204 0.7479 0.0
C1467 C 0.69841 0.10325 0.75275 0.0
C1468 C 0.71915 0.10325 0.75262 0.0
C1469 C 0.73062 0.12051 0.7482 0.0
C1470 C 0.66731 0.12103 0.74814 0.0
C1471 C 0.72923 0.08508 0.75735 0.0
C1472 C 0.66906 0.06631 0.78324 0.0
C1473 C 0.66075 0.05283 0.76865 0.0
C1474 C 0.68147 0.08275 0.77827 0.0
C1475 C 0.68605 0.08543 0.75829 0.0
C1476 C 0.67829 0.07145 0.74357 0.0
C1477 C 0.6655 0.05543 0.74891 0.0
C1478 C 0.68916 0.09759 0.79432 0.0
C1479 C 0.68328 0.07354 0.72218 0.0
H1480 H 0.69422 0.15022 0.73889 0.0
H1481 H 0.74651 0.12064 0.74889 0.0
H1482 H 0.6603 0.10963 0.73752 0.0
H1483 H 0.66165 0.11762 0.76292 0.0
H1484 H 0.66266 0.13566 0.74437 0.0
H1485 H 0.74543 0.08714 0.75541 0.0
H1486 H 0.72623 0.08136 0.77276 0.0
H1487 H 0.72329 0.07226 0.74776 0.0
H1488 H 0.66529 0.0644 0.7985 0.0
H1489 H 0.6592 0.04492 0.73763 0.0
H1490 H 0.68379 0.11221 0.79174 0.0
H1491 H 0.70547 0.09942 0.7941 0.0
H1492 H 0.68445 0.09317 0.80916 0.0
H1493 H 0.67745 0.08709 0.71688 0.0
H1494 H 0.67709 0.06069 0.71274 0.0
H1495 H 0.69949 0.07514 0.72037 0.0
C1496 C 0.37909 0.05302 0.55036 0.0
C1497 C 0.37094 0.03648 0.55984 0.0
C1498 C 0.36735 0.06786 0.54487 0.0
C1499 C 0.34694 0.06603 0.54882 0.0
C1500 C 0.3388 0.04982 0.5592 0.0
C1501 C 0.35093 0.03525 0.56465 0.0
C1502 C 0.37663 0.08502 0.534 0.0
C1503 C 0.31709 0.04728 0.5636 0.0
C1504 C 0.31664 0.10993 0.54256 0.0
C1505 C 0.30867 0.10565 0.52363 0.0
C1506 C 0.32923 0.09724 0.55099 0.0
C1507 C 0.33383 0.07986 0.54027 0.0
C1508 C 0.32589 0.07556 0.52114 0.0
C1509 C 0.31348 0.08851 0.51305 0.0
C1510 C 0.33755 0.10234 0.57138 0.0
C1511 C 0.33038 0.05716 0.50922 0.0
H1512 H 0.39463 0.05417 0.5469 0.0
H1513 H 0.34456 0.02243 0.57188 0.0
H1514 H 0.37122 0.08392 0.51855 0.0
H1515 H 0.37234 0.0992 0.54073 0.0
H1516 H 0.39295 0.08538 0.53394 0.0
H1517 H 0.31344 0.035 0.57345 0.0
H1518 H 0.31215 0.06109 0.57056 0.0
H1519 H 0.30862 0.04414 0.54967 0.0
H1520 H 0.31298 0.12314 0.55082 0.0
H1521 H 0.30737 0.08504 0.49843 0.0
H1522 H 0.35387 0.10333 0.57105 0.0
H1523 H 0.33278 0.09048 0.58133 0.0
H1524 H 0.33281 0.11656 0.57765 0.0
H1525 H 0.34649 0.05713 0.507 0.0
H1526 H 0.32295 0.05593 0.49459 0.0
H1527 H 0.32563 0.04385 0.51729 0.0
C1528 C 0.61554 0.505 0.57186 0.0
C1529 C 0.62493 0.52327 0.57848 0.0
C1530 C 0.62636 0.48866 0.56774 0.0
C1531 C 0.64709 0.49076 0.57008 0.0
C1532 C 0.65652 0.50888 0.5778 0.0
C1533 C 0.64528 0.52493 0.58201 0.0
C1534 C 0.61573 0.46952 0.55981 0.0
C1535 C 0.6786 0.51175 0.58036 0.0
C1536 C 0.67678 0.44573 0.56575 0.0
C1537 C 0.68263 0.44608 0.54606 0.0
C1538 C 0.66495 0.46002 0.57382 0.0
C1539 C 0.65905 0.47502 0.56193 0.0
C1540 C 0.66472 0.47524 0.542 0.0
C1541 C 0.67633 0.46074 0.53431 0.0
C1542 C 0.65897 0.45923 0.59507 0.0
C1543 C 0.6588 0.49103 0.52883 0.0
H1544 H 0.59974 0.50364 0.56942 0.0
H1545 H 0.65256 0.53907 0.58708 0.0
H1546 H 0.61903 0.46722 0.54398 0.0
H1547 H 0.62087 0.45684 0.56746 0.0
H1548 H 0.59951 0.46946 0.56143 0.0
H1549 H 0.6834 0.52584 0.58863 0.0
H1550 H 0.6841 0.49936 0.5882 0.0
H1551 H 0.6856 0.51183 0.56571 0.0
H1552 H 0.68161 0.43444 0.57491 0.0
H1553 H 0.68079 0.46117 0.51909 0.0
H1554 H 0.64272 0.45888 0.59623 0.0
H1555 H 0.66524 0.47274 0.60344 0.0
H1556 H 0.66403 0.44612 0.60209 0.0
H1557 H 0.64253 0.49084 0.52804 0.0
H1558 H 0.66445 0.48909 0.51366 0.0
H1559 H 0.6645 0.50583 0.53503 0.0
C1560 C 0.72286 0.32705 0.39523 0.0
C1561 C 0.71071 0.30986 0.39027 0.0
C1562 C 0.72192 0.33668 0.41383 0.0
C1563 C 0.70835 0.32903 0.42774 0.0
C1564 C 0.69568 0.31196 0.42265 0.0
C1565 C 0.6971 0.30248 0.40398 0.0
C1566 C 0.73584 0.35474 0.41877 0.0
C1567 C 0.68087 0.30356 0.43702 0.0
C1568 C 0.72341 0.34324 0.48042 0.0
C1569 C 0.71334 0.36019 0.48419 0.0
C1570 C 0.72114 0.33235 0.46242 0.0
C1571 C 0.70833 0.33842 0.4479 0.0
C1572 C 0.69707 0.35466 0.4521 0.0
C1573 C 0.69976 0.36542 0.47019 0.0
C1574 C 0.73344 0.31512 0.45851 0.0
C1575 C 0.68301 0.36135 0.43707 0.0
H1576 H 0.73353 0.33265 0.38472 0.0
H1577 H 0.68754 0.28931 0.40007 0.0
H1578 H 0.72743 0.36737 0.42357 0.0
H1579 H 0.74565 0.35181 0.43117 0.0
H1580 H 0.74511 0.3591 0.40611 0.0
H1581 H 0.67122 0.29098 0.43034 0.0
H1582 H 0.68864 0.29838 0.4499 0.0
H1583 H 0.67151 0.31518 0.44256 0.0
H1584 H 0.73385 0.33897 0.49117 0.0
H1585 H 0.69179 0.37839 0.47302 0.0
H1586 H 0.74449 0.31886 0.44711 0.0
H1587 H 0.72408 0.30194 0.45277 0.0
H1588 H 0.74133 0.31121 0.47191 0.0
H1589 H 0.69149 0.36806 0.4249 0.0
H1590 H 0.67348 0.37244 0.44349 0.0
H1591 H 0.67351 0.34858 0.43062 0.0
C1592 C 0.49857 0.05685 0.86463 0.0
C1593 C 0.4915 0.04359 0.87861 0.0
C1594 C 0.51417 0.05254 0.85225 0.0
C1595 C 0.52243 0.03422 0.85336 0.0
C1596 C 0.51482 0.02038 0.86674 0.0
C1597 C 0.49971 0.02536 0.87943 0.0
C1598 C 0.52219 0.06783 0.83841 0.0
C1599 C 0.52292 0.00047 0.86797 0.0
C1600 C 0.55285 0.01718 0.81032 0.0
C1601 C 0.57201 0.02102 0.81792 0.0
C1602 C 0.53651 0.02116 0.82179 0.0
C1603 C 0.53952 0.0298 0.84103 0.0
C1604 C 0.55889 0.03403 0.84862 0.0
C1605 C 0.57493 0.02926 0.83707 0.0
C1606 C 0.51606 0.01584 0.81346 0.0
C1607 C 0.56268 0.04376 0.86886 0.0
H1608 H 0.4921 0.07076 0.86346 0.0
H1609 H 0.49474 0.01509 0.89035 0.0
H1610 H 0.53796 0.07204 0.84186 0.0
H1611 H 0.52131 0.06161 0.82303 0.0
H1612 H 0.51412 0.08137 0.83936 0.0
H1613 H 0.51415 0.9907 0.87782 0.0
H1614 H 0.52317 0.99296 0.85314 0.0
H1615 H 0.53831 0.00242 0.87357 0.0
H1616 H 0.55064 0.01064 0.79554 0.0
H1617 H 0.58979 0.03238 0.84284 0.0
H1618 H 0.50787 0.02923 0.81303 0.0
H1619 H 0.50777 0.00549 0.8231 0.0
H1620 H 0.51628 0.00884 0.79838 0.0
H1621 H 0.55557 0.05787 0.87015 0.0
H1622 H 0.57864 0.04687 0.87221 0.0
H1623 H 0.55608 0.03413 0.88015 0.0
C1624 C 0.30652 0.24 0.38714 0.0
C1625 C 0.28886 0.24695 0.38066 0.0
C1626 C 0.30691 0.22795 0.40325 0.0
C1627 C 0.28915 0.22232 0.41284 0.0
C1628 C 0.27123 0.22897 0.40622 0.0
C1629 C 0.27135 0.24138 0.3904 0.0
C1630 C 0.32633 0.22141 0.41012 0.0
C1631 C 0.25192 0.22306 0.41593 0.0
C1632 C 0.28411 0.17742 0.44387 0.0
C1633 C 0.28376 0.18632 0.46286 0.0
C1634 C 0.28656 0.18894 0.4274 0.0
C1635 C 0.28917 0.20978 0.43009 0.0
C1636 C 0.29015 0.21873 0.44932 0.0
C1637 C 0.28718 0.2069 0.46548 0.0
C1638 C 0.2851 0.17888 0.40711 0.0
C1639 C 0.29343 0.24086 0.45281 0.0
H1640 H 0.3201 0.24385 0.37954 0.0
H1641 H 0.25767 0.24691 0.38584 0.0
H1642 H 0.32909 0.22642 0.42573 0.0
H1643 H 0.32585 0.20505 0.40933 0.0
H1644 H 0.33888 0.2273 0.40123 0.0
H1645 H 0.23918 0.22865 0.40835 0.0
H1646 H 0.24957 0.20673 0.41607 0.0
H1647 H 0.25228 0.2289 0.43143 0.0
H1648 H 0.28131 0.16152 0.44179 0.0
H1649 H 0.28707 0.2138 0.48017 0.0
H1650 H 0.29768 0.18419 0.398 0.0
H1651 H 0.27145 0.18264 0.39969 0.0
H1652 H 0.28476 0.16255 0.40754 0.0
H1653 H 0.30619 0.24677 0.44425 0.0
H1654 H 0.29607 0.24528 0.46859 0.0
H1655 H 0.28032 0.24788 0.44771 0.0
C1656 C 0.46942 0.48412 0.86832 0.0
C1657 C 0.48765 0.49484 0.87202 0.0
C1658 C 0.45538 0.49117 0.8559 0.0
C1659 C 0.45966 0.5094 0.84705 0.0
C1660 C 0.47801 0.52032 0.85077 0.0
C1661 C 0.4918 0.51289 0.8632 0.0
C1662 C 0.43601 0.47905 0.85216 0.0
C1663 C 0.48305 0.53986 0.84165 0.0
C1664 C 0.43112 0.51869 0.8009 0.0
C1665 C 0.41671 0.53055 0.80836 0.0
C1666 C 0.44524 0.5118 0.81331 0.0
C1667 C 0.44501 0.51693 0.83369 0.0
C1668 C 0.43069 0.52908 0.84131 0.0
C1669 C 0.41668 0.53573 0.82856 0.0
C1670 C 0.46028 0.49885 0.80466 0.0
C1671 C 0.43006 0.53492 0.86297 0.0
H1672 H 0.46625 0.47007 0.87495 0.0
H1673 H 0.50576 0.52136 0.86625 0.0
H1674 H 0.42363 0.48787 0.85656 0.0
H1675 H 0.43417 0.47505 0.83622 0.0
H1676 H 0.43491 0.46527 0.86031 0.0
H1677 H 0.49792 0.54657 0.84614 0.0
H1678 H 0.48248 0.53782 0.82539 0.0
H1679 H 0.47205 0.55037 0.84595 0.0
H1680 H 0.43127 0.51459 0.78531 0.0
H1681 H 0.40564 0.54489 0.83445 0.0
H1682 H 0.45891 0.48429 0.8114 0.0
H1683 H 0.47536 0.50566 0.80801 0.0
H1684 H 0.45859 0.49639 0.78846 0.0
H1685 H 0.42762 0.52152 0.87155 0.0
H1686 H 0.41823 0.54478 0.86649 0.0
H1687 H 0.44439 0.54259 0.86788 0.0
C1688 C 0.75545 0.74634 0.14058 0.0
C1689 C 0.74287 0.7395 0.15541 0.0
C1690 C 0.75796 0.73473 0.12332 0.0
C1691 C 0.74764 0.71582 0.12085 0.0
C1692 C 0.73568 0.70843 0.13617 0.0
C1693 C 0.73339 0.72039 0.15326 0.0
C1694 C 0.77078 0.74317 0.10728 0.0
C1695 C 0.72456 0.68828 0.13413 0.0
C1696 C 0.73427 0.69828 0.06843 0.0
C1697 C 0.74873 0.68528 0.06395 0.0
C1698 C 0.73364 0.70805 0.08698 0.0
C1699 C 0.74778 0.70472 0.10149 0.0
C1700 C 0.7622 0.69134 0.09724 0.0
C1701 C 0.76253 0.68178 0.07847 0.0
C1702 C 0.71801 0.72221 0.09093 0.0
C1703 C 0.77745 0.68739 0.1124 0.0
H1704 H 0.76265 0.76117 0.14205 0.0
H1705 H 0.72386 0.71494 0.16481 0.0
H1706 H 0.78129 0.73246 0.10217 0.0
H1707 H 0.76145 0.74599 0.09448 0.0
H1708 H 0.77924 0.75724 0.11222 0.0
H1709 H 0.71762 0.68387 0.14813 0.0
H1710 H 0.71284 0.68832 0.12275 0.0
H1711 H 0.73455 0.67697 0.12924 0.0
H1712 H 0.72352 0.70106 0.05733 0.0
H1713 H 0.77373 0.67173 0.07512 0.0
H1714 H 0.72506 0.73729 0.09443 0.0
H1715 H 0.70923 0.7178 0.10387 0.0
H1716 H 0.70785 0.72282 0.07819 0.0
H1717 H 0.78678 0.70119 0.11632 0.0
H1718 H 0.7871 0.6759 0.10708 0.0
H1719 H 0.77014 0.68255 0.12605 0.0
C1720 C 0.99699 0.09197 0.17722 0.0
C1721 C 0.9961 0.10371 0.16099 0.0
C1722 C 0.98018 0.08714 0.18826 0.0
C1723 C 0.96198 0.09402 0.18275 0.0
C1724 C 0.96124 0.10681 0.16703 0.0
C1725 C 0.9784 0.1116 0.15636 0.0
C1726 C 0.98168 0.07372 0.20511 0.0
C1727 C 0.94212 0.1144 0.16069 0.0
C1728 C 0.91915 0.05814 0.19536 0.0
C1729 C 0.91287 0.06662 0.21315 0.0
C1730 C 0.93431 0.06761 0.18466 0.0
C1731 C 0.94359 0.08591 0.19206 0.0
C1732 C 0.93655 0.09512 0.20942 0.0
C1733 C 0.92115 0.08539 0.21973 0.0
C1734 C 0.94116 0.05743 0.16602 0.0
C1735 C 0.9461 0.11458 0.21778 0.0
H1736 H 0.01077 0.08606 0.1809 0.0
H1737 H 0.97772 0.12061 0.14373 0.0
H1738 H 0.97468 0.07997 0.21841 0.0
H1739 H 0.97371 0.05914 0.20121 0.0
H1740 H 0.9972 0.07137 0.20877 0.0
H1741 H 0.94449 0.12633 0.15019 0.0
H1742 H 0.93257 0.10209 0.15346 0.0
H1743 H 0.93408 0.12007 0.17359 0.0
H1744 H 0.91265 0.04373 0.1901 0.0
H1745 H 0.91636 0.092 0.2335 0.0
H1746 H 0.95603 0.05245 0.16847 0.0
H1747 H 0.94231 0.06784 0.15398 0.0
H1748 H 0.93109 0.04438 0.16118 0.0
H1749 H 0.96079 0.11229 0.22398 0.0
H1750 H 0.93718 0.12113 0.22963 0.0
H1751 H 0.9484 0.1253 0.2061 0.0
C1752 C 0.26296 0.82432 0.16111 0.0
C1753 C 0.25053 0.80698 0.16286 0.0
C1754 C 0.25966 0.83751 0.14648 0.0
C1755 C 0.24377 0.83308 0.13307 0.0
C1756 C 0.23054 0.81623 0.13544 0.0
C1757 C 0.23398 0.80349 0.15042 0.0
C1758 C 0.2739 0.85553 0.14464 0.0
C1759 C 0.21347 0.81092 0.12137 0.0
C1760 C 0.22872 0.87027 0.09708 0.0
C1761 C 0.23876 0.86442 0.08015 0.0
C1762 C 0.23059 0.86059 0.11467 0.0
C1763 C 0.24246 0.84449 0.11514 0.0
C1764 C 0.25277 0.83869 0.09813 0.0
C1765 C 0.25092 0.84882 0.08093 0.0
C1766 C 0.21972 0.86741 0.13266 0.0
C1767 C 0.26541 0.82145 0.09794 0.0
H1768 H 0.27587 0.82714 0.17053 0.0
H1769 H 0.224 0.79042 0.15197 0.0
H1770 H 0.28344 0.85325 0.13173 0.0
H1771 H 0.26586 0.86874 0.14221 0.0
H1772 H 0.28347 0.85854 0.1579 0.0
H1773 H 0.2035 0.79843 0.12633 0.0
H1774 H 0.2048 0.82382 0.11963 0.0
H1775 H 0.21918 0.80669 0.10668 0.0
H1776 H 0.21939 0.88239 0.09658 0.0
H1777 H 0.25866 0.84416 0.06789 0.0
H1778 H 0.23012 0.87049 0.14526 0.0
H1779 H 0.20863 0.85554 0.13686 0.0
H1780 H 0.2121 0.88091 0.13022 0.0
H1781 H 0.27709 0.82405 0.10942 0.0
H1782 H 0.27252 0.81891 0.08352 0.0
H1783 H 0.25631 0.8078 0.10139 0.0
C1784 C 0.0037 0.46624 0.17277 0.0
C1785 C 0.00819 0.46924 0.15302 0.0
C1786 C 0.018 0.4705 0.18763 0.0
C1787 C 0.03727 0.47778 0.1826 0.0
C1788 C 0.0421 0.48012 0.16265 0.0
C1789 C 0.02748 0.47596 0.14813 0.0
C1790 C 0.01228 0.46793 0.20878 0.0
C1791 C 0.06251 0.4878 0.1567 0.0
C1792 C 0.06647 0.51153 0.22002 0.0
C1793 C 0.07931 0.49882 0.22787 0.0
C1794 C 0.05268 0.50478 0.20538 0.0
C1795 C 0.0518 0.48484 0.19825 0.0
C1796 C 0.06484 0.47191 0.20593 0.0
C1797 C 0.07843 0.47905 0.22075 0.0
C1798 C 0.03896 0.51901 0.19763 0.0
C1799 C 0.06441 0.4506 0.19848 0.0
H1800 H 0.98893 0.46073 0.17663 0.0
H1801 H 0.03106 0.47861 0.13297 0.0
H1802 H 0.02275 0.45893 0.2161 0.0
H1803 H 0.01306 0.48257 0.21682 0.0
H1804 H 0.99715 0.46073 0.21012 0.0
H1805 H 0.06443 0.4868 0.14051 0.0
H1806 H 0.06537 0.50349 0.16195 0.0
H1807 H 0.07377 0.47941 0.16362 0.0
H1808 H 0.06698 0.52681 0.22548 0.0
H1809 H 0.08833 0.46916 0.22677 0.0
H1810 H 0.02343 0.51337 0.19989 0.0
H1811 H 0.04101 0.52026 0.18159 0.0
H1812 H 0.04141 0.534 0.20493 0.0
H1813 H 0.04966 0.44298 0.20087 0.0
H1814 H 0.07564 0.44251 0.20587 0.0
H1815 H 0.06705 0.44979 0.18242 0.0
C1816 C 0.39438 0.73712 0.26687 0.0
C1817 C 0.37721 0.74529 0.27346 0.0
C1818 C 0.41135 0.73828 0.27882 0.0
C1819 C 0.4111 0.74785 0.29774 0.0
C1820 C 0.39387 0.75624 0.30438 0.0
C1821 C 0.37714 0.75481 0.29219 0.0
C1822 C 0.42949 0.7292 0.27128 0.0
C1823 C 0.39301 0.76656 0.32449 0.0
C1824 C 0.44569 0.7376 0.33903 0.0
C1825 C 0.45868 0.75474 0.33977 0.0
C1826 C 0.43073 0.73462 0.32468 0.0
C1827 C 0.42872 0.74914 0.3108 0.0
C1828 C 0.44247 0.7659 0.31077 0.0
C1829 C 0.45731 0.76849 0.32524 0.0
C1830 C 0.41642 0.71646 0.32507 0.0
C1831 C 0.44082 0.78169 0.29616 0.0
H1832 H 0.39456 0.72989 0.25234 0.0
H1833 H 0.36382 0.76082 0.29752 0.0
H1834 H 0.44209 0.74061 0.27122 0.0
H1835 H 0.43357 0.71771 0.28119 0.0
H1836 H 0.42731 0.72237 0.25618 0.0
H1837 H 0.37857 0.77255 0.3273 0.0
H1838 H 0.39576 0.75612 0.336 0.0
H1839 H 0.40471 0.77892 0.32601 0.0
H1840 H 0.44673 0.72681 0.35009 0.0
H1841 H 0.46736 0.78171 0.32559 0.0
H1842 H 0.41458 0.70916 0.31016 0.0
H1843 H 0.40177 0.72083 0.32974 0.0
H1844 H 0.42126 0.70559 0.33534 0.0
H1845 H 0.43913 0.77497 0.28101 0.0
H1846 H 0.45385 0.79266 0.29672 0.0
H1847 H 0.42751 0.78959 0.29934 0.0
C1848 C 0.96027 0.36667 0.00614 0.0
C1849 C 0.94624 0.37994 0.00212 0.0
C1850 C 0.96459 0.35182 0.99226 0.0
C1851 C 0.95452 0.35006 0.97396 0.0
C1852 C 0.93967 0.36278 0.97013 0.0
C1853 C 0.93571 0.37763 0.98429 0.0
C1854 C 0.98049 0.3385 0.99693 0.0
C1855 C 0.92851 0.36119 0.95082 0.0
C1856 C 0.98262 0.32755 0.93188 0.0
C1857 C 0.97463 0.30784 0.93113 0.0
C1858 C 0.97581 0.34155 0.94543 0.0
C1859 C 0.96055 0.33574 0.95844 0.0
C1860 C 0.95205 0.31602 0.95741 0.0
C1861 C 0.95925 0.30227 0.94381 0.0
C1862 C 0.98534 0.36244 0.94618 0.0
C1863 C 0.93565 0.30935 0.97096 0.0
H1864 H 0.96814 0.36814 0.02009 0.0
H1865 H 0.92491 0.38789 0.98109 0.0
H1866 H 0.97477 0.32278 0.99482 0.0
H1867 H 0.99294 0.34097 0.9867 0.0
H1868 H 0.98619 0.34115 0.01223 0.0
H1869 H 0.91618 0.37089 0.95088 0.0
H1870 H 0.93866 0.3654 0.9388 0.0
H1871 H 0.92252 0.34571 0.94743 0.0
H1872 H 0.99447 0.332 0.92213 0.0
H1873 H 0.95289 0.2871 0.94323 0.0
H1874 H 0.99272 0.36591 0.96066 0.0
H1875 H 0.974 0.37306 0.94464 0.0
H1876 H 0.99642 0.36478 0.93447 0.0
H1877 H 0.94115 0.31038 0.98637 0.0
H1878 H 0.92965 0.2939 0.96732 0.0
H1879 H 0.92348 0.31917 0.97019 0.0
C1880 C 0.6206 0.79372 0.29135 0.0
C1881 C 0.64008 0.79624 0.29842 0.0
C1882 C 0.60471 0.79168 0.30423 0.0
C1883 C 0.60831 0.79257 0.32476 0.0
C1884 C 0.62789 0.79505 0.33206 0.0
C1885 C 0.64355 0.79667 0.3188 0.0
C1886 C 0.58402 0.78887 0.29586 0.0
C1887 C 0.63226 0.79632 0.35386 0.0
C1888 C 0.56474 0.80753 0.35447 0.0
C1889 C 0.55624 0.78919 0.35997 0.0
C1890 C 0.58235 0.80896 0.34394 0.0
C1891 C 0.59143 0.79156 0.33846 0.0
C1892 C 0.58336 0.77309 0.34468 0.0
C1893 C 0.56591 0.77214 0.35555 0.0
C1894 C 0.59075 0.82899 0.33794 0.0
C1895 C 0.59248 0.75419 0.3389 0.0
H1896 H 0.61767 0.79375 0.2757 0.0
H1897 H 0.65853 0.79828 0.32443 0.0
H1898 H 0.57609 0.77551 0.30163 0.0
H1899 H 0.57578 0.80168 0.3005 0.0
H1900 H 0.58379 0.78735 0.27955 0.0
H1901 H 0.64832 0.79799 0.35716 0.0
H1902 H 0.62542 0.8091 0.3609 0.0
H1903 H 0.62574 0.78286 0.3607 0.0
H1904 H 0.55738 0.82077 0.35802 0.0
H1905 H 0.55933 0.75792 0.35971 0.0
H1906 H 0.58926 0.82986 0.32178 0.0
H1907 H 0.60667 0.83124 0.34167 0.0
H1908 H 0.58315 0.84121 0.34516 0.0
H1909 H 0.59089 0.75118 0.32278 0.0
H1910 H 0.58547 0.74131 0.34638 0.0
H1911 H 0.60846 0.75563 0.34243 0.0
C1912 C 0.04747 0.18697 0.01441 0.0
C1913 C 0.06081 0.17245 0.01157 0.0
C1914 C 0.04073 0.19708 0.99858 0.0
C1915 C 0.04709 0.19227 0.97934 0.0
C1916 C 0.06093 0.17805 0.97637 0.0
C1917 C 0.06778 0.16847 0.99254 0.0
C1918 C 0.02621 0.2124 0.00241 0.0
C1919 C 0.06791 0.1724 0.95603 0.0
C1920 C 0.01043 0.20254 0.93985 0.0
C1921 C 0.01859 0.22056 0.93322 0.0
C1922 C 0.02013 0.19266 0.95413 0.0
C1923 C 0.03819 0.20125 0.9623 0.0
C1924 C 0.04684 0.21911 0.95516 0.0
C1925 C 0.03701 0.22847 0.94052 0.0
C1926 C 0.01064 0.17339 0.96102 0.0
C1927 C 0.06591 0.2289 0.96373 0.0
H1928 H 0.04169 0.19001 0.02891 0.0
H1929 H 0.07839 0.1576 0.99019 0.0
H1930 H 0.03122 0.22631 0.99544 0.0
H1931 H 0.01171 0.20706 0.99576 0.0
H1932 H 0.02417 0.21574 0.01836 0.0
H1933 H 0.0796 0.16196 0.95633 0.0
H1934 H 0.05533 0.16536 0.94708 0.0
H1935 H 0.07367 0.18574 0.94851 0.0
H1936 H 0.99626 0.19631 0.93411 0.0
H1937 H 0.04331 0.24248 0.93551 0.0
H1938 H 0.00585 0.17548 0.97646 0.0
H1939 H 0.02141 0.16201 0.96068 0.0
H1940 H 0.99762 0.16775 0.95188 0.0
H1941 H 0.06355 0.23412 0.97916 0.0
H1942 H 0.0716 0.24172 0.95535 0.0
H1943 H 0.0773 0.21819 0.96399 0.0
C1944 C 0.38984 0.3171 0.23641 0.0
C1945 C 0.37281 0.30432 0.2329 0.0
C1946 C 0.40651 0.31567 0.22463 0.0
C1947 C 0.40611 0.30109 0.20904 0.0
C1948 C 0.38887 0.28832 0.20527 0.0
C1949 C 0.37242 0.29011 0.21724 0.0
C1950 C 0.42461 0.3296 0.229 0.0
C1951 C 0.38793 0.27254 0.18879 0.0
C1952 C 0.44242 0.3053 0.16725 0.0
C1953 C 0.45593 0.29185 0.17232 0.0
C1954 C 0.42642 0.30889 0.17936 0.0
C1955 C 0.42385 0.29876 0.19692 0.0
C1956 C 0.43775 0.28566 0.20244 0.0
C1957 C 0.45364 0.28238 0.19008 0.0
C1958 C 0.41193 0.32306 0.17308 0.0
C1959 C 0.43549 0.27462 0.22109 0.0
H1960 H 0.39011 0.32827 0.24836 0.0
H1961 H 0.35938 0.28004 0.21464 0.0
H1962 H 0.43716 0.32108 0.23283 0.0
H1963 H 0.42883 0.33774 0.21576 0.0
H1964 H 0.42233 0.34048 0.24132 0.0
H1965 H 0.37324 0.26415 0.1875 0.0
H1966 H 0.39134 0.2793 0.1746 0.0
H1967 H 0.39916 0.262 0.19131 0.0
H1968 H 0.4441 0.31275 0.1536 0.0
H1969 H 0.46401 0.27201 0.19416 0.0
H1970 H 0.40995 0.33434 0.18507 0.0
H1971 H 0.39735 0.31492 0.17005 0.0
H1972 H 0.41672 0.3307 0.15967 0.0
H1973 H 0.43413 0.28513 0.2339 0.0
H1974 H 0.44811 0.26573 0.22376 0.0
H1975 H 0.4218 0.26457 0.22022 0.0
C1976 C 0.53377 0.3984 0.02759 0.0
C1977 C 0.54047 0.39068 0.00963 0.0
C1978 C 0.52945 0.38617 0.04321 0.0
C1979 C 0.5317 0.36571 0.0407 0.0
C1980 C 0.53908 0.35794 0.0228 0.0
C1981 C 0.54348 0.37057 0.00748 0.0
C1982 C 0.52181 0.39504 0.06214 0.0
C1983 C 0.5415 0.33616 0.01953 0.0
C1984 C 0.53022 0.33417 0.08531 0.0
C1985 C 0.51055 0.32626 0.08479 0.0
C1986 C 0.53737 0.34719 0.07112 0.0
C1987 C 0.52455 0.35221 0.05606 0.0
C1988 C 0.50467 0.34437 0.05558 0.0
C1989 C 0.4979 0.33158 0.06997 0.0
C1990 C 0.55862 0.35545 0.07215 0.0
C1991 C 0.49054 0.34933 0.03971 0.0
H1992 H 0.53178 0.41404 0.02938 0.0
H1993 H 0.54862 0.36459 0.99357 0.0
H1994 H 0.50623 0.38944 0.0641 0.0
H1995 H 0.53031 0.39055 0.07487 0.0
H1996 H 0.52265 0.41144 0.06237 0.0
H1997 H 0.54885 0.33273 0.00541 0.0
H1998 H 0.55023 0.33088 0.03171 0.0
H1999 H 0.52683 0.32774 0.01945 0.0
H2000 H 0.54006 0.33012 0.09671 0.0
H2001 H 0.48269 0.3255 0.06941 0.0
H2002 H 0.55947 0.37184 0.073 0.0
H2003 H 0.56631 0.35088 0.05859 0.0
H2004 H 0.56655 0.35043 0.08504 0.0
H2005 H 0.4894 0.36551 0.04002 0.0
H2006 H 0.47556 0.34188 0.04138 0.0
H2007 H 0.49616 0.34487 0.02504 0.0
C2008 C 0.63365 0.2858 0.22887 0.0
C2009 C 0.64819 0.27339 0.22297 0.0
C2010 C 0.61654 0.28669 0.2175 0.0
C2011 C 0.61394 0.27488 0.19982 0.0
C2012 C 0.62902 0.2631 0.19327 0.0
C2013 C 0.64596 0.26247 0.20496 0.0
C2014 C 0.60077 0.29937 0.22502 0.0
C2015 C 0.62682 0.25041 0.17443 0.0
C2016 C 0.56148 0.25714 0.18528 0.0
C2017 C 0.55741 0.26991 0.17052 0.0
C2018 C 0.57985 0.25859 0.1948 0.0
C2019 C 0.59459 0.27314 0.18941 0.0
C2020 C 0.59069 0.28602 0.17443 0.0
C2021 C 0.57208 0.28427 0.16516 0.0
C2022 C 0.58342 0.24459 0.21074 0.0
C2023 C 0.6061 0.30168 0.1683 0.0
H2024 H 0.63519 0.29412 0.24286 0.0
H2025 H 0.6573 0.25308 0.20021 0.0
H2026 H 0.59582 0.30857 0.21325 0.0
H2027 H 0.58778 0.28977 0.2295 0.0
H2028 H 0.60592 0.30923 0.23785 0.0
H2029 H 0.6407 0.24384 0.17033 0.0
H2030 H 0.61517 0.23825 0.17615 0.0
H2031 H 0.6222 0.2592 0.16219 0.0
H2032 H 0.55024 0.24599 0.18953 0.0
H2033 H 0.56904 0.29417 0.15374 0.0
H2034 H 0.5871 0.25308 0.22481 0.0
H2035 H 0.59616 0.23606 0.20691 0.0
H2036 H 0.57043 0.23402 0.21308 0.0
H2037 H 0.61034 0.31205 0.18101 0.0
H2038 H 0.60088 0.31026 0.15613 0.0
H2039 H 0.61957 0.29476 0.16353 0.0
C2040 C 0.47996 0.1542 0.0284 0.0
C2041 C 0.46185 0.14311 0.03017 0.0
C2042 C 0.48574 0.16987 0.04193 0.0
C2043 C 0.47305 0.17452 0.05753 0.0
C2044 C 0.45498 0.16306 0.05968 0.0
C2045 C 0.44959 0.14748 0.04596 0.0
C2046 C 0.50517 0.18174 0.03924 0.0
C2047 C 0.44103 0.16767 0.0761 0.0
C2048 C 0.493 0.20725 0.10115 0.0
C2049 C 0.48689 0.22565 0.09644 0.0
C2050 C 0.48873 0.19045 0.08856 0.0
C2051 C 0.47809 0.19213 0.07089 0.0
C2052 C 0.47196 0.21066 0.06602 0.0
C2053 C 0.47645 0.22719 0.07883 0.0
C2054 C 0.49551 0.17089 0.09416 0.0
C2055 C 0.46055 0.21301 0.0473 0.0
H2056 H 0.48959 0.15068 0.01636 0.0
H2057 H 0.43547 0.13908 0.04725 0.0
H2058 H 0.50253 0.19715 0.03608 0.0
H2059 H 0.5141 0.18237 0.05297 0.0
H2060 H 0.51383 0.17548 0.02704 0.0
H2061 H 0.42812 0.1566 0.0764 0.0
H2062 H 0.4488 0.1682 0.09051 0.0
H2063 H 0.43566 0.18244 0.07433 0.0
H2064 H 0.5011 0.20594 0.11471 0.0
H2065 H 0.47167 0.24133 0.07505 0.0
H2066 H 0.50495 0.16495 0.08246 0.0
H2067 H 0.48262 0.16 0.09554 0.0
H2068 H 0.50392 0.17214 0.10826 0.0
H2069 H 0.46915 0.20829 0.03439 0.0
H2070 H 0.45701 0.22849 0.04561 0.0
H2071 H 0.44659 0.20338 0.04712 0.0
C2072 C 0.26407 0.42735 0.73558 0.0
C2073 C 0.27232 0.41095 0.74293 0.0
C2074 C 0.27414 0.44624 0.73731 0.0
C2075 C 0.29286 0.44873 0.74665 0.0
C2076 C 0.30122 0.43224 0.75413 0.0
C2077 C 0.29085 0.41357 0.7522 0.0
C2078 C 0.26482 0.4635 0.72913 0.0
C2079 C 0.32113 0.4343 0.76426 0.0
C2080 C 0.33021 0.49176 0.73794 0.0
C2081 C 0.32912 0.50327 0.75552 0.0
C2082 C 0.31775 0.47445 0.73438 0.0
C2083 C 0.30388 0.46853 0.74874 0.0
C2084 C 0.30194 0.48066 0.766 0.0
C2085 C 0.31458 0.49789 0.76918 0.0
C2086 C 0.32017 0.46195 0.71573 0.0
C2087 C 0.28725 0.47488 0.78161 0.0
H2088 H 0.24983 0.42537 0.72824 0.0
H2089 H 0.29715 0.40102 0.75821 0.0
H2090 H 0.26319 0.47504 0.74097 0.0
H2091 H 0.27447 0.47028 0.71783 0.0
H2092 H 0.25011 0.45911 0.7224 0.0
H2093 H 0.32558 0.41997 0.76918 0.0
H2094 H 0.3325 0.44044 0.75416 0.0
H2095 H 0.32092 0.44479 0.77726 0.0
H2096 H 0.34129 0.49584 0.72722 0.0
H2097 H 0.31353 0.50675 0.78275 0.0
H2098 H 0.30568 0.45791 0.70847 0.0
H2099 H 0.32642 0.44801 0.71936 0.0
H2100 H 0.33008 0.46962 0.70516 0.0
H2101 H 0.27245 0.47101 0.77494 0.0
H2102 H 0.28616 0.48686 0.79315 0.0
H2103 H 0.2917 0.46159 0.78871 0.0
C2104 C 0.27418 0.66272 0.78287 0.0
C2105 C 0.28136 0.68266 0.78509 0.0
C2106 C 0.28697 0.64761 0.78264 0.0
C2107 C 0.30746 0.65247 0.78507 0.0
C2108 C 0.31488 0.67252 0.78724 0.0
C2109 C 0.30176 0.68738 0.78707 0.0
C2110 C 0.27848 0.62638 0.7801 0.0
C2111 C 0.33663 0.67825 0.79007 0.0
C2112 C 0.33486 0.61097 0.80416 0.0
C2113 C 0.34251 0.60286 0.78681 0.0
C2114 C 0.32426 0.62777 0.80394 0.0
C2115 C 0.32093 0.63642 0.78588 0.0
C2116 C 0.32923 0.62873 0.76842 0.0
C2117 C 0.34008 0.61211 0.76912 0.0
C2118 C 0.31596 0.63578 0.82294 0.0
C2119 C 0.3258 0.63741 0.74884 0.0
H2120 H 0.25846 0.65883 0.78172 0.0
H2121 H 0.30752 0.70273 0.78849 0.0
H2122 H 0.28566 0.61877 0.76765 0.0
H2123 H 0.28145 0.61845 0.7935 0.0
H2124 H 0.26234 0.62514 0.77733 0.0
H2125 H 0.34007 0.69452 0.79132 0.0
H2126 H 0.34198 0.67186 0.80358 0.0
H2127 H 0.34494 0.67212 0.77757 0.0
H2128 H 0.33685 0.60397 0.8179 0.0
H2129 H 0.34592 0.60586 0.75565 0.0
H2130 H 0.29967 0.63336 0.82249 0.0
H2131 H 0.31981 0.65194 0.82485 0.0
H2132 H 0.32147 0.62858 0.83593 0.0
H2133 H 0.30997 0.63491 0.74476 0.0
H2134 H 0.33456 0.63075 0.73693 0.0
H2135 H 0.3296 0.65361 0.74981 0.0
C2136 C 0.84203 0.4974 0.47319 0.0
C2137 C 0.85692 0.50569 0.48615 0.0
C2138 C 0.82766 0.48311 0.4793 0.0
C2139 C 0.82791 0.47731 0.49896 0.0
C2140 C 0.843 0.48539 0.51205 0.0
C2141 C 0.85746 0.49927 0.50541 0.0
C2142 C 0.81196 0.47451 0.46483 0.0
C2143 C 0.84357 0.47977 0.5332 0.0
C2144 C 0.77886 0.45765 0.51896 0.0
C2145 C 0.78075 0.43728 0.51829 0.0
C2146 C 0.79433 0.47088 0.51317 0.0
C2147 C 0.81187 0.46347 0.50606 0.0
C2148 C 0.81392 0.44291 0.50546 0.0
C2149 C 0.79838 0.43004 0.51185 0.0
C2150 C 0.79182 0.49277 0.5145 0.0
C2151 C 0.83226 0.43448 0.49756 0.0
H2152 H 0.8413 0.50238 0.45837 0.0
H2153 H 0.86917 0.50518 0.51541 0.0
H2154 H 0.8111 0.45814 0.4645 0.0
H2155 H 0.79739 0.47907 0.46953 0.0
H2156 H 0.81476 0.47938 0.44971 0.0
H2157 H 0.85648 0.48721 0.54142 0.0
H2158 H 0.82997 0.48379 0.54071 0.0
H2159 H 0.84405 0.46357 0.53392 0.0
H2160 H 0.76526 0.46326 0.52408 0.0
H2161 H 0.79977 0.41426 0.51116 0.0
H2162 H 0.79239 0.49863 0.4996 0.0
H2163 H 0.80406 0.50072 0.52327 0.0
H2164 H 0.77765 0.49615 0.52132 0.0
H2165 H 0.83429 0.43823 0.482 0.0
H2166 H 0.83164 0.41817 0.49837 0.0
H2167 H 0.84541 0.44113 0.50589 0.0
C2168 C 0.7 0.8766 0.78592 0.0
C2169 C 0.71999 0.8829 0.78907 0.0
C2170 C 0.68554 0.89017 0.78633 0.0
C2171 C 0.69124 0.91057 0.78942 0.0
C2172 C 0.71139 0.9171 0.79198 0.0
C2173 C 0.72544 0.9032 0.79208 0.0
C2174 C 0.66414 0.88265 0.78389 0.0
C2175 C 0.71811 0.93878 0.79499 0.0
C2176 C 0.65799 0.94987 0.77558 0.0
C2177 C 0.65225 0.95698 0.79415 0.0
C2178 C 0.67015 0.93422 0.7737 0.0
C2179 C 0.67622 0.92521 0.79076 0.0
C2180 C 0.66936 0.93153 0.80942 0.0
C2181 C 0.65769 0.94755 0.81091 0.0
C2182 C 0.67748 0.92819 0.7536 0.0
C2183 C 0.67507 0.92194 0.8279 0.0
H2184 H 0.69558 0.86103 0.78322 0.0
H2185 H 0.74071 0.90832 0.79497 0.0
H2186 H 0.65595 0.88681 0.79729 0.0
H2187 H 0.65741 0.88962 0.77141 0.0
H2188 H 0.66216 0.86635 0.7813 0.0
H2189 H 0.7344 0.94151 0.79525 0.0
H2190 H 0.71214 0.94721 0.7831 0.0
H2191 H 0.71238 0.94471 0.8091 0.0
H2192 H 0.65389 0.95725 0.76261 0.0
H2193 H 0.6531 0.95293 0.82527 0.0
H2194 H 0.67532 0.91194 0.75092 0.0
H2195 H 0.69353 0.93243 0.75284 0.0
H2196 H 0.66996 0.93533 0.74168 0.0
H2197 H 0.6726 0.90562 0.82593 0.0
H2198 H 0.66663 0.92695 0.84085 0.0
H2199 H 0.69098 0.92559 0.83106 0.0
C2200 C 0.65813 0.53866 0.9478 0.0
C2201 C 0.64341 0.53319 0.96128 0.0
C2202 C 0.67299 0.55366 0.95272 0.0
C2203 C 0.67357 0.56296 0.97179 0.0
C2204 C 0.659 0.55737 0.98556 0.0
C2205 C 0.64391 0.54286 0.98003 0.0
C2206 C 0.68804 0.5596 0.93749 0.0
C2207 C 0.65939 0.56664 0.0062 0.0
C2208 C 0.72241 0.58798 0.99041 0.0
C2209 C 0.7193 0.60795 0.98903 0.0
C2210 C 0.70756 0.57315 0.98502 0.0
C2211 C 0.68947 0.57849 0.97744 0.0
C2212 C 0.68641 0.59866 0.97564 0.0
C2213 C 0.70128 0.6132 0.98181 0.0
C2214 C 0.7111 0.55183 0.98774 0.0
C2215 C 0.66753 0.60486 0.96707 0.0
H2216 H 0.65817 0.53115 0.9334 0.0
H2217 H 0.63241 0.53924 0.99045 0.0
H2218 H 0.68838 0.57572 0.93553 0.0
H2219 H 0.70293 0.5565 0.94252 0.0
H2220 H 0.68492 0.55165 0.92301 0.0
H2221 H 0.64751 0.55993 0.01543 0.0
H2222 H 0.67379 0.56499 0.01337 0.0
H2223 H 0.65772 0.58269 0.00577 0.0
H2224 H 0.73634 0.58396 0.99613 0.0
H2225 H 0.69899 0.62868 0.98056 0.0
H2226 H 0.70981 0.5433 0.97342 0.0
H2227 H 0.69973 0.54511 0.99751 0.0
H2228 H 0.72586 0.55022 0.9942 0.0
H2229 H 0.66479 0.59756 0.95225 0.0
H2230 H 0.66787 0.62111 0.96582 0.0
H2231 H 0.65492 0.60008 0.97638 0.0
C2232 C 0.20504 0.64272 0.24718 0.0
C2233 C 0.22552 0.64325 0.24486 0.0
C2234 C 0.19409 0.62551 0.25256 0.0
C2235 C 0.20374 0.60817 0.25515 0.0
C2236 C 0.22432 0.60842 0.25251 0.0
C2237 C 0.235 0.62601 0.24768 0.0
C2238 C 0.17218 0.62589 0.25552 0.0
C2239 C 0.23504 0.59008 0.25474 0.0
C2240 C 0.17728 0.56886 0.28522 0.0
C2241 C 0.16727 0.55676 0.27051 0.0
C2242 C 0.18951 0.58552 0.28043 0.0
C2243 C 0.19216 0.58977 0.26043 0.0
C2244 C 0.18284 0.57701 0.2455 0.0
C2245 C 0.17025 0.5608 0.25074 0.0
C2246 C 0.19886 0.59905 0.29676 0.0
C2247 C 0.18576 0.58073 0.22401 0.0
H2248 H 0.19745 0.65575 0.24465 0.0
H2249 H 0.25084 0.62626 0.24632 0.0
H2250 H 0.16409 0.61542 0.24471 0.0
H2251 H 0.1682 0.62104 0.27039 0.0
H2252 H 0.16708 0.64082 0.25386 0.0
H2253 H 0.25098 0.59256 0.25153 0.0
H2254 H 0.23341 0.58507 0.26993 0.0
H2255 H 0.22846 0.57792 0.24468 0.0
H2256 H 0.17485 0.56582 0.30053 0.0
H2257 H 0.16263 0.55133 0.23934 0.0
H2258 H 0.19298 0.61376 0.29636 0.0
H2259 H 0.215 0.60128 0.2947 0.0
H2260 H 0.19602 0.5932 0.3115 0.0
H2261 H 0.17918 0.59451 0.22044 0.0
H2262 H 0.17892 0.56843 0.21425 0.0
H2263 H 0.2017 0.58281 0.22073 0.0
C2264 C 0.85867 0.53898 0.05992 0.0
C2265 C 0.87906 0.54087 0.05708 0.0
C2266 C 0.84686 0.55371 0.05426 0.0
C2267 C 0.85574 0.57084 0.04585 0.0
C2268 C 0.87646 0.57329 0.04397 0.0
C2269 C 0.88786 0.55817 0.04944 0.0
C2270 C 0.8248 0.55041 0.05625 0.0
C2271 C 0.88649 0.59149 0.0354 0.0
C2272 C 0.82487 0.59486 0.00892 0.0
C2273 C 0.81781 0.61048 0.02029 0.0
C2274 C 0.83735 0.58203 0.01707 0.0
C2275 C 0.84321 0.58504 0.03704 0.0
C2276 C 0.83666 0.60114 0.04848 0.0
C2277 C 0.82388 0.61361 0.03999 0.0
C2278 C 0.84384 0.56492 0.00441 0.0
C2279 C 0.8429 0.60497 0.06972 0.0
H2280 H 0.85186 0.52554 0.06572 0.0
H2281 H 0.90368 0.55972 0.04747 0.0
H2282 H 0.8189 0.56345 0.06379 0.0
H2283 H 0.81786 0.54849 0.04141 0.0
H2284 H 0.82036 0.53714 0.06454 0.0
H2285 H 0.90276 0.59224 0.03718 0.0
H2286 H 0.88291 0.59146 0.01949 0.0
H2287 H 0.88109 0.60503 0.04248 0.0
H2288 H 0.8202 0.59227 0.9937 0.0
H2289 H 0.8185 0.62569 0.04884 0.0
H2290 H 0.83869 0.55076 0.01085 0.0
H2291 H 0.86014 0.56562 0.00393 0.0
H2292 H 0.83807 0.56474 0.9891 0.0
H2293 H 0.83709 0.59249 0.07845 0.0
H2294 H 0.83755 0.61882 0.07623 0.0
H2295 H 0.85919 0.60594 0.07104 0.0
C2296 C 0.15152 0.02807 0.07183 0.0
C2297 C 0.1357 0.02918 0.08471 0.0
C2298 C 0.15954 0.01008 0.06748 0.0
C2299 C 0.1513 0.99272 0.07597 0.0
C2300 C 0.13599 0.99395 0.0898 0.0
C2301 C 0.12842 0.01225 0.09411 0.0
C2302 C 0.17613 0.00947 0.05294 0.0
C2303 C 0.12675 0.97578 0.09906 0.0
C2304 C 0.15641 0.94785 0.042 0.0
C2305 C 0.17314 0.94031 0.04979 0.0
C2306 C 0.14827 0.96408 0.05127 0.0
C2307 C 0.15732 0.9732 0.06856 0.0
C2308 C 0.17343 0.96485 0.07722 0.0
C2309 C 0.18109 0.94835 0.06777 0.0
C2310 C 0.1308 0.97227 0.04179 0.0
C2311 C 0.18351 0.97419 0.09559 0.0
H2312 H 0.15723 0.04123 0.06472 0.0
H2313 H 0.11609 0.01312 0.10398 0.0
H2314 H 0.1882 0.00143 0.05885 0.0
H2315 H 0.1707 0.0014 0.03914 0.0
H2316 H 0.18224 0.0245 0.04932 0.0
H2317 H 0.11705 0.97958 0.11149 0.0
H2318 H 0.1178 0.96656 0.08785 0.0
H2319 H 0.13823 0.96668 0.10446 0.0
H2320 H 0.15014 0.94155 0.02819 0.0
H2321 H 0.19409 0.9426 0.07379 0.0
H2322 H 0.13553 0.98662 0.03551 0.0
H2323 H 0.11938 0.97503 0.05287 0.0
H2324 H 0.12409 0.96215 0.02981 0.0
H2325 H 0.19216 0.98805 0.09194 0.0
H2326 H 0.19367 0.96429 0.10212 0.0
H2327 H 0.17256 0.97814 0.10676 0.0
loop_
_geom_bond_atom_site_label_1
_geom_bond_atom_site_label_2
_geom_bond_distance
_geom_bond_site_symmetry_2
_ccdc_geom_bond_type
C0 C1 1.386 . S
C0 C2 1.397 . S
C0 H24 0.931 . S
C1 C0 1.386 . S
C1 C5 1.397 . S
C2 C0 1.397 . S
C2 C3 1.384 . S
C2 H25 0.930 . S
C3 C2 1.384 . S
C3 C4 1.377 . S
C3 C6 1.481 . S
C4 C3 1.377 . S
C4 C5 1.389 . S
C4 H26 0.929 . S
C5 C1 1.397 . S
C5 C4 1.389 . S
C5 H27 0.931 . S
C6 C3 1.481 . S
C6 C7 1.387 . S
C6 C11 1.390 . S
C7 C6 1.387 . S
C7 C8 1.401 . S
C7 H28 0.930 . S
C8 C7 1.401 . S
C8 C9 1.376 . S
C8 C17 1.511 . S
C9 C8 1.376 . S
C9 C10 1.392 . S
C9 H30 0.931 . S
C10 C9 1.392 . S
C10 C11 1.361 . S
C10 C12 1.500 . S
C11 C6 1.390 . S
C11 C10 1.361 . S
C11 H29 0.931 . S
C12 C10 1.500 . S
C12 C13 1.371 . S
C12 C14 1.365 . S
C13 C12 1.371 . S
C13 C23 1.386 . S
C13 H31 0.931 . S
C14 C12 1.365 . S
C14 C15 1.409 . S
C14 H32 0.929 . S
C15 C14 1.409 . S
C15 C16 1.380 . S
C15 H33 0.930 . S
C16 C15 1.380 . S
C16 C23 1.357 . S
C17 C8 1.511 . S
C17 C18 1.341 . S
C17 C19 1.371 . S
C18 C17 1.341 . S
C18 C22 1.394 . S
C18 H34 0.930 . S
C19 C17 1.371 . S
C19 C20 1.392 . S
C19 H35 0.931 . S
C20 C19 1.392 . S
C20 C21 1.331 . S
C20 H38 0.932 . S
C21 C20 1.331 . S
C21 C22 1.336 . S
C22 C18 1.394 . S
C22 C21 1.336 . S
C22 H37 0.929 . S
C23 C13 1.386 . S
C23 C16 1.357 . S
C23 H36 0.928 . S
H24 C0 0.931 . S
H25 C2 0.930 . S
H26 C4 0.929 . S
H27 C5 0.931 . S
H28 C7 0.930 . S
H29 C11 0.931 . S
H30 C9 0.931 . S
H31 C13 0.931 . S
H32 C14 0.929 . S
H33 C15 0.930 . S
H34 C18 0.930 . S
H35 C19 0.931 . S
H36 C23 0.928 . S
H37 C22 0.929 . S
H38 C20 0.932 . S
C39 C40 1.386 . S
C39 C41 1.397 . S
C39 H63 0.931 . S
C40 C39 1.386 . S
C40 C44 1.397 . S
C41 C39 1.397 . S
C41 C42 1.384 . S
C41 H64 0.930 . S
C42 C41 1.384 . S
C42 C43 1.377 . S
C42 C45 1.481 . S
C43 C42 1.377 . S
C43 C44 1.389 . S
C43 H65 0.929 . S
C44 C40 1.397 . S
C44 C43 1.389 . S
C44 H66 0.931 . S
C45 C42 1.481 . S
C45 C46 1.387 . S
C45 C50 1.390 . S
C46 C45 1.387 . S
C46 C47 1.401 . S
C46 H67 0.930 . S
C47 C46 1.401 . S
C47 C48 1.376 . S
C47 C56 1.511 . S
C48 C47 1.376 . S
C48 C49 1.392 . S
C48 H69 0.931 . S
C49 C48 1.392 . S
C49 C50 1.361 . S
C49 C51 1.500 . S
C50 C45 1.390 . S
C50 C49 1.361 . S
C50 H68 0.931 . S
C51 C49 1.500 . S
C51 C52 1.371 . S
C51 C53 1.365 . S
C52 C51 1.371 . S
C52 C62 1.386 . S
C52 H70 0.931 . S
C53 C51 1.365 . S
C53 C54 1.409 . S
C53 H71 0.929 . S
C54 C53 1.409 . S
C54 C55 1.380 . S
C54 H72 0.930 . S
C55 C54 1.380 . S
C55 C62 1.357 . S
C56 C47 1.511 . S
C56 C57 1.341 . S
C56 C58 1.371 . S
C57 C56 1.341 . S
C57 C61 1.394 . S
C57 H73 0.930 . S
C58 C56 1.371 . S
C58 C59 1.392 . S
C58 H74 0.931 . S
C59 C58 1.392 . S
C59 C60 1.331 . S
C59 H77 0.932 . S
C60 C59 1.331 . S
C60 C61 1.336 . S
C61 C57 1.394 . S
C61 C60 1.336 . S
C61 H76 0.929 . S
C62 C52 1.386 . S
C62 C55 1.357 . S
C62 H75 0.928 . S
H63 C39 0.931 . S
H64 C41 0.930 . S
H65 C43 0.929 . S
H66 C44 0.931 . S
H67 C46 0.930 . S
H68 C50 0.931 . S
H69 C48 0.931 . S
H70 C52 0.931 . S
H71 C53 0.929 . S
H72 C54 0.930 . S
H73 C57 0.930 . S
H74 C58 0.931 . S
H75 C62 0.928 . S
H76 C61 0.929 . S
H77 C59 0.932 . S
C78 C79 1.386 . S
C78 C80 1.397 . S
C78 H102 0.931 . S
C79 C78 1.386 . S
C79 C83 1.397 . S
C80 C78 1.397 . S
C80 C81 1.384 . S
C80 H103 0.930 . S
C81 C80 1.384 . S
C81 C82 1.377 . S
C81 C84 1.481 . S
C82 C81 1.377 . S
C82 C83 1.389 . S
C82 H104 0.929 . S
C83 C79 1.397 . S
C83 C82 1.389 . S
C83 H105 0.931 . S
C84 C81 1.481 . S
C84 C85 1.387 . S
C84 C89 1.390 . S
C85 C84 1.387 . S
C85 C86 1.401 . S
C85 H106 0.930 . S
C86 C85 1.401 . S
C86 C87 1.376 . S
C86 C95 1.511 . S
C87 C86 1.376 . S
C87 C88 1.392 . S
C87 H108 0.931 . S
C88 C87 1.392 . S
C88 C89 1.361 . S
C88 C90 1.500 . S
C89 C84 1.390 . S
C89 C88 1.361 . S
C89 H107 0.931 . S
C90 C88 1.500 . S
C90 C91 1.371 . S
C90 C92 1.365 . S
C91 C90 1.371 . S
C91 C101 1.386 . S
C91 H109 0.931 . S
C92 C90 1.365 . S
C92 C93 1.409 . S
C92 H110 0.929 . S
C93 C92 1.409 . S
C93 C94 1.380 . S
C93 H111 0.930 . S
C94 C93 1.380 . S
C94 C101 1.357 . S
C95 C86 1.511 . S
C95 C96 1.341 . S
C95 C97 1.371 . S
C96 C95 1.341 . S
C96 C100 1.394 . S
C96 H112 0.930 . S
C97 C95 1.371 . S
C97 C98 1.392 . S
C97 H113 0.931 . S
C98 C97 1.392 . S
C98 C99 1.331 . S
C98 H116 0.932 . S
C99 C98 1.331 . S
C99 C100 1.336 . S
C100 C96 1.394 . S
C100 C99 1.336 . S
C100 H115 0.929 . S
C101 C91 1.386 . S
C101 C94 1.357 . S
C101 H114 0.928 . S
H102 C78 0.931 . S
H103 C80 0.930 . S
H104 C82 0.929 . S
H105 C83 0.931 . S
H106 C85 0.930 . S
H107 C89 0.931 . S
H108 C87 0.931 . S
H109 C91 0.931 . S
H110 C92 0.929 . S
H111 C93 0.930 . S
H112 C96 0.930 . S
H113 C97 0.931 . S
H114 C101 0.928 . S
H115 C100 0.929 . S
H116 C98 0.932 . S
C117 C118 1.386 . S
C117 C119 1.397 . S
C117 H141 0.931 . S
C118 C117 1.386 . S
C118 C122 1.397 . S
C119 C117 1.397 . S
C119 C120 1.384 . S
C119 H142 0.930 . S
C120 C119 1.384 . S
C120 C121 1.377 . S
C120 C123 1.481 . S
C121 C120 1.377 . S
C121 C122 1.389 . S
C121 H143 0.929 . S
C122 C118 1.397 . S
C122 C121 1.389 . S
C122 H144 0.931 . S
C123 C120 1.481 . S
C123 C124 1.387 . S
C123 C128 1.390 . S
C124 C123 1.387 . S
C124 C125 1.401 . S
C124 H145 0.930 . S
C125 C124 1.401 . S
C125 C126 1.376 . S
C125 C134 1.511 . S
C126 C125 1.376 . S
C126 C127 1.392 . S
C126 H147 0.931 . S
C127 C126 1.392 . S
C127 C128 1.361 . S
C127 C129 1.500 . S
C128 C123 1.390 . S
C128 C127 1.361 . S
C128 H146 0.931 . S
C129 C127 1.500 . S
C129 C130 1.371 . S
C129 C131 1.365 . S
C130 C129 1.371 . S
C130 C140 1.386 . S
C130 H148 0.931 . S
C131 C129 1.365 . S
C131 C132 1.409 . S
C131 H149 0.929 . S
C132 C131 1.409 . S
C132 C133 1.380 . S
C132 H150 0.930 . S
C133 C132 1.380 . S
C133 C140 1.357 . S
C134 C125 1.511 . S
C134 C135 1.341 . S
C134 C136 1.371 . S
C135 C134 1.341 . S
C135 C139 1.394 . S
C135 H151 0.930 . S
C136 C134 1.371 . S
C136 C137 1.392 . S
C136 H152 0.931 . S
C137 C136 1.392 . S
C137 C138 1.331 . S
C137 H155 0.932 . S
C138 C137 1.331 . S
C138 C139 1.336 . S
C139 C135 1.394 . S
C139 C138 1.336 . S
C139 H154 0.929 . S
C140 C130 1.386 . S
C140 C133 1.357 . S
C140 H153 0.928 . S
H141 C117 0.931 . S
H142 C119 0.930 . S
H143 C121 0.929 . S
H144 C122 0.931 . S
H145 C124 0.930 . S
H146 C128 0.931 . S
H147 C126 0.931 . S
H148 C130 0.931 . S
H149 C131 0.929 . S
H150 C132 0.930 . S
H151 C135 0.930 . S
H152 C136 0.931 . S
H153 C140 0.928 . S
H154 C139 0.929 . S
H155 C137 0.932 . S
C156 C157 1.386 . S
C156 C158 1.397 . S
C156 H180 0.931 . S
C157 C156 1.386 . S
C157 C161 1.397 . S
C158 C156 1.397 . S
C158 C159 1.384 . S
C158 H181 0.930 . S
C159 C158 1.384 . S
C159 C160 1.377 . S
C159 C162 1.481 . S
C160 C159 1.377 . S
C160 C161 1.389 . S
C160 H182 0.929 . S
C161 C157 1.397 . S
C161 C160 1.389 . S
C161 H183 0.931 . S
C162 C159 1.481 . S
C162 C163 1.387 . S
C162 C167 1.390 . S
C163 C162 1.387 . S
C163 C164 1.401 . S
C163 H184 0.930 . S
C164 C163 1.401 . S
C164 C165 1.376 . S
C164 C173 1.511 . S
C165 C164 1.376 . S
C165 C166 1.392 . S
C165 H186 0.931 . S
C166 C165 1.392 . S
C166 C167 1.361 . S
C166 C168 1.500 . S
C167 C162 1.390 . S
C167 C166 1.361 . S
C167 H185 0.931 . S
C168 C166 1.500 . S
C168 C169 1.371 . S
C168 C170 1.365 . S
C169 C168 1.371 . S
C169 C179 1.386 . S
C169 H187 0.931 . S
C170 C168 1.365 . S
C170 C171 1.407 . S
C170 H188 0.929 . S
C171 C170 1.407 . S
C171 C172 1.381 1_565 S
C171 H189 0.932 1_565 S
C172 C171 1.381 1_545 S
C172 C179 1.357 1_545 S
C173 C164 1.511 . S
C173 C174 1.341 . S
C173 C175 1.371 . S
C174 C173 1.341 . S
C174 C178 1.394 . S
C174 H190 0.930 . S
C175 C173 1.371 . S
C175 C176 1.392 . S
C175 H191 0.931 . S
C176 C175 1.392 . S
C176 C177 1.331 . S
C176 H194 0.932 . S
C177 C176 1.331 . S
C177 C178 1.336 . S
C178 C174 1.394 . S
C178 C177 1.336 . S
C178 H193 0.929 . S
C179 C169 1.386 . S
C179 C172 1.357 1_565 S
C179 H192 0.928 . S
H180 C156 0.931 . S
H181 C158 0.930 . S
H182 C160 0.929 . S
H183 C161 0.931 . S
H184 C163 0.930 . S
H185 C167 0.931 . S
H186 C165 0.931 . S
H187 C169 0.931 . S
H188 C170 0.929 . S
H189 C171 0.932 1_545 S
H190 C174 0.930 . S
H191 C175 0.931 . S
H192 C179 0.928 . S
H193 C178 0.929 . S
H194 C176 0.932 . S
C195 C196 1.386 . S
C195 C197 1.397 . S
C195 H219 0.931 . S
C196 C195 1.386 . S
C196 C200 1.397 . S
C197 C195 1.397 . S
C197 C198 1.384 . S
C197 H220 0.930 . S
C198 C197 1.384 . S
C198 C199 1.377 . S
C198 C201 1.481 . S
C199 C198 1.377 . S
C199 C200 1.389 . S
C199 H221 0.929 . S
C200 C196 1.397 . S
C200 C199 1.389 . S
C200 H222 0.931 . S
C201 C198 1.481 . S
C201 C202 1.387 . S
C201 C206 1.390 . S
C202 C201 1.387 . S
C202 C203 1.401 . S
C202 H223 0.930 . S
C203 C202 1.401 . S
C203 C204 1.376 . S
C203 C212 1.511 . S
C204 C203 1.376 . S
C204 C205 1.392 . S
C204 H225 0.931 . S
C205 C204 1.392 . S
C205 C206 1.361 . S
C205 C207 1.500 . S
C206 C201 1.390 . S
C206 C205 1.361 . S
C206 H224 0.931 . S
C207 C205 1.500 . S
C207 C208 1.371 . S
C207 C209 1.365 . S
C208 C207 1.371 . S
C208 C218 1.386 . S
C208 H226 0.931 . S
C209 C207 1.365 . S
C209 C210 1.409 . S
C209 H227 0.929 . S
C210 C209 1.409 . S
C210 C211 1.380 . S
C210 H228 0.930 . S
C211 C210 1.380 . S
C211 C218 1.357 . S
C212 C203 1.511 . S
C212 C213 1.341 . S
C212 C214 1.371 . S
C213 C212 1.341 . S
C213 C217 1.394 . S
C213 H229 0.930 . S
C214 C212 1.371 . S
C214 C215 1.392 . S
C214 H230 0.931 . S
C215 C214 1.392 . S
C215 C216 1.331 . S
C215 H233 0.932 . S
C216 C215 1.331 . S
C216 C217 1.336 . S
C217 C213 1.394 . S
C217 C216 1.336 . S
C217 H232 0.929 . S
C218 C208 1.386 . S
C218 C211 1.357 . S
C218 H231 0.928 . S
H219 C195 0.931 . S
H220 C197 0.930 . S
H221 C199 0.929 . S
H222 C200 0.931 . S
H223 C202 0.930 . S
H224 C206 0.931 . S
H225 C204 0.931 . S
H226 C208 0.931 . S
H227 C209 0.929 . S
H228 C210 0.930 . S
H229 C213 0.930 . S
H230 C214 0.931 . S
H231 C218 0.928 . S
H232 C217 0.929 . S
H233 C215 0.932 . S
C234 C235 1.386 . S
C234 C236 1.397 . S
C234 H258 0.931 . S
C235 C234 1.386 . S
C235 C239 1.397 . S
C236 C234 1.397 . S
C236 C237 1.384 . S
C236 H259 0.930 . S
C237 C236 1.384 . S
C237 C238 1.377 . S
C237 C240 1.481 . S
C238 C237 1.377 . S
C238 C239 1.389 . S
C238 H260 0.929 . S
C239 C235 1.397 . S
C239 C238 1.389 . S
C239 H261 0.931 . S
C240 C237 1.481 . S
C240 C241 1.387 . S
C240 C245 1.390 . S
C241 C240 1.387 . S
C241 C242 1.401 . S
C241 H262 0.930 . S
C242 C241 1.401 . S
C242 C243 1.376 . S
C242 C251 1.511 . S
C243 C242 1.376 . S
C243 C244 1.392 . S
C243 H264 0.931 . S
C244 C243 1.392 . S
C244 C245 1.361 . S
C244 C246 1.500 . S
C245 C240 1.390 . S
C245 C244 1.361 . S
C245 H263 0.931 . S
C246 C244 1.500 . S
C246 C247 1.371 . S
C246 C248 1.365 . S
C247 C246 1.371 . S
C247 C257 1.386 . S
C247 H265 0.931 . S
C248 C246 1.365 . S
C248 C249 1.409 . S
C248 H266 0.929 . S
C249 C248 1.409 . S
C249 C250 1.380 . S
C249 H267 0.930 . S
C250 C249 1.380 . S
C250 C257 1.357 . S
C251 C242 1.511 . S
C251 C252 1.341 . S
C251 C253 1.371 . S
C252 C251 1.341 . S
C252 C256 1.394 . S
C252 H268 0.930 . S
C253 C251 1.371 . S
C253 C254 1.392 . S
C253 H269 0.931 . S
C254 C253 1.392 . S
C254 C255 1.331 . S
C254 H272 0.932 . S
C255 C254 1.331 . S
C255 C256 1.336 . S
C256 C252 1.394 . S
C256 C255 1.336 . S
C256 H271 0.929 . S
C257 C247 1.386 . S
C257 C250 1.357 . S
C257 H270 0.928 . S
H258 C234 0.931 . S
H259 C236 0.930 . S
H260 C238 0.929 . S
H261 C239 0.931 . S
H262 C241 0.930 . S
H263 C245 0.931 . S
H264 C243 0.931 . S
H265 C247 0.931 . S
H266 C248 0.929 . S
H267 C249 0.930 . S
H268 C252 0.930 . S
H269 C253 0.931 . S
H270 C257 0.928 . S
H271 C256 0.929 . S
H272 C254 0.932 . S
C273 C274 1.386 . S
C273 C275 1.397 . S
C273 H297 0.931 . S
C274 C273 1.386 . S
C274 C278 1.397 . S
C275 C273 1.397 . S
C275 C276 1.384 . S
C275 H298 0.930 . S
C276 C275 1.384 . S
C276 C277 1.377 . S
C276 C279 1.481 . S
C277 C276 1.377 . S
C277 C278 1.389 . S
C277 H299 0.929 . S
C278 C274 1.397 . S
C278 C277 1.389 . S
C278 H300 0.931 . S
C279 C276 1.481 . S
C279 C280 1.387 . S
C279 C284 1.390 . S
C280 C279 1.387 . S
C280 C281 1.401 . S
C280 H301 0.930 . S
C281 C280 1.401 . S
C281 C282 1.376 . S
C281 C290 1.511 . S
C282 C281 1.376 . S
C282 C283 1.392 . S
C282 H303 0.931 . S
C283 C282 1.392 . S
C283 C284 1.361 . S
C283 C285 1.500 . S
C284 C279 1.390 . S
C284 C283 1.361 . S
C284 H302 0.931 . S
C285 C283 1.500 . S
C285 C286 1.371 . S
C285 C287 1.365 . S
C286 C285 1.371 . S
C286 C296 1.386 . S
C286 H304 0.931 . S
C287 C285 1.365 . S
C287 C288 1.409 . S
C287 H305 0.929 . S
C288 C287 1.409 . S
C288 C289 1.380 . S
C288 H306 0.930 . S
C289 C288 1.380 . S
C289 C296 1.357 . S
C290 C281 1.511 . S
C290 C291 1.341 . S
C290 C292 1.371 . S
C291 C290 1.341 . S
C291 C295 1.394 . S
C291 H307 0.930 . S
C292 C290 1.371 . S
C292 C293 1.392 . S
C292 H308 0.931 . S
C293 C292 1.392 . S
C293 C294 1.331 . S
C293 H311 0.932 . S
C294 C293 1.331 . S
C294 C295 1.336 . S
C295 C291 1.394 . S
C295 C294 1.336 . S
C295 H310 0.929 . S
C296 C286 1.386 . S
C296 C289 1.357 . S
C296 H309 0.928 . S
H297 C273 0.931 . S
H298 C275 0.930 . S
H299 C277 0.929 . S
H300 C278 0.931 . S
H301 C280 0.930 . S
H302 C284 0.931 . S
H303 C282 0.931 . S
H304 C286 0.931 . S
H305 C287 0.929 . S
H306 C288 0.930 . S
H307 C291 0.930 . S
H308 C292 0.931 . S
H309 C296 0.928 . S
H310 C295 0.929 . S
H311 C293 0.932 . S
C312 C313 1.386 . S
C312 C314 1.397 . S
C312 H336 0.931 . S
C313 C312 1.386 . S
C313 C317 1.397 . S
C314 C312 1.397 . S
C314 C315 1.384 . S
C314 H337 0.930 . S
C315 C314 1.384 . S
C315 C316 1.377 . S
C315 C318 1.481 . S
C316 C315 1.377 . S
C316 C317 1.389 . S
C316 H338 0.929 . S
C317 C313 1.397 . S
C317 C316 1.389 . S
C317 H339 0.931 . S
C318 C315 1.481 . S
C318 C319 1.387 . S
C318 C323 1.390 . S
C319 C318 1.387 . S
C319 C320 1.401 . S
C319 H340 0.930 . S
C320 C319 1.401 . S
C320 C321 1.376 . S
C320 C329 1.511 . S
C321 C320 1.376 . S
C321 C322 1.392 . S
C321 H342 0.931 . S
C322 C321 1.392 . S
C322 C323 1.361 . S
C322 C324 1.500 . S
C323 C318 1.390 . S
C323 C322 1.361 . S
C323 H341 0.931 . S
C324 C322 1.500 . S
C324 C325 1.371 . S
C324 C326 1.365 . S
C325 C324 1.371 . S
C325 C335 1.386 . S
C325 H343 0.931 . S
C326 C324 1.365 . S
C326 C327 1.409 . S
C326 H344 0.929 . S
C327 C326 1.409 . S
C327 C328 1.380 . S
C327 H345 0.930 . S
C328 C327 1.380 . S
C328 C335 1.357 . S
C329 C320 1.511 . S
C329 C330 1.341 . S
C329 C331 1.371 . S
C330 C329 1.341 . S
C330 C334 1.394 . S
C330 H346 0.930 . S
C331 C329 1.371 . S
C331 C332 1.392 . S
C331 H347 0.931 . S
C332 C331 1.392 . S
C332 C333 1.331 . S
C332 H350 0.932 . S
C333 C332 1.331 . S
C333 C334 1.336 . S
C334 C330 1.394 . S
C334 C333 1.336 . S
C334 H349 0.929 . S
C335 C325 1.386 . S
C335 C328 1.357 . S
C335 H348 0.928 . S
H336 C312 0.931 . S
H337 C314 0.930 . S
H338 C316 0.929 . S
H339 C317 0.931 . S
H340 C319 0.930 . S
H341 C323 0.931 . S
H342 C321 0.931 . S
H343 C325 0.931 . S
H344 C326 0.929 . S
H345 C327 0.930 . S
H346 C330 0.930 . S
H347 C331 0.931 . S
H348 C335 0.928 . S
H349 C334 0.929 . S
H350 C332 0.932 . S
C351 C352 1.386 . S
C351 C353 1.397 . S
C351 H375 0.931 . S
C352 C351 1.386 . S
C352 C356 1.397 . S
C353 C351 1.397 . S
C353 C354 1.384 . S
C353 H376 0.930 . S
C354 C353 1.384 . S
C354 C355 1.377 . S
C354 C357 1.481 . S
C355 C354 1.377 . S
C355 C356 1.389 . S
C355 H377 0.929 . S
C356 C352 1.397 . S
C356 C355 1.389 . S
C356 H378 0.931 . S
C357 C354 1.481 . S
C357 C358 1.387 . S
C357 C362 1.390 . S
C358 C357 1.387 . S
C358 C359 1.401 . S
C358 H379 0.930 . S
C359 C358 1.401 . S
C359 C360 1.376 . S
C359 C368 1.511 . S
C360 C359 1.376 . S
C360 C361 1.392 . S
C360 H381 0.931 . S
C361 C360 1.392 . S
C361 C362 1.361 . S
C361 C363 1.500 . S
C362 C357 1.390 . S
C362 C361 1.361 . S
C362 H380 0.931 . S
C363 C361 1.500 . S
C363 C364 1.371 . S
C363 C365 1.365 . S
C364 C363 1.371 . S
C364 C374 1.386 . S
C364 H382 0.931 . S
C365 C363 1.365 . S
C365 C366 1.409 . S
C365 H383 0.929 . S
C366 C365 1.409 . S
C366 C367 1.380 . S
C366 H384 0.930 . S
C367 C366 1.380 . S
C367 C374 1.357 . S
C368 C359 1.511 . S
C368 C369 1.341 . S
C368 C370 1.371 . S
C369 C368 1.341 . S
C369 C373 1.394 . S
C369 H385 0.930 . S
C370 C368 1.371 . S
C370 C371 1.392 . S
C370 H386 0.931 . S
C371 C370 1.392 . S
C371 C372 1.331 . S
C371 H389 0.932 . S
C372 C371 1.331 . S
C372 C373 1.336 . S
C373 C369 1.394 . S
C373 C372 1.336 . S
C373 H388 0.929 . S
C374 C364 1.386 . S
C374 C367 1.357 . S
C374 H387 0.928 . S
H375 C351 0.931 . S
H376 C353 0.930 . S
H377 C355 0.929 . S
H378 C356 0.931 . S
H379 C358 0.930 . S
H380 C362 0.931 . S
H381 C360 0.931 . S
H382 C364 0.931 . S
H383 C365 0.929 . S
H384 C366 0.930 . S
H385 C369 0.930 . S
H386 C370 0.931 . S
H387 C374 0.928 . S
H388 C373 0.929 . S
H389 C371 0.932 . S
C390 C391 1.386 . S
C390 C392 1.397 . S
C390 H414 0.931 . S
C391 C390 1.386 . S
C391 C395 1.397 . S
C392 C390 1.397 . S
C392 C393 1.384 . S
C392 H415 0.930 . S
C393 C392 1.384 . S
C393 C394 1.377 . S
C393 C396 1.481 . S
C394 C393 1.377 . S
C394 C395 1.389 . S
C394 H416 0.929 . S
C395 C391 1.397 . S
C395 C394 1.389 . S
C395 H417 0.931 . S
C396 C393 1.481 . S
C396 C397 1.387 . S
C396 C401 1.390 . S
C397 C396 1.387 . S
C397 C398 1.401 . S
C397 H418 0.930 . S
C398 C397 1.401 . S
C398 C399 1.376 . S
C398 C407 1.511 . S
C399 C398 1.376 . S
C399 C400 1.392 . S
C399 H420 0.931 . S
C400 C399 1.392 . S
C400 C401 1.361 . S
C400 C402 1.500 . S
C401 C396 1.390 . S
C401 C400 1.361 . S
C401 H419 0.931 . S
C402 C400 1.500 . S
C402 C403 1.371 . S
C402 C404 1.365 . S
C403 C402 1.371 . S
C403 C413 1.386 . S
C403 H421 0.931 . S
C404 C402 1.365 . S
C404 C405 1.409 . S
C404 H422 0.929 . S
C405 C404 1.409 . S
C405 C406 1.380 . S
C405 H423 0.930 . S
C406 C405 1.380 . S
C406 C413 1.357 . S
C407 C398 1.511 . S
C407 C408 1.341 . S
C407 C409 1.371 . S
C408 C407 1.341 . S
C408 C412 1.394 . S
C408 H424 0.930 . S
C409 C407 1.371 . S
C409 C410 1.392 . S
C409 H425 0.931 . S
C410 C409 1.392 . S
C410 C411 1.331 . S
C410 H428 0.932 . S
C411 C410 1.331 . S
C411 C412 1.336 . S
C412 C408 1.394 . S
C412 C411 1.336 . S
C412 H427 0.929 . S
C413 C403 1.386 . S
C413 C406 1.357 . S
C413 H426 0.928 . S
H414 C390 0.931 . S
H415 C392 0.930 . S
H416 C394 0.929 . S
H417 C395 0.931 . S
H418 C397 0.930 . S
H419 C401 0.931 . S
H420 C399 0.931 . S
H421 C403 0.931 . S
H422 C404 0.929 . S
H423 C405 0.930 . S
H424 C408 0.930 . S
H425 C409 0.931 . S
H426 C413 0.928 . S
H427 C412 0.929 . S
H428 C410 0.932 . S
C429 C430 1.386 . S
C429 C431 1.397 . S
C429 H453 0.931 . S
C430 C429 1.386 . S
C430 C434 1.397 . S
C431 C429 1.397 . S
C431 C432 1.384 . S
C431 H454 0.930 . S
C432 C431 1.384 . S
C432 C433 1.377 . S
C432 C435 1.481 . S
C433 C432 1.377 . S
C433 C434 1.389 . S
C433 H455 0.929 . S
C434 C430 1.397 . S
C434 C433 1.389 . S
C434 H456 0.931 . S
C435 C432 1.481 . S
C435 C436 1.387 . S
C435 C440 1.390 . S
C436 C435 1.387 . S
C436 C437 1.401 . S
C436 H457 0.930 . S
C437 C436 1.401 . S
C437 C438 1.376 . S
C437 C446 1.511 . S
C438 C437 1.376 . S
C438 C439 1.392 . S
C438 H459 0.931 . S
C439 C438 1.392 . S
C439 C440 1.361 . S
C439 C441 1.500 . S
C440 C435 1.390 . S
C440 C439 1.361 . S
C440 H458 0.931 . S
C441 C439 1.500 . S
C441 C442 1.371 . S
C441 C443 1.365 . S
C442 C441 1.371 . S
C442 C452 1.386 . S
C442 H460 0.931 . S
C443 C441 1.365 . S
C443 C444 1.409 . S
C443 H461 0.929 . S
C444 C443 1.409 . S
C444 C445 1.380 . S
C444 H462 0.930 . S
C445 C444 1.380 . S
C445 C452 1.357 . S
C446 C437 1.511 . S
C446 C447 1.341 . S
C446 C448 1.371 . S
C447 C446 1.341 . S
C447 C451 1.394 . S
C447 H463 0.930 . S
C448 C446 1.371 . S
C448 C449 1.392 . S
C448 H464 0.931 . S
C449 C448 1.392 . S
C449 C450 1.331 . S
C449 H467 0.932 . S
C450 C449 1.331 . S
C450 C451 1.336 . S
C451 C447 1.394 . S
C451 C450 1.336 . S
C451 H466 0.929 . S
C452 C442 1.386 . S
C452 C445 1.357 . S
C452 H465 0.928 . S
H453 C429 0.931 . S
H454 C431 0.930 . S
H455 C433 0.929 . S
H456 C434 0.931 . S
H457 C436 0.930 . S
H458 C440 0.931 . S
H459 C438 0.931 . S
H460 C442 0.931 . S
H461 C443 0.929 . S
H462 C444 0.930 . S
H463 C447 0.930 . S
H464 C448 0.931 . S
H465 C452 0.928 . S
H466 C451 0.929 . S
H467 C449 0.932 . S
C468 C469 1.386 . S
C468 C470 1.397 . S
C468 H492 0.931 . S
C469 C468 1.386 . S
C469 C473 1.397 . S
C470 C468 1.397 . S
C470 C471 1.384 . S
C470 H493 0.930 . S
C471 C470 1.384 . S
C471 C472 1.377 . S
C471 C474 1.481 . S
C472 C471 1.377 . S
C472 C473 1.389 . S
C472 H494 0.929 . S
C473 C469 1.397 . S
C473 C472 1.389 . S
C473 H495 0.931 . S
C474 C471 1.481 . S
C474 C475 1.387 . S
C474 C479 1.390 . S
C475 C474 1.387 . S
C475 C476 1.401 . S
C475 H496 0.930 . S
C476 C475 1.401 . S
C476 C477 1.376 . S
C476 C485 1.511 . S
C477 C476 1.376 . S
C477 C478 1.392 . S
C477 H498 0.931 . S
C478 C477 1.392 . S
C478 C479 1.361 . S
C478 C480 1.500 . S
C479 C474 1.390 . S
C479 C478 1.361 . S
C479 H497 0.931 . S
C480 C478 1.500 . S
C480 C481 1.371 . S
C480 C482 1.365 . S
C481 C480 1.371 . S
C481 C491 1.386 . S
C481 H499 0.931 . S
C482 C480 1.365 . S
C482 C483 1.409 . S
C482 H500 0.929 . S
C483 C482 1.409 . S
C483 C484 1.380 . S
C483 H501 0.930 . S
C484 C483 1.380 . S
C484 C491 1.357 . S
C485 C476 1.511 . S
C485 C486 1.341 . S
C485 C487 1.371 . S
C486 C485 1.341 . S
C486 C490 1.394 . S
C486 H502 0.930 . S
C487 C485 1.371 . S
C487 C488 1.392 . S
C487 H503 0.931 . S
C488 C487 1.392 . S
C488 C489 1.331 . S
C488 H506 0.932 . S
C489 C488 1.331 . S
C489 C490 1.336 . S
C490 C486 1.394 . S
C490 C489 1.336 . S
C490 H505 0.929 . S
C491 C481 1.386 . S
C491 C484 1.357 . S
C491 H504 0.928 . S
H492 C468 0.931 . S
H493 C470 0.930 . S
H494 C472 0.929 . S
H495 C473 0.931 . S
H496 C475 0.930 . S
H497 C479 0.931 . S
H498 C477 0.931 . S
H499 C481 0.931 . S
H500 C482 0.929 . S
H501 C483 0.930 . S
H502 C486 0.930 . S
H503 C487 0.931 . S
H504 C491 0.928 . S
H505 C490 0.929 . S
H506 C488 0.932 . S
C507 C508 1.386 . S
C507 C509 1.397 . S
C507 H531 0.931 . S
C508 C507 1.386 . S
C508 C512 1.397 . S
C509 C507 1.397 . S
C509 C510 1.384 . S
C509 H532 0.930 . S
C510 C509 1.384 . S
C510 C511 1.377 . S
C510 C513 1.481 . S
C511 C510 1.377 . S
C511 C512 1.389 . S
C511 H533 0.929 . S
C512 C508 1.397 . S
C512 C511 1.389 . S
C512 H534 0.931 . S
C513 C510 1.481 . S
C513 C514 1.387 . S
C513 C518 1.390 . S
C514 C513 1.387 . S
C514 C515 1.401 . S
C514 H535 0.930 . S
C515 C514 1.401 . S
C515 C516 1.376 . S
C515 C524 1.511 . S
C516 C515 1.376 . S
C516 C517 1.392 . S
C516 H537 0.931 . S
C517 C516 1.392 . S
C517 C518 1.361 . S
C517 C519 1.500 . S
C518 C513 1.390 . S
C518 C517 1.361 . S
C518 H536 0.931 . S
C519 C517 1.500 . S
C519 C520 1.371 . S
C519 C521 1.365 . S
C520 C519 1.371 . S
C520 C530 1.386 . S
C520 H538 0.931 . S
C521 C519 1.365 . S
C521 C522 1.409 . S
C521 H539 0.929 . S
C522 C521 1.409 . S
C522 C523 1.380 . S
C522 H540 0.930 . S
C523 C522 1.380 . S
C523 C530 1.357 . S
C524 C515 1.511 . S
C524 C525 1.341 . S
C524 C526 1.371 . S
C525 C524 1.341 . S
C525 C529 1.394 . S
C525 H541 0.930 . S
C526 C524 1.371 . S
C526 C527 1.392 . S
C526 H542 0.931 . S
C527 C526 1.392 . S
C527 C528 1.331 . S
C527 H545 0.932 . S
C528 C527 1.331 . S
C528 C529 1.336 . S
C529 C525 1.394 . S
C529 C528 1.336 . S
C529 H544 0.929 . S
C530 C520 1.386 . S
C530 C523 1.357 . S
C530 H543 0.928 . S
H531 C507 0.931 . S
H532 C509 0.930 . S
H533 C511 0.929 . S
H534 C512 0.931 . S
H535 C514 0.930 . S
H536 C518 0.931 . S
H537 C516 0.931 . S
H538 C520 0.931 . S
H539 C521 0.929 . S
H540 C522 0.930 . S
H541 C525 0.930 . S
H542 C526 0.931 . S
H543 C530 0.928 . S
H544 C529 0.929 . S
H545 C527 0.932 . S
C546 C547 1.386 . S
C546 C548 1.397 . S
C546 H570 0.931 . S
C547 C546 1.386 . S
C547 C551 1.397 . S
C548 C546 1.397 . S
C548 C549 1.384 . S
C548 H571 0.930 . S
C549 C548 1.384 . S
C549 C550 1.377 . S
C549 C552 1.481 . S
C550 C549 1.377 . S
C550 C551 1.389 . S
C550 H572 0.929 . S
C551 C547 1.397 . S
C551 C550 1.389 . S
C551 H573 0.931 . S
C552 C549 1.481 . S
C552 C553 1.387 . S
C552 C557 1.390 . S
C553 C552 1.387 . S
C553 C554 1.401 . S
C553 H574 0.930 . S
C554 C553 1.401 . S
C554 C555 1.376 . S
C554 C563 1.511 . S
C555 C554 1.376 . S
C555 C556 1.392 . S
C555 H576 0.931 . S
C556 C555 1.392 . S
C556 C557 1.361 . S
C556 C558 1.500 . S
C557 C552 1.390 . S
C557 C556 1.361 . S
C557 H575 0.931 . S
C558 C556 1.500 . S
C558 C559 1.371 . S
C558 C560 1.365 . S
C559 C558 1.371 . S
C559 C569 1.386 . S
C559 H577 0.931 . S
C560 C558 1.365 . S
C560 C561 1.409 . S
C560 H578 0.929 . S
C561 C560 1.409 . S
C561 C562 1.380 . S
C561 H579 0.930 . S
C562 C561 1.380 . S
C562 C569 1.357 . S
C563 C554 1.511 . S
C563 C564 1.341 . S
C563 C565 1.371 . S
C564 C563 1.341 . S
C564 C568 1.394 . S
C564 H580 0.930 . S
C565 C563 1.371 . S
C565 C566 1.392 . S
C565 H581 0.931 . S
C566 C565 1.392 . S
C566 C567 1.331 . S
C566 H584 0.932 . S
C567 C566 1.331 . S
C567 C568 1.336 . S
C568 C564 1.394 . S
C568 C567 1.336 . S
C568 H583 0.929 . S
C569 C559 1.386 . S
C569 C562 1.357 . S
C569 H582 0.928 . S
H570 C546 0.931 . S
H571 C548 0.930 . S
H572 C550 0.929 . S
H573 C551 0.931 . S
H574 C553 0.930 . S
H575 C557 0.931 . S
H576 C555 0.931 . S
H577 C559 0.931 . S
H578 C560 0.929 . S
H579 C561 0.930 . S
H580 C564 0.930 . S
H581 C565 0.931 . S
H582 C569 0.928 . S
H583 C568 0.929 . S
H584 C566 0.932 . S
C585 C586 1.386 . S
C585 C587 1.397 . S
C585 H609 0.931 . S
C586 C585 1.386 . S
C586 C590 1.397 . S
C587 C585 1.397 . S
C587 C588 1.384 . S
C587 H610 0.930 . S
C588 C587 1.384 . S
C588 C589 1.377 . S
C588 C591 1.481 . S
C589 C588 1.377 . S
C589 C590 1.389 . S
C589 H611 0.929 . S
C590 C586 1.397 . S
C590 C589 1.389 . S
C590 H612 0.931 1_556 S
C591 C588 1.481 . S
C591 C592 1.387 . S
C591 C596 1.390 . S
C592 C591 1.387 . S
C592 C593 1.401 . S
C592 H613 0.930 . S
C593 C592 1.401 . S
C593 C594 1.376 . S
C593 C602 1.511 . S
C594 C593 1.376 . S
C594 C595 1.392 . S
C594 H615 0.931 . S
C595 C594 1.392 . S
C595 C596 1.361 . S
C595 C597 1.500 . S
C596 C591 1.390 . S
C596 C595 1.361 . S
C596 H614 0.931 . S
C597 C595 1.500 . S
C597 C598 1.371 . S
C597 C599 1.365 . S
C598 C597 1.371 . S
C598 C608 1.386 . S
C598 H616 0.931 . S
C599 C597 1.365 . S
C599 C600 1.409 . S
C599 H617 0.929 . S
C600 C599 1.409 . S
C600 C601 1.380 . S
C600 H618 0.930 . S
C601 C600 1.380 . S
C601 C608 1.357 . S
C602 C593 1.511 . S
C602 C603 1.341 . S
C602 C604 1.371 . S
C603 C602 1.341 . S
C603 C607 1.394 . S
C603 H619 0.930 . S
C604 C602 1.371 . S
C604 C605 1.392 . S
C604 H620 0.931 . S
C605 C604 1.392 . S
C605 C606 1.331 . S
C605 H623 0.932 . S
C606 C605 1.331 . S
C606 C607 1.336 . S
C607 C603 1.394 . S
C607 C606 1.336 . S
C607 H622 0.929 . S
C608 C598 1.386 . S
C608 C601 1.357 . S
C608 H621 0.928 . S
H609 C585 0.931 . S
H610 C587 0.930 . S
H611 C589 0.929 . S
H612 C590 0.931 1_554 S
H613 C592 0.930 . S
H614 C596 0.931 . S
H615 C594 0.931 . S
H616 C598 0.931 . S
H617 C599 0.929 . S
H618 C600 0.930 . S
H619 C603 0.930 . S
H620 C604 0.931 . S
H621 C608 0.928 . S
H622 C607 0.929 . S
H623 C605 0.932 . S
O624 Cd625 2.223 . S
O624 C632 1.315 . S
Cd625 O624 2.223 . S
Cd625 O628 2.297 . S
Cd625 O629 2.439 . S
Cd625 O635 2.240 . S
Cd626 O627 2.240 . S
Cd626 O634 2.223 . S
Cd626 O636 2.297 . S
Cd626 O637 2.439 . S
O627 Cd626 2.240 . S
O627 C632 1.279 . S
O628 Cd625 2.297 . S
O628 C630 1.247 . S
O629 Cd625 2.439 . S
O629 C630 1.208 . S
C630 O628 1.247 . S
C630 O629 1.208 . S
C631 O636 1.247 . S
C631 O637 1.208 . S
C632 O624 1.315 . S
C632 O627 1.279 . S
C633 O634 1.315 . S
C633 O635 1.279 . S
O634 Cd626 2.223 . S
O634 C633 1.315 . S
O635 Cd625 2.240 . S
O635 C633 1.279 . S
O636 Cd626 2.297 . S
O636 C631 1.247 . S
O637 Cd626 2.439 . S
O637 C631 1.208 . S
O638 Cd639 2.223 . S
O638 C646 1.315 . S
Cd639 O638 2.223 . S
Cd639 O642 2.297 . S
Cd639 O643 2.439 . S
Cd639 O649 2.240 . S
Cd640 O641 2.240 . S
Cd640 O648 2.223 . S
Cd640 O650 2.297 . S
Cd640 O651 2.439 . S
O641 Cd640 2.240 . S
O641 C646 1.279 . S
O642 Cd639 2.297 . S
O642 C644 1.247 . S
O643 Cd639 2.439 . S
O643 C644 1.208 . S
C644 O642 1.247 . S
C644 O643 1.208 . S
C645 O650 1.247 . S
C645 O651 1.208 . S
C646 O638 1.315 . S
C646 O641 1.279 . S
C647 O648 1.315 . S
C647 O649 1.279 . S
O648 Cd640 2.223 . S
O648 C647 1.315 . S
O649 Cd639 2.240 . S
O649 C647 1.279 . S
O650 Cd640 2.297 . S
O650 C645 1.247 . S
O651 Cd640 2.439 . S
O651 C645 1.208 . S
O652 Cd653 2.223 1_556 S
O652 C660 1.315 . S
Cd653 O652 2.223 1_554 S
Cd653 O656 2.297 . S
Cd653 O657 2.439 . S
Cd653 O663 2.240 . S
Cd654 O655 2.240 . S
Cd654 O662 2.223 . S
Cd654 O664 2.297 1_556 S
Cd654 O665 2.439 1_556 S
O655 Cd654 2.240 . S
O655 C660 1.279 . S
O656 Cd653 2.297 . S
O656 C658 1.247 . S
O657 Cd653 2.439 . S
O657 C658 1.208 . S
C658 O656 1.247 . S
C658 O657 1.208 . S
C659 O664 1.247 . S
C659 O665 1.208 . S
C660 O652 1.315 . S
C660 O655 1.279 . S
C661 O662 1.315 . S
C661 O663 1.279 1_556 S
O662 Cd654 2.223 . S
O662 C661 1.315 . S
O663 Cd653 2.240 . S
O663 C661 1.279 1_554 S
O664 Cd654 2.297 1_554 S
O664 C659 1.247 . S
O665 Cd654 2.439 1_554 S
O665 C659 1.208 . S
O666 Cd667 2.223 . S
O666 C674 1.315 . S
Cd667 O666 2.223 . S
Cd667 O670 2.297 . S
Cd667 O671 2.439 . S
Cd667 O677 2.240 . S
Cd668 O669 2.240 . S
Cd668 O676 2.223 . S
Cd668 O678 2.297 . S
Cd668 O679 2.439 . S
O669 Cd668 2.240 . S
O669 C674 1.279 . S
O670 Cd667 2.297 . S
O670 C672 1.247 . S
O671 Cd667 2.439 . S
O671 C672 1.208 . S
C672 O670 1.247 . S
C672 O671 1.208 . S
C673 O678 1.247 . S
C673 O679 1.208 . S
C674 O666 1.315 . S
C674 O669 1.279 . S
C675 O676 1.315 . S
C675 O677 1.279 . S
O676 Cd668 2.223 . S
O676 C675 1.315 . S
O677 Cd667 2.240 . S
O677 C675 1.279 . S
O678 Cd668 2.297 . S
O678 C673 1.247 . S
O679 Cd668 2.439 . S
O679 C673 1.208 . S
O680 Cd681 2.223 . S
O680 C688 1.315 . S
Cd681 O680 2.223 . S
Cd681 O684 2.297 . S
Cd681 O685 2.439 . S
Cd681 O691 2.240 . S
Cd682 O683 2.240 . S
Cd682 O690 2.223 . S
Cd682 O692 2.297 . S
Cd682 O693 2.439 . S
O683 Cd682 2.240 . S
O683 C688 1.279 . S
O684 Cd681 2.297 . S
O684 C686 1.247 . S
O685 Cd681 2.439 . S
O685 C686 1.208 . S
C686 O684 1.247 . S
C686 O685 1.208 . S
C687 O692 1.247 . S
C687 O693 1.208 . S
C688 O680 1.315 . S
C688 O683 1.279 . S
C689 O690 1.315 . S
C689 O691 1.279 . S
O690 Cd682 2.223 . S
O690 C689 1.315 . S
O691 Cd681 2.240 . S
O691 C689 1.279 . S
O692 Cd682 2.297 . S
O692 C687 1.247 . S
O693 Cd682 2.439 . S
O693 C687 1.208 . S
O694 Cd695 2.223 . S
O694 C702 1.315 . S
Cd695 O694 2.223 . S
Cd695 O698 2.297 . S
Cd695 O699 2.439 . S
Cd695 O705 2.240 . S
Cd696 O697 2.240 . S
Cd696 O704 2.223 . S
Cd696 O706 2.297 . S
Cd696 O707 2.439 . S
O697 Cd696 2.240 . S
O697 C702 1.279 . S
O698 Cd695 2.297 . S
O698 C700 1.247 . S
O699 Cd695 2.439 . S
O699 C700 1.208 . S
C700 O698 1.247 . S
C700 O699 1.208 . S
C701 O706 1.247 . S
C701 O707 1.208 . S
C702 O694 1.315 . S
C702 O697 1.279 . S
C703 O704 1.315 . S
C703 O705 1.279 . S
O704 Cd696 2.223 . S
O704 C703 1.315 . S
O705 Cd695 2.240 . S
O705 C703 1.279 . S
O706 Cd696 2.297 . S
O706 C701 1.247 . S
O707 Cd696 2.439 . S
O707 C701 1.208 . S
O708 Cd709 2.223 . S
O708 C716 1.315 . S
Cd709 O708 2.223 . S
Cd709 O712 2.297 . S
Cd709 O713 2.439 . S
Cd709 O719 2.240 . S
Cd710 O711 2.240 . S
Cd710 O718 2.223 . S
Cd710 O720 2.297 . S
Cd710 O721 2.439 . S
O711 Cd710 2.240 . S
O711 C716 1.279 . S
O712 Cd709 2.297 . S
O712 C714 1.247 . S
O713 Cd709 2.439 . S
O713 C714 1.208 . S
C714 O712 1.247 . S
C714 O713 1.208 . S
C715 O720 1.247 . S
C715 O721 1.208 . S
C716 O708 1.315 . S
C716 O711 1.279 . S
C717 O718 1.315 . S
C717 O719 1.279 . S
O718 Cd710 2.223 . S
O718 C717 1.315 . S
O719 Cd709 2.240 . S
O719 C717 1.279 . S
O720 Cd710 2.297 . S
O720 C715 1.247 . S
O721 Cd710 2.439 . S
O721 C715 1.208 . S
O722 Cd723 2.223 1_545 S
O722 C730 1.315 . S
Cd723 O722 2.223 1_565 S
Cd723 O726 2.297 . S
Cd723 O727 2.439 . S
Cd723 O733 2.240 1_565 S
Cd724 O725 2.240 . S
Cd724 O732 2.223 . S
Cd724 O734 2.297 . S
Cd724 O735 2.439 1_545 S
O725 Cd724 2.240 . S
O725 C730 1.279 . S
O726 Cd723 2.297 . S
O726 C728 1.247 . S
O727 Cd723 2.439 . S
O727 C728 1.208 . S
C728 O726 1.247 . S
C728 O727 1.208 . S
C729 O734 1.247 1_565 S
C729 O735 1.208 . S
C730 O722 1.315 . S
C730 O725 1.279 . S
C731 O732 1.315 . S
C731 O733 1.279 . S
O732 Cd724 2.223 . S
O732 C731 1.315 . S
O733 Cd723 2.240 1_545 S
O733 C731 1.279 . S
O734 Cd724 2.297 . S
O734 C729 1.247 1_545 S
O735 Cd724 2.439 1_565 S
O735 C729 1.208 . S
O736 Cd737 2.223 . S
O736 C744 1.315 . S
Cd737 O736 2.223 . S
Cd737 O740 2.297 1_655 S
Cd737 O741 2.439 1_655 S
Cd737 O747 2.240 . S
Cd738 O739 2.240 . S
Cd738 O746 2.223 1_455 S
Cd738 O748 2.297 . S
Cd738 O749 2.439 . S
O739 Cd738 2.240 . S
O739 C744 1.279 1_455 S
O740 Cd737 2.297 1_455 S
O740 C742 1.247 . S
O741 Cd737 2.439 1_455 S
O741 C742 1.208 . S
C742 O740 1.247 . S
C742 O741 1.208 . S
C743 O748 1.247 . S
C743 O749 1.208 . S
C744 O736 1.315 . S
C744 O739 1.279 1_655 S
C745 O746 1.315 . S
C745 O747 1.279 . S
O746 Cd738 2.223 1_655 S
O746 C745 1.315 . S
O747 Cd737 2.240 . S
O747 C745 1.279 . S
O748 Cd738 2.297 . S
O748 C743 1.247 . S
O749 Cd738 2.439 . S
O749 C743 1.208 . S
O750 Cd751 2.223 . S
O750 C758 1.315 . S
Cd751 O750 2.223 . S
Cd751 O754 2.297 . S
Cd751 O755 2.439 . S
Cd751 O761 2.240 . S
Cd752 O753 2.240 . S
Cd752 O760 2.223 . S
Cd752 O762 2.297 . S
Cd752 O763 2.439 . S
O753 Cd752 2.240 . S
O753 C758 1.279 . S
O754 Cd751 2.297 . S
O754 C756 1.247 . S
O755 Cd751 2.439 . S
O755 C756 1.208 . S
C756 O754 1.247 . S
C756 O755 1.208 . S
C757 O762 1.247 . S
C757 O763 1.208 . S
C758 O750 1.315 . S
C758 O753 1.279 . S
C759 O760 1.315 . S
C759 O761 1.279 . S
O760 Cd752 2.223 . S
O760 C759 1.315 . S
O761 Cd751 2.240 . S
O761 C759 1.279 . S
O762 Cd752 2.297 . S
O762 C757 1.247 . S
O763 Cd752 2.439 . S
O763 C757 1.208 . S
O764 Cd765 2.223 1_655 S
O764 C772 1.315 . S
Cd765 O764 2.223 1_455 S
Cd765 O768 2.297 . S
Cd765 O769 2.439 . S
Cd765 O775 2.240 . S
Cd766 O767 2.240 . S
Cd766 O774 2.223 . S
Cd766 O776 2.297 1_655 S
Cd766 O777 2.439 1_655 S
O767 Cd766 2.240 . S
O767 C772 1.279 . S
O768 Cd765 2.297 . S
O768 C770 1.247 . S
O769 Cd765 2.439 . S
O769 C770 1.208 . S
C770 O768 1.247 . S
C770 O769 1.208 . S
C771 O776 1.247 . S
C771 O777 1.208 . S
C772 O764 1.315 . S
C772 O767 1.279 . S
C773 O774 1.315 . S
C773 O775 1.279 1_655 S
O774 Cd766 2.223 . S
O774 C773 1.315 . S
O775 Cd765 2.240 . S
O775 C773 1.279 1_455 S
O776 Cd766 2.297 1_455 S
O776 C771 1.247 . S
O777 Cd766 2.439 1_455 S
O777 C771 1.208 . S
O778 Cd779 2.223 . S
O778 C786 1.315 . S
Cd779 O778 2.223 . S
Cd779 O782 2.297 . S
Cd779 O783 2.439 . S
Cd779 O789 2.240 . S
Cd780 O781 2.240 . S
Cd780 O788 2.223 . S
Cd780 O790 2.297 . S
Cd780 O791 2.439 . S
O781 Cd780 2.240 . S
O781 C786 1.279 . S
O782 Cd779 2.297 . S
O782 C784 1.247 . S
O783 Cd779 2.439 . S
O783 C784 1.208 . S
C784 O782 1.247 . S
C784 O783 1.208 . S
C785 O790 1.247 . S
C785 O791 1.208 . S
C786 O778 1.315 . S
C786 O781 1.279 . S
C787 O788 1.315 . S
C787 O789 1.279 . S
O788 Cd780 2.223 . S
O788 C787 1.315 . S
O789 Cd779 2.240 . S
O789 C787 1.279 . S
O790 Cd780 2.297 . S
O790 C785 1.247 . S
O791 Cd780 2.439 . S
O791 C785 1.208 . S
C792 C793 1.391 . S
C792 C794 1.394 . S
C792 H808 0.931 . S
C793 C792 1.391 . S
C793 C797 1.376 . S
C794 C792 1.394 . S
C794 C795 1.369 . S
C794 C798 1.531 . S
C795 C794 1.369 . S
C795 C796 1.410 . S
C795 C803 1.503 . S
C796 C795 1.410 . S
C796 C797 1.392 . S
C796 C799 1.511 . S
C797 C793 1.376 . S
C797 C796 1.392 . S
C797 H809 0.929 . S
C798 C794 1.531 . S
C798 H810 0.960 . S
C798 H811 0.962 . S
C798 H812 0.960 . S
C799 C796 1.511 . S
C799 H813 0.961 . S
C799 H814 0.961 . S
C799 H815 0.961 . S
C800 C801 1.370 . S
C800 C802 1.363 . S
C800 H816 0.931 . S
C801 C800 1.370 . S
C801 C805 1.408 . S
C802 C800 1.363 . S
C802 C803 1.370 . S
C802 C806 1.524 . S
C803 C795 1.503 . S
C803 C802 1.370 . S
C803 C804 1.403 . S
C804 C803 1.403 . S
C804 C805 1.404 . S
C804 C807 1.539 . S
C805 C801 1.408 . S
C805 C804 1.404 . S
C805 H817 0.930 . S
C806 C802 1.524 . S
C806 H818 0.956 . S
C806 H819 0.961 . S
C806 H820 0.961 . S
C807 C804 1.539 . S
C807 H821 0.958 . S
C807 H822 0.961 . S
C807 H823 0.960 . S
H808 C792 0.931 . S
H809 C797 0.929 . S
H810 C798 0.960 . S
H811 C798 0.962 . S
H812 C798 0.960 . S
H813 C799 0.961 . S
H814 C799 0.961 . S
H815 C799 0.961 . S
H816 C800 0.931 . S
H817 C805 0.930 . S
H818 C806 0.956 . S
H819 C806 0.961 . S
H820 C806 0.961 . S
H821 C807 0.958 . S
H822 C807 0.961 . S
H823 C807 0.960 . S
C824 C825 1.391 . S
C824 C826 1.391 . S
C824 H840 0.931 . S
C825 C824 1.391 . S
C825 C829 1.376 1_655 S
C826 C824 1.391 . S
C826 C827 1.371 1_655 S
C826 C830 1.531 . S
C827 C826 1.371 1_455 S
C827 C828 1.410 . S
C827 C835 1.503 . S
C828 C827 1.410 . S
C828 C829 1.392 . S
C828 C831 1.511 . S
C829 C825 1.376 1_455 S
C829 C828 1.392 . S
C829 H841 0.929 . S
C830 C826 1.531 . S
C830 H842 0.960 1_655 S
C830 H843 0.962 1_655 S
C830 H844 0.960 . S
C831 C828 1.511 . S
C831 H845 0.961 . S
C831 H846 0.961 . S
C831 H847 0.961 . S
C832 C833 1.370 . S
C832 C834 1.363 . S
C832 H848 0.931 . S
C833 C832 1.370 . S
C833 C837 1.408 . S
C834 C832 1.363 . S
C834 C835 1.370 . S
C834 C838 1.524 . S
C835 C827 1.503 . S
C835 C834 1.370 . S
C835 C836 1.403 . S
C836 C835 1.403 . S
C836 C837 1.404 . S
C836 C839 1.539 . S
C837 C833 1.408 . S
C837 C836 1.404 . S
C837 H849 0.930 . S
C838 C834 1.524 . S
C838 H850 0.956 . S
C838 H851 0.961 . S
C838 H852 0.961 . S
C839 C836 1.539 . S
C839 H853 0.958 . S
C839 H854 0.961 . S
C839 H855 0.960 . S
H840 C824 0.931 . S
H841 C829 0.929 . S
H842 C830 0.960 1_455 S
H843 C830 0.962 1_455 S
H844 C830 0.960 . S
H845 C831 0.961 . S
H846 C831 0.961 . S
H847 C831 0.961 . S
H848 C832 0.931 . S
H849 C837 0.930 . S
H850 C838 0.956 . S
H851 C838 0.961 . S
H852 C838 0.961 . S
H853 C839 0.958 . S
H854 C839 0.961 . S
H855 C839 0.960 . S
C856 C857 1.391 . S
C856 C858 1.394 . S
C856 H872 0.931 . S
C857 C856 1.391 . S
C857 C861 1.376 . S
C858 C856 1.394 . S
C858 C859 1.369 . S
C858 C862 1.531 . S
C859 C858 1.369 . S
C859 C860 1.410 . S
C859 C867 1.503 . S
C860 C859 1.410 . S
C860 C861 1.392 . S
C860 C863 1.511 . S
C861 C857 1.376 . S
C861 C860 1.392 . S
C861 H873 0.929 . S
C862 C858 1.531 . S
C862 H874 0.960 . S
C862 H875 0.962 . S
C862 H876 0.960 . S
C863 C860 1.511 . S
C863 H877 0.961 . S
C863 H878 0.961 . S
C863 H879 0.961 . S
C864 C865 1.370 . S
C864 C866 1.363 . S
C864 H880 0.931 . S
C865 C864 1.370 . S
C865 C869 1.408 . S
C866 C864 1.363 . S
C866 C867 1.370 . S
C866 C870 1.524 . S
C867 C859 1.503 . S
C867 C866 1.370 . S
C867 C868 1.403 . S
C868 C867 1.403 . S
C868 C869 1.404 . S
C868 C871 1.539 . S
C869 C865 1.408 . S
C869 C868 1.404 . S
C869 H881 0.930 . S
C870 C866 1.524 . S
C870 H882 0.956 . S
C870 H883 0.961 . S
C870 H884 0.961 . S
C871 C868 1.539 . S
C871 H885 0.958 . S
C871 H886 0.961 . S
C871 H887 0.960 . S
H872 C856 0.931 . S
H873 C861 0.929 . S
H874 C862 0.960 . S
H875 C862 0.962 . S
H876 C862 0.960 . S
H877 C863 0.961 . S
H878 C863 0.961 . S
H879 C863 0.961 . S
H880 C864 0.931 . S
H881 C869 0.930 . S
H882 C870 0.956 . S
H883 C870 0.961 . S
H884 C870 0.961 . S
H885 C871 0.958 . S
H886 C871 0.961 . S
H887 C871 0.960 . S
C888 C889 1.391 . S
C888 C890 1.394 1_455 S
C888 H904 0.931 . S
C889 C888 1.391 . S
C889 C893 1.376 1_455 S
C890 C888 1.394 1_655 S
C890 C891 1.369 . S
C890 C894 1.531 . S
C891 C890 1.369 . S
C891 C892 1.410 . S
C891 C899 1.503 1_565 S
C892 C891 1.410 . S
C892 C893 1.392 . S
C892 C895 1.511 . S
C893 C889 1.376 1_655 S
C893 C892 1.392 . S
C893 H905 0.929 . S
C894 C890 1.531 . S
C894 H906 0.960 . S
C894 H907 0.962 1_565 S
C894 H908 0.960 . S
C895 C892 1.511 . S
C895 H909 0.961 . S
C895 H910 1.003 . S
C895 H911 0.961 . S
C896 C897 1.370 . S
C896 C898 1.363 . S
C896 H912 0.931 . S
C897 C896 1.370 . S
C897 C901 1.408 . S
C898 C896 1.363 . S
C898 C899 1.370 . S
C898 C902 1.524 . S
C899 C891 1.503 1_545 S
C899 C898 1.370 . S
C899 C900 1.403 1_545 S
C900 C899 1.403 1_565 S
C900 C901 1.404 1_565 S
C900 C903 1.539 . S
C901 C897 1.408 . S
C901 C900 1.404 1_545 S
C901 H913 0.930 1_545 S
C902 C898 1.524 . S
C902 H914 0.956 . S
C902 H915 0.961 . S
C902 H916 0.961 . S
C903 C900 1.539 . S
C903 H917 0.958 . S
C903 H918 0.961 . S
C903 H919 0.960 . S
H904 C888 0.931 . S
H905 C893 0.929 . S
H906 C894 0.960 . S
H907 C894 0.962 1_545 S
H908 C894 0.960 . S
H909 C895 0.961 . S
H910 C895 1.003 . S
H911 C895 0.961 . S
H912 C896 0.931 . S
H913 C901 0.930 1_565 S
H914 C902 0.956 . S
H915 C902 0.961 . S
H916 C902 0.961 . S
H917 C903 0.958 . S
H918 C903 0.961 . S
H919 C903 0.960 . S
C920 C921 1.391 . S
C920 C922 1.394 . S
C920 H936 0.931 . S
C921 C920 1.391 . S
C921 C925 1.376 . S
C922 C920 1.394 . S
C922 C923 1.369 . S
C922 C926 1.531 . S
C923 C922 1.369 . S
C923 C924 1.410 . S
C923 C931 1.503 . S
C924 C923 1.410 . S
C924 C925 1.392 . S
C924 C927 1.511 . S
C925 C921 1.376 . S
C925 C924 1.392 . S
C925 H937 0.929 . S
C926 C922 1.531 . S
C926 H938 0.960 . S
C926 H939 0.962 . S
C926 H940 0.960 . S
C927 C924 1.511 . S
C927 H941 0.961 . S
C927 H942 0.961 . S
C927 H943 0.961 . S
C928 C929 1.370 . S
C928 C930 1.363 . S
C928 H944 0.931 . S
C929 C928 1.370 . S
C929 C933 1.408 . S
C930 C928 1.363 . S
C930 C931 1.370 . S
C930 C934 1.524 . S
C931 C923 1.503 . S
C931 C930 1.370 . S
C931 C932 1.403 . S
C932 C931 1.403 . S
C932 C933 1.404 . S
C932 C935 1.539 . S
C933 C929 1.408 . S
C933 C932 1.404 . S
C933 H945 0.930 . S
C934 C930 1.524 . S
C934 H946 0.956 . S
C934 H947 0.961 . S
C934 H948 0.961 . S
C935 C932 1.539 . S
C935 H949 0.958 . S
C935 H950 0.961 . S
C935 H951 0.960 . S
H936 C920 0.931 . S
H937 C925 0.929 . S
H938 C926 0.960 . S
H939 C926 0.962 . S
H940 C926 0.960 . S
H941 C927 0.961 . S
H942 C927 0.961 . S
H943 C927 0.961 . S
H944 C928 0.931 . S
H945 C933 0.930 . S
H946 C934 0.956 . S
H947 C934 0.961 . S
H948 C934 0.961 . S
H949 C935 0.958 . S
H950 C935 0.961 . S
H951 C935 0.960 . S
C952 C953 1.391 . S
C952 C954 1.394 . S
C952 H968 0.931 . S
C953 C952 1.391 . S
C953 C957 1.376 . S
C954 C952 1.394 . S
C954 C955 1.369 . S
C954 C958 1.531 . S
C955 C954 1.369 . S
C955 C956 1.410 . S
C955 C963 1.503 . S
C956 C955 1.410 . S
C956 C957 1.392 . S
C956 C959 1.511 . S
C957 C953 1.376 . S
C957 C956 1.392 . S
C957 H969 0.929 . S
C958 C954 1.531 . S
C958 H970 0.960 . S
C958 H971 0.962 . S
C958 H972 0.960 . S
C959 C956 1.511 . S
C959 H973 0.961 . S
C959 H974 0.961 . S
C959 H975 0.961 . S
C960 C961 1.370 . S
C960 C962 1.363 . S
C960 H976 0.931 . S
C961 C960 1.370 . S
C961 C965 1.408 . S
C962 C960 1.363 . S
C962 C963 1.370 . S
C962 C966 1.524 . S
C963 C955 1.503 . S
C963 C962 1.370 . S
C963 C964 1.403 . S
C964 C963 1.403 . S
C964 C965 1.404 . S
C964 C967 1.539 . S
C965 C961 1.408 . S
C965 C964 1.404 . S
C965 H977 0.930 . S
C966 C962 1.524 . S
C966 H978 0.956 . S
C966 H979 0.961 . S
C966 H980 0.961 . S
C967 C964 1.539 . S
C967 H981 0.958 . S
C967 H982 0.961 . S
C967 H983 0.960 . S
H968 C952 0.931 . S
H969 C957 0.929 . S
H970 C958 0.960 . S
H971 C958 0.962 . S
H972 C958 0.960 . S
H973 C959 0.961 . S
H974 C959 0.961 . S
H975 C959 0.961 . S
H976 C960 0.931 . S
H977 C965 0.930 . S
H978 C966 0.956 . S
H979 C966 0.961 . S
H980 C966 0.961 . S
H981 C967 0.958 . S
H982 C967 0.961 . S
H983 C967 0.960 . S
C984 C985 1.391 . S
C984 C986 1.394 . S
C984 H1000 0.931 . S
C985 C984 1.391 . S
C985 C989 1.376 . S
C986 C984 1.394 . S
C986 C987 1.369 . S
C986 C990 1.531 . S
C987 C986 1.369 . S
C987 C988 1.410 . S
C987 C995 1.503 . S
C988 C987 1.410 . S
C988 C989 1.392 . S
C988 C991 1.511 . S
C989 C985 1.376 . S
C989 C988 1.392 . S
C989 H1001 0.929 . S
C990 C986 1.531 . S
C990 H1002 0.960 . S
C990 H1003 0.962 . S
C990 H1004 0.960 . S
C991 C988 1.511 . S
C991 H1005 0.961 . S
C991 H1006 0.961 . S
C991 H1007 0.961 . S
C992 C993 1.370 . S
C992 C994 1.363 . S
C992 H1008 0.931 . S
C993 C992 1.370 . S
C993 C997 1.408 . S
C994 C992 1.363 . S
C994 C995 1.370 . S
C994 C998 1.524 . S
C995 C987 1.503 . S
C995 C994 1.370 . S
C995 C996 1.403 . S
C996 C995 1.403 . S
C996 C997 1.404 . S
C996 C999 1.539 . S
C997 C993 1.408 . S
C997 C996 1.404 . S
C997 H1009 0.930 . S
C998 C994 1.524 . S
C998 H1010 0.956 . S
C998 H1011 0.961 . S
C998 H1012 0.961 . S
C999 C996 1.539 . S
C999 H1013 0.958 . S
C999 H1014 0.961 . S
C999 H1015 0.960 . S
H1000 C984 0.931 . S
H1001 C989 0.929 . S
H1002 C990 0.960 . S
H1003 C990 0.962 . S
H1004 C990 0.960 . S
H1005 C991 0.961 . S
H1006 C991 0.961 . S
H1007 C991 0.961 . S
H1008 C992 0.931 . S
H1009 C997 0.930 . S
H1010 C998 0.956 . S
H1011 C998 0.961 . S
H1012 C998 0.961 . S
H1013 C999 0.958 . S
H1014 C999 0.961 . S
H1015 C999 0.960 . S
C1016 C1017 1.391 . S
C1016 C1018 1.394 . S
C1016 H1032 0.931 . S
C1017 C1016 1.391 . S
C1017 C1021 1.376 . S
C1018 C1016 1.394 . S
C1018 C1019 1.369 . S
C1018 C1022 1.531 . S
C1019 C1018 1.369 . S
C1019 C1020 1.410 . S
C1019 C1027 1.503 . S
C1020 C1019 1.410 . S
C1020 C1021 1.392 . S
C1020 C1023 1.511 . S
C1021 C1017 1.376 . S
C1021 C1020 1.392 . S
C1021 H1033 0.929 . S
C1022 C1018 1.531 . S
C1022 H1034 0.960 . S
C1022 H1035 0.962 . S
C1022 H1036 0.960 . S
C1023 C1020 1.511 . S
C1023 H1037 0.989 . S
C1023 H1038 0.961 . S
C1023 H1039 0.961 . S
C1024 C1025 1.370 . S
C1024 C1026 1.363 . S
C1024 H1040 0.931 . S
C1025 C1024 1.370 . S
C1025 C1029 1.408 . S
C1026 C1024 1.363 . S
C1026 C1027 1.370 . S
C1026 C1030 1.524 . S
C1027 C1019 1.503 . S
C1027 C1026 1.370 . S
C1027 C1028 1.403 . S
C1028 C1027 1.403 . S
C1028 C1029 1.404 . S
C1028 C1031 1.539 . S
C1029 C1025 1.408 . S
C1029 C1028 1.404 . S
C1029 H1041 0.930 . S
C1030 C1026 1.524 . S
C1030 H1042 0.956 . S
C1030 H1043 0.961 . S
C1030 H1044 0.961 . S
C1031 C1028 1.539 . S
C1031 H1045 0.958 . S
C1031 H1046 0.961 . S
C1031 H1047 0.960 . S
H1032 C1016 0.931 . S
H1033 C1021 0.929 . S
H1034 C1022 0.960 . S
H1035 C1022 0.962 . S
H1036 C1022 0.960 . S
H1037 C1023 0.989 . S
H1038 C1023 0.961 . S
H1039 C1023 0.961 . S
H1040 C1024 0.931 . S
H1041 C1029 0.930 . S
H1042 C1030 0.956 . S
H1043 C1030 0.961 . S
H1044 C1030 0.961 . S
H1045 C1031 0.958 . S
H1046 C1031 0.961 . S
H1047 C1031 0.960 . S
C1048 C1049 1.391 . S
C1048 C1050 1.394 . S
C1048 H1064 0.931 . S
C1049 C1048 1.391 . S
C1049 C1053 1.376 . S
C1050 C1048 1.394 . S
C1050 C1051 1.369 . S
C1050 C1054 1.531 . S
C1051 C1050 1.369 . S
C1051 C1052 1.410 . S
C1051 C1059 1.503 . S
C1052 C1051 1.410 . S
C1052 C1053 1.392 . S
C1052 C1055 1.511 . S
C1053 C1049 1.376 . S
C1053 C1052 1.392 . S
C1053 H1065 0.929 . S
C1054 C1050 1.531 . S
C1054 H1066 0.960 . S
C1054 H1067 0.962 . S
C1054 H1068 0.960 . S
C1055 C1052 1.511 . S
C1055 H1069 0.961 . S
C1055 H1070 0.961 . S
C1055 H1071 0.961 . S
C1056 C1057 1.370 . S
C1056 C1058 1.363 . S
C1056 H1072 0.931 . S
C1057 C1056 1.370 . S
C1057 C1061 1.408 . S
C1058 C1056 1.363 . S
C1058 C1059 1.370 . S
C1058 C1062 1.524 . S
C1059 C1051 1.503 . S
C1059 C1058 1.370 . S
C1059 C1060 1.403 . S
C1060 C1059 1.403 . S
C1060 C1061 1.404 . S
C1060 C1063 1.539 . S
C1061 C1057 1.408 . S
C1061 C1060 1.404 . S
C1061 H1073 0.930 . S
C1062 C1058 1.524 . S
C1062 H1074 0.956 . S
C1062 H1075 0.961 . S
C1062 H1076 0.961 . S
C1063 C1060 1.539 . S
C1063 H1077 0.958 . S
C1063 H1078 0.961 . S
C1063 H1079 0.960 . S
H1064 C1048 0.931 . S
H1065 C1053 0.929 . S
H1066 C1054 0.960 . S
H1067 C1054 0.962 . S
H1068 C1054 0.960 . S
H1069 C1055 0.961 . S
H1070 C1055 0.961 . S
H1071 C1055 0.961 . S
H1072 C1056 0.931 . S
H1073 C1061 0.930 . S
H1074 C1062 0.956 . S
H1075 C1062 0.961 . S
H1076 C1062 0.961 . S
H1077 C1063 0.958 . S
H1078 C1063 0.961 . S
H1079 C1063 0.960 . S
C1080 C1081 1.391 . S
C1080 C1082 1.394 . S
C1080 H1096 0.931 . S
C1081 C1080 1.391 . S
C1081 C1085 1.376 . S
C1082 C1080 1.394 . S
C1082 C1083 1.369 . S
C1082 C1086 1.531 . S
C1083 C1082 1.369 . S
C1083 C1084 1.410 . S
C1083 C1091 1.503 . S
C1084 C1083 1.410 . S
C1084 C1085 1.392 . S
C1084 C1087 1.511 . S
C1085 C1081 1.376 . S
C1085 C1084 1.392 . S
C1085 H1097 0.929 . S
C1086 C1082 1.531 . S
C1086 H1098 0.960 . S
C1086 H1099 0.962 . S
C1086 H1100 0.960 . S
C1087 C1084 1.511 . S
C1087 H1101 0.961 . S
C1087 H1102 0.961 . S
C1087 H1103 0.961 . S
C1088 C1089 1.370 . S
C1088 C1090 1.363 . S
C1088 H1104 0.931 . S
C1089 C1088 1.370 . S
C1089 C1093 1.408 . S
C1090 C1088 1.363 . S
C1090 C1091 1.370 . S
C1090 C1094 1.524 . S
C1091 C1083 1.503 . S
C1091 C1090 1.370 . S
C1091 C1092 1.403 . S
C1092 C1091 1.403 . S
C1092 C1093 1.404 . S
C1092 C1095 1.539 . S
C1093 C1089 1.408 . S
C1093 C1092 1.404 . S
C1093 H1105 0.930 . S
C1094 C1090 1.524 . S
C1094 H1106 0.956 . S
C1094 H1107 0.961 . S
C1094 H1108 0.961 . S
C1095 C1092 1.539 . S
C1095 H1109 0.958 . S
C1095 H1110 0.961 . S
C1095 H1111 0.960 . S
H1096 C1080 0.931 . S
H1097 C1085 0.929 . S
H1098 C1086 0.960 . S
H1099 C1086 0.962 . S
H1100 C1086 0.960 . S
H1101 C1087 0.961 . S
H1102 C1087 0.961 . S
H1103 C1087 0.961 . S
H1104 C1088 0.931 . S
H1105 C1093 0.930 . S
H1106 C1094 0.956 . S
H1107 C1094 0.961 . S
H1108 C1094 0.961 . S
H1109 C1095 0.958 . S
H1110 C1095 0.961 . S
H1111 C1095 0.960 . S
C1112 C1113 1.391 . S
C1112 C1114 1.394 . S
C1112 H1128 0.931 . S
C1113 C1112 1.391 . S
C1113 C1117 1.376 . S
C1114 C1112 1.394 . S
C1114 C1115 1.369 . S
C1114 C1118 1.531 . S
C1115 C1114 1.369 . S
C1115 C1116 1.410 . S
C1115 C1123 1.503 . S
C1116 C1115 1.410 . S
C1116 C1117 1.392 . S
C1116 C1119 1.511 . S
C1117 C1113 1.376 . S
C1117 C1116 1.392 . S
C1117 H1129 0.929 . S
C1118 C1114 1.531 . S
C1118 H1130 0.960 . S
C1118 H1131 0.962 . S
C1118 H1132 0.960 . S
C1119 C1116 1.511 . S
C1119 H1133 0.961 . S
C1119 H1134 0.961 . S
C1119 H1135 0.961 . S
C1120 C1121 1.370 . S
C1120 C1122 1.363 . S
C1120 H1136 0.931 . S
C1121 C1120 1.370 . S
C1121 C1125 1.408 . S
C1122 C1120 1.363 . S
C1122 C1123 1.370 . S
C1122 C1126 1.524 . S
C1123 C1115 1.503 . S
C1123 C1122 1.370 . S
C1123 C1124 1.403 . S
C1124 C1123 1.403 . S
C1124 C1125 1.404 . S
C1124 C1127 1.539 . S
C1125 C1121 1.408 . S
C1125 C1124 1.404 . S
C1125 H1137 0.930 . S
C1126 C1122 1.524 . S
C1126 H1138 0.956 . S
C1126 H1139 0.961 . S
C1126 H1140 0.961 . S
C1127 C1124 1.539 . S
C1127 H1141 0.958 . S
C1127 H1142 0.961 . S
C1127 H1143 0.960 . S
H1128 C1112 0.931 . S
H1129 C1117 0.929 . S
H1130 C1118 0.960 . S
H1131 C1118 0.962 . S
H1132 C1118 0.960 . S
H1133 C1119 0.961 . S
H1134 C1119 0.961 . S
H1135 C1119 0.961 . S
H1136 C1120 0.931 . S
H1137 C1125 0.930 . S
H1138 C1126 0.956 . S
H1139 C1126 0.961 . S
H1140 C1126 0.961 . S
H1141 C1127 0.958 . S
H1142 C1127 0.961 . S
H1143 C1127 0.960 . S
C1144 C1145 1.391 . S
C1144 C1146 1.394 . S
C1144 H1160 0.931 . S
C1145 C1144 1.391 . S
C1145 C1149 1.376 . S
C1146 C1144 1.394 . S
C1146 C1147 1.369 . S
C1146 C1150 1.531 . S
C1147 C1146 1.369 . S
C1147 C1148 1.410 . S
C1147 C1155 1.503 . S
C1148 C1147 1.410 . S
C1148 C1149 1.392 . S
C1148 C1151 1.511 . S
C1149 C1145 1.376 . S
C1149 C1148 1.392 . S
C1149 H1161 0.929 . S
C1150 C1146 1.531 . S
C1150 H1162 0.960 . S
C1150 H1163 0.962 . S
C1150 H1164 0.960 . S
C1151 C1148 1.511 . S
C1151 H1165 0.961 . S
C1151 H1166 0.961 . S
C1151 H1167 0.961 . S
C1152 C1153 1.370 . S
C1152 C1154 1.363 . S
C1152 H1168 0.931 . S
C1153 C1152 1.370 . S
C1153 C1157 1.408 . S
C1154 C1152 1.363 . S
C1154 C1155 1.370 . S
C1154 C1158 1.524 . S
C1155 C1147 1.503 . S
C1155 C1154 1.370 . S
C1155 C1156 1.403 . S
C1156 C1155 1.403 . S
C1156 C1157 1.404 . S
C1156 C1159 1.539 . S
C1157 C1153 1.408 . S
C1157 C1156 1.404 . S
C1157 H1169 0.930 . S
C1158 C1154 1.524 . S
C1158 H1170 0.956 . S
C1158 H1171 0.961 . S
C1158 H1172 0.961 . S
C1159 C1156 1.539 . S
C1159 H1173 0.958 . S
C1159 H1174 0.961 . S
C1159 H1175 0.960 . S
H1160 C1144 0.931 . S
H1161 C1149 0.929 . S
H1162 C1150 0.960 . S
H1163 C1150 0.962 . S
H1164 C1150 0.960 . S
H1165 C1151 0.961 . S
H1166 C1151 0.961 . S
H1167 C1151 0.961 . S
H1168 C1152 0.931 . S
H1169 C1157 0.930 . S
H1170 C1158 0.956 . S
H1171 C1158 0.961 . S
H1172 C1158 0.961 . S
H1173 C1159 0.958 . S
H1174 C1159 0.961 . S
H1175 C1159 0.960 . S
C1176 C1177 1.391 . S
C1176 C1178 1.394 . S
C1176 H1192 0.931 . S
C1177 C1176 1.391 . S
C1177 C1181 1.376 . S
C1178 C1176 1.394 . S
C1178 C1179 1.369 . S
C1178 C1182 1.531 . S
C1179 C1178 1.369 . S
C1179 C1180 1.410 . S
C1179 C1187 1.503 . S
C1180 C1179 1.410 . S
C1180 C1181 1.392 . S
C1180 C1183 1.511 . S
C1181 C1177 1.376 . S
C1181 C1180 1.392 . S
C1181 H1193 0.929 . S
C1182 C1178 1.531 . S
C1182 H1194 0.960 . S
C1182 H1195 0.962 . S
C1182 H1196 0.960 . S
C1183 C1180 1.511 . S
C1183 H1197 0.961 . S
C1183 H1198 0.961 . S
C1183 H1199 0.961 . S
C1184 C1185 1.370 . S
C1184 C1186 1.363 . S
C1184 H1200 0.931 . S
C1185 C1184 1.370 . S
C1185 C1189 1.408 . S
C1186 C1184 1.363 . S
C1186 C1187 1.370 . S
C1186 C1190 1.524 . S
C1187 C1179 1.503 . S
C1187 C1186 1.370 . S
C1187 C1188 1.403 . S
C1188 C1187 1.403 . S
C1188 C1189 1.404 . S
C1188 C1191 1.539 . S
C1189 C1185 1.408 . S
C1189 C1188 1.404 . S
C1189 H1201 0.930 . S
C1190 C1186 1.524 . S
C1190 H1202 0.956 . S
C1190 H1203 0.961 . S
C1190 H1204 0.961 . S
C1191 C1188 1.539 . S
C1191 H1205 0.958 . S
C1191 H1206 0.961 . S
C1191 H1207 0.960 . S
H1192 C1176 0.931 . S
H1193 C1181 0.929 . S
H1194 C1182 0.960 . S
H1195 C1182 0.962 . S
H1196 C1182 0.960 . S
H1197 C1183 0.961 . S
H1198 C1183 0.961 . S
H1199 C1183 0.961 . S
H1200 C1184 0.931 . S
H1201 C1189 0.930 . S
H1202 C1190 0.956 . S
H1203 C1190 0.961 . S
H1204 C1190 0.961 . S
H1205 C1191 0.958 . S
H1206 C1191 0.961 . S
H1207 C1191 0.960 . S
C1208 C1209 1.391 . S
C1208 C1210 1.394 . S
C1208 H1224 0.931 . S
C1209 C1208 1.391 . S
C1209 C1213 1.376 . S
C1210 C1208 1.394 . S
C1210 C1211 1.369 . S
C1210 C1214 1.531 . S
C1211 C1210 1.369 . S
C1211 C1212 1.410 . S
C1211 C1219 1.503 . S
C1212 C1211 1.410 . S
C1212 C1213 1.392 . S
C1212 C1215 1.511 . S
C1213 C1209 1.376 . S
C1213 C1212 1.392 . S
C1213 H1225 0.929 . S
C1214 C1210 1.531 . S
C1214 H1226 0.960 . S
C1214 H1227 0.962 . S
C1214 H1228 0.960 . S
C1215 C1212 1.511 . S
C1215 H1229 0.961 . S
C1215 H1230 0.961 . S
C1215 H1231 0.961 . S
C1216 C1217 1.370 . S
C1216 C1218 1.363 . S
C1216 H1232 0.931 . S
C1217 C1216 1.370 . S
C1217 C1221 1.408 . S
C1218 C1216 1.363 . S
C1218 C1219 1.370 . S
C1218 C1222 1.524 . S
C1219 C1211 1.503 . S
C1219 C1218 1.370 . S
C1219 C1220 1.403 . S
C1220 C1219 1.403 . S
C1220 C1221 1.404 . S
C1220 C1223 1.539 . S
C1221 C1217 1.408 . S
C1221 C1220 1.404 . S
C1221 H1233 0.930 . S
C1222 C1218 1.524 . S
C1222 H1234 0.956 . S
C1222 H1235 0.961 . S
C1222 H1236 0.961 . S
C1223 C1220 1.539 . S
C1223 H1237 0.958 . S
C1223 H1238 0.961 1_455 S
C1223 H1239 0.960 . S
H1224 C1208 0.931 . S
H1225 C1213 0.929 . S
H1226 C1214 0.960 . S
H1227 C1214 0.962 . S
H1228 C1214 0.960 . S
H1229 C1215 0.961 . S
H1230 C1215 0.961 . S
H1231 C1215 0.961 . S
H1232 C1216 0.931 . S
H1233 C1221 0.930 . S
H1234 C1222 0.956 . S
H1235 C1222 0.961 . S
H1236 C1222 0.961 . S
H1237 C1223 0.958 . S
H1238 C1223 0.961 1_655 S
H1239 C1223 0.960 . S
C1240 C1241 1.391 . S
C1240 C1242 1.394 . S
C1240 H1256 0.931 . S
C1241 C1240 1.391 . S
C1241 C1245 1.376 . S
C1242 C1240 1.394 . S
C1242 C1243 1.369 . S
C1242 C1246 1.531 . S
C1243 C1242 1.369 . S
C1243 C1244 1.410 . S
C1243 C1251 1.503 . S
C1244 C1243 1.410 . S
C1244 C1245 1.392 . S
C1244 C1247 1.511 . S
C1245 C1241 1.376 . S
C1245 C1244 1.392 . S
C1245 H1257 0.929 . S
C1246 C1242 1.531 . S
C1246 H1258 0.960 . S
C1246 H1259 0.962 . S
C1246 H1260 0.960 . S
C1247 C1244 1.511 . S
C1247 H1261 0.961 . S
C1247 H1262 0.961 . S
C1247 H1263 0.961 . S
C1248 C1249 1.370 . S
C1248 C1250 1.363 . S
C1248 H1264 0.931 . S
C1249 C1248 1.370 . S
C1249 C1253 1.408 . S
C1250 C1248 1.363 . S
C1250 C1251 1.370 . S
C1250 C1254 1.524 . S
C1251 C1243 1.503 . S
C1251 C1250 1.370 . S
C1251 C1252 1.403 . S
C1252 C1251 1.403 . S
C1252 C1253 1.404 . S
C1252 C1255 1.539 . S
C1253 C1249 1.408 . S
C1253 C1252 1.404 . S
C1253 H1265 0.930 . S
C1254 C1250 1.524 . S
C1254 H1266 0.956 . S
C1254 H1267 0.961 . S
C1254 H1268 0.961 . S
C1255 C1252 1.539 . S
C1255 H1269 0.958 . S
C1255 H1270 0.961 . S
C1255 H1271 0.960 . S
H1256 C1240 0.931 . S
H1257 C1245 0.929 . S
H1258 C1246 0.960 . S
H1259 C1246 0.962 . S
H1260 C1246 0.960 . S
H1261 C1247 0.961 . S
H1262 C1247 0.961 . S
H1263 C1247 0.961 . S
H1264 C1248 0.931 . S
H1265 C1253 0.930 . S
H1266 C1254 0.956 . S
H1267 C1254 0.961 . S
H1268 C1254 0.961 . S
H1269 C1255 0.958 . S
H1270 C1255 0.961 . S
H1271 C1255 0.960 . S
C1272 C1273 1.391 . S
C1272 C1274 1.394 . S
C1272 H1288 0.931 . S
C1273 C1272 1.391 . S
C1273 C1277 1.376 . S
C1274 C1272 1.394 . S
C1274 C1275 1.369 . S
C1274 C1278 1.531 . S
C1275 C1274 1.369 . S
C1275 C1276 1.410 . S
C1275 C1283 1.503 . S
C1276 C1275 1.410 . S
C1276 C1277 1.392 . S
C1276 C1279 1.511 . S
C1277 C1273 1.376 . S
C1277 C1276 1.392 . S
C1277 H1289 0.929 . S
C1278 C1274 1.531 . S
C1278 H1290 0.960 . S
C1278 H1291 0.962 . S
C1278 H1292 0.960 . S
C1279 C1276 1.511 . S
C1279 H1293 0.961 . S
C1279 H1294 0.961 . S
C1279 H1295 0.961 . S
C1280 C1281 1.370 . S
C1280 C1282 1.363 . S
C1280 H1296 0.931 . S
C1281 C1280 1.370 . S
C1281 C1285 1.408 . S
C1282 C1280 1.363 . S
C1282 C1283 1.370 . S
C1282 C1286 1.524 . S
C1283 C1275 1.503 . S
C1283 C1282 1.370 . S
C1283 C1284 1.403 . S
C1284 C1283 1.403 . S
C1284 C1285 1.404 . S
C1284 C1287 1.539 1_655 S
C1285 C1281 1.408 . S
C1285 C1284 1.404 . S
C1285 H1297 0.930 1_655 S
C1286 C1282 1.524 . S
C1286 H1298 0.956 . S
C1286 H1299 0.961 . S
C1286 H1300 0.961 . S
C1287 C1284 1.539 1_455 S
C1287 H1301 0.958 . S
C1287 H1302 0.961 . S
C1287 H1303 0.960 . S
H1288 C1272 0.931 . S
H1289 C1277 0.929 . S
H1290 C1278 0.960 . S
H1291 C1278 0.962 . S
H1292 C1278 0.960 . S
H1293 C1279 0.961 . S
H1294 C1279 0.961 . S
H1295 C1279 0.961 . S
H1296 C1280 0.931 . S
H1297 C1285 0.930 1_455 S
H1298 C1286 0.956 . S
H1299 C1286 0.961 . S
H1300 C1286 0.961 . S
H1301 C1287 0.958 . S
H1302 C1287 0.961 . S
H1303 C1287 0.960 . S
C1304 C1305 1.391 . S
C1304 C1306 1.394 . S
C1304 H1320 0.931 . S
C1305 C1304 1.391 . S
C1305 C1309 1.376 . S
C1306 C1304 1.394 . S
C1306 C1307 1.369 . S
C1306 C1310 1.531 . S
C1307 C1306 1.369 . S
C1307 C1308 1.410 . S
C1307 C1315 1.503 . S
C1308 C1307 1.410 . S
C1308 C1309 1.392 . S
C1308 C1311 1.511 . S
C1309 C1305 1.376 . S
C1309 C1308 1.392 . S
C1309 H1321 0.929 . S
C1310 C1306 1.531 . S
C1310 H1322 0.960 . S
C1310 H1323 0.962 . S
C1310 H1324 0.960 . S
C1311 C1308 1.511 . S
C1311 H1325 0.961 . S
C1311 H1326 0.961 . S
C1311 H1327 0.961 . S
C1312 C1313 1.370 1_565 S
C1312 C1314 1.363 . S
C1312 H1328 0.931 . S
C1313 C1312 1.370 1_545 S
C1313 C1317 1.408 . S
C1314 C1312 1.363 . S
C1314 C1315 1.370 . S
C1314 C1318 1.524 . S
C1315 C1307 1.503 . S
C1315 C1314 1.370 . S
C1315 C1316 1.403 . S
C1316 C1315 1.403 . S
C1316 C1317 1.404 1_565 S
C1316 C1319 1.539 . S
C1317 C1313 1.408 . S
C1317 C1316 1.404 1_545 S
C1317 H1329 0.930 . S
C1318 C1314 1.524 . S
C1318 H1330 0.956 . S
C1318 H1331 0.961 . S
C1318 H1332 0.961 . S
C1319 C1316 1.539 . S
C1319 H1333 0.958 . S
C1319 H1334 0.961 1_565 S
C1319 H1335 0.960 . S
H1320 C1304 0.931 . S
H1321 C1309 0.929 . S
H1322 C1310 0.960 . S
H1323 C1310 0.962 . S
H1324 C1310 0.960 . S
H1325 C1311 0.961 . S
H1326 C1311 0.961 . S
H1327 C1311 0.961 . S
H1328 C1312 0.931 . S
H1329 C1317 0.930 . S
H1330 C1318 0.956 . S
H1331 C1318 0.961 . S
H1332 C1318 0.961 . S
H1333 C1319 0.958 . S
H1334 C1319 0.961 1_545 S
H1335 C1319 0.960 . S
C1336 C1337 1.391 . S
C1336 C1338 1.394 . S
C1336 H1352 0.931 . S
C1337 C1336 1.391 . S
C1337 C1341 1.376 . S
C1338 C1336 1.394 . S
C1338 C1339 1.369 . S
C1338 C1342 1.531 . S
C1339 C1338 1.369 . S
C1339 C1340 1.410 . S
C1339 C1347 1.503 . S
C1340 C1339 1.410 . S
C1340 C1341 1.392 . S
C1340 C1343 1.511 . S
C1341 C1337 1.376 . S
C1341 C1340 1.392 . S
C1341 H1353 0.929 . S
C1342 C1338 1.531 . S
C1342 H1354 0.960 . S
C1342 H1355 0.962 . S
C1342 H1356 0.960 . S
C1343 C1340 1.511 . S
C1343 H1357 0.961 . S
C1343 H1358 0.961 . S
C1343 H1359 0.961 . S
C1344 C1345 1.370 . S
C1344 C1346 1.363 . S
C1344 H1360 0.931 . S
C1345 C1344 1.370 . S
C1345 C1349 1.408 . S
C1346 C1344 1.363 . S
C1346 C1347 1.370 . S
C1346 C1350 1.524 . S
C1347 C1339 1.503 . S
C1347 C1346 1.370 . S
C1347 C1348 1.403 . S
C1348 C1347 1.403 . S
C1348 C1349 1.404 . S
C1348 C1351 1.539 . S
C1349 C1345 1.408 . S
C1349 C1348 1.404 . S
C1349 H1361 0.930 . S
C1350 C1346 1.524 . S
C1350 H1362 0.956 . S
C1350 H1363 0.961 . S
C1350 H1364 0.961 . S
C1351 C1348 1.539 . S
C1351 H1365 0.958 . S
C1351 H1366 0.961 . S
C1351 H1367 0.960 . S
H1352 C1336 0.931 . S
H1353 C1341 0.929 . S
H1354 C1342 0.960 . S
H1355 C1342 0.962 . S
H1356 C1342 0.960 . S
H1357 C1343 0.961 . S
H1358 C1343 0.961 . S
H1359 C1343 0.961 . S
H1360 C1344 0.931 . S
H1361 C1349 0.930 . S
H1362 C1350 0.956 . S
H1363 C1350 0.961 . S
H1364 C1350 0.961 . S
H1365 C1351 0.958 . S
H1366 C1351 0.961 . S
H1367 C1351 0.960 . S
C1368 C1369 1.391 . S
C1368 C1370 1.394 . S
C1368 H1384 0.931 . S
C1369 C1368 1.391 . S
C1369 C1373 1.376 . S
C1370 C1368 1.394 . S
C1370 C1371 1.369 . S
C1370 C1374 1.531 1_556 S
C1371 C1370 1.369 . S
C1371 C1372 1.410 . S
C1371 C1379 1.503 1_545 S
C1372 C1371 1.410 . S
C1372 C1373 1.392 . S
C1372 C1375 1.511 1_545 S
C1373 C1369 1.376 . S
C1373 C1372 1.392 . S
C1373 H1385 0.929 . S
C1374 C1370 1.531 1_554 S
C1374 H1386 0.960 . S
C1374 H1387 0.962 . S
C1374 H1388 0.960 . S
C1375 C1372 1.511 1_565 S
C1375 H1389 0.961 . S
C1375 H1390 0.961 . S
C1375 H1391 0.961 . S
C1376 C1377 1.370 . S
C1376 C1378 1.346 1_554 S
C1376 H1392 0.931 . S
C1377 C1376 1.370 . S
C1377 C1381 1.408 . S
C1378 C1376 1.346 1_556 S
C1378 C1379 1.379 . S
C1378 C1382 1.533 . S
C1379 C1371 1.503 1_565 S
C1379 C1378 1.379 . S
C1379 C1380 1.389 1_556 S
C1380 C1379 1.389 1_554 S
C1380 C1381 1.431 . S
C1380 C1383 1.526 1_564 S
C1381 C1377 1.408 . S
C1381 C1380 1.431 . S
C1381 H1393 0.930 . S
C1382 C1378 1.533 . S
C1382 H1394 0.956 1_556 S
C1382 H1395 0.961 . S
C1382 H1396 0.961 . S
C1383 C1380 1.526 1_546 S
C1383 H1397 0.958 1_556 S
C1383 H1398 0.973 . S
C1383 H1399 0.960 . S
H1384 C1368 0.931 . S
H1385 C1373 0.929 . S
H1386 C1374 0.960 . S
H1387 C1374 0.962 . S
H1388 C1374 0.960 . S
H1389 C1375 0.961 . S
H1390 C1375 0.961 . S
H1391 C1375 0.961 . S
H1392 C1376 0.931 . S
H1393 C1381 0.930 . S
H1394 C1382 0.956 1_554 S
H1395 C1382 0.961 . S
H1396 C1382 0.961 . S
H1397 C1383 0.958 1_554 S
H1398 C1383 0.973 . S
H1399 C1383 0.960 . S
C1400 C1401 1.391 . S
C1400 C1402 1.394 . S
C1400 H1416 0.931 . S
C1401 C1400 1.391 . S
C1401 C1405 1.376 . S
C1402 C1400 1.394 . S
C1402 C1403 1.369 . S
C1402 C1406 1.531 . S
C1403 C1402 1.369 . S
C1403 C1404 1.410 . S
C1403 C1411 1.503 . S
C1404 C1403 1.410 . S
C1404 C1405 1.392 . S
C1404 C1407 1.511 . S
C1405 C1401 1.376 . S
C1405 C1404 1.392 . S
C1405 H1417 0.929 . S
C1406 C1402 1.531 . S
C1406 H1418 0.960 . S
C1406 H1419 0.962 . S
C1406 H1420 0.960 . S
C1407 C1404 1.511 . S
C1407 H1421 0.961 . S
C1407 H1422 0.961 . S
C1407 H1423 0.961 . S
C1408 C1409 1.370 . S
C1408 C1410 1.363 . S
C1408 H1424 0.931 . S
C1409 C1408 1.370 . S
C1409 C1413 1.408 . S
C1410 C1408 1.363 . S
C1410 C1411 1.370 . S
C1410 C1414 1.524 . S
C1411 C1403 1.503 . S
C1411 C1410 1.370 . S
C1411 C1412 1.403 . S
C1412 C1411 1.403 . S
C1412 C1413 1.404 . S
C1412 C1415 1.539 . S
C1413 C1409 1.408 . S
C1413 C1412 1.404 . S
C1413 H1425 0.930 . S
C1414 C1410 1.524 . S
C1414 H1426 0.956 . S
C1414 H1427 0.961 . S
C1414 H1428 0.961 . S
C1415 C1412 1.539 . S
C1415 H1429 0.958 . S
C1415 H1430 0.961 . S
C1415 H1431 0.960 . S
H1416 C1400 0.931 . S
H1417 C1405 0.929 . S
H1418 C1406 0.960 . S
H1419 C1406 0.962 . S
H1420 C1406 0.960 . S
H1421 C1407 0.961 . S
H1422 C1407 0.961 . S
H1423 C1407 0.961 . S
H1424 C1408 0.931 . S
H1425 C1413 0.930 . S
H1426 C1414 0.956 . S
H1427 C1414 0.961 . S
H1428 C1414 0.961 . S
H1429 C1415 0.958 . S
H1430 C1415 0.961 . S
H1431 C1415 0.960 . S
C1432 C1433 1.391 . S
C1432 C1434 1.394 . S
C1432 H1448 0.931 . S
C1433 C1432 1.391 . S
C1433 C1437 1.376 . S
C1434 C1432 1.394 . S
C1434 C1435 1.369 . S
C1434 C1438 1.531 . S
C1435 C1434 1.369 . S
C1435 C1436 1.410 . S
C1435 C1443 1.503 . S
C1436 C1435 1.410 . S
C1436 C1437 1.392 . S
C1436 C1439 1.511 . S
C1437 C1433 1.376 . S
C1437 C1436 1.392 . S
C1437 H1449 0.929 . S
C1438 C1434 1.531 . S
C1438 H1450 0.960 . S
C1438 H1451 0.962 . S
C1438 H1452 0.960 . S
C1439 C1436 1.511 . S
C1439 H1453 0.961 . S
C1439 H1454 0.961 . S
C1439 H1455 0.961 . S
C1440 C1441 1.370 . S
C1440 C1442 1.363 . S
C1440 H1456 0.931 . S
C1441 C1440 1.370 . S
C1441 C1445 1.408 . S
C1442 C1440 1.363 . S
C1442 C1443 1.370 . S
C1442 C1446 1.524 . S
C1443 C1435 1.503 . S
C1443 C1442 1.370 . S
C1443 C1444 1.403 . S
C1444 C1443 1.403 . S
C1444 C1445 1.404 . S
C1444 C1447 1.539 . S
C1445 C1441 1.408 . S
C1445 C1444 1.404 . S
C1445 H1457 0.930 . S
C1446 C1442 1.524 . S
C1446 H1458 0.956 . S
C1446 H1459 0.961 . S
C1446 H1460 0.961 . S
C1447 C1444 1.539 . S
C1447 H1461 0.958 . S
C1447 H1462 0.961 . S
C1447 H1463 0.960 . S
H1448 C1432 0.931 . S
H1449 C1437 0.929 . S
H1450 C1438 0.960 . S
H1451 C1438 0.962 . S
H1452 C1438 0.960 . S
H1453 C1439 0.961 . S
H1454 C1439 0.961 . S
H1455 C1439 0.961 . S
H1456 C1440 0.931 . S
H1457 C1445 0.930 . S
H1458 C1446 0.956 . S
H1459 C1446 0.961 . S
H1460 C1446 0.961 . S
H1461 C1447 0.958 . S
H1462 C1447 0.961 . S
H1463 C1447 0.960 . S
C1464 C1465 1.391 . S
C1464 C1466 1.394 . S
C1464 H1480 0.931 . S
C1465 C1464 1.391 . S
C1465 C1469 1.376 . S
C1466 C1464 1.394 . S
C1466 C1467 1.369 . S
C1466 C1470 1.531 . S
C1467 C1466 1.369 . S
C1467 C1468 1.410 . S
C1467 C1475 1.503 . S
C1468 C1467 1.410 . S
C1468 C1469 1.392 . S
C1468 C1471 1.511 . S
C1469 C1465 1.376 . S
C1469 C1468 1.392 . S
C1469 H1481 0.929 . S
C1470 C1466 1.531 . S
C1470 H1482 0.960 . S
C1470 H1483 0.962 . S
C1470 H1484 0.960 . S
C1471 C1468 1.511 . S
C1471 H1485 0.961 . S
C1471 H1486 0.961 . S
C1471 H1487 0.961 . S
C1472 C1473 1.370 . S
C1472 C1474 1.363 . S
C1472 H1488 0.931 . S
C1473 C1472 1.370 . S
C1473 C1477 1.408 . S
C1474 C1472 1.363 . S
C1474 C1475 1.370 . S
C1474 C1478 1.524 . S
C1475 C1467 1.503 . S
C1475 C1474 1.370 . S
C1475 C1476 1.403 . S
C1476 C1475 1.403 . S
C1476 C1477 1.404 . S
C1476 C1479 1.539 . S
C1477 C1473 1.408 . S
C1477 C1476 1.404 . S
C1477 H1489 0.930 . S
C1478 C1474 1.524 . S
C1478 H1490 0.956 . S
C1478 H1491 0.961 . S
C1478 H1492 0.961 . S
C1479 C1476 1.539 . S
C1479 H1493 0.958 . S
C1479 H1494 0.961 . S
C1479 H1495 0.960 . S
H1480 C1464 0.931 . S
H1481 C1469 0.929 . S
H1482 C1470 0.960 . S
H1483 C1470 0.962 . S
H1484 C1470 0.960 . S
H1485 C1471 0.961 . S
H1486 C1471 0.961 . S
H1487 C1471 0.961 . S
H1488 C1472 0.931 . S
H1489 C1477 0.930 . S
H1490 C1478 0.956 . S
H1491 C1478 0.961 . S
H1492 C1478 0.961 . S
H1493 C1479 0.958 . S
H1494 C1479 0.961 . S
H1495 C1479 0.960 . S
C1496 C1497 1.391 1_545 S
C1496 C1498 1.394 . S
C1496 H1512 0.931 1_545 S
C1497 C1496 1.391 1_565 S
C1497 C1501 1.376 1_565 S
C1498 C1496 1.394 . S
C1498 C1499 1.369 . S
C1498 C1502 1.531 . S
C1499 C1498 1.369 . S
C1499 C1500 1.410 . S
C1499 C1507 1.503 . S
C1500 C1499 1.410 . S
C1500 C1501 1.392 . S
C1500 C1503 1.511 . S
C1501 C1497 1.376 1_545 S
C1501 C1500 1.392 . S
C1501 H1513 0.929 . S
C1502 C1498 1.531 . S
C1502 H1514 0.960 . S
C1502 H1515 0.962 . S
C1502 H1516 0.960 . S
C1503 C1500 1.511 . S
C1503 H1517 0.961 . S
C1503 H1518 0.961 . S
C1503 H1519 0.961 . S
C1504 C1505 1.370 . S
C1504 C1506 1.363 . S
C1504 H1520 0.931 . S
C1505 C1504 1.370 . S
C1505 C1509 1.408 . S
C1506 C1504 1.363 . S
C1506 C1507 1.370 . S
C1506 C1510 1.524 . S
C1507 C1499 1.503 . S
C1507 C1506 1.370 . S
C1507 C1508 1.403 . S
C1508 C1507 1.403 . S
C1508 C1509 1.404 . S
C1508 C1511 1.539 . S
C1509 C1505 1.408 . S
C1509 C1508 1.404 . S
C1509 H1521 0.930 . S
C1510 C1506 1.524 . S
C1510 H1522 0.956 . S
C1510 H1523 0.961 . S
C1510 H1524 0.961 . S
C1511 C1508 1.539 . S
C1511 H1525 0.958 . S
C1511 H1526 0.961 . S
C1511 H1527 0.960 . S
H1512 C1496 0.931 1_565 S
H1513 C1501 0.929 . S
H1514 C1502 0.960 . S
H1515 C1502 0.962 . S
H1516 C1502 0.960 . S
H1517 C1503 0.961 . S
H1518 C1503 0.961 . S
H1519 C1503 0.961 . S
H1520 C1504 0.931 . S
H1521 C1509 0.930 . S
H1522 C1510 0.956 . S
H1523 C1510 0.961 . S
H1524 C1510 0.961 . S
H1525 C1511 0.958 . S
H1526 C1511 0.961 . S
H1527 C1511 0.960 . S
C1528 C1529 1.391 . S
C1528 C1530 1.394 . S
C1528 H1544 0.931 . S
C1529 C1528 1.391 . S
C1529 C1533 1.376 . S
C1530 C1528 1.394 . S
C1530 C1531 1.369 . S
C1530 C1534 1.531 . S
C1531 C1530 1.369 . S
C1531 C1532 1.410 . S
C1531 C1539 1.503 . S
C1532 C1531 1.410 . S
C1532 C1533 1.392 . S
C1532 C1535 1.511 . S
C1533 C1529 1.376 . S
C1533 C1532 1.392 . S
C1533 H1545 0.929 . S
C1534 C1530 1.531 . S
C1534 H1546 0.960 . S
C1534 H1547 0.962 . S
C1534 H1548 0.960 . S
C1535 C1532 1.511 . S
C1535 H1549 0.961 . S
C1535 H1550 0.961 . S
C1535 H1551 0.961 . S
C1536 C1537 1.370 . S
C1536 C1538 1.363 . S
C1536 H1552 0.931 . S
C1537 C1536 1.370 . S
C1537 C1541 1.408 . S
C1538 C1536 1.363 . S
C1538 C1539 1.370 . S
C1538 C1542 1.524 . S
C1539 C1531 1.503 . S
C1539 C1538 1.370 . S
C1539 C1540 1.403 . S
C1540 C1539 1.403 . S
C1540 C1541 1.404 . S
C1540 C1543 1.539 . S
C1541 C1537 1.408 . S
C1541 C1540 1.404 . S
C1541 H1553 0.930 . S
C1542 C1538 1.524 . S
C1542 H1554 0.956 . S
C1542 H1555 0.961 . S
C1542 H1556 0.961 . S
C1543 C1540 1.539 . S
C1543 H1557 0.958 . S
C1543 H1558 0.961 . S
C1543 H1559 0.960 . S
H1544 C1528 0.931 . S
H1545 C1533 0.929 . S
H1546 C1534 0.960 . S
H1547 C1534 0.962 . S
H1548 C1534 0.960 . S
H1549 C1535 0.961 . S
H1550 C1535 0.961 . S
H1551 C1535 0.961 . S
H1552 C1536 0.931 . S
H1553 C1541 0.930 . S
H1554 C1542 0.956 . S
H1555 C1542 0.961 . S
H1556 C1542 0.961 . S
H1557 C1543 0.958 . S
H1558 C1543 0.961 . S
H1559 C1543 0.960 . S
C1560 C1561 1.391 . S
C1560 C1562 1.394 . S
C1560 H1576 0.931 . S
C1561 C1560 1.391 . S
C1561 C1565 1.376 . S
C1562 C1560 1.394 . S
C1562 C1563 1.369 . S
C1562 C1566 1.531 . S
C1563 C1562 1.369 . S
C1563 C1564 1.410 . S
C1563 C1571 1.503 . S
C1564 C1563 1.410 . S
C1564 C1565 1.392 . S
C1564 C1567 1.511 . S
C1565 C1561 1.376 . S
C1565 C1564 1.392 . S
C1565 H1577 0.929 . S
C1566 C1562 1.531 . S
C1566 H1578 0.960 . S
C1566 H1579 0.962 . S
C1566 H1580 0.960 . S
C1567 C1564 1.511 . S
C1567 H1581 0.961 . S
C1567 H1582 0.961 . S
C1567 H1583 0.961 . S
C1568 C1569 1.370 . S
C1568 C1570 1.363 . S
C1568 H1584 0.931 . S
C1569 C1568 1.370 . S
C1569 C1573 1.408 . S
C1570 C1568 1.363 . S
C1570 C1571 1.370 . S
C1570 C1574 1.524 . S
C1571 C1563 1.503 . S
C1571 C1570 1.370 . S
C1571 C1572 1.403 . S
C1572 C1571 1.403 . S
C1572 C1573 1.404 . S
C1572 C1575 1.539 . S
C1573 C1569 1.408 . S
C1573 C1572 1.404 . S
C1573 H1585 0.930 . S
C1574 C1570 1.524 . S
C1574 H1586 0.956 . S
C1574 H1587 0.961 . S
C1574 H1588 0.961 . S
C1575 C1572 1.539 . S
C1575 H1589 0.958 . S
C1575 H1590 0.961 . S
C1575 H1591 0.960 . S
H1576 C1560 0.931 . S
H1577 C1565 0.929 . S
H1578 C1566 0.960 . S
H1579 C1566 0.962 . S
H1580 C1566 0.960 . S
H1581 C1567 0.961 . S
H1582 C1567 0.961 . S
H1583 C1567 0.961 . S
H1584 C1568 0.931 . S
H1585 C1573 0.930 . S
H1586 C1574 0.956 . S
H1587 C1574 0.961 . S
H1588 C1574 0.961 . S
H1589 C1575 0.958 . S
H1590 C1575 0.961 . S
H1591 C1575 0.960 . S
C1592 C1593 1.391 . S
C1592 C1594 1.394 . S
C1592 H1608 0.931 . S
C1593 C1592 1.391 . S
C1593 C1597 1.376 . S
C1594 C1592 1.394 . S
C1594 C1595 1.369 . S
C1594 C1598 1.531 . S
C1595 C1594 1.369 . S
C1595 C1596 1.410 . S
C1595 C1603 1.503 . S
C1596 C1595 1.410 . S
C1596 C1597 1.392 . S
C1596 C1599 1.511 . S
C1597 C1593 1.376 . S
C1597 C1596 1.392 . S
C1597 H1609 0.929 . S
C1598 C1594 1.531 . S
C1598 H1610 0.960 . S
C1598 H1611 0.962 . S
C1598 H1612 0.960 . S
C1599 C1596 1.511 . S
C1599 H1613 0.961 . S
C1599 H1614 0.961 . S
C1599 H1615 0.961 . S
C1600 C1601 1.370 . S
C1600 C1602 1.363 . S
C1600 H1616 0.931 . S
C1601 C1600 1.370 . S
C1601 C1605 1.408 . S
C1602 C1600 1.363 . S
C1602 C1603 1.370 . S
C1602 C1606 1.524 . S
C1603 C1595 1.503 . S
C1603 C1602 1.370 . S
C1603 C1604 1.403 . S
C1604 C1603 1.403 . S
C1604 C1605 1.404 . S
C1604 C1607 1.539 . S
C1605 C1601 1.408 . S
C1605 C1604 1.404 . S
C1605 H1617 0.930 . S
C1606 C1602 1.524 . S
C1606 H1618 0.956 . S
C1606 H1619 0.961 . S
C1606 H1620 0.961 . S
C1607 C1604 1.539 . S
C1607 H1621 0.958 . S
C1607 H1622 0.961 . S
C1607 H1623 0.960 . S
H1608 C1592 0.931 . S
H1609 C1597 0.929 . S
H1610 C1598 0.960 . S
H1611 C1598 0.962 . S
H1612 C1598 0.960 . S
H1613 C1599 0.961 . S
H1614 C1599 0.961 . S
H1615 C1599 0.961 . S
H1616 C1600 0.931 . S
H1617 C1605 0.930 . S
H1618 C1606 0.956 . S
H1619 C1606 0.961 . S
H1620 C1606 0.961 . S
H1621 C1607 0.958 . S
H1622 C1607 0.961 . S
H1623 C1607 0.960 . S
C1624 C1625 1.391 . S
C1624 C1626 1.394 . S
C1624 H1640 0.931 . S
C1625 C1624 1.391 . S
C1625 C1629 1.376 . S
C1626 C1624 1.394 . S
C1626 C1627 1.369 . S
C1626 C1630 1.531 . S
C1627 C1626 1.369 . S
C1627 C1628 1.410 . S
C1627 C1635 1.503 . S
C1628 C1627 1.410 . S
C1628 C1629 1.392 . S
C1628 C1631 1.511 . S
C1629 C1625 1.376 . S
C1629 C1628 1.392 . S
C1629 H1641 0.929 . S
C1630 C1626 1.531 . S
C1630 H1642 0.960 . S
C1630 H1643 0.962 . S
C1630 H1644 0.960 . S
C1631 C1628 1.511 . S
C1631 H1645 0.961 . S
C1631 H1646 0.961 . S
C1631 H1647 0.961 . S
C1632 C1633 1.370 . S
C1632 C1634 1.363 . S
C1632 H1648 0.931 . S
C1633 C1632 1.370 . S
C1633 C1637 1.408 . S
C1634 C1632 1.363 . S
C1634 C1635 1.370 . S
C1634 C1638 1.524 . S
C1635 C1627 1.503 . S
C1635 C1634 1.370 . S
C1635 C1636 1.403 . S
C1636 C1635 1.403 . S
C1636 C1637 1.404 . S
C1636 C1639 1.539 . S
C1637 C1633 1.408 . S
C1637 C1636 1.404 . S
C1637 H1649 0.930 . S
C1638 C1634 1.524 . S
C1638 H1650 0.956 . S
C1638 H1651 0.961 . S
C1638 H1652 0.961 . S
C1639 C1636 1.539 . S
C1639 H1653 0.958 . S
C1639 H1654 0.961 . S
C1639 H1655 0.960 . S
H1640 C1624 0.931 . S
H1641 C1629 0.929 . S
H1642 C1630 0.960 . S
H1643 C1630 0.962 . S
H1644 C1630 0.960 . S
H1645 C1631 0.961 . S
H1646 C1631 0.961 . S
H1647 C1631 0.961 . S
H1648 C1632 0.931 . S
H1649 C1637 0.930 . S
H1650 C1638 0.956 . S
H1651 C1638 0.961 . S
H1652 C1638 0.961 . S
H1653 C1639 0.958 . S
H1654 C1639 0.961 . S
H1655 C1639 0.960 . S
C1656 C1657 1.391 . S
C1656 C1658 1.394 . S
C1656 H1672 0.931 . S
C1657 C1656 1.391 . S
C1657 C1661 1.376 . S
C1658 C1656 1.394 . S
C1658 C1659 1.369 . S
C1658 C1662 1.531 . S
C1659 C1658 1.369 . S
C1659 C1660 1.410 . S
C1659 C1667 1.503 . S
C1660 C1659 1.410 . S
C1660 C1661 1.392 . S
C1660 C1663 1.511 . S
C1661 C1657 1.376 . S
C1661 C1660 1.392 . S
C1661 H1673 0.929 . S
C1662 C1658 1.531 . S
C1662 H1674 0.960 . S
C1662 H1675 0.962 . S
C1662 H1676 0.960 . S
C1663 C1660 1.511 . S
C1663 H1677 0.961 . S
C1663 H1678 0.961 . S
C1663 H1679 0.961 . S
C1664 C1665 1.370 . S
C1664 C1666 1.363 . S
C1664 H1680 0.931 . S
C1665 C1664 1.370 . S
C1665 C1669 1.408 . S
C1666 C1664 1.363 . S
C1666 C1667 1.370 . S
C1666 C1670 1.524 . S
C1667 C1659 1.503 . S
C1667 C1666 1.370 . S
C1667 C1668 1.403 . S
C1668 C1667 1.403 . S
C1668 C1669 1.404 . S
C1668 C1671 1.539 . S
C1669 C1665 1.408 . S
C1669 C1668 1.404 . S
C1669 H1681 0.930 . S
C1670 C1666 1.524 . S
C1670 H1682 0.956 . S
C1670 H1683 0.961 . S
C1670 H1684 0.961 . S
C1671 C1668 1.539 . S
C1671 H1685 0.958 . S
C1671 H1686 0.961 . S
C1671 H1687 0.960 . S
H1672 C1656 0.931 . S
H1673 C1661 0.929 . S
H1674 C1662 0.960 . S
H1675 C1662 0.962 . S
H1676 C1662 0.960 . S
H1677 C1663 0.961 . S
H1678 C1663 0.961 . S
H1679 C1663 0.961 . S
H1680 C1664 0.931 . S
H1681 C1669 0.930 . S
H1682 C1670 0.956 . S
H1683 C1670 0.961 . S
H1684 C1670 0.961 . S
H1685 C1671 0.958 . S
H1686 C1671 0.961 . S
H1687 C1671 0.960 . S
C1688 C1689 1.391 . S
C1688 C1690 1.394 . S
C1688 H1704 0.931 . S
C1689 C1688 1.391 . S
C1689 C1693 1.376 . S
C1690 C1688 1.394 . S
C1690 C1691 1.369 . S
C1690 C1694 1.531 . S
C1691 C1690 1.369 . S
C1691 C1692 1.410 . S
C1691 C1699 1.503 . S
C1692 C1691 1.410 . S
C1692 C1693 1.392 . S
C1692 C1695 1.511 . S
C1693 C1689 1.376 . S
C1693 C1692 1.392 . S
C1693 H1705 0.929 . S
C1694 C1690 1.531 . S
C1694 H1706 0.960 . S
C1694 H1707 0.962 . S
C1694 H1708 0.960 . S
C1695 C1692 1.511 . S
C1695 H1709 0.961 . S
C1695 H1710 0.961 . S
C1695 H1711 0.961 . S
C1696 C1697 1.370 . S
C1696 C1698 1.363 . S
C1696 H1712 0.931 . S
C1697 C1696 1.370 . S
C1697 C1701 1.408 . S
C1698 C1696 1.363 . S
C1698 C1699 1.370 . S
C1698 C1702 1.524 . S
C1699 C1691 1.503 . S
C1699 C1698 1.370 . S
C1699 C1700 1.403 . S
C1700 C1699 1.403 . S
C1700 C1701 1.404 . S
C1700 C1703 1.539 . S
C1701 C1697 1.408 . S
C1701 C1700 1.404 . S
C1701 H1713 0.930 . S
C1702 C1698 1.524 . S
C1702 H1714 0.956 . S
C1702 H1715 0.961 . S
C1702 H1716 0.961 . S
C1703 C1700 1.539 . S
C1703 H1717 0.958 . S
C1703 H1718 0.961 . S
C1703 H1719 0.960 . S
H1704 C1688 0.931 . S
H1705 C1693 0.929 . S
H1706 C1694 0.960 . S
H1707 C1694 0.962 . S
H1708 C1694 0.960 . S
H1709 C1695 0.961 . S
H1710 C1695 0.961 . S
H1711 C1695 0.961 . S
H1712 C1696 0.931 . S
H1713 C1701 0.930 . S
H1714 C1702 0.956 . S
H1715 C1702 0.961 . S
H1716 C1702 0.961 . S
H1717 C1703 0.958 . S
H1718 C1703 0.961 . S
H1719 C1703 0.960 . S
C1720 C1721 1.391 . S
C1720 C1722 1.394 . S
C1720 H1736 0.931 . S
C1721 C1720 1.391 . S
C1721 C1725 1.376 . S
C1722 C1720 1.394 . S
C1722 C1723 1.369 1_455 S
C1722 C1726 1.531 . S
C1723 C1722 1.369 1_655 S
C1723 C1724 1.410 . S
C1723 C1731 1.503 . S
C1724 C1723 1.410 . S
C1724 C1725 1.392 1_655 S
C1724 C1727 1.511 . S
C1725 C1721 1.376 . S
C1725 C1724 1.392 1_455 S
C1725 H1737 0.929 . S
C1726 C1722 1.531 . S
C1726 H1738 0.960 . S
C1726 H1739 0.962 . S
C1726 H1740 0.960 . S
C1727 C1724 1.511 . S
C1727 H1741 0.961 . S
C1727 H1742 0.961 . S
C1727 H1743 0.961 . S
C1728 C1729 1.370 . S
C1728 C1730 1.363 . S
C1728 H1744 0.931 . S
C1729 C1728 1.370 . S
C1729 C1733 1.408 . S
C1730 C1728 1.363 . S
C1730 C1731 1.370 . S
C1730 C1734 1.524 . S
C1731 C1723 1.503 . S
C1731 C1730 1.370 . S
C1731 C1732 1.403 . S
C1732 C1731 1.403 . S
C1732 C1733 1.404 . S
C1732 C1735 1.539 . S
C1733 C1729 1.408 . S
C1733 C1732 1.404 . S
C1733 H1745 0.930 . S
C1734 C1730 1.524 . S
C1734 H1746 0.956 . S
C1734 H1747 0.961 . S
C1734 H1748 0.961 . S
C1735 C1732 1.539 . S
C1735 H1749 0.958 . S
C1735 H1750 0.961 . S
C1735 H1751 0.960 . S
H1736 C1720 0.931 . S
H1737 C1725 0.929 . S
H1738 C1726 0.960 . S
H1739 C1726 0.962 . S
H1740 C1726 0.960 . S
H1741 C1727 0.961 . S
H1742 C1727 0.961 . S
H1743 C1727 0.961 . S
H1744 C1728 0.931 . S
H1745 C1733 0.930 . S
H1746 C1734 0.956 . S
H1747 C1734 0.961 . S
H1748 C1734 0.961 . S
H1749 C1735 0.958 . S
H1750 C1735 0.961 . S
H1751 C1735 0.960 . S
C1752 C1753 1.391 . S
C1752 C1754 1.394 . S
C1752 H1768 0.931 . S
C1753 C1752 1.391 . S
C1753 C1757 1.376 . S
C1754 C1752 1.394 . S
C1754 C1755 1.369 . S
C1754 C1758 1.531 . S
C1755 C1754 1.369 . S
C1755 C1756 1.410 . S
C1755 C1763 1.503 . S
C1756 C1755 1.410 . S
C1756 C1757 1.392 . S
C1756 C1759 1.511 . S
C1757 C1753 1.376 . S
C1757 C1756 1.392 . S
C1757 H1769 0.929 . S
C1758 C1754 1.531 . S
C1758 H1770 0.960 . S
C1758 H1771 0.962 . S
C1758 H1772 0.960 . S
C1759 C1756 1.511 . S
C1759 H1773 0.961 . S
C1759 H1774 0.961 . S
C1759 H1775 0.961 . S
C1760 C1761 1.370 . S
C1760 C1762 1.363 . S
C1760 H1776 0.931 . S
C1761 C1760 1.370 . S
C1761 C1765 1.408 . S
C1762 C1760 1.363 . S
C1762 C1763 1.370 . S
C1762 C1766 1.524 . S
C1763 C1755 1.503 . S
C1763 C1762 1.370 . S
C1763 C1764 1.403 . S
C1764 C1763 1.403 . S
C1764 C1765 1.404 . S
C1764 C1767 1.539 . S
C1765 C1761 1.408 . S
C1765 C1764 1.404 . S
C1765 H1777 0.930 . S
C1766 C1762 1.524 . S
C1766 H1778 0.956 . S
C1766 H1779 0.961 . S
C1766 H1780 0.961 . S
C1767 C1764 1.539 . S
C1767 H1781 0.958 . S
C1767 H1782 0.961 . S
C1767 H1783 0.960 . S
H1768 C1752 0.931 . S
H1769 C1757 0.929 . S
H1770 C1758 0.960 . S
H1771 C1758 0.962 . S
H1772 C1758 0.960 . S
H1773 C1759 0.961 . S
H1774 C1759 0.961 . S
H1775 C1759 0.961 . S
H1776 C1760 0.931 . S
H1777 C1765 0.930 . S
H1778 C1766 0.956 . S
H1779 C1766 0.961 . S
H1780 C1766 0.961 . S
H1781 C1767 0.958 . S
H1782 C1767 0.961 . S
H1783 C1767 0.960 . S
C1784 C1785 1.391 . S
C1784 C1786 1.394 . S
C1784 H1800 0.931 . S
C1785 C1784 1.391 . S
C1785 C1789 1.376 . S
C1786 C1784 1.394 . S
C1786 C1787 1.382 . S
C1786 C1790 1.531 . S
C1787 C1786 1.382 . S
C1787 C1788 1.408 1_655 S
C1787 C1795 1.491 1_655 S
C1788 C1787 1.408 1_455 S
C1788 C1789 1.392 1_455 S
C1788 C1791 1.511 . S
C1789 C1785 1.376 . S
C1789 C1788 1.392 1_655 S
C1789 H1801 0.929 . S
C1790 C1786 1.531 . S
C1790 H1802 0.960 . S
C1790 H1803 0.962 . S
C1790 H1804 0.960 . S
C1791 C1788 1.511 . S
C1791 H1805 0.961 . S
C1791 H1806 0.961 . S
C1791 H1807 0.961 . S
C1792 C1793 1.370 . S
C1792 C1794 1.363 . S
C1792 H1808 0.931 . S
C1793 C1792 1.370 . S
C1793 C1797 1.408 . S
C1794 C1792 1.363 . S
C1794 C1795 1.370 . S
C1794 C1798 1.524 . S
C1795 C1787 1.491 1_455 S
C1795 C1794 1.370 . S
C1795 C1796 1.403 . S
C1796 C1795 1.403 . S
C1796 C1797 1.404 . S
C1796 C1799 1.539 . S
C1797 C1793 1.408 . S
C1797 C1796 1.404 . S
C1797 H1809 0.930 . S
C1798 C1794 1.524 . S
C1798 H1810 0.956 1_455 S
C1798 H1811 0.961 . S
C1798 H1812 0.961 . S
C1799 C1796 1.539 . S
C1799 H1813 0.958 . S
C1799 H1814 0.961 . S
C1799 H1815 0.960 . S
H1800 C1784 0.931 . S
H1801 C1789 0.929 . S
H1802 C1790 0.960 . S
H1803 C1790 0.962 . S
H1804 C1790 0.960 . S
H1805 C1791 0.961 . S
H1806 C1791 0.961 . S
H1807 C1791 0.961 . S
H1808 C1792 0.931 . S
H1809 C1797 0.930 . S
H1810 C1798 0.956 1_655 S
H1811 C1798 0.961 . S
H1812 C1798 0.961 . S
H1813 C1799 0.958 . S
H1814 C1799 0.961 . S
H1815 C1799 0.960 . S
C1816 C1817 1.391 . S
C1816 C1818 1.394 . S
C1816 H1832 0.931 . S
C1817 C1816 1.391 . S
C1817 C1821 1.376 . S
C1818 C1816 1.394 . S
C1818 C1819 1.369 . S
C1818 C1822 1.531 . S
C1819 C1818 1.369 . S
C1819 C1820 1.410 . S
C1819 C1827 1.503 . S
C1820 C1819 1.410 . S
C1820 C1821 1.392 . S
C1820 C1823 1.511 . S
C1821 C1817 1.376 . S
C1821 C1820 1.392 . S
C1821 H1833 0.929 . S
C1822 C1818 1.531 . S
C1822 H1834 0.960 . S
C1822 H1835 0.962 . S
C1822 H1836 0.960 . S
C1823 C1820 1.511 . S
C1823 H1837 0.961 . S
C1823 H1838 0.961 . S
C1823 H1839 0.961 . S
C1824 C1825 1.370 . S
C1824 C1826 1.363 . S
C1824 H1840 0.931 . S
C1825 C1824 1.370 . S
C1825 C1829 1.408 . S
C1826 C1824 1.363 . S
C1826 C1827 1.370 . S
C1826 C1830 1.524 . S
C1827 C1819 1.503 . S
C1827 C1826 1.370 . S
C1827 C1828 1.403 . S
C1828 C1827 1.403 . S
C1828 C1829 1.404 . S
C1828 C1831 1.539 . S
C1829 C1825 1.408 . S
C1829 C1828 1.404 . S
C1829 H1841 0.930 . S
C1830 C1826 1.524 . S
C1830 H1842 0.956 . S
C1830 H1843 0.961 . S
C1830 H1844 0.961 . S
C1831 C1828 1.539 . S
C1831 H1845 0.958 . S
C1831 H1846 0.961 . S
C1831 H1847 0.960 . S
H1832 C1816 0.931 . S
H1833 C1821 0.929 . S
H1834 C1822 0.960 . S
H1835 C1822 0.962 . S
H1836 C1822 0.960 . S
H1837 C1823 0.961 . S
H1838 C1823 0.961 . S
H1839 C1823 0.961 . S
H1840 C1824 0.931 . S
H1841 C1829 0.930 . S
H1842 C1830 0.956 . S
H1843 C1830 0.961 . S
H1844 C1830 0.961 . S
H1845 C1831 0.958 . S
H1846 C1831 0.961 . S
H1847 C1831 0.960 . S
C1848 C1849 1.391 . S
C1848 C1850 1.394 . S
C1848 H1864 0.931 . S
C1849 C1848 1.391 . S
C1849 C1853 1.376 1_554 S
C1850 C1848 1.394 . S
C1850 C1851 1.369 1_554 S
C1850 C1854 1.531 . S
C1851 C1850 1.369 1_556 S
C1851 C1852 1.410 . S
C1851 C1859 1.503 . S
C1852 C1851 1.410 . S
C1852 C1853 1.392 . S
C1852 C1855 1.511 . S
C1853 C1849 1.376 1_556 S
C1853 C1852 1.392 . S
C1853 H1865 0.929 . S
C1854 C1850 1.531 . S
C1854 H1866 0.960 . S
C1854 H1867 0.962 . S
C1854 H1868 0.960 . S
C1855 C1852 1.511 . S
C1855 H1869 0.961 . S
C1855 H1870 0.961 . S
C1855 H1871 0.961 . S
C1856 C1857 1.370 . S
C1856 C1858 1.363 . S
C1856 H1872 0.931 . S
C1857 C1856 1.370 . S
C1857 C1861 1.408 . S
C1858 C1856 1.363 . S
C1858 C1859 1.370 . S
C1858 C1862 1.524 . S
C1859 C1851 1.503 . S
C1859 C1858 1.370 . S
C1859 C1860 1.403 . S
C1860 C1859 1.403 . S
C1860 C1861 1.404 . S
C1860 C1863 1.539 . S
C1861 C1857 1.408 . S
C1861 C1860 1.404 . S
C1861 H1873 0.930 . S
C1862 C1858 1.524 . S
C1862 H1874 0.956 . S
C1862 H1875 0.961 . S
C1862 H1876 0.961 . S
C1863 C1860 1.539 . S
C1863 H1877 0.958 . S
C1863 H1878 0.961 . S
C1863 H1879 0.960 . S
H1864 C1848 0.931 . S
H1865 C1853 0.929 . S
H1866 C1854 0.960 . S
H1867 C1854 0.962 . S
H1868 C1854 0.960 . S
H1869 C1855 0.961 . S
H1870 C1855 0.961 . S
H1871 C1855 0.961 . S
H1872 C1856 0.931 . S
H1873 C1861 0.930 . S
H1874 C1862 0.956 . S
H1875 C1862 0.961 . S
H1876 C1862 0.961 . S
H1877 C1863 0.958 . S
H1878 C1863 0.961 . S
H1879 C1863 0.960 . S
C1880 C1881 1.391 . S
C1880 C1882 1.394 . S
C1880 H1896 0.931 . S
C1881 C1880 1.391 . S
C1881 C1885 1.376 . S
C1882 C1880 1.394 . S
C1882 C1883 1.369 . S
C1882 C1886 1.531 . S
C1883 C1882 1.369 . S
C1883 C1884 1.410 . S
C1883 C1891 1.503 . S
C1884 C1883 1.410 . S
C1884 C1885 1.392 . S
C1884 C1887 1.511 . S
C1885 C1881 1.376 . S
C1885 C1884 1.392 . S
C1885 H1897 0.929 . S
C1886 C1882 1.531 . S
C1886 H1898 0.960 . S
C1886 H1899 0.962 . S
C1886 H1900 0.960 . S
C1887 C1884 1.511 . S
C1887 H1901 0.961 . S
C1887 H1902 0.961 . S
C1887 H1903 0.961 . S
C1888 C1889 1.370 . S
C1888 C1890 1.363 . S
C1888 H1904 0.931 . S
C1889 C1888 1.370 . S
C1889 C1893 1.408 . S
C1890 C1888 1.363 . S
C1890 C1891 1.370 . S
C1890 C1894 1.524 . S
C1891 C1883 1.503 . S
C1891 C1890 1.370 . S
C1891 C1892 1.403 . S
C1892 C1891 1.403 . S
C1892 C1893 1.404 . S
C1892 C1895 1.539 . S
C1893 C1889 1.408 . S
C1893 C1892 1.404 . S
C1893 H1905 0.930 . S
C1894 C1890 1.524 . S
C1894 H1906 0.956 . S
C1894 H1907 0.961 . S
C1894 H1908 0.961 . S
C1895 C1892 1.539 . S
C1895 H1909 0.958 . S
C1895 H1910 0.961 . S
C1895 H1911 0.960 . S
H1896 C1880 0.931 . S
H1897 C1885 0.929 . S
H1898 C1886 0.960 . S
H1899 C1886 0.962 . S
H1900 C1886 0.960 . S
H1901 C1887 0.961 . S
H1902 C1887 0.961 . S
H1903 C1887 0.961 . S
H1904 C1888 0.931 . S
H1905 C1893 0.930 . S
H1906 C1894 0.956 . S
H1907 C1894 0.961 . S
H1908 C1894 0.961 . S
H1909 C1895 0.958 . S
H1910 C1895 0.961 . S
H1911 C1895 0.960 . S
C1912 C1913 1.391 . S
C1912 C1914 1.394 . S
C1912 H1928 0.931 . S
C1913 C1912 1.391 . S
C1913 C1917 1.376 . S
C1914 C1912 1.394 . S
C1914 C1915 1.369 . S
C1914 C1918 1.531 . S
C1915 C1914 1.369 . S
C1915 C1916 1.410 . S
C1915 C1923 1.503 1_554 S
C1916 C1915 1.410 . S
C1916 C1917 1.392 . S
C1916 C1919 1.511 1_554 S
C1917 C1913 1.376 . S
C1917 C1916 1.392 . S
C1917 H1929 0.929 . S
C1918 C1914 1.531 . S
C1918 H1930 0.960 . S
C1918 H1931 0.962 . S
C1918 H1932 0.960 . S
C1919 C1916 1.511 1_556 S
C1919 H1933 0.961 . S
C1919 H1934 0.961 . S
C1919 H1935 0.961 . S
C1920 C1921 1.370 . S
C1920 C1922 1.363 . S
C1920 H1936 0.931 . S
C1921 C1920 1.370 . S
C1921 C1925 1.408 . S
C1922 C1920 1.363 . S
C1922 C1923 1.370 . S
C1922 C1926 1.524 . S
C1923 C1915 1.503 1_556 S
C1923 C1922 1.370 . S
C1923 C1924 1.403 . S
C1924 C1923 1.403 . S
C1924 C1925 1.404 . S
C1924 C1927 1.539 1_556 S
C1925 C1921 1.408 . S
C1925 C1924 1.404 . S
C1925 H1937 0.930 . S
C1926 C1922 1.524 . S
C1926 H1938 0.956 . S
C1926 H1939 0.961 . S
C1926 H1940 0.961 . S
C1927 C1924 1.539 1_554 S
C1927 H1941 0.958 . S
C1927 H1942 0.961 1_554 S
C1927 H1943 0.960 . S
H1928 C1912 0.931 . S
H1929 C1917 0.929 . S
H1930 C1918 0.960 . S
H1931 C1918 0.962 . S
H1932 C1918 0.960 . S
H1933 C1919 0.961 . S
H1934 C1919 0.961 . S
H1935 C1919 0.961 . S
H1936 C1920 0.931 . S
H1937 C1925 0.930 . S
H1938 C1926 0.956 . S
H1939 C1926 0.961 . S
H1940 C1926 0.961 . S
H1941 C1927 0.958 . S
H1942 C1927 0.961 1_556 S
H1943 C1927 0.960 . S
C1944 C1945 1.391 . S
C1944 C1946 1.394 . S
C1944 H1960 0.931 . S
C1945 C1944 1.391 . S
C1945 C1949 1.376 . S
C1946 C1944 1.394 . S
C1946 C1947 1.369 . S
C1946 C1950 1.531 . S
C1947 C1946 1.369 . S
C1947 C1948 1.410 . S
C1947 C1955 1.503 . S
C1948 C1947 1.410 . S
C1948 C1949 1.392 . S
C1948 C1951 1.511 . S
C1949 C1945 1.376 . S
C1949 C1948 1.392 . S
C1949 H1961 0.929 . S
C1950 C1946 1.531 . S
C1950 H1962 0.960 . S
C1950 H1963 0.962 . S
C1950 H1964 0.960 . S
C1951 C1948 1.511 . S
C1951 H1965 0.961 . S
C1951 H1966 0.961 . S
C1951 H1967 0.961 . S
C1952 C1953 1.370 . S
C1952 C1954 1.363 . S
C1952 H1968 0.931 . S
C1953 C1952 1.370 . S
C1953 C1957 1.408 . S
C1954 C1952 1.363 . S
C1954 C1955 1.370 . S
C1954 C1958 1.524 . S
C1955 C1947 1.503 . S
C1955 C1954 1.370 . S
C1955 C1956 1.403 . S
C1956 C1955 1.403 . S
C1956 C1957 1.404 . S
C1956 C1959 1.539 . S
C1957 C1953 1.408 . S
C1957 C1956 1.404 . S
C1957 H1969 0.930 . S
C1958 C1954 1.524 . S
C1958 H1970 0.956 . S
C1958 H1971 0.961 . S
C1958 H1972 0.961 . S
C1959 C1956 1.539 . S
C1959 H1973 0.958 . S
C1959 H1974 0.961 . S
C1959 H1975 0.960 . S
H1960 C1944 0.931 . S
H1961 C1949 0.929 . S
H1962 C1950 0.960 . S
H1963 C1950 0.962 . S
H1964 C1950 0.960 . S
H1965 C1951 0.961 . S
H1966 C1951 0.961 . S
H1967 C1951 0.961 . S
H1968 C1952 0.931 . S
H1969 C1957 0.930 . S
H1970 C1958 0.956 . S
H1971 C1958 0.961 . S
H1972 C1958 0.961 . S
H1973 C1959 0.958 . S
H1974 C1959 0.961 . S
H1975 C1959 0.960 . S
C1976 C1977 1.391 . S
C1976 C1978 1.394 1_556 S
C1976 H1992 0.931 . S
C1977 C1976 1.391 . S
C1977 C1981 1.376 . S
C1978 C1976 1.394 1_554 S
C1978 C1979 1.369 . S
C1978 C1982 1.531 . S
C1979 C1978 1.369 . S
C1979 C1980 1.410 . S
C1979 C1987 1.503 . S
C1980 C1979 1.410 . S
C1980 C1981 1.392 1_554 S
C1980 C1983 1.511 . S
C1981 C1977 1.376 . S
C1981 C1980 1.392 1_556 S
C1981 H1993 0.929 . S
C1982 C1978 1.531 . S
C1982 H1994 0.960 . S
C1982 H1995 0.962 . S
C1982 H1996 0.995 . S
C1983 C1980 1.511 . S
C1983 H1997 0.961 . S
C1983 H1998 0.961 . S
C1983 H1999 0.961 . S
C1984 C1985 1.370 . S
C1984 C1986 1.363 . S
C1984 H2000 0.931 . S
C1985 C1984 1.370 . S
C1985 C1989 1.408 . S
C1986 C1984 1.363 . S
C1986 C1987 1.370 . S
C1986 C1990 1.524 . S
C1987 C1979 1.503 . S
C1987 C1986 1.370 . S
C1987 C1988 1.403 . S
C1988 C1987 1.403 . S
C1988 C1989 1.404 . S
C1988 C1991 1.539 . S
C1989 C1985 1.408 . S
C1989 C1988 1.404 . S
C1989 H2001 0.930 . S
C1990 C1986 1.524 . S
C1990 H2002 0.956 . S
C1990 H2003 0.961 . S
C1990 H2004 0.961 . S
C1991 C1988 1.539 . S
C1991 H2005 0.958 . S
C1991 H2006 0.961 . S
C1991 H2007 0.960 . S
H1992 C1976 0.931 . S
H1993 C1981 0.929 . S
H1994 C1982 0.960 . S
H1995 C1982 0.962 . S
H1996 C1982 0.995 . S
H1997 C1983 0.961 . S
H1998 C1983 0.961 . S
H1999 C1983 0.961 . S
H2000 C1984 0.931 . S
H2001 C1989 0.930 . S
H2002 C1990 0.956 . S
H2003 C1990 0.961 . S
H2004 C1990 0.961 . S
H2005 C1991 0.958 . S
H2006 C1991 0.961 . S
H2007 C1991 0.960 . S
C2008 C2009 1.391 . S
C2008 C2010 1.394 . S
C2008 H2024 0.931 . S
C2009 C2008 1.391 . S
C2009 C2013 1.376 . S
C2010 C2008 1.394 . S
C2010 C2011 1.369 . S
C2010 C2014 1.531 . S
C2011 C2010 1.369 . S
C2011 C2012 1.410 . S
C2011 C2019 1.503 . S
C2012 C2011 1.410 . S
C2012 C2013 1.392 . S
C2012 C2015 1.511 . S
C2013 C2009 1.376 . S
C2013 C2012 1.392 . S
C2013 H2025 0.929 . S
C2014 C2010 1.531 . S
C2014 H2026 0.960 . S
C2014 H2027 0.962 . S
C2014 H2028 0.960 . S
C2015 C2012 1.511 . S
C2015 H2029 0.961 . S
C2015 H2030 0.961 . S
C2015 H2031 0.961 . S
C2016 C2017 1.370 . S
C2016 C2018 1.363 . S
C2016 H2032 0.931 . S
C2017 C2016 1.370 . S
C2017 C2021 1.408 . S
C2018 C2016 1.363 . S
C2018 C2019 1.370 . S
C2018 C2022 1.524 . S
C2019 C2011 1.503 . S
C2019 C2018 1.370 . S
C2019 C2020 1.403 . S
C2020 C2019 1.403 . S
C2020 C2021 1.404 . S
C2020 C2023 1.539 . S
C2021 C2017 1.408 . S
C2021 C2020 1.404 . S
C2021 H2033 0.930 . S
C2022 C2018 1.524 . S
C2022 H2034 0.956 . S
C2022 H2035 0.961 . S
C2022 H2036 0.961 . S
C2023 C2020 1.539 . S
C2023 H2037 0.958 . S
C2023 H2038 0.961 . S
C2023 H2039 0.960 . S
H2024 C2008 0.931 . S
H2025 C2013 0.929 . S
H2026 C2014 0.960 . S
H2027 C2014 0.962 . S
H2028 C2014 0.960 . S
H2029 C2015 0.961 . S
H2030 C2015 0.961 . S
H2031 C2015 0.961 . S
H2032 C2016 0.931 . S
H2033 C2021 0.930 . S
H2034 C2022 0.956 . S
H2035 C2022 0.961 . S
H2036 C2022 0.961 . S
H2037 C2023 0.958 . S
H2038 C2023 0.961 . S
H2039 C2023 0.960 . S
C2040 C2041 1.391 1_556 S
C2040 C2042 1.394 1_556 S
C2040 H2056 0.931 . S
C2041 C2040 1.391 1_554 S
C2041 C2045 1.376 . S
C2042 C2040 1.394 1_554 S
C2042 C2043 1.369 . S
C2042 C2046 1.531 . S
C2043 C2042 1.369 . S
C2043 C2044 1.410 . S
C2043 C2051 1.503 . S
C2044 C2043 1.410 . S
C2044 C2045 1.392 . S
C2044 C2047 1.511 . S
C2045 C2041 1.376 . S
C2045 C2044 1.392 . S
C2045 H2057 0.929 . S
C2046 C2042 1.531 . S
C2046 H2058 0.960 . S
C2046 H2059 0.962 . S
C2046 H2060 0.960 1_554 S
C2047 C2044 1.511 . S
C2047 H2061 0.961 . S
C2047 H2062 0.961 . S
C2047 H2063 0.961 . S
C2048 C2049 1.370 . S
C2048 C2050 1.363 . S
C2048 H2064 0.931 . S
C2049 C2048 1.370 . S
C2049 C2053 1.408 . S
C2050 C2048 1.363 . S
C2050 C2051 1.370 . S
C2050 C2054 1.524 . S
C2051 C2043 1.503 . S
C2051 C2050 1.370 . S
C2051 C2052 1.403 . S
C2052 C2051 1.403 . S
C2052 C2053 1.404 . S
C2052 C2055 1.539 . S
C2053 C2049 1.408 . S
C2053 C2052 1.404 . S
C2053 H2065 0.930 . S
C2054 C2050 1.524 . S
C2054 H2066 0.956 . S
C2054 H2067 0.961 . S
C2054 H2068 0.961 . S
C2055 C2052 1.539 . S
C2055 H2069 0.958 . S
C2055 H2070 0.961 . S
C2055 H2071 0.960 . S
H2056 C2040 0.931 . S
H2057 C2045 0.929 . S
H2058 C2046 0.960 . S
H2059 C2046 0.962 . S
H2060 C2046 0.960 1_556 S
H2061 C2047 0.961 . S
H2062 C2047 0.961 . S
H2063 C2047 0.961 . S
H2064 C2048 0.931 . S
H2065 C2053 0.930 . S
H2066 C2054 0.956 . S
H2067 C2054 0.961 . S
H2068 C2054 0.961 . S
H2069 C2055 0.958 . S
H2070 C2055 0.961 . S
H2071 C2055 0.960 . S
C2072 C2073 1.391 . S
C2072 C2074 1.394 . S
C2072 H2088 0.931 . S
C2073 C2072 1.391 . S
C2073 C2077 1.376 . S
C2074 C2072 1.394 . S
C2074 C2075 1.369 . S
C2074 C2078 1.531 . S
C2075 C2074 1.369 . S
C2075 C2076 1.410 . S
C2075 C2083 1.503 . S
C2076 C2075 1.410 . S
C2076 C2077 1.392 . S
C2076 C2079 1.511 . S
C2077 C2073 1.376 . S
C2077 C2076 1.392 . S
C2077 H2089 0.929 . S
C2078 C2074 1.531 . S
C2078 H2090 0.960 . S
C2078 H2091 0.962 . S
C2078 H2092 0.960 . S
C2079 C2076 1.511 . S
C2079 H2093 0.961 . S
C2079 H2094 0.961 . S
C2079 H2095 0.961 . S
C2080 C2081 1.370 . S
C2080 C2082 1.363 . S
C2080 H2096 0.931 . S
C2081 C2080 1.370 . S
C2081 C2085 1.408 . S
C2082 C2080 1.363 . S
C2082 C2083 1.370 . S
C2082 C2086 1.524 . S
C2083 C2075 1.503 . S
C2083 C2082 1.370 . S
C2083 C2084 1.403 . S
C2084 C2083 1.403 . S
C2084 C2085 1.404 . S
C2084 C2087 1.539 . S
C2085 C2081 1.408 . S
C2085 C2084 1.404 . S
C2085 H2097 0.930 . S
C2086 C2082 1.524 . S
C2086 H2098 0.956 . S
C2086 H2099 0.961 . S
C2086 H2100 0.961 . S
C2087 C2084 1.539 . S
C2087 H2101 0.958 . S
C2087 H2102 0.961 . S
C2087 H2103 0.960 . S
H2088 C2072 0.931 . S
H2089 C2077 0.929 . S
H2090 C2078 0.960 . S
H2091 C2078 0.962 . S
H2092 C2078 0.960 . S
H2093 C2079 0.961 . S
H2094 C2079 0.961 . S
H2095 C2079 0.961 . S
H2096 C2080 0.931 . S
H2097 C2085 0.930 . S
H2098 C2086 0.956 . S
H2099 C2086 0.961 . S
H2100 C2086 0.961 . S
H2101 C2087 0.958 . S
H2102 C2087 0.961 . S
H2103 C2087 0.960 . S
C2104 C2105 1.391 . S
C2104 C2106 1.394 . S
C2104 H2120 0.931 . S
C2105 C2104 1.391 . S
C2105 C2109 1.376 . S
C2106 C2104 1.394 . S
C2106 C2107 1.369 . S
C2106 C2110 1.531 . S
C2107 C2106 1.369 . S
C2107 C2108 1.410 . S
C2107 C2115 1.503 . S
C2108 C2107 1.410 . S
C2108 C2109 1.392 . S
C2108 C2111 1.511 . S
C2109 C2105 1.376 . S
C2109 C2108 1.392 . S
C2109 H2121 0.929 . S
C2110 C2106 1.531 . S
C2110 H2122 0.960 . S
C2110 H2123 0.962 . S
C2110 H2124 0.960 . S
C2111 C2108 1.511 . S
C2111 H2125 0.961 . S
C2111 H2126 0.961 . S
C2111 H2127 0.961 . S
C2112 C2113 1.370 . S
C2112 C2114 1.363 . S
C2112 H2128 0.931 . S
C2113 C2112 1.370 . S
C2113 C2117 1.408 . S
C2114 C2112 1.363 . S
C2114 C2115 1.370 . S
C2114 C2118 1.524 . S
C2115 C2107 1.503 . S
C2115 C2114 1.370 . S
C2115 C2116 1.403 . S
C2116 C2115 1.403 . S
C2116 C2117 1.404 . S
C2116 C2119 1.539 . S
C2117 C2113 1.408 . S
C2117 C2116 1.404 . S
C2117 H2129 0.930 . S
C2118 C2114 1.524 . S
C2118 H2130 0.956 . S
C2118 H2131 0.961 . S
C2118 H2132 0.961 . S
C2119 C2116 1.539 . S
C2119 H2133 0.958 . S
C2119 H2134 0.961 . S
C2119 H2135 0.960 . S
H2120 C2104 0.931 . S
H2121 C2109 0.929 . S
H2122 C2110 0.960 . S
H2123 C2110 0.962 . S
H2124 C2110 0.960 . S
H2125 C2111 0.961 . S
H2126 C2111 0.961 . S
H2127 C2111 0.961 . S
H2128 C2112 0.931 . S
H2129 C2117 0.930 . S
H2130 C2118 0.956 . S
H2131 C2118 0.961 . S
H2132 C2118 0.961 . S
H2133 C2119 0.958 . S
H2134 C2119 0.961 . S
H2135 C2119 0.960 . S
C2136 C2137 1.391 . S
C2136 C2138 1.394 . S
C2136 H2152 0.931 . S
C2137 C2136 1.391 . S
C2137 C2141 1.376 . S
C2138 C2136 1.394 . S
C2138 C2139 1.369 . S
C2138 C2142 1.531 . S
C2139 C2138 1.369 . S
C2139 C2140 1.410 . S
C2139 C2147 1.503 . S
C2140 C2139 1.410 . S
C2140 C2141 1.392 . S
C2140 C2143 1.511 . S
C2141 C2137 1.376 . S
C2141 C2140 1.392 . S
C2141 H2153 0.929 . S
C2142 C2138 1.531 . S
C2142 H2154 0.960 . S
C2142 H2155 0.962 . S
C2142 H2156 0.960 . S
C2143 C2140 1.511 . S
C2143 H2157 0.961 . S
C2143 H2158 0.961 . S
C2143 H2159 0.961 . S
C2144 C2145 1.370 . S
C2144 C2146 1.363 . S
C2144 H2160 0.931 . S
C2145 C2144 1.370 . S
C2145 C2149 1.408 . S
C2146 C2144 1.363 . S
C2146 C2147 1.370 . S
C2146 C2150 1.524 . S
C2147 C2139 1.503 . S
C2147 C2146 1.370 . S
C2147 C2148 1.403 . S
C2148 C2147 1.403 . S
C2148 C2149 1.404 . S
C2148 C2151 1.539 . S
C2149 C2145 1.408 . S
C2149 C2148 1.404 . S
C2149 H2161 0.930 . S
C2150 C2146 1.524 . S
C2150 H2162 0.956 . S
C2150 H2163 0.961 . S
C2150 H2164 0.961 . S
C2151 C2148 1.539 . S
C2151 H2165 0.958 . S
C2151 H2166 0.961 . S
C2151 H2167 0.960 . S
H2152 C2136 0.931 . S
H2153 C2141 0.929 . S
H2154 C2142 0.960 . S
H2155 C2142 0.962 . S
H2156 C2142 0.960 . S
H2157 C2143 0.961 . S
H2158 C2143 0.961 . S
H2159 C2143 0.961 . S
H2160 C2144 0.931 . S
H2161 C2149 0.930 . S
H2162 C2150 0.956 . S
H2163 C2150 0.961 . S
H2164 C2150 0.961 . S
H2165 C2151 0.958 . S
H2166 C2151 0.961 . S
H2167 C2151 0.960 . S
C2168 C2169 1.391 . S
C2168 C2170 1.394 . S
C2168 H2184 0.931 . S
C2169 C2168 1.391 . S
C2169 C2173 1.376 . S
C2170 C2168 1.394 . S
C2170 C2171 1.369 . S
C2170 C2174 1.531 . S
C2171 C2170 1.369 . S
C2171 C2172 1.410 . S
C2171 C2179 1.503 . S
C2172 C2171 1.410 . S
C2172 C2173 1.392 . S
C2172 C2175 1.511 . S
C2173 C2169 1.376 . S
C2173 C2172 1.392 . S
C2173 H2185 0.929 . S
C2174 C2170 1.531 . S
C2174 H2186 0.960 . S
C2174 H2187 0.962 . S
C2174 H2188 0.960 . S
C2175 C2172 1.511 . S
C2175 H2189 0.961 . S
C2175 H2190 0.961 . S
C2175 H2191 0.961 . S
C2176 C2177 1.370 . S
C2176 C2178 1.363 . S
C2176 H2192 0.931 . S
C2177 C2176 1.370 . S
C2177 C2181 1.408 . S
C2178 C2176 1.363 . S
C2178 C2179 1.370 . S
C2178 C2182 1.524 . S
C2179 C2171 1.503 . S
C2179 C2178 1.370 . S
C2179 C2180 1.403 . S
C2180 C2179 1.403 . S
C2180 C2181 1.404 . S
C2180 C2183 1.539 . S
C2181 C2177 1.408 . S
C2181 C2180 1.404 . S
C2181 H2193 0.930 . S
C2182 C2178 1.524 . S
C2182 H2194 0.956 . S
C2182 H2195 0.961 . S
C2182 H2196 0.961 . S
C2183 C2180 1.539 . S
C2183 H2197 0.958 . S
C2183 H2198 0.961 . S
C2183 H2199 0.960 . S
H2184 C2168 0.931 . S
H2185 C2173 0.929 . S
H2186 C2174 0.960 . S
H2187 C2174 0.962 . S
H2188 C2174 0.960 . S
H2189 C2175 0.961 . S
H2190 C2175 0.961 . S
H2191 C2175 0.961 . S
H2192 C2176 0.931 . S
H2193 C2181 0.930 . S
H2194 C2182 0.956 . S
H2195 C2182 0.961 . S
H2196 C2182 0.961 . S
H2197 C2183 0.958 . S
H2198 C2183 0.961 . S
H2199 C2183 0.960 . S
C2200 C2201 1.391 . S
C2200 C2202 1.394 . S
C2200 H2216 0.931 . S
C2201 C2200 1.391 . S
C2201 C2205 1.376 . S
C2202 C2200 1.394 . S
C2202 C2203 1.369 . S
C2202 C2206 1.531 . S
C2203 C2202 1.369 . S
C2203 C2204 1.410 . S
C2203 C2211 1.503 . S
C2204 C2203 1.410 . S
C2204 C2205 1.392 . S
C2204 C2207 1.511 . S
C2205 C2201 1.376 . S
C2205 C2204 1.392 . S
C2205 H2217 0.929 . S
C2206 C2202 1.531 . S
C2206 H2218 0.960 . S
C2206 H2219 0.962 . S
C2206 H2220 0.960 . S
C2207 C2204 1.511 . S
C2207 H2221 0.961 . S
C2207 H2222 0.961 . S
C2207 H2223 0.961 . S
C2208 C2209 1.370 . S
C2208 C2210 1.363 . S
C2208 H2224 0.931 . S
C2209 C2208 1.370 . S
C2209 C2213 1.408 . S
C2210 C2208 1.363 . S
C2210 C2211 1.370 . S
C2210 C2214 1.524 . S
C2211 C2203 1.503 . S
C2211 C2210 1.370 . S
C2211 C2212 1.403 . S
C2212 C2211 1.403 . S
C2212 C2213 1.404 . S
C2212 C2215 1.539 . S
C2213 C2209 1.408 . S
C2213 C2212 1.404 . S
C2213 H2225 0.930 . S
C2214 C2210 1.524 . S
C2214 H2226 0.956 . S
C2214 H2227 0.961 . S
C2214 H2228 0.961 . S
C2215 C2212 1.539 . S
C2215 H2229 0.958 . S
C2215 H2230 0.961 . S
C2215 H2231 0.960 . S
H2216 C2200 0.931 . S
H2217 C2205 0.929 . S
H2218 C2206 0.960 . S
H2219 C2206 0.962 . S
H2220 C2206 0.960 . S
H2221 C2207 0.961 . S
H2222 C2207 0.961 . S
H2223 C2207 0.961 . S
H2224 C2208 0.931 . S
H2225 C2213 0.930 . S
H2226 C2214 0.956 . S
H2227 C2214 0.961 . S
H2228 C2214 0.961 . S
H2229 C2215 0.958 . S
H2230 C2215 0.961 . S
H2231 C2215 0.960 . S
C2232 C2233 1.391 . S
C2232 C2234 1.394 . S
C2232 H2248 0.931 . S
C2233 C2232 1.391 . S
C2233 C2237 1.376 . S
C2234 C2232 1.394 . S
C2234 C2235 1.369 . S
C2234 C2238 1.531 . S
C2235 C2234 1.369 . S
C2235 C2236 1.410 . S
C2235 C2243 1.503 . S
C2236 C2235 1.410 . S
C2236 C2237 1.392 . S
C2236 C2239 1.511 . S
C2237 C2233 1.376 . S
C2237 C2236 1.392 . S
C2237 H2249 0.929 . S
C2238 C2234 1.531 . S
C2238 H2250 0.960 . S
C2238 H2251 0.962 . S
C2238 H2252 0.960 . S
C2239 C2236 1.511 . S
C2239 H2253 0.961 . S
C2239 H2254 0.961 . S
C2239 H2255 0.961 . S
C2240 C2241 1.370 . S
C2240 C2242 1.363 . S
C2240 H2256 0.931 . S
C2241 C2240 1.370 . S
C2241 C2245 1.408 . S
C2242 C2240 1.363 . S
C2242 C2243 1.370 . S
C2242 C2246 1.524 . S
C2243 C2235 1.503 . S
C2243 C2242 1.370 . S
C2243 C2244 1.403 . S
C2244 C2243 1.403 . S
C2244 C2245 1.404 . S
C2244 C2247 1.539 . S
C2245 C2241 1.408 . S
C2245 C2244 1.404 . S
C2245 H2257 0.930 . S
C2246 C2242 1.524 . S
C2246 H2258 0.956 . S
C2246 H2259 0.961 . S
C2246 H2260 0.961 . S
C2247 C2244 1.539 . S
C2247 H2261 0.958 . S
C2247 H2262 0.961 . S
C2247 H2263 0.960 . S
H2248 C2232 0.931 . S
H2249 C2237 0.929 . S
H2250 C2238 0.960 . S
H2251 C2238 0.962 . S
H2252 C2238 0.960 . S
H2253 C2239 0.961 . S
H2254 C2239 0.961 . S
H2255 C2239 0.961 . S
H2256 C2240 0.931 . S
H2257 C2245 0.930 . S
H2258 C2246 0.956 . S
H2259 C2246 0.961 . S
H2260 C2246 0.961 . S
H2261 C2247 0.958 . S
H2262 C2247 0.961 . S
H2263 C2247 0.960 . S
C2264 C2265 1.391 . S
C2264 C2266 1.394 . S
C2264 H2280 0.931 . S
C2265 C2264 1.391 . S
C2265 C2269 1.376 . S
C2266 C2264 1.394 . S
C2266 C2267 1.369 . S
C2266 C2270 1.531 . S
C2267 C2266 1.369 . S
C2267 C2268 1.410 . S
C2267 C2275 1.503 . S
C2268 C2267 1.410 . S
C2268 C2269 1.392 . S
C2268 C2271 1.511 . S
C2269 C2265 1.376 . S
C2269 C2268 1.392 . S
C2269 H2281 0.929 . S
C2270 C2266 1.531 . S
C2270 H2282 0.960 . S
C2270 H2283 0.962 . S
C2270 H2284 0.960 . S
C2271 C2268 1.511 . S
C2271 H2285 0.961 . S
C2271 H2286 0.961 . S
C2271 H2287 0.961 . S
C2272 C2273 1.370 . S
C2272 C2274 1.363 . S
C2272 H2288 0.931 . S
C2273 C2272 1.370 . S
C2273 C2277 1.408 . S
C2274 C2272 1.363 . S
C2274 C2275 1.370 . S
C2274 C2278 1.524 . S
C2275 C2267 1.503 . S
C2275 C2274 1.370 . S
C2275 C2276 1.403 . S
C2276 C2275 1.403 . S
C2276 C2277 1.404 . S
C2276 C2279 1.539 . S
C2277 C2273 1.408 . S
C2277 C2276 1.404 . S
C2277 H2289 0.930 . S
C2278 C2274 1.524 . S
C2278 H2290 0.956 . S
C2278 H2291 0.961 . S
C2278 H2292 0.961 . S
C2279 C2276 1.539 . S
C2279 H2293 0.958 . S
C2279 H2294 0.961 . S
C2279 H2295 0.960 . S
H2280 C2264 0.931 . S
H2281 C2269 0.929 . S
H2282 C2270 0.960 . S
H2283 C2270 0.962 . S
H2284 C2270 0.960 . S
H2285 C2271 0.961 . S
H2286 C2271 0.961 . S
H2287 C2271 0.961 . S
H2288 C2272 0.931 . S
H2289 C2277 0.930 . S
H2290 C2278 0.956 . S
H2291 C2278 0.961 . S
H2292 C2278 0.961 . S
H2293 C2279 0.958 . S
H2294 C2279 0.961 . S
H2295 C2279 0.960 . S
C2296 C2297 1.391 . S
C2296 C2298 1.394 . S
C2296 H2312 0.931 . S
C2297 C2296 1.391 . S
C2297 C2301 1.376 . S
C2298 C2296 1.394 . S
C2298 C2299 1.369 . S
C2298 C2302 1.531 . S
C2299 C2298 1.369 . S
C2299 C2300 1.410 . S
C2299 C2307 1.503 . S
C2300 C2299 1.410 . S
C2300 C2301 1.392 . S
C2300 C2303 1.511 . S
C2301 C2297 1.376 . S
C2301 C2300 1.392 . S
C2301 H2313 0.929 . S
C2302 C2298 1.531 . S
C2302 H2314 0.960 . S
C2302 H2315 0.962 . S
C2302 H2316 0.960 . S
C2303 C2300 1.511 . S
C2303 H2317 0.961 . S
C2303 H2318 0.961 . S
C2303 H2319 0.961 . S
C2304 C2305 1.370 . S
C2304 C2306 1.363 1_565 S
C2304 H2320 0.931 . S
C2305 C2304 1.370 . S
C2305 C2309 1.408 . S
C2306 C2304 1.363 1_545 S
C2306 C2307 1.370 . S
C2306 C2310 1.524 . S
C2307 C2299 1.503 . S
C2307 C2306 1.370 . S
C2307 C2308 1.403 1_545 S
C2308 C2307 1.403 1_565 S
C2308 C2309 1.404 . S
C2308 C2311 1.539 1_565 S
C2309 C2305 1.408 . S
C2309 C2308 1.404 . S
C2309 H2321 0.930 . S
C2310 C2306 1.524 . S
C2310 H2322 0.956 . S
C2310 H2323 0.961 . S
C2310 H2324 0.961 . S
C2311 C2308 1.539 1_545 S
C2311 H2325 0.958 . S
C2311 H2326 0.961 1_545 S
C2311 H2327 0.960 . S
H2312 C2296 0.931 . S
H2313 C2301 0.929 . S
H2314 C2302 0.960 . S
H2315 C2302 0.962 . S
H2316 C2302 0.960 . S
H2317 C2303 0.961 . S
H2318 C2303 0.961 . S
H2319 C2303 0.961 . S
H2320 C2304 0.931 . S
H2321 C2309 0.930 . S
H2322 C2310 0.956 . S
H2323 C2310 0.961 . S
H2324 C2310 0.961 . S
H2325 C2311 0.958 . S
H2326 C2311 0.961 1_565 S
H2327 C2311 0.960 . S
C801 C632 1.620 1_556 S
C793 C211 1.623 . S
C833 C647 1.724 . S
C825 C255 1.789 . S
C857 C274 1.719 . S
C865 C660 1.707 . S
C897 C674 1.586 . S
C889 C157 1.625 . S
C929 C686 1.659 . S
C921 C391 1.717 . S
C961 C700 1.379 . S
C953 C484 1.347 . S
C985 C450 1.761 . S
C993 C714 1.735 . S
C1025 C729 1.528 . S
C1017 C352 1.500 . S
C1049 C430 1.662 . S
C1057 C745 1.661 . S
C1089 C758 1.558 . S
C1081 C367 1.597 . S
C1113 C411 1.611 . S
C1121 C743 1.573 . S
C1153 C756 1.578 . S
C1145 C469 1.565 . S
C1177 C294 1.846 . S
C1185 C772 1.837 . S
C1209 C177 1.593 . S
C1217 C771 1.607 . S
C1241 C196 1.745 . S
C1249 C770 1.696 . S
C1273 C235 1.646 . S
C1281 C773 1.627 . S
C1305 C133 1.702 . S
C1313 C675 1.689 . S
C1337 C567 1.503 . S
C1345 C673 1.481 . S
C1377 C633 1.548 . S
C1369 C601 1.598 . S
C1409 C644 1.751 . S
C1401 C328 1.768 . S
C1433 C172 1.626 . S
C1441 C689 1.640 . S
C1473 C730 1.891 . S
C1465 C445 1.889 . S
C1505 C687 1.578 . S
C1497 C372 1.594 . S
C1537 C715 1.547 . S
C1529 C489 1.547 . S
C1569 C716 1.620 . S
C1561 C562 1.618 . S
C1593 C606 1.764 . S
C1601 C731 1.744 . S
C1625 C313 1.704 . S
C1633 C688 1.709 . S
C1665 C702 1.598 . S
C1657 C508 1.591 . S
C1689 C118 1.716 . S
C1697 C658 1.664 . S
C1729 C672 1.395 . S
C1721 C16 1.396 . S
C1761 C630 1.736 . S
C1753 C60 1.761 . S
C1793 C645 1.536 . S
C1785 C79 1.529 . S
C1817 C40 1.666 . S
C1825 C759 1.660 . S
C1849 C94 1.596 . S
C1857 C744 1.558 . S
C1881 C138 1.610 . S
C1889 C757 1.579 . S
C1913 C1 1.564 . S
C1921 C742 1.576 . S
C1953 C786 1.835 . S
C1945 C333 1.844 . S
C1985 C785 1.611 . S
C1977 C528 1.632 . S
C2017 C784 1.700 . S
C2009 C547 1.745 . S
C2041 C586 1.664 1_554 S
C2049 C787 1.626 . S
C2073 C406 1.690 . S
C2081 C703 1.690 . S
C2113 C701 1.485 . S
C2105 C216 1.501 . S
C2145 C717 1.570 . S
C2137 C250 1.574 . S
C2177 C728 1.748 . S
C2169 C289 1.774 . S
C2201 C523 1.629 . S
C2209 C661 1.639 . S
C2241 C646 1.890 . S
C2233 C55 1.889 . S
C2265 C99 1.558 . S
C2273 C659 1.590 . S
C2305 C631 1.563 . S
C2297 C21 1.535 . S
