# Generated by pormake.
# Topology ptr, (4,4)-cn, num edge types: 1
# Building blocks:
#     Node 0, Type 0, BuildingBlock: GALJAG_clean_sbu_0, # of connection points: 4
#     Node 1, Type 0, BuildingBlock: GALJAG_clean_sbu_0, # of connection points: 4
#     Node 2, Type 0, BuildingBlock: GALJAG_clean_sbu_0, # of connection points: 4
#     Node 3, Type 0, BuildingBlock: GALJAG_clean_sbu_0, # of connection points: 4
#     Node 4, Type 0, BuildingBlock: GALJAG_clean_sbu_0, # of connection points: 4
#     Node 5, Type 0, BuildingBlock: GALJAG_clean_sbu_0, # of connection points: 4
#     Node 6, Type 0, BuildingBlock: GALJAG_clean_sbu_0, # of connection points: 4
#     Node 7, Type 0, BuildingBlock: GALJAG_clean_sbu_0, # of connection points: 4
#     Node 8, Type 0, BuildingBlock: GALJAG_clean_sbu_0, # of connection points: 4
#     Node 9, Type 0, BuildingBlock: GALJAG_clean_sbu_0, # of connection points: 4
#     Node 10, Type 0, BuildingBlock: GALJAG_clean_sbu_0, # of connection points: 4
#     Node 11, Type 0, BuildingBlock: GALJAG_clean_sbu_0, # of connection points: 4
#     Node 12, Type 0, BuildingBlock: GALJAG_clean_sbu_0, # of connection points: 4
#     Node 13, Type 0, BuildingBlock: GALJAG_clean_sbu_0, # of connection points: 4
#     Node 14, Type 0, BuildingBlock: GALJAG_clean_sbu_0, # of connection points: 4
#     Node 15, Type 0, BuildingBlock: GALJAG_clean_sbu_0, # of connection points: 4
#     Node 16, Type 0, BuildingBlock: GALJAG_clean_sbu_0, # of connection points: 4
#     Node 17, Type 0, BuildingBlock: GALJAG_clean_sbu_0, # of connection points: 4
#     Node 18, Type 1, BuildingBlock: AZAVOO_clean_linker_0, # of connection points: 4
#     Node 19, Type 1, BuildingBlock: AZAVOO_clean_linker_0, # of connection points: 4
#     Node 20, Type 1, BuildingBlock: AZAVOO_clean_linker_0, # of connection points: 4
#     Node 21, Type 1, BuildingBlock: AZAVOO_clean_linker_0, # of connection points: 4
#     Node 22, Type 1, BuildingBlock: AZAVOO_clean_linker_0, # of connection points: 4
#     Node 23, Type 1, BuildingBlock: AZAVOO_clean_linker_0, # of connection points: 4
#     Node 24, Type 1, BuildingBlock: AZAVOO_clean_linker_0, # of connection points: 4
#     Node 25, Type 1, BuildingBlock: AZAVOO_clean_linker_0, # of connection points: 4
#     Node 26, Type 1, BuildingBlock: AZAVOO_clean_linker_0, # of connection points: 4
#     Node 27, Type 1, BuildingBlock: AZAVOO_clean_linker_0, # of connection points: 4
#     Node 28, Type 1, BuildingBlock: AZAVOO_clean_linker_0, # of connection points: 4
#     Node 29, Type 1, BuildingBlock: AZAVOO_clean_linker_0, # of connection points: 4
#     Node 30, Type 1, BuildingBlock: AZAVOO_clean_linker_0, # of connection points: 4
#     Node 31, Type 1, BuildingBlock: AZAVOO_clean_linker_0, # of connection points: 4
#     Node 32, Type 1, BuildingBlock: AZAVOO_clean_linker_0, # of connection points: 4
#     Node 33, Type 1, BuildingBlock: AZAVOO_clean_linker_0, # of connection points: 4
#     Node 34, Type 1, BuildingBlock: AZAVOO_clean_linker_0, # of connection points: 4
#     Node 35, Type 1, BuildingBlock: AZAVOO_clean_linker_0, # of connection points: 4
#     Edge 36, Type (0, 1), None
#     Edge 37, Type (0, 1), None
#     Edge 38, Type (0, 1), None
#     Edge 39, Type (0, 1), None
#     Edge 40, Type (0, 1), None
#     Edge 41, Type (0, 1), None
#     Edge 42, Type (0, 1), None
#     Edge 43, Type (0, 1), None
#     Edge 44, Type (0, 1), None
#     Edge 45, Type (0, 1), None
#     Edge 46, Type (0, 1), None
#     Edge 47, Type (0, 1), None
#     Edge 48, Type (0, 1), None
#     Edge 49, Type (0, 1), None
#     Edge 50, Type (0, 1), None
#     Edge 51, Type (0, 1), None
#     Edge 52, Type (0, 1), None
#     Edge 53, Type (0, 1), None
#     Edge 54, Type (0, 1), None
#     Edge 55, Type (0, 1), None
#     Edge 56, Type (0, 1), None
#     Edge 57, Type (0, 1), None
#     Edge 58, Type (0, 1), None
#     Edge 59, Type (0, 1), None
#     Edge 60, Type (0, 1), None
#     Edge 61, Type (0, 1), None
#     Edge 62, Type (0, 1), None
#     Edge 63, Type (0, 1), None
#     Edge 64, Type (0, 1), None
#     Edge 65, Type (0, 1), None
#     Edge 66, Type (0, 1), None
#     Edge 67, Type (0, 1), None
#     Edge 68, Type (0, 1), None
#     Edge 69, Type (0, 1), None
#     Edge 70, Type (0, 1), None
#     Edge 71, Type (0, 1), None
#     Edge 72, Type (0, 1), None
#     Edge 73, Type (0, 1), None
#     Edge 74, Type (0, 1), None
#     Edge 75, Type (0, 1), None
#     Edge 76, Type (0, 1), None
#     Edge 77, Type (0, 1), None
#     Edge 78, Type (0, 1), None
#     Edge 79, Type (0, 1), None
#     Edge 80, Type (0, 1), None
#     Edge 81, Type (0, 1), None
#     Edge 82, Type (0, 1), None
#     Edge 83, Type (0, 1), None
#     Edge 84, Type (0, 1), None
#     Edge 85, Type (0, 1), None
#     Edge 86, Type (0, 1), None
#     Edge 87, Type (0, 1), None
#     Edge 88, Type (0, 1), None
#     Edge 89, Type (0, 1), None
#     Edge 90, Type (0, 1), None
#     Edge 91, Type (0, 1), None
#     Edge 92, Type (0, 1), None
#     Edge 93, Type (0, 1), None
#     Edge 94, Type (0, 1), None
#     Edge 95, Type (0, 1), None
#     Edge 96, Type (0, 1), None
#     Edge 97, Type (0, 1), None
#     Edge 98, Type (0, 1), None
#     Edge 99, Type (0, 1), None
#     Edge 100, Type (0, 1), None
#     Edge 101, Type (0, 1), None
#     Edge 102, Type (0, 1), None
#     Edge 103, Type (0, 1), None
#     Edge 104, Type (0, 1), None
#     Edge 105, Type (0, 1), None
#     Edge 106, Type (0, 1), None
#     Edge 107, Type (0, 1), None
# Relax obj value: 0.044
# Max RMSD: 0.157
# Mean RMSD: 0.103
data_MOF--net-ptr--node1-GALJAG_clean_sbu_0--node2-AZAVOO_clean_linker_0--edge1-none
_symmetry_space_group_name_H-M    P1
_symmetry_Int_Tables_number       1
_symmetry_cell_setting            triclinic
loop_
_symmetry_equiv_pos_as_xyz
'x, y, z'
_cell_length_a     43.587077
_cell_length_b     42.951341
_cell_length_c     38.382637
_cell_angle_alpha  93.851136
_cell_angle_beta   93.107531
_cell_angle_gamma 120.07724
loop_
_atom_site_label
_atom_site_type_symbol
_atom_site_fract_x
_atom_site_fract_y
_atom_site_fract_z
_atom_type_partial_charge
In0 In 0.00283 0.37083 0.02804 0.0
O1 O 0.96561 0.37523 0.06486 0.0
O2 O 0.0167 0.42156 0.06326 0.0
C3 C 0.95671 0.30511 0.99566 0.0
C4 C 0.0468 0.35959 0.07042 0.0
C5 C 0.01392 0.40718 0.97113 0.0
O6 O 0.94733 0.32384 0.01401 0.0
O7 O 0.98991 0.31933 0.99394 0.0
O8 O 0.03864 0.40474 0.98714 0.0
O9 O 0.98455 0.3917 0.98398 0.0
C10 C 0.98748 0.40767 0.07652 0.0
O11 O 0.05821 0.38524 0.0513 0.0
O12 O 0.01346 0.33901 0.06724 0.0
In13 In 0.62823 0.60931 0.06626 0.0
O14 O 0.62406 0.57223 0.10909 0.0
O15 O 0.58632 0.58966 0.10402 0.0
C16 C 0.68637 0.62349 0.0335 0.0
C17 C 0.64988 0.67437 0.09918 0.0
C18 C 0.57997 0.5785 0.0096 0.0
O19 O 0.66841 0.59399 0.04657 0.0
O20 O 0.67563 0.64559 0.03798 0.0
O21 O 0.59068 0.61024 0.02323 0.0
O22 O 0.59298 0.56212 0.02509 0.0
C23 C 0.59724 0.57212 0.12042 0.0
O24 O 0.62262 0.65798 0.07706 0.0
O25 O 0.66661 0.65786 0.10477 0.0
In26 In 0.3822 -0.00192 0.02958 0.0
O27 O 0.38709 0.05311 0.0283 0.0
O28 O 0.34143 0.00655 1.00037 0.0
C29 C 0.43071 0.00623 0.08131 0.0
C30 C 0.40837 0.99366 0.9684 0.0
C31 C 0.32419 0.95637 0.06145 0.0
O32 O 0.42494 0.03153 0.07529 0.0
O33 O 0.4132 0.97779 0.0603 0.0
O34 O 0.3354 0.94263 0.03877 0.0
O35 O 0.34224 0.99032 0.06782 0.0
C36 C 0.35778 0.0403 0.00926 0.0
O37 O 0.38313 0.96599 0.97936 0.0
O38 O 0.42057 0.02252 0.98867 0.0
In39 In 0.99645 0.62069 0.04935 0.0
O40 O 0.03375 0.61657 0.01249 0.0
O41 O 0.98302 0.56986 0.0146 0.0
C42 C 0.04222 0.68643 0.08197 0.0
C43 C 0.95215 0.63129 0.00675 0.0
C44 C 0.9856 0.58427 0.10615 0.0
O45 O 0.05181 0.66788 0.06363 0.0
O46 O 0.00899 0.67205 0.0835 0.0
O47 O 0.96082 0.58675 0.09032 0.0
O48 O 0.01491 0.59979 0.0932 0.0
C49 C 0.01217 0.58394 0.0012 0.0
O50 O 0.94093 0.60597 0.02626 0.0
O51 O 0.98549 0.65189 0.00964 0.0
In52 In 0.37043 0.38257 0.01147 0.0
O53 O 0.37471 0.4199 0.96883 0.0
O54 O 0.41243 0.40242 0.97385 0.0
C55 C 0.31228 0.36761 0.0445 0.0
C56 C 0.34921 0.31785 0.97796 0.0
C57 C 0.41874 0.41378 0.06802 0.0
O58 O 0.32919 0.39668 0.03042 0.0
O59 O 0.32407 0.3463 0.04089 0.0
O60 O 0.40828 0.3821 0.05441 0.0
O61 O 0.40543 0.42994 0.05259 0.0
C62 C 0.40156 0.42004 0.95751 0.0
O63 O 0.37658 0.33433 0.99993 0.0
O64 O 0.33204 0.33401 0.9729 0.0
In65 In 0.61652 0.99358 0.04868 0.0
O66 O 0.61536 0.02562 0.09879 0.0
O67 O 0.57822 0.96898 0.08953 0.0
C68 C 0.67397 0.03515 0.01613 0.0
C69 C 0.64177 0.95218 0.06941 0.0
C70 C 0.56779 0.98506 0.99707 0.0
O71 O 0.66312 0.04897 0.03913 0.0
O72 O 0.65585 0.00118 0.00983 0.0
O73 O 0.57372 0.95986 0.00313 0.0
O74 O 0.5852 0.01355 0.01804 0.0
C75 C 0.59025 -0.00215 0.10976 0.0
O76 O 0.61224 0.9389 0.05064 0.0
O77 O 0.65797 0.98601 0.07781 0.0
In78 In 0.66894 0.70539 0.36097 0.0
O79 O 0.63122 0.70913 0.39756 0.0
O80 O 0.68208 0.75586 0.39628 0.0
C81 C 0.6227 0.63987 0.32823 0.0
C82 C 0.71268 0.69411 0.40364 0.0
C83 C 0.68157 0.742 0.30412 0.0
O84 O 0.6133 0.65896 0.34598 0.0
O85 O 0.65594 0.65365 0.32727 0.0
O86 O 0.70573 0.73904 0.32059 0.0
O87 O 0.65193 0.72693 0.31651 0.0
C88 C 0.65279 0.74158 0.4094 0.0
O89 O 0.72413 0.72022 0.38511 0.0
O90 O 0.6794 0.67309 0.39974 0.0
In91 In 0.29438 0.94168 0.39933 0.0
O92 O 0.29014 0.90461 0.44221 0.0
O93 O 0.25265 0.92235 0.43731 0.0
C94 C 0.35216 0.95502 0.36624 0.0
C95 C 0.31651 0.00694 0.43212 0.0
C96 C 0.24589 0.91141 0.3428 0.0
O97 O 0.334 0.92562 0.37942 0.0
O98 O 0.34181 0.97744 0.37082 0.0
O99 O 0.25703 0.94321 0.35652 0.0
O100 O 0.25857 0.89466 0.35814 0.0
C101 C 0.26348 0.90473 0.45368 0.0
O102 O 0.2891 0.99054 0.4102 0.0
O103 O 0.3332 0.99035 0.43757 0.0
In104 In 0.05003 0.33168 0.363 0.0
O105 O 0.05568 0.38704 0.36175 0.0
O106 O 0.00943 0.34077 0.33427 0.0
C107 C 0.09854 0.34013 0.41489 0.0
C108 C 0.07564 0.32661 0.30161 0.0
C109 C 0.99205 0.28961 0.39483 0.0
O110 O 0.09261 0.3653 0.40877 0.0
O111 O 0.08126 0.31169 0.39385 0.0
O112 O 0.00352 0.27605 0.37228 0.0
O113 O 0.00976 0.32359 0.40101 0.0
C114 C 0.02626 0.37456 0.34301 0.0
O115 O 0.05029 0.29918 0.31274 0.0
O116 O 0.08825 0.35556 0.32182 0.0
In117 In 0.66376 0.95341 0.38251 0.0
O118 O 0.70187 0.95051 0.34595 0.0
O119 O 0.65163 0.90305 0.34761 0.0
C120 C 0.70969 0.01895 0.41543 0.0
C121 C 0.61916 0.9635 0.33975 0.0
C122 C 0.65175 0.91683 0.43933 0.0
O123 O 0.71921 0.00014 0.39744 0.0
O124 O 0.67643 0.00496 0.41644 0.0
O125 O 0.62742 0.9198 0.42322 0.0
O126 O 0.6812 0.93188 0.4266 0.0
C127 C 0.68092 0.9178 0.33448 0.0
O128 O 0.60823 0.93745 0.35832 0.0
O129 O 0.65234 0.98506 0.34363 0.0
In130 In 0.03673 0.71704 0.34488 0.0
O131 O 0.04058 0.75414 0.30213 0.0
O132 O 0.07872 0.73724 0.30724 0.0
C133 C 0.97835 0.70208 0.37758 0.0
C134 C 0.01636 0.65247 0.3115 0.0
C135 C 0.08486 0.7479 0.40162 0.0
O136 O 0.99573 0.73141 0.36405 0.0
O137 O 0.98976 0.68048 0.37354 0.0
O138 O 0.07416 0.71617 0.38801 0.0
O139 O 0.07187 0.7643 0.38612 0.0
C140 C 0.06754 0.75456 0.29082 0.0
O141 O 0.04372 0.66932 0.33343 0.0
O142 O -0.00128 0.66815 0.30644 0.0
In143 In 0.28321 0.32632 0.38195 0.0
O144 O 0.27894 0.27164 0.38401 0.0
O145 O 0.32477 0.31877 0.41096 0.0
C146 C 0.23433 0.31735 0.33024 0.0
C147 C 0.2571 0.33092 0.44307 0.0
C148 C 0.3406 0.36829 0.34946 0.0
O149 O 0.24047 0.29232 0.33641 0.0
O150 O 0.25161 0.3459 0.35115 0.0
O151 O 0.32952 0.38189 0.37242 0.0
O152 O 0.32274 0.3343 0.34319 0.0
C153 C 0.30853 0.28493 0.40267 0.0
O154 O 0.28219 0.35859 0.43195 0.0
O155 O 0.24501 0.30196 0.42298 0.0
In156 In 0.33657 0.03841 0.69405 0.0
O157 O 0.39179 0.05378 0.7187 0.0
O158 O 0.34723 0.00605 0.73261 0.0
C159 C 0.34908 0.07482 0.63706 0.0
C160 C 0.32035 0.07461 0.7424 0.0
C161 C 0.29002 0.97284 0.66162 0.0
O162 O 0.37318 0.07159 0.6533 0.0
O163 O 0.31959 0.0601 0.64974 0.0
O164 O 0.28085 0.99206 0.67947 0.0
O165 O 0.32323 0.98651 0.6604 0.0
C166 C 0.38043 0.02747 0.73697 0.0
O167 O 0.29885 0.04211 0.73063 0.0
O168 O 0.34963 0.08892 0.72924 0.0
In169 In 0.96208 0.27445 0.73307 0.0
O170 O 0.95535 0.32242 0.74366 0.0
O171 O -0.00027 0.32328 0.77168 0.0
C172 C 0.9141 0.2442 0.67615 0.0
C173 C 0.93124 0.23715 0.78724 0.0
C174 C 0.02052 0.28869 0.70075 0.0
O175 O 0.92523 0.27603 0.68974 0.0
O176 O 0.9266 0.22743 0.69175 0.0
O177 O 0.00176 0.25872 0.71275 0.0
O178 O 0.01048 0.31126 0.7062 0.0
C179 C 0.98241 0.33917 0.76597 0.0
O180 O 0.95832 0.23769 0.77614 0.0
O181 O 0.91994 0.25422 0.77057 0.0
In182 In 0.7158 0.66534 0.69604 0.0
O183 O 0.72058 0.72031 0.69466 0.0
O184 O 0.67468 0.67362 0.66723 0.0
C185 C 0.7646 0.67421 0.74782 0.0
C186 C 0.74148 0.66053 0.63464 0.0
C187 C 0.65816 0.62317 0.72817 0.0
O188 O 0.75851 0.69927 0.74163 0.0
O189 O 0.74733 0.64569 0.72688 0.0
O190 O 0.6696 0.60965 0.70555 0.0
O191 O 0.67575 0.65716 0.73429 0.0
C192 C 0.69109 0.70741 0.67592 0.0
O193 O 0.71632 0.63298 0.64583 0.0
O194 O 0.75387 0.68949 0.6548 0.0
In195 In 0.33119 0.28651 0.71536 0.0
O196 O 0.36931 0.28345 0.67891 0.0
O197 O 0.31894 0.23613 0.68045 0.0
C198 C 0.37684 0.35205 0.7485 0.0
C199 C 0.28674 0.29684 0.67262 0.0
C200 C 0.31914 0.24982 0.7721 0.0
O201 O 0.38655 0.33338 0.73054 0.0
O202 O 0.34356 0.33792 0.74935 0.0
O203 O 0.29474 0.25254 0.75582 0.0
O204 O 0.34869 0.26517 0.75958 0.0
C205 C 0.34827 0.25077 0.6674 0.0
O206 O 0.27569 0.27104 0.69153 0.0
O207 O 0.32001 0.318 0.67611 0.0
In208 In 0.70397 0.04996 0.67837 0.0
O209 O 0.70837 0.08725 0.63563 0.0
O210 O 0.7459 0.06956 0.64065 0.0
C211 C 0.646 0.0358 0.71147 0.0
C212 C 0.6824 0.98505 0.64505 0.0
C213 C 0.7524 0.08062 0.7349 0.0
O214 O 0.66342 0.06495 0.69766 0.0
O215 O 0.6572 0.01401 0.70752 0.0
O216 O 0.74149 0.04885 0.72125 0.0
O217 O 0.73948 0.09715 0.71953 0.0
C218 C 0.73512 0.08723 0.62428 0.0
O219 O 0.70981 0.00152 0.66696 0.0
O220 O 0.66534 0.00132 0.63996 0.0
In221 In 0.94866 0.66014 0.71493 0.0
O222 O 0.94297 0.6048 0.71645 0.0
O223 O 0.98933 0.65115 0.74371 0.0
C224 C 0.90002 0.65161 0.66316 0.0
C225 C 0.92298 0.66509 0.77626 0.0
C226 C 0.00655 0.70198 0.6829 0.0
O227 O 0.90602 0.62648 0.66927 0.0
O228 O 0.91735 0.68009 0.68415 0.0
O229 O 0.99534 0.71563 0.70565 0.0
O230 O 0.98863 0.66801 0.67664 0.0
C231 C 0.9724 0.61733 0.73518 0.0
O232 O 0.94824 0.6926 0.76513 0.0
O233 O 0.9105 0.63614 0.75607 0.0
H234 H 0.15805 0.39048 0.94341 0.0
H235 H 0.33198 0.27192 0.24208 0.0
H236 H 0.1546 0.40033 0.13628 0.0
H237 H 0.11281 0.41028 0.10037 0.0
H238 H 0.034 0.29668 0.09569 0.0
H239 H 0.07672 0.28662 0.13036 0.0
H240 H 0.20156 0.40082 0.09261 0.0
H241 H 0.19041 0.40741 0.03113 0.0
H242 H 0.11726 0.29197 0.01157 0.0
H243 H 0.12893 0.28579 0.07308 0.0
H244 H 0.25568 0.40205 0.12438 0.0
H245 H 0.30131 0.41587 0.08362 0.0
H246 H 0.25769 0.30146 0.05514 0.0
H247 H 0.21134 0.28789 0.09496 0.0
H248 H 0.26548 0.37874 0.2113 0.0
H249 H 0.31152 0.36998 0.24057 0.0
H250 H 0.2598 0.26074 0.18879 0.0
H251 H 0.2139 0.26985 0.15989 0.0
H252 H 0.20155 0.37379 0.25037 0.0
H253 H 0.22442 0.37104 0.3088 0.0
H254 H 0.19753 0.26082 0.27858 0.0
H255 H 0.17352 0.2635 0.22029 0.0
H256 H 0.14644 0.38384 0.21405 0.0
H257 H 0.11559 0.38352 0.2655 0.0
H258 H 0.06904 0.26766 0.26178 0.0
H259 H 0.10061 0.26832 0.2104 0.0
O260 O 0.16233 0.38723 0.96755 0.0
O261 O 0.12501 0.32775 0.95889 0.0
O262 O 0.33934 0.33226 0.25707 0.0
O263 O 0.31459 0.27635 0.23024 0.0
C264 C 0.14722 0.33576 0.14807 0.0
C265 C 0.17225 0.33865 0.12458 0.0
C266 C 0.20202 0.33606 0.1362 0.0
C267 C 0.20555 0.3281 0.17068 0.0
C268 C 0.1798 0.32375 0.19388 0.0
C269 C 0.15068 0.32787 0.18271 0.0
C270 C 0.11867 0.34275 0.13578 0.0
C271 C 0.12802 0.37774 0.12816 0.0
C272 C 0.10436 0.3833 0.10732 0.0
C273 C 0.07058 0.3541 0.0947 0.0
C274 C 0.0601 0.31957 0.10485 0.0
C275 C 0.08421 0.31384 0.12498 0.0
C276 C 0.16631 0.34279 0.08713 0.0
C277 C 0.18346 0.37697 0.07489 0.0
C278 C 0.17688 0.38066 0.03981 0.0
C279 C 0.15297 0.3502 0.0164 0.0
C280 C 0.13587 0.31597 0.02886 0.0
C281 C 0.14251 0.31234 0.06394 0.0
C282 C 0.2304 0.34397 0.11271 0.0
C283 C 0.25588 0.38001 0.1091 0.0
C284 C 0.28163 0.38788 0.08563 0.0
C285 C 0.28274 0.35974 0.06607 0.0
C286 C 0.25722 0.32365 0.0698 0.0
C287 C 0.23103 0.31583 0.09273 0.0
C288 C 0.23659 0.32502 0.18331 0.0
C289 C 0.26458 0.35321 0.20582 0.0
C290 C 0.29058 0.34799 0.22277 0.0
C291 C 0.28904 0.31448 0.21734 0.0
C292 C 0.2616 0.28676 0.19376 0.0
C293 C 0.23562 0.29202 0.17685 0.0
C294 C 0.18602 0.31892 0.23107 0.0
C295 C 0.19933 0.3486 0.25678 0.0
C296 C 0.21258 0.34701 0.2901 0.0
C297 C 0.21317 0.31584 0.29811 0.0
C298 C 0.19749 0.28522 0.27312 0.0
C299 C 0.18381 0.2867 0.23986 0.0
C300 C 0.12569 0.32613 0.20839 0.0
C301 C 0.12886 0.35827 0.22373 0.0
C302 C 0.11153 0.35805 0.25336 0.0
C303 C 0.09035 0.32559 0.26796 0.0
C304 C 0.08527 0.29304 0.25116 0.0
C305 C 0.10309 0.29336 0.22174 0.0
C306 C 0.14584 0.35423 0.97921 0.0
C307 C 0.31584 0.30834 0.23619 0.0
H308 H 0.65866 0.77128 0.93945 0.0
H309 H 0.6967 0.05314 0.24543 0.0
H310 H 0.62758 0.76539 0.13306 0.0
H311 H 0.60876 0.70405 0.10821 0.0
H312 H 0.71658 0.72577 0.12891 0.0
H313 H 0.73559 0.78819 0.15289 0.0
H314 H 0.63434 0.80174 0.08274 0.0
H315 H 0.63373 0.78385 0.02087 0.0
H316 H 0.7489 0.8392 0.03277 0.0
H317 H 0.74911 0.85715 0.09475 0.0
H318 H 0.62559 0.84738 0.11098 0.0
H319 H 0.60392 0.8811 0.07918 0.0
H320 H 0.71072 0.97368 0.09024 0.0
H321 H 0.73258 0.93894 0.12046 0.0
H322 H 0.63222 0.87912 0.18915 0.0
H323 H 0.62207 0.92797 0.2102 0.0
H324 H 0.73535 0.00395 0.21619 0.0
H325 H 0.74505 0.95474 0.19499 0.0
H326 H 0.64198 0.83016 0.24048 0.0
H327 H 0.63419 0.85362 0.29679 0.0
H328 H 0.74345 0.94155 0.30498 0.0
H329 H 0.7514 0.91687 0.24894 0.0
H330 H 0.63749 0.77092 0.20717 0.0
H331 H 0.63064 0.73382 0.25484 0.0
H332 H 0.74429 0.79579 0.2842 0.0
H333 H 0.75087 0.8335 0.23634 0.0
O334 O 0.65956 0.77896 0.96396 0.0
O335 O 0.71874 0.80707 0.97163 0.0
O336 O 0.6418 0.99357 0.23133 0.0
O337 O 0.69996 0.03343 0.2367 0.0
C338 C 0.69355 0.81884 0.15599 0.0
C339 C 0.69252 0.84113 0.13111 0.0
C340 C 0.69169 0.87251 0.14244 0.0
C341 C 0.6951 0.88333 0.17863 0.0
C342 C 0.69888 0.8624 0.2035 0.0
C343 C 0.69744 0.82973 0.19221 0.0
C344 C 0.68302 0.78123 0.14387 0.0
C345 C 0.64718 0.75696 0.13204 0.0
C346 C 0.63648 0.72201 0.11801 0.0
C347 C 0.66135 0.71051 0.1164 0.0
C348 C 0.69701 0.73423 0.12989 0.0
C349 C 0.70789 0.76968 0.14344 0.0
C350 C 0.6918 0.83114 0.09316 0.0
C351 C 0.65944 0.81039 0.07191 0.0
C352 C 0.65915 0.80001 0.03655 0.0
C353 C 0.69127 0.81012 0.02182 0.0
C354 C 0.72368 0.83099 0.04325 0.0
C355 C 0.72389 0.84135 0.07862 0.0
C356 C 0.68078 0.89047 0.1172 0.0
C357 C 0.64461 0.87427 0.10491 0.0
C358 C 0.63219 0.89367 0.08717 0.0
C359 C 0.65566 0.92991 0.08256 0.0
C360 C 0.69214 0.9457 0.09364 0.0
C361 C 0.7047 0.92594 0.11062 0.0
C362 C 0.68934 0.9135 0.19056 0.0
C363 C 0.65476 0.90639 0.19491 0.0
C364 C 0.64906 0.93431 0.20696 0.0
C365 C 0.67792 0.96989 0.21493 0.0
C366 C 0.71255 0.97688 0.21034 0.0
C367 C 0.71819 0.94889 0.1982 0.0
C368 C 0.69736 0.87162 0.24091 0.0
C369 C 0.66472 0.85346 0.25522 0.0
C370 C 0.66023 0.86714 0.28722 0.0
C371 C 0.68811 0.89963 0.30494 0.0
C372 C 0.72151 0.91651 0.29171 0.0
C373 C 0.72615 0.90242 0.2599 0.0
C374 C 0.69466 0.80473 0.21827 0.0
C375 C 0.661 0.77607 0.22343 0.0
C376 C 0.65714 0.75509 0.2508 0.0
C377 C 0.68695 0.76212 0.27326 0.0
C378 C 0.72095 0.7898 0.26713 0.0
C379 C 0.72473 0.81126 0.23993 0.0
C380 C 0.69084 0.79871 0.98433 0.0
C381 C 0.67199 -0.00044 0.22811 0.0
H382 H 0.12126 0.81199 0.93292 0.0
H383 H 0.37426 0.02543 0.2965 0.0
H384 H 0.07691 0.80081 0.13698 0.0
H385 H 0.03118 0.74063 0.10831 0.0
H386 H 0.11224 0.71159 0.09831 0.0
H387 H 0.15696 0.7706 0.12778 0.0
H388 H 0.13441 0.86145 0.08167 0.0
H389 H 0.12267 0.84527 0.01802 0.0
H390 H 0.18968 0.79776 0.02356 0.0
H391 H 0.20088 0.81378 0.08715 0.0
H392 H 0.22447 0.94111 0.11279 0.0
H393 H 0.27429 0.97341 0.07738 0.0
H394 H 0.30435 0.89261 0.08826 0.0
H395 H 0.25544 0.86127 0.12495 0.0
H396 H 0.22692 0.95928 0.18588 0.0
H397 H 0.27683 0.0106 0.22227 0.0
H398 H 0.3192 0.94212 0.2484 0.0
H399 H 0.26913 0.89105 0.21182 0.0
H400 H 0.18709 0.92243 0.24434 0.0
H401 H 0.21438 0.94163 0.30524 0.0
H402 H 0.22792 0.8485 0.3037 0.0
H403 H 0.20191 0.83037 0.24279 0.0
H404 H 0.10566 0.8483 0.21961 0.0
H405 H 0.0689 0.81332 0.26482 0.0
H406 H 0.10697 0.73841 0.2495 0.0
H407 H 0.1428 0.77283 0.20432 0.0
O408 O 0.12642 0.81833 0.95807 0.0
O409 O 0.16141 0.7946 0.96231 0.0
O410 O 0.33379 0.04065 0.26449 0.0
O411 O 0.35484 0.00577 0.28124 0.0
C412 C 0.14874 0.82648 0.14897 0.0
C413 C 0.17499 0.8485 0.12759 0.0
C414 C 0.2067 0.87941 0.14291 0.0
C415 C 0.21124 0.88948 0.17935 0.0
C416 C 0.18446 0.86801 0.20059 0.0
C417 C 0.15301 0.83666 0.1854 0.0
C418 C 0.1202 0.79007 0.13381 0.0
C419 C 0.08451 0.7812 0.12882 0.0
C420 C 0.05859 0.74702 0.11249 0.0
C421 C 0.06841 0.72183 0.10072 0.0
C422 C 0.10404 0.73069 0.10663 0.0
C423 C 0.12959 0.76434 0.1234 0.0
C424 C 0.16885 0.83922 0.08891 0.0
C425 C 0.14664 0.84769 0.06902 0.0
C426 C 0.13996 0.83838 0.0327 0.0
C427 C 0.15533 0.82031 0.01567 0.0
C428 C 0.17754 0.8118 0.0358 0.0
C429 C 0.18417 0.82112 0.07211 0.0
C430 C 0.23643 0.89893 0.1213 0.0
C431 C 0.2418 0.93043 0.1075 0.0
C432 C 0.26998 0.94859 0.08717 0.0
C433 C 0.29268 0.93507 0.07988 0.0
C434 C 0.2868 0.90311 0.0931 0.0
C435 C 0.25914 0.88545 0.11416 0.0
C436 C 0.24462 0.92161 0.19607 0.0
C437 C 0.24743 0.95566 0.19888 0.0
C438 C 0.27573 0.98478 0.22 0.0
C439 C 0.30174 0.98031 0.23861 0.0
C440 C 0.29946 0.9464 0.23468 0.0
C441 C 0.27114 0.9173 0.21351 0.0
C442 C 0.1926 0.87508 0.23925 0.0
C443 C 0.19516 0.90578 0.25755 0.0
C444 C 0.21076 0.91669 0.29222 0.0
C445 C 0.22355 0.8967 0.309 0.0
C446 C 0.21833 0.86443 0.29143 0.0
C447 C 0.20323 0.85387 0.25672 0.0
C448 C 0.12667 0.8129 0.20854 0.0
C449 C 0.10527 0.8238 0.22551 0.0
C450 C 0.08439 0.80392 0.25127 0.0
C451 C 0.08538 0.77342 0.2608 0.0
C452 C 0.10589 0.76198 0.24283 0.0
C453 C 0.12615 0.7814 0.21681 0.0
C454 C 0.14801 0.81026 0.97711 0.0
C455 C 0.33101 0.01079 0.26218 0.0
H456 H 0.27862 0.1936 0.13048 0.0
H457 H 0.37846 0.98664 0.85235 0.0
H458 H 0.2643 0.203 0.92588 0.0
H459 H 0.28228 0.26508 0.95019 0.0
H460 H 0.39166 0.29035 0.96586 0.0
H461 H 0.37379 0.22931 0.94074 0.0
H462 H 0.25233 0.13428 0.98302 0.0
H463 H 0.25246 0.15306 0.04473 0.0
H464 H 0.36769 0.21395 0.05515 0.0
H465 H 0.36715 0.19507 0.99354 0.0
H466 H 0.2686 0.05444 0.95582 0.0
H467 H 0.2894 0.01908 0.98632 0.0
H468 H 0.39591 0.11214 0.00229 0.0
H469 H 0.37532 0.14665 0.97034 0.0
H470 H 0.26008 0.03875 0.88053 0.0
H471 H 0.27281 0.99074 0.86298 0.0
H472 H 0.38571 0.0692 0.87667 0.0
H473 H 0.37254 0.11683 0.89386 0.0
H474 H 0.2511 0.07636 0.82891 0.0
H475 H 0.25824 0.05156 0.7725 0.0
H476 H 0.36808 0.1382 0.78047 0.0
H477 H 0.36102 0.16184 0.83711 0.0
H478 H 0.25063 0.15931 0.84126 0.0
H479 H 0.25667 0.19661 0.79314 0.0
H480 H 0.37071 0.25756 0.82029 0.0
H481 H 0.36439 0.22087 0.86819 0.0
O482 O 0.27915 0.18612 0.10627 0.0
O483 O 0.33838 0.21637 0.11038 0.0
O484 O 0.31423 0.96615 0.84972 0.0
O485 O 0.37258 0.00511 0.85852 0.0
C486 C 0.30788 0.1743 0.92072 0.0
C487 C 0.30903 0.15252 0.94611 0.0
C488 C 0.31044 0.12132 0.93548 0.0
C489 C 0.30802 0.11043 0.89944 0.0
C490 C 0.30392 0.1307 0.87405 0.0
C491 C 0.30453 0.16308 0.88467 0.0
C492 C 0.31776 0.21183 0.93225 0.0
C493 C 0.29211 0.22225 0.93418 0.0
C494 C 0.3024 0.25749 0.94794 0.0
C495 C 0.33823 0.28206 0.96021 0.0
C496 C 0.36382 0.2717 0.95699 0.0
C497 C 0.35369 0.23698 0.94273 0.0
C498 C 0.30968 0.16307 0.98389 0.0
C499 C 0.27755 0.1515 0.99877 0.0
C500 C 0.27772 0.16233 0.03399 0.0
C501 C 0.31009 0.18501 0.0549 0.0
C502 C 0.34229 0.19642 0.03984 0.0
C503 C 0.34205 0.18555 0.00465 0.0
C504 C 0.32033 0.10321 0.96145 0.0
C505 C 0.29614 0.06743 0.96686 0.0
C506 C 0.30811 0.04729 0.98398 0.0
C507 C 0.34427 0.06299 0.99636 0.0
C508 C 0.36788 0.09959 0.9932 0.0
C509 C 0.35606 0.11944 0.97538 0.0
C510 C 0.31539 0.08115 0.88843 0.0
C511 C 0.28749 0.04544 0.87959 0.0
C512 C 0.29487 0.01813 0.86962 0.0
C513 C 0.33032 0.02614 0.86846 0.0
C514 C 0.35815 0.06207 0.8773 0.0
C515 C 0.35072 0.08932 0.88712 0.0
C516 C 0.30546 0.12098 0.8368 0.0
C517 C 0.27633 0.09046 0.81787 0.0
C518 C 0.2805 0.07633 0.78583 0.0
C519 C 0.31378 0.09287 0.77235 0.0
C520 C 0.34211 0.12498 0.7902 0.0
C521 C 0.33807 0.13872 0.82241 0.0
C522 C 0.30708 0.18759 0.85818 0.0
C523 C 0.27676 0.18121 0.83708 0.0
C524 C 0.28023 0.20244 0.80974 0.0
C525 C 0.31416 0.22975 0.80295 0.0
C526 C 0.34425 0.23657 0.82482 0.0
C527 C 0.3407 0.21582 0.8523 0.0
C528 C 0.31021 0.19683 0.09218 0.0
C529 C 0.3384 -0.00276 0.85828 0.0
H530 H 0.84038 0.20151 0.14302 0.0
H531 H 0.64255 0.93518 0.79067 0.0
H532 H 0.84163 0.2209 0.95092 0.0
H533 H 0.88657 0.2799 0.98019 0.0
H534 H 0.96746 0.2508 0.96899 0.0
H535 H 0.92151 0.19062 0.94052 0.0
H536 H 0.79885 0.17834 0.99192 0.0
H537 H 0.81009 0.19272 0.05568 0.0
H538 H 0.87443 0.14214 0.0588 0.0
H539 H 0.86267 0.12763 0.99494 0.0
H540 H 0.7439 0.1319 0.95485 0.0
H541 H 0.69505 0.10021 0.99153 0.0
H542 H 0.72222 0.01676 0.99739 0.0
H543 H 0.77191 0.04932 0.96197 0.0
H544 H 0.72999 0.10508 0.86767 0.0
H545 H 0.67942 0.0567 0.82926 0.0
H546 H 0.71781 0.98373 0.85004 0.0
H547 H 0.76829 0.03244 0.88828 0.0
H548 H 0.79649 0.16206 0.83467 0.0
H549 H 0.77035 0.14368 0.77378 0.0
H550 H 0.78418 0.05073 0.77252 0.0
H551 H 0.81148 0.07013 0.8334 0.0
H552 H 0.85587 0.21916 0.87358 0.0
H553 H 0.89184 0.2535 0.82842 0.0
H554 H 0.92983 0.17848 0.81347 0.0
H555 H 0.8929 0.14357 0.85861 0.0
O556 O 0.83607 0.19533 0.11783 0.0
O557 O 0.8689 0.16901 0.11801 0.0
O558 O 0.64446 0.99374 0.79527 0.0
O559 O 0.66167 0.95439 0.80659 0.0
C560 C 0.84966 0.16511 0.92895 0.0
C561 C 0.82324 0.14301 0.95015 0.0
C562 C 0.79125 0.11262 0.93455 0.0
C563 C 0.78661 0.10306 0.89803 0.0
C564 C 0.81374 0.12432 0.87702 0.0
C565 C 0.8454 0.15526 0.89245 0.0
C566 C 0.87828 0.20137 0.94434 0.0
C567 C 0.86899 0.22711 0.95505 0.0
C568 C 0.89468 0.26077 0.97168 0.0
C569 C 0.93034 0.26964 0.97715 0.0
C570 C 0.94003 0.24441 0.96515 0.0
C571 C 0.91399 0.21023 0.94895 0.0
C572 C 0.82958 0.15154 0.9889 0.0
C573 C 0.81503 0.17003 0.00644 0.0
C574 C 0.82166 0.17838 0.04287 0.0
C575 C 0.8431 0.1685 0.06237 0.0
C576 C 0.85774 0.15007 0.0446 0.0
C577 C 0.85106 0.14172 0.00816 0.0
C578 C 0.76149 0.09294 0.95606 0.0
C579 C 0.73958 0.10705 0.96455 0.0
C580 C 0.71193 0.08915 0.98556 0.0
C581 C 0.70527 0.05637 0.99738 0.0
C582 C 0.72711 0.04219 0.98866 0.0
C583 C 0.75524 0.06052 0.96835 0.0
C584 C 0.75259 0.07212 0.88086 0.0
C585 C 0.72695 0.0784 0.86448 0.0
C586 C 0.69837 0.05086 0.84224 0.0
C587 C 0.69491 0.01651 0.83618 0.0
C588 C 0.71988 0.00995 0.85389 0.0
C589 C 0.74847 0.03755 0.8761 0.0
C590 C 0.80588 0.11742 0.83833 0.0
C591 C 0.79522 0.13856 0.82079 0.0
C592 C 0.78004 0.12785 0.7861 0.0
C593 C 0.77484 0.09554 0.76863 0.0
C594 C 0.78776 0.0757 0.78547 0.0
C595 C 0.8034 0.08673 0.82012 0.0
C596 C 0.87194 0.17904 0.8695 0.0
C597 C 0.87254 0.21056 0.86117 0.0
C598 C 0.89288 0.22993 0.83517 0.0
C599 C 0.91339 0.21842 0.8173 0.0
C600 C 0.91433 0.18793 0.82694 0.0
C601 C 0.89337 0.1681 0.85267 0.0
C602 C 0.85021 0.17755 0.10106 0.0
C603 C 0.66549 0.98765 0.81141 0.0
H604 H 0.87941 0.6577 0.14439 0.0
H605 H 0.64347 0.67122 0.81059 0.0
H606 H 0.92189 0.70338 0.94565 0.0
H607 H 0.96495 0.6936 0.98005 0.0
H608 H 0.88562 0.58048 0.97817 0.0
H609 H 0.84345 0.59009 0.94252 0.0
H610 H 0.8711 0.70245 0.00525 0.0
H611 H 0.88188 0.69439 0.06634 0.0
H612 H 0.80391 0.58026 0.04515 0.0
H613 H 0.79367 0.5887 0.98406 0.0
H614 H 0.78996 0.70266 0.98648 0.0
H615 H 0.74366 0.68909 0.02637 0.0
H616 H 0.69453 0.57521 0.99107 0.0
H617 H 0.74024 0.58912 0.95037 0.0
H618 H 0.78761 0.72288 0.92175 0.0
H619 H 0.74366 0.73566 0.89446 0.0
H620 H 0.68852 0.62835 0.83801 0.0
H621 H 0.73271 0.61591 0.86564 0.0
H622 H 0.82514 0.7279 0.85792 0.0
H623 H 0.8013 0.73068 0.79957 0.0
H624 H 0.77431 0.62044 0.76931 0.0
H625 H 0.79699 0.61758 0.82778 0.0
H626 H 0.89729 0.72277 0.86739 0.0
H627 H 0.92894 0.72379 0.81599 0.0
H628 H 0.88366 0.6081 0.81251 0.0
H629 H 0.85266 0.60741 0.86394 0.0
O630 O 0.8746 0.66031 0.12017 0.0
O631 O 0.83419 0.60185 0.10797 0.0
O632 O 0.69024 0.72127 0.85167 0.0
O633 O 0.6606 0.66633 0.82226 0.0
C634 C 0.85101 0.65456 0.92967 0.0
C635 C 0.82591 0.65144 0.95319 0.0
C636 C 0.7965 0.65474 0.94186 0.0
C637 C 0.79325 0.66344 0.90764 0.0
C638 C 0.8188 0.66754 0.88428 0.0
C639 C 0.84773 0.66301 0.89522 0.0
C640 C 0.87957 0.64747 0.94175 0.0
C641 C 0.91432 0.67629 0.95158 0.0
C642 C 0.93864 0.67074 0.97157 0.0
C643 C 0.92814 0.63648 0.98247 0.0
C644 C 0.89409 0.60728 0.97067 0.0
C645 C 0.87019 0.61264 0.95001 0.0
C646 C 0.83138 0.64624 0.99041 0.0
C647 C 0.85628 0.67578 0.01395 0.0
C648 C 0.86241 0.67108 0.04878 0.0
C649 C 0.8437 0.63668 0.06066 0.0
C650 C 0.81868 0.60713 0.0369 0.0
C651 C 0.81263 0.61189 0.00206 0.0
C652 C 0.76817 0.64691 0.96536 0.0
C653 C 0.7691 0.67485 0.98726 0.0
C654 C 0.74292 0.66701 0.0102 0.0
C655 C 0.71585 0.63106 0.01198 0.0
C656 C 0.71541 0.60306 0.99053 0.0
C657 C 0.74118 0.611 0.96708 0.0
C658 C 0.76318 0.66844 0.8958 0.0
C659 C 0.76558 0.70191 0.90408 0.0
C660 C 0.7407 0.70928 0.88812 0.0
C661 C 0.71289 0.6832 0.86366 0.0
C662 C 0.70979 0.64913 0.85649 0.0
C663 C 0.73475 0.64181 0.87248 0.0
C664 C 0.81251 0.67244 0.84713 0.0
C665 C 0.81483 0.70471 0.83835 0.0
C666 C 0.80126 0.70625 0.80504 0.0
C667 C 0.78562 0.67566 0.78002 0.0
C668 C 0.78612 0.64444 0.78804 0.0
C669 C 0.79924 0.64279 0.8214 0.0
C670 C 0.87278 0.66501 0.86949 0.0
C671 C 0.89509 0.69785 0.85609 0.0
C672 C 0.91297 0.69838 0.82666 0.0
C673 C 0.90827 0.66596 0.80993 0.0
C674 C 0.88742 0.63347 0.8246 0.0
C675 C 0.87001 0.63304 0.85422 0.0
C676 C 0.85043 0.63175 0.09764 0.0
C677 C 0.68735 0.69155 0.84554 0.0
H678 H 0.82362 0.7258 0.27683 0.0
H679 H 0.99804 0.60681 0.57541 0.0
H680 H 0.82026 0.73478 0.46982 0.0
H681 H 0.77844 0.74482 0.43412 0.0
H682 H 0.69996 0.63102 0.42844 0.0
H683 H 0.74271 0.6209 0.46298 0.0
H684 H 0.86733 0.73553 0.42586 0.0
H685 H 0.85609 0.74238 0.36448 0.0
H686 H 0.78322 0.62692 0.34444 0.0
H687 H 0.79496 0.62048 0.40586 0.0
H688 H 0.92159 0.73659 0.45721 0.0
H689 H 0.96732 0.75037 0.41659 0.0
H690 H 0.92365 0.63594 0.38817 0.0
H691 H 0.87724 0.62242 0.42789 0.0
H692 H 0.93143 0.71344 0.54411 0.0
H693 H 0.97749 0.70479 0.5735 0.0
H694 H 0.92591 0.59549 0.5219 0.0
H695 H 0.87998 0.60447 0.49289 0.0
H696 H 0.86764 0.70834 0.58327 0.0
H697 H 0.89042 0.7055 0.64173 0.0
H698 H 0.86319 0.59517 0.61148 0.0
H699 H 0.83935 0.59798 0.55316 0.0
H700 H 0.81211 0.71808 0.54708 0.0
H701 H 0.78123 0.71755 0.59856 0.0
H702 H 0.73509 0.60173 0.59472 0.0
H703 H 0.76667 0.6026 0.54329 0.0
O704 O 0.82794 0.72246 0.30091 0.0
O705 O 0.7908 0.66295 0.29199 0.0
O706 O 0.00535 0.66716 0.59018 0.0
O707 O 0.98065 0.6112 0.56349 0.0
C708 C 0.81309 0.67019 0.48104 0.0
C709 C 0.83814 0.67319 0.45753 0.0
C710 C 0.86794 0.67062 0.4691 0.0
C711 C 0.87152 0.66267 0.50358 0.0
C712 C 0.84577 0.65827 0.5268 0.0
C713 C 0.81659 0.66228 0.51566 0.0
C714 C 0.78449 0.67711 0.46884 0.0
C715 C 0.79374 0.71217 0.46154 0.0
C716 C 0.77005 0.71778 0.44083 0.0
C717 C 0.73637 0.68855 0.42796 0.0
C718 C 0.72598 0.65393 0.4378 0.0
C719 C 0.75011 0.64816 0.45784 0.0
C720 C 0.83221 0.67747 0.42013 0.0
C721 C 0.84927 0.71173 0.40806 0.0
C722 C 0.84265 0.71557 0.37304 0.0
C723 C 0.81878 0.68518 0.34953 0.0
C724 C 0.80179 0.65087 0.36182 0.0
C725 C 0.80847 0.64709 0.39683 0.0
C726 C 0.89629 0.67851 0.44557 0.0
C727 C 0.92179 0.71454 0.44197 0.0
C728 C 0.94761 0.72238 0.41858 0.0
C729 C 0.94875 0.69422 0.39908 0.0
C730 C 0.92318 0.65814 0.40279 0.0
C731 C 0.89694 0.65035 0.42565 0.0
C732 C 0.9026 0.65967 0.51621 0.0
C733 C 0.93057 0.68791 0.53869 0.0
C734 C 0.95658 0.68276 0.55571 0.0
C735 C 0.95508 0.64927 0.55037 0.0
C736 C 0.92768 0.6215 0.5268 0.0
C737 C 0.90168 0.62669 0.50983 0.0
C738 C 0.85201 0.65344 0.56397 0.0
C739 C 0.86536 0.68313 0.58968 0.0
C740 C 0.87853 0.68148 0.62301 0.0
C741 C 0.87898 0.65024 0.63102 0.0
C742 C 0.86326 0.61962 0.60602 0.0
C743 C 0.84967 0.62117 0.57274 0.0
C744 C 0.79155 0.6604 0.54135 0.0
C745 C 0.7946 0.69247 0.55674 0.0
C746 C 0.77726 0.69213 0.58639 0.0
C747 C 0.75619 0.65963 0.60097 0.0
C748 C 0.75124 0.62715 0.58413 0.0
C749 C 0.76905 0.62759 0.55467 0.0
C750 C 0.81158 0.68937 0.3124 0.0
C751 C 0.98187 0.64319 0.56932 0.0
H752 H 0.32389 0.1035 0.27243 0.0
H753 H 0.3644 0.38608 0.57887 0.0
H754 H 0.29442 0.09798 0.46653 0.0
H755 H 0.27547 0.0366 0.4417 0.0
H756 H 0.38343 0.05844 0.4613 0.0
H757 H 0.40257 0.12091 0.48527 0.0
H758 H 0.3008 0.13411 0.41617 0.0
H759 H 0.29967 0.11609 0.35421 0.0
H760 H 0.41485 0.1718 0.36507 0.0
H761 H 0.41558 0.18986 0.42714 0.0
H762 H 0.29243 0.18011 0.44416 0.0
H763 H 0.2707 0.21385 0.41249 0.0
H764 H 0.3775 0.30641 0.42339 0.0
H765 H 0.39942 0.27165 0.45348 0.0
H766 H 0.29943 0.21205 0.52226 0.0
H767 H 0.28946 0.261 0.5434 0.0
H768 H 0.40281 0.33672 0.54943 0.0
H769 H 0.41231 0.28741 0.52811 0.0
H770 H 0.3092 0.16299 0.57351 0.0
H771 H 0.30147 0.18657 0.62979 0.0
H772 H 0.4108 0.27434 0.63792 0.0
H773 H 0.41869 0.24953 0.58193 0.0
H774 H 0.30466 0.10379 0.54042 0.0
H775 H 0.29798 0.06673 0.58808 0.0
H776 H 0.41174 0.12836 0.61677 0.0
H777 H 0.41816 0.16606 0.56892 0.0
O778 O 0.325 0.1112 0.29698 0.0
O779 O 0.38421 0.13951 0.3041 0.0
O780 O 0.30938 0.32665 0.56452 0.0
O781 O 0.36759 0.36633 0.57011 0.0
C782 C 0.36051 0.15151 0.48891 0.0
C783 C 0.35932 0.17377 0.46407 0.0
C784 C 0.3586 0.20519 0.47545 0.0
C785 C 0.36221 0.21606 0.51166 0.0
C786 C 0.36607 0.19514 0.53648 0.0
C787 C 0.36457 0.16245 0.52515 0.0
C788 C 0.34993 0.11389 0.4768 0.0
C789 C 0.31403 0.08957 0.46528 0.0
C790 C 0.30326 0.0546 0.45126 0.0
C791 C 0.32812 0.04311 0.44933 0.0
C792 C 0.36387 0.06689 0.46252 0.0
C793 C 0.37482 0.10236 0.47606 0.0
C794 C 0.3583 0.16367 0.42608 0.0
C795 C 0.32578 0.14279 0.4051 0.0
C796 C 0.32521 0.13235 0.36969 0.0
C797 C 0.35718 0.14253 0.35464 0.0
C798 C 0.38974 0.16353 0.3758 0.0
C799 C 0.39025 0.17395 0.41122 0.0
C800 C 0.34763 0.22318 0.45029 0.0
C801 C 0.31143 0.207 0.43809 0.0
C802 C 0.29898 0.22641 0.42042 0.0
C803 C 0.32244 0.26266 0.41579 0.0
C804 C 0.35893 0.27844 0.4268 0.0
C805 C 0.37152 0.25866 0.44371 0.0
C806 C 0.35656 0.24629 0.52367 0.0
C807 C 0.32202 0.23928 0.52805 0.0
C808 C 0.31643 0.26726 0.54015 0.0
C809 C 0.34536 0.30279 0.54816 0.0
C810 C 0.37996 0.30968 0.54355 0.0
C811 C 0.38549 0.28164 0.53134 0.0
C812 C 0.36461 0.20435 0.57393 0.0
C813 C 0.33197 0.18627 0.58824 0.0
C814 C 0.32751 0.20002 0.62022 0.0
C815 C 0.35543 0.23251 0.6379 0.0
C816 C 0.38883 0.24931 0.62468 0.0
C817 C 0.39344 0.23513 0.59289 0.0
C818 C 0.36188 0.13745 0.55119 0.0
C819 C 0.32823 0.10888 0.55653 0.0
C820 C 0.32447 0.08792 0.58388 0.0
C821 C 0.35436 0.09486 0.60615 0.0
C822 C 0.38834 0.12243 0.59984 0.0
C823 C 0.39203 0.1439 0.57265 0.0
C824 C 0.35643 0.13107 0.31709 0.0
C825 C 0.33954 0.33253 0.56139 0.0
H826 H 0.78832 0.14149 0.26654 0.0
H827 H 0.04039 0.35619 0.63262 0.0
H828 H 0.74527 0.13387 0.46963 0.0
H829 H 0.69925 0.07383 0.4409 0.0
H830 H 0.77933 0.04315 0.43291 0.0
H831 H 0.82433 0.10205 0.46238 0.0
H832 H 0.80343 0.19412 0.41466 0.0
H833 H 0.79122 0.17699 0.35113 0.0
H834 H 0.85629 0.12736 0.35774 0.0
H835 H 0.868 0.1444 0.42119 0.0
H836 H 0.89298 0.274 0.44769 0.0
H837 H 0.94266 0.30682 0.41234 0.0
H838 H 0.97181 0.22499 0.42009 0.0
H839 H 0.92291 0.19301 0.45663 0.0
H840 H 0.89492 0.29145 0.51964 0.0
H841 H 0.94406 0.34227 0.55723 0.0
H842 H 0.98668 0.2738 0.58251 0.0
H843 H 0.9374 0.22324 0.5447 0.0
H844 H 0.855 0.25467 0.57759 0.0
H845 H 0.88241 0.27414 0.63845 0.0
H846 H 0.89647 0.18134 0.63715 0.0
H847 H 0.87034 0.16295 0.57627 0.0
H848 H 0.77374 0.1808 0.55279 0.0
H849 H 0.73677 0.146 0.59796 0.0
H850 H 0.77481 0.07098 0.58339 0.0
H851 H 0.81087 0.10525 0.53826 0.0
O852 O 0.79377 0.14832 0.29162 0.0
O853 O 0.82791 0.12365 0.29637 0.0
O854 O -0.00067 0.3713 0.60166 0.0
O855 O 0.02147 0.33683 0.61666 0.0
C856 C 0.81682 0.15863 0.48249 0.0
C857 C 0.84309 0.18047 0.46103 0.0
C858 C 0.87479 0.21148 0.47625 0.0
C859 C 0.87936 0.22169 0.51266 0.0
C860 C 0.8526 0.20031 0.53397 0.0
C861 C 0.82112 0.16895 0.51889 0.0
C862 C 0.78808 0.12229 0.46744 0.0
C863 C 0.75258 0.11391 0.4619 0.0
C864 C 0.7265 0.07982 0.44555 0.0
C865 C 0.73598 0.05422 0.43431 0.0
C866 C 0.77141 0.06258 0.44082 0.0
C867 C 0.79711 0.09615 0.4576 0.0
C868 C 0.83694 0.17091 0.4224 0.0
C869 C 0.81517 0.17973 0.40226 0.0
C870 C 0.8082 0.16986 0.36601 0.0
C871 C 0.82285 0.15087 0.34933 0.0
C872 C 0.84471 0.14209 0.36971 0.0
C873 C 0.85162 0.15198 0.40594 0.0
C874 C 0.90438 0.23117 0.45455 0.0
C875 C 0.91007 0.26319 0.44173 0.0
C876 C 0.93821 0.28168 0.42146 0.0
C877 C 0.96066 0.26809 0.41337 0.0
C878 C 0.95449 0.23563 0.42561 0.0
C879 C 0.92681 0.21756 0.44654 0.0
C880 C 0.91277 0.25382 0.52935 0.0
C881 C 0.91538 0.28776 0.53263 0.0
C882 C 0.94321 0.31658 0.55448 0.0
C883 C 0.96895 0.31189 0.57334 0.0
C884 C 0.9671 0.27821 0.56865 0.0
C885 C 0.93925 0.24942 0.54677 0.0
C886 C 0.86079 0.20748 0.57262 0.0
C887 C 0.86322 0.23815 0.59084 0.0
C888 C 0.8789 0.24922 0.62548 0.0
C889 C 0.89185 0.2294 0.64232 0.0
C890 C 0.88675 0.19714 0.62483 0.0
C891 C 0.87159 0.18643 0.59014 0.0
C892 C 0.79476 0.14534 0.5421 0.0
C893 C 0.77331 0.15632 0.55885 0.0
C894 C 0.75231 0.13654 0.5846 0.0
C895 C 0.7532 0.10604 0.59432 0.0
C896 C 0.77379 0.09455 0.57658 0.0
C897 C 0.79419 0.11388 0.55058 0.0
C898 C 0.8151 0.14009 0.31087 0.0
C899 C 0.99741 0.34186 0.59804 0.0
H900 H 0.95409 0.53183 0.46579 0.0
H901 H 0.04588 0.3202 0.186 0.0
H902 H 0.93272 0.53686 0.2602 0.0
H903 H 0.94967 0.59867 0.28437 0.0
H904 H 0.05986 0.62639 0.29875 0.0
H905 H 0.04299 0.56559 0.27371 0.0
H906 H 0.92364 0.47063 0.31864 0.0
H907 H 0.92554 0.49044 0.38047 0.0
H908 H 0.0407 0.55115 0.38767 0.0
H909 H 0.03837 0.53119 0.32596 0.0
H910 H 0.93783 0.39025 0.29025 0.0
H911 H 0.95802 0.35435 0.32065 0.0
H912 H 0.06525 0.44626 0.33566 0.0
H913 H 0.04522 0.4813 0.30383 0.0
H914 H 0.92882 0.37382 0.21526 0.0
H915 H 0.94093 0.32537 0.19772 0.0
H916 H 0.05398 0.40325 0.20984 0.0
H917 H 0.04143 0.45132 0.22703 0.0
H918 H 0.91939 0.41091 0.1636 0.0
H919 H 0.92581 0.38529 0.10731 0.0
H920 H 0.03565 0.47169 0.11369 0.0
H921 H 0.02929 0.49619 0.17022 0.0
H922 H 0.91878 0.49381 0.17611 0.0
H923 H 0.92374 0.53097 0.12814 0.0
H924 H 0.03805 0.59214 0.15323 0.0
H925 H 0.0328 0.55558 0.20097 0.0
O926 O 0.95392 0.52399 0.44151 0.0
O927 O 0.01306 0.55502 0.44368 0.0
O928 O 0.9818 0.3002 0.18408 0.0
O929 O 0.04024 0.33886 0.19214 0.0
C930 C 0.97736 0.50953 0.2546 0.0
C931 C 0.97914 0.48812 0.28007 0.0
C932 C 0.98023 0.45673 0.26945 0.0
C933 C 0.97724 0.4455 0.23342 0.0
C934 C 0.97281 0.46556 0.208 0.0
C935 C 0.97347 0.49798 0.21855 0.0
C936 C 0.98665 0.54692 0.26591 0.0
C937 C 0.96048 0.55659 0.26816 0.0
C938 C 0.97017 0.59168 0.28185 0.0
C939 C 0.00595 0.61685 0.29374 0.0
C940 C 0.03206 0.60726 0.29018 0.0
C941 C 0.0225 0.57268 0.27596 0.0
C942 C 0.98083 0.49926 0.31791 0.0
C943 C 0.94923 0.48803 0.33371 0.0
C944 C 0.95041 0.49945 0.36899 0.0
C945 C 0.98328 0.52239 0.38903 0.0
C946 C 0.01493 0.53345 0.37304 0.0
C947 C 0.01369 0.52197 0.3378 0.0
C948 C 0.98996 0.43847 0.29539 0.0
C949 C 0.96542 0.40288 0.30106 0.0
C950 C 0.97704 0.38244 0.31813 0.0
C951 C 0.0132 0.39764 0.3302 0.0
C952 C 0.03721 0.43409 0.32679 0.0
C953 C 0.02572 0.45424 0.30903 0.0
C954 C 0.98425 0.41597 0.22236 0.0
C955 C 0.95613 0.38029 0.21397 0.0
C956 C 0.96315 0.35273 0.204 0.0
C957 C -0.00153 0.36045 0.20241 0.0
C958 C 0.02652 0.39634 0.2108 0.0
C959 C 0.01944 0.42384 0.22062 0.0
C960 C 0.9738 0.45548 0.1707 0.0
C961 C 0.94446 0.4248 0.15222 0.0
C962 C 0.94822 0.41018 0.12025 0.0
C963 C 0.98131 0.42638 0.1064 0.0
C964 C 0.00983 0.45869 0.12375 0.0
C965 C 0.00618 0.47293 0.15588 0.0
C966 C 0.97544 0.52218 0.19196 0.0
C967 C 0.94473 0.51569 0.17149 0.0
C968 C 0.9476 0.53686 0.14424 0.0
C969 C 0.98128 0.56422 0.13693 0.0
C970 C 0.01176 0.57111 0.15817 0.0
C971 C 0.00884 0.55041 0.18554 0.0
C972 C 0.98447 0.53484 0.42638 0.0
C973 C 0.00618 0.33127 0.19227 0.0
H974 H 0.50683 0.53858 0.4755 0.0
H975 H 0.3098 0.26833 0.12438 0.0
H976 H 0.50774 0.55594 0.28278 0.0
H977 H 0.55273 0.61505 0.31183 0.0
H978 H 0.63326 0.58515 0.30255 0.0
H979 H 0.58727 0.52492 0.27426 0.0
H980 H 0.46555 0.51408 0.32427 0.0
H981 H 0.4768 0.52916 0.38797 0.0
H982 H 0.53966 0.477 0.39243 0.0
H983 H 0.52793 0.46186 0.32864 0.0
H984 H 0.4104 0.46607 0.28927 0.0
H985 H 0.3617 0.43383 0.32594 0.0
H986 H 0.38868 0.35007 0.3296 0.0
H987 H 0.43823 0.38317 0.29422 0.0
H988 H 0.39579 0.43834 0.20106 0.0
H989 H 0.34539 0.38954 0.16282 0.0
H990 H 0.38507 0.31763 0.18361 0.0
H991 H 0.43539 0.36675 0.22166 0.0
H992 H 0.46196 0.49554 0.16754 0.0
H993 H 0.43592 0.47674 0.10663 0.0
H994 H 0.45107 0.38464 0.10598 0.0
H995 H 0.47826 0.40446 0.16688 0.0
H996 H 0.52117 0.5533 0.20627 0.0
H997 H 0.55717 0.58786 0.16125 0.0
H998 H 0.5961 0.51358 0.14669 0.0
H999 H 0.55918 0.47848 0.19174 0.0
O1000 O 0.5025 0.53211 0.45035 0.0
O1001 O 0.53451 0.50492 0.45123 0.0
O1002 O 0.31094 0.32651 0.12895 0.0
O1003 O 0.32884 0.28769 0.14025 0.0
C1004 C 0.5156 0.49975 0.26191 0.0
C1005 C 0.48932 0.47766 0.28322 0.0
C1006 C 0.45751 0.44693 0.26779 0.0
C1007 C 0.45291 0.43715 0.2313 0.0
C1008 C 0.47987 0.45851 0.21018 0.0
C1009 C 0.51136 0.48972 0.22546 0.0
C1010 C 0.54423 0.53606 0.27715 0.0
C1011 C 0.53504 0.56203 0.28726 0.0
C1012 C 0.56075 0.59574 0.30376 0.0
C1013 C 0.59632 0.60441 0.30973 0.0
C1014 C 0.60591 0.57894 0.29832 0.0
C1015 C 0.57984 0.54472 0.28223 0.0
C1016 C 0.49561 0.48653 0.32194 0.0
C1017 C 0.48144 0.50562 0.33908 0.0
C1018 C 0.48806 0.51435 0.37547 0.0
C1019 C 0.50908 0.50422 0.39533 0.0
C1020 C 0.5233 0.48515 0.37795 0.0
C1021 C 0.51663 0.47644 0.34155 0.0
C1022 C 0.42791 0.42701 0.28941 0.0
C1023 C 0.4061 0.44105 0.29852 0.0
C1024 C 0.37851 0.42281 0.3195 0.0
C1025 C 0.3718 0.38977 0.33067 0.0
C1026 C 0.39357 0.37568 0.32136 0.0
C1027 C 0.42163 0.39433 0.30107 0.0
C1028 C 0.41902 0.40593 0.21424 0.0
C1029 C 0.39307 0.41179 0.19792 0.0
C1030 C 0.36459 0.38402 0.17577 0.0
C1031 C 0.36153 0.34985 0.16976 0.0
C1032 C 0.38682 0.3437 0.18743 0.0
C1033 C 0.41532 0.37154 0.20953 0.0
C1034 C 0.47198 0.45135 0.1715 0.0
C1035 C 0.46097 0.47213 0.1538 0.0
C1036 C 0.44586 0.46119 0.1191 0.0
C1037 C 0.44108 0.42899 0.10179 0.0
C1038 C 0.45433 0.40951 0.1188 0.0
C1039 C 0.4699 0.42078 0.15346 0.0
C1040 C 0.53773 0.51355 0.20241 0.0
C1041 C 0.53804 0.54491 0.19397 0.0
C1042 C 0.5584 0.56441 0.16804 0.0
C1043 C 0.57922 0.55319 0.15033 0.0
C1044 C 0.58037 0.52282 0.16003 0.0
C1045 C 0.55941 0.50287 0.18571 0.0
C1046 C 0.5162 0.51369 0.43397 0.0
C1047 C 0.33225 0.32077 0.14505 0.0
H1048 H 0.54282 0.98402 0.4769 0.0
H1049 H 0.31264 0.9666 0.15687 0.0
H1050 H 0.58742 0.03513 0.27972 0.0
H1051 H 0.63091 0.02594 0.31407 0.0
H1052 H 0.55321 0.91208 0.31022 0.0
H1053 H 0.51062 0.92118 0.27469 0.0
H1054 H 0.53533 0.03191 0.33919 0.0
H1055 H 0.54554 0.02255 0.39996 0.0
H1056 H 0.46935 0.90821 0.376 0.0
H1057 H 0.45969 0.91796 0.31526 0.0
H1058 H 0.45502 0.03327 0.31762 0.0
H1059 H 0.40888 0.02043 0.35749 0.0
H1060 H 0.36067 0.90603 0.32524 0.0
H1061 H 0.40626 0.91919 0.28452 0.0
H1062 H 0.45123 0.05206 0.25258 0.0
H1063 H 0.40722 0.06318 0.22269 0.0
H1064 H 0.35582 0.95521 0.16765 0.0
H1065 H 0.39938 0.9444 0.19834 0.0
H1066 H 0.49143 0.05902 0.1915 0.0
H1067 H 0.46751 0.0623 0.13341 0.0
H1068 H 0.44055 0.95226 0.10203 0.0
H1069 H 0.46338 0.94893 0.16026 0.0
H1070 H 0.5635 0.0544 0.20106 0.0
H1071 H 0.59557 0.0561 0.14979 0.0
H1072 H 0.55083 0.94043 0.14545 0.0
H1073 H 0.51942 0.93906 0.19672 0.0
O1074 O 0.5382 0.98715 0.45282 0.0
O1075 O 0.4987 0.92862 0.43919 0.0
O1076 O 0.36082 0.04989 0.17138 0.0
O1077 O 0.32191 0.99209 0.15524 0.0
C1078 C 0.517 0.98538 0.26266 0.0
C1079 C 0.49151 0.98161 0.28596 0.0
C1080 C 0.46202 0.98476 0.27452 0.0
C1081 C 0.4589 0.99356 0.24032 0.0
C1082 C 0.48485 -0.00167 0.21722 0.0
C1083 C 0.51394 0.99416 0.22831 0.0
C1084 C 0.5459 0.97884 0.27488 0.0
C1085 C 0.58032 0.00804 0.28523 0.0
C1086 C 0.60489 0.00281 0.30518 0.0
C1087 C 0.59497 0.96846 0.31549 0.0
C1088 C 0.56126 0.93893 0.30318 0.0
C1089 C 0.5371 0.94402 0.28259 0.0
C1090 C 0.49654 0.97569 0.32301 0.0
C1091 C 0.52076 0.00492 0.34722 0.0
C1092 C 0.52657 -0.00053 0.38187 0.0
C1093 C 0.50821 0.96464 0.39287 0.0
C1094 C 0.48385 0.9354 0.36844 0.0
C1095 C 0.47811 0.9409 0.33379 0.0
C1096 C 0.43374 0.97719 0.29804 0.0
C1097 C 0.4344 0.00549 0.31906 0.0
C1098 C 0.40829 -0.00192 0.34198 0.0
C1099 C 0.38151 0.9622 0.34463 0.0
C1100 C 0.38132 0.93384 0.32403 0.0
C1101 C 0.40705 0.94134 0.30059 0.0
C1102 C 0.42822 -0.00268 0.22788 0.0
C1103 C 0.42973 0.0305 0.23489 0.0
C1104 C 0.40486 0.03694 0.21736 0.0
C1105 C 0.37784 0.01019 0.19265 0.0
C1106 C 0.37566 0.97638 0.18681 0.0
C1107 C 0.40056 0.97 0.20441 0.0
C1108 C 0.47885 0.00364 0.18014 0.0
C1109 C 0.48115 0.036 0.17172 0.0
C1110 C 0.46751 0.03782 0.13857 0.0
C1111 C 0.45181 0.0074 0.11333 0.0
C1112 C 0.45238 0.97612 0.12095 0.0
C1113 C 0.4656 0.9742 0.15415 0.0
C1114 C 0.53926 0.99661 0.20272 0.0
C1115 C 0.56152 0.02963 0.1896 0.0
C1116 C 0.57962 0.03055 0.16024 0.0
C1117 C 0.57522 -0.00167 0.14332 0.0
C1118 C 0.5544 0.96565 0.1577 0.0
C1119 C 0.53675 0.96483 0.18724 0.0
C1120 C 0.51464 0.9589 0.42964 0.0
C1121 C 0.35308 0.01844 0.17246 0.0
H1122 H 0.49373 0.06626 0.61353 0.0
H1123 H 0.66525 0.94006 0.90908 0.0
H1124 H 0.48736 0.06924 0.80485 0.0
H1125 H 0.44545 0.07874 0.76861 0.0
H1126 H 0.36839 0.96442 0.7613 0.0
H1127 H 0.41124 0.95487 0.79637 0.0
H1128 H 0.5361 0.07169 0.76206 0.0
H1129 H 0.52549 0.08032 0.70116 0.0
H1130 H 0.45283 0.96509 0.67807 0.0
H1131 H 0.46395 0.95687 0.73904 0.0
H1132 H 0.59017 0.07126 0.79143 0.0
H1133 H 0.63567 0.08456 0.7506 0.0
H1134 H 0.59098 0.96997 0.72221 0.0
H1135 H 0.54482 0.95694 0.76212 0.0
H1136 H 0.59954 0.04753 0.87825 0.0
H1137 H 0.64548 0.03856 0.90741 0.0
H1138 H 0.59331 0.92928 0.85567 0.0
H1139 H 0.54754 0.93861 0.82685 0.0
H1140 H 0.53529 0.04211 0.91768 0.0
H1141 H 0.55802 0.03896 0.97603 0.0
H1142 H 0.53103 0.92883 0.94512 0.0
H1143 H 0.50719 0.93192 0.8869 0.0
H1144 H 0.47956 0.05197 0.88146 0.0
H1145 H 0.44823 0.05096 0.9327 0.0
H1146 H 0.40259 0.93518 0.92839 0.0
H1147 H 0.43463 0.93653 0.87718 0.0
O1148 O 0.49786 0.0622 0.63739 0.0
O1149 O 0.46087 0.00276 0.62686 0.0
O1150 O 0.67314 0.00066 0.92377 0.0
O1151 O 0.64793 0.94459 0.89724 0.0
C1152 C 0.48119 0.00487 0.81537 0.0
C1153 C 0.50649 0.00834 0.79196 0.0
C1154 C 0.53612 0.00545 0.80341 0.0
C1155 C 0.53947 -0.00297 0.83775 0.0
C1156 C 0.51363 0.99243 0.86093 0.0
C1157 C 0.48449 0.99652 0.84985 0.0
C1158 C 0.45232 0.01137 0.8031 0.0
C1159 C 0.4611 0.04638 0.79612 0.0
C1160 C 0.43738 0.0517 0.77508 0.0
C1161 C 0.40411 0.02218 0.76158 0.0
C1162 C 0.3941 0.98755 0.77114 0.0
C1163 C 0.41828 0.9821 0.79149 0.0
C1164 C 0.50105 0.01363 0.75478 0.0
C1165 C 0.51824 0.04833 0.74369 0.0
C1166 C 0.51197 0.05318 0.70894 0.0
C1167 C 0.48832 0.02339 0.68472 0.0
C1168 C 0.47123 0.98861 0.69601 0.0
C1169 C 0.47757 0.98381 0.73076 0.0
C1170 C 0.56439 0.01313 0.77982 0.0
C1171 C 0.59009 0.04908 0.77615 0.0
C1172 C 0.61578 0.05665 0.75265 0.0
C1173 C 0.61657 0.0283 0.7331 0.0
C1174 C 0.59079 0.99232 0.73687 0.0
C1175 C 0.56469 0.9848 0.75984 0.0
C1176 C 0.57045 0.99381 0.85027 0.0
C1177 C 0.59853 0.02195 0.87274 0.0
C1178 C 0.62447 0.01661 0.88963 0.0
C1179 C 0.62276 0.98302 0.8842 0.0
C1180 C 0.59524 0.95535 0.86064 0.0
C1181 C 0.56933 0.96075 0.84378 0.0
C1182 C 0.51978 0.98733 0.89804 0.0
C1183 C 0.53304 0.01687 0.92391 0.0
C1184 C 0.5462 0.01504 0.95719 0.0
C1185 C 0.54671 0.98378 0.96498 0.0
C1186 C 0.53105 0.95329 0.93983 0.0
C1187 C 0.51747 0.95501 0.9066 0.0
C1188 C 0.4593 0.99435 0.87549 0.0
C1189 C 0.46208 0.02626 0.89096 0.0
C1190 C 0.44447 0.02565 0.92048 0.0
C1191 C 0.4234 0.99302 0.93485 0.0
C1192 C 0.41873 0.96069 0.91795 0.0
C1193 C 0.43682 0.9614 0.88862 0.0
C1194 C 0.48144 0.02867 0.6479 0.0
C1195 C 0.64946 0.97673 0.90304 0.0
H1196 H 0.98271 0.42994 0.60704 0.0
H1197 H 0.01137 0.71005 0.90849 0.0
H1198 H 0.95658 0.4274 0.80077 0.0
H1199 H 0.93949 0.36656 0.7758 0.0
H1200 H 0.04865 0.392 0.79539 0.0
H1201 H 0.06589 0.45392 0.81947 0.0
H1202 H 0.96123 0.46398 0.75041 0.0
H1203 H 0.95943 0.44471 0.68864 0.0
H1204 H 0.07458 0.4999 0.6985 0.0
H1205 H 0.07598 0.51925 0.76035 0.0
H1206 H 0.95305 0.51112 0.77597 0.0
H1207 H 0.93302 0.54607 0.74399 0.0
H1208 H 0.04071 0.63718 0.75682 0.0
H1209 H 0.06088 0.60129 0.78732 0.0
H1210 H 0.95685 0.53791 0.85345 0.0
H1211 H 0.94293 0.58444 0.87295 0.0
H1212 H 0.05511 0.66509 0.88187 0.0
H1213 H 0.06859 0.61816 0.86208 0.0
H1214 H 0.97091 0.49431 0.90866 0.0
H1215 H 0.96466 0.519 0.96512 0.0
H1216 H 0.07361 0.60701 0.96986 0.0
H1217 H 0.07995 0.58124 0.91364 0.0
H1218 H 0.96703 0.43491 0.87536 0.0
H1219 H 0.96176 0.39829 0.92307 0.0
H1220 H 0.07576 0.46134 0.95 0.0
H1221 H 0.08073 0.49857 0.90209 0.0
O1222 O 0.98409 0.43824 0.63147 0.0
O1223 O 0.04331 0.46648 0.63803 0.0
O1224 O 0.9587 0.64915 0.89266 0.0
O1225 O 0.01621 0.69124 0.90045 0.0
C1226 C 0.02202 0.48242 0.82281 0.0
C1227 C 0.02009 0.50405 0.79766 0.0
C1228 C 0.01856 0.5351 0.8087 0.0
C1229 C 0.02153 0.54593 0.84482 0.0
C1230 C 0.02654 0.5259 0.8699 0.0
C1231 C 0.02607 0.49367 0.85896 0.0
C1232 C 0.01251 0.44503 0.81107 0.0
C1233 C 0.97682 0.41986 0.79956 0.0
C1234 C 0.96713 0.38522 0.78543 0.0
C1235 C 0.99288 0.37494 0.78341 0.0
C1236 C 0.02841 0.39953 0.79668 0.0
C1237 C 0.03828 0.43468 0.81031 0.0
C1238 C 0.01877 0.49346 0.75974 0.0
C1239 C 0.98606 0.47235 0.7391 0.0
C1240 C 0.9851 0.46116 0.70383 0.0
C1241 C 0.01687 0.4708 0.68858 0.0
C1242 C 0.04962 0.49205 0.70939 0.0
C1243 C 0.05051 0.50322 0.74468 0.0
C1244 C 0.00854 0.55344 0.78314 0.0
C1245 C 0.97261 0.53794 0.77024 0.0
C1246 C 0.96114 0.55804 0.75239 0.0
C1247 C 0.98533 0.59425 0.74825 0.0
C1248 C 0.02158 0.60926 0.75985 0.0
C1249 C 0.03318 0.58883 0.77698 0.0
C1250 C 0.01369 0.57475 0.85637 0.0
C1251 C 0.97835 0.56568 0.85955 0.0
C1252 C 0.97049 0.59229 0.87071 0.0
C1253 C 0.99792 0.62851 0.87901 0.0
C1254 C 0.03336 0.63747 0.87573 0.0
C1255 C 0.04117 0.61078 0.86443 0.0
C1256 C 0.02598 0.53584 0.90735 0.0
C1257 C 0.99391 0.51796 0.92266 0.0
C1258 C 0.99031 0.53232 0.95474 0.0
C1259 C 0.01854 0.56515 0.97155 0.0
C1260 C 0.05141 0.58173 0.95732 0.0
C1261 C 0.05514 0.56701 0.9254 0.0
C1262 C 0.02424 0.46925 0.88528 0.0
C1263 C 0.99094 0.44045 0.89115 0.0
C1264 C 0.98799 0.41973 0.91851 0.0
C1265 C 0.01837 0.42715 0.94028 0.0
C1266 C 0.05199 0.45503 0.93347 0.0
C1267 C 0.05486 0.47624 0.90626 0.0
C1268 C 0.01571 0.45847 0.6512 0.0
C1269 C 0.98962 0.65681 0.89108 0.0
H1270 H 0.45532 0.4738 0.59991 0.0
H1271 H 0.70643 0.69154 0.96523 0.0
H1272 H 0.41171 0.46672 0.80281 0.0
H1273 H 0.36599 0.40665 0.7739 0.0
H1274 H 0.44649 0.3765 0.76637 0.0
H1275 H 0.4912 0.43544 0.79604 0.0
H1276 H 0.46959 0.5267 0.7478 0.0
H1277 H 0.45765 0.50936 0.6843 0.0
H1278 H 0.52367 0.46083 0.6916 0.0
H1279 H 0.5351 0.47807 0.75502 0.0
H1280 H 0.5587 0.60701 0.78057 0.0
H1281 H 0.60831 0.63986 0.74514 0.0
H1282 H 0.63859 0.55901 0.75413 0.0
H1283 H 0.58977 0.527 0.79075 0.0
H1284 H 0.56053 0.62483 0.85246 0.0
H1285 H 0.60955 0.67614 0.8897 0.0
H1286 H 0.65289 0.60855 0.91604 0.0
H1287 H 0.60372 0.55749 0.8786 0.0
H1288 H 0.52073 0.58815 0.91065 0.0
H1289 H 0.54797 0.60796 0.97155 0.0
H1290 H 0.56263 0.51556 0.97097 0.0
H1291 H 0.53667 0.49684 0.91006 0.0
H1292 H 0.43978 0.51367 0.88612 0.0
H1293 H 0.40284 0.47866 0.93122 0.0
H1294 H 0.4416 0.40423 0.91673 0.0
H1295 H 0.47763 0.43871 0.87171 0.0
O1296 O 0.46067 0.48073 0.62498 0.0
O1297 O 0.49531 0.45665 0.63009 0.0
O1298 O 0.66489 0.70588 0.93405 0.0
O1299 O 0.68753 0.67196 0.94946 0.0
C1300 C 0.48329 0.49183 0.81593 0.0
C1301 C 0.50955 0.51373 0.7945 0.0
C1302 C 0.54108 0.54491 0.80972 0.0
C1303 C 0.5455 0.55524 0.84609 0.0
C1304 C 0.51876 0.53379 0.86738 0.0
C1305 C 0.48745 0.50223 0.8523 0.0
C1306 C 0.45471 0.45541 0.80089 0.0
C1307 C 0.41917 0.44687 0.79517 0.0
C1308 C 0.39326 0.41276 0.77869 0.0
C1309 C 0.40296 0.38731 0.76752 0.0
C1310 C 0.43841 0.39582 0.77423 0.0
C1311 C 0.46395 0.42941 0.79112 0.0
C1312 C 0.50355 0.50405 0.75589 0.0
C1313 C 0.48159 0.51251 0.73556 0.0
C1314 C 0.47478 0.50252 0.69933 0.0
C1315 C 0.48977 0.48377 0.68284 0.0
C1316 C 0.51181 0.47537 0.70341 0.0
C1317 C 0.51857 0.48537 0.73962 0.0
C1318 C 0.57069 0.56468 0.78807 0.0
C1319 C 0.57603 0.59643 0.77488 0.0
C1320 C 0.60412 0.61493 0.75457 0.0
C1321 C 0.62686 0.6016 0.74678 0.0
C1322 C 0.62105 0.56942 0.75941 0.0
C1323 C 0.59341 0.55135 0.78039 0.0
C1324 C 0.57874 0.58759 0.86274 0.0
C1325 C 0.58111 0.62143 0.86563 0.0
C1326 C 0.60888 0.65053 0.88726 0.0
C1327 C 0.63479 0.64625 0.9063 0.0
C1328 C 0.63317 0.61265 0.90204 0.0
C1329 C 0.60538 0.58357 0.88037 0.0
C1330 C 0.52683 0.54114 0.90604 0.0
C1331 C 0.52904 0.57179 0.92407 0.0
C1332 C 0.54462 0.58305 0.95874 0.0
C1333 C 0.5577 0.56345 0.97579 0.0
C1334 C 0.55281 0.5312 0.95848 0.0
C1335 C 0.53774 0.5203 0.92377 0.0
C1336 C 0.46115 0.47852 0.87549 0.0
C1337 C 0.43952 0.48928 0.8922 0.0
C1338 C 0.41854 0.46938 0.9179 0.0
C1339 C 0.41963 0.43898 0.92761 0.0
C1340 C 0.44042 0.42771 0.90992 0.0
C1341 C 0.4608 0.44716 0.88399 0.0
C1342 C 0.48219 0.47286 0.64441 0.0
C1343 C 0.66322 0.67655 0.93074 0.0
H1344 H 0.61251 0.86067 0.79803 0.0
H1345 H 0.71052 0.65319 0.51886 0.0
H1346 H 0.59723 0.87015 0.59323 0.0
H1347 H 0.61537 0.9323 0.61747 0.0
H1348 H 0.7247 0.95738 0.6329 0.0
H1349 H 0.70669 0.89629 0.60784 0.0
H1350 H 0.58547 0.80138 0.6505 0.0
H1351 H 0.58592 0.82018 0.71229 0.0
H1352 H 0.70114 0.88098 0.72215 0.0
H1353 H 0.70028 0.86207 0.66048 0.0
H1354 H 0.60159 0.72144 0.62304 0.0
H1355 H 0.62259 0.68612 0.65334 0.0
H1356 H 0.72911 0.77921 0.66879 0.0
H1357 H 0.7083 0.81366 0.63704 0.0
H1358 H 0.59257 0.70573 0.54771 0.0
H1359 H 0.6051 0.6576 0.53001 0.0
H1360 H 0.71805 0.73587 0.54322 0.0
H1361 H 0.70508 0.78362 0.56057 0.0
H1362 H 0.58364 0.74338 0.49603 0.0
H1363 H 0.59071 0.71857 0.43959 0.0
H1364 H 0.70057 0.80516 0.44747 0.0
H1365 H 0.69358 0.82881 0.50414 0.0
H1366 H 0.58328 0.82648 0.50864 0.0
H1367 H 0.58929 0.8638 0.46054 0.0
H1368 H 0.70336 0.92452 0.4874 0.0
H1369 H 0.69709 0.88782 0.53528 0.0
O1370 O 0.61291 0.85319 0.77378 0.0
O1371 O 0.67214 0.88347 0.77758 0.0
O1372 O 0.64634 0.63285 0.51647 0.0
O1373 O 0.70471 0.67171 0.52509 0.0
C1374 C 0.64071 0.84133 0.58793 0.0
C1375 C 0.64194 0.81954 0.61327 0.0
C1376 C 0.64327 0.78831 0.60255 0.0
C1377 C 0.64068 0.77739 0.56649 0.0
C1378 C 0.63654 0.79769 0.54117 0.0
C1379 C 0.63723 0.8301 0.55185 0.0
C1380 C 0.65066 0.87888 0.59949 0.0
C1381 C 0.62507 0.88937 0.60147 0.0
C1382 C 0.63544 0.92465 0.61519 0.0
C1383 C 0.6713 0.9492 0.62737 0.0
C1384 C 0.69684 0.93876 0.62411 0.0
C1385 C 0.68662 0.904 0.60988 0.0
C1386 C 0.6428 0.83012 0.65109 0.0
C1387 C 0.61076 0.81858 0.66614 0.0
C1388 C 0.61111 0.82943 0.7014 0.0
C1389 C 0.64358 0.85208 0.72219 0.0
C1390 C 0.67567 0.86347 0.70694 0.0
C1391 C 0.67525 0.85258 0.67171 0.0
C1392 C 0.6533 0.77022 0.62844 0.0
C1393 C 0.62918 0.73444 0.63393 0.0
C1394 C 0.64127 0.71433 0.65094 0.0
C1395 C 0.67748 0.73005 0.66311 0.0
C1396 C 0.70104 0.76664 0.65985 0.0
C1397 C 0.68909 0.78646 0.64215 0.0
C1398 C 0.64792 0.74804 0.55538 0.0
C1399 C 0.61995 0.71235 0.54663 0.0
C1400 C 0.62721 0.68497 0.53657 0.0
C1401 C 0.66262 0.6929 0.53524 0.0
C1402 C 0.69052 0.72881 0.54399 0.0
C1403 C 0.6832 0.75612 0.55389 0.0
C1404 C 0.63801 0.78799 0.50388 0.0
C1405 C 0.60886 0.75747 0.48496 0.0
C1406 C 0.61299 0.74333 0.4529 0.0
C1407 C 0.64625 0.75985 0.43939 0.0
C1408 C 0.67461 0.79196 0.45723 0.0
C1409 C 0.6706 0.8057 0.48945 0.0
C1410 C 0.63976 0.85464 0.52541 0.0
C1411 C 0.60941 0.84833 0.50441 0.0
C1412 C 0.61286 0.86958 0.47708 0.0
C1413 C 0.64679 0.89681 0.47021 0.0
C1414 C 0.6769 0.90357 0.492 0.0
C1415 C 0.67338 0.88282 0.51946 0.0
C1416 C 0.64389 0.86391 0.75952 0.0
C1417 C 0.67057 0.66393 0.52498 0.0
H1418 H 0.17398 0.87126 0.80944 0.0
H1419 H 0.97601 0.60312 0.45652 0.0
H1420 H 0.1747 0.88928 0.61693 0.0
H1421 H 0.22004 0.9483 0.64583 0.0
H1422 H 0.30009 0.91787 0.63561 0.0
H1423 H 0.25375 0.85772 0.60746 0.0
H1424 H 0.13233 0.84741 0.65831 0.0
H1425 H 0.14378 0.86225 0.72203 0.0
H1426 H 0.20626 0.80966 0.72578 0.0
H1427 H 0.19433 0.79475 0.66197 0.0
H1428 H 0.07703 0.79991 0.62315 0.0
H1429 H 0.02821 0.76778 0.65971 0.0
H1430 H 0.0544 0.68343 0.66297 0.0
H1431 H 0.10408 0.71642 0.62768 0.0
H1432 H 0.06212 0.7724 0.53505 0.0
H1433 H 0.01173 0.72405 0.49645 0.0
H1434 H 0.05087 0.65152 0.51639 0.0
H1435 H 0.10118 0.7002 0.55481 0.0
H1436 H 0.1283 0.8293 0.50144 0.0
H1437 H 0.1022 0.81077 0.44052 0.0
H1438 H 0.11697 0.71841 0.43934 0.0
H1439 H 0.1442 0.73794 0.50023 0.0
H1440 H 0.18804 0.88676 0.54 0.0
H1441 H 0.22396 0.92103 0.49478 0.0
H1442 H 0.26201 0.84605 0.47997 0.0
H1443 H 0.22517 0.81124 0.5252 0.0
O1444 O 0.16957 0.86487 0.78427 0.0
O1445 O 0.20139 0.83747 0.78478 0.0
O1446 O 0.97713 0.66128 0.46205 0.0
O1447 O 0.99497 0.62226 0.47263 0.0
C1448 C 0.1821 0.83292 0.59558 0.0
C1449 C 0.15576 0.81091 0.61689 0.0
C1450 C 0.1238 0.78036 0.60145 0.0
C1451 C 0.11908 0.77068 0.56493 0.0
C1452 C 0.14608 0.79196 0.5438 0.0
C1453 C 0.17773 0.82297 0.5591 0.0
C1454 C 0.21092 0.86913 0.61084 0.0
C1455 C 0.20197 0.89522 0.62119 0.0
C1456 C 0.22788 0.92888 0.6376 0.0
C1457 C 0.26343 0.93739 0.64325 0.0
C1458 C 0.27277 0.91178 0.63163 0.0
C1459 C 0.2465 0.87761 0.61562 0.0
C1460 C 0.16217 0.81965 0.65562 0.0
C1461 C 0.14816 0.83879 0.67297 0.0
C1462 C 0.1549 0.84739 0.70937 0.0
C1463 C 0.17588 0.83708 0.72904 0.0
C1464 C 0.18994 0.81795 0.71145 0.0
C1465 C 0.18315 0.80937 0.67504 0.0
C1466 C 0.09417 0.76054 0.62309 0.0
C1467 C 0.07254 0.77478 0.6323 0.0
C1468 C 0.04488 0.7566 0.65322 0.0
C1469 C 0.03789 0.72341 0.66424 0.0
C1470 C 0.05949 0.70914 0.65485 0.0
C1471 C 0.08764 0.72773 0.63461 0.0
C1472 C 0.08508 0.73965 0.54784 0.0
C1473 C 0.05927 0.7458 0.53166 0.0
C1474 C 0.0308 0.71828 0.5093 0.0
C1475 C 0.02761 0.68408 0.50293 0.0
C1476 C 0.05273 0.67763 0.52048 0.0
C1477 C 0.08121 0.7052 0.54281 0.0
C1478 C 0.13812 0.78494 0.50513 0.0
C1479 C 0.1272 0.80589 0.48758 0.0
C1480 C 0.11206 0.7951 0.45288 0.0
C1481 C 0.10717 0.76292 0.43542 0.0
C1482 C 0.12031 0.74327 0.45228 0.0
C1483 C 0.13591 0.75438 0.48694 0.0
C1484 C 0.20417 0.84669 0.53602 0.0
C1485 C 0.20471 0.87816 0.52761 0.0
C1486 C 0.22502 0.89749 0.50156 0.0
C1487 C 0.24555 0.88598 0.48372 0.0
C1488 C 0.2465 0.85551 0.49341 0.0
C1489 C 0.22559 0.83573 0.5192 0.0
C1490 C 0.18312 0.8464 0.76769 0.0
C1491 C -0.00162 0.65531 0.47794 0.0
H1492 H 0.21381 0.32195 0.8109 0.0
H1493 H 0.97789 0.3375 0.47776 0.0
H1494 H 0.25587 0.36891 0.61226 0.0
H1495 H 0.2992 0.35919 0.64622 0.0
H1496 H 0.22016 0.24595 0.64417 0.0
H1497 H 0.17768 0.25554 0.60905 0.0
H1498 H 0.20542 0.36748 0.67218 0.0
H1499 H 0.21628 0.35907 0.73313 0.0
H1500 H 0.13783 0.24511 0.71162 0.0
H1501 H 0.12752 0.25389 0.65067 0.0
H1502 H 0.12449 0.36785 0.65421 0.0
H1503 H 0.07827 0.35422 0.69421 0.0
H1504 H 0.02822 0.24054 0.65761 0.0
H1505 H 0.0739 0.25453 0.61686 0.0
H1506 H 0.1216 0.38825 0.58923 0.0
H1507 H 0.07783 0.40131 0.56202 0.0
H1508 H 0.0226 0.29425 0.50505 0.0
H1509 H 0.0666 0.28153 0.5326 0.0
H1510 H 0.15905 0.39344 0.52508 0.0
H1511 H 0.13528 0.39643 0.46678 0.0
H1512 H 0.10799 0.28614 0.43623 0.0
H1513 H 0.13063 0.28308 0.49465 0.0
H1514 H 0.23113 0.3883 0.53427 0.0
H1515 H 0.26285 0.38948 0.48288 0.0
H1516 H 0.21747 0.27375 0.47901 0.0
H1517 H 0.18641 0.27291 0.53043 0.0
O1518 O 0.20896 0.3247 0.78675 0.0
O1519 O 0.16832 0.26633 0.77438 0.0
O1520 O 0.02457 0.38726 0.51916 0.0
O1521 O 0.99494 0.33249 0.48942 0.0
C1522 C 0.18501 0.31997 0.59643 0.0
C1523 C 0.15996 0.31676 0.62005 0.0
C1524 C 0.13052 0.32008 0.60887 0.0
C1525 C 0.12717 0.32883 0.57469 0.0
C1526 C 0.15265 0.33297 0.55123 0.0
C1527 C 0.18161 0.32845 0.56202 0.0
C1528 C 0.21367 0.31295 0.60834 0.0
C1529 C 0.24841 0.34181 0.61807 0.0
C1530 C 0.2729 0.33629 0.63779 0.0
C1531 C 0.26259 0.302 0.6485 0.0
C1532 C 0.22852 0.27276 0.6368 0.0
C1533 C 0.20443 0.27812 0.61644 0.0
C1534 C 0.16547 0.31137 0.65719 0.0
C1535 C 0.19052 0.34077 0.68078 0.0
C1536 C 0.19669 0.33586 0.71553 0.0
C1537 C 0.17787 0.30142 0.72728 0.0
C1538 C 0.1527 0.27201 0.70347 0.0
C1539 C 0.1466 0.27697 0.66871 0.0
C1540 C 0.10225 0.31222 0.63247 0.0
C1541 C 0.10345 0.34008 0.65475 0.0
C1542 C 0.07731 0.33219 0.67774 0.0
C1543 C 0.04999 0.29628 0.67919 0.0
C1544 C 0.04928 0.26835 0.65734 0.0
C1545 C 0.07504 0.27634 0.63385 0.0
C1546 C 0.09712 0.33392 0.56301 0.0
C1547 C 0.09958 0.36739 0.57147 0.0
C1548 C 0.07481 0.37492 0.55555 0.0
C1549 C 0.04703 0.349 0.53096 0.0
C1550 C 0.04384 0.31491 0.52364 0.0
C1551 C 0.0687 0.30743 0.53958 0.0
C1552 C 0.14629 0.33795 0.51413 0.0
C1553 C 0.14868 0.37027 0.50545 0.0
C1554 C 0.13515 0.37194 0.47218 0.0
C1555 C 0.11947 0.3414 0.44709 0.0
C1556 C 0.11984 0.3101 0.45502 0.0
C1557 C 0.13294 0.30833 0.48834 0.0
C1558 C 0.20659 0.33052 0.53619 0.0
C1559 C 0.22892 0.3634 0.52287 0.0
C1560 C 0.24682 0.36402 0.49345 0.0
C1561 C 0.24216 0.33165 0.47664 0.0
C1562 C 0.22124 0.29909 0.49117 0.0
C1563 C 0.20379 0.29857 0.52079 0.0
C1564 C 0.18465 0.29628 0.76417 0.0
C1565 C 0.02163 0.35755 0.51287 0.0
loop_
_geom_bond_atom_site_label_1
_geom_bond_atom_site_label_2
_geom_bond_distance
_geom_bond_site_symmetry_2
_ccdc_geom_bond_type
In0 O1 2.292 1_455 S
In0 O2 2.326 . S
In0 O6 2.265 1_455 S
In0 O7 2.326 1_454 S
In0 O8 2.267 1_554 S
In0 O9 2.324 1_454 S
In0 O11 2.296 . S
In0 O12 2.327 . S
O1 In0 2.292 1_655 S
O1 C10 1.256 . S
O2 In0 2.326 . S
O2 C10 1.222 1_455 S
C3 O6 1.252 1_556 S
C3 O7 1.260 . S
C4 O11 1.240 . S
C4 O12 1.252 . S
C5 O8 1.252 . S
C5 O9 1.260 1_455 S
O6 In0 2.265 1_655 S
O6 C3 1.252 1_554 S
O7 In0 2.326 1_656 S
O7 C3 1.260 . S
O8 In0 2.267 1_556 S
O8 C5 1.252 . S
O9 In0 2.324 1_656 S
O9 C5 1.260 1_655 S
C10 O1 1.256 . S
C10 O2 1.222 1_655 S
O11 In0 2.296 . S
O11 C4 1.240 . S
O12 In0 2.327 . S
O12 C4 1.252 . S
In13 O14 2.294 . S
In13 O15 2.326 . S
In13 O19 2.266 . S
In13 O20 2.326 . S
In13 O21 2.266 . S
In13 O22 2.326 . S
In13 O24 2.294 . S
In13 O25 2.326 . S
O14 In13 2.294 . S
O14 C23 1.240 . S
O15 In13 2.326 . S
O15 C23 1.252 . S
C16 O19 1.252 . S
C16 O20 1.260 . S
C17 O24 1.240 . S
C17 O25 1.252 . S
C18 O21 1.252 . S
C18 O22 1.260 . S
O19 In13 2.266 . S
O19 C16 1.252 . S
O20 In13 2.326 . S
O20 C16 1.260 . S
O21 In13 2.266 . S
O21 C18 1.252 . S
O22 In13 2.326 . S
O22 C18 1.260 . S
C23 O14 1.240 . S
C23 O15 1.252 . S
O24 In13 2.294 . S
O24 C17 1.240 . S
O25 In13 2.326 . S
O25 C17 1.252 . S
In26 O27 2.312 . S
In26 O28 2.336 1_554 S
In26 O32 2.270 . S
In26 O33 2.312 1_545 S
In26 O34 2.255 1_545 S
In26 O35 2.328 1_545 S
In26 O37 2.283 1_544 S
In26 O38 2.327 1_554 S
O27 In26 2.312 . S
O27 C36 1.240 1_554 S
O28 In26 2.336 1_556 S
O28 C36 1.252 . S
C29 O32 1.252 . S
C29 O33 1.260 1_545 S
C30 O37 1.240 . S
C30 O38 1.252 1_565 S
C31 O34 1.252 . S
C31 O35 1.260 . S
O32 In26 2.270 . S
O32 C29 1.252 . S
O33 In26 2.312 1_565 S
O33 C29 1.260 1_565 S
O34 In26 2.255 1_565 S
O34 C31 1.252 . S
O35 In26 2.328 1_565 S
O35 C31 1.260 . S
C36 O27 1.240 1_556 S
C36 O28 1.252 . S
O37 In26 2.283 1_566 S
O37 C30 1.240 . S
O38 In26 2.327 1_556 S
O38 C30 1.252 1_545 S
In39 O40 2.294 . S
In39 O41 2.326 1_455 S
In39 O45 2.266 . S
In39 O46 2.326 . S
In39 O47 2.266 1_455 S
In39 O48 2.326 . S
In39 O50 2.294 1_455 S
In39 O51 2.326 1_455 S
O40 In39 2.294 . S
O40 C49 1.240 1_554 S
O41 In39 2.326 1_655 S
O41 C49 1.252 1_654 S
C42 O45 1.252 . S
C42 O46 1.260 . S
C43 O50 1.240 . S
C43 O51 1.252 . S
C44 O47 1.252 . S
C44 O48 1.260 1_655 S
O45 In39 2.266 . S
O45 C42 1.252 . S
O46 In39 2.326 . S
O46 C42 1.260 . S
O47 In39 2.266 1_655 S
O47 C44 1.252 . S
O48 In39 2.326 . S
O48 C44 1.260 1_455 S
C49 O40 1.240 1_556 S
C49 O41 1.252 1_456 S
O50 In39 2.294 1_655 S
O50 C43 1.240 . S
O51 In39 2.326 1_655 S
O51 C43 1.252 . S
In52 O53 2.294 1_554 S
In52 O54 2.326 1_554 S
In52 O58 2.266 . S
In52 O59 2.326 . S
In52 O60 2.266 . S
In52 O61 2.326 . S
In52 O63 2.294 1_554 S
In52 O64 2.326 1_554 S
O53 In52 2.294 1_556 S
O53 C62 1.240 . S
O54 In52 2.326 1_556 S
O54 C62 1.252 . S
C55 O58 1.252 . S
C55 O59 1.260 . S
C56 O63 1.240 . S
C56 O64 1.252 . S
C57 O60 1.252 . S
C57 O61 1.260 . S
O58 In52 2.266 . S
O58 C55 1.252 . S
O59 In52 2.326 . S
O59 C55 1.260 . S
O60 In52 2.266 . S
O60 C57 1.252 . S
O61 In52 2.326 . S
O61 C57 1.260 . S
C62 O53 1.240 . S
C62 O54 1.252 . S
O63 In52 2.294 1_556 S
O63 C56 1.240 . S
O64 In52 2.326 1_556 S
O64 C56 1.252 . S
In65 O66 2.293 . S
In65 O67 2.326 1_545 S
In65 O71 2.265 . S
In65 O72 2.326 . S
In65 O73 2.267 1_544 S
In65 O74 2.324 . S
In65 O76 2.296 1_545 S
In65 O77 2.327 1_545 S
O66 In65 2.293 . S
O66 C75 1.240 . S
O67 In65 2.326 1_565 S
O67 C75 1.252 1_565 S
C68 O71 1.252 . S
C68 O72 1.260 . S
C69 O76 1.240 . S
C69 O77 1.252 . S
C70 O73 1.252 . S
C70 O74 1.260 1_566 S
O71 In65 2.265 . S
O71 C68 1.252 . S
O72 In65 2.326 . S
O72 C68 1.260 . S
O73 In65 2.267 1_566 S
O73 C70 1.252 . S
O74 In65 2.324 . S
O74 C70 1.260 1_544 S
C75 O66 1.240 . S
C75 O67 1.252 1_545 S
O76 In65 2.296 1_565 S
O76 C69 1.240 . S
O77 In65 2.327 1_565 S
O77 C69 1.252 . S
In78 O79 2.294 . S
In78 O80 2.326 . S
In78 O84 2.266 . S
In78 O85 2.326 . S
In78 O86 2.266 . S
In78 O87 2.326 . S
In78 O89 2.294 . S
In78 O90 2.326 . S
O79 In78 2.294 . S
O79 C88 1.240 . S
O80 In78 2.326 . S
O80 C88 1.252 . S
C81 O84 1.252 . S
C81 O85 1.260 . S
C82 O89 1.240 . S
C82 O90 1.252 . S
C83 O86 1.252 . S
C83 O87 1.260 . S
O84 In78 2.266 . S
O84 C81 1.252 . S
O85 In78 2.326 . S
O85 C81 1.260 . S
O86 In78 2.266 . S
O86 C83 1.252 . S
O87 In78 2.326 . S
O87 C83 1.260 . S
C88 O79 1.240 . S
C88 O80 1.252 . S
O89 In78 2.294 . S
O89 C82 1.240 . S
O90 In78 2.326 . S
O90 C82 1.252 . S
In91 O92 2.294 . S
In91 O93 2.326 . S
In91 O97 2.266 . S
In91 O98 2.326 . S
In91 O99 2.266 . S
In91 O100 2.326 . S
In91 O102 2.303 . S
In91 O103 2.326 . S
O92 In91 2.294 . S
O92 C101 1.240 . S
O93 In91 2.326 . S
O93 C101 1.252 . S
C94 O97 1.252 . S
C94 O98 1.260 . S
C95 O102 1.241 1_545 S
C95 O103 1.252 1_545 S
C96 O99 1.252 . S
C96 O100 1.260 . S
O97 In91 2.266 . S
O97 C94 1.252 . S
O98 In91 2.326 . S
O98 C94 1.260 . S
O99 In91 2.266 . S
O99 C96 1.252 . S
O100 In91 2.326 . S
O100 C96 1.260 . S
C101 O92 1.240 . S
C101 O93 1.252 . S
O102 In91 2.303 . S
O102 C95 1.241 1_565 S
O103 In91 2.326 . S
O103 C95 1.252 1_565 S
In104 O105 2.294 . S
In104 O106 2.326 . S
In104 O110 2.266 . S
In104 O111 2.326 . S
In104 O112 2.266 . S
In104 O113 2.326 . S
In104 O115 2.294 . S
In104 O116 2.326 . S
O105 In104 2.294 . S
O105 C114 1.240 . S
O106 In104 2.326 . S
O106 C114 1.252 . S
C107 O110 1.252 . S
C107 O111 1.260 . S
C108 O115 1.240 . S
C108 O116 1.252 . S
C109 O112 1.252 . S
C109 O113 1.260 . S
O110 In104 2.266 . S
O110 C107 1.252 . S
O111 In104 2.326 . S
O111 C107 1.260 . S
O112 In104 2.266 . S
O112 C109 1.252 . S
O113 In104 2.326 . S
O113 C109 1.260 . S
C114 O105 1.240 . S
C114 O106 1.252 . S
O115 In104 2.294 . S
O115 C108 1.240 . S
O116 In104 2.326 . S
O116 C108 1.252 . S
In117 O118 2.294 . S
In117 O119 2.326 . S
In117 O123 2.266 1_565 S
In117 O124 2.326 1_565 S
In117 O125 2.266 . S
In117 O126 2.326 . S
In117 O128 2.294 . S
In117 O129 2.326 . S
O118 In117 2.294 . S
O118 C127 1.240 . S
O119 In117 2.326 . S
O119 C127 1.252 . S
C120 O123 1.252 . S
C120 O124 1.260 . S
C121 O128 1.240 . S
C121 O129 1.252 . S
C122 O125 1.252 . S
C122 O126 1.260 . S
O123 In117 2.266 1_545 S
O123 C120 1.252 . S
O124 In117 2.326 1_545 S
O124 C120 1.260 . S
O125 In117 2.266 . S
O125 C122 1.252 . S
O126 In117 2.326 . S
O126 C122 1.260 . S
C127 O118 1.240 . S
C127 O119 1.252 . S
O128 In117 2.294 . S
O128 C121 1.240 . S
O129 In117 2.326 . S
O129 C121 1.252 . S
In130 O131 2.294 . S
In130 O132 2.326 . S
In130 O136 2.264 . S
In130 O137 2.326 . S
In130 O138 2.266 . S
In130 O139 2.326 . S
In130 O141 2.294 . S
In130 O142 2.326 . S
O131 In130 2.294 . S
O131 C140 1.240 . S
O132 In130 2.326 . S
O132 C140 1.252 . S
C133 O136 1.252 1_655 S
C133 O137 1.260 1_655 S
C134 O141 1.240 . S
C134 O142 1.252 . S
C135 O138 1.252 . S
C135 O139 1.260 . S
O136 In130 2.264 . S
O136 C133 1.252 1_455 S
O137 In130 2.326 . S
O137 C133 1.260 1_455 S
O138 In130 2.266 . S
O138 C135 1.252 . S
O139 In130 2.326 . S
O139 C135 1.260 . S
C140 O131 1.240 . S
C140 O132 1.252 . S
O141 In130 2.294 . S
O141 C134 1.240 . S
O142 In130 2.326 . S
O142 C134 1.252 . S
In143 O144 2.294 . S
In143 O145 2.326 . S
In143 O149 2.266 . S
In143 O150 2.326 . S
In143 O151 2.266 . S
In143 O152 2.326 . S
In143 O154 2.294 . S
In143 O155 2.326 . S
O144 In143 2.294 . S
O144 C153 1.240 . S
O145 In143 2.326 . S
O145 C153 1.252 . S
C146 O149 1.252 . S
C146 O150 1.260 . S
C147 O154 1.240 . S
C147 O155 1.252 . S
C148 O151 1.252 . S
C148 O152 1.260 . S
O149 In143 2.266 . S
O149 C146 1.252 . S
O150 In143 2.326 . S
O150 C146 1.260 . S
O151 In143 2.266 . S
O151 C148 1.252 . S
O152 In143 2.326 . S
O152 C148 1.260 . S
C153 O144 1.240 . S
C153 O145 1.252 . S
O154 In143 2.294 . S
O154 C147 1.240 . S
O155 In143 2.326 . S
O155 C147 1.252 . S
In156 O157 2.294 . S
In156 O158 2.326 . S
In156 O162 2.266 . S
In156 O163 2.326 . S
In156 O164 2.266 1_545 S
In156 O165 2.326 1_545 S
In156 O167 2.294 . S
In156 O168 2.326 . S
O157 In156 2.294 . S
O157 C166 1.240 . S
O158 In156 2.326 . S
O158 C166 1.252 . S
C159 O162 1.252 . S
C159 O163 1.260 . S
C160 O167 1.240 . S
C160 O168 1.252 . S
C161 O164 1.252 . S
C161 O165 1.260 . S
O162 In156 2.266 . S
O162 C159 1.252 . S
O163 In156 2.326 . S
O163 C159 1.260 . S
O164 In156 2.266 1_565 S
O164 C161 1.252 . S
O165 In156 2.326 1_565 S
O165 C161 1.260 . S
C166 O157 1.240 . S
C166 O158 1.252 . S
O167 In156 2.294 . S
O167 C160 1.240 . S
O168 In156 2.326 . S
O168 C160 1.252 . S
In169 O170 2.294 . S
In169 O171 2.326 . S
In169 O175 2.266 . S
In169 O176 2.326 . S
In169 O177 2.237 1_655 S
In169 O178 2.326 . S
In169 O180 2.294 . S
In169 O181 2.326 . S
O170 In169 2.294 . S
O170 C179 1.240 . S
O171 In169 2.326 . S
O171 C179 1.252 . S
C172 O175 1.252 . S
C172 O176 1.260 . S
C173 O180 1.240 . S
C173 O181 1.252 . S
C174 O177 1.252 . S
C174 O178 1.260 1_455 S
O175 In169 2.266 . S
O175 C172 1.252 . S
O176 In169 2.326 . S
O176 C172 1.260 . S
O177 In169 2.237 1_455 S
O177 C174 1.252 . S
O178 In169 2.326 . S
O178 C174 1.260 1_655 S
C179 O170 1.240 . S
C179 O171 1.252 . S
O180 In169 2.294 . S
O180 C173 1.240 . S
O181 In169 2.326 . S
O181 C173 1.252 . S
In182 O183 2.294 . S
In182 O184 2.326 . S
In182 O188 2.266 . S
In182 O189 2.326 . S
In182 O190 2.266 . S
In182 O191 2.326 . S
In182 O193 2.294 . S
In182 O194 2.326 . S
O183 In182 2.294 . S
O183 C192 1.240 . S
O184 In182 2.326 . S
O184 C192 1.252 . S
C185 O188 1.252 . S
C185 O189 1.260 . S
C186 O193 1.240 . S
C186 O194 1.252 . S
C187 O190 1.252 . S
C187 O191 1.260 . S
O188 In182 2.266 . S
O188 C185 1.252 . S
O189 In182 2.326 . S
O189 C185 1.260 . S
O190 In182 2.266 . S
O190 C187 1.252 . S
O191 In182 2.326 . S
O191 C187 1.260 . S
C192 O183 1.240 . S
C192 O184 1.252 . S
O193 In182 2.294 . S
O193 C186 1.240 . S
O194 In182 2.326 . S
O194 C186 1.252 . S
In195 O196 2.294 . S
In195 O197 2.326 . S
In195 O201 2.266 . S
In195 O202 2.326 . S
In195 O203 2.266 . S
In195 O204 2.326 . S
In195 O206 2.294 . S
In195 O207 2.326 . S
O196 In195 2.294 . S
O196 C205 1.240 . S
O197 In195 2.326 . S
O197 C205 1.252 . S
C198 O201 1.252 . S
C198 O202 1.260 . S
C199 O206 1.240 . S
C199 O207 1.252 . S
C200 O203 1.252 . S
C200 O204 1.260 . S
O201 In195 2.266 . S
O201 C198 1.252 . S
O202 In195 2.326 . S
O202 C198 1.260 . S
O203 In195 2.266 . S
O203 C200 1.252 . S
O204 In195 2.326 . S
O204 C200 1.260 . S
C205 O196 1.240 . S
C205 O197 1.252 . S
O206 In195 2.294 . S
O206 C199 1.240 . S
O207 In195 2.326 . S
O207 C199 1.252 . S
In208 O209 2.294 . S
In208 O210 2.326 . S
In208 O214 2.266 . S
In208 O215 2.326 . S
In208 O216 2.266 . S
In208 O217 2.326 . S
In208 O219 2.308 . S
In208 O220 2.326 . S
O209 In208 2.294 . S
O209 C218 1.240 . S
O210 In208 2.326 . S
O210 C218 1.252 . S
C211 O214 1.252 . S
C211 O215 1.260 . S
C212 O219 1.241 1_565 S
C212 O220 1.252 1_565 S
C213 O216 1.252 . S
C213 O217 1.260 . S
O214 In208 2.266 . S
O214 C211 1.252 . S
O215 In208 2.326 . S
O215 C211 1.260 . S
O216 In208 2.266 . S
O216 C213 1.252 . S
O217 In208 2.326 . S
O217 C213 1.260 . S
C218 O209 1.240 . S
C218 O210 1.252 . S
O219 In208 2.308 . S
O219 C212 1.241 1_545 S
O220 In208 2.326 . S
O220 C212 1.252 1_545 S
In221 O222 2.294 . S
In221 O223 2.326 . S
In221 O227 2.266 . S
In221 O228 2.326 . S
In221 O229 2.266 . S
In221 O230 2.326 . S
In221 O232 2.294 . S
In221 O233 2.326 . S
O222 In221 2.294 . S
O222 C231 1.240 . S
O223 In221 2.326 . S
O223 C231 1.252 . S
C224 O227 1.252 . S
C224 O228 1.260 . S
C225 O232 1.240 . S
C225 O233 1.252 . S
C226 O229 1.252 . S
C226 O230 1.260 . S
O227 In221 2.266 . S
O227 C224 1.252 . S
O228 In221 2.326 . S
O228 C224 1.260 . S
O229 In221 2.266 . S
O229 C226 1.252 . S
O230 In221 2.326 . S
O230 C226 1.260 . S
C231 O222 1.240 . S
C231 O223 1.252 . S
O232 In221 2.294 . S
O232 C225 1.240 . S
O233 In221 2.326 . S
O233 C225 1.252 . S
H234 O260 0.856 . S
H235 O263 0.854 . S
H236 C271 0.930 . S
H237 C272 0.930 . S
H238 C274 0.930 . S
H239 C275 0.930 . S
H240 C277 0.931 . S
H241 C278 0.930 . S
H242 C280 0.930 . S
H243 C281 0.929 . S
H244 C283 0.930 . S
H245 C284 0.931 . S
H246 C286 0.930 . S
H247 C287 0.929 . S
H248 C289 0.931 . S
H249 C290 0.930 . S
H250 C292 0.930 . S
H251 C293 0.932 . S
H252 C295 0.930 . S
H253 C296 0.929 . S
H254 C298 0.931 . S
H255 C299 0.930 . S
H256 C301 0.929 . S
H257 C302 0.931 . S
H258 C304 0.930 . S
H259 C305 0.929 . S
O260 H234 0.856 . S
O260 C306 1.300 . S
O261 C306 1.209 . S
O262 C307 1.199 . S
O263 H235 0.854 . S
O263 C307 1.297 . S
C264 C265 1.404 . S
C264 C269 1.397 . S
C264 C270 1.492 . S
C265 C264 1.404 . S
C265 C266 1.396 . S
C265 C276 1.492 . S
C266 C265 1.396 . S
C266 C267 1.397 . S
C266 C282 1.509 . S
C267 C266 1.397 . S
C267 C268 1.412 . S
C267 C288 1.485 . S
C268 C267 1.412 . S
C268 C269 1.388 . S
C268 C294 1.490 . S
C269 C264 1.397 . S
C269 C268 1.388 . S
C269 C300 1.519 . S
C270 C264 1.492 . S
C270 C271 1.363 . S
C270 C275 1.390 . S
C271 H236 0.930 . S
C271 C270 1.363 . S
C271 C272 1.372 . S
C272 H237 0.930 . S
C272 C271 1.372 . S
C272 C273 1.383 . S
C273 C272 1.383 . S
C273 C274 1.395 . S
C274 H238 0.930 . S
C274 C273 1.395 . S
C274 C275 1.362 . S
C275 H239 0.930 . S
C275 C270 1.390 . S
C275 C274 1.362 . S
C276 C265 1.492 . S
C276 C277 1.377 . S
C276 C281 1.397 . S
C277 H240 0.931 . S
C277 C276 1.377 . S
C277 C278 1.376 . S
C278 H241 0.930 . S
C278 C277 1.376 . S
C278 C279 1.376 . S
C279 C278 1.376 . S
C279 C280 1.378 . S
C279 C306 1.486 1_554 S
C280 H242 0.930 . S
C280 C279 1.378 . S
C280 C281 1.376 . S
C281 H243 0.929 . S
C281 C276 1.397 . S
C281 C280 1.376 . S
C282 C266 1.509 . S
C282 C283 1.391 . S
C282 C287 1.386 . S
C283 H244 0.930 . S
C283 C282 1.391 . S
C283 C284 1.375 . S
C284 H245 0.931 . S
C284 C283 1.375 . S
C284 C285 1.375 . S
C285 C284 1.375 . S
C285 C286 1.361 . S
C286 H246 0.930 . S
C286 C285 1.361 . S
C286 C287 1.399 . S
C287 H247 0.929 . S
C287 C282 1.386 . S
C287 C286 1.399 . S
C288 C267 1.485 . S
C288 C289 1.394 . S
C288 C293 1.360 . S
C289 H248 0.931 . S
C289 C288 1.394 . S
C289 C290 1.372 . S
C290 H249 0.930 . S
C290 C289 1.372 . S
C290 C291 1.397 . S
C291 C290 1.397 . S
C291 C292 1.390 . S
C291 C307 1.476 . S
C292 H250 0.930 . S
C292 C291 1.390 . S
C292 C293 1.366 . S
C293 H251 0.932 . S
C293 C288 1.360 . S
C293 C292 1.366 . S
C294 C268 1.490 . S
C294 C295 1.380 . S
C294 C299 1.386 . S
C295 H252 0.930 . S
C295 C294 1.380 . S
C295 C296 1.381 . S
C296 H253 0.929 . S
C296 C295 1.381 . S
C296 C297 1.371 . S
C297 C296 1.371 . S
C297 C298 1.380 . S
C298 H254 0.931 . S
C298 C297 1.380 . S
C298 C299 1.387 . S
C299 H255 0.930 . S
C299 C294 1.386 . S
C299 C298 1.387 . S
C300 C269 1.519 . S
C300 C301 1.377 . S
C300 C305 1.361 . S
C301 H256 0.929 . S
C301 C300 1.377 . S
C301 C302 1.386 . S
C302 H257 0.931 . S
C302 C301 1.386 . S
C302 C303 1.363 . S
C303 C302 1.363 . S
C303 C304 1.385 . S
C304 H258 0.930 . S
C304 C303 1.385 . S
C304 C305 1.396 . S
C305 H259 0.929 . S
C305 C300 1.361 . S
C305 C304 1.396 . S
C306 O260 1.300 . S
C306 O261 1.209 . S
C306 C279 1.486 1_556 S
C307 O262 1.199 . S
C307 O263 1.297 . S
C307 C291 1.476 . S
H308 O334 0.856 . S
H309 O337 0.854 . S
H310 C345 0.930 . S
H311 C346 0.930 . S
H312 C348 0.930 . S
H313 C349 0.930 . S
H314 C351 0.931 . S
H315 C352 0.930 . S
H316 C354 0.930 . S
H317 C355 0.929 . S
H318 C357 0.930 . S
H319 C358 0.931 . S
H320 C360 0.930 . S
H321 C361 0.929 . S
H322 C363 0.931 . S
H323 C364 0.930 . S
H324 C366 0.930 1_545 S
H325 C367 0.932 . S
H326 C369 0.930 . S
H327 C370 0.929 . S
H328 C372 0.931 . S
H329 C373 0.930 . S
H330 C375 0.929 . S
H331 C376 0.931 . S
H332 C378 0.930 . S
H333 C379 0.929 . S
O334 H308 0.856 . S
O334 C380 1.300 . S
O335 C380 1.209 . S
O336 C381 1.199 . S
O337 H309 0.854 . S
O337 C381 1.297 . S
C338 C339 1.404 . S
C338 C343 1.397 . S
C338 C344 1.492 . S
C339 C338 1.404 . S
C339 C340 1.396 . S
C339 C350 1.492 . S
C340 C339 1.396 . S
C340 C341 1.397 . S
C340 C356 1.509 . S
C341 C340 1.397 . S
C341 C342 1.412 . S
C341 C362 1.485 . S
C342 C341 1.412 . S
C342 C343 1.388 . S
C342 C368 1.490 . S
C343 C338 1.397 . S
C343 C342 1.388 . S
C343 C374 1.519 . S
C344 C338 1.492 . S
C344 C345 1.363 . S
C344 C349 1.390 . S
C345 H310 0.930 . S
C345 C344 1.363 . S
C345 C346 1.372 . S
C346 H311 0.930 . S
C346 C345 1.372 . S
C346 C347 1.383 . S
C347 C346 1.383 . S
C347 C348 1.395 . S
C348 H312 0.930 . S
C348 C347 1.395 . S
C348 C349 1.362 . S
C349 H313 0.930 . S
C349 C344 1.390 . S
C349 C348 1.362 . S
C350 C339 1.492 . S
C350 C351 1.377 . S
C350 C355 1.397 . S
C351 H314 0.931 . S
C351 C350 1.377 . S
C351 C352 1.376 . S
C352 H315 0.930 . S
C352 C351 1.376 . S
C352 C353 1.376 . S
C353 C352 1.376 . S
C353 C354 1.378 . S
C353 C380 1.486 1_554 S
C354 H316 0.930 . S
C354 C353 1.378 . S
C354 C355 1.376 . S
C355 H317 0.929 . S
C355 C350 1.397 . S
C355 C354 1.376 . S
C356 C340 1.509 . S
C356 C357 1.391 . S
C356 C361 1.386 . S
C357 H318 0.930 . S
C357 C356 1.391 . S
C357 C358 1.375 . S
C358 H319 0.931 . S
C358 C357 1.375 . S
C358 C359 1.375 . S
C359 C358 1.375 . S
C359 C360 1.361 . S
C360 H320 0.930 . S
C360 C359 1.361 . S
C360 C361 1.399 . S
C361 H321 0.929 . S
C361 C356 1.386 . S
C361 C360 1.399 . S
C362 C341 1.485 . S
C362 C363 1.394 . S
C362 C367 1.360 . S
C363 H322 0.931 . S
C363 C362 1.394 . S
C363 C364 1.372 . S
C364 H323 0.930 . S
C364 C363 1.372 . S
C364 C365 1.397 . S
C365 C364 1.397 . S
C365 C366 1.390 . S
C365 C381 1.476 1_565 S
C366 H324 0.930 1_565 S
C366 C365 1.390 . S
C366 C367 1.366 . S
C367 H325 0.932 . S
C367 C362 1.360 . S
C367 C366 1.366 . S
C368 C342 1.490 . S
C368 C369 1.380 . S
C368 C373 1.386 . S
C369 H326 0.930 . S
C369 C368 1.380 . S
C369 C370 1.381 . S
C370 H327 0.929 . S
C370 C369 1.381 . S
C370 C371 1.371 . S
C371 C370 1.371 . S
C371 C372 1.380 . S
C372 H328 0.931 . S
C372 C371 1.380 . S
C372 C373 1.387 . S
C373 H329 0.930 . S
C373 C368 1.386 . S
C373 C372 1.387 . S
C374 C343 1.519 . S
C374 C375 1.377 . S
C374 C379 1.361 . S
C375 H330 0.929 . S
C375 C374 1.377 . S
C375 C376 1.386 . S
C376 H331 0.931 . S
C376 C375 1.386 . S
C376 C377 1.363 . S
C377 C376 1.363 . S
C377 C378 1.385 . S
C378 H332 0.930 . S
C378 C377 1.385 . S
C378 C379 1.396 . S
C379 H333 0.929 . S
C379 C374 1.361 . S
C379 C378 1.396 . S
C380 O334 1.300 . S
C380 O335 1.209 . S
C380 C353 1.486 1_556 S
C381 O336 1.199 . S
C381 O337 1.297 . S
C381 C365 1.476 1_545 S
H382 O408 0.856 . S
H383 O411 0.854 . S
H384 C419 0.930 . S
H385 C420 0.930 . S
H386 C422 0.930 . S
H387 C423 0.930 . S
H388 C425 0.931 . S
H389 C426 0.930 . S
H390 C428 0.930 . S
H391 C429 0.929 . S
H392 C431 0.930 . S
H393 C432 0.931 . S
H394 C434 0.930 . S
H395 C435 0.929 . S
H396 C437 0.931 . S
H397 C438 0.930 1_545 S
H398 C440 0.930 . S
H399 C441 0.932 . S
H400 C443 0.930 . S
H401 C444 0.929 . S
H402 C446 0.931 . S
H403 C447 0.930 . S
H404 C449 0.929 . S
H405 C450 0.931 . S
H406 C452 0.930 . S
H407 C453 0.929 . S
O408 H382 0.856 . S
O408 C454 1.300 . S
O409 C454 1.209 . S
O410 C455 1.199 . S
O411 H383 0.854 . S
O411 C455 1.297 . S
C412 C413 1.404 . S
C412 C417 1.397 . S
C412 C418 1.492 . S
C413 C412 1.404 . S
C413 C414 1.396 . S
C413 C424 1.492 . S
C414 C413 1.396 . S
C414 C415 1.397 . S
C414 C430 1.509 . S
C415 C414 1.397 . S
C415 C416 1.412 . S
C415 C436 1.485 . S
C416 C415 1.412 . S
C416 C417 1.388 . S
C416 C442 1.490 . S
C417 C412 1.397 . S
C417 C416 1.388 . S
C417 C448 1.519 . S
C418 C412 1.492 . S
C418 C419 1.363 . S
C418 C423 1.390 . S
C419 H384 0.930 . S
C419 C418 1.363 . S
C419 C420 1.372 . S
C420 H385 0.930 . S
C420 C419 1.372 . S
C420 C421 1.383 . S
C421 C420 1.383 . S
C421 C422 1.395 . S
C422 H386 0.930 . S
C422 C421 1.395 . S
C422 C423 1.362 . S
C423 H387 0.930 . S
C423 C418 1.390 . S
C423 C422 1.362 . S
C424 C413 1.492 . S
C424 C425 1.377 . S
C424 C429 1.397 . S
C425 H388 0.931 . S
C425 C424 1.377 . S
C425 C426 1.376 . S
C426 H389 0.930 . S
C426 C425 1.376 . S
C426 C427 1.376 . S
C427 C426 1.376 . S
C427 C428 1.378 . S
C427 C454 1.486 1_554 S
C428 H390 0.930 . S
C428 C427 1.378 . S
C428 C429 1.376 . S
C429 H391 0.929 . S
C429 C424 1.397 . S
C429 C428 1.376 . S
C430 C414 1.509 . S
C430 C431 1.391 . S
C430 C435 1.386 . S
C431 H392 0.930 . S
C431 C430 1.391 . S
C431 C432 1.375 . S
C432 H393 0.931 . S
C432 C431 1.375 . S
C432 C433 1.375 . S
C433 C432 1.375 . S
C433 C434 1.361 . S
C434 H394 0.930 . S
C434 C433 1.361 . S
C434 C435 1.399 . S
C435 H395 0.929 . S
C435 C430 1.386 . S
C435 C434 1.399 . S
C436 C415 1.485 . S
C436 C437 1.394 . S
C436 C441 1.360 . S
C437 H396 0.931 . S
C437 C436 1.394 . S
C437 C438 1.372 . S
C438 H397 0.930 1_565 S
C438 C437 1.372 . S
C438 C439 1.397 . S
C439 C438 1.397 . S
C439 C440 1.390 . S
C439 C455 1.476 1_565 S
C440 H398 0.930 . S
C440 C439 1.390 . S
C440 C441 1.366 . S
C441 H399 0.932 . S
C441 C436 1.360 . S
C441 C440 1.366 . S
C442 C416 1.490 . S
C442 C443 1.380 . S
C442 C447 1.386 . S
C443 H400 0.930 . S
C443 C442 1.380 . S
C443 C444 1.381 . S
C444 H401 0.929 . S
C444 C443 1.381 . S
C444 C445 1.371 . S
C445 C444 1.371 . S
C445 C446 1.380 . S
C446 H402 0.931 . S
C446 C445 1.380 . S
C446 C447 1.387 . S
C447 H403 0.930 . S
C447 C442 1.386 . S
C447 C446 1.387 . S
C448 C417 1.519 . S
C448 C449 1.377 . S
C448 C453 1.361 . S
C449 H404 0.929 . S
C449 C448 1.377 . S
C449 C450 1.386 . S
C450 H405 0.931 . S
C450 C449 1.386 . S
C450 C451 1.363 . S
C451 C450 1.363 . S
C451 C452 1.385 . S
C452 H406 0.930 . S
C452 C451 1.385 . S
C452 C453 1.396 . S
C453 H407 0.929 . S
C453 C448 1.361 . S
C453 C452 1.396 . S
C454 O408 1.300 . S
C454 O409 1.209 . S
C454 C427 1.486 1_556 S
C455 O410 1.199 . S
C455 O411 1.297 . S
C455 C439 1.476 1_545 S
H456 O482 0.856 . S
H457 O485 0.854 . S
H458 C493 0.930 . S
H459 C494 0.930 . S
H460 C496 0.930 . S
H461 C497 0.930 . S
H462 C499 0.931 1_556 S
H463 C500 0.930 . S
H464 C502 0.930 . S
H465 C503 0.929 . S
H466 C505 0.930 . S
H467 C506 0.931 . S
H468 C508 0.930 1_554 S
H469 C509 0.929 . S
H470 C511 0.931 . S
H471 C512 0.930 1_565 S
H472 C514 0.930 . S
H473 C515 0.932 . S
H474 C517 0.930 . S
H475 C518 0.929 . S
H476 C520 0.931 . S
H477 C521 0.930 . S
H478 C523 0.929 . S
H479 C524 0.931 . S
H480 C526 0.930 . S
H481 C527 0.929 . S
O482 H456 0.856 . S
O482 C528 1.300 . S
O483 C528 1.209 . S
O484 C529 1.199 . S
O485 H457 0.854 . S
O485 C529 1.297 . S
C486 C487 1.404 . S
C486 C491 1.397 . S
C486 C492 1.492 . S
C487 C486 1.404 . S
C487 C488 1.396 . S
C487 C498 1.492 . S
C488 C487 1.396 . S
C488 C489 1.397 . S
C488 C504 1.509 . S
C489 C488 1.397 . S
C489 C490 1.412 . S
C489 C510 1.485 . S
C490 C489 1.412 . S
C490 C491 1.388 . S
C490 C516 1.490 . S
C491 C486 1.397 . S
C491 C490 1.388 . S
C491 C522 1.519 . S
C492 C486 1.492 . S
C492 C493 1.363 . S
C492 C497 1.390 . S
C493 H458 0.930 . S
C493 C492 1.363 . S
C493 C494 1.372 . S
C494 H459 0.930 . S
C494 C493 1.372 . S
C494 C495 1.383 . S
C495 C494 1.383 . S
C495 C496 1.395 . S
C496 H460 0.930 . S
C496 C495 1.395 . S
C496 C497 1.362 . S
C497 H461 0.930 . S
C497 C492 1.390 . S
C497 C496 1.362 . S
C498 C487 1.492 . S
C498 C499 1.377 1_556 S
C498 C503 1.397 . S
C499 H462 0.931 1_554 S
C499 C498 1.377 1_554 S
C499 C500 1.376 . S
C500 H463 0.930 . S
C500 C499 1.376 . S
C500 C501 1.376 . S
C501 C500 1.376 . S
C501 C502 1.378 . S
C501 C528 1.486 . S
C502 H464 0.930 . S
C502 C501 1.378 . S
C502 C503 1.376 1_554 S
C503 H465 0.929 . S
C503 C498 1.397 . S
C503 C502 1.376 1_556 S
C504 C488 1.509 . S
C504 C505 1.391 . S
C504 C509 1.386 . S
C505 H466 0.930 . S
C505 C504 1.391 . S
C505 C506 1.375 . S
C506 H467 0.931 . S
C506 C505 1.375 . S
C506 C507 1.375 1_556 S
C507 C506 1.375 1_554 S
C507 C508 1.361 1_554 S
C508 H468 0.930 1_556 S
C508 C507 1.361 1_556 S
C508 C509 1.399 . S
C509 H469 0.929 . S
C509 C504 1.386 . S
C509 C508 1.399 . S
C510 C489 1.485 . S
C510 C511 1.394 . S
C510 C515 1.360 . S
C511 H470 0.931 . S
C511 C510 1.394 . S
C511 C512 1.372 . S
C512 H471 0.930 1_545 S
C512 C511 1.372 . S
C512 C513 1.397 . S
C513 C512 1.397 . S
C513 C514 1.390 . S
C513 C529 1.476 1_545 S
C514 H472 0.930 . S
C514 C513 1.390 . S
C514 C515 1.366 . S
C515 H473 0.932 . S
C515 C510 1.360 . S
C515 C514 1.366 . S
C516 C490 1.490 . S
C516 C517 1.380 . S
C516 C521 1.386 . S
C517 H474 0.930 . S
C517 C516 1.380 . S
C517 C518 1.381 . S
C518 H475 0.929 . S
C518 C517 1.381 . S
C518 C519 1.371 . S
C519 C518 1.371 . S
C519 C520 1.380 . S
C520 H476 0.931 . S
C520 C519 1.380 . S
C520 C521 1.387 . S
C521 H477 0.930 . S
C521 C516 1.386 . S
C521 C520 1.387 . S
C522 C491 1.519 . S
C522 C523 1.377 . S
C522 C527 1.361 . S
C523 H478 0.929 . S
C523 C522 1.377 . S
C523 C524 1.386 . S
C524 H479 0.931 . S
C524 C523 1.386 . S
C524 C525 1.363 . S
C525 C524 1.363 . S
C525 C526 1.385 . S
C526 H480 0.930 . S
C526 C525 1.385 . S
C526 C527 1.396 . S
C527 H481 0.929 . S
C527 C522 1.361 . S
C527 C526 1.396 . S
C528 O482 1.300 . S
C528 O483 1.209 . S
C528 C501 1.486 . S
C529 O484 1.199 . S
C529 O485 1.297 . S
C529 C513 1.476 1_565 S
H530 O556 0.856 . S
H531 O559 0.854 . S
H532 C567 0.930 . S
H533 C568 0.930 . S
H534 C570 0.930 . S
H535 C571 0.930 . S
H536 C573 0.931 1_556 S
H537 C574 0.930 . S
H538 C576 0.930 . S
H539 C577 0.929 1_556 S
H540 C579 0.930 . S
H541 C580 0.931 . S
H542 C582 0.930 . S
H543 C583 0.929 . S
H544 C585 0.931 . S
H545 C586 0.930 . S
H546 C588 0.931 1_565 S
H547 C589 0.932 . S
H548 C591 0.930 . S
H549 C592 0.929 . S
H550 C594 0.931 . S
H551 C595 0.930 . S
H552 C597 0.929 . S
H553 C598 0.931 . S
H554 C600 0.930 . S
H555 C601 0.929 . S
O556 H530 0.856 . S
O556 C602 1.300 . S
O557 C602 1.209 . S
O558 C603 1.199 . S
O559 H531 0.854 . S
O559 C603 1.297 . S
C560 C561 1.404 . S
C560 C565 1.397 . S
C560 C566 1.492 . S
C561 C560 1.404 . S
C561 C562 1.396 . S
C561 C572 1.492 . S
C562 C561 1.396 . S
C562 C563 1.397 . S
C562 C578 1.509 . S
C563 C562 1.397 . S
C563 C564 1.412 . S
C563 C584 1.485 . S
C564 C563 1.412 . S
C564 C565 1.388 . S
C564 C590 1.490 . S
C565 C560 1.397 . S
C565 C564 1.388 . S
C565 C596 1.519 . S
C566 C560 1.492 . S
C566 C567 1.363 . S
C566 C571 1.390 . S
C567 H532 0.930 . S
C567 C566 1.363 . S
C567 C568 1.372 . S
C568 H533 0.930 . S
C568 C567 1.372 . S
C568 C569 1.383 . S
C569 C568 1.383 . S
C569 C570 1.395 . S
C570 H534 0.930 . S
C570 C569 1.395 . S
C570 C571 1.362 . S
C571 H535 0.930 . S
C571 C566 1.390 . S
C571 C570 1.362 . S
C572 C561 1.492 . S
C572 C573 1.377 1_556 S
C572 C577 1.397 1_556 S
C573 H536 0.931 1_554 S
C573 C572 1.377 1_554 S
C573 C574 1.376 . S
C574 H537 0.930 . S
C574 C573 1.376 . S
C574 C575 1.376 . S
C575 C574 1.376 . S
C575 C576 1.378 . S
C575 C602 1.486 . S
C576 H538 0.930 . S
C576 C575 1.378 . S
C576 C577 1.376 . S
C577 H539 0.929 1_554 S
C577 C572 1.397 1_554 S
C577 C576 1.376 . S
C578 C562 1.509 . S
C578 C579 1.391 . S
C578 C583 1.386 . S
C579 H540 0.930 . S
C579 C578 1.391 . S
C579 C580 1.375 . S
C580 H541 0.931 . S
C580 C579 1.375 . S
C580 C581 1.375 1_556 S
C581 C580 1.375 1_554 S
C581 C582 1.361 . S
C582 H542 0.930 . S
C582 C581 1.361 . S
C582 C583 1.399 1_554 S
C583 H543 0.929 . S
C583 C578 1.386 . S
C583 C582 1.399 1_556 S
C584 C563 1.485 . S
C584 C585 1.394 . S
C584 C589 1.360 . S
C585 H544 0.931 . S
C585 C584 1.394 . S
C585 C586 1.372 . S
C586 H545 0.930 . S
C586 C585 1.372 . S
C586 C587 1.394 1_545 S
C587 C586 1.394 1_565 S
C587 C588 1.391 1_565 S
C587 C603 1.477 . S
C588 H546 0.931 1_545 S
C588 C587 1.391 1_545 S
C588 C589 1.365 . S
C589 H547 0.932 . S
C589 C584 1.360 . S
C589 C588 1.365 . S
C590 C564 1.490 . S
C590 C591 1.380 . S
C590 C595 1.386 . S
C591 H548 0.930 . S
C591 C590 1.380 . S
C591 C592 1.381 . S
C592 H549 0.929 . S
C592 C591 1.381 . S
C592 C593 1.371 . S
C593 C592 1.371 . S
C593 C594 1.380 . S
C594 H550 0.931 . S
C594 C593 1.380 . S
C594 C595 1.387 . S
C595 H551 0.930 . S
C595 C590 1.386 . S
C595 C594 1.387 . S
C596 C565 1.519 . S
C596 C597 1.377 . S
C596 C601 1.361 . S
C597 H552 0.929 . S
C597 C596 1.377 . S
C597 C598 1.386 . S
C598 H553 0.931 . S
C598 C597 1.386 . S
C598 C599 1.363 . S
C599 C598 1.363 . S
C599 C600 1.385 . S
C600 H554 0.930 . S
C600 C599 1.385 . S
C600 C601 1.396 . S
C601 H555 0.929 . S
C601 C596 1.361 . S
C601 C600 1.396 . S
C602 O556 1.300 . S
C602 O557 1.209 . S
C602 C575 1.486 . S
C603 O558 1.199 . S
C603 O559 1.297 . S
C603 C587 1.477 . S
H604 O630 0.856 . S
H605 O633 0.854 . S
H606 C641 0.930 . S
H607 C642 0.930 . S
H608 C644 0.930 . S
H609 C645 0.930 . S
H610 C647 0.931 . S
H611 C648 0.930 . S
H612 C650 0.930 . S
H613 C651 0.929 1_556 S
H614 C653 0.930 . S
H615 C654 0.931 . S
H616 C656 0.930 . S
H617 C657 0.929 . S
H618 C659 0.931 . S
H619 C660 0.930 . S
H620 C662 0.930 . S
H621 C663 0.932 . S
H622 C665 0.930 . S
H623 C666 0.929 . S
H624 C668 0.931 . S
H625 C669 0.930 . S
H626 C671 0.929 . S
H627 C672 0.931 . S
H628 C674 0.930 . S
H629 C675 0.929 . S
O630 H604 0.856 . S
O630 C676 1.300 . S
O631 C676 1.209 . S
O632 C677 1.199 . S
O633 H605 0.854 . S
O633 C677 1.297 . S
C634 C635 1.404 . S
C634 C639 1.397 . S
C634 C640 1.492 . S
C635 C634 1.404 . S
C635 C636 1.396 . S
C635 C646 1.492 . S
C636 C635 1.396 . S
C636 C637 1.397 . S
C636 C652 1.509 . S
C637 C636 1.397 . S
C637 C638 1.412 . S
C637 C658 1.485 . S
C638 C637 1.412 . S
C638 C639 1.388 . S
C638 C664 1.490 . S
C639 C634 1.397 . S
C639 C638 1.388 . S
C639 C670 1.519 . S
C640 C634 1.492 . S
C640 C641 1.363 . S
C640 C645 1.390 . S
C641 H606 0.930 . S
C641 C640 1.363 . S
C641 C642 1.372 . S
C642 H607 0.930 . S
C642 C641 1.372 . S
C642 C643 1.383 . S
C643 C642 1.383 . S
C643 C644 1.395 . S
C644 H608 0.930 . S
C644 C643 1.395 . S
C644 C645 1.362 . S
C645 H609 0.930 . S
C645 C640 1.390 . S
C645 C644 1.362 . S
C646 C635 1.492 . S
C646 C647 1.377 1_556 S
C646 C651 1.397 1_556 S
C647 H610 0.931 . S
C647 C646 1.377 1_554 S
C647 C648 1.376 . S
C648 H611 0.930 . S
C648 C647 1.376 . S
C648 C649 1.376 . S
C649 C648 1.376 . S
C649 C650 1.378 . S
C649 C676 1.486 . S
C650 H612 0.930 . S
C650 C649 1.378 . S
C650 C651 1.376 . S
C651 H613 0.929 1_554 S
C651 C646 1.397 1_554 S
C651 C650 1.376 . S
C652 C636 1.509 . S
C652 C653 1.391 . S
C652 C657 1.386 . S
C653 H614 0.930 . S
C653 C652 1.391 . S
C653 C654 1.375 1_556 S
C654 H615 0.931 . S
C654 C653 1.375 1_554 S
C654 C655 1.375 . S
C655 C654 1.375 . S
C655 C656 1.361 . S
C656 H616 0.930 . S
C656 C655 1.361 . S
C656 C657 1.399 1_554 S
C657 H617 0.929 . S
C657 C652 1.386 . S
C657 C656 1.399 1_556 S
C658 C637 1.485 . S
C658 C659 1.394 . S
C658 C663 1.360 . S
C659 H618 0.931 . S
C659 C658 1.394 . S
C659 C660 1.372 . S
C660 H619 0.930 . S
C660 C659 1.372 . S
C660 C661 1.397 . S
C661 C660 1.397 . S
C661 C662 1.390 . S
C661 C677 1.476 . S
C662 H620 0.930 . S
C662 C661 1.390 . S
C662 C663 1.366 . S
C663 H621 0.932 . S
C663 C658 1.360 . S
C663 C662 1.366 . S
C664 C638 1.490 . S
C664 C665 1.380 . S
C664 C669 1.386 . S
C665 H622 0.930 . S
C665 C664 1.380 . S
C665 C666 1.381 . S
C666 H623 0.929 . S
C666 C665 1.381 . S
C666 C667 1.371 . S
C667 C666 1.371 . S
C667 C668 1.380 . S
C668 H624 0.931 . S
C668 C667 1.380 . S
C668 C669 1.387 . S
C669 H625 0.930 . S
C669 C664 1.386 . S
C669 C668 1.387 . S
C670 C639 1.519 . S
C670 C671 1.377 . S
C670 C675 1.361 . S
C671 H626 0.929 . S
C671 C670 1.377 . S
C671 C672 1.386 . S
C672 H627 0.931 . S
C672 C671 1.386 . S
C672 C673 1.363 . S
C673 C672 1.363 . S
C673 C674 1.385 . S
C674 H628 0.930 . S
C674 C673 1.385 . S
C674 C675 1.396 . S
C675 H629 0.929 . S
C675 C670 1.361 . S
C675 C674 1.396 . S
C676 O630 1.300 . S
C676 O631 1.209 . S
C676 C649 1.486 . S
C677 O632 1.199 . S
C677 O633 1.297 . S
C677 C661 1.476 . S
H678 O704 0.856 . S
H679 O707 0.854 . S
H680 C715 0.930 . S
H681 C716 0.930 . S
H682 C718 0.930 . S
H683 C719 0.930 . S
H684 C721 0.931 . S
H685 C722 0.930 . S
H686 C724 0.930 . S
H687 C725 0.929 . S
H688 C727 0.930 . S
H689 C728 0.931 . S
H690 C730 0.930 . S
H691 C731 0.929 . S
H692 C733 0.931 . S
H693 C734 0.930 . S
H694 C736 0.930 . S
H695 C737 0.932 . S
H696 C739 0.930 . S
H697 C740 0.929 . S
H698 C742 0.931 . S
H699 C743 0.930 . S
H700 C745 0.929 . S
H701 C746 0.931 . S
H702 C748 0.930 . S
H703 C749 0.929 . S
O704 H678 0.856 . S
O704 C750 1.300 . S
O705 C750 1.209 . S
O706 C751 1.205 . S
O707 H679 0.854 . S
O707 C751 1.305 . S
C708 C709 1.404 . S
C708 C713 1.397 . S
C708 C714 1.492 . S
C709 C708 1.404 . S
C709 C710 1.396 . S
C709 C720 1.492 . S
C710 C709 1.396 . S
C710 C711 1.397 . S
C710 C726 1.509 . S
C711 C710 1.397 . S
C711 C712 1.412 . S
C711 C732 1.485 . S
C712 C711 1.412 . S
C712 C713 1.388 . S
C712 C738 1.490 . S
C713 C708 1.397 . S
C713 C712 1.388 . S
C713 C744 1.519 . S
C714 C708 1.492 . S
C714 C715 1.363 . S
C714 C719 1.390 . S
C715 H680 0.930 . S
C715 C714 1.363 . S
C715 C716 1.372 . S
C716 H681 0.930 . S
C716 C715 1.372 . S
C716 C717 1.383 . S
C717 C716 1.383 . S
C717 C718 1.395 . S
C718 H682 0.930 . S
C718 C717 1.395 . S
C718 C719 1.362 . S
C719 H683 0.930 . S
C719 C714 1.390 . S
C719 C718 1.362 . S
C720 C709 1.492 . S
C720 C721 1.377 . S
C720 C725 1.397 . S
C721 H684 0.931 . S
C721 C720 1.377 . S
C721 C722 1.376 . S
C722 H685 0.930 . S
C722 C721 1.376 . S
C722 C723 1.376 . S
C723 C722 1.376 . S
C723 C724 1.378 . S
C723 C750 1.486 . S
C724 H686 0.930 . S
C724 C723 1.378 . S
C724 C725 1.376 . S
C725 H687 0.929 . S
C725 C720 1.397 . S
C725 C724 1.376 . S
C726 C710 1.509 . S
C726 C727 1.391 . S
C726 C731 1.386 . S
C727 H688 0.930 . S
C727 C726 1.391 . S
C727 C728 1.375 . S
C728 H689 0.931 . S
C728 C727 1.375 . S
C728 C729 1.375 . S
C729 C728 1.375 . S
C729 C730 1.361 . S
C730 H690 0.930 . S
C730 C729 1.361 . S
C730 C731 1.399 . S
C731 H691 0.929 . S
C731 C726 1.386 . S
C731 C730 1.399 . S
C732 C711 1.485 . S
C732 C733 1.394 . S
C732 C737 1.360 . S
C733 H692 0.931 . S
C733 C732 1.394 . S
C733 C734 1.372 . S
C734 H693 0.930 . S
C734 C733 1.372 . S
C734 C735 1.397 . S
C735 C734 1.397 . S
C735 C736 1.390 . S
C735 C751 1.461 1_655 S
C736 H694 0.930 . S
C736 C735 1.390 . S
C736 C737 1.366 . S
C737 H695 0.932 . S
C737 C732 1.360 . S
C737 C736 1.366 . S
C738 C712 1.490 . S
C738 C739 1.380 . S
C738 C743 1.386 . S
C739 H696 0.930 . S
C739 C738 1.380 . S
C739 C740 1.381 . S
C740 H697 0.929 . S
C740 C739 1.381 . S
C740 C741 1.371 . S
C741 C740 1.371 . S
C741 C742 1.380 . S
C742 H698 0.931 . S
C742 C741 1.380 . S
C742 C743 1.387 . S
C743 H699 0.930 . S
C743 C738 1.386 . S
C743 C742 1.387 . S
C744 C713 1.519 . S
C744 C745 1.377 . S
C744 C749 1.361 . S
C745 H700 0.929 . S
C745 C744 1.377 . S
C745 C746 1.386 . S
C746 H701 0.931 . S
C746 C745 1.386 . S
C746 C747 1.363 . S
C747 C746 1.363 . S
C747 C748 1.385 . S
C748 H702 0.930 . S
C748 C747 1.385 . S
C748 C749 1.396 . S
C749 H703 0.929 . S
C749 C744 1.361 . S
C749 C748 1.396 . S
C750 O704 1.300 . S
C750 O705 1.209 . S
C750 C723 1.486 . S
C751 O706 1.205 . S
C751 O707 1.305 . S
C751 C735 1.461 1_455 S
H752 O778 0.856 . S
H753 O781 0.854 . S
H754 C789 0.930 . S
H755 C790 0.930 . S
H756 C792 0.930 . S
H757 C793 0.930 . S
H758 C795 0.931 . S
H759 C796 0.930 . S
H760 C798 0.930 . S
H761 C799 0.929 . S
H762 C801 0.930 . S
H763 C802 0.931 . S
H764 C804 0.930 . S
H765 C805 0.929 . S
H766 C807 0.931 . S
H767 C808 0.930 . S
H768 C810 0.930 . S
H769 C811 0.932 . S
H770 C813 0.930 . S
H771 C814 0.929 . S
H772 C816 0.931 . S
H773 C817 0.930 . S
H774 C819 0.929 . S
H775 C820 0.931 . S
H776 C822 0.930 . S
H777 C823 0.929 . S
O778 H752 0.856 . S
O778 C824 1.300 . S
O779 C824 1.209 . S
O780 C825 1.199 . S
O781 H753 0.854 . S
O781 C825 1.297 . S
C782 C783 1.404 . S
C782 C787 1.397 . S
C782 C788 1.492 . S
C783 C782 1.404 . S
C783 C784 1.396 . S
C783 C794 1.492 . S
C784 C783 1.396 . S
C784 C785 1.397 . S
C784 C800 1.509 . S
C785 C784 1.397 . S
C785 C786 1.412 . S
C785 C806 1.485 . S
C786 C785 1.412 . S
C786 C787 1.388 . S
C786 C812 1.490 . S
C787 C782 1.397 . S
C787 C786 1.388 . S
C787 C818 1.519 . S
C788 C782 1.492 . S
C788 C789 1.363 . S
C788 C793 1.390 . S
C789 H754 0.930 . S
C789 C788 1.363 . S
C789 C790 1.372 . S
C790 H755 0.930 . S
C790 C789 1.372 . S
C790 C791 1.383 . S
C791 C790 1.383 . S
C791 C792 1.395 . S
C792 H756 0.930 . S
C792 C791 1.395 . S
C792 C793 1.362 . S
C793 H757 0.930 . S
C793 C788 1.390 . S
C793 C792 1.362 . S
C794 C783 1.492 . S
C794 C795 1.377 . S
C794 C799 1.397 . S
C795 H758 0.931 . S
C795 C794 1.377 . S
C795 C796 1.376 . S
C796 H759 0.930 . S
C796 C795 1.376 . S
C796 C797 1.376 . S
C797 C796 1.376 . S
C797 C798 1.378 . S
C797 C824 1.486 . S
C798 H760 0.930 . S
C798 C797 1.378 . S
C798 C799 1.376 . S
C799 H761 0.929 . S
C799 C794 1.397 . S
C799 C798 1.376 . S
C800 C784 1.509 . S
C800 C801 1.391 . S
C800 C805 1.386 . S
C801 H762 0.930 . S
C801 C800 1.391 . S
C801 C802 1.375 . S
C802 H763 0.931 . S
C802 C801 1.375 . S
C802 C803 1.375 . S
C803 C802 1.375 . S
C803 C804 1.361 . S
C804 H764 0.930 . S
C804 C803 1.361 . S
C804 C805 1.399 . S
C805 H765 0.929 . S
C805 C800 1.386 . S
C805 C804 1.399 . S
C806 C785 1.485 . S
C806 C807 1.394 . S
C806 C811 1.360 . S
C807 H766 0.931 . S
C807 C806 1.394 . S
C807 C808 1.372 . S
C808 H767 0.930 . S
C808 C807 1.372 . S
C808 C809 1.397 . S
C809 C808 1.397 . S
C809 C810 1.390 . S
C809 C825 1.476 . S
C810 H768 0.930 . S
C810 C809 1.390 . S
C810 C811 1.366 . S
C811 H769 0.932 . S
C811 C806 1.360 . S
C811 C810 1.366 . S
C812 C786 1.490 . S
C812 C813 1.380 . S
C812 C817 1.386 . S
C813 H770 0.930 . S
C813 C812 1.380 . S
C813 C814 1.381 . S
C814 H771 0.929 . S
C814 C813 1.381 . S
C814 C815 1.371 . S
C815 C814 1.371 . S
C815 C816 1.380 . S
C816 H772 0.931 . S
C816 C815 1.380 . S
C816 C817 1.387 . S
C817 H773 0.930 . S
C817 C812 1.386 . S
C817 C816 1.387 . S
C818 C787 1.519 . S
C818 C819 1.377 . S
C818 C823 1.361 . S
C819 H774 0.929 . S
C819 C818 1.377 . S
C819 C820 1.386 . S
C820 H775 0.931 . S
C820 C819 1.386 . S
C820 C821 1.363 . S
C821 C820 1.363 . S
C821 C822 1.385 . S
C822 H776 0.930 . S
C822 C821 1.385 . S
C822 C823 1.396 . S
C823 H777 0.929 . S
C823 C818 1.361 . S
C823 C822 1.396 . S
C824 O778 1.300 . S
C824 O779 1.209 . S
C824 C797 1.486 . S
C825 O780 1.199 . S
C825 O781 1.297 . S
C825 C809 1.476 . S
H826 O852 0.856 . S
H827 O855 0.854 . S
H828 C863 0.930 . S
H829 C864 0.930 . S
H830 C866 0.930 . S
H831 C867 0.930 . S
H832 C869 0.931 . S
H833 C870 0.930 . S
H834 C872 0.930 . S
H835 C873 0.929 . S
H836 C875 0.930 . S
H837 C876 0.931 . S
H838 C878 0.930 . S
H839 C879 0.929 . S
H840 C881 0.931 . S
H841 C882 0.930 . S
H842 C884 0.930 1_455 S
H843 C885 0.932 . S
H844 C887 0.930 . S
H845 C888 0.929 . S
H846 C890 0.931 . S
H847 C891 0.930 . S
H848 C893 0.929 . S
H849 C894 0.931 . S
H850 C896 0.930 . S
H851 C897 0.929 . S
O852 H826 0.856 . S
O852 C898 1.300 . S
O853 C898 1.209 . S
O854 C899 1.199 . S
O855 H827 0.854 . S
O855 C899 1.297 . S
C856 C857 1.404 . S
C856 C861 1.397 . S
C856 C862 1.492 . S
C857 C856 1.404 . S
C857 C858 1.396 . S
C857 C868 1.492 . S
C858 C857 1.396 . S
C858 C859 1.397 . S
C858 C874 1.509 . S
C859 C858 1.397 . S
C859 C860 1.412 . S
C859 C880 1.485 . S
C860 C859 1.412 . S
C860 C861 1.388 . S
C860 C886 1.490 . S
C861 C856 1.397 . S
C861 C860 1.388 . S
C861 C892 1.519 . S
C862 C856 1.492 . S
C862 C863 1.363 . S
C862 C867 1.390 . S
C863 H828 0.930 . S
C863 C862 1.363 . S
C863 C864 1.372 . S
C864 H829 0.930 . S
C864 C863 1.372 . S
C864 C865 1.383 . S
C865 C864 1.383 . S
C865 C866 1.395 . S
C866 H830 0.930 . S
C866 C865 1.395 . S
C866 C867 1.362 . S
C867 H831 0.930 . S
C867 C862 1.390 . S
C867 C866 1.362 . S
C868 C857 1.492 . S
C868 C869 1.377 . S
C868 C873 1.397 . S
C869 H832 0.931 . S
C869 C868 1.377 . S
C869 C870 1.376 . S
C870 H833 0.930 . S
C870 C869 1.376 . S
C870 C871 1.376 . S
C871 C870 1.376 . S
C871 C872 1.378 . S
C871 C898 1.486 . S
C872 H834 0.930 . S
C872 C871 1.378 . S
C872 C873 1.376 . S
C873 H835 0.929 . S
C873 C868 1.397 . S
C873 C872 1.376 . S
C874 C858 1.509 . S
C874 C875 1.391 . S
C874 C879 1.386 . S
C875 H836 0.930 . S
C875 C874 1.391 . S
C875 C876 1.375 . S
C876 H837 0.931 . S
C876 C875 1.375 . S
C876 C877 1.375 . S
C877 C876 1.375 . S
C877 C878 1.361 . S
C878 H838 0.930 . S
C878 C877 1.361 . S
C878 C879 1.399 . S
C879 H839 0.929 . S
C879 C874 1.386 . S
C879 C878 1.399 . S
C880 C859 1.485 . S
C880 C881 1.394 . S
C880 C885 1.360 . S
C881 H840 0.931 . S
C881 C880 1.394 . S
C881 C882 1.372 . S
C882 H841 0.930 . S
C882 C881 1.372 . S
C882 C883 1.397 . S
C883 C882 1.397 . S
C883 C884 1.390 . S
C883 C899 1.476 1_655 S
C884 H842 0.930 1_655 S
C884 C883 1.390 . S
C884 C885 1.366 . S
C885 H843 0.932 . S
C885 C880 1.360 . S
C885 C884 1.366 . S
C886 C860 1.490 . S
C886 C887 1.380 . S
C886 C891 1.386 . S
C887 H844 0.930 . S
C887 C886 1.380 . S
C887 C888 1.381 . S
C888 H845 0.929 . S
C888 C887 1.381 . S
C888 C889 1.371 . S
C889 C888 1.371 . S
C889 C890 1.380 . S
C890 H846 0.931 . S
C890 C889 1.380 . S
C890 C891 1.387 . S
C891 H847 0.930 . S
C891 C886 1.386 . S
C891 C890 1.387 . S
C892 C861 1.519 . S
C892 C893 1.377 . S
C892 C897 1.361 . S
C893 H848 0.929 . S
C893 C892 1.377 . S
C893 C894 1.386 . S
C894 H849 0.931 . S
C894 C893 1.386 . S
C894 C895 1.363 . S
C895 C894 1.363 . S
C895 C896 1.385 . S
C896 H850 0.930 . S
C896 C895 1.385 . S
C896 C897 1.396 . S
C897 H851 0.929 . S
C897 C892 1.361 . S
C897 C896 1.396 . S
C898 O852 1.300 . S
C898 O853 1.209 . S
C898 C871 1.486 . S
C899 O854 1.199 . S
C899 O855 1.297 . S
C899 C883 1.476 1_455 S
H900 O926 0.856 . S
H901 O929 0.854 . S
H902 C937 0.930 . S
H903 C938 0.930 . S
H904 C940 0.930 . S
H905 C941 0.930 . S
H906 C943 0.926 1_655 S
H907 C944 0.930 1_655 S
H908 C946 0.930 . S
H909 C947 0.929 . S
H910 C949 0.930 . S
H911 C950 0.931 1_655 S
H912 C952 0.930 . S
H913 C953 0.929 . S
H914 C955 0.931 . S
H915 C956 0.930 . S
H916 C958 0.930 . S
H917 C959 0.932 . S
H918 C961 0.930 . S
H919 C962 0.929 . S
H920 C964 0.931 . S
H921 C965 0.930 . S
H922 C967 0.929 . S
H923 C968 0.931 . S
H924 C970 0.930 . S
H925 C971 0.929 . S
O926 H900 0.856 . S
O926 C972 1.300 . S
O927 C972 1.209 . S
O928 C973 1.199 1_655 S
O929 H901 0.854 . S
O929 C973 1.297 . S
C930 C931 1.404 . S
C930 C935 1.397 . S
C930 C936 1.492 . S
C931 C930 1.404 . S
C931 C932 1.396 . S
C931 C942 1.492 . S
C932 C931 1.396 . S
C932 C933 1.397 . S
C932 C948 1.509 . S
C933 C932 1.397 . S
C933 C934 1.413 . S
C933 C954 1.485 . S
C934 C933 1.413 . S
C934 C935 1.387 . S
C934 C960 1.490 1_455 S
C935 C930 1.397 . S
C935 C934 1.387 . S
C935 C966 1.519 1_455 S
C936 C930 1.492 . S
C936 C937 1.363 1_455 S
C936 C941 1.390 . S
C937 H902 0.930 . S
C937 C936 1.363 1_655 S
C937 C938 1.372 . S
C938 H903 0.930 . S
C938 C937 1.372 . S
C938 C939 1.392 . S
C939 C938 1.392 . S
C939 C940 1.368 1_655 S
C940 H904 0.930 . S
C940 C939 1.368 1_455 S
C940 C941 1.362 . S
C941 H905 0.930 . S
C941 C936 1.390 . S
C941 C940 1.362 . S
C942 C931 1.492 . S
C942 C943 1.383 . S
C942 C947 1.397 . S
C943 H906 0.926 1_455 S
C943 C942 1.383 . S
C943 C944 1.375 . S
C944 H907 0.930 1_455 S
C944 C943 1.375 . S
C944 C945 1.376 . S
C945 C944 1.376 . S
C945 C946 1.378 . S
C945 C972 1.486 . S
C946 H908 0.930 . S
C946 C945 1.378 . S
C946 C947 1.376 . S
C947 H909 0.929 . S
C947 C942 1.397 . S
C947 C946 1.376 . S
C948 C932 1.509 . S
C948 C949 1.391 1_455 S
C948 C953 1.386 . S
C949 H910 0.930 . S
C949 C948 1.391 1_655 S
C949 C950 1.375 1_655 S
C950 H911 0.931 1_455 S
C950 C949 1.375 1_455 S
C950 C951 1.375 . S
C951 C950 1.375 . S
C951 C952 1.361 . S
C952 H912 0.930 . S
C952 C951 1.361 . S
C952 C953 1.399 . S
C953 H913 0.929 . S
C953 C948 1.386 . S
C953 C952 1.399 . S
C954 C933 1.485 . S
C954 C955 1.394 1_455 S
C954 C959 1.360 . S
C955 H914 0.931 . S
C955 C954 1.394 1_655 S
C955 C956 1.372 . S
C956 H915 0.930 . S
C956 C955 1.372 . S
C956 C957 1.397 1_655 S
C957 C956 1.397 1_455 S
C957 C958 1.390 . S
C957 C973 1.476 . S
C958 H916 0.930 . S
C958 C957 1.390 . S
C958 C959 1.366 . S
C959 H917 0.932 . S
C959 C954 1.360 . S
C959 C958 1.366 . S
C960 C934 1.490 1_655 S
C960 C961 1.380 . S
C960 C965 1.386 1_655 S
C961 H918 0.930 . S
C961 C960 1.380 . S
C961 C962 1.381 . S
C962 H919 0.929 . S
C962 C961 1.381 . S
C962 C963 1.371 . S
C963 C962 1.371 . S
C963 C964 1.380 1_655 S
C964 H920 0.931 . S
C964 C963 1.380 1_455 S
C964 C965 1.387 . S
C965 H921 0.930 . S
C965 C960 1.386 1_455 S
C965 C964 1.387 . S
C966 C935 1.519 1_655 S
C966 C967 1.377 . S
C966 C971 1.361 1_655 S
C967 H922 0.929 . S
C967 C966 1.377 . S
C967 C968 1.386 . S
C968 H923 0.931 . S
C968 C967 1.386 . S
C968 C969 1.363 . S
C969 C968 1.363 . S
C969 C970 1.385 1_655 S
C970 H924 0.930 . S
C970 C969 1.385 1_455 S
C970 C971 1.396 . S
C971 H925 0.929 . S
C971 C966 1.361 1_455 S
C971 C970 1.396 . S
C972 O926 1.300 . S
C972 O927 1.209 . S
C972 C945 1.486 . S
C973 O928 1.199 1_455 S
C973 O929 1.297 . S
C973 C957 1.476 . S
H974 O1000 0.856 . S
H975 O1003 0.854 . S
H976 C1011 0.930 . S
H977 C1012 0.930 . S
H978 C1014 0.930 . S
H979 C1015 0.930 . S
H980 C1017 0.931 . S
H981 C1018 0.930 . S
H982 C1020 0.930 . S
H983 C1021 0.929 . S
H984 C1023 0.930 . S
H985 C1024 0.931 . S
H986 C1026 0.930 . S
H987 C1027 0.929 . S
H988 C1029 0.931 . S
H989 C1030 0.930 . S
H990 C1032 0.930 . S
H991 C1033 0.932 . S
H992 C1035 0.930 . S
H993 C1036 0.929 . S
H994 C1038 0.931 . S
H995 C1039 0.930 . S
H996 C1041 0.929 . S
H997 C1042 0.931 . S
H998 C1044 0.930 . S
H999 C1045 0.929 . S
O1000 H974 0.856 . S
O1000 C1046 1.300 . S
O1001 C1046 1.209 . S
O1002 C1047 1.199 . S
O1003 H975 0.854 . S
O1003 C1047 1.297 . S
C1004 C1005 1.404 . S
C1004 C1009 1.397 . S
C1004 C1010 1.492 . S
C1005 C1004 1.404 . S
C1005 C1006 1.396 . S
C1005 C1016 1.492 . S
C1006 C1005 1.396 . S
C1006 C1007 1.397 . S
C1006 C1022 1.509 . S
C1007 C1006 1.397 . S
C1007 C1008 1.412 . S
C1007 C1028 1.485 . S
C1008 C1007 1.412 . S
C1008 C1009 1.388 . S
C1008 C1034 1.490 . S
C1009 C1004 1.397 . S
C1009 C1008 1.388 . S
C1009 C1040 1.519 . S
C1010 C1004 1.492 . S
C1010 C1011 1.363 . S
C1010 C1015 1.390 . S
C1011 H976 0.930 . S
C1011 C1010 1.363 . S
C1011 C1012 1.372 . S
C1012 H977 0.930 . S
C1012 C1011 1.372 . S
C1012 C1013 1.383 . S
C1013 C1012 1.383 . S
C1013 C1014 1.395 . S
C1014 H978 0.930 . S
C1014 C1013 1.395 . S
C1014 C1015 1.362 . S
C1015 H979 0.930 . S
C1015 C1010 1.390 . S
C1015 C1014 1.362 . S
C1016 C1005 1.492 . S
C1016 C1017 1.377 . S
C1016 C1021 1.397 . S
C1017 H980 0.931 . S
C1017 C1016 1.377 . S
C1017 C1018 1.376 . S
C1018 H981 0.930 . S
C1018 C1017 1.376 . S
C1018 C1019 1.376 . S
C1019 C1018 1.376 . S
C1019 C1020 1.378 . S
C1019 C1046 1.486 . S
C1020 H982 0.930 . S
C1020 C1019 1.378 . S
C1020 C1021 1.376 . S
C1021 H983 0.929 . S
C1021 C1016 1.397 . S
C1021 C1020 1.376 . S
C1022 C1006 1.509 . S
C1022 C1023 1.391 . S
C1022 C1027 1.386 . S
C1023 H984 0.930 . S
C1023 C1022 1.391 . S
C1023 C1024 1.375 . S
C1024 H985 0.931 . S
C1024 C1023 1.375 . S
C1024 C1025 1.375 . S
C1025 C1024 1.375 . S
C1025 C1026 1.361 . S
C1026 H986 0.930 . S
C1026 C1025 1.361 . S
C1026 C1027 1.399 . S
C1027 H987 0.929 . S
C1027 C1022 1.386 . S
C1027 C1026 1.399 . S
C1028 C1007 1.485 . S
C1028 C1029 1.394 . S
C1028 C1033 1.360 . S
C1029 H988 0.931 . S
C1029 C1028 1.394 . S
C1029 C1030 1.372 . S
C1030 H989 0.930 . S
C1030 C1029 1.372 . S
C1030 C1031 1.397 . S
C1031 C1030 1.397 . S
C1031 C1032 1.390 . S
C1031 C1047 1.476 . S
C1032 H990 0.930 . S
C1032 C1031 1.390 . S
C1032 C1033 1.366 . S
C1033 H991 0.932 . S
C1033 C1028 1.360 . S
C1033 C1032 1.366 . S
C1034 C1008 1.490 . S
C1034 C1035 1.380 . S
C1034 C1039 1.386 . S
C1035 H992 0.930 . S
C1035 C1034 1.380 . S
C1035 C1036 1.381 . S
C1036 H993 0.929 . S
C1036 C1035 1.381 . S
C1036 C1037 1.371 . S
C1037 C1036 1.371 . S
C1037 C1038 1.380 . S
C1038 H994 0.931 . S
C1038 C1037 1.380 . S
C1038 C1039 1.387 . S
C1039 H995 0.930 . S
C1039 C1034 1.386 . S
C1039 C1038 1.387 . S
C1040 C1009 1.519 . S
C1040 C1041 1.377 . S
C1040 C1045 1.361 . S
C1041 H996 0.929 . S
C1041 C1040 1.377 . S
C1041 C1042 1.386 . S
C1042 H997 0.931 . S
C1042 C1041 1.386 . S
C1042 C1043 1.363 . S
C1043 C1042 1.363 . S
C1043 C1044 1.385 . S
C1044 H998 0.930 . S
C1044 C1043 1.385 . S
C1044 C1045 1.396 . S
C1045 H999 0.929 . S
C1045 C1040 1.361 . S
C1045 C1044 1.396 . S
C1046 O1000 1.300 . S
C1046 O1001 1.209 . S
C1046 C1019 1.486 . S
C1047 O1002 1.199 . S
C1047 O1003 1.297 . S
C1047 C1031 1.476 . S
H1048 O1074 0.856 . S
H1049 O1077 0.854 . S
H1050 C1085 0.930 . S
H1051 C1086 0.930 . S
H1052 C1088 0.930 . S
H1053 C1089 0.930 . S
H1054 C1091 0.931 . S
H1055 C1092 0.924 1_545 S
H1056 C1094 0.930 . S
H1057 C1095 0.929 . S
H1058 C1097 0.930 . S
H1059 C1098 0.931 . S
H1060 C1100 0.930 . S
H1061 C1101 0.929 . S
H1062 C1103 0.931 . S
H1063 C1104 0.930 . S
H1064 C1106 0.930 . S
H1065 C1107 0.932 . S
H1066 C1109 0.930 . S
H1067 C1110 0.929 . S
H1068 C1112 0.931 . S
H1069 C1113 0.930 . S
H1070 C1115 0.929 . S
H1071 C1116 0.931 . S
H1072 C1118 0.930 . S
H1073 C1119 0.929 . S
O1074 H1048 0.856 . S
O1074 C1120 1.300 . S
O1075 C1120 1.209 . S
O1076 C1121 1.199 1_545 S
O1077 H1049 0.854 . S
O1077 C1121 1.297 . S
C1078 C1079 1.404 . S
C1078 C1083 1.397 . S
C1078 C1084 1.492 . S
C1079 C1078 1.404 . S
C1079 C1080 1.396 . S
C1079 C1090 1.492 . S
C1080 C1079 1.396 . S
C1080 C1081 1.397 . S
C1080 C1096 1.509 . S
C1081 C1080 1.397 . S
C1081 C1082 1.412 . S
C1081 C1102 1.485 . S
C1082 C1081 1.412 . S
C1082 C1083 1.389 . S
C1082 C1108 1.490 1_565 S
C1083 C1078 1.397 . S
C1083 C1082 1.389 . S
C1083 C1114 1.522 1_565 S
C1084 C1078 1.492 . S
C1084 C1085 1.363 1_565 S
C1084 C1089 1.390 . S
C1085 H1050 0.930 . S
C1085 C1084 1.363 1_545 S
C1085 C1086 1.372 . S
C1086 H1051 0.930 . S
C1086 C1085 1.372 . S
C1086 C1087 1.383 . S
C1087 C1086 1.383 . S
C1087 C1088 1.395 1_545 S
C1088 H1052 0.930 . S
C1088 C1087 1.395 1_565 S
C1088 C1089 1.362 . S
C1089 H1053 0.930 . S
C1089 C1084 1.390 . S
C1089 C1088 1.362 . S
C1090 C1079 1.492 . S
C1090 C1091 1.377 1_565 S
C1090 C1095 1.397 . S
C1091 H1054 0.931 . S
C1091 C1090 1.377 1_545 S
C1091 C1092 1.372 1_545 S
C1092 H1055 0.924 1_565 S
C1092 C1091 1.372 1_565 S
C1092 C1093 1.385 . S
C1093 C1092 1.385 . S
C1093 C1094 1.378 . S
C1093 C1120 1.486 . S
C1094 H1056 0.930 . S
C1094 C1093 1.378 . S
C1094 C1095 1.376 . S
C1095 H1057 0.929 . S
C1095 C1090 1.397 . S
C1095 C1094 1.376 . S
C1096 C1080 1.509 . S
C1096 C1097 1.391 1_565 S
C1096 C1101 1.386 . S
C1097 H1058 0.930 . S
C1097 C1096 1.391 1_545 S
C1097 C1098 1.375 . S
C1098 H1059 0.931 . S
C1098 C1097 1.375 . S
C1098 C1099 1.375 1_545 S
C1099 C1098 1.375 1_565 S
C1099 C1100 1.361 . S
C1100 H1060 0.930 . S
C1100 C1099 1.361 . S
C1100 C1101 1.399 . S
C1101 H1061 0.929 . S
C1101 C1096 1.386 . S
C1101 C1100 1.399 . S
C1102 C1081 1.485 . S
C1102 C1103 1.394 1_565 S
C1102 C1107 1.360 . S
C1103 H1062 0.931 . S
C1103 C1102 1.394 1_545 S
C1103 C1104 1.372 . S
C1104 H1063 0.930 . S
C1104 C1103 1.372 . S
C1104 C1105 1.397 1_545 S
C1105 C1104 1.397 1_565 S
C1105 C1106 1.390 . S
C1105 C1121 1.476 . S
C1106 H1064 0.930 . S
C1106 C1105 1.390 . S
C1106 C1107 1.366 . S
C1107 H1065 0.932 . S
C1107 C1102 1.360 . S
C1107 C1106 1.366 . S
C1108 C1082 1.490 1_545 S
C1108 C1109 1.380 . S
C1108 C1113 1.386 1_545 S
C1109 H1066 0.930 . S
C1109 C1108 1.380 . S
C1109 C1110 1.381 . S
C1110 H1067 0.929 . S
C1110 C1109 1.381 . S
C1110 C1111 1.371 . S
C1111 C1110 1.371 . S
C1111 C1112 1.380 1_545 S
C1112 H1068 0.931 . S
C1112 C1111 1.380 1_565 S
C1112 C1113 1.387 . S
C1113 H1069 0.930 . S
C1113 C1108 1.386 1_565 S
C1113 C1112 1.387 . S
C1114 C1083 1.522 1_545 S
C1114 C1115 1.381 . S
C1114 C1119 1.353 1_545 S
C1115 H1070 0.929 . S
C1115 C1114 1.381 . S
C1115 C1116 1.386 . S
C1116 H1071 0.931 . S
C1116 C1115 1.386 . S
C1116 C1117 1.363 1_545 S
C1117 C1116 1.363 1_565 S
C1117 C1118 1.385 . S
C1118 H1072 0.930 . S
C1118 C1117 1.385 . S
C1118 C1119 1.396 . S
C1119 H1073 0.929 . S
C1119 C1114 1.353 1_565 S
C1119 C1118 1.396 . S
C1120 O1074 1.300 . S
C1120 O1075 1.209 . S
C1120 C1093 1.486 . S
C1121 O1076 1.199 1_565 S
C1121 O1077 1.297 . S
C1121 C1105 1.476 . S
H1122 O1148 0.856 . S
H1123 O1151 0.854 . S
H1124 C1159 0.930 . S
H1125 C1160 0.930 . S
H1126 C1162 0.930 . S
H1127 C1163 0.930 . S
H1128 C1165 0.931 . S
H1129 C1166 0.930 . S
H1130 C1168 0.930 . S
H1131 C1169 0.929 . S
H1132 C1171 0.930 . S
H1133 C1172 0.931 . S
H1134 C1174 0.930 . S
H1135 C1175 0.929 . S
H1136 C1177 0.931 . S
H1137 C1178 0.930 . S
H1138 C1180 0.930 . S
H1139 C1181 0.932 . S
H1140 C1183 0.930 . S
H1141 C1184 0.929 . S
H1142 C1186 0.931 . S
H1143 C1187 0.930 . S
H1144 C1189 0.929 . S
H1145 C1190 0.931 . S
H1146 C1192 0.930 . S
H1147 C1193 0.929 . S
O1148 H1122 0.856 . S
O1148 C1194 1.300 . S
O1149 C1194 1.209 1_565 S
O1150 C1195 1.199 1_545 S
O1151 H1123 0.854 . S
O1151 C1195 1.297 . S
C1152 C1153 1.404 . S
C1152 C1157 1.396 1_545 S
C1152 C1158 1.492 . S
C1153 C1152 1.404 . S
C1153 C1154 1.396 . S
C1153 C1164 1.492 . S
C1154 C1153 1.396 . S
C1154 C1155 1.397 . S
C1154 C1170 1.509 . S
C1155 C1154 1.397 . S
C1155 C1156 1.422 1_545 S
C1155 C1176 1.485 1_545 S
C1156 C1155 1.422 1_565 S
C1156 C1157 1.372 . S
C1156 C1182 1.498 . S
C1157 C1152 1.396 1_565 S
C1157 C1156 1.372 . S
C1157 C1188 1.518 . S
C1158 C1152 1.492 . S
C1158 C1159 1.363 . S
C1158 C1163 1.390 1_545 S
C1159 H1124 0.930 . S
C1159 C1158 1.363 . S
C1159 C1160 1.372 . S
C1160 H1125 0.930 . S
C1160 C1159 1.372 . S
C1160 C1161 1.383 . S
C1161 C1160 1.383 . S
C1161 C1162 1.395 1_545 S
C1162 H1126 0.930 . S
C1162 C1161 1.395 1_565 S
C1162 C1163 1.362 . S
C1163 H1127 0.930 . S
C1163 C1158 1.390 1_565 S
C1163 C1162 1.362 . S
C1164 C1153 1.492 . S
C1164 C1165 1.377 . S
C1164 C1169 1.397 1_545 S
C1165 H1128 0.931 . S
C1165 C1164 1.377 . S
C1165 C1166 1.376 . S
C1166 H1129 0.930 . S
C1166 C1165 1.376 . S
C1166 C1167 1.376 . S
C1167 C1166 1.376 . S
C1167 C1168 1.378 1_545 S
C1167 C1194 1.486 . S
C1168 H1130 0.930 . S
C1168 C1167 1.378 1_565 S
C1168 C1169 1.376 . S
C1169 H1131 0.929 . S
C1169 C1164 1.397 1_565 S
C1169 C1168 1.376 . S
C1170 C1154 1.509 . S
C1170 C1171 1.391 . S
C1170 C1175 1.386 1_545 S
C1171 H1132 0.930 . S
C1171 C1170 1.391 . S
C1171 C1172 1.375 . S
C1172 H1133 0.931 . S
C1172 C1171 1.375 . S
C1172 C1173 1.375 . S
C1173 C1172 1.375 . S
C1173 C1174 1.361 1_545 S
C1174 H1134 0.930 . S
C1174 C1173 1.361 1_565 S
C1174 C1175 1.399 . S
C1175 H1135 0.929 . S
C1175 C1170 1.386 1_565 S
C1175 C1174 1.399 . S
C1176 C1155 1.485 1_565 S
C1176 C1177 1.394 1_565 S
C1176 C1181 1.360 . S
C1177 H1136 0.931 . S
C1177 C1176 1.394 1_545 S
C1177 C1178 1.372 . S
C1178 H1137 0.930 . S
C1178 C1177 1.372 . S
C1178 C1179 1.397 1_545 S
C1179 C1178 1.397 1_565 S
C1179 C1180 1.390 . S
C1179 C1195 1.476 . S
C1180 H1138 0.930 . S
C1180 C1179 1.390 . S
C1180 C1181 1.366 . S
C1181 H1139 0.932 . S
C1181 C1176 1.360 . S
C1181 C1180 1.366 . S
C1182 C1156 1.498 . S
C1182 C1183 1.380 1_565 S
C1182 C1187 1.386 . S
C1183 H1140 0.930 . S
C1183 C1182 1.380 1_545 S
C1183 C1184 1.381 . S
C1184 H1141 0.929 . S
C1184 C1183 1.381 . S
C1184 C1185 1.355 1_545 S
C1185 C1184 1.355 1_565 S
C1185 C1186 1.392 . S
C1186 H1142 0.931 . S
C1186 C1185 1.392 . S
C1186 C1187 1.387 . S
C1187 H1143 0.930 . S
C1187 C1182 1.386 . S
C1187 C1186 1.387 . S
C1188 C1157 1.518 . S
C1188 C1189 1.377 1_565 S
C1188 C1193 1.361 . S
C1189 H1144 0.929 . S
C1189 C1188 1.377 1_545 S
C1189 C1190 1.386 . S
C1190 H1145 0.931 . S
C1190 C1189 1.386 . S
C1190 C1191 1.363 1_545 S
C1191 C1190 1.363 1_565 S
C1191 C1192 1.385 . S
C1192 H1146 0.930 . S
C1192 C1191 1.385 . S
C1192 C1193 1.396 . S
C1193 H1147 0.929 . S
C1193 C1188 1.361 . S
C1193 C1192 1.396 . S
C1194 O1148 1.300 . S
C1194 O1149 1.209 1_545 S
C1194 C1167 1.486 . S
C1195 O1150 1.199 1_565 S
C1195 O1151 1.297 . S
C1195 C1179 1.476 . S
H1196 O1222 0.856 . S
H1197 O1225 0.854 . S
H1198 C1233 0.930 . S
H1199 C1234 0.930 . S
H1200 C1236 0.930 . S
H1201 C1237 0.930 . S
H1202 C1239 0.931 . S
H1203 C1240 0.930 . S
H1204 C1242 0.930 . S
H1205 C1243 0.929 . S
H1206 C1245 0.930 . S
H1207 C1246 0.931 . S
H1208 C1248 0.930 . S
H1209 C1249 0.929 . S
H1210 C1251 0.931 . S
H1211 C1252 0.930 . S
H1212 C1254 0.930 . S
H1213 C1255 0.932 . S
H1214 C1257 0.930 . S
H1215 C1258 0.929 . S
H1216 C1260 0.931 . S
H1217 C1261 0.930 . S
H1218 C1263 0.929 . S
H1219 C1264 0.931 . S
H1220 C1266 0.930 . S
H1221 C1267 0.929 . S
O1222 H1196 0.856 . S
O1222 C1268 1.300 . S
O1223 C1268 1.205 . S
O1224 C1269 1.199 1_655 S
O1225 H1197 0.854 . S
O1225 C1269 1.297 . S
C1226 C1227 1.404 . S
C1226 C1231 1.397 1_655 S
C1226 C1232 1.492 . S
C1227 C1226 1.404 . S
C1227 C1228 1.396 . S
C1227 C1238 1.492 . S
C1228 C1227 1.396 . S
C1228 C1229 1.395 . S
C1228 C1244 1.509 . S
C1229 C1228 1.395 . S
C1229 C1230 1.404 1_655 S
C1229 C1250 1.496 1_655 S
C1230 C1229 1.404 1_455 S
C1230 C1231 1.390 . S
C1230 C1256 1.490 . S
C1231 C1226 1.397 1_455 S
C1231 C1230 1.390 . S
C1231 C1262 1.517 . S
C1232 C1226 1.492 . S
C1232 C1233 1.363 . S
C1232 C1237 1.390 1_655 S
C1233 H1198 0.930 . S
C1233 C1232 1.363 . S
C1233 C1234 1.372 . S
C1234 H1199 0.930 . S
C1234 C1233 1.372 . S
C1234 C1235 1.383 . S
C1235 C1234 1.383 . S
C1235 C1236 1.395 1_655 S
C1236 H1200 0.930 . S
C1236 C1235 1.395 1_455 S
C1236 C1237 1.362 . S
C1237 H1201 0.930 . S
C1237 C1232 1.390 1_455 S
C1237 C1236 1.362 . S
C1238 C1227 1.492 . S
C1238 C1239 1.377 . S
C1238 C1243 1.397 1_655 S
C1239 H1202 0.931 . S
C1239 C1238 1.377 . S
C1239 C1240 1.376 . S
C1240 H1203 0.930 . S
C1240 C1239 1.376 . S
C1240 C1241 1.376 . S
C1241 C1240 1.376 . S
C1241 C1242 1.378 1_655 S
C1241 C1268 1.486 . S
C1242 H1204 0.930 . S
C1242 C1241 1.378 1_455 S
C1242 C1243 1.376 . S
C1243 H1205 0.929 . S
C1243 C1238 1.397 1_455 S
C1243 C1242 1.376 . S
C1244 C1228 1.509 . S
C1244 C1245 1.391 . S
C1244 C1249 1.386 1_655 S
C1245 H1206 0.930 . S
C1245 C1244 1.391 . S
C1245 C1246 1.375 . S
C1246 H1207 0.931 . S
C1246 C1245 1.375 . S
C1246 C1247 1.375 . S
C1247 C1246 1.375 . S
C1247 C1248 1.361 1_655 S
C1248 H1208 0.930 . S
C1248 C1247 1.361 1_455 S
C1248 C1249 1.399 . S
C1249 H1209 0.929 . S
C1249 C1244 1.386 1_455 S
C1249 C1248 1.399 . S
C1250 C1229 1.496 1_455 S
C1250 C1251 1.394 1_455 S
C1250 C1255 1.360 . S
C1251 H1210 0.931 . S
C1251 C1250 1.394 1_655 S
C1251 C1252 1.372 . S
C1252 H1211 0.930 . S
C1252 C1251 1.372 . S
C1252 C1253 1.397 1_655 S
C1253 C1252 1.397 1_455 S
C1253 C1254 1.390 . S
C1253 C1269 1.476 . S
C1254 H1212 0.930 . S
C1254 C1253 1.390 . S
C1254 C1255 1.366 . S
C1255 H1213 0.932 . S
C1255 C1250 1.360 . S
C1255 C1254 1.366 . S
C1256 C1230 1.490 . S
C1256 C1257 1.380 1_455 S
C1256 C1261 1.386 . S
C1257 H1214 0.930 . S
C1257 C1256 1.380 1_655 S
C1257 C1258 1.381 . S
C1258 H1215 0.929 . S
C1258 C1257 1.381 . S
C1258 C1259 1.371 1_655 S
C1259 C1258 1.371 1_455 S
C1259 C1260 1.380 . S
C1260 H1216 0.931 . S
C1260 C1259 1.380 . S
C1260 C1261 1.387 . S
C1261 H1217 0.930 . S
C1261 C1256 1.386 . S
C1261 C1260 1.387 . S
C1262 C1231 1.517 . S
C1262 C1263 1.377 1_455 S
C1262 C1267 1.361 . S
C1263 H1218 0.929 . S
C1263 C1262 1.377 1_655 S
C1263 C1264 1.386 . S
C1264 H1219 0.931 . S
C1264 C1263 1.386 . S
C1264 C1265 1.363 1_655 S
C1265 C1264 1.363 1_455 S
C1265 C1266 1.385 . S
C1266 H1220 0.930 . S
C1266 C1265 1.385 . S
C1266 C1267 1.396 . S
C1267 H1221 0.929 . S
C1267 C1262 1.361 . S
C1267 C1266 1.396 . S
C1268 O1222 1.300 . S
C1268 O1223 1.205 . S
C1268 C1241 1.486 . S
C1269 O1224 1.199 1_455 S
C1269 O1225 1.297 . S
C1269 C1253 1.476 . S
H1270 O1296 0.856 . S
H1271 O1299 0.854 . S
H1272 C1307 0.930 . S
H1273 C1308 0.930 . S
H1274 C1310 0.930 . S
H1275 C1311 0.930 . S
H1276 C1313 0.931 . S
H1277 C1314 0.930 . S
H1278 C1316 0.930 . S
H1279 C1317 0.929 . S
H1280 C1319 0.930 . S
H1281 C1320 0.931 . S
H1282 C1322 0.930 . S
H1283 C1323 0.929 . S
H1284 C1325 0.931 . S
H1285 C1326 0.930 . S
H1286 C1328 0.930 . S
H1287 C1329 0.932 . S
H1288 C1331 0.930 . S
H1289 C1332 0.929 . S
H1290 C1334 0.931 . S
H1291 C1335 0.930 . S
H1292 C1337 0.929 . S
H1293 C1338 0.931 . S
H1294 C1340 0.930 . S
H1295 C1341 0.929 . S
O1296 H1270 0.856 . S
O1296 C1342 1.300 . S
O1297 C1342 1.209 . S
O1298 C1343 1.199 . S
O1299 H1271 0.854 . S
O1299 C1343 1.297 . S
C1300 C1301 1.404 . S
C1300 C1305 1.397 . S
C1300 C1306 1.492 . S
C1301 C1300 1.404 . S
C1301 C1302 1.396 . S
C1301 C1312 1.492 . S
C1302 C1301 1.396 . S
C1302 C1303 1.397 . S
C1302 C1318 1.509 . S
C1303 C1302 1.397 . S
C1303 C1304 1.412 . S
C1303 C1324 1.485 . S
C1304 C1303 1.412 . S
C1304 C1305 1.388 . S
C1304 C1330 1.490 . S
C1305 C1300 1.397 . S
C1305 C1304 1.388 . S
C1305 C1336 1.519 . S
C1306 C1300 1.492 . S
C1306 C1307 1.363 . S
C1306 C1311 1.390 . S
C1307 H1272 0.930 . S
C1307 C1306 1.363 . S
C1307 C1308 1.372 . S
C1308 H1273 0.930 . S
C1308 C1307 1.372 . S
C1308 C1309 1.383 . S
C1309 C1308 1.383 . S
C1309 C1310 1.395 . S
C1310 H1274 0.930 . S
C1310 C1309 1.395 . S
C1310 C1311 1.362 . S
C1311 H1275 0.930 . S
C1311 C1306 1.390 . S
C1311 C1310 1.362 . S
C1312 C1301 1.492 . S
C1312 C1313 1.377 . S
C1312 C1317 1.397 . S
C1313 H1276 0.931 . S
C1313 C1312 1.377 . S
C1313 C1314 1.376 . S
C1314 H1277 0.930 . S
C1314 C1313 1.376 . S
C1314 C1315 1.376 . S
C1315 C1314 1.376 . S
C1315 C1316 1.378 . S
C1315 C1342 1.486 . S
C1316 H1278 0.930 . S
C1316 C1315 1.378 . S
C1316 C1317 1.376 . S
C1317 H1279 0.929 . S
C1317 C1312 1.397 . S
C1317 C1316 1.376 . S
C1318 C1302 1.509 . S
C1318 C1319 1.391 . S
C1318 C1323 1.386 . S
C1319 H1280 0.930 . S
C1319 C1318 1.391 . S
C1319 C1320 1.375 . S
C1320 H1281 0.931 . S
C1320 C1319 1.375 . S
C1320 C1321 1.375 . S
C1321 C1320 1.375 . S
C1321 C1322 1.361 . S
C1322 H1282 0.930 . S
C1322 C1321 1.361 . S
C1322 C1323 1.399 . S
C1323 H1283 0.929 . S
C1323 C1318 1.386 . S
C1323 C1322 1.399 . S
C1324 C1303 1.485 . S
C1324 C1325 1.394 . S
C1324 C1329 1.360 . S
C1325 H1284 0.931 . S
C1325 C1324 1.394 . S
C1325 C1326 1.372 . S
C1326 H1285 0.930 . S
C1326 C1325 1.372 . S
C1326 C1327 1.397 . S
C1327 C1326 1.397 . S
C1327 C1328 1.390 . S
C1327 C1343 1.476 . S
C1328 H1286 0.930 . S
C1328 C1327 1.390 . S
C1328 C1329 1.366 . S
C1329 H1287 0.932 . S
C1329 C1324 1.360 . S
C1329 C1328 1.366 . S
C1330 C1304 1.490 . S
C1330 C1331 1.380 . S
C1330 C1335 1.386 . S
C1331 H1288 0.930 . S
C1331 C1330 1.380 . S
C1331 C1332 1.381 . S
C1332 H1289 0.929 . S
C1332 C1331 1.381 . S
C1332 C1333 1.371 . S
C1333 C1332 1.371 . S
C1333 C1334 1.380 . S
C1334 H1290 0.931 . S
C1334 C1333 1.380 . S
C1334 C1335 1.387 . S
C1335 H1291 0.930 . S
C1335 C1330 1.386 . S
C1335 C1334 1.387 . S
C1336 C1305 1.519 . S
C1336 C1337 1.377 . S
C1336 C1341 1.361 . S
C1337 H1292 0.929 . S
C1337 C1336 1.377 . S
C1337 C1338 1.386 . S
C1338 H1293 0.931 . S
C1338 C1337 1.386 . S
C1338 C1339 1.363 . S
C1339 C1338 1.363 . S
C1339 C1340 1.385 . S
C1340 H1294 0.930 . S
C1340 C1339 1.385 . S
C1340 C1341 1.396 . S
C1341 H1295 0.929 . S
C1341 C1336 1.361 . S
C1341 C1340 1.396 . S
C1342 O1296 1.300 . S
C1342 O1297 1.209 . S
C1342 C1315 1.486 . S
C1343 O1298 1.199 . S
C1343 O1299 1.297 . S
C1343 C1327 1.476 . S
H1344 O1370 0.856 . S
H1345 O1373 0.854 . S
H1346 C1381 0.930 . S
H1347 C1382 0.930 . S
H1348 C1384 0.930 . S
H1349 C1385 0.930 . S
H1350 C1387 0.931 . S
H1351 C1388 0.930 . S
H1352 C1390 0.930 . S
H1353 C1391 0.929 . S
H1354 C1393 0.930 . S
H1355 C1394 0.931 . S
H1356 C1396 0.930 . S
H1357 C1397 0.929 . S
H1358 C1399 0.931 . S
H1359 C1400 0.930 . S
H1360 C1402 0.930 . S
H1361 C1403 0.932 . S
H1362 C1405 0.930 . S
H1363 C1406 0.929 . S
H1364 C1408 0.931 . S
H1365 C1409 0.930 . S
H1366 C1411 0.929 . S
H1367 C1412 0.931 . S
H1368 C1414 0.930 . S
H1369 C1415 0.929 . S
O1370 H1344 0.856 . S
O1370 C1416 1.300 . S
O1371 C1416 1.209 . S
O1372 C1417 1.199 . S
O1373 H1345 0.854 . S
O1373 C1417 1.297 . S
C1374 C1375 1.404 . S
C1374 C1379 1.397 . S
C1374 C1380 1.492 . S
C1375 C1374 1.404 . S
C1375 C1376 1.396 . S
C1375 C1386 1.492 . S
C1376 C1375 1.396 . S
C1376 C1377 1.397 . S
C1376 C1392 1.509 . S
C1377 C1376 1.397 . S
C1377 C1378 1.412 . S
C1377 C1398 1.485 . S
C1378 C1377 1.412 . S
C1378 C1379 1.388 . S
C1378 C1404 1.490 . S
C1379 C1374 1.397 . S
C1379 C1378 1.388 . S
C1379 C1410 1.519 . S
C1380 C1374 1.492 . S
C1380 C1381 1.363 . S
C1380 C1385 1.390 . S
C1381 H1346 0.930 . S
C1381 C1380 1.363 . S
C1381 C1382 1.372 . S
C1382 H1347 0.930 . S
C1382 C1381 1.372 . S
C1382 C1383 1.383 . S
C1383 C1382 1.383 . S
C1383 C1384 1.395 . S
C1384 H1348 0.930 . S
C1384 C1383 1.395 . S
C1384 C1385 1.362 . S
C1385 H1349 0.930 . S
C1385 C1380 1.390 . S
C1385 C1384 1.362 . S
C1386 C1375 1.492 . S
C1386 C1387 1.377 . S
C1386 C1391 1.397 . S
C1387 H1350 0.931 . S
C1387 C1386 1.377 . S
C1387 C1388 1.376 . S
C1388 H1351 0.930 . S
C1388 C1387 1.376 . S
C1388 C1389 1.376 . S
C1389 C1388 1.376 . S
C1389 C1390 1.378 . S
C1389 C1416 1.486 . S
C1390 H1352 0.930 . S
C1390 C1389 1.378 . S
C1390 C1391 1.376 . S
C1391 H1353 0.929 . S
C1391 C1386 1.397 . S
C1391 C1390 1.376 . S
C1392 C1376 1.509 . S
C1392 C1393 1.391 . S
C1392 C1397 1.386 . S
C1393 H1354 0.930 . S
C1393 C1392 1.391 . S
C1393 C1394 1.375 . S
C1394 H1355 0.931 . S
C1394 C1393 1.375 . S
C1394 C1395 1.375 . S
C1395 C1394 1.375 . S
C1395 C1396 1.361 . S
C1396 H1356 0.930 . S
C1396 C1395 1.361 . S
C1396 C1397 1.399 . S
C1397 H1357 0.929 . S
C1397 C1392 1.386 . S
C1397 C1396 1.399 . S
C1398 C1377 1.485 . S
C1398 C1399 1.394 . S
C1398 C1403 1.360 . S
C1399 H1358 0.931 . S
C1399 C1398 1.394 . S
C1399 C1400 1.372 . S
C1400 H1359 0.930 . S
C1400 C1399 1.372 . S
C1400 C1401 1.397 . S
C1401 C1400 1.397 . S
C1401 C1402 1.390 . S
C1401 C1417 1.476 . S
C1402 H1360 0.930 . S
C1402 C1401 1.390 . S
C1402 C1403 1.366 . S
C1403 H1361 0.932 . S
C1403 C1398 1.360 . S
C1403 C1402 1.366 . S
C1404 C1378 1.490 . S
C1404 C1405 1.380 . S
C1404 C1409 1.386 . S
C1405 H1362 0.930 . S
C1405 C1404 1.380 . S
C1405 C1406 1.381 . S
C1406 H1363 0.929 . S
C1406 C1405 1.381 . S
C1406 C1407 1.371 . S
C1407 C1406 1.371 . S
C1407 C1408 1.380 . S
C1408 H1364 0.931 . S
C1408 C1407 1.380 . S
C1408 C1409 1.387 . S
C1409 H1365 0.930 . S
C1409 C1404 1.386 . S
C1409 C1408 1.387 . S
C1410 C1379 1.519 . S
C1410 C1411 1.377 . S
C1410 C1415 1.361 . S
C1411 H1366 0.929 . S
C1411 C1410 1.377 . S
C1411 C1412 1.386 . S
C1412 H1367 0.931 . S
C1412 C1411 1.386 . S
C1412 C1413 1.363 . S
C1413 C1412 1.363 . S
C1413 C1414 1.385 . S
C1414 H1368 0.930 . S
C1414 C1413 1.385 . S
C1414 C1415 1.396 . S
C1415 H1369 0.929 . S
C1415 C1410 1.361 . S
C1415 C1414 1.396 . S
C1416 O1370 1.300 . S
C1416 O1371 1.209 . S
C1416 C1389 1.486 . S
C1417 O1372 1.199 . S
C1417 O1373 1.297 . S
C1417 C1401 1.476 . S
H1418 O1444 0.856 . S
H1419 O1447 0.854 . S
H1420 C1455 0.930 . S
H1421 C1456 0.930 . S
H1422 C1458 0.930 . S
H1423 C1459 0.930 . S
H1424 C1461 0.931 . S
H1425 C1462 0.930 . S
H1426 C1464 0.930 . S
H1427 C1465 0.929 . S
H1428 C1467 0.930 . S
H1429 C1468 0.931 . S
H1430 C1470 0.930 . S
H1431 C1471 0.929 . S
H1432 C1473 0.931 . S
H1433 C1474 0.930 . S
H1434 C1476 0.930 . S
H1435 C1477 0.932 . S
H1436 C1479 0.930 . S
H1437 C1480 0.929 . S
H1438 C1482 0.931 . S
H1439 C1483 0.930 . S
H1440 C1485 0.929 . S
H1441 C1486 0.931 . S
H1442 C1488 0.930 . S
H1443 C1489 0.929 . S
O1444 H1418 0.856 . S
O1444 C1490 1.300 . S
O1445 C1490 1.209 . S
O1446 C1491 1.199 . S
O1447 H1419 0.854 . S
O1447 C1491 1.297 . S
C1448 C1449 1.404 . S
C1448 C1453 1.397 . S
C1448 C1454 1.492 . S
C1449 C1448 1.404 . S
C1449 C1450 1.396 . S
C1449 C1460 1.492 . S
C1450 C1449 1.396 . S
C1450 C1451 1.397 . S
C1450 C1466 1.509 . S
C1451 C1450 1.397 . S
C1451 C1452 1.412 . S
C1451 C1472 1.485 . S
C1452 C1451 1.412 . S
C1452 C1453 1.388 . S
C1452 C1478 1.490 . S
C1453 C1448 1.397 . S
C1453 C1452 1.388 . S
C1453 C1484 1.519 . S
C1454 C1448 1.492 . S
C1454 C1455 1.363 . S
C1454 C1459 1.390 . S
C1455 H1420 0.930 . S
C1455 C1454 1.363 . S
C1455 C1456 1.372 . S
C1456 H1421 0.930 . S
C1456 C1455 1.372 . S
C1456 C1457 1.383 . S
C1457 C1456 1.383 . S
C1457 C1458 1.395 . S
C1458 H1422 0.930 . S
C1458 C1457 1.395 . S
C1458 C1459 1.362 . S
C1459 H1423 0.930 . S
C1459 C1454 1.390 . S
C1459 C1458 1.362 . S
C1460 C1449 1.492 . S
C1460 C1461 1.377 . S
C1460 C1465 1.397 . S
C1461 H1424 0.931 . S
C1461 C1460 1.377 . S
C1461 C1462 1.376 . S
C1462 H1425 0.930 . S
C1462 C1461 1.376 . S
C1462 C1463 1.376 . S
C1463 C1462 1.376 . S
C1463 C1464 1.378 . S
C1463 C1490 1.486 . S
C1464 H1426 0.930 . S
C1464 C1463 1.378 . S
C1464 C1465 1.376 . S
C1465 H1427 0.929 . S
C1465 C1460 1.397 . S
C1465 C1464 1.376 . S
C1466 C1450 1.509 . S
C1466 C1467 1.391 . S
C1466 C1471 1.386 . S
C1467 H1428 0.930 . S
C1467 C1466 1.391 . S
C1467 C1468 1.375 . S
C1468 H1429 0.931 . S
C1468 C1467 1.375 . S
C1468 C1469 1.375 . S
C1469 C1468 1.375 . S
C1469 C1470 1.361 . S
C1470 H1430 0.930 . S
C1470 C1469 1.361 . S
C1470 C1471 1.399 . S
C1471 H1431 0.929 . S
C1471 C1466 1.386 . S
C1471 C1470 1.399 . S
C1472 C1451 1.485 . S
C1472 C1473 1.394 . S
C1472 C1477 1.360 . S
C1473 H1432 0.931 . S
C1473 C1472 1.394 . S
C1473 C1474 1.372 . S
C1474 H1433 0.930 . S
C1474 C1473 1.372 . S
C1474 C1475 1.397 . S
C1475 C1474 1.397 . S
C1475 C1476 1.390 . S
C1475 C1491 1.476 1_455 S
C1476 H1434 0.930 . S
C1476 C1475 1.390 . S
C1476 C1477 1.366 . S
C1477 H1435 0.932 . S
C1477 C1472 1.360 . S
C1477 C1476 1.366 . S
C1478 C1452 1.490 . S
C1478 C1479 1.380 . S
C1478 C1483 1.386 . S
C1479 H1436 0.930 . S
C1479 C1478 1.380 . S
C1479 C1480 1.381 . S
C1480 H1437 0.929 . S
C1480 C1479 1.381 . S
C1480 C1481 1.371 . S
C1481 C1480 1.371 . S
C1481 C1482 1.380 . S
C1482 H1438 0.931 . S
C1482 C1481 1.380 . S
C1482 C1483 1.387 . S
C1483 H1439 0.930 . S
C1483 C1478 1.386 . S
C1483 C1482 1.387 . S
C1484 C1453 1.519 . S
C1484 C1485 1.377 . S
C1484 C1489 1.361 . S
C1485 H1440 0.929 . S
C1485 C1484 1.377 . S
C1485 C1486 1.386 . S
C1486 H1441 0.931 . S
C1486 C1485 1.386 . S
C1486 C1487 1.363 . S
C1487 C1486 1.363 . S
C1487 C1488 1.385 . S
C1488 H1442 0.930 . S
C1488 C1487 1.385 . S
C1488 C1489 1.396 . S
C1489 H1443 0.929 . S
C1489 C1484 1.361 . S
C1489 C1488 1.396 . S
C1490 O1444 1.300 . S
C1490 O1445 1.209 . S
C1490 C1463 1.486 . S
C1491 O1446 1.199 . S
C1491 O1447 1.297 . S
C1491 C1475 1.476 1_655 S
H1492 O1518 0.856 . S
H1493 O1521 0.854 . S
H1494 C1529 0.930 . S
H1495 C1530 0.930 . S
H1496 C1532 0.930 . S
H1497 C1533 0.930 . S
H1498 C1535 0.931 . S
H1499 C1536 0.930 . S
H1500 C1538 0.930 . S
H1501 C1539 0.929 . S
H1502 C1541 0.930 . S
H1503 C1542 0.931 . S
H1504 C1544 0.930 . S
H1505 C1545 0.929 . S
H1506 C1547 0.931 . S
H1507 C1548 0.930 . S
H1508 C1550 0.930 . S
H1509 C1551 0.932 . S
H1510 C1553 0.930 . S
H1511 C1554 0.929 . S
H1512 C1556 0.931 . S
H1513 C1557 0.930 . S
H1514 C1559 0.929 . S
H1515 C1560 0.931 . S
H1516 C1562 0.930 . S
H1517 C1563 0.929 . S
O1518 H1492 0.856 . S
O1518 C1564 1.300 . S
O1519 C1564 1.209 . S
O1520 C1565 1.199 . S
O1521 H1493 0.854 . S
O1521 C1565 1.297 . S
C1522 C1523 1.404 . S
C1522 C1527 1.397 . S
C1522 C1528 1.492 . S
C1523 C1522 1.404 . S
C1523 C1524 1.396 . S
C1523 C1534 1.492 . S
C1524 C1523 1.396 . S
C1524 C1525 1.397 . S
C1524 C1540 1.509 . S
C1525 C1524 1.397 . S
C1525 C1526 1.412 . S
C1525 C1546 1.485 . S
C1526 C1525 1.412 . S
C1526 C1527 1.388 . S
C1526 C1552 1.490 . S
C1527 C1522 1.397 . S
C1527 C1526 1.388 . S
C1527 C1558 1.519 . S
C1528 C1522 1.492 . S
C1528 C1529 1.363 . S
C1528 C1533 1.390 . S
C1529 H1494 0.930 . S
C1529 C1528 1.363 . S
C1529 C1530 1.372 . S
C1530 H1495 0.930 . S
C1530 C1529 1.372 . S
C1530 C1531 1.383 . S
C1531 C1530 1.383 . S
C1531 C1532 1.395 . S
C1532 H1496 0.930 . S
C1532 C1531 1.395 . S
C1532 C1533 1.362 . S
C1533 H1497 0.930 . S
C1533 C1528 1.390 . S
C1533 C1532 1.362 . S
C1534 C1523 1.492 . S
C1534 C1535 1.377 . S
C1534 C1539 1.397 . S
C1535 H1498 0.931 . S
C1535 C1534 1.377 . S
C1535 C1536 1.376 . S
C1536 H1499 0.930 . S
C1536 C1535 1.376 . S
C1536 C1537 1.376 . S
C1537 C1536 1.376 . S
C1537 C1538 1.378 . S
C1537 C1564 1.486 . S
C1538 H1500 0.930 . S
C1538 C1537 1.378 . S
C1538 C1539 1.376 . S
C1539 H1501 0.929 . S
C1539 C1534 1.397 . S
C1539 C1538 1.376 . S
C1540 C1524 1.509 . S
C1540 C1541 1.391 . S
C1540 C1545 1.386 . S
C1541 H1502 0.930 . S
C1541 C1540 1.391 . S
C1541 C1542 1.375 . S
C1542 H1503 0.931 . S
C1542 C1541 1.375 . S
C1542 C1543 1.375 . S
C1543 C1542 1.375 . S
C1543 C1544 1.361 . S
C1544 H1504 0.930 . S
C1544 C1543 1.361 . S
C1544 C1545 1.399 . S
C1545 H1505 0.929 . S
C1545 C1540 1.386 . S
C1545 C1544 1.399 . S
C1546 C1525 1.485 . S
C1546 C1547 1.394 . S
C1546 C1551 1.360 . S
C1547 H1506 0.931 . S
C1547 C1546 1.394 . S
C1547 C1548 1.372 . S
C1548 H1507 0.930 . S
C1548 C1547 1.372 . S
C1548 C1549 1.397 . S
C1549 C1548 1.397 . S
C1549 C1550 1.390 . S
C1549 C1565 1.476 1_455 S
C1550 H1508 0.930 . S
C1550 C1549 1.390 . S
C1550 C1551 1.366 . S
C1551 H1509 0.932 . S
C1551 C1546 1.360 . S
C1551 C1550 1.366 . S
C1552 C1526 1.490 . S
C1552 C1553 1.380 . S
C1552 C1557 1.386 . S
C1553 H1510 0.930 . S
C1553 C1552 1.380 . S
C1553 C1554 1.381 . S
C1554 H1511 0.929 . S
C1554 C1553 1.381 . S
C1554 C1555 1.371 . S
C1555 C1554 1.371 . S
C1555 C1556 1.380 . S
C1556 H1512 0.931 . S
C1556 C1555 1.380 . S
C1556 C1557 1.387 . S
C1557 H1513 0.930 . S
C1557 C1552 1.386 . S
C1557 C1556 1.387 . S
C1558 C1527 1.519 . S
C1558 C1559 1.377 . S
C1558 C1563 1.361 . S
C1559 H1514 0.929 . S
C1559 C1558 1.377 . S
C1559 C1560 1.386 . S
C1560 H1515 0.931 . S
C1560 C1559 1.386 . S
C1560 C1561 1.363 . S
C1561 C1560 1.363 . S
C1561 C1562 1.385 . S
C1562 H1516 0.930 . S
C1562 C1561 1.385 . S
C1562 C1563 1.396 . S
C1563 H1517 0.929 . S
C1563 C1558 1.361 . S
C1563 C1562 1.396 . S
C1564 O1518 1.300 . S
C1564 O1519 1.209 . S
C1564 C1537 1.486 . S
C1565 O1520 1.199 . S
C1565 O1521 1.297 . S
C1565 C1549 1.476 1_655 S
C10 C963 1.841 . S
C23 C1043 1.907 . S
C1111 C29 1.584 . S
C30 C1191 2.226 . S
C5 C1265 1.854 . S
C18 C1333 2.047 1_554 S
C49 C1259 1.423 . S
C1339 C62 1.527 . S
C1185 C70 1.311 . S
C75 C1117 2.093 1_545 S
C969 C44 1.575 . S
C57 C1037 1.492 . S
C88 C1407 2.084 . S
C101 C1487 1.998 . S
C1555 C107 1.945 . S
C108 C303 2.471 . S
C83 C377 2.128 . S
C96 C445 2.101 . S
C127 C371 1.456 . S
C140 C451 1.562 . S
C297 C146 1.363 . S
C1561 C147 2.196 . S
C1413 C122 1.693 . S
C1481 C135 1.557 . S
C160 C519 2.012 . S
C173 C599 1.973 . S
C185 C667 1.919 . S
C186 C747 2.512 . S
C821 C159 2.165 . S
C889 C172 2.153 . S
C815 C205 1.524 . S
C895 C218 1.572 . S
C224 C741 1.363 . S
C673 C225 2.162 . S
C200 C525 1.679 . S
C593 C213 1.519 . S
C273 C4 2.280 . S
C17 C347 1.513 . S
C433 C31 1.596 . S
C507 C36 1.720 1_554 S
C569 C3 1.706 . S
C655 C16 1.659 . S
C43 C643 2.630 1_554 S
C56 C495 2.049 . S
C68 C581 2.254 . S
C69 C359 2.419 . S
C421 C42 2.223 . S
C55 C285 2.275 . S
C717 C82 2.233 . S
C95 C791 1.579 . S
C109 C877 1.632 1_455 S
C951 C114 1.640 . S
C81 C1013 1.652 . S
C94 C1099 1.566 . S
C121 C1087 2.332 1_565 S
C134 C939 1.762 1_455 S
C1025 C148 2.177 . S
C153 C803 2.460 . S
C120 C865 2.209 . S
C729 C133 2.290 . S
C1161 C166 2.134 . S
C179 C1235 1.378 . S
C187 C1321 1.567 . S
C1395 C192 1.783 . S
C1457 C161 1.716 . S
C174 C1543 1.698 . S
C199 C1531 2.585 . S
C212 C1383 2.094 . S
C1469 C226 2.251 1_455 S
C1247 C231 2.124 . S
C1309 C198 2.145 . S
C211 C1173 1.944 . S
