# Generated by pormake.
# Topology anh, (6,3)-cn, num edge types: 1
# Building blocks:
#     Node 0, Type 0, BuildingBlock: BETGAK_clean_sbu_0, # of connection points: 6
#     Node 1, Type 0, BuildingBlock: BETGAK_clean_sbu_0, # of connection points: 6
#     Node 2, Type 0, BuildingBlock: BETGAK_clean_sbu_0, # of connection points: 6
#     Node 3, Type 1, BuildingBlock: VETTIZ_charged_linker_0, # of connection points: 3
#     Node 4, Type 1, BuildingBlock: VETTIZ_charged_linker_0, # of connection points: 3
#     Node 5, Type 1, BuildingBlock: VETTIZ_charged_linker_0, # of connection points: 3
#     Node 6, Type 1, BuildingBlock: VETTIZ_charged_linker_0, # of connection points: 3
#     Node 7, Type 1, BuildingBlock: VETTIZ_charged_linker_0, # of connection points: 3
#     Node 8, Type 1, BuildingBlock: VETTIZ_charged_linker_0, # of connection points: 3
#     Edge 9, Type (0, 1), BuildingBlock: AJUNOK_clean_linker_0, # of connection points: 2
#     Edge 10, Type (0, 1), BuildingBlock: AJUNOK_clean_linker_0, # of connection points: 2
#     Edge 11, Type (0, 1), BuildingBlock: AJUNOK_clean_linker_0, # of connection points: 2
#     Edge 12, Type (0, 1), BuildingBlock: AJUNOK_clean_linker_0, # of connection points: 2
#     Edge 13, Type (0, 1), BuildingBlock: AJUNOK_clean_linker_0, # of connection points: 2
#     Edge 14, Type (0, 1), BuildingBlock: AJUNOK_clean_linker_0, # of connection points: 2
#     Edge 15, Type (0, 1), BuildingBlock: AJUNOK_clean_linker_0, # of connection points: 2
#     Edge 16, Type (0, 1), BuildingBlock: AJUNOK_clean_linker_0, # of connection points: 2
#     Edge 17, Type (0, 1), BuildingBlock: AJUNOK_clean_linker_0, # of connection points: 2
#     Edge 18, Type (0, 1), BuildingBlock: AJUNOK_clean_linker_0, # of connection points: 2
#     Edge 19, Type (0, 1), BuildingBlock: AJUNOK_clean_linker_0, # of connection points: 2
#     Edge 20, Type (0, 1), BuildingBlock: AJUNOK_clean_linker_0, # of connection points: 2
#     Edge 21, Type (0, 1), BuildingBlock: AJUNOK_clean_linker_0, # of connection points: 2
#     Edge 22, Type (0, 1), BuildingBlock: AJUNOK_clean_linker_0, # of connection points: 2
#     Edge 23, Type (0, 1), BuildingBlock: AJUNOK_clean_linker_0, # of connection points: 2
#     Edge 24, Type (0, 1), BuildingBlock: AJUNOK_clean_linker_0, # of connection points: 2
#     Edge 25, Type (0, 1), BuildingBlock: AJUNOK_clean_linker_0, # of connection points: 2
#     Edge 26, Type (0, 1), BuildingBlock: AJUNOK_clean_linker_0, # of connection points: 2
# Relax obj value: 0.219
# Max RMSD: 0.225
# Mean RMSD: 0.167
data_MOF--net-anh--node1-BETGAK_clean_sbu_0--node2-VETTIZ_charged_linker_0--edge1-AJUNOK_clean_linker_0
_symmetry_space_group_name_H-M    P1
_symmetry_Int_Tables_number       1
_symmetry_cell_setting            triclinic
loop_
_symmetry_equiv_pos_as_xyz
'x, y, z'
_cell_length_a     29.698053
_cell_length_b     35.251611
_cell_length_c     53.012831
_cell_angle_alpha  91.817335
_cell_angle_beta   89.859325
_cell_angle_gamma 131.0305
loop_
_atom_site_label
_atom_site_type_symbol
_atom_site_fract_x
_atom_site_fract_y
_atom_site_fract_z
_atom_type_partial_charge
La0 La 0.13794 0.53179 0.13761 0.0
La1 La 1.06602 0.55804 0.15063 0.0
C2 C 0.21676 0.53366 0.11916 0.0
C3 C 0.27825 0.56451 0.12863 0.0
C4 C 0.29338 0.5876 0.15293 0.0
C5 C 0.34751 0.60783 0.16455 0.0
C6 C 0.38718 0.60577 0.15175 0.0
C7 C 0.37464 0.58774 0.12641 0.0
C8 C 0.3201 0.56679 0.11495 0.0
C9 C 0.12292 0.53382 0.18654 0.0
C10 C 0.2017 0.64988 0.14739 0.0
C11 C 0.98649 0.55306 0.17094 0.0
C12 C 0.92213 0.5088 0.1702 0.0
C13 C 0.89121 0.48745 0.1469 0.0
C14 C 0.8323 0.44244 0.14587 0.0
C15 C 0.80287 0.4175 0.16803 0.0
C16 C 0.83399 0.43805 0.19133 0.0
C17 C 0.89319 0.48348 0.1924 0.0
C18 C 0.08482 0.55883 0.10199 0.0
C19 C 1.00186 0.44059 0.14173 0.0
O20 O 0.17698 0.4996 0.13469 0.0
O21 O 0.20237 0.55848 0.10988 0.0
O22 O 0.12781 0.50363 0.17536 0.0
O23 O 0.13184 0.56386 0.17082 0.0
O24 O 0.20476 0.61618 0.13789 0.0
O25 O 0.1509 0.63455 0.15665 0.0
O26 O 1.01007 0.57477 0.14948 0.0
O27 O 1.01929 0.54701 0.18332 0.0
O28 O 1.08171 0.5899 0.11364 0.0
O29 O 1.0731 0.52666 0.11707 0.0
O30 O 1.00071 0.47481 0.15183 0.0
O31 O 1.05121 0.45524 0.13104 0.0
H32 H 0.26141 0.58648 0.16364 0.0
H33 H 0.35609 0.62102 0.18413 0.0
H34 H 0.40435 0.5851 0.11632 0.0
H35 H 0.30912 0.54943 0.09616 0.0
H36 H 0.91245 0.50523 0.12933 0.0
H37 H 0.80904 0.42801 0.1277 0.0
H38 H 0.81216 0.41952 0.20869 0.0
H39 H 0.91663 0.49857 0.21051 0.0
La40 La 0.66291 0.05015 0.47353 0.0
La41 La 0.58519 0.07325 0.46716 0.0
C42 C 0.70835 1.01403 0.488 0.0
C43 C 0.68676 0.96314 0.49233 0.0
C44 C 0.68388 0.93402 0.4725 0.0
C45 C 0.66655 0.88717 0.477 0.0
C46 C 0.6522 0.86867 0.50144 0.0
C47 C 0.65381 0.89725 0.52112 0.0
C48 C 0.6711 0.94401 0.51665 0.0
C49 C 0.64858 0.06314 0.4265 0.0
C50 C 0.52029 0.95929 0.46738 0.0
C51 C 0.53957 0.10999 0.45413 0.0
C52 C 0.55177 0.15639 0.4622 0.0
C53 C 0.57543 0.17798 0.4865 0.0
C54 C 0.58433 0.22056 0.49465 0.0
C55 C 0.57048 0.2427 0.47856 0.0
C56 C 0.54903 0.22233 0.45391 0.0
C57 C 0.53941 0.1792 0.44582 0.0
C58 C 0.60034 0.06106 0.51422 0.0
C59 C 0.72939 0.16469 0.4715 0.0
O60 O 0.7083 0.02475 0.46462 0.0
O61 O 0.69007 0.03099 0.50346 0.0
O62 O 0.69789 0.07723 0.43598 0.0
O63 O 0.60859 0.04011 0.44276 0.0
O64 O 0.57178 0.97513 0.47685 0.0
O65 O 0.51779 0.99228 0.45797 0.0
O66 O 0.51761 0.07648 0.47136 0.0
O67 O 0.58185 0.11606 0.44167 0.0
O68 O 0.55134 0.04769 0.50504 0.0
O69 O 0.63995 0.08404 0.49788 0.0
O70 O 0.67581 0.14904 0.46566 0.0
O71 O 0.73492 0.13196 0.47813 0.0
H72 H 0.69577 0.94764 0.45353 0.0
H73 H 0.66486 0.86561 0.46142 0.0
H74 H 0.64342 0.8841 0.5402 0.0
H75 H 0.67321 0.96557 0.53236 0.0
H76 H 0.58621 0.16146 0.49932 0.0
H77 H 0.60163 0.23606 0.51363 0.0
H78 H 0.53819 0.23893 0.4412 0.0
H79 H 0.52162 0.1633 0.42694 0.0
La80 La 0.63979 0.58522 0.83833 0.0
La81 La 0.55393 0.47572 0.83593 0.0
C82 C 0.6957 0.67582 0.82822 0.0
C83 C 0.68176 0.70778 0.82129 0.0
C84 C 0.66721 0.72786 0.8396 0.0
C85 C 0.6584 0.7608 0.83282 0.0
C86 C 0.66406 0.77444 0.80761 0.0
C87 C 0.67757 0.75361 0.78933 0.0
C88 C 0.6865 0.72093 0.79608 0.0
C89 C 0.61424 0.5438 0.8821 0.0
C90 C 0.49361 0.52673 0.83886 0.0
C91 C 0.50241 0.38535 0.84407 0.0
C92 C 0.51639 0.35291 0.83757 0.0
C93 C 0.5376 0.35393 0.81364 0.0
C94 C 0.55015 0.32282 0.8076 0.0
C95 C 0.54243 0.29023 0.82538 0.0
C96 C 0.52261 0.29024 0.84954 0.0
C97 C 0.50946 0.32107 0.85551 0.0
C98 C 0.57921 0.51619 0.79185 0.0
C99 C 0.70098 0.53493 0.8367 0.0
O100 O 0.68446 0.65962 0.8512 0.0
O101 O 0.68141 0.64111 0.81146 0.0
O102 O 0.66714 0.58458 0.87643 0.0
O103 O 0.57793 0.52976 0.8642 0.0
O104 O 0.55052 0.56892 0.83488 0.0
O105 O 0.48507 0.48471 0.84249 0.0
O106 O 0.4884 0.39924 0.8252 0.0
O107 O 0.5387 0.4226 0.86048 0.0
O108 O 0.5269 0.47533 0.79777 0.0
O109 O 0.61578 0.53077 0.80975 0.0
O110 O 0.64321 0.4917 0.83599 0.0
O111 O 0.71087 0.57809 0.83712 0.0
H112 H 0.66374 0.71895 0.85925 0.0
H113 H 0.64894 0.77673 0.84742 0.0
H114 H 0.68175 0.76297 0.76971 0.0
H115 H 0.69805 0.7065 0.78153 0.0
H116 H 0.54427 0.37864 0.7995 0.0
H117 H 0.56525 0.32386 0.78881 0.0
H118 H 0.51777 0.26677 0.86396 0.0
H119 H 0.49402 0.32017 0.8742 0.0
C120 C 0.74957 0.18579 0.15462 0.0
C121 C 0.79605 0.23355 0.16683 0.0
C122 C 0.79876 0.23676 0.19332 0.0
C123 C 0.71099 0.14819 0.19562 0.0
C124 C 0.70703 0.1433 0.16955 0.0
C125 C 0.65295 0.089 0.16106 0.0
H126 H 0.40741 0.85113 0.20078 0.0
C127 C 0.66117 0.09911 0.20627 0.0
C128 C 0.62584 0.0632 0.18631 0.0
H129 H 0.45262 0.89007 0.12313 0.0
H130 H 0.54168 0.97647 0.1368 0.0
H131 H 0.53613 0.90372 0.2199 0.0
H132 H 0.4305 0.94659 0.21885 0.0
H133 H 0.46935 0.97029 0.24794 0.0
H134 H 0.4189 0.90339 0.24081 0.0
H135 H 0.47785 0.8807 0.24184 0.0
H136 H 0.55389 0.93762 0.2485 0.0
C137 C 0.67504 0.06599 0.14616 0.0
C138 C 0.60955 0.08919 0.14541 0.0
C139 C 0.64785 0.08911 0.30209 0.0
C140 C 0.6077 0.04962 0.31819 0.0
C141 C 0.55924 1.002 0.30749 0.0
C142 C 0.55083 0.99378 0.28128 0.0
C143 C 0.59152 0.03346 0.26535 0.0
C144 C 0.63881 0.08015 0.27585 0.0
C145 C 0.67762 0.11767 0.25605 0.0
C146 C 0.64612 0.08563 0.23185 0.0
C147 C 0.59592 0.03656 0.23748 0.0
C148 C 0.74091 0.13524 0.25934 0.0
C149 C 0.67496 0.16016 0.25892 0.0
C150 C 0.4361 0.87798 0.18653 0.0
C151 C 0.42216 0.86356 0.16093 0.0
C152 C 0.46196 0.90001 0.14311 0.0
C153 C 0.5134 0.95014 0.15104 0.0
C154 C 0.52564 0.96399 0.17706 0.0
C155 C 0.48678 0.9272 0.19403 0.0
C156 C 0.50437 0.94575 0.22084 0.0
C157 C 0.55992 0.99998 0.21779 0.0
C158 C 0.57379 1.01209 0.19213 0.0
C159 C 0.51847 0.9154 0.23366 0.0
C160 C 0.45329 0.94111 0.23297 0.0
H161 H 0.76288 0.20126 0.22762 0.0
H162 H 0.74599 0.18196 0.13423 0.0
H163 H 0.59837 0.10968 0.15603 0.0
H164 H 0.56718 0.05069 0.14099 0.0
H165 H 0.62984 0.10811 0.12735 0.0
H166 H 0.70997 0.0703 0.15728 0.0
H167 H 0.69461 0.08506 0.12807 0.0
H168 H 0.63864 0.02537 0.14188 0.0
H169 H 0.68566 0.12614 0.30974 0.0
H170 H 0.52852 0.9706 0.31943 0.0
H171 H 0.51315 0.9565 0.27453 0.0
H172 H 0.73851 0.10461 0.26648 0.0
H173 H 0.76884 0.16781 0.27304 0.0
H174 H 0.76465 0.14503 0.24137 0.0
H175 H 0.63147 0.14577 0.26655 0.0
H176 H 0.67785 0.17598 0.24069 0.0
H177 H 0.71071 0.19104 0.27203 0.0
H178 H 0.83358 0.27238 0.20319 0.0
C179 C 0.75721 0.195 0.20758 0.0
C180 C 0.61738 0.66336 0.52663 0.0
C181 C 0.61768 0.69941 0.5391 0.0
C182 C 0.61805 0.70179 0.56566 0.0
C183 C 0.61992 0.63437 0.56715 0.0
C184 C 0.61825 0.63105 0.54106 0.0
C185 C 0.61732 0.58986 0.53127 0.0
H186 H 0.61934 0.40346 0.55747 0.0
C187 C 0.62271 0.59709 0.57666 0.0
C188 C 0.62131 0.57075 0.55579 0.0
H189 H 0.5966 0.44059 0.48442 0.0
H190 H 0.60988 0.51084 0.50363 0.0
H191 H 0.72412 0.51622 0.57878 0.0
H192 H 0.53315 0.41388 0.58583 0.0
H193 H 0.56542 0.44206 0.61579 0.0
H194 H 0.57954 0.4046 0.6005 0.0
H195 H 0.68592 0.46472 0.59961 0.0
H196 H 0.71022 0.52525 0.60964 0.0
C197 C 0.67293 0.61377 0.51502 0.0
C198 C 0.55713 0.54943 0.5169 0.0
C199 C 0.62819 0.58137 0.67123 0.0
C200 C 0.63133 0.55065 0.68585 0.0
C201 C 0.63956 0.51944 0.67385 0.0
C202 C 0.64156 0.51694 0.64747 0.0
C203 C 0.63525 0.54598 0.63295 0.0
C204 C 0.63048 0.57858 0.64492 0.0
C205 C 0.62629 0.60778 0.62655 0.0
C206 C 0.62731 0.58613 0.60156 0.0
C207 C 0.63185 0.54958 0.6054 0.0
C208 C 0.68229 0.66432 0.6307 0.0
C209 C 0.56587 0.59503 0.63036 0.0
C210 C 0.61667 0.42641 0.54561 0.0
C211 C 0.6056 0.41583 0.51949 0.0
C212 C 0.60463 0.44778 0.50463 0.0
C213 C 0.61186 0.48824 0.51584 0.0
C214 C 0.61993 0.49671 0.54221 0.0
C215 C 0.62282 0.46624 0.55654 0.0
C216 C 0.62958 0.47928 0.58431 0.0
C217 C 0.62936 0.52215 0.58443 0.0
C218 C 0.62399 0.53251 0.55973 0.0
C219 C 0.69032 0.497 0.5938 0.0
C220 C 0.57447 0.43269 0.59752 0.0
H221 H 0.62012 0.67388 0.59985 0.0
H222 H 0.61648 0.66043 0.50621 0.0
H223 H 0.52064 0.54617 0.52561 0.0
H224 H 0.54195 0.5113 0.51759 0.0
H225 H 0.5598 0.55902 0.49688 0.0
H226 H 0.71311 0.64929 0.52434 0.0
H227 H 0.66681 0.62295 0.49618 0.0
H228 H 0.68391 0.58949 0.51237 0.0
H229 H 0.6227 0.60622 0.68007 0.0
H230 H 0.64212 0.49551 0.68487 0.0
H231 H 0.64646 0.49157 0.63938 0.0
H232 H 0.72132 0.66931 0.63759 0.0
H233 H 0.67421 0.683 0.64491 0.0
H234 H 0.69747 0.68516 0.61308 0.0
H235 H 0.53024 0.55485 0.63496 0.0
H236 H 0.54898 0.59954 0.61321 0.0
H237 H 0.56921 0.61837 0.64611 0.0
H238 H 0.61879 0.72952 0.57563 0.0
C239 C 0.61932 0.66967 0.57971 0.0
C240 C 0.24332 0.53162 0.83627 0.0
C241 C 0.28127 0.52649 0.85136 0.0
C242 C 0.2678 0.52027 0.87716 0.0
C243 C 0.18963 0.52707 0.87359 0.0
C244 C 0.19656 0.5308 0.84788 0.0
C245 C 0.1481 0.53336 0.83722 0.0
H246 H 0.93114 0.55928 0.88091 0.0
C247 C 0.14315 0.53074 0.88181 0.0
C248 C 0.1144 0.53289 0.86081 0.0
H249 H 0.91801 0.5103 0.80417 0.0
H250 H 1.002 0.51141 0.81253 0.0
H251 H 0.92529 0.4782 0.89888 0.0
H252 H 1.06987 0.63512 0.88952 0.0
H253 H 0.08723 0.62362 0.91822 0.0
H254 H 1.01817 0.6115 0.9147 0.0
H255 H 0.94149 0.52502 0.9213 0.0
H256 H 0.97189 0.49476 0.92465 0.0
C257 C 0.10331 0.48742 0.81953 0.0
C258 C 0.17975 0.58213 0.82312 0.0
C259 C 0.12887 0.54387 0.97751 0.0
C260 C 0.09907 0.55453 0.99267 0.0
C261 C 1.06476 0.56352 0.98081 0.0
C262 C 1.05974 0.56172 0.95456 0.0
C263 C 0.08849 0.54997 0.93938 0.0
C264 C 0.12308 0.54212 0.95099 0.0
C265 C 0.15322 0.53326 0.932 0.0
C266 C 0.12981 0.53568 0.90692 0.0
C267 C 0.09086 0.54443 0.91143 0.0
C268 C 0.1305 0.47967 0.93589 0.0
C269 C 0.22175 0.57706 0.93589 0.0
C270 C 0.94586 0.54973 0.86519 0.0
C271 C 0.91515 0.5358 0.84171 0.0
C272 C 0.93828 0.52187 0.82291 0.0
C273 C 0.98822 0.52285 0.82767 0.0
C274 C 1.0177 0.53684 0.85194 0.0
C275 C 0.99276 0.54827 0.86977 0.0
C276 C 1.01607 0.55359 0.89543 0.0
C277 C 1.05954 0.54489 0.89131 0.0
C278 C 1.06657 0.53704 0.86545 0.0
C279 C 0.96135 0.51126 0.91108 0.0
C280 C 1.04919 0.60852 0.90522 0.0
H281 H 0.22014 0.51576 0.90772 0.0
H282 H 0.24917 0.53539 0.8161 0.0
H283 H 0.21235 0.61534 0.83595 0.0
H284 H 0.14686 0.58492 0.81602 0.0
H285 H 0.20422 0.58334 0.80682 0.0
H286 H 1.08049 0.45215 0.82978 0.0
H287 H 0.12643 0.48682 0.80321 0.0
H288 H 1.06885 0.48818 0.81227 0.0
H289 H 0.15681 0.5379 0.98601 0.0
H290 H 1.04108 0.57161 0.99194 0.0
H291 H 1.03282 0.56924 0.9474 0.0
H292 H 0.0838 0.45389 0.9426 0.0
H293 H 0.15854 0.48048 0.95011 0.0
H294 H 0.12836 0.46109 0.91813 0.0
H295 H 0.23254 0.61122 0.9449 0.0
H296 H 0.24575 0.5904 0.9179 0.0
H297 H 0.24164 0.56621 0.94817 0.0
H298 H 0.29238 0.51566 0.88982 0.0
C299 C 0.22438 0.52055 0.88786 0.0
C300 C 0.98436 0.41837 0.45866 0.0
C301 C 0.93584 0.37164 0.44628 0.0
C302 C 0.93269 0.36908 0.41981 0.0
C303 C 1.02308 0.4568 0.41786 0.0
C304 C 1.0276 0.46092 0.44393 0.0
C305 C 0.08228 0.51481 0.45268 0.0
H306 H 0.31985 0.75651 0.41402 0.0
C307 C 1.07313 0.50606 0.40744 0.0
C308 C 0.10888 0.54138 0.42757 0.0
H309 H 0.28144 0.71364 0.49147 0.0
H310 H 0.19586 0.62623 0.47747 0.0
H311 H 0.30616 0.66614 0.39538 0.0
H312 H 0.18929 0.69764 0.39499 0.0
H313 H 0.17757 0.66794 0.36556 0.0
H314 H 0.25098 0.72625 0.37424 0.0
H315 H 0.31123 0.70478 0.3723 0.0
H316 H 0.26469 0.63753 0.3671 0.0
C317 C 0.12566 0.51348 0.46752 0.0
C318 C 1.06133 0.53785 0.46849 0.0
C319 C 0.08758 0.51838 0.31164 0.0
C320 C 0.12842 0.55826 0.29583 0.0
C321 C 0.17655 0.60562 0.30688 0.0
C322 C 0.18335 0.61352 0.33311 0.0
C323 C 0.14205 0.57352 0.34875 0.0
C324 C 0.09532 0.52693 0.33795 0.0
C325 C 1.05636 0.48888 0.35755 0.0
C326 C 0.08773 0.52032 0.38193 0.0
C327 C 0.13753 0.5697 0.37657 0.0
C328 C 1.0591 0.4465 0.35427 0.0
C329 C 0.99301 0.47127 0.35434 0.0
C330 C 0.2931 0.72874 0.42818 0.0
C331 C 0.30748 0.74265 0.45382 0.0
C332 C 0.27161 0.70431 0.47146 0.0
C333 C 0.22183 0.65369 0.46335 0.0
C334 C 0.20795 0.64089 0.43729 0.0
C335 C 0.24461 0.67885 0.42049 0.0
C336 C 0.22739 0.66076 0.39362 0.0
C337 C 0.17341 0.60587 0.39642 0.0
C338 C 0.16047 0.59284 0.42201 0.0
C339 C 0.27991 0.66782 0.38124 0.0
C340 C 0.21076 0.68964 0.38123 0.0
H341 H 0.96939 0.40509 0.38566 0.0
H342 H 0.98804 0.42171 0.47907 0.0
H343 H 1.02669 0.53468 0.45786 0.0
H344 H 0.09837 0.57818 0.4732 0.0
H345 H 1.04179 0.51799 0.4864 0.0
H346 H 0.13586 0.49285 0.45628 0.0
H347 H 0.10582 0.49413 0.48553 0.0
H348 H 0.1685 0.55167 0.47195 0.0
H349 H 1.05022 0.48143 0.30372 0.0
H350 H 0.20964 0.6366 0.2952 0.0
H351 H 0.22082 0.65066 0.34008 0.0
H352 H 0.10388 0.46183 0.34794 0.0
H353 H 1.02567 0.41739 0.33992 0.0
H354 H 1.05276 0.42822 0.37208 0.0
H355 H 0.99494 0.50106 0.34628 0.0
H356 H 0.97048 0.46345 0.37252 0.0
H357 H 0.96417 0.43738 0.34149 0.0
H358 H 0.89652 0.33412 0.40982 0.0
C359 C 0.97548 0.41074 0.40572 0.0
C360 C 0.6278 0.94058 0.78009 0.0
C361 C 0.63662 0.91029 0.76725 0.0
C362 C 0.63839 0.91023 0.74071 0.0
C363 C 0.62546 0.97119 0.74002 0.0
C364 C 0.62264 0.97096 0.76607 0.0
C365 C 0.61493 1.00692 0.77625 0.0
H366 H 0.59684 0.18563 0.75204 0.0
C367 C 0.62151 1.00815 0.73098 0.0
C368 C 0.61573 0.02973 0.75209 0.0
H369 H 0.58168 0.12551 0.82434 0.0
H370 H 0.59599 0.07104 0.80459 0.0
H371 H 0.70485 0.19597 0.73257 0.0
H372 H 0.51487 0.07923 0.72145 0.0
H373 H 0.54775 0.08868 0.69209 0.0
H374 H 0.55755 0.13975 0.70783 0.0
H375 H 0.66362 0.20157 0.71073 0.0
H376 H 0.69342 0.17222 0.70146 0.0
C377 C 0.66876 0.0467 0.79402 0.0
C378 C 0.55381 0.97584 0.78915 0.0
C379 C 0.62718 0.0336 0.63662 0.0
C380 C 0.62825 0.06733 0.6226 0.0
C381 C 0.63007 0.10393 0.63539 0.0
C382 C 0.62876 0.10588 0.66181 0.0
C383 C 0.62597 0.07102 0.67566 0.0
C384 C 0.62667 0.03647 0.66307 0.0
C385 C 0.62702 1.00438 0.68097 0.0
C386 C 0.62417 0.02413 0.70631 0.0
C387 C 0.62278 0.06264 0.70304 0.0
C388 C 0.6866 1.0153 0.67793 0.0
C389 C 0.57015 0.94878 0.6754 0.0
C390 C 0.59707 0.16102 0.76367 0.0
C391 C 0.58811 0.15983 0.78974 0.0
C392 C 0.58793 0.12674 0.80415 0.0
C393 C 0.59637 0.09527 0.79265 0.0
C394 C 0.60469 0.09662 0.76642 0.0
C395 C 0.60477 0.12918 0.75247 0.0
C396 C 0.61232 0.12498 0.7248 0.0
C397 C 0.61658 0.08441 0.72425 0.0
C398 C 0.61251 0.06791 0.74867 0.0
C399 C 0.67128 0.17627 0.71674 0.0
C400 C 0.55557 0.10758 0.71059 0.0
H401 H 0.63467 0.93834 0.70695 0.0
H402 H 0.62647 0.94153 0.8005 0.0
H403 H 0.51966 0.93958 0.77846 0.0
H404 H 0.53561 0.99487 0.78971 0.0
H405 H 0.55684 0.96695 0.80866 0.0
H406 H 0.71107 0.05995 0.78557 0.0
H407 H 0.66442 0.0307 0.81251 0.0
H408 H 0.67453 0.08071 0.79739 0.0
H409 H 0.62658 1.00555 0.62717 0.0
H410 H 0.63085 0.13018 0.62485 0.0
H411 H 0.6292 0.13408 0.67041 0.0
H412 H 0.72216 0.05319 0.6704 0.0
H413 H 0.68101 0.9873 0.66473 0.0
H414 H 0.70539 1.01615 0.69616 0.0
H415 H 0.53093 0.94568 0.67178 0.0
H416 H 0.55761 0.92442 0.69138 0.0
H417 H 0.57565 0.93294 0.65844 0.0
H418 H 0.64436 0.8868 0.73041 0.0
C419 C 0.63275 0.94025 0.72709 0.0
C420 C 0.53756 0.32513 0.13647 0.0
C421 C 0.57875 0.32071 0.12781 0.0
C422 C 0.59151 0.32695 0.1017 0.0
C423 C 0.54202 0.35992 0.09683 0.0
C424 C 0.52603 0.35033 0.12185 0.0
C425 C 0.51415 0.38287 0.13267 0.0
H426 H 0.50605 0.56676 0.11689 0.0
C427 C 0.53413 0.39474 0.08827 0.0
C428 C 0.51886 0.4089 0.10942 0.0
H429 H 0.49966 0.504 0.18702 0.0
H430 H 0.49961 0.44395 0.16371 0.0
H431 H 0.60909 0.56922 0.08957 0.0
H432 H 0.41778 0.4705 0.08787 0.0
H433 H 0.4356 0.45771 0.05899 0.0
H434 H 0.46111 0.51976 0.06598 0.0
H435 H 0.56562 0.58486 0.07917 0.0
H436 H 0.58182 0.55493 0.05799 0.0
C437 C 0.56466 0.42091 0.15248 0.0
C438 C 0.45052 0.34869 0.14326 0.0
C439 C 0.56415 0.44472 -0.00365 0.0
C440 C 0.55386 0.47282 0.98352 0.0
C441 C 0.53163 0.49255 -0.00334 0.0
C442 C 0.52136 0.48583 0.02248 0.0
C443 C 0.53362 0.45924 0.03535 0.0
C444 C 0.55244 0.43748 0.02225 0.0
C445 C 0.55916 0.40779 0.03923 0.0
C446 C 0.54002 0.41475 0.06439 0.0
C447 C 0.5279 0.44682 0.06203 0.0
C448 C 0.62572 0.43259 0.03994 0.0
C449 C 0.51603 0.35228 0.02946 0.0
C450 C 0.50749 0.54175 0.12746 0.0
C451 C 0.50422 0.54101 0.15394 0.0
C452 C 0.50266 0.5057 0.16666 0.0
C453 C 0.50315 0.47116 0.15309 0.0
C454 C 0.50746 0.47319 0.12662 0.0
C455 C 0.50951 0.50812 0.11432 0.0
C456 C 0.51261 0.50445 0.08617 0.0
C457 C 0.51659 0.46376 0.0837 0.0
C458 C 0.5126 0.44515 0.10734 0.0
C459 C 0.57012 0.55598 0.07757 0.0
C460 C 0.45408 0.48752 0.07399 0.0
H461 H 0.58585 0.35181 0.06684 0.0
H462 H 0.5224 0.31714 0.15566 0.0
H463 H 0.41829 0.31683 0.12967 0.0
H464 H 0.43388 0.3687 0.14648 0.0
H465 H 0.44897 0.33267 0.16129 0.0
H466 H 0.60572 0.42661 0.14917 0.0
H467 H 0.5503 0.40788 0.17199 0.0
H468 H 0.58074 0.45932 0.1514 0.0
H469 H 0.58077 0.42886 0.98646 0.0
H470 H 0.52339 0.51416 0.98696 0.0
H471 H 0.50522 0.50234 0.03151 0.0
H472 H 0.65559 0.4737 0.03693 0.0
H473 H 0.63494 0.41579 0.02502 0.0
H474 H 0.64023 0.42995 0.05849 0.0
H475 H 0.47069 0.33902 0.02584 0.0
H476 H 0.51054 0.32659 0.04309 0.0
H477 H 0.53179 0.34789 0.01149 0.0
H478 H 0.62178 0.32296 0.09367 0.0
C479 C 0.5719 0.34521 0.08607 0.0
C480 C 0.48945 0.63696 0.15689 0.0
C481 C 0.43115 0.6075 0.16582 0.0
C482 C 0.5203 0.61958 0.15786 0.0
C483 C 0.49225 0.57146 0.16678 0.0
H484 H 0.50759 0.66953 0.14594 0.0
H485 H 0.56182 0.63992 0.14788 0.0
S486 S 0.34957 0.49019 0.20068 0.0
N487 N 0.35486 0.537 0.191 0.0
N488 N 0.41107 0.50259 0.19151 0.0
C489 C 0.43967 0.54728 0.18044 0.0
C490 C 0.40925 0.56585 0.18016 0.0
C491 C 0.77764 0.25448 0.46207 0.0
C492 C 0.78403 0.22004 0.46952 0.0
C493 C 0.82745 0.30493 0.45696 0.0
C494 C 0.88655 0.32411 0.45933 0.0
H495 H 0.73353 0.24195 0.45908 0.0
H496 H 0.81947 0.32852 0.44975 0.0
S497 S 0.92964 0.25184 0.47963 0.0
N498 N 0.85594 0.21073 0.48027 0.0
N499 N 0.9486 0.305 0.47058 0.0
C500 C 0.89398 0.29109 0.4679 0.0
C501 C 0.8432 0.23946 0.47303 0.0
C502 C 0.70144 0.85064 0.78422 0.0
C503 C 0.65866 0.81183 0.80012 0.0
C504 C 0.69519 0.88365 0.77475 0.0
C505 C 0.64597 0.87949 0.78079 0.0
H506 H 0.73973 0.85504 0.77866 0.0
H507 H 0.72855 0.91204 0.76205 0.0
S508 S 0.5225 0.78594 0.82244 0.0
N509 N 0.56628 0.77243 0.82226 0.0
N510 N 0.55469 0.83475 0.80439 0.0
C511 C 0.60409 0.84235 0.7975 0.0
C512 C 0.6104 0.80849 0.80718 0.0
C513 C 0.71225 0.33762 0.14753 0.0
C514 C 0.7375 0.37579 0.16648 0.0
C515 C 0.65453 0.31225 0.13781 0.0
C516 C 0.62129 0.32573 0.14606 0.0
H517 H 0.73945 0.33114 0.13837 0.0
H518 H 0.63897 0.2862 0.12181 0.0
S519 S 0.6612 0.41058 0.2021 0.0
N520 N 0.71984 0.4155 0.19814 0.0
N521 N 0.61251 0.3694 0.18002 0.0
C522 C 0.64233 0.35702 0.16835 0.0
C523 C 0.70058 0.38198 0.17844 0.0
C524 C 0.41317 0.88677 0.45311 0.0
C525 C 0.46526 0.90374 0.46615 0.0
C526 C 0.36195 0.83519 0.45043 0.0
C527 C 0.35936 0.79744 0.46088 0.0
H528 H 0.41217 0.91349 0.44426 0.0
H529 H 0.32416 0.82459 0.4395 0.0
S530 S 0.4821 0.82065 0.49769 0.0
N531 N 0.5097 0.87752 0.49041 0.0
N532 N 0.41362 0.78112 0.48537 0.0
C533 C 0.41024 0.8137 0.47466 0.0
C534 C 0.46291 0.86645 0.47724 0.0
C535 C 0.60633 0.27555 0.80458 0.0
C536 C 0.55527 0.25671 0.81845 0.0
C537 C 0.61756 0.24437 0.79618 0.0
C538 C 0.57837 0.19292 0.80136 0.0
H539 H 0.6377 0.3147 0.79987 0.0
H540 H 0.65695 0.26057 0.78519 0.0
S541 S 0.43778 0.1241 0.83655 0.0
N542 N 0.46468 0.18261 0.83675 0.0
N543 N 0.48637 0.12427 0.82121 0.0
C544 C 0.52785 0.17361 0.81568 0.0
C545 C 0.51617 0.20537 0.82416 0.0
C546 C 0.58941 0.78568 0.52204 0.0
C547 C 0.63839 0.821 0.50703 0.0
C548 C 0.58068 0.74434 0.53096 0.0
C549 C 0.62051 0.73668 0.52515 0.0
H550 H 0.55877 0.79104 0.52768 0.0
H551 H 0.54384 0.71927 0.54336 0.0
S552 S 0.75397 0.81658 0.48553 0.0
N553 N 0.7258 0.84431 0.48584 0.0
N554 N 0.70898 0.76626 0.50252 0.0
C555 C 0.66772 0.77003 0.50903 0.0
C556 C 0.67678 0.8123 0.49999 0.0
C557 C 0.81232 0.57358 0.8492 0.0
C558 C 0.75557 0.53487 0.83693 0.0
C559 C 0.86139 0.57346 0.85035 0.0
C560 C 0.86051 0.53564 0.83857 0.0
H561 H 0.81894 0.60456 0.85875 0.0
H562 H 0.90147 0.60445 0.86073 0.0
S563 S 0.72491 0.42537 0.80263 0.0
N564 N 0.70401 0.4567 0.8123 0.0
N565 N 0.79404 0.45773 0.81339 0.0
C566 C 0.80447 0.49724 0.82571 0.0
C567 C 0.75366 0.49654 0.82519 0.0
C568 C 0.31206 0.72334 0.13916 0.0
C569 C 0.25694 0.70539 0.14899 0.0
C570 C 0.36471 0.77488 0.14159 0.0
C571 C 0.36484 0.81092 0.15404 0.0
H572 H 0.315 0.69721 0.12991 0.0
H573 H 0.4061 0.78619 0.13456 0.0
S574 S 0.23299 0.78541 0.1821 0.0
N575 N 0.20668 0.72983 0.17085 0.0
N576 N 0.30451 0.82519 0.17536 0.0
C577 C 0.30992 0.7938 0.16328 0.0
C578 C 0.2565 0.74168 0.16078 0.0
C579 C 0.61445 0.33232 0.4764 0.0
C580 C 0.57635 0.28577 0.48805 0.0
C581 C 0.62297 0.37416 0.48632 0.0
C582 C 0.59341 0.37065 0.50813 0.0
H583 H 0.63896 0.33671 0.45993 0.0
H584 H 0.65407 0.40977 0.47726 0.0
S585 S 0.4828 0.25501 0.54346 0.0
N586 N 0.50523 0.23735 0.52113 0.0
N587 N 0.51992 0.31526 0.53944 0.0
C588 C 0.55321 0.32355 0.51921 0.0
C589 C 0.54503 0.28131 0.50926 0.0
C590 C 0.3808 0.48563 0.84871 0.0
C591 C 0.43887 0.52674 0.83986 0.0
C592 C 0.33148 0.48528 0.85073 0.0
C593 C 0.33331 0.52528 0.84348 0.0
H594 H 0.37323 0.45294 0.85495 0.0
H595 H 0.29068 0.45261 0.85876 0.0
S596 S 0.47347 0.6437 0.81874 0.0
N597 N 0.49302 0.61008 0.82364 0.0
N598 N 0.40301 0.60891 0.82699 0.0
C599 C 0.39093 0.56654 0.83423 0.0
C600 C 0.4418 0.56728 0.83251 0.0
C601 C 0.89331 0.37229 0.15276 0.0
C602 C 0.94639 0.38545 0.14337 0.0
C603 C 0.84277 0.32219 0.1578 0.0
C604 C 0.84202 0.28206 0.15367 0.0
H605 H 0.89135 0.40129 0.15735 0.0
H606 H 0.80493 0.31518 0.16646 0.0
S607 S 0.96691 0.29411 0.12779 0.0
N608 N 0.99289 0.3524 0.12868 0.0
N609 N 0.8983 0.25871 0.13851 0.0
C610 C 0.89339 0.29394 0.14312 0.0
C611 C 0.94521 0.34526 0.13788 0.0
C612 C 0.10884 0.59818 0.06034 0.0
C613 C 0.09376 0.55834 0.0745 0.0
C614 C 0.1135 0.59767 0.03407 0.0
C615 C 0.10305 0.55723 0.02077 0.0
H616 H 0.116 0.62966 0.06956 0.0
H617 H 0.12397 0.6288 0.02397 0.0
S618 S 1.06579 0.44499 0.04914 0.0
N619 N 1.07178 0.47858 0.0735 0.0
N620 N 1.0795 0.47723 0.02393 0.0
C621 C 0.09038 0.51807 0.03477 0.0
C622 C 0.08586 0.51868 0.06167 0.0
C623 C 0.68438 0.08216 0.3823 0.0
C624 C 0.63784 0.06296 0.39924 0.0
C625 C 0.67469 0.07916 0.35617 0.0
C626 C 0.61808 0.05688 0.346 0.0
H627 H 0.7284 0.09857 0.3892 0.0
H628 H 0.71136 0.09288 0.34382 0.0
S629 S 0.48294 1.00596 0.38238 0.0
N630 N 0.53412 0.02421 0.40408 0.0
N631 N 0.5161 1.01914 0.355 0.0
C632 C 0.57176 0.03941 0.36278 0.0
C633 C 0.58161 0.04239 0.3894 0.0
C634 C 0.65048 0.54851 0.75645 0.0
C635 C 0.5956 0.5314 0.76557 0.0
C636 C 0.66263 0.55593 0.73061 0.0
C637 C 0.6209 0.54768 0.71329 0.0
H638 H 0.68299 0.55392 0.76913 0.0
H639 H 0.70439 0.5673 0.72404 0.0
S640 S 0.4729 0.5067 0.72817 0.0
N641 N 0.50072 0.50896 0.75568 0.0
N642 N 0.52404 0.52398 0.70725 0.0
C643 C 0.56718 0.5329 0.72243 0.0
C644 C 0.55441 0.5245 0.74857 0.0
C645 C 0.66297 0.10187 0.55385 0.0
C646 C 0.61052 0.05995 0.54127 0.0
C647 C 0.66925 0.10366 0.58024 0.0
C648 C 0.62404 0.06298 0.59468 0.0
H649 H 0.69807 0.13435 0.54342 0.0
H650 H 0.70917 0.13736 0.58949 0.0
S651 S 0.48078 0.9429 0.57024 0.0
N652 N 0.51423 0.976 0.54486 0.0
N653 N 0.52689 0.97863 0.59429 0.0
C654 C 0.57284 1.01994 0.5821 0.0
C655 C 0.56586 1.01863 0.5554 0.0
C656 C 0.64234 0.53678 0.92496 0.0
C657 C 0.59758 0.5209 0.90701 0.0
C658 C 0.6277 0.5184 0.9494 0.0
C659 C 0.5679 0.4839 0.95666 0.0
H660 H 0.68903 0.56448 0.92028 0.0
H661 H 0.66336 0.53297 0.96304 0.0
S662 S 0.43402 0.42792 0.91651 0.0
N663 N 0.49079 0.4662 0.89789 0.0
N664 N 0.46372 0.43257 0.94398 0.0
C665 C 0.52276 0.46634 0.93872 0.0
C666 C 0.53749 0.48457 0.91381 0.0
C667 C 0.11337 0.50429 0.23003 0.0
C668 C 0.12115 0.53941 0.21422 0.0
C669 C 0.11395 0.50974 0.2564 0.0
C670 C 0.12249 0.55066 0.2679 0.0
H671 H 0.10758 0.47259 0.222 0.0
H672 H 0.10944 0.4826 0.26785 0.0
S673 S 0.14068 0.65115 0.2349 0.0
N674 N 0.13534 0.61547 0.21199 0.0
N675 N 0.13491 0.62502 0.2614 0.0
C676 C 0.12847 0.58517 0.25226 0.0
C677 C 0.12816 0.57975 0.22546 0.0
loop_
_geom_bond_atom_site_label_1
_geom_bond_atom_site_label_2
_geom_bond_distance
_geom_bond_site_symmetry_2
_ccdc_geom_bond_type
La0 C2 2.928 . S
La0 O20 2.521 . S
La0 O21 2.628 . S
La0 O22 2.554 . S
La0 O23 2.757 . S
La0 O24 2.470 . S
La0 O29 2.482 . S
La0 O31 2.503 1_455 S
La1 C11 2.928 . S
La1 O23 2.482 1_655 S
La1 O25 2.503 1_655 S
La1 O26 2.521 . S
La1 O27 2.628 . S
La1 O28 2.554 . S
La1 O29 2.757 1_655 S
La1 O30 2.470 . S
C2 La0 2.928 . S
C2 C3 1.503 . S
C2 O20 1.261 . S
C2 O21 1.243 . S
C3 C2 1.503 . S
C3 C4 1.394 . S
C3 C8 1.373 . S
C4 C3 1.394 . S
C4 C5 1.380 . S
C4 H32 0.930 . S
C5 C4 1.380 . S
C5 C6 1.376 . S
C5 H33 0.930 . S
C6 C5 1.376 . S
C6 C7 1.370 . S
C7 C6 1.370 . S
C7 C8 1.396 . S
C7 H34 0.929 . S
C8 C3 1.373 . S
C8 C7 1.396 . S
C8 H35 0.929 . S
C9 O22 1.240 . S
C9 O23 1.289 . S
C10 O24 1.258 . S
C10 O25 1.256 . S
C11 La1 2.928 . S
C11 C12 1.503 . S
C11 O26 1.261 . S
C11 O27 1.243 . S
C12 C11 1.503 . S
C12 C13 1.394 . S
C12 C17 1.373 . S
C13 C12 1.394 . S
C13 C14 1.380 . S
C13 H36 0.930 . S
C14 C13 1.380 . S
C14 C15 1.376 . S
C14 H37 0.930 . S
C15 C14 1.376 . S
C15 C16 1.370 . S
C16 C15 1.370 . S
C16 C17 1.396 . S
C16 H38 0.929 . S
C17 C12 1.373 . S
C17 C16 1.396 . S
C17 H39 0.929 . S
C18 O28 1.240 1_455 S
C18 O29 1.289 . S
C19 O30 1.258 . S
C19 O31 1.256 . S
O20 La0 2.521 . S
O20 C2 1.261 . S
O21 La0 2.628 . S
O21 C2 1.243 . S
O22 La0 2.554 . S
O22 C9 1.240 . S
O23 La0 2.757 . S
O23 La1 2.482 1_455 S
O23 C9 1.289 . S
O24 La0 2.470 . S
O24 C10 1.258 . S
O25 La1 2.503 1_455 S
O25 C10 1.256 . S
O26 La1 2.521 . S
O26 C11 1.261 . S
O27 La1 2.628 . S
O27 C11 1.243 . S
O28 La1 2.554 . S
O28 C18 1.240 1_655 S
O29 La0 2.482 . S
O29 La1 2.757 1_455 S
O29 C18 1.289 . S
O30 La1 2.470 . S
O30 C19 1.258 . S
O31 La0 2.503 1_655 S
O31 C19 1.256 . S
H32 C4 0.930 . S
H33 C5 0.930 . S
H34 C7 0.929 . S
H35 C8 0.929 . S
H36 C13 0.930 . S
H37 C14 0.930 . S
H38 C16 0.929 . S
H39 C17 0.929 . S
La40 C42 2.928 . S
La40 O60 2.521 . S
La40 O61 2.628 . S
La40 O62 2.554 . S
La40 O63 2.757 1_565 S
La40 O64 2.470 . S
La40 O69 2.482 . S
La40 O71 2.503 1_565 S
La41 C51 2.928 . S
La41 O63 2.482 . S
La41 O65 2.503 1_545 S
La41 O66 2.521 . S
La41 O67 2.628 . S
La41 O68 2.554 . S
La41 O69 2.757 1_545 S
La41 O70 2.470 . S
C42 La40 2.928 . S
C42 C43 1.503 . S
C42 O60 1.261 . S
C42 O61 1.243 . S
C43 C42 1.503 . S
C43 C44 1.394 . S
C43 C48 1.373 . S
C44 C43 1.394 . S
C44 C45 1.380 . S
C44 H72 0.930 . S
C45 C44 1.380 . S
C45 C46 1.376 . S
C45 H73 0.930 . S
C46 C45 1.376 . S
C46 C47 1.370 . S
C47 C46 1.370 . S
C47 C48 1.396 . S
C47 H74 0.929 . S
C48 C43 1.373 . S
C48 C47 1.396 . S
C48 H75 0.929 . S
C49 O62 1.240 1_545 S
C49 O63 1.289 . S
C50 O64 1.258 . S
C50 O65 1.256 . S
C51 La41 2.928 . S
C51 C52 1.503 . S
C51 O66 1.261 . S
C51 O67 1.243 . S
C52 C51 1.503 . S
C52 C53 1.394 . S
C52 C57 1.373 . S
C53 C52 1.394 . S
C53 C54 1.380 . S
C53 H76 0.930 . S
C54 C53 1.380 . S
C54 C55 1.376 . S
C54 H77 0.930 . S
C55 C54 1.376 . S
C55 C56 1.370 . S
C56 C55 1.370 . S
C56 C57 1.396 . S
C56 H78 0.929 . S
C57 C52 1.373 . S
C57 C56 1.396 . S
C57 H79 0.929 . S
C58 O68 1.240 . S
C58 O69 1.289 1_545 S
C59 O70 1.258 . S
C59 O71 1.256 . S
O60 La40 2.521 . S
O60 C42 1.261 . S
O61 La40 2.628 . S
O61 C42 1.243 . S
O62 La40 2.554 . S
O62 C49 1.240 1_565 S
O63 La40 2.757 1_545 S
O63 La41 2.482 . S
O63 C49 1.289 . S
O64 La40 2.470 . S
O64 C50 1.258 . S
O65 La41 2.503 1_565 S
O65 C50 1.256 . S
O66 La41 2.521 . S
O66 C51 1.261 . S
O67 La41 2.628 . S
O67 C51 1.243 . S
O68 La41 2.554 . S
O68 C58 1.240 . S
O69 La40 2.482 . S
O69 La41 2.757 1_565 S
O69 C58 1.289 1_565 S
O70 La41 2.470 . S
O70 C59 1.258 . S
O71 La40 2.503 1_545 S
O71 C59 1.256 . S
H72 C44 0.930 . S
H73 C45 0.930 . S
H74 C47 0.929 . S
H75 C48 0.929 . S
H76 C53 0.930 . S
H77 C54 0.930 . S
H78 C56 0.929 . S
H79 C57 0.929 . S
La80 C82 2.928 . S
La80 O100 2.521 . S
La80 O101 2.628 . S
La80 O102 2.554 . S
La80 O103 2.757 . S
La80 O104 2.470 . S
La80 O109 2.482 . S
La80 O111 2.503 . S
La81 C91 2.928 . S
La81 O103 2.482 . S
La81 O105 2.503 . S
La81 O106 2.521 . S
La81 O107 2.628 . S
La81 O108 2.554 . S
La81 O109 2.757 . S
La81 O110 2.470 . S
C82 La80 2.928 . S
C82 C83 1.503 . S
C82 O100 1.261 . S
C82 O101 1.243 . S
C83 C82 1.503 . S
C83 C84 1.394 . S
C83 C88 1.373 . S
C84 C83 1.394 . S
C84 C85 1.380 . S
C84 H112 0.930 . S
C85 C84 1.380 . S
C85 C86 1.376 . S
C85 H113 0.930 . S
C86 C85 1.376 . S
C86 C87 1.370 . S
C87 C86 1.370 . S
C87 C88 1.396 . S
C87 H114 0.929 . S
C88 C83 1.373 . S
C88 C87 1.396 . S
C88 H115 0.929 . S
C89 O102 1.240 . S
C89 O103 1.289 . S
C90 O104 1.258 . S
C90 O105 1.256 . S
C91 La81 2.928 . S
C91 C92 1.503 . S
C91 O106 1.261 . S
C91 O107 1.243 . S
C92 C91 1.503 . S
C92 C93 1.394 . S
C92 C97 1.373 . S
C93 C92 1.394 . S
C93 C94 1.380 . S
C93 H116 0.930 . S
C94 C93 1.380 . S
C94 C95 1.376 . S
C94 H117 0.930 . S
C95 C94 1.376 . S
C95 C96 1.370 . S
C96 C95 1.370 . S
C96 C97 1.396 . S
C96 H118 0.929 . S
C97 C92 1.373 . S
C97 C96 1.396 . S
C97 H119 0.929 . S
C98 O108 1.240 . S
C98 O109 1.289 . S
C99 O110 1.258 . S
C99 O111 1.256 . S
O100 La80 2.521 . S
O100 C82 1.261 . S
O101 La80 2.628 . S
O101 C82 1.243 . S
O102 La80 2.554 . S
O102 C89 1.240 . S
O103 La80 2.757 . S
O103 La81 2.482 . S
O103 C89 1.289 . S
O104 La80 2.470 . S
O104 C90 1.258 . S
O105 La81 2.503 . S
O105 C90 1.256 . S
O106 La81 2.521 . S
O106 C91 1.261 . S
O107 La81 2.628 . S
O107 C91 1.243 . S
O108 La81 2.554 . S
O108 C98 1.240 . S
O109 La80 2.482 . S
O109 La81 2.757 . S
O109 C98 1.289 . S
O110 La81 2.470 . S
O110 C99 1.258 . S
O111 La80 2.503 . S
O111 C99 1.256 . S
H112 C84 0.930 . S
H113 C85 0.930 . S
H114 C87 0.929 . S
H115 C88 0.929 . S
H116 C93 0.930 . S
H117 C94 0.930 . S
H118 C96 0.929 . S
H119 C97 0.929 . S
C120 C121 1.391 . S
C120 C124 1.391 . S
C120 H162 0.948 . S
C121 C120 1.391 . S
C121 C122 1.391 . S
C122 C121 1.391 . S
C122 H178 0.947 . S
C122 C179 1.392 . S
C123 C124 1.391 . S
C123 C127 1.397 . S
C123 C179 1.419 . S
C124 C120 1.391 . S
C124 C123 1.391 . S
C124 C125 1.399 . S
C125 C124 1.399 . S
C125 C128 1.396 . S
C125 C137 1.453 . S
C125 C138 1.684 . S
H126 C150 0.948 . S
C127 C123 1.397 . S
C127 C128 1.394 . S
C127 C146 1.723 . S
C128 C125 1.396 . S
C128 C127 1.394 . S
C128 C158 1.723 1_545 S
H129 C152 0.947 . S
H130 C153 0.948 . S
H131 C159 0.982 . S
H132 C160 0.979 . S
H133 C160 0.980 . S
H134 C160 0.983 . S
H135 C159 0.979 . S
H136 C159 0.977 . S
C137 C125 1.453 . S
C137 H166 0.982 . S
C137 H167 0.979 . S
C137 H168 0.977 1_545 S
C138 C125 1.684 . S
C138 H163 0.979 . S
C138 H164 0.980 . S
C138 H165 0.983 . S
C139 C140 1.391 . S
C139 C144 1.391 . S
C139 H169 0.948 . S
C140 C139 1.391 . S
C140 C141 1.391 1_545 S
C141 C140 1.391 1_565 S
C141 C142 1.392 . S
C141 H170 0.947 . S
C142 C141 1.392 . S
C142 C143 1.419 1_565 S
C142 H171 0.948 . S
C143 C142 1.419 1_545 S
C143 C144 1.391 . S
C143 C147 1.397 . S
C144 C139 1.391 . S
C144 C143 1.391 . S
C144 C145 1.399 . S
C145 C144 1.399 . S
C145 C146 1.396 . S
C145 C148 1.453 . S
C145 C149 1.684 . S
C146 C127 1.723 . S
C146 C145 1.396 . S
C146 C147 1.394 . S
C147 C143 1.397 . S
C147 C146 1.394 . S
C147 C157 1.723 1_545 S
C148 C145 1.453 . S
C148 H172 0.982 . S
C148 H173 0.979 . S
C148 H174 0.977 . S
C149 C145 1.684 . S
C149 H175 0.979 . S
C149 H176 0.980 . S
C149 H177 0.983 . S
C150 H126 0.948 . S
C150 C151 1.391 . S
C150 C155 1.391 . S
C151 C150 1.391 . S
C151 C152 1.391 . S
C152 H129 0.947 . S
C152 C151 1.391 . S
C152 C153 1.392 . S
C153 H130 0.948 . S
C153 C152 1.392 . S
C153 C154 1.419 . S
C154 C153 1.419 . S
C154 C155 1.391 . S
C154 C158 1.397 . S
C155 C150 1.391 . S
C155 C154 1.391 . S
C155 C156 1.399 . S
C156 C155 1.399 . S
C156 C157 1.396 . S
C156 C159 1.453 . S
C156 C160 1.684 . S
C157 C147 1.723 1_565 S
C157 C156 1.396 . S
C157 C158 1.394 . S
C158 C128 1.723 1_565 S
C158 C154 1.397 . S
C158 C157 1.394 . S
C159 H131 0.982 . S
C159 H135 0.979 . S
C159 H136 0.977 . S
C159 C156 1.453 . S
C160 H132 0.979 . S
C160 H133 0.980 . S
C160 H134 0.983 . S
C160 C156 1.684 . S
H161 C179 0.948 . S
H162 C120 0.948 . S
H163 C138 0.979 . S
H164 C138 0.980 . S
H165 C138 0.983 . S
H166 C137 0.982 . S
H167 C137 0.979 . S
H168 C137 0.977 1_565 S
H169 C139 0.948 . S
H170 C141 0.947 . S
H171 C142 0.948 . S
H172 C148 0.982 . S
H173 C148 0.979 . S
H174 C148 0.977 . S
H175 C149 0.979 . S
H176 C149 0.980 . S
H177 C149 0.983 . S
H178 C122 0.947 . S
C179 C122 1.392 . S
C179 C123 1.419 . S
C179 H161 0.948 . S
C180 C181 1.391 . S
C180 C184 1.391 . S
C180 H222 0.948 . S
C181 C180 1.391 . S
C181 C182 1.391 . S
C182 C181 1.391 . S
C182 H238 0.947 . S
C182 C239 1.392 . S
C183 C184 1.391 . S
C183 C187 1.397 . S
C183 C239 1.419 . S
C184 C180 1.391 . S
C184 C183 1.391 . S
C184 C185 1.399 . S
C185 C184 1.399 . S
C185 C188 1.396 . S
C185 C197 1.453 . S
C185 C198 1.684 . S
H186 C210 0.948 . S
C187 C183 1.397 . S
C187 C188 1.394 . S
C187 C206 1.723 . S
C188 C185 1.396 . S
C188 C187 1.394 . S
C188 C218 1.723 . S
H189 C212 0.947 . S
H190 C213 0.948 . S
H191 C219 0.982 . S
H192 C220 0.979 . S
H193 C220 0.980 . S
H194 C220 0.983 . S
H195 C219 0.979 . S
H196 C219 0.977 . S
C197 C185 1.453 . S
C197 H226 0.982 . S
C197 H227 0.979 . S
C197 H228 0.977 . S
C198 C185 1.684 . S
C198 H223 0.979 . S
C198 H224 0.980 . S
C198 H225 0.983 . S
C199 C200 1.391 . S
C199 C204 1.391 . S
C199 H229 0.948 . S
C200 C199 1.391 . S
C200 C201 1.391 . S
C201 C200 1.391 . S
C201 C202 1.392 . S
C201 H230 0.947 . S
C202 C201 1.392 . S
C202 C203 1.419 . S
C202 H231 0.948 . S
C203 C202 1.419 . S
C203 C204 1.391 . S
C203 C207 1.397 . S
C204 C199 1.391 . S
C204 C203 1.391 . S
C204 C205 1.399 . S
C205 C204 1.399 . S
C205 C206 1.396 . S
C205 C208 1.453 . S
C205 C209 1.684 . S
C206 C187 1.723 . S
C206 C205 1.396 . S
C206 C207 1.394 . S
C207 C203 1.397 . S
C207 C206 1.394 . S
C207 C217 1.723 . S
C208 C205 1.453 . S
C208 H232 0.982 . S
C208 H233 0.979 . S
C208 H234 0.977 . S
C209 C205 1.684 . S
C209 H235 0.979 . S
C209 H236 0.980 . S
C209 H237 0.983 . S
C210 H186 0.948 . S
C210 C211 1.391 . S
C210 C215 1.391 . S
C211 C210 1.391 . S
C211 C212 1.391 . S
C212 H189 0.947 . S
C212 C211 1.391 . S
C212 C213 1.392 . S
C213 H190 0.948 . S
C213 C212 1.392 . S
C213 C214 1.419 . S
C214 C213 1.419 . S
C214 C215 1.391 . S
C214 C218 1.397 . S
C215 C210 1.391 . S
C215 C214 1.391 . S
C215 C216 1.399 . S
C216 C215 1.399 . S
C216 C217 1.396 . S
C216 C219 1.453 . S
C216 C220 1.684 . S
C217 C207 1.723 . S
C217 C216 1.396 . S
C217 C218 1.394 . S
C218 C188 1.723 . S
C218 C214 1.397 . S
C218 C217 1.394 . S
C219 H191 0.982 . S
C219 H195 0.979 . S
C219 H196 0.977 . S
C219 C216 1.453 . S
C220 H192 0.979 . S
C220 H193 0.980 . S
C220 H194 0.983 . S
C220 C216 1.684 . S
H221 C239 0.948 . S
H222 C180 0.948 . S
H223 C198 0.979 . S
H224 C198 0.980 . S
H225 C198 0.983 . S
H226 C197 0.982 . S
H227 C197 0.979 . S
H228 C197 0.977 . S
H229 C199 0.948 . S
H230 C201 0.947 . S
H231 C202 0.948 . S
H232 C208 0.982 . S
H233 C208 0.979 . S
H234 C208 0.977 . S
H235 C209 0.979 . S
H236 C209 0.980 . S
H237 C209 0.983 . S
H238 C182 0.947 . S
C239 C182 1.392 . S
C239 C183 1.419 . S
C239 H221 0.948 . S
C240 C241 1.391 . S
C240 C244 1.391 . S
C240 H282 0.948 . S
C241 C240 1.391 . S
C241 C242 1.391 . S
C242 C241 1.391 . S
C242 H298 0.947 . S
C242 C299 1.392 . S
C243 C244 1.391 . S
C243 C247 1.397 . S
C243 C299 1.419 . S
C244 C240 1.391 . S
C244 C243 1.391 . S
C244 C245 1.399 . S
C245 C244 1.399 . S
C245 C248 1.396 . S
C245 C257 1.453 . S
C245 C258 1.684 . S
H246 C270 0.948 . S
C247 C243 1.397 . S
C247 C248 1.394 . S
C247 C266 1.723 . S
C248 C245 1.396 . S
C248 C247 1.394 . S
C248 C278 1.723 . S
H249 C272 0.947 . S
H250 C273 0.948 1_455 S
H251 C279 0.982 . S
H252 C280 0.979 . S
H253 C280 0.980 . S
H254 C280 0.983 . S
H255 C279 0.979 . S
H256 C279 0.977 . S
C257 C245 1.453 . S
C257 H286 0.982 . S
C257 H287 0.979 . S
C257 H288 0.977 . S
C258 C245 1.684 . S
C258 H283 0.979 . S
C258 H284 0.980 . S
C258 H285 0.983 . S
C259 C260 1.391 . S
C259 C264 1.391 . S
C259 H289 0.948 . S
C260 C259 1.391 . S
C260 C261 1.391 . S
C261 C260 1.391 . S
C261 C262 1.392 . S
C261 H290 0.947 1_455 S
C262 C261 1.392 . S
C262 C263 1.419 . S
C262 H291 0.948 1_455 S
C263 C262 1.419 . S
C263 C264 1.391 . S
C263 C267 1.397 . S
C264 C259 1.391 . S
C264 C263 1.391 . S
C264 C265 1.399 . S
C265 C264 1.399 . S
C265 C266 1.396 . S
C265 C268 1.453 . S
C265 C269 1.684 . S
C266 C247 1.723 . S
C266 C265 1.396 . S
C266 C267 1.394 . S
C267 C263 1.397 . S
C267 C266 1.394 . S
C267 C277 1.725 . S
C268 C265 1.453 . S
C268 H292 0.982 . S
C268 H293 0.979 . S
C268 H294 0.977 . S
C269 C265 1.684 . S
C269 H295 0.979 . S
C269 H296 0.980 . S
C269 H297 0.983 . S
C270 H246 0.948 . S
C270 C271 1.391 . S
C270 C275 1.391 . S
C271 C270 1.391 . S
C271 C272 1.391 . S
C272 H249 0.947 . S
C272 C271 1.391 . S
C272 C273 1.392 . S
C273 H250 0.948 1_655 S
C273 C272 1.392 . S
C273 C274 1.419 . S
C274 C273 1.419 . S
C274 C275 1.391 . S
C274 C278 1.397 1_655 S
C275 C270 1.391 . S
C275 C274 1.391 . S
C275 C276 1.399 . S
C276 C275 1.399 . S
C276 C277 1.394 1_655 S
C276 C279 1.453 . S
C276 C280 1.684 . S
C277 C267 1.725 . S
C277 C276 1.394 1_455 S
C277 C278 1.395 . S
C278 C248 1.723 . S
C278 C274 1.397 1_455 S
C278 C277 1.395 . S
C279 H251 0.982 . S
C279 H255 0.979 . S
C279 H256 0.977 . S
C279 C276 1.453 . S
C280 H252 0.979 . S
C280 H253 0.980 . S
C280 H254 0.983 . S
C280 C276 1.684 . S
H281 C299 0.948 . S
H282 C240 0.948 . S
H283 C258 0.979 . S
H284 C258 0.980 . S
H285 C258 0.983 . S
H286 C257 0.982 . S
H287 C257 0.979 . S
H288 C257 0.977 . S
H289 C259 0.948 . S
H290 C261 0.947 1_655 S
H291 C262 0.948 1_655 S
H292 C268 0.982 . S
H293 C268 0.979 . S
H294 C268 0.977 . S
H295 C269 0.979 . S
H296 C269 0.980 . S
H297 C269 0.983 . S
H298 C242 0.947 . S
C299 C242 1.392 . S
C299 C243 1.419 . S
C299 H281 0.948 . S
C300 C301 1.391 . S
C300 C304 1.391 . S
C300 H342 0.948 . S
C301 C300 1.391 . S
C301 C302 1.391 . S
C302 C301 1.391 . S
C302 H358 0.947 . S
C302 C359 1.392 . S
C303 C304 1.391 . S
C303 C307 1.397 . S
C303 C359 1.419 . S
C304 C300 1.391 . S
C304 C303 1.391 . S
C304 C305 1.399 . S
C305 C304 1.399 . S
C305 C308 1.396 . S
C305 C317 1.453 . S
C305 C318 1.684 . S
H306 C330 0.948 . S
C307 C303 1.397 . S
C307 C308 1.394 . S
C307 C326 1.723 . S
C308 C305 1.396 . S
C308 C307 1.394 . S
C308 C338 1.723 1_655 S
H309 C332 0.947 . S
H310 C333 0.948 . S
H311 C339 0.982 . S
H312 C340 0.979 . S
H313 C340 0.980 . S
H314 C340 0.983 . S
H315 C339 0.979 . S
H316 C339 0.977 . S
C317 C305 1.453 . S
C317 H346 0.982 1_655 S
C317 H347 0.979 . S
C317 H348 0.977 1_655 S
C318 C305 1.684 . S
C318 H343 0.979 . S
C318 H344 0.980 . S
C318 H345 0.983 . S
C319 C320 1.391 1_655 S
C319 C324 1.391 . S
C319 H349 0.948 . S
C320 C319 1.391 1_455 S
C320 C321 1.391 . S
C321 C320 1.391 . S
C321 C322 1.392 . S
C321 H350 0.947 . S
C322 C321 1.392 . S
C322 C323 1.419 . S
C322 H351 0.948 . S
C323 C322 1.419 . S
C323 C324 1.391 1_455 S
C323 C327 1.397 . S
C324 C319 1.391 . S
C324 C323 1.391 1_655 S
C324 C325 1.399 . S
C325 C324 1.399 . S
C325 C326 1.396 . S
C325 C328 1.453 . S
C325 C329 1.684 . S
C326 C307 1.723 . S
C326 C325 1.396 . S
C326 C327 1.394 1_655 S
C327 C323 1.397 . S
C327 C326 1.394 1_455 S
C327 C337 1.723 . S
C328 C325 1.453 . S
C328 H352 0.982 . S
C328 H353 0.979 . S
C328 H354 0.977 . S
C329 C325 1.684 . S
C329 H355 0.979 . S
C329 H356 0.980 . S
C329 H357 0.983 . S
C330 H306 0.948 . S
C330 C331 1.391 . S
C330 C335 1.391 . S
C331 C330 1.391 . S
C331 C332 1.391 . S
C332 H309 0.947 . S
C332 C331 1.391 . S
C332 C333 1.392 . S
C333 H310 0.948 . S
C333 C332 1.392 . S
C333 C334 1.419 . S
C334 C333 1.419 . S
C334 C335 1.391 . S
C334 C338 1.397 . S
C335 C330 1.391 . S
C335 C334 1.391 . S
C335 C336 1.399 . S
C336 C335 1.399 . S
C336 C337 1.396 . S
C336 C339 1.453 . S
C336 C340 1.684 . S
C337 C327 1.723 . S
C337 C336 1.396 . S
C337 C338 1.394 . S
C338 C308 1.723 1_455 S
C338 C334 1.397 . S
C338 C337 1.394 . S
C339 H311 0.982 . S
C339 H315 0.979 . S
C339 H316 0.977 . S
C339 C336 1.453 . S
C340 H312 0.979 . S
C340 H313 0.980 . S
C340 H314 0.983 . S
C340 C336 1.684 . S
H341 C359 0.948 . S
H342 C300 0.948 . S
H343 C318 0.979 . S
H344 C318 0.980 . S
H345 C318 0.983 . S
H346 C317 0.982 1_455 S
H347 C317 0.979 . S
H348 C317 0.977 1_455 S
H349 C319 0.948 . S
H350 C321 0.947 . S
H351 C322 0.948 . S
H352 C328 0.982 . S
H353 C328 0.979 . S
H354 C328 0.977 . S
H355 C329 0.979 . S
H356 C329 0.980 . S
H357 C329 0.983 . S
H358 C302 0.947 . S
C359 C302 1.392 . S
C359 C303 1.419 . S
C359 H341 0.948 . S
C360 C361 1.391 . S
C360 C364 1.391 . S
C360 H402 0.948 . S
C361 C360 1.391 . S
C361 C362 1.391 . S
C362 C361 1.391 . S
C362 H418 0.947 . S
C362 C419 1.392 . S
C363 C364 1.391 . S
C363 C367 1.397 . S
C363 C419 1.419 . S
C364 C360 1.391 . S
C364 C363 1.391 . S
C364 C365 1.399 . S
C365 C364 1.399 . S
C365 C368 1.396 . S
C365 C377 1.453 1_565 S
C365 C378 1.684 . S
H366 C390 0.948 . S
C367 C363 1.397 . S
C367 C368 1.394 . S
C367 C386 1.723 . S
C368 C365 1.396 . S
C368 C367 1.394 . S
C368 C398 1.723 1_565 S
H369 C392 0.947 . S
H370 C393 0.948 . S
H371 C399 0.982 . S
H372 C400 0.979 . S
H373 C400 0.980 . S
H374 C400 0.983 . S
H375 C399 0.979 . S
H376 C399 0.977 . S
C377 C365 1.453 1_545 S
C377 H406 0.982 . S
C377 H407 0.979 1_545 S
C377 H408 0.977 . S
C378 C365 1.684 . S
C378 H403 0.979 . S
C378 H404 0.980 . S
C378 H405 0.983 . S
C379 C380 1.391 . S
C379 C384 1.391 . S
C379 H409 0.948 . S
C380 C379 1.391 . S
C380 C381 1.391 1_565 S
C381 C380 1.391 1_545 S
C381 C382 1.392 . S
C381 H410 0.947 . S
C382 C381 1.392 . S
C382 C383 1.419 . S
C382 H411 0.948 . S
C383 C382 1.419 . S
C383 C384 1.391 1_545 S
C383 C387 1.397 . S
C384 C379 1.391 . S
C384 C383 1.391 1_565 S
C384 C385 1.399 . S
C385 C384 1.399 . S
C385 C386 1.396 . S
C385 C388 1.453 . S
C385 C389 1.684 . S
C386 C367 1.723 . S
C386 C385 1.396 . S
C386 C387 1.394 1_565 S
C387 C383 1.397 . S
C387 C386 1.394 1_545 S
C387 C397 1.723 . S
C388 C385 1.453 . S
C388 H412 0.982 . S
C388 H413 0.979 . S
C388 H414 0.977 . S
C389 C385 1.684 . S
C389 H415 0.979 . S
C389 H416 0.980 . S
C389 H417 0.983 . S
C390 H366 0.948 . S
C390 C391 1.391 . S
C390 C395 1.391 . S
C391 C390 1.391 . S
C391 C392 1.391 . S
C392 H369 0.947 . S
C392 C391 1.391 . S
C392 C393 1.392 . S
C393 H370 0.948 . S
C393 C392 1.392 . S
C393 C394 1.419 . S
C394 C393 1.419 . S
C394 C395 1.391 . S
C394 C398 1.397 . S
C395 C390 1.391 . S
C395 C394 1.391 . S
C395 C396 1.399 . S
C396 C395 1.399 . S
C396 C397 1.396 . S
C396 C399 1.453 . S
C396 C400 1.684 . S
C397 C387 1.723 . S
C397 C396 1.396 . S
C397 C398 1.394 . S
C398 C368 1.723 1_545 S
C398 C394 1.397 . S
C398 C397 1.394 . S
C399 H371 0.982 . S
C399 H375 0.979 . S
C399 H376 0.977 . S
C399 C396 1.453 . S
C400 H372 0.979 . S
C400 H373 0.980 . S
C400 H374 0.983 . S
C400 C396 1.684 . S
H401 C419 0.948 . S
H402 C360 0.948 . S
H403 C378 0.979 . S
H404 C378 0.980 . S
H405 C378 0.983 . S
H406 C377 0.982 . S
H407 C377 0.979 1_565 S
H408 C377 0.977 . S
H409 C379 0.948 . S
H410 C381 0.947 . S
H411 C382 0.948 . S
H412 C388 0.982 . S
H413 C388 0.979 . S
H414 C388 0.977 . S
H415 C389 0.979 . S
H416 C389 0.980 . S
H417 C389 0.983 . S
H418 C362 0.947 . S
C419 C362 1.392 . S
C419 C363 1.419 . S
C419 H401 0.948 . S
C420 C421 1.391 . S
C420 C424 1.391 . S
C420 H462 0.948 . S
C421 C420 1.391 . S
C421 C422 1.391 . S
C422 C421 1.391 . S
C422 H478 0.947 . S
C422 C479 1.392 . S
C423 C424 1.391 . S
C423 C427 1.397 . S
C423 C479 1.419 . S
C424 C420 1.391 . S
C424 C423 1.391 . S
C424 C425 1.399 . S
C425 C424 1.399 . S
C425 C428 1.396 . S
C425 C437 1.453 . S
C425 C438 1.684 . S
H426 C450 0.948 . S
C427 C423 1.397 . S
C427 C428 1.394 . S
C427 C446 1.723 . S
C428 C425 1.396 . S
C428 C427 1.394 . S
C428 C458 1.723 . S
H429 C452 0.947 . S
H430 C453 0.948 . S
H431 C459 0.982 . S
H432 C460 0.979 . S
H433 C460 0.980 . S
H434 C460 0.983 . S
H435 C459 0.979 . S
H436 C459 0.977 . S
C437 C425 1.453 . S
C437 H466 0.982 . S
C437 H467 0.979 . S
C437 H468 0.977 . S
C438 C425 1.684 . S
C438 H463 0.979 . S
C438 H464 0.980 . S
C438 H465 0.983 . S
C439 C440 1.391 . S
C439 C444 1.391 1_556 S
C439 H469 0.948 . S
C440 C439 1.391 . S
C440 C441 1.391 . S
C441 C440 1.391 . S
C441 C442 1.392 1_556 S
C441 H470 0.947 . S
C442 C441 1.392 1_554 S
C442 C443 1.419 . S
C442 H471 0.948 . S
C443 C442 1.419 . S
C443 C444 1.391 . S
C443 C447 1.397 . S
C444 C439 1.391 1_554 S
C444 C443 1.391 . S
C444 C445 1.399 . S
C445 C444 1.399 . S
C445 C446 1.396 . S
C445 C448 1.453 . S
C445 C449 1.684 . S
C446 C427 1.723 . S
C446 C445 1.396 . S
C446 C447 1.394 . S
C447 C443 1.397 . S
C447 C446 1.394 . S
C447 C457 1.723 . S
C448 C445 1.453 . S
C448 H472 0.982 . S
C448 H473 0.979 . S
C448 H474 0.977 . S
C449 C445 1.684 . S
C449 H475 0.979 . S
C449 H476 0.980 . S
C449 H477 0.983 . S
C450 H426 0.948 . S
C450 C451 1.391 . S
C450 C455 1.391 . S
C451 C450 1.391 . S
C451 C452 1.391 . S
C452 H429 0.947 . S
C452 C451 1.391 . S
C452 C453 1.392 . S
C453 H430 0.948 . S
C453 C452 1.392 . S
C453 C454 1.419 . S
C454 C453 1.419 . S
C454 C455 1.391 . S
C454 C458 1.397 . S
C455 C450 1.391 . S
C455 C454 1.391 . S
C455 C456 1.399 . S
C456 C455 1.399 . S
C456 C457 1.396 . S
C456 C459 1.453 . S
C456 C460 1.684 . S
C457 C447 1.723 . S
C457 C456 1.396 . S
C457 C458 1.394 . S
C458 C428 1.723 . S
C458 C454 1.397 . S
C458 C457 1.394 . S
C459 H431 0.982 . S
C459 H435 0.979 . S
C459 H436 0.977 . S
C459 C456 1.453 . S
C460 H432 0.979 . S
C460 H433 0.980 . S
C460 H434 0.983 . S
C460 C456 1.684 . S
H461 C479 0.948 . S
H462 C420 0.948 . S
H463 C438 0.979 . S
H464 C438 0.980 . S
H465 C438 0.983 . S
H466 C437 0.982 . S
H467 C437 0.979 . S
H468 C437 0.977 . S
H469 C439 0.948 . S
H470 C441 0.947 . S
H471 C442 0.948 . S
H472 C448 0.982 . S
H473 C448 0.979 . S
H474 C448 0.977 . S
H475 C449 0.979 . S
H476 C449 0.980 . S
H477 C449 0.983 . S
H478 C422 0.947 . S
C479 C422 1.392 . S
C479 C423 1.419 . S
C479 H461 0.948 . S
C480 C481 1.369 . S
C480 C482 1.419 . S
C480 H484 0.930 . S
C481 C480 1.369 . S
C481 C490 1.429 . S
C482 C480 1.419 . S
C482 C483 1.363 . S
C482 H485 0.929 . S
C483 C482 1.363 . S
C483 C489 1.428 . S
H484 C480 0.930 . S
H485 C482 0.929 . S
S486 N487 1.613 . S
S486 N488 1.610 . S
N487 S486 1.613 . S
N487 C490 1.350 . S
N488 S486 1.610 . S
N488 C489 1.351 . S
C489 C483 1.428 . S
C489 N488 1.351 . S
C489 C490 1.434 . S
C490 C481 1.429 . S
C490 N487 1.350 . S
C490 C489 1.434 . S
C491 C492 1.369 . S
C491 C493 1.419 . S
C491 H495 0.930 . S
C492 C491 1.369 . S
C492 C501 1.429 . S
C493 C491 1.419 . S
C493 C494 1.363 . S
C493 H496 0.929 . S
C494 C493 1.363 . S
C494 C500 1.428 . S
H495 C491 0.930 . S
H496 C493 0.929 . S
S497 N498 1.613 . S
S497 N499 1.610 . S
N498 S497 1.613 . S
N498 C501 1.350 . S
N499 S497 1.610 . S
N499 C500 1.351 . S
C500 C494 1.428 . S
C500 N499 1.351 . S
C500 C501 1.434 . S
C501 C492 1.429 . S
C501 N498 1.350 . S
C501 C500 1.434 . S
C502 C503 1.369 . S
C502 C504 1.419 . S
C502 H506 0.930 . S
C503 C502 1.369 . S
C503 C512 1.429 . S
C504 C502 1.419 . S
C504 C505 1.363 . S
C504 H507 0.929 . S
C505 C504 1.363 . S
C505 C511 1.428 . S
H506 C502 0.930 . S
H507 C504 0.929 . S
S508 N509 1.613 . S
S508 N510 1.610 . S
N509 S508 1.613 . S
N509 C512 1.350 . S
N510 S508 1.610 . S
N510 C511 1.351 . S
C511 C505 1.428 . S
C511 N510 1.351 . S
C511 C512 1.434 . S
C512 C503 1.429 . S
C512 N509 1.350 . S
C512 C511 1.434 . S
C513 C514 1.369 . S
C513 C515 1.419 . S
C513 H517 0.930 . S
C514 C513 1.369 . S
C514 C523 1.429 . S
C515 C513 1.419 . S
C515 C516 1.363 . S
C515 H518 0.929 . S
C516 C515 1.363 . S
C516 C522 1.428 . S
H517 C513 0.930 . S
H518 C515 0.929 . S
S519 N520 1.613 . S
S519 N521 1.610 . S
N520 S519 1.613 . S
N520 C523 1.350 . S
N521 S519 1.610 . S
N521 C522 1.351 . S
C522 C516 1.428 . S
C522 N521 1.351 . S
C522 C523 1.434 . S
C523 C514 1.429 . S
C523 N520 1.350 . S
C523 C522 1.434 . S
C524 C525 1.369 . S
C524 C526 1.419 . S
C524 H528 0.930 . S
C525 C524 1.369 . S
C525 C534 1.429 . S
C526 C524 1.419 . S
C526 C527 1.363 . S
C526 H529 0.929 . S
C527 C526 1.363 . S
C527 C533 1.428 . S
H528 C524 0.930 . S
H529 C526 0.929 . S
S530 N531 1.613 . S
S530 N532 1.610 . S
N531 S530 1.613 . S
N531 C534 1.350 . S
N532 S530 1.610 . S
N532 C533 1.351 . S
C533 C527 1.428 . S
C533 N532 1.351 . S
C533 C534 1.434 . S
C534 C525 1.429 . S
C534 N531 1.350 . S
C534 C533 1.434 . S
C535 C536 1.369 . S
C535 C537 1.419 . S
C535 H539 0.930 . S
C536 C535 1.369 . S
C536 C545 1.429 . S
C537 C535 1.419 . S
C537 C538 1.363 . S
C537 H540 0.929 . S
C538 C537 1.363 . S
C538 C544 1.428 . S
H539 C535 0.930 . S
H540 C537 0.929 . S
S541 N542 1.613 . S
S541 N543 1.610 . S
N542 S541 1.613 . S
N542 C545 1.350 . S
N543 S541 1.610 . S
N543 C544 1.351 . S
C544 C538 1.428 . S
C544 N543 1.351 . S
C544 C545 1.434 . S
C545 C536 1.429 . S
C545 N542 1.350 . S
C545 C544 1.434 . S
C546 C547 1.369 . S
C546 C548 1.419 . S
C546 H550 0.930 . S
C547 C546 1.369 . S
C547 C556 1.429 . S
C548 C546 1.419 . S
C548 C549 1.363 . S
C548 H551 0.929 . S
C549 C548 1.363 . S
C549 C555 1.428 . S
H550 C546 0.930 . S
H551 C548 0.929 . S
S552 N553 1.613 . S
S552 N554 1.610 . S
N553 S552 1.613 . S
N553 C556 1.350 . S
N554 S552 1.610 . S
N554 C555 1.351 . S
C555 C549 1.428 . S
C555 N554 1.351 . S
C555 C556 1.434 . S
C556 C547 1.429 . S
C556 N553 1.350 . S
C556 C555 1.434 . S
C557 C558 1.369 . S
C557 C559 1.419 . S
C557 H561 0.930 . S
C558 C557 1.369 . S
C558 C567 1.429 . S
C559 C557 1.419 . S
C559 C560 1.363 . S
C559 H562 0.929 . S
C560 C559 1.363 . S
C560 C566 1.428 . S
H561 C557 0.930 . S
H562 C559 0.929 . S
S563 N564 1.613 . S
S563 N565 1.610 . S
N564 S563 1.613 . S
N564 C567 1.350 . S
N565 S563 1.610 . S
N565 C566 1.351 . S
C566 C560 1.428 . S
C566 N565 1.351 . S
C566 C567 1.434 . S
C567 C558 1.429 . S
C567 N564 1.350 . S
C567 C566 1.434 . S
C568 C569 1.369 . S
C568 C570 1.419 . S
C568 H572 0.930 . S
C569 C568 1.369 . S
C569 C578 1.429 . S
C570 C568 1.419 . S
C570 C571 1.363 . S
C570 H573 0.929 . S
C571 C570 1.363 . S
C571 C577 1.428 . S
H572 C568 0.930 . S
H573 C570 0.929 . S
S574 N575 1.613 . S
S574 N576 1.610 . S
N575 S574 1.613 . S
N575 C578 1.350 . S
N576 S574 1.610 . S
N576 C577 1.351 . S
C577 C571 1.428 . S
C577 N576 1.351 . S
C577 C578 1.434 . S
C578 C569 1.429 . S
C578 N575 1.350 . S
C578 C577 1.434 . S
C579 C580 1.369 . S
C579 C581 1.419 . S
C579 H583 0.930 . S
C580 C579 1.369 . S
C580 C589 1.429 . S
C581 C579 1.419 . S
C581 C582 1.363 . S
C581 H584 0.929 . S
C582 C581 1.363 . S
C582 C588 1.428 . S
H583 C579 0.930 . S
H584 C581 0.929 . S
S585 N586 1.613 . S
S585 N587 1.610 . S
N586 S585 1.613 . S
N586 C589 1.350 . S
N587 S585 1.610 . S
N587 C588 1.351 . S
C588 C582 1.428 . S
C588 N587 1.351 . S
C588 C589 1.434 . S
C589 C580 1.429 . S
C589 N586 1.350 . S
C589 C588 1.434 . S
C590 C591 1.369 . S
C590 C592 1.419 . S
C590 H594 0.930 . S
C591 C590 1.369 . S
C591 C600 1.429 . S
C592 C590 1.419 . S
C592 C593 1.363 . S
C592 H595 0.929 . S
C593 C592 1.363 . S
C593 C599 1.428 . S
H594 C590 0.930 . S
H595 C592 0.929 . S
S596 N597 1.613 . S
S596 N598 1.610 . S
N597 S596 1.613 . S
N597 C600 1.350 . S
N598 S596 1.610 . S
N598 C599 1.351 . S
C599 C593 1.428 . S
C599 N598 1.351 . S
C599 C600 1.434 . S
C600 C591 1.429 . S
C600 N597 1.350 . S
C600 C599 1.434 . S
C601 C602 1.369 . S
C601 C603 1.419 . S
C601 H605 0.930 . S
C602 C601 1.369 . S
C602 C611 1.429 . S
C603 C601 1.419 . S
C603 C604 1.363 . S
C603 H606 0.929 . S
C604 C603 1.363 . S
C604 C610 1.428 . S
H605 C601 0.930 . S
H606 C603 0.929 . S
S607 N608 1.613 . S
S607 N609 1.610 . S
N608 S607 1.613 . S
N608 C611 1.350 . S
N609 S607 1.610 . S
N609 C610 1.351 . S
C610 C604 1.428 . S
C610 N609 1.351 . S
C610 C611 1.434 . S
C611 C602 1.429 . S
C611 N608 1.350 . S
C611 C610 1.434 . S
C612 C613 1.369 . S
C612 C614 1.419 . S
C612 H616 0.930 . S
C613 C612 1.369 . S
C613 C622 1.429 . S
C614 C612 1.419 . S
C614 C615 1.363 . S
C614 H617 0.929 . S
C615 C614 1.363 . S
C615 C621 1.428 . S
H616 C612 0.930 . S
H617 C614 0.929 . S
S618 N619 1.613 . S
S618 N620 1.610 . S
N619 S618 1.613 . S
N619 C622 1.350 1_655 S
N620 S618 1.610 . S
N620 C621 1.351 1_655 S
C621 C615 1.428 . S
C621 N620 1.351 1_455 S
C621 C622 1.434 . S
C622 C613 1.429 . S
C622 N619 1.350 1_455 S
C622 C621 1.434 . S
C623 C624 1.369 . S
C623 C625 1.419 . S
C623 H627 0.930 . S
C624 C623 1.369 . S
C624 C633 1.429 1_545 S
C625 C623 1.419 . S
C625 C626 1.363 . S
C625 H628 0.929 . S
C626 C625 1.363 . S
C626 C632 1.428 1_545 S
H627 C623 0.930 . S
H628 C625 0.929 . S
S629 N630 1.613 . S
S629 N631 1.610 . S
N630 S629 1.613 . S
N630 C633 1.350 . S
N631 S629 1.610 . S
N631 C632 1.351 . S
C632 C626 1.428 1_565 S
C632 N631 1.351 . S
C632 C633 1.434 . S
C633 C624 1.429 1_565 S
C633 N630 1.350 . S
C633 C632 1.434 . S
C634 C635 1.369 . S
C634 C636 1.419 . S
C634 H638 0.930 . S
C635 C634 1.369 . S
C635 C644 1.429 . S
C636 C634 1.419 . S
C636 C637 1.363 . S
C636 H639 0.929 . S
C637 C636 1.363 . S
C637 C643 1.428 . S
H638 C634 0.930 . S
H639 C636 0.929 . S
S640 N641 1.613 . S
S640 N642 1.610 . S
N641 S640 1.613 . S
N641 C644 1.350 . S
N642 S640 1.610 . S
N642 C643 1.351 . S
C643 C637 1.428 . S
C643 N642 1.351 . S
C643 C644 1.434 . S
C644 C635 1.429 . S
C644 N641 1.350 . S
C644 C643 1.434 . S
C645 C646 1.369 . S
C645 C647 1.419 . S
C645 H649 0.930 . S
C646 C645 1.369 . S
C646 C655 1.429 1_545 S
C647 C645 1.419 . S
C647 C648 1.363 1_545 S
C647 H650 0.929 . S
C648 C647 1.363 1_565 S
C648 C654 1.428 . S
H649 C645 0.930 . S
H650 C647 0.929 . S
S651 N652 1.613 . S
S651 N653 1.610 . S
N652 S651 1.613 . S
N652 C655 1.350 . S
N653 S651 1.610 . S
N653 C654 1.351 . S
C654 C648 1.428 . S
C654 N653 1.351 . S
C654 C655 1.434 . S
C655 C646 1.429 1_565 S
C655 N652 1.350 . S
C655 C654 1.434 . S
C656 C657 1.369 . S
C656 C658 1.419 . S
C656 H660 0.930 . S
C657 C656 1.369 . S
C657 C666 1.429 . S
C658 C656 1.419 . S
C658 C659 1.363 . S
C658 H661 0.929 . S
C659 C658 1.363 . S
C659 C665 1.428 . S
H660 C656 0.930 . S
H661 C658 0.929 . S
S662 N663 1.613 . S
S662 N664 1.610 . S
N663 S662 1.613 . S
N663 C666 1.350 . S
N664 S662 1.610 . S
N664 C665 1.351 . S
C665 C659 1.428 . S
C665 N664 1.351 . S
C665 C666 1.434 . S
C666 C657 1.429 . S
C666 N663 1.350 . S
C666 C665 1.434 . S
C667 C668 1.369 . S
C667 C669 1.419 . S
C667 H671 0.930 . S
C668 C667 1.369 . S
C668 C677 1.429 1_455 S
C669 C667 1.419 . S
C669 C670 1.386 . S
C669 H672 0.929 . S
C670 C669 1.386 . S
C670 C676 1.408 1_455 S
H671 C667 0.930 . S
H672 C669 0.929 . S
S673 N674 1.613 . S
S673 N675 1.610 . S
N674 S673 1.613 . S
N674 C677 1.350 . S
N675 S673 1.610 . S
N675 C676 1.351 . S
C676 C670 1.408 1_655 S
C676 N675 1.351 . S
C676 C677 1.434 . S
C677 C668 1.429 1_655 S
C677 N674 1.350 . S
C677 C676 1.434 . S
C481 C6 0.882 . S
C483 C451 0.967 . S
C492 C59 2.004 . S
C494 C301 1.842 . S
C503 C86 1.368 . S
C505 C361 1.407 . S
C514 C15 0.657 . S
C516 C421 0.583 . S
C527 C331 2.125 . S
C525 C50 2.145 . S
C538 C391 1.383 . S
C536 C95 1.366 . S
C547 C46 1.280 . S
C549 C181 1.277 . S
C558 C99 3.186 . S
C560 C271 3.190 . S
C569 C10 2.172 . S
C571 C151 2.185 . S
C582 C211 1.384 . S
C580 C55 1.348 . S
C593 C241 2.952 . S
C591 C90 3.126 . S
C602 C19 1.998 . S
C604 C121 1.851 . S
C615 C260 1.774 1_554 S
C613 C18 1.727 . S
C624 C49 1.320 . S
C626 C140 1.333 . S
C635 C98 1.443 . S
C637 C200 1.471 . S
C648 C380 1.461 . S
C646 C58 1.439 . S
C659 C440 1.067 . S
C657 C89 1.068 . S
C668 C9 1.315 . S
C670 C320 1.320 . S
