# Generated by pormake.
# Topology hwx, (6,3)-cn, num edge types: 1
# Building blocks:
#     Node 0, Type 0, BuildingBlock: OJICUG_clean_sbu_0, # of connection points: 6
#     Node 1, Type 0, BuildingBlock: OJICUG_clean_sbu_0, # of connection points: 6
#     Node 2, Type 0, BuildingBlock: OJICUG_clean_sbu_0, # of connection points: 6
#     Node 3, Type 0, BuildingBlock: OJICUG_clean_sbu_0, # of connection points: 6
#     Node 4, Type 1, BuildingBlock: QEWDON_clean_linker_0, # of connection points: 3
#     Node 5, Type 1, BuildingBlock: QEWDON_clean_linker_0, # of connection points: 3
#     Node 6, Type 1, BuildingBlock: QEWDON_clean_linker_0, # of connection points: 3
#     Node 7, Type 1, BuildingBlock: QEWDON_clean_linker_0, # of connection points: 3
#     Node 8, Type 1, BuildingBlock: QEWDON_clean_linker_0, # of connection points: 3
#     Node 9, Type 1, BuildingBlock: QEWDON_clean_linker_0, # of connection points: 3
#     Node 10, Type 1, BuildingBlock: QEWDON_clean_linker_0, # of connection points: 3
#     Node 11, Type 1, BuildingBlock: QEWDON_clean_linker_0, # of connection points: 3
#     Edge 12, Type (0, 1), BuildingBlock: OJICUG_clean_linker_0, # of connection points: 2
#     Edge 13, Type (0, 1), BuildingBlock: OJICUG_clean_linker_0, # of connection points: 2
#     Edge 14, Type (0, 1), BuildingBlock: OJICUG_clean_linker_0, # of connection points: 2
#     Edge 15, Type (0, 1), BuildingBlock: OJICUG_clean_linker_0, # of connection points: 2
#     Edge 16, Type (0, 1), BuildingBlock: OJICUG_clean_linker_0, # of connection points: 2
#     Edge 17, Type (0, 1), BuildingBlock: OJICUG_clean_linker_0, # of connection points: 2
#     Edge 18, Type (0, 1), BuildingBlock: OJICUG_clean_linker_0, # of connection points: 2
#     Edge 19, Type (0, 1), BuildingBlock: OJICUG_clean_linker_0, # of connection points: 2
#     Edge 20, Type (0, 1), BuildingBlock: OJICUG_clean_linker_0, # of connection points: 2
#     Edge 21, Type (0, 1), BuildingBlock: OJICUG_clean_linker_0, # of connection points: 2
#     Edge 22, Type (0, 1), BuildingBlock: OJICUG_clean_linker_0, # of connection points: 2
#     Edge 23, Type (0, 1), BuildingBlock: OJICUG_clean_linker_0, # of connection points: 2
#     Edge 24, Type (0, 1), BuildingBlock: OJICUG_clean_linker_0, # of connection points: 2
#     Edge 25, Type (0, 1), BuildingBlock: OJICUG_clean_linker_0, # of connection points: 2
#     Edge 26, Type (0, 1), BuildingBlock: OJICUG_clean_linker_0, # of connection points: 2
#     Edge 27, Type (0, 1), BuildingBlock: OJICUG_clean_linker_0, # of connection points: 2
#     Edge 28, Type (0, 1), BuildingBlock: OJICUG_clean_linker_0, # of connection points: 2
#     Edge 29, Type (0, 1), BuildingBlock: OJICUG_clean_linker_0, # of connection points: 2
#     Edge 30, Type (0, 1), BuildingBlock: OJICUG_clean_linker_0, # of connection points: 2
#     Edge 31, Type (0, 1), BuildingBlock: OJICUG_clean_linker_0, # of connection points: 2
#     Edge 32, Type (0, 1), BuildingBlock: OJICUG_clean_linker_0, # of connection points: 2
#     Edge 33, Type (0, 1), BuildingBlock: OJICUG_clean_linker_0, # of connection points: 2
#     Edge 34, Type (0, 1), BuildingBlock: OJICUG_clean_linker_0, # of connection points: 2
#     Edge 35, Type (0, 1), BuildingBlock: OJICUG_clean_linker_0, # of connection points: 2
# Relax obj value: 0.002
# Max RMSD: 0.091
# Mean RMSD: 0.073
data_MOF--net-hwx--node1-OJICUG_clean_sbu_0--node2-QEWDON_clean_linker_0--edge1-OJICUG_clean_linker_0
_symmetry_space_group_name_H-M    P1
_symmetry_Int_Tables_number       1
_symmetry_cell_setting            triclinic
loop_
_symmetry_equiv_pos_as_xyz
'x, y, z'
_cell_length_a     41.263222
_cell_length_b     41.26377
_cell_length_c     15.244795
_cell_angle_alpha  92.872781
_cell_angle_beta   92.99091
_cell_angle_gamma 89.938004
loop_
_atom_site_label
_atom_site_type_symbol
_atom_site_fract_x
_atom_site_fract_y
_atom_site_fract_z
_atom_type_partial_charge
Sc0 Sc 0.24826 0.24523 0.07554 0.0
Sc1 Sc 0.18567 0.20093 0.95578 0.0
Sc2 Sc 0.23596 0.25284 0.84779 0.0
O3 O 0.2233 0.23307 0.95997 0.0
C4 C 0.24566 0.31344 -0.01519 0.0
C5 C 0.1736 0.24534 0.12664 0.0
C6 C 0.15922 0.25166 0.81738 0.0
C7 C 0.23431 0.17045 0.09941 0.0
C8 C 0.30542 0.23873 0.94226 0.0
C9 C 0.22305 0.17793 0.78778 0.0
O10 O 0.24874 0.29646 0.05212 0.0
O11 O 0.16305 0.22812 0.05968 0.0
O12 O 0.18661 0.26477 0.80841 0.0
O13 O 0.25177 0.19571 0.11304 0.0
O14 O 0.28678 0.24321 0.8748 0.0
O15 O 0.20584 0.17131 0.85142 0.0
O16 O 0.29522 0.23902 0.01971 0.0
O17 O 0.20917 0.16947 0.04777 0.0
O18 O 0.23345 0.2064 0.77666 0.0
O19 O 0.20355 0.25218 0.14285 0.0
O20 O 0.24055 0.30109 0.90731 0.0
O21 O 0.15586 0.22734 0.86385 0.0
Sc22 Sc 0.26395 0.74678 0.38419 0.0
Sc23 Sc 0.31944 0.69727 0.49894 0.0
Sc24 Sc 0.27529 0.75684 0.61446 0.0
O25 O 0.28626 0.73368 0.49908 0.0
C26 C 0.27488 0.81567 0.48551 0.0
C27 C 0.33787 0.73619 0.33426 0.0
C28 C 0.35125 0.74835 0.6438 0.0
C29 C 0.26708 0.66998 0.35222 0.0
C30 C 0.20583 0.74734 0.51511 0.0
C31 C 0.28142 0.68252 0.66636 0.0
O32 O 0.27152 0.79765 0.41564 0.0
O33 O 0.34519 0.71814 0.3974 0.0
O34 O 0.32546 0.76462 0.65456 0.0
O35 O 0.25399 0.6973 0.33876 0.0
O36 O 0.22425 0.75047 0.58452 0.0
O37 O 0.29637 0.67285 0.59938 0.0
O38 O 0.21644 0.7471 0.4381 0.0
O39 O 0.29148 0.66681 0.40521 0.0
O40 O 0.27417 0.71213 0.68278 0.0
O41 O 0.30947 0.74752 0.31951 0.0
O42 O 0.27537 0.80454 0.56182 0.0
O43 O 0.35202 0.72278 0.59382 0.0
Sc44 Sc 0.77125 0.77521 0.90462 0.0
Sc45 Sc 0.82575 0.83093 0.01924 0.0
Sc46 Sc 0.77655 0.78037 0.13525 0.0
O47 O 0.79113 0.79557 0.01949 0.0
C48 C 0.70938 0.77759 0.02217 0.0
C49 C 0.77525 0.85026 0.86388 0.0
C50 C 0.78175 0.85703 0.17343 0.0
C51 C 0.84576 0.78359 0.86037 0.0
C52 C 0.78242 0.71356 0.02172 0.0
C53 C 0.85306 0.78915 0.1755 0.0
O54 O 0.72232 0.77542 0.94828 0.0
O55 O 0.79857 0.8561 0.92024 0.0
O56 O 0.77032 0.82924 0.18715 0.0
O57 O 0.8174 0.77188 0.84607 0.0
O58 O 0.78131 0.73026 0.09384 0.0
O59 O 0.85719 0.80956 0.11755 0.0
O60 O 0.77919 0.72608 0.94695 0.0
O61 O 0.85283 0.80471 0.92185 0.0
O62 O 0.82551 0.77733 0.18943 0.0
O63 O 0.76201 0.82236 0.85147 0.0
O64 O 0.72599 0.78034 0.09462 0.0
O65 O 0.80264 0.86146 0.11674 0.0
Sc66 Sc 0.7441 0.28981 0.58335 0.0
Sc67 Sc 0.68514 0.33488 0.46707 0.0
Sc68 Sc 0.73135 0.27556 0.35546 0.0
O69 O 0.72024 0.30003 0.46857 0.0
C70 C 0.80186 0.28446 0.45129 0.0
C71 C 0.73667 0.36595 0.6113 0.0
C72 C 0.72433 0.34983 0.30074 0.0
C73 C 0.66954 0.29713 0.63511 0.0
C74 C 0.73497 0.2189 0.49129 0.0
C75 C 0.65509 0.28277 0.32288 0.0
O76 O 0.79154 0.2881 0.52843 0.0
O77 O 0.71076 0.36697 0.56284 0.0
O78 O 0.73253 0.32026 0.28674 0.0
O79 O 0.69916 0.28944 0.65076 0.0
O80 O 0.73219 0.22851 0.41313 0.0
O81 O 0.6536 0.30862 0.37126 0.0
O82 O 0.73844 0.2384 0.55838 0.0
O83 O 0.65995 0.31249 0.56828 0.0
O84 O 0.68123 0.26688 0.31462 0.0
O85 O 0.75287 0.34007 0.62069 0.0
O86 O 0.78285 0.28072 0.38312 0.0
O87 O 0.7081 0.35949 0.36578 0.0
H88 H 0.25957 0.53026 0.11702 0.0
C89 C 0.25719 0.54552 0.06117 0.0
C90 C 0.24512 0.57722 0.07236 0.0
C91 C 0.26948 0.53469 -0.01932 0.0
H92 H 0.23339 0.62119 0.00776 0.0
C93 C 0.24292 0.59684 -0.00025 0.0
C94 C 0.25666 0.5872 0.92039 0.0
C95 C 0.26955 0.55573 0.91094 0.0
C96 C 0.28735 0.50369 -0.025 0.0
H97 H 0.28131 0.5481 0.85144 0.0
C98 C 0.27188 0.47409 -0.01195 0.0
C99 C 0.2898 0.44508 -0.01255 0.0
C100 C 0.32069 0.504 0.96059 0.0
H101 H 0.33306 0.5266 0.95103 0.0
C102 C 0.33851 0.47526 0.96066 0.0
H103 H 0.24612 0.47364 -0.00125 0.0
C104 C 0.32323 0.44595 -0.02558 0.0
H105 H 0.3374 0.42382 -0.02675 0.0
H106 H 0.36424 0.47571 0.95009 0.0
H107 H 0.988 0.73235 0.3945 0.0
C108 C 0.9748 0.7392 0.45221 0.0
C109 C 0.94515 0.75565 0.44308 0.0
C110 C 0.98628 0.72992 0.53582 0.0
H111 H 0.90406 0.77498 0.50922 0.0
C112 C 0.92744 0.76306 0.51706 0.0
C113 C 0.9384 0.75353 0.60003 0.0
C114 C 0.96806 0.73729 0.60967 0.0
C115 C 0.0157 0.70992 0.54589 0.0
H116 H 0.9763 0.72928 0.67373 0.0
C117 C 0.04632 0.72256 0.53012 0.0
C118 C 0.07444 0.70436 0.5485 0.0
C119 C 0.01325 0.67856 0.57671 0.0
H120 H 0.98978 0.66848 0.58911 0.0
C121 C 0.04107 0.66008 0.59234 0.0
H122 H 0.04834 0.747 0.50792 0.0
C123 C 0.07156 0.67297 0.57913 0.0
H124 H 0.09296 0.6585 0.59319 0.0
H125 H 0.03904 0.63592 0.61608 0.0
H126 H 0.7907 0.49736 0.86975 0.0
C127 C 0.78157 0.48293 0.92062 0.0
C128 C 0.76431 0.45427 0.89747 0.0
C129 C 0.7885 0.4919 0.00984 0.0
H130 H 0.74079 0.41256 0.9443 0.0
C131 C 0.75375 0.43492 0.96311 0.0
C132 C 0.76118 0.44302 0.05208 0.0
C133 C 0.77826 0.47186 0.07533 0.0
C134 C 0.80949 0.52017 0.03495 0.0
H135 H 0.78469 0.47811 0.14396 0.0
C136 C 0.79933 0.55195 0.01801 0.0
C137 C 0.8189 0.57864 0.04781 0.0
C138 C 0.8397 0.51521 0.07886 0.0
H139 H 0.84792 0.49091 0.0921 0.0
C140 C 0.85956 0.54153 0.10586 0.0
H141 H 0.77576 0.5559 -0.01442 0.0
C142 C 0.84921 0.57304 0.091 0.0
H143 H 0.86482 0.59316 0.11385 0.0
H144 H 0.88287 0.53751 0.13945 0.0
H145 H 0.02001 0.26347 0.57644 0.0
C146 C 0.03571 0.26765 0.5233 0.0
C147 C 0.06773 0.2786 0.54241 0.0
C148 C 0.02495 0.25938 0.43604 0.0
H149 H 0.11256 0.29154 0.48739 0.0
C150 C 0.08802 0.28293 0.47279 0.0
C151 C 0.07861 0.27255 0.38624 0.0
C152 C 0.04663 0.26149 0.36824 0.0
C153 C 0.99303 0.2435 0.41629 0.0
H154 H 0.03894 0.25262 0.30236 0.0
C155 C 0.96366 0.25947 0.43408 0.0
C156 C 0.93376 0.24458 0.4074 0.0
C157 C 0.99212 0.2122 0.37538 0.0
H158 H 0.0144 0.19939 0.36187 0.0
C159 C 0.96257 0.19717 0.35119 0.0
H160 H 0.96409 0.28372 0.4649 0.0
C161 C 0.93359 0.2133 0.36636 0.0
H162 H 0.91088 0.2013 0.34605 0.0
H163 H 0.96214 0.17307 0.31966 0.0
H164 H 0.76662 0.99696 0.40413 0.0
C165 C 0.7608 0.98308 0.45977 0.0
C166 C 0.75309 0.94992 0.44722 0.0
C167 C 0.76342 0.99769 0.5451 0.0
H168 H 0.74429 0.90579 0.51146 0.0
C169 C 0.74769 0.9318 0.52067 0.0
C170 C 0.75067 0.94587 0.60626 0.0
C171 C 0.75781 0.97913 0.61765 0.0
C172 C 0.77784 0.03033 0.56098 0.0
H173 H 0.76084 0.99034 0.68341 0.0
C174 C 0.76142 0.05848 0.53478 0.0
C175 C 0.77499 0.08925 0.55777 0.0
C176 C 0.8082 0.03317 0.6069 0.0
H177 H 0.82121 0.01174 0.62718 0.0
C178 C 0.82196 0.06357 0.62751 0.0
H179 H 0.73783 0.05653 0.50021 0.0
C180 C 0.80538 0.09147 0.60377 0.0
H181 H 0.81626 0.11494 0.62158 0.0
H182 H 0.84535 0.06553 0.66297 0.0
H183 H 0.52193 0.22985 0.06458 0.0
C184 C 0.53637 0.23927 0.01416 0.0
C185 C 0.56556 0.25563 0.03794 0.0
C186 C 0.52688 0.23359 0.92462 0.0
H187 H 0.60751 0.27893 -0.00799 0.0
C188 C 0.58484 0.26659 -0.02726 0.0
C189 C 0.57624 0.26043 0.88353 0.0
C190 C 0.54693 0.24428 0.85967 0.0
C191 C 0.4981 0.21338 0.89786 0.0
H192 H 0.5403 0.23885 0.79074 0.0
C193 C 0.46661 0.22313 0.91927 0.0
C194 C 0.43942 0.20458 0.88716 0.0
C195 C 0.50224 0.18448 0.84707 0.0
H196 H 0.52628 0.17651 0.83028 0.0
C197 C 0.4755 0.16562 0.81752 0.0
H198 H 0.46322 0.24568 0.95724 0.0
C199 C 0.44429 0.17564 0.83686 0.0
H200 H 0.42386 0.16073 0.81235 0.0
H201 H 0.47895 0.14333 0.77864 0.0
H202 H 0.27725 0.04368 0.58874 0.0
C203 C 0.27038 0.05245 0.52455 0.0
C204 C 0.25337 0.0818 0.51789 0.0
C205 C 0.28098 0.03599 0.44813 0.0
H206 H 0.23335 0.11672 0.42989 0.0
C207 C 0.24577 0.09362 0.43489 0.0
C208 C 0.25664 0.07773 0.35897 0.0
C209 C 0.27442 0.04899 0.36551 0.0
C210 C 0.30282 1.00786 0.45458 0.0
H211 H 0.28402 0.03735 0.30701 0.0
C212 C 0.29057 0.97659 0.46495 0.0
C213 C 0.31148 0.94965 0.46169 0.0
C214 C 0.33608 0.01216 0.44379 0.0
H215 H 0.34581 0.03612 0.43533 0.0
C216 C 0.35693 0.98553 0.44254 0.0
H217 H 0.26481 0.9731 0.47183 0.0
C218 C 0.3447 0.95438 0.45062 0.0
H219 H 0.36114 0.93391 0.44801 0.0
H220 H 0.38255 0.98899 0.43393 0.0
H221 H 0.49069 0.75135 0.88598 0.0
C222 C 0.47565 0.75483 0.94191 0.0
C223 C 0.4432 0.76465 0.92922 0.0
C224 C 0.48789 0.7471 0.02593 0.0
H225 H 0.39779 0.77219 -0.00965 0.0
C226 C 0.42341 0.76706 0.00146 0.0
C227 C 0.43519 0.75907 0.08546 0.0
C228 C 0.46779 0.74981 0.09741 0.0
C229 C 0.51991 0.73158 0.03789 0.0
H230 H 0.47732 0.74328 0.16175 0.0
C231 C 0.54866 0.74823 0.02313 0.0
C232 C 0.57884 0.73361 0.04168 0.0
C233 C 0.5216 0.69998 0.06821 0.0
H234 H 0.49966 0.68676 0.07957 0.0
C235 C 0.55157 0.68524 0.08451 0.0
H236 H 0.54759 0.77277 0.00084 0.0
C237 C 0.5801 0.70204 0.07203 0.0
H238 H 0.60323 0.69051 0.0866 0.0
H239 H 0.55269 0.66092 0.108 0.0
C240 C 0.15882 0.25454 0.28169 0.0
C241 C 0.15012 0.25567 0.19197 0.0
H242 H 0.14317 0.257 0.41213 0.0
C243 C 0.11823 0.26422 0.16569 0.0
H244 H 0.18309 0.24743 0.30356 0.0
C245 C 0.09529 0.27118 0.22847 0.0
C246 C 0.10356 0.2688 0.31872 0.0
H247 H 0.11101 0.26532 0.09655 0.0
H248 H 0.07101 0.27793 0.20605 0.0
C249 C 0.13576 0.26043 0.34412 0.0
C250 C 0.26667 0.62597 0.70192 0.0
C251 C 0.27345 0.65836 0.72986 0.0
H252 H 0.25484 0.57824 0.73962 0.0
C253 C 0.27403 0.66728 0.8197 0.0
H254 H 0.26603 0.61854 0.63267 0.0
C255 C 0.26869 0.64417 0.88084 0.0
C256 C 0.26153 0.61167 0.85358 0.0
H257 H 0.2798 0.69194 0.8431 0.0
H258 H 0.2711 0.65182 0.94982 0.0
C259 C 0.26044 0.60289 0.76315 0.0
C260 C 0.8818 0.74717 0.26131 0.0
C261 C 0.88122 0.77866 0.23034 0.0
H262 H 0.90421 0.71477 0.35144 0.0
C263 C 0.90634 0.80043 0.25783 0.0
H264 H 0.86295 0.7298 0.24021 0.0
C265 C 0.92989 0.79179 0.3219 0.0
C266 C 0.92901 0.76103 0.35695 0.0
H267 H 0.9064 0.82484 0.23475 0.0
H268 H 0.9473 0.80981 0.34852 0.0
C269 C 0.90564 0.73838 0.32371 0.0
C270 C 0.72285 0.41782 0.69293 0.0
C271 C 0.74633 0.39494 0.6675 0.0
H272 H 0.71054 0.45553 0.78742 0.0
C273 C 0.77797 0.39759 0.7061 0.0
H274 H 0.69826 0.41642 0.66444 0.0
C275 C 0.78509 0.42054 0.77479 0.0
C276 C 0.76063 0.44094 0.80631 0.0
H277 H 0.79664 0.38052 0.68727 0.0
H278 H 0.8088 0.42021 0.80884 0.0
C279 C 0.72987 0.44042 0.7627 0.0
C280 C 0.60194 0.29542 0.24482 0.0
C281 C 0.6262 0.27269 0.26629 0.0
H282 H 0.56265 0.30737 0.15435 0.0
C283 C 0.62464 0.24156 0.22433 0.0
H284 H 0.60238 0.3196 0.27599 0.0
C285 C 0.60133 0.23442 0.15636 0.0
C286 C 0.57938 0.25832 0.12894 0.0
H287 H 0.64273 0.2234 0.23999 0.0
H288 H 0.60247 0.2113 0.11966 0.0
C289 C 0.57892 0.28838 0.1759 0.0
C290 C 0.25626 0.15745 0.66481 0.0
C291 C 0.23224 0.15159 0.72416 0.0
H292 H 0.28204 0.13941 0.5547 0.0
C293 C 0.21737 0.12077 0.72094 0.0
H294 H 0.26869 0.18059 0.66615 0.0
C295 C 0.22535 0.09694 0.65667 0.0
C296 C 0.24832 0.10368 0.59541 0.0
H297 H 0.19896 0.11541 0.76619 0.0
H298 H 0.2127 0.07388 0.65253 0.0
C299 C 0.26417 0.13379 0.60136 0.0
C300 C 0.39093 0.72334 0.26942 0.0
C301 C 0.36367 0.74364 0.27471 0.0
H302 H 0.43439 0.71189 0.20501 0.0
C303 C 0.36135 0.77067 0.22235 0.0
H304 H 0.3934 0.70224 0.30874 0.0
C305 C 0.38548 0.77679 0.16424 0.0
C306 C 0.41212 0.75567 0.15623 0.0
H307 H 0.34086 0.78703 0.22604 0.0
H308 H 0.38295 0.79773 0.12436 0.0
C309 C 0.41472 0.72913 0.21049 0.0
C310 C 0.73924 0.8727 0.74291 0.0
C311 C 0.765 0.87682 0.80649 0.0
H312 H 0.71349 0.89202 0.63163 0.0
C313 C 0.78273 0.90603 0.81097 0.0
H314 H 0.72478 0.85074 0.73836 0.0
C315 C 0.77657 0.92941 0.7494 0.0
C316 C 0.75224 0.92444 0.68213 0.0
H317 H 0.80263 0.91027 0.85937 0.0
H318 H 0.79238 0.9504 0.75148 0.0
C319 C 0.73281 0.89636 0.68168 0.0
C320 C 0.86285 0.75209 0.72659 0.0
C321 C 0.87106 0.77315 0.79972 0.0
H322 H 0.87811 0.72932 0.60665 0.0
C323 C 0.90304 0.78516 0.81122 0.0
H324 H 0.83862 0.74211 0.71583 0.0
C325 C 0.9258 0.77745 0.7485 0.0
C326 C 0.91676 0.75789 0.67342 0.0
H327 H 0.91023 0.80122 0.86718 0.0
H328 H 0.94992 0.78788 0.75657 0.0
C329 C 0.88542 0.74468 0.66402 0.0
C330 C 0.72851 0.40745 0.25487 0.0
C331 C 0.73442 0.37408 0.23878 0.0
H332 H 0.73255 0.45555 0.20862 0.0
C333 C 0.75033 0.36402 0.16285 0.0
H334 H 0.71652 0.41611 0.31304 0.0
C335 C 0.7595 0.38657 0.10368 0.0
C336 C 0.75303 0.41978 0.11875 0.0
H337 H 0.75556 0.33863 0.14849 0.0
H338 H 0.77166 0.37796 0.04569 0.0
C339 C 0.73787 0.43011 0.19555 0.0
C340 C 0.13147 0.29298 0.72453 0.0
C341 C 0.13066 0.26308 0.76458 0.0
H342 H 0.11041 0.32259 0.62533 0.0
C343 C 0.1037 0.24258 0.74582 0.0
H344 H 0.15146 0.30971 0.73922 0.0
C345 C 0.08033 0.24985 0.68006 0.0
C346 C 0.08335 0.27788 0.63241 0.0
H347 H 0.10205 0.21955 0.77642 0.0
H348 H 0.06191 0.23183 0.66064 0.0
C349 C 0.10781 0.30048 0.65979 0.0
C350 C 0.22729 0.64255 0.24265 0.0
C351 C 0.25578 0.64124 0.29704 0.0
H352 H 0.20011 0.62151 0.13066 0.0
C353 C 0.27549 0.6135 0.29057 0.0
H354 H 0.21107 0.66314 0.24766 0.0
C355 C 0.26938 0.58985 0.22312 0.0
C356 C 0.24329 0.59338 0.16129 0.0
H357 H 0.29731 0.61135 0.33252 0.0
H358 H 0.28718 0.57083 0.21419 0.0
C359 C 0.2209 0.61858 0.17597 0.0
C360 C 0.3809 0.78596 0.75416 0.0
C361 C 0.38046 0.75725 0.7004 0.0
H362 H 0.40241 0.81146 0.8683 0.0
C363 C 0.40615 0.73507 0.71046 0.0
H364 H 0.3619 0.80391 0.74696 0.0
C365 C 0.42938 0.73949 0.78003 0.0
C366 C 0.42733 0.7662 0.84022 0.0
H367 H 0.40683 0.71291 0.66942 0.0
H368 H 0.44688 0.72038 0.79157 0.0
C369 C 0.40421 0.79043 0.82333 0.0
C370 C 0.74163 0.88363 0.27042 0.0
C371 C 0.77128 0.88496 0.2295 0.0
H372 H 0.71182 0.9044 0.36907 0.0
C373 C 0.79184 0.9118 0.24887 0.0
H374 H 0.72495 0.86362 0.25537 0.0
C375 C 0.78438 0.93511 0.31464 0.0
C376 C 0.75611 0.93204 0.36121 0.0
H377 H 0.81475 0.91357 0.21784 0.0
H378 H 0.802 0.95393 0.33375 0.0
C379 C 0.734 0.90708 0.33505 0.0
C380 C 0.65516 0.27084 0.77237 0.0
C381 C 0.64522 0.28731 0.69713 0.0
H382 H 0.64113 0.24897 0.88863 0.0
C383 C 0.61193 0.29387 0.68172 0.0
H384 H 0.68046 0.26505 0.78619 0.0
C385 C 0.58925 0.28459 0.74102 0.0
C386 C 0.59947 0.26878 0.81704 0.0
H387 H 0.60337 0.30634 0.62412 0.0
H388 H 0.56388 0.2904 0.72848 0.0
C389 C 0.63259 0.26168 0.83139 0.0
C390 C 0.21732 0.12001 0.16937 0.0
C391 C 0.24195 0.14202 0.15206 0.0
H392 H 0.20291 0.08181 0.24971 0.0
C393 C 0.273 0.13847 0.19291 0.0
H394 H 0.19312 0.12216 0.13914 0.0
C395 C 0.27867 0.11487 0.25442 0.0
C396 C 0.25333 0.09471 0.27654 0.0
H397 H 0.29251 0.1549 0.18044 0.0
H398 H 0.30216 0.11396 0.28946 0.0
C399 C 0.22288 0.09679 0.23206 0.0
C400 C 0.27374 0.36112 0.06275 0.0
C401 C 0.25206 0.34874 -0.00491 0.0
H402 H 0.30298 0.4016 0.1126 0.0
C403 C 0.23988 0.36969 0.93125 0.0
H404 H 0.2837 0.34555 0.11252 0.0
C405 C 0.25049 0.4019 0.93244 0.0
C406 C 0.2739 0.41345 -0.00361 0.0
H407 H 0.22308 0.36085 0.87848 0.0
H408 H 0.24188 0.41719 0.88039 0.0
C409 C 0.28486 0.3931 0.06273 0.0
C410 C 0.16097 0.72979 0.60579 0.0
C411 C 0.17108 0.74017 0.52505 0.0
H412 H 0.12251 0.71012 0.67568 0.0
C413 C 0.1483 0.74077 0.4531 0.0
H414 H 0.1778 0.72887 0.66256 0.0
C415 C 0.11638 0.73025 0.46125 0.0
C416 C 0.10699 0.71844 0.54089 0.0
H417 H 0.15531 0.74867 0.39009 0.0
H418 H 0.09941 0.73019 0.40458 0.0
C419 C 0.12937 0.71882 0.61334 0.0
C420 C 0.80007 0.66622 0.1083 0.0
C421 C 0.78961 0.67837 0.02696 0.0
H422 H 0.81727 0.62542 0.17803 0.0
C423 C 0.78736 0.65685 0.9522 0.0
H424 H 0.80218 0.6819 0.16747 0.0
C425 C 0.79591 0.62406 0.95881 0.0
C426 C 0.80732 0.61246 0.03989 0.0
H427 H 0.77932 0.66537 0.88864 0.0
H428 H 0.79451 0.60802 0.90026 0.0
C429 C 0.80891 0.6338 0.11452 0.0
C430 C 0.85957 0.27963 0.51352 0.0
C431 C 0.83732 0.28061 0.44025 0.0
H432 H 0.90803 0.26776 0.56038 0.0
C433 C 0.84879 0.27411 0.35581 0.0
H434 H 0.85168 0.2846 0.57949 0.0
C435 C 0.8808 0.26437 0.34534 0.0
C436 C 0.90232 0.26124 0.41877 0.0
H437 H 0.83262 0.27489 0.29766 0.0
H438 H 0.88841 0.25786 0.27981 0.0
C439 C 0.89186 0.27011 0.50277 0.0
C440 C 0.74302 0.16099 0.43524 0.0
C441 C 0.73818 0.18365 0.50562 0.0
H442 H 0.75827 0.11268 0.39682 0.0
C443 C 0.74059 0.17296 0.59196 0.0
H444 H 0.74128 0.16833 0.36794 0.0
C445 C 0.7504 0.14137 0.60803 0.0
C446 C 0.75763 0.11959 0.53827 0.0
H447 H 0.73666 0.18949 0.64785 0.0
H448 H 0.75396 0.13442 0.67546 0.0
C449 C 0.75265 0.12913 0.45153 0.0
C450 C 0.36345 0.23246 0.00014 0.0
C451 C 0.34023 0.23182 0.92894 0.0
H452 H 0.41327 0.22476 0.04265 0.0
C453 C 0.35045 0.22369 0.84404 0.0
H454 H 0.35647 0.23876 0.06634 0.0
C455 C 0.38272 0.21555 0.83088 0.0
C456 C 0.40577 0.21558 0.90201 0.0
H457 H 0.33336 0.22293 0.78756 0.0
H458 H 0.38965 0.20897 0.76476 0.0
C459 C 0.39599 0.22465 -0.01334 0.0
C460 C 0.27649 0.87336 0.54772 0.0
C461 C 0.28106 0.85073 0.47725 0.0
H462 H 0.28196 0.92291 0.5971 0.0
C463 C 0.29369 0.86157 0.39991 0.0
H464 H 0.26675 0.86576 0.60804 0.0
C465 C 0.3028 0.89393 0.39451 0.0
C466 C 0.2989 0.91629 0.4655 0.0
H467 H 0.29772 0.84479 0.3446 0.0
H468 H 0.31345 0.90145 0.33526 0.0
C469 C 0.28504 0.90599 0.54149 0.0
C470 C 0.65459 0.76521 0.94776 0.0
C471 C 0.67384 0.77276 0.02515 0.0
H472 H 0.60873 0.74704 0.89261 0.0
C473 C 0.65955 0.77175 0.10682 0.0
H474 H 0.66474 0.76584 0.88377 0.0
C475 C 0.62774 0.76087 0.11143 0.0
C476 C 0.60944 0.75129 0.03459 0.0
H477 H 0.67345 0.77761 0.16778 0.0
H478 H 0.61791 0.75844 0.17532 0.0
C479 C 0.62256 0.75454 0.95254 0.0
loop_
_geom_bond_atom_site_label_1
_geom_bond_atom_site_label_2
_geom_bond_distance
_geom_bond_site_symmetry_2
_ccdc_geom_bond_type
Sc0 O3 2.025 . S
Sc0 O10 2.105 . S
Sc0 O13 2.105 . S
Sc0 O16 2.105 . S
Sc0 O19 2.105 . S
Sc1 O3 2.025 . S
Sc1 O11 2.104 . S
Sc1 O15 2.105 1_554 S
Sc1 O17 2.104 . S
Sc1 O21 2.105 1_554 S
Sc2 O3 2.025 1_556 S
Sc2 O12 2.105 . S
Sc2 O14 2.105 . S
Sc2 O18 2.105 . S
Sc2 O20 2.105 . S
O3 Sc0 2.025 . S
O3 Sc1 2.025 . S
O3 Sc2 2.025 1_554 S
C4 O10 1.268 . S
C4 O20 1.268 1_554 S
C5 O11 1.268 . S
C5 O19 1.268 . S
C6 O12 1.268 . S
C6 O21 1.268 . S
C7 O13 1.268 . S
C7 O17 1.268 . S
C8 O14 1.268 1_554 S
C8 O16 1.268 . S
C9 O15 1.268 . S
C9 O18 1.268 . S
O10 Sc0 2.105 . S
O10 C4 1.268 . S
O11 Sc1 2.104 . S
O11 C5 1.268 . S
O12 Sc2 2.105 . S
O12 C6 1.268 . S
O13 Sc0 2.105 . S
O13 C7 1.268 . S
O14 Sc2 2.105 . S
O14 C8 1.268 1_556 S
O15 Sc1 2.105 1_556 S
O15 C9 1.268 . S
O16 Sc0 2.105 . S
O16 C8 1.268 . S
O17 Sc1 2.104 . S
O17 C7 1.268 . S
O18 Sc2 2.105 . S
O18 C9 1.268 . S
O19 Sc0 2.105 . S
O19 C5 1.268 . S
O20 Sc2 2.105 . S
O20 C4 1.268 1_556 S
O21 Sc1 2.105 1_556 S
O21 C6 1.268 . S
Sc22 O25 2.025 . S
Sc22 O32 2.105 . S
Sc22 O35 2.105 . S
Sc22 O38 2.105 . S
Sc22 O41 2.105 . S
Sc23 O25 2.025 . S
Sc23 O33 2.105 . S
Sc23 O37 2.105 . S
Sc23 O39 2.105 . S
Sc23 O43 2.105 . S
Sc24 O25 2.025 . S
Sc24 O34 2.105 . S
Sc24 O36 2.105 . S
Sc24 O40 2.105 . S
Sc24 O42 2.105 . S
O25 Sc22 2.025 . S
O25 Sc23 2.025 . S
O25 Sc24 2.025 . S
C26 O32 1.268 . S
C26 O42 1.268 . S
C27 O33 1.268 . S
C27 O41 1.268 . S
C28 O34 1.268 . S
C28 O43 1.268 . S
C29 O35 1.268 . S
C29 O39 1.268 . S
C30 O36 1.268 . S
C30 O38 1.268 . S
C31 O37 1.268 . S
C31 O40 1.268 . S
O32 Sc22 2.105 . S
O32 C26 1.268 . S
O33 Sc23 2.105 . S
O33 C27 1.268 . S
O34 Sc24 2.105 . S
O34 C28 1.268 . S
O35 Sc22 2.105 . S
O35 C29 1.268 . S
O36 Sc24 2.105 . S
O36 C30 1.268 . S
O37 Sc23 2.105 . S
O37 C31 1.268 . S
O38 Sc22 2.105 . S
O38 C30 1.268 . S
O39 Sc23 2.105 . S
O39 C29 1.268 . S
O40 Sc24 2.105 . S
O40 C31 1.268 . S
O41 Sc22 2.105 . S
O41 C27 1.268 . S
O42 Sc24 2.105 . S
O42 C26 1.268 . S
O43 Sc23 2.105 . S
O43 C28 1.268 . S
Sc44 O47 2.025 1_556 S
Sc44 O54 2.105 . S
Sc44 O57 2.105 . S
Sc44 O60 2.105 . S
Sc44 O63 2.105 . S
Sc45 O47 2.025 . S
Sc45 O55 2.105 1_554 S
Sc45 O59 2.105 . S
Sc45 O61 2.105 1_554 S
Sc45 O65 2.105 . S
Sc46 O47 2.025 . S
Sc46 O56 2.105 . S
Sc46 O58 2.105 . S
Sc46 O62 2.105 . S
Sc46 O64 2.105 . S
O47 Sc44 2.025 1_554 S
O47 Sc45 2.025 . S
O47 Sc46 2.025 . S
C48 O54 1.268 1_554 S
C48 O64 1.268 . S
C49 O55 1.268 . S
C49 O63 1.268 . S
C50 O56 1.268 . S
C50 O65 1.268 . S
C51 O57 1.268 . S
C51 O61 1.268 . S
C52 O58 1.268 . S
C52 O60 1.268 1_554 S
C53 O59 1.268 . S
C53 O62 1.268 . S
O54 Sc44 2.105 . S
O54 C48 1.268 1_556 S
O55 Sc45 2.105 1_556 S
O55 C49 1.268 . S
O56 Sc46 2.105 . S
O56 C50 1.268 . S
O57 Sc44 2.105 . S
O57 C51 1.268 . S
O58 Sc46 2.105 . S
O58 C52 1.268 . S
O59 Sc45 2.105 . S
O59 C53 1.268 . S
O60 Sc44 2.105 . S
O60 C52 1.268 1_556 S
O61 Sc45 2.105 1_556 S
O61 C51 1.268 . S
O62 Sc46 2.105 . S
O62 C53 1.268 . S
O63 Sc44 2.105 . S
O63 C49 1.268 . S
O64 Sc46 2.105 . S
O64 C48 1.268 . S
O65 Sc45 2.105 . S
O65 C50 1.268 . S
Sc66 O69 2.025 . S
Sc66 O76 2.105 . S
Sc66 O79 2.105 . S
Sc66 O82 2.105 . S
Sc66 O85 2.105 . S
Sc67 O69 2.025 . S
Sc67 O77 2.105 . S
Sc67 O81 2.105 . S
Sc67 O83 2.105 . S
Sc67 O87 2.105 . S
Sc68 O69 2.025 . S
Sc68 O78 2.105 . S
Sc68 O80 2.105 . S
Sc68 O84 2.105 . S
Sc68 O86 2.105 . S
O69 Sc66 2.025 . S
O69 Sc67 2.025 . S
O69 Sc68 2.025 . S
C70 O76 1.268 . S
C70 O86 1.268 . S
C71 O77 1.268 . S
C71 O85 1.268 . S
C72 O78 1.268 . S
C72 O87 1.268 . S
C73 O79 1.268 . S
C73 O83 1.268 . S
C74 O80 1.268 . S
C74 O82 1.268 . S
C75 O81 1.268 . S
C75 O84 1.268 . S
O76 Sc66 2.105 . S
O76 C70 1.268 . S
O77 Sc67 2.105 . S
O77 C71 1.268 . S
O78 Sc68 2.105 . S
O78 C72 1.268 . S
O79 Sc66 2.105 . S
O79 C73 1.268 . S
O80 Sc68 2.105 . S
O80 C74 1.268 . S
O81 Sc67 2.105 . S
O81 C75 1.268 . S
O82 Sc66 2.105 . S
O82 C74 1.268 . S
O83 Sc67 2.105 . S
O83 C73 1.268 . S
O84 Sc68 2.105 . S
O84 C75 1.268 . S
O85 Sc66 2.105 . S
O85 C71 1.268 . S
O86 Sc68 2.105 . S
O86 C70 1.268 . S
O87 Sc67 2.105 . S
O87 C72 1.268 . S
H88 C89 0.949 . S
C89 H88 0.949 . S
C89 C90 1.395 . S
C89 C91 1.391 1_554 S
C90 C89 1.395 . S
C90 C93 1.390 . S
C91 C89 1.391 1_556 S
C91 C95 1.387 . S
C91 C96 1.491 . S
H92 C93 0.950 . S
C93 C90 1.390 . S
C93 H92 0.950 . S
C93 C94 1.378 1_554 S
C94 C93 1.378 1_556 S
C94 C95 1.409 . S
C95 C91 1.387 . S
C95 C94 1.409 . S
C95 H97 0.951 . S
C96 C91 1.491 . S
C96 C98 1.382 1_556 S
C96 C100 1.404 . S
H97 C95 0.951 . S
C98 C96 1.382 1_554 S
C98 C99 1.390 1_554 S
C98 H103 0.949 . S
C99 C98 1.390 1_556 S
C99 C104 1.399 . S
C100 C96 1.404 . S
C100 H101 0.950 . S
C100 C102 1.375 . S
H101 C100 0.950 . S
C102 C100 1.375 . S
C102 C104 1.382 . S
C102 H106 0.950 . S
H103 C98 0.949 . S
C104 C99 1.399 . S
C104 C102 1.382 . S
C104 H105 0.952 . S
H105 C104 0.952 . S
H106 C102 0.950 . S
H107 C108 0.949 . S
C108 H107 0.949 . S
C108 C109 1.395 . S
C108 C110 1.391 . S
C109 C108 1.395 . S
C109 C112 1.390 . S
C110 C108 1.391 . S
C110 C114 1.387 . S
C110 C115 1.491 1_655 S
H111 C112 0.950 . S
C112 C109 1.390 . S
C112 H111 0.950 . S
C112 C113 1.378 . S
C113 C112 1.378 . S
C113 C114 1.409 . S
C114 C110 1.387 . S
C114 C113 1.409 . S
C114 H116 0.951 . S
C115 C110 1.491 1_455 S
C115 C117 1.382 . S
C115 C119 1.404 . S
H116 C114 0.951 . S
C117 C115 1.382 . S
C117 C118 1.390 . S
C117 H122 0.949 . S
C118 C117 1.390 . S
C118 C123 1.399 . S
C119 C115 1.404 . S
C119 H120 0.950 . S
C119 C121 1.375 . S
H120 C119 0.950 . S
C121 C119 1.375 . S
C121 C123 1.382 . S
C121 H125 0.950 . S
H122 C117 0.949 . S
C123 C118 1.399 . S
C123 C121 1.382 . S
C123 H124 0.952 . S
H124 C123 0.952 . S
H125 C121 0.950 . S
H126 C127 0.949 . S
C127 H126 0.949 . S
C127 C128 1.395 . S
C127 C129 1.391 1_556 S
C128 C127 1.395 . S
C128 C131 1.390 1_556 S
C129 C127 1.391 1_554 S
C129 C133 1.387 . S
C129 C134 1.491 . S
H130 C131 0.950 . S
C131 C128 1.390 1_554 S
C131 H130 0.950 . S
C131 C132 1.378 . S
C132 C131 1.378 . S
C132 C133 1.409 . S
C133 C129 1.387 . S
C133 C132 1.409 . S
C133 H135 0.951 . S
C134 C129 1.491 . S
C134 C136 1.382 . S
C134 C138 1.404 . S
H135 C133 0.951 . S
C136 C134 1.382 . S
C136 C137 1.390 . S
C136 H141 0.949 1_554 S
C137 C136 1.390 . S
C137 C142 1.399 . S
C138 C134 1.404 . S
C138 H139 0.950 . S
C138 C140 1.375 . S
H139 C138 0.950 . S
C140 C138 1.375 . S
C140 C142 1.382 . S
C140 H144 0.950 . S
H141 C136 0.949 1_556 S
C142 C137 1.399 . S
C142 C140 1.382 . S
C142 H143 0.952 . S
H143 C142 0.952 . S
H144 C140 0.950 . S
H145 C146 0.949 . S
C146 H145 0.949 . S
C146 C147 1.395 . S
C146 C148 1.391 . S
C147 C146 1.395 . S
C147 C150 1.390 . S
C148 C146 1.391 . S
C148 C152 1.387 . S
C148 C153 1.491 1_455 S
H149 C150 0.950 . S
C150 C147 1.390 . S
C150 H149 0.950 . S
C150 C151 1.378 . S
C151 C150 1.378 . S
C151 C152 1.409 . S
C152 C148 1.387 . S
C152 C151 1.409 . S
C152 H154 0.951 . S
C153 C148 1.491 1_655 S
C153 C155 1.382 . S
C153 C157 1.404 . S
H154 C152 0.951 . S
C155 C153 1.382 . S
C155 C156 1.390 . S
C155 H160 0.949 . S
C156 C155 1.390 . S
C156 C161 1.399 . S
C157 C153 1.404 . S
C157 H158 0.950 . S
C157 C159 1.375 . S
H158 C157 0.950 . S
C159 C157 1.375 . S
C159 C161 1.382 . S
C159 H163 0.950 . S
H160 C155 0.949 . S
C161 C156 1.399 . S
C161 C159 1.382 . S
C161 H162 0.952 . S
H162 C161 0.952 . S
H163 C159 0.950 . S
H164 C165 0.949 . S
C165 H164 0.949 . S
C165 C166 1.395 . S
C165 C167 1.391 . S
C166 C165 1.395 . S
C166 C169 1.390 . S
C167 C165 1.391 . S
C167 C171 1.387 . S
C167 C172 1.491 1_565 S
H168 C169 0.950 . S
C169 C166 1.390 . S
C169 H168 0.950 . S
C169 C170 1.378 . S
C170 C169 1.378 . S
C170 C171 1.409 . S
C171 C167 1.387 . S
C171 C170 1.409 . S
C171 H173 0.951 . S
C172 C167 1.491 1_545 S
C172 C174 1.382 . S
C172 C176 1.404 . S
H173 C171 0.951 . S
C174 C172 1.382 . S
C174 C175 1.390 . S
C174 H179 0.949 . S
C175 C174 1.390 . S
C175 C180 1.399 . S
C176 C172 1.404 . S
C176 H177 0.950 . S
C176 C178 1.375 . S
H177 C176 0.950 . S
C178 C176 1.375 . S
C178 C180 1.382 . S
C178 H182 0.950 . S
H179 C174 0.949 . S
C180 C175 1.399 . S
C180 C178 1.382 . S
C180 H181 0.952 . S
H181 C180 0.952 . S
H182 C178 0.950 . S
H183 C184 0.949 . S
C184 H183 0.949 . S
C184 C185 1.395 . S
C184 C186 1.391 1_554 S
C185 C184 1.395 . S
C185 C188 1.390 . S
C186 C184 1.391 1_556 S
C186 C190 1.387 . S
C186 C191 1.491 . S
H187 C188 0.950 . S
C188 C185 1.390 . S
C188 H187 0.950 . S
C188 C189 1.378 1_554 S
C189 C188 1.378 1_556 S
C189 C190 1.409 . S
C190 C186 1.387 . S
C190 C189 1.409 . S
C190 H192 0.951 . S
C191 C186 1.491 . S
C191 C193 1.382 1_556 S
C191 C195 1.404 . S
H192 C190 0.951 . S
C193 C191 1.382 1_554 S
C193 C194 1.390 1_554 S
C193 H198 0.949 . S
C194 C193 1.390 1_556 S
C194 C199 1.399 . S
C195 C191 1.404 . S
C195 H196 0.950 . S
C195 C197 1.375 . S
H196 C195 0.950 . S
C197 C195 1.375 . S
C197 C199 1.382 . S
C197 H201 0.950 . S
H198 C193 0.949 . S
C199 C194 1.399 . S
C199 C197 1.382 . S
C199 H200 0.952 . S
H200 C199 0.952 . S
H201 C197 0.950 . S
H202 C203 0.949 . S
C203 H202 0.949 . S
C203 C204 1.395 . S
C203 C205 1.391 . S
C204 C203 1.395 . S
C204 C207 1.390 . S
C205 C203 1.391 . S
C205 C209 1.387 . S
C205 C210 1.491 1_545 S
H206 C207 0.950 . S
C207 C204 1.390 . S
C207 H206 0.950 . S
C207 C208 1.378 . S
C208 C207 1.378 . S
C208 C209 1.409 . S
C209 C205 1.387 . S
C209 C208 1.409 . S
C209 H211 0.951 . S
C210 C205 1.491 1_565 S
C210 C212 1.382 . S
C210 C214 1.404 . S
H211 C209 0.951 . S
C212 C210 1.382 . S
C212 C213 1.390 . S
C212 H217 0.949 . S
C213 C212 1.390 . S
C213 C218 1.399 . S
C214 C210 1.404 . S
C214 H215 0.950 . S
C214 C216 1.375 . S
H215 C214 0.950 . S
C216 C214 1.375 . S
C216 C218 1.382 . S
C216 H220 0.950 . S
H217 C212 0.949 . S
C218 C213 1.399 . S
C218 C216 1.382 . S
C218 H219 0.952 . S
H219 C218 0.952 . S
H220 C216 0.950 . S
H221 C222 0.949 . S
C222 H221 0.949 . S
C222 C223 1.395 . S
C222 C224 1.391 1_556 S
C223 C222 1.395 . S
C223 C226 1.390 1_556 S
C224 C222 1.391 1_554 S
C224 C228 1.387 . S
C224 C229 1.491 . S
H225 C226 0.950 . S
C226 C223 1.390 1_554 S
C226 H225 0.950 . S
C226 C227 1.378 . S
C227 C226 1.378 . S
C227 C228 1.409 . S
C228 C224 1.387 . S
C228 C227 1.409 . S
C228 H230 0.951 . S
C229 C224 1.491 . S
C229 C231 1.382 . S
C229 C233 1.404 . S
H230 C228 0.951 . S
C231 C229 1.382 . S
C231 C232 1.390 . S
C231 H236 0.949 1_554 S
C232 C231 1.390 . S
C232 C237 1.399 . S
C233 C229 1.404 . S
C233 H234 0.950 . S
C233 C235 1.375 . S
H234 C233 0.950 . S
C235 C233 1.375 . S
C235 C237 1.382 . S
C235 H239 0.950 . S
H236 C231 0.949 1_556 S
C237 C232 1.399 . S
C237 C235 1.382 . S
C237 H238 0.952 . S
H238 C237 0.952 . S
H239 C235 0.950 . S
C240 C241 1.387 . S
C240 H244 0.950 . S
C240 C249 1.390 . S
C241 C240 1.387 . S
C241 C243 1.387 . S
H242 C249 0.950 . S
C243 C241 1.387 . S
C243 C245 1.390 . S
C243 H247 0.950 . S
H244 C240 0.950 . S
C245 C243 1.390 . S
C245 C246 1.387 . S
C245 H248 0.950 . S
C246 C245 1.387 . S
C246 C249 1.387 . S
H247 C243 0.950 . S
H248 C245 0.950 . S
C249 C240 1.390 . S
C249 H242 0.950 . S
C249 C246 1.387 . S
C250 C251 1.387 . S
C250 H254 0.950 . S
C250 C259 1.390 . S
C251 C250 1.387 . S
C251 C253 1.387 . S
H252 C259 0.950 . S
C253 C251 1.387 . S
C253 C255 1.390 . S
C253 H257 0.950 . S
H254 C250 0.950 . S
C255 C253 1.390 . S
C255 C256 1.387 . S
C255 H258 0.950 . S
C256 C255 1.387 . S
C256 C259 1.387 . S
H257 C253 0.950 . S
H258 C255 0.950 . S
C259 C250 1.390 . S
C259 H252 0.950 . S
C259 C256 1.387 . S
C260 C261 1.387 . S
C260 H264 0.950 . S
C260 C269 1.390 . S
C261 C260 1.387 . S
C261 C263 1.387 . S
H262 C269 0.950 . S
C263 C261 1.387 . S
C263 C265 1.390 . S
C263 H267 0.950 . S
H264 C260 0.950 . S
C265 C263 1.390 . S
C265 C266 1.387 . S
C265 H268 0.950 . S
C266 C265 1.387 . S
C266 C269 1.387 . S
H267 C263 0.950 . S
H268 C265 0.950 . S
C269 C260 1.390 . S
C269 H262 0.950 . S
C269 C266 1.387 . S
C270 C271 1.387 . S
C270 H274 0.950 . S
C270 C279 1.390 . S
C271 C270 1.387 . S
C271 C273 1.387 . S
H272 C279 0.950 . S
C273 C271 1.387 . S
C273 C275 1.390 . S
C273 H277 0.950 . S
H274 C270 0.950 . S
C275 C273 1.390 . S
C275 C276 1.387 . S
C275 H278 0.950 . S
C276 C275 1.387 . S
C276 C279 1.387 . S
H277 C273 0.950 . S
H278 C275 0.950 . S
C279 C270 1.390 . S
C279 H272 0.950 . S
C279 C276 1.387 . S
C280 C281 1.387 . S
C280 H284 0.950 . S
C280 C289 1.390 . S
C281 C280 1.387 . S
C281 C283 1.387 . S
H282 C289 0.950 . S
C283 C281 1.387 . S
C283 C285 1.390 . S
C283 H287 0.950 . S
H284 C280 0.950 . S
C285 C283 1.390 . S
C285 C286 1.387 . S
C285 H288 0.950 . S
C286 C285 1.387 . S
C286 C289 1.387 . S
H287 C283 0.950 . S
H288 C285 0.950 . S
C289 C280 1.390 . S
C289 H282 0.950 . S
C289 C286 1.387 . S
C290 C291 1.387 . S
C290 H294 0.950 . S
C290 C299 1.390 . S
C291 C290 1.387 . S
C291 C293 1.387 . S
H292 C299 0.950 . S
C293 C291 1.387 . S
C293 C295 1.390 . S
C293 H297 0.950 . S
H294 C290 0.950 . S
C295 C293 1.390 . S
C295 C296 1.387 . S
C295 H298 0.950 . S
C296 C295 1.387 . S
C296 C299 1.387 . S
H297 C293 0.950 . S
H298 C295 0.950 . S
C299 C290 1.390 . S
C299 H292 0.950 . S
C299 C296 1.387 . S
C300 C301 1.387 . S
C300 H304 0.950 . S
C300 C309 1.390 . S
C301 C300 1.387 . S
C301 C303 1.387 . S
H302 C309 0.950 . S
C303 C301 1.387 . S
C303 C305 1.390 . S
C303 H307 0.950 . S
H304 C300 0.950 . S
C305 C303 1.390 . S
C305 C306 1.387 . S
C305 H308 0.950 . S
C306 C305 1.387 . S
C306 C309 1.387 . S
H307 C303 0.950 . S
H308 C305 0.950 . S
C309 C300 1.390 . S
C309 H302 0.950 . S
C309 C306 1.387 . S
C310 C311 1.387 . S
C310 H314 0.950 . S
C310 C319 1.390 . S
C311 C310 1.387 . S
C311 C313 1.387 . S
H312 C319 0.950 . S
C313 C311 1.387 . S
C313 C315 1.390 . S
C313 H317 0.950 . S
H314 C310 0.950 . S
C315 C313 1.390 . S
C315 C316 1.387 . S
C315 H318 0.950 . S
C316 C315 1.387 . S
C316 C319 1.387 . S
H317 C313 0.950 . S
H318 C315 0.950 . S
C319 C310 1.390 . S
C319 H312 0.950 . S
C319 C316 1.387 . S
C320 C321 1.387 . S
C320 H324 0.950 . S
C320 C329 1.390 . S
C321 C320 1.387 . S
C321 C323 1.387 . S
H322 C329 0.950 . S
C323 C321 1.387 . S
C323 C325 1.390 . S
C323 H327 0.950 . S
H324 C320 0.950 . S
C325 C323 1.390 . S
C325 C326 1.387 . S
C325 H328 0.950 . S
C326 C325 1.387 . S
C326 C329 1.387 . S
H327 C323 0.950 . S
H328 C325 0.950 . S
C329 C320 1.390 . S
C329 H322 0.950 . S
C329 C326 1.387 . S
C330 C331 1.387 . S
C330 H334 0.950 . S
C330 C339 1.390 . S
C331 C330 1.387 . S
C331 C333 1.387 . S
H332 C339 0.950 . S
C333 C331 1.387 . S
C333 C335 1.390 . S
C333 H337 0.950 . S
H334 C330 0.950 . S
C335 C333 1.390 . S
C335 C336 1.387 . S
C335 H338 0.950 . S
C336 C335 1.387 . S
C336 C339 1.387 . S
H337 C333 0.950 . S
H338 C335 0.950 . S
C339 C330 1.390 . S
C339 H332 0.950 . S
C339 C336 1.387 . S
C340 C341 1.387 . S
C340 H344 0.950 . S
C340 C349 1.390 . S
C341 C340 1.387 . S
C341 C343 1.387 . S
H342 C349 0.950 . S
C343 C341 1.387 . S
C343 C345 1.390 . S
C343 H347 0.950 . S
H344 C340 0.950 . S
C345 C343 1.390 . S
C345 C346 1.387 . S
C345 H348 0.950 . S
C346 C345 1.387 . S
C346 C349 1.387 . S
H347 C343 0.950 . S
H348 C345 0.950 . S
C349 C340 1.390 . S
C349 H342 0.950 . S
C349 C346 1.387 . S
C350 C351 1.387 . S
C350 H354 0.950 . S
C350 C359 1.390 . S
C351 C350 1.387 . S
C351 C353 1.387 . S
H352 C359 0.950 . S
C353 C351 1.387 . S
C353 C355 1.390 . S
C353 H357 0.950 . S
H354 C350 0.950 . S
C355 C353 1.390 . S
C355 C356 1.387 . S
C355 H358 0.950 . S
C356 C355 1.387 . S
C356 C359 1.387 . S
H357 C353 0.950 . S
H358 C355 0.950 . S
C359 C350 1.390 . S
C359 H352 0.950 . S
C359 C356 1.387 . S
C360 C361 1.387 . S
C360 H364 0.950 . S
C360 C369 1.390 . S
C361 C360 1.387 . S
C361 C363 1.387 . S
H362 C369 0.950 . S
C363 C361 1.387 . S
C363 C365 1.390 . S
C363 H367 0.950 . S
H364 C360 0.950 . S
C365 C363 1.390 . S
C365 C366 1.387 . S
C365 H368 0.950 . S
C366 C365 1.387 . S
C366 C369 1.387 . S
H367 C363 0.950 . S
H368 C365 0.950 . S
C369 C360 1.390 . S
C369 H362 0.950 . S
C369 C366 1.387 . S
C370 C371 1.387 . S
C370 H374 0.950 . S
C370 C379 1.390 . S
C371 C370 1.387 . S
C371 C373 1.387 . S
H372 C379 0.950 . S
C373 C371 1.387 . S
C373 C375 1.390 . S
C373 H377 0.950 . S
H374 C370 0.950 . S
C375 C373 1.390 . S
C375 C376 1.387 . S
C375 H378 0.950 . S
C376 C375 1.387 . S
C376 C379 1.387 . S
H377 C373 0.950 . S
H378 C375 0.950 . S
C379 C370 1.390 . S
C379 H372 0.950 . S
C379 C376 1.387 . S
C380 C381 1.387 . S
C380 H384 0.950 . S
C380 C389 1.390 . S
C381 C380 1.387 . S
C381 C383 1.387 . S
H382 C389 0.950 . S
C383 C381 1.387 . S
C383 C385 1.390 . S
C383 H387 0.950 . S
H384 C380 0.950 . S
C385 C383 1.390 . S
C385 C386 1.387 . S
C385 H388 0.950 . S
C386 C385 1.387 . S
C386 C389 1.387 . S
H387 C383 0.950 . S
H388 C385 0.950 . S
C389 C380 1.390 . S
C389 H382 0.950 . S
C389 C386 1.387 . S
C390 C391 1.387 . S
C390 H394 0.950 . S
C390 C399 1.390 . S
C391 C390 1.387 . S
C391 C393 1.387 . S
H392 C399 0.950 . S
C393 C391 1.387 . S
C393 C395 1.390 . S
C393 H397 0.950 . S
H394 C390 0.950 . S
C395 C393 1.390 . S
C395 C396 1.387 . S
C395 H398 0.950 . S
C396 C395 1.387 . S
C396 C399 1.387 . S
H397 C393 0.950 . S
H398 C395 0.950 . S
C399 C390 1.390 . S
C399 H392 0.950 . S
C399 C396 1.387 . S
C400 C401 1.387 . S
C400 H404 0.950 . S
C400 C409 1.390 . S
C401 C400 1.387 . S
C401 C403 1.387 1_554 S
H402 C409 0.950 . S
C403 C401 1.387 1_556 S
C403 C405 1.390 . S
C403 H407 0.950 . S
H404 C400 0.950 . S
C405 C403 1.390 . S
C405 C406 1.387 1_556 S
C405 H408 0.950 . S
C406 C405 1.387 1_554 S
C406 C409 1.387 . S
H407 C403 0.950 . S
H408 C405 0.950 . S
C409 C400 1.390 . S
C409 H402 0.950 . S
C409 C406 1.387 . S
C410 C411 1.387 . S
C410 H414 0.950 . S
C410 C419 1.390 . S
C411 C410 1.387 . S
C411 C413 1.387 . S
H412 C419 0.950 . S
C413 C411 1.387 . S
C413 C415 1.390 . S
C413 H417 0.950 . S
H414 C410 0.950 . S
C415 C413 1.390 . S
C415 C416 1.387 . S
C415 H418 0.950 . S
C416 C415 1.387 . S
C416 C419 1.387 . S
H417 C413 0.950 . S
H418 C415 0.950 . S
C419 C410 1.390 . S
C419 H412 0.950 . S
C419 C416 1.387 . S
C420 C421 1.387 . S
C420 H424 0.950 . S
C420 C429 1.390 . S
C421 C420 1.387 . S
C421 C423 1.387 1_554 S
H422 C429 0.950 . S
C423 C421 1.387 1_556 S
C423 C425 1.390 . S
C423 H427 0.950 . S
H424 C420 0.950 . S
C425 C423 1.390 . S
C425 C426 1.387 1_556 S
C425 H428 0.950 . S
C426 C425 1.387 1_554 S
C426 C429 1.387 . S
H427 C423 0.950 . S
H428 C425 0.950 . S
C429 C420 1.390 . S
C429 H422 0.950 . S
C429 C426 1.387 . S
C430 C431 1.387 . S
C430 H434 0.950 . S
C430 C439 1.390 . S
C431 C430 1.387 . S
C431 C433 1.387 . S
H432 C439 0.950 . S
C433 C431 1.387 . S
C433 C435 1.390 . S
C433 H437 0.950 . S
H434 C430 0.950 . S
C435 C433 1.390 . S
C435 C436 1.387 . S
C435 H438 0.950 . S
C436 C435 1.387 . S
C436 C439 1.387 . S
H437 C433 0.950 . S
H438 C435 0.950 . S
C439 C430 1.390 . S
C439 H432 0.950 . S
C439 C436 1.387 . S
C440 C441 1.387 . S
C440 H444 0.950 . S
C440 C449 1.390 . S
C441 C440 1.387 . S
C441 C443 1.387 . S
H442 C449 0.950 . S
C443 C441 1.387 . S
C443 C445 1.390 . S
C443 H447 0.950 . S
H444 C440 0.950 . S
C445 C443 1.390 . S
C445 C446 1.387 . S
C445 H448 0.950 . S
C446 C445 1.387 . S
C446 C449 1.387 . S
H447 C443 0.950 . S
H448 C445 0.950 . S
C449 C440 1.390 . S
C449 H442 0.950 . S
C449 C446 1.387 . S
C450 C451 1.387 . S
C450 H454 0.950 . S
C450 C459 1.390 . S
C451 C450 1.387 . S
C451 C453 1.387 1_554 S
H452 C459 0.950 . S
C453 C451 1.387 1_556 S
C453 C455 1.390 . S
C453 H457 0.950 . S
H454 C450 0.950 . S
C455 C453 1.390 . S
C455 C456 1.387 1_556 S
C455 H458 0.950 . S
C456 C455 1.387 1_554 S
C456 C459 1.387 . S
H457 C453 0.950 . S
H458 C455 0.950 . S
C459 C450 1.390 . S
C459 H452 0.950 . S
C459 C456 1.387 . S
C460 C461 1.387 . S
C460 H464 0.950 . S
C460 C469 1.390 . S
C461 C460 1.387 . S
C461 C463 1.387 . S
H462 C469 0.950 . S
C463 C461 1.387 . S
C463 C465 1.390 . S
C463 H467 0.950 . S
H464 C460 0.950 . S
C465 C463 1.390 . S
C465 C466 1.387 . S
C465 H468 0.950 . S
C466 C465 1.387 . S
C466 C469 1.387 . S
H467 C463 0.950 . S
H468 C465 0.950 . S
C469 C460 1.390 . S
C469 H462 0.950 . S
C469 C466 1.387 . S
C470 C471 1.387 1_556 S
C470 H474 0.950 . S
C470 C479 1.390 . S
C471 C470 1.387 1_554 S
C471 C473 1.387 . S
H472 C479 0.950 . S
C473 C471 1.387 . S
C473 C475 1.390 . S
C473 H477 0.950 . S
H474 C470 0.950 . S
C475 C473 1.390 . S
C475 C476 1.387 . S
C475 H478 0.950 . S
C476 C475 1.387 . S
C476 C479 1.387 1_554 S
H477 C473 0.950 . S
H478 C475 0.950 . S
C479 C470 1.390 . S
C479 H472 0.950 . S
C479 C476 1.387 1_556 S
C241 C5 1.473 . S
C246 C151 1.484 . S
C251 C31 1.503 . S
C256 C94 1.503 . S
C266 C109 1.497 . S
C261 C53 1.542 . S
C271 C71 1.512 . S
C276 C128 1.474 . S
C286 C185 1.474 . S
C281 C75 1.512 . S
C296 C204 1.497 . S
C291 C9 1.542 . S
C306 C227 1.503 . S
C301 C27 1.503 . S
C316 C170 1.484 . S
C311 C49 1.472 . S
C321 C51 1.474 . S
C326 C113 1.486 . S
C331 C72 1.503 . S
C336 C132 1.507 . S
C341 C6 1.542 . S
C346 C147 1.495 . S
C356 C90 1.473 . S
C351 C29 1.512 . S
C361 C28 1.512 . S
C366 C223 1.473 . S
C376 C166 1.494 . S
C371 C50 1.543 . S
C386 C189 1.506 . S
C381 C73 1.503 . S
C391 C7 1.473 . S
C396 C208 1.486 . S
C406 C99 1.363 1_554 S
C401 C4 1.516 . S
C416 C118 1.431 . S
C411 C30 1.515 . S
C421 C52 1.517 . S
C426 C137 1.430 . S
C431 C70 1.515 . S
C436 C156 1.366 . S
C446 C175 1.367 . S
C441 C74 1.515 . S
C451 C8 1.516 . S
C456 C194 1.426 1_554 S
C461 C26 1.514 . S
C466 C213 1.429 . S
C471 C48 1.516 . S
C476 C232 1.363 . S
