# Generated by pormake.
# Topology anh, (6,3)-cn, num edge types: 1
# Building blocks:
#     Node 0, Type 0, BuildingBlock: INOVEN_clean_sbu_0, # of connection points: 6
#     Node 1, Type 0, BuildingBlock: INOVEN_clean_sbu_0, # of connection points: 6
#     Node 2, Type 0, BuildingBlock: INOVEN_clean_sbu_0, # of connection points: 6
#     Node 3, Type 1, BuildingBlock: BETDIP_clean_linker_0, # of connection points: 3
#     Node 4, Type 1, BuildingBlock: BETDIP_clean_linker_0, # of connection points: 3
#     Node 5, Type 1, BuildingBlock: BETDIP_clean_linker_0, # of connection points: 3
#     Node 6, Type 1, BuildingBlock: BETDIP_clean_linker_0, # of connection points: 3
#     Node 7, Type 1, BuildingBlock: BETDIP_clean_linker_0, # of connection points: 3
#     Node 8, Type 1, BuildingBlock: BETDIP_clean_linker_0, # of connection points: 3
#     Edge 9, Type (0, 1), BuildingBlock: UVAHIK_clean_linker_0, # of connection points: 2
#     Edge 10, Type (0, 1), BuildingBlock: UVAHIK_clean_linker_0, # of connection points: 2
#     Edge 11, Type (0, 1), BuildingBlock: UVAHIK_clean_linker_0, # of connection points: 2
#     Edge 12, Type (0, 1), BuildingBlock: UVAHIK_clean_linker_0, # of connection points: 2
#     Edge 13, Type (0, 1), BuildingBlock: UVAHIK_clean_linker_0, # of connection points: 2
#     Edge 14, Type (0, 1), BuildingBlock: UVAHIK_clean_linker_0, # of connection points: 2
#     Edge 15, Type (0, 1), BuildingBlock: UVAHIK_clean_linker_0, # of connection points: 2
#     Edge 16, Type (0, 1), BuildingBlock: UVAHIK_clean_linker_0, # of connection points: 2
#     Edge 17, Type (0, 1), BuildingBlock: UVAHIK_clean_linker_0, # of connection points: 2
#     Edge 18, Type (0, 1), BuildingBlock: UVAHIK_clean_linker_0, # of connection points: 2
#     Edge 19, Type (0, 1), BuildingBlock: UVAHIK_clean_linker_0, # of connection points: 2
#     Edge 20, Type (0, 1), BuildingBlock: UVAHIK_clean_linker_0, # of connection points: 2
#     Edge 21, Type (0, 1), BuildingBlock: UVAHIK_clean_linker_0, # of connection points: 2
#     Edge 22, Type (0, 1), BuildingBlock: UVAHIK_clean_linker_0, # of connection points: 2
#     Edge 23, Type (0, 1), BuildingBlock: UVAHIK_clean_linker_0, # of connection points: 2
#     Edge 24, Type (0, 1), BuildingBlock: UVAHIK_clean_linker_0, # of connection points: 2
#     Edge 25, Type (0, 1), BuildingBlock: UVAHIK_clean_linker_0, # of connection points: 2
#     Edge 26, Type (0, 1), BuildingBlock: UVAHIK_clean_linker_0, # of connection points: 2
# Relax obj value: 0.123
# Max RMSD: 0.168
# Mean RMSD: 0.120
data_MOF--net-anh--node1-INOVEN_clean_sbu_0--node2-BETDIP_clean_linker_0--edge1-UVAHIK_clean_linker_0
_symmetry_space_group_name_H-M    P1
_symmetry_Int_Tables_number       1
_symmetry_cell_setting            triclinic
loop_
_symmetry_equiv_pos_as_xyz
'x, y, z'
_cell_length_a     39.910991
_cell_length_b     46.927012
_cell_length_c     63.830914
_cell_angle_alpha  96.386837
_cell_angle_beta   88.981407
_cell_angle_gamma 127.73649
loop_
_atom_site_label
_atom_site_type_symbol
_atom_site_fract_x
_atom_site_fract_y
_atom_site_fract_z
_atom_type_partial_charge
Gd0 Gd 0.11402 0.53008 0.14508 0.0
Gd1 Gd 0.06978 0.5583 0.16678 0.0
C2 C 0.16475 0.61842 0.15738 0.0
C3 C 0.16252 0.52354 0.12166 0.0
C4 C 0.20871 0.5452 0.12474 0.0
C5 C 0.22885 0.56652 0.14424 0.0
C6 C 0.2329 0.54488 0.10869 0.0
C7 C 0.29659 0.58463 0.13235 0.0
C8 C 0.27676 0.56465 0.11246 0.0
C9 C 0.27239 0.5859 0.14807 0.0
C10 C 0.11777 0.53479 0.18749 0.0
C11 C 1.01852 0.47062 0.15409 0.0
C12 C 1.0239 0.56515 0.19238 0.0
C13 C 0.97982 0.53837 0.19789 0.0
C14 C 0.94717 0.51571 0.18201 0.0
C15 C 0.97067 0.53328 0.2191 0.0
C16 C 0.89642 0.48375 0.20846 0.0
C17 C 0.92934 0.50617 0.22436 0.0
C18 C 0.90597 0.48895 0.18723 0.0
C19 C 0.06709 0.5536 0.12424 0.0
O20 O 0.16212 0.59163 0.14597 0.0
O21 O 0.13401 0.61202 0.1693 0.0
O22 O 0.14132 0.50274 0.13637 0.0
O23 O 0.14904 0.54149 0.11683 0.0
O24 O 0.11542 0.5097 0.17516 0.0
O25 O 0.12133 0.55749 0.17691 0.0
O26 O 1.0232 0.49726 0.16684 0.0
O27 O 1.04779 0.47733 0.14087 0.0
O28 O 1.02936 0.57406 0.17318 0.0
O29 O 1.0505 0.55979 0.19854 0.0
O30 O 0.07024 0.57937 0.1364 0.0
O31 O 0.06269 0.53082 0.13503 0.0
H32 H 0.21065 0.56747 0.15672 0.0
H33 H 0.21781 0.52882 0.0935 0.0
H34 H 0.29484 0.56307 0.10018 0.0
H35 H 0.28705 0.60124 0.16347 0.0
H36 H 0.95336 0.51853 0.16548 0.0
H37 H 0.99561 0.55006 0.23157 0.0
H38 H 0.92324 0.50277 0.24084 0.0
H39 H 0.88143 0.4729 0.17454 0.0
Gd40 Gd 0.61985 0.03934 0.48801 0.0
Gd41 Gd 0.56171 0.05656 0.47547 0.0
C42 C 0.51772 0.97398 0.47769 0.0
C43 C 0.65295 0.01444 0.50609 0.0
C44 C 0.64114 0.97841 0.50831 0.0
C45 C 0.62378 0.95091 0.49104 0.0
C46 C 0.64732 0.97138 0.52808 0.0
C47 C 0.61997 0.91016 0.51327 0.0
C48 C 0.63673 0.93756 0.53057 0.0
C49 C 0.61354 0.91717 0.49348 0.0
C50 C 0.6137 0.04147 0.44639 0.0
C51 C 0.66432 0.12195 0.48418 0.0
C52 C 0.52828 0.08277 0.45937 0.0
C53 C 0.53815 0.11876 0.46254 0.0
C54 C 0.56523 0.14416 0.47972 0.0
C55 C 0.5204 0.12789 0.44856 0.0
C56 C 0.55568 0.18733 0.46934 0.0
C57 C 0.52911 0.1619 0.4519 0.0
C58 C 0.57378 0.17802 0.48315 0.0
C59 C 0.56982 0.05542 0.51718 0.0
O60 O 0.55341 0.98564 0.48797 0.0
O61 O 0.51526 0.99615 0.468 0.0
O62 O 0.66187 0.02477 0.48724 0.0
O63 O 0.63027 0.02259 0.51597 0.0
O64 O 0.64821 0.05201 0.45646 0.0
O65 O 0.58333 0.02789 0.45836 0.0
O66 O 0.62752 0.11004 0.47518 0.0
O67 O 0.66843 0.10015 0.49324 0.0
O68 O 0.51384 0.06462 0.47565 0.0
O69 O 0.55681 0.0813 0.45013 0.0
O70 O 0.53449 0.04361 0.50748 0.0
O71 O 0.59916 0.06888 0.50472 0.0
H72 H 0.61819 0.95548 0.47566 0.0
H73 H 0.66056 0.99217 0.54161 0.0
H74 H 0.64237 0.93308 0.54597 0.0
H75 H 0.6002 0.89643 0.47993 0.0
H76 H 0.57935 0.13759 0.49067 0.0
H77 H 0.49965 0.10867 0.43512 0.0
H78 H 0.51514 0.1683 0.44076 0.0
H79 H 0.59383 0.19655 0.49692 0.0
Gd80 Gd 0.62946 0.55554 0.8374 0.0
Gd81 Gd 0.5711 0.47751 0.84566 0.0
C82 C 0.52772 0.51636 0.84427 0.0
C83 C 0.66344 0.6164 0.8227 0.0
C84 C 0.65199 0.64027 0.81969 0.0
C85 C 0.63548 0.65032 0.83592 0.0
C86 C 0.65778 0.6533 0.80017 0.0
C87 C 0.63154 0.68669 0.81317 0.0
C88 C 0.64754 0.67618 0.7969 0.0
C89 C 0.62559 0.6735 0.83272 0.0
C90 C 0.6276 0.54515 0.8781 0.0
C91 C 0.67349 0.51728 0.83947 0.0
C92 C 0.53808 0.41605 0.85936 0.0
C93 C 0.5479 0.3904 0.85662 0.0
C94 C 0.57373 0.39277 0.84062 0.0
C95 C 0.53141 0.36332 0.86989 0.0
C96 C 0.56548 0.34029 0.85072 0.0
C97 C 0.54014 0.33847 0.867 0.0
C98 C 0.58232 0.36791 0.83764 0.0
C99 C 0.57421 0.48767 0.80475 0.0
O100 O 0.56354 0.54232 0.83622 0.0
O101 O 0.52474 0.48983 0.85201 0.0
O102 O 0.67078 0.61428 0.84216 0.0
O103 O 0.64172 0.58499 0.81076 0.0
O104 O 0.66201 0.56959 0.86955 0.0
O105 O 0.59586 0.52871 0.86513 0.0
O106 O 0.63694 0.49037 0.84652 0.0
O107 O 0.67716 0.54456 0.83243 0.0
O108 O 0.52339 0.41912 0.8423 0.0
O109 O 0.5667 0.44744 0.87046 0.0
O110 O 0.53975 0.46281 0.81303 0.0
O111 O 0.60535 0.50429 0.81806 0.0
H112 H 0.63026 0.64034 0.85108 0.0
H113 H 0.67043 0.64587 0.78744 0.0
H114 H 0.65283 0.68616 0.78174 0.0
H115 H 0.61286 0.68081 0.84546 0.0
H116 H 0.58685 0.4136 0.83023 0.0
H117 H 0.51166 0.36129 0.88243 0.0
H118 H 0.52717 0.31795 0.87756 0.0
H119 H 0.60139 0.3699 0.82476 0.0
H120 H 0.55718 0.01537 0.15973 0.0
H121 H 0.62634 0.08179 0.21831 0.0
H122 H 0.5173 0.97036 0.21856 0.0
H123 H 0.61831 0.12031 0.19782 0.0
C124 C 0.63575 0.11813 0.18529 0.0
C125 C 0.56174 0.01833 0.17675 0.0
C126 C 0.53326 0.98883 0.18793 0.0
C127 C 0.59463 0.05234 0.18775 0.0
C128 C 0.60017 0.056 0.20987 0.0
C129 C 0.57288 0.0264 0.22107 0.0
C130 C 0.53931 0.99312 0.20997 0.0
N131 N 0.62179 0.08291 0.17665 0.0
H132 H 0.57874 0.52097 0.52277 0.0
H133 H 0.57503 0.56554 0.58474 0.0
H134 H 0.60036 0.48852 0.57832 0.0
H135 H 0.5272 0.56726 0.56608 0.0
C136 C 0.54624 0.57992 0.55284 0.0
C137 C 0.58148 0.52278 0.53981 0.0
C138 C 0.59064 0.50219 0.54902 0.0
C139 C 0.57545 0.54552 0.55254 0.0
C140 C 0.57875 0.54761 0.57467 0.0
C141 C 0.588 0.5273 0.58402 0.0
C142 C 0.59435 0.50499 0.57112 0.0
N143 N 0.56741 0.56687 0.54284 0.0
H144 H 0.07163 0.51985 0.83563 0.0
H145 H 0.12594 0.52271 0.89453 0.0
H146 H 1.02072 0.52567 0.89472 0.0
H147 H 0.18802 0.56432 0.87551 0.0
C148 C 0.17867 0.5427 0.86289 0.0
C149 C 0.0719 0.52077 0.85265 0.0
C150 C 1.04168 0.52241 0.86391 0.0
C151 C 0.10377 0.52207 0.86377 0.0
C152 C 0.10322 0.52322 0.8859 0.0
C153 C 0.0733 0.52421 0.89708 0.0
C154 C 1.04317 0.52402 0.88599 0.0
N155 N 0.13631 0.5223 0.85318 0.0
H156 H 0.11816 0.5801 0.4753 0.0
H157 H 1.05441 0.50779 0.41754 0.0
H158 H 0.167 0.61705 0.41533 0.0
H159 H 0.99693 0.5004 0.44062 0.0
C160 C 1.00659 0.49093 0.45218 0.0
C161 C 0.11635 0.57485 0.45824 0.0
C162 C 0.14655 0.60274 0.44647 0.0
C163 C 0.08227 0.54079 0.44779 0.0
C164 C 0.07991 0.5343 0.4256 0.0
C165 C 0.11082 0.56143 0.41382 0.0
C166 C 0.14368 0.5956 0.42438 0.0
N167 N 1.05013 0.51322 0.45951 0.0
H168 H 0.58761 0.0303 0.7988 0.0
H169 H 0.58268 0.98138 0.73649 0.0
H170 H 0.60805 0.085 0.74457 0.0
H171 H 0.53647 0.92951 0.7523 0.0
C172 C 0.55566 0.93724 0.76677 0.0
C173 C 0.58992 0.0312 0.78191 0.0
C174 C 0.59884 0.06132 0.77328 0.0
C175 C 0.58373 1.00205 0.76879 0.0
C176 C 0.58651 0.00323 0.74683 0.0
C177 C 0.59558 0.0332 0.73808 0.0
C178 C 0.60212 0.06225 0.75139 0.0
N179 N 0.57627 0.97253 0.77803 0.0
H180 H 0.56257 0.49902 0.15499 0.0
H181 H 0.58918 0.45342 0.10129 0.0
H182 H 0.58742 0.54284 0.09603 0.0
H183 H 0.56175 0.40629 0.11923 0.0
C184 C 0.56546 0.41622 0.13586 0.0
C185 C 0.56984 0.49888 0.13856 0.0
C186 C 0.57559 0.52494 0.12678 0.0
C187 C 0.57331 0.47234 0.12942 0.0
C188 C 0.58443 0.47265 0.10831 0.0
C189 C 0.59066 0.49875 0.09629 0.0
C190 C 0.58533 0.5242 0.1056 0.0
N191 N 0.56723 0.44705 0.14244 0.0
C192 C 0.37334 0.62302 0.12432 0.0
C193 C 0.34125 0.60062 0.13752 0.0
C194 C 0.41448 0.63429 0.12811 0.0
C195 C 0.48075 0.62731 0.16554 0.0
H196 H 0.52203 0.61286 0.11318 0.0
C197 C 0.53535 0.5406 0.14924 0.0
C198 C 0.56859 0.55138 0.13589 0.0
C199 C 0.52373 0.56297 0.15465 0.0
C200 C 0.51177 0.61795 0.12799 0.0
H201 H 0.3269 0.57357 0.16541 0.0
H202 H 0.3973 0.59123 0.17141 0.0
H203 H 0.46966 0.62305 0.1121 0.0
H204 H 0.61881 0.596 0.11981 0.0
H205 H 0.59672 0.6341 0.12835 0.0
H206 H 0.51983 0.61784 0.18101 0.0
C207 C 0.39196 0.60161 0.15862 0.0
C208 C 0.48166 0.62394 0.12742 0.0
C209 C 0.35126 0.59108 0.15509 0.0
C210 C 0.59218 0.58635 0.12957 0.0
C211 C 0.58 0.60842 0.13466 0.0
C212 C 0.51016 0.6204 0.16603 0.0
C213 C 0.42389 0.62248 0.14482 0.0
C214 C 0.46401 0.62672 0.14609 0.0
C215 C 0.54471 0.59629 0.14659 0.0
C216 C 0.52435 0.61403 0.14715 0.0
H217 H 0.36635 0.63109 0.11082 0.0
H218 H 0.4384 0.65106 0.11743 0.0
H219 H 0.46908 0.63064 0.18031 0.0
H220 H 0.51624 0.51385 0.15431 0.0
H221 H 0.49602 0.55281 0.16367 0.0
C222 C 0.74213 0.17488 0.49177 0.0
C223 C 0.70139 0.16068 0.48367 0.0
C224 C 0.77712 0.21096 0.48997 0.0
C225 C 0.81239 0.28363 0.45713 0.0
H226 H 0.89751 0.34901 0.50274 0.0
C227 C 0.93157 0.43592 0.45154 0.0
C228 C 0.97401 0.45451 0.45866 0.0
C229 C 0.90015 0.40051 0.45583 0.0
C230 C 0.8743 0.33096 0.48976 0.0
H231 H 0.66552 0.17393 0.46796 0.0
H232 H 0.72603 0.23623 0.4649 0.0
H233 H 0.83936 0.28617 0.50802 0.0
H234 H 1.01687 0.45088 0.47632 0.0
H235 H 0.96176 0.38843 0.48371 0.0
H236 H 0.84694 0.32784 0.43878 0.0
C237 C 0.7312 0.21946 0.47236 0.0
C238 C 0.84097 0.29497 0.4928 0.0
C239 C 0.69637 0.18365 0.47422 0.0
C240 C 0.98435 0.43723 0.47068 0.0
C241 C 0.95274 0.4015 0.47495 0.0
C242 C 0.84561 0.31935 0.45407 0.0
C243 C 0.77212 0.23346 0.47991 0.0
C244 C 0.80921 0.27108 0.47661 0.0
C245 C 0.91032 0.38248 0.46725 0.0
C246 C 0.87663 0.34376 0.47043 0.0
H247 H 0.74715 0.15799 0.49917 0.0
H248 H 0.80826 0.2209 0.4959 0.0
H249 H 0.78908 0.26573 0.44414 0.0
H250 H 0.92266 0.44866 0.44234 0.0
H251 H 0.86776 0.38717 0.45008 0.0
C252 C 0.63459 0.74122 0.82493 0.0
C253 C 0.6215 0.7116 0.80972 0.0
C254 C 0.62672 0.76554 0.82121 0.0
C255 C 0.60147 0.79662 0.77737 0.0
H256 H 0.57229 0.8392 0.82235 0.0
C257 C 0.54345 0.87824 0.76059 0.0
C258 C 0.5614 0.91122 0.7735 0.0
C259 C 0.55022 0.85395 0.76583 0.0
C260 C 0.58077 0.82775 0.80968 0.0
H261 H 0.58848 0.68346 0.77908 0.0
H262 H 0.57399 0.72532 0.77274 0.0
H263 H 0.58451 0.7962 0.82993 0.0
H264 H 0.5998 0.94443 0.80233 0.0
H265 H 0.61154 0.90175 0.81158 0.0
H266 H 0.59726 0.82781 0.75709 0.0
C267 C 0.59141 0.73048 0.7873 0.0
C268 C 0.58785 0.80315 0.81401 0.0
C269 C 0.59958 0.70637 0.79094 0.0
C270 C 0.58555 0.91918 0.79207 0.0
C271 C 0.59212 0.89469 0.7974 0.0
C272 C 0.59413 0.82096 0.77303 0.0
C273 C 0.60531 0.76064 0.80226 0.0
C274 C 0.59811 0.78713 0.79787 0.0
C275 C 0.57496 0.86201 0.78418 0.0
C276 C 0.58349 0.83668 0.78909 0.0
H277 H 0.65194 0.74614 0.83947 0.0
H278 H 0.63837 0.78867 0.83299 0.0
H279 H 0.61028 0.78556 0.76464 0.0
H280 H 0.52461 0.87143 0.74622 0.0
H281 H 0.53604 0.82877 0.75548 0.0
C282 C 0.83529 0.46588 0.23072 0.0
C283 C 0.85156 0.4571 0.21369 0.0
C284 C 0.79147 0.4456 0.2323 0.0
C285 C 0.68657 0.36971 0.2028 0.0
H286 H 0.67211 0.44459 0.20947 0.0
C287 C 0.59099 0.38185 0.14477 0.0
C288 C 0.57627 0.40165 0.1515 0.0
C289 C 0.60984 0.37473 0.15941 0.0
C290 C 0.67472 0.42281 0.20801 0.0
H291 H 0.83485 0.41651 0.18716 0.0
H292 H 0.75907 0.38305 0.18886 0.0
H293 H 0.73525 0.45731 0.22457 0.0
H294 H 0.5644 0.42539 0.17891 0.0
H295 H 0.59675 0.41255 0.20446 0.0
H296 H 0.6271 0.33649 0.18442 0.0
C297 C 0.77955 0.40523 0.2012 0.0
C298 C 0.71128 0.43011 0.21682 0.0
C299 C 0.82329 0.42496 0.19994 0.0
C300 C 0.57645 0.4108 0.17324 0.0
C301 C 0.59488 0.40337 0.18788 0.0
C302 C 0.65002 0.36252 0.19375 0.0
C303 C 0.7631 0.41679 0.21656 0.0
C304 C 0.71894 0.40446 0.21329 0.0
C305 C 0.61391 0.38709 0.18103 0.0
C306 C 0.6449 0.38976 0.19533 0.0
H307 H 0.85605 0.49012 0.24184 0.0
H308 H 0.77997 0.45444 0.24486 0.0
H309 H 0.69072 0.34886 0.20031 0.0
H310 H 0.59084 0.37429 0.12808 0.0
H311 H 0.62438 0.36232 0.15355 0.0
C312 C 0.44109 0.92277 0.46702 0.0
C313 C 0.47972 0.93533 0.4771 0.0
C314 C 0.40486 0.88676 0.46703 0.0
C315 C 0.36934 0.79487 0.47371 0.0
H316 H 0.26011 0.77484 0.47962 0.0
C317 C 0.21269 0.64758 0.47025 0.0
C318 C 0.18045 0.64018 0.45651 0.0
C319 C 0.24856 0.6836 0.47647 0.0
C320 C 0.29034 0.77993 0.4779 0.0
H321 H 0.51043 0.91949 0.49499 0.0
H322 H 0.44708 0.85664 0.49503 0.0
H323 H 0.32456 0.83755 0.48262 0.0
H324 H 0.15918 0.66425 0.43931 0.0
H325 H 0.22107 0.72674 0.45023 0.0
H326 H 0.33489 0.73714 0.46858 0.0
C327 C 0.44494 0.87467 0.487 0.0
C328 C 0.32732 0.81592 0.47955 0.0
C329 C 0.48125 0.91079 0.48703 0.0
C330 C 0.18357 0.6693 0.45 0.0
C331 C 0.21901 0.70511 0.45633 0.0
C332 C 0.33227 0.7588 0.47207 0.0
C333 C 0.40618 0.86225 0.47711 0.0
C334 C 0.36725 0.82389 0.47704 0.0
C335 C 0.25248 0.71277 0.46923 0.0
C336 C 0.29222 0.75089 0.47371 0.0
H337 H 0.43867 0.9408 0.45916 0.0
H338 H 0.37581 0.87803 0.45891 0.0
H339 H 0.39947 0.79996 0.47154 0.0
H340 H 0.21112 0.62553 0.47531 0.0
H341 H 0.27361 0.68859 0.48657 0.0
C342 C 0.61293 0.32331 0.84041 0.0
C343 C 0.57344 0.31302 0.84693 0.0
C344 C 0.61943 0.29733 0.83534 0.0
C345 C 0.57875 0.20415 0.84185 0.0
H346 H 0.62754 0.20762 0.78825 0.0
C347 C 0.56974 0.08354 0.79956 0.0
C348 C 0.60242 0.09113 0.78661 0.0
C349 C 0.56982 0.11173 0.80949 0.0
C350 C 0.61468 0.20654 0.80348 0.0
H351 H 0.51012 0.26716 0.85367 0.0
H352 H 0.52182 0.222 0.84518 0.0
H353 H 0.62123 0.25479 0.80098 0.0
H354 H 0.66219 0.13403 0.77499 0.0
H355 H 0.66335 0.18333 0.79291 0.0
H356 H 0.57226 0.15587 0.84438 0.0
C357 C 0.54776 0.25026 0.84407 0.0
C358 C 0.61092 0.2336 0.81073 0.0
C359 C 0.54111 0.27621 0.84897 0.0
C360 C 0.63639 0.12747 0.78474 0.0
C361 C 0.6368 0.15565 0.79487 0.0
C362 C 0.58291 0.1772 0.83469 0.0
C363 C 0.58675 0.26047 0.83686 0.0
C364 C 0.5926 0.23257 0.82989 0.0
C365 C 0.60286 0.14814 0.80685 0.0
C366 C 0.60062 0.17786 0.8153 0.0
H367 H 0.63888 0.35148 0.83909 0.0
H368 H 0.65004 0.30609 0.83013 0.0
H369 H 0.56485 0.20285 0.85678 0.0
H370 H 0.54297 0.0557 0.80109 0.0
H371 H 0.54292 0.10476 0.8184 0.0
C372 C 0.58833 0.85682 0.53338 0.0
C373 C 0.60975 0.87457 0.51589 0.0
C374 C 0.58001 0.82399 0.5363 0.0
C375 C 0.57543 0.74733 0.5087 0.0
H376 H 0.58636 0.73237 0.56594 0.0
C377 C 0.5751 0.6294 0.52955 0.0
C378 C 0.55136 0.61179 0.54663 0.0
C379 C 0.58112 0.66065 0.5248 0.0
C380 C 0.5828 0.73598 0.54988 0.0
H381 H 0.63912 0.87176 0.48768 0.0
H382 H 0.62535 0.81478 0.49294 0.0
H383 H 0.59901 0.7883 0.55959 0.0
H384 H 0.51471 0.61242 0.57183 0.0
H385 H 0.52524 0.66687 0.56362 0.0
H386 H 0.55991 0.69501 0.49908 0.0
C387 C 0.61417 0.8258 0.50421 0.0
C388 C 0.58992 0.76803 0.54622 0.0
C389 C 0.62217 0.85851 0.50121 0.0
C390 C 0.53324 0.62556 0.55862 0.0
C391 C 0.53948 0.65683 0.55399 0.0
C392 C 0.56861 0.71531 0.51237 0.0
C393 C 0.59327 0.80823 0.5219 0.0
C394 C 0.58605 0.77408 0.52561 0.0
C395 C 0.56383 0.67497 0.53717 0.0
C396 C 0.57192 0.70919 0.53302 0.0
H397 H 0.57775 0.86823 0.54478 0.0
H398 H 0.56299 0.8109 0.54984 0.0
H399 H 0.57167 0.75082 0.49265 0.0
H400 H 0.58945 0.61939 0.52002 0.0
H401 H 0.60023 0.67416 0.51181 0.0
C402 C 0.74874 0.54272 0.83006 0.0
C403 C 0.71111 0.51675 0.83944 0.0
C404 C 0.78418 0.54279 0.83037 0.0
C405 C 0.81911 0.48616 0.84199 0.0
H406 H 0.93131 0.57788 0.84212 0.0
C407 C 0.97191 0.49345 0.84268 0.0
C408 C 1.00879 0.52415 0.85413 0.0
C409 C 0.93631 0.49242 0.83865 0.0
C410 C 0.90044 0.55187 0.8423 0.0
H411 H 0.68221 0.4702 0.85654 0.0
H412 H 0.74374 0.47081 0.8576 0.0
H413 H 0.86948 0.57618 0.84086 0.0
H414 H 1.03663 0.57794 0.87005 0.0
H415 H 0.97586 0.57643 0.86322 0.0
H416 H 0.85042 0.46217 0.84437 0.0
C417 C 0.7459 0.49091 0.84952 0.0
C418 C 0.86436 0.55078 0.84121 0.0
C419 C 0.7103 0.49068 0.84905 0.0
C420 C 1.00935 0.55414 0.86072 0.0
C421 C 0.97399 0.55314 0.85679 0.0
C422 C 0.8553 0.48729 0.84322 0.0
C423 C 0.78383 0.51708 0.84025 0.0
C424 C 0.82275 0.51795 0.8411 0.0
C425 C 0.93619 0.52199 0.84607 0.0
C426 C 0.8969 0.52024 0.84355 0.0
H427 H 0.75092 0.56317 0.82235 0.0
H428 H 0.81181 0.56305 0.82257 0.0
H429 H 0.78815 0.46005 0.84163 0.0
H430 H 0.9697 0.46947 0.83779 0.0
H431 H 0.90851 0.46799 0.83006 0.0
C432 C 0.23871 0.66431 0.14619 0.0
C433 C 0.20336 0.65651 0.15691 0.0
C434 C 0.27486 0.70034 0.14567 0.0
C435 C 0.31055 0.79496 0.15307 0.0
H436 H 0.42246 0.82184 0.1638 0.0
C437 C 0.4551 0.94037 0.18368 0.0
C438 C 0.49564 0.95356 0.17736 0.0
C439 C 0.41979 0.90471 0.17691 0.0
C440 C 0.39153 0.81475 0.16036 0.0
H441 H 0.17853 0.68066 0.1755 0.0
H442 H 0.24135 0.74312 0.1747 0.0
H443 H 0.36023 0.75797 0.1607 0.0
H444 H 0.53108 0.94039 0.15849 0.0
H445 H 0.46894 0.87754 0.14645 0.0
H446 H 0.34164 0.85171 0.15321 0.0
C447 C 0.24103 0.72149 0.16646 0.0
C448 C 0.35581 0.7781 0.15864 0.0
C449 C 0.20506 0.68557 0.16707 0.0
C450 C 0.50002 0.93088 0.16338 0.0
C451 C 0.46457 0.89488 0.15672 0.0
C452 C 0.34619 0.83152 0.15477 0.0
C453 C 0.27639 0.72939 0.15573 0.0
C454 C 0.31477 0.76785 0.15547 0.0
C455 C 0.42415 0.88117 0.16377 0.0
C456 C 0.38706 0.84199 0.15894 0.0
H457 H 0.23855 0.64261 0.1382 0.0
H458 H 0.30142 0.70544 0.13718 0.0
H459 H 0.27952 0.78797 0.15014 0.0
H460 H 0.45104 0.95732 0.19458 0.0
H461 H 0.38938 0.89507 0.18289 0.0
C462 C 0.53092 0.22559 0.47004 0.0
C463 C 0.56362 0.22297 0.47358 0.0
C464 C 0.53761 0.25854 0.47534 0.0
C465 C 0.60222 0.34228 0.51198 0.0
H466 H 0.56162 0.3785 0.47641 0.0
C467 C 0.6279 0.47528 0.53972 0.0
C468 C 0.59383 0.4759 0.53592 0.0
C469 C 0.62806 0.4474 0.52957 0.0
C470 C 0.57281 0.36862 0.48664 0.0
H471 H 0.62972 0.25372 0.48454 0.0
H472 H 0.64096 0.31087 0.49422 0.0
H473 H 0.5539 0.32361 0.46349 0.0
H474 H 0.53387 0.44861 0.51809 0.0
H475 H 0.53336 0.39928 0.50076 0.0
H476 H 0.61964 0.38604 0.53546 0.0
C477 C 0.61005 0.28726 0.4875 0.0
C478 C 0.56848 0.33722 0.47918 0.0
C479 C 0.6035 0.25444 0.48203 0.0
C480 C 0.56073 0.44894 0.52113 0.0
C481 C 0.56055 0.4207 0.51118 0.0
C482 C 0.60612 0.37334 0.51952 0.0
C483 C 0.57703 0.28957 0.48446 0.0
C484 C 0.58303 0.32368 0.49182 0.0
C485 C 0.59376 0.41908 0.51566 0.0
C486 C 0.59136 0.38694 0.507 0.0
H487 H 0.49963 0.2019 0.46384 0.0
H488 H 0.51143 0.2594 0.47302 0.0
H489 H 0.61311 0.33216 0.52223 0.0
H490 H 0.65401 0.49597 0.55093 0.0
H491 H 0.65474 0.44769 0.53301 0.0
C492 C 0.49281 0.54523 0.8364 0.0
C493 C 0.49053 0.51754 0.84478 0.0
C494 C 0.45829 0.54644 0.83677 0.0
C495 C 0.3401 0.49053 0.84508 0.0
H496 H 0.36455 0.5847 0.85168 0.0
C497 C 0.20468 0.50819 0.84395 0.0
C498 C 0.21181 0.53728 0.85778 0.0
C499 C 0.23728 0.50441 0.84101 0.0
C500 C 0.35671 0.55799 0.84997 0.0
H501 H 0.44877 0.46917 0.86013 0.0
H502 H 0.38922 0.47152 0.86108 0.0
H503 H 0.4225 0.5809 0.85014 0.0
H504 H 0.25918 0.58482 0.87932 0.0
H505 H 0.3146 0.57833 0.87441 0.0
H506 H 0.27406 0.46782 0.8455 0.0
C507 C 0.41758 0.49221 0.85387 0.0
C508 C 0.3904 0.55577 0.84877 0.0
C509 C 0.45216 0.49099 0.85347 0.0
C510 C 0.25231 0.56222 0.86837 0.0
C511 C 0.28456 0.55859 0.86542 0.0
C512 C 0.30625 0.49276 0.84625 0.0
C513 C 0.41986 0.52005 0.84559 0.0
C514 C 0.38302 0.52204 0.84643 0.0
C515 C 0.27805 0.52971 0.85168 0.0
C516 C 0.31384 0.52661 0.84897 0.0
H517 H 0.52143 0.56616 0.82943 0.0
H518 H 0.46177 0.56808 0.82984 0.0
H519 H 0.33241 0.46387 0.84298 0.0
H520 H 0.17395 0.48823 0.83559 0.0
H521 H 0.23061 0.48179 0.83019 0.0
C522 C 0.94724 0.42682 0.16798 0.0
C523 C 0.97922 0.43294 0.15487 0.0
C524 C 0.91086 0.39161 0.1697 0.0
C525 C 0.84483 0.29639 0.1441 0.0
H526 H 0.8047 0.27643 0.20034 0.0
C527 C 0.7018 0.15255 0.16469 0.0
C528 C 0.67444 0.15222 0.17902 0.0
C529 C 0.73962 0.18567 0.16041 0.0
C530 C 0.81518 0.28156 0.18448 0.0
H531 H 0.99733 0.40655 0.13287 0.0
H532 H 0.93358 0.34469 0.13602 0.0
H533 H 0.86923 0.33594 0.1953 0.0
H534 H 0.66438 0.18597 0.19956 0.0
H535 H 0.72953 0.24332 0.192 0.0
H536 H 0.79027 0.24171 0.13337 0.0
C537 C 0.93676 0.36739 0.14487 0.0
C538 C 0.85226 0.31577 0.18159 0.0
C539 C 0.97337 0.40282 0.14313 0.0
C540 C 0.685 0.18541 0.18854 0.0
C541 C 0.72253 0.21829 0.18431 0.0
C542 C 0.80753 0.26197 0.14701 0.0
C543 C 0.90534 0.36137 0.15842 0.0
C544 C 0.86722 0.32391 0.16134 0.0
C545 C 0.75074 0.21894 0.17048 0.0
C546 C 0.79186 0.25439 0.16722 0.0
H547 H 0.95028 0.44925 0.17714 0.0
H548 H 0.88695 0.38813 0.17992 0.0
H549 H 0.85539 0.30178 0.12828 0.0
H550 H 0.69449 0.12734 0.15714 0.0
H551 H 0.7607 0.18521 0.14972 0.0
C552 C 0.07362 0.57754 0.09001 0.0
C553 C 0.06852 0.551 0.10104 0.0
C554 C 0.07509 0.57482 0.06799 0.0
C555 C 1.04516 0.50804 0.02093 0.0
H556 H 0.12309 0.59385 0.99339 0.0
C557 C 1.03556 0.50563 0.93064 0.0
C558 C 0.07378 0.52614 0.92051 0.0
C559 C 1.03571 0.50853 0.95266 0.0
C560 C 0.10141 0.56957 0.00084 0.0
H561 H 0.06138 0.50102 0.09786 0.0
H562 H 0.06456 0.49653 0.0596 0.0
H563 H 0.12243 0.59951 0.03182 0.0
H564 H 0.14221 0.56564 0.92567 0.0
H565 H 0.14256 0.57006 0.96415 0.0
H566 H 1.02473 0.47797 0.99004 0.0
C567 C 0.0667 0.51913 0.06779 0.0
C568 C 0.10065 0.57288 0.02286 0.0
C569 C 0.06511 0.52181 0.08973 0.0
C570 C 0.11224 0.54923 0.93296 0.0
C571 C 0.11239 0.5521 0.95502 0.0
C572 C 1.04596 0.50472 -0.00106 0.0
C573 C 0.07153 0.5455 0.05661 0.0
C574 C 0.07247 0.54215 0.03318 0.0
C575 C 0.07409 0.53193 0.96514 0.0
C576 C 0.074 0.53544 0.9886 0.0
H577 H 0.07633 0.60033 0.09836 0.0
H578 H 0.07836 0.59539 0.05987 0.0
H579 H 1.02272 0.48384 0.02831 0.0
H580 H 1.00541 0.48729 0.92152 0.0
H581 H 1.00559 0.49286 0.9599 0.0
C582 C 0.57092 0.02856 0.41348 0.0
C583 C 0.6099 0.04212 0.42355 0.0
C584 C 0.56758 0.02861 0.39169 0.0
C585 C 0.61927 0.02997 0.34305 0.0
H586 H 0.55444 0.05606 0.31876 0.0
C587 C 0.58753 0.06028 0.25734 0.0
C588 C 0.57899 0.03002 0.24436 0.0
C589 C 0.59187 0.06288 0.27932 0.0
C590 C 0.57291 0.04896 0.32533 0.0
H591 H 0.67608 0.06704 0.41897 0.0
H592 H 0.67033 0.0672 0.38103 0.0
H593 H 0.56093 0.05905 0.35711 0.0
H594 H 0.56922 0.97917 0.24419 0.0
H595 H 0.57647 0.98355 0.28247 0.0
H596 H 0.63155 0.02013 0.31138 0.0
C597 C 0.64222 0.05612 0.38984 0.0
C598 C 0.57625 0.0503 0.34726 0.0
C599 C 0.64556 0.05617 0.41157 0.0
C600 C 0.57541 0.00266 0.25379 0.0
C601 C 0.57995 0.00534 0.2757 0.0
C602 C 0.61578 0.02847 0.32117 0.0
C603 C 0.60314 0.04209 0.37961 0.0
C604 C 0.59949 0.04083 0.35635 0.0
C605 C 0.58809 0.0354 0.28873 0.0
C606 C 0.59249 0.03786 0.31205 0.0
H607 H 0.54295 0.01762 0.42238 0.0
H608 H 0.53697 0.01736 0.38424 0.0
H609 H 0.63704 0.02214 0.34954 0.0
H610 H 0.59013 0.08165 0.25053 0.0
H611 H 0.5985 0.08652 0.28894 0.0
C612 C 0.53979 0.481 0.77047 0.0
C613 C 0.57675 0.49452 0.7826 0.0
C614 C 0.5419 0.48713 0.7494 0.0
C615 C 0.61814 0.54314 0.70973 0.0
H616 H 0.52483 0.46731 0.6701 0.0
C617 C 0.6233 0.53368 0.61821 0.0
C618 C 0.58903 0.52794 0.60725 0.0
C619 C 0.62304 0.53229 0.63999 0.0
C620 C 0.55095 0.4888 0.68104 0.0
H621 H 0.64494 0.52509 0.78245 0.0
H622 H 0.64863 0.53442 0.74539 0.0
H623 H 0.52214 0.45903 0.70721 0.0
H624 H 0.52779 0.5164 0.61033 0.0
H625 H 0.5269 0.51315 0.64839 0.0
H626 H 0.64752 0.57203 0.68305 0.0
C627 C 0.61803 0.52001 0.75218 0.0
C628 C 0.54938 0.48423 0.70237 0.0
C629 C 0.61596 0.51443 0.77339 0.0
C630 C 0.55471 0.52116 0.61846 0.0
C631 C 0.55408 0.5191 0.64015 0.0
C632 C 0.62001 0.54738 0.68828 0.0
C633 C 0.58098 0.50633 0.73985 0.0
C634 C 0.58285 0.5114 0.71707 0.0
C635 C 0.58812 0.52443 0.65107 0.0
C636 C 0.58633 0.5203 0.67379 0.0
H637 H 0.50922 0.46593 0.77732 0.0
H638 H 0.5128 0.47693 0.74067 0.0
H639 H 0.6442 0.56497 0.72054 0.0
H640 H 0.65017 0.53904 0.60989 0.0
H641 H 0.64954 0.53631 0.64807 0.0
C642 C 0.53888 0.0283 0.55037 0.0
C643 C 0.5747 0.05242 0.53945 0.0
C644 C 0.54346 0.02513 0.57145 0.0
C645 C 0.61048 0.07557 0.61933 0.0
H646 H 0.55912 0.98162 0.63779 0.0
C647 C 0.63133 0.06367 0.70622 0.0
C648 C 0.59661 0.03373 0.71494 0.0
C649 C 0.63118 0.06505 0.68447 0.0
C650 C 0.57317 0.00805 0.63301 0.0
H651 H 0.64327 0.09215 0.54181 0.0
H652 H 0.65116 0.08741 0.57899 0.0
H653 H 0.55306 0.98577 0.60046 0.0
H654 H 0.53458 0.98177 0.70796 0.0
H655 H 0.53327 0.98465 0.67014 0.0
H656 H 0.62892 0.09791 0.65176 0.0
C657 C 0.61968 0.07076 0.57114 0.0
C658 C 0.56988 0.01036 0.6116 0.0
C659 C 0.61517 0.07341 0.54993 0.0
C660 C 0.56193 0.00498 0.70154 0.0
C661 C 0.56138 0.00663 0.67983 0.0
C662 C 0.6131 0.07322 0.64079 0.0
C663 C 0.58386 0.04653 0.58205 0.0
C664 C 0.58843 0.04413 0.6046 0.0
C665 C 0.59588 0.03683 0.67098 0.0
C666 C 0.59438 0.0394 0.64797 0.0
H667 H 0.50736 0.0117 0.54257 0.0
H668 H 0.51537 0.00642 0.57959 0.0
H669 H 0.62466 0.10188 0.61431 0.0
H670 H 0.65861 0.08603 0.71627 0.0
H671 H 0.65878 0.08835 0.67827 0.0
C672 C 0.58795 0.51764 0.90973 0.0
C673 C 0.62615 0.53619 0.89963 0.0
C674 C 0.5868 0.5099 0.93037 0.0
C675 C 0.5861 0.48298 0.97123 0.0
H676 H 0.68481 0.55294 0.00954 0.0
C677 C 0.58241 0.46734 0.05984 0.0
C678 C 0.60174 0.49954 0.07386 0.0
C679 C 0.58935 0.46869 0.03826 0.0
C680 C 0.65676 0.53321 -0.00085 0.0
H681 H 0.69268 0.55978 0.90255 0.0
H682 H 0.6905 0.54476 0.93811 0.0
H683 H 0.68732 0.56162 0.97275 0.0
H684 H 0.64595 0.55837 0.07638 0.0
H685 H 0.65609 0.56081 0.03902 0.0
H686 H 0.55444 0.45624 -0.00197 0.0
C687 C 0.66165 0.53745 0.93063 0.0
C688 C 0.65845 0.53784 0.97782 0.0
C689 C 0.66295 0.54594 0.91019 0.0
C690 C 0.62975 0.533 0.06598 0.0
C691 C 0.63616 0.53437 0.04447 0.0
C692 C 0.58411 0.47878 0.99267 0.0
C693 C 0.62369 0.5198 0.94118 0.0
C694 C 0.62291 0.51314 0.96358 0.0
C695 C 0.61548 0.50228 0.0302 0.0
C696 C 0.61916 0.50424 0.00702 0.0
H697 H 0.55913 0.50986 0.90186 0.0
H698 H 0.55713 0.49696 0.93796 0.0
H699 H 0.55838 0.4628 0.96074 0.0
H700 H 0.56062 0.44108 0.06536 0.0
H701 H 0.57354 0.44337 0.02787 0.0
C702 C 0.10796 0.50753 0.22058 0.0
C703 C 0.11638 0.53634 0.21064 0.0
C704 C 0.10569 0.5084 0.24247 0.0
C705 C 0.12933 0.52884 0.28974 0.0
H706 H 0.06956 0.56106 0.31878 0.0
C707 C 0.14581 0.56607 0.38007 0.0
C708 C 0.1089 0.55461 0.39046 0.0
C709 C 0.14481 0.56144 0.35805 0.0
C710 C 0.08604 0.5517 0.31087 0.0
H711 H 0.12981 0.58894 0.21571 0.0
H712 H 0.12558 0.59041 0.25404 0.0
H713 H 0.07152 0.55794 0.28035 0.0
H714 H 1.04188 0.52898 0.38596 0.0
H715 H 1.04006 0.52076 0.34733 0.0
H716 H 0.14388 0.52263 0.32023 0.0
C717 C 0.12024 0.56696 0.24488 0.0
C718 C 0.08756 0.5503 0.28891 0.0
C719 C 0.12279 0.56618 0.22298 0.0
C720 C 0.07074 0.53787 0.37836 0.0
C721 C 0.0698 0.53348 0.35629 0.0
C722 C 0.12805 0.53048 0.3117 0.0
C723 C 0.11165 0.53806 0.25486 0.0
C724 C 0.10938 0.539 0.27813 0.0
C725 C 0.10691 0.54542 0.34591 0.0
C726 C 0.10658 0.5421 0.32251 0.0
H727 H 0.10279 0.48414 0.21141 0.0
H728 H 0.09865 0.48559 0.24969 0.0
H729 H 0.14663 0.52026 0.28189 0.0
H730 H 0.17559 0.57878 0.389 0.0
H731 H 0.17399 0.57119 0.35052 0.0
loop_
_geom_bond_atom_site_label_1
_geom_bond_atom_site_label_2
_geom_bond_distance
_geom_bond_site_symmetry_2
_ccdc_geom_bond_type
Gd0 C3 2.818 . S
Gd0 O20 2.377 . S
Gd0 O22 2.448 . S
Gd0 O23 2.506 . S
Gd0 O24 2.435 . S
Gd0 O25 2.717 . S
Gd0 O27 2.395 . S
Gd0 O31 2.327 . S
Gd1 C12 2.818 1_455 S
Gd1 O21 2.395 . S
Gd1 O25 2.327 . S
Gd1 O26 2.377 1_455 S
Gd1 O28 2.448 1_455 S
Gd1 O29 2.506 1_455 S
Gd1 O30 2.435 . S
Gd1 O31 2.717 . S
C2 O20 1.240 . S
C2 O21 1.240 . S
C3 Gd0 2.818 . S
C3 C4 1.510 . S
C3 O22 1.249 . S
C3 O23 1.252 . S
C4 C3 1.510 . S
C4 C5 1.404 . S
C4 C6 1.352 . S
C5 C4 1.404 . S
C5 C9 1.389 . S
C5 H32 0.930 . S
C6 C4 1.352 . S
C6 C8 1.374 . S
C6 H33 0.931 . S
C7 C8 1.359 . S
C7 C9 1.364 . S
C8 C6 1.374 . S
C8 C7 1.359 . S
C8 H34 0.931 . S
C9 C5 1.389 . S
C9 C7 1.364 . S
C9 H35 0.931 . S
C10 O24 1.256 . S
C10 O25 1.257 . S
C11 O26 1.240 . S
C11 O27 1.240 1_655 S
C12 Gd1 2.818 1_655 S
C12 C13 1.510 . S
C12 O28 1.249 . S
C12 O29 1.252 . S
C13 C12 1.510 . S
C13 C14 1.404 . S
C13 C15 1.352 . S
C14 C13 1.404 . S
C14 C18 1.389 . S
C14 H36 0.930 . S
C15 C13 1.352 . S
C15 C17 1.374 . S
C15 H37 0.931 . S
C16 C17 1.359 . S
C16 C18 1.364 . S
C17 C15 1.374 . S
C17 C16 1.359 . S
C17 H38 0.931 . S
C18 C14 1.389 . S
C18 C16 1.364 . S
C18 H39 0.931 . S
C19 O30 1.256 . S
C19 O31 1.257 . S
O20 Gd0 2.377 . S
O20 C2 1.240 . S
O21 Gd1 2.395 . S
O21 C2 1.240 . S
O22 Gd0 2.448 . S
O22 C3 1.249 . S
O23 Gd0 2.506 . S
O23 C3 1.252 . S
O24 Gd0 2.435 . S
O24 C10 1.256 . S
O25 Gd0 2.717 . S
O25 Gd1 2.327 . S
O25 C10 1.257 . S
O26 Gd1 2.377 1_655 S
O26 C11 1.240 . S
O27 Gd0 2.395 . S
O27 C11 1.240 1_455 S
O28 Gd1 2.448 1_655 S
O28 C12 1.249 . S
O29 Gd1 2.506 1_655 S
O29 C12 1.252 . S
O30 Gd1 2.435 . S
O30 C19 1.256 . S
O31 Gd0 2.327 . S
O31 Gd1 2.717 . S
O31 C19 1.257 . S
H32 C5 0.930 . S
H33 C6 0.931 . S
H34 C8 0.931 . S
H35 C9 0.931 . S
H36 C14 0.930 . S
H37 C15 0.931 . S
H38 C17 0.931 . S
H39 C18 0.931 . S
Gd40 C43 2.818 1_545 S
Gd40 O60 2.377 1_545 S
Gd40 O62 2.448 1_545 S
Gd40 O63 2.506 1_545 S
Gd40 O64 2.435 . S
Gd40 O65 2.717 . S
Gd40 O67 2.395 . S
Gd40 O71 2.327 . S
Gd41 C52 2.818 . S
Gd41 O61 2.395 1_545 S
Gd41 O65 2.327 . S
Gd41 O66 2.377 . S
Gd41 O68 2.448 . S
Gd41 O69 2.506 . S
Gd41 O70 2.435 . S
Gd41 O71 2.717 . S
C42 O60 1.240 . S
C42 O61 1.240 . S
C43 Gd40 2.818 1_565 S
C43 C44 1.510 . S
C43 O62 1.249 . S
C43 O63 1.252 . S
C44 C43 1.510 . S
C44 C45 1.404 . S
C44 C46 1.352 . S
C45 C44 1.404 . S
C45 C49 1.389 . S
C45 H72 0.930 . S
C46 C44 1.352 . S
C46 C48 1.374 . S
C46 H73 0.931 . S
C47 C48 1.359 . S
C47 C49 1.364 . S
C48 C46 1.374 . S
C48 C47 1.359 . S
C48 H74 0.931 . S
C49 C45 1.389 . S
C49 C47 1.364 . S
C49 H75 0.931 . S
C50 O64 1.256 . S
C50 O65 1.257 . S
C51 O66 1.240 . S
C51 O67 1.240 . S
C52 Gd41 2.818 . S
C52 C53 1.510 . S
C52 O68 1.249 . S
C52 O69 1.252 . S
C53 C52 1.510 . S
C53 C54 1.404 . S
C53 C55 1.352 . S
C54 C53 1.404 . S
C54 C58 1.389 . S
C54 H76 0.930 . S
C55 C53 1.352 . S
C55 C57 1.374 . S
C55 H77 0.931 . S
C56 C57 1.359 . S
C56 C58 1.364 . S
C57 C55 1.374 . S
C57 C56 1.359 . S
C57 H78 0.931 . S
C58 C54 1.389 . S
C58 C56 1.364 . S
C58 H79 0.931 . S
C59 O70 1.256 . S
C59 O71 1.257 . S
O60 Gd40 2.377 1_565 S
O60 C42 1.240 . S
O61 Gd41 2.395 1_565 S
O61 C42 1.240 . S
O62 Gd40 2.448 1_565 S
O62 C43 1.249 . S
O63 Gd40 2.506 1_565 S
O63 C43 1.252 . S
O64 Gd40 2.435 . S
O64 C50 1.256 . S
O65 Gd40 2.717 . S
O65 Gd41 2.327 . S
O65 C50 1.257 . S
O66 Gd41 2.377 . S
O66 C51 1.240 . S
O67 Gd40 2.395 . S
O67 C51 1.240 . S
O68 Gd41 2.448 . S
O68 C52 1.249 . S
O69 Gd41 2.506 . S
O69 C52 1.252 . S
O70 Gd41 2.435 . S
O70 C59 1.256 . S
O71 Gd40 2.327 . S
O71 Gd41 2.717 . S
O71 C59 1.257 . S
H72 C45 0.930 . S
H73 C46 0.931 . S
H74 C48 0.931 . S
H75 C49 0.931 . S
H76 C54 0.930 . S
H77 C55 0.931 . S
H78 C57 0.931 . S
H79 C58 0.931 . S
Gd80 C83 2.818 . S
Gd80 O100 2.377 . S
Gd80 O102 2.448 . S
Gd80 O103 2.506 . S
Gd80 O104 2.435 . S
Gd80 O105 2.717 . S
Gd80 O107 2.395 . S
Gd80 O111 2.327 . S
Gd81 C92 2.818 . S
Gd81 O101 2.395 . S
Gd81 O105 2.327 . S
Gd81 O106 2.377 . S
Gd81 O108 2.448 . S
Gd81 O109 2.506 . S
Gd81 O110 2.435 . S
Gd81 O111 2.717 . S
C82 O100 1.240 . S
C82 O101 1.240 . S
C83 Gd80 2.818 . S
C83 C84 1.510 . S
C83 O102 1.249 . S
C83 O103 1.252 . S
C84 C83 1.510 . S
C84 C85 1.404 . S
C84 C86 1.352 . S
C85 C84 1.404 . S
C85 C89 1.389 . S
C85 H112 0.930 . S
C86 C84 1.352 . S
C86 C88 1.374 . S
C86 H113 0.931 . S
C87 C88 1.359 . S
C87 C89 1.364 . S
C88 C86 1.374 . S
C88 C87 1.359 . S
C88 H114 0.931 . S
C89 C85 1.389 . S
C89 C87 1.364 . S
C89 H115 0.931 . S
C90 O104 1.256 . S
C90 O105 1.257 . S
C91 O106 1.240 . S
C91 O107 1.240 . S
C92 Gd81 2.818 . S
C92 C93 1.510 . S
C92 O108 1.249 . S
C92 O109 1.252 . S
C93 C92 1.510 . S
C93 C94 1.404 . S
C93 C95 1.352 . S
C94 C93 1.404 . S
C94 C98 1.389 . S
C94 H116 0.930 . S
C95 C93 1.352 . S
C95 C97 1.374 . S
C95 H117 0.931 . S
C96 C97 1.359 . S
C96 C98 1.364 . S
C97 C95 1.374 . S
C97 C96 1.359 . S
C97 H118 0.931 . S
C98 C94 1.389 . S
C98 C96 1.364 . S
C98 H119 0.931 . S
C99 O110 1.256 . S
C99 O111 1.257 . S
O100 Gd80 2.377 . S
O100 C82 1.240 . S
O101 Gd81 2.395 . S
O101 C82 1.240 . S
O102 Gd80 2.448 . S
O102 C83 1.249 . S
O103 Gd80 2.506 . S
O103 C83 1.252 . S
O104 Gd80 2.435 . S
O104 C90 1.256 . S
O105 Gd80 2.717 . S
O105 Gd81 2.327 . S
O105 C90 1.257 . S
O106 Gd81 2.377 . S
O106 C91 1.240 . S
O107 Gd80 2.395 . S
O107 C91 1.240 . S
O108 Gd81 2.448 . S
O108 C92 1.249 . S
O109 Gd81 2.506 . S
O109 C92 1.252 . S
O110 Gd81 2.435 . S
O110 C99 1.256 . S
O111 Gd80 2.327 . S
O111 Gd81 2.717 . S
O111 C99 1.257 . S
H112 C85 0.930 . S
H113 C86 0.931 . S
H114 C88 0.931 . S
H115 C89 0.931 . S
H116 C94 0.930 . S
H117 C95 0.931 . S
H118 C97 0.931 . S
H119 C98 0.931 . S
H120 C125 0.930 . S
H121 C128 0.930 . S
H122 C130 0.930 1_565 S
H123 C124 1.016 . S
C124 H123 1.016 . S
C124 N131 1.286 . S
C125 H120 0.930 . S
C125 C126 1.397 . S
C125 C127 1.361 . S
C126 C125 1.397 . S
C126 C130 1.390 . S
C127 C125 1.361 . S
C127 C128 1.393 . S
C127 N131 1.413 . S
C128 H121 0.930 . S
C128 C127 1.393 . S
C128 C129 1.399 . S
C129 C128 1.399 . S
C129 C130 1.381 . S
C130 H122 0.930 1_545 S
C130 C126 1.390 . S
C130 C129 1.381 . S
N131 C124 1.286 . S
N131 C127 1.413 . S
H132 C137 0.930 . S
H133 C140 0.930 . S
H134 C142 0.930 . S
H135 C136 1.016 . S
C136 H135 1.016 . S
C136 N143 1.286 . S
C137 H132 0.930 . S
C137 C138 1.397 . S
C137 C139 1.361 . S
C138 C137 1.397 . S
C138 C142 1.390 . S
C139 C137 1.361 . S
C139 C140 1.393 . S
C139 N143 1.413 . S
C140 H133 0.930 . S
C140 C139 1.393 . S
C140 C141 1.399 . S
C141 C140 1.399 . S
C141 C142 1.381 . S
C142 H134 0.930 . S
C142 C138 1.390 . S
C142 C141 1.381 . S
N143 C136 1.286 . S
N143 C139 1.413 . S
H144 C149 0.930 . S
H145 C152 0.930 . S
H146 C154 0.930 . S
H147 C148 1.016 . S
C148 H147 1.016 . S
C148 N155 1.286 . S
C149 H144 0.930 . S
C149 C150 1.397 . S
C149 C151 1.361 . S
C150 C149 1.397 . S
C150 C154 1.390 . S
C151 C149 1.361 . S
C151 C152 1.393 . S
C151 N155 1.413 . S
C152 H145 0.930 . S
C152 C151 1.393 . S
C152 C153 1.399 . S
C153 C152 1.399 . S
C153 C154 1.381 . S
C154 H146 0.930 . S
C154 C150 1.390 . S
C154 C153 1.381 . S
N155 C148 1.286 . S
N155 C151 1.413 . S
H156 C161 0.930 . S
H157 C164 0.930 . S
H158 C166 0.930 . S
H159 C160 1.016 . S
C160 H159 1.016 . S
C160 N167 1.286 . S
C161 H156 0.930 . S
C161 C162 1.397 . S
C161 C163 1.361 1_455 S
C162 C161 1.397 . S
C162 C166 1.390 . S
C163 C161 1.361 1_655 S
C163 C164 1.393 . S
C163 N167 1.413 . S
C164 H157 0.930 . S
C164 C163 1.393 . S
C164 C165 1.399 1_655 S
C165 C164 1.399 1_455 S
C165 C166 1.381 . S
C166 H158 0.930 . S
C166 C162 1.390 . S
C166 C165 1.381 . S
N167 C160 1.286 . S
N167 C163 1.413 . S
H168 C173 0.930 . S
H169 C176 0.930 . S
H170 C178 0.930 . S
H171 C172 1.016 . S
C172 H171 1.016 . S
C172 N179 1.286 . S
C173 H168 0.930 . S
C173 C174 1.397 . S
C173 C175 1.361 . S
C174 C173 1.397 . S
C174 C178 1.390 . S
C175 C173 1.361 . S
C175 C176 1.393 1_545 S
C175 N179 1.413 1_545 S
C176 H169 0.930 . S
C176 C175 1.393 1_565 S
C176 C177 1.399 1_565 S
C177 C176 1.399 1_545 S
C177 C178 1.381 . S
C178 H170 0.930 . S
C178 C174 1.390 . S
C178 C177 1.381 . S
N179 C172 1.286 . S
N179 C175 1.413 1_565 S
H180 C185 0.930 . S
H181 C188 0.930 . S
H182 C190 0.930 . S
H183 C184 1.016 . S
C184 H183 1.016 . S
C184 N191 1.286 . S
C185 H180 0.930 . S
C185 C186 1.397 . S
C185 C187 1.361 . S
C186 C185 1.397 . S
C186 C190 1.390 . S
C187 C185 1.361 . S
C187 C188 1.393 . S
C187 N191 1.413 . S
C188 H181 0.930 . S
C188 C187 1.393 . S
C188 C189 1.399 . S
C189 C188 1.399 . S
C189 C190 1.381 . S
C190 H182 0.930 . S
C190 C186 1.390 . S
C190 C189 1.381 . S
N191 C184 1.286 . S
N191 C187 1.413 . S
C192 C193 1.349 . S
C192 C194 1.327 . S
C192 H217 0.950 . S
C193 C192 1.349 . S
C193 C209 1.349 . S
C194 C192 1.327 . S
C194 C213 1.429 . S
C194 H218 0.950 . S
C195 C212 1.574 . S
C195 C214 1.368 . S
C195 H219 0.949 . S
H196 C200 0.949 . S
C197 C198 1.349 . S
C197 C199 1.327 . S
C197 H220 0.950 . S
C198 C197 1.349 . S
C198 C210 1.349 . S
C199 C197 1.327 . S
C199 C215 1.429 . S
C199 H221 0.950 . S
C200 H196 0.949 . S
C200 C208 1.574 . S
C200 C216 1.368 . S
H201 C209 0.950 . S
H202 C207 0.950 . S
H203 C208 0.949 . S
H204 C210 0.950 . S
H205 C211 0.950 . S
H206 C212 0.949 . S
C207 H202 0.950 . S
C207 C209 1.327 . S
C207 C213 1.429 . S
C208 C200 1.574 . S
C208 H203 0.949 . S
C208 C214 1.368 . S
C209 C193 1.349 . S
C209 H201 0.950 . S
C209 C207 1.327 . S
C210 C198 1.349 . S
C210 H204 0.950 . S
C210 C211 1.327 . S
C211 H205 0.950 . S
C211 C210 1.327 . S
C211 C215 1.429 . S
C212 C195 1.574 . S
C212 H206 0.949 . S
C212 C216 1.368 . S
C213 C194 1.429 . S
C213 C207 1.429 . S
C213 C214 1.523 . S
C214 C195 1.368 . S
C214 C208 1.368 . S
C214 C213 1.523 . S
C215 C199 1.429 . S
C215 C211 1.429 . S
C215 C216 1.523 . S
C216 C200 1.368 . S
C216 C212 1.368 . S
C216 C215 1.523 . S
H217 C192 0.950 . S
H218 C194 0.950 . S
H219 C195 0.949 . S
H220 C197 0.950 . S
H221 C199 0.950 . S
C222 C223 1.349 . S
C222 C224 1.327 . S
C222 H247 0.950 . S
C223 C222 1.349 . S
C223 C239 1.349 . S
C224 C222 1.327 . S
C224 C243 1.429 . S
C224 H248 0.950 . S
C225 C242 1.574 . S
C225 C244 1.368 . S
C225 H249 0.949 . S
H226 C230 0.949 . S
C227 C228 1.349 . S
C227 C229 1.327 . S
C227 H250 0.950 . S
C228 C227 1.349 . S
C228 C240 1.349 . S
C229 C227 1.327 . S
C229 C245 1.429 . S
C229 H251 0.950 . S
C230 H226 0.949 . S
C230 C238 1.574 . S
C230 C246 1.368 . S
H231 C239 0.950 . S
H232 C237 0.950 . S
H233 C238 0.949 . S
H234 C240 0.950 . S
H235 C241 0.950 . S
H236 C242 0.949 . S
C237 H232 0.950 . S
C237 C239 1.327 . S
C237 C243 1.429 . S
C238 C230 1.574 . S
C238 H233 0.949 . S
C238 C244 1.368 . S
C239 C223 1.349 . S
C239 H231 0.950 . S
C239 C237 1.327 . S
C240 C228 1.349 . S
C240 H234 0.950 . S
C240 C241 1.327 . S
C241 H235 0.950 . S
C241 C240 1.327 . S
C241 C245 1.429 . S
C242 C225 1.574 . S
C242 H236 0.949 . S
C242 C246 1.368 . S
C243 C224 1.429 . S
C243 C237 1.429 . S
C243 C244 1.523 . S
C244 C225 1.368 . S
C244 C238 1.368 . S
C244 C243 1.523 . S
C245 C229 1.429 . S
C245 C241 1.429 . S
C245 C246 1.523 . S
C246 C230 1.368 . S
C246 C242 1.368 . S
C246 C245 1.523 . S
H247 C222 0.950 . S
H248 C224 0.950 . S
H249 C225 0.949 . S
H250 C227 0.950 . S
H251 C229 0.950 . S
C252 C253 1.349 . S
C252 C254 1.327 . S
C252 H277 0.950 . S
C253 C252 1.349 . S
C253 C269 1.349 . S
C254 C252 1.327 . S
C254 C273 1.429 . S
C254 H278 0.950 . S
C255 C272 1.574 . S
C255 C274 1.368 . S
C255 H279 0.949 . S
H256 C260 0.949 . S
C257 C258 1.349 . S
C257 C259 1.327 . S
C257 H280 0.950 . S
C258 C257 1.349 . S
C258 C270 1.349 . S
C259 C257 1.327 . S
C259 C275 1.429 . S
C259 H281 0.950 . S
C260 H256 0.949 . S
C260 C268 1.574 . S
C260 C276 1.368 . S
H261 C269 0.950 . S
H262 C267 0.950 . S
H263 C268 0.949 . S
H264 C270 0.950 . S
H265 C271 0.950 . S
H266 C272 0.949 . S
C267 H262 0.950 . S
C267 C269 1.327 . S
C267 C273 1.429 . S
C268 C260 1.574 . S
C268 H263 0.949 . S
C268 C274 1.368 . S
C269 C253 1.349 . S
C269 H261 0.950 . S
C269 C267 1.327 . S
C270 C258 1.349 . S
C270 H264 0.950 . S
C270 C271 1.327 . S
C271 H265 0.950 . S
C271 C270 1.327 . S
C271 C275 1.429 . S
C272 C255 1.574 . S
C272 H266 0.949 . S
C272 C276 1.368 . S
C273 C254 1.429 . S
C273 C267 1.429 . S
C273 C274 1.523 . S
C274 C255 1.368 . S
C274 C268 1.368 . S
C274 C273 1.523 . S
C275 C259 1.429 . S
C275 C271 1.429 . S
C275 C276 1.523 . S
C276 C260 1.368 . S
C276 C272 1.368 . S
C276 C275 1.523 . S
H277 C252 0.950 . S
H278 C254 0.950 . S
H279 C255 0.949 . S
H280 C257 0.950 . S
H281 C259 0.950 . S
C282 C283 1.349 . S
C282 C284 1.327 . S
C282 H307 0.950 . S
C283 C282 1.349 . S
C283 C299 1.349 . S
C284 C282 1.327 . S
C284 C303 1.429 . S
C284 H308 0.950 . S
C285 C302 1.574 . S
C285 C304 1.368 . S
C285 H309 0.949 . S
H286 C290 0.949 . S
C287 C288 1.349 . S
C287 C289 1.327 . S
C287 H310 0.950 . S
C288 C287 1.349 . S
C288 C300 1.349 . S
C289 C287 1.327 . S
C289 C305 1.429 . S
C289 H311 0.950 . S
C290 H286 0.949 . S
C290 C298 1.574 . S
C290 C306 1.368 . S
H291 C299 0.950 . S
H292 C297 0.950 . S
H293 C298 0.949 . S
H294 C300 0.950 . S
H295 C301 0.950 . S
H296 C302 0.949 . S
C297 H292 0.950 . S
C297 C299 1.327 . S
C297 C303 1.429 . S
C298 C290 1.574 . S
C298 H293 0.949 . S
C298 C304 1.368 . S
C299 C283 1.349 . S
C299 H291 0.950 . S
C299 C297 1.327 . S
C300 C288 1.349 . S
C300 H294 0.950 . S
C300 C301 1.327 . S
C301 H295 0.950 . S
C301 C300 1.327 . S
C301 C305 1.429 . S
C302 C285 1.574 . S
C302 H296 0.949 . S
C302 C306 1.368 . S
C303 C284 1.429 . S
C303 C297 1.429 . S
C303 C304 1.523 . S
C304 C285 1.368 . S
C304 C298 1.368 . S
C304 C303 1.523 . S
C305 C289 1.429 . S
C305 C301 1.429 . S
C305 C306 1.523 . S
C306 C290 1.368 . S
C306 C302 1.368 . S
C306 C305 1.523 . S
H307 C282 0.950 . S
H308 C284 0.950 . S
H309 C285 0.949 . S
H310 C287 0.950 . S
H311 C289 0.950 . S
C312 C313 1.349 . S
C312 C314 1.327 . S
C312 H337 0.950 . S
C313 C312 1.349 . S
C313 C329 1.349 . S
C314 C312 1.327 . S
C314 C333 1.429 . S
C314 H338 0.950 . S
C315 C332 1.574 . S
C315 C334 1.368 . S
C315 H339 0.949 . S
H316 C320 0.949 . S
C317 C318 1.349 . S
C317 C319 1.327 . S
C317 H340 0.950 . S
C318 C317 1.349 . S
C318 C330 1.349 . S
C319 C317 1.327 . S
C319 C335 1.429 . S
C319 H341 0.950 . S
C320 H316 0.949 . S
C320 C328 1.574 . S
C320 C336 1.368 . S
H321 C329 0.950 . S
H322 C327 0.950 . S
H323 C328 0.949 . S
H324 C330 0.950 . S
H325 C331 0.950 . S
H326 C332 0.949 . S
C327 H322 0.950 . S
C327 C329 1.327 . S
C327 C333 1.429 . S
C328 C320 1.574 . S
C328 H323 0.949 . S
C328 C334 1.368 . S
C329 C313 1.349 . S
C329 H321 0.950 . S
C329 C327 1.327 . S
C330 C318 1.349 . S
C330 H324 0.950 . S
C330 C331 1.327 . S
C331 H325 0.950 . S
C331 C330 1.327 . S
C331 C335 1.429 . S
C332 C315 1.574 . S
C332 H326 0.949 . S
C332 C336 1.368 . S
C333 C314 1.429 . S
C333 C327 1.429 . S
C333 C334 1.523 . S
C334 C315 1.368 . S
C334 C328 1.368 . S
C334 C333 1.523 . S
C335 C319 1.429 . S
C335 C331 1.429 . S
C335 C336 1.523 . S
C336 C320 1.368 . S
C336 C332 1.368 . S
C336 C335 1.523 . S
H337 C312 0.950 . S
H338 C314 0.950 . S
H339 C315 0.949 . S
H340 C317 0.950 . S
H341 C319 0.950 . S
C342 C343 1.349 . S
C342 C344 1.327 . S
C342 H367 0.950 . S
C343 C342 1.349 . S
C343 C359 1.349 . S
C344 C342 1.327 . S
C344 C363 1.429 . S
C344 H368 0.950 . S
C345 C362 1.574 . S
C345 C364 1.368 . S
C345 H369 0.949 . S
H346 C350 0.949 . S
C347 C348 1.349 . S
C347 C349 1.327 . S
C347 H370 0.950 . S
C348 C347 1.349 . S
C348 C360 1.349 . S
C349 C347 1.327 . S
C349 C365 1.429 . S
C349 H371 0.950 . S
C350 H346 0.949 . S
C350 C358 1.574 . S
C350 C366 1.368 . S
H351 C359 0.950 . S
H352 C357 0.950 . S
H353 C358 0.949 . S
H354 C360 0.950 . S
H355 C361 0.950 . S
H356 C362 0.949 . S
C357 H352 0.950 . S
C357 C359 1.327 . S
C357 C363 1.429 . S
C358 C350 1.574 . S
C358 H353 0.949 . S
C358 C364 1.368 . S
C359 C343 1.349 . S
C359 H351 0.950 . S
C359 C357 1.327 . S
C360 C348 1.349 . S
C360 H354 0.950 . S
C360 C361 1.327 . S
C361 H355 0.950 . S
C361 C360 1.327 . S
C361 C365 1.429 . S
C362 C345 1.574 . S
C362 H356 0.949 . S
C362 C366 1.368 . S
C363 C344 1.429 . S
C363 C357 1.429 . S
C363 C364 1.523 . S
C364 C345 1.368 . S
C364 C358 1.368 . S
C364 C363 1.523 . S
C365 C349 1.429 . S
C365 C361 1.429 . S
C365 C366 1.523 . S
C366 C350 1.368 . S
C366 C362 1.368 . S
C366 C365 1.523 . S
H367 C342 0.950 . S
H368 C344 0.950 . S
H369 C345 0.949 . S
H370 C347 0.950 . S
H371 C349 0.950 . S
C372 C373 1.349 . S
C372 C374 1.327 . S
C372 H397 0.950 . S
C373 C372 1.349 . S
C373 C389 1.349 . S
C374 C372 1.327 . S
C374 C393 1.429 . S
C374 H398 0.950 . S
C375 C392 1.574 . S
C375 C394 1.368 . S
C375 H399 0.949 . S
H376 C380 0.949 . S
C377 C378 1.349 . S
C377 C379 1.327 . S
C377 H400 0.950 . S
C378 C377 1.349 . S
C378 C390 1.349 . S
C379 C377 1.327 . S
C379 C395 1.429 . S
C379 H401 0.950 . S
C380 H376 0.949 . S
C380 C388 1.574 . S
C380 C396 1.368 . S
H381 C389 0.950 . S
H382 C387 0.950 . S
H383 C388 0.949 . S
H384 C390 0.950 . S
H385 C391 0.950 . S
H386 C392 0.949 . S
C387 H382 0.950 . S
C387 C389 1.327 . S
C387 C393 1.429 . S
C388 C380 1.574 . S
C388 H383 0.949 . S
C388 C394 1.368 . S
C389 C373 1.349 . S
C389 H381 0.950 . S
C389 C387 1.327 . S
C390 C378 1.349 . S
C390 H384 0.950 . S
C390 C391 1.327 . S
C391 H385 0.950 . S
C391 C390 1.327 . S
C391 C395 1.429 . S
C392 C375 1.574 . S
C392 H386 0.949 . S
C392 C396 1.368 . S
C393 C374 1.429 . S
C393 C387 1.429 . S
C393 C394 1.523 . S
C394 C375 1.368 . S
C394 C388 1.368 . S
C394 C393 1.523 . S
C395 C379 1.429 . S
C395 C391 1.429 . S
C395 C396 1.523 . S
C396 C380 1.368 . S
C396 C392 1.368 . S
C396 C395 1.523 . S
H397 C372 0.950 . S
H398 C374 0.950 . S
H399 C375 0.949 . S
H400 C377 0.950 . S
H401 C379 0.950 . S
C402 C403 1.349 . S
C402 C404 1.327 . S
C402 H427 0.950 . S
C403 C402 1.349 . S
C403 C419 1.349 . S
C404 C402 1.327 . S
C404 C423 1.429 . S
C404 H428 0.950 . S
C405 C422 1.574 . S
C405 C424 1.368 . S
C405 H429 0.949 . S
H406 C410 0.949 . S
C407 C408 1.349 . S
C407 C409 1.327 . S
C407 H430 0.950 . S
C408 C407 1.349 . S
C408 C420 1.349 . S
C409 C407 1.327 . S
C409 C425 1.429 . S
C409 H431 0.950 . S
C410 H406 0.949 . S
C410 C418 1.574 . S
C410 C426 1.368 . S
H411 C419 0.950 . S
H412 C417 0.950 . S
H413 C418 0.949 . S
H414 C420 0.950 . S
H415 C421 0.950 . S
H416 C422 0.949 . S
C417 H412 0.950 . S
C417 C419 1.327 . S
C417 C423 1.429 . S
C418 C410 1.574 . S
C418 H413 0.949 . S
C418 C424 1.368 . S
C419 C403 1.349 . S
C419 H411 0.950 . S
C419 C417 1.327 . S
C420 C408 1.349 . S
C420 H414 0.950 . S
C420 C421 1.327 . S
C421 H415 0.950 . S
C421 C420 1.327 . S
C421 C425 1.429 . S
C422 C405 1.574 . S
C422 H416 0.949 . S
C422 C426 1.368 . S
C423 C404 1.429 . S
C423 C417 1.429 . S
C423 C424 1.523 . S
C424 C405 1.368 . S
C424 C418 1.368 . S
C424 C423 1.523 . S
C425 C409 1.429 . S
C425 C421 1.429 . S
C425 C426 1.523 . S
C426 C410 1.368 . S
C426 C422 1.368 . S
C426 C425 1.523 . S
H427 C402 0.950 . S
H428 C404 0.950 . S
H429 C405 0.949 . S
H430 C407 0.950 . S
H431 C409 0.950 . S
C432 C433 1.349 . S
C432 C434 1.327 . S
C432 H457 0.950 . S
C433 C432 1.349 . S
C433 C449 1.349 . S
C434 C432 1.327 . S
C434 C453 1.429 . S
C434 H458 0.950 . S
C435 C452 1.574 . S
C435 C454 1.368 . S
C435 H459 0.949 . S
H436 C440 0.949 . S
C437 C438 1.349 . S
C437 C439 1.327 . S
C437 H460 0.950 . S
C438 C437 1.349 . S
C438 C450 1.349 . S
C439 C437 1.327 . S
C439 C455 1.429 . S
C439 H461 0.950 . S
C440 H436 0.949 . S
C440 C448 1.574 . S
C440 C456 1.368 . S
H441 C449 0.950 . S
H442 C447 0.950 . S
H443 C448 0.949 . S
H444 C450 0.950 . S
H445 C451 0.950 . S
H446 C452 0.949 . S
C447 H442 0.950 . S
C447 C449 1.327 . S
C447 C453 1.429 . S
C448 C440 1.574 . S
C448 H443 0.949 . S
C448 C454 1.368 . S
C449 C433 1.349 . S
C449 H441 0.950 . S
C449 C447 1.327 . S
C450 C438 1.349 . S
C450 H444 0.950 . S
C450 C451 1.327 . S
C451 H445 0.950 . S
C451 C450 1.327 . S
C451 C455 1.429 . S
C452 C435 1.574 . S
C452 H446 0.949 . S
C452 C456 1.368 . S
C453 C434 1.429 . S
C453 C447 1.429 . S
C453 C454 1.523 . S
C454 C435 1.368 . S
C454 C448 1.368 . S
C454 C453 1.523 . S
C455 C439 1.429 . S
C455 C451 1.429 . S
C455 C456 1.523 . S
C456 C440 1.368 . S
C456 C452 1.368 . S
C456 C455 1.523 . S
H457 C432 0.950 . S
H458 C434 0.950 . S
H459 C435 0.949 . S
H460 C437 0.950 . S
H461 C439 0.950 . S
C462 C463 1.349 . S
C462 C464 1.327 . S
C462 H487 0.950 . S
C463 C462 1.349 . S
C463 C479 1.349 . S
C464 C462 1.327 . S
C464 C483 1.429 . S
C464 H488 0.950 . S
C465 C482 1.574 . S
C465 C484 1.368 . S
C465 H489 0.949 . S
H466 C470 0.949 . S
C467 C468 1.349 . S
C467 C469 1.327 . S
C467 H490 0.950 . S
C468 C467 1.349 . S
C468 C480 1.349 . S
C469 C467 1.327 . S
C469 C485 1.429 . S
C469 H491 0.950 . S
C470 H466 0.949 . S
C470 C478 1.574 . S
C470 C486 1.368 . S
H471 C479 0.950 . S
H472 C477 0.950 . S
H473 C478 0.949 . S
H474 C480 0.950 . S
H475 C481 0.950 . S
H476 C482 0.949 . S
C477 H472 0.950 . S
C477 C479 1.327 . S
C477 C483 1.429 . S
C478 C470 1.574 . S
C478 H473 0.949 . S
C478 C484 1.368 . S
C479 C463 1.349 . S
C479 H471 0.950 . S
C479 C477 1.327 . S
C480 C468 1.349 . S
C480 H474 0.950 . S
C480 C481 1.327 . S
C481 H475 0.950 . S
C481 C480 1.327 . S
C481 C485 1.429 . S
C482 C465 1.574 . S
C482 H476 0.949 . S
C482 C486 1.368 . S
C483 C464 1.429 . S
C483 C477 1.429 . S
C483 C484 1.523 . S
C484 C465 1.368 . S
C484 C478 1.368 . S
C484 C483 1.523 . S
C485 C469 1.429 . S
C485 C481 1.429 . S
C485 C486 1.523 . S
C486 C470 1.368 . S
C486 C482 1.368 . S
C486 C485 1.523 . S
H487 C462 0.950 . S
H488 C464 0.950 . S
H489 C465 0.949 . S
H490 C467 0.950 . S
H491 C469 0.950 . S
C492 C493 1.349 . S
C492 C494 1.327 . S
C492 H517 0.950 . S
C493 C492 1.349 . S
C493 C509 1.349 . S
C494 C492 1.327 . S
C494 C513 1.429 . S
C494 H518 0.950 . S
C495 C512 1.574 . S
C495 C514 1.368 . S
C495 H519 0.949 . S
H496 C500 0.949 . S
C497 C498 1.349 . S
C497 C499 1.327 . S
C497 H520 0.950 . S
C498 C497 1.349 . S
C498 C510 1.349 . S
C499 C497 1.327 . S
C499 C515 1.429 . S
C499 H521 0.950 . S
C500 H496 0.949 . S
C500 C508 1.574 . S
C500 C516 1.368 . S
H501 C509 0.950 . S
H502 C507 0.950 . S
H503 C508 0.949 . S
H504 C510 0.950 . S
H505 C511 0.950 . S
H506 C512 0.949 . S
C507 H502 0.950 . S
C507 C509 1.327 . S
C507 C513 1.429 . S
C508 C500 1.574 . S
C508 H503 0.949 . S
C508 C514 1.368 . S
C509 C493 1.349 . S
C509 H501 0.950 . S
C509 C507 1.327 . S
C510 C498 1.349 . S
C510 H504 0.950 . S
C510 C511 1.327 . S
C511 H505 0.950 . S
C511 C510 1.327 . S
C511 C515 1.429 . S
C512 C495 1.574 . S
C512 H506 0.949 . S
C512 C516 1.368 . S
C513 C494 1.429 . S
C513 C507 1.429 . S
C513 C514 1.523 . S
C514 C495 1.368 . S
C514 C508 1.368 . S
C514 C513 1.523 . S
C515 C499 1.429 . S
C515 C511 1.429 . S
C515 C516 1.523 . S
C516 C500 1.368 . S
C516 C512 1.368 . S
C516 C515 1.523 . S
H517 C492 0.950 . S
H518 C494 0.950 . S
H519 C495 0.949 . S
H520 C497 0.950 . S
H521 C499 0.950 . S
C522 C523 1.349 . S
C522 C524 1.327 . S
C522 H547 0.950 . S
C523 C522 1.349 . S
C523 C539 1.349 . S
C524 C522 1.327 . S
C524 C543 1.429 . S
C524 H548 0.950 . S
C525 C542 1.574 . S
C525 C544 1.368 . S
C525 H549 0.949 . S
H526 C530 0.949 . S
C527 C528 1.349 . S
C527 C529 1.327 . S
C527 H550 0.950 . S
C528 C527 1.349 . S
C528 C540 1.349 . S
C529 C527 1.327 . S
C529 C545 1.429 . S
C529 H551 0.950 . S
C530 H526 0.949 . S
C530 C538 1.574 . S
C530 C546 1.368 . S
H531 C539 0.950 . S
H532 C537 0.950 . S
H533 C538 0.949 . S
H534 C540 0.950 . S
H535 C541 0.950 . S
H536 C542 0.949 . S
C537 H532 0.950 . S
C537 C539 1.327 . S
C537 C543 1.429 . S
C538 C530 1.574 . S
C538 H533 0.949 . S
C538 C544 1.368 . S
C539 C523 1.349 . S
C539 H531 0.950 . S
C539 C537 1.327 . S
C540 C528 1.349 . S
C540 H534 0.950 . S
C540 C541 1.327 . S
C541 H535 0.950 . S
C541 C540 1.327 . S
C541 C545 1.429 . S
C542 C525 1.574 . S
C542 H536 0.949 . S
C542 C546 1.368 . S
C543 C524 1.429 . S
C543 C537 1.429 . S
C543 C544 1.523 . S
C544 C525 1.368 . S
C544 C538 1.368 . S
C544 C543 1.523 . S
C545 C529 1.429 . S
C545 C541 1.429 . S
C545 C546 1.523 . S
C546 C530 1.368 . S
C546 C542 1.368 . S
C546 C545 1.523 . S
H547 C522 0.950 . S
H548 C524 0.950 . S
H549 C525 0.949 . S
H550 C527 0.950 . S
H551 C529 0.950 . S
C552 C553 1.349 . S
C552 C554 1.327 . S
C552 H577 0.950 . S
C553 C552 1.349 . S
C553 C569 1.349 . S
C554 C552 1.327 . S
C554 C573 1.429 . S
C554 H578 0.950 . S
C555 C572 1.574 . S
C555 C574 1.368 . S
C555 H579 0.949 . S
H556 C560 0.949 1_556 S
C557 C558 1.349 . S
C557 C559 1.327 . S
C557 H580 0.950 . S
C558 C557 1.349 . S
C558 C570 1.349 . S
C559 C557 1.327 . S
C559 C575 1.429 . S
C559 H581 0.950 . S
C560 H556 0.949 1_554 S
C560 C568 1.574 . S
C560 C576 1.368 1_554 S
H561 C569 0.950 . S
H562 C567 0.950 . S
H563 C568 0.949 . S
H564 C570 0.950 . S
H565 C571 0.950 . S
H566 C572 0.949 1_556 S
C567 H562 0.950 . S
C567 C569 1.327 . S
C567 C573 1.429 . S
C568 C560 1.574 . S
C568 H563 0.949 . S
C568 C574 1.368 . S
C569 C553 1.349 . S
C569 H561 0.950 . S
C569 C567 1.327 . S
C570 C558 1.349 . S
C570 H564 0.950 . S
C570 C571 1.327 . S
C571 H565 0.950 . S
C571 C570 1.327 . S
C571 C575 1.429 . S
C572 C555 1.574 . S
C572 H566 0.949 1_554 S
C572 C576 1.368 1_554 S
C573 C554 1.429 . S
C573 C567 1.429 . S
C573 C574 1.523 . S
C574 C555 1.368 . S
C574 C568 1.368 . S
C574 C573 1.523 . S
C575 C559 1.429 . S
C575 C571 1.429 . S
C575 C576 1.523 . S
C576 C560 1.368 1_556 S
C576 C572 1.368 1_556 S
C576 C575 1.523 . S
H577 C552 0.950 . S
H578 C554 0.950 . S
H579 C555 0.949 . S
H580 C557 0.950 . S
H581 C559 0.950 . S
C582 C583 1.349 . S
C582 C584 1.327 . S
C582 H607 0.950 1_545 S
C583 C582 1.349 . S
C583 C599 1.349 . S
C584 C582 1.327 . S
C584 C603 1.429 . S
C584 H608 0.950 1_545 S
C585 C602 1.574 . S
C585 C604 1.368 . S
C585 H609 0.949 . S
H586 C590 0.949 1_565 S
C587 C588 1.349 . S
C587 C589 1.327 . S
C587 H610 0.950 . S
C588 C587 1.349 . S
C588 C600 1.349 . S
C589 C587 1.327 . S
C589 C605 1.429 . S
C589 H611 0.950 . S
C590 H586 0.949 1_545 S
C590 C598 1.574 . S
C590 C606 1.368 . S
H591 C599 0.950 . S
H592 C597 0.950 . S
H593 C598 0.949 1_565 S
H594 C600 0.957 . S
H595 C601 0.950 1_565 S
H596 C602 0.949 . S
C597 H592 0.950 . S
C597 C599 1.327 . S
C597 C603 1.429 . S
C598 C590 1.574 . S
C598 H593 0.949 1_545 S
C598 C604 1.368 . S
C599 C583 1.349 . S
C599 H591 0.950 . S
C599 C597 1.327 . S
C600 C588 1.349 . S
C600 H594 0.957 . S
C600 C601 1.327 . S
C601 H595 0.950 1_545 S
C601 C600 1.327 . S
C601 C605 1.429 . S
C602 C585 1.574 . S
C602 H596 0.949 . S
C602 C606 1.368 . S
C603 C584 1.429 . S
C603 C597 1.429 . S
C603 C604 1.523 . S
C604 C585 1.368 . S
C604 C598 1.368 . S
C604 C603 1.523 . S
C605 C589 1.429 . S
C605 C601 1.429 . S
C605 C606 1.523 . S
C606 C590 1.368 . S
C606 C602 1.368 . S
C606 C605 1.523 . S
H607 C582 0.950 1_565 S
H608 C584 0.950 1_565 S
H609 C585 0.949 . S
H610 C587 0.950 . S
H611 C589 0.950 . S
C612 C613 1.349 . S
C612 C614 1.327 . S
C612 H637 0.950 . S
C613 C612 1.349 . S
C613 C629 1.349 . S
C614 C612 1.327 . S
C614 C633 1.429 . S
C614 H638 0.950 . S
C615 C632 1.574 . S
C615 C634 1.368 . S
C615 H639 0.949 . S
H616 C620 0.949 . S
C617 C618 1.349 . S
C617 C619 1.327 . S
C617 H640 0.950 . S
C618 C617 1.349 . S
C618 C630 1.349 . S
C619 C617 1.327 . S
C619 C635 1.429 . S
C619 H641 0.950 . S
C620 H616 0.949 . S
C620 C628 1.574 . S
C620 C636 1.368 . S
H621 C629 0.950 . S
H622 C627 0.950 . S
H623 C628 0.949 . S
H624 C630 0.950 . S
H625 C631 0.950 . S
H626 C632 0.949 . S
C627 H622 0.950 . S
C627 C629 1.327 . S
C627 C633 1.429 . S
C628 C620 1.574 . S
C628 H623 0.949 . S
C628 C634 1.368 . S
C629 C613 1.349 . S
C629 H621 0.950 . S
C629 C627 1.327 . S
C630 C618 1.349 . S
C630 H624 0.950 . S
C630 C631 1.327 . S
C631 H625 0.950 . S
C631 C630 1.327 . S
C631 C635 1.429 . S
C632 C615 1.574 . S
C632 H626 0.949 . S
C632 C636 1.368 . S
C633 C614 1.429 . S
C633 C627 1.429 . S
C633 C634 1.523 . S
C634 C615 1.368 . S
C634 C628 1.368 . S
C634 C633 1.523 . S
C635 C619 1.429 . S
C635 C631 1.429 . S
C635 C636 1.523 . S
C636 C620 1.368 . S
C636 C632 1.368 . S
C636 C635 1.523 . S
H637 C612 0.950 . S
H638 C614 0.950 . S
H639 C615 0.949 . S
H640 C617 0.950 . S
H641 C619 0.950 . S
C642 C643 1.352 1_565 S
C642 C644 1.326 . S
C642 H667 0.947 . S
C643 C642 1.352 1_545 S
C643 C659 1.349 . S
C644 C642 1.326 . S
C644 C663 1.429 1_565 S
C644 H668 0.950 . S
C645 C662 1.574 . S
C645 C664 1.368 . S
C645 H669 0.949 . S
H646 C650 0.949 . S
C647 C648 1.349 . S
C647 C649 1.327 . S
C647 H670 0.950 . S
C648 C647 1.349 . S
C648 C660 1.349 1_545 S
C649 C647 1.327 . S
C649 C665 1.429 . S
C649 H671 0.950 . S
C650 H646 0.949 . S
C650 C658 1.574 . S
C650 C666 1.368 1_565 S
H651 C659 0.950 . S
H652 C657 0.950 . S
H653 C658 0.949 . S
H654 C660 0.950 . S
H655 C661 0.950 . S
H656 C662 0.949 . S
C657 H652 0.950 . S
C657 C659 1.327 . S
C657 C663 1.429 . S
C658 C650 1.574 . S
C658 H653 0.949 . S
C658 C664 1.368 1_565 S
C659 C643 1.349 . S
C659 H651 0.950 . S
C659 C657 1.327 . S
C660 C648 1.349 1_565 S
C660 H654 0.950 . S
C660 C661 1.327 . S
C661 H655 0.950 . S
C661 C660 1.327 . S
C661 C665 1.429 1_565 S
C662 C645 1.574 . S
C662 H656 0.949 . S
C662 C666 1.368 . S
C663 C644 1.429 1_545 S
C663 C657 1.429 . S
C663 C664 1.523 . S
C664 C645 1.368 . S
C664 C658 1.368 1_545 S
C664 C663 1.523 . S
C665 C649 1.429 . S
C665 C661 1.429 1_545 S
C665 C666 1.523 . S
C666 C650 1.368 1_545 S
C666 C662 1.368 . S
C666 C665 1.523 . S
H667 C642 0.947 . S
H668 C644 0.950 . S
H669 C645 0.949 . S
H670 C647 0.950 . S
H671 C649 0.950 . S
C672 C673 1.349 . S
C672 C674 1.327 . S
C672 H697 0.950 . S
C673 C672 1.349 . S
C673 C689 1.349 . S
C674 C672 1.327 . S
C674 C693 1.429 . S
C674 H698 0.950 . S
C675 C692 1.574 . S
C675 C694 1.368 . S
C675 H699 0.949 . S
H676 C680 0.949 1_554 S
C677 C678 1.349 . S
C677 C679 1.327 . S
C677 H700 0.950 . S
C678 C677 1.349 . S
C678 C690 1.349 . S
C679 C677 1.327 . S
C679 C695 1.429 . S
C679 H701 0.950 . S
C680 H676 0.949 1_556 S
C680 C688 1.574 . S
C680 C696 1.368 1_556 S
H681 C689 0.950 . S
H682 C687 0.950 . S
H683 C688 0.949 . S
H684 C690 0.950 . S
H685 C691 0.950 . S
H686 C692 0.949 . S
C687 H682 0.950 . S
C687 C689 1.327 . S
C687 C693 1.429 . S
C688 C680 1.574 . S
C688 H683 0.949 . S
C688 C694 1.368 . S
C689 C673 1.349 . S
C689 H681 0.950 . S
C689 C687 1.327 . S
C690 C678 1.349 . S
C690 H684 0.950 . S
C690 C691 1.327 . S
C691 H685 0.950 . S
C691 C690 1.327 . S
C691 C695 1.429 . S
C692 C675 1.574 . S
C692 H686 0.949 . S
C692 C696 1.368 1_556 S
C693 C674 1.429 . S
C693 C687 1.429 . S
C693 C694 1.523 . S
C694 C675 1.368 . S
C694 C688 1.368 . S
C694 C693 1.523 . S
C695 C679 1.429 . S
C695 C691 1.429 . S
C695 C696 1.523 . S
C696 C680 1.368 1_554 S
C696 C692 1.368 1_554 S
C696 C695 1.523 . S
H697 C672 0.950 . S
H698 C674 0.950 . S
H699 C675 0.949 . S
H700 C677 0.950 . S
H701 C679 0.950 . S
C702 C703 1.349 . S
C702 C704 1.327 . S
C702 H727 0.950 . S
C703 C702 1.349 . S
C703 C719 1.349 . S
C704 C702 1.327 . S
C704 C723 1.429 . S
C704 H728 0.950 1_455 S
C705 C722 1.574 . S
C705 C724 1.368 . S
C705 H729 0.949 . S
H706 C710 0.949 1_655 S
C707 C708 1.349 . S
C707 C709 1.327 . S
C707 H730 0.950 . S
C708 C707 1.349 . S
C708 C720 1.349 1_455 S
C709 C707 1.327 . S
C709 C725 1.429 . S
C709 H731 0.950 . S
C710 H706 0.949 1_455 S
C710 C718 1.574 . S
C710 C726 1.368 . S
H711 C719 0.950 . S
H712 C717 0.950 . S
H713 C718 0.949 1_655 S
H714 C720 0.950 . S
H715 C721 0.950 . S
H716 C722 0.949 . S
C717 H712 0.950 . S
C717 C719 1.327 . S
C717 C723 1.429 . S
C718 C710 1.574 . S
C718 H713 0.949 1_455 S
C718 C724 1.368 . S
C719 C703 1.349 . S
C719 H711 0.950 . S
C719 C717 1.327 . S
C720 C708 1.349 1_655 S
C720 H714 0.950 . S
C720 C721 1.327 . S
C721 H715 0.950 . S
C721 C720 1.327 . S
C721 C725 1.429 1_655 S
C722 C705 1.574 . S
C722 H716 0.949 . S
C722 C726 1.368 . S
C723 C704 1.429 . S
C723 C717 1.429 . S
C723 C724 1.523 . S
C724 C705 1.368 . S
C724 C718 1.368 . S
C724 C723 1.523 . S
C725 C709 1.429 . S
C725 C721 1.429 1_455 S
C725 C726 1.523 . S
C726 C710 1.368 . S
C726 C722 1.368 . S
C726 C725 1.523 . S
H727 C702 0.950 . S
H728 C704 0.950 1_655 S
H729 C705 0.949 . S
H730 C707 0.950 . S
H731 C709 0.950 . S
C193 C7 0.782 . S
C198 C186 0.784 . S
C223 C51 1.922 . S
C228 C160 1.861 . S
C253 C87 1.228 . S
C258 C172 1.215 . S
C283 C16 0.267 . S
C288 C184 0.377 . S
C318 C162 1.822 . S
C313 C42 1.853 . S
C348 C174 1.109 . S
C343 C96 1.119 . S
C373 C47 1.254 . S
C378 C136 1.240 . S
C403 C91 3.399 . S
C408 C150 3.369 1_655 S
C433 C2 1.872 . S
C438 C126 1.850 1_565 S
C468 C138 1.118 . S
C463 C56 1.124 . S
C498 C148 2.565 . S
C493 C82 2.657 . S
C523 C11 1.922 . S
C528 C124 1.866 . S
C558 C153 1.746 . S
C553 C19 1.676 . S
C583 C50 1.430 . S
C588 C129 1.484 . S
C613 C99 1.503 . S
C618 C141 1.523 . S
C648 C177 1.534 . S
C643 C59 1.522 . S
C678 C189 1.286 . S
C673 C90 1.252 . S
C703 C10 1.416 . S
C708 C165 1.450 . S
