# Generated by pormake.
# Topology llk, (3,12)-cn, num edge types: 1
# Building blocks:
#     Node 0, Type 0, BuildingBlock: BELTOD_clean_linker_0, # of connection points: 3
#     Node 1, Type 0, BuildingBlock: BELTOD_clean_linker_0, # of connection points: 3
#     Node 2, Type 0, BuildingBlock: BELTOD_clean_linker_0, # of connection points: 3
#     Node 3, Type 0, BuildingBlock: BELTOD_clean_linker_0, # of connection points: 3
#     Node 4, Type 0, BuildingBlock: BELTOD_clean_linker_0, # of connection points: 3
#     Node 5, Type 0, BuildingBlock: BELTOD_clean_linker_0, # of connection points: 3
#     Node 6, Type 0, BuildingBlock: BELTOD_clean_linker_0, # of connection points: 3
#     Node 7, Type 0, BuildingBlock: BELTOD_clean_linker_0, # of connection points: 3
#     Node 8, Type 0, BuildingBlock: BELTOD_clean_linker_0, # of connection points: 3
#     Node 9, Type 0, BuildingBlock: BELTOD_clean_linker_0, # of connection points: 3
#     Node 10, Type 0, BuildingBlock: BELTOD_clean_linker_0, # of connection points: 3
#     Node 11, Type 0, BuildingBlock: BELTOD_clean_linker_0, # of connection points: 3
#     Node 12, Type 0, BuildingBlock: BELTOD_clean_linker_0, # of connection points: 3
#     Node 13, Type 0, BuildingBlock: BELTOD_clean_linker_0, # of connection points: 3
#     Node 14, Type 0, BuildingBlock: BELTOD_clean_linker_0, # of connection points: 3
#     Node 15, Type 0, BuildingBlock: BELTOD_clean_linker_0, # of connection points: 3
#     Node 16, Type 0, BuildingBlock: BELTOD_clean_linker_0, # of connection points: 3
#     Node 17, Type 0, BuildingBlock: BELTOD_clean_linker_0, # of connection points: 3
#     Node 18, Type 0, BuildingBlock: BELTOD_clean_linker_0, # of connection points: 3
#     Node 19, Type 0, BuildingBlock: BELTOD_clean_linker_0, # of connection points: 3
#     Node 20, Type 0, BuildingBlock: BELTOD_clean_linker_0, # of connection points: 3
#     Node 21, Type 0, BuildingBlock: BELTOD_clean_linker_0, # of connection points: 3
#     Node 22, Type 0, BuildingBlock: BELTOD_clean_linker_0, # of connection points: 3
#     Node 23, Type 0, BuildingBlock: BELTOD_clean_linker_0, # of connection points: 3
#     Node 24, Type 1, BuildingBlock: EZIPEK_clean_sbu_0, # of connection points: 12
#     Node 25, Type 1, BuildingBlock: EZIPEK_clean_sbu_0, # of connection points: 12
#     Node 26, Type 1, BuildingBlock: EZIPEK_clean_sbu_0, # of connection points: 12
#     Node 27, Type 1, BuildingBlock: EZIPEK_clean_sbu_0, # of connection points: 12
#     Node 28, Type 1, BuildingBlock: EZIPEK_clean_sbu_0, # of connection points: 12
#     Node 29, Type 1, BuildingBlock: EZIPEK_clean_sbu_0, # of connection points: 12
#     Edge 30, Type (0, 1), BuildingBlock: ZUJKAS_clean_linker_0, # of connection points: 2
#     Edge 31, Type (0, 1), BuildingBlock: ZUJKAS_clean_linker_0, # of connection points: 2
#     Edge 32, Type (0, 1), BuildingBlock: ZUJKAS_clean_linker_0, # of connection points: 2
#     Edge 33, Type (0, 1), BuildingBlock: ZUJKAS_clean_linker_0, # of connection points: 2
#     Edge 34, Type (0, 1), BuildingBlock: ZUJKAS_clean_linker_0, # of connection points: 2
#     Edge 35, Type (0, 1), BuildingBlock: ZUJKAS_clean_linker_0, # of connection points: 2
#     Edge 36, Type (0, 1), BuildingBlock: ZUJKAS_clean_linker_0, # of connection points: 2
#     Edge 37, Type (0, 1), BuildingBlock: ZUJKAS_clean_linker_0, # of connection points: 2
#     Edge 38, Type (0, 1), BuildingBlock: ZUJKAS_clean_linker_0, # of connection points: 2
#     Edge 39, Type (0, 1), BuildingBlock: ZUJKAS_clean_linker_0, # of connection points: 2
#     Edge 40, Type (0, 1), BuildingBlock: ZUJKAS_clean_linker_0, # of connection points: 2
#     Edge 41, Type (0, 1), BuildingBlock: ZUJKAS_clean_linker_0, # of connection points: 2
#     Edge 42, Type (0, 1), BuildingBlock: ZUJKAS_clean_linker_0, # of connection points: 2
#     Edge 43, Type (0, 1), BuildingBlock: ZUJKAS_clean_linker_0, # of connection points: 2
#     Edge 44, Type (0, 1), BuildingBlock: ZUJKAS_clean_linker_0, # of connection points: 2
#     Edge 45, Type (0, 1), BuildingBlock: ZUJKAS_clean_linker_0, # of connection points: 2
#     Edge 46, Type (0, 1), BuildingBlock: ZUJKAS_clean_linker_0, # of connection points: 2
#     Edge 47, Type (0, 1), BuildingBlock: ZUJKAS_clean_linker_0, # of connection points: 2
#     Edge 48, Type (0, 1), BuildingBlock: ZUJKAS_clean_linker_0, # of connection points: 2
#     Edge 49, Type (0, 1), BuildingBlock: ZUJKAS_clean_linker_0, # of connection points: 2
#     Edge 50, Type (0, 1), BuildingBlock: ZUJKAS_clean_linker_0, # of connection points: 2
#     Edge 51, Type (0, 1), BuildingBlock: ZUJKAS_clean_linker_0, # of connection points: 2
#     Edge 52, Type (0, 1), BuildingBlock: ZUJKAS_clean_linker_0, # of connection points: 2
#     Edge 53, Type (0, 1), BuildingBlock: ZUJKAS_clean_linker_0, # of connection points: 2
#     Edge 54, Type (0, 1), BuildingBlock: ZUJKAS_clean_linker_0, # of connection points: 2
#     Edge 55, Type (0, 1), BuildingBlock: ZUJKAS_clean_linker_0, # of connection points: 2
#     Edge 56, Type (0, 1), BuildingBlock: ZUJKAS_clean_linker_0, # of connection points: 2
#     Edge 57, Type (0, 1), BuildingBlock: ZUJKAS_clean_linker_0, # of connection points: 2
#     Edge 58, Type (0, 1), BuildingBlock: ZUJKAS_clean_linker_0, # of connection points: 2
#     Edge 59, Type (0, 1), BuildingBlock: ZUJKAS_clean_linker_0, # of connection points: 2
#     Edge 60, Type (0, 1), BuildingBlock: ZUJKAS_clean_linker_0, # of connection points: 2
#     Edge 61, Type (0, 1), BuildingBlock: ZUJKAS_clean_linker_0, # of connection points: 2
#     Edge 62, Type (0, 1), BuildingBlock: ZUJKAS_clean_linker_0, # of connection points: 2
#     Edge 63, Type (0, 1), BuildingBlock: ZUJKAS_clean_linker_0, # of connection points: 2
#     Edge 64, Type (0, 1), BuildingBlock: ZUJKAS_clean_linker_0, # of connection points: 2
#     Edge 65, Type (0, 1), BuildingBlock: ZUJKAS_clean_linker_0, # of connection points: 2
#     Edge 66, Type (0, 1), BuildingBlock: ZUJKAS_clean_linker_0, # of connection points: 2
#     Edge 67, Type (0, 1), BuildingBlock: ZUJKAS_clean_linker_0, # of connection points: 2
#     Edge 68, Type (0, 1), BuildingBlock: ZUJKAS_clean_linker_0, # of connection points: 2
#     Edge 69, Type (0, 1), BuildingBlock: ZUJKAS_clean_linker_0, # of connection points: 2
#     Edge 70, Type (0, 1), BuildingBlock: ZUJKAS_clean_linker_0, # of connection points: 2
#     Edge 71, Type (0, 1), BuildingBlock: ZUJKAS_clean_linker_0, # of connection points: 2
#     Edge 72, Type (0, 1), BuildingBlock: ZUJKAS_clean_linker_0, # of connection points: 2
#     Edge 73, Type (0, 1), BuildingBlock: ZUJKAS_clean_linker_0, # of connection points: 2
#     Edge 74, Type (0, 1), BuildingBlock: ZUJKAS_clean_linker_0, # of connection points: 2
#     Edge 75, Type (0, 1), BuildingBlock: ZUJKAS_clean_linker_0, # of connection points: 2
#     Edge 76, Type (0, 1), BuildingBlock: ZUJKAS_clean_linker_0, # of connection points: 2
#     Edge 77, Type (0, 1), BuildingBlock: ZUJKAS_clean_linker_0, # of connection points: 2
#     Edge 78, Type (0, 1), BuildingBlock: ZUJKAS_clean_linker_0, # of connection points: 2
#     Edge 79, Type (0, 1), BuildingBlock: ZUJKAS_clean_linker_0, # of connection points: 2
#     Edge 80, Type (0, 1), BuildingBlock: ZUJKAS_clean_linker_0, # of connection points: 2
#     Edge 81, Type (0, 1), BuildingBlock: ZUJKAS_clean_linker_0, # of connection points: 2
#     Edge 82, Type (0, 1), BuildingBlock: ZUJKAS_clean_linker_0, # of connection points: 2
#     Edge 83, Type (0, 1), BuildingBlock: ZUJKAS_clean_linker_0, # of connection points: 2
#     Edge 84, Type (0, 1), BuildingBlock: ZUJKAS_clean_linker_0, # of connection points: 2
#     Edge 85, Type (0, 1), BuildingBlock: ZUJKAS_clean_linker_0, # of connection points: 2
#     Edge 86, Type (0, 1), BuildingBlock: ZUJKAS_clean_linker_0, # of connection points: 2
#     Edge 87, Type (0, 1), BuildingBlock: ZUJKAS_clean_linker_0, # of connection points: 2
#     Edge 88, Type (0, 1), BuildingBlock: ZUJKAS_clean_linker_0, # of connection points: 2
#     Edge 89, Type (0, 1), BuildingBlock: ZUJKAS_clean_linker_0, # of connection points: 2
#     Edge 90, Type (0, 1), BuildingBlock: ZUJKAS_clean_linker_0, # of connection points: 2
#     Edge 91, Type (0, 1), BuildingBlock: ZUJKAS_clean_linker_0, # of connection points: 2
#     Edge 92, Type (0, 1), BuildingBlock: ZUJKAS_clean_linker_0, # of connection points: 2
#     Edge 93, Type (0, 1), BuildingBlock: ZUJKAS_clean_linker_0, # of connection points: 2
#     Edge 94, Type (0, 1), BuildingBlock: ZUJKAS_clean_linker_0, # of connection points: 2
#     Edge 95, Type (0, 1), BuildingBlock: ZUJKAS_clean_linker_0, # of connection points: 2
#     Edge 96, Type (0, 1), BuildingBlock: ZUJKAS_clean_linker_0, # of connection points: 2
#     Edge 97, Type (0, 1), BuildingBlock: ZUJKAS_clean_linker_0, # of connection points: 2
#     Edge 98, Type (0, 1), BuildingBlock: ZUJKAS_clean_linker_0, # of connection points: 2
#     Edge 99, Type (0, 1), BuildingBlock: ZUJKAS_clean_linker_0, # of connection points: 2
#     Edge 100, Type (0, 1), BuildingBlock: ZUJKAS_clean_linker_0, # of connection points: 2
#     Edge 101, Type (0, 1), BuildingBlock: ZUJKAS_clean_linker_0, # of connection points: 2
# Relax obj value: 0.097
# Max RMSD: 0.145
# Mean RMSD: 0.122
data_MOF--net-llk--node1-EZIPEK_clean_sbu_0--node2-BELTOD_clean_linker_0--edge1-ZUJKAS_clean_linker_0
_symmetry_space_group_name_H-M    P1
_symmetry_Int_Tables_number       1
_symmetry_cell_setting            triclinic
loop_
_symmetry_equiv_pos_as_xyz
'x, y, z'
_cell_length_a     65.314032
_cell_length_b     65.477657
_cell_length_c     65.221844
_cell_angle_alpha  90.003626
_cell_angle_beta   89.992599
_cell_angle_gamma 90.0037
loop_
_atom_site_label
_atom_site_type_symbol
_atom_site_fract_x
_atom_site_fract_y
_atom_site_fract_z
_atom_type_partial_charge
P0 P 0.9616 0.25059 0.24926 0.0
H1 H 0.95138 0.25376 0.20574 0.0
H2 H 0.96413 0.27647 0.17911 0.0
H3 H 0.01453 0.29389 0.21829 0.0
H4 H 0.00153 0.27117 0.24503 0.0
H5 H 0.93914 0.21801 0.26889 0.0
H6 H 0.94962 0.18976 0.29049 0.0
H7 H 0.013 0.20231 0.2763 0.0
H8 H 0.00221 0.23087 0.25431 0.0
H9 H 0.93555 0.28517 0.26072 0.0
H10 H 0.99188 0.25775 0.28166 0.0
O11 O 0.93701 0.24822 0.24266 0.0
H12 H 0.93903 0.31185 0.28688 0.0
H13 H 0.99531 0.28408 0.30766 0.0
C14 C 0.97527 0.26097 0.22757 0.0
C15 C 0.96552 0.26196 0.20844 0.0
C16 C 0.97287 0.27501 0.19314 0.0
C17 C 0.99014 0.28736 0.19669 0.0
C18 C 0.00092 0.28494 0.21522 0.0
C19 C 0.99359 0.27178 0.23049 0.0
C20 C 0.96985 0.22642 0.25971 0.0
C21 C 0.95527 0.2143 0.26974 0.0
C22 C 0.96132 0.19808 0.2822 0.0
C23 C 0.98218 0.19374 0.28521 0.0
C24 C 0.99681 0.20534 0.2744 0.0
C25 C 0.99067 0.22151 0.26165 0.0
C26 C 0.96321 0.2692 0.26948 0.0
C27 C 0.94848 0.28469 0.2711 0.0
C28 C 0.95048 0.29991 0.28601 0.0
C29 C 0.96746 0.30002 0.29925 0.0
C30 C 0.98216 0.28447 0.29755 0.0
C31 C 0.98007 0.26925 0.28279 0.0
P32 P 0.75534 0.96187 0.24931 0.0
H33 H 0.75352 0.9524 0.20555 0.0
H34 H 0.73152 0.96548 0.17841 0.0
H35 H 0.71227 0.01474 0.21804 0.0
H36 H 0.7343 0.00146 0.24524 0.0
H37 H 0.78787 0.93941 0.26911 0.0
H38 H 0.81636 0.94987 0.29052 0.0
H39 H 0.80396 0.01307 0.27605 0.0
H40 H 0.77517 0.0023 0.25429 0.0
H41 H 0.72028 0.93617 0.26015 0.0
H42 H 0.74828 0.99174 0.28207 0.0
O43 O 0.75766 0.93737 0.24259 0.0
H44 H 0.69337 0.93962 0.28614 0.0
H45 H 0.7217 0.99515 0.3079 0.0
C46 C 0.7453 0.9757 0.22759 0.0
C47 C 0.74506 0.96636 0.20825 0.0
C48 C 0.73243 0.9739 0.19268 0.0
C49 C 0.71978 0.99094 0.19618 0.0
C50 C 0.72148 0.00133 0.215 0.0
C51 C 0.73422 0.99382 0.23053 0.0
C52 C 0.77954 0.97003 0.25983 0.0
C53 C 0.79166 0.95549 0.26988 0.0
C54 C 0.808 0.96153 0.28222 0.0
C55 C 0.81247 0.98233 0.28506 0.0
C56 C 0.80084 0.99692 0.27426 0.0
C57 C 0.78454 0.99079 0.26165 0.0
C58 C 0.73655 0.96345 0.26942 0.0
C59 C 0.72084 0.94892 0.27071 0.0
C60 C 0.70548 0.9509 0.28553 0.0
C61 C 0.70546 0.96766 0.299 0.0
C62 C 0.72123 0.98217 0.29761 0.0
C63 C 0.7366 0.98009 0.28294 0.0
P64 P 0.04559 0.75345 0.24961 0.0
H65 H 0.05616 0.75111 0.20613 0.0
H66 H 0.04268 0.72971 0.17879 0.0
H67 H 0.99086 0.714 0.21682 0.0
H68 H 0.00457 0.73544 0.24427 0.0
H69 H 0.06878 0.78183 0.274 0.0
H70 H 0.05889 0.80935 0.29697 0.0
H71 H 0.9963 0.80422 0.27634 0.0
H72 H 0.00644 0.77642 0.25296 0.0
H73 H 0.0703 0.71753 0.25995 0.0
H74 H 0.01466 0.7461 0.28118 0.0
O75 O 0.0703 0.75514 0.24324 0.0
H76 H 0.06582 0.69029 0.28536 0.0
H77 H 0.01019 0.71913 0.30646 0.0
C78 C 0.03159 0.74465 0.22743 0.0
C79 C 0.04156 0.74363 0.20842 0.0
C80 C 0.03379 0.73132 0.19271 0.0
C81 C 0.01588 0.71976 0.19574 0.0
C82 C 0.00493 0.72235 0.21415 0.0
C83 C 0.01268 0.73477 0.22982 0.0
C84 C 0.03843 0.77726 0.2615 0.0
C85 C 0.05302 0.78698 0.27386 0.0
C86 C 0.04731 0.80257 0.28722 0.0
C87 C 0.02678 0.80874 0.28868 0.0
C88 C 0.01226 0.7998 0.27548 0.0
C89 C 0.01804 0.78402 0.26205 0.0
C90 C 0.04304 0.73404 0.26894 0.0
C91 C 0.05727 0.71808 0.27021 0.0
C92 C 0.05471 0.70255 0.2847 0.0
C93 C 0.03766 0.70263 0.29785 0.0
C94 C 0.02338 0.71859 0.2964 0.0
C95 C 0.02605 0.73414 0.28207 0.0
P96 P 0.2504 0.96363 0.24949 0.0
H97 H 0.20628 0.95592 0.2513 0.0
H98 H 0.17987 0.96882 0.27429 0.0
H99 H 0.22213 0.01415 0.29728 0.0
H100 H 0.24868 1.00077 0.27456 0.0
H101 H 0.25925 0.9488 0.20823 0.0
H102 H 0.28175 0.96172 0.18151 0.0
H103 H 0.28915 0.01805 0.21519 0.0
H104 H 0.26656 0.00489 0.24209 0.0
H105 H 0.2489 0.95302 0.29289 0.0
H106 H 0.29552 0.96728 0.2482 0.0
O107 O 0.24241 0.94025 0.24317 0.0
H108 H 0.27483 0.95273 0.31988 0.0
H109 H 0.32121 0.96784 0.27508 0.0
C110 C 0.22951 0.97729 0.26128 0.0
C111 C 0.20973 0.96899 0.26087 0.0
C112 C 0.19458 0.97644 0.27404 0.0
C113 C 0.19895 0.99234 0.28789 0.0
C114 C 0.21836 0.00165 0.28708 0.0
C115 C 0.23349 0.9942 0.27387 0.0
C116 C 0.26107 0.97591 0.22715 0.0
C117 C 0.26509 0.96421 0.2096 0.0
C118 C 0.27802 0.97164 0.19426 0.0
C119 C 0.28741 0.99086 0.19629 0.0
C120 C 0.28232 0.0031 0.21329 0.0
C121 C 0.26919 0.9957 0.22856 0.0
C122 C 0.2701 0.96087 0.26864 0.0
C123 C 0.26469 0.9561 0.28887 0.0
C124 C 0.27951 0.95605 0.30431 0.0
C125 C 0.30005 0.96063 0.29972 0.0
C126 C 0.30556 0.96422 0.27918 0.0
C127 C 0.29075 0.96416 0.26377 0.0
P128 P 0.96276 0.75682 0.75376 0.0
H129 H 0.94867 0.75401 0.79625 0.0
H130 H 0.95826 0.73092 0.82395 0.0
H131 H 0.01027 0.71039 0.78863 0.0
H132 H 1.00067 0.73375 0.76096 0.0
H133 H 0.95108 0.79954 0.74795 0.0
H134 H 0.96485 0.82601 0.72573 0.0
H135 H 0.0178 0.78842 0.71346 0.0
H136 H 0.00376 0.76176 0.73576 0.0
H137 H 0.95498 0.71288 0.7561 0.0
H138 H 0.96623 0.75746 0.70866 0.0
O139 O 0.93871 0.76373 0.75899 0.0
H140 H 0.95614 0.68566 0.73061 0.0
H141 H 0.96829 0.73032 0.68332 0.0
C142 C 0.9739 0.74558 0.77646 0.0
C143 C 0.9625 0.74504 0.79466 0.0
C144 C 0.96789 0.73164 0.81044 0.0
C145 C 0.98477 0.71848 0.80832 0.0
C146 C 0.9972 0.72033 0.79078 0.0
C147 C 0.99178 0.73379 0.77497 0.0
C148 C 0.97633 0.77858 0.74349 0.0
C149 C 0.96597 0.79718 0.74106 0.0
C150 C 0.9739 0.81239 0.72829 0.0
C151 C 0.99231 0.80924 0.71757 0.0
C152 C 0.00344 0.7912 0.72128 0.0
C153 C 0.99557 0.77605 0.73425 0.0
C154 C 0.96149 0.73714 0.73448 0.0
C155 C 0.95789 0.71683 0.74024 0.0
C156 C 0.95861 0.70125 0.72565 0.0
C157 C 0.96276 0.70574 0.70498 0.0
C158 C 0.9651 0.72628 0.69909 0.0
C159 C 0.96423 0.74185 0.71369 0.0
P160 P 0.24928 0.96432 0.75571 0.0
H161 H 0.25132 0.95483 0.79953 0.0
H162 H 0.27415 0.96697 0.82643 0.0
H163 H 0.29606 0.01454 0.78607 0.0
H164 H 0.27346 0.00194 0.75901 0.0
H165 H 0.20759 0.95017 0.74789 0.0
H166 H 0.18089 0.96303 0.72535 0.0
H167 H 0.21561 0.01839 0.71589 0.0
H168 H 0.24249 0.00528 0.73852 0.0
H169 H 0.29297 0.95511 0.75764 0.0
H170 H 0.24828 0.96755 0.71051 0.0
O171 O 0.24295 0.94069 0.76293 0.0
H172 H 0.32012 0.95547 0.73191 0.0
H173 H 0.2753 0.96879 0.68498 0.0
C174 C 0.26072 0.97741 0.7772 0.0
C175 C 0.26058 0.96824 0.79662 0.0
C176 C 0.27368 0.97524 0.81205 0.0
C177 C 0.2872 0.99157 0.80834 0.0
C178 C 0.28612 0.00171 0.78933 0.0
C179 C 0.27296 0.9947 0.77392 0.0
C180 C 0.22706 0.97678 0.74499 0.0
C181 C 0.20922 0.96537 0.74157 0.0
C182 C 0.19389 0.97277 0.72861 0.0
C183 C 0.19619 0.99166 0.71862 0.0
C184 C 0.21348 0.00367 0.72317 0.0
C185 C 0.22875 0.99632 0.73633 0.0
C186 C 0.26869 0.96211 0.73618 0.0
C187 C 0.28899 0.95799 0.74179 0.0
C188 C 0.30451 0.9583 0.72707 0.0
C189 C 0.29996 0.96256 0.70643 0.0
C190 C 0.2794 0.96545 0.70072 0.0
C191 C 0.26389 0.96502 0.71543 0.0
P192 P 0.03967 0.24893 0.75604 0.0
H193 H 0.05048 0.25183 0.7995 0.0
H194 H 0.03873 0.27475 0.82645 0.0
H195 H 0.98942 0.29517 0.78735 0.0
H196 H 0.0015 0.27229 0.76025 0.0
H197 H 0.05255 0.20644 0.7509 0.0
H198 H 0.04002 0.17945 0.72855 0.0
H199 H 0.98664 0.21577 0.71437 0.0
H200 H 0.99947 0.24295 0.73674 0.0
H201 H 0.04482 0.29342 0.75714 0.0
H202 H 0.04036 0.24637 0.71097 0.0
O203 O 0.06347 0.24256 0.76282 0.0
H204 H 0.0436 0.31953 0.73046 0.0
H205 H 0.03938 0.2724 0.68428 0.0
C206 C 0.02696 0.2604 0.77778 0.0
C207 C 0.03678 0.26076 0.79688 0.0
C208 C 0.03001 0.27392 0.81235 0.0
C209 C 0.0133 0.28706 0.80897 0.0
C210 C 0.00254 0.2855 0.79033 0.0
C211 C 0.00926 0.27221 0.77491 0.0
C212 C 0.02696 0.22677 0.74554 0.0
C213 C 0.03782 0.2084 0.74356 0.0
C214 C 0.0306 0.1929 0.7307 0.0
C215 C 0.01243 0.19553 0.71943 0.0
C216 C 1.00084 0.21338 0.72261 0.0
C217 C 0.00801 0.22883 0.73563 0.0
C218 C 0.04164 0.26796 0.73616 0.0
C219 C 0.04358 0.28867 0.74129 0.0
C220 C 0.0431 0.3036 0.726 0.0
C221 C 0.04097 0.29801 0.7053 0.0
C222 C 0.04045 0.27718 0.70014 0.0
C223 C 0.04098 0.26228 0.71544 0.0
P224 P 0.75573 0.0487 0.75454 0.0
H225 H 0.75174 0.06329 0.79671 0.0
H226 H 0.72905 0.05276 0.8244 0.0
H227 H 0.71247 0.9988 0.79011 0.0
H228 H 0.7356 0.00931 0.76247 0.0
H229 H 0.79813 0.06262 0.75142 0.0
H230 H 0.82621 0.0514 0.7296 0.0
H231 H 0.79154 0.99782 0.71262 0.0
H232 H 0.76356 0.00897 0.73497 0.0
H233 H 0.71083 0.05008 0.75608 0.0
H234 H 0.75776 0.04803 0.70949 0.0
O235 O 0.76076 0.07323 0.75936 0.0
H236 H 0.68458 0.04647 0.72976 0.0
H237 H 0.73152 0.04464 0.68311 0.0
C238 C 0.74524 0.03719 0.7774 0.0
C239 C 0.74376 0.04886 0.79535 0.0
C240 C 0.73058 0.04293 0.81113 0.0
C241 C 0.71853 0.02522 0.80923 0.0
C242 C 0.7215 0.01254 0.79205 0.0
C243 C 0.7348 0.01848 0.77626 0.0
C244 C 0.77862 0.03676 0.74467 0.0
C245 C 0.79675 0.04814 0.74354 0.0
C246 C 0.81276 0.04181 0.73083 0.0
C247 C 0.81091 0.02401 0.7189 0.0
C248 C 0.79348 0.01163 0.72155 0.0
C249 C 0.77747 0.01794 0.73441 0.0
C250 C 0.73633 0.04823 0.73489 0.0
C251 C 0.71554 0.04875 0.74022 0.0
C252 C 0.7005 0.04692 0.72513 0.0
C253 C 0.70602 0.04487 0.70441 0.0
C254 C 0.72684 0.04563 0.69901 0.0
C255 C 0.74185 0.04752 0.71412 0.0
P256 P 0.2507 0.24929 0.95763 0.0
H257 H 0.2496 0.20604 0.94677 0.0
H258 H 0.27102 0.17763 0.95791 0.0
H259 H 0.29387 0.21431 0.00797 0.0
H260 H 0.27202 0.24254 0.99702 0.0
H261 H 0.21887 0.26898 0.93402 0.0
H262 H 0.19146 0.2921 0.94344 0.0
H263 H 0.20311 0.28011 0.00751 0.0
H264 H 0.23029 0.25597 0.9978 0.0
H265 H 0.28583 0.26074 0.93216 0.0
H266 H 0.25929 0.27948 0.98977 0.0
O267 O 0.24897 0.24355 0.93274 0.0
H268 H 0.31332 0.28579 0.93677 0.0
H269 H 0.28643 0.30441 0.99431 0.0
C270 C 0.25953 0.22664 0.97074 0.0
C271 C 0.25869 0.20781 0.96054 0.0
C272 C 0.27114 0.1916 0.96681 0.0
C273 C 0.28465 0.19391 0.98345 0.0
C274 C 0.28377 0.21205 0.995 0.0
C275 C 0.27125 0.22827 0.98871 0.0
C276 C 0.22666 0.26065 0.96519 0.0
C277 C 0.21516 0.27068 0.95011 0.0
C278 C 0.19962 0.28423 0.95554 0.0
C279 C 0.19544 0.28844 0.97625 0.0
C280 C 0.20597 0.27726 0.99141 0.0
C281 C 0.22147 0.26342 0.98589 0.0
C282 C 0.27022 0.26849 0.96039 0.0
C283 C 0.28572 0.27038 0.94564 0.0
C284 C 0.30142 0.28467 0.94828 0.0
C285 C 0.30198 0.29702 0.9659 0.0
C286 C 0.28647 0.29498 0.98066 0.0
C287 C 0.27077 0.28085 0.97794 0.0
P288 P 0.25188 0.75296 0.95615 0.0
H289 H 0.20873 0.75407 0.94439 0.0
H290 H 0.18002 0.73279 0.95523 0.0
H291 H 0.21585 0.71058 0.00622 0.0
H292 H 0.24441 0.73224 0.9955 0.0
H293 H 0.27684 0.78065 0.9328 0.0
H294 H 0.29808 0.8094 0.94213 0.0
H295 H 0.2731 0.808 0.00354 0.0
H296 H 0.25218 0.77825 0.994 0.0
H297 H 0.25616 0.71107 0.94205 0.0
H298 H 0.28936 0.75241 0.98141 0.0
O299 O 0.2472 0.75292 0.93099 0.0
H300 H 0.28101 0.68414 0.9496 0.0
H301 H 0.31445 0.72598 0.98845 0.0
C302 C 0.22886 0.7445 0.96891 0.0
C303 C 0.2102 0.74519 0.95832 0.0
C304 C 0.19385 0.7328 0.96441 0.0
C305 C 0.19584 0.71951 0.98125 0.0
C306 C 0.2138 0.72054 0.99313 0.0
C307 C 0.23017 0.73298 0.98702 0.0
C308 C 0.26252 0.77759 0.96253 0.0
C309 C 0.27538 0.78689 0.94811 0.0
C310 C 0.28761 0.80346 0.95353 0.0
C311 C 0.28737 0.81128 0.97362 0.0
C312 C 0.27387 0.80234 0.98797 0.0
C313 C 0.26162 0.78554 0.98248 0.0
C314 C 0.27109 0.73384 0.96082 0.0
C315 C 0.26896 0.71443 0.95205 0.0
C316 C 0.28318 0.69909 0.95636 0.0
C317 C 0.29974 0.70294 0.9696 0.0
C318 C 0.30174 0.72244 0.97839 0.0
C319 C 0.28747 0.7377 0.97415 0.0
P320 P 0.75616 0.24958 0.9639 0.0
H321 H 0.80009 0.25204 0.95525 0.0
H322 H 0.82633 0.27546 0.96752 0.0
H323 H 0.78485 0.29738 0.0142 0.0
H324 H 0.75844 0.27412 0.00149 0.0
H325 H 0.74917 0.20777 0.94989 0.0
H326 H 0.72654 0.18102 0.96234 0.0
H327 H 0.71494 0.21609 0.01722 0.0
H328 H 0.73769 0.24303 0.00453 0.0
H329 H 0.75817 0.29301 0.95402 0.0
H330 H 0.71095 0.2485 0.96619 0.0
O331 O 0.76399 0.24309 0.94042 0.0
H332 H 0.73244 0.32004 0.9536 0.0
H333 H 0.6854 0.27542 0.96666 0.0
C334 C 0.77724 0.26135 0.97738 0.0
C335 C 0.79679 0.26142 0.96851 0.0
C336 C 0.81185 0.27487 0.97559 0.0
C337 C 0.80763 0.28857 0.99167 0.0
C338 C 0.7885 0.2873 0.00155 0.0
C339 C 0.77347 0.27377 0.99449 0.0
C340 C 0.74523 0.22743 0.97629 0.0
C341 C 0.74235 0.20948 0.96492 0.0
C342 C 0.72933 0.19412 0.97208 0.0
C343 C 0.71873 0.19648 0.9907 0.0
C344 C 0.72269 0.21391 0.00271 0.0
C345 C 0.73592 0.22921 0.9956 0.0
C346 C 0.73666 0.26883 0.96097 0.0
C347 C 0.74229 0.28904 0.95667 0.0
C348 C 0.72757 0.3045 0.95652 0.0
C349 C 0.7069 0.29998 0.96051 0.0
C350 C 0.70117 0.27949 0.96353 0.0
C351 C 0.71589 0.26404 0.96355 0.0
P352 P 0.75509 0.75613 0.03776 0.0
H353 H 0.7994 0.76059 0.04224 0.0
H354 H 0.82768 0.73897 0.03086 0.0
H355 H 0.7858 0.70474 0.99273 0.0
H356 H 0.75796 0.72694 0.00342 0.0
H357 H 0.7382 0.79105 0.05912 0.0
H358 H 0.71716 0.81949 0.04779 0.0
H359 H 0.72698 0.80187 0.98475 0.0
H360 H 0.74864 0.77336 0.99632 0.0
H361 H 0.74494 0.72185 0.06469 0.0
H362 H 0.72063 0.74919 0.00963 0.0
O363 O 0.76244 0.75937 0.06206 0.0
H364 H 0.71884 0.69501 0.06267 0.0
H365 H 0.69469 0.72273 0.00766 0.0
C366 C 0.77645 0.74513 0.02408 0.0
C367 C 0.79644 0.74884 0.03093 0.0
C368 C 0.81257 0.73626 0.0246 0.0
C369 C 0.80898 0.71965 0.01133 0.0
C370 C 0.78924 0.71728 0.00299 0.0
C371 C 0.77317 0.72999 0.00921 0.0
C372 C 0.7452 0.78018 0.02858 0.0
C373 C 0.73654 0.79369 0.04282 0.0
C374 C 0.72441 0.80998 0.03631 0.0
C375 C 0.72031 0.8129 0.01537 0.0
C376 C 0.7298 0.79993 0.001 0.0
C377 C 0.74232 0.78378 0.00757 0.0
C378 C 0.73452 0.73782 0.03758 0.0
C379 C 0.7338 0.72233 0.05241 0.0
C380 C 0.71892 0.70701 0.05123 0.0
C381 C 0.7048 0.70679 0.03498 0.0
C382 C 0.7055 0.72242 0.02026 0.0
C383 C 0.72023 0.73775 0.02154 0.0
P384 P 0.46152 0.7488 0.75241 0.0
H385 H 0.44922 0.75046 0.7093 0.0
H386 H 0.45932 0.77333 0.68158 0.0
H387 H 0.50898 0.79624 0.71879 0.0
H388 H 0.49891 0.77305 0.74644 0.0
H389 H 0.44787 0.70697 0.75986 0.0
H390 H 0.46116 0.68035 0.78215 0.0
H391 H 0.51658 0.71526 0.79106 0.0
H392 H 0.503 0.7421 0.76865 0.0
H393 H 0.45287 0.79254 0.75078 0.0
H394 H 0.46636 0.74776 0.79744 0.0
O395 O 0.43741 0.74255 0.74669 0.0
H396 H 0.45415 0.81954 0.77655 0.0
H397 H 0.46854 0.77465 0.82298 0.0
C398 C 0.47321 0.76013 0.73003 0.0
C399 C 0.46265 0.75994 0.71133 0.0
C400 C 0.46832 0.77321 0.69553 0.0
C401 C 0.48467 0.78697 0.69814 0.0
C402 C 0.49632 0.78585 0.71626 0.0
C403 C 0.49064 0.77251 0.73207 0.0
C404 C 0.47442 0.72658 0.76255 0.0
C405 C 0.46317 0.70867 0.76599 0.0
C406 C 0.47083 0.69338 0.77882 0.0
C407 C 0.48985 0.69576 0.78863 0.0
C408 C 0.50175 0.71308 0.78395 0.0
C409 C 0.49414 0.72832 0.77091 0.0
C410 C 0.4604 0.76821 0.77196 0.0
C411 C 0.45626 0.78851 0.76652 0.0
C412 C 0.45707 0.80395 0.78126 0.0
C413 C 0.46185 0.79933 0.80177 0.0
C414 C 0.46482 0.77879 0.80734 0.0
C415 C 0.46387 0.76336 0.79261 0.0
P416 P 0.25675 0.46329 0.75119 0.0
H417 H 0.25808 0.45563 0.707 0.0
H418 H 0.23593 0.467 0.67915 0.0
H419 H 0.20653 0.50961 0.72038 0.0
H420 H 0.22944 0.49879 0.74784 0.0
H421 H 0.29866 0.44941 0.75828 0.0
H422 H 0.32557 0.46255 0.78041 0.0
H423 H 0.29077 0.51788 0.78977 0.0
H424 H 0.26366 0.50446 0.76752 0.0
H425 H 0.21257 0.4556 0.75097 0.0
H426 H 0.25976 0.46537 0.79628 0.0
O427 O 0.26292 0.43956 0.74419 0.0
H428 H 0.18655 0.45727 0.77782 0.0
H429 H 0.23389 0.46677 0.8231 0.0
C430 C 0.24511 0.47605 0.7296 0.0
C431 C 0.24726 0.46783 0.7099 0.0
C432 C 0.23438 0.4742 0.69402 0.0
C433 C 0.21894 0.4888 0.69761 0.0
C434 C 0.21815 0.49832 0.71696 0.0
C435 C 0.23126 0.49212 0.73276 0.0
C436 C 0.27915 0.47598 0.76117 0.0
C437 C 0.29708 0.46467 0.76445 0.0
C438 C 0.31252 0.47223 0.77718 0.0
C439 C 0.31024 0.49118 0.78706 0.0
C440 C 0.29287 0.50312 0.78258 0.0
C441 C 0.27749 0.49559 0.76965 0.0
C442 C 0.23803 0.46138 0.77143 0.0
C443 C 0.21736 0.45805 0.76668 0.0
C444 C 0.2025 0.45882 0.78207 0.0
C445 C 0.20815 0.4626 0.80251 0.0
C446 C 0.22903 0.46443 0.80739 0.0
C447 C 0.24385 0.46366 0.792 0.0
P448 P 0.55072 0.25332 0.74958 0.0
H449 H 0.56325 0.2534 0.70658 0.0
H450 H 0.55214 0.2323 0.67784 0.0
H451 H 0.49983 0.21226 0.71302 0.0
H452 H 0.51079 0.2338 0.74157 0.0
H453 H 0.57334 0.28021 0.77594 0.0
H454 H 0.56378 0.30897 0.7971 0.0
H455 H 0.50318 0.30848 0.77036 0.0
H456 H 0.51295 0.27876 0.74943 0.0
H457 H 0.57254 0.21599 0.76086 0.0
H458 H 0.51816 0.24818 0.78 0.0
O459 O 0.57586 0.2538 0.74493 0.0
H460 H 0.56551 0.18929 0.78619 0.0
H461 H 0.51117 0.22173 0.80535 0.0
C462 C 0.53812 0.24488 0.72643 0.0
C463 C 0.54902 0.24502 0.70792 0.0
C464 C 0.54276 0.23274 0.69154 0.0
C465 C 0.52543 0.2201 0.69335 0.0
C466 C 0.51332 0.2217 0.71113 0.0
C467 C 0.5196 0.23405 0.72752 0.0
C468 C 0.54404 0.27763 0.76071 0.0
C469 C 0.55816 0.28662 0.77411 0.0
C470 C 0.55262 0.3032 0.78628 0.0
C471 C 0.5327 0.31132 0.78544 0.0
C472 C 0.51862 0.3026 0.77153 0.0
C473 C 0.52424 0.2858 0.75932 0.0
C474 C 0.54613 0.23427 0.76887 0.0
C475 C 0.55925 0.21745 0.77068 0.0
C476 C 0.55523 0.20223 0.78514 0.0
C477 C 0.53783 0.20349 0.79777 0.0
C478 C 0.52462 0.2203 0.79574 0.0
C479 C 0.52873 0.23554 0.78138 0.0
P480 P 0.74972 0.46357 0.74926 0.0
H481 H 0.70612 0.45366 0.75164 0.0
H482 H 0.67921 0.46614 0.77427 0.0
H483 H 0.71876 0.5152 0.79412 0.0
H484 H 0.74575 0.50249 0.7715 0.0
H485 H 0.7682 0.44256 0.7149 0.0
H486 H 0.78915 0.45437 0.68649 0.0
H487 H 0.77596 0.51691 0.70286 0.0
H488 H 0.75445 0.50484 0.73133 0.0
H489 H 0.76033 0.43772 0.78428 0.0
H490 H 0.78311 0.49285 0.75608 0.0
O491 O 0.74321 0.43909 0.74624 0.0
H492 H 0.78607 0.44109 0.81146 0.0
H493 H 0.80867 0.49615 0.78286 0.0
C494 C 0.7281 0.4769 0.76011 0.0
C495 C 0.70885 0.46744 0.76039 0.0
C496 C 0.69341 0.47464 0.77337 0.0
C497 C 0.69696 0.49146 0.78633 0.0
C498 C 0.71569 0.50195 0.78466 0.0
C499 C 0.73109 0.49478 0.77159 0.0
C500 C 0.75956 0.47279 0.72514 0.0
C501 C 0.76911 0.45881 0.71198 0.0
C502 C 0.78118 0.4656 0.69571 0.0
C503 C 0.7843 0.48658 0.69247 0.0
C504 C 0.7739 0.50064 0.70506 0.0
C505 C 0.76146 0.49377 0.72119 0.0
C506 C 0.77002 0.46478 0.76788 0.0
C507 C 0.77106 0.45032 0.7837 0.0
C508 C 0.78573 0.45226 0.79921 0.0
C509 C 0.7993 0.46892 0.79926 0.0
C510 C 0.79828 0.48326 0.78331 0.0
C511 C 0.78375 0.48123 0.76781 0.0
P512 P 0.46259 0.25585 0.25506 0.0
H513 H 0.44824 0.25222 0.29738 0.0
H514 H 0.45793 0.229 0.3249 0.0
H515 H 0.51027 0.20924 0.2896 0.0
H516 H 0.50062 0.23284 0.26216 0.0
H517 H 0.45197 0.29895 0.24997 0.0
H518 H 0.46571 0.325 0.22725 0.0
H519 H 0.51739 0.28611 0.21365 0.0
H520 H 0.5033 0.25985 0.23632 0.0
H521 H 0.45804 0.21119 0.25623 0.0
H522 H 0.4621 0.25831 0.21009 0.0
O523 O 0.4387 0.26315 0.2604 0.0
H524 H 0.45993 0.18512 0.2296 0.0
H525 H 0.46369 0.23228 0.1834 0.0
C526 C 0.47364 0.24424 0.27763 0.0
C527 C 0.46215 0.24338 0.29575 0.0
C528 C 0.46759 0.22989 0.31143 0.0
C529 C 0.48461 0.2169 0.30926 0.0
C530 C 0.49708 0.21903 0.29179 0.0
C531 C 0.49164 0.23263 0.2761 0.0
C532 C 0.47655 0.27738 0.24485 0.0
C533 C 0.46661 0.29623 0.24269 0.0
C534 C 0.47453 0.31119 0.22962 0.0
C535 C 0.49252 0.30755 0.21834 0.0
C536 C 0.50333 0.28927 0.22185 0.0
C537 C 0.49544 0.27435 0.23507 0.0
C538 C 0.46101 0.23671 0.23526 0.0
C539 C 0.45935 0.21597 0.2404 0.0
C540 C 0.4602 0.20105 0.22513 0.0
C541 C 0.46239 0.20666 0.20444 0.0
C542 C 0.46258 0.2275 0.19926 0.0
C543 C 0.46169 0.24239 0.21454 0.0
P544 P 0.74938 0.54484 0.25526 0.0
H545 H 0.70505 0.55086 0.25721 0.0
H546 H 0.67744 0.53786 0.23567 0.0
H547 H 0.71965 0.49536 0.2076 0.0
H548 H 0.74687 0.50777 0.22997 0.0
H549 H 0.75664 0.56293 0.29548 0.0
H550 H 0.77926 0.55294 0.32335 0.0
H551 H 0.78957 0.49472 0.29394 0.0
H552 H 0.76634 0.50472 0.26615 0.0
H553 H 0.7487 0.55031 0.21075 0.0
H554 H 0.79449 0.54276 0.25789 0.0
O555 O 0.74173 0.56882 0.25932 0.0
H556 H 0.77527 0.54767 0.18449 0.0
H557 H 0.82098 0.54029 0.2318 0.0
C558 C 0.72812 0.53064 0.24481 0.0
C559 C 0.70821 0.53831 0.24687 0.0
C560 C 0.69247 0.53101 0.23433 0.0
C561 C 0.69642 0.51602 0.21934 0.0
C562 C 0.71597 0.50694 0.21885 0.0
C563 C 0.73163 0.51407 0.23164 0.0
C564 C 0.75977 0.53457 0.27871 0.0
C565 C 0.76316 0.54774 0.2953 0.0
C566 C 0.77635 0.54209 0.31115 0.0
C567 C 0.78664 0.52323 0.31062 0.0
C568 C 0.7819 0.50936 0.29482 0.0
C569 C 0.76853 0.515 0.27898 0.0
C570 C 0.76942 0.54576 0.23625 0.0
C571 C 0.76444 0.54812 0.21547 0.0
C572 C 0.77966 0.54677 0.20048 0.0
C573 C 0.80015 0.54333 0.20609 0.0
C574 C 0.80524 0.54235 0.227 0.0
C575 C 0.79003 0.54373 0.24195 0.0
P576 P 0.5413 0.74912 0.2553 0.0
H577 H 0.552 0.75125 0.29879 0.0
H578 H 0.53992 0.77357 0.32608 0.0
H579 H 0.48972 0.7931 0.28767 0.0
H580 H 0.50207 0.7708 0.26026 0.0
H581 H 0.56299 0.71516 0.23694 0.0
H582 H 0.55185 0.68651 0.21609 0.0
H583 H 0.48876 0.70205 0.22824 0.0
H584 H 0.50015 0.7308 0.2497 0.0
H585 H 0.56738 0.78379 0.24442 0.0
H586 H 0.51112 0.75676 0.22279 0.0
O587 O 0.56595 0.74634 0.26152 0.0
H588 H 0.56382 0.81111 0.21897 0.0
H589 H 0.50762 0.78372 0.19748 0.0
C590 C 0.52816 0.75956 0.2773 0.0
C591 C 0.53805 0.75986 0.29638 0.0
C592 C 0.53109 0.77268 0.31206 0.0
C593 C 0.51405 0.78548 0.30896 0.0
C594 C 0.50315 0.78379 0.29041 0.0
C595 C 0.5101 0.77088 0.27476 0.0
C596 C 0.53243 0.72504 0.24511 0.0
C597 C 0.54675 0.71206 0.2358 0.0
C598 C 0.54035 0.69563 0.22378 0.0
C599 C 0.51941 0.69201 0.22044 0.0
C600 C 0.505 0.70452 0.23047 0.0
C601 C 0.51148 0.72083 0.24287 0.0
C602 C 0.53977 0.76796 0.23527 0.0
C603 C 0.55447 0.78351 0.234 0.0
C604 C 0.55243 0.7991 0.21949 0.0
C605 C 0.53543 0.79952 0.20629 0.0
C606 C 0.52079 0.78387 0.20757 0.0
C607 C 0.52293 0.76827 0.22194 0.0
P608 P 0.25681 0.54183 0.25505 0.0
H609 H 0.25465 0.55536 0.29774 0.0
H610 H 0.23198 0.54551 0.32575 0.0
H611 H 0.21033 0.49435 0.28999 0.0
H612 H 0.23333 0.50418 0.26205 0.0
H613 H 0.29929 0.55455 0.249 0.0
H614 H 0.32622 0.54113 0.22706 0.0
H615 H 0.29002 0.48707 0.21579 0.0
H616 H 0.26289 0.50075 0.23784 0.0
H617 H 0.21266 0.54911 0.25683 0.0
H618 H 0.25797 0.53781 0.21 0.0
O619 O 0.26318 0.56597 0.26024 0.0
H620 H 0.18568 0.54766 0.23101 0.0
H621 H 0.2311 0.53548 0.18435 0.0
C622 C 0.24562 0.53059 0.27772 0.0
C623 C 0.2455 0.54168 0.2961 0.0
C624 C 0.23233 0.53614 0.31206 0.0
C625 C 0.21899 0.51941 0.30994 0.0
C626 C 0.2204 0.50731 0.29216 0.0
C627 C 0.23364 0.51286 0.27618 0.0
C628 C 0.279 0.5287 0.24505 0.0
C629 C 0.29735 0.53951 0.2424 0.0
C630 C 0.31282 0.53178 0.22979 0.0
C631 C 0.31018 0.51313 0.21943 0.0
C632 C 0.2924 0.50161 0.22334 0.0
C633 C 0.27699 0.50929 0.23617 0.0
C634 C 0.23727 0.54263 0.23555 0.0
C635 C 0.21682 0.54612 0.24104 0.0
C636 C 0.20138 0.54522 0.22626 0.0
C637 C 0.20617 0.54103 0.20566 0.0
C638 C 0.22683 0.53872 0.20006 0.0
C639 C 0.24225 0.53975 0.21483 0.0
P640 P 0.75181 0.74972 0.46051 0.0
H641 H 0.74721 0.70559 0.45521 0.0
H642 H 0.76831 0.67725 0.46729 0.0
H643 H 0.79978 0.7183 0.50854 0.0
H644 H 0.77803 0.74622 0.49707 0.0
H645 H 0.72327 0.77378 0.43726 0.0
H646 H 0.69472 0.79532 0.44679 0.0
H647 H 0.69854 0.77299 0.5091 0.0
H648 H 0.72804 0.75178 0.49931 0.0
H649 H 0.79072 0.7561 0.4395 0.0
H650 H 0.75514 0.78639 0.48622 0.0
O651 O 0.75028 0.74259 0.43598 0.0
H652 H 0.81755 0.78201 0.44313 0.0
H653 H 0.78177 0.81205 0.49002 0.0
C654 C 0.7613 0.72813 0.4749 0.0
C655 C 0.75815 0.70833 0.46738 0.0
C656 C 0.77047 0.69217 0.47411 0.0
C657 C 0.78627 0.69554 0.48844 0.0
C658 C 0.78788 0.71502 0.49746 0.0
C659 C 0.77542 0.73112 0.49083 0.0
C660 C 0.72748 0.76078 0.46744 0.0
C661 C 0.71761 0.77299 0.45286 0.0
C662 C 0.70116 0.78538 0.45839 0.0
C663 C 0.69408 0.78594 0.47875 0.0
C664 C 0.70363 0.77312 0.4933 0.0
C665 C 0.7203 0.76072 0.4877 0.0
C666 C 0.77071 0.76962 0.46216 0.0
C667 C 0.78856 0.76846 0.45032 0.0
C668 C 0.80393 0.78315 0.45254 0.0
C669 C 0.80167 0.79915 0.46674 0.0
C670 C 0.78377 0.80016 0.47864 0.0
C671 C 0.76849 0.78545 0.47646 0.0
P672 P 0.74946 0.25496 0.46586 0.0
H673 H 0.7061 0.25245 0.45493 0.0
H674 H 0.6791 0.22966 0.46667 0.0
H675 H 0.71736 0.21037 0.51711 0.0
H676 H 0.74449 0.23316 0.5051 0.0
H677 H 0.76719 0.28947 0.44442 0.0
H678 H 0.78857 0.3177 0.45567 0.0
H679 H 0.77824 0.30063 0.51876 0.0
H680 H 0.75608 0.27245 0.50731 0.0
H681 H 0.75993 0.22046 0.43932 0.0
H682 H 0.78198 0.24667 0.49588 0.0
O683 O 0.7432 0.25807 0.44123 0.0
H684 H 0.78494 0.19274 0.44265 0.0
H685 H 0.80682 0.21934 0.49914 0.0
C686 C 0.7275 0.24434 0.47892 0.0
C687 C 0.70852 0.24381 0.46887 0.0
C688 C 0.69301 0.2307 0.47564 0.0
C689 C 0.69617 0.21783 0.49262 0.0
C690 C 0.71458 0.21973 0.5037 0.0
C691 C 0.73006 0.23294 0.49695 0.0
C692 C 0.75985 0.27887 0.475 0.0
C693 C 0.76881 0.29216 0.46072 0.0
C694 C 0.78115 0.30833 0.46717 0.0
C695 C 0.78519 0.31134 0.4881 0.0
C696 C 0.77547 0.2986 0.50252 0.0
C697 C 0.76268 0.28262 0.496 0.0
C698 C 0.76932 0.23594 0.4671 0.0
C699 C 0.77035 0.2205 0.45223 0.0
C700 C 0.7846 0.20467 0.45415 0.0
C701 C 0.79775 0.20389 0.47118 0.0
C702 C 0.79674 0.21946 0.48594 0.0
C703 C 0.78264 0.23528 0.48394 0.0
P704 P 0.25455 0.74929 0.46396 0.0
H705 H 0.29871 0.75058 0.45636 0.0
H706 H 0.3252 0.77363 0.46884 0.0
H707 H 0.2831 0.7974 0.51405 0.0
H708 H 0.25648 0.77446 0.50115 0.0
H709 H 0.24352 0.71 0.44619 0.0
H710 H 0.22189 0.68238 0.45848 0.0
H711 H 0.21957 0.71055 0.51832 0.0
H712 H 0.24152 0.73834 0.50582 0.0
H713 H 0.25495 0.79129 0.44957 0.0
H714 H 0.21031 0.74935 0.47427 0.0
O715 O 0.26232 0.74424 0.44011 0.0
H716 H 0.22939 0.81857 0.45011 0.0
H717 H 0.18521 0.77654 0.47575 0.0
C718 C 0.27554 0.76091 0.47768 0.0
C719 C 0.29531 0.76031 0.46934 0.0
C720 C 0.31051 0.77355 0.47654 0.0
C721 C 0.30621 0.78766 0.49225 0.0
C722 C 0.28682 0.78702 0.50166 0.0
C723 C 0.27165 0.77372 0.49447 0.0
C724 C 0.24434 0.72619 0.47512 0.0
C725 C 0.23903 0.70994 0.46217 0.0
C726 C 0.22657 0.6941 0.46923 0.0
C727 C 0.21888 0.69431 0.48935 0.0
C728 C 0.22514 0.71004 0.50268 0.0
C729 C 0.23788 0.7258 0.49564 0.0
C730 C 0.23474 0.76836 0.46222 0.0
C731 C 0.23966 0.78793 0.45505 0.0
C732 C 0.22509 0.80354 0.45553 0.0
C733 C 0.2053 0.79982 0.4632 0.0
C734 C 0.20023 0.77994 0.46959 0.0
C735 C 0.21476 0.76434 0.46899 0.0
P736 P 0.25618 0.25624 0.53813 0.0
H737 H 0.30054 0.25879 0.54372 0.0
H738 H 0.32813 0.23621 0.53255 0.0
H739 H 0.28586 0.20484 0.49245 0.0
H740 H 0.25871 0.228 0.50299 0.0
H741 H 0.23958 0.29128 0.55953 0.0
H742 H 0.2183 0.31956 0.54828 0.0
H743 H 0.22788 0.30193 0.48521 0.0
H744 H 0.24983 0.2736 0.49669 0.0
H745 H 0.24584 0.22175 0.5647 0.0
H746 H 0.22146 0.24999 0.51012 0.0
O747 O 0.26344 0.25939 0.56247 0.0
H748 H 0.21955 0.19509 0.56239 0.0
H749 H 0.19536 0.22377 0.50791 0.0
C750 C 0.27743 0.24484 0.52457 0.0
C751 C 0.29737 0.24748 0.53203 0.0
C752 C 0.3131 0.23434 0.52581 0.0
C753 C 0.30915 0.21822 0.51205 0.0
C754 C 0.28956 0.21696 0.50311 0.0
C755 C 0.2739 0.23023 0.50922 0.0
C756 C 0.24649 0.2804 0.52896 0.0
C757 C 0.23785 0.2939 0.54323 0.0
C758 C 0.22557 0.3101 0.53676 0.0
C759 C 0.22128 0.31294 0.51585 0.0
C760 C 0.23083 0.30005 0.50144 0.0
C761 C 0.24353 0.28401 0.50796 0.0
C762 C 0.23542 0.23815 0.53786 0.0
C763 C 0.23464 0.22248 0.55248 0.0
C764 C 0.21965 0.20726 0.55115 0.0
C765 C 0.20549 0.20737 0.53493 0.0
C766 C 0.20621 0.22322 0.52047 0.0
C767 C 0.22105 0.23841 0.52189 0.0
C768 C 0.00502 0.95292 0.55159 0.0
C769 C 0.00327 0.95435 0.45174 0.0
C770 C 0.00137 0.05178 0.55292 0.0
C771 C 0.00342 0.05317 0.453 0.0
C772 C 0.95244 0.05136 0.50142 0.0
C773 C 0.9549 0.95234 0.50097 0.0
C774 C 0.05173 0.05362 0.50481 0.0
C775 C 0.0541 0.95474 0.49972 0.0
C776 C 0.05273 0.00481 0.45235 0.0
C777 C 0.95366 0.00341 0.4525 0.0
C778 C 0.05288 0.00386 0.55217 0.0
C779 C 0.95384 1.00081 0.55237 0.0
Eu780 Eu 0.00425 0.96429 0.50181 0.0
O781 O 0.9855 0.98477 0.48407 0.0
O782 O 0.02212 0.98494 0.52029 0.0
Eu783 Eu 0.96437 0.00214 0.50243 0.0
Eu784 Eu 0.04216 0.00394 0.50226 0.0
O785 O 0.98544 0.98412 0.52027 0.0
O786 O 0.0219 0.98557 0.48392 0.0
Eu787 Eu 0.00332 0.00248 0.54088 0.0
Eu788 Eu 0.00322 0.00362 0.4638 0.0
O789 O 0.98459 0.02066 0.52078 0.0
O790 O 0.9846 0.02106 0.48454 0.0
O791 O 0.02112 0.02203 0.48441 0.0
O792 O 0.02095 0.02132 0.52052 0.0
Eu793 Eu 0.00233 0.04191 0.50282 0.0
O794 O 0.00522 0.94676 0.53202 0.0
O795 O 0.0041 0.94766 0.4711 0.0
O796 O 0.00091 0.05846 0.53353 0.0
O797 O 0.00307 0.0594 0.47254 0.0
O798 O 0.94664 0.03182 0.50215 0.0
O799 O 0.94815 0.97159 0.50139 0.0
O800 O 0.05843 0.0344 0.50355 0.0
O801 O 0.05993 0.97427 0.50069 0.0
O802 O 0.03318 0.00395 0.44646 0.0
O803 O 0.9732 0.00414 0.44657 0.0
O804 O 0.03334 0.00338 0.55814 0.0
O805 O 0.9734 1.00092 0.55824 0.0
O806 O 0.03214 0.05947 0.50481 0.0
O807 O 0.97174 0.05809 0.50149 0.0
O808 O 0.03479 0.94808 0.50011 0.0
O809 O 0.97451 0.94659 0.50128 0.0
O810 O 0.00277 0.97393 0.44604 0.0
O811 O 0.00343 0.03373 0.44686 0.0
O812 O 0.00432 0.97233 0.55779 0.0
O813 O 0.00239 0.03222 0.55861 0.0
O814 O 0.94728 0.00146 0.53295 0.0
O815 O 0.94723 0.00237 0.47196 0.0
O816 O 0.05931 0.00394 0.5327 0.0
O817 O 0.05921 0.00522 0.4718 0.0
C818 C 0.50529 0.95383 0.05284 0.0
C819 C 0.50103 0.05284 0.05252 0.0
C820 C 0.50047 0.95347 0.95344 0.0
C821 C 0.50302 0.05248 0.95303 0.0
C822 C 0.55208 0.00264 0.95274 0.0
C823 C 0.55344 0.00418 0.05189 0.0
C824 C 0.45231 0.00302 0.95418 0.0
C825 C 0.4538 0.00323 0.05336 0.0
C826 C 0.45263 0.05217 0.00347 0.0
C827 C 0.5524 0.05296 0.00271 0.0
C828 C 0.45334 0.95342 0.0041 0.0
C829 C 0.55311 0.95412 0.00183 0.0
Eu830 Eu 0.50345 0.00332 0.04194 0.0
O831 O 0.52112 0.0217 0.021 0.0
O832 O 0.48515 0.98471 0.02171 0.0
Eu833 Eu 0.54129 0.00344 0.00246 0.0
Eu834 Eu 0.46446 0.00285 0.00364 0.0
O835 O 0.52127 0.98513 0.02101 0.0
O836 O 0.48507 0.02125 0.02135 0.0
Eu837 Eu 0.50314 0.96426 0.00308 0.0
Eu838 Eu 0.5026 0.04205 0.00282 0.0
O839 O 0.52083 0.98494 0.98444 0.0
O840 O 0.52054 0.02145 0.98437 0.0
O841 O 0.48439 0.02121 0.98488 0.0
O842 O 0.48477 0.98484 0.98511 0.0
Eu843 Eu 0.50234 0.00302 0.964 0.0
O844 O 0.50466 0.97326 0.05904 0.0
O845 O 0.50213 0.03347 0.05885 0.0
O846 O 0.50104 0.97285 0.94707 0.0
O847 O 0.50245 0.03304 0.94687 0.0
O848 O 0.55822 0.00288 0.97225 0.0
O849 O 0.55905 0.00374 0.03222 0.0
O850 O 0.44671 0.00265 0.97386 0.0
O851 O 0.44762 0.00309 0.03388 0.0
O852 O 0.47197 0.05883 0.00235 0.0
O853 O 0.53293 0.05928 0.00343 0.0
O854 O 0.47278 0.947 0.00341 0.0
O855 O 0.53373 0.94747 0.00153 0.0
O856 O 0.47164 0.00335 0.9474 0.0
O857 O 0.53258 0.00276 0.94645 0.0
O858 O 0.47332 0.00319 0.05958 0.0
O859 O 0.5341 0.0043 0.05865 0.0
O860 O 0.50116 0.05903 0.03301 0.0
O861 O 0.50324 0.05886 0.97248 0.0
O862 O 0.50483 0.94747 0.03338 0.0
O863 O 0.50126 0.94727 0.97293 0.0
O864 O 0.55883 0.97367 0.00253 0.0
O865 O 0.55842 0.03349 0.00196 0.0
O866 O 0.44728 0.97287 0.0045 0.0
O867 O 0.44693 0.03262 0.00429 0.0
C868 C 0.00244 0.45405 0.0531 0.0
C869 C 0.00235 0.45289 0.95391 0.0
C870 C 0.00247 0.55365 0.05178 0.0
C871 C 0.00359 0.5524 0.95254 0.0
C872 C 0.95342 0.55326 0.00129 0.0
C873 C 0.95292 0.45377 0.00369 0.0
C874 C 0.05247 0.55286 0.00251 0.0
C875 C 0.05197 0.45328 0.00363 0.0
C876 C 0.05254 0.5007 0.95329 0.0
C877 C 0.9532 0.50121 0.953 0.0
C878 C 0.05219 0.5054 0.05269 0.0
C879 C 0.95284 0.50565 0.05235 0.0
Eu880 Eu 0.00251 0.465 0.0034 0.0
O881 O 0.98451 0.48522 0.98478 0.0
O882 O 0.02095 0.48536 0.02156 0.0
Eu883 Eu 0.96379 0.50347 0.0027 0.0
Eu884 Eu 0.04164 0.50312 0.00295 0.0
O885 O 0.98416 0.48552 0.02145 0.0
O886 O 0.02084 0.48506 0.98491 0.0
Eu887 Eu 0.00256 0.50371 0.04189 0.0
Eu888 Eu 0.00283 0.5028 0.96379 0.0
O889 O 0.9846 0.52154 0.02075 0.0
O890 O 0.98452 0.52124 0.98413 0.0
O891 O 0.02121 0.52107 0.98424 0.0
O892 O 0.02085 0.52134 0.02086 0.0
Eu893 Eu 0.00291 0.54164 0.00228 0.0
O894 O 0.00243 0.44804 0.03356 0.0
O895 O 0.00236 0.44729 0.97359 0.0
O896 O 0.00258 0.55926 0.03211 0.0
O897 O 0.00387 0.55851 0.97205 0.0
O898 O 0.94685 0.5339 0.00139 0.0
O899 O 0.94652 0.47319 0.00361 0.0
O900 O 0.0589 0.53346 0.00188 0.0
O901 O 0.05859 0.47263 0.0038 0.0
O902 O 0.03312 0.50133 0.94691 0.0
O903 O 0.97266 0.50155 0.94673 0.0
O904 O 0.03273 0.50475 0.05896 0.0
O905 O 0.97226 0.50494 0.05872 0.0
O906 O 0.03294 0.55879 0.00303 0.0
O907 O 0.973 0.55905 0.00167 0.0
O908 O 0.03237 0.44756 0.0034 0.0
O909 O 0.97246 0.44784 0.00354 0.0
O910 O 0.00251 0.47218 0.94715 0.0
O911 O 0.0029 0.53296 0.94624 0.0
O912 O 0.0025 0.47351 0.05943 0.0
O913 O 0.00245 0.53435 0.05855 0.0
O914 O 0.94668 0.50519 0.03283 0.0
O915 O 0.94689 0.502 0.97245 0.0
O916 O 0.05851 0.50489 0.03322 0.0
O917 O 0.0587 0.50136 0.9728 0.0
C918 C 0.50483 0.45057 0.05182 0.0
C919 C 0.50241 0.54934 0.05425 0.0
C920 C 0.50352 0.45307 0.95192 0.0
C921 C 0.50363 0.55188 0.95436 0.0
C922 C 0.5528 0.50322 0.95295 0.0
C923 C 0.55312 0.49979 0.05277 0.0
C924 C 0.45373 0.50257 0.95333 0.0
C925 C 0.45402 0.49927 0.0531 0.0
C926 C 0.45315 0.54998 0.00354 0.0
C927 C 0.55245 0.55122 0.00653 0.0
C928 C 0.45459 0.45101 1.00039 0.0
C929 C 0.55378 0.45241 0.99942 0.0
Eu930 Eu 0.50355 0.50021 0.04154 0.0
O931 O 0.52147 0.51911 0.02147 0.0
O932 O 0.48543 0.48212 0.02081 0.0
Eu933 Eu 0.54238 0.50168 0.00291 0.0
Eu934 Eu 0.46459 0.50063 0.00317 0.0
O935 O 0.5221 0.48269 0.02068 0.0
O936 O 0.485 0.51873 0.02165 0.0
Eu937 Eu 0.50405 0.46232 0.00211 0.0
Eu938 Eu 0.50296 0.54002 0.00405 0.0
O939 O 0.5218 0.48375 0.98448 0.0
O940 O 0.52147 0.52017 0.98529 0.0
O941 O 0.48495 0.5196 0.9855 0.0
O942 O 0.48551 0.4832 0.98461 0.0
Eu943 Eu 0.5033 0.50218 0.96452 0.0
O944 O 0.50414 0.46994 0.05815 0.0
O945 O 0.50336 0.5297 0.05967 0.0
O946 O 0.50267 0.47268 0.94643 0.0
O947 O 0.50324 0.53252 0.94799 0.0
O948 O 0.55935 0.5034 0.97239 0.0
O949 O 0.55953 0.49994 0.03329 0.0
O950 O 0.44734 0.50187 0.97281 0.0
O951 O 0.44753 0.49937 0.03364 0.0
O952 O 0.47251 0.55653 0.00372 0.0
O953 O 0.53292 0.55723 0.00631 0.0
O954 O 0.47411 0.44498 0.00102 0.0
O955 O 0.53443 0.44587 1.00004 0.0
O956 O 0.47326 0.50274 0.94733 0.0
O957 O 0.53323 0.50252 0.94712 0.0
O958 O 0.47359 0.49959 0.05898 0.0
O959 O 0.53359 0.50014 0.05877 0.0
O960 O 0.5018 0.55626 0.03496 0.0
O961 O 0.50381 0.55788 0.97399 0.0
O962 O 0.50501 0.44453 0.03221 0.0
O963 O 0.50448 0.44609 0.97118 0.0
O964 O 0.55982 0.47186 1.00054 0.0
O965 O 0.559 0.53195 0.00512 0.0
O966 O 0.44806 0.47032 0.00105 0.0
O967 O 0.44717 0.53048 0.00354 0.0
C968 C 0.00478 0.45279 0.55369 0.0
C969 C 1.00041 0.45216 0.45427 0.0
C970 C 1.00059 0.55186 0.55295 0.0
C971 C 0.00461 0.55113 0.45354 0.0
C972 C 0.95263 0.55128 0.50287 0.0
C973 C 0.95283 0.45245 0.50431 0.0
C974 C 0.05242 0.55145 0.50378 0.0
C975 C 0.05261 0.45266 0.50323 0.0
C976 C 0.05262 0.50077 0.45412 0.0
C977 C 0.9529 0.50131 0.45388 0.0
C978 C 0.05235 0.5029 0.55333 0.0
C979 C 0.95258 0.50232 0.55299 0.0
Eu980 Eu 0.0027 0.46313 0.5039 0.0
O981 O 0.98478 0.48369 0.48547 0.0
O982 O 0.02061 0.48397 0.52206 0.0
Eu983 Eu 0.96424 0.50187 0.50347 0.0
Eu984 Eu 0.04104 0.50201 0.5037 0.0
O985 O 0.98446 0.48375 0.52213 0.0
O986 O 0.02078 0.48361 0.48541 0.0
Eu987 Eu 0.00252 0.50225 0.54265 0.0
Eu988 Eu 0.00273 0.50172 0.46458 0.0
O989 O 0.98461 0.52017 0.52161 0.0
O990 O 0.9845 0.52017 0.485 0.0
O991 O 0.02065 0.52005 0.48528 0.0
O992 O 0.02063 0.52041 0.52188 0.0
Eu993 Eu 0.00256 0.54083 0.50333 0.0
O994 O 0.00447 0.44646 0.53423 0.0
O995 O 1.00069 0.44603 0.4738 0.0
O996 O 0.0009 0.55795 0.53342 0.0
O997 O 0.00421 0.55754 0.47298 0.0
O998 O 0.94679 0.53174 0.50312 0.0
O999 O 0.94694 0.47194 0.5034 0.0
O1000 O 0.05834 0.53195 0.50311 0.0
O1001 O 0.05842 0.47217 0.50413 0.0
O1002 O 0.03322 0.50101 0.44753 0.0
O1003 O 0.97232 0.50197 0.44737 0.0
O1004 O 0.03291 0.50328 0.55979 0.0
O1005 O 0.97197 0.5023 0.55964 0.0
O1006 O 0.03298 0.5579 0.50441 0.0
O1007 O 0.97205 0.5578 0.50274 0.0
O1008 O 0.0332 0.44612 0.50256 0.0
O1009 O 0.97226 0.446 0.50512 0.0
O1010 O 0.00147 0.47148 0.44783 0.0
O1011 O 0.00385 0.5317 0.44738 0.0
O1012 O 0.00384 0.47222 0.55988 0.0
O1013 O 0.00142 0.53253 0.55942 0.0
O1014 O 0.94681 0.50213 0.53337 0.0
O1015 O 0.94701 0.50107 0.47346 0.0
O1016 O 0.05829 0.50225 0.53376 0.0
O1017 O 0.05846 0.50109 0.47373 0.0
C1018 C 0.50337 0.9528 0.55387 0.0
C1019 C 0.50274 0.95074 0.45462 0.0
C1020 C 0.5015 0.05232 0.55174 0.0
C1021 C 0.50296 0.05028 0.45258 0.0
C1022 C 0.45242 0.05097 0.50167 0.0
C1023 C 0.45314 0.95148 0.50416 0.0
C1024 C 0.55153 0.05163 0.5024 0.0
C1025 C 0.55223 0.95214 0.50484 0.0
C1026 C 0.55203 0.99912 0.45353 0.0
C1027 C 0.45278 0.99846 0.45342 0.0
C1028 C 0.55192 0.00459 0.55286 0.0
C1029 C 0.45258 1.00058 0.55282 0.0
Eu1030 Eu 0.50268 0.96317 0.50406 0.0
O1031 O 0.48438 0.98309 0.48536 0.0
O1032 O 0.52081 0.98398 0.52201 0.0
Eu1033 Eu 0.46344 0.00128 0.5031 0.0
Eu1034 Eu 0.54126 0.00176 0.50318 0.0
O1035 O 0.48423 0.9838 0.5218 0.0
O1036 O 0.5207 0.98327 0.4853 0.0
Eu1037 Eu 0.50227 0.00231 0.54223 0.0
Eu1038 Eu 0.50239 1.00073 0.46416 0.0
O1039 O 0.48385 0.01987 0.52117 0.0
O1040 O 0.48388 0.01917 0.48434 0.0
O1041 O 0.52053 0.01934 0.48448 0.0
O1042 O 0.52028 0.01991 0.52098 0.0
Eu1043 Eu 0.50203 0.03987 0.50237 0.0
O1044 O 0.50319 0.94653 0.53441 0.0
O1045 O 0.50297 0.94526 0.47434 0.0
O1046 O 0.5014 0.05779 0.53203 0.0
O1047 O 0.50298 0.05651 0.47205 0.0
O1048 O 0.44606 0.03153 0.50221 0.0
O1049 O 0.44656 0.97082 0.50363 0.0
O1050 O 0.55815 0.03228 0.50226 0.0
O1051 O 0.55864 0.97152 0.50396 0.0
O1052 O 0.5326 0.99959 0.44719 0.0
O1053 O 0.47224 0.99893 0.44716 0.0
O1054 O 0.53247 0.00405 0.55917 0.0
O1055 O 0.472 0.00145 0.55918 0.0
O1056 O 0.53191 0.05736 0.50264 0.0
O1057 O 0.47195 0.05696 0.50157 0.0
O1058 O 0.53274 0.94607 0.50512 0.0
O1059 O 0.47275 0.94571 0.50445 0.0
O1060 O 0.50247 0.96999 0.44774 0.0
O1061 O 0.50238 0.0308 0.44639 0.0
O1062 O 0.503 0.97229 0.56003 0.0
O1063 O 0.50186 0.03308 0.55868 0.0
O1064 O 0.44639 1.00061 0.53331 0.0
O1065 O 0.44647 0.99947 0.47287 0.0
O1066 O 0.55819 0.00368 0.53339 0.0
O1067 O 0.55828 0.99995 0.473 0.0
H1068 H 0.18064 0.19081 0.56433 0.0
H1069 H 0.15453 0.16429 0.55966 0.0
H1070 H 0.17036 0.15992 0.49558 0.0
H1071 H 0.19622 0.1865 0.5001 0.0
H1072 H 0.12923 0.16306 0.50158 0.0
H1073 H 0.16218 0.10312 0.55194 0.0
H1074 H 0.15837 0.12726 0.56443 0.0
H1075 H 0.17658 0.12523 0.54385 0.0
C1076 C 0.17867 0.18399 0.54933 0.0
C1077 C 0.19036 0.19072 0.53256 0.0
C1078 C 0.16381 0.16884 0.54668 0.0
C1079 C 0.16068 0.16002 0.52732 0.0
C1080 C 0.17253 0.16657 0.51064 0.0
H1081 H 0.09302 0.05033 0.4985 0.0
H1082 H 0.11902 0.07663 0.50354 0.0
C1083 C 0.18724 0.18177 0.51323 0.0
C1084 C 0.14456 0.14448 0.52411 0.0
H1085 H 0.12881 0.09704 0.53887 0.0
C1086 C 0.12914 0.1486 0.5097 0.0
C1087 C 0.14466 0.12557 0.53456 0.0
C1088 C 0.16143 0.11989 0.54942 0.0
C1089 C 0.11372 0.13432 0.5055 0.0
C1090 C 0.11349 0.11563 0.51636 0.0
C1091 C 0.12897 0.11147 0.53069 0.0
C1092 C 0.09753 0.10001 0.51283 0.0
C1093 C 0.09811 0.13918 0.48915 0.0
C1094 C 0.07684 0.10447 0.51644 0.0
C1095 C 0.06189 0.08952 0.51343 0.0
C1096 C 0.06742 0.06976 0.50701 0.0
C1097 C 0.0882 0.06537 0.50347 0.0
C1098 C 0.10311 0.08036 0.50636 0.0
H1099 H 0.1036 0.15133 0.47861 0.0
H1100 H 0.09433 0.12541 0.47996 0.0
H1101 H 0.08384 0.1447 0.49654 0.0
H1102 H 0.07228 0.11942 0.52188 0.0
H1103 H 0.04607 0.09338 0.51655 0.0
H1104 H 0.82366 0.18733 0.44277 0.0
H1105 H 0.84896 0.16021 0.44822 0.0
H1106 H 0.82962 0.15474 0.51124 0.0
H1107 H 0.80453 0.18193 0.50595 0.0
H1108 H 0.87089 0.15766 0.50766 0.0
H1109 H 0.84091 0.09898 0.45417 0.0
H1110 H 0.84533 0.1233 0.44227 0.0
H1111 H 0.8261 0.12096 0.46187 0.0
C1112 C 0.82465 0.18012 0.45769 0.0
C1113 C 0.81222 0.18674 0.47396 0.0
C1114 C 0.83904 0.16462 0.46077 0.0
C1115 C 0.84098 0.15533 0.48007 0.0
C1116 C 0.82835 0.16172 0.49623 0.0
H1117 H 0.91119 0.04593 0.50678 0.0
H1118 H 0.88412 0.07131 0.50256 0.0
C1119 C 0.8141 0.17727 0.49321 0.0
C1120 C 0.85688 0.13968 0.48382 0.0
H1121 H 0.87414 0.0931 0.468 0.0
C1122 C 0.87155 0.14349 0.49907 0.0
C1123 C 0.85752 0.12112 0.47275 0.0
C1124 C 0.84151 0.1157 0.45699 0.0
C1125 C 0.88708 0.12935 0.50336 0.0
C1126 C 0.8882 0.11115 0.49176 0.0
C1127 C 0.87333 0.10717 0.47674 0.0
C1128 C 0.90471 0.09604 0.49491 0.0
C1129 C 0.90195 0.13392 0.52047 0.0
C1130 C 0.92524 0.10156 0.49194 0.0
C1131 C 0.94079 0.08716 0.49446 0.0
C1132 C 0.93604 0.06687 0.49976 0.0
C1133 C 0.91541 0.0614 0.50269 0.0
C1134 C 0.8999 0.07586 0.50027 0.0
H1135 H 0.89562 0.14528 0.53143 0.0
H1136 H 0.90598 0.11984 0.52906 0.0
H1137 H 0.91621 0.14038 0.51388 0.0
H1138 H 0.92923 0.11695 0.48735 0.0
H1139 H 0.95646 0.09187 0.49184 0.0
H1140 H 0.79735 0.84041 0.47096 0.0
H1141 H 0.82425 0.86563 0.47725 0.0
H1142 H 0.86977 0.81795 0.47546 0.0
H1143 H 0.84294 0.79259 0.46923 0.0
H1144 H 0.85185 0.86633 0.51033 0.0
H1145 H 0.89228 0.86094 0.43552 0.0
H1146 H 0.86682 0.85093 0.43941 0.0
H1147 H 0.88871 0.83704 0.44857 0.0
C1148 C 0.81309 0.8353 0.4719 0.0
C1149 C 0.81806 0.81454 0.46956 0.0
C1150 C 0.82842 0.84972 0.47543 0.0
C1151 C 0.84897 0.84365 0.47659 0.0
C1152 C 0.85402 0.82296 0.4742 0.0
H1153 H 0.96133 0.91102 0.49846 0.0
H1154 H 0.93569 0.88429 0.49394 0.0
C1155 C 0.83869 0.80852 0.47063 0.0
C1156 C 0.86501 0.85895 0.48097 0.0
H1157 H 0.90777 0.88139 0.46111 0.0
C1158 C 0.86407 0.86967 0.49957 0.0
C1159 C 0.88093 0.86315 0.46691 0.0
C1160 C 0.88224 0.85256 0.4464 0.0
C1161 C 0.87875 0.88448 0.50457 0.0
C1162 C 0.89455 0.88882 0.49042 0.0
C1163 C 0.89562 0.87795 0.47191 0.0
C1164 C 0.90987 0.90496 0.49427 0.0
C1165 C 0.8774 0.89515 0.52503 0.0
C1166 C 0.90378 0.92542 0.49592 0.0
C1167 C 0.91836 0.94079 0.49852 0.0
C1168 C 0.93934 0.93596 0.49938 0.0
C1169 C 0.94533 0.91535 0.4979 0.0
C1170 C 0.93072 0.90002 0.49529 0.0
H1171 H 0.86786 0.88645 0.5361 0.0
H1172 H 0.89285 0.89743 0.53175 0.0
H1173 H 0.87028 0.91039 0.52287 0.0
H1174 H 0.88776 0.92955 0.49478 0.0
H1175 H 0.91315 0.95646 0.4995 0.0
H1176 H 0.21268 0.83916 0.47545 0.0
H1177 H 0.18762 0.8663 0.48134 0.0
H1178 H 0.13894 0.82582 0.46294 0.0
H1179 H 0.16388 0.79873 0.45632 0.0
H1180 H 0.15479 0.88185 0.45129 0.0
H1181 H 0.12622 0.8473 0.52387 0.0
H1182 H 0.15122 0.84157 0.51348 0.0
H1183 H 0.12877 0.83062 0.50206 0.0
C1184 C 0.1967 0.83611 0.47225 0.0
C1185 C 0.19029 0.81672 0.46547 0.0
C1186 C 0.18242 0.85159 0.47577 0.0
C1187 C 0.16151 0.84789 0.47277 0.0
C1188 C 0.15505 0.8288 0.46555 0.0
H1189 H 0.04941 0.9136 0.49372 0.0
H1190 H 0.0761 0.88836 0.48736 0.0
C1191 C 0.16931 0.81335 0.46188 0.0
C1192 C 0.14635 0.86388 0.47757 0.0
H1193 H 0.10879 0.87644 0.51163 0.0
C1194 C 0.14476 0.8808 0.46451 0.0
C1195 C 0.13338 0.86229 0.49482 0.0
C1196 C 0.13496 0.84456 0.50951 0.0
C1197 C 0.13009 0.89606 0.46801 0.0
C1198 C 0.11707 0.89448 0.48529 0.0
C1199 C 0.11883 0.8776 0.49843 0.0
C1200 C 0.10111 0.90989 0.48971 0.0
C1201 C 0.12823 0.91338 0.45286 0.0
C1202 C 0.1064 0.93029 0.49357 0.0
C1203 C 0.09117 0.94483 0.49718 0.0
C1204 C 0.07037 0.93918 0.49717 0.0
C1205 C 0.06523 0.91856 0.49385 0.0
C1206 C 0.08046 0.90408 0.49018 0.0
H1207 H 0.13569 0.90968 0.438 0.0
H1208 H 0.11192 0.91718 0.44994 0.0
H1209 H 0.13582 0.92714 0.45923 0.0
H1210 H 0.1223 0.93498 0.49372 0.0
H1211 H 0.09574 0.96052 0.49981 0.0
H1212 H 0.44224 0.17024 0.19986 0.0
H1213 H 0.44917 0.14346 0.17451 0.0
H1214 H 0.49646 0.18079 0.1476 0.0
H1215 H 0.48998 0.20738 0.17308 0.0
H1216 H 0.44813 0.14633 0.13061 0.0
H1217 H 0.52508 0.12568 0.16039 0.0
H1218 H 0.50678 0.14018 0.17519 0.0
H1219 H 0.52146 0.15243 0.15541 0.0
C1220 C 0.45416 0.17268 0.18859 0.0
C1221 C 0.46559 0.19088 0.18847 0.0
C1222 C 0.45804 0.15744 0.1741 0.0
C1223 C 0.47351 0.1601 0.15943 0.0
C1224 C 0.48466 0.17838 0.15901 0.0
H1225 H 0.49533 0.09396 0.047 0.0
H1226 H 0.48875 0.11967 0.07326 0.0
C1227 C 0.48077 0.19363 0.17343 0.0
C1228 C 0.47795 0.14381 0.14443 0.0
H1229 H 0.51542 0.11116 0.12844 0.0
C1230 C 0.46279 0.13856 0.13015 0.0
C1231 C 0.49703 0.13361 0.1441 0.0
C1232 C 0.51349 0.13808 0.15969 0.0
C1233 C 0.46639 0.12362 0.11517 0.0
C1234 C 0.48572 0.11392 0.11441 0.0
C1235 C 0.50071 0.11883 0.12898 0.0
C1236 C 0.49059 0.0985 0.09864 0.0
C1237 C 0.44946 0.11819 0.1004 0.0
C1238 C 0.49445 0.07823 0.10434 0.0
C1239 C 0.4983 0.06345 0.0894 0.0
C1240 C 0.49849 0.06874 0.06847 0.0
C1241 C 0.49523 0.08926 0.06292 0.0
C1242 C 0.49134 0.104 0.07789 0.0
H1243 H 0.43428 0.12349 0.10597 0.0
H1244 H 0.45249 0.1256 0.08541 0.0
H1245 H 0.44879 0.10143 0.09789 0.0
H1246 H 0.49406 0.07377 0.12033 0.0
H1247 H 0.50081 0.04784 0.09428 0.0
H1248 H 0.82983 0.5141 0.20606 0.0
H1249 H 0.85573 0.5077 0.17977 0.0
H1250 H 0.83184 0.55749 0.14372 0.0
H1251 H 0.80607 0.56429 0.1702 0.0
H1252 H 0.84854 0.49844 0.13743 0.0
H1253 H 0.89427 0.56923 0.14859 0.0
H1254 H 0.87631 0.55999 0.1675 0.0
H1255 H 0.86722 0.5729 0.14498 0.0
C1256 C 0.83027 0.52388 0.19267 0.0
C1257 C 0.81603 0.53982 0.19025 0.0
C1258 C 0.84496 0.5201 0.17762 0.0
C1259 C 0.84577 0.53225 0.15996 0.0
C1260 C 0.83157 0.54813 0.1574 0.0
H1261 H 0.91121 0.5072 0.04695 0.0
H1262 H 0.88506 0.51291 0.07305 0.0
C1263 C 0.8168 0.55189 0.17244 0.0
C1264 C 0.86132 0.52802 0.14408 0.0
H1265 H 0.9036 0.54795 0.1208 0.0
C1266 C 0.86059 0.50923 0.13376 0.0
C1267 C 0.87709 0.54208 0.13957 0.0
C1268 C 0.87898 0.56213 0.15082 0.0
C1269 C 0.87519 0.5042 0.11882 0.0
C1270 C 0.89074 0.51843 0.11402 0.0
C1271 C 0.89156 0.53714 0.12448 0.0
C1272 C 0.90647 0.51416 0.09832 0.0
C1273 C 0.87409 0.48358 0.10854 0.0
C1274 C 0.92716 0.51317 0.10391 0.0
C1275 C 0.9422 0.50997 0.08905 0.0
C1276 C 0.93681 0.50785 0.06826 0.0
C1277 C 0.91597 0.50869 0.06278 0.0
C1278 C 0.90095 0.51187 0.07769 0.0
H1279 H 0.86431 0.47273 0.11724 0.0
H1280 H 0.86745 0.48538 0.09299 0.0
H1281 H 0.88961 0.47684 0.10686 0.0
H1282 H 0.93168 0.51498 0.11979 0.0
H1283 H 0.95805 0.50948 0.09388 0.0
H1284 H 0.56383 0.81599 0.18031 0.0
H1285 H 0.55847 0.84303 0.15489 0.0
H1286 H 0.49534 0.84819 0.17366 0.0
H1287 H 0.50053 0.82106 0.19887 0.0
H1288 H 0.49929 0.84588 0.13233 0.0
H1289 H 0.55245 0.9041 0.16368 0.0
H1290 H 0.56438 0.87985 0.159 0.0
H1291 H 0.54464 0.88192 0.17812 0.0
C1292 C 0.54889 0.82309 0.17915 0.0
C1293 C 0.53258 0.81643 0.1915 0.0
C1294 C 0.54586 0.83855 0.16468 0.0
C1295 C 0.52657 0.84778 0.16259 0.0
C1296 C 0.51034 0.84126 0.17505 0.0
H1297 H 0.5003 0.95841 0.09429 0.0
H1298 H 0.5046 0.93247 0.12083 0.0
C1299 C 0.51331 0.82574 0.18938 0.0
C1300 C 0.52299 0.86363 0.14683 0.0
H1301 H 0.53888 0.9105 0.13042 0.0
C1302 C 0.50788 0.86006 0.13195 0.0
C1303 C 0.53404 0.8822 0.14656 0.0
C1304 C 0.54964 0.88739 0.1628 0.0
C1305 C 0.50369 0.87445 0.11661 0.0
C1306 C 0.51526 0.89268 0.11588 0.0
C1307 C 0.53017 0.89641 0.13093 0.0
C1308 C 0.51213 0.90816 0.09966 0.0
C1309 C 0.48668 0.87013 0.10156 0.0
C1310 C 0.51502 0.90308 0.07897 0.0
C1311 C 0.51245 0.91782 0.06373 0.0
C1312 C 0.50718 0.938 0.06893 0.0
C1313 C 0.50438 0.94304 0.08971 0.0
C1314 C 0.50684 0.92824 0.10492 0.0
H1315 H 0.47572 0.85865 0.10764 0.0
H1316 H 0.47811 0.88428 0.09773 0.0
H1317 H 0.49334 0.86393 0.0872 0.0
H1318 H 0.51958 0.88777 0.07463 0.0
H1319 H 0.51498 0.91344 0.04791 0.0
H1320 H 0.1693 0.52182 0.21075 0.0
H1321 H 0.14281 0.51589 0.18494 0.0
H1322 H 0.17936 0.54715 0.13975 0.0
H1323 H 0.20573 0.55378 0.16558 0.0
H1324 H 0.12275 0.5486 0.15736 0.0
H1325 H 0.16565 0.48676 0.1174 0.0
H1326 H 0.17049 0.49348 0.14384 0.0
H1327 H 0.17937 0.50981 0.12363 0.0
C1328 C 0.17159 0.52777 0.19543 0.0
C1329 C 0.18967 0.53827 0.19023 0.0
C1330 C 0.1565 0.52423 0.1807 0.0
C1331 C 0.15931 0.53093 0.16051 0.0
C1332 C 0.17711 0.54169 0.15527 0.0
H1333 H 0.09228 0.51635 0.04749 0.0
H1334 H 0.11786 0.52238 0.07407 0.0
C1335 C 0.19216 0.54537 0.17002 0.0
C1336 C 0.14367 0.52652 0.14483 0.0
H1337 H 0.13421 0.49694 0.10286 0.0
C1338 C 0.12515 0.53729 0.14545 0.0
C1339 C 0.14705 0.5118 0.12938 0.0
C1340 C 0.16664 0.49965 0.12845 0.0
C1341 C 0.10992 0.53397 0.13066 0.0
C1342 C 0.11318 0.51908 0.11525 0.0
C1343 C 0.13174 0.50829 0.11473 0.0
C1344 C 0.09771 0.51477 0.09927 0.0
C1345 C 0.09074 0.54682 0.13135 0.0
C1346 C 0.07803 0.50804 0.10463 0.0
C1347 C 0.06329 0.50468 0.08948 0.0
C1348 C 0.06808 0.50772 0.06867 0.0
C1349 C 0.08805 0.51381 0.06335 0.0
C1350 C 0.1027 0.51731 0.07852 0.0
H1351 H 0.09304 0.56101 0.14041 0.0
H1352 H 0.08567 0.55108 0.11568 0.0
H1353 H 0.07829 0.53794 0.13874 0.0
H1354 H 0.07404 0.50546 0.12053 0.0
H1355 H 0.04815 0.49977 0.09412 0.0
H1356 H 0.48018 0.83649 0.79613 0.0
H1357 H 0.48642 0.86299 0.82178 0.0
H1358 H 0.45704 0.82597 0.86782 0.0
H1359 H 0.4501 0.79957 0.84217 0.0
H1360 H 0.45421 0.88245 0.85053 0.0
H1361 H 0.51815 0.84043 0.88816 0.0
H1362 H 0.51061 0.8356 0.86194 0.0
H1363 H 0.49505 0.82644 0.88263 0.0
C1364 C 0.47469 0.8341 0.81161 0.0
C1365 C 0.46465 0.81587 0.81709 0.0
C1366 C 0.47841 0.8492 0.82625 0.0
C1367 C 0.47235 0.84625 0.84663 0.0
C1368 C 0.46201 0.82833 0.85215 0.0
H1369 H 0.48994 0.91342 0.95911 0.0
H1370 H 0.48322 0.88778 0.93282 0.0
C1371 C 0.45815 0.81326 0.8375 0.0
C1372 C 0.47706 0.86186 0.8622 0.0
H1373 H 0.50808 0.87164 0.90309 0.0
C1374 C 0.466 0.88019 0.86202 0.0
C1375 C 0.49241 0.85867 0.87711 0.0
C1376 C 0.50489 0.83929 0.87754 0.0
C1377 C 0.46967 0.89541 0.8767 0.0
C1378 C 0.48519 0.89234 0.89154 0.0
C1379 C 0.49625 0.87396 0.89165 0.0
C1380 C 0.48993 0.90784 0.90733 0.0
C1381 C 0.45655 0.91439 0.87651 0.0
C1382 C 0.49638 0.92749 0.9017 0.0
C1383 C 0.50016 0.94225 0.91668 0.0
C1384 C 0.49781 0.93753 0.93759 0.0
C1385 C 0.49198 0.9176 0.94317 0.0
C1386 C 0.48807 0.90291 0.92817 0.0
H1387 H 0.44205 0.91195 0.86793 0.0
H1388 H 0.45275 0.91935 0.89234 0.0
H1389 H 0.46505 0.92693 0.86887 0.0
H1390 H 0.49841 0.93143 0.8857 0.0
H1391 H 0.50483 0.95737 0.91183 0.0
H1392 H 0.2075 0.49195 0.83214 0.0
H1393 H 0.18101 0.49808 0.85786 0.0
H1394 H 0.14612 0.44734 0.83427 0.0
H1395 H 0.17285 0.44076 0.80872 0.0
H1396 H 0.13906 0.50677 0.85009 0.0
H1397 H 0.14969 0.43655 0.89683 0.0
H1398 H 0.16877 0.44558 0.87896 0.0
H1399 H 0.14643 0.43247 0.86977 0.0
C1400 C 0.19437 0.48186 0.83264 0.0
C1401 C 0.19233 0.46576 0.81851 0.0
C1402 C 0.17918 0.4855 0.84723 0.0
C1403 C 0.16175 0.47305 0.84805 0.0
C1404 C 0.15962 0.45695 0.83402 0.0
H1405 H 0.04766 0.49854 0.91154 0.0
H1406 H 0.07408 0.49246 0.88577 0.0
C1407 C 0.1748 0.45331 0.81936 0.0
C1408 C 0.14559 0.47734 0.8633 0.0
H1409 H 0.12158 0.45773 0.90537 0.0
C1410 C 0.1352 0.49607 0.86218 0.0
C1411 C 0.14081 0.46341 0.87913 0.0
C1412 C 0.15209 0.44343 0.88144 0.0
C1413 C 0.11999 0.50119 0.87647 0.0
C1414 C 0.11495 0.48709 0.89207 0.0
C1415 C 0.12544 0.46843 0.89327 0.0
C1416 C 0.09904 0.49152 0.90755 0.0
C1417 C 0.1097 0.52177 0.87499 0.0
C1418 C 0.10434 0.49282 0.92832 0.0
C1419 C 0.08931 0.49625 0.94313 0.0
C1420 C 0.06862 0.4983 0.93744 0.0
C1421 C 0.06341 0.49714 0.91652 0.0
C1422 C 0.0785 0.49373 0.90173 0.0
H1423 H 0.11849 0.53253 0.86518 0.0
H1424 H 0.09426 0.51985 0.86815 0.0
H1425 H 0.1078 0.52868 0.89042 0.0
H1426 H 0.12014 0.49108 0.93308 0.0
H1427 H 0.09394 0.49698 0.95906 0.0
H1428 H 0.56447 0.18549 0.82446 0.0
H1429 H 0.55688 0.15924 0.85007 0.0
H1430 H 0.49363 0.15881 0.83101 0.0
H1431 H 0.50109 0.18518 0.80549 0.0
H1432 H 0.4978 0.16038 0.87268 0.0
H1433 H 0.54635 0.09888 0.84028 0.0
H1434 H 0.56016 0.12212 0.84492 0.0
H1435 H 0.54 0.1217 0.82612 0.0
C1436 C 0.54901 0.17962 0.82559 0.0
C1437 C 0.53338 0.18731 0.81297 0.0
C1438 C 0.5447 0.16462 0.84018 0.0
C1439 C 0.52477 0.15688 0.84219 0.0
C1440 C 0.50912 0.16456 0.82964 0.0
H1441 H 0.49547 0.0478 0.91203 0.0
H1442 H 0.49898 0.07343 0.88509 0.0
C1443 C 0.51339 0.17965 0.81514 0.0
C1444 C 0.5201 0.14119 0.85781 0.0
H1445 H 0.53352 0.09354 0.87408 0.0
C1446 C 0.50549 0.1457 0.87293 0.0
C1447 C 0.52994 0.12195 0.85788 0.0
C1448 C 0.54483 0.11575 0.84131 0.0
C1449 C 0.50081 0.13165 0.88846 0.0
C1450 C 0.51136 0.1128 0.88908 0.0
C1451 C 0.5256 0.1081 0.87367 0.0
C1452 C 0.50804 0.09774 0.90564 0.0
C1453 C 0.48447 0.13704 0.90391 0.0
C1454 C 0.51196 0.10296 0.92613 0.0
C1455 C 0.50985 0.08838 0.94162 0.0
C1456 C 0.50407 0.06825 0.93683 0.0
C1457 C 0.50004 0.06313 0.91627 0.0
C1458 C 0.50201 0.07775 0.90084 0.0
H1459 H 0.4739 0.1489 0.89789 0.0
H1460 H 0.47537 0.12339 0.90828 0.0
H1461 H 0.49184 0.14321 0.91793 0.0
H1462 H 0.5171 0.11817 0.93011 0.0
H1463 H 0.51328 0.0928 0.95725 0.0
H1464 H 0.82487 0.44045 0.81617 0.0
H1465 H 0.85061 0.44592 0.84297 0.0
H1466 H 0.83285 0.50926 0.84712 0.0
H1467 H 0.80734 0.50394 0.82024 0.0
H1468 H 0.87408 0.50459 0.84426 0.0
H1469 H 0.84259 0.4534 0.90429 0.0
H1470 H 0.84684 0.44098 0.88012 0.0
H1471 H 0.82803 0.46095 0.88203 0.0
C1472 C 0.82632 0.45545 0.823 0.0
C1473 C 0.81418 0.47178 0.81612 0.0
C1474 C 0.84097 0.45855 0.83832 0.0
C1475 C 0.84346 0.47795 0.84717 0.0
C1476 C 0.83117 0.49418 0.84047 0.0
H1477 H 0.91188 0.50691 0.95716 0.0
H1478 H 0.88547 0.50197 0.93114 0.0
C1479 C 0.81666 0.49114 0.82509 0.0
C1480 C 0.85942 0.48164 0.86282 0.0
H1481 H 0.87582 0.46698 0.91025 0.0
C1482 C 0.87444 0.49642 0.85873 0.0
C1483 C 0.85967 0.47112 0.88176 0.0
C1484 C 0.84331 0.45587 0.88745 0.0
C1485 C 0.88986 0.50087 0.873 0.0
C1486 C 0.8905 0.48988 0.89165 0.0
C1487 C 0.87536 0.47525 0.89585 0.0
C1488 C 0.90666 0.49344 0.90712 0.0
C1489 C 0.90505 0.51755 0.86812 0.0
C1490 C 0.92732 0.49023 0.90222 0.0
C1491 C 0.94249 0.49317 0.917 0.0
C1492 C 0.93724 0.49913 0.93705 0.0
C1493 C 0.91649 0.5023 0.94189 0.0
C1494 C 0.90135 0.49947 0.92705 0.0
H1495 H 0.89913 0.52811 0.85619 0.0
H1496 H 0.90888 0.52656 0.88203 0.0
H1497 H 0.91936 0.51056 0.86221 0.0
H1498 H 0.93169 0.48512 0.88704 0.0
H1499 H 0.95828 0.49034 0.91279 0.0
H1500 H 0.6955 0.68523 1.00055 0.0
H1501 H 0.66954 0.65865 0.99656 0.0
H1502 H 0.65397 0.66407 0.06061 0.0
H1503 H 0.68017 0.6906 0.06476 0.0
H1504 H 0.65676 0.62409 0.0478 0.0
H1505 H 0.60821 0.66895 0.99458 0.0
H1506 H 0.63416 0.66643 0.98592 0.0
H1507 H 0.62878 0.68027 0.00914 0.0
C1508 C 0.68646 0.68083 0.01375 0.0
C1509 C 0.68965 0.69012 0.03291 0.0
C1510 C 0.67163 0.66569 0.01145 0.0
C1511 C 0.65955 0.65975 0.02818 0.0
C1512 C 0.66306 0.66858 0.04748 0.0
H1513 H 0.54658 0.59096 0.01808 0.0
H1514 H 0.57261 0.61698 0.0241 0.0
C1515 C 0.67803 0.68365 0.04984 0.0
C1516 C 0.64329 0.64426 0.02549 0.0
H1517 H 0.6002 0.63362 0.99793 0.0
C1518 C 0.64432 0.62619 0.03699 0.0
C1519 C 0.62692 0.64722 0.0116 0.0
C1520 C 0.62429 0.66685 0.99975 0.0
C1521 C 0.62963 0.61073 0.03463 0.0
C1522 C 0.61378 0.61332 0.02006 0.0
C1523 C 0.61252 0.63158 0.0089 0.0
C1524 C 0.59815 0.5974 0.01634 0.0
C1525 C 0.63104 0.59195 0.04796 0.0
C1526 C 0.60388 0.57786 0.00963 0.0
C1527 C 0.58904 0.56288 0.00625 0.0
C1528 C 0.56817 0.56727 0.00926 0.0
C1529 C 0.56248 0.58703 0.01553 0.0
C1530 C 0.57734 0.60194 0.01904 0.0
H1531 H 0.6403 0.59483 0.06196 0.0
H1532 H 0.6156 0.58661 0.05268 0.0
H1533 H 0.63856 0.57951 0.03921 0.0
H1534 H 0.61983 0.57421 0.00694 0.0
H1535 H 0.59395 0.54789 0.00123 0.0
H1536 H 0.31742 0.69415 0.00659 0.0
H1537 H 0.34369 0.66858 0.01384 0.0
H1538 H 0.34193 0.64887 0.95076 0.0
H1539 H 0.31631 0.67499 0.94315 0.0
H1540 H 0.34273 0.62683 0.01004 0.0
H1541 H 0.40254 0.66022 0.95981 0.0
H1542 H 0.37954 0.67387 0.9667 0.0
H1543 H 0.37897 0.655 0.94667 0.0
C1544 C 0.3228 0.68454 0.9942 0.0
C1545 C 0.31494 0.68675 0.97423 0.0
C1546 C 0.33768 0.66984 0.99841 0.0
C1547 C 0.34498 0.6571 0.98276 0.0
C1548 C 0.33679 0.65886 0.96296 0.0
H1549 H 0.41273 0.54458 0.99397 0.0
H1550 H 0.38646 0.57081 0.99048 0.0
C1551 C 0.32197 0.67362 0.95869 0.0
C1552 C 0.36113 0.64192 0.98719 0.0
H1553 H 0.40917 0.62706 0.97315 0.0
C1554 C 0.35731 0.62691 0.00207 0.0
C1555 C 0.38024 0.64233 0.97701 0.0
C1556 C 0.3857 0.65884 0.9618 0.0
C1557 C 0.37196 0.61195 0.0067 0.0
C1558 C 0.39071 0.61182 0.99585 0.0
C1559 C 0.3947 0.62711 0.98132 0.0
C1560 C 0.40636 0.59582 0.99907 0.0
C1561 C 0.36732 0.59661 0.02333 0.0
C1562 C 0.42635 0.60124 0.0047 0.0
C1563 C 0.44151 0.58632 0.0065 0.0
C1564 C 0.43691 0.56568 0.00267 0.0
C1565 C 0.41677 0.56029 0.99726 0.0
C1566 C 0.40168 0.57525 0.99534 0.0
H1567 H 0.35542 0.60235 0.03405 0.0
H1568 H 0.36147 0.58236 0.01621 0.0
H1569 H 0.38129 0.5928 0.03226 0.0
H1570 H 0.43027 0.61707 0.00755 0.0
H1571 H 0.45683 0.591 0.01076 0.0
H1572 H 0.32407 0.30347 1.00074 0.0
H1573 H 0.35039 0.32939 0.00662 0.0
H1574 H 0.34378 0.35026 0.94423 0.0
H1575 H 0.31753 0.32419 0.93819 0.0
H1576 H 0.38409 0.34698 0.95627 0.0
H1577 H 0.33891 0.39007 0.01386 0.0
H1578 H 0.34215 0.36359 0.02018 0.0
H1579 H 0.32774 0.37062 0.99776 0.0
C1580 C 0.32819 0.31365 0.98831 0.0
C1581 C 0.31865 0.31199 0.96907 0.0
C1582 C 0.34317 0.32845 0.9917 0.0
C1583 C 0.34868 0.34199 0.97599 0.0
C1584 C 0.33962 0.34 0.95658 0.0
H1585 H 0.41411 0.45591 0.99072 0.0
H1586 H 0.38874 0.42926 0.98463 0.0
C1587 C 0.32471 0.3251 0.95313 0.0
C1588 C 0.36392 0.35823 0.97982 0.0
H1589 H 0.37382 0.39961 0.01004 0.0
C1590 C 0.38185 0.35854 0.96797 0.0
C1591 C 0.36077 0.37344 0.9949 0.0
C1592 C 0.34127 0.3746 0.00728 0.0
C1593 C 0.3969 0.3735 0.97102 0.0
C1594 C 0.39408 0.38824 0.98663 0.0
C1595 C 0.37602 0.38812 0.99826 0.0
C1596 C 0.40948 0.40425 0.99084 0.0
C1597 C 0.41548 0.37362 0.95725 0.0
C1598 C 0.42943 0.399 0.99677 0.0
C1599 C 0.44404 0.41419 1.00019 0.0
C1600 C 0.43886 0.43493 0.99797 0.0
C1601 C 0.41865 0.44012 0.99262 0.0
C1602 C 0.40411 0.42491 0.98908 0.0
H1603 H 0.41271 0.36499 0.94285 0.0
H1604 H 0.42002 0.38947 0.95325 0.0
H1605 H 0.42847 0.36628 0.96536 0.0
H1606 H 0.43372 0.38314 0.99871 0.0
H1607 H 0.45939 0.40963 0.0045 0.0
H1608 H 0.71203 0.33715 0.97894 0.0
H1609 H 0.68619 0.36354 0.98469 0.0
H1610 H 0.64113 0.32665 0.95374 0.0
H1611 H 0.66699 0.30035 0.94731 0.0
H1612 H 0.65837 0.38373 0.95287 0.0
H1613 H 0.61907 0.33941 0.01424 0.0
H1614 H 0.64533 0.33464 0.00698 0.0
H1615 H 0.62486 0.32622 0.99071 0.0
C1616 C 0.69674 0.33479 0.97296 0.0
C1617 C 0.69157 0.31659 0.96269 0.0
C1618 C 0.68199 0.34983 0.9764 0.0
C1619 C 0.66181 0.34686 0.96981 0.0
C1620 C 0.65664 0.32902 0.95912 0.0
H1621 H 0.54873 0.41283 0.98705 0.0
H1622 H 0.57532 0.3877 0.97981 0.0
C1623 C 0.67141 0.31401 0.95555 0.0
C1624 C 0.64603 0.36225 0.97456 0.0
H1625 H 0.60425 0.37083 0.00471 0.0
C1626 C 0.64652 0.381 0.96421 0.0
C1627 C 0.63068 0.35848 0.98933 0.0
C1628 C 0.62989 0.33867 0.00111 0.0
C1629 C 0.63173 0.39607 0.96802 0.0
C1630 C 0.61644 0.39239 0.98296 0.0
C1631 C 0.61602 0.37361 0.99331 0.0
C1632 C 0.60047 0.40767 0.98782 0.0
C1633 C 0.63231 0.41554 0.95563 0.0
C1634 C 0.6058 0.42711 0.99513 0.0
C1635 C 0.59063 0.4416 0.99921 0.0
C1636 C 0.56984 0.43678 0.99631 0.0
C1637 C 0.56457 0.41706 0.98955 0.0
C1638 C 0.57975 0.40267 0.98534 0.0
H1639 H 0.64128 0.41364 0.94128 0.0
H1640 H 0.61662 0.42067 0.95158 0.0
H1641 H 0.63971 0.42773 0.96484 0.0
H1642 H 0.62169 0.4311 0.99766 0.0
H1643 H 0.59523 0.45656 0.00459 0.0
H1644 H 0.9501 0.7047 0.66485 0.0
H1645 H 0.95699 0.67808 0.63941 0.0
H1646 H 0.98836 0.64243 0.68521 0.0
H1647 H 0.98216 0.66915 0.71062 0.0
H1648 H 0.99972 0.66211 0.63 0.0
H1649 H 0.94402 0.60364 0.65713 0.0
H1650 H 0.94102 0.63052 0.66264 0.0
H1651 H 0.95985 0.61582 0.67614 0.0
C1652 C 0.95852 0.69124 0.66952 0.0
C1653 C 0.96556 0.68907 0.68979 0.0
C1654 C 0.96234 0.67603 0.65499 0.0
C1655 C 0.97303 0.65833 0.66055 0.0
C1656 C 0.97984 0.65592 0.68077 0.0
H1657 H 0.00679 0.54842 0.59436 0.0
H1658 H 0.00142 0.57463 0.62049 0.0
C1659 C 0.97617 0.67116 0.69527 0.0
C1660 C 0.97778 0.64268 0.64501 0.0
H1661 H 0.96602 0.59419 0.63006 0.0
C1662 C 0.99236 0.64726 0.62992 0.0
C1663 C 0.96825 0.62334 0.64521 0.0
C1664 C 0.9523 0.61794 0.66105 0.0
C1665 C 0.99782 0.63283 0.615 0.0
C1666 C 0.98801 0.61356 0.61494 0.0
C1667 C 0.97351 0.60898 0.63016 0.0
C1668 C 0.99222 0.59806 0.59898 0.0
C1669 C 0.01435 0.63822 0.59976 0.0
C1670 C 0.98876 0.60254 0.57824 0.0
C1671 C 0.99196 0.58767 0.56325 0.0
C1672 C 0.99838 0.56791 0.56876 0.0
C1673 C 0.00182 0.56347 0.58957 0.0
C1674 C 0.99876 0.57842 0.60454 0.0
H1675 H 0.02442 0.65059 0.60561 0.0
H1676 H 0.02396 0.62474 0.59603 0.0
H1677 H 0.00713 0.64374 0.58539 0.0
H1678 H 0.98318 0.61743 0.57366 0.0
H1679 H 0.98888 0.59157 0.54741 0.0
H1680 H 0.30041 0.9501 0.66624 0.0
H1681 H 0.32683 0.95688 0.6405 0.0
H1682 H 0.36359 0.98727 0.68613 0.0
H1683 H 0.33707 0.98115 0.71184 0.0
H1684 H 0.34281 0.99918 0.63116 0.0
H1685 H 0.40193 0.94358 0.65701 0.0
H1686 H 0.3751 0.94064 0.66311 0.0
H1687 H 0.3902 0.95933 0.67636 0.0
C1688 C 0.31409 0.95826 0.67081 0.0
C1689 C 0.31661 0.96508 0.69112 0.0
C1690 C 0.32918 0.96201 0.65612 0.0
C1691 C 0.34713 0.97243 0.66153 0.0
C1692 C 0.34991 0.97896 0.68179 0.0
H1693 H 0.45637 0.0068 0.5942 0.0
H1694 H 0.43037 0.00133 0.62057 0.0
C1695 C 0.33478 0.97534 0.69646 0.0
C1696 C 0.36258 0.97729 0.64577 0.0
H1697 H 0.41104 0.96588 0.6301 0.0
C1698 C 0.35773 0.9919 0.63083 0.0
C1699 C 0.38201 0.96786 0.64564 0.0
C1700 C 0.38771 0.95187 0.66128 0.0
C1701 C 0.37197 0.99751 0.61576 0.0
C1702 C 0.39133 0.98783 0.61538 0.0
C1703 C 0.39618 0.97328 0.63043 0.0
C1704 C 0.40667 0.99222 0.59926 0.0
C1705 C 0.36628 0.01406 0.60069 0.0
C1706 C 0.40195 0.98891 0.57855 0.0
C1707 C 0.41671 0.99218 0.56342 0.0
C1708 C 0.43658 0.99853 0.56875 0.0
C1709 C 0.44124 0.0019 0.58954 0.0
C1710 C 0.4264 0.99877 0.60464 0.0
H1711 H 0.35391 0.02401 0.60678 0.0
H1712 H 0.3797 0.02375 0.59685 0.0
H1713 H 0.3606 0.00692 0.58635 0.0
H1714 H 0.38698 0.98334 0.57409 0.0
H1715 H 0.41264 0.98916 0.5476 0.0
H1716 H 0.01349 0.29783 0.67387 0.0
H1717 H 0.00782 0.32439 0.64816 0.0
H1718 H 0.05572 0.36082 0.67522 0.0
H1719 H 0.06182 0.33408 0.70082 0.0
H1720 H 0.99716 0.36615 0.65642 0.0
H1721 H 0.07009 0.35829 0.61304 0.0
H1722 H 0.0606 0.3386 0.62996 0.0
H1723 H 0.07255 0.36101 0.64037 0.0
C1724 C 0.02306 0.31134 0.67415 0.0
C1725 C 0.0382 0.31382 0.68928 0.0
C1726 C 0.01968 0.32655 0.65956 0.0
C1727 C 0.03146 0.34443 0.65974 0.0
C1728 C 0.04665 0.34698 0.67473 0.0
H1729 H 0.00573 0.45794 0.59547 0.0
H1730 H 0.01166 0.43183 0.62155 0.0
C1731 C 0.05 0.33179 0.6894 0.0
C1732 C 0.02741 0.36062 0.64451 0.0
H1733 H 0.04825 0.38552 0.60357 0.0
C1734 C 0.00831 0.37043 0.64487 0.0
C1735 C 0.04196 0.36597 0.6294 0.0
C1736 C 0.06241 0.35535 0.62796 0.0
C1737 C 0.0034 0.3856 0.63051 0.0
C1738 C 0.01806 0.39115 0.61558 0.0
C1739 C 0.03711 0.38126 0.61516 0.0
C1740 C 0.01377 0.40687 0.59993 0.0
C1741 C 0.98245 0.3953 0.63114 0.0
C1742 C 0.01315 0.40145 0.57916 0.0
C1743 C 0.00979 0.41629 0.56418 0.0
C1744 C 0.00714 0.43691 0.5697 0.0
C1745 C 0.00762 0.44224 0.59062 0.0
C1746 C 0.01095 0.42734 0.60558 0.0
H1747 H 0.97157 0.38637 0.64068 0.0
H1748 H 0.98372 0.41085 0.6378 0.0
H1749 H 0.97604 0.39681 0.61544 0.0
H1750 H 0.01535 0.38571 0.57453 0.0
H1751 H 0.00958 0.41157 0.54827 0.0
H1752 H 0.66891 0.06384 0.70018 0.0
H1753 H 0.6422 0.05639 0.67486 0.0
H1754 H 0.68075 0.01037 0.64754 0.0
H1755 H 0.70733 0.0174 0.673 0.0
H1756 H 0.64531 0.05796 0.63092 0.0
H1757 H 0.62598 0.98052 0.65994 0.0
H1758 H 0.64003 0.99894 0.675 0.0
H1759 H 0.65273 0.98482 0.6551 0.0
C1760 C 0.67163 0.05206 0.68884 0.0
C1761 C 0.69018 0.04116 0.68859 0.0
C1762 C 0.65643 0.0479 0.67437 0.0
C1763 C 0.65946 0.03266 0.65957 0.0
C1764 C 0.67805 0.02199 0.65905 0.0
H1765 H 0.59305 0.01066 0.54719 0.0
H1766 H 0.6189 0.0173 0.57335 0.0
C1767 C 0.69328 0.02618 0.67345 0.0
C1768 C 0.64326 0.02806 0.64448 0.0
H1769 H 0.61101 0.99036 0.62827 0.0
C1770 C 0.63775 0.04322 0.63034 0.0
C1771 C 0.63333 0.00888 0.644 0.0
C1772 C 0.63814 0.99237 0.65941 0.0
C1773 C 0.62277 0.03955 0.61539 0.0
C1774 C 0.61329 0.02016 0.61452 0.0
C1775 C 0.6185 0.00514 0.62892 0.0
C1776 C 0.59779 0.01526 0.59881 0.0
C1777 C 0.61705 0.05648 0.60078 0.0
C1778 C 0.57751 0.01133 0.60459 0.0
C1779 C 0.56264 0.00745 0.5897 0.0
C1780 C 0.56788 0.0073 0.56876 0.0
C1781 C 0.58841 0.01069 0.56313 0.0
C1782 C 0.60322 0.01461 0.57804 0.0
H1783 H 0.6223 0.07163 0.60636 0.0
H1784 H 0.62434 0.05359 0.58568 0.0
H1785 H 0.60022 0.05702 0.59844 0.0
H1786 H 0.5731 0.01165 0.6206 0.0
H1787 H 0.54703 0.00484 0.59464 0.0
H1788 H 0.00213 0.32158 0.30751 0.0
H1789 H 0.00717 0.34743 0.33407 0.0
H1790 H 0.94401 0.34121 0.35238 0.0
H1791 H 0.9388 0.3154 0.32562 0.0
H1792 H 0.9565 0.38132 0.35004 0.0
H1793 H 0.01187 0.33543 0.39509 0.0
H1794 H 0.01933 0.33869 0.36881 0.0
H1795 H 0.99647 0.32459 0.37486 0.0
C1796 C 0.98935 0.32566 0.31727 0.0
C1797 C 0.97013 0.31636 0.31469 0.0
C1798 C 0.99226 0.34038 0.33244 0.0
C1799 C 0.97608 0.34587 0.34545 0.0
C1800 C 0.95671 0.33704 0.34255 0.0
H1801 H 0.98976 0.4121 0.45984 0.0
H1802 H 0.98331 0.38646 0.43346 0.0
C1803 C 0.95375 0.32239 0.32726 0.0
C1804 C 0.97941 0.36091 0.36203 0.0
H1805 H 0.00863 0.37048 0.40431 0.0
C1806 C 0.96781 0.37894 0.36199 0.0
C1807 C 0.99396 0.35756 0.37774 0.0
C1808 C 0.00598 0.33793 0.37931 0.0
C1809 C 0.97071 0.39398 0.37702 0.0
C1810 C 0.98591 0.39102 0.39219 0.0
C1811 C 0.99717 0.37279 0.39249 0.0
C1812 C 0.99022 0.40656 0.40805 0.0
C1813 C 0.95727 0.41273 0.37669 0.0
C1814 C 0.99668 0.42622 0.40249 0.0
C1815 C 1.00033 0.44096 0.41751 0.0
C1816 C 0.99781 0.43622 0.4384 0.0
C1817 C 0.99191 0.41629 0.44392 0.0
C1818 C 0.98815 0.40161 0.42887 0.0
H1819 H 0.94295 0.41006 0.36788 0.0
H1820 H 0.95314 0.41758 0.39247 0.0
H1821 H 0.96567 0.42543 0.3692 0.0
H1822 H 0.99888 0.43017 0.38652 0.0
H1823 H 0.00504 0.45608 0.41271 0.0
H1824 H 0.68415 0.00237 0.30759 0.0
H1825 H 0.65797 0.00727 0.33392 0.0
H1826 H 0.6634 0.94395 0.35138 0.0
H1827 H 0.6895 0.93889 0.32483 0.0
H1828 H 0.62341 0.95668 0.34884 0.0
H1829 H 0.66919 0.01112 0.39508 0.0
H1830 H 0.6662 0.01894 0.36888 0.0
H1831 H 0.68019 0.996 0.37473 0.0
C1832 C 0.67983 0.98952 0.31712 0.0
C1833 C 0.68898 0.9703 0.31434 0.0
C1834 C 0.66492 0.99235 0.33217 0.0
C1835 C 0.6591 0.97608 0.34487 0.0
C1836 C 0.66781 0.95672 0.34179 0.0
H1837 H 0.59214 0.98837 0.459 0.0
H1838 H 0.61789 0.98228 0.43259 0.0
C1839 C 0.68264 0.95384 0.32662 0.0
C1840 C 0.64385 0.97929 0.36132 0.0
H1841 H 0.63398 0.00786 0.40395 0.0
C1842 C 0.62573 0.96779 0.36096 0.0
C1843 C 0.6471 0.99358 0.37727 0.0
C1844 C 0.66681 0.00547 0.37919 0.0
C1845 C 0.61054 0.97049 0.37592 0.0
C1846 C 0.61342 0.98542 0.39135 0.0
C1847 C 0.63172 0.99662 0.39194 0.0
C1848 C 0.59778 0.98946 0.40723 0.0
C1849 C 0.59173 0.95712 0.37526 0.0
C1850 C 0.57806 0.99592 0.40172 0.0
C1851 C 0.56324 0.99935 0.41677 0.0
C1852 C 0.56799 0.99663 0.43763 0.0
C1853 C 0.58796 0.9907 0.4431 0.0
C1854 C 0.6027 0.98714 0.42803 0.0
H1855 H 0.59445 0.94297 0.36626 0.0
H1856 H 0.58675 0.95278 0.39094 0.0
H1857 H 0.57906 0.96562 0.36781 0.0
H1858 H 0.57411 0.9983 0.38577 0.0
H1859 H 0.54808 0.00409 0.41202 0.0
H1860 H 0.00249 0.68171 0.30592 0.0
H1861 H 0.99693 0.6557 0.33225 0.0
H1862 H 0.06023 0.66047 0.35054 0.0
H1863 H 0.06595 0.68638 0.32403 0.0
H1864 H 0.0471 0.62077 0.348 0.0
H1865 H 0.99237 0.66723 0.39329 0.0
H1866 H 0.98487 0.66408 0.36701 0.0
H1867 H 0.00788 0.67793 0.37308 0.0
C1868 C 0.0152 0.67726 0.31562 0.0
C1869 C 0.03461 0.68617 0.31309 0.0
C1870 C 0.01199 0.66246 0.33066 0.0
C1871 C 0.02806 0.65652 0.34361 0.0
C1872 C 0.0476 0.66497 0.34076 0.0
H1873 H 0.01527 0.59127 0.45842 0.0
H1874 H 0.02121 0.61659 0.43162 0.0
C1875 C 0.05087 0.67969 0.3256 0.0
C1876 C 0.02448 0.64143 0.3601 0.0
H1877 H 0.99553 0.63226 0.40266 0.0
C1878 C 0.03589 0.62328 0.36001 0.0
C1879 C 0.01005 0.64494 0.3759 0.0
C1880 C 0.99823 0.66468 0.3775 0.0
C1881 C 0.03301 0.60834 0.37514 0.0
C1882 C 0.018 0.61149 0.39045 0.0
C1883 C 0.00684 0.62979 0.39074 0.0
C1884 C 0.01389 0.59616 0.40659 0.0
C1885 C 0.04633 0.5895 0.37478 0.0
C1886 C 0.00738 0.57642 0.40139 0.0
C1887 C 0.00405 0.56186 0.41665 0.0
C1888 C 0.00692 0.56687 0.43743 0.0
C1889 C 0.01285 0.58688 0.4426 0.0
C1890 C 0.0163 0.60138 0.4273 0.0
H1891 H 0.06054 0.59199 0.36575 0.0
H1892 H 0.05065 0.58477 0.39055 0.0
H1893 H 0.03775 0.57677 0.36755 0.0
H1894 H 0.00492 0.57226 0.3855 0.0
H1895 H 0.99929 0.54666 0.41213 0.0
H1896 H 0.29483 0.97806 0.33748 0.0
H1897 H 0.32075 0.98374 0.3639 0.0
H1898 H 0.36616 0.9547 0.32584 0.0
H1899 H 0.34023 0.94836 0.29949 0.0
H1900 H 0.34907 0.95236 0.38332 0.0
H1901 H 0.38751 0.01473 0.33987 0.0
H1902 H 0.36137 0.00717 0.33491 0.0
H1903 H 0.38211 0.99145 0.32621 0.0
C1904 C 0.31022 0.97249 0.33485 0.0
C1905 C 0.31546 0.96278 0.31632 0.0
C1906 C 0.32502 0.9759 0.34991 0.0
C1907 C 0.34531 0.96983 0.34664 0.0
C1908 C 0.35056 0.9597 0.32845 0.0
H1909 H 0.45823 0.98706 0.41342 0.0
H1910 H 0.43185 0.9801 0.38788 0.0
C1911 C 0.33576 0.95617 0.31342 0.0
C1912 C 0.3611 0.97447 0.36212 0.0
H1913 H 0.40256 0.00481 0.37117 0.0
C1914 C 0.36077 0.96383 0.38076 0.0
C1915 C 0.37628 0.98941 0.35856 0.0
C1916 C 0.3769 0.0015 0.33888 0.0
C1917 C 0.37554 0.96753 0.39592 0.0
C1918 C 0.39065 0.98266 0.39247 0.0
C1919 C 0.39093 0.99328 0.37378 0.0
C1920 C 0.40651 0.98749 0.40792 0.0
C1921 C 0.37514 0.95486 0.41525 0.0
C1922 C 0.40101 0.99441 0.42752 0.0
C1923 C 0.41604 0.99832 0.44223 0.0
C1924 C 0.43689 0.99565 0.4375 0.0
C1925 C 0.44235 0.98935 0.41761 0.0
C1926 C 0.42729 0.98531 0.40298 0.0
H1927 H 0.36637 0.94047 0.4131 0.0
H1928 H 0.39088 0.95095 0.42034 0.0
H1929 H 0.36761 0.96371 0.42764 0.0
H1930 H 0.38507 0.99671 0.43147 0.0
H1931 H 0.41129 0.00336 0.45732 0.0
H1932 H 0.96525 0.15613 0.29248 0.0
H1933 H 0.97161 0.13356 0.32167 0.0
H1934 H 0.019 0.17408 0.34313 0.0
H1935 H 0.01261 0.1969 0.31403 0.0
H1936 H 0.02896 0.1316 0.34614 0.0
H1937 H 0.95321 0.14931 0.38029 0.0
H1938 H 0.95201 0.1406 0.3542 0.0
H1939 H 0.96436 0.16444 0.36001 0.0
C1940 C 0.97711 0.16021 0.30334 0.0
C1941 C 0.98827 0.17845 0.30101 0.0
C1942 C 0.98069 0.14731 0.32004 0.0
C1943 C 0.99546 0.15237 0.33482 0.0
C1944 C 0.00743 0.16996 0.33197 0.0
H1945 H 0.99833 0.09485 0.45651 0.0
H1946 H 0.99813 0.12018 0.42881 0.0
C1947 C 0.00385 0.18291 0.31524 0.0
C1948 C 0.99787 0.13963 0.35352 0.0
H1949 H 0.97173 0.12178 0.39523 0.0
C1950 C 0.01651 0.12954 0.35695 0.0
C1951 C 0.98174 0.13728 0.36784 0.0
C1952 C 0.96176 0.14862 0.36557 0.0
C1953 C 0.01917 0.11653 0.37391 0.0
C1954 C 0.00267 0.11337 0.38765 0.0
C1955 C 0.98431 0.12408 0.38462 0.0
C1956 C 0.00376 0.09826 0.40463 0.0
C1957 C 0.03963 0.10628 0.37697 0.0
C1958 C 0.00679 0.07752 0.40024 0.0
C1959 C 0.00687 0.06304 0.41596 0.0
C1960 C 0.00381 0.06891 0.43652 0.0
C1961 C 1.00083 0.08975 0.44091 0.0
C1962 C 1.00069 0.10426 0.42509 0.0
H1963 H 0.05211 0.11474 0.36908 0.0
H1964 H 0.04345 0.10501 0.39351 0.0
H1965 H 0.03904 0.09066 0.37041 0.0
H1966 H 0.00875 0.07245 0.38455 0.0
H1967 H 0.00922 0.04718 0.41187 0.0
H1968 H 0.85019 0.96541 0.29204 0.0
H1969 H 0.87305 0.97179 0.32104 0.0
H1970 H 0.83269 0.01919 0.3427 0.0
H1971 H 0.80958 0.01278 0.31379 0.0
H1972 H 0.87544 0.02895 0.3454 0.0
H1973 H 0.85726 0.95359 0.37978 0.0
H1974 H 0.86585 0.95231 0.35364 0.0
H1975 H 0.84207 0.9648 0.35958 0.0
C1976 C 0.84622 0.97729 0.3029 0.0
C1977 C 0.82794 0.98844 0.30069 0.0
C1978 C 0.85929 0.98088 0.31948 0.0
C1979 C 0.85433 0.99565 0.33426 0.0
C1980 C 0.83672 0.00762 0.33153 0.0
H1981 H 0.91185 0.9986 0.45583 0.0
H1982 H 0.88658 0.99846 0.42805 0.0
C1983 C 0.8236 0.00403 0.31491 0.0
C1984 C 0.86719 0.99802 0.35289 0.0
H1985 H 0.88497 0.97194 0.39463 0.0
C1986 C 0.87744 0.01655 0.35624 0.0
C1987 C 0.86946 0.98196 0.36724 0.0
C1988 C 0.85794 0.96209 0.36505 0.0
C1989 C 0.89054 0.01917 0.37316 0.0
C1990 C 0.8936 0.00273 0.38693 0.0
C1991 C 0.88274 0.98448 0.38398 0.0
C1992 C 0.90871 0.00378 0.40394 0.0
C1993 C 0.90096 0.03951 0.37615 0.0
C1994 C 0.92954 0.00662 0.3996 0.0
C1995 C 0.944 0.00666 0.41537 0.0
C1996 C 0.938 0.00376 0.43593 0.0
C1997 C 0.91707 1.00095 0.44024 0.0
C1998 C 0.90258 1.00085 0.42438 0.0
H1999 H 0.89261 0.05198 0.36818 0.0
H2000 H 0.9022 0.04339 0.39268 0.0
H2001 H 0.91665 0.03877 0.36967 0.0
H2002 H 0.93469 0.00845 0.38392 0.0
H2003 H 0.95993 0.00884 0.41134 0.0
H2004 H 0.00235 0.84284 0.28539 0.0
H2005 H 0.99457 0.86792 0.31244 0.0
H2006 H 0.02962 0.83253 0.35571 0.0
H2007 H 0.03738 0.80755 0.32896 0.0
H2008 H 0.98862 0.84792 0.36961 0.0
H2009 H 0.04051 0.90709 0.33689 0.0
H2010 H 0.0223 0.89518 0.31995 0.0
H2011 H 0.04289 0.88037 0.33042 0.0
C2012 C 0.00822 0.84037 0.30073 0.0
C2013 C 0.02069 0.82339 0.30501 0.0
C2014 C 0.00385 0.85471 0.31611 0.0
C2015 C 0.01171 0.85214 0.33601 0.0
C2016 C 0.0235 0.83483 0.34045 0.0
H2017 H 0.01358 0.91369 0.45372 0.0
H2018 H 0.01418 0.88895 0.42562 0.0
C2019 C 0.02802 0.82066 0.32511 0.0
C2020 C 0.00835 0.86771 0.35219 0.0
H2021 H 0.02385 0.91501 0.36778 0.0
C2022 C 0.99617 0.86267 0.36919 0.0
C2023 C 0.01825 0.88688 0.35156 0.0
C2024 C 0.03184 0.89281 0.33383 0.0
C2025 C 0.99362 0.87635 0.38562 0.0
C2026 C 0.00403 0.89534 0.3853 0.0
C2027 C 0.01593 0.90046 0.36809 0.0
C2028 C 0.00301 0.91009 0.40266 0.0
C2029 C 0.97958 0.87042 0.403 0.0
C2030 C 0.99704 0.93037 0.39909 0.0
C2031 C 0.99699 0.94462 0.41505 0.0
C2032 C 0.00289 0.93893 0.43502 0.0
C2033 C 0.00874 0.91856 0.43861 0.0
C2034 C 0.00896 0.90434 0.42256 0.0
H2035 H 0.96815 0.85886 0.39805 0.0
H2036 H 0.98878 0.8636 0.41555 0.0
H2037 H 0.97131 0.88389 0.40917 0.0
H2038 H 0.99245 0.93521 0.38389 0.0
H2039 H 0.99228 0.96012 0.41168 0.0
H2040 H 0.15709 0.99592 0.28511 0.0
H2041 H 0.13269 1.00061 0.31324 0.0
H2042 H 0.1827 0.00483 0.35618 0.0
H2043 H 0.20712 1.00003 0.32828 0.0
H2044 H 0.12865 0.97466 0.3466 0.0
H2045 H 0.14697 0.05316 0.37288 0.0
H2046 H 0.15517 0.0434 0.34832 0.0
H2047 H 0.16878 0.03655 0.37127 0.0
C2048 C 0.1629 0.99805 0.30051 0.0
C2049 C 0.18409 0.99766 0.30439 0.0
C2050 C 0.14894 1.00079 0.31656 0.0
C2051 C 0.15587 0.00331 0.33679 0.0
C2052 C 0.177 0.00341 0.34065 0.0
H2053 H 0.09479 0.00552 0.45593 0.0
H2054 H 0.12008 0.0052 0.42816 0.0
C2055 C 0.19096 1.00068 0.32463 0.0
C2056 C 0.14101 0.00424 0.35401 0.0
H2057 H 0.12524 0.03344 0.39449 0.0
C2058 C 0.12782 0.98757 0.35698 0.0
C2059 C 0.14008 0.02101 0.36767 0.0
C2060 C 0.15337 0.03964 0.36482 0.0
C2061 C 0.11387 0.98712 0.37335 0.0
C2062 C 0.11285 0.00393 0.38694 0.0
C2063 C 0.12611 0.02055 0.38407 0.0
C2064 C 0.09762 0.00472 0.4038 0.0
C2065 C 0.10057 0.96848 0.37618 0.0
C2066 C 0.07665 0.00491 0.39929 0.0
C2067 C 0.06218 0.00509 0.41504 0.0
C2068 C 0.06834 0.00516 0.43574 0.0
C2069 C 0.08944 0.00538 0.44022 0.0
C2070 C 0.10394 0.00523 0.42437 0.0
H2071 H 0.10681 0.95501 0.36791 0.0
H2072 H 0.099 0.96456 0.39267 0.0
H2073 H 0.08506 0.97166 0.37001 0.0
H2074 H 0.07145 0.0049 0.38352 0.0
H2075 H 0.04612 0.00509 0.41088 0.0
H2076 H 0.00632 0.79997 0.67917 0.0
H2077 H 0.01226 0.8234 0.65055 0.0
H2078 H 0.9971 0.87447 0.68941 0.0
H2079 H 0.99152 0.85118 0.71823 0.0
H2080 H 0.9821 0.84946 0.63424 0.0
H2081 H 0.04972 0.89352 0.66049 0.0
H2082 H 0.04261 0.86926 0.67159 0.0
H2083 H 0.02932 0.89217 0.67891 0.0
C2084 C 0.0048 0.81623 0.6818 0.0
C2085 C 0.99852 0.8237 0.70105 0.0
C2086 C 0.00804 0.82959 0.66537 0.0
C2087 C 0.00529 0.8507 0.66786 0.0
C2088 C 0.99963 0.85828 0.68719 0.0
H2089 H 0.99987 0.95839 0.59289 0.0
H2090 H 1.00064 0.9327 0.61987 0.0
C2091 C 0.99629 0.84492 0.70362 0.0
C2092 C 0.00678 0.86463 0.64993 0.0
H2093 H 0.03146 0.90698 0.63191 0.0
C2094 C 0.99303 0.86192 0.6336 0.0
C2095 C 0.02101 0.88089 0.64916 0.0
C2096 C 0.03664 0.88409 0.66588 0.0
C2097 C 0.99263 0.87545 0.61687 0.0
C2098 C 0.00667 0.89191 0.61623 0.0
C2099 C 0.02069 0.89437 0.63239 0.0
C2100 C 0.00644 0.90732 0.59946 0.0
C2101 C 0.97661 0.87246 0.60046 0.0
C2102 C 0.00962 0.90167 0.57891 0.0
C2103 C 0.00908 0.91638 0.56329 0.0
C2104 C 0.00557 0.93708 0.56795 0.0
C2105 C 0.00266 0.94265 0.58862 0.0
C2106 C 0.00311 0.92796 0.60414 0.0
H2107 H 0.96399 0.86237 0.60572 0.0
H2108 H 0.96998 0.88732 0.59564 0.0
H2109 H 0.9838 0.86525 0.58685 0.0
H2110 H 0.01265 0.8859 0.57495 0.0
H2111 H 0.01157 0.91152 0.54762 0.0
H2112 H 0.15427 0.98858 0.71839 0.0
H2113 H 0.1312 0.99388 0.68924 0.0
H2114 H 0.18222 0.0132 0.65209 0.0
H2115 H 0.20545 0.00762 0.68099 0.0
H2116 H 0.12404 0.02981 0.66341 0.0
H2117 H 0.15673 0.96378 0.62079 0.0
H2118 H 0.16084 0.96746 0.64792 0.0
H2119 H 0.17469 0.98263 0.62966 0.0
C2120 C 0.16056 0.99409 0.70406 0.0
C2121 C 0.18172 0.99758 0.70201 0.0
C2122 C 0.14735 0.99718 0.68745 0.0
C2123 C 0.15506 0.00363 0.66844 0.0
C2124 C 0.17601 0.00797 0.66656 0.0
H2125 H 0.09448 0.0099 0.54858 0.0
H2126 H 0.11981 0.01151 0.57624 0.0
C2127 C 0.18922 0.00498 0.68318 0.0
C2128 C 0.14128 0.00499 0.6504 0.0
H2129 H 0.13056 0.98237 0.60443 0.0
C2130 C 0.12548 0.0195 0.65047 0.0
C2131 C 0.14329 0.99158 0.6335 0.0
C2132 C 0.15968 0.97535 0.63289 0.0
C2133 C 0.11158 0.02094 0.63408 0.0
C2134 C 0.11323 0.00715 0.61742 0.0
C2135 C 0.1293 0.99292 0.61719 0.0
C2136 C 0.09787 0.00656 0.6006 0.0
C2137 C 0.09538 0.03736 0.6347 0.0
C2138 C 0.07719 0.00287 0.60505 0.0
C2139 C 0.06269 0.00197 0.58934 0.0
C2140 C 0.06855 0.00452 0.56871 0.0
C2141 C 0.08937 0.00787 0.56425 0.0
C2142 C 0.10389 0.00884 0.58005 0.0
H2143 H 0.10006 0.05029 0.64468 0.0
H2144 H 0.09208 0.04334 0.61912 0.0
H2145 H 0.08104 0.03086 0.64108 0.0
H2146 H 0.07225 1.00047 0.62072 0.0
H2147 H 0.04688 0.99914 0.59345 0.0
H2148 H 0.99892 0.204 0.68067 0.0
H2149 H 0.99375 0.18009 0.65233 0.0
H2150 H 0.00946 0.12983 0.69201 0.0
H2151 H 0.01424 0.15361 0.7206 0.0
H2152 H 0.02446 0.15427 0.6366 0.0
H2153 H 0.95728 0.10958 0.66306 0.0
H2154 H 0.96397 0.13409 0.67387 0.0
H2155 H 0.97763 0.11151 0.68149 0.0
C2156 C 1.00075 0.18781 0.68355 0.0
C2157 C 0.00692 0.18072 0.70297 0.0
C2158 C 0.99795 0.17418 0.66726 0.0
C2159 C 0.00105 0.15316 0.67007 0.0
C2160 C 0.00667 0.14595 0.68955 0.0
H2161 H 0.00655 0.04549 0.59414 0.0
H2162 H 0.00601 0.07073 0.62159 0.0
C2163 C 0.00956 0.15958 0.70584 0.0
C2164 C 0.99987 0.13897 0.65231 0.0
H2165 H 0.97549 0.09642 0.63436 0.0
C2166 C 0.01363 0.14173 0.636 0.0
C2167 C 0.9858 0.12257 0.65161 0.0
C2168 C 0.97019 0.1193 0.66834 0.0
C2169 C 0.01412 0.12818 0.61929 0.0
C2170 C 1.00014 0.11166 0.61863 0.0
C2171 C 0.9862 0.10907 0.63485 0.0
C2172 C 1.0002 0.09648 0.60165 0.0
C2173 C 0.03011 0.13126 0.60287 0.0
C2174 C 0.9969 0.10248 0.58124 0.0
C2175 C 0.99731 0.08805 0.56537 0.0
C2176 C 1.00081 0.06726 0.56963 0.0
C2177 C 0.00379 0.06131 0.59018 0.0
C2178 C 0.00347 0.07575 0.60597 0.0
H2179 H 0.04282 0.1412 0.60824 0.0
H2180 H 0.03664 0.11643 0.59781 0.0
H2181 H 0.02294 0.13873 0.58939 0.0
H2182 H 0.99389 0.11833 0.57756 0.0
H2183 H 0.99477 0.09321 0.5498 0.0
H2184 H 0.82738 0.98692 0.70737 0.0
H2185 H 0.85173 0.98036 0.67942 0.0
H2186 H 0.85231 0.04456 0.66472 0.0
H2187 H 0.82818 0.0512 0.69241 0.0
H2188 H 0.8486 0.98793 0.63745 0.0
H2189 H 0.91293 0.03189 0.67079 0.0
H2190 H 0.89067 0.02475 0.68553 0.0
H2191 H 0.88985 0.04661 0.66883 0.0
C2192 C 0.83275 0.99962 0.69821 0.0
C2193 C 0.82609 0.01964 0.70239 0.0
C2194 C 0.84667 0.99586 0.68225 0.0
C2195 C 0.85416 0.01203 0.67023 0.0
C2196 C 0.84721 0.03192 0.67414 0.0
H2197 H 0.91288 0.01056 0.5504 0.0
H2198 H 0.88832 0.01165 0.57878 0.0
C2199 C 0.83342 0.03569 0.69005 0.0
C2200 C 0.86903 0.00829 0.65337 0.0
H2201 H 0.91588 0.023 0.63545 0.0
C2202 C 0.8634 0.99544 0.63707 0.0
C2203 C 0.88844 0.0179 0.65299 0.0
C2204 C 0.89595 0.03089 0.67057 0.0
C2205 C 0.87643 0.9924 0.62014 0.0
C2206 C 0.89543 0.00279 0.61934 0.0
C2207 C 0.90123 0.01521 0.63591 0.0
C2208 C 0.90976 1.0009 0.60169 0.0
C2209 C 0.86982 0.9779 0.60344 0.0
C2210 C 0.93006 0.99476 0.6051 0.0
C2211 C 0.94417 0.9944 0.58901 0.0
C2212 C 0.93833 1.00015 0.56904 0.0
C2213 C 0.91787 0.00589 0.56553 0.0
C2214 C 0.90376 0.00641 0.58174 0.0
H2215 H 0.8581 0.96692 0.60902 0.0
H2216 H 0.86296 0.98677 0.59067 0.0
H2217 H 0.88305 0.96917 0.59731 0.0
H2218 H 0.93508 0.99045 0.62033 0.0
H2219 H 0.95973 0.98972 0.59231 0.0
H2220 H 0.28824 0.98695 0.15441 0.0
H2221 H 0.31752 0.99245 0.13156 0.0
H2222 H 0.35345 0.0138 0.18268 0.0
H2223 H 0.32442 0.00801 0.20569 0.0
H2224 H 0.34253 0.02877 0.1239 0.0
H2225 H 0.38616 0.96454 0.15878 0.0
H2226 H 0.35895 0.96768 0.16248 0.0
H2227 H 0.37665 0.98364 0.17614 0.0
C2228 C 0.30233 0.99295 0.16076 0.0
C2229 C 0.30402 0.99694 0.18189 0.0
C2230 C 0.31901 0.99615 0.14768 0.0
C2231 C 0.33772 0.00323 0.15551 0.0
C2232 C 0.33921 0.00808 0.1764 0.0
H2233 H 0.45755 0.01036 0.09483 0.0
H2234 H 0.43 0.01207 0.12032 0.0
C2235 C 0.32252 0.00497 0.18948 0.0
C2236 C 0.35587 0.00467 0.14192 0.0
H2237 H 0.40228 0.98266 0.13212 0.0
C2238 C 0.35564 0.01876 0.12572 0.0
C2239 C 0.37299 0.99167 0.14443 0.0
C2240 C 0.37378 0.9759 0.16128 0.0
C2241 C 0.37207 0.02013 0.11188 0.0
C2242 C 0.38893 0.00669 0.114 0.0
C2243 C 0.38936 0.99294 0.1305 0.0
C2244 C 0.40571 0.00587 0.09863 0.0
C2245 C 0.37125 0.03607 0.09518 0.0
C2246 C 0.40126 0.00138 0.07809 0.0
C2247 C 0.41689 1.00042 0.06353 0.0
C2248 C 0.43744 0.0037 0.06919 0.0
C2249 C 0.44194 0.00775 0.0899 0.0
C2250 C 0.4262 0.00879 0.10449 0.0
H2251 H 0.36106 0.04897 0.09947 0.0
H2252 H 0.38672 0.04221 0.09175 0.0
H2253 H 0.36503 0.02906 0.081 0.0
H2254 H 0.38565 0.99847 0.07331 0.0
H2255 H 0.41279 0.99699 0.04781 0.0
H2256 H 0.9902 0.28637 0.15453 0.0
H2257 H 0.99458 0.31518 0.13099 0.0
H2258 H 0.00556 0.35524 0.18229 0.0
H2259 H 0.00121 0.32661 0.20587 0.0
H2260 H 0.97054 0.34957 0.1301 0.0
H2261 H 0.05149 0.37145 0.14359 0.0
H2262 H 0.04111 0.34725 0.15184 0.0
H2263 H 0.03637 0.37 0.16653 0.0
C2264 C 0.99379 0.30126 0.16079 0.0
C2265 C 0.99542 0.30412 0.18211 0.0
C2266 C 0.99632 0.31772 0.14731 0.0
C2267 C 1.00062 0.33736 0.15483 0.0
C2268 C 0.00275 0.34017 0.17606 0.0
H2269 H 0.00516 0.45751 0.09522 0.0
H2270 H 0.00453 0.42979 0.12057 0.0
C2271 C 1.00027 0.32373 0.18954 0.0
C2272 C 0.00129 0.35513 0.14061 0.0
H2273 H 0.03138 0.39452 0.12389 0.0
C2274 C 0.98389 0.35932 0.12868 0.0
C2275 C 0.01864 0.36801 0.1389 0.0
C2276 C 0.03804 0.36389 0.15075 0.0
C2277 C 0.98331 0.37602 0.11519 0.0
C2278 C 1.00071 0.38877 0.11332 0.0
C2279 C 0.01804 0.38477 0.12541 0.0
C2280 C 0.00146 0.40566 0.09813 0.0
C2281 C 0.96397 0.38003 0.10319 0.0
C2282 C 1.00025 0.40126 0.07714 0.0
C2283 C 1.00061 0.41696 0.06267 0.0
C2284 C 0.00227 0.43754 0.06881 0.0
C2285 C 0.00376 0.4419 0.0899 0.0
C2286 C 0.00346 0.42608 0.10442 0.0
H2287 H 0.95049 0.37245 0.11026 0.0
H2288 H 0.96086 0.39667 0.10204 0.0
H2289 H 0.96579 0.37392 0.08742 0.0
H2290 H 0.99905 0.3856 0.07191 0.0
H2291 H 0.9995 0.41286 0.04662 0.0
H2292 H 0.68002 0.00116 0.20438 0.0
H2293 H 0.65198 0.00553 0.17998 0.0
H2294 H 0.69401 0.99679 0.12976 0.0
H2295 H 0.72221 0.99235 0.15411 0.0
H2296 H 0.6447 0.03215 0.14762 0.0
H2297 H 0.65145 0.95228 0.11994 0.0
H2298 H 0.66445 0.96128 0.14262 0.0
H2299 H 0.67463 0.96683 0.11761 0.0
C2300 C 0.68342 1.00057 0.18814 0.0
C2301 C 0.70339 0.99629 0.18122 0.0
C2302 C 0.66731 0.00295 0.1742 0.0
C2303 C 0.67079 1.00105 0.15306 0.0
C2304 C 0.69087 0.9978 0.14604 0.0
H2305 H 0.5947 0.00148 0.04484 0.0
H2306 H 0.62237 0.00161 0.06985 0.0
C2307 C 0.70698 0.99533 0.15997 0.0
C2308 C 0.65331 0.00175 0.13848 0.0
H2309 H 0.62821 0.97367 0.10216 0.0
C2310 C 0.64104 0.01936 0.13772 0.0
C2311 C 0.64844 0.98496 0.12569 0.0
C2312 C 0.66029 0.96519 0.12658 0.0
C2313 C 0.62436 0.02081 0.12414 0.0
C2314 C 0.61969 0.00411 0.1112 0.0
C2315 C 0.63186 0.98647 0.11207 0.0
C2316 C 0.60257 0.00472 0.09622 0.0
C2317 C 0.61217 0.04036 0.1234 0.0
C2318 C 0.58213 0.00628 0.10274 0.0
C2319 C 0.56611 0.00618 0.08843 0.0
C2320 C 0.57025 0.00447 0.0673 0.0
C2321 C 0.5908 0.00289 0.06092 0.0
C2322 C 0.60673 0.00294 0.07521 0.0
H2323 H 0.62035 0.05319 0.13095 0.0
H2324 H 0.60875 0.04471 0.1073 0.0
H2325 H 0.59739 0.03806 0.13147 0.0
H2326 H 0.57854 0.0073 0.11892 0.0
H2327 H 0.55052 0.00736 0.09395 0.0
H2328 H 0.01654 0.72142 0.15361 0.0
H2329 H 0.01162 0.69311 0.12957 0.0
H2330 H 0.9982 0.65276 0.18005 0.0
H2331 H 0.00308 0.68089 0.20412 0.0
H2332 H 0.03455 0.65812 0.12866 0.0
H2333 H 0.9528 0.6383 0.14021 0.0
H2334 H 0.96367 0.66207 0.14907 0.0
H2335 H 0.96739 0.63896 0.16351 0.0
C2336 C 0.01228 0.70658 0.15957 0.0
C2337 C 0.01014 0.70348 0.18082 0.0
C2338 C 0.00943 0.69041 0.14581 0.0
C2339 C 0.00432 0.67083 0.15296 0.0
C2340 C 0.00164 0.66781 0.17409 0.0
H2341 H 0.99876 0.55088 0.09382 0.0
H2342 H 0.99923 0.57891 0.11878 0.0
C2343 C 0.00442 0.68397 0.18786 0.0
C2344 C 0.00345 0.65326 0.1385 0.0
H2345 H 0.97281 0.61465 0.121 0.0
C2346 C 0.02099 0.64871 0.1269 0.0
C2347 C 0.98583 0.64083 0.13635 0.0
C2348 C 0.96628 0.64536 0.1478 0.0
C2349 C 0.02146 0.63204 0.11336 0.0
C2350 C 0.00383 0.61971 0.11111 0.0
C2351 C 0.98633 0.6241 0.12281 0.0
C2352 C 0.0031 0.60268 0.09608 0.0
C2353 C 0.04096 0.62758 0.10177 0.0
C2354 C 0.00482 0.60678 0.07506 0.0
C2355 C 0.00455 0.59088 0.06079 0.0
C2356 C 0.00249 0.57043 0.06719 0.0
C2357 C 1.00049 0.56638 0.08831 0.0
C2358 C 1.00069 0.58238 0.1026 0.0
H2359 H 0.05444 0.63504 0.10898 0.0
H2360 H 0.04381 0.61088 0.10091 0.0
H2361 H 0.03952 0.63349 0.08589 0.0
H2362 H 0.00637 0.62235 0.06966 0.0
H2363 H 0.00608 0.59472 0.04471 0.0
H2364 H 0.28458 0.99322 0.85039 0.0
H2365 H 0.31268 0.99743 0.8749 0.0
H2366 H 0.35524 0.00462 0.82489 0.0
H2367 H 0.32737 1.00033 0.80035 0.0
H2368 H 0.34654 0.97222 0.87801 0.0
H2369 H 0.37102 0.05184 0.86236 0.0
H2370 H 0.34673 0.04183 0.85378 0.0
H2371 H 0.3698 0.03601 0.83992 0.0
C2372 C 0.29989 0.9959 0.84461 0.0
C2373 C 0.30366 0.99651 0.82337 0.0
C2374 C 0.31592 0.99835 0.85864 0.0
C2375 C 0.33604 0.00158 0.85175 0.0
C2376 C 0.33979 0.00264 0.83059 0.0
H2377 H 0.45533 0.00495 0.91207 0.0
H2378 H 0.42734 0.00446 0.88705 0.0
C2379 C 0.32379 1.00021 0.81656 0.0
C2380 C 0.35328 0.00234 0.86661 0.0
H2381 H 0.39318 0.03181 0.88321 0.0
C2382 C 0.35665 0.98531 0.87924 0.0
C2383 C 0.36658 0.01935 0.86808 0.0
C2384 C 0.36329 0.03838 0.85545 0.0
C2385 C 0.37307 0.98472 0.89313 0.0
C2386 C 0.38632 0.00174 0.89465 0.0
C2387 C 0.38304 0.01875 0.88196 0.0
C2388 C 0.4033 0.00235 0.90976 0.0
C2389 C 0.37633 0.96569 0.90578 0.0
C2390 C 0.39905 0.00163 0.93082 0.0
C2391 C 0.41494 0.00189 0.94514 0.0
C2392 C 0.43552 0.00298 0.93875 0.0
C2393 C 0.43972 0.00401 0.91759 0.0
C2394 C 0.42374 0.00377 0.90325 0.0
H2395 H 0.36834 0.95228 0.89909 0.0
H2396 H 0.39289 0.96207 0.90717 0.0
H2397 H 0.37015 0.96821 0.92143 0.0
H2398 H 0.38337 1.0009 0.9362 0.0
H2399 H 0.41099 0.0012 0.96125 0.0
H2400 H 0.00395 0.32698 0.80082 0.0
H2401 H 1.00028 0.35506 0.82525 0.0
H2402 H 0.00867 0.313 0.87541 0.0
H2403 H 0.01238 0.28478 0.85104 0.0
H2404 H 0.97374 0.36254 0.85782 0.0
H2405 H 0.05385 0.35496 0.88512 0.0
H2406 H 0.04461 0.34217 0.86243 0.0
H2407 H 0.03906 0.33196 0.88741 0.0
C2408 C 0.00463 0.3236 0.81705 0.0
C2409 C 0.00858 0.3036 0.82395 0.0
C2410 C 0.00265 0.33972 0.83101 0.0
C2411 C 0.00463 0.33622 0.85214 0.0
C2412 C 0.00761 0.31615 0.85914 0.0
H2413 H 0.0053 0.41171 0.96079 0.0
H2414 H 0.00506 0.38419 0.93566 0.0
C2415 C 0.00966 0.30002 0.8452 0.0
C2416 C 0.00418 0.35365 0.86677 0.0
H2417 H 0.03267 0.37821 0.90315 0.0
C2418 C 0.98664 0.36603 0.86768 0.0
C2419 C 0.0211 0.35828 0.87954 0.0
C2420 C 0.04081 0.34629 0.8785 0.0
C2421 C 0.98536 0.38258 0.88139 0.0
C2422 C 0.00219 0.38703 0.89431 0.0
C2423 C 0.01977 0.37475 0.89328 0.0
C2424 C 0.00177 0.40404 0.90938 0.0
C2425 C 0.96584 0.39486 0.88231 0.0
C2426 C 1.00018 0.42446 0.90296 0.0
C2427 C 1.00034 0.44038 0.91734 0.0
C2428 C 0.00215 0.43617 0.93845 0.0
C2429 C 0.00381 0.41565 0.94473 0.0
C2430 C 0.00369 0.39981 0.93037 0.0
H2431 H 0.95287 0.38678 0.87485 0.0
H2432 H 0.96162 0.39829 0.89844 0.0
H2433 H 0.96817 0.40959 0.87422 0.0
H2434 H 0.99906 0.42811 0.88681 0.0
H2435 H 0.99908 0.45595 0.91189 0.0
H2436 H 0.70666 0.98869 0.82662 0.0
H2437 H 0.67804 0.98284 0.85033 0.0
H2438 H 0.66315 0.04698 0.84827 0.0
H2439 H 0.69163 0.05292 0.82488 0.0
H2440 H 0.66329 0.033 0.88689 0.0
H2441 H 0.6172 0.98118 0.83788 0.0
H2442 H 0.6429 0.97253 0.84236 0.0
H2443 H 0.63861 0.99564 0.8281 0.0
C2444 C 0.69722 0.0015 0.83119 0.0
C2445 C 0.70156 0.02129 0.82399 0.0
C2446 C 0.6808 0.99813 0.84464 0.0
C2447 C 0.66824 0.01443 0.85089 0.0
C2448 C 0.6726 0.03416 0.84371 0.0
H2449 H 0.54926 0.01232 0.91174 0.0
H2450 H 0.57732 0.01445 0.8868 0.0
C2451 C 0.68901 0.03755 0.83043 0.0
C2452 C 0.65092 0.01132 0.86539 0.0
H2453 H 0.60557 0.98603 0.87205 0.0
C2454 C 0.65068 0.02272 0.88362 0.0
C2455 C 0.63428 0.99814 0.861 0.0
C2456 C 0.63308 0.9863 0.84119 0.0
C2457 C 0.63441 0.02126 0.89761 0.0
C2458 C 0.61808 0.00762 0.89354 0.0
C2459 C 0.61818 0.99633 0.87523 0.0
C2460 C 0.60082 0.00499 0.90818 0.0
C2461 C 0.63466 0.03473 0.9164 0.0
C2462 C 0.60461 0.99843 0.9283 0.0
C2463 C 0.5887 0.99735 0.94257 0.0
C2464 C 0.56853 0.00255 0.937 0.0
C2465 C 0.56459 0.00825 0.91657 0.0
C2466 C 0.58062 0.00948 0.9023 0.0
H2467 H 0.64493 0.04811 0.91435 0.0
H2468 H 0.61906 0.04035 0.92013 0.0
H2469 H 0.6404 0.0258 0.92967 0.0
H2470 H 0.61997 0.99437 0.93306 0.0
H2471 H 0.5923 0.99254 0.95804 0.0
H2472 H 0.02103 0.70498 0.82513 0.0
H2473 H 0.0259 0.67645 0.84905 0.0
H2474 H 0.96087 0.66497 0.84857 0.0
H2475 H 0.95591 0.69347 0.82503 0.0
H2476 H 0.97549 0.66421 0.8867 0.0
H2477 H 0.02451 0.61591 0.83699 0.0
H2478 H 0.03461 0.64104 0.84129 0.0
H2479 H 0.011 0.63798 0.82743 0.0
C2480 C 0.00781 0.69632 0.83011 0.0
C2481 C 0.98807 0.7016 0.82328 0.0
C2482 C 0.01061 0.67993 0.84367 0.0
C2483 C 0.99379 0.66832 0.85039 0.0
C2484 C 0.9741 0.67367 0.84364 0.0
H2485 H 0.99327 0.54975 0.91167 0.0
H2486 H 0.99141 0.57772 0.88672 0.0
C2487 C 0.97128 0.69008 0.83026 0.0
C2488 C 0.99637 0.65094 0.8649 0.0
H2489 H 0.02011 0.60483 0.87142 0.0
C2490 C 0.98524 0.65123 0.88332 0.0
C2491 C 0.00884 0.63382 0.86039 0.0
C2492 C 0.02027 0.632 0.84037 0.0
C2493 C 0.98632 0.63503 0.89738 0.0
C2494 C 0.99932 0.61823 0.89321 0.0
C2495 C 0.01031 0.6178 0.8747 0.0
C2496 C 0.00162 0.60102 0.90793 0.0
C2497 C 0.97312 0.63589 0.91637 0.0
C2498 C 0.00851 0.6047 0.92796 0.0
C2499 C 0.00943 0.58884 0.94225 0.0
C2500 C 0.00376 0.56881 0.93678 0.0
C2501 C 0.9977 0.56497 0.91644 0.0
C2502 C 0.99663 0.58095 0.90215 0.0
H2503 H 0.95998 0.64648 0.91439 0.0
H2504 H 0.96708 0.62054 0.92037 0.0
H2505 H 0.98242 0.64151 0.92943 0.0
H2506 H 0.01299 0.61993 0.93263 0.0
H2507 H 0.01452 0.59236 0.95765 0.0
H2508 H 0.19306 0.32579 0.95795 0.0
H2509 H 0.16936 0.35358 0.96522 0.0
H2510 H 0.14257 0.31843 0.01425 0.0
H2511 H 0.16626 0.29019 0.00687 0.0
H2512 H 0.12643 0.35111 0.96352 0.0
H2513 H 0.15386 0.37514 0.04055 0.0
H2514 H 0.16912 0.35962 0.02349 0.0
H2515 H 0.14836 0.34838 0.03755 0.0
C2516 C 0.18206 0.32383 0.97021 0.0
C2517 C 0.18138 0.30558 0.98163 0.0
C2518 C 0.16861 0.33984 0.97444 0.0
C2519 C 0.15426 0.33816 0.99033 0.0
C2520 C 0.15372 0.32017 0.00209 0.0
H2521 H 0.04495 0.41205 0.00263 0.0
H2522 H 0.06992 0.38457 1.00031 0.0
C2523 C 0.16724 0.30403 0.99784 0.0
C2524 C 0.13931 0.35494 0.99366 0.0
H2525 H 0.1242 0.39166 0.02775 0.0
C2526 C 0.12592 0.35994 0.97759 0.0
C2527 C 0.13885 0.36661 0.01192 0.0
C2528 C 0.15339 0.36236 0.02935 0.0
C2529 C 0.11199 0.37617 0.97931 0.0
C2530 C 0.11126 0.38762 0.99768 0.0
C2531 C 0.12475 0.38279 0.01372 0.0
C2532 C 0.09632 0.40447 1.00045 0.0
C2533 C 0.09831 0.38114 0.96133 0.0
C2534 C 0.10289 0.42485 0.00179 0.0
C2535 C 0.08859 0.44078 0.0031 0.0
C2536 C 0.06744 0.43657 0.00323 0.0
C2537 C 0.06104 0.41602 0.00245 0.0
C2538 C 0.07531 0.4002 0.00109 0.0
H2539 H 0.10384 0.37395 0.94693 0.0
H2540 H 0.08265 0.37537 0.96446 0.0
H2541 H 0.09732 0.39791 0.95899 0.0
H2542 H 0.11908 0.42845 0.00136 0.0
H2543 H 0.09412 0.45636 0.00373 0.0
H2544 H 0.17996 0.70581 0.01796 0.0
H2545 H 0.15594 0.67747 0.02329 0.0
H2546 H 0.15352 0.66732 0.958 0.0
H2547 H 0.17715 0.69561 0.95259 0.0
H2548 H 0.11618 0.66596 0.97414 0.0
H2549 H 0.16798 0.61707 0.0203 0.0
H2550 H 0.16395 0.64197 0.03108 0.0
H2551 H 0.17687 0.63946 0.00685 0.0
C2552 C 0.17429 0.69752 0.00477 0.0
C2553 C 0.1804 0.7031 0.98484 0.0
C2554 C 0.16066 0.68123 0.00783 0.0
C2555 C 0.15315 0.66998 0.99107 0.0
C2556 C 0.15907 0.67571 0.9712 0.0
H2557 H 0.09302 0.55077 0.99104 0.0
H2558 H 0.11758 0.57905 0.98877 0.0
C2559 C 0.1725 0.69203 0.96812 0.0
C2560 C 0.13883 0.65248 0.99394 0.0
H2561 H 0.13355 0.60584 0.01702 0.0
C2562 C 0.12001 0.65282 0.98352 0.0
C2563 C 0.14392 0.63513 0.0059 0.0
C2564 C 0.16435 0.63321 0.01652 0.0
C2565 C 0.10614 0.63647 0.9848 0.0
C2566 C 0.11091 0.61944 0.99731 0.0
C2567 C 0.1298 0.61896 0.0076 0.0
C2568 C 0.09645 0.60202 0.9998 0.0
C2569 C 0.08672 0.63743 0.97228 0.0
C2570 C 0.0766 0.60538 0.0073 0.0
C2571 C 0.06253 0.58935 0.00844 0.0
C2572 C 0.06804 0.56944 0.0024 0.0
C2573 C 0.08823 0.56589 0.99575 0.0
C2574 C 0.10229 0.58205 0.99444 0.0
H2575 H 0.08819 0.64823 0.95922 0.0
H2576 H 0.08257 0.62216 0.96615 0.0
H2577 H 0.07399 0.64287 0.98214 0.0
H2578 H 0.07189 0.6205 0.0121 0.0
H2579 H 0.04725 0.59263 0.014 0.0
H2580 H 0.29877 0.17868 0.02026 0.0
H2581 H 0.32727 0.15483 0.02563 0.0
H2582 H 0.33672 0.15143 0.96027 0.0
H2583 H 0.30829 0.17489 0.95482 0.0
H2584 H 0.33817 0.11441 0.97706 0.0
H2585 H 0.38781 0.16695 0.02158 0.0
H2586 H 0.36298 0.16307 0.03272 0.0
H2587 H 0.3652 0.17556 0.00826 0.0
C2588 C 0.30694 0.17282 0.00706 0.0
C2589 C 0.30114 0.1786 0.98711 0.0
C2590 C 0.32332 0.15929 0.01015 0.0
C2591 C 0.33441 0.15157 0.99336 0.0
C2592 C 0.32845 0.15716 0.97347 0.0
H2593 H 0.45404 0.09245 0.99144 0.0
H2594 H 0.42542 0.11666 0.98965 0.0
C2595 C 0.31205 0.17049 0.97037 0.0
C2596 C 0.35199 0.13736 0.99623 0.0
H2597 H 0.3992 0.13266 0.01845 0.0
C2598 C 0.3515 0.11842 0.98613 0.0
C2599 C 0.36956 0.14269 0.00779 0.0
C2600 C 0.37159 0.16325 0.01805 0.0
C2601 C 0.36798 0.10469 0.98727 0.0
C2602 C 0.38528 0.10973 0.99935 0.0
C2603 C 0.38586 0.12872 0.00936 0.0
C2604 C 0.40291 0.09551 0.00158 0.0
C2605 C 0.36687 0.08513 0.97506 0.0
C2606 C 0.39992 0.07577 0.0094 0.0
C2607 C 0.41613 0.0619 0.01025 0.0
C2608 C 0.43586 0.06751 0.0036 0.0
C2609 C 0.43906 0.08759 0.99662 0.0
C2610 C 0.42271 0.10145 0.99559 0.0
H2611 H 0.35571 0.08631 0.96226 0.0
H2612 H 0.38206 0.08103 0.9686 0.0
H2613 H 0.36178 0.07253 0.98524 0.0
H2614 H 0.38493 0.07101 0.01467 0.0
H2615 H 0.41314 0.0467 0.01609 0.0
H2616 H 0.84963 0.2867 0.99405 0.0
H2617 H 0.87359 0.31517 0.99827 0.0
H2618 H 0.82288 0.35692 0.00403 0.0
H2619 H 0.79888 0.32866 0.99973 0.0
H2620 H 0.8767 0.34861 0.97258 0.0
H2621 H 0.85918 0.37399 0.05184 0.0
H2622 H 0.85113 0.3495 0.04198 0.0
H2623 H 0.83716 0.37225 0.03545 0.0
C2624 C 0.84357 0.30191 0.99641 0.0
C2625 C 0.8223 0.30533 0.99663 0.0
C2626 C 0.85728 0.31817 0.99887 0.0
C2627 C 0.85005 0.33817 0.00171 0.0
C2628 C 0.82885 0.34158 0.00235 0.0
H2629 H 0.91083 0.45738 0.00477 0.0
H2630 H 0.88547 0.42976 0.00417 0.0
C2631 C 0.81513 0.32535 0.99992 0.0
C2632 C 0.86465 0.3556 0.0025 0.0
H2633 H 0.8805 0.39581 0.03197 0.0
C2634 C 0.8776 0.35885 0.98562 0.0
C2635 C 0.86568 0.3691 0.01943 0.0
C2636 C 0.85268 0.36598 0.0383 0.0
C2637 C 0.89143 0.37527 0.98514 0.0
C2638 C 0.8926 0.38865 0.00214 0.0
C2639 C 0.87953 0.38556 0.01895 0.0
C2640 C 0.90786 0.40546 0.00298 0.0
C2641 C 0.90449 0.37833 0.9663 0.0
C2642 C 0.92884 0.40095 0.00286 0.0
C2643 C 0.94335 0.41662 0.00321 0.0
C2644 C 0.93724 0.43725 0.00377 0.0
C2645 C 0.91615 0.44173 0.00425 0.0
C2646 C 0.90161 0.42596 0.00395 0.0
H2647 H 0.89804 0.3703 0.95275 0.0
H2648 H 0.90604 0.39481 0.96258 0.0
H2649 H 0.92002 0.3721 0.9692 0.0
H2650 H 0.93402 0.38523 0.0025 0.0
H2651 H 0.95939 0.41244 0.00295 0.0
H2652 H 0.71622 0.85244 0.02839 0.0
H2653 H 0.68735 0.87556 0.02213 0.0
H2654 H 0.65962 0.83071 0.98255 0.0
H2655 H 0.68844 0.80746 0.98874 0.0
H2656 H 0.66755 0.88791 0.97837 0.0
H2657 H 0.61922 0.84567 0.03467 0.0
H2658 H 0.64682 0.84571 0.03647 0.0
H2659 H 0.63447 0.83158 0.01646 0.0
C2660 C 0.70412 0.84762 0.01812 0.0
C2661 C 0.7046 0.82812 0.00908 0.0
C2662 C 0.68767 0.86084 0.01455 0.0
C2663 C 0.67134 0.85474 0.00202 0.0
C2664 C 0.67211 0.83565 0.9923 0.0
H2665 H 0.55063 0.91312 0.99255 0.0
H2666 H 0.57881 0.88844 0.99069 0.0
C2667 C 0.68864 0.82246 0.99573 0.0
C2668 C 0.65301 0.86794 1.00012 0.0
H2669 H 0.60507 0.87511 0.01976 0.0
C2670 C 0.65381 0.88509 0.98728 0.0
C2671 C 0.63511 0.86406 0.01165 0.0
C2672 C 0.63367 0.84581 0.02568 0.0
C2673 C 0.63719 0.89865 0.98585 0.0
C2674 C 0.61953 0.89527 0.99805 0.0
C2675 C 0.61858 0.87777 0.01047 0.0
C2676 C 0.60237 0.9102 0.99893 0.0
C2677 C 0.63866 0.91637 0.97113 0.0
C2678 C 0.60612 0.93052 0.00462 0.0
C2679 C 0.59013 0.94464 0.00559 0.0
C2680 C 0.56986 0.93874 0.00121 0.0
C2681 C 0.56602 0.91823 0.99601 0.0
C2682 C 0.58212 0.90411 0.99489 0.0
H2683 H 0.6495 0.91304 0.95843 0.0
H2684 H 0.6235 0.92017 0.96445 0.0
H2685 H 0.64448 0.92998 0.97943 0.0
H2686 H 0.62147 0.93548 0.00847 0.0
H2687 H 0.59372 0.9602 0.00996 0.0
H2688 H 0.83655 0.70482 0.03922 0.0
H2689 H 0.86081 0.67691 0.03499 0.0
H2690 H 0.84108 0.66895 0.97242 0.0
H2691 H 0.81735 0.69763 0.97619 0.0
H2692 H 0.85202 0.63739 0.02662 0.0
H2693 H 0.90283 0.66878 0.9661 0.0
H2694 H 0.88485 0.68445 0.98004 0.0
H2695 H 0.87617 0.66846 0.95939 0.0
C2696 C 0.83771 0.6976 0.02434 0.0
C2697 C 0.82502 0.70371 0.00799 0.0
C2698 C 0.85147 0.68142 0.02203 0.0
C2699 C 0.85293 0.67089 0.00335 0.0
C2700 C 0.84051 0.67704 0.98689 0.0
H2701 H 0.91171 0.55006 0.99562 0.0
H2702 H 0.88652 0.57777 0.99496 0.0
C2703 C 0.82677 0.69333 0.98915 0.0
C2704 C 0.86683 0.65295 0.0016 0.0
H2705 H 0.90825 0.6343 0.97562 0.0
C2706 C 0.8643 0.6367 0.01544 0.0
C2707 C 0.88293 0.65211 0.9871 0.0
C2708 C 0.88704 0.66944 0.97242 0.0
C2709 C 0.87751 0.61976 0.01535 0.0
C2710 C 0.89347 0.61879 1.0007 0.0
C2711 C 0.8959 0.63496 0.98673 0.0
C2712 C 0.90861 0.60181 1.00044 0.0
C2713 C 0.87468 0.60341 0.03142 0.0
C2714 C 0.92947 0.6061 0.00319 0.0
C2715 C 0.94391 0.59036 0.0034 0.0
C2716 C 0.93786 0.56987 0.00083 0.0
C2717 C 0.91694 0.5656 0.99784 0.0
C2718 C 0.90248 0.58143 0.99754 0.0
H2719 H 0.8651 0.60882 0.04441 0.0
H2720 H 0.86692 0.59005 0.02441 0.0
H2721 H 0.88967 0.59825 0.03755 0.0
H2722 H 0.93459 0.62168 0.00545 0.0
H2723 H 0.95982 0.59434 0.00576 0.0
H2724 H 0.30086 0.84365 0.95042 0.0
H2725 H 0.32889 0.86693 0.9579 0.0
H2726 H 0.33478 0.84086 0.01834 0.0
H2727 H 0.30783 0.81625 0.01033 0.0
H2728 H 0.33525 0.89585 0.98329 0.0
H2729 H 0.39249 0.83578 1.00027 0.0
H2730 H 0.36751 0.82992 0.99013 0.0
H2731 H 0.37085 0.83468 0.01713 0.0
C2732 C 0.30825 0.8426 0.96524 0.0
C2733 C 0.30226 0.82763 0.97956 0.0
C2734 C 0.32422 0.85613 0.96958 0.0
C2735 C 0.33449 0.85534 0.98848 0.0
C2736 C 0.32767 0.84135 0.00336 0.0
H2737 H 0.41622 0.95562 0.02293 0.0
H2738 H 0.38782 0.93146 0.0206 0.0
C2739 C 0.31191 0.82751 0.99888 0.0
C2740 C 0.35228 0.86917 0.99234 0.0
H2741 H 0.40267 0.86997 0.00665 0.0
C2742 C 0.34999 0.89014 0.98837 0.0
C2743 C 0.37172 0.86177 0.99859 0.0
C2744 C 0.37589 0.83929 0.00156 0.0
C2745 C 0.36644 0.90383 0.99038 0.0
C2746 C 0.38563 0.89659 0.99749 0.0
C2747 C 0.38795 0.87562 0.00146 0.0
C2748 C 0.40356 0.91042 1.0004 0.0
C2749 C 0.36318 0.92578 0.98407 0.0
C2750 C 0.42244 0.90609 0.99094 0.0
C2751 C 0.43898 0.91964 0.99278 0.0
C2752 C 0.43684 0.93789 0.00391 0.0
C2753 C 0.41821 0.94183 0.01396 0.0
C2754 C 0.40188 0.9281 0.01248 0.0
H2755 H 0.35031 0.92727 0.97302 0.0
H2756 H 0.35927 0.935 0.99779 0.0
H2757 H 0.37714 0.93232 0.9769 0.0
H2758 H 0.42424 0.89249 0.98166 0.0
H2759 H 0.45314 0.91623 0.98483 0.0
H2760 H 0.68051 0.20527 0.00539 0.0
H2761 H 0.65194 0.18167 0.01071 0.0
H2762 H 0.69042 0.13118 0.99296 0.0
H2763 H 0.71919 0.15464 0.98798 0.0
H2764 H 0.63515 0.15653 0.97971 0.0
H2765 H 0.66248 0.11045 0.04563 0.0
H2766 H 0.67335 0.13498 0.03915 0.0
H2767 H 0.68052 0.11257 0.02495 0.0
C2768 C 0.68307 0.18908 0.00314 0.0
C2769 C 0.70219 0.18184 0.99634 0.0
C2770 C 0.66665 0.17563 0.00602 0.0
C2771 C 0.66907 0.15464 0.0024 0.0
C2772 C 0.68827 0.14727 0.99616 0.0
H2773 H 0.59344 0.04725 0.99625 0.0
H2774 H 0.6206 0.07273 0.99663 0.0
C2775 C 0.70467 0.16072 0.99316 0.0
C2776 C 0.65119 0.14066 0.00373 0.0
H2777 H 0.6335 0.0977 0.02758 0.0
C2778 C 0.63466 0.14377 0.99031 0.0
C2779 C 0.65064 0.124 0.01751 0.0
C2780 C 0.6676 0.12034 0.03277 0.0
C2781 C 0.61791 0.13029 0.98982 0.0
C2782 C 0.61746 0.11347 0.00346 0.0
C2783 C 0.63384 0.11058 0.01712 0.0
C2784 C 0.60057 0.0982 0.00324 0.0
C2785 C 0.60127 0.13375 0.97415 0.0
C2786 C 0.58018 0.10397 0.00696 0.0
C2787 C 0.56446 0.08939 0.00663 0.0
C2788 C 0.56886 0.06868 0.00281 0.0
C2789 C 0.58937 0.063 0.99929 0.0
C2790 C 0.605 0.07757 0.99952 0.0
H2791 H 0.6064 0.14403 0.96162 0.0
H2792 H 0.59616 0.11908 0.96731 0.0
H2793 H 0.5879 0.14098 0.98174 0.0
H2794 H 0.57642 0.11973 0.01031 0.0
H2795 H 0.54892 0.09433 0.00959 0.0
H2796 H 0.4867 0.65393 0.78902 0.0
H2797 H 0.49223 0.63098 0.81817 0.0
H2798 H 0.51224 0.6819 0.85496 0.0
H2799 H 0.50638 0.70501 0.82606 0.0
H2800 H 0.52816 0.62343 0.84329 0.0
H2801 H 0.46348 0.65701 0.88741 0.0
H2802 H 0.46672 0.66123 0.86025 0.0
H2803 H 0.4825 0.67467 0.87831 0.0
C2804 C 0.4924 0.66023 0.80328 0.0
C2805 C 0.49599 0.68134 0.80521 0.0
C2806 C 0.49561 0.64709 0.8199 0.0
C2807 C 0.50232 0.65479 0.83882 0.0
C2808 C 0.50678 0.67568 0.84057 0.0
H2809 H 0.51016 0.59332 0.9584 0.0
H2810 H 0.51149 0.61895 0.931 0.0
C2811 C 0.50365 0.68884 0.82394 0.0
C2812 C 0.50389 0.64104 0.85688 0.0
H2813 H 0.48207 0.63062 0.90336 0.0
C2814 C 0.51815 0.62503 0.85646 0.0
C2815 C 0.49088 0.64323 0.8741 0.0
C2816 C 0.4749 0.65985 0.87512 0.0
C2817 C 0.51971 0.61109 0.87278 0.0
C2818 C 0.50629 0.61291 0.88976 0.0
C2819 C 0.49235 0.62922 0.89036 0.0
C2820 C 0.50572 0.59745 0.90648 0.0
C2821 C 0.53586 0.59464 0.87173 0.0
C2822 C 0.50161 0.57693 0.90188 0.0
C2823 C 0.50089 0.56228 0.91743 0.0
C2824 C 0.50402 0.5678 0.93807 0.0
C2825 C 0.50771 0.58848 0.94272 0.0
C2826 C 0.50851 0.60316 0.92706 0.0
H2827 H 0.54874 0.59917 0.86157 0.0
H2828 H 0.54208 0.59109 0.88717 0.0
H2829 H 0.52898 0.58052 0.86532 0.0
H2830 H 0.49878 0.57222 0.88621 0.0
H2831 H 0.49774 0.54661 0.91317 0.0
H2832 H 0.35216 0.48805 0.7872 0.0
H2833 H 0.37529 0.49327 0.81633 0.0
H2834 H 0.3244 0.51293 0.85349 0.0
H2835 H 0.30112 0.50739 0.82463 0.0
H2836 H 0.38283 0.52899 0.84212 0.0
H2837 H 0.34939 0.46342 0.88485 0.0
H2838 H 0.34524 0.46715 0.85773 0.0
H2839 H 0.33162 0.48247 0.87604 0.0
C2840 C 0.34592 0.49363 0.80153 0.0
C2841 C 0.32477 0.4972 0.8036 0.0
C2842 C 0.35915 0.49667 0.81813 0.0
C2843 C 0.35149 0.50317 0.83714 0.0
C2844 C 0.33057 0.50764 0.83901 0.0
H2845 H 0.4122 0.50896 0.957 0.0
H2846 H 0.38684 0.51076 0.92936 0.0
C2847 C 0.31733 0.50469 0.82241 0.0
C2848 C 0.36528 0.50442 0.85518 0.0
H2849 H 0.37572 0.48178 0.90121 0.0
C2850 C 0.38125 0.51873 0.85508 0.0
C2851 C 0.36311 0.49107 0.87211 0.0
C2852 C 0.34653 0.47503 0.87276 0.0
C2853 C 0.39517 0.52005 0.87146 0.0
C2854 C 0.39335 0.50632 0.88816 0.0
C2855 C 0.37711 0.49229 0.88843 0.0
C2856 C 0.40871 0.50558 0.90498 0.0
C2857 C 0.41157 0.53627 0.8708 0.0
C2858 C 0.42935 0.50167 0.90051 0.0
C2859 C 0.44385 0.50068 0.91621 0.0
C2860 C 0.43804 0.50332 0.93684 0.0
C2861 C 0.41725 0.50685 0.94133 0.0
C2862 C 0.40273 0.50793 0.92554 0.0
H2863 H 0.40703 0.54925 0.86082 0.0
H2864 H 0.41497 0.54223 0.88637 0.0
H2865 H 0.42582 0.52959 0.8644 0.0
H2866 H 0.43425 0.49919 0.88485 0.0
H2867 H 0.45963 0.49767 0.9121 0.0
H2868 H 0.55596 0.34354 0.79902 0.0
H2869 H 0.54831 0.36708 0.82682 0.0
H2870 H 0.48761 0.34164 0.83202 0.0
H2871 H 0.49574 0.31681 0.80523 0.0
H2872 H 0.52294 0.39629 0.83275 0.0
H2873 H 0.50522 0.33633 0.89002 0.0
H2874 H 0.51556 0.33041 0.86511 0.0
H2875 H 0.48861 0.33542 0.86816 0.0
C2876 C 0.54103 0.34271 0.80619 0.0
C2877 C 0.52667 0.32785 0.8001 0.0
C2878 C 0.53659 0.35638 0.82203 0.0
C2879 C 0.51757 0.35582 0.83204 0.0
C2880 C 0.50267 0.34195 0.82509 0.0
H2881 H 0.48476 0.45618 0.91476 0.0
H2882 H 0.48655 0.43235 0.886 0.0
C2883 C 0.50722 0.32798 0.80944 0.0
C2884 C 0.51369 0.36969 0.84981 0.0
H2885 H 0.49958 0.37055 0.90031 0.0
C2886 C 0.51784 0.39062 0.84752 0.0
C2887 C 0.50739 0.36233 0.86926 0.0
C2888 C 0.50414 0.33988 0.87339 0.0
C2889 C 0.51605 0.40431 0.86402 0.0
C2890 C 0.50901 0.39709 0.88326 0.0
C2891 C 0.50476 0.37618 0.88555 0.0
C2892 C 0.50656 0.41085 0.90134 0.0
C2893 C 0.52255 0.4262 0.86075 0.0
C2894 C 0.51616 0.40621 0.92008 0.0
C2895 C 0.51465 0.41957 0.93681 0.0
C2896 C 0.50371 0.43796 0.93501 0.0
C2897 C 0.4936 0.44229 0.91649 0.0
C2898 C 0.49475 0.42873 0.89995 0.0
H2899 H 0.53342 0.42763 0.84773 0.0
H2900 H 0.50889 0.43558 0.85707 0.0
H2901 H 0.52996 0.4326 0.87467 0.0
H2902 H 0.52525 0.39245 0.92164 0.0
H2903 H 0.52262 0.41584 0.95088 0.0
H2904 H 0.70539 0.50101 0.82626 0.0
H2905 H 0.68119 0.50502 0.85455 0.0
H2906 H 0.6308 0.49692 0.81263 0.0
H2907 H 0.65495 0.49284 0.78419 0.0
H2908 H 0.64899 0.53166 0.8623 0.0
H2909 H 0.6211 0.45195 0.8548 0.0
H2910 H 0.64371 0.46103 0.84177 0.0
H2911 H 0.6187 0.46673 0.83174 0.0
C2912 C 0.68915 0.50048 0.82294 0.0
C2913 C 0.68212 0.49649 0.80293 0.0
C2914 C 0.67534 0.50265 0.83919 0.0
C2915 C 0.65421 0.50083 0.8358 0.0
C2916 C 0.64707 0.49786 0.8157 0.0
H2917 H 0.54609 0.5013 0.91155 0.0
H2918 H 0.57126 0.50155 0.88405 0.0
C2919 C 0.66088 0.4956 0.79944 0.0
C2920 C 0.63973 0.50138 0.85338 0.0
H2921 H 0.60338 0.4732 0.87826 0.0
C2922 C 0.63907 0.51886 0.86585 0.0
C2923 C 0.62692 0.48458 0.85811 0.0
C2924 C 0.62772 0.46492 0.84604 0.0
C2925 C 0.62553 0.52021 0.88258 0.0
C2926 C 0.61253 0.50352 0.88709 0.0
C2927 C 0.61334 0.48599 0.87474 0.0
C2928 C 0.59747 0.50409 0.90413 0.0
C2929 C 0.62485 0.53964 0.89499 0.0
C2930 C 0.60384 0.50531 0.92467 0.0
C2931 C 0.58942 0.50514 0.9406 0.0
C2932 C 0.56834 0.50369 0.93626 0.0
C2933 C 0.56212 0.50248 0.91561 0.0
C2934 C 0.57651 0.50261 0.89978 0.0
H2935 H 0.63262 0.55248 0.88702 0.0
H2936 H 0.60878 0.54411 0.89827 0.0
H2937 H 0.6327 0.5371 0.90986 0.0
H2938 H 0.61998 0.50611 0.92839 0.0
H2939 H 0.59481 0.50603 0.95627 0.0
H2940 H 0.49226 0.34954 0.21832 0.0
H2941 H 0.49748 0.37228 0.18894 0.0
H2942 H 0.51147 0.3204 0.15076 0.0
H2943 H 0.50582 0.29753 0.17984 0.0
H2944 H 0.53192 0.37779 0.16165 0.0
H2945 H 0.46274 0.34851 0.12151 0.0
H2946 H 0.46747 0.34376 0.14836 0.0
H2947 H 0.48113 0.32956 0.12917 0.0
C2948 C 0.49656 0.34297 0.2037 0.0
C2949 C 0.49851 0.32168 0.20145 0.0
C2950 C 0.49961 0.35599 0.18695 0.0
C2951 C 0.50452 0.348 0.16759 0.0
C2952 C 0.50738 0.32687 0.16549 0.0
H2953 H 0.50944 0.40888 0.04763 0.0
H2954 H 0.51107 0.38327 0.07502 0.0
C2955 C 0.50439 0.31383 0.18222 0.0
C2956 C 0.50587 0.36171 0.1495 0.0
H2957 H 0.48221 0.37346 0.10427 0.0
C2958 C 0.5211 0.37682 0.14907 0.0
C2959 C 0.4918 0.36035 0.13305 0.0
C2960 C 0.47474 0.3448 0.13299 0.0
C2961 C 0.52262 0.39064 0.13264 0.0
C2962 C 0.50821 0.38961 0.11643 0.0
C2963 C 0.49325 0.37422 0.11667 0.0
C2964 C 0.50765 0.40507 0.09973 0.0
C2965 C 0.53975 0.4061 0.13274 0.0
C2966 C 0.50481 0.42576 0.10447 0.0
C2967 C 0.50389 0.44039 0.08892 0.0
C2968 C 0.50559 0.4347 0.06815 0.0
C2969 C 0.50812 0.41387 0.0634 0.0
C2970 C 0.50908 0.3992 0.07905 0.0
H2971 H 0.55283 0.40087 0.14227 0.0
H2972 H 0.54536 0.4092 0.11697 0.0
H2973 H 0.53405 0.42064 0.13937 0.0
H2974 H 0.50308 0.43062 0.12025 0.0
H2975 H 0.50173 0.4562 0.0933 0.0
H2976 H 0.68779 0.47928 0.20033 0.0
H2977 H 0.66517 0.47354 0.17089 0.0
H2978 H 0.64735 0.53691 0.17209 0.0
H2979 H 0.67048 0.54304 0.20064 0.0
H2980 H 0.62384 0.47841 0.16544 0.0
H2981 H 0.66589 0.53013 0.11328 0.0
H2982 H 0.67624 0.52193 0.13757 0.0
H2983 H 0.65828 0.54277 0.13645 0.0
C2984 C 0.67914 0.49203 0.19427 0.0
C2985 C 0.68109 0.51165 0.20291 0.0
C2986 C 0.66614 0.48869 0.17749 0.0
C2987 C 0.65491 0.5049 0.16898 0.0
C2988 C 0.65622 0.52427 0.17806 0.0
H2989 H 0.54739 0.50588 0.09388 0.0
H2990 H 0.57288 0.50506 0.12106 0.0
C2991 C 0.66924 0.52765 0.19469 0.0
C2992 C 0.64175 0.50176 0.15065 0.0
H2993 H 0.632 0.52067 0.10282 0.0
C2994 C 0.62575 0.48748 0.15166 0.0
C2995 C 0.64451 0.51325 0.13246 0.0
C2996 C 0.6623 0.52771 0.12975 0.0
C2997 C 0.61186 0.48511 0.13537 0.0
C2998 C 0.61376 0.49767 0.11778 0.0
C2999 C 0.63034 0.51124 0.1164 0.0
C3000 C 0.59826 0.49766 0.10107 0.0
C3001 C 0.59531 0.46913 0.13718 0.0
C3002 C 0.6041 0.49447 0.08058 0.0
C3003 C 0.58953 0.4952 0.06482 0.0
C3004 C 0.56881 0.49917 0.06927 0.0
C3005 C 0.56311 0.50252 0.08982 0.0
C3006 C 0.57768 0.50191 0.10548 0.0
H3007 H 0.59993 0.45665 0.14775 0.0
H3008 H 0.58127 0.47627 0.14353 0.0
H3009 H 0.59154 0.46238 0.12202 0.0
H3010 H 0.61994 0.49136 0.07677 0.0
H3011 H 0.5945 0.49254 0.04921 0.0
H3012 H 0.53381 0.65299 0.216 0.0
H3013 H 0.52714 0.62934 0.18762 0.0
H3014 H 0.48458 0.67227 0.16137 0.0
H3015 H 0.49119 0.69609 0.18968 0.0
H3016 H 0.48166 0.61601 0.16947 0.0
H3017 H 0.53681 0.65766 0.11934 0.0
H3018 H 0.53979 0.65739 0.14688 0.0
H3019 H 0.51939 0.67174 0.13552 0.0
C3020 C 0.52283 0.65729 0.20433 0.0
C3021 C 0.51306 0.67643 0.20507 0.0
C3022 C 0.51902 0.64375 0.18817 0.0
C3023 C 0.50548 0.64915 0.17239 0.0
C3024 C 0.49508 0.66787 0.17344 0.0
H3025 H 0.49322 0.59034 0.05221 0.0
H3026 H 0.49211 0.61491 0.08053 0.0
C3027 C 0.49877 0.68138 0.18969 0.0
C3028 C 0.50322 0.63567 0.15428 0.0
H3029 H 0.52186 0.62787 0.10599 0.0
C3030 C 0.49033 0.61861 0.15552 0.0
C3031 C 0.51442 0.63927 0.1361 0.0
C3032 C 0.52846 0.65746 0.13418 0.0
C3033 C 0.48849 0.60487 0.13904 0.0
C3034 C 0.50033 0.608 0.12109 0.0
C3035 C 0.51285 0.6254 0.11973 0.0
C3036 C 0.5006 0.59302 0.10389 0.0
C3037 C 0.47371 0.58726 0.141 0.0
C3038 C 0.50609 0.57261 0.10749 0.0
C3039 C 0.50663 0.55852 0.09139 0.0
C3040 C 0.50198 0.56455 0.0712 0.0
C3041 C 0.49688 0.58512 0.06754 0.0
C3042 C 0.4962 0.5992 0.08373 0.0
H3043 H 0.46134 0.59073 0.15216 0.0
H3044 H 0.46663 0.58344 0.126 0.0
H3045 H 0.48206 0.57362 0.14666 0.0
H3046 H 0.51019 0.56757 0.12276 0.0
H3047 H 0.51091 0.54291 0.09483 0.0
H3048 H 0.30136 0.49825 0.18126 0.0
H3049 H 0.32508 0.49239 0.15282 0.0
H3050 H 0.37578 0.50945 0.19152 0.0
H3051 H 0.35219 0.515 0.22018 0.0
H3052 H 0.3508 0.523 0.13615 0.0
H3053 H 0.39592 0.45661 0.16361 0.0
H3054 H 0.37135 0.46338 0.17436 0.0
H3055 H 0.39395 0.47724 0.18167 0.0
C3056 C 0.31761 0.50022 0.18391 0.0
C3057 C 0.32488 0.50702 0.20305 0.0
C3058 C 0.33113 0.49703 0.16757 0.0
C3059 C 0.35222 0.50033 0.17007 0.0
C3060 C 0.35961 0.50651 0.18931 0.0
H3061 H 0.46004 0.50476 0.09429 0.0
H3062 H 0.43458 0.50447 0.12158 0.0
C3063 C 0.34609 0.50982 0.20564 0.0
C3064 C 0.36627 0.49879 0.15221 0.0
H3065 H 0.40894 0.47431 0.13454 0.0
C3066 C 0.36341 0.51222 0.13567 0.0
C3067 C 0.38274 0.48479 0.15168 0.0
C3068 C 0.38614 0.46954 0.16868 0.0
C3069 C 0.37696 0.5125 0.11892 0.0
C3070 C 0.39357 0.49861 0.11845 0.0
C3071 C 0.39622 0.48495 0.13487 0.0
C3072 C 0.40887 0.49855 0.10153 0.0
C3073 C 0.37379 0.5282 0.10228 0.0
C3074 C 0.40297 0.49513 0.08109 0.0
C3075 C 0.41754 0.49542 0.06531 0.0
C3076 C 0.43836 0.49889 0.06968 0.0
C3077 C 0.4442 0.502 0.09024 0.0
C3078 C 0.42963 0.50182 0.10594 0.0
H3079 H 0.36378 0.54091 0.10748 0.0
H3080 H 0.38862 0.5347 0.09713 0.0
H3081 H 0.36632 0.52083 0.08891 0.0
H3082 H 0.38711 0.49211 0.07734 0.0
H3083 H 0.41248 0.49278 0.04972 0.0
H3084 H 0.78983 0.47308 0.65314 0.0
H3085 H 0.81896 0.48012 0.6305 0.0
H3086 H 0.84374 0.52175 0.67525 0.0
H3087 H 0.81467 0.51476 0.69805 0.0
H3088 H 0.83787 0.52558 0.61858 0.0
H3089 H 0.88582 0.46955 0.66151 0.0
H3090 H 0.85833 0.46676 0.66015 0.0
H3091 H 0.86924 0.48688 0.67519 0.0
C3092 C 0.80132 0.48397 0.65803 0.0
C3093 C 0.79997 0.49334 0.67739 0.0
C3094 C 0.81791 0.48799 0.64508 0.0
C3095 C 0.83349 0.50134 0.65131 0.0
C3096 C 0.83181 0.51141 0.67021 0.0
H3097 H 0.95499 0.51152 0.59416 0.0
H3098 H 0.92669 0.51342 0.61884 0.0
C3099 C 0.81514 0.5075 0.68313 0.0
C3100 C 0.85209 0.50363 0.63855 0.0
H3101 H 0.90015 0.48421 0.63194 0.0
C3102 C 0.85157 0.51669 0.62155 0.0
C3103 C 0.86994 0.49216 0.64264 0.0
C3104 C 0.87107 0.47797 0.66083 0.0
C3105 C 0.86842 0.5183 0.60823 0.0
C3106 C 0.88599 0.50607 0.61175 0.0
C3107 C 0.88669 0.49351 0.62919 0.0
C3108 C 0.90324 0.50516 0.59689 0.0
C3109 C 0.86724 0.53314 0.59057 0.0
C3110 C 0.89956 0.49942 0.57651 0.0
C3111 C 0.91561 0.49838 0.56242 0.0
C3112 C 0.93584 0.50279 0.56841 0.0
C3113 C 0.93962 0.50802 0.589 0.0
C3114 C 0.92345 0.50918 0.60311 0.0
H3115 H 0.85639 0.54579 0.59389 0.0
H3116 H 0.88248 0.53978 0.58703 0.0
H3117 H 0.86159 0.52502 0.57675 0.0
H3118 H 0.88423 0.49558 0.57148 0.0
H3119 H 0.91208 0.494 0.5468 0.0
H3120 H 0.45591 0.81055 0.67924 0.0
H3121 H 0.46118 0.83855 0.65518 0.0
H3122 H 0.5265 0.82975 0.65884 0.0
H3123 H 0.52132 0.80161 0.68321 0.0
H3124 H 0.51583 0.87029 0.66104 0.0
H3125 H 0.47648 0.83393 0.59532 0.0
H3126 H 0.46063 0.83511 0.61775 0.0
H3127 H 0.48358 0.81988 0.61803 0.0
C3128 C 0.47141 0.81429 0.67469 0.0
C3129 C 0.48819 0.80358 0.68292 0.0
C3130 C 0.47439 0.83037 0.66093 0.0
C3131 C 0.49421 0.83602 0.65486 0.0
C3132 C 0.51105 0.82558 0.66322 0.0
H3133 H 0.51592 0.91336 0.54904 0.0
H3134 H 0.51533 0.88586 0.57416 0.0
C3135 C 0.50808 0.80951 0.67713 0.0
C3136 C 0.4972 0.85304 0.64002 0.0
H3137 H 0.48314 0.8696 0.59242 0.0
C3138 C 0.50882 0.8701 0.64597 0.0
C3139 C 0.48827 0.85269 0.62025 0.0
C3140 C 0.47672 0.83434 0.61236 0.0
C3141 C 0.51137 0.88699 0.63285 0.0
C3142 C 0.50167 0.887 0.61343 0.0
C3143 C 0.4904 0.86975 0.60738 0.0
C3144 C 0.50332 0.90442 0.59882 0.0
C3145 C 0.52472 0.90447 0.63981 0.0
C3146 C 0.49688 0.92419 0.60429 0.0
C3147 C 0.49737 0.94013 0.58991 0.0
C3148 C 0.50397 0.9365 0.56971 0.0
C3149 C 0.51057 0.91673 0.5644 0.0
C3150 C 0.51028 0.90093 0.57877 0.0
H3151 H 0.53557 0.89964 0.652 0.0
H3152 H 0.53362 0.91091 0.62683 0.0
H3153 H 0.5149 0.91674 0.6462 0.0
H3154 H 0.49097 0.9272 0.6195 0.0
H3155 H 0.49202 0.95512 0.59446 0.0
H3156 H 0.20102 0.46082 0.67212 0.0
H3157 H 0.17294 0.46596 0.64816 0.0
H3158 H 0.17015 0.52962 0.66484 0.0
H3159 H 0.1991 0.52487 0.68821 0.0
H3160 H 0.13431 0.47768 0.65674 0.0
H3161 H 0.16983 0.53293 0.60284 0.0
H3162 H 0.18458 0.51882 0.62144 0.0
H3163 H 0.17013 0.54088 0.62918 0.0
C3164 C 0.1949 0.47609 0.67035 0.0
C3165 C 0.20259 0.49248 0.68202 0.0
C3166 C 0.17861 0.47893 0.65678 0.0
C3167 C 0.16951 0.4982 0.65452 0.0
C3168 C 0.17714 0.51467 0.66603 0.0
H3169 H 0.0492 0.51077 0.5947 0.0
H3170 H 0.07681 0.51101 0.62012 0.0
C3171 C 0.19357 0.51187 0.67957 0.0
C3172 C 0.1516 0.50064 0.64065 0.0
H3173 H 0.13475 0.52548 0.59779 0.0
C3174 C 0.13438 0.48818 0.64388 0.0
C3175 C 0.15175 0.51423 0.62378 0.0
C3176 C 0.17011 0.52736 0.61893 0.0
C3177 C 0.11747 0.4887 0.63058 0.0
C3178 C 0.11753 0.50243 0.61382 0.0
C3179 C 0.13464 0.51509 0.61073 0.0
C3180 C 0.10065 0.50294 0.59852 0.0
C3181 C 0.10004 0.47397 0.63417 0.0
C3182 C 0.10491 0.49886 0.57784 0.0
C3183 C 0.08924 0.49891 0.56327 0.0
C3184 C 0.06887 0.50305 0.56901 0.0
C3185 C 0.06465 0.50733 0.58974 0.0
C3186 C 0.08041 0.5074 0.60432 0.0
H3187 H 0.10457 0.46124 0.64447 0.0
H3188 H 0.08713 0.48222 0.64149 0.0
H3189 H 0.09451 0.46742 0.61948 0.0
H3190 H 0.12038 0.49537 0.57299 0.0
H3191 H 0.09316 0.49548 0.5475 0.0
H3192 H 0.48852 0.20759 0.67705 0.0
H3193 H 0.48252 0.17928 0.65312 0.0
H3194 H 0.54735 0.16692 0.65152 0.0
H3195 H 0.55344 0.19513 0.67511 0.0
H3196 H 0.53143 0.1659 0.61386 0.0
H3197 H 0.48357 0.11886 0.6659 0.0
H3198 H 0.4737 0.14408 0.66159 0.0
H3199 H 0.4977 0.14086 0.6747 0.0
C3200 C 0.50147 0.19882 0.67158 0.0
C3201 C 0.52147 0.20374 0.67792 0.0
C3202 C 0.49802 0.18256 0.658 0.0
C3203 C 0.51445 0.17071 0.65075 0.0
C3204 C 0.53441 0.17579 0.65687 0.0
H3205 H 0.51249 0.05089 0.59246 0.0
H3206 H 0.51498 0.07959 0.61649 0.0
C3207 C 0.53788 0.19207 0.67028 0.0
C3208 C 0.51116 0.15319 0.63654 0.0
H3209 H 0.48698 0.10709 0.63165 0.0
C3210 C 0.52169 0.15306 0.61776 0.0
C3211 C 0.49872 0.13623 0.64175 0.0
C3212 C 0.48792 0.13484 0.66215 0.0
C3213 C 0.5201 0.13659 0.60406 0.0
C3214 C 0.50716 0.11992 0.60896 0.0
C3215 C 0.49672 0.11994 0.6278 0.0
C3216 C 0.50449 0.1023 0.59478 0.0
C3217 C 0.53276 0.13698 0.58469 0.0
C3218 C 0.49724 0.10539 0.57477 0.0
C3219 C 0.49596 0.08909 0.56099 0.0
C3220 C 0.50161 0.06921 0.56698 0.0
C3221 C 0.50803 0.06597 0.58731 0.0
C3222 C 0.50948 0.08237 0.60107 0.0
H3223 H 0.54597 0.14759 0.58605 0.0
H3224 H 0.53865 0.12153 0.58087 0.0
H3225 H 0.52309 0.14233 0.57177 0.0
H3226 H 0.49275 0.12049 0.56972 0.0
H3227 H 0.49062 0.09215 0.54557 0.0
H3228 H 0.79576 0.48737 0.33084 0.0
H3229 H 0.82402 0.48125 0.35498 0.0
H3230 H 0.84431 0.54341 0.34709 0.0
H3231 H 0.81637 0.54961 0.32312 0.0
H3232 H 0.86693 0.48521 0.34989 0.0
H3233 H 0.83786 0.53841 0.40926 0.0
H3234 H 0.8222 0.5296 0.38825 0.0
H3235 H 0.84028 0.54997 0.38442 0.0
C3236 C 0.80626 0.4997 0.33427 0.0
C3237 C 0.80356 0.51909 0.32535 0.0
C3238 C 0.82238 0.49619 0.34805 0.0
C3239 C 0.83603 0.512 0.35313 0.0
C3240 C 0.83366 0.53115 0.34382 0.0
H3241 H 0.95559 0.50838 0.41229 0.0
H3242 H 0.92746 0.5094 0.38745 0.0
C3243 C 0.8176 0.53468 0.33016 0.0
C3244 C 0.85279 0.50869 0.36816 0.0
H3245 H 0.87216 0.52685 0.41322 0.0
C3246 C 0.86803 0.49419 0.36382 0.0
C3247 C 0.85408 0.52027 0.38643 0.0
C3248 C 0.83764 0.5353 0.39251 0.0
C3249 C 0.88481 0.49132 0.37706 0.0
C3250 C 0.8865 0.50351 0.39491 0.0
C3251 C 0.871 0.51767 0.39943 0.0
C3252 C 0.90391 0.50164 0.40947 0.0
C3253 C 0.90041 0.47512 0.37196 0.0
C3254 C 0.90003 0.49718 0.43014 0.0
C3255 C 0.91598 0.49679 0.44437 0.0
C3256 C 0.93627 0.50091 0.43831 0.0
C3257 C 0.9402 0.50504 0.4175 0.0
C3258 C 0.92414 0.50551 0.40324 0.0
H3259 H 0.89421 0.46368 0.36102 0.0
H3260 H 0.91395 0.48242 0.36474 0.0
H3261 H 0.90561 0.46706 0.38601 0.0
H3262 H 0.88456 0.49416 0.43532 0.0
H3263 H 0.9123 0.49337 0.4602 0.0
H3264 H 0.5142 0.78319 0.35108 0.0
H3265 H 0.51002 0.81125 0.37556 0.0
H3266 H 0.4993 0.85302 0.3256 0.0
H3267 H 0.50348 0.82515 0.3011 0.0
H3268 H 0.534 0.84558 0.37788 0.0
H3269 H 0.45321 0.86796 0.36452 0.0
H3270 H 0.46364 0.84406 0.3555 0.0
H3271 H 0.46839 0.8673 0.34159 0.0
C3272 C 0.51074 0.79831 0.34531 0.0
C3273 C 0.50909 0.80185 0.32409 0.0
C3274 C 0.50831 0.81433 0.35933 0.0
C3275 C 0.5041 0.83423 0.35247 0.0
C3276 C 0.50204 0.83774 0.33133 0.0
H3277 H 0.49976 0.9535 0.41254 0.0
H3278 H 0.5002 0.9255 0.38761 0.0
C3279 C 0.50441 0.82173 0.31732 0.0
C3280 C 0.50336 0.85153 0.36727 0.0
H3281 H 0.47339 0.89074 0.38459 0.0
C3282 C 0.52068 0.85535 0.37944 0.0
C3283 C 0.48605 0.86442 0.36919 0.0
C3284 C 0.46669 0.86066 0.35715 0.0
C3285 C 0.52128 0.8718 0.39326 0.0
C3286 C 0.50396 0.88464 0.39523 0.0
C3287 C 0.48666 0.88092 0.38301 0.0
C3288 C 0.50339 0.90164 0.41032 0.0
C3289 C 0.5406 0.87552 0.4054 0.0
C3290 C 0.50473 0.89752 0.43138 0.0
C3291 C 0.50449 0.91343 0.44566 0.0
C3292 C 0.50282 0.93391 0.43924 0.0
C3293 C 0.50119 0.93798 0.41809 0.0
C3294 C 0.50138 0.92198 0.4038 0.0
H3295 H 0.55403 0.86779 0.3984 0.0
H3296 H 0.54391 0.89212 0.4066 0.0
H3297 H 0.5386 0.86941 0.42114 0.0
H3298 H 0.50593 0.88192 0.43679 0.0
H3299 H 0.50568 0.90958 0.46176 0.0
H3300 H 0.19464 0.54796 0.32814 0.0
H3301 H 0.16681 0.54262 0.35247 0.0
H3302 H 0.17736 0.47765 0.35053 0.0
H3303 H 0.20533 0.48289 0.32591 0.0
H3304 H 0.13647 0.48713 0.34815 0.0
H3305 H 0.17187 0.52912 0.41272 0.0
H3306 H 0.17027 0.54429 0.38988 0.0
H3307 H 0.18613 0.5218 0.39019 0.0
C3308 C 0.19132 0.53254 0.33313 0.0
C3309 C 0.20247 0.51587 0.32531 0.0
C3310 C 0.17534 0.52951 0.34704 0.0
C3311 C 0.17023 0.50978 0.35368 0.0
C3312 C 0.18111 0.49304 0.34573 0.0
H3313 H 0.09244 0.4894 0.45986 0.0
H3314 H 0.12033 0.4899 0.43504 0.0
C3315 C 0.19708 0.49604 0.33166 0.0
C3316 C 0.15327 0.50675 0.36863 0.0
H3317 H 0.13625 0.52173 0.4158 0.0
C3318 C 0.13648 0.49456 0.36302 0.0
C3319 C 0.15337 0.51621 0.38814 0.0
C3320 C 0.17147 0.52841 0.3957 0.0
C3321 C 0.11959 0.49199 0.37618 0.0
C3322 C 0.11929 0.50225 0.3953 0.0
C3323 C 0.13631 0.51405 0.40106 0.0
C3324 C 0.10175 0.50076 0.40983 0.0
C3325 C 0.1024 0.47807 0.36959 0.0
C3326 C 0.08188 0.50663 0.40398 0.0
C3327 C 0.06575 0.5062 0.41817 0.0
C3328 C 0.06926 0.50022 0.43859 0.0
C3329 C 0.08915 0.49425 0.44432 0.0
C3330 C 0.10516 0.49448 0.43012 0.0
H3331 H 0.10757 0.46695 0.3578 0.0
H3332 H 0.09606 0.46949 0.38283 0.0
H3333 H 0.08994 0.48736 0.36278 0.0
H3334 H 0.07892 0.51202 0.38857 0.0
H3335 H 0.05067 0.51108 0.41327 0.0
H3336 H 0.45594 0.19179 0.32624 0.0
H3337 H 0.46114 0.16357 0.35005 0.0
H3338 H 0.52619 0.17479 0.34954 0.0
H3339 H 0.52109 0.2032 0.32548 0.0
H3340 H 0.51666 0.13362 0.34618 0.0
H3341 H 0.47395 0.16837 0.41073 0.0
H3342 H 0.45916 0.1671 0.38759 0.0
H3343 H 0.48173 0.18284 0.38851 0.0
C3344 C 0.47135 0.18852 0.33143 0.0
C3345 C 0.48807 0.20002 0.3242 0.0
C3346 C 0.47429 0.17232 0.34503 0.0
C3347 C 0.494 0.16729 0.35192 0.0
C3348 C 0.51082 0.17848 0.34452 0.0
H3349 H 0.51481 0.08991 0.4577 0.0
H3350 H 0.51423 0.11746 0.43266 0.0
C3351 C 0.50789 0.1947 0.33078 0.0
C3352 C 0.49691 0.15023 0.36669 0.0
H3353 H 0.48169 0.13296 0.41368 0.0
C3354 C 0.50914 0.13351 0.36101 0.0
C3355 C 0.48729 0.15019 0.38614 0.0
C3356 C 0.47497 0.16817 0.39372 0.0
C3357 C 0.51165 0.11658 0.37407 0.0
C3358 C 0.50133 0.1162 0.39316 0.0
C3359 C 0.48943 0.13311 0.39896 0.0
C3360 C 0.50299 0.09876 0.40773 0.0
C3361 C 0.5256 0.09944 0.36744 0.0
C3362 C 0.497 0.07891 0.40208 0.0
C3363 C 0.49743 0.06294 0.41643 0.0
C3364 C 0.50357 0.06663 0.43678 0.0
C3365 C 0.50978 0.08649 0.44225 0.0
C3366 C 0.50951 0.10232 0.42791 0.0
H3367 H 0.53659 0.10453 0.35548 0.0
H3368 H 0.53436 0.09325 0.38063 0.0
H3369 H 0.51624 0.08691 0.36087 0.0
H3370 H 0.49147 0.07585 0.38674 0.0
H3371 H 0.49242 0.04789 0.41174 0.0
H3372 H 0.69057 0.8081 0.51453 0.0
H3373 H 0.66571 0.83483 0.52256 0.0
H3374 H 0.63705 0.82586 0.46367 0.0
H3375 H 0.66066 0.79816 0.45624 0.0
H3376 H 0.66011 0.87008 0.50547 0.0
H3377 H 0.58739 0.82797 0.49797 0.0
H3378 H 0.61178 0.8151 0.49849 0.0
H3379 H 0.60204 0.82568 0.47488 0.0
C3380 C 0.67859 0.81133 0.50354 0.0
C3381 C 0.67775 0.80085 0.48469 0.0
C3382 C 0.66449 0.82685 0.50806 0.0
C3383 C 0.64926 0.83231 0.49385 0.0
C3384 C 0.64824 0.8217 0.47517 0.0
H3385 H 0.58944 0.95107 0.48547 0.0
H3386 H 0.61346 0.92235 0.48398 0.0
C3387 C 0.66207 0.806 0.47079 0.0
C3388 C 0.63521 0.84984 0.49794 0.0
H3389 H 0.5851 0.86454 0.49539 0.0
C3390 C 0.64367 0.86879 0.50353 0.0
C3391 C 0.61368 0.84822 0.49578 0.0
C3392 C 0.60321 0.82808 0.49168 0.0
C3393 C 0.63135 0.88618 0.50643 0.0
C3394 C 0.60998 0.88486 0.50288 0.0
C3395 C 0.60148 0.86578 0.49784 0.0
C3396 C 0.59602 0.90288 0.50444 0.0
C3397 C 0.64142 0.90564 0.51366 0.0
C3398 C 0.57788 0.90149 0.51595 0.0
C3399 C 0.56389 0.91764 0.5163 0.0
C3400 C 0.56784 0.93574 0.50541 0.0
C3401 C 0.58617 0.93741 0.49427 0.0
C3402 C 0.59997 0.92102 0.49353 0.0
H3403 H 0.65573 0.90239 0.52228 0.0
H3404 H 0.6456 0.91507 0.50016 0.0
H3405 H 0.63105 0.91466 0.52366 0.0
H3406 H 0.57439 0.88775 0.52453 0.0
H3407 H 0.54992 0.91593 0.52509 0.0
H3408 H 0.65407 0.21942 0.49205 0.0
H3409 H 0.63005 0.19095 0.4958 0.0
H3410 H 0.68048 0.14993 0.50686 0.0
H3411 H 0.70454 0.17821 0.50309 0.0
H3412 H 0.6286 0.15668 0.47154 0.0
H3413 H 0.6413 0.13412 0.55252 0.0
H3414 H 0.65002 0.15823 0.54231 0.0
H3415 H 0.66432 0.13525 0.53754 0.0
C3416 C 0.66005 0.20438 0.49549 0.0
C3417 C 0.68127 0.20118 0.49734 0.0
C3418 C 0.64628 0.18812 0.49767 0.0
C3419 C 0.65341 0.1683 0.50185 0.0
C3420 C 0.67454 0.16513 0.50414 0.0
H3421 H 0.59352 0.04862 0.5059 0.0
H3422 H 0.6186 0.07651 0.50555 0.0
C3423 C 0.68831 0.18138 0.502 0.0
C3424 C 0.63888 0.15077 0.50234 0.0
H3425 H 0.62155 0.11135 0.53208 0.0
C3426 C 0.62698 0.14686 0.48484 0.0
C3427 C 0.63689 0.1378 0.51961 0.0
C3428 C 0.64866 0.14162 0.53914 0.0
C3429 C 0.61332 0.1303 0.48405 0.0
C3430 C 0.61122 0.11743 0.50135 0.0
C3431 C 0.62322 0.1212 0.51881 0.0
C3432 C 0.59609 0.10046 0.50181 0.0
C3433 C 0.60147 0.12653 0.46455 0.0
C3434 C 0.57511 0.10467 0.50011 0.0
C3435 C 0.56077 0.08883 0.50028 0.0
C3436 C 0.56703 0.06833 0.50226 0.0
C3437 C 0.5881 0.06416 0.50422 0.0
C3438 C 0.60247 0.08009 0.50409 0.0
H3439 H 0.60872 0.13413 0.45116 0.0
H3440 H 0.60018 0.10993 0.4613 0.0
H3441 H 0.58577 0.1328 0.46626 0.0
H3442 H 0.56979 0.12027 0.49871 0.0
H3443 H 0.54473 0.09276 0.49881 0.0
H3444 H 0.80651 0.68633 0.52448 0.0
H3445 H 0.83552 0.66303 0.52904 0.0
H3446 H 0.83116 0.64517 0.46558 0.0
H3447 H 0.80294 0.66894 0.46062 0.0
H3448 H 0.83991 0.62164 0.52404 0.0
H3449 H 0.89057 0.66254 0.4698 0.0
H3450 H 0.86688 0.67332 0.47904 0.0
H3451 H 0.86674 0.65518 0.45829 0.0
C3452 C 0.81176 0.67751 0.51146 0.0
C3453 C 0.80233 0.67968 0.49215 0.0
C3454 C 0.8283 0.66411 0.51413 0.0
C3455 C 0.83584 0.65268 0.49754 0.0
C3456 C 0.82595 0.65418 0.4785 0.0
H3457 H 0.91164 0.54508 0.49665 0.0
H3458 H 0.88421 0.57025 0.49687 0.0
C3459 C 0.80952 0.66758 0.47579 0.0
C3460 C 0.85405 0.6392 0.49999 0.0
H3461 H 0.9013 0.62909 0.47984 0.0
C3462 C 0.8534 0.62337 0.51449 0.0
C3463 C 0.87187 0.64169 0.48785 0.0
C3464 C 0.8742 0.65923 0.47303 0.0
C3465 C 0.86972 0.6095 0.51661 0.0
C3466 C 0.88699 0.61124 0.50358 0.0
C3467 C 0.88797 0.62756 0.48965 0.0
C3468 C 0.9039 0.59596 0.50367 0.0
C3469 C 0.86831 0.59319 0.5329 0.0
C3470 C 0.92431 0.60205 0.50669 0.0
C3471 C 0.94021 0.58765 0.50633 0.0
C3472 C 0.936 0.56684 0.50287 0.0
C3473 C 0.91553 0.56089 0.4996 0.0
C3474 C 0.89973 0.57528 0.49987 0.0
H3475 H 0.85782 0.59781 0.54549 0.0
H3476 H 0.86213 0.57899 0.52598 0.0
H3477 H 0.88358 0.58975 0.53955 0.0
H3478 H 0.92795 0.61795 0.50948 0.0
H3479 H 0.95574 0.59282 0.50894 0.0
H3480 H 0.34811 0.78489 0.49566 0.0
H3481 H 0.3726 0.8129 0.49996 0.0
H3482 H 0.32273 0.85586 0.5038 0.0
H3483 H 0.29821 0.82807 0.49941 0.0
H3484 H 0.37707 0.84584 0.47379 0.0
H3485 H 0.35828 0.87295 0.55215 0.0
H3486 H 0.34993 0.84847 0.54253 0.0
H3487 H 0.33658 0.87139 0.53533 0.0
C3488 C 0.34234 0.80028 0.49761 0.0
C3489 C 0.32115 0.80417 0.49726 0.0
C3490 C 0.35636 0.81626 0.50012 0.0
C3491 C 0.34952 0.83647 0.50244 0.0
C3492 C 0.32839 0.84036 0.50253 0.0
H3493 H 0.41107 0.95497 0.50481 0.0
H3494 H 0.38578 0.92733 0.50431 0.0
C3495 C 0.31436 0.8244 0.50004 0.0
C3496 C 0.36447 0.8536 0.50328 0.0
H3497 H 0.38028 0.89414 0.53231 0.0
C3498 C 0.37785 0.85631 0.48665 0.0
C3499 C 0.36537 0.86739 0.51998 0.0
C3500 C 0.35191 0.86486 0.53861 0.0
C3501 C 0.39193 0.87252 0.48614 0.0
C3502 C 0.39292 0.88624 0.50288 0.0
C3503 C 0.37947 0.88363 0.51948 0.0
C3504 C 0.40821 0.90304 0.50361 0.0
C3505 C 0.40537 0.87506 0.46749 0.0
C3506 C 0.4292 0.89856 0.50373 0.0
C3507 C 0.44369 0.91426 0.504 0.0
C3508 C 0.43754 0.93488 0.50426 0.0
C3509 C 0.41643 0.93932 0.50451 0.0
C3510 C 0.40192 0.92354 0.50427 0.0
H3511 H 0.39909 0.86683 0.45399 0.0
H3512 H 0.40718 0.89144 0.46346 0.0
H3513 H 0.42077 0.86872 0.47081 0.0
H3514 H 0.43441 0.88285 0.50362 0.0
H3515 H 0.45974 0.91013 0.50392 0.0
H3516 H 0.2168 0.35249 0.52872 0.0
H3517 H 0.18755 0.37519 0.52266 0.0
H3518 H 0.15998 0.32976 0.48363 0.0
H3519 H 0.18919 0.30693 0.48961 0.0
H3520 H 0.16775 0.3879 0.48023 0.0
H3521 H 0.11908 0.34357 0.53456 0.0
H3522 H 0.14669 0.34335 0.53625 0.0
H3523 H 0.13415 0.32999 0.51583 0.0
C3524 C 0.20464 0.34745 0.51861 0.0
C3525 C 0.2053 0.32791 0.50965 0.0
C3526 C 0.18797 0.36043 0.51516 0.0
C3527 C 0.17156 0.35405 0.50286 0.0
C3528 C 0.1725 0.33491 0.49323 0.0
H3529 H 0.05039 0.41187 0.49288 0.0
H3530 H 0.0787 0.3873 0.49091 0.0
C3531 C 0.18926 0.32197 0.49653 0.0
C3532 C 0.15307 0.36705 0.50103 0.0
H3533 H 0.10467 0.37305 0.51997 0.0
C3534 C 0.15389 0.38462 0.48879 0.0
C3535 C 0.13498 0.3626 0.51208 0.0
C3536 C 0.1335 0.34391 0.52552 0.0
C3537 C 0.13713 0.39804 0.48748 0.0
C3538 C 0.1193 0.39408 0.49924 0.0
C3539 C 0.11832 0.37615 0.51103 0.0
C3540 C 0.102 0.40886 0.50035 0.0
C3541 C 0.13868 0.41624 0.47338 0.0
C3542 C 0.10554 0.42899 0.50679 0.0
C3543 C 0.08949 0.44304 0.50783 0.0
C3544 C 0.06935 0.43725 0.50274 0.0
C3545 C 0.06568 0.41689 0.49687 0.0
C3546 C 0.08186 0.40283 0.49569 0.0
H3547 H 0.14975 0.41342 0.46075 0.0
H3548 H 0.12359 0.42013 0.46657 0.0
H3549 H 0.14424 0.42962 0.48221 0.0
H3550 H 0.12078 0.43387 0.51114 0.0
H3551 H 0.09293 0.45846 0.51274 0.0
H3552 H 0.31768 0.19684 0.47655 0.0
H3553 H 0.34042 0.16733 0.47262 0.0
H3554 H 0.35863 0.17284 0.5359 0.0
H3555 H 0.33539 0.20159 0.54025 0.0
H3556 H 0.38173 0.16257 0.47745 0.0
H3557 H 0.3407 0.1137 0.53315 0.0
H3558 H 0.33006 0.13724 0.52349 0.0
H3559 H 0.34839 0.13763 0.5441 0.0
C3560 C 0.32643 0.19172 0.48967 0.0
C3561 C 0.32455 0.20165 0.50875 0.0
C3562 C 0.33951 0.17489 0.48736 0.0
C3563 C 0.3509 0.16756 0.50408 0.0
C3564 C 0.34964 0.17788 0.52289 0.0
H3565 H 0.45839 0.09203 0.5067 0.0
H3566 H 0.43305 0.11923 0.5057 0.0
C3567 C 0.33655 0.19461 0.52525 0.0
C3568 C 0.3642 0.1492 0.50197 0.0
H3569 H 0.37419 0.10255 0.52328 0.0
C3570 C 0.37997 0.14937 0.48734 0.0
C3571 C 0.36166 0.13175 0.51456 0.0
C3572 C 0.34415 0.12993 0.52955 0.0
C3573 C 0.39377 0.13298 0.48557 0.0
C3574 C 0.39202 0.11611 0.49908 0.0
C3575 C 0.37573 0.11557 0.5131 0.0
C3576 C 0.40738 0.0993 0.49946 0.0
C3577 C 0.41004 0.13388 0.46917 0.0
C3578 C 0.40136 0.07883 0.49701 0.0
C3579 C 0.41587 0.06305 0.4978 0.0
C3580 C 0.43671 0.06745 0.50112 0.0
C3581 C 0.44257 0.08798 0.50384 0.0
C3582 C 0.42808 0.10365 0.50314 0.0
H3583 H 0.40534 0.14395 0.45629 0.0
H3584 H 0.4243 0.14026 0.47582 0.0
H3585 H 0.41345 0.11845 0.46297 0.0
H3586 H 0.38543 0.07506 0.49435 0.0
H3587 H 0.41077 0.04746 0.49566 0.0
H3588 H 0.81749 0.30559 0.51411 0.0
H3589 H 0.84623 0.32895 0.52044 0.0
H3590 H 0.81773 0.37429 0.48199 0.0
H3591 H 0.78903 0.35102 0.47552 0.0
H3592 H 0.87086 0.34712 0.48516 0.0
H3593 H 0.8355 0.40427 0.53735 0.0
H3594 H 0.82607 0.37841 0.53514 0.0
H3595 H 0.82068 0.39667 0.51536 0.0
C3596 C 0.81713 0.32072 0.5074 0.0
C3597 C 0.80097 0.32651 0.49437 0.0
C3598 C 0.83361 0.33397 0.51091 0.0
C3599 C 0.83405 0.35335 0.50173 0.0
C3600 C 0.8176 0.35945 0.48933 0.0
H3601 H 0.91301 0.45766 0.49265 0.0
H3602 H 0.88544 0.43263 0.49283 0.0
C3603 C 0.80125 0.34614 0.48562 0.0
C3604 C 0.85226 0.36675 0.50393 0.0
H3605 H 0.86806 0.41238 0.52366 0.0
C3606 C 0.87039 0.36131 0.49374 0.0
C3607 C 0.85148 0.38526 0.515 0.0
C3608 C 0.83247 0.39155 0.52649 0.0
C3609 C 0.88757 0.37427 0.49371 0.0
C3610 C 0.88678 0.39294 0.50469 0.0
C3611 C 0.86873 0.3981 0.51526 0.0
C3612 C 0.90402 0.40788 0.50454 0.0
C3613 C 0.90602 0.36825 0.48116 0.0
C3614 C 0.92378 0.40242 0.51113 0.0
C3615 C 0.93978 0.41673 0.51084 0.0
C3616 C 0.93622 0.4369 0.5043 0.0
C3617 C 0.91636 0.44232 0.49791 0.0
C3618 C 0.90051 0.428 0.498 0.0
H3619 H 0.90214 0.35652 0.46947 0.0
H3620 H 0.91273 0.38168 0.47324 0.0
H3621 H 0.91784 0.36168 0.49144 0.0
H3622 H 0.92681 0.38715 0.51673 0.0
H3623 H 0.95481 0.41208 0.51605 0.0
H3624 H 0.1831 0.7018 0.50979 0.0
H3625 H 0.1547 0.67809 0.51578 0.0
H3626 H 0.18946 0.62953 0.48784 0.0
H3627 H 0.21801 0.65307 0.48203 0.0
H3628 H 0.13417 0.65647 0.48334 0.0
H3629 H 0.16683 0.60369 0.54134 0.0
H3630 H 0.17718 0.62886 0.53668 0.0
H3631 H 0.18286 0.60825 0.51941 0.0
C3632 C 0.18491 0.68595 0.50541 0.0
C3633 C 0.20286 0.67931 0.49549 0.0
C3634 C 0.1686 0.67246 0.50869 0.0
C3635 C 0.17001 0.65202 0.50238 0.0
C3636 C 0.18814 0.64517 0.49309 0.0
H3637 H 0.09276 0.54603 0.49397 0.0
H3638 H 0.12015 0.57128 0.49424 0.0
C3639 C 0.2044 0.65867 0.48967 0.0
C3640 C 0.15204 0.63821 0.50411 0.0
H3641 H 0.13589 0.5933 0.52525 0.0
C3642 C 0.13442 0.64275 0.49266 0.0
C3643 C 0.15248 0.6203 0.51619 0.0
C3644 C 0.17077 0.61499 0.52926 0.0
C3645 C 0.11748 0.62949 0.49237 0.0
C3646 C 0.11797 0.61143 0.50432 0.0
C3647 C 0.13548 0.60712 0.51609 0.0
C3648 C 0.10092 0.59631 0.50415 0.0
C3649 C 0.09962 0.63455 0.47861 0.0
C3650 C 0.08089 0.60188 0.50973 0.0
C3651 C 0.06503 0.58745 0.50941 0.0
C3652 C 0.06897 0.56706 0.50381 0.0
C3653 C 0.08911 0.56154 0.49845 0.0
C3654 C 0.10485 0.57598 0.4986 0.0
H3655 H 0.10391 0.64576 0.46656 0.0
H3656 H 0.09354 0.62062 0.47104 0.0
H3657 H 0.08718 0.64139 0.48794 0.0
H3658 H 0.07754 0.61735 0.51455 0.0
H3659 H 0.04978 0.59221 0.51383 0.0
loop_
_geom_bond_atom_site_label_1
_geom_bond_atom_site_label_2
_geom_bond_distance
_geom_bond_site_symmetry_2
_ccdc_geom_bond_type
P0 O11 1.490 . S
P0 C14 1.812 . S
P0 C20 1.803 . S
P0 C26 1.819 . S
H1 C15 0.941 . S
H2 C16 0.939 . S
H3 C18 0.940 . S
H4 C19 0.940 . S
H5 C21 0.939 . S
H6 C22 0.942 . S
H7 C24 0.940 . S
H8 C25 0.939 . S
H9 C27 0.941 . S
H10 C31 0.939 1_455 S
O11 P0 1.490 . S
H12 C28 0.939 . S
H13 C30 0.940 . S
C14 P0 1.812 . S
C14 C15 1.389 . S
C14 C19 1.391 1_655 S
C15 H1 0.941 . S
C15 C14 1.389 . S
C15 C16 1.397 . S
C16 H2 0.939 . S
C16 C15 1.397 . S
C16 C17 1.378 . S
C17 C16 1.378 . S
C17 C18 1.378 1_655 S
C18 H3 0.940 . S
C18 C17 1.378 1_455 S
C18 C19 1.396 . S
C19 H4 0.940 . S
C19 C14 1.391 1_455 S
C19 C18 1.396 . S
C20 P0 1.803 . S
C20 C21 1.378 . S
C20 C25 1.400 1_655 S
C21 H5 0.939 . S
C21 C20 1.378 . S
C21 C22 1.361 . S
C22 H6 0.942 . S
C22 C21 1.361 . S
C22 C23 1.369 . S
C23 C22 1.369 . S
C23 C24 1.404 1_655 S
C24 H7 0.940 . S
C24 C23 1.404 1_455 S
C24 C25 1.389 . S
C25 H8 0.939 . S
C25 C20 1.400 1_455 S
C25 C24 1.389 . S
C26 P0 1.819 . S
C26 C27 1.391 . S
C26 C31 1.391 . S
C27 H9 0.941 . S
C27 C26 1.391 . S
C27 C28 1.396 . S
C28 H12 0.939 . S
C28 C27 1.396 . S
C28 C29 1.397 . S
C29 C28 1.397 . S
C29 C30 1.385 1_655 S
C30 H13 0.940 . S
C30 C29 1.385 1_455 S
C30 C31 1.388 1_455 S
C31 H10 0.939 1_655 S
C31 C26 1.391 . S
C31 C30 1.388 1_655 S
P32 O43 1.490 . S
P32 C46 1.812 . S
P32 C52 1.803 . S
P32 C58 1.819 . S
H33 C47 0.941 . S
H34 C48 0.939 . S
H35 C50 0.940 . S
H36 C51 0.940 . S
H37 C53 0.939 . S
H38 C54 0.942 . S
H39 C56 0.940 . S
H40 C57 0.939 . S
H41 C59 0.941 . S
H42 C63 0.939 1_545 S
O43 P32 1.490 . S
H44 C60 0.939 . S
H45 C62 0.940 . S
C46 P32 1.812 . S
C46 C47 1.389 . S
C46 C51 1.391 1_565 S
C47 H33 0.941 . S
C47 C46 1.389 . S
C47 C48 1.397 . S
C48 H34 0.939 . S
C48 C47 1.397 . S
C48 C49 1.378 . S
C49 C48 1.378 . S
C49 C50 1.378 1_565 S
C50 H35 0.940 . S
C50 C49 1.378 1_545 S
C50 C51 1.396 . S
C51 H36 0.940 . S
C51 C46 1.391 1_545 S
C51 C50 1.396 . S
C52 P32 1.803 . S
C52 C53 1.378 . S
C52 C57 1.400 1_565 S
C53 H37 0.939 . S
C53 C52 1.378 . S
C53 C54 1.361 . S
C54 H38 0.942 . S
C54 C53 1.361 . S
C54 C55 1.369 . S
C55 C54 1.369 . S
C55 C56 1.404 1_565 S
C56 H39 0.940 . S
C56 C55 1.404 1_545 S
C56 C57 1.389 . S
C57 H40 0.939 . S
C57 C52 1.400 1_545 S
C57 C56 1.389 . S
C58 P32 1.819 . S
C58 C59 1.391 . S
C58 C63 1.391 . S
C59 H41 0.941 . S
C59 C58 1.391 . S
C59 C60 1.396 . S
C60 H44 0.939 . S
C60 C59 1.396 . S
C60 C61 1.397 . S
C61 C60 1.397 . S
C61 C62 1.385 1_565 S
C62 H45 0.940 . S
C62 C61 1.385 1_545 S
C62 C63 1.388 1_545 S
C63 H42 0.939 1_565 S
C63 C58 1.391 . S
C63 C62 1.388 1_565 S
P64 O75 1.490 . S
P64 C78 1.812 . S
P64 C84 1.803 . S
P64 C90 1.819 . S
H65 C79 0.941 . S
H66 C80 0.939 . S
H67 C82 0.940 . S
H68 C83 0.940 1_655 S
H69 C85 0.939 . S
H70 C86 0.942 . S
H71 C88 0.940 . S
H72 C89 0.939 1_655 S
H73 C91 0.941 . S
H74 C95 0.939 . S
O75 P64 1.490 . S
H76 C92 0.939 . S
H77 C94 0.940 . S
C78 P64 1.812 . S
C78 C79 1.389 . S
C78 C83 1.391 . S
C79 H65 0.941 . S
C79 C78 1.389 . S
C79 C80 1.397 . S
C80 H66 0.939 . S
C80 C79 1.397 . S
C80 C81 1.378 . S
C81 C80 1.378 . S
C81 C82 1.378 1_455 S
C82 H67 0.940 . S
C82 C81 1.378 1_655 S
C82 C83 1.396 1_655 S
C83 H68 0.940 1_455 S
C83 C78 1.391 . S
C83 C82 1.396 1_455 S
C84 P64 1.803 . S
C84 C85 1.378 . S
C84 C89 1.400 . S
C85 H69 0.939 . S
C85 C84 1.378 . S
C85 C86 1.361 . S
C86 H70 0.942 . S
C86 C85 1.361 . S
C86 C87 1.369 . S
C87 C86 1.369 . S
C87 C88 1.404 1_455 S
C88 H71 0.940 . S
C88 C87 1.404 1_655 S
C88 C89 1.389 1_655 S
C89 H72 0.939 1_455 S
C89 C84 1.400 . S
C89 C88 1.389 1_455 S
C90 P64 1.819 . S
C90 C91 1.391 . S
C90 C95 1.391 . S
C91 H73 0.941 . S
C91 C90 1.391 . S
C91 C92 1.396 . S
C92 H76 0.939 . S
C92 C91 1.396 . S
C92 C93 1.397 . S
C93 C92 1.397 . S
C93 C94 1.385 1_455 S
C94 H77 0.940 . S
C94 C93 1.385 1_655 S
C94 C95 1.388 1_655 S
C95 H74 0.939 . S
C95 C90 1.391 . S
C95 C94 1.388 1_455 S
P96 O107 1.490 . S
P96 C110 1.812 . S
P96 C116 1.803 . S
P96 C122 1.819 . S
H97 C111 0.941 . S
H98 C112 0.939 . S
H99 C114 0.940 . S
H100 C115 0.940 . S
H101 C117 0.939 . S
H102 C118 0.942 . S
H103 C120 0.940 . S
H104 C121 0.939 . S
H105 C123 0.941 . S
H106 C127 0.939 1_545 S
O107 P96 1.490 . S
H108 C124 0.939 . S
H109 C126 0.940 . S
C110 P96 1.812 . S
C110 C111 1.389 . S
C110 C115 1.391 1_565 S
C111 H97 0.941 . S
C111 C110 1.389 . S
C111 C112 1.397 . S
C112 H98 0.939 . S
C112 C111 1.397 . S
C112 C113 1.378 . S
C113 C112 1.378 . S
C113 C114 1.378 1_565 S
C114 H99 0.940 . S
C114 C113 1.378 1_545 S
C114 C115 1.396 . S
C115 H100 0.940 . S
C115 C110 1.391 1_545 S
C115 C114 1.396 . S
C116 P96 1.803 . S
C116 C117 1.378 . S
C116 C121 1.400 1_565 S
C117 H101 0.939 . S
C117 C116 1.378 . S
C117 C118 1.361 . S
C118 H102 0.942 . S
C118 C117 1.361 . S
C118 C119 1.369 . S
C119 C118 1.369 . S
C119 C120 1.404 1_565 S
C120 H103 0.940 . S
C120 C119 1.404 1_545 S
C120 C121 1.389 . S
C121 H104 0.939 . S
C121 C116 1.400 1_545 S
C121 C120 1.389 . S
C122 P96 1.819 . S
C122 C123 1.391 . S
C122 C127 1.391 . S
C123 H105 0.941 . S
C123 C122 1.391 . S
C123 C124 1.396 . S
C124 H108 0.939 . S
C124 C123 1.396 . S
C124 C125 1.397 . S
C125 C124 1.397 . S
C125 C126 1.385 1_565 S
C126 H109 0.940 . S
C126 C125 1.385 1_545 S
C126 C127 1.388 1_545 S
C127 H106 0.939 1_565 S
C127 C122 1.391 . S
C127 C126 1.388 1_565 S
P128 O139 1.490 . S
P128 C142 1.812 . S
P128 C148 1.803 . S
P128 C154 1.819 . S
H129 C143 0.941 . S
H130 C144 0.939 . S
H131 C146 0.940 . S
H132 C147 0.940 . S
H133 C149 0.939 . S
H134 C150 0.942 . S
H135 C152 0.940 . S
H136 C153 0.939 . S
H137 C155 0.941 . S
H138 C159 0.939 1_455 S
O139 P128 1.490 . S
H140 C156 0.939 . S
H141 C158 0.940 . S
C142 P128 1.812 . S
C142 C143 1.389 . S
C142 C147 1.391 1_655 S
C143 H129 0.941 . S
C143 C142 1.389 . S
C143 C144 1.397 . S
C144 H130 0.939 . S
C144 C143 1.397 . S
C144 C145 1.378 . S
C145 C144 1.378 . S
C145 C146 1.378 1_655 S
C146 H131 0.940 . S
C146 C145 1.378 1_455 S
C146 C147 1.396 . S
C147 H132 0.940 . S
C147 C142 1.391 1_455 S
C147 C146 1.396 . S
C148 P128 1.803 . S
C148 C149 1.378 . S
C148 C153 1.400 1_655 S
C149 H133 0.939 . S
C149 C148 1.378 . S
C149 C150 1.361 . S
C150 H134 0.942 . S
C150 C149 1.361 . S
C150 C151 1.369 . S
C151 C150 1.369 . S
C151 C152 1.404 1_655 S
C152 H135 0.940 . S
C152 C151 1.404 1_455 S
C152 C153 1.389 . S
C153 H136 0.939 . S
C153 C148 1.400 1_455 S
C153 C152 1.389 . S
C154 P128 1.819 . S
C154 C155 1.391 . S
C154 C159 1.391 . S
C155 H137 0.941 . S
C155 C154 1.391 . S
C155 C156 1.396 . S
C156 H140 0.939 . S
C156 C155 1.396 . S
C156 C157 1.397 . S
C157 C156 1.397 . S
C157 C158 1.385 1_655 S
C158 H141 0.940 . S
C158 C157 1.385 1_455 S
C158 C159 1.388 1_455 S
C159 H138 0.939 1_655 S
C159 C154 1.391 . S
C159 C158 1.388 1_655 S
P160 O171 1.490 . S
P160 C174 1.812 . S
P160 C180 1.803 . S
P160 C186 1.819 . S
H161 C175 0.941 . S
H162 C176 0.939 . S
H163 C178 0.940 . S
H164 C179 0.940 . S
H165 C181 0.939 . S
H166 C182 0.942 . S
H167 C184 0.940 . S
H168 C185 0.939 . S
H169 C187 0.941 . S
H170 C191 0.939 1_545 S
O171 P160 1.490 . S
H172 C188 0.939 . S
H173 C190 0.940 . S
C174 P160 1.812 . S
C174 C175 1.389 . S
C174 C179 1.391 1_565 S
C175 H161 0.941 . S
C175 C174 1.389 . S
C175 C176 1.397 . S
C176 H162 0.939 . S
C176 C175 1.397 . S
C176 C177 1.378 . S
C177 C176 1.378 . S
C177 C178 1.378 1_565 S
C178 H163 0.940 . S
C178 C177 1.378 1_545 S
C178 C179 1.396 . S
C179 H164 0.940 . S
C179 C174 1.391 1_545 S
C179 C178 1.396 . S
C180 P160 1.803 . S
C180 C181 1.378 . S
C180 C185 1.400 1_565 S
C181 H165 0.939 . S
C181 C180 1.378 . S
C181 C182 1.361 . S
C182 H166 0.942 . S
C182 C181 1.361 . S
C182 C183 1.369 . S
C183 C182 1.369 . S
C183 C184 1.404 1_565 S
C184 H167 0.940 . S
C184 C183 1.404 1_545 S
C184 C185 1.389 . S
C185 H168 0.939 . S
C185 C180 1.400 1_545 S
C185 C184 1.389 . S
C186 P160 1.819 . S
C186 C187 1.391 . S
C186 C191 1.391 . S
C187 H169 0.941 . S
C187 C186 1.391 . S
C187 C188 1.396 . S
C188 H172 0.939 . S
C188 C187 1.396 . S
C188 C189 1.397 . S
C189 C188 1.397 . S
C189 C190 1.385 1_565 S
C190 H173 0.940 . S
C190 C189 1.385 1_545 S
C190 C191 1.388 1_545 S
C191 H170 0.939 1_565 S
C191 C186 1.391 . S
C191 C190 1.388 1_565 S
P192 O203 1.490 . S
P192 C206 1.812 . S
P192 C212 1.803 . S
P192 C218 1.819 . S
H193 C207 0.941 . S
H194 C208 0.939 . S
H195 C210 0.940 . S
H196 C211 0.940 1_655 S
H197 C213 0.939 . S
H198 C214 0.942 . S
H199 C216 0.940 . S
H200 C217 0.939 1_655 S
H201 C219 0.941 . S
H202 C223 0.939 . S
O203 P192 1.490 . S
H204 C220 0.939 . S
H205 C222 0.940 . S
C206 P192 1.812 . S
C206 C207 1.389 . S
C206 C211 1.391 . S
C207 H193 0.941 . S
C207 C206 1.389 . S
C207 C208 1.397 . S
C208 H194 0.939 . S
C208 C207 1.397 . S
C208 C209 1.378 . S
C209 C208 1.378 . S
C209 C210 1.378 1_455 S
C210 H195 0.940 . S
C210 C209 1.378 1_655 S
C210 C211 1.396 1_655 S
C211 H196 0.940 1_455 S
C211 C206 1.391 . S
C211 C210 1.396 1_455 S
C212 P192 1.803 . S
C212 C213 1.378 . S
C212 C217 1.400 . S
C213 H197 0.939 . S
C213 C212 1.378 . S
C213 C214 1.361 . S
C214 H198 0.942 . S
C214 C213 1.361 . S
C214 C215 1.369 . S
C215 C214 1.369 . S
C215 C216 1.404 1_455 S
C216 H199 0.940 . S
C216 C215 1.404 1_655 S
C216 C217 1.389 1_655 S
C217 H200 0.939 1_455 S
C217 C212 1.400 . S
C217 C216 1.389 1_455 S
C218 P192 1.819 . S
C218 C219 1.391 . S
C218 C223 1.391 . S
C219 H201 0.941 . S
C219 C218 1.391 . S
C219 C220 1.396 . S
C220 H204 0.939 . S
C220 C219 1.396 . S
C220 C221 1.397 . S
C221 C220 1.397 . S
C221 C222 1.385 1_455 S
C222 H205 0.940 . S
C222 C221 1.385 1_655 S
C222 C223 1.388 1_655 S
C223 H202 0.939 . S
C223 C218 1.391 . S
C223 C222 1.388 1_455 S
P224 O235 1.490 . S
P224 C238 1.812 . S
P224 C244 1.803 . S
P224 C250 1.819 . S
H225 C239 0.941 . S
H226 C240 0.939 . S
H227 C242 0.940 . S
H228 C243 0.919 1_565 S
H229 C245 0.939 . S
H230 C246 0.942 . S
H231 C248 0.940 . S
H232 C249 0.928 1_565 S
H233 C251 0.941 . S
H234 C255 0.948 . S
O235 P224 1.490 . S
H236 C252 0.939 . S
H237 C254 0.940 . S
C238 P224 1.812 . S
C238 C239 1.389 . S
C238 C243 1.426 . S
C239 H225 0.941 . S
C239 C238 1.389 . S
C239 C240 1.397 . S
C240 H226 0.939 . S
C240 C239 1.397 . S
C240 C241 1.378 . S
C241 C240 1.378 . S
C241 C242 1.378 1_545 S
C242 H227 0.940 . S
C242 C241 1.378 1_565 S
C242 C243 1.384 1_565 S
C243 H228 0.919 1_545 S
C243 C238 1.426 . S
C243 C242 1.384 1_545 S
C244 P224 1.803 . S
C244 C245 1.378 . S
C244 C249 1.418 . S
C245 H229 0.939 . S
C245 C244 1.378 . S
C245 C246 1.361 . S
C246 H230 0.942 . S
C246 C245 1.361 . S
C246 C247 1.369 . S
C247 C246 1.369 . S
C247 C248 1.404 1_545 S
C248 H231 0.940 . S
C248 C247 1.404 1_565 S
C248 C249 1.382 1_565 S
C249 H232 0.928 1_545 S
C249 C244 1.418 . S
C249 C248 1.382 1_545 S
C250 P224 1.819 . S
C250 C251 1.391 . S
C250 C255 1.391 . S
C251 H233 0.941 . S
C251 C250 1.391 . S
C251 C252 1.396 . S
C252 H236 0.939 . S
C252 C251 1.396 . S
C252 C253 1.397 . S
C253 C252 1.397 . S
C253 C254 1.385 1_545 S
C254 H237 0.940 . S
C254 C253 1.385 1_565 S
C254 C255 1.388 1_565 S
C255 H234 0.948 . S
C255 C250 1.391 . S
C255 C254 1.388 1_545 S
P256 O267 1.490 . S
P256 C270 1.812 . S
P256 C276 1.803 . S
P256 C282 1.819 . S
H257 C271 0.941 . S
H258 C272 0.939 . S
H259 C274 0.940 . S
H260 C275 0.959 . S
H261 C277 0.939 . S
H262 C278 0.942 . S
H263 C280 0.940 . S
H264 C281 0.969 . S
H265 C283 0.941 . S
H266 C287 0.924 1_554 S
O267 P256 1.490 . S
H268 C284 0.939 . S
H269 C286 0.940 . S
C270 P256 1.812 . S
C270 C271 1.389 . S
C270 C275 1.362 1_556 S
C271 H257 0.941 . S
C271 C270 1.389 . S
C271 C272 1.397 . S
C272 H258 0.939 . S
C272 C271 1.397 . S
C272 C273 1.378 . S
C273 C272 1.378 . S
C273 C274 1.378 1_556 S
C274 H259 0.940 . S
C274 C273 1.378 1_554 S
C274 C275 1.408 . S
C275 H260 0.959 . S
C275 C270 1.362 1_554 S
C275 C274 1.408 . S
C276 P256 1.803 . S
C276 C277 1.378 . S
C276 C281 1.354 1_556 S
C277 H261 0.939 . S
C277 C276 1.378 . S
C277 C278 1.361 . S
C278 H262 0.942 . S
C278 C277 1.361 . S
C278 C279 1.369 . S
C279 C278 1.369 . S
C279 C280 1.404 1_556 S
C280 H263 0.940 . S
C280 C279 1.404 1_554 S
C280 C281 1.408 . S
C281 H264 0.969 . S
C281 C276 1.354 1_554 S
C281 C280 1.408 . S
C282 P256 1.819 . S
C282 C283 1.391 . S
C282 C287 1.391 . S
C283 H265 0.941 . S
C283 C282 1.391 . S
C283 C284 1.396 . S
C284 H268 0.939 . S
C284 C283 1.396 . S
C284 C285 1.397 . S
C285 C284 1.397 . S
C285 C286 1.385 1_556 S
C286 H269 0.940 . S
C286 C285 1.385 1_554 S
C286 C287 1.388 1_554 S
C287 H266 0.924 1_556 S
C287 C282 1.391 . S
C287 C286 1.388 1_556 S
P288 O299 1.490 . S
P288 C302 1.812 . S
P288 C308 1.803 . S
P288 C314 1.819 . S
H289 C303 0.941 . S
H290 C304 0.939 . S
H291 C306 0.940 . S
H292 C307 0.960 . S
H293 C309 0.939 . S
H294 C310 0.942 . S
H295 C312 0.940 . S
H296 C313 0.968 . S
H297 C315 0.941 . S
H298 C319 0.924 1_554 S
O299 P288 1.490 . S
H300 C316 0.939 . S
H301 C318 0.940 . S
C302 P288 1.812 . S
C302 C303 1.389 . S
C302 C307 1.360 1_556 S
C303 H289 0.941 . S
C303 C302 1.389 . S
C303 C304 1.397 . S
C304 H290 0.939 . S
C304 C303 1.397 . S
C304 C305 1.378 . S
C305 C304 1.378 . S
C305 C306 1.378 1_556 S
C306 H291 0.940 . S
C306 C305 1.378 1_554 S
C306 C307 1.409 . S
C307 H292 0.960 . S
C307 C302 1.360 1_554 S
C307 C306 1.409 . S
C308 P288 1.803 . S
C308 C309 1.378 . S
C308 C313 1.355 1_556 S
C309 H293 0.939 . S
C309 C308 1.378 . S
C309 C310 1.361 . S
C310 H294 0.942 . S
C310 C309 1.361 . S
C310 C311 1.369 . S
C311 C310 1.369 . S
C311 C312 1.404 1_556 S
C312 H295 0.940 . S
C312 C311 1.404 1_554 S
C312 C313 1.408 . S
C313 H296 0.968 . S
C313 C308 1.355 1_554 S
C313 C312 1.408 . S
C314 P288 1.819 . S
C314 C315 1.391 . S
C314 C319 1.391 . S
C315 H297 0.941 . S
C315 C314 1.391 . S
C315 C316 1.396 . S
C316 H300 0.939 . S
C316 C315 1.396 . S
C316 C317 1.397 . S
C317 C316 1.397 . S
C317 C318 1.385 1_556 S
C318 H301 0.940 . S
C318 C317 1.385 1_554 S
C318 C319 1.388 1_554 S
C319 H298 0.924 1_556 S
C319 C314 1.391 . S
C319 C318 1.388 1_556 S
P320 O331 1.490 . S
P320 C334 1.812 . S
P320 C340 1.803 . S
P320 C346 1.819 . S
H321 C335 0.941 . S
H322 C336 0.939 . S
H323 C338 0.940 . S
H324 C339 0.957 . S
H325 C341 0.939 . S
H326 C342 0.942 . S
H327 C344 0.940 . S
H328 C345 0.965 . S
H329 C347 0.941 . S
H330 C351 0.926 1_554 S
O331 P320 1.490 . S
H332 C348 0.939 . S
H333 C350 0.940 . S
C334 P320 1.812 . S
C334 C335 1.389 . S
C334 C339 1.365 1_556 S
C335 H321 0.941 . S
C335 C334 1.389 . S
C335 C336 1.397 . S
C336 H322 0.939 . S
C336 C335 1.397 . S
C336 C337 1.378 . S
C337 C336 1.378 . S
C337 C338 1.378 1_556 S
C338 H323 0.940 . S
C338 C337 1.378 1_554 S
C338 C339 1.407 . S
C339 H324 0.957 . S
C339 C334 1.365 1_554 S
C339 C338 1.407 . S
C340 P320 1.803 . S
C340 C341 1.378 . S
C340 C345 1.360 1_556 S
C341 H325 0.939 . S
C341 C340 1.378 . S
C341 C342 1.361 . S
C342 H326 0.942 . S
C342 C341 1.361 . S
C342 C343 1.369 . S
C343 C342 1.369 . S
C343 C344 1.404 1_556 S
C344 H327 0.940 . S
C344 C343 1.404 1_554 S
C344 C345 1.405 . S
C345 H328 0.965 . S
C345 C340 1.360 1_554 S
C345 C344 1.405 . S
C346 P320 1.819 . S
C346 C347 1.391 . S
C346 C351 1.391 . S
C347 H329 0.941 . S
C347 C346 1.391 . S
C347 C348 1.396 . S
C348 H332 0.939 . S
C348 C347 1.396 . S
C348 C349 1.397 . S
C349 C348 1.397 . S
C349 C350 1.385 1_556 S
C350 H333 0.940 . S
C350 C349 1.385 1_554 S
C350 C351 1.388 1_554 S
C351 H330 0.926 1_556 S
C351 C346 1.391 . S
C351 C350 1.388 1_556 S
P352 O363 1.490 . S
P352 C366 1.812 . S
P352 C372 1.803 . S
P352 C378 1.819 . S
H353 C367 0.941 . S
H354 C368 0.939 . S
H355 C370 0.940 . S
H356 C371 0.936 . S
H357 C373 0.939 . S
H358 C374 0.942 . S
H359 C376 0.940 . S
H360 C377 0.946 . S
H361 C379 0.941 . S
H362 C383 0.937 1_556 S
O363 P352 1.490 . S
H364 C380 0.939 . S
H365 C382 0.940 . S
C366 P352 1.812 . S
C366 C367 1.389 . S
C366 C371 1.397 1_554 S
C367 H353 0.941 . S
C367 C366 1.389 . S
C367 C368 1.397 . S
C368 H354 0.939 . S
C368 C367 1.397 . S
C368 C369 1.378 . S
C369 C368 1.378 . S
C369 C370 1.378 1_554 S
C370 H355 0.940 . S
C370 C369 1.378 1_556 S
C370 C371 1.394 . S
C371 H356 0.936 . S
C371 C366 1.397 1_556 S
C371 C370 1.394 . S
C372 P352 1.803 . S
C372 C373 1.378 . S
C372 C377 1.389 1_554 S
C373 H357 0.939 . S
C373 C372 1.378 . S
C373 C374 1.361 . S
C374 H358 0.942 . S
C374 C373 1.361 . S
C374 C375 1.369 . S
C375 C374 1.369 . S
C375 C376 1.404 1_554 S
C376 H359 0.940 . S
C376 C375 1.404 1_556 S
C376 C377 1.393 . S
C377 H360 0.946 . S
C377 C372 1.389 1_556 S
C377 C376 1.393 . S
C378 P352 1.819 . S
C378 C379 1.391 . S
C378 C383 1.391 . S
C379 H361 0.941 . S
C379 C378 1.391 . S
C379 C380 1.396 . S
C380 H364 0.939 . S
C380 C379 1.396 . S
C380 C381 1.397 . S
C381 C380 1.397 . S
C381 C382 1.385 1_554 S
C382 H365 0.940 . S
C382 C381 1.385 1_556 S
C382 C383 1.388 1_556 S
C383 H362 0.937 1_554 S
C383 C378 1.391 . S
C383 C382 1.388 1_554 S
P384 O395 1.490 . S
P384 C398 1.812 . S
P384 C404 1.803 . S
P384 C410 1.819 . S
H385 C399 0.941 . S
H386 C400 0.939 . S
H387 C402 0.940 . S
H388 C403 0.940 . S
H389 C405 0.939 . S
H390 C406 0.942 . S
H391 C408 0.940 . S
H392 C409 0.939 . S
H393 C411 0.941 . S
H394 C415 0.939 . S
O395 P384 1.490 . S
H396 C412 0.939 . S
H397 C414 0.940 . S
C398 P384 1.812 . S
C398 C399 1.389 . S
C398 C403 1.391 . S
C399 H385 0.941 . S
C399 C398 1.389 . S
C399 C400 1.397 . S
C400 H386 0.939 . S
C400 C399 1.397 . S
C400 C401 1.378 . S
C401 C400 1.378 . S
C401 C402 1.378 . S
C402 H387 0.940 . S
C402 C401 1.378 . S
C402 C403 1.396 . S
C403 H388 0.940 . S
C403 C398 1.391 . S
C403 C402 1.396 . S
C404 P384 1.803 . S
C404 C405 1.378 . S
C404 C409 1.400 . S
C405 H389 0.939 . S
C405 C404 1.378 . S
C405 C406 1.361 . S
C406 H390 0.942 . S
C406 C405 1.361 . S
C406 C407 1.369 . S
C407 C406 1.369 . S
C407 C408 1.404 . S
C408 H391 0.940 . S
C408 C407 1.404 . S
C408 C409 1.389 . S
C409 H392 0.939 . S
C409 C404 1.400 . S
C409 C408 1.389 . S
C410 P384 1.819 . S
C410 C411 1.391 . S
C410 C415 1.391 . S
C411 H393 0.941 . S
C411 C410 1.391 . S
C411 C412 1.396 . S
C412 H396 0.939 . S
C412 C411 1.396 . S
C412 C413 1.397 . S
C413 C412 1.397 . S
C413 C414 1.385 . S
C414 H397 0.940 . S
C414 C413 1.385 . S
C414 C415 1.388 . S
C415 H394 0.939 . S
C415 C410 1.391 . S
C415 C414 1.388 . S
P416 O427 1.490 . S
P416 C430 1.812 . S
P416 C436 1.803 . S
P416 C442 1.819 . S
H417 C431 0.941 . S
H418 C432 0.939 . S
H419 C434 0.940 . S
H420 C435 0.940 . S
H421 C437 0.939 . S
H422 C438 0.942 . S
H423 C440 0.940 . S
H424 C441 0.939 . S
H425 C443 0.941 . S
H426 C447 0.939 . S
O427 P416 1.490 . S
H428 C444 0.939 . S
H429 C446 0.940 . S
C430 P416 1.812 . S
C430 C431 1.389 . S
C430 C435 1.391 . S
C431 H417 0.941 . S
C431 C430 1.389 . S
C431 C432 1.397 . S
C432 H418 0.939 . S
C432 C431 1.397 . S
C432 C433 1.378 . S
C433 C432 1.378 . S
C433 C434 1.378 . S
C434 H419 0.940 . S
C434 C433 1.378 . S
C434 C435 1.396 . S
C435 H420 0.940 . S
C435 C430 1.391 . S
C435 C434 1.396 . S
C436 P416 1.803 . S
C436 C437 1.378 . S
C436 C441 1.400 . S
C437 H421 0.939 . S
C437 C436 1.378 . S
C437 C438 1.361 . S
C438 H422 0.942 . S
C438 C437 1.361 . S
C438 C439 1.369 . S
C439 C438 1.369 . S
C439 C440 1.404 . S
C440 H423 0.940 . S
C440 C439 1.404 . S
C440 C441 1.389 . S
C441 H424 0.939 . S
C441 C436 1.400 . S
C441 C440 1.389 . S
C442 P416 1.819 . S
C442 C443 1.391 . S
C442 C447 1.391 . S
C443 H425 0.941 . S
C443 C442 1.391 . S
C443 C444 1.396 . S
C444 H428 0.939 . S
C444 C443 1.396 . S
C444 C445 1.397 . S
C445 C444 1.397 . S
C445 C446 1.385 . S
C446 H429 0.940 . S
C446 C445 1.385 . S
C446 C447 1.388 . S
C447 H426 0.939 . S
C447 C442 1.391 . S
C447 C446 1.388 . S
P448 O459 1.490 . S
P448 C462 1.812 . S
P448 C468 1.803 . S
P448 C474 1.819 . S
H449 C463 0.941 . S
H450 C464 0.939 . S
H451 C466 0.940 . S
H452 C467 0.940 . S
H453 C469 0.939 . S
H454 C470 0.942 . S
H455 C472 0.940 . S
H456 C473 0.939 . S
H457 C475 0.941 . S
H458 C479 0.939 . S
O459 P448 1.490 . S
H460 C476 0.939 . S
H461 C478 0.940 . S
C462 P448 1.812 . S
C462 C463 1.389 . S
C462 C467 1.391 . S
C463 H449 0.941 . S
C463 C462 1.389 . S
C463 C464 1.397 . S
C464 H450 0.939 . S
C464 C463 1.397 . S
C464 C465 1.378 . S
C465 C464 1.378 . S
C465 C466 1.378 . S
C466 H451 0.940 . S
C466 C465 1.378 . S
C466 C467 1.396 . S
C467 H452 0.940 . S
C467 C462 1.391 . S
C467 C466 1.396 . S
C468 P448 1.803 . S
C468 C469 1.378 . S
C468 C473 1.400 . S
C469 H453 0.939 . S
C469 C468 1.378 . S
C469 C470 1.361 . S
C470 H454 0.942 . S
C470 C469 1.361 . S
C470 C471 1.369 . S
C471 C470 1.369 . S
C471 C472 1.404 . S
C472 H455 0.940 . S
C472 C471 1.404 . S
C472 C473 1.389 . S
C473 H456 0.939 . S
C473 C468 1.400 . S
C473 C472 1.389 . S
C474 P448 1.819 . S
C474 C475 1.391 . S
C474 C479 1.391 . S
C475 H457 0.941 . S
C475 C474 1.391 . S
C475 C476 1.396 . S
C476 H460 0.939 . S
C476 C475 1.396 . S
C476 C477 1.397 . S
C477 C476 1.397 . S
C477 C478 1.385 . S
C478 H461 0.940 . S
C478 C477 1.385 . S
C478 C479 1.388 . S
C479 H458 0.939 . S
C479 C474 1.391 . S
C479 C478 1.388 . S
P480 O491 1.490 . S
P480 C494 1.812 . S
P480 C500 1.803 . S
P480 C506 1.819 . S
H481 C495 0.941 . S
H482 C496 0.939 . S
H483 C498 0.940 . S
H484 C499 0.940 . S
H485 C501 0.939 . S
H486 C502 0.942 . S
H487 C504 0.940 . S
H488 C505 0.939 . S
H489 C507 0.941 . S
H490 C511 0.939 . S
O491 P480 1.490 . S
H492 C508 0.939 . S
H493 C510 0.940 . S
C494 P480 1.812 . S
C494 C495 1.389 . S
C494 C499 1.391 . S
C495 H481 0.941 . S
C495 C494 1.389 . S
C495 C496 1.397 . S
C496 H482 0.939 . S
C496 C495 1.397 . S
C496 C497 1.378 . S
C497 C496 1.378 . S
C497 C498 1.378 . S
C498 H483 0.940 . S
C498 C497 1.378 . S
C498 C499 1.396 . S
C499 H484 0.940 . S
C499 C494 1.391 . S
C499 C498 1.396 . S
C500 P480 1.803 . S
C500 C501 1.378 . S
C500 C505 1.400 . S
C501 H485 0.939 . S
C501 C500 1.378 . S
C501 C502 1.361 . S
C502 H486 0.942 . S
C502 C501 1.361 . S
C502 C503 1.369 . S
C503 C502 1.369 . S
C503 C504 1.404 . S
C504 H487 0.940 . S
C504 C503 1.404 . S
C504 C505 1.389 . S
C505 H488 0.939 . S
C505 C500 1.400 . S
C505 C504 1.389 . S
C506 P480 1.819 . S
C506 C507 1.391 . S
C506 C511 1.391 . S
C507 H489 0.941 . S
C507 C506 1.391 . S
C507 C508 1.396 . S
C508 H492 0.939 . S
C508 C507 1.396 . S
C508 C509 1.397 . S
C509 C508 1.397 . S
C509 C510 1.385 . S
C510 H493 0.940 . S
C510 C509 1.385 . S
C510 C511 1.388 . S
C511 H490 0.939 . S
C511 C506 1.391 . S
C511 C510 1.388 . S
P512 O523 1.490 . S
P512 C526 1.812 . S
P512 C532 1.803 . S
P512 C538 1.819 . S
H513 C527 0.941 . S
H514 C528 0.939 . S
H515 C530 0.940 . S
H516 C531 0.940 . S
H517 C533 0.939 . S
H518 C534 0.942 . S
H519 C536 0.940 . S
H520 C537 0.939 . S
H521 C539 0.941 . S
H522 C543 0.939 . S
O523 P512 1.490 . S
H524 C540 0.939 . S
H525 C542 0.940 . S
C526 P512 1.812 . S
C526 C527 1.389 . S
C526 C531 1.391 . S
C527 H513 0.941 . S
C527 C526 1.389 . S
C527 C528 1.397 . S
C528 H514 0.939 . S
C528 C527 1.397 . S
C528 C529 1.378 . S
C529 C528 1.378 . S
C529 C530 1.378 . S
C530 H515 0.940 . S
C530 C529 1.378 . S
C530 C531 1.396 . S
C531 H516 0.940 . S
C531 C526 1.391 . S
C531 C530 1.396 . S
C532 P512 1.803 . S
C532 C533 1.378 . S
C532 C537 1.400 . S
C533 H517 0.939 . S
C533 C532 1.378 . S
C533 C534 1.361 . S
C534 H518 0.942 . S
C534 C533 1.361 . S
C534 C535 1.369 . S
C535 C534 1.369 . S
C535 C536 1.404 . S
C536 H519 0.940 . S
C536 C535 1.404 . S
C536 C537 1.389 . S
C537 H520 0.939 . S
C537 C532 1.400 . S
C537 C536 1.389 . S
C538 P512 1.819 . S
C538 C539 1.391 . S
C538 C543 1.391 . S
C539 H521 0.941 . S
C539 C538 1.391 . S
C539 C540 1.396 . S
C540 H524 0.939 . S
C540 C539 1.396 . S
C540 C541 1.397 . S
C541 C540 1.397 . S
C541 C542 1.385 . S
C542 H525 0.940 . S
C542 C541 1.385 . S
C542 C543 1.388 . S
C543 H522 0.939 . S
C543 C538 1.391 . S
C543 C542 1.388 . S
P544 O555 1.490 . S
P544 C558 1.812 . S
P544 C564 1.803 . S
P544 C570 1.819 . S
H545 C559 0.941 . S
H546 C560 0.939 . S
H547 C562 0.940 . S
H548 C563 0.940 . S
H549 C565 0.939 . S
H550 C566 0.942 . S
H551 C568 0.940 . S
H552 C569 0.939 . S
H553 C571 0.941 . S
H554 C575 0.939 . S
O555 P544 1.490 . S
H556 C572 0.939 . S
H557 C574 0.940 . S
C558 P544 1.812 . S
C558 C559 1.389 . S
C558 C563 1.391 . S
C559 H545 0.941 . S
C559 C558 1.389 . S
C559 C560 1.397 . S
C560 H546 0.939 . S
C560 C559 1.397 . S
C560 C561 1.378 . S
C561 C560 1.378 . S
C561 C562 1.378 . S
C562 H547 0.940 . S
C562 C561 1.378 . S
C562 C563 1.396 . S
C563 H548 0.940 . S
C563 C558 1.391 . S
C563 C562 1.396 . S
C564 P544 1.803 . S
C564 C565 1.378 . S
C564 C569 1.400 . S
C565 H549 0.939 . S
C565 C564 1.378 . S
C565 C566 1.361 . S
C566 H550 0.942 . S
C566 C565 1.361 . S
C566 C567 1.369 . S
C567 C566 1.369 . S
C567 C568 1.404 . S
C568 H551 0.940 . S
C568 C567 1.404 . S
C568 C569 1.389 . S
C569 H552 0.939 . S
C569 C564 1.400 . S
C569 C568 1.389 . S
C570 P544 1.819 . S
C570 C571 1.391 . S
C570 C575 1.391 . S
C571 H553 0.941 . S
C571 C570 1.391 . S
C571 C572 1.396 . S
C572 H556 0.939 . S
C572 C571 1.396 . S
C572 C573 1.397 . S
C573 C572 1.397 . S
C573 C574 1.385 . S
C574 H557 0.940 . S
C574 C573 1.385 . S
C574 C575 1.388 . S
C575 H554 0.939 . S
C575 C570 1.391 . S
C575 C574 1.388 . S
P576 O587 1.490 . S
P576 C590 1.812 . S
P576 C596 1.803 . S
P576 C602 1.819 . S
H577 C591 0.941 . S
H578 C592 0.939 . S
H579 C594 0.940 . S
H580 C595 0.940 . S
H581 C597 0.939 . S
H582 C598 0.942 . S
H583 C600 0.940 . S
H584 C601 0.939 . S
H585 C603 0.941 . S
H586 C607 0.939 . S
O587 P576 1.490 . S
H588 C604 0.939 . S
H589 C606 0.940 . S
C590 P576 1.812 . S
C590 C591 1.389 . S
C590 C595 1.391 . S
C591 H577 0.941 . S
C591 C590 1.389 . S
C591 C592 1.397 . S
C592 H578 0.939 . S
C592 C591 1.397 . S
C592 C593 1.378 . S
C593 C592 1.378 . S
C593 C594 1.378 . S
C594 H579 0.940 . S
C594 C593 1.378 . S
C594 C595 1.396 . S
C595 H580 0.940 . S
C595 C590 1.391 . S
C595 C594 1.396 . S
C596 P576 1.803 . S
C596 C597 1.378 . S
C596 C601 1.400 . S
C597 H581 0.939 . S
C597 C596 1.378 . S
C597 C598 1.361 . S
C598 H582 0.942 . S
C598 C597 1.361 . S
C598 C599 1.369 . S
C599 C598 1.369 . S
C599 C600 1.404 . S
C600 H583 0.940 . S
C600 C599 1.404 . S
C600 C601 1.389 . S
C601 H584 0.939 . S
C601 C596 1.400 . S
C601 C600 1.389 . S
C602 P576 1.819 . S
C602 C603 1.391 . S
C602 C607 1.391 . S
C603 H585 0.941 . S
C603 C602 1.391 . S
C603 C604 1.396 . S
C604 H588 0.939 . S
C604 C603 1.396 . S
C604 C605 1.397 . S
C605 C604 1.397 . S
C605 C606 1.385 . S
C606 H589 0.940 . S
C606 C605 1.385 . S
C606 C607 1.388 . S
C607 H586 0.939 . S
C607 C602 1.391 . S
C607 C606 1.388 . S
P608 O619 1.490 . S
P608 C622 1.812 . S
P608 C628 1.803 . S
P608 C634 1.819 . S
H609 C623 0.941 . S
H610 C624 0.939 . S
H611 C626 0.940 . S
H612 C627 0.940 . S
H613 C629 0.939 . S
H614 C630 0.942 . S
H615 C632 0.940 . S
H616 C633 0.939 . S
H617 C635 0.941 . S
H618 C639 0.939 . S
O619 P608 1.490 . S
H620 C636 0.939 . S
H621 C638 0.940 . S
C622 P608 1.812 . S
C622 C623 1.389 . S
C622 C627 1.391 . S
C623 H609 0.941 . S
C623 C622 1.389 . S
C623 C624 1.397 . S
C624 H610 0.939 . S
C624 C623 1.397 . S
C624 C625 1.378 . S
C625 C624 1.378 . S
C625 C626 1.378 . S
C626 H611 0.940 . S
C626 C625 1.378 . S
C626 C627 1.396 . S
C627 H612 0.940 . S
C627 C622 1.391 . S
C627 C626 1.396 . S
C628 P608 1.803 . S
C628 C629 1.378 . S
C628 C633 1.400 . S
C629 H613 0.939 . S
C629 C628 1.378 . S
C629 C630 1.361 . S
C630 H614 0.942 . S
C630 C629 1.361 . S
C630 C631 1.369 . S
C631 C630 1.369 . S
C631 C632 1.404 . S
C632 H615 0.940 . S
C632 C631 1.404 . S
C632 C633 1.389 . S
C633 H616 0.939 . S
C633 C628 1.400 . S
C633 C632 1.389 . S
C634 P608 1.819 . S
C634 C635 1.391 . S
C634 C639 1.391 . S
C635 H617 0.941 . S
C635 C634 1.391 . S
C635 C636 1.396 . S
C636 H620 0.939 . S
C636 C635 1.396 . S
C636 C637 1.397 . S
C637 C636 1.397 . S
C637 C638 1.385 . S
C638 H621 0.940 . S
C638 C637 1.385 . S
C638 C639 1.388 . S
C639 H618 0.939 . S
C639 C634 1.391 . S
C639 C638 1.388 . S
P640 O651 1.490 . S
P640 C654 1.812 . S
P640 C660 1.803 . S
P640 C666 1.819 . S
H641 C655 0.941 . S
H642 C656 0.939 . S
H643 C658 0.940 . S
H644 C659 0.940 . S
H645 C661 0.939 . S
H646 C662 0.942 . S
H647 C664 0.940 . S
H648 C665 0.939 . S
H649 C667 0.941 . S
H650 C671 0.939 . S
O651 P640 1.490 . S
H652 C668 0.939 . S
H653 C670 0.940 . S
C654 P640 1.812 . S
C654 C655 1.389 . S
C654 C659 1.391 . S
C655 H641 0.941 . S
C655 C654 1.389 . S
C655 C656 1.397 . S
C656 H642 0.939 . S
C656 C655 1.397 . S
C656 C657 1.378 . S
C657 C656 1.378 . S
C657 C658 1.378 . S
C658 H643 0.940 . S
C658 C657 1.378 . S
C658 C659 1.396 . S
C659 H644 0.940 . S
C659 C654 1.391 . S
C659 C658 1.396 . S
C660 P640 1.803 . S
C660 C661 1.378 . S
C660 C665 1.400 . S
C661 H645 0.939 . S
C661 C660 1.378 . S
C661 C662 1.361 . S
C662 H646 0.942 . S
C662 C661 1.361 . S
C662 C663 1.369 . S
C663 C662 1.369 . S
C663 C664 1.404 . S
C664 H647 0.940 . S
C664 C663 1.404 . S
C664 C665 1.389 . S
C665 H648 0.939 . S
C665 C660 1.400 . S
C665 C664 1.389 . S
C666 P640 1.819 . S
C666 C667 1.391 . S
C666 C671 1.391 . S
C667 H649 0.941 . S
C667 C666 1.391 . S
C667 C668 1.396 . S
C668 H652 0.939 . S
C668 C667 1.396 . S
C668 C669 1.397 . S
C669 C668 1.397 . S
C669 C670 1.385 . S
C670 H653 0.940 . S
C670 C669 1.385 . S
C670 C671 1.388 . S
C671 H650 0.939 . S
C671 C666 1.391 . S
C671 C670 1.388 . S
P672 O683 1.490 . S
P672 C686 1.812 . S
P672 C692 1.803 . S
P672 C698 1.819 . S
H673 C687 0.941 . S
H674 C688 0.939 . S
H675 C690 0.940 . S
H676 C691 0.940 . S
H677 C693 0.939 . S
H678 C694 0.942 . S
H679 C696 0.940 . S
H680 C697 0.939 . S
H681 C699 0.941 . S
H682 C703 0.939 . S
O683 P672 1.490 . S
H684 C700 0.939 . S
H685 C702 0.940 . S
C686 P672 1.812 . S
C686 C687 1.389 . S
C686 C691 1.391 . S
C687 H673 0.941 . S
C687 C686 1.389 . S
C687 C688 1.397 . S
C688 H674 0.939 . S
C688 C687 1.397 . S
C688 C689 1.378 . S
C689 C688 1.378 . S
C689 C690 1.378 . S
C690 H675 0.940 . S
C690 C689 1.378 . S
C690 C691 1.396 . S
C691 H676 0.940 . S
C691 C686 1.391 . S
C691 C690 1.396 . S
C692 P672 1.803 . S
C692 C693 1.378 . S
C692 C697 1.400 . S
C693 H677 0.939 . S
C693 C692 1.378 . S
C693 C694 1.361 . S
C694 H678 0.942 . S
C694 C693 1.361 . S
C694 C695 1.369 . S
C695 C694 1.369 . S
C695 C696 1.404 . S
C696 H679 0.940 . S
C696 C695 1.404 . S
C696 C697 1.389 . S
C697 H680 0.939 . S
C697 C692 1.400 . S
C697 C696 1.389 . S
C698 P672 1.819 . S
C698 C699 1.391 . S
C698 C703 1.391 . S
C699 H681 0.941 . S
C699 C698 1.391 . S
C699 C700 1.396 . S
C700 H684 0.939 . S
C700 C699 1.396 . S
C700 C701 1.397 . S
C701 C700 1.397 . S
C701 C702 1.385 . S
C702 H685 0.940 . S
C702 C701 1.385 . S
C702 C703 1.388 . S
C703 H682 0.939 . S
C703 C698 1.391 . S
C703 C702 1.388 . S
P704 O715 1.490 . S
P704 C718 1.812 . S
P704 C724 1.803 . S
P704 C730 1.819 . S
H705 C719 0.941 . S
H706 C720 0.939 . S
H707 C722 0.940 . S
H708 C723 0.940 . S
H709 C725 0.939 . S
H710 C726 0.942 . S
H711 C728 0.940 . S
H712 C729 0.939 . S
H713 C731 0.941 . S
H714 C735 0.939 . S
O715 P704 1.490 . S
H716 C732 0.939 . S
H717 C734 0.940 . S
C718 P704 1.812 . S
C718 C719 1.389 . S
C718 C723 1.391 . S
C719 H705 0.941 . S
C719 C718 1.389 . S
C719 C720 1.397 . S
C720 H706 0.939 . S
C720 C719 1.397 . S
C720 C721 1.378 . S
C721 C720 1.378 . S
C721 C722 1.378 . S
C722 H707 0.940 . S
C722 C721 1.378 . S
C722 C723 1.396 . S
C723 H708 0.940 . S
C723 C718 1.391 . S
C723 C722 1.396 . S
C724 P704 1.803 . S
C724 C725 1.378 . S
C724 C729 1.400 . S
C725 H709 0.939 . S
C725 C724 1.378 . S
C725 C726 1.361 . S
C726 H710 0.942 . S
C726 C725 1.361 . S
C726 C727 1.369 . S
C727 C726 1.369 . S
C727 C728 1.404 . S
C728 H711 0.940 . S
C728 C727 1.404 . S
C728 C729 1.389 . S
C729 H712 0.939 . S
C729 C724 1.400 . S
C729 C728 1.389 . S
C730 P704 1.819 . S
C730 C731 1.391 . S
C730 C735 1.391 . S
C731 H713 0.941 . S
C731 C730 1.391 . S
C731 C732 1.396 . S
C732 H716 0.939 . S
C732 C731 1.396 . S
C732 C733 1.397 . S
C733 C732 1.397 . S
C733 C734 1.385 . S
C734 H717 0.940 . S
C734 C733 1.385 . S
C734 C735 1.388 . S
C735 H714 0.939 . S
C735 C730 1.391 . S
C735 C734 1.388 . S
P736 O747 1.490 . S
P736 C750 1.812 . S
P736 C756 1.803 . S
P736 C762 1.819 . S
H737 C751 0.941 . S
H738 C752 0.939 . S
H739 C754 0.940 . S
H740 C755 0.940 . S
H741 C757 0.939 . S
H742 C758 0.942 . S
H743 C760 0.940 . S
H744 C761 0.939 . S
H745 C763 0.941 . S
H746 C767 0.939 . S
O747 P736 1.490 . S
H748 C764 0.939 . S
H749 C766 0.940 . S
C750 P736 1.812 . S
C750 C751 1.389 . S
C750 C755 1.391 . S
C751 H737 0.941 . S
C751 C750 1.389 . S
C751 C752 1.397 . S
C752 H738 0.939 . S
C752 C751 1.397 . S
C752 C753 1.378 . S
C753 C752 1.378 . S
C753 C754 1.378 . S
C754 H739 0.940 . S
C754 C753 1.378 . S
C754 C755 1.396 . S
C755 H740 0.940 . S
C755 C750 1.391 . S
C755 C754 1.396 . S
C756 P736 1.803 . S
C756 C757 1.378 . S
C756 C761 1.400 . S
C757 H741 0.939 . S
C757 C756 1.378 . S
C757 C758 1.361 . S
C758 H742 0.942 . S
C758 C757 1.361 . S
C758 C759 1.369 . S
C759 C758 1.369 . S
C759 C760 1.404 . S
C760 H743 0.940 . S
C760 C759 1.404 . S
C760 C761 1.389 . S
C761 H744 0.939 . S
C761 C756 1.400 . S
C761 C760 1.389 . S
C762 P736 1.819 . S
C762 C763 1.391 . S
C762 C767 1.391 . S
C763 H745 0.941 . S
C763 C762 1.391 . S
C763 C764 1.396 . S
C764 H748 0.939 . S
C764 C763 1.396 . S
C764 C765 1.397 . S
C765 C764 1.397 . S
C765 C766 1.385 . S
C766 H749 0.940 . S
C766 C765 1.385 . S
C766 C767 1.388 . S
C767 H746 0.939 . S
C767 C762 1.391 . S
C767 C766 1.388 . S
C768 O794 1.283 . S
C768 O812 1.283 . S
C769 O795 1.283 . S
C769 O810 1.283 . S
C770 O796 1.283 . S
C770 O813 1.283 . S
C771 O797 1.283 . S
C771 O811 1.283 . S
C772 O798 1.283 . S
C772 O807 1.283 . S
C773 O799 1.283 . S
C773 O809 1.283 . S
C774 O800 1.283 . S
C774 O806 1.283 . S
C775 O801 1.283 . S
C775 O808 1.283 . S
C776 O802 1.283 . S
C776 O817 1.283 . S
C777 O803 1.283 . S
C777 O815 1.283 . S
C778 O804 1.283 . S
C778 O816 1.283 . S
C779 O805 1.283 . S
C779 O814 1.283 . S
Eu780 O781 2.370 1_455 S
Eu780 O782 2.370 . S
Eu780 O785 2.370 1_455 S
Eu780 O786 2.370 . S
Eu780 O794 2.363 . S
Eu780 O795 2.363 . S
Eu780 O808 2.363 . S
Eu780 O809 2.363 1_455 S
O781 Eu780 2.370 1_655 S
O781 Eu783 2.351 1_565 S
O781 Eu788 2.351 1_665 S
O782 Eu780 2.370 . S
O782 Eu784 2.351 1_565 S
O782 Eu787 2.351 1_565 S
Eu783 O781 2.351 1_545 S
Eu783 O785 2.351 1_545 S
Eu783 O789 2.389 . S
Eu783 O790 2.389 . S
Eu783 O798 2.395 . S
Eu783 O799 2.331 1_545 S
Eu783 O814 2.363 . S
Eu783 O815 2.363 . S
Eu784 O782 2.351 1_545 S
Eu784 O786 2.351 1_545 S
Eu784 O791 2.390 . S
Eu784 O792 2.390 . S
Eu784 O800 2.396 . S
Eu784 O801 2.330 1_545 S
Eu784 O816 2.363 . S
Eu784 O817 2.363 . S
O785 Eu780 2.370 1_655 S
O785 Eu783 2.351 1_565 S
O785 Eu787 2.351 1_665 S
O786 Eu780 2.370 . S
O786 Eu784 2.351 1_565 S
O786 Eu788 2.351 1_565 S
Eu787 O782 2.351 1_545 S
Eu787 O785 2.351 1_445 S
Eu787 O789 2.390 1_455 S
Eu787 O792 2.390 . S
Eu787 O804 2.363 . S
Eu787 O805 2.363 1_455 S
Eu787 O812 2.330 1_545 S
Eu787 O813 2.396 . S
Eu788 O781 2.351 1_445 S
Eu788 O786 2.351 1_545 S
Eu788 O790 2.390 1_455 S
Eu788 O791 2.390 . S
Eu788 O802 2.363 . S
Eu788 O803 2.363 1_455 S
Eu788 O810 2.330 1_545 S
Eu788 O811 2.396 . S
O789 Eu783 2.389 . S
O789 Eu787 2.390 1_655 S
O789 Eu793 2.370 1_655 S
O790 Eu783 2.389 . S
O790 Eu788 2.390 1_655 S
O790 Eu793 2.370 1_655 S
O791 Eu784 2.390 . S
O791 Eu788 2.390 . S
O791 Eu793 2.370 . S
O792 Eu784 2.390 . S
O792 Eu787 2.390 . S
O792 Eu793 2.370 . S
Eu793 O789 2.370 1_455 S
Eu793 O790 2.370 1_455 S
Eu793 O791 2.370 . S
Eu793 O792 2.370 . S
Eu793 O796 2.363 . S
Eu793 O797 2.363 . S
Eu793 O806 2.363 . S
Eu793 O807 2.363 1_455 S
O794 C768 1.283 . S
O794 Eu780 2.363 . S
O795 C769 1.283 . S
O795 Eu780 2.363 . S
O796 C770 1.283 . S
O796 Eu793 2.363 . S
O797 C771 1.283 . S
O797 Eu793 2.363 . S
O798 C772 1.283 . S
O798 Eu783 2.395 . S
O799 C773 1.283 . S
O799 Eu783 2.331 1_565 S
O800 C774 1.283 . S
O800 Eu784 2.396 . S
O801 C775 1.283 . S
O801 Eu784 2.330 1_565 S
O802 C776 1.283 . S
O802 Eu788 2.363 . S
O803 C777 1.283 . S
O803 Eu788 2.363 1_655 S
O804 C778 1.283 . S
O804 Eu787 2.363 . S
O805 C779 1.283 . S
O805 Eu787 2.363 1_655 S
O806 C774 1.283 . S
O806 Eu793 2.363 . S
O807 C772 1.283 . S
O807 Eu793 2.363 1_655 S
O808 C775 1.283 . S
O808 Eu780 2.363 . S
O809 C773 1.283 . S
O809 Eu780 2.363 1_655 S
O810 C769 1.283 . S
O810 Eu788 2.330 1_565 S
O811 C771 1.283 . S
O811 Eu788 2.396 . S
O812 C768 1.283 . S
O812 Eu787 2.330 1_565 S
O813 C770 1.283 . S
O813 Eu787 2.396 . S
O814 C779 1.283 . S
O814 Eu783 2.363 . S
O815 C777 1.283 . S
O815 Eu783 2.363 . S
O816 C778 1.283 . S
O816 Eu784 2.363 . S
O817 C776 1.283 . S
O817 Eu784 2.363 . S
C818 O844 1.283 . S
C818 O862 1.283 . S
C819 O845 1.283 . S
C819 O860 1.283 . S
C820 O846 1.283 . S
C820 O863 1.283 . S
C821 O847 1.283 . S
C821 O861 1.283 . S
C822 O848 1.283 . S
C822 O857 1.283 . S
C823 O849 1.283 . S
C823 O859 1.283 . S
C824 O850 1.283 . S
C824 O856 1.283 . S
C825 O851 1.283 . S
C825 O858 1.283 . S
C826 O852 1.283 . S
C826 O867 1.283 . S
C827 O853 1.283 . S
C827 O865 1.283 . S
C828 O854 1.283 . S
C828 O866 1.283 . S
C829 O855 1.283 . S
C829 O864 1.283 . S
Eu830 O831 2.370 . S
Eu830 O832 2.370 1_545 S
Eu830 O835 2.370 1_545 S
Eu830 O836 2.370 . S
Eu830 O844 2.363 1_545 S
Eu830 O845 2.363 . S
Eu830 O858 2.363 . S
Eu830 O859 2.363 . S
O831 Eu830 2.370 . S
O831 Eu833 2.370 . S
O831 Eu838 2.370 . S
O832 Eu830 2.370 1_565 S
O832 Eu834 2.370 1_565 S
O832 Eu837 2.370 . S
Eu833 O831 2.370 . S
Eu833 O835 2.370 1_545 S
Eu833 O839 2.370 1_544 S
Eu833 O840 2.370 1_554 S
Eu833 O848 2.363 1_554 S
Eu833 O849 2.363 . S
Eu833 O864 2.363 1_545 S
Eu833 O865 2.363 . S
Eu834 O832 2.370 1_545 S
Eu834 O836 2.370 . S
Eu834 O841 2.370 1_554 S
Eu834 O842 2.370 1_544 S
Eu834 O850 2.363 1_554 S
Eu834 O851 2.363 . S
Eu834 O866 2.363 1_545 S
Eu834 O867 2.363 . S
O835 Eu830 2.370 1_565 S
O835 Eu833 2.370 1_565 S
O835 Eu837 2.370 . S
O836 Eu830 2.370 . S
O836 Eu834 2.370 . S
O836 Eu838 2.370 . S
Eu837 O832 2.370 . S
Eu837 O835 2.370 . S
Eu837 O839 2.370 1_554 S
Eu837 O842 2.370 1_554 S
Eu837 O854 2.363 . S
Eu837 O855 2.363 . S
Eu837 O862 2.363 . S
Eu837 O863 2.363 1_554 S
Eu838 O831 2.370 . S
Eu838 O836 2.370 . S
Eu838 O840 2.370 1_554 S
Eu838 O841 2.370 1_554 S
Eu838 O852 2.363 . S
Eu838 O853 2.363 . S
Eu838 O860 2.363 . S
Eu838 O861 2.363 1_554 S
O839 Eu833 2.370 1_566 S
O839 Eu837 2.370 1_556 S
O839 Eu843 2.370 1_565 S
O840 Eu833 2.370 1_556 S
O840 Eu838 2.370 1_556 S
O840 Eu843 2.370 . S
O841 Eu834 2.370 1_556 S
O841 Eu838 2.370 1_556 S
O841 Eu843 2.370 . S
O842 Eu834 2.370 1_566 S
O842 Eu837 2.370 1_556 S
O842 Eu843 2.370 1_565 S
Eu843 O839 2.370 1_545 S
Eu843 O840 2.370 . S
Eu843 O841 2.370 . S
Eu843 O842 2.370 1_545 S
Eu843 O846 2.363 1_545 S
Eu843 O847 2.363 . S
Eu843 O856 2.363 . S
Eu843 O857 2.363 . S
O844 C818 1.283 . S
O844 Eu830 2.363 1_565 S
O845 C819 1.283 . S
O845 Eu830 2.363 . S
O846 C820 1.283 . S
O846 Eu843 2.363 1_565 S
O847 C821 1.283 . S
O847 Eu843 2.363 . S
O848 C822 1.283 . S
O848 Eu833 2.363 1_556 S
O849 C823 1.283 . S
O849 Eu833 2.363 . S
O850 C824 1.283 . S
O850 Eu834 2.363 1_556 S
O851 C825 1.283 . S
O851 Eu834 2.363 . S
O852 C826 1.283 . S
O852 Eu838 2.363 . S
O853 C827 1.283 . S
O853 Eu838 2.363 . S
O854 C828 1.283 . S
O854 Eu837 2.363 . S
O855 C829 1.283 . S
O855 Eu837 2.363 . S
O856 C824 1.283 . S
O856 Eu843 2.363 . S
O857 C822 1.283 . S
O857 Eu843 2.363 . S
O858 C825 1.283 . S
O858 Eu830 2.363 . S
O859 C823 1.283 . S
O859 Eu830 2.363 . S
O860 C819 1.283 . S
O860 Eu838 2.363 . S
O861 C821 1.283 . S
O861 Eu838 2.363 1_556 S
O862 C818 1.283 . S
O862 Eu837 2.363 . S
O863 C820 1.283 . S
O863 Eu837 2.363 1_556 S
O864 C829 1.283 . S
O864 Eu833 2.363 1_565 S
O865 C827 1.283 . S
O865 Eu833 2.363 . S
O866 C828 1.283 . S
O866 Eu834 2.363 1_565 S
O867 C826 1.283 . S
O867 Eu834 2.363 . S
C868 O894 1.283 . S
C868 O912 1.283 . S
C869 O895 1.283 . S
C869 O910 1.283 . S
C870 O896 1.283 . S
C870 O913 1.283 . S
C871 O897 1.283 . S
C871 O911 1.283 . S
C872 O898 1.283 . S
C872 O907 1.283 . S
C873 O899 1.283 . S
C873 O909 1.283 . S
C874 O900 1.283 . S
C874 O906 1.283 . S
C875 O901 1.283 . S
C875 O908 1.283 . S
C876 O902 1.283 . S
C876 O917 1.283 . S
C877 O903 1.283 . S
C877 O915 1.283 . S
C878 O904 1.283 . S
C878 O916 1.283 . S
C879 O905 1.283 . S
C879 O914 1.283 . S
Eu880 O881 2.360 1_454 S
Eu880 O882 2.380 . S
Eu880 O885 2.380 1_455 S
Eu880 O886 2.360 1_554 S
Eu880 O894 2.380 . S
Eu880 O895 2.346 1_554 S
Eu880 O908 2.363 . S
Eu880 O909 2.363 1_455 S
O881 Eu880 2.360 1_656 S
O881 Eu883 2.360 1_556 S
O881 Eu888 2.370 1_655 S
O882 Eu880 2.380 . S
O882 Eu884 2.380 . S
O882 Eu887 2.370 . S
Eu883 O881 2.360 1_554 S
Eu883 O885 2.380 . S
Eu883 O889 2.380 . S
Eu883 O890 2.360 1_554 S
Eu883 O898 2.363 . S
Eu883 O899 2.363 . S
Eu883 O914 2.380 . S
Eu883 O915 2.346 1_554 S
Eu884 O882 2.380 . S
Eu884 O886 2.360 1_554 S
Eu884 O891 2.360 1_554 S
Eu884 O892 2.380 . S
Eu884 O900 2.363 . S
Eu884 O901 2.363 . S
Eu884 O916 2.380 . S
Eu884 O917 2.346 1_554 S
O885 Eu880 2.380 1_655 S
O885 Eu883 2.380 . S
O885 Eu887 2.370 1_655 S
O886 Eu880 2.360 1_556 S
O886 Eu884 2.360 1_556 S
O886 Eu888 2.370 . S
Eu887 O882 2.370 . S
Eu887 O885 2.370 1_455 S
Eu887 O889 2.370 1_455 S
Eu887 O892 2.370 . S
Eu887 O904 2.363 . S
Eu887 O905 2.363 1_455 S
Eu887 O912 2.363 . S
Eu887 O913 2.363 . S
Eu888 O881 2.370 1_455 S
Eu888 O886 2.370 . S
Eu888 O890 2.370 1_455 S
Eu888 O891 2.370 . S
Eu888 O902 2.363 . S
Eu888 O903 2.363 1_455 S
Eu888 O910 2.363 . S
Eu888 O911 2.363 . S
O889 Eu883 2.380 . S
O889 Eu887 2.370 1_655 S
O889 Eu893 2.380 1_655 S
O890 Eu883 2.360 1_556 S
O890 Eu888 2.370 1_655 S
O890 Eu893 2.360 1_656 S
O891 Eu884 2.360 1_556 S
O891 Eu888 2.370 . S
O891 Eu893 2.360 1_556 S
O892 Eu884 2.380 . S
O892 Eu887 2.370 . S
O892 Eu893 2.380 . S
Eu893 O889 2.380 1_455 S
Eu893 O890 2.360 1_454 S
Eu893 O891 2.360 1_554 S
Eu893 O892 2.380 . S
Eu893 O896 2.380 . S
Eu893 O897 2.346 1_554 S
Eu893 O906 2.363 . S
Eu893 O907 2.363 1_455 S
O894 C868 1.283 . S
O894 Eu880 2.380 . S
O895 C869 1.283 . S
O895 Eu880 2.346 1_556 S
O896 C870 1.283 . S
O896 Eu893 2.380 . S
O897 C871 1.283 . S
O897 Eu893 2.346 1_556 S
O898 C872 1.283 . S
O898 Eu883 2.363 . S
O899 C873 1.283 . S
O899 Eu883 2.363 . S
O900 C874 1.283 . S
O900 Eu884 2.363 . S
O901 C875 1.283 . S
O901 Eu884 2.363 . S
O902 C876 1.283 . S
O902 Eu888 2.363 . S
O903 C877 1.283 . S
O903 Eu888 2.363 1_655 S
O904 C878 1.283 . S
O904 Eu887 2.363 . S
O905 C879 1.283 . S
O905 Eu887 2.363 1_655 S
O906 C874 1.283 . S
O906 Eu893 2.363 . S
O907 C872 1.283 . S
O907 Eu893 2.363 1_655 S
O908 C875 1.283 . S
O908 Eu880 2.363 . S
O909 C873 1.283 . S
O909 Eu880 2.363 1_655 S
O910 C869 1.283 . S
O910 Eu888 2.363 . S
O911 C871 1.283 . S
O911 Eu888 2.363 . S
O912 C868 1.283 . S
O912 Eu887 2.363 . S
O913 C870 1.283 . S
O913 Eu887 2.363 . S
O914 C879 1.283 . S
O914 Eu883 2.380 . S
O915 C877 1.283 . S
O915 Eu883 2.346 1_556 S
O916 C878 1.283 . S
O916 Eu884 2.380 . S
O917 C876 1.283 . S
O917 Eu884 2.346 1_556 S
C918 O944 1.283 . S
C918 O962 1.283 . S
C919 O945 1.283 . S
C919 O960 1.283 . S
C920 O946 1.283 . S
C920 O963 1.283 . S
C921 O947 1.283 . S
C921 O961 1.283 . S
C922 O948 1.283 . S
C922 O957 1.283 . S
C923 O949 1.283 . S
C923 O959 1.283 . S
C924 O950 1.283 . S
C924 O956 1.283 . S
C925 O951 1.283 . S
C925 O958 1.283 . S
C926 O952 1.283 . S
C926 O967 1.283 . S
C927 O953 1.283 . S
C927 O965 1.283 . S
C928 O954 1.283 . S
C928 O966 1.283 . S
C929 O955 1.283 . S
C929 O964 1.283 . S
Eu930 O931 2.370 . S
Eu930 O932 2.370 . S
Eu930 O935 2.370 . S
Eu930 O936 2.370 . S
Eu930 O944 2.363 . S
Eu930 O945 2.363 . S
Eu930 O958 2.363 . S
Eu930 O959 2.363 . S
O931 Eu930 2.370 . S
O931 Eu933 2.382 . S
O931 Eu938 2.382 . S
O932 Eu930 2.370 . S
O932 Eu934 2.382 . S
O932 Eu937 2.382 . S
Eu933 O931 2.382 . S
Eu933 O935 2.382 . S
Eu933 O939 2.358 1_554 S
Eu933 O940 2.358 1_554 S
Eu933 O948 2.342 1_554 S
Eu933 O949 2.384 . S
Eu933 O964 2.363 . S
Eu933 O965 2.363 . S
Eu934 O932 2.382 . S
Eu934 O936 2.382 . S
Eu934 O941 2.358 1_554 S
Eu934 O942 2.358 1_554 S
Eu934 O950 2.342 1_554 S
Eu934 O951 2.384 . S
Eu934 O966 2.363 . S
Eu934 O967 2.363 . S
O935 Eu930 2.370 . S
O935 Eu933 2.382 . S
O935 Eu937 2.382 . S
O936 Eu930 2.370 . S
O936 Eu934 2.382 . S
O936 Eu938 2.382 . S
Eu937 O932 2.382 . S
Eu937 O935 2.382 . S
Eu937 O939 2.358 1_554 S
Eu937 O942 2.358 1_554 S
Eu937 O954 2.363 . S
Eu937 O955 2.363 . S
Eu937 O962 2.384 . S
Eu937 O963 2.342 1_554 S
Eu938 O931 2.382 . S
Eu938 O936 2.382 . S
Eu938 O940 2.358 1_554 S
Eu938 O941 2.358 1_554 S
Eu938 O952 2.363 . S
Eu938 O953 2.363 . S
Eu938 O960 2.384 . S
Eu938 O961 2.342 1_554 S
O939 Eu933 2.358 1_556 S
O939 Eu937 2.358 1_556 S
O939 Eu943 2.370 . S
O940 Eu933 2.358 1_556 S
O940 Eu938 2.358 1_556 S
O940 Eu943 2.370 . S
O941 Eu934 2.358 1_556 S
O941 Eu938 2.358 1_556 S
O941 Eu943 2.370 . S
O942 Eu934 2.358 1_556 S
O942 Eu937 2.358 1_556 S
O942 Eu943 2.370 . S
Eu943 O939 2.370 . S
Eu943 O940 2.370 . S
Eu943 O941 2.370 . S
Eu943 O942 2.370 . S
Eu943 O946 2.363 . S
Eu943 O947 2.363 . S
Eu943 O956 2.363 . S
Eu943 O957 2.363 . S
O944 C918 1.283 . S
O944 Eu930 2.363 . S
O945 C919 1.283 . S
O945 Eu930 2.363 . S
O946 C920 1.283 . S
O946 Eu943 2.363 . S
O947 C921 1.283 . S
O947 Eu943 2.363 . S
O948 C922 1.283 . S
O948 Eu933 2.342 1_556 S
O949 C923 1.283 . S
O949 Eu933 2.384 . S
O950 C924 1.283 . S
O950 Eu934 2.342 1_556 S
O951 C925 1.283 . S
O951 Eu934 2.384 . S
O952 C926 1.283 . S
O952 Eu938 2.363 . S
O953 C927 1.283 . S
O953 Eu938 2.363 . S
O954 C928 1.283 . S
O954 Eu937 2.363 . S
O955 C929 1.283 . S
O955 Eu937 2.363 . S
O956 C924 1.283 . S
O956 Eu943 2.363 . S
O957 C922 1.283 . S
O957 Eu943 2.363 . S
O958 C925 1.283 . S
O958 Eu930 2.363 . S
O959 C923 1.283 . S
O959 Eu930 2.363 . S
O960 C919 1.283 . S
O960 Eu938 2.384 . S
O961 C921 1.283 . S
O961 Eu938 2.342 1_556 S
O962 C918 1.283 . S
O962 Eu937 2.384 . S
O963 C920 1.283 . S
O963 Eu937 2.342 1_556 S
O964 C929 1.283 . S
O964 Eu933 2.363 . S
O965 C927 1.283 . S
O965 Eu933 2.363 . S
O966 C928 1.283 . S
O966 Eu934 2.363 . S
O967 C926 1.283 . S
O967 Eu934 2.363 . S
C968 O994 1.283 . S
C968 O1012 1.283 . S
C969 O995 1.283 . S
C969 O1010 1.283 . S
C970 O996 1.283 . S
C970 O1013 1.283 . S
C971 O997 1.283 . S
C971 O1011 1.283 . S
C972 O998 1.283 . S
C972 O1007 1.283 . S
C973 O999 1.283 . S
C973 O1009 1.283 . S
C974 O1000 1.283 . S
C974 O1006 1.283 . S
C975 O1001 1.283 . S
C975 O1008 1.283 . S
C976 O1002 1.283 . S
C976 O1017 1.283 . S
C977 O1003 1.283 . S
C977 O1015 1.283 . S
C978 O1004 1.283 . S
C978 O1016 1.283 . S
C979 O1005 1.283 . S
C979 O1014 1.283 . S
Eu980 O981 2.370 1_455 S
Eu980 O982 2.370 . S
Eu980 O985 2.370 1_455 S
Eu980 O986 2.370 . S
Eu980 O994 2.363 . S
Eu980 O995 2.363 . S
Eu980 O1008 2.363 . S
Eu980 O1009 2.363 1_455 S
O981 Eu980 2.370 1_655 S
O981 Eu983 2.370 . S
O981 Eu988 2.370 1_655 S
O982 Eu980 2.370 . S
O982 Eu984 2.370 . S
O982 Eu987 2.370 . S
Eu983 O981 2.370 . S
Eu983 O985 2.370 . S
Eu983 O989 2.370 . S
Eu983 O990 2.370 . S
Eu983 O998 2.363 . S
Eu983 O999 2.363 . S
Eu983 O1014 2.363 . S
Eu983 O1015 2.363 . S
Eu984 O982 2.370 . S
Eu984 O986 2.370 . S
Eu984 O991 2.370 . S
Eu984 O992 2.370 . S
Eu984 O1000 2.363 . S
Eu984 O1001 2.363 . S
Eu984 O1016 2.363 . S
Eu984 O1017 2.363 . S
O985 Eu980 2.370 1_655 S
O985 Eu983 2.370 . S
O985 Eu987 2.370 1_655 S
O986 Eu980 2.370 . S
O986 Eu984 2.370 . S
O986 Eu988 2.370 . S
Eu987 O982 2.370 . S
Eu987 O985 2.370 1_455 S
Eu987 O989 2.370 1_455 S
Eu987 O992 2.370 . S
Eu987 O1004 2.363 . S
Eu987 O1005 2.363 1_455 S
Eu987 O1012 2.363 . S
Eu987 O1013 2.363 . S
Eu988 O981 2.370 1_455 S
Eu988 O986 2.370 . S
Eu988 O990 2.370 1_455 S
Eu988 O991 2.370 . S
Eu988 O1002 2.363 . S
Eu988 O1003 2.363 1_455 S
Eu988 O1010 2.363 . S
Eu988 O1011 2.363 . S
O989 Eu983 2.370 . S
O989 Eu987 2.370 1_655 S
O989 Eu993 2.370 1_655 S
O990 Eu983 2.370 . S
O990 Eu988 2.370 1_655 S
O990 Eu993 2.370 1_655 S
O991 Eu984 2.370 . S
O991 Eu988 2.370 . S
O991 Eu993 2.370 . S
O992 Eu984 2.370 . S
O992 Eu987 2.370 . S
O992 Eu993 2.370 . S
Eu993 O989 2.370 1_455 S
Eu993 O990 2.370 1_455 S
Eu993 O991 2.370 . S
Eu993 O992 2.370 . S
Eu993 O996 2.363 . S
Eu993 O997 2.363 . S
Eu993 O1006 2.363 . S
Eu993 O1007 2.363 1_455 S
O994 C968 1.283 . S
O994 Eu980 2.363 . S
O995 C969 1.283 . S
O995 Eu980 2.363 . S
O996 C970 1.283 . S
O996 Eu993 2.363 . S
O997 C971 1.283 . S
O997 Eu993 2.363 . S
O998 C972 1.283 . S
O998 Eu983 2.363 . S
O999 C973 1.283 . S
O999 Eu983 2.363 . S
O1000 C974 1.283 . S
O1000 Eu984 2.363 . S
O1001 C975 1.283 . S
O1001 Eu984 2.363 . S
O1002 C976 1.283 . S
O1002 Eu988 2.363 . S
O1003 C977 1.283 . S
O1003 Eu988 2.363 1_655 S
O1004 C978 1.283 . S
O1004 Eu987 2.363 . S
O1005 C979 1.283 . S
O1005 Eu987 2.363 1_655 S
O1006 C974 1.283 . S
O1006 Eu993 2.363 . S
O1007 C972 1.283 . S
O1007 Eu993 2.363 1_655 S
O1008 C975 1.283 . S
O1008 Eu980 2.363 . S
O1009 C973 1.283 . S
O1009 Eu980 2.363 1_655 S
O1010 C969 1.283 . S
O1010 Eu988 2.363 . S
O1011 C971 1.283 . S
O1011 Eu988 2.363 . S
O1012 C968 1.283 . S
O1012 Eu987 2.363 . S
O1013 C970 1.283 . S
O1013 Eu987 2.363 . S
O1014 C979 1.283 . S
O1014 Eu983 2.363 . S
O1015 C977 1.283 . S
O1015 Eu983 2.363 . S
O1016 C978 1.283 . S
O1016 Eu984 2.363 . S
O1017 C976 1.283 . S
O1017 Eu984 2.363 . S
C1018 O1044 1.283 . S
C1018 O1062 1.283 . S
C1019 O1045 1.283 . S
C1019 O1060 1.283 . S
C1020 O1046 1.283 . S
C1020 O1063 1.283 . S
C1021 O1047 1.283 . S
C1021 O1061 1.283 . S
C1022 O1048 1.283 . S
C1022 O1057 1.283 . S
C1023 O1049 1.283 . S
C1023 O1059 1.283 . S
C1024 O1050 1.283 . S
C1024 O1056 1.283 . S
C1025 O1051 1.283 . S
C1025 O1058 1.283 . S
C1026 O1052 1.283 . S
C1026 O1067 1.283 . S
C1027 O1053 1.283 . S
C1027 O1065 1.283 . S
C1028 O1054 1.283 . S
C1028 O1066 1.283 . S
C1029 O1055 1.283 . S
C1029 O1064 1.283 . S
Eu1030 O1031 2.370 . S
Eu1030 O1032 2.370 . S
Eu1030 O1035 2.370 . S
Eu1030 O1036 2.370 . S
Eu1030 O1044 2.363 . S
Eu1030 O1045 2.363 . S
Eu1030 O1058 2.363 . S
Eu1030 O1059 2.363 . S
O1031 Eu1030 2.370 . S
O1031 Eu1033 2.340 1_565 S
O1031 Eu1038 2.340 1_565 S
O1032 Eu1030 2.370 . S
O1032 Eu1034 2.340 1_565 S
O1032 Eu1037 2.340 1_565 S
Eu1033 O1031 2.340 1_545 S
Eu1033 O1035 2.340 1_545 S
Eu1033 O1039 2.401 . S
Eu1033 O1040 2.401 . S
Eu1033 O1048 2.415 . S
Eu1033 O1049 2.311 1_545 S
Eu1033 O1064 2.363 . S
Eu1033 O1065 2.363 . S
Eu1034 O1032 2.340 1_545 S
Eu1034 O1036 2.340 1_545 S
Eu1034 O1041 2.401 . S
Eu1034 O1042 2.401 . S
Eu1034 O1050 2.415 . S
Eu1034 O1051 2.311 1_545 S
Eu1034 O1066 2.363 . S
Eu1034 O1067 2.363 . S
O1035 Eu1030 2.370 . S
O1035 Eu1033 2.340 1_565 S
O1035 Eu1037 2.340 1_565 S
O1036 Eu1030 2.370 . S
O1036 Eu1034 2.340 1_565 S
O1036 Eu1038 2.340 1_565 S
Eu1037 O1032 2.340 1_545 S
Eu1037 O1035 2.340 1_545 S
Eu1037 O1039 2.401 . S
Eu1037 O1042 2.401 . S
Eu1037 O1054 2.363 . S
Eu1037 O1055 2.363 . S
Eu1037 O1062 2.311 1_545 S
Eu1037 O1063 2.415 . S
Eu1038 O1031 2.340 1_545 S
Eu1038 O1036 2.340 1_545 S
Eu1038 O1040 2.401 . S
Eu1038 O1041 2.401 . S
Eu1038 O1052 2.363 . S
Eu1038 O1053 2.363 . S
Eu1038 O1060 2.311 1_545 S
Eu1038 O1061 2.415 . S
O1039 Eu1033 2.401 . S
O1039 Eu1037 2.401 . S
O1039 Eu1043 2.370 . S
O1040 Eu1033 2.401 . S
O1040 Eu1038 2.401 . S
O1040 Eu1043 2.370 . S
O1041 Eu1034 2.401 . S
O1041 Eu1038 2.401 . S
O1041 Eu1043 2.370 . S
O1042 Eu1034 2.401 . S
O1042 Eu1037 2.401 . S
O1042 Eu1043 2.370 . S
Eu1043 O1039 2.370 . S
Eu1043 O1040 2.370 . S
Eu1043 O1041 2.370 . S
Eu1043 O1042 2.370 . S
Eu1043 O1046 2.363 . S
Eu1043 O1047 2.363 . S
Eu1043 O1056 2.363 . S
Eu1043 O1057 2.363 . S
O1044 C1018 1.283 . S
O1044 Eu1030 2.363 . S
O1045 C1019 1.283 . S
O1045 Eu1030 2.363 . S
O1046 C1020 1.283 . S
O1046 Eu1043 2.363 . S
O1047 C1021 1.283 . S
O1047 Eu1043 2.363 . S
O1048 C1022 1.283 . S
O1048 Eu1033 2.415 . S
O1049 C1023 1.283 . S
O1049 Eu1033 2.311 1_565 S
O1050 C1024 1.283 . S
O1050 Eu1034 2.415 . S
O1051 C1025 1.283 . S
O1051 Eu1034 2.311 1_565 S
O1052 C1026 1.283 . S
O1052 Eu1038 2.363 . S
O1053 C1027 1.283 . S
O1053 Eu1038 2.363 . S
O1054 C1028 1.283 . S
O1054 Eu1037 2.363 . S
O1055 C1029 1.283 . S
O1055 Eu1037 2.363 . S
O1056 C1024 1.283 . S
O1056 Eu1043 2.363 . S
O1057 C1022 1.283 . S
O1057 Eu1043 2.363 . S
O1058 C1025 1.283 . S
O1058 Eu1030 2.363 . S
O1059 C1023 1.283 . S
O1059 Eu1030 2.363 . S
O1060 C1019 1.283 . S
O1060 Eu1038 2.311 1_565 S
O1061 C1021 1.283 . S
O1061 Eu1038 2.415 . S
O1062 C1018 1.283 . S
O1062 Eu1037 2.311 1_565 S
O1063 C1020 1.283 . S
O1063 Eu1037 2.415 . S
O1064 C1029 1.283 . S
O1064 Eu1033 2.363 . S
O1065 C1027 1.283 . S
O1065 Eu1033 2.363 . S
O1066 C1028 1.283 . S
O1066 Eu1034 2.363 . S
O1067 C1026 1.283 . S
O1067 Eu1034 2.363 . S
H1068 C1076 0.929 . S
H1069 C1078 0.930 . S
H1070 C1080 0.930 . S
H1071 C1083 0.929 . S
H1072 C1086 0.930 . S
H1073 C1088 0.960 . S
H1074 C1088 0.960 . S
H1075 C1088 0.960 . S
C1076 H1068 0.929 . S
C1076 C1077 1.377 . S
C1076 C1078 1.384 . S
C1077 C1076 1.377 . S
C1077 C1083 1.390 . S
C1078 H1069 0.930 . S
C1078 C1076 1.384 . S
C1078 C1079 1.372 . S
C1079 C1078 1.372 . S
C1079 C1080 1.400 . S
C1079 C1084 1.490 . S
C1080 H1070 0.930 . S
C1080 C1079 1.400 . S
C1080 C1083 1.386 . S
H1081 C1097 0.930 . S
H1082 C1098 0.931 . S
C1083 H1071 0.929 . S
C1083 C1077 1.390 . S
C1083 C1080 1.386 . S
C1084 C1079 1.490 . S
C1084 C1086 1.395 . S
C1084 C1087 1.403 . S
H1085 C1091 0.930 . S
C1086 H1072 0.930 . S
C1086 C1084 1.395 . S
C1086 C1089 1.403 . S
C1087 C1084 1.403 . S
C1087 C1088 1.524 . S
C1087 C1091 1.400 . S
C1088 H1073 0.960 . S
C1088 H1074 0.960 . S
C1088 H1075 0.960 . S
C1088 C1087 1.524 . S
C1089 C1086 1.403 . S
C1089 C1090 1.392 . S
C1089 C1093 1.495 . S
C1090 C1089 1.392 . S
C1090 C1091 1.385 . S
C1090 C1092 1.478 . S
C1091 H1085 0.930 . S
C1091 C1087 1.400 . S
C1091 C1090 1.385 . S
C1092 C1090 1.478 . S
C1092 C1094 1.381 . S
C1092 C1098 1.383 . S
C1093 C1089 1.495 . S
C1093 H1099 0.959 . S
C1093 H1100 0.961 . S
C1093 H1101 0.960 . S
C1094 C1092 1.381 . S
C1094 C1095 1.394 . S
C1094 H1102 0.930 . S
C1095 C1094 1.394 . S
C1095 C1096 1.383 . S
C1095 H1103 0.929 . S
C1096 C1095 1.383 . S
C1096 C1097 1.377 . S
C1097 H1081 0.930 . S
C1097 C1096 1.377 . S
C1097 C1098 1.379 . S
C1098 H1082 0.931 . S
C1098 C1092 1.383 . S
C1098 C1097 1.379 . S
H1099 C1093 0.959 . S
H1100 C1093 0.961 . S
H1101 C1093 0.960 . S
H1102 C1094 0.930 . S
H1103 C1095 0.929 . S
H1104 C1112 0.929 . S
H1105 C1114 0.930 . S
H1106 C1116 0.930 . S
H1107 C1119 0.929 . S
H1108 C1122 0.930 . S
H1109 C1124 0.960 . S
H1110 C1124 0.960 . S
H1111 C1124 0.960 . S
C1112 H1104 0.929 . S
C1112 C1113 1.377 . S
C1112 C1114 1.384 . S
C1113 C1112 1.377 . S
C1113 C1119 1.390 . S
C1114 H1105 0.930 . S
C1114 C1112 1.384 . S
C1114 C1115 1.372 . S
C1115 C1114 1.372 . S
C1115 C1116 1.400 . S
C1115 C1120 1.490 . S
C1116 H1106 0.930 . S
C1116 C1115 1.400 . S
C1116 C1119 1.386 . S
H1117 C1133 0.930 . S
H1118 C1134 0.931 . S
C1119 H1107 0.929 . S
C1119 C1113 1.390 . S
C1119 C1116 1.386 . S
C1120 C1115 1.490 . S
C1120 C1122 1.395 . S
C1120 C1123 1.403 . S
H1121 C1127 0.930 . S
C1122 H1108 0.930 . S
C1122 C1120 1.395 . S
C1122 C1125 1.403 . S
C1123 C1120 1.403 . S
C1123 C1124 1.524 . S
C1123 C1127 1.400 . S
C1124 H1109 0.960 . S
C1124 H1110 0.960 . S
C1124 H1111 0.960 . S
C1124 C1123 1.524 . S
C1125 C1122 1.403 . S
C1125 C1126 1.392 . S
C1125 C1129 1.495 . S
C1126 C1125 1.392 . S
C1126 C1127 1.385 . S
C1126 C1128 1.478 . S
C1127 H1121 0.930 . S
C1127 C1123 1.400 . S
C1127 C1126 1.385 . S
C1128 C1126 1.478 . S
C1128 C1130 1.381 . S
C1128 C1134 1.383 . S
C1129 C1125 1.495 . S
C1129 H1135 0.959 . S
C1129 H1136 0.961 . S
C1129 H1137 0.960 . S
C1130 C1128 1.381 . S
C1130 C1131 1.394 . S
C1130 H1138 0.930 . S
C1131 C1130 1.394 . S
C1131 C1132 1.383 . S
C1131 H1139 0.929 . S
C1132 C1131 1.383 . S
C1132 C1133 1.377 . S
C1133 H1117 0.930 . S
C1133 C1132 1.377 . S
C1133 C1134 1.379 . S
C1134 H1118 0.931 . S
C1134 C1128 1.383 . S
C1134 C1133 1.379 . S
H1135 C1129 0.959 . S
H1136 C1129 0.961 . S
H1137 C1129 0.960 . S
H1138 C1130 0.930 . S
H1139 C1131 0.929 . S
H1140 C1148 0.929 . S
H1141 C1150 0.930 . S
H1142 C1152 0.930 . S
H1143 C1155 0.929 . S
H1144 C1158 0.930 . S
H1145 C1160 0.960 . S
H1146 C1160 0.960 . S
H1147 C1160 0.960 . S
C1148 H1140 0.929 . S
C1148 C1149 1.377 . S
C1148 C1150 1.384 . S
C1149 C1148 1.377 . S
C1149 C1155 1.390 . S
C1150 H1141 0.930 . S
C1150 C1148 1.384 . S
C1150 C1151 1.372 . S
C1151 C1150 1.372 . S
C1151 C1152 1.400 . S
C1151 C1156 1.490 . S
C1152 H1142 0.930 . S
C1152 C1151 1.400 . S
C1152 C1155 1.386 . S
H1153 C1169 0.930 . S
H1154 C1170 0.931 . S
C1155 H1143 0.929 . S
C1155 C1149 1.390 . S
C1155 C1152 1.386 . S
C1156 C1151 1.490 . S
C1156 C1158 1.395 . S
C1156 C1159 1.403 . S
H1157 C1163 0.930 . S
C1158 H1144 0.930 . S
C1158 C1156 1.395 . S
C1158 C1161 1.403 . S
C1159 C1156 1.403 . S
C1159 C1160 1.524 . S
C1159 C1163 1.400 . S
C1160 H1145 0.960 . S
C1160 H1146 0.960 . S
C1160 H1147 0.960 . S
C1160 C1159 1.524 . S
C1161 C1158 1.403 . S
C1161 C1162 1.392 . S
C1161 C1165 1.495 . S
C1162 C1161 1.392 . S
C1162 C1163 1.385 . S
C1162 C1164 1.478 . S
C1163 H1157 0.930 . S
C1163 C1159 1.400 . S
C1163 C1162 1.385 . S
C1164 C1162 1.478 . S
C1164 C1166 1.381 . S
C1164 C1170 1.383 . S
C1165 C1161 1.495 . S
C1165 H1171 0.959 . S
C1165 H1172 0.961 . S
C1165 H1173 0.960 . S
C1166 C1164 1.381 . S
C1166 C1167 1.394 . S
C1166 H1174 0.930 . S
C1167 C1166 1.394 . S
C1167 C1168 1.383 . S
C1167 H1175 0.929 . S
C1168 C1167 1.383 . S
C1168 C1169 1.377 . S
C1169 H1153 0.930 . S
C1169 C1168 1.377 . S
C1169 C1170 1.379 . S
C1170 H1154 0.931 . S
C1170 C1164 1.383 . S
C1170 C1169 1.379 . S
H1171 C1165 0.959 . S
H1172 C1165 0.961 . S
H1173 C1165 0.960 . S
H1174 C1166 0.930 . S
H1175 C1167 0.929 . S
H1176 C1184 0.929 . S
H1177 C1186 0.930 . S
H1178 C1188 0.930 . S
H1179 C1191 0.929 . S
H1180 C1194 0.930 . S
H1181 C1196 0.960 . S
H1182 C1196 0.960 . S
H1183 C1196 0.960 . S
C1184 H1176 0.929 . S
C1184 C1185 1.377 . S
C1184 C1186 1.384 . S
C1185 C1184 1.377 . S
C1185 C1191 1.390 . S
C1186 H1177 0.930 . S
C1186 C1184 1.384 . S
C1186 C1187 1.372 . S
C1187 C1186 1.372 . S
C1187 C1188 1.400 . S
C1187 C1192 1.490 . S
C1188 H1178 0.930 . S
C1188 C1187 1.400 . S
C1188 C1191 1.386 . S
H1189 C1205 0.930 . S
H1190 C1206 0.931 . S
C1191 H1179 0.929 . S
C1191 C1185 1.390 . S
C1191 C1188 1.386 . S
C1192 C1187 1.490 . S
C1192 C1194 1.395 . S
C1192 C1195 1.403 . S
H1193 C1199 0.930 . S
C1194 H1180 0.930 . S
C1194 C1192 1.395 . S
C1194 C1197 1.403 . S
C1195 C1192 1.403 . S
C1195 C1196 1.524 . S
C1195 C1199 1.400 . S
C1196 H1181 0.960 . S
C1196 H1182 0.960 . S
C1196 H1183 0.960 . S
C1196 C1195 1.524 . S
C1197 C1194 1.403 . S
C1197 C1198 1.392 . S
C1197 C1201 1.495 . S
C1198 C1197 1.392 . S
C1198 C1199 1.385 . S
C1198 C1200 1.478 . S
C1199 H1193 0.930 . S
C1199 C1195 1.400 . S
C1199 C1198 1.385 . S
C1200 C1198 1.478 . S
C1200 C1202 1.381 . S
C1200 C1206 1.383 . S
C1201 C1197 1.495 . S
C1201 H1207 0.959 . S
C1201 H1208 0.961 . S
C1201 H1209 0.960 . S
C1202 C1200 1.381 . S
C1202 C1203 1.394 . S
C1202 H1210 0.930 . S
C1203 C1202 1.394 . S
C1203 C1204 1.383 . S
C1203 H1211 0.929 . S
C1204 C1203 1.383 . S
C1204 C1205 1.377 . S
C1205 H1189 0.930 . S
C1205 C1204 1.377 . S
C1205 C1206 1.379 . S
C1206 H1190 0.931 . S
C1206 C1200 1.383 . S
C1206 C1205 1.379 . S
H1207 C1201 0.959 . S
H1208 C1201 0.961 . S
H1209 C1201 0.960 . S
H1210 C1202 0.930 . S
H1211 C1203 0.929 . S
H1212 C1220 0.929 . S
H1213 C1222 0.930 . S
H1214 C1224 0.930 . S
H1215 C1227 0.929 . S
H1216 C1230 0.930 . S
H1217 C1232 0.960 . S
H1218 C1232 0.960 . S
H1219 C1232 0.960 . S
C1220 H1212 0.929 . S
C1220 C1221 1.377 . S
C1220 C1222 1.384 . S
C1221 C1220 1.377 . S
C1221 C1227 1.390 . S
C1222 H1213 0.930 . S
C1222 C1220 1.384 . S
C1222 C1223 1.372 . S
C1223 C1222 1.372 . S
C1223 C1224 1.400 . S
C1223 C1228 1.490 . S
C1224 H1214 0.930 . S
C1224 C1223 1.400 . S
C1224 C1227 1.386 . S
H1225 C1241 0.930 . S
H1226 C1242 0.931 . S
C1227 H1215 0.929 . S
C1227 C1221 1.390 . S
C1227 C1224 1.386 . S
C1228 C1223 1.490 . S
C1228 C1230 1.395 . S
C1228 C1231 1.403 . S
H1229 C1235 0.930 . S
C1230 H1216 0.930 . S
C1230 C1228 1.395 . S
C1230 C1233 1.403 . S
C1231 C1228 1.403 . S
C1231 C1232 1.524 . S
C1231 C1235 1.400 . S
C1232 H1217 0.960 . S
C1232 H1218 0.960 . S
C1232 H1219 0.960 . S
C1232 C1231 1.524 . S
C1233 C1230 1.403 . S
C1233 C1234 1.392 . S
C1233 C1237 1.495 . S
C1234 C1233 1.392 . S
C1234 C1235 1.385 . S
C1234 C1236 1.478 . S
C1235 H1229 0.930 . S
C1235 C1231 1.400 . S
C1235 C1234 1.385 . S
C1236 C1234 1.478 . S
C1236 C1238 1.381 . S
C1236 C1242 1.383 . S
C1237 C1233 1.495 . S
C1237 H1243 0.959 . S
C1237 H1244 0.961 . S
C1237 H1245 0.960 . S
C1238 C1236 1.381 . S
C1238 C1239 1.394 . S
C1238 H1246 0.930 . S
C1239 C1238 1.394 . S
C1239 C1240 1.383 . S
C1239 H1247 0.929 . S
C1240 C1239 1.383 . S
C1240 C1241 1.377 . S
C1241 H1225 0.930 . S
C1241 C1240 1.377 . S
C1241 C1242 1.379 . S
C1242 H1226 0.931 . S
C1242 C1236 1.383 . S
C1242 C1241 1.379 . S
H1243 C1237 0.959 . S
H1244 C1237 0.961 . S
H1245 C1237 0.960 . S
H1246 C1238 0.930 . S
H1247 C1239 0.929 . S
H1248 C1256 0.929 . S
H1249 C1258 0.930 . S
H1250 C1260 0.930 . S
H1251 C1263 0.929 . S
H1252 C1266 0.930 . S
H1253 C1268 0.960 . S
H1254 C1268 0.960 . S
H1255 C1268 0.960 . S
C1256 H1248 0.929 . S
C1256 C1257 1.377 . S
C1256 C1258 1.384 . S
C1257 C1256 1.377 . S
C1257 C1263 1.390 . S
C1258 H1249 0.930 . S
C1258 C1256 1.384 . S
C1258 C1259 1.372 . S
C1259 C1258 1.372 . S
C1259 C1260 1.400 . S
C1259 C1264 1.490 . S
C1260 H1250 0.930 . S
C1260 C1259 1.400 . S
C1260 C1263 1.386 . S
H1261 C1277 0.930 . S
H1262 C1278 0.931 . S
C1263 H1251 0.929 . S
C1263 C1257 1.390 . S
C1263 C1260 1.386 . S
C1264 C1259 1.490 . S
C1264 C1266 1.395 . S
C1264 C1267 1.403 . S
H1265 C1271 0.930 . S
C1266 H1252 0.930 . S
C1266 C1264 1.395 . S
C1266 C1269 1.403 . S
C1267 C1264 1.403 . S
C1267 C1268 1.524 . S
C1267 C1271 1.400 . S
C1268 H1253 0.960 . S
C1268 H1254 0.960 . S
C1268 H1255 0.960 . S
C1268 C1267 1.524 . S
C1269 C1266 1.403 . S
C1269 C1270 1.392 . S
C1269 C1273 1.495 . S
C1270 C1269 1.392 . S
C1270 C1271 1.385 . S
C1270 C1272 1.478 . S
C1271 H1265 0.930 . S
C1271 C1267 1.400 . S
C1271 C1270 1.385 . S
C1272 C1270 1.478 . S
C1272 C1274 1.381 . S
C1272 C1278 1.383 . S
C1273 C1269 1.495 . S
C1273 H1279 0.959 . S
C1273 H1280 0.961 . S
C1273 H1281 0.960 . S
C1274 C1272 1.381 . S
C1274 C1275 1.394 . S
C1274 H1282 0.930 . S
C1275 C1274 1.394 . S
C1275 C1276 1.383 . S
C1275 H1283 0.929 . S
C1276 C1275 1.383 . S
C1276 C1277 1.377 . S
C1277 H1261 0.930 . S
C1277 C1276 1.377 . S
C1277 C1278 1.379 . S
C1278 H1262 0.931 . S
C1278 C1272 1.383 . S
C1278 C1277 1.379 . S
H1279 C1273 0.959 . S
H1280 C1273 0.961 . S
H1281 C1273 0.960 . S
H1282 C1274 0.930 . S
H1283 C1275 0.929 . S
H1284 C1292 0.929 . S
H1285 C1294 0.930 . S
H1286 C1296 0.930 . S
H1287 C1299 0.929 . S
H1288 C1302 0.930 . S
H1289 C1304 0.960 . S
H1290 C1304 0.960 . S
H1291 C1304 0.960 . S
C1292 H1284 0.929 . S
C1292 C1293 1.377 . S
C1292 C1294 1.384 . S
C1293 C1292 1.377 . S
C1293 C1299 1.390 . S
C1294 H1285 0.930 . S
C1294 C1292 1.384 . S
C1294 C1295 1.372 . S
C1295 C1294 1.372 . S
C1295 C1296 1.400 . S
C1295 C1300 1.490 . S
C1296 H1286 0.930 . S
C1296 C1295 1.400 . S
C1296 C1299 1.386 . S
H1297 C1313 0.930 . S
H1298 C1314 0.931 . S
C1299 H1287 0.929 . S
C1299 C1293 1.390 . S
C1299 C1296 1.386 . S
C1300 C1295 1.490 . S
C1300 C1302 1.395 . S
C1300 C1303 1.403 . S
H1301 C1307 0.930 . S
C1302 H1288 0.930 . S
C1302 C1300 1.395 . S
C1302 C1305 1.403 . S
C1303 C1300 1.403 . S
C1303 C1304 1.524 . S
C1303 C1307 1.400 . S
C1304 H1289 0.960 . S
C1304 H1290 0.960 . S
C1304 H1291 0.960 . S
C1304 C1303 1.524 . S
C1305 C1302 1.403 . S
C1305 C1306 1.392 . S
C1305 C1309 1.495 . S
C1306 C1305 1.392 . S
C1306 C1307 1.385 . S
C1306 C1308 1.478 . S
C1307 H1301 0.930 . S
C1307 C1303 1.400 . S
C1307 C1306 1.385 . S
C1308 C1306 1.478 . S
C1308 C1310 1.381 . S
C1308 C1314 1.383 . S
C1309 C1305 1.495 . S
C1309 H1315 0.959 . S
C1309 H1316 0.961 . S
C1309 H1317 0.960 . S
C1310 C1308 1.381 . S
C1310 C1311 1.394 . S
C1310 H1318 0.930 . S
C1311 C1310 1.394 . S
C1311 C1312 1.383 . S
C1311 H1319 0.929 . S
C1312 C1311 1.383 . S
C1312 C1313 1.377 . S
C1313 H1297 0.930 . S
C1313 C1312 1.377 . S
C1313 C1314 1.379 . S
C1314 H1298 0.931 . S
C1314 C1308 1.383 . S
C1314 C1313 1.379 . S
H1315 C1309 0.959 . S
H1316 C1309 0.961 . S
H1317 C1309 0.960 . S
H1318 C1310 0.930 . S
H1319 C1311 0.929 . S
H1320 C1328 0.929 . S
H1321 C1330 0.930 . S
H1322 C1332 0.930 . S
H1323 C1335 0.929 . S
H1324 C1338 0.930 . S
H1325 C1340 0.960 . S
H1326 C1340 0.960 . S
H1327 C1340 0.960 . S
C1328 H1320 0.929 . S
C1328 C1329 1.377 . S
C1328 C1330 1.384 . S
C1329 C1328 1.377 . S
C1329 C1335 1.390 . S
C1330 H1321 0.930 . S
C1330 C1328 1.384 . S
C1330 C1331 1.372 . S
C1331 C1330 1.372 . S
C1331 C1332 1.400 . S
C1331 C1336 1.490 . S
C1332 H1322 0.930 . S
C1332 C1331 1.400 . S
C1332 C1335 1.386 . S
H1333 C1349 0.930 . S
H1334 C1350 0.931 . S
C1335 H1323 0.929 . S
C1335 C1329 1.390 . S
C1335 C1332 1.386 . S
C1336 C1331 1.490 . S
C1336 C1338 1.395 . S
C1336 C1339 1.403 . S
H1337 C1343 0.930 . S
C1338 H1324 0.930 . S
C1338 C1336 1.395 . S
C1338 C1341 1.403 . S
C1339 C1336 1.403 . S
C1339 C1340 1.524 . S
C1339 C1343 1.400 . S
C1340 H1325 0.960 . S
C1340 H1326 0.960 . S
C1340 H1327 0.960 . S
C1340 C1339 1.524 . S
C1341 C1338 1.403 . S
C1341 C1342 1.392 . S
C1341 C1345 1.495 . S
C1342 C1341 1.392 . S
C1342 C1343 1.385 . S
C1342 C1344 1.478 . S
C1343 H1337 0.930 . S
C1343 C1339 1.400 . S
C1343 C1342 1.385 . S
C1344 C1342 1.478 . S
C1344 C1346 1.381 . S
C1344 C1350 1.383 . S
C1345 C1341 1.495 . S
C1345 H1351 0.959 . S
C1345 H1352 0.961 . S
C1345 H1353 0.960 . S
C1346 C1344 1.381 . S
C1346 C1347 1.394 . S
C1346 H1354 0.930 . S
C1347 C1346 1.394 . S
C1347 C1348 1.383 . S
C1347 H1355 0.929 . S
C1348 C1347 1.383 . S
C1348 C1349 1.377 . S
C1349 H1333 0.930 . S
C1349 C1348 1.377 . S
C1349 C1350 1.379 . S
C1350 H1334 0.931 . S
C1350 C1344 1.383 . S
C1350 C1349 1.379 . S
H1351 C1345 0.959 . S
H1352 C1345 0.961 . S
H1353 C1345 0.960 . S
H1354 C1346 0.930 . S
H1355 C1347 0.929 . S
H1356 C1364 0.929 . S
H1357 C1366 0.930 . S
H1358 C1368 0.930 . S
H1359 C1371 0.929 . S
H1360 C1374 0.930 . S
H1361 C1376 0.960 . S
H1362 C1376 0.960 . S
H1363 C1376 0.960 . S
C1364 H1356 0.929 . S
C1364 C1365 1.377 . S
C1364 C1366 1.384 . S
C1365 C1364 1.377 . S
C1365 C1371 1.390 . S
C1366 H1357 0.930 . S
C1366 C1364 1.384 . S
C1366 C1367 1.372 . S
C1367 C1366 1.372 . S
C1367 C1368 1.400 . S
C1367 C1372 1.490 . S
C1368 H1358 0.930 . S
C1368 C1367 1.400 . S
C1368 C1371 1.386 . S
H1369 C1385 0.930 . S
H1370 C1386 0.931 . S
C1371 H1359 0.929 . S
C1371 C1365 1.390 . S
C1371 C1368 1.386 . S
C1372 C1367 1.490 . S
C1372 C1374 1.395 . S
C1372 C1375 1.403 . S
H1373 C1379 0.930 . S
C1374 H1360 0.930 . S
C1374 C1372 1.395 . S
C1374 C1377 1.403 . S
C1375 C1372 1.403 . S
C1375 C1376 1.524 . S
C1375 C1379 1.400 . S
C1376 H1361 0.960 . S
C1376 H1362 0.960 . S
C1376 H1363 0.960 . S
C1376 C1375 1.524 . S
C1377 C1374 1.403 . S
C1377 C1378 1.392 . S
C1377 C1381 1.495 . S
C1378 C1377 1.392 . S
C1378 C1379 1.385 . S
C1378 C1380 1.478 . S
C1379 H1373 0.930 . S
C1379 C1375 1.400 . S
C1379 C1378 1.385 . S
C1380 C1378 1.478 . S
C1380 C1382 1.381 . S
C1380 C1386 1.383 . S
C1381 C1377 1.495 . S
C1381 H1387 0.959 . S
C1381 H1388 0.961 . S
C1381 H1389 0.960 . S
C1382 C1380 1.381 . S
C1382 C1383 1.394 . S
C1382 H1390 0.930 . S
C1383 C1382 1.394 . S
C1383 C1384 1.383 . S
C1383 H1391 0.929 . S
C1384 C1383 1.383 . S
C1384 C1385 1.377 . S
C1385 H1369 0.930 . S
C1385 C1384 1.377 . S
C1385 C1386 1.379 . S
C1386 H1370 0.931 . S
C1386 C1380 1.383 . S
C1386 C1385 1.379 . S
H1387 C1381 0.959 . S
H1388 C1381 0.961 . S
H1389 C1381 0.960 . S
H1390 C1382 0.930 . S
H1391 C1383 0.929 . S
H1392 C1400 0.929 . S
H1393 C1402 0.930 . S
H1394 C1404 0.930 . S
H1395 C1407 0.929 . S
H1396 C1410 0.930 . S
H1397 C1412 0.960 . S
H1398 C1412 0.960 . S
H1399 C1412 0.960 . S
C1400 H1392 0.929 . S
C1400 C1401 1.377 . S
C1400 C1402 1.384 . S
C1401 C1400 1.377 . S
C1401 C1407 1.390 . S
C1402 H1393 0.930 . S
C1402 C1400 1.384 . S
C1402 C1403 1.372 . S
C1403 C1402 1.372 . S
C1403 C1404 1.400 . S
C1403 C1408 1.490 . S
C1404 H1394 0.930 . S
C1404 C1403 1.400 . S
C1404 C1407 1.386 . S
H1405 C1421 0.930 . S
H1406 C1422 0.931 . S
C1407 H1395 0.929 . S
C1407 C1401 1.390 . S
C1407 C1404 1.386 . S
C1408 C1403 1.490 . S
C1408 C1410 1.395 . S
C1408 C1411 1.403 . S
H1409 C1415 0.930 . S
C1410 H1396 0.930 . S
C1410 C1408 1.395 . S
C1410 C1413 1.403 . S
C1411 C1408 1.403 . S
C1411 C1412 1.524 . S
C1411 C1415 1.400 . S
C1412 H1397 0.960 . S
C1412 H1398 0.960 . S
C1412 H1399 0.960 . S
C1412 C1411 1.524 . S
C1413 C1410 1.403 . S
C1413 C1414 1.392 . S
C1413 C1417 1.495 . S
C1414 C1413 1.392 . S
C1414 C1415 1.385 . S
C1414 C1416 1.478 . S
C1415 H1409 0.930 . S
C1415 C1411 1.400 . S
C1415 C1414 1.385 . S
C1416 C1414 1.478 . S
C1416 C1418 1.381 . S
C1416 C1422 1.383 . S
C1417 C1413 1.495 . S
C1417 H1423 0.959 . S
C1417 H1424 0.961 . S
C1417 H1425 0.960 . S
C1418 C1416 1.381 . S
C1418 C1419 1.394 . S
C1418 H1426 0.930 . S
C1419 C1418 1.394 . S
C1419 C1420 1.383 . S
C1419 H1427 0.929 . S
C1420 C1419 1.383 . S
C1420 C1421 1.377 . S
C1421 H1405 0.930 . S
C1421 C1420 1.377 . S
C1421 C1422 1.379 . S
C1422 H1406 0.931 . S
C1422 C1416 1.383 . S
C1422 C1421 1.379 . S
H1423 C1417 0.959 . S
H1424 C1417 0.961 . S
H1425 C1417 0.960 . S
H1426 C1418 0.930 . S
H1427 C1419 0.929 . S
H1428 C1436 0.929 . S
H1429 C1438 0.930 . S
H1430 C1440 0.930 . S
H1431 C1443 0.929 . S
H1432 C1446 0.930 . S
H1433 C1448 0.960 . S
H1434 C1448 0.960 . S
H1435 C1448 0.960 . S
C1436 H1428 0.929 . S
C1436 C1437 1.377 . S
C1436 C1438 1.384 . S
C1437 C1436 1.377 . S
C1437 C1443 1.390 . S
C1438 H1429 0.930 . S
C1438 C1436 1.384 . S
C1438 C1439 1.372 . S
C1439 C1438 1.372 . S
C1439 C1440 1.400 . S
C1439 C1444 1.490 . S
C1440 H1430 0.930 . S
C1440 C1439 1.400 . S
C1440 C1443 1.386 . S
H1441 C1457 0.930 . S
H1442 C1458 0.931 . S
C1443 H1431 0.929 . S
C1443 C1437 1.390 . S
C1443 C1440 1.386 . S
C1444 C1439 1.490 . S
C1444 C1446 1.395 . S
C1444 C1447 1.403 . S
H1445 C1451 0.930 . S
C1446 H1432 0.930 . S
C1446 C1444 1.395 . S
C1446 C1449 1.403 . S
C1447 C1444 1.403 . S
C1447 C1448 1.524 . S
C1447 C1451 1.400 . S
C1448 H1433 0.960 . S
C1448 H1434 0.960 . S
C1448 H1435 0.960 . S
C1448 C1447 1.524 . S
C1449 C1446 1.403 . S
C1449 C1450 1.392 . S
C1449 C1453 1.495 . S
C1450 C1449 1.392 . S
C1450 C1451 1.385 . S
C1450 C1452 1.478 . S
C1451 H1445 0.930 . S
C1451 C1447 1.400 . S
C1451 C1450 1.385 . S
C1452 C1450 1.478 . S
C1452 C1454 1.381 . S
C1452 C1458 1.383 . S
C1453 C1449 1.495 . S
C1453 H1459 0.959 . S
C1453 H1460 0.961 . S
C1453 H1461 0.960 . S
C1454 C1452 1.381 . S
C1454 C1455 1.394 . S
C1454 H1462 0.930 . S
C1455 C1454 1.394 . S
C1455 C1456 1.383 . S
C1455 H1463 0.929 . S
C1456 C1455 1.383 . S
C1456 C1457 1.377 . S
C1457 H1441 0.930 . S
C1457 C1456 1.377 . S
C1457 C1458 1.379 . S
C1458 H1442 0.931 . S
C1458 C1452 1.383 . S
C1458 C1457 1.379 . S
H1459 C1453 0.959 . S
H1460 C1453 0.961 . S
H1461 C1453 0.960 . S
H1462 C1454 0.930 . S
H1463 C1455 0.929 . S
H1464 C1472 0.929 . S
H1465 C1474 0.930 . S
H1466 C1476 0.930 . S
H1467 C1479 0.929 . S
H1468 C1482 0.930 . S
H1469 C1484 0.960 . S
H1470 C1484 0.960 . S
H1471 C1484 0.960 . S
C1472 H1464 0.929 . S
C1472 C1473 1.377 . S
C1472 C1474 1.384 . S
C1473 C1472 1.377 . S
C1473 C1479 1.390 . S
C1474 H1465 0.930 . S
C1474 C1472 1.384 . S
C1474 C1475 1.372 . S
C1475 C1474 1.372 . S
C1475 C1476 1.400 . S
C1475 C1480 1.490 . S
C1476 H1466 0.930 . S
C1476 C1475 1.400 . S
C1476 C1479 1.386 . S
H1477 C1493 0.930 . S
H1478 C1494 0.931 . S
C1479 H1467 0.929 . S
C1479 C1473 1.390 . S
C1479 C1476 1.386 . S
C1480 C1475 1.490 . S
C1480 C1482 1.395 . S
C1480 C1483 1.403 . S
H1481 C1487 0.930 . S
C1482 H1468 0.930 . S
C1482 C1480 1.395 . S
C1482 C1485 1.403 . S
C1483 C1480 1.403 . S
C1483 C1484 1.524 . S
C1483 C1487 1.400 . S
C1484 H1469 0.960 . S
C1484 H1470 0.960 . S
C1484 H1471 0.960 . S
C1484 C1483 1.524 . S
C1485 C1482 1.403 . S
C1485 C1486 1.392 . S
C1485 C1489 1.495 . S
C1486 C1485 1.392 . S
C1486 C1487 1.385 . S
C1486 C1488 1.478 . S
C1487 H1481 0.930 . S
C1487 C1483 1.400 . S
C1487 C1486 1.385 . S
C1488 C1486 1.478 . S
C1488 C1490 1.381 . S
C1488 C1494 1.383 . S
C1489 C1485 1.495 . S
C1489 H1495 0.959 . S
C1489 H1496 0.961 . S
C1489 H1497 0.960 . S
C1490 C1488 1.381 . S
C1490 C1491 1.394 . S
C1490 H1498 0.930 . S
C1491 C1490 1.394 . S
C1491 C1492 1.383 . S
C1491 H1499 0.929 . S
C1492 C1491 1.383 . S
C1492 C1493 1.377 . S
C1493 H1477 0.930 . S
C1493 C1492 1.377 . S
C1493 C1494 1.379 . S
C1494 H1478 0.931 . S
C1494 C1488 1.383 . S
C1494 C1493 1.379 . S
H1495 C1489 0.959 . S
H1496 C1489 0.961 . S
H1497 C1489 0.960 . S
H1498 C1490 0.930 . S
H1499 C1491 0.929 . S
H1500 C1508 0.929 . S
H1501 C1510 0.930 . S
H1502 C1512 0.930 . S
H1503 C1515 0.929 . S
H1504 C1518 0.930 . S
H1505 C1520 0.960 . S
H1506 C1520 0.960 . S
H1507 C1520 0.960 1_554 S
C1508 H1500 0.929 . S
C1508 C1509 1.382 1_556 S
C1508 C1510 1.384 . S
C1509 C1508 1.382 1_554 S
C1509 C1515 1.386 . S
C1510 H1501 0.930 . S
C1510 C1508 1.384 . S
C1510 C1511 1.398 . S
C1511 C1510 1.398 . S
C1511 C1512 1.373 1_556 S
C1511 C1516 1.490 . S
C1512 H1502 0.930 . S
C1512 C1511 1.373 1_554 S
C1512 C1515 1.386 . S
H1513 C1529 0.930 . S
H1514 C1530 0.931 . S
C1515 H1503 0.929 . S
C1515 C1509 1.386 . S
C1515 C1512 1.386 . S
C1516 C1511 1.490 . S
C1516 C1518 1.392 1_556 S
C1516 C1519 1.406 . S
H1517 C1523 0.930 . S
C1518 H1504 0.930 . S
C1518 C1516 1.392 1_554 S
C1518 C1521 1.403 . S
C1519 C1516 1.406 . S
C1519 C1520 1.524 . S
C1519 C1523 1.400 . S
C1520 H1505 0.960 . S
C1520 H1506 0.960 . S
C1520 H1507 0.960 1_556 S
C1520 C1519 1.524 . S
C1521 C1518 1.403 . S
C1521 C1522 1.393 . S
C1521 C1525 1.495 . S
C1522 C1521 1.393 . S
C1522 C1523 1.384 1_554 S
C1522 C1524 1.477 . S
C1523 H1517 0.930 . S
C1523 C1519 1.400 . S
C1523 C1522 1.384 1_556 S
C1524 C1522 1.477 . S
C1524 C1526 1.345 1_554 S
C1524 C1530 1.420 . S
C1525 C1521 1.495 . S
C1525 H1531 0.959 . S
C1525 H1532 0.961 . S
C1525 H1533 0.960 1_554 S
C1526 C1524 1.345 1_556 S
C1526 C1527 1.394 . S
C1526 H1534 0.930 . S
C1527 C1526 1.394 . S
C1527 C1528 1.351 1_556 S
C1527 H1535 0.929 . S
C1528 C1527 1.351 1_554 S
C1528 C1529 1.410 . S
C1529 H1513 0.930 . S
C1529 C1528 1.410 . S
C1529 C1530 1.379 . S
C1530 H1514 0.931 . S
C1530 C1524 1.420 . S
C1530 C1529 1.379 . S
H1531 C1525 0.959 . S
H1532 C1525 0.961 . S
H1533 C1525 0.960 1_556 S
H1534 C1526 0.930 . S
H1535 C1527 0.929 . S
H1536 C1544 0.929 . S
H1537 C1546 0.930 . S
H1538 C1548 0.930 . S
H1539 C1551 0.929 . S
H1540 C1554 0.930 . S
H1541 C1556 0.960 . S
H1542 C1556 0.960 . S
H1543 C1556 0.960 . S
C1544 H1536 0.929 . S
C1544 C1545 1.392 . S
C1544 C1546 1.384 . S
C1545 C1544 1.392 . S
C1545 C1551 1.375 1_554 S
C1546 H1537 0.930 . S
C1546 C1544 1.384 . S
C1546 C1547 1.372 . S
C1547 C1546 1.372 . S
C1547 C1548 1.400 1_554 S
C1547 C1552 1.490 . S
C1548 H1538 0.930 . S
C1548 C1547 1.400 1_556 S
C1548 C1551 1.386 . S
H1549 C1565 0.930 . S
H1550 C1566 0.931 . S
C1551 H1539 0.929 . S
C1551 C1545 1.375 1_556 S
C1551 C1548 1.386 . S
C1552 C1547 1.490 . S
C1552 C1554 1.395 . S
C1552 C1555 1.403 1_554 S
H1553 C1559 0.930 . S
C1554 H1540 0.930 . S
C1554 C1552 1.395 . S
C1554 C1557 1.403 . S
C1555 C1552 1.403 1_556 S
C1555 C1556 1.524 . S
C1555 C1559 1.400 . S
C1556 H1541 0.960 . S
C1556 H1542 0.960 . S
C1556 H1543 0.960 . S
C1556 C1555 1.524 . S
C1557 C1554 1.403 . S
C1557 C1558 1.392 . S
C1557 C1561 1.495 . S
C1558 C1557 1.392 . S
C1558 C1559 1.385 1_554 S
C1558 C1560 1.478 . S
C1559 H1553 0.930 . S
C1559 C1555 1.400 . S
C1559 C1558 1.385 1_556 S
C1560 C1558 1.478 . S
C1560 C1562 1.381 . S
C1560 C1566 1.383 1_554 S
C1561 C1557 1.495 . S
C1561 H1567 0.959 . S
C1561 H1568 0.961 . S
C1561 H1569 0.960 . S
C1562 C1560 1.381 . S
C1562 C1563 1.394 . S
C1562 H1570 0.930 . S
C1563 C1562 1.394 . S
C1563 C1564 1.383 . S
C1563 H1571 0.929 . S
C1564 C1563 1.383 . S
C1564 C1565 1.377 1_554 S
C1565 H1549 0.930 . S
C1565 C1564 1.377 1_556 S
C1565 C1566 1.379 . S
C1566 H1550 0.931 . S
C1566 C1560 1.383 1_556 S
C1566 C1565 1.379 . S
H1567 C1561 0.959 . S
H1568 C1561 0.961 . S
H1569 C1561 0.960 . S
H1570 C1562 0.930 . S
H1571 C1563 0.929 . S
H1572 C1580 0.929 . S
H1573 C1582 0.930 . S
H1574 C1584 0.930 . S
H1575 C1587 0.929 . S
H1576 C1590 0.930 . S
H1577 C1592 0.960 . S
H1578 C1592 0.960 1_554 S
H1579 C1592 0.960 . S
C1580 H1572 0.929 . S
C1580 C1581 1.408 . S
C1580 C1582 1.384 . S
C1581 C1580 1.408 . S
C1581 C1587 1.360 1_554 S
C1582 H1573 0.930 . S
C1582 C1580 1.384 . S
C1582 C1583 1.372 . S
C1583 C1582 1.372 . S
C1583 C1584 1.400 1_554 S
C1583 C1588 1.490 . S
C1584 H1574 0.930 . S
C1584 C1583 1.400 1_556 S
C1584 C1587 1.386 . S
H1585 C1601 0.930 . S
H1586 C1602 0.931 . S
C1587 H1575 0.929 . S
C1587 C1581 1.360 1_556 S
C1587 C1584 1.386 . S
C1588 C1583 1.490 . S
C1588 C1590 1.395 . S
C1588 C1591 1.397 1_554 S
H1589 C1595 0.930 . S
C1590 H1576 0.930 . S
C1590 C1588 1.395 . S
C1590 C1593 1.403 . S
C1591 C1588 1.397 1_556 S
C1591 C1592 1.529 . S
C1591 C1595 1.401 . S
C1592 H1577 0.960 . S
C1592 H1578 0.960 1_556 S
C1592 H1579 0.960 . S
C1592 C1591 1.529 . S
C1593 C1590 1.403 . S
C1593 C1594 1.392 . S
C1593 C1597 1.495 . S
C1594 C1593 1.392 . S
C1594 C1595 1.385 1_554 S
C1594 C1596 1.478 . S
C1595 H1589 0.930 . S
C1595 C1591 1.401 . S
C1595 C1594 1.385 1_556 S
C1596 C1594 1.478 . S
C1596 C1598 1.381 . S
C1596 C1602 1.383 1_554 S
C1597 C1593 1.495 . S
C1597 H1603 0.959 . S
C1597 H1604 0.961 1_554 S
C1597 H1605 0.960 . S
C1598 C1596 1.381 . S
C1598 C1599 1.394 . S
C1598 H1606 0.930 . S
C1599 C1598 1.394 . S
C1599 C1600 1.407 . S
C1599 H1607 0.929 . S
C1600 C1599 1.407 . S
C1600 C1601 1.353 1_554 S
C1601 H1585 0.930 . S
C1601 C1600 1.353 1_556 S
C1601 C1602 1.379 . S
C1602 H1586 0.931 . S
C1602 C1596 1.383 1_556 S
C1602 C1601 1.379 . S
H1603 C1597 0.959 . S
H1604 C1597 0.961 1_556 S
H1605 C1597 0.960 . S
H1606 C1598 0.930 . S
H1607 C1599 0.929 . S
H1608 C1616 0.929 . S
H1609 C1618 0.930 . S
H1610 C1620 0.930 . S
H1611 C1623 0.929 . S
H1612 C1626 0.930 . S
H1613 C1628 0.960 . S
H1614 C1628 0.960 . S
H1615 C1628 0.926 1_556 S
C1616 H1608 0.929 . S
C1616 C1617 1.401 . S
C1616 C1618 1.384 . S
C1617 C1616 1.401 . S
C1617 C1623 1.368 1_554 S
C1618 H1609 0.930 . S
C1618 C1616 1.384 . S
C1618 C1619 1.372 . S
C1619 C1618 1.372 . S
C1619 C1620 1.400 1_554 S
C1619 C1624 1.490 . S
C1620 H1610 0.930 . S
C1620 C1619 1.400 1_556 S
C1620 C1623 1.386 . S
H1621 C1637 0.930 . S
H1622 C1638 0.931 . S
C1623 H1611 0.929 . S
C1623 C1617 1.368 1_556 S
C1623 C1620 1.386 . S
C1624 C1619 1.490 . S
C1624 C1626 1.395 1_554 S
C1624 C1627 1.403 . S
H1625 C1631 0.930 . S
C1626 H1612 0.930 . S
C1626 C1624 1.395 1_556 S
C1626 C1629 1.403 . S
C1627 C1624 1.403 . S
C1627 C1628 1.524 . S
C1627 C1631 1.400 . S
C1628 H1613 0.960 . S
C1628 H1614 0.960 . S
C1628 H1615 0.926 1_554 S
C1628 C1627 1.524 . S
C1629 C1626 1.403 . S
C1629 C1630 1.391 1_556 S
C1629 C1633 1.495 . S
C1630 C1629 1.391 1_554 S
C1630 C1631 1.386 . S
C1630 C1632 1.477 1_554 S
C1631 H1625 0.930 . S
C1631 C1627 1.400 . S
C1631 C1630 1.386 . S
C1632 C1630 1.477 1_556 S
C1632 C1634 1.369 1_556 S
C1632 C1638 1.394 . S
C1633 C1629 1.495 . S
C1633 H1639 0.959 . S
C1633 H1640 0.961 . S
C1633 H1641 0.960 1_556 S
C1634 C1632 1.369 1_554 S
C1634 C1635 1.394 . S
C1634 H1642 0.930 . S
C1635 C1634 1.394 . S
C1635 C1636 1.379 . S
C1635 H1643 0.929 . S
C1636 C1635 1.379 . S
C1636 C1637 1.381 1_554 S
C1637 H1621 0.930 . S
C1637 C1636 1.381 1_556 S
C1637 C1638 1.379 . S
C1638 H1622 0.931 . S
C1638 C1632 1.394 . S
C1638 C1637 1.379 . S
H1639 C1633 0.959 . S
H1640 C1633 0.961 . S
H1641 C1633 0.960 1_554 S
H1642 C1634 0.930 . S
H1643 C1635 0.929 . S
H1644 C1652 0.929 . S
H1645 C1654 0.930 . S
H1646 C1656 0.930 . S
H1647 C1659 0.929 . S
H1648 C1662 0.930 . S
H1649 C1664 0.960 . S
H1650 C1664 0.960 . S
H1651 C1664 0.960 . S
C1652 H1644 0.929 . S
C1652 C1653 1.377 1_655 S
C1652 C1654 1.384 . S
C1653 C1652 1.377 1_455 S
C1653 C1659 1.390 . S
C1654 H1645 0.930 . S
C1654 C1652 1.384 . S
C1654 C1655 1.372 1_655 S
C1655 C1654 1.372 1_455 S
C1655 C1656 1.400 . S
C1655 C1660 1.490 . S
C1656 H1646 0.930 . S
C1656 C1655 1.400 . S
C1656 C1659 1.386 . S
H1657 C1673 0.930 . S
H1658 C1674 0.931 . S
C1659 H1647 0.929 . S
C1659 C1653 1.390 . S
C1659 C1656 1.386 . S
C1660 C1655 1.490 . S
C1660 C1662 1.395 . S
C1660 C1663 1.403 1_455 S
H1661 C1667 0.930 . S
C1662 H1648 0.930 . S
C1662 C1660 1.395 . S
C1662 C1665 1.403 . S
C1663 C1660 1.403 1_655 S
C1663 C1664 1.524 . S
C1663 C1667 1.400 . S
C1664 H1649 0.960 . S
C1664 H1650 0.960 . S
C1664 H1651 0.960 . S
C1664 C1663 1.524 . S
C1665 C1662 1.403 . S
C1665 C1666 1.392 . S
C1665 C1669 1.495 . S
C1666 C1665 1.392 . S
C1666 C1667 1.385 1_455 S
C1666 C1668 1.478 . S
C1667 H1661 0.930 . S
C1667 C1663 1.400 . S
C1667 C1666 1.385 1_655 S
C1668 C1666 1.478 . S
C1668 C1670 1.381 1_455 S
C1668 C1674 1.383 . S
C1669 C1665 1.495 . S
C1669 H1675 0.959 . S
C1669 H1676 0.961 . S
C1669 H1677 0.960 . S
C1670 C1668 1.381 1_655 S
C1670 C1671 1.394 . S
C1670 H1678 0.930 . S
C1671 C1670 1.394 . S
C1671 C1672 1.383 1_655 S
C1671 H1679 0.929 . S
C1672 C1671 1.383 1_455 S
C1672 C1673 1.377 . S
C1673 H1657 0.930 . S
C1673 C1672 1.377 . S
C1673 C1674 1.379 . S
C1674 H1658 0.931 . S
C1674 C1668 1.383 . S
C1674 C1673 1.379 . S
H1675 C1669 0.959 . S
H1676 C1669 0.961 . S
H1677 C1669 0.960 . S
H1678 C1670 0.930 . S
H1679 C1671 0.929 . S
H1680 C1688 0.929 . S
H1681 C1690 0.930 . S
H1682 C1692 0.930 . S
H1683 C1695 0.929 . S
H1684 C1698 0.930 . S
H1685 C1700 0.960 . S
H1686 C1700 0.960 . S
H1687 C1700 0.956 . S
C1688 H1680 0.929 . S
C1688 C1689 1.354 1_565 S
C1688 C1690 1.384 . S
C1689 C1688 1.354 1_545 S
C1689 C1695 1.413 . S
C1690 H1681 0.930 . S
C1690 C1688 1.384 . S
C1690 C1691 1.375 1_565 S
C1691 C1690 1.375 1_545 S
C1691 C1692 1.396 . S
C1691 C1696 1.490 . S
C1692 H1682 0.930 . S
C1692 C1691 1.396 . S
C1692 C1695 1.386 . S
H1693 C1709 0.930 . S
H1694 C1710 0.931 . S
C1695 H1683 0.929 . S
C1695 C1689 1.413 . S
C1695 C1692 1.386 . S
C1696 C1691 1.490 . S
C1696 C1698 1.396 . S
C1696 C1699 1.401 1_545 S
H1697 C1703 0.930 . S
C1698 H1684 0.930 . S
C1698 C1696 1.396 . S
C1698 C1701 1.403 . S
C1699 C1696 1.401 1_565 S
C1699 C1700 1.524 . S
C1699 C1703 1.400 . S
C1700 H1685 0.960 . S
C1700 H1686 0.960 . S
C1700 H1687 0.956 . S
C1700 C1699 1.524 . S
C1701 C1698 1.403 . S
C1701 C1702 1.392 . S
C1701 C1705 1.495 . S
C1702 C1701 1.392 . S
C1702 C1703 1.385 1_545 S
C1702 C1704 1.478 . S
C1703 H1697 0.930 . S
C1703 C1699 1.400 . S
C1703 C1702 1.385 1_565 S
C1704 C1702 1.478 . S
C1704 C1706 1.381 1_545 S
C1704 C1710 1.383 . S
C1705 C1701 1.495 . S
C1705 H1711 0.959 . S
C1705 H1712 0.961 . S
C1705 H1713 0.955 . S
C1706 C1704 1.381 1_565 S
C1706 C1707 1.394 . S
C1706 H1714 0.930 . S
C1707 C1706 1.394 . S
C1707 C1708 1.383 1_565 S
C1707 H1715 0.929 . S
C1708 C1707 1.383 1_545 S
C1708 C1709 1.377 . S
C1709 H1693 0.930 . S
C1709 C1708 1.377 . S
C1709 C1710 1.379 . S
C1710 H1694 0.931 . S
C1710 C1704 1.383 . S
C1710 C1709 1.379 . S
H1711 C1705 0.959 . S
H1712 C1705 0.961 . S
H1713 C1705 0.955 . S
H1714 C1706 0.930 . S
H1715 C1707 0.929 . S
H1716 C1724 0.929 . S
H1717 C1726 0.930 . S
H1718 C1728 0.930 . S
H1719 C1731 0.929 . S
H1720 C1734 0.930 . S
H1721 C1736 0.960 . S
H1722 C1736 0.960 . S
H1723 C1736 0.960 . S
C1724 H1716 0.929 . S
C1724 C1725 1.377 1_655 S
C1724 C1726 1.384 . S
C1725 C1724 1.377 1_455 S
C1725 C1731 1.390 . S
C1726 H1717 0.930 . S
C1726 C1724 1.384 . S
C1726 C1727 1.372 1_655 S
C1727 C1726 1.372 1_455 S
C1727 C1728 1.400 . S
C1727 C1732 1.491 . S
C1728 H1718 0.930 . S
C1728 C1727 1.400 . S
C1728 C1731 1.386 . S
H1729 C1745 0.930 . S
H1730 C1746 0.931 . S
C1731 H1719 0.929 . S
C1731 C1725 1.390 . S
C1731 C1728 1.386 . S
C1732 C1727 1.491 . S
C1732 C1734 1.375 1_455 S
C1732 C1735 1.421 . S
H1733 C1739 0.930 . S
C1734 H1720 0.930 . S
C1734 C1732 1.375 1_655 S
C1734 C1737 1.403 . S
C1735 C1732 1.421 . S
C1735 C1736 1.524 . S
C1735 C1739 1.400 . S
C1736 H1721 0.960 . S
C1736 H1722 0.960 . S
C1736 H1723 0.960 . S
C1736 C1735 1.524 . S
C1737 C1734 1.403 . S
C1737 C1738 1.392 . S
C1737 C1741 1.495 . S
C1738 C1737 1.392 . S
C1738 C1739 1.385 1_655 S
C1738 C1740 1.478 . S
C1739 H1733 0.930 . S
C1739 C1735 1.400 . S
C1739 C1738 1.385 1_455 S
C1740 C1738 1.478 . S
C1740 C1742 1.381 . S
C1740 C1746 1.383 1_655 S
C1741 C1737 1.495 . S
C1741 H1747 0.959 . S
C1741 H1748 0.961 . S
C1741 H1749 0.960 . S
C1742 C1740 1.381 . S
C1742 C1743 1.394 . S
C1742 H1750 0.930 . S
C1743 C1742 1.394 . S
C1743 C1744 1.343 1_655 S
C1743 H1751 0.929 . S
C1744 C1743 1.343 1_455 S
C1744 C1745 1.415 . S
C1745 H1729 0.930 . S
C1745 C1744 1.415 . S
C1745 C1746 1.379 . S
C1746 H1730 0.931 . S
C1746 C1740 1.383 1_455 S
C1746 C1745 1.379 . S
H1747 C1741 0.959 . S
H1748 C1741 0.961 . S
H1749 C1741 0.960 . S
H1750 C1742 0.930 . S
H1751 C1743 0.929 . S
H1752 C1760 0.929 . S
H1753 C1762 0.930 . S
H1754 C1764 0.930 . S
H1755 C1767 0.929 . S
H1756 C1770 0.930 . S
H1757 C1772 0.960 . S
H1758 C1772 0.960 . S
H1759 C1772 0.960 . S
C1760 H1752 0.929 . S
C1760 C1761 1.377 . S
C1760 C1762 1.384 . S
C1761 C1760 1.377 . S
C1761 C1767 1.390 1_545 S
C1762 H1753 0.930 . S
C1762 C1760 1.384 . S
C1762 C1763 1.372 . S
C1763 C1762 1.372 . S
C1763 C1764 1.400 1_545 S
C1763 C1768 1.490 . S
C1764 H1754 0.930 . S
C1764 C1763 1.400 1_565 S
C1764 C1767 1.386 . S
H1765 C1781 0.930 . S
H1766 C1782 0.931 . S
C1767 H1755 0.929 . S
C1767 C1761 1.390 1_565 S
C1767 C1764 1.386 . S
C1768 C1763 1.490 . S
C1768 C1770 1.395 . S
C1768 C1771 1.403 1_545 S
H1769 C1775 0.930 . S
C1770 H1756 0.930 . S
C1770 C1768 1.395 . S
C1770 C1773 1.403 . S
C1771 C1768 1.403 1_565 S
C1771 C1772 1.524 . S
C1771 C1775 1.400 . S
C1772 H1757 0.960 . S
C1772 H1758 0.960 . S
C1772 H1759 0.960 . S
C1772 C1771 1.524 . S
C1773 C1770 1.403 . S
C1773 C1774 1.392 . S
C1773 C1777 1.495 . S
C1774 C1773 1.392 . S
C1774 C1775 1.385 1_545 S
C1774 C1776 1.478 . S
C1775 H1769 0.930 . S
C1775 C1771 1.400 . S
C1775 C1774 1.385 1_565 S
C1776 C1774 1.478 . S
C1776 C1778 1.381 . S
C1776 C1782 1.383 1_545 S
C1777 C1773 1.495 . S
C1777 H1783 0.959 . S
C1777 H1784 0.961 . S
C1777 H1785 0.960 . S
C1778 C1776 1.381 . S
C1778 C1779 1.394 . S
C1778 H1786 0.930 . S
C1779 C1778 1.394 . S
C1779 C1780 1.383 . S
C1779 H1787 0.929 . S
C1780 C1779 1.383 . S
C1780 C1781 1.377 1_545 S
C1781 H1765 0.930 . S
C1781 C1780 1.377 1_565 S
C1781 C1782 1.379 . S
C1782 H1766 0.931 . S
C1782 C1776 1.383 1_565 S
C1782 C1781 1.379 . S
H1783 C1777 0.959 . S
H1784 C1777 0.961 . S
H1785 C1777 0.960 . S
H1786 C1778 0.930 . S
H1787 C1779 0.929 . S
H1788 C1796 0.929 . S
H1789 C1798 0.930 . S
H1790 C1800 0.930 . S
H1791 C1803 0.929 . S
H1792 C1806 0.930 . S
H1793 C1808 0.960 . S
H1794 C1808 0.960 1_455 S
H1795 C1808 0.960 . S
C1796 H1788 0.929 . S
C1796 C1797 1.377 . S
C1796 C1798 1.384 . S
C1797 C1796 1.377 . S
C1797 C1803 1.390 1_455 S
C1798 H1789 0.930 . S
C1798 C1796 1.384 . S
C1798 C1799 1.372 . S
C1799 C1798 1.372 . S
C1799 C1800 1.400 1_455 S
C1799 C1804 1.490 . S
C1800 H1790 0.930 . S
C1800 C1799 1.400 1_655 S
C1800 C1803 1.386 . S
H1801 C1817 0.930 . S
H1802 C1818 0.931 . S
C1803 H1791 0.929 . S
C1803 C1797 1.390 1_655 S
C1803 C1800 1.386 . S
C1804 C1799 1.490 . S
C1804 C1806 1.395 . S
C1804 C1807 1.405 . S
H1805 C1811 0.929 1_655 S
C1806 H1792 0.930 . S
C1806 C1804 1.395 . S
C1806 C1809 1.403 . S
C1807 C1804 1.405 . S
C1807 C1808 1.522 1_455 S
C1807 C1811 1.400 . S
C1808 H1793 0.960 . S
C1808 H1794 0.960 1_655 S
C1808 H1795 0.960 . S
C1808 C1807 1.522 1_655 S
C1809 C1806 1.403 . S
C1809 C1810 1.392 . S
C1809 C1813 1.495 . S
C1810 C1809 1.392 . S
C1810 C1811 1.387 . S
C1810 C1812 1.478 . S
C1811 H1805 0.929 1_455 S
C1811 C1807 1.400 . S
C1811 C1810 1.387 . S
C1812 C1810 1.478 . S
C1812 C1814 1.381 . S
C1812 C1818 1.383 1_455 S
C1813 C1809 1.495 . S
C1813 H1819 0.959 . S
C1813 H1820 0.961 1_455 S
C1813 H1821 0.960 . S
C1814 C1812 1.381 . S
C1814 C1815 1.394 . S
C1814 H1822 0.930 . S
C1815 C1814 1.394 . S
C1815 C1816 1.383 . S
C1815 H1823 0.929 . S
C1816 C1815 1.383 . S
C1816 C1817 1.377 1_455 S
C1817 H1801 0.930 . S
C1817 C1816 1.377 1_655 S
C1817 C1818 1.379 . S
C1818 H1802 0.931 . S
C1818 C1812 1.383 1_655 S
C1818 C1817 1.379 . S
H1819 C1813 0.959 . S
H1820 C1813 0.961 1_655 S
H1821 C1813 0.960 . S
H1822 C1814 0.930 . S
H1823 C1815 0.929 . S
H1824 C1832 0.929 . S
H1825 C1834 0.930 . S
H1826 C1836 0.930 . S
H1827 C1839 0.929 . S
H1828 C1842 0.930 . S
H1829 C1844 0.960 . S
H1830 C1844 0.960 1_545 S
H1831 C1844 0.960 . S
C1832 H1824 0.929 . S
C1832 C1833 1.377 . S
C1832 C1834 1.384 . S
C1833 C1832 1.377 . S
C1833 C1839 1.390 1_545 S
C1834 H1825 0.930 . S
C1834 C1832 1.384 . S
C1834 C1835 1.372 . S
C1835 C1834 1.372 . S
C1835 C1836 1.400 1_545 S
C1835 C1840 1.490 . S
C1836 H1826 0.930 . S
C1836 C1835 1.400 1_565 S
C1836 C1839 1.386 . S
H1837 C1853 0.930 . S
H1838 C1854 0.931 . S
C1839 H1827 0.929 . S
C1839 C1833 1.390 1_565 S
C1839 C1836 1.386 . S
C1840 C1835 1.490 . S
C1840 C1842 1.395 . S
C1840 C1843 1.403 1_545 S
H1841 C1847 0.930 . S
C1842 H1828 0.930 . S
C1842 C1840 1.395 . S
C1842 C1845 1.403 . S
C1843 C1840 1.403 1_565 S
C1843 C1844 1.524 . S
C1843 C1847 1.400 . S
C1844 H1829 0.960 . S
C1844 H1830 0.960 1_565 S
C1844 H1831 0.960 . S
C1844 C1843 1.524 . S
C1845 C1842 1.403 . S
C1845 C1846 1.392 . S
C1845 C1849 1.495 . S
C1846 C1845 1.392 . S
C1846 C1847 1.385 1_545 S
C1846 C1848 1.478 . S
C1847 H1841 0.930 . S
C1847 C1843 1.400 . S
C1847 C1846 1.385 1_565 S
C1848 C1846 1.478 . S
C1848 C1850 1.381 . S
C1848 C1854 1.383 1_545 S
C1849 C1845 1.495 . S
C1849 H1855 0.959 . S
C1849 H1856 0.961 1_545 S
C1849 H1857 0.960 . S
C1850 C1848 1.381 . S
C1850 C1851 1.394 . S
C1850 H1858 0.930 . S
C1851 C1850 1.394 . S
C1851 C1852 1.383 . S
C1851 H1859 0.929 . S
C1852 C1851 1.383 . S
C1852 C1853 1.377 1_545 S
C1853 H1837 0.930 . S
C1853 C1852 1.377 1_565 S
C1853 C1854 1.379 . S
C1854 H1838 0.931 . S
C1854 C1848 1.383 1_565 S
C1854 C1853 1.379 . S
H1855 C1849 0.959 . S
H1856 C1849 0.961 1_565 S
H1857 C1849 0.960 . S
H1858 C1850 0.930 . S
H1859 C1851 0.929 . S
H1860 C1868 0.929 . S
H1861 C1870 0.930 . S
H1862 C1872 0.930 . S
H1863 C1875 0.929 . S
H1864 C1878 0.930 . S
H1865 C1880 0.960 . S
H1866 C1880 1.006 . S
H1867 C1880 0.919 1_455 S
C1868 H1860 0.929 . S
C1868 C1869 1.377 1_655 S
C1868 C1870 1.384 . S
C1869 C1868 1.377 1_455 S
C1869 C1875 1.390 . S
C1870 H1861 0.930 . S
C1870 C1868 1.384 . S
C1870 C1871 1.333 1_655 S
C1871 C1870 1.333 1_455 S
C1871 C1872 1.440 . S
C1871 C1876 1.490 . S
C1872 H1862 0.930 . S
C1872 C1871 1.440 . S
C1872 C1875 1.386 . S
H1873 C1889 0.930 . S
H1874 C1890 0.931 . S
C1875 H1863 0.929 . S
C1875 C1869 1.390 . S
C1875 C1872 1.386 . S
C1876 C1871 1.490 . S
C1876 C1878 1.396 . S
C1876 C1879 1.402 . S
H1877 C1883 0.930 . S
C1878 H1864 0.930 . S
C1878 C1876 1.396 . S
C1878 C1881 1.403 . S
C1879 C1876 1.402 . S
C1879 C1880 1.521 1_455 S
C1879 C1883 1.401 . S
C1880 H1865 0.960 . S
C1880 H1866 1.006 . S
C1880 H1867 0.919 1_655 S
C1880 C1879 1.521 1_655 S
C1881 C1878 1.403 . S
C1881 C1882 1.392 . S
C1881 C1885 1.495 . S
C1882 C1881 1.392 . S
C1882 C1883 1.385 . S
C1882 C1884 1.478 . S
C1883 H1877 0.930 . S
C1883 C1879 1.401 . S
C1883 C1882 1.385 . S
C1884 C1882 1.478 . S
C1884 C1886 1.381 1_455 S
C1884 C1890 1.383 . S
C1885 C1881 1.495 . S
C1885 H1891 0.959 . S
C1885 H1892 0.961 . S
C1885 H1893 0.960 1_455 S
C1886 C1884 1.381 1_655 S
C1886 C1887 1.394 . S
C1886 H1894 0.930 . S
C1887 C1886 1.394 . S
C1887 C1888 1.383 1_655 S
C1887 H1895 0.929 . S
C1888 C1887 1.383 1_455 S
C1888 C1889 1.377 . S
C1889 H1873 0.930 . S
C1889 C1888 1.377 . S
C1889 C1890 1.379 . S
C1890 H1874 0.931 . S
C1890 C1884 1.383 . S
C1890 C1889 1.379 . S
H1891 C1885 0.959 . S
H1892 C1885 0.961 . S
H1893 C1885 0.960 1_655 S
H1894 C1886 0.930 . S
H1895 C1887 0.929 . S
H1896 C1904 0.929 . S
H1897 C1906 0.930 . S
H1898 C1908 0.930 . S
H1899 C1911 0.929 . S
H1900 C1914 0.930 . S
H1901 C1916 0.960 . S
H1902 C1916 0.960 . S
H1903 C1916 0.960 . S
C1904 H1896 0.929 . S
C1904 C1905 1.377 . S
C1904 C1906 1.384 . S
C1905 C1904 1.377 . S
C1905 C1911 1.390 1_545 S
C1906 H1897 0.930 . S
C1906 C1904 1.384 . S
C1906 C1907 1.372 . S
C1907 C1906 1.372 . S
C1907 C1908 1.400 1_545 S
C1907 C1912 1.490 . S
C1908 H1898 0.930 . S
C1908 C1907 1.400 1_565 S
C1908 C1911 1.386 . S
H1909 C1925 0.930 . S
H1910 C1926 0.931 . S
C1911 H1899 0.929 . S
C1911 C1905 1.390 1_565 S
C1911 C1908 1.386 . S
C1912 C1907 1.490 . S
C1912 C1914 1.395 1_545 S
C1912 C1915 1.403 . S
H1913 C1919 0.930 . S
C1914 H1900 0.930 . S
C1914 C1912 1.395 1_565 S
C1914 C1917 1.403 . S
C1915 C1912 1.403 . S
C1915 C1916 1.524 . S
C1915 C1919 1.400 . S
C1916 H1901 0.960 . S
C1916 H1902 0.960 . S
C1916 H1903 0.960 . S
C1916 C1915 1.524 . S
C1917 C1914 1.403 . S
C1917 C1918 1.392 . S
C1917 C1921 1.495 . S
C1918 C1917 1.392 . S
C1918 C1919 1.385 1_565 S
C1918 C1920 1.478 . S
C1919 H1913 0.930 . S
C1919 C1915 1.400 . S
C1919 C1918 1.385 1_545 S
C1920 C1918 1.478 . S
C1920 C1922 1.381 1_565 S
C1920 C1926 1.383 . S
C1921 C1917 1.495 . S
C1921 H1927 0.959 . S
C1921 H1928 0.961 . S
C1921 H1929 0.960 . S
C1922 C1920 1.381 1_545 S
C1922 C1923 1.394 . S
C1922 H1930 0.930 . S
C1923 C1922 1.394 . S
C1923 C1924 1.382 1_545 S
C1923 H1931 0.929 . S
C1924 C1923 1.382 1_565 S
C1924 C1925 1.378 . S
C1925 H1909 0.930 . S
C1925 C1924 1.378 . S
C1925 C1926 1.379 . S
C1926 H1910 0.931 . S
C1926 C1920 1.383 . S
C1926 C1925 1.379 . S
H1927 C1921 0.959 . S
H1928 C1921 0.961 . S
H1929 C1921 0.960 . S
H1930 C1922 0.930 . S
H1931 C1923 0.929 . S
H1932 C1940 0.929 . S
H1933 C1942 0.930 . S
H1934 C1944 0.930 . S
H1935 C1947 0.929 . S
H1936 C1950 0.930 . S
H1937 C1952 0.960 . S
H1938 C1952 0.960 . S
H1939 C1952 0.960 . S
C1940 H1932 0.929 . S
C1940 C1941 1.377 1_655 S
C1940 C1942 1.384 . S
C1941 C1940 1.377 1_455 S
C1941 C1947 1.390 . S
C1942 H1933 0.930 . S
C1942 C1940 1.384 . S
C1942 C1943 1.372 1_655 S
C1943 C1942 1.372 1_455 S
C1943 C1944 1.400 . S
C1943 C1948 1.490 . S
C1944 H1934 0.930 . S
C1944 C1943 1.400 . S
C1944 C1947 1.386 . S
H1945 C1961 0.930 . S
H1946 C1962 0.931 . S
C1947 H1935 0.929 . S
C1947 C1941 1.390 . S
C1947 C1944 1.386 . S
C1948 C1943 1.490 . S
C1948 C1950 1.395 . S
C1948 C1951 1.403 1_455 S
H1949 C1955 0.930 . S
C1950 H1936 0.930 . S
C1950 C1948 1.395 . S
C1950 C1953 1.403 . S
C1951 C1948 1.403 1_655 S
C1951 C1952 1.524 . S
C1951 C1955 1.400 . S
C1952 H1937 0.960 . S
C1952 H1938 0.960 . S
C1952 H1939 0.960 . S
C1952 C1951 1.524 . S
C1953 C1950 1.403 . S
C1953 C1954 1.392 . S
C1953 C1957 1.495 . S
C1954 C1953 1.392 . S
C1954 C1955 1.385 1_455 S
C1954 C1956 1.478 . S
C1955 H1949 0.930 . S
C1955 C1951 1.400 . S
C1955 C1954 1.385 1_655 S
C1956 C1954 1.478 . S
C1956 C1958 1.373 1_455 S
C1956 C1962 1.383 . S
C1957 C1953 1.495 . S
C1957 H1963 0.959 . S
C1957 H1964 0.961 . S
C1957 H1965 0.960 . S
C1958 C1956 1.373 1_655 S
C1958 C1959 1.396 . S
C1958 H1966 0.938 . S
C1959 C1958 1.396 . S
C1959 C1960 1.383 1_655 S
C1959 H1967 0.929 . S
C1960 C1959 1.383 1_455 S
C1960 C1961 1.377 . S
C1961 H1945 0.930 . S
C1961 C1960 1.377 . S
C1961 C1962 1.379 . S
C1962 H1946 0.931 . S
C1962 C1956 1.383 . S
C1962 C1961 1.379 . S
H1963 C1957 0.959 . S
H1964 C1957 0.961 . S
H1965 C1957 0.960 . S
H1966 C1958 0.938 . S
H1967 C1959 0.929 . S
H1968 C1976 0.929 . S
H1969 C1978 0.930 . S
H1970 C1980 0.930 . S
H1971 C1983 0.929 . S
H1972 C1986 0.930 . S
H1973 C1988 0.960 . S
H1974 C1988 0.960 . S
H1975 C1988 0.960 . S
C1976 H1968 0.929 . S
C1976 C1977 1.371 1_565 S
C1976 C1978 1.384 . S
C1977 C1976 1.371 1_545 S
C1977 C1983 1.396 . S
C1978 H1969 0.930 . S
C1978 C1976 1.384 . S
C1978 C1979 1.369 1_565 S
C1979 C1978 1.369 1_545 S
C1979 C1980 1.403 . S
C1979 C1984 1.490 . S
C1980 H1970 0.930 . S
C1980 C1979 1.403 . S
C1980 C1983 1.386 . S
H1981 C1997 0.930 . S
H1982 C1998 0.931 . S
C1983 H1971 0.929 . S
C1983 C1977 1.396 . S
C1983 C1980 1.386 . S
C1984 C1979 1.490 . S
C1984 C1986 1.428 . S
C1984 C1987 1.372 1_545 S
H1985 C1991 0.930 . S
C1986 H1972 0.930 . S
C1986 C1984 1.428 . S
C1986 C1989 1.403 . S
C1987 C1984 1.372 1_565 S
C1987 C1988 1.524 . S
C1987 C1991 1.400 . S
C1988 H1973 0.960 . S
C1988 H1974 0.960 . S
C1988 H1975 0.960 . S
C1988 C1987 1.524 . S
C1989 C1986 1.403 . S
C1989 C1990 1.392 . S
C1989 C1993 1.495 . S
C1990 C1989 1.392 . S
C1990 C1991 1.385 1_545 S
C1990 C1992 1.478 . S
C1991 H1985 0.930 . S
C1991 C1987 1.400 . S
C1991 C1990 1.385 1_565 S
C1992 C1990 1.478 . S
C1992 C1994 1.381 1_545 S
C1992 C1998 1.383 . S
C1993 C1989 1.495 . S
C1993 H1999 0.959 . S
C1993 H2000 0.961 . S
C1993 H2001 0.960 . S
C1994 C1992 1.381 1_565 S
C1994 C1995 1.394 . S
C1994 H2002 0.930 . S
C1995 C1994 1.394 . S
C1995 C1996 1.383 1_565 S
C1995 H2003 0.929 . S
C1996 C1995 1.383 1_545 S
C1996 C1997 1.377 . S
C1997 H1981 0.930 . S
C1997 C1996 1.377 . S
C1997 C1998 1.379 . S
C1998 H1982 0.931 . S
C1998 C1992 1.383 . S
C1998 C1997 1.379 . S
H1999 C1993 0.959 . S
H2000 C1993 0.961 . S
H2001 C1993 0.960 . S
H2002 C1994 0.930 . S
H2003 C1995 0.929 . S
H2004 C2012 0.929 . S
H2005 C2014 0.930 . S
H2006 C2016 0.930 . S
H2007 C2019 0.929 . S
H2008 C2022 0.930 . S
H2009 C2024 0.960 . S
H2010 C2024 0.960 . S
H2011 C2024 0.960 . S
C2012 H2004 0.929 . S
C2012 C2013 1.377 1_655 S
C2012 C2014 1.384 . S
C2013 C2012 1.377 1_455 S
C2013 C2019 1.390 . S
C2014 H2005 0.930 . S
C2014 C2012 1.384 . S
C2014 C2015 1.372 1_655 S
C2015 C2014 1.372 1_455 S
C2015 C2016 1.400 . S
C2015 C2020 1.491 . S
C2016 H2006 0.930 . S
C2016 C2015 1.400 . S
C2016 C2019 1.386 . S
H2017 C2033 0.930 . S
H2018 C2034 0.931 . S
C2019 H2007 0.929 . S
C2019 C2013 1.390 . S
C2019 C2016 1.386 . S
C2020 C2015 1.491 . S
C2020 C2022 1.368 1_455 S
C2020 C2023 1.428 . S
H2021 C2027 0.930 . S
C2022 H2008 0.930 . S
C2022 C2020 1.368 1_655 S
C2022 C2025 1.403 . S
C2023 C2020 1.428 . S
C2023 C2024 1.524 . S
C2023 C2027 1.400 . S
C2024 H2009 0.960 . S
C2024 H2010 0.960 . S
C2024 H2011 0.960 . S
C2024 C2023 1.524 . S
C2025 C2022 1.403 . S
C2025 C2026 1.426 . S
C2025 C2029 1.495 . S
C2026 C2025 1.426 . S
C2026 C2027 1.351 1_655 S
C2026 C2028 1.477 . S
C2027 H2021 0.930 . S
C2027 C2023 1.400 . S
C2027 C2026 1.351 1_455 S
C2028 C2026 1.477 . S
C2028 C2030 1.404 . S
C2028 C2034 1.359 1_655 S
C2029 C2025 1.495 . S
C2029 H2035 0.959 . S
C2029 H2036 0.961 . S
C2029 H2037 0.960 . S
C2030 C2028 1.404 . S
C2030 C2031 1.394 . S
C2030 H2038 0.930 . S
C2031 C2030 1.394 . S
C2031 C2032 1.383 1_655 S
C2031 H2039 0.929 . S
C2032 C2031 1.383 1_455 S
C2032 C2033 1.377 . S
C2033 H2017 0.930 . S
C2033 C2032 1.377 . S
C2033 C2034 1.379 . S
C2034 H2018 0.931 . S
C2034 C2028 1.359 1_455 S
C2034 C2033 1.379 . S
H2035 C2029 0.959 . S
H2036 C2029 0.961 . S
H2037 C2029 0.960 . S
H2038 C2030 0.930 . S
H2039 C2031 0.929 . S
H2040 C2048 0.929 . S
H2041 C2050 0.930 . S
H2042 C2052 0.930 . S
H2043 C2055 0.929 . S
H2044 C2058 0.930 . S
H2045 C2060 0.960 . S
H2046 C2060 0.960 . S
H2047 C2060 0.960 . S
C2048 H2040 0.929 . S
C2048 C2049 1.377 . S
C2048 C2050 1.384 . S
C2049 C2048 1.377 . S
C2049 C2055 1.390 1_545 S
C2050 H2041 0.930 . S
C2050 C2048 1.384 . S
C2050 C2051 1.372 . S
C2051 C2050 1.372 . S
C2051 C2052 1.400 1_545 S
C2051 C2056 1.492 . S
C2052 H2042 0.930 . S
C2052 C2051 1.400 1_565 S
C2052 C2055 1.386 . S
H2053 C2069 0.930 . S
H2054 C2070 0.931 . S
C2055 H2043 0.929 . S
C2055 C2049 1.390 1_565 S
C2055 C2052 1.386 . S
C2056 C2051 1.492 . S
C2056 C2058 1.367 1_545 S
C2056 C2059 1.430 . S
H2057 C2063 0.930 . S
C2058 H2044 0.930 . S
C2058 C2056 1.367 1_565 S
C2058 C2061 1.403 . S
C2059 C2056 1.430 . S
C2059 C2060 1.524 . S
C2059 C2063 1.400 . S
C2060 H2045 0.960 . S
C2060 H2046 0.960 . S
C2060 H2047 0.960 . S
C2060 C2059 1.524 . S
C2061 C2058 1.403 . S
C2061 C2062 1.392 . S
C2061 C2065 1.495 . S
C2062 C2061 1.392 . S
C2062 C2063 1.385 1_565 S
C2062 C2064 1.478 . S
C2063 H2057 0.930 . S
C2063 C2059 1.400 . S
C2063 C2062 1.385 1_545 S
C2064 C2062 1.478 . S
C2064 C2066 1.381 1_565 S
C2064 C2070 1.383 . S
C2065 C2061 1.495 . S
C2065 H2071 0.959 . S
C2065 H2072 0.961 . S
C2065 H2073 0.960 . S
C2066 C2064 1.381 1_545 S
C2066 C2067 1.394 . S
C2066 H2074 0.930 . S
C2067 C2066 1.394 . S
C2067 C2068 1.375 1_545 S
C2067 H2075 0.929 . S
C2068 C2067 1.375 1_565 S
C2068 C2069 1.386 . S
C2069 H2053 0.930 . S
C2069 C2068 1.386 . S
C2069 C2070 1.379 . S
C2070 H2054 0.931 . S
C2070 C2064 1.383 . S
C2070 C2069 1.379 . S
H2071 C2065 0.959 . S
H2072 C2065 0.961 . S
H2073 C2065 0.960 . S
H2074 C2066 0.930 . S
H2075 C2067 0.929 . S
H2076 C2084 0.929 . S
H2077 C2086 0.930 . S
H2078 C2088 0.930 . S
H2079 C2091 0.929 . S
H2080 C2094 0.930 . S
H2081 C2096 0.960 . S
H2082 C2096 0.960 . S
H2083 C2096 0.960 . S
C2084 H2076 0.929 . S
C2084 C2085 1.377 1_655 S
C2084 C2086 1.384 . S
C2085 C2084 1.377 1_455 S
C2085 C2091 1.390 . S
C2086 H2077 0.930 . S
C2086 C2084 1.384 . S
C2086 C2087 1.372 1_655 S
C2087 C2086 1.372 1_455 S
C2087 C2088 1.400 . S
C2087 C2092 1.490 . S
C2088 H2078 0.930 . S
C2088 C2087 1.400 . S
C2088 C2091 1.386 . S
H2089 C2105 0.930 . S
H2090 C2106 0.931 . S
C2091 H2079 0.929 . S
C2091 C2085 1.390 . S
C2091 C2088 1.386 . S
C2092 C2087 1.490 . S
C2092 C2094 1.395 1_455 S
C2092 C2095 1.403 . S
H2093 C2099 0.930 . S
C2094 H2080 0.930 . S
C2094 C2092 1.395 1_655 S
C2094 C2097 1.403 . S
C2095 C2092 1.403 . S
C2095 C2096 1.524 . S
C2095 C2099 1.400 . S
C2096 H2081 0.960 . S
C2096 H2082 0.960 . S
C2096 H2083 0.960 . S
C2096 C2095 1.524 . S
C2097 C2094 1.403 . S
C2097 C2098 1.392 . S
C2097 C2101 1.495 . S
C2098 C2097 1.392 . S
C2098 C2099 1.385 1_655 S
C2098 C2100 1.478 . S
C2099 H2093 0.930 . S
C2099 C2095 1.400 . S
C2099 C2098 1.385 1_455 S
C2100 C2098 1.478 . S
C2100 C2102 1.381 . S
C2100 C2106 1.383 1_655 S
C2101 C2097 1.495 . S
C2101 H2107 0.959 . S
C2101 H2108 0.961 . S
C2101 H2109 0.960 . S
C2102 C2100 1.381 . S
C2102 C2103 1.394 . S
C2102 H2110 0.930 . S
C2103 C2102 1.394 . S
C2103 C2104 1.383 1_655 S
C2103 H2111 0.929 . S
C2104 C2103 1.383 1_455 S
C2104 C2105 1.377 . S
C2105 H2089 0.930 . S
C2105 C2104 1.377 . S
C2105 C2106 1.379 . S
C2106 H2090 0.931 . S
C2106 C2100 1.383 1_455 S
C2106 C2105 1.379 . S
H2107 C2101 0.959 . S
H2108 C2101 0.961 . S
H2109 C2101 0.960 . S
H2110 C2102 0.930 . S
H2111 C2103 0.929 . S
H2112 C2120 0.929 . S
H2113 C2122 0.930 . S
H2114 C2124 0.930 . S
H2115 C2127 0.929 . S
H2116 C2130 0.930 . S
H2117 C2132 0.960 . S
H2118 C2132 0.960 . S
H2119 C2132 0.960 . S
C2120 H2112 0.929 . S
C2120 C2121 1.370 1_565 S
C2120 C2122 1.384 . S
C2121 C2120 1.370 1_545 S
C2121 C2127 1.397 . S
C2122 H2113 0.930 . S
C2122 C2120 1.384 . S
C2122 C2123 1.369 1_565 S
C2123 C2122 1.369 1_545 S
C2123 C2124 1.403 . S
C2123 C2128 1.490 . S
C2124 H2114 0.930 . S
C2124 C2123 1.403 . S
C2124 C2127 1.386 . S
H2125 C2141 0.930 . S
H2126 C2142 0.931 . S
C2127 H2115 0.929 . S
C2127 C2121 1.397 . S
C2127 C2124 1.386 . S
C2128 C2123 1.490 . S
C2128 C2130 1.427 . S
C2128 C2131 1.373 1_545 S
H2129 C2135 0.930 . S
C2130 H2116 0.930 . S
C2130 C2128 1.427 . S
C2130 C2133 1.403 . S
C2131 C2128 1.373 1_565 S
C2131 C2132 1.524 . S
C2131 C2135 1.400 . S
C2132 H2117 0.960 . S
C2132 H2118 0.960 . S
C2132 H2119 0.960 . S
C2132 C2131 1.524 . S
C2133 C2130 1.403 . S
C2133 C2134 1.392 . S
C2133 C2137 1.495 . S
C2134 C2133 1.392 . S
C2134 C2135 1.385 1_545 S
C2134 C2136 1.478 . S
C2135 H2129 0.930 . S
C2135 C2131 1.400 . S
C2135 C2134 1.385 1_565 S
C2136 C2134 1.478 . S
C2136 C2138 1.381 1_545 S
C2136 C2142 1.383 . S
C2137 C2133 1.495 . S
C2137 H2143 0.959 . S
C2137 H2144 0.961 . S
C2137 H2145 0.960 . S
C2138 C2136 1.381 1_565 S
C2138 C2139 1.394 . S
C2138 H2146 0.930 . S
C2139 C2138 1.394 . S
C2139 C2140 1.383 1_565 S
C2139 H2147 0.929 . S
C2140 C2139 1.383 1_545 S
C2140 C2141 1.377 . S
C2141 H2125 0.930 . S
C2141 C2140 1.377 . S
C2141 C2142 1.379 . S
C2142 H2126 0.931 . S
C2142 C2136 1.383 . S
C2142 C2141 1.379 . S
H2143 C2137 0.959 . S
H2144 C2137 0.961 . S
H2145 C2137 0.960 . S
H2146 C2138 0.930 . S
H2147 C2139 0.929 . S
H2148 C2156 0.929 . S
H2149 C2158 0.930 . S
H2150 C2160 0.930 . S
H2151 C2163 0.929 . S
H2152 C2166 0.930 . S
H2153 C2168 0.960 . S
H2154 C2168 0.960 . S
H2155 C2168 0.960 1_455 S
C2156 H2148 0.929 . S
C2156 C2157 1.377 1_655 S
C2156 C2158 1.384 . S
C2157 C2156 1.377 1_455 S
C2157 C2163 1.390 . S
C2158 H2149 0.930 . S
C2158 C2156 1.384 . S
C2158 C2159 1.372 1_655 S
C2159 C2158 1.372 1_455 S
C2159 C2160 1.400 . S
C2159 C2164 1.490 . S
C2160 H2150 0.930 . S
C2160 C2159 1.400 . S
C2160 C2163 1.386 . S
H2161 C2177 0.930 . S
H2162 C2178 0.931 . S
C2163 H2151 0.929 . S
C2163 C2157 1.390 . S
C2163 C2160 1.386 . S
C2164 C2159 1.490 . S
C2164 C2166 1.395 . S
C2164 C2167 1.400 1_455 S
H2165 C2171 0.928 1_655 S
C2166 H2152 0.930 . S
C2166 C2164 1.395 . S
C2166 C2169 1.403 . S
C2167 C2164 1.400 1_655 S
C2167 C2168 1.529 . S
C2167 C2171 1.399 1_655 S
C2168 H2153 0.960 . S
C2168 H2154 0.960 . S
C2168 H2155 0.960 1_655 S
C2168 C2167 1.529 . S
C2169 C2166 1.403 . S
C2169 C2170 1.392 . S
C2169 C2173 1.495 . S
C2170 C2169 1.392 . S
C2170 C2171 1.385 . S
C2170 C2172 1.478 . S
C2171 H2165 0.928 1_455 S
C2171 C2167 1.399 1_455 S
C2171 C2170 1.385 . S
C2172 C2170 1.478 . S
C2172 C2174 1.381 1_455 S
C2172 C2178 1.383 . S
C2173 C2169 1.495 . S
C2173 H2179 0.959 . S
C2173 H2180 0.961 . S
C2173 H2181 0.960 1_455 S
C2174 C2172 1.381 1_655 S
C2174 C2175 1.394 . S
C2174 H2182 0.930 . S
C2175 C2174 1.394 . S
C2175 C2176 1.383 1_655 S
C2175 H2183 0.929 . S
C2176 C2175 1.383 1_455 S
C2176 C2177 1.377 . S
C2177 H2161 0.930 . S
C2177 C2176 1.377 . S
C2177 C2178 1.379 . S
C2178 H2162 0.931 . S
C2178 C2172 1.383 . S
C2178 C2177 1.379 . S
H2179 C2173 0.959 . S
H2180 C2173 0.961 . S
H2181 C2173 0.960 1_655 S
H2182 C2174 0.930 . S
H2183 C2175 0.929 . S
H2184 C2192 0.929 . S
H2185 C2194 0.930 . S
H2186 C2196 0.930 . S
H2187 C2199 0.929 . S
H2188 C2202 0.930 . S
H2189 C2204 0.960 . S
H2190 C2204 0.960 . S
H2191 C2204 0.960 . S
C2192 H2184 0.929 . S
C2192 C2193 1.342 1_565 S
C2192 C2194 1.384 . S
C2193 C2192 1.342 1_545 S
C2193 C2199 1.425 . S
C2194 H2185 0.930 . S
C2194 C2192 1.384 . S
C2194 C2195 1.376 . S
C2195 C2194 1.376 . S
C2195 C2196 1.396 1_565 S
C2195 C2200 1.489 . S
C2196 H2186 0.930 . S
C2196 C2195 1.396 1_545 S
C2196 C2199 1.386 . S
H2197 C2213 0.930 . S
H2198 C2214 0.931 . S
C2199 H2187 0.929 . S
C2199 C2193 1.425 . S
C2199 C2196 1.386 . S
C2200 C2195 1.489 . S
C2200 C2202 1.424 . S
C2200 C2203 1.376 1_565 S
H2201 C2207 0.930 . S
C2202 H2188 0.930 . S
C2202 C2200 1.424 . S
C2202 C2205 1.403 . S
C2203 C2200 1.376 1_545 S
C2203 C2204 1.524 . S
C2203 C2207 1.400 . S
C2204 H2189 0.960 . S
C2204 H2190 0.960 . S
C2204 H2191 0.960 . S
C2204 C2203 1.524 . S
C2205 C2202 1.403 . S
C2205 C2206 1.392 . S
C2205 C2209 1.495 . S
C2206 C2205 1.392 . S
C2206 C2207 1.385 1_565 S
C2206 C2208 1.478 . S
C2207 H2201 0.930 . S
C2207 C2203 1.400 . S
C2207 C2206 1.385 1_545 S
C2208 C2206 1.478 . S
C2208 C2210 1.381 . S
C2208 C2214 1.383 1_565 S
C2209 C2205 1.495 . S
C2209 H2215 0.959 . S
C2209 H2216 0.961 . S
C2209 H2217 0.960 . S
C2210 C2208 1.381 . S
C2210 C2211 1.394 . S
C2210 H2218 0.930 . S
C2211 C2210 1.394 . S
C2211 C2212 1.399 . S
C2211 H2219 0.929 . S
C2212 C2211 1.399 . S
C2212 C2213 1.362 1_565 S
C2213 H2197 0.930 . S
C2213 C2212 1.362 1_545 S
C2213 C2214 1.379 . S
C2214 H2198 0.931 . S
C2214 C2208 1.383 1_545 S
C2214 C2213 1.379 . S
H2215 C2209 0.959 . S
H2216 C2209 0.961 . S
H2217 C2209 0.960 . S
H2218 C2210 0.930 . S
H2219 C2211 0.929 . S
H2220 C2228 0.929 . S
H2221 C2230 0.930 . S
H2222 C2232 0.930 . S
H2223 C2235 0.929 . S
H2224 C2238 0.930 . S
H2225 C2240 0.960 . S
H2226 C2240 0.960 . S
H2227 C2240 0.960 1_545 S
C2228 H2220 0.929 . S
C2228 C2229 1.349 1_565 S
C2228 C2230 1.384 . S
C2229 C2228 1.349 1_545 S
C2229 C2235 1.418 . S
C2230 H2221 0.930 . S
C2230 C2228 1.384 . S
C2230 C2231 1.373 1_565 S
C2231 C2230 1.373 1_545 S
C2231 C2232 1.399 . S
C2231 C2236 1.490 . S
C2232 H2222 0.930 . S
C2232 C2231 1.399 . S
C2232 C2235 1.386 . S
H2233 C2249 0.930 . S
H2234 C2250 0.931 . S
C2235 H2223 0.929 . S
C2235 C2229 1.418 . S
C2235 C2232 1.386 . S
C2236 C2231 1.490 . S
C2236 C2238 1.396 . S
C2236 C2239 1.402 1_545 S
H2237 C2243 0.930 . S
C2238 H2224 0.930 . S
C2238 C2236 1.396 . S
C2238 C2241 1.403 . S
C2239 C2236 1.402 1_565 S
C2239 C2240 1.524 . S
C2239 C2243 1.400 . S
C2240 H2225 0.960 . S
C2240 H2226 0.960 . S
C2240 H2227 0.960 1_565 S
C2240 C2239 1.524 . S
C2241 C2238 1.403 . S
C2241 C2242 1.392 . S
C2241 C2245 1.495 . S
C2242 C2241 1.392 . S
C2242 C2243 1.385 1_545 S
C2242 C2244 1.478 . S
C2243 H2237 0.930 . S
C2243 C2239 1.400 . S
C2243 C2242 1.385 1_565 S
C2244 C2242 1.478 . S
C2244 C2246 1.381 1_545 S
C2244 C2250 1.383 . S
C2245 C2241 1.495 . S
C2245 H2251 0.959 . S
C2245 H2252 0.961 . S
C2245 H2253 0.960 1_545 S
C2246 C2244 1.381 1_565 S
C2246 C2247 1.394 . S
C2246 H2254 0.930 . S
C2247 C2246 1.394 . S
C2247 C2248 1.383 1_565 S
C2247 H2255 0.929 . S
C2248 C2247 1.383 1_545 S
C2248 C2249 1.377 . S
C2249 H2233 0.930 . S
C2249 C2248 1.377 . S
C2249 C2250 1.379 . S
C2250 H2234 0.931 . S
C2250 C2244 1.383 . S
C2250 C2249 1.379 . S
H2251 C2245 0.959 . S
H2252 C2245 0.961 . S
H2253 C2245 0.960 1_565 S
H2254 C2246 0.930 . S
H2255 C2247 0.929 . S
H2256 C2264 0.929 . S
H2257 C2266 0.930 . S
H2258 C2268 0.930 . S
H2259 C2271 0.929 . S
H2260 C2274 0.930 . S
H2261 C2276 0.960 . S
H2262 C2276 0.960 . S
H2263 C2276 0.960 . S
C2264 H2256 0.929 . S
C2264 C2265 1.377 1_655 S
C2264 C2266 1.384 . S
C2265 C2264 1.377 1_455 S
C2265 C2271 1.390 . S
C2266 H2257 0.930 . S
C2266 C2264 1.384 . S
C2266 C2267 1.372 1_655 S
C2267 C2266 1.372 1_455 S
C2267 C2268 1.400 . S
C2267 C2272 1.492 . S
C2268 H2258 0.930 . S
C2268 C2267 1.400 . S
C2268 C2271 1.386 . S
H2269 C2285 0.930 . S
H2270 C2286 0.937 . S
C2271 H2259 0.929 . S
C2271 C2265 1.390 . S
C2271 C2268 1.386 . S
C2272 C2267 1.492 . S
C2272 C2274 1.364 1_455 S
C2272 C2275 1.431 . S
H2273 C2279 0.930 . S
C2274 H2260 0.930 . S
C2274 C2272 1.364 1_655 S
C2274 C2277 1.403 . S
C2275 C2272 1.431 . S
C2275 C2276 1.524 . S
C2275 C2279 1.400 . S
C2276 H2261 0.960 . S
C2276 H2262 0.960 . S
C2276 H2263 0.960 . S
C2276 C2275 1.524 . S
C2277 C2274 1.403 . S
C2277 C2278 1.392 . S
C2277 C2281 1.495 . S
C2278 C2277 1.392 . S
C2278 C2279 1.385 1_655 S
C2278 C2280 1.478 . S
C2279 H2273 0.930 . S
C2279 C2275 1.400 . S
C2279 C2278 1.385 1_455 S
C2280 C2278 1.478 . S
C2280 C2282 1.381 . S
C2280 C2286 1.375 1_655 S
C2281 C2277 1.495 . S
C2281 H2287 0.959 . S
C2281 H2288 0.961 . S
C2281 H2289 0.960 . S
C2282 C2280 1.381 . S
C2282 C2283 1.394 . S
C2282 H2290 0.930 . S
C2283 C2282 1.394 . S
C2283 C2284 1.387 . S
C2283 H2291 0.929 . S
C2284 C2283 1.387 . S
C2284 C2285 1.375 1_655 S
C2285 H2269 0.930 . S
C2285 C2284 1.375 1_455 S
C2285 C2286 1.383 . S
C2286 H2270 0.937 . S
C2286 C2280 1.375 1_455 S
C2286 C2285 1.383 . S
H2287 C2281 0.959 . S
H2288 C2281 0.961 . S
H2289 C2281 0.960 . S
H2290 C2282 0.930 . S
H2291 C2283 0.929 . S
H2292 C2300 0.929 . S
H2293 C2302 0.930 . S
H2294 C2304 0.930 . S
H2295 C2307 0.929 . S
H2296 C2310 0.930 . S
H2297 C2312 0.960 . S
H2298 C2312 0.960 . S
H2299 C2312 0.960 . S
C2300 H2292 0.929 . S
C2300 C2301 1.358 1_565 S
C2300 C2302 1.384 . S
C2301 C2300 1.358 1_545 S
C2301 C2307 1.409 . S
C2302 H2293 0.930 . S
C2302 C2300 1.384 . S
C2302 C2303 1.367 1_565 S
C2303 C2302 1.367 1_545 S
C2303 C2304 1.405 . S
C2303 C2308 1.490 . S
C2304 H2294 0.930 . S
C2304 C2303 1.405 . S
C2304 C2307 1.386 . S
H2305 C2321 0.930 . S
H2306 C2322 0.931 . S
C2307 H2295 0.929 . S
C2307 C2301 1.409 . S
C2307 C2304 1.386 . S
C2308 C2303 1.490 . S
C2308 C2310 1.408 . S
C2308 C2311 1.391 1_545 S
H2309 C2315 0.930 . S
C2310 H2296 0.930 . S
C2310 C2308 1.408 . S
C2310 C2313 1.403 . S
C2311 C2308 1.391 1_565 S
C2311 C2312 1.524 . S
C2311 C2315 1.400 . S
C2312 H2297 0.960 . S
C2312 H2298 0.960 . S
C2312 H2299 0.960 . S
C2312 C2311 1.524 . S
C2313 C2310 1.403 . S
C2313 C2314 1.392 . S
C2313 C2317 1.495 . S
C2314 C2313 1.392 . S
C2314 C2315 1.385 1_545 S
C2314 C2316 1.478 . S
C2315 H2309 0.930 . S
C2315 C2311 1.400 . S
C2315 C2314 1.385 1_565 S
C2316 C2314 1.478 . S
C2316 C2318 1.381 1_545 S
C2316 C2322 1.383 . S
C2317 C2313 1.495 . S
C2317 H2323 0.959 . S
C2317 H2324 0.961 . S
C2317 H2325 0.960 . S
C2318 C2316 1.381 1_565 S
C2318 C2319 1.394 . S
C2318 H2326 0.930 . S
C2319 C2318 1.394 . S
C2319 C2320 1.383 1_565 S
C2319 H2327 0.929 . S
C2320 C2319 1.383 1_545 S
C2320 C2321 1.377 . S
C2321 H2305 0.930 . S
C2321 C2320 1.377 . S
C2321 C2322 1.379 . S
C2322 H2306 0.931 . S
C2322 C2316 1.383 . S
C2322 C2321 1.379 . S
H2323 C2317 0.959 . S
H2324 C2317 0.961 . S
H2325 C2317 0.960 . S
H2326 C2318 0.930 . S
H2327 C2319 0.929 . S
H2328 C2336 0.929 . S
H2329 C2338 0.930 . S
H2330 C2340 0.930 . S
H2331 C2343 0.929 . S
H2332 C2346 0.930 . S
H2333 C2348 0.960 . S
H2334 C2348 0.960 . S
H2335 C2348 0.960 . S
C2336 H2328 0.929 . S
C2336 C2337 1.377 . S
C2336 C2338 1.384 . S
C2337 C2336 1.377 . S
C2337 C2343 1.390 1_455 S
C2338 H2329 0.930 . S
C2338 C2336 1.384 . S
C2338 C2339 1.372 . S
C2339 C2338 1.372 . S
C2339 C2340 1.400 1_455 S
C2339 C2344 1.490 . S
C2340 H2330 0.930 . S
C2340 C2339 1.400 1_655 S
C2340 C2343 1.386 . S
H2341 C2357 0.930 . S
H2342 C2358 0.931 . S
C2343 H2331 0.929 . S
C2343 C2337 1.390 1_655 S
C2343 C2340 1.386 . S
C2344 C2339 1.490 . S
C2344 C2346 1.395 . S
C2344 C2347 1.403 1_455 S
H2345 C2351 0.930 . S
C2346 H2332 0.930 . S
C2346 C2344 1.395 . S
C2346 C2349 1.403 . S
C2347 C2344 1.403 1_655 S
C2347 C2348 1.524 . S
C2347 C2351 1.400 . S
C2348 H2333 0.960 . S
C2348 H2334 0.960 . S
C2348 H2335 0.960 . S
C2348 C2347 1.524 . S
C2349 C2346 1.403 . S
C2349 C2350 1.392 . S
C2349 C2353 1.495 . S
C2350 C2349 1.392 . S
C2350 C2351 1.385 1_455 S
C2350 C2352 1.478 . S
C2351 H2345 0.930 . S
C2351 C2347 1.400 . S
C2351 C2350 1.385 1_655 S
C2352 C2350 1.478 . S
C2352 C2354 1.381 . S
C2352 C2358 1.383 1_455 S
C2353 C2349 1.495 . S
C2353 H2359 0.959 . S
C2353 H2360 0.961 . S
C2353 H2361 0.960 . S
C2354 C2352 1.381 . S
C2354 C2355 1.394 . S
C2354 H2362 0.930 . S
C2355 C2354 1.394 . S
C2355 C2356 1.383 . S
C2355 H2363 0.929 . S
C2356 C2355 1.383 . S
C2356 C2357 1.377 1_455 S
C2357 H2341 0.930 . S
C2357 C2356 1.377 1_655 S
C2357 C2358 1.379 . S
C2358 H2342 0.931 . S
C2358 C2352 1.383 1_655 S
C2358 C2357 1.379 . S
H2359 C2353 0.959 . S
H2360 C2353 0.961 . S
H2361 C2353 0.960 . S
H2362 C2354 0.930 . S
H2363 C2355 0.929 . S
H2364 C2372 0.929 . S
H2365 C2374 0.930 . S
H2366 C2376 0.930 . S
H2367 C2379 0.929 . S
H2368 C2382 0.930 . S
H2369 C2384 0.960 . S
H2370 C2384 0.960 . S
H2371 C2384 0.960 . S
C2372 H2364 0.929 . S
C2372 C2373 1.377 1_565 S
C2372 C2374 1.384 . S
C2373 C2372 1.377 1_545 S
C2373 C2379 1.390 . S
C2374 H2365 0.930 . S
C2374 C2372 1.384 . S
C2374 C2375 1.356 1_565 S
C2375 C2374 1.356 1_545 S
C2375 C2376 1.418 . S
C2375 C2380 1.489 . S
C2376 H2366 0.930 . S
C2376 C2375 1.418 . S
C2376 C2379 1.386 . S
H2377 C2393 0.930 . S
H2378 C2394 0.931 . S
C2379 H2367 0.929 . S
C2379 C2373 1.390 . S
C2379 C2376 1.386 . S
C2380 C2375 1.489 . S
C2380 C2382 1.396 1_545 S
C2380 C2383 1.401 . S
H2381 C2387 0.930 . S
C2382 H2368 0.930 . S
C2382 C2380 1.396 1_565 S
C2382 C2385 1.403 . S
C2383 C2380 1.401 . S
C2383 C2384 1.524 . S
C2383 C2387 1.400 . S
C2384 H2369 0.960 . S
C2384 H2370 0.960 . S
C2384 H2371 0.960 . S
C2384 C2383 1.524 . S
C2385 C2382 1.403 . S
C2385 C2386 1.392 . S
C2385 C2389 1.495 . S
C2386 C2385 1.392 . S
C2386 C2387 1.385 1_565 S
C2386 C2388 1.478 . S
C2387 H2381 0.930 . S
C2387 C2383 1.400 . S
C2387 C2386 1.385 1_545 S
C2388 C2386 1.478 . S
C2388 C2390 1.381 . S
C2388 C2394 1.383 1_565 S
C2389 C2385 1.495 . S
C2389 H2395 0.959 . S
C2389 H2396 0.961 . S
C2389 H2397 0.960 . S
C2390 C2388 1.381 . S
C2390 C2391 1.394 . S
C2390 H2398 0.930 . S
C2391 C2390 1.394 . S
C2391 C2392 1.387 . S
C2391 H2399 0.929 . S
C2392 C2391 1.387 . S
C2392 C2393 1.374 1_565 S
C2393 H2377 0.930 . S
C2393 C2392 1.374 1_545 S
C2393 C2394 1.379 . S
C2394 H2378 0.931 . S
C2394 C2388 1.383 1_545 S
C2394 C2393 1.379 . S
H2395 C2389 0.959 . S
H2396 C2389 0.961 . S
H2397 C2389 0.960 . S
H2398 C2390 0.930 . S
H2399 C2391 0.929 . S
H2400 C2408 0.929 . S
H2401 C2410 0.930 . S
H2402 C2412 0.928 1_655 S
H2403 C2415 0.929 1_655 S
H2404 C2418 0.930 . S
H2405 C2420 0.960 . S
H2406 C2420 0.960 . S
H2407 C2420 0.960 . S
C2408 H2400 0.929 . S
C2408 C2409 1.377 . S
C2408 C2410 1.384 . S
C2409 C2408 1.377 . S
C2409 C2415 1.390 . S
C2410 H2401 0.930 . S
C2410 C2408 1.384 . S
C2410 C2411 1.372 . S
C2411 C2410 1.372 . S
C2411 C2412 1.401 . S
C2411 C2416 1.490 . S
C2412 H2402 0.928 1_455 S
C2412 C2411 1.401 . S
C2412 C2415 1.386 . S
H2413 C2429 0.930 . S
H2414 C2430 0.931 . S
C2415 H2403 0.929 1_455 S
C2415 C2409 1.390 . S
C2415 C2412 1.386 . S
C2416 C2411 1.490 . S
C2416 C2418 1.395 1_455 S
C2416 C2419 1.403 . S
H2417 C2423 0.930 . S
C2418 H2404 0.930 . S
C2418 C2416 1.395 1_655 S
C2418 C2421 1.403 . S
C2419 C2416 1.403 . S
C2419 C2420 1.524 . S
C2419 C2423 1.400 . S
C2420 H2405 0.960 . S
C2420 H2406 0.960 . S
C2420 H2407 0.960 . S
C2420 C2419 1.524 . S
C2421 C2418 1.403 . S
C2421 C2422 1.392 . S
C2421 C2425 1.495 . S
C2422 C2421 1.392 . S
C2422 C2423 1.385 1_655 S
C2422 C2424 1.478 . S
C2423 H2417 0.930 . S
C2423 C2419 1.400 . S
C2423 C2422 1.385 1_455 S
C2424 C2422 1.478 . S
C2424 C2426 1.381 1_655 S
C2424 C2430 1.383 . S
C2425 C2421 1.495 . S
C2425 H2431 0.959 . S
C2425 H2432 0.961 . S
C2425 H2433 0.960 . S
C2426 C2424 1.381 1_455 S
C2426 C2427 1.394 . S
C2426 H2434 0.930 . S
C2427 C2426 1.394 . S
C2427 C2428 1.382 1_455 S
C2427 H2435 0.929 . S
C2428 C2427 1.382 1_655 S
C2428 C2429 1.378 . S
C2429 H2413 0.930 . S
C2429 C2428 1.378 . S
C2429 C2430 1.379 . S
C2430 H2414 0.931 . S
C2430 C2424 1.383 . S
C2430 C2429 1.379 . S
H2431 C2425 0.959 . S
H2432 C2425 0.961 . S
H2433 C2425 0.960 . S
H2434 C2426 0.930 . S
H2435 C2427 0.929 . S
H2436 C2444 0.929 . S
H2437 C2446 0.930 . S
H2438 C2448 0.930 . S
H2439 C2451 0.929 . S
H2440 C2454 0.930 . S
H2441 C2456 0.960 . S
H2442 C2456 0.960 . S
H2443 C2456 0.960 . S
C2444 H2436 0.929 . S
C2444 C2445 1.357 1_565 S
C2444 C2446 1.384 . S
C2445 C2444 1.357 1_545 S
C2445 C2451 1.411 . S
C2446 H2437 0.930 . S
C2446 C2444 1.384 . S
C2446 C2447 1.368 1_565 S
C2447 C2446 1.368 1_545 S
C2447 C2448 1.404 . S
C2447 C2452 1.490 . S
C2448 H2438 0.930 . S
C2448 C2447 1.404 . S
C2448 C2451 1.386 . S
H2449 C2465 0.930 . S
H2450 C2466 0.931 . S
C2451 H2439 0.929 . S
C2451 C2445 1.411 . S
C2451 C2448 1.386 . S
C2452 C2447 1.490 . S
C2452 C2454 1.404 . S
C2452 C2455 1.394 1_545 S
H2453 C2459 0.930 . S
C2454 H2440 0.930 . S
C2454 C2452 1.404 . S
C2454 C2457 1.403 . S
C2455 C2452 1.394 1_565 S
C2455 C2456 1.524 . S
C2455 C2459 1.400 . S
C2456 H2441 0.960 . S
C2456 H2442 0.960 . S
C2456 H2443 0.960 . S
C2456 C2455 1.524 . S
C2457 C2454 1.403 . S
C2457 C2458 1.392 . S
C2457 C2461 1.495 . S
C2458 C2457 1.392 . S
C2458 C2459 1.385 1_545 S
C2458 C2460 1.478 . S
C2459 H2453 0.930 . S
C2459 C2455 1.400 . S
C2459 C2458 1.385 1_565 S
C2460 C2458 1.478 . S
C2460 C2462 1.381 1_545 S
C2460 C2466 1.383 . S
C2461 C2457 1.495 . S
C2461 H2467 0.959 . S
C2461 H2468 0.961 . S
C2461 H2469 0.960 . S
C2462 C2460 1.381 1_565 S
C2462 C2463 1.394 . S
C2462 H2470 0.930 . S
C2463 C2462 1.394 . S
C2463 C2464 1.383 1_565 S
C2463 H2471 0.929 . S
C2464 C2463 1.383 1_545 S
C2464 C2465 1.377 . S
C2465 H2449 0.930 . S
C2465 C2464 1.377 . S
C2465 C2466 1.379 . S
C2466 H2450 0.931 . S
C2466 C2460 1.383 . S
C2466 C2465 1.379 . S
H2467 C2461 0.959 . S
H2468 C2461 0.961 . S
H2469 C2461 0.960 . S
H2470 C2462 0.930 . S
H2471 C2463 0.929 . S
H2472 C2480 0.929 . S
H2473 C2482 0.930 . S
H2474 C2484 0.930 . S
H2475 C2487 0.929 . S
H2476 C2490 0.930 . S
H2477 C2492 0.960 . S
H2478 C2492 0.960 . S
H2479 C2492 0.993 . S
C2480 H2472 0.929 . S
C2480 C2481 1.377 . S
C2480 C2482 1.384 . S
C2481 C2480 1.377 . S
C2481 C2487 1.390 1_455 S
C2482 H2473 0.930 . S
C2482 C2480 1.384 . S
C2482 C2483 1.372 . S
C2483 C2482 1.372 . S
C2483 C2484 1.400 1_455 S
C2483 C2488 1.490 . S
C2484 H2474 0.930 . S
C2484 C2483 1.400 1_655 S
C2484 C2487 1.386 . S
H2485 C2501 0.930 . S
H2486 C2502 0.931 . S
C2487 H2475 0.929 . S
C2487 C2481 1.390 1_655 S
C2487 C2484 1.386 . S
C2488 C2483 1.490 . S
C2488 C2490 1.395 1_455 S
C2488 C2491 1.403 . S
H2489 C2495 0.930 . S
C2490 H2476 0.930 . S
C2490 C2488 1.395 1_655 S
C2490 C2493 1.403 . S
C2491 C2488 1.403 . S
C2491 C2492 1.524 . S
C2491 C2495 1.400 . S
C2492 H2477 0.960 . S
C2492 H2478 0.960 . S
C2492 H2479 0.993 . S
C2492 C2491 1.524 . S
C2493 C2490 1.403 . S
C2493 C2494 1.392 1_655 S
C2493 C2497 1.495 . S
C2494 C2493 1.392 1_455 S
C2494 C2495 1.385 . S
C2494 C2496 1.479 . S
C2495 H2489 0.930 . S
C2495 C2491 1.400 . S
C2495 C2494 1.385 . S
C2496 C2494 1.479 . S
C2496 C2498 1.400 . S
C2496 C2502 1.364 1_455 S
C2497 C2493 1.495 . S
C2497 H2503 0.959 . S
C2497 H2504 0.961 . S
C2497 H2505 0.960 1_655 S
C2498 C2496 1.400 . S
C2498 C2499 1.394 . S
C2498 H2506 0.930 . S
C2499 C2498 1.394 . S
C2499 C2500 1.411 . S
C2499 H2507 0.929 . S
C2500 C2499 1.411 . S
C2500 C2501 1.349 1_455 S
C2501 H2485 0.930 . S
C2501 C2500 1.349 1_655 S
C2501 C2502 1.379 . S
C2502 H2486 0.931 . S
C2502 C2496 1.364 1_655 S
C2502 C2501 1.379 . S
H2503 C2497 0.959 . S
H2504 C2497 0.961 . S
H2505 C2497 0.960 1_455 S
H2506 C2498 0.930 . S
H2507 C2499 0.929 . S
H2508 C2516 0.929 . S
H2509 C2518 0.930 . S
H2510 C2520 0.930 . S
H2511 C2523 0.929 . S
H2512 C2526 0.930 . S
H2513 C2528 0.960 . S
H2514 C2528 0.960 . S
H2515 C2528 0.960 . S
C2516 H2508 0.929 . S
C2516 C2517 1.369 1_556 S
C2516 C2518 1.384 . S
C2517 C2516 1.369 1_554 S
C2517 C2523 1.398 . S
C2518 H2509 0.930 . S
C2518 C2516 1.384 . S
C2518 C2519 1.399 . S
C2519 C2518 1.399 . S
C2519 C2520 1.372 1_556 S
C2519 C2524 1.491 . S
C2520 H2510 0.930 . S
C2520 C2519 1.372 1_554 S
C2520 C2523 1.386 . S
H2521 C2537 0.930 . S
H2522 C2538 0.931 . S
C2523 H2511 0.929 . S
C2523 C2517 1.398 . S
C2523 C2520 1.386 . S
C2524 C2519 1.491 . S
C2524 C2526 1.395 . S
C2524 C2527 1.403 1_556 S
H2525 C2531 0.930 . S
C2526 H2512 0.930 . S
C2526 C2524 1.395 . S
C2526 C2529 1.403 . S
C2527 C2524 1.403 1_554 S
C2527 C2528 1.524 . S
C2527 C2531 1.400 . S
C2528 H2513 0.960 . S
C2528 H2514 0.960 . S
C2528 H2515 0.960 . S
C2528 C2527 1.524 . S
C2529 C2526 1.403 . S
C2529 C2530 1.392 . S
C2529 C2533 1.495 . S
C2530 C2529 1.392 . S
C2530 C2531 1.385 1_556 S
C2530 C2532 1.478 . S
C2531 H2525 0.930 . S
C2531 C2527 1.400 . S
C2531 C2530 1.385 1_554 S
C2532 C2530 1.478 . S
C2532 C2534 1.381 . S
C2532 C2538 1.383 1_556 S
C2533 C2529 1.495 . S
C2533 H2539 0.959 . S
C2533 H2540 0.961 . S
C2533 H2541 0.960 . S
C2534 C2532 1.381 . S
C2534 C2535 1.394 . S
C2534 H2542 0.930 . S
C2535 C2534 1.394 . S
C2535 C2536 1.415 . S
C2535 H2543 0.929 . S
C2536 C2535 1.415 . S
C2536 C2537 1.348 1_556 S
C2537 H2521 0.930 . S
C2537 C2536 1.348 1_554 S
C2537 C2538 1.379 . S
C2538 H2522 0.931 . S
C2538 C2532 1.383 1_554 S
C2538 C2537 1.379 . S
H2539 C2533 0.959 . S
H2540 C2533 0.961 . S
H2541 C2533 0.960 . S
H2542 C2534 0.930 . S
H2543 C2535 0.929 . S
H2544 C2552 0.929 . S
H2545 C2554 0.930 . S
H2546 C2556 0.930 . S
H2547 C2559 0.929 . S
H2548 C2562 0.930 . S
H2549 C2564 0.960 . S
H2550 C2564 0.960 . S
H2551 C2564 0.960 . S
C2552 H2544 0.929 . S
C2552 C2553 1.398 . S
C2552 C2554 1.384 . S
C2553 C2552 1.398 . S
C2553 C2559 1.370 1_554 S
C2554 H2545 0.930 . S
C2554 C2552 1.384 . S
C2554 C2555 1.372 . S
C2555 C2554 1.372 . S
C2555 C2556 1.400 1_554 S
C2555 C2560 1.492 . S
C2556 H2546 0.930 . S
C2556 C2555 1.400 1_556 S
C2556 C2559 1.386 . S
H2557 C2573 0.930 . S
H2558 C2574 0.931 . S
C2559 H2547 0.929 . S
C2559 C2553 1.370 1_556 S
C2559 C2556 1.386 . S
C2560 C2555 1.492 . S
C2560 C2562 1.377 1_554 S
C2560 C2563 1.422 . S
H2561 C2567 0.930 . S
C2562 H2548 0.930 . S
C2562 C2560 1.377 1_556 S
C2562 C2565 1.403 . S
C2563 C2560 1.422 . S
C2563 C2564 1.524 . S
C2563 C2567 1.400 . S
C2564 H2549 0.960 . S
C2564 H2550 0.960 . S
C2564 H2551 0.960 . S
C2564 C2563 1.524 . S
C2565 C2562 1.403 . S
C2565 C2566 1.405 . S
C2565 C2569 1.495 . S
C2566 C2565 1.405 . S
C2566 C2567 1.372 1_556 S
C2566 C2568 1.479 . S
C2567 H2561 0.930 . S
C2567 C2563 1.400 . S
C2567 C2566 1.372 1_554 S
C2568 C2566 1.479 . S
C2568 C2570 1.381 1_556 S
C2568 C2574 1.383 . S
C2569 C2565 1.495 . S
C2569 H2575 0.959 . S
C2569 H2576 0.961 . S
C2569 H2577 0.960 . S
C2570 C2568 1.381 1_554 S
C2570 C2571 1.394 . S
C2570 H2578 0.930 . S
C2571 C2570 1.394 . S
C2571 C2572 1.374 1_554 S
C2571 H2579 0.929 . S
C2572 C2571 1.374 1_556 S
C2572 C2573 1.387 . S
C2573 H2557 0.930 . S
C2573 C2572 1.387 . S
C2573 C2574 1.379 . S
C2574 H2558 0.931 . S
C2574 C2568 1.383 . S
C2574 C2573 1.379 . S
H2575 C2569 0.959 . S
H2576 C2569 0.961 . S
H2577 C2569 0.960 . S
H2578 C2570 0.930 . S
H2579 C2571 0.929 . S
H2580 C2588 0.929 . S
H2581 C2590 0.930 . S
H2582 C2592 0.930 . S
H2583 C2595 0.929 . S
H2584 C2598 0.930 . S
H2585 C2600 0.960 . S
H2586 C2600 0.960 . S
H2587 C2600 0.960 1_556 S
C2588 H2580 0.929 . S
C2588 C2589 1.402 . S
C2588 C2590 1.384 . S
C2589 C2588 1.402 . S
C2589 C2595 1.366 1_554 S
C2590 H2581 0.930 . S
C2590 C2588 1.384 . S
C2590 C2591 1.372 . S
C2591 C2590 1.372 . S
C2591 C2592 1.400 1_554 S
C2591 C2596 1.490 . S
C2592 H2582 0.930 . S
C2592 C2591 1.400 1_556 S
C2592 C2595 1.386 . S
H2593 C2609 0.930 . S
H2594 C2610 0.931 . S
C2595 H2583 0.929 . S
C2595 C2589 1.366 1_556 S
C2595 C2592 1.386 . S
C2596 C2591 1.490 . S
C2596 C2598 1.396 . S
C2596 C2599 1.403 . S
H2597 C2603 0.930 . S
C2598 H2584 0.930 . S
C2598 C2596 1.396 . S
C2598 C2601 1.403 . S
C2599 C2596 1.403 . S
C2599 C2600 1.524 . S
C2599 C2603 1.400 . S
C2600 H2585 0.960 . S
C2600 H2586 0.960 . S
C2600 H2587 0.960 1_554 S
C2600 C2599 1.524 . S
C2601 C2598 1.403 . S
C2601 C2602 1.392 . S
C2601 C2605 1.494 1_554 S
C2602 C2601 1.392 . S
C2602 C2603 1.387 . S
C2602 C2604 1.477 . S
C2603 H2597 0.930 . S
C2603 C2599 1.400 . S
C2603 C2602 1.387 . S
C2604 C2602 1.477 . S
C2604 C2606 1.380 . S
C2604 C2610 1.383 1_554 S
C2605 C2601 1.494 1_556 S
C2605 H2611 0.959 . S
C2605 H2612 0.990 . S
C2605 H2613 0.933 1_556 S
C2606 C2604 1.380 . S
C2606 C2607 1.394 . S
C2606 H2614 0.930 . S
C2607 C2606 1.394 . S
C2607 C2608 1.385 1_554 S
C2607 H2615 0.929 . S
C2608 C2607 1.385 1_556 S
C2608 C2609 1.376 . S
C2609 H2593 0.930 . S
C2609 C2608 1.376 . S
C2609 C2610 1.379 . S
C2610 H2594 0.931 . S
C2610 C2604 1.383 1_556 S
C2610 C2609 1.379 . S
H2611 C2605 0.959 . S
H2612 C2605 0.990 . S
H2613 C2605 0.933 1_554 S
H2614 C2606 0.930 . S
H2615 C2607 0.929 . S
H2616 C2624 0.929 . S
H2617 C2626 0.930 . S
H2618 C2628 0.930 . S
H2619 C2631 0.929 . S
H2620 C2634 0.930 . S
H2621 C2636 0.960 . S
H2622 C2636 0.960 . S
H2623 C2636 0.960 . S
C2624 H2616 0.929 . S
C2624 C2625 1.375 1_556 S
C2624 C2626 1.384 . S
C2625 C2624 1.375 1_554 S
C2625 C2631 1.393 . S
C2626 H2617 0.930 . S
C2626 C2624 1.384 . S
C2626 C2627 1.370 1_556 S
C2627 C2626 1.370 1_554 S
C2627 C2628 1.402 . S
C2627 C2632 1.489 1_554 S
C2628 H2618 0.930 . S
C2628 C2627 1.402 . S
C2628 C2631 1.386 . S
H2629 C2645 0.933 . S
H2630 C2646 0.931 . S
C2631 H2619 0.929 . S
C2631 C2625 1.393 . S
C2631 C2628 1.386 . S
C2632 C2627 1.489 1_556 S
C2632 C2634 1.406 . S
C2632 C2635 1.392 1_556 S
H2633 C2639 0.930 . S
C2634 H2620 0.930 . S
C2634 C2632 1.406 . S
C2634 C2637 1.403 . S
C2635 C2632 1.392 1_554 S
C2635 C2636 1.524 . S
C2635 C2639 1.400 . S
C2636 H2621 0.960 . S
C2636 H2622 0.960 . S
C2636 H2623 0.960 . S
C2636 C2635 1.524 . S
C2637 C2634 1.403 . S
C2637 C2638 1.392 . S
C2637 C2641 1.495 . S
C2638 C2637 1.392 . S
C2638 C2639 1.385 1_556 S
C2638 C2640 1.478 . S
C2639 H2633 0.930 . S
C2639 C2635 1.400 . S
C2639 C2638 1.385 1_554 S
C2640 C2638 1.478 . S
C2640 C2642 1.381 . S
C2640 C2646 1.383 . S
C2641 C2637 1.495 . S
C2641 H2647 0.959 . S
C2641 H2648 0.961 . S
C2641 H2649 0.960 . S
C2642 C2640 1.381 . S
C2642 C2643 1.394 . S
C2642 H2650 0.930 . S
C2643 C2642 1.394 . S
C2643 C2644 1.383 . S
C2643 H2651 0.929 . S
C2644 C2643 1.383 . S
C2644 C2645 1.377 . S
C2645 H2629 0.933 . S
C2645 C2644 1.377 . S
C2645 C2646 1.379 . S
C2646 H2630 0.931 . S
C2646 C2640 1.383 . S
C2646 C2645 1.379 . S
H2647 C2641 0.959 . S
H2648 C2641 0.961 . S
H2649 C2641 0.960 . S
H2650 C2642 0.930 . S
H2651 C2643 0.929 . S
H2652 C2660 0.929 . S
H2653 C2662 0.930 . S
H2654 C2664 0.930 . S
H2655 C2667 0.929 . S
H2656 C2670 0.930 . S
H2657 C2672 0.960 . S
H2658 C2672 0.960 . S
H2659 C2672 0.960 . S
C2660 H2652 0.929 . S
C2660 C2661 1.389 . S
C2660 C2662 1.384 . S
C2661 C2660 1.389 . S
C2661 C2667 1.379 1_554 S
C2662 H2653 0.930 . S
C2662 C2660 1.384 . S
C2662 C2663 1.394 . S
C2663 C2662 1.394 . S
C2663 C2664 1.380 1_554 S
C2663 C2668 1.490 . S
C2664 H2654 0.930 . S
C2664 C2663 1.380 1_556 S
C2664 C2667 1.386 . S
H2665 C2681 0.930 . S
H2666 C2682 0.931 . S
C2667 H2655 0.929 . S
C2667 C2661 1.379 1_556 S
C2667 C2664 1.386 . S
C2668 C2663 1.490 . S
C2668 C2670 1.383 1_554 S
C2668 C2671 1.414 . S
H2669 C2675 0.930 . S
C2670 H2656 0.930 . S
C2670 C2668 1.383 1_556 S
C2670 C2673 1.403 . S
C2671 C2668 1.414 . S
C2671 C2672 1.524 . S
C2671 C2675 1.400 . S
C2672 H2657 0.960 . S
C2672 H2658 0.960 . S
C2672 H2659 0.960 . S
C2672 C2671 1.524 . S
C2673 C2670 1.403 . S
C2673 C2674 1.392 . S
C2673 C2677 1.495 . S
C2674 C2673 1.392 . S
C2674 C2675 1.385 1_556 S
C2674 C2676 1.478 . S
C2675 H2669 0.930 . S
C2675 C2671 1.400 . S
C2675 C2674 1.385 1_554 S
C2676 C2674 1.478 . S
C2676 C2678 1.381 1_556 S
C2676 C2682 1.383 . S
C2677 C2673 1.495 . S
C2677 H2683 0.959 . S
C2677 H2684 0.961 . S
C2677 H2685 0.960 . S
C2678 C2676 1.381 1_554 S
C2678 C2679 1.394 . S
C2678 H2686 0.930 . S
C2679 C2678 1.394 . S
C2679 C2680 1.360 1_554 S
C2679 H2687 0.929 . S
C2680 C2679 1.360 1_556 S
C2680 C2681 1.402 . S
C2681 H2665 0.930 . S
C2681 C2680 1.402 . S
C2681 C2682 1.379 . S
C2682 H2666 0.931 . S
C2682 C2676 1.383 . S
C2682 C2681 1.379 . S
H2683 C2677 0.959 . S
H2684 C2677 0.961 . S
H2685 C2677 0.960 . S
H2686 C2678 0.930 . S
H2687 C2679 0.929 . S
H2688 C2696 0.929 . S
H2689 C2698 0.930 . S
H2690 C2700 0.930 . S
H2691 C2703 0.929 . S
H2692 C2706 0.930 . S
H2693 C2708 0.960 . S
H2694 C2708 0.960 . S
H2695 C2708 0.960 . S
C2696 H2688 0.929 . S
C2696 C2697 1.399 . S
C2696 C2698 1.384 . S
C2697 C2696 1.399 . S
C2697 C2703 1.369 1_554 S
C2698 H2689 0.930 . S
C2698 C2696 1.384 . S
C2698 C2699 1.372 . S
C2699 C2698 1.372 . S
C2699 C2700 1.400 1_554 S
C2699 C2704 1.490 . S
C2700 H2690 0.930 . S
C2700 C2699 1.400 1_556 S
C2700 C2703 1.386 . S
H2701 C2717 0.930 . S
H2702 C2718 0.931 . S
C2703 H2691 0.929 . S
C2703 C2697 1.369 1_556 S
C2703 C2700 1.386 . S
C2704 C2699 1.490 . S
C2704 C2706 1.395 . S
C2704 C2707 1.403 1_554 S
H2705 C2711 0.930 . S
C2706 H2692 0.930 . S
C2706 C2704 1.395 . S
C2706 C2709 1.403 . S
C2707 C2704 1.403 1_556 S
C2707 C2708 1.524 . S
C2707 C2711 1.400 . S
C2708 H2693 0.960 . S
C2708 H2694 0.960 . S
C2708 H2695 0.960 . S
C2708 C2707 1.524 . S
C2709 C2706 1.403 . S
C2709 C2710 1.392 . S
C2709 C2713 1.495 . S
C2710 C2709 1.392 . S
C2710 C2711 1.385 1_554 S
C2710 C2712 1.478 . S
C2711 H2705 0.930 . S
C2711 C2707 1.400 . S
C2711 C2710 1.385 1_556 S
C2712 C2710 1.478 . S
C2712 C2714 1.381 . S
C2712 C2718 1.383 1_554 S
C2713 C2709 1.495 . S
C2713 H2719 0.959 . S
C2713 H2720 0.961 . S
C2713 H2721 0.960 . S
C2714 C2712 1.381 . S
C2714 C2715 1.394 . S
C2714 H2722 0.930 . S
C2715 C2714 1.394 . S
C2715 C2716 1.434 . S
C2715 H2723 0.929 . S
C2716 C2715 1.434 . S
C2716 C2717 1.329 1_554 S
C2717 H2701 0.930 . S
C2717 C2716 1.329 1_556 S
C2717 C2718 1.379 . S
C2718 H2702 0.931 . S
C2718 C2712 1.383 1_556 S
C2718 C2717 1.379 . S
H2719 C2713 0.959 . S
H2720 C2713 0.961 . S
H2721 C2713 0.960 . S
H2722 C2714 0.930 . S
H2723 C2715 0.929 . S
H2724 C2732 0.929 . S
H2725 C2734 0.930 . S
H2726 C2736 0.930 . S
H2727 C2739 0.929 . S
H2728 C2742 0.930 . S
H2729 C2744 0.960 . S
H2730 C2744 0.960 . S
H2731 C2744 0.960 . S
C2732 H2724 0.929 . S
C2732 C2733 1.374 1_556 S
C2732 C2734 1.384 . S
C2733 C2732 1.374 1_554 S
C2733 C2739 1.393 . S
C2734 H2725 0.930 . S
C2734 C2732 1.384 . S
C2734 C2735 1.410 . S
C2735 C2734 1.410 . S
C2735 C2736 1.361 1_556 S
C2735 C2740 1.492 . S
C2736 H2726 0.930 . S
C2736 C2735 1.361 1_554 S
C2736 C2739 1.386 . S
H2737 C2753 0.930 . S
H2738 C2754 0.931 . S
C2739 H2727 0.929 . S
C2739 C2733 1.393 . S
C2739 C2736 1.386 . S
C2740 C2735 1.492 . S
C2740 C2742 1.395 . S
C2740 C2743 1.403 1_556 S
H2741 C2747 0.930 . S
C2742 H2728 0.930 . S
C2742 C2740 1.395 . S
C2742 C2745 1.403 . S
C2743 C2740 1.403 1_554 S
C2743 C2744 1.524 . S
C2743 C2747 1.400 . S
C2744 H2729 0.960 . S
C2744 H2730 0.960 . S
C2744 H2731 0.960 . S
C2744 C2743 1.524 . S
C2745 C2742 1.403 . S
C2745 C2746 1.392 . S
C2745 C2749 1.495 . S
C2746 C2745 1.392 . S
C2746 C2747 1.385 1_556 S
C2746 C2748 1.478 . S
C2747 H2741 0.930 . S
C2747 C2743 1.400 . S
C2747 C2746 1.385 1_554 S
C2748 C2746 1.478 . S
C2748 C2750 1.381 . S
C2748 C2754 1.383 1_556 S
C2749 C2745 1.495 . S
C2749 H2755 0.959 . S
C2749 H2756 0.961 . S
C2749 H2757 0.960 . S
C2750 C2748 1.381 . S
C2750 C2751 1.394 . S
C2750 H2758 0.930 . S
C2751 C2750 1.394 . S
C2751 C2752 1.421 . S
C2751 H2759 0.929 . S
C2752 C2751 1.421 . S
C2752 C2753 1.341 1_556 S
C2753 H2737 0.930 . S
C2753 C2752 1.341 1_554 S
C2753 C2754 1.379 . S
C2754 H2738 0.931 . S
C2754 C2748 1.383 1_554 S
C2754 C2753 1.379 . S
H2755 C2749 0.959 . S
H2756 C2749 0.961 . S
H2757 C2749 0.960 . S
H2758 C2750 0.930 . S
H2759 C2751 0.929 . S
H2760 C2768 0.929 . S
H2761 C2770 0.930 . S
H2762 C2772 0.930 . S
H2763 C2775 0.929 . S
H2764 C2778 0.930 . S
H2765 C2780 0.962 . S
H2766 C2780 0.960 . S
H2767 C2780 0.960 1_556 S
C2768 H2760 0.929 . S
C2768 C2769 1.399 . S
C2768 C2770 1.384 . S
C2769 C2768 1.399 . S
C2769 C2775 1.369 1_554 S
C2770 H2761 0.930 . S
C2770 C2768 1.384 . S
C2770 C2771 1.372 . S
C2771 C2770 1.372 . S
C2771 C2772 1.400 1_554 S
C2771 C2776 1.490 . S
C2772 H2762 0.930 . S
C2772 C2771 1.400 1_556 S
C2772 C2775 1.386 . S
H2773 C2789 0.930 . S
H2774 C2790 0.931 . S
C2775 H2763 0.929 . S
C2775 C2769 1.369 1_556 S
C2775 C2772 1.386 . S
C2776 C2771 1.490 . S
C2776 C2778 1.395 . S
C2776 C2779 1.405 . S
H2777 C2783 0.929 1_556 S
C2778 H2764 0.930 . S
C2778 C2776 1.395 . S
C2778 C2781 1.403 . S
C2779 C2776 1.405 . S
C2779 C2780 1.525 . S
C2779 C2783 1.400 . S
C2780 H2765 0.962 . S
C2780 H2766 0.960 . S
C2780 H2767 0.960 1_554 S
C2780 C2779 1.525 . S
C2781 C2778 1.403 . S
C2781 C2782 1.395 . S
C2781 C2785 1.495 . S
C2782 C2781 1.395 . S
C2782 C2783 1.385 . S
C2782 C2784 1.477 . S
C2783 H2777 0.929 1_554 S
C2783 C2779 1.400 . S
C2783 C2782 1.385 . S
C2784 C2782 1.477 . S
C2784 C2786 1.393 . S
C2784 C2790 1.370 1_554 S
C2785 C2781 1.495 . S
C2785 H2791 0.959 . S
C2785 H2792 0.961 1_554 S
C2785 H2793 0.960 . S
C2786 C2784 1.393 . S
C2786 C2787 1.394 . S
C2786 H2794 0.930 . S
C2787 C2786 1.394 . S
C2787 C2788 1.379 . S
C2787 H2795 0.929 . S
C2788 C2787 1.379 . S
C2788 C2789 1.381 1_554 S
C2789 H2773 0.930 . S
C2789 C2788 1.381 1_556 S
C2789 C2790 1.379 . S
C2790 H2774 0.931 . S
C2790 C2784 1.370 1_556 S
C2790 C2789 1.379 . S
H2791 C2785 0.959 . S
H2792 C2785 0.961 1_556 S
H2793 C2785 0.960 . S
H2794 C2786 0.930 . S
H2795 C2787 0.929 . S
H2796 C2804 0.929 . S
H2797 C2806 0.930 . S
H2798 C2808 0.930 . S
H2799 C2811 0.929 . S
H2800 C2814 0.930 . S
H2801 C2816 0.960 . S
H2802 C2816 0.960 . S
H2803 C2816 0.960 . S
C2804 H2796 0.929 . S
C2804 C2805 1.377 . S
C2804 C2806 1.384 . S
C2805 C2804 1.377 . S
C2805 C2811 1.390 . S
C2806 H2797 0.930 . S
C2806 C2804 1.384 . S
C2806 C2807 1.372 . S
C2807 C2806 1.372 . S
C2807 C2808 1.400 . S
C2807 C2812 1.490 . S
C2808 H2798 0.930 . S
C2808 C2807 1.400 . S
C2808 C2811 1.386 . S
H2809 C2825 0.930 . S
H2810 C2826 0.931 . S
C2811 H2799 0.929 . S
C2811 C2805 1.390 . S
C2811 C2808 1.386 . S
C2812 C2807 1.490 . S
C2812 C2814 1.395 . S
C2812 C2815 1.403 . S
H2813 C2819 0.930 . S
C2814 H2800 0.930 . S
C2814 C2812 1.395 . S
C2814 C2817 1.403 . S
C2815 C2812 1.403 . S
C2815 C2816 1.524 . S
C2815 C2819 1.400 . S
C2816 H2801 0.960 . S
C2816 H2802 0.960 . S
C2816 H2803 0.960 . S
C2816 C2815 1.524 . S
C2817 C2814 1.403 . S
C2817 C2818 1.392 . S
C2817 C2821 1.495 . S
C2818 C2817 1.392 . S
C2818 C2819 1.385 . S
C2818 C2820 1.478 . S
C2819 H2813 0.930 . S
C2819 C2815 1.400 . S
C2819 C2818 1.385 . S
C2820 C2818 1.478 . S
C2820 C2822 1.381 . S
C2820 C2826 1.383 . S
C2821 C2817 1.495 . S
C2821 H2827 0.959 . S
C2821 H2828 0.961 . S
C2821 H2829 0.960 . S
C2822 C2820 1.381 . S
C2822 C2823 1.394 . S
C2822 H2830 0.930 . S
C2823 C2822 1.394 . S
C2823 C2824 1.383 . S
C2823 H2831 0.929 . S
C2824 C2823 1.383 . S
C2824 C2825 1.377 . S
C2825 H2809 0.930 . S
C2825 C2824 1.377 . S
C2825 C2826 1.379 . S
C2826 H2810 0.931 . S
C2826 C2820 1.383 . S
C2826 C2825 1.379 . S
H2827 C2821 0.959 . S
H2828 C2821 0.961 . S
H2829 C2821 0.960 . S
H2830 C2822 0.930 . S
H2831 C2823 0.929 . S
H2832 C2840 0.929 . S
H2833 C2842 0.930 . S
H2834 C2844 0.930 . S
H2835 C2847 0.929 . S
H2836 C2850 0.930 . S
H2837 C2852 0.960 . S
H2838 C2852 0.960 . S
H2839 C2852 0.960 . S
C2840 H2832 0.929 . S
C2840 C2841 1.377 . S
C2840 C2842 1.384 . S
C2841 C2840 1.377 . S
C2841 C2847 1.390 . S
C2842 H2833 0.930 . S
C2842 C2840 1.384 . S
C2842 C2843 1.372 . S
C2843 C2842 1.372 . S
C2843 C2844 1.400 . S
C2843 C2848 1.490 . S
C2844 H2834 0.930 . S
C2844 C2843 1.400 . S
C2844 C2847 1.386 . S
H2845 C2861 0.930 . S
H2846 C2862 0.931 . S
C2847 H2835 0.929 . S
C2847 C2841 1.390 . S
C2847 C2844 1.386 . S
C2848 C2843 1.490 . S
C2848 C2850 1.395 . S
C2848 C2851 1.403 . S
H2849 C2855 0.930 . S
C2850 H2836 0.930 . S
C2850 C2848 1.395 . S
C2850 C2853 1.403 . S
C2851 C2848 1.403 . S
C2851 C2852 1.524 . S
C2851 C2855 1.400 . S
C2852 H2837 0.960 . S
C2852 H2838 0.960 . S
C2852 H2839 0.960 . S
C2852 C2851 1.524 . S
C2853 C2850 1.403 . S
C2853 C2854 1.392 . S
C2853 C2857 1.495 . S
C2854 C2853 1.392 . S
C2854 C2855 1.385 . S
C2854 C2856 1.478 . S
C2855 H2849 0.930 . S
C2855 C2851 1.400 . S
C2855 C2854 1.385 . S
C2856 C2854 1.478 . S
C2856 C2858 1.381 . S
C2856 C2862 1.383 . S
C2857 C2853 1.495 . S
C2857 H2863 0.959 . S
C2857 H2864 0.961 . S
C2857 H2865 0.960 . S
C2858 C2856 1.381 . S
C2858 C2859 1.394 . S
C2858 H2866 0.930 . S
C2859 C2858 1.394 . S
C2859 C2860 1.383 . S
C2859 H2867 0.929 . S
C2860 C2859 1.383 . S
C2860 C2861 1.377 . S
C2861 H2845 0.930 . S
C2861 C2860 1.377 . S
C2861 C2862 1.379 . S
C2862 H2846 0.931 . S
C2862 C2856 1.383 . S
C2862 C2861 1.379 . S
H2863 C2857 0.959 . S
H2864 C2857 0.961 . S
H2865 C2857 0.960 . S
H2866 C2858 0.930 . S
H2867 C2859 0.929 . S
H2868 C2876 0.929 . S
H2869 C2878 0.930 . S
H2870 C2880 0.930 . S
H2871 C2883 0.929 . S
H2872 C2886 0.930 . S
H2873 C2888 0.960 . S
H2874 C2888 0.960 . S
H2875 C2888 0.960 . S
C2876 H2868 0.929 . S
C2876 C2877 1.377 . S
C2876 C2878 1.384 . S
C2877 C2876 1.377 . S
C2877 C2883 1.390 . S
C2878 H2869 0.930 . S
C2878 C2876 1.384 . S
C2878 C2879 1.372 . S
C2879 C2878 1.372 . S
C2879 C2880 1.400 . S
C2879 C2884 1.490 . S
C2880 H2870 0.930 . S
C2880 C2879 1.400 . S
C2880 C2883 1.386 . S
H2881 C2897 0.930 . S
H2882 C2898 0.931 . S
C2883 H2871 0.929 . S
C2883 C2877 1.390 . S
C2883 C2880 1.386 . S
C2884 C2879 1.490 . S
C2884 C2886 1.395 . S
C2884 C2887 1.403 . S
H2885 C2891 0.930 . S
C2886 H2872 0.930 . S
C2886 C2884 1.395 . S
C2886 C2889 1.403 . S
C2887 C2884 1.403 . S
C2887 C2888 1.524 . S
C2887 C2891 1.400 . S
C2888 H2873 0.960 . S
C2888 H2874 0.960 . S
C2888 H2875 0.960 . S
C2888 C2887 1.524 . S
C2889 C2886 1.403 . S
C2889 C2890 1.392 . S
C2889 C2893 1.495 . S
C2890 C2889 1.392 . S
C2890 C2891 1.385 . S
C2890 C2892 1.478 . S
C2891 H2885 0.930 . S
C2891 C2887 1.400 . S
C2891 C2890 1.385 . S
C2892 C2890 1.478 . S
C2892 C2894 1.381 . S
C2892 C2898 1.383 . S
C2893 C2889 1.495 . S
C2893 H2899 0.959 . S
C2893 H2900 0.961 . S
C2893 H2901 0.960 . S
C2894 C2892 1.381 . S
C2894 C2895 1.394 . S
C2894 H2902 0.930 . S
C2895 C2894 1.394 . S
C2895 C2896 1.383 . S
C2895 H2903 0.929 . S
C2896 C2895 1.383 . S
C2896 C2897 1.377 . S
C2897 H2881 0.930 . S
C2897 C2896 1.377 . S
C2897 C2898 1.379 . S
C2898 H2882 0.931 . S
C2898 C2892 1.383 . S
C2898 C2897 1.379 . S
H2899 C2893 0.959 . S
H2900 C2893 0.961 . S
H2901 C2893 0.960 . S
H2902 C2894 0.930 . S
H2903 C2895 0.929 . S
H2904 C2912 0.929 . S
H2905 C2914 0.930 . S
H2906 C2916 0.930 . S
H2907 C2919 0.929 . S
H2908 C2922 0.930 . S
H2909 C2924 0.960 . S
H2910 C2924 0.960 . S
H2911 C2924 0.960 . S
C2912 H2904 0.929 . S
C2912 C2913 1.377 . S
C2912 C2914 1.384 . S
C2913 C2912 1.377 . S
C2913 C2919 1.390 . S
C2914 H2905 0.930 . S
C2914 C2912 1.384 . S
C2914 C2915 1.372 . S
C2915 C2914 1.372 . S
C2915 C2916 1.400 . S
C2915 C2920 1.490 . S
C2916 H2906 0.930 . S
C2916 C2915 1.400 . S
C2916 C2919 1.386 . S
H2917 C2933 0.930 . S
H2918 C2934 0.931 . S
C2919 H2907 0.929 . S
C2919 C2913 1.390 . S
C2919 C2916 1.386 . S
C2920 C2915 1.490 . S
C2920 C2922 1.395 . S
C2920 C2923 1.403 . S
H2921 C2927 0.930 . S
C2922 H2908 0.930 . S
C2922 C2920 1.395 . S
C2922 C2925 1.403 . S
C2923 C2920 1.403 . S
C2923 C2924 1.524 . S
C2923 C2927 1.400 . S
C2924 H2909 0.960 . S
C2924 H2910 0.960 . S
C2924 H2911 0.960 . S
C2924 C2923 1.524 . S
C2925 C2922 1.403 . S
C2925 C2926 1.392 . S
C2925 C2929 1.495 . S
C2926 C2925 1.392 . S
C2926 C2927 1.385 . S
C2926 C2928 1.478 . S
C2927 H2921 0.930 . S
C2927 C2923 1.400 . S
C2927 C2926 1.385 . S
C2928 C2926 1.478 . S
C2928 C2930 1.381 . S
C2928 C2934 1.383 . S
C2929 C2925 1.495 . S
C2929 H2935 0.959 . S
C2929 H2936 0.961 . S
C2929 H2937 0.960 . S
C2930 C2928 1.381 . S
C2930 C2931 1.394 . S
C2930 H2938 0.930 . S
C2931 C2930 1.394 . S
C2931 C2932 1.383 . S
C2931 H2939 0.929 . S
C2932 C2931 1.383 . S
C2932 C2933 1.377 . S
C2933 H2917 0.930 . S
C2933 C2932 1.377 . S
C2933 C2934 1.379 . S
C2934 H2918 0.931 . S
C2934 C2928 1.383 . S
C2934 C2933 1.379 . S
H2935 C2929 0.959 . S
H2936 C2929 0.961 . S
H2937 C2929 0.960 . S
H2938 C2930 0.930 . S
H2939 C2931 0.929 . S
H2940 C2948 0.929 . S
H2941 C2950 0.930 . S
H2942 C2952 0.930 . S
H2943 C2955 0.929 . S
H2944 C2958 0.930 . S
H2945 C2960 0.960 . S
H2946 C2960 0.960 . S
H2947 C2960 0.960 . S
C2948 H2940 0.929 . S
C2948 C2949 1.377 . S
C2948 C2950 1.384 . S
C2949 C2948 1.377 . S
C2949 C2955 1.390 . S
C2950 H2941 0.930 . S
C2950 C2948 1.384 . S
C2950 C2951 1.372 . S
C2951 C2950 1.372 . S
C2951 C2952 1.400 . S
C2951 C2956 1.490 . S
C2952 H2942 0.930 . S
C2952 C2951 1.400 . S
C2952 C2955 1.386 . S
H2953 C2969 0.930 . S
H2954 C2970 0.931 . S
C2955 H2943 0.929 . S
C2955 C2949 1.390 . S
C2955 C2952 1.386 . S
C2956 C2951 1.490 . S
C2956 C2958 1.395 . S
C2956 C2959 1.403 . S
H2957 C2963 0.930 . S
C2958 H2944 0.930 . S
C2958 C2956 1.395 . S
C2958 C2961 1.403 . S
C2959 C2956 1.403 . S
C2959 C2960 1.524 . S
C2959 C2963 1.400 . S
C2960 H2945 0.960 . S
C2960 H2946 0.960 . S
C2960 H2947 0.960 . S
C2960 C2959 1.524 . S
C2961 C2958 1.403 . S
C2961 C2962 1.392 . S
C2961 C2965 1.495 . S
C2962 C2961 1.392 . S
C2962 C2963 1.385 . S
C2962 C2964 1.478 . S
C2963 H2957 0.930 . S
C2963 C2959 1.400 . S
C2963 C2962 1.385 . S
C2964 C2962 1.478 . S
C2964 C2966 1.381 . S
C2964 C2970 1.383 . S
C2965 C2961 1.495 . S
C2965 H2971 0.959 . S
C2965 H2972 0.961 . S
C2965 H2973 0.960 . S
C2966 C2964 1.381 . S
C2966 C2967 1.394 . S
C2966 H2974 0.930 . S
C2967 C2966 1.394 . S
C2967 C2968 1.383 . S
C2967 H2975 0.929 . S
C2968 C2967 1.383 . S
C2968 C2969 1.377 . S
C2969 H2953 0.930 . S
C2969 C2968 1.377 . S
C2969 C2970 1.379 . S
C2970 H2954 0.931 . S
C2970 C2964 1.383 . S
C2970 C2969 1.379 . S
H2971 C2965 0.959 . S
H2972 C2965 0.961 . S
H2973 C2965 0.960 . S
H2974 C2966 0.930 . S
H2975 C2967 0.929 . S
H2976 C2984 0.929 . S
H2977 C2986 0.930 . S
H2978 C2988 0.930 . S
H2979 C2991 0.929 . S
H2980 C2994 0.930 . S
H2981 C2996 0.960 . S
H2982 C2996 0.960 . S
H2983 C2996 0.960 . S
C2984 H2976 0.929 . S
C2984 C2985 1.377 . S
C2984 C2986 1.384 . S
C2985 C2984 1.377 . S
C2985 C2991 1.390 . S
C2986 H2977 0.930 . S
C2986 C2984 1.384 . S
C2986 C2987 1.372 . S
C2987 C2986 1.372 . S
C2987 C2988 1.400 . S
C2987 C2992 1.490 . S
C2988 H2978 0.930 . S
C2988 C2987 1.400 . S
C2988 C2991 1.386 . S
H2989 C3005 0.930 . S
H2990 C3006 0.931 . S
C2991 H2979 0.929 . S
C2991 C2985 1.390 . S
C2991 C2988 1.386 . S
C2992 C2987 1.490 . S
C2992 C2994 1.395 . S
C2992 C2995 1.403 . S
H2993 C2999 0.930 . S
C2994 H2980 0.930 . S
C2994 C2992 1.395 . S
C2994 C2997 1.403 . S
C2995 C2992 1.403 . S
C2995 C2996 1.524 . S
C2995 C2999 1.400 . S
C2996 H2981 0.960 . S
C2996 H2982 0.960 . S
C2996 H2983 0.960 . S
C2996 C2995 1.524 . S
C2997 C2994 1.403 . S
C2997 C2998 1.392 . S
C2997 C3001 1.495 . S
C2998 C2997 1.392 . S
C2998 C2999 1.385 . S
C2998 C3000 1.478 . S
C2999 H2993 0.930 . S
C2999 C2995 1.400 . S
C2999 C2998 1.385 . S
C3000 C2998 1.478 . S
C3000 C3002 1.381 . S
C3000 C3006 1.383 . S
C3001 C2997 1.495 . S
C3001 H3007 0.959 . S
C3001 H3008 0.961 . S
C3001 H3009 0.960 . S
C3002 C3000 1.381 . S
C3002 C3003 1.394 . S
C3002 H3010 0.930 . S
C3003 C3002 1.394 . S
C3003 C3004 1.383 . S
C3003 H3011 0.929 . S
C3004 C3003 1.383 . S
C3004 C3005 1.377 . S
C3005 H2989 0.930 . S
C3005 C3004 1.377 . S
C3005 C3006 1.379 . S
C3006 H2990 0.931 . S
C3006 C3000 1.383 . S
C3006 C3005 1.379 . S
H3007 C3001 0.959 . S
H3008 C3001 0.961 . S
H3009 C3001 0.960 . S
H3010 C3002 0.930 . S
H3011 C3003 0.929 . S
H3012 C3020 0.929 . S
H3013 C3022 0.930 . S
H3014 C3024 0.930 . S
H3015 C3027 0.929 . S
H3016 C3030 0.930 . S
H3017 C3032 0.960 . S
H3018 C3032 0.960 . S
H3019 C3032 0.960 . S
C3020 H3012 0.929 . S
C3020 C3021 1.377 . S
C3020 C3022 1.384 . S
C3021 C3020 1.377 . S
C3021 C3027 1.390 . S
C3022 H3013 0.930 . S
C3022 C3020 1.384 . S
C3022 C3023 1.372 . S
C3023 C3022 1.372 . S
C3023 C3024 1.400 . S
C3023 C3028 1.490 . S
C3024 H3014 0.930 . S
C3024 C3023 1.400 . S
C3024 C3027 1.386 . S
H3025 C3041 0.930 . S
H3026 C3042 0.931 . S
C3027 H3015 0.929 . S
C3027 C3021 1.390 . S
C3027 C3024 1.386 . S
C3028 C3023 1.490 . S
C3028 C3030 1.395 . S
C3028 C3031 1.403 . S
H3029 C3035 0.930 . S
C3030 H3016 0.930 . S
C3030 C3028 1.395 . S
C3030 C3033 1.403 . S
C3031 C3028 1.403 . S
C3031 C3032 1.524 . S
C3031 C3035 1.400 . S
C3032 H3017 0.960 . S
C3032 H3018 0.960 . S
C3032 H3019 0.960 . S
C3032 C3031 1.524 . S
C3033 C3030 1.403 . S
C3033 C3034 1.392 . S
C3033 C3037 1.495 . S
C3034 C3033 1.392 . S
C3034 C3035 1.385 . S
C3034 C3036 1.478 . S
C3035 H3029 0.930 . S
C3035 C3031 1.400 . S
C3035 C3034 1.385 . S
C3036 C3034 1.478 . S
C3036 C3038 1.381 . S
C3036 C3042 1.383 . S
C3037 C3033 1.495 . S
C3037 H3043 0.959 . S
C3037 H3044 0.961 . S
C3037 H3045 0.960 . S
C3038 C3036 1.381 . S
C3038 C3039 1.394 . S
C3038 H3046 0.930 . S
C3039 C3038 1.394 . S
C3039 C3040 1.383 . S
C3039 H3047 0.929 . S
C3040 C3039 1.383 . S
C3040 C3041 1.377 . S
C3041 H3025 0.930 . S
C3041 C3040 1.377 . S
C3041 C3042 1.379 . S
C3042 H3026 0.931 . S
C3042 C3036 1.383 . S
C3042 C3041 1.379 . S
H3043 C3037 0.959 . S
H3044 C3037 0.961 . S
H3045 C3037 0.960 . S
H3046 C3038 0.930 . S
H3047 C3039 0.929 . S
H3048 C3056 0.929 . S
H3049 C3058 0.930 . S
H3050 C3060 0.930 . S
H3051 C3063 0.929 . S
H3052 C3066 0.930 . S
H3053 C3068 0.960 . S
H3054 C3068 0.960 . S
H3055 C3068 0.960 . S
C3056 H3048 0.929 . S
C3056 C3057 1.377 . S
C3056 C3058 1.384 . S
C3057 C3056 1.377 . S
C3057 C3063 1.390 . S
C3058 H3049 0.930 . S
C3058 C3056 1.384 . S
C3058 C3059 1.372 . S
C3059 C3058 1.372 . S
C3059 C3060 1.400 . S
C3059 C3064 1.490 . S
C3060 H3050 0.930 . S
C3060 C3059 1.400 . S
C3060 C3063 1.386 . S
H3061 C3077 0.930 . S
H3062 C3078 0.931 . S
C3063 H3051 0.929 . S
C3063 C3057 1.390 . S
C3063 C3060 1.386 . S
C3064 C3059 1.490 . S
C3064 C3066 1.395 . S
C3064 C3067 1.403 . S
H3065 C3071 0.930 . S
C3066 H3052 0.930 . S
C3066 C3064 1.395 . S
C3066 C3069 1.403 . S
C3067 C3064 1.403 . S
C3067 C3068 1.524 . S
C3067 C3071 1.400 . S
C3068 H3053 0.960 . S
C3068 H3054 0.960 . S
C3068 H3055 0.960 . S
C3068 C3067 1.524 . S
C3069 C3066 1.403 . S
C3069 C3070 1.392 . S
C3069 C3073 1.495 . S
C3070 C3069 1.392 . S
C3070 C3071 1.385 . S
C3070 C3072 1.478 . S
C3071 H3065 0.930 . S
C3071 C3067 1.400 . S
C3071 C3070 1.385 . S
C3072 C3070 1.478 . S
C3072 C3074 1.381 . S
C3072 C3078 1.383 . S
C3073 C3069 1.495 . S
C3073 H3079 0.959 . S
C3073 H3080 0.961 . S
C3073 H3081 0.960 . S
C3074 C3072 1.381 . S
C3074 C3075 1.394 . S
C3074 H3082 0.930 . S
C3075 C3074 1.394 . S
C3075 C3076 1.383 . S
C3075 H3083 0.929 . S
C3076 C3075 1.383 . S
C3076 C3077 1.377 . S
C3077 H3061 0.930 . S
C3077 C3076 1.377 . S
C3077 C3078 1.379 . S
C3078 H3062 0.931 . S
C3078 C3072 1.383 . S
C3078 C3077 1.379 . S
H3079 C3073 0.959 . S
H3080 C3073 0.961 . S
H3081 C3073 0.960 . S
H3082 C3074 0.930 . S
H3083 C3075 0.929 . S
H3084 C3092 0.929 . S
H3085 C3094 0.930 . S
H3086 C3096 0.930 . S
H3087 C3099 0.929 . S
H3088 C3102 0.930 . S
H3089 C3104 0.960 . S
H3090 C3104 0.960 . S
H3091 C3104 0.960 . S
C3092 H3084 0.929 . S
C3092 C3093 1.377 . S
C3092 C3094 1.384 . S
C3093 C3092 1.377 . S
C3093 C3099 1.390 . S
C3094 H3085 0.930 . S
C3094 C3092 1.384 . S
C3094 C3095 1.372 . S
C3095 C3094 1.372 . S
C3095 C3096 1.400 . S
C3095 C3100 1.490 . S
C3096 H3086 0.930 . S
C3096 C3095 1.400 . S
C3096 C3099 1.386 . S
H3097 C3113 0.930 . S
H3098 C3114 0.931 . S
C3099 H3087 0.929 . S
C3099 C3093 1.390 . S
C3099 C3096 1.386 . S
C3100 C3095 1.490 . S
C3100 C3102 1.395 . S
C3100 C3103 1.403 . S
H3101 C3107 0.930 . S
C3102 H3088 0.930 . S
C3102 C3100 1.395 . S
C3102 C3105 1.403 . S
C3103 C3100 1.403 . S
C3103 C3104 1.524 . S
C3103 C3107 1.400 . S
C3104 H3089 0.960 . S
C3104 H3090 0.960 . S
C3104 H3091 0.960 . S
C3104 C3103 1.524 . S
C3105 C3102 1.403 . S
C3105 C3106 1.392 . S
C3105 C3109 1.495 . S
C3106 C3105 1.392 . S
C3106 C3107 1.385 . S
C3106 C3108 1.478 . S
C3107 H3101 0.930 . S
C3107 C3103 1.400 . S
C3107 C3106 1.385 . S
C3108 C3106 1.478 . S
C3108 C3110 1.381 . S
C3108 C3114 1.383 . S
C3109 C3105 1.495 . S
C3109 H3115 0.959 . S
C3109 H3116 0.961 . S
C3109 H3117 0.960 . S
C3110 C3108 1.381 . S
C3110 C3111 1.394 . S
C3110 H3118 0.930 . S
C3111 C3110 1.394 . S
C3111 C3112 1.383 . S
C3111 H3119 0.929 . S
C3112 C3111 1.383 . S
C3112 C3113 1.377 . S
C3113 H3097 0.930 . S
C3113 C3112 1.377 . S
C3113 C3114 1.379 . S
C3114 H3098 0.931 . S
C3114 C3108 1.383 . S
C3114 C3113 1.379 . S
H3115 C3109 0.959 . S
H3116 C3109 0.961 . S
H3117 C3109 0.960 . S
H3118 C3110 0.930 . S
H3119 C3111 0.929 . S
H3120 C3128 0.929 . S
H3121 C3130 0.930 . S
H3122 C3132 0.930 . S
H3123 C3135 0.929 . S
H3124 C3138 0.930 . S
H3125 C3140 0.960 . S
H3126 C3140 0.960 . S
H3127 C3140 0.960 . S
C3128 H3120 0.929 . S
C3128 C3129 1.377 . S
C3128 C3130 1.384 . S
C3129 C3128 1.377 . S
C3129 C3135 1.390 . S
C3130 H3121 0.930 . S
C3130 C3128 1.384 . S
C3130 C3131 1.372 . S
C3131 C3130 1.372 . S
C3131 C3132 1.400 . S
C3131 C3136 1.490 . S
C3132 H3122 0.930 . S
C3132 C3131 1.400 . S
C3132 C3135 1.386 . S
H3133 C3149 0.930 . S
H3134 C3150 0.931 . S
C3135 H3123 0.929 . S
C3135 C3129 1.390 . S
C3135 C3132 1.386 . S
C3136 C3131 1.490 . S
C3136 C3138 1.395 . S
C3136 C3139 1.403 . S
H3137 C3143 0.930 . S
C3138 H3124 0.930 . S
C3138 C3136 1.395 . S
C3138 C3141 1.403 . S
C3139 C3136 1.403 . S
C3139 C3140 1.524 . S
C3139 C3143 1.400 . S
C3140 H3125 0.960 . S
C3140 H3126 0.960 . S
C3140 H3127 0.960 . S
C3140 C3139 1.524 . S
C3141 C3138 1.403 . S
C3141 C3142 1.392 . S
C3141 C3145 1.495 . S
C3142 C3141 1.392 . S
C3142 C3143 1.385 . S
C3142 C3144 1.478 . S
C3143 H3137 0.930 . S
C3143 C3139 1.400 . S
C3143 C3142 1.385 . S
C3144 C3142 1.478 . S
C3144 C3146 1.381 . S
C3144 C3150 1.383 . S
C3145 C3141 1.495 . S
C3145 H3151 0.959 . S
C3145 H3152 0.961 . S
C3145 H3153 0.960 . S
C3146 C3144 1.381 . S
C3146 C3147 1.394 . S
C3146 H3154 0.930 . S
C3147 C3146 1.394 . S
C3147 C3148 1.383 . S
C3147 H3155 0.929 . S
C3148 C3147 1.383 . S
C3148 C3149 1.377 . S
C3149 H3133 0.930 . S
C3149 C3148 1.377 . S
C3149 C3150 1.379 . S
C3150 H3134 0.931 . S
C3150 C3144 1.383 . S
C3150 C3149 1.379 . S
H3151 C3145 0.959 . S
H3152 C3145 0.961 . S
H3153 C3145 0.960 . S
H3154 C3146 0.930 . S
H3155 C3147 0.929 . S
H3156 C3164 0.929 . S
H3157 C3166 0.930 . S
H3158 C3168 0.930 . S
H3159 C3171 0.929 . S
H3160 C3174 0.930 . S
H3161 C3176 0.960 . S
H3162 C3176 0.960 . S
H3163 C3176 0.960 . S
C3164 H3156 0.929 . S
C3164 C3165 1.377 . S
C3164 C3166 1.384 . S
C3165 C3164 1.377 . S
C3165 C3171 1.390 . S
C3166 H3157 0.930 . S
C3166 C3164 1.384 . S
C3166 C3167 1.372 . S
C3167 C3166 1.372 . S
C3167 C3168 1.400 . S
C3167 C3172 1.490 . S
C3168 H3158 0.930 . S
C3168 C3167 1.400 . S
C3168 C3171 1.386 . S
H3169 C3185 0.930 . S
H3170 C3186 0.931 . S
C3171 H3159 0.929 . S
C3171 C3165 1.390 . S
C3171 C3168 1.386 . S
C3172 C3167 1.490 . S
C3172 C3174 1.395 . S
C3172 C3175 1.403 . S
H3173 C3179 0.930 . S
C3174 H3160 0.930 . S
C3174 C3172 1.395 . S
C3174 C3177 1.403 . S
C3175 C3172 1.403 . S
C3175 C3176 1.524 . S
C3175 C3179 1.400 . S
C3176 H3161 0.960 . S
C3176 H3162 0.960 . S
C3176 H3163 0.960 . S
C3176 C3175 1.524 . S
C3177 C3174 1.403 . S
C3177 C3178 1.392 . S
C3177 C3181 1.495 . S
C3178 C3177 1.392 . S
C3178 C3179 1.385 . S
C3178 C3180 1.478 . S
C3179 H3173 0.930 . S
C3179 C3175 1.400 . S
C3179 C3178 1.385 . S
C3180 C3178 1.478 . S
C3180 C3182 1.381 . S
C3180 C3186 1.383 . S
C3181 C3177 1.495 . S
C3181 H3187 0.959 . S
C3181 H3188 0.961 . S
C3181 H3189 0.960 . S
C3182 C3180 1.381 . S
C3182 C3183 1.394 . S
C3182 H3190 0.930 . S
C3183 C3182 1.394 . S
C3183 C3184 1.383 . S
C3183 H3191 0.929 . S
C3184 C3183 1.383 . S
C3184 C3185 1.377 . S
C3185 H3169 0.930 . S
C3185 C3184 1.377 . S
C3185 C3186 1.379 . S
C3186 H3170 0.931 . S
C3186 C3180 1.383 . S
C3186 C3185 1.379 . S
H3187 C3181 0.959 . S
H3188 C3181 0.961 . S
H3189 C3181 0.960 . S
H3190 C3182 0.930 . S
H3191 C3183 0.929 . S
H3192 C3200 0.929 . S
H3193 C3202 0.930 . S
H3194 C3204 0.930 . S
H3195 C3207 0.929 . S
H3196 C3210 0.930 . S
H3197 C3212 0.960 . S
H3198 C3212 0.960 . S
H3199 C3212 0.960 . S
C3200 H3192 0.929 . S
C3200 C3201 1.377 . S
C3200 C3202 1.384 . S
C3201 C3200 1.377 . S
C3201 C3207 1.390 . S
C3202 H3193 0.930 . S
C3202 C3200 1.384 . S
C3202 C3203 1.372 . S
C3203 C3202 1.372 . S
C3203 C3204 1.400 . S
C3203 C3208 1.490 . S
C3204 H3194 0.930 . S
C3204 C3203 1.400 . S
C3204 C3207 1.386 . S
H3205 C3221 0.930 . S
H3206 C3222 0.931 . S
C3207 H3195 0.929 . S
C3207 C3201 1.390 . S
C3207 C3204 1.386 . S
C3208 C3203 1.490 . S
C3208 C3210 1.395 . S
C3208 C3211 1.403 . S
H3209 C3215 0.930 . S
C3210 H3196 0.930 . S
C3210 C3208 1.395 . S
C3210 C3213 1.403 . S
C3211 C3208 1.403 . S
C3211 C3212 1.524 . S
C3211 C3215 1.400 . S
C3212 H3197 0.960 . S
C3212 H3198 0.960 . S
C3212 H3199 0.960 . S
C3212 C3211 1.524 . S
C3213 C3210 1.403 . S
C3213 C3214 1.392 . S
C3213 C3217 1.495 . S
C3214 C3213 1.392 . S
C3214 C3215 1.385 . S
C3214 C3216 1.478 . S
C3215 H3209 0.930 . S
C3215 C3211 1.400 . S
C3215 C3214 1.385 . S
C3216 C3214 1.478 . S
C3216 C3218 1.381 . S
C3216 C3222 1.383 . S
C3217 C3213 1.495 . S
C3217 H3223 0.959 . S
C3217 H3224 0.961 . S
C3217 H3225 0.960 . S
C3218 C3216 1.381 . S
C3218 C3219 1.394 . S
C3218 H3226 0.930 . S
C3219 C3218 1.394 . S
C3219 C3220 1.383 . S
C3219 H3227 0.929 . S
C3220 C3219 1.383 . S
C3220 C3221 1.377 . S
C3221 H3205 0.930 . S
C3221 C3220 1.377 . S
C3221 C3222 1.379 . S
C3222 H3206 0.931 . S
C3222 C3216 1.383 . S
C3222 C3221 1.379 . S
H3223 C3217 0.959 . S
H3224 C3217 0.961 . S
H3225 C3217 0.960 . S
H3226 C3218 0.930 . S
H3227 C3219 0.929 . S
H3228 C3236 0.929 . S
H3229 C3238 0.930 . S
H3230 C3240 0.930 . S
H3231 C3243 0.929 . S
H3232 C3246 0.930 . S
H3233 C3248 0.960 . S
H3234 C3248 0.960 . S
H3235 C3248 0.960 . S
C3236 H3228 0.929 . S
C3236 C3237 1.377 . S
C3236 C3238 1.384 . S
C3237 C3236 1.377 . S
C3237 C3243 1.390 . S
C3238 H3229 0.930 . S
C3238 C3236 1.384 . S
C3238 C3239 1.372 . S
C3239 C3238 1.372 . S
C3239 C3240 1.400 . S
C3239 C3244 1.490 . S
C3240 H3230 0.930 . S
C3240 C3239 1.400 . S
C3240 C3243 1.386 . S
H3241 C3257 0.930 . S
H3242 C3258 0.931 . S
C3243 H3231 0.929 . S
C3243 C3237 1.390 . S
C3243 C3240 1.386 . S
C3244 C3239 1.490 . S
C3244 C3246 1.395 . S
C3244 C3247 1.403 . S
H3245 C3251 0.930 . S
C3246 H3232 0.930 . S
C3246 C3244 1.395 . S
C3246 C3249 1.403 . S
C3247 C3244 1.403 . S
C3247 C3248 1.524 . S
C3247 C3251 1.400 . S
C3248 H3233 0.960 . S
C3248 H3234 0.960 . S
C3248 H3235 0.960 . S
C3248 C3247 1.524 . S
C3249 C3246 1.403 . S
C3249 C3250 1.392 . S
C3249 C3253 1.495 . S
C3250 C3249 1.392 . S
C3250 C3251 1.385 . S
C3250 C3252 1.478 . S
C3251 H3245 0.930 . S
C3251 C3247 1.400 . S
C3251 C3250 1.385 . S
C3252 C3250 1.478 . S
C3252 C3254 1.381 . S
C3252 C3258 1.383 . S
C3253 C3249 1.495 . S
C3253 H3259 0.959 . S
C3253 H3260 0.961 . S
C3253 H3261 0.960 . S
C3254 C3252 1.381 . S
C3254 C3255 1.394 . S
C3254 H3262 0.930 . S
C3255 C3254 1.394 . S
C3255 C3256 1.383 . S
C3255 H3263 0.929 . S
C3256 C3255 1.383 . S
C3256 C3257 1.377 . S
C3257 H3241 0.930 . S
C3257 C3256 1.377 . S
C3257 C3258 1.379 . S
C3258 H3242 0.931 . S
C3258 C3252 1.383 . S
C3258 C3257 1.379 . S
H3259 C3253 0.959 . S
H3260 C3253 0.961 . S
H3261 C3253 0.960 . S
H3262 C3254 0.930 . S
H3263 C3255 0.929 . S
H3264 C3272 0.929 . S
H3265 C3274 0.930 . S
H3266 C3276 0.930 . S
H3267 C3279 0.929 . S
H3268 C3282 0.930 . S
H3269 C3284 0.960 . S
H3270 C3284 0.960 . S
H3271 C3284 0.960 . S
C3272 H3264 0.929 . S
C3272 C3273 1.377 . S
C3272 C3274 1.384 . S
C3273 C3272 1.377 . S
C3273 C3279 1.390 . S
C3274 H3265 0.930 . S
C3274 C3272 1.384 . S
C3274 C3275 1.372 . S
C3275 C3274 1.372 . S
C3275 C3276 1.400 . S
C3275 C3280 1.490 . S
C3276 H3266 0.930 . S
C3276 C3275 1.400 . S
C3276 C3279 1.386 . S
H3277 C3293 0.930 . S
H3278 C3294 0.931 . S
C3279 H3267 0.929 . S
C3279 C3273 1.390 . S
C3279 C3276 1.386 . S
C3280 C3275 1.490 . S
C3280 C3282 1.395 . S
C3280 C3283 1.403 . S
H3281 C3287 0.930 . S
C3282 H3268 0.930 . S
C3282 C3280 1.395 . S
C3282 C3285 1.403 . S
C3283 C3280 1.403 . S
C3283 C3284 1.524 . S
C3283 C3287 1.400 . S
C3284 H3269 0.960 . S
C3284 H3270 0.960 . S
C3284 H3271 0.960 . S
C3284 C3283 1.524 . S
C3285 C3282 1.403 . S
C3285 C3286 1.392 . S
C3285 C3289 1.495 . S
C3286 C3285 1.392 . S
C3286 C3287 1.385 . S
C3286 C3288 1.478 . S
C3287 H3281 0.930 . S
C3287 C3283 1.400 . S
C3287 C3286 1.385 . S
C3288 C3286 1.478 . S
C3288 C3290 1.381 . S
C3288 C3294 1.383 . S
C3289 C3285 1.495 . S
C3289 H3295 0.959 . S
C3289 H3296 0.961 . S
C3289 H3297 0.960 . S
C3290 C3288 1.381 . S
C3290 C3291 1.394 . S
C3290 H3298 0.930 . S
C3291 C3290 1.394 . S
C3291 C3292 1.383 . S
C3291 H3299 0.929 . S
C3292 C3291 1.383 . S
C3292 C3293 1.377 . S
C3293 H3277 0.930 . S
C3293 C3292 1.377 . S
C3293 C3294 1.379 . S
C3294 H3278 0.931 . S
C3294 C3288 1.383 . S
C3294 C3293 1.379 . S
H3295 C3289 0.959 . S
H3296 C3289 0.961 . S
H3297 C3289 0.960 . S
H3298 C3290 0.930 . S
H3299 C3291 0.929 . S
H3300 C3308 0.929 . S
H3301 C3310 0.930 . S
H3302 C3312 0.930 . S
H3303 C3315 0.929 . S
H3304 C3318 0.930 . S
H3305 C3320 0.960 . S
H3306 C3320 0.960 . S
H3307 C3320 0.960 . S
C3308 H3300 0.929 . S
C3308 C3309 1.377 . S
C3308 C3310 1.384 . S
C3309 C3308 1.377 . S
C3309 C3315 1.390 . S
C3310 H3301 0.930 . S
C3310 C3308 1.384 . S
C3310 C3311 1.372 . S
C3311 C3310 1.372 . S
C3311 C3312 1.400 . S
C3311 C3316 1.490 . S
C3312 H3302 0.930 . S
C3312 C3311 1.400 . S
C3312 C3315 1.386 . S
H3313 C3329 0.930 . S
H3314 C3330 0.931 . S
C3315 H3303 0.929 . S
C3315 C3309 1.390 . S
C3315 C3312 1.386 . S
C3316 C3311 1.490 . S
C3316 C3318 1.395 . S
C3316 C3319 1.403 . S
H3317 C3323 0.930 . S
C3318 H3304 0.930 . S
C3318 C3316 1.395 . S
C3318 C3321 1.403 . S
C3319 C3316 1.403 . S
C3319 C3320 1.524 . S
C3319 C3323 1.400 . S
C3320 H3305 0.960 . S
C3320 H3306 0.960 . S
C3320 H3307 0.960 . S
C3320 C3319 1.524 . S
C3321 C3318 1.403 . S
C3321 C3322 1.392 . S
C3321 C3325 1.495 . S
C3322 C3321 1.392 . S
C3322 C3323 1.385 . S
C3322 C3324 1.478 . S
C3323 H3317 0.930 . S
C3323 C3319 1.400 . S
C3323 C3322 1.385 . S
C3324 C3322 1.478 . S
C3324 C3326 1.381 . S
C3324 C3330 1.383 . S
C3325 C3321 1.495 . S
C3325 H3331 0.959 . S
C3325 H3332 0.961 . S
C3325 H3333 0.960 . S
C3326 C3324 1.381 . S
C3326 C3327 1.394 . S
C3326 H3334 0.930 . S
C3327 C3326 1.394 . S
C3327 C3328 1.383 . S
C3327 H3335 0.929 . S
C3328 C3327 1.383 . S
C3328 C3329 1.377 . S
C3329 H3313 0.930 . S
C3329 C3328 1.377 . S
C3329 C3330 1.379 . S
C3330 H3314 0.931 . S
C3330 C3324 1.383 . S
C3330 C3329 1.379 . S
H3331 C3325 0.959 . S
H3332 C3325 0.961 . S
H3333 C3325 0.960 . S
H3334 C3326 0.930 . S
H3335 C3327 0.929 . S
H3336 C3344 0.929 . S
H3337 C3346 0.930 . S
H3338 C3348 0.930 . S
H3339 C3351 0.929 . S
H3340 C3354 0.930 . S
H3341 C3356 0.960 . S
H3342 C3356 0.960 . S
H3343 C3356 0.960 . S
C3344 H3336 0.929 . S
C3344 C3345 1.377 . S
C3344 C3346 1.384 . S
C3345 C3344 1.377 . S
C3345 C3351 1.390 . S
C3346 H3337 0.930 . S
C3346 C3344 1.384 . S
C3346 C3347 1.372 . S
C3347 C3346 1.372 . S
C3347 C3348 1.400 . S
C3347 C3352 1.490 . S
C3348 H3338 0.930 . S
C3348 C3347 1.400 . S
C3348 C3351 1.386 . S
H3349 C3365 0.930 . S
H3350 C3366 0.931 . S
C3351 H3339 0.929 . S
C3351 C3345 1.390 . S
C3351 C3348 1.386 . S
C3352 C3347 1.490 . S
C3352 C3354 1.395 . S
C3352 C3355 1.403 . S
H3353 C3359 0.930 . S
C3354 H3340 0.930 . S
C3354 C3352 1.395 . S
C3354 C3357 1.403 . S
C3355 C3352 1.403 . S
C3355 C3356 1.524 . S
C3355 C3359 1.400 . S
C3356 H3341 0.960 . S
C3356 H3342 0.960 . S
C3356 H3343 0.960 . S
C3356 C3355 1.524 . S
C3357 C3354 1.403 . S
C3357 C3358 1.392 . S
C3357 C3361 1.495 . S
C3358 C3357 1.392 . S
C3358 C3359 1.385 . S
C3358 C3360 1.478 . S
C3359 H3353 0.930 . S
C3359 C3355 1.400 . S
C3359 C3358 1.385 . S
C3360 C3358 1.478 . S
C3360 C3362 1.381 . S
C3360 C3366 1.383 . S
C3361 C3357 1.495 . S
C3361 H3367 0.959 . S
C3361 H3368 0.961 . S
C3361 H3369 0.960 . S
C3362 C3360 1.381 . S
C3362 C3363 1.394 . S
C3362 H3370 0.930 . S
C3363 C3362 1.394 . S
C3363 C3364 1.383 . S
C3363 H3371 0.929 . S
C3364 C3363 1.383 . S
C3364 C3365 1.377 . S
C3365 H3349 0.930 . S
C3365 C3364 1.377 . S
C3365 C3366 1.379 . S
C3366 H3350 0.931 . S
C3366 C3360 1.383 . S
C3366 C3365 1.379 . S
H3367 C3361 0.959 . S
H3368 C3361 0.961 . S
H3369 C3361 0.960 . S
H3370 C3362 0.930 . S
H3371 C3363 0.929 . S
H3372 C3380 0.929 . S
H3373 C3382 0.930 . S
H3374 C3384 0.930 . S
H3375 C3387 0.929 . S
H3376 C3390 0.930 . S
H3377 C3392 0.960 . S
H3378 C3392 0.960 . S
H3379 C3392 0.960 . S
C3380 H3372 0.929 . S
C3380 C3381 1.377 . S
C3380 C3382 1.384 . S
C3381 C3380 1.377 . S
C3381 C3387 1.390 . S
C3382 H3373 0.930 . S
C3382 C3380 1.384 . S
C3382 C3383 1.372 . S
C3383 C3382 1.372 . S
C3383 C3384 1.400 . S
C3383 C3388 1.490 . S
C3384 H3374 0.930 . S
C3384 C3383 1.400 . S
C3384 C3387 1.386 . S
H3385 C3401 0.930 . S
H3386 C3402 0.931 . S
C3387 H3375 0.929 . S
C3387 C3381 1.390 . S
C3387 C3384 1.386 . S
C3388 C3383 1.490 . S
C3388 C3390 1.395 . S
C3388 C3391 1.403 . S
H3389 C3395 0.930 . S
C3390 H3376 0.930 . S
C3390 C3388 1.395 . S
C3390 C3393 1.403 . S
C3391 C3388 1.403 . S
C3391 C3392 1.524 . S
C3391 C3395 1.400 . S
C3392 H3377 0.960 . S
C3392 H3378 0.960 . S
C3392 H3379 0.960 . S
C3392 C3391 1.524 . S
C3393 C3390 1.403 . S
C3393 C3394 1.392 . S
C3393 C3397 1.495 . S
C3394 C3393 1.392 . S
C3394 C3395 1.385 . S
C3394 C3396 1.478 . S
C3395 H3389 0.930 . S
C3395 C3391 1.400 . S
C3395 C3394 1.385 . S
C3396 C3394 1.478 . S
C3396 C3398 1.381 . S
C3396 C3402 1.383 . S
C3397 C3393 1.495 . S
C3397 H3403 0.959 . S
C3397 H3404 0.961 . S
C3397 H3405 0.960 . S
C3398 C3396 1.381 . S
C3398 C3399 1.394 . S
C3398 H3406 0.930 . S
C3399 C3398 1.394 . S
C3399 C3400 1.383 . S
C3399 H3407 0.929 . S
C3400 C3399 1.383 . S
C3400 C3401 1.377 . S
C3401 H3385 0.930 . S
C3401 C3400 1.377 . S
C3401 C3402 1.379 . S
C3402 H3386 0.931 . S
C3402 C3396 1.383 . S
C3402 C3401 1.379 . S
H3403 C3397 0.959 . S
H3404 C3397 0.961 . S
H3405 C3397 0.960 . S
H3406 C3398 0.930 . S
H3407 C3399 0.929 . S
H3408 C3416 0.929 . S
H3409 C3418 0.930 . S
H3410 C3420 0.930 . S
H3411 C3423 0.929 . S
H3412 C3426 0.930 . S
H3413 C3428 0.960 . S
H3414 C3428 0.960 . S
H3415 C3428 0.960 . S
C3416 H3408 0.929 . S
C3416 C3417 1.377 . S
C3416 C3418 1.384 . S
C3417 C3416 1.377 . S
C3417 C3423 1.390 . S
C3418 H3409 0.930 . S
C3418 C3416 1.384 . S
C3418 C3419 1.372 . S
C3419 C3418 1.372 . S
C3419 C3420 1.400 . S
C3419 C3424 1.490 . S
C3420 H3410 0.930 . S
C3420 C3419 1.400 . S
C3420 C3423 1.386 . S
H3421 C3437 0.930 . S
H3422 C3438 0.931 . S
C3423 H3411 0.929 . S
C3423 C3417 1.390 . S
C3423 C3420 1.386 . S
C3424 C3419 1.490 . S
C3424 C3426 1.395 . S
C3424 C3427 1.403 . S
H3425 C3431 0.930 . S
C3426 H3412 0.930 . S
C3426 C3424 1.395 . S
C3426 C3429 1.403 . S
C3427 C3424 1.403 . S
C3427 C3428 1.524 . S
C3427 C3431 1.400 . S
C3428 H3413 0.960 . S
C3428 H3414 0.960 . S
C3428 H3415 0.960 . S
C3428 C3427 1.524 . S
C3429 C3426 1.403 . S
C3429 C3430 1.392 . S
C3429 C3433 1.495 . S
C3430 C3429 1.392 . S
C3430 C3431 1.385 . S
C3430 C3432 1.478 . S
C3431 H3425 0.930 . S
C3431 C3427 1.400 . S
C3431 C3430 1.385 . S
C3432 C3430 1.478 . S
C3432 C3434 1.381 . S
C3432 C3438 1.383 . S
C3433 C3429 1.495 . S
C3433 H3439 0.959 . S
C3433 H3440 0.961 . S
C3433 H3441 0.960 . S
C3434 C3432 1.381 . S
C3434 C3435 1.394 . S
C3434 H3442 0.930 . S
C3435 C3434 1.394 . S
C3435 C3436 1.383 . S
C3435 H3443 0.929 . S
C3436 C3435 1.383 . S
C3436 C3437 1.377 . S
C3437 H3421 0.930 . S
C3437 C3436 1.377 . S
C3437 C3438 1.379 . S
C3438 H3422 0.931 . S
C3438 C3432 1.383 . S
C3438 C3437 1.379 . S
H3439 C3433 0.959 . S
H3440 C3433 0.961 . S
H3441 C3433 0.960 . S
H3442 C3434 0.930 . S
H3443 C3435 0.929 . S
H3444 C3452 0.929 . S
H3445 C3454 0.930 . S
H3446 C3456 0.930 . S
H3447 C3459 0.929 . S
H3448 C3462 0.930 . S
H3449 C3464 0.960 . S
H3450 C3464 0.960 . S
H3451 C3464 0.960 . S
C3452 H3444 0.929 . S
C3452 C3453 1.377 . S
C3452 C3454 1.384 . S
C3453 C3452 1.377 . S
C3453 C3459 1.390 . S
C3454 H3445 0.930 . S
C3454 C3452 1.384 . S
C3454 C3455 1.372 . S
C3455 C3454 1.372 . S
C3455 C3456 1.400 . S
C3455 C3460 1.490 . S
C3456 H3446 0.930 . S
C3456 C3455 1.400 . S
C3456 C3459 1.386 . S
H3457 C3473 0.930 . S
H3458 C3474 0.931 . S
C3459 H3447 0.929 . S
C3459 C3453 1.390 . S
C3459 C3456 1.386 . S
C3460 C3455 1.490 . S
C3460 C3462 1.395 . S
C3460 C3463 1.403 . S
H3461 C3467 0.930 . S
C3462 H3448 0.930 . S
C3462 C3460 1.395 . S
C3462 C3465 1.403 . S
C3463 C3460 1.403 . S
C3463 C3464 1.524 . S
C3463 C3467 1.400 . S
C3464 H3449 0.960 . S
C3464 H3450 0.960 . S
C3464 H3451 0.960 . S
C3464 C3463 1.524 . S
C3465 C3462 1.403 . S
C3465 C3466 1.392 . S
C3465 C3469 1.495 . S
C3466 C3465 1.392 . S
C3466 C3467 1.385 . S
C3466 C3468 1.478 . S
C3467 H3461 0.930 . S
C3467 C3463 1.400 . S
C3467 C3466 1.385 . S
C3468 C3466 1.478 . S
C3468 C3470 1.381 . S
C3468 C3474 1.383 . S
C3469 C3465 1.495 . S
C3469 H3475 0.959 . S
C3469 H3476 0.961 . S
C3469 H3477 0.960 . S
C3470 C3468 1.381 . S
C3470 C3471 1.394 . S
C3470 H3478 0.930 . S
C3471 C3470 1.394 . S
C3471 C3472 1.383 . S
C3471 H3479 0.929 . S
C3472 C3471 1.383 . S
C3472 C3473 1.377 . S
C3473 H3457 0.930 . S
C3473 C3472 1.377 . S
C3473 C3474 1.379 . S
C3474 H3458 0.931 . S
C3474 C3468 1.383 . S
C3474 C3473 1.379 . S
H3475 C3469 0.959 . S
H3476 C3469 0.961 . S
H3477 C3469 0.960 . S
H3478 C3470 0.930 . S
H3479 C3471 0.929 . S
H3480 C3488 0.929 . S
H3481 C3490 0.930 . S
H3482 C3492 0.930 . S
H3483 C3495 0.929 . S
H3484 C3498 0.930 . S
H3485 C3500 0.960 . S
H3486 C3500 0.960 . S
H3487 C3500 0.960 . S
C3488 H3480 0.929 . S
C3488 C3489 1.377 . S
C3488 C3490 1.384 . S
C3489 C3488 1.377 . S
C3489 C3495 1.390 . S
C3490 H3481 0.930 . S
C3490 C3488 1.384 . S
C3490 C3491 1.372 . S
C3491 C3490 1.372 . S
C3491 C3492 1.400 . S
C3491 C3496 1.490 . S
C3492 H3482 0.930 . S
C3492 C3491 1.400 . S
C3492 C3495 1.386 . S
H3493 C3509 0.930 . S
H3494 C3510 0.931 . S
C3495 H3483 0.929 . S
C3495 C3489 1.390 . S
C3495 C3492 1.386 . S
C3496 C3491 1.490 . S
C3496 C3498 1.395 . S
C3496 C3499 1.403 . S
H3497 C3503 0.930 . S
C3498 H3484 0.930 . S
C3498 C3496 1.395 . S
C3498 C3501 1.403 . S
C3499 C3496 1.403 . S
C3499 C3500 1.524 . S
C3499 C3503 1.400 . S
C3500 H3485 0.960 . S
C3500 H3486 0.960 . S
C3500 H3487 0.960 . S
C3500 C3499 1.524 . S
C3501 C3498 1.403 . S
C3501 C3502 1.392 . S
C3501 C3505 1.495 . S
C3502 C3501 1.392 . S
C3502 C3503 1.385 . S
C3502 C3504 1.478 . S
C3503 H3497 0.930 . S
C3503 C3499 1.400 . S
C3503 C3502 1.385 . S
C3504 C3502 1.478 . S
C3504 C3506 1.381 . S
C3504 C3510 1.383 . S
C3505 C3501 1.495 . S
C3505 H3511 0.959 . S
C3505 H3512 0.961 . S
C3505 H3513 0.960 . S
C3506 C3504 1.381 . S
C3506 C3507 1.394 . S
C3506 H3514 0.930 . S
C3507 C3506 1.394 . S
C3507 C3508 1.383 . S
C3507 H3515 0.929 . S
C3508 C3507 1.383 . S
C3508 C3509 1.377 . S
C3509 H3493 0.930 . S
C3509 C3508 1.377 . S
C3509 C3510 1.379 . S
C3510 H3494 0.931 . S
C3510 C3504 1.383 . S
C3510 C3509 1.379 . S
H3511 C3505 0.959 . S
H3512 C3505 0.961 . S
H3513 C3505 0.960 . S
H3514 C3506 0.930 . S
H3515 C3507 0.929 . S
H3516 C3524 0.929 . S
H3517 C3526 0.930 . S
H3518 C3528 0.930 . S
H3519 C3531 0.929 . S
H3520 C3534 0.930 . S
H3521 C3536 0.960 . S
H3522 C3536 0.960 . S
H3523 C3536 0.960 . S
C3524 H3516 0.929 . S
C3524 C3525 1.377 . S
C3524 C3526 1.384 . S
C3525 C3524 1.377 . S
C3525 C3531 1.390 . S
C3526 H3517 0.930 . S
C3526 C3524 1.384 . S
C3526 C3527 1.372 . S
C3527 C3526 1.372 . S
C3527 C3528 1.400 . S
C3527 C3532 1.490 . S
C3528 H3518 0.930 . S
C3528 C3527 1.400 . S
C3528 C3531 1.386 . S
H3529 C3545 0.930 . S
H3530 C3546 0.931 . S
C3531 H3519 0.929 . S
C3531 C3525 1.390 . S
C3531 C3528 1.386 . S
C3532 C3527 1.490 . S
C3532 C3534 1.395 . S
C3532 C3535 1.403 . S
H3533 C3539 0.930 . S
C3534 H3520 0.930 . S
C3534 C3532 1.395 . S
C3534 C3537 1.403 . S
C3535 C3532 1.403 . S
C3535 C3536 1.524 . S
C3535 C3539 1.400 . S
C3536 H3521 0.960 . S
C3536 H3522 0.960 . S
C3536 H3523 0.960 . S
C3536 C3535 1.524 . S
C3537 C3534 1.403 . S
C3537 C3538 1.392 . S
C3537 C3541 1.495 . S
C3538 C3537 1.392 . S
C3538 C3539 1.385 . S
C3538 C3540 1.478 . S
C3539 H3533 0.930 . S
C3539 C3535 1.400 . S
C3539 C3538 1.385 . S
C3540 C3538 1.478 . S
C3540 C3542 1.381 . S
C3540 C3546 1.383 . S
C3541 C3537 1.495 . S
C3541 H3547 0.959 . S
C3541 H3548 0.961 . S
C3541 H3549 0.960 . S
C3542 C3540 1.381 . S
C3542 C3543 1.394 . S
C3542 H3550 0.930 . S
C3543 C3542 1.394 . S
C3543 C3544 1.383 . S
C3543 H3551 0.929 . S
C3544 C3543 1.383 . S
C3544 C3545 1.377 . S
C3545 H3529 0.930 . S
C3545 C3544 1.377 . S
C3545 C3546 1.379 . S
C3546 H3530 0.931 . S
C3546 C3540 1.383 . S
C3546 C3545 1.379 . S
H3547 C3541 0.959 . S
H3548 C3541 0.961 . S
H3549 C3541 0.960 . S
H3550 C3542 0.930 . S
H3551 C3543 0.929 . S
H3552 C3560 0.929 . S
H3553 C3562 0.930 . S
H3554 C3564 0.930 . S
H3555 C3567 0.929 . S
H3556 C3570 0.930 . S
H3557 C3572 0.960 . S
H3558 C3572 0.960 . S
H3559 C3572 0.960 . S
C3560 H3552 0.929 . S
C3560 C3561 1.377 . S
C3560 C3562 1.384 . S
C3561 C3560 1.377 . S
C3561 C3567 1.390 . S
C3562 H3553 0.930 . S
C3562 C3560 1.384 . S
C3562 C3563 1.372 . S
C3563 C3562 1.372 . S
C3563 C3564 1.400 . S
C3563 C3568 1.490 . S
C3564 H3554 0.930 . S
C3564 C3563 1.400 . S
C3564 C3567 1.386 . S
H3565 C3581 0.930 . S
H3566 C3582 0.931 . S
C3567 H3555 0.929 . S
C3567 C3561 1.390 . S
C3567 C3564 1.386 . S
C3568 C3563 1.490 . S
C3568 C3570 1.395 . S
C3568 C3571 1.403 . S
H3569 C3575 0.930 . S
C3570 H3556 0.930 . S
C3570 C3568 1.395 . S
C3570 C3573 1.403 . S
C3571 C3568 1.403 . S
C3571 C3572 1.524 . S
C3571 C3575 1.400 . S
C3572 H3557 0.960 . S
C3572 H3558 0.960 . S
C3572 H3559 0.960 . S
C3572 C3571 1.524 . S
C3573 C3570 1.403 . S
C3573 C3574 1.392 . S
C3573 C3577 1.495 . S
C3574 C3573 1.392 . S
C3574 C3575 1.385 . S
C3574 C3576 1.478 . S
C3575 H3569 0.930 . S
C3575 C3571 1.400 . S
C3575 C3574 1.385 . S
C3576 C3574 1.478 . S
C3576 C3578 1.381 . S
C3576 C3582 1.383 . S
C3577 C3573 1.495 . S
C3577 H3583 0.959 . S
C3577 H3584 0.961 . S
C3577 H3585 0.960 . S
C3578 C3576 1.381 . S
C3578 C3579 1.394 . S
C3578 H3586 0.930 . S
C3579 C3578 1.394 . S
C3579 C3580 1.383 . S
C3579 H3587 0.929 . S
C3580 C3579 1.383 . S
C3580 C3581 1.377 . S
C3581 H3565 0.930 . S
C3581 C3580 1.377 . S
C3581 C3582 1.379 . S
C3582 H3566 0.931 . S
C3582 C3576 1.383 . S
C3582 C3581 1.379 . S
H3583 C3577 0.959 . S
H3584 C3577 0.961 . S
H3585 C3577 0.960 . S
H3586 C3578 0.930 . S
H3587 C3579 0.929 . S
H3588 C3596 0.929 . S
H3589 C3598 0.930 . S
H3590 C3600 0.930 . S
H3591 C3603 0.929 . S
H3592 C3606 0.930 . S
H3593 C3608 0.960 . S
H3594 C3608 0.960 . S
H3595 C3608 0.960 . S
C3596 H3588 0.929 . S
C3596 C3597 1.377 . S
C3596 C3598 1.384 . S
C3597 C3596 1.377 . S
C3597 C3603 1.390 . S
C3598 H3589 0.930 . S
C3598 C3596 1.384 . S
C3598 C3599 1.372 . S
C3599 C3598 1.372 . S
C3599 C3600 1.400 . S
C3599 C3604 1.490 . S
C3600 H3590 0.930 . S
C3600 C3599 1.400 . S
C3600 C3603 1.386 . S
H3601 C3617 0.930 . S
H3602 C3618 0.931 . S
C3603 H3591 0.929 . S
C3603 C3597 1.390 . S
C3603 C3600 1.386 . S
C3604 C3599 1.490 . S
C3604 C3606 1.395 . S
C3604 C3607 1.403 . S
H3605 C3611 0.930 . S
C3606 H3592 0.930 . S
C3606 C3604 1.395 . S
C3606 C3609 1.403 . S
C3607 C3604 1.403 . S
C3607 C3608 1.524 . S
C3607 C3611 1.400 . S
C3608 H3593 0.960 . S
C3608 H3594 0.960 . S
C3608 H3595 0.960 . S
C3608 C3607 1.524 . S
C3609 C3606 1.403 . S
C3609 C3610 1.392 . S
C3609 C3613 1.495 . S
C3610 C3609 1.392 . S
C3610 C3611 1.385 . S
C3610 C3612 1.478 . S
C3611 H3605 0.930 . S
C3611 C3607 1.400 . S
C3611 C3610 1.385 . S
C3612 C3610 1.478 . S
C3612 C3614 1.381 . S
C3612 C3618 1.383 . S
C3613 C3609 1.495 . S
C3613 H3619 0.959 . S
C3613 H3620 0.961 . S
C3613 H3621 0.960 . S
C3614 C3612 1.381 . S
C3614 C3615 1.394 . S
C3614 H3622 0.930 . S
C3615 C3614 1.394 . S
C3615 C3616 1.383 . S
C3615 H3623 0.929 . S
C3616 C3615 1.383 . S
C3616 C3617 1.377 . S
C3617 H3601 0.930 . S
C3617 C3616 1.377 . S
C3617 C3618 1.379 . S
C3618 H3602 0.931 . S
C3618 C3612 1.383 . S
C3618 C3617 1.379 . S
H3619 C3613 0.959 . S
H3620 C3613 0.961 . S
H3621 C3613 0.960 . S
H3622 C3614 0.930 . S
H3623 C3615 0.929 . S
H3624 C3632 0.929 . S
H3625 C3634 0.930 . S
H3626 C3636 0.930 . S
H3627 C3639 0.929 . S
H3628 C3642 0.930 . S
H3629 C3644 0.960 . S
H3630 C3644 0.960 . S
H3631 C3644 0.960 . S
C3632 H3624 0.929 . S
C3632 C3633 1.377 . S
C3632 C3634 1.384 . S
C3633 C3632 1.377 . S
C3633 C3639 1.390 . S
C3634 H3625 0.930 . S
C3634 C3632 1.384 . S
C3634 C3635 1.372 . S
C3635 C3634 1.372 . S
C3635 C3636 1.400 . S
C3635 C3640 1.490 . S
C3636 H3626 0.930 . S
C3636 C3635 1.400 . S
C3636 C3639 1.386 . S
H3637 C3653 0.930 . S
H3638 C3654 0.931 . S
C3639 H3627 0.929 . S
C3639 C3633 1.390 . S
C3639 C3636 1.386 . S
C3640 C3635 1.490 . S
C3640 C3642 1.395 . S
C3640 C3643 1.403 . S
H3641 C3647 0.930 . S
C3642 H3628 0.930 . S
C3642 C3640 1.395 . S
C3642 C3645 1.403 . S
C3643 C3640 1.403 . S
C3643 C3644 1.524 . S
C3643 C3647 1.400 . S
C3644 H3629 0.960 . S
C3644 H3630 0.960 . S
C3644 H3631 0.960 . S
C3644 C3643 1.524 . S
C3645 C3642 1.403 . S
C3645 C3646 1.392 . S
C3645 C3649 1.495 . S
C3646 C3645 1.392 . S
C3646 C3647 1.385 . S
C3646 C3648 1.478 . S
C3647 H3641 0.930 . S
C3647 C3643 1.400 . S
C3647 C3646 1.385 . S
C3648 C3646 1.478 . S
C3648 C3650 1.381 . S
C3648 C3654 1.383 . S
C3649 C3645 1.495 . S
C3649 H3655 0.959 . S
C3649 H3656 0.961 . S
C3649 H3657 0.960 . S
C3650 C3648 1.381 . S
C3650 C3651 1.394 . S
C3650 H3658 0.930 . S
C3651 C3650 1.394 . S
C3651 C3652 1.383 . S
C3651 H3659 0.929 . S
C3652 C3651 1.383 . S
C3652 C3653 1.377 . S
C3653 H3637 0.930 . S
C3653 C3652 1.377 . S
C3653 C3654 1.379 . S
C3654 H3638 0.931 . S
C3654 C3648 1.383 . S
C3654 C3653 1.379 . S
H3655 C3649 0.959 . S
H3656 C3649 0.961 . S
H3657 C3649 0.960 . S
H3658 C3650 0.930 . S
H3659 C3651 0.929 . S
C1096 C774 1.033 . S
C1077 C765 1.012 . S
C1113 C701 1.032 . S
C1132 C772 1.053 . S
C1168 C773 1.042 . S
C1149 C669 1.019 . S
C1185 C733 1.009 . S
C1204 C775 1.023 . S
C1240 C819 1.033 . S
C1221 C541 1.018 . S
C1276 C879 1.009 . S
C1257 C573 0.997 . S
C1293 C605 1.022 . S
C1312 C818 1.043 . S
C1348 C878 1.042 . S
C1329 C637 1.032 . S
C1365 C413 1.021 . S
C1384 C820 1.033 . S
C1420 C876 1.041 . S
C1401 C445 1.026 . S
C1437 C477 1.000 . S
C1456 C821 1.022 . S
C1473 C509 0.987 . S
C1492 C877 1.008 . S
C1528 C927 1.025 . S
C1509 C381 1.013 . S
C1545 C317 1.034 1_554 S
C1564 C926 1.060 . S
C1581 C285 1.025 1_554 S
C1600 C928 1.048 . S
C1636 C929 1.014 . S
C1617 C349 0.995 1_554 S
C1653 C157 1.005 1_455 S
C1672 C970 1.028 . S
C1689 C189 0.978 1_545 S
C1708 C1029 1.014 . S
C1725 C221 1.021 . S
C1744 C968 1.043 . S
C1761 C253 1.012 . S
C1780 C1028 1.034 . S
C1816 C969 1.039 . S
C1797 C29 1.027 1_455 S
C1852 C1026 1.043 . S
C1833 C61 1.028 1_545 S
C1869 C93 1.018 . S
C1888 C971 1.029 . S
C1924 C1027 1.019 1_565 S
C1905 C125 1.012 1_545 S
C1960 C771 1.713 . S
C1941 C23 1.630 1_455 S
C1977 C55 1.610 1_545 S
C1996 C777 1.700 . S
C2013 C87 1.626 . S
C2032 C769 1.710 . S
C2049 C113 1.630 1_545 S
C2068 C776 1.692 1_565 S
C2085 C151 1.619 1_455 S
C2104 C768 1.708 . S
C2140 C778 1.680 . S
C2121 C183 1.589 1_545 S
C2157 C215 1.636 . S
C2176 C770 1.722 . S
C2212 C779 1.699 1_565 S
C2193 C247 1.626 . S
C2248 C825 1.681 . S
C2229 C119 1.589 1_545 S
C2265 C17 1.644 1_455 S
C2284 C868 1.709 1_655 S
C2320 C823 1.710 . S
C2301 C49 1.624 1_545 S
C2356 C870 1.711 . S
C2337 C81 1.642 . S
C2373 C177 1.625 1_545 S
C2392 C824 1.692 1_565 S
C2428 C869 1.713 1_655 S
C2409 C209 1.633 . S
C2464 C822 1.695 . S
C2445 C241 1.638 . S
C2500 C871 1.705 . S
C2481 C145 1.638 1_455 S
C2536 C875 1.715 1_556 S
C2517 C279 1.627 1_554 S
C2553 C305 1.663 1_554 S
C2572 C874 1.733 1_556 S
C2608 C826 1.726 1_556 S
C2589 C273 1.655 1_554 S
C2644 C873 1.702 1_556 S
C2625 C337 1.633 1_554 S
C2661 C375 1.633 . S
C2680 C829 1.711 1_556 S
C2697 C369 1.643 . S
C2716 C872 1.715 . S
C2752 C828 1.720 1_556 S
C2733 C311 1.632 1_554 S
C2788 C827 1.716 . S
C2769 C343 1.626 1_554 S
C2824 C921 1.710 . S
C2805 C407 1.625 . S
C2860 C924 1.699 . S
C2841 C439 1.614 . S
C2877 C471 1.613 . S
C2896 C920 1.701 . S
C2932 C922 1.697 . S
C2913 C497 1.617 . S
C2968 C918 1.702 . S
C2949 C535 1.619 . S
C2985 C561 1.617 . S
C3004 C923 1.688 . S
C3021 C599 1.625 . S
C3040 C919 1.712 . S
C3076 C925 1.708 . S
C3057 C631 1.622 . S
C3112 C979 1.674 . S
C3093 C503 1.589 . S
C3129 C401 1.633 . S
C3148 C1018 1.711 . S
C3184 C978 1.708 . S
C3165 C433 1.633 . S
C3220 C1020 1.699 . S
C3201 C465 1.633 . S
C3256 C977 1.683 . S
C3237 C567 1.600 . S
C3273 C593 1.650 . S
C3292 C1019 1.716 . S
C3328 C976 1.709 . S
C3309 C625 1.630 . S
C3364 C1021 1.719 . S
C3345 C529 1.639 . S
C3400 C1025 1.719 . S
C3381 C663 1.634 . S
C3417 C689 1.664 . S
C3436 C1024 1.734 . S
C3472 C972 1.727 . S
C3453 C657 1.657 . S
C3489 C721 1.643 . S
C3508 C1023 1.710 . S
C3544 C975 1.712 . S
C3525 C759 1.627 . S
C3580 C1022 1.711 . S
C3561 C753 1.641 . S
C3616 C973 1.730 . S
C3597 C695 1.645 . S
C3633 C727 1.630 . S
C3652 C974 1.717 . S
