# Generated by pormake.
# Topology tsx, (6,3)-cn, num edge types: 1
# Building blocks:
#     Node 0, Type 0, BuildingBlock: JUFBIX_clean_sbu_0, # of connection points: 6
#     Node 1, Type 0, BuildingBlock: JUFBIX_clean_sbu_0, # of connection points: 6
#     Node 2, Type 1, BuildingBlock: INOVEN_clean_linker_0, # of connection points: 3
#     Node 3, Type 1, BuildingBlock: INOVEN_clean_linker_0, # of connection points: 3
#     Node 4, Type 1, BuildingBlock: INOVEN_clean_linker_0, # of connection points: 3
#     Node 5, Type 1, BuildingBlock: INOVEN_clean_linker_0, # of connection points: 3
#     Edge 6, Type (0, 1), BuildingBlock: KIFKEQ_clean_linker_1, # of connection points: 2
#     Edge 7, Type (0, 1), BuildingBlock: KIFKEQ_clean_linker_1, # of connection points: 2
#     Edge 8, Type (0, 1), BuildingBlock: KIFKEQ_clean_linker_1, # of connection points: 2
#     Edge 9, Type (0, 1), BuildingBlock: KIFKEQ_clean_linker_1, # of connection points: 2
#     Edge 10, Type (0, 1), BuildingBlock: KIFKEQ_clean_linker_1, # of connection points: 2
#     Edge 11, Type (0, 1), BuildingBlock: KIFKEQ_clean_linker_1, # of connection points: 2
#     Edge 12, Type (0, 1), BuildingBlock: KIFKEQ_clean_linker_1, # of connection points: 2
#     Edge 13, Type (0, 1), BuildingBlock: KIFKEQ_clean_linker_1, # of connection points: 2
#     Edge 14, Type (0, 1), BuildingBlock: KIFKEQ_clean_linker_1, # of connection points: 2
#     Edge 15, Type (0, 1), BuildingBlock: KIFKEQ_clean_linker_1, # of connection points: 2
#     Edge 16, Type (0, 1), BuildingBlock: KIFKEQ_clean_linker_1, # of connection points: 2
#     Edge 17, Type (0, 1), BuildingBlock: KIFKEQ_clean_linker_1, # of connection points: 2
# Relax obj value: 0.097
# Max RMSD: 0.121
# Mean RMSD: 0.109
data_MOF--net-tsx--node1-JUFBIX_clean_sbu_0--node2-INOVEN_clean_linker_0--edge1-KIFKEQ_clean_linker_1
_symmetry_space_group_name_H-M    P1
_symmetry_Int_Tables_number       1
_symmetry_cell_setting            triclinic
loop_
_symmetry_equiv_pos_as_xyz
'x, y, z'
_cell_length_a     20.17807
_cell_length_b     24.187484
_cell_length_c     33.754665
_cell_angle_alpha  92.336055
_cell_angle_beta   97.110397
_cell_angle_gamma 98.94964
loop_
_atom_site_label
_atom_site_type_symbol
_atom_site_fract_x
_atom_site_fract_y
_atom_site_fract_z
_atom_type_partial_charge
Co0 Co 0.08716 0.99544 -0.0068 0.0
C1 C 1.01833 0.01354 0.91893 0.0
Co2 Co 0.99962 0.04035 -0.00454 0.0
C3 C 0.17686 0.91061 -0.00078 0.0
C4 C 0.21595 0.98306 0.96986 0.0
N5 N 0.16267 0.96107 -0.01203 0.0
N6 N 0.23715 0.90096 -0.01079 0.0
C7 C 0.26169 0.94658 0.97082 0.0
H8 H 0.14357 0.88138 0.01418 0.0
H9 H 0.22078 0.02263 0.95584 0.0
C10 C 0.06919 0.02281 0.06974 0.0
N11 N 0.92499 0.0752 0.00106 0.0
C12 C 0.91288 0.12599 -0.01041 0.0
C13 C 0.87297 0.05602 0.02106 0.0
N14 N 0.85552 0.1391 0.00167 0.0
C15 C 0.83011 0.09495 0.02127 0.0
C16 C 0.9682 0.92304 -0.00452 0.0
O17 O 0.10637 0.99847 0.04935 0.0
O18 O 0.02033 0.04353 0.05191 0.0
O19 O 0.94507 0.96896 -0.00381 0.0
O20 O 0.03111 0.9241 -0.00594 0.0
O21 O 0.98012 0.03705 0.93913 0.0
H22 H 0.86747 0.01693 0.03569 0.0
H23 H 0.94581 0.15311 0.97301 0.0
O24 O 0.06708 0.99289 0.93697 0.0
O25 O 0.14185 0.06758 -0.00733 0.0
O26 O 0.05472 0.11097 -0.00577 0.0
C27 C 0.11752 0.11297 -0.00733 0.0
H28 H 0.30824 0.9522 0.9575 0.0
H29 H 0.78506 0.09188 0.03598 0.0
Co30 Co 0.56175 0.46871 0.48773 0.0
C31 C 0.49823 0.4985 0.41424 0.0
Co32 Co 0.48233 0.52169 0.49115 0.0
C33 C 0.65616 0.38704 0.49772 0.0
C34 C 0.67805 0.44778 0.45468 0.0
N35 N 0.63298 0.43077 0.47989 0.0
N36 N 0.71438 0.37732 0.48483 0.0
C37 C 0.72808 0.41534 0.45783 0.0
H38 H 0.63232 0.36419 0.5205 0.0
H39 H 0.67559 0.48267 0.43579 0.0
C40 C 0.54646 0.49281 0.5647 0.0
N41 N 0.41244 0.56036 0.49953 0.0
C42 C 0.39787 0.6091 0.48541 0.0
C43 C 0.36701 0.54601 0.52502 0.0
N44 N 0.34556 0.62584 0.50148 0.0
C45 C 0.326 0.58611 0.52631 0.0
C46 C 0.4378 0.405 0.48643 0.0
O47 O 0.58148 0.4667 0.54395 0.0
O48 O 0.50188 0.51829 0.54714 0.0
O49 O 0.42163 0.45363 0.48828 0.0
O50 O 0.49968 0.40006 0.48614 0.0
O51 O 0.46384 0.52517 0.43508 0.0
H52 H 0.36465 0.5091 0.54218 0.0
H53 H 0.42628 0.63259 0.46467 0.0
O54 O 0.54122 0.47125 0.43163 0.0
O55 O 0.62267 0.53799 0.48942 0.0
O56 O 0.54327 0.58942 0.49358 0.0
C57 C 0.60487 0.58605 0.49156 0.0
H58 H 0.77161 0.41943 0.44171 0.0
H59 H 0.28469 0.58586 0.54397 0.0
H60 H 0.08086 0.98018 0.47944 0.0
H61 H 0.15228 0.93703 0.36932 0.0
H62 H 0.04229 0.07458 0.37606 0.0
N63 N 0.02421 0.06683 0.45291 0.0
N64 N 0.02087 0.11585 0.44376 0.0
C65 C 0.08589 0.98777 0.44851 0.0
C66 C 0.11844 0.9525 0.42613 0.0
C67 C 0.05944 0.03259 0.43073 0.0
C68 C 0.06534 0.04165 0.39031 0.0
C69 C 0.0975 1.00657 0.36771 0.0
C70 C 0.12529 0.96315 0.38622 0.0
H71 H 0.97529 0.97081 0.5039 0.0
H72 H 0.90005 0.91069 0.61044 0.0
H73 H 0.03913 0.06531 0.61675 0.0
N74 N 0.05583 0.06182 0.53908 0.0
N75 N 0.07718 0.11007 0.55438 0.0
C76 C 0.97322 0.9762 0.53569 0.0
C77 C 0.93364 0.93532 0.55477 0.0
C78 C 1.01125 0.02334 0.55791 0.0
C79 C 1.00817 0.02992 0.59922 0.0
C80 C 0.96871 0.98915 0.61845 0.0
C81 C 0.93121 0.94227 0.59591 0.0
H82 H 0.60528 0.50533 0.98166 0.0
H83 H 0.66028 0.44236 0.87124 0.0
H84 H 0.52328 0.56128 0.86926 0.0
N85 N 0.52144 0.57107 0.94843 0.0
N86 N 0.46896 0.58515 0.93097 0.0
C87 C 0.60181 0.50462 0.9494 0.0
C88 C 0.63896 0.47051 0.92914 0.0
C89 C 0.55924 0.53696 0.9279 0.0
C90 C 0.55489 0.53559 0.88598 0.0
C91 C 0.59222 0.50235 0.86552 0.0
C92 C 0.63381 0.46994 0.88725 0.0
H93 H 0.48421 0.50087 0.0007 0.0
H94 H 0.39297 0.44852 0.10419 0.0
H95 H 0.57038 0.57437 0.11792 0.0
N96 N 0.58368 0.5773 0.0395 0.0
N97 N 0.63708 0.60067 0.06015 0.0
C98 C 0.48308 0.50469 0.03259 0.0
C99 C 0.43203 0.47093 0.04947 0.0
C100 C 0.53296 0.54263 0.05702 0.0
C101 C 0.5317 0.54597 0.09869 0.0
C102 C 0.4815 0.51181 0.11577 0.0
C103 C 0.43157 0.47519 0.09094 0.0
H104 H 0.07943 0.21445 0.97764 0.0
H105 H 0.25573 0.13451 0.00333 0.0
H106 H 0.15216 0.30488 0.9779 0.0
H107 H 0.32841 0.22507 0.00537 0.0
H108 H 0.45436 0.38917 -0.00336 0.0
H109 H 0.37513 0.30397 0.97221 0.0
H110 H 0.21783 0.36842 0.02718 0.0
H111 H 0.29594 0.4537 0.04973 0.0
C112 C 0.13377 0.21622 0.98339 0.0
C113 C 0.16181 0.16744 -0.009 0.0
C114 C 0.17554 0.26811 -0.01642 0.0
C115 C 0.24634 0.27261 -0.00806 0.0
C116 C 0.2743 0.22335 -0.00181 0.0
C117 C 0.23255 0.17137 -0.0025 0.0
C118 C 0.40209 0.38578 0.00204 0.0
C119 C 0.38134 0.42757 0.02546 0.0
C120 C 0.35693 0.33667 -0.01138 0.0
C121 C 0.29034 0.3286 -0.00155 0.0
C122 C 0.26838 0.37289 0.01878 0.0
C123 C 0.31328 0.42183 0.03196 0.0
H124 H 0.37021 0.89537 0.00344 0.0
H125 H 0.17255 0.79329 0.98264 0.0
H126 H 0.42294 0.81183 -0.00216 0.0
H127 H 0.2253 0.70901 0.97749 0.0
H128 H 0.34869 0.60458 0.90087 0.0
H129 H 0.28711 0.67609 0.92447 0.0
H130 H 0.44382 0.72163 0.02494 0.0
H131 H 0.50523 0.64994 0.00091 0.0
C132 C 0.33812 0.85481 -0.0016 0.0
C133 C 0.26732 0.85087 -0.00703 0.0
C134 C 0.3683 0.80686 -0.00443 0.0
C135 C 0.32834 0.75375 -0.01308 0.0
C136 C 0.25744 0.74943 -0.01619 0.0
C137 C 0.22721 0.79754 -0.01295 0.0
C138 C 0.36895 0.62922 0.92844 0.0
C139 C 0.43131 0.62192 0.94894 0.0
C140 C 0.33367 0.66989 0.94213 0.0
C141 C 0.36057 0.70466 0.97658 0.0
C142 C 0.42198 0.69573 -0.00184 0.0
C143 C 0.45702 0.65454 -0.01545 0.0
H144 H 0.83052 0.90514 0.98213 0.0
H145 H 1.001 0.82054 0.01474 0.0
H146 H 0.75318 0.82058 -0.00785 0.0
H147 H 0.923 0.73551 0.02496 0.0
H148 H 0.75892 0.6399 0.0977 0.0
H149 H 0.84353 0.71262 0.07641 0.0
H150 H 0.71202 0.72051 0.96634 0.0
H151 H 0.62786 0.64761 -0.0122 0.0
C152 C 0.85151 0.86824 -0.00898 0.0
C153 C 0.92196 0.86967 -0.0021 0.0
C154 C 0.80708 0.81962 -0.00354 0.0
C155 C 0.83196 0.77139 0.00937 0.0
C156 C 0.9024 0.7722 0.0152 0.0
C157 C 0.947 0.82075 0.00921 0.0
C158 C 0.749 0.65664 0.06867 0.0
C159 C 0.68729 0.6383 0.04451 0.0
C160 C 0.79734 0.69796 0.05637 0.0
C161 C 0.78441 0.72236 0.01972 0.0
C162 C 0.72323 0.70269 -0.00515 0.0
C163 C 0.67516 0.6608 0.00702 0.0
H164 H 0.92586 0.24351 -0.00111 0.0
H165 H 0.72377 0.15106 -0.00642 0.0
H166 H 0.87965 0.33036 -0.00951 0.0
H167 H 0.67713 0.2372 -0.01595 0.0
H168 H 0.60456 0.40115 -0.01186 0.0
H169 H 0.66213 0.32506 0.01263 0.0
H170 H 0.82069 0.37477 0.93989 0.0
H171 H 0.76514 0.45207 0.91736 0.0
C172 C 0.87151 0.24175 -0.00441 0.0
C173 C 0.82841 0.19045 -0.00336 0.0
C174 C 0.84493 0.29151 -0.00913 0.0
C175 C 0.77451 0.29104 -0.0134 0.0
C176 C 0.7316 0.23961 -0.01189 0.0
C177 C 0.75825 0.19004 -0.00674 0.0
C178 C 0.65281 0.39678 0.97846 0.0
C179 C 0.67986 0.43207 0.95039 0.0
C180 C 0.68535 0.35266 -0.00801 0.0
C181 C 0.74546 0.34289 0.97763 0.0
C182 C 0.77476 0.38085 0.9518 0.0
C183 C 0.74255 0.425 0.93854 0.0
H184 H 0.73925 0.59269 0.48475 0.0
H185 H 0.58484 0.69507 0.49797 0.0
H186 H 0.82413 0.67695 0.48869 0.0
H187 H 0.67002 0.77919 0.50263 0.0
H188 H 0.83054 0.92597 0.49322 0.0
H189 H 0.75264 0.83982 0.46822 0.0
H190 H 0.87334 0.74369 0.54467 0.0
H191 H 0.95058 0.82923 0.56897 0.0
C192 C 0.72335 0.63317 0.48832 0.0
C193 C 0.65551 0.63722 0.49168 0.0
C194 C 0.77198 0.68139 0.4905 0.0
C195 C 0.75381 0.73466 0.49609 0.0
C196 C 0.68548 0.73879 0.49778 0.0
C197 C 0.6368 0.69055 0.49558 0.0
C198 C 0.84113 0.88602 0.50354 0.0
C199 C 0.89592 0.88376 0.533 0.0
C200 C 0.79646 0.83694 0.48962 0.0
C201 C 0.80655 0.7851 0.50479 0.0
C202 C 0.86441 0.78278 0.5321 0.0
C203 C 0.90851 0.83168 0.54615 0.0
H204 H 0.84495 0.39878 0.51548 0.0
H205 H 0.67902 0.26478 0.47883 0.0
H206 H 0.92435 0.33199 0.51848 0.0
H207 H 0.75843 0.19733 0.48031 0.0
H208 H 0.92156 0.08585 0.49071 0.0
H209 H 0.84725 0.14804 0.51429 0.0
H210 H 0.95935 0.28673 0.46134 0.0
H211 H 0.03277 0.22471 0.43837 0.0
C212 C 0.82555 0.35454 0.50924 0.0
C213 C 0.75635 0.33662 0.49683 0.0
C214 C 0.87083 0.31637 0.51059 0.0
C215 C 0.84795 0.25949 0.49875 0.0
C216 C 0.77775 0.24078 0.48976 0.0
C217 C 0.73221 0.27918 0.48891 0.0
C218 C 0.93086 0.12993 0.48502 0.0
C219 C 0.98272 0.15105 0.46275 0.0
C220 C 0.8882 0.1654 0.49827 0.0
C221 C 0.89733 0.22242 0.48981 0.0
C222 C 0.95136 0.2434 0.46907 0.0
C223 C 0.99323 0.208 0.45564 0.0
H224 H 0.45122 0.29588 0.50152 0.0
H225 H 0.30241 0.40359 0.4723 0.0
H226 H 0.36021 0.21994 0.51189 0.0
H227 H 0.21263 0.32829 0.48229 0.0
H228 H 0.09938 0.2193 0.56985 0.0
H229 H 0.18615 0.28775 0.54651 0.0
H230 H 0.2516 0.15518 0.47908 0.0
H231 H 0.16436 0.08673 0.50282 0.0
C232 C 0.39922 0.30297 0.49653 0.0
C233 C 0.3841 0.35595 0.48678 0.0
C234 C 0.3472 0.25955 0.50234 0.0
C235 C 0.27953 0.26865 0.49848 0.0
C236 C 0.26441 0.32047 0.48621 0.0
C237 C 0.31598 0.36356 0.48046 0.0
C238 C 0.13196 0.20522 0.54968 0.0
C239 C 0.12499 0.14843 0.53777 0.0
C240 C 0.1813 0.24413 0.53617 0.0
C241 C 0.2254 0.22675 0.5108 0.0
C242 C 0.21833 0.16963 0.49866 0.0
C243 C 0.16818 0.13066 0.5119 0.0
H244 H 0.2882 0.68579 0.55337 0.0
H245 H 0.33552 0.67785 0.4322 0.0
H246 H 0.23008 0.76566 0.53879 0.0
H247 H 0.27818 0.75796 0.41776 0.0
H248 H 0.09763 0.84681 0.39214 0.0
H249 H 0.15456 0.76916 0.413 0.0
H250 H 0.25478 0.86834 0.51899 0.0
H251 H 0.19793 0.94706 0.49768 0.0
C252 C 0.28629 0.70123 0.52367 0.0
C253 C 0.31582 0.67531 0.49376 0.0
C254 C 0.25357 0.74716 0.51549 0.0
C255 C 0.24912 0.76753 0.47709 0.0
C256 C 0.28018 0.74256 0.44751 0.0
C257 C 0.31349 0.69709 0.45582 0.0
C258 C 0.13154 0.85199 0.42003 0.0
C259 C 0.1444 0.90323 0.44297 0.0
C260 C 0.16426 0.80765 0.43185 0.0
C261 C 0.21016 0.81327 0.46709 0.0
C262 C 0.21981 0.86314 0.49154 0.0
C263 C 0.18718 0.90797 0.4795 0.0
H264 H 1.01372 0.08621 0.12131 0.0
H265 H 0.15162 0.96652 0.1176 0.0
H266 H 0.02727 0.08646 0.19417 0.0
H267 H 0.16489 0.96689 0.19052 0.0
H268 H 0.07832 0.92293 0.30883 0.0
H269 H 0.08003 0.93152 0.23753 0.0
H270 H 0.1175 0.11194 0.25593 0.0
H271 H 0.11811 0.1036 0.32805 0.0
C272 C 0.04733 0.06033 0.13606 0.0
C273 C 0.08119 0.02595 0.11378 0.0
C274 C 0.05541 0.06085 0.17773 0.0
C275 C 0.09689 0.02657 0.19778 0.0
C276 C 0.1322 0.99338 0.17562 0.0
C277 C 0.12472 0.99329 0.13397 0.0
C278 C 0.08839 0.96453 0.29795 0.0
C279 C 0.09879 0.01262 0.32424 0.0
C280 C 0.08919 0.96935 0.25707 0.0
C281 C 0.09946 0.02234 0.24141 0.0
C282 C 0.10933 0.07059 0.26741 0.0
C283 C 0.10935 0.06579 0.30855 0.0
H284 H 0.08824 0.96227 0.86858 0.0
H285 H 0.9245 0.0582 0.86964 0.0
H286 H 0.07254 0.95758 0.79602 0.0
H287 H 0.90827 0.05272 0.79641 0.0
H288 H 0.96199 0.0814 0.6668 0.0
H289 H 0.97074 0.08788 0.73992 0.0
H290 H 0.98652 0.91188 0.74179 0.0
H291 H 0.9801 0.90583 0.66932 0.0
C292 C 0.04863 0.98216 0.85333 0.0
C293 C 1.00742 0.01045 0.87484 0.0
C294 C 0.03945 0.97921 0.81172 0.0
C295 C 0.98891 1.00447 0.79063 0.0
C296 C 0.94787 0.03316 0.81201 0.0
C297 C 0.95691 0.03599 0.85383 0.0
C298 C 0.96744 0.04424 0.68296 0.0
C299 C 0.97041 0.99315 0.66243 0.0
C300 C 0.97175 0.04781 0.72466 0.0
C301 C 0.97957 1.00043 0.74643 0.0
C302 C 0.98126 0.94921 0.72578 0.0
C303 C 0.97686 0.94563 0.68426 0.0
H304 H 0.63069 0.43815 0.6136 0.0
H305 H 0.48366 0.55031 0.6155 0.0
H306 H 0.64258 0.43908 0.68669 0.0
H307 H 0.49662 0.5521 0.68791 0.0
H308 H 0.47742 0.49302 0.81217 0.0
H309 H 0.46804 0.48903 0.73942 0.0
H310 H 0.68534 0.50272 0.74633 0.0
H311 H 0.69461 0.50633 0.81926 0.0
C312 C 0.60127 0.46316 0.62957 0.0
C313 C 0.55605 0.4939 0.60879 0.0
C314 C 0.60827 0.46389 0.67136 0.0
C315 C 0.57014 0.49536 0.69298 0.0
C316 C 0.52572 0.5266 0.6721 0.0
C317 C 0.51866 0.5258 0.63054 0.0
C318 C 0.52318 0.49563 0.79813 0.0
C319 C 0.58673 0.50031 0.82133 0.0
C320 C 0.51786 0.49328 0.7565 0.0
C321 C 0.57602 0.49578 0.73718 0.0
C322 C 0.63959 0.5 0.76037 0.0
C323 C 0.64489 0.50223 0.80206 0.0
H324 H 0.42601 0.56377 0.36661 0.0
H325 H 0.55659 0.43833 0.36274 0.0
H326 H 0.42046 0.56881 0.2939 0.0
H327 H 0.5516 0.44395 0.2909 0.0
H328 H 0.49858 0.60186 0.1702 0.0
H329 H 0.49933 0.59961 0.24288 0.0
H330 H 0.46579 0.41851 0.232 0.0
H331 H 0.4669 0.42077 0.16015 0.0
C332 C 0.45314 0.53716 0.35028 0.0
C333 C 0.49142 0.50047 0.37034 0.0
C334 C 0.45043 0.5404 0.30882 0.0
C335 C 0.48548 0.50667 0.28685 0.0
C336 C 0.52336 0.46991 0.30699 0.0
C337 C 0.52634 0.46686 0.34821 0.0
C338 C 0.49179 0.56173 0.18355 0.0
C339 C 0.48259 0.51151 0.15965 0.0
C340 C 0.49146 0.56042 0.22493 0.0
C341 C 0.48261 0.50888 0.24297 0.0
C342 C 0.47328 0.45883 0.21894 0.0
C343 C 0.4734 0.46014 0.17779 0.0
loop_
_geom_bond_atom_site_label_1
_geom_bond_atom_site_label_2
_geom_bond_distance
_geom_bond_site_symmetry_2
_ccdc_geom_bond_type
Co0 N5 2.057 . S
Co0 O17 2.021 . S
Co0 O20 2.062 1_455 S
Co0 O24 2.117 1_554 S
Co0 O25 2.020 1_565 S
C1 O21 1.259 1_455 S
C1 O24 1.258 1_545 S
Co2 N11 2.057 . S
Co2 O18 2.117 . S
Co2 O19 2.020 1_545 S
Co2 O21 2.021 1_554 S
Co2 O26 2.062 1_655 S
C3 N5 1.316 . S
C3 N6 1.347 . S
C3 H8 0.931 . S
C4 N5 1.375 1_556 S
C4 C7 1.350 . S
C4 H9 0.930 . S
N5 Co0 2.057 . S
N5 C3 1.316 . S
N5 C4 1.375 1_554 S
N6 C3 1.347 . S
N6 C7 1.373 1_554 S
C7 C4 1.350 . S
C7 N6 1.373 1_556 S
C7 H28 0.931 . S
H8 C3 0.931 . S
H9 C4 0.930 . S
C10 O17 1.259 1_545 S
C10 O18 1.258 1_455 S
N11 Co2 2.057 . S
N11 C12 1.316 1_554 S
N11 C13 1.375 . S
C12 N11 1.316 1_556 S
C12 N14 1.347 1_556 S
C12 H23 0.931 . S
C13 N11 1.375 . S
C13 C15 1.350 . S
C13 H22 0.930 . S
N14 C12 1.347 1_554 S
N14 C15 1.373 . S
C15 C13 1.350 . S
C15 N14 1.373 . S
C15 H29 0.931 . S
C16 O19 1.256 . S
C16 O20 1.255 . S
O17 Co0 2.021 . S
O17 C10 1.259 1_565 S
O18 Co2 2.117 . S
O18 C10 1.258 1_655 S
O19 Co2 2.020 1_565 S
O19 C16 1.256 . S
O20 Co0 2.062 1_655 S
O20 C16 1.255 . S
O21 C1 1.259 1_655 S
O21 Co2 2.021 1_556 S
H22 C13 0.930 . S
H23 C12 0.931 . S
O24 Co0 2.117 1_556 S
O24 C1 1.258 1_565 S
O25 Co0 2.020 1_545 S
O25 C27 1.256 . S
O26 Co2 2.062 1_455 S
O26 C27 1.255 . S
C27 O25 1.256 . S
C27 O26 1.255 . S
H28 C7 0.931 . S
H29 C15 0.931 . S
Co30 N35 2.057 . S
Co30 O47 2.021 . S
Co30 O50 2.062 . S
Co30 O54 2.117 . S
Co30 O55 2.020 . S
C31 O51 1.259 . S
C31 O54 1.258 . S
Co32 N41 2.057 . S
Co32 O48 2.117 . S
Co32 O49 2.020 . S
Co32 O51 2.021 . S
Co32 O56 2.062 . S
C33 N35 1.316 . S
C33 N36 1.347 . S
C33 H38 0.931 . S
C34 N35 1.375 . S
C34 C37 1.350 . S
C34 H39 0.930 . S
N35 Co30 2.057 . S
N35 C33 1.316 . S
N35 C34 1.375 . S
N36 C33 1.347 . S
N36 C37 1.373 . S
C37 C34 1.350 . S
C37 N36 1.373 . S
C37 H58 0.931 . S
H38 C33 0.931 . S
H39 C34 0.930 . S
C40 O47 1.259 . S
C40 O48 1.258 . S
N41 Co32 2.057 . S
N41 C42 1.316 . S
N41 C43 1.375 . S
C42 N41 1.316 . S
C42 N44 1.347 . S
C42 H53 0.931 . S
C43 N41 1.375 . S
C43 C45 1.350 . S
C43 H52 0.930 . S
N44 C42 1.347 . S
N44 C45 1.373 . S
C45 C43 1.350 . S
C45 N44 1.373 . S
C45 H59 0.931 . S
C46 O49 1.256 . S
C46 O50 1.255 . S
O47 Co30 2.021 . S
O47 C40 1.259 . S
O48 Co32 2.117 . S
O48 C40 1.258 . S
O49 Co32 2.020 . S
O49 C46 1.256 . S
O50 Co30 2.062 . S
O50 C46 1.255 . S
O51 C31 1.259 . S
O51 Co32 2.021 . S
H52 C43 0.930 . S
H53 C42 0.931 . S
O54 Co30 2.117 . S
O54 C31 1.258 . S
O55 Co30 2.020 . S
O55 C57 1.256 . S
O56 Co32 2.062 . S
O56 C57 1.255 . S
C57 O55 1.256 . S
C57 O56 1.255 . S
H58 C37 0.931 . S
H59 C45 0.931 . S
H60 C65 0.929 . S
H61 C70 0.931 . S
H62 C68 0.930 1_655 S
N63 N64 1.234 . S
N63 C67 1.453 1_655 S
N64 N63 1.234 . S
C65 H60 0.929 . S
C65 C66 1.373 . S
C65 C67 1.368 1_565 S
C66 C65 1.373 . S
C66 C70 1.397 . S
C67 N63 1.453 1_455 S
C67 C65 1.368 1_545 S
C67 C68 1.373 . S
C68 H62 0.930 1_455 S
C68 C67 1.373 . S
C68 C69 1.371 1_545 S
C69 C68 1.371 1_565 S
C69 C70 1.383 . S
C70 H61 0.931 . S
C70 C66 1.397 . S
C70 C69 1.383 . S
H71 C76 0.929 . S
H72 C81 0.931 . S
H73 C79 0.930 . S
N74 N75 1.234 . S
N74 C78 1.453 . S
N75 N74 1.234 . S
C76 H71 0.929 . S
C76 C77 1.373 . S
C76 C78 1.368 1_665 S
C77 C76 1.373 . S
C77 C81 1.397 . S
C78 N74 1.453 . S
C78 C76 1.368 1_445 S
C78 C79 1.373 . S
C79 H73 0.930 . S
C79 C78 1.373 . S
C79 C80 1.369 1_445 S
C80 C79 1.369 1_665 S
C80 C81 1.385 . S
C81 H72 0.931 . S
C81 C77 1.397 . S
C81 C80 1.385 . S
H82 C87 0.929 1_554 S
H83 C92 0.931 . S
H84 C90 0.930 . S
N85 N86 1.234 . S
N85 C89 1.453 . S
N86 N85 1.234 . S
C87 H82 0.929 1_556 S
C87 C88 1.373 . S
C87 C89 1.368 . S
C88 C87 1.373 . S
C88 C92 1.397 . S
C89 N85 1.453 . S
C89 C87 1.368 . S
C89 C90 1.373 . S
C90 H84 0.930 . S
C90 C89 1.373 . S
C90 C91 1.371 . S
C91 C90 1.371 . S
C91 C92 1.383 . S
C92 H83 0.931 . S
C92 C88 1.397 . S
C92 C91 1.383 . S
H93 C98 0.929 . S
H94 C103 0.931 . S
H95 C101 0.930 . S
N96 N97 1.234 . S
N96 C100 1.453 . S
N97 N96 1.234 . S
C98 H93 0.929 . S
C98 C99 1.373 . S
C98 C100 1.368 . S
C99 C98 1.373 . S
C99 C103 1.397 . S
C100 N96 1.453 . S
C100 C98 1.368 . S
C100 C101 1.373 . S
C101 H95 0.930 . S
C101 C100 1.373 . S
C101 C102 1.371 . S
C102 C101 1.371 . S
C102 C103 1.383 . S
C103 H94 0.931 . S
C103 C99 1.397 . S
C103 C102 1.383 . S
H104 C112 0.950 . S
H105 C117 0.950 . S
H106 C114 0.950 . S
H107 C116 0.950 . S
H108 C118 0.950 . S
H109 C120 0.950 . S
H110 C122 0.950 1_556 S
H111 C123 0.950 1_556 S
C112 H104 0.950 . S
C112 C113 1.386 1_556 S
C112 C114 1.391 . S
C113 C112 1.386 1_554 S
C113 C117 1.393 . S
C114 H106 0.950 . S
C114 C112 1.391 . S
C114 C115 1.400 1_556 S
C115 C114 1.400 1_554 S
C115 C116 1.398 . S
C115 C121 1.491 . S
C116 H107 0.950 . S
C116 C115 1.398 . S
C116 C117 1.391 . S
C117 H105 0.950 . S
C117 C113 1.393 . S
C117 C116 1.391 . S
C118 H108 0.950 . S
C118 C119 1.386 . S
C118 C120 1.391 . S
C119 C118 1.386 . S
C119 C123 1.393 . S
C120 H109 0.950 . S
C120 C118 1.391 . S
C120 C121 1.400 . S
C121 C115 1.491 . S
C121 C120 1.400 . S
C121 C122 1.398 . S
C122 H110 0.950 1_554 S
C122 C121 1.398 . S
C122 C123 1.391 . S
C123 H111 0.950 1_554 S
C123 C119 1.393 . S
C123 C122 1.391 . S
H124 C132 0.950 . S
H125 C137 0.950 . S
H126 C134 0.950 . S
H127 C136 0.950 . S
H128 C138 0.950 . S
H129 C140 0.950 . S
H130 C142 0.950 . S
H131 C143 0.950 . S
C132 H124 0.950 . S
C132 C133 1.386 . S
C132 C134 1.391 . S
C133 C132 1.386 . S
C133 C137 1.393 1_554 S
C134 H126 0.950 . S
C134 C132 1.391 . S
C134 C135 1.400 . S
C135 C134 1.400 . S
C135 C136 1.398 1_554 S
C135 C141 1.491 . S
C136 H127 0.950 . S
C136 C135 1.398 1_556 S
C136 C137 1.391 . S
C137 H125 0.950 . S
C137 C133 1.393 1_556 S
C137 C136 1.391 . S
C138 H128 0.950 . S
C138 C139 1.386 . S
C138 C140 1.391 . S
C139 C138 1.386 . S
C139 C143 1.393 1_556 S
C140 H129 0.950 . S
C140 C138 1.391 . S
C140 C141 1.400 1_556 S
C141 C135 1.491 . S
C141 C140 1.400 1_554 S
C141 C142 1.398 . S
C142 H130 0.950 . S
C142 C141 1.398 . S
C142 C143 1.391 . S
C143 H131 0.950 . S
C143 C139 1.393 1_554 S
C143 C142 1.391 . S
H144 C152 0.950 . S
H145 C157 0.950 . S
H146 C154 0.950 . S
H147 C156 0.950 . S
H148 C158 0.950 . S
H149 C160 0.950 . S
H150 C162 0.950 . S
H151 C163 0.950 . S
C152 H144 0.950 . S
C152 C153 1.386 1_556 S
C152 C154 1.391 . S
C153 C152 1.386 1_554 S
C153 C157 1.393 . S
C154 H146 0.950 . S
C154 C152 1.391 . S
C154 C155 1.400 1_556 S
C155 C154 1.400 1_554 S
C155 C156 1.398 . S
C155 C161 1.491 . S
C156 H147 0.950 . S
C156 C155 1.398 . S
C156 C157 1.391 . S
C157 H145 0.950 . S
C157 C153 1.393 . S
C157 C156 1.391 . S
C158 H148 0.950 . S
C158 C159 1.386 . S
C158 C160 1.391 . S
C159 C158 1.386 . S
C159 C163 1.393 1_554 S
C160 H149 0.950 . S
C160 C158 1.391 . S
C160 C161 1.400 . S
C161 C155 1.491 . S
C161 C160 1.400 . S
C161 C162 1.398 1_554 S
C162 H150 0.950 . S
C162 C161 1.398 1_556 S
C162 C163 1.391 . S
C163 H151 0.950 . S
C163 C159 1.393 1_556 S
C163 C162 1.391 . S
H164 C172 0.950 . S
H165 C177 0.946 1_554 S
H166 C174 0.950 . S
H167 C176 0.950 . S
H168 C178 0.950 . S
H169 C180 0.950 . S
H170 C182 0.950 . S
H171 C183 0.950 . S
C172 H164 0.950 . S
C172 C173 1.386 . S
C172 C174 1.391 . S
C173 C172 1.386 . S
C173 C177 1.396 . S
C174 H166 0.950 . S
C174 C172 1.391 . S
C174 C175 1.400 . S
C175 C174 1.400 . S
C175 C176 1.398 . S
C175 C181 1.491 . S
C176 H167 0.950 . S
C176 C175 1.398 . S
C176 C177 1.391 . S
C177 H165 0.946 1_556 S
C177 C173 1.396 . S
C177 C176 1.391 . S
C178 H168 0.950 . S
C178 C179 1.386 . S
C178 C180 1.391 . S
C179 C178 1.386 . S
C179 C183 1.393 . S
C180 H169 0.950 . S
C180 C178 1.391 . S
C180 C181 1.400 . S
C181 C175 1.491 . S
C181 C180 1.400 . S
C181 C182 1.398 . S
C182 H170 0.950 . S
C182 C181 1.398 . S
C182 C183 1.391 . S
C183 H171 0.950 . S
C183 C179 1.393 . S
C183 C182 1.391 . S
H184 C192 0.950 . S
H185 C197 0.950 . S
H186 C194 0.950 . S
H187 C196 0.950 . S
H188 C198 0.950 . S
H189 C200 0.950 . S
H190 C202 0.950 . S
H191 C203 0.950 . S
C192 H184 0.950 . S
C192 C193 1.386 . S
C192 C194 1.391 . S
C193 C192 1.386 . S
C193 C197 1.393 . S
C194 H186 0.950 . S
C194 C192 1.391 . S
C194 C195 1.400 . S
C195 C194 1.400 . S
C195 C196 1.398 . S
C195 C201 1.491 . S
C196 H187 0.950 . S
C196 C195 1.398 . S
C196 C197 1.391 . S
C197 H185 0.950 . S
C197 C193 1.393 . S
C197 C196 1.391 . S
C198 H188 0.950 . S
C198 C199 1.386 . S
C198 C200 1.391 . S
C199 C198 1.386 . S
C199 C203 1.393 . S
C200 H189 0.950 . S
C200 C198 1.391 . S
C200 C201 1.400 . S
C201 C195 1.491 . S
C201 C200 1.400 . S
C201 C202 1.398 . S
C202 H190 0.950 . S
C202 C201 1.398 . S
C202 C203 1.391 . S
C203 H191 0.950 . S
C203 C199 1.393 . S
C203 C202 1.391 . S
H204 C212 0.950 . S
H205 C217 0.950 . S
H206 C214 0.950 . S
H207 C216 0.950 . S
H208 C218 0.950 . S
H209 C220 0.950 . S
H210 C222 0.950 . S
H211 C223 0.950 . S
C212 H204 0.950 . S
C212 C213 1.386 . S
C212 C214 1.391 . S
C213 C212 1.386 . S
C213 C217 1.393 . S
C214 H206 0.950 . S
C214 C212 1.391 . S
C214 C215 1.400 . S
C215 C214 1.400 . S
C215 C216 1.398 . S
C215 C221 1.491 . S
C216 H207 0.950 . S
C216 C215 1.398 . S
C216 C217 1.391 . S
C217 H205 0.950 . S
C217 C213 1.393 . S
C217 C216 1.391 . S
C218 H208 0.950 . S
C218 C219 1.386 . S
C218 C220 1.391 . S
C219 C218 1.386 . S
C219 C223 1.393 . S
C220 H209 0.950 . S
C220 C218 1.391 . S
C220 C221 1.400 . S
C221 C215 1.491 . S
C221 C220 1.400 . S
C221 C222 1.398 . S
C222 H210 0.950 . S
C222 C221 1.398 . S
C222 C223 1.391 . S
C223 H211 0.950 . S
C223 C219 1.393 . S
C223 C222 1.391 . S
H224 C232 0.950 . S
H225 C237 0.950 . S
H226 C234 0.950 . S
H227 C236 0.950 . S
H228 C238 0.950 . S
H229 C240 0.950 . S
H230 C242 0.950 . S
H231 C243 0.950 . S
C232 H224 0.950 . S
C232 C233 1.386 . S
C232 C234 1.391 . S
C233 C232 1.386 . S
C233 C237 1.393 . S
C234 H226 0.950 . S
C234 C232 1.391 . S
C234 C235 1.400 . S
C235 C234 1.400 . S
C235 C236 1.398 . S
C235 C241 1.491 . S
C236 H227 0.950 . S
C236 C235 1.398 . S
C236 C237 1.391 . S
C237 H225 0.950 . S
C237 C233 1.393 . S
C237 C236 1.391 . S
C238 H228 0.950 . S
C238 C239 1.386 . S
C238 C240 1.391 . S
C239 C238 1.386 . S
C239 C243 1.393 . S
C240 H229 0.950 . S
C240 C238 1.391 . S
C240 C241 1.400 . S
C241 C235 1.491 . S
C241 C240 1.400 . S
C241 C242 1.398 . S
C242 H230 0.950 . S
C242 C241 1.398 . S
C242 C243 1.391 . S
C243 H231 0.950 . S
C243 C239 1.393 . S
C243 C242 1.391 . S
H244 C252 0.950 . S
H245 C257 0.950 . S
H246 C254 0.950 . S
H247 C256 0.950 . S
H248 C258 0.950 . S
H249 C260 0.950 . S
H250 C262 0.950 . S
H251 C263 0.950 . S
C252 H244 0.950 . S
C252 C253 1.386 . S
C252 C254 1.391 . S
C253 C252 1.386 . S
C253 C257 1.393 . S
C254 H246 0.950 . S
C254 C252 1.391 . S
C254 C255 1.400 . S
C255 C254 1.400 . S
C255 C256 1.398 . S
C255 C261 1.491 . S
C256 H247 0.950 . S
C256 C255 1.398 . S
C256 C257 1.391 . S
C257 H245 0.950 . S
C257 C253 1.393 . S
C257 C256 1.391 . S
C258 H248 0.950 . S
C258 C259 1.386 . S
C258 C260 1.391 . S
C259 C258 1.386 . S
C259 C263 1.393 . S
C260 H249 0.950 . S
C260 C258 1.391 . S
C260 C261 1.400 . S
C261 C255 1.491 . S
C261 C260 1.400 . S
C261 C262 1.398 . S
C262 H250 0.950 . S
C262 C261 1.398 . S
C262 C263 1.391 . S
C263 H251 0.950 . S
C263 C259 1.393 . S
C263 C262 1.391 . S
H264 C272 0.950 . S
H265 C277 0.950 . S
H266 C274 0.950 . S
H267 C276 0.950 . S
H268 C278 0.950 . S
H269 C280 0.950 . S
H270 C282 0.950 . S
H271 C283 0.950 . S
C272 H264 0.950 . S
C272 C273 1.386 1_645 S
C272 C274 1.391 . S
C273 C272 1.386 1_465 S
C273 C277 1.392 . S
C274 H266 0.950 . S
C274 C272 1.391 . S
C274 C275 1.391 1_645 S
C275 C274 1.391 1_465 S
C275 C276 1.407 . S
C275 C281 1.491 1_565 S
C276 H267 0.950 . S
C276 C275 1.407 . S
C276 C277 1.391 . S
C277 H265 0.950 . S
C277 C273 1.392 . S
C277 C276 1.391 . S
C278 H268 0.950 . S
C278 C279 1.388 . S
C278 C280 1.391 . S
C279 C278 1.388 . S
C279 C283 1.390 1_465 S
C280 H269 0.950 . S
C280 C278 1.391 . S
C280 C281 1.397 1_565 S
C281 C275 1.491 1_545 S
C281 C280 1.397 1_545 S
C281 C282 1.402 1_455 S
C282 H270 0.950 . S
C282 C281 1.402 1_655 S
C282 C283 1.391 . S
C283 H271 0.950 . S
C283 C279 1.390 1_645 S
C283 C282 1.391 . S
H284 C292 0.950 . S
H285 C297 0.950 . S
H286 C294 0.950 . S
H287 C296 0.950 . S
H288 C298 0.950 . S
H289 C300 0.950 . S
H290 C302 0.950 . S
H291 C303 0.950 . S
C292 H284 0.950 . S
C292 C293 1.386 . S
C292 C294 1.391 . S
C293 C292 1.386 . S
C293 C297 1.393 1_445 S
C294 H286 0.950 . S
C294 C292 1.391 . S
C294 C295 1.403 . S
C295 C294 1.403 . S
C295 C296 1.395 1_445 S
C295 C301 1.491 1_455 S
C296 H287 0.950 . S
C296 C295 1.395 1_665 S
C296 C297 1.391 . S
C297 H285 0.950 . S
C297 C293 1.393 1_665 S
C297 C296 1.391 . S
C298 H288 0.950 . S
C298 C299 1.386 1_565 S
C298 C300 1.391 . S
C299 C298 1.386 1_545 S
C299 C303 1.393 1_655 S
C300 H289 0.950 . S
C300 C298 1.391 . S
C300 C301 1.400 1_565 S
C301 C295 1.491 1_655 S
C301 C300 1.400 1_545 S
C301 C302 1.398 1_655 S
C302 H290 0.950 . S
C302 C301 1.398 1_455 S
C302 C303 1.391 . S
C303 H291 0.950 . S
C303 C299 1.393 1_455 S
C303 C302 1.391 . S
H304 C312 0.950 . S
H305 C317 0.950 . S
H306 C314 0.950 . S
H307 C316 0.950 . S
H308 C318 0.950 . S
H309 C320 0.950 . S
H310 C322 0.950 . S
H311 C323 0.950 . S
C312 H304 0.950 . S
C312 C313 1.386 . S
C312 C314 1.391 . S
C313 C312 1.386 . S
C313 C317 1.393 . S
C314 H306 0.950 . S
C314 C312 1.391 . S
C314 C315 1.400 . S
C315 C314 1.400 . S
C315 C316 1.398 . S
C315 C321 1.491 . S
C316 H307 0.950 . S
C316 C315 1.398 . S
C316 C317 1.391 . S
C317 H305 0.950 . S
C317 C313 1.393 . S
C317 C316 1.391 . S
C318 H308 0.950 . S
C318 C319 1.386 . S
C318 C320 1.391 . S
C319 C318 1.386 . S
C319 C323 1.393 . S
C320 H309 0.950 . S
C320 C318 1.391 . S
C320 C321 1.400 . S
C321 C315 1.491 . S
C321 C320 1.400 . S
C321 C322 1.398 . S
C322 H310 0.950 . S
C322 C321 1.398 . S
C322 C323 1.391 . S
C323 H311 0.950 . S
C323 C319 1.393 . S
C323 C322 1.391 . S
H324 C332 0.950 . S
H325 C337 0.950 . S
H326 C334 0.950 . S
H327 C336 0.950 . S
H328 C338 0.950 . S
H329 C340 0.950 . S
H330 C342 0.950 . S
H331 C343 0.950 . S
C332 H324 0.950 . S
C332 C333 1.386 . S
C332 C334 1.391 . S
C333 C332 1.386 . S
C333 C337 1.393 . S
C334 H326 0.950 . S
C334 C332 1.391 . S
C334 C335 1.400 . S
C335 C334 1.400 . S
C335 C336 1.398 . S
C335 C341 1.491 . S
C336 H327 0.950 . S
C336 C335 1.398 . S
C336 C337 1.391 . S
C337 H325 0.950 . S
C337 C333 1.393 . S
C337 C336 1.391 . S
C338 H328 0.950 . S
C338 C339 1.386 . S
C338 C340 1.391 . S
C339 C338 1.386 . S
C339 C343 1.393 . S
C340 H329 0.950 . S
C340 C338 1.391 . S
C340 C341 1.400 . S
C341 C335 1.491 . S
C341 C340 1.400 . S
C341 C342 1.398 . S
C342 H330 0.950 . S
C342 C341 1.398 . S
C342 C343 1.391 . S
C343 H331 0.950 . S
C343 C339 1.393 . S
C343 C342 1.391 . S
C119 C99 1.459 . S
C113 C27 1.477 . S
C133 N6 1.363 . S
C139 N86 1.354 . S
C153 C16 1.426 . S
C159 N97 1.375 . S
C173 N14 1.439 1_556 S
C179 C88 1.445 . S
C193 C57 1.479 . S
C199 C77 1.445 . S
C213 N36 1.361 . S
C219 N64 1.353 . S
C239 N75 1.391 . S
C233 C46 1.419 . S
C259 C66 1.434 . S
C253 N44 1.439 . S
C273 C10 1.470 1_565 S
C279 C69 1.470 . S
C293 C1 1.542 . S
C299 C80 1.539 1_545 S
C319 C91 1.465 . S
C313 C40 1.471 . S
C333 C31 1.539 . S
C339 C102 1.533 . S
