# Generated by pormake.
# Topology sit, (3,6)-cn, num edge types: 1
# Building blocks:
#     Node 0, Type 0, BuildingBlock: KAKCAD_clean_linker_0, # of connection points: 3
#     Node 1, Type 0, BuildingBlock: KAKCAD_clean_linker_0, # of connection points: 3
#     Node 2, Type 0, BuildingBlock: KAKCAD_clean_linker_0, # of connection points: 3
#     Node 3, Type 0, BuildingBlock: KAKCAD_clean_linker_0, # of connection points: 3
#     Node 4, Type 1, BuildingBlock: MIDCAF_clean_sbu_0, # of connection points: 6
#     Node 5, Type 1, BuildingBlock: MIDCAF_clean_sbu_0, # of connection points: 6
#     Edge 6, Type (0, 1), BuildingBlock: MIFKUJ_clean_linker_0, # of connection points: 2
#     Edge 7, Type (0, 1), BuildingBlock: MIFKUJ_clean_linker_0, # of connection points: 2
#     Edge 8, Type (0, 1), BuildingBlock: MIFKUJ_clean_linker_0, # of connection points: 2
#     Edge 9, Type (0, 1), BuildingBlock: MIFKUJ_clean_linker_0, # of connection points: 2
#     Edge 10, Type (0, 1), BuildingBlock: MIFKUJ_clean_linker_0, # of connection points: 2
#     Edge 11, Type (0, 1), BuildingBlock: MIFKUJ_clean_linker_0, # of connection points: 2
#     Edge 12, Type (0, 1), BuildingBlock: MIFKUJ_clean_linker_0, # of connection points: 2
#     Edge 13, Type (0, 1), BuildingBlock: MIFKUJ_clean_linker_0, # of connection points: 2
#     Edge 14, Type (0, 1), BuildingBlock: MIFKUJ_clean_linker_0, # of connection points: 2
#     Edge 15, Type (0, 1), BuildingBlock: MIFKUJ_clean_linker_0, # of connection points: 2
#     Edge 16, Type (0, 1), BuildingBlock: MIFKUJ_clean_linker_0, # of connection points: 2
#     Edge 17, Type (0, 1), BuildingBlock: MIFKUJ_clean_linker_0, # of connection points: 2
# Relax obj value: 0.110
# Max RMSD: 0.193
# Mean RMSD: 0.106
data_MOF--net-sit--node1-MIDCAF_clean_sbu_0--node2-KAKCAD_clean_linker_0--edge1-MIFKUJ_clean_linker_0
_symmetry_space_group_name_H-M    P1
_symmetry_Int_Tables_number       1
_symmetry_cell_setting            triclinic
loop_
_symmetry_equiv_pos_as_xyz
'x, y, z'
_cell_length_a     35.121021
_cell_length_b     48.808486
_cell_length_c     53.495492
_cell_angle_alpha  90.174774
_cell_angle_beta   89.4472
_cell_angle_gamma 84.433123
loop_
_atom_site_label
_atom_site_type_symbol
_atom_site_fract_x
_atom_site_fract_y
_atom_site_fract_z
_atom_type_partial_charge
C0 C 0.22055 0.30178 0.98949 0.0
C1 C 0.22947 0.32915 0.99151 0.0
C2 C 0.18577 0.29419 -0.0012 0.0
C3 C 0.15919 0.31388 0.01015 0.0
C4 C 0.16841 0.34114 0.01248 0.0
C5 C 0.20313 0.34869 0.00326 0.0
C6 C 0.12169 0.30629 0.01935 0.0
C7 C 0.11921 0.28207 0.033 0.0
C8 C 0.08388 0.27533 0.04246 0.0
C9 C 0.05082 0.29338 0.03834 0.0
C10 C 0.05266 0.31767 0.02442 0.0
C11 C 0.0883 0.32364 0.01478 0.0
C12 C 0.01761 0.33658 0.01935 0.0
C13 C 0.98208 0.32626 0.01561 0.0
C14 C 0.01974 0.36513 0.01711 0.0
C15 C 0.988 0.38257 0.00972 0.0
C16 C 0.95283 0.37209 0.00501 0.0
C17 C 0.08198 0.24982 0.05731 0.0
C18 C 0.10339 0.22517 0.05005 0.0
C19 C 0.05983 0.25018 0.07933 0.0
C20 C 0.05996 0.22667 0.09412 0.0
C21 C 0.08235 0.20229 0.08731 0.0
C22 C 0.10357 0.20164 0.06489 0.0
C23 C 0.95006 0.34381 0.00887 0.0
H24 H 0.24041 0.28625 0.98066 0.0
H25 H 0.17934 0.27306 0.99664 0.0
H26 H 0.1487 0.35669 0.02143 0.0
H27 H 0.20894 0.37002 0.00481 0.0
H28 H 0.14507 0.26889 0.03697 0.0
H29 H 0.09017 0.34163 0.00319 0.0
H30 H 0.02369 0.28844 0.04599 0.0
H31 H 0.97909 0.30446 0.01703 0.0
H32 H 0.04622 0.3741 0.02057 0.0
H33 H 0.99164 0.4041 0.00686 0.0
H34 H 0.12033 0.22413 0.03298 0.0
H35 H 0.04323 0.26886 0.08555 0.0
H36 H 0.92329 0.33498 0.00617 0.0
H37 H 0.12123 0.18322 0.05918 0.0
H38 H 0.0428 0.2277 0.11109 0.0
C39 C 0.90718 0.69729 0.99581 0.0
C40 C 0.90371 0.66886 0.99616 0.0
C41 C 0.93993 0.70765 0.00529 0.0
C42 C 0.96955 0.68973 0.01542 0.0
C43 C 0.96493 0.66147 0.01688 0.0
C44 C 0.93252 0.65114 0.00719 0.0
C45 C 0.00608 0.69994 0.02331 0.0
C46 C 0.00666 0.7248 0.03649 0.0
C47 C 0.0415 0.73379 0.0444 0.0
C48 C 0.07594 0.71747 0.03906 0.0
C49 C 0.07576 0.69254 0.02591 0.0
C50 C 0.04078 0.68433 0.01773 0.0
C51 C 0.1117 0.6747 0.02058 0.0
C52 C 0.1453 0.68603 0.01301 0.0
C53 C 0.11194 0.64586 0.02179 0.0
C54 C 0.14416 0.62879 0.01428 0.0
C55 C 0.17702 0.64018 0.00592 0.0
C56 C 0.04168 0.75959 0.05918 0.0
C57 C 0.01769 0.78327 0.05285 0.0
C58 C 0.06522 0.76044 0.08019 0.0
C59 C 0.0643 0.78422 0.0948 0.0
C60 C 0.03973 0.80771 0.08883 0.0
C61 C 0.01679 0.80713 0.0675 0.0
C62 C 0.17781 0.66884 0.00579 0.0
H63 H 0.88531 0.71133 0.9873 0.0
H64 H 0.9427 0.72949 0.0038 0.0
H65 H 0.98672 0.64719 0.02519 0.0
H66 H 0.93016 0.62919 0.00805 0.0
H67 H 0.97992 0.73668 0.04134 0.0
H68 H 0.04057 0.66576 0.00661 0.0
H69 H 0.10285 0.72406 0.04533 0.0
H70 H 0.14602 0.70811 0.01171 0.0
H71 H 0.0869 0.63643 0.02811 0.0
H72 H 0.14321 0.60667 0.01455 0.0
H73 H -0.00047 0.78334 0.0366 0.0
H74 H 0.08375 0.74251 0.08574 0.0
H75 H 0.20302 0.6779 -0.00078 0.0
H76 H -0.00254 0.82486 0.06248 0.0
H77 H 0.08277 0.78415 0.1109 0.0
C78 C 0.70201 0.83298 0.50154 0.0
C79 C 0.71322 0.85967 0.50434 0.0
C80 C 0.66918 0.8255 0.51361 0.0
C81 C 0.64676 0.84463 0.52858 0.0
C82 C 0.65822 0.87123 0.53163 0.0
C83 C 0.69121 0.87864 0.5197 0.0
C84 C 0.61095 0.83709 0.54041 0.0
C85 C 0.61005 0.81173 0.55255 0.0
C86 C 0.57593 0.80413 0.56321 0.0
C87 C 0.54248 0.82237 0.56164 0.0
C88 C 0.54287 0.84786 0.54951 0.0
C89 C 0.57733 0.85502 0.539 0.0
C90 C 0.50707 0.86645 0.54658 0.0
C91 C 0.47256 0.85561 0.54079 0.0
C92 C 0.50754 0.89521 0.5481 0.0
C93 C 0.47471 0.9127 0.54284 0.0
C94 C 0.44064 0.9018 0.53621 0.0
C95 C 0.57541 0.77729 0.57618 0.0
C96 C 0.59617 0.75341 0.56653 0.0
C97 C 0.5547 0.77545 0.59861 0.0
C98 C 0.55525 0.7505 0.6113 0.0
C99 C 0.57676 0.72677 0.602 0.0
C100 C 0.59687 0.72843 0.57931 0.0
C101 C 0.43971 0.87308 0.53574 0.0
H102 H 0.71864 0.81788 0.48998 0.0
H103 H 0.66085 0.80492 0.51079 0.0
H104 H 0.64161 0.88631 0.54322 0.0
H105 H 0.69904 0.89942 0.52203 0.0
H106 H 0.63621 0.79815 0.55413 0.0
H107 H 0.57774 0.87415 0.52881 0.0
H108 H 0.51601 0.81662 0.56971 0.0
H109 H 0.47125 0.83361 0.53906 0.0
H110 H 0.53347 0.90423 0.55297 0.0
H111 H 0.47613 0.93476 0.54356 0.0
H112 H 0.61198 0.75402 0.54908 0.0
H113 H 0.53866 0.79345 0.60669 0.0
H114 H 0.41405 0.86405 0.53026 0.0
H115 H 0.61387 0.71058 0.5717 0.0
H116 H 0.53888 0.74984 0.62851 0.0
C117 C 0.41852 0.18665 0.50624 0.0
C118 C 0.41255 0.15864 0.50734 0.0
C119 C 0.45128 0.19597 0.51665 0.0
C120 C 0.47847 0.17746 0.52852 0.0
C121 C 0.47133 0.1497 0.53069 0.0
C122 C 0.43883 0.14037 0.52008 0.0
C123 C 0.51541 0.18655 0.53695 0.0
C124 C 0.51712 0.21236 0.54833 0.0
C125 C 0.55246 0.22143 0.55508 0.0
C126 C 0.58631 0.20421 0.55039 0.0
C127 C 0.58492 0.17819 0.53937 0.0
C128 C 0.54947 0.16964 0.53264 0.0
C129 C 0.62032 0.1602 0.53352 0.0
C130 C 0.65077 0.17071 0.52073 0.0
C131 C 0.62239 0.13186 0.53867 0.0
C132 C 0.6534 0.11415 0.53007 0.0
C133 C 0.68275 0.12444 0.51599 0.0
C134 C 0.55378 0.2486 0.5675 0.0
C135 C 0.52938 0.27163 0.55999 0.0
C136 C 0.57861 0.25148 0.58756 0.0
C137 C 0.57831 0.27652 0.60025 0.0
C138 C 0.553 0.29927 0.59332 0.0
C139 C 0.52898 0.29669 0.57277 0.0
C140 C 0.68164 0.15297 0.51195 0.0
H141 H 0.39873 0.2011 0.49638 0.0
H142 H 0.45608 0.21741 0.51444 0.0
H143 H 0.49127 0.13504 0.5402 0.0
H144 H 0.4345 0.11875 0.52152 0.0
H145 H 0.49082 0.22516 0.55237 0.0
H146 H 0.54862 0.15011 0.52307 0.0
H147 H 0.61378 0.21102 0.55521 0.0
H148 H 0.64983 0.19243 0.51642 0.0
H149 H 0.5994 0.12329 0.54872 0.0
H150 H 0.65345 0.09226 0.53337 0.0
H151 H 0.51033 0.27022 0.54433 0.0
H152 H 0.59759 0.23417 0.59397 0.0
H153 H 0.70417 0.16146 0.50139 0.0
H154 H 0.50904 0.31377 0.56701 0.0
H155 H 0.59767 0.27796 0.61574 0.0
Zn156 Zn 0.03699 0.05563 0.34641 0.0
Zn157 Zn 0.10218 0.95056 0.34275 0.0
Zn158 Zn 0.0684 0.00306 0.34566 0.0
C159 C 0.08795 0.96822 0.2941 0.0
C160 C 0.03015 0.95117 0.3676 0.0
O161 O 0.10765 0.02735 0.36608 0.0
O162 O 0.0777 0.06942 0.36754 0.0
C163 C 0.05326 0.04191 0.29671 0.0
O164 O 0.07446 0.9901 0.30601 0.0
O165 O 0.10325 0.94767 0.30581 0.0
O166 O 0.05954 0.93531 0.36176 0.0
O167 O 0.02834 0.97708 0.36273 0.0
O168 O 0.03844 0.06173 0.30988 0.0
O169 O 0.06539 0.01889 0.30698 0.0
O170 O 0.01241 0.00483 0.36546 0.0
O171 O 0.98811 0.04827 0.36228 0.0
C172 C 0.98527 0.02404 0.36973 0.0
O173 O 0.12159 0.99899 0.36769 0.0
O174 O 0.14922 0.95679 0.36096 0.0
C175 C 0.10623 0.05276 0.37293 0.0
C176 C 0.14913 0.98003 0.37137 0.0
Zn177 Zn 0.52576 0.55673 0.84474 0.0
Zn178 Zn 0.5982 0.45403 0.83697 0.0
Zn179 Zn 0.56277 0.5053 0.84174 0.0
C180 C 0.58568 0.47339 0.78908 0.0
C181 C 0.52802 0.4507 0.86161 0.0
O182 O 0.60032 0.53127 0.86111 0.0
O183 O 0.56594 0.57156 0.86595 0.0
C184 C 0.54097 0.54485 0.79424 0.0
O185 O 0.56818 0.49354 0.8016 0.0
O186 O 0.60448 0.45385 0.80028 0.0
O187 O 0.55496 0.43542 0.8515 0.0
O188 O 0.52711 0.4771 0.86043 0.0
O189 O 0.52567 0.56376 0.80827 0.0
O190 O 0.5553 0.52187 0.80358 0.0
O191 O 0.50867 0.50402 0.86346 0.0
O192 O 0.47874 0.54603 0.86094 0.0
C193 C 0.47958 0.52147 0.86832 0.0
O194 O 0.61758 0.50396 0.86166 0.0
O195 O 0.64188 0.46042 0.85872 0.0
C196 C 0.59655 0.55621 0.86936 0.0
C197 C 0.64378 0.48457 0.86678 0.0
H198 H 0.08235 0.14753 0.07489 0.0
H199 H 0.08561 0.10814 0.10348 0.0
H200 H 0.09048 0.16341 0.16623 0.0
H201 H 0.08865 0.20243 0.13795 0.0
H202 H 0.13965 0.11902 0.17215 0.0
H203 H 0.00592 0.13878 0.14693 0.0
H204 H 0.95397 0.14273 0.11603 0.0
H205 H 0.98231 0.05841 0.09422 0.0
H206 H 0.03473 0.05409 0.12482 0.0
H207 H 0.00488 0.07307 0.26695 0.0
H208 H 0.01605 0.08658 0.2239 0.0
H209 H 0.12201 0.03376 0.22202 0.0
H210 H 0.11142 0.02086 0.26568 0.0
H211 H 0.028 0.06434 0.17818 0.0
H212 H 0.18698 0.06985 0.19151 0.0
H213 H 0.23469 0.07015 0.22512 0.0
H214 H 0.14945 0.11039 0.27441 0.0
H215 H 0.10144 0.11056 0.241 0.0
C216 C 0.08458 0.15117 0.09477 0.0
C217 C 0.0848 0.17812 0.1042 0.0
C218 C 0.08626 0.12869 0.11106 0.0
C219 C 0.0881 0.13286 0.13699 0.0
C220 C 0.08919 0.15968 0.14629 0.0
C221 C 0.0876 0.18203 0.13011 0.0
C222 C 0.08708 0.10989 0.15495 0.0
C223 C 0.11562 0.10664 0.17317 0.0
C224 C 0.05592 0.09359 0.15622 0.0
C225 C 0.02451 0.09624 0.13787 0.0
C226 C 0.00124 0.12117 0.13539 0.0
C227 C 0.97169 0.12346 0.11797 0.0
C228 C 0.96494 0.10087 0.10311 0.0
C229 C 0.98765 0.07591 0.10569 0.0
C230 C 0.01727 0.07353 0.12306 0.0
C231 C 0.03025 0.06398 0.25722 0.0
C232 C 0.05738 0.04605 0.2696 0.0
C233 C 0.03642 0.07147 0.23253 0.0
C234 C 0.06999 0.06135 0.2198 0.0
C235 C 0.096 0.04193 0.23157 0.0
C236 C 0.08987 0.0345 0.25643 0.0
C237 C 0.07962 0.07451 0.19594 0.0
C238 C 0.05287 0.07581 0.17655 0.0
C239 C 0.112 0.08953 0.19383 0.0
C240 C 0.14064 0.08988 0.21391 0.0
C241 C 0.17852 0.07879 0.20953 0.0
C242 C 0.20558 0.07888 0.22852 0.0
C243 C 0.19507 0.09019 0.25191 0.0
C244 C 0.15753 0.10155 0.25632 0.0
C245 C 0.13039 0.10156 0.23737 0.0
H246 H 0.21604 0.0902 0.2666 0.0
H247 H 0.94204 0.10267 0.08964 0.0
H248 H 0.03633 0.86229 0.0755 0.0
H249 H 0.03559 0.90229 0.10352 0.0
H250 H 0.038 0.84824 0.1673 0.0
H251 H 0.03742 0.80863 0.13965 0.0
H252 H 0.99024 0.89284 0.17583 0.0
H253 H 0.12023 0.87218 0.14199 0.0
H254 H 0.16795 0.8675 0.1077 0.0
H255 H 0.13719 0.95145 0.08645 0.0
H256 H 0.08896 0.9565 0.12047 0.0
H257 H 0.13492 0.93865 0.26136 0.0
H258 H 0.12002 0.92576 0.21877 0.0
H259 H 0.01438 0.97878 0.2227 0.0
H260 H 0.02864 0.99099 0.26585 0.0
H261 H 0.10261 0.94708 0.17342 0.0
H262 H 0.94589 0.94246 0.19786 0.0
H263 H 0.90292 0.94285 0.23472 0.0
H264 H 0.9941 0.90282 0.27822 0.0
H265 H 0.03739 0.90194 0.24154 0.0
C266 C 0.03613 0.85906 0.09551 0.0
C267 C 0.03743 0.83228 0.10538 0.0
C268 C 0.0359 0.88189 0.11147 0.0
C269 C 0.03703 0.87823 0.1375 0.0
C270 C 0.03706 0.8516 0.14729 0.0
C271 C 0.03722 0.82891 0.13144 0.0
C272 C 0.04042 0.90152 0.15494 0.0
C273 C 0.01436 0.90513 0.175 0.0
C274 C 0.07177 0.91767 0.15388 0.0
C275 C 0.1007 0.9146 0.1335 0.0
C276 C 0.12347 0.88956 0.12987 0.0
C277 C 0.15063 0.88686 0.11052 0.0
C278 C 0.1555 0.90913 0.09485 0.0
C279 C 0.13331 0.93419 0.09855 0.0
C280 C 0.10607 0.93699 0.11786 0.0
C281 C 0.10895 0.94806 0.25293 0.0
C282 C 0.08284 0.96567 0.2669 0.0
C283 C 0.10061 0.94088 0.2285 0.0
C284 C 0.06587 0.95104 0.21766 0.0
C285 C 0.04122 0.97055 0.2308 0.0
C286 C 0.04948 0.97761 0.25538 0.0
C287 C 0.05335 0.93745 0.19475 0.0
C288 C 0.07755 0.93571 0.17366 0.0
C289 C 0.02076 0.9225 0.19509 0.0
C290 C 0.99488 0.92246 0.2171 0.0
C291 C 0.95666 0.9337 0.21529 0.0
C292 C 0.93229 0.93401 0.23614 0.0
C293 C 0.94581 0.92296 0.25882 0.0
C294 C 0.98369 0.91145 0.26067 0.0
C295 C 0.00814 0.91104 0.23987 0.0
H296 H 0.92692 0.92327 0.27495 0.0
H297 H 0.17655 0.90701 0.07988 0.0
H298 H 0.57563 0.67382 0.58432 0.0
H299 H 0.57759 0.63137 0.60889 0.0
H300 H 0.58363 0.6788 0.67672 0.0
H301 H 0.58355 0.72079 0.65241 0.0
H302 H 0.63012 0.63368 0.67961 0.0
H303 H 0.49779 0.65749 0.65342 0.0
H304 H 0.44701 0.66563 0.62199 0.0
H305 H 0.47498 0.5842 0.59238 0.0
H306 H 0.52622 0.57573 0.6235 0.0
H307 H 0.49132 0.57679 0.76579 0.0
H308 H 0.5033 0.59468 0.72428 0.0
H309 H 0.61093 0.54394 0.72026 0.0
H310 H 0.59988 0.5271 0.76254 0.0
H311 H 0.51781 0.57946 0.67726 0.0
H312 H 0.67637 0.58279 0.69546 0.0
H313 H 0.72223 0.57908 0.73029 0.0
H314 H 0.6343 0.61341 0.78077 0.0
H315 H 0.58812 0.61757 0.74617 0.0
C316 C 0.57796 0.67509 0.60445 0.0
C317 C 0.57897 0.70074 0.61644 0.0
C318 C 0.57882 0.65085 0.61846 0.0
C319 C 0.58043 0.65193 0.64466 0.0
C320 C 0.58244 0.67742 0.65652 0.0
C321 C 0.58184 0.7015 0.6426 0.0
C322 C 0.57823 0.62706 0.66027 0.0
C323 C 0.60592 0.62148 0.67878 0.0
C324 C 0.54682 0.61099 0.65917 0.0
C325 C 0.5161 0.61612 0.64052 0.0
C326 C 0.49327 0.64142 0.64007 0.0
C327 C 0.46439 0.64608 0.62235 0.0
C328 C 0.45787 0.62548 0.60514 0.0
C329 C 0.48014 0.60016 0.60567 0.0
C330 C 0.50909 0.59542 0.62334 0.0
C331 C 0.51716 0.56901 0.75583 0.0
C332 C 0.54468 0.55059 0.76735 0.0
C333 C 0.52384 0.57904 0.732 0.0
C334 C 0.55823 0.57092 0.71927 0.0
C335 C 0.58434 0.55068 0.72985 0.0
C336 C 0.57785 0.54087 0.75391 0.0
C337 C 0.56871 0.58707 0.69725 0.0
C338 C 0.54279 0.5909 0.67746 0.0
C339 C 0.60121 0.60212 0.69752 0.0
C340 C 0.6288 0.60015 0.71834 0.0
C341 C 0.66692 0.58959 0.71399 0.0
C342 C 0.69294 0.58741 0.73368 0.0
C343 C 0.68115 0.59591 0.75774 0.0
C344 C 0.64337 0.60675 0.76215 0.0
C345 C 0.61728 0.60902 0.74252 0.0
H346 H 0.70131 0.59415 0.77296 0.0
H347 H 0.43549 0.62912 0.59144 0.0
H348 H 0.54523 0.35289 0.57673 0.0
H349 H 0.54155 0.39498 0.60224 0.0
H350 H 0.55227 0.34565 0.66907 0.0
H351 H 0.55438 0.30392 0.64399 0.0
H352 H 0.49943 0.38726 0.67569 0.0
H353 H 0.6295 0.37401 0.64103 0.0
H354 H 0.67681 0.37046 0.60649 0.0
H355 H 0.63433 0.45089 0.58093 0.0
H356 H 0.58647 0.45475 0.6152 0.0
H357 H 0.63665 0.44826 0.75605 0.0
H358 H 0.62336 0.43337 0.71384 0.0
H359 H 0.51123 0.47805 0.718 0.0
H360 H 0.52401 0.49222 0.76087 0.0
H361 H 0.60165 0.45023 0.66823 0.0
H362 H 0.44885 0.43533 0.69611 0.0
H363 H 0.40772 0.43452 0.73377 0.0
H364 H 0.50474 0.40345 0.77708 0.0
H365 H 0.54625 0.4038 0.73959 0.0
C366 C 0.54636 0.35109 0.59688 0.0
C367 C 0.55051 0.32504 0.60833 0.0
C368 C 0.54447 0.37514 0.6114 0.0
C369 C 0.54682 0.37346 0.63755 0.0
C370 C 0.55028 0.34748 0.64893 0.0
C371 C 0.55202 0.32359 0.63453 0.0
C372 C 0.54712 0.39832 0.65353 0.0
C373 C 0.52129 0.40139 0.67374 0.0
C374 C 0.57546 0.41689 0.65098 0.0
C375 C 0.60412 0.4145 0.63042 0.0
C376 C 0.63007 0.39083 0.62791 0.0
C377 C 0.657 0.38878 0.60842 0.0
C378 C 0.65847 0.41039 0.59147 0.0
C379 C 0.63308 0.43414 0.59403 0.0
C380 C 0.60605 0.43627 0.61347 0.0
C381 C 0.60954 0.45553 0.74773 0.0
C382 C 0.58117 0.47105 0.76181 0.0
C383 C 0.60208 0.44722 0.72348 0.0
C384 C 0.56604 0.45418 0.71292 0.0
C385 C 0.53908 0.4722 0.72593 0.0
C386 C 0.54647 0.48037 0.75037 0.0
C387 C 0.55508 0.43826 0.69092 0.0
C388 C 0.57871 0.43691 0.66954 0.0
C389 C 0.52536 0.4207 0.69268 0.0
C390 C 0.50061 0.41993 0.71518 0.0
C391 C 0.46131 0.42828 0.71367 0.0
C392 C 0.43796 0.42789 0.73497 0.0
C393 C 0.45364 0.41904 0.75782 0.0
C394 C 0.49266 0.41038 0.75939 0.0
C395 C 0.51608 0.41065 0.73813 0.0
H396 H 0.43554 0.41882 0.7743 0.0
H397 H 0.67936 0.40878 0.57639 0.0
H398 H 0.27797 0.3635 0.01187 0.0
H399 H 0.33245 0.38211 0.99145 0.0
H400 H 0.3162 0.33316 0.92584 0.0
H401 H 0.26153 0.31457 0.94606 0.0
H402 H 0.39302 0.33516 0.93755 0.0
H403 H 0.27891 0.39791 0.92813 0.0
H404 H 0.2222 0.4253 0.94573 0.0
H405 H 0.29469 0.47377 0.98798 0.0
H406 H 0.35188 0.4463 0.97102 0.0
H407 H 0.48875 0.40856 0.84632 0.0
H408 H 0.44037 0.3863 0.87016 0.0
H409 H 0.45368 0.44117 0.93226 0.0
H410 H 0.50252 0.46297 0.90845 0.0
H411 H 0.37962 0.4362 0.92384 0.0
H412 H 0.49337 0.37547 0.93374 0.0
H413 H 0.55111 0.34623 0.9202 0.0
H414 H 0.48163 0.2942 0.87941 0.0
H415 H 0.42346 0.32338 0.89242 0.0
C416 C 0.28615 0.35659 0.99314 0.0
C417 C 0.26522 0.33782 0.98044 0.0
C418 C 0.31732 0.36715 0.98156 0.0
C419 C 0.3279 0.35929 0.95703 0.0
C420 C 0.30841 0.33947 0.94479 0.0
C421 C 0.27725 0.32884 0.95638 0.0
C422 C 0.3575 0.37313 0.94348 0.0
C423 C 0.38998 0.35719 0.93428 0.0
C424 C 0.3538 0.40198 0.93981 0.0
C425 C 0.31962 0.41974 0.94865 0.0
C426 C 0.28275 0.41435 0.94124 0.0
C427 C 0.25055 0.42986 0.95111 0.0
C428 C 0.25489 0.45101 0.96817 0.0
C429 C 0.29142 0.4572 0.97492 0.0
C430 C 0.32374 0.44167 0.96518 0.0
C431 C 0.48109 0.41584 0.86503 0.0
C432 C 0.49824 0.43792 0.87547 0.0
C433 C 0.45366 0.40312 0.87863 0.0
C434 C 0.44359 0.41202 0.90302 0.0
C435 C 0.4608 0.43415 0.9134 0.0
C436 C 0.48819 0.44683 0.89976 0.0
C437 C 0.41518 0.3982 0.91772 0.0
C438 C 0.38282 0.41417 0.92711 0.0
C439 C 0.41918 0.3694 0.92172 0.0
C440 C 0.45409 0.35178 0.91385 0.0
C441 C 0.49042 0.35793 0.92171 0.0
C442 C 0.52322 0.34134 0.91416 0.0
C443 C 0.52005 0.31841 0.89889 0.0
C444 C 0.48404 0.31199 0.8912 0.0
C445 C 0.45115 0.32853 0.89867 0.0
H446 H 0.54548 0.30558 0.89308 0.0
H447 H 0.22991 0.46247 0.97625 0.0
H448 H 0.90739 0.62724 0.96224 0.0
H449 H 0.85421 0.60801 0.94136 0.0
H450 H 0.77394 0.665 0.98141 0.0
H451 H 0.82729 0.68462 0.00225 0.0
H452 H 0.75775 0.60613 0.98041 0.0
H453 H 0.78725 0.68043 0.92603 0.0
H454 H 0.83042 0.70643 0.90078 0.0
H455 H 0.86092 0.63495 0.8552 0.0
H456 H 0.81834 0.60839 0.88044 0.0
H457 H 0.59122 0.59034 0.90979 0.0
H458 H 0.64392 0.60836 0.93236 0.0
H459 H 0.72517 0.56458 0.88187 0.0
H460 H 0.67226 0.54745 0.85878 0.0
H461 H 0.74156 0.61624 0.88873 0.0
H462 H 0.71546 0.54126 0.9409 0.0
H463 H 0.67641 0.51214 0.96619 0.0
H464 H 0.6439 0.58023 0.01536 0.0
H465 H 0.68244 0.60989 0.99025 0.0
C466 C 0.87838 0.63557 0.96667 0.0
C467 C 0.87129 0.65735 0.98385 0.0
C468 C 0.84814 0.62465 0.95471 0.0
C469 C 0.81034 0.63516 0.95989 0.0
C470 C 0.80304 0.65666 0.97727 0.0
C471 C 0.83339 0.66791 0.989 0.0
C472 C 0.77857 0.62384 0.94675 0.0
C473 C 0.75371 0.60866 0.96044 0.0
C474 C 0.77449 0.62635 0.92058 0.0
C475 C 0.7999 0.64235 0.90529 0.0
C476 C 0.80342 0.67019 0.91077 0.0
C477 C 0.82773 0.68504 0.89643 0.0
C478 C 0.84848 0.67233 0.87644 0.0
C479 C 0.84487 0.64476 0.87071 0.0
C480 C 0.82063 0.6298 0.88501 0.0
C481 C 0.62037 0.5846 0.9036 0.0
C482 C 0.62803 0.56702 0.88298 0.0
C483 C 0.65041 0.59469 0.91658 0.0
C484 C 0.68847 0.58742 0.90903 0.0
C485 C 0.69603 0.57022 0.88814 0.0
C486 C 0.66597 0.56016 0.8752 0.0
C487 C 0.72028 0.59863 0.92238 0.0
C488 C 0.74535 0.61372 0.90872 0.0
C489 C 0.72495 0.5956 0.94851 0.0
C490 C 0.70152 0.57788 0.96354 0.0
C491 C 0.69971 0.5501 0.95697 0.0
C492 C 0.67775 0.53348 0.9713 0.0
C493 C 0.65762 0.54435 0.9923 0.0
C494 C 0.65948 0.57185 -0.00094 0.0
C495 C 0.68141 0.58857 0.98482 0.0
H496 H 0.64064 0.53143 0.00336 0.0
H497 H 0.86728 0.68387 0.86535 0.0
H498 H 0.93252 0.42762 0.01346 0.0
H499 H 0.88335 0.45743 0.99218 0.0
H500 H 0.84804 0.38705 0.95273 0.0
H501 H 0.89908 0.35776 0.97183 0.0
H502 H 0.85229 0.42476 0.92162 0.0
H503 H 0.79772 0.42186 0.00476 0.0
H504 H 0.79513 0.42866 0.05047 0.0
H505 H 0.80362 0.51517 0.04078 0.0
H506 H 0.80677 0.50881 0.995 0.0
H507 H 0.64353 0.47289 0.91566 0.0
H508 H 0.69952 0.46621 0.94242 0.0
H509 H 0.76832 0.49938 0.88468 0.0
H510 H 0.71269 0.50372 0.85708 0.0
H511 H 0.75399 0.4891 0.96391 0.0
H512 H 0.85134 0.46061 0.87927 0.0
H513 H 0.84675 0.44744 0.83486 0.0
H514 H 0.74167 0.41224 0.85044 0.0
H515 H 0.74594 0.42493 0.89495 0.0
C516 C 0.91461 0.41847 5e-05 0.0
C517 C 0.92017 0.39011 0.99441 0.0
C518 C 0.88604 0.43557 0.98816 0.0
C519 C 0.86179 0.42455 0.97087 0.0
C520 C 0.86649 0.39617 0.96587 0.0
C521 C 0.89547 0.37925 0.97723 0.0
C522 C 0.83237 0.44228 0.957 0.0
C523 C 0.83101 0.43895 0.93096 0.0
C524 C 0.80461 0.46102 0.96899 0.0
C525 C 0.8031 0.46478 0.99649 0.0
C526 C 0.79944 0.44228 0.0124 0.0
C527 C 0.79778 0.44606 0.03831 0.0
C528 C 0.79938 0.47231 0.04853 0.0
C529 C 0.80252 0.49484 0.03285 0.0
C530 C 0.80425 0.49116 0.00692 0.0
C531 C 0.67041 0.47951 0.90905 0.0
C532 C 0.67404 0.48896 0.88453 0.0
C533 C 0.70237 0.47584 0.92436 0.0
C534 C 0.73834 0.48181 0.91541 0.0
C535 C 0.74099 0.49417 0.89182 0.0
C536 C 0.70921 0.49695 0.87616 0.0
C537 C 0.77314 0.47049 0.92886 0.0
C538 C 0.77582 0.47528 0.95466 0.0
C539 C 0.80128 0.45207 0.91691 0.0
C540 C 0.79873 0.44404 0.89029 0.0
C541 C 0.82734 0.45001 0.87318 0.0
C542 C 0.82478 0.44263 0.84802 0.0
C543 C 0.79386 0.42911 0.83982 0.0
C544 C 0.76553 0.42279 0.85679 0.0
C545 C 0.76801 0.43006 0.88198 0.0
H546 H 0.7919 0.42346 0.82033 0.0
H547 H 0.79805 0.4752 0.0686 0.0
H548 H 0.1794 0.61432 0.9613 0.0
H549 H 0.23187 0.58349 0.94349 0.0
H550 H 0.29841 0.59348 0.00982 0.0
H551 H 0.24621 0.62547 0.0271 0.0
H552 H 0.34113 0.59655 0.97019 0.0
H553 H 0.253 0.53435 0.99713 0.0
H554 H 0.18874 0.51838 0.00063 0.0
H555 H 0.18789 0.504 0.92143 0.0
H556 H 0.25163 0.52074 0.91729 0.0
H557 H 0.48537 0.51045 0.91755 0.0
H558 H 0.43279 0.51605 0.948 0.0
H559 H 0.35201 0.52753 0.88783 0.0
H560 H 0.40461 0.52094 0.85738 0.0
H561 H 0.31958 0.50648 0.93209 0.0
H562 H 0.39454 0.58073 0.90492 0.0
H563 H 0.45573 0.60079 0.8986 0.0
H564 H 0.47879 0.59349 0.97712 0.0
H565 H 0.41795 0.57293 0.98379 0.0
C566 C 0.20534 0.60987 0.97196 0.0
C567 C 0.20912 0.62203 0.99545 0.0
C568 C 0.2351 0.59209 0.96195 0.0
C569 C 0.26874 0.58557 0.97559 0.0
C570 C 0.27259 0.59801 -0.00093 0.0
C571 C 0.24297 0.61623 0.00891 0.0
C572 C 0.30045 0.5668 0.9647 0.0
C573 C 0.33657 0.57654 0.9625 0.0
C574 C 0.29441 0.54081 0.95426 0.0
C575 C 0.25707 0.52907 0.95688 0.0
C576 C 0.23905 0.52795 0.98042 0.0
C577 C 0.20259 0.5189 0.9825 0.0
C578 C 0.1841 0.51041 0.96123 0.0
C579 C 0.20217 0.51073 0.93787 0.0
C580 C 0.23848 0.52001 0.93565 0.0
C581 C 0.45622 0.51227 0.91087 0.0
C582 C 0.4488 0.51472 0.88522 0.0
C583 C 0.42621 0.51573 0.92826 0.0
C584 C 0.3886 0.52261 0.92015 0.0
C585 C 0.3808 0.52211 0.89447 0.0
C586 C 0.41082 0.51842 0.87709 0.0
C587 C 0.35965 0.53662 0.93736 0.0
C588 C 0.32417 0.52609 0.94059 0.0
C589 C 0.36597 0.56204 0.94867 0.0
C590 C 0.402 0.57503 0.9448 0.0
C591 C 0.41278 0.58329 0.9208 0.0
C592 C 0.44737 0.59473 0.91716 0.0
C593 C 0.47119 0.59834 0.93744 0.0
C594 C 0.46035 0.59061 0.96142 0.0
C595 C 0.42584 0.57906 0.96514 0.0
H596 H 0.49799 0.60717 0.93458 0.0
H597 H 0.15592 0.50334 0.96289 0.0
H598 H 0.77023 0.88823 0.52254 0.0
H599 H 0.82554 0.90264 0.49967 0.0
H600 H 0.78764 0.86458 0.43259 0.0
H601 H 0.73266 0.84982 0.45546 0.0
H602 H 0.86144 0.85335 0.43679 0.0
H603 H 0.77516 0.93543 0.44054 0.0
H604 H 0.73169 0.97179 0.46077 0.0
H605 H 0.82397 0.99542 0.50549 0.0
H606 H 0.86813 0.95925 0.48543 0.0
H607 H 0.95395 0.96466 0.36115 0.0
H608 H 0.90128 0.94782 0.38521 0.0
H609 H 0.9823 0.89442 0.42705 0.0
H610 H 0.03507 0.91161 0.40331 0.0
H611 H 0.88939 0.951 0.437 0.0
H612 H 0.93717 0.83522 0.43921 0.0
H613 H 0.9759 0.80006 0.41415 0.0
H614 H 0.95013 0.84668 0.34745 0.0
H615 H 0.91085 0.8819 0.37206 0.0
C616 C 0.7737 0.88303 0.5029 0.0
C617 C 0.74717 0.86794 0.49075 0.0
C618 C 0.80524 0.89129 0.48985 0.0
C619 C 0.81049 0.88495 0.46435 0.0
C620 C 0.78423 0.86962 0.45228 0.0
C621 C 0.75288 0.86117 0.46535 0.0
C622 C 0.84326 0.89431 0.45018 0.0
C623 C 0.8673 0.87476 0.43667 0.0
C624 C 0.85089 0.92226 0.44992 0.0
C625 C 0.82474 0.94429 0.46184 0.0
C626 C 0.78611 0.94824 0.45484 0.0
C627 C 0.7614 0.96887 0.4662 0.0
C628 C 0.77501 0.98571 0.48458 0.0
C629 C 0.81349 0.98223 0.49135 0.0
C630 C 0.8384 0.96174 0.47993 0.0
C631 C 0.96041 0.94948 0.37561 0.0
C632 C -0.00161 0.93982 0.38083 0.0
C633 C 0.93042 0.93984 0.38925 0.0
C634 C 0.93803 0.92002 0.40796 0.0
C635 C 0.97593 0.9097 0.41266 0.0
C636 C 0.00593 0.91946 0.39909 0.0
C637 C 0.90615 0.91039 0.42265 0.0
C638 C 0.88295 0.92974 0.43678 0.0
C639 C 0.89833 0.88253 0.42257 0.0
C640 C 0.92144 0.86132 0.40753 0.0
C641 C 0.93969 0.83791 0.41918 0.0
C642 C 0.96174 0.81797 0.40506 0.0
C643 C 0.96559 0.82118 0.37924 0.0
C644 C 0.94726 0.84428 0.36747 0.0
C645 C 0.92515 0.86425 0.3815 0.0
H646 H 0.9827 0.80574 0.36834 0.0
H647 H 0.7558 0.00161 0.4934 0.0
H648 H 0.41551 0.11492 0.47562 0.0
H649 H 0.36281 0.09788 0.4526 0.0
H650 H 0.28427 0.16159 0.48565 0.0
H651 H 0.33719 0.17895 0.50865 0.0
H652 H 0.25635 0.11164 0.48743 0.0
H653 H 0.3129 0.16619 0.42542 0.0
H654 H 0.36553 0.18163 0.39987 0.0
H655 H 0.38757 0.1006 0.36827 0.0
H656 H 0.33539 0.08457 0.39391 0.0
H657 H 0.10057 0.09343 0.40792 0.0
H658 H 0.15225 0.11123 0.43134 0.0
H659 H 0.2341 0.05253 0.39439 0.0
H660 H 0.1826 0.03607 0.36961 0.0
H661 H 0.26019 0.10031 0.39521 0.0
H662 H 0.20584 0.04545 0.45838 0.0
H663 H 0.15427 0.02932 0.48473 0.0
H664 H 0.1289 0.11092 0.51443 0.0
H665 H 0.18001 0.12744 0.48812 0.0
C666 C 0.38695 0.12518 0.47809 0.0
C667 C 0.38029 0.14816 0.49396 0.0
C668 C 0.35696 0.11555 0.46483 0.0
C669 C 0.31972 0.12851 0.46739 0.0
C670 C 0.31286 0.15131 0.48343 0.0
C671 C 0.34302 0.16124 0.49646 0.0
C672 C 0.28792 0.1179 0.45357 0.0
C673 C 0.25684 0.10955 0.46722 0.0
C674 C 0.28919 0.11449 0.42729 0.0
C675 C 0.32043 0.12413 0.41174 0.0
C676 C 0.32914 0.15161 0.41316 0.0
C677 C 0.35887 0.16048 0.39864 0.0
C678 C 0.37993 0.14209 0.3825 0.0
C679 C 0.37125 0.11481 0.3808 0.0
C680 C 0.34157 0.10583 0.3953 0.0
C681 C 0.12961 0.08432 0.40483 0.0
C682 C 0.13755 0.06284 0.38745 0.0
C683 C 0.15907 0.09429 0.41843 0.0
C684 C 0.197 0.08278 0.41511 0.0
C685 C 0.20502 0.06154 0.39749 0.0
C686 C 0.17557 0.05186 0.3836 0.0
C687 C 0.22849 0.09389 0.42905 0.0
C688 C 0.25959 0.10237 0.41541 0.0
C689 C 0.22722 0.09743 0.45535 0.0
C690 C 0.19635 0.08765 0.47107 0.0
C691 C 0.18894 0.0599 0.47037 0.0
C692 C 0.15992 0.05071 0.48532 0.0
C693 C 0.13824 0.0691 0.50114 0.0
C694 C 0.14565 0.0967 0.50212 0.0
C695 C 0.17468 0.10597 0.48722 0.0
H696 H 0.11578 0.06196 0.5127 0.0
H697 H 0.40294 0.14899 0.37128 0.0
H698 H 0.44059 0.94464 0.50365 0.0
H699 H 0.38543 0.96845 0.48293 0.0
H700 H 0.30988 0.92354 0.52772 0.0
H701 H 0.3652 0.89936 0.54834 0.0
H702 H 0.2976 0.91615 0.48048 0.0
H703 H 0.30409 0.99637 0.53134 0.0
H704 H 0.33651 0.03255 0.55243 0.0
H705 H 0.37604 0.06007 0.48153 0.0
H706 H 0.34303 0.02459 0.45994 0.0
H707 H 0.13967 0.00415 0.41718 0.0
H708 H 0.18598 1.00044 0.45132 0.0
H709 H 0.2711 0.96005 0.40164 0.0
H710 H 0.22462 0.96272 0.36771 0.0
H711 H 0.26945 0.01439 0.45724 0.0
H712 H 0.29632 0.89997 0.43195 0.0
H713 H 0.26309 0.86389 0.41132 0.0
H714 H 0.15457 0.90418 0.43506 0.0
H715 H 0.18721 0.94018 0.45618 0.0
C716 C 0.41219 0.9405 0.50968 0.0
C717 C 0.40718 0.91995 0.52744 0.0
C718 C 0.3806 0.95421 0.49786 0.0
C719 C 0.34344 0.94787 0.50381 0.0
C720 C 0.33829 0.92873 0.5228 0.0
C721 C 0.36988 0.91486 0.5345 0.0
C722 C 0.31103 0.95767 0.48751 0.0
C723 C 0.29112 0.9377 0.47581 0.0
C724 C 0.30242 0.98577 0.4813 0.0
C725 C 0.32119 0.00778 0.49406 0.0
C726 C 0.31957 0.01024 0.52025 0.0
C727 C 0.33786 0.03073 0.53227 0.0
C728 C 0.35805 0.04878 0.51829 0.0
C729 C 0.35984 0.04642 0.49227 0.0
C730 C 0.34119 0.02622 0.48012 0.0
C731 C 0.16867 0.99535 0.41339 0.0
C732 C 0.1788 0.98374 0.38991 0.0
C733 C 0.19511 0.99352 0.43281 0.0
C734 C 0.23193 0.98033 0.42886 0.0
C735 C 0.24282 0.97046 0.40494 0.0
C736 C 0.21632 0.97193 0.38565 0.0
C737 C 0.25693 0.97275 0.45025 0.0
C738 C 0.27548 0.99299 0.46257 0.0
C739 C 0.26403 0.9449 0.45741 0.0
C740 C 0.2442 0.92287 0.44544 0.0
C741 C 0.26539 0.90101 0.43289 0.0
C742 C 0.24665 0.8806 0.42109 0.0
C743 C 0.20674 0.88179 0.42181 0.0
C744 C 0.18548 0.90332 0.43444 0.0
C745 C 0.20408 0.92375 0.44631 0.0
H746 H 0.19229 0.86599 0.41263 0.0
H747 H 0.37243 0.06451 0.52762 0.0
H748 H 0.72511 0.07986 0.53631 0.0
H749 H 0.77355 0.04803 0.51499 0.0
H750 H 0.75504 0.09397 0.44669 0.0
H751 H 0.70683 0.12552 0.4677 0.0
H752 H 0.75864 0.0373 0.43945 0.0
H753 H 0.82735 0.10454 0.48394 0.0
H754 H 0.84741 0.12794 0.52183 0.0
H755 H 0.89501 0.0505 0.55137 0.0
H756 H 0.87484 0.02661 0.51374 0.0
H757 H 0.91262 0.04377 0.36016 0.0
H758 H 0.85768 0.04419 0.38813 0.0
H759 H 0.9255 0.99393 0.44077 0.0
H760 H 0.98134 0.9944 0.41281 0.0
H761 H 0.89482 0.03638 0.46323 0.0
H762 H 0.84198 0.9722 0.41185 0.0
H763 H 0.82238 0.94892 0.37392 0.0
H764 H 0.74518 0.01967 0.35612 0.0
H765 H 0.76479 0.04341 0.39389 0.0
C766 C 0.7314 0.08303 0.51673 0.0
C767 C 0.71259 0.10533 0.50371 0.0
C768 C 0.75896 0.06488 0.50462 0.0
C769 C 0.76775 0.06867 0.47928 0.0
C770 C 0.74852 0.09063 0.46623 0.0
C771 C 0.72136 0.10884 0.47832 0.0
C772 C 0.79812 0.05082 0.46621 0.0
C773 C 0.78851 0.037 0.44449 0.0
C774 C 0.83673 0.04933 0.47369 0.0
C775 C 0.84884 0.06372 0.49628 0.0
C776 C 0.84167 0.09247 0.49865 0.0
C777 C 0.85318 0.10583 0.52004 0.0
C778 C 0.87226 0.0907 0.53907 0.0
C779 C 0.88004 0.06218 0.53668 0.0
C780 C 0.86855 0.04871 0.51533 0.0
C781 C 0.91549 0.03217 0.37739 0.0
C782 C 0.95099 0.01892 0.38432 0.0
C783 C 0.8839 0.03211 0.3933 0.0
C784 C 0.88706 0.01867 0.41648 0.0
C785 C 0.9222 0.0042 0.42289 0.0
C786 C 0.95401 0.00439 0.40693 0.0
C787 C 0.85581 0.02416 0.43528 0.0
C788 C 0.86504 0.03567 0.4583 0.0
C789 C 0.81681 0.02352 0.4289 0.0
C790 C 0.80498 0.00953 0.40588 0.0
C791 C 0.82101 0.9828 0.39985 0.0
C792 C 0.80985 0.96952 0.37834 0.0
C793 C 0.78251 0.9828 0.36259 0.0
C794 C 0.76631 0.00937 0.36836 0.0
C795 C 0.7774 0.02271 0.3899 0.0
H796 H 0.77388 0.97251 0.34592 0.0
H797 H 0.88118 0.10109 0.55561 0.0
loop_
_geom_bond_atom_site_label_1
_geom_bond_atom_site_label_2
_geom_bond_distance
_geom_bond_site_symmetry_2
_ccdc_geom_bond_type
C0 C1 1.386 . S
C0 C2 1.397 . S
C0 H24 0.931 . S
C1 C0 1.386 . S
C1 C5 1.397 . S
C2 C0 1.397 . S
C2 C3 1.391 . S
C2 H25 0.930 . S
C3 C2 1.391 . S
C3 C4 1.384 . S
C3 C6 1.469 1_556 S
C4 C3 1.384 . S
C4 C5 1.389 . S
C4 H26 0.929 . S
C5 C1 1.397 . S
C5 C4 1.389 . S
C5 H27 0.931 . S
C6 C3 1.469 1_554 S
C6 C7 1.387 . S
C6 C11 1.390 1_554 S
C7 C6 1.387 . S
C7 C8 1.401 . S
C7 H28 0.930 . S
C8 C7 1.401 . S
C8 C9 1.376 . S
C8 C17 1.511 . S
C9 C8 1.376 . S
C9 C10 1.392 . S
C9 H30 0.931 . S
C10 C9 1.392 . S
C10 C11 1.361 1_554 S
C10 C12 1.500 1_554 S
C11 C6 1.390 1_556 S
C11 C10 1.361 1_556 S
C11 H29 0.931 . S
C12 C10 1.500 1_556 S
C12 C13 1.371 . S
C12 C14 1.365 . S
C13 C12 1.371 . S
C13 C23 1.386 1_455 S
C13 H31 0.931 1_556 S
C14 C12 1.365 . S
C14 C15 1.409 . S
C14 H32 0.929 . S
C15 C14 1.409 . S
C15 C16 1.380 1_455 S
C15 H33 0.930 . S
C16 C15 1.380 1_655 S
C16 C23 1.357 . S
C17 C8 1.511 . S
C17 C18 1.341 . S
C17 C19 1.371 . S
C18 C17 1.341 . S
C18 C22 1.394 . S
C18 H34 0.930 . S
C19 C17 1.371 . S
C19 C20 1.392 . S
C19 H35 0.931 . S
C20 C19 1.392 . S
C20 C21 1.331 . S
C20 H38 0.932 . S
C21 C20 1.331 . S
C21 C22 1.336 . S
C22 C18 1.394 . S
C22 C21 1.336 . S
C22 H37 0.929 . S
C23 C13 1.386 1_655 S
C23 C16 1.357 . S
C23 H36 0.928 . S
H24 C0 0.931 . S
H25 C2 0.930 . S
H26 C4 0.929 . S
H27 C5 0.931 . S
H28 C7 0.930 . S
H29 C11 0.931 . S
H30 C9 0.931 . S
H31 C13 0.931 1_554 S
H32 C14 0.929 . S
H33 C15 0.930 . S
H34 C18 0.930 . S
H35 C19 0.931 . S
H36 C23 0.928 . S
H37 C22 0.929 . S
H38 C20 0.932 . S
C39 C40 1.386 . S
C39 C41 1.397 . S
C39 H63 0.931 . S
C40 C39 1.386 . S
C40 C44 1.397 . S
C41 C39 1.397 . S
C41 C42 1.384 1_556 S
C41 H64 0.927 1_556 S
C42 C41 1.384 1_554 S
C42 C43 1.377 1_554 S
C42 C45 1.481 . S
C43 C42 1.377 1_556 S
C43 C44 1.389 . S
C43 H65 0.929 . S
C44 C40 1.397 . S
C44 C43 1.389 . S
C44 H66 0.931 . S
C45 C42 1.481 . S
C45 C46 1.387 . S
C45 C50 1.390 1_655 S
C46 C45 1.387 . S
C46 C47 1.401 1_655 S
C46 H67 0.930 . S
C47 C46 1.401 1_455 S
C47 C48 1.376 . S
C47 C56 1.511 . S
C48 C47 1.376 . S
C48 C49 1.392 . S
C48 H69 0.931 . S
C49 C48 1.392 . S
C49 C50 1.361 . S
C49 C51 1.500 1_554 S
C50 C45 1.390 1_455 S
C50 C49 1.361 . S
C50 H68 0.931 1_554 S
C51 C49 1.500 1_556 S
C51 C52 1.371 . S
C51 C53 1.365 . S
C52 C51 1.371 . S
C52 C62 1.386 . S
C52 H70 0.931 1_556 S
C53 C51 1.365 . S
C53 C54 1.409 . S
C53 H71 0.929 . S
C54 C53 1.409 . S
C54 C55 1.380 . S
C54 H72 0.930 . S
C55 C54 1.380 . S
C55 C62 1.357 . S
C56 C47 1.511 . S
C56 C57 1.341 1_455 S
C56 C58 1.371 . S
C57 C56 1.341 1_655 S
C57 C61 1.394 . S
C57 H73 0.930 . S
C58 C56 1.371 . S
C58 C59 1.392 . S
C58 H74 0.931 . S
C59 C58 1.392 . S
C59 C60 1.331 . S
C59 H77 0.932 . S
C60 C59 1.331 . S
C60 C61 1.336 1_455 S
C61 C57 1.394 . S
C61 C60 1.336 1_655 S
C61 H76 0.929 . S
C62 C52 1.386 . S
C62 C55 1.357 . S
C62 H75 0.928 . S
H63 C39 0.931 . S
H64 C41 0.927 1_554 S
H65 C43 0.929 . S
H66 C44 0.931 . S
H67 C46 0.930 . S
H68 C50 0.931 1_556 S
H69 C48 0.931 . S
H70 C52 0.931 1_554 S
H71 C53 0.929 . S
H72 C54 0.930 . S
H73 C57 0.930 . S
H74 C58 0.931 . S
H75 C62 0.928 . S
H76 C61 0.929 . S
H77 C59 0.932 . S
C78 C79 1.386 . S
C78 C80 1.397 . S
C78 H102 0.931 . S
C79 C78 1.386 . S
C79 C83 1.397 . S
C80 C78 1.397 . S
C80 C81 1.384 . S
C80 H103 0.930 . S
C81 C80 1.384 . S
C81 C82 1.377 . S
C81 C84 1.481 . S
C82 C81 1.377 . S
C82 C83 1.389 . S
C82 H104 0.929 . S
C83 C79 1.397 . S
C83 C82 1.389 . S
C83 H105 0.931 . S
C84 C81 1.481 . S
C84 C85 1.387 . S
C84 C89 1.390 . S
C85 C84 1.387 . S
C85 C86 1.401 . S
C85 H106 0.930 . S
C86 C85 1.401 . S
C86 C87 1.376 . S
C86 C95 1.511 . S
C87 C86 1.376 . S
C87 C88 1.392 . S
C87 H108 0.931 . S
C88 C87 1.392 . S
C88 C89 1.361 . S
C88 C90 1.500 . S
C89 C84 1.390 . S
C89 C88 1.361 . S
C89 H107 0.931 . S
C90 C88 1.500 . S
C90 C91 1.371 . S
C90 C92 1.365 . S
C91 C90 1.371 . S
C91 C101 1.386 . S
C91 H109 0.931 . S
C92 C90 1.365 . S
C92 C93 1.409 . S
C92 H110 0.929 . S
C93 C92 1.409 . S
C93 C94 1.380 . S
C93 H111 0.930 . S
C94 C93 1.380 . S
C94 C101 1.357 . S
C95 C86 1.511 . S
C95 C96 1.341 . S
C95 C97 1.371 . S
C96 C95 1.341 . S
C96 C100 1.394 . S
C96 H112 0.930 . S
C97 C95 1.371 . S
C97 C98 1.392 . S
C97 H113 0.931 . S
C98 C97 1.392 . S
C98 C99 1.331 . S
C98 H116 0.932 . S
C99 C98 1.331 . S
C99 C100 1.336 . S
C100 C96 1.394 . S
C100 C99 1.336 . S
C100 H115 0.929 . S
C101 C91 1.386 . S
C101 C94 1.357 . S
C101 H114 0.928 . S
H102 C78 0.931 . S
H103 C80 0.930 . S
H104 C82 0.929 . S
H105 C83 0.931 . S
H106 C85 0.930 . S
H107 C89 0.931 . S
H108 C87 0.931 . S
H109 C91 0.931 . S
H110 C92 0.929 . S
H111 C93 0.930 . S
H112 C96 0.930 . S
H113 C97 0.931 . S
H114 C101 0.928 . S
H115 C100 0.929 . S
H116 C98 0.932 . S
C117 C118 1.386 . S
C117 C119 1.397 . S
C117 H141 0.931 . S
C118 C117 1.386 . S
C118 C122 1.397 . S
C119 C117 1.397 . S
C119 C120 1.384 . S
C119 H142 0.930 . S
C120 C119 1.384 . S
C120 C121 1.377 . S
C120 C123 1.481 . S
C121 C120 1.377 . S
C121 C122 1.389 . S
C121 H143 0.929 . S
C122 C118 1.397 . S
C122 C121 1.389 . S
C122 H144 0.931 . S
C123 C120 1.481 . S
C123 C124 1.387 . S
C123 C128 1.390 . S
C124 C123 1.387 . S
C124 C125 1.401 . S
C124 H145 0.930 . S
C125 C124 1.401 . S
C125 C126 1.376 . S
C125 C134 1.511 . S
C126 C125 1.376 . S
C126 C127 1.392 . S
C126 H147 0.931 . S
C127 C126 1.392 . S
C127 C128 1.361 . S
C127 C129 1.500 . S
C128 C123 1.390 . S
C128 C127 1.361 . S
C128 H146 0.931 . S
C129 C127 1.500 . S
C129 C130 1.371 . S
C129 C131 1.365 . S
C130 C129 1.371 . S
C130 C140 1.386 . S
C130 H148 0.931 . S
C131 C129 1.365 . S
C131 C132 1.409 . S
C131 H149 0.929 . S
C132 C131 1.409 . S
C132 C133 1.380 . S
C132 H150 0.930 . S
C133 C132 1.380 . S
C133 C140 1.357 . S
C134 C125 1.511 . S
C134 C135 1.341 . S
C134 C136 1.371 . S
C135 C134 1.341 . S
C135 C139 1.394 . S
C135 H151 0.930 . S
C136 C134 1.371 . S
C136 C137 1.392 . S
C136 H152 0.931 . S
C137 C136 1.392 . S
C137 C138 1.331 . S
C137 H155 0.932 . S
C138 C137 1.331 . S
C138 C139 1.336 . S
C139 C135 1.394 . S
C139 C138 1.336 . S
C139 H154 0.929 . S
C140 C130 1.386 . S
C140 C133 1.357 . S
C140 H153 0.928 . S
H141 C117 0.931 . S
H142 C119 0.930 . S
H143 C121 0.929 . S
H144 C122 0.931 . S
H145 C124 0.930 . S
H146 C128 0.931 . S
H147 C126 0.931 . S
H148 C130 0.931 . S
H149 C131 0.929 . S
H150 C132 0.930 . S
H151 C135 0.930 . S
H152 C136 0.931 . S
H153 C140 0.928 . S
H154 C139 0.929 . S
H155 C137 0.932 . S
Zn156 O162 1.920 . S
Zn156 O168 1.898 . S
Zn156 O171 1.905 . S
Zn157 O165 1.905 . S
Zn157 O166 1.898 . S
Zn157 O174 1.920 . S
Zn158 O161 2.080 . S
Zn158 O164 2.114 1_545 S
Zn158 O167 2.120 1_545 S
Zn158 O169 2.120 . S
Zn158 O170 2.114 . S
Zn158 O173 2.080 1_545 S
C159 O164 1.166 . S
C159 O165 1.182 . S
C160 O166 1.167 . S
C160 O167 1.299 . S
O161 Zn158 2.080 . S
O161 C175 1.305 . S
O162 Zn156 1.920 . S
O162 C175 1.234 . S
C163 O168 1.167 . S
C163 O169 1.299 . S
O164 Zn158 2.114 1_565 S
O164 C159 1.166 . S
O165 Zn157 1.905 . S
O165 C159 1.182 . S
O166 Zn157 1.898 . S
O166 C160 1.167 . S
O167 Zn158 2.120 1_565 S
O167 C160 1.299 . S
O168 Zn156 1.898 . S
O168 C163 1.167 . S
O169 Zn158 2.120 . S
O169 C163 1.299 . S
O170 Zn158 2.114 . S
O170 C172 1.166 1_455 S
O171 Zn156 1.905 . S
O171 C172 1.182 1_455 S
C172 O170 1.166 1_655 S
C172 O171 1.182 1_655 S
O173 Zn158 2.080 1_565 S
O173 C176 1.305 . S
O174 Zn157 1.920 . S
O174 C176 1.234 . S
C175 O161 1.305 . S
C175 O162 1.234 . S
C176 O173 1.305 . S
C176 O174 1.234 . S
Zn177 O183 1.920 . S
Zn177 O189 1.898 . S
Zn177 O192 1.905 . S
Zn178 O186 1.905 . S
Zn178 O187 1.898 . S
Zn178 O195 1.920 . S
Zn179 O182 2.080 . S
Zn179 O185 2.114 . S
Zn179 O188 2.120 . S
Zn179 O190 2.120 . S
Zn179 O191 2.114 . S
Zn179 O194 2.080 . S
C180 O185 1.166 . S
C180 O186 1.182 . S
C181 O187 1.167 . S
C181 O188 1.299 . S
O182 Zn179 2.080 . S
O182 C196 1.305 . S
O183 Zn177 1.920 . S
O183 C196 1.234 . S
C184 O189 1.167 . S
C184 O190 1.299 . S
O185 Zn179 2.114 . S
O185 C180 1.166 . S
O186 Zn178 1.905 . S
O186 C180 1.182 . S
O187 Zn178 1.898 . S
O187 C181 1.167 . S
O188 Zn179 2.120 . S
O188 C181 1.299 . S
O189 Zn177 1.898 . S
O189 C184 1.167 . S
O190 Zn179 2.120 . S
O190 C184 1.299 . S
O191 Zn179 2.114 . S
O191 C193 1.166 . S
O192 Zn177 1.905 . S
O192 C193 1.182 . S
C193 O191 1.166 . S
C193 O192 1.182 . S
O194 Zn179 2.080 . S
O194 C197 1.305 . S
O195 Zn178 1.920 . S
O195 C197 1.234 . S
C196 O182 1.305 . S
C196 O183 1.234 . S
C197 O194 1.305 . S
C197 O195 1.234 . S
H198 C216 0.951 . S
H199 C218 0.951 . S
H200 C220 0.950 . S
H201 C221 0.950 . S
H202 C223 0.950 . S
H203 C226 0.950 . S
H204 C227 0.950 . S
H205 C229 0.950 . S
H206 C230 0.950 . S
H207 C231 0.951 . S
H208 C233 0.951 . S
H209 C235 0.950 . S
H210 C236 0.950 . S
H211 C238 0.950 . S
H212 C241 0.950 . S
H213 C242 0.950 . S
H214 C244 0.950 . S
H215 C245 0.950 . S
C216 H198 0.951 . S
C216 C217 1.366 . S
C216 C218 1.388 . S
C217 C216 1.366 . S
C217 C221 1.385 . S
C218 H199 0.951 . S
C218 C216 1.388 . S
C218 C219 1.366 . S
C219 C218 1.366 . S
C219 C220 1.414 . S
C219 C222 1.499 . S
C220 H200 0.950 . S
C220 C219 1.414 . S
C220 C221 1.374 . S
C221 H201 0.950 . S
C221 C217 1.385 . S
C221 C220 1.374 . S
C222 C219 1.499 . S
C222 C223 1.373 . S
C222 C224 1.389 . S
C223 H202 0.950 . S
C223 C222 1.373 . S
C223 C239 1.377 . S
C224 C222 1.389 . S
C224 C225 1.524 . S
C224 C238 1.377 . S
C225 C224 1.524 . S
C225 C226 1.397 . S
C225 C230 1.363 . S
C226 H203 0.950 . S
C226 C225 1.397 . S
C226 C227 1.334 1_455 S
C227 H204 0.950 . S
C227 C226 1.334 1_655 S
C227 C228 1.287 . S
C228 C227 1.287 . S
C228 C229 1.524 . S
C228 H247 0.913 . S
C229 H205 0.950 . S
C229 C228 1.524 . S
C229 C230 1.415 1_655 S
C230 H206 0.950 . S
C230 C225 1.363 . S
C230 C229 1.415 1_455 S
C231 H207 0.951 . S
C231 C232 1.366 . S
C231 C233 1.388 . S
C232 C231 1.366 . S
C232 C236 1.385 . S
C233 H208 0.951 . S
C233 C231 1.388 . S
C233 C234 1.366 . S
C234 C233 1.366 . S
C234 C235 1.414 . S
C234 C237 1.499 . S
C235 H209 0.950 . S
C235 C234 1.414 . S
C235 C236 1.374 . S
C236 H210 0.950 . S
C236 C232 1.385 . S
C236 C235 1.374 . S
C237 C234 1.499 . S
C237 C238 1.373 . S
C237 C239 1.389 . S
C238 H211 0.950 . S
C238 C224 1.377 . S
C238 C237 1.373 . S
C239 C223 1.377 . S
C239 C237 1.389 . S
C239 C240 1.524 . S
C240 C239 1.524 . S
C240 C241 1.397 . S
C240 C245 1.363 . S
C241 H212 0.950 . S
C241 C240 1.397 . S
C241 C242 1.334 . S
C242 H213 0.950 . S
C242 C241 1.334 . S
C242 C243 1.287 . S
C243 C242 1.287 . S
C243 C244 1.524 . S
C243 H246 0.999 . S
C244 H214 0.950 . S
C244 C243 1.524 . S
C244 C245 1.415 . S
C245 H215 0.950 . S
C245 C240 1.363 . S
C245 C244 1.415 . S
H246 C243 0.999 . S
H247 C228 0.913 . S
H248 C266 0.951 . S
H249 C268 0.951 . S
H250 C270 0.950 . S
H251 C271 0.945 1_655 S
H252 C273 0.950 . S
H253 C276 0.950 . S
H254 C277 0.950 . S
H255 C279 0.950 . S
H256 C280 0.950 . S
H257 C281 0.951 . S
H258 C283 0.951 . S
H259 C285 0.950 . S
H260 C286 0.950 . S
H261 C288 0.950 . S
H262 C291 0.950 . S
H263 C292 0.950 . S
H264 C294 0.950 . S
H265 C295 0.950 . S
C266 H248 0.951 . S
C266 C267 1.366 . S
C266 C268 1.388 . S
C267 C266 1.366 . S
C267 C271 1.386 . S
C268 H249 0.951 . S
C268 C266 1.388 . S
C268 C269 1.366 . S
C269 C268 1.366 . S
C269 C270 1.414 . S
C269 C272 1.499 . S
C270 H250 0.950 . S
C270 C269 1.414 . S
C270 C271 1.378 . S
C271 H251 0.945 1_455 S
C271 C267 1.386 . S
C271 C270 1.378 . S
C272 C269 1.499 . S
C272 C273 1.373 1_455 S
C272 C274 1.389 . S
C273 H252 0.950 . S
C273 C272 1.373 1_655 S
C273 C289 1.377 . S
C274 C272 1.389 . S
C274 C275 1.524 . S
C274 C288 1.377 . S
C275 C274 1.524 . S
C275 C276 1.397 . S
C275 C280 1.363 . S
C276 H253 0.950 . S
C276 C275 1.397 . S
C276 C277 1.334 . S
C277 H254 0.950 . S
C277 C276 1.334 . S
C277 C278 1.287 . S
C278 C277 1.287 . S
C278 C279 1.524 . S
C278 H297 0.913 . S
C279 H255 0.950 . S
C279 C278 1.524 . S
C279 C280 1.415 . S
C280 H256 0.950 . S
C280 C275 1.363 . S
C280 C279 1.415 . S
C281 H257 0.951 . S
C281 C282 1.366 . S
C281 C283 1.388 . S
C282 C281 1.366 . S
C282 C286 1.385 . S
C283 H258 0.951 . S
C283 C281 1.388 . S
C283 C284 1.366 . S
C284 C283 1.366 . S
C284 C285 1.414 . S
C284 C287 1.499 . S
C285 H259 0.950 . S
C285 C284 1.414 . S
C285 C286 1.374 . S
C286 H260 0.950 . S
C286 C282 1.385 . S
C286 C285 1.374 . S
C287 C284 1.499 . S
C287 C288 1.373 . S
C287 C289 1.389 1_455 S
C288 H261 0.950 . S
C288 C274 1.377 . S
C288 C287 1.373 . S
C289 C273 1.377 . S
C289 C287 1.389 1_655 S
C289 C290 1.524 . S
C290 C289 1.524 . S
C290 C291 1.397 . S
C290 C295 1.363 . S
C291 H262 0.950 . S
C291 C290 1.397 . S
C291 C292 1.334 . S
C292 H263 0.950 . S
C292 C291 1.334 . S
C292 C293 1.287 . S
C293 C292 1.287 . S
C293 C294 1.524 . S
C293 H296 0.999 . S
C294 H264 0.950 . S
C294 C293 1.524 . S
C294 C295 1.415 . S
C295 H265 0.950 . S
C295 C290 1.363 . S
C295 C294 1.415 . S
H296 C293 0.999 . S
H297 C278 0.913 . S
H298 C316 0.951 . S
H299 C318 0.951 . S
H300 C320 0.950 . S
H301 C321 0.950 . S
H302 C323 0.950 . S
H303 C326 0.950 . S
H304 C327 0.950 . S
H305 C329 0.950 . S
H306 C330 0.950 . S
H307 C331 0.951 . S
H308 C333 0.951 . S
H309 C335 0.950 . S
H310 C336 0.950 . S
H311 C338 0.950 . S
H312 C341 0.950 . S
H313 C342 0.950 . S
H314 C344 0.950 . S
H315 C345 0.950 . S
C316 H298 0.951 . S
C316 C317 1.366 . S
C316 C318 1.388 . S
C317 C316 1.366 . S
C317 C321 1.385 . S
C318 H299 0.951 . S
C318 C316 1.388 . S
C318 C319 1.366 . S
C319 C318 1.366 . S
C319 C320 1.414 . S
C319 C322 1.499 . S
C320 H300 0.950 . S
C320 C319 1.414 . S
C320 C321 1.374 . S
C321 H301 0.950 . S
C321 C317 1.385 . S
C321 C320 1.374 . S
C322 C319 1.499 . S
C322 C323 1.373 . S
C322 C324 1.389 . S
C323 H302 0.950 . S
C323 C322 1.373 . S
C323 C339 1.377 . S
C324 C322 1.389 . S
C324 C325 1.524 . S
C324 C338 1.377 . S
C325 C324 1.524 . S
C325 C326 1.397 . S
C325 C330 1.363 . S
C326 H303 0.950 . S
C326 C325 1.397 . S
C326 C327 1.334 . S
C327 H304 0.950 . S
C327 C326 1.334 . S
C327 C328 1.287 . S
C328 C327 1.287 . S
C328 C329 1.524 . S
C328 H347 0.913 . S
C329 H305 0.950 . S
C329 C328 1.524 . S
C329 C330 1.415 . S
C330 H306 0.950 . S
C330 C325 1.363 . S
C330 C329 1.415 . S
C331 H307 0.951 . S
C331 C332 1.366 . S
C331 C333 1.388 . S
C332 C331 1.366 . S
C332 C336 1.385 . S
C333 H308 0.951 . S
C333 C331 1.388 . S
C333 C334 1.366 . S
C334 C333 1.366 . S
C334 C335 1.414 . S
C334 C337 1.499 . S
C335 H309 0.950 . S
C335 C334 1.414 . S
C335 C336 1.374 . S
C336 H310 0.950 . S
C336 C332 1.385 . S
C336 C335 1.374 . S
C337 C334 1.499 . S
C337 C338 1.373 . S
C337 C339 1.389 . S
C338 H311 0.950 . S
C338 C324 1.377 . S
C338 C337 1.373 . S
C339 C323 1.377 . S
C339 C337 1.389 . S
C339 C340 1.524 . S
C340 C339 1.524 . S
C340 C341 1.397 . S
C340 C345 1.363 . S
C341 H312 0.950 . S
C341 C340 1.397 . S
C341 C342 1.334 . S
C342 H313 0.950 . S
C342 C341 1.334 . S
C342 C343 1.287 . S
C343 C342 1.287 . S
C343 C344 1.524 . S
C343 H346 0.999 . S
C344 H314 0.950 . S
C344 C343 1.524 . S
C344 C345 1.415 . S
C345 H315 0.950 . S
C345 C340 1.363 . S
C345 C344 1.415 . S
H346 C343 0.999 . S
H347 C328 0.913 . S
H348 C366 0.951 . S
H349 C368 0.951 . S
H350 C370 0.950 . S
H351 C371 0.950 . S
H352 C373 0.950 . S
H353 C376 0.950 . S
H354 C377 0.950 . S
H355 C379 0.950 . S
H356 C380 0.950 . S
H357 C381 0.951 . S
H358 C383 0.951 . S
H359 C385 0.950 . S
H360 C386 0.950 . S
H361 C388 0.950 . S
H362 C391 0.950 . S
H363 C392 0.950 . S
H364 C394 0.950 . S
H365 C395 0.950 . S
C366 H348 0.951 . S
C366 C367 1.366 . S
C366 C368 1.388 . S
C367 C366 1.366 . S
C367 C371 1.385 . S
C368 H349 0.951 . S
C368 C366 1.388 . S
C368 C369 1.366 . S
C369 C368 1.366 . S
C369 C370 1.414 . S
C369 C372 1.499 . S
C370 H350 0.950 . S
C370 C369 1.414 . S
C370 C371 1.374 . S
C371 H351 0.950 . S
C371 C367 1.385 . S
C371 C370 1.374 . S
C372 C369 1.499 . S
C372 C373 1.373 . S
C372 C374 1.389 . S
C373 H352 0.950 . S
C373 C372 1.373 . S
C373 C389 1.377 . S
C374 C372 1.389 . S
C374 C375 1.524 . S
C374 C388 1.377 . S
C375 C374 1.524 . S
C375 C376 1.397 . S
C375 C380 1.363 . S
C376 H353 0.950 . S
C376 C375 1.397 . S
C376 C377 1.334 . S
C377 H354 0.950 . S
C377 C376 1.334 . S
C377 C378 1.287 . S
C378 C377 1.287 . S
C378 C379 1.524 . S
C378 H397 0.913 . S
C379 H355 0.950 . S
C379 C378 1.524 . S
C379 C380 1.415 . S
C380 H356 0.950 . S
C380 C375 1.363 . S
C380 C379 1.415 . S
C381 H357 0.951 . S
C381 C382 1.366 . S
C381 C383 1.388 . S
C382 C381 1.366 . S
C382 C386 1.385 . S
C383 H358 0.951 . S
C383 C381 1.388 . S
C383 C384 1.366 . S
C384 C383 1.366 . S
C384 C385 1.414 . S
C384 C387 1.499 . S
C385 H359 0.950 . S
C385 C384 1.414 . S
C385 C386 1.374 . S
C386 H360 0.950 . S
C386 C382 1.385 . S
C386 C385 1.374 . S
C387 C384 1.499 . S
C387 C388 1.373 . S
C387 C389 1.389 . S
C388 H361 0.950 . S
C388 C374 1.377 . S
C388 C387 1.373 . S
C389 C373 1.377 . S
C389 C387 1.389 . S
C389 C390 1.524 . S
C390 C389 1.524 . S
C390 C391 1.397 . S
C390 C395 1.363 . S
C391 H362 0.950 . S
C391 C390 1.397 . S
C391 C392 1.334 . S
C392 H363 0.950 . S
C392 C391 1.334 . S
C392 C393 1.287 . S
C393 C392 1.287 . S
C393 C394 1.524 . S
C393 H396 0.999 . S
C394 H364 0.950 . S
C394 C393 1.524 . S
C394 C395 1.415 . S
C395 H365 0.950 . S
C395 C390 1.363 . S
C395 C394 1.415 . S
H396 C393 0.999 . S
H397 C378 0.913 . S
H398 C416 0.951 . S
H399 C418 0.951 . S
H400 C420 0.950 . S
H401 C421 0.950 . S
H402 C423 0.950 . S
H403 C426 0.950 . S
H404 C427 0.950 . S
H405 C429 0.950 . S
H406 C430 0.950 . S
H407 C431 0.951 . S
H408 C433 0.951 . S
H409 C435 0.950 . S
H410 C436 0.950 . S
H411 C438 0.950 . S
H412 C441 0.950 . S
H413 C442 0.950 1_554 S
H414 C444 0.950 . S
H415 C445 0.950 . S
C416 H398 0.951 . S
C416 C417 1.366 . S
C416 C418 1.388 . S
C417 C416 1.366 . S
C417 C421 1.385 . S
C418 H399 0.951 . S
C418 C416 1.388 . S
C418 C419 1.366 . S
C419 C418 1.366 . S
C419 C420 1.414 . S
C419 C422 1.499 . S
C420 H400 0.950 . S
C420 C419 1.414 . S
C420 C421 1.374 . S
C421 H401 0.950 . S
C421 C417 1.385 . S
C421 C420 1.374 . S
C422 C419 1.499 . S
C422 C423 1.373 . S
C422 C424 1.389 . S
C423 H402 0.950 . S
C423 C422 1.373 . S
C423 C439 1.377 . S
C424 C422 1.389 . S
C424 C425 1.524 . S
C424 C438 1.377 . S
C425 C424 1.524 . S
C425 C426 1.397 . S
C425 C430 1.363 . S
C426 H403 0.950 . S
C426 C425 1.397 . S
C426 C427 1.334 . S
C427 H404 0.950 . S
C427 C426 1.334 . S
C427 C428 1.287 . S
C428 C427 1.287 . S
C428 C429 1.524 . S
C428 H447 0.913 . S
C429 H405 0.950 . S
C429 C428 1.524 . S
C429 C430 1.415 . S
C430 H406 0.950 . S
C430 C425 1.363 . S
C430 C429 1.415 . S
C431 H407 0.951 . S
C431 C432 1.366 . S
C431 C433 1.388 . S
C432 C431 1.366 . S
C432 C436 1.385 . S
C433 H408 0.951 . S
C433 C431 1.388 . S
C433 C434 1.366 . S
C434 C433 1.366 . S
C434 C435 1.414 . S
C434 C437 1.499 . S
C435 H409 0.950 . S
C435 C434 1.414 . S
C435 C436 1.374 . S
C436 H410 0.950 . S
C436 C432 1.385 . S
C436 C435 1.374 . S
C437 C434 1.499 . S
C437 C438 1.373 . S
C437 C439 1.389 . S
C438 H411 0.950 . S
C438 C424 1.377 . S
C438 C437 1.373 . S
C439 C423 1.377 . S
C439 C437 1.389 . S
C439 C440 1.524 . S
C440 C439 1.524 . S
C440 C441 1.397 . S
C440 C445 1.363 . S
C441 H412 0.950 . S
C441 C440 1.397 . S
C441 C442 1.334 . S
C442 H413 0.950 1_556 S
C442 C441 1.334 . S
C442 C443 1.287 . S
C443 C442 1.287 . S
C443 C444 1.524 . S
C443 H446 0.999 1_556 S
C444 H414 0.950 . S
C444 C443 1.524 . S
C444 C445 1.415 . S
C445 H415 0.950 . S
C445 C440 1.363 . S
C445 C444 1.415 . S
H446 C443 0.999 1_554 S
H447 C428 0.913 . S
H448 C466 0.951 . S
H449 C468 0.951 . S
H450 C470 0.950 . S
H451 C471 0.950 . S
H452 C473 0.950 . S
H453 C476 0.950 . S
H454 C477 0.950 . S
H455 C479 0.950 . S
H456 C480 0.950 . S
H457 C481 0.951 . S
H458 C483 0.951 . S
H459 C485 0.950 . S
H460 C486 0.950 . S
H461 C488 0.950 . S
H462 C491 0.950 . S
H463 C492 0.950 . S
H464 C494 0.941 1_554 S
H465 C495 0.950 . S
C466 H448 0.951 . S
C466 C467 1.366 . S
C466 C468 1.388 . S
C467 C466 1.366 . S
C467 C471 1.385 . S
C468 H449 0.951 . S
C468 C466 1.388 . S
C468 C469 1.366 . S
C469 C468 1.366 . S
C469 C470 1.414 . S
C469 C472 1.499 . S
C470 H450 0.950 . S
C470 C469 1.414 . S
C470 C471 1.374 . S
C471 H451 0.950 . S
C471 C467 1.385 . S
C471 C470 1.374 . S
C472 C469 1.499 . S
C472 C473 1.373 . S
C472 C474 1.389 . S
C473 H452 0.950 . S
C473 C472 1.373 . S
C473 C489 1.377 . S
C474 C472 1.389 . S
C474 C475 1.524 . S
C474 C488 1.377 . S
C475 C474 1.524 . S
C475 C476 1.397 . S
C475 C480 1.363 . S
C476 H453 0.950 . S
C476 C475 1.397 . S
C476 C477 1.334 . S
C477 H454 0.950 . S
C477 C476 1.334 . S
C477 C478 1.287 . S
C478 C477 1.287 . S
C478 C479 1.524 . S
C478 H497 0.913 . S
C479 H455 0.950 . S
C479 C478 1.524 . S
C479 C480 1.415 . S
C480 H456 0.950 . S
C480 C475 1.363 . S
C480 C479 1.415 . S
C481 H457 0.951 . S
C481 C482 1.366 . S
C481 C483 1.388 . S
C482 C481 1.366 . S
C482 C486 1.385 . S
C483 H458 0.951 . S
C483 C481 1.388 . S
C483 C484 1.366 . S
C484 C483 1.366 . S
C484 C485 1.414 . S
C484 C487 1.499 . S
C485 H459 0.950 . S
C485 C484 1.414 . S
C485 C486 1.374 . S
C486 H460 0.950 . S
C486 C482 1.385 . S
C486 C485 1.374 . S
C487 C484 1.499 . S
C487 C488 1.373 . S
C487 C489 1.389 . S
C488 H461 0.950 . S
C488 C474 1.377 . S
C488 C487 1.373 . S
C489 C473 1.377 . S
C489 C487 1.389 . S
C489 C490 1.524 . S
C490 C489 1.524 . S
C490 C491 1.397 . S
C490 C495 1.363 . S
C491 H462 0.950 . S
C491 C490 1.397 . S
C491 C492 1.334 1_556 S
C492 H463 0.950 . S
C492 C491 1.334 1_554 S
C492 C493 1.287 . S
C493 C492 1.287 . S
C493 C494 1.524 1_554 S
C493 H496 0.999 . S
C494 H464 0.941 1_556 S
C494 C493 1.524 1_556 S
C494 C495 1.415 . S
C495 H465 0.950 . S
C495 C490 1.363 . S
C495 C494 1.415 . S
H496 C493 0.999 . S
H497 C478 0.913 . S
H498 C516 0.951 . S
H499 C518 0.951 . S
H500 C520 0.950 . S
H501 C521 0.950 . S
H502 C523 0.950 . S
H503 C526 0.950 . S
H504 C527 0.950 . S
H505 C529 0.950 . S
H506 C530 0.950 . S
H507 C531 0.951 . S
H508 C533 0.951 . S
H509 C535 0.950 . S
H510 C536 0.950 . S
H511 C538 0.950 . S
H512 C541 0.950 . S
H513 C542 0.950 . S
H514 C544 0.950 . S
H515 C545 0.950 . S
C516 H498 0.951 . S
C516 C517 1.366 . S
C516 C518 1.388 . S
C517 C516 1.366 . S
C517 C521 1.385 . S
C518 H499 0.951 . S
C518 C516 1.388 . S
C518 C519 1.366 . S
C519 C518 1.366 . S
C519 C520 1.414 . S
C519 C522 1.499 . S
C520 H500 0.950 . S
C520 C519 1.414 . S
C520 C521 1.374 . S
C521 H501 0.950 . S
C521 C517 1.385 . S
C521 C520 1.374 . S
C522 C519 1.499 . S
C522 C523 1.373 . S
C522 C524 1.389 . S
C523 H502 0.950 . S
C523 C522 1.373 . S
C523 C539 1.377 . S
C524 C522 1.389 . S
C524 C525 1.524 . S
C524 C538 1.377 . S
C525 C524 1.524 . S
C525 C526 1.397 . S
C525 C530 1.363 . S
C526 H503 0.950 . S
C526 C525 1.397 . S
C526 C527 1.334 1_556 S
C527 H504 0.950 . S
C527 C526 1.334 1_554 S
C527 C528 1.287 . S
C528 C527 1.287 . S
C528 C529 1.524 1_554 S
C528 H547 0.913 . S
C529 H505 0.950 . S
C529 C528 1.524 1_556 S
C529 C530 1.415 . S
C530 H506 0.950 . S
C530 C525 1.363 . S
C530 C529 1.415 . S
C531 H507 0.951 . S
C531 C532 1.366 . S
C531 C533 1.388 . S
C532 C531 1.366 . S
C532 C536 1.385 . S
C533 H508 0.951 . S
C533 C531 1.388 . S
C533 C534 1.366 . S
C534 C533 1.366 . S
C534 C535 1.414 . S
C534 C537 1.499 . S
C535 H509 0.950 . S
C535 C534 1.414 . S
C535 C536 1.374 . S
C536 H510 0.950 . S
C536 C532 1.385 . S
C536 C535 1.374 . S
C537 C534 1.499 . S
C537 C538 1.373 . S
C537 C539 1.389 . S
C538 H511 0.950 . S
C538 C524 1.377 . S
C538 C537 1.373 . S
C539 C523 1.377 . S
C539 C537 1.389 . S
C539 C540 1.524 . S
C540 C539 1.524 . S
C540 C541 1.397 . S
C540 C545 1.363 . S
C541 H512 0.950 . S
C541 C540 1.397 . S
C541 C542 1.334 . S
C542 H513 0.950 . S
C542 C541 1.334 . S
C542 C543 1.287 . S
C543 C542 1.287 . S
C543 C544 1.524 . S
C543 H546 0.999 . S
C544 H514 0.950 . S
C544 C543 1.524 . S
C544 C545 1.415 . S
C545 H515 0.950 . S
C545 C540 1.363 . S
C545 C544 1.415 . S
H546 C543 0.999 . S
H547 C528 0.913 . S
H548 C566 0.951 . S
H549 C568 0.951 . S
H550 C570 0.950 . S
H551 C571 0.950 . S
H552 C573 0.950 . S
H553 C576 0.950 . S
H554 C577 0.950 1_554 S
H555 C579 0.950 . S
H556 C580 0.950 . S
H557 C581 0.951 . S
H558 C583 0.951 . S
H559 C585 0.950 . S
H560 C586 0.950 . S
H561 C588 0.950 . S
H562 C591 0.950 . S
H563 C592 0.950 . S
H564 C594 0.950 . S
H565 C595 0.950 . S
C566 H548 0.951 . S
C566 C567 1.366 . S
C566 C568 1.388 . S
C567 C566 1.366 . S
C567 C571 1.385 . S
C568 H549 0.951 . S
C568 C566 1.388 . S
C568 C569 1.366 . S
C569 C568 1.366 . S
C569 C570 1.414 . S
C569 C572 1.499 . S
C570 H550 0.950 . S
C570 C569 1.414 . S
C570 C571 1.374 . S
C571 H551 0.950 . S
C571 C567 1.385 . S
C571 C570 1.374 . S
C572 C569 1.499 . S
C572 C573 1.373 . S
C572 C574 1.389 . S
C573 H552 0.950 . S
C573 C572 1.373 . S
C573 C589 1.377 . S
C574 C572 1.389 . S
C574 C575 1.524 . S
C574 C588 1.377 . S
C575 C574 1.524 . S
C575 C576 1.397 . S
C575 C580 1.363 . S
C576 H553 0.950 . S
C576 C575 1.397 . S
C576 C577 1.334 . S
C577 H554 0.950 1_556 S
C577 C576 1.334 . S
C577 C578 1.287 . S
C578 C577 1.287 . S
C578 C579 1.524 . S
C578 H597 0.913 . S
C579 H555 0.950 . S
C579 C578 1.524 . S
C579 C580 1.415 . S
C580 H556 0.950 . S
C580 C575 1.363 . S
C580 C579 1.415 . S
C581 H557 0.951 . S
C581 C582 1.366 . S
C581 C583 1.388 . S
C582 C581 1.366 . S
C582 C586 1.385 . S
C583 H558 0.951 . S
C583 C581 1.388 . S
C583 C584 1.366 . S
C584 C583 1.366 . S
C584 C585 1.414 . S
C584 C587 1.499 . S
C585 H559 0.950 . S
C585 C584 1.414 . S
C585 C586 1.374 . S
C586 H560 0.950 . S
C586 C582 1.385 . S
C586 C585 1.374 . S
C587 C584 1.499 . S
C587 C588 1.373 . S
C587 C589 1.389 . S
C588 H561 0.950 . S
C588 C574 1.377 . S
C588 C587 1.373 . S
C589 C573 1.377 . S
C589 C587 1.389 . S
C589 C590 1.524 . S
C590 C589 1.524 . S
C590 C591 1.397 . S
C590 C595 1.363 . S
C591 H562 0.950 . S
C591 C590 1.397 . S
C591 C592 1.334 . S
C592 H563 0.950 . S
C592 C591 1.334 . S
C592 C593 1.287 . S
C593 C592 1.287 . S
C593 C594 1.524 . S
C593 H596 0.999 . S
C594 H564 0.950 . S
C594 C593 1.524 . S
C594 C595 1.415 . S
C595 H565 0.950 . S
C595 C590 1.363 . S
C595 C594 1.415 . S
H596 C593 0.999 . S
H597 C578 0.913 . S
H598 C616 0.951 . S
H599 C618 0.951 . S
H600 C620 0.950 . S
H601 C621 0.950 . S
H602 C623 0.950 . S
H603 C626 0.950 . S
H604 C627 0.950 . S
H605 C629 0.950 . S
H606 C630 0.950 . S
H607 C631 0.951 . S
H608 C633 0.951 . S
H609 C635 0.950 . S
H610 C636 0.950 1_455 S
H611 C638 0.950 . S
H612 C641 0.951 . S
H613 C642 0.950 . S
H614 C644 0.950 . S
H615 C645 0.950 . S
C616 H598 0.951 . S
C616 C617 1.366 . S
C616 C618 1.388 . S
C617 C616 1.366 . S
C617 C621 1.385 . S
C618 H599 0.951 . S
C618 C616 1.388 . S
C618 C619 1.366 . S
C619 C618 1.366 . S
C619 C620 1.414 . S
C619 C622 1.499 . S
C620 H600 0.950 . S
C620 C619 1.414 . S
C620 C621 1.374 . S
C621 H601 0.950 . S
C621 C617 1.385 . S
C621 C620 1.374 . S
C622 C619 1.499 . S
C622 C623 1.373 . S
C622 C624 1.389 . S
C623 H602 0.950 . S
C623 C622 1.373 . S
C623 C639 1.377 . S
C624 C622 1.389 . S
C624 C625 1.524 . S
C624 C638 1.377 . S
C625 C624 1.524 . S
C625 C626 1.397 . S
C625 C630 1.363 . S
C626 H603 0.950 . S
C626 C625 1.397 . S
C626 C627 1.334 . S
C627 H604 0.950 . S
C627 C626 1.334 . S
C627 C628 1.287 . S
C628 C627 1.287 . S
C628 C629 1.524 . S
C628 H647 0.913 . S
C629 H605 0.950 . S
C629 C628 1.524 . S
C629 C630 1.415 . S
C630 H606 0.950 . S
C630 C625 1.363 . S
C630 C629 1.415 . S
C631 H607 0.951 . S
C631 C632 1.366 1_655 S
C631 C633 1.388 . S
C632 C631 1.366 1_455 S
C632 C636 1.385 1_455 S
C633 H608 0.951 . S
C633 C631 1.388 . S
C633 C634 1.366 . S
C634 C633 1.366 . S
C634 C635 1.414 . S
C634 C637 1.499 . S
C635 H609 0.950 . S
C635 C634 1.414 . S
C635 C636 1.374 . S
C636 H610 0.950 1_655 S
C636 C632 1.385 1_655 S
C636 C635 1.374 . S
C637 C634 1.499 . S
C637 C638 1.373 . S
C637 C639 1.389 . S
C638 H611 0.950 . S
C638 C624 1.377 . S
C638 C637 1.373 . S
C639 C623 1.377 . S
C639 C637 1.389 . S
C639 C640 1.524 . S
C640 C639 1.524 . S
C640 C641 1.397 . S
C640 C645 1.363 . S
C641 H612 0.951 . S
C641 C640 1.397 . S
C641 C642 1.334 1_655 S
C642 H613 0.950 . S
C642 C641 1.334 1_455 S
C642 C643 1.287 . S
C643 C642 1.287 . S
C643 C644 1.524 1_455 S
C643 H646 0.999 . S
C644 H614 0.950 . S
C644 C643 1.524 1_655 S
C644 C645 1.415 . S
C645 H615 0.950 . S
C645 C640 1.363 . S
C645 C644 1.415 . S
H646 C643 0.999 . S
H647 C628 0.913 . S
H648 C666 0.951 . S
H649 C668 0.951 . S
H650 C670 0.950 . S
H651 C671 0.950 . S
H652 C673 0.950 . S
H653 C676 0.950 . S
H654 C677 0.950 . S
H655 C679 0.950 . S
H656 C680 0.950 . S
H657 C681 0.951 . S
H658 C683 0.951 . S
H659 C685 0.950 . S
H660 C686 0.950 . S
H661 C688 0.950 . S
H662 C691 0.950 . S
H663 C692 0.950 . S
H664 C694 0.950 . S
H665 C695 0.950 . S
C666 H648 0.951 . S
C666 C667 1.366 . S
C666 C668 1.388 . S
C667 C666 1.366 . S
C667 C671 1.385 . S
C668 H649 0.951 . S
C668 C666 1.388 . S
C668 C669 1.366 . S
C669 C668 1.366 . S
C669 C670 1.414 . S
C669 C672 1.499 . S
C670 H650 0.950 . S
C670 C669 1.414 . S
C670 C671 1.374 . S
C671 H651 0.950 . S
C671 C667 1.385 . S
C671 C670 1.374 . S
C672 C669 1.499 . S
C672 C673 1.373 . S
C672 C674 1.389 . S
C673 H652 0.950 . S
C673 C672 1.373 . S
C673 C689 1.377 . S
C674 C672 1.389 . S
C674 C675 1.524 . S
C674 C688 1.377 . S
C675 C674 1.524 . S
C675 C676 1.397 . S
C675 C680 1.363 . S
C676 H653 0.950 . S
C676 C675 1.397 . S
C676 C677 1.334 . S
C677 H654 0.950 . S
C677 C676 1.334 . S
C677 C678 1.287 . S
C678 C677 1.287 . S
C678 C679 1.524 . S
C678 H697 0.913 . S
C679 H655 0.950 . S
C679 C678 1.524 . S
C679 C680 1.415 . S
C680 H656 0.950 . S
C680 C675 1.363 . S
C680 C679 1.415 . S
C681 H657 0.951 . S
C681 C682 1.366 . S
C681 C683 1.388 . S
C682 C681 1.366 . S
C682 C686 1.385 . S
C683 H658 0.951 . S
C683 C681 1.388 . S
C683 C684 1.366 . S
C684 C683 1.366 . S
C684 C685 1.414 . S
C684 C687 1.499 . S
C685 H659 0.950 . S
C685 C684 1.414 . S
C685 C686 1.374 . S
C686 H660 0.950 . S
C686 C682 1.385 . S
C686 C685 1.374 . S
C687 C684 1.499 . S
C687 C688 1.373 . S
C687 C689 1.389 . S
C688 H661 0.950 . S
C688 C674 1.377 . S
C688 C687 1.373 . S
C689 C673 1.377 . S
C689 C687 1.389 . S
C689 C690 1.524 . S
C690 C689 1.524 . S
C690 C691 1.397 . S
C690 C695 1.363 . S
C691 H662 0.950 . S
C691 C690 1.397 . S
C691 C692 1.334 . S
C692 H663 0.950 . S
C692 C691 1.334 . S
C692 C693 1.287 . S
C693 C692 1.287 . S
C693 C694 1.524 . S
C693 H696 0.999 . S
C694 H664 0.950 . S
C694 C693 1.524 . S
C694 C695 1.415 . S
C695 H665 0.950 . S
C695 C690 1.363 . S
C695 C694 1.415 . S
H696 C693 0.999 . S
H697 C678 0.913 . S
H698 C716 0.951 . S
H699 C718 0.951 . S
H700 C720 0.950 . S
H701 C721 0.950 . S
H702 C723 0.950 . S
H703 C726 0.950 . S
H704 C727 0.950 . S
H705 C729 0.950 . S
H706 C730 0.950 . S
H707 C731 0.951 . S
H708 C733 0.951 . S
H709 C735 0.950 . S
H710 C736 0.950 . S
H711 C738 0.950 . S
H712 C741 0.950 . S
H713 C742 0.950 . S
H714 C744 0.950 . S
H715 C745 0.950 . S
C716 H698 0.951 . S
C716 C717 1.366 . S
C716 C718 1.388 . S
C717 C716 1.366 . S
C717 C721 1.385 . S
C718 H699 0.951 . S
C718 C716 1.388 . S
C718 C719 1.366 . S
C719 C718 1.366 . S
C719 C720 1.414 . S
C719 C722 1.499 . S
C720 H700 0.950 . S
C720 C719 1.414 . S
C720 C721 1.374 . S
C721 H701 0.950 . S
C721 C717 1.385 . S
C721 C720 1.374 . S
C722 C719 1.499 . S
C722 C723 1.373 . S
C722 C724 1.389 . S
C723 H702 0.950 . S
C723 C722 1.373 . S
C723 C739 1.377 . S
C724 C722 1.389 . S
C724 C725 1.524 . S
C724 C738 1.377 . S
C725 C724 1.524 . S
C725 C726 1.397 . S
C725 C730 1.363 . S
C726 H703 0.950 . S
C726 C725 1.397 . S
C726 C727 1.334 . S
C727 H704 0.950 . S
C727 C726 1.334 . S
C727 C728 1.287 . S
C728 C727 1.287 . S
C728 C729 1.524 . S
C728 H747 0.913 . S
C729 H705 0.950 . S
C729 C728 1.524 . S
C729 C730 1.415 . S
C730 H706 0.950 . S
C730 C725 1.363 . S
C730 C729 1.415 . S
C731 H707 0.951 . S
C731 C732 1.366 . S
C731 C733 1.388 . S
C732 C731 1.366 . S
C732 C736 1.385 . S
C733 H708 0.951 . S
C733 C731 1.388 . S
C733 C734 1.366 . S
C734 C733 1.366 . S
C734 C735 1.414 . S
C734 C737 1.499 . S
C735 H709 0.950 . S
C735 C734 1.414 . S
C735 C736 1.374 . S
C736 H710 0.950 . S
C736 C732 1.385 . S
C736 C735 1.374 . S
C737 C734 1.499 . S
C737 C738 1.373 . S
C737 C739 1.389 . S
C738 H711 0.950 . S
C738 C724 1.377 . S
C738 C737 1.373 . S
C739 C723 1.377 . S
C739 C737 1.389 . S
C739 C740 1.524 . S
C740 C739 1.524 . S
C740 C741 1.397 . S
C740 C745 1.363 . S
C741 H712 0.950 . S
C741 C740 1.397 . S
C741 C742 1.334 . S
C742 H713 0.950 . S
C742 C741 1.334 . S
C742 C743 1.287 . S
C743 C742 1.287 . S
C743 C744 1.524 . S
C743 H746 0.999 . S
C744 H714 0.950 . S
C744 C743 1.524 . S
C744 C745 1.415 . S
C745 H715 0.950 . S
C745 C740 1.363 . S
C745 C744 1.415 . S
H746 C743 0.999 . S
H747 C728 0.913 . S
H748 C766 0.951 . S
H749 C768 0.951 . S
H750 C770 0.950 . S
H751 C771 0.950 . S
H752 C773 0.950 . S
H753 C776 0.950 . S
H754 C777 0.950 . S
H755 C779 0.950 . S
H756 C780 0.950 . S
H757 C781 0.951 . S
H758 C783 0.951 . S
H759 C785 0.950 . S
H760 C786 0.950 . S
H761 C788 0.950 . S
H762 C791 0.950 . S
H763 C792 0.950 . S
H764 C794 0.950 . S
H765 C795 0.950 . S
C766 H748 0.951 . S
C766 C767 1.366 . S
C766 C768 1.388 . S
C767 C766 1.366 . S
C767 C771 1.385 . S
C768 H749 0.951 . S
C768 C766 1.388 . S
C768 C769 1.366 . S
C769 C768 1.366 . S
C769 C770 1.414 . S
C769 C772 1.499 . S
C770 H750 0.950 . S
C770 C769 1.414 . S
C770 C771 1.374 . S
C771 H751 0.950 . S
C771 C767 1.385 . S
C771 C770 1.374 . S
C772 C769 1.499 . S
C772 C773 1.373 . S
C772 C774 1.389 . S
C773 H752 0.950 . S
C773 C772 1.373 . S
C773 C789 1.377 . S
C774 C772 1.389 . S
C774 C775 1.524 . S
C774 C788 1.377 . S
C775 C774 1.524 . S
C775 C776 1.397 . S
C775 C780 1.363 . S
C776 H753 0.950 . S
C776 C775 1.397 . S
C776 C777 1.334 . S
C777 H754 0.950 . S
C777 C776 1.334 . S
C777 C778 1.287 . S
C778 C777 1.287 . S
C778 C779 1.524 . S
C778 H797 0.913 . S
C779 H755 0.950 . S
C779 C778 1.524 . S
C779 C780 1.415 . S
C780 H756 0.950 . S
C780 C775 1.363 . S
C780 C779 1.415 . S
C781 H757 0.951 . S
C781 C782 1.366 . S
C781 C783 1.388 . S
C782 C781 1.366 . S
C782 C786 1.385 . S
C783 H758 0.951 . S
C783 C781 1.388 . S
C783 C784 1.366 . S
C784 C783 1.366 . S
C784 C785 1.414 . S
C784 C787 1.499 . S
C785 H759 0.950 . S
C785 C784 1.414 . S
C785 C786 1.374 . S
C786 H760 0.950 . S
C786 C782 1.385 . S
C786 C785 1.374 . S
C787 C784 1.499 . S
C787 C788 1.373 . S
C787 C789 1.389 . S
C788 H761 0.950 . S
C788 C774 1.377 . S
C788 C787 1.373 . S
C789 C773 1.377 . S
C789 C787 1.389 . S
C789 C790 1.524 . S
C790 C789 1.524 . S
C790 C791 1.397 . S
C790 C795 1.363 . S
C791 H762 0.950 . S
C791 C790 1.397 . S
C791 C792 1.334 . S
C792 H763 0.950 . S
C792 C791 1.334 . S
C792 C793 1.287 . S
C793 C792 1.287 . S
C793 C794 1.524 . S
C793 H796 0.999 1_545 S
C794 H764 0.950 . S
C794 C793 1.524 . S
C794 C795 1.415 . S
C795 H765 0.950 . S
C795 C790 1.363 . S
C795 C794 1.415 . S
H796 C793 0.999 1_565 S
H797 C778 0.913 . S
C232 C163 1.410 . S
C217 C21 1.515 . S
C282 C159 1.418 . S
C267 C60 1.515 . S
C332 C184 1.411 . S
C317 C99 1.516 . S
C367 C138 1.515 . S
C382 C180 1.418 . S
C417 C1 1.087 . S
C432 C181 0.981 . S
C482 C196 1.004 . S
C467 C40 1.112 . S
C517 C16 1.733 . S
C532 C197 1.598 . S
C582 C193 1.616 . S
C567 C55 1.745 . S
C632 C160 0.983 . S
C617 C79 1.088 . S
C667 C118 1.112 . S
C682 C175 1.003 . S
C732 C176 1.598 . S
C717 C94 1.733 . S
C782 C172 1.615 . S
C767 C133 1.744 . S
