# Generated by pormake.
# Topology wbl, (4,4)-cn, num edge types: 1
# Building blocks:
#     Node 0, Type 0, BuildingBlock: NAWXER_clean_linker_0, # of connection points: 4
#     Node 1, Type 0, BuildingBlock: NAWXER_clean_linker_0, # of connection points: 4
#     Node 2, Type 0, BuildingBlock: NAWXER_clean_linker_0, # of connection points: 4
#     Node 3, Type 0, BuildingBlock: NAWXER_clean_linker_0, # of connection points: 4
#     Node 4, Type 0, BuildingBlock: NAWXER_clean_linker_0, # of connection points: 4
#     Node 5, Type 0, BuildingBlock: NAWXER_clean_linker_0, # of connection points: 4
#     Node 6, Type 0, BuildingBlock: NAWXER_clean_linker_0, # of connection points: 4
#     Node 7, Type 0, BuildingBlock: NAWXER_clean_linker_0, # of connection points: 4
#     Node 8, Type 1, BuildingBlock: QUQFOY_clean_sbu_1, # of connection points: 4
#     Node 9, Type 1, BuildingBlock: QUQFOY_clean_sbu_1, # of connection points: 4
#     Node 10, Type 1, BuildingBlock: QUQFOY_clean_sbu_1, # of connection points: 4
#     Node 11, Type 1, BuildingBlock: QUQFOY_clean_sbu_1, # of connection points: 4
#     Node 12, Type 1, BuildingBlock: QUQFOY_clean_sbu_1, # of connection points: 4
#     Node 13, Type 1, BuildingBlock: QUQFOY_clean_sbu_1, # of connection points: 4
#     Node 14, Type 1, BuildingBlock: QUQFOY_clean_sbu_1, # of connection points: 4
#     Node 15, Type 1, BuildingBlock: QUQFOY_clean_sbu_1, # of connection points: 4
#     Edge 16, Type (0, 1), BuildingBlock: OJICUG_clean_linker_0, # of connection points: 2
#     Edge 17, Type (0, 1), BuildingBlock: OJICUG_clean_linker_0, # of connection points: 2
#     Edge 18, Type (0, 1), BuildingBlock: OJICUG_clean_linker_0, # of connection points: 2
#     Edge 19, Type (0, 1), BuildingBlock: OJICUG_clean_linker_0, # of connection points: 2
#     Edge 20, Type (0, 1), BuildingBlock: OJICUG_clean_linker_0, # of connection points: 2
#     Edge 21, Type (0, 1), BuildingBlock: OJICUG_clean_linker_0, # of connection points: 2
#     Edge 22, Type (0, 1), BuildingBlock: OJICUG_clean_linker_0, # of connection points: 2
#     Edge 23, Type (0, 1), BuildingBlock: OJICUG_clean_linker_0, # of connection points: 2
#     Edge 24, Type (0, 1), BuildingBlock: OJICUG_clean_linker_0, # of connection points: 2
#     Edge 25, Type (0, 1), BuildingBlock: OJICUG_clean_linker_0, # of connection points: 2
#     Edge 26, Type (0, 1), BuildingBlock: OJICUG_clean_linker_0, # of connection points: 2
#     Edge 27, Type (0, 1), BuildingBlock: OJICUG_clean_linker_0, # of connection points: 2
#     Edge 28, Type (0, 1), BuildingBlock: OJICUG_clean_linker_0, # of connection points: 2
#     Edge 29, Type (0, 1), BuildingBlock: OJICUG_clean_linker_0, # of connection points: 2
#     Edge 30, Type (0, 1), BuildingBlock: OJICUG_clean_linker_0, # of connection points: 2
#     Edge 31, Type (0, 1), BuildingBlock: OJICUG_clean_linker_0, # of connection points: 2
#     Edge 32, Type (0, 1), BuildingBlock: OJICUG_clean_linker_0, # of connection points: 2
#     Edge 33, Type (0, 1), BuildingBlock: OJICUG_clean_linker_0, # of connection points: 2
#     Edge 34, Type (0, 1), BuildingBlock: OJICUG_clean_linker_0, # of connection points: 2
#     Edge 35, Type (0, 1), BuildingBlock: OJICUG_clean_linker_0, # of connection points: 2
#     Edge 36, Type (0, 1), BuildingBlock: OJICUG_clean_linker_0, # of connection points: 2
#     Edge 37, Type (0, 1), BuildingBlock: OJICUG_clean_linker_0, # of connection points: 2
#     Edge 38, Type (0, 1), BuildingBlock: OJICUG_clean_linker_0, # of connection points: 2
#     Edge 39, Type (0, 1), BuildingBlock: OJICUG_clean_linker_0, # of connection points: 2
#     Edge 40, Type (0, 1), BuildingBlock: OJICUG_clean_linker_0, # of connection points: 2
#     Edge 41, Type (0, 1), BuildingBlock: OJICUG_clean_linker_0, # of connection points: 2
#     Edge 42, Type (0, 1), BuildingBlock: OJICUG_clean_linker_0, # of connection points: 2
#     Edge 43, Type (0, 1), BuildingBlock: OJICUG_clean_linker_0, # of connection points: 2
#     Edge 44, Type (0, 1), BuildingBlock: OJICUG_clean_linker_0, # of connection points: 2
#     Edge 45, Type (0, 1), BuildingBlock: OJICUG_clean_linker_0, # of connection points: 2
#     Edge 46, Type (0, 1), BuildingBlock: OJICUG_clean_linker_0, # of connection points: 2
#     Edge 47, Type (0, 1), BuildingBlock: OJICUG_clean_linker_0, # of connection points: 2
# Relax obj value: 0.183
# Max RMSD: 0.218
# Mean RMSD: 0.163
data_MOF--net-wbl--node1-QUQFOY_clean_sbu_1--node2-NAWXER_clean_linker_0--edge1-OJICUG_clean_linker_0
_symmetry_space_group_name_H-M    P1
_symmetry_Int_Tables_number       1
_symmetry_cell_setting            triclinic
loop_
_symmetry_equiv_pos_as_xyz
'x, y, z'
_cell_length_a     34.852009
_cell_length_b     34.87281
_cell_length_c     61.996868
_cell_angle_alpha  93.471765
_cell_angle_beta   93.442378
_cell_angle_gamma 90.252844
loop_
_atom_site_label
_atom_site_type_symbol
_atom_site_fract_x
_atom_site_fract_y
_atom_site_fract_z
_atom_type_partial_charge
C0 C 0.21107 0.0122 0.40793 0.0
C1 C 0.23426 0.03046 0.4249 0.0
C2 C 0.19442 0.0334 0.39143 0.0
C3 C 0.20093 0.07321 0.39146 0.0
C4 C 0.2424 0.0699 0.42422 0.0
C5 C 0.22567 0.09108 0.40776 0.0
C6 C 0.177 0.09711 0.3771 0.0
C7 C 0.25141 0.02871 0.33346 0.0
C8 C 0.23158 0.99886 0.32118 0.0
C9 C 0.23129 0.05791 0.34418 0.0
C10 C 0.19094 0.058 0.3427 0.0
C11 C 0.19119 -0.00063 0.31936 0.0
C12 C 0.17104 0.02899 0.32982 0.0
C13 C 0.16959 0.08811 0.35473 0.0
C14 C 0.05683 0.21245 0.32943 0.0
C15 C 0.02779 0.1892 0.31853 0.0
C16 C 0.08826 0.19581 0.34037 0.0
C17 C 0.09114 0.15567 0.34061 0.0
C18 C 0.03164 0.14899 0.31834 0.0
C19 C 0.06313 0.13248 0.32906 0.0
C20 C 0.122 0.13719 0.35358 0.0
C21 C 0.04732 0.19495 0.40362 0.0
C22 C 0.06724 0.21755 0.4202 0.0
C23 C 0.06747 0.17327 0.38836 0.0
C24 C 0.10789 0.17475 0.38904 0.0
C25 C 0.10747 0.22011 0.42043 0.0
C26 C 0.12756 0.19902 0.40497 0.0
C27 C 0.13012 0.14679 0.37588 0.0
H28 H 0.20381 0.98199 0.4081 0.0
H29 H 0.1745 0.01905 0.37947 0.0
H30 H 0.26065 0.08471 0.43685 0.0
H31 H 0.23087 0.12179 0.40823 0.0
H32 H 0.28252 0.02886 0.3353 0.0
H33 H 0.24726 0.08031 0.35378 0.0
H34 H 0.17523 0.97677 0.30993 0.0
H35 H 0.13991 0.02865 0.32838 0.0
H36 H 0.05515 0.24347 0.32965 0.0
H37 H 0.10997 0.21425 0.34893 0.0
H38 H 0.00961 0.13 0.31058 0.0
H39 H 0.06472 0.10145 0.32909 0.0
H40 H 0.01634 0.19189 0.40339 0.0
H41 H 0.05146 0.15366 0.37694 0.0
H42 H 0.12345 0.2372 0.43315 0.0
H43 H 0.1587 0.20031 0.40604 0.0
N44 N 0.15731 0.1263 0.38666 0.0
N45 N 0.14206 0.1082 0.34385 0.0
C46 C 0.95085 0.57535 0.65941 0.0
C47 C 0.95418 0.53541 0.6556 0.0
C48 C 0.97185 0.60047 0.6478 0.0
C49 C 0.99598 0.58616 0.63192 0.0
C50 C 0.97731 0.52116 0.63913 0.0
C51 C 0.99807 0.54631 0.62742 0.0
C52 C 0.02236 0.61266 0.62221 0.0
C53 C 0.99766 0.53371 0.55955 0.0
C54 C 0.95752 0.53149 0.56099 0.0
C55 C 0.01903 0.56333 0.57078 0.0
C56 C 0.00083 0.59084 0.58393 0.0
C57 C 0.93909 0.56147 0.5725 0.0
C58 C 0.96061 0.59072 0.58403 0.0
C59 C 0.02436 0.61565 0.59972 0.0
C60 C 0.16867 0.71065 0.59362 0.0
C61 C 0.15447 0.73894 0.58007 0.0
C62 C 0.14352 0.68464 0.60195 0.0
C63 C 0.10373 0.68659 0.59693 0.0
C64 C 0.11477 0.73981 0.57448 0.0
C65 C 0.08974 0.71377 0.58273 0.0
C66 C 0.07627 0.66062 0.60627 0.0
C67 C 0.13182 0.73118 0.66486 0.0
C68 C 0.14922 0.70784 0.68036 0.0
C69 C 0.10838 0.71482 0.64753 0.0
C70 C 0.10245 0.67488 0.64535 0.0
C71 C 0.14391 0.66786 0.67773 0.0
C72 C 0.12067 0.65163 0.66049 0.0
C73 C 0.07486 0.65668 0.62877 0.0
H74 H 0.93366 0.58714 0.67217 0.0
H75 H 0.9702 0.63111 0.65168 0.0
H76 H 0.98035 0.4905 0.63583 0.0
H77 H 0.01713 0.53454 0.61558 0.0
H78 H 0.01309 0.51114 0.5511 0.0
H79 H 0.05009 0.56294 0.57056 0.0
H80 H 0.90819 0.56137 0.57351 0.0
H81 H 0.94604 0.61207 0.59392 0.0
H82 H 0.19908 0.70925 0.59823 0.0
H83 H 0.15511 0.66327 0.61246 0.0
H84 H 0.10301 0.7608 0.56378 0.0
H85 H 0.05923 0.71547 0.57841 0.0
H86 H 0.13517 0.76212 0.66659 0.0
H87 H 0.09399 0.73339 0.63627 0.0
H88 H 0.15744 0.64907 0.68917 0.0
H89 H 0.11649 0.62074 0.65912 0.0
N90 N 0.04779 0.6331 0.63579 0.0
N91 N 0.05106 0.63969 0.59254 0.0
C92 C 0.55321 0.42624 0.89967 0.0
C93 C 0.59319 0.42426 0.90372 0.0
C94 C 0.53764 0.45013 0.88421 0.0
C95 C 0.56173 0.47229 0.87245 0.0
C96 C 0.61734 0.44329 0.89037 0.0
C97 C 0.6017 0.46736 0.8749 0.0
C98 C 0.54554 0.5065 0.86244 0.0
C99 C 0.62945 0.48893 0.80343 0.0
C100 C 0.62451 0.44882 0.80064 0.0
C101 C 0.60499 0.51109 0.81604 0.0
C102 C 0.57537 0.49366 0.82637 0.0
C103 C 0.59334 0.43172 0.80997 0.0
C104 C 0.56897 0.45394 0.82269 0.0
C105 C 0.55236 0.51723 0.84139 0.0
C106 C 0.49189 0.68097 0.84649 0.0
C107 C 0.46786 0.67995 0.82747 0.0
C108 C 0.51118 0.64794 0.85257 0.0
C109 C 0.50547 0.61304 0.84017 0.0
C110 C 0.4653 0.64608 0.81398 0.0
C111 C 0.48393 0.61283 0.82031 0.0
C112 C 0.51934 0.57628 0.84838 0.0
C113 C 0.43857 0.625 0.89861 0.0
C114 C 0.45811 0.63263 0.91898 0.0
C115 C 0.45616 0.60353 0.88215 0.0
C116 C 0.49365 0.58975 0.8858 0.0
C117 C 0.49582 0.61917 0.92232 0.0
C118 C 0.51323 0.59776 0.90598 0.0
C119 C 0.51253 0.56525 0.86936 0.0
H120 H 0.53399 0.41162 0.90962 0.0
H121 H 0.50674 0.45366 0.88267 0.0
H122 H 0.64827 0.44253 0.89328 0.0
H123 H 0.62091 0.48474 0.86637 0.0
H124 H 0.65338 0.5031 0.79677 0.0
H125 H 0.61035 0.54171 0.81854 0.0
H126 H 0.58824 0.40104 0.80781 0.0
H127 H 0.54555 0.43999 0.82995 0.0
H128 H 0.49455 0.70691 0.85702 0.0
H129 H 0.52902 0.64924 0.86752 0.0
H130 H 0.44677 0.64459 0.79927 0.0
H131 H 0.4796 0.58641 0.81032 0.0
H132 H 0.40936 0.63468 0.89559 0.0
H133 H 0.44034 0.59715 0.86677 0.0
H134 H 0.51197 0.62514 0.93764 0.0
H135 H 0.54219 0.58742 0.90911 0.0
N136 N 0.52599 0.53098 0.87549 0.0
N137 N 0.53884 0.55173 0.83512 0.0
C138 C 0.51388 0.93574 0.08798 0.0
C139 C 0.47956 0.94627 0.07682 0.0
C140 C 0.5408 0.96349 0.09585 0.0
C141 C 0.53414 0.0024 0.0927 0.0
C142 C 0.4735 0.98526 0.07306 0.0
C143 C 0.50079 0.01313 0.08084 0.0
C144 C 0.562 0.03146 0.10223 0.0
C145 C 0.49785 0.98872 0.15762 0.0
C146 C 0.52122 0.97262 0.17399 0.0
C147 C 0.51432 0.00836 0.14136 0.0
C148 C 0.55451 0.01174 0.14094 0.0
C149 C 0.56135 0.97678 0.1737 0.0
C150 C 0.57771 0.99598 0.15739 0.0
C151 C 0.57304 0.03382 0.12456 0.0
C152 C 0.67742 0.16135 0.14718 0.0
C153 C 0.70728 0.14149 0.15788 0.0
C154 C 0.65114 0.14145 0.13254 0.0
C155 C 0.65462 0.10166 0.12852 0.0
C156 C 0.71254 0.10235 0.15214 0.0
C157 C 0.68612 0.08253 0.13782 0.0
C158 C 0.62243 0.0785 0.1183 0.0
C159 C 0.68801 0.12903 0.06792 0.0
C160 C 0.66594 0.14962 0.05279 0.0
C161 C 0.67054 0.10379 0.08103 0.0
C162 C 0.63036 0.09977 0.08021 0.0
C163 C 0.62603 0.14223 0.05042 0.0
C164 C 0.60845 0.1179 0.06411 0.0
C165 C 0.61094 0.0771 0.09601 0.0
H166 H 0.52013 0.90591 0.09056 0.0
H167 H 0.56683 0.95459 0.10455 0.0
H168 H 0.4474 0.9943 0.06452 0.0
H169 H 0.49538 0.04309 0.07817 0.0
H170 H 0.46686 0.98603 0.15729 0.0
H171 H 0.49556 0.02138 0.12936 0.0
H172 H 0.5803 0.96567 0.18628 0.0
H173 H 0.60874 0.99862 0.1577 0.0
H174 H 0.67259 0.19146 0.15139 0.0
H175 H 0.62666 0.15649 0.12565 0.0
H176 H 0.73567 0.08649 0.15984 0.0
H177 H 0.68911 0.05176 0.13488 0.0
H178 H 0.71872 0.13336 0.07049 0.0
H179 H 0.68869 0.08809 0.09212 0.0
H180 H 0.60797 0.15597 0.03841 0.0
H181 H 0.57749 0.1143 0.06255 0.0
N182 N 0.58094 0.05352 0.0888 0.0
N183 N 0.60304 0.05701 0.13158 0.0
C184 C 0.10378 0.70328 0.91123 0.0
C185 C 0.1205 0.68445 0.89343 0.0
C186 C 0.07753 0.68386 0.92307 0.0
C187 C 0.06777 0.64525 0.91735 0.0
C188 C 0.11034 0.64592 0.88777 0.0
C189 C 0.08437 0.62665 0.89955 0.0
C190 C 0.03851 0.6242 0.92853 0.0
C191 C 0.13729 0.64286 0.97747 0.0
C192 C 0.13096 0.67662 0.99024 0.0
C193 C 0.10696 0.62463 0.96517 0.0
C194 C 0.06978 0.63959 0.96567 0.0
C195 C 0.09344 0.69097 0.99122 0.0
C196 C 0.06287 0.6722 0.97921 0.0
C197 C 0.03881 0.62205 0.95118 0.0
C198 C 0.94409 0.50955 0.98444 0.0
C199 C 0.90476 0.50928 0.97787 0.0
C200 C 0.97 0.53251 0.97449 0.0
C201 C 0.95719 0.55532 0.95763 0.0
C202 C 0.89197 0.53265 0.9612 0.0
C203 C 0.91784 0.55561 0.9513 0.0
C204 C 0.98504 0.57904 0.947 0.0
C205 C 0.92762 0.54957 0.87304 0.0
C206 C 0.92885 0.50936 0.87339 0.0
C207 C 0.94384 0.57267 0.89039 0.0
C208 C 0.9613 0.5561 0.90851 0.0
C209 C 0.94461 0.49274 0.89201 0.0
C210 C 0.96095 0.51594 0.9094 0.0
C211 C 0.98537 0.58055 0.92427 0.0
H212 H 0.11095 0.73295 0.916 0.0
H213 H 0.06428 0.69929 0.93631 0.0
H214 H 0.12188 0.63072 0.87387 0.0
H215 H 0.07705 0.59704 0.89463 0.0
H216 H 0.16603 0.63155 0.9762 0.0
H217 H 0.11264 0.59939 0.95481 0.0
H218 H 0.08797 0.71703 1.00093 0.0
H219 H 0.03422 0.684 0.97974 0.0
H220 H 0.95481 0.49233 0.99743 0.0
H221 H 0.00018 0.53206 0.97979 0.0
H222 H 0.86193 0.53294 0.95561 0.0
H223 H 0.907 0.57365 0.93872 0.0
H224 H 0.91509 0.56319 0.85906 0.0
H225 H 0.94406 0.60357 0.88929 0.0
H226 H 0.94623 0.46182 0.89265 0.0
H227 H 0.97521 0.50242 0.92293 0.0
N228 N 0.01188 0.60322 0.91605 0.0
N229 N 0.01206 0.59972 0.95963 0.0
C230 C 0.43335 0.57867 0.15247 0.0
C231 C 0.4539 0.58888 0.13478 0.0
C232 C 0.44977 0.55421 0.1676 0.0
C233 C 0.48711 0.5399 0.16534 0.0
C234 C 0.4905 0.57316 0.13219 0.0
C235 C 0.50685 0.54912 0.14725 0.0
C236 C 0.50665 0.51517 0.18125 0.0
C237 C 0.48807 0.62832 0.21698 0.0
C238 C 0.45586 0.62614 0.22955 0.0
C239 C 0.5057 0.59507 0.20897 0.0
C240 C 0.49183 0.55888 0.21351 0.0
C241 C 0.44257 0.58965 0.23447 0.0
C242 C 0.46063 0.55627 0.22661 0.0
C243 C 0.50939 0.52408 0.20382 0.0
C244 C 0.63691 0.45561 0.24889 0.0
C245 C 0.63919 0.4153 0.24743 0.0
C246 C 0.60805 0.47432 0.23696 0.0
C247 C 0.58145 0.45308 0.22306 0.0
C248 C 0.61119 0.39408 0.2344 0.0
C249 C 0.58266 0.4128 0.2223 0.0
C250 C 0.55423 0.47315 0.20842 0.0
C251 C 0.58492 0.39453 0.14296 0.0
C252 C 0.62362 0.40581 0.14226 0.0
C253 C 0.56208 0.41094 0.15874 0.0
C254 C 0.57766 0.43824 0.17439 0.0
C255 C 0.64004 0.43049 0.15915 0.0
C256 C 0.61719 0.44664 0.17509 0.0
C257 C 0.55149 0.46441 0.18586 0.0
H258 H 0.40499 0.59015 0.15484 0.0
H259 H 0.43333 0.54661 0.18099 0.0
H260 H 0.50675 0.57955 0.11847 0.0
H261 H 0.53549 0.53825 0.14492 0.0
H262 H 0.49997 0.65578 0.2134 0.0
H263 H 0.53008 0.59757 0.19907 0.0
H264 H 0.41781 0.58682 0.24401 0.0
H265 H 0.44961 0.52844 0.23024 0.0
H266 H 0.65795 0.47267 0.2589 0.0
H267 H 0.60758 0.50543 0.23784 0.0
H268 H 0.61238 0.36302 0.23278 0.0
H269 H 0.56214 0.3958 0.2119 0.0
H270 H 0.57162 0.37492 0.13046 0.0
H271 H 0.5316 0.40429 0.15783 0.0
H272 H 0.66967 0.43992 0.15904 0.0
H273 H 0.62967 0.46827 0.18675 0.0
N274 N 0.52779 0.48563 0.17329 0.0
N275 N 0.53308 0.50281 0.21662 0.0
C276 C 0.57912 0.91711 0.39986 0.0
C277 C 0.53904 0.92101 0.39717 0.0
C278 C 0.60049 0.9412 0.41486 0.0
C279 C 0.58222 0.96926 0.42767 0.0
C280 C 0.52047 0.94721 0.41114 0.0
C281 C 0.54195 0.97129 0.42626 0.0
C282 C 0.60575 0.00042 0.43895 0.0
C283 C 0.52315 0.99784 0.49784 0.0
C284 C 0.52232 0.95759 0.49889 0.0
C285 C 0.55079 0.01561 0.4863 0.0
C286 C 0.57777 0.99354 0.47527 0.0
C287 C 0.551 0.93585 0.48886 0.0
C288 C 0.57834 0.95363 0.47711 0.0
C289 C 0.60383 0.01224 0.46104 0.0
C290 C 0.69572 0.14288 0.49337 0.0
C291 C 0.73441 0.14098 0.48803 0.0
C292 C 0.66844 0.1168 0.4834 0.0
C293 C 0.67935 0.0887 0.46782 0.0
C294 C 0.7451 0.11245 0.47259 0.0
C295 C 0.71809 0.08635 0.46289 0.0
C296 C 0.65102 0.06083 0.45713 0.0
C297 C 0.71147 0.0718 0.3885 0.0
C298 C 0.70414 0.11105 0.38601 0.0
C299 C 0.69488 0.05249 0.40472 0.0
C300 C 0.67158 0.07214 0.41926 0.0
C301 C 0.6814 0.13087 0.40099 0.0
C302 C 0.66543 0.11161 0.41753 0.0
C303 C 0.65083 0.05044 0.43476 0.0
H304 H 0.59416 0.89674 0.38959 0.0
H305 H 0.63157 0.93931 0.41566 0.0
H306 H 0.48965 0.95109 0.40933 0.0
H307 H 0.52732 0.99326 0.43569 0.0
H308 H 0.50137 0.0156 0.50507 0.0
H309 H 0.54994 0.04648 0.48513 0.0
H310 H 0.5519 0.90494 0.4897 0.0
H311 H 0.59948 0.93612 0.4691 0.0
H312 H 0.68662 0.16417 0.50541 0.0
H313 H 0.63882 0.11878 0.48771 0.0
H314 H 0.77442 0.11031 0.46781 0.0
H315 H 0.7277 0.06411 0.45155 0.0
H316 H 0.72971 0.05571 0.37775 0.0
H317 H 0.70003 0.02202 0.40581 0.0
H318 H 0.67467 0.1609 0.39952 0.0
H319 H 0.64699 0.12719 0.4284 0.0
N320 N 0.6288 0.02027 0.42667 0.0
N321 N 0.62688 0.04186 0.46944 0.0
C322 C 0.24232 0.10648 0.66177 0.0
C323 C 0.24306 0.0663 0.65854 0.0
C324 C 0.21826 0.12395 0.67661 0.0
C325 C 0.19452 0.10161 0.6885 0.0
C326 C 0.22214 0.04388 0.67192 0.0
C327 C 0.19778 0.06139 0.68666 0.0
C328 C 0.1609 0.1199 0.69831 0.0
C329 C 0.17038 0.03038 0.75465 0.0
C330 C 0.21052 0.03384 0.75827 0.0
C331 C 0.14984 0.05682 0.74257 0.0
C332 C 0.16903 0.08695 0.73366 0.0
C333 C 0.22927 0.06566 0.7506 0.0
C334 C 0.20869 0.09202 0.73843 0.0
C335 C 0.14759 0.11163 0.71863 0.0
C336 C 0.98434 0.17016 0.70798 0.0
C337 C 0.98147 0.19252 0.7274 0.0
C338 C 0.01909 0.15278 0.7032 0.0
C339 C 0.05183 0.15871 0.71742 0.0
C340 C 0.01315 0.19515 0.74256 0.0
C341 C 0.04813 0.17837 0.73759 0.0
C342 C 0.0903 0.1469 0.71078 0.0
C343 C 0.04541 0.23429 0.66428 0.0
C344 C 0.0429 0.21957 0.64261 0.0
C345 C 0.06571 0.2143 0.6802 0.0
C346 C 0.08286 0.17886 0.67473 0.0
C347 C 0.06049 0.18441 0.63724 0.0
C348 C 0.08028 0.16437 0.65309 0.0
C349 C 0.10455 0.15661 0.69094 0.0
H350 H 0.25828 0.1244 0.65172 0.0
H351 H 0.21608 0.15499 0.67762 0.0
H352 H 0.22179 0.01285 0.66956 0.0
H353 H 0.17909 0.04336 0.69511 0.0
H354 H 0.155 0.00606 0.76009 0.0
H355 H 0.1192 0.0525 0.73923 0.0
H356 H 0.26004 0.06959 0.75346 0.0
H357 H 0.22394 0.11575 0.73225 0.0
H358 H 0.96016 0.16747 0.69615 0.0
H359 H 0.02092 0.13648 0.68787 0.0
H360 H 0.01166 0.2124 0.75762 0.0
H361 H 0.07286 0.18276 0.74893 0.0
H362 H 0.0323 0.26147 0.6688 0.0
H363 H 0.06808 0.22653 0.69671 0.0
H364 H 0.05856 0.17208 0.62074 0.0
H365 H 0.09327 0.13717 0.64844 0.0
N366 N 0.13898 0.14235 0.68549 0.0
N367 N 0.11263 0.12527 0.72405 0.0
O368 O 0.36663 0.74321 0.98733 0.0
Cd369 Cd 0.33746 0.77037 0.0115 0.0
Cd370 Cd 0.38502 0.72909 0.03999 0.0
O371 O 0.39823 0.70594 0.00968 0.0
O372 O 0.28347 0.77833 0.00111 0.0
O373 O 0.30121 0.7373 0.02586 0.0
C374 C 0.27432 0.75191 0.01367 0.0
C375 C 0.40064 0.68897 0.06836 0.0
C376 C 0.38955 0.71567 0.99055 0.0
C377 C 0.38587 0.81803 0.04265 0.0
O378 O 0.39719 0.78602 0.04936 0.0
O379 O 0.36103 0.81924 0.02691 0.0
O380 O 0.4264 0.70584 0.05829 0.0
O381 O 0.36515 0.69406 0.06211 0.0
O382 O 0.41927 0.8426 0.3221 0.0
Cd383 Cd 0.38016 0.83156 0.29645 0.0
Cd384 Cd 0.43864 0.85528 0.27126 0.0
O385 O 0.4622 0.86836 0.3024 0.0
O386 O 0.32802 0.84364 0.30618 0.0
O387 O 0.3585 0.87866 0.28371 0.0
C388 C 0.32932 0.87404 0.29529 0.0
C389 C 0.46067 0.89222 0.24397 0.0
C390 C 0.45108 0.85989 0.32074 0.0
C391 C 0.40699 0.77254 0.26507 0.0
O392 O 0.4299 0.79874 0.26034 0.0
O393 O 0.38288 0.77903 0.2794 0.0
O394 O 0.48215 0.86762 0.2534 0.0
O395 O 0.42646 0.89712 0.2505 0.0
O396 O 0.28714 0.91318 0.49949 0.0
Cd397 Cd 0.31448 0.88797 0.52536 0.0
Cd398 Cd 0.2758 0.94007 0.54917 0.0
O399 O 0.27364 0.96483 0.51966 0.0
O400 O 0.36387 0.86852 0.51482 0.0
O401 O 0.35982 0.91789 0.53886 0.0
C402 C 0.38051 0.89675 0.52628 0.0
C403 C 0.27762 0.98232 0.58 0.0
C404 C 0.27596 0.94778 0.50109 0.0
C405 C 0.25417 0.8558 0.55019 0.0
O406 O 0.2443 0.89075 0.55288 0.0
O407 O 0.28498 0.84731 0.54105 0.0
O408 O 0.24794 0.97929 0.56665 0.0
O409 O 0.30727 0.96179 0.57578 0.0
O410 O 0.26234 0.79728 0.75473 0.0
Cd411 Cd 0.29243 0.82727 0.77968 0.0
Cd412 Cd 0.25433 0.77384 0.80595 0.0
O413 O 0.22967 0.76055 0.77503 0.0
O414 O 0.30456 0.87761 0.76845 0.0
O415 O 0.26482 0.87057 0.79458 0.0
C416 C 0.28045 0.89262 0.78147 0.0
C417 C 0.21734 0.75291 0.83361 0.0
C418 C 0.2368 0.77184 0.75653 0.0
C419 C 0.34322 0.7788 0.80612 0.0
O420 O 0.3124 0.7658 0.813 0.0
O421 O 0.34232 0.8039 0.79213 0.0
O422 O 0.23544 0.72946 0.82116 0.0
O423 O 0.2195 0.78901 0.8303 0.0
O424 O 0.9218 0.29227 0.57203 0.0
Cd425 Cd 0.89103 0.31337 0.54589 0.0
Cd426 Cd 0.93922 0.26939 0.52215 0.0
O427 O 0.96873 0.27259 0.552 0.0
O428 O 0.87293 0.36515 0.55527 0.0
O429 O 0.91653 0.35484 0.53093 0.0
C430 C 0.89735 0.37881 0.54278 0.0
C431 C 0.97859 0.26177 0.49282 0.0
C432 C 0.95556 0.27927 0.5705 0.0
C433 C 0.85426 0.24757 0.52138 0.0
O434 O 0.88863 0.2378 0.51807 0.0
O435 O 0.84735 0.27994 0.5308 0.0
O436 O 0.97511 0.23546 0.50622 0.0
O437 O 0.95957 0.29309 0.49587 0.0
O438 O 0.85506 0.38909 0.79764 0.0
Cd439 Cd 0.82468 0.3603 0.7724 0.0
Cd440 Cd 0.87702 0.40122 0.74687 0.0
O441 O 0.888 0.42649 0.77785 0.0
O442 O 0.77472 0.34762 0.78404 0.0
O443 O 0.78094 0.38899 0.75866 0.0
C444 C 0.75943 0.37296 0.77191 0.0
C445 C 0.89551 0.43935 0.71914 0.0
C446 C 0.87811 0.41694 0.79622 0.0
C447 C 0.87521 0.31204 0.74596 0.0
O448 O 0.88826 0.34364 0.74012 0.0
O449 O 0.84849 0.31143 0.75898 0.0
O450 O 0.9202 0.423 0.7317 0.0
O451 O 0.85961 0.43473 0.72239 0.0
O452 O 0.73971 0.3705 0.06402 0.0
Cd453 Cd 0.76076 0.34792 0.03556 0.0
Cd454 Cd 0.70956 0.39138 0.01626 0.0
O455 O 0.68645 0.38618 0.04588 0.0
O456 O 0.77227 0.29239 0.03837 0.0
O457 O 0.72151 0.31396 0.0195 0.0
C458 C 0.73977 0.28551 0.0276 0.0
C459 C 0.66894 0.3902 0.98487 0.0
C460 C 0.70476 0.38082 0.06381 0.0
C461 C 0.79234 0.41271 0.01405 0.0
O462 O 0.75797 0.42468 0.01419 0.0
O463 O 0.80025 0.37914 0.01987 0.0
O464 O 0.66892 0.4184 0.99928 0.0
O465 O 0.6912 0.36156 0.98854 0.0
O466 O 0.79956 0.24171 0.23783 0.0
Cd467 Cd 0.81196 0.27369 0.26659 0.0
Cd468 Cd 0.7963 0.20807 0.28468 0.0
O469 O 0.77078 0.19646 0.25435 0.0
O470 O 0.7987 0.3277 0.26108 0.0
O471 O 0.76499 0.29115 0.28126 0.0
C472 C 0.76851 0.32293 0.27177 0.0
C473 C 0.7662 0.18298 0.31359 0.0
C474 C 0.77877 0.21159 0.23702 0.0
C475 C 0.87819 0.23631 0.28748 0.0
O476 O 0.8553 0.20791 0.28755 0.0
O477 O 0.86606 0.26891 0.28211 0.0
O478 O 0.78239 0.16121 0.29938 0.0
O479 O 0.76665 0.21956 0.31142 0.0
C480 C 0.2433 0.92831 0.3152 0.0
C481 C 0.25322 0.96631 0.31143 0.0
H482 H 0.2596 0.86912 0.31294 0.0
C483 C 0.28585 0.97306 0.29991 0.0
H484 H 0.2184 0.9223 0.32413 0.0
C485 C 0.30919 0.94259 0.29324 0.0
C486 C 0.30068 0.90484 0.29829 0.0
H487 H 0.29394 0.00207 0.29663 0.0
H488 H 0.33503 0.94892 0.2852 0.0
C489 C 0.26694 0.89789 0.30883 0.0
C490 C 0.2164 0.7585 0.56453 0.0
C491 C 0.18049 0.76844 0.57238 0.0
H492 H 0.26783 0.77815 0.55113 0.0
C493 C 0.16937 0.80713 0.57296 0.0
H494 H 0.22567 0.72887 0.56378 0.0
C495 C 0.19337 0.83522 0.5658 0.0
C496 C 0.22916 0.82541 0.55776 0.0
H497 H 0.14218 0.81585 0.57923 0.0
H498 H 0.18371 0.86472 0.56656 0.0
C499 C 0.24044 0.78669 0.55719 0.0
C500 C 0.4376 0.72722 0.80285 0.0
C501 C 0.44114 0.71176 0.82326 0.0
H502 H 0.40403 0.76209 0.7816 0.0
C503 C 0.41528 0.72301 0.83891 0.0
H504 H 0.45722 0.71879 0.79054 0.0
C505 C 0.38459 0.74698 0.83371 0.0
C506 C 0.37976 0.7608 0.81293 0.0
H507 H 0.41722 0.71115 0.8547 0.0
H508 H 0.36363 0.75331 0.84562 0.0
C509 C 0.40737 0.75205 0.79781 0.0
C510 C 0.44447 0.88494 0.08172 0.0
C511 C 0.45085 0.91618 0.06904 0.0
H512 H 0.4188 0.82951 0.08329 0.0
C513 C 0.43157 0.91692 0.04847 0.0
H514 H 0.4579 0.88397 0.09789 0.0
C515 C 0.40833 0.88591 0.04027 0.0
C516 C 0.4044 0.85355 0.05242 0.0
H517 H 0.43592 0.94051 0.03827 0.0
H518 H 0.39526 0.88636 0.02399 0.0
C519 C 0.42182 0.85384 0.07343 0.0
C520 C 0.16981 0.73694 0.99574 0.0
C521 C 0.16428 0.69854 1.0005 0.0
H522 H 0.20931 0.78418 0.99631 0.0
C523 C 0.19325 0.6799 0.01253 0.0
H524 H 0.14797 0.75182 0.98636 0.0
C525 C 0.22822 0.69852 0.01844 0.0
C526 C 0.23496 0.73581 0.01204 0.0
H527 H 0.18949 0.65032 0.01645 0.0
H528 H 0.2508 0.68275 0.02669 0.0
C529 C 0.20497 0.75535 0.00134 0.0
C530 C 0.43521 0.69416 0.22495 0.0
C531 C 0.43706 0.66206 0.23766 0.0
H532 H 0.42407 0.75429 0.22374 0.0
C533 C 0.4232 0.66563 0.25857 0.0
H534 H 0.44433 0.69227 0.20853 0.0
C535 C 0.41031 0.70114 0.26703 0.0
C536 C 0.41163 0.7337 0.25484 0.0
H537 H 0.42426 0.64162 0.26887 0.0
H538 H 0.40186 0.70366 0.28359 0.0
C539 C 0.42314 0.72964 0.23354 0.0
C540 C 0.47376 0.90404 0.49878 0.0
C541 C 0.48973 0.93836 0.50863 0.0
H542 H 0.42734 0.86355 0.49695 0.0
C543 C 0.47203 0.95571 0.52655 0.0
H544 H 0.48615 0.88995 0.48482 0.0
C545 C 0.43774 0.94071 0.53336 0.0
C546 C 0.42056 0.90786 0.52251 0.0
H547 H 0.48394 0.98166 0.53487 0.0
H548 H 0.42381 0.95591 0.54645 0.0
C549 C 0.43975 0.8889 0.5057 0.0
C550 C 0.2185 0.98119 0.78423 0.0
C551 C 0.23288 0.00201 0.76767 0.0
H552 H 0.22268 0.93031 0.8019 0.0
C553 C 0.26661 0.98928 0.75825 0.0
H554 H 0.19297 0.99062 0.79209 0.0
C555 C 0.2838 0.95503 0.76401 0.0
C556 C 0.26758 0.93262 0.77926 0.0
H557 H 0.27837 0.00434 0.74534 0.0
H558 H 0.30849 0.94504 0.75553 0.0
C559 C 0.2357 0.9468 0.78997 0.0
C560 C 0.66678 0.39086 0.79908 0.0
C561 C 0.65413 0.42492 0.79002 0.0
H562 H 0.70956 0.34725 0.80013 0.0
C563 C 0.67307 0.43801 0.7724 0.0
H564 H 0.65314 0.38001 0.81274 0.0
C565 C 0.70585 0.41932 0.76526 0.0
C566 C 0.72024 0.38711 0.77556 0.0
H567 H 0.66357 0.46369 0.76473 0.0
H568 H 0.7211 0.43143 0.75252 0.0
C569 C 0.69937 0.37212 0.79189 0.0
C570 C 0.72361 0.18137 0.03795 0.0
C571 C 0.68392 0.18121 0.04138 0.0
H572 H 0.77277 0.21482 0.03104 0.0
C573 C 0.66243 0.21387 0.03613 0.0
H574 H 0.74115 0.15647 0.04084 0.0
C575 C 0.68045 0.24653 0.02941 0.0
C576 C 0.72053 0.24788 0.02836 0.0
H577 H 0.63205 0.21564 0.03866 0.0
H578 H 0.66327 0.27188 0.0269 0.0
C579 C 0.74182 0.21462 0.03195 0.0
C580 C 0.97396 0.18782 0.28972 0.0
C581 C 0.99245 0.20615 0.30838 0.0
H582 H 0.92297 0.18314 0.26867 0.0
C583 C 0.97486 0.23846 0.31828 0.0
H584 H 0.98704 0.16366 0.28123 0.0
C585 C 0.93852 0.25042 0.31051 0.0
C586 C 0.91912 0.22989 0.29299 0.0
H587 H 0.98804 0.25315 0.33276 0.0
H588 H 0.9246 0.27401 0.31905 0.0
C589 C 0.93746 0.19918 0.28234 0.0
C590 C 0.90761 0.4811 0.5657 0.0
C591 C 0.93623 0.49559 0.55325 0.0
H592 H 0.87236 0.43325 0.57185 0.0
C593 C 0.94751 0.47299 0.53514 0.0
H594 H 0.89841 0.49719 0.57993 0.0
C595 C 0.93304 0.43563 0.53079 0.0
C596 C 0.90658 0.42036 0.54426 0.0
H597 H 0.96878 0.48348 0.52486 0.0
H598 H 0.94392 0.41817 0.51749 0.0
C599 C 0.89278 0.44409 0.56115 0.0
C600 C 0.75572 0.20743 0.50241 0.0
C601 C 0.76397 0.16827 0.49833 0.0
H602 H 0.77788 0.26343 0.513 0.0
C603 C 0.80152 0.15544 0.50319 0.0
H604 H 0.72719 0.21834 0.49873 0.0
C605 C 0.8305 0.18126 0.51086 0.0
C606 C 0.82261 0.22051 0.51429 0.0
H607 H 0.80873 0.12536 0.50088 0.0
H608 H 0.85923 0.17038 0.51405 0.0
C609 C 0.78477 0.2333 0.51045 0.0
C610 C 0.93789 0.24394 0.71488 0.0
C611 C 0.94799 0.21767 0.73051 0.0
H612 H 0.90658 0.29469 0.70762 0.0
C613 C 0.92948 0.21939 0.75005 0.0
H614 H 0.95206 0.24342 0.69977 0.0
C615 C 0.90279 0.24832 0.75436 0.0
C616 C 0.89513 0.27643 0.73941 0.0
H617 H 0.93692 0.19942 0.76233 0.0
H618 H 0.89041 0.25034 0.77 0.0
C619 C 0.912 0.27331 0.71939 0.0
C620 C 0.84048 0.49911 0.99281 0.0
C621 C 0.877 0.48492 0.98833 0.0
H622 H 0.78549 0.48771 0.00452 0.0
C623 C 0.88628 0.44716 0.99346 0.0
H624 H 0.83264 0.52829 0.9895 0.0
C625 C 0.85922 0.42382 0.00232 0.0
C626 C 0.82232 0.43777 0.00619 0.0
H627 H 0.91407 0.43525 0.99006 0.0
H628 H 0.86691 0.39461 0.00565 0.0
C629 C 0.8135 0.47585 0.00157 0.0
C630 C 0.7101 0.40828 0.25507 0.0
C631 C 0.6725 0.39536 0.25768 0.0
H632 H 0.77017 0.3956 0.25774 0.0
C633 C 0.6673 0.36114 0.26807 0.0
H634 H 0.71505 0.43441 0.24702 0.0
C635 C 0.69896 0.33903 0.27441 0.0
C636 C 0.73638 0.35046 0.27021 0.0
H637 H 0.63865 0.35072 0.2705 0.0
H638 H 0.69386 0.31179 0.2813 0.0
C639 C 0.7417 0.38597 0.26118 0.0
C640 C 0.24429 0.0271 0.46507 0.0
C641 C 0.24676 0.0094 0.44422 0.0
H642 H 0.25128 0.02165 0.49919 0.0
C643 C 0.25926 0.97112 0.44218 0.0
H644 H 0.23403 0.05626 0.46727 0.0
C645 C 0.26888 0.95101 0.4606 0.0
C646 C 0.26607 0.96873 0.48143 0.0
H647 H 0.26167 0.95674 0.42635 0.0
H648 H 0.27839 0.92156 0.4585 0.0
C649 C 0.25384 0.00706 0.48342 0.0
C650 C 0.16627 0.71092 0.72022 0.0
C651 C 0.17154 0.72481 0.69978 0.0
H652 H 0.1826 0.71471 0.75405 0.0
C653 C 0.19833 0.75453 0.69811 0.0
H654 H 0.14539 0.68844 0.72209 0.0
C655 C 0.21974 0.7697 0.7165 0.0
C656 C 0.21458 0.7556 0.73695 0.0
H657 H 0.20315 0.76564 0.68255 0.0
H658 H 0.24028 0.79249 0.71468 0.0
C659 C 0.1875 0.72612 0.73858 0.0
C660 C 0.44473 0.64138 0.95819 0.0
C661 C 0.43927 0.65355 0.93702 0.0
H662 H 0.43355 0.65133 0.99152 0.0
C663 C 0.41647 0.68598 0.93345 0.0
H664 H 0.46144 0.61604 0.96145 0.0
C665 C 0.40009 0.70617 0.95078 0.0
C666 C 0.40622 0.69432 0.972 0.0
H667 H 0.41194 0.69622 0.91736 0.0
H668 H 0.38297 0.73127 0.94756 0.0
C669 C 0.42855 0.66156 0.97545 0.0
C670 C 0.52292 0.91908 0.19928 0.0
C671 C 0.50429 0.95154 0.19142 0.0
H672 H 0.524 0.87541 0.22196 0.0
C673 C 0.47024 0.96397 0.20073 0.0
H674 H 0.54862 0.90802 0.19221 0.0
C675 C 0.45564 0.94468 0.21773 0.0
C676 C 0.47501 0.91286 0.22585 0.0
H677 H 0.4553 0.98906 0.19523 0.0
H678 H 0.4296 0.95504 0.22471 0.0
C679 C 0.50866 0.90021 0.21633 0.0
C680 C 0.14126 0.74236 0.8743 0.0
C681 C 0.14779 0.70448 0.88026 0.0
H682 H 0.15833 0.78772 0.85481 0.0
C683 C 0.17937 0.68453 0.87223 0.0
H684 H 0.11709 0.75848 0.88014 0.0
C685 C 0.20236 0.70092 0.85758 0.0
C686 C 0.19481 0.73798 0.85079 0.0
H687 H 0.1859 0.65574 0.87691 0.0
H688 H 0.22579 0.6842 0.85129 0.0
C689 C 0.16472 0.75905 0.85973 0.0
C690 C 0.46303 0.64391 0.11159 0.0
C691 C 0.43834 0.61643 0.11913 0.0
H692 H 0.4705 0.68796 0.0898 0.0
C693 C 0.39983 0.61461 0.11082 0.0
H694 H 0.49256 0.64684 0.11803 0.0
C695 C 0.38689 0.63878 0.09462 0.0
C696 C 0.41234 0.66495 0.08647 0.0
H697 H 0.38011 0.5937 0.11629 0.0
H698 H 0.35741 0.63622 0.08808 0.0
C699 C 0.4503 0.66763 0.09542 0.0
C700 C 0.53301 0.90162 0.35765 0.0
C701 C 0.51761 0.90167 0.37811 0.0
H702 H 0.52425 0.88837 0.32363 0.0
C703 C 0.48085 0.8858 0.37973 0.0
H704 H 0.56099 0.91421 0.35578 0.0
C705 C 0.45963 0.87095 0.36118 0.0
C706 C 0.47463 0.87212 0.34065 0.0
H707 H 0.46834 0.88532 0.39529 0.0
H708 H 0.43107 0.85959 0.36287 0.0
C709 C 0.51178 0.88709 0.33916 0.0
C710 C 0.24694 0.06195 0.61856 0.0
C711 C 0.25885 0.04828 0.63872 0.0
H712 H 0.24364 0.05148 0.58414 0.0
C713 C 0.28132 0.01492 0.63932 0.0
H714 H 0.22912 0.08724 0.61757 0.0
C715 C 0.2903 0.99477 0.62002 0.0
C716 C 0.27598 0.0072 0.59998 0.0
H717 H 0.2907 0.00375 0.65468 0.0
H718 H 0.30618 0.96821 0.62083 0.0
C719 C 0.25506 0.0414 0.59942 0.0
C720 C 0.59414 0.42261 0.94379 0.0
C721 C 0.60919 0.40928 0.92421 0.0
H722 H 0.60143 0.42694 0.97835 0.0
C723 C 0.64187 0.38582 0.92481 0.0
H724 H 0.56932 0.44121 0.94386 0.0
C725 C 0.65997 0.3771 0.9447 0.0
C726 C 0.64617 0.39261 0.96419 0.0
H727 H 0.65406 0.37531 0.90993 0.0
H728 H 0.68601 0.36025 0.9448 0.0
C729 C 0.61263 0.41465 0.96355 0.0
C730 C 0.74323 0.19709 0.17794 0.0
C731 C 0.72867 0.15935 0.17733 0.0
H732 H 0.77127 0.24332 0.19739 0.0
C733 C 0.73219 0.13887 0.19617 0.0
H734 H 0.7408 0.21349 0.16365 0.0
C735 C 0.74917 0.1558 0.21528 0.0
C736 C 0.76324 0.19365 0.21611 0.0
H737 H 0.72059 0.11003 0.19638 0.0
H738 H 0.75076 0.13923 0.22953 0.0
C739 C 0.76072 0.21404 0.19718 0.0
C740 C 0.05815 0.22233 0.45972 0.0
C741 C 0.04674 0.23341 0.43893 0.0
H742 H 0.04517 0.22255 0.493 0.0
C743 C 0.01413 0.25661 0.43617 0.0
H744 H 0.08292 0.2041 0.46222 0.0
C745 C 0.9929 0.26794 0.45397 0.0
C746 C 0.0034 0.25516 0.47454 0.0
H747 H 0.00477 0.26535 0.42024 0.0
H748 H 0.96731 0.28502 0.45146 0.0
C749 C 0.03647 0.23273 0.47729 0.0
C750 C 0.96033 0.48038 0.67946 0.0
C751 C 0.93729 0.5089 0.6704 0.0
H752 H 0.9652 0.43641 0.70196 0.0
C753 C 0.89941 0.51339 0.67677 0.0
H754 H 0.98977 0.47656 0.67512 0.0
C755 C 0.8851 0.49004 0.69216 0.0
C756 C 0.90874 0.4624 0.7017 0.0
H757 H 0.88102 0.53515 0.67 0.0
H758 H 0.85602 0.49437 0.69702 0.0
C759 C 0.94631 0.45759 0.695 0.0
C760 C 0.73011 0.16952 0.3692 0.0
C761 C 0.71893 0.1305 0.36733 0.0
H762 H 0.75341 0.21698 0.35355 0.0
C763 C 0.72183 0.10991 0.34726 0.0
H764 H 0.72866 0.1863 0.38439 0.0
C765 C 0.73676 0.12726 0.32987 0.0
C766 C 0.7484 0.16594 0.33185 0.0
H767 H 0.71241 0.08025 0.34485 0.0
H768 H 0.73907 0.1103 0.31478 0.0
C769 C 0.74441 0.18714 0.35156 0.0
C770 C 0.03857 0.2433 0.60542 0.0
C771 C 0.02207 0.24018 0.62535 0.0
H772 H 0.03073 0.25843 0.57265 0.0
C773 C 0.98465 0.25389 0.62787 0.0
H774 H 0.06764 0.23363 0.60315 0.0
C775 C 0.9633 0.26828 0.61029 0.0
C776 C 0.97914 0.26919 0.58998 0.0
H777 H 0.97125 0.25175 0.64307 0.0
H778 H 0.93395 0.27716 0.61239 0.0
C779 C 0.01739 0.2576 0.58795 0.0
C780 C 0.92675 0.4951 0.83332 0.0
C781 C 0.91618 0.48508 0.85378 0.0
H782 H 0.92342 0.48137 0.7992 0.0
C783 C 0.89405 0.45171 0.85529 0.0
H784 H 0.94444 0.52025 0.83169 0.0
C785 C 0.88208 0.42925 0.83662 0.0
C786 C 0.89224 0.43958 0.81611 0.0
H787 H 0.88543 0.44336 0.87084 0.0
H788 H 0.86457 0.40398 0.83829 0.0
C789 C 0.91497 0.4726 0.8147 0.0
C790 C 0.6255 0.39959 0.10202 0.0
C791 C 0.64466 0.39667 0.12244 0.0
H792 H 0.62925 0.39713 0.06779 0.0
C793 C 0.68408 0.38795 0.12352 0.0
H794 H 0.59539 0.40719 0.10054 0.0
C795 C 0.70383 0.38244 0.10453 0.0
C796 C 0.68455 0.3859 0.08414 0.0
H797 H 0.69965 0.38552 0.13903 0.0
H798 H 0.73419 0.37586 0.10583 0.0
C799 C 0.64512 0.39427 0.08317 0.0
loop_
_geom_bond_atom_site_label_1
_geom_bond_atom_site_label_2
_geom_bond_distance
_geom_bond_site_symmetry_2
_ccdc_geom_bond_type
C0 C1 1.384 . S
C0 C2 1.384 . S
C0 H28 0.931 . S
C1 C0 1.384 . S
C1 C4 1.382 1_565 S
C2 C0 1.384 . S
C2 C3 1.381 1_565 S
C2 H29 0.930 . S
C3 C2 1.381 1_545 S
C3 C5 1.381 . S
C3 C6 1.487 . S
C4 C1 1.382 1_545 S
C4 C5 1.387 . S
C4 H30 0.930 . S
C5 C3 1.381 . S
C5 C4 1.387 . S
C5 H31 0.931 . S
C6 C3 1.487 . S
C6 C13 1.399 . S
C6 N44 1.343 . S
C7 C8 1.384 . S
C7 C9 1.384 . S
C7 H32 0.931 . S
C8 C7 1.384 . S
C8 C11 1.382 . S
C9 C7 1.384 . S
C9 C10 1.381 . S
C9 H33 0.930 1_565 S
C10 C9 1.381 . S
C10 C12 1.381 . S
C10 C13 1.487 1_565 S
C11 C8 1.382 . S
C11 C12 1.387 . S
C11 H34 0.930 . S
C12 C10 1.381 . S
C12 C11 1.387 . S
C12 H35 0.931 . S
C13 C6 1.399 . S
C13 C10 1.487 1_545 S
C13 N45 1.343 . S
C14 C15 1.384 . S
C14 C16 1.384 . S
C14 H36 0.931 . S
C15 C14 1.384 . S
C15 C18 1.382 . S
C16 C14 1.384 . S
C16 C17 1.381 . S
C16 H37 0.930 . S
C17 C16 1.381 . S
C17 C19 1.381 . S
C17 C20 1.487 . S
C18 C15 1.382 . S
C18 C19 1.387 . S
C18 H38 0.941 . S
C19 C17 1.381 . S
C19 C18 1.387 . S
C19 H39 0.931 . S
C20 C17 1.487 . S
C20 C27 1.399 . S
C20 N45 1.343 . S
C21 C22 1.384 1_655 S
C21 C23 1.384 1_655 S
C21 H40 0.931 . S
C22 C21 1.384 1_455 S
C22 C25 1.382 . S
C23 C21 1.384 1_455 S
C23 C24 1.381 . S
C23 H41 0.930 . S
C24 C23 1.381 . S
C24 C26 1.381 . S
C24 C27 1.487 . S
C25 C22 1.382 . S
C25 C26 1.387 . S
C25 H42 0.930 . S
C26 C24 1.381 . S
C26 C25 1.387 . S
C26 H43 0.931 . S
C27 C20 1.399 . S
C27 C24 1.487 . S
C27 N44 1.343 . S
H28 C0 0.931 . S
H29 C2 0.930 . S
H30 C4 0.930 . S
H31 C5 0.931 . S
H32 C7 0.931 . S
H33 C9 0.930 1_545 S
H34 C11 0.930 . S
H35 C12 0.931 . S
H36 C14 0.931 . S
H37 C16 0.930 . S
H38 C18 0.941 . S
H39 C19 0.931 . S
H40 C21 0.931 . S
H41 C23 0.930 . S
H42 C25 0.930 . S
H43 C26 0.931 . S
N44 C6 1.343 . S
N44 C27 1.343 . S
N45 C13 1.343 . S
N45 C20 1.343 . S
C46 C47 1.384 . S
C46 C48 1.384 . S
C46 H74 0.931 . S
C47 C46 1.384 . S
C47 C50 1.382 . S
C48 C46 1.384 . S
C48 C49 1.381 . S
C48 H75 0.930 . S
C49 C48 1.381 . S
C49 C51 1.381 1_655 S
C49 C52 1.487 1_655 S
C50 C47 1.382 . S
C50 C51 1.387 1_655 S
C50 H76 0.930 . S
C51 C49 1.381 1_455 S
C51 C50 1.387 1_455 S
C51 H77 0.931 . S
C52 C49 1.487 1_455 S
C52 C59 1.399 . S
C52 N90 1.343 . S
C53 C54 1.384 . S
C53 C55 1.384 1_655 S
C53 H78 0.931 . S
C54 C53 1.384 . S
C54 C57 1.382 . S
C55 C53 1.384 1_455 S
C55 C56 1.381 . S
C55 H79 0.930 . S
C56 C55 1.381 . S
C56 C58 1.381 1_455 S
C56 C59 1.487 . S
C57 C54 1.382 . S
C57 C58 1.387 . S
C57 H80 0.930 . S
C58 C56 1.381 1_655 S
C58 C57 1.387 . S
C58 H81 0.931 . S
C59 C52 1.399 . S
C59 C56 1.487 . S
C59 N91 1.343 . S
C60 C61 1.384 . S
C60 C62 1.384 . S
C60 H82 0.931 . S
C61 C60 1.384 . S
C61 C64 1.382 . S
C62 C60 1.384 . S
C62 C63 1.381 . S
C62 H83 0.930 . S
C63 C62 1.381 . S
C63 C65 1.381 . S
C63 C66 1.487 . S
C64 C61 1.382 . S
C64 C65 1.387 . S
C64 H84 0.930 . S
C65 C63 1.381 . S
C65 C64 1.387 . S
C65 H85 0.931 . S
C66 C63 1.487 . S
C66 C73 1.399 . S
C66 N91 1.343 . S
C67 C68 1.384 . S
C67 C69 1.384 . S
C67 H86 0.931 . S
C68 C67 1.384 . S
C68 C71 1.382 . S
C69 C67 1.384 . S
C69 C70 1.381 . S
C69 H87 0.930 . S
C70 C69 1.381 . S
C70 C72 1.381 . S
C70 C73 1.487 . S
C71 C68 1.382 . S
C71 C72 1.387 . S
C71 H88 0.930 . S
C72 C70 1.381 . S
C72 C71 1.387 . S
C72 H89 0.931 . S
C73 C66 1.399 . S
C73 C70 1.487 . S
C73 N90 1.343 . S
H74 C46 0.931 . S
H75 C48 0.930 . S
H76 C50 0.930 . S
H77 C51 0.931 . S
H78 C53 0.931 . S
H79 C55 0.930 . S
H80 C57 0.930 . S
H81 C58 0.931 . S
H82 C60 0.931 . S
H83 C62 0.930 . S
H84 C64 0.930 . S
H85 C65 0.931 . S
H86 C67 0.931 . S
H87 C69 0.930 . S
H88 C71 0.930 . S
H89 C72 0.931 . S
N90 C52 1.343 . S
N90 C73 1.343 . S
N91 C59 1.343 . S
N91 C66 1.343 . S
C92 C93 1.384 . S
C92 C94 1.384 . S
C92 H120 0.931 . S
C93 C92 1.384 . S
C93 C96 1.382 . S
C94 C92 1.384 . S
C94 C95 1.381 . S
C94 H121 0.930 . S
C95 C94 1.381 . S
C95 C97 1.381 . S
C95 C98 1.487 . S
C96 C93 1.382 . S
C96 C97 1.387 . S
C96 H122 0.930 . S
C97 C95 1.381 . S
C97 C96 1.387 . S
C97 H123 0.931 . S
C98 C95 1.487 . S
C98 C105 1.399 . S
C98 N136 1.343 . S
C99 C100 1.384 . S
C99 C101 1.384 . S
C99 H124 0.931 . S
C100 C99 1.384 . S
C100 C103 1.382 . S
C101 C99 1.384 . S
C101 C102 1.381 . S
C101 H125 0.930 . S
C102 C101 1.381 . S
C102 C104 1.381 . S
C102 C105 1.487 . S
C103 C100 1.382 . S
C103 C104 1.387 . S
C103 H126 0.930 . S
C104 C102 1.381 . S
C104 C103 1.387 . S
C104 H127 0.931 . S
C105 C98 1.399 . S
C105 C102 1.487 . S
C105 N137 1.343 . S
C106 C107 1.384 . S
C106 C108 1.384 . S
C106 H128 0.931 . S
C107 C106 1.384 . S
C107 C110 1.382 . S
C108 C106 1.384 . S
C108 C109 1.381 . S
C108 H129 0.930 . S
C109 C108 1.381 . S
C109 C111 1.381 . S
C109 C112 1.487 . S
C110 C107 1.382 . S
C110 C111 1.387 . S
C110 H130 0.930 . S
C111 C109 1.381 . S
C111 C110 1.387 . S
C111 H131 0.931 . S
C112 C109 1.487 . S
C112 C119 1.399 . S
C112 N137 1.343 . S
C113 C114 1.384 . S
C113 C115 1.384 . S
C113 H132 0.931 . S
C114 C113 1.384 . S
C114 C117 1.382 . S
C115 C113 1.384 . S
C115 C116 1.381 . S
C115 H133 0.930 . S
C116 C115 1.381 . S
C116 C118 1.381 . S
C116 C119 1.487 . S
C117 C114 1.382 . S
C117 C118 1.387 . S
C117 H134 0.930 . S
C118 C116 1.381 . S
C118 C117 1.387 . S
C118 H135 0.931 . S
C119 C112 1.399 . S
C119 C116 1.487 . S
C119 N136 1.343 . S
H120 C92 0.931 . S
H121 C94 0.930 . S
H122 C96 0.930 . S
H123 C97 0.931 . S
H124 C99 0.931 . S
H125 C101 0.930 . S
H126 C103 0.930 . S
H127 C104 0.931 . S
H128 C106 0.931 . S
H129 C108 0.930 . S
H130 C110 0.930 . S
H131 C111 0.931 . S
H132 C113 0.931 . S
H133 C115 0.930 . S
H134 C117 0.930 . S
H135 C118 0.931 . S
N136 C98 1.343 . S
N136 C119 1.343 . S
N137 C105 1.343 . S
N137 C112 1.343 . S
C138 C139 1.384 . S
C138 C140 1.384 . S
C138 H166 0.931 . S
C139 C138 1.384 . S
C139 C142 1.382 . S
C140 C138 1.384 . S
C140 C141 1.381 . S
C140 H167 0.930 . S
C141 C140 1.381 . S
C141 C143 1.381 . S
C141 C144 1.487 . S
C142 C139 1.382 . S
C142 C143 1.387 . S
C142 H168 0.930 . S
C143 C141 1.381 . S
C143 C142 1.387 . S
C143 H169 0.931 . S
C144 C141 1.487 . S
C144 C151 1.399 . S
C144 N182 1.343 1_565 S
C145 C146 1.384 . S
C145 C147 1.384 . S
C145 H170 0.931 . S
C146 C145 1.384 . S
C146 C149 1.382 . S
C147 C145 1.384 . S
C147 C148 1.381 . S
C147 H171 0.930 . S
C148 C147 1.381 . S
C148 C150 1.381 . S
C148 C151 1.487 . S
C149 C146 1.382 . S
C149 C150 1.387 . S
C149 H172 0.930 . S
C150 C148 1.381 . S
C150 C149 1.387 . S
C150 H173 0.931 . S
C151 C144 1.399 . S
C151 C148 1.487 . S
C151 N183 1.343 . S
C152 C153 1.384 . S
C152 C154 1.384 . S
C152 H174 0.931 . S
C153 C152 1.384 . S
C153 C156 1.382 . S
C154 C152 1.384 . S
C154 C155 1.381 . S
C154 H175 0.930 . S
C155 C154 1.381 . S
C155 C157 1.381 . S
C155 C158 1.487 . S
C156 C153 1.382 . S
C156 C157 1.387 . S
C156 H176 0.930 . S
C157 C155 1.381 . S
C157 C156 1.387 . S
C157 H177 0.931 . S
C158 C155 1.487 . S
C158 C165 1.399 . S
C158 N183 1.343 1_545 S
C159 C160 1.384 . S
C159 C161 1.384 . S
C159 H178 0.931 . S
C160 C159 1.384 . S
C160 C163 1.382 . S
C161 C159 1.384 . S
C161 C162 1.381 . S
C161 H179 0.930 . S
C162 C161 1.381 . S
C162 C164 1.381 . S
C162 C165 1.487 . S
C163 C160 1.382 . S
C163 C164 1.387 . S
C163 H180 0.930 . S
C164 C162 1.381 . S
C164 C163 1.387 . S
C164 H181 0.931 . S
C165 C158 1.399 . S
C165 C162 1.487 . S
C165 N182 1.343 . S
H166 C138 0.931 . S
H167 C140 0.930 . S
H168 C142 0.930 . S
H169 C143 0.931 . S
H170 C145 0.931 . S
H171 C147 0.930 . S
H172 C149 0.930 . S
H173 C150 0.931 . S
H174 C152 0.931 . S
H175 C154 0.930 . S
H176 C156 0.930 . S
H177 C157 0.931 . S
H178 C159 0.931 . S
H179 C161 0.930 . S
H180 C163 0.930 . S
H181 C164 0.931 . S
N182 C144 1.343 1_545 S
N182 C165 1.343 . S
N183 C151 1.343 . S
N183 C158 1.343 1_565 S
C184 C185 1.384 . S
C184 C186 1.384 . S
C184 H212 0.931 . S
C185 C184 1.384 . S
C185 C188 1.382 . S
C186 C184 1.384 . S
C186 C187 1.381 . S
C186 H213 0.930 . S
C187 C186 1.381 . S
C187 C189 1.381 . S
C187 C190 1.487 . S
C188 C185 1.382 . S
C188 C189 1.387 . S
C188 H214 0.930 . S
C189 C187 1.381 . S
C189 C188 1.387 . S
C189 H215 0.931 . S
C190 C187 1.487 . S
C190 C197 1.399 . S
C190 N228 1.331 1_455 S
C191 C192 1.384 1_556 S
C191 C193 1.384 . S
C191 H216 0.931 . S
C192 C191 1.384 1_554 S
C192 C195 1.382 . S
C193 C191 1.384 . S
C193 C194 1.381 . S
C193 H217 0.930 . S
C194 C193 1.381 . S
C194 C196 1.410 . S
C194 C197 1.487 . S
C195 C192 1.382 . S
C195 C196 1.366 1_554 S
C195 H218 0.930 . S
C196 C194 1.410 . S
C196 C195 1.366 1_556 S
C196 H219 0.924 1_556 S
C197 C190 1.399 . S
C197 C194 1.487 . S
C197 N229 1.361 . S
C198 C199 1.384 . S
C198 C200 1.384 . S
C198 H220 0.931 . S
C199 C198 1.384 . S
C199 C202 1.390 . S
C200 C198 1.384 . S
C200 C201 1.381 . S
C200 H221 0.930 . S
C201 C200 1.381 . S
C201 C203 1.381 . S
C201 C204 1.487 . S
C202 C199 1.390 . S
C202 C203 1.404 . S
C202 H222 0.906 1_556 S
C203 C201 1.381 . S
C203 C202 1.404 . S
C203 H223 0.931 . S
C204 C201 1.487 . S
C204 C211 1.399 . S
C204 N229 1.327 1_655 S
C205 C206 1.384 . S
C205 C207 1.384 . S
C205 H224 0.931 . S
C206 C205 1.384 . S
C206 C209 1.382 . S
C207 C205 1.384 . S
C207 C208 1.381 . S
C207 H225 0.930 . S
C208 C207 1.381 . S
C208 C210 1.381 . S
C208 C211 1.487 . S
C209 C206 1.382 . S
C209 C210 1.387 . S
C209 H226 0.930 . S
C210 C208 1.381 . S
C210 C209 1.387 . S
C210 H227 0.931 . S
C211 C204 1.399 . S
C211 C208 1.487 . S
C211 N228 1.356 . S
H212 C184 0.931 . S
H213 C186 0.930 . S
H214 C188 0.930 . S
H215 C189 0.931 . S
H216 C191 0.931 . S
H217 C193 0.930 . S
H218 C195 0.930 . S
H219 C196 0.924 1_554 S
H220 C198 0.931 . S
H221 C200 0.930 . S
H222 C202 0.906 1_554 S
H223 C203 0.931 . S
H224 C205 0.931 . S
H225 C207 0.930 . S
H226 C209 0.930 . S
H227 C210 0.931 . S
N228 C190 1.331 1_655 S
N228 C211 1.356 . S
N229 C197 1.361 . S
N229 C204 1.327 1_455 S
C230 C231 1.384 . S
C230 C232 1.384 . S
C230 H258 0.931 . S
C231 C230 1.384 . S
C231 C234 1.382 . S
C232 C230 1.384 . S
C232 C233 1.381 . S
C232 H259 0.930 . S
C233 C232 1.381 . S
C233 C235 1.381 . S
C233 C236 1.487 . S
C234 C231 1.382 . S
C234 C235 1.387 . S
C234 H260 0.930 . S
C235 C233 1.381 . S
C235 C234 1.387 . S
C235 H261 0.931 . S
C236 C233 1.487 . S
C236 C243 1.399 . S
C236 N274 1.343 . S
C237 C238 1.384 . S
C237 C239 1.384 . S
C237 H262 0.931 . S
C238 C237 1.384 . S
C238 C241 1.382 . S
C239 C237 1.384 . S
C239 C240 1.381 . S
C239 H263 0.930 . S
C240 C239 1.381 . S
C240 C242 1.381 . S
C240 C243 1.487 . S
C241 C238 1.382 . S
C241 C242 1.387 . S
C241 H264 0.930 . S
C242 C240 1.381 . S
C242 C241 1.387 . S
C242 H265 0.931 . S
C243 C236 1.399 . S
C243 C240 1.487 . S
C243 N275 1.343 . S
C244 C245 1.384 . S
C244 C246 1.384 . S
C244 H266 0.931 . S
C245 C244 1.384 . S
C245 C248 1.382 . S
C246 C244 1.384 . S
C246 C247 1.381 . S
C246 H267 0.930 . S
C247 C246 1.381 . S
C247 C249 1.381 . S
C247 C250 1.487 . S
C248 C245 1.382 . S
C248 C249 1.387 . S
C248 H268 0.930 . S
C249 C247 1.381 . S
C249 C248 1.387 . S
C249 H269 0.931 . S
C250 C247 1.487 . S
C250 C257 1.399 . S
C250 N275 1.343 . S
C251 C252 1.384 . S
C251 C253 1.384 . S
C251 H270 0.931 . S
C252 C251 1.384 . S
C252 C255 1.382 . S
C253 C251 1.384 . S
C253 C254 1.381 . S
C253 H271 0.930 . S
C254 C253 1.381 . S
C254 C256 1.381 . S
C254 C257 1.487 . S
C255 C252 1.382 . S
C255 C256 1.387 . S
C255 H272 0.930 . S
C256 C254 1.381 . S
C256 C255 1.387 . S
C256 H273 0.931 . S
C257 C250 1.399 . S
C257 C254 1.487 . S
C257 N274 1.343 . S
H258 C230 0.931 . S
H259 C232 0.930 . S
H260 C234 0.930 . S
H261 C235 0.931 . S
H262 C237 0.931 . S
H263 C239 0.930 . S
H264 C241 0.930 . S
H265 C242 0.931 . S
H266 C244 0.931 . S
H267 C246 0.930 . S
H268 C248 0.930 . S
H269 C249 0.931 . S
H270 C251 0.931 . S
H271 C253 0.930 . S
H272 C255 0.930 . S
H273 C256 0.931 . S
N274 C236 1.343 . S
N274 C257 1.343 . S
N275 C243 1.343 . S
N275 C250 1.343 . S
C276 C277 1.384 . S
C276 C278 1.384 . S
C276 H304 0.931 . S
C277 C276 1.384 . S
C277 C280 1.382 . S
C278 C276 1.384 . S
C278 C279 1.381 . S
C278 H305 0.930 . S
C279 C278 1.381 . S
C279 C281 1.381 . S
C279 C282 1.487 1_565 S
C280 C277 1.382 . S
C280 C281 1.387 . S
C280 H306 0.930 . S
C281 C279 1.381 . S
C281 C280 1.387 . S
C281 H307 0.931 1_565 S
C282 C279 1.487 1_545 S
C282 C289 1.399 . S
C282 N320 1.343 . S
C283 C284 1.384 . S
C283 C285 1.384 . S
C283 H308 0.931 . S
C284 C283 1.384 . S
C284 C287 1.382 . S
C285 C283 1.384 . S
C285 C286 1.381 . S
C285 H309 0.930 1_565 S
C286 C285 1.381 . S
C286 C288 1.381 . S
C286 C289 1.487 1_565 S
C287 C284 1.382 . S
C287 C288 1.387 . S
C287 H310 0.930 . S
C288 C286 1.381 . S
C288 C287 1.387 . S
C288 H311 0.931 . S
C289 C282 1.399 . S
C289 C286 1.487 1_545 S
C289 N321 1.343 . S
C290 C291 1.384 . S
C290 C292 1.384 . S
C290 H312 0.931 . S
C291 C290 1.384 . S
C291 C294 1.382 . S
C292 C290 1.384 . S
C292 C293 1.381 . S
C292 H313 0.930 . S
C293 C292 1.381 . S
C293 C295 1.381 . S
C293 C296 1.487 . S
C294 C291 1.382 . S
C294 C295 1.387 . S
C294 H314 0.930 . S
C295 C293 1.381 . S
C295 C294 1.387 . S
C295 H315 0.931 . S
C296 C293 1.487 . S
C296 C303 1.399 . S
C296 N321 1.343 . S
C297 C298 1.384 . S
C297 C299 1.384 . S
C297 H316 0.931 . S
C298 C297 1.384 . S
C298 C301 1.382 . S
C299 C297 1.384 . S
C299 C300 1.381 . S
C299 H317 0.930 . S
C300 C299 1.381 . S
C300 C302 1.381 . S
C300 C303 1.487 . S
C301 C298 1.382 . S
C301 C302 1.387 . S
C301 H318 0.930 . S
C302 C300 1.381 . S
C302 C301 1.387 . S
C302 H319 0.931 . S
C303 C296 1.399 . S
C303 C300 1.487 . S
C303 N320 1.343 . S
H304 C276 0.931 . S
H305 C278 0.930 . S
H306 C280 0.930 . S
H307 C281 0.931 1_545 S
H308 C283 0.931 . S
H309 C285 0.930 1_545 S
H310 C287 0.930 . S
H311 C288 0.931 . S
H312 C290 0.931 . S
H313 C292 0.930 . S
H314 C294 0.930 . S
H315 C295 0.931 . S
H316 C297 0.931 . S
H317 C299 0.930 . S
H318 C301 0.930 . S
H319 C302 0.931 . S
N320 C282 1.343 . S
N320 C303 1.343 . S
N321 C289 1.343 . S
N321 C296 1.343 . S
C322 C323 1.384 . S
C322 C324 1.384 . S
C322 H350 0.931 . S
C323 C322 1.384 . S
C323 C326 1.382 . S
C324 C322 1.384 . S
C324 C325 1.381 . S
C324 H351 0.930 . S
C325 C324 1.381 . S
C325 C327 1.381 . S
C325 C328 1.487 . S
C326 C323 1.382 . S
C326 C327 1.387 . S
C326 H352 0.930 . S
C327 C325 1.381 . S
C327 C326 1.387 . S
C327 H353 0.931 . S
C328 C325 1.487 . S
C328 C335 1.399 . S
C328 N366 1.343 . S
C329 C330 1.384 . S
C329 C331 1.384 . S
C329 H354 0.931 . S
C330 C329 1.384 . S
C330 C333 1.382 . S
C331 C329 1.384 . S
C331 C332 1.381 . S
C331 H355 0.930 . S
C332 C331 1.381 . S
C332 C334 1.381 . S
C332 C335 1.487 . S
C333 C330 1.382 . S
C333 C334 1.387 . S
C333 H356 0.930 . S
C334 C332 1.381 . S
C334 C333 1.387 . S
C334 H357 0.931 . S
C335 C328 1.399 . S
C335 C332 1.487 . S
C335 N367 1.343 . S
C336 C337 1.384 1_655 S
C336 C338 1.384 1_655 S
C336 H358 0.931 . S
C337 C336 1.384 1_455 S
C337 C340 1.382 . S
C338 C336 1.384 1_455 S
C338 C339 1.381 . S
C338 H359 0.930 . S
C339 C338 1.381 . S
C339 C341 1.381 . S
C339 C342 1.487 . S
C340 C337 1.382 . S
C340 C341 1.387 . S
C340 H360 0.930 . S
C341 C339 1.381 . S
C341 C340 1.387 . S
C341 H361 0.931 . S
C342 C339 1.487 . S
C342 C349 1.399 . S
C342 N367 1.343 . S
C343 C344 1.384 . S
C343 C345 1.384 . S
C343 H362 0.931 . S
C344 C343 1.384 . S
C344 C347 1.382 . S
C345 C343 1.384 . S
C345 C346 1.381 . S
C345 H363 0.930 . S
C346 C345 1.381 . S
C346 C348 1.381 . S
C346 C349 1.487 . S
C347 C344 1.382 . S
C347 C348 1.387 . S
C347 H364 0.930 . S
C348 C346 1.381 . S
C348 C347 1.387 . S
C348 H365 0.931 . S
C349 C342 1.399 . S
C349 C346 1.487 . S
C349 N366 1.343 . S
H350 C322 0.931 . S
H351 C324 0.930 . S
H352 C326 0.930 . S
H353 C327 0.931 . S
H354 C329 0.931 . S
H355 C331 0.930 . S
H356 C333 0.930 . S
H357 C334 0.931 . S
H358 C336 0.931 . S
H359 C338 0.930 . S
H360 C340 0.930 . S
H361 C341 0.931 . S
H362 C343 0.931 . S
H363 C345 0.930 . S
H364 C347 0.930 . S
H365 C348 0.931 . S
N366 C328 1.343 . S
N366 C349 1.343 . S
N367 C335 1.343 . S
N367 C342 1.343 . S
O368 Cd369 2.223 . S
O368 C376 1.315 . S
Cd369 O368 2.223 . S
Cd369 O372 2.297 . S
Cd369 O373 2.439 . S
Cd369 O379 2.240 . S
Cd370 O371 2.240 . S
Cd370 O378 2.223 . S
Cd370 O380 2.297 . S
Cd370 O381 2.439 . S
O371 Cd370 2.240 . S
O371 C376 1.279 . S
O372 Cd369 2.297 . S
O372 C374 1.247 . S
O373 Cd369 2.439 . S
O373 C374 1.208 . S
C374 O372 1.247 . S
C374 O373 1.208 . S
C375 O380 1.247 . S
C375 O381 1.208 . S
C376 O368 1.315 . S
C376 O371 1.279 . S
C377 O378 1.315 . S
C377 O379 1.279 . S
O378 Cd370 2.223 . S
O378 C377 1.315 . S
O379 Cd369 2.240 . S
O379 C377 1.279 . S
O380 Cd370 2.297 . S
O380 C375 1.247 . S
O381 Cd370 2.439 . S
O381 C375 1.208 . S
O382 Cd383 2.223 . S
O382 C390 1.315 . S
Cd383 O382 2.223 . S
Cd383 O386 2.297 . S
Cd383 O387 2.439 . S
Cd383 O393 2.240 . S
Cd384 O385 2.240 . S
Cd384 O392 2.223 . S
Cd384 O394 2.297 . S
Cd384 O395 2.439 . S
O385 Cd384 2.240 . S
O385 C390 1.279 . S
O386 Cd383 2.297 . S
O386 C388 1.247 . S
O387 Cd383 2.439 . S
O387 C388 1.208 . S
C388 O386 1.247 . S
C388 O387 1.208 . S
C389 O394 1.247 . S
C389 O395 1.208 . S
C390 O382 1.315 . S
C390 O385 1.279 . S
C391 O392 1.315 . S
C391 O393 1.279 . S
O392 Cd384 2.223 . S
O392 C391 1.315 . S
O393 Cd383 2.240 . S
O393 C391 1.279 . S
O394 Cd384 2.297 . S
O394 C389 1.247 . S
O395 Cd384 2.439 . S
O395 C389 1.208 . S
O396 Cd397 2.223 . S
O396 C404 1.315 . S
Cd397 O396 2.223 . S
Cd397 O400 2.297 . S
Cd397 O401 2.439 . S
Cd397 O407 2.240 . S
Cd398 O399 2.240 . S
Cd398 O406 2.223 . S
Cd398 O408 2.297 . S
Cd398 O409 2.439 . S
O399 Cd398 2.240 . S
O399 C404 1.279 . S
O400 Cd397 2.297 . S
O400 C402 1.247 . S
O401 Cd397 2.439 . S
O401 C402 1.208 . S
C402 O400 1.247 . S
C402 O401 1.208 . S
C403 O408 1.247 . S
C403 O409 1.208 . S
C404 O396 1.315 . S
C404 O399 1.279 . S
C405 O406 1.315 . S
C405 O407 1.279 . S
O406 Cd398 2.223 . S
O406 C405 1.315 . S
O407 Cd397 2.240 . S
O407 C405 1.279 . S
O408 Cd398 2.297 . S
O408 C403 1.247 . S
O409 Cd398 2.439 . S
O409 C403 1.208 . S
O410 Cd411 2.223 . S
O410 C418 1.315 . S
Cd411 O410 2.223 . S
Cd411 O414 2.297 . S
Cd411 O415 2.439 . S
Cd411 O421 2.240 . S
Cd412 O413 2.240 . S
Cd412 O420 2.223 . S
Cd412 O422 2.297 . S
Cd412 O423 2.439 . S
O413 Cd412 2.240 . S
O413 C418 1.279 . S
O414 Cd411 2.297 . S
O414 C416 1.247 . S
O415 Cd411 2.439 . S
O415 C416 1.208 . S
C416 O414 1.247 . S
C416 O415 1.208 . S
C417 O422 1.247 . S
C417 O423 1.208 . S
C418 O410 1.315 . S
C418 O413 1.279 . S
C419 O420 1.315 . S
C419 O421 1.279 . S
O420 Cd412 2.223 . S
O420 C419 1.315 . S
O421 Cd411 2.240 . S
O421 C419 1.279 . S
O422 Cd412 2.297 . S
O422 C417 1.247 . S
O423 Cd412 2.439 . S
O423 C417 1.208 . S
O424 Cd425 2.223 . S
O424 C432 1.315 . S
Cd425 O424 2.223 . S
Cd425 O428 2.297 . S
Cd425 O429 2.439 . S
Cd425 O435 2.240 . S
Cd426 O427 2.240 . S
Cd426 O434 2.223 . S
Cd426 O436 2.297 . S
Cd426 O437 2.439 . S
O427 Cd426 2.240 . S
O427 C432 1.279 . S
O428 Cd425 2.297 . S
O428 C430 1.247 . S
O429 Cd425 2.439 . S
O429 C430 1.208 . S
C430 O428 1.247 . S
C430 O429 1.208 . S
C431 O436 1.247 . S
C431 O437 1.208 . S
C432 O424 1.315 . S
C432 O427 1.279 . S
C433 O434 1.315 . S
C433 O435 1.279 . S
O434 Cd426 2.223 . S
O434 C433 1.315 . S
O435 Cd425 2.240 . S
O435 C433 1.279 . S
O436 Cd426 2.297 . S
O436 C431 1.247 . S
O437 Cd426 2.439 . S
O437 C431 1.208 . S
O438 Cd439 2.223 . S
O438 C446 1.315 . S
Cd439 O438 2.223 . S
Cd439 O442 2.297 . S
Cd439 O443 2.439 . S
Cd439 O449 2.240 . S
Cd440 O441 2.240 . S
Cd440 O448 2.223 . S
Cd440 O450 2.297 . S
Cd440 O451 2.439 . S
O441 Cd440 2.240 . S
O441 C446 1.279 . S
O442 Cd439 2.297 . S
O442 C444 1.247 . S
O443 Cd439 2.439 . S
O443 C444 1.208 . S
C444 O442 1.247 . S
C444 O443 1.208 . S
C445 O450 1.247 . S
C445 O451 1.208 . S
C446 O438 1.315 . S
C446 O441 1.279 . S
C447 O448 1.315 . S
C447 O449 1.279 . S
O448 Cd440 2.223 . S
O448 C447 1.315 . S
O449 Cd439 2.240 . S
O449 C447 1.279 . S
O450 Cd440 2.297 . S
O450 C445 1.247 . S
O451 Cd440 2.439 . S
O451 C445 1.208 . S
O452 Cd453 2.223 . S
O452 C460 1.315 . S
Cd453 O452 2.223 . S
Cd453 O456 2.297 . S
Cd453 O457 2.439 . S
Cd453 O463 2.240 1_554 S
Cd454 O455 2.287 . S
Cd454 O462 2.223 . S
Cd454 O464 2.245 1_554 S
Cd454 O465 2.400 1_554 S
O455 Cd454 2.287 . S
O455 C460 1.279 . S
O456 Cd453 2.297 . S
O456 C458 1.247 . S
O457 Cd453 2.439 . S
O457 C458 1.208 . S
C458 O456 1.247 . S
C458 O457 1.208 . S
C459 O464 1.247 . S
C459 O465 1.208 . S
C460 O452 1.315 . S
C460 O455 1.279 . S
C461 O462 1.315 . S
C461 O463 1.279 1_554 S
O462 Cd454 2.223 . S
O462 C461 1.315 . S
O463 Cd453 2.240 1_556 S
O463 C461 1.279 1_556 S
O464 Cd454 2.245 1_556 S
O464 C459 1.247 . S
O465 Cd454 2.400 1_556 S
O465 C459 1.208 . S
O466 Cd467 2.223 . S
O466 C474 1.315 . S
Cd467 O466 2.223 . S
Cd467 O470 2.297 . S
Cd467 O471 2.439 . S
Cd467 O477 2.240 . S
Cd468 O469 2.240 . S
Cd468 O476 2.223 . S
Cd468 O478 2.297 . S
Cd468 O479 2.439 . S
O469 Cd468 2.240 . S
O469 C474 1.279 . S
O470 Cd467 2.297 . S
O470 C472 1.247 . S
O471 Cd467 2.439 . S
O471 C472 1.208 . S
C472 O470 1.247 . S
C472 O471 1.208 . S
C473 O478 1.247 . S
C473 O479 1.208 . S
C474 O466 1.315 . S
C474 O469 1.279 . S
C475 O476 1.315 . S
C475 O477 1.279 . S
O476 Cd468 2.223 . S
O476 C475 1.315 . S
O477 Cd467 2.240 . S
O477 C475 1.279 . S
O478 Cd468 2.297 . S
O478 C473 1.247 . S
O479 Cd468 2.439 . S
O479 C473 1.208 . S
C480 C481 1.387 . S
C480 H484 0.950 . S
C480 C489 1.390 . S
C481 C480 1.387 . S
C481 C483 1.387 . S
H482 C489 0.950 . S
C483 C481 1.387 . S
C483 C485 1.390 . S
C483 H487 0.950 . S
H484 C480 0.950 . S
C485 C483 1.390 . S
C485 C486 1.387 . S
C485 H488 0.950 . S
C486 C485 1.387 . S
C486 C489 1.387 . S
H487 C483 0.950 . S
H488 C485 0.950 . S
C489 C480 1.390 . S
C489 H482 0.950 . S
C489 C486 1.387 . S
C490 C491 1.387 . S
C490 H494 0.950 . S
C490 C499 1.390 . S
C491 C490 1.387 . S
C491 C493 1.387 . S
H492 C499 0.950 . S
C493 C491 1.387 . S
C493 C495 1.390 . S
C493 H497 0.950 . S
H494 C490 0.950 . S
C495 C493 1.390 . S
C495 C496 1.387 . S
C495 H498 0.950 . S
C496 C495 1.387 . S
C496 C499 1.387 . S
H497 C493 0.950 . S
H498 C495 0.950 . S
C499 C490 1.390 . S
C499 H492 0.950 . S
C499 C496 1.387 . S
C500 C501 1.387 . S
C500 H504 0.950 . S
C500 C509 1.390 . S
C501 C500 1.387 . S
C501 C503 1.387 . S
H502 C509 0.950 . S
C503 C501 1.387 . S
C503 C505 1.390 . S
C503 H507 0.950 . S
H504 C500 0.950 . S
C505 C503 1.390 . S
C505 C506 1.387 . S
C505 H508 0.950 . S
C506 C505 1.387 . S
C506 C509 1.387 . S
H507 C503 0.950 . S
H508 C505 0.950 . S
C509 C500 1.390 . S
C509 H502 0.950 . S
C509 C506 1.387 . S
C510 C511 1.387 . S
C510 H514 0.950 . S
C510 C519 1.390 . S
C511 C510 1.387 . S
C511 C513 1.387 . S
H512 C519 0.950 . S
C513 C511 1.387 . S
C513 C515 1.390 . S
C513 H517 0.950 . S
H514 C510 0.950 . S
C515 C513 1.390 . S
C515 C516 1.387 . S
C515 H518 0.950 . S
C516 C515 1.387 . S
C516 C519 1.387 . S
H517 C513 0.950 . S
H518 C515 0.950 . S
C519 C510 1.390 . S
C519 H512 0.950 . S
C519 C516 1.387 . S
C520 C521 1.387 . S
C520 H524 0.950 1_554 S
C520 C529 1.390 . S
C521 C520 1.387 . S
C521 C523 1.387 . S
H522 C529 0.950 1_556 S
C523 C521 1.387 . S
C523 C525 1.390 . S
C523 H527 0.950 . S
H524 C520 0.950 1_556 S
C525 C523 1.390 . S
C525 C526 1.387 . S
C525 H528 0.950 . S
C526 C525 1.387 . S
C526 C529 1.387 . S
H527 C523 0.950 . S
H528 C525 0.950 . S
C529 C520 1.390 . S
C529 H522 0.950 1_554 S
C529 C526 1.387 . S
C530 C531 1.387 . S
C530 H534 0.950 . S
C530 C539 1.390 . S
C531 C530 1.387 . S
C531 C533 1.387 . S
H532 C539 0.950 . S
C533 C531 1.387 . S
C533 C535 1.390 . S
C533 H537 0.950 . S
H534 C530 0.950 . S
C535 C533 1.390 . S
C535 C536 1.387 . S
C535 H538 0.950 . S
C536 C535 1.387 . S
C536 C539 1.387 . S
H537 C533 0.950 . S
H538 C535 0.950 . S
C539 C530 1.390 . S
C539 H532 0.950 . S
C539 C536 1.387 . S
C540 C541 1.387 . S
C540 H544 0.950 . S
C540 C549 1.390 . S
C541 C540 1.387 . S
C541 C543 1.387 . S
H542 C549 0.950 . S
C543 C541 1.387 . S
C543 C545 1.390 . S
C543 H547 0.950 1_565 S
H544 C540 0.950 . S
C545 C543 1.390 . S
C545 C546 1.387 . S
C545 H548 0.950 . S
C546 C545 1.387 . S
C546 C549 1.387 . S
H547 C543 0.950 1_545 S
H548 C545 0.950 . S
C549 C540 1.390 . S
C549 H542 0.950 . S
C549 C546 1.387 . S
C550 C551 1.387 . S
C550 H554 0.950 . S
C550 C559 1.390 1_545 S
C551 C550 1.387 . S
C551 C553 1.387 . S
H552 C559 0.950 . S
C553 C551 1.387 . S
C553 C555 1.390 1_545 S
C553 H557 0.950 . S
H554 C550 0.950 . S
C555 C553 1.390 1_565 S
C555 C556 1.387 . S
C555 H558 0.950 . S
C556 C555 1.387 . S
C556 C559 1.387 . S
H557 C553 0.950 . S
H558 C555 0.950 . S
C559 C550 1.390 1_565 S
C559 H552 0.950 . S
C559 C556 1.387 . S
C560 C561 1.387 . S
C560 H564 0.950 . S
C560 C569 1.390 . S
C561 C560 1.387 . S
C561 C563 1.387 . S
H562 C569 0.950 . S
C563 C561 1.387 . S
C563 C565 1.390 . S
C563 H567 0.950 . S
H564 C560 0.950 . S
C565 C563 1.390 . S
C565 C566 1.387 . S
C565 H568 0.950 . S
C566 C565 1.387 . S
C566 C569 1.387 . S
H567 C563 0.950 . S
H568 C565 0.950 . S
C569 C560 1.390 . S
C569 H562 0.950 . S
C569 C566 1.387 . S
C570 C571 1.387 . S
C570 H574 0.950 . S
C570 C579 1.390 . S
C571 C570 1.387 . S
C571 C573 1.387 . S
H572 C579 0.950 . S
C573 C571 1.387 . S
C573 C575 1.390 . S
C573 H577 0.950 . S
H574 C570 0.950 . S
C575 C573 1.390 . S
C575 C576 1.387 . S
C575 H578 0.950 . S
C576 C575 1.387 . S
C576 C579 1.387 . S
H577 C573 0.950 . S
H578 C575 0.950 . S
C579 C570 1.390 . S
C579 H572 0.950 . S
C579 C576 1.387 . S
C580 C581 1.387 . S
C580 H584 0.950 . S
C580 C589 1.390 . S
C581 C580 1.387 . S
C581 C583 1.387 . S
H582 C589 0.950 . S
C583 C581 1.387 . S
C583 C585 1.390 . S
C583 H587 0.950 . S
H584 C580 0.950 . S
C585 C583 1.390 . S
C585 C586 1.387 . S
C585 H588 0.950 . S
C586 C585 1.387 . S
C586 C589 1.387 . S
H587 C583 0.950 . S
H588 C585 0.950 . S
C589 C580 1.390 . S
C589 H582 0.950 . S
C589 C586 1.387 . S
C590 C591 1.387 . S
C590 H594 0.950 . S
C590 C599 1.390 . S
C591 C590 1.387 . S
C591 C593 1.387 . S
H592 C599 0.950 . S
C593 C591 1.387 . S
C593 C595 1.390 . S
C593 H597 0.950 . S
H594 C590 0.950 . S
C595 C593 1.390 . S
C595 C596 1.387 . S
C595 H598 0.950 . S
C596 C595 1.387 . S
C596 C599 1.387 . S
H597 C593 0.950 . S
H598 C595 0.950 . S
C599 C590 1.390 . S
C599 H592 0.950 . S
C599 C596 1.387 . S
C600 C601 1.387 . S
C600 H604 0.950 . S
C600 C609 1.390 . S
C601 C600 1.387 . S
C601 C603 1.387 . S
H602 C609 0.950 . S
C603 C601 1.387 . S
C603 C605 1.390 . S
C603 H607 0.950 . S
H604 C600 0.950 . S
C605 C603 1.390 . S
C605 C606 1.387 . S
C605 H608 0.950 . S
C606 C605 1.387 . S
C606 C609 1.387 . S
H607 C603 0.950 . S
H608 C605 0.950 . S
C609 C600 1.390 . S
C609 H602 0.950 . S
C609 C606 1.387 . S
C610 C611 1.387 . S
C610 H614 0.950 . S
C610 C619 1.390 . S
C611 C610 1.387 . S
C611 C613 1.387 . S
H612 C619 0.950 . S
C613 C611 1.387 . S
C613 C615 1.390 . S
C613 H617 0.950 . S
H614 C610 0.950 . S
C615 C613 1.390 . S
C615 C616 1.387 . S
C615 H618 0.950 . S
C616 C615 1.387 . S
C616 C619 1.387 . S
H617 C613 0.950 . S
H618 C615 0.950 . S
C619 C610 1.390 . S
C619 H612 0.950 . S
C619 C616 1.387 . S
C620 C621 1.387 1_554 S
C620 H624 0.950 . S
C620 C629 1.390 . S
C621 C620 1.387 1_556 S
C621 C623 1.387 . S
H622 C629 0.950 . S
C623 C621 1.387 . S
C623 C625 1.390 . S
C623 H627 0.950 . S
H624 C620 0.950 . S
C625 C623 1.390 . S
C625 C626 1.405 . S
C625 H628 0.950 . S
C626 C625 1.405 . S
C626 C629 1.372 1_556 S
H627 C623 0.950 . S
H628 C625 0.950 . S
C629 C620 1.390 . S
C629 H622 0.950 . S
C629 C626 1.372 1_554 S
C630 C631 1.387 . S
C630 H634 0.950 . S
C630 C639 1.390 . S
C631 C630 1.387 . S
C631 C633 1.387 . S
H632 C639 0.950 . S
C633 C631 1.387 . S
C633 C635 1.390 . S
C633 H637 0.950 . S
H634 C630 0.950 . S
C635 C633 1.390 . S
C635 C636 1.387 . S
C635 H638 0.950 . S
C636 C635 1.387 . S
C636 C639 1.387 . S
H637 C633 0.950 . S
H638 C635 0.950 . S
C639 C630 1.390 . S
C639 H632 0.950 . S
C639 C636 1.387 . S
C640 C641 1.387 . S
C640 H644 0.950 1_565 S
C640 C649 1.390 . S
C641 C640 1.387 . S
C641 C643 1.387 . S
H642 C649 0.950 . S
C643 C641 1.387 . S
C643 C645 1.390 . S
C643 H647 0.950 . S
H644 C640 0.950 1_545 S
C645 C643 1.390 . S
C645 C646 1.387 . S
C645 H648 0.950 . S
C646 C645 1.387 . S
C646 C649 1.387 . S
H647 C643 0.950 . S
H648 C645 0.950 . S
C649 C640 1.390 . S
C649 H642 0.950 . S
C649 C646 1.387 . S
C650 C651 1.387 . S
C650 H654 0.950 . S
C650 C659 1.390 . S
C651 C650 1.387 . S
C651 C653 1.387 . S
H652 C659 0.950 . S
C653 C651 1.387 . S
C653 C655 1.390 . S
C653 H657 0.950 . S
H654 C650 0.950 . S
C655 C653 1.390 . S
C655 C656 1.387 . S
C655 H658 0.950 . S
C656 C655 1.387 . S
C656 C659 1.387 . S
H657 C653 0.950 . S
H658 C655 0.950 . S
C659 C650 1.390 . S
C659 H652 0.950 . S
C659 C656 1.387 . S
C660 C661 1.387 . S
C660 H664 0.950 . S
C660 C669 1.390 . S
C661 C660 1.387 . S
C661 C663 1.387 . S
H662 C669 0.950 . S
C663 C661 1.387 . S
C663 C665 1.390 . S
C663 H667 0.950 . S
H664 C660 0.950 . S
C665 C663 1.390 . S
C665 C666 1.387 . S
C665 H668 0.950 . S
C666 C665 1.387 . S
C666 C669 1.387 . S
H667 C663 0.950 . S
H668 C665 0.950 . S
C669 C660 1.390 . S
C669 H662 0.950 . S
C669 C666 1.387 . S
C670 C671 1.387 . S
C670 H674 0.950 . S
C670 C679 1.390 . S
C671 C670 1.387 . S
C671 C673 1.387 . S
H672 C679 0.950 . S
C673 C671 1.387 . S
C673 C675 1.390 . S
C673 H677 0.950 . S
H674 C670 0.950 . S
C675 C673 1.390 . S
C675 C676 1.387 . S
C675 H678 0.950 . S
C676 C675 1.387 . S
C676 C679 1.387 . S
H677 C673 0.950 . S
H678 C675 0.950 . S
C679 C670 1.390 . S
C679 H672 0.950 . S
C679 C676 1.387 . S
C680 C681 1.387 . S
C680 H684 0.950 . S
C680 C689 1.390 . S
C681 C680 1.387 . S
C681 C683 1.387 . S
H682 C689 0.950 . S
C683 C681 1.387 . S
C683 C685 1.390 . S
C683 H687 0.950 . S
H684 C680 0.950 . S
C685 C683 1.390 . S
C685 C686 1.387 . S
C685 H688 0.950 . S
C686 C685 1.387 . S
C686 C689 1.387 . S
H687 C683 0.950 . S
H688 C685 0.950 . S
C689 C680 1.390 . S
C689 H682 0.950 . S
C689 C686 1.387 . S
C690 C691 1.387 . S
C690 H694 0.950 . S
C690 C699 1.390 . S
C691 C690 1.387 . S
C691 C693 1.387 . S
H692 C699 0.950 . S
C693 C691 1.387 . S
C693 C695 1.390 . S
C693 H697 0.950 . S
H694 C690 0.950 . S
C695 C693 1.390 . S
C695 C696 1.387 . S
C695 H698 0.950 . S
C696 C695 1.387 . S
C696 C699 1.387 . S
H697 C693 0.950 . S
H698 C695 0.950 . S
C699 C690 1.390 . S
C699 H692 0.950 . S
C699 C696 1.387 . S
C700 C701 1.387 . S
C700 H704 0.950 . S
C700 C709 1.390 . S
C701 C700 1.387 . S
C701 C703 1.387 . S
H702 C709 0.950 . S
C703 C701 1.387 . S
C703 C705 1.390 . S
C703 H707 0.950 . S
H704 C700 0.950 . S
C705 C703 1.390 . S
C705 C706 1.387 . S
C705 H708 0.950 . S
C706 C705 1.387 . S
C706 C709 1.387 . S
H707 C703 0.950 . S
H708 C705 0.950 . S
C709 C700 1.390 . S
C709 H702 0.950 . S
C709 C706 1.387 . S
C710 C711 1.387 . S
C710 H714 0.950 . S
C710 C719 1.390 . S
C711 C710 1.387 . S
C711 C713 1.387 1_545 S
H712 C719 0.950 . S
C713 C711 1.387 1_565 S
C713 C715 1.390 . S
C713 H717 0.950 . S
H714 C710 0.950 . S
C715 C713 1.390 . S
C715 C716 1.387 . S
C715 H718 0.950 . S
C716 C715 1.387 . S
C716 C719 1.387 1_565 S
H717 C713 0.950 . S
H718 C715 0.950 . S
C719 C710 1.390 . S
C719 H712 0.950 . S
C719 C716 1.387 1_545 S
C720 C721 1.387 . S
C720 H724 0.950 . S
C720 C729 1.390 . S
C721 C720 1.387 . S
C721 C723 1.387 . S
H722 C729 0.950 . S
C723 C721 1.387 . S
C723 C725 1.390 . S
C723 H727 0.950 . S
H724 C720 0.950 . S
C725 C723 1.390 . S
C725 C726 1.387 . S
C725 H728 0.950 . S
C726 C725 1.387 . S
C726 C729 1.387 . S
H727 C723 0.950 . S
H728 C725 0.950 . S
C729 C720 1.390 . S
C729 H722 0.950 . S
C729 C726 1.387 . S
C730 C731 1.387 . S
C730 H734 0.950 . S
C730 C739 1.390 . S
C731 C730 1.387 . S
C731 C733 1.387 . S
H732 C739 0.950 . S
C733 C731 1.387 . S
C733 C735 1.390 . S
C733 H737 0.950 . S
H734 C730 0.950 . S
C735 C733 1.390 . S
C735 C736 1.387 . S
C735 H738 0.950 . S
C736 C735 1.387 . S
C736 C739 1.387 . S
H737 C733 0.950 . S
H738 C735 0.950 . S
C739 C730 1.390 . S
C739 H732 0.950 . S
C739 C736 1.387 . S
C740 C741 1.390 . S
C740 H744 0.944 1_655 S
C740 C749 1.394 . S
C741 C740 1.390 . S
C741 C743 1.387 . S
H742 C749 0.950 . S
C743 C741 1.387 . S
C743 C745 1.390 . S
C743 H747 0.950 . S
H744 C740 0.944 1_455 S
C745 C743 1.390 . S
C745 C746 1.387 . S
C745 H748 0.950 . S
C746 C745 1.387 . S
C746 C749 1.387 . S
H747 C743 0.950 . S
H748 C745 0.950 . S
C749 C740 1.394 . S
C749 H742 0.950 . S
C749 C746 1.387 . S
C750 C751 1.387 . S
C750 H754 0.950 . S
C750 C759 1.390 . S
C751 C750 1.387 . S
C751 C753 1.387 . S
H752 C759 0.950 . S
C753 C751 1.387 . S
C753 C755 1.390 . S
C753 H757 0.950 . S
H754 C750 0.950 . S
C755 C753 1.390 . S
C755 C756 1.387 . S
C755 H758 0.950 . S
C756 C755 1.387 . S
C756 C759 1.387 . S
H757 C753 0.950 . S
H758 C755 0.950 . S
C759 C750 1.390 . S
C759 H752 0.950 . S
C759 C756 1.387 . S
C760 C761 1.387 . S
C760 H764 0.950 . S
C760 C769 1.390 . S
C761 C760 1.387 . S
C761 C763 1.387 . S
H762 C769 0.950 . S
C763 C761 1.387 . S
C763 C765 1.390 . S
C763 H767 0.950 . S
H764 C760 0.950 . S
C765 C763 1.390 . S
C765 C766 1.387 . S
C765 H768 0.950 . S
C766 C765 1.387 . S
C766 C769 1.387 . S
H767 C763 0.950 . S
H768 C765 0.950 . S
C769 C760 1.390 . S
C769 H762 0.950 . S
C769 C766 1.387 . S
C770 C771 1.379 1_655 S
C770 H774 0.950 . S
C770 C779 1.390 . S
C771 C770 1.379 1_455 S
C771 C773 1.379 1_455 S
H772 C779 0.950 . S
C773 C771 1.379 1_655 S
C773 C775 1.390 . S
C773 H777 0.950 . S
H774 C770 0.950 . S
C775 C773 1.390 . S
C775 C776 1.387 . S
C775 H778 0.950 . S
C776 C775 1.387 . S
C776 C779 1.387 . S
H777 C773 0.950 . S
H778 C775 0.950 . S
C779 C770 1.390 . S
C779 H772 0.950 . S
C779 C776 1.387 . S
C780 C781 1.387 . S
C780 H784 0.950 . S
C780 C789 1.390 . S
C781 C780 1.387 . S
C781 C783 1.387 . S
H782 C789 0.950 . S
C783 C781 1.387 . S
C783 C785 1.390 . S
C783 H787 0.950 . S
H784 C780 0.950 . S
C785 C783 1.390 . S
C785 C786 1.387 . S
C785 H788 0.950 . S
C786 C785 1.387 . S
C786 C789 1.387 . S
H787 C783 0.950 . S
H788 C785 0.950 . S
C789 C780 1.390 . S
C789 H782 0.950 . S
C789 C786 1.387 . S
C790 C791 1.387 . S
C790 H794 0.950 . S
C790 C799 1.390 . S
C791 C790 1.387 . S
C791 C793 1.387 . S
H792 C799 0.950 . S
C793 C791 1.387 . S
C793 C795 1.390 . S
C793 H797 0.950 . S
H794 C790 0.950 . S
C795 C793 1.390 . S
C795 C796 1.387 . S
C795 H798 0.950 . S
C796 C795 1.387 . S
C796 C799 1.387 . S
H797 C793 0.950 . S
H798 C795 0.950 . S
C799 C790 1.390 . S
C799 H792 0.950 . S
C799 C796 1.387 . S
C486 C388 1.461 . S
C481 C8 1.413 . S
C496 C405 1.446 . S
C491 C61 1.469 . S
C506 C419 1.571 . S
C501 C107 1.582 . S
C511 C139 1.417 . S
C516 C377 1.434 . S
C521 C192 1.385 . S
C526 C374 1.454 . S
C531 C238 1.255 . S
C536 C391 1.270 . S
C546 C402 1.609 . S
C541 C284 1.573 . S
C556 C416 1.500 . S
C551 C330 1.448 . S
C561 C100 1.445 . S
C566 C444 1.501 . S
C576 C458 1.610 . S
C571 C160 1.555 . S
C581 C15 1.254 1_655 S
C586 C475 1.266 . S
C596 C430 1.458 . S
C591 C54 1.386 . S
C601 C291 1.428 . S
C606 C433 1.434 . S
C611 C337 1.582 1_655 S
C616 C447 1.574 . S
C626 C461 1.444 1_556 S
C621 C199 1.471 . S
C631 C245 1.407 . S
C636 C472 1.461 . S
C646 C404 1.892 . S
C641 C1 1.909 . S
C656 C418 2.052 . S
C651 C68 2.031 . S
C661 C114 1.991 . S
C666 C376 2.008 1_556 S
C671 C146 1.866 . S
C676 C389 1.745 . S
C681 C185 1.648 . S
C686 C417 1.498 . S
C696 C375 1.517 . S
C691 C231 1.686 . S
C706 C390 1.824 . S
C701 C277 1.841 . S
C716 C403 1.594 . S
C711 C323 1.718 . S
C726 C459 1.594 . S
C721 C93 1.718 . S
C736 C474 1.824 . S
C731 C153 1.841 . S
C741 C22 1.671 1_655 S
C746 C431 1.520 . S
C756 C445 1.501 . S
C751 C47 1.648 . S
C766 C473 1.748 . S
C761 C298 1.841 . S
C771 C344 2.006 . S
C776 C432 2.006 . S
C786 C446 2.052 . S
C781 C206 2.033 . S
C796 C460 1.892 . S
C791 C252 1.899 . S
