# Generated by pormake.
# Topology zzz, (3,6)-cn, num edge types: 1
# Building blocks:
#     Node 0, Type 0, BuildingBlock: ESEHIV_clean_linker_0, # of connection points: 3
#     Node 1, Type 0, BuildingBlock: ESEHIV_clean_linker_0, # of connection points: 3
#     Node 2, Type 0, BuildingBlock: ESEHIV_clean_linker_0, # of connection points: 3
#     Node 3, Type 0, BuildingBlock: ESEHIV_clean_linker_0, # of connection points: 3
#     Node 4, Type 0, BuildingBlock: ESEHIV_clean_linker_0, # of connection points: 3
#     Node 5, Type 0, BuildingBlock: ESEHIV_clean_linker_0, # of connection points: 3
#     Node 6, Type 0, BuildingBlock: ESEHIV_clean_linker_0, # of connection points: 3
#     Node 7, Type 0, BuildingBlock: ESEHIV_clean_linker_0, # of connection points: 3
#     Node 8, Type 1, BuildingBlock: BETGAK_clean_sbu_0, # of connection points: 6
#     Node 9, Type 1, BuildingBlock: BETGAK_clean_sbu_0, # of connection points: 6
#     Node 10, Type 1, BuildingBlock: BETGAK_clean_sbu_0, # of connection points: 6
#     Node 11, Type 1, BuildingBlock: BETGAK_clean_sbu_0, # of connection points: 6
#     Edge 12, Type (0, 1), BuildingBlock: EZIPEK_clean_linker_0, # of connection points: 2
#     Edge 13, Type (0, 1), BuildingBlock: EZIPEK_clean_linker_0, # of connection points: 2
#     Edge 14, Type (0, 1), BuildingBlock: EZIPEK_clean_linker_0, # of connection points: 2
#     Edge 15, Type (0, 1), BuildingBlock: EZIPEK_clean_linker_0, # of connection points: 2
#     Edge 16, Type (0, 1), BuildingBlock: EZIPEK_clean_linker_0, # of connection points: 2
#     Edge 17, Type (0, 1), BuildingBlock: EZIPEK_clean_linker_0, # of connection points: 2
#     Edge 18, Type (0, 1), BuildingBlock: EZIPEK_clean_linker_0, # of connection points: 2
#     Edge 19, Type (0, 1), BuildingBlock: EZIPEK_clean_linker_0, # of connection points: 2
#     Edge 20, Type (0, 1), BuildingBlock: EZIPEK_clean_linker_0, # of connection points: 2
#     Edge 21, Type (0, 1), BuildingBlock: EZIPEK_clean_linker_0, # of connection points: 2
#     Edge 22, Type (0, 1), BuildingBlock: EZIPEK_clean_linker_0, # of connection points: 2
#     Edge 23, Type (0, 1), BuildingBlock: EZIPEK_clean_linker_0, # of connection points: 2
#     Edge 24, Type (0, 1), BuildingBlock: EZIPEK_clean_linker_0, # of connection points: 2
#     Edge 25, Type (0, 1), BuildingBlock: EZIPEK_clean_linker_0, # of connection points: 2
#     Edge 26, Type (0, 1), BuildingBlock: EZIPEK_clean_linker_0, # of connection points: 2
#     Edge 27, Type (0, 1), BuildingBlock: EZIPEK_clean_linker_0, # of connection points: 2
#     Edge 28, Type (0, 1), BuildingBlock: EZIPEK_clean_linker_0, # of connection points: 2
#     Edge 29, Type (0, 1), BuildingBlock: EZIPEK_clean_linker_0, # of connection points: 2
#     Edge 30, Type (0, 1), BuildingBlock: EZIPEK_clean_linker_0, # of connection points: 2
#     Edge 31, Type (0, 1), BuildingBlock: EZIPEK_clean_linker_0, # of connection points: 2
#     Edge 32, Type (0, 1), BuildingBlock: EZIPEK_clean_linker_0, # of connection points: 2
#     Edge 33, Type (0, 1), BuildingBlock: EZIPEK_clean_linker_0, # of connection points: 2
#     Edge 34, Type (0, 1), BuildingBlock: EZIPEK_clean_linker_0, # of connection points: 2
#     Edge 35, Type (0, 1), BuildingBlock: EZIPEK_clean_linker_0, # of connection points: 2
# Relax obj value: 0.643
# Max RMSD: 0.274
# Mean RMSD: 0.252
data_MOF--net-zzz--node1-BETGAK_clean_sbu_0--node2-ESEHIV_clean_linker_0--edge1-EZIPEK_clean_linker_0
_symmetry_space_group_name_H-M    P1
_symmetry_Int_Tables_number       1
_symmetry_cell_setting            triclinic
loop_
_symmetry_equiv_pos_as_xyz
'x, y, z'
_cell_length_a     32.238354
_cell_length_b     32.31018
_cell_length_c     10.605126
_cell_angle_alpha  89.826992
_cell_angle_beta   89.918259
_cell_angle_gamma 90.106934
loop_
_atom_site_label
_atom_site_type_symbol
_atom_site_fract_x
_atom_site_fract_y
_atom_site_fract_z
_atom_type_partial_charge
H0 H 0.80657 0.44214 0.44972 0.0
H1 H 0.73729 0.46208 0.11108 0.0
H2 H 0.74005 0.55543 0.39921 0.0
C3 C 0.78763 0.46202 0.39129 0.0
C4 C 0.7829 0.50369 0.42425 0.0
C5 C 0.77505 0.44747 0.27336 0.0
C6 C 0.74738 0.47201 0.20351 0.0
C7 C 0.72921 0.50757 0.25663 0.0
C8 C 0.74962 0.52554 0.36391 0.0
H9 H 0.10296 0.82273 0.3194 0.0
H10 H 0.09 0.69679 0.19974 0.0
H11 H 0.98801 0.75813 0.38485 0.0
C12 C 0.08452 0.79469 0.31387 0.0
C13 C 0.04611 0.79324 0.37727 0.0
C14 C 0.10018 0.76042 0.24695 0.0
C15 C 0.07706 0.72395 0.245 0.0
C16 C 0.03503 0.72416 0.27865 0.0
C17 C 1.01975 0.75834 0.35155 0.0
H18 H 0.70737 0.08923 0.26292 0.0
H19 H 0.8291 0.09244 0.10503 0.0
H20 H 0.79717 0.99676 0.37415 0.0
C21 C 0.73815 0.07586 0.25689 0.0
C22 C 0.74804 0.04129 0.33241 0.0
C23 C 0.7674 0.09435 0.17619 0.0
C24 C 0.80691 0.07739 0.1671 0.0
C25 C 0.81849 0.04149 0.23271 0.0
C26 C 0.78884 1.02376 0.31915 0.0
H27 H 0.45533 0.71508 0.27856 0.0
H28 H 0.55429 0.79826 0.38625 0.0
H29 H 0.45824 0.83838 0.13091 0.0
C30 C 0.47035 0.74512 0.27397 0.0
C31 C 0.45322 0.77596 0.1964 0.0
C32 C 0.5053 0.75281 0.35009 0.0
C33 C 0.52618 0.79191 0.33403 0.0
C34 C 0.51013 0.82256 0.24824 0.0
C35 C 0.47209 0.8147 0.19009 0.0
H36 H 0.20928 0.58982 0.35017 0.0
H37 H 0.32921 0.57719 0.51605 0.0
H38 H 0.29547 0.49948 0.20151 0.0
C39 C 0.23893 0.574 0.35196 0.0
C40 C 0.24763 0.54332 0.26136 0.0
C41 C 0.26866 0.58667 0.44022 0.0
C42 C 0.30675 0.56692 0.44655 0.0
C43 C 0.31672 0.53454 0.36522 0.0
C44 C 0.28744 0.52328 0.26884 0.0
H45 H 0.96377 0.20659 0.31932 0.0
H46 H 0.9574 0.32913 0.47345 0.0
H47 H 0.06199 0.29418 0.24402 0.0
C48 C 0.97705 0.23726 0.3297 0.0
C49 C 1.01362 0.24718 0.264 0.0
C50 C 0.95645 0.26672 0.40441 0.0
C51 C 0.97364 0.30629 0.41727 0.0
C52 C 1.01293 0.31599 0.36942 0.0
C53 C 0.03253 0.28663 0.28752 0.0
H54 H 0.29798 0.95863 0.10913 0.0
H55 H 0.23014 0.97382 0.45193 0.0
H56 H 0.24674 0.07758 0.20176 0.0
C57 C 0.28065 0.97862 0.17168 0.0
C58 C 0.28103 1.02152 0.15186 0.0
C59 C 0.26721 0.96202 0.28613 0.0
C60 C 0.24181 0.98622 0.36371 0.0
C61 C 0.22975 0.02611 0.32631 0.0
C62 C 0.25181 0.04525 0.22377 0.0
H63 H 0.58673 0.34034 0.30024 0.0
H64 H 0.49773 0.24752 0.18638 0.0
H65 H 0.59012 0.22001 0.46847 0.0
C66 C 0.57365 0.3095 0.30917 0.0
C67 C 0.592 0.28113 0.39289 0.0
C68 C 0.54043 0.2979 0.23098 0.0
C69 C 0.5234 0.25705 0.2453 0.0
C70 C 0.54009 0.2288 0.3367 0.0
C71 C 0.57528 0.24149 0.40414 0.0
La72 La 0.06495 1.0109 0.88808 0.0
La73 La 1.00354 0.03675 0.7434 0.0
C74 C 0.1162 0.97171 1.02175 0.0
C75 C 0.1375 0.93167 1.01084 0.0
C76 C 0.18067 0.92882 0.02754 0.0
C77 C 0.20023 0.89013 0.02864 0.0
C78 C 0.17698 0.85381 1.00999 0.0
C79 C 0.13414 0.85764 0.98376 0.0
C80 C 0.11473 0.89583 0.98582 0.0
C81 C 0.09554 0.04858 0.68074 0.0
C82 C 0.03074 0.94757 0.68246 0.0
C83 C 0.94886 0.07257 0.61424 0.0
C84 C 0.91725 0.10337 0.64645 0.0
C85 C 0.87914 0.10341 0.5842 0.0
C86 C 0.85464 0.13907 0.58471 0.0
C87 C 0.86781 0.17458 0.65116 0.0
C88 C 0.90089 0.16971 0.73764 0.0
C89 C 0.92588 0.13474 0.73298 0.0
C90 C 0.97146 1.00623 0.95884 0.0
C91 C 0.04326 0.10216 0.93947 0.0
O92 O 0.12693 0.99994 0.94044 0.0
O93 O 0.07607 0.97072 0.03971 0.0
O94 O 0.10735 0.05437 0.79551 0.0
O95 O 0.06591 1.02261 0.68559 0.0
O96 O 0.04488 0.95124 0.79915 0.0
O97 O 1.01749 0.98177 0.62818 0.0
O98 O 0.94376 0.03618 0.66441 0.0
O99 O 0.98745 0.08496 0.62018 0.0
O100 O 0.96135 0.99545 0.84636 0.0
O101 O 1.00322 0.02924 0.94742 0.0
O102 O 1.02383 0.09701 0.82999 0.0
O103 O 0.05663 0.0682 0.99505 0.0
H104 H 0.19914 0.95635 0.04281 0.0
H105 H 0.23318 0.88873 0.04698 0.0
H106 H 0.11445 0.8311 0.96773 0.0
H107 H 0.08157 0.89702 0.96995 0.0
H108 H 0.86988 0.07695 0.52863 0.0
H109 H 0.82759 0.13979 0.5246 0.0
H110 H 0.91091 0.19448 0.79887 0.0
H111 H 0.95346 0.13367 0.79043 0.0
La112 La 0.53287 0.05269 0.84748 0.0
La113 La 0.50863 0.98822 0.71577 0.0
C114 C 0.56911 0.10818 0.97226 0.0
C115 C 0.60254 0.13711 0.93905 0.0
C116 C 0.60484 0.176 0.99598 0.0
C117 C 0.64199 0.1984 0.99178 0.0
C118 C 0.67658 0.18269 0.92554 0.0
C119 C 0.66984 0.14848 0.8451 0.0
C120 C 0.63375 0.1253 0.85504 0.0
C121 C 0.50277 0.08075 0.62774 0.0
C122 C 0.59859 1.01259 0.65054 0.0
C123 C 0.47211 0.93105 0.59775 0.0
C124 C 0.43229 0.90898 0.60519 0.0
C125 C 0.43133 0.86581 0.59097 0.0
C126 C 0.39396 0.84595 0.56261 0.0
C127 C 0.3572 0.8688 0.55336 0.0
C128 C 0.35743 0.91039 0.59298 0.0
C129 C 0.39491 0.93079 0.61194 0.0
C130 C 0.54337 0.9635 0.93491 0.0
C131 C 0.44167 0.0303 0.89427 0.0
O132 O 0.53424 0.11397 0.91351 0.0
O133 O 0.57924 0.06899 0.97687 0.0
O134 O 0.49228 0.09329 0.7383 0.0
O135 O 0.52573 0.04917 0.6437 0.0
O136 O 0.59339 0.034 0.75649 0.0
O137 O 0.56602 0.99278 0.60667 0.0
O138 O 0.4978 0.92458 0.68973 0.0
O139 O 0.47121 0.96997 0.56409 0.0
O140 O 0.55311 0.95113 0.82323 0.0
O141 O 0.51691 0.99217 0.91938 0.0
O142 O 0.44776 1.0126 0.78345 0.0
O143 O 0.47502 0.04311 0.95397 0.0
H144 H 0.57895 0.18764 0.05028 0.0
H145 H 0.64442 0.22611 0.04815 0.0
H146 H 0.69391 0.13617 0.78489 0.0
H147 H 0.63181 0.09674 0.80323 0.0
H148 H 0.4599 0.84822 0.58792 0.0
H149 H 0.39453 0.81398 0.53291 0.0
H150 H 0.32956 0.929 0.58731 0.0
H151 H 0.39469 0.96409 0.623 0.0
La152 La 0.49121 0.53398 0.85787 0.0
La153 La 0.55533 0.51138 0.71643 0.0
C154 C 0.43776 0.56953 0.99389 0.0
C155 C 0.41518 0.60852 0.97655 0.0
C156 C 0.37281 0.6118 1.00543 0.0
C157 C 0.35282 0.65022 0.9965 0.0
C158 C 0.37436 0.68522 0.95101 0.0
C159 C 0.41553 0.67973 0.90827 0.0
C160 C 0.43594 0.64268 0.92623 0.0
C161 C 0.46357 0.50019 0.64122 0.0
C162 C 0.52663 0.60024 0.65788 0.0
C163 C 0.6136 0.47802 0.59482 0.0
C164 C 0.64398 0.44635 0.63136 0.0
C165 C 0.68209 0.44331 0.56948 0.0
C166 C 0.70377 0.40579 0.5718 0.0
C167 C 0.68799 0.37175 0.64107 0.0
C168 C 0.65628 0.3801 0.72968 0.0
C169 C 0.63371 0.41656 0.72166 0.0
C170 C 0.58347 0.5411 0.93692 0.0
C171 C 0.51465 0.44292 0.90222 0.0
O172 O 0.42884 0.54069 0.91306 0.0
O173 O 0.47782 0.57282 1.01078 0.0
O174 O 0.45124 0.49126 0.75396 0.0
O175 O 0.49313 0.52591 0.65357 0.0
O176 O 0.50957 0.59484 0.77076 0.0
O177 O 0.54288 0.56735 0.60413 0.0
O178 O 0.61709 0.5133 0.65212 0.0
O179 O 0.57493 0.46578 0.58907 0.0
O180 O 0.59451 0.55335 0.82643 0.0
O181 O 0.55278 0.51704 0.92043 0.0
O182 O 0.53451 0.44971 0.79405 0.0
O183 O 0.50034 0.47587 0.9602 0.0
H184 H 0.35562 0.58511 0.03879 0.0
H185 H 0.3212 0.65289 0.02973 0.0
H186 H 0.43379 0.70453 0.86805 0.0
H187 H 0.46844 0.64133 0.90209 0.0
H188 H 0.6933 0.4687 0.5122 0.0
H189 H 0.7303 0.40268 0.51046 0.0
H190 H 0.64477 0.35683 0.7941 0.0
H191 H 0.60635 0.41986 0.77884 0.0
La192 La 1.01027 0.49694 0.88041 0.0
La193 La 0.03247 0.5548 0.72319 0.0
C194 C 0.97363 0.44477 1.01689 0.0
C195 C 0.93862 0.41666 0.99206 0.0
C196 C 0.94412 0.37352 0.99516 0.0
C197 C 0.90955 0.3473 0.99912 0.0
C198 C 0.86942 0.36425 0.99993 0.0
C199 C 0.86484 0.40629 0.96729 0.0
C200 C 0.89889 0.43258 0.97079 0.0
C201 C 0.04331 0.46267 0.66969 0.0
C202 C 0.94171 0.52797 0.68584 0.0
C203 C 0.06914 0.60255 0.5704 0.0
C204 C 0.10146 0.63364 0.58976 0.0
C205 C 0.11507 0.6425 0.71196 0.0
C206 C 0.15137 0.66507 0.73079 0.0
C207 C 0.17511 0.67861 0.62696 0.0
C208 C 0.15734 0.67501 0.505 0.0
C209 C 0.1212 0.652 0.48673 0.0
C210 C 1.00083 0.59167 0.92865 0.0
C211 C 0.09882 0.52542 0.93539 0.0
O212 O 1.00778 0.43681 0.95646 0.0
O213 O 0.96556 0.48438 1.01896 0.0
O214 O 0.05311 0.45454 0.78479 0.0
O215 O 1.01718 0.49184 0.67609 0.0
O216 O 0.94837 0.51404 0.80145 0.0
O217 O 0.97444 0.54075 0.62231 0.0
O218 O 0.03377 0.61069 0.62356 0.0
O219 O 0.08033 0.56428 0.59088 0.0
O220 O 0.9897 0.5982 0.81372 0.0
O221 O 0.02555 0.56103 0.92692 0.0
O222 O 0.09339 0.54258 0.82227 0.0
O223 O 0.06625 0.50884 0.99023 0.0
H224 H 0.97479 0.36034 1.00591 0.0
H225 H 0.91417 0.31477 1.01932 0.0
H226 H 0.83447 0.42048 0.96258 0.0
H227 H 0.89356 0.46559 0.96335 0.0
H228 H 0.099 0.62964 0.79233 0.0
H229 H 0.16263 0.66861 0.8262 0.0
H230 H 0.17308 0.68625 0.42145 0.0
H231 H 0.11024 0.64637 0.39174 0.0
C232 C 0.19705 0.07085 0.49889 0.0
C233 C 0.19227 0.04389 0.39421 0.0
C234 C 0.11847 0.03396 0.45435 0.0
C235 C 0.12526 0.05452 0.57 0.0
N236 N 0.16441 0.10857 0.67113 0.0
N237 N 0.14825 0.99708 0.27945 0.0
C238 C 0.16271 0.07783 0.58319 0.0
C239 C 0.15266 0.02544 0.373 0.0
N240 N 0.23514 0.08768 0.52225 0.0
N241 N 0.07893 0.02497 0.41745 0.0
H242 H 0.17116 0.99213 0.21198 0.0
H243 H 0.12323 0.97664 0.27599 0.0
H244 H 0.05311 0.03539 0.46729 0.0
H245 H 0.07171 1.01287 0.32914 0.0
H246 H 0.24263 0.10316 0.60507 0.0
H247 H 0.26009 0.0842 0.46046 0.0
H248 H 0.1893 0.12885 0.68061 0.0
H249 H 0.13854 0.11725 0.72393 0.0
C250 C 0.48429 0.17826 0.42414 0.0
C251 C 0.52413 0.18533 0.36876 0.0
C252 C 0.54923 0.12258 0.47607 0.0
C253 C 0.50916 0.11335 0.52514 0.0
N254 N 0.43611 0.12856 0.51758 0.0
N255 N 0.58945 0.15417 0.31024 0.0
C256 C 0.47584 0.13978 0.48868 0.0
C257 C 0.55398 0.15305 0.38026 0.0
N258 N 0.45538 0.20903 0.42402 0.0
N259 N 0.58391 0.10769 0.53354 0.0
H260 H 0.59635 0.17862 0.24979 0.0
H261 H 0.6104 0.12959 0.30805 0.0
H262 H 0.58275 0.09408 0.62193 0.0
H263 H 0.61392 0.11572 0.50576 0.0
H264 H 0.42793 0.20736 0.4758 0.0
H265 H 0.45994 0.23737 0.37931 0.0
H266 H 0.41028 0.14451 0.48415 0.0
H267 H 0.4291 0.101 0.56467 0.0
C268 C 0.39537 0.53929 0.37085 0.0
C269 C 0.35879 0.51499 0.38972 0.0
C270 C 0.39882 0.47047 0.53611 0.0
C271 C 0.43264 0.49888 0.53224 0.0
N272 N 0.47003 0.54553 0.39647 0.0
N273 N 0.32657 0.45554 0.48531 0.0
C274 C 0.43317 0.52874 0.43395 0.0
C275 C 0.36126 0.47925 0.46817 0.0
N276 N 0.39307 0.57453 0.29999 0.0
N277 N 0.4035 0.43422 0.60114 0.0
H278 H 0.2995 0.46019 0.43352 0.0
H279 H 0.32392 0.43239 0.55323 0.0
H280 H 0.4315 0.42616 0.64396 0.0
H281 H 0.38178 0.41038 0.60155 0.0
H282 H 0.41672 0.59649 0.29514 0.0
H283 H 0.36603 0.58311 0.25313 0.0
H284 H 0.47303 0.56551 0.31974 0.0
H285 H 0.49825 0.53439 0.43005 0.0
C286 C 1.01243 0.39491 0.38427 0.0
C287 C 0.03178 0.35654 0.41606 0.0
C288 C 0.07028 0.39343 0.58423 0.0
C289 C 0.04552 0.42952 0.56656 0.0
N290 N 1.00885 0.4697 0.41169 0.0
N291 N 0.07855 0.31944 0.55242 0.0
C292 C 1.02119 0.43183 0.455 0.0
C293 C 0.06123 0.35613 0.51606 0.0
N294 N 0.98375 0.39546 0.28992 0.0
N295 N 0.1043 0.39554 0.66058 0.0
H296 H 0.07389 0.29186 0.50374 0.0
H297 H 0.09545 0.31582 0.63533 0.0
H298 H 0.11424 0.42323 0.70096 0.0
H299 H 0.12576 0.37168 0.66974 0.0
H300 H 0.96421 0.42036 0.27232 0.0
H301 H 0.97809 0.36973 0.23344 0.0
H302 H 0.99366 0.47435 0.3263 0.0
H303 H 1.01897 0.49718 0.45266 0.0
C304 C 0.89522 0.05537 0.20024 0.0
C305 C 0.8623 0.02578 0.20287 0.0
C306 C 0.909 0.97889 0.08346 0.0
C307 C 0.93696 1.01209 0.05637 0.0
N308 N 0.94646 0.08648 0.06565 0.0
N309 N 0.83816 0.9588 0.13348 0.0
C310 C 0.92806 0.0514 0.11088 0.0
C311 C 0.86956 0.98699 0.14272 0.0
N312 N 0.89299 0.08978 0.27408 0.0
N313 N 0.91989 0.93948 0.0515 0.0
H314 H 0.80911 0.96316 0.17409 0.0
H315 H 0.84012 0.93236 0.07776 0.0
H316 H 0.94825 0.93253 1.00899 0.0
H317 H 0.90272 0.91358 0.07867 0.0
H318 H 0.91787 0.11012 0.28551 0.0
H319 H 0.86715 0.09632 0.32938 0.0
H320 H 0.93884 0.11611 0.09662 0.0
H321 H 0.96335 0.08702 0.98262 0.0
C322 C 0.56336 0.86224 0.1159 0.0
C323 C 0.53093 0.86297 0.2073 0.0
C324 C 0.51914 0.93719 0.15322 0.0
C325 C 0.54572 0.93364 0.04712 0.0
N326 N 0.60766 0.90079 0.97085 0.0
N327 N 0.4784 0.90227 0.31418 0.0
C328 C 0.57237 0.89853 0.04194 0.0
C329 C 0.5098 0.90125 0.22814 0.0
N330 N 0.58348 0.82592 0.09233 0.0
N331 N 0.50475 0.97529 0.18688 0.0
H332 H 0.47206 0.87717 0.37291 0.0
H333 H 0.45754 0.92667 0.32224 0.0
H334 H 0.51486 1.00227 0.14224 0.0
H335 H 0.48776 0.98083 0.26864 0.0
H336 H 0.60303 0.8215 1.01532 0.0
H337 H 0.57898 0.79934 0.1465 0.0
H338 H 0.63044 0.87799 0.97048 0.0
H339 H 0.61668 0.92796 0.92486 0.0
C340 C 0.68177 0.56029 0.13969 0.0
C341 C 0.68783 0.5212 0.19938 0.0
C342 C 0.62587 0.49513 0.08796 0.0
C343 C 0.61706 0.53492 0.0367 0.0
N344 N 0.63346 0.60777 0.03801 0.0
N345 N 0.65591 0.45594 0.25726 0.0
C346 C 0.64395 0.5683 0.07099 0.0
C347 C 0.65617 0.49069 0.18409 0.0
N348 N 0.71284 0.58899 0.14153 0.0
N349 N 0.60953 0.46024 0.03553 0.0
H350 H 0.67922 0.44921 0.32121 0.0
H351 H 0.63096 0.43532 0.25951 0.0
H352 H 0.59398 0.46053 0.95043 0.0
H353 H 0.61772 0.43041 0.06377 0.0
H354 H 0.7121 0.61616 0.08842 0.0
H355 H 0.74082 0.58408 0.18817 0.0
H356 H 0.64957 0.6337 0.06975 0.0
H357 H 0.60629 0.61468 0.98895 0.0
C358 C 1.00363 0.70172 0.07595 0.0
C359 C 1.00886 0.6933 0.20554 0.0
C360 C 0.99768 0.61877 0.15765 0.0
C361 C 1.00228 0.62679 1.02563 0.0
N362 N 1.01974 0.67862 0.86701 0.0
N363 N 1.00417 0.64457 0.37393 0.0
C364 C 1.00708 0.66908 0.98645 0.0
C365 C 1.00365 0.65188 0.24758 0.0
N366 N 0.998 0.74169 0.03767 0.0
N367 N 0.98758 0.57967 0.19652 0.0
H368 H 1.00727 0.66861 0.43892 0.0
H369 H 1.00077 0.61539 0.41364 0.0
H370 H 0.98299 0.55543 0.13349 0.0
H371 H 0.98115 0.57143 0.28933 0.0
H372 H 0.99061 0.7497 0.94509 0.0
H373 H 0.99626 0.76608 0.10179 0.0
H374 H 0.02694 0.70861 0.83781 0.0
H375 H 0.02962 0.65664 0.80311 0.0
C376 C 0.91245 0.26422 0.60485 0.0
C377 C 0.91719 0.25588 0.47247 0.0
C378 C 0.84934 0.22187 0.47895 0.0
C379 C 0.85472 0.21719 0.60927 0.0
N380 N 0.86443 0.2624 0.78312 0.0
N381 N 0.8833 0.23316 0.27869 0.0
C382 C 0.8758 0.25013 0.66566 0.0
C383 C 0.88312 0.23731 0.40674 0.0
N384 N 0.944 0.28024 0.67537 0.0
N385 N 0.81188 0.21287 0.42757 0.0
H386 H 0.90639 0.24547 0.2209 0.0
H387 H 0.86098 0.21602 0.23051 0.0
H388 H 0.78753 0.20254 0.48481 0.0
H389 H 0.80458 0.21939 0.33393 0.0
H390 H 0.94133 0.28541 0.7719 0.0
H391 H 0.97412 0.28405 0.64187 0.0
H392 H 0.87784 0.28771 0.82791 0.0
H393 H 0.83912 0.24863 0.82871 0.0
C394 C 0.26189 0.89385 0.40808 0.0
C395 C 0.28488 0.9217 0.32975 0.0
C396 C 0.34104 0.87221 0.33591 0.0
C397 C 0.32687 0.85823 0.45372 0.0
N398 N 0.26783 0.84584 0.5851 0.0
N399 N 0.35524 0.93996 0.26049 0.0
C400 C 0.28455 0.86467 0.48199 0.0
C401 C 0.32677 0.91123 0.29951 0.0
N402 N 0.21965 0.89502 0.4109 0.0
N403 N 0.37483 0.85514 0.28007 0.0
H404 H 0.35006 0.97173 0.26521 0.0
H405 H 0.38621 0.93244 0.24378 0.0
H406 H 0.38895 0.8289 0.31678 0.0
H407 H 0.38614 0.86593 0.19367 0.0
H408 H 0.20184 0.87459 0.46458 0.0
H409 H 0.20273 0.91371 0.34923 0.0
H410 H 0.23814 0.85229 0.61868 0.0
H411 H 0.28517 0.82473 0.63806 0.0
C412 C 0.66627 0.30661 0.3972 0.0
C413 C 0.63073 0.29167 0.46367 0.0
C414 C 0.67112 0.29731 0.65795 0.0
C415 C 0.69516 0.32787 0.59806 0.0
N416 N 0.73818 0.32988 0.41534 0.0
N417 N 0.60176 0.26902 0.66511 0.0
C418 C 0.70036 0.32225 0.46771 0.0
C419 C 0.63421 0.2844 0.59651 0.0
N420 N 0.66733 0.30604 0.26884 0.0
N421 N 0.68095 0.28575 0.77753 0.0
H422 H 0.57192 0.26582 0.62898 0.0
H423 H 0.60344 0.26291 0.76127 0.0
H424 H 0.70729 0.29767 0.82171 0.0
H425 H 0.66492 0.26297 0.82703 0.0
H426 H 0.69047 0.32055 0.21687 0.0
H427 H 0.64536 0.29052 0.21451 0.0
H428 H 0.74563 0.32275 0.32238 0.0
H429 H 0.76297 0.33988 0.47101 0.0
C430 C 0.25592 0.62056 0.65188 0.0
C431 C 0.26129 0.62366 0.51882 0.0
C432 C 0.24235 0.69642 0.53298 0.0
C433 C 0.22079 0.68636 0.64332 0.0
N434 N 0.24492 0.66118 0.84181 0.0
N435 N 0.26748 0.66859 0.33652 0.0
C436 C 0.24071 0.6559 0.71572 0.0
C437 C 0.25821 0.66327 0.46052 0.0
N438 N 0.26239 0.58434 0.71498 0.0
N439 N 0.24582 0.7366 0.49752 0.0
H440 H 0.28312 0.64627 0.28393 0.0
H441 H 0.25658 0.69415 0.28681 0.0
H442 H 0.2339 0.75993 0.55506 0.0
H443 H 0.26309 0.7459 0.41926 0.0
H444 H 0.25531 0.58084 0.81044 0.0
H445 H 0.27247 0.55746 0.67043 0.0
H446 H 0.26256 0.64113 0.89694 0.0
H447 H 0.23348 0.68772 0.88589 0.0
C448 C 0.17452 0.78323 0.23785 0.0
C449 C 0.14023 0.76438 0.17572 0.0
C450 C 0.17518 0.77922 0.97502 0.0
C451 C 0.19484 0.81203 0.03685 0.0
N452 N 0.24078 0.8186 0.21125 0.0
N453 N 0.11215 0.73911 0.9748 0.0
C454 C 0.20412 0.80494 0.16393 0.0
C455 C 0.14278 0.75841 0.04128 0.0
N456 N 0.17676 0.78314 0.36602 0.0
N457 N 0.18256 0.77393 0.84981 0.0
H458 H 0.08592 0.72603 1.01463 0.0
H459 H 0.11128 0.73852 0.87668 0.0
H460 H 0.20426 0.79249 0.80282 0.0
H461 H 0.16982 0.74995 0.79722 0.0
H462 H 0.19723 0.802 0.41546 0.0
H463 H 0.15693 0.76514 0.42156 0.0
H464 H 0.25097 0.811 0.30145 0.0
H465 H 0.26235 0.83379 0.15382 0.0
C466 C 0.76503 0.13545 0.96962 0.0
C467 C 0.75727 0.13263 0.10285 0.0
C468 C 0.72595 0.20134 0.0913 0.0
C469 C 0.72007 0.19464 0.96219 0.0
N470 N 0.76266 0.18076 0.78448 0.0
N471 N 0.73864 0.16967 0.29408 0.0
C472 C 0.75168 0.17169 0.90523 0.0
C473 C 0.74082 0.16804 0.16583 0.0
N474 N 0.78017 0.10274 0.90281 0.0
N475 N 0.71923 0.23969 0.13879 0.0
H476 H 0.75305 0.14801 0.35235 0.0
H477 H 0.72225 0.19265 0.34162 0.0
H478 H 0.70962 0.26371 0.07944 0.0
H479 H 0.72688 0.24778 0.23093 0.0
H480 H 0.78489 0.10384 0.80574 0.0
H481 H 0.78408 0.07331 0.94112 0.0
H482 H 0.78592 0.16509 0.73637 0.0
H483 H 0.74953 0.20605 0.73764 0.0
C484 C 0.41554 0.7747 0.98473 0.0
C485 C 0.41566 0.76747 0.1187 0.0
C486 C 0.34723 0.73623 0.09565 0.0
C487 C 0.35767 0.72803 0.97059 0.0
N488 N 0.37516 0.76821 0.79085 0.0
N489 N 0.37426 0.74883 0.3035 0.0
C490 C 0.38103 0.75963 0.91472 0.0
C491 C 0.37883 0.75123 0.1759 0.0
N492 N 0.44971 0.78935 0.92246 0.0
N493 N 0.30719 0.73288 0.13305 0.0
H494 H 0.3961 0.76061 0.36607 0.0
H495 H 0.34906 0.73392 0.34572 0.0
H496 H 0.28439 0.722 0.07138 0.0
H497 H 0.29715 0.74533 0.21823 0.0
H498 H 0.45123 0.79185 0.82461 0.0
H499 H 0.4782 0.79455 0.96546 0.0
H500 H 0.39136 0.79157 0.74497 0.0
H501 H 0.35175 0.75344 0.73965 0.0
C502 C 0.83502 0.39662 0.25643 0.0
C503 C 0.79382 0.40834 0.22176 0.0
C504 C 0.79632 0.35451 0.05865 0.0
C505 C 0.83826 0.34793 0.09084 0.0
N506 N 0.88181 0.33922 0.27253 0.0
N507 N 0.73039 0.38369 0.12265 0.0
C508 C 0.84963 0.35833 0.21431 0.0
C509 C 0.77241 0.38233 0.13368 0.0
N510 N 0.86308 0.42408 0.3044 0.0
N511 N 0.78182 0.33877 0.94838 0.0
H512 H 0.71209 0.39927 0.18797 0.0
H513 H 0.7139 0.36546 0.05914 0.0
H514 H 0.80016 0.319 0.89403 0.0
H515 H 0.75344 0.34725 0.9094 0.0
H516 H 0.89345 0.41557 0.32573 0.0
H517 H 0.85839 0.45599 0.30343 0.0
H518 H 0.89125 0.34761 0.36306 0.0
H519 H 0.89635 0.3138 0.23224 0.0
C520 C 0.05575 0.18217 0.21123 0.0
C521 C 0.02981 0.21516 0.17033 0.0
C522 C 1.02378 0.18017 0.96232 0.0
C523 C 0.0447 0.1443 1.00904 0.0
N524 N 0.0982 0.12303 0.15468 0.0
N525 N 0.98572 0.24319 1.0085 0.0
C526 C 0.06566 0.14857 0.1274 0.0
C527 C 1.01323 0.21354 0.04594 0.0
N528 N 0.06979 0.18203 0.33273 0.0
N529 N 1.01778 0.18474 0.83563 0.0
H530 H 0.97894 0.26924 0.06263 0.0
H531 H 0.96741 0.24018 0.92826 0.0
H532 H 0.03104 0.165 0.76958 0.0
H533 H 1.00548 0.21138 0.79479 0.0
H534 H 0.08374 0.15646 0.37496 0.0
H535 H 0.06501 0.20674 0.39416 0.0
H536 H 0.11664 0.12601 0.23465 0.0
H537 H 0.11108 0.10313 0.08823 0.0
C538 C 0.34901 0.06309 0.11055 0.0
C539 C 0.31599 0.03739 0.06562 0.0
C540 C 0.36591 1.00619 0.91854 0.0
C541 C 0.39802 0.03436 0.95166 0.0
N542 N 0.41275 0.09934 0.05637 0.0
N543 N 0.29207 0.99722 0.88908 0.0
C544 C 0.38735 0.06595 0.04041 0.0
C545 C 0.32412 1.01451 0.95407 0.0
N546 N 0.3453 0.08323 0.22278 0.0
N547 N 0.37525 0.96859 0.86856 0.0
H548 H 0.26121 1.00242 0.91474 0.0
H549 H 0.29663 0.98117 0.80491 0.0
H550 H 0.40563 0.95789 0.86103 0.0
H551 H 0.35265 0.94596 0.85384 0.0
H552 H 0.37025 0.09812 0.26583 0.0
H553 H 0.31837 0.08285 0.27674 0.0
H554 H 0.40476 0.12433 0.11338 0.0
H555 H 0.43889 0.1046 1.00077 0.0
C556 C 0.54773 0.33323 1.01597 0.0
C557 C 0.52614 0.3294 0.13262 0.0
C558 C 0.48785 0.39376 0.07817 0.0
C559 C 0.51311 0.40016 0.96857 0.0
N560 N 0.549 0.36241 0.80558 0.0
N561 N 0.47692 0.35804 0.27845 0.0
C562 C 0.53807 0.36611 0.92931 0.0
C563 C 0.49623 0.36007 0.16383 0.0
N564 N 0.57912 0.30635 0.98942 0.0
N565 N 0.45314 0.41739 0.09408 0.0
H566 H 0.48068 0.3331 0.34012 0.0
H567 H 0.45932 0.38207 0.31574 0.0
H568 H 0.44246 0.43764 1.02472 0.0
H569 H 0.43159 0.4127 0.16592 0.0
H570 H 0.60068 0.31198 0.91826 0.0
H571 H 0.58559 0.28043 0.04484 0.0
H572 H 0.56453 0.33676 0.76997 0.0
H573 H 0.53704 0.38143 0.73522 0.0
C574 C 0.19472 0.4967 0.14126 0.0
C575 C 0.21435 0.53589 0.15943 0.0
C576 C 0.1567 0.56803 0.03808 0.0
C577 C 0.13971 0.52873 1.00767 0.0
N578 N 0.14742 0.45465 1.01587 0.0
N579 N 0.21813 0.60725 0.0932 0.0
C580 C 0.16035 0.49278 0.05472 0.0
C581 C 0.19664 0.57087 0.09666 0.0
N582 N 0.20688 0.46356 0.21212 0.0
N583 N 0.13345 0.60281 1.01991 0.0
H584 H 0.24876 0.60941 0.12395 0.0
H585 H 0.2072 0.63374 0.04837 0.0
H586 H 0.10293 0.60161 0.98788 0.0
H587 H 0.14231 0.632 0.05172 0.0
H588 H 0.19083 0.43555 0.21383 0.0
H589 H 0.23083 0.46512 0.27775 0.0
H590 H 0.16349 0.4275 0.03618 0.0
H591 H 0.12271 0.45061 0.95367 0.0
C592 C 0.06588 0.83875 0.56437 0.0
C593 C 0.03652 0.82912 0.4681 0.0
C594 C 0.99928 0.89376 0.52783 0.0
C595 C 0.03222 0.90625 0.61019 0.0
N596 N 0.1023 0.89007 0.68081 0.0
N597 N 0.97839 0.85303 0.34548 0.0
C598 C 0.06663 0.87867 0.6218 0.0
C599 C 1.00391 0.8581 0.44682 0.0
N600 N 0.09475 0.81003 0.59924 0.0
N601 N 0.96258 0.91478 0.53001 0.0
H602 H 0.98082 0.828 0.28419 0.0
H603 H 0.95728 0.87548 0.3163 0.0
H604 H 0.95684 0.9392 0.59153 0.0
H605 H 0.93633 0.90498 0.48119 0.0
H606 H 0.11705 0.81591 0.6683 0.0
H607 H 0.09436 0.7797 0.56565 0.0
H608 H 0.10826 0.91971 0.71502 0.0
H609 H 0.10826 0.91971 0.71502 0.0
C610 C 0.67444 1.01455 0.36344 0.0
C611 C 0.71328 0.02486 0.41856 0.0
C612 C 0.67886 1.01814 0.62839 0.0
C613 C 0.63869 1.01558 0.57142 0.0
N614 N 0.60023 1.02281 0.37545 0.0
N615 N 0.75075 0.04085 0.60853 0.0
C616 C 0.63703 1.01647 0.43635 0.0
C617 C 0.71505 0.02763 0.55268 0.0
N618 N 0.67308 1.00331 0.23947 0.0
N619 N 0.68299 1.01013 0.75423 0.0
H620 H 0.77753 0.04798 0.55765 0.0
H621 H 0.75279 0.04737 0.70432 0.0
H622 H 0.65817 1.00106 0.81104 0.0
H623 H 0.71163 1.00789 0.79906 0.0
H624 H 0.64632 0.99189 0.19665 0.0
H625 H 0.69978 1.00106 0.18408 0.0
H626 H 0.59828 0.02743 0.27831 0.0
H627 H 0.57252 0.02944 0.42134 0.0
C628 C 0.55261 0.69394 0.43559 0.0
C629 C 0.5164 0.719 0.44675 0.0
C630 C 0.48644 0.66511 0.58764 0.0
C631 C 0.5238 0.64167 0.58678 0.0
N632 N 0.59616 0.64023 0.52773 0.0
N633 N 0.45288 0.73049 0.56425 0.0
C634 C 0.55799 0.65802 0.51579 0.0
C635 C 0.48522 0.7055 0.53333 0.0
N636 N 0.58117 0.70308 0.34456 0.0
N637 N 0.45067 0.64839 0.6343 0.0
H638 H 0.4505 0.76122 0.53456 0.0
H639 H 0.4505 0.76122 0.53456 0.0
H640 H 0.44813 0.61755 0.66231 0.0
H641 H 0.42265 0.66456 0.63373 0.0
H642 H 0.60556 0.68341 0.32126 0.0
H643 H 0.57866 0.72891 0.28597 0.0
H644 H 0.62295 0.65284 0.48808 0.0
H645 H 0.60183 0.61535 0.58806 0.0
C646 C 0.84566 0.55184 0.4724 0.0
C647 C 0.81644 0.52105 0.51268 0.0
C648 C 0.87051 0.49384 0.65462 0.0
C649 C 0.89827 0.52683 0.62676 0.0
N650 N 0.90563 0.59396 0.52773 0.0
N651 N 0.79877 0.4732 0.67877 0.0
C652 C 0.88378 0.55802 0.5416 0.0
C653 C 0.82801 0.49647 0.61831 0.0
N654 N 0.83869 0.5738 0.36451 0.0
N655 N 0.88525 0.45744 0.70134 0.0
H656 H 0.76746 0.47466 0.654 0.0
H657 H 0.80553 0.45589 0.7594 0.0
H658 H 0.9168 0.45196 0.71491 0.0
H659 H 0.86656 0.43114 0.709 0.0
H660 H 0.8612 0.59266 0.32305 0.0
H661 H 0.81165 0.57113 0.31183 0.0
H662 H 0.89478 0.61892 0.47482 0.0
H663 H 0.93213 0.60061 0.58011 0.0
loop_
_geom_bond_atom_site_label_1
_geom_bond_atom_site_label_2
_geom_bond_distance
_geom_bond_site_symmetry_2
_ccdc_geom_bond_type
H0 C3 0.931 . S
H1 C6 0.928 . S
H2 C8 0.930 . S
C3 H0 0.931 . S
C3 C4 1.413 . S
C3 C5 1.360 . S
C4 C3 1.413 . S
C4 C8 1.429 . S
C5 C3 1.360 . S
C5 C6 1.372 . S
C6 H1 0.928 . S
C6 C5 1.372 . S
C6 C7 1.404 . S
C7 C6 1.404 . S
C7 C8 1.391 . S
C8 H2 0.930 . S
C8 C4 1.429 . S
C8 C7 1.391 . S
H9 C12 0.931 . S
H10 C15 0.928 . S
H11 C17 0.930 . S
C12 H9 0.931 . S
C12 C13 1.413 . S
C12 C14 1.360 . S
C13 C12 1.413 . S
C13 C17 1.429 1_655 S
C14 C12 1.360 . S
C14 C15 1.372 . S
C15 H10 0.928 . S
C15 C14 1.372 . S
C15 C16 1.404 . S
C16 C15 1.404 . S
C16 C17 1.390 1_655 S
C17 H11 0.930 . S
C17 C13 1.429 1_455 S
C17 C16 1.390 1_455 S
H18 C21 0.931 . S
H19 C24 0.928 . S
H20 C26 0.930 . S
C21 H18 0.931 . S
C21 C22 1.413 . S
C21 C23 1.360 . S
C22 C21 1.413 . S
C22 C26 1.429 1_565 S
C23 C21 1.360 . S
C23 C24 1.372 . S
C24 H19 0.928 . S
C24 C23 1.372 . S
C24 C25 1.404 . S
C25 C24 1.404 . S
C25 C26 1.390 1_565 S
C26 H20 0.930 . S
C26 C22 1.429 1_545 S
C26 C25 1.390 1_545 S
H27 C30 0.931 . S
H28 C33 0.928 . S
H29 C35 0.930 . S
C30 H27 0.931 . S
C30 C31 1.413 . S
C30 C32 1.360 . S
C31 C30 1.413 . S
C31 C35 1.429 . S
C32 C30 1.360 . S
C32 C33 1.372 . S
C33 H28 0.928 . S
C33 C32 1.372 . S
C33 C34 1.404 . S
C34 C33 1.404 . S
C34 C35 1.391 . S
C35 H29 0.930 . S
C35 C31 1.429 . S
C35 C34 1.391 . S
H36 C39 0.931 1_556 S
H37 C42 0.928 . S
H38 C44 0.930 . S
C39 H36 0.931 1_554 S
C39 C40 1.413 1_554 S
C39 C41 1.360 . S
C40 C39 1.413 1_556 S
C40 C44 1.429 . S
C41 C39 1.360 . S
C41 C42 1.372 . S
C42 H37 0.928 . S
C42 C41 1.372 . S
C42 C43 1.404 . S
C43 C42 1.404 . S
C43 C44 1.391 1_554 S
C44 H38 0.930 . S
C44 C40 1.429 . S
C44 C43 1.391 1_556 S
H45 C48 0.930 1_556 S
H46 C51 0.928 . S
H47 C53 0.930 . S
C48 H45 0.930 1_554 S
C48 C49 1.413 1_554 S
C48 C50 1.360 . S
C49 C48 1.413 1_556 S
C49 C53 1.429 1_655 S
C50 C48 1.360 . S
C50 C51 1.372 . S
C51 H46 0.928 . S
C51 C50 1.372 . S
C51 C52 1.404 . S
C52 C51 1.404 . S
C52 C53 1.391 1_654 S
C53 H47 0.930 . S
C53 C49 1.429 1_455 S
C53 C52 1.391 1_456 S
H54 C57 0.931 1_556 S
H55 C60 0.928 . S
H56 C62 0.930 . S
C57 H54 0.931 1_554 S
C57 C58 1.413 1_554 S
C57 C59 1.360 . S
C58 C57 1.413 1_556 S
C58 C62 1.429 1_565 S
C59 C57 1.360 . S
C59 C60 1.372 . S
C60 H55 0.928 . S
C60 C59 1.372 . S
C60 C61 1.404 . S
C61 C60 1.404 . S
C61 C62 1.391 1_564 S
C62 H56 0.930 . S
C62 C58 1.429 1_545 S
C62 C61 1.391 1_546 S
H63 C66 0.931 1_556 S
H64 C69 0.928 . S
H65 C71 0.930 . S
C66 H63 0.931 1_554 S
C66 C67 1.413 . S
C66 C68 1.360 1_554 S
C67 C66 1.413 . S
C67 C71 1.429 . S
C68 C66 1.360 1_556 S
C68 C69 1.372 . S
C69 H64 0.928 . S
C69 C68 1.372 . S
C69 C70 1.404 1_556 S
C70 C69 1.404 1_554 S
C70 C71 1.391 . S
C71 H65 0.930 . S
C71 C67 1.429 . S
C71 C70 1.391 . S
La72 C74 2.928 1_556 S
La72 O92 2.521 . S
La72 O93 2.628 1_556 S
La72 O94 2.554 . S
La72 O95 2.757 1_565 S
La72 O96 2.470 . S
La72 O101 2.482 1_455 S
La72 O103 2.503 1_565 S
La73 C83 2.928 . S
La73 O95 2.482 1_655 S
La73 O97 2.503 1_545 S
La73 O98 2.521 . S
La73 O99 2.628 . S
La73 O100 2.554 . S
La73 O101 2.757 1_545 S
La73 O102 2.470 . S
C74 La72 2.928 1_554 S
C74 C75 1.503 . S
C74 O92 1.261 1_554 S
C74 O93 1.243 . S
C75 C74 1.503 . S
C75 C76 1.394 . S
C75 C80 1.373 . S
C76 C75 1.394 . S
C76 C77 1.380 . S
C76 H104 0.930 . S
C77 C76 1.380 . S
C77 C78 1.376 . S
C77 H105 0.930 . S
C78 C77 1.376 . S
C78 C79 1.370 . S
C79 C78 1.370 . S
C79 C80 1.396 . S
C79 H106 0.929 . S
C80 C75 1.373 . S
C80 C79 1.396 . S
C80 H107 0.929 . S
C81 O94 1.240 . S
C81 O95 1.289 1_565 S
C82 O96 1.258 1_655 S
C82 O97 1.256 . S
C83 La73 2.928 . S
C83 C84 1.503 . S
C83 O98 1.261 . S
C83 O99 1.243 . S
C84 C83 1.503 . S
C84 C85 1.394 . S
C84 C89 1.373 . S
C85 C84 1.394 . S
C85 C86 1.380 . S
C85 H108 0.930 . S
C86 C85 1.380 . S
C86 C87 1.376 . S
C86 H109 0.930 . S
C87 C86 1.376 . S
C87 C88 1.370 . S
C88 C87 1.370 . S
C88 C89 1.396 . S
C88 H110 0.929 . S
C89 C84 1.373 . S
C89 C88 1.396 . S
C89 H111 0.929 . S
C90 O100 1.240 . S
C90 O101 1.289 1_545 S
C91 O102 1.258 1_455 S
C91 O103 1.256 . S
O92 La72 2.521 . S
O92 C74 1.261 1_556 S
O93 La72 2.628 1_554 S
O93 C74 1.243 . S
O94 La72 2.554 . S
O94 C81 1.240 . S
O95 La72 2.757 1_545 S
O95 La73 2.482 1_455 S
O95 C81 1.289 1_545 S
O96 La72 2.470 . S
O96 C82 1.258 1_455 S
O97 La73 2.503 1_565 S
O97 C82 1.256 . S
O98 La73 2.521 . S
O98 C83 1.261 . S
O99 La73 2.628 . S
O99 C83 1.243 . S
O100 La73 2.554 . S
O100 C90 1.240 . S
O101 La72 2.482 1_655 S
O101 La73 2.757 1_565 S
O101 C90 1.289 1_565 S
O102 La73 2.470 . S
O102 C91 1.258 1_655 S
O103 La72 2.503 1_545 S
O103 C91 1.256 . S
H104 C76 0.930 . S
H105 C77 0.930 . S
H106 C79 0.929 . S
H107 C80 0.929 . S
H108 C85 0.930 . S
H109 C86 0.930 . S
H110 C88 0.929 . S
H111 C89 0.929 . S
La112 C114 2.928 1_556 S
La112 O132 2.521 . S
La112 O133 2.628 1_556 S
La112 O134 2.554 . S
La112 O135 2.757 . S
La112 O136 2.470 . S
La112 O141 2.482 1_545 S
La112 O143 2.503 . S
La113 C123 2.928 . S
La113 O135 2.482 1_565 S
La113 O137 2.503 . S
La113 O138 2.521 . S
La113 O139 2.628 . S
La113 O140 2.554 . S
La113 O141 2.757 . S
La113 O142 2.470 . S
C114 La112 2.928 1_554 S
C114 C115 1.503 . S
C114 O132 1.261 1_554 S
C114 O133 1.243 . S
C115 C114 1.503 . S
C115 C116 1.394 . S
C115 C120 1.373 . S
C116 C115 1.394 . S
C116 C117 1.380 . S
C116 H144 0.930 . S
C117 C116 1.380 . S
C117 C118 1.376 . S
C117 H145 0.930 . S
C118 C117 1.376 . S
C118 C119 1.370 . S
C119 C118 1.370 . S
C119 C120 1.396 . S
C119 H146 0.929 . S
C120 C115 1.373 . S
C120 C119 1.396 . S
C120 H147 0.929 . S
C121 O134 1.240 . S
C121 O135 1.289 . S
C122 O136 1.258 1_565 S
C122 O137 1.256 . S
C123 La113 2.928 . S
C123 C124 1.503 . S
C123 O138 1.261 . S
C123 O139 1.243 . S
C124 C123 1.503 . S
C124 C125 1.394 . S
C124 C129 1.373 . S
C125 C124 1.394 . S
C125 C126 1.380 . S
C125 H148 0.930 . S
C126 C125 1.380 . S
C126 C127 1.376 . S
C126 H149 0.930 . S
C127 C126 1.376 . S
C127 C128 1.370 . S
C128 C127 1.370 . S
C128 C129 1.396 . S
C128 H150 0.929 . S
C129 C124 1.373 . S
C129 C128 1.396 . S
C129 H151 0.953 . S
C130 O140 1.240 . S
C130 O141 1.289 . S
C131 O142 1.258 1_545 S
C131 O143 1.256 . S
O132 La112 2.521 . S
O132 C114 1.261 1_556 S
O133 La112 2.628 1_554 S
O133 C114 1.243 . S
O134 La112 2.554 . S
O134 C121 1.240 . S
O135 La112 2.757 . S
O135 La113 2.482 1_545 S
O135 C121 1.289 . S
O136 La112 2.470 . S
O136 C122 1.258 1_545 S
O137 La113 2.503 . S
O137 C122 1.256 . S
O138 La113 2.521 . S
O138 C123 1.261 . S
O139 La113 2.628 . S
O139 C123 1.243 . S
O140 La113 2.554 . S
O140 C130 1.240 . S
O141 La112 2.482 1_565 S
O141 La113 2.757 . S
O141 C130 1.289 . S
O142 La113 2.470 . S
O142 C131 1.258 1_565 S
O143 La112 2.503 . S
O143 C131 1.256 . S
H144 C116 0.930 . S
H145 C117 0.930 . S
H146 C119 0.929 . S
H147 C120 0.929 . S
H148 C125 0.930 . S
H149 C126 0.930 . S
H150 C128 0.929 . S
H151 C129 0.953 . S
La152 C154 2.928 1_556 S
La152 O172 2.521 . S
La152 O173 2.628 1_556 S
La152 O174 2.554 . S
La152 O175 2.757 . S
La152 O176 2.470 . S
La152 O181 2.482 . S
La152 O183 2.503 . S
La153 C163 2.928 . S
La153 O175 2.482 . S
La153 O177 2.503 . S
La153 O178 2.521 . S
La153 O179 2.628 . S
La153 O180 2.554 . S
La153 O181 2.757 . S
La153 O182 2.470 . S
C154 La152 2.928 1_554 S
C154 C155 1.503 . S
C154 O172 1.261 1_554 S
C154 O173 1.243 . S
C155 C154 1.503 . S
C155 C156 1.394 . S
C155 C160 1.373 . S
C156 C155 1.394 . S
C156 C157 1.380 . S
C156 H184 0.930 . S
C157 C156 1.380 . S
C157 C158 1.376 . S
C157 H185 0.930 . S
C158 C157 1.376 . S
C158 C159 1.370 . S
C159 C158 1.370 . S
C159 C160 1.396 . S
C159 H186 0.929 . S
C160 C155 1.373 . S
C160 C159 1.396 . S
C160 H187 0.929 . S
C161 O174 1.240 . S
C161 O175 1.289 . S
C162 O176 1.258 . S
C162 O177 1.256 . S
C163 La153 2.928 . S
C163 C164 1.503 . S
C163 O178 1.261 . S
C163 O179 1.243 . S
C164 C163 1.503 . S
C164 C165 1.394 . S
C164 C169 1.373 . S
C165 C164 1.394 . S
C165 C166 1.380 . S
C165 H188 0.930 . S
C166 C165 1.380 . S
C166 C167 1.376 . S
C166 H189 0.930 . S
C167 C166 1.376 . S
C167 C168 1.370 . S
C168 C167 1.370 . S
C168 C169 1.396 . S
C168 H190 0.929 . S
C169 C164 1.373 . S
C169 C168 1.396 . S
C169 H191 0.929 . S
C170 O180 1.240 . S
C170 O181 1.289 . S
C171 O182 1.258 . S
C171 O183 1.256 . S
O172 La152 2.521 . S
O172 C154 1.261 1_556 S
O173 La152 2.628 1_554 S
O173 C154 1.243 . S
O174 La152 2.554 . S
O174 C161 1.240 . S
O175 La152 2.757 . S
O175 La153 2.482 . S
O175 C161 1.289 . S
O176 La152 2.470 . S
O176 C162 1.258 . S
O177 La153 2.503 . S
O177 C162 1.256 . S
O178 La153 2.521 . S
O178 C163 1.261 . S
O179 La153 2.628 . S
O179 C163 1.243 . S
O180 La153 2.554 . S
O180 C170 1.240 . S
O181 La152 2.482 . S
O181 La153 2.757 . S
O181 C170 1.289 . S
O182 La153 2.470 . S
O182 C171 1.258 . S
O183 La152 2.503 . S
O183 C171 1.256 . S
H184 C156 0.930 . S
H185 C157 0.930 . S
H186 C159 0.929 . S
H187 C160 0.929 . S
H188 C165 0.930 . S
H189 C166 0.930 . S
H190 C168 0.929 . S
H191 C169 0.929 . S
La192 C194 2.928 1_556 S
La192 O212 2.521 . S
La192 O213 2.628 1_556 S
La192 O214 2.554 . S
La192 O215 2.757 1_655 S
La192 O216 2.470 . S
La192 O221 2.482 . S
La192 O223 2.503 1_655 S
La193 C203 2.928 . S
La193 O215 2.482 . S
La193 O217 2.503 1_455 S
La193 O218 2.521 . S
La193 O219 2.628 . S
La193 O220 2.554 . S
La193 O221 2.757 1_455 S
La193 O222 2.470 . S
C194 La192 2.928 1_554 S
C194 C195 1.503 . S
C194 O212 1.261 1_554 S
C194 O213 1.243 . S
C195 C194 1.503 . S
C195 C196 1.394 . S
C195 C200 1.373 . S
C196 C195 1.394 . S
C196 C197 1.380 . S
C196 H224 0.930 . S
C197 C196 1.380 . S
C197 C198 1.376 . S
C197 H225 0.930 . S
C198 C197 1.376 . S
C198 C199 1.370 . S
C199 C198 1.370 . S
C199 C200 1.396 . S
C199 H226 0.929 . S
C200 C195 1.373 . S
C200 C199 1.396 . S
C200 H227 0.929 . S
C201 O214 1.240 1_455 S
C201 O215 1.289 . S
C202 O216 1.258 . S
C202 O217 1.256 . S
C203 La193 2.928 . S
C203 C204 1.503 . S
C203 O218 1.261 . S
C203 O219 1.243 . S
C204 C203 1.503 . S
C204 C205 1.394 . S
C204 C209 1.373 . S
C205 C204 1.394 . S
C205 C206 1.380 . S
C205 H228 0.930 . S
C206 C205 1.380 . S
C206 C207 1.376 . S
C206 H229 0.930 . S
C207 C206 1.376 . S
C207 C208 1.370 . S
C208 C207 1.370 . S
C208 C209 1.396 . S
C208 H230 0.929 . S
C209 C204 1.373 . S
C209 C208 1.396 . S
C209 H231 0.929 . S
C210 O220 1.240 . S
C210 O221 1.289 1_455 S
C211 O222 1.258 . S
C211 O223 1.256 . S
O212 La192 2.521 . S
O212 C194 1.261 1_556 S
O213 La192 2.628 1_554 S
O213 C194 1.243 . S
O214 La192 2.554 . S
O214 C201 1.240 1_655 S
O215 La192 2.757 1_455 S
O215 La193 2.482 . S
O215 C201 1.289 . S
O216 La192 2.470 . S
O216 C202 1.258 . S
O217 La193 2.503 1_655 S
O217 C202 1.256 . S
O218 La193 2.521 . S
O218 C203 1.261 . S
O219 La193 2.628 . S
O219 C203 1.243 . S
O220 La193 2.554 . S
O220 C210 1.240 . S
O221 La192 2.482 . S
O221 La193 2.757 1_655 S
O221 C210 1.289 1_655 S
O222 La193 2.470 . S
O222 C211 1.258 . S
O223 La192 2.503 1_455 S
O223 C211 1.256 . S
H224 C196 0.930 . S
H225 C197 0.930 . S
H226 C199 0.929 . S
H227 C200 0.929 . S
H228 C205 0.930 . S
H229 C206 0.930 . S
H230 C208 0.929 . S
H231 C209 0.929 . S
C232 C233 1.365 . S
C232 C238 1.379 . S
C232 N240 1.356 . S
C233 C232 1.365 . S
C233 C239 1.361 1_545 S
C234 C235 1.358 1_565 S
C234 C239 1.379 . S
C234 N241 1.356 . S
C235 C234 1.358 1_545 S
C235 C238 1.368 . S
N236 C238 1.356 . S
N236 H248 0.984 . S
N236 H249 0.985 . S
N237 C239 1.356 . S
N237 H242 0.984 . S
N237 H243 0.985 . S
C238 C232 1.379 . S
C238 C235 1.368 . S
C238 N236 1.356 . S
C239 C233 1.361 1_565 S
C239 C234 1.379 . S
C239 N237 1.356 . S
N240 C232 1.356 . S
N240 H246 0.984 . S
N240 H247 0.984 . S
N241 C234 1.356 . S
N241 H244 0.984 . S
N241 H245 0.985 . S
H242 N237 0.984 . S
H243 N237 0.985 . S
H244 N241 0.984 . S
H245 N241 0.985 . S
H246 N240 0.984 . S
H247 N240 0.984 . S
H248 N236 0.984 . S
H249 N236 0.985 . S
C250 C251 1.363 . S
C250 C256 1.379 . S
C250 N258 1.356 . S
C251 C250 1.363 . S
C251 C257 1.363 . S
C252 C253 1.363 . S
C252 C257 1.379 . S
C252 N259 1.356 . S
C253 C252 1.363 . S
C253 C256 1.363 . S
N254 C256 1.356 . S
N254 H266 0.984 . S
N254 H267 0.985 . S
N255 C257 1.356 . S
N255 H260 0.984 . S
N255 H261 0.985 . S
C256 C250 1.379 . S
C256 C253 1.363 . S
C256 N254 1.356 . S
C257 C251 1.363 . S
C257 C252 1.379 . S
C257 N255 1.356 . S
N258 C250 1.356 . S
N258 H264 0.984 . S
N258 H265 0.984 . S
N259 C252 1.356 . S
N259 H262 0.984 . S
N259 H263 0.985 . S
H260 N255 0.984 . S
H261 N255 0.985 . S
H262 N259 0.984 . S
H263 N259 0.985 . S
H264 N258 0.984 . S
H265 N258 0.984 . S
H266 N254 0.984 . S
H267 N254 0.985 . S
C268 C269 1.363 . S
C268 C274 1.379 . S
C268 N276 1.356 . S
C269 C268 1.363 . S
C269 C275 1.363 . S
C270 C271 1.363 . S
C270 C275 1.379 . S
C270 N277 1.356 . S
C271 C270 1.363 . S
C271 C274 1.363 . S
N272 C274 1.356 . S
N272 H284 0.984 . S
N272 H285 0.985 . S
N273 C275 1.356 . S
N273 H278 0.984 . S
N273 H279 0.985 . S
C274 C268 1.379 . S
C274 C271 1.363 . S
C274 N272 1.356 . S
C275 C269 1.363 . S
C275 C270 1.379 . S
C275 N273 1.356 . S
N276 C268 1.356 . S
N276 H282 0.984 . S
N276 H283 0.984 . S
N277 C270 1.356 . S
N277 H280 0.984 . S
N277 H281 0.985 . S
H278 N273 0.984 . S
H279 N273 0.985 . S
H280 N277 0.984 . S
H281 N277 0.985 . S
H282 N276 0.984 . S
H283 N276 0.984 . S
H284 N272 0.984 . S
H285 N272 0.985 . S
C286 C287 1.363 1_655 S
C286 C292 1.379 . S
C286 N294 1.356 . S
C287 C286 1.363 1_455 S
C287 C293 1.363 . S
C288 C289 1.363 . S
C288 C293 1.379 . S
C288 N295 1.356 . S
C289 C288 1.363 . S
C289 C292 1.363 1_455 S
N290 C292 1.356 . S
N290 H302 0.984 . S
N290 H303 0.985 . S
N291 C293 1.356 . S
N291 H296 0.984 . S
N291 H297 0.985 . S
C292 C286 1.379 . S
C292 C289 1.363 1_655 S
C292 N290 1.356 . S
C293 C287 1.363 . S
C293 C288 1.379 . S
C293 N291 1.356 . S
N294 C286 1.356 . S
N294 H300 0.984 . S
N294 H301 0.984 . S
N295 C288 1.356 . S
N295 H298 0.984 . S
N295 H299 0.985 . S
H296 N291 0.984 . S
H297 N291 0.985 . S
H298 N295 0.984 . S
H299 N295 0.985 . S
H300 N294 0.984 . S
H301 N294 0.984 . S
H302 N290 0.984 . S
H303 N290 0.985 . S
C304 C305 1.361 . S
C304 C310 1.379 . S
C304 N312 1.356 . S
C305 C304 1.361 . S
C305 C311 1.365 1_545 S
C306 C307 1.363 . S
C306 C311 1.379 . S
C306 N313 1.356 . S
C307 C306 1.363 . S
C307 C310 1.363 1_565 S
N308 C310 1.356 . S
N308 H320 0.984 . S
N308 H321 0.985 1_554 S
N309 C311 1.356 . S
N309 H314 0.984 . S
N309 H315 0.985 . S
C310 C304 1.379 . S
C310 C307 1.363 1_545 S
C310 N308 1.356 . S
C311 C305 1.365 1_565 S
C311 C306 1.379 . S
C311 N309 1.356 . S
N312 C304 1.356 . S
N312 H318 0.984 . S
N312 H319 0.984 . S
N313 C306 1.356 . S
N313 H316 0.984 . S
N313 H317 0.985 . S
H314 N309 0.984 . S
H315 N309 0.985 . S
H316 N313 0.984 . S
H317 N313 0.985 . S
H318 N312 0.984 . S
H319 N312 0.984 . S
H320 N308 0.984 . S
H321 N308 0.985 1_556 S
C322 C323 1.363 . S
C322 C328 1.379 . S
C322 N330 1.356 . S
C323 C322 1.363 . S
C323 C329 1.363 . S
C324 C325 1.363 . S
C324 C329 1.379 . S
C324 N331 1.356 . S
C325 C324 1.363 . S
C325 C328 1.363 . S
N326 C328 1.356 . S
N326 H338 0.984 . S
N326 H339 0.985 1_554 S
N327 C329 1.356 . S
N327 H332 0.984 . S
N327 H333 0.985 . S
C328 C322 1.379 . S
C328 C325 1.363 . S
C328 N326 1.356 . S
C329 C323 1.363 . S
C329 C324 1.379 . S
C329 N327 1.356 . S
N330 C322 1.356 . S
N330 H336 0.984 . S
N330 H337 0.984 . S
N331 C324 1.356 . S
N331 H334 0.984 . S
N331 H335 0.985 . S
H332 N327 0.984 . S
H333 N327 0.985 . S
H334 N331 0.984 . S
H335 N331 0.985 . S
H336 N330 0.984 . S
H337 N330 0.984 . S
H338 N326 0.984 . S
H339 N326 0.985 1_556 S
C340 C341 1.363 . S
C340 C346 1.379 . S
C340 N348 1.356 . S
C341 C340 1.363 . S
C341 C347 1.363 . S
C342 C343 1.363 . S
C342 C347 1.379 . S
C342 N349 1.356 . S
C343 C342 1.363 . S
C343 C346 1.363 . S
N344 C346 1.356 . S
N344 H356 0.984 . S
N344 H357 0.985 . S
N345 C347 1.356 . S
N345 H350 0.984 . S
N345 H351 0.985 . S
C346 C340 1.379 . S
C346 C343 1.363 . S
C346 N344 1.356 . S
C347 C341 1.363 . S
C347 C342 1.379 . S
C347 N345 1.356 . S
N348 C340 1.356 . S
N348 H354 0.984 . S
N348 H355 0.984 . S
N349 C342 1.356 . S
N349 H352 0.984 1_554 S
N349 H353 0.985 . S
H350 N345 0.984 . S
H351 N345 0.985 . S
H352 N349 0.984 1_556 S
H353 N349 0.985 . S
H354 N348 0.984 . S
H355 N348 0.984 . S
H356 N344 0.984 . S
H357 N344 0.985 . S
C358 C359 1.363 . S
C358 C364 1.379 . S
C358 N366 1.356 . S
C359 C358 1.363 . S
C359 C365 1.363 1_655 S
C360 C361 1.363 1_455 S
C360 C365 1.379 . S
C360 N367 1.356 . S
C361 C360 1.363 1_655 S
C361 C364 1.363 . S
N362 C364 1.356 . S
N362 H374 0.984 . S
N362 H375 0.985 1_554 S
N363 C365 1.356 . S
N363 H368 0.984 . S
N363 H369 0.985 . S
C364 C358 1.379 . S
C364 C361 1.363 . S
C364 N362 1.356 . S
C365 C359 1.363 1_455 S
C365 C360 1.379 . S
C365 N363 1.356 . S
N366 C358 1.356 . S
N366 H372 0.984 . S
N366 H373 0.984 . S
N367 C360 1.356 . S
N367 H370 0.984 . S
N367 H371 0.985 . S
H368 N363 0.984 . S
H369 N363 0.985 . S
H370 N367 0.984 . S
H371 N367 0.985 . S
H372 N366 0.984 . S
H373 N366 0.984 . S
H374 N362 0.984 . S
H375 N362 0.985 1_556 S
C376 C377 1.363 . S
C376 C382 1.379 . S
C376 N384 1.356 1_655 S
C377 C376 1.363 . S
C377 C383 1.363 . S
C378 C379 1.363 . S
C378 C383 1.379 . S
C378 N385 1.356 . S
C379 C378 1.363 . S
C379 C382 1.363 . S
N380 C382 1.356 . S
N380 H392 0.984 . S
N380 H393 0.985 . S
N381 C383 1.356 . S
N381 H386 0.984 1_655 S
N381 H387 0.985 1_554 S
C382 C376 1.379 . S
C382 C379 1.363 . S
C382 N380 1.356 . S
C383 C377 1.363 . S
C383 C378 1.379 . S
C383 N381 1.356 . S
N384 C376 1.356 1_455 S
N384 H390 0.984 . S
N384 H391 0.984 . S
N385 C378 1.356 . S
N385 H388 0.984 . S
N385 H389 0.985 . S
H386 N381 0.984 1_455 S
H387 N381 0.985 1_556 S
H388 N385 0.984 . S
H389 N385 0.985 . S
H390 N384 0.984 . S
H391 N384 0.984 . S
H392 N380 0.984 . S
H393 N380 0.985 . S
C394 C395 1.363 . S
C394 C400 1.379 . S
C394 N402 1.356 . S
C395 C394 1.363 . S
C395 C401 1.363 . S
C396 C397 1.363 . S
C396 C401 1.379 . S
C396 N403 1.356 . S
C397 C396 1.363 . S
C397 C400 1.363 . S
N398 C400 1.356 . S
N398 H410 0.984 . S
N398 H411 0.985 . S
N399 C401 1.356 1_545 S
N399 H404 0.984 . S
N399 H405 0.985 . S
C400 C394 1.379 . S
C400 C397 1.363 . S
C400 N398 1.356 . S
C401 C395 1.363 . S
C401 C396 1.379 . S
C401 N399 1.356 1_565 S
N402 C394 1.356 . S
N402 H408 0.984 . S
N402 H409 0.984 . S
N403 C396 1.356 . S
N403 H406 0.984 . S
N403 H407 0.985 . S
H404 N399 0.984 . S
H405 N399 0.985 . S
H406 N403 0.984 . S
H407 N403 0.985 . S
H408 N402 0.984 . S
H409 N402 0.984 . S
H410 N398 0.984 . S
H411 N398 0.985 . S
C412 C413 1.363 . S
C412 C418 1.379 . S
C412 N420 1.356 . S
C413 C412 1.363 . S
C413 C419 1.363 . S
C414 C415 1.363 . S
C414 C419 1.379 . S
C414 N421 1.356 . S
C415 C414 1.363 . S
C415 C418 1.363 . S
N416 C418 1.356 . S
N416 H428 0.984 . S
N416 H429 0.985 . S
N417 C419 1.356 . S
N417 H422 0.984 . S
N417 H423 0.985 . S
C418 C412 1.379 . S
C418 C415 1.363 . S
C418 N416 1.356 . S
C419 C413 1.363 . S
C419 C414 1.379 . S
C419 N417 1.356 . S
N420 C412 1.356 . S
N420 H426 0.984 . S
N420 H427 0.984 . S
N421 C414 1.356 . S
N421 H424 0.984 . S
N421 H425 0.985 . S
H422 N417 0.984 . S
H423 N417 0.985 . S
H424 N421 0.984 . S
H425 N421 0.985 . S
H426 N420 0.984 . S
H427 N420 0.984 . S
H428 N416 0.984 . S
H429 N416 0.985 . S
C430 C431 1.363 . S
C430 C436 1.379 . S
C430 N438 1.356 . S
C431 C430 1.363 . S
C431 C437 1.363 . S
C432 C433 1.363 . S
C432 C437 1.379 . S
C432 N439 1.356 . S
C433 C432 1.363 . S
C433 C436 1.363 . S
N434 C436 1.356 . S
N434 H446 0.984 . S
N434 H447 0.985 . S
N435 C437 1.356 . S
N435 H440 0.984 . S
N435 H441 0.985 1_554 S
C436 C430 1.379 . S
C436 C433 1.363 . S
C436 N434 1.356 . S
C437 C431 1.363 . S
C437 C432 1.379 . S
C437 N435 1.356 . S
N438 C430 1.356 . S
N438 H444 0.984 . S
N438 H445 0.984 . S
N439 C432 1.356 . S
N439 H442 0.984 . S
N439 H443 0.985 . S
H440 N435 0.984 . S
H441 N435 0.985 1_556 S
H442 N439 0.984 . S
H443 N439 0.985 . S
H444 N438 0.984 . S
H445 N438 0.984 . S
H446 N434 0.984 . S
H447 N434 0.985 . S
C448 C449 1.363 . S
C448 C454 1.379 . S
C448 N456 1.356 1_455 S
C449 C448 1.363 . S
C449 C455 1.363 . S
C450 C451 1.363 . S
C450 C455 1.379 . S
C450 N457 1.356 . S
C451 C450 1.363 . S
C451 C454 1.363 . S
N452 C454 1.356 . S
N452 H464 0.984 . S
N452 H465 0.985 . S
N453 C455 1.356 . S
N453 H458 0.984 1_455 S
N453 H459 0.985 . S
C454 C448 1.379 . S
C454 C451 1.363 . S
C454 N452 1.356 . S
C455 C449 1.363 . S
C455 C450 1.379 . S
C455 N453 1.356 . S
N456 C448 1.356 1_655 S
N456 H462 0.984 . S
N456 H463 0.984 . S
N457 C450 1.356 . S
N457 H460 0.984 . S
N457 H461 0.985 . S
H458 N453 0.984 1_655 S
H459 N453 0.985 . S
H460 N457 0.984 . S
H461 N457 0.985 . S
H462 N456 0.984 . S
H463 N456 0.984 . S
H464 N452 0.984 . S
H465 N452 0.985 . S
C466 C467 1.363 . S
C466 C472 1.379 . S
C466 N474 1.356 1_545 S
C467 C466 1.363 . S
C467 C473 1.363 . S
C468 C469 1.363 . S
C468 C473 1.379 . S
C468 N475 1.356 . S
C469 C468 1.363 . S
C469 C472 1.363 . S
N470 C472 1.356 . S
N470 H482 0.984 . S
N470 H483 0.985 . S
N471 C473 1.356 . S
N471 H476 0.984 1_545 S
N471 H477 0.985 . S
C472 C466 1.379 . S
C472 C469 1.363 . S
C472 N470 1.356 . S
C473 C467 1.363 . S
C473 C468 1.379 . S
C473 N471 1.356 . S
N474 C466 1.356 1_565 S
N474 H480 0.984 . S
N474 H481 0.984 . S
N475 C468 1.356 . S
N475 H478 0.984 . S
N475 H479 0.985 . S
H476 N471 0.984 1_565 S
H477 N471 0.985 . S
H478 N475 0.984 . S
H479 N475 0.985 . S
H480 N474 0.984 . S
H481 N474 0.984 . S
H482 N470 0.984 . S
H483 N470 0.985 . S
C484 C485 1.363 . S
C484 C490 1.379 . S
C484 N492 1.356 . S
C485 C484 1.363 . S
C485 C491 1.363 . S
C486 C487 1.363 . S
C486 C491 1.379 . S
C486 N493 1.356 . S
C487 C486 1.363 . S
C487 C490 1.363 . S
N488 C490 1.356 . S
N488 H500 0.984 . S
N488 H501 0.985 . S
N489 C491 1.356 . S
N489 H494 0.984 . S
N489 H495 0.985 . S
C490 C484 1.379 . S
C490 C487 1.363 . S
C490 N488 1.356 . S
C491 C485 1.363 . S
C491 C486 1.379 . S
C491 N489 1.356 . S
N492 C484 1.356 . S
N492 H498 0.984 . S
N492 H499 0.984 . S
N493 C486 1.356 . S
N493 H496 0.984 . S
N493 H497 0.985 . S
H494 N489 0.984 . S
H495 N489 0.985 . S
H496 N493 0.984 . S
H497 N493 0.985 . S
H498 N492 0.984 . S
H499 N492 0.984 . S
H500 N488 0.984 . S
H501 N488 0.985 . S
C502 C503 1.363 . S
C502 C508 1.379 . S
C502 N510 1.356 . S
C503 C502 1.363 . S
C503 C509 1.363 . S
C504 C505 1.363 . S
C504 C509 1.379 . S
C504 N511 1.356 . S
C505 C504 1.363 . S
C505 C508 1.363 . S
N506 C508 1.356 . S
N506 H518 0.984 . S
N506 H519 0.985 . S
N507 C509 1.356 . S
N507 H512 0.984 . S
N507 H513 0.985 . S
C508 C502 1.379 . S
C508 C505 1.363 . S
C508 N506 1.356 . S
C509 C503 1.363 . S
C509 C504 1.379 . S
C509 N507 1.356 . S
N510 C502 1.356 . S
N510 H516 0.984 . S
N510 H517 0.984 . S
N511 C504 1.356 . S
N511 H514 0.984 . S
N511 H515 0.985 . S
H512 N507 0.984 . S
H513 N507 0.985 . S
H514 N511 0.984 . S
H515 N511 0.985 . S
H516 N510 0.984 . S
H517 N510 0.984 . S
H518 N506 0.984 . S
H519 N506 0.985 . S
C520 C521 1.363 . S
C520 C526 1.379 . S
C520 N528 1.356 . S
C521 C520 1.363 . S
C521 C527 1.363 1_455 S
C522 C523 1.363 1_655 S
C522 C527 1.379 . S
C522 N529 1.356 . S
C523 C522 1.363 1_455 S
C523 C526 1.363 . S
N524 C526 1.356 . S
N524 H536 0.984 1_556 S
N524 H537 0.985 . S
N525 C527 1.356 . S
N525 H530 0.984 . S
N525 H531 0.985 . S
C526 C520 1.379 . S
C526 C523 1.363 . S
C526 N524 1.356 . S
C527 C521 1.363 1_655 S
C527 C522 1.379 . S
C527 N525 1.356 . S
N528 C520 1.356 . S
N528 H534 0.984 1_556 S
N528 H535 0.984 . S
N529 C522 1.356 . S
N529 H532 0.984 . S
N529 H533 0.985 . S
H530 N525 0.984 . S
H531 N525 0.985 . S
H532 N529 0.984 . S
H533 N529 0.985 . S
H534 N528 0.984 1_554 S
H535 N528 0.984 . S
H536 N524 0.984 1_554 S
H537 N524 0.985 . S
C538 C539 1.363 . S
C538 C544 1.379 . S
C538 N546 1.356 . S
C539 C538 1.363 . S
C539 C545 1.363 1_545 S
C540 C541 1.363 1_565 S
C540 C545 1.379 . S
C540 N547 1.356 . S
C541 C540 1.363 1_545 S
C541 C544 1.363 . S
N542 C544 1.356 . S
N542 H554 0.984 1_556 S
N542 H555 0.985 . S
N543 C545 1.356 . S
N543 H548 0.984 . S
N543 H549 0.985 . S
C544 C538 1.379 . S
C544 C541 1.363 . S
C544 N542 1.356 . S
C545 C539 1.363 1_565 S
C545 C540 1.379 . S
C545 N543 1.356 . S
N546 C538 1.356 . S
N546 H552 0.984 1_556 S
N546 H553 0.984 . S
N547 C540 1.356 . S
N547 H550 0.984 . S
N547 H551 0.985 . S
H548 N543 0.984 . S
H549 N543 0.985 . S
H550 N547 0.984 . S
H551 N547 0.985 . S
H552 N546 0.984 1_554 S
H553 N546 0.984 . S
H554 N542 0.984 1_554 S
H555 N542 0.985 . S
C556 C557 1.363 . S
C556 C562 1.379 . S
C556 N564 1.356 . S
C557 C556 1.363 . S
C557 C563 1.363 . S
C558 C559 1.363 . S
C558 C563 1.379 . S
C558 N565 1.356 . S
C559 C558 1.363 . S
C559 C562 1.363 . S
N560 C562 1.356 . S
N560 H572 0.984 . S
N560 H573 0.985 . S
N561 C563 1.356 1_554 S
N561 H566 0.984 1_554 S
N561 H567 0.985 . S
C562 C556 1.379 . S
C562 C559 1.363 . S
C562 N560 1.356 . S
C563 C557 1.363 . S
C563 C558 1.379 . S
C563 N561 1.356 1_556 S
N564 C556 1.356 . S
N564 H570 0.984 . S
N564 H571 0.984 . S
N565 C558 1.356 . S
N565 H568 0.984 . S
N565 H569 0.985 1_556 S
H566 N561 0.984 1_556 S
H567 N561 0.985 . S
H568 N565 0.984 . S
H569 N565 0.985 1_554 S
H570 N564 0.984 . S
H571 N564 0.984 . S
H572 N560 0.984 . S
H573 N560 0.985 . S
C574 C575 1.363 . S
C574 C580 1.379 . S
C574 N582 1.356 . S
C575 C574 1.363 . S
C575 C581 1.363 . S
C576 C577 1.363 . S
C576 C581 1.379 . S
C576 N583 1.356 . S
C577 C576 1.363 . S
C577 C580 1.363 . S
N578 C580 1.356 . S
N578 H590 0.984 1_556 S
N578 H591 0.985 . S
N579 C581 1.356 . S
N579 H584 0.984 . S
N579 H585 0.985 . S
C580 C574 1.379 . S
C580 C577 1.363 . S
C580 N578 1.356 . S
C581 C575 1.363 . S
C581 C576 1.379 . S
C581 N579 1.356 . S
N582 C574 1.356 . S
N582 H588 0.984 1_556 S
N582 H589 0.984 . S
N583 C576 1.356 . S
N583 H586 0.984 . S
N583 H587 0.985 . S
H584 N579 0.984 . S
H585 N579 0.985 . S
H586 N583 0.984 . S
H587 N583 0.985 . S
H588 N582 0.984 1_554 S
H589 N582 0.984 . S
H590 N578 0.984 1_554 S
H591 N578 0.985 . S
C592 C593 1.363 1_455 S
C592 C598 1.379 . S
C592 N600 1.356 . S
C593 C592 1.363 1_655 S
C593 C599 1.363 . S
C594 C595 1.363 . S
C594 C599 1.379 . S
C594 N601 1.356 . S
C595 C594 1.363 . S
C595 C598 1.363 1_655 S
N596 C598 1.356 . S
N596 H608 0.984 . S
N596 H609 0.985 . S
N597 C599 1.356 . S
N597 H602 0.984 . S
N597 H603 0.985 . S
C598 C592 1.379 . S
C598 C595 1.363 1_455 S
C598 N596 1.356 . S
C599 C593 1.363 . S
C599 C594 1.379 . S
C599 N597 1.356 . S
N600 C592 1.356 . S
N600 H606 0.984 . S
N600 H607 0.984 . S
N601 C594 1.356 . S
N601 H604 0.984 . S
N601 H605 0.985 . S
H602 N597 0.984 . S
H603 N597 0.985 . S
H604 N601 0.984 . S
H605 N601 0.985 . S
H606 N600 0.984 . S
H607 N600 0.984 . S
H608 N596 0.984 . S
H609 N596 0.985 . S
C610 C611 1.363 . S
C610 C616 1.379 . S
C610 N618 1.356 . S
C611 C610 1.363 . S
C611 C617 1.363 1_565 S
C612 C613 1.359 1_545 S
C612 C617 1.380 . S
C612 N619 1.358 . S
C613 C612 1.359 1_565 S
C613 C616 1.363 . S
N614 C616 1.356 . S
N614 H626 0.984 . S
N614 H627 0.985 . S
N615 C617 1.356 . S
N615 H620 0.984 . S
N615 H621 0.985 . S
C616 C610 1.379 . S
C616 C613 1.363 . S
C616 N614 1.356 . S
C617 C611 1.363 1_545 S
C617 C612 1.380 . S
C617 N615 1.356 . S
N618 C610 1.356 . S
N618 H624 0.984 . S
N618 H625 0.984 . S
N619 C612 1.358 . S
N619 H622 0.984 . S
N619 H623 0.985 . S
H620 N615 0.984 . S
H621 N615 0.985 . S
H622 N619 0.984 . S
H623 N619 0.985 . S
H624 N618 0.984 . S
H625 N618 0.984 . S
H626 N614 0.984 . S
H627 N614 0.985 . S
C628 C629 1.363 . S
C628 C634 1.379 . S
C628 N636 1.356 . S
C629 C628 1.363 . S
C629 C635 1.363 . S
C630 C631 1.363 . S
C630 C635 1.379 . S
C630 N637 1.356 . S
C631 C630 1.363 . S
C631 C634 1.363 . S
N632 C634 1.356 . S
N632 H644 0.984 . S
N632 H645 0.985 . S
N633 C635 1.356 . S
N633 H638 0.984 . S
N633 H639 0.985 . S
C634 C628 1.379 . S
C634 C631 1.363 . S
C634 N632 1.356 . S
C635 C629 1.363 . S
C635 C630 1.379 . S
C635 N633 1.356 . S
N636 C628 1.356 . S
N636 H642 0.984 . S
N636 H643 0.984 . S
N637 C630 1.356 . S
N637 H640 0.984 . S
N637 H641 0.985 . S
H638 N633 0.984 . S
H639 N633 0.985 . S
H640 N637 0.984 . S
H641 N637 0.985 . S
H642 N636 0.984 . S
H643 N636 0.984 . S
H644 N632 0.984 . S
H645 N632 0.985 . S
C646 C647 1.363 . S
C646 C652 1.379 . S
C646 N654 1.356 . S
C647 C646 1.363 . S
C647 C653 1.363 . S
C648 C649 1.363 . S
C648 C653 1.379 . S
C648 N655 1.356 . S
C649 C648 1.363 . S
C649 C652 1.363 . S
N650 C652 1.356 . S
N650 H662 0.984 . S
N650 H663 0.985 . S
N651 C653 1.356 . S
N651 H656 0.984 . S
N651 H657 0.985 . S
C652 C646 1.379 . S
C652 C649 1.363 . S
C652 N650 1.356 . S
C653 C647 1.363 . S
C653 C648 1.379 . S
C653 N651 1.356 . S
N654 C646 1.356 . S
N654 H660 0.984 . S
N654 H661 0.984 . S
N655 C648 1.356 . S
N655 H658 0.984 . S
N655 H659 0.985 . S
H656 N651 0.984 . S
H657 N651 0.985 . S
H658 N655 0.984 . S
H659 N655 0.985 . S
H660 N654 0.984 . S
H661 N654 0.984 . S
H662 N650 0.984 . S
H663 N650 0.985 . S
C233 C61 1.998 1_545 S
C235 C81 2.272 1_545 S
C253 C121 2.297 . S
C251 C70 2.042 . S
C271 C161 2.308 . S
C269 C43 2.043 . S
C289 C201 2.289 . S
C287 C52 2.019 1_455 S
C307 C90 2.273 1_564 S
C305 C25 2.000 1_545 S
C323 C34 2.047 . S
C325 C130 2.299 1_554 S
C341 C7 2.041 . S
C343 C170 2.308 1_554 S
C359 C16 2.019 . S
C361 C210 2.289 1_654 S
C379 C87 0.910 . S
C377 C50 0.964 . S
C397 C127 0.895 . S
C395 C59 0.938 . S
C415 C167 0.878 . S
C413 C67 0.925 . S
C431 C41 0.941 . S
C433 C207 0.887 . S
C449 C14 0.968 1_455 S
C451 C78 0.913 . S
C469 C118 0.895 . S
C467 C23 0.941 1_545 S
C487 C158 0.878 . S
C485 C31 0.921 . S
C503 C5 0.950 . S
C505 C198 0.893 . S
C521 C49 2.317 1_455 S
C523 C91 2.611 . S
C539 C58 2.264 1_545 S
C541 C131 2.555 . S
C559 C171 2.540 . S
C557 C68 2.248 . S
C577 C211 2.595 . S
C575 C40 2.300 . S
C593 C13 2.316 . S
C595 C82 2.617 . S
C613 C122 2.555 . S
C611 C22 2.262 . S
C631 C162 2.540 . S
C629 C32 2.255 . S
C647 C4 2.299 . S
C649 C202 2.599 . S
