# Generated by pormake.
# Topology rtl, (3,6)-cn, num edge types: 1
# Building blocks:
#     Node 0, Type 0, BuildingBlock: PAMTOO_clean_linker_0, # of connection points: 3
#     Node 1, Type 0, BuildingBlock: PAMTOO_clean_linker_0, # of connection points: 3
#     Node 2, Type 0, BuildingBlock: PAMTOO_clean_linker_0, # of connection points: 3
#     Node 3, Type 0, BuildingBlock: PAMTOO_clean_linker_0, # of connection points: 3
#     Node 4, Type 1, BuildingBlock: LEVNOQ01_clean_sbu_1, # of connection points: 6
#     Node 5, Type 1, BuildingBlock: LEVNOQ01_clean_sbu_1, # of connection points: 6
#     Edge 6, Type (0, 1), BuildingBlock: UVAHIK_clean_linker_0, # of connection points: 2
#     Edge 7, Type (0, 1), BuildingBlock: UVAHIK_clean_linker_0, # of connection points: 2
#     Edge 8, Type (0, 1), BuildingBlock: UVAHIK_clean_linker_0, # of connection points: 2
#     Edge 9, Type (0, 1), BuildingBlock: UVAHIK_clean_linker_0, # of connection points: 2
#     Edge 10, Type (0, 1), BuildingBlock: UVAHIK_clean_linker_0, # of connection points: 2
#     Edge 11, Type (0, 1), BuildingBlock: UVAHIK_clean_linker_0, # of connection points: 2
#     Edge 12, Type (0, 1), BuildingBlock: UVAHIK_clean_linker_0, # of connection points: 2
#     Edge 13, Type (0, 1), BuildingBlock: UVAHIK_clean_linker_0, # of connection points: 2
#     Edge 14, Type (0, 1), BuildingBlock: UVAHIK_clean_linker_0, # of connection points: 2
#     Edge 15, Type (0, 1), BuildingBlock: UVAHIK_clean_linker_0, # of connection points: 2
#     Edge 16, Type (0, 1), BuildingBlock: UVAHIK_clean_linker_0, # of connection points: 2
#     Edge 17, Type (0, 1), BuildingBlock: UVAHIK_clean_linker_0, # of connection points: 2
# Relax obj value: 0.020
# Max RMSD: 0.118
# Mean RMSD: 0.092
data_MOF--net-rtl--node1-LEVNOQ01_clean_sbu_1--node2-PAMTOO_clean_linker_0--edge1-UVAHIK_clean_linker_0
_symmetry_space_group_name_H-M    P1
_symmetry_Int_Tables_number       1
_symmetry_cell_setting            triclinic
loop_
_symmetry_equiv_pos_as_xyz
'x, y, z'
_cell_length_a     45.539465
_cell_length_b     45.715109
_cell_length_c     28.774039
_cell_angle_alpha  92.058745
_cell_angle_beta   97.826962
_cell_angle_gamma 90.086013
loop_
_atom_site_label
_atom_site_type_symbol
_atom_site_fract_x
_atom_site_fract_y
_atom_site_fract_z
_atom_type_partial_charge
H0 H 0.14154 0.84994 0.0419 0.0
H1 H 0.20736 0.81298 0.14448 0.0
H2 H 0.20225 0.78528 0.99938 0.0
H3 H 0.205 0.73902 0.07682 0.0
C4 C 0.22264 0.75026 0.10181 0.0
O5 O 0.22878 0.77719 0.08493 0.0
H6 H 0.21446 0.75331 0.13634 0.0
C7 C 0.15971 0.83492 0.05064 0.0
C8 C 0.17034 0.81802 0.01484 0.0
C9 C 0.17309 0.8335 0.0974 0.0
C10 C 0.19709 0.81465 0.10842 0.0
C11 C 0.20708 0.79679 0.07331 0.0
C12 C 0.19407 0.79882 0.02645 0.0
H13 H 0.66769 0.65172 0.57514 0.0
H14 H 0.71621 0.71647 0.51021 0.0
H15 H 0.736 0.70357 0.65772 0.0
H16 H 0.73592 0.76358 0.63256 0.0
C17 C 0.74431 0.76164 0.59801 0.0
O18 O 0.74995 0.73267 0.5876 0.0
H19 H 0.727 0.77012 0.57083 0.0
C20 C 0.68466 0.66852 0.57738 0.0
C21 C 0.70085 0.67605 0.62137 0.0
C22 C 0.68974 0.68291 0.53666 0.0
C23 C 0.71198 0.70465 0.54059 0.0
C24 C 0.72859 0.71187 0.58415 0.0
C25 C 0.72306 0.6976 0.62426 0.0
H26 H 0.87881 0.16884 0.0366 0.0
H27 H 0.8212 0.22476 0.9484 0.0
H28 H 0.82546 0.23351 0.09805 0.0
H29 H 0.76491 0.23213 0.04014 0.0
C30 C 0.77034 0.24562 0.01097 0.0
O31 O 0.80018 0.25242 0.01743 0.0
H32 H 0.76474 0.23262 0.97746 0.0
C33 C 0.86242 0.18607 0.03278 0.0
C34 C 0.85373 0.20007 0.073 0.0
C35 C 0.85103 0.19495 0.98768 0.0
C36 C 0.83044 0.21781 0.98294 0.0
C37 C 0.82101 0.23135 0.02264 0.0
C38 C 0.83289 0.22279 0.06757 0.0
H39 H 0.33707 0.38666 0.47668 0.0
H40 H 0.28564 0.32252 0.5372 0.0
H41 H 0.27408 0.33155 0.38824 0.0
H42 H 0.21986 0.32387 0.42995 0.0
C43 C 0.22766 0.30766 0.45681 0.0
O44 O 0.25756 0.30279 0.45668 0.0
H45 H 0.22377 0.31658 0.49191 0.0
C46 C 0.32006 0.3698 0.47265 0.0
C47 C 0.30644 0.36107 0.4274 0.0
C48 C 0.31284 0.35606 0.51265 0.0
C49 C 0.29166 0.33335 0.50694 0.0
C50 C 0.27771 0.32478 0.4621 0.0
C51 C 0.28512 0.33852 0.42262 0.0
O52 O 0.03366 0.06493 0.65654 0.0
Mg53 Mg 0.07033 0.04544 0.62999 0.0
O54 O 0.99924 0.04111 0.60691 0.0
Mg55 Mg 0.02248 0.01717 0.54871 0.0
O56 O 0.06292 0.04797 0.55894 0.0
O57 O 0.10039 0.07126 0.60271 0.0
O58 O 0.04568 0.99381 0.49151 0.0
O59 O 0.00338 0.05559 0.49738 0.0
Mg60 Mg 0.98075 0.00702 0.48458 0.0
O61 O 0.98294 0.98154 0.54184 0.0
O62 O 0.01071 0.00235 0.43362 0.0
O63 O 0.95629 0.04539 0.48909 0.0
O64 O 0.95296 0.97269 0.47392 0.0
C65 C 0.06645 0.9801 0.63278 0.0
C66 C 0.00672 0.05858 0.64222 0.0
C67 C 0.08548 0.06557 0.56198 0.0
C68 C 0.03669 0.9938 0.44775 0.0
C69 C 0.97659 0.06351 0.48563 0.0
C70 C 0.96211 0.96606 0.51656 0.0
O71 O 0.0819 0.00235 0.64816 0.0
O72 O 0.0443 0.98214 0.60059 0.0
O73 O 0.5191 0.52141 0.14333 0.0
Mg74 Mg 0.51617 0.48666 0.09126 0.0
O75 O 0.5245 0.55094 0.08697 0.0
Mg76 Mg 0.50257 0.52034 0.02576 0.0
O77 O 0.54145 0.48457 0.03749 0.0
O78 O 0.55309 0.46329 0.10691 0.0
O79 O 0.48007 0.49024 0.96289 0.0
O80 O 0.5359 0.54076 0.98021 0.0
Mg81 Mg 0.46907 0.55976 0.94088 0.0
O82 O 0.46863 0.55608 0.01071 0.0
O83 O 0.45464 0.5185 0.91008 0.0
O84 O 0.51238 0.57332 0.9329 0.0
O85 O 0.43992 0.58783 0.97026 0.0
C86 C 0.45928 0.47681 0.08041 0.0
C87 C 0.52584 0.54641 0.13052 0.0
C88 C 0.55874 0.46802 0.06519 0.0
C89 C 0.46272 0.49345 0.92454 0.0
C90 C 0.53598 0.56081 0.95036 0.0
C91 C 0.44881 0.57623 0.00982 0.0
O92 O 0.47975 0.45831 0.08232 0.0
O93 O 0.46484 0.50284 0.06942 0.0
C94 C 0.22225 0.25273 0.46225 0.0
C95 C 0.21029 0.27949 0.44647 0.0
C96 C 0.20528 0.22708 0.45537 0.0
C97 C 0.12904 0.20189 0.44617 0.0
H98 H 0.16332 0.127 0.4169 0.0
C99 C 0.07405 0.09646 0.49203 0.0
C100 C 0.09441 0.08001 0.52126 0.0
C101 C 0.08424 0.11739 0.46342 0.0
C102 C 0.15328 0.14774 0.42475 0.0
H103 H 0.1709 0.30056 0.41266 0.0
H104 H 0.14096 0.25562 0.40115 0.0
H105 H 0.18978 0.17217 0.40583 0.0
H106 H 0.14082 0.07019 0.54056 0.0
H107 H 0.15859 0.10606 0.49083 0.0
H108 H 0.09358 0.17761 0.4682 0.0
C109 C 0.1637 0.25446 0.41787 0.0
C110 C 0.16847 0.17358 0.41849 0.0
C111 C 0.18083 0.28011 0.42431 0.0
C112 C 0.12473 0.08261 0.51811 0.0
C113 C 0.13487 0.10315 0.48936 0.0
C114 C 0.11395 0.17604 0.45278 0.0
C115 C 0.17573 0.22769 0.4335 0.0
C116 C 0.15709 0.20086 0.43099 0.0
C117 C 0.11489 0.12187 0.46351 0.0
C118 C 0.12655 0.14862 0.44415 0.0
H119 H 0.2446 0.25167 0.48063 0.0
H120 H 0.21494 0.20693 0.46886 0.0
H121 H 0.11974 0.22258 0.45626 0.0
H122 H 0.05059 0.09506 0.49448 0.0
H123 H 0.06826 0.13127 0.44354 0.0
C124 C 0.27745 0.74361 0.12906 0.0
C125 C 0.25009 0.73168 0.10842 0.0
C126 C 0.30267 0.72599 0.1359 0.0
C127 C 0.32714 0.64859 0.14136 0.0
H128 H 0.39602 0.67737 0.09123 0.0
C129 C 0.40661 0.57541 0.05475 0.0
C130 C 0.43517 0.58562 0.05102 0.0
C131 C 0.38818 0.59157 0.08088 0.0
C132 C 0.37743 0.66911 0.10674 0.0
H133 H 0.22718 0.69174 0.08168 0.0
H134 H 0.27116 0.66102 0.09309 0.0
H135 H 0.35488 0.71001 0.09898 0.0
H136 H 0.46812 0.61892 0.07449 0.0
H137 H 0.43628 0.6469 0.1216 0.0
H138 H 0.34929 0.60732 0.14743 0.0
C139 C 0.27325 0.68397 0.10385 0.0
C140 C 0.3537 0.6879 0.11094 0.0
C141 C 0.24814 0.7016 0.09673 0.0
C142 C 0.44622 0.61053 0.07751 0.0
C143 C 0.42783 0.6267 0.10386 0.0
C144 C 0.35097 0.6298 0.13741 0.0
C145 C 0.30087 0.696 0.12308 0.0
C146 C 0.32785 0.67754 0.12661 0.0
C147 C 0.398 0.61836 0.10343 0.0
C148 C 0.37594 0.63953 0.11833 0.0
H149 H 0.27934 0.7666 0.13959 0.0
H150 H 0.32358 0.73582 0.15125 0.0
H151 H 0.30772 0.64015 0.15447 0.0
H152 H 0.39757 0.55648 0.03383 0.0
H153 H 0.36536 0.58447 0.07937 0.0
C154 C 0.78504 0.78185 0.55739 0.0
C155 C 0.77219 0.77945 0.59869 0.0
C156 C 0.81052 0.79886 0.5572 0.0
C157 C 0.85121 0.86138 0.61863 0.0
H158 H 0.91167 0.83685 0.54304 0.0
C159 C 0.94655 0.93882 0.58395 0.0
C160 C 0.94816 0.94076 0.53572 0.0
C161 C 0.93006 0.91625 0.60011 0.0
C162 C 0.89505 0.84396 0.56451 0.0
H163 H 0.77596 0.79249 0.6724 0.0
H164 H 0.8206 0.82243 0.67215 0.0
H165 H 0.87246 0.80266 0.55502 0.0
H166 H 0.9354 0.91976 0.4671 0.0
H167 H 0.90718 0.88069 0.49507 0.0
H168 H 0.87327 0.90308 0.6266 0.0
C169 C 0.81089 0.81127 0.63984 0.0
C170 C 0.87254 0.82442 0.57121 0.0
C171 C 0.78543 0.7941 0.64004 0.0
C172 C 0.93438 0.91901 0.50445 0.0
C173 C 0.91839 0.89641 0.52055 0.0
C174 C 0.87378 0.88097 0.6119 0.0
C175 C 0.82367 0.81391 0.59836 0.0
C176 C 0.84982 0.83321 0.59705 0.0
C177 C 0.91552 0.89503 0.56837 0.0
C178 C 0.89536 0.87275 0.58344 0.0
H179 H 0.77511 0.77078 0.52511 0.0
H180 H 0.8195 0.80081 0.52447 0.0
H181 H 0.83396 0.86887 0.63857 0.0
H182 H 0.95698 0.95532 0.6088 0.0
H183 H 0.92828 0.91564 0.63722 0.0
C184 C 0.75597 0.29271 0.04962 0.0
C185 C 0.75233 0.2732 0.01052 0.0
C186 C 0.73783 0.31724 0.05108 0.0
C187 C 0.68459 0.36441 0.97886 0.0
H188 H 0.65423 0.37832 0.09708 0.0
C189 C 0.58388 0.43941 0.00595 0.0
C190 C 0.58503 0.45383 0.05006 0.0
C191 C 0.6069 0.4206 0.99666 0.0
C192 C 0.66284 0.37514 0.06399 0.0
H193 H 0.72731 0.26411 0.94192 0.0
H194 H 0.69522 0.30683 0.94466 0.0
H195 H 0.68945 0.33933 0.08987 0.0
H196 H 0.61203 0.46246 0.11713 0.0
H197 H 0.65245 0.43085 0.10044 0.0
H198 H 0.65732 0.40021 0.95298 0.0
C199 C 0.71241 0.30348 0.97388 0.0
C200 C 0.68308 0.35271 0.05988 0.0
C201 C 0.73064 0.27895 0.9724 0.0
C202 C 0.61047 0.45122 0.08307 0.0
C203 C 0.6335 0.43294 0.07361 0.0
C204 C 0.66422 0.38702 0.98301 0.0
C205 C 0.71547 0.32265 0.01359 0.0
C206 C 0.69433 0.34709 0.01739 0.0
C207 C 0.6314 0.41631 0.03126 0.0
C208 C 0.65326 0.39272 0.02579 0.0
H209 H 0.77254 0.28866 0.0794 0.0
H210 H 0.74107 0.3318 0.0819 0.0
H211 H 0.69294 0.36068 0.94567 0.0
H212 H 0.56438 0.44104 0.98005 0.0
H213 H 0.60463 0.40812 0.96365 0.0
C214 C 0.13119 0.85068 0.13864 0.0
C215 C 0.16152 0.8514 0.1346 0.0
C216 C 0.11994 0.86789 0.17305 0.0
C217 C 0.14239 0.9114 0.28418 0.0
H218 H 0.06287 0.9417 0.25472 0.0
C219 C 0.07714 0.96112 0.42641 0.0
C220 C 0.05548 0.98222 0.41351 0.0
C221 C 0.09255 0.94775 0.39262 0.0
C222 C 0.08532 0.93395 0.26351 0.0
H223 H 0.20395 0.87059 0.16298 0.0
H224 H 0.18421 0.90164 0.22222 0.0
H225 H 0.08487 0.91416 0.19518 0.0
H226 H 0.03435 0.00742 0.35608 0.0
H227 H 0.0622 0.98533 0.29762 0.0
H228 H 0.14322 0.93237 0.352 0.0
C229 C 0.16914 0.88721 0.19972 0.0
C230 C 0.09778 0.91755 0.22944 0.0
C231 C 0.18048 0.86956 0.16571 0.0
C232 C 0.05064 0.99087 0.36681 0.0
C233 C 0.06647 0.978 0.33326 0.0
C234 C 0.13008 0.92827 0.31811 0.0
C235 C 0.13867 0.88668 0.20373 0.0
C236 C 0.12626 0.90559 0.2395 0.0
C237 C 0.08702 0.95563 0.34536 0.0
C238 C 0.1012 0.93944 0.30845 0.0
H239 H 0.11621 0.83653 0.1154 0.0
H240 H 0.09652 0.86621 0.17576 0.0
H241 H 0.16429 0.90242 0.29344 0.0
H242 H 0.08123 0.95396 0.46219 0.0
H243 H 0.10788 0.93041 0.40336 0.0
C244 C 0.68695 0.63262 0.66524 0.0
C245 C 0.69312 0.66274 0.66449 0.0
C246 C 0.67665 0.62081 0.70424 0.0
C247 C 0.63375 0.64297 0.79711 0.0
H248 H 0.6565 0.56814 0.84992 0.0
C249 C 0.57214 0.59946 0.93941 0.0
C250 C 0.5637 0.56993 0.93431 0.0
C251 C 0.59409 0.61015 0.91503 0.0
C252 C 0.64978 0.589 0.8354 0.0
H253 H 0.6943 0.70388 0.70469 0.0
H254 H 0.67645 0.68324 0.77272 0.0
H255 H 0.68345 0.58791 0.78985 0.0
H256 H 0.57209 0.52796 0.9018 0.0
H257 H 0.6098 0.54673 0.85742 0.0
H258 H 0.59931 0.64377 0.84026 0.0
C259 C 0.67948 0.6688 0.74309 0.0
C260 C 0.66528 0.60033 0.8011 0.0
C261 C 0.68993 0.68056 0.70429 0.0
C262 C 0.57865 0.55078 0.90662 0.0
C263 C 0.60024 0.56161 0.88127 0.0
C264 C 0.61814 0.63159 0.83084 0.0
C265 C 0.67211 0.63894 0.74307 0.0
C266 C 0.65728 0.62738 0.7815 0.0
C267 C 0.60736 0.5917 0.88377 0.0
C268 C 0.6258 0.6044 0.85039 0.0
H269 H 0.68951 0.6183 0.63526 0.0
H270 H 0.671 0.59775 0.70313 0.0
H271 H 0.62664 0.66358 0.78196 0.0
H272 H 0.56079 0.61456 0.96067 0.0
H273 H 0.59962 0.63324 0.91902 0.0
C274 C 0.87759 0.21162 0.1557 0.0
C275 C 0.86654 0.19083 0.1204 0.0
C276 C 0.89059 0.20265 0.19981 0.0
C277 C 0.93313 0.17383 0.27823 0.0
H278 H 0.89249 0.11365 0.33701 0.0
C279 C 0.98713 0.09917 0.42576 0.0
C280 C 0.96887 0.08967 0.45794 0.0
C281 C 0.97587 0.11787 0.39009 0.0
C282 C 0.904 0.13076 0.3215 0.0
H283 H 0.85995 0.14448 0.1038 0.0
H284 H 0.88229 0.12885 0.18079 0.0
H285 H 0.86969 0.13285 0.26307 0.0
H286 H 0.92588 0.0947 0.48144 0.0
H287 H 0.90656 0.12771 0.42016 0.0
H288 H 0.96781 0.17116 0.33657 0.0
C289 C 0.88104 0.15205 0.17437 0.0
C290 C 0.89104 0.14151 0.27882 0.0
C291 C 0.86842 0.16097 0.13023 0.0
C292 C 0.94034 0.10148 0.45679 0.0
C293 C 0.9292 0.1202 0.42149 0.0
C294 C 0.94631 0.16281 0.32093 0.0
C295 C 0.89232 0.17276 0.20961 0.0
C296 C 0.90557 0.16291 0.25643 0.0
C297 C 0.94626 0.12734 0.38628 0.0
C298 C 0.93191 0.14103 0.34289 0.0
H299 H 0.87663 0.23478 0.14892 0.0
H300 H 0.89896 0.21907 0.22641 0.0
H301 H 0.94489 0.19025 0.26159 0.0
H302 H 0.0091 0.0902 0.42554 0.0
H303 H 0.98957 0.12298 0.36348 0.0
C304 C 0.33845 0.34486 0.59321 0.0
C305 C 0.32755 0.36551 0.56016 0.0
C306 C 0.35287 0.35401 0.63751 0.0
C307 C 0.35985 0.41728 0.72143 0.0
H308 H 0.43492 0.38324 0.77196 0.0
C309 C 0.42043 0.4604 0.89716 0.0
C310 C 0.45018 0.46791 0.89628 0.0
C311 C 0.40547 0.44193 0.86196 0.0
C312 C 0.41392 0.39287 0.75837 0.0
H313 H 0.32277 0.41188 0.54796 0.0
H314 H 0.34788 0.42781 0.62498 0.0
H315 H 0.40817 0.36369 0.69766 0.0
H316 H 0.48819 0.4614 0.85966 0.0
H317 H 0.4621 0.42905 0.79773 0.0
H318 H 0.36583 0.44706 0.78086 0.0
C319 C 0.34526 0.40456 0.6168 0.0
C320 C 0.39851 0.38155 0.71603 0.0
C321 C 0.33112 0.39544 0.57251 0.0
C322 C 0.46536 0.45535 0.86139 0.0
C323 C 0.45037 0.4369 0.82597 0.0
C324 C 0.3751 0.42844 0.76373 0.0
C325 C 0.35634 0.38397 0.64981 0.0
C326 C 0.37158 0.39405 0.69667 0.0
C327 C 0.41991 0.43097 0.82482 0.0
C328 C 0.40254 0.4167 0.78243 0.0
H329 H 0.33624 0.32164 0.58456 0.0
H330 H 0.36104 0.33764 0.66228 0.0
H331 H 0.33899 0.42716 0.70772 0.0
H332 H 0.40826 0.47021 0.92353 0.0
H333 H 0.38217 0.43741 0.86255 0.0
C334 C 0.68401 0.67543 0.44845 0.0
C335 C 0.67151 0.67542 0.49056 0.0
C336 C 0.66706 0.66732 0.4056 0.0
C337 C 0.58875 0.6519 0.35006 0.0
H338 H 0.62753 0.60598 0.26048 0.0
C339 C 0.5308 0.56805 0.21217 0.0
C340 C 0.53803 0.56883 0.16629 0.0
C341 C 0.54523 0.58658 0.24779 0.0
C342 C 0.6165 0.61915 0.28488 0.0
H343 H 0.63068 0.66806 0.51974 0.0
H344 H 0.60196 0.65219 0.44622 0.0
H345 H 0.65689 0.62729 0.33058 0.0
H346 H 0.56532 0.59021 0.12132 0.0
H347 H 0.59128 0.62206 0.18424 0.0
H348 H 0.54806 0.64186 0.30529 0.0
C349 C 0.62465 0.65911 0.44577 0.0
C350 C 0.63332 0.63151 0.32508 0.0
C351 C 0.64142 0.66767 0.48839 0.0
C352 C 0.55921 0.58925 0.15633 0.0
C353 C 0.57415 0.60734 0.19227 0.0
C354 C 0.57188 0.63901 0.3103 0.0
C355 C 0.63723 0.65859 0.40371 0.0
C356 C 0.61965 0.64769 0.35871 0.0
C357 C 0.56759 0.6058 0.23844 0.0
C358 C 0.58557 0.62222 0.27768 0.0
H359 H 0.70712 0.68107 0.44856 0.0
H360 H 0.67749 0.66776 0.374 0.0
H361 H 0.57741 0.66481 0.37431 0.0
H362 H 0.51453 0.55256 0.2208 0.0
H363 H 0.5399 0.58486 0.28317 0.0
C364 C 0.87137 0.19812 0.91159 0.0
C365 C 0.86132 0.18088 0.94571 0.0
C366 C 0.88312 0.18497 0.87369 0.0
C367 C 0.88622 0.11797 0.80165 0.0
H368 H 0.96588 0.14384 0.79006 0.0
C369 C 0.96231 0.05639 0.6845 0.0
C370 C 0.984 0.07281 0.66668 0.0
C371 C 0.94395 0.06988 0.71414 0.0
C372 C 0.94339 0.13671 0.79181 0.0
H373 H 0.85439 0.13649 0.96605 0.0
H374 H 0.87464 0.1134 0.89909 0.0
H375 H 0.93943 0.16701 0.84896 0.0
H376 H 0.00219 0.11618 0.66218 0.0
H377 H 0.9691 0.1401 0.71095 0.0
H378 H 0.88991 0.08799 0.74382 0.0
C379 C 0.87353 0.13705 0.90196 0.0
C380 C 0.92834 0.14993 0.82592 0.0
C381 C 0.86221 0.15023 0.94034 0.0
C382 C 0.98581 0.10307 0.67615 0.0
C383 C 0.96703 0.11666 0.70454 0.0
C384 C 0.90111 0.10502 0.76674 0.0
C385 C 0.8846 0.15435 0.86884 0.0
C386 C 0.8997 0.14065 0.8313 0.0
C387 C 0.94665 0.10013 0.72554 0.0
C388 C 0.92997 0.11421 0.76142 0.0
H389 H 0.87105 0.22179 0.91505 0.0
H390 H 0.89145 0.19874 0.84847 0.0
H391 H 0.86407 0.11051 0.80517 0.0
H392 H 0.9607 0.03294 0.67769 0.0
H393 H 0.92868 0.05635 0.72974 0.0
C394 C 0.3208 0.40497 0.38486 0.0
C395 C 0.31531 0.37469 0.38519 0.0
C396 C 0.33073 0.41737 0.34599 0.0
C397 C 0.37112 0.39692 0.24791 0.0
H398 H 0.34586 0.47238 0.19998 0.0
C399 C 0.42151 0.44027 0.09434 0.0
C400 C 0.43215 0.46916 0.1 0.0
C401 C 0.40119 0.4302 0.12228 0.0
C402 C 0.35319 0.45133 0.2131 0.0
H403 H 0.31548 0.33382 0.34449 0.0
H404 H 0.33224 0.35547 0.27662 0.0
H405 H 0.32243 0.4518 0.26341 0.0
H406 H 0.42824 0.51094 0.13644 0.0
H407 H 0.39319 0.49315 0.18653 0.0
H408 H 0.40237 0.39654 0.19914 0.0
C409 C 0.32915 0.36962 0.30656 0.0
C410 C 0.3398 0.43957 0.24942 0.0
C411 C 0.31924 0.35724 0.34531 0.0
C412 C 0.42022 0.48857 0.1313 0.0
C413 C 0.40017 0.47833 0.16 0.0
C414 C 0.38448 0.40864 0.21192 0.0
C415 C 0.33547 0.39974 0.30671 0.0
C416 C 0.34868 0.41221 0.26722 0.0
C417 C 0.39156 0.44863 0.15728 0.0
C418 C 0.37574 0.43597 0.19395 0.0
H419 H 0.31763 0.41908 0.41479 0.0
H420 H 0.33559 0.44061 0.34734 0.0
H421 H 0.379 0.37614 0.26152 0.0
H422 H 0.43019 0.42497 0.07005 0.0
H423 H 0.39428 0.40746 0.11818 0.0
C424 C 0.17517 0.82954 0.9319 0.0
C425 C 0.1572 0.82174 0.96543 0.0
C426 C 0.1624 0.83782 0.88734 0.0
C427 C 0.09187 0.86811 0.82945 0.0
H428 H 0.13306 0.86359 0.72008 0.0
C429 C 0.05171 0.9327 0.66472 0.0
C430 C 0.07395 0.95197 0.65495 0.0
C431 C 0.05898 0.90916 0.69399 0.0
C432 C 0.12115 0.86474 0.7502 0.0
H433 H 0.11203 0.81431 0.97792 0.0
H434 H 0.08966 0.82749 0.89959 0.0
H435 H 0.15105 0.83537 0.78856 0.0
H436 H 0.12125 0.96051 0.6647 0.0
H437 H 0.13395 0.91922 0.71454 0.0
H438 H 0.06234 0.8979 0.79126 0.0
C439 C 0.11356 0.82833 0.90795 0.0
C440 C 0.13157 0.84878 0.78963 0.0
C441 C 0.12633 0.82055 0.95273 0.0
C442 C 0.10367 0.94604 0.67187 0.0
C443 C 0.11096 0.92229 0.70018 0.0
C444 C 0.08125 0.88372 0.78982 0.0
C445 C 0.13135 0.83806 0.87514 0.0
C446 C 0.11767 0.85104 0.83044 0.0
C447 C 0.08865 0.9042 0.71291 0.0
C448 C 0.09633 0.88296 0.75039 0.0
H449 H 0.19902 0.83089 0.94103 0.0
H450 H 0.17691 0.84552 0.86349 0.0
H451 H 0.08074 0.87088 0.86022 0.0
H452 H 0.02862 0.93689 0.65225 0.0
H453 H 0.04137 0.89548 0.70321 0.0
loop_
_geom_bond_atom_site_label_1
_geom_bond_atom_site_label_2
_geom_bond_distance
_geom_bond_site_symmetry_2
_ccdc_geom_bond_type
H0 C7 0.929 . S
H1 C10 0.930 . S
H2 C12 0.929 1_556 S
H3 C4 0.969 . S
C4 H3 0.969 . S
C4 O5 1.550 . S
C4 H6 0.973 . S
O5 C4 1.550 . S
O5 C11 1.412 . S
H6 C4 0.973 . S
C7 H0 0.929 . S
C7 C8 1.400 . S
C7 C9 1.364 . S
C8 C7 1.400 . S
C8 C12 1.377 . S
C9 C7 1.364 . S
C9 C10 1.374 . S
C10 H1 0.930 . S
C10 C9 1.374 . S
C10 C11 1.383 . S
C11 O5 1.412 . S
C11 C10 1.383 . S
C11 C12 1.394 . S
C12 H2 0.929 1_554 S
C12 C8 1.377 . S
C12 C11 1.394 . S
H13 C20 0.929 . S
H14 C23 0.930 . S
H15 C25 0.929 . S
H16 C17 0.969 . S
C17 H16 0.969 . S
C17 O18 1.550 . S
C17 H19 0.973 . S
O18 C17 1.550 . S
O18 C24 1.412 . S
H19 C17 0.973 . S
C20 H13 0.929 . S
C20 C21 1.400 . S
C20 C22 1.364 . S
C21 C20 1.400 . S
C21 C25 1.377 . S
C22 C20 1.364 . S
C22 C23 1.374 . S
C23 H14 0.930 . S
C23 C22 1.374 . S
C23 C24 1.383 . S
C24 O18 1.412 . S
C24 C23 1.383 . S
C24 C25 1.394 . S
C25 H15 0.929 . S
C25 C21 1.377 . S
C25 C24 1.394 . S
H26 C33 0.929 . S
H27 C36 0.930 . S
H28 C38 0.929 . S
H29 C30 0.969 . S
C30 H29 0.969 . S
C30 O31 1.550 1_556 S
C30 H32 0.973 . S
O31 C30 1.550 1_554 S
O31 C37 1.412 . S
H32 C30 0.973 . S
C33 H26 0.929 . S
C33 C34 1.400 . S
C33 C35 1.364 1_554 S
C34 C33 1.400 . S
C34 C38 1.377 . S
C35 C33 1.364 1_556 S
C35 C36 1.374 . S
C36 H27 0.930 . S
C36 C35 1.374 . S
C36 C37 1.383 1_556 S
C37 O31 1.412 . S
C37 C36 1.383 1_554 S
C37 C38 1.394 . S
C38 H28 0.929 . S
C38 C34 1.377 . S
C38 C37 1.394 . S
H39 C46 0.929 . S
H40 C49 0.930 . S
H41 C51 0.929 . S
H42 C43 0.969 . S
C43 H42 0.969 . S
C43 O44 1.550 . S
C43 H45 0.973 . S
O44 C43 1.550 . S
O44 C50 1.412 . S
H45 C43 0.973 . S
C46 H39 0.929 . S
C46 C47 1.400 . S
C46 C48 1.364 . S
C47 C46 1.400 . S
C47 C51 1.377 . S
C48 C46 1.364 . S
C48 C49 1.374 . S
C49 H40 0.930 . S
C49 C48 1.374 . S
C49 C50 1.383 . S
C50 O44 1.412 . S
C50 C49 1.383 . S
C50 C51 1.394 . S
C51 H41 0.929 . S
C51 C47 1.377 . S
C51 C50 1.394 . S
O52 Mg53 1.990 . S
O52 C66 1.253 1_455 S
Mg53 O52 1.990 . S
Mg53 O56 2.180 . S
Mg53 O57 2.117 . S
Mg53 O71 2.030 . S
O54 Mg55 2.072 1_655 S
O54 C66 1.260 . S
Mg55 O54 2.072 1_455 S
Mg55 O56 2.099 . S
Mg55 O58 2.079 1_545 S
Mg55 O59 2.072 1_455 S
Mg55 O61 2.099 1_445 S
Mg55 O72 2.079 1_545 S
O56 Mg53 2.180 . S
O56 Mg55 2.099 . S
O56 C67 1.279 . S
O57 Mg53 2.117 . S
O57 C67 1.250 . S
O58 Mg55 2.079 1_565 S
O58 C68 1.264 . S
O59 Mg55 2.072 1_655 S
O59 C69 1.260 . S
Mg60 O61 2.180 . S
Mg60 O62 2.030 1_655 S
Mg60 O63 1.990 1_565 S
Mg60 O64 2.117 . S
O61 Mg55 2.099 1_665 S
O61 Mg60 2.180 . S
O61 C70 1.279 . S
O62 Mg60 2.030 1_455 S
O62 C68 1.248 . S
O63 Mg60 1.990 1_545 S
O63 C69 1.253 . S
O64 Mg60 2.117 . S
O64 C70 1.250 . S
C65 O71 1.248 1_565 S
C65 O72 1.264 . S
C66 O52 1.253 1_655 S
C66 O54 1.260 . S
C67 O56 1.279 . S
C67 O57 1.250 . S
C68 O58 1.264 . S
C68 O62 1.248 . S
C69 O59 1.260 . S
C69 O63 1.253 . S
C70 O61 1.279 . S
C70 O64 1.250 . S
O71 Mg53 2.030 . S
O71 C65 1.248 1_545 S
O72 Mg55 2.079 1_565 S
O72 C65 1.264 . S
O73 Mg74 1.990 . S
O73 C87 1.253 . S
Mg74 O73 1.990 . S
Mg74 O77 2.180 . S
Mg74 O78 2.117 . S
Mg74 O92 2.030 . S
O75 Mg76 2.072 . S
O75 C87 1.260 . S
Mg76 O75 2.072 . S
Mg76 O77 2.099 . S
Mg76 O79 2.079 1_554 S
Mg76 O80 2.072 1_554 S
Mg76 O82 2.099 . S
Mg76 O93 2.079 . S
O77 Mg74 2.180 . S
O77 Mg76 2.099 . S
O77 C88 1.279 . S
O78 Mg74 2.117 . S
O78 C88 1.250 . S
O79 Mg76 2.079 1_556 S
O79 C89 1.264 . S
O80 Mg76 2.072 1_556 S
O80 C90 1.260 . S
Mg81 O82 2.180 1_556 S
Mg81 O83 2.030 . S
Mg81 O84 1.990 . S
Mg81 O85 2.117 . S
O82 Mg76 2.099 . S
O82 Mg81 2.180 1_554 S
O82 C91 1.279 . S
O83 Mg81 2.030 . S
O83 C89 1.248 . S
O84 Mg81 1.990 . S
O84 C90 1.253 . S
O85 Mg81 2.117 . S
O85 C91 1.250 1_556 S
C86 O92 1.248 . S
C86 O93 1.264 . S
C87 O73 1.253 . S
C87 O75 1.260 . S
C88 O77 1.279 . S
C88 O78 1.250 . S
C89 O79 1.264 . S
C89 O83 1.248 . S
C90 O80 1.260 . S
C90 O84 1.253 . S
C91 O82 1.279 . S
C91 O85 1.250 1_554 S
O92 Mg74 2.030 . S
O92 C86 1.248 . S
O93 Mg76 2.079 . S
O93 C86 1.264 . S
C94 C95 1.349 . S
C94 C96 1.327 . S
C94 H119 0.950 . S
C95 C94 1.349 . S
C95 C111 1.349 . S
C96 C94 1.327 . S
C96 C115 1.429 . S
C96 H120 0.950 . S
C97 C114 1.574 . S
C97 C116 1.368 . S
C97 H121 0.949 . S
H98 C102 0.949 . S
C99 C100 1.349 . S
C99 C101 1.327 . S
C99 H122 0.950 . S
C100 C99 1.349 . S
C100 C112 1.349 . S
C101 C99 1.327 . S
C101 C117 1.429 . S
C101 H123 0.950 . S
C102 H98 0.949 . S
C102 C110 1.574 . S
C102 C118 1.368 . S
H103 C111 0.950 . S
H104 C109 0.950 . S
H105 C110 0.949 . S
H106 C112 0.950 . S
H107 C113 0.950 . S
H108 C114 0.949 . S
C109 H104 0.950 . S
C109 C111 1.327 . S
C109 C115 1.429 . S
C110 C102 1.574 . S
C110 H105 0.949 . S
C110 C116 1.368 . S
C111 C95 1.349 . S
C111 H103 0.950 . S
C111 C109 1.327 . S
C112 C100 1.349 . S
C112 H106 0.950 . S
C112 C113 1.327 . S
C113 H107 0.950 . S
C113 C112 1.327 . S
C113 C117 1.429 . S
C114 C97 1.574 . S
C114 H108 0.949 . S
C114 C118 1.368 . S
C115 C96 1.429 . S
C115 C109 1.429 . S
C115 C116 1.523 . S
C116 C97 1.368 . S
C116 C110 1.368 . S
C116 C115 1.523 . S
C117 C101 1.429 . S
C117 C113 1.429 . S
C117 C118 1.523 . S
C118 C102 1.368 . S
C118 C114 1.368 . S
C118 C117 1.523 . S
H119 C94 0.950 . S
H120 C96 0.950 . S
H121 C97 0.949 . S
H122 C99 0.950 . S
H123 C101 0.950 . S
C124 C125 1.349 . S
C124 C126 1.327 . S
C124 H149 0.950 . S
C125 C124 1.349 . S
C125 C141 1.349 . S
C126 C124 1.327 . S
C126 C145 1.429 . S
C126 H150 0.950 . S
C127 C144 1.574 . S
C127 C146 1.368 . S
C127 H151 0.949 . S
H128 C132 0.949 . S
C129 C130 1.349 . S
C129 C131 1.327 . S
C129 H152 0.950 . S
C130 C129 1.349 . S
C130 C142 1.349 . S
C131 C129 1.327 . S
C131 C147 1.429 . S
C131 H153 0.950 . S
C132 H128 0.949 . S
C132 C140 1.574 . S
C132 C148 1.368 . S
H133 C141 0.950 . S
H134 C139 0.950 . S
H135 C140 0.949 . S
H136 C142 0.944 1_556 S
H137 C143 0.950 . S
H138 C144 0.949 . S
C139 H134 0.950 . S
C139 C141 1.327 . S
C139 C145 1.429 . S
C140 C132 1.574 . S
C140 H135 0.949 . S
C140 C146 1.368 . S
C141 C125 1.349 . S
C141 H133 0.950 . S
C141 C139 1.327 . S
C142 C130 1.349 . S
C142 H136 0.944 1_554 S
C142 C143 1.327 . S
C143 H137 0.950 . S
C143 C142 1.327 . S
C143 C147 1.429 . S
C144 C127 1.574 . S
C144 H138 0.949 . S
C144 C148 1.368 . S
C145 C126 1.429 . S
C145 C139 1.429 . S
C145 C146 1.523 . S
C146 C127 1.368 . S
C146 C140 1.368 . S
C146 C145 1.523 . S
C147 C131 1.429 . S
C147 C143 1.429 . S
C147 C148 1.523 . S
C148 C132 1.368 . S
C148 C144 1.368 . S
C148 C147 1.523 . S
H149 C124 0.950 . S
H150 C126 0.950 . S
H151 C127 0.949 . S
H152 C129 0.950 . S
H153 C131 0.950 . S
C154 C155 1.349 . S
C154 C156 1.327 . S
C154 H179 0.950 . S
C155 C154 1.349 . S
C155 C171 1.349 . S
C156 C154 1.327 . S
C156 C175 1.429 . S
C156 H180 0.950 . S
C157 C174 1.574 . S
C157 C176 1.368 . S
C157 H181 0.949 . S
H158 C162 0.949 . S
C159 C160 1.349 . S
C159 C161 1.327 . S
C159 H182 0.950 . S
C160 C159 1.349 . S
C160 C172 1.349 . S
C161 C159 1.327 . S
C161 C177 1.429 . S
C161 H183 0.950 . S
C162 H158 0.949 . S
C162 C170 1.574 . S
C162 C178 1.368 . S
H163 C171 0.950 . S
H164 C169 0.950 . S
H165 C170 0.949 . S
H166 C172 0.950 . S
H167 C173 0.950 . S
H168 C174 0.949 . S
C169 H164 0.950 . S
C169 C171 1.327 . S
C169 C175 1.429 . S
C170 C162 1.574 . S
C170 H165 0.949 . S
C170 C176 1.368 . S
C171 C155 1.349 . S
C171 H163 0.950 . S
C171 C169 1.327 . S
C172 C160 1.349 . S
C172 H166 0.950 . S
C172 C173 1.327 . S
C173 H167 0.950 . S
C173 C172 1.327 . S
C173 C177 1.429 . S
C174 C157 1.574 . S
C174 H168 0.949 . S
C174 C178 1.368 . S
C175 C156 1.429 . S
C175 C169 1.429 . S
C175 C176 1.523 . S
C176 C157 1.368 . S
C176 C170 1.368 . S
C176 C175 1.523 . S
C177 C161 1.429 . S
C177 C173 1.429 . S
C177 C178 1.523 . S
C178 C162 1.368 . S
C178 C174 1.368 . S
C178 C177 1.523 . S
H179 C154 0.950 . S
H180 C156 0.950 . S
H181 C157 0.949 . S
H182 C159 0.950 . S
H183 C161 0.950 . S
C184 C185 1.349 1_554 S
C184 C186 1.327 . S
C184 H209 0.950 . S
C185 C184 1.349 1_556 S
C185 C201 1.349 . S
C186 C184 1.327 . S
C186 C205 1.439 . S
C186 H210 0.950 . S
C187 C204 1.574 . S
C187 C206 1.368 1_556 S
C187 H211 0.949 . S
H188 C192 0.949 . S
C189 C190 1.349 1_556 S
C189 C191 1.327 . S
C189 H212 0.950 . S
C190 C189 1.349 1_554 S
C190 C202 1.349 . S
C191 C189 1.327 . S
C191 C207 1.429 1_556 S
C191 H213 0.950 . S
C192 H188 0.949 . S
C192 C200 1.574 . S
C192 C208 1.368 . S
H193 C201 0.950 . S
H194 C199 0.950 . S
H195 C200 0.949 . S
H196 C202 0.950 . S
H197 C203 0.950 . S
H198 C204 0.949 . S
C199 H194 0.950 . S
C199 C201 1.327 . S
C199 C205 1.416 1_556 S
C200 C192 1.574 . S
C200 H195 0.949 . S
C200 C206 1.368 . S
C201 C185 1.349 . S
C201 H193 0.950 . S
C201 C199 1.327 . S
C202 C190 1.349 . S
C202 H196 0.950 . S
C202 C203 1.327 . S
C203 H197 0.950 . S
C203 C202 1.327 . S
C203 C207 1.429 . S
C204 C187 1.574 . S
C204 H198 0.949 . S
C204 C208 1.368 1_556 S
C205 C186 1.439 . S
C205 C199 1.416 1_554 S
C205 C206 1.525 . S
C206 C187 1.368 1_554 S
C206 C200 1.368 . S
C206 C205 1.525 . S
C207 C191 1.429 1_554 S
C207 C203 1.429 . S
C207 C208 1.523 . S
C208 C192 1.368 . S
C208 C204 1.368 1_554 S
C208 C207 1.523 . S
H209 C184 0.950 . S
H210 C186 0.950 . S
H211 C187 0.949 . S
H212 C189 0.950 . S
H213 C191 0.950 . S
C214 C215 1.349 . S
C214 C216 1.327 . S
C214 H239 0.950 . S
C215 C214 1.349 . S
C215 C231 1.349 . S
C216 C214 1.327 . S
C216 C235 1.429 . S
C216 H240 0.950 . S
C217 C234 1.574 . S
C217 C236 1.368 . S
C217 H241 0.949 . S
H218 C222 0.949 . S
C219 C220 1.349 . S
C219 C221 1.327 . S
C219 H242 0.950 . S
C220 C219 1.349 . S
C220 C232 1.349 . S
C221 C219 1.327 . S
C221 C237 1.429 . S
C221 H243 0.950 . S
C222 H218 0.949 . S
C222 C230 1.574 . S
C222 C238 1.368 . S
H223 C231 0.950 . S
H224 C229 0.950 . S
H225 C230 0.949 . S
H226 C232 0.950 . S
H227 C233 0.950 . S
H228 C234 0.949 . S
C229 H224 0.950 . S
C229 C231 1.327 . S
C229 C235 1.429 . S
C230 C222 1.574 . S
C230 H225 0.949 . S
C230 C236 1.368 . S
C231 C215 1.349 . S
C231 H223 0.950 . S
C231 C229 1.327 . S
C232 C220 1.349 . S
C232 H226 0.950 . S
C232 C233 1.327 . S
C233 H227 0.950 . S
C233 C232 1.327 . S
C233 C237 1.429 . S
C234 C217 1.574 . S
C234 H228 0.949 . S
C234 C238 1.368 . S
C235 C216 1.429 . S
C235 C229 1.429 . S
C235 C236 1.523 . S
C236 C217 1.368 . S
C236 C230 1.368 . S
C236 C235 1.523 . S
C237 C221 1.429 . S
C237 C233 1.429 . S
C237 C238 1.523 . S
C238 C222 1.368 . S
C238 C234 1.368 . S
C238 C237 1.523 . S
H239 C214 0.950 . S
H240 C216 0.950 . S
H241 C217 0.949 . S
H242 C219 0.950 . S
H243 C221 0.950 . S
C244 C245 1.349 . S
C244 C246 1.327 . S
C244 H269 0.950 . S
C245 C244 1.349 . S
C245 C261 1.349 . S
C246 C244 1.327 . S
C246 C265 1.429 . S
C246 H270 0.950 . S
C247 C264 1.574 . S
C247 C266 1.368 . S
C247 H271 0.949 . S
H248 C252 0.949 . S
C249 C250 1.349 . S
C249 C251 1.327 . S
C249 H272 0.950 . S
C250 C249 1.349 . S
C250 C262 1.349 . S
C251 C249 1.327 . S
C251 C267 1.429 . S
C251 H273 0.950 . S
C252 H248 0.949 . S
C252 C260 1.574 . S
C252 C268 1.368 . S
H253 C261 0.950 . S
H254 C259 0.950 . S
H255 C260 0.949 . S
H256 C262 0.950 . S
H257 C263 0.950 . S
H258 C264 0.949 . S
C259 H254 0.950 . S
C259 C261 1.327 . S
C259 C265 1.429 . S
C260 C252 1.574 . S
C260 H255 0.949 . S
C260 C266 1.368 . S
C261 C245 1.349 . S
C261 H253 0.950 . S
C261 C259 1.327 . S
C262 C250 1.349 . S
C262 H256 0.950 . S
C262 C263 1.327 . S
C263 H257 0.950 . S
C263 C262 1.327 . S
C263 C267 1.429 . S
C264 C247 1.574 . S
C264 H258 0.949 . S
C264 C268 1.368 . S
C265 C246 1.429 . S
C265 C259 1.429 . S
C265 C266 1.523 . S
C266 C247 1.368 . S
C266 C260 1.368 . S
C266 C265 1.523 . S
C267 C251 1.429 . S
C267 C263 1.429 . S
C267 C268 1.523 . S
C268 C252 1.368 . S
C268 C264 1.368 . S
C268 C267 1.523 . S
H269 C244 0.950 . S
H270 C246 0.950 . S
H271 C247 0.949 . S
H272 C249 0.950 . S
H273 C251 0.950 . S
C274 C275 1.349 . S
C274 C276 1.327 . S
C274 H299 0.950 . S
C275 C274 1.349 . S
C275 C291 1.349 . S
C276 C274 1.327 . S
C276 C295 1.429 . S
C276 H300 0.950 . S
C277 C294 1.574 . S
C277 C296 1.368 . S
C277 H301 0.949 . S
H278 C282 0.949 . S
C279 C280 1.349 . S
C279 C281 1.327 . S
C279 H302 0.950 . S
C280 C279 1.349 . S
C280 C292 1.349 . S
C281 C279 1.327 . S
C281 C297 1.429 . S
C281 H303 0.950 . S
C282 H278 0.949 . S
C282 C290 1.574 . S
C282 C298 1.368 . S
H283 C291 0.950 . S
H284 C289 0.950 . S
H285 C290 0.949 . S
H286 C292 0.950 . S
H287 C293 0.950 . S
H288 C294 0.949 . S
C289 H284 0.950 . S
C289 C291 1.327 . S
C289 C295 1.429 . S
C290 C282 1.574 . S
C290 H285 0.949 . S
C290 C296 1.368 . S
C291 C275 1.349 . S
C291 H283 0.950 . S
C291 C289 1.327 . S
C292 C280 1.349 . S
C292 H286 0.950 . S
C292 C293 1.327 . S
C293 H287 0.950 . S
C293 C292 1.327 . S
C293 C297 1.429 . S
C294 C277 1.574 . S
C294 H288 0.949 . S
C294 C298 1.368 . S
C295 C276 1.429 . S
C295 C289 1.429 . S
C295 C296 1.523 . S
C296 C277 1.368 . S
C296 C290 1.368 . S
C296 C295 1.523 . S
C297 C281 1.429 . S
C297 C293 1.429 . S
C297 C298 1.523 . S
C298 C282 1.368 . S
C298 C294 1.368 . S
C298 C297 1.523 . S
H299 C274 0.950 . S
H300 C276 0.950 . S
H301 C277 0.949 . S
H302 C279 0.950 . S
H303 C281 0.950 . S
C304 C305 1.349 . S
C304 C306 1.327 . S
C304 H329 0.950 . S
C305 C304 1.349 . S
C305 C321 1.349 . S
C306 C304 1.327 . S
C306 C325 1.429 . S
C306 H330 0.950 . S
C307 C324 1.574 . S
C307 C326 1.368 . S
C307 H331 0.949 . S
H308 C312 0.949 . S
C309 C310 1.349 . S
C309 C311 1.327 . S
C309 H332 0.950 . S
C310 C309 1.349 . S
C310 C322 1.349 . S
C311 C309 1.327 . S
C311 C327 1.429 . S
C311 H333 0.950 . S
C312 H308 0.949 . S
C312 C320 1.574 . S
C312 C328 1.368 . S
H313 C321 0.950 . S
H314 C319 0.950 . S
H315 C320 0.949 . S
H316 C322 0.950 . S
H317 C323 0.950 . S
H318 C324 0.949 . S
C319 H314 0.950 . S
C319 C321 1.327 . S
C319 C325 1.429 . S
C320 C312 1.574 . S
C320 H315 0.949 . S
C320 C326 1.368 . S
C321 C305 1.349 . S
C321 H313 0.950 . S
C321 C319 1.327 . S
C322 C310 1.349 . S
C322 H316 0.950 . S
C322 C323 1.327 . S
C323 H317 0.950 . S
C323 C322 1.327 . S
C323 C327 1.429 . S
C324 C307 1.574 . S
C324 H318 0.949 . S
C324 C328 1.368 . S
C325 C306 1.429 . S
C325 C319 1.429 . S
C325 C326 1.523 . S
C326 C307 1.368 . S
C326 C320 1.368 . S
C326 C325 1.523 . S
C327 C311 1.429 . S
C327 C323 1.429 . S
C327 C328 1.523 . S
C328 C312 1.368 . S
C328 C324 1.368 . S
C328 C327 1.523 . S
H329 C304 0.950 . S
H330 C306 0.950 . S
H331 C307 0.949 . S
H332 C309 0.950 . S
H333 C311 0.950 . S
C334 C335 1.349 . S
C334 C336 1.327 . S
C334 H359 0.950 . S
C335 C334 1.349 . S
C335 C351 1.349 . S
C336 C334 1.327 . S
C336 C355 1.429 . S
C336 H360 0.950 . S
C337 C354 1.574 . S
C337 C356 1.368 . S
C337 H361 0.949 . S
H338 C342 0.949 . S
C339 C340 1.349 . S
C339 C341 1.327 . S
C339 H362 0.950 . S
C340 C339 1.349 . S
C340 C352 1.349 . S
C341 C339 1.327 . S
C341 C357 1.429 . S
C341 H363 0.950 . S
C342 H338 0.949 . S
C342 C350 1.574 . S
C342 C358 1.368 . S
H343 C351 0.950 . S
H344 C349 0.950 . S
H345 C350 0.949 . S
H346 C352 0.950 . S
H347 C353 0.950 . S
H348 C354 0.949 . S
C349 H344 0.950 . S
C349 C351 1.327 . S
C349 C355 1.429 . S
C350 C342 1.574 . S
C350 H345 0.949 . S
C350 C356 1.368 . S
C351 C335 1.349 . S
C351 H343 0.950 . S
C351 C349 1.327 . S
C352 C340 1.349 . S
C352 H346 0.950 . S
C352 C353 1.327 . S
C353 H347 0.950 . S
C353 C352 1.327 . S
C353 C357 1.429 . S
C354 C337 1.574 . S
C354 H348 0.949 . S
C354 C358 1.368 . S
C355 C336 1.429 . S
C355 C349 1.429 . S
C355 C356 1.523 . S
C356 C337 1.368 . S
C356 C350 1.368 . S
C356 C355 1.523 . S
C357 C341 1.429 . S
C357 C353 1.429 . S
C357 C358 1.523 . S
C358 C342 1.368 . S
C358 C354 1.368 . S
C358 C357 1.523 . S
H359 C334 0.950 . S
H360 C336 0.950 . S
H361 C337 0.949 . S
H362 C339 0.950 . S
H363 C341 0.950 . S
C364 C365 1.349 . S
C364 C366 1.327 . S
C364 H389 0.950 . S
C365 C364 1.349 . S
C365 C381 1.349 . S
C366 C364 1.327 . S
C366 C385 1.429 . S
C366 H390 0.950 . S
C367 C384 1.574 . S
C367 C386 1.368 . S
C367 H391 0.949 . S
H368 C372 0.949 . S
C369 C370 1.349 . S
C369 C371 1.327 . S
C369 H392 0.950 . S
C370 C369 1.349 . S
C370 C382 1.349 . S
C371 C369 1.327 . S
C371 C387 1.429 . S
C371 H393 0.950 . S
C372 H368 0.949 . S
C372 C380 1.574 . S
C372 C388 1.368 . S
H373 C381 0.950 . S
H374 C379 0.950 . S
H375 C380 0.949 . S
H376 C382 0.950 . S
H377 C383 0.950 . S
H378 C384 0.949 . S
C379 H374 0.950 . S
C379 C381 1.327 . S
C379 C385 1.429 . S
C380 C372 1.574 . S
C380 H375 0.949 . S
C380 C386 1.368 . S
C381 C365 1.349 . S
C381 H373 0.950 . S
C381 C379 1.327 . S
C382 C370 1.349 . S
C382 H376 0.950 . S
C382 C383 1.327 . S
C383 H377 0.950 . S
C383 C382 1.327 . S
C383 C387 1.429 . S
C384 C367 1.574 . S
C384 H378 0.949 . S
C384 C388 1.368 . S
C385 C366 1.429 . S
C385 C379 1.429 . S
C385 C386 1.523 . S
C386 C367 1.368 . S
C386 C380 1.368 . S
C386 C385 1.523 . S
C387 C371 1.429 . S
C387 C383 1.429 . S
C387 C388 1.523 . S
C388 C372 1.368 . S
C388 C384 1.368 . S
C388 C387 1.523 . S
H389 C364 0.950 . S
H390 C366 0.950 . S
H391 C367 0.949 . S
H392 C369 0.950 . S
H393 C371 0.950 . S
C394 C395 1.349 . S
C394 C396 1.327 . S
C394 H419 0.950 . S
C395 C394 1.349 . S
C395 C411 1.349 . S
C396 C394 1.327 . S
C396 C415 1.429 . S
C396 H420 0.950 . S
C397 C414 1.574 . S
C397 C416 1.368 . S
C397 H421 0.949 . S
H398 C402 0.949 . S
C399 C400 1.349 . S
C399 C401 1.327 . S
C399 H422 0.950 . S
C400 C399 1.349 . S
C400 C412 1.349 . S
C401 C399 1.327 . S
C401 C417 1.429 . S
C401 H423 0.950 . S
C402 H398 0.949 . S
C402 C410 1.574 . S
C402 C418 1.368 . S
H403 C411 0.950 . S
H404 C409 0.950 . S
H405 C410 0.949 . S
H406 C412 0.950 . S
H407 C413 0.950 . S
H408 C414 0.949 . S
C409 H404 0.950 . S
C409 C411 1.327 . S
C409 C415 1.429 . S
C410 C402 1.574 . S
C410 H405 0.949 . S
C410 C416 1.368 . S
C411 C395 1.349 . S
C411 H403 0.950 . S
C411 C409 1.327 . S
C412 C400 1.349 . S
C412 H406 0.950 . S
C412 C413 1.327 . S
C413 H407 0.950 . S
C413 C412 1.327 . S
C413 C417 1.429 . S
C414 C397 1.574 . S
C414 H408 0.949 . S
C414 C418 1.368 . S
C415 C396 1.429 . S
C415 C409 1.429 . S
C415 C416 1.523 . S
C416 C397 1.368 . S
C416 C410 1.368 . S
C416 C415 1.523 . S
C417 C401 1.429 . S
C417 C413 1.429 . S
C417 C418 1.523 . S
C418 C402 1.368 . S
C418 C414 1.368 . S
C418 C417 1.523 . S
H419 C394 0.950 . S
H420 C396 0.950 . S
H421 C397 0.949 . S
H422 C399 0.950 . S
H423 C401 0.950 . S
C424 C425 1.349 . S
C424 C426 1.327 . S
C424 H449 0.950 . S
C425 C424 1.349 . S
C425 C441 1.349 . S
C426 C424 1.327 . S
C426 C445 1.429 . S
C426 H450 0.950 . S
C427 C444 1.574 . S
C427 C446 1.368 . S
C427 H451 0.949 . S
H428 C432 0.949 . S
C429 C430 1.349 . S
C429 C431 1.327 . S
C429 H452 0.950 . S
C430 C429 1.349 . S
C430 C442 1.349 . S
C431 C429 1.327 . S
C431 C447 1.429 . S
C431 H453 0.950 . S
C432 H428 0.949 . S
C432 C440 1.574 . S
C432 C448 1.368 . S
H433 C441 0.950 1_554 S
H434 C439 0.950 . S
H435 C440 0.949 . S
H436 C442 0.950 . S
H437 C443 0.950 . S
H438 C444 0.949 . S
C439 H434 0.950 . S
C439 C441 1.327 . S
C439 C445 1.429 . S
C440 C432 1.574 . S
C440 H435 0.949 . S
C440 C446 1.368 . S
C441 C425 1.349 . S
C441 H433 0.950 1_556 S
C441 C439 1.327 . S
C442 C430 1.349 . S
C442 H436 0.950 . S
C442 C443 1.327 . S
C443 H437 0.950 . S
C443 C442 1.327 . S
C443 C447 1.429 . S
C444 C427 1.574 . S
C444 H438 0.949 . S
C444 C448 1.368 . S
C445 C426 1.429 . S
C445 C439 1.429 . S
C445 C446 1.523 . S
C446 C427 1.368 . S
C446 C440 1.368 . S
C446 C445 1.523 . S
C447 C431 1.429 . S
C447 C443 1.429 . S
C447 C448 1.523 . S
C448 C432 1.368 . S
C448 C444 1.368 . S
C448 C447 1.523 . S
H449 C424 0.950 . S
H450 C426 0.950 . S
H451 C427 0.949 . S
H452 C429 0.950 . S
H453 C431 0.950 . S
C100 C67 1.263 . S
C95 C43 1.389 . S
C125 C4 1.431 . S
C130 C91 1.269 . S
C155 C17 1.555 . S
C160 C70 1.411 . S
C185 C30 1.605 . S
C190 C88 1.416 . S
C220 C68 1.454 . S
C215 C9 1.471 . S
C250 C90 1.525 . S
C245 C21 1.593 . S
C275 C34 1.575 . S
C280 C69 1.521 . S
C305 C48 1.489 . S
C310 C89 1.441 . S
C340 C87 1.507 . S
C335 C22 1.556 . S
C370 C66 1.526 . S
C365 C35 1.570 . S
C400 C86 1.448 . S
C395 C47 1.488 . S
C425 C8 1.501 1_556 S
C430 C65 1.447 . S
