# Generated by pormake.
# Topology ptr, (4,4)-cn, num edge types: 1
# Building blocks:
#     Node 0, Type 0, BuildingBlock: QUQFOY_clean_sbu_1, # of connection points: 4
#     Node 1, Type 0, BuildingBlock: QUQFOY_clean_sbu_1, # of connection points: 4
#     Node 2, Type 0, BuildingBlock: QUQFOY_clean_sbu_1, # of connection points: 4
#     Node 3, Type 0, BuildingBlock: QUQFOY_clean_sbu_1, # of connection points: 4
#     Node 4, Type 0, BuildingBlock: QUQFOY_clean_sbu_1, # of connection points: 4
#     Node 5, Type 0, BuildingBlock: QUQFOY_clean_sbu_1, # of connection points: 4
#     Node 6, Type 0, BuildingBlock: QUQFOY_clean_sbu_1, # of connection points: 4
#     Node 7, Type 0, BuildingBlock: QUQFOY_clean_sbu_1, # of connection points: 4
#     Node 8, Type 0, BuildingBlock: QUQFOY_clean_sbu_1, # of connection points: 4
#     Node 9, Type 0, BuildingBlock: QUQFOY_clean_sbu_1, # of connection points: 4
#     Node 10, Type 0, BuildingBlock: QUQFOY_clean_sbu_1, # of connection points: 4
#     Node 11, Type 0, BuildingBlock: QUQFOY_clean_sbu_1, # of connection points: 4
#     Node 12, Type 0, BuildingBlock: QUQFOY_clean_sbu_1, # of connection points: 4
#     Node 13, Type 0, BuildingBlock: QUQFOY_clean_sbu_1, # of connection points: 4
#     Node 14, Type 0, BuildingBlock: QUQFOY_clean_sbu_1, # of connection points: 4
#     Node 15, Type 0, BuildingBlock: QUQFOY_clean_sbu_1, # of connection points: 4
#     Node 16, Type 0, BuildingBlock: QUQFOY_clean_sbu_1, # of connection points: 4
#     Node 17, Type 0, BuildingBlock: QUQFOY_clean_sbu_1, # of connection points: 4
#     Node 18, Type 1, BuildingBlock: KUFVIS_clean_linker_0, # of connection points: 4
#     Node 19, Type 1, BuildingBlock: KUFVIS_clean_linker_0, # of connection points: 4
#     Node 20, Type 1, BuildingBlock: KUFVIS_clean_linker_0, # of connection points: 4
#     Node 21, Type 1, BuildingBlock: KUFVIS_clean_linker_0, # of connection points: 4
#     Node 22, Type 1, BuildingBlock: KUFVIS_clean_linker_0, # of connection points: 4
#     Node 23, Type 1, BuildingBlock: KUFVIS_clean_linker_0, # of connection points: 4
#     Node 24, Type 1, BuildingBlock: KUFVIS_clean_linker_0, # of connection points: 4
#     Node 25, Type 1, BuildingBlock: KUFVIS_clean_linker_0, # of connection points: 4
#     Node 26, Type 1, BuildingBlock: KUFVIS_clean_linker_0, # of connection points: 4
#     Node 27, Type 1, BuildingBlock: KUFVIS_clean_linker_0, # of connection points: 4
#     Node 28, Type 1, BuildingBlock: KUFVIS_clean_linker_0, # of connection points: 4
#     Node 29, Type 1, BuildingBlock: KUFVIS_clean_linker_0, # of connection points: 4
#     Node 30, Type 1, BuildingBlock: KUFVIS_clean_linker_0, # of connection points: 4
#     Node 31, Type 1, BuildingBlock: KUFVIS_clean_linker_0, # of connection points: 4
#     Node 32, Type 1, BuildingBlock: KUFVIS_clean_linker_0, # of connection points: 4
#     Node 33, Type 1, BuildingBlock: KUFVIS_clean_linker_0, # of connection points: 4
#     Node 34, Type 1, BuildingBlock: KUFVIS_clean_linker_0, # of connection points: 4
#     Node 35, Type 1, BuildingBlock: KUFVIS_clean_linker_0, # of connection points: 4
#     Edge 36, Type (0, 1), BuildingBlock: MIFKUJ_clean_linker_0, # of connection points: 2
#     Edge 37, Type (0, 1), BuildingBlock: MIFKUJ_clean_linker_0, # of connection points: 2
#     Edge 38, Type (0, 1), BuildingBlock: MIFKUJ_clean_linker_0, # of connection points: 2
#     Edge 39, Type (0, 1), BuildingBlock: MIFKUJ_clean_linker_0, # of connection points: 2
#     Edge 40, Type (0, 1), BuildingBlock: MIFKUJ_clean_linker_0, # of connection points: 2
#     Edge 41, Type (0, 1), BuildingBlock: MIFKUJ_clean_linker_0, # of connection points: 2
#     Edge 42, Type (0, 1), BuildingBlock: MIFKUJ_clean_linker_0, # of connection points: 2
#     Edge 43, Type (0, 1), BuildingBlock: MIFKUJ_clean_linker_0, # of connection points: 2
#     Edge 44, Type (0, 1), BuildingBlock: MIFKUJ_clean_linker_0, # of connection points: 2
#     Edge 45, Type (0, 1), BuildingBlock: MIFKUJ_clean_linker_0, # of connection points: 2
#     Edge 46, Type (0, 1), BuildingBlock: MIFKUJ_clean_linker_0, # of connection points: 2
#     Edge 47, Type (0, 1), BuildingBlock: MIFKUJ_clean_linker_0, # of connection points: 2
#     Edge 48, Type (0, 1), BuildingBlock: MIFKUJ_clean_linker_0, # of connection points: 2
#     Edge 49, Type (0, 1), BuildingBlock: MIFKUJ_clean_linker_0, # of connection points: 2
#     Edge 50, Type (0, 1), BuildingBlock: MIFKUJ_clean_linker_0, # of connection points: 2
#     Edge 51, Type (0, 1), BuildingBlock: MIFKUJ_clean_linker_0, # of connection points: 2
#     Edge 52, Type (0, 1), BuildingBlock: MIFKUJ_clean_linker_0, # of connection points: 2
#     Edge 53, Type (0, 1), BuildingBlock: MIFKUJ_clean_linker_0, # of connection points: 2
#     Edge 54, Type (0, 1), BuildingBlock: MIFKUJ_clean_linker_0, # of connection points: 2
#     Edge 55, Type (0, 1), BuildingBlock: MIFKUJ_clean_linker_0, # of connection points: 2
#     Edge 56, Type (0, 1), BuildingBlock: MIFKUJ_clean_linker_0, # of connection points: 2
#     Edge 57, Type (0, 1), BuildingBlock: MIFKUJ_clean_linker_0, # of connection points: 2
#     Edge 58, Type (0, 1), BuildingBlock: MIFKUJ_clean_linker_0, # of connection points: 2
#     Edge 59, Type (0, 1), BuildingBlock: MIFKUJ_clean_linker_0, # of connection points: 2
#     Edge 60, Type (0, 1), BuildingBlock: MIFKUJ_clean_linker_0, # of connection points: 2
#     Edge 61, Type (0, 1), BuildingBlock: MIFKUJ_clean_linker_0, # of connection points: 2
#     Edge 62, Type (0, 1), BuildingBlock: MIFKUJ_clean_linker_0, # of connection points: 2
#     Edge 63, Type (0, 1), BuildingBlock: MIFKUJ_clean_linker_0, # of connection points: 2
#     Edge 64, Type (0, 1), BuildingBlock: MIFKUJ_clean_linker_0, # of connection points: 2
#     Edge 65, Type (0, 1), BuildingBlock: MIFKUJ_clean_linker_0, # of connection points: 2
#     Edge 66, Type (0, 1), BuildingBlock: MIFKUJ_clean_linker_0, # of connection points: 2
#     Edge 67, Type (0, 1), BuildingBlock: MIFKUJ_clean_linker_0, # of connection points: 2
#     Edge 68, Type (0, 1), BuildingBlock: MIFKUJ_clean_linker_0, # of connection points: 2
#     Edge 69, Type (0, 1), BuildingBlock: MIFKUJ_clean_linker_0, # of connection points: 2
#     Edge 70, Type (0, 1), BuildingBlock: MIFKUJ_clean_linker_0, # of connection points: 2
#     Edge 71, Type (0, 1), BuildingBlock: MIFKUJ_clean_linker_0, # of connection points: 2
#     Edge 72, Type (0, 1), BuildingBlock: MIFKUJ_clean_linker_0, # of connection points: 2
#     Edge 73, Type (0, 1), BuildingBlock: MIFKUJ_clean_linker_0, # of connection points: 2
#     Edge 74, Type (0, 1), BuildingBlock: MIFKUJ_clean_linker_0, # of connection points: 2
#     Edge 75, Type (0, 1), BuildingBlock: MIFKUJ_clean_linker_0, # of connection points: 2
#     Edge 76, Type (0, 1), BuildingBlock: MIFKUJ_clean_linker_0, # of connection points: 2
#     Edge 77, Type (0, 1), BuildingBlock: MIFKUJ_clean_linker_0, # of connection points: 2
#     Edge 78, Type (0, 1), BuildingBlock: MIFKUJ_clean_linker_0, # of connection points: 2
#     Edge 79, Type (0, 1), BuildingBlock: MIFKUJ_clean_linker_0, # of connection points: 2
#     Edge 80, Type (0, 1), BuildingBlock: MIFKUJ_clean_linker_0, # of connection points: 2
#     Edge 81, Type (0, 1), BuildingBlock: MIFKUJ_clean_linker_0, # of connection points: 2
#     Edge 82, Type (0, 1), BuildingBlock: MIFKUJ_clean_linker_0, # of connection points: 2
#     Edge 83, Type (0, 1), BuildingBlock: MIFKUJ_clean_linker_0, # of connection points: 2
#     Edge 84, Type (0, 1), BuildingBlock: MIFKUJ_clean_linker_0, # of connection points: 2
#     Edge 85, Type (0, 1), BuildingBlock: MIFKUJ_clean_linker_0, # of connection points: 2
#     Edge 86, Type (0, 1), BuildingBlock: MIFKUJ_clean_linker_0, # of connection points: 2
#     Edge 87, Type (0, 1), BuildingBlock: MIFKUJ_clean_linker_0, # of connection points: 2
#     Edge 88, Type (0, 1), BuildingBlock: MIFKUJ_clean_linker_0, # of connection points: 2
#     Edge 89, Type (0, 1), BuildingBlock: MIFKUJ_clean_linker_0, # of connection points: 2
#     Edge 90, Type (0, 1), BuildingBlock: MIFKUJ_clean_linker_0, # of connection points: 2
#     Edge 91, Type (0, 1), BuildingBlock: MIFKUJ_clean_linker_0, # of connection points: 2
#     Edge 92, Type (0, 1), BuildingBlock: MIFKUJ_clean_linker_0, # of connection points: 2
#     Edge 93, Type (0, 1), BuildingBlock: MIFKUJ_clean_linker_0, # of connection points: 2
#     Edge 94, Type (0, 1), BuildingBlock: MIFKUJ_clean_linker_0, # of connection points: 2
#     Edge 95, Type (0, 1), BuildingBlock: MIFKUJ_clean_linker_0, # of connection points: 2
#     Edge 96, Type (0, 1), BuildingBlock: MIFKUJ_clean_linker_0, # of connection points: 2
#     Edge 97, Type (0, 1), BuildingBlock: MIFKUJ_clean_linker_0, # of connection points: 2
#     Edge 98, Type (0, 1), BuildingBlock: MIFKUJ_clean_linker_0, # of connection points: 2
#     Edge 99, Type (0, 1), BuildingBlock: MIFKUJ_clean_linker_0, # of connection points: 2
#     Edge 100, Type (0, 1), BuildingBlock: MIFKUJ_clean_linker_0, # of connection points: 2
#     Edge 101, Type (0, 1), BuildingBlock: MIFKUJ_clean_linker_0, # of connection points: 2
#     Edge 102, Type (0, 1), BuildingBlock: MIFKUJ_clean_linker_0, # of connection points: 2
#     Edge 103, Type (0, 1), BuildingBlock: MIFKUJ_clean_linker_0, # of connection points: 2
#     Edge 104, Type (0, 1), BuildingBlock: MIFKUJ_clean_linker_0, # of connection points: 2
#     Edge 105, Type (0, 1), BuildingBlock: MIFKUJ_clean_linker_0, # of connection points: 2
#     Edge 106, Type (0, 1), BuildingBlock: MIFKUJ_clean_linker_0, # of connection points: 2
#     Edge 107, Type (0, 1), BuildingBlock: MIFKUJ_clean_linker_0, # of connection points: 2
# Relax obj value: 0.020
# Max RMSD: 0.074
# Mean RMSD: 0.059
data_MOF--net-ptr--node1-QUQFOY_clean_sbu_1--node2-KUFVIS_clean_linker_0--edge1-MIFKUJ_clean_linker_0
_symmetry_space_group_name_H-M    P1
_symmetry_Int_Tables_number       1
_symmetry_cell_setting            triclinic
loop_
_symmetry_equiv_pos_as_xyz
'x, y, z'
_cell_length_a     104.49461
_cell_length_b     104.44814
_cell_length_c     64.346208
_cell_angle_alpha  90.044965
_cell_angle_beta   90.016565
_cell_angle_gamma 120.01894
loop_
_atom_site_label
_atom_site_type_symbol
_atom_site_fract_x
_atom_site_fract_y
_atom_site_fract_z
_atom_type_partial_charge
O0 O 0.02281 0.38541 0.03667 0.0
Cd1 Cd 0.02834 0.37714 0.0112 0.0
Cd2 Cd 0.99652 0.36212 0.00709 0.0
O3 O 0.99839 0.37321 0.03487 0.0
O4 O 0.04992 0.38433 0.01572 0.0
O5 O 0.03312 0.36066 0.01497 0.0
C6 C 0.04678 0.37078 0.01749 0.0
C7 C 0.97757 0.33726 0.00231 0.0
C8 C 0.01033 0.38266 0.04377 0.0
C9 C 0.0156 0.38427 0.97364 0.0
O10 O 1.00282 0.37535 0.98084 0.0
O11 O 0.02718 0.38604 0.98284 0.0
O12 O 0.9748 0.34797 0.00288 0.0
O13 O 0.99113 0.34056 0.00503 0.0
O14 O 0.62655 0.63875 0.03688 0.0
Cd15 Cd 0.6344 0.6518 0.0106 0.0
Cd16 Cd 0.64942 0.63546 0.00643 0.0
O17 O 0.63859 0.6264 0.03437 0.0
O18 O 0.62842 0.6672 0.01414 0.0
O19 O 0.65172 0.67271 0.01312 0.0
C20 C 0.64221 0.67709 0.01523 0.0
C21 C 0.67446 0.64226 0.00168 0.0
C22 C 0.62943 0.62905 0.04379 0.0
C23 C 0.62701 0.63161 0.97326 0.0
O24 O 0.63624 0.62809 0.98018 0.0
O25 O 0.625 0.6412 0.98266 0.0
O26 O 0.66415 0.62861 0.00273 0.0
O27 O 0.67065 0.6522 0.00392 0.0
O28 O 0.38196 0.00848 0.98074 0.0
Cd29 Cd 0.37618 0.01632 0.00651 0.0
Cd30 Cd 0.36011 0.9849 0.01528 0.0
O31 O 0.36975 0.98445 0.98719 0.0
O32 O 0.38357 0.03771 0.99991 0.0
O33 O 0.36 0.02173 0.00511 0.0
C34 C 0.37014 0.03506 1.00065 0.0
C35 C 0.3355 0.96641 0.02268 0.0
C36 C 0.37856 0.99533 0.97587 0.0
C37 C 0.38463 0.00545 0.04496 0.0
O38 O 0.37435 0.99246 0.04044 0.0
O39 O 0.38697 0.01645 0.03373 0.0
O40 O 0.34615 0.96357 0.0223 0.0
O41 O 0.3387 0.97977 0.01834 0.0
O42 O 0.99279 0.62434 0.99242 0.0
Cd43 Cd 0.98695 0.63182 0.01854 0.0
Cd44 Cd 0.01871 0.64682 0.0224 0.0
O45 O 0.01721 0.63698 0.9938 0.0
O46 O 0.96529 0.62391 0.01371 0.0
O47 O 0.98128 0.64776 0.01568 0.0
C48 C 0.96785 0.63729 0.01259 0.0
C49 C 0.03746 0.67151 0.0287 0.0
C50 C 1.0053 0.62759 0.98483 0.0
C51 C 0.99976 0.62368 0.05486 0.0
O52 O 0.01246 0.63246 0.04735 0.0
O53 O 0.98815 0.62254 0.04658 0.0
O54 O 0.04033 0.6609 0.0272 0.0
O55 O 0.02388 0.66821 0.02614 0.0
O56 O 0.38699 0.37028 0.99148 0.0
Cd57 Cd 0.3782 0.35658 0.01693 0.0
Cd58 Cd 0.3619 0.3718 0.01834 0.0
O59 O 0.37215 0.37962 0.98974 0.0
O60 O 0.38593 0.34251 0.01391 0.0
O61 O 0.36216 0.33515 0.0129 0.0
C62 C 0.37254 0.3319 0.01145 0.0
C63 C 0.33685 0.36495 0.02304 0.0
C64 C 0.3829 0.3785 0.98254 0.0
C65 C 0.38429 0.37748 0.05271 0.0
O66 O 0.37559 0.38105 0.04392 0.0
O67 O 0.38596 0.36708 0.04536 0.0
O68 O 0.3469 0.3785 0.01991 0.0
O69 O 0.34087 0.3551 0.0231 0.0
O70 O 0.63038 0.99976 0.05135 0.0
Cd71 Cd 0.63697 0.99237 0.02599 0.0
Cd72 Cd 0.65419 0.02442 0.0199 0.0
O73 O 0.64445 0.02404 0.0483 0.0
O74 O 0.62845 0.97071 0.03192 0.0
O75 O 0.65237 0.98595 0.02845 0.0
C76 C 0.64166 0.97275 0.03221 0.0
C77 C 0.67869 0.0435 0.01303 0.0
C78 C 0.63448 0.01276 0.05786 0.0
C79 C 0.63009 0.00507 0.98836 0.0
O80 O 0.64006 0.01779 0.99453 0.0
O81 O 0.62752 0.99344 0.99818 0.0
O82 O 0.66787 0.04605 0.0143 0.0
O83 O 0.67575 0.03009 0.0162 0.0
O84 O 0.68517 0.71815 0.37734 0.0
Cd85 Cd 0.6913 0.71069 0.35154 0.0
Cd86 Cd 0.65952 0.69373 0.34825 0.0
O87 O 0.66094 0.70316 0.37727 0.0
O88 O 0.7132 0.71899 0.35507 0.0
O89 O 0.6973 0.69505 0.35508 0.0
C90 C 0.7108 0.70569 0.35692 0.0
C91 C 0.64144 0.66881 0.34156 0.0
C92 C 0.67254 0.71368 0.38551 0.0
C93 C 0.67703 0.71737 0.3156 0.0
O94 O 0.66461 0.70806 0.3234 0.0
O95 O 0.68903 0.71925 0.32355 0.0
O96 O 0.63795 0.6789 0.34429 0.0
O97 O 0.65525 0.67273 0.34321 0.0
O98 O 0.2939 0.97097 0.37331 0.0
Cd99 Cd 0.30133 0.98441 0.34734 0.0
Cd100 Cd 0.31637 0.96766 0.3426 0.0
O101 O 0.30604 0.95872 0.37076 0.0
O102 O 0.29377 0.99846 0.35235 0.0
O103 O 0.31752 0.00592 0.35003 0.0
C104 C 0.30724 0.00914 0.3532 0.0
C105 C 0.34118 0.9738 0.33699 0.0
C106 C 0.29686 0.96132 0.3802 0.0
C107 C 0.29344 0.96403 0.31015 0.0
O108 O 0.30247 0.96023 0.31707 0.0
O109 O 0.29194 0.97403 0.31928 0.0
O110 O 0.3306 0.96027 0.33794 0.0
O111 O 0.33778 0.98399 0.33968 0.0
O112 O 0.04934 0.34289 0.31444 0.0
Cd113 Cd 0.04188 0.34893 0.34035 0.0
Cd114 Cd 0.02563 0.31716 0.34445 0.0
O115 O 0.03569 0.31853 0.31595 0.0
O116 O 0.04944 0.37058 0.33576 0.0
O117 O 0.02568 0.3543 0.33819 0.0
C118 C 0.03597 0.36783 0.33523 0.0
C119 C 1.00089 0.29867 0.3505 0.0
C120 C 0.0456 0.33019 0.30704 0.0
C121 C 0.04865 0.33555 0.37741 0.0
O122 O 0.03929 0.3229 0.37022 0.0
O123 O 0.0509 0.34734 0.36834 0.0
O124 O 0.01122 0.29549 0.34811 0.0
O125 O 1.00444 0.31238 0.34882 0.0
O126 O 0.66197 0.95653 0.32054 0.0
Cd127 Cd 0.65553 0.9643 0.34563 0.0
Cd128 Cd 0.68719 0.98169 0.34962 0.0
O129 O 0.6862 0.97144 0.32141 0.0
O130 O 0.63382 0.95652 0.34117 0.0
O131 O 0.65018 0.98034 0.34143 0.0
C132 C 0.63661 0.96995 0.33915 0.0
C133 C 0.7058 0.00656 0.35542 0.0
C134 C 0.67474 0.96083 0.31301 0.0
C135 C 0.66932 0.95857 0.38293 0.0
O136 O 0.68176 0.96818 0.37553 0.0
O137 O 0.65733 0.95591 0.37405 0.0
O138 O 0.70878 0.99602 0.3542 0.0
O139 O 0.69221 1.00313 0.35266 0.0
O140 O 0.0519 0.70357 0.32421 0.0
Cd141 Cd 0.04477 0.69009 0.35019 0.0
Cd142 Cd 0.02954 0.70683 0.35506 0.0
O143 O 0.03953 0.71559 0.32668 0.0
O144 O 0.05291 0.67657 0.34474 0.0
O145 O 0.02904 0.66835 0.34746 0.0
C146 C 0.03959 0.66559 0.34392 0.0
C147 C 1.00482 0.70087 0.36134 0.0
C148 C 0.04877 0.71308 0.31725 0.0
C149 C 0.0529 0.71082 0.38708 0.0
O150 O 0.04387 0.7146 0.38011 0.0
O151 O 0.05424 0.70062 0.37823 0.0
O152 O 0.01543 0.71436 0.35994 0.0
O153 O 0.00813 0.6906 0.35875 0.0
O154 O 0.2978 0.33227 0.38328 0.0
Cd155 Cd 0.30511 0.32621 0.35722 0.0
Cd156 Cd 0.32062 0.35818 0.35258 0.0
O157 O 0.31032 0.35668 0.38091 0.0
O158 O 0.29775 0.30455 0.36154 0.0
O159 O 0.32145 0.32106 0.35957 0.0
C160 C 0.31126 0.30745 0.36223 0.0
C161 C 0.345 0.37758 0.34604 0.0
C162 C 0.30096 0.34493 0.39025 0.0
C163 C 0.29732 0.33895 0.32034 0.0
O164 O 0.30669 0.35171 0.32713 0.0
O165 O 0.29545 0.32733 0.32951 0.0
O166 O 0.33407 0.37994 0.34767 0.0
O167 O 0.34225 0.36419 0.34885 0.0
O168 O 0.35456 0.05158 0.70356 0.0
Cd169 Cd 0.35964 0.04263 0.67838 0.0
Cd170 Cd 0.32795 0.02726 0.67563 0.0
O171 O 0.33014 0.03819 0.70358 0.0
O172 O 0.38138 0.04992 0.68147 0.0
O173 O 0.36444 0.02634 0.68395 0.0
C174 C 0.37819 0.0365 0.68493 0.0
C175 C 0.30942 1.00224 0.67089 0.0
C176 C 0.34214 0.0483 0.71155 0.0
C177 C 0.34594 0.04904 0.64135 0.0
O178 O 0.33342 0.04059 0.64962 0.0
O179 O 0.35772 0.05049 0.64949 0.0
O180 O 0.30627 0.01267 0.67214 0.0
O181 O 0.32314 0.0059 0.67296 0.0
O182 O 0.95832 0.3048 0.70474 0.0
Cd183 Cd 0.96613 0.31843 0.67902 0.0
Cd184 Cd 0.98094 0.30178 0.67423 0.0
O185 O 0.9708 0.29288 0.70255 0.0
O186 O 0.95909 0.3329 0.68395 0.0
O187 O 0.98271 0.33967 0.68244 0.0
C188 C 0.97268 0.34327 0.68538 0.0
C189 C 1.00586 0.30854 0.66809 0.0
C190 C 0.96142 0.29528 0.71178 0.0
C191 C 0.95808 0.29812 0.6418 0.0
O192 O 0.96691 0.2941 0.64889 0.0
O193 O 0.95683 0.30832 0.65077 0.0
O194 O 0.99558 0.2949 0.66954 0.0
O195 O 1.0021 0.31849 0.67067 0.0
O196 O 0.7164 0.6759 0.65018 0.0
Cd197 Cd 0.71028 0.684 0.67536 0.0
Cd198 Cd 0.69354 0.65206 0.68411 0.0
O199 O 0.70412 0.65187 0.65684 0.0
O200 O 0.71841 0.70553 0.66873 0.0
O201 O 0.69458 0.68997 0.6724 0.0
C202 C 0.70509 0.70322 0.6684 0.0
C203 C 0.66908 0.63278 0.69059 0.0
C204 C 0.71311 0.66274 0.64565 0.0
C205 C 0.71717 0.67269 0.71492 0.0
O206 O 0.70701 0.65975 0.70996 0.0
O207 O 0.71999 0.68377 0.70352 0.0
O208 O 0.68014 0.63056 0.6908 0.0
O209 O 0.67178 0.64596 0.68616 0.0
O210 O 0.32448 0.28877 0.65918 0.0
Cd211 Cd 0.31862 0.29713 0.68429 0.0
Cd212 Cd 0.35013 0.31292 0.68757 0.0
O213 O 0.34873 0.30342 0.65871 0.0
O214 O 0.29696 0.28913 0.67933 0.0
O215 O 0.31298 0.31301 0.68037 0.0
C216 C 0.29954 0.30249 0.67758 0.0
C217 C 0.36863 0.33774 0.69378 0.0
C218 C 0.33699 0.29286 0.65087 0.0
C219 C 0.33182 0.28986 0.72059 0.0
O220 O 0.34437 0.2984 0.71242 0.0
O221 O 0.32009 0.28877 0.71288 0.0
O222 O 0.37176 0.32733 0.69175 0.0
O223 O 0.35493 0.33415 0.69194 0.0
O224 O 0.7188 0.0374 0.65772 0.0
Cd225 Cd 0.71087 0.02459 0.68426 0.0
Cd226 Cd 0.69637 0.04161 0.68691 0.0
O227 O 0.70619 0.04923 0.65809 0.0
O228 O 0.71789 0.00994 0.68119 0.0
O229 O 0.69427 1.00323 0.6816 0.0
C230 C 0.70431 0.99954 0.67976 0.0
C231 C 0.67149 0.03503 0.69295 0.0
C232 C 0.71561 0.04656 0.64957 0.0
C233 C 0.71938 0.0464 0.71971 0.0
O234 O 0.71077 0.05039 0.71177 0.0
O235 O 0.72022 0.03559 0.71203 0.0
O236 O 0.68173 0.04861 0.69065 0.0
O237 O 0.67526 0.02502 0.69131 0.0
O238 O 0.96253 0.66591 0.71369 0.0
Cd239 Cd 0.97108 0.66013 0.68863 0.0
Cd240 Cd 0.98689 0.69158 0.68555 0.0
O241 O 0.97736 0.69016 0.71439 0.0
O242 O 0.96384 0.63853 0.69317 0.0
O243 O 0.98751 0.65527 0.69256 0.0
C244 C 0.97737 0.64161 0.69492 0.0
C245 C 0.01155 0.71017 0.67876 0.0
C246 C 0.96667 0.67844 0.72206 0.0
C247 C 0.96394 0.67341 0.65231 0.0
O248 O 0.97246 0.6859 0.66066 0.0
O249 O 0.96278 0.66162 0.65994 0.0
O250 O 1.00111 0.71321 0.68106 0.0
O251 O 0.00813 0.69652 0.68093 0.0
H252 H 0.22448 0.34742 0.14476 0.0
H253 H 0.1897 0.34328 0.10511 0.0
H254 H 0.18486 0.34118 0.17245 0.0
H255 H 0.16191 0.33096 0.16792 0.0
H256 H 0.12916 0.33359 0.13189 0.0
H257 H 0.1713 0.34738 0.10435 0.0
C258 C 0.21355 0.34608 0.1429 0.0
C259 C 0.20498 0.34395 0.1605 0.0
C260 C 0.2083 0.34628 0.12299 0.0
C261 C 0.19372 0.34364 0.12069 0.0
C262 C 0.18467 0.34167 0.13838 0.0
C263 C 0.19076 0.34202 0.15831 0.0
C264 C 0.16911 0.33936 0.13632 0.0
C265 C 0.15905 0.33396 0.15334 0.0
C266 C 0.14479 0.3321 0.15186 0.0
C267 C 0.14011 0.33489 0.13302 0.0
C268 C 0.14954 0.34015 0.11589 0.0
C269 C 0.1641 0.34272 0.11761 0.0
H270 H 0.67425 0.88257 0.13656 0.0
H271 H 0.66299 0.84279 0.10333 0.0
H272 H 0.6791 0.84897 0.16698 0.0
H273 H 0.66849 0.82525 0.16799 0.0
H274 H 0.67147 0.79184 0.13339 0.0
H275 H 0.67122 0.8272 0.10059 0.0
C276 C 0.67356 0.87185 0.13603 0.0
C277 C 0.67682 0.86641 0.15379 0.0
C278 C 0.66877 0.86345 0.11786 0.0
C279 C 0.66725 0.84926 0.11736 0.0
C280 C 0.67107 0.8436 0.13495 0.0
C281 C 0.67584 0.8525 0.15318 0.0
C282 C 0.67033 0.82869 0.13441 0.0
C283 C 0.66966 0.82113 0.15313 0.0
C284 C 0.67015 0.80788 0.15298 0.0
C285 C 0.67084 0.80189 0.13385 0.0
C286 C 0.67074 0.80855 0.11511 0.0
C287 C 0.67064 0.82198 0.11533 0.0
H288 H 0.21307 0.88291 0.13825 0.0
H289 H 0.18634 0.84208 0.10603 0.0
H290 H 0.17592 0.84819 0.16941 0.0
H291 H 0.16456 0.82454 0.17137 0.0
H292 H 0.13061 0.78775 0.13837 0.0
H293 H 0.16257 0.82514 0.10387 0.0
C294 C 0.20344 0.87188 0.13791 0.0
C295 C 0.19493 0.86623 0.15579 0.0
C296 C 0.20029 0.86331 0.11995 0.0
C297 C 0.18824 0.84869 0.11985 0.0
C298 C 0.17892 0.84279 0.13756 0.0
C299 C 0.18259 0.85192 0.15551 0.0
C300 C 0.16559 0.82729 0.13759 0.0
C301 C 0.15949 0.81975 0.15661 0.0
C302 C 0.14685 0.8056 0.15693 0.0
C303 C 0.1404 0.79865 0.1382 0.0
C304 C 0.14616 0.80554 0.1192 0.0
C305 C 0.15862 0.81987 0.1188 0.0
H306 H 0.35094 0.13082 0.88963 0.0
H307 H 0.34338 0.16075 0.92603 0.0
H308 H 0.34524 0.16367 0.85856 0.0
H309 H 0.33228 0.17424 0.86175 0.0
H310 H 0.33449 0.21088 0.89426 0.0
H311 H 0.34966 0.18449 0.92472 0.0
C312 C 0.34918 0.14021 0.89043 0.0
C313 C 0.34784 0.14653 0.87209 0.0
C314 C 0.34776 0.1454 0.90979 0.0
C315 C 0.34494 0.15725 0.91088 0.0
C316 C 0.34399 0.1643 0.89247 0.0
C317 C 0.34553 0.15866 0.87309 0.0
C318 C 0.34124 0.17726 0.89325 0.0
C319 C 0.33534 0.18084 0.87573 0.0
C320 C 0.33306 0.19301 0.876 0.0
C321 C 0.33602 0.20134 0.89414 0.0
C322 C 0.34174 0.19818 0.91178 0.0
C323 C 0.34467 0.18638 0.91121 0.0
H324 H 0.79885 0.1271 0.89492 0.0
H325 H 0.8261 0.16814 0.92643 0.0
H326 H 0.83521 0.16177 0.86249 0.0
H327 H 0.84645 0.18532 0.86024 0.0
H328 H 0.88059 0.22275 0.89189 0.0
H329 H 0.84992 0.18531 0.92762 0.0
C330 C 0.80846 0.13814 0.89498 0.0
C331 C 0.81653 0.14375 0.87672 0.0
C332 C 0.81196 0.14679 0.91294 0.0
C333 C 0.82393 0.16145 0.91263 0.0
C334 C 0.83285 0.16731 0.89455 0.0
C335 C 0.82884 0.1581 0.87665 0.0
C336 C 0.84608 0.1829 0.89406 0.0
C337 C 0.85172 0.1903 0.87482 0.0
C338 C 0.8642 0.20452 0.87402 0.0
C339 C 0.8709 0.21178 0.89248 0.0
C340 C 0.86568 0.205 0.91172 0.0
C341 C 0.85343 0.19052 0.91258 0.0
H342 H 0.79138 0.6659 0.89308 0.0
H343 H 0.82781 0.66994 0.92867 0.0
H344 H 0.82796 0.66743 0.8612 0.0
H345 H 0.85179 0.67961 0.86424 0.0
H346 H 0.88487 0.67485 0.8966 0.0
H347 H 0.84362 0.66154 0.92679 0.0
C348 C 0.80209 0.66657 0.89359 0.0
C349 C 0.80912 0.6668 0.87507 0.0
C350 C 0.80867 0.66749 0.91279 0.0
C351 C 0.82273 0.66876 0.91361 0.0
C352 C 0.83021 0.66892 0.89504 0.0
C353 C 0.82304 0.66781 0.87578 0.0
C354 C 0.84545 0.67051 0.89557 0.0
C355 C 0.85502 0.67611 0.8781 0.0
C356 C 0.86914 0.67756 0.87837 0.0
C357 C 0.87405 0.67393 0.8964 0.0
C358 C 0.86499 0.66837 0.91385 0.0
C359 C 0.85063 0.66638 0.91336 0.0
H360 H 0.88497 0.6702 0.47311 0.0
H361 H 0.85297 0.67501 0.43748 0.0
H362 H 0.85047 0.67275 0.50492 0.0
H363 H 0.82668 0.66201 0.49997 0.0
H364 H 0.79857 0.6758 0.4716 0.0
H365 H 0.83857 0.6851 0.4408 0.0
C366 C 0.875 0.671 0.4725 0.0
C367 C 0.8679 0.67072 0.49097 0.0
C368 C 0.86993 0.67294 0.45334 0.0
C369 C 0.85701 0.67404 0.45253 0.0
C370 C 0.84929 0.67348 0.47105 0.0
C371 C 0.85538 0.6724 0.49029 0.0
C372 C 0.83493 0.6738 0.47064 0.0
C373 C 0.82473 0.66765 0.48736 0.0
C374 C 0.81164 0.66837 0.48789 0.0
C375 C 0.80849 0.67493 0.47126 0.0
C376 C 0.81792 0.68063 0.45418 0.0
C377 C 0.83118 0.68017 0.45385 0.0
H378 H 0.34161 0.21795 0.47125 0.0
H379 H 0.33841 0.18179 0.43588 0.0
H380 H 0.33926 0.18126 0.50352 0.0
H381 H 0.34749 0.16652 0.50129 0.0
H382 H 0.34171 0.12847 0.46882 0.0
H383 H 0.33186 0.15856 0.43725 0.0
C384 C 0.34106 0.20729 0.47076 0.0
C385 C 0.34122 0.2005 0.48931 0.0
C386 C 0.33961 0.20039 0.45166 0.0
C387 C 0.33893 0.18655 0.45097 0.0
C388 C 0.33929 0.17935 0.4696 0.0
C389 C 0.3398 0.18641 0.48878 0.0
C390 C 0.33959 0.16491 0.46927 0.0
C391 C 0.34409 0.16012 0.48715 0.0
C392 C 0.34464 0.14697 0.48701 0.0
C393 C 0.34125 0.13864 0.46887 0.0
C394 C 0.33684 0.1429 0.45096 0.0
C395 C 0.33573 0.15582 0.45119 0.0
H396 H 0.88086 0.21492 0.47452 0.0
H397 H 0.85535 0.17418 0.44118 0.0
H398 H 0.84027 0.18146 0.50056 0.0
H399 H 0.8308 0.15735 0.50349 0.0
H400 H 0.79769 0.12071 0.46911 0.0
H401 H 0.83027 0.15877 0.43606 0.0
C402 C 0.87102 0.20409 0.47317 0.0
C403 C 0.8608 0.19902 0.48933 0.0
C404 C 0.86923 0.19524 0.45585 0.0
C405 C 0.85648 0.18111 0.45437 0.0
C406 C 0.84573 0.17572 0.47049 0.0
C407 C 0.84814 0.18499 0.48793 0.0
C408 C 0.83241 0.16033 0.46983 0.0
C409 C 0.826 0.15259 0.48857 0.0
C410 C 0.8135 0.13837 0.48833 0.0
C411 C 0.80742 0.13165 0.46933 0.0
C412 C 0.81345 0.13887 0.45058 0.0
C413 C 0.8259 0.15321 0.45072 0.0
H414 H 0.01848 0.46437 0.22104 0.0
H415 H 0.01086 0.49347 0.25936 0.0
H416 H 0.01227 0.49752 0.19201 0.0
H417 H 0.99969 0.50839 0.19618 0.0
H418 H 1.00243 0.54456 0.23072 0.0
H419 H 0.01722 0.5172 0.25911 0.0
C420 C 0.01661 0.47367 0.22246 0.0
C421 C 0.01508 0.48025 0.20454 0.0
C422 C 0.01531 0.47851 0.24218 0.0
C423 C 0.01229 0.49021 0.24397 0.0
C424 C 0.0112 0.49756 0.22599 0.0
C425 C 0.01267 0.49228 0.20626 0.0
C426 C 0.00857 0.51057 0.2276 0.0
C427 C 1.00278 0.51466 0.21047 0.0
C428 C 1.00076 0.52698 0.21147 0.0
C429 C 1.00379 0.53492 0.22999 0.0
C430 C 0.0095 0.5313 0.24718 0.0
C431 C 0.01217 0.51936 0.24592 0.0
H432 H 0.46223 0.4633 0.224 0.0
H433 H 0.49182 0.50264 0.25747 0.0
H434 H 0.50001 0.49702 0.19272 0.0
H435 H 0.51305 0.52057 0.19162 0.0
H436 H 0.54875 0.5556 0.22478 0.0
H437 H 0.51566 0.51877 0.25897 0.0
C438 C 0.4723 0.474 0.22447 0.0
C439 C 0.48056 0.47963 0.2064 0.0
C440 C 0.47646 0.48212 0.24294 0.0
C441 C 0.48917 0.49633 0.24323 0.0
C442 C 0.49819 0.50218 0.22521 0.0
C443 C 0.4936 0.49341 0.20685 0.0
C444 C 0.51217 0.51727 0.22531 0.0
C445 C 0.5184 0.52492 0.20638 0.0
C446 C 0.5316 0.53862 0.20617 0.0
C447 C 0.53852 0.54504 0.22491 0.0
C448 C 0.53272 0.53804 0.24384 0.0
C449 C 0.51964 0.52416 0.24413 0.0
H450 H 0.45789 0.99897 0.2284 0.0
H451 H 0.49374 0.99994 0.26168 0.0
H452 H 0.49544 1.00434 0.19447 0.0
H453 H 0.51899 0.0154 0.19827 0.0
H454 H 0.55043 0.0057 0.22534 0.0
H455 H 0.50934 0.99142 0.25673 0.0
C456 C 0.46878 1.00008 0.22813 0.0
C457 C 0.47634 1.0026 0.2093 0.0
C458 C 0.47494 0.99906 0.24684 0.0
C459 C 0.48897 1.00024 0.2469 0.0
C460 C 0.49677 1.00211 0.228 0.0
C461 C 0.49006 1.00308 0.20925 0.0
C462 C 0.51188 1.00334 0.2277 0.0
C463 C 0.52174 0.01033 0.21082 0.0
C464 C 0.53552 0.01108 0.20995 0.0
C465 C 0.53983 0.00525 0.22618 0.0
C466 C 0.53053 0.99829 0.24305 0.0
C467 C 0.51657 0.9973 0.24387 0.0
H468 H 0.55656 0.0124 0.80958 0.0
H469 H 0.52002 0.0081 0.77365 0.0
H470 H 0.51924 0.00975 0.84099 0.0
H471 H 0.49519 0.99452 0.83616 0.0
H472 H 0.46292 1.00271 0.80815 0.0
H473 H 0.50463 0.01822 0.77765 0.0
C474 C 0.54577 0.01154 0.80897 0.0
C475 C 0.53853 0.01104 0.82745 0.0
C476 C 0.53927 0.01065 0.78965 0.0
C477 C 0.52509 0.00913 0.78869 0.0
C478 C 0.5174 0.00852 0.80721 0.0
C479 C 0.52446 0.00966 0.82652 0.0
C480 C 0.50204 0.00651 0.80678 0.0
C481 C 0.49214 0.99925 0.82348 0.0
C482 C 0.47808 0.99788 0.82397 0.0
C483 C 0.4737 1.00356 0.80759 0.0
C484 C 0.48313 0.01089 0.79093 0.0
C485 C 0.49726 0.01223 0.79035 0.0
H486 H 1.00007 0.548 0.80463 0.0
H487 H 1.00543 0.51621 0.76951 0.0
H488 H 1.00122 0.51298 0.83687 0.0
H489 H 0.01207 0.50031 0.83545 0.0
H490 H 0.0076 0.4625 0.80365 0.0
H491 H 0.99863 0.49264 0.77046 0.0
C492 C 1.00098 0.5381 0.80421 0.0
C493 C 1.00084 0.53117 0.82275 0.0
C494 C 1.00242 0.53263 0.78513 0.0
C495 C 1.00394 0.51996 0.78449 0.0
C496 C 1.00372 0.51249 0.80314 0.0
C497 C 1.00202 0.51836 0.82222 0.0
C498 C 1.00516 0.49871 0.80292 0.0
C499 C 0.0093 0.49399 0.82122 0.0
C500 C 0.00974 0.48079 0.82153 0.0
C501 C 0.00711 0.47264 0.80333 0.0
C502 C 1.00352 0.4771 0.78487 0.0
C503 C 1.00214 0.48986 0.78472 0.0
H504 H 0.55278 0.54215 0.79947 0.0
H505 H 0.51803 0.50501 0.76804 0.0
H506 H 0.51351 0.51382 0.83305 0.0
H507 H 0.49687 0.49146 0.83572 0.0
H508 H 0.4583 0.45851 0.80502 0.0
H509 H 0.49488 0.48915 0.76813 0.0
C510 C 0.5419 0.53232 0.79992 0.0
C511 C 0.53393 0.52836 0.81841 0.0
C512 C 0.536 0.52416 0.7818 0.0
C513 C 0.52197 0.51131 0.78223 0.0
C514 C 0.51339 0.50686 0.80082 0.0
C515 C 0.51957 0.51603 0.81869 0.0
C516 C 0.49816 0.493 0.80173 0.0
C517 C 0.49125 0.48701 0.82117 0.0
C518 C 0.47677 0.47499 0.82226 0.0
C519 C 0.46927 0.46817 0.80403 0.0
C520 C 0.47595 0.47297 0.78465 0.0
C521 C 0.49026 0.48546 0.78342 0.0
H522 H 0.67228 0.79227 0.56306 0.0
H523 H 0.68402 0.83284 0.59434 0.0
H524 H 0.66843 0.82562 0.53032 0.0
H525 H 0.67884 0.84907 0.52803 0.0
H526 H 0.67958 0.88521 0.55996 0.0
H527 H 0.67688 0.84935 0.59557 0.0
C528 C 0.67315 0.80307 0.56296 0.0
C529 C 0.67021 0.80826 0.5447 0.0
C530 C 0.67794 0.81179 0.58083 0.0
C531 C 0.67979 0.82613 0.58051 0.0
C532 C 0.67627 0.83159 0.56238 0.0
C533 C 0.67147 0.8223 0.54451 0.0
C534 C 0.67757 0.84676 0.5619 0.0
C535 C 0.67837 0.85386 0.54268 0.0
C536 C 0.67894 0.86758 0.54199 0.0
C537 C 0.67911 0.87459 0.56051 0.0
C538 C 0.67857 0.86816 0.57973 0.0
C539 C 0.67775 0.85427 0.58049 0.0
H540 H 0.13285 0.7921 0.56017 0.0
H541 H 0.15969 0.83302 0.59216 0.0
H542 H 0.1696 0.82691 0.52852 0.0
H543 H 0.18067 0.85056 0.5265 0.0
H544 H 0.21471 0.88765 0.55889 0.0
H545 H 0.18363 0.84999 0.59389 0.0
C546 C 0.14245 0.80314 0.56043 0.0
C547 C 0.15076 0.8088 0.54237 0.0
C548 C 0.14571 0.81171 0.57843 0.0
C549 C 0.15768 0.82638 0.57834 0.0
C550 C 0.16682 0.8323 0.56047 0.0
C551 C 0.16304 0.82316 0.54252 0.0
C552 C 0.18005 0.84788 0.56027 0.0
C553 C 0.18586 0.85542 0.54117 0.0
C554 C 0.19838 0.86963 0.54066 0.0
C555 C 0.20498 0.8767 0.55927 0.0
C556 C 0.1996 0.86976 0.57837 0.0
C557 C 0.18727 0.85533 0.57895 0.0
H558 H 0.1227 0.33158 0.55738 0.0
H559 H 0.15833 0.33488 0.59419 0.0
H560 H 0.15818 0.33008 0.52697 0.0
H561 H 0.18173 0.33987 0.5295 0.0
H562 H 0.21218 0.33181 0.56313 0.0
H563 H 0.17359 0.32622 0.59432 0.0
C564 C 0.1332 0.33183 0.55833 0.0
C565 C 0.13999 0.33102 0.54015 0.0
C566 C 0.13966 0.33303 0.57771 0.0
C567 C 0.15339 0.33355 0.57901 0.0
C568 C 0.16065 0.33269 0.56076 0.0
C569 C 0.15356 0.33132 0.54133 0.0
C570 C 0.17533 0.333 0.56178 0.0
C571 C 0.18454 0.33658 0.54391 0.0
C572 C 0.19751 0.33565 0.54425 0.0
C573 C 0.20202 0.33226 0.56279 0.0
C574 C 0.19367 0.32932 0.58086 0.0
C575 C 0.1802 0.32932 0.58034 0.0
H576 H 0.98661 0.38443 0.05888 0.0
H577 H 0.987 0.40156 0.08526 0.0
H578 H 0.03369 0.41879 0.09445 0.0
H579 H 0.03338 0.40167 0.06841 0.0
H580 H 0.02027 0.41554 0.13074 0.0
H581 H 0.02118 0.43735 0.06482 0.0
H582 H 0.01231 0.43817 0.02961 0.0
H583 H 0.97137 0.43136 0.05497 0.0
H584 H 0.97993 0.43033 0.09036 0.0
H585 H 0.0384 0.47985 0.18652 0.0
H586 H 0.03756 0.4644 0.15729 0.0
H587 H 0.99115 0.44926 0.14899 0.0
H588 H 0.9922 0.46526 0.1777 0.0
H589 H 1.00366 0.45105 0.11223 0.0
H590 H 1.00416 0.43036 0.17913 0.0
H591 H 0.01442 0.43071 0.21375 0.0
H592 H 0.05402 0.43593 0.18583 0.0
H593 H 0.04419 0.436 0.15099 0.0
C594 C 0.99692 0.39172 0.06672 0.0
C595 C 0.00997 0.39168 0.06143 0.0
C596 C 0.99715 0.4016 0.08168 0.0
C597 C 0.01043 0.41165 0.09163 0.0
C598 C 0.02332 0.41121 0.08696 0.0
C599 C 0.02311 0.40139 0.07201 0.0
C600 C 0.01107 0.42281 0.10667 0.0
C601 C 0.01676 0.42339 0.12661 0.0
C602 C 1.0063 0.43294 0.10144 0.0
C603 C 1.00113 0.43359 0.08021 0.0
C604 C 0.01023 0.43591 0.06287 0.0
C605 C 1.00527 0.43644 0.04289 0.0
C606 C 0.99126 0.43477 0.04004 0.0
C607 C 0.9822 0.43262 0.0572 0.0
C608 C 0.98711 0.43208 0.07722 0.0
C609 C 0.02816 0.47358 0.17797 0.0
C610 C 0.01538 0.47376 0.18421 0.0
C611 C 0.02763 0.46462 0.16144 0.0
C612 C 0.01418 0.45531 0.15128 0.0
C613 C 1.00163 0.45625 0.15663 0.0
C614 C 1.00223 0.46543 0.17296 0.0
C615 C 0.01296 0.44384 0.13629 0.0
C616 C 0.00712 0.44317 0.11639 0.0
C617 C 0.01771 0.43367 0.14149 0.0
C618 C 0.02348 0.43331 0.16244 0.0
C619 C 0.01508 0.43166 0.18036 0.0
C620 C 0.02082 0.43179 0.20003 0.0
C621 C 0.03484 0.43334 0.20201 0.0
C622 C 0.04316 0.43475 0.18428 0.0
C623 C 0.03752 0.43472 0.16457 0.0
H624 H 0.03924 0.43343 0.21727 0.0
H625 H 0.98744 0.43518 0.02455 0.0
H626 H 0.61406 0.63522 0.07264 0.0
H627 H 0.59784 0.61902 0.10003 0.0
H628 H 0.60873 0.5857 0.08289 0.0
H629 H 0.62516 0.60194 0.05553 0.0
H630 H 0.57798 0.5749 0.08633 0.0
H631 H 0.622 0.60329 0.12633 0.0
H632 H 0.64351 0.62593 0.13983 0.0
H633 H 0.61461 0.63937 0.16724 0.0
H634 H 0.59292 0.6169 0.15362 0.0
H635 H 0.5408 0.52818 0.17394 0.0
H636 H 0.55745 0.54271 0.14561 0.0
H637 H 0.55584 0.58117 0.1665 0.0
H638 H 0.53966 0.56678 0.19512 0.0
H639 H 0.58293 0.58853 0.16094 0.0
H640 H 0.53901 0.56142 0.11971 0.0
H641 H 0.51716 0.53919 0.10592 0.0
H642 H 0.54512 0.52388 0.08051 0.0
H643 H 0.56713 0.54593 0.09439 0.0
C644 C 0.61318 0.62453 0.07485 0.0
C645 C 0.62095 0.6199 0.06189 0.0
C646 C 0.6039 0.61528 0.09054 0.0
C647 C 0.60206 0.60114 0.09351 0.0
C648 C 0.60997 0.59656 0.08085 0.0
C649 C 0.61944 0.6059 0.06532 0.0
C650 C 0.59146 0.59102 0.10935 0.0
C651 C 0.57915 0.57774 0.10271 0.0
C652 C 0.59281 0.59491 0.13062 0.0
C653 C 0.60584 0.60847 0.13876 0.0
C654 C 0.62023 0.61114 0.13506 0.0
C655 C 0.63246 0.62393 0.14277 0.0
C656 C 0.63043 0.6341 0.15434 0.0
C657 C 0.61617 0.63149 0.15825 0.0
C658 C 0.6039 0.61872 0.15055 0.0
C659 C 0.5437 0.53962 0.17207 0.0
C660 C 0.53888 0.54634 0.18659 0.0
C661 C 0.55325 0.54796 0.15591 0.0
C662 C 0.55793 0.56309 0.15379 0.0
C663 C 0.55251 0.56957 0.16779 0.0
C664 C 0.54315 0.56132 0.18404 0.0
C665 C 0.56919 0.57246 0.13794 0.0
C666 C 0.58169 0.58561 0.14458 0.0
C667 C 0.56792 0.56851 0.11665 0.0
C668 C 0.5547 0.55525 0.10829 0.0
C669 C 0.54049 0.55325 0.11133 0.0
C670 C 0.52808 0.5407 0.10347 0.0
C671 C 0.52975 0.53011 0.0924 0.0
C672 C 0.54384 0.53208 0.08911 0.0
C673 C 0.55629 0.54461 0.09696 0.0
H674 H 0.52013 0.5204 0.08632 0.0
H675 H 0.63991 0.644 0.16031 0.0
H676 H 0.41321 0.02772 0.05021 0.0
H677 H 0.43119 0.02882 0.07555 0.0
H678 H 0.39722 0.98884 0.10423 0.0
H679 H 0.37943 0.98733 0.07834 0.0
H680 H 0.43572 0.03177 0.11408 0.0
H681 H 0.40991 0.96783 0.12299 0.0
H682 H 0.39637 0.94543 0.1014 0.0
H683 H 0.41441 0.97134 0.04613 0.0
H684 H 0.4282 0.99385 0.06738 0.0
H685 H 0.46114 0.01754 0.20605 0.0
H686 H 0.44771 0.01912 0.17652 0.0
H687 H 0.46433 0.9966 0.13843 0.0
H688 H 0.47659 0.99348 0.16888 0.0
H689 H 0.43808 0.98634 0.12845 0.0
H690 H 0.47639 0.03588 0.1344 0.0
H691 H 0.49335 0.05963 0.15136 0.0
H692 H 0.45659 0.06496 0.16862 0.0
H693 H 0.43938 0.04114 0.152 0.0
C694 C 0.40954 0.01925 0.06206 0.0
C695 C 0.39491 0.00738 0.06217 0.0
C696 C 0.41985 0.01987 0.07654 0.0
C697 C 0.41572 0.00871 0.09157 0.0
C698 C 0.40087 0.99733 0.09242 0.0
C699 C 0.39064 0.99655 0.07772 0.0
C700 C 0.42689 0.00883 0.10619 0.0
C701 C 0.43626 0.02185 0.11717 0.0
C702 C 0.42814 0.99609 0.10966 0.0
C703 C 0.41999 0.98255 0.09679 0.0
C704 C 0.41104 0.96873 0.10624 0.0
C705 C 0.40331 0.95602 0.09406 0.0
C706 C 0.40449 0.95697 0.07241 0.0
C707 C 0.41346 0.97062 0.0629 0.0
C708 C 0.42122 0.98337 0.075 0.0
C709 C 0.46181 0.01267 0.19152 0.0
C710 C 0.46976 0.00508 0.19011 0.0
C711 C 0.45434 0.01391 0.17439 0.0
C712 C 0.45514 0.00825 0.15494 0.0
C713 C 0.4635 1.0011 0.15321 0.0
C714 C 0.47068 0.99947 0.17061 0.0
C715 C 0.44657 0.00916 0.13693 0.0
C716 C 0.43768 0.99633 0.12527 0.0
C717 C 0.44629 0.02228 0.13211 0.0
C718 C 0.45659 0.03668 0.14203 0.0
C719 C 0.47192 0.04208 0.14191 0.0
C720 C 0.48157 0.05556 0.15145 0.0
C721 C 0.47605 0.06379 0.16108 0.0
C722 C 0.46085 0.05857 0.16114 0.0
C723 C 0.45114 0.04509 0.15163 0.0
H724 H 0.48354 0.07422 0.16847 0.0
H725 H 0.39849 0.94711 0.06301 0.0
H726 H 0.37811 0.96973 0.96449 0.0
H727 H 0.39384 0.96702 0.93875 0.0
H728 H 0.41278 0.01294 0.92203 0.0
H729 H 0.39702 0.01573 0.94747 0.0
H730 H 0.40885 0.99657 0.88813 0.0
H731 H 0.43034 1.00204 0.95589 0.0
H732 H 0.43055 0.99574 0.99277 0.0
H733 H 0.42216 0.95252 0.9753 0.0
H734 H 0.4217 0.95851 0.9383 0.0
H735 H 0.48438 0.00695 0.86432 0.0
H736 H 0.46625 1.0028 0.89153 0.0
H737 H 0.43115 0.97185 0.85166 0.0
H738 H 0.44919 0.97611 0.82442 0.0
H739 H 0.44311 0.98017 0.91404 0.0
H740 H 0.40485 0.9817 0.85082 0.0
H741 H 0.40668 0.99 0.81446 0.0
H742 H 0.45191 0.02346 0.82444 0.0
H743 H 0.45027 0.01554 0.86091 0.0
C744 C 0.38542 0.9792 0.95509 0.0
C745 C 0.38634 0.99298 0.9582 0.0
C746 C 0.39449 0.97765 0.94046 0.0
C747 C 0.40468 0.98984 0.92868 0.0
C748 C 0.40505 1.00338 0.93096 0.0
C749 C 0.39602 0.00496 0.94558 0.0
C750 C 0.41549 0.98877 0.91473 0.0
C751 C 0.41624 0.99286 0.89379 0.0
C752 C 0.4254 0.98423 0.92214 0.0
C753 C 0.42583 0.98067 0.94435 0.0
C754 C 0.42844 0.99116 0.95992 0.0
C755 C 0.42862 0.98765 0.98085 0.0
C756 C 0.42632 0.97372 0.98638 0.0
C757 C 0.42391 0.9633 0.97099 0.0
C758 C 0.42369 0.96674 0.95004 0.0
C759 C 0.47287 0.99881 0.86173 0.0
C760 C 0.46815 0.99193 0.84225 0.0
C761 C 0.46251 0.99648 0.87724 0.0
C762 C 0.44732 0.98725 0.87345 0.0
C763 C 0.44279 0.97919 0.85481 0.0
C764 C 0.4531 0.98157 0.8393 0.0
C765 C 0.43623 0.9877 0.88745 0.0
C766 C 0.43553 0.98362 0.90836 0.0
C767 C 0.42658 0.99258 0.88016 0.0
C768 C 0.42745 0.99792 0.85853 0.0
C769 C 0.41514 0.99091 0.84529 0.0
C770 C 0.41616 0.99553 0.82465 0.0
C771 C 0.42942 0.00722 0.81713 0.0
C772 C 0.44166 0.01439 0.83026 0.0
C773 C 0.44069 0.00984 0.85092 0.0
H774 H 0.4302 0.01076 0.80114 0.0
H775 H 0.42645 0.97102 0.00259 0.0
H776 H 0.04054 0.40863 0.95873 0.0
H777 H 0.04183 0.42628 0.9326 0.0
H778 H 0.99488 0.39957 0.92231 0.0
H779 H 0.99349 0.38187 0.94824 0.0
H780 H 0.00964 0.41045 0.88596 0.0
H781 H 0.00847 0.42934 0.95402 0.0
H782 H 0.01727 0.43738 0.98982 0.0
H783 H 0.05932 0.4709 0.96645 0.0
H784 H 0.05081 0.46292 0.93049 0.0
H785 H 0.98851 0.4582 0.8434 0.0
H786 H 0.99191 0.44326 0.86973 0.0
H787 H 0.03901 0.47317 0.86844 0.0
H788 H 0.03555 0.4882 0.84191 0.0
H789 H 0.02712 0.46191 0.90935 0.0
H790 H 0.02712 0.44436 0.84076 0.0
H791 H 0.01772 0.43646 0.80515 0.0
H792 H 0.97763 0.40033 0.82945 0.0
H793 H 0.98666 0.40819 0.86524 0.0
C794 C 0.03052 0.40637 0.95066 0.0
C795 C 0.01689 0.39384 0.95572 0.0
C796 C 0.03127 0.41653 0.93581 0.0
C797 C 0.01841 0.41438 0.92571 0.0
C798 C 1.00494 0.40151 0.92994 0.0
C799 C 1.00417 0.39139 0.94482 0.0
C800 C 0.01875 0.42579 0.91147 0.0
C801 C 0.01339 0.42167 0.89112 0.0
C802 C 0.02396 0.44055 0.91801 0.0
C803 C 0.02907 0.44543 0.93959 0.0
C804 C 0.01963 0.43835 0.95653 0.0
C805 C 0.02456 0.44291 0.97684 0.0
C806 C 0.03886 0.45461 0.98042 0.0
C807 C 0.04825 0.46181 0.96367 0.0
C808 C 0.04338 0.45729 0.94331 0.0
C809 C 0.99953 0.46183 0.84927 0.0
C810 C 0.01176 0.4744 0.8409 0.0
C811 C 1.00148 0.45324 0.86415 0.0
C812 C 0.01573 0.45698 0.87082 0.0
C813 C 0.02792 0.4701 0.86349 0.0
C814 C 0.02596 0.47871 0.84848 0.0
C815 C 0.01778 0.44647 0.88402 0.0
C816 C 0.02356 0.45075 0.90412 0.0
C817 C 0.01295 0.43183 0.87726 0.0
C818 C 0.00753 0.42694 0.85572 0.0
C819 C 0.01625 0.4348 0.83853 0.0
C820 C 0.01099 0.43032 0.8183 0.0
C821 C 0.99708 0.41791 0.81504 0.0
C822 C 0.98841 0.40995 0.832 0.0
C823 C 0.99359 0.4144 0.85227 0.0
H824 H 0.99304 0.41446 0.79937 0.0
H825 H 0.04266 0.45812 0.99616 0.0
H826 H 0.60115 0.62995 0.96048 0.0
H827 H 0.58405 0.61368 0.93369 0.0
H828 H 0.61416 0.59811 0.91878 0.0
H829 H 0.63126 0.61424 0.94551 0.0
H830 H 0.60158 0.60301 0.88357 0.0
H831 H 0.58594 0.57828 0.9502 0.0
H832 H 0.57799 0.57614 0.98673 0.0
H833 H 0.54071 0.58018 0.96802 0.0
H834 H 0.54857 0.58255 0.93138 0.0
H835 H 0.56043 0.53504 0.83472 0.0
H836 H 0.57476 0.55379 0.86083 0.0
H837 H 0.53841 0.5617 0.86997 0.0
H838 H 0.5239 0.54273 0.84368 0.0
H839 H 0.55251 0.56277 0.90684 0.0
H840 H 0.56617 0.58452 0.83993 0.0
H841 H 0.57392 0.58701 0.80327 0.0
H842 H 0.61459 0.5895 0.8217 0.0
H843 H 0.60697 0.58673 0.85847 0.0
C844 C 0.60425 0.62325 0.95127 0.0
C845 C 0.61756 0.62336 0.95524 0.0
C846 C 0.59442 0.61389 0.93604 0.0
C847 C 0.59775 0.60455 0.92439 0.0
C848 C 0.61134 0.60519 0.9276 0.0
C849 C 0.6211 0.61441 0.94294 0.0
C850 C 0.58685 0.59355 0.90958 0.0
C851 C 0.59089 0.59416 0.88865 0.0
C852 C 0.57271 0.58227 0.9161 0.0
C853 C 0.56794 0.58077 0.93809 0.0
C854 C 0.57612 0.57884 0.9539 0.0
C855 C 0.57162 0.57756 0.97462 0.0
C856 C 0.55888 0.57807 0.9797 0.0
C857 C 0.55059 0.57981 0.96406 0.0
C858 C 0.55506 0.58112 0.94332 0.0
C859 C 0.5554 0.5406 0.84256 0.0
C860 C 0.5411 0.53752 0.83711 0.0
C861 C 0.56363 0.55138 0.85737 0.0
C862 C 0.55781 0.55942 0.86697 0.0
C863 C 0.54316 0.55572 0.8626 0.0
C864 C 0.53485 0.54483 0.84772 0.0
C865 C 0.56738 0.57202 0.8809 0.0
C866 C 0.56311 0.57172 0.90164 0.0
C867 C 0.58128 0.58367 0.87415 0.0
C868 C 0.58592 0.58529 0.852 0.0
C869 C 0.5767 0.58546 0.83617 0.0
C870 C 0.58109 0.58694 0.81536 0.0
C871 C 0.59473 0.58839 0.81015 0.0
C872 C 0.60402 0.58836 0.82576 0.0
C873 C 0.59967 0.58684 0.84659 0.0
H874 H 0.59811 0.58957 0.79404 0.0
H875 H 0.55541 0.57708 0.99575 0.0
H876 H 0.98267 0.61012 0.95853 0.0
H877 H 0.98237 0.59344 0.93174 0.0
H878 H 0.0284 0.60851 0.94346 0.0
H879 H 0.02888 0.62554 0.97006 0.0
H880 H 0.02272 0.60414 0.90281 0.0
H881 H 1.00102 0.57598 0.96444 0.0
H882 H 0.984 0.56682 0.99433 0.0
H883 H 0.94681 0.54759 0.95285 0.0
H884 H 0.96361 0.55683 0.9227 0.0
H885 H 0.02112 0.54196 0.85402 0.0
H886 H 0.02212 0.55785 0.88293 0.0
H887 H 0.97994 0.55214 0.86421 0.0
H888 H 0.97908 0.53654 0.8351 0.0
H889 H 0.9845 0.55115 0.90955 0.0
H890 H 1.00641 0.58099 0.84836 0.0
H891 H 0.02347 0.58957 0.81847 0.0
H892 H 0.06053 0.60516 0.85996 0.0
H893 H 0.04362 0.59639 0.89006 0.0
C894 C 0.9928 0.61005 0.95526 0.0
C895 C 1.00577 0.61909 0.9666 0.0
C896 C 0.99258 0.60042 0.94 0.0
C897 C 1.00526 0.59942 0.93593 0.0
C898 C 0.01845 0.60899 0.94643 0.0
C899 C 0.01871 0.61875 0.96162 0.0
C900 C 1.00455 0.58805 0.92124 0.0
C901 C 0.0145 0.59254 0.90451 0.0
C902 C 0.99372 0.57288 0.92322 0.0
C903 C 0.98358 0.56721 0.94131 0.0
C904 C 0.98921 0.56989 0.96169 0.0
C905 C 0.97961 0.56467 0.97868 0.0
C906 C 0.96433 0.55666 0.97549 0.0
C907 C 0.95864 0.55381 0.9553 0.0
C908 C 0.9682 0.55903 0.93825 0.0
C909 C 0.0119 0.54378 0.85648 0.0
C910 C 0.99998 0.53798 0.84251 0.0
C911 C 0.01252 0.55292 0.87285 0.0
C912 C 1.00113 0.5562 0.87562 0.0
C913 C 0.9888 0.54969 0.86239 0.0
C914 C 0.9883 0.54077 0.84584 0.0
C915 C 1.00257 0.56731 0.89121 0.0
C916 C 0.99276 0.56276 0.90804 0.0
C917 C 0.01355 0.58238 0.8894 0.0
C918 C 0.02376 0.58787 0.87141 0.0
C919 C 0.01819 0.58612 0.85107 0.0
C920 C 0.02783 0.59103 0.8341 0.0
C921 C 0.04308 0.59787 0.83731 0.0
C922 C 0.04871 0.59984 0.8575 0.0
C923 C 0.03911 0.5949 0.87452 0.0
H924 H 0.05053 0.60167 0.82416 0.0
H925 H 0.95691 0.55263 0.98867 0.0
H926 H 0.40929 0.3826 0.96812 0.0
H927 H 0.42541 0.40021 0.94202 0.0
H928 H 0.39323 0.41377 0.93096 0.0
H929 H 0.37698 0.3962 0.95735 0.0
H930 H 0.40607 0.40968 0.8941 0.0
H931 H 0.42135 0.43488 0.95986 0.0
H932 H 0.42959 0.43823 0.99634 0.0
H933 H 0.46808 0.43615 0.97836 0.0
H934 H 0.45993 0.43252 0.94178 0.0
H935 H 0.45108 0.47267 0.83547 0.0
H936 H 0.4356 0.4577 0.86434 0.0
H937 H 0.46927 0.44741 0.8821 0.0
H938 H 0.48496 0.46277 0.8534 0.0
H939 H 0.45553 0.45006 0.91595 0.0
H940 H 0.44076 0.42414 0.85129 0.0
H941 H 0.43336 0.42067 0.8144 0.0
H942 H 0.39461 0.42304 0.82977 0.0
H943 H 0.40193 0.42681 0.86673 0.0
C944 C 0.40551 0.38918 0.96002 0.0
C945 C 0.39181 0.38799 0.96493 0.0
C946 C 0.41481 0.39932 0.94516 0.0
C947 C 0.41061 0.40843 0.93475 0.0
C948 C 0.39671 0.40687 0.93891 0.0
C949 C 0.38743 0.39682 0.95398 0.0
C950 C 0.42092 0.41979 0.91987 0.0
C951 C 0.41679 0.41864 0.89892 0.0
C952 C 0.4351 0.43122 0.92607 0.0
C953 C 0.43995 0.43328 0.94809 0.0
C954 C 0.4315 0.43498 0.9637 0.0
C955 C 0.43617 0.43696 0.98441 0.0
C956 C 0.44935 0.43739 0.98968 0.0
C957 C 0.45787 0.43581 0.97426 0.0
C958 C 0.45323 0.43379 0.95354 0.0
C959 C 0.45532 0.46753 0.84592 0.0
C960 C 0.46917 0.46882 0.84228 0.0
C961 C 0.44644 0.45889 0.86228 0.0
C962 C 0.45111 0.45112 0.87507 0.0
C963 C 0.4654 0.45323 0.87236 0.0
C964 C 0.47438 0.46204 0.85605 0.0
C965 C 0.44067 0.44 0.89016 0.0
C966 C 0.44479 0.44114 0.91112 0.0
C967 C 0.42655 0.42843 0.88393 0.0
C968 C 0.42197 0.4259 0.86176 0.0
C969 C 0.43071 0.42402 0.84679 0.0
C970 C 0.42653 0.422 0.82587 0.0
C971 C 0.41354 0.42167 0.81974 0.0
C972 C 0.40468 0.42332 0.83454 0.0
C973 C 0.40884 0.4254 0.85548 0.0
H974 H 0.41033 0.42011 0.80353 0.0
H975 H 0.453 0.439 0.00569 0.0
H976 H 0.63553 0.02589 0.95869 0.0
H977 H 0.61822 0.02587 0.93321 0.0
H978 H 0.5849 0.98254 0.95382 0.0
H979 H 0.60239 0.98227 0.9789 0.0
H980 H 0.58253 0.98404 0.91392 0.0
H981 H 0.5852 0.01449 0.97025 0.0
H982 H 0.597 0.03422 0.99653 0.0
H983 H 0.61552 0.06684 0.94824 0.0
H984 H 0.60401 0.04728 0.92163 0.0
H985 H 0.52686 0.99195 0.86029 0.0
H986 H 0.54032 0.99017 0.89048 0.0
H987 H 0.58002 0.02887 0.8695 0.0
H988 H 0.56666 0.03071 0.83952 0.0
H989 H 0.57631 0.02813 0.91272 0.0
H990 H 0.57248 0.99521 0.85659 0.0
H991 H 0.55861 0.97437 0.83244 0.0
H992 H 0.53949 0.94475 0.88405 0.0
H993 H 0.55295 0.96548 0.90851 0.0
C994 C 0.62459 0.01626 0.95762 0.0
C995 C 0.62032 1.00412 0.97094 0.0
C996 C 0.61464 0.01631 0.94314 0.0
C997 C 0.60008 1.00439 0.94196 0.0
C998 C 0.59601 0.99193 0.95452 0.0
C999 C 0.60605 0.99178 0.96883 0.0
C1000 C 0.58907 0.00516 0.92801 0.0
C1001 C 0.581 0.99357 0.91392 0.0
C1002 C 0.58696 0.01755 0.928 0.0
C1003 C 0.59383 0.02939 0.94393 0.0
C1004 C 0.59186 0.02586 0.96522 0.0
C1005 C 0.59849 0.03702 0.98018 0.0
C1006 C 0.60702 0.05177 0.97406 0.0
C1007 C 0.60891 0.0554 0.95295 0.0
C1008 C 0.60233 0.04429 0.93792 0.0
C1009 C 0.53836 1.00028 0.86246 0.0
C1010 C 0.54575 0.01142 0.84753 0.0
C1011 C 0.54605 0.9992 0.8796 0.0
C1012 C 0.56122 0.00929 0.88209 0.0
C1013 C 0.56834 0.02095 0.86789 0.0
C1014 C 0.56071 0.02196 0.85073 0.0
C1015 C 0.57009 0.00719 0.89841 0.0
C1016 C 0.57774 0.01853 0.91294 0.0
C1017 C 0.57152 0.99441 0.89915 0.0
C1018 C 0.56362 0.98193 0.88438 0.0
C1019 C 0.56524 0.98427 0.86279 0.0
C1020 C 0.55746 0.97248 0.84904 0.0
C1021 C 0.54818 0.95826 0.85671 0.0
C1022 C 0.54667 0.95579 0.87813 0.0
C1023 C 0.55436 0.96755 0.89194 0.0
H1024 H 0.54218 0.94914 0.84605 0.0
H1025 H 0.61214 0.06039 0.98566 0.0
H1026 H 0.60822 0.9919 0.07443 0.0
H1027 H 0.59291 0.99548 0.09976 0.0
H1028 H 0.62635 0.0413 0.10626 0.0
H1029 H 0.64172 0.03798 0.08031 0.0
H1030 H 0.60859 0.01775 0.14617 0.0
H1031 H 0.60543 0.04326 0.08373 0.0
H1032 H 0.6019 0.04413 0.04595 0.0
H1033 H 0.55954 0.00457 0.05002 0.0
H1034 H 0.56295 1.00334 0.08779 0.0
H1035 H 0.56379 0.03402 0.2081 0.0
H1036 H 0.58192 0.03826 0.18096 0.0
H1037 H 0.54761 1.00361 0.14395 0.0
H1038 H 0.5294 0.99976 0.17083 0.0
H1039 H 0.5674 0.02374 0.11903 0.0
H1040 H 0.56852 0.99681 0.1781 0.0
H1041 H 0.57024 0.99221 0.2153 0.0
H1042 H 0.6143 0.02946 0.21756 0.0
H1043 H 0.61271 0.03453 0.18046 0.0
C1044 C 0.61248 1.00273 0.08138 0.0
C1045 C 0.62624 0.01467 0.07527 0.0
C1046 C 0.60366 0.00474 0.09583 0.0
C1047 C 0.60847 0.01865 0.10472 0.0
C1048 C 0.62245 0.03048 0.09946 0.0
C1049 C 0.63121 0.02855 0.08467 0.0
C1050 C 0.5985 0.02076 0.1189 0.0
C1051 C 0.5998 0.01945 0.14036 0.0
C1052 C 0.58667 0.02227 0.11114 0.0
C1053 C 0.58452 0.02313 0.08852 0.0
C1054 C 0.59544 0.03467 0.07653 0.0
C1055 C 0.59344 0.03525 0.05513 0.0
C1056 C 0.58052 0.02439 0.04558 0.0
C1057 C 0.56955 0.01296 0.05743 0.0
C1058 C 0.57151 0.01233 0.07883 0.0
C1059 C 0.56006 0.02775 0.19378 0.0
C1060 C 0.54523 0.0166 0.19147 0.0
C1061 C 0.57043 0.03005 0.17838 0.0
C1062 C 0.56622 0.02097 0.16065 0.0
C1063 C 0.55116 0.0107 0.15752 0.0
C1064 C 0.54074 0.00855 0.17282 0.0
C1065 C 0.5776 0.02108 0.14656 0.0
C1066 C 0.57641 0.02249 0.12504 0.0
C1067 C 0.58935 0.01928 0.15428 0.0
C1068 C 0.59042 0.01617 0.17655 0.0
C1069 C 0.57853 1.00411 0.18656 0.0
C1070 C 0.57948 1.00141 0.20763 0.0
C1071 C 0.59236 0.01057 0.21879 0.0
C1072 C 0.60432 0.02241 0.20889 0.0
C1073 C 0.60339 0.02522 0.18786 0.0
H1074 H 0.59307 0.00848 0.23509 0.0
H1075 H 0.57899 0.02485 0.02902 0.0
H1076 H 0.97595 0.60706 0.08043 0.0
H1077 H 0.97366 0.58897 0.10673 0.0
H1078 H 0.01813 0.59888 0.09361 0.0
H1079 H 0.02067 0.61713 0.06782 0.0
H1080 H 0.99516 0.5673 0.09328 0.0
H1081 H 0.01426 0.61188 0.13515 0.0
H1082 H 0.01375 0.63351 0.14953 0.0
H1083 H 0.97131 0.60493 0.17686 0.0
H1084 H 0.97148 0.58313 0.16238 0.0
H1085 H 0.01521 0.53494 0.17446 0.0
H1086 H 0.01238 0.54949 0.14698 0.0
H1087 H 0.97497 0.54695 0.17927 0.0
H1088 H 0.97828 0.53297 0.20724 0.0
H1089 H 0.99162 0.57356 0.16908 0.0
H1090 H 0.9724 0.52885 0.13057 0.0
H1091 H 0.97144 0.50656 0.11592 0.0
H1092 H 0.01126 0.53368 0.0816 0.0
H1093 H 0.01258 0.55614 0.09627 0.0
C1094 C 0.98529 0.60551 0.08332 0.0
C1095 C 0.99851 0.61361 0.07205 0.0
C1096 C 0.98395 0.59515 0.09831 0.0
C1097 C 0.99571 0.59255 0.10201 0.0
C1098 C 0.00892 0.60069 0.09092 0.0
C1099 C 0.01037 0.6112 0.07628 0.0
C1100 C 0.9943 0.58123 0.11722 0.0
C1101 C 0.99447 0.56866 0.10989 0.0
C1102 C 0.9929 0.5828 0.13877 0.0
C1103 C 0.99279 0.5959 0.14745 0.0
C1104 C 1.00475 0.61022 0.14403 0.0
C1105 C 1.00454 0.62251 0.15225 0.0
C1106 C 0.99248 0.6206 0.16404 0.0
C1107 C 0.98062 0.6064 0.16769 0.0
C1108 C 0.98078 0.59407 0.15949 0.0
C1109 C 1.00612 0.53713 0.17535 0.0
C1110 C 0.99688 0.53273 0.19286 0.0
C1111 C 1.0045 0.54547 0.15962 0.0
C1112 C 0.99336 0.54929 0.16084 0.0
C1113 C 0.98367 0.54424 0.17791 0.0
C1114 C 0.98548 0.53614 0.19381 0.0
C1115 C 0.9926 0.5595 0.14527 0.0
C1116 C 0.99207 0.57195 0.1525 0.0
C1117 C 0.9934 0.55766 0.12356 0.0
C1118 C 0.99265 0.54418 0.11466 0.0
C1119 C 0.98102 0.53006 0.12002 0.0
C1120 C 0.9804 0.5174 0.11169 0.0
C1121 C 0.9913 0.5187 0.09787 0.0
C1122 C 1.00283 0.53269 0.09232 0.0
C1123 C 1.00351 0.54539 0.10061 0.0
H1124 H 0.9908 0.50889 0.09144 0.0
H1125 H 0.99234 0.63013 0.17039 0.0
H1126 H 0.38448 0.4012 0.07122 0.0
H1127 H 0.40214 0.41827 0.0966 0.0
H1128 H 0.42344 0.39204 0.09917 0.0
H1129 H 0.40572 0.37478 0.07378 0.0
H1130 H 0.42115 0.40231 0.13803 0.0
H1131 H 0.43754 0.4221 0.06963 0.0
H1132 H 0.43464 0.43002 0.03476 0.0
H1133 H 0.42681 0.46307 0.06183 0.0
H1134 H 0.42923 0.45504 0.09694 0.0
H1135 H 0.48377 0.45694 0.19157 0.0
H1136 H 0.46924 0.4396 0.16372 0.0
H1137 H 0.44801 0.46519 0.15135 0.0
H1138 H 0.46293 0.48273 0.17863 0.0
H1139 H 0.45152 0.45473 0.11629 0.0
H1140 H 0.43263 0.4342 0.18379 0.0
H1141 H 0.4342 0.42626 0.21933 0.0
H1142 H 0.44557 0.395 0.19475 0.0
H1143 H 0.4443 0.40294 0.15906 0.0
C1144 C 0.39277 0.3989 0.07735 0.0
C1145 C 0.39371 0.38663 0.07027 0.0
C1146 C 0.40293 0.40874 0.09181 0.0
C1147 C 0.4143 0.4066 0.0995 0.0
C1148 C 0.41482 0.39396 0.09335 0.0
C1149 C 0.40466 0.3841 0.07882 0.0
C1150 C 0.42596 0.41789 0.11324 0.0
C1151 C 0.42795 0.41373 0.13317 0.0
C1152 C 0.43465 0.43286 0.10706 0.0
C1153 C 0.43345 0.43788 0.08594 0.0
C1154 C 0.4351 0.43098 0.06816 0.0
C1155 C 0.43355 0.43551 0.04834 0.0
C1156 C 0.43057 0.44706 0.04606 0.0
C1157 C 0.42912 0.45412 0.06362 0.0
C1158 C 0.43056 0.44957 0.08349 0.0
C1159 C 0.47635 0.45906 0.18236 0.0
C1160 C 0.47455 0.47121 0.18693 0.0
C1161 C 0.46791 0.44908 0.16666 0.0
C1162 C 0.45726 0.45088 0.15569 0.0
C1163 C 0.4561 0.46352 0.15956 0.0
C1164 C 0.46466 0.47357 0.17506 0.0
C1165 C 0.44663 0.43922 0.14123 0.0
C1166 C 0.44482 0.4433 0.12113 0.0
C1167 C 0.43797 0.42421 0.14735 0.0
C1168 C 0.43852 0.41927 0.16878 0.0
C1169 C 0.43555 0.4257 0.18598 0.0
C1170 C 0.43638 0.42119 0.20614 0.0
C1171 C 0.44001 0.41016 0.2093 0.0
C1172 C 0.44278 0.40357 0.19228 0.0
C1173 C 0.442 0.40806 0.17208 0.0
H1174 H 0.44065 0.40668 0.22492 0.0
H1175 H 0.42939 0.45057 0.0307 0.0
H1176 H 0.69409 0.73977 0.40174 0.0
H1177 H 0.69173 0.75479 0.42863 0.0
H1178 H 0.646 0.72153 0.43748 0.0
H1179 H 0.64814 0.70659 0.40975 0.0
H1180 H 0.64784 0.74708 0.43734 0.0
H1181 H 0.674 0.72787 0.47379 0.0
H1182 H 0.69325 0.7213 0.4803 0.0
H1183 H 0.7267 0.76717 0.47808 0.0
H1184 H 0.70766 0.77401 0.47126 0.0
H1185 H 0.64818 0.7798 0.53859 0.0
H1186 H 0.64658 0.76311 0.51052 0.0
H1187 H 0.68451 0.79911 0.48093 0.0
H1188 H 0.68592 0.81593 0.50871 0.0
H1189 H 0.68517 0.77096 0.49323 0.0
H1190 H 0.65705 0.789 0.45577 0.0
H1191 H 0.63653 0.79404 0.45158 0.0
H1192 H 0.60512 0.74788 0.45935 0.0
H1193 H 0.62548 0.74259 0.4639 0.0
C1194 C 0.68355 0.73549 0.40954 0.0
C1195 C 0.67132 0.72189 0.40359 0.0
C1196 C 0.68223 0.74412 0.42504 0.0
C1197 C 0.66874 0.73925 0.43541 0.0
C1198 C 0.65654 0.72555 0.42976 0.0
C1199 C 0.6578 0.71697 0.41399 0.0
C1200 C 0.66737 0.7488 0.4515 0.0
C1201 C 0.6559 0.75209 0.44974 0.0
C1202 C 0.67789 0.7555 0.46769 0.0
C1203 C 0.6894 0.75144 0.47183 0.0
C1204 C 0.68547 0.73655 0.47453 0.0
C1205 C 0.69634 0.73278 0.47831 0.0
C1206 C 0.71119 0.7438 0.47956 0.0
C1207 C 0.71519 0.75863 0.47709 0.0
C1208 C 0.70436 0.76247 0.47329 0.0
C1209 C 0.65584 0.78423 0.52569 0.0
C1210 C 0.66707 0.79917 0.52564 0.0
C1211 C 0.65496 0.7747 0.50977 0.0
C1212 C 0.66544 0.77989 0.49372 0.0
C1213 C 0.6763 0.79493 0.49317 0.0
C1214 C 0.67701 0.80454 0.5089 0.0
C1215 C 0.66591 0.76939 0.47866 0.0
C1216 C 0.67715 0.76587 0.4808 0.0
C1217 C 0.65501 0.76226 0.46317 0.0
C1218 C 0.64279 0.76543 0.46043 0.0
C1219 C 0.64577 0.77995 0.45682 0.0
C1220 C 0.63417 0.78285 0.45432 0.0
C1221 C 0.61953 0.7713 0.45526 0.0
C1222 C 0.61647 0.75682 0.45865 0.0
C1223 C 0.62803 0.75387 0.46118 0.0
H1224 H 0.61057 0.77356 0.45331 0.0
H1225 H 0.71959 0.74086 0.48248 0.0
H1226 H 0.28044 0.96682 0.40803 0.0
H1227 H 0.26392 0.95032 0.43486 0.0
H1228 H 0.27684 0.91816 0.41965 0.0
H1229 H 0.2935 0.93468 0.39271 0.0
H1230 H 0.24623 0.90599 0.42176 0.0
H1231 H 0.28849 0.93653 0.46387 0.0
H1232 H 0.30885 0.95991 0.47768 0.0
H1233 H 0.27758 0.97163 0.50104 0.0
H1234 H 0.25702 0.9484 0.4871 0.0
H1235 H 0.20921 0.85972 0.5099 0.0
H1236 H 0.22575 0.8744 0.48157 0.0
H1237 H 0.22034 0.91133 0.49904 0.0
H1238 H 0.20425 0.89682 0.52771 0.0
H1239 H 0.24815 0.92034 0.49566 0.0
H1240 H 0.20591 0.89064 0.45254 0.0
H1241 H 0.1853 0.86752 0.43845 0.0
H1242 H 0.21596 0.85451 0.41667 0.0
H1243 H 0.23675 0.87746 0.43088 0.0
C1244 C 0.27995 0.95633 0.41055 0.0
C1245 C 0.28833 0.9521 0.39821 0.0
C1246 C 0.27049 0.9469 0.42593 0.0
C1247 C 0.26914 0.933 0.42929 0.0
C1248 C 0.27769 0.92883 0.4173 0.0
C1249 C 0.2873 0.93834 0.40202 0.0
C1250 C 0.25838 0.92269 0.44482 0.0
C1251 C 0.24676 0.909 0.43801 0.0
C1252 C 0.25887 0.92678 0.46588 0.0
C1253 C 0.27121 0.94077 0.47427 0.0
C1254 C 0.28595 0.94415 0.47179 0.0
C1255 C 0.29753 0.95736 0.47967 0.0
C1256 C 0.29451 0.96727 0.49019 0.0
C1257 C 0.2799 0.96395 0.49287 0.0
C1258 C 0.26828 0.95076 0.485 0.0
C1259 C 0.21124 0.87083 0.50725 0.0
C1260 C 0.20543 0.87714 0.52088 0.0
C1261 C 0.22073 0.87924 0.49109 0.0
C1262 C 0.22435 0.89403 0.48809 0.0
C1263 C 0.21784 0.90001 0.50107 0.0
C1264 C 0.20855 0.89169 0.51734 0.0
C1265 C 0.23574 0.90367 0.4726 0.0
C1266 C 0.24756 0.91725 0.47944 0.0
C1267 C 0.23535 0.8995 0.45154 0.0
C1268 C 0.22287 0.8857 0.44297 0.0
C1269 C 0.20825 0.88279 0.4449 0.0
C1270 C 0.19654 0.86973 0.43686 0.0
C1271 C 0.19932 0.85953 0.42673 0.0
C1272 C 0.21382 0.8624 0.42455 0.0
C1273 C 0.22558 0.87544 0.43258 0.0
H1274 H 0.19024 0.84943 0.42051 0.0
H1275 H 0.30349 0.97749 0.49629 0.0
H1276 H 0.07531 0.35885 0.38967 0.0
H1277 H 0.09171 0.35897 0.41703 0.0
H1278 H 0.05926 0.31425 0.43339 0.0
H1279 H 0.0429 0.31395 0.40595 0.0
H1280 H 0.0729 0.33346 0.46824 0.0
H1281 H 0.08625 0.3189 0.40388 0.0
H1282 H 0.09395 0.32229 0.36714 0.0
H1283 H 0.13339 0.36287 0.38252 0.0
H1284 H 0.1258 0.35982 0.41933 0.0
H1285 H 0.11274 0.30973 0.5277 0.0
H1286 H 0.09814 0.31125 0.49909 0.0
H1287 H 0.13552 0.35271 0.47991 0.0
H1288 H 0.15029 0.35097 0.50836 0.0
H1289 H 0.12028 0.33723 0.44672 0.0
H1290 H 0.10871 0.35179 0.51073 0.0
H1291 H 0.10152 0.34982 0.54758 0.0
H1292 H 0.05952 0.31169 0.53369 0.0
H1293 H 0.06657 0.31321 0.4968 0.0
C1294 C 0.07157 0.34912 0.39929 0.0
C1295 C 0.05781 0.33637 0.39556 0.0
C1296 C 0.08098 0.34918 0.41484 0.0
C1297 C 0.07675 0.33657 0.42711 0.0
C1298 C 0.06275 0.32409 0.42408 0.0
C1299 C 0.05343 0.32393 0.40835 0.0
C1300 C 0.08711 0.33607 0.44248 0.0
C1301 C 0.08319 0.33414 0.46356 0.0
C1302 C 0.10076 0.33744 0.43639 0.0
C1303 C 0.10537 0.33922 0.41431 0.0
C1304 C 0.0965 0.32861 0.3994 0.0
C1305 C 0.10086 0.33046 0.37857 0.0
C1306 C 0.11413 0.34281 0.37248 0.0
C1307 C 0.1231 0.35332 0.38724 0.0
C1308 C 0.11878 0.35154 0.40809 0.0
C1309 C 0.11794 0.31894 0.51698 0.0
C1310 C 0.13261 0.33023 0.52014 0.0
C1311 C 0.10956 0.3199 0.5008 0.0
C1312 C 0.11559 0.33231 0.48769 0.0
C1313 C 0.13059 0.34309 0.48992 0.0
C1314 C 0.13905 0.34206 0.50605 0.0
C1315 C 0.10598 0.33435 0.47256 0.0
C1316 C 0.11004 0.33662 0.45151 0.0
C1317 C 0.09254 0.33352 0.47875 0.0
C1318 C 0.08824 0.33253 0.50098 0.0
C1319 C 0.09799 0.34289 0.51554 0.0
C1320 C 0.09393 0.34186 0.53645 0.0
C1321 C 0.08008 0.33062 0.54298 0.0
C1322 C 0.07026 0.32038 0.52861 0.0
C1323 C 0.07428 0.32132 0.50769 0.0
H1324 H 0.07694 0.32987 0.55917 0.0
H1325 H 0.11749 0.34422 0.35635 0.0
H1326 H 0.06968 0.35265 0.2878 0.0
H1327 H 0.0853 0.35081 0.26136 0.0
H1328 H 0.05652 0.30351 0.25895 0.0
H1329 H 0.04099 0.30521 0.2861 0.0
H1330 H 0.08366 0.30913 0.25945 0.0
H1331 H 0.0581 0.32708 0.2188 0.0
H1332 H 0.04795 0.34306 0.20902 0.0
H1333 H 0.09181 0.38061 0.20624 0.0
H1334 H 0.10222 0.3649 0.21628 0.0
H1335 H 0.11602 0.31008 0.15553 0.0
H1336 H 0.0984 0.30761 0.18267 0.0
H1337 H 0.13333 0.34446 0.21565 0.0
H1338 H 0.15108 0.34676 0.18881 0.0
H1339 H 0.10181 0.34222 0.19806 0.0
H1340 H 0.12616 0.32247 0.24268 0.0
H1341 H 0.13472 0.30481 0.25 0.0
H1342 H 0.09056 0.26852 0.2417 0.0
H1343 H 0.08179 0.28601 0.23401 0.0
C1344 C 0.0665 0.34184 0.28151 0.0
C1345 C 0.054 0.32908 0.28911 0.0
C1346 C 0.07547 0.34081 0.26626 0.0
C1347 C 0.07206 0.32704 0.25788 0.0
C1348 C 0.05942 0.31428 0.26513 0.0
C1349 C 0.05048 0.31528 0.28058 0.0
C1350 C 0.08208 0.32602 0.24224 0.0
C1351 C 0.08745 0.31627 0.24591 0.0
C1352 C 0.08714 0.3353 0.22449 0.0
C1353 C 0.08093 0.34482 0.21848 0.0
C1354 C 0.06558 0.33877 0.21627 0.0
C1355 C 0.05978 0.34777 0.21065 0.0
C1356 C 0.06923 0.36285 0.20706 0.0
C1357 C 0.0845 0.36894 0.20904 0.0
C1358 C 0.09036 0.35998 0.21468 0.0
C1359 C 0.12001 0.31734 0.16892 0.0
C1360 C 0.13494 0.32852 0.1702 0.0
C1361 C 0.10995 0.31595 0.18434 0.0
C1362 C 0.1146 0.32582 0.20115 0.0
C1363 C 0.12958 0.33666 0.20286 0.0
C1364 C 0.13972 0.33789 0.18764 0.0
C1365 C 0.10359 0.32573 0.21575 0.0
C1366 C 0.09796 0.33516 0.21167 0.0
C1367 C 0.09811 0.31601 0.23286 0.0
C1368 C 0.10337 0.30553 0.23747 0.0
C1369 C 0.11832 0.31073 0.24215 0.0
C1370 C 0.1232 0.30075 0.24644 0.0
C1371 C 0.1132 0.28555 0.24624 0.0
C1372 C 0.0983 0.2803 0.24181 0.0
C1373 C 0.09337 0.29023 0.23749 0.0
H1374 H 0.117 0.27784 0.24958 0.0
H1375 H 0.06472 0.3698 0.2027 0.0
H1376 H 0.70136 0.74088 0.29781 0.0
H1377 H 0.70169 0.75851 0.27247 0.0
H1378 H 0.65409 0.73374 0.26931 0.0
H1379 H 0.65363 0.71621 0.29475 0.0
H1380 H 0.69284 0.75641 0.23352 0.0
H1381 H 0.64051 0.75691 0.26301 0.0
H1382 H 0.62723 0.75378 0.29598 0.0
H1383 H 0.66731 0.76738 0.33018 0.0
H1384 H 0.68088 0.7708 0.29741 0.0
H1385 H 0.65598 0.7781 0.16052 0.0
H1386 H 0.65974 0.76535 0.18956 0.0
H1387 H 0.68737 0.80712 0.21989 0.0
H1388 H 0.68462 0.82016 0.18994 0.0
H1389 H 0.66237 0.78006 0.24481 0.0
H1390 H 0.70555 0.7974 0.2031 0.0
H1391 H 0.72051 0.80152 0.17163 0.0
H1392 H 0.70225 0.75469 0.16463 0.0
H1393 H 0.68655 0.75023 0.19539 0.0
C1394 C 0.69096 0.73909 0.29159 0.0
C1395 C 0.67746 0.72713 0.29844 0.0
C1396 C 0.69117 0.74922 0.27713 0.0
C1397 C 0.67791 0.74765 0.26928 0.0
C1398 C 0.66446 0.73541 0.27549 0.0
C1399 C 0.66423 0.7253 0.28994 0.0
C1400 C 0.67806 0.75869 0.25446 0.0
C1401 C 0.68621 0.76161 0.23602 0.0
C1402 C 0.6697 0.76579 0.25795 0.0
C1403 C 0.66168 0.76399 0.27774 0.0
C1404 C 0.64651 0.7593 0.27756 0.0
C1405 C 0.63892 0.75747 0.29621 0.0
C1406 C 0.64641 0.76034 0.31516 0.0
C1407 C 0.66151 0.76511 0.31549 0.0
C1408 C 0.66915 0.76698 0.29688 0.0
C1409 C 0.66304 0.78465 0.17319 0.0
C1410 C 0.67034 0.80021 0.17252 0.0
C1411 C 0.66506 0.7773 0.18987 0.0
C1412 C 0.67403 0.7853 0.20667 0.0
C1413 C 0.6805 0.80077 0.20692 0.0
C1414 C 0.67881 0.80819 0.18988 0.0
C1415 C 0.67673 0.77732 0.22362 0.0
C1416 C 0.66907 0.77493 0.24241 0.0
C1417 C 0.6857 0.77085 0.22055 0.0
C1418 C 0.69462 0.77348 0.2014 0.0
C1419 C 0.70439 0.78795 0.19455 0.0
C1420 C 0.71305 0.79035 0.17684 0.0
C1421 C 0.71226 0.77837 0.16605 0.0
C1422 C 0.7028 0.76397 0.17293 0.0
C1423 C 0.69394 0.7615 0.19043 0.0
H1424 H 0.71903 0.78025 0.1524 0.0
H1425 H 0.64051 0.7589 0.32959 0.0
H1426 H 0.27323 0.96911 0.28974 0.0
H1427 H 0.25515 0.9534 0.26355 0.0
H1428 H 0.27256 0.92367 0.26545 0.0
H1429 H 0.29089 0.93949 0.29097 0.0
H1430 H 0.26629 0.92597 0.22746 0.0
H1431 H 0.24023 0.91704 0.29225 0.0
H1432 H 0.2315 0.92377 0.32379 0.0
H1433 H 0.20927 0.9406 0.28615 0.0
H1434 H 0.21803 0.93414 0.25437 0.0
H1435 H 0.20558 0.85993 0.19029 0.0
H1436 H 0.22067 0.87744 0.2176 0.0
H1437 H 0.21199 0.91033 0.19146 0.0
H1438 H 0.19727 0.89297 0.16372 0.0
H1439 H 0.213 0.90723 0.24059 0.0
H1440 H 0.23983 0.91562 0.17551 0.0
H1441 H 0.24749 0.90678 0.14501 0.0
H1442 H 0.26773 0.88913 0.18512 0.0
H1443 H 0.2599 0.8976 0.21588 0.0
C1444 C 0.27334 0.95933 0.28438 0.0
C1445 C 0.28351 0.95556 0.29259 0.0
C1446 C 0.2629 0.95028 0.26951 0.0
C1447 C 0.26224 0.93714 0.26278 0.0
C1448 C 0.27276 0.93369 0.27037 0.0
C1449 C 0.28327 0.94279 0.28504 0.0
C1450 C 0.25048 0.92676 0.24822 0.0
C1451 C 0.25466 0.92186 0.23049 0.0
C1452 C 0.23523 0.92141 0.25187 0.0
C1453 C 0.22992 0.92526 0.27094 0.0
C1454 C 0.23357 0.92228 0.2907 0.0
C1455 C 0.2286 0.92602 0.30862 0.0
C1456 C 0.21988 0.93265 0.30698 0.0
C1457 C 0.21606 0.9355 0.2874 0.0
C1458 C 0.22101 0.93179 0.26943 0.0
C1459 C 0.20646 0.8707 0.19086 0.0
C1460 C 0.2002 0.8751 0.17508 0.0
C1461 C 0.21512 0.88071 0.20636 0.0
C1462 C 0.21745 0.89517 0.20646 0.0
C1463 C 0.21023 0.89919 0.19169 0.0
C1464 C 0.20182 0.88929 0.17592 0.0
C1465 C 0.22892 0.90652 0.22019 0.0
C1466 C 0.22467 0.91153 0.23764 0.0
C1467 C 0.24409 0.91186 0.21646 0.0
C1468 C 0.24914 0.9071 0.19799 0.0
C1469 C 0.2458 0.90974 0.17782 0.0
C1470 C 0.25018 0.90481 0.16049 0.0
C1471 C 0.25806 0.89736 0.16312 0.0
C1472 C 0.26161 0.89488 0.1831 0.0
C1473 C 0.2572 0.89974 0.20049 0.0
H1474 H 0.26144 0.89355 0.14969 0.0
H1475 H 0.21604 0.93554 0.32087 0.0
H1476 H 0.6992 0.96815 0.28878 0.0
H1477 H 0.70192 0.95271 0.26231 0.0
H1478 H 0.65672 0.91858 0.27216 0.0
H1479 H 0.65379 0.93391 0.2982 0.0
H1480 H 0.67809 0.90874 0.27351 0.0
H1481 H 0.6636 0.93757 0.23064 0.0
H1482 H 0.66617 0.96076 0.21684 0.0
H1483 H 0.70946 0.97333 0.19384 0.0
H1484 H 0.70722 0.95028 0.20778 0.0
H1485 H 0.66047 0.85902 0.18909 0.0
H1486 H 0.66261 0.87566 0.21735 0.0
H1487 H 0.7027 0.91047 0.18996 0.0
H1488 H 0.70004 0.89397 0.16113 0.0
H1489 H 0.68654 0.92126 0.19859 0.0
H1490 H 0.70132 0.89249 0.23843 0.0
H1491 H 0.70004 0.86995 0.25259 0.0
H1492 H 0.65876 0.85815 0.28218 0.0
H1493 H 0.65968 0.88052 0.26796 0.0
C1494 C 0.68979 0.95743 0.28513 0.0
C1495 C 0.67627 0.95231 0.29561 0.0
C1496 C 0.69138 0.94862 0.27004 0.0
C1497 C 0.67953 0.93447 0.26538 0.0
C1498 C 0.66601 0.92943 0.27561 0.0
C1499 C 0.66434 0.93828 0.2904 0.0
C1500 C 0.68118 0.92473 0.2501 0.0
C1501 C 0.67985 0.91139 0.25709 0.0
C1502 C 0.68398 0.92846 0.22884 0.0
C1503 C 0.68532 0.9423 0.22048 0.0
C1504 C 0.67372 0.94535 0.22283 0.0
C1505 C 0.6751 0.95845 0.21494 0.0
C1506 C 0.68799 0.96853 0.20453 0.0
C1507 C 0.6995 0.96552 0.20194 0.0
C1508 C 0.69818 0.95244 0.20982 0.0
C1509 C 0.66997 0.87008 0.18952 0.0
C1510 C 0.6802 0.87518 0.17316 0.0
C1511 C 0.67121 0.87963 0.20567 0.0
C1512 C 0.68292 0.89437 0.20602 0.0
C1513 C 0.69356 0.8992 0.19012 0.0
C1514 C 0.69214 0.88974 0.17377 0.0
C1515 C 0.68334 0.90504 0.22187 0.0
C1516 C 0.68502 0.91859 0.21502 0.0
C1517 C 0.68112 0.9016 0.24335 0.0
C1518 C 0.68052 0.88814 0.25198 0.0
C1519 C 0.69191 0.88504 0.24783 0.0
C1520 C 0.69126 0.8723 0.25589 0.0
C1521 C 0.67931 0.86261 0.26824 0.0
C1522 C 0.668 0.86566 0.2726 0.0
C1523 C 0.6686 0.87838 0.26456 0.0
H1524 H 0.67882 0.85275 0.27446 0.0
H1525 H 0.68903 0.97867 0.19843 0.0
H1526 H 0.05272 0.74009 0.30563 0.0
H1527 H 0.06984 0.75689 0.27948 0.0
H1528 H 0.08127 0.72395 0.26209 0.0
H1529 H 0.06459 0.70734 0.28868 0.0
H1530 H 0.10527 0.74888 0.26649 0.0
H1531 H 0.05961 0.73389 0.23066 0.0
H1532 H 0.03441 0.7298 0.22599 0.0
H1533 H 0.05062 0.77621 0.23448 0.0
H1534 H 0.0759 0.78054 0.23946 0.0
H1535 H 0.13958 0.77775 0.16874 0.0
H1536 H 0.12366 0.76343 0.19767 0.0
H1537 H 0.12115 0.80152 0.21781 0.0
H1538 H 0.13718 0.81593 0.18876 0.0
H1539 H 0.09339 0.77579 0.21344 0.0
H1540 H 0.13966 0.79044 0.24688 0.0
H1541 H 0.16469 0.79384 0.25003 0.0
H1542 H 0.14689 0.74699 0.2443 0.0
H1543 H 0.12176 0.74332 0.24081 0.0
C1544 C 0.05868 0.73632 0.29598 0.0
C1545 C 0.05727 0.72235 0.29927 0.0
C1546 C 0.06849 0.74596 0.28098 0.0
C1547 C 0.07688 0.74172 0.26867 0.0
C1548 C 0.07504 0.72756 0.27144 0.0
C1549 C 0.06541 0.71802 0.28659 0.0
C1550 C 0.0881 0.75223 0.25364 0.0
C1551 C 0.10257 0.7546 0.25474 0.0
C1552 C 0.08481 0.76009 0.23863 0.0
C1553 C 0.06962 0.75751 0.23566 0.0
C1554 C 0.05778 0.7432 0.2317 0.0
C1555 C 0.04349 0.74084 0.22897 0.0
C1556 C 0.04091 0.75273 0.23 0.0
C1557 C 0.05263 0.76701 0.23372 0.0
C1558 C 0.06695 0.76942 0.23648 0.0
C1559 C 0.1359 0.78315 0.17963 0.0
C1560 C 0.13967 0.79796 0.17661 0.0
C1561 C 0.1268 0.77497 0.19613 0.0
C1562 C 0.12121 0.7814 0.20992 0.0
C1563 C 0.12535 0.79635 0.20735 0.0
C1564 C 0.13461 0.80461 0.19092 0.0
C1565 C 0.11039 0.7722 0.22618 0.0
C1566 C 0.09604 0.7701 0.22531 0.0
C1567 C 0.11373 0.76446 0.24125 0.0
C1568 C 0.12883 0.76662 0.24341 0.0
C1569 C 0.14109 0.78087 0.24612 0.0
C1570 C 0.1553 0.78285 0.248 0.0
C1571 C 0.15738 0.77064 0.24732 0.0
C1572 C 0.14526 0.75643 0.24481 0.0
C1573 C 0.13103 0.75439 0.2429 0.0
H1574 H 0.16839 0.77219 0.24878 0.0
H1575 H 0.02984 0.75088 0.22787 0.0
H1576 H 0.27125 0.31474 0.30797 0.0
H1577 H 0.25344 0.31415 0.28271 0.0
H1578 H 0.28316 0.36006 0.26824 0.0
H1579 H 0.30081 0.36081 0.29371 0.0
H1580 H 0.25655 0.35582 0.27466 0.0
H1581 H 0.27668 0.33103 0.23447 0.0
H1582 H 0.28337 0.31191 0.22735 0.0
H1583 H 0.23787 0.27804 0.23323 0.0
H1584 H 0.23093 0.29696 0.24065 0.0
H1585 H 0.2304 0.36541 0.17785 0.0
H1586 H 0.24351 0.36305 0.20775 0.0
H1587 H 0.20736 0.31888 0.21863 0.0
H1588 H 0.19415 0.32128 0.18854 0.0
H1589 H 0.23426 0.32004 0.21665 0.0
H1590 H 0.21403 0.34549 0.2532 0.0
H1591 H 0.20766 0.36493 0.25938 0.0
H1592 H 0.2537 0.39792 0.25965 0.0
H1593 H 0.26036 0.3787 0.25317 0.0
C1594 C 0.2741 0.32464 0.29914 0.0
C1595 C 0.28747 0.33783 0.30292 0.0
C1596 C 0.26389 0.32429 0.2847 0.0
C1597 C 0.26692 0.33707 0.27352 0.0
C1598 C 0.28049 0.35008 0.27676 0.0
C1599 C 0.29062 0.35047 0.29127 0.0
C1600 C 0.25581 0.33719 0.25908 0.0
C1601 C 0.2518 0.34808 0.26186 0.0
C1602 C 0.24916 0.32678 0.24279 0.0
C1603 C 0.25332 0.3154 0.23836 0.0
C1604 C 0.26812 0.3195 0.23442 0.0
C1605 C 0.27195 0.3087 0.23029 0.0
C1606 C 0.26106 0.29377 0.2299 0.0
C1607 C 0.2463 0.28961 0.23358 0.0
C1608 C 0.24241 0.30036 0.23773 0.0
C1609 C 0.22509 0.35536 0.18699 0.0
C1610 C 0.21124 0.34357 0.18103 0.0
C1611 C 0.23258 0.354 0.20405 0.0
C1612 C 0.22642 0.34079 0.21548 0.0
C1613 C 0.21231 0.32918 0.21005 0.0
C1614 C 0.20472 0.3306 0.19303 0.0
C1615 C 0.23531 0.33888 0.23198 0.0
C1616 C 0.23889 0.32767 0.22961 0.0
C1617 C 0.24163 0.34904 0.24859 0.0
C1618 C 0.23769 0.36065 0.25255 0.0
C1619 C 0.2228 0.3569 0.25442 0.0
C1620 C 0.21913 0.36788 0.258 0.0
C1621 C 0.23027 0.38265 0.25987 0.0
C1622 C 0.24509 0.38647 0.25819 0.0
C1623 C 0.24882 0.37553 0.25459 0.0
H1624 H 0.22741 0.39114 0.26265 0.0
H1625 H 0.26404 0.28542 0.2267 0.0
H1626 H 0.28151 0.32231 0.41512 0.0
H1627 H 0.26431 0.32269 0.44034 0.0
H1628 H 0.28283 0.3695 0.43053 0.0
H1629 H 0.30028 0.36927 0.40528 0.0
H1630 H 0.276 0.36194 0.47176 0.0
H1631 H 0.25145 0.34579 0.40617 0.0
H1632 H 0.24329 0.33067 0.37427 0.0
H1633 H 0.21897 0.29136 0.41085 0.0
H1634 H 0.22717 0.30623 0.443 0.0
H1635 H 0.21339 0.36048 0.52046 0.0
H1636 H 0.23123 0.36397 0.49289 0.0
H1637 H 0.21961 0.31826 0.49881 0.0
H1638 H 0.20202 0.31486 0.52631 0.0
H1639 H 0.22282 0.32756 0.45745 0.0
H1640 H 0.24925 0.343 0.52245 0.0
H1641 H 0.25731 0.35756 0.55487 0.0
H1642 H 0.2779 0.3978 0.51949 0.0
H1643 H 0.26973 0.38344 0.48686 0.0
C1644 C 0.28212 0.33276 0.41849 0.0
C1645 C 0.29223 0.34574 0.40796 0.0
C1646 C 0.27219 0.33294 0.43287 0.0
C1647 C 0.27203 0.34606 0.437 0.0
C1648 C 0.28267 0.35922 0.42749 0.0
C1649 C 0.29266 0.35907 0.41307 0.0
C1650 C 0.2603 0.34577 0.45049 0.0
C1651 C 0.26437 0.35463 0.46841 0.0
C1652 C 0.2451 0.33609 0.44631 0.0
C1653 C 0.24002 0.32712 0.427 0.0
C1654 C 0.24444 0.33391 0.40742 0.0
C1655 C 0.2398 0.32539 0.38929 0.0
C1656 C 0.23064 0.31006 0.39053 0.0
C1657 C 0.22608 0.30323 0.40991 0.0
C1658 C 0.23071 0.3117 0.42809 0.0
C1659 C 0.21445 0.35115 0.51545 0.0
C1660 C 0.20629 0.33738 0.5253 0.0
C1661 C 0.22469 0.35315 0.49988 0.0
C1662 C 0.2268 0.34138 0.49387 0.0
C1663 C 0.21813 0.32748 0.5031 0.0
C1664 C 0.20808 0.32553 0.51877 0.0
C1665 C 0.23853 0.34356 0.47881 0.0
C1666 C 0.23445 0.33503 0.4606 0.0
C1667 C 0.25369 0.35351 0.48274 0.0
C1668 C 0.25872 0.36217 0.50227 0.0
C1669 C 0.25538 0.35496 0.52162 0.0
C1670 C 0.25998 0.36317 0.54001 0.0
C1671 C 0.26807 0.3786 0.53924 0.0
C1672 C 0.27161 0.38585 0.52006 0.0
C1673 C 0.26699 0.37768 0.50161 0.0
H1674 H 0.27163 0.38495 0.5535 0.0
H1675 H 0.22706 0.30348 0.37648 0.0
H1676 H 0.64648 0.93171 0.39558 0.0
H1677 H 0.64742 0.91495 0.42123 0.0
H1678 H 0.69246 0.94762 0.43603 0.0
H1679 H 0.69173 0.9642 0.40995 0.0
H1680 H 0.69097 0.92239 0.43115 0.0
H1681 H 0.66205 0.9384 0.4695 0.0
H1682 H 0.64134 0.94289 0.47572 0.0
H1683 H 0.61041 0.89653 0.46864 0.0
H1684 H 0.63094 0.89178 0.46212 0.0
H1685 H 0.69937 0.89497 0.52849 0.0
H1686 H 0.69703 0.90873 0.49936 0.0
H1687 H 0.65548 0.87058 0.48237 0.0
H1688 H 0.65791 0.8567 0.51153 0.0
H1689 H 0.65397 0.89655 0.4867 0.0
H1690 H 0.68387 0.88082 0.45106 0.0
H1691 H 0.70511 0.87698 0.44618 0.0
H1692 H 0.73486 0.92383 0.44971 0.0
H1693 H 0.71381 0.92795 0.45491 0.0
C1694 C 0.6565 0.93544 0.40456 0.0
C1695 C 0.66903 0.94932 0.40068 0.0
C1696 C 0.65703 0.92582 0.41926 0.0
C1697 C 0.67001 0.92998 0.43071 0.0
C1698 C 0.68234 0.94406 0.42735 0.0
C1699 C 0.68188 0.95359 0.4125 0.0
C1700 C 0.67105 0.91951 0.44547 0.0
C1701 C 0.68295 0.9169 0.44345 0.0
C1702 C 0.66038 0.91193 0.46118 0.0
C1703 C 0.64802 0.91476 0.46509 0.0
C1704 C 0.65083 0.92918 0.4691 0.0
C1705 C 0.63912 0.93177 0.47271 0.0
C1706 C 0.62457 0.92001 0.47251 0.0
C1707 C 0.62169 0.90563 0.46876 0.0
C1708 C 0.63336 0.90298 0.46512 0.0
C1709 C 0.68994 0.88942 0.51819 0.0
C1710 C 0.67888 0.87475 0.52211 0.0
C1711 C 0.68858 0.89729 0.50159 0.0
C1712 C 0.67608 0.89069 0.48867 0.0
C1713 C 0.66523 0.87587 0.49214 0.0
C1714 C 0.66668 0.86791 0.50863 0.0
C1715 C 0.67398 0.89968 0.47251 0.0
C1716 C 0.6619 0.90199 0.47429 0.0
C1717 C 0.68456 0.90711 0.45672 0.0
C1718 C 0.69726 0.90468 0.45355 0.0
C1719 C 0.69495 0.8903 0.45097 0.0
C1720 C 0.70696 0.88807 0.44811 0.0
C1721 C 0.72133 0.90015 0.44768 0.0
C1722 C 0.72372 0.91448 0.45006 0.0
C1723 C 0.71175 0.91677 0.45294 0.0
H1724 H 0.73061 0.89841 0.44546 0.0
H1725 H 0.61552 0.92204 0.47532 0.0
H1726 H 0.05814 0.73742 0.40226 0.0
H1727 H 0.07675 0.75329 0.42759 0.0
H1728 H 0.0895 0.72029 0.43634 0.0
H1729 H 0.07102 0.70433 0.41051 0.0
H1730 H 0.08558 0.73489 0.47481 0.0
H1731 H 0.11103 0.74597 0.40882 0.0
H1732 H 0.11397 0.75242 0.3716 0.0
H1733 H 0.11409 0.7927 0.38548 0.0
H1734 H 0.11091 0.78637 0.42277 0.0
H1735 H 0.1473 0.78151 0.5354 0.0
H1736 H 0.13305 0.76436 0.50737 0.0
H1737 H 0.12655 0.79817 0.47917 0.0
H1738 H 0.1414 0.8155 0.50673 0.0
H1739 H 0.12808 0.78196 0.44982 0.0
H1740 H 0.10105 0.77163 0.51346 0.0
H1741 H 0.09654 0.76616 0.55089 0.0
H1742 H 0.09711 0.72569 0.5421 0.0
H1743 H 0.10189 0.73105 0.50465 0.0
C1744 C 0.06475 0.7334 0.4097 0.0
C1745 C 0.06306 0.71956 0.40429 0.0
C1746 C 0.07544 0.74254 0.42413 0.0
C1747 C 0.08457 0.73802 0.4337 0.0
C1748 C 0.08256 0.72399 0.42906 0.0
C1749 C 0.072 0.71489 0.41431 0.0
C1750 C 0.09647 0.74824 0.44805 0.0
C1751 C 0.09504 0.74504 0.46935 0.0
C1752 C 0.10852 0.76172 0.44095 0.0
C1753 C 0.11059 0.76562 0.41856 0.0
C1754 C 0.11155 0.75614 0.40392 0.0
C1755 C 0.11329 0.75979 0.38281 0.0
C1756 C 0.11418 0.77294 0.37617 0.0
C1757 C 0.11338 0.7825 0.39064 0.0
C1758 C 0.11163 0.7789 0.41176 0.0
C1759 C 0.14322 0.78538 0.52281 0.0
C1760 C 0.14545 0.7998 0.52314 0.0
C1761 C 0.13493 0.77554 0.50693 0.0
C1762 C 0.12831 0.7798 0.49144 0.0
C1763 C 0.13144 0.79456 0.49097 0.0
C1764 C 0.13998 0.80449 0.50667 0.0
C1765 C 0.11727 0.76866 0.47676 0.0
C1766 C 0.11877 0.77172 0.45536 0.0
C1767 C 0.10508 0.75519 0.48384 0.0
C1768 C 0.10199 0.75182 0.50629 0.0
C1769 C 0.1003 0.76161 0.51953 0.0
C1770 C 0.0977 0.75853 0.54075 0.0
C1771 C 0.09657 0.7456 0.54888 0.0
C1772 C 0.09801 0.73571 0.53579 0.0
C1773 C 0.10067 0.73876 0.51456 0.0
H1774 H 0.09456 0.74324 0.56531 0.0
H1775 H 0.11553 0.77574 0.35982 0.0
H1776 H 0.36531 0.06779 0.73563 0.0
H1777 H 0.36538 0.08448 0.76224 0.0
H1778 H 0.31849 0.06634 0.75396 0.0
H1779 H 0.3183 0.04953 0.72717 0.0
H1780 H 0.33395 0.09705 0.75403 0.0
H1781 H 0.3307 0.05795 0.79673 0.0
H1782 H 0.33787 0.0401 0.8092 0.0
H1783 H 0.38084 0.07579 0.82575 0.0
H1784 H 0.374 0.09386 0.81311 0.0
H1785 H 0.32551 0.13297 0.84399 0.0
H1786 H 0.32392 0.11659 0.81558 0.0
H1787 H 0.36902 0.12773 0.82729 0.0
H1788 H 0.37032 0.14356 0.85624 0.0
H1789 H 0.35305 0.09962 0.82538 0.0
H1790 H 0.35703 0.13884 0.78192 0.0
H1791 H 0.35036 0.15697 0.76903 0.0
H1792 H 0.3069 0.12178 0.75339 0.0
H1793 H 0.31324 0.10344 0.76645 0.0
C1794 C 0.35496 0.0672 0.73959 0.0
C1795 C 0.34179 0.05727 0.72925 0.0
C1796 C 0.35502 0.07676 0.75485 0.0
C1797 C 0.34193 0.07665 0.76015 0.0
C1798 C 0.32872 0.06663 0.7501 0.0
C1799 C 0.32862 0.05695 0.7349 0.0
C1800 C 0.34223 0.08729 0.77581 0.0
C1801 C 0.33792 0.0975 0.76975 0.0
C1802 C 0.34774 0.0881 0.79613 0.0
C1803 C 0.35188 0.07726 0.8038 0.0
C1804 C 0.34172 0.06199 0.80287 0.0
C1805 C 0.34572 0.05184 0.81 0.0
C1806 C 0.35981 0.05681 0.81822 0.0
C1807 C 0.36993 0.07196 0.81936 0.0
C1808 C 0.36599 0.08216 0.81224 0.0
C1809 C 0.33519 0.13222 0.84003 0.0
C1810 C 0.34808 0.13959 0.85211 0.0
C1811 C 0.33429 0.12283 0.82381 0.0
C1812 C 0.34638 0.1209 0.81914 0.0
C1813 C 0.35951 0.12893 0.83059 0.0
C1814 C 0.36032 0.13809 0.84699 0.0
C1815 C 0.34503 0.10967 0.80358 0.0
C1816 C 0.34909 0.09926 0.80968 0.0
C1817 C 0.33939 0.10877 0.78327 0.0
C1818 C 0.33557 0.11978 0.77536 0.0
C1819 C 0.34601 0.13497 0.77588 0.0
C1820 C 0.3423 0.14529 0.76852 0.0
C1821 C 0.3282 0.14053 0.76045 0.0
C1822 C 0.31781 0.12545 0.75968 0.0
C1823 C 0.32146 0.11509 0.76704 0.0
H1824 H 0.32535 0.14853 0.75475 0.0
H1825 H 0.36288 0.04893 0.82373 0.0
H1826 H 0.94473 0.30059 0.73933 0.0
H1827 H 0.92832 0.28412 0.76627 0.0
H1828 H 0.94175 0.25228 0.75159 0.0
H1829 H 0.9583 0.26877 0.72452 0.0
H1830 H 0.91101 0.23973 0.7541 0.0
H1831 H 0.9535 0.27099 0.79537 0.0
H1832 H 0.97385 0.29463 0.80854 0.0
H1833 H 0.94251 0.30629 0.8318 0.0
H1834 H 0.92196 0.28281 0.81849 0.0
H1835 H 0.87492 0.19439 0.84342 0.0
H1836 H 0.89117 0.20879 0.81469 0.0
H1837 H 0.88562 0.24575 0.83144 0.0
H1838 H 0.86983 0.23152 0.86053 0.0
H1839 H 0.91339 0.25488 0.8277 0.0
H1840 H 0.87086 0.22431 0.78546 0.0
H1841 H 0.8503 0.20086 0.77212 0.0
H1842 H 0.88116 0.18808 0.75043 0.0
H1843 H 0.9019 0.21138 0.7639 0.0
C1844 C 0.94436 0.29018 0.74197 0.0
C1845 C 0.95288 0.28604 0.72976 0.0
C1846 C 0.93496 0.28076 0.7574 0.0
C1847 C 0.9338 0.26696 0.76097 0.0
C1848 C 0.94245 0.26287 0.74908 0.0
C1849 C 0.952 0.27237 0.73373 0.0
C1850 C 0.92323 0.25674 0.77675 0.0
C1851 C 0.91163 0.24292 0.77028 0.0
C1852 C 0.92385 0.26105 0.79773 0.0
C1853 C 0.93619 0.27519 0.80576 0.0
C1854 C 0.95094 0.27865 0.80313 0.0
C1855 C 0.96252 0.29201 0.81066 0.0
C1856 C 0.95948 0.30197 0.82096 0.0
C1857 C 0.94485 0.29858 0.82379 0.0
C1858 C 0.93324 0.28523 0.81628 0.0
C1859 C 0.87686 0.20544 0.84054 0.0
C1860 C 0.8711 0.21185 0.85408 0.0
C1861 C 0.88618 0.21369 0.82415 0.0
C1862 C 0.88967 0.22841 0.82081 0.0
C1863 C 0.88321 0.23448 0.83372 0.0
C1864 C 0.87409 0.22632 0.85023 0.0
C1865 C 0.9009 0.23791 0.80505 0.0
C1866 C 0.9127 0.25162 0.81154 0.0
C1867 C 0.90038 0.23351 0.78408 0.0
C1868 C 0.88793 0.21953 0.77589 0.0
C1869 C 0.87326 0.21645 0.77799 0.0
C1870 C 0.86157 0.20319 0.77038 0.0
C1871 C 0.86442 0.19297 0.76049 0.0
C1872 C 0.87897 0.196 0.75813 0.0
C1873 C 0.8907 0.20923 0.76573 0.0
H1874 H 0.85537 0.18271 0.7546 0.0
H1875 H 0.96845 0.31231 0.82678 0.0
H1876 H 0.71148 0.65306 0.74644 0.0
H1877 H 0.72846 0.65419 0.77337 0.0
H1878 H 0.76175 0.697 0.7511 0.0
H1879 H 0.74475 0.69597 0.72399 0.0
H1880 H 0.77249 0.67784 0.756 0.0
H1881 H 0.74562 0.6946 0.79655 0.0
H1882 H 0.72371 0.69438 0.81121 0.0
H1883 H 0.71055 0.65276 0.84078 0.0
H1884 H 0.73225 0.65261 0.82602 0.0
H1885 H 0.81996 0.68701 0.84352 0.0
H1886 H 0.80564 0.68961 0.81524 0.0
H1887 H 0.76713 0.64903 0.83445 0.0
H1888 H 0.78132 0.64661 0.8628 0.0
H1889 H 0.76057 0.6701 0.83115 0.0
H1890 H 0.78625 0.65232 0.78826 0.0
H1891 H 0.80812 0.65244 0.77362 0.0
H1892 H 0.82352 0.69586 0.7487 0.0
H1893 H 0.80182 0.69607 0.76343 0.0
C1894 C 0.72232 0.66284 0.74743 0.0
C1895 C 0.72674 0.67443 0.73303 0.0
C1896 C 0.73202 0.66348 0.76289 0.0
C1897 C 0.74638 0.67569 0.76429 0.0
C1898 C 0.75072 0.68747 0.7503 0.0
C1899 C 0.74095 0.6869 0.73491 0.0
C1900 C 0.75698 0.67568 0.77972 0.0
C1901 C 0.77003 0.67641 0.7725 0.0
C1902 C 0.75364 0.67354 0.80118 0.0
C1903 C 0.74051 0.67353 0.80999 0.0
C1904 C 0.73798 0.68533 0.806 0.0
C1905 C 0.72561 0.68528 0.81437 0.0
C1906 C 0.71573 0.67354 0.82687 0.0
C1907 C 0.71821 0.66184 0.83107 0.0
C1908 C 0.73055 0.66182 0.82271 0.0
C1909 C 0.80857 0.67844 0.84123 0.0
C1910 C 0.80174 0.66659 0.85526 0.0
C1911 C 0.80036 0.67995 0.82515 0.0
C1912 C 0.78525 0.66954 0.82272 0.0
C1913 C 0.77871 0.65727 0.83606 0.0
C1914 C 0.78685 0.65582 0.85215 0.0
C1915 C 0.7759 0.67184 0.8074 0.0
C1916 C 0.7631 0.67161 0.81467 0.0
C1917 C 0.77946 0.6744 0.78602 0.0
C1918 C 0.7925 0.67428 0.77715 0.0
C1919 C 0.79436 0.66195 0.77981 0.0
C1920 C 0.80671 0.66194 0.77147 0.0
C1921 C 0.81722 0.67417 0.76029 0.0
C1922 C 0.81538 0.68641 0.75739 0.0
C1923 C 0.80306 0.68647 0.76572 0.0
H1924 H 0.82678 0.67415 0.75384 0.0
H1925 H 0.70616 0.67353 0.83335 0.0
H1926 H 0.7177 0.63934 0.64017 0.0
H1927 H 0.73439 0.63742 0.61535 0.0
H1928 H 0.74335 0.67861 0.58733 0.0
H1929 H 0.72722 0.6809 0.61269 0.0
H1930 H 0.73686 0.63511 0.57636 0.0
H1931 H 0.77798 0.6985 0.57109 0.0
H1932 H 0.78692 0.72065 0.59324 0.0
H1933 H 0.77565 0.69359 0.64791 0.0
H1934 H 0.76683 0.67131 0.6261 0.0
H1935 H 0.78139 0.6531 0.48728 0.0
H1936 H 0.76474 0.64912 0.51602 0.0
H1937 H 0.80156 0.66681 0.5587 0.0
H1938 H 0.8185 0.67178 0.52955 0.0
H1939 H 0.78666 0.679 0.56687 0.0
H1940 H 0.7726 0.6288 0.55822 0.0
H1941 H 0.76504 0.6053 0.53998 0.0
H1942 H 0.72497 0.60351 0.52 0.0
H1943 H 0.73237 0.6271 0.53788 0.0
C1944 C 0.72309 0.6479 0.62855 0.0
C1945 C 0.72123 0.66035 0.62854 0.0
C1946 C 0.73266 0.6468 0.61437 0.0
C1947 C 0.74048 0.65805 0.59974 0.0
C1948 C 0.73785 0.67 0.59885 0.0
C1949 C 0.72851 0.67124 0.61326 0.0
C1950 C 0.75168 0.65757 0.58584 0.0
C1951 C 0.74776 0.6447 0.57431 0.0
C1952 C 0.76615 0.66985 0.5837 0.0
C1953 C 0.77163 0.68323 0.59694 0.0
C1954 C 0.77747 0.69729 0.58784 0.0
C1955 C 0.78251 0.70986 0.60034 0.0
C1956 C 0.78181 0.70852 0.62197 0.0
C1957 C 0.77614 0.6946 0.63115 0.0
C1958 C 0.77111 0.682 0.61873 0.0
C1959 C 0.78597 0.65606 0.5028 0.0
C1960 C 0.80135 0.663 0.50602 0.0
C1961 C 0.77636 0.65358 0.51934 0.0
C1962 C 0.78178 0.65758 0.5397 0.0
C1963 C 0.79705 0.66366 0.54316 0.0
C1964 C 0.80674 0.66636 0.5265 0.0
C1965 C 0.7717 0.65669 0.55682 0.0
C1966 C 0.77582 0.66933 0.569 0.0
C1967 C 0.75764 0.644 0.5601 0.0
C1968 C 0.7531 0.62979 0.5493 0.0
C1969 C 0.76222 0.62345 0.54982 0.0
C1970 C 0.75796 0.6101 0.53956 0.0
C1971 C 0.74454 0.60293 0.52881 0.0
C1972 C 0.73536 0.60908 0.52833 0.0
C1973 C 0.73957 0.62243 0.53855 0.0
H1974 H 0.74126 0.5926 0.52088 0.0
H1975 H 0.7857 0.71826 0.63161 0.0
H1976 H 0.37046 0.06833 0.61871 0.0
H1977 H 0.37207 0.0859 0.59222 0.0
H1978 H 0.32523 0.06931 0.5979 0.0
H1979 H 0.32344 0.05147 0.62372 0.0
H1980 H 0.33227 0.07472 0.55928 0.0
H1981 H 0.35238 0.10202 0.6226 0.0
H1982 H 0.36909 0.11115 0.65287 0.0
H1983 H 0.40663 0.13199 0.6122 0.0
H1984 H 0.39013 0.12281 0.58167 0.0
H1985 H 0.32708 0.13523 0.52077 0.0
H1986 H 0.32932 0.11978 0.54765 0.0
H1987 H 0.37127 0.12919 0.52209 0.0
H1988 H 0.36883 0.14432 0.49482 0.0
H1989 H 0.36811 0.12809 0.56963 0.0
H1990 H 0.34681 0.10064 0.50617 0.0
H1991 H 0.32922 0.09244 0.4769 0.0
H1992 H 0.29283 0.07239 0.51961 0.0
H1993 H 0.31023 0.08075 0.54918 0.0
C1994 C 0.36046 0.06828 0.6141 0.0
C1995 C 0.34684 0.0585 0.62348 0.0
C1996 C 0.36142 0.07843 0.59906 0.0
C1997 C 0.34883 0.0792 0.59333 0.0
C1998 C 0.33513 0.06903 0.60205 0.0
C1999 C 0.33414 0.0588 0.61688 0.0
C2000 C 0.34983 0.09076 0.57869 0.0
C2001 C 0.34005 0.08638 0.56172 0.0
C2002 C 0.3601 0.10603 0.58155 0.0
C2003 C 0.37003 0.1116 0.59986 0.0
C2004 C 0.3642 0.10846 0.62012 0.0
C2005 C 0.37363 0.11366 0.63732 0.0
C2006 C 0.38891 0.12211 0.63446 0.0
C2007 C 0.39479 0.12542 0.61439 0.0
C2008 C 0.3854 0.12023 0.59713 0.0
C2009 C 0.33699 0.13439 0.52136 0.0
C2010 C 0.34787 0.14106 0.50596 0.0
C2011 C 0.33822 0.12551 0.5366 0.0
C2012 C 0.35044 0.12332 0.53679 0.0
C2013 C 0.36181 0.13082 0.52227 0.0
C2014 C 0.36044 0.13947 0.50678 0.0
C2015 C 0.35049 0.11197 0.55058 0.0
C2016 C 0.36044 0.1164 0.56727 0.0
C2017 C 0.34029 0.09676 0.54765 0.0
C2018 C 0.32982 0.09146 0.52989 0.0
C2019 C 0.33505 0.0946 0.50933 0.0
C2020 C 0.32512 0.08991 0.49268 0.0
C2021 C 0.30991 0.08193 0.4964 0.0
C2022 C 0.30462 0.07859 0.51676 0.0
C2023 C 0.31451 0.0833 0.53347 0.0
H2024 H 0.30224 0.07831 0.48349 0.0
H2025 H 0.3962 0.12612 0.6478 0.0
H2026 H 0.93788 0.30329 0.62158 0.0
H2027 H 0.91962 0.28757 0.59557 0.0
H2028 H 0.93688 0.25772 0.59722 0.0
H2029 H 0.95538 0.27354 0.62256 0.0
H2030 H 0.93032 0.25985 0.55933 0.0
H2031 H 0.90493 0.25131 0.62459 0.0
H2032 H 0.89653 0.25818 0.65632 0.0
H2033 H 0.87391 0.27483 0.61916 0.0
H2034 H 0.88235 0.26822 0.58719 0.0
H2035 H 0.86938 0.19299 0.52587 0.0
H2036 H 0.8838 0.21105 0.55297 0.0
H2037 H 0.87669 0.24369 0.52247 0.0
H2038 H 0.86266 0.22576 0.49493 0.0
H2039 H 0.87716 0.24113 0.57361 0.0
H2040 H 0.90396 0.24928 0.50776 0.0
H2041 H 0.91104 0.23963 0.47754 0.0
H2042 H 0.93035 0.22137 0.51829 0.0
H2043 H 0.92305 0.23062 0.54877 0.0
C2044 C 0.93792 0.29349 0.61619 0.0
C2045 C 0.94808 0.28968 0.62429 0.0
C2046 C 0.92738 0.28443 0.60142 0.0
C2047 C 0.92663 0.27125 0.59469 0.0
C2048 C 0.93716 0.26777 0.60215 0.0
C2049 C 0.94776 0.27687 0.61671 0.0
C2050 C 0.91473 0.26082 0.58034 0.0
C2051 C 0.91873 0.25579 0.56258 0.0
C2052 C 0.89952 0.25548 0.58433 0.0
C2053 C 0.89441 0.25943 0.60351 0.0
C2054 C 0.89826 0.25654 0.62319 0.0
C2055 C 0.89347 0.26036 0.64121 0.0
C2056 C 0.88473 0.26698 0.63976 0.0
C2057 C 0.88071 0.26973 0.62027 0.0
C2058 C 0.88548 0.26594 0.60219 0.0
C2059 C 0.87035 0.20381 0.52548 0.0
C2060 C 0.8648 0.20798 0.50853 0.0
C2061 C 0.87865 0.21413 0.54086 0.0
C2062 C 0.88132 0.22868 0.53964 0.0
C2063 C 0.87464 0.23248 0.52373 0.0
C2064 C 0.8666 0.22224 0.5081 0.0
C2065 C 0.89288 0.24033 0.5529 0.0
C2066 C 0.8888 0.24546 0.57037 0.0
C2067 C 0.90801 0.24565 0.54885 0.0
C2068 C 0.91282 0.24051 0.53053 0.0
C2069 C 0.9096 0.2431 0.51027 0.0
C2070 C 0.91366 0.23772 0.4931 0.0
C2071 C 0.92112 0.22987 0.496 0.0
C2072 C 0.92456 0.22743 0.51607 0.0
C2073 C 0.92046 0.23274 0.5333 0.0
H2074 H 0.92427 0.22572 0.4827 0.0
H2075 H 0.88103 0.26993 0.65373 0.0
H2076 H 0.31598 0.26529 0.63835 0.0
H2077 H 0.31815 0.24972 0.6119 0.0
H2078 H 0.36205 0.28478 0.59699 0.0
H2079 H 0.36014 0.30045 0.62391 0.0
H2080 H 0.34177 0.26907 0.56132 0.0
H2081 H 0.362 0.26037 0.62304 0.0
H2082 H 0.36241 0.25456 0.66007 0.0
H2083 H 0.32304 0.21249 0.65163 0.0
H2084 H 0.32228 0.21815 0.61455 0.0
H2085 H 0.36312 0.228 0.4995 0.0
H2086 H 0.36351 0.24342 0.52836 0.0
H2087 H 0.323 0.20697 0.55197 0.0
H2088 H 0.3227 0.19138 0.52306 0.0
H2089 H 0.34202 0.22368 0.58358 0.0
H2090 H 0.32161 0.23217 0.52199 0.0
H2091 H 0.32116 0.23771 0.48484 0.0
H2092 H 0.36026 0.28004 0.49293 0.0
H2093 H 0.3611 0.27465 0.53008 0.0
C2094 C 0.32606 0.26981 0.62933 0.0
C2095 C 0.3379 0.28415 0.63327 0.0
C2096 C 0.3273 0.26084 0.61428 0.0
C2097 C 0.34029 0.26607 0.60262 0.0
C2098 C 0.35194 0.28055 0.60589 0.0
C2099 C 0.35083 0.28948 0.62126 0.0
C2100 C 0.34171 0.25618 0.5874 0.0
C2101 C 0.34206 0.25928 0.56616 0.0
C2102 C 0.34167 0.24319 0.59377 0.0
C2103 C 0.342 0.23976 0.61607 0.0
C2104 C 0.35334 0.24995 0.62912 0.0
C2105 C 0.35366 0.24667 0.6501 0.0
C2106 C 0.34275 0.23317 0.65819 0.0
C2107 C 0.33148 0.22294 0.64533 0.0
C2108 C 0.33111 0.22617 0.62432 0.0
C2109 C 0.35447 0.22319 0.51111 0.0
C2110 C 0.34282 0.20855 0.50902 0.0
C2111 C 0.35466 0.23202 0.52752 0.0
C2112 C 0.34311 0.22646 0.54205 0.0
C2113 C 0.33199 0.21151 0.54085 0.0
C2114 C 0.33184 0.2026 0.52441 0.0
C2115 C 0.34215 0.23659 0.55742 0.0
C2116 C 0.34179 0.2335 0.5787 0.0
C2117 C 0.3421 0.24956 0.55107 0.0
C2118 C 0.34149 0.25295 0.52879 0.0
C2119 C 0.33017 0.24262 0.51582 0.0
C2120 C 0.32984 0.24573 0.49476 0.0
C2121 C 0.34069 0.2592 0.48651 0.0
C2122 C 0.35187 0.26961 0.49933 0.0
C2123 C 0.35228 0.26653 0.5204 0.0
H2124 H 0.34042 0.26159 0.4702 0.0
H2125 H 0.34308 0.23064 0.67441 0.0
H2126 H 0.73332 0.04112 0.62412 0.0
H2127 H 0.75006 0.05714 0.59714 0.0
H2128 H 0.73475 0.08812 0.60698 0.0
H2129 H 0.71764 0.07192 0.6337 0.0
H2130 H 0.73933 0.08647 0.56678 0.0
H2131 H 0.76737 0.09351 0.62881 0.0
H2132 H 0.77651 0.08594 0.65905 0.0
H2133 H 0.79582 0.06765 0.61834 0.0
H2134 H 0.78662 0.07494 0.58785 0.0
H2135 H 0.8019 0.14744 0.51909 0.0
H2136 H 0.78557 0.13228 0.54743 0.0
H2137 H 0.79169 0.09602 0.52892 0.0
H2138 H 0.80773 0.11101 0.50037 0.0
H2139 H 0.79231 0.1015 0.5743 0.0
H2140 H 0.76289 0.09345 0.51258 0.0
H2141 H 0.75434 0.10178 0.4825 0.0
H2142 H 0.73813 0.1229 0.52357 0.0
H2143 H 0.74686 0.1149 0.55388 0.0
C2144 C 0.73335 0.05124 0.62039 0.0
C2145 C 0.7242 0.05527 0.63124 0.0
C2146 C 0.74302 0.06046 0.60502 0.0
C2147 C 0.74397 0.07405 0.60036 0.0
C2148 C 0.73431 0.07775 0.61039 0.0
C2149 C 0.72451 0.06845 0.62566 0.0
C2150 C 0.75537 0.08456 0.58557 0.0
C2151 C 0.75092 0.0899 0.56865 0.0
C2152 C 0.77054 0.08896 0.58776 0.0
C2153 C 0.77619 0.08465 0.60605 0.0
C2154 C 0.77348 0.08779 0.62631 0.0
C2155 C 0.77868 0.08356 0.6435 0.0
C2156 C 0.78671 0.07629 0.64062 0.0
C2157 C 0.78959 0.07327 0.62054 0.0
C2158 C 0.78439 0.07746 0.6033 0.0
C2159 C 0.80004 0.13637 0.52145 0.0
C2160 C 0.80612 0.1304 0.50768 0.0
C2161 C 0.79065 0.1277 0.5375 0.0
C2162 C 0.78739 0.11302 0.54019 0.0
C2163 C 0.79411 0.10733 0.52715 0.0
C2164 C 0.80327 0.11589 0.5109 0.0
C2165 C 0.7762 0.10326 0.55562 0.0
C2166 C 0.78071 0.09809 0.5726 0.0
C2167 C 0.76112 0.09909 0.55358 0.0
C2168 C 0.75569 0.10374 0.53545 0.0
C2169 C 0.75763 0.09999 0.51517 0.0
C2170 C 0.75274 0.10463 0.49808 0.0
C2171 C 0.74574 0.11291 0.50112 0.0
C2172 C 0.74358 0.11652 0.52125 0.0
C2173 C 0.7485 0.11193 0.53838 0.0
H2174 H 0.74194 0.11649 0.48788 0.0
H2175 H 0.79073 0.07302 0.65394 0.0
H2176 H 0.95771 0.69466 0.63988 0.0
H2177 H 0.93997 0.6927 0.61359 0.0
H2178 H 0.93028 0.64848 0.59879 0.0
H2179 H 0.94787 0.6502 0.62553 0.0
H2180 H 0.93484 0.66823 0.5631 0.0
H2181 H 0.90629 0.6497 0.62546 0.0
H2182 H 0.90051 0.65016 0.66249 0.0
H2183 H 0.89902 0.69005 0.65274 0.0
H2184 H 0.90501 0.68995 0.61565 0.0
H2185 H 0.87274 0.64832 0.50119 0.0
H2186 H 0.88751 0.64753 0.53011 0.0
H2187 H 0.89266 0.68853 0.55368 0.0
H2188 H 0.87757 0.68918 0.52478 0.0
H2189 H 0.89018 0.66987 0.58533 0.0
H2190 H 0.91889 0.68878 0.52329 0.0
H2191 H 0.92453 0.68852 0.48613 0.0
H2192 H 0.92634 0.64873 0.49517 0.0
H2193 H 0.92044 0.64859 0.53233 0.0
C2194 C 0.95195 0.68455 0.63093 0.0
C2195 C 0.95424 0.67257 0.63484 0.0
C2196 C 0.94174 0.68343 0.61597 0.0
C2197 C 0.93374 0.67042 0.60437 0.0
C2198 C 0.93634 0.65862 0.60764 0.0
C2199 C 0.94639 0.65962 0.62291 0.0
C2200 C 0.92245 0.66914 0.58918 0.0
C2201 C 0.92496 0.66834 0.56794 0.0
C2202 C 0.90978 0.66972 0.59552 0.0
C2203 C 0.90625 0.66989 0.61782 0.0
C2204 C 0.90489 0.65865 0.63125 0.0
C2205 C 0.90153 0.65883 0.65223 0.0
C2206 C 0.89942 0.67014 0.65996 0.0
C2207 C 0.90067 0.68131 0.64672 0.0
C2208 C 0.90403 0.68119 0.62571 0.0
C2209 C 0.87674 0.65698 0.51283 0.0
C2210 C 0.8741 0.66886 0.51074 0.0
C2211 C 0.88525 0.65657 0.52927 0.0
C2212 C 0.89151 0.66816 0.54379 0.0
C2213 C 0.88802 0.67952 0.54258 0.0
C2214 C 0.87937 0.67987 0.52615 0.0
C2215 C 0.90251 0.66889 0.55917 0.0
C2216 C 0.90002 0.66968 0.58044 0.0
C2217 C 0.91527 0.66842 0.55284 0.0
C2218 C 0.91908 0.6686 0.53056 0.0
C2219 C 0.92039 0.67991 0.51733 0.0
C2220 C 0.92364 0.67984 0.49627 0.0
C2221 C 0.92576 0.6686 0.48828 0.0
C2222 C 0.92467 0.65742 0.50137 0.0
C2223 C 0.92138 0.65742 0.52244 0.0
H2224 H 0.92827 0.66856 0.47197 0.0
H2225 H 0.89674 0.67019 0.67618 0.0
H2226 H 0.93845 0.65816 0.73297 0.0
H2227 H 0.92279 0.66074 0.75885 0.0
H2228 H 0.95892 0.70343 0.77645 0.0
H2229 H 0.97467 0.70117 0.75002 0.0
H2230 H 0.93986 0.68005 0.81079 0.0
H2231 H 0.93814 0.70761 0.75159 0.0
H2232 H 0.93501 0.71114 0.71445 0.0
H2233 H 0.8909 0.67392 0.71591 0.0
H2234 H 0.89387 0.67 0.75302 0.0
H2235 H 0.89804 0.69913 0.87505 0.0
H2236 H 0.91526 0.70187 0.84734 0.0
H2237 H 0.87928 0.66748 0.81222 0.0
H2238 H 0.86196 0.66493 0.83983 0.0
H2239 H 0.89929 0.68804 0.78647 0.0
H2240 H 0.90022 0.65954 0.84391 0.0
H2241 H 0.90237 0.65438 0.88074 0.0
H2242 H 0.94683 0.69096 0.88241 0.0
H2243 H 0.94485 0.69652 0.84567 0.0
C2244 C 0.94318 0.66805 0.74247 0.0
C2245 C 0.95785 0.67946 0.73942 0.0
C2246 C 0.93416 0.66952 0.7572 0.0
C2247 C 0.93968 0.6823 0.76945 0.0
C2248 C 0.95447 0.69349 0.76708 0.0
C2249 C 0.96344 0.69218 0.752 0.0
C2250 C 0.92976 0.68398 0.7843 0.0
C2251 C 0.93117 0.6821 0.80557 0.0
C2252 C 0.91812 0.68613 0.77733 0.0
C2253 C 0.91629 0.68841 0.75502 0.0
C2254 C 0.92783 0.70007 0.74394 0.0
C2255 C 0.92608 0.70217 0.72291 0.0
C2256 C 0.91278 0.69274 0.71281 0.0
C2257 C 0.90121 0.6812 0.72374 0.0
C2258 C 0.90292 0.67904 0.74478 0.0
C2259 C 0.89376 0.69245 0.86114 0.0
C2260 C 0.87869 0.68175 0.85962 0.0
C2261 C 0.90361 0.69394 0.84538 0.0
C2262 C 0.89864 0.68461 0.82793 0.0
C2263 C 0.8834 0.67475 0.82559 0.0
C2264 C 0.87349 0.67334 0.84132 0.0
C2265 C 0.90943 0.68427 0.81313 0.0
C2266 C 0.90809 0.68622 0.79181 0.0
C2267 C 0.92103 0.68196 0.82005 0.0
C2268 C 0.92233 0.67855 0.84209 0.0
C2269 C 0.91042 0.66656 0.85217 0.0
C2270 C 0.91161 0.66355 0.87303 0.0
C2271 C 0.92472 0.67236 0.88393 0.0
C2272 C 0.93668 0.68417 0.87396 0.0
C2273 C 0.93552 0.68725 0.85312 0.0
H2274 H 0.92562 0.67001 0.90007 0.0
H2275 H 0.91143 0.69443 0.69655 0.0
H2276 H 0.35218 0.28199 0.73144 0.0
H2277 H 0.34956 0.26352 0.75697 0.0
H2278 H 0.30668 0.25651 0.77422 0.0
H2279 H 0.30899 0.27476 0.74817 0.0
H2280 H 0.32885 0.2603 0.80882 0.0
H2281 H 0.30361 0.23185 0.74816 0.0
H2282 H 0.30095 0.2256 0.71087 0.0
H2283 H 0.33864 0.21955 0.71386 0.0
H2284 H 0.34168 0.22601 0.75114 0.0
H2285 H 0.31059 0.19897 0.87173 0.0
H2286 H 0.3076 0.21323 0.84391 0.0
H2287 H 0.34371 0.21396 0.81039 0.0
H2288 H 0.3465 0.19939 0.83805 0.0
H2289 H 0.32329 0.21281 0.7837 0.0
H2290 H 0.34956 0.24195 0.84299 0.0
H2291 H 0.35321 0.24844 0.88022 0.0
H2292 H 0.31529 0.25418 0.87974 0.0
H2293 H 0.31125 0.24745 0.84257 0.0
C2294 C 0.34224 0.27668 0.7408 0.0
C2295 C 0.33079 0.27988 0.73776 0.0
C2296 C 0.34074 0.26606 0.75531 0.0
C2297 C 0.3279 0.2586 0.76736 0.0
C2298 C 0.31667 0.26214 0.76501 0.0
C2299 C 0.31801 0.27256 0.75015 0.0
C2300 C 0.32619 0.24688 0.78201 0.0
C2301 C 0.32735 0.2498 0.80339 0.0
C2302 C 0.32468 0.23339 0.77482 0.0
C2303 C 0.32297 0.22958 0.75239 0.0
C2304 C 0.31144 0.22936 0.74082 0.0
C2305 C 0.30984 0.22574 0.7197 0.0
C2306 C 0.31963 0.22221 0.71 0.0
C2307 C 0.33106 0.2223 0.7214 0.0
C2308 C 0.33273 0.22593 0.74253 0.0
C2309 C 0.3176 0.20182 0.85812 0.0
C2310 C 0.32883 0.19816 0.85708 0.0
C2311 C 0.31596 0.21005 0.84231 0.0
C2312 C 0.32569 0.21503 0.82531 0.0
C2313 C 0.33613 0.21034 0.8234 0.0
C2314 C 0.33768 0.20196 0.83916 0.0
C2315 C 0.32588 0.22615 0.81064 0.0
C2316 C 0.3246 0.22321 0.78921 0.0
C2317 C 0.32745 0.23973 0.81778 0.0
C2318 C 0.33001 0.24404 0.84005 0.0
C2319 C 0.34194 0.2445 0.85085 0.0
C2320 C 0.34408 0.24822 0.87194 0.0
C2321 C 0.33447 0.25169 0.88235 0.0
C2322 C 0.32272 0.25147 0.87166 0.0
C2323 C 0.32049 0.2477 0.85059 0.0
H2324 H 0.33614 0.25456 0.89868 0.0
H2325 H 0.31832 0.21934 0.69367 0.0
H2326 H 0.73708 0.04002 0.74425 0.0
H2327 H 0.75544 0.0562 0.76997 0.0
H2328 H 0.74366 0.08967 0.75863 0.0
H2329 H 0.72521 0.0736 0.73325 0.0
H2330 H 0.77473 0.10031 0.7576 0.0
H2331 H 0.73209 0.07085 0.80121 0.0
H2332 H 0.71196 0.04747 0.81536 0.0
H2333 H 0.74367 0.03608 0.83788 0.0
H2334 H 0.76399 0.05931 0.8236 0.0
H2335 H 0.80692 0.15062 0.84151 0.0
H2336 H 0.79243 0.13373 0.81348 0.0
H2337 H 0.79876 0.09955 0.84081 0.0
H2338 H 0.81258 0.11628 0.86946 0.0
H2339 H 0.77176 0.08817 0.83256 0.0
H2340 H 0.81468 0.11768 0.7919 0.0
H2341 H 0.83542 0.1405 0.77743 0.0
H2342 H 0.80483 0.15107 0.74852 0.0
H2343 H 0.7839 0.12842 0.76305 0.0
C2344 C 0.73828 0.05076 0.74739 0.0
C2345 C 0.7296 0.05546 0.73669 0.0
C2346 C 0.7488 0.06 0.76207 0.0
C2347 C 0.75096 0.07417 0.76614 0.0
C2348 C 0.74223 0.07882 0.75566 0.0
C2349 C 0.7316 0.06954 0.74124 0.0
C2350 C 0.76236 0.08426 0.78123 0.0
C2351 C 0.77407 0.09774 0.77404 0.0
C2352 C 0.76175 0.08067 0.80251 0.0
C2353 C 0.74954 0.06673 0.81112 0.0
C2354 C 0.73476 0.06329 0.80901 0.0
C2355 C 0.72332 0.05008 0.81709 0.0
C2356 C 0.72653 0.04027 0.82746 0.0
C2357 C 0.7412 0.04367 0.82981 0.0
C2358 C 0.75268 0.05686 0.82174 0.0
C2359 C 0.80557 0.13963 0.84115 0.0
C2360 C 0.81097 0.13477 0.85749 0.0
C2361 C 0.79727 0.12995 0.8251 0.0
C2362 C 0.79453 0.1153 0.82479 0.0
C2363 C 0.80063 0.11073 0.84063 0.0
C2364 C 0.80865 0.12032 0.8569 0.0
C2365 C 0.78426 0.10444 0.80908 0.0
C2366 C 0.77267 0.09077 0.81612 0.0
C2367 C 0.78515 0.10778 0.78758 0.0
C2368 C 0.79771 0.12139 0.77871 0.0
C2369 C 0.81237 0.12492 0.78258 0.0
C2370 C 0.82416 0.13782 0.77434 0.0
C2371 C 0.82144 0.14724 0.7621 0.0
C2372 C 0.80692 0.14377 0.75802 0.0
C2373 C 0.79508 0.13089 0.76623 0.0
H2374 H 0.83058 0.15722 0.75574 0.0
H2375 H 0.71766 0.03005 0.83371 0.0
H2376 H 0.07632 0.38994 0.02286 0.0
H2377 H 0.09523 0.38442 0.03466 0.0
H2378 H 0.06271 0.33799 0.03718 0.0
H2379 H 0.04362 0.34349 0.02557 0.0
H2380 H 0.07905 0.34637 0.07179 0.0
H2381 H 0.08945 0.35224 0.99888 0.0
H2382 H 0.09475 0.3647 0.96486 0.0
H2383 H 0.13439 0.40134 0.98946 0.0
H2384 H 0.12923 0.38918 0.02374 0.0
H2385 H 0.12738 0.32046 0.09139 0.0
H2386 H 0.11167 0.32577 0.06906 0.0
H2387 H 0.14161 0.37252 0.07677 0.0
H2388 H 0.15739 0.36717 0.09928 0.0
H2389 H 0.12698 0.36373 0.03583 0.0
H2390 H 0.11582 0.35853 0.109 0.0
H2391 H 0.11112 0.34583 0.14281 0.0
H2392 H 0.073 0.30789 0.11741 0.0
H2393 H 0.07764 0.32027 0.08333 0.0
C2394 C 0.07318 0.37852 0.02572 0.0
C2395 C 0.05841 0.36715 0.02321 0.0
C2396 C 0.08406 0.37537 0.03241 0.0
C2397 C 0.08049 0.36076 0.03665 0.0
C2398 C 0.06578 0.34936 0.03398 0.0
C2399 C 0.05487 0.3525 0.02725 0.0
C2400 C 0.09198 0.35751 0.04472 0.0
C2401 C 0.08941 0.34997 0.0637 0.0
C2402 C 0.10572 0.36252 0.03453 0.0
C2403 C 0.10888 0.36985 0.01394 0.0
C2404 C 0.09924 0.363 0.99709 0.0
C2405 C 0.10223 0.37 0.97775 0.0
C2406 C 0.11488 0.38382 0.97501 0.0
C2407 C 0.12458 0.39064 0.99161 0.0
C2408 C 0.12164 0.3837 0.01099 0.0
C2409 C 0.13096 0.33185 0.08751 0.0
C2410 C 0.14365 0.34341 0.0969 0.0
C2411 C 0.12192 0.33489 0.0749 0.0
C2412 C 0.12534 0.34954 0.07151 0.0
C2413 C 0.13877 0.36113 0.07917 0.0
C2414 C 0.14785 0.35808 0.09189 0.0
C2415 C 0.11394 0.35256 0.0627 0.0
C2416 C 0.11656 0.36009 0.04375 0.0
C2417 C 0.10024 0.34758 0.07291 0.0
C2418 C 0.09716 0.34027 0.09355 0.0
C2419 C 0.10649 0.34744 0.11059 0.0
C2420 C 0.10383 0.34031 0.12981 0.0
C2421 C 0.09179 0.32605 0.13224 0.0
C2422 C 0.08234 0.31893 0.11549 0.0
C2423 C 0.08497 0.326 0.09622 0.0
H2424 H 0.08977 0.32054 0.14712 0.0
H2425 H 0.11717 0.38921 0.96002 0.0
H2426 H 0.62512 0.69012 0.0144 0.0
H2427 H 0.63198 0.71524 0.02505 0.0
H2428 H 0.67638 0.72465 0.03771 0.0
H2429 H 0.66961 0.69951 0.02692 0.0
H2430 H 0.6639 0.73167 0.07055 0.0
H2431 H 0.66999 0.74077 0.99711 0.0
H2432 H 0.66245 0.73635 0.9603 0.0
H2433 H 0.62643 0.74385 0.97334 0.0
H2434 H 0.63363 0.74811 0.01031 0.0
H2435 H 0.69264 0.80453 0.0998 0.0
H2436 H 0.68948 0.78487 0.07599 0.0
H2437 H 0.64445 0.77388 0.06457 0.0
H2438 H 0.6477 0.79375 0.08831 0.0
H2439 H 0.65803 0.76854 0.02923 0.0
H2440 H 0.6481 0.75485 0.10114 0.0
H2441 H 0.65338 0.75833 0.13868 0.0
H2442 H 0.6942 0.75868 0.12881 0.0
H2443 H 0.68903 0.75501 0.09122 0.0
C2444 C 0.63641 0.69758 0.01918 0.0
C2445 C 0.64681 0.69278 0.01984 0.0
C2446 C 0.64033 0.71199 0.02518 0.0
C2447 C 0.65472 0.72189 0.03209 0.0
C2448 C 0.66522 0.71722 0.03238 0.0
C2449 C 0.66134 0.70286 0.02615 0.0
C2450 C 0.65847 0.73668 0.04047 0.0
C2451 C 0.6629 0.73982 0.06132 0.0
C2452 C 0.65661 0.74715 0.02876 0.0
C2453 C 0.65228 0.74463 0.00653 0.0
C2454 C 0.66039 0.74135 0.99217 0.0
C2455 C 0.65619 0.7389 0.97126 0.0
C2456 C 0.64395 0.73979 0.96449 0.0
C2457 C 0.6359 0.74316 0.97861 0.0
C2458 C 0.64005 0.74561 0.99954 0.0
C2459 C 0.68231 0.79838 0.09142 0.0
C2460 C 0.67046 0.80073 0.09571 0.0
C2461 C 0.68045 0.78706 0.07796 0.0
C2462 C 0.66665 0.77773 0.06873 0.0
C2463 C 0.6552 0.78095 0.07146 0.0
C2464 C 0.65709 0.79236 0.08492 0.0
C2465 C 0.66364 0.7635 0.05911 0.0
C2466 C 0.65921 0.76043 0.03825 0.0
C2467 C 0.6652 0.7529 0.07082 0.0
C2468 C 0.66825 0.75479 0.09342 0.0
C2469 C 0.65822 0.75572 0.10701 0.0
C2470 C 0.66118 0.75772 0.1283 0.0
C2471 C 0.67418 0.75888 0.13616 0.0
C2472 C 0.68415 0.75784 0.12275 0.0
C2473 C 0.68118 0.75571 0.10145 0.0
H2474 H 0.67645 0.76052 0.15265 0.0
H2475 H 0.64071 0.73789 0.9483 0.0
H2476 H 0.31045 0.96869 0.02552 0.0
H2477 H 0.28588 0.9498 0.03738 0.0
H2478 H 0.30165 0.91908 0.04581 0.0
H2479 H 0.32609 0.93776 0.03362 0.0
H2480 H 0.2746 0.90498 0.02984 0.0
H2481 H 0.29797 0.93813 0.08711 0.0
H2482 H 0.3107 0.96223 0.10506 0.0
H2483 H 0.27372 0.96845 0.09331 0.0
H2484 H 0.26084 0.94446 0.07504 0.0
H2485 H 0.2207 0.85663 0.10495 0.0
H2486 H 0.24219 0.87279 0.08336 0.0
H2487 H 0.22491 0.90226 0.07467 0.0
H2488 H 0.20363 0.88624 0.09644 0.0
H2489 H 0.25219 0.91686 0.08933 0.0
H2490 H 0.22811 0.88231 0.03383 0.0
H2491 H 0.2156 0.85778 0.01708 0.0
H2492 H 0.25401 0.85361 0.02675 0.0
H2493 H 0.26669 0.87804 0.04383 0.0
C2494 C 0.30866 0.95788 0.02975 0.0
C2495 C 0.3203 0.9548 0.02871 0.0
C2496 C 0.2946 0.94709 0.03662 0.0
C2497 C 0.2919 0.93302 0.0428 0.0
C2498 C 0.3034 0.92981 0.04117 0.0
C2499 C 0.31742 0.94056 0.03425 0.0
C2500 C 0.27729 0.92183 0.05162 0.0
C2501 C 0.26976 0.90754 0.04296 0.0
C2502 C 0.27079 0.92515 0.06856 0.0
C2503 C 0.27852 0.93959 0.0795 0.0
C2504 C 0.2926 0.9447 0.08821 0.0
C2505 C 0.29984 0.95832 0.09846 0.0
C2506 C 0.29305 0.96689 0.10027 0.0
C2507 C 0.27898 0.96182 0.09186 0.0
C2508 C 0.27171 0.94821 0.08157 0.0
C2509 C 0.22122 0.86622 0.09765 0.0
C2510 C 0.21042 0.87008 0.10205 0.0
C2511 C 0.23355 0.87553 0.08543 0.0
C2512 C 0.23524 0.88882 0.07736 0.0
C2513 C 0.22392 0.89213 0.08071 0.0
C2514 C 0.21167 0.88289 0.09295 0.0
C2515 C 0.24939 0.90002 0.06745 0.0
C2516 C 0.25692 0.91431 0.07605 0.0
C2517 C 0.25589 0.89663 0.05058 0.0
C2518 C 0.2483 0.88195 0.04028 0.0
C2519 C 0.23385 0.87611 0.03254 0.0
C2520 C 0.22673 0.86223 0.02295 0.0
C2521 C 0.23399 0.85412 0.0209 0.0
C2522 C 0.2484 0.8599 0.02837 0.0
C2523 C 0.25556 0.87376 0.03799 0.0
H2524 H 0.22846 0.84338 0.01347 0.0
H2525 H 0.29866 0.97743 0.10822 0.0
H2526 H 0.34294 0.03329 1.00029 0.0
H2527 H 0.33738 0.05274 0.99093 0.0
H2528 H 0.38375 0.08302 0.98054 0.0
H2529 H 0.38939 0.06379 0.9902 0.0
H2530 H 0.37183 0.09699 0.99975 0.0
H2531 H 0.35912 0.06483 0.94001 0.0
H2532 H 0.3461 0.04104 0.92131 0.0
H2533 H 0.3043 0.03682 0.93754 0.0
H2534 H 0.31708 0.06051 0.95656 0.0
H2535 H 0.37284 0.14844 0.92667 0.0
H2536 H 0.3748 0.13042 0.94866 0.0
H2537 H 0.32733 0.10571 0.9548 0.0
H2538 H 0.32543 0.12376 0.93246 0.0
H2539 H 0.33718 0.08829 0.94168 0.0
H2540 H 0.35048 0.1226 0.99749 0.0
H2541 H 0.36395 0.14677 0.0151 0.0
H2542 H 0.40496 0.14744 0.00568 0.0
H2543 H 0.39177 0.12336 0.98774 0.0
C2544 C 0.35196 0.04411 0.99613 0.0
C2545 C 0.36661 0.04692 0.99591 0.0
C2546 C 0.34876 0.05523 0.9907 0.0
C2547 C 0.36012 0.06937 0.98476 0.0
C2548 C 0.37477 0.07226 0.98505 0.0
C2549 C 0.37797 0.06119 0.99052 0.0
C2550 C 0.35684 0.08106 0.97762 0.0
C2551 C 0.36431 0.09511 0.98697 0.0
C2552 C 0.34674 0.07858 0.96131 0.0
C2553 C 0.33905 0.06434 0.94991 0.0
C2554 C 0.34715 0.05876 0.93973 0.0
C2555 C 0.33981 0.04531 0.92905 0.0
C2556 C 0.32438 0.0374 0.9283 0.0
C2557 C 0.31625 0.04294 0.93817 0.0
C2558 C 0.32353 0.05638 0.9489 0.0
C2559 C 0.36289 0.13953 0.93354 0.0
C2560 C 0.34901 0.13767 0.92831 0.0
C2561 C 0.364 0.12916 0.94604 0.0
C2562 C 0.35122 0.11665 0.95355 0.0
C2563 C 0.33736 0.11525 0.94928 0.0
C2564 C 0.33627 0.12567 0.93678 0.0
C2565 C 0.35232 0.10433 0.96361 0.0
C2566 C 0.3445 0.09015 0.95473 0.0
C2567 C 0.36215 0.10674 0.98028 0.0
C2568 C 0.37013 0.1212 0.99114 0.0
C2569 C 0.36239 0.12794 0.99904 0.0
C2570 C 0.36997 0.14162 0.0091 0.0
C2571 C 0.3853 0.14865 0.01148 0.0
C2572 C 0.39308 0.14199 0.00383 0.0
C2573 C 0.38555 0.12831 0.99374 0.0
H2574 H 0.39115 0.15924 0.01927 0.0
H2575 H 0.31872 0.02699 0.92001 0.0
H2576 H 0.97972 0.31217 0.99818 0.0
H2577 H 0.96012 0.28726 0.98859 0.0
H2578 H 0.92876 0.30263 0.98619 0.0
H2579 H 0.94819 0.32742 0.99606 0.0
H2580 H 0.91619 0.27589 0.00352 0.0
H2581 H 0.94483 0.29828 0.94177 0.0
H2582 H 0.96748 0.31049 0.92053 0.0
H2583 H 0.97402 0.2734 0.92929 0.0
H2584 H 0.95149 0.26105 0.95081 0.0
H2585 H 0.86188 0.22548 0.93234 0.0
H2586 H 0.88035 0.24548 0.954 0.0
H2587 H 0.90746 0.22508 0.95267 0.0
H2588 H 0.88899 0.20517 0.93071 0.0
H2589 H 0.92284 0.25274 0.94023 0.0
H2590 H 0.89207 0.22904 0.99878 0.0
H2591 H 0.86894 0.21694 0.01899 0.0
H2592 H 0.86586 0.25636 0.01562 0.0
H2593 H 0.88887 0.26865 0.99512 0.0
C2594 C 0.96863 0.31022 0.99578 0.0
C2595 C 0.96559 0.32186 0.9978 0.0
C2596 C 0.95742 0.29597 0.9902 0.0
C2597 C 0.94293 0.29304 0.98638 0.0
C2598 C 0.93981 0.30454 0.98903 0.0
C2599 C 0.95098 0.31877 0.99461 0.0
C2600 C 0.93113 0.27821 0.97888 0.0
C2601 C 0.91761 0.27087 0.98961 0.0
C2602 C 0.93302 0.2714 0.96099 0.0
C2603 C 0.94658 0.27883 0.9481 0.0
C2604 C 0.95117 0.29279 0.93931 0.0
C2605 C 0.96397 0.29972 0.92719 0.0
C2606 C 0.97222 0.29275 0.92362 0.0
C2607 C 0.96765 0.27881 0.93211 0.0
C2608 C 0.95486 0.27183 0.94426 0.0
C2609 C 0.87145 0.22491 0.93755 0.0
C2610 C 0.87384 0.21359 0.93032 0.0
C2611 C 0.88208 0.23641 0.94983 0.0
C2612 C 0.89536 0.23685 0.9551 0.0
C2613 C 0.89733 0.22502 0.9489 0.0
C2614 C 0.88668 0.21352 0.93661 0.0
C2615 C 0.90781 0.25041 0.96478 0.0
C2616 C 0.92145 0.25759 0.95436 0.0
C2617 C 0.90597 0.25707 0.98289 0.0
C2618 C 0.89215 0.24973 0.99527 0.0
C2619 C 0.8864 0.2351 0.00221 0.0
C2620 C 0.87332 0.22821 0.01374 0.0
C2621 C 0.86592 0.23586 0.01855 0.0
C2622 C 0.8716 0.25044 0.01188 0.0
C2623 C 0.88468 0.25738 1.00032 0.0
H2624 H 0.8558 0.23051 0.02749 0.0
H2625 H 0.98212 0.29813 0.91422 0.0
H2626 H 0.68611 0.62394 0.00118 0.0
H2627 H 0.7111 0.62993 0.99136 0.0
H2628 H 0.72298 0.67538 0.98156 0.0
H2629 H 0.69793 0.66946 0.99145 0.0
H2630 H 0.7312 0.66401 0.94882 0.0
H2631 H 0.73632 0.66617 0.02308 0.0
H2632 H 0.72961 0.65693 0.05896 0.0
H2633 H 0.73532 0.61999 0.04424 0.0
H2634 H 0.74187 0.62889 0.00818 0.0
H2635 H 0.80545 0.68992 0.92781 0.0
H2636 H 0.78459 0.68712 0.94864 0.0
H2637 H 0.77054 0.6411 0.95841 0.0
H2638 H 0.79151 0.64396 0.93759 0.0
H2639 H 0.76413 0.65369 0.99259 0.0
H2640 H 0.75687 0.64951 0.91893 0.0
H2641 H 0.76286 0.65728 0.88236 0.0
H2642 H 0.76013 0.6962 0.89501 0.0
H2643 H 0.75431 0.68877 0.93176 0.0
C2644 C 0.69406 0.63525 0.99714 0.0
C2645 C 0.68999 0.64622 0.99713 0.0
C2646 C 0.70839 0.63867 0.99159 0.0
C2647 C 0.719 0.65313 0.98584 0.0
C2648 C 0.71501 0.66415 0.98598 0.0
C2649 C 0.70069 0.66076 0.99172 0.0
C2650 C 0.73399 0.65655 0.97877 0.0
C2651 C 0.73851 0.66203 0.95856 0.0
C2652 C 0.74336 0.65349 0.99118 0.0
C2653 C 0.73946 0.64813 0.01287 0.0
C2654 C 0.73603 0.65601 0.02745 0.0
C2655 C 0.73228 0.65085 0.04783 0.0
C2656 C 0.732 0.63786 0.05387 0.0
C2657 C 0.73552 0.63004 0.03954 0.0
C2658 C 0.73927 0.63514 0.01913 0.0
C2659 C 0.79834 0.67941 0.93531 0.0
C2660 C 0.80021 0.66721 0.93141 0.0
C2661 C 0.7863 0.67776 0.94697 0.0
C2662 C 0.77583 0.66383 0.95477 0.0
C2663 C 0.77846 0.65195 0.95255 0.0
C2664 C 0.79053 0.65361 0.94084 0.0
C2665 C 0.76134 0.66128 0.96276 0.0
C2666 C 0.75688 0.65585 0.98299 0.0
C2667 C 0.75189 0.66418 0.95028 0.0
C2668 C 0.75532 0.66867 0.92817 0.0
C2669 C 0.75767 0.65979 0.91396 0.0
C2670 C 0.76101 0.66412 0.89319 0.0
C2671 C 0.76193 0.67725 0.88638 0.0
C2672 C 0.75945 0.68605 0.90032 0.0
C2673 C 0.75612 0.68178 0.92112 0.0
H2674 H 0.76452 0.68058 0.8703 0.0
H2675 H 0.7291 0.63389 0.06965 0.0
H2676 H 0.93954 0.61731 0.00137 0.0
H2677 H 0.92031 0.62219 0.98898 0.0
H2678 H 0.94953 0.66896 0.99783 0.0
H2679 H 0.96898 0.66417 0.01025 0.0
H2680 H 0.92032 0.6594 0.0108 0.0
H2681 H 0.94538 0.65579 0.9507 0.0
H2682 H 0.95573 0.64445 0.92751 0.0
H2683 H 0.91255 0.60651 0.91942 0.0
H2684 H 0.90197 0.61754 0.94283 0.0
H2685 H 0.88668 0.68683 0.94011 0.0
H2686 H 0.90188 0.68058 0.9621 0.0
H2687 H 0.8731 0.63434 0.94836 0.0
H2688 H 0.8579 0.64068 0.92625 0.0
H2689 H 0.90138 0.64305 0.93927 0.0
H2690 H 0.87603 0.64773 0.99793 0.0
H2691 H 0.86601 0.65966 0.02056 0.0
H2692 H 0.90979 0.69612 0.03088 0.0
H2693 H 0.92007 0.6845 0.00807 0.0
C2694 C 0.94189 0.62865 0.00089 0.0
C2695 C 0.95587 0.64036 0.00674 0.0
C2696 C 0.93086 0.63141 0.99373 0.0
C2697 C 0.9335 0.64595 0.99227 0.0
C2698 C 0.94724 0.65765 0.99881 0.0
C2699 C 0.95836 0.6549 0.00585 0.0
C2700 C 0.9221 0.64885 0.98308 0.0
C2701 C 0.91627 0.65597 0.99509 0.0
C2702 C 0.91658 0.64411 0.96273 0.0
C2703 C 0.92291 0.63741 0.94871 0.0
C2704 C 0.93811 0.64496 0.94414 0.0
C2705 C 0.94401 0.6386 0.93092 0.0
C2706 C 0.93481 0.62474 0.92205 0.0
C2707 C 0.91967 0.61723 0.92634 0.0
C2708 C 0.91371 0.62353 0.93957 0.0
C2709 C 0.88326 0.6753 0.94256 0.0
C2710 C 0.87097 0.6642 0.93186 0.0
C2711 C 0.89199 0.67172 0.95504 0.0
C2712 C 0.88866 0.65697 0.95696 0.0
C2713 C 0.87588 0.64579 0.94718 0.0
C2714 C 0.86708 0.64937 0.93478 0.0
C2715 C 0.89942 0.65348 0.96703 0.0
C2716 C 0.90526 0.64634 0.95509 0.0
C2717 C 0.90495 0.65827 0.98739 0.0
C2718 C 0.89881 0.6653 0.00113 0.0
C2719 C 0.88352 0.65835 0.00488 0.0
C2720 C 0.87779 0.66505 0.01777 0.0
C2721 C 0.88725 0.67866 0.02711 0.0
C2722 C 0.90247 0.68558 0.02362 0.0
C2723 C 0.90826 0.67894 0.01073 0.0
H2724 H 0.88279 0.68382 0.03709 0.0
H2725 H 0.9394 0.61984 0.91181 0.0
H2726 H 0.39243 0.32236 0.00675 0.0
H2727 H 0.38776 0.29817 0.99493 0.0
H2728 H 0.34109 0.28288 0.99148 0.0
H2729 H 0.34567 0.30711 0.00351 0.0
H2730 H 0.34632 0.2615 0.00729 0.0
H2731 H 0.36194 0.29381 0.948 0.0
H2732 H 0.37846 0.31633 0.92817 0.0
H2733 H 0.41368 0.30661 0.93372 0.0
H2734 H 0.39741 0.28412 0.95384 0.0
H2735 H 0.3226 0.20353 0.93326 0.0
H2736 H 0.32875 0.22465 0.95575 0.0
H2737 H 0.37485 0.23732 0.9529 0.0
H2738 H 0.36865 0.21617 0.92991 0.0
H2739 H 0.37132 0.25984 0.94265 0.0
H2740 H 0.3546 0.2259 0.99925 0.0
H2741 H 0.33766 0.20321 0.01843 0.0
H2742 H 0.3042 0.21561 0.01762 0.0
H2743 H 0.32086 0.23828 0.99817 0.0
C2744 C 0.38113 0.31384 0.00367 0.0
C2745 C 0.36943 0.31674 0.00598 0.0
C2746 C 0.37849 0.3 0.99683 0.0
C2747 C 0.36409 0.28872 0.99201 0.0
C2748 C 0.3523 0.29139 0.99505 0.0
C2749 C 0.35494 0.30527 0.00189 0.0
C2750 C 0.36145 0.27441 0.98301 0.0
C2751 C 0.35169 0.26111 0.99307 0.0
C2752 C 0.36872 0.27388 0.96472 0.0
C2753 C 0.37852 0.28738 0.95262 0.0
C2754 C 0.37325 0.29655 0.94514 0.0
C2755 C 0.38255 0.30929 0.93382 0.0
C2756 C 0.39712 0.31292 0.92974 0.0
C2757 C 0.4024 0.30379 0.93693 0.0
C2758 C 0.39314 0.29105 0.94828 0.0
C2759 C 0.33399 0.21052 0.93806 0.0
C2760 C 0.34514 0.20814 0.93 0.0
C2761 C 0.33751 0.22263 0.95093 0.0
C2762 C 0.35228 0.23264 0.95617 0.0
C2763 C 0.36337 0.22977 0.94913 0.0
C2764 C 0.35982 0.21758 0.93621 0.0
C2765 C 0.35616 0.24683 0.9669 0.0
C2766 C 0.3661 0.26017 0.95707 0.0
C2767 C 0.34901 0.24735 0.98535 0.0
C2768 C 0.33896 0.23375 0.99711 0.0
C2769 C 0.34359 0.22374 0.00302 0.0
C2770 C 0.33405 0.21089 0.01397 0.0
C2771 C 0.31986 0.20796 0.0192 0.0
C2772 C 0.3152 0.21789 0.01354 0.0
C2773 C 0.3247 0.23076 0.00258 0.0
H2774 H 0.31248 0.19801 0.02767 0.0
H2775 H 0.40431 0.32279 0.92097 0.0
H2776 H 0.68792 0.07276 0.00719 0.0
H2777 H 0.71205 0.0923 0.99535 0.0
H2778 H 0.72777 0.06121 0.99341 0.0
H2779 H 0.70361 0.04157 0.00563 0.0
H2780 H 0.74896 0.08772 0.00842 0.0
H2781 H 0.71664 0.07094 0.94916 0.0
H2782 H 0.69412 0.06486 0.92925 0.0
H2783 H 0.70378 0.10981 0.93459 0.0
H2784 H 0.72627 0.11612 0.95479 0.0
H2785 H 0.80671 0.12216 0.93397 0.0
H2786 H 0.78571 0.10707 0.95659 0.0
H2787 H 0.77308 0.14057 0.95462 0.0
H2788 H 0.79414 0.15564 0.93163 0.0
H2789 H 0.75055 0.11441 0.94387 0.0
H2790 H 0.78452 0.13161 1.00053 0.0
H2791 H 0.80722 0.13735 0.01967 0.0
H2792 H 0.79487 0.09148 0.01859 0.0
H2793 H 0.77219 0.08548 0.99917 0.0
C2794 C 0.69652 0.07006 0.00441 0.0
C2795 C 0.69376 0.05553 0.00724 0.0
C2796 C 0.71033 0.08127 0.99755 0.0
C2797 C 0.72171 0.07823 0.99314 0.0
C2798 C 0.71918 0.06386 0.99665 0.0
C2799 C 0.70534 0.05261 0.00359 0.0
C2800 C 0.73602 0.08991 0.98414 0.0
C2801 C 0.74933 0.09346 0.9942 0.0
C2802 C 0.73653 0.09771 0.96585 0.0
C2803 C 0.72304 0.09396 0.95368 0.0
C2804 C 0.71389 0.0795 0.94623 0.0
C2805 C 0.70115 0.07601 0.93487 0.0
C2806 C 0.6975 0.08693 0.93072 0.0
C2807 C 0.70661 0.10136 0.93786 0.0
C2808 C 0.71936 0.1049 0.94925 0.0
C2809 C 0.79977 0.12654 0.93902 0.0
C2810 C 0.80213 0.14013 0.93123 0.0
C2811 C 0.78773 0.11789 0.95194 0.0
C2812 C 0.77775 0.12264 0.95743 0.0
C2813 C 0.78061 0.13665 0.95066 0.0
C2814 C 0.79274 0.14535 0.93773 0.0
C2815 C 0.76358 0.11226 0.9681 0.0
C2816 C 0.75024 0.10885 0.95826 0.0
C2817 C 0.76308 0.10457 0.98651 0.0
C2818 C 0.77669 0.10812 0.99825 0.0
C2819 C 0.78669 0.12276 0.00423 0.0
C2820 C 0.79955 0.12606 0.01516 0.0
C2821 C 0.8025 0.11479 0.02031 0.0
C2822 C 0.79257 0.1002 0.01458 0.0
C2823 C 0.7797 0.09684 0.00364 0.0
H2824 H 0.81246 0.11737 0.02877 0.0
H2825 H 0.68763 0.08421 0.92191 0.0
H2826 H 0.66772 0.97222 0.0303 0.0
H2827 H 0.67189 0.95191 0.04028 0.0
H2828 H 0.62583 0.9251 0.05626 0.0
H2829 H 0.62157 0.94521 0.04623 0.0
H2830 H 0.64428 0.92507 0.08694 0.0
H2831 H 0.63864 0.91795 0.01275 0.0
H2832 H 0.6444 0.92548 0.97608 0.0
H2833 H 0.68902 0.93503 0.98532 0.0
H2834 H 0.68358 0.92774 0.02215 0.0
H2835 H 0.64147 0.85822 0.10693 0.0
H2836 H 0.63622 0.87515 0.08716 0.0
H2837 H 0.68238 0.90147 0.07133 0.0
H2838 H 0.68758 0.88451 0.09109 0.0
H2839 H 0.66411 0.90161 0.03963 0.0
H2840 H 0.67111 0.91028 0.11274 0.0
H2841 H 0.66674 0.90347 0.1498 0.0
H2842 H 0.62148 0.89255 0.14339 0.0
H2843 H 0.62551 0.89904 0.10616 0.0
C2844 C 0.65847 0.96197 0.03581 0.0
C2845 C 0.64431 0.96037 0.03743 0.0
C2846 C 0.66085 0.95034 0.04146 0.0
C2847 C 0.64916 0.93692 0.04896 0.0
C2848 C 0.63503 0.93532 0.05053 0.0
C2849 C 0.63261 0.94685 0.04471 0.0
C2850 C 0.65164 0.92468 0.05581 0.0
C2851 C 0.6484 0.9198 0.07648 0.0
C2852 C 0.65746 0.91809 0.04239 0.0
C2853 C 0.66074 0.92245 0.02026 0.0
C2854 C 0.64972 0.92178 0.00701 0.0
C2855 C 0.65292 0.92598 0.98619 0.0
C2856 C 0.66708 0.93077 0.97839 0.0
C2857 C 0.67806 0.93134 0.99139 0.0
C2858 C 0.67493 0.92716 0.01223 0.0
C2859 C 0.65034 0.8672 0.09835 0.0
C2860 C 0.66488 0.86995 0.10021 0.0
C2861 C 0.64738 0.87698 0.08727 0.0
C2862 C 0.65895 0.88973 0.07802 0.0
C2863 C 0.67327 0.89172 0.07829 0.0
C2864 C 0.67623 0.88197 0.08944 0.0
C2865 C 0.6565 0.90187 0.07063 0.0
C2866 C 0.65987 0.90681 0.05 0.0
C2867 C 0.651 0.90871 0.08415 0.0
C2868 C 0.64857 0.90499 0.1066 0.0
C2869 C 0.66019 0.90632 0.11919 0.0
C2870 C 0.65778 0.90253 0.14023 0.0
C2871 C 0.64383 0.89755 0.14893 0.0
C2872 C 0.63227 0.89639 0.13661 0.0
C2873 C 0.63461 0.90012 0.11554 0.0
H2874 H 0.64198 0.89462 0.16522 0.0
H2875 H 0.66953 0.93401 0.96226 0.0
H2876 H 0.0355 0.69676 0.03224 0.0
H2877 H 0.05506 0.72153 0.04264 0.0
H2878 H 0.08583 0.70555 0.04752 0.0
H2879 H 0.06643 0.68088 0.03726 0.0
H2880 H 0.08707 0.72128 0.08139 0.0
H2881 H 0.08762 0.72774 0.00727 0.0
H2882 H 0.07684 0.72732 0.97301 0.0
H2883 H 0.06431 0.75839 0.99473 0.0
H2884 H 0.07485 0.75884 0.02923 0.0
H2885 H 0.15246 0.78706 0.09787 0.0
H2886 H 0.13482 0.76604 0.07678 0.0
H2887 H 0.10425 0.78237 0.07903 0.0
H2888 H 0.12192 0.8034 0.10022 0.0
H2889 H 0.10279 0.76716 0.04077 0.0
H2890 H 0.10031 0.75978 0.1146 0.0
H2891 H 0.11061 0.76063 0.14939 0.0
H2892 H 0.12592 0.73151 0.12874 0.0
H2893 H 0.11578 0.73058 0.09374 0.0
C2894 C 0.04646 0.69855 0.03537 0.0
C2895 C 0.04936 0.68679 0.03391 0.0
C2896 C 0.05766 0.71275 0.04125 0.0
C2897 C 0.07198 0.71547 0.04578 0.0
C2898 C 0.0749 0.70377 0.04414 0.0
C2899 C 0.06376 0.68964 0.03819 0.0
C2900 C 0.08382 0.73031 0.05308 0.0
C2901 C 0.09062 0.73125 0.07231 0.0
C2902 C 0.08822 0.74346 0.04162 0.0
C2903 C 0.08188 0.7432 0.0209 0.0
C2904 C 0.08245 0.73439 0.0048 0.0
C2905 C 0.07641 0.73416 0.98532 0.0
C2906 C 0.06986 0.74279 0.98171 0.0
C2907 C 0.06937 0.75169 0.99756 0.0
C2908 C 0.07539 0.75195 0.01707 0.0
C2909 C 0.14231 0.78657 0.0929 0.0
C2910 C 0.13865 0.79698 0.1003 0.0
C2911 C 0.13216 0.77447 0.08107 0.0
C2912 C 0.11812 0.77252 0.07655 0.0
C2913 C 0.11501 0.78366 0.08225 0.0
C2914 C 0.12516 0.79574 0.0942 0.0
C2915 C 0.10611 0.75798 0.0688 0.0
C2916 C 0.09925 0.75714 0.04969 0.0
C2917 C 0.1015 0.74488 0.08042 0.0
C2918 C 0.10742 0.74523 0.10151 0.0
C2919 C 0.10596 0.75363 0.11744 0.0
C2920 C 0.11175 0.75412 0.1372 0.0
C2921 C 0.11898 0.74619 0.14125 0.0
C2922 C 0.12035 0.73768 0.12557 0.0
C2923 C 0.11455 0.73714 0.10578 0.0
H2924 H 0.12348 0.7466 0.15655 0.0
H2925 H 0.06519 0.7426 0.96662 0.0
H2926 H 0.31773 0.34512 0.05127 0.0
H2927 H 0.29355 0.34129 0.06154 0.0
H2928 H 0.2966 0.37183 0.0139 0.0
H2929 H 0.32136 0.37661 0.00504 0.0
H2930 H 0.28651 0.37786 0.04302 0.0
H2931 H 0.27088 0.33101 0.01376 0.0
H2932 H 0.27016 0.30745 0.00674 0.0
H2933 H 0.25897 0.29458 0.07048 0.0
H2934 H 0.2598 0.31815 0.07797 0.0
H2935 H 0.2037 0.33068 0.08634 0.0
H2936 H 0.22276 0.33347 0.06131 0.0
H2937 H 0.25557 0.37075 0.0964 0.0
H2938 H 0.23662 0.36863 0.12013 0.0
H2939 H 0.2445 0.32966 0.06525 0.0
H2940 H 0.28509 0.3937 0.07173 0.0
H2941 H 0.28359 0.41651 0.07252 0.0
H2942 H 0.24117 0.39385 0.04266 0.0
H2943 H 0.24249 0.37095 0.04141 0.0
C2944 C 0.31312 0.35085 0.04286 0.0
C2945 C 0.3214 0.36113 0.02734 0.0
C2946 C 0.29918 0.34857 0.0486 0.0
C2947 C 0.29289 0.35605 0.03835 0.0
C2948 C 0.30105 0.36594 0.02227 0.0
C2949 C 0.31521 0.36862 0.01708 0.0
C2950 C 0.27843 0.35445 0.04539 0.0
C2951 C 0.27732 0.36726 0.04765 0.0
C2952 C 0.26602 0.34061 0.05082 0.0
C2953 C 0.2655 0.3264 0.04645 0.0
C2954 C 0.26836 0.3232 0.02632 0.0
C2955 C 0.26792 0.30983 0.02225 0.0
C2956 C 0.26455 0.29953 0.03816 0.0
C2957 C 0.26158 0.30257 0.05817 0.0
C2958 C 0.26201 0.31592 0.06233 0.0
C2959 C 0.21489 0.33979 0.08814 0.0
C2960 C 0.21865 0.34941 0.10523 0.0
C2961 C 0.22584 0.34128 0.074 0.0
C2962 C 0.24073 0.3524 0.07672 0.0
C2963 C 0.24424 0.36231 0.09339 0.0
C2964 C 0.23335 0.361 0.10716 0.0
C2965 C 0.2529 0.35313 0.06351 0.0
C2966 C 0.25361 0.34019 0.06018 0.0
C2967 C 0.26464 0.36674 0.05607 0.0
C2968 C 0.26386 0.38056 0.05658 0.0
C2969 C 0.27548 0.39359 0.0652 0.0
C2970 C 0.27465 0.40654 0.06576 0.0
C2971 C 0.26228 0.40662 0.05768 0.0
C2972 C 0.25073 0.39376 0.04897 0.0
C2973 C 0.2515 0.38079 0.04835 0.0
H2974 H 0.26166 0.41665 0.05815 0.0
H2975 H 0.26421 0.28919 0.03498 0.0
H2976 H 0.70898 0.68037 0.37249 0.0
H2977 H 0.72936 0.67696 0.38456 0.0
H2978 H 0.76078 0.72132 0.36529 0.0
H2979 H 0.7405 0.72489 0.3535 0.0
H2980 H 0.76981 0.69991 0.35604 0.0
H2981 H 0.75211 0.71693 0.41326 0.0
H2982 H 0.73304 0.71586 0.43694 0.0
H2983 H 0.7229 0.67262 0.45722 0.0
H2984 H 0.74177 0.67336 0.43341 0.0
H2985 H 0.81698 0.70604 0.45519 0.0
H2986 H 0.80112 0.71176 0.43378 0.0
H2987 H 0.79057 0.67413 0.39481 0.0
H2988 H 0.80651 0.66842 0.41635 0.0
H2989 H 0.77164 0.69277 0.43197 0.0
H2990 H 0.77874 0.68056 0.34655 0.0
H2991 H 0.79832 0.68255 0.32308 0.0
H2992 H 0.83115 0.71817 0.35992 0.0
H2993 H 0.81175 0.71652 0.38343 0.0
C2994 C 0.72024 0.68932 0.37054 0.0
C2995 C 0.72309 0.70293 0.36212 0.0
C2996 C 0.73188 0.68736 0.37748 0.0
C2997 C 0.74662 0.6989 0.3759 0.0
C2998 C 0.74952 0.71225 0.36661 0.0
C2999 C 0.73789 0.71429 0.35997 0.0
C3000 C 0.75889 0.69749 0.38535 0.0
C3001 C 0.77019 0.69828 0.37263 0.0
C3002 C 0.75953 0.69557 0.40702 0.0
C3003 C 0.74823 0.69514 0.4214 0.0
C3004 C 0.74572 0.70715 0.42264 0.0
C3005 C 0.73497 0.70661 0.4361 0.0
C3006 C 0.72673 0.69416 0.44853 0.0
C3007 C 0.72927 0.68224 0.44756 0.0
C3008 C 0.73999 0.68272 0.43409 0.0
C3009 C 0.81182 0.69942 0.44147 0.0
C3010 C 0.81317 0.68695 0.4372 0.0
C3011 C 0.80259 0.70256 0.4294 0.0
C3012 C 0.79452 0.69332 0.41276 0.0
C3013 C 0.79675 0.6815 0.40746 0.0
C3014 C 0.80598 0.67833 0.41962 0.0
C3015 C 0.78261 0.69508 0.40269 0.0
C3016 C 0.77129 0.69432 0.41535 0.0
C3017 C 0.78204 0.69709 0.38101 0.0
C3018 C 0.79379 0.6983 0.36686 0.0
C3019 C 0.79013 0.68885 0.34959 0.0
C3020 C 0.8012 0.68991 0.33629 0.0
C3021 C 0.81597 0.70045 0.34005 0.0
C3022 C 0.81971 0.70997 0.35708 0.0
C3023 C 0.80868 0.70896 0.37042 0.0
H3024 H 0.82453 0.70125 0.32974 0.0
H3025 H 0.71841 0.69377 0.45895 0.0
H3026 H 0.33435 0.03461 0.35457 0.0
H3027 H 0.33977 0.05926 0.36578 0.0
H3028 H 0.2933 0.04266 0.37614 0.0
H3029 H 0.2878 0.0182 0.36441 0.0
H3030 H 0.30487 0.06913 0.36019 0.0
H3031 H 0.31794 0.04771 0.41654 0.0
H3032 H 0.3307 0.03606 0.43355 0.0
H3033 H 0.37275 0.0738 0.41869 0.0
H3034 H 0.36022 0.0856 0.40135 0.0
H3035 H 0.30982 0.12144 0.43747 0.0
H3036 H 0.30506 0.10049 0.41503 0.0
H3037 H 0.35174 0.12079 0.40231 0.0
H3038 H 0.35643 0.14161 0.42487 0.0
H3039 H 0.34096 0.09346 0.41733 0.0
H3040 H 0.32683 0.11574 0.36366 0.0
H3041 H 0.31315 0.12702 0.34843 0.0
H3042 H 0.27204 0.08726 0.36026 0.0
H3043 H 0.28546 0.0758 0.37583 0.0
C3044 C 0.32528 0.03625 0.35907 0.0
C3045 C 0.31065 0.02438 0.35869 0.0
C3046 C 0.3284 0.05034 0.36558 0.0
C3047 C 0.31698 0.05284 0.37217 0.0
C3048 C 0.30233 0.04109 0.37118 0.0
C3049 C 0.2992 0.02705 0.36451 0.0
C3050 C 0.32024 0.06747 0.3808 0.0
C3051 C 0.31269 0.07439 0.37279 0.0
C3052 C 0.3306 0.07454 0.39705 0.0
C3053 C 0.33815 0.06746 0.40743 0.0
C3054 C 0.3299 0.05347 0.41675 0.0
C3055 C 0.33709 0.04685 0.42648 0.0
C3056 C 0.35252 0.05417 0.42714 0.0
C3057 C 0.3608 0.06814 0.41813 0.0
C3058 C 0.35366 0.0748 0.40836 0.0
C3059 C 0.31893 0.12172 0.42906 0.0
C3060 C 0.33345 0.13326 0.43249 0.0
C3061 C 0.31625 0.1097 0.41637 0.0
C3062 C 0.32805 0.10902 0.40694 0.0
C3063 C 0.34245 0.12104 0.40937 0.0
C3064 C 0.34512 0.13302 0.42203 0.0
C3065 C 0.32564 0.09515 0.39669 0.0
C3066 C 0.33329 0.08831 0.40453 0.0
C3067 C 0.31526 0.08811 0.38049 0.0
C3068 C 0.30716 0.09496 0.37107 0.0
C3069 C 0.31486 0.10944 0.36317 0.0
C3070 C 0.30716 0.11586 0.35444 0.0
C3071 C 0.29173 0.10788 0.35342 0.0
C3072 C 0.28399 0.09344 0.36107 0.0
C3073 C 0.29164 0.08697 0.36983 0.0
H3074 H 0.28579 0.11287 0.34666 0.0
H3075 H 0.35807 0.04903 0.43469 0.0
H3076 H 0.98032 0.30165 0.37302 0.0
H3077 H 0.95683 0.28187 0.38666 0.0
H3078 H 0.96341 0.24956 0.35382 0.0
H3079 H 0.98732 0.26924 0.34135 0.0
H3080 H 0.93176 0.2622 0.37474 0.0
H3081 H 0.94896 0.21736 0.37882 0.0
H3082 H 0.97154 0.21563 0.38277 0.0
H3083 H 0.99312 0.25768 0.41383 0.0
H3084 H 0.97061 0.25956 0.41028 0.0
H3085 H 0.868 0.19872 0.41357 0.0
H3086 H 0.88912 0.2136 0.3905 0.0
H3087 H 0.91909 0.2208 0.44117 0.0
H3088 H 0.89822 0.2055 0.46363 0.0
H3089 H 0.9316 0.21948 0.40861 0.0
H3090 H 0.90675 0.24583 0.42779 0.0
H3091 H 0.88562 0.25006 0.43056 0.0
H3092 H 0.88199 0.24941 0.36404 0.0
H3093 H 0.903 0.24497 0.3609 0.0
C3094 C 0.97668 0.29033 0.36859 0.0
C3095 C 0.98574 0.28698 0.35631 0.0
C3096 C 0.96321 0.27899 0.37638 0.0
C3097 C 0.95838 0.26407 0.37175 0.0
C3098 C 0.96701 0.26087 0.35827 0.0
C3099 C 0.98065 0.27215 0.35098 0.0
C3100 C 0.94474 0.25194 0.38176 0.0
C3101 C 0.93175 0.25283 0.38203 0.0
C3102 C 0.94461 0.23975 0.39171 0.0
C3103 C 0.95817 0.23867 0.39404 0.0
C3104 C 0.95851 0.22621 0.38653 0.0
C3105 C 0.9713 0.22521 0.3887 0.0
C3106 C 0.98377 0.23657 0.39847 0.0
C3107 C 0.98347 0.24892 0.40618 0.0
C3108 C 0.97071 0.24997 0.40408 0.0
C3109 C 0.87912 0.20308 0.41947 0.0
C3110 C 0.88147 0.20105 0.44041 0.0
C3111 C 0.8912 0.21177 0.4064 0.0
C3112 C 0.90578 0.21869 0.41417 0.0
C3113 C 0.90805 0.2157 0.43469 0.0
C3114 C 0.89607 0.20696 0.44758 0.0
C3115 C 0.91869 0.22982 0.40176 0.0
C3116 C 0.93155 0.22873 0.40103 0.0
C3117 C 0.91891 0.24218 0.3923 0.0
C3118 C 0.90632 0.24489 0.39411 0.0
C3119 C 0.90138 0.24649 0.41376 0.0
C3120 C 0.88944 0.24894 0.4154 0.0
C3121 C 0.88244 0.24996 0.39749 0.0
C3122 C 0.8874 0.24858 0.3779 0.0
C3123 C 0.89932 0.2461 0.37618 0.0
H3124 H 0.87319 0.25186 0.39878 0.0
H3125 H 0.99366 0.23577 0.40012 0.0
H3126 H 0.05496 0.39561 0.32107 0.0
H3127 H 0.0496 0.41503 0.31184 0.0
H3128 H 1.00411 0.387 0.33 0.0
H3129 H 0.00934 0.36716 0.33848 0.0
H3130 H 1.00431 0.39996 0.29626 0.0
H3131 H 0.02991 0.41834 0.35974 0.0
H3132 H 0.04962 0.42532 0.38581 0.0
H3133 H 0.08125 0.45759 0.34389 0.0
H3134 H 0.06179 0.45066 0.31744 0.0
H3135 H 0.99458 0.46109 0.27111 0.0
H3136 H 0.9961 0.44324 0.2945 0.0
H3137 H 0.04136 0.45986 0.27584 0.0
H3138 H 0.03989 0.4777 0.25293 0.0
H3139 H 0.0379 0.45226 0.31615 0.0
H3140 H 0.0109 0.43059 0.25155 0.0
H3141 H 0.99003 0.42352 0.22735 0.0
H3142 H 0.95943 0.397 0.2749 0.0
H3143 H 0.98005 0.40419 0.29949 0.0
C3144 C 0.04382 0.39357 0.32327 0.0
C3145 C 0.0326 0.37982 0.33063 0.0
C3146 C 0.04077 0.40478 0.31811 0.0
C3147 C 0.02649 0.40272 0.32061 0.0
C3148 C 0.01524 0.38897 0.328 0.0
C3149 C 0.01825 0.37763 0.33291 0.0
C3150 C 0.02332 0.41472 0.31457 0.0
C3151 C 0.01149 0.41134 0.30102 0.0
C3152 C 0.03262 0.42966 0.32068 0.0
C3153 C 0.04439 0.43391 0.33655 0.0
C3154 C 0.04109 0.42686 0.35602 0.0
C3155 C 0.05222 0.43082 0.37088 0.0
C3156 C 0.06668 0.44188 0.3665 0.0
C3157 C 0.07004 0.44902 0.34726 0.0
C3158 C 0.05896 0.4451 0.33234 0.0
C3159 C 1.00499 0.46127 0.27269 0.0
C3160 C 0.01716 0.47082 0.26035 0.0
C3161 C 1.00581 0.45095 0.28584 0.0
C3162 C 0.01878 0.44997 0.28666 0.0
C3163 C 0.03123 0.46032 0.2755 0.0
C3164 C 0.03041 0.47057 0.26245 0.0
C3165 C 0.01923 0.43752 0.29739 0.0
C3166 C 0.03057 0.44082 0.31179 0.0
C3167 C 0.00933 0.42249 0.29234 0.0
C3168 C 0.997 0.41806 0.2774 0.0
C3169 C 0.99971 0.42332 0.25685 0.0
C3170 C 0.98794 0.4193 0.24308 0.0
C3171 C 0.97344 0.40983 0.24959 0.0
C3172 C 0.97067 0.40435 0.26988 0.0
C3173 C 0.98239 0.40842 0.28375 0.0
H3174 H 0.96435 0.40672 0.2389 0.0
H3175 H 0.07528 0.44492 0.37802 0.0
H3176 H 0.61142 0.65679 0.34206 0.0
H3177 H 0.59254 0.63221 0.33043 0.0
H3178 H 0.62638 0.62148 0.31601 0.0
H3179 H 0.64541 0.64613 0.32772 0.0
H3180 H 0.60643 0.61448 0.28399 0.0
H3181 H 0.60429 0.60592 0.35747 0.0
H3182 H 0.6021 0.61083 0.3944 0.0
H3183 H 0.55911 0.60523 0.38287 0.0
H3184 H 0.56113 0.60048 0.34579 0.0
H3185 H 0.55862 0.54109 0.25736 0.0
H3186 H 0.57663 0.56111 0.27946 0.0
H3187 H 0.54436 0.57414 0.29319 0.0
H3188 H 0.52628 0.55399 0.27107 0.0
H3189 H 0.56374 0.57921 0.32683 0.0
H3190 H 0.56604 0.58974 0.25409 0.0
H3191 H 0.56747 0.58523 0.21676 0.0
H3192 H 0.60945 0.588 0.22635 0.0
H3193 H 0.60816 0.59231 0.26383 0.0
C3194 C 0.61488 0.64917 0.33661 0.0
C3195 C 0.62997 0.65346 0.33585 0.0
C3196 C 0.60403 0.63507 0.33002 0.0
C3197 C 0.60799 0.62491 0.32245 0.0
C3198 C 0.62304 0.6291 0.32183 0.0
C3199 C 0.63391 0.64319 0.3286 0.0
C3200 C 0.59645 0.6102 0.31435 0.0
C3201 C 0.59726 0.60666 0.29351 0.0
C3202 C 0.58418 0.60016 0.32651 0.0
C3203 C 0.58292 0.60298 0.3488 0.0
C3204 C 0.59442 0.60586 0.36277 0.0
C3205 C 0.5932 0.60859 0.38374 0.0
C3206 C 0.58049 0.60838 0.39096 0.0
C3207 C 0.56895 0.6054 0.37724 0.0
C3208 C 0.57013 0.60267 0.35625 0.0
C3209 C 0.55516 0.54777 0.26594 0.0
C3210 C 0.54101 0.54588 0.26278 0.0
C3211 C 0.56551 0.55933 0.27836 0.0
C3212 C 0.56194 0.56931 0.28768 0.0
C3213 C 0.54737 0.56659 0.28615 0.0
C3214 C 0.53699 0.555 0.27367 0.0
C3215 C 0.57384 0.5835 0.2966 0.0
C3216 C 0.57302 0.58698 0.31745 0.0
C3217 C 0.58603 0.59361 0.2844 0.0
C3218 C 0.58693 0.59118 0.26182 0.0
C3219 C 0.57553 0.58927 0.24827 0.0
C3220 C 0.57631 0.58677 0.22708 0.0
C3221 C 0.58852 0.58629 0.2192 0.0
C3222 C 0.59998 0.58835 0.23249 0.0
C3223 C 0.59924 0.59083 0.25371 0.0
H3224 H 0.5891 0.58434 0.20279 0.0
H3225 H 0.57956 0.61049 0.40721 0.0
H3226 H 0.35144 0.95449 0.33206 0.0
H3227 H 0.37627 0.96 0.32239 0.0
H3228 H 0.39077 0.00658 0.32136 0.0
H3229 H 0.3658 1.00111 0.33087 0.0
H3230 H 0.40006 0.99882 0.28741 0.0
H3231 H 0.40151 0.9913 0.36044 0.0
H3232 H 0.39285 0.97821 0.39386 0.0
H3233 H 0.3961 0.94165 0.36953 0.0
H3234 H 0.40459 0.95443 0.33585 0.0
H3235 H 0.47393 0.02066 0.26872 0.0
H3236 H 0.45316 0.01741 0.29021 0.0
H3237 H 0.43423 0.9701 0.28708 0.0
H3238 H 0.45507 0.97339 0.26559 0.0
H3239 H 0.42832 0.9796 0.32532 0.0
H3240 H 0.42404 0.98556 0.25185 0.0
H3241 H 0.43242 0.99803 0.21797 0.0
H3242 H 0.43426 0.03703 0.24306 0.0
H3243 H 0.42596 0.02479 0.27716 0.0
C3244 C 0.35992 0.96593 0.32996 0.0
C3245 C 0.35658 0.97736 0.33228 0.0
C3246 C 0.37417 0.96908 0.32451 0.0
C3247 C 0.38552 0.98373 0.32134 0.0
C3248 C 0.38225 0.99518 0.32378 0.0
C3249 C 0.36797 0.99204 0.32928 0.0
C3250 C 0.40053 0.98698 0.31453 0.0
C3251 C 0.40634 0.99486 0.29597 0.0
C3252 C 0.40865 0.9815 0.32532 0.0
C3253 C 0.40356 0.97378 0.34556 0.0
C3254 C 0.40026 0.98042 0.36216 0.0
C3255 C 0.39541 0.97306 0.38116 0.0
C3256 C 0.3939 0.95909 0.3838 0.0
C3257 C 0.39727 0.95246 0.36745 0.0
C3258 C 0.40212 0.95977 0.34841 0.0
C3259 C 0.46573 0.00961 0.27357 0.0
C3260 C 0.46624 0.99728 0.26586 0.0
C3261 C 0.45375 0.00774 0.28559 0.0
C3262 C 0.44199 0.9935 0.28998 0.0
C3263 C 0.44316 0.98119 0.28393 0.0
C3264 C 0.45515 0.98307 0.27183 0.0
C3265 C 0.42776 0.99144 0.29833 0.0
C3266 C 0.42208 0.98371 0.317 0.0
C3267 C 0.41969 0.99698 0.28762 0.0
C3268 C 0.42453 1.00432 0.2671 0.0
C3269 C 0.42632 0.99682 0.25017 0.0
C3270 C 0.43104 1.00384 0.23093 0.0
C3271 C 0.43394 0.01834 0.22838 0.0
C3272 C 0.43204 0.02581 0.24506 0.0
C3273 C 0.4273 0.01883 0.26434 0.0
H3274 H 0.43762 0.02376 0.21348 0.0
H3275 H 0.39014 0.95341 0.39852 0.0
H3276 H 0.60681 0.95073 0.33871 0.0
H3277 H 0.58727 0.95522 0.32637 0.0
H3278 H 0.61965 1.00069 0.31381 0.0
H3279 H 0.63932 0.99628 0.32624 0.0
H3280 H 0.57719 0.97425 0.33776 0.0
H3281 H 0.60896 0.00995 0.2674 0.0
H3282 H 0.6293 0.0142 0.24377 0.0
H3283 H 0.62069 0.97005 0.25487 0.0
H3284 H 0.60009 0.96544 0.27821 0.0
H3285 H 0.54008 0.00791 0.28267 0.0
H3286 H 0.5563 1.00204 0.30339 0.0
H3287 H 0.55066 0.96908 0.25824 0.0
H3288 H 0.53451 0.97488 0.23774 0.0
H3289 H 0.57961 0.98956 0.26427 0.0
H3290 H 0.53702 0.95884 0.30633 0.0
H3291 H 0.51573 0.95349 0.32862 0.0
H3292 H 0.54474 0.98584 0.37285 0.0
H3293 H 0.5662 0.99153 0.35067 0.0
C3294 C 0.60979 0.96174 0.33353 0.0
C3295 C 0.62467 0.97313 0.33338 0.0
C3296 C 0.59857 0.9643 0.32655 0.0
C3297 C 0.60196 0.97826 0.319 0.0
C3298 C 0.61675 0.98979 0.31941 0.0
C3299 C 0.62799 0.98727 0.32658 0.0
C3300 C 0.5901 0.98043 0.30964 0.0
C3301 C 0.57777 0.9777 0.32173 0.0
C3302 C 0.59072 0.98479 0.28866 0.0
C3303 C 0.60311 0.98742 0.27474 0.0
C3304 C 0.61139 1.00114 0.26476 0.0
C3305 C 0.62295 1.00361 0.2514 0.0
C3306 C 0.62633 0.99242 0.2479 0.0
C3307 C 0.6181 0.97872 0.25767 0.0
C3308 C 0.60649 0.97618 0.27097 0.0
C3309 C 0.54178 0.99895 0.27775 0.0
C3310 C 0.53587 0.99167 0.2588 0.0
C3311 C 0.55116 0.9957 0.28946 0.0
C3312 C 0.55481 0.98519 0.28229 0.0
C3313 C 0.54808 0.97726 0.26407 0.0
C3314 C 0.5387 0.98044 0.25249 0.0
C3315 C 0.56671 0.98344 0.29237 0.0
C3316 C 0.57909 0.98629 0.28038 0.0
C3317 C 0.56608 0.97915 0.31337 0.0
C3318 C 0.5532 0.97572 0.32673 0.0
C3319 C 0.53885 0.96491 0.32072 0.0
C3320 C 0.52675 0.96179 0.33335 0.0
C3321 C 0.52888 0.96935 0.35211 0.0
C3322 C 0.54311 0.98001 0.3583 0.0
C3323 C 0.55525 0.98317 0.34571 0.0
H3324 H 0.5195 0.96692 0.36188 0.0
H3325 H 0.6353 0.99436 0.23757 0.0
H3326 H 0.01318 0.63925 0.34457 0.0
H3327 H 0.00853 0.61491 0.33278 0.0
H3328 H 0.05466 0.63374 0.31755 0.0
H3329 H 0.05941 0.65795 0.32943 0.0
H3330 H 0.03605 0.61677 0.2855 0.0
H3331 H 0.04135 0.61232 0.35908 0.0
H3332 H 0.03566 0.61288 0.39614 0.0
H3333 H 0.99073 0.57883 0.38559 0.0
H3334 H 0.99611 0.57822 0.34838 0.0
H3335 H 0.03699 0.55245 0.25928 0.0
H3336 H 0.04276 0.57403 0.28097 0.0
H3337 H 0.9966 0.55491 0.29625 0.0
H3338 H 0.99086 0.53339 0.27451 0.0
H3339 H 0.01512 0.57165 0.32927 0.0
H3340 H 0.00851 0.5764 0.25679 0.0
H3341 H 0.01287 0.5752 0.21938 0.0
H3342 H 0.05844 0.60849 0.22714 0.0
H3343 H 0.05441 0.60965 0.26474 0.0
C3344 C 0.02235 0.63817 0.33889 0.0
C3345 C 0.03667 0.65058 0.33799 0.0
C3346 C 0.01969 0.62425 0.33219 0.0
C3347 C 0.03126 0.62247 0.32431 0.0
C3348 C 0.04556 0.63482 0.32354 0.0
C3349 C 0.04825 0.64866 0.33044 0.0
C3350 C 0.02847 0.60792 0.31613 0.0
C3351 C 0.03169 0.60698 0.29519 0.0
C3352 C 0.02235 0.59499 0.32855 0.0
C3353 C 0.0191 0.59533 0.3509 0.0
C3354 C 0.03022 0.60504 0.36462 0.0
C3355 C 0.02706 0.60535 0.38566 0.0
C3356 C 0.01283 0.59592 0.3932 0.0
C3357 C 1.00174 0.58614 0.37972 0.0
C3358 C 1.00484 0.5858 0.35866 0.0
C3359 C 0.02821 0.55256 0.26808 0.0
C3360 C 0.01352 0.5412 0.26549 0.0
C3361 C 0.03147 0.56496 0.28028 0.0
C3362 C 0.02008 0.56619 0.29002 0.0
C3363 C 1.00557 0.55421 0.28895 0.0
C3364 C 1.0023 0.54188 0.27664 0.0
C3365 C 0.02295 0.58062 0.29878 0.0
C3366 C 0.01961 0.5815 0.31969 0.0
C3367 C 0.02877 0.59349 0.28628 0.0
C3368 C 0.0312 0.59299 0.26363 0.0
C3369 C 0.01949 0.58337 0.25056 0.0
C3370 C 0.0219 0.5827 0.22932 0.0
C3371 C 0.03594 0.59174 0.2209 0.0
C3372 C 0.04758 0.60148 0.2337 0.0
C3373 C 0.04525 0.60214 0.25498 0.0
H3374 H 0.03778 0.59122 0.20445 0.0
H3375 H 0.0104 0.59617 0.4095 0.0
H3376 H 0.35365 0.40665 0.33953 0.0
H3377 H 0.37746 0.42632 0.32693 0.0
H3378 H 0.39406 0.39594 0.32577 0.0
H3379 H 0.37021 0.37615 0.33867 0.0
H3380 H 0.41508 0.42308 0.33992 0.0
H3381 H 0.38222 0.40425 0.28145 0.0
H3382 H 0.35935 0.39707 0.26175 0.0
H3383 H 0.36772 0.44167 0.26499 0.0
H3384 H 0.39055 0.44908 0.28497 0.0
H3385 H 0.47197 0.45775 0.2639 0.0
H3386 H 0.45124 0.44235 0.28684 0.0
H3387 H 0.43732 0.47487 0.28476 0.0
H3388 H 0.45815 0.49029 0.26159 0.0
H3389 H 0.41518 0.44803 0.27429 0.0
H3390 H 0.44955 0.46723 0.3304 0.0
H3391 H 0.47259 0.47408 0.34938 0.0
H3392 H 0.46179 0.42865 0.34992 0.0
H3393 H 0.43877 0.42154 0.33068 0.0
C3394 C 0.36238 0.40414 0.33679 0.0
C3395 C 0.35994 0.38976 0.34001 0.0
C3396 C 0.37601 0.41542 0.32949 0.0
C3397 C 0.38754 0.4126 0.32507 0.0
C3398 C 0.38535 0.3984 0.32901 0.0
C3399 C 0.37168 0.38708 0.33634 0.0
C3400 C 0.40161 0.42431 0.31556 0.0
C3401 C 0.41512 0.42844 0.32547 0.0
C3402 C 0.4017 0.4316 0.29693 0.0
C3403 C 0.388 0.42718 0.2849 0.0
C3404 C 0.37912 0.4125 0.27811 0.0
C3405 C 0.36618 0.40839 0.26687 0.0
C3406 C 0.36206 0.4189 0.26217 0.0
C3407 C 0.37091 0.43354 0.26867 0.0
C3408 C 0.38385 0.4377 0.27994 0.0
C3409 C 0.46482 0.46187 0.26904 0.0
C3410 C 0.46679 0.47532 0.26128 0.0
C3411 C 0.45292 0.45303 0.2821 0.0
C3412 C 0.44267 0.45742 0.28766 0.0
C3413 C 0.44508 0.47125 0.28077 0.0
C3414 C 0.45707 0.48015 0.26775 0.0
C3415 C 0.42871 0.44686 0.29863 0.0
C3416 C 0.41518 0.44284 0.28889 0.0
C3417 C 0.42864 0.43966 0.31733 0.0
C3418 C 0.44248 0.44387 0.32894 0.0
C3419 C 0.45214 0.45871 0.33441 0.0
C3420 C 0.46519 0.46264 0.34525 0.0
C3421 C 0.46867 0.45181 0.35082 0.0
C3422 C 0.45909 0.43703 0.34559 0.0
C3423 C 0.44602 0.43304 0.33474 0.0
H3424 H 0.47878 0.45487 0.35921 0.0
H3425 H 0.35204 0.4157 0.25346 0.0
H3426 H 0.29199 0.27776 0.36527 0.0
H3427 H 0.29729 0.25831 0.37501 0.0
H3428 H 0.34368 0.29056 0.37981 0.0
H3429 H 0.33846 0.31013 0.3696 0.0
H3430 H 0.34021 0.26557 0.36279 0.0
H3431 H 0.32171 0.27754 0.42336 0.0
H3432 H 0.30429 0.28172 0.44409 0.0
H3433 H 0.2701 0.23686 0.43336 0.0
H3434 H 0.28728 0.23247 0.41233 0.0
H3435 H 0.36057 0.22631 0.43485 0.0
H3436 H 0.35599 0.24295 0.41342 0.0
H3437 H 0.31029 0.209 0.40702 0.0
H3438 H 0.31492 0.19235 0.42858 0.0
H3439 H 0.31307 0.23413 0.42312 0.0
H3440 H 0.33324 0.22201 0.36456 0.0
H3441 H 0.3517 0.2185 0.34543 0.0
H3442 H 0.38395 0.26432 0.35418 0.0
H3443 H 0.36575 0.26807 0.37362 0.0
C3444 C 0.30335 0.28075 0.36824 0.0
C3445 C 0.31478 0.29556 0.36679 0.0
C3446 C 0.30637 0.26958 0.37391 0.0
C3447 C 0.32087 0.27294 0.37854 0.0
C3448 C 0.33239 0.28766 0.3764 0.0
C3449 C 0.32939 0.29885 0.3706 0.0
C3450 C 0.32385 0.26119 0.3863 0.0
C3451 C 0.33437 0.25879 0.3761 0.0
C3452 C 0.3161 0.25212 0.40348 0.0
C3453 C 0.30573 0.25473 0.41608 0.0
C3454 C 0.31044 0.2686 0.42528 0.0
C3455 C 0.30062 0.27101 0.43711 0.0
C3456 C 0.28609 0.25958 0.43999 0.0
C3457 C 0.28136 0.24571 0.43108 0.0
C3458 C 0.29113 0.24326 0.41922 0.0
C3459 C 0.34973 0.22218 0.42799 0.0
C3460 C 0.33816 0.20796 0.43306 0.0
C3461 C 0.34708 0.23173 0.41585 0.0
C3462 C 0.33277 0.22728 0.40858 0.0
C3463 C 0.32142 0.2127 0.41241 0.0
C3464 C 0.32411 0.2031 0.42448 0.0
C3465 C 0.32931 0.23837 0.3995 0.0
C3466 C 0.31878 0.24076 0.40962 0.0
C3467 C 0.33718 0.2475 0.38244 0.0
C3468 C 0.34815 0.24529 0.3707 0.0
C3469 C 0.34431 0.23131 0.36255 0.0
C3470 C 0.35472 0.22928 0.35162 0.0
C3471 C 0.369 0.24117 0.34863 0.0
C3472 C 0.37289 0.25512 0.35652 0.0
C3473 C 0.36252 0.25721 0.36747 0.0
H3474 H 0.37705 0.23957 0.34017 0.0
H3475 H 0.2785 0.26146 0.44916 0.0
H3476 H 0.70365 0.03174 0.35869 0.0
H3477 H 0.72292 0.05643 0.36996 0.0
H3478 H 0.75373 0.04057 0.37599 0.0
H3479 H 0.73465 0.01601 0.36481 0.0
H3480 H 0.75368 0.05565 0.41034 0.0
H3481 H 0.75643 0.06311 0.3361 0.0
H3482 H 0.74655 0.06325 0.30135 0.0
H3483 H 0.73381 0.09426 0.32256 0.0
H3484 H 0.74344 0.09416 0.35754 0.0
H3485 H 0.81947 0.12015 0.42939 0.0
H3486 H 0.80188 0.09961 0.40756 0.0
H3487 H 0.77231 0.11718 0.40877 0.0
H3488 H 0.78995 0.13773 0.4307 0.0
H3489 H 0.77119 0.10207 0.3703 0.0
H3490 H 0.76689 0.09423 0.44391 0.0
H3491 H 0.77634 0.0947 0.47917 0.0
H3492 H 0.7908 0.06461 0.45999 0.0
H3493 H 0.78161 0.06412 0.42447 0.0
C3494 C 0.71457 0.03355 0.36223 0.0
C3495 C 0.71757 0.02185 0.36084 0.0
C3496 C 0.7256 0.04769 0.36862 0.0
C3497 C 0.73983 0.05041 0.37378 0.0
C3498 C 0.74286 0.03878 0.37214 0.0
C3499 C 0.73191 0.02472 0.36566 0.0
C3500 C 0.75144 0.06511 0.38177 0.0
C3501 C 0.75761 0.06573 0.40141 0.0
C3502 C 0.75629 0.07842 0.37051 0.0
C3503 C 0.75051 0.0785 0.3495 0.0
C3504 C 0.7514 0.06986 0.33341 0.0
C3505 C 0.74587 0.06995 0.31366 0.0
C3506 C 0.73951 0.07872 0.30977 0.0
C3507 C 0.73871 0.08745 0.32561 0.0
C3508 C 0.74422 0.08739 0.34539 0.0
C3509 C 0.80959 0.12004 0.42404 0.0
C3510 C 0.80618 0.13065 0.43136 0.0
C3511 C 0.79945 0.10822 0.41178 0.0
C3512 C 0.78569 0.10675 0.40675 0.0
C3513 C 0.78287 0.11811 0.41238 0.0
C3514 C 0.793 0.12991 0.42475 0.0
C3515 C 0.77357 0.09245 0.39856 0.0
C3516 C 0.76725 0.09193 0.3791 0.0
C3517 C 0.76839 0.07921 0.41005 0.0
C3518 C 0.7737 0.07925 0.43148 0.0
C3519 C 0.77217 0.08778 0.44717 0.0
C3520 C 0.77745 0.08803 0.46721 0.0
C3521 C 0.7842 0.07972 0.47181 0.0
C3522 C 0.78559 0.07107 0.45639 0.0
C3523 C 0.78033 0.07078 0.4363 0.0
H3524 H 0.78831 0.07997 0.48734 0.0
H3525 H 0.73524 0.07878 0.29446 0.0
H3526 H 0.99453 0.72026 0.36447 0.0
H3527 H 0.96995 0.71514 0.37484 0.0
H3528 H 0.95582 0.6688 0.38077 0.0
H3529 H 0.98041 0.67383 0.36991 0.0
H3530 H 0.93413 0.67197 0.36403 0.0
H3531 H 0.96542 0.69166 0.42373 0.0
H3532 H 0.98728 0.70956 0.44367 0.0
H3533 H 0.97621 0.74336 0.43218 0.0
H3534 H 0.95437 0.7257 0.41193 0.0
H3535 H 0.8752 0.65209 0.4368 0.0
H3536 H 0.89636 0.6567 0.41526 0.0
H3537 H 0.90779 0.70229 0.40844 0.0
H3538 H 0.88657 0.69763 0.43017 0.0
H3539 H 0.93048 0.69999 0.42379 0.0
H3540 H 0.89743 0.67873 0.36623 0.0
H3541 H 0.87525 0.65991 0.3478 0.0
H3542 H 0.88916 0.62797 0.35692 0.0
H3543 H 0.91132 0.64655 0.37567 0.0
C3544 C 0.98619 0.70895 0.36785 0.0
C3545 C 0.98952 0.69747 0.36648 0.0
C3546 C 0.97211 0.70604 0.37388 0.0
C3547 C 0.96102 0.69161 0.37898 0.0
C3548 C 0.96416 0.68004 0.37699 0.0
C3549 C 0.97826 0.68294 0.37082 0.0
C3550 C 0.94637 0.68873 0.38699 0.0
C3551 C 0.93333 0.678 0.37722 0.0
C3552 C 0.94523 0.69675 0.40399 0.0
C3553 C 0.95836 0.7074 0.41612 0.0
C3554 C 0.96772 0.70294 0.42531 0.0
C3555 C 0.98009 0.71304 0.4367 0.0
C3556 C 0.98316 0.7276 0.43914 0.0
C3557 C 0.97384 0.73208 0.43024 0.0
C3558 C 0.96146 0.72203 0.41882 0.0
C3559 C 0.88184 0.66292 0.42988 0.0
C3560 C 0.87911 0.67445 0.43487 0.0
C3561 C 0.89401 0.66558 0.41765 0.0
C3562 C 0.90375 0.67986 0.41017 0.0
C3563 C 0.90045 0.69117 0.41399 0.0
C3564 C 0.8882 0.68847 0.42616 0.0
C3565 C 0.91821 0.68331 0.40075 0.0
C3566 C 0.93125 0.69408 0.41041 0.0
C3567 C 0.91929 0.67521 0.38383 0.0
C3568 C 0.90599 0.66402 0.3725 0.0
C3569 C 0.8957 0.66767 0.36445 0.0
C3570 C 0.88314 0.65704 0.35392 0.0
C3571 C 0.88078 0.64274 0.35123 0.0
C3572 C 0.891 0.63905 0.35903 0.0
C3573 C 0.90357 0.64963 0.36959 0.0
H3574 H 0.87105 0.63453 0.34308 0.0
H3575 H 0.99274 0.7354 0.44796 0.0
H3576 H 0.37557 0.01413 0.70991 0.0
H3577 H 0.39552 0.01091 0.72406 0.0
H3578 H 0.4272 0.04776 0.68731 0.0
H3579 H 0.40738 0.0516 0.67433 0.0
H3580 H 0.41444 1.00447 0.71315 0.0
H3581 H 0.46023 0.06635 0.70992 0.0
H3582 H 0.46251 0.09102 0.71136 0.0
H3583 H 0.42158 0.07296 0.74487 0.0
H3584 H 0.41915 0.04823 0.74385 0.0
H3585 H 0.47847 0.00468 0.74917 0.0
H3586 H 0.46314 0.01042 0.72626 0.0
H3587 H 0.45892 0.03629 0.7753 0.0
H3588 H 0.47462 0.0311 0.7976 0.0
H3589 H 0.45888 0.04844 0.74137 0.0
H3590 H 0.43281 0.99895 0.76681 0.0
H3591 H 0.42813 0.97366 0.77284 0.0
H3592 H 0.4254 0.96591 0.707 0.0
H3593 H 0.43027 0.99126 0.70059 0.0
C3594 C 0.38679 0.02146 0.70475 0.0
C3595 C 0.38992 0.03321 0.69117 0.0
C3596 C 0.39823 0.01961 0.71283 0.0
C3597 C 0.41305 0.0293 0.70722 0.0
C3598 C 0.41601 0.04043 0.69254 0.0
C3599 C 0.40464 0.04254 0.68494 0.0
C3600 C 0.42535 0.0281 0.71733 0.0
C3601 C 0.42418 0.01413 0.71918 0.0
C3602 C 0.43802 0.04058 0.72576 0.0
C3603 C 0.43943 0.05542 0.72657 0.0
C3604 C 0.45174 0.06766 0.71763 0.0
C3605 C 0.45305 0.08165 0.71837 0.0
C3606 C 0.44217 0.08355 0.72813 0.0
C3607 C 0.42997 0.07147 0.73725 0.0
C3608 C 0.42861 0.05746 0.73657 0.0
C3609 C 0.47475 0.01207 0.75465 0.0
C3610 C 0.47774 0.01747 0.77512 0.0
C3611 C 0.46579 0.01517 0.7417 0.0
C3612 C 0.45953 0.02352 0.74915 0.0
C3613 C 0.46352 0.02981 0.76907 0.0
C3614 C 0.47254 0.02686 0.78184 0.0
C3615 C 0.44795 0.02484 0.73718 0.0
C3616 C 0.44925 0.03883 0.73501 0.0
C3617 C 0.43506 0.0123 0.72945 0.0
C3618 C 0.43208 0.99705 0.73321 0.0
C3619 C 0.43131 0.99189 0.75362 0.0
C3620 C 0.42862 0.97754 0.75711 0.0
C3621 C 0.42652 0.9682 0.74031 0.0
C3622 C 0.42707 0.97317 0.71999 0.0
C3623 C 0.42979 0.98753 0.71642 0.0
H3624 H 0.42442 0.95709 0.74304 0.0
H3625 H 0.4432 0.09438 0.72867 0.0
H3626 H 1.00014 0.36733 0.69279 0.0
H3627 H 1.00591 0.39185 0.70514 0.0
H3628 H 0.95954 0.3782 0.70418 0.0
H3629 H 0.95373 0.3538 0.69161 0.0
H3630 H 0.97533 0.40586 0.69026 0.0
H3631 H 0.97701 0.379 0.74942 0.0
H3632 H 0.98486 0.36445 0.77054 0.0
H3633 H 0.02981 0.40007 0.76845 0.0
H3634 H 0.02226 0.41476 0.74705 0.0
H3635 H 0.97733 0.45847 0.76567 0.0
H3636 H 0.97256 0.43741 0.74337 0.0
H3637 H 0.01927 0.45257 0.74192 0.0
H3638 H 0.02397 0.47348 0.76419 0.0
H3639 H 1.00353 0.4246 0.75596 0.0
H3640 H 1.00084 0.45203 0.6979 0.0
H3641 H 0.99188 0.46636 0.67851 0.0
H3642 H 0.94762 0.42942 0.68037 0.0
H3643 H 0.95628 0.41492 0.70004 0.0
C3644 C 0.99118 0.36959 0.69501 0.0
C3645 C 0.97646 0.35855 0.69129 0.0
C3646 C 0.99449 0.38361 0.70218 0.0
C3647 C 0.98315 0.38686 0.70588 0.0
C3648 C 0.9685 0.376 0.70149 0.0
C3649 C 0.96519 0.36201 0.69435 0.0
C3650 C 0.98644 0.40136 0.71498 0.0
C3651 C 0.98141 0.40991 0.70471 0.0
C3652 C 0.99449 0.40678 0.73375 0.0
C3653 C 0.9991 0.3979 0.74639 0.0
C3654 C 0.9886 0.38367 0.75328 0.0
C3655 C 0.99299 0.37541 0.76534 0.0
C3656 C 0.00784 0.38131 0.77077 0.0
C3657 C 0.01832 0.3955 0.76418 0.0
C3658 C 0.01399 0.4038 0.75209 0.0
C3659 C 0.98659 0.45764 0.75975 0.0
C3660 C 1.00103 0.46769 0.76635 0.0
C3661 C 0.98387 0.44555 0.74716 0.0
C3662 C 0.99556 0.44334 0.74102 0.0
C3663 C 0.01007 0.45399 0.74647 0.0
C3664 C 0.01277 0.46603 0.75898 0.0
C3665 C 0.99263 0.42922 0.7311 0.0
C3666 C 0.99762 0.42066 0.74136 0.0
C3667 C 0.98442 0.42376 0.71249 0.0
C3668 C 0.97919 0.43244 0.70061 0.0
C3669 C 0.98917 0.447 0.69433 0.0
C3670 C 0.98415 0.45514 0.68326 0.0
C3671 C 0.96918 0.44882 0.67826 0.0
C3672 C 0.95921 0.43431 0.68428 0.0
C3673 C 0.96417 0.42612 0.69537 0.0
H3674 H 0.96532 0.45514 0.66969 0.0
H3675 H 0.01121 0.3749 0.78013 0.0
H3676 H 0.64348 0.63402 0.69423 0.0
H3677 H 0.619 0.61413 0.70482 0.0
H3678 H 0.6361 0.58429 0.71022 0.0
H3679 H 0.66046 0.604 0.69943 0.0
H3680 H 0.60985 0.57028 0.69271 0.0
H3681 H 0.63019 0.60022 0.75316 0.0
H3682 H 0.64123 0.62256 0.77515 0.0
H3683 H 0.60344 0.62769 0.76482 0.0
H3684 H 0.59226 0.60548 0.74251 0.0
H3685 H 0.55748 0.51903 0.76732 0.0
H3686 H 0.57829 0.53607 0.74538 0.0
H3687 H 0.55672 0.5614 0.73385 0.0
H3688 H 0.5359 0.54427 0.7556 0.0
H3689 H 0.58423 0.57755 0.75251 0.0
H3690 H 0.5632 0.54497 0.69406 0.0
H3691 H 0.55247 0.52111 0.67558 0.0
H3692 H 0.59229 0.51957 0.68574 0.0
H3693 H 0.60319 0.54332 0.70455 0.0
C3694 C 0.642 0.6232 0.69755 0.0
C3695 C 0.65398 0.62065 0.69602 0.0
C3696 C 0.628 0.61184 0.70372 0.0
C3697 C 0.62568 0.59769 0.70856 0.0
C3698 C 0.63755 0.59506 0.70657 0.0
C3699 C 0.65152 0.60639 0.70045 0.0
C3700 C 0.61099 0.58567 0.716 0.0
C3701 C 0.6043 0.57186 0.70588 0.0
C3702 C 0.60359 0.58768 0.73306 0.0
C3703 C 0.6105 0.60132 0.74588 0.0
C3704 C 0.62433 0.60623 0.75534 0.0
C3705 C 0.63059 0.61883 0.76792 0.0
C3706 C 0.62307 0.62657 0.77131 0.0
C3707 C 0.60927 0.62171 0.76212 0.0
C3708 C 0.60297 0.60912 0.7495 0.0
C3709 C 0.55683 0.52774 0.75911 0.0
C3710 C 0.54495 0.53015 0.76272 0.0
C3711 C 0.56879 0.53758 0.74676 0.0
C3712 C 0.56911 0.55007 0.73802 0.0
C3713 C 0.55672 0.55183 0.74038 0.0
C3714 C 0.54472 0.54193 0.75255 0.0
C3715 C 0.58306 0.56227 0.7291 0.0
C3716 C 0.58966 0.57607 0.73911 0.0
C3717 C 0.59048 0.56014 0.71224 0.0
C3718 C 0.58396 0.54588 0.70087 0.0
C3719 C 0.56962 0.53948 0.69251 0.0
C3720 C 0.56352 0.52599 0.68194 0.0
C3721 C 0.57168 0.51882 0.67953 0.0
C3722 C 0.58598 0.52514 0.68764 0.0
C3723 C 0.59213 0.53863 0.69823 0.0
H3724 H 0.56693 0.50837 0.67134 0.0
H3725 H 0.62792 0.63631 0.7811 0.0
H3726 H 0.72525 0.73228 0.66098 0.0
H3727 H 0.72058 0.7521 0.65082 0.0
H3728 H 0.67362 0.72174 0.65342 0.0
H3729 H 0.67823 0.70174 0.66344 0.0
H3730 H 0.68094 0.7381 0.61847 0.0
H3731 H 0.69133 0.74824 0.69113 0.0
H3732 H 0.70568 0.75285 0.72346 0.0
H3733 H 0.74208 0.7914 0.69624 0.0
H3734 H 0.72802 0.78691 0.66364 0.0
H3735 H 0.65829 0.78975 0.60543 0.0
H3736 H 0.66322 0.77284 0.62566 0.0
H3737 H 0.70999 0.80117 0.61567 0.0
H3738 H 0.70502 0.81814 0.59534 0.0
H3739 H 0.7026 0.78621 0.65551 0.0
H3740 H 0.69328 0.77549 0.58264 0.0
H3741 H 0.67926 0.77155 0.55013 0.0
H3742 H 0.64141 0.73444 0.57745 0.0
H3743 H 0.65515 0.73829 0.61025 0.0
C3744 C 0.71391 0.7298 0.65953 0.0
C3745 C 0.70211 0.71538 0.66309 0.0
C3746 C 0.71126 0.7412 0.65379 0.0
C3747 C 0.69674 0.73851 0.65154 0.0
C3748 C 0.68493 0.72413 0.65509 0.0
C3749 C 0.68757 0.7127 0.6609 0.0
C3750 C 0.69394 0.7506 0.64481 0.0
C3751 C 0.68549 0.7485 0.62682 0.0
C3752 C 0.7002 0.76441 0.65528 0.0
C3753 C 0.70867 0.76715 0.67488 0.0
C3754 C 0.70244 0.75763 0.69198 0.0
C3755 C 0.71052 0.76024 0.71036 0.0
C3756 C 0.7248 0.77239 0.71188 0.0
C3757 C 0.73102 0.78198 0.69504 0.0
C3758 C 0.723 0.77942 0.67661 0.0
C3759 C 0.66966 0.79273 0.60846 0.0
C3760 C 0.68129 0.80534 0.5991 0.0
C3761 C 0.67246 0.78299 0.6198 0.0
C3762 C 0.68696 0.78561 0.62189 0.0
C3763 C 0.69872 0.79893 0.61427 0.0
C3764 C 0.6959 0.8087 0.60283 0.0
C3765 C 0.68955 0.77359 0.62938 0.0
C3766 C 0.698 0.77574 0.64734 0.0
C3767 C 0.68339 0.75984 0.61883 0.0
C3768 C 0.6752 0.75727 0.59898 0.0
C3769 C 0.68194 0.76654 0.58176 0.0
C3770 C 0.67405 0.76432 0.56327 0.0
C3771 C 0.65944 0.75278 0.56175 0.0
C3772 C 0.65272 0.74339 0.57867 0.0
C3773 C 0.66056 0.74557 0.59721 0.0
H3774 H 0.65335 0.7511 0.54744 0.0
H3775 H 0.73103 0.77439 0.72613 0.0
H3776 H 0.31244 0.97779 0.66486 0.0
H3777 H 0.29322 0.95281 0.65485 0.0
H3778 H 0.2607 0.9667 0.656 0.0
H3779 H 0.27975 0.99156 0.66627 0.0
H3780 H 0.24922 0.93956 0.67209 0.0
H3781 H 0.27624 0.9641 0.61019 0.0
H3782 H 0.29837 0.97755 0.58819 0.0
H3783 H 0.30691 0.94149 0.59303 0.0
H3784 H 0.28491 0.9279 0.6153 0.0
H3785 H 0.19479 0.88897 0.60076 0.0
H3786 H 0.21297 0.90899 0.62272 0.0
H3787 H 0.24188 0.89074 0.61818 0.0
H3788 H 0.2237 0.87081 0.59598 0.0
H3789 H 0.25585 0.91865 0.60646 0.0
H3790 H 0.2267 0.89286 0.66543 0.0
H3791 H 0.20404 0.87952 0.68641 0.0
H3792 H 0.19889 0.91781 0.68636 0.0
H3793 H 0.22142 0.93133 0.66511 0.0
C3794 C 0.30118 0.9755 0.66317 0.0
C3795 C 0.29769 0.98675 0.66627 0.0
C3796 C 0.29019 0.9612 0.65735 0.0
C3797 C 0.27548 0.95785 0.65438 0.0
C3798 C 0.27192 0.96895 0.65816 0.0
C3799 C 0.28288 0.98322 0.66397 0.0
C3800 C 0.26391 0.94303 0.64653 0.0
C3801 C 0.25063 0.93502 0.65767 0.0
C3802 C 0.26579 0.93689 0.62793 0.0
C3803 C 0.27904 0.94506 0.61462 0.0
C3804 C 0.28291 0.95909 0.60671 0.0
C3805 C 0.29542 0.96673 0.59416 0.0
C3806 C 0.30407 0.9604 0.58927 0.0
C3807 C 0.30021 0.9464 0.59687 0.0
C3808 C 0.28773 0.93872 0.60945 0.0
C3809 C 0.20471 0.88885 0.60534 0.0
C3810 C 0.20769 0.87815 0.59713 0.0
C3811 C 0.21518 0.90037 0.61778 0.0
C3812 C 0.22887 0.90144 0.62221 0.0
C3813 C 0.23143 0.89018 0.61506 0.0
C3814 C 0.22095 0.87867 0.60263 0.0
C3815 C 0.24109 0.91513 0.63196 0.0
C3816 C 0.25448 0.92301 0.62107 0.0
C3817 C 0.23925 0.92115 0.65071 0.0
C3818 C 0.2257 0.91307 0.66353 0.0
C3819 C 0.22068 0.89841 0.66975 0.0
C3820 C 0.20786 0.89082 0.68172 0.0
C3821 C 0.20001 0.8978 0.68768 0.0
C3822 C 0.20498 0.91241 0.68172 0.0
C3823 C 0.21778 0.92005 0.66973 0.0
H3824 H 0.19009 0.89191 0.69694 0.0
H3825 H 0.31374 0.96633 0.57954 0.0
H3826 H 0.02907 0.33566 0.65686 0.0
H3827 H 0.05392 0.34154 0.646 0.0
H3828 H 0.04241 0.29624 0.65641 0.0
H3829 H 0.01758 0.29028 0.66718 0.0
H3830 H 0.07018 0.31539 0.67088 0.0
H3831 H 0.04249 0.30804 0.60832 0.0
H3832 H 0.02722 0.31189 0.58265 0.0
H3833 H 0.06116 0.35729 0.57579 0.0
H3834 H 0.07654 0.35378 0.6017 0.0
H3835 H 0.12321 0.31064 0.60459 0.0
H3836 H 0.1026 0.3084 0.62558 0.0
H3837 H 0.11547 0.35361 0.6112 0.0
H3838 H 0.1359 0.35571 0.59003 0.0
H3839 H 0.08774 0.33563 0.60032 0.0
H3840 H 0.11627 0.34215 0.66167 0.0
H3841 H 0.13166 0.33725 0.6858 0.0
H3842 H 0.09633 0.29257 0.69369 0.0
H3843 H 0.08079 0.29713 0.66938 0.0
C3844 C 0.03186 0.32697 0.65699 0.0
C3845 C 0.02129 0.31248 0.66283 0.0
C3846 C 0.04606 0.33034 0.6507 0.0
C3847 C 0.05004 0.31931 0.65021 0.0
C3848 C 0.03964 0.30495 0.65664 0.0
C3849 C 0.02541 0.30155 0.66274 0.0
C3850 C 0.06484 0.32258 0.64245 0.0
C3851 C 0.07399 0.31974 0.6554 0.0
C3852 C 0.06997 0.32846 0.62237 0.0
C3853 C 0.06057 0.3307 0.60721 0.0
C3854 C 0.04662 0.3189 0.60157 0.0
C3855 C 0.03796 0.32101 0.58691 0.0
C3856 C 0.04319 0.33484 0.57766 0.0
C3857 C 0.0571 0.34659 0.58303 0.0
C3858 C 0.06579 0.34455 0.5977 0.0
C3859 C 0.12205 0.3203 0.60682 0.0
C3860 C 0.13129 0.33344 0.59604 0.0
C3861 C 0.11019 0.31899 0.61868 0.0
C3862 C 0.1074 0.33083 0.61998 0.0
C3863 C 0.11734 0.34431 0.61046 0.0
C3864 C 0.12915 0.34559 0.5986 0.0
C3865 C 0.09321 0.32862 0.62881 0.0
C3866 C 0.08408 0.33153 0.61595 0.0
C3867 C 0.08811 0.32273 0.64889 0.0
C3868 C 0.09741 0.31995 0.66355 0.0
C3869 C 0.11182 0.33124 0.66842 0.0
C3870 C 0.12056 0.32853 0.68216 0.0
C3871 C 0.11499 0.3146 0.69124 0.0
C3872 C 0.10064 0.30335 0.68663 0.0
C3873 C 0.09185 0.306 0.67289 0.0
H3874 H 0.12177 0.31252 0.70187 0.0
H3875 H 0.03649 0.33644 0.56629 0.0
H3876 H 0.29995 0.32907 0.67732 0.0
H3877 H 0.28025 0.33371 0.66555 0.0
H3878 H 0.25246 0.28734 0.65188 0.0
H3879 H 0.2719 0.28259 0.6638 0.0
H3880 H 0.25434 0.30603 0.6191 0.0
H3881 H 0.24502 0.30103 0.69307 0.0
H3882 H 0.2517 0.3072 0.72995 0.0
H3883 H 0.26215 0.35192 0.71863 0.0
H3884 H 0.25572 0.34605 0.6816 0.0
H3885 H 0.18823 0.30233 0.59363 0.0
H3886 H 0.20466 0.29768 0.61555 0.0
H3887 H 0.23005 0.34414 0.63028 0.0
H3888 H 0.21353 0.34875 0.60842 0.0
H3889 H 0.22973 0.32633 0.66328 0.0
H3890 H 0.24044 0.33293 0.59079 0.0
H3891 H 0.23451 0.3284 0.55349 0.0
H3892 H 0.22343 0.28316 0.56094 0.0
H3893 H 0.229 0.28734 0.59844 0.0
C3894 C 0.2896 0.31985 0.67197 0.0
C3895 C 0.28751 0.30546 0.67154 0.0
C3896 C 0.27834 0.32251 0.66528 0.0
C3897 C 0.26486 0.31086 0.65786 0.0
C3898 C 0.26276 0.2965 0.65753 0.0
C3899 C 0.27389 0.29381 0.66443 0.0
C3900 C 0.25306 0.31358 0.64977 0.0
C3901 C 0.24883 0.31027 0.62886 0.0
C3902 C 0.24621 0.31962 0.66227 0.0
C3903 C 0.25004 0.32314 0.68452 0.0
C3904 C 0.24887 0.31221 0.69841 0.0
C3905 C 0.25258 0.31565 0.71935 0.0
C3906 C 0.25739 0.32996 0.72662 0.0
C3907 C 0.25845 0.34085 0.71297 0.0
C3908 C 0.25476 0.33747 0.69201 0.0
C3909 C 0.19684 0.31139 0.60244 0.0
C3910 C 0.19948 0.32584 0.59967 0.0
C3911 C 0.20635 0.30878 0.61475 0.0
C3912 C 0.21875 0.32061 0.62429 0.0
C3913 C 0.22056 0.33485 0.62312 0.0
C3914 C 0.21106 0.33746 0.61077 0.0
C3915 C 0.23081 0.31846 0.63278 0.0
C3916 C 0.23519 0.322 0.6536 0.0
C3917 C 0.23804 0.31291 0.62011 0.0
C3918 C 0.23499 0.3104 0.59748 0.0
C3919 C 0.23665 0.32199 0.58452 0.0
C3920 C 0.23336 0.31949 0.56333 0.0
C3921 C 0.22858 0.3055 0.55485 0.0
C3922 C 0.22712 0.29399 0.56754 0.0
C3923 C 0.23034 0.29641 0.58877 0.0
H3924 H 0.22602 0.30359 0.53844 0.0
H3925 H 0.26026 0.3326 0.74284 0.0
H3926 H 0.72275 0.98808 0.68092 0.0
H3927 H 0.71754 0.96357 0.6699 0.0
H3928 H 0.67253 0.95162 0.65595 0.0
H3929 H 0.67759 0.97609 0.66758 0.0
H3930 H 0.67312 0.92841 0.67197 0.0
H3931 H 0.69937 0.96313 0.61758 0.0
H3932 H 0.71966 0.98581 0.60209 0.0
H3933 H 0.75063 0.97189 0.61867 0.0
H3934 H 0.73054 0.9492 0.63452 0.0
H3935 H 0.65756 0.87423 0.59304 0.0
H3936 H 0.66126 0.89423 0.61652 0.0
H3937 H 0.70507 0.90244 0.63079 0.0
H3938 H 0.70133 0.88238 0.60711 0.0
H3939 H 0.70564 0.92694 0.61702 0.0
H3940 H 0.67792 0.89047 0.66845 0.0
H3941 H 0.65687 0.86764 0.68233 0.0
H3942 H 0.62774 0.88453 0.66946 0.0
H3943 H 0.64858 0.90738 0.65522 0.0
C3944 C 0.71168 0.9802 0.67572 0.0
C3945 C 0.70062 0.98412 0.67497 0.0
C3946 C 0.70873 0.96617 0.66932 0.0
C3947 C 0.69472 0.95578 0.66163 0.0
C3948 C 0.68346 0.95943 0.66172 0.0
C3949 C 0.68637 0.97345 0.66834 0.0
C3950 C 0.69207 0.94145 0.6526 0.0
C3951 C 0.68016 0.92809 0.65983 0.0
C3952 C 0.70138 0.94093 0.637 0.0
C3953 C 0.71348 0.95455 0.62744 0.0
C3954 C 0.71052 0.96496 0.61806 0.0
C3955 C 0.72198 0.97781 0.60919 0.0
C3956 C 0.73643 0.98031 0.60945 0.0
C3957 C 0.73944 0.96995 0.61852 0.0
C3958 C 0.72802 0.95709 0.62744 0.0
C3959 C 0.66772 0.87989 0.60191 0.0
C3960 C 0.67908 0.87663 0.59854 0.0
C3961 C 0.66987 0.89138 0.61528 0.0
C3962 C 0.68345 0.8999 0.62551 0.0
C3963 C 0.69448 0.89603 0.62313 0.0
C3964 C 0.69229 0.88445 0.60981 0.0
C3965 C 0.68672 0.91385 0.63642 0.0
C3966 C 0.69871 0.9272 0.62939 0.0
C3967 C 0.67737 0.91432 0.65199 0.0
C3968 C 0.66481 0.9006 0.66062 0.0
C3969 C 0.66701 0.88927 0.66843 0.0
C3970 C 0.65512 0.87633 0.67639 0.0
C3971 C 0.64097 0.87462 0.67674 0.0
C3972 C 0.6387 0.88586 0.66917 0.0
C3973 C 0.65056 0.89882 0.66118 0.0
H3974 H 0.63178 0.8646 0.68291 0.0
H3975 H 0.74529 0.99026 0.60257 0.0
H3976 H 0.02162 0.73968 0.67367 0.0
H3977 H 0.04588 0.75879 0.66158 0.0
H3978 H 0.06016 0.72661 0.65792 0.0
H3979 H 0.03586 0.70737 0.67031 0.0
H3980 H 0.08201 0.75279 0.67334 0.0
H3981 H 0.04934 0.73717 0.61448 0.0
H3982 H 0.02689 0.73184 0.59495 0.0
H3983 H 0.03784 0.77714 0.60118 0.0
H3984 H 0.06027 0.7827 0.62099 0.0
H3985 H 0.13963 0.78654 0.59869 0.0
H3986 H 0.11846 0.77163 0.62112 0.0
H3987 H 0.10712 0.80608 0.62036 0.0
H3988 H 0.12832 0.82098 0.5975 0.0
H3989 H 0.08405 0.78027 0.60942 0.0
H3990 H 0.11832 0.79628 0.66574 0.0
H3991 H 0.14095 0.80126 0.68445 0.0
H3992 H 0.12736 0.75509 0.68241 0.0
H3993 H 0.10474 0.74986 0.66342 0.0
C3994 C 0.02993 0.73664 0.67046 0.0
C3995 C 0.02672 0.72193 0.67286 0.0
C3996 C 0.04382 0.74761 0.66346 0.0
C3997 C 0.05483 0.74415 0.65851 0.0
C3998 C 0.05185 0.72958 0.66158 0.0
C3999 C 0.03793 0.71857 0.66862 0.0
C4000 C 0.06921 0.7556 0.64945 0.0
C4001 C 0.08247 0.75871 0.65927 0.0
C4002 C 0.06986 0.76362 0.63134 0.0
C4003 C 0.05639 0.76031 0.61942 0.0
C4004 C 0.0469 0.74597 0.61183 0.0
C4005 C 0.03419 0.74291 0.60068 0.0
C4006 C 0.03092 0.75414 0.59688 0.0
C4007 C 0.04038 0.76845 0.60417 0.0
C4008 C 0.05309 0.77157 0.61535 0.0
C4009 C 0.13292 0.79115 0.60393 0.0
C4010 C 0.13569 0.80497 0.59651 0.0
C4011 C 0.12078 0.7826 0.61676 0.0
C4012 C 0.11114 0.78769 0.62256 0.0
C4013 C 0.11439 0.8019 0.61614 0.0
C4014 C 0.1266 0.8105 0.6033 0.0
C4015 C 0.09693 0.77752 0.63329 0.0
C4016 C 0.08364 0.77454 0.62368 0.0
C4017 C 0.0963 0.7696 0.65152 0.0
C4018 C 0.10987 0.7727 0.66301 0.0
C4019 C 0.1202 0.7872 0.66914 0.0
C4020 C 0.13302 0.79007 0.67982 0.0
C4021 C 0.1356 0.7785 0.68458 0.0
C4022 C 0.12535 0.76404 0.6787 0.0
C4023 C 0.11252 0.76112 0.668 0.0
H4024 H 0.14554 0.78075 0.69285 0.0
H4025 H 0.02108 0.75175 0.58824 0.0
H4026 H 1.00474 0.644 0.69888 0.0
H4027 H 0.01024 0.62469 0.7095 0.0
H4028 H 0.96358 0.5934 0.71388 0.0
H4029 H 0.95802 0.61255 0.70338 0.0
H4030 H 0.97805 0.59236 0.74797 0.0
H4031 H 0.98436 0.59204 0.67384 0.0
H4032 H 0.99486 0.60298 0.63972 0.0
H4033 H 0.03843 0.61593 0.66197 0.0
H4034 H 0.02821 0.60524 0.69633 0.0
H4035 H 0.97817 0.52667 0.76272 0.0
H4036 H 0.97521 0.54468 0.74196 0.0
H4037 H 0.02199 0.57536 0.74664 0.0
H4038 H 0.02492 0.55734 0.76759 0.0
H4039 H 0.00862 0.57708 0.70746 0.0
H4040 H 1.00318 0.57879 0.78127 0.0
H4041 H 0.99341 0.56789 0.81565 0.0
H4042 H 0.9492 0.55316 0.7946 0.0
H4043 H 0.95869 0.56376 0.75992 0.0
C4044 C 0.99566 0.63298 0.70195 0.0
C4045 C 0.98094 0.62986 0.70026 0.0
C4046 C 0.99882 0.62192 0.70796 0.0
C4047 C 0.98733 0.60752 0.71242 0.0
C4048 C 0.97265 0.60439 0.71057 0.0
C4049 C 0.96949 0.61538 0.70448 0.0
C4050 C 0.99048 0.5958 0.71976 0.0
C4051 C 0.98457 0.58892 0.73892 0.0
C4052 C 0.99937 0.59155 0.70836 0.0
C4053 C 1.00553 0.59798 0.68772 0.0
C4054 C 0.9962 0.59734 0.67151 0.0
C4055 C 1.0021 0.60347 0.65212 0.0
C4056 C 0.01731 0.61019 0.6487 0.0
C4057 C 0.02665 0.61075 0.66466 0.0
C4058 C 0.02081 0.60464 0.68409 0.0
C4059 C 0.98792 0.53694 0.75835 0.0
C4060 C 1.00181 0.54051 0.76638 0.0
C4061 C 0.9862 0.5473 0.7467 0.0
C4062 C 0.99836 0.56144 0.74294 0.0
C4063 C 0.01248 0.56451 0.74926 0.0
C4064 C 0.01417 0.55417 0.76107 0.0
C4065 C 0.99594 0.57355 0.73536 0.0
C4066 C 1.00206 0.58054 0.71637 0.0
C4067 C 0.98737 0.57806 0.74698 0.0
C4068 C 0.98163 0.57193 0.76793 0.0
C4069 C 0.99136 0.57314 0.78392 0.0
C4070 C 0.98588 0.56704 0.80347 0.0
C4071 C 0.9707 0.55981 0.8073 0.0
C4072 C 0.96096 0.55874 0.7916 0.0
C4073 C 0.96638 0.5648 0.77199 0.0
H4074 H 0.96649 0.55507 0.82245 0.0
H4075 H 0.02186 0.61493 0.63367 0.0
H4076 H 0.39846 0.34865 0.69488 0.0
H4077 H 0.41785 0.37338 0.70492 0.0
H4078 H 0.38513 0.38645 0.71445 0.0
H4079 H 0.36561 0.3617 0.70391 0.0
H4080 H 0.40926 0.40859 0.69683 0.0
H4081 H 0.39994 0.37699 0.7556 0.0
H4082 H 0.397 0.35516 0.77452 0.0
H4083 H 0.44178 0.36734 0.75999 0.0
H4084 H 0.44492 0.38915 0.74073 0.0
H4085 H 0.44905 0.46699 0.7702 0.0
H4086 H 0.43232 0.44588 0.74864 0.0
H4087 H 0.46715 0.43591 0.7379 0.0
H4088 H 0.48392 0.45708 0.75962 0.0
H4089 H 0.44284 0.41262 0.75414 0.0
H4090 H 0.45242 0.44596 0.69771 0.0
H4091 H 0.45479 0.46807 0.68033 0.0
H4092 H 0.409 0.45306 0.69221 0.0
H4093 H 0.40639 0.43095 0.70993 0.0
C4094 C 0.39535 0.35678 0.69899 0.0
C4095 C 0.38043 0.35312 0.69873 0.0
C4096 C 0.40648 0.37095 0.70481 0.0
C4097 C 0.40299 0.38177 0.71083 0.0
C4098 C 0.38814 0.37831 0.70994 0.0
C4099 C 0.37698 0.36413 0.70397 0.0
C4100 C 0.41476 0.39648 0.71869 0.0
C4101 C 0.41652 0.40947 0.70949 0.0
C4102 C 0.42446 0.39772 0.73498 0.0
C4103 C 0.42261 0.38461 0.74653 0.0
C4104 C 0.40912 0.37495 0.75629 0.0
C4105 C 0.40742 0.36259 0.7671 0.0
C4106 C 0.41918 0.35984 0.7684 0.0
C4107 C 0.43268 0.36947 0.75893 0.0
C4108 C 0.43442 0.38183 0.74808 0.0
C4109 C 0.45331 0.46068 0.76246 0.0
C4110 C 0.46783 0.46377 0.76637 0.0
C4111 C 0.44371 0.44855 0.75021 0.0
C4112 C 0.44842 0.43923 0.74162 0.0
C4113 C 0.46325 0.44293 0.74433 0.0
C4114 C 0.47289 0.45514 0.75651 0.0
C4115 C 0.43744 0.42475 0.73221 0.0
C4116 C 0.43574 0.41177 0.74128 0.0
C4117 C 0.42773 0.42357 0.71599 0.0
C4118 C 0.42924 0.43684 0.7053 0.0
C4119 C 0.44288 0.44742 0.69677 0.0
C4120 C 0.44426 0.45995 0.68682 0.0
C4121 C 0.43206 0.46199 0.68521 0.0
C4122 C 0.41844 0.45148 0.69349 0.0
C4123 C 0.417 0.43893 0.70346 0.0
H4124 H 0.43315 0.47169 0.6775 0.0
H4125 H 0.41785 0.35027 0.77679 0.0
H4126 H 0.64787 0.00783 0.70287 0.0
H4127 H 0.62308 1.0021 0.71375 0.0
H4128 H 0.63553 0.04791 0.70618 0.0
H4129 H 0.66022 0.05368 0.69519 0.0
H4130 H 0.6156 0.01223 0.74719 0.0
H4131 H 0.60501 0.05064 0.69398 0.0
H4132 H 0.61092 0.06086 0.65848 0.0
H4133 H 0.61521 0.02397 0.63842 0.0
H4134 H 0.60913 0.01342 0.67371 0.0
H4135 H 0.55699 0.03453 0.76575 0.0
H4136 H 0.57749 0.03723 0.74395 0.0
H4137 H 0.56252 0.99083 0.75176 0.0
H4138 H 0.54218 0.98823 0.77369 0.0
H4139 H 0.58284 0.02572 0.70887 0.0
H4140 H 0.59315 0.98732 0.76285 0.0
H4141 H 0.58921 0.97863 0.79917 0.0
H4142 H 0.58671 0.01671 0.81828 0.0
H4143 H 0.59096 0.02581 0.78216 0.0
C4144 C 0.64528 0.01666 0.70328 0.0
C4145 C 0.65608 0.03122 0.69814 0.0
C4146 C 0.6311 0.01337 0.70955 0.0
C4147 C 0.62732 0.02453 0.71064 0.0
C4148 C 0.63802 0.03903 0.70516 0.0
C4149 C 0.6522 0.04233 0.69897 0.0
C4150 C 0.61257 0.02123 0.71877 0.0
C4151 C 0.6083 0.01489 0.73858 0.0
C4152 C 0.60322 0.02515 0.7079 0.0
C4153 C 0.60675 0.03132 0.68656 0.0
C4154 C 0.60716 0.04468 0.68198 0.0
C4155 C 0.61055 0.05054 0.66189 0.0
C4156 C 0.61349 0.04309 0.64622 0.0
C4157 C 0.613 0.02975 0.65059 0.0
C4158 C 0.6096 0.02385 0.67064 0.0
C4159 C 0.55771 0.0248 0.76197 0.0
C4160 C 0.54787 0.01112 0.77106 0.0
C4161 C 0.56951 0.02636 0.74968 0.0
C4162 C 0.57174 0.0143 0.74651 0.0
C4163 C 0.56117 1.00035 0.75418 0.0
C4164 C 0.54941 0.99881 0.76647 0.0
C4165 C 0.58584 0.01659 0.73719 0.0
C4166 C 0.59004 0.02285 0.71729 0.0
C4167 C 0.59523 0.0127 0.74803 0.0
C4168 C 0.59221 0.00715 0.76973 0.0
C4169 C 0.59175 0.99383 0.7748 0.0
C4170 C 0.5895 0.98886 0.79535 0.0
C4171 C 0.58775 0.99713 0.81099 0.0
C4172 C 0.58808 0.01032 0.80612 0.0
C4173 C 0.59039 0.01539 0.7856 0.0
H4174 H 0.58626 0.99336 0.82691 0.0
H4175 H 0.61611 0.04765 0.63068 0.0
loop_
_geom_bond_atom_site_label_1
_geom_bond_atom_site_label_2
_geom_bond_distance
_geom_bond_site_symmetry_2
_ccdc_geom_bond_type
O0 Cd1 2.223 . S
O0 C8 1.315 . S
Cd1 O0 2.223 . S
Cd1 O4 2.297 . S
Cd1 O5 2.439 . S
Cd1 O11 2.240 1_554 S
Cd2 O3 2.240 . S
Cd2 O10 2.223 1_554 S
Cd2 O12 2.297 1_554 S
Cd2 O13 2.448 . S
O3 Cd2 2.240 . S
O3 C8 1.279 1_655 S
O4 Cd1 2.297 . S
O4 C6 1.247 . S
O5 Cd1 2.439 . S
O5 C6 1.208 . S
C6 O4 1.247 . S
C6 O5 1.208 . S
C7 O12 1.247 . S
C7 O13 1.197 1_556 S
C8 O0 1.315 . S
C8 O3 1.279 1_455 S
C9 O10 1.315 . S
C9 O11 1.279 1_655 S
O10 Cd2 2.223 1_556 S
O10 C9 1.315 . S
O11 Cd1 2.240 1_556 S
O11 C9 1.279 1_455 S
O12 Cd2 2.297 1_556 S
O12 C7 1.247 . S
O13 Cd2 2.448 . S
O13 C7 1.197 1_554 S
O14 Cd15 2.223 . S
O14 C22 1.315 . S
Cd15 O14 2.223 . S
Cd15 O18 2.297 . S
Cd15 O19 2.439 . S
Cd15 O25 2.240 1_554 S
Cd16 O17 2.240 . S
Cd16 O24 2.223 1_554 S
Cd16 O26 2.297 1_554 S
Cd16 O27 2.449 . S
O17 Cd16 2.240 . S
O17 C22 1.279 . S
O18 Cd15 2.297 . S
O18 C20 1.247 . S
O19 Cd15 2.439 . S
O19 C20 1.208 . S
C20 O18 1.247 . S
C20 O19 1.208 . S
C21 O26 1.247 . S
C21 O27 1.196 1_556 S
C22 O14 1.315 . S
C22 O17 1.279 . S
C23 O24 1.315 . S
C23 O25 1.279 . S
O24 Cd16 2.223 1_556 S
O24 C23 1.315 . S
O25 Cd15 2.240 1_556 S
O25 C23 1.279 . S
O26 Cd16 2.297 1_556 S
O26 C21 1.247 . S
O27 Cd16 2.449 . S
O27 C21 1.196 1_554 S
O28 Cd29 2.223 1_556 S
O28 C36 1.315 . S
Cd29 O28 2.223 1_554 S
Cd29 O32 2.297 1_554 S
Cd29 O33 2.448 . S
Cd29 O39 2.240 . S
Cd30 O31 2.240 1_554 S
Cd30 O38 2.223 . S
Cd30 O40 2.297 . S
Cd30 O41 2.439 . S
O31 Cd30 2.240 1_556 S
O31 C36 1.279 1_565 S
O32 Cd29 2.297 1_556 S
O32 C34 1.247 . S
O33 Cd29 2.448 . S
O33 C34 1.197 1_554 S
C34 O32 1.247 . S
C34 O33 1.197 1_556 S
C35 O40 1.247 . S
C35 O41 1.208 . S
C36 O28 1.315 . S
C36 O31 1.279 1_545 S
C37 O38 1.315 . S
C37 O39 1.279 1_565 S
O38 Cd30 2.223 . S
O38 C37 1.315 . S
O39 Cd29 2.240 . S
O39 C37 1.279 1_545 S
O40 Cd30 2.297 . S
O40 C35 1.247 . S
O41 Cd30 2.439 . S
O41 C35 1.208 . S
O42 Cd43 2.223 1_556 S
O42 C50 1.315 . S
Cd43 O42 2.223 1_554 S
Cd43 O46 2.297 1_554 S
Cd43 O47 2.446 . S
Cd43 O53 2.240 . S
Cd44 O45 2.240 1_554 S
Cd44 O52 2.223 . S
Cd44 O54 2.297 . S
Cd44 O55 2.439 . S
O45 Cd44 2.240 1_556 S
O45 C50 1.279 1_455 S
O46 Cd43 2.297 1_556 S
O46 C48 1.247 . S
O47 Cd43 2.446 . S
O47 C48 1.200 1_554 S
C48 O46 1.247 . S
C48 O47 1.200 1_556 S
C49 O54 1.247 . S
C49 O55 1.208 . S
C50 O42 1.315 . S
C50 O45 1.279 1_655 S
C51 O52 1.315 . S
C51 O53 1.279 1_455 S
O52 Cd44 2.223 . S
O52 C51 1.315 . S
O53 Cd43 2.240 . S
O53 C51 1.279 1_655 S
O54 Cd44 2.297 . S
O54 C49 1.247 . S
O55 Cd44 2.439 . S
O55 C49 1.208 . S
O56 Cd57 2.223 1_556 S
O56 C64 1.315 . S
Cd57 O56 2.223 1_554 S
Cd57 O60 2.297 1_554 S
Cd57 O61 2.438 . S
Cd57 O67 2.240 . S
Cd58 O59 2.240 1_554 S
Cd58 O66 2.223 . S
Cd58 O68 2.297 . S
Cd58 O69 2.439 . S
O59 Cd58 2.240 1_556 S
O59 C64 1.279 . S
O60 Cd57 2.297 1_556 S
O60 C62 1.247 . S
O61 Cd57 2.438 . S
O61 C62 1.210 1_554 S
C62 O60 1.247 . S
C62 O61 1.210 1_556 S
C63 O68 1.247 . S
C63 O69 1.208 . S
C64 O56 1.315 . S
C64 O59 1.279 . S
C65 O66 1.315 . S
C65 O67 1.279 . S
O66 Cd58 2.223 . S
O66 C65 1.315 . S
O67 Cd57 2.240 . S
O67 C65 1.279 . S
O68 Cd58 2.297 . S
O68 C63 1.247 . S
O69 Cd58 2.439 . S
O69 C63 1.208 . S
O70 Cd71 2.223 . S
O70 C78 1.315 . S
Cd71 O70 2.223 . S
Cd71 O74 2.297 . S
Cd71 O75 2.439 . S
Cd71 O81 2.240 1_554 S
Cd72 O73 2.240 . S
Cd72 O80 2.223 1_554 S
Cd72 O82 2.297 1_554 S
Cd72 O83 2.451 . S
O73 Cd72 2.240 . S
O73 C78 1.279 1_545 S
O74 Cd71 2.297 . S
O74 C76 1.247 . S
O75 Cd71 2.439 . S
O75 C76 1.208 . S
C76 O74 1.247 . S
C76 O75 1.208 . S
C77 O82 1.247 . S
C77 O83 1.194 1_556 S
C78 O70 1.315 . S
C78 O73 1.279 1_565 S
C79 O80 1.315 . S
C79 O81 1.279 1_545 S
O80 Cd72 2.223 1_556 S
O80 C79 1.315 . S
O81 Cd71 2.240 1_556 S
O81 C79 1.279 1_565 S
O82 Cd72 2.297 1_556 S
O82 C77 1.247 . S
O83 Cd72 2.451 . S
O83 C77 1.194 1_554 S
O84 Cd85 2.223 . S
O84 C92 1.315 . S
Cd85 O84 2.223 . S
Cd85 O88 2.297 . S
Cd85 O89 2.439 . S
Cd85 O95 2.240 . S
Cd86 O87 2.240 . S
Cd86 O94 2.223 . S
Cd86 O96 2.297 . S
Cd86 O97 2.439 . S
O87 Cd86 2.240 . S
O87 C92 1.279 . S
O88 Cd85 2.297 . S
O88 C90 1.247 . S
O89 Cd85 2.439 . S
O89 C90 1.208 . S
C90 O88 1.247 . S
C90 O89 1.208 . S
C91 O96 1.247 . S
C91 O97 1.208 . S
C92 O84 1.315 . S
C92 O87 1.279 . S
C93 O94 1.315 . S
C93 O95 1.279 . S
O94 Cd86 2.223 . S
O94 C93 1.315 . S
O95 Cd85 2.240 . S
O95 C93 1.279 . S
O96 Cd86 2.297 . S
O96 C91 1.247 . S
O97 Cd86 2.439 . S
O97 C91 1.208 . S
O98 Cd99 2.223 . S
O98 C106 1.315 . S
Cd99 O98 2.223 . S
Cd99 O102 2.297 1_565 S
Cd99 O103 2.439 1_565 S
Cd99 O109 2.240 . S
Cd100 O101 2.240 . S
Cd100 O108 2.223 . S
Cd100 O110 2.297 . S
Cd100 O111 2.439 . S
O101 Cd100 2.240 . S
O101 C106 1.279 . S
O102 Cd99 2.297 1_545 S
O102 C104 1.247 . S
O103 Cd99 2.439 1_545 S
O103 C104 1.208 . S
C104 O102 1.247 . S
C104 O103 1.208 . S
C105 O110 1.247 . S
C105 O111 1.208 . S
C106 O98 1.315 . S
C106 O101 1.279 . S
C107 O108 1.315 . S
C107 O109 1.279 . S
O108 Cd100 2.223 . S
O108 C107 1.315 . S
O109 Cd99 2.240 . S
O109 C107 1.279 . S
O110 Cd100 2.297 . S
O110 C105 1.247 . S
O111 Cd100 2.439 . S
O111 C105 1.208 . S
O112 Cd113 2.223 . S
O112 C120 1.315 . S
Cd113 O112 2.223 . S
Cd113 O116 2.297 . S
Cd113 O117 2.439 . S
Cd113 O123 2.240 . S
Cd114 O115 2.240 . S
Cd114 O122 2.223 . S
Cd114 O124 2.297 1_455 S
Cd114 O125 2.439 1_455 S
O115 Cd114 2.240 . S
O115 C120 1.279 . S
O116 Cd113 2.297 . S
O116 C118 1.247 . S
O117 Cd113 2.439 . S
O117 C118 1.208 . S
C118 O116 1.247 . S
C118 O117 1.208 . S
C119 O124 1.247 . S
C119 O125 1.208 . S
C120 O112 1.315 . S
C120 O115 1.279 . S
C121 O122 1.315 . S
C121 O123 1.279 . S
O122 Cd114 2.223 . S
O122 C121 1.315 . S
O123 Cd113 2.240 . S
O123 C121 1.279 . S
O124 Cd114 2.297 1_655 S
O124 C119 1.247 . S
O125 Cd114 2.439 1_655 S
O125 C119 1.208 . S
O126 Cd127 2.223 . S
O126 C134 1.315 . S
Cd127 O126 2.223 . S
Cd127 O130 2.297 . S
Cd127 O131 2.439 . S
Cd127 O137 2.240 . S
Cd128 O129 2.240 . S
Cd128 O136 2.223 . S
Cd128 O138 2.297 1_565 S
Cd128 O139 2.439 1_565 S
O129 Cd128 2.240 . S
O129 C134 1.279 . S
O130 Cd127 2.297 . S
O130 C132 1.247 . S
O131 Cd127 2.439 . S
O131 C132 1.208 . S
C132 O130 1.247 . S
C132 O131 1.208 . S
C133 O138 1.247 . S
C133 O139 1.208 . S
C134 O126 1.315 . S
C134 O129 1.279 . S
C135 O136 1.315 . S
C135 O137 1.279 . S
O136 Cd128 2.223 . S
O136 C135 1.315 . S
O137 Cd127 2.240 . S
O137 C135 1.279 . S
O138 Cd128 2.297 1_545 S
O138 C133 1.247 . S
O139 Cd128 2.439 1_545 S
O139 C133 1.208 . S
O140 Cd141 2.223 . S
O140 C148 1.315 . S
Cd141 O140 2.223 . S
Cd141 O144 2.297 . S
Cd141 O145 2.439 . S
Cd141 O151 2.240 . S
Cd142 O143 2.240 . S
Cd142 O150 2.223 . S
Cd142 O152 2.297 1_455 S
Cd142 O153 2.439 1_455 S
O143 Cd142 2.240 . S
O143 C148 1.279 . S
O144 Cd141 2.297 . S
O144 C146 1.247 . S
O145 Cd141 2.439 . S
O145 C146 1.208 . S
C146 O144 1.247 . S
C146 O145 1.208 . S
C147 O152 1.247 . S
C147 O153 1.208 . S
C148 O140 1.315 . S
C148 O143 1.279 . S
C149 O150 1.315 . S
C149 O151 1.279 . S
O150 Cd142 2.223 . S
O150 C149 1.315 . S
O151 Cd141 2.240 . S
O151 C149 1.279 . S
O152 Cd142 2.297 1_655 S
O152 C147 1.247 . S
O153 Cd142 2.439 1_655 S
O153 C147 1.208 . S
O154 Cd155 2.223 . S
O154 C162 1.315 . S
Cd155 O154 2.223 . S
Cd155 O158 2.297 . S
Cd155 O159 2.439 . S
Cd155 O165 2.240 . S
Cd156 O157 2.240 . S
Cd156 O164 2.223 . S
Cd156 O166 2.297 . S
Cd156 O167 2.439 . S
O157 Cd156 2.240 . S
O157 C162 1.279 . S
O158 Cd155 2.297 . S
O158 C160 1.247 . S
O159 Cd155 2.439 . S
O159 C160 1.208 . S
C160 O158 1.247 . S
C160 O159 1.208 . S
C161 O166 1.247 . S
C161 O167 1.208 . S
C162 O154 1.315 . S
C162 O157 1.279 . S
C163 O164 1.315 . S
C163 O165 1.279 . S
O164 Cd156 2.223 . S
O164 C163 1.315 . S
O165 Cd155 2.240 . S
O165 C163 1.279 . S
O166 Cd156 2.297 . S
O166 C161 1.247 . S
O167 Cd156 2.439 . S
O167 C161 1.208 . S
O168 Cd169 2.223 . S
O168 C176 1.315 . S
Cd169 O168 2.223 . S
Cd169 O172 2.297 . S
Cd169 O173 2.439 . S
Cd169 O179 2.240 . S
Cd170 O171 2.240 . S
Cd170 O178 2.223 . S
Cd170 O180 2.297 1_545 S
Cd170 O181 2.439 1_545 S
O171 Cd170 2.240 . S
O171 C176 1.279 . S
O172 Cd169 2.297 . S
O172 C174 1.247 . S
O173 Cd169 2.439 . S
O173 C174 1.208 . S
C174 O172 1.247 . S
C174 O173 1.208 . S
C175 O180 1.247 . S
C175 O181 1.208 . S
C176 O168 1.315 . S
C176 O171 1.279 . S
C177 O178 1.315 . S
C177 O179 1.279 . S
O178 Cd170 2.223 . S
O178 C177 1.315 . S
O179 Cd169 2.240 . S
O179 C177 1.279 . S
O180 Cd170 2.297 1_565 S
O180 C175 1.247 . S
O181 Cd170 2.439 1_565 S
O181 C175 1.208 . S
O182 Cd183 2.223 . S
O182 C190 1.315 . S
Cd183 O182 2.223 . S
Cd183 O186 2.297 . S
Cd183 O187 2.439 . S
Cd183 O193 2.240 . S
Cd184 O185 2.240 . S
Cd184 O192 2.223 . S
Cd184 O194 2.297 1_655 S
Cd184 O195 2.439 1_655 S
O185 Cd184 2.240 . S
O185 C190 1.279 . S
O186 Cd183 2.297 . S
O186 C188 1.247 . S
O187 Cd183 2.439 . S
O187 C188 1.208 . S
C188 O186 1.247 . S
C188 O187 1.208 . S
C189 O194 1.247 . S
C189 O195 1.208 . S
C190 O182 1.315 . S
C190 O185 1.279 . S
C191 O192 1.315 . S
C191 O193 1.279 . S
O192 Cd184 2.223 . S
O192 C191 1.315 . S
O193 Cd183 2.240 . S
O193 C191 1.279 . S
O194 Cd184 2.297 1_455 S
O194 C189 1.247 . S
O195 Cd184 2.439 1_455 S
O195 C189 1.208 . S
O196 Cd197 2.223 . S
O196 C204 1.315 . S
Cd197 O196 2.223 . S
Cd197 O200 2.297 . S
Cd197 O201 2.439 . S
Cd197 O207 2.240 . S
Cd198 O199 2.240 . S
Cd198 O206 2.223 . S
Cd198 O208 2.297 . S
Cd198 O209 2.439 . S
O199 Cd198 2.240 . S
O199 C204 1.279 . S
O200 Cd197 2.297 . S
O200 C202 1.247 . S
O201 Cd197 2.439 . S
O201 C202 1.208 . S
C202 O200 1.247 . S
C202 O201 1.208 . S
C203 O208 1.247 . S
C203 O209 1.208 . S
C204 O196 1.315 . S
C204 O199 1.279 . S
C205 O206 1.315 . S
C205 O207 1.279 . S
O206 Cd198 2.223 . S
O206 C205 1.315 . S
O207 Cd197 2.240 . S
O207 C205 1.279 . S
O208 Cd198 2.297 . S
O208 C203 1.247 . S
O209 Cd198 2.439 . S
O209 C203 1.208 . S
O210 Cd211 2.223 . S
O210 C218 1.315 . S
Cd211 O210 2.223 . S
Cd211 O214 2.297 . S
Cd211 O215 2.439 . S
Cd211 O221 2.240 . S
Cd212 O213 2.240 . S
Cd212 O220 2.223 . S
Cd212 O222 2.297 . S
Cd212 O223 2.439 . S
O213 Cd212 2.240 . S
O213 C218 1.279 . S
O214 Cd211 2.297 . S
O214 C216 1.247 . S
O215 Cd211 2.439 . S
O215 C216 1.208 . S
C216 O214 1.247 . S
C216 O215 1.208 . S
C217 O222 1.247 . S
C217 O223 1.208 . S
C218 O210 1.315 . S
C218 O213 1.279 . S
C219 O220 1.315 . S
C219 O221 1.279 . S
O220 Cd212 2.223 . S
O220 C219 1.315 . S
O221 Cd211 2.240 . S
O221 C219 1.279 . S
O222 Cd212 2.297 . S
O222 C217 1.247 . S
O223 Cd212 2.439 . S
O223 C217 1.208 . S
O224 Cd225 2.223 . S
O224 C232 1.315 . S
Cd225 O224 2.223 . S
Cd225 O228 2.297 1_545 S
Cd225 O229 2.439 1_545 S
Cd225 O235 2.240 . S
Cd226 O227 2.240 . S
Cd226 O234 2.223 . S
Cd226 O236 2.297 . S
Cd226 O237 2.439 . S
O227 Cd226 2.240 . S
O227 C232 1.279 . S
O228 Cd225 2.297 1_565 S
O228 C230 1.247 . S
O229 Cd225 2.439 1_565 S
O229 C230 1.208 . S
C230 O228 1.247 . S
C230 O229 1.208 . S
C231 O236 1.247 . S
C231 O237 1.208 . S
C232 O224 1.315 . S
C232 O227 1.279 . S
C233 O234 1.315 . S
C233 O235 1.279 . S
O234 Cd226 2.223 . S
O234 C233 1.315 . S
O235 Cd225 2.240 . S
O235 C233 1.279 . S
O236 Cd226 2.297 . S
O236 C231 1.247 . S
O237 Cd226 2.439 . S
O237 C231 1.208 . S
O238 Cd239 2.223 . S
O238 C246 1.315 . S
Cd239 O238 2.223 . S
Cd239 O242 2.297 . S
Cd239 O243 2.439 . S
Cd239 O249 2.240 . S
Cd240 O241 2.240 . S
Cd240 O248 2.223 . S
Cd240 O250 2.297 1_655 S
Cd240 O251 2.439 1_655 S
O241 Cd240 2.240 . S
O241 C246 1.279 . S
O242 Cd239 2.297 . S
O242 C244 1.247 . S
O243 Cd239 2.439 . S
O243 C244 1.208 . S
C244 O242 1.247 . S
C244 O243 1.208 . S
C245 O250 1.247 . S
C245 O251 1.208 . S
C246 O238 1.315 . S
C246 O241 1.279 . S
C247 O248 1.315 . S
C247 O249 1.279 . S
O248 Cd240 2.223 . S
O248 C247 1.315 . S
O249 Cd239 2.240 . S
O249 C247 1.279 . S
O250 Cd240 2.297 1_455 S
O250 C245 1.247 . S
O251 Cd240 2.439 1_455 S
O251 C245 1.208 . S
H252 C258 0.930 . S
H253 C261 0.931 . S
H254 C263 0.931 . S
H255 C265 0.930 . S
H256 C267 0.930 . S
H257 C269 0.931 . S
C258 H252 0.930 . S
C258 C259 1.380 . S
C258 C260 1.394 . S
C259 C258 1.380 . S
C259 C263 1.382 . S
C260 C258 1.394 . S
C260 C261 1.400 . S
C261 H253 0.931 . S
C261 C260 1.400 . S
C261 C262 1.375 . S
C262 C261 1.375 . S
C262 C263 1.415 . S
C262 C264 1.501 . S
C263 H254 0.931 . S
C263 C259 1.382 . S
C263 C262 1.415 . S
C264 C262 1.501 . S
C264 C265 1.384 . S
C264 C269 1.408 . S
C265 H255 0.930 . S
C265 C264 1.384 . S
C265 C266 1.389 . S
C266 C265 1.389 . S
C266 C267 1.405 . S
C267 H256 0.930 . S
C267 C266 1.405 . S
C267 C268 1.364 . S
C268 C267 1.364 . S
C268 C269 1.400 . S
C269 H257 0.931 . S
C269 C264 1.408 . S
C269 C268 1.400 . S
H270 C276 0.930 . S
H271 C279 0.931 . S
H272 C281 0.931 . S
H273 C283 0.930 . S
H274 C285 0.930 . S
H275 C287 0.931 . S
C276 H270 0.930 . S
C276 C277 1.380 . S
C276 C278 1.394 . S
C277 C276 1.380 . S
C277 C281 1.382 . S
C278 C276 1.394 . S
C278 C279 1.400 . S
C279 H271 0.931 . S
C279 C278 1.400 . S
C279 C280 1.375 . S
C280 C279 1.375 . S
C280 C281 1.415 . S
C280 C282 1.501 . S
C281 H272 0.931 . S
C281 C277 1.382 . S
C281 C280 1.415 . S
C282 C280 1.501 . S
C282 C283 1.384 . S
C282 C287 1.408 . S
C283 H273 0.930 . S
C283 C282 1.384 . S
C283 C284 1.389 . S
C284 C283 1.389 . S
C284 C285 1.405 . S
C285 H274 0.930 . S
C285 C284 1.405 . S
C285 C286 1.364 . S
C286 C285 1.364 . S
C286 C287 1.400 . S
C287 H275 0.931 . S
C287 C282 1.408 . S
C287 C286 1.400 . S
H288 C294 0.930 . S
H289 C297 0.931 . S
H290 C299 0.931 . S
H291 C301 0.930 . S
H292 C303 0.930 . S
H293 C305 0.931 . S
C294 H288 0.930 . S
C294 C295 1.380 . S
C294 C296 1.394 . S
C295 C294 1.380 . S
C295 C299 1.382 . S
C296 C294 1.394 . S
C296 C297 1.400 . S
C297 H289 0.931 . S
C297 C296 1.400 . S
C297 C298 1.375 . S
C298 C297 1.375 . S
C298 C299 1.415 . S
C298 C300 1.501 . S
C299 H290 0.931 . S
C299 C295 1.382 . S
C299 C298 1.415 . S
C300 C298 1.501 . S
C300 C301 1.384 . S
C300 C305 1.408 . S
C301 H291 0.930 . S
C301 C300 1.384 . S
C301 C302 1.389 . S
C302 C301 1.389 . S
C302 C303 1.405 . S
C303 H292 0.930 . S
C303 C302 1.405 . S
C303 C304 1.364 . S
C304 C303 1.364 . S
C304 C305 1.400 . S
C305 H293 0.931 . S
C305 C300 1.408 . S
C305 C304 1.400 . S
H306 C312 0.930 . S
H307 C315 0.931 . S
H308 C317 0.931 . S
H309 C319 0.930 . S
H310 C321 0.930 . S
H311 C323 0.931 . S
C312 H306 0.930 . S
C312 C313 1.380 . S
C312 C314 1.394 . S
C313 C312 1.380 . S
C313 C317 1.382 . S
C314 C312 1.394 . S
C314 C315 1.400 . S
C315 H307 0.931 . S
C315 C314 1.400 . S
C315 C316 1.375 . S
C316 C315 1.375 . S
C316 C317 1.415 . S
C316 C318 1.501 . S
C317 H308 0.931 . S
C317 C313 1.382 . S
C317 C316 1.415 . S
C318 C316 1.501 . S
C318 C319 1.384 . S
C318 C323 1.408 . S
C319 H309 0.930 . S
C319 C318 1.384 . S
C319 C320 1.389 . S
C320 C319 1.389 . S
C320 C321 1.405 . S
C321 H310 0.930 . S
C321 C320 1.405 . S
C321 C322 1.364 . S
C322 C321 1.364 . S
C322 C323 1.400 . S
C323 H311 0.931 . S
C323 C318 1.408 . S
C323 C322 1.400 . S
H324 C330 0.930 . S
H325 C333 0.931 . S
H326 C335 0.931 . S
H327 C337 0.930 . S
H328 C339 0.930 . S
H329 C341 0.931 . S
C330 H324 0.930 . S
C330 C331 1.380 . S
C330 C332 1.394 . S
C331 C330 1.380 . S
C331 C335 1.382 . S
C332 C330 1.394 . S
C332 C333 1.400 . S
C333 H325 0.931 . S
C333 C332 1.400 . S
C333 C334 1.375 . S
C334 C333 1.375 . S
C334 C335 1.415 . S
C334 C336 1.501 . S
C335 H326 0.931 . S
C335 C331 1.382 . S
C335 C334 1.415 . S
C336 C334 1.501 . S
C336 C337 1.384 . S
C336 C341 1.408 . S
C337 H327 0.930 . S
C337 C336 1.384 . S
C337 C338 1.389 . S
C338 C337 1.389 . S
C338 C339 1.405 . S
C339 H328 0.930 . S
C339 C338 1.405 . S
C339 C340 1.364 . S
C340 C339 1.364 . S
C340 C341 1.400 . S
C341 H329 0.931 . S
C341 C336 1.408 . S
C341 C340 1.400 . S
H342 C348 0.930 . S
H343 C351 0.931 . S
H344 C353 0.931 . S
H345 C355 0.930 . S
H346 C357 0.930 . S
H347 C359 0.931 . S
C348 H342 0.930 . S
C348 C349 1.380 . S
C348 C350 1.394 . S
C349 C348 1.380 . S
C349 C353 1.382 . S
C350 C348 1.394 . S
C350 C351 1.400 . S
C351 H343 0.931 . S
C351 C350 1.400 . S
C351 C352 1.375 . S
C352 C351 1.375 . S
C352 C353 1.415 . S
C352 C354 1.501 . S
C353 H344 0.931 . S
C353 C349 1.382 . S
C353 C352 1.415 . S
C354 C352 1.501 . S
C354 C355 1.384 . S
C354 C359 1.408 . S
C355 H345 0.930 . S
C355 C354 1.384 . S
C355 C356 1.389 . S
C356 C355 1.389 . S
C356 C357 1.405 . S
C357 H346 0.930 . S
C357 C356 1.405 . S
C357 C358 1.364 . S
C358 C357 1.364 . S
C358 C359 1.400 . S
C359 H347 0.931 . S
C359 C354 1.408 . S
C359 C358 1.400 . S
H360 C366 0.930 . S
H361 C369 0.931 . S
H362 C371 0.931 . S
H363 C373 0.930 . S
H364 C375 0.930 . S
H365 C377 0.931 . S
C366 H360 0.930 . S
C366 C367 1.380 . S
C366 C368 1.394 . S
C367 C366 1.380 . S
C367 C371 1.382 . S
C368 C366 1.394 . S
C368 C369 1.400 . S
C369 H361 0.931 . S
C369 C368 1.400 . S
C369 C370 1.375 . S
C370 C369 1.375 . S
C370 C371 1.415 . S
C370 C372 1.501 . S
C371 H362 0.931 . S
C371 C367 1.382 . S
C371 C370 1.415 . S
C372 C370 1.501 . S
C372 C373 1.384 . S
C372 C377 1.408 . S
C373 H363 0.930 . S
C373 C372 1.384 . S
C373 C374 1.389 . S
C374 C373 1.389 . S
C374 C375 1.405 . S
C375 H364 0.930 . S
C375 C374 1.405 . S
C375 C376 1.364 . S
C376 C375 1.364 . S
C376 C377 1.400 . S
C377 H365 0.931 . S
C377 C372 1.408 . S
C377 C376 1.400 . S
H378 C384 0.930 . S
H379 C387 0.931 . S
H380 C389 0.931 . S
H381 C391 0.930 . S
H382 C393 0.930 . S
H383 C395 0.931 . S
C384 H378 0.930 . S
C384 C385 1.380 . S
C384 C386 1.394 . S
C385 C384 1.380 . S
C385 C389 1.382 . S
C386 C384 1.394 . S
C386 C387 1.400 . S
C387 H379 0.931 . S
C387 C386 1.400 . S
C387 C388 1.375 . S
C388 C387 1.375 . S
C388 C389 1.415 . S
C388 C390 1.501 . S
C389 H380 0.931 . S
C389 C385 1.382 . S
C389 C388 1.415 . S
C390 C388 1.501 . S
C390 C391 1.384 . S
C390 C395 1.408 . S
C391 H381 0.930 . S
C391 C390 1.384 . S
C391 C392 1.389 . S
C392 C391 1.389 . S
C392 C393 1.405 . S
C393 H382 0.930 . S
C393 C392 1.405 . S
C393 C394 1.364 . S
C394 C393 1.364 . S
C394 C395 1.400 . S
C395 H383 0.931 . S
C395 C390 1.408 . S
C395 C394 1.400 . S
H396 C402 0.930 . S
H397 C405 0.931 . S
H398 C407 0.931 . S
H399 C409 0.930 . S
H400 C411 0.930 . S
H401 C413 0.931 . S
C402 H396 0.930 . S
C402 C403 1.380 . S
C402 C404 1.394 . S
C403 C402 1.380 . S
C403 C407 1.382 . S
C404 C402 1.394 . S
C404 C405 1.400 . S
C405 H397 0.931 . S
C405 C404 1.400 . S
C405 C406 1.375 . S
C406 C405 1.375 . S
C406 C407 1.415 . S
C406 C408 1.501 . S
C407 H398 0.931 . S
C407 C403 1.382 . S
C407 C406 1.415 . S
C408 C406 1.501 . S
C408 C409 1.384 . S
C408 C413 1.408 . S
C409 H399 0.930 . S
C409 C408 1.384 . S
C409 C410 1.389 . S
C410 C409 1.389 . S
C410 C411 1.405 . S
C411 H400 0.930 . S
C411 C410 1.405 . S
C411 C412 1.364 . S
C412 C411 1.364 . S
C412 C413 1.400 . S
C413 H401 0.931 . S
C413 C408 1.408 . S
C413 C412 1.400 . S
H414 C420 0.922 . S
H415 C423 0.931 . S
H416 C425 0.931 . S
H417 C427 0.930 . S
H418 C429 0.930 . S
H419 C431 0.940 1_655 S
C420 H414 0.922 . S
C420 C421 1.387 . S
C420 C422 1.396 1_655 S
C421 C420 1.387 . S
C421 C425 1.382 . S
C422 C420 1.396 1_455 S
C422 C423 1.400 . S
C423 H415 0.931 . S
C423 C422 1.400 . S
C423 C424 1.375 . S
C424 C423 1.375 . S
C424 C425 1.415 1_455 S
C424 C426 1.501 . S
C425 H416 0.931 . S
C425 C421 1.382 . S
C425 C424 1.415 1_655 S
C426 C424 1.501 . S
C426 C427 1.384 . S
C426 C431 1.417 . S
C427 H417 0.930 . S
C427 C426 1.384 . S
C427 C428 1.389 . S
C428 C427 1.389 . S
C428 C429 1.405 . S
C429 H418 0.930 . S
C429 C428 1.405 . S
C429 C430 1.361 . S
C430 C429 1.361 . S
C430 C431 1.394 . S
C431 H419 0.940 1_455 S
C431 C426 1.417 . S
C431 C430 1.394 . S
H432 C438 0.930 . S
H433 C441 0.931 . S
H434 C443 0.931 . S
H435 C445 0.930 . S
H436 C447 0.930 . S
H437 C449 0.931 . S
C438 H432 0.930 . S
C438 C439 1.380 . S
C438 C440 1.394 . S
C439 C438 1.380 . S
C439 C443 1.382 . S
C440 C438 1.394 . S
C440 C441 1.400 . S
C441 H433 0.931 . S
C441 C440 1.400 . S
C441 C442 1.375 . S
C442 C441 1.375 . S
C442 C443 1.415 . S
C442 C444 1.501 . S
C443 H434 0.931 . S
C443 C439 1.382 . S
C443 C442 1.415 . S
C444 C442 1.501 . S
C444 C445 1.384 . S
C444 C449 1.408 . S
C445 H435 0.930 . S
C445 C444 1.384 . S
C445 C446 1.389 . S
C446 C445 1.389 . S
C446 C447 1.405 . S
C447 H436 0.930 . S
C447 C446 1.405 . S
C447 C448 1.364 . S
C448 C447 1.364 . S
C448 C449 1.400 . S
C449 H437 0.931 . S
C449 C444 1.408 . S
C449 C448 1.400 . S
H450 C456 0.941 . S
H451 C459 0.931 . S
H452 C461 0.931 . S
H453 C463 0.930 . S
H454 C465 0.930 . S
H455 C467 0.919 1_545 S
C456 H450 0.941 . S
C456 C457 1.377 . S
C456 C458 1.386 1_545 S
C457 C456 1.377 . S
C457 C461 1.382 . S
C458 C456 1.386 1_565 S
C458 C459 1.400 . S
C459 H451 0.931 . S
C459 C458 1.400 . S
C459 C460 1.375 . S
C460 C459 1.375 . S
C460 C461 1.415 1_565 S
C460 C462 1.501 . S
C461 H452 0.931 . S
C461 C457 1.382 . S
C461 C460 1.415 1_545 S
C462 C460 1.501 . S
C462 C463 1.384 . S
C462 C467 1.402 . S
C463 H453 0.930 . S
C463 C462 1.384 . S
C463 C464 1.389 . S
C464 C463 1.389 . S
C464 C465 1.405 . S
C465 H454 0.930 . S
C465 C464 1.405 . S
C465 C466 1.369 . S
C466 C465 1.369 . S
C466 C467 1.407 . S
C467 H455 0.919 1_565 S
C467 C462 1.402 . S
C467 C466 1.407 . S
H468 C474 0.913 . S
H469 C477 0.931 . S
H470 C479 0.927 1_545 S
H471 C481 0.930 . S
H472 C483 0.898 . S
H473 C485 0.931 . S
C474 H468 0.913 . S
C474 C475 1.380 . S
C474 C476 1.416 1_545 S
C475 C474 1.380 . S
C475 C479 1.399 1_545 S
C476 C474 1.416 1_565 S
C476 C477 1.374 . S
C477 H469 0.931 . S
C477 C476 1.374 . S
C477 C478 1.375 . S
C478 C477 1.375 . S
C478 C479 1.416 . S
C478 C480 1.501 . S
C479 H470 0.927 1_565 S
C479 C475 1.399 1_565 S
C479 C478 1.416 . S
C480 C478 1.501 . S
C480 C481 1.384 . S
C480 C485 1.408 1_565 S
C481 H471 0.930 . S
C481 C480 1.384 . S
C481 C482 1.389 . S
C482 C481 1.389 . S
C482 C483 1.433 . S
C483 H472 0.898 . S
C483 C482 1.433 . S
C483 C484 1.374 1_565 S
C484 C483 1.374 1_545 S
C484 C485 1.400 . S
C485 H473 0.931 . S
C485 C480 1.408 1_545 S
C485 C484 1.400 . S
H486 C492 0.953 . S
H487 C495 0.931 . S
H488 C497 0.934 1_655 S
H489 C499 0.930 . S
H490 C501 0.972 . S
H491 C503 0.931 . S
C492 H486 0.953 . S
C492 C493 1.380 . S
C492 C494 1.366 1_655 S
C493 C492 1.380 . S
C493 C497 1.364 1_655 S
C494 C492 1.366 1_455 S
C494 C495 1.436 . S
C495 H487 0.931 . S
C495 C494 1.436 . S
C495 C496 1.375 . S
C496 C495 1.375 . S
C496 C497 1.413 . S
C496 C498 1.501 . S
C497 H488 0.934 1_455 S
C497 C493 1.364 1_455 S
C497 C496 1.413 . S
C498 C496 1.501 . S
C498 C499 1.384 . S
C498 C503 1.408 1_455 S
C499 H489 0.930 . S
C499 C498 1.384 . S
C499 C500 1.389 . S
C500 C499 1.389 . S
C500 C501 1.397 . S
C501 H490 0.972 . S
C501 C500 1.397 . S
C501 C502 1.336 1_455 S
C502 C501 1.336 1_655 S
C502 C503 1.400 . S
C503 H491 0.931 . S
C503 C498 1.408 1_655 S
C503 C502 1.400 . S
H504 C510 0.930 . S
H505 C513 0.931 . S
H506 C515 0.931 . S
H507 C517 0.930 . S
H508 C519 0.930 . S
H509 C521 0.931 . S
C510 H504 0.930 . S
C510 C511 1.380 . S
C510 C512 1.394 . S
C511 C510 1.380 . S
C511 C515 1.382 . S
C512 C510 1.394 . S
C512 C513 1.400 . S
C513 H505 0.931 . S
C513 C512 1.400 . S
C513 C514 1.375 . S
C514 C513 1.375 . S
C514 C515 1.415 . S
C514 C516 1.501 . S
C515 H506 0.931 . S
C515 C511 1.382 . S
C515 C514 1.415 . S
C516 C514 1.501 . S
C516 C517 1.384 . S
C516 C521 1.408 . S
C517 H507 0.930 . S
C517 C516 1.384 . S
C517 C518 1.389 . S
C518 C517 1.389 . S
C518 C519 1.405 . S
C519 H508 0.930 . S
C519 C518 1.405 . S
C519 C520 1.364 . S
C520 C519 1.364 . S
C520 C521 1.400 . S
C521 H509 0.931 . S
C521 C516 1.408 . S
C521 C520 1.400 . S
H522 C528 0.930 . S
H523 C531 0.931 . S
H524 C533 0.931 . S
H525 C535 0.930 . S
H526 C537 0.930 . S
H527 C539 0.931 . S
C528 H522 0.930 . S
C528 C529 1.380 . S
C528 C530 1.394 . S
C529 C528 1.380 . S
C529 C533 1.382 . S
C530 C528 1.394 . S
C530 C531 1.400 . S
C531 H523 0.931 . S
C531 C530 1.400 . S
C531 C532 1.375 . S
C532 C531 1.375 . S
C532 C533 1.415 . S
C532 C534 1.501 . S
C533 H524 0.931 . S
C533 C529 1.382 . S
C533 C532 1.415 . S
C534 C532 1.501 . S
C534 C535 1.384 . S
C534 C539 1.408 . S
C535 H525 0.930 . S
C535 C534 1.384 . S
C535 C536 1.389 . S
C536 C535 1.389 . S
C536 C537 1.405 . S
C537 H526 0.930 . S
C537 C536 1.405 . S
C537 C538 1.364 . S
C538 C537 1.364 . S
C538 C539 1.400 . S
C539 H527 0.931 . S
C539 C534 1.408 . S
C539 C538 1.400 . S
H540 C546 0.930 . S
H541 C549 0.931 . S
H542 C551 0.931 . S
H543 C553 0.930 . S
H544 C555 0.930 . S
H545 C557 0.931 . S
C546 H540 0.930 . S
C546 C547 1.380 . S
C546 C548 1.394 . S
C547 C546 1.380 . S
C547 C551 1.382 . S
C548 C546 1.394 . S
C548 C549 1.400 . S
C549 H541 0.931 . S
C549 C548 1.400 . S
C549 C550 1.375 . S
C550 C549 1.375 . S
C550 C551 1.415 . S
C550 C552 1.501 . S
C551 H542 0.931 . S
C551 C547 1.382 . S
C551 C550 1.415 . S
C552 C550 1.501 . S
C552 C553 1.384 . S
C552 C557 1.408 . S
C553 H543 0.930 . S
C553 C552 1.384 . S
C553 C554 1.389 . S
C554 C553 1.389 . S
C554 C555 1.405 . S
C555 H544 0.930 . S
C555 C554 1.405 . S
C555 C556 1.364 . S
C556 C555 1.364 . S
C556 C557 1.400 . S
C557 H545 0.931 . S
C557 C552 1.408 . S
C557 C556 1.400 . S
H558 C564 0.930 . S
H559 C567 0.931 . S
H560 C569 0.931 . S
H561 C571 0.930 . S
H562 C573 0.930 . S
H563 C575 0.931 . S
C564 H558 0.930 . S
C564 C565 1.380 . S
C564 C566 1.394 . S
C565 C564 1.380 . S
C565 C569 1.382 . S
C566 C564 1.394 . S
C566 C567 1.400 . S
C567 H559 0.931 . S
C567 C566 1.400 . S
C567 C568 1.375 . S
C568 C567 1.375 . S
C568 C569 1.415 . S
C568 C570 1.501 . S
C569 H560 0.931 . S
C569 C565 1.382 . S
C569 C568 1.415 . S
C570 C568 1.501 . S
C570 C571 1.384 . S
C570 C575 1.408 . S
C571 H561 0.930 . S
C571 C570 1.384 . S
C571 C572 1.389 . S
C572 C571 1.389 . S
C572 C573 1.405 . S
C573 H562 0.930 . S
C573 C572 1.405 . S
C573 C574 1.364 . S
C574 C573 1.364 . S
C574 C575 1.400 . S
C575 H563 0.931 . S
C575 C570 1.408 . S
C575 C574 1.400 . S
H576 C594 0.951 . S
H577 C596 0.951 . S
H578 C598 0.950 . S
H579 C599 0.950 . S
H580 C601 0.991 . S
H581 C604 0.950 . S
H582 C605 0.950 . S
H583 C607 0.950 . S
H584 C608 0.950 . S
H585 C609 0.951 . S
H586 C611 0.951 . S
H587 C613 0.950 . S
H588 C614 0.950 . S
H589 C616 0.950 . S
H590 C619 0.950 . S
H591 C620 0.950 . S
H592 C622 0.950 . S
H593 C623 0.950 . S
C594 H576 0.951 . S
C594 C595 1.324 1_655 S
C594 C596 1.388 . S
C595 C594 1.324 1_455 S
C595 C599 1.408 . S
C596 H577 0.951 . S
C596 C594 1.388 . S
C596 C597 1.360 1_655 S
C597 C596 1.360 1_455 S
C597 C598 1.423 . S
C597 C600 1.494 . S
C598 H578 0.950 . S
C598 C597 1.423 . S
C598 C599 1.374 . S
C599 H579 0.950 . S
C599 C595 1.408 . S
C599 C598 1.374 . S
C600 C597 1.494 . S
C600 C601 1.373 1_455 S
C600 C602 1.391 1_455 S
C601 H580 0.991 . S
C601 C600 1.373 1_655 S
C601 C617 1.377 . S
C602 C600 1.391 1_655 S
C602 C603 1.524 1_655 S
C602 C616 1.376 . S
C603 C602 1.524 1_455 S
C603 C604 1.397 . S
C603 C608 1.363 1_455 S
C604 H581 0.950 . S
C604 C603 1.397 . S
C604 C605 1.334 . S
C605 H582 0.950 . S
C605 C604 1.334 . S
C605 C606 1.287 . S
C606 C605 1.287 . S
C606 C607 1.524 1_455 S
C606 H625 0.913 . S
C607 H583 0.950 . S
C607 C606 1.524 1_655 S
C607 C608 1.415 . S
C608 H584 0.950 . S
C608 C603 1.363 1_655 S
C608 C607 1.415 . S
C609 H585 0.951 . S
C609 C610 1.366 1_455 S
C609 C611 1.388 . S
C610 C609 1.366 1_655 S
C610 C614 1.385 . S
C611 H586 0.951 . S
C611 C609 1.388 . S
C611 C612 1.366 1_455 S
C612 C611 1.366 1_655 S
C612 C613 1.414 . S
C612 C615 1.499 . S
C613 H587 0.950 . S
C613 C612 1.414 . S
C613 C614 1.374 . S
C614 H588 0.950 . S
C614 C610 1.385 . S
C614 C613 1.374 . S
C615 C612 1.499 . S
C615 C616 1.373 . S
C615 C617 1.389 . S
C616 H589 0.950 . S
C616 C602 1.376 . S
C616 C615 1.373 . S
C617 C601 1.377 . S
C617 C615 1.389 . S
C617 C618 1.524 . S
C618 C617 1.524 . S
C618 C619 1.397 . S
C618 C623 1.363 1_655 S
C619 H590 0.950 . S
C619 C618 1.397 . S
C619 C620 1.334 . S
C620 H591 0.950 . S
C620 C619 1.334 . S
C620 C621 1.287 . S
C621 C620 1.287 . S
C621 C622 1.524 1_655 S
C621 H624 0.999 . S
C622 H592 0.950 . S
C622 C621 1.524 1_455 S
C622 C623 1.415 . S
C623 H593 0.950 . S
C623 C618 1.363 1_455 S
C623 C622 1.415 . S
H624 C621 0.999 . S
H625 C606 0.913 . S
H626 C644 0.951 . S
H627 C646 0.951 . S
H628 C648 0.950 . S
H629 C649 0.950 . S
H630 C651 0.950 . S
H631 C654 0.950 . S
H632 C655 0.950 . S
H633 C657 0.950 . S
H634 C658 0.950 . S
H635 C659 0.951 . S
H636 C661 0.951 . S
H637 C663 0.950 . S
H638 C664 0.950 . S
H639 C666 0.950 . S
H640 C669 0.950 . S
H641 C670 0.950 . S
H642 C672 0.950 . S
H643 C673 0.950 . S
C644 H626 0.951 . S
C644 C645 1.366 . S
C644 C646 1.388 . S
C645 C644 1.366 . S
C645 C649 1.385 . S
C646 H627 0.951 . S
C646 C644 1.388 . S
C646 C647 1.366 . S
C647 C646 1.366 . S
C647 C648 1.414 . S
C647 C650 1.499 . S
C648 H628 0.950 . S
C648 C647 1.414 . S
C648 C649 1.374 . S
C649 H629 0.950 . S
C649 C645 1.385 . S
C649 C648 1.374 . S
C650 C647 1.499 . S
C650 C651 1.373 . S
C650 C652 1.389 . S
C651 H630 0.950 . S
C651 C650 1.373 . S
C651 C667 1.377 . S
C652 C650 1.389 . S
C652 C653 1.524 . S
C652 C666 1.377 . S
C653 C652 1.524 . S
C653 C654 1.397 . S
C653 C658 1.363 . S
C654 H631 0.950 . S
C654 C653 1.397 . S
C654 C655 1.334 . S
C655 H632 0.950 . S
C655 C654 1.334 . S
C655 C656 1.287 . S
C656 C655 1.287 . S
C656 C657 1.524 . S
C656 H675 0.913 . S
C657 H633 0.950 . S
C657 C656 1.524 . S
C657 C658 1.415 . S
C658 H634 0.950 . S
C658 C653 1.363 . S
C658 C657 1.415 . S
C659 H635 0.951 . S
C659 C660 1.366 . S
C659 C661 1.388 . S
C660 C659 1.366 . S
C660 C664 1.385 . S
C661 H636 0.951 . S
C661 C659 1.388 . S
C661 C662 1.366 . S
C662 C661 1.366 . S
C662 C663 1.414 . S
C662 C665 1.499 . S
C663 H637 0.950 . S
C663 C662 1.414 . S
C663 C664 1.374 . S
C664 H638 0.950 . S
C664 C660 1.385 . S
C664 C663 1.374 . S
C665 C662 1.499 . S
C665 C666 1.373 . S
C665 C667 1.389 . S
C666 H639 0.950 . S
C666 C652 1.377 . S
C666 C665 1.373 . S
C667 C651 1.377 . S
C667 C665 1.389 . S
C667 C668 1.524 . S
C668 C667 1.524 . S
C668 C669 1.397 . S
C668 C673 1.363 . S
C669 H640 0.950 . S
C669 C668 1.397 . S
C669 C670 1.334 . S
C670 H641 0.950 . S
C670 C669 1.334 . S
C670 C671 1.287 . S
C671 C670 1.287 . S
C671 C672 1.524 . S
C671 H674 0.999 . S
C672 H642 0.950 . S
C672 C671 1.524 . S
C672 C673 1.415 . S
C673 H643 0.950 . S
C673 C668 1.363 . S
C673 C672 1.415 . S
H674 C671 0.999 . S
H675 C656 0.913 . S
H676 C694 0.953 . S
H677 C696 0.923 . S
H678 C698 0.950 . S
H679 C699 0.950 . S
H680 C701 0.950 . S
H681 C704 0.950 . S
H682 C705 0.950 . S
H683 C707 0.950 . S
H684 C708 0.950 . S
H685 C709 0.951 . S
H686 C711 0.951 . S
H687 C713 0.950 . S
H688 C714 0.950 . S
H689 C716 0.950 . S
H690 C719 0.950 . S
H691 C720 0.950 . S
H692 C722 0.950 . S
H693 C723 0.950 . S
C694 H676 0.953 . S
C694 C695 1.407 1_545 S
C694 C696 1.391 . S
C695 C694 1.407 1_565 S
C695 C699 1.385 . S
C696 H677 0.923 . S
C696 C694 1.391 . S
C696 C697 1.368 1_545 S
C697 C696 1.368 1_565 S
C697 C698 1.405 . S
C697 C700 1.505 1_565 S
C698 H678 0.950 . S
C698 C697 1.405 . S
C698 C699 1.374 . S
C699 H679 0.950 . S
C699 C695 1.385 . S
C699 C698 1.374 . S
C700 C697 1.505 1_545 S
C700 C701 1.371 . S
C700 C702 1.394 1_545 S
C701 H680 0.950 . S
C701 C700 1.371 . S
C701 C717 1.377 . S
C702 C700 1.394 1_565 S
C702 C703 1.524 . S
C702 C716 1.377 . S
C703 C702 1.524 . S
C703 C704 1.397 . S
C703 C708 1.363 . S
C704 H681 0.950 . S
C704 C703 1.397 . S
C704 C705 1.334 . S
C705 H682 0.950 . S
C705 C704 1.334 . S
C705 C706 1.287 . S
C706 C705 1.287 . S
C706 C707 1.524 . S
C706 H725 0.913 . S
C707 H683 0.950 . S
C707 C706 1.524 . S
C707 C708 1.415 . S
C708 H684 0.950 . S
C708 C703 1.363 . S
C708 C707 1.415 . S
C709 H685 0.951 . S
C709 C710 1.366 . S
C709 C711 1.388 . S
C710 C709 1.366 . S
C710 C714 1.385 . S
C711 H686 0.951 . S
C711 C709 1.388 . S
C711 C712 1.366 . S
C712 C711 1.366 . S
C712 C713 1.414 . S
C712 C715 1.499 . S
C713 H687 0.950 . S
C713 C712 1.414 . S
C713 C714 1.374 . S
C714 H688 0.950 . S
C714 C710 1.385 . S
C714 C713 1.374 . S
C715 C712 1.499 . S
C715 C716 1.373 1_545 S
C715 C717 1.389 . S
C716 H689 0.950 . S
C716 C702 1.377 . S
C716 C715 1.373 1_565 S
C717 C701 1.377 . S
C717 C715 1.389 . S
C717 C718 1.524 . S
C718 C717 1.524 . S
C718 C719 1.397 . S
C718 C723 1.363 . S
C719 H690 0.950 . S
C719 C718 1.397 . S
C719 C720 1.334 . S
C720 H691 0.950 . S
C720 C719 1.334 . S
C720 C721 1.287 . S
C721 C720 1.287 . S
C721 C722 1.524 . S
C721 H724 0.999 . S
C722 H692 0.950 . S
C722 C721 1.524 . S
C722 C723 1.415 . S
C723 H693 0.950 . S
C723 C718 1.363 . S
C723 C722 1.415 . S
H724 C721 0.999 . S
H725 C706 0.913 . S
H726 C744 0.952 . S
H727 C746 0.951 . S
H728 C748 0.952 1_565 S
H729 C749 0.949 . S
H730 C751 0.950 . S
H731 C754 0.950 . S
H732 C755 0.950 . S
H733 C757 0.950 . S
H734 C758 0.950 . S
H735 C759 0.951 . S
H736 C761 0.951 . S
H737 C763 0.950 . S
H738 C764 0.950 . S
H739 C766 0.950 . S
H740 C769 0.950 . S
H741 C770 0.950 . S
H742 C772 0.950 . S
H743 C773 0.950 . S
C744 H726 0.952 . S
C744 C745 1.369 . S
C744 C746 1.384 . S
C745 C744 1.369 . S
C745 C749 1.386 . S
C746 H727 0.951 . S
C746 C744 1.384 . S
C746 C747 1.366 . S
C747 C746 1.366 . S
C747 C748 1.431 . S
C747 C750 1.489 1_545 S
C748 H728 0.952 1_545 S
C748 C747 1.431 . S
C748 C749 1.364 . S
C749 H729 0.949 . S
C749 C745 1.386 . S
C749 C748 1.364 . S
C750 C747 1.489 1_565 S
C750 C751 1.370 . S
C750 C752 1.390 1_565 S
C751 H730 0.950 . S
C751 C750 1.370 . S
C751 C767 1.377 . S
C752 C750 1.390 1_545 S
C752 C753 1.524 . S
C752 C766 1.377 . S
C753 C752 1.524 . S
C753 C754 1.397 . S
C753 C758 1.363 . S
C754 H731 0.950 . S
C754 C753 1.397 . S
C754 C755 1.334 . S
C755 H732 0.950 . S
C755 C754 1.334 . S
C755 C756 1.287 . S
C756 C755 1.287 . S
C756 C757 1.524 . S
C756 H775 0.913 . S
C757 H733 0.950 . S
C757 C756 1.524 . S
C757 C758 1.415 . S
C758 H734 0.950 . S
C758 C753 1.363 . S
C758 C757 1.415 . S
C759 H735 0.951 . S
C759 C760 1.366 . S
C759 C761 1.388 . S
C760 C759 1.366 . S
C760 C764 1.385 . S
C761 H736 0.951 . S
C761 C759 1.388 . S
C761 C762 1.366 . S
C762 C761 1.366 . S
C762 C763 1.414 . S
C762 C765 1.499 . S
C763 H737 0.950 . S
C763 C762 1.414 . S
C763 C764 1.374 . S
C764 H738 0.950 . S
C764 C760 1.385 . S
C764 C763 1.374 . S
C765 C762 1.499 . S
C765 C766 1.373 1_565 S
C765 C767 1.389 . S
C766 H739 0.950 . S
C766 C752 1.377 . S
C766 C765 1.373 1_545 S
C767 C751 1.377 . S
C767 C765 1.389 . S
C767 C768 1.524 . S
C768 C767 1.524 . S
C768 C769 1.397 . S
C768 C773 1.363 . S
C769 H740 0.950 . S
C769 C768 1.397 . S
C769 C770 1.334 . S
C770 H741 0.950 . S
C770 C769 1.334 . S
C770 C771 1.287 . S
C771 C770 1.287 . S
C771 C772 1.524 . S
C771 H774 0.999 . S
C772 H742 0.950 . S
C772 C771 1.524 . S
C772 C773 1.415 . S
C773 H743 0.950 . S
C773 C768 1.363 . S
C773 C772 1.415 . S
H774 C771 0.999 . S
H775 C756 0.913 . S
H776 C794 0.951 . S
H777 C796 0.951 . S
H778 C798 0.950 . S
H779 C799 0.950 . S
H780 C801 0.950 . S
H781 C804 0.950 . S
H782 C805 0.950 . S
H783 C807 0.950 . S
H784 C808 0.950 . S
H785 C809 0.951 . S
H786 C811 0.951 . S
H787 C813 0.950 . S
H788 C814 0.950 . S
H789 C816 0.950 . S
H790 C819 0.950 . S
H791 C820 0.950 . S
H792 C822 0.950 . S
H793 C823 0.950 . S
C794 H776 0.951 . S
C794 C795 1.355 1_455 S
C794 C796 1.388 . S
C795 C794 1.355 1_655 S
C795 C799 1.403 . S
C796 H777 0.951 . S
C796 C794 1.388 . S
C796 C797 1.452 . S
C797 C796 1.452 . S
C797 C798 1.363 1_455 S
C797 C800 1.465 . S
C798 H778 0.950 . S
C798 C797 1.363 1_655 S
C798 C799 1.374 . S
C799 H779 0.950 . S
C799 C795 1.403 . S
C799 C798 1.374 . S
C800 C797 1.465 . S
C800 C801 1.373 1_455 S
C800 C802 1.389 . S
C801 H780 0.950 . S
C801 C800 1.373 1_655 S
C801 C817 1.377 . S
C802 C800 1.389 . S
C802 C803 1.524 . S
C802 C816 1.377 . S
C803 C802 1.524 . S
C803 C804 1.397 . S
C803 C808 1.363 . S
C804 H781 0.950 . S
C804 C803 1.397 . S
C804 C805 1.334 . S
C805 H782 0.950 . S
C805 C804 1.334 . S
C805 C806 1.287 . S
C806 C805 1.287 . S
C806 C807 1.524 . S
C806 H825 0.913 . S
C807 H783 0.950 . S
C807 C806 1.524 . S
C807 C808 1.415 . S
C808 H784 0.950 . S
C808 C803 1.363 . S
C808 C807 1.415 . S
C809 H785 0.951 . S
C809 C810 1.366 1_655 S
C809 C811 1.388 . S
C810 C809 1.366 1_455 S
C810 C814 1.385 . S
C811 H786 0.951 . S
C811 C809 1.388 . S
C811 C812 1.366 1_655 S
C812 C811 1.366 1_455 S
C812 C813 1.414 . S
C812 C815 1.499 . S
C813 H787 0.950 . S
C813 C812 1.414 . S
C813 C814 1.374 . S
C814 H788 0.950 . S
C814 C810 1.385 . S
C814 C813 1.374 . S
C815 C812 1.499 . S
C815 C816 1.373 . S
C815 C817 1.389 1_455 S
C816 H789 0.950 . S
C816 C802 1.377 . S
C816 C815 1.373 . S
C817 C801 1.377 . S
C817 C815 1.389 1_655 S
C817 C818 1.524 . S
C818 C817 1.524 . S
C818 C819 1.397 . S
C818 C823 1.363 . S
C819 H790 0.950 . S
C819 C818 1.397 . S
C819 C820 1.334 . S
C820 H791 0.950 . S
C820 C819 1.334 . S
C820 C821 1.287 . S
C821 C820 1.287 . S
C821 C822 1.524 . S
C821 H824 0.999 . S
C822 H792 0.950 . S
C822 C821 1.524 . S
C822 C823 1.415 . S
C823 H793 0.950 . S
C823 C818 1.363 . S
C823 C822 1.415 . S
H824 C821 0.999 . S
H825 C806 0.913 . S
H826 C844 0.951 . S
H827 C846 0.951 . S
H828 C848 0.950 . S
H829 C849 0.950 . S
H830 C851 0.950 . S
H831 C854 0.950 . S
H832 C855 0.950 1_554 S
H833 C857 0.950 . S
H834 C858 0.950 . S
H835 C859 0.951 . S
H836 C861 0.951 . S
H837 C863 0.950 . S
H838 C864 0.950 . S
H839 C866 0.950 . S
H840 C869 0.950 . S
H841 C870 0.950 . S
H842 C872 0.950 . S
H843 C873 0.950 . S
C844 H826 0.951 . S
C844 C845 1.366 . S
C844 C846 1.388 . S
C845 C844 1.366 . S
C845 C849 1.385 . S
C846 H827 0.951 . S
C846 C844 1.388 . S
C846 C847 1.366 . S
C847 C846 1.366 . S
C847 C848 1.414 . S
C847 C850 1.499 . S
C848 H828 0.950 . S
C848 C847 1.414 . S
C848 C849 1.374 . S
C849 H829 0.950 . S
C849 C845 1.385 . S
C849 C848 1.374 . S
C850 C847 1.499 . S
C850 C851 1.373 . S
C850 C852 1.389 . S
C851 H830 0.950 . S
C851 C850 1.373 . S
C851 C867 1.377 . S
C852 C850 1.389 . S
C852 C853 1.524 . S
C852 C866 1.377 . S
C853 C852 1.524 . S
C853 C854 1.397 . S
C853 C858 1.363 . S
C854 H831 0.950 . S
C854 C853 1.397 . S
C854 C855 1.334 . S
C855 H832 0.950 1_556 S
C855 C854 1.334 . S
C855 C856 1.287 . S
C856 C855 1.287 . S
C856 C857 1.525 . S
C856 H875 0.911 1_556 S
C857 H833 0.950 . S
C857 C856 1.525 . S
C857 C858 1.415 . S
C858 H834 0.950 . S
C858 C853 1.363 . S
C858 C857 1.415 . S
C859 H835 0.951 . S
C859 C860 1.366 . S
C859 C861 1.388 . S
C860 C859 1.366 . S
C860 C864 1.385 . S
C861 H836 0.951 . S
C861 C859 1.388 . S
C861 C862 1.366 . S
C862 C861 1.366 . S
C862 C863 1.414 . S
C862 C865 1.499 . S
C863 H837 0.950 . S
C863 C862 1.414 . S
C863 C864 1.374 . S
C864 H838 0.950 . S
C864 C860 1.385 . S
C864 C863 1.374 . S
C865 C862 1.499 . S
C865 C866 1.373 . S
C865 C867 1.389 . S
C866 H839 0.950 . S
C866 C852 1.377 . S
C866 C865 1.373 . S
C867 C851 1.377 . S
C867 C865 1.389 . S
C867 C868 1.524 . S
C868 C867 1.524 . S
C868 C869 1.397 . S
C868 C873 1.363 . S
C869 H840 0.950 . S
C869 C868 1.397 . S
C869 C870 1.334 . S
C870 H841 0.950 . S
C870 C869 1.334 . S
C870 C871 1.287 . S
C871 C870 1.287 . S
C871 C872 1.524 . S
C871 H874 0.999 . S
C872 H842 0.950 . S
C872 C871 1.524 . S
C872 C873 1.415 . S
C873 H843 0.950 . S
C873 C868 1.363 . S
C873 C872 1.415 . S
H874 C871 0.999 . S
H875 C856 0.911 1_554 S
H876 C894 0.951 . S
H877 C896 0.951 . S
H878 C898 0.950 . S
H879 C899 0.950 . S
H880 C901 0.950 . S
H881 C904 0.950 . S
H882 C905 0.950 . S
H883 C907 0.950 . S
H884 C908 0.950 . S
H885 C909 0.951 . S
H886 C911 0.951 . S
H887 C913 0.950 . S
H888 C914 0.950 . S
H889 C916 0.950 . S
H890 C919 0.950 . S
H891 C920 0.950 . S
H892 C922 0.950 . S
H893 C923 0.950 . S
C894 H876 0.951 . S
C894 C895 1.380 . S
C894 C896 1.388 . S
C895 C894 1.380 . S
C895 C899 1.353 1_655 S
C896 H877 0.951 . S
C896 C894 1.388 . S
C896 C897 1.366 . S
C897 C896 1.366 . S
C897 C898 1.414 1_655 S
C897 C900 1.499 . S
C898 H878 0.950 . S
C898 C897 1.414 1_455 S
C898 C899 1.374 . S
C899 H879 0.950 . S
C899 C895 1.353 1_455 S
C899 C898 1.374 . S
C900 C897 1.499 . S
C900 C901 1.373 1_655 S
C900 C902 1.389 . S
C901 H880 0.950 . S
C901 C900 1.373 1_455 S
C901 C917 1.377 . S
C902 C900 1.389 . S
C902 C903 1.524 . S
C902 C916 1.377 . S
C903 C902 1.524 . S
C903 C904 1.397 . S
C903 C908 1.363 . S
C904 H881 0.950 . S
C904 C903 1.397 . S
C904 C905 1.334 . S
C905 H882 0.950 . S
C905 C904 1.334 . S
C905 C906 1.287 . S
C906 C905 1.287 . S
C906 C907 1.524 . S
C906 H925 0.913 . S
C907 H883 0.950 . S
C907 C906 1.524 . S
C907 C908 1.415 . S
C908 H884 0.950 . S
C908 C903 1.363 . S
C908 C907 1.415 . S
C909 H885 0.951 . S
C909 C910 1.351 1_455 S
C909 C911 1.388 . S
C910 C909 1.351 1_655 S
C910 C914 1.421 . S
C911 H886 0.951 . S
C911 C909 1.388 . S
C911 C912 1.370 . S
C912 C911 1.370 . S
C912 C913 1.412 1_455 S
C912 C915 1.495 . S
C913 H887 0.950 . S
C913 C912 1.412 1_655 S
C913 C914 1.374 . S
C914 H888 0.950 . S
C914 C910 1.421 . S
C914 C913 1.374 . S
C915 C912 1.495 . S
C915 C916 1.377 1_455 S
C915 C917 1.387 . S
C916 H889 0.950 . S
C916 C902 1.377 . S
C916 C915 1.377 1_655 S
C917 C901 1.377 . S
C917 C915 1.387 . S
C917 C918 1.524 . S
C918 C917 1.524 . S
C918 C919 1.397 . S
C918 C923 1.363 . S
C919 H890 0.950 . S
C919 C918 1.397 . S
C919 C920 1.334 . S
C920 H891 0.950 . S
C920 C919 1.334 . S
C920 C921 1.287 . S
C921 C920 1.287 . S
C921 C922 1.524 . S
C921 H924 0.999 . S
C922 H892 0.950 . S
C922 C921 1.524 . S
C922 C923 1.415 . S
C923 H893 0.950 . S
C923 C918 1.363 . S
C923 C922 1.415 . S
H924 C921 0.999 . S
H925 C906 0.913 . S
H926 C944 0.951 . S
H927 C946 0.951 . S
H928 C948 0.950 . S
H929 C949 0.950 . S
H930 C951 0.950 . S
H931 C954 0.950 . S
H932 C955 0.950 1_554 S
H933 C957 0.950 . S
H934 C958 0.950 . S
H935 C959 0.951 . S
H936 C961 0.951 . S
H937 C963 0.950 . S
H938 C964 0.950 . S
H939 C966 0.950 . S
H940 C969 0.950 . S
H941 C970 0.950 . S
H942 C972 0.950 . S
H943 C973 0.950 . S
C944 H926 0.951 . S
C944 C945 1.366 . S
C944 C946 1.388 . S
C945 C944 1.366 . S
C945 C949 1.385 . S
C946 H927 0.951 . S
C946 C944 1.388 . S
C946 C947 1.366 . S
C947 C946 1.366 . S
C947 C948 1.414 . S
C947 C950 1.499 . S
C948 H928 0.950 . S
C948 C947 1.414 . S
C948 C949 1.374 . S
C949 H929 0.950 . S
C949 C945 1.385 . S
C949 C948 1.374 . S
C950 C947 1.499 . S
C950 C951 1.373 . S
C950 C952 1.389 . S
C951 H930 0.950 . S
C951 C950 1.373 . S
C951 C967 1.377 . S
C952 C950 1.389 . S
C952 C953 1.524 . S
C952 C966 1.377 . S
C953 C952 1.524 . S
C953 C954 1.397 . S
C953 C958 1.363 . S
C954 H931 0.950 . S
C954 C953 1.397 . S
C954 C955 1.334 . S
C955 H932 0.950 1_556 S
C955 C954 1.334 . S
C955 C956 1.287 1_556 S
C956 C955 1.287 1_554 S
C956 C957 1.524 1_554 S
C956 H975 0.913 . S
C957 H933 0.950 . S
C957 C956 1.524 1_556 S
C957 C958 1.415 . S
C958 H934 0.950 . S
C958 C953 1.363 . S
C958 C957 1.415 . S
C959 H935 0.951 . S
C959 C960 1.366 . S
C959 C961 1.388 . S
C960 C959 1.366 . S
C960 C964 1.385 . S
C961 H936 0.951 . S
C961 C959 1.388 . S
C961 C962 1.366 . S
C962 C961 1.366 . S
C962 C963 1.414 . S
C962 C965 1.499 . S
C963 H937 0.950 . S
C963 C962 1.414 . S
C963 C964 1.374 . S
C964 H938 0.950 . S
C964 C960 1.385 . S
C964 C963 1.374 . S
C965 C962 1.499 . S
C965 C966 1.373 . S
C965 C967 1.389 . S
C966 H939 0.950 . S
C966 C952 1.377 . S
C966 C965 1.373 . S
C967 C951 1.377 . S
C967 C965 1.389 . S
C967 C968 1.524 . S
C968 C967 1.524 . S
C968 C969 1.397 . S
C968 C973 1.363 . S
C969 H940 0.950 . S
C969 C968 1.397 . S
C969 C970 1.334 . S
C970 H941 0.950 . S
C970 C969 1.334 . S
C970 C971 1.287 . S
C971 C970 1.287 . S
C971 C972 1.524 . S
C971 H974 0.999 . S
C972 H942 0.950 . S
C972 C971 1.524 . S
C972 C973 1.415 . S
C973 H943 0.950 . S
C973 C968 1.363 . S
C973 C972 1.415 . S
H974 C971 0.999 . S
H975 C956 0.913 . S
H976 C994 0.951 . S
H977 C996 0.963 . S
H978 C998 0.950 . S
H979 C999 0.950 . S
H980 C1001 0.950 . S
H981 C1004 0.950 . S
H982 C1005 0.950 . S
H983 C1007 0.950 . S
H984 C1008 0.950 . S
H985 C1009 0.951 . S
H986 C1011 0.951 . S
H987 C1013 0.950 . S
H988 C1014 0.950 . S
H989 C1016 0.950 . S
H990 C1019 0.950 . S
H991 C1020 0.950 . S
H992 C1022 0.950 . S
H993 C1023 0.950 . S
C994 H976 0.951 . S
C994 C995 1.357 1_565 S
C994 C996 1.414 . S
C995 C994 1.357 1_545 S
C995 C999 1.424 . S
C996 H977 0.963 . S
C996 C994 1.414 . S
C996 C997 1.331 1_565 S
C997 C996 1.331 1_545 S
C997 C998 1.414 . S
C997 C1000 1.499 . S
C998 H978 0.950 . S
C998 C997 1.414 . S
C998 C999 1.374 . S
C999 H979 0.950 . S
C999 C995 1.424 . S
C999 C998 1.374 . S
C1000 C997 1.499 . S
C1000 C1001 1.373 1_545 S
C1000 C1002 1.389 . S
C1001 H980 0.950 . S
C1001 C1000 1.373 1_565 S
C1001 C1017 1.377 . S
C1002 C1000 1.389 . S
C1002 C1003 1.524 . S
C1002 C1016 1.377 . S
C1003 C1002 1.524 . S
C1003 C1004 1.397 . S
C1003 C1008 1.363 . S
C1004 H981 0.950 . S
C1004 C1003 1.397 . S
C1004 C1005 1.334 . S
C1005 H982 0.950 . S
C1005 C1004 1.334 . S
C1005 C1006 1.287 . S
C1006 C1005 1.287 . S
C1006 C1007 1.524 . S
C1006 H1025 0.913 . S
C1007 H983 0.950 . S
C1007 C1006 1.524 . S
C1007 C1008 1.415 . S
C1008 H984 0.950 . S
C1008 C1003 1.363 . S
C1008 C1007 1.415 . S
C1009 H985 0.951 . S
C1009 C1010 1.379 . S
C1009 C1011 1.388 . S
C1010 C1009 1.379 . S
C1010 C1014 1.344 1_545 S
C1011 H986 0.951 . S
C1011 C1009 1.388 . S
C1011 C1012 1.370 1_545 S
C1012 C1011 1.370 1_565 S
C1012 C1013 1.413 . S
C1012 C1015 1.493 . S
C1013 H987 0.950 . S
C1013 C1012 1.413 . S
C1013 C1014 1.374 . S
C1014 H988 0.950 . S
C1014 C1010 1.344 1_565 S
C1014 C1013 1.374 . S
C1015 C1012 1.493 . S
C1015 C1016 1.373 1_565 S
C1015 C1017 1.392 . S
C1016 H989 0.950 . S
C1016 C1002 1.377 . S
C1016 C1015 1.373 1_545 S
C1017 C1001 1.377 . S
C1017 C1015 1.392 . S
C1017 C1018 1.524 . S
C1018 C1017 1.524 . S
C1018 C1019 1.397 . S
C1018 C1023 1.363 . S
C1019 H990 0.950 . S
C1019 C1018 1.397 . S
C1019 C1020 1.334 . S
C1020 H991 0.950 . S
C1020 C1019 1.334 . S
C1020 C1021 1.287 . S
C1021 C1020 1.287 . S
C1021 C1022 1.524 . S
C1021 H1024 0.999 . S
C1022 H992 0.950 . S
C1022 C1021 1.524 . S
C1022 C1023 1.415 . S
C1023 H993 0.950 . S
C1023 C1018 1.363 . S
C1023 C1022 1.415 . S
H1024 C1021 0.999 . S
H1025 C1006 0.913 . S
H1026 C1044 0.951 . S
H1027 C1046 0.951 . S
H1028 C1048 0.950 . S
H1029 C1049 0.950 . S
H1030 C1051 0.950 . S
H1031 C1054 0.950 . S
H1032 C1055 0.950 . S
H1033 C1057 0.950 . S
H1034 C1058 0.950 . S
H1035 C1059 0.951 . S
H1036 C1061 0.951 . S
H1037 C1063 0.950 . S
H1038 C1064 0.950 . S
H1039 C1066 0.950 . S
H1040 C1069 0.950 . S
H1041 C1070 0.950 . S
H1042 C1072 0.950 . S
H1043 C1073 0.950 . S
C1044 H1026 0.951 . S
C1044 C1045 1.379 . S
C1044 C1046 1.388 . S
C1045 C1044 1.379 . S
C1045 C1049 1.353 1_565 S
C1046 H1027 0.951 . S
C1046 C1044 1.388 . S
C1046 C1047 1.364 . S
C1047 C1046 1.364 . S
C1047 C1048 1.414 1_565 S
C1047 C1050 1.490 1_565 S
C1048 H1028 0.950 . S
C1048 C1047 1.414 1_545 S
C1048 C1049 1.374 . S
C1049 H1029 0.950 . S
C1049 C1045 1.353 1_545 S
C1049 C1048 1.374 . S
C1050 C1047 1.490 1_545 S
C1050 C1051 1.374 . S
C1050 C1052 1.397 1_545 S
C1051 H1030 0.950 . S
C1051 C1050 1.374 . S
C1051 C1067 1.377 . S
C1052 C1050 1.397 1_565 S
C1052 C1053 1.524 . S
C1052 C1066 1.377 . S
C1053 C1052 1.524 . S
C1053 C1054 1.397 1_565 S
C1053 C1058 1.363 . S
C1054 H1031 0.950 . S
C1054 C1053 1.397 1_545 S
C1054 C1055 1.334 . S
C1055 H1032 0.950 . S
C1055 C1054 1.334 . S
C1055 C1056 1.272 1_545 S
C1056 C1055 1.272 1_565 S
C1056 C1057 1.550 . S
C1056 H1075 0.912 . S
C1057 H1033 0.950 . S
C1057 C1056 1.550 . S
C1057 C1058 1.415 . S
C1058 H1034 0.950 . S
C1058 C1053 1.363 . S
C1058 C1057 1.415 . S
C1059 H1035 0.951 . S
C1059 C1060 1.353 1_545 S
C1059 C1061 1.388 . S
C1060 C1059 1.353 1_565 S
C1060 C1064 1.419 . S
C1061 H1036 0.951 . S
C1061 C1059 1.388 . S
C1061 C1062 1.366 1_545 S
C1062 C1061 1.366 1_565 S
C1062 C1063 1.414 . S
C1062 C1065 1.499 . S
C1063 H1037 0.950 . S
C1063 C1062 1.414 . S
C1063 C1064 1.374 . S
C1064 H1038 0.950 . S
C1064 C1060 1.419 . S
C1064 C1063 1.374 . S
C1065 C1062 1.499 . S
C1065 C1066 1.373 . S
C1065 C1067 1.389 1_565 S
C1066 H1039 0.950 . S
C1066 C1052 1.377 . S
C1066 C1065 1.373 . S
C1067 C1051 1.377 . S
C1067 C1065 1.389 1_545 S
C1067 C1068 1.524 . S
C1068 C1067 1.524 . S
C1068 C1069 1.397 1_545 S
C1068 C1073 1.363 . S
C1069 H1040 0.950 . S
C1069 C1068 1.397 1_565 S
C1069 C1070 1.334 . S
C1070 H1041 0.950 . S
C1070 C1069 1.334 . S
C1070 C1071 1.302 . S
C1071 C1070 1.302 . S
C1071 C1072 1.501 1_565 S
C1071 H1074 1.002 . S
C1072 H1042 0.950 . S
C1072 C1071 1.501 1_545 S
C1072 C1073 1.415 . S
C1073 H1043 0.950 . S
C1073 C1068 1.363 . S
C1073 C1072 1.415 . S
H1074 C1071 1.002 . S
H1075 C1056 0.912 . S
H1076 C1094 0.951 . S
H1077 C1096 0.951 . S
H1078 C1098 0.950 . S
H1079 C1099 0.950 . S
H1080 C1101 0.961 . S
H1081 C1104 0.950 . S
H1082 C1105 0.950 . S
H1083 C1107 0.950 . S
H1084 C1108 0.950 . S
H1085 C1109 0.951 . S
H1086 C1111 0.951 . S
H1087 C1113 0.950 . S
H1088 C1114 0.950 . S
H1089 C1116 0.949 . S
H1090 C1119 0.950 . S
H1091 C1120 0.950 . S
H1092 C1122 0.950 . S
H1093 C1123 0.950 . S
C1094 H1076 0.951 . S
C1094 C1095 1.331 1_655 S
C1094 C1096 1.388 . S
C1095 C1094 1.331 1_455 S
C1095 C1099 1.449 . S
C1096 H1077 0.951 . S
C1096 C1094 1.388 . S
C1096 C1097 1.366 1_655 S
C1097 C1096 1.366 1_455 S
C1097 C1098 1.414 . S
C1097 C1100 1.499 . S
C1098 H1078 0.950 . S
C1098 C1097 1.414 . S
C1098 C1099 1.374 . S
C1099 H1079 0.950 . S
C1099 C1095 1.449 . S
C1099 C1098 1.374 . S
C1100 C1097 1.499 . S
C1100 C1101 1.338 . S
C1100 C1102 1.389 . S
C1101 H1080 0.961 . S
C1101 C1100 1.338 . S
C1101 C1117 1.408 1_455 S
C1102 C1100 1.389 . S
C1102 C1103 1.524 . S
C1102 C1116 1.360 . S
C1103 C1102 1.524 . S
C1103 C1104 1.397 . S
C1103 C1108 1.363 1_455 S
C1104 H1081 0.950 . S
C1104 C1103 1.397 . S
C1104 C1105 1.334 . S
C1105 H1082 0.950 . S
C1105 C1104 1.334 . S
C1105 C1106 1.287 . S
C1106 C1105 1.287 . S
C1106 C1107 1.524 1_455 S
C1106 H1125 0.913 . S
C1107 H1083 0.950 . S
C1107 C1106 1.524 1_655 S
C1107 C1108 1.415 . S
C1108 H1084 0.950 . S
C1108 C1103 1.363 1_655 S
C1108 C1107 1.415 . S
C1109 H1085 0.951 . S
C1109 C1110 1.404 . S
C1109 C1111 1.388 . S
C1110 C1109 1.404 . S
C1110 C1114 1.319 1_455 S
C1111 H1086 0.951 . S
C1111 C1109 1.388 . S
C1111 C1112 1.376 . S
C1112 C1111 1.376 . S
C1112 C1113 1.408 1_455 S
C1112 C1115 1.491 1_455 S
C1113 H1087 0.950 . S
C1113 C1112 1.408 1_655 S
C1113 C1114 1.374 . S
C1114 H1088 0.950 . S
C1114 C1110 1.319 1_655 S
C1114 C1113 1.374 . S
C1115 C1112 1.491 1_655 S
C1115 C1116 1.398 1_655 S
C1115 C1117 1.389 . S
C1116 H1089 0.949 . S
C1116 C1102 1.360 . S
C1116 C1115 1.398 1_455 S
C1117 C1101 1.408 1_655 S
C1117 C1115 1.389 . S
C1117 C1118 1.526 . S
C1118 C1117 1.526 . S
C1118 C1119 1.397 . S
C1118 C1123 1.363 1_655 S
C1119 H1090 0.950 . S
C1119 C1118 1.397 . S
C1119 C1120 1.334 . S
C1120 H1091 0.950 . S
C1120 C1119 1.334 . S
C1120 C1121 1.287 . S
C1121 C1120 1.287 . S
C1121 C1122 1.524 1_655 S
C1121 H1124 0.999 . S
C1122 H1092 0.950 . S
C1122 C1121 1.524 1_455 S
C1122 C1123 1.415 . S
C1123 H1093 0.950 . S
C1123 C1118 1.363 1_455 S
C1123 C1122 1.415 . S
H1124 C1121 0.999 . S
H1125 C1106 0.913 . S
H1126 C1144 0.951 . S
H1127 C1146 0.951 . S
H1128 C1148 0.950 . S
H1129 C1149 0.950 . S
H1130 C1151 0.950 . S
H1131 C1154 0.950 . S
H1132 C1155 0.950 . S
H1133 C1157 0.950 . S
H1134 C1158 0.950 . S
H1135 C1159 0.951 . S
H1136 C1161 0.951 . S
H1137 C1163 0.950 . S
H1138 C1164 0.950 . S
H1139 C1166 0.950 . S
H1140 C1169 0.950 . S
H1141 C1170 0.950 . S
H1142 C1172 0.950 . S
H1143 C1173 0.950 . S
C1144 H1126 0.951 . S
C1144 C1145 1.366 . S
C1144 C1146 1.388 . S
C1145 C1144 1.366 . S
C1145 C1149 1.385 . S
C1146 H1127 0.951 . S
C1146 C1144 1.388 . S
C1146 C1147 1.366 . S
C1147 C1146 1.366 . S
C1147 C1148 1.414 . S
C1147 C1150 1.499 . S
C1148 H1128 0.950 . S
C1148 C1147 1.414 . S
C1148 C1149 1.374 . S
C1149 H1129 0.950 . S
C1149 C1145 1.385 . S
C1149 C1148 1.374 . S
C1150 C1147 1.499 . S
C1150 C1151 1.373 . S
C1150 C1152 1.389 . S
C1151 H1130 0.950 . S
C1151 C1150 1.373 . S
C1151 C1167 1.377 . S
C1152 C1150 1.389 . S
C1152 C1153 1.524 . S
C1152 C1166 1.377 . S
C1153 C1152 1.524 . S
C1153 C1154 1.397 . S
C1153 C1158 1.363 . S
C1154 H1131 0.950 . S
C1154 C1153 1.397 . S
C1154 C1155 1.334 . S
C1155 H1132 0.950 . S
C1155 C1154 1.334 . S
C1155 C1156 1.287 . S
C1156 C1155 1.287 . S
C1156 C1157 1.524 . S
C1156 H1175 0.913 . S
C1157 H1133 0.950 . S
C1157 C1156 1.524 . S
C1157 C1158 1.415 . S
C1158 H1134 0.950 . S
C1158 C1153 1.363 . S
C1158 C1157 1.415 . S
C1159 H1135 0.951 . S
C1159 C1160 1.366 . S
C1159 C1161 1.388 . S
C1160 C1159 1.366 . S
C1160 C1164 1.385 . S
C1161 H1136 0.951 . S
C1161 C1159 1.388 . S
C1161 C1162 1.366 . S
C1162 C1161 1.366 . S
C1162 C1163 1.414 . S
C1162 C1165 1.499 . S
C1163 H1137 0.950 . S
C1163 C1162 1.414 . S
C1163 C1164 1.374 . S
C1164 H1138 0.950 . S
C1164 C1160 1.385 . S
C1164 C1163 1.374 . S
C1165 C1162 1.499 . S
C1165 C1166 1.373 . S
C1165 C1167 1.389 . S
C1166 H1139 0.950 . S
C1166 C1152 1.377 . S
C1166 C1165 1.373 . S
C1167 C1151 1.377 . S
C1167 C1165 1.389 . S
C1167 C1168 1.524 . S
C1168 C1167 1.524 . S
C1168 C1169 1.397 . S
C1168 C1173 1.363 . S
C1169 H1140 0.950 . S
C1169 C1168 1.397 . S
C1169 C1170 1.334 . S
C1170 H1141 0.950 . S
C1170 C1169 1.334 . S
C1170 C1171 1.287 . S
C1171 C1170 1.287 . S
C1171 C1172 1.524 . S
C1171 H1174 0.999 . S
C1172 H1142 0.950 . S
C1172 C1171 1.524 . S
C1172 C1173 1.415 . S
C1173 H1143 0.950 . S
C1173 C1168 1.363 . S
C1173 C1172 1.415 . S
H1174 C1171 0.999 . S
H1175 C1156 0.913 . S
H1176 C1194 0.951 . S
H1177 C1196 0.951 . S
H1178 C1198 0.950 . S
H1179 C1199 0.950 . S
H1180 C1201 0.950 . S
H1181 C1204 0.950 . S
H1182 C1205 0.950 . S
H1183 C1207 0.950 . S
H1184 C1208 0.950 . S
H1185 C1209 0.951 . S
H1186 C1211 0.951 . S
H1187 C1213 0.950 . S
H1188 C1214 0.950 . S
H1189 C1216 0.950 . S
H1190 C1219 0.950 . S
H1191 C1220 0.950 . S
H1192 C1222 0.950 . S
H1193 C1223 0.950 . S
C1194 H1176 0.951 . S
C1194 C1195 1.366 . S
C1194 C1196 1.388 . S
C1195 C1194 1.366 . S
C1195 C1199 1.385 . S
C1196 H1177 0.951 . S
C1196 C1194 1.388 . S
C1196 C1197 1.366 . S
C1197 C1196 1.366 . S
C1197 C1198 1.414 . S
C1197 C1200 1.499 . S
C1198 H1178 0.950 . S
C1198 C1197 1.414 . S
C1198 C1199 1.374 . S
C1199 H1179 0.950 . S
C1199 C1195 1.385 . S
C1199 C1198 1.374 . S
C1200 C1197 1.499 . S
C1200 C1201 1.373 . S
C1200 C1202 1.389 . S
C1201 H1180 0.950 . S
C1201 C1200 1.373 . S
C1201 C1217 1.377 . S
C1202 C1200 1.389 . S
C1202 C1203 1.524 . S
C1202 C1216 1.377 . S
C1203 C1202 1.524 . S
C1203 C1204 1.397 . S
C1203 C1208 1.363 . S
C1204 H1181 0.950 . S
C1204 C1203 1.397 . S
C1204 C1205 1.334 . S
C1205 H1182 0.950 . S
C1205 C1204 1.334 . S
C1205 C1206 1.287 . S
C1206 C1205 1.287 . S
C1206 C1207 1.524 . S
C1206 H1225 0.913 . S
C1207 H1183 0.950 . S
C1207 C1206 1.524 . S
C1207 C1208 1.415 . S
C1208 H1184 0.950 . S
C1208 C1203 1.363 . S
C1208 C1207 1.415 . S
C1209 H1185 0.951 . S
C1209 C1210 1.366 . S
C1209 C1211 1.388 . S
C1210 C1209 1.366 . S
C1210 C1214 1.385 . S
C1211 H1186 0.951 . S
C1211 C1209 1.388 . S
C1211 C1212 1.366 . S
C1212 C1211 1.366 . S
C1212 C1213 1.414 . S
C1212 C1215 1.499 . S
C1213 H1187 0.950 . S
C1213 C1212 1.414 . S
C1213 C1214 1.374 . S
C1214 H1188 0.950 . S
C1214 C1210 1.385 . S
C1214 C1213 1.374 . S
C1215 C1212 1.499 . S
C1215 C1216 1.373 . S
C1215 C1217 1.389 . S
C1216 H1189 0.950 . S
C1216 C1202 1.377 . S
C1216 C1215 1.373 . S
C1217 C1201 1.377 . S
C1217 C1215 1.389 . S
C1217 C1218 1.524 . S
C1218 C1217 1.524 . S
C1218 C1219 1.397 . S
C1218 C1223 1.363 . S
C1219 H1190 0.950 . S
C1219 C1218 1.397 . S
C1219 C1220 1.334 . S
C1220 H1191 0.950 . S
C1220 C1219 1.334 . S
C1220 C1221 1.287 . S
C1221 C1220 1.287 . S
C1221 C1222 1.524 . S
C1221 H1224 0.999 . S
C1222 H1192 0.950 . S
C1222 C1221 1.524 . S
C1222 C1223 1.415 . S
C1223 H1193 0.950 . S
C1223 C1218 1.363 . S
C1223 C1222 1.415 . S
H1224 C1221 0.999 . S
H1225 C1206 0.913 . S
H1226 C1244 0.951 . S
H1227 C1246 0.951 . S
H1228 C1248 0.950 . S
H1229 C1249 0.950 . S
H1230 C1251 0.950 . S
H1231 C1254 0.950 . S
H1232 C1255 0.950 . S
H1233 C1257 0.950 . S
H1234 C1258 0.950 . S
H1235 C1259 0.951 . S
H1236 C1261 0.951 . S
H1237 C1263 0.950 . S
H1238 C1264 0.950 . S
H1239 C1266 0.950 . S
H1240 C1269 0.950 . S
H1241 C1270 0.950 . S
H1242 C1272 0.950 . S
H1243 C1273 0.950 . S
C1244 H1226 0.951 . S
C1244 C1245 1.366 . S
C1244 C1246 1.388 . S
C1245 C1244 1.366 . S
C1245 C1249 1.385 . S
C1246 H1227 0.951 . S
C1246 C1244 1.388 . S
C1246 C1247 1.366 . S
C1247 C1246 1.366 . S
C1247 C1248 1.414 . S
C1247 C1250 1.499 . S
C1248 H1228 0.950 . S
C1248 C1247 1.414 . S
C1248 C1249 1.374 . S
C1249 H1229 0.950 . S
C1249 C1245 1.385 . S
C1249 C1248 1.374 . S
C1250 C1247 1.499 . S
C1250 C1251 1.373 . S
C1250 C1252 1.389 . S
C1251 H1230 0.950 . S
C1251 C1250 1.373 . S
C1251 C1267 1.377 . S
C1252 C1250 1.389 . S
C1252 C1253 1.524 . S
C1252 C1266 1.377 . S
C1253 C1252 1.524 . S
C1253 C1254 1.397 . S
C1253 C1258 1.363 . S
C1254 H1231 0.950 . S
C1254 C1253 1.397 . S
C1254 C1255 1.334 . S
C1255 H1232 0.950 . S
C1255 C1254 1.334 . S
C1255 C1256 1.287 . S
C1256 C1255 1.287 . S
C1256 C1257 1.524 . S
C1256 H1275 0.913 . S
C1257 H1233 0.950 . S
C1257 C1256 1.524 . S
C1257 C1258 1.415 . S
C1258 H1234 0.950 . S
C1258 C1253 1.363 . S
C1258 C1257 1.415 . S
C1259 H1235 0.951 . S
C1259 C1260 1.366 . S
C1259 C1261 1.388 . S
C1260 C1259 1.366 . S
C1260 C1264 1.385 . S
C1261 H1236 0.951 . S
C1261 C1259 1.388 . S
C1261 C1262 1.366 . S
C1262 C1261 1.366 . S
C1262 C1263 1.414 . S
C1262 C1265 1.499 . S
C1263 H1237 0.950 . S
C1263 C1262 1.414 . S
C1263 C1264 1.374 . S
C1264 H1238 0.950 . S
C1264 C1260 1.385 . S
C1264 C1263 1.374 . S
C1265 C1262 1.499 . S
C1265 C1266 1.373 . S
C1265 C1267 1.389 . S
C1266 H1239 0.950 . S
C1266 C1252 1.377 . S
C1266 C1265 1.373 . S
C1267 C1251 1.377 . S
C1267 C1265 1.389 . S
C1267 C1268 1.524 . S
C1268 C1267 1.524 . S
C1268 C1269 1.397 . S
C1268 C1273 1.363 . S
C1269 H1240 0.950 . S
C1269 C1268 1.397 . S
C1269 C1270 1.334 . S
C1270 H1241 0.950 . S
C1270 C1269 1.334 . S
C1270 C1271 1.287 . S
C1271 C1270 1.287 . S
C1271 C1272 1.524 . S
C1271 H1274 0.999 . S
C1272 H1242 0.950 . S
C1272 C1271 1.524 . S
C1272 C1273 1.415 . S
C1273 H1243 0.950 . S
C1273 C1268 1.363 . S
C1273 C1272 1.415 . S
H1274 C1271 0.999 . S
H1275 C1256 0.913 . S
H1276 C1294 0.951 . S
H1277 C1296 0.951 . S
H1278 C1298 0.950 . S
H1279 C1299 0.950 . S
H1280 C1301 0.950 . S
H1281 C1304 0.950 . S
H1282 C1305 0.950 . S
H1283 C1307 0.950 . S
H1284 C1308 0.950 . S
H1285 C1309 0.951 . S
H1286 C1311 0.951 . S
H1287 C1313 0.950 . S
H1288 C1314 0.950 . S
H1289 C1316 0.950 . S
H1290 C1319 0.950 . S
H1291 C1320 0.950 . S
H1292 C1322 0.950 . S
H1293 C1323 0.950 . S
C1294 H1276 0.951 . S
C1294 C1295 1.366 . S
C1294 C1296 1.388 . S
C1295 C1294 1.366 . S
C1295 C1299 1.385 . S
C1296 H1277 0.951 . S
C1296 C1294 1.388 . S
C1296 C1297 1.366 . S
C1297 C1296 1.366 . S
C1297 C1298 1.414 . S
C1297 C1300 1.499 . S
C1298 H1278 0.950 . S
C1298 C1297 1.414 . S
C1298 C1299 1.374 . S
C1299 H1279 0.950 . S
C1299 C1295 1.385 . S
C1299 C1298 1.374 . S
C1300 C1297 1.499 . S
C1300 C1301 1.373 . S
C1300 C1302 1.389 . S
C1301 H1280 0.950 . S
C1301 C1300 1.373 . S
C1301 C1317 1.377 . S
C1302 C1300 1.389 . S
C1302 C1303 1.524 . S
C1302 C1316 1.377 . S
C1303 C1302 1.524 . S
C1303 C1304 1.397 . S
C1303 C1308 1.363 . S
C1304 H1281 0.950 . S
C1304 C1303 1.397 . S
C1304 C1305 1.334 . S
C1305 H1282 0.950 . S
C1305 C1304 1.334 . S
C1305 C1306 1.287 . S
C1306 C1305 1.287 . S
C1306 C1307 1.524 . S
C1306 H1325 0.913 . S
C1307 H1283 0.950 . S
C1307 C1306 1.524 . S
C1307 C1308 1.415 . S
C1308 H1284 0.950 . S
C1308 C1303 1.363 . S
C1308 C1307 1.415 . S
C1309 H1285 0.951 . S
C1309 C1310 1.366 . S
C1309 C1311 1.388 . S
C1310 C1309 1.366 . S
C1310 C1314 1.385 . S
C1311 H1286 0.951 . S
C1311 C1309 1.388 . S
C1311 C1312 1.366 . S
C1312 C1311 1.366 . S
C1312 C1313 1.414 . S
C1312 C1315 1.499 . S
C1313 H1287 0.950 . S
C1313 C1312 1.414 . S
C1313 C1314 1.374 . S
C1314 H1288 0.950 . S
C1314 C1310 1.385 . S
C1314 C1313 1.374 . S
C1315 C1312 1.499 . S
C1315 C1316 1.373 . S
C1315 C1317 1.389 . S
C1316 H1289 0.950 . S
C1316 C1302 1.377 . S
C1316 C1315 1.373 . S
C1317 C1301 1.377 . S
C1317 C1315 1.389 . S
C1317 C1318 1.524 . S
C1318 C1317 1.524 . S
C1318 C1319 1.397 . S
C1318 C1323 1.363 . S
C1319 H1290 0.950 . S
C1319 C1318 1.397 . S
C1319 C1320 1.334 . S
C1320 H1291 0.950 . S
C1320 C1319 1.334 . S
C1320 C1321 1.287 . S
C1321 C1320 1.287 . S
C1321 C1322 1.524 . S
C1321 H1324 0.999 . S
C1322 H1292 0.950 . S
C1322 C1321 1.524 . S
C1322 C1323 1.415 . S
C1323 H1293 0.950 . S
C1323 C1318 1.363 . S
C1323 C1322 1.415 . S
H1324 C1321 0.999 . S
H1325 C1306 0.913 . S
H1326 C1344 0.951 . S
H1327 C1346 0.951 . S
H1328 C1348 0.950 . S
H1329 C1349 0.950 . S
H1330 C1351 0.950 . S
H1331 C1354 0.950 . S
H1332 C1355 0.950 . S
H1333 C1357 0.950 . S
H1334 C1358 0.950 . S
H1335 C1359 0.951 . S
H1336 C1361 0.951 . S
H1337 C1363 0.950 . S
H1338 C1364 0.950 . S
H1339 C1366 0.950 . S
H1340 C1369 0.950 . S
H1341 C1370 0.950 . S
H1342 C1372 0.950 . S
H1343 C1373 0.950 . S
C1344 H1326 0.951 . S
C1344 C1345 1.366 . S
C1344 C1346 1.388 . S
C1345 C1344 1.366 . S
C1345 C1349 1.385 . S
C1346 H1327 0.951 . S
C1346 C1344 1.388 . S
C1346 C1347 1.366 . S
C1347 C1346 1.366 . S
C1347 C1348 1.414 . S
C1347 C1350 1.499 . S
C1348 H1328 0.950 . S
C1348 C1347 1.414 . S
C1348 C1349 1.374 . S
C1349 H1329 0.950 . S
C1349 C1345 1.385 . S
C1349 C1348 1.374 . S
C1350 C1347 1.499 . S
C1350 C1351 1.373 . S
C1350 C1352 1.389 . S
C1351 H1330 0.950 . S
C1351 C1350 1.373 . S
C1351 C1367 1.377 . S
C1352 C1350 1.389 . S
C1352 C1353 1.524 . S
C1352 C1366 1.377 . S
C1353 C1352 1.524 . S
C1353 C1354 1.397 . S
C1353 C1358 1.363 . S
C1354 H1331 0.950 . S
C1354 C1353 1.397 . S
C1354 C1355 1.334 . S
C1355 H1332 0.950 . S
C1355 C1354 1.334 . S
C1355 C1356 1.287 . S
C1356 C1355 1.287 . S
C1356 C1357 1.524 . S
C1356 H1375 0.913 . S
C1357 H1333 0.950 . S
C1357 C1356 1.524 . S
C1357 C1358 1.415 . S
C1358 H1334 0.950 . S
C1358 C1353 1.363 . S
C1358 C1357 1.415 . S
C1359 H1335 0.951 . S
C1359 C1360 1.366 . S
C1359 C1361 1.388 . S
C1360 C1359 1.366 . S
C1360 C1364 1.385 . S
C1361 H1336 0.951 . S
C1361 C1359 1.388 . S
C1361 C1362 1.366 . S
C1362 C1361 1.366 . S
C1362 C1363 1.414 . S
C1362 C1365 1.499 . S
C1363 H1337 0.950 . S
C1363 C1362 1.414 . S
C1363 C1364 1.374 . S
C1364 H1338 0.950 . S
C1364 C1360 1.385 . S
C1364 C1363 1.374 . S
C1365 C1362 1.499 . S
C1365 C1366 1.373 . S
C1365 C1367 1.389 . S
C1366 H1339 0.950 . S
C1366 C1352 1.377 . S
C1366 C1365 1.373 . S
C1367 C1351 1.377 . S
C1367 C1365 1.389 . S
C1367 C1368 1.524 . S
C1368 C1367 1.524 . S
C1368 C1369 1.397 . S
C1368 C1373 1.363 . S
C1369 H1340 0.950 . S
C1369 C1368 1.397 . S
C1369 C1370 1.334 . S
C1370 H1341 0.950 . S
C1370 C1369 1.334 . S
C1370 C1371 1.287 . S
C1371 C1370 1.287 . S
C1371 C1372 1.524 . S
C1371 H1374 0.999 . S
C1372 H1342 0.950 . S
C1372 C1371 1.524 . S
C1372 C1373 1.415 . S
C1373 H1343 0.950 . S
C1373 C1368 1.363 . S
C1373 C1372 1.415 . S
H1374 C1371 0.999 . S
H1375 C1356 0.913 . S
H1376 C1394 0.951 . S
H1377 C1396 0.951 . S
H1378 C1398 0.950 . S
H1379 C1399 0.950 . S
H1380 C1401 0.950 . S
H1381 C1404 0.950 . S
H1382 C1405 0.950 . S
H1383 C1407 0.950 . S
H1384 C1408 0.950 . S
H1385 C1409 0.951 . S
H1386 C1411 0.951 . S
H1387 C1413 0.950 . S
H1388 C1414 0.950 . S
H1389 C1416 0.950 . S
H1390 C1419 0.950 . S
H1391 C1420 0.950 . S
H1392 C1422 0.950 . S
H1393 C1423 0.950 . S
C1394 H1376 0.951 . S
C1394 C1395 1.366 . S
C1394 C1396 1.388 . S
C1395 C1394 1.366 . S
C1395 C1399 1.385 . S
C1396 H1377 0.951 . S
C1396 C1394 1.388 . S
C1396 C1397 1.366 . S
C1397 C1396 1.366 . S
C1397 C1398 1.414 . S
C1397 C1400 1.499 . S
C1398 H1378 0.950 . S
C1398 C1397 1.414 . S
C1398 C1399 1.374 . S
C1399 H1379 0.950 . S
C1399 C1395 1.385 . S
C1399 C1398 1.374 . S
C1400 C1397 1.499 . S
C1400 C1401 1.373 . S
C1400 C1402 1.389 . S
C1401 H1380 0.950 . S
C1401 C1400 1.373 . S
C1401 C1417 1.377 . S
C1402 C1400 1.389 . S
C1402 C1403 1.524 . S
C1402 C1416 1.377 . S
C1403 C1402 1.524 . S
C1403 C1404 1.397 . S
C1403 C1408 1.363 . S
C1404 H1381 0.950 . S
C1404 C1403 1.397 . S
C1404 C1405 1.334 . S
C1405 H1382 0.950 . S
C1405 C1404 1.334 . S
C1405 C1406 1.287 . S
C1406 C1405 1.287 . S
C1406 C1407 1.524 . S
C1406 H1425 0.913 . S
C1407 H1383 0.950 . S
C1407 C1406 1.524 . S
C1407 C1408 1.415 . S
C1408 H1384 0.950 . S
C1408 C1403 1.363 . S
C1408 C1407 1.415 . S
C1409 H1385 0.951 . S
C1409 C1410 1.366 . S
C1409 C1411 1.388 . S
C1410 C1409 1.366 . S
C1410 C1414 1.385 . S
C1411 H1386 0.951 . S
C1411 C1409 1.388 . S
C1411 C1412 1.366 . S
C1412 C1411 1.366 . S
C1412 C1413 1.414 . S
C1412 C1415 1.499 . S
C1413 H1387 0.950 . S
C1413 C1412 1.414 . S
C1413 C1414 1.374 . S
C1414 H1388 0.950 . S
C1414 C1410 1.385 . S
C1414 C1413 1.374 . S
C1415 C1412 1.499 . S
C1415 C1416 1.373 . S
C1415 C1417 1.389 . S
C1416 H1389 0.950 . S
C1416 C1402 1.377 . S
C1416 C1415 1.373 . S
C1417 C1401 1.377 . S
C1417 C1415 1.389 . S
C1417 C1418 1.524 . S
C1418 C1417 1.524 . S
C1418 C1419 1.397 . S
C1418 C1423 1.363 . S
C1419 H1390 0.950 . S
C1419 C1418 1.397 . S
C1419 C1420 1.334 . S
C1420 H1391 0.950 . S
C1420 C1419 1.334 . S
C1420 C1421 1.287 . S
C1421 C1420 1.287 . S
C1421 C1422 1.524 . S
C1421 H1424 0.999 . S
C1422 H1392 0.950 . S
C1422 C1421 1.524 . S
C1422 C1423 1.415 . S
C1423 H1393 0.950 . S
C1423 C1418 1.363 . S
C1423 C1422 1.415 . S
H1424 C1421 0.999 . S
H1425 C1406 0.913 . S
H1426 C1444 0.951 . S
H1427 C1446 0.951 . S
H1428 C1448 0.950 . S
H1429 C1449 0.950 . S
H1430 C1451 0.950 . S
H1431 C1454 0.950 . S
H1432 C1455 0.950 . S
H1433 C1457 0.950 . S
H1434 C1458 0.950 . S
H1435 C1459 0.951 . S
H1436 C1461 0.951 . S
H1437 C1463 0.950 . S
H1438 C1464 0.950 . S
H1439 C1466 0.950 . S
H1440 C1469 0.950 . S
H1441 C1470 0.950 . S
H1442 C1472 0.950 . S
H1443 C1473 0.950 . S
C1444 H1426 0.951 . S
C1444 C1445 1.366 . S
C1444 C1446 1.388 . S
C1445 C1444 1.366 . S
C1445 C1449 1.385 . S
C1446 H1427 0.951 . S
C1446 C1444 1.388 . S
C1446 C1447 1.366 . S
C1447 C1446 1.366 . S
C1447 C1448 1.414 . S
C1447 C1450 1.499 . S
C1448 H1428 0.950 . S
C1448 C1447 1.414 . S
C1448 C1449 1.374 . S
C1449 H1429 0.950 . S
C1449 C1445 1.385 . S
C1449 C1448 1.374 . S
C1450 C1447 1.499 . S
C1450 C1451 1.373 . S
C1450 C1452 1.389 . S
C1451 H1430 0.950 . S
C1451 C1450 1.373 . S
C1451 C1467 1.377 . S
C1452 C1450 1.389 . S
C1452 C1453 1.524 . S
C1452 C1466 1.377 . S
C1453 C1452 1.524 . S
C1453 C1454 1.397 . S
C1453 C1458 1.363 . S
C1454 H1431 0.950 . S
C1454 C1453 1.397 . S
C1454 C1455 1.334 . S
C1455 H1432 0.950 . S
C1455 C1454 1.334 . S
C1455 C1456 1.287 . S
C1456 C1455 1.287 . S
C1456 C1457 1.524 . S
C1456 H1475 0.913 . S
C1457 H1433 0.950 . S
C1457 C1456 1.524 . S
C1457 C1458 1.415 . S
C1458 H1434 0.950 . S
C1458 C1453 1.363 . S
C1458 C1457 1.415 . S
C1459 H1435 0.951 . S
C1459 C1460 1.366 . S
C1459 C1461 1.388 . S
C1460 C1459 1.366 . S
C1460 C1464 1.385 . S
C1461 H1436 0.951 . S
C1461 C1459 1.388 . S
C1461 C1462 1.366 . S
C1462 C1461 1.366 . S
C1462 C1463 1.414 . S
C1462 C1465 1.499 . S
C1463 H1437 0.950 . S
C1463 C1462 1.414 . S
C1463 C1464 1.374 . S
C1464 H1438 0.950 . S
C1464 C1460 1.385 . S
C1464 C1463 1.374 . S
C1465 C1462 1.499 . S
C1465 C1466 1.373 . S
C1465 C1467 1.389 . S
C1466 H1439 0.950 . S
C1466 C1452 1.377 . S
C1466 C1465 1.373 . S
C1467 C1451 1.377 . S
C1467 C1465 1.389 . S
C1467 C1468 1.524 . S
C1468 C1467 1.524 . S
C1468 C1469 1.397 . S
C1468 C1473 1.363 . S
C1469 H1440 0.950 . S
C1469 C1468 1.397 . S
C1469 C1470 1.334 . S
C1470 H1441 0.950 . S
C1470 C1469 1.334 . S
C1470 C1471 1.287 . S
C1471 C1470 1.287 . S
C1471 C1472 1.524 . S
C1471 H1474 0.999 . S
C1472 H1442 0.950 . S
C1472 C1471 1.524 . S
C1472 C1473 1.415 . S
C1473 H1443 0.950 . S
C1473 C1468 1.363 . S
C1473 C1472 1.415 . S
H1474 C1471 0.999 . S
H1475 C1456 0.913 . S
H1476 C1494 0.951 . S
H1477 C1496 0.951 . S
H1478 C1498 0.950 . S
H1479 C1499 0.950 . S
H1480 C1501 0.950 . S
H1481 C1504 0.950 . S
H1482 C1505 0.950 . S
H1483 C1507 0.950 . S
H1484 C1508 0.950 . S
H1485 C1509 0.951 . S
H1486 C1511 0.951 . S
H1487 C1513 0.950 . S
H1488 C1514 0.950 . S
H1489 C1516 0.950 . S
H1490 C1519 0.950 . S
H1491 C1520 0.950 . S
H1492 C1522 0.950 . S
H1493 C1523 0.950 . S
C1494 H1476 0.951 . S
C1494 C1495 1.366 . S
C1494 C1496 1.388 . S
C1495 C1494 1.366 . S
C1495 C1499 1.385 . S
C1496 H1477 0.951 . S
C1496 C1494 1.388 . S
C1496 C1497 1.366 . S
C1497 C1496 1.366 . S
C1497 C1498 1.414 . S
C1497 C1500 1.499 . S
C1498 H1478 0.950 . S
C1498 C1497 1.414 . S
C1498 C1499 1.374 . S
C1499 H1479 0.950 . S
C1499 C1495 1.385 . S
C1499 C1498 1.374 . S
C1500 C1497 1.499 . S
C1500 C1501 1.373 . S
C1500 C1502 1.389 . S
C1501 H1480 0.950 . S
C1501 C1500 1.373 . S
C1501 C1517 1.377 . S
C1502 C1500 1.389 . S
C1502 C1503 1.524 . S
C1502 C1516 1.377 . S
C1503 C1502 1.524 . S
C1503 C1504 1.397 . S
C1503 C1508 1.363 . S
C1504 H1481 0.950 . S
C1504 C1503 1.397 . S
C1504 C1505 1.334 . S
C1505 H1482 0.950 . S
C1505 C1504 1.334 . S
C1505 C1506 1.287 . S
C1506 C1505 1.287 . S
C1506 C1507 1.524 . S
C1506 H1525 0.913 . S
C1507 H1483 0.950 . S
C1507 C1506 1.524 . S
C1507 C1508 1.415 . S
C1508 H1484 0.950 . S
C1508 C1503 1.363 . S
C1508 C1507 1.415 . S
C1509 H1485 0.951 . S
C1509 C1510 1.366 . S
C1509 C1511 1.388 . S
C1510 C1509 1.366 . S
C1510 C1514 1.385 . S
C1511 H1486 0.951 . S
C1511 C1509 1.388 . S
C1511 C1512 1.366 . S
C1512 C1511 1.366 . S
C1512 C1513 1.414 . S
C1512 C1515 1.499 . S
C1513 H1487 0.950 . S
C1513 C1512 1.414 . S
C1513 C1514 1.374 . S
C1514 H1488 0.950 . S
C1514 C1510 1.385 . S
C1514 C1513 1.374 . S
C1515 C1512 1.499 . S
C1515 C1516 1.373 . S
C1515 C1517 1.389 . S
C1516 H1489 0.950 . S
C1516 C1502 1.377 . S
C1516 C1515 1.373 . S
C1517 C1501 1.377 . S
C1517 C1515 1.389 . S
C1517 C1518 1.524 . S
C1518 C1517 1.524 . S
C1518 C1519 1.397 . S
C1518 C1523 1.363 . S
C1519 H1490 0.950 . S
C1519 C1518 1.397 . S
C1519 C1520 1.334 . S
C1520 H1491 0.950 . S
C1520 C1519 1.334 . S
C1520 C1521 1.287 . S
C1521 C1520 1.287 . S
C1521 C1522 1.524 . S
C1521 H1524 0.999 . S
C1522 H1492 0.950 . S
C1522 C1521 1.524 . S
C1522 C1523 1.415 . S
C1523 H1493 0.950 . S
C1523 C1518 1.363 . S
C1523 C1522 1.415 . S
H1524 C1521 0.999 . S
H1525 C1506 0.913 . S
H1526 C1544 0.951 . S
H1527 C1546 0.951 . S
H1528 C1548 0.950 . S
H1529 C1549 0.950 . S
H1530 C1551 0.950 . S
H1531 C1554 0.950 . S
H1532 C1555 0.950 . S
H1533 C1557 0.950 . S
H1534 C1558 0.950 . S
H1535 C1559 0.951 . S
H1536 C1561 0.951 . S
H1537 C1563 0.950 . S
H1538 C1564 0.950 . S
H1539 C1566 0.950 . S
H1540 C1569 0.950 . S
H1541 C1570 0.950 . S
H1542 C1572 0.950 . S
H1543 C1573 0.950 . S
C1544 H1526 0.951 . S
C1544 C1545 1.366 . S
C1544 C1546 1.388 . S
C1545 C1544 1.366 . S
C1545 C1549 1.385 . S
C1546 H1527 0.951 . S
C1546 C1544 1.388 . S
C1546 C1547 1.366 . S
C1547 C1546 1.366 . S
C1547 C1548 1.414 . S
C1547 C1550 1.499 . S
C1548 H1528 0.950 . S
C1548 C1547 1.414 . S
C1548 C1549 1.374 . S
C1549 H1529 0.950 . S
C1549 C1545 1.385 . S
C1549 C1548 1.374 . S
C1550 C1547 1.499 . S
C1550 C1551 1.373 . S
C1550 C1552 1.389 . S
C1551 H1530 0.950 . S
C1551 C1550 1.373 . S
C1551 C1567 1.377 . S
C1552 C1550 1.389 . S
C1552 C1553 1.524 . S
C1552 C1566 1.377 . S
C1553 C1552 1.524 . S
C1553 C1554 1.397 . S
C1553 C1558 1.363 . S
C1554 H1531 0.950 . S
C1554 C1553 1.397 . S
C1554 C1555 1.334 . S
C1555 H1532 0.950 . S
C1555 C1554 1.334 . S
C1555 C1556 1.287 . S
C1556 C1555 1.287 . S
C1556 C1557 1.524 . S
C1556 H1575 0.913 . S
C1557 H1533 0.950 . S
C1557 C1556 1.524 . S
C1557 C1558 1.415 . S
C1558 H1534 0.950 . S
C1558 C1553 1.363 . S
C1558 C1557 1.415 . S
C1559 H1535 0.951 . S
C1559 C1560 1.366 . S
C1559 C1561 1.388 . S
C1560 C1559 1.366 . S
C1560 C1564 1.385 . S
C1561 H1536 0.951 . S
C1561 C1559 1.388 . S
C1561 C1562 1.366 . S
C1562 C1561 1.366 . S
C1562 C1563 1.414 . S
C1562 C1565 1.499 . S
C1563 H1537 0.950 . S
C1563 C1562 1.414 . S
C1563 C1564 1.374 . S
C1564 H1538 0.950 . S
C1564 C1560 1.385 . S
C1564 C1563 1.374 . S
C1565 C1562 1.499 . S
C1565 C1566 1.373 . S
C1565 C1567 1.389 . S
C1566 H1539 0.950 . S
C1566 C1552 1.377 . S
C1566 C1565 1.373 . S
C1567 C1551 1.377 . S
C1567 C1565 1.389 . S
C1567 C1568 1.524 . S
C1568 C1567 1.524 . S
C1568 C1569 1.397 . S
C1568 C1573 1.363 . S
C1569 H1540 0.950 . S
C1569 C1568 1.397 . S
C1569 C1570 1.334 . S
C1570 H1541 0.950 . S
C1570 C1569 1.334 . S
C1570 C1571 1.287 . S
C1571 C1570 1.287 . S
C1571 C1572 1.524 . S
C1571 H1574 0.999 . S
C1572 H1542 0.950 . S
C1572 C1571 1.524 . S
C1572 C1573 1.415 . S
C1573 H1543 0.950 . S
C1573 C1568 1.363 . S
C1573 C1572 1.415 . S
H1574 C1571 0.999 . S
H1575 C1556 0.913 . S
H1576 C1594 0.951 . S
H1577 C1596 0.951 . S
H1578 C1598 0.950 . S
H1579 C1599 0.950 . S
H1580 C1601 0.950 . S
H1581 C1604 0.950 . S
H1582 C1605 0.950 . S
H1583 C1607 0.950 . S
H1584 C1608 0.950 . S
H1585 C1609 0.951 . S
H1586 C1611 0.951 . S
H1587 C1613 0.950 . S
H1588 C1614 0.950 . S
H1589 C1616 0.950 . S
H1590 C1619 0.950 . S
H1591 C1620 0.950 . S
H1592 C1622 0.950 . S
H1593 C1623 0.950 . S
C1594 H1576 0.951 . S
C1594 C1595 1.366 . S
C1594 C1596 1.388 . S
C1595 C1594 1.366 . S
C1595 C1599 1.385 . S
C1596 H1577 0.951 . S
C1596 C1594 1.388 . S
C1596 C1597 1.366 . S
C1597 C1596 1.366 . S
C1597 C1598 1.414 . S
C1597 C1600 1.499 . S
C1598 H1578 0.950 . S
C1598 C1597 1.414 . S
C1598 C1599 1.374 . S
C1599 H1579 0.950 . S
C1599 C1595 1.385 . S
C1599 C1598 1.374 . S
C1600 C1597 1.499 . S
C1600 C1601 1.373 . S
C1600 C1602 1.389 . S
C1601 H1580 0.950 . S
C1601 C1600 1.373 . S
C1601 C1617 1.377 . S
C1602 C1600 1.389 . S
C1602 C1603 1.524 . S
C1602 C1616 1.377 . S
C1603 C1602 1.524 . S
C1603 C1604 1.397 . S
C1603 C1608 1.363 . S
C1604 H1581 0.950 . S
C1604 C1603 1.397 . S
C1604 C1605 1.334 . S
C1605 H1582 0.950 . S
C1605 C1604 1.334 . S
C1605 C1606 1.287 . S
C1606 C1605 1.287 . S
C1606 C1607 1.524 . S
C1606 H1625 0.913 . S
C1607 H1583 0.950 . S
C1607 C1606 1.524 . S
C1607 C1608 1.415 . S
C1608 H1584 0.950 . S
C1608 C1603 1.363 . S
C1608 C1607 1.415 . S
C1609 H1585 0.951 . S
C1609 C1610 1.366 . S
C1609 C1611 1.388 . S
C1610 C1609 1.366 . S
C1610 C1614 1.385 . S
C1611 H1586 0.951 . S
C1611 C1609 1.388 . S
C1611 C1612 1.366 . S
C1612 C1611 1.366 . S
C1612 C1613 1.414 . S
C1612 C1615 1.499 . S
C1613 H1587 0.950 . S
C1613 C1612 1.414 . S
C1613 C1614 1.374 . S
C1614 H1588 0.950 . S
C1614 C1610 1.385 . S
C1614 C1613 1.374 . S
C1615 C1612 1.499 . S
C1615 C1616 1.373 . S
C1615 C1617 1.389 . S
C1616 H1589 0.950 . S
C1616 C1602 1.377 . S
C1616 C1615 1.373 . S
C1617 C1601 1.377 . S
C1617 C1615 1.389 . S
C1617 C1618 1.524 . S
C1618 C1617 1.524 . S
C1618 C1619 1.397 . S
C1618 C1623 1.363 . S
C1619 H1590 0.950 . S
C1619 C1618 1.397 . S
C1619 C1620 1.334 . S
C1620 H1591 0.950 . S
C1620 C1619 1.334 . S
C1620 C1621 1.287 . S
C1621 C1620 1.287 . S
C1621 C1622 1.524 . S
C1621 H1624 0.999 . S
C1622 H1592 0.950 . S
C1622 C1621 1.524 . S
C1622 C1623 1.415 . S
C1623 H1593 0.950 . S
C1623 C1618 1.363 . S
C1623 C1622 1.415 . S
H1624 C1621 0.999 . S
H1625 C1606 0.913 . S
H1626 C1644 0.951 . S
H1627 C1646 0.951 . S
H1628 C1648 0.950 . S
H1629 C1649 0.950 . S
H1630 C1651 0.950 . S
H1631 C1654 0.950 . S
H1632 C1655 0.950 . S
H1633 C1657 0.950 . S
H1634 C1658 0.950 . S
H1635 C1659 0.951 . S
H1636 C1661 0.951 . S
H1637 C1663 0.950 . S
H1638 C1664 0.950 . S
H1639 C1666 0.950 . S
H1640 C1669 0.950 . S
H1641 C1670 0.950 . S
H1642 C1672 0.950 . S
H1643 C1673 0.950 . S
C1644 H1626 0.951 . S
C1644 C1645 1.366 . S
C1644 C1646 1.388 . S
C1645 C1644 1.366 . S
C1645 C1649 1.385 . S
C1646 H1627 0.951 . S
C1646 C1644 1.388 . S
C1646 C1647 1.366 . S
C1647 C1646 1.366 . S
C1647 C1648 1.414 . S
C1647 C1650 1.499 . S
C1648 H1628 0.950 . S
C1648 C1647 1.414 . S
C1648 C1649 1.374 . S
C1649 H1629 0.950 . S
C1649 C1645 1.385 . S
C1649 C1648 1.374 . S
C1650 C1647 1.499 . S
C1650 C1651 1.373 . S
C1650 C1652 1.389 . S
C1651 H1630 0.950 . S
C1651 C1650 1.373 . S
C1651 C1667 1.377 . S
C1652 C1650 1.389 . S
C1652 C1653 1.524 . S
C1652 C1666 1.377 . S
C1653 C1652 1.524 . S
C1653 C1654 1.397 . S
C1653 C1658 1.363 . S
C1654 H1631 0.950 . S
C1654 C1653 1.397 . S
C1654 C1655 1.334 . S
C1655 H1632 0.950 . S
C1655 C1654 1.334 . S
C1655 C1656 1.287 . S
C1656 C1655 1.287 . S
C1656 C1657 1.524 . S
C1656 H1675 0.913 . S
C1657 H1633 0.950 . S
C1657 C1656 1.524 . S
C1657 C1658 1.415 . S
C1658 H1634 0.950 . S
C1658 C1653 1.363 . S
C1658 C1657 1.415 . S
C1659 H1635 0.951 . S
C1659 C1660 1.366 . S
C1659 C1661 1.388 . S
C1660 C1659 1.366 . S
C1660 C1664 1.385 . S
C1661 H1636 0.951 . S
C1661 C1659 1.388 . S
C1661 C1662 1.366 . S
C1662 C1661 1.366 . S
C1662 C1663 1.414 . S
C1662 C1665 1.499 . S
C1663 H1637 0.950 . S
C1663 C1662 1.414 . S
C1663 C1664 1.374 . S
C1664 H1638 0.950 . S
C1664 C1660 1.385 . S
C1664 C1663 1.374 . S
C1665 C1662 1.499 . S
C1665 C1666 1.373 . S
C1665 C1667 1.389 . S
C1666 H1639 0.950 . S
C1666 C1652 1.377 . S
C1666 C1665 1.373 . S
C1667 C1651 1.377 . S
C1667 C1665 1.389 . S
C1667 C1668 1.524 . S
C1668 C1667 1.524 . S
C1668 C1669 1.397 . S
C1668 C1673 1.363 . S
C1669 H1640 0.950 . S
C1669 C1668 1.397 . S
C1669 C1670 1.334 . S
C1670 H1641 0.950 . S
C1670 C1669 1.334 . S
C1670 C1671 1.287 . S
C1671 C1670 1.287 . S
C1671 C1672 1.524 . S
C1671 H1674 0.999 . S
C1672 H1642 0.950 . S
C1672 C1671 1.524 . S
C1672 C1673 1.415 . S
C1673 H1643 0.950 . S
C1673 C1668 1.363 . S
C1673 C1672 1.415 . S
H1674 C1671 0.999 . S
H1675 C1656 0.913 . S
H1676 C1694 0.951 . S
H1677 C1696 0.951 . S
H1678 C1698 0.950 . S
H1679 C1699 0.950 . S
H1680 C1701 0.950 . S
H1681 C1704 0.950 . S
H1682 C1705 0.950 . S
H1683 C1707 0.950 . S
H1684 C1708 0.950 . S
H1685 C1709 0.951 . S
H1686 C1711 0.951 . S
H1687 C1713 0.950 . S
H1688 C1714 0.950 . S
H1689 C1716 0.950 . S
H1690 C1719 0.950 . S
H1691 C1720 0.950 . S
H1692 C1722 0.950 . S
H1693 C1723 0.950 . S
C1694 H1676 0.951 . S
C1694 C1695 1.366 . S
C1694 C1696 1.388 . S
C1695 C1694 1.366 . S
C1695 C1699 1.385 . S
C1696 H1677 0.951 . S
C1696 C1694 1.388 . S
C1696 C1697 1.366 . S
C1697 C1696 1.366 . S
C1697 C1698 1.414 . S
C1697 C1700 1.499 . S
C1698 H1678 0.950 . S
C1698 C1697 1.414 . S
C1698 C1699 1.374 . S
C1699 H1679 0.950 . S
C1699 C1695 1.385 . S
C1699 C1698 1.374 . S
C1700 C1697 1.499 . S
C1700 C1701 1.373 . S
C1700 C1702 1.389 . S
C1701 H1680 0.950 . S
C1701 C1700 1.373 . S
C1701 C1717 1.377 . S
C1702 C1700 1.389 . S
C1702 C1703 1.524 . S
C1702 C1716 1.377 . S
C1703 C1702 1.524 . S
C1703 C1704 1.397 . S
C1703 C1708 1.363 . S
C1704 H1681 0.950 . S
C1704 C1703 1.397 . S
C1704 C1705 1.334 . S
C1705 H1682 0.950 . S
C1705 C1704 1.334 . S
C1705 C1706 1.287 . S
C1706 C1705 1.287 . S
C1706 C1707 1.524 . S
C1706 H1725 0.913 . S
C1707 H1683 0.950 . S
C1707 C1706 1.524 . S
C1707 C1708 1.415 . S
C1708 H1684 0.950 . S
C1708 C1703 1.363 . S
C1708 C1707 1.415 . S
C1709 H1685 0.951 . S
C1709 C1710 1.366 . S
C1709 C1711 1.388 . S
C1710 C1709 1.366 . S
C1710 C1714 1.385 . S
C1711 H1686 0.951 . S
C1711 C1709 1.388 . S
C1711 C1712 1.366 . S
C1712 C1711 1.366 . S
C1712 C1713 1.414 . S
C1712 C1715 1.499 . S
C1713 H1687 0.950 . S
C1713 C1712 1.414 . S
C1713 C1714 1.374 . S
C1714 H1688 0.950 . S
C1714 C1710 1.385 . S
C1714 C1713 1.374 . S
C1715 C1712 1.499 . S
C1715 C1716 1.373 . S
C1715 C1717 1.389 . S
C1716 H1689 0.950 . S
C1716 C1702 1.377 . S
C1716 C1715 1.373 . S
C1717 C1701 1.377 . S
C1717 C1715 1.389 . S
C1717 C1718 1.524 . S
C1718 C1717 1.524 . S
C1718 C1719 1.397 . S
C1718 C1723 1.363 . S
C1719 H1690 0.950 . S
C1719 C1718 1.397 . S
C1719 C1720 1.334 . S
C1720 H1691 0.950 . S
C1720 C1719 1.334 . S
C1720 C1721 1.287 . S
C1721 C1720 1.287 . S
C1721 C1722 1.524 . S
C1721 H1724 0.999 . S
C1722 H1692 0.950 . S
C1722 C1721 1.524 . S
C1722 C1723 1.415 . S
C1723 H1693 0.950 . S
C1723 C1718 1.363 . S
C1723 C1722 1.415 . S
H1724 C1721 0.999 . S
H1725 C1706 0.913 . S
H1726 C1744 0.951 . S
H1727 C1746 0.951 . S
H1728 C1748 0.950 . S
H1729 C1749 0.950 . S
H1730 C1751 0.950 . S
H1731 C1754 0.950 . S
H1732 C1755 0.950 . S
H1733 C1757 0.950 . S
H1734 C1758 0.950 . S
H1735 C1759 0.951 . S
H1736 C1761 0.951 . S
H1737 C1763 0.950 . S
H1738 C1764 0.950 . S
H1739 C1766 0.950 . S
H1740 C1769 0.950 . S
H1741 C1770 0.950 . S
H1742 C1772 0.950 . S
H1743 C1773 0.950 . S
C1744 H1726 0.951 . S
C1744 C1745 1.366 . S
C1744 C1746 1.388 . S
C1745 C1744 1.366 . S
C1745 C1749 1.385 . S
C1746 H1727 0.951 . S
C1746 C1744 1.388 . S
C1746 C1747 1.366 . S
C1747 C1746 1.366 . S
C1747 C1748 1.414 . S
C1747 C1750 1.499 . S
C1748 H1728 0.950 . S
C1748 C1747 1.414 . S
C1748 C1749 1.374 . S
C1749 H1729 0.950 . S
C1749 C1745 1.385 . S
C1749 C1748 1.374 . S
C1750 C1747 1.499 . S
C1750 C1751 1.373 . S
C1750 C1752 1.389 . S
C1751 H1730 0.950 . S
C1751 C1750 1.373 . S
C1751 C1767 1.377 . S
C1752 C1750 1.389 . S
C1752 C1753 1.524 . S
C1752 C1766 1.377 . S
C1753 C1752 1.524 . S
C1753 C1754 1.397 . S
C1753 C1758 1.363 . S
C1754 H1731 0.950 . S
C1754 C1753 1.397 . S
C1754 C1755 1.334 . S
C1755 H1732 0.950 . S
C1755 C1754 1.334 . S
C1755 C1756 1.287 . S
C1756 C1755 1.287 . S
C1756 C1757 1.524 . S
C1756 H1775 0.913 . S
C1757 H1733 0.950 . S
C1757 C1756 1.524 . S
C1757 C1758 1.415 . S
C1758 H1734 0.950 . S
C1758 C1753 1.363 . S
C1758 C1757 1.415 . S
C1759 H1735 0.951 . S
C1759 C1760 1.366 . S
C1759 C1761 1.388 . S
C1760 C1759 1.366 . S
C1760 C1764 1.385 . S
C1761 H1736 0.951 . S
C1761 C1759 1.388 . S
C1761 C1762 1.366 . S
C1762 C1761 1.366 . S
C1762 C1763 1.414 . S
C1762 C1765 1.499 . S
C1763 H1737 0.950 . S
C1763 C1762 1.414 . S
C1763 C1764 1.374 . S
C1764 H1738 0.950 . S
C1764 C1760 1.385 . S
C1764 C1763 1.374 . S
C1765 C1762 1.499 . S
C1765 C1766 1.373 . S
C1765 C1767 1.389 . S
C1766 H1739 0.950 . S
C1766 C1752 1.377 . S
C1766 C1765 1.373 . S
C1767 C1751 1.377 . S
C1767 C1765 1.389 . S
C1767 C1768 1.524 . S
C1768 C1767 1.524 . S
C1768 C1769 1.397 . S
C1768 C1773 1.363 . S
C1769 H1740 0.950 . S
C1769 C1768 1.397 . S
C1769 C1770 1.334 . S
C1770 H1741 0.950 . S
C1770 C1769 1.334 . S
C1770 C1771 1.287 . S
C1771 C1770 1.287 . S
C1771 C1772 1.524 . S
C1771 H1774 0.999 . S
C1772 H1742 0.950 . S
C1772 C1771 1.524 . S
C1772 C1773 1.415 . S
C1773 H1743 0.950 . S
C1773 C1768 1.363 . S
C1773 C1772 1.415 . S
H1774 C1771 0.999 . S
H1775 C1756 0.913 . S
H1776 C1794 0.951 . S
H1777 C1796 0.951 . S
H1778 C1798 0.950 . S
H1779 C1799 0.950 . S
H1780 C1801 0.950 . S
H1781 C1804 0.950 . S
H1782 C1805 0.950 . S
H1783 C1807 0.950 . S
H1784 C1808 0.950 . S
H1785 C1809 0.951 . S
H1786 C1811 0.951 . S
H1787 C1813 0.950 . S
H1788 C1814 0.950 . S
H1789 C1816 0.950 . S
H1790 C1819 0.950 . S
H1791 C1820 0.950 . S
H1792 C1822 0.950 . S
H1793 C1823 0.950 . S
C1794 H1776 0.951 . S
C1794 C1795 1.366 . S
C1794 C1796 1.388 . S
C1795 C1794 1.366 . S
C1795 C1799 1.385 . S
C1796 H1777 0.951 . S
C1796 C1794 1.388 . S
C1796 C1797 1.366 . S
C1797 C1796 1.366 . S
C1797 C1798 1.414 . S
C1797 C1800 1.499 . S
C1798 H1778 0.950 . S
C1798 C1797 1.414 . S
C1798 C1799 1.374 . S
C1799 H1779 0.950 . S
C1799 C1795 1.385 . S
C1799 C1798 1.374 . S
C1800 C1797 1.499 . S
C1800 C1801 1.373 . S
C1800 C1802 1.389 . S
C1801 H1780 0.950 . S
C1801 C1800 1.373 . S
C1801 C1817 1.377 . S
C1802 C1800 1.389 . S
C1802 C1803 1.524 . S
C1802 C1816 1.377 . S
C1803 C1802 1.524 . S
C1803 C1804 1.397 . S
C1803 C1808 1.363 . S
C1804 H1781 0.950 . S
C1804 C1803 1.397 . S
C1804 C1805 1.334 . S
C1805 H1782 0.950 . S
C1805 C1804 1.334 . S
C1805 C1806 1.287 . S
C1806 C1805 1.287 . S
C1806 C1807 1.524 . S
C1806 H1825 0.913 . S
C1807 H1783 0.950 . S
C1807 C1806 1.524 . S
C1807 C1808 1.415 . S
C1808 H1784 0.950 . S
C1808 C1803 1.363 . S
C1808 C1807 1.415 . S
C1809 H1785 0.951 . S
C1809 C1810 1.366 . S
C1809 C1811 1.388 . S
C1810 C1809 1.366 . S
C1810 C1814 1.385 . S
C1811 H1786 0.951 . S
C1811 C1809 1.388 . S
C1811 C1812 1.366 . S
C1812 C1811 1.366 . S
C1812 C1813 1.414 . S
C1812 C1815 1.499 . S
C1813 H1787 0.950 . S
C1813 C1812 1.414 . S
C1813 C1814 1.374 . S
C1814 H1788 0.950 . S
C1814 C1810 1.385 . S
C1814 C1813 1.374 . S
C1815 C1812 1.499 . S
C1815 C1816 1.373 . S
C1815 C1817 1.389 . S
C1816 H1789 0.950 . S
C1816 C1802 1.377 . S
C1816 C1815 1.373 . S
C1817 C1801 1.377 . S
C1817 C1815 1.389 . S
C1817 C1818 1.524 . S
C1818 C1817 1.524 . S
C1818 C1819 1.397 . S
C1818 C1823 1.363 . S
C1819 H1790 0.950 . S
C1819 C1818 1.397 . S
C1819 C1820 1.334 . S
C1820 H1791 0.950 . S
C1820 C1819 1.334 . S
C1820 C1821 1.287 . S
C1821 C1820 1.287 . S
C1821 C1822 1.524 . S
C1821 H1824 0.999 . S
C1822 H1792 0.950 . S
C1822 C1821 1.524 . S
C1822 C1823 1.415 . S
C1823 H1793 0.950 . S
C1823 C1818 1.363 . S
C1823 C1822 1.415 . S
H1824 C1821 0.999 . S
H1825 C1806 0.913 . S
H1826 C1844 0.951 . S
H1827 C1846 0.951 . S
H1828 C1848 0.950 . S
H1829 C1849 0.950 . S
H1830 C1851 0.950 . S
H1831 C1854 0.950 . S
H1832 C1855 0.950 . S
H1833 C1857 0.950 . S
H1834 C1858 0.950 . S
H1835 C1859 0.951 . S
H1836 C1861 0.951 . S
H1837 C1863 0.950 . S
H1838 C1864 0.950 . S
H1839 C1866 0.950 . S
H1840 C1869 0.950 . S
H1841 C1870 0.950 . S
H1842 C1872 0.950 . S
H1843 C1873 0.950 . S
C1844 H1826 0.951 . S
C1844 C1845 1.366 . S
C1844 C1846 1.388 . S
C1845 C1844 1.366 . S
C1845 C1849 1.385 . S
C1846 H1827 0.951 . S
C1846 C1844 1.388 . S
C1846 C1847 1.366 . S
C1847 C1846 1.366 . S
C1847 C1848 1.414 . S
C1847 C1850 1.499 . S
C1848 H1828 0.950 . S
C1848 C1847 1.414 . S
C1848 C1849 1.374 . S
C1849 H1829 0.950 . S
C1849 C1845 1.385 . S
C1849 C1848 1.374 . S
C1850 C1847 1.499 . S
C1850 C1851 1.373 . S
C1850 C1852 1.389 . S
C1851 H1830 0.950 . S
C1851 C1850 1.373 . S
C1851 C1867 1.377 . S
C1852 C1850 1.389 . S
C1852 C1853 1.524 . S
C1852 C1866 1.377 . S
C1853 C1852 1.524 . S
C1853 C1854 1.397 . S
C1853 C1858 1.363 . S
C1854 H1831 0.950 . S
C1854 C1853 1.397 . S
C1854 C1855 1.334 . S
C1855 H1832 0.950 . S
C1855 C1854 1.334 . S
C1855 C1856 1.287 . S
C1856 C1855 1.287 . S
C1856 C1857 1.524 . S
C1856 H1875 0.913 . S
C1857 H1833 0.950 . S
C1857 C1856 1.524 . S
C1857 C1858 1.415 . S
C1858 H1834 0.950 . S
C1858 C1853 1.363 . S
C1858 C1857 1.415 . S
C1859 H1835 0.951 . S
C1859 C1860 1.366 . S
C1859 C1861 1.388 . S
C1860 C1859 1.366 . S
C1860 C1864 1.385 . S
C1861 H1836 0.951 . S
C1861 C1859 1.388 . S
C1861 C1862 1.366 . S
C1862 C1861 1.366 . S
C1862 C1863 1.414 . S
C1862 C1865 1.499 . S
C1863 H1837 0.950 . S
C1863 C1862 1.414 . S
C1863 C1864 1.374 . S
C1864 H1838 0.950 . S
C1864 C1860 1.385 . S
C1864 C1863 1.374 . S
C1865 C1862 1.499 . S
C1865 C1866 1.373 . S
C1865 C1867 1.389 . S
C1866 H1839 0.950 . S
C1866 C1852 1.377 . S
C1866 C1865 1.373 . S
C1867 C1851 1.377 . S
C1867 C1865 1.389 . S
C1867 C1868 1.524 . S
C1868 C1867 1.524 . S
C1868 C1869 1.397 . S
C1868 C1873 1.363 . S
C1869 H1840 0.950 . S
C1869 C1868 1.397 . S
C1869 C1870 1.334 . S
C1870 H1841 0.950 . S
C1870 C1869 1.334 . S
C1870 C1871 1.287 . S
C1871 C1870 1.287 . S
C1871 C1872 1.524 . S
C1871 H1874 0.999 . S
C1872 H1842 0.950 . S
C1872 C1871 1.524 . S
C1872 C1873 1.415 . S
C1873 H1843 0.950 . S
C1873 C1868 1.363 . S
C1873 C1872 1.415 . S
H1874 C1871 0.999 . S
H1875 C1856 0.913 . S
H1876 C1894 0.951 . S
H1877 C1896 0.951 . S
H1878 C1898 0.950 . S
H1879 C1899 0.950 . S
H1880 C1901 0.950 . S
H1881 C1904 0.950 . S
H1882 C1905 0.950 . S
H1883 C1907 0.950 . S
H1884 C1908 0.950 . S
H1885 C1909 0.951 . S
H1886 C1911 0.951 . S
H1887 C1913 0.950 . S
H1888 C1914 0.950 . S
H1889 C1916 0.950 . S
H1890 C1919 0.950 . S
H1891 C1920 0.950 . S
H1892 C1922 0.950 . S
H1893 C1923 0.950 . S
C1894 H1876 0.951 . S
C1894 C1895 1.366 . S
C1894 C1896 1.388 . S
C1895 C1894 1.366 . S
C1895 C1899 1.385 . S
C1896 H1877 0.951 . S
C1896 C1894 1.388 . S
C1896 C1897 1.366 . S
C1897 C1896 1.366 . S
C1897 C1898 1.414 . S
C1897 C1900 1.499 . S
C1898 H1878 0.950 . S
C1898 C1897 1.414 . S
C1898 C1899 1.374 . S
C1899 H1879 0.950 . S
C1899 C1895 1.385 . S
C1899 C1898 1.374 . S
C1900 C1897 1.499 . S
C1900 C1901 1.373 . S
C1900 C1902 1.389 . S
C1901 H1880 0.950 . S
C1901 C1900 1.373 . S
C1901 C1917 1.377 . S
C1902 C1900 1.389 . S
C1902 C1903 1.524 . S
C1902 C1916 1.377 . S
C1903 C1902 1.524 . S
C1903 C1904 1.397 . S
C1903 C1908 1.363 . S
C1904 H1881 0.950 . S
C1904 C1903 1.397 . S
C1904 C1905 1.334 . S
C1905 H1882 0.950 . S
C1905 C1904 1.334 . S
C1905 C1906 1.287 . S
C1906 C1905 1.287 . S
C1906 C1907 1.524 . S
C1906 H1925 0.913 . S
C1907 H1883 0.950 . S
C1907 C1906 1.524 . S
C1907 C1908 1.415 . S
C1908 H1884 0.950 . S
C1908 C1903 1.363 . S
C1908 C1907 1.415 . S
C1909 H1885 0.951 . S
C1909 C1910 1.366 . S
C1909 C1911 1.388 . S
C1910 C1909 1.366 . S
C1910 C1914 1.385 . S
C1911 H1886 0.951 . S
C1911 C1909 1.388 . S
C1911 C1912 1.366 . S
C1912 C1911 1.366 . S
C1912 C1913 1.414 . S
C1912 C1915 1.499 . S
C1913 H1887 0.950 . S
C1913 C1912 1.414 . S
C1913 C1914 1.374 . S
C1914 H1888 0.950 . S
C1914 C1910 1.385 . S
C1914 C1913 1.374 . S
C1915 C1912 1.499 . S
C1915 C1916 1.373 . S
C1915 C1917 1.389 . S
C1916 H1889 0.950 . S
C1916 C1902 1.377 . S
C1916 C1915 1.373 . S
C1917 C1901 1.377 . S
C1917 C1915 1.389 . S
C1917 C1918 1.524 . S
C1918 C1917 1.524 . S
C1918 C1919 1.397 . S
C1918 C1923 1.363 . S
C1919 H1890 0.950 . S
C1919 C1918 1.397 . S
C1919 C1920 1.334 . S
C1920 H1891 0.950 . S
C1920 C1919 1.334 . S
C1920 C1921 1.287 . S
C1921 C1920 1.287 . S
C1921 C1922 1.524 . S
C1921 H1924 0.999 . S
C1922 H1892 0.950 . S
C1922 C1921 1.524 . S
C1922 C1923 1.415 . S
C1923 H1893 0.950 . S
C1923 C1918 1.363 . S
C1923 C1922 1.415 . S
H1924 C1921 0.999 . S
H1925 C1906 0.913 . S
H1926 C1944 0.951 . S
H1927 C1946 0.951 . S
H1928 C1948 0.950 . S
H1929 C1949 0.950 . S
H1930 C1951 0.950 . S
H1931 C1954 0.950 . S
H1932 C1955 0.950 . S
H1933 C1957 0.950 . S
H1934 C1958 0.950 . S
H1935 C1959 0.951 . S
H1936 C1961 0.951 . S
H1937 C1963 0.950 . S
H1938 C1964 0.950 . S
H1939 C1966 0.950 . S
H1940 C1969 0.950 . S
H1941 C1970 0.950 . S
H1942 C1972 0.950 . S
H1943 C1973 0.950 . S
C1944 H1926 0.951 . S
C1944 C1945 1.366 . S
C1944 C1946 1.388 . S
C1945 C1944 1.366 . S
C1945 C1949 1.385 . S
C1946 H1927 0.951 . S
C1946 C1944 1.388 . S
C1946 C1947 1.366 . S
C1947 C1946 1.366 . S
C1947 C1948 1.414 . S
C1947 C1950 1.499 . S
C1948 H1928 0.950 . S
C1948 C1947 1.414 . S
C1948 C1949 1.374 . S
C1949 H1929 0.950 . S
C1949 C1945 1.385 . S
C1949 C1948 1.374 . S
C1950 C1947 1.499 . S
C1950 C1951 1.373 . S
C1950 C1952 1.389 . S
C1951 H1930 0.950 . S
C1951 C1950 1.373 . S
C1951 C1967 1.377 . S
C1952 C1950 1.389 . S
C1952 C1953 1.524 . S
C1952 C1966 1.377 . S
C1953 C1952 1.524 . S
C1953 C1954 1.397 . S
C1953 C1958 1.363 . S
C1954 H1931 0.950 . S
C1954 C1953 1.397 . S
C1954 C1955 1.334 . S
C1955 H1932 0.950 . S
C1955 C1954 1.334 . S
C1955 C1956 1.287 . S
C1956 C1955 1.287 . S
C1956 C1957 1.524 . S
C1956 H1975 0.913 . S
C1957 H1933 0.950 . S
C1957 C1956 1.524 . S
C1957 C1958 1.415 . S
C1958 H1934 0.950 . S
C1958 C1953 1.363 . S
C1958 C1957 1.415 . S
C1959 H1935 0.951 . S
C1959 C1960 1.366 . S
C1959 C1961 1.388 . S
C1960 C1959 1.366 . S
C1960 C1964 1.385 . S
C1961 H1936 0.951 . S
C1961 C1959 1.388 . S
C1961 C1962 1.366 . S
C1962 C1961 1.366 . S
C1962 C1963 1.414 . S
C1962 C1965 1.499 . S
C1963 H1937 0.950 . S
C1963 C1962 1.414 . S
C1963 C1964 1.374 . S
C1964 H1938 0.950 . S
C1964 C1960 1.385 . S
C1964 C1963 1.374 . S
C1965 C1962 1.499 . S
C1965 C1966 1.373 . S
C1965 C1967 1.389 . S
C1966 H1939 0.950 . S
C1966 C1952 1.377 . S
C1966 C1965 1.373 . S
C1967 C1951 1.377 . S
C1967 C1965 1.389 . S
C1967 C1968 1.524 . S
C1968 C1967 1.524 . S
C1968 C1969 1.397 . S
C1968 C1973 1.363 . S
C1969 H1940 0.950 . S
C1969 C1968 1.397 . S
C1969 C1970 1.334 . S
C1970 H1941 0.950 . S
C1970 C1969 1.334 . S
C1970 C1971 1.287 . S
C1971 C1970 1.287 . S
C1971 C1972 1.524 . S
C1971 H1974 0.999 . S
C1972 H1942 0.950 . S
C1972 C1971 1.524 . S
C1972 C1973 1.415 . S
C1973 H1943 0.950 . S
C1973 C1968 1.363 . S
C1973 C1972 1.415 . S
H1974 C1971 0.999 . S
H1975 C1956 0.913 . S
H1976 C1994 0.951 . S
H1977 C1996 0.951 . S
H1978 C1998 0.950 . S
H1979 C1999 0.950 . S
H1980 C2001 0.950 . S
H1981 C2004 0.950 . S
H1982 C2005 0.950 . S
H1983 C2007 0.950 . S
H1984 C2008 0.950 . S
H1985 C2009 0.951 . S
H1986 C2011 0.951 . S
H1987 C2013 0.950 . S
H1988 C2014 0.950 . S
H1989 C2016 0.950 . S
H1990 C2019 0.950 . S
H1991 C2020 0.950 . S
H1992 C2022 0.950 . S
H1993 C2023 0.950 . S
C1994 H1976 0.951 . S
C1994 C1995 1.366 . S
C1994 C1996 1.388 . S
C1995 C1994 1.366 . S
C1995 C1999 1.385 . S
C1996 H1977 0.951 . S
C1996 C1994 1.388 . S
C1996 C1997 1.366 . S
C1997 C1996 1.366 . S
C1997 C1998 1.414 . S
C1997 C2000 1.499 . S
C1998 H1978 0.950 . S
C1998 C1997 1.414 . S
C1998 C1999 1.374 . S
C1999 H1979 0.950 . S
C1999 C1995 1.385 . S
C1999 C1998 1.374 . S
C2000 C1997 1.499 . S
C2000 C2001 1.373 . S
C2000 C2002 1.389 . S
C2001 H1980 0.950 . S
C2001 C2000 1.373 . S
C2001 C2017 1.377 . S
C2002 C2000 1.389 . S
C2002 C2003 1.524 . S
C2002 C2016 1.377 . S
C2003 C2002 1.524 . S
C2003 C2004 1.397 . S
C2003 C2008 1.363 . S
C2004 H1981 0.950 . S
C2004 C2003 1.397 . S
C2004 C2005 1.334 . S
C2005 H1982 0.950 . S
C2005 C2004 1.334 . S
C2005 C2006 1.287 . S
C2006 C2005 1.287 . S
C2006 C2007 1.524 . S
C2006 H2025 0.913 . S
C2007 H1983 0.950 . S
C2007 C2006 1.524 . S
C2007 C2008 1.415 . S
C2008 H1984 0.950 . S
C2008 C2003 1.363 . S
C2008 C2007 1.415 . S
C2009 H1985 0.951 . S
C2009 C2010 1.366 . S
C2009 C2011 1.388 . S
C2010 C2009 1.366 . S
C2010 C2014 1.385 . S
C2011 H1986 0.951 . S
C2011 C2009 1.388 . S
C2011 C2012 1.366 . S
C2012 C2011 1.366 . S
C2012 C2013 1.414 . S
C2012 C2015 1.499 . S
C2013 H1987 0.950 . S
C2013 C2012 1.414 . S
C2013 C2014 1.374 . S
C2014 H1988 0.950 . S
C2014 C2010 1.385 . S
C2014 C2013 1.374 . S
C2015 C2012 1.499 . S
C2015 C2016 1.373 . S
C2015 C2017 1.389 . S
C2016 H1989 0.950 . S
C2016 C2002 1.377 . S
C2016 C2015 1.373 . S
C2017 C2001 1.377 . S
C2017 C2015 1.389 . S
C2017 C2018 1.524 . S
C2018 C2017 1.524 . S
C2018 C2019 1.397 . S
C2018 C2023 1.363 . S
C2019 H1990 0.950 . S
C2019 C2018 1.397 . S
C2019 C2020 1.334 . S
C2020 H1991 0.950 . S
C2020 C2019 1.334 . S
C2020 C2021 1.287 . S
C2021 C2020 1.287 . S
C2021 C2022 1.524 . S
C2021 H2024 0.999 . S
C2022 H1992 0.950 . S
C2022 C2021 1.524 . S
C2022 C2023 1.415 . S
C2023 H1993 0.950 . S
C2023 C2018 1.363 . S
C2023 C2022 1.415 . S
H2024 C2021 0.999 . S
H2025 C2006 0.913 . S
H2026 C2044 0.951 . S
H2027 C2046 0.951 . S
H2028 C2048 0.950 . S
H2029 C2049 0.950 . S
H2030 C2051 0.950 . S
H2031 C2054 0.950 . S
H2032 C2055 0.950 . S
H2033 C2057 0.950 . S
H2034 C2058 0.950 . S
H2035 C2059 0.951 . S
H2036 C2061 0.951 . S
H2037 C2063 0.950 . S
H2038 C2064 0.950 . S
H2039 C2066 0.950 . S
H2040 C2069 0.950 . S
H2041 C2070 0.950 . S
H2042 C2072 0.950 . S
H2043 C2073 0.950 . S
C2044 H2026 0.951 . S
C2044 C2045 1.366 . S
C2044 C2046 1.388 . S
C2045 C2044 1.366 . S
C2045 C2049 1.385 . S
C2046 H2027 0.951 . S
C2046 C2044 1.388 . S
C2046 C2047 1.366 . S
C2047 C2046 1.366 . S
C2047 C2048 1.414 . S
C2047 C2050 1.499 . S
C2048 H2028 0.950 . S
C2048 C2047 1.414 . S
C2048 C2049 1.374 . S
C2049 H2029 0.950 . S
C2049 C2045 1.385 . S
C2049 C2048 1.374 . S
C2050 C2047 1.499 . S
C2050 C2051 1.373 . S
C2050 C2052 1.389 . S
C2051 H2030 0.950 . S
C2051 C2050 1.373 . S
C2051 C2067 1.377 . S
C2052 C2050 1.389 . S
C2052 C2053 1.524 . S
C2052 C2066 1.377 . S
C2053 C2052 1.524 . S
C2053 C2054 1.397 . S
C2053 C2058 1.363 . S
C2054 H2031 0.950 . S
C2054 C2053 1.397 . S
C2054 C2055 1.334 . S
C2055 H2032 0.950 . S
C2055 C2054 1.334 . S
C2055 C2056 1.287 . S
C2056 C2055 1.287 . S
C2056 C2057 1.524 . S
C2056 H2075 0.913 . S
C2057 H2033 0.950 . S
C2057 C2056 1.524 . S
C2057 C2058 1.415 . S
C2058 H2034 0.950 . S
C2058 C2053 1.363 . S
C2058 C2057 1.415 . S
C2059 H2035 0.951 . S
C2059 C2060 1.366 . S
C2059 C2061 1.388 . S
C2060 C2059 1.366 . S
C2060 C2064 1.385 . S
C2061 H2036 0.951 . S
C2061 C2059 1.388 . S
C2061 C2062 1.366 . S
C2062 C2061 1.366 . S
C2062 C2063 1.414 . S
C2062 C2065 1.499 . S
C2063 H2037 0.950 . S
C2063 C2062 1.414 . S
C2063 C2064 1.374 . S
C2064 H2038 0.950 . S
C2064 C2060 1.385 . S
C2064 C2063 1.374 . S
C2065 C2062 1.499 . S
C2065 C2066 1.373 . S
C2065 C2067 1.389 . S
C2066 H2039 0.950 . S
C2066 C2052 1.377 . S
C2066 C2065 1.373 . S
C2067 C2051 1.377 . S
C2067 C2065 1.389 . S
C2067 C2068 1.524 . S
C2068 C2067 1.524 . S
C2068 C2069 1.397 . S
C2068 C2073 1.363 . S
C2069 H2040 0.950 . S
C2069 C2068 1.397 . S
C2069 C2070 1.334 . S
C2070 H2041 0.950 . S
C2070 C2069 1.334 . S
C2070 C2071 1.287 . S
C2071 C2070 1.287 . S
C2071 C2072 1.524 . S
C2071 H2074 0.999 . S
C2072 H2042 0.950 . S
C2072 C2071 1.524 . S
C2072 C2073 1.415 . S
C2073 H2043 0.950 . S
C2073 C2068 1.363 . S
C2073 C2072 1.415 . S
H2074 C2071 0.999 . S
H2075 C2056 0.913 . S
H2076 C2094 0.951 . S
H2077 C2096 0.951 . S
H2078 C2098 0.950 . S
H2079 C2099 0.950 . S
H2080 C2101 0.950 . S
H2081 C2104 0.950 . S
H2082 C2105 0.950 . S
H2083 C2107 0.950 . S
H2084 C2108 0.950 . S
H2085 C2109 0.951 . S
H2086 C2111 0.951 . S
H2087 C2113 0.950 . S
H2088 C2114 0.950 . S
H2089 C2116 0.950 . S
H2090 C2119 0.950 . S
H2091 C2120 0.950 . S
H2092 C2122 0.950 . S
H2093 C2123 0.950 . S
C2094 H2076 0.951 . S
C2094 C2095 1.366 . S
C2094 C2096 1.388 . S
C2095 C2094 1.366 . S
C2095 C2099 1.385 . S
C2096 H2077 0.951 . S
C2096 C2094 1.388 . S
C2096 C2097 1.366 . S
C2097 C2096 1.366 . S
C2097 C2098 1.414 . S
C2097 C2100 1.499 . S
C2098 H2078 0.950 . S
C2098 C2097 1.414 . S
C2098 C2099 1.374 . S
C2099 H2079 0.950 . S
C2099 C2095 1.385 . S
C2099 C2098 1.374 . S
C2100 C2097 1.499 . S
C2100 C2101 1.373 . S
C2100 C2102 1.389 . S
C2101 H2080 0.950 . S
C2101 C2100 1.373 . S
C2101 C2117 1.377 . S
C2102 C2100 1.389 . S
C2102 C2103 1.524 . S
C2102 C2116 1.377 . S
C2103 C2102 1.524 . S
C2103 C2104 1.397 . S
C2103 C2108 1.363 . S
C2104 H2081 0.950 . S
C2104 C2103 1.397 . S
C2104 C2105 1.334 . S
C2105 H2082 0.950 . S
C2105 C2104 1.334 . S
C2105 C2106 1.287 . S
C2106 C2105 1.287 . S
C2106 C2107 1.524 . S
C2106 H2125 0.913 . S
C2107 H2083 0.950 . S
C2107 C2106 1.524 . S
C2107 C2108 1.415 . S
C2108 H2084 0.950 . S
C2108 C2103 1.363 . S
C2108 C2107 1.415 . S
C2109 H2085 0.951 . S
C2109 C2110 1.366 . S
C2109 C2111 1.388 . S
C2110 C2109 1.366 . S
C2110 C2114 1.385 . S
C2111 H2086 0.951 . S
C2111 C2109 1.388 . S
C2111 C2112 1.366 . S
C2112 C2111 1.366 . S
C2112 C2113 1.414 . S
C2112 C2115 1.499 . S
C2113 H2087 0.950 . S
C2113 C2112 1.414 . S
C2113 C2114 1.374 . S
C2114 H2088 0.950 . S
C2114 C2110 1.385 . S
C2114 C2113 1.374 . S
C2115 C2112 1.499 . S
C2115 C2116 1.373 . S
C2115 C2117 1.389 . S
C2116 H2089 0.950 . S
C2116 C2102 1.377 . S
C2116 C2115 1.373 . S
C2117 C2101 1.377 . S
C2117 C2115 1.389 . S
C2117 C2118 1.524 . S
C2118 C2117 1.524 . S
C2118 C2119 1.397 . S
C2118 C2123 1.363 . S
C2119 H2090 0.950 . S
C2119 C2118 1.397 . S
C2119 C2120 1.334 . S
C2120 H2091 0.950 . S
C2120 C2119 1.334 . S
C2120 C2121 1.287 . S
C2121 C2120 1.287 . S
C2121 C2122 1.524 . S
C2121 H2124 0.999 . S
C2122 H2092 0.950 . S
C2122 C2121 1.524 . S
C2122 C2123 1.415 . S
C2123 H2093 0.950 . S
C2123 C2118 1.363 . S
C2123 C2122 1.415 . S
H2124 C2121 0.999 . S
H2125 C2106 0.913 . S
H2126 C2144 0.951 . S
H2127 C2146 0.951 . S
H2128 C2148 0.950 . S
H2129 C2149 0.950 . S
H2130 C2151 0.950 . S
H2131 C2154 0.950 . S
H2132 C2155 0.950 . S
H2133 C2157 0.950 . S
H2134 C2158 0.950 . S
H2135 C2159 0.951 . S
H2136 C2161 0.951 . S
H2137 C2163 0.950 . S
H2138 C2164 0.950 . S
H2139 C2166 0.950 . S
H2140 C2169 0.950 . S
H2141 C2170 0.950 . S
H2142 C2172 0.950 . S
H2143 C2173 0.950 . S
C2144 H2126 0.951 . S
C2144 C2145 1.366 . S
C2144 C2146 1.388 . S
C2145 C2144 1.366 . S
C2145 C2149 1.385 . S
C2146 H2127 0.951 . S
C2146 C2144 1.388 . S
C2146 C2147 1.366 . S
C2147 C2146 1.366 . S
C2147 C2148 1.414 . S
C2147 C2150 1.499 . S
C2148 H2128 0.950 . S
C2148 C2147 1.414 . S
C2148 C2149 1.374 . S
C2149 H2129 0.950 . S
C2149 C2145 1.385 . S
C2149 C2148 1.374 . S
C2150 C2147 1.499 . S
C2150 C2151 1.373 . S
C2150 C2152 1.389 . S
C2151 H2130 0.950 . S
C2151 C2150 1.373 . S
C2151 C2167 1.377 . S
C2152 C2150 1.389 . S
C2152 C2153 1.524 . S
C2152 C2166 1.377 . S
C2153 C2152 1.524 . S
C2153 C2154 1.397 . S
C2153 C2158 1.363 . S
C2154 H2131 0.950 . S
C2154 C2153 1.397 . S
C2154 C2155 1.334 . S
C2155 H2132 0.950 . S
C2155 C2154 1.334 . S
C2155 C2156 1.287 . S
C2156 C2155 1.287 . S
C2156 C2157 1.524 . S
C2156 H2175 0.913 . S
C2157 H2133 0.950 . S
C2157 C2156 1.524 . S
C2157 C2158 1.415 . S
C2158 H2134 0.950 . S
C2158 C2153 1.363 . S
C2158 C2157 1.415 . S
C2159 H2135 0.951 . S
C2159 C2160 1.366 . S
C2159 C2161 1.388 . S
C2160 C2159 1.366 . S
C2160 C2164 1.385 . S
C2161 H2136 0.951 . S
C2161 C2159 1.388 . S
C2161 C2162 1.366 . S
C2162 C2161 1.366 . S
C2162 C2163 1.414 . S
C2162 C2165 1.499 . S
C2163 H2137 0.950 . S
C2163 C2162 1.414 . S
C2163 C2164 1.374 . S
C2164 H2138 0.950 . S
C2164 C2160 1.385 . S
C2164 C2163 1.374 . S
C2165 C2162 1.499 . S
C2165 C2166 1.373 . S
C2165 C2167 1.389 . S
C2166 H2139 0.950 . S
C2166 C2152 1.377 . S
C2166 C2165 1.373 . S
C2167 C2151 1.377 . S
C2167 C2165 1.389 . S
C2167 C2168 1.524 . S
C2168 C2167 1.524 . S
C2168 C2169 1.397 . S
C2168 C2173 1.363 . S
C2169 H2140 0.950 . S
C2169 C2168 1.397 . S
C2169 C2170 1.334 . S
C2170 H2141 0.950 . S
C2170 C2169 1.334 . S
C2170 C2171 1.287 . S
C2171 C2170 1.287 . S
C2171 C2172 1.524 . S
C2171 H2174 0.999 . S
C2172 H2142 0.950 . S
C2172 C2171 1.524 . S
C2172 C2173 1.415 . S
C2173 H2143 0.950 . S
C2173 C2168 1.363 . S
C2173 C2172 1.415 . S
H2174 C2171 0.999 . S
H2175 C2156 0.913 . S
H2176 C2194 0.951 . S
H2177 C2196 0.951 . S
H2178 C2198 0.950 . S
H2179 C2199 0.950 . S
H2180 C2201 0.950 . S
H2181 C2204 0.950 . S
H2182 C2205 0.950 . S
H2183 C2207 0.950 . S
H2184 C2208 0.950 . S
H2185 C2209 0.951 . S
H2186 C2211 0.951 . S
H2187 C2213 0.950 . S
H2188 C2214 0.950 . S
H2189 C2216 0.950 . S
H2190 C2219 0.950 . S
H2191 C2220 0.950 . S
H2192 C2222 0.950 . S
H2193 C2223 0.950 . S
C2194 H2176 0.951 . S
C2194 C2195 1.366 . S
C2194 C2196 1.388 . S
C2195 C2194 1.366 . S
C2195 C2199 1.385 . S
C2196 H2177 0.951 . S
C2196 C2194 1.388 . S
C2196 C2197 1.366 . S
C2197 C2196 1.366 . S
C2197 C2198 1.414 . S
C2197 C2200 1.499 . S
C2198 H2178 0.950 . S
C2198 C2197 1.414 . S
C2198 C2199 1.374 . S
C2199 H2179 0.950 . S
C2199 C2195 1.385 . S
C2199 C2198 1.374 . S
C2200 C2197 1.499 . S
C2200 C2201 1.373 . S
C2200 C2202 1.389 . S
C2201 H2180 0.950 . S
C2201 C2200 1.373 . S
C2201 C2217 1.377 . S
C2202 C2200 1.389 . S
C2202 C2203 1.524 . S
C2202 C2216 1.377 . S
C2203 C2202 1.524 . S
C2203 C2204 1.397 . S
C2203 C2208 1.363 . S
C2204 H2181 0.950 . S
C2204 C2203 1.397 . S
C2204 C2205 1.334 . S
C2205 H2182 0.950 . S
C2205 C2204 1.334 . S
C2205 C2206 1.287 . S
C2206 C2205 1.287 . S
C2206 C2207 1.524 . S
C2206 H2225 0.913 . S
C2207 H2183 0.950 . S
C2207 C2206 1.524 . S
C2207 C2208 1.415 . S
C2208 H2184 0.950 . S
C2208 C2203 1.363 . S
C2208 C2207 1.415 . S
C2209 H2185 0.951 . S
C2209 C2210 1.366 . S
C2209 C2211 1.388 . S
C2210 C2209 1.366 . S
C2210 C2214 1.385 . S
C2211 H2186 0.951 . S
C2211 C2209 1.388 . S
C2211 C2212 1.366 . S
C2212 C2211 1.366 . S
C2212 C2213 1.414 . S
C2212 C2215 1.499 . S
C2213 H2187 0.950 . S
C2213 C2212 1.414 . S
C2213 C2214 1.374 . S
C2214 H2188 0.950 . S
C2214 C2210 1.385 . S
C2214 C2213 1.374 . S
C2215 C2212 1.499 . S
C2215 C2216 1.373 . S
C2215 C2217 1.389 . S
C2216 H2189 0.950 . S
C2216 C2202 1.377 . S
C2216 C2215 1.373 . S
C2217 C2201 1.377 . S
C2217 C2215 1.389 . S
C2217 C2218 1.524 . S
C2218 C2217 1.524 . S
C2218 C2219 1.397 . S
C2218 C2223 1.363 . S
C2219 H2190 0.950 . S
C2219 C2218 1.397 . S
C2219 C2220 1.334 . S
C2220 H2191 0.950 . S
C2220 C2219 1.334 . S
C2220 C2221 1.287 . S
C2221 C2220 1.287 . S
C2221 C2222 1.524 . S
C2221 H2224 0.999 . S
C2222 H2192 0.950 . S
C2222 C2221 1.524 . S
C2222 C2223 1.415 . S
C2223 H2193 0.950 . S
C2223 C2218 1.363 . S
C2223 C2222 1.415 . S
H2224 C2221 0.999 . S
H2225 C2206 0.913 . S
H2226 C2244 0.951 . S
H2227 C2246 0.951 . S
H2228 C2248 0.950 . S
H2229 C2249 0.950 . S
H2230 C2251 0.950 . S
H2231 C2254 0.950 . S
H2232 C2255 0.950 . S
H2233 C2257 0.950 . S
H2234 C2258 0.950 . S
H2235 C2259 0.951 . S
H2236 C2261 0.951 . S
H2237 C2263 0.950 . S
H2238 C2264 0.950 . S
H2239 C2266 0.950 . S
H2240 C2269 0.950 . S
H2241 C2270 0.950 . S
H2242 C2272 0.950 . S
H2243 C2273 0.950 . S
C2244 H2226 0.951 . S
C2244 C2245 1.366 . S
C2244 C2246 1.388 . S
C2245 C2244 1.366 . S
C2245 C2249 1.385 . S
C2246 H2227 0.951 . S
C2246 C2244 1.388 . S
C2246 C2247 1.366 . S
C2247 C2246 1.366 . S
C2247 C2248 1.414 . S
C2247 C2250 1.499 . S
C2248 H2228 0.950 . S
C2248 C2247 1.414 . S
C2248 C2249 1.374 . S
C2249 H2229 0.950 . S
C2249 C2245 1.385 . S
C2249 C2248 1.374 . S
C2250 C2247 1.499 . S
C2250 C2251 1.373 . S
C2250 C2252 1.389 . S
C2251 H2230 0.950 . S
C2251 C2250 1.373 . S
C2251 C2267 1.377 . S
C2252 C2250 1.389 . S
C2252 C2253 1.524 . S
C2252 C2266 1.377 . S
C2253 C2252 1.524 . S
C2253 C2254 1.397 . S
C2253 C2258 1.363 . S
C2254 H2231 0.950 . S
C2254 C2253 1.397 . S
C2254 C2255 1.334 . S
C2255 H2232 0.950 . S
C2255 C2254 1.334 . S
C2255 C2256 1.287 . S
C2256 C2255 1.287 . S
C2256 C2257 1.524 . S
C2256 H2275 0.913 . S
C2257 H2233 0.950 . S
C2257 C2256 1.524 . S
C2257 C2258 1.415 . S
C2258 H2234 0.950 . S
C2258 C2253 1.363 . S
C2258 C2257 1.415 . S
C2259 H2235 0.951 . S
C2259 C2260 1.366 . S
C2259 C2261 1.388 . S
C2260 C2259 1.366 . S
C2260 C2264 1.385 . S
C2261 H2236 0.951 . S
C2261 C2259 1.388 . S
C2261 C2262 1.366 . S
C2262 C2261 1.366 . S
C2262 C2263 1.414 . S
C2262 C2265 1.499 . S
C2263 H2237 0.950 . S
C2263 C2262 1.414 . S
C2263 C2264 1.374 . S
C2264 H2238 0.950 . S
C2264 C2260 1.385 . S
C2264 C2263 1.374 . S
C2265 C2262 1.499 . S
C2265 C2266 1.373 . S
C2265 C2267 1.389 . S
C2266 H2239 0.950 . S
C2266 C2252 1.377 . S
C2266 C2265 1.373 . S
C2267 C2251 1.377 . S
C2267 C2265 1.389 . S
C2267 C2268 1.524 . S
C2268 C2267 1.524 . S
C2268 C2269 1.397 . S
C2268 C2273 1.363 . S
C2269 H2240 0.950 . S
C2269 C2268 1.397 . S
C2269 C2270 1.334 . S
C2270 H2241 0.950 . S
C2270 C2269 1.334 . S
C2270 C2271 1.287 . S
C2271 C2270 1.287 . S
C2271 C2272 1.524 . S
C2271 H2274 0.999 . S
C2272 H2242 0.950 . S
C2272 C2271 1.524 . S
C2272 C2273 1.415 . S
C2273 H2243 0.950 . S
C2273 C2268 1.363 . S
C2273 C2272 1.415 . S
H2274 C2271 0.999 . S
H2275 C2256 0.913 . S
H2276 C2294 0.951 . S
H2277 C2296 0.951 . S
H2278 C2298 0.950 . S
H2279 C2299 0.950 . S
H2280 C2301 0.950 . S
H2281 C2304 0.950 . S
H2282 C2305 0.950 . S
H2283 C2307 0.950 . S
H2284 C2308 0.950 . S
H2285 C2309 0.951 . S
H2286 C2311 0.951 . S
H2287 C2313 0.950 . S
H2288 C2314 0.950 . S
H2289 C2316 0.950 . S
H2290 C2319 0.950 . S
H2291 C2320 0.950 . S
H2292 C2322 0.950 . S
H2293 C2323 0.950 . S
C2294 H2276 0.951 . S
C2294 C2295 1.366 . S
C2294 C2296 1.388 . S
C2295 C2294 1.366 . S
C2295 C2299 1.385 . S
C2296 H2277 0.951 . S
C2296 C2294 1.388 . S
C2296 C2297 1.366 . S
C2297 C2296 1.366 . S
C2297 C2298 1.414 . S
C2297 C2300 1.499 . S
C2298 H2278 0.950 . S
C2298 C2297 1.414 . S
C2298 C2299 1.374 . S
C2299 H2279 0.950 . S
C2299 C2295 1.385 . S
C2299 C2298 1.374 . S
C2300 C2297 1.499 . S
C2300 C2301 1.373 . S
C2300 C2302 1.389 . S
C2301 H2280 0.950 . S
C2301 C2300 1.373 . S
C2301 C2317 1.377 . S
C2302 C2300 1.389 . S
C2302 C2303 1.524 . S
C2302 C2316 1.377 . S
C2303 C2302 1.524 . S
C2303 C2304 1.397 . S
C2303 C2308 1.363 . S
C2304 H2281 0.950 . S
C2304 C2303 1.397 . S
C2304 C2305 1.334 . S
C2305 H2282 0.950 . S
C2305 C2304 1.334 . S
C2305 C2306 1.287 . S
C2306 C2305 1.287 . S
C2306 C2307 1.524 . S
C2306 H2325 0.913 . S
C2307 H2283 0.950 . S
C2307 C2306 1.524 . S
C2307 C2308 1.415 . S
C2308 H2284 0.950 . S
C2308 C2303 1.363 . S
C2308 C2307 1.415 . S
C2309 H2285 0.951 . S
C2309 C2310 1.366 . S
C2309 C2311 1.388 . S
C2310 C2309 1.366 . S
C2310 C2314 1.385 . S
C2311 H2286 0.951 . S
C2311 C2309 1.388 . S
C2311 C2312 1.366 . S
C2312 C2311 1.366 . S
C2312 C2313 1.414 . S
C2312 C2315 1.499 . S
C2313 H2287 0.950 . S
C2313 C2312 1.414 . S
C2313 C2314 1.374 . S
C2314 H2288 0.950 . S
C2314 C2310 1.385 . S
C2314 C2313 1.374 . S
C2315 C2312 1.499 . S
C2315 C2316 1.373 . S
C2315 C2317 1.389 . S
C2316 H2289 0.950 . S
C2316 C2302 1.377 . S
C2316 C2315 1.373 . S
C2317 C2301 1.377 . S
C2317 C2315 1.389 . S
C2317 C2318 1.524 . S
C2318 C2317 1.524 . S
C2318 C2319 1.397 . S
C2318 C2323 1.363 . S
C2319 H2290 0.950 . S
C2319 C2318 1.397 . S
C2319 C2320 1.334 . S
C2320 H2291 0.950 . S
C2320 C2319 1.334 . S
C2320 C2321 1.287 . S
C2321 C2320 1.287 . S
C2321 C2322 1.524 . S
C2321 H2324 0.999 . S
C2322 H2292 0.950 . S
C2322 C2321 1.524 . S
C2322 C2323 1.415 . S
C2323 H2293 0.950 . S
C2323 C2318 1.363 . S
C2323 C2322 1.415 . S
H2324 C2321 0.999 . S
H2325 C2306 0.913 . S
H2326 C2344 0.951 . S
H2327 C2346 0.951 . S
H2328 C2348 0.950 . S
H2329 C2349 0.950 . S
H2330 C2351 0.950 . S
H2331 C2354 0.950 . S
H2332 C2355 0.950 . S
H2333 C2357 0.950 . S
H2334 C2358 0.950 . S
H2335 C2359 0.951 . S
H2336 C2361 0.951 . S
H2337 C2363 0.950 . S
H2338 C2364 0.950 . S
H2339 C2366 0.950 . S
H2340 C2369 0.950 . S
H2341 C2370 0.950 . S
H2342 C2372 0.950 . S
H2343 C2373 0.950 . S
C2344 H2326 0.951 . S
C2344 C2345 1.366 . S
C2344 C2346 1.388 . S
C2345 C2344 1.366 . S
C2345 C2349 1.385 . S
C2346 H2327 0.951 . S
C2346 C2344 1.388 . S
C2346 C2347 1.366 . S
C2347 C2346 1.366 . S
C2347 C2348 1.414 . S
C2347 C2350 1.499 . S
C2348 H2328 0.950 . S
C2348 C2347 1.414 . S
C2348 C2349 1.374 . S
C2349 H2329 0.950 . S
C2349 C2345 1.385 . S
C2349 C2348 1.374 . S
C2350 C2347 1.499 . S
C2350 C2351 1.373 . S
C2350 C2352 1.389 . S
C2351 H2330 0.950 . S
C2351 C2350 1.373 . S
C2351 C2367 1.377 . S
C2352 C2350 1.389 . S
C2352 C2353 1.524 . S
C2352 C2366 1.377 . S
C2353 C2352 1.524 . S
C2353 C2354 1.397 . S
C2353 C2358 1.363 . S
C2354 H2331 0.950 . S
C2354 C2353 1.397 . S
C2354 C2355 1.334 . S
C2355 H2332 0.950 . S
C2355 C2354 1.334 . S
C2355 C2356 1.287 . S
C2356 C2355 1.287 . S
C2356 C2357 1.524 . S
C2356 H2375 0.913 . S
C2357 H2333 0.950 . S
C2357 C2356 1.524 . S
C2357 C2358 1.415 . S
C2358 H2334 0.950 . S
C2358 C2353 1.363 . S
C2358 C2357 1.415 . S
C2359 H2335 0.951 . S
C2359 C2360 1.366 . S
C2359 C2361 1.388 . S
C2360 C2359 1.366 . S
C2360 C2364 1.385 . S
C2361 H2336 0.951 . S
C2361 C2359 1.388 . S
C2361 C2362 1.366 . S
C2362 C2361 1.366 . S
C2362 C2363 1.414 . S
C2362 C2365 1.499 . S
C2363 H2337 0.950 . S
C2363 C2362 1.414 . S
C2363 C2364 1.374 . S
C2364 H2338 0.950 . S
C2364 C2360 1.385 . S
C2364 C2363 1.374 . S
C2365 C2362 1.499 . S
C2365 C2366 1.373 . S
C2365 C2367 1.389 . S
C2366 H2339 0.950 . S
C2366 C2352 1.377 . S
C2366 C2365 1.373 . S
C2367 C2351 1.377 . S
C2367 C2365 1.389 . S
C2367 C2368 1.524 . S
C2368 C2367 1.524 . S
C2368 C2369 1.397 . S
C2368 C2373 1.363 . S
C2369 H2340 0.950 . S
C2369 C2368 1.397 . S
C2369 C2370 1.334 . S
C2370 H2341 0.950 . S
C2370 C2369 1.334 . S
C2370 C2371 1.287 . S
C2371 C2370 1.287 . S
C2371 C2372 1.524 . S
C2371 H2374 0.999 . S
C2372 H2342 0.950 . S
C2372 C2371 1.524 . S
C2372 C2373 1.415 . S
C2373 H2343 0.950 . S
C2373 C2368 1.363 . S
C2373 C2372 1.415 . S
H2374 C2371 0.999 . S
H2375 C2356 0.913 . S
H2376 C2394 0.951 . S
H2377 C2396 0.951 . S
H2378 C2398 0.950 . S
H2379 C2399 0.950 . S
H2380 C2401 0.950 . S
H2381 C2404 0.950 . S
H2382 C2405 0.950 . S
H2383 C2407 0.950 . S
H2384 C2408 0.950 . S
H2385 C2409 0.951 . S
H2386 C2411 0.951 . S
H2387 C2413 0.950 . S
H2388 C2414 0.950 . S
H2389 C2416 0.950 . S
H2390 C2419 0.950 . S
H2391 C2420 0.950 . S
H2392 C2422 0.950 . S
H2393 C2423 0.950 . S
C2394 H2376 0.951 . S
C2394 C2395 1.366 . S
C2394 C2396 1.388 . S
C2395 C2394 1.366 . S
C2395 C2399 1.385 . S
C2396 H2377 0.951 . S
C2396 C2394 1.388 . S
C2396 C2397 1.366 . S
C2397 C2396 1.366 . S
C2397 C2398 1.414 . S
C2397 C2400 1.499 . S
C2398 H2378 0.950 . S
C2398 C2397 1.414 . S
C2398 C2399 1.374 . S
C2399 H2379 0.950 . S
C2399 C2395 1.385 . S
C2399 C2398 1.374 . S
C2400 C2397 1.499 . S
C2400 C2401 1.373 . S
C2400 C2402 1.389 . S
C2401 H2380 0.950 . S
C2401 C2400 1.373 . S
C2401 C2417 1.377 . S
C2402 C2400 1.389 . S
C2402 C2403 1.524 . S
C2402 C2416 1.377 . S
C2403 C2402 1.524 . S
C2403 C2404 1.397 . S
C2403 C2408 1.363 . S
C2404 H2381 0.950 . S
C2404 C2403 1.397 . S
C2404 C2405 1.334 . S
C2405 H2382 0.950 . S
C2405 C2404 1.334 . S
C2405 C2406 1.287 . S
C2406 C2405 1.287 . S
C2406 C2407 1.524 . S
C2406 H2425 0.913 1_554 S
C2407 H2383 0.950 . S
C2407 C2406 1.524 . S
C2407 C2408 1.415 . S
C2408 H2384 0.950 . S
C2408 C2403 1.363 . S
C2408 C2407 1.415 . S
C2409 H2385 0.951 . S
C2409 C2410 1.366 . S
C2409 C2411 1.388 . S
C2410 C2409 1.366 . S
C2410 C2414 1.385 . S
C2411 H2386 0.951 . S
C2411 C2409 1.388 . S
C2411 C2412 1.366 . S
C2412 C2411 1.366 . S
C2412 C2413 1.414 . S
C2412 C2415 1.499 . S
C2413 H2387 0.950 . S
C2413 C2412 1.414 . S
C2413 C2414 1.374 . S
C2414 H2388 0.950 . S
C2414 C2410 1.385 . S
C2414 C2413 1.374 . S
C2415 C2412 1.499 . S
C2415 C2416 1.373 . S
C2415 C2417 1.389 . S
C2416 H2389 0.950 . S
C2416 C2402 1.377 . S
C2416 C2415 1.373 . S
C2417 C2401 1.377 . S
C2417 C2415 1.389 . S
C2417 C2418 1.524 . S
C2418 C2417 1.524 . S
C2418 C2419 1.397 . S
C2418 C2423 1.363 . S
C2419 H2390 0.950 . S
C2419 C2418 1.397 . S
C2419 C2420 1.334 . S
C2420 H2391 0.950 . S
C2420 C2419 1.334 . S
C2420 C2421 1.287 . S
C2421 C2420 1.287 . S
C2421 C2422 1.524 . S
C2421 H2424 0.999 . S
C2422 H2392 0.950 . S
C2422 C2421 1.524 . S
C2422 C2423 1.415 . S
C2423 H2393 0.950 . S
C2423 C2418 1.363 . S
C2423 C2422 1.415 . S
H2424 C2421 0.999 . S
H2425 C2406 0.913 1_556 S
H2426 C2444 0.951 . S
H2427 C2446 0.951 . S
H2428 C2448 0.950 . S
H2429 C2449 0.950 . S
H2430 C2451 0.950 . S
H2431 C2454 0.950 . S
H2432 C2455 0.950 . S
H2433 C2457 0.950 . S
H2434 C2458 0.950 . S
H2435 C2459 0.951 . S
H2436 C2461 0.951 . S
H2437 C2463 0.950 . S
H2438 C2464 0.950 . S
H2439 C2466 0.950 . S
H2440 C2469 0.950 . S
H2441 C2470 0.950 . S
H2442 C2472 0.950 . S
H2443 C2473 0.950 . S
C2444 H2426 0.951 . S
C2444 C2445 1.366 . S
C2444 C2446 1.388 . S
C2445 C2444 1.366 . S
C2445 C2449 1.385 . S
C2446 H2427 0.951 . S
C2446 C2444 1.388 . S
C2446 C2447 1.366 . S
C2447 C2446 1.366 . S
C2447 C2448 1.414 . S
C2447 C2450 1.499 . S
C2448 H2428 0.950 . S
C2448 C2447 1.414 . S
C2448 C2449 1.374 . S
C2449 H2429 0.950 . S
C2449 C2445 1.385 . S
C2449 C2448 1.374 . S
C2450 C2447 1.499 . S
C2450 C2451 1.373 . S
C2450 C2452 1.389 . S
C2451 H2430 0.950 . S
C2451 C2450 1.373 . S
C2451 C2467 1.377 . S
C2452 C2450 1.389 . S
C2452 C2453 1.524 . S
C2452 C2466 1.377 . S
C2453 C2452 1.524 . S
C2453 C2454 1.397 . S
C2453 C2458 1.363 . S
C2454 H2431 0.950 . S
C2454 C2453 1.397 . S
C2454 C2455 1.334 . S
C2455 H2432 0.950 . S
C2455 C2454 1.334 . S
C2455 C2456 1.287 . S
C2456 C2455 1.287 . S
C2456 C2457 1.524 . S
C2456 H2475 0.913 1_554 S
C2457 H2433 0.950 . S
C2457 C2456 1.524 . S
C2457 C2458 1.415 . S
C2458 H2434 0.950 . S
C2458 C2453 1.363 . S
C2458 C2457 1.415 . S
C2459 H2435 0.951 . S
C2459 C2460 1.366 . S
C2459 C2461 1.388 . S
C2460 C2459 1.366 . S
C2460 C2464 1.385 . S
C2461 H2436 0.951 . S
C2461 C2459 1.388 . S
C2461 C2462 1.366 . S
C2462 C2461 1.366 . S
C2462 C2463 1.414 . S
C2462 C2465 1.499 . S
C2463 H2437 0.950 . S
C2463 C2462 1.414 . S
C2463 C2464 1.374 . S
C2464 H2438 0.950 . S
C2464 C2460 1.385 . S
C2464 C2463 1.374 . S
C2465 C2462 1.499 . S
C2465 C2466 1.373 . S
C2465 C2467 1.389 . S
C2466 H2439 0.950 . S
C2466 C2452 1.377 . S
C2466 C2465 1.373 . S
C2467 C2451 1.377 . S
C2467 C2465 1.389 . S
C2467 C2468 1.524 . S
C2468 C2467 1.524 . S
C2468 C2469 1.397 . S
C2468 C2473 1.363 . S
C2469 H2440 0.950 . S
C2469 C2468 1.397 . S
C2469 C2470 1.334 . S
C2470 H2441 0.950 . S
C2470 C2469 1.334 . S
C2470 C2471 1.287 . S
C2471 C2470 1.287 . S
C2471 C2472 1.524 . S
C2471 H2474 0.999 . S
C2472 H2442 0.950 . S
C2472 C2471 1.524 . S
C2472 C2473 1.415 . S
C2473 H2443 0.950 . S
C2473 C2468 1.363 . S
C2473 C2472 1.415 . S
H2474 C2471 0.999 . S
H2475 C2456 0.913 1_556 S
H2476 C2494 0.951 . S
H2477 C2496 0.951 . S
H2478 C2498 0.950 . S
H2479 C2499 0.950 . S
H2480 C2501 0.950 . S
H2481 C2504 0.950 . S
H2482 C2505 0.950 . S
H2483 C2507 0.950 . S
H2484 C2508 0.950 . S
H2485 C2509 0.951 . S
H2486 C2511 0.951 . S
H2487 C2513 0.950 . S
H2488 C2514 0.950 . S
H2489 C2516 0.950 . S
H2490 C2519 0.950 . S
H2491 C2520 0.950 . S
H2492 C2522 0.950 . S
H2493 C2523 0.950 . S
C2494 H2476 0.951 . S
C2494 C2495 1.366 . S
C2494 C2496 1.388 . S
C2495 C2494 1.366 . S
C2495 C2499 1.385 . S
C2496 H2477 0.951 . S
C2496 C2494 1.388 . S
C2496 C2497 1.366 . S
C2497 C2496 1.366 . S
C2497 C2498 1.414 . S
C2497 C2500 1.499 . S
C2498 H2478 0.950 . S
C2498 C2497 1.414 . S
C2498 C2499 1.374 . S
C2499 H2479 0.950 . S
C2499 C2495 1.385 . S
C2499 C2498 1.374 . S
C2500 C2497 1.499 . S
C2500 C2501 1.373 . S
C2500 C2502 1.389 . S
C2501 H2480 0.950 . S
C2501 C2500 1.373 . S
C2501 C2517 1.377 . S
C2502 C2500 1.389 . S
C2502 C2503 1.524 . S
C2502 C2516 1.377 . S
C2503 C2502 1.524 . S
C2503 C2504 1.397 . S
C2503 C2508 1.363 . S
C2504 H2481 0.950 . S
C2504 C2503 1.397 . S
C2504 C2505 1.334 . S
C2505 H2482 0.950 . S
C2505 C2504 1.334 . S
C2505 C2506 1.287 . S
C2506 C2505 1.287 . S
C2506 C2507 1.524 . S
C2506 H2525 0.913 . S
C2507 H2483 0.950 . S
C2507 C2506 1.524 . S
C2507 C2508 1.415 . S
C2508 H2484 0.950 . S
C2508 C2503 1.363 . S
C2508 C2507 1.415 . S
C2509 H2485 0.951 . S
C2509 C2510 1.366 . S
C2509 C2511 1.388 . S
C2510 C2509 1.366 . S
C2510 C2514 1.385 . S
C2511 H2486 0.951 . S
C2511 C2509 1.388 . S
C2511 C2512 1.366 . S
C2512 C2511 1.366 . S
C2512 C2513 1.414 . S
C2512 C2515 1.499 . S
C2513 H2487 0.950 . S
C2513 C2512 1.414 . S
C2513 C2514 1.374 . S
C2514 H2488 0.950 . S
C2514 C2510 1.385 . S
C2514 C2513 1.374 . S
C2515 C2512 1.499 . S
C2515 C2516 1.373 . S
C2515 C2517 1.389 . S
C2516 H2489 0.950 . S
C2516 C2502 1.377 . S
C2516 C2515 1.373 . S
C2517 C2501 1.377 . S
C2517 C2515 1.389 . S
C2517 C2518 1.524 . S
C2518 C2517 1.524 . S
C2518 C2519 1.397 . S
C2518 C2523 1.363 . S
C2519 H2490 0.950 . S
C2519 C2518 1.397 . S
C2519 C2520 1.334 . S
C2520 H2491 0.950 . S
C2520 C2519 1.334 . S
C2520 C2521 1.287 . S
C2521 C2520 1.287 . S
C2521 C2522 1.524 . S
C2521 H2524 0.999 . S
C2522 H2492 0.950 . S
C2522 C2521 1.524 . S
C2522 C2523 1.415 . S
C2523 H2493 0.950 . S
C2523 C2518 1.363 . S
C2523 C2522 1.415 . S
H2524 C2521 0.999 . S
H2525 C2506 0.913 . S
H2526 C2544 0.951 . S
H2527 C2546 0.951 . S
H2528 C2548 0.950 . S
H2529 C2549 0.950 . S
H2530 C2551 0.950 . S
H2531 C2554 0.950 . S
H2532 C2555 0.950 . S
H2533 C2557 0.950 . S
H2534 C2558 0.950 . S
H2535 C2559 0.951 . S
H2536 C2561 0.951 . S
H2537 C2563 0.950 . S
H2538 C2564 0.950 . S
H2539 C2566 0.950 . S
H2540 C2569 0.950 . S
H2541 C2570 0.950 . S
H2542 C2572 0.950 . S
H2543 C2573 0.950 . S
C2544 H2526 0.951 . S
C2544 C2545 1.366 . S
C2544 C2546 1.388 . S
C2545 C2544 1.366 . S
C2545 C2549 1.385 . S
C2546 H2527 0.951 . S
C2546 C2544 1.388 . S
C2546 C2547 1.366 . S
C2547 C2546 1.366 . S
C2547 C2548 1.414 . S
C2547 C2550 1.499 . S
C2548 H2528 0.950 . S
C2548 C2547 1.414 . S
C2548 C2549 1.374 . S
C2549 H2529 0.950 . S
C2549 C2545 1.385 . S
C2549 C2548 1.374 . S
C2550 C2547 1.499 . S
C2550 C2551 1.373 . S
C2550 C2552 1.389 . S
C2551 H2530 0.950 . S
C2551 C2550 1.373 . S
C2551 C2567 1.377 . S
C2552 C2550 1.389 . S
C2552 C2553 1.524 . S
C2552 C2566 1.377 . S
C2553 C2552 1.524 . S
C2553 C2554 1.397 . S
C2553 C2558 1.363 . S
C2554 H2531 0.950 . S
C2554 C2553 1.397 . S
C2554 C2555 1.334 . S
C2555 H2532 0.950 . S
C2555 C2554 1.334 . S
C2555 C2556 1.287 . S
C2556 C2555 1.287 . S
C2556 C2557 1.524 . S
C2556 H2575 0.913 . S
C2557 H2533 0.950 . S
C2557 C2556 1.524 . S
C2557 C2558 1.415 . S
C2558 H2534 0.950 . S
C2558 C2553 1.363 . S
C2558 C2557 1.415 . S
C2559 H2535 0.951 . S
C2559 C2560 1.366 . S
C2559 C2561 1.388 . S
C2560 C2559 1.366 . S
C2560 C2564 1.385 . S
C2561 H2536 0.951 . S
C2561 C2559 1.388 . S
C2561 C2562 1.366 . S
C2562 C2561 1.366 . S
C2562 C2563 1.414 . S
C2562 C2565 1.499 . S
C2563 H2537 0.950 . S
C2563 C2562 1.414 . S
C2563 C2564 1.374 . S
C2564 H2538 0.950 . S
C2564 C2560 1.385 . S
C2564 C2563 1.374 . S
C2565 C2562 1.499 . S
C2565 C2566 1.373 . S
C2565 C2567 1.389 . S
C2566 H2539 0.950 . S
C2566 C2552 1.377 . S
C2566 C2565 1.373 . S
C2567 C2551 1.377 . S
C2567 C2565 1.389 . S
C2567 C2568 1.524 . S
C2568 C2567 1.524 . S
C2568 C2569 1.397 . S
C2568 C2573 1.363 . S
C2569 H2540 0.950 . S
C2569 C2568 1.397 . S
C2569 C2570 1.334 . S
C2570 H2541 0.950 . S
C2570 C2569 1.334 . S
C2570 C2571 1.287 . S
C2571 C2570 1.287 . S
C2571 C2572 1.524 . S
C2571 H2574 0.999 . S
C2572 H2542 0.950 . S
C2572 C2571 1.524 . S
C2572 C2573 1.415 . S
C2573 H2543 0.950 . S
C2573 C2568 1.363 . S
C2573 C2572 1.415 . S
H2574 C2571 0.999 . S
H2575 C2556 0.913 . S
H2576 C2594 0.951 . S
H2577 C2596 0.951 . S
H2578 C2598 0.950 . S
H2579 C2599 0.950 . S
H2580 C2601 0.950 . S
H2581 C2604 0.950 . S
H2582 C2605 0.950 . S
H2583 C2607 0.950 . S
H2584 C2608 0.950 . S
H2585 C2609 0.951 . S
H2586 C2611 0.951 . S
H2587 C2613 0.950 . S
H2588 C2614 0.950 . S
H2589 C2616 0.950 . S
H2590 C2619 0.950 . S
H2591 C2620 0.950 . S
H2592 C2622 0.950 . S
H2593 C2623 0.950 . S
C2594 H2576 0.951 . S
C2594 C2595 1.366 . S
C2594 C2596 1.388 . S
C2595 C2594 1.366 . S
C2595 C2599 1.385 . S
C2596 H2577 0.951 . S
C2596 C2594 1.388 . S
C2596 C2597 1.366 . S
C2597 C2596 1.366 . S
C2597 C2598 1.414 . S
C2597 C2600 1.499 . S
C2598 H2578 0.950 . S
C2598 C2597 1.414 . S
C2598 C2599 1.374 . S
C2599 H2579 0.950 . S
C2599 C2595 1.385 . S
C2599 C2598 1.374 . S
C2600 C2597 1.499 . S
C2600 C2601 1.373 . S
C2600 C2602 1.389 . S
C2601 H2580 0.950 . S
C2601 C2600 1.373 . S
C2601 C2617 1.377 . S
C2602 C2600 1.389 . S
C2602 C2603 1.524 . S
C2602 C2616 1.377 . S
C2603 C2602 1.524 . S
C2603 C2604 1.397 . S
C2603 C2608 1.363 . S
C2604 H2581 0.950 . S
C2604 C2603 1.397 . S
C2604 C2605 1.334 . S
C2605 H2582 0.950 . S
C2605 C2604 1.334 . S
C2605 C2606 1.287 . S
C2606 C2605 1.287 . S
C2606 C2607 1.524 . S
C2606 H2625 0.913 . S
C2607 H2583 0.950 . S
C2607 C2606 1.524 . S
C2607 C2608 1.415 . S
C2608 H2584 0.950 . S
C2608 C2603 1.363 . S
C2608 C2607 1.415 . S
C2609 H2585 0.951 . S
C2609 C2610 1.366 . S
C2609 C2611 1.388 . S
C2610 C2609 1.366 . S
C2610 C2614 1.385 . S
C2611 H2586 0.951 . S
C2611 C2609 1.388 . S
C2611 C2612 1.366 . S
C2612 C2611 1.366 . S
C2612 C2613 1.414 . S
C2612 C2615 1.499 . S
C2613 H2587 0.950 . S
C2613 C2612 1.414 . S
C2613 C2614 1.374 . S
C2614 H2588 0.950 . S
C2614 C2610 1.385 . S
C2614 C2613 1.374 . S
C2615 C2612 1.499 . S
C2615 C2616 1.373 . S
C2615 C2617 1.389 . S
C2616 H2589 0.950 . S
C2616 C2602 1.377 . S
C2616 C2615 1.373 . S
C2617 C2601 1.377 . S
C2617 C2615 1.389 . S
C2617 C2618 1.524 . S
C2618 C2617 1.524 . S
C2618 C2619 1.397 . S
C2618 C2623 1.363 . S
C2619 H2590 0.950 . S
C2619 C2618 1.397 . S
C2619 C2620 1.334 . S
C2620 H2591 0.950 . S
C2620 C2619 1.334 . S
C2620 C2621 1.287 . S
C2621 C2620 1.287 . S
C2621 C2622 1.524 . S
C2621 H2624 0.999 . S
C2622 H2592 0.950 . S
C2622 C2621 1.524 . S
C2622 C2623 1.415 . S
C2623 H2593 0.950 . S
C2623 C2618 1.363 . S
C2623 C2622 1.415 . S
H2624 C2621 0.999 . S
H2625 C2606 0.913 . S
H2626 C2644 0.951 . S
H2627 C2646 0.951 . S
H2628 C2648 0.950 . S
H2629 C2649 0.950 1_554 S
H2630 C2651 0.950 . S
H2631 C2654 0.950 . S
H2632 C2655 0.950 . S
H2633 C2657 0.950 . S
H2634 C2658 0.950 . S
H2635 C2659 0.951 . S
H2636 C2661 0.951 . S
H2637 C2663 0.950 . S
H2638 C2664 0.950 . S
H2639 C2666 0.950 . S
H2640 C2669 0.950 . S
H2641 C2670 0.950 . S
H2642 C2672 0.950 . S
H2643 C2673 0.950 . S
C2644 H2626 0.951 . S
C2644 C2645 1.366 . S
C2644 C2646 1.388 . S
C2645 C2644 1.366 . S
C2645 C2649 1.385 . S
C2646 H2627 0.951 . S
C2646 C2644 1.388 . S
C2646 C2647 1.366 . S
C2647 C2646 1.366 . S
C2647 C2648 1.414 . S
C2647 C2650 1.499 . S
C2648 H2628 0.950 . S
C2648 C2647 1.414 . S
C2648 C2649 1.374 . S
C2649 H2629 0.950 1_556 S
C2649 C2645 1.385 . S
C2649 C2648 1.374 . S
C2650 C2647 1.499 . S
C2650 C2651 1.373 . S
C2650 C2652 1.389 . S
C2651 H2630 0.950 . S
C2651 C2650 1.373 . S
C2651 C2667 1.377 . S
C2652 C2650 1.389 . S
C2652 C2653 1.524 . S
C2652 C2666 1.377 . S
C2653 C2652 1.524 . S
C2653 C2654 1.397 . S
C2653 C2658 1.363 . S
C2654 H2631 0.950 . S
C2654 C2653 1.397 . S
C2654 C2655 1.334 . S
C2655 H2632 0.950 . S
C2655 C2654 1.334 . S
C2655 C2656 1.287 . S
C2656 C2655 1.287 . S
C2656 C2657 1.524 . S
C2656 H2675 0.913 . S
C2657 H2633 0.950 . S
C2657 C2656 1.524 . S
C2657 C2658 1.415 . S
C2658 H2634 0.950 . S
C2658 C2653 1.363 . S
C2658 C2657 1.415 . S
C2659 H2635 0.951 . S
C2659 C2660 1.366 . S
C2659 C2661 1.388 . S
C2660 C2659 1.366 . S
C2660 C2664 1.385 . S
C2661 H2636 0.951 . S
C2661 C2659 1.388 . S
C2661 C2662 1.366 . S
C2662 C2661 1.366 . S
C2662 C2663 1.414 . S
C2662 C2665 1.499 . S
C2663 H2637 0.950 . S
C2663 C2662 1.414 . S
C2663 C2664 1.374 . S
C2664 H2638 0.950 . S
C2664 C2660 1.385 . S
C2664 C2663 1.374 . S
C2665 C2662 1.499 . S
C2665 C2666 1.373 . S
C2665 C2667 1.389 . S
C2666 H2639 0.950 . S
C2666 C2652 1.377 . S
C2666 C2665 1.373 . S
C2667 C2651 1.377 . S
C2667 C2665 1.389 . S
C2667 C2668 1.524 . S
C2668 C2667 1.524 . S
C2668 C2669 1.397 . S
C2668 C2673 1.363 . S
C2669 H2640 0.950 . S
C2669 C2668 1.397 . S
C2669 C2670 1.334 . S
C2670 H2641 0.950 . S
C2670 C2669 1.334 . S
C2670 C2671 1.287 . S
C2671 C2670 1.287 . S
C2671 C2672 1.524 . S
C2671 H2674 0.999 . S
C2672 H2642 0.950 . S
C2672 C2671 1.524 . S
C2672 C2673 1.415 . S
C2673 H2643 0.950 . S
C2673 C2668 1.363 . S
C2673 C2672 1.415 . S
H2674 C2671 0.999 . S
H2675 C2656 0.913 . S
H2676 C2694 0.951 . S
H2677 C2696 0.951 . S
H2678 C2698 0.950 . S
H2679 C2699 0.911 1_554 S
H2680 C2701 0.950 . S
H2681 C2704 0.950 . S
H2682 C2705 0.950 . S
H2683 C2707 0.950 . S
H2684 C2708 0.950 . S
H2685 C2709 0.951 . S
H2686 C2711 0.951 . S
H2687 C2713 0.950 . S
H2688 C2714 0.950 . S
H2689 C2716 0.950 . S
H2690 C2719 0.950 . S
H2691 C2720 0.950 . S
H2692 C2722 0.950 1_554 S
H2693 C2723 0.950 . S
C2694 H2676 0.951 . S
C2694 C2695 1.366 . S
C2694 C2696 1.388 . S
C2695 C2694 1.366 . S
C2695 C2699 1.385 . S
C2696 H2677 0.951 . S
C2696 C2694 1.388 . S
C2696 C2697 1.366 . S
C2697 C2696 1.366 . S
C2697 C2698 1.414 . S
C2697 C2700 1.499 . S
C2698 H2678 0.950 . S
C2698 C2697 1.414 . S
C2698 C2699 1.374 . S
C2699 H2679 0.911 1_556 S
C2699 C2695 1.385 . S
C2699 C2698 1.374 . S
C2700 C2697 1.499 . S
C2700 C2701 1.373 . S
C2700 C2702 1.389 . S
C2701 H2680 0.950 . S
C2701 C2700 1.373 . S
C2701 C2717 1.377 . S
C2702 C2700 1.389 . S
C2702 C2703 1.524 . S
C2702 C2716 1.377 . S
C2703 C2702 1.524 . S
C2703 C2704 1.397 . S
C2703 C2708 1.363 . S
C2704 H2681 0.950 . S
C2704 C2703 1.397 . S
C2704 C2705 1.334 . S
C2705 H2682 0.950 . S
C2705 C2704 1.334 . S
C2705 C2706 1.287 . S
C2706 C2705 1.287 . S
C2706 C2707 1.524 . S
C2706 H2725 0.913 . S
C2707 H2683 0.950 . S
C2707 C2706 1.524 . S
C2707 C2708 1.415 . S
C2708 H2684 0.950 . S
C2708 C2703 1.363 . S
C2708 C2707 1.415 . S
C2709 H2685 0.951 . S
C2709 C2710 1.366 . S
C2709 C2711 1.388 . S
C2710 C2709 1.366 . S
C2710 C2714 1.385 . S
C2711 H2686 0.951 . S
C2711 C2709 1.388 . S
C2711 C2712 1.366 . S
C2712 C2711 1.366 . S
C2712 C2713 1.414 . S
C2712 C2715 1.499 . S
C2713 H2687 0.950 . S
C2713 C2712 1.414 . S
C2713 C2714 1.374 . S
C2714 H2688 0.950 . S
C2714 C2710 1.385 . S
C2714 C2713 1.374 . S
C2715 C2712 1.499 . S
C2715 C2716 1.373 . S
C2715 C2717 1.389 . S
C2716 H2689 0.950 . S
C2716 C2702 1.377 . S
C2716 C2715 1.373 . S
C2717 C2701 1.377 . S
C2717 C2715 1.389 . S
C2717 C2718 1.524 . S
C2718 C2717 1.524 . S
C2718 C2719 1.397 . S
C2718 C2723 1.363 . S
C2719 H2690 0.950 . S
C2719 C2718 1.397 . S
C2719 C2720 1.334 . S
C2720 H2691 0.950 . S
C2720 C2719 1.334 . S
C2720 C2721 1.287 . S
C2721 C2720 1.287 . S
C2721 C2722 1.524 . S
C2721 H2724 0.999 . S
C2722 H2692 0.950 1_556 S
C2722 C2721 1.524 . S
C2722 C2723 1.415 . S
C2723 H2693 0.950 . S
C2723 C2718 1.363 . S
C2723 C2722 1.415 . S
H2724 C2721 0.999 . S
H2725 C2706 0.913 . S
H2726 C2744 0.951 1_554 S
H2727 C2746 0.951 . S
H2728 C2748 0.950 . S
H2729 C2749 0.950 . S
H2730 C2751 0.950 . S
H2731 C2754 0.950 . S
H2732 C2755 0.950 . S
H2733 C2757 0.950 . S
H2734 C2758 0.950 . S
H2735 C2759 0.951 . S
H2736 C2761 0.951 . S
H2737 C2763 0.950 . S
H2738 C2764 0.950 . S
H2739 C2766 0.950 . S
H2740 C2769 0.950 . S
H2741 C2770 0.950 . S
H2742 C2772 0.950 . S
H2743 C2773 0.950 . S
C2744 H2726 0.951 1_556 S
C2744 C2745 1.366 . S
C2744 C2746 1.388 . S
C2745 C2744 1.366 . S
C2745 C2749 1.385 . S
C2746 H2727 0.951 . S
C2746 C2744 1.388 . S
C2746 C2747 1.366 . S
C2747 C2746 1.366 . S
C2747 C2748 1.414 . S
C2747 C2750 1.499 . S
C2748 H2728 0.950 . S
C2748 C2747 1.414 . S
C2748 C2749 1.374 . S
C2749 H2729 0.950 . S
C2749 C2745 1.385 . S
C2749 C2748 1.374 . S
C2750 C2747 1.499 . S
C2750 C2751 1.373 . S
C2750 C2752 1.389 . S
C2751 H2730 0.950 . S
C2751 C2750 1.373 . S
C2751 C2767 1.377 . S
C2752 C2750 1.389 . S
C2752 C2753 1.524 . S
C2752 C2766 1.377 . S
C2753 C2752 1.524 . S
C2753 C2754 1.397 . S
C2753 C2758 1.363 . S
C2754 H2731 0.950 . S
C2754 C2753 1.397 . S
C2754 C2755 1.334 . S
C2755 H2732 0.950 . S
C2755 C2754 1.334 . S
C2755 C2756 1.287 . S
C2756 C2755 1.287 . S
C2756 C2757 1.524 . S
C2756 H2775 0.913 . S
C2757 H2733 0.950 . S
C2757 C2756 1.524 . S
C2757 C2758 1.415 . S
C2758 H2734 0.950 . S
C2758 C2753 1.363 . S
C2758 C2757 1.415 . S
C2759 H2735 0.951 . S
C2759 C2760 1.366 . S
C2759 C2761 1.388 . S
C2760 C2759 1.366 . S
C2760 C2764 1.385 . S
C2761 H2736 0.951 . S
C2761 C2759 1.388 . S
C2761 C2762 1.366 . S
C2762 C2761 1.366 . S
C2762 C2763 1.414 . S
C2762 C2765 1.499 . S
C2763 H2737 0.950 . S
C2763 C2762 1.414 . S
C2763 C2764 1.374 . S
C2764 H2738 0.950 . S
C2764 C2760 1.385 . S
C2764 C2763 1.374 . S
C2765 C2762 1.499 . S
C2765 C2766 1.373 . S
C2765 C2767 1.389 . S
C2766 H2739 0.950 . S
C2766 C2752 1.377 . S
C2766 C2765 1.373 . S
C2767 C2751 1.377 . S
C2767 C2765 1.389 . S
C2767 C2768 1.524 . S
C2768 C2767 1.524 . S
C2768 C2769 1.397 . S
C2768 C2773 1.363 . S
C2769 H2740 0.950 . S
C2769 C2768 1.397 . S
C2769 C2770 1.334 . S
C2770 H2741 0.950 . S
C2770 C2769 1.334 . S
C2770 C2771 1.287 . S
C2771 C2770 1.287 . S
C2771 C2772 1.524 . S
C2771 H2774 0.999 . S
C2772 H2742 0.950 . S
C2772 C2771 1.524 . S
C2772 C2773 1.415 . S
C2773 H2743 0.950 . S
C2773 C2768 1.363 . S
C2773 C2772 1.415 . S
H2774 C2771 0.999 . S
H2775 C2756 0.913 . S
H2776 C2794 0.951 . S
H2777 C2796 0.951 . S
H2778 C2798 0.950 . S
H2779 C2799 0.950 . S
H2780 C2801 0.950 . S
H2781 C2804 0.950 . S
H2782 C2805 0.950 . S
H2783 C2807 0.950 . S
H2784 C2808 0.950 . S
H2785 C2809 0.951 . S
H2786 C2811 0.951 . S
H2787 C2813 0.950 . S
H2788 C2814 0.950 . S
H2789 C2816 0.950 . S
H2790 C2819 0.950 . S
H2791 C2820 0.950 . S
H2792 C2822 0.950 . S
H2793 C2823 0.950 . S
C2794 H2776 0.951 . S
C2794 C2795 1.366 . S
C2794 C2796 1.388 . S
C2795 C2794 1.366 . S
C2795 C2799 1.385 . S
C2796 H2777 0.951 . S
C2796 C2794 1.388 . S
C2796 C2797 1.366 . S
C2797 C2796 1.366 . S
C2797 C2798 1.414 . S
C2797 C2800 1.499 . S
C2798 H2778 0.950 . S
C2798 C2797 1.414 . S
C2798 C2799 1.374 . S
C2799 H2779 0.950 . S
C2799 C2795 1.385 . S
C2799 C2798 1.374 . S
C2800 C2797 1.499 . S
C2800 C2801 1.373 . S
C2800 C2802 1.389 . S
C2801 H2780 0.950 . S
C2801 C2800 1.373 . S
C2801 C2817 1.377 . S
C2802 C2800 1.389 . S
C2802 C2803 1.524 . S
C2802 C2816 1.377 . S
C2803 C2802 1.524 . S
C2803 C2804 1.397 . S
C2803 C2808 1.363 . S
C2804 H2781 0.950 . S
C2804 C2803 1.397 . S
C2804 C2805 1.334 . S
C2805 H2782 0.950 . S
C2805 C2804 1.334 . S
C2805 C2806 1.287 . S
C2806 C2805 1.287 . S
C2806 C2807 1.524 . S
C2806 H2825 0.913 . S
C2807 H2783 0.950 . S
C2807 C2806 1.524 . S
C2807 C2808 1.415 . S
C2808 H2784 0.950 . S
C2808 C2803 1.363 . S
C2808 C2807 1.415 . S
C2809 H2785 0.951 . S
C2809 C2810 1.366 . S
C2809 C2811 1.388 . S
C2810 C2809 1.366 . S
C2810 C2814 1.385 . S
C2811 H2786 0.951 . S
C2811 C2809 1.388 . S
C2811 C2812 1.366 . S
C2812 C2811 1.366 . S
C2812 C2813 1.414 . S
C2812 C2815 1.499 . S
C2813 H2787 0.950 . S
C2813 C2812 1.414 . S
C2813 C2814 1.374 . S
C2814 H2788 0.950 . S
C2814 C2810 1.385 . S
C2814 C2813 1.374 . S
C2815 C2812 1.499 . S
C2815 C2816 1.373 . S
C2815 C2817 1.389 . S
C2816 H2789 0.950 . S
C2816 C2802 1.377 . S
C2816 C2815 1.373 . S
C2817 C2801 1.377 . S
C2817 C2815 1.389 . S
C2817 C2818 1.524 . S
C2818 C2817 1.524 . S
C2818 C2819 1.397 . S
C2818 C2823 1.363 . S
C2819 H2790 0.950 . S
C2819 C2818 1.397 . S
C2819 C2820 1.334 . S
C2820 H2791 0.950 . S
C2820 C2819 1.334 . S
C2820 C2821 1.287 . S
C2821 C2820 1.287 . S
C2821 C2822 1.524 . S
C2821 H2824 0.999 . S
C2822 H2792 0.950 . S
C2822 C2821 1.524 . S
C2822 C2823 1.415 . S
C2823 H2793 0.950 . S
C2823 C2818 1.363 . S
C2823 C2822 1.415 . S
H2824 C2821 0.999 . S
H2825 C2806 0.913 . S
H2826 C2844 0.951 . S
H2827 C2846 0.951 . S
H2828 C2848 0.950 . S
H2829 C2849 0.950 . S
H2830 C2851 0.950 . S
H2831 C2854 0.950 . S
H2832 C2855 0.950 . S
H2833 C2857 0.950 . S
H2834 C2858 0.950 . S
H2835 C2859 0.951 . S
H2836 C2861 0.951 . S
H2837 C2863 0.950 . S
H2838 C2864 0.950 . S
H2839 C2866 0.950 . S
H2840 C2869 0.950 . S
H2841 C2870 0.950 . S
H2842 C2872 0.950 . S
H2843 C2873 0.950 . S
C2844 H2826 0.951 . S
C2844 C2845 1.366 . S
C2844 C2846 1.388 . S
C2845 C2844 1.366 . S
C2845 C2849 1.385 . S
C2846 H2827 0.951 . S
C2846 C2844 1.388 . S
C2846 C2847 1.366 . S
C2847 C2846 1.366 . S
C2847 C2848 1.414 . S
C2847 C2850 1.499 . S
C2848 H2828 0.950 . S
C2848 C2847 1.414 . S
C2848 C2849 1.374 . S
C2849 H2829 0.950 . S
C2849 C2845 1.385 . S
C2849 C2848 1.374 . S
C2850 C2847 1.499 . S
C2850 C2851 1.373 . S
C2850 C2852 1.389 . S
C2851 H2830 0.950 . S
C2851 C2850 1.373 . S
C2851 C2867 1.377 . S
C2852 C2850 1.389 . S
C2852 C2853 1.524 . S
C2852 C2866 1.377 . S
C2853 C2852 1.524 . S
C2853 C2854 1.397 . S
C2853 C2858 1.363 . S
C2854 H2831 0.950 . S
C2854 C2853 1.397 . S
C2854 C2855 1.334 . S
C2855 H2832 0.950 . S
C2855 C2854 1.334 . S
C2855 C2856 1.287 . S
C2856 C2855 1.287 . S
C2856 C2857 1.524 . S
C2856 H2875 0.913 1_554 S
C2857 H2833 0.950 . S
C2857 C2856 1.524 . S
C2857 C2858 1.415 . S
C2858 H2834 0.950 . S
C2858 C2853 1.363 . S
C2858 C2857 1.415 . S
C2859 H2835 0.951 . S
C2859 C2860 1.366 . S
C2859 C2861 1.388 . S
C2860 C2859 1.366 . S
C2860 C2864 1.385 . S
C2861 H2836 0.951 . S
C2861 C2859 1.388 . S
C2861 C2862 1.366 . S
C2862 C2861 1.366 . S
C2862 C2863 1.414 . S
C2862 C2865 1.499 . S
C2863 H2837 0.950 . S
C2863 C2862 1.414 . S
C2863 C2864 1.374 . S
C2864 H2838 0.950 . S
C2864 C2860 1.385 . S
C2864 C2863 1.374 . S
C2865 C2862 1.499 . S
C2865 C2866 1.373 . S
C2865 C2867 1.389 . S
C2866 H2839 0.950 . S
C2866 C2852 1.377 . S
C2866 C2865 1.373 . S
C2867 C2851 1.377 . S
C2867 C2865 1.389 . S
C2867 C2868 1.524 . S
C2868 C2867 1.524 . S
C2868 C2869 1.397 . S
C2868 C2873 1.363 . S
C2869 H2840 0.950 . S
C2869 C2868 1.397 . S
C2869 C2870 1.334 . S
C2870 H2841 0.950 . S
C2870 C2869 1.334 . S
C2870 C2871 1.287 . S
C2871 C2870 1.287 . S
C2871 C2872 1.524 . S
C2871 H2874 0.999 . S
C2872 H2842 0.950 . S
C2872 C2871 1.524 . S
C2872 C2873 1.415 . S
C2873 H2843 0.950 . S
C2873 C2868 1.363 . S
C2873 C2872 1.415 . S
H2874 C2871 0.999 . S
H2875 C2856 0.913 1_556 S
H2876 C2894 0.951 . S
H2877 C2896 0.951 . S
H2878 C2898 0.950 . S
H2879 C2899 0.950 . S
H2880 C2901 0.950 . S
H2881 C2904 0.950 . S
H2882 C2905 0.950 . S
H2883 C2907 0.950 . S
H2884 C2908 0.950 . S
H2885 C2909 0.951 . S
H2886 C2911 0.951 . S
H2887 C2913 0.950 . S
H2888 C2914 0.950 . S
H2889 C2916 0.950 . S
H2890 C2919 0.950 . S
H2891 C2920 0.950 . S
H2892 C2922 0.950 . S
H2893 C2923 0.950 . S
C2894 H2876 0.951 . S
C2894 C2895 1.366 . S
C2894 C2896 1.388 . S
C2895 C2894 1.366 . S
C2895 C2899 1.385 . S
C2896 H2877 0.951 . S
C2896 C2894 1.388 . S
C2896 C2897 1.366 . S
C2897 C2896 1.366 . S
C2897 C2898 1.414 . S
C2897 C2900 1.499 . S
C2898 H2878 0.950 . S
C2898 C2897 1.414 . S
C2898 C2899 1.374 . S
C2899 H2879 0.950 . S
C2899 C2895 1.385 . S
C2899 C2898 1.374 . S
C2900 C2897 1.499 . S
C2900 C2901 1.373 . S
C2900 C2902 1.389 . S
C2901 H2880 0.950 . S
C2901 C2900 1.373 . S
C2901 C2917 1.377 . S
C2902 C2900 1.389 . S
C2902 C2903 1.524 . S
C2902 C2916 1.377 . S
C2903 C2902 1.524 . S
C2903 C2904 1.397 . S
C2903 C2908 1.363 . S
C2904 H2881 0.950 . S
C2904 C2903 1.397 . S
C2904 C2905 1.334 . S
C2905 H2882 0.950 . S
C2905 C2904 1.334 . S
C2905 C2906 1.287 . S
C2906 C2905 1.287 . S
C2906 C2907 1.524 . S
C2906 H2925 0.913 1_554 S
C2907 H2883 0.950 . S
C2907 C2906 1.524 . S
C2907 C2908 1.415 . S
C2908 H2884 0.950 . S
C2908 C2903 1.363 . S
C2908 C2907 1.415 . S
C2909 H2885 0.951 . S
C2909 C2910 1.366 . S
C2909 C2911 1.388 . S
C2910 C2909 1.366 . S
C2910 C2914 1.385 . S
C2911 H2886 0.951 . S
C2911 C2909 1.388 . S
C2911 C2912 1.366 . S
C2912 C2911 1.366 . S
C2912 C2913 1.414 . S
C2912 C2915 1.499 . S
C2913 H2887 0.950 . S
C2913 C2912 1.414 . S
C2913 C2914 1.374 . S
C2914 H2888 0.950 . S
C2914 C2910 1.385 . S
C2914 C2913 1.374 . S
C2915 C2912 1.499 . S
C2915 C2916 1.373 . S
C2915 C2917 1.389 . S
C2916 H2889 0.950 . S
C2916 C2902 1.377 . S
C2916 C2915 1.373 . S
C2917 C2901 1.377 . S
C2917 C2915 1.389 . S
C2917 C2918 1.524 . S
C2918 C2917 1.524 . S
C2918 C2919 1.397 . S
C2918 C2923 1.363 . S
C2919 H2890 0.950 . S
C2919 C2918 1.397 . S
C2919 C2920 1.334 . S
C2920 H2891 0.950 . S
C2920 C2919 1.334 . S
C2920 C2921 1.287 . S
C2921 C2920 1.287 . S
C2921 C2922 1.524 . S
C2921 H2924 0.999 . S
C2922 H2892 0.950 . S
C2922 C2921 1.524 . S
C2922 C2923 1.415 . S
C2923 H2893 0.950 . S
C2923 C2918 1.363 . S
C2923 C2922 1.415 . S
H2924 C2921 0.999 . S
H2925 C2906 0.913 1_556 S
H2926 C2944 0.951 . S
H2927 C2946 0.951 . S
H2928 C2948 0.950 . S
H2929 C2949 0.950 . S
H2930 C2951 0.950 . S
H2931 C2954 0.950 . S
H2932 C2955 0.950 . S
H2933 C2957 0.950 . S
H2934 C2958 0.950 . S
H2935 C2959 0.951 . S
H2936 C2961 0.951 . S
H2937 C2963 0.950 . S
H2938 C2964 0.950 . S
H2939 C2966 0.950 . S
H2940 C2969 0.950 . S
H2941 C2970 0.950 . S
H2942 C2972 0.950 . S
H2943 C2973 0.950 . S
C2944 H2926 0.951 . S
C2944 C2945 1.366 . S
C2944 C2946 1.388 . S
C2945 C2944 1.366 . S
C2945 C2949 1.385 . S
C2946 H2927 0.951 . S
C2946 C2944 1.388 . S
C2946 C2947 1.366 . S
C2947 C2946 1.366 . S
C2947 C2948 1.414 . S
C2947 C2950 1.499 . S
C2948 H2928 0.950 . S
C2948 C2947 1.414 . S
C2948 C2949 1.374 . S
C2949 H2929 0.950 . S
C2949 C2945 1.385 . S
C2949 C2948 1.374 . S
C2950 C2947 1.499 . S
C2950 C2951 1.373 . S
C2950 C2952 1.389 . S
C2951 H2930 0.950 . S
C2951 C2950 1.373 . S
C2951 C2967 1.377 . S
C2952 C2950 1.389 . S
C2952 C2953 1.524 . S
C2952 C2966 1.377 . S
C2953 C2952 1.524 . S
C2953 C2954 1.397 . S
C2953 C2958 1.363 . S
C2954 H2931 0.950 . S
C2954 C2953 1.397 . S
C2954 C2955 1.334 . S
C2955 H2932 0.950 . S
C2955 C2954 1.334 . S
C2955 C2956 1.287 . S
C2956 C2955 1.287 . S
C2956 C2957 1.524 . S
C2956 H2975 0.913 . S
C2957 H2933 0.950 . S
C2957 C2956 1.524 . S
C2957 C2958 1.415 . S
C2958 H2934 0.950 . S
C2958 C2953 1.363 . S
C2958 C2957 1.415 . S
C2959 H2935 0.951 . S
C2959 C2960 1.366 . S
C2959 C2961 1.388 . S
C2960 C2959 1.366 . S
C2960 C2964 1.385 . S
C2961 H2936 0.951 . S
C2961 C2959 1.388 . S
C2961 C2962 1.366 . S
C2962 C2961 1.366 . S
C2962 C2963 1.414 . S
C2962 C2965 1.499 . S
C2963 H2937 0.950 . S
C2963 C2962 1.414 . S
C2963 C2964 1.374 . S
C2964 H2938 0.950 . S
C2964 C2960 1.385 . S
C2964 C2963 1.374 . S
C2965 C2962 1.499 . S
C2965 C2966 1.373 . S
C2965 C2967 1.389 . S
C2966 H2939 0.950 . S
C2966 C2952 1.377 . S
C2966 C2965 1.373 . S
C2967 C2951 1.377 . S
C2967 C2965 1.389 . S
C2967 C2968 1.524 . S
C2968 C2967 1.524 . S
C2968 C2969 1.397 . S
C2968 C2973 1.363 . S
C2969 H2940 0.950 . S
C2969 C2968 1.397 . S
C2969 C2970 1.334 . S
C2970 H2941 0.950 . S
C2970 C2969 1.334 . S
C2970 C2971 1.287 . S
C2971 C2970 1.287 . S
C2971 C2972 1.524 . S
C2971 H2974 0.999 . S
C2972 H2942 0.950 . S
C2972 C2971 1.524 . S
C2972 C2973 1.415 . S
C2973 H2943 0.950 . S
C2973 C2968 1.363 . S
C2973 C2972 1.415 . S
H2974 C2971 0.999 . S
H2975 C2956 0.913 . S
H2976 C2994 0.951 . S
H2977 C2996 0.951 . S
H2978 C2998 0.950 . S
H2979 C2999 0.950 . S
H2980 C3001 0.950 . S
H2981 C3004 0.950 . S
H2982 C3005 0.950 . S
H2983 C3007 0.950 . S
H2984 C3008 0.950 . S
H2985 C3009 0.951 . S
H2986 C3011 0.951 . S
H2987 C3013 0.950 . S
H2988 C3014 0.950 . S
H2989 C3016 0.950 . S
H2990 C3019 0.950 . S
H2991 C3020 0.950 . S
H2992 C3022 0.950 . S
H2993 C3023 0.950 . S
C2994 H2976 0.951 . S
C2994 C2995 1.366 . S
C2994 C2996 1.388 . S
C2995 C2994 1.366 . S
C2995 C2999 1.385 . S
C2996 H2977 0.951 . S
C2996 C2994 1.388 . S
C2996 C2997 1.366 . S
C2997 C2996 1.366 . S
C2997 C2998 1.414 . S
C2997 C3000 1.499 . S
C2998 H2978 0.950 . S
C2998 C2997 1.414 . S
C2998 C2999 1.374 . S
C2999 H2979 0.950 . S
C2999 C2995 1.385 . S
C2999 C2998 1.374 . S
C3000 C2997 1.499 . S
C3000 C3001 1.373 . S
C3000 C3002 1.389 . S
C3001 H2980 0.950 . S
C3001 C3000 1.373 . S
C3001 C3017 1.377 . S
C3002 C3000 1.389 . S
C3002 C3003 1.524 . S
C3002 C3016 1.377 . S
C3003 C3002 1.524 . S
C3003 C3004 1.397 . S
C3003 C3008 1.363 . S
C3004 H2981 0.950 . S
C3004 C3003 1.397 . S
C3004 C3005 1.334 . S
C3005 H2982 0.950 . S
C3005 C3004 1.334 . S
C3005 C3006 1.287 . S
C3006 C3005 1.287 . S
C3006 C3007 1.524 . S
C3006 H3025 0.913 . S
C3007 H2983 0.950 . S
C3007 C3006 1.524 . S
C3007 C3008 1.415 . S
C3008 H2984 0.950 . S
C3008 C3003 1.363 . S
C3008 C3007 1.415 . S
C3009 H2985 0.951 . S
C3009 C3010 1.366 . S
C3009 C3011 1.388 . S
C3010 C3009 1.366 . S
C3010 C3014 1.385 . S
C3011 H2986 0.951 . S
C3011 C3009 1.388 . S
C3011 C3012 1.366 . S
C3012 C3011 1.366 . S
C3012 C3013 1.414 . S
C3012 C3015 1.499 . S
C3013 H2987 0.950 . S
C3013 C3012 1.414 . S
C3013 C3014 1.374 . S
C3014 H2988 0.950 . S
C3014 C3010 1.385 . S
C3014 C3013 1.374 . S
C3015 C3012 1.499 . S
C3015 C3016 1.373 . S
C3015 C3017 1.389 . S
C3016 H2989 0.950 . S
C3016 C3002 1.377 . S
C3016 C3015 1.373 . S
C3017 C3001 1.377 . S
C3017 C3015 1.389 . S
C3017 C3018 1.524 . S
C3018 C3017 1.524 . S
C3018 C3019 1.397 . S
C3018 C3023 1.363 . S
C3019 H2990 0.950 . S
C3019 C3018 1.397 . S
C3019 C3020 1.334 . S
C3020 H2991 0.950 . S
C3020 C3019 1.334 . S
C3020 C3021 1.287 . S
C3021 C3020 1.287 . S
C3021 C3022 1.524 . S
C3021 H3024 0.999 . S
C3022 H2992 0.950 . S
C3022 C3021 1.524 . S
C3022 C3023 1.415 . S
C3023 H2993 0.950 . S
C3023 C3018 1.363 . S
C3023 C3022 1.415 . S
H3024 C3021 0.999 . S
H3025 C3006 0.913 . S
H3026 C3044 0.951 . S
H3027 C3046 0.951 . S
H3028 C3048 0.950 . S
H3029 C3049 0.950 . S
H3030 C3051 0.950 . S
H3031 C3054 0.950 . S
H3032 C3055 0.950 . S
H3033 C3057 0.950 . S
H3034 C3058 0.950 . S
H3035 C3059 0.951 . S
H3036 C3061 0.951 . S
H3037 C3063 0.950 . S
H3038 C3064 0.950 . S
H3039 C3066 0.950 . S
H3040 C3069 0.950 . S
H3041 C3070 0.950 . S
H3042 C3072 0.950 . S
H3043 C3073 0.950 . S
C3044 H3026 0.951 . S
C3044 C3045 1.366 . S
C3044 C3046 1.388 . S
C3045 C3044 1.366 . S
C3045 C3049 1.385 . S
C3046 H3027 0.951 . S
C3046 C3044 1.388 . S
C3046 C3047 1.366 . S
C3047 C3046 1.366 . S
C3047 C3048 1.414 . S
C3047 C3050 1.499 . S
C3048 H3028 0.950 . S
C3048 C3047 1.414 . S
C3048 C3049 1.374 . S
C3049 H3029 0.950 . S
C3049 C3045 1.385 . S
C3049 C3048 1.374 . S
C3050 C3047 1.499 . S
C3050 C3051 1.373 . S
C3050 C3052 1.389 . S
C3051 H3030 0.950 . S
C3051 C3050 1.373 . S
C3051 C3067 1.377 . S
C3052 C3050 1.389 . S
C3052 C3053 1.524 . S
C3052 C3066 1.377 . S
C3053 C3052 1.524 . S
C3053 C3054 1.397 . S
C3053 C3058 1.363 . S
C3054 H3031 0.950 . S
C3054 C3053 1.397 . S
C3054 C3055 1.334 . S
C3055 H3032 0.950 . S
C3055 C3054 1.334 . S
C3055 C3056 1.287 . S
C3056 C3055 1.287 . S
C3056 C3057 1.524 . S
C3056 H3075 0.913 . S
C3057 H3033 0.950 . S
C3057 C3056 1.524 . S
C3057 C3058 1.415 . S
C3058 H3034 0.950 . S
C3058 C3053 1.363 . S
C3058 C3057 1.415 . S
C3059 H3035 0.951 . S
C3059 C3060 1.366 . S
C3059 C3061 1.388 . S
C3060 C3059 1.366 . S
C3060 C3064 1.385 . S
C3061 H3036 0.951 . S
C3061 C3059 1.388 . S
C3061 C3062 1.366 . S
C3062 C3061 1.366 . S
C3062 C3063 1.414 . S
C3062 C3065 1.499 . S
C3063 H3037 0.950 . S
C3063 C3062 1.414 . S
C3063 C3064 1.374 . S
C3064 H3038 0.950 . S
C3064 C3060 1.385 . S
C3064 C3063 1.374 . S
C3065 C3062 1.499 . S
C3065 C3066 1.373 . S
C3065 C3067 1.389 . S
C3066 H3039 0.950 . S
C3066 C3052 1.377 . S
C3066 C3065 1.373 . S
C3067 C3051 1.377 . S
C3067 C3065 1.389 . S
C3067 C3068 1.524 . S
C3068 C3067 1.524 . S
C3068 C3069 1.397 . S
C3068 C3073 1.363 . S
C3069 H3040 0.950 . S
C3069 C3068 1.397 . S
C3069 C3070 1.334 . S
C3070 H3041 0.950 . S
C3070 C3069 1.334 . S
C3070 C3071 1.287 . S
C3071 C3070 1.287 . S
C3071 C3072 1.524 . S
C3071 H3074 0.999 . S
C3072 H3042 0.950 . S
C3072 C3071 1.524 . S
C3072 C3073 1.415 . S
C3073 H3043 0.950 . S
C3073 C3068 1.363 . S
C3073 C3072 1.415 . S
H3074 C3071 0.999 . S
H3075 C3056 0.913 . S
H3076 C3094 0.951 . S
H3077 C3096 0.951 . S
H3078 C3098 0.950 . S
H3079 C3099 0.950 . S
H3080 C3101 0.950 . S
H3081 C3104 0.950 . S
H3082 C3105 0.950 . S
H3083 C3107 0.950 . S
H3084 C3108 0.950 . S
H3085 C3109 0.951 . S
H3086 C3111 0.951 . S
H3087 C3113 0.950 . S
H3088 C3114 0.950 . S
H3089 C3116 0.950 . S
H3090 C3119 0.950 . S
H3091 C3120 0.950 . S
H3092 C3122 0.950 . S
H3093 C3123 0.950 . S
C3094 H3076 0.951 . S
C3094 C3095 1.366 . S
C3094 C3096 1.388 . S
C3095 C3094 1.366 . S
C3095 C3099 1.385 . S
C3096 H3077 0.951 . S
C3096 C3094 1.388 . S
C3096 C3097 1.366 . S
C3097 C3096 1.366 . S
C3097 C3098 1.414 . S
C3097 C3100 1.499 . S
C3098 H3078 0.950 . S
C3098 C3097 1.414 . S
C3098 C3099 1.374 . S
C3099 H3079 0.950 . S
C3099 C3095 1.385 . S
C3099 C3098 1.374 . S
C3100 C3097 1.499 . S
C3100 C3101 1.373 . S
C3100 C3102 1.389 . S
C3101 H3080 0.950 . S
C3101 C3100 1.373 . S
C3101 C3117 1.377 . S
C3102 C3100 1.389 . S
C3102 C3103 1.524 . S
C3102 C3116 1.377 . S
C3103 C3102 1.524 . S
C3103 C3104 1.397 . S
C3103 C3108 1.363 . S
C3104 H3081 0.950 . S
C3104 C3103 1.397 . S
C3104 C3105 1.334 . S
C3105 H3082 0.950 . S
C3105 C3104 1.334 . S
C3105 C3106 1.287 . S
C3106 C3105 1.287 . S
C3106 C3107 1.524 . S
C3106 H3125 0.913 . S
C3107 H3083 0.950 . S
C3107 C3106 1.524 . S
C3107 C3108 1.415 . S
C3108 H3084 0.950 . S
C3108 C3103 1.363 . S
C3108 C3107 1.415 . S
C3109 H3085 0.951 . S
C3109 C3110 1.366 . S
C3109 C3111 1.388 . S
C3110 C3109 1.366 . S
C3110 C3114 1.385 . S
C3111 H3086 0.951 . S
C3111 C3109 1.388 . S
C3111 C3112 1.366 . S
C3112 C3111 1.366 . S
C3112 C3113 1.414 . S
C3112 C3115 1.499 . S
C3113 H3087 0.950 . S
C3113 C3112 1.414 . S
C3113 C3114 1.374 . S
C3114 H3088 0.950 . S
C3114 C3110 1.385 . S
C3114 C3113 1.374 . S
C3115 C3112 1.499 . S
C3115 C3116 1.373 . S
C3115 C3117 1.389 . S
C3116 H3089 0.950 . S
C3116 C3102 1.377 . S
C3116 C3115 1.373 . S
C3117 C3101 1.377 . S
C3117 C3115 1.389 . S
C3117 C3118 1.524 . S
C3118 C3117 1.524 . S
C3118 C3119 1.397 . S
C3118 C3123 1.363 . S
C3119 H3090 0.950 . S
C3119 C3118 1.397 . S
C3119 C3120 1.334 . S
C3120 H3091 0.950 . S
C3120 C3119 1.334 . S
C3120 C3121 1.287 . S
C3121 C3120 1.287 . S
C3121 C3122 1.524 . S
C3121 H3124 0.999 . S
C3122 H3092 0.950 . S
C3122 C3121 1.524 . S
C3122 C3123 1.415 . S
C3123 H3093 0.950 . S
C3123 C3118 1.363 . S
C3123 C3122 1.415 . S
H3124 C3121 0.999 . S
H3125 C3106 0.913 . S
H3126 C3144 0.951 . S
H3127 C3146 0.951 . S
H3128 C3148 0.982 . S
H3129 C3149 0.943 1_655 S
H3130 C3151 0.950 . S
H3131 C3154 0.950 . S
H3132 C3155 0.950 . S
H3133 C3157 0.950 . S
H3134 C3158 0.950 . S
H3135 C3159 0.951 . S
H3136 C3161 0.951 . S
H3137 C3163 0.950 . S
H3138 C3164 0.950 . S
H3139 C3166 0.950 . S
H3140 C3169 0.950 . S
H3141 C3170 0.950 . S
H3142 C3172 0.950 . S
H3143 C3173 0.950 . S
C3144 H3126 0.951 . S
C3144 C3145 1.366 . S
C3144 C3146 1.388 . S
C3145 C3144 1.366 . S
C3145 C3149 1.400 . S
C3146 H3127 0.951 . S
C3146 C3144 1.388 . S
C3146 C3147 1.366 . S
C3147 C3146 1.366 . S
C3147 C3148 1.400 1_455 S
C3147 C3150 1.499 . S
C3148 H3128 0.982 . S
C3148 C3147 1.400 1_655 S
C3148 C3149 1.349 1_655 S
C3149 H3129 0.943 1_455 S
C3149 C3145 1.400 . S
C3149 C3148 1.349 1_455 S
C3150 C3147 1.499 . S
C3150 C3151 1.373 1_455 S
C3150 C3152 1.389 . S
C3151 H3130 0.950 . S
C3151 C3150 1.373 1_655 S
C3151 C3167 1.377 . S
C3152 C3150 1.389 . S
C3152 C3153 1.524 . S
C3152 C3166 1.377 . S
C3153 C3152 1.524 . S
C3153 C3154 1.397 . S
C3153 C3158 1.363 . S
C3154 H3131 0.950 . S
C3154 C3153 1.397 . S
C3154 C3155 1.334 . S
C3155 H3132 0.950 . S
C3155 C3154 1.334 . S
C3155 C3156 1.287 . S
C3156 C3155 1.287 . S
C3156 C3157 1.524 . S
C3156 H3175 0.913 . S
C3157 H3133 0.950 . S
C3157 C3156 1.524 . S
C3157 C3158 1.415 . S
C3158 H3134 0.950 . S
C3158 C3153 1.363 . S
C3158 C3157 1.415 . S
C3159 H3135 0.951 . S
C3159 C3160 1.366 1_655 S
C3159 C3161 1.388 . S
C3160 C3159 1.366 1_455 S
C3160 C3164 1.385 . S
C3161 H3136 0.951 . S
C3161 C3159 1.388 . S
C3161 C3162 1.366 1_655 S
C3162 C3161 1.366 1_455 S
C3162 C3163 1.414 . S
C3162 C3165 1.499 . S
C3163 H3137 0.950 . S
C3163 C3162 1.414 . S
C3163 C3164 1.374 . S
C3164 H3138 0.950 . S
C3164 C3160 1.385 . S
C3164 C3163 1.374 . S
C3165 C3162 1.499 . S
C3165 C3166 1.373 . S
C3165 C3167 1.389 1_455 S
C3166 H3139 0.950 . S
C3166 C3152 1.377 . S
C3166 C3165 1.373 . S
C3167 C3151 1.377 . S
C3167 C3165 1.389 1_655 S
C3167 C3168 1.524 . S
C3168 C3167 1.524 . S
C3168 C3169 1.397 . S
C3168 C3173 1.363 . S
C3169 H3140 0.950 . S
C3169 C3168 1.397 . S
C3169 C3170 1.334 . S
C3170 H3141 0.950 . S
C3170 C3169 1.334 . S
C3170 C3171 1.287 . S
C3171 C3170 1.287 . S
C3171 C3172 1.524 . S
C3171 H3174 0.999 . S
C3172 H3142 0.950 . S
C3172 C3171 1.524 . S
C3172 C3173 1.415 . S
C3173 H3143 0.950 . S
C3173 C3168 1.363 . S
C3173 C3172 1.415 . S
H3174 C3171 0.999 . S
H3175 C3156 0.913 . S
H3176 C3194 0.951 . S
H3177 C3196 0.951 . S
H3178 C3198 0.950 . S
H3179 C3199 0.950 . S
H3180 C3201 0.950 . S
H3181 C3204 0.950 . S
H3182 C3205 0.950 . S
H3183 C3207 0.950 . S
H3184 C3208 0.950 . S
H3185 C3209 0.951 . S
H3186 C3211 0.951 . S
H3187 C3213 0.950 . S
H3188 C3214 0.950 . S
H3189 C3216 0.950 . S
H3190 C3219 0.950 . S
H3191 C3220 0.950 . S
H3192 C3222 0.950 . S
H3193 C3223 0.950 . S
C3194 H3176 0.951 . S
C3194 C3195 1.366 . S
C3194 C3196 1.388 . S
C3195 C3194 1.366 . S
C3195 C3199 1.385 . S
C3196 H3177 0.951 . S
C3196 C3194 1.388 . S
C3196 C3197 1.366 . S
C3197 C3196 1.366 . S
C3197 C3198 1.414 . S
C3197 C3200 1.499 . S
C3198 H3178 0.950 . S
C3198 C3197 1.414 . S
C3198 C3199 1.374 . S
C3199 H3179 0.950 . S
C3199 C3195 1.385 . S
C3199 C3198 1.374 . S
C3200 C3197 1.499 . S
C3200 C3201 1.373 . S
C3200 C3202 1.389 . S
C3201 H3180 0.950 . S
C3201 C3200 1.373 . S
C3201 C3217 1.377 . S
C3202 C3200 1.389 . S
C3202 C3203 1.524 . S
C3202 C3216 1.377 . S
C3203 C3202 1.524 . S
C3203 C3204 1.397 . S
C3203 C3208 1.363 . S
C3204 H3181 0.950 . S
C3204 C3203 1.397 . S
C3204 C3205 1.334 . S
C3205 H3182 0.950 . S
C3205 C3204 1.334 . S
C3205 C3206 1.287 . S
C3206 C3205 1.287 . S
C3206 C3207 1.524 . S
C3206 H3225 0.913 . S
C3207 H3183 0.950 . S
C3207 C3206 1.524 . S
C3207 C3208 1.415 . S
C3208 H3184 0.950 . S
C3208 C3203 1.363 . S
C3208 C3207 1.415 . S
C3209 H3185 0.951 . S
C3209 C3210 1.366 . S
C3209 C3211 1.388 . S
C3210 C3209 1.366 . S
C3210 C3214 1.385 . S
C3211 H3186 0.951 . S
C3211 C3209 1.388 . S
C3211 C3212 1.366 . S
C3212 C3211 1.366 . S
C3212 C3213 1.414 . S
C3212 C3215 1.499 . S
C3213 H3187 0.950 . S
C3213 C3212 1.414 . S
C3213 C3214 1.374 . S
C3214 H3188 0.950 . S
C3214 C3210 1.385 . S
C3214 C3213 1.374 . S
C3215 C3212 1.499 . S
C3215 C3216 1.373 . S
C3215 C3217 1.389 . S
C3216 H3189 0.950 . S
C3216 C3202 1.377 . S
C3216 C3215 1.373 . S
C3217 C3201 1.377 . S
C3217 C3215 1.389 . S
C3217 C3218 1.524 . S
C3218 C3217 1.524 . S
C3218 C3219 1.397 . S
C3218 C3223 1.363 . S
C3219 H3190 0.950 . S
C3219 C3218 1.397 . S
C3219 C3220 1.334 . S
C3220 H3191 0.950 . S
C3220 C3219 1.334 . S
C3220 C3221 1.287 . S
C3221 C3220 1.287 . S
C3221 C3222 1.524 . S
C3221 H3224 0.999 . S
C3222 H3192 0.950 . S
C3222 C3221 1.524 . S
C3222 C3223 1.415 . S
C3223 H3193 0.950 . S
C3223 C3218 1.363 . S
C3223 C3222 1.415 . S
H3224 C3221 0.999 . S
H3225 C3206 0.913 . S
H3226 C3244 0.951 . S
H3227 C3246 0.951 . S
H3228 C3248 0.932 1_545 S
H3229 C3249 0.950 1_545 S
H3230 C3251 0.950 . S
H3231 C3254 0.950 . S
H3232 C3255 0.950 . S
H3233 C3257 0.989 . S
H3234 C3258 0.950 . S
H3235 C3259 0.951 . S
H3236 C3261 0.951 . S
H3237 C3263 0.950 . S
H3238 C3264 0.950 . S
H3239 C3266 0.950 . S
H3240 C3269 0.950 . S
H3241 C3270 0.950 . S
H3242 C3272 0.950 . S
H3243 C3273 0.974 . S
C3244 H3226 0.951 . S
C3244 C3245 1.366 . S
C3244 C3246 1.388 . S
C3245 C3244 1.366 . S
C3245 C3249 1.385 . S
C3246 H3227 0.951 . S
C3246 C3244 1.388 . S
C3246 C3247 1.366 . S
C3247 C3246 1.366 . S
C3247 C3248 1.451 . S
C3247 C3250 1.499 . S
C3248 H3228 0.932 1_565 S
C3248 C3247 1.451 . S
C3248 C3249 1.357 . S
C3249 H3229 0.950 1_565 S
C3249 C3245 1.385 . S
C3249 C3248 1.357 . S
C3250 C3247 1.499 . S
C3250 C3251 1.373 . S
C3250 C3252 1.389 . S
C3251 H3230 0.950 . S
C3251 C3250 1.373 . S
C3251 C3267 1.377 . S
C3252 C3250 1.389 . S
C3252 C3253 1.506 1_565 S
C3252 C3266 1.377 . S
C3253 C3252 1.506 1_545 S
C3253 C3254 1.485 . S
C3253 C3258 1.302 1_545 S
C3254 H3231 0.950 . S
C3254 C3253 1.485 . S
C3254 C3255 1.334 . S
C3255 H3232 0.950 . S
C3255 C3254 1.334 . S
C3255 C3256 1.287 . S
C3256 C3255 1.287 . S
C3256 C3257 1.466 1_545 S
C3256 H3275 0.913 . S
C3257 H3233 0.989 . S
C3257 C3256 1.466 1_565 S
C3257 C3258 1.431 . S
C3258 H3234 0.950 . S
C3258 C3253 1.302 1_565 S
C3258 C3257 1.431 . S
C3259 H3235 0.951 . S
C3259 C3260 1.366 1_545 S
C3259 C3261 1.388 . S
C3260 C3259 1.366 1_565 S
C3260 C3264 1.385 . S
C3261 H3236 0.951 . S
C3261 C3259 1.388 . S
C3261 C3262 1.366 1_545 S
C3262 C3261 1.366 1_565 S
C3262 C3263 1.414 . S
C3262 C3265 1.499 . S
C3263 H3237 0.950 . S
C3263 C3262 1.414 . S
C3263 C3264 1.374 . S
C3264 H3238 0.950 . S
C3264 C3260 1.385 . S
C3264 C3263 1.374 . S
C3265 C3262 1.499 . S
C3265 C3266 1.373 . S
C3265 C3267 1.389 . S
C3266 H3239 0.950 . S
C3266 C3252 1.377 . S
C3266 C3265 1.373 . S
C3267 C3251 1.377 . S
C3267 C3265 1.389 . S
C3267 C3268 1.524 . S
C3268 C3267 1.524 . S
C3268 C3269 1.397 . S
C3268 C3273 1.363 . S
C3269 H3240 0.950 . S
C3269 C3268 1.397 . S
C3269 C3270 1.334 . S
C3270 H3241 0.950 . S
C3270 C3269 1.334 . S
C3270 C3271 1.287 . S
C3271 C3270 1.287 . S
C3271 C3272 1.524 . S
C3271 H3274 0.999 . S
C3272 H3242 0.950 . S
C3272 C3271 1.524 . S
C3272 C3273 1.415 . S
C3273 H3243 0.974 . S
C3273 C3268 1.363 . S
C3273 C3272 1.415 . S
H3274 C3271 0.999 . S
H3275 C3256 0.913 . S
H3276 C3294 0.951 . S
H3277 C3296 0.951 . S
H3278 C3298 0.972 . S
H3279 C3299 0.950 . S
H3280 C3301 0.950 . S
H3281 C3304 0.950 . S
H3282 C3305 0.950 . S
H3283 C3307 0.950 . S
H3284 C3308 0.950 . S
H3285 C3309 0.951 . S
H3286 C3311 0.951 . S
H3287 C3313 0.950 . S
H3288 C3314 0.950 . S
H3289 C3316 0.950 . S
H3290 C3319 0.950 . S
H3291 C3320 0.950 . S
H3292 C3322 0.950 . S
H3293 C3323 0.950 . S
C3294 H3276 0.951 . S
C3294 C3295 1.366 . S
C3294 C3296 1.388 . S
C3295 C3294 1.366 . S
C3295 C3299 1.385 . S
C3296 H3277 0.951 . S
C3296 C3294 1.388 . S
C3296 C3297 1.366 . S
C3297 C3296 1.366 . S
C3297 C3298 1.414 . S
C3297 C3300 1.499 . S
C3298 H3278 0.972 . S
C3298 C3297 1.414 . S
C3298 C3299 1.374 . S
C3299 H3279 0.950 . S
C3299 C3295 1.385 . S
C3299 C3298 1.374 . S
C3300 C3297 1.499 . S
C3300 C3301 1.373 . S
C3300 C3302 1.389 1_565 S
C3301 H3280 0.950 . S
C3301 C3300 1.373 . S
C3301 C3317 1.377 . S
C3302 C3300 1.389 1_545 S
C3302 C3303 1.524 . S
C3302 C3316 1.377 . S
C3303 C3302 1.524 . S
C3303 C3304 1.397 . S
C3303 C3308 1.363 . S
C3304 H3281 0.950 . S
C3304 C3303 1.397 . S
C3304 C3305 1.334 . S
C3305 H3282 0.950 . S
C3305 C3304 1.334 . S
C3305 C3306 1.287 . S
C3306 C3305 1.287 . S
C3306 C3307 1.524 . S
C3306 H3325 0.913 . S
C3307 H3283 0.950 . S
C3307 C3306 1.524 . S
C3307 C3308 1.415 . S
C3308 H3284 0.950 . S
C3308 C3303 1.363 . S
C3308 C3307 1.415 . S
C3309 H3285 0.951 . S
C3309 C3310 1.367 1_545 S
C3309 C3311 1.388 . S
C3310 C3309 1.367 1_565 S
C3310 C3314 1.380 . S
C3311 H3286 0.951 . S
C3311 C3309 1.388 . S
C3311 C3312 1.366 1_545 S
C3312 C3311 1.366 1_565 S
C3312 C3313 1.414 . S
C3312 C3315 1.499 . S
C3313 H3287 0.950 . S
C3313 C3312 1.414 . S
C3313 C3314 1.374 . S
C3314 H3288 0.950 . S
C3314 C3310 1.380 . S
C3314 C3313 1.374 . S
C3315 C3312 1.499 . S
C3315 C3316 1.373 1_565 S
C3315 C3317 1.389 . S
C3316 H3289 0.950 . S
C3316 C3302 1.377 . S
C3316 C3315 1.373 1_545 S
C3317 C3301 1.377 . S
C3317 C3315 1.389 . S
C3317 C3318 1.524 . S
C3318 C3317 1.524 . S
C3318 C3319 1.397 . S
C3318 C3323 1.363 . S
C3319 H3290 0.950 . S
C3319 C3318 1.397 . S
C3319 C3320 1.334 . S
C3320 H3291 0.950 . S
C3320 C3319 1.334 . S
C3320 C3321 1.287 . S
C3321 C3320 1.287 . S
C3321 C3322 1.524 . S
C3321 H3324 0.999 . S
C3322 H3292 0.950 . S
C3322 C3321 1.524 . S
C3322 C3323 1.415 . S
C3323 H3293 0.950 . S
C3323 C3318 1.363 . S
C3323 C3322 1.415 . S
H3324 C3321 0.999 . S
H3325 C3306 0.913 . S
H3326 C3344 0.951 . S
H3327 C3346 0.951 . S
H3328 C3348 0.950 . S
H3329 C3349 0.950 . S
H3330 C3351 0.950 . S
H3331 C3354 0.950 . S
H3332 C3355 0.950 . S
H3333 C3357 0.950 . S
H3334 C3358 0.950 . S
H3335 C3359 0.951 . S
H3336 C3361 0.951 . S
H3337 C3363 0.956 . S
H3338 C3364 0.950 . S
H3339 C3366 0.950 . S
H3340 C3369 0.950 . S
H3341 C3370 0.950 . S
H3342 C3372 0.950 . S
H3343 C3373 0.950 . S
C3344 H3326 0.951 . S
C3344 C3345 1.366 . S
C3344 C3346 1.388 . S
C3345 C3344 1.366 . S
C3345 C3349 1.385 . S
C3346 H3327 0.951 . S
C3346 C3344 1.388 . S
C3346 C3347 1.366 . S
C3347 C3346 1.366 . S
C3347 C3348 1.414 . S
C3347 C3350 1.499 . S
C3348 H3328 0.950 . S
C3348 C3347 1.414 . S
C3348 C3349 1.374 . S
C3349 H3329 0.950 . S
C3349 C3345 1.385 . S
C3349 C3348 1.374 . S
C3350 C3347 1.499 . S
C3350 C3351 1.373 1_455 S
C3350 C3352 1.389 . S
C3351 H3330 0.950 . S
C3351 C3350 1.373 1_655 S
C3351 C3367 1.377 . S
C3352 C3350 1.389 . S
C3352 C3353 1.524 . S
C3352 C3366 1.377 . S
C3353 C3352 1.524 . S
C3353 C3354 1.397 . S
C3353 C3358 1.363 . S
C3354 H3331 0.950 . S
C3354 C3353 1.397 . S
C3354 C3355 1.334 . S
C3355 H3332 0.950 . S
C3355 C3354 1.334 . S
C3355 C3356 1.287 . S
C3356 C3355 1.287 . S
C3356 C3357 1.524 . S
C3356 H3375 0.913 . S
C3357 H3333 0.950 . S
C3357 C3356 1.524 . S
C3357 C3358 1.415 . S
C3358 H3334 0.950 . S
C3358 C3353 1.363 . S
C3358 C3357 1.415 . S
C3359 H3335 0.951 . S
C3359 C3360 1.367 . S
C3359 C3361 1.388 . S
C3360 C3359 1.367 . S
C3360 C3364 1.385 1_455 S
C3361 H3336 0.951 . S
C3361 C3359 1.388 . S
C3361 C3362 1.366 . S
C3362 C3361 1.366 . S
C3362 C3363 1.428 1_455 S
C3362 C3365 1.499 . S
C3363 H3337 0.956 . S
C3363 C3362 1.428 1_655 S
C3363 C3364 1.356 . S
C3364 H3338 0.950 . S
C3364 C3360 1.385 1_655 S
C3364 C3363 1.356 . S
C3365 C3362 1.499 . S
C3365 C3366 1.373 . S
C3365 C3367 1.389 1_455 S
C3366 H3339 0.950 . S
C3366 C3352 1.377 . S
C3366 C3365 1.373 . S
C3367 C3351 1.377 . S
C3367 C3365 1.389 1_655 S
C3367 C3368 1.524 . S
C3368 C3367 1.524 . S
C3368 C3369 1.397 . S
C3368 C3373 1.363 . S
C3369 H3340 0.950 . S
C3369 C3368 1.397 . S
C3369 C3370 1.334 . S
C3370 H3341 0.950 . S
C3370 C3369 1.334 . S
C3370 C3371 1.287 . S
C3371 C3370 1.287 . S
C3371 C3372 1.524 . S
C3371 H3374 0.999 . S
C3372 H3342 0.950 . S
C3372 C3371 1.524 . S
C3372 C3373 1.415 . S
C3373 H3343 0.950 . S
C3373 C3368 1.363 . S
C3373 C3372 1.415 . S
H3374 C3371 0.999 . S
H3375 C3356 0.913 . S
H3376 C3394 0.951 . S
H3377 C3396 0.951 . S
H3378 C3398 0.950 . S
H3379 C3399 0.950 . S
H3380 C3401 0.950 . S
H3381 C3404 0.950 . S
H3382 C3405 0.950 . S
H3383 C3407 0.950 . S
H3384 C3408 0.950 . S
H3385 C3409 0.951 . S
H3386 C3411 0.951 . S
H3387 C3413 0.950 . S
H3388 C3414 0.950 . S
H3389 C3416 0.950 . S
H3390 C3419 0.950 . S
H3391 C3420 0.950 . S
H3392 C3422 0.950 . S
H3393 C3423 0.950 . S
C3394 H3376 0.951 . S
C3394 C3395 1.366 . S
C3394 C3396 1.388 . S
C3395 C3394 1.366 . S
C3395 C3399 1.385 . S
C3396 H3377 0.951 . S
C3396 C3394 1.388 . S
C3396 C3397 1.366 . S
C3397 C3396 1.366 . S
C3397 C3398 1.414 . S
C3397 C3400 1.499 . S
C3398 H3378 0.950 . S
C3398 C3397 1.414 . S
C3398 C3399 1.374 . S
C3399 H3379 0.950 . S
C3399 C3395 1.385 . S
C3399 C3398 1.374 . S
C3400 C3397 1.499 . S
C3400 C3401 1.373 . S
C3400 C3402 1.389 . S
C3401 H3380 0.950 . S
C3401 C3400 1.373 . S
C3401 C3417 1.377 . S
C3402 C3400 1.389 . S
C3402 C3403 1.524 . S
C3402 C3416 1.377 . S
C3403 C3402 1.524 . S
C3403 C3404 1.397 . S
C3403 C3408 1.363 . S
C3404 H3381 0.950 . S
C3404 C3403 1.397 . S
C3404 C3405 1.334 . S
C3405 H3382 0.950 . S
C3405 C3404 1.334 . S
C3405 C3406 1.287 . S
C3406 C3405 1.287 . S
C3406 C3407 1.524 . S
C3406 H3425 0.913 . S
C3407 H3383 0.950 . S
C3407 C3406 1.524 . S
C3407 C3408 1.415 . S
C3408 H3384 0.950 . S
C3408 C3403 1.363 . S
C3408 C3407 1.415 . S
C3409 H3385 0.951 . S
C3409 C3410 1.366 . S
C3409 C3411 1.388 . S
C3410 C3409 1.366 . S
C3410 C3414 1.385 . S
C3411 H3386 0.951 . S
C3411 C3409 1.388 . S
C3411 C3412 1.366 . S
C3412 C3411 1.366 . S
C3412 C3413 1.414 . S
C3412 C3415 1.499 . S
C3413 H3387 0.950 . S
C3413 C3412 1.414 . S
C3413 C3414 1.374 . S
C3414 H3388 0.950 . S
C3414 C3410 1.385 . S
C3414 C3413 1.374 . S
C3415 C3412 1.499 . S
C3415 C3416 1.373 . S
C3415 C3417 1.389 . S
C3416 H3389 0.950 . S
C3416 C3402 1.377 . S
C3416 C3415 1.373 . S
C3417 C3401 1.377 . S
C3417 C3415 1.389 . S
C3417 C3418 1.524 . S
C3418 C3417 1.524 . S
C3418 C3419 1.397 . S
C3418 C3423 1.363 . S
C3419 H3390 0.950 . S
C3419 C3418 1.397 . S
C3419 C3420 1.334 . S
C3420 H3391 0.950 . S
C3420 C3419 1.334 . S
C3420 C3421 1.287 . S
C3421 C3420 1.287 . S
C3421 C3422 1.524 . S
C3421 H3424 0.999 . S
C3422 H3392 0.950 . S
C3422 C3421 1.524 . S
C3422 C3423 1.415 . S
C3423 H3393 0.950 . S
C3423 C3418 1.363 . S
C3423 C3422 1.415 . S
H3424 C3421 0.999 . S
H3425 C3406 0.913 . S
H3426 C3444 0.951 . S
H3427 C3446 0.951 . S
H3428 C3448 0.950 . S
H3429 C3449 0.950 . S
H3430 C3451 0.950 . S
H3431 C3454 0.950 . S
H3432 C3455 0.950 . S
H3433 C3457 0.950 . S
H3434 C3458 0.950 . S
H3435 C3459 0.951 . S
H3436 C3461 0.951 . S
H3437 C3463 0.950 . S
H3438 C3464 0.950 . S
H3439 C3466 0.950 . S
H3440 C3469 0.950 . S
H3441 C3470 0.950 . S
H3442 C3472 0.950 . S
H3443 C3473 0.950 . S
C3444 H3426 0.951 . S
C3444 C3445 1.366 . S
C3444 C3446 1.388 . S
C3445 C3444 1.366 . S
C3445 C3449 1.385 . S
C3446 H3427 0.951 . S
C3446 C3444 1.388 . S
C3446 C3447 1.366 . S
C3447 C3446 1.366 . S
C3447 C3448 1.414 . S
C3447 C3450 1.499 . S
C3448 H3428 0.950 . S
C3448 C3447 1.414 . S
C3448 C3449 1.374 . S
C3449 H3429 0.950 . S
C3449 C3445 1.385 . S
C3449 C3448 1.374 . S
C3450 C3447 1.499 . S
C3450 C3451 1.373 . S
C3450 C3452 1.389 . S
C3451 H3430 0.950 . S
C3451 C3450 1.373 . S
C3451 C3467 1.377 . S
C3452 C3450 1.389 . S
C3452 C3453 1.524 . S
C3452 C3466 1.377 . S
C3453 C3452 1.524 . S
C3453 C3454 1.397 . S
C3453 C3458 1.363 . S
C3454 H3431 0.950 . S
C3454 C3453 1.397 . S
C3454 C3455 1.334 . S
C3455 H3432 0.950 . S
C3455 C3454 1.334 . S
C3455 C3456 1.287 . S
C3456 C3455 1.287 . S
C3456 C3457 1.524 . S
C3456 H3475 0.913 . S
C3457 H3433 0.950 . S
C3457 C3456 1.524 . S
C3457 C3458 1.415 . S
C3458 H3434 0.950 . S
C3458 C3453 1.363 . S
C3458 C3457 1.415 . S
C3459 H3435 0.951 . S
C3459 C3460 1.366 . S
C3459 C3461 1.388 . S
C3460 C3459 1.366 . S
C3460 C3464 1.385 . S
C3461 H3436 0.951 . S
C3461 C3459 1.388 . S
C3461 C3462 1.366 . S
C3462 C3461 1.366 . S
C3462 C3463 1.414 . S
C3462 C3465 1.499 . S
C3463 H3437 0.950 . S
C3463 C3462 1.414 . S
C3463 C3464 1.374 . S
C3464 H3438 0.950 . S
C3464 C3460 1.385 . S
C3464 C3463 1.374 . S
C3465 C3462 1.499 . S
C3465 C3466 1.373 . S
C3465 C3467 1.389 . S
C3466 H3439 0.950 . S
C3466 C3452 1.377 . S
C3466 C3465 1.373 . S
C3467 C3451 1.377 . S
C3467 C3465 1.389 . S
C3467 C3468 1.524 . S
C3468 C3467 1.524 . S
C3468 C3469 1.397 . S
C3468 C3473 1.363 . S
C3469 H3440 0.950 . S
C3469 C3468 1.397 . S
C3469 C3470 1.334 . S
C3470 H3441 0.950 . S
C3470 C3469 1.334 . S
C3470 C3471 1.287 . S
C3471 C3470 1.287 . S
C3471 C3472 1.524 . S
C3471 H3474 0.999 . S
C3472 H3442 0.950 . S
C3472 C3471 1.524 . S
C3472 C3473 1.415 . S
C3473 H3443 0.950 . S
C3473 C3468 1.363 . S
C3473 C3472 1.415 . S
H3474 C3471 0.999 . S
H3475 C3456 0.913 . S
H3476 C3494 0.951 . S
H3477 C3496 0.951 . S
H3478 C3498 0.950 . S
H3479 C3499 0.950 . S
H3480 C3501 0.950 . S
H3481 C3504 0.950 . S
H3482 C3505 0.950 . S
H3483 C3507 0.950 . S
H3484 C3508 0.950 . S
H3485 C3509 0.951 . S
H3486 C3511 0.951 . S
H3487 C3513 0.950 . S
H3488 C3514 0.950 . S
H3489 C3516 0.950 . S
H3490 C3519 0.950 . S
H3491 C3520 0.950 . S
H3492 C3522 0.950 . S
H3493 C3523 0.950 . S
C3494 H3476 0.951 . S
C3494 C3495 1.366 . S
C3494 C3496 1.388 . S
C3495 C3494 1.366 . S
C3495 C3499 1.385 . S
C3496 H3477 0.951 . S
C3496 C3494 1.388 . S
C3496 C3497 1.366 . S
C3497 C3496 1.366 . S
C3497 C3498 1.414 . S
C3497 C3500 1.499 . S
C3498 H3478 0.950 . S
C3498 C3497 1.414 . S
C3498 C3499 1.374 . S
C3499 H3479 0.950 . S
C3499 C3495 1.385 . S
C3499 C3498 1.374 . S
C3500 C3497 1.499 . S
C3500 C3501 1.373 . S
C3500 C3502 1.389 . S
C3501 H3480 0.950 . S
C3501 C3500 1.373 . S
C3501 C3517 1.377 . S
C3502 C3500 1.389 . S
C3502 C3503 1.524 . S
C3502 C3516 1.377 . S
C3503 C3502 1.524 . S
C3503 C3504 1.397 . S
C3503 C3508 1.363 . S
C3504 H3481 0.950 . S
C3504 C3503 1.397 . S
C3504 C3505 1.334 . S
C3505 H3482 0.950 . S
C3505 C3504 1.334 . S
C3505 C3506 1.287 . S
C3506 C3505 1.287 . S
C3506 C3507 1.524 . S
C3506 H3525 0.913 . S
C3507 H3483 0.950 . S
C3507 C3506 1.524 . S
C3507 C3508 1.415 . S
C3508 H3484 0.950 . S
C3508 C3503 1.363 . S
C3508 C3507 1.415 . S
C3509 H3485 0.951 . S
C3509 C3510 1.366 . S
C3509 C3511 1.388 . S
C3510 C3509 1.366 . S
C3510 C3514 1.385 . S
C3511 H3486 0.951 . S
C3511 C3509 1.388 . S
C3511 C3512 1.366 . S
C3512 C3511 1.366 . S
C3512 C3513 1.414 . S
C3512 C3515 1.499 . S
C3513 H3487 0.950 . S
C3513 C3512 1.414 . S
C3513 C3514 1.374 . S
C3514 H3488 0.950 . S
C3514 C3510 1.385 . S
C3514 C3513 1.374 . S
C3515 C3512 1.499 . S
C3515 C3516 1.373 . S
C3515 C3517 1.389 . S
C3516 H3489 0.950 . S
C3516 C3502 1.377 . S
C3516 C3515 1.373 . S
C3517 C3501 1.377 . S
C3517 C3515 1.389 . S
C3517 C3518 1.524 . S
C3518 C3517 1.524 . S
C3518 C3519 1.397 . S
C3518 C3523 1.363 . S
C3519 H3490 0.950 . S
C3519 C3518 1.397 . S
C3519 C3520 1.334 . S
C3520 H3491 0.950 . S
C3520 C3519 1.334 . S
C3520 C3521 1.287 . S
C3521 C3520 1.287 . S
C3521 C3522 1.524 . S
C3521 H3524 0.999 . S
C3522 H3492 0.950 . S
C3522 C3521 1.524 . S
C3522 C3523 1.415 . S
C3523 H3493 0.950 . S
C3523 C3518 1.363 . S
C3523 C3522 1.415 . S
H3524 C3521 0.999 . S
H3525 C3506 0.913 . S
H3526 C3544 0.951 . S
H3527 C3546 0.951 . S
H3528 C3548 0.950 . S
H3529 C3549 0.950 . S
H3530 C3551 0.950 . S
H3531 C3554 0.950 . S
H3532 C3555 0.950 . S
H3533 C3557 0.950 . S
H3534 C3558 0.950 . S
H3535 C3559 0.951 . S
H3536 C3561 0.951 . S
H3537 C3563 0.950 . S
H3538 C3564 0.950 . S
H3539 C3566 0.950 . S
H3540 C3569 0.950 . S
H3541 C3570 0.950 . S
H3542 C3572 0.950 . S
H3543 C3573 0.950 . S
C3544 H3526 0.951 . S
C3544 C3545 1.366 . S
C3544 C3546 1.388 . S
C3545 C3544 1.366 . S
C3545 C3549 1.385 . S
C3546 H3527 0.951 . S
C3546 C3544 1.388 . S
C3546 C3547 1.366 . S
C3547 C3546 1.366 . S
C3547 C3548 1.414 . S
C3547 C3550 1.499 . S
C3548 H3528 0.950 . S
C3548 C3547 1.414 . S
C3548 C3549 1.374 . S
C3549 H3529 0.950 . S
C3549 C3545 1.385 . S
C3549 C3548 1.374 . S
C3550 C3547 1.499 . S
C3550 C3551 1.373 . S
C3550 C3552 1.389 . S
C3551 H3530 0.950 . S
C3551 C3550 1.373 . S
C3551 C3567 1.377 . S
C3552 C3550 1.389 . S
C3552 C3553 1.524 . S
C3552 C3566 1.377 . S
C3553 C3552 1.524 . S
C3553 C3554 1.397 . S
C3553 C3558 1.363 . S
C3554 H3531 0.950 . S
C3554 C3553 1.397 . S
C3554 C3555 1.334 . S
C3555 H3532 0.950 . S
C3555 C3554 1.334 . S
C3555 C3556 1.287 . S
C3556 C3555 1.287 . S
C3556 C3557 1.524 . S
C3556 H3575 0.913 . S
C3557 H3533 0.950 . S
C3557 C3556 1.524 . S
C3557 C3558 1.415 . S
C3558 H3534 0.950 . S
C3558 C3553 1.363 . S
C3558 C3557 1.415 . S
C3559 H3535 0.951 . S
C3559 C3560 1.366 . S
C3559 C3561 1.388 . S
C3560 C3559 1.366 . S
C3560 C3564 1.385 . S
C3561 H3536 0.951 . S
C3561 C3559 1.388 . S
C3561 C3562 1.366 . S
C3562 C3561 1.366 . S
C3562 C3563 1.414 . S
C3562 C3565 1.499 . S
C3563 H3537 0.950 . S
C3563 C3562 1.414 . S
C3563 C3564 1.374 . S
C3564 H3538 0.950 . S
C3564 C3560 1.385 . S
C3564 C3563 1.374 . S
C3565 C3562 1.499 . S
C3565 C3566 1.373 . S
C3565 C3567 1.389 . S
C3566 H3539 0.950 . S
C3566 C3552 1.377 . S
C3566 C3565 1.373 . S
C3567 C3551 1.377 . S
C3567 C3565 1.389 . S
C3567 C3568 1.524 . S
C3568 C3567 1.524 . S
C3568 C3569 1.397 . S
C3568 C3573 1.363 . S
C3569 H3540 0.950 . S
C3569 C3568 1.397 . S
C3569 C3570 1.334 . S
C3570 H3541 0.950 . S
C3570 C3569 1.334 . S
C3570 C3571 1.287 . S
C3571 C3570 1.287 . S
C3571 C3572 1.524 . S
C3571 H3574 0.999 . S
C3572 H3542 0.950 . S
C3572 C3571 1.524 . S
C3572 C3573 1.415 . S
C3573 H3543 0.950 . S
C3573 C3568 1.363 . S
C3573 C3572 1.415 . S
H3574 C3571 0.999 . S
H3575 C3556 0.913 . S
H3576 C3594 0.951 . S
H3577 C3596 0.951 . S
H3578 C3598 0.950 . S
H3579 C3599 0.950 . S
H3580 C3601 0.965 . S
H3581 C3604 0.950 . S
H3582 C3605 0.950 . S
H3583 C3607 0.950 . S
H3584 C3608 0.950 . S
H3585 C3609 0.951 . S
H3586 C3611 0.951 . S
H3587 C3613 0.950 . S
H3588 C3614 0.951 . S
H3589 C3616 0.950 . S
H3590 C3619 0.950 . S
H3591 C3620 0.950 . S
H3592 C3622 0.950 . S
H3593 C3623 0.950 . S
C3594 H3576 0.951 . S
C3594 C3595 1.366 . S
C3594 C3596 1.388 . S
C3595 C3594 1.366 . S
C3595 C3599 1.385 . S
C3596 H3577 0.951 . S
C3596 C3594 1.388 . S
C3596 C3597 1.366 . S
C3597 C3596 1.366 . S
C3597 C3598 1.414 . S
C3597 C3600 1.499 . S
C3598 H3578 0.950 . S
C3598 C3597 1.414 . S
C3598 C3599 1.374 . S
C3599 H3579 0.950 . S
C3599 C3595 1.385 . S
C3599 C3598 1.374 . S
C3600 C3597 1.499 . S
C3600 C3601 1.337 1_545 S
C3600 C3602 1.389 . S
C3601 H3580 0.965 . S
C3601 C3600 1.337 1_565 S
C3601 C3617 1.399 . S
C3602 C3600 1.389 . S
C3602 C3603 1.524 . S
C3602 C3616 1.377 . S
C3603 C3602 1.524 . S
C3603 C3604 1.397 . S
C3603 C3608 1.363 . S
C3604 H3581 0.950 . S
C3604 C3603 1.397 . S
C3604 C3605 1.334 . S
C3605 H3582 0.950 . S
C3605 C3604 1.334 . S
C3605 C3606 1.287 . S
C3606 C3605 1.287 . S
C3606 C3607 1.524 . S
C3606 H3625 0.913 . S
C3607 H3583 0.950 . S
C3607 C3606 1.524 . S
C3607 C3608 1.415 . S
C3608 H3584 0.950 . S
C3608 C3603 1.363 . S
C3608 C3607 1.415 . S
C3609 H3585 0.951 . S
C3609 C3610 1.366 . S
C3609 C3611 1.388 . S
C3610 C3609 1.366 . S
C3610 C3614 1.385 . S
C3611 H3586 0.951 . S
C3611 C3609 1.388 . S
C3611 C3612 1.366 . S
C3612 C3611 1.366 . S
C3612 C3613 1.414 . S
C3612 C3615 1.499 . S
C3613 H3587 0.950 . S
C3613 C3612 1.414 . S
C3613 C3614 1.374 . S
C3614 H3588 0.951 . S
C3614 C3610 1.385 . S
C3614 C3613 1.374 . S
C3615 C3612 1.499 . S
C3615 C3616 1.373 . S
C3615 C3617 1.389 1_545 S
C3616 H3589 0.950 . S
C3616 C3602 1.377 . S
C3616 C3615 1.373 . S
C3617 C3601 1.399 . S
C3617 C3615 1.389 1_565 S
C3617 C3618 1.524 . S
C3618 C3617 1.524 . S
C3618 C3619 1.397 . S
C3618 C3623 1.363 . S
C3619 H3590 0.950 . S
C3619 C3618 1.397 . S
C3619 C3620 1.334 . S
C3620 H3591 0.950 . S
C3620 C3619 1.334 . S
C3620 C3621 1.287 . S
C3621 C3620 1.287 . S
C3621 C3622 1.524 . S
C3621 H3624 0.999 . S
C3622 H3592 0.950 . S
C3622 C3621 1.524 . S
C3622 C3623 1.415 . S
C3623 H3593 0.950 . S
C3623 C3618 1.363 . S
C3623 C3622 1.415 . S
H3624 C3621 0.999 . S
H3625 C3606 0.913 . S
H3626 C3644 0.951 1_455 S
H3627 C3646 0.924 1_455 S
H3628 C3648 0.950 . S
H3629 C3649 0.950 . S
H3630 C3651 0.950 . S
H3631 C3654 0.950 . S
H3632 C3655 0.950 . S
H3633 C3657 0.950 . S
H3634 C3658 0.950 1_455 S
H3635 C3659 0.951 . S
H3636 C3661 0.951 . S
H3637 C3663 0.950 . S
H3638 C3664 0.950 . S
H3639 C3666 0.950 . S
H3640 C3669 0.950 . S
H3641 C3670 0.950 . S
H3642 C3672 0.950 . S
H3643 C3673 0.950 . S
C3644 H3626 0.951 1_655 S
C3644 C3645 1.366 . S
C3644 C3646 1.362 . S
C3645 C3644 1.366 . S
C3645 C3649 1.385 . S
C3646 H3627 0.924 1_655 S
C3646 C3644 1.362 . S
C3646 C3647 1.422 . S
C3647 C3646 1.422 . S
C3647 C3648 1.414 . S
C3647 C3650 1.499 . S
C3648 H3628 0.950 . S
C3648 C3647 1.414 . S
C3648 C3649 1.374 . S
C3649 H3629 0.950 . S
C3649 C3645 1.385 . S
C3649 C3648 1.374 . S
C3650 C3647 1.499 . S
C3650 C3651 1.373 . S
C3650 C3652 1.389 . S
C3651 H3630 0.950 . S
C3651 C3650 1.373 . S
C3651 C3667 1.377 . S
C3652 C3650 1.389 . S
C3652 C3653 1.524 . S
C3652 C3666 1.377 . S
C3653 C3652 1.524 . S
C3653 C3654 1.397 . S
C3653 C3658 1.363 . S
C3654 H3631 0.950 . S
C3654 C3653 1.397 . S
C3654 C3655 1.334 . S
C3655 H3632 0.950 . S
C3655 C3654 1.334 . S
C3655 C3656 1.287 . S
C3656 C3655 1.287 . S
C3656 C3657 1.524 . S
C3656 H3675 0.913 . S
C3657 H3633 0.950 . S
C3657 C3656 1.524 . S
C3657 C3658 1.415 . S
C3658 H3634 0.950 1_655 S
C3658 C3653 1.363 . S
C3658 C3657 1.415 . S
C3659 H3635 0.951 . S
C3659 C3660 1.366 . S
C3659 C3661 1.388 . S
C3660 C3659 1.366 . S
C3660 C3664 1.385 1_655 S
C3661 H3636 0.951 . S
C3661 C3659 1.388 . S
C3661 C3662 1.366 . S
C3662 C3661 1.366 . S
C3662 C3663 1.414 1_655 S
C3662 C3665 1.499 . S
C3663 H3637 0.950 . S
C3663 C3662 1.414 1_455 S
C3663 C3664 1.374 . S
C3664 H3638 0.950 . S
C3664 C3660 1.385 1_455 S
C3664 C3663 1.374 . S
C3665 C3662 1.499 . S
C3665 C3666 1.373 . S
C3665 C3667 1.389 . S
C3666 H3639 0.950 . S
C3666 C3652 1.377 . S
C3666 C3665 1.373 . S
C3667 C3651 1.377 . S
C3667 C3665 1.389 . S
C3667 C3668 1.529 1_655 S
C3668 C3667 1.529 1_455 S
C3668 C3669 1.411 . S
C3668 C3673 1.348 1_455 S
C3669 H3640 0.950 . S
C3669 C3668 1.411 . S
C3669 C3670 1.334 . S
C3670 H3641 0.950 . S
C3670 C3669 1.334 . S
C3670 C3671 1.287 . S
C3671 C3670 1.287 . S
C3671 C3672 1.524 1_455 S
C3671 H3674 0.999 . S
C3672 H3642 0.950 . S
C3672 C3671 1.524 1_655 S
C3672 C3673 1.415 . S
C3673 H3643 0.950 . S
C3673 C3668 1.348 1_655 S
C3673 C3672 1.415 . S
H3674 C3671 0.999 . S
H3675 C3656 0.913 . S
H3676 C3694 0.951 . S
H3677 C3696 0.951 . S
H3678 C3698 0.950 . S
H3679 C3699 0.950 . S
H3680 C3701 0.950 . S
H3681 C3704 0.950 . S
H3682 C3705 0.950 . S
H3683 C3707 0.950 . S
H3684 C3708 0.950 . S
H3685 C3709 0.951 . S
H3686 C3711 0.951 . S
H3687 C3713 0.950 . S
H3688 C3714 0.950 . S
H3689 C3716 0.950 . S
H3690 C3719 0.950 . S
H3691 C3720 0.950 . S
H3692 C3722 0.950 . S
H3693 C3723 0.950 . S
C3694 H3676 0.951 . S
C3694 C3695 1.366 . S
C3694 C3696 1.388 . S
C3695 C3694 1.366 . S
C3695 C3699 1.385 . S
C3696 H3677 0.951 . S
C3696 C3694 1.388 . S
C3696 C3697 1.366 . S
C3697 C3696 1.366 . S
C3697 C3698 1.414 . S
C3697 C3700 1.499 . S
C3698 H3678 0.950 . S
C3698 C3697 1.414 . S
C3698 C3699 1.374 . S
C3699 H3679 0.950 . S
C3699 C3695 1.385 . S
C3699 C3698 1.374 . S
C3700 C3697 1.499 . S
C3700 C3701 1.373 . S
C3700 C3702 1.389 . S
C3701 H3680 0.950 . S
C3701 C3700 1.373 . S
C3701 C3717 1.377 . S
C3702 C3700 1.389 . S
C3702 C3703 1.524 . S
C3702 C3716 1.377 . S
C3703 C3702 1.524 . S
C3703 C3704 1.397 . S
C3703 C3708 1.363 . S
C3704 H3681 0.950 . S
C3704 C3703 1.397 . S
C3704 C3705 1.334 . S
C3705 H3682 0.950 . S
C3705 C3704 1.334 . S
C3705 C3706 1.287 . S
C3706 C3705 1.287 . S
C3706 C3707 1.524 . S
C3706 H3725 0.913 . S
C3707 H3683 0.950 . S
C3707 C3706 1.524 . S
C3707 C3708 1.415 . S
C3708 H3684 0.950 . S
C3708 C3703 1.363 . S
C3708 C3707 1.415 . S
C3709 H3685 0.951 . S
C3709 C3710 1.366 . S
C3709 C3711 1.388 . S
C3710 C3709 1.366 . S
C3710 C3714 1.385 . S
C3711 H3686 0.951 . S
C3711 C3709 1.388 . S
C3711 C3712 1.366 . S
C3712 C3711 1.366 . S
C3712 C3713 1.414 . S
C3712 C3715 1.499 . S
C3713 H3687 0.950 . S
C3713 C3712 1.414 . S
C3713 C3714 1.374 . S
C3714 H3688 0.950 . S
C3714 C3710 1.385 . S
C3714 C3713 1.374 . S
C3715 C3712 1.499 . S
C3715 C3716 1.373 . S
C3715 C3717 1.389 . S
C3716 H3689 0.950 . S
C3716 C3702 1.377 . S
C3716 C3715 1.373 . S
C3717 C3701 1.377 . S
C3717 C3715 1.389 . S
C3717 C3718 1.524 . S
C3718 C3717 1.524 . S
C3718 C3719 1.397 . S
C3718 C3723 1.363 . S
C3719 H3690 0.950 . S
C3719 C3718 1.397 . S
C3719 C3720 1.334 . S
C3720 H3691 0.950 . S
C3720 C3719 1.334 . S
C3720 C3721 1.287 . S
C3721 C3720 1.287 . S
C3721 C3722 1.524 . S
C3721 H3724 0.999 . S
C3722 H3692 0.950 . S
C3722 C3721 1.524 . S
C3722 C3723 1.415 . S
C3723 H3693 0.950 . S
C3723 C3718 1.363 . S
C3723 C3722 1.415 . S
H3724 C3721 0.999 . S
H3725 C3706 0.913 . S
H3726 C3744 0.951 . S
H3727 C3746 0.951 . S
H3728 C3748 0.950 . S
H3729 C3749 0.950 . S
H3730 C3751 0.950 . S
H3731 C3754 0.950 . S
H3732 C3755 0.950 . S
H3733 C3757 0.950 . S
H3734 C3758 0.950 . S
H3735 C3759 0.951 . S
H3736 C3761 0.951 . S
H3737 C3763 0.950 . S
H3738 C3764 0.950 . S
H3739 C3766 0.950 . S
H3740 C3769 0.950 . S
H3741 C3770 0.950 . S
H3742 C3772 0.950 . S
H3743 C3773 0.950 . S
C3744 H3726 0.951 . S
C3744 C3745 1.366 . S
C3744 C3746 1.388 . S
C3745 C3744 1.366 . S
C3745 C3749 1.385 . S
C3746 H3727 0.951 . S
C3746 C3744 1.388 . S
C3746 C3747 1.366 . S
C3747 C3746 1.366 . S
C3747 C3748 1.414 . S
C3747 C3750 1.499 . S
C3748 H3728 0.950 . S
C3748 C3747 1.414 . S
C3748 C3749 1.374 . S
C3749 H3729 0.950 . S
C3749 C3745 1.385 . S
C3749 C3748 1.374 . S
C3750 C3747 1.499 . S
C3750 C3751 1.373 . S
C3750 C3752 1.389 . S
C3751 H3730 0.950 . S
C3751 C3750 1.373 . S
C3751 C3767 1.377 . S
C3752 C3750 1.389 . S
C3752 C3753 1.524 . S
C3752 C3766 1.377 . S
C3753 C3752 1.524 . S
C3753 C3754 1.397 . S
C3753 C3758 1.363 . S
C3754 H3731 0.950 . S
C3754 C3753 1.397 . S
C3754 C3755 1.334 . S
C3755 H3732 0.950 . S
C3755 C3754 1.334 . S
C3755 C3756 1.287 . S
C3756 C3755 1.287 . S
C3756 C3757 1.524 . S
C3756 H3775 0.913 . S
C3757 H3733 0.950 . S
C3757 C3756 1.524 . S
C3757 C3758 1.415 . S
C3758 H3734 0.950 . S
C3758 C3753 1.363 . S
C3758 C3757 1.415 . S
C3759 H3735 0.951 . S
C3759 C3760 1.366 . S
C3759 C3761 1.388 . S
C3760 C3759 1.366 . S
C3760 C3764 1.385 . S
C3761 H3736 0.951 . S
C3761 C3759 1.388 . S
C3761 C3762 1.366 . S
C3762 C3761 1.366 . S
C3762 C3763 1.414 . S
C3762 C3765 1.499 . S
C3763 H3737 0.950 . S
C3763 C3762 1.414 . S
C3763 C3764 1.374 . S
C3764 H3738 0.950 . S
C3764 C3760 1.385 . S
C3764 C3763 1.374 . S
C3765 C3762 1.499 . S
C3765 C3766 1.373 . S
C3765 C3767 1.389 . S
C3766 H3739 0.950 . S
C3766 C3752 1.377 . S
C3766 C3765 1.373 . S
C3767 C3751 1.377 . S
C3767 C3765 1.389 . S
C3767 C3768 1.524 . S
C3768 C3767 1.524 . S
C3768 C3769 1.397 . S
C3768 C3773 1.363 . S
C3769 H3740 0.950 . S
C3769 C3768 1.397 . S
C3769 C3770 1.334 . S
C3770 H3741 0.950 . S
C3770 C3769 1.334 . S
C3770 C3771 1.287 . S
C3771 C3770 1.287 . S
C3771 C3772 1.524 . S
C3771 H3774 0.999 . S
C3772 H3742 0.950 . S
C3772 C3771 1.524 . S
C3772 C3773 1.415 . S
C3773 H3743 0.950 . S
C3773 C3768 1.363 . S
C3773 C3772 1.415 . S
H3774 C3771 0.999 . S
H3775 C3756 0.913 . S
H3776 C3794 0.951 . S
H3777 C3796 0.951 . S
H3778 C3798 0.950 . S
H3779 C3799 0.950 . S
H3780 C3801 0.950 . S
H3781 C3804 0.950 . S
H3782 C3805 0.950 . S
H3783 C3807 0.950 . S
H3784 C3808 0.950 . S
H3785 C3809 0.951 . S
H3786 C3811 0.951 . S
H3787 C3813 0.950 . S
H3788 C3814 0.950 . S
H3789 C3816 0.950 . S
H3790 C3819 0.950 . S
H3791 C3820 0.950 . S
H3792 C3822 0.950 . S
H3793 C3823 0.950 . S
C3794 H3776 0.951 . S
C3794 C3795 1.366 . S
C3794 C3796 1.388 . S
C3795 C3794 1.366 . S
C3795 C3799 1.385 . S
C3796 H3777 0.951 . S
C3796 C3794 1.388 . S
C3796 C3797 1.366 . S
C3797 C3796 1.366 . S
C3797 C3798 1.414 . S
C3797 C3800 1.499 . S
C3798 H3778 0.950 . S
C3798 C3797 1.414 . S
C3798 C3799 1.374 . S
C3799 H3779 0.950 . S
C3799 C3795 1.385 . S
C3799 C3798 1.374 . S
C3800 C3797 1.499 . S
C3800 C3801 1.373 . S
C3800 C3802 1.389 . S
C3801 H3780 0.950 . S
C3801 C3800 1.373 . S
C3801 C3817 1.377 . S
C3802 C3800 1.389 . S
C3802 C3803 1.524 . S
C3802 C3816 1.377 . S
C3803 C3802 1.524 . S
C3803 C3804 1.397 . S
C3803 C3808 1.363 . S
C3804 H3781 0.950 . S
C3804 C3803 1.397 . S
C3804 C3805 1.334 . S
C3805 H3782 0.950 . S
C3805 C3804 1.334 . S
C3805 C3806 1.287 . S
C3806 C3805 1.287 . S
C3806 C3807 1.524 . S
C3806 H3825 0.913 . S
C3807 H3783 0.950 . S
C3807 C3806 1.524 . S
C3807 C3808 1.415 . S
C3808 H3784 0.950 . S
C3808 C3803 1.363 . S
C3808 C3807 1.415 . S
C3809 H3785 0.951 . S
C3809 C3810 1.366 . S
C3809 C3811 1.388 . S
C3810 C3809 1.366 . S
C3810 C3814 1.385 . S
C3811 H3786 0.951 . S
C3811 C3809 1.388 . S
C3811 C3812 1.366 . S
C3812 C3811 1.366 . S
C3812 C3813 1.414 . S
C3812 C3815 1.499 . S
C3813 H3787 0.950 . S
C3813 C3812 1.414 . S
C3813 C3814 1.374 . S
C3814 H3788 0.950 . S
C3814 C3810 1.385 . S
C3814 C3813 1.374 . S
C3815 C3812 1.499 . S
C3815 C3816 1.373 . S
C3815 C3817 1.389 . S
C3816 H3789 0.950 . S
C3816 C3802 1.377 . S
C3816 C3815 1.373 . S
C3817 C3801 1.377 . S
C3817 C3815 1.389 . S
C3817 C3818 1.524 . S
C3818 C3817 1.524 . S
C3818 C3819 1.397 . S
C3818 C3823 1.363 . S
C3819 H3790 0.950 . S
C3819 C3818 1.397 . S
C3819 C3820 1.334 . S
C3820 H3791 0.950 . S
C3820 C3819 1.334 . S
C3820 C3821 1.287 . S
C3821 C3820 1.287 . S
C3821 C3822 1.524 . S
C3821 H3824 0.999 . S
C3822 H3792 0.950 . S
C3822 C3821 1.524 . S
C3822 C3823 1.415 . S
C3823 H3793 0.950 . S
C3823 C3818 1.363 . S
C3823 C3822 1.415 . S
H3824 C3821 0.999 . S
H3825 C3806 0.913 . S
H3826 C3844 0.951 . S
H3827 C3846 0.951 . S
H3828 C3848 0.950 . S
H3829 C3849 0.950 . S
H3830 C3851 0.950 . S
H3831 C3854 0.950 . S
H3832 C3855 0.950 . S
H3833 C3857 0.950 . S
H3834 C3858 0.950 . S
H3835 C3859 0.951 . S
H3836 C3861 0.951 . S
H3837 C3863 0.950 . S
H3838 C3864 0.950 . S
H3839 C3866 0.950 . S
H3840 C3869 0.950 . S
H3841 C3870 0.950 . S
H3842 C3872 0.950 . S
H3843 C3873 0.950 . S
C3844 H3826 0.951 . S
C3844 C3845 1.366 . S
C3844 C3846 1.388 . S
C3845 C3844 1.366 . S
C3845 C3849 1.385 . S
C3846 H3827 0.951 . S
C3846 C3844 1.388 . S
C3846 C3847 1.366 . S
C3847 C3846 1.366 . S
C3847 C3848 1.414 . S
C3847 C3850 1.499 . S
C3848 H3828 0.950 . S
C3848 C3847 1.414 . S
C3848 C3849 1.374 . S
C3849 H3829 0.950 . S
C3849 C3845 1.385 . S
C3849 C3848 1.374 . S
C3850 C3847 1.499 . S
C3850 C3851 1.373 . S
C3850 C3852 1.389 . S
C3851 H3830 0.950 . S
C3851 C3850 1.373 . S
C3851 C3867 1.377 . S
C3852 C3850 1.389 . S
C3852 C3853 1.524 . S
C3852 C3866 1.377 . S
C3853 C3852 1.524 . S
C3853 C3854 1.397 . S
C3853 C3858 1.363 . S
C3854 H3831 0.950 . S
C3854 C3853 1.397 . S
C3854 C3855 1.334 . S
C3855 H3832 0.950 . S
C3855 C3854 1.334 . S
C3855 C3856 1.287 . S
C3856 C3855 1.287 . S
C3856 C3857 1.524 . S
C3856 H3875 0.913 . S
C3857 H3833 0.950 . S
C3857 C3856 1.524 . S
C3857 C3858 1.415 . S
C3858 H3834 0.950 . S
C3858 C3853 1.363 . S
C3858 C3857 1.415 . S
C3859 H3835 0.951 . S
C3859 C3860 1.366 . S
C3859 C3861 1.388 . S
C3860 C3859 1.366 . S
C3860 C3864 1.385 . S
C3861 H3836 0.951 . S
C3861 C3859 1.388 . S
C3861 C3862 1.366 . S
C3862 C3861 1.366 . S
C3862 C3863 1.414 . S
C3862 C3865 1.499 . S
C3863 H3837 0.950 . S
C3863 C3862 1.414 . S
C3863 C3864 1.374 . S
C3864 H3838 0.950 . S
C3864 C3860 1.385 . S
C3864 C3863 1.374 . S
C3865 C3862 1.499 . S
C3865 C3866 1.373 . S
C3865 C3867 1.389 . S
C3866 H3839 0.950 . S
C3866 C3852 1.377 . S
C3866 C3865 1.373 . S
C3867 C3851 1.377 . S
C3867 C3865 1.389 . S
C3867 C3868 1.524 . S
C3868 C3867 1.524 . S
C3868 C3869 1.397 . S
C3868 C3873 1.363 . S
C3869 H3840 0.950 . S
C3869 C3868 1.397 . S
C3869 C3870 1.334 . S
C3870 H3841 0.950 . S
C3870 C3869 1.334 . S
C3870 C3871 1.287 . S
C3871 C3870 1.287 . S
C3871 C3872 1.524 . S
C3871 H3874 0.999 . S
C3872 H3842 0.950 . S
C3872 C3871 1.524 . S
C3872 C3873 1.415 . S
C3873 H3843 0.950 . S
C3873 C3868 1.363 . S
C3873 C3872 1.415 . S
H3874 C3871 0.999 . S
H3875 C3856 0.913 . S
H3876 C3894 0.951 . S
H3877 C3896 0.951 . S
H3878 C3898 0.950 . S
H3879 C3899 0.950 . S
H3880 C3901 0.950 . S
H3881 C3904 0.950 . S
H3882 C3905 0.950 . S
H3883 C3907 0.950 . S
H3884 C3908 0.950 . S
H3885 C3909 0.951 . S
H3886 C3911 0.951 . S
H3887 C3913 0.950 . S
H3888 C3914 0.950 . S
H3889 C3916 0.950 . S
H3890 C3919 0.950 . S
H3891 C3920 0.950 . S
H3892 C3922 0.950 . S
H3893 C3923 0.950 . S
C3894 H3876 0.951 . S
C3894 C3895 1.366 . S
C3894 C3896 1.388 . S
C3895 C3894 1.366 . S
C3895 C3899 1.385 . S
C3896 H3877 0.951 . S
C3896 C3894 1.388 . S
C3896 C3897 1.366 . S
C3897 C3896 1.366 . S
C3897 C3898 1.414 . S
C3897 C3900 1.499 . S
C3898 H3878 0.950 . S
C3898 C3897 1.414 . S
C3898 C3899 1.374 . S
C3899 H3879 0.950 . S
C3899 C3895 1.385 . S
C3899 C3898 1.374 . S
C3900 C3897 1.499 . S
C3900 C3901 1.373 . S
C3900 C3902 1.389 . S
C3901 H3880 0.950 . S
C3901 C3900 1.373 . S
C3901 C3917 1.377 . S
C3902 C3900 1.389 . S
C3902 C3903 1.524 . S
C3902 C3916 1.377 . S
C3903 C3902 1.524 . S
C3903 C3904 1.397 . S
C3903 C3908 1.363 . S
C3904 H3881 0.950 . S
C3904 C3903 1.397 . S
C3904 C3905 1.334 . S
C3905 H3882 0.950 . S
C3905 C3904 1.334 . S
C3905 C3906 1.287 . S
C3906 C3905 1.287 . S
C3906 C3907 1.524 . S
C3906 H3925 0.913 . S
C3907 H3883 0.950 . S
C3907 C3906 1.524 . S
C3907 C3908 1.415 . S
C3908 H3884 0.950 . S
C3908 C3903 1.363 . S
C3908 C3907 1.415 . S
C3909 H3885 0.951 . S
C3909 C3910 1.366 . S
C3909 C3911 1.388 . S
C3910 C3909 1.366 . S
C3910 C3914 1.385 . S
C3911 H3886 0.951 . S
C3911 C3909 1.388 . S
C3911 C3912 1.366 . S
C3912 C3911 1.366 . S
C3912 C3913 1.414 . S
C3912 C3915 1.499 . S
C3913 H3887 0.950 . S
C3913 C3912 1.414 . S
C3913 C3914 1.374 . S
C3914 H3888 0.950 . S
C3914 C3910 1.385 . S
C3914 C3913 1.374 . S
C3915 C3912 1.499 . S
C3915 C3916 1.373 . S
C3915 C3917 1.389 . S
C3916 H3889 0.950 . S
C3916 C3902 1.377 . S
C3916 C3915 1.373 . S
C3917 C3901 1.377 . S
C3917 C3915 1.389 . S
C3917 C3918 1.524 . S
C3918 C3917 1.524 . S
C3918 C3919 1.397 . S
C3918 C3923 1.363 . S
C3919 H3890 0.950 . S
C3919 C3918 1.397 . S
C3919 C3920 1.334 . S
C3920 H3891 0.950 . S
C3920 C3919 1.334 . S
C3920 C3921 1.287 . S
C3921 C3920 1.287 . S
C3921 C3922 1.524 . S
C3921 H3924 0.999 . S
C3922 H3892 0.950 . S
C3922 C3921 1.524 . S
C3922 C3923 1.415 . S
C3923 H3893 0.950 . S
C3923 C3918 1.363 . S
C3923 C3922 1.415 . S
H3924 C3921 0.999 . S
H3925 C3906 0.913 . S
H3926 C3944 0.951 . S
H3927 C3946 0.951 . S
H3928 C3948 0.950 . S
H3929 C3949 0.950 . S
H3930 C3951 0.950 . S
H3931 C3954 0.950 . S
H3932 C3955 0.950 . S
H3933 C3957 0.950 . S
H3934 C3958 0.950 . S
H3935 C3959 0.951 . S
H3936 C3961 0.951 . S
H3937 C3963 0.950 . S
H3938 C3964 0.950 . S
H3939 C3966 0.950 . S
H3940 C3969 0.950 . S
H3941 C3970 0.950 . S
H3942 C3972 0.950 . S
H3943 C3973 0.950 . S
C3944 H3926 0.951 . S
C3944 C3945 1.366 . S
C3944 C3946 1.388 . S
C3945 C3944 1.366 . S
C3945 C3949 1.385 . S
C3946 H3927 0.951 . S
C3946 C3944 1.388 . S
C3946 C3947 1.366 . S
C3947 C3946 1.366 . S
C3947 C3948 1.414 . S
C3947 C3950 1.499 . S
C3948 H3928 0.950 . S
C3948 C3947 1.414 . S
C3948 C3949 1.374 . S
C3949 H3929 0.950 . S
C3949 C3945 1.385 . S
C3949 C3948 1.374 . S
C3950 C3947 1.499 . S
C3950 C3951 1.373 . S
C3950 C3952 1.389 . S
C3951 H3930 0.950 . S
C3951 C3950 1.373 . S
C3951 C3967 1.377 . S
C3952 C3950 1.389 . S
C3952 C3953 1.524 . S
C3952 C3966 1.377 . S
C3953 C3952 1.524 . S
C3953 C3954 1.397 . S
C3953 C3958 1.363 . S
C3954 H3931 0.950 . S
C3954 C3953 1.397 . S
C3954 C3955 1.334 . S
C3955 H3932 0.950 . S
C3955 C3954 1.334 . S
C3955 C3956 1.287 . S
C3956 C3955 1.287 . S
C3956 C3957 1.524 . S
C3956 H3975 0.913 . S
C3957 H3933 0.950 . S
C3957 C3956 1.524 . S
C3957 C3958 1.415 . S
C3958 H3934 0.950 . S
C3958 C3953 1.363 . S
C3958 C3957 1.415 . S
C3959 H3935 0.951 . S
C3959 C3960 1.366 . S
C3959 C3961 1.388 . S
C3960 C3959 1.366 . S
C3960 C3964 1.385 . S
C3961 H3936 0.951 . S
C3961 C3959 1.388 . S
C3961 C3962 1.366 . S
C3962 C3961 1.366 . S
C3962 C3963 1.414 . S
C3962 C3965 1.499 . S
C3963 H3937 0.950 . S
C3963 C3962 1.414 . S
C3963 C3964 1.374 . S
C3964 H3938 0.950 . S
C3964 C3960 1.385 . S
C3964 C3963 1.374 . S
C3965 C3962 1.499 . S
C3965 C3966 1.373 . S
C3965 C3967 1.389 . S
C3966 H3939 0.950 . S
C3966 C3952 1.377 . S
C3966 C3965 1.373 . S
C3967 C3951 1.377 . S
C3967 C3965 1.389 . S
C3967 C3968 1.524 . S
C3968 C3967 1.524 . S
C3968 C3969 1.397 . S
C3968 C3973 1.363 . S
C3969 H3940 0.950 . S
C3969 C3968 1.397 . S
C3969 C3970 1.334 . S
C3970 H3941 0.950 . S
C3970 C3969 1.334 . S
C3970 C3971 1.287 . S
C3971 C3970 1.287 . S
C3971 C3972 1.524 . S
C3971 H3974 0.999 . S
C3972 H3942 0.950 . S
C3972 C3971 1.524 . S
C3972 C3973 1.415 . S
C3973 H3943 0.950 . S
C3973 C3968 1.363 . S
C3973 C3972 1.415 . S
H3974 C3971 0.999 . S
H3975 C3956 0.913 . S
H3976 C3994 0.951 . S
H3977 C3996 0.951 . S
H3978 C3998 0.950 . S
H3979 C3999 0.950 . S
H3980 C4001 0.950 . S
H3981 C4004 0.950 . S
H3982 C4005 0.950 . S
H3983 C4007 0.950 . S
H3984 C4008 0.950 . S
H3985 C4009 0.951 . S
H3986 C4011 0.951 . S
H3987 C4013 0.950 . S
H3988 C4014 0.950 . S
H3989 C4016 0.950 . S
H3990 C4019 0.950 . S
H3991 C4020 0.950 . S
H3992 C4022 0.950 . S
H3993 C4023 0.950 . S
C3994 H3976 0.951 . S
C3994 C3995 1.366 . S
C3994 C3996 1.388 . S
C3995 C3994 1.366 . S
C3995 C3999 1.385 . S
C3996 H3977 0.951 . S
C3996 C3994 1.388 . S
C3996 C3997 1.366 . S
C3997 C3996 1.366 . S
C3997 C3998 1.414 . S
C3997 C4000 1.499 . S
C3998 H3978 0.950 . S
C3998 C3997 1.414 . S
C3998 C3999 1.374 . S
C3999 H3979 0.950 . S
C3999 C3995 1.385 . S
C3999 C3998 1.374 . S
C4000 C3997 1.499 . S
C4000 C4001 1.373 . S
C4000 C4002 1.389 . S
C4001 H3980 0.950 . S
C4001 C4000 1.373 . S
C4001 C4017 1.377 . S
C4002 C4000 1.389 . S
C4002 C4003 1.524 . S
C4002 C4016 1.377 . S
C4003 C4002 1.524 . S
C4003 C4004 1.397 . S
C4003 C4008 1.363 . S
C4004 H3981 0.950 . S
C4004 C4003 1.397 . S
C4004 C4005 1.334 . S
C4005 H3982 0.950 . S
C4005 C4004 1.334 . S
C4005 C4006 1.287 . S
C4006 C4005 1.287 . S
C4006 C4007 1.524 . S
C4006 H4025 0.913 . S
C4007 H3983 0.950 . S
C4007 C4006 1.524 . S
C4007 C4008 1.415 . S
C4008 H3984 0.950 . S
C4008 C4003 1.363 . S
C4008 C4007 1.415 . S
C4009 H3985 0.951 . S
C4009 C4010 1.366 . S
C4009 C4011 1.388 . S
C4010 C4009 1.366 . S
C4010 C4014 1.385 . S
C4011 H3986 0.951 . S
C4011 C4009 1.388 . S
C4011 C4012 1.366 . S
C4012 C4011 1.366 . S
C4012 C4013 1.414 . S
C4012 C4015 1.499 . S
C4013 H3987 0.950 . S
C4013 C4012 1.414 . S
C4013 C4014 1.374 . S
C4014 H3988 0.950 . S
C4014 C4010 1.385 . S
C4014 C4013 1.374 . S
C4015 C4012 1.499 . S
C4015 C4016 1.373 . S
C4015 C4017 1.389 . S
C4016 H3989 0.950 . S
C4016 C4002 1.377 . S
C4016 C4015 1.373 . S
C4017 C4001 1.377 . S
C4017 C4015 1.389 . S
C4017 C4018 1.524 . S
C4018 C4017 1.524 . S
C4018 C4019 1.397 . S
C4018 C4023 1.363 . S
C4019 H3990 0.950 . S
C4019 C4018 1.397 . S
C4019 C4020 1.334 . S
C4020 H3991 0.950 . S
C4020 C4019 1.334 . S
C4020 C4021 1.287 . S
C4021 C4020 1.287 . S
C4021 C4022 1.524 . S
C4021 H4024 0.999 . S
C4022 H3992 0.950 . S
C4022 C4021 1.524 . S
C4022 C4023 1.415 . S
C4023 H3993 0.950 . S
C4023 C4018 1.363 . S
C4023 C4022 1.415 . S
H4024 C4021 0.999 . S
H4025 C4006 0.913 . S
H4026 C4044 0.949 1_455 S
H4027 C4046 1.001 . S
H4028 C4048 0.950 . S
H4029 C4049 0.950 . S
H4030 C4051 0.950 . S
H4031 C4054 0.950 . S
H4032 C4055 0.950 . S
H4033 C4057 0.950 . S
H4034 C4058 0.950 . S
H4035 C4059 0.951 . S
H4036 C4061 0.951 . S
H4037 C4063 0.950 . S
H4038 C4064 0.950 . S
H4039 C4066 0.950 . S
H4040 C4069 0.950 . S
H4041 C4070 0.950 . S
H4042 C4072 0.950 . S
H4043 C4073 0.950 . S
C4044 H4026 0.949 1_655 S
C4044 C4045 1.393 . S
C4044 C4046 1.325 1_655 S
C4045 C4044 1.393 . S
C4045 C4049 1.385 . S
C4046 H4027 1.001 . S
C4046 C4044 1.325 1_455 S
C4046 C4047 1.364 1_455 S
C4047 C4046 1.364 1_655 S
C4047 C4048 1.414 . S
C4047 C4050 1.499 . S
C4048 H4028 0.950 . S
C4048 C4047 1.414 . S
C4048 C4049 1.374 . S
C4049 H4029 0.950 . S
C4049 C4045 1.385 . S
C4049 C4048 1.374 . S
C4050 C4047 1.499 . S
C4050 C4051 1.373 . S
C4050 C4052 1.389 1_655 S
C4051 H4030 0.950 . S
C4051 C4050 1.373 . S
C4051 C4067 1.377 . S
C4052 C4050 1.389 1_455 S
C4052 C4053 1.524 . S
C4052 C4066 1.377 . S
C4053 C4052 1.524 . S
C4053 C4054 1.397 . S
C4053 C4058 1.363 . S
C4054 H4031 0.950 . S
C4054 C4053 1.397 . S
C4054 C4055 1.334 . S
C4055 H4032 0.950 . S
C4055 C4054 1.334 . S
C4055 C4056 1.287 . S
C4056 C4055 1.287 . S
C4056 C4057 1.524 . S
C4056 H4075 0.913 . S
C4057 H4033 0.950 . S
C4057 C4056 1.524 . S
C4057 C4058 1.415 . S
C4058 H4034 0.950 . S
C4058 C4053 1.363 . S
C4058 C4057 1.415 . S
C4059 H4035 0.951 . S
C4059 C4060 1.369 . S
C4059 C4061 1.388 . S
C4060 C4059 1.369 . S
C4060 C4064 1.384 1_655 S
C4061 H4036 0.951 . S
C4061 C4059 1.388 . S
C4061 C4062 1.366 . S
C4062 C4061 1.366 . S
C4062 C4063 1.414 1_655 S
C4062 C4065 1.499 . S
C4063 H4037 0.950 . S
C4063 C4062 1.414 1_455 S
C4063 C4064 1.374 . S
C4064 H4038 0.950 . S
C4064 C4060 1.384 1_455 S
C4064 C4063 1.374 . S
C4065 C4062 1.499 . S
C4065 C4066 1.373 1_655 S
C4065 C4067 1.389 . S
C4066 H4039 0.950 . S
C4066 C4052 1.377 . S
C4066 C4065 1.373 1_455 S
C4067 C4051 1.377 . S
C4067 C4065 1.389 . S
C4067 C4068 1.524 . S
C4068 C4067 1.524 . S
C4068 C4069 1.397 . S
C4068 C4073 1.363 . S
C4069 H4040 0.950 . S
C4069 C4068 1.397 . S
C4069 C4070 1.334 . S
C4070 H4041 0.950 . S
C4070 C4069 1.334 . S
C4070 C4071 1.287 . S
C4071 C4070 1.287 . S
C4071 C4072 1.524 . S
C4071 H4074 0.999 . S
C4072 H4042 0.950 . S
C4072 C4071 1.524 . S
C4072 C4073 1.415 . S
C4073 H4043 0.950 . S
C4073 C4068 1.363 . S
C4073 C4072 1.415 . S
H4074 C4071 0.999 . S
H4075 C4056 0.913 . S
H4076 C4094 0.951 . S
H4077 C4096 0.951 . S
H4078 C4098 0.950 . S
H4079 C4099 0.950 . S
H4080 C4101 0.950 . S
H4081 C4104 0.950 . S
H4082 C4105 0.950 . S
H4083 C4107 0.950 . S
H4084 C4108 0.950 . S
H4085 C4109 0.951 . S
H4086 C4111 0.951 . S
H4087 C4113 0.950 . S
H4088 C4114 0.950 . S
H4089 C4116 0.950 . S
H4090 C4119 0.950 . S
H4091 C4120 0.950 . S
H4092 C4122 0.950 . S
H4093 C4123 0.950 . S
C4094 H4076 0.951 . S
C4094 C4095 1.366 . S
C4094 C4096 1.388 . S
C4095 C4094 1.366 . S
C4095 C4099 1.385 . S
C4096 H4077 0.951 . S
C4096 C4094 1.388 . S
C4096 C4097 1.366 . S
C4097 C4096 1.366 . S
C4097 C4098 1.414 . S
C4097 C4100 1.499 . S
C4098 H4078 0.950 . S
C4098 C4097 1.414 . S
C4098 C4099 1.374 . S
C4099 H4079 0.950 . S
C4099 C4095 1.385 . S
C4099 C4098 1.374 . S
C4100 C4097 1.499 . S
C4100 C4101 1.373 . S
C4100 C4102 1.389 . S
C4101 H4080 0.950 . S
C4101 C4100 1.373 . S
C4101 C4117 1.377 . S
C4102 C4100 1.389 . S
C4102 C4103 1.524 . S
C4102 C4116 1.377 . S
C4103 C4102 1.524 . S
C4103 C4104 1.397 . S
C4103 C4108 1.363 . S
C4104 H4081 0.950 . S
C4104 C4103 1.397 . S
C4104 C4105 1.334 . S
C4105 H4082 0.950 . S
C4105 C4104 1.334 . S
C4105 C4106 1.287 . S
C4106 C4105 1.287 . S
C4106 C4107 1.524 . S
C4106 H4125 0.913 . S
C4107 H4083 0.950 . S
C4107 C4106 1.524 . S
C4107 C4108 1.415 . S
C4108 H4084 0.950 . S
C4108 C4103 1.363 . S
C4108 C4107 1.415 . S
C4109 H4085 0.951 . S
C4109 C4110 1.366 . S
C4109 C4111 1.388 . S
C4110 C4109 1.366 . S
C4110 C4114 1.385 . S
C4111 H4086 0.951 . S
C4111 C4109 1.388 . S
C4111 C4112 1.366 . S
C4112 C4111 1.366 . S
C4112 C4113 1.414 . S
C4112 C4115 1.499 . S
C4113 H4087 0.950 . S
C4113 C4112 1.414 . S
C4113 C4114 1.374 . S
C4114 H4088 0.950 . S
C4114 C4110 1.385 . S
C4114 C4113 1.374 . S
C4115 C4112 1.499 . S
C4115 C4116 1.373 . S
C4115 C4117 1.389 . S
C4116 H4089 0.950 . S
C4116 C4102 1.377 . S
C4116 C4115 1.373 . S
C4117 C4101 1.377 . S
C4117 C4115 1.389 . S
C4117 C4118 1.524 . S
C4118 C4117 1.524 . S
C4118 C4119 1.397 . S
C4118 C4123 1.363 . S
C4119 H4090 0.950 . S
C4119 C4118 1.397 . S
C4119 C4120 1.334 . S
C4120 H4091 0.950 . S
C4120 C4119 1.334 . S
C4120 C4121 1.287 . S
C4121 C4120 1.287 . S
C4121 C4122 1.524 . S
C4121 H4124 0.999 . S
C4122 H4092 0.950 . S
C4122 C4121 1.524 . S
C4122 C4123 1.415 . S
C4123 H4093 0.950 . S
C4123 C4118 1.363 . S
C4123 C4122 1.415 . S
H4124 C4121 0.999 . S
H4125 C4106 0.913 . S
H4126 C4144 0.951 . S
H4127 C4146 0.951 . S
H4128 C4148 0.950 . S
H4129 C4149 0.950 . S
H4130 C4151 1.014 . S
H4131 C4154 0.950 . S
H4132 C4155 0.950 . S
H4133 C4157 0.950 . S
H4134 C4158 0.950 . S
H4135 C4159 0.951 . S
H4136 C4161 0.951 . S
H4137 C4163 0.950 . S
H4138 C4164 0.950 . S
H4139 C4166 0.950 . S
H4140 C4169 0.950 . S
H4141 C4170 0.950 . S
H4142 C4172 0.950 . S
H4143 C4173 0.950 . S
C4144 H4126 0.951 . S
C4144 C4145 1.366 . S
C4144 C4146 1.388 . S
C4145 C4144 1.366 . S
C4145 C4149 1.385 . S
C4146 H4127 0.951 . S
C4146 C4144 1.388 . S
C4146 C4147 1.366 . S
C4147 C4146 1.366 . S
C4147 C4148 1.414 . S
C4147 C4150 1.499 . S
C4148 H4128 0.950 . S
C4148 C4147 1.414 . S
C4148 C4149 1.374 . S
C4149 H4129 0.950 . S
C4149 C4145 1.385 . S
C4149 C4148 1.374 . S
C4150 C4147 1.499 . S
C4150 C4151 1.341 1_545 S
C4150 C4152 1.389 . S
C4151 H4130 1.014 . S
C4151 C4150 1.341 1_565 S
C4151 C4167 1.352 . S
C4152 C4150 1.389 . S
C4152 C4153 1.524 . S
C4152 C4166 1.377 . S
C4153 C4152 1.524 . S
C4153 C4154 1.397 . S
C4153 C4158 1.363 . S
C4154 H4131 0.950 . S
C4154 C4153 1.397 . S
C4154 C4155 1.334 . S
C4155 H4132 0.950 . S
C4155 C4154 1.334 . S
C4155 C4156 1.287 . S
C4156 C4155 1.287 . S
C4156 C4157 1.524 . S
C4156 H4175 0.913 . S
C4157 H4133 0.950 . S
C4157 C4156 1.524 . S
C4157 C4158 1.415 . S
C4158 H4134 0.950 . S
C4158 C4153 1.363 . S
C4158 C4157 1.415 . S
C4159 H4135 0.951 . S
C4159 C4160 1.366 . S
C4159 C4161 1.388 . S
C4160 C4159 1.366 . S
C4160 C4164 1.385 1_545 S
C4161 H4136 0.951 . S
C4161 C4159 1.388 . S
C4161 C4162 1.366 . S
C4162 C4161 1.366 . S
C4162 C4163 1.414 1_545 S
C4162 C4165 1.499 . S
C4163 H4137 0.950 . S
C4163 C4162 1.414 1_565 S
C4163 C4164 1.374 . S
C4164 H4138 0.950 . S
C4164 C4160 1.385 1_565 S
C4164 C4163 1.374 . S
C4165 C4162 1.499 . S
C4165 C4166 1.373 . S
C4165 C4167 1.389 1_545 S
C4166 H4139 0.950 . S
C4166 C4152 1.377 . S
C4166 C4165 1.373 . S
C4167 C4151 1.352 . S
C4167 C4165 1.389 1_565 S
C4167 C4168 1.524 . S
C4168 C4167 1.524 . S
C4168 C4169 1.397 . S
C4168 C4173 1.363 . S
C4169 H4140 0.950 . S
C4169 C4168 1.397 . S
C4169 C4170 1.334 . S
C4170 H4141 0.950 . S
C4170 C4169 1.334 . S
C4170 C4171 1.287 . S
C4171 C4170 1.287 . S
C4171 C4172 1.524 . S
C4171 H4174 0.999 . S
C4172 H4142 0.950 . S
C4172 C4171 1.524 . S
C4172 C4173 1.415 . S
C4173 H4143 0.950 . S
C4173 C4168 1.363 . S
C4173 C4172 1.415 . S
H4174 C4171 0.999 . S
H4175 C4156 0.913 . S
C595 C8 1.571 . S
C610 C421 1.525 . S
C645 C22 1.555 . S
C660 C446 1.541 . S
C710 C457 1.529 . S
C695 C37 1.543 . S
C745 C36 1.568 . S
C760 C482 1.532 . S
C795 C9 1.543 . S
C810 C500 1.540 . S
C845 C23 1.555 . S
C860 C511 1.535 . S
C895 C50 1.556 . S
C910 C493 1.511 . S
C960 C518 1.530 . S
C945 C64 1.538 . S
C1010 C475 1.534 . S
C995 C79 1.520 . S
C1045 C78 1.556 . S
C1060 C464 1.506 . S
C1110 C428 1.553 . S
C1095 C51 1.519 . S
C1145 C65 1.538 . S
C1160 C439 1.528 . S
C1195 C92 1.560 . S
C1210 C529 1.540 . S
C1245 C106 1.562 . S
C1260 C554 1.548 . S
C1310 C565 1.538 . S
C1295 C121 1.558 . S
C1345 C120 1.553 . S
C1360 C266 1.540 . S
C1395 C93 1.558 . S
C1410 C284 1.544 . S
C1445 C107 1.557 . S
C1460 C295 1.537 . S
C1495 C134 1.535 . S
C1510 C277 1.524 . S
C1545 C148 1.539 . S
C1560 C302 1.531 . S
C1610 C259 1.529 . S
C1595 C163 1.539 . S
C1660 C572 1.536 . S
C1645 C162 1.545 . S
C1710 C536 1.532 . S
C1695 C135 1.541 . S
C1760 C547 1.536 . S
C1745 C149 1.546 . S
C1795 C176 1.552 . S
C1810 C313 1.532 . S
C1845 C190 1.556 . S
C1860 C338 1.543 . S
C1895 C205 1.556 . S
C1910 C349 1.536 . S
C1945 C204 1.562 . S
C1960 C374 1.548 . S
C2010 C392 1.545 . S
C1995 C177 1.559 . S
C2060 C403 1.542 . S
C2045 C191 1.562 . S
C2110 C385 1.534 . S
C2095 C218 1.543 . S
C2160 C410 1.536 . S
C2145 C232 1.546 . S
C2195 C247 1.541 . S
C2210 C367 1.531 . S
C2260 C356 1.528 . S
C2245 C246 1.536 . S
C2295 C219 1.540 . S
C2310 C320 1.532 . S
C2360 C331 1.529 . S
C2345 C233 1.540 . S
C2410 C268 1.458 . S
C2395 C6 1.485 . S
C2445 C20 1.476 . S
C2460 C286 1.450 . S
C2510 C296 1.457 . S
C2495 C35 1.481 . S
C2560 C314 1.456 . S
C2545 C34 1.480 . S
C2610 C340 1.454 . S
C2595 C7 1.482 . S
C2660 C350 1.454 . S
C2645 C21 1.477 . S
C2695 C48 1.498 . S
C2710 C358 1.468 . S
C2745 C62 1.489 . S
C2760 C322 1.451 . S
C2795 C77 1.493 . S
C2810 C332 1.459 . S
C2845 C76 1.494 . S
C2860 C278 1.472 . S
C2910 C304 1.457 . S
C2895 C49 1.493 . S
C2945 C63 1.488 . S
C2960 C260 1.459 . S
C3010 C376 1.458 . S
C2995 C90 1.485 . S
C3045 C104 1.487 . S
C3060 C394 1.461 . S
C3095 C119 1.487 . S
C3110 C404 1.464 . S
C3160 C422 1.455 . S
C3145 C118 1.469 . S
C3195 C91 1.483 . S
C3210 C448 1.457 . S
C3245 C105 1.478 . S
C3260 C458 1.461 . S
C3295 C132 1.489 . S
C3310 C466 1.460 . S
C3345 C146 1.489 . S
C3360 C430 1.452 . S
C3410 C440 1.465 . S
C3395 C161 1.494 . S
C3445 C160 1.493 . S
C3460 C386 1.463 . S
C3495 C133 1.500 . S
C3510 C412 1.464 . S
C3560 C368 1.471 . S
C3545 C147 1.500 . S
C3610 C484 1.455 . S
C3595 C174 1.474 . S
C3645 C188 1.478 . S
C3660 C502 1.455 . S
C3695 C203 1.482 . S
C3710 C512 1.459 . S
C3760 C530 1.457 . S
C3745 C202 1.480 . S
C3810 C556 1.462 . S
C3795 C175 1.489 . S
C3845 C189 1.487 . S
C3860 C566 1.464 . S
C3895 C216 1.498 . S
C3910 C574 1.461 . S
C3945 C230 1.500 . S
C3960 C538 1.463 . S
C4010 C548 1.470 . S
C3995 C245 1.499 . S
C4060 C494 1.432 1_655 S
C4045 C244 1.478 . S
C4110 C520 1.458 . S
C4095 C217 1.496 . S
C4145 C231 1.489 . S
C4160 C476 1.486 1_545 S
