# Generated by pormake.
# Topology nom, (4,4)-cn, num edge types: 1
# Building blocks:
#     Node 0, Type 0, BuildingBlock: MIFKUJ_clean_linker_1, # of connection points: 4
#     Node 1, Type 0, BuildingBlock: MIFKUJ_clean_linker_1, # of connection points: 4
#     Node 2, Type 0, BuildingBlock: MIFKUJ_clean_linker_1, # of connection points: 4
#     Node 3, Type 0, BuildingBlock: MIFKUJ_clean_linker_1, # of connection points: 4
#     Node 4, Type 0, BuildingBlock: MIFKUJ_clean_linker_1, # of connection points: 4
#     Node 5, Type 0, BuildingBlock: MIFKUJ_clean_linker_1, # of connection points: 4
#     Node 6, Type 1, BuildingBlock: TATPOV_clean_sbu_0, # of connection points: 4
#     Node 7, Type 1, BuildingBlock: TATPOV_clean_sbu_0, # of connection points: 4
#     Node 8, Type 1, BuildingBlock: TATPOV_clean_sbu_0, # of connection points: 4
#     Node 9, Type 1, BuildingBlock: TATPOV_clean_sbu_0, # of connection points: 4
#     Node 10, Type 1, BuildingBlock: TATPOV_clean_sbu_0, # of connection points: 4
#     Node 11, Type 1, BuildingBlock: TATPOV_clean_sbu_0, # of connection points: 4
#     Edge 12, Type (0, 1), None
#     Edge 13, Type (0, 1), None
#     Edge 14, Type (0, 1), None
#     Edge 15, Type (0, 1), None
#     Edge 16, Type (0, 1), None
#     Edge 17, Type (0, 1), None
#     Edge 18, Type (0, 1), None
#     Edge 19, Type (0, 1), None
#     Edge 20, Type (0, 1), None
#     Edge 21, Type (0, 1), None
#     Edge 22, Type (0, 1), None
#     Edge 23, Type (0, 1), None
#     Edge 24, Type (0, 1), None
#     Edge 25, Type (0, 1), None
#     Edge 26, Type (0, 1), None
#     Edge 27, Type (0, 1), None
#     Edge 28, Type (0, 1), None
#     Edge 29, Type (0, 1), None
#     Edge 30, Type (0, 1), None
#     Edge 31, Type (0, 1), None
#     Edge 32, Type (0, 1), None
#     Edge 33, Type (0, 1), None
#     Edge 34, Type (0, 1), None
#     Edge 35, Type (0, 1), None
# Relax obj value: 0.020
# Max RMSD: 0.116
# Mean RMSD: 0.106
data_MOF--net-nom--node1-TATPOV_clean_sbu_0--node2-MIFKUJ_clean_linker_1--edge1-none
_symmetry_space_group_name_H-M    P1
_symmetry_Int_Tables_number       1
_symmetry_cell_setting            triclinic
loop_
_symmetry_equiv_pos_as_xyz
'x, y, z'
_cell_length_a     29.056786
_cell_length_b     29.191278
_cell_length_c     29.971055
_cell_angle_alpha  90.479097
_cell_angle_beta   90.369504
_cell_angle_gamma 120.14114
loop_
_atom_site_label
_atom_site_type_symbol
_atom_site_fract_x
_atom_site_fract_y
_atom_site_fract_z
_atom_type_partial_charge
H0 H 0.9003 0.35109 0.24094 0.0
H1 H 0.84219 0.3476 0.17935 0.0
H2 H 0.86566 0.49981 0.22178 0.0
H3 H 0.9225 0.50248 0.28318 0.0
H4 H 0.01288 0.46044 0.24278 0.0
H5 H 0.84769 0.35629 0.34017 0.0
H6 H 0.77131 0.3621 0.36803 0.0
H7 H 0.87892 0.51785 0.42271 0.0
H8 H 0.95414 0.51207 0.39506 0.0
H9 H 0.09235 0.58511 0.36248 0.0
H10 H 0.14863 0.64087 0.42361 0.0
H11 H 0.15936 0.50891 0.47568 0.0
H12 H 0.10229 0.45273 0.41378 0.0
H13 H -0.0043 0.45211 0.40708 0.0
H14 H 0.05801 0.56196 0.25489 0.0
H15 H 0.13527 0.64297 0.23058 0.0
H16 H 0.23838 0.59079 0.28658 0.0
H17 H 0.16 0.50868 0.311 0.0
C18 C 0.91488 0.42666 0.26683 0.0
C19 C 0.89139 0.38276 0.23763 0.0
C20 C 0.85851 0.38096 0.20245 0.0
C21 C 0.85004 0.42375 0.19551 0.0
C22 C 0.87191 0.4665 0.22604 0.0
C23 C 0.9039 0.46786 0.26143 0.0
C24 C 0.95841 0.43493 0.29749 0.0
C25 C 0.00918 0.45683 0.27878 0.0
C26 C 0.95366 0.43528 0.34441 0.0
C27 C 0.90671 0.43363 0.36555 0.0
C28 C 0.85467 0.39117 0.35887 0.0
C29 C 0.81115 0.39447 0.375 0.0
C30 C 0.81917 0.44056 0.39747 0.0
C31 C 0.87136 0.48189 0.4055 0.0
C32 C 0.9145 0.47842 0.38986 0.0
C33 C 0.09391 0.51509 0.38327 0.0
C34 C 0.10831 0.56859 0.38609 0.0
C35 C 0.14001 0.60023 0.42135 0.0
C36 C 0.15783 0.57898 0.45463 0.0
C37 C 0.14627 0.52625 0.45037 0.0
C38 C 0.11387 0.49425 0.41508 0.0
C39 C 0.05026 0.47982 0.35243 0.0
C40 C -0.00061 0.45197 0.37105 0.0
C41 C 0.05512 0.48474 0.30551 0.0
C42 C 0.10304 0.52897 0.28478 0.0
C43 C 0.09711 0.567 0.26094 0.0
C44 C 0.14145 0.61372 0.24735 0.0
C45 C 0.19296 0.62358 0.257 0.0
C46 C 0.19913 0.58428 0.27861 0.0
C47 C 0.15444 0.53738 0.29264 0.0
H48 H 0.38639 0.94555 0.53922 0.0
H49 H 0.31424 0.86134 0.56477 0.0
H50 H 0.40056 0.78384 0.52263 0.0
H51 H 0.47351 0.86941 0.49682 0.0
H52 H 0.4909 0.99882 0.56654 0.0
H53 H 0.38726 0.94068 0.42603 0.0
H54 H 0.33882 0.87568 0.36685 0.0
H55 H 0.47446 0.85461 0.34748 0.0
H56 H 0.52294 0.9205 0.40694 0.0
H57 H 0.62332 0.129 0.4212 0.0
H58 H 0.65947 0.21979 0.39496 0.0
H59 H 0.5309 0.22824 0.45867 0.0
H60 H 0.49383 0.13689 0.48302 0.0
H61 H 0.52367 0.03828 0.40552 0.0
H62 H 0.62041 0.13597 0.55636 0.0
H63 H 0.62979 0.19241 0.62138 0.0
H64 H 0.45921 0.12815 0.61966 0.0
H65 H 0.45063 0.07238 0.55619 0.0
C66 C 0.43517 0.91362 0.51606 0.0
C67 C 0.39008 0.91054 0.53578 0.0
C68 C 0.34883 0.86233 0.55039 0.0
C69 C 0.35175 0.81595 0.54583 0.0
C70 C 0.39746 0.81907 0.5269 0.0
C71 C 0.43887 0.86767 0.51182 0.0
C72 C 0.47747 0.96575 0.50034 0.0
C73 C 0.49961 0.00741 0.5314 0.0
C74 C 0.48775 0.97686 0.45459 0.0
C75 C 0.45858 0.9354 0.4204 0.0
C76 C 0.40636 0.92178 0.40914 0.0
C77 C 0.37879 0.88461 0.37538 0.0
C78 C 0.4029 0.86013 0.35236 0.0
C79 C 0.45479 0.87265 0.36473 0.0
C80 C 0.48261 0.91039 0.39841 0.0
C81 C 0.55687 0.12666 0.45536 0.0
C82 C 0.60284 0.15035 0.42933 0.0
C83 C 0.62333 0.20221 0.41428 0.0
C84 C 0.59829 0.23142 0.42515 0.0
C85 C 0.5515 0.2071 0.45025 0.0
C86 C 0.53064 0.15503 0.46466 0.0
C87 C 0.53539 0.07186 0.47188 0.0
C88 C 0.51819 0.02979 0.44088 0.0
C89 C 0.52636 0.06014 0.51773 0.0
C90 C 0.53487 0.10029 0.55182 0.0
C91 C 0.58547 0.13507 0.56983 0.0
C92 C 0.59064 0.16696 0.60693 0.0
C93 C 0.54518 0.16422 0.62604 0.0
C94 C 0.49506 0.131 0.60622 0.0
C95 C 0.48999 0.09916 0.56978 0.0
H96 H 0.54175 0.64739 0.75772 0.0
H97 H 0.49153 0.64989 0.8227 0.0
H98 H 0.35114 0.51086 0.77137 0.0
H99 H 0.40081 0.5096 0.7064 0.0
H100 H 0.52671 0.5291 0.74197 0.0
H101 H 0.5118 0.67415 0.66967 0.0
H102 H 0.44685 0.702 0.65441 0.0
H103 H 0.35198 0.55869 0.57675 0.0
H104 H 0.41718 0.53102 0.59246 0.0
H105 H 0.52111 0.43183 0.59837 0.0
H106 H 0.56565 0.40852 0.54048 0.0
H107 H 0.68601 0.57386 0.53048 0.0
H108 H 0.64147 0.59642 0.58778 0.0
H109 H 0.52828 0.57132 0.58194 0.0
H110 H 0.46552 0.42715 0.70321 0.0
H111 H 0.46457 0.34865 0.73006 0.0
H112 H 0.63417 0.4234 0.70858 0.0
H113 H 0.63472 0.50326 0.68193 0.0
C114 C 0.47458 0.57862 0.72735 0.0
C115 C 0.49972 0.61861 0.76 0.0
C116 C 0.4712 0.61987 0.79699 0.0
C117 C 0.41787 0.58012 0.80211 0.0
C118 C 0.39243 0.54159 0.76834 0.0
C119 C 0.4205 0.54108 0.73109 0.0
C120 C 0.50597 0.56968 0.69367 0.0
C121 C 0.52912 0.54014 0.70716 0.0
C122 C 0.50334 0.57916 0.64789 0.0
C123 C 0.46941 0.60057 0.63217 0.0
C124 C 0.47743 0.64916 0.64879 0.0
C125 C 0.44003 0.66483 0.64021 0.0
C126 C 0.39375 0.63219 0.61485 0.0
C127 C 0.38693 0.58456 0.59668 0.0
C128 C 0.42448 0.56897 0.60522 0.0
C129 C 0.578 0.51593 0.59728 0.0
C130 C 0.55746 0.46282 0.58397 0.0
C131 C 0.58304 0.44955 0.55097 0.0
C132 C 0.62946 0.48926 0.53072 0.0
C133 C 0.65039 0.54214 0.54518 0.0
C134 C 0.62483 0.55526 0.57787 0.0
C135 C 0.55095 0.53178 0.63065 0.0
C136 C 0.52853 0.56258 0.617 0.0
C137 C 0.54784 0.51773 0.67595 0.0
C138 C 0.55014 0.47077 0.69043 0.0
C139 C 0.50264 0.4268 0.70446 0.0
C140 C 0.50221 0.38196 0.72001 0.0
C141 C 0.54932 0.37978 0.72171 0.0
C142 C 0.59727 0.42409 0.70798 0.0
C143 C 0.59767 0.46946 0.69236 0.0
H144 H 0.04543 0.61344 0.74599 0.0
H145 H 0.10777 0.6591 0.68644 0.0
H146 H 0.16632 0.54953 0.69628 0.0
H147 H 0.10293 0.50349 0.75663 0.0
H148 H 0.96466 0.50508 0.73885 0.0
H149 H 0.13143 0.61359 0.83804 0.0
H150 H 0.21683 0.62785 0.86808 0.0
H151 H 0.1423 0.46055 0.89632 0.0
H152 H 0.05882 0.44687 0.86599 0.0
H153 H 0.90669 0.39347 0.90677 0.0
H154 H 0.85049 0.37775 0.9724 0.0
H155 H 0.83316 0.51143 0.93717 0.0
H156 H 0.88725 0.52555 0.87082 0.0
H157 H 0.00309 0.49383 0.89848 0.0
H158 H 0.86052 0.3738 0.81914 0.0
H159 H 0.76964 0.32073 0.79132 0.0
H160 H 0.78666 0.45543 0.71828 0.0
H161 H 0.87788 0.50897 0.74724 0.0
C162 C 0.06926 0.55495 0.75568 0.0
C163 C 0.07207 0.59951 0.73578 0.0
C164 C 0.1079 0.62563 0.70166 0.0
C165 C 0.14187 0.60774 0.6862 0.0
C166 C 0.14085 0.56441 0.70747 0.0
C167 C 0.10464 0.53807 0.74192 0.0
C168 C 0.02639 0.52495 0.78827 0.0
C169 C 0.97316 0.50327 0.77387 0.0
C170 C 0.03675 0.51843 0.8332 0.0
C171 C 0.08923 0.52909 0.8494 0.0
C172 C 0.134 0.58022 0.85053 0.0
C173 C 0.18239 0.58834 0.86817 0.0
C174 C 0.1862 0.54535 0.88473 0.0
C175 C 0.14086 0.49457 0.8839 0.0
C176 C 0.09307 0.48659 0.8664 0.0
C177 C 0.90086 0.46055 0.88399 0.0
C178 C 0.88931 0.41825 0.91252 0.0
C179 C 0.85721 0.40926 0.94982 0.0
C180 C 0.83787 0.44359 0.95977 0.0
C181 C 0.84771 0.48448 0.93015 0.0
C182 C 0.87838 0.49245 0.89224 0.0
C183 C 0.94214 0.47658 0.84945 0.0
C184 C -0.0053 0.49607 0.86347 0.0
C185 C 0.93083 0.47708 0.80369 0.0
C186 C 0.87561 0.44577 0.78618 0.0
C187 C 0.84452 0.39224 0.79766 0.0
C188 C 0.79266 0.36172 0.78132 0.0
C189 C 0.77086 0.38389 0.75268 0.0
C190 C 0.80239 0.43718 0.74025 0.0
C191 C 0.85444 0.46788 0.75684 0.0
H192 H 0.61902 0.10538 0.04508 0.0
H193 H 0.67282 0.19929 0.06567 0.0
H194 H 0.54872 0.2259 0.01485 0.0
H195 H 0.49479 0.13192 0.99545 0.0
H196 H 0.51478 0.02582 0.06946 0.0
H197 H 0.60258 0.12334 0.92595 0.0
H198 H 0.61352 0.18622 0.86717 0.0
H199 H 0.4423 0.11177 0.85483 0.0
H200 H 0.43207 0.04953 0.91266 0.0
H201 H 0.38184 0.89365 0.91866 0.0
H202 H 0.34242 0.80155 0.89298 0.0
H203 H 0.45808 0.78498 0.97208 0.0
H204 H 0.49763 0.87693 0.99687 0.0
H205 H 0.47286 0.97787 0.90913 0.0
H206 H 0.3709 0.90436 0.03402 0.0
H207 H 0.32356 0.84271 0.09416 0.0
H208 H 0.47288 0.86611 0.14636 0.0
H209 H 0.5204 0.92937 0.08657 0.0
C210 C 0.55336 0.11185 0.01796 0.0
C211 C 0.60324 0.13141 0.03886 0.0
C212 C 0.63397 0.1851 0.05052 0.0
C213 C 0.61533 0.22021 0.04141 0.0
C214 C 0.56454 0.20008 0.02186 0.0
C215 C 0.5337 0.14636 0.01059 0.0
C216 C 0.52291 0.05575 0.00269 0.0
C217 C 0.50673 0.0154 0.03432 0.0
C218 C 0.50832 0.04183 0.95733 0.0
C219 C 0.51651 0.0816 0.92326 0.0
C220 C 0.56761 0.12101 0.91058 0.0
C221 C 0.57374 0.15695 0.87717 0.0
C222 C 0.52881 0.15404 0.85621 0.0
C223 C 0.47784 0.11532 0.87013 0.0
C224 C 0.47183 0.07938 0.90303 0.0
C225 C 0.44232 0.89208 0.96012 0.0
C226 C 0.39878 0.87018 0.93028 0.0
C227 C 0.37627 0.8175 0.91568 0.0
C228 C 0.39704 0.78585 0.93054 0.0
C229 C 0.44095 0.80812 0.96007 0.0
C230 C 0.4634 0.86066 0.97456 0.0
C231 C 0.46694 0.94806 0.97562 0.0
C232 C 0.48192 0.98826 0.9442 0.0
C233 C 0.47681 0.9618 0.02139 0.0
C234 C 0.4491 0.92145 0.05602 0.0
C235 C 0.3934 0.89581 0.05816 0.0
C236 C 0.36641 0.86059 0.09245 0.0
C237 C 0.39454 0.84951 0.12476 0.0
C238 C 0.4502 0.87355 0.12157 0.0
C239 C 0.4774 0.90992 0.08776 0.0
H240 H 0.47991 0.40519 0.26341 0.0
H241 H 0.53042 0.39087 0.3223 0.0
H242 H 0.67502 0.52644 0.27628 0.0
H243 H 0.62453 0.54 0.21761 0.0
H244 H 0.48755 0.51473 0.25553 0.0
H245 H 0.52811 0.39059 0.16676 0.0
H246 H 0.59893 0.37482 0.13997 0.0
H247 H 0.67635 0.52908 0.0791 0.0
H248 H 0.60626 0.54439 0.10564 0.0
H249 H 0.50912 0.6067 0.09009 0.0
H250 H 0.4646 0.62131 0.02647 0.0
H251 H 0.31889 0.478 0.05801 0.0
H252 H 0.36295 0.465 0.12271 0.0
H253 H 0.49923 0.49357 0.09229 0.0
H254 H 0.50221 0.63139 0.17085 0.0
H255 H 0.47098 0.68949 0.19878 0.0
H256 H 0.35627 0.56266 0.28065 0.0
H257 H 0.38735 0.50424 0.25164 0.0
C258 C 0.54865 0.47357 0.23631 0.0
C259 C 0.52264 0.43115 0.26572 0.0
C260 C 0.55152 0.42287 0.29911 0.0
C261 C 0.6066 0.45766 0.30397 0.0
C262 C 0.63259 0.49909 0.27347 0.0
C263 C 0.60388 0.50687 0.23989 0.0
C264 C 0.51796 0.48572 0.20383 0.0
C265 C 0.48864 0.50857 0.21988 0.0
C266 C 0.52333 0.48193 0.15731 0.0
C267 C 0.56225 0.4688 0.1384 0.0
C268 C 0.56012 0.42058 0.1472 0.0
C269 C 0.60028 0.41151 0.13165 0.0
C270 C 0.64321 0.45087 0.10767 0.0
C271 C 0.64394 0.49813 0.09769 0.0
C272 C 0.6038 0.50687 0.11272 0.0
C273 C 0.43899 0.53514 0.11119 0.0
C274 C 0.46709 0.5796 0.08416 0.0
C275 C 0.44168 0.58786 0.04794 0.0
C276 C 0.38847 0.55063 0.03742 0.0
C277 C 0.35997 0.50722 0.06552 0.0
C278 C 0.38495 0.49985 0.10246 0.0
C279 C 0.46751 0.52085 0.14402 0.0
C280 C 0.4963 0.49769 0.12803 0.0
C281 C 0.46543 0.52846 0.19034 0.0
C282 C 0.44585 0.56298 0.20802 0.0
C283 C 0.46973 0.61581 0.19425 0.0
C284 C 0.45232 0.64923 0.21074 0.0
C285 C 0.41097 0.63068 0.2418 0.0
C286 C 0.38823 0.57819 0.25674 0.0
C287 C 0.40567 0.54464 0.24005 0.0
Zn288 Zn 0.71633 0.50088 0.41368 0.0
Zn289 Zn 0.65091 0.3977 0.42101 0.0
O290 O 0.72686 0.40941 0.41073 0.0
O291 O 0.78216 0.49529 0.4116 0.0
O292 O 0.60891 0.31819 0.43101 0.0
O293 O 0.69025 0.51554 0.47093 0.0
O294 O 0.63547 0.42991 0.47763 0.0
C295 C 0.77407 0.4486 0.40827 0.0
C296 C 0.63624 0.45473 0.34303 0.0
O297 O 0.61897 0.412 0.36494 0.0
O298 O 0.67764 0.49664 0.35617 0.0
C299 C 0.62217 0.28749 0.41177 0.0
O300 O 0.66055 0.30712 0.38244 0.0
C301 C 0.65373 0.47733 0.49203 0.0
Zn302 Zn 0.19926 0.68776 0.56392 0.0
Zn303 Zn 0.25743 0.64351 0.57555 0.0
O304 O 0.30896 0.72316 0.56168 0.0
O305 O 0.26019 0.76124 0.56048 0.0
O306 O 0.30993 0.61795 0.58642 0.0
O307 O 0.16147 0.65942 0.62129 0.0
O308 O 0.21024 0.62239 0.63304 0.0
C309 C 0.30511 0.76454 0.55747 0.0
C310 C 0.18315 0.61062 0.49541 0.0
O311 O 0.21452 0.60233 0.51949 0.0
O312 O 0.17174 0.64556 0.50689 0.0
C313 C 0.35286 0.64778 0.60803 0.0
O314 O 0.3606 0.69299 0.62452 0.0
C315 C 0.17362 0.63166 0.64546 0.0
Zn316 Zn 0.50136 0.22017 0.7417 0.0
Zn317 Zn 0.60555 0.2663 0.74479 0.0
O318 O 0.58866 0.32638 0.73605 0.0
O319 O 0.5016 0.28842 0.73834 0.0
O320 O 0.68469 0.307 0.75479 0.0
O321 O 0.4923 0.18228 0.79904 0.0
O322 O 0.57937 0.21877 0.80089 0.0
C323 C 0.54662 0.32959 0.73396 0.0
C324 C 0.54826 0.19325 0.66755 0.0
O325 O 0.59266 0.22328 0.68713 0.0
O326 O 0.50537 0.18634 0.68436 0.0
C327 C 0.71476 0.35208 0.73775 0.0
O328 O 0.69451 0.37175 0.70968 0.0
C329 C 0.53399 0.18778 0.81768 0.0
Zn330 Zn 0.31183 0.5175 0.91205 0.0
Zn331 Zn 0.3578 0.62255 0.91942 0.0
O332 O 0.2787 0.59689 0.90474 0.0
O333 O 0.24089 0.50997 0.90307 0.0
O334 O 0.39027 0.70093 0.93166 0.0
O335 O 0.33576 0.51064 0.9731 0.0
O336 O 0.37663 0.5977 0.97777 0.0
C337 C 0.23751 0.55128 0.89929 0.0
C338 C 0.38921 0.57571 0.84351 0.0
O339 O 0.39642 0.61693 0.86458 0.0
O340 O 0.35629 0.5299 0.85734 0.0
C341 C 0.37258 0.72965 0.91619 0.0
O342 O 0.33135 0.7085 0.88883 0.0
C343 C 0.36488 0.55319 0.99458 0.0
Zn344 Zn 0.79861 0.48076 0.08535 0.0
Zn345 Zn 0.74014 0.3751 0.08054 0.0
O346 O 0.68637 0.40054 0.09379 0.0
O347 O 0.73432 0.48759 0.0922 0.0
O348 O 0.69301 0.29586 0.07207 0.0
O349 O 0.8276 0.48438 0.02411 0.0
O350 O 0.78134 0.39717 0.0209 0.0
C351 C 0.68984 0.4458 0.0966 0.0
C352 C 0.82194 0.42634 0.15524 0.0
O353 O 0.78756 0.38424 0.13495 0.0
O354 O 0.83308 0.4714 0.14076 0.0
C355 C 0.64911 0.27772 0.05079 0.0
O356 O 0.63507 0.311 0.03542 0.0
C357 C 0.81362 0.44142 0.0033 0.0
Zn358 Zn 0.2981 0.78704 0.23872 0.0
Zn359 Zn 0.36289 0.74688 0.24195 0.0
O360 O 0.28626 0.68373 0.24863 0.0
O361 O 0.23216 0.71543 0.24262 0.0
O362 O 0.40388 0.70835 0.23638 0.0
O363 O 0.32711 0.82001 0.17903 0.0
O364 O 0.38418 0.79159 0.18469 0.0
C365 C 0.23925 0.67647 0.24805 0.0
C366 C 0.37516 0.82502 0.31362 0.0
O367 O 0.39119 0.79512 0.29719 0.0
O368 O 0.33675 0.82718 0.29541 0.0
C369 C 0.38933 0.66474 0.25597 0.0
O370 O 0.35036 0.64732 0.28472 0.0
C371 C 0.36649 0.81766 0.164 0.0
loop_
_geom_bond_atom_site_label_1
_geom_bond_atom_site_label_2
_geom_bond_distance
_geom_bond_site_symmetry_2
_ccdc_geom_bond_type
H0 C19 0.949 . S
H1 C20 0.950 . S
H2 C22 0.950 . S
H3 C23 0.950 . S
H4 C25 0.950 . S
H5 C28 0.950 . S
H6 C29 0.950 . S
H7 C31 0.951 . S
H8 C32 0.949 . S
H9 C34 0.949 . S
H10 C35 0.950 . S
H11 C37 0.950 . S
H12 C38 0.950 . S
H13 C40 0.950 . S
H14 C43 0.950 . S
H15 C44 0.950 . S
H16 C46 0.951 . S
H17 C47 0.949 . S
C18 C19 1.376 . S
C18 C23 1.386 . S
C18 C24 1.483 . S
C19 H0 0.949 . S
C19 C18 1.376 . S
C19 C20 1.397 . S
C20 H1 0.950 . S
C20 C19 1.397 . S
C20 C21 1.391 . S
C21 C20 1.391 . S
C21 C22 1.405 . S
C22 H2 0.950 . S
C22 C21 1.405 . S
C22 C23 1.367 . S
C23 H3 0.950 . S
C23 C18 1.386 . S
C23 C22 1.367 . S
C24 C18 1.483 . S
C24 C25 1.382 1_655 S
C24 C26 1.403 . S
C25 H4 0.950 . S
C25 C24 1.382 1_455 S
C25 C41 1.411 . S
C26 C24 1.403 . S
C26 C27 1.489 . S
C26 C40 1.411 . S
C27 C26 1.489 . S
C27 C28 1.383 . S
C27 C32 1.382 . S
C28 H5 0.950 . S
C28 C27 1.383 . S
C28 C29 1.395 . S
C29 H6 0.950 . S
C29 C28 1.395 . S
C29 C30 1.288 . S
C30 C29 1.288 . S
C30 C31 1.392 . S
C31 H7 0.951 . S
C31 C30 1.392 . S
C31 C32 1.392 . S
C32 H8 0.949 . S
C32 C27 1.382 . S
C32 C31 1.392 . S
C33 C34 1.376 . S
C33 C38 1.386 . S
C33 C39 1.483 . S
C34 H9 0.949 . S
C34 C33 1.376 . S
C34 C35 1.397 . S
C35 H10 0.950 . S
C35 C34 1.397 . S
C35 C36 1.391 . S
C36 C35 1.391 . S
C36 C37 1.405 . S
C37 H11 0.950 . S
C37 C36 1.405 . S
C37 C38 1.367 . S
C38 H12 0.950 . S
C38 C33 1.386 . S
C38 C37 1.367 . S
C39 C33 1.483 . S
C39 C40 1.382 1_455 S
C39 C41 1.403 . S
C40 H13 0.950 . S
C40 C26 1.411 . S
C40 C39 1.382 1_655 S
C41 C25 1.411 . S
C41 C39 1.403 . S
C41 C42 1.489 . S
C42 C41 1.489 . S
C42 C43 1.383 . S
C42 C47 1.382 . S
C43 H14 0.950 . S
C43 C42 1.383 . S
C43 C44 1.395 . S
C44 H15 0.950 . S
C44 C43 1.395 . S
C44 C45 1.288 . S
C45 C44 1.288 . S
C45 C46 1.392 . S
C46 H16 0.951 . S
C46 C45 1.392 . S
C46 C47 1.392 . S
C47 H17 0.949 . S
C47 C42 1.382 . S
C47 C46 1.392 . S
H48 C67 0.949 . S
H49 C68 0.950 . S
H50 C70 0.950 . S
H51 C71 0.950 . S
H52 C73 0.950 . S
H53 C76 0.950 . S
H54 C77 0.950 . S
H55 C79 0.951 . S
H56 C80 0.949 . S
H57 C82 0.949 . S
H58 C83 0.950 . S
H59 C85 0.950 . S
H60 C86 0.950 . S
H61 C88 0.950 . S
H62 C91 0.950 . S
H63 C92 0.950 . S
H64 C94 0.951 . S
H65 C95 0.949 . S
C66 C67 1.376 . S
C66 C71 1.386 . S
C66 C72 1.483 . S
C67 H48 0.949 . S
C67 C66 1.376 . S
C67 C68 1.397 . S
C68 H49 0.950 . S
C68 C67 1.397 . S
C68 C69 1.391 . S
C69 C68 1.391 . S
C69 C70 1.405 . S
C70 H50 0.950 . S
C70 C69 1.405 . S
C70 C71 1.367 . S
C71 H51 0.950 . S
C71 C66 1.386 . S
C71 C70 1.367 . S
C72 C66 1.483 . S
C72 C73 1.382 . S
C72 C74 1.403 . S
C73 H52 0.950 . S
C73 C72 1.382 . S
C73 C89 1.411 1_565 S
C74 C72 1.403 . S
C74 C75 1.489 . S
C74 C88 1.411 1_565 S
C75 C74 1.489 . S
C75 C76 1.383 . S
C75 C80 1.382 . S
C76 H53 0.950 . S
C76 C75 1.383 . S
C76 C77 1.395 . S
C77 H54 0.950 . S
C77 C76 1.395 . S
C77 C78 1.288 . S
C78 C77 1.288 . S
C78 C79 1.392 . S
C79 H55 0.951 . S
C79 C78 1.392 . S
C79 C80 1.392 . S
C80 H56 0.949 . S
C80 C75 1.382 . S
C80 C79 1.392 . S
C81 C82 1.376 . S
C81 C86 1.386 . S
C81 C87 1.483 . S
C82 H57 0.949 . S
C82 C81 1.376 . S
C82 C83 1.397 . S
C83 H58 0.950 . S
C83 C82 1.397 . S
C83 C84 1.391 . S
C84 C83 1.391 . S
C84 C85 1.405 . S
C85 H59 0.950 . S
C85 C84 1.405 . S
C85 C86 1.367 . S
C86 H60 0.950 . S
C86 C81 1.386 . S
C86 C85 1.367 . S
C87 C81 1.483 . S
C87 C88 1.382 . S
C87 C89 1.403 . S
C88 H61 0.950 . S
C88 C74 1.411 1_545 S
C88 C87 1.382 . S
C89 C73 1.411 1_545 S
C89 C87 1.403 . S
C89 C90 1.489 . S
C90 C89 1.489 . S
C90 C91 1.383 . S
C90 C95 1.382 . S
C91 H62 0.950 . S
C91 C90 1.383 . S
C91 C92 1.395 . S
C92 H63 0.950 . S
C92 C91 1.395 . S
C92 C93 1.288 . S
C93 C92 1.288 . S
C93 C94 1.392 . S
C94 H64 0.951 . S
C94 C93 1.392 . S
C94 C95 1.392 . S
C95 H65 0.949 . S
C95 C90 1.382 . S
C95 C94 1.392 . S
H96 C115 0.949 . S
H97 C116 0.950 . S
H98 C118 0.950 . S
H99 C119 0.950 . S
H100 C121 0.950 . S
H101 C124 0.950 . S
H102 C125 0.950 . S
H103 C127 0.951 . S
H104 C128 0.949 . S
H105 C130 0.949 . S
H106 C131 0.950 . S
H107 C133 0.950 . S
H108 C134 0.950 . S
H109 C136 0.950 . S
H110 C139 0.950 . S
H111 C140 0.950 . S
H112 C142 0.951 . S
H113 C143 0.949 . S
C114 C115 1.376 . S
C114 C119 1.386 . S
C114 C120 1.483 . S
C115 H96 0.949 . S
C115 C114 1.376 . S
C115 C116 1.397 . S
C116 H97 0.950 . S
C116 C115 1.397 . S
C116 C117 1.391 . S
C117 C116 1.391 . S
C117 C118 1.405 . S
C118 H98 0.950 . S
C118 C117 1.405 . S
C118 C119 1.367 . S
C119 H99 0.950 . S
C119 C114 1.386 . S
C119 C118 1.367 . S
C120 C114 1.483 . S
C120 C121 1.382 . S
C120 C122 1.403 . S
C121 H100 0.950 . S
C121 C120 1.382 . S
C121 C137 1.411 . S
C122 C120 1.403 . S
C122 C123 1.489 . S
C122 C136 1.411 . S
C123 C122 1.489 . S
C123 C124 1.383 . S
C123 C128 1.382 . S
C124 H101 0.950 . S
C124 C123 1.383 . S
C124 C125 1.395 . S
C125 H102 0.950 . S
C125 C124 1.395 . S
C125 C126 1.288 . S
C126 C125 1.288 . S
C126 C127 1.392 . S
C127 H103 0.951 . S
C127 C126 1.392 . S
C127 C128 1.392 . S
C128 H104 0.949 . S
C128 C123 1.382 . S
C128 C127 1.392 . S
C129 C130 1.376 . S
C129 C134 1.386 . S
C129 C135 1.483 . S
C130 H105 0.949 . S
C130 C129 1.376 . S
C130 C131 1.397 . S
C131 H106 0.950 . S
C131 C130 1.397 . S
C131 C132 1.391 . S
C132 C131 1.391 . S
C132 C133 1.405 . S
C133 H107 0.950 . S
C133 C132 1.405 . S
C133 C134 1.367 . S
C134 H108 0.950 . S
C134 C129 1.386 . S
C134 C133 1.367 . S
C135 C129 1.483 . S
C135 C136 1.382 . S
C135 C137 1.403 . S
C136 H109 0.950 . S
C136 C122 1.411 . S
C136 C135 1.382 . S
C137 C121 1.411 . S
C137 C135 1.403 . S
C137 C138 1.489 . S
C138 C137 1.489 . S
C138 C139 1.383 . S
C138 C143 1.382 . S
C139 H110 0.950 . S
C139 C138 1.383 . S
C139 C140 1.395 . S
C140 H111 0.950 . S
C140 C139 1.395 . S
C140 C141 1.288 . S
C141 C140 1.288 . S
C141 C142 1.392 . S
C142 H112 0.951 . S
C142 C141 1.392 . S
C142 C143 1.392 . S
C143 H113 0.949 . S
C143 C138 1.382 . S
C143 C142 1.392 . S
H144 C163 0.949 . S
H145 C164 0.950 . S
H146 C166 0.950 . S
H147 C167 0.950 . S
H148 C169 0.950 . S
H149 C172 0.950 . S
H150 C173 0.950 . S
H151 C175 0.951 . S
H152 C176 0.949 . S
H153 C178 0.949 . S
H154 C179 0.950 . S
H155 C181 0.950 . S
H156 C182 0.950 . S
H157 C184 0.950 . S
H158 C187 0.950 . S
H159 C188 0.950 . S
H160 C190 0.951 . S
H161 C191 0.949 . S
C162 C163 1.376 . S
C162 C167 1.386 . S
C162 C168 1.483 . S
C163 H144 0.949 . S
C163 C162 1.376 . S
C163 C164 1.397 . S
C164 H145 0.950 . S
C164 C163 1.397 . S
C164 C165 1.391 . S
C165 C164 1.391 . S
C165 C166 1.405 . S
C166 H146 0.950 . S
C166 C165 1.405 . S
C166 C167 1.367 . S
C167 H147 0.950 . S
C167 C162 1.386 . S
C167 C166 1.367 . S
C168 C162 1.483 . S
C168 C169 1.382 1_455 S
C168 C170 1.403 . S
C169 H148 0.950 . S
C169 C168 1.382 1_655 S
C169 C185 1.411 . S
C170 C168 1.403 . S
C170 C171 1.489 . S
C170 C184 1.411 . S
C171 C170 1.489 . S
C171 C172 1.383 . S
C171 C176 1.382 . S
C172 H149 0.950 . S
C172 C171 1.383 . S
C172 C173 1.395 . S
C173 H150 0.950 . S
C173 C172 1.395 . S
C173 C174 1.288 . S
C174 C173 1.288 . S
C174 C175 1.392 . S
C175 H151 0.951 . S
C175 C174 1.392 . S
C175 C176 1.392 . S
C176 H152 0.949 . S
C176 C171 1.382 . S
C176 C175 1.392 . S
C177 C178 1.376 . S
C177 C182 1.386 . S
C177 C183 1.483 . S
C178 H153 0.949 . S
C178 C177 1.376 . S
C178 C179 1.397 . S
C179 H154 0.950 . S
C179 C178 1.397 . S
C179 C180 1.391 . S
C180 C179 1.391 . S
C180 C181 1.405 . S
C181 H155 0.950 . S
C181 C180 1.405 . S
C181 C182 1.367 . S
C182 H156 0.950 . S
C182 C177 1.386 . S
C182 C181 1.367 . S
C183 C177 1.483 . S
C183 C184 1.382 1_655 S
C183 C185 1.403 . S
C184 H157 0.950 . S
C184 C170 1.411 . S
C184 C183 1.382 1_455 S
C185 C169 1.411 . S
C185 C183 1.403 . S
C185 C186 1.489 . S
C186 C185 1.489 . S
C186 C187 1.383 . S
C186 C191 1.382 . S
C187 H158 0.950 . S
C187 C186 1.383 . S
C187 C188 1.395 . S
C188 H159 0.950 . S
C188 C187 1.395 . S
C188 C189 1.288 . S
C189 C188 1.288 . S
C189 C190 1.392 . S
C190 H160 0.951 . S
C190 C189 1.392 . S
C190 C191 1.392 . S
C191 H161 0.949 . S
C191 C186 1.382 . S
C191 C190 1.392 . S
H192 C211 0.949 . S
H193 C212 0.950 . S
H194 C214 0.950 . S
H195 C215 0.950 1_556 S
H196 C217 0.950 . S
H197 C220 0.950 . S
H198 C221 0.950 . S
H199 C223 0.951 . S
H200 C224 0.949 . S
H201 C226 0.949 . S
H202 C227 0.950 . S
H203 C229 0.950 . S
H204 C230 0.961 . S
H205 C232 0.950 . S
H206 C235 0.950 . S
H207 C236 0.950 . S
H208 C238 0.951 . S
H209 C239 0.949 . S
C210 C211 1.376 . S
C210 C215 1.386 . S
C210 C216 1.483 . S
C211 H192 0.949 . S
C211 C210 1.376 . S
C211 C212 1.397 . S
C212 H193 0.950 . S
C212 C211 1.397 . S
C212 C213 1.391 . S
C213 C212 1.391 . S
C213 C214 1.405 . S
C214 H194 0.950 . S
C214 C213 1.405 . S
C214 C215 1.367 . S
C215 H195 0.950 1_554 S
C215 C210 1.386 . S
C215 C214 1.367 . S
C216 C210 1.483 . S
C216 C217 1.382 . S
C216 C218 1.403 1_554 S
C217 H196 0.950 . S
C217 C216 1.382 . S
C217 C233 1.411 1_545 S
C218 C216 1.403 1_556 S
C218 C219 1.489 . S
C218 C232 1.411 1_545 S
C219 C218 1.489 . S
C219 C220 1.383 . S
C219 C224 1.382 . S
C220 H197 0.950 . S
C220 C219 1.383 . S
C220 C221 1.395 . S
C221 H198 0.950 . S
C221 C220 1.395 . S
C221 C222 1.288 . S
C222 C221 1.288 . S
C222 C223 1.392 . S
C223 H199 0.951 . S
C223 C222 1.392 . S
C223 C224 1.392 . S
C224 H200 0.949 . S
C224 C219 1.382 . S
C224 C223 1.392 . S
C225 C226 1.376 . S
C225 C230 1.386 . S
C225 C231 1.483 . S
C226 H201 0.949 . S
C226 C225 1.376 . S
C226 C227 1.397 . S
C227 H202 0.950 . S
C227 C226 1.397 . S
C227 C228 1.391 . S
C228 C227 1.391 . S
C228 C229 1.405 . S
C229 H203 0.950 . S
C229 C228 1.405 . S
C229 C230 1.367 . S
C230 H204 0.961 . S
C230 C225 1.386 . S
C230 C229 1.367 . S
C231 C225 1.483 . S
C231 C232 1.382 . S
C231 C233 1.403 1_556 S
C232 H205 0.950 . S
C232 C218 1.411 1_565 S
C232 C231 1.382 . S
C233 C217 1.411 1_565 S
C233 C231 1.403 1_554 S
C233 C234 1.489 . S
C234 C233 1.489 . S
C234 C235 1.383 . S
C234 C239 1.382 . S
C235 H206 0.950 . S
C235 C234 1.383 . S
C235 C236 1.395 . S
C236 H207 0.950 . S
C236 C235 1.395 . S
C236 C237 1.288 . S
C237 C236 1.288 . S
C237 C238 1.392 . S
C238 H208 0.951 . S
C238 C237 1.392 . S
C238 C239 1.392 . S
C239 H209 0.949 . S
C239 C234 1.382 . S
C239 C238 1.392 . S
H240 C259 0.949 . S
H241 C260 0.950 . S
H242 C262 0.950 . S
H243 C263 0.950 . S
H244 C265 0.950 . S
H245 C268 0.950 . S
H246 C269 0.950 . S
H247 C271 0.951 . S
H248 C272 0.949 . S
H249 C274 0.949 . S
H250 C275 0.950 . S
H251 C277 0.950 . S
H252 C278 0.950 . S
H253 C280 0.950 . S
H254 C283 0.950 . S
H255 C284 0.950 . S
H256 C286 0.951 . S
H257 C287 0.949 . S
C258 C259 1.376 . S
C258 C263 1.386 . S
C258 C264 1.483 . S
C259 H240 0.949 . S
C259 C258 1.376 . S
C259 C260 1.397 . S
C260 H241 0.950 . S
C260 C259 1.397 . S
C260 C261 1.391 . S
C261 C260 1.391 . S
C261 C262 1.405 . S
C262 H242 0.950 . S
C262 C261 1.405 . S
C262 C263 1.367 . S
C263 H243 0.950 . S
C263 C258 1.386 . S
C263 C262 1.367 . S
C264 C258 1.483 . S
C264 C265 1.382 . S
C264 C266 1.403 . S
C265 H244 0.950 . S
C265 C264 1.382 . S
C265 C281 1.411 . S
C266 C264 1.403 . S
C266 C267 1.489 . S
C266 C280 1.411 . S
C267 C266 1.489 . S
C267 C268 1.383 . S
C267 C272 1.382 . S
C268 H245 0.950 . S
C268 C267 1.383 . S
C268 C269 1.395 . S
C269 H246 0.950 . S
C269 C268 1.395 . S
C269 C270 1.288 . S
C270 C269 1.288 . S
C270 C271 1.392 . S
C271 H247 0.951 . S
C271 C270 1.392 . S
C271 C272 1.392 . S
C272 H248 0.949 . S
C272 C267 1.382 . S
C272 C271 1.392 . S
C273 C274 1.376 . S
C273 C278 1.386 . S
C273 C279 1.483 . S
C274 H249 0.949 . S
C274 C273 1.376 . S
C274 C275 1.397 . S
C275 H250 0.950 . S
C275 C274 1.397 . S
C275 C276 1.391 . S
C276 C275 1.391 . S
C276 C277 1.405 . S
C277 H251 0.950 . S
C277 C276 1.405 . S
C277 C278 1.367 . S
C278 H252 0.950 . S
C278 C273 1.386 . S
C278 C277 1.367 . S
C279 C273 1.483 . S
C279 C280 1.382 . S
C279 C281 1.403 . S
C280 H253 0.950 . S
C280 C266 1.411 . S
C280 C279 1.382 . S
C281 C265 1.411 . S
C281 C279 1.403 . S
C281 C282 1.489 . S
C282 C281 1.489 . S
C282 C283 1.383 . S
C282 C287 1.382 . S
C283 H254 0.950 . S
C283 C282 1.383 . S
C283 C284 1.395 . S
C284 H255 0.950 . S
C284 C283 1.395 . S
C284 C285 1.288 . S
C285 C284 1.288 . S
C285 C286 1.392 . S
C286 H256 0.951 . S
C286 C285 1.392 . S
C286 C287 1.392 . S
C287 H257 0.949 . S
C287 C282 1.382 . S
C287 C286 1.392 . S
Zn288 O291 2.031 . S
Zn288 O293 2.049 . S
Zn288 O298 2.067 . S
Zn289 O290 1.962 . S
Zn289 O292 1.986 . S
Zn289 O294 1.996 . S
Zn289 O297 1.943 . S
O290 Zn289 1.962 . S
O290 C295 1.254 . S
O291 Zn288 2.031 . S
O291 C295 1.269 . S
O292 Zn289 1.986 . S
O292 C299 1.262 . S
O293 Zn288 2.049 . S
O293 C301 1.260 . S
O294 Zn289 1.996 . S
O294 C301 1.257 . S
C295 O290 1.254 . S
C295 O291 1.269 . S
C296 O297 1.249 . S
C296 O298 1.270 . S
O297 Zn289 1.943 . S
O297 C296 1.249 . S
O298 Zn288 2.067 . S
O298 C296 1.270 . S
C299 O292 1.262 . S
C299 O300 1.232 . S
O300 C299 1.232 . S
C301 O293 1.260 . S
C301 O294 1.257 . S
Zn302 O305 2.031 . S
Zn302 O307 2.049 . S
Zn302 O312 2.067 . S
Zn303 O304 1.962 . S
Zn303 O306 1.986 . S
Zn303 O308 1.996 . S
Zn303 O311 1.943 . S
O304 Zn303 1.962 . S
O304 C309 1.254 . S
O305 Zn302 2.031 . S
O305 C309 1.269 . S
O306 Zn303 1.986 . S
O306 C313 1.262 . S
O307 Zn302 2.049 . S
O307 C315 1.260 . S
O308 Zn303 1.996 . S
O308 C315 1.257 . S
C309 O304 1.254 . S
C309 O305 1.269 . S
C310 O311 1.249 . S
C310 O312 1.270 . S
O311 Zn303 1.943 . S
O311 C310 1.249 . S
O312 Zn302 2.067 . S
O312 C310 1.270 . S
C313 O306 1.262 . S
C313 O314 1.232 . S
O314 C313 1.232 . S
C315 O307 1.260 . S
C315 O308 1.257 . S
Zn316 O319 2.031 . S
Zn316 O321 2.049 . S
Zn316 O326 2.067 . S
Zn317 O318 1.962 . S
Zn317 O320 1.986 . S
Zn317 O322 1.996 . S
Zn317 O325 1.943 . S
O318 Zn317 1.962 . S
O318 C323 1.254 . S
O319 Zn316 2.031 . S
O319 C323 1.269 . S
O320 Zn317 1.986 . S
O320 C327 1.262 . S
O321 Zn316 2.049 . S
O321 C329 1.260 . S
O322 Zn317 1.996 . S
O322 C329 1.257 . S
C323 O318 1.254 . S
C323 O319 1.269 . S
C324 O325 1.249 . S
C324 O326 1.270 . S
O325 Zn317 1.943 . S
O325 C324 1.249 . S
O326 Zn316 2.067 . S
O326 C324 1.270 . S
C327 O320 1.262 . S
C327 O328 1.232 . S
O328 C327 1.232 . S
C329 O321 1.260 . S
C329 O322 1.257 . S
Zn330 O333 2.031 . S
Zn330 O335 2.049 . S
Zn330 O340 2.067 . S
Zn331 O332 1.962 . S
Zn331 O334 1.986 . S
Zn331 O336 1.996 . S
Zn331 O339 1.943 . S
O332 Zn331 1.962 . S
O332 C337 1.254 . S
O333 Zn330 2.031 . S
O333 C337 1.269 . S
O334 Zn331 1.986 . S
O334 C341 1.262 . S
O335 Zn330 2.049 . S
O335 C343 1.260 . S
O336 Zn331 1.996 . S
O336 C343 1.257 . S
C337 O332 1.254 . S
C337 O333 1.269 . S
C338 O339 1.249 . S
C338 O340 1.270 . S
O339 Zn331 1.943 . S
O339 C338 1.249 . S
O340 Zn330 2.067 . S
O340 C338 1.270 . S
C341 O334 1.262 . S
C341 O342 1.232 . S
O342 C341 1.232 . S
C343 O335 1.260 . S
C343 O336 1.257 . S
Zn344 O347 2.031 . S
Zn344 O349 2.049 . S
Zn344 O354 2.067 . S
Zn345 O346 1.962 . S
Zn345 O348 1.986 . S
Zn345 O350 1.996 . S
Zn345 O353 1.943 . S
O346 Zn345 1.962 . S
O346 C351 1.254 . S
O347 Zn344 2.031 . S
O347 C351 1.269 . S
O348 Zn345 1.986 . S
O348 C355 1.262 . S
O349 Zn344 2.049 . S
O349 C357 1.260 . S
O350 Zn345 1.996 . S
O350 C357 1.257 . S
C351 O346 1.254 . S
C351 O347 1.269 . S
C352 O353 1.249 . S
C352 O354 1.270 . S
O353 Zn345 1.943 . S
O353 C352 1.249 . S
O354 Zn344 2.067 . S
O354 C352 1.270 . S
C355 O348 1.262 . S
C355 O356 1.232 . S
O356 C355 1.232 . S
C357 O349 1.260 . S
C357 O350 1.257 . S
Zn358 O361 2.031 . S
Zn358 O363 2.049 . S
Zn358 O368 2.067 . S
Zn359 O360 1.962 . S
Zn359 O362 1.986 . S
Zn359 O364 1.996 . S
Zn359 O367 1.943 . S
O360 Zn359 1.962 . S
O360 C365 1.254 . S
O361 Zn358 2.031 . S
O361 C365 1.269 . S
O362 Zn359 1.986 . S
O362 C369 1.262 . S
O363 Zn358 2.049 . S
O363 C371 1.260 . S
O364 Zn359 1.996 . S
O364 C371 1.257 . S
C365 O360 1.254 . S
C365 O361 1.269 . S
C366 O367 1.249 . S
C366 O368 1.270 . S
O367 Zn359 1.943 . S
O367 C366 1.249 . S
O368 Zn358 2.067 . S
O368 C366 1.270 . S
C369 O362 1.262 . S
C369 O370 1.232 . S
O370 C369 1.232 . S
C371 O363 1.260 . S
C371 O364 1.257 . S
C365 C45 1.955 . S
C84 C299 1.716 . S
C126 C313 1.590 . S
C189 C327 1.890 . S
C341 C228 2.040 . S
C270 C351 1.920 . S
C69 C309 1.968 . S
C141 C323 2.253 . S
C174 C337 2.058 . S
C355 C213 1.946 . S
C369 C285 1.860 . S
C295 C30 1.768 . S
C36 C310 1.493 . S
C93 C324 1.557 . S
C338 C117 1.543 . S
C180 C357 1.668 1_556 S
C371 C237 1.566 . S
C296 C261 1.406 . S
C366 C78 1.380 . S
C132 C301 1.600 . S
C315 C165 1.590 . S
C222 C329 1.478 . S
C276 C343 1.688 1_554 S
C21 C352 1.490 . S
