# Generated by pormake.
# Topology zzz, (3,6)-cn, num edge types: 1
# Building blocks:
#     Node 0, Type 0, BuildingBlock: PAMTOO_clean_linker_0, # of connection points: 3
#     Node 1, Type 0, BuildingBlock: PAMTOO_clean_linker_0, # of connection points: 3
#     Node 2, Type 0, BuildingBlock: PAMTOO_clean_linker_0, # of connection points: 3
#     Node 3, Type 0, BuildingBlock: PAMTOO_clean_linker_0, # of connection points: 3
#     Node 4, Type 0, BuildingBlock: PAMTOO_clean_linker_0, # of connection points: 3
#     Node 5, Type 0, BuildingBlock: PAMTOO_clean_linker_0, # of connection points: 3
#     Node 6, Type 0, BuildingBlock: PAMTOO_clean_linker_0, # of connection points: 3
#     Node 7, Type 0, BuildingBlock: PAMTOO_clean_linker_0, # of connection points: 3
#     Node 8, Type 1, BuildingBlock: KUMBOL_clean_sbu_0, # of connection points: 6
#     Node 9, Type 1, BuildingBlock: KUMBOL_clean_sbu_0, # of connection points: 6
#     Node 10, Type 1, BuildingBlock: KUMBOL_clean_sbu_0, # of connection points: 6
#     Node 11, Type 1, BuildingBlock: KUMBOL_clean_sbu_0, # of connection points: 6
#     Edge 12, Type (0, 1), BuildingBlock: AJUNOK_clean_linker_0, # of connection points: 2
#     Edge 13, Type (0, 1), BuildingBlock: AJUNOK_clean_linker_0, # of connection points: 2
#     Edge 14, Type (0, 1), BuildingBlock: AJUNOK_clean_linker_0, # of connection points: 2
#     Edge 15, Type (0, 1), BuildingBlock: AJUNOK_clean_linker_0, # of connection points: 2
#     Edge 16, Type (0, 1), BuildingBlock: AJUNOK_clean_linker_0, # of connection points: 2
#     Edge 17, Type (0, 1), BuildingBlock: AJUNOK_clean_linker_0, # of connection points: 2
#     Edge 18, Type (0, 1), BuildingBlock: AJUNOK_clean_linker_0, # of connection points: 2
#     Edge 19, Type (0, 1), BuildingBlock: AJUNOK_clean_linker_0, # of connection points: 2
#     Edge 20, Type (0, 1), BuildingBlock: AJUNOK_clean_linker_0, # of connection points: 2
#     Edge 21, Type (0, 1), BuildingBlock: AJUNOK_clean_linker_0, # of connection points: 2
#     Edge 22, Type (0, 1), BuildingBlock: AJUNOK_clean_linker_0, # of connection points: 2
#     Edge 23, Type (0, 1), BuildingBlock: AJUNOK_clean_linker_0, # of connection points: 2
#     Edge 24, Type (0, 1), BuildingBlock: AJUNOK_clean_linker_0, # of connection points: 2
#     Edge 25, Type (0, 1), BuildingBlock: AJUNOK_clean_linker_0, # of connection points: 2
#     Edge 26, Type (0, 1), BuildingBlock: AJUNOK_clean_linker_0, # of connection points: 2
#     Edge 27, Type (0, 1), BuildingBlock: AJUNOK_clean_linker_0, # of connection points: 2
#     Edge 28, Type (0, 1), BuildingBlock: AJUNOK_clean_linker_0, # of connection points: 2
#     Edge 29, Type (0, 1), BuildingBlock: AJUNOK_clean_linker_0, # of connection points: 2
#     Edge 30, Type (0, 1), BuildingBlock: AJUNOK_clean_linker_0, # of connection points: 2
#     Edge 31, Type (0, 1), BuildingBlock: AJUNOK_clean_linker_0, # of connection points: 2
#     Edge 32, Type (0, 1), BuildingBlock: AJUNOK_clean_linker_0, # of connection points: 2
#     Edge 33, Type (0, 1), BuildingBlock: AJUNOK_clean_linker_0, # of connection points: 2
#     Edge 34, Type (0, 1), BuildingBlock: AJUNOK_clean_linker_0, # of connection points: 2
#     Edge 35, Type (0, 1), BuildingBlock: AJUNOK_clean_linker_0, # of connection points: 2
# Relax obj value: 0.228
# Max RMSD: 0.182
# Mean RMSD: 0.118
data_MOF--net-zzz--node1-KUMBOL_clean_sbu_0--node2-PAMTOO_clean_linker_0--edge1-AJUNOK_clean_linker_0
_symmetry_space_group_name_H-M    P1
_symmetry_Int_Tables_number       1
_symmetry_cell_setting            triclinic
loop_
_symmetry_equiv_pos_as_xyz
'x, y, z'
_cell_length_a     36.195884
_cell_length_b     36.124518
_cell_length_c     10.786763
_cell_angle_alpha  92.296452
_cell_angle_beta   89.963272
_cell_angle_gamma 89.741138
loop_
_atom_site_label
_atom_site_type_symbol
_atom_site_fract_x
_atom_site_fract_y
_atom_site_fract_z
_atom_type_partial_charge
H0 H 0.87522 0.57393 0.18854 0.0
H1 H 0.76213 0.5929 0.10555 0.0
H2 H 0.79325 0.56719 0.47717 0.0
H3 H 0.71123 0.52629 0.33888 0.0
C4 C 0.71565 0.54529 0.26179 0.0
O5 O 0.73508 0.576 0.31161 0.0
H6 H 0.73292 0.52948 0.19245 0.0
C7 C 0.84718 0.57841 0.22169 0.0
C8 C 0.83922 0.5746 0.34805 0.0
C9 C 0.8188 0.58343 0.13546 0.0
C10 C 0.78295 0.58938 0.1751 0.0
C11 C 0.77238 0.58059 0.29353 0.0
C12 C 0.8008 0.57356 0.38333 0.0
H13 H 0.95914 0.87391 0.30885 0.0
H14 H 0.96483 0.76303 0.14705 0.0
H15 H 0.05008 0.80238 0.39414 0.0
H16 H 0.07122 0.74504 0.11441 0.0
C17 C 0.04172 0.73671 0.11575 0.0
O18 O 1.02726 0.74574 0.23428 0.0
H19 H 1.02791 0.7535 0.04473 0.0
C20 C 0.97233 0.84701 0.29942 0.0
C21 C 1.00413 0.84102 0.37155 0.0
C22 C 0.96006 0.82068 0.20702 0.0
C23 C 0.97575 0.78508 0.20671 0.0
C24 C 1.0096 0.77883 0.2638 0.0
C25 C 1.02423 0.80714 0.3469 0.0
H26 H 0.70346 1.02112 0.20923 0.0
H27 H 0.81941 1.00337 0.15968 0.0
H28 H 0.77757 0.03816 0.51959 0.0
H29 H 0.87148 0.06872 0.42816 0.0
C30 C 0.86132 0.05513 0.34056 0.0
O31 O 0.83998 1.02475 0.3743 0.0
H32 H 0.84353 0.07604 0.29608 0.0
C33 C 0.73068 1.01878 0.25025 0.0
C34 C 0.73518 1.0272 0.37805 0.0
C35 C 0.76131 1.01091 0.17256 0.0
C36 C 0.79645 1.00883 0.22189 0.0
C37 C 0.8034 1.02047 0.34316 0.0
C38 C 0.77256 1.02924 0.42411 0.0
H39 H 0.63065 0.73317 0.38063 0.0
H40 H 0.61312 0.83558 0.20647 0.0
H41 H 0.54429 0.80682 0.51309 0.0
H42 H 0.50796 0.86622 0.28138 0.0
C43 C 0.53682 0.86573 0.24628 0.0
O44 O 0.56013 0.85934 0.34669 0.0
H45 H 0.53866 0.84252 0.17539 0.0
C46 C 0.61667 0.75952 0.37939 0.0
C47 C 0.5871 0.766 0.46229 0.0
C48 C 0.62541 0.78374 0.28433 0.0
C49 C 0.60728 0.81767 0.2817 0.0
C50 C 0.57806 0.82638 0.36214 0.0
C51 C 0.56734 0.80025 0.45209 0.0
H52 H 0.23544 0.46081 0.14896 0.0
H53 H 0.33933 0.47668 0.33113 0.0
H54 H 0.30018 0.55734 0.0776 0.0
H55 H 0.34349 0.54317 0.42332 0.0
C56 C 0.36195 0.55508 0.35275 0.0
O57 O 0.35577 0.53813 0.23548 0.0
H58 H 0.35354 0.58462 0.34945 0.0
C59 C 0.26032 0.47674 0.16137 0.0
C60 C 0.264 0.50947 0.09574 0.0
C61 C 0.28561 0.46651 0.25358 0.0
C62 C 0.31899 0.48537 0.2644 0.0
C63 C 0.3242 0.51873 0.20603 0.0
C64 C 0.29624 0.53144 0.12275 0.0
H65 H 0.04738 0.204 0.26024 0.0
H66 H 0.06673 0.31552 0.39112 0.0
H67 H 0.06983 0.28846 0.99857 0.0
H68 H 1.01829 0.35273 0.24478 0.0
C69 C 0.04165 0.36802 0.20373 0.0
O70 O 0.07198 0.34433 0.18157 0.0
H71 H 1.03174 0.3769 0.11199 0.0
C72 C 0.05577 0.23195 0.24026 0.0
C73 C 0.06163 0.24123 0.11647 0.0
C74 C 0.0568 0.25897 0.33741 0.0
C75 C 0.06695 0.29502 0.31495 0.0
C76 C 0.07001 0.30674 0.19453 0.0
C77 C 0.06775 0.27967 0.09307 0.0
H78 H 0.37854 0.1303 0.20251 0.0
H79 H 0.26916 0.13235 0.35996 0.0
H80 H 0.29547 0.05652 0.05551 0.0
H81 H 0.24763 0.05789 0.3837 0.0
C82 C 0.2277 0.05936 0.30538 0.0
O83 O 0.24133 0.0827 0.21531 0.0
H84 H 0.22651 1.03081 0.26337 0.0
C85 C 0.35057 0.12037 0.20467 0.0
C86 C 0.34087 0.09254 0.11596 0.0
C87 C 0.32635 0.13252 0.3019 0.0
C88 C 0.2892 0.12159 0.29352 0.0
C89 C 0.27763 0.09386 0.20854 0.0
C90 C 0.3039 0.07846 0.12054 0.0
H91 H 0.46139 0.3848 0.17636 0.0
H92 H 0.45435 0.27665 0.32719 0.0
H93 H 0.52711 0.29553 1.02124 0.0
H94 H 0.53664 0.25367 0.33908 0.0
C95 C 0.53076 0.2325 0.26387 0.0
O96 O 0.50351 0.24539 0.18459 0.0
H97 H 0.55673 0.22894 0.20969 0.0
C98 C 0.46883 0.35575 0.17587 0.0
C99 C 0.4938 0.343 0.08416 0.0
C100 C 0.4563 0.33306 0.27101 0.0
C101 C 0.46607 0.29537 0.26304 0.0
C102 C 0.49277 0.28176 0.17865 0.0
C103 C 0.50694 0.30583 0.08839 0.0
Gd104 Gd 1.00027 0.05155 0.66827 0.0
Gd105 Gd 0.0711 1.02432 0.8696 0.0
C106 C 0.12971 0.11553 0.10402 0.0
C107 C 0.19139 0.11469 1.01568 0.0
C108 C 0.1448 0.07148 0.93673 0.0
C109 C 0.11936 0.08659 1.01913 0.0
C110 C 0.18155 0.08443 0.93706 0.0
C111 C 0.16552 0.13017 0.0994 0.0
C112 C 0.10406 0.1282 0.19306 0.0
C113 C 0.06987 0.11085 0.19961 0.0
N114 N 0.08514 0.0715 1.02152 0.0
C115 C 0.06123 0.08195 0.11449 0.0
H116 H 0.03577 0.06765 0.12597 0.0
C117 C 0.16011 1.02323 0.79148 0.0
N118 N 0.13421 0.04248 0.86171 0.0
C119 C 0.19685 0.03497 0.78876 0.0
C120 C 0.20758 0.0659 0.8612 0.0
H121 H 0.15199 0.99936 0.73436 0.0
H122 H 0.1738 0.15267 0.16268 0.0
H123 H 0.06428 1.00876 0.4613 0.0
H124 H 0.11088 0.15033 0.2598 0.0
H125 H 0.05038 0.11925 0.27164 0.0
H126 H 0.21926 0.12553 1.01522 0.0
H127 H 0.92618 1.01745 0.8292 0.0
H128 H 1.00365 0.9537 0.17669 0.0
H129 H 0.06267 0.97767 0.25978 0.0
H130 H 0.88589 0.93818 0.36387 0.0
H131 H 0.21686 1.02014 0.73081 0.0
H132 H 0.23612 0.07476 0.85989 0.0
H133 H 0.93736 0.9404 0.21663 0.0
H134 H 0.87085 0.98221 0.78432 0.0
N135 N 1.00609 1.01107 0.48761 0.0
C136 C 1.00394 0.96967 0.26347 0.0
C137 C 0.03711 0.98377 0.30832 0.0
C138 C 0.97254 0.97287 0.33816 0.0
C139 C 0.97464 0.9934 0.45199 0.0
C140 C 0.03776 1.00362 0.42161 0.0
N141 N 0.9512 1.00778 0.65113 0.0
C142 C 0.94619 0.99176 0.53649 0.0
C143 C 0.89192 0.98435 0.71372 0.0
C144 C 0.88639 0.9684 0.59593 0.0
C145 C 0.92443 1.00382 0.73983 0.0
C146 C 0.91395 0.97127 0.50651 0.0
H147 H 0.8612 0.95321 0.57591 0.0
O148 O 0.94616 0.07505 0.70147 0.0
O149 O 0.0344 0.07221 0.831 0.0
O150 O 1.01643 1.02156 0.9816 0.0
O151 O 0.97624 0.05581 0.86498 0.0
O152 O 1.02924 0.10733 0.68718 0.0
O153 O 0.97452 0.08627 0.53165 0.0
O154 O 0.10822 0.97946 0.91519 0.0
O155 O 1.02646 1.0005 0.7422 0.0
O156 O 0.05328 0.06543 0.55882 0.0
O157 O 0.09881 0.05069 0.7023 0.0
O158 O 0.07955 0.98079 0.71486 0.0
O159 O 0.06124 0.99199 0.03121 0.0
C160 C 0.04353 0.1044 0.79616 0.0
C161 C 0.91064 0.9534 0.38958 0.0
C162 C 0.94 0.95419 0.30607 0.0
C163 C 0.94612 0.09425 0.60298 0.0
C164 C 0.93684 0.13334 0.62907 0.0
C165 C 0.90378 0.14313 0.69058 0.0
C166 C 0.96306 0.16049 0.60926 0.0
C167 C 0.95777 0.19696 0.65493 0.0
C168 C 0.89776 0.1797 0.73377 0.0
C169 C 0.92479 0.2066 0.71706 0.0
C170 C 0.98395 0.03826 0.96729 0.0
C171 C 0.04579 0.97601 0.6818 0.0
C172 C 0.0871 0.96811 1.00236 0.0
C173 C 0.07643 0.92898 0.98865 0.0
C174 C 0.10357 0.90162 0.99997 0.0
C175 C 0.04002 0.91871 0.95762 0.0
C176 C 1.03009 0.88109 0.94537 0.0
C177 C 0.09446 0.86436 0.98283 0.0
C178 C 0.05808 0.85408 0.95732 0.0
C179 C 0.08878 0.06261 0.59215 0.0
H180 H 0.8832 0.12231 0.70828 0.0
H181 H 0.98794 0.15314 0.55789 0.0
H182 H 0.8724 0.18705 0.78212 0.0
H183 H 0.91998 0.23468 0.75242 0.0
H184 H 0.13187 0.90912 1.02161 0.0
H185 H 1.01933 0.94003 0.94619 0.0
H186 H 0.11548 0.84329 0.99284 0.0
H187 H 0.05184 0.82479 0.95375 0.0
Gd188 Gd 0.52263 1.01218 0.6455 0.0
Gd189 Gd 0.5492 0.08891 0.84567 0.0
C190 C 0.46405 0.14378 0.10918 0.0
C191 C 0.45557 0.20361 1.01892 0.0
C192 C 0.50086 0.15978 0.93229 0.0
C193 C 0.49097 0.1342 1.01856 0.0
C194 C 0.48431 0.19529 0.935 0.0
C195 C 0.44572 0.17805 0.10678 0.0
C196 C 0.45695 0.11908 0.20191 0.0
C197 C 0.47706 0.08649 0.2068 0.0
N198 N 0.50904 0.10101 1.0188 0.0
C199 C 0.50376 0.07831 0.11679 0.0
H200 H 0.51991 0.05395 0.13167 0.0
C201 C 0.54254 0.17717 0.77624 0.0
N202 N 0.52799 0.15077 0.8499 0.0
C203 C 0.52757 0.2129 0.7777 0.0
C204 C 0.49783 0.22179 0.8558 0.0
H205 H 0.56504 0.17009 0.71353 0.0
H206 H 0.42463 0.18549 0.17467 0.0
H207 H 0.56069 0.04194 0.37988 0.0
H208 H 0.43734 0.12572 0.2737 0.0
H209 H 0.47271 0.06805 0.28213 0.0
H210 H 0.4419 0.23038 1.02021 0.0
H211 H 0.50123 0.93282 0.78662 0.0
H212 H 0.6235 0.92708 0.07942 0.0
H213 H 0.59687 1.02048 0.21687 0.0
H214 H 0.64134 0.87536 0.57347 0.0
H215 H 0.53862 0.23334 0.7173 0.0
H216 H 0.48602 0.2494 0.85631 0.0
H217 H 0.6598 0.91339 0.40678 0.0
H218 H 0.5313 0.87259 0.82348 0.0
N219 N 0.56552 0.99437 0.48769 0.0
C220 C 0.60906 0.96316 0.28164 0.0
C221 C 0.59499 1.00133 0.29131 0.0
C222 C 0.6098 0.94884 0.40971 0.0
C223 C 0.58312 0.96173 0.49825 0.0
C224 C 0.57286 1.01501 0.38863 0.0
N225 N 0.54341 0.95054 0.66482 0.0
C226 C 0.57312 0.94011 0.5956 0.0
C227 C 0.54365 0.89154 0.76036 0.0
C228 C 0.57727 0.88277 0.70257 0.0
C229 C 0.52657 0.92547 0.73853 0.0
C230 C 0.59183 0.90686 0.61682 0.0
H231 H 0.59095 0.85681 0.72092 0.0
O232 O 0.47747 0.97421 0.60941 0.0
O233 O 0.50003 0.05789 0.77401 0.0
O234 O 0.54634 0.03622 0.95569 0.0
O235 O 0.55453 0.98936 0.80741 0.0
O236 O 0.47795 1.0066 0.7939 0.0
O237 O 0.49052 1.01548 0.47635 0.0
O238 O 0.58647 0.13145 0.91929 0.0
O239 O 0.57164 0.04542 0.7079 0.0
O240 O 0.52257 0.06598 0.53472 0.0
O241 O 0.51732 0.11267 0.68682 0.0
O242 O 0.58762 0.09885 0.68251 0.0
O243 O 0.59792 0.0739 0.94996 0.0
C244 C 0.47551 0.04058 0.83357 0.0
C245 C 0.6244 0.89906 0.55184 0.0
C246 C 0.63428 0.9209 0.45303 0.0
C247 C 0.46645 0.99139 0.51279 0.0
C248 C 0.42802 1.00379 0.51994 0.0
C249 C 0.3994 0.97821 0.50251 0.0
C250 C 0.41987 0.04079 0.5538 0.0
C251 C 0.38318 0.05318 0.56151 0.0
C252 C 0.36278 0.98979 0.51604 0.0
C253 C 0.35461 1.02702 0.54378 0.0
C254 C 0.55324 1.00115 0.9246 0.0
C255 C 0.59289 0.0651 0.64285 0.0
C256 C 0.61162 0.10712 0.94393 0.0
C257 C 0.64692 0.10969 0.87571 0.0
C258 C 0.65423 0.13888 0.7965 0.0
C259 C 0.67152 0.07989 0.87715 0.0
C260 C 0.70283 0.07833 0.80022 0.0
C261 C 0.68539 0.13756 0.71953 0.0
C262 C 0.70974 0.10744 0.72135 0.0
C263 C 0.51664 0.10129 0.56919 0.0
H264 H 0.40541 0.94934 0.47937 0.0
H265 H 0.44224 0.06013 0.57093 0.0
H266 H 0.34062 0.97007 0.5016 0.0
H267 H 0.32586 0.03541 0.54471 0.0
H268 H 0.63547 0.1622 0.7915 0.0
H269 H 0.66666 0.05811 0.94154 0.0
H270 H 0.69074 0.16001 0.65858 0.0
H271 H 0.7344 0.10731 0.66437 0.0
Gd272 Gd 0.50701 0.56598 0.87627 0.0
Gd273 Gd 0.58223 0.53673 0.67438 0.0
C274 C 0.70322 0.54254 0.79867 0.0
C275 C 0.72768 0.58987 0.66788 0.0
C276 C 0.66317 0.57166 0.65158 0.0
C277 C 0.668 0.54716 0.74502 0.0
C278 C 0.69317 0.59258 0.60959 0.0
C279 C 0.73276 0.5647 0.76181 0.0
C280 C 0.70788 0.51522 0.8855 0.0
C281 C 0.67822 0.49264 0.91415 0.0
N282 N 0.6388 0.52627 0.77829 0.0
C283 C 0.64391 0.49821 0.85828 0.0
H284 H 0.62152 0.48031 0.8819 0.0
C285 C 0.62655 0.58907 0.48319 0.0
N286 N 0.62994 0.57255 0.59408 0.0
C287 C 0.65523 0.61065 0.43871 0.0
C288 C 0.68816 0.61376 0.50526 0.0
H289 H 0.60168 0.58522 0.42963 0.0
H290 H 0.75983 0.562 0.80312 0.0
H291 H 0.4585 0.62527 0.70803 0.0
H292 H 0.73434 0.51077 0.92895 0.0
H293 H 0.68171 0.47098 0.97965 0.0
H294 H 0.75096 0.60596 0.63755 0.0
H295 H 0.49852 0.50799 0.11453 0.0
H296 H 0.34712 0.58755 0.6782 0.0
H297 H 0.39551 0.63264 0.6271 0.0
H298 H 0.34402 0.48695 0.95394 0.0
H299 H 0.65251 0.62375 0.35124 0.0
H300 H 0.71043 0.63033 0.47015 0.0
H301 H 0.32821 0.53346 0.80251 0.0
H302 H 0.45218 0.46645 0.19865 0.0
N303 N 0.44693 0.5758 0.79933 0.0
C304 C 0.37489 0.58419 0.71369 0.0
C305 C 0.40209 0.60969 0.68482 0.0
C306 C 0.3835 0.55566 0.79275 0.0
C307 C 0.42009 0.55255 0.83618 0.0
C308 C 0.43798 0.60531 0.73023 0.0
N309 N 0.46314 0.5281 0.97348 0.0
C310 C 0.42852 0.52774 0.92592 0.0
C311 C 0.44516 0.48343 0.12162 0.0
C312 C 0.41 0.48145 0.06924 0.0
C313 C 0.47137 0.5073 0.07359 0.0
C314 C 0.40106 0.50426 0.97174 0.0
H315 H 0.3897 0.46301 0.10686 0.0
O316 O 0.49496 0.58706 0.06197 0.0
O317 O 0.56876 0.56056 0.86296 0.0
O318 O 0.5627 0.48828 0.79151 0.0
O319 O 0.50224 0.5036 0.84237 0.0
O320 O 0.545 0.54524 1.02542 0.0
O321 O 0.50652 0.62538 0.91697 0.0
O322 O 0.58227 0.51577 0.48281 0.0
O323 O 0.52073 0.54071 0.69308 0.0
O324 O 0.52298 0.61282 0.74346 0.0
O325 O 0.58421 0.59988 0.69044 0.0
O326 O 0.54136 0.55419 0.52405 0.0
O327 O 0.60732 0.48378 0.62623 0.0
C328 C 0.57601 0.54898 0.97023 0.0
C329 C 0.36532 0.50523 0.92175 0.0
C330 C 0.35641 0.53134 0.83406 0.0
C331 C 0.50554 0.6203 0.03591 0.0
C332 C 0.53651 0.63511 0.1109 0.0
C333 C 0.53905 0.62533 0.23461 0.0
C334 C 0.56456 0.65696 0.06048 0.0
C335 C 0.5937 0.67034 0.13614 0.0
C336 C 0.56596 0.64056 0.31162 0.0
C337 C 0.59309 0.6628 0.26329 0.0
C338 C 0.52952 0.47909 0.83289 0.0
C339 C 0.51123 0.5507 0.58639 0.0
C340 C 0.59748 0.48447 0.5105 0.0
C341 C 0.57899 0.45118 0.46392 0.0
C342 C 0.59788 0.42665 0.38233 0.0
C343 C 0.54367 0.44243 0.50769 0.0
C344 C 0.52797 0.40835 0.47332 0.0
C345 C 0.58187 0.393 0.34562 0.0
C346 C 0.54723 0.38374 0.39125 0.0
C347 C 0.5559 0.62344 0.70085 0.0
H348 H 0.52013 0.60565 0.27131 0.0
H349 H 0.5636 0.66384 0.96371 0.0
H350 H 0.56556 0.6353 0.40934 0.0
H351 H 0.61297 0.67484 0.32728 0.0
H352 H 0.62515 0.43334 0.34848 0.0
H353 H 0.5288 0.46171 0.56915 0.0
H354 H 0.59636 0.37398 0.28237 0.0
H355 H 0.53517 0.35753 0.36079 0.0
Gd356 Gd 0.03544 0.50822 0.81329 0.0
Gd357 Gd 0.06947 0.57827 0.61594 0.0
C358 C 0.0583 0.70407 0.68427 0.0
C359 C 1.01401 0.7205 0.5266 0.0
C360 C 0.03477 0.65669 0.54113 0.0
C361 C 0.05616 0.66657 0.64253 0.0
C362 C 1.01389 0.68363 0.48037 0.0
C363 C 0.03671 0.73083 0.62691 0.0
C364 C 0.08288 0.71373 0.77988 0.0
C365 C 0.10541 0.6865 0.8284 0.0
N366 N 0.07675 0.63995 0.69528 0.0
C367 C 0.10234 0.64976 0.78356 0.0
H368 H 0.12016 0.62952 0.82212 0.0
C369 C 1.01869 0.61098 0.38845 0.0
N370 N 0.03592 0.621 0.49786 0.0
C371 C 0.9974 0.63659 0.32554 0.0
C372 C 0.99446 0.67296 0.37282 0.0
H373 H 1.02026 0.58291 0.35094 0.0
H374 H 0.03801 0.75971 0.65767 0.0
H375 H 0.98648 0.45612 0.60634 0.0
H376 H 0.08523 0.74216 0.81491 0.0
H377 H 0.1251 0.69371 0.9008 0.0
H378 H 0.99743 0.7414 0.48347 0.0
H379 H 0.07341 0.50141 0.09494 0.0
H380 H 1.02865 0.34567 0.60092 0.0
H381 H 0.98433 0.39177 0.52481 0.0
H382 H 0.11412 0.34844 0.93765 0.0
H383 H 0.98326 0.62821 0.24064 0.0
H384 H 0.97803 0.69278 0.32369 0.0
H385 H 0.07827 0.33018 0.75206 0.0
H386 H 0.10677 0.45475 0.2118 0.0
N387 N 0.03314 0.44799 0.72124 0.0
C388 C 1.02998 0.37416 0.63612 0.0
C389 C 1.0049 0.40006 0.5931 0.0
C390 C 0.05503 0.38489 0.72932 0.0
C391 C 0.05555 0.42238 0.77239 0.0
C392 C 1.00643 0.4368 0.63882 0.0
N393 N 0.0705 0.46729 0.92971 0.0
C394 C 0.07529 0.43251 0.8787 0.0
C395 C 0.10025 0.44911 0.11564 0.0
C396 C 0.10963 0.41501 0.05924 0.0
C397 C 0.08058 0.47514 0.04984 0.0
C398 C 0.09563 0.40561 0.94156 0.0
H399 H 0.12479 0.395 0.11176 0.0
O400 O 0.98423 0.52604 0.90165 0.0
O401 O 0.04063 0.56932 0.79337 0.0
O402 O 0.11325 0.56687 0.76786 0.0
O403 O 0.09838 0.50892 0.83893 0.0
O404 O 0.04804 0.55154 0.96988 0.0
O405 O 1.00242 0.46955 0.91553 0.0
O406 O 0.09619 0.58619 0.44006 0.0
O407 O 0.06239 0.51657 0.63125 0.0
O408 O 0.99207 0.52032 0.66084 0.0
O409 O 1.00605 0.58053 0.61185 0.0
O410 O 0.05433 0.53719 0.4594 0.0
O411 O 0.12942 0.57683 0.60256 0.0
C412 C 0.04717 0.5808 0.90428 0.0
C413 C 0.0983 0.36929 0.89107 0.0
C414 C 0.07781 0.35886 0.78555 0.0
C415 C 0.97474 0.49229 0.92489 0.0
C416 C 0.93969 0.47937 0.86932 0.0
C417 C 0.93438 0.44265 0.82476 0.0
C418 C 0.91176 0.50527 0.85371 0.0
C419 C 0.87869 0.49574 0.79302 0.0
C420 C 0.90165 0.43275 0.76318 0.0
C421 C 0.87373 0.45909 0.74792 0.0
C422 C 0.12223 0.53641 0.82738 0.0
C423 C 0.05479 0.5072 0.51885 0.0
C424 C 0.12836 0.57636 0.48186 0.0
C425 C 0.14557 0.54441 0.4147 0.0
C426 C 0.14374 0.54282 0.28524 0.0
C427 C 0.16092 0.5142 0.47658 0.0
C428 C 0.17491 0.48302 0.40821 0.0
C429 C 0.15532 0.51158 0.21831 0.0
C430 C 0.1702 0.48183 0.27839 0.0
C431 C 0.98254 0.55232 0.61141 0.0
H432 H 0.95546 0.42173 0.83648 0.0
H433 H 0.91538 0.53286 0.89515 0.0
H434 H 0.89769 0.40447 0.72898 0.0
H435 H 0.84792 0.45067 0.70482 0.0
H436 H 0.13203 0.56511 0.23529 0.0
H437 H 0.16238 0.51515 0.57682 0.0
H438 H 0.15201 0.51003 0.11922 0.0
H439 H 0.17848 0.45814 0.22073 0.0
C440 C 0.15683 0.05196 0.31492 0.0
C441 C 0.18904 0.06987 0.35989 0.0
C442 C 0.12311 0.05301 0.38268 0.0
C443 C 0.12006 0.07075 0.502 0.0
H444 H 0.15812 0.03539 0.22906 0.0
H445 H 0.10015 0.03821 0.34188 0.0
S446 S 0.19186 0.13177 0.64315 0.0
N447 N 0.21217 0.11363 0.51737 0.0
N448 N 0.15012 0.1137 0.64652 0.0
C449 C 0.15079 0.09196 0.54099 0.0
C450 C 0.18473 0.09195 0.47011 0.0
C451 C 0.54193 0.16321 0.29996 0.0
C452 C 0.52092 0.19582 0.32501 0.0
C453 C 0.53866 0.1316 0.3732 0.0
C454 C 0.51425 0.13107 0.47525 0.0
H455 H 0.56238 0.16266 0.22655 0.0
H456 H 0.55681 0.10823 0.35348 0.0
S457 S 0.45045 0.20745 0.57367 0.0
N458 N 0.47296 0.22379 0.45478 0.0
N459 N 0.46695 0.16532 0.591 0.0
C460 C 0.49191 0.16271 0.49701 0.0
C461 C 0.49509 0.19465 0.42236 0.0
C462 C 0.41398 0.52154 0.46968 0.0
C463 C 0.40218 0.55191 0.4002 0.0
C464 C 0.44859 0.52146 0.5324 0.0
C465 C 0.47309 0.55174 0.52869 0.0
H466 H 0.39579 0.49809 0.47879 0.0
H467 H 0.45622 0.49747 0.58397 0.0
S468 S 0.45401 0.63933 0.37136 0.0
N469 N 0.41782 0.6134 0.33667 0.0
N470 N 0.48127 0.61379 0.45661 0.0
C471 C 0.4616 0.58197 0.45927 0.0
C472 C 0.42668 0.58195 0.39503 0.0
C473 C 1.02348 0.43307 0.2786 0.0
C474 C 0.04832 0.40306 0.28896 0.0
C475 C 1.02579 0.46559 0.35506 0.0
C476 C 0.05234 0.46994 0.45004 0.0
H477 H 1.00189 0.43152 0.20909 0.0
H478 H 1.00618 0.48772 0.33985 0.0
S479 S 0.12421 0.4003 0.5208 0.0
N480 N 0.10073 0.38027 0.40533 0.0
N481 N 0.10506 0.44145 0.54805 0.0
C482 C 0.07757 0.44037 0.4626 0.0
C483 C 0.0753 0.40691 0.38371 0.0
C484 C 0.89887 1.01591 0.17102 0.0
C485 C 0.89509 0.04728 0.25301 0.0
C486 C 0.92853 1.01224 0.08402 0.0
C487 C 0.9555 0.04013 0.07172 0.0
H488 H 0.87932 0.99354 0.17467 0.0
H489 H 0.92995 0.98745 1.02435 0.0
S490 S 0.95812 0.12831 0.26116 0.0
N491 N 0.9216 0.10677 0.31386 0.0
N492 N 0.97538 0.10065 0.14999 0.0
C493 C 0.95181 0.0716 0.15246 0.0
C494 C 0.92225 0.07497 0.24218 0.0
C495 C 0.51561 0.92018 0.11638 0.0
C496 C 0.54448 0.90192 0.18012 0.0
C497 C 0.51923 0.95226 0.04227 0.0
C498 C 0.5521 0.97259 1.02208 0.0
H499 H 0.48824 0.90832 0.1207 0.0
H500 H 0.49442 0.96129 0.99608 0.0
S501 S 0.66494 0.9425 0.18748 0.0
N502 N 0.61996 0.90348 0.22521 0.0
N503 N 0.62665 0.97768 0.08856 0.0
C504 C 0.58297 0.96058 0.0852 0.0
C505 C 0.57913 0.91739 0.16761 0.0
C506 C 0.64845 0.52858 0.21816 0.0
C507 C 0.67799 0.55308 0.19755 0.0
C508 C 0.61604 0.52811 0.14525 0.0
C509 C 0.61128 0.5516 0.04505 0.0
H510 H 0.65085 0.50838 0.28928 0.0
H511 H 0.59486 0.5081 0.16533 0.0
S512 S 0.67715 0.62395 0.95522 0.0
N513 N 0.69805 0.60358 0.07063 0.0
N514 N 0.6369 0.60314 0.93774 0.0
C515 C 0.63924 0.57772 0.02681 0.0
C516 C 0.6726 0.57816 0.10098 0.0
C517 C 1.01599 0.68285 0.97434 0.0
C518 C 0.039 0.69513 0.07406 0.0
C519 C 1.01862 0.64635 0.91943 0.0
C520 C 0.04444 0.62012 0.9612 0.0
H521 H 0.99663 0.70204 0.93512 0.0
H522 H 1.00056 0.6388 0.84259 0.0
S523 S 0.11066 0.63825 0.21936 0.0
N524 N 0.08787 0.67762 0.21174 0.0
N525 N 0.09263 0.60974 0.11215 0.0
C526 C 0.06647 0.63183 0.06363 0.0
C527 C 0.06389 0.66893 0.11855 0.0
C528 C 0.04787 0.22736 0.536 0.0
C529 C 0.03582 0.25291 0.4507 0.0
C530 C 1.02321 0.21415 0.6234 0.0
C531 C 0.98555 0.22453 0.62153 0.0
H532 H 0.0754 0.21555 0.52896 0.0
H533 H 1.03235 0.19192 0.68057 0.0
S534 S 0.94365 0.29752 0.43459 0.0
N535 N 0.98687 0.29429 0.38659 0.0
N536 N 0.93978 0.26746 0.54509 0.0
C537 C 0.97486 0.25396 0.54867 0.0
C538 C 1.00021 0.26828 0.46279 0.0
C539 C 0.38021 0.14755 0.43467 0.0
C540 C 0.34147 0.14809 0.42434 0.0
C541 C 0.39667 0.11725 0.49162 0.0
C542 C 0.37467 0.09345 0.56125 0.0
H543 H 0.39668 0.16393 0.374 0.0
H544 H 0.42517 0.11068 0.47081 0.0
S545 S 0.28486 0.12273 0.69405 0.0
N546 N 0.29076 0.14947 0.5745 0.0
N547 N 0.32098 0.09469 0.69665 0.0
C548 C 0.34014 0.10734 0.59903 0.0
C549 C 0.32389 0.1365 0.53283 0.0
C550 C 0.43443 0.38904 0.39074 0.0
C551 C 0.44171 0.35056 0.3911 0.0
C552 C 0.461 0.41327 0.44331 0.0
C553 C 0.49033 0.39865 0.51182 0.0
H554 H 0.41588 0.39982 0.32197 0.0
H555 H 0.46229 0.44133 0.41189 0.0
S556 S 0.49077 0.30669 0.64849 0.0
N557 N 0.45837 0.30416 0.5405 0.0
N558 N 0.50724 0.34925 0.64698 0.0
C559 C 0.48524 0.3635 0.55868 0.0
C560 C 0.45932 0.3392 0.49993 0.0
C561 C 0.24435 0.41884 0.33785 0.0
C562 C 0.27143 0.44611 0.36127 0.0
C563 C 0.20928 0.42329 0.39269 0.0
C564 C 0.20141 0.45625 0.46333 0.0
H565 H 0.24718 0.39972 0.25841 0.0
H566 H 0.18692 0.40713 0.35208 0.0
S567 S 0.27168 0.5115 0.63453 0.0
N568 N 0.29489 0.48845 0.5243 0.0
N569 N 0.22849 0.49756 0.62149 0.0
C570 C 0.23173 0.47218 0.52583 0.0
C571 C 0.26756 0.46719 0.47334 0.0
C572 C 0.93653 0.87133 0.0823 0.0
C573 C 0.94024 0.83283 0.09148 0.0
C574 C 0.96446 0.89017 1.01937 0.0
C575 C 0.99048 0.86966 0.9464 0.0
H576 H 0.91866 0.88636 0.14686 0.0
H577 H 0.9675 0.91956 0.03751 0.0
S578 S 0.97106 0.77499 0.8198 0.0
N579 N 0.94331 0.78049 0.94109 0.0
N580 N 0.99479 0.81387 0.81169 0.0
C581 C 0.97982 0.8335 0.90931 0.0
C582 C 0.9523 0.81555 0.97905 0.0
C583 C 0.77574 0.04959 0.99648 0.0
C584 C 0.75895 1.01745 0.03956 0.0
C585 C 0.76269 0.06584 0.88992 0.0
C586 C 0.73157 0.05107 0.82885 0.0
H587 H 0.7956 0.06483 0.05347 0.0
H588 H 0.7723 0.09341 0.87085 0.0
S589 S 0.69183 0.95796 0.87048 0.0
N590 N 0.72117 0.96401 0.9867 0.0
N591 N 0.69454 0.99581 0.79033 0.0
C592 C 0.72105 1.01469 0.85439 0.0
C593 C 0.73478 0.99782 0.96149 0.0
C594 C 0.61881 0.76476 0.06828 0.0
C595 C 0.64356 0.76853 0.16884 0.0
C596 C 0.6056 0.72938 0.03446 0.0
C597 C 0.62023 0.6983 0.09244 0.0
H598 H 0.60247 0.78827 0.04085 0.0
H599 H 0.58017 0.7275 0.98184 0.0
S600 S 0.70787 0.69686 0.27036 0.0
N601 N 0.69839 0.74126 0.256 0.0
N602 N 0.67485 0.67408 0.19475 0.0
C603 C 0.65506 0.70259 0.15002 0.0
C604 C 0.66793 0.73882 0.18271 0.0
C605 C 0.80802 0.53095 0.98921 0.0
C606 C 0.8226 0.56665 1.0108 0.0
C607 C 0.81929 0.50908 0.88692 0.0
C608 C 0.84739 0.52173 0.81007 0.0
H609 H 0.79084 0.51849 0.05835 0.0
H610 H 0.81152 0.48012 0.88393 0.0
S611 S 0.88196 0.61793 0.80082 0.0
N612 N 0.85653 0.61763 0.92792 0.0
N613 N 0.87836 0.57601 0.73497 0.0
C614 C 0.85483 0.56007 0.81431 0.0
C615 C 0.84352 0.58242 0.91884 0.0
C616 C 0.08701 0.19159 0.96056 0.0
C617 C 0.05658 0.21008 1.01804 0.0
C618 C 0.08286 0.15754 0.8902 0.0
C619 C 0.04845 0.13921 0.87874 0.0
H620 H 0.11445 0.20296 0.97286 0.0
H621 H 0.10704 0.14511 0.8463 0.0
S622 S 0.9593 0.17856 0.99338 0.0
N623 N 0.99016 0.20894 0.04514 0.0
N624 N 0.98271 0.14557 0.91692 0.0
C625 C 1.01774 0.15836 0.93062 0.0
C626 C 1.02178 0.19321 0.99976 0.0
C627 C 0.38921 0.04331 0.04904 0.0
C628 C 0.37179 0.07768 0.02971 0.0
C629 C 0.4225 1.03233 0.98671 0.0
C630 C 0.44095 0.05519 0.90257 0.0
H631 H 0.37767 1.02512 0.11628 0.0
H632 H 0.43433 1.00562 1.00649 0.0
S633 S 0.40571 0.14695 0.81155 0.0
N634 N 0.37546 0.13402 0.91578 0.0
N635 N 0.43647 0.11308 0.79695 0.0
C636 C 0.42318 0.08914 0.87958 0.0
C637 C 0.38938 0.10042 0.94368 0.0
C638 C 0.54164 0.38694 0.99854 0.0
C639 C 0.50604 0.37115 0.99237 0.0
C640 C 0.54983 0.42063 0.94071 0.0
C641 C 0.5226 0.44041 0.87605 0.0
H642 H 0.56266 0.37448 0.05506 0.0
H643 H 0.57709 0.43238 0.95344 0.0
S644 S 0.42632 0.40893 0.82043 0.0
N645 N 0.44446 0.37658 0.90597 0.0
N646 N 0.45951 0.4393 0.80005 0.0
C647 C 0.48759 0.42378 0.86375 0.0
C648 C 0.47946 0.38947 0.92094 0.0
C649 C 0.21304 0.49146 0.93933 0.0
C650 C 0.23173 0.51969 1.00989 0.0
C651 C 0.17868 0.49741 0.87966 0.0
C652 C 0.16087 0.53229 0.88327 0.0
H653 H 0.22449 0.46371 0.93338 0.0
H654 H 0.1656 0.47407 0.8315 0.0
S655 S 0.1979 0.61679 0.04731 0.0
N656 N 0.22923 0.58475 0.07477 0.0
N657 N 0.16611 0.59623 0.95934 0.0
C658 C 0.18008 0.56141 0.94703 0.0
C659 C 0.21493 0.55513 1.01035 0.0
C660 C 0.05022 0.89092 0.44919 0.0
C661 C 1.01624 0.87248 0.46224 0.0
C662 C 0.05898 0.92367 0.52095 0.0
C663 C 0.0341 0.94065 0.60824 0.0
H664 H 0.06981 0.88067 0.37996 0.0
H665 H 0.08543 0.93656 0.50494 0.0
S666 S 0.94422 0.89974 0.6947 0.0
N667 N 0.95922 0.87181 0.58047 0.0
N668 N 0.97612 0.93198 0.71569 0.0
C669 C 1.00096 0.92124 0.62711 0.0
C670 C 0.99195 0.8879 0.5539 0.0
C671 C 0.68177 1.01177 0.52624 0.0
C672 C 0.70036 0.03759 0.45328 0.0
C673 C 0.64706 1.01997 0.58544 0.0
C674 C 0.62828 0.05397 0.57147 0.0
H675 H 0.6941 0.98474 0.53737 0.0
H676 H 0.63505 0.99958 0.64394 0.0
S677 S 0.66184 0.12919 0.37483 0.0
N678 N 0.69484 0.09754 0.36209 0.0
N679 N 0.63049 0.11242 0.46837 0.0
C680 C 0.64592 0.07924 0.49396 0.0
C681 C 0.68129 0.07114 0.43572 0.0
C682 C 0.6053 0.71108 0.59283 0.0
C683 C 0.57703 0.73417 0.54657 0.0
C684 C 0.59799 0.67649 0.64457 0.0
C685 C 0.56178 0.66289 0.65807 0.0
H686 H 0.63397 0.71908 0.58471 0.0
H687 H 0.62134 0.65992 0.67248 0.0
S688 S 0.47675 0.71525 0.57822 0.0
N689 N 0.51058 0.74205 0.53274 0.0
N690 N 0.49679 0.67886 0.63789 0.0
C691 C 0.53297 0.68719 0.6238 0.0
C692 C 0.54052 0.72218 0.5671 0.0
C693 C 0.89576 0.59817 0.46757 0.0
C694 C 0.87221 0.56836 0.43284 0.0
C695 C 0.93067 0.59272 0.52507 0.0
C696 C 0.94454 0.55703 0.55036 0.0
H697 H 0.8874 0.62615 0.44794 0.0
H698 H 0.94689 0.61698 0.5502 0.0
S699 S 0.89758 0.46917 0.45226 0.0
N700 N 0.86801 0.50157 0.41282 0.0
N701 N 0.93269 0.49116 0.51893 0.0
C702 C 0.92175 0.52693 0.5114 0.0
C703 C 0.88613 0.53259 0.45322 0.0
loop_
_geom_bond_atom_site_label_1
_geom_bond_atom_site_label_2
_geom_bond_distance
_geom_bond_site_symmetry_2
_ccdc_geom_bond_type
H0 C7 0.929 . S
H1 C10 0.930 . S
H2 C12 0.929 . S
H3 C4 0.969 . S
C4 H3 0.969 . S
C4 O5 1.550 . S
C4 H6 0.973 . S
O5 C4 1.550 . S
O5 C11 1.412 . S
H6 C4 0.973 . S
C7 H0 0.929 . S
C7 C8 1.400 . S
C7 C9 1.364 . S
C8 C7 1.400 . S
C8 C12 1.377 . S
C9 C7 1.364 . S
C9 C10 1.374 . S
C10 H1 0.930 . S
C10 C9 1.374 . S
C10 C11 1.383 . S
C11 O5 1.412 . S
C11 C10 1.383 . S
C11 C12 1.394 . S
C12 H2 0.929 . S
C12 C8 1.377 . S
C12 C11 1.394 . S
H13 C20 0.929 . S
H14 C23 0.930 . S
H15 C25 0.929 . S
H16 C17 0.969 . S
C17 H16 0.969 . S
C17 O18 1.550 . S
C17 H19 0.973 . S
O18 C17 1.550 . S
O18 C24 1.412 . S
H19 C17 0.973 . S
C20 H13 0.929 . S
C20 C21 1.400 . S
C20 C22 1.364 . S
C21 C20 1.400 . S
C21 C25 1.377 . S
C22 C20 1.364 . S
C22 C23 1.374 . S
C23 H14 0.930 . S
C23 C22 1.374 . S
C23 C24 1.383 . S
C24 O18 1.412 . S
C24 C23 1.383 . S
C24 C25 1.394 . S
C25 H15 0.929 . S
C25 C21 1.377 . S
C25 C24 1.394 . S
H26 C33 0.929 . S
H27 C36 0.930 . S
H28 C38 0.929 . S
H29 C30 0.972 . S
C30 H29 0.972 . S
C30 O31 1.550 . S
C30 H32 0.973 . S
O31 C30 1.550 . S
O31 C37 1.412 . S
H32 C30 0.973 . S
C33 H26 0.929 . S
C33 C34 1.400 . S
C33 C35 1.364 . S
C34 C33 1.400 . S
C34 C38 1.377 . S
C35 C33 1.364 . S
C35 C36 1.374 . S
C36 H27 0.930 . S
C36 C35 1.374 . S
C36 C37 1.383 . S
C37 O31 1.412 . S
C37 C36 1.383 . S
C37 C38 1.394 . S
C38 H28 0.929 . S
C38 C34 1.377 . S
C38 C37 1.394 . S
H39 C46 0.929 . S
H40 C49 0.930 . S
H41 C51 0.929 . S
H42 C43 0.969 . S
C43 H42 0.969 . S
C43 O44 1.550 . S
C43 H45 0.973 . S
O44 C43 1.550 . S
O44 C50 1.412 . S
H45 C43 0.973 . S
C46 H39 0.929 . S
C46 C47 1.400 . S
C46 C48 1.364 . S
C47 C46 1.400 . S
C47 C51 1.377 . S
C48 C46 1.364 . S
C48 C49 1.374 . S
C49 H40 0.930 . S
C49 C48 1.374 . S
C49 C50 1.383 . S
C50 O44 1.412 . S
C50 C49 1.383 . S
C50 C51 1.394 . S
C51 H41 0.929 . S
C51 C47 1.377 . S
C51 C50 1.394 . S
H52 C59 0.929 . S
H53 C62 0.930 . S
H54 C64 0.929 . S
H55 C56 0.969 . S
C56 H55 0.969 . S
C56 O57 1.550 . S
C56 H58 0.973 . S
O57 C56 1.550 . S
O57 C63 1.412 . S
H58 C56 0.973 . S
C59 H52 0.929 . S
C59 C60 1.400 . S
C59 C61 1.364 1_556 S
C60 C59 1.400 . S
C60 C64 1.377 . S
C61 C59 1.364 1_554 S
C61 C62 1.374 . S
C62 H53 0.930 . S
C62 C61 1.374 . S
C62 C63 1.383 . S
C63 O57 1.412 . S
C63 C62 1.383 . S
C63 C64 1.394 1_554 S
C64 H54 0.929 . S
C64 C60 1.377 . S
C64 C63 1.394 1_556 S
H65 C72 0.929 . S
H66 C75 0.930 . S
H67 C77 0.929 . S
H68 C69 0.969 . S
C69 H68 0.969 . S
C69 O70 1.550 . S
C69 H71 0.973 . S
O70 C69 1.550 . S
O70 C76 1.412 . S
H71 C69 0.973 . S
C72 H65 0.929 . S
C72 C73 1.400 . S
C72 C74 1.364 1_556 S
C73 C72 1.400 . S
C73 C77 1.377 . S
C74 C72 1.364 1_554 S
C74 C75 1.374 . S
C75 H66 0.930 . S
C75 C74 1.374 . S
C75 C76 1.383 . S
C76 O70 1.412 . S
C76 C75 1.383 . S
C76 C77 1.394 1_554 S
C77 H67 0.929 . S
C77 C73 1.377 . S
C77 C76 1.394 1_556 S
H78 C85 0.929 . S
H79 C88 0.930 . S
H80 C90 0.929 . S
H81 C82 0.969 . S
C82 H81 0.969 . S
C82 O83 1.550 . S
C82 H84 0.973 . S
O83 C82 1.550 . S
O83 C89 1.412 . S
H84 C82 0.973 . S
C85 H78 0.929 . S
C85 C86 1.400 . S
C85 C87 1.364 1_556 S
C86 C85 1.400 . S
C86 C90 1.377 . S
C87 C85 1.364 1_554 S
C87 C88 1.374 . S
C88 H79 0.930 . S
C88 C87 1.374 . S
C88 C89 1.383 . S
C89 O83 1.412 . S
C89 C88 1.383 . S
C89 C90 1.394 1_554 S
C90 H80 0.929 . S
C90 C86 1.377 . S
C90 C89 1.394 1_556 S
H91 C98 0.929 . S
H92 C101 0.930 . S
H93 C103 0.929 . S
H94 C95 0.969 . S
C95 H94 0.969 . S
C95 O96 1.550 . S
C95 H97 0.973 . S
O96 C95 1.550 . S
O96 C102 1.412 . S
H97 C95 0.973 . S
C98 H91 0.929 . S
C98 C99 1.400 . S
C98 C100 1.364 1_556 S
C99 C98 1.400 . S
C99 C103 1.377 . S
C100 C98 1.364 1_554 S
C100 C101 1.374 . S
C101 H92 0.930 . S
C101 C100 1.374 . S
C101 C102 1.383 . S
C102 O96 1.412 . S
C102 C101 1.383 . S
C102 C103 1.394 1_554 S
C103 H93 0.929 . S
C103 C99 1.377 . S
C103 C102 1.394 1_556 S
Gd104 N135 2.661 1_545 S
Gd104 N141 2.601 . S
Gd104 O148 2.545 . S
Gd104 O149 2.606 1_655 S
Gd104 O151 2.429 . S
Gd104 O152 2.545 1_655 S
Gd104 O153 2.412 . S
Gd104 O155 2.362 1_545 S
Gd104 O156 2.324 1_655 S
Gd104 C163 2.828 . S
Gd105 N114 2.661 1_566 S
Gd105 N118 2.601 1_565 S
Gd105 O149 2.362 1_565 S
Gd105 O150 2.324 1_455 S
Gd105 O154 2.545 . S
Gd105 O155 2.606 1_455 S
Gd105 O157 2.429 . S
Gd105 O158 2.545 . S
Gd105 O159 2.412 1_556 S
Gd105 C172 2.828 . S
C106 C109 1.417 . S
C106 C111 1.431 . S
C106 C112 1.412 . S
C107 C110 1.437 . S
C107 C111 1.317 . S
C107 H126 0.929 . S
C108 C109 1.426 . S
C108 C110 1.413 . S
C108 N118 1.359 1_554 S
C109 C106 1.417 . S
C109 C108 1.426 . S
C109 N114 1.350 . S
C110 C107 1.437 . S
C110 C108 1.413 . S
C110 C120 1.391 . S
C111 C106 1.431 . S
C111 C107 1.317 . S
C111 H122 0.930 . S
C112 C106 1.412 . S
C112 C113 1.355 . S
C112 H124 0.930 . S
C113 C112 1.355 . S
C113 C115 1.402 . S
C113 H125 0.930 1_455 S
N114 Gd105 2.661 1_544 S
N114 C109 1.350 . S
N114 C115 1.307 . S
C115 C113 1.402 . S
C115 N114 1.307 . S
C115 H116 0.930 1_455 S
H116 C115 0.930 1_655 S
C117 N118 1.334 1_565 S
C117 C119 1.394 . S
C117 H121 0.930 . S
N118 Gd105 2.601 1_545 S
N118 C108 1.359 1_556 S
N118 C117 1.334 1_545 S
C119 C117 1.394 . S
C119 C120 1.359 1_566 S
C119 H131 0.930 . S
C120 C110 1.391 . S
C120 C119 1.359 1_544 S
C120 H132 0.929 . S
H121 C117 0.930 . S
H122 C111 0.930 . S
H123 C140 0.930 . S
H124 C112 0.930 . S
H125 C113 0.930 1_655 S
H126 C107 0.929 . S
H127 C145 0.930 . S
H128 C136 0.930 . S
H129 C137 0.930 . S
H130 C161 0.929 . S
H131 C119 0.930 . S
H132 C120 0.929 . S
H133 C162 0.930 . S
H134 C143 0.930 . S
N135 Gd104 2.661 1_565 S
N135 C139 1.350 . S
N135 C140 1.307 1_655 S
C136 H128 0.930 . S
C136 C137 1.355 1_655 S
C136 C138 1.412 . S
C137 H129 0.930 . S
C137 C136 1.355 1_455 S
C137 C140 1.402 . S
C138 C136 1.412 . S
C138 C139 1.417 . S
C138 C162 1.431 . S
C139 N135 1.350 . S
C139 C138 1.417 . S
C139 C142 1.426 . S
C140 H123 0.930 . S
C140 N135 1.307 1_455 S
C140 C137 1.402 . S
N141 Gd104 2.601 . S
N141 C142 1.359 1_545 S
N141 C145 1.334 . S
C142 C139 1.426 . S
C142 N141 1.359 1_565 S
C142 C146 1.413 . S
C143 H134 0.930 . S
C143 C144 1.359 . S
C143 C145 1.394 . S
C144 C143 1.359 . S
C144 C146 1.391 1_545 S
C144 H147 0.929 . S
C145 H127 0.930 . S
C145 N141 1.334 . S
C145 C143 1.394 . S
C146 C142 1.413 . S
C146 C144 1.391 1_565 S
C146 C161 1.437 . S
H147 C144 0.929 . S
O148 Gd104 2.545 . S
O148 C163 1.258 . S
O149 Gd104 2.606 1_455 S
O149 Gd105 2.362 1_545 S
O149 C160 1.284 . S
O150 Gd105 2.324 1_655 S
O150 C170 1.254 1_565 S
O151 Gd104 2.429 . S
O151 C170 1.268 . S
O152 Gd104 2.545 1_455 S
O152 C160 1.250 . S
O153 Gd104 2.412 . S
O153 C163 1.252 . S
O154 Gd105 2.545 . S
O154 C172 1.258 . S
O155 Gd104 2.362 1_565 S
O155 Gd105 2.606 1_655 S
O155 C171 1.284 . S
O156 Gd104 2.324 1_455 S
O156 C179 1.254 . S
O157 Gd105 2.429 . S
O157 C179 1.268 1_565 S
O158 Gd105 2.545 . S
O158 C171 1.250 1_455 S
O159 Gd105 2.412 1_554 S
O159 C172 1.252 1_554 S
C160 O149 1.284 . S
C160 O152 1.250 . S
C161 H130 0.929 . S
C161 C146 1.437 . S
C161 C162 1.317 . S
C162 H133 0.930 . S
C162 C138 1.431 . S
C162 C161 1.317 . S
C163 Gd104 2.828 . S
C163 O148 1.258 . S
C163 O153 1.252 . S
C163 C164 1.497 . S
C164 C163 1.497 . S
C164 C165 1.395 . S
C164 C166 1.380 . S
C165 C164 1.395 . S
C165 C168 1.398 . S
C165 H180 0.930 . S
C166 C164 1.380 . S
C166 C167 1.391 . S
C166 H181 0.930 1_655 S
C167 C166 1.391 . S
C167 C169 1.387 . S
C168 C165 1.398 . S
C168 C169 1.380 . S
C168 H182 0.930 . S
C169 C167 1.387 . S
C169 C168 1.380 . S
C169 H183 0.930 . S
C170 O150 1.254 1_545 S
C170 O151 1.268 . S
C171 O155 1.284 . S
C171 O158 1.250 1_655 S
C172 Gd105 2.828 . S
C172 O154 1.258 . S
C172 O159 1.252 1_556 S
C172 C173 1.497 1_556 S
C173 C172 1.497 1_554 S
C173 C174 1.395 . S
C173 C175 1.380 . S
C174 C173 1.395 . S
C174 C177 1.398 . S
C174 H184 0.930 . S
C175 C173 1.380 . S
C175 C176 1.391 . S
C175 H185 0.930 . S
C176 C175 1.391 . S
C176 C178 1.387 . S
C177 C174 1.398 . S
C177 C178 1.380 . S
C177 H186 0.930 . S
C178 C176 1.387 . S
C178 C177 1.380 . S
C178 H187 0.930 . S
C179 O156 1.254 . S
C179 O157 1.268 1_545 S
H180 C165 0.930 . S
H181 C166 0.930 1_455 S
H182 C168 0.930 . S
H183 C169 0.930 . S
H184 C174 0.930 . S
H185 C175 0.930 . S
H186 C177 0.930 . S
H187 C178 0.930 . S
Gd188 N219 2.661 . S
Gd188 N225 2.601 . S
Gd188 O232 2.545 . S
Gd188 O233 2.606 1_565 S
Gd188 O235 2.429 . S
Gd188 O236 2.545 1_565 S
Gd188 O237 2.412 . S
Gd188 O239 2.362 . S
Gd188 O240 2.324 1_565 S
Gd188 C247 2.828 . S
Gd189 N198 2.661 1_556 S
Gd189 N202 2.601 . S
Gd189 O233 2.362 . S
Gd189 O234 2.324 1_545 S
Gd189 O238 2.545 . S
Gd189 O239 2.606 1_545 S
Gd189 O241 2.429 . S
Gd189 O242 2.545 . S
Gd189 O243 2.412 1_556 S
Gd189 C256 2.828 . S
C190 C193 1.417 . S
C190 C195 1.431 . S
C190 C196 1.412 . S
C191 C194 1.437 . S
C191 C195 1.317 . S
C191 H210 0.929 . S
C192 C193 1.426 . S
C192 C194 1.413 . S
C192 N202 1.359 1_554 S
C193 C190 1.417 . S
C193 C192 1.426 . S
C193 N198 1.350 . S
C194 C191 1.437 . S
C194 C192 1.413 . S
C194 C204 1.391 . S
C195 C190 1.431 . S
C195 C191 1.317 . S
C195 H206 0.930 . S
C196 C190 1.412 . S
C196 C197 1.355 . S
C196 H208 0.930 . S
C197 C196 1.355 . S
C197 C199 1.402 . S
C197 H209 0.930 1_545 S
N198 Gd189 2.661 1_554 S
N198 C193 1.350 . S
N198 C199 1.307 . S
C199 C197 1.402 . S
C199 N198 1.307 . S
C199 H200 0.930 1_545 S
H200 C199 0.930 1_565 S
C201 N202 1.334 . S
C201 C203 1.394 . S
C201 H205 0.930 . S
N202 Gd189 2.601 . S
N202 C192 1.359 1_556 S
N202 C201 1.334 . S
C203 C201 1.394 . S
C203 C204 1.359 1_556 S
C203 H215 0.930 . S
C204 C194 1.391 . S
C204 C203 1.359 1_554 S
C204 H216 0.929 . S
H205 C201 0.930 . S
H206 C195 0.930 . S
H207 C224 0.930 . S
H208 C196 0.930 . S
H209 C197 0.930 1_565 S
H210 C191 0.929 . S
H211 C229 0.930 . S
H212 C220 0.930 . S
H213 C221 0.930 . S
H214 C245 0.929 . S
H215 C203 0.930 . S
H216 C204 0.929 . S
H217 C246 0.930 . S
H218 C227 0.930 . S
N219 Gd188 2.661 . S
N219 C223 1.350 . S
N219 C224 1.307 1_565 S
C220 H212 0.930 . S
C220 C221 1.355 1_565 S
C220 C222 1.412 . S
C221 H213 0.930 . S
C221 C220 1.355 1_545 S
C221 C224 1.402 . S
C222 C220 1.412 . S
C222 C223 1.417 . S
C222 C246 1.431 . S
C223 N219 1.350 . S
C223 C222 1.417 . S
C223 C226 1.426 . S
C224 H207 0.930 . S
C224 N219 1.307 1_545 S
C224 C221 1.402 . S
N225 Gd188 2.601 . S
N225 C226 1.359 . S
N225 C229 1.334 . S
C226 C223 1.426 . S
C226 N225 1.359 . S
C226 C230 1.413 . S
C227 H218 0.930 . S
C227 C228 1.359 . S
C227 C229 1.394 . S
C228 C227 1.359 . S
C228 C230 1.391 . S
C228 H231 0.929 . S
C229 H211 0.930 . S
C229 N225 1.334 . S
C229 C227 1.394 . S
C230 C226 1.413 . S
C230 C228 1.391 . S
C230 C245 1.437 . S
H231 C228 0.929 . S
O232 Gd188 2.545 . S
O232 C247 1.258 . S
O233 Gd188 2.606 1_545 S
O233 Gd189 2.362 . S
O233 C244 1.284 . S
O234 Gd189 2.324 1_565 S
O234 C254 1.254 . S
O235 Gd188 2.429 . S
O235 C254 1.268 . S
O236 Gd188 2.545 1_545 S
O236 C244 1.250 . S
O237 Gd188 2.412 . S
O237 C247 1.252 . S
O238 Gd189 2.545 . S
O238 C256 1.258 . S
O239 Gd188 2.362 . S
O239 Gd189 2.606 1_565 S
O239 C255 1.284 . S
O240 Gd188 2.324 1_545 S
O240 C263 1.254 . S
O241 Gd189 2.429 . S
O241 C263 1.268 . S
O242 Gd189 2.545 . S
O242 C255 1.250 1_545 S
O243 Gd189 2.412 1_554 S
O243 C256 1.252 1_554 S
C244 O233 1.284 . S
C244 O236 1.250 . S
C245 H214 0.929 . S
C245 C230 1.437 . S
C245 C246 1.317 . S
C246 H217 0.930 . S
C246 C222 1.431 . S
C246 C245 1.317 . S
C247 Gd188 2.828 . S
C247 O232 1.258 . S
C247 O237 1.252 . S
C247 C248 1.497 . S
C248 C247 1.497 . S
C248 C249 1.395 . S
C248 C250 1.380 . S
C249 C248 1.395 . S
C249 C252 1.398 . S
C249 H264 0.930 . S
C250 C248 1.380 . S
C250 C251 1.391 . S
C250 H265 0.930 1_565 S
C251 C250 1.391 . S
C251 C253 1.387 . S
C252 C249 1.398 . S
C252 C253 1.380 . S
C252 H266 0.930 . S
C253 C251 1.387 . S
C253 C252 1.380 . S
C253 H267 0.930 . S
C254 O234 1.254 . S
C254 O235 1.268 . S
C255 O239 1.284 . S
C255 O242 1.250 1_565 S
C256 Gd189 2.828 . S
C256 O238 1.258 . S
C256 O243 1.252 1_556 S
C256 C257 1.497 1_556 S
C257 C256 1.497 1_554 S
C257 C258 1.395 . S
C257 C259 1.380 . S
C258 C257 1.395 . S
C258 C261 1.398 . S
C258 H268 0.930 . S
C259 C257 1.380 . S
C259 C260 1.391 . S
C259 H269 0.930 . S
C260 C259 1.391 . S
C260 C262 1.387 . S
C261 C258 1.398 . S
C261 C262 1.380 . S
C261 H270 0.930 . S
C262 C260 1.387 . S
C262 C261 1.380 . S
C262 H271 0.930 . S
C263 O240 1.254 . S
C263 O241 1.268 . S
H264 C249 0.930 . S
H265 C250 0.930 1_545 S
H266 C252 0.930 . S
H267 C253 0.930 . S
H268 C258 0.930 . S
H269 C259 0.930 . S
H270 C261 0.930 . S
H271 C262 0.930 . S
Gd272 N303 2.661 . S
Gd272 N309 2.601 . S
Gd272 O316 2.545 1_556 S
Gd272 O317 2.606 . S
Gd272 O319 2.429 . S
Gd272 O320 2.545 . S
Gd272 O321 2.412 . S
Gd272 O323 2.362 . S
Gd272 O324 2.324 . S
Gd272 C331 2.828 1_556 S
Gd273 N282 2.661 . S
Gd273 N286 2.601 . S
Gd273 O317 2.362 . S
Gd273 O318 2.324 . S
Gd273 O322 2.545 . S
Gd273 O323 2.606 . S
Gd273 O325 2.429 . S
Gd273 O326 2.545 . S
Gd273 O327 2.412 . S
Gd273 C340 2.828 . S
C274 C277 1.417 . S
C274 C279 1.431 . S
C274 C280 1.412 . S
C275 C278 1.437 . S
C275 C279 1.317 . S
C275 H294 0.929 . S
C276 C277 1.426 . S
C276 C278 1.413 . S
C276 N286 1.359 . S
C277 C274 1.417 . S
C277 C276 1.426 . S
C277 N282 1.350 . S
C278 C275 1.437 . S
C278 C276 1.413 . S
C278 C288 1.391 . S
C279 C274 1.431 . S
C279 C275 1.317 . S
C279 H290 0.930 . S
C280 C274 1.412 . S
C280 C281 1.355 . S
C280 H292 0.930 . S
C281 C280 1.355 . S
C281 C283 1.402 . S
C281 H293 0.930 . S
N282 Gd273 2.661 . S
N282 C277 1.350 . S
N282 C283 1.307 . S
C283 C281 1.402 . S
C283 N282 1.307 . S
C283 H284 0.930 . S
H284 C283 0.930 . S
C285 N286 1.334 . S
C285 C287 1.394 . S
C285 H289 0.930 . S
N286 Gd273 2.601 . S
N286 C276 1.359 . S
N286 C285 1.334 . S
C287 C285 1.394 . S
C287 C288 1.359 . S
C287 H299 0.930 . S
C288 C278 1.391 . S
C288 C287 1.359 . S
C288 H300 0.929 . S
H289 C285 0.930 . S
H290 C279 0.930 . S
H291 C308 0.930 . S
H292 C280 0.930 . S
H293 C281 0.930 . S
H294 C275 0.929 . S
H295 C313 0.930 . S
H296 C304 0.930 . S
H297 C305 0.930 . S
H298 C329 0.929 . S
H299 C287 0.930 . S
H300 C288 0.929 . S
H301 C330 0.930 . S
H302 C311 0.930 . S
N303 Gd272 2.661 . S
N303 C307 1.350 . S
N303 C308 1.307 . S
C304 H296 0.930 . S
C304 C305 1.355 . S
C304 C306 1.412 . S
C305 H297 0.930 . S
C305 C304 1.355 . S
C305 C308 1.402 . S
C306 C304 1.412 . S
C306 C307 1.417 . S
C306 C330 1.431 . S
C307 N303 1.350 . S
C307 C306 1.417 . S
C307 C310 1.426 . S
C308 H291 0.930 . S
C308 N303 1.307 . S
C308 C305 1.402 . S
N309 Gd272 2.601 . S
N309 C310 1.359 . S
N309 C313 1.334 1_556 S
C310 C307 1.426 . S
C310 N309 1.359 . S
C310 C314 1.413 . S
C311 H302 0.930 . S
C311 C312 1.359 . S
C311 C313 1.394 . S
C312 C311 1.359 . S
C312 C314 1.391 1_554 S
C312 H315 0.929 . S
C313 H295 0.930 . S
C313 N309 1.334 1_554 S
C313 C311 1.394 . S
C314 C310 1.413 . S
C314 C312 1.391 1_556 S
C314 C329 1.437 . S
H315 C312 0.929 . S
O316 Gd272 2.545 1_554 S
O316 C331 1.258 . S
O317 Gd272 2.606 . S
O317 Gd273 2.362 . S
O317 C328 1.284 . S
O318 Gd273 2.324 . S
O318 C338 1.254 . S
O319 Gd272 2.429 . S
O319 C338 1.268 . S
O320 Gd272 2.545 . S
O320 C328 1.250 . S
O321 Gd272 2.412 . S
O321 C331 1.252 1_556 S
O322 Gd273 2.545 . S
O322 C340 1.258 . S
O323 Gd272 2.362 . S
O323 Gd273 2.606 . S
O323 C339 1.284 . S
O324 Gd272 2.324 . S
O324 C347 1.254 . S
O325 Gd273 2.429 . S
O325 C347 1.268 . S
O326 Gd273 2.545 . S
O326 C339 1.250 . S
O327 Gd273 2.412 . S
O327 C340 1.252 . S
C328 O317 1.284 . S
C328 O320 1.250 . S
C329 H298 0.929 . S
C329 C314 1.437 . S
C329 C330 1.317 . S
C330 H301 0.930 . S
C330 C306 1.431 . S
C330 C329 1.317 . S
C331 Gd272 2.828 1_554 S
C331 O316 1.258 . S
C331 O321 1.252 1_554 S
C331 C332 1.497 . S
C332 C331 1.497 . S
C332 C333 1.395 . S
C332 C334 1.380 . S
C333 C332 1.395 . S
C333 C336 1.398 . S
C333 H348 0.930 . S
C334 C332 1.380 . S
C334 C335 1.391 . S
C334 H349 0.930 . S
C335 C334 1.391 . S
C335 C337 1.387 . S
C336 C333 1.398 . S
C336 C337 1.380 . S
C336 H350 0.930 . S
C337 C335 1.387 . S
C337 C336 1.380 . S
C337 H351 0.930 . S
C338 O318 1.254 . S
C338 O319 1.268 . S
C339 O323 1.284 . S
C339 O326 1.250 . S
C340 Gd273 2.828 . S
C340 O322 1.258 . S
C340 O327 1.252 . S
C340 C341 1.497 . S
C341 C340 1.497 . S
C341 C342 1.395 . S
C341 C343 1.380 . S
C342 C341 1.395 . S
C342 C345 1.398 . S
C342 H352 0.930 . S
C343 C341 1.380 . S
C343 C344 1.391 . S
C343 H353 0.930 . S
C344 C343 1.391 . S
C344 C346 1.387 . S
C345 C342 1.398 . S
C345 C346 1.380 . S
C345 H354 0.930 . S
C346 C344 1.387 . S
C346 C345 1.380 . S
C346 H355 0.930 . S
C347 O324 1.254 . S
C347 O325 1.268 . S
H348 C333 0.930 . S
H349 C334 0.930 . S
H350 C336 0.930 . S
H351 C337 0.930 . S
H352 C342 0.930 . S
H353 C343 0.930 . S
H354 C345 0.930 . S
H355 C346 0.930 . S
Gd356 N387 2.661 . S
Gd356 N393 2.609 . S
Gd356 O400 2.545 1_556 S
Gd356 O401 2.606 1_655 S
Gd356 O403 2.429 1_655 S
Gd356 O404 2.545 . S
Gd356 O405 2.412 . S
Gd356 O407 2.362 1_655 S
Gd356 O408 2.324 . S
Gd356 C415 2.828 1_556 S
Gd357 N366 2.661 . S
Gd357 N370 2.601 . S
Gd357 O401 2.362 . S
Gd357 O402 2.324 . S
Gd357 O406 2.545 . S
Gd357 O407 2.606 . S
Gd357 O409 2.429 1_455 S
Gd357 O410 2.545 . S
Gd357 O411 2.412 . S
Gd357 C424 2.828 . S
C358 C361 1.417 . S
C358 C363 1.431 . S
C358 C364 1.412 . S
C359 C362 1.437 . S
C359 C363 1.317 . S
C359 H378 0.929 . S
C360 C361 1.426 . S
C360 C362 1.413 . S
C360 N370 1.359 . S
C361 C358 1.417 . S
C361 C360 1.426 . S
C361 N366 1.350 . S
C362 C359 1.437 . S
C362 C360 1.413 . S
C362 C372 1.391 . S
C363 C358 1.431 . S
C363 C359 1.317 . S
C363 H374 0.930 . S
C364 C358 1.412 . S
C364 C365 1.355 . S
C364 H376 0.930 . S
C365 C364 1.355 . S
C365 C367 1.402 . S
C365 H377 0.930 . S
N366 Gd357 2.661 . S
N366 C361 1.350 . S
N366 C367 1.307 . S
C367 C365 1.402 . S
C367 N366 1.307 . S
C367 H368 0.930 . S
H368 C367 0.930 . S
C369 N370 1.334 1_655 S
C369 C371 1.394 . S
C369 H373 0.930 . S
N370 Gd357 2.601 . S
N370 C360 1.359 . S
N370 C369 1.334 1_455 S
C371 C369 1.394 . S
C371 C372 1.359 1_655 S
C371 H383 0.930 . S
C372 C362 1.391 . S
C372 C371 1.359 1_455 S
C372 H384 0.929 1_455 S
H373 C369 0.930 . S
H374 C363 0.930 . S
H375 C392 0.930 . S
H376 C364 0.930 . S
H377 C365 0.930 . S
H378 C359 0.929 . S
H379 C397 0.930 . S
H380 C388 0.930 . S
H381 C389 0.930 . S
H382 C413 0.929 . S
H383 C371 0.930 . S
H384 C372 0.929 1_655 S
H385 C414 0.930 . S
H386 C395 0.930 . S
N387 Gd356 2.661 . S
N387 C391 1.350 . S
N387 C392 1.307 . S
C388 H380 0.930 . S
C388 C389 1.355 . S
C388 C390 1.412 . S
C389 H381 0.930 . S
C389 C388 1.355 . S
C389 C392 1.402 . S
C390 C388 1.412 . S
C390 C391 1.417 . S
C390 C414 1.431 . S
C391 N387 1.350 . S
C391 C390 1.417 . S
C391 C394 1.426 . S
C392 H375 0.930 . S
C392 N387 1.307 . S
C392 C389 1.402 . S
N393 Gd356 2.609 . S
N393 C394 1.375 . S
N393 C397 1.314 1_656 S
C394 C391 1.426 . S
C394 N393 1.375 . S
C394 C398 1.413 . S
C395 H386 0.930 . S
C395 C396 1.359 . S
C395 C397 1.394 . S
C396 C395 1.359 . S
C396 C398 1.391 1_454 S
C396 H399 0.929 . S
C397 H379 0.930 . S
C397 N393 1.314 1_454 S
C397 C395 1.394 . S
C398 C394 1.413 . S
C398 C396 1.391 1_656 S
C398 C413 1.437 . S
H399 C396 0.929 . S
O400 Gd356 2.545 1_554 S
O400 C415 1.258 . S
O401 Gd356 2.606 1_455 S
O401 Gd357 2.362 . S
O401 C412 1.284 1_455 S
O402 Gd357 2.324 . S
O402 C422 1.254 . S
O403 Gd356 2.429 1_455 S
O403 C422 1.268 . S
O404 Gd356 2.545 . S
O404 C412 1.250 . S
O405 Gd356 2.412 . S
O405 C415 1.252 1_556 S
O406 Gd357 2.545 . S
O406 C424 1.258 . S
O407 Gd356 2.362 1_455 S
O407 Gd357 2.606 . S
O407 C423 1.284 . S
O408 Gd356 2.324 . S
O408 C431 1.254 . S
O409 Gd357 2.429 1_655 S
O409 C431 1.268 . S
O410 Gd357 2.545 . S
O410 C423 1.250 . S
O411 Gd357 2.412 . S
O411 C424 1.252 . S
C412 O401 1.284 1_655 S
C412 O404 1.250 . S
C413 H382 0.929 . S
C413 C398 1.437 . S
C413 C414 1.317 . S
C414 H385 0.930 . S
C414 C390 1.431 . S
C414 C413 1.317 . S
C415 Gd356 2.828 1_554 S
C415 O400 1.258 . S
C415 O405 1.252 1_554 S
C415 C416 1.497 . S
C416 C415 1.497 . S
C416 C417 1.395 . S
C416 C418 1.380 . S
C417 C416 1.395 . S
C417 C420 1.398 . S
C417 H432 0.930 . S
C418 C416 1.380 . S
C418 C419 1.391 . S
C418 H433 0.930 . S
C419 C418 1.391 . S
C419 C421 1.387 . S
C420 C417 1.398 . S
C420 C421 1.380 . S
C420 H434 0.930 . S
C421 C419 1.387 . S
C421 C420 1.380 . S
C421 H435 0.930 . S
C422 O402 1.254 . S
C422 O403 1.268 . S
C423 O407 1.284 . S
C423 O410 1.250 . S
C424 Gd357 2.828 . S
C424 O406 1.258 . S
C424 O411 1.252 . S
C424 C425 1.497 . S
C425 C424 1.497 . S
C425 C426 1.395 . S
C425 C427 1.380 . S
C426 C425 1.395 . S
C426 C429 1.398 . S
C426 H436 0.930 . S
C427 C425 1.380 . S
C427 C428 1.391 . S
C427 H437 0.930 . S
C428 C427 1.391 . S
C428 C430 1.387 . S
C429 C426 1.398 . S
C429 C430 1.380 . S
C429 H438 0.930 . S
C430 C428 1.387 . S
C430 C429 1.380 . S
C430 H439 0.930 . S
C431 O408 1.254 . S
C431 O409 1.268 . S
H432 C417 0.930 . S
H433 C418 0.930 . S
H434 C420 0.930 . S
H435 C421 0.930 . S
H436 C426 0.930 . S
H437 C427 0.930 . S
H438 C429 0.930 . S
H439 C430 0.930 . S
C440 C441 1.369 . S
C440 C442 1.419 . S
C440 H444 0.930 . S
C441 C440 1.369 . S
C441 C450 1.429 . S
C442 C440 1.419 . S
C442 C443 1.363 . S
C442 H445 0.936 . S
C443 C442 1.363 . S
C443 C449 1.428 . S
H444 C440 0.930 . S
H445 C442 0.936 . S
S446 N447 1.613 . S
S446 N448 1.610 . S
N447 S446 1.613 . S
N447 C450 1.350 . S
N448 S446 1.610 . S
N448 C449 1.351 . S
C449 C443 1.428 . S
C449 N448 1.351 . S
C449 C450 1.434 . S
C450 C441 1.429 . S
C450 N447 1.350 . S
C450 C449 1.434 . S
C451 C452 1.369 . S
C451 C453 1.419 . S
C451 H455 0.930 . S
C452 C451 1.369 . S
C452 C461 1.429 . S
C453 C451 1.419 . S
C453 C454 1.363 . S
C453 H456 0.929 . S
C454 C453 1.363 . S
C454 C460 1.428 . S
H455 C451 0.930 . S
H456 C453 0.929 . S
S457 N458 1.613 . S
S457 N459 1.610 . S
N458 S457 1.613 . S
N458 C461 1.350 . S
N459 S457 1.610 . S
N459 C460 1.351 . S
C460 C454 1.428 . S
C460 N459 1.351 . S
C460 C461 1.434 . S
C461 C452 1.429 . S
C461 N458 1.350 . S
C461 C460 1.434 . S
C462 C463 1.369 . S
C462 C464 1.419 . S
C462 H466 0.930 . S
C463 C462 1.369 . S
C463 C472 1.429 . S
C464 C462 1.419 . S
C464 C465 1.363 . S
C464 H467 0.929 . S
C465 C464 1.363 . S
C465 C471 1.428 . S
H466 C462 0.930 . S
H467 C464 0.929 . S
S468 N469 1.613 . S
S468 N470 1.610 . S
N469 S468 1.613 . S
N469 C472 1.350 . S
N470 S468 1.610 . S
N470 C471 1.351 . S
C471 C465 1.428 . S
C471 N470 1.351 . S
C471 C472 1.434 . S
C472 C463 1.429 . S
C472 N469 1.350 . S
C472 C471 1.434 . S
C473 C474 1.369 . S
C473 C475 1.419 . S
C473 H477 0.930 . S
C474 C473 1.369 . S
C474 C483 1.429 . S
C475 C473 1.419 . S
C475 C476 1.363 . S
C475 H478 0.922 1_455 S
C476 C475 1.363 . S
C476 C482 1.428 . S
H477 C473 0.930 . S
H478 C475 0.922 1_655 S
S479 N480 1.613 . S
S479 N481 1.610 . S
N480 S479 1.613 . S
N480 C483 1.350 . S
N481 S479 1.610 . S
N481 C482 1.351 . S
C482 C476 1.428 . S
C482 N481 1.351 . S
C482 C483 1.434 . S
C483 C474 1.429 . S
C483 N480 1.350 . S
C483 C482 1.434 . S
C484 C485 1.369 . S
C484 C486 1.419 . S
C484 H488 0.930 . S
C485 C484 1.369 . S
C485 C494 1.429 . S
C486 C484 1.419 . S
C486 C487 1.363 1_554 S
C486 H489 0.929 1_554 S
C487 C486 1.363 1_556 S
C487 C493 1.428 1_556 S
H488 C484 0.930 . S
H489 C486 0.929 1_556 S
S490 N491 1.613 1_545 S
S490 N492 1.610 . S
N491 S490 1.613 1_565 S
N491 C494 1.350 . S
N492 S490 1.610 . S
N492 C493 1.351 1_545 S
C493 C487 1.428 1_554 S
C493 N492 1.351 1_565 S
C493 C494 1.434 . S
C494 C485 1.429 . S
C494 N491 1.350 . S
C494 C493 1.434 . S
C495 C496 1.369 . S
C495 C497 1.419 . S
C495 H499 0.930 . S
C496 C495 1.369 . S
C496 C505 1.429 . S
C497 C495 1.419 . S
C497 C498 1.363 1_554 S
C497 H500 0.929 1_554 S
C498 C497 1.363 1_556 S
C498 C504 1.428 1_556 S
H499 C495 0.930 . S
H500 C497 0.929 1_556 S
S501 N502 1.613 . S
S501 N503 1.610 . S
N502 S501 1.613 . S
N502 C505 1.350 . S
N503 S501 1.610 . S
N503 C504 1.351 . S
C504 C498 1.428 1_554 S
C504 N503 1.351 . S
C504 C505 1.434 . S
C505 C496 1.429 . S
C505 N502 1.350 . S
C505 C504 1.434 . S
C506 C507 1.369 . S
C506 C508 1.419 . S
C506 H510 0.930 . S
C507 C506 1.369 . S
C507 C516 1.429 . S
C508 C506 1.419 . S
C508 C509 1.363 1_554 S
C508 H511 0.929 . S
C509 C508 1.363 1_556 S
C509 C515 1.428 . S
H510 C506 0.930 . S
H511 C508 0.929 . S
S512 N513 1.613 1_556 S
S512 N514 1.610 . S
N513 S512 1.613 1_554 S
N513 C516 1.350 . S
N514 S512 1.610 . S
N514 C515 1.351 . S
C515 C509 1.428 . S
C515 N514 1.351 . S
C515 C516 1.434 1_556 S
C516 C507 1.429 . S
C516 N513 1.350 . S
C516 C515 1.434 1_554 S
C517 C518 1.369 . S
C517 C519 1.419 . S
C517 H521 0.930 . S
C518 C517 1.369 . S
C518 C527 1.429 . S
C519 C517 1.419 . S
C519 C520 1.363 1_554 S
C519 H522 0.929 . S
C520 C519 1.363 1_556 S
C520 C526 1.428 1_656 S
H521 C517 0.930 . S
H522 C519 0.929 . S
S523 N524 1.613 . S
S523 N525 1.610 1_554 S
N524 S523 1.613 . S
N524 C527 1.350 1_455 S
N525 S523 1.610 1_556 S
N525 C526 1.351 1_556 S
C526 C520 1.428 1_454 S
C526 N525 1.351 1_554 S
C526 C527 1.434 1_455 S
C527 C518 1.429 . S
C527 N524 1.350 1_655 S
C527 C526 1.434 1_655 S
C528 C529 1.369 . S
C528 C530 1.419 . S
C528 H532 0.930 . S
C529 C528 1.369 . S
C529 C538 1.429 . S
C530 C528 1.419 . S
C530 C531 1.342 1_455 S
C530 H533 0.929 . S
C531 C530 1.342 1_655 S
C531 C537 1.435 . S
H532 C528 0.930 . S
H533 C530 0.929 . S
S534 N535 1.611 . S
S534 N536 1.610 . S
N535 S534 1.611 . S
N535 C538 1.351 1_655 S
N536 S534 1.610 . S
N536 C537 1.351 . S
C537 C531 1.435 . S
C537 N536 1.351 . S
C537 C538 1.434 1_655 S
C538 C529 1.429 . S
C538 N535 1.351 1_455 S
C538 C537 1.434 1_455 S
C539 C540 1.369 . S
C539 C541 1.419 . S
C539 H543 0.930 . S
C540 C539 1.369 . S
C540 C549 1.429 . S
C541 C539 1.419 . S
C541 C542 1.359 1_545 S
C541 H544 0.929 . S
C542 C541 1.359 1_565 S
C542 C548 1.427 1_565 S
H543 C539 0.930 . S
H544 C541 0.929 . S
S545 N546 1.613 . S
S545 N547 1.610 1_545 S
N546 S545 1.613 . S
N546 C549 1.350 . S
N547 S545 1.610 1_565 S
N547 C548 1.351 1_565 S
C548 C542 1.427 1_545 S
C548 N547 1.351 1_545 S
C548 C549 1.434 . S
C549 C540 1.429 . S
C549 N546 1.350 . S
C549 C548 1.434 . S
C550 C551 1.369 . S
C550 C552 1.419 . S
C550 H554 0.930 . S
C551 C550 1.369 . S
C551 C560 1.429 . S
C552 C550 1.419 . S
C552 C553 1.363 . S
C552 H555 0.929 . S
C553 C552 1.363 . S
C553 C559 1.428 . S
H554 C550 0.930 . S
H555 C552 0.929 . S
S556 N557 1.613 . S
S556 N558 1.610 . S
N557 S556 1.613 . S
N557 C560 1.350 . S
N558 S556 1.610 . S
N558 C559 1.351 . S
C559 C553 1.428 . S
C559 N558 1.351 . S
C559 C560 1.434 . S
C560 C551 1.429 . S
C560 N557 1.350 . S
C560 C559 1.434 . S
C561 C562 1.369 . S
C561 C563 1.419 . S
C561 H565 0.930 . S
C562 C561 1.369 . S
C562 C571 1.429 . S
C563 C561 1.419 . S
C563 C564 1.363 . S
C563 H566 0.929 . S
C564 C563 1.363 . S
C564 C570 1.428 . S
H565 C561 0.930 . S
H566 C563 0.929 . S
S567 N568 1.613 . S
S567 N569 1.610 . S
N568 S567 1.613 . S
N568 C571 1.350 . S
N569 S567 1.610 . S
N569 C570 1.351 . S
C570 C564 1.428 . S
C570 N569 1.351 . S
C570 C571 1.434 . S
C571 C562 1.429 . S
C571 N568 1.350 . S
C571 C570 1.434 . S
C572 C573 1.369 . S
C572 C574 1.419 . S
C572 H576 0.930 . S
C573 C572 1.369 . S
C573 C582 1.429 . S
C574 C572 1.419 . S
C574 C575 1.363 1_655 S
C574 H577 0.929 . S
C575 C574 1.363 1_455 S
C575 C581 1.428 . S
H576 C572 0.930 . S
H577 C574 0.929 . S
S578 N579 1.613 . S
S578 N580 1.610 . S
N579 S578 1.613 . S
N579 C582 1.350 1_455 S
N580 S578 1.610 . S
N580 C581 1.351 . S
C581 C575 1.428 . S
C581 N580 1.351 . S
C581 C582 1.434 1_455 S
C582 C573 1.429 . S
C582 N579 1.350 1_655 S
C582 C581 1.434 1_655 S
C583 C584 1.369 1_545 S
C583 C585 1.419 . S
C583 H587 0.930 . S
C584 C583 1.369 1_565 S
C584 C593 1.429 . S
C585 C583 1.419 . S
C585 C586 1.363 . S
C585 H588 0.929 . S
C586 C585 1.363 . S
C586 C592 1.428 1_545 S
H587 C583 0.930 . S
H588 C585 0.929 . S
S589 N590 1.613 1_556 S
S589 N591 1.610 1_556 S
N590 S589 1.613 1_554 S
N590 C593 1.350 . S
N591 S589 1.610 1_554 S
N591 C592 1.351 . S
C592 C586 1.428 1_565 S
C592 N591 1.351 . S
C592 C593 1.434 . S
C593 C584 1.429 . S
C593 N590 1.350 . S
C593 C592 1.434 . S
C594 C595 1.369 . S
C594 C596 1.419 . S
C594 H598 0.930 . S
C595 C594 1.369 . S
C595 C604 1.429 . S
C596 C594 1.419 . S
C596 C597 1.363 . S
C596 H599 0.929 . S
C597 C596 1.363 . S
C597 C603 1.428 . S
H598 C594 0.930 . S
H599 C596 0.929 . S
S600 N601 1.613 . S
S600 N602 1.610 . S
N601 S600 1.613 . S
N601 C604 1.350 . S
N602 S600 1.610 . S
N602 C603 1.351 . S
C603 C597 1.428 . S
C603 N602 1.351 . S
C603 C604 1.434 . S
C604 C595 1.429 . S
C604 N601 1.350 . S
C604 C603 1.434 . S
C605 C606 1.369 . S
C605 C607 1.419 . S
C605 H609 0.930 . S
C606 C605 1.369 . S
C606 C615 1.429 . S
C607 C605 1.419 . S
C607 C608 1.363 . S
C607 H610 0.929 . S
C608 C607 1.363 . S
C608 C614 1.428 . S
H609 C605 0.930 . S
H610 C607 0.929 . S
S611 N612 1.613 1_556 S
S611 N613 1.610 1_556 S
N612 S611 1.613 1_554 S
N612 C615 1.350 . S
N613 S611 1.610 1_554 S
N613 C614 1.351 . S
C614 C608 1.428 . S
C614 N613 1.351 . S
C614 C615 1.434 . S
C615 C606 1.429 . S
C615 N612 1.350 . S
C615 C614 1.434 . S
C616 C617 1.369 . S
C616 C618 1.419 . S
C616 H620 0.930 . S
C617 C616 1.369 . S
C617 C626 1.429 . S
C618 C616 1.419 . S
C618 C619 1.363 . S
C618 H621 0.929 . S
C619 C618 1.363 . S
C619 C625 1.428 . S
H620 C616 0.930 . S
H621 C618 0.929 . S
S622 N623 1.613 1_554 S
S622 N624 1.610 1_554 S
N623 S622 1.613 1_556 S
N623 C626 1.350 1_655 S
N624 S622 1.610 1_556 S
N624 C625 1.351 1_655 S
C625 C619 1.428 . S
C625 N624 1.351 1_455 S
C625 C626 1.434 . S
C626 C617 1.429 . S
C626 N623 1.350 1_455 S
C626 C625 1.434 . S
C627 C628 1.369 . S
C627 C629 1.419 . S
C627 H631 0.930 . S
C628 C627 1.369 . S
C628 C637 1.429 . S
C629 C627 1.419 . S
C629 C630 1.363 . S
C629 H632 0.929 1_545 S
C630 C629 1.363 . S
C630 C636 1.428 . S
H631 C627 0.930 . S
H632 C629 0.929 1_565 S
S633 N634 1.613 . S
S633 N635 1.610 . S
N634 S633 1.613 . S
N634 C637 1.350 . S
N635 S633 1.610 . S
N635 C636 1.351 . S
C636 C630 1.428 . S
C636 N635 1.351 . S
C636 C637 1.434 . S
C637 C628 1.429 . S
C637 N634 1.350 . S
C637 C636 1.434 . S
C638 C639 1.369 . S
C638 C640 1.419 . S
C638 H642 0.930 . S
C639 C638 1.369 . S
C639 C648 1.429 . S
C640 C638 1.419 . S
C640 C641 1.363 . S
C640 H643 0.929 . S
C641 C640 1.363 . S
C641 C647 1.428 . S
H642 C638 0.930 . S
H643 C640 0.929 . S
S644 N645 1.613 . S
S644 N646 1.610 . S
N645 S644 1.613 . S
N645 C648 1.350 . S
N646 S644 1.610 . S
N646 C647 1.351 . S
C647 C641 1.428 . S
C647 N646 1.351 . S
C647 C648 1.434 . S
C648 C639 1.429 . S
C648 N645 1.350 . S
C648 C647 1.434 . S
C649 C650 1.369 . S
C649 C651 1.419 . S
C649 H653 0.930 . S
C650 C649 1.369 . S
C650 C659 1.429 . S
C651 C649 1.419 . S
C651 C652 1.363 . S
C651 H654 0.929 . S
C652 C651 1.363 . S
C652 C658 1.428 . S
H653 C649 0.930 . S
H654 C651 0.929 . S
S655 N656 1.613 . S
S655 N657 1.610 . S
N656 S655 1.613 . S
N656 C659 1.350 . S
N657 S655 1.610 . S
N657 C658 1.351 . S
C658 C652 1.428 . S
C658 N657 1.351 . S
C658 C659 1.434 . S
C659 C650 1.429 . S
C659 N656 1.350 . S
C659 C658 1.434 . S
C660 C661 1.369 . S
C660 C662 1.415 1_655 S
C660 H664 0.930 1_655 S
C661 C660 1.369 . S
C661 C670 1.429 . S
C662 C660 1.415 1_455 S
C662 C663 1.340 1_455 S
C662 H665 0.958 . S
C663 C662 1.340 1_655 S
C663 C669 1.428 . S
H664 C660 0.930 1_455 S
H665 C662 0.958 . S
S666 N667 1.613 . S
S666 N668 1.610 . S
N667 S666 1.613 . S
N667 C670 1.350 . S
N668 S666 1.610 . S
N668 C669 1.351 . S
C669 C663 1.428 . S
C669 N668 1.351 . S
C669 C670 1.434 . S
C670 C661 1.429 . S
C670 N667 1.350 . S
C670 C669 1.434 . S
C671 C672 1.369 . S
C671 C673 1.419 . S
C671 H675 0.930 . S
C672 C671 1.369 . S
C672 C681 1.429 . S
C673 C671 1.419 . S
C673 C674 1.363 . S
C673 H676 0.929 . S
C674 C673 1.363 . S
C674 C680 1.428 . S
H675 C671 0.930 . S
H676 C673 0.929 . S
S677 N678 1.619 . S
S677 N679 1.610 . S
N678 S677 1.619 . S
N678 C681 1.343 1_545 S
N679 S677 1.610 . S
N679 C680 1.351 1_545 S
C680 C674 1.428 . S
C680 N679 1.351 1_565 S
C680 C681 1.434 . S
C681 C672 1.429 . S
C681 N678 1.343 1_565 S
C681 C680 1.434 . S
C682 C683 1.369 . S
C682 C684 1.419 . S
C682 H686 0.930 . S
C683 C682 1.369 . S
C683 C692 1.429 . S
C684 C682 1.419 . S
C684 C685 1.363 . S
C684 H687 0.929 . S
C685 C684 1.363 . S
C685 C691 1.428 . S
H686 C682 0.930 . S
H687 C684 0.929 . S
S688 N689 1.613 . S
S688 N690 1.610 . S
N689 S688 1.613 . S
N689 C692 1.350 . S
N690 S688 1.610 . S
N690 C691 1.351 . S
C691 C685 1.428 . S
C691 N690 1.351 . S
C691 C692 1.434 . S
C692 C683 1.429 . S
C692 N689 1.350 . S
C692 C691 1.434 . S
C693 C694 1.369 . S
C693 C695 1.419 . S
C693 H697 0.930 . S
C694 C693 1.369 . S
C694 C703 1.429 . S
C695 C693 1.419 . S
C695 C696 1.363 . S
C695 H698 0.929 . S
C696 C695 1.363 . S
C696 C702 1.428 . S
H697 C693 0.930 . S
H698 C695 0.929 . S
S699 N700 1.613 . S
S699 N701 1.610 . S
N700 S699 1.613 . S
N700 C703 1.350 . S
N701 S699 1.610 . S
N701 C702 1.351 . S
C702 C696 1.428 . S
C702 N701 1.351 . S
C702 C703 1.434 . S
C703 C694 1.429 . S
C703 N700 1.350 . S
C703 C702 1.434 . S
C441 C82 1.793 . S
C443 C179 2.080 . S
C454 C263 2.089 . S
C452 C95 1.813 . S
C465 C339 1.988 . S
C463 C56 1.894 . S
C476 C423 1.986 . S
C474 C69 1.869 . S
C487 C170 2.074 1_565 S
C485 C30 1.749 . S
C496 C43 1.757 . S
C498 C254 2.085 . S
C507 C4 1.819 . S
C509 C328 1.991 . S
C518 C17 1.805 . S
C520 C412 1.986 . S
C531 C167 0.950 . S
C529 C74 0.880 . S
C542 C251 0.907 . S
C540 C87 0.871 . S
C553 C344 0.879 . S
C551 C100 0.848 . S
C562 C61 0.871 . S
C564 C428 0.911 . S
C573 C22 0.875 . S
C575 C176 0.932 . S
C586 C260 0.902 . S
C584 C35 0.870 . S
C597 C335 0.874 . S
C595 C48 0.844 . S
C606 C9 0.867 . S
C608 C419 0.911 . S
C617 C73 2.094 . S
C619 C160 2.194 . S
C628 C86 2.084 . S
C630 C244 2.174 . S
C641 C338 2.270 . S
C639 C99 2.009 . S
C652 C422 2.287 . S
C650 C60 2.017 . S
C661 C21 2.094 . S
C663 C171 2.196 . S
C674 C255 2.174 . S
C672 C34 2.072 . S
C685 C347 2.270 . S
C683 C47 2.004 . S
C694 C8 2.015 . S
C696 C431 2.286 . S
