# Generated by pormake.
# Topology anh, (6,3)-cn, num edge types: 1
# Building blocks:
#     Node 0, Type 0, BuildingBlock: PAMTUU_clean_sbu_0, # of connection points: 6
#     Node 1, Type 0, BuildingBlock: PAMTUU_clean_sbu_0, # of connection points: 6
#     Node 2, Type 0, BuildingBlock: PAMTUU_clean_sbu_0, # of connection points: 6
#     Node 3, Type 1, BuildingBlock: BELTOD_clean_linker_0, # of connection points: 3
#     Node 4, Type 1, BuildingBlock: BELTOD_clean_linker_0, # of connection points: 3
#     Node 5, Type 1, BuildingBlock: BELTOD_clean_linker_0, # of connection points: 3
#     Node 6, Type 1, BuildingBlock: BELTOD_clean_linker_0, # of connection points: 3
#     Node 7, Type 1, BuildingBlock: BELTOD_clean_linker_0, # of connection points: 3
#     Node 8, Type 1, BuildingBlock: BELTOD_clean_linker_0, # of connection points: 3
#     Edge 9, Type (0, 1), BuildingBlock: CIFDUS_clean_linker_0, # of connection points: 2
#     Edge 10, Type (0, 1), BuildingBlock: CIFDUS_clean_linker_0, # of connection points: 2
#     Edge 11, Type (0, 1), BuildingBlock: CIFDUS_clean_linker_0, # of connection points: 2
#     Edge 12, Type (0, 1), BuildingBlock: CIFDUS_clean_linker_0, # of connection points: 2
#     Edge 13, Type (0, 1), BuildingBlock: CIFDUS_clean_linker_0, # of connection points: 2
#     Edge 14, Type (0, 1), BuildingBlock: CIFDUS_clean_linker_0, # of connection points: 2
#     Edge 15, Type (0, 1), BuildingBlock: CIFDUS_clean_linker_0, # of connection points: 2
#     Edge 16, Type (0, 1), BuildingBlock: CIFDUS_clean_linker_0, # of connection points: 2
#     Edge 17, Type (0, 1), BuildingBlock: CIFDUS_clean_linker_0, # of connection points: 2
#     Edge 18, Type (0, 1), BuildingBlock: CIFDUS_clean_linker_0, # of connection points: 2
#     Edge 19, Type (0, 1), BuildingBlock: CIFDUS_clean_linker_0, # of connection points: 2
#     Edge 20, Type (0, 1), BuildingBlock: CIFDUS_clean_linker_0, # of connection points: 2
#     Edge 21, Type (0, 1), BuildingBlock: CIFDUS_clean_linker_0, # of connection points: 2
#     Edge 22, Type (0, 1), BuildingBlock: CIFDUS_clean_linker_0, # of connection points: 2
#     Edge 23, Type (0, 1), BuildingBlock: CIFDUS_clean_linker_0, # of connection points: 2
#     Edge 24, Type (0, 1), BuildingBlock: CIFDUS_clean_linker_0, # of connection points: 2
#     Edge 25, Type (0, 1), BuildingBlock: CIFDUS_clean_linker_0, # of connection points: 2
#     Edge 26, Type (0, 1), BuildingBlock: CIFDUS_clean_linker_0, # of connection points: 2
# Relax obj value: 0.277
# Max RMSD: 0.188
# Mean RMSD: 0.152
data_MOF--net-anh--node1-PAMTUU_clean_sbu_0--node2-BELTOD_clean_linker_0--edge1-CIFDUS_clean_linker_0
_symmetry_space_group_name_H-M    P1
_symmetry_Int_Tables_number       1
_symmetry_cell_setting            triclinic
loop_
_symmetry_equiv_pos_as_xyz
'x, y, z'
_cell_length_a     30.191254
_cell_length_b     30.179663
_cell_length_c     54.766187
_cell_angle_alpha  91.479726
_cell_angle_beta   93.370762
_cell_angle_gamma 120.08437
loop_
_atom_site_label
_atom_site_type_symbol
_atom_site_fract_x
_atom_site_fract_y
_atom_site_fract_z
_atom_type_partial_charge
Tb0 Tb 0.12164 0.67958 0.16818 0.0
Tb1 Tb 0.1806 0.61636 0.1618 0.0
C2 C 0.14709 0.65344 0.1161 0.0
C3 C 1.01388 0.69456 0.18055 0.0
C4 C 0.90792 0.62557 0.18059 0.0
C5 C 0.92606 0.66921 0.16684 0.0
C6 C 0.97881 0.70344 0.16677 0.0
C7 C 0.99541 0.65372 0.19613 0.0
C8 C 0.94284 0.61958 0.19617 0.0
C9 C 1.06803 0.72058 0.17499 0.0
O10 O 1.06458 0.6009 0.17596 0.0
O11 O 1.09799 0.55962 0.15503 0.0
O12 O 0.15414 0.60584 0.19799 0.0
O13 O 0.1641 0.68501 0.20292 0.0
O14 O 0.18265 0.55511 0.14461 0.0
O15 O 0.23822 0.60082 0.17484 0.0
O16 O 0.24258 0.69723 0.1707 0.0
O17 O 0.19874 0.73959 0.16122 0.0
O18 O 1.11258 0.65567 0.12897 0.0
O19 O 0.18443 0.64911 0.1269 0.0
C20 C 1.05973 0.55838 0.16607 0.0
O21 O 1.10032 0.72049 0.19177 0.0
O22 O 1.07568 0.70813 0.15335 0.0
C23 C 0.16207 0.64465 0.21225 0.0
C24 C 0.26306 0.55899 0.14566 0.0
C25 C 0.32752 0.52887 0.12486 0.0
C26 C 0.33806 0.54893 0.14926 0.0
C27 C 0.3058 0.56355 0.15964 0.0
C28 C 0.2547 0.54219 0.12075 0.0
C29 C 0.2866 0.5271 0.11047 0.0
C30 C 0.22344 0.56346 0.15811 0.0
C31 C 0.24218 0.74028 0.16689 0.0
H32 H 0.89989 0.67447 0.15452 0.0
H33 H 0.99225 0.73444 0.15452 0.0
H34 H 1.02156 0.64577 0.20693 0.0
H35 H 0.92968 0.58647 0.20708 0.0
H36 H 0.36934 0.55041 0.16071 0.0
H37 H 0.3127 0.57584 0.17894 0.0
H38 H 0.22205 0.53816 0.10945 0.0
H39 H 0.2782 0.51227 0.09151 0.0
Tb40 Tb 0.58755 0.15559 0.49735 0.0
Tb41 Tb 0.71055 0.20049 0.50803 0.0
C42 C 0.66279 0.18914 0.45447 0.0
C43 C 0.45542 1.05842 0.49785 0.0
C44 C 0.41187 0.95219 0.50167 0.0
C45 C 0.39406 0.97122 0.48262 0.0
C46 C 0.41582 1.02406 0.48071 0.0
C47 C 0.46881 1.03944 0.51847 0.0
C48 C 0.44703 0.98669 0.5204 0.0
C49 C 0.49116 0.11056 0.49096 0.0
O50 O 0.59532 0.08939 0.50749 0.0
O51 O 0.6775 0.11847 0.49759 0.0
O52 O 0.6753 0.16224 0.54037 0.0
O53 O 0.60556 0.17245 0.53662 0.0
O54 O 0.7762 0.198 0.50041 0.0
O55 O 0.77897 0.24777 0.53031 0.0
O56 O 0.69863 0.26594 0.51532 0.0
O57 O 0.61893 0.23832 0.49535 0.0
O58 O 0.61721 0.15746 0.46169 0.0
O59 O 0.70254 0.21716 0.47024 0.0
C60 C 0.63309 0.08086 0.50339 0.0
O61 O 0.51763 0.14478 0.50887 0.0
O62 O 0.52034 0.11201 0.47407 0.0
C63 C 0.63583 0.16112 0.54964 0.0
C64 C 0.85614 0.27139 0.51173 0.0
C65 C 0.9568 0.33279 0.49832 0.0
C66 C 0.9481 0.31442 0.52189 0.0
C67 C 0.89813 0.2839 0.52851 0.0
C68 C 0.86443 0.2915 0.48855 0.0
C69 C 0.91449 0.322 0.48188 0.0
C70 C 0.80491 0.23253 0.51785 0.0
C71 C 0.66212 0.27501 0.50681 0.0
H72 H 0.36723 0.94566 0.46781 0.0
H73 H 0.40536 1.03791 0.46457 0.0
H74 H 0.49956 1.06514 0.53192 0.0
H75 H 0.46093 0.97308 0.53545 0.0
H76 H 0.97986 0.32171 0.53487 0.0
H77 H 0.89229 0.26828 0.5464 0.0
H78 H 0.83232 0.28214 0.47535 0.0
H79 H 0.92011 0.33633 0.46372 0.0
Tb80 Tb 0.63062 0.5658 0.82233 0.0
Tb81 Tb 0.6849 0.68692 0.83906 0.0
C82 C 0.65475 0.64583 0.78357 0.0
C83 C 0.60331 0.43293 0.81923 0.0
C84 C 0.62797 0.35875 0.83366 0.0
C85 C 0.57724 0.34448 0.82542 0.0
C86 C 0.56507 0.38129 0.81828 0.0
C87 C 0.65384 0.44779 0.82795 0.0
C88 C 0.66623 0.41081 0.83494 0.0
C89 C 0.58924 0.47104 0.81245 0.0
O90 O 0.71334 0.59338 0.82012 0.0
O91 O 0.75028 0.67433 0.83955 0.0
O92 O 0.65614 0.64155 0.87112 0.0
O93 O 0.66977 0.57819 0.85791 0.0
O94 O 0.70144 0.76128 0.83166 0.0
O95 O 0.72853 0.74657 0.86613 0.0
O96 O 0.60319 0.66299 0.83563 0.0
O97 O 0.56715 0.57528 0.83447 0.0
O98 O 0.61966 0.60222 0.7911 0.0
O99 O 0.69074 0.68117 0.79926 0.0
C100 C 0.75407 0.63587 0.83001 0.0
O101 O 0.57798 0.49109 0.83075 0.0
O102 O 0.61883 0.50549 0.79789 0.0
C103 C 0.66443 0.6038 0.87577 0.0
C104 C 0.69309 0.80072 0.86667 0.0
C105 C 0.61691 0.8251 0.87544 0.0
C106 C 0.61499 0.78183 0.88534 0.0
C107 C 0.65268 0.76951 0.88086 0.0
C108 C 0.69867 0.84744 0.85963 0.0
C109 C 0.66082 0.85971 0.86407 0.0
C110 C 0.72015 0.77883 0.85414 0.0
C111 C 0.56311 0.61678 0.83657 0.0
H112 H 0.54714 0.30453 0.82369 0.0
H113 H 0.52582 0.36939 0.81185 0.0
H114 H 0.68362 0.48784 0.82923 0.0
H115 H 0.70557 0.42275 0.84115 0.0
H116 H 0.58173 0.7549 0.89433 0.0
H117 H 0.64733 0.73304 0.8864 0.0
H118 H 0.72933 0.8718 0.84852 0.0
H119 H 0.66306 0.89318 0.8561 0.0
P120 P 0.67748 0.14435 0.22497 0.0
H121 H 0.65276 1.05748 0.19004 0.0
H122 H 0.57345 0.97801 0.17717 0.0
H123 H 0.48662 1.03491 0.21295 0.0
H124 H 0.56621 0.11488 0.2255 0.0
H125 H 0.71986 0.18036 0.17705 0.0
H126 H 0.78696 0.26409 0.16477 0.0
H127 H 0.7912 0.33236 0.23574 0.0
H128 H 0.72474 0.25041 0.24742 0.0
H129 H 0.71504 0.11838 0.27018 0.0
H130 H 0.62146 0.18536 0.25147 0.0
O131 O 0.71761 0.12147 0.22436 0.0
H132 H 0.70466 0.12751 0.31351 0.0
H133 H 0.60943 0.19276 0.29499 0.0
C134 C 0.61666 0.09295 0.20924 0.0
C135 C 0.6168 1.05371 0.19482 0.0
C136 C 0.57099 1.00752 0.18764 0.0
C137 C 0.52299 0.99875 0.19443 0.0
C138 C 0.52245 1.03959 0.20735 0.0
C139 C 0.56851 0.08586 0.21465 0.0
C140 C 0.71504 0.20825 0.21297 0.0
C141 C 0.7339 0.21377 0.18963 0.0
C142 C 0.77327 0.26185 0.18278 0.0
C143 C 0.79531 0.30604 0.19913 0.0
C144 C 0.77516 0.30031 0.2222 0.0
C145 C 0.73618 0.25257 0.22897 0.0
C146 C 0.66833 0.15036 0.25725 0.0
C147 C 0.69191 0.13475 0.27523 0.0
C148 C 0.68619 0.1402 0.30015 0.0
C149 C 0.65616 0.16077 0.30773 0.0
C150 C 0.63235 0.17623 0.28973 0.0
C151 C 0.63883 0.17156 0.26479 0.0
P152 P 0.69753 0.70781 0.55613 0.0
H153 H 0.75237 0.66909 0.52746 0.0
H154 H 0.73659 0.58362 0.51603 0.0
H155 H 0.58778 0.5173 0.54463 0.0
H156 H 0.60386 0.60369 0.556 0.0
H157 H 0.67698 0.73256 0.50626 0.0
H158 H 0.66213 0.80056 0.49155 0.0
H159 H 0.64651 0.83932 0.56567 0.0
H160 H 0.66156 0.77223 0.58012 0.0
H161 H 0.77673 0.7354 0.59667 0.0
H162 H 0.61245 0.67007 0.58851 0.0
O163 O 0.75952 0.74529 0.55166 0.0
H164 H 0.77473 0.73262 0.64095 0.0
H165 H 0.61014 0.66832 0.63314 0.0
C166 C 0.67925 0.64381 0.54256 0.0
C167 C 0.7158 0.63649 0.531 0.0
C168 C 0.707 0.58701 0.52468 0.0
C169 C 0.66111 0.54266 0.52959 0.0
C170 C 0.62359 0.55006 0.54035 0.0
C171 C 0.63264 0.59981 0.54683 0.0
C172 C 0.66885 0.74519 0.54432 0.0
C173 C 0.66842 0.7543 0.51927 0.0
C174 C 0.6607 0.79406 0.51091 0.0
C175 C 0.65329 0.82627 0.52736 0.0
C176 C 0.65127 0.81536 0.55226 0.0
C177 C 0.65955 0.77608 0.56059 0.0
C178 C 0.69478 0.70365 0.58912 0.0
C179 C 0.74009 0.72073 0.60437 0.0
C180 C 0.73896 0.71945 0.62987 0.0
C181 C 0.69239 0.70089 0.64089 0.0
C182 C 0.64677 0.68262 0.62546 0.0
C183 C 0.64797 0.68371 0.59987 0.0
P184 P 0.1813 0.66967 0.88629 0.0
H185 H 0.28782 0.73841 0.87549 0.0
H186 H 0.35944 0.72694 0.86734 0.0
H187 H 0.26071 0.56273 0.86535 0.0
H188 H 0.18721 0.57448 0.87337 0.0
H189 H 0.14157 0.7011 0.8438 0.0
H190 H 1.05527 0.68357 0.83024 0.0
H191 H 0.99131 0.56508 0.88145 0.0
H192 H 1.07782 0.58296 0.89498 0.0
H193 H 0.1501 0.71486 0.92443 0.0
H194 H 0.19636 0.60125 0.91982 0.0
O195 O 0.20615 0.73295 0.88505 0.0
H196 H 0.1462 0.70751 0.9686 0.0
H197 H 0.19099 0.59235 0.96393 0.0
C198 C 0.23102 0.65741 0.87506 0.0
C199 C 0.28043 0.69957 0.87288 0.0
C200 C 0.32213 0.69301 0.86836 0.0
C201 C 0.31664 0.64391 0.866 0.0
C202 C 0.26669 0.60121 0.86699 0.0
C203 C 0.22444 0.6079 0.87159 0.0
C204 C 0.11696 0.64335 0.87044 0.0
C205 C 1.10899 0.67028 0.85169 0.0
C206 C 1.05933 0.66074 0.84418 0.0
C207 C 1.0157 0.62342 0.85495 0.0
C208 C 1.02352 0.59408 0.87258 0.0
C209 C 1.07334 0.60407 0.88028 0.0
C210 C 0.17474 0.65957 0.91876 0.0
C211 C 0.15916 0.68802 0.9329 0.0
C212 C 0.15642 0.68339 0.95824 0.0
C213 C 0.16874 0.64967 0.97011 0.0
C214 C 0.18233 0.61961 0.95564 0.0
C215 C 0.18524 0.62447 0.93025 0.0
P216 P 0.36757 0.57573 0.39972 0.0
H217 H 0.41228 0.59756 0.4505 0.0
H218 H 0.43555 0.67105 0.47951 0.0
H219 H 0.42242 0.75531 0.41983 0.0
H220 H 0.40019 0.68328 0.39105 0.0
H221 H 0.30615 0.46317 0.39736 0.0
H222 H 0.22639 0.40399 0.41546 0.0
H223 H 0.22978 0.53318 0.45346 0.0
H224 H 0.30866 0.59095 0.43598 0.0
H225 H 0.40123 0.59571 0.34986 0.0
H226 H 0.27833 0.58775 0.38947 0.0
O227 O 0.40502 0.55164 0.39344 0.0
H228 H 0.36951 0.62144 0.31379 0.0
H229 H 0.24726 0.61384 0.35407 0.0
C230 C 0.4032 0.63438 0.41872 0.0
C231 C 0.41633 0.63259 0.44357 0.0
C232 C 0.42925 0.67423 0.46011 0.0
C233 C 0.42953 0.71784 0.45173 0.0
C234 C 0.42163 0.72149 0.42658 0.0
C235 C 0.4089 0.68018 0.41014 0.0
C236 C 0.31421 0.53129 0.41586 0.0
C237 C 0.29027 0.47836 0.41014 0.0
C238 C 0.24451 0.44472 0.42029 0.0
C239 C 0.22192 0.46381 0.4361 0.0
C240 C 0.24671 0.51688 0.44197 0.0
C241 C 0.2922 0.55016 0.43196 0.0
C242 C 0.34123 0.58811 0.37211 0.0
C243 C 0.36702 0.59862 0.35069 0.0
C244 C 0.34927 0.61399 0.33024 0.0
C245 C 0.30569 0.61942 0.33107 0.0
C246 C 0.28027 0.60904 0.35265 0.0
C247 C 0.29798 0.59377 0.37295 0.0
P248 P 0.52069 0.9693 0.74469 0.0
H249 H 0.61045 1.01497 0.78087 0.0
H250 H 0.63849 0.08068 0.81471 0.0
H251 H 0.50061 0.0883 0.79953 0.0
H252 H 0.47415 1.02517 0.76522 0.0
H253 H 0.50168 0.86471 0.73883 0.0
H254 H 0.46398 0.79763 0.76714 0.0
H255 H 0.39062 0.87345 0.79963 0.0
H256 H 0.42641 0.93932 0.77024 0.0
H257 H 0.53513 1.06957 0.73151 0.0
H258 H 0.4796 0.91951 0.69607 0.0
O259 O 0.5707 0.96209 0.73942 0.0
H260 H 0.53654 0.10433 0.69191 0.0
H261 H 0.48367 0.95545 0.65601 0.0
C262 C 0.54027 1.01539 0.77041 0.0
C263 C 0.58613 1.03061 0.7849 0.0
C264 C 0.60192 1.06762 0.80438 0.0
C265 C 0.57118 0.0886 0.80996 0.0
C266 C 0.52433 1.07164 0.79603 0.0
C267 C 0.50925 1.03569 0.77633 0.0
C268 C 0.46988 0.90892 0.7536 0.0
C269 C 0.47525 0.86564 0.75108 0.0
C270 C 0.4531 0.82682 0.76728 0.0
C271 C 0.42621 0.83162 0.78636 0.0
C272 C 0.4123 0.86955 0.78549 0.0
C273 C 0.43364 0.90782 0.76888 0.0
C274 C 0.50583 0.99135 0.71692 0.0
C275 C 0.52085 1.04336 0.71541 0.0
C276 C 0.52204 1.06353 0.69267 0.0
C277 C 0.50996 1.03242 0.67109 0.0
C278 C 0.49256 0.9799 0.67254 0.0
C279 C 0.49009 0.95941 0.69536 0.0
P280 P 0.5499 0.31299 0.04283 0.0
H281 H 0.58787 0.27455 0.08346 0.0
H282 H 0.65133 0.31969 0.11873 0.0
H283 H 0.67866 0.46469 0.0928 0.0
H284 H 0.61625 0.42009 0.05826 0.0
H285 H 0.45612 0.26153 0.06895 0.0
H286 H 0.39987 0.29199 0.08362 0.0
H287 H 0.48463 0.43179 0.04676 0.0
H288 H 0.54041 0.40223 0.03271 0.0
H289 H 0.65557 0.37037 0.0277 0.0
H290 H 0.50167 0.3166 0.99577 0.0
O291 O 0.52591 0.24965 0.04081 0.0
H292 H 0.69033 0.42879 0.99486 0.0
H293 H 0.53637 0.37522 0.96293 0.0
C294 C 0.59774 0.34406 0.06816 0.0
C295 C 0.60774 0.31604 0.08546 0.0
C296 C 0.64371 0.34177 0.1056 0.0
C297 C 0.66926 0.39566 0.10875 0.0
C298 C 0.65867 0.42314 0.09133 0.0
C299 C 0.62326 0.39762 0.07135 0.0
C300 C 0.50168 0.32895 0.04925 0.0
C301 C 0.46158 0.29809 0.06355 0.0
C302 C 0.42966 0.31551 0.07194 0.0
C303 C 0.43836 0.36435 0.06642 0.0
C304 C 0.47746 0.39421 0.05146 0.0
C305 C 0.509 0.3769 0.04315 0.0
C306 C 0.57594 0.34069 0.01467 0.0
C307 C 0.62924 0.37035 0.0134 0.0
C308 C 0.64913 0.40378 0.99464 0.0
C309 C 0.61585 0.40762 0.97693 0.0
C310 C 0.5627 0.37393 0.97683 0.0
C311 C 0.54293 0.34005 0.99538 0.0
H312 H 0.28735 0.43414 0.10287 0.0
H313 H 0.4313 0.57086 0.12576 0.0
H314 H 0.4783 0.53085 0.11024 0.0
H315 H 0.47801 0.45749 0.08989 0.0
H316 H 0.33434 0.32009 0.06747 0.0
H317 H 0.28716 0.35963 0.08344 0.0
C318 C 0.32903 0.45523 0.10421 0.0
C319 C 0.35607 0.50547 0.11509 0.0
C320 C 0.35553 0.43178 0.09556 0.0
C321 C 0.40994 0.53217 0.11735 0.0
C322 C 0.43667 0.50935 0.10851 0.0
C323 C 0.43633 0.43634 0.08844 0.0
C324 C 0.40947 0.38629 0.07733 0.0
C325 C 0.40981 0.45927 0.09755 0.0
C326 C 0.35562 0.35867 0.076 0.0
C327 C 0.32878 0.38135 0.08498 0.0
H328 H 0.9896 0.31928 0.45515 0.0
H329 H 1.04292 0.40837 0.52442 0.0
H330 H 0.13066 0.45292 0.51214 0.0
H331 H 0.19147 0.46834 0.48135 0.0
H332 H 0.13748 0.38322 0.41104 0.0
H333 H 1.05088 0.33431 0.42437 0.0
C334 C 1.02035 0.34886 0.46744 0.0
C335 C 1.00975 0.36081 0.49058 0.0
C336 C 1.0706 0.3745 0.46021 0.0
C337 C 1.05016 0.39835 0.50655 0.0
C338 C 1.10028 0.42385 0.49954 0.0
C339 C 0.16075 0.43918 0.4689 0.0
C340 C 0.17095 0.42975 0.44518 0.0
C341 C 1.11083 0.41242 0.47638 0.0
C342 C 0.13093 0.39094 0.42949 0.0
C343 C 1.08123 0.36336 0.437 0.0
H344 H 0.52892 0.74991 0.85336 0.0
H345 H 0.60007 0.90514 0.8844 0.0
H346 H 0.53106 0.91462 0.8641 0.0
H347 H 0.46595 0.88585 0.8296 0.0
H348 H 0.40076 0.73306 0.79582 0.0
H349 H 0.4495 0.71372 0.82652 0.0
C350 C 0.52746 0.78458 0.85698 0.0
C351 C 0.56899 0.82653 0.87053 0.0
C352 C 0.48876 0.79004 0.84461 0.0
C353 C 0.56831 0.87238 0.87407 0.0
C354 C 0.52898 0.87775 0.8624 0.0
C355 C 0.46014 0.84735 0.82974 0.0
C356 C 0.43089 0.81128 0.81009 0.0
C357 C 0.49092 0.83785 0.84644 0.0
C358 C 0.42362 0.76158 0.81058 0.0
C359 C 0.45211 0.75084 0.82794 0.0
H360 H 0.88003 0.52748 0.16896 0.0
H361 H 0.81818 0.62762 0.17842 0.0
H362 H 0.73383 0.55941 0.16086 0.0
H363 H 0.68256 0.47682 0.13727 0.0
H364 H 0.7472 0.37979 0.12504 0.0
H365 H 0.82498 0.44014 0.15045 0.0
C366 C 0.84755 0.53362 0.1681 0.0
C367 C 0.855 0.58223 0.17505 0.0
C368 C 0.79988 0.49484 0.15742 0.0
C369 C 0.81315 0.59044 0.1731 0.0
C370 C 0.76511 0.55155 0.16305 0.0
C371 C 0.7134 0.46855 0.14053 0.0
C372 C 0.7097 0.42455 0.12891 0.0
C373 C 0.75871 0.50441 0.15426 0.0
C374 C 0.74919 0.41345 0.13375 0.0
C375 C 0.79389 0.44823 0.14807 0.0
H376 H 0.48192 0.92187 0.5083 0.0
H377 H 0.32109 0.86379 0.48793 0.0
H378 H 0.31113 0.78161 0.47359 0.0
H379 H 0.35155 0.73228 0.46093 0.0
H380 H 0.51283 0.79182 0.4798 0.0
H381 H 0.51926 0.8675 0.50104 0.0
C382 C 0.44424 0.89068 0.50158 0.0
C383 C 0.40233 0.89902 0.49901 0.0
C384 C 0.4392 0.84421 0.49282 0.0
C385 C 0.35398 0.85842 0.48984 0.0
C386 C 0.34835 0.81156 0.48158 0.0
C387 C 0.38772 0.76141 0.47032 0.0
C388 C 0.43177 0.75725 0.46887 0.0
C389 C 0.39117 0.80494 0.48205 0.0
C390 C 0.4786 0.79463 0.48088 0.0
C391 C 0.48224 0.83786 0.4929 0.0
H392 H 0.57705 0.27515 0.85981 0.0
H393 H 0.70706 0.35103 0.81668 0.0
H394 H 0.7098 0.27194 0.81151 0.0
H395 H 0.66007 0.17786 0.80937 0.0
H396 H 0.52379 0.10075 0.84824 0.0
H397 H 0.53888 0.18322 0.86537 0.0
C398 C 0.60686 0.27457 0.8499 0.0
C399 C 0.64074 0.31813 0.838 0.0
C400 C 0.60639 0.22834 0.84589 0.0
C401 C 0.68018 0.31772 0.82579 0.0
C402 C 0.6814 0.27232 0.8226 0.0
C403 C 0.63511 0.17917 0.82249 0.0
C404 C 0.59047 0.1338 0.82728 0.0
C405 C 0.64248 0.22673 0.83109 0.0
C406 C 0.55809 0.13556 0.84418 0.0
C407 C 0.56649 0.18265 0.85377 0.0
H408 H 0.68731 1.03685 0.48601 0.0
H409 H 0.56798 1.00952 0.53327 0.0
H410 H 0.56348 0.92979 0.54492 0.0
H411 H 0.59404 0.86729 0.54228 0.0
H412 H 0.71138 0.89337 0.49388 0.0
H413 H 0.71492 0.97231 0.48188 0.0
C414 C 0.65996 1.01326 0.4987 0.0
C415 C 0.62793 1.02969 0.50861 0.0
C416 C 0.65691 0.96651 0.50511 0.0
C417 C 0.59285 0.99815 0.52507 0.0
C418 C 0.59049 0.95246 0.53192 0.0
C419 C 0.62049 0.89015 0.52911 0.0
C420 C 0.65233 0.87347 0.51907 0.0
C421 C 0.6224 0.93613 0.52214 0.0
C422 C 0.68571 0.90401 0.50176 0.0
C423 C 0.68812 0.94975 0.49498 0.0
H424 H 0.77917 0.55913 0.8327 0.0
H425 H 0.84759 0.7235 0.83275 0.0
H426 H 0.93306 0.73403 0.83939 0.0
H427 H 0.98934 0.69754 0.84703 0.0
H428 H 0.92188 0.53356 0.84873 0.0
H429 H 0.83627 0.52227 0.83988 0.0
C430 C 0.81278 0.59723 0.83383 0.0
C431 C 0.80631 0.64044 0.832 0.0
C432 C 0.86253 0.60327 0.83829 0.0
C433 C 0.85079 0.68944 0.83402 0.0
C434 C 0.89999 0.69557 0.83788 0.0
C435 C 0.9561 0.65918 0.84518 0.0
C436 C 0.96289 0.61652 0.84857 0.0
C437 C 0.90649 0.6529 0.8403 0.0
C438 C 0.91853 0.56733 0.8465 0.0
C439 C 0.86926 0.56078 0.8413 0.0
H440 H 0.3428 0.76325 0.17904 0.0
H441 H 0.25297 0.83534 0.16258 0.0
H442 H 0.32961 0.91968 0.16949 0.0
H443 H 0.42294 0.97478 0.18072 0.0
H444 H 0.51345 0.90343 0.19687 0.0
H445 H 0.43696 0.81871 0.18944 0.0
C446 C 0.33988 0.79731 0.17682 0.0
C447 C 0.29125 0.79193 0.17022 0.0
C448 C 0.38482 0.84669 0.1808 0.0
C449 C 0.28917 0.83728 0.16756 0.0
C450 C 0.33331 0.88604 0.17158 0.0
C451 C 0.42611 0.94082 0.18271 0.0
C452 C 0.47483 0.94647 0.1893 0.0
C453 C 0.38145 0.89147 0.17834 0.0
C454 C 0.47728 0.9012 0.19147 0.0
C455 C 0.43316 0.85229 0.18736 0.0
H456 H 0.59124 0.30781 0.50066 0.0
H457 H 0.7507 0.36336 0.52328 0.0
H458 H 0.76439 0.44922 0.53192 0.0
H459 H 0.73152 0.50942 0.53398 0.0
H460 H 0.572 0.45449 0.51196 0.0
H461 H 0.55828 0.36864 0.5026 0.0
C462 C 0.62912 0.33867 0.50734 0.0
C463 C 0.66985 0.32828 0.51115 0.0
C464 C 0.63685 0.38863 0.51264 0.0
C465 C 0.71841 0.36937 0.52008 0.0
C466 C 0.72638 0.41887 0.52508 0.0
C467 C 0.69374 0.47896 0.52691 0.0
C468 C 0.65295 0.4894 0.52376 0.0
C469 C 0.68594 0.4291 0.52154 0.0
C470 C 0.60422 0.44834 0.51496 0.0
C471 C 0.59634 0.39893 0.50941 0.0
H472 H 0.54045 0.67031 0.86979 0.0
H473 H 0.46937 0.55109 0.81182 0.0
H474 H 0.38661 0.5467 0.81589 0.0
H475 H 0.33447 0.5801 0.83498 0.0
H476 H 0.40686 0.69674 0.89436 0.0
H477 H 0.48703 0.69697 0.89145 0.0
C478 C 0.50682 0.64329 0.85808 0.0
C479 C 0.51167 0.61167 0.84025 0.0
C480 C 0.45889 0.64014 0.86095 0.0
C481 C 0.46714 0.5761 0.82563 0.0
C482 C 0.41965 0.57366 0.82794 0.0
C483 C 0.36773 0.6054 0.84735 0.0
C484 C 0.36418 0.63915 0.8646 0.0
C485 C 0.41497 0.60595 0.84538 0.0
C486 C 0.40809 0.67114 0.88054 0.0
C487 C 0.45432 0.6713 0.87891 0.0
H488 H 0.97414 0.53825 0.19019 0.0
H489 H 1.03568 0.46253 0.14764 0.0
H490 H 0.96 0.3794 0.15299 0.0
H491 H 0.87717 0.3267 0.17123 0.0
H492 H 0.81511 0.40324 0.21297 0.0
H493 H 0.88975 0.48596 0.20693 0.0
C494 C 0.971 0.50372 0.1819 0.0
C495 C 1.01134 0.50751 0.16846 0.0
C496 C 0.92701 0.45539 0.18515 0.0
C497 C 1.00586 0.46161 0.15806 0.0
C498 C 0.96231 0.41367 0.16114 0.0
C499 C 0.87926 0.36136 0.17869 0.0
C500 C 0.83984 0.3575 0.19295 0.0
C501 C 0.92263 0.40985 0.17481 0.0
C502 C 0.84465 0.40378 0.20249 0.0
C503 C 0.8875 0.45167 0.19884 0.0
H504 H 0.20902 0.64406 0.08465 0.0
H505 H 1.07662 0.66303 0.08578 0.0
H506 H 1.07085 0.66251 0.04096 0.0
H507 H 1.10348 0.65647 0.0013 0.0
H508 H 0.2372 0.63938 0.00103 0.0
H509 H 0.24151 0.63841 0.04551 0.0
C510 C 0.17883 0.6482 0.07521 0.0
C511 C 0.14337 0.65373 0.08878 0.0
C512 C 0.17567 0.64777 0.04944 0.0
C513 C 1.10453 0.6588 0.07597 0.0
C514 C 1.10118 0.65846 0.05027 0.0
C515 C 0.13382 0.65287 0.01093 0.0
C516 C 0.16979 0.64772 0.99751 0.0
C517 C 0.1366 0.65301 0.03678 0.0
C518 C 0.2083 0.64239 0.01055 0.0
C519 C 0.21114 0.64231 0.03613 0.0
H520 H 0.58928 0.15446 0.41585 0.0
H521 H 0.7532 0.22744 0.4328 0.0
H522 H 0.76562 0.22544 0.38922 0.0
H523 H 0.72993 0.20072 0.34612 0.0
H524 H 0.56654 0.13073 0.32898 0.0
H525 H 0.55403 0.13406 0.37261 0.0
C526 C 0.62777 0.17013 0.41003 0.0
C527 C 0.67018 0.19085 0.42774 0.0
C528 C 0.63477 0.16932 0.38481 0.0
C529 C 0.71978 0.21137 0.41971 0.0
C530 C 0.72696 0.21008 0.39473 0.0
C531 C 0.69159 0.18621 0.35196 0.0
C532 C 0.64919 0.16523 0.33428 0.0
C533 C 0.68474 0.18876 0.37711 0.0
C534 C 0.59985 0.14729 0.34215 0.0
C535 C 0.59266 0.149 0.36713 0.0
H536 H 0.72524 0.72474 0.7576 0.0
H537 H 0.58145 0.58099 0.74845 0.0
H538 H 0.58002 0.58574 0.70433 0.0
H539 H 0.62052 0.6279 0.66785 0.0
H540 H 0.7629 0.7727 0.67592 0.0
H541 H 0.76396 0.76979 0.72047 0.0
C542 C 0.69343 0.69471 0.74597 0.0
C543 C 0.65374 0.6525 0.75663 0.0
C544 C 0.69263 0.69743 0.72018 0.0
C545 C 0.61285 0.61396 0.74106 0.0
C546 C 0.61186 0.6165 0.71565 0.0
C547 C 0.65147 0.65932 0.67926 0.0
C548 C 0.69168 0.70024 0.66827 0.0
C549 C 0.6517 0.65771 0.70496 0.0
C550 C 0.73179 0.74007 0.68366 0.0
C551 C 0.7323 0.73867 0.70925 0.0
H552 H 0.56097 0.158 0.57638 0.0
H553 H 0.67409 0.11035 0.57564 0.0
H554 H 0.64234 1.06357 0.61212 0.0
H555 H 0.58218 1.03532 0.64409 0.0
H556 H 0.47215 0.08601 0.64683 0.0
H557 H 0.5024 0.13203 0.60948 0.0
C558 C 0.57898 0.13779 0.58434 0.0
C559 C 0.62 0.13793 0.57332 0.0
C560 C 0.56059 0.11092 0.60544 0.0
C561 C 0.64284 0.11143 0.58385 0.0
C562 C 0.62445 0.08425 0.60462 0.0
C563 C 0.56448 1.05594 0.63623 0.0
C564 C 0.52445 1.05665 0.64764 0.0
C565 C 0.58316 0.08341 0.61543 0.0
C566 C 0.50256 0.08454 0.63794 0.0
C567 C 0.52005 0.11098 0.61677 0.0
H568 H 0.71459 0.55817 0.89367 0.0
H569 H 0.60303 0.60064 0.91148 0.0
H570 H 0.57976 0.54455 0.94586 0.0
H571 H 0.58394 0.47527 0.96718 0.0
H572 H 0.69407 0.43174 0.94793 0.0
H573 H 0.72501 0.49626 0.91744 0.0
C574 C 0.68593 0.55598 0.90544 0.0
C575 C 0.66016 0.58297 0.90006 0.0
C576 C 0.67181 0.52265 0.92444 0.0
C577 C 0.62354 0.5804 0.91545 0.0
C578 C 0.60979 0.54781 0.93483 0.0
C579 C 0.61475 0.48009 0.95628 0.0
C580 C 0.63618 0.44833 0.95937 0.0
C581 C 0.63231 0.51729 0.93885 0.0
C582 C 0.67689 0.4556 0.94569 0.0
C583 C 0.69455 0.49243 0.92832 0.0
H584 H 0.25706 0.70236 0.23436 0.0
H585 H 1.10361 0.58376 0.24613 0.0
H586 H 0.1346 0.56747 0.2853 0.0
H587 H 0.20655 0.57996 0.31334 0.0
H588 H 0.36127 0.69504 0.30056 0.0
H589 H 0.32896 0.71919 0.2643 0.0
C590 C 0.23043 0.67431 0.24604 0.0
C591 C 0.17815 0.64504 0.23797 0.0
C592 C 0.24899 0.66354 0.26786 0.0
C593 C 0.14386 0.60735 0.2525 0.0
C594 C 0.16167 0.59766 0.27465 0.0
C595 C 0.23317 0.61094 0.30288 0.0
C596 C 0.28624 0.63547 0.30955 0.0
C597 C 0.21436 0.6244 0.28209 0.0
C598 C 0.32029 0.67497 0.29556 0.0
C599 C 0.30182 0.68908 0.27496 0.0
loop_
_geom_bond_atom_site_label_1
_geom_bond_atom_site_label_2
_geom_bond_distance
_geom_bond_site_symmetry_2
_ccdc_geom_bond_type
Tb0 C9 2.764 1_455 S
Tb0 O10 2.325 1_455 S
Tb0 O13 2.303 . S
Tb0 O17 2.322 . S
Tb0 O18 2.349 . S
Tb0 O21 2.415 1_455 S
Tb0 O22 2.399 1_455 S
Tb1 O11 2.322 1_455 S
Tb1 O12 2.349 . S
Tb1 O14 2.415 . S
Tb1 O15 2.399 . S
Tb1 O16 2.325 . S
Tb1 O19 2.303 . S
Tb1 C30 2.764 . S
C2 O18 1.261 . S
C2 O19 1.257 . S
C3 C6 1.358 . S
C3 C7 1.332 . S
C3 C9 1.504 . S
C4 C5 1.373 . S
C4 C8 1.308 . S
C5 C4 1.373 . S
C5 C6 1.429 . S
C5 H32 0.932 . S
C6 C3 1.358 . S
C6 C5 1.429 . S
C6 H33 0.930 . S
C7 C3 1.332 . S
C7 C8 1.394 . S
C7 H34 0.932 . S
C8 C4 1.308 . S
C8 C7 1.394 . S
C8 H35 0.929 . S
C9 Tb0 2.764 1_655 S
C9 C3 1.504 . S
C9 O21 1.239 . S
C9 O22 1.263 . S
O10 Tb0 2.325 1_655 S
O10 C20 1.236 . S
O11 Tb1 2.322 1_655 S
O11 C20 1.257 . S
O12 Tb1 2.349 . S
O12 C23 1.261 . S
O13 Tb0 2.303 . S
O13 C23 1.257 . S
O14 Tb1 2.415 . S
O14 C30 1.239 . S
O15 Tb1 2.399 . S
O15 C30 1.263 . S
O16 Tb1 2.325 . S
O16 C31 1.236 . S
O17 Tb0 2.322 . S
O17 C31 1.257 . S
O18 Tb0 2.349 . S
O18 C2 1.261 . S
O19 Tb1 2.303 . S
O19 C2 1.257 . S
C20 O10 1.236 . S
C20 O11 1.257 . S
O21 Tb0 2.415 1_655 S
O21 C9 1.239 . S
O22 Tb0 2.399 1_655 S
O22 C9 1.263 . S
C23 O12 1.261 . S
C23 O13 1.257 . S
C24 C27 1.358 . S
C24 C28 1.332 . S
C24 C30 1.504 . S
C25 C26 1.373 . S
C25 C29 1.308 . S
C26 C25 1.373 . S
C26 C27 1.429 . S
C26 H36 0.932 . S
C27 C24 1.358 . S
C27 C26 1.429 . S
C27 H37 0.930 . S
C28 C24 1.332 . S
C28 C29 1.394 . S
C28 H38 0.932 . S
C29 C25 1.308 . S
C29 C28 1.394 . S
C29 H39 0.929 . S
C30 Tb1 2.764 . S
C30 O14 1.239 . S
C30 O15 1.263 . S
C30 C24 1.504 . S
C31 O16 1.236 . S
C31 O17 1.257 . S
H32 C5 0.932 . S
H33 C6 0.930 . S
H34 C7 0.932 . S
H35 C8 0.929 . S
H36 C26 0.932 . S
H37 C27 0.930 . S
H38 C28 0.932 . S
H39 C29 0.929 . S
Tb40 C49 2.764 . S
Tb40 O50 2.325 . S
Tb40 O53 2.303 1_565 S
Tb40 O57 2.322 1_565 S
Tb40 O58 2.349 1_565 S
Tb40 O61 2.415 . S
Tb40 O62 2.399 . S
Tb41 O51 2.322 1_545 S
Tb41 O52 2.349 . S
Tb41 O54 2.415 . S
Tb41 O55 2.399 . S
Tb41 O56 2.325 . S
Tb41 O59 2.303 . S
Tb41 C70 2.764 . S
C42 O58 1.261 . S
C42 O59 1.257 . S
C43 C46 1.358 . S
C43 C47 1.332 . S
C43 C49 1.504 . S
C44 C45 1.373 . S
C44 C48 1.308 . S
C45 C44 1.373 . S
C45 C46 1.429 . S
C45 H72 0.932 . S
C46 C43 1.358 . S
C46 C45 1.429 . S
C46 H73 0.930 . S
C47 C43 1.332 . S
C47 C48 1.394 . S
C47 H74 0.932 . S
C48 C44 1.308 . S
C48 C47 1.394 . S
C48 H75 0.929 . S
C49 Tb40 2.764 . S
C49 C43 1.504 . S
C49 O61 1.239 . S
C49 O62 1.263 . S
O50 Tb40 2.325 . S
O50 C60 1.236 . S
O51 Tb41 2.322 1_565 S
O51 C60 1.257 . S
O52 Tb41 2.349 . S
O52 C63 1.261 . S
O53 Tb40 2.303 1_545 S
O53 C63 1.257 . S
O54 Tb41 2.415 . S
O54 C70 1.239 . S
O55 Tb41 2.399 . S
O55 C70 1.263 . S
O56 Tb41 2.325 . S
O56 C71 1.236 . S
O57 Tb40 2.322 1_545 S
O57 C71 1.257 . S
O58 Tb40 2.349 1_545 S
O58 C42 1.261 . S
O59 Tb41 2.303 . S
O59 C42 1.257 . S
C60 O50 1.236 . S
C60 O51 1.257 . S
O61 Tb40 2.415 . S
O61 C49 1.239 . S
O62 Tb40 2.399 . S
O62 C49 1.263 . S
C63 O52 1.261 . S
C63 O53 1.257 . S
C64 C67 1.358 . S
C64 C68 1.332 . S
C64 C70 1.504 . S
C65 C66 1.373 . S
C65 C69 1.308 . S
C66 C65 1.373 . S
C66 C67 1.429 . S
C66 H76 0.932 . S
C67 C64 1.358 . S
C67 C66 1.429 . S
C67 H77 0.930 . S
C68 C64 1.332 . S
C68 C69 1.394 . S
C68 H78 0.932 . S
C69 C65 1.308 . S
C69 C68 1.394 . S
C69 H79 0.929 . S
C70 Tb41 2.764 . S
C70 O54 1.239 . S
C70 O55 1.263 . S
C70 C64 1.504 . S
C71 O56 1.236 . S
C71 O57 1.257 . S
H72 C45 0.932 . S
H73 C46 0.930 . S
H74 C47 0.932 . S
H75 C48 0.929 . S
H76 C66 0.932 . S
H77 C67 0.930 . S
H78 C68 0.932 . S
H79 C69 0.929 . S
Tb80 C89 2.764 . S
Tb80 O90 2.325 . S
Tb80 O93 2.303 . S
Tb80 O97 2.322 . S
Tb80 O98 2.349 . S
Tb80 O101 2.415 . S
Tb80 O102 2.399 . S
Tb81 O91 2.322 . S
Tb81 O92 2.349 . S
Tb81 O94 2.415 . S
Tb81 O95 2.399 . S
Tb81 O96 2.325 . S
Tb81 O99 2.303 . S
Tb81 C110 2.764 . S
C82 O98 1.261 . S
C82 O99 1.257 . S
C83 C86 1.358 . S
C83 C87 1.332 . S
C83 C89 1.504 . S
C84 C85 1.373 . S
C84 C88 1.308 . S
C85 C84 1.373 . S
C85 C86 1.429 . S
C85 H112 0.932 . S
C86 C83 1.358 . S
C86 C85 1.429 . S
C86 H113 0.930 . S
C87 C83 1.332 . S
C87 C88 1.394 . S
C87 H114 0.932 . S
C88 C84 1.308 . S
C88 C87 1.394 . S
C88 H115 0.929 . S
C89 Tb80 2.764 . S
C89 C83 1.504 . S
C89 O101 1.239 . S
C89 O102 1.263 . S
O90 Tb80 2.325 . S
O90 C100 1.236 . S
O91 Tb81 2.322 . S
O91 C100 1.257 . S
O92 Tb81 2.349 . S
O92 C103 1.261 . S
O93 Tb80 2.303 . S
O93 C103 1.257 . S
O94 Tb81 2.415 . S
O94 C110 1.239 . S
O95 Tb81 2.399 . S
O95 C110 1.263 . S
O96 Tb81 2.325 . S
O96 C111 1.236 . S
O97 Tb80 2.322 . S
O97 C111 1.257 . S
O98 Tb80 2.349 . S
O98 C82 1.261 . S
O99 Tb81 2.303 . S
O99 C82 1.257 . S
C100 O90 1.236 . S
C100 O91 1.257 . S
O101 Tb80 2.415 . S
O101 C89 1.239 . S
O102 Tb80 2.399 . S
O102 C89 1.263 . S
C103 O92 1.261 . S
C103 O93 1.257 . S
C104 C107 1.358 . S
C104 C108 1.332 . S
C104 C110 1.504 . S
C105 C106 1.373 . S
C105 C109 1.308 . S
C106 C105 1.373 . S
C106 C107 1.429 . S
C106 H116 0.932 . S
C107 C104 1.358 . S
C107 C106 1.429 . S
C107 H117 0.930 . S
C108 C104 1.332 . S
C108 C109 1.394 . S
C108 H118 0.932 . S
C109 C105 1.308 . S
C109 C108 1.394 . S
C109 H119 0.929 . S
C110 Tb81 2.764 . S
C110 O94 1.239 . S
C110 O95 1.263 . S
C110 C104 1.504 . S
C111 O96 1.236 . S
C111 O97 1.257 . S
H112 C85 0.932 . S
H113 C86 0.930 . S
H114 C87 0.932 . S
H115 C88 0.929 . S
H116 C106 0.932 . S
H117 C107 0.930 . S
H118 C108 0.932 . S
H119 C109 0.929 . S
P120 O131 1.489 1_545 S
P120 C134 1.811 1_545 S
P120 C140 1.804 . S
P120 C146 1.819 . S
H121 C135 0.941 . S
H122 C136 0.939 . S
H123 C138 0.940 . S
H124 C139 0.940 . S
H125 C141 0.939 . S
H126 C142 0.942 . S
H127 C144 0.940 . S
H128 C145 0.939 . S
H129 C147 0.941 . S
H130 C151 0.939 . S
O131 P120 1.489 1_565 S
H132 C148 0.939 . S
H133 C150 0.940 . S
C134 P120 1.811 1_565 S
C134 C135 1.389 . S
C134 C139 1.391 . S
C135 H121 0.941 . S
C135 C134 1.389 . S
C135 C136 1.397 . S
C136 H122 0.939 . S
C136 C135 1.397 . S
C136 C137 1.378 . S
C137 C136 1.378 . S
C137 C138 1.378 . S
C138 H123 0.940 . S
C138 C137 1.378 . S
C138 C139 1.396 . S
C139 H124 0.940 . S
C139 C134 1.391 . S
C139 C138 1.396 . S
C140 P120 1.804 . S
C140 C141 1.378 . S
C140 C145 1.400 . S
C141 H125 0.939 . S
C141 C140 1.378 . S
C141 C142 1.361 . S
C142 H126 0.942 . S
C142 C141 1.361 . S
C142 C143 1.369 . S
C143 C142 1.369 . S
C143 C144 1.404 . S
C144 H127 0.940 . S
C144 C143 1.404 . S
C144 C145 1.389 . S
C145 H128 0.939 . S
C145 C140 1.400 . S
C145 C144 1.389 . S
C146 P120 1.819 . S
C146 C147 1.391 1_545 S
C146 C151 1.391 . S
C147 H129 0.941 . S
C147 C146 1.391 1_565 S
C147 C148 1.396 . S
C148 H132 0.939 . S
C148 C147 1.396 . S
C148 C149 1.397 1_565 S
C149 C148 1.397 1_545 S
C149 C150 1.385 . S
C150 H133 0.940 . S
C150 C149 1.385 . S
C150 C151 1.388 . S
C151 H130 0.939 . S
C151 C146 1.391 . S
C151 C150 1.388 . S
P152 O163 1.490 . S
P152 C166 1.812 . S
P152 C172 1.803 . S
P152 C178 1.819 . S
H153 C167 0.941 . S
H154 C168 0.939 . S
H155 C170 0.940 . S
H156 C171 0.940 . S
H157 C173 0.939 . S
H158 C174 0.942 . S
H159 C176 0.940 . S
H160 C177 0.939 . S
H161 C179 0.941 . S
H162 C183 0.939 . S
O163 P152 1.490 . S
H164 C180 0.939 . S
H165 C182 0.940 . S
C166 P152 1.812 . S
C166 C167 1.389 . S
C166 C171 1.391 . S
C167 H153 0.941 . S
C167 C166 1.389 . S
C167 C168 1.397 . S
C168 H154 0.939 . S
C168 C167 1.397 . S
C168 C169 1.378 . S
C169 C168 1.378 . S
C169 C170 1.378 . S
C170 H155 0.940 . S
C170 C169 1.378 . S
C170 C171 1.396 . S
C171 H156 0.940 . S
C171 C166 1.391 . S
C171 C170 1.396 . S
C172 P152 1.803 . S
C172 C173 1.378 . S
C172 C177 1.400 . S
C173 H157 0.939 . S
C173 C172 1.378 . S
C173 C174 1.361 . S
C174 H158 0.942 . S
C174 C173 1.361 . S
C174 C175 1.369 . S
C175 C174 1.369 . S
C175 C176 1.404 . S
C176 H159 0.940 . S
C176 C175 1.404 . S
C176 C177 1.389 . S
C177 H160 0.939 . S
C177 C172 1.400 . S
C177 C176 1.389 . S
C178 P152 1.819 . S
C178 C179 1.391 . S
C178 C183 1.391 . S
C179 H161 0.941 . S
C179 C178 1.391 . S
C179 C180 1.396 . S
C180 H164 0.939 . S
C180 C179 1.396 . S
C180 C181 1.397 . S
C181 C180 1.397 . S
C181 C182 1.385 . S
C182 H165 0.940 . S
C182 C181 1.385 . S
C182 C183 1.388 . S
C183 H162 0.939 . S
C183 C178 1.391 . S
C183 C182 1.388 . S
P184 O195 1.490 . S
P184 C198 1.812 . S
P184 C204 1.803 . S
P184 C210 1.819 . S
H185 C199 0.941 . S
H186 C200 0.939 . S
H187 C202 0.940 . S
H188 C203 0.940 . S
H189 C205 0.939 . S
H190 C206 0.942 . S
H191 C208 0.940 . S
H192 C209 0.939 . S
H193 C211 0.941 . S
H194 C215 0.939 . S
O195 P184 1.490 . S
H196 C212 0.939 . S
H197 C214 0.943 . S
C198 P184 1.812 . S
C198 C199 1.389 . S
C198 C203 1.391 . S
C199 H185 0.941 . S
C199 C198 1.389 . S
C199 C200 1.397 . S
C200 H186 0.939 . S
C200 C199 1.397 . S
C200 C201 1.378 . S
C201 C200 1.378 . S
C201 C202 1.378 . S
C202 H187 0.940 . S
C202 C201 1.378 . S
C202 C203 1.396 . S
C203 H188 0.940 . S
C203 C198 1.391 . S
C203 C202 1.396 . S
C204 P184 1.803 . S
C204 C205 1.378 . S
C204 C209 1.400 . S
C205 H189 0.939 . S
C205 C204 1.378 . S
C205 C206 1.361 1_455 S
C206 H190 0.942 . S
C206 C205 1.361 1_655 S
C206 C207 1.369 . S
C207 C206 1.369 . S
C207 C208 1.404 . S
C208 H191 0.940 . S
C208 C207 1.404 . S
C208 C209 1.389 1_655 S
C209 H192 0.939 . S
C209 C204 1.400 . S
C209 C208 1.389 1_455 S
C210 P184 1.819 . S
C210 C211 1.391 . S
C210 C215 1.391 . S
C211 H193 0.941 . S
C211 C210 1.391 . S
C211 C212 1.396 . S
C212 H196 0.939 . S
C212 C211 1.396 . S
C212 C213 1.397 . S
C213 C212 1.397 . S
C213 C214 1.385 . S
C214 H197 0.943 . S
C214 C213 1.385 . S
C214 C215 1.388 . S
C215 H194 0.939 . S
C215 C210 1.391 . S
C215 C214 1.388 . S
P216 O227 1.490 . S
P216 C230 1.812 . S
P216 C236 1.803 1_455 S
P216 C242 1.819 . S
H217 C231 0.941 . S
H218 C232 0.939 . S
H219 C234 0.940 . S
H220 C235 0.940 . S
H221 C237 0.939 . S
H222 C238 0.942 . S
H223 C240 0.940 . S
H224 C241 0.939 . S
H225 C243 0.941 . S
H226 C247 0.939 . S
O227 P216 1.490 . S
H228 C244 0.939 . S
H229 C246 0.940 . S
C230 P216 1.812 . S
C230 C231 1.389 . S
C230 C235 1.391 . S
C231 H217 0.941 . S
C231 C230 1.389 . S
C231 C232 1.397 . S
C232 H218 0.939 . S
C232 C231 1.397 . S
C232 C233 1.378 . S
C233 C232 1.378 . S
C233 C234 1.378 . S
C234 H219 0.940 . S
C234 C233 1.378 . S
C234 C235 1.396 . S
C235 H220 0.940 . S
C235 C230 1.391 . S
C235 C234 1.396 . S
C236 P216 1.803 1_655 S
C236 C237 1.378 . S
C236 C241 1.400 . S
C237 H221 0.939 . S
C237 C236 1.378 . S
C237 C238 1.361 . S
C238 H222 0.942 . S
C238 C237 1.361 . S
C238 C239 1.369 . S
C239 C238 1.369 . S
C239 C240 1.404 . S
C240 H223 0.940 . S
C240 C239 1.404 . S
C240 C241 1.389 . S
C241 H224 0.939 . S
C241 C236 1.400 . S
C241 C240 1.389 . S
C242 P216 1.819 . S
C242 C243 1.391 . S
C242 C247 1.391 1_455 S
C243 H225 0.941 . S
C243 C242 1.391 . S
C243 C244 1.396 . S
C244 H228 0.939 . S
C244 C243 1.396 . S
C244 C245 1.397 . S
C245 C244 1.397 . S
C245 C246 1.385 1_455 S
C246 H229 0.940 . S
C246 C245 1.385 1_655 S
C246 C247 1.388 . S
C247 H226 0.939 . S
C247 C242 1.391 1_655 S
C247 C246 1.388 . S
P248 O259 1.490 . S
P248 C262 1.812 . S
P248 C268 1.803 1_545 S
P248 C274 1.819 . S
H249 C263 0.941 . S
H250 C264 0.939 . S
H251 C266 0.940 . S
H252 C267 0.940 . S
H253 C269 0.939 . S
H254 C270 0.942 . S
H255 C272 0.940 . S
H256 C273 0.939 . S
H257 C275 0.941 . S
H258 C279 0.939 . S
O259 P248 1.490 . S
H260 C276 0.939 . S
H261 C278 0.940 . S
C262 P248 1.812 . S
C262 C263 1.389 . S
C262 C267 1.391 . S
C263 H249 0.941 . S
C263 C262 1.389 . S
C263 C264 1.397 . S
C264 H250 0.939 . S
C264 C263 1.397 . S
C264 C265 1.378 . S
C265 C264 1.378 . S
C265 C266 1.378 . S
C266 H251 0.940 . S
C266 C265 1.378 . S
C266 C267 1.396 . S
C267 H252 0.940 . S
C267 C262 1.391 . S
C267 C266 1.396 . S
C268 P248 1.803 1_565 S
C268 C269 1.378 . S
C268 C273 1.400 . S
C269 H253 0.939 . S
C269 C268 1.378 . S
C269 C270 1.361 . S
C270 H254 0.942 . S
C270 C269 1.361 . S
C270 C271 1.369 . S
C271 C270 1.369 . S
C271 C272 1.404 . S
C272 H255 0.940 . S
C272 C271 1.404 . S
C272 C273 1.389 . S
C273 H256 0.939 . S
C273 C268 1.400 . S
C273 C272 1.389 . S
C274 P248 1.819 . S
C274 C275 1.391 . S
C274 C279 1.391 1_545 S
C275 H257 0.941 . S
C275 C274 1.391 . S
C275 C276 1.396 . S
C276 H260 0.939 . S
C276 C275 1.396 . S
C276 C277 1.385 1_545 S
C277 C276 1.385 1_565 S
C277 C278 1.398 . S
C278 H261 0.940 . S
C278 C277 1.398 . S
C278 C279 1.388 . S
C279 H258 0.939 . S
C279 C274 1.391 1_565 S
C279 C278 1.388 . S
P280 O291 1.490 . S
P280 C294 1.812 . S
P280 C300 1.803 . S
P280 C306 1.819 . S
H281 C295 0.941 . S
H282 C296 0.939 . S
H283 C298 0.940 . S
H284 C299 0.940 . S
H285 C301 0.939 . S
H286 C302 0.942 . S
H287 C304 0.940 . S
H288 C305 0.939 . S
H289 C307 0.941 . S
H290 C311 0.939 . S
O291 P280 1.490 . S
H292 C308 0.939 1_556 S
H293 C310 0.940 . S
C294 P280 1.812 . S
C294 C295 1.389 . S
C294 C299 1.391 . S
C295 H281 0.941 . S
C295 C294 1.389 . S
C295 C296 1.397 . S
C296 H282 0.939 . S
C296 C295 1.397 . S
C296 C297 1.378 . S
C297 C296 1.378 . S
C297 C298 1.378 . S
C298 H283 0.940 . S
C298 C297 1.378 . S
C298 C299 1.396 . S
C299 H284 0.940 . S
C299 C294 1.391 . S
C299 C298 1.396 . S
C300 P280 1.803 . S
C300 C301 1.378 . S
C300 C305 1.400 . S
C301 H285 0.939 . S
C301 C300 1.378 . S
C301 C302 1.361 . S
C302 H286 0.942 . S
C302 C301 1.361 . S
C302 C303 1.369 . S
C303 C302 1.369 . S
C303 C304 1.404 . S
C304 H287 0.940 . S
C304 C303 1.404 . S
C304 C305 1.389 . S
C305 H288 0.939 . S
C305 C300 1.400 . S
C305 C304 1.389 . S
C306 P280 1.819 . S
C306 C307 1.391 . S
C306 C311 1.391 . S
C307 H289 0.941 . S
C307 C306 1.391 . S
C307 C308 1.396 . S
C308 H292 0.939 1_554 S
C308 C307 1.396 . S
C308 C309 1.397 . S
C309 C308 1.397 . S
C309 C310 1.385 . S
C310 H293 0.940 . S
C310 C309 1.385 . S
C310 C311 1.388 . S
C311 H290 0.939 . S
C311 C306 1.391 . S
C311 C310 1.388 . S
H312 C318 0.930 . S
H313 C321 0.930 . S
H314 C322 0.930 . S
H315 C323 0.930 . S
H316 C326 0.930 . S
H317 C327 0.930 . S
C318 H312 0.930 . S
C318 C319 1.355 . S
C318 C320 1.415 . S
C319 C318 1.355 . S
C319 C321 1.419 . S
C320 C318 1.415 . S
C320 C325 1.425 . S
C320 C327 1.409 . S
C321 H313 0.930 . S
C321 C319 1.419 . S
C321 C322 1.362 . S
C322 H314 0.930 . S
C322 C321 1.362 . S
C322 C325 1.409 . S
C323 H315 0.930 . S
C323 C324 1.355 . S
C323 C325 1.415 . S
C324 C323 1.355 . S
C324 C326 1.419 . S
C325 C320 1.425 . S
C325 C322 1.409 . S
C325 C323 1.415 . S
C326 H316 0.930 . S
C326 C324 1.419 . S
C326 C327 1.362 . S
C327 H317 0.930 . S
C327 C320 1.409 . S
C327 C326 1.362 . S
H328 C334 0.930 . S
H329 C337 0.930 . S
H330 C338 0.930 . S
H331 C339 0.930 . S
H332 C342 0.930 . S
H333 C343 0.930 . S
C334 H328 0.930 . S
C334 C335 1.355 . S
C334 C336 1.415 . S
C335 C334 1.355 . S
C335 C337 1.419 . S
C336 C334 1.415 . S
C336 C341 1.425 . S
C336 C343 1.409 . S
C337 H329 0.930 . S
C337 C335 1.419 . S
C337 C338 1.362 . S
C338 H330 0.930 . S
C338 C337 1.362 . S
C338 C341 1.409 . S
C339 H331 0.930 . S
C339 C340 1.355 . S
C339 C341 1.415 . S
C340 C339 1.355 . S
C340 C342 1.419 . S
C341 C336 1.425 . S
C341 C338 1.409 . S
C341 C339 1.415 . S
C342 H332 0.930 . S
C342 C340 1.419 . S
C342 C343 1.362 . S
C343 H333 0.930 . S
C343 C336 1.409 . S
C343 C342 1.362 . S
H344 C350 0.930 . S
H345 C353 0.930 . S
H346 C354 0.930 . S
H347 C355 0.930 . S
H348 C358 0.930 . S
H349 C359 0.930 . S
C350 H344 0.930 . S
C350 C351 1.355 . S
C350 C352 1.415 . S
C351 C350 1.355 . S
C351 C353 1.419 . S
C352 C350 1.415 . S
C352 C357 1.425 . S
C352 C359 1.409 . S
C353 H345 0.930 . S
C353 C351 1.419 . S
C353 C354 1.362 . S
C354 H346 0.930 . S
C354 C353 1.362 . S
C354 C357 1.409 . S
C355 H347 0.930 . S
C355 C356 1.355 . S
C355 C357 1.415 . S
C356 C355 1.355 . S
C356 C358 1.419 . S
C357 C352 1.425 . S
C357 C354 1.409 . S
C357 C355 1.415 . S
C358 H348 0.930 . S
C358 C356 1.419 . S
C358 C359 1.362 . S
C359 H349 0.930 . S
C359 C352 1.409 . S
C359 C358 1.362 . S
H360 C366 0.930 . S
H361 C369 0.930 . S
H362 C370 0.930 . S
H363 C371 0.930 . S
H364 C374 0.930 . S
H365 C375 0.930 . S
C366 H360 0.930 . S
C366 C367 1.355 . S
C366 C368 1.415 . S
C367 C366 1.355 . S
C367 C369 1.419 . S
C368 C366 1.415 . S
C368 C373 1.425 . S
C368 C375 1.409 . S
C369 H361 0.930 . S
C369 C367 1.419 . S
C369 C370 1.362 . S
C370 H362 0.930 . S
C370 C369 1.362 . S
C370 C373 1.409 . S
C371 H363 0.930 . S
C371 C372 1.355 . S
C371 C373 1.415 . S
C372 C371 1.355 . S
C372 C374 1.419 . S
C373 C368 1.425 . S
C373 C370 1.409 . S
C373 C371 1.415 . S
C374 H364 0.930 . S
C374 C372 1.419 . S
C374 C375 1.362 . S
C375 H365 0.930 . S
C375 C368 1.409 . S
C375 C374 1.362 . S
H376 C382 0.930 . S
H377 C385 0.930 . S
H378 C386 0.930 . S
H379 C387 0.930 . S
H380 C390 0.930 . S
H381 C391 0.930 . S
C382 H376 0.930 . S
C382 C383 1.355 . S
C382 C384 1.415 . S
C383 C382 1.355 . S
C383 C385 1.419 . S
C384 C382 1.415 . S
C384 C389 1.425 . S
C384 C391 1.409 . S
C385 H377 0.930 . S
C385 C383 1.419 . S
C385 C386 1.362 . S
C386 H378 0.930 . S
C386 C385 1.362 . S
C386 C389 1.409 . S
C387 H379 0.930 . S
C387 C388 1.355 . S
C387 C389 1.415 . S
C388 C387 1.355 . S
C388 C390 1.419 . S
C389 C384 1.425 . S
C389 C386 1.409 . S
C389 C387 1.415 . S
C390 H380 0.930 . S
C390 C388 1.419 . S
C390 C391 1.362 . S
C391 H381 0.930 . S
C391 C384 1.409 . S
C391 C390 1.362 . S
H392 C398 0.930 . S
H393 C401 0.930 . S
H394 C402 0.930 . S
H395 C403 0.930 . S
H396 C406 0.930 . S
H397 C407 0.930 . S
C398 H392 0.930 . S
C398 C399 1.355 . S
C398 C400 1.415 . S
C399 C398 1.355 . S
C399 C401 1.419 . S
C400 C398 1.415 . S
C400 C405 1.425 . S
C400 C407 1.409 . S
C401 H393 0.930 . S
C401 C399 1.419 . S
C401 C402 1.362 . S
C402 H394 0.930 . S
C402 C401 1.362 . S
C402 C405 1.409 . S
C403 H395 0.930 . S
C403 C404 1.355 . S
C403 C405 1.415 . S
C404 C403 1.355 . S
C404 C406 1.419 . S
C405 C400 1.425 . S
C405 C402 1.409 . S
C405 C403 1.415 . S
C406 H396 0.930 . S
C406 C404 1.419 . S
C406 C407 1.362 . S
C407 H397 0.930 . S
C407 C400 1.409 . S
C407 C406 1.362 . S
H408 C414 0.930 . S
H409 C417 0.930 . S
H410 C418 0.930 . S
H411 C419 0.930 . S
H412 C422 0.930 . S
H413 C423 0.930 . S
C414 H408 0.930 . S
C414 C415 1.355 . S
C414 C416 1.415 . S
C415 C414 1.355 . S
C415 C417 1.419 . S
C416 C414 1.415 . S
C416 C421 1.425 . S
C416 C423 1.409 . S
C417 H409 0.930 . S
C417 C415 1.419 . S
C417 C418 1.362 . S
C418 H410 0.930 . S
C418 C417 1.362 . S
C418 C421 1.409 . S
C419 H411 0.930 . S
C419 C420 1.355 . S
C419 C421 1.415 . S
C420 C419 1.355 . S
C420 C422 1.419 . S
C421 C416 1.425 . S
C421 C418 1.409 . S
C421 C419 1.415 . S
C422 H412 0.930 . S
C422 C420 1.419 . S
C422 C423 1.362 . S
C423 H413 0.930 . S
C423 C416 1.409 . S
C423 C422 1.362 . S
H424 C430 0.930 . S
H425 C433 0.930 . S
H426 C434 0.930 . S
H427 C435 0.930 . S
H428 C438 0.930 . S
H429 C439 0.930 . S
C430 H424 0.930 . S
C430 C431 1.355 . S
C430 C432 1.415 . S
C431 C430 1.355 . S
C431 C433 1.419 . S
C432 C430 1.415 . S
C432 C437 1.425 . S
C432 C439 1.409 . S
C433 H425 0.930 . S
C433 C431 1.419 . S
C433 C434 1.362 . S
C434 H426 0.930 . S
C434 C433 1.362 . S
C434 C437 1.409 . S
C435 H427 0.930 . S
C435 C436 1.355 . S
C435 C437 1.415 . S
C436 C435 1.355 . S
C436 C438 1.419 . S
C437 C432 1.425 . S
C437 C434 1.409 . S
C437 C435 1.415 . S
C438 H428 0.930 . S
C438 C436 1.419 . S
C438 C439 1.362 . S
C439 H429 0.930 . S
C439 C432 1.409 . S
C439 C438 1.362 . S
H440 C446 0.930 . S
H441 C449 0.930 . S
H442 C450 0.930 . S
H443 C451 0.930 . S
H444 C454 0.930 . S
H445 C455 0.930 . S
C446 H440 0.930 . S
C446 C447 1.355 . S
C446 C448 1.415 . S
C447 C446 1.355 . S
C447 C449 1.419 . S
C448 C446 1.415 . S
C448 C453 1.425 . S
C448 C455 1.409 . S
C449 H441 0.930 . S
C449 C447 1.419 . S
C449 C450 1.362 . S
C450 H442 0.930 . S
C450 C449 1.362 . S
C450 C453 1.409 . S
C451 H443 0.930 . S
C451 C452 1.355 . S
C451 C453 1.415 . S
C452 C451 1.355 . S
C452 C454 1.419 . S
C453 C448 1.425 . S
C453 C450 1.409 . S
C453 C451 1.415 . S
C454 H444 0.930 . S
C454 C452 1.419 . S
C454 C455 1.362 . S
C455 H445 0.930 . S
C455 C448 1.409 . S
C455 C454 1.362 . S
H456 C462 0.930 . S
H457 C465 0.930 . S
H458 C466 0.930 . S
H459 C467 0.930 . S
H460 C470 0.930 . S
H461 C471 0.930 . S
C462 H456 0.930 . S
C462 C463 1.355 . S
C462 C464 1.415 . S
C463 C462 1.355 . S
C463 C465 1.419 . S
C464 C462 1.415 . S
C464 C469 1.425 . S
C464 C471 1.409 . S
C465 H457 0.930 . S
C465 C463 1.419 . S
C465 C466 1.362 . S
C466 H458 0.930 . S
C466 C465 1.362 . S
C466 C469 1.409 . S
C467 H459 0.930 . S
C467 C468 1.355 . S
C467 C469 1.415 . S
C468 C467 1.355 . S
C468 C470 1.419 . S
C469 C464 1.425 . S
C469 C466 1.409 . S
C469 C467 1.415 . S
C470 H460 0.930 . S
C470 C468 1.419 . S
C470 C471 1.362 . S
C471 H461 0.930 . S
C471 C464 1.409 . S
C471 C470 1.362 . S
H472 C478 0.930 . S
H473 C481 0.930 . S
H474 C482 0.930 . S
H475 C483 0.930 . S
H476 C486 0.930 . S
H477 C487 0.930 . S
C478 H472 0.930 . S
C478 C479 1.355 . S
C478 C480 1.415 . S
C479 C478 1.355 . S
C479 C481 1.419 . S
C480 C478 1.415 . S
C480 C485 1.425 . S
C480 C487 1.409 . S
C481 H473 0.930 . S
C481 C479 1.419 . S
C481 C482 1.362 . S
C482 H474 0.930 . S
C482 C481 1.362 . S
C482 C485 1.409 . S
C483 H475 0.930 . S
C483 C484 1.355 . S
C483 C485 1.415 . S
C484 C483 1.355 . S
C484 C486 1.419 . S
C485 C480 1.425 . S
C485 C482 1.409 . S
C485 C483 1.415 . S
C486 H476 0.930 . S
C486 C484 1.419 . S
C486 C487 1.362 . S
C487 H477 0.930 . S
C487 C480 1.409 . S
C487 C486 1.362 . S
H488 C494 0.930 . S
H489 C497 0.930 . S
H490 C498 0.930 . S
H491 C499 0.930 . S
H492 C502 0.930 . S
H493 C503 0.930 . S
C494 H488 0.930 . S
C494 C495 1.355 . S
C494 C496 1.415 . S
C495 C494 1.355 . S
C495 C497 1.419 . S
C496 C494 1.415 . S
C496 C501 1.425 . S
C496 C503 1.409 . S
C497 H489 0.930 . S
C497 C495 1.419 . S
C497 C498 1.362 . S
C498 H490 0.930 . S
C498 C497 1.362 . S
C498 C501 1.409 . S
C499 H491 0.930 . S
C499 C500 1.355 . S
C499 C501 1.415 . S
C500 C499 1.355 . S
C500 C502 1.419 . S
C501 C496 1.425 . S
C501 C498 1.409 . S
C501 C499 1.415 . S
C502 H492 0.930 . S
C502 C500 1.419 . S
C502 C503 1.362 . S
C503 H493 0.930 . S
C503 C496 1.409 . S
C503 C502 1.362 . S
H504 C510 0.930 . S
H505 C513 0.930 . S
H506 C514 0.930 . S
H507 C515 0.930 . S
H508 C518 0.930 1_656 S
H509 C519 0.930 1_655 S
C510 H504 0.930 . S
C510 C511 1.355 . S
C510 C512 1.415 . S
C511 C510 1.355 . S
C511 C513 1.419 . S
C512 C510 1.415 . S
C512 C517 1.425 . S
C512 C519 1.409 . S
C513 H505 0.930 . S
C513 C511 1.419 . S
C513 C514 1.362 . S
C514 H506 0.930 . S
C514 C513 1.362 . S
C514 C517 1.409 . S
C515 H507 0.930 . S
C515 C516 1.343 1_554 S
C515 C517 1.415 . S
C516 C515 1.343 1_556 S
C516 C518 1.415 1_556 S
C517 C512 1.425 . S
C517 C514 1.409 . S
C517 C515 1.415 . S
C518 H508 0.930 1_454 S
C518 C516 1.415 1_554 S
C518 C519 1.362 . S
C519 H509 0.930 1_455 S
C519 C512 1.409 . S
C519 C518 1.362 . S
H520 C526 0.930 . S
H521 C529 0.930 . S
H522 C530 0.930 . S
H523 C531 0.930 . S
H524 C534 0.930 . S
H525 C535 0.930 . S
C526 H520 0.930 . S
C526 C527 1.355 . S
C526 C528 1.415 . S
C527 C526 1.355 . S
C527 C529 1.419 . S
C528 C526 1.415 . S
C528 C533 1.425 . S
C528 C535 1.409 . S
C529 H521 0.930 . S
C529 C527 1.419 . S
C529 C530 1.362 . S
C530 H522 0.930 . S
C530 C529 1.362 . S
C530 C533 1.409 . S
C531 H523 0.930 . S
C531 C532 1.355 . S
C531 C533 1.415 . S
C532 C531 1.355 . S
C532 C534 1.419 . S
C533 C528 1.425 . S
C533 C530 1.409 . S
C533 C531 1.415 . S
C534 H524 0.930 . S
C534 C532 1.419 . S
C534 C535 1.362 . S
C535 H525 0.930 . S
C535 C528 1.409 . S
C535 C534 1.362 . S
H536 C542 0.930 . S
H537 C545 0.930 . S
H538 C546 0.930 . S
H539 C547 0.930 . S
H540 C550 0.930 . S
H541 C551 0.930 . S
C542 H536 0.930 . S
C542 C543 1.355 . S
C542 C544 1.415 . S
C543 C542 1.355 . S
C543 C545 1.419 . S
C544 C542 1.415 . S
C544 C549 1.425 . S
C544 C551 1.409 . S
C545 H537 0.930 . S
C545 C543 1.419 . S
C545 C546 1.362 . S
C546 H538 0.930 . S
C546 C545 1.362 . S
C546 C549 1.409 . S
C547 H539 0.930 . S
C547 C548 1.355 . S
C547 C549 1.415 . S
C548 C547 1.355 . S
C548 C550 1.419 . S
C549 C544 1.425 . S
C549 C546 1.409 . S
C549 C547 1.415 . S
C550 H540 0.930 . S
C550 C548 1.419 . S
C550 C551 1.362 . S
C551 H541 0.930 . S
C551 C544 1.409 . S
C551 C550 1.362 . S
H552 C558 0.930 . S
H553 C561 0.930 . S
H554 C562 0.930 . S
H555 C563 0.930 . S
H556 C566 0.930 . S
H557 C567 0.930 . S
C558 H552 0.930 . S
C558 C559 1.355 . S
C558 C560 1.415 . S
C559 C558 1.355 . S
C559 C561 1.419 1_545 S
C560 C558 1.415 . S
C560 C565 1.425 1_545 S
C560 C567 1.409 . S
C561 H553 0.930 . S
C561 C559 1.419 1_565 S
C561 C562 1.362 . S
C562 H554 0.930 . S
C562 C561 1.362 . S
C562 C565 1.409 . S
C563 H555 0.930 . S
C563 C564 1.350 1_565 S
C563 C565 1.415 . S
C564 C563 1.350 1_545 S
C564 C566 1.427 . S
C565 C560 1.425 1_565 S
C565 C562 1.409 . S
C565 C563 1.415 . S
C566 H556 0.930 . S
C566 C564 1.427 . S
C566 C567 1.362 . S
C567 H557 0.930 . S
C567 C560 1.409 . S
C567 C566 1.362 . S
H568 C574 0.930 . S
H569 C577 0.930 . S
H570 C578 0.930 . S
H571 C579 0.930 . S
H572 C582 0.930 . S
H573 C583 0.930 . S
C574 H568 0.930 . S
C574 C575 1.355 . S
C574 C576 1.415 . S
C575 C574 1.355 . S
C575 C577 1.419 . S
C576 C574 1.415 . S
C576 C581 1.425 . S
C576 C583 1.409 . S
C577 H569 0.930 . S
C577 C575 1.419 . S
C577 C578 1.362 . S
C578 H570 0.930 . S
C578 C577 1.362 . S
C578 C581 1.409 . S
C579 H571 0.930 . S
C579 C580 1.355 . S
C579 C581 1.415 . S
C580 C579 1.355 . S
C580 C582 1.419 . S
C581 C576 1.425 . S
C581 C578 1.409 . S
C581 C579 1.415 . S
C582 H572 0.930 . S
C582 C580 1.419 . S
C582 C583 1.362 . S
C583 H573 0.930 . S
C583 C576 1.409 . S
C583 C582 1.362 . S
H584 C590 0.930 . S
H585 C593 0.930 . S
H586 C594 0.930 . S
H587 C595 0.930 . S
H588 C598 0.930 . S
H589 C599 0.930 . S
C590 H584 0.930 . S
C590 C591 1.355 . S
C590 C592 1.415 . S
C591 C590 1.355 . S
C591 C593 1.419 1_455 S
C592 C590 1.415 . S
C592 C597 1.425 1_455 S
C592 C599 1.409 . S
C593 H585 0.930 . S
C593 C591 1.419 1_655 S
C593 C594 1.362 . S
C594 H586 0.930 . S
C594 C593 1.362 . S
C594 C597 1.409 . S
C595 H587 0.930 . S
C595 C596 1.355 1_655 S
C595 C597 1.415 . S
C596 C595 1.355 1_455 S
C596 C598 1.419 . S
C597 C592 1.425 1_655 S
C597 C594 1.409 . S
C597 C595 1.415 . S
C598 H588 0.930 . S
C598 C596 1.419 . S
C598 C599 1.362 . S
C599 H589 0.930 . S
C599 C592 1.409 . S
C599 C598 1.362 . S
C319 C25 0.609 . S
C324 C303 0.450 . S
C335 C65 0.606 . S
C340 C239 0.514 . S
C351 C105 0.644 . S
C356 C271 0.689 . S
C367 C4 0.672 . S
C372 C297 0.515 . S
C388 C233 0.393 . S
C383 C44 0.442 . S
C404 C265 0.658 . S
C399 C84 0.616 . S
C415 C60 2.942 . S
C420 C175 2.855 . S
C431 C100 3.067 . S
C436 C207 3.006 . S
C447 C31 3.074 . S
C452 C137 3.010 . S
C468 C169 3.024 . S
C463 C71 3.081 . S
C484 C201 2.908 . S
C479 C111 2.963 . S
C495 C20 2.951 . S
C500 C143 2.893 . S
C516 C213 1.804 . S
C511 C2 1.757 . S
C527 C42 1.763 . S
C532 C149 1.786 . S
C543 C82 1.764 . S
C548 C181 1.751 . S
C564 C277 1.002 1_545 S
C559 C63 1.035 . S
C580 C309 1.084 1_556 S
C575 C103 1.055 . S
C591 C23 1.021 . S
C596 C245 1.007 . S
