# Generated by pormake.
# Topology zzz, (3,6)-cn, num edge types: 1
# Building blocks:
#     Node 0, Type 0, BuildingBlock: INOVEN_clean_linker_0, # of connection points: 3
#     Node 1, Type 0, BuildingBlock: INOVEN_clean_linker_0, # of connection points: 3
#     Node 2, Type 0, BuildingBlock: INOVEN_clean_linker_0, # of connection points: 3
#     Node 3, Type 0, BuildingBlock: INOVEN_clean_linker_0, # of connection points: 3
#     Node 4, Type 0, BuildingBlock: INOVEN_clean_linker_0, # of connection points: 3
#     Node 5, Type 0, BuildingBlock: INOVEN_clean_linker_0, # of connection points: 3
#     Node 6, Type 0, BuildingBlock: INOVEN_clean_linker_0, # of connection points: 3
#     Node 7, Type 0, BuildingBlock: INOVEN_clean_linker_0, # of connection points: 3
#     Node 8, Type 1, BuildingBlock: VOLQOD_clean_sbu_1, # of connection points: 6
#     Node 9, Type 1, BuildingBlock: VOLQOD_clean_sbu_1, # of connection points: 6
#     Node 10, Type 1, BuildingBlock: VOLQOD_clean_sbu_1, # of connection points: 6
#     Node 11, Type 1, BuildingBlock: VOLQOD_clean_sbu_1, # of connection points: 6
#     Edge 12, Type (0, 1), BuildingBlock: CIFDUS_clean_linker_0, # of connection points: 2
#     Edge 13, Type (0, 1), BuildingBlock: CIFDUS_clean_linker_0, # of connection points: 2
#     Edge 14, Type (0, 1), BuildingBlock: CIFDUS_clean_linker_0, # of connection points: 2
#     Edge 15, Type (0, 1), BuildingBlock: CIFDUS_clean_linker_0, # of connection points: 2
#     Edge 16, Type (0, 1), BuildingBlock: CIFDUS_clean_linker_0, # of connection points: 2
#     Edge 17, Type (0, 1), BuildingBlock: CIFDUS_clean_linker_0, # of connection points: 2
#     Edge 18, Type (0, 1), BuildingBlock: CIFDUS_clean_linker_0, # of connection points: 2
#     Edge 19, Type (0, 1), BuildingBlock: CIFDUS_clean_linker_0, # of connection points: 2
#     Edge 20, Type (0, 1), BuildingBlock: CIFDUS_clean_linker_0, # of connection points: 2
#     Edge 21, Type (0, 1), BuildingBlock: CIFDUS_clean_linker_0, # of connection points: 2
#     Edge 22, Type (0, 1), BuildingBlock: CIFDUS_clean_linker_0, # of connection points: 2
#     Edge 23, Type (0, 1), BuildingBlock: CIFDUS_clean_linker_0, # of connection points: 2
#     Edge 24, Type (0, 1), BuildingBlock: CIFDUS_clean_linker_0, # of connection points: 2
#     Edge 25, Type (0, 1), BuildingBlock: CIFDUS_clean_linker_0, # of connection points: 2
#     Edge 26, Type (0, 1), BuildingBlock: CIFDUS_clean_linker_0, # of connection points: 2
#     Edge 27, Type (0, 1), BuildingBlock: CIFDUS_clean_linker_0, # of connection points: 2
#     Edge 28, Type (0, 1), BuildingBlock: CIFDUS_clean_linker_0, # of connection points: 2
#     Edge 29, Type (0, 1), BuildingBlock: CIFDUS_clean_linker_0, # of connection points: 2
#     Edge 30, Type (0, 1), BuildingBlock: CIFDUS_clean_linker_0, # of connection points: 2
#     Edge 31, Type (0, 1), BuildingBlock: CIFDUS_clean_linker_0, # of connection points: 2
#     Edge 32, Type (0, 1), BuildingBlock: CIFDUS_clean_linker_0, # of connection points: 2
#     Edge 33, Type (0, 1), BuildingBlock: CIFDUS_clean_linker_0, # of connection points: 2
#     Edge 34, Type (0, 1), BuildingBlock: CIFDUS_clean_linker_0, # of connection points: 2
#     Edge 35, Type (0, 1), BuildingBlock: CIFDUS_clean_linker_0, # of connection points: 2
# Relax obj value: 0.193
# Max RMSD: 0.234
# Mean RMSD: 0.110
data_MOF--net-zzz--node1-VOLQOD_clean_sbu_1--node2-INOVEN_clean_linker_0--edge1-CIFDUS_clean_linker_0
_symmetry_space_group_name_H-M    P1
_symmetry_Int_Tables_number       1
_symmetry_cell_setting            triclinic
loop_
_symmetry_equiv_pos_as_xyz
'x, y, z'
_cell_length_a     44.759557
_cell_length_b     44.581308
_cell_length_c     15.346165
_cell_angle_alpha  89.831001
_cell_angle_beta   89.59756
_cell_angle_gamma 90.875031
loop_
_atom_site_label
_atom_site_type_symbol
_atom_site_fract_x
_atom_site_fract_y
_atom_site_fract_z
_atom_type_partial_charge
H0 H 0.78338 0.53493 0.29192 0.0
H1 H 0.8727 0.51729 0.20424 0.0
H2 H 0.79843 0.50006 0.03443 0.0
N3 N 0.75697 0.52127 0.13905 0.0
N4 N 0.74984 0.53522 0.07188 0.0
C5 C 0.79859 0.52717 0.24192 0.0
C6 C 0.82954 0.52691 0.25721 0.0
C7 C 0.78765 0.51862 0.15967 0.0
C8 C 0.8074 0.50773 0.09597 0.0
C9 C 0.83817 0.50632 0.11195 0.0
C10 C 0.84889 0.51685 0.19187 0.0
H11 H 0.02232 0.76266 0.29563 0.0
H12 H 0.03853 0.85413 0.21643 0.0
H13 H 0.0674 0.78259 0.05235 0.0
N14 N 0.04339 0.73779 0.14836 0.0
N15 N 0.04928 0.73039 0.07182 0.0
C16 C 0.03209 0.77873 0.25017 0.0
C17 C 0.02993 0.80971 0.26636 0.0
C18 C 0.04516 0.76871 0.17194 0.0
C19 C 0.05717 0.79 0.11254 0.0
C20 C 0.05447 0.82084 0.1271 0.0
C21 C 0.04141 0.83036 0.20505 0.0
H22 H 0.74078 0.9964 0.22715 0.0
H23 H 0.6517 0.0196 0.15257 0.0
H24 H 0.72617 0.04944 -0.00377 0.0
N25 N 0.76839 0.02236 0.08932 0.0
N26 N 0.77984 0.04145 0.03897 0.0
C27 C 0.72581 0.00803 0.1839 0.0
C28 C 0.69475 0.00698 0.19956 0.0
C29 C 0.73735 0.02354 0.11053 0.0
C30 C 0.71751 0.03808 0.05374 0.0
C31 C 0.68649 0.03646 0.06748 0.0
C32 C 0.6756 0.02143 0.14157 0.0
H33 H 0.51717 0.74464 0.30707 0.0
H34 H 0.48517 0.65421 0.27348 0.0
H35 H 0.459 0.72276 0.09326 0.0
N36 N 0.4904 0.76708 0.16582 0.0
N37 N 0.49714 0.77154 0.0877 0.0
C38 C 0.50321 0.72852 0.27298 0.0
C39 C 0.50255 0.69829 0.29911 0.0
C40 C 0.48756 0.73729 0.19808 0.0
C41 C 0.47053 0.71591 0.1517 0.0
C42 C 0.46912 0.68578 0.17897 0.0
C43 C 0.48478 0.67758 0.25368 0.0
H44 H 0.28189 0.49783 0.07046 0.0
H45 H 0.20132 0.54835 0.08409 0.0
H46 H 0.2583 0.54292 0.30785 0.0
N47 N 0.30271 0.51387 0.22706 0.0
N48 N 0.30745 0.51654 0.30683 0.0
C49 C 0.26727 0.5127 0.10592 0.0
C50 C 0.24013 0.52153 0.0692 0.0
C51 C 0.27473 0.52197 0.19077 0.0
C52 C 0.25376 0.53827 0.24008 0.0
C53 C 0.2265 0.5471 0.20352 0.0
C54 C 0.22154 0.54088 0.11532 0.0
H55 H 0.02445 0.26019 0.07845 0.0
H56 H 0.9764 0.17629 0.08881 0.0
H57 H 0.97892 0.2333 0.31418 0.0
N58 N 0.00635 0.27962 0.23611 0.0
N59 N 0.99012 0.2887 0.29674 0.0
C60 C 0.01042 0.24428 0.11394 0.0
C61 C 1.00211 0.21682 0.07572 0.0
C62 C 1.00015 0.25107 0.1984 0.0
C63 C 0.98405 0.22904 0.24642 0.0
C64 C 0.97614 0.20131 0.20912 0.0
C65 C 0.9835 0.19668 0.12138 0.0
H66 H 0.25345 0.0293 0.08738 0.0
H67 H 0.33127 0.9755 0.05449 0.0
H68 H 0.2882 0.97958 0.30472 0.0
N69 N 0.24003 0.01008 0.2487 0.0
N70 N 0.23837 0.00522 0.32882 0.0
C71 C 0.26936 0.01363 0.11355 0.0
C72 C 0.29348 0.00418 0.06202 0.0
C73 C 0.26615 0.00297 0.19979 0.0
C74 C 0.28905 0.98543 0.23626 0.0
C75 C 0.31346 0.97645 0.1848 0.0
C76 C 0.31341 0.98349 0.09608 0.0
H77 H 0.46227 0.25088 0.11198 0.0
H78 H 0.47509 0.34256 0.1935 0.0
H79 H 0.48432 0.27209 0.37953 0.0
N80 N 0.46986 0.22648 0.27285 0.0
N81 N 0.46556 0.21976 0.3511 0.0
C82 C 0.46702 0.2671 0.1626 0.0
C83 C 0.46776 0.2981 0.14296 0.0
C84 C 0.47213 0.25742 0.24917 0.0
C85 C 0.47948 0.27892 0.31335 0.0
C86 C 0.48037 0.30936 0.29283 0.0
C87 C 0.47408 0.31874 0.20873 0.0
O88 O 0.07798 0.01897 0.62883 0.0
Zn89 Zn 0.04536 0.01949 0.72295 0.0
O90 O 0.00542 0.01105 0.67171 0.0
Zn91 Zn 0.97924 0.04523 0.68904 0.0
Zn92 Zn 0.00973 0.00378 0.5475 0.0
Zn93 Zn 0.98629 0.97555 0.72439 0.0
O94 O 0.94347 0.03421 0.76427 0.0
O95 O 0.94809 0.98554 0.79085 0.0
O96 O 0.04646 0.0609 0.7801 0.0
O97 O 1.00155 0.07842 0.74885 0.0
O98 O 0.96543 0.06289 0.57548 0.0
O99 O 0.98756 0.03385 0.4784 0.0
O100 O 0.99504 0.96277 0.51401 0.0
O101 O 0.05574 0.9872 0.81203 0.0
O102 O 0.97846 0.94215 0.63742 0.0
O103 O 0.01509 0.95781 0.80615 0.0
C104 C 0.07719 0.01388 0.54704 0.0
C105 C 0.93406 0.01004 0.80044 0.0
C106 C 0.97112 0.05598 0.49675 0.0
C107 C 0.02738 0.08191 0.78175 0.0
C108 C 0.98347 0.94078 0.55582 0.0
C109 C 0.04107 0.96369 0.83503 0.0
O110 O 0.05265 0.00769 0.50921 0.0
O111 O 0.48303 0.05264 0.60261 0.0
Zn112 Zn 0.48466 0.02072 0.69661 0.0
O113 O 0.4954 0.98184 0.64254 0.0
Zn114 Zn 0.46507 0.95183 0.6738 0.0
Zn115 Zn 0.49778 0.98595 0.51642 0.0
Zn116 Zn 0.53377 0.96729 0.68218 0.0
O117 O 0.48046 0.92034 0.75597 0.0
O118 O 0.52958 0.92857 0.75244 0.0
O119 O 0.44239 0.01949 0.75168 0.0
O120 O 0.43048 0.97172 0.72892 0.0
O121 O 0.44608 0.93277 0.56904 0.0
O122 O 0.46482 0.96173 0.46369 0.0
O123 O 0.53728 0.97239 0.46758 0.0
O124 O 0.51734 0.0342 0.7819 0.0
O125 O 0.564 0.9619 0.58471 0.0
O126 O 0.55111 0.99887 0.75733 0.0
C127 C 0.48637 0.05297 0.51999 0.0
C128 C 0.5068 0.91347 0.7787 0.0
C129 C 0.44671 0.94125 0.48984 0.0
C130 C 0.42351 0.99773 0.75495 0.0
C131 C 0.56164 0.96439 0.50244 0.0
C132 C 0.5433 0.02332 0.79277 0.0
O133 O 0.49233 0.0291 0.47831 0.0
O134 O 0.45103 0.49381 0.68715 0.0
Zn135 Zn 0.48466 0.4939 0.77576 0.0
O136 O 0.52362 0.50152 0.71529 0.0
Zn137 Zn 0.55079 0.46856 0.73472 0.0
Zn138 Zn 0.51719 0.50614 0.59133 0.0
Zn139 Zn 0.54351 0.53773 0.75499 0.0
O140 O 0.58782 0.48095 0.80101 0.0
O141 O 0.58094 0.52954 0.82393 0.0
O142 O 0.48393 0.45238 0.83818 0.0
O143 O 0.52997 0.43788 0.80694 0.0
O144 O 0.55944 0.44523 0.62521 0.0
O145 O 0.53015 0.46918 0.5329 0.0
O146 O 0.53726 0.54302 0.5403 0.0
O147 O 0.4748 0.52974 0.85491 0.0
O148 O 0.55318 0.56695 0.6581 0.0
O149 O 0.51436 0.55923 0.82641 0.0
C150 C 0.44982 0.50105 0.60675 0.0
C151 C 0.59606 0.50582 0.83465 0.0
C152 C 0.5464 0.44702 0.55204 0.0
C153 C 0.50459 0.43286 0.84198 0.0
C154 C 0.5496 0.56572 0.57609 0.0
C155 C 0.48882 0.55483 0.86117 0.0
O156 O 0.47337 0.50793 0.56375 0.0
O157 O 0.98922 0.5552 0.56068 0.0
Zn158 Zn 0.03051 0.55056 0.61415 0.0
O159 O 0.0357 0.51084 0.66806 0.0
Zn160 Zn 0.04067 0.51457 0.79476 0.0
Zn161 Zn 1.00038 0.48662 0.64393 0.0
Zn162 Zn 0.07047 0.49071 0.61846 0.0
O163 O 0.07976 0.49658 0.83276 0.0
O164 O 0.10234 0.48387 0.70889 0.0
O165 O 0.03591 0.58254 0.70481 0.0
O166 O 0.04199 0.55852 0.83041 0.0
O167 O 0.00595 0.49508 0.85979 0.0
O168 O 0.97907 0.47523 0.75274 0.0
O169 O 0.01003 0.44973 0.57612 0.0
O170 O 0.06165 0.5583 0.52004 0.0
O171 O 0.05925 0.45141 0.55811 0.0
O172 O 0.08917 0.51718 0.52845 0.0
C173 C 0.96765 0.53647 0.55202 0.0
C174 C 0.10232 0.48657 0.79146 0.0
C175 C 0.98312 0.48046 0.83307 0.0
C176 C 0.04006 0.58282 0.78689 0.0
C177 C 0.03398 0.43851 0.54625 0.0
C178 C 0.08383 0.54276 0.49593 0.0
O179 O 0.96976 0.50957 0.57863 0.0
H180 H 0.18217 0.01299 0.26829 0.0
H181 H 0.23502 0.00666 0.50071 0.0
H182 H 0.18987 0.01045 0.59134 0.0
H183 H 0.13504 0.01313 0.60389 0.0
H184 H 0.08219 0.01677 0.36994 0.0
H185 H 0.12746 0.01648 0.28082 0.0
C186 C 0.18379 0.01286 0.33874 0.0
C187 C 0.21187 0.00988 0.37836 0.0
C188 C 0.15766 0.01431 0.39014 0.0
C189 C 0.21358 0.00918 0.46947 0.0
C190 C 0.1878 0.01123 0.52105 0.0
C191 C 0.13343 0.01408 0.53346 0.0
C192 C 0.10515 0.0149 0.49399 0.0
C193 C 0.15964 0.01345 0.48213 0.0
C194 C 0.10358 0.01594 0.4024 0.0
C195 C 0.1295 0.01583 0.35113 0.0
H196 H 0.48282 0.1676 0.27268 0.0
H197 H 0.44769 0.20607 0.50843 0.0
H198 H 0.45025 0.15759 0.58234 0.0
H199 H 0.46456 0.10516 0.5825 0.0
H200 H 0.50022 0.06546 0.34854 0.0
H201 H 0.49544 0.1133 0.27145 0.0
C202 C 0.47534 0.1651 0.33967 0.0
C203 C 0.46481 0.19019 0.38558 0.0
C204 C 0.4773 0.13705 0.38228 0.0
C205 C 0.45561 0.18685 0.47245 0.0
C206 C 0.45722 0.15924 0.51468 0.0
C207 C 0.47131 0.10686 0.51461 0.0
C208 C 0.48296 0.08172 0.47183 0.0
C209 C 0.46842 0.13431 0.47073 0.0
C210 C 0.49125 0.08443 0.38341 0.0
C211 C 0.48852 0.11182 0.33915 0.0
H212 H 0.31684 0.51259 0.47504 0.0
H213 H 0.36101 0.50789 0.22548 0.0
H214 H 0.40931 0.50213 0.29747 0.0
H215 H 0.4391 0.50044 0.432 0.0
H216 H 0.39442 0.50373 0.68197 0.0
H217 H 0.34622 0.50782 0.60959 0.0
C218 C 0.33711 0.50996 0.43689 0.0
C219 C 0.33547 0.51059 0.34572 0.0
C220 C 0.36466 0.50656 0.47879 0.0
C221 C 0.36171 0.50728 0.29597 0.0
C222 C 0.38932 0.50412 0.33715 0.0
C223 C 0.41882 0.502 0.47069 0.0
C224 C 0.42045 0.50203 0.56243 0.0
C225 C 0.3911 0.50407 0.42859 0.0
C226 C 0.39387 0.50366 0.61142 0.0
C227 C 0.36628 0.50607 0.57006 0.0
H228 H 0.04042 0.32423 0.30053 0.0
H229 H 0.9501 0.31388 0.39578 0.0
H230 H 0.95553 0.3595 0.4825 0.0
H231 H 0.98579 0.4016 0.5324 0.0
H232 H 0.07702 0.41228 0.44355 0.0
H233 H 0.07163 0.36711 0.35387 0.0
C234 C 0.02196 0.33226 0.33968 0.0
C235 C 0.99462 0.31616 0.34144 0.0
C236 C 0.02553 0.35829 0.39098 0.0
C237 C 0.97109 0.3263 0.39347 0.0
C238 C 0.97424 0.35222 0.44308 0.0
C239 C 1.00459 0.39416 0.49352 0.0
C240 C 0.03174 0.41042 0.49471 0.0
C241 C 1.00136 0.36829 0.44264 0.0
C242 C 0.05587 0.40016 0.44422 0.0
C243 C 0.05276 0.37439 0.39259 0.0
H244 H 0.81574 0.99276 0.02792 0.0
H245 H 0.80981 0.08718 0.97238 0.0
H246 H 0.85797 0.08638 0.89611 0.0
H247 H 0.89995 0.0584 0.83748 0.0
H248 H 0.90574 0.9633 0.88664 0.0
H249 H 0.85955 0.9647 0.97276 0.0
C250 C 0.82539 0.01319 0.00063 0.0
C251 C 0.80961 0.04025 0.00654 0.0
C252 C 0.85281 0.01231 0.95461 0.0
C253 C 0.82192 0.06635 0.96918 0.0
C254 C 0.84928 0.06582 0.92519 0.0
C255 C 0.89126 0.03792 0.8671 0.0
C256 C 0.90635 0.01075 0.85479 0.0
C257 C 0.86465 0.03884 0.91608 0.0
C258 C 0.89462 0.98454 0.89441 0.0
C259 C 0.86818 0.98532 0.9439 0.0
H260 H 0.53239 0.78902 0.95821 0.0
H261 H 0.46244 0.81866 0.12979 0.0
H262 H 0.45941 0.86603 0.04877 0.0
H263 H 0.47481 0.8976 0.92283 0.0
H264 H 0.54795 0.86979 0.75937 0.0
H265 H 0.55193 0.82321 0.84334 0.0
C266 C 0.5169 0.80619 0.9783 0.0
C267 C 0.49777 0.80059 0.04945 0.0
C268 C 0.51577 0.83349 0.93247 0.0
C269 C 0.47762 0.82273 0.07564 0.0
C270 C 0.47576 0.84967 0.02896 0.0
C271 C 0.49174 0.88138 0.90627 0.0
C272 C 0.51085 0.88682 0.83458 0.0
C273 C 0.49441 0.85508 0.95637 0.0
C274 C 0.53302 0.86598 0.8143 0.0
C275 C 0.53522 0.83935 0.86208 0.0
H276 H 0.71076 0.48894 0.06761 0.0
H277 H 0.72389 0.58178 -0.00153 0.0
H278 H 0.67583 0.5818 0.92261 0.0
H279 H 0.63185 0.55429 0.86757 0.0
H280 H 0.6215 0.45979 0.9234 0.0
H281 H 0.6666 0.46129 0.01225 0.0
C282 C 0.70259 0.50927 0.03769 0.0
C283 C 0.72018 0.53563 0.04019 0.0
C284 C 0.67572 0.50858 0.99055 0.0
C285 C 0.71019 0.56154 -0.0016 0.0
C286 C 0.68292 0.56144 0.95462 0.0
C287 C 0.63938 0.53408 0.89963 0.0
C288 C 0.62335 0.50697 0.88876 0.0
C289 C 0.66576 0.53493 0.94886 0.0
C290 C 0.63356 0.4809 0.93008 0.0
C291 C 0.65928 0.48176 0.98127 0.0
H292 H 0.05649 0.71688 0.90928 0.0
H293 H 0.03755 0.67781 0.16052 0.0
H294 H 0.0338 0.62767 0.09403 0.0
H295 H 0.03517 0.59533 0.96186 0.0
H296 H 0.05232 0.63663 0.71092 0.0
H297 H 0.05746 0.68545 0.77947 0.0
C298 C 0.05163 0.69723 0.94912 0.0
C299 C 0.04738 0.70077 0.03875 0.0
C300 C 0.04911 0.66896 0.91034 0.0
C301 C 0.04092 0.6755 0.09096 0.0
C302 C 0.03878 0.64692 0.05287 0.0
C303 C 0.04012 0.61502 0.92238 0.0
C304 C 0.04331 0.61222 0.83118 0.0
C305 C 0.04272 0.6434 0.96231 0.0
C306 C 0.04955 0.63803 0.78097 0.0
C307 C 0.05258 0.66602 0.8201 0.0
H308 H 0.9838 0.1412 0.18281 0.0
H309 H 0.94161 0.20306 0.36057 0.0
H310 H 0.93254 0.16203 0.46316 0.0
H311 H 0.94334 0.11015 0.50964 0.0
H312 H 0.98185 0.04901 0.32335 0.0
H313 H 0.98345 0.08839 0.21401 0.0
C314 C 0.97136 0.14609 0.24163 0.0
C315 C 0.96422 0.17584 0.26369 0.0
C316 C 0.96537 0.12239 0.29912 0.0
C317 C 0.94865 0.18082 0.34243 0.0
C318 C 0.9431 0.15724 0.40108 0.0
C319 C 0.95132 0.1052 0.44444 0.0
C320 C 0.9634 0.07691 0.42578 0.0
C321 C 0.9525 0.12814 0.38143 0.0
C322 C 0.97305 0.07074 0.34037 0.0
C323 C 0.97414 0.09331 0.27769 0.0
H324 H 0.31985 0.93899 0.32776 0.0
H325 H 0.37088 0.98785 0.13115 0.0
H326 H 0.41669 0.97201 0.19498 0.0
H327 H 0.44283 0.9526 0.31834 0.0
H328 H 0.39373 0.91223 0.53238 0.0
H329 H 0.34735 0.91568 0.44973 0.0
C330 C 0.34095 0.94606 0.29867 0.0
C331 C 0.34131 0.96419 0.22325 0.0
C332 C 0.36795 0.93847 0.33929 0.0
C333 C 0.3692 0.97291 0.18673 0.0
C334 C 0.3958 0.96421 0.22397 0.0
C335 C 0.42212 0.94389 0.3464 0.0
C336 C 0.42166 0.93294 0.43204 0.0
C337 C 0.39545 0.94796 0.30166 0.0
C338 C 0.39472 0.92108 0.4666 0.0
C339 C 0.36807 0.92345 0.41985 0.0
H340 H 0.53466 0.32192 0.36204 0.0
H341 H 0.4426 0.34899 0.36157 0.0
H342 H 0.45587 0.39492 0.4393 0.0
H343 H 0.49354 0.42849 0.49674 0.0
H344 H 0.58584 0.40247 0.50611 0.0
H345 H 0.57282 0.35476 0.43368 0.0
C346 C 0.51758 0.3376 0.38153 0.0
C347 C 0.48772 0.33233 0.35752 0.0
C348 C 0.52553 0.36423 0.42482 0.0
C349 C 0.4656 0.35273 0.3809 0.0
C350 C 0.47323 0.37903 0.42415 0.0
C351 C 0.51099 0.41261 0.48175 0.0
C352 C 0.54077 0.41926 0.50333 0.0
C353 C 0.50316 0.3853 0.44398 0.0
C354 C 0.5629 0.39797 0.4876 0.0
C355 C 0.55539 0.37073 0.44714 0.0
H356 H 0.16666 0.53741 0.1787 0.0
H357 H 0.22855 0.57997 0.35707 0.0
H358 H 0.18786 0.58646 0.46164 0.0
H359 H 0.1363 0.57286 0.50955 0.0
H360 H 0.07537 0.53301 0.32562 0.0
H361 H 0.11418 0.53443 0.21288 0.0
C362 C 0.17157 0.54949 0.2381 0.0
C363 C 0.20123 0.55764 0.25953 0.0
C364 C 0.14808 0.55381 0.29689 0.0
C365 C 0.20634 0.57243 0.3392 0.0
C366 C 0.18298 0.57643 0.399 0.0
C367 C 0.13137 0.5657 0.44362 0.0
C368 C 0.10325 0.55303 0.42481 0.0
C369 C 0.154 0.56612 0.37973 0.0
C370 C 0.09688 0.5432 0.34035 0.0
C371 C 0.11913 0.5437 0.27649 0.0
H372 H 0.07775 0.87813 0.13858 0.0
H373 H 0.04291 0.81351 0.95429 0.0
H374 H 0.041 0.85203 0.84301 0.0
H375 H 0.0404 0.905 0.80561 0.0
H376 H 0.07136 0.97128 0.98898 0.0
H377 H 0.08346 0.93131 0.09333 0.0
C378 C 0.0701 0.87242 0.07375 0.0
C379 C 0.06014 0.84291 0.05565 0.0
C380 C 0.06782 0.89509 0.01038 0.0
C381 C 0.05101 0.8358 0.97053 0.0
C382 C 0.0495 0.85796 0.90677 0.0
C383 C 0.05033 0.91062 0.86795 0.0
C384 C 0.05456 0.94081 0.89081 0.0
C385 C 0.05654 0.88778 0.92725 0.0
C386 C 0.06787 0.94806 0.97061 0.0
C387 C 0.07456 0.92525 0.03019 0.0
H388 H 0.63083 0.06095 0.08785 0.0
H389 H 0.69345 0.03172 0.89093 0.0
H390 H 0.65427 0.03202 0.78287 0.0
H391 H 0.60108 0.02908 0.75228 0.0
H392 H 0.53671 0.05188 0.95041 0.0
H393 H 0.5775 0.06529 0.05021 0.0
C394 C 0.636 0.05497 0.02105 0.0
C395 C 0.66505 0.04553 -0.00137 0.0
C396 C 0.61284 0.05334 0.95985 0.0
C397 C 0.67152 0.03909 0.91087 0.0
C398 C 0.64894 0.03882 0.84888 0.0
C399 C 0.596 0.03763 0.81681 0.0
C400 C 0.56614 0.03894 0.8451 0.0
C401 C 0.61935 0.04413 0.87396 0.0
C402 C 0.55962 0.05058 0.92774 0.0
C403 C 0.58293 0.05798 0.98478 0.0
H404 H 0.47221 0.68257 0.00282 0.0
H405 H 0.43901 0.6338 0.22751 0.0
H406 H 0.43758 0.58746 0.14297 0.0
H407 H 0.45676 0.55953 0.01433 0.0
H408 H 0.4896 0.60996 0.79224 0.0
H409 H 0.47923 0.65684 0.8657 0.0
C410 C 0.46336 0.66221 0.03275 0.0
C411 C 0.45689 0.66152 0.12231 0.0
C412 C 0.46306 0.63563 0.98436 0.0
C413 C 0.44523 0.63475 0.1592 0.0
C414 C 0.44448 0.60817 0.111 0.0
C415 C 0.46071 0.58081 0.98147 0.0
C416 C 0.47476 0.58142 0.89943 0.0
C417 C 0.45518 0.60801 0.02496 0.0
C418 C 0.47952 0.60906 0.85667 0.0
C419 C 0.47358 0.63591 0.89847 0.0
H420 H 0.89005 0.47607 0.13883 0.0
H421 H 0.83497 0.51158 0.93346 0.0
H422 H 0.87362 0.50028 0.82699 0.0
H423 H 0.92557 0.4883 0.79559 0.0
H424 H 0.98416 0.46298 0.00429 0.0
H425 H 0.94187 0.46313 0.10701 0.0
C426 C 0.88648 0.48175 0.07101 0.0
C427 C 0.85969 0.49537 0.04511 0.0
C428 C 0.90966 0.47735 0.01095 0.0
C429 C 0.85511 0.50101 0.95599 0.0
C430 C 0.87741 0.49489 0.89491 0.0
C431 C 0.92893 0.48211 0.86324 0.0
C432 C 0.95773 0.47539 0.89272 0.0
C433 C 0.90511 0.48414 0.92221 0.0
C434 C 0.96207 0.4681 0.98059 0.0
C435 C 0.93797 0.46831 0.03903 0.0
H436 H 0.05044 0.18291 0.05597 0.0
H437 H 0.97879 0.22326 0.91408 0.0
H438 H 0.98368 0.18566 0.79919 0.0
H439 H 1.00044 0.13542 0.75837 0.0
H440 H 0.06958 0.09282 0.90678 0.0
H441 H 0.07379 0.13713 -0.00022 0.0
C442 C 0.03709 0.18435 -0.00262 0.0
C443 C 0.01451 0.20589 0.99263 0.0
C444 C 0.03883 0.16153 0.9347 0.0
C445 C 0.99668 0.20722 0.91798 0.0
C446 C 0.99908 0.18531 0.85337 0.0
C447 C 0.01682 0.13601 0.81013 0.0
C448 C 0.03415 0.11054 0.82705 0.0
C449 C 0.01876 0.16135 0.86405 0.0
C450 C 0.05573 0.11195 0.89301 0.0
C451 C 0.0581 0.13728 0.94631 0.0
H452 H 0.29387 0.98037 0.90092 0.0
H453 H 0.31845 0.05956 0.04411 0.0
H454 H 0.36219 0.06737 0.95007 0.0
H455 H 0.40002 0.04357 0.85406 0.0
H456 H 0.37596 0.9615 0.72114 0.0
H457 H 0.3262 0.9627 0.7841 0.0
C458 C 0.3078 1.00036 0.90778 0.0
C459 C 0.30331 0.01899 0.98013 0.0
C460 C 0.33418 0.0032 0.85817 0.0
C461 C 0.32146 0.04484 0.98877 0.0
C462 C 0.34705 0.04879 0.93653 0.0
C463 C 0.38371 0.02629 0.8378 0.0
C464 C 0.39222 1.00194 0.78539 0.0
C465 C 0.35483 0.02677 0.87556 0.0
C466 C 0.37052 0.98001 0.76368 0.0
C467 C 0.34181 0.98076 0.79902 0.0
H468 H 0.512 0.30722 0.02862 0.0
H469 H 0.41831 0.32206 0.06948 0.0
H470 H 0.42075 0.36625 0.97418 0.0
H471 H 0.45203 0.40596 0.90202 0.0
H472 H 0.54693 0.39156 0.87463 0.0
H473 H 0.54163 0.34278 0.94261 0.0
C474 C 0.49181 0.31918 0.01251 0.0
C475 C 0.46499 0.31117 0.05489 0.0
C476 C 0.49395 0.34577 0.96341 0.0
C477 C 0.43909 0.32738 0.03583 0.0
C478 C 0.44071 0.35318 0.98332 0.0
C479 C 0.47148 0.39211 0.91079 0.0
C480 C 0.49988 0.40296 0.88422 0.0
C481 C 0.46842 0.36359 0.95089 0.0
C482 C 0.52475 0.38428 0.89499 0.0
C483 C 0.52181 0.35609 0.93353 0.0
H484 H 0.20001 0.47725 0.07728 0.0
H485 H 0.24723 0.53461 0.89545 0.0
H486 H 0.20971 0.52347 0.78356 0.0
H487 H 0.15827 0.50606 0.74993 0.0
H488 H 0.10782 0.45643 0.94402 0.0
H489 H 0.15146 0.45568 0.03894 0.0
C490 C 0.20271 0.48615 0.0117 0.0
C491 C 0.22646 0.50628 0.9937 0.0
C492 C 0.17983 0.48167 0.95105 0.0
C493 C 0.22946 0.51855 0.90982 0.0
C494 C 0.20768 0.5126 0.84662 0.0
C495 C 0.15723 0.49436 0.812 0.0
C496 C 0.13002 0.48123 0.84027 0.0
C497 C 0.18196 0.49551 0.86818 0.0
C498 C 0.12858 0.46667 0.92133 0.0
C499 C 0.15349 0.46628 0.97548 0.0
H500 H 0.98201 0.84501 0.26428 0.0
H501 H 0.04403 0.80351 0.4387 0.0
H502 H 0.02941 0.83812 0.55509 0.0
H503 H 0.00743 0.88702 0.59431 0.0
H504 H 0.95146 0.93197 0.40936 0.0
H505 H 0.95483 0.88934 0.31015 0.0
C506 C 0.9915 0.84294 0.32889 0.0
C507 C 0.01417 0.82204 0.34315 0.0
C508 C 0.98442 0.86406 0.39287 0.0
C509 C 0.02643 0.81938 0.42663 0.0
C510 C 0.01837 0.83946 0.49261 0.0
C511 C 0.99515 0.88685 0.53359 0.0
C512 C 0.9791 0.91235 0.50881 0.0
C513 C 0.99864 0.86294 0.4748 0.0
C514 C 0.9638 0.91242 0.42943 0.0
C515 C 0.96588 0.88815 0.37267 0.0
H516 H 0.65208 0.96399 0.19127 0.0
H517 H 0.70469 0.01489 0.37414 0.0
H518 H 0.66957 1.00102 0.49169 0.0
H519 H 0.61871 0.98313 0.53398 0.0
H520 H 0.56362 0.9387 0.34282 0.0
H521 H 0.60457 0.94127 0.23693 0.0
C522 C 0.65629 0.97126 0.25757 0.0
C523 C 0.6807 0.99064 0.27411 0.0
C524 C 0.63503 0.96492 0.32276 0.0
C525 C 0.68612 0.99985 0.36001 0.0
C526 C 0.66576 0.99229 0.42681 0.0
C527 C 0.61606 0.97331 0.46986 0.0
C528 C 0.5882 0.96082 0.44585 0.0
C529 C 0.63932 0.97618 0.40785 0.0
C530 C 0.58481 0.94854 0.36236 0.0
C531 C 0.6082 0.95004 0.30187 0.0
H532 H 0.5463 0.65896 0.27606 0.0
H533 H 0.50037 0.70862 0.4748 0.0
H534 H 0.51789 0.67351 0.58616 0.0
H535 H 0.53564 0.62255 0.61896 0.0
H536 H 0.57341 0.56926 0.41295 0.0
H537 H 0.57004 0.61166 0.31222 0.0
C538 C 0.54122 0.66269 0.34443 0.0
C539 C 0.52204 0.68611 0.36766 0.0
C540 C 0.5493 0.64115 0.40615 0.0
C541 C 0.51528 0.69084 0.45583 0.0
C542 C 0.52489 0.67045 0.51906 0.0
C543 C 0.54408 0.62067 0.55277 0.0
C544 C 0.55476 0.59293 0.52297 0.0
C545 C 0.54032 0.64456 0.49401 0.0
C546 C 0.5651 0.59043 0.43689 0.0
C547 C 0.56306 0.61461 0.37939 0.0
H548 H 0.8688 0.57215 0.28614 0.0
H549 H 0.82303 0.49818 0.41253 0.0
H550 H 0.86131 0.49724 0.52563 0.0
H551 H 0.91272 0.51035 0.56841 0.0
H552 H 0.95996 0.58252 0.43631 0.0
H553 H 0.91628 0.59136 0.34543 0.0
C554 C 0.86657 0.55679 0.34089 0.0
C555 C 0.84328 0.5352 0.34127 0.0
C556 C 0.88951 0.55539 0.40262 0.0
C557 C 0.84059 0.51517 0.41161 0.0
C558 C 0.86283 0.51427 0.47519 0.0
C559 C 0.91331 0.52832 0.52058 0.0
C560 C 0.93982 0.54527 0.50753 0.0
C561 C 0.88823 0.53306 0.4681 0.0
C562 C 0.93999 0.56894 0.44691 0.0
C563 C 0.91501 0.57398 0.39488 0.0
loop_
_geom_bond_atom_site_label_1
_geom_bond_atom_site_label_2
_geom_bond_distance
_geom_bond_site_symmetry_2
_ccdc_geom_bond_type
H0 C5 0.929 . S
H1 C10 0.931 . S
H2 C8 0.930 . S
N3 N4 1.234 1_554 S
N3 C7 1.453 . S
N4 N3 1.234 1_556 S
C5 H0 0.929 . S
C5 C6 1.373 . S
C5 C7 1.368 . S
C6 C5 1.373 . S
C6 C10 1.397 . S
C7 N3 1.453 . S
C7 C5 1.368 . S
C7 C8 1.373 1_554 S
C8 H2 0.930 . S
C8 C7 1.373 1_556 S
C8 C9 1.371 . S
C9 C8 1.371 . S
C9 C10 1.383 1_556 S
C10 H1 0.931 . S
C10 C6 1.397 . S
C10 C9 1.383 1_554 S
H11 C16 0.929 . S
H12 C21 0.932 . S
H13 C19 0.930 1_556 S
N14 N15 1.234 1_455 S
N14 C18 1.453 . S
N15 N14 1.234 1_655 S
C16 H11 0.929 . S
C16 C17 1.373 . S
C16 C18 1.368 . S
C17 C16 1.373 . S
C17 C21 1.397 1_455 S
C18 N14 1.453 . S
C18 C16 1.368 . S
C18 C19 1.373 . S
C19 H13 0.930 1_554 S
C19 C18 1.373 . S
C19 C20 1.371 . S
C20 C19 1.371 . S
C20 C21 1.383 1_455 S
C21 H12 0.932 . S
C21 C17 1.397 1_655 S
C21 C20 1.383 1_655 S
H22 C27 0.929 . S
H23 C32 0.931 . S
H24 C30 0.930 1_556 S
N25 N26 1.234 1_545 S
N25 C29 1.453 . S
N26 N25 1.234 1_565 S
C27 H22 0.929 . S
C27 C28 1.373 . S
C27 C29 1.368 . S
C28 C27 1.373 . S
C28 C32 1.397 1_545 S
C29 N25 1.453 . S
C29 C27 1.368 . S
C29 C30 1.373 . S
C30 H24 0.930 1_554 S
C30 C29 1.373 . S
C30 C31 1.375 . S
C31 C30 1.375 . S
C31 C32 1.381 1_545 S
C32 H23 0.931 . S
C32 C28 1.397 1_565 S
C32 C31 1.381 1_565 S
H33 C38 0.929 . S
H34 C43 0.931 . S
H35 C41 0.930 . S
N36 N37 1.234 1_554 S
N36 C40 1.453 . S
N37 N36 1.234 1_556 S
C38 H33 0.929 . S
C38 C39 1.373 . S
C38 C40 1.368 . S
C39 C38 1.373 . S
C39 C43 1.397 . S
C40 N36 1.453 . S
C40 C38 1.368 . S
C40 C41 1.373 1_554 S
C41 H35 0.930 . S
C41 C40 1.373 1_556 S
C41 C42 1.371 . S
C42 C41 1.371 . S
C42 C43 1.383 1_556 S
C43 H34 0.931 . S
C43 C39 1.397 . S
C43 C42 1.383 1_554 S
H44 C49 0.929 . S
H45 C54 0.931 . S
H46 C52 0.930 . S
N47 N48 1.234 . S
N47 C51 1.453 . S
N48 N47 1.234 . S
C49 H44 0.929 . S
C49 C50 1.373 . S
C49 C51 1.368 . S
C50 C49 1.373 . S
C50 C54 1.397 . S
C51 N47 1.453 . S
C51 C49 1.368 . S
C51 C52 1.373 . S
C52 H46 0.930 . S
C52 C51 1.373 . S
C52 C53 1.371 . S
C53 C52 1.371 . S
C53 C54 1.383 . S
C54 H45 0.931 . S
C54 C50 1.397 . S
C54 C53 1.383 . S
H55 C60 0.929 . S
H56 C65 0.931 . S
H57 C63 0.930 . S
N58 N59 1.234 . S
N58 C62 1.453 . S
N59 N58 1.234 . S
C60 H55 0.929 . S
C60 C61 1.373 . S
C60 C62 1.368 . S
C61 C60 1.373 . S
C61 C65 1.397 . S
C62 N58 1.453 . S
C62 C60 1.368 . S
C62 C63 1.373 . S
C63 H57 0.930 . S
C63 C62 1.373 . S
C63 C64 1.371 . S
C64 C63 1.371 . S
C64 C65 1.383 . S
C65 H56 0.931 . S
C65 C61 1.397 . S
C65 C64 1.383 . S
H66 C71 0.929 . S
H67 C76 0.931 . S
H68 C74 0.930 . S
N69 N70 1.234 . S
N69 C73 1.453 . S
N70 N69 1.234 . S
C71 H66 0.929 . S
C71 C72 1.373 . S
C71 C73 1.368 . S
C72 C71 1.373 . S
C72 C76 1.397 . S
C73 N69 1.453 . S
C73 C71 1.368 . S
C73 C74 1.373 . S
C74 H68 0.930 . S
C74 C73 1.373 . S
C74 C75 1.371 . S
C75 C74 1.371 . S
C75 C76 1.383 . S
C76 H67 0.931 . S
C76 C72 1.397 . S
C76 C75 1.383 . S
H77 C82 0.929 . S
H78 C87 0.931 . S
H79 C85 0.930 . S
N80 N81 1.234 . S
N80 C84 1.453 . S
N81 N80 1.234 . S
C82 H77 0.929 . S
C82 C83 1.373 . S
C82 C84 1.368 . S
C83 C82 1.373 . S
C83 C87 1.397 . S
C84 N80 1.453 . S
C84 C82 1.368 . S
C84 C85 1.373 . S
C85 H79 0.930 . S
C85 C84 1.373 . S
C85 C86 1.371 . S
C86 C85 1.371 . S
C86 C87 1.383 . S
C87 H78 0.931 . S
C87 C83 1.397 . S
C87 C86 1.383 . S
O88 Zn89 1.955 . S
O88 C104 1.225 1_545 S
Zn89 O88 1.955 . S
Zn89 O90 1.948 1_545 S
Zn89 O96 1.943 . S
Zn89 O101 1.895 1_545 S
O90 Zn89 1.948 1_565 S
O90 Zn91 1.900 1_465 S
O90 Zn92 1.952 . S
O90 Zn93 1.966 1_455 S
Zn91 O90 1.900 1_645 S
Zn91 O94 1.933 . S
Zn91 O97 1.941 1_655 S
Zn91 O98 1.965 . S
Zn92 O90 1.952 . S
Zn92 O99 1.938 1_565 S
Zn92 O100 1.906 . S
Zn92 O110 1.953 . S
Zn93 O90 1.966 1_655 S
Zn93 O95 1.932 . S
Zn93 O102 1.977 . S
Zn93 O103 1.910 1_655 S
O94 Zn91 1.933 . S
O94 C105 1.226 . S
O95 Zn93 1.932 . S
O95 C105 1.307 1_565 S
O96 Zn89 1.943 . S
O96 C107 1.253 . S
O97 Zn91 1.941 1_455 S
O97 C107 1.283 . S
O98 Zn91 1.965 . S
O98 C106 1.303 1_655 S
O99 Zn92 1.938 1_545 S
O99 C106 1.247 . S
O100 Zn92 1.906 . S
O100 C108 1.304 1_455 S
O101 Zn89 1.895 1_565 S
O101 C109 1.311 . S
O102 Zn93 1.977 . S
O102 C108 1.272 . S
O103 Zn93 1.910 1_455 S
O103 C109 1.231 . S
C104 O88 1.225 1_565 S
C104 O110 1.298 . S
C105 O94 1.226 . S
C105 O95 1.307 1_545 S
C106 O98 1.303 1_455 S
C106 O99 1.247 . S
C107 O96 1.253 . S
C107 O97 1.283 . S
C108 O100 1.304 1_655 S
C108 O102 1.272 . S
C109 O101 1.311 . S
C109 O103 1.231 . S
O110 Zn92 1.953 . S
O110 C104 1.298 . S
O111 Zn112 1.953 . S
O111 C127 1.225 . S
Zn112 O111 1.953 . S
Zn112 O113 1.949 . S
Zn112 O119 1.919 . S
Zn112 O124 1.924 . S
O113 Zn112 1.949 . S
O113 Zn114 1.923 1_545 S
O113 Zn115 1.950 . S
O113 Zn116 1.945 1_545 S
Zn114 O113 1.923 1_565 S
Zn114 O117 1.933 . S
Zn114 O120 1.941 . S
Zn114 O121 1.965 . S
Zn115 O113 1.950 . S
Zn115 O122 1.938 . S
Zn115 O123 1.906 . S
Zn115 O133 1.953 . S
Zn116 O113 1.945 1_565 S
Zn116 O118 1.932 . S
Zn116 O125 1.977 . S
Zn116 O126 1.910 1_565 S
O117 Zn114 1.933 . S
O117 C128 1.226 . S
O118 Zn116 1.932 . S
O118 C128 1.307 . S
O119 Zn112 1.919 . S
O119 C130 1.253 . S
O120 Zn114 1.941 . S
O120 C130 1.283 1_565 S
O121 Zn114 1.965 . S
O121 C129 1.303 1_565 S
O122 Zn115 1.938 . S
O122 C129 1.247 . S
O123 Zn115 1.906 . S
O123 C131 1.304 1_545 S
O124 Zn112 1.924 . S
O124 C132 1.311 . S
O125 Zn116 1.977 . S
O125 C131 1.272 . S
O126 Zn116 1.910 1_545 S
O126 C132 1.231 . S
C127 O111 1.225 . S
C127 O133 1.298 . S
C128 O117 1.226 . S
C128 O118 1.307 . S
C129 O121 1.303 1_545 S
C129 O122 1.247 . S
C130 O119 1.253 . S
C130 O120 1.283 1_545 S
C131 O123 1.304 1_565 S
C131 O125 1.272 . S
C132 O124 1.311 . S
C132 O126 1.231 . S
O133 Zn115 1.953 . S
O133 C127 1.298 . S
O134 Zn135 1.953 . S
O134 C150 1.225 . S
Zn135 O134 1.953 . S
Zn135 O136 1.949 . S
Zn135 O142 1.919 . S
Zn135 O147 1.924 . S
O136 Zn135 1.949 . S
O136 Zn137 1.923 . S
O136 Zn138 1.950 . S
O136 Zn139 1.945 . S
Zn137 O136 1.923 . S
Zn137 O140 1.933 . S
Zn137 O143 1.941 . S
Zn137 O144 1.965 . S
Zn138 O136 1.950 . S
Zn138 O145 1.938 . S
Zn138 O146 1.906 . S
Zn138 O156 1.953 . S
Zn139 O136 1.945 . S
Zn139 O141 1.932 . S
Zn139 O148 1.977 . S
Zn139 O149 1.910 . S
O140 Zn137 1.933 . S
O140 C151 1.226 . S
O141 Zn139 1.932 . S
O141 C151 1.307 . S
O142 Zn135 1.919 . S
O142 C153 1.253 . S
O143 Zn137 1.941 . S
O143 C153 1.283 . S
O144 Zn137 1.965 . S
O144 C152 1.303 . S
O145 Zn138 1.938 . S
O145 C152 1.247 . S
O146 Zn138 1.906 . S
O146 C154 1.304 . S
O147 Zn135 1.924 . S
O147 C155 1.311 . S
O148 Zn139 1.977 . S
O148 C154 1.272 . S
O149 Zn139 1.910 . S
O149 C155 1.231 . S
C150 O134 1.225 . S
C150 O156 1.298 . S
C151 O140 1.226 . S
C151 O141 1.307 . S
C152 O144 1.303 . S
C152 O145 1.247 . S
C153 O142 1.253 . S
C153 O143 1.283 . S
C154 O146 1.304 . S
C154 O148 1.272 . S
C155 O147 1.311 . S
C155 O149 1.231 . S
O156 Zn138 1.953 . S
O156 C150 1.298 . S
O157 Zn158 1.953 1_655 S
O157 C173 1.225 . S
Zn158 O157 1.953 1_455 S
Zn158 O159 1.949 . S
Zn158 O165 1.919 . S
Zn158 O170 1.924 . S
O159 Zn158 1.949 . S
O159 Zn160 1.917 1_455 S
O159 Zn161 1.929 1_455 S
O159 Zn162 1.973 . S
Zn160 O159 1.917 1_655 S
Zn160 O163 1.933 1_655 S
Zn160 O166 1.941 . S
Zn160 O167 1.965 . S
Zn161 O159 1.929 1_655 S
Zn161 O168 1.938 . S
Zn161 O169 1.906 . S
Zn161 O179 1.953 . S
Zn162 O159 1.973 . S
Zn162 O164 1.932 . S
Zn162 O171 1.977 . S
Zn162 O172 1.910 . S
O163 Zn160 1.933 1_455 S
O163 C174 1.226 . S
O164 Zn162 1.932 . S
O164 C174 1.307 . S
O165 Zn158 1.919 . S
O165 C176 1.253 1_455 S
O166 Zn160 1.941 . S
O166 C176 1.282 . S
O167 Zn160 1.965 . S
O167 C175 1.303 . S
O168 Zn161 1.938 . S
O168 C175 1.247 . S
O169 Zn161 1.906 . S
O169 C177 1.304 1_655 S
O170 Zn158 1.924 . S
O170 C178 1.311 . S
O171 Zn162 1.977 . S
O171 C177 1.272 . S
O172 Zn162 1.910 . S
O172 C178 1.231 . S
C173 O157 1.225 . S
C173 O179 1.298 . S
C174 O163 1.226 . S
C174 O164 1.307 . S
C175 O167 1.303 . S
C175 O168 1.247 . S
C176 O165 1.253 1_655 S
C176 O166 1.282 . S
C177 O169 1.304 1_455 S
C177 O171 1.272 . S
C178 O170 1.311 . S
C178 O172 1.231 . S
O179 Zn161 1.953 . S
O179 C173 1.298 . S
H180 C186 0.930 . S
H181 C189 0.930 . S
H182 C190 0.930 . S
H183 C191 0.930 . S
H184 C194 0.930 . S
H185 C195 0.930 . S
C186 H180 0.930 . S
C186 C187 1.355 . S
C186 C188 1.415 . S
C187 C186 1.355 . S
C187 C189 1.419 1_545 S
C188 C186 1.415 . S
C188 C193 1.425 1_545 S
C188 C195 1.409 . S
C189 H181 0.930 . S
C189 C187 1.419 1_565 S
C189 C190 1.362 . S
C190 H182 0.930 . S
C190 C189 1.362 . S
C190 C193 1.409 . S
C191 H183 0.930 . S
C191 C192 1.355 . S
C191 C193 1.415 . S
C192 C191 1.355 . S
C192 C194 1.419 1_565 S
C193 C188 1.425 1_565 S
C193 C190 1.409 . S
C193 C191 1.415 . S
C194 H184 0.930 . S
C194 C192 1.419 1_545 S
C194 C195 1.362 . S
C195 H185 0.930 . S
C195 C188 1.409 . S
C195 C194 1.362 . S
H196 C202 0.930 . S
H197 C205 0.930 . S
H198 C206 0.930 . S
H199 C207 0.930 . S
H200 C210 0.930 . S
H201 C211 0.930 . S
C202 H196 0.930 . S
C202 C203 1.355 . S
C202 C204 1.415 . S
C203 C202 1.355 . S
C203 C205 1.419 . S
C204 C202 1.415 . S
C204 C209 1.425 . S
C204 C211 1.409 . S
C205 H197 0.930 . S
C205 C203 1.419 . S
C205 C206 1.362 . S
C206 H198 0.930 . S
C206 C205 1.362 . S
C206 C209 1.409 . S
C207 H199 0.930 . S
C207 C208 1.355 . S
C207 C209 1.415 . S
C208 C207 1.355 . S
C208 C210 1.419 . S
C209 C204 1.425 . S
C209 C206 1.409 . S
C209 C207 1.415 . S
C210 H200 0.930 . S
C210 C208 1.419 . S
C210 C211 1.362 . S
C211 H201 0.930 . S
C211 C204 1.409 . S
C211 C210 1.362 . S
H212 C218 0.930 . S
H213 C221 0.930 . S
H214 C222 0.930 . S
H215 C223 0.930 . S
H216 C226 0.930 . S
H217 C227 0.930 . S
C218 H212 0.930 . S
C218 C219 1.355 . S
C218 C220 1.415 . S
C219 C218 1.355 . S
C219 C221 1.419 . S
C220 C218 1.415 . S
C220 C225 1.425 . S
C220 C227 1.409 . S
C221 H213 0.930 . S
C221 C219 1.419 . S
C221 C222 1.362 . S
C222 H214 0.930 . S
C222 C221 1.362 . S
C222 C225 1.409 . S
C223 H215 0.930 . S
C223 C224 1.355 . S
C223 C225 1.415 . S
C224 C223 1.355 . S
C224 C226 1.419 . S
C225 C220 1.425 . S
C225 C222 1.409 . S
C225 C223 1.415 . S
C226 H216 0.930 . S
C226 C224 1.419 . S
C226 C227 1.362 . S
C227 H217 0.930 . S
C227 C220 1.409 . S
C227 C226 1.362 . S
H228 C234 0.930 . S
H229 C237 0.930 . S
H230 C238 0.912 1_655 S
H231 C239 0.930 1_655 S
H232 C242 0.930 . S
H233 C243 0.930 . S
C234 H228 0.930 . S
C234 C235 1.355 . S
C234 C236 1.415 . S
C235 C234 1.355 . S
C235 C237 1.419 . S
C236 C234 1.415 . S
C236 C241 1.425 . S
C236 C243 1.409 . S
C237 H229 0.930 . S
C237 C235 1.419 . S
C237 C238 1.371 . S
C238 H230 0.912 1_455 S
C238 C237 1.371 . S
C238 C241 1.419 . S
C239 H231 0.930 1_455 S
C239 C240 1.355 . S
C239 C241 1.415 . S
C240 C239 1.355 . S
C240 C242 1.419 . S
C241 C236 1.425 . S
C241 C238 1.419 . S
C241 C239 1.415 . S
C242 H232 0.930 . S
C242 C240 1.419 . S
C242 C243 1.362 . S
C243 H233 0.930 . S
C243 C236 1.409 . S
C243 C242 1.362 . S
H244 C250 0.930 1_554 S
H245 C253 0.930 . S
H246 C254 0.930 . S
H247 C255 0.930 . S
H248 C258 0.930 . S
H249 C259 0.930 1_554 S
C250 H244 0.930 1_556 S
C250 C251 1.355 1_565 S
C250 C252 1.415 . S
C251 C250 1.355 1_545 S
C251 C253 1.419 . S
C252 C250 1.415 . S
C252 C257 1.425 1_565 S
C252 C259 1.409 . S
C253 H245 0.930 . S
C253 C251 1.419 . S
C253 C254 1.362 . S
C254 H246 0.930 . S
C254 C253 1.362 . S
C254 C257 1.409 . S
C255 H247 0.930 . S
C255 C256 1.357 . S
C255 C257 1.415 . S
C256 C255 1.357 . S
C256 C258 1.416 1_545 S
C257 C252 1.425 1_545 S
C257 C254 1.409 . S
C257 C255 1.415 . S
C258 H248 0.930 . S
C258 C256 1.416 1_565 S
C258 C259 1.362 . S
C259 H249 0.930 1_556 S
C259 C252 1.409 . S
C259 C258 1.362 . S
H260 C266 0.930 . S
H261 C269 0.930 1_554 S
H262 C270 0.930 . S
H263 C271 0.930 . S
H264 C274 0.930 . S
H265 C275 0.930 . S
C266 H260 0.930 . S
C266 C267 1.355 . S
C266 C268 1.415 . S
C267 C266 1.355 . S
C267 C269 1.419 . S
C268 C266 1.415 . S
C268 C273 1.425 . S
C268 C275 1.409 . S
C269 H261 0.930 1_556 S
C269 C267 1.419 . S
C269 C270 1.362 . S
C270 H262 0.930 . S
C270 C269 1.362 . S
C270 C273 1.409 . S
C271 H263 0.930 . S
C271 C272 1.355 . S
C271 C273 1.415 . S
C272 C271 1.355 . S
C272 C274 1.419 . S
C273 C268 1.425 . S
C273 C270 1.409 . S
C273 C271 1.415 . S
C274 H264 0.930 . S
C274 C272 1.419 . S
C274 C275 1.362 . S
C275 H265 0.930 . S
C275 C268 1.409 . S
C275 C274 1.362 . S
H276 C282 0.930 . S
H277 C285 0.930 . S
H278 C286 0.930 . S
H279 C287 0.930 . S
H280 C290 0.930 . S
H281 C291 0.930 . S
C282 H276 0.930 . S
C282 C283 1.355 . S
C282 C284 1.415 . S
C283 C282 1.355 . S
C283 C285 1.419 . S
C284 C282 1.415 . S
C284 C289 1.425 . S
C284 C291 1.409 . S
C285 H277 0.930 . S
C285 C283 1.419 . S
C285 C286 1.362 . S
C286 H278 0.930 . S
C286 C285 1.362 . S
C286 C289 1.409 . S
C287 H279 0.930 . S
C287 C288 1.355 . S
C287 C289 1.415 . S
C288 C287 1.355 . S
C288 C290 1.419 . S
C289 C284 1.425 . S
C289 C286 1.409 . S
C289 C287 1.415 . S
C290 H280 0.930 . S
C290 C288 1.419 . S
C290 C291 1.362 . S
C291 H281 0.930 . S
C291 C284 1.409 . S
C291 C290 1.362 . S
H292 C298 0.930 . S
H293 C301 0.930 . S
H294 C302 0.930 . S
H295 C303 0.930 . S
H296 C306 0.930 . S
H297 C307 0.930 . S
C298 H292 0.930 . S
C298 C299 1.355 1_556 S
C298 C300 1.415 . S
C299 C298 1.355 1_554 S
C299 C301 1.419 1_655 S
C300 C298 1.415 . S
C300 C305 1.425 1_655 S
C300 C307 1.409 . S
C301 H293 0.930 . S
C301 C299 1.419 1_455 S
C301 C302 1.362 . S
C302 H294 0.930 . S
C302 C301 1.362 . S
C302 C305 1.409 1_554 S
C303 H295 0.930 . S
C303 C304 1.355 . S
C303 C305 1.415 . S
C304 C303 1.355 . S
C304 C306 1.419 1_455 S
C305 C300 1.425 1_455 S
C305 C302 1.409 1_556 S
C305 C303 1.415 . S
C306 H296 0.930 . S
C306 C304 1.419 1_655 S
C306 C307 1.362 . S
C307 H297 0.930 . S
C307 C300 1.409 . S
C307 C306 1.362 . S
H308 C314 0.930 . S
H309 C317 0.925 1_655 S
H310 C318 0.902 1_655 S
H311 C319 0.930 1_655 S
H312 C322 0.930 . S
H313 C323 0.930 . S
C314 H308 0.930 . S
C314 C315 1.355 . S
C314 C316 1.415 . S
C315 C314 1.355 . S
C315 C317 1.419 . S
C316 C314 1.415 . S
C316 C321 1.425 . S
C316 C323 1.409 . S
C317 H309 0.925 1_455 S
C317 C315 1.419 . S
C317 C318 1.373 . S
C318 H310 0.902 1_455 S
C318 C317 1.373 . S
C318 C321 1.426 . S
C319 H311 0.930 1_455 S
C319 C320 1.355 . S
C319 C321 1.415 . S
C320 C319 1.355 . S
C320 C322 1.419 . S
C321 C316 1.425 . S
C321 C318 1.426 . S
C321 C319 1.415 . S
C322 H312 0.930 . S
C322 C320 1.419 . S
C322 C323 1.362 . S
C323 H313 0.930 . S
C323 C316 1.409 . S
C323 C322 1.362 . S
H324 C330 0.930 . S
H325 C333 0.930 . S
H326 C334 0.930 . S
H327 C335 0.930 . S
H328 C338 0.930 . S
H329 C339 0.935 . S
C330 H324 0.930 . S
C330 C331 1.355 . S
C330 C332 1.415 . S
C331 C330 1.355 . S
C331 C333 1.419 . S
C332 C330 1.415 . S
C332 C337 1.425 . S
C332 C339 1.409 . S
C333 H325 0.930 . S
C333 C331 1.419 . S
C333 C334 1.362 . S
C334 H326 0.930 . S
C334 C333 1.362 . S
C334 C337 1.409 . S
C335 H327 0.930 . S
C335 C336 1.355 . S
C335 C337 1.415 . S
C336 C335 1.355 . S
C336 C338 1.419 . S
C337 C332 1.425 . S
C337 C334 1.409 . S
C337 C335 1.415 . S
C338 H328 0.930 . S
C338 C336 1.419 . S
C338 C339 1.362 . S
C339 H329 0.935 . S
C339 C332 1.409 . S
C339 C338 1.362 . S
H340 C346 0.930 . S
H341 C349 0.930 . S
H342 C350 0.930 . S
H343 C351 0.930 . S
H344 C354 0.930 . S
H345 C355 0.930 . S
C346 H340 0.930 . S
C346 C347 1.355 . S
C346 C348 1.415 . S
C347 C346 1.355 . S
C347 C349 1.419 . S
C348 C346 1.415 . S
C348 C353 1.425 . S
C348 C355 1.409 . S
C349 H341 0.930 . S
C349 C347 1.419 . S
C349 C350 1.362 . S
C350 H342 0.930 . S
C350 C349 1.362 . S
C350 C353 1.409 . S
C351 H343 0.930 . S
C351 C352 1.355 . S
C351 C353 1.415 . S
C352 C351 1.355 . S
C352 C354 1.419 . S
C353 C348 1.425 . S
C353 C350 1.409 . S
C353 C351 1.415 . S
C354 H344 0.930 . S
C354 C352 1.419 . S
C354 C355 1.362 . S
C355 H345 0.930 . S
C355 C348 1.409 . S
C355 C354 1.362 . S
H356 C362 0.930 . S
H357 C365 0.930 . S
H358 C366 0.930 . S
H359 C367 0.930 . S
H360 C370 0.930 . S
H361 C371 0.930 . S
C362 H356 0.930 . S
C362 C363 1.355 . S
C362 C364 1.415 . S
C363 C362 1.355 . S
C363 C365 1.419 . S
C364 C362 1.415 . S
C364 C369 1.425 . S
C364 C371 1.409 . S
C365 H357 0.930 . S
C365 C363 1.419 . S
C365 C366 1.362 . S
C366 H358 0.930 . S
C366 C365 1.362 . S
C366 C369 1.409 . S
C367 H359 0.930 . S
C367 C368 1.355 . S
C367 C369 1.415 . S
C368 C367 1.355 . S
C368 C370 1.419 . S
C369 C364 1.425 . S
C369 C366 1.409 . S
C369 C367 1.415 . S
C370 H360 0.930 . S
C370 C368 1.419 . S
C370 C371 1.362 . S
C371 H361 0.930 . S
C371 C364 1.409 . S
C371 C370 1.362 . S
H372 C378 0.930 . S
H373 C381 0.930 . S
H374 C382 0.930 . S
H375 C383 0.930 . S
H376 C386 0.930 . S
H377 C387 0.930 . S
C378 H372 0.930 . S
C378 C379 1.355 1_556 S
C378 C380 1.415 . S
C379 C378 1.355 1_554 S
C379 C381 1.419 1_455 S
C380 C378 1.415 . S
C380 C385 1.425 . S
C380 C387 1.409 . S
C381 H373 0.930 . S
C381 C379 1.419 1_655 S
C381 C382 1.362 . S
C382 H374 0.930 . S
C382 C381 1.362 . S
C382 C385 1.409 1_654 S
C383 H375 0.930 . S
C383 C384 1.355 . S
C383 C385 1.415 . S
C384 C383 1.355 . S
C384 C386 1.419 . S
C385 C380 1.425 . S
C385 C382 1.409 1_456 S
C385 C383 1.415 . S
C386 H376 0.930 . S
C386 C384 1.419 . S
C386 C387 1.362 . S
C387 H377 0.930 . S
C387 C380 1.409 . S
C387 C386 1.362 . S
H388 C394 0.930 1_554 S
H389 C397 0.930 . S
H390 C398 0.930 . S
H391 C399 0.930 . S
H392 C402 0.930 . S
H393 C403 0.930 1_554 S
C394 H388 0.930 1_556 S
C394 C395 1.355 1_545 S
C394 C396 1.415 . S
C395 C394 1.355 1_565 S
C395 C397 1.419 . S
C396 C394 1.415 . S
C396 C401 1.425 . S
C396 C403 1.409 . S
C397 H389 0.930 . S
C397 C395 1.419 . S
C397 C398 1.362 . S
C398 H390 0.930 . S
C398 C397 1.362 . S
C398 C401 1.409 1_565 S
C399 H391 0.930 . S
C399 C400 1.355 . S
C399 C401 1.415 . S
C400 C399 1.355 . S
C400 C402 1.419 . S
C401 C396 1.425 . S
C401 C398 1.409 1_545 S
C401 C399 1.415 . S
C402 H392 0.930 . S
C402 C400 1.419 . S
C402 C403 1.362 . S
C403 H393 0.930 1_556 S
C403 C396 1.409 . S
C403 C402 1.362 . S
H404 C410 0.930 . S
H405 C413 0.930 . S
H406 C414 0.930 1_554 S
H407 C415 0.930 . S
H408 C418 0.930 . S
H409 C419 0.930 . S
C410 H404 0.930 . S
C410 C411 1.355 . S
C410 C412 1.415 . S
C411 C410 1.355 . S
C411 C413 1.419 1_556 S
C412 C410 1.415 . S
C412 C417 1.425 . S
C412 C419 1.409 . S
C413 H405 0.930 . S
C413 C411 1.419 1_554 S
C413 C414 1.362 1_554 S
C414 H406 0.930 1_556 S
C414 C413 1.362 1_556 S
C414 C417 1.409 . S
C415 H407 0.930 . S
C415 C416 1.355 . S
C415 C417 1.415 . S
C416 C415 1.355 . S
C416 C418 1.419 . S
C417 C412 1.425 . S
C417 C414 1.409 . S
C417 C415 1.415 . S
C418 H408 0.930 . S
C418 C416 1.419 . S
C418 C419 1.362 . S
C419 H409 0.930 . S
C419 C412 1.409 . S
C419 C418 1.362 . S
H420 C426 0.930 1_554 S
H421 C429 0.930 . S
H422 C430 0.930 . S
H423 C431 0.930 . S
H424 C434 0.930 . S
H425 C435 0.930 . S
C426 H420 0.930 1_556 S
C426 C427 1.355 . S
C426 C428 1.415 . S
C427 C426 1.355 . S
C427 C429 1.419 . S
C428 C426 1.415 . S
C428 C433 1.425 . S
C428 C435 1.409 . S
C429 H421 0.930 . S
C429 C427 1.419 . S
C429 C430 1.362 . S
C430 H422 0.930 . S
C430 C429 1.362 . S
C430 C433 1.409 . S
C431 H423 0.930 . S
C431 C432 1.355 . S
C431 C433 1.415 . S
C432 C431 1.355 . S
C432 C434 1.419 . S
C433 C428 1.425 . S
C433 C430 1.409 . S
C433 C431 1.415 . S
C434 H424 0.930 . S
C434 C432 1.419 . S
C434 C435 1.362 . S
C435 H425 0.930 . S
C435 C428 1.409 . S
C435 C434 1.362 . S
H436 C442 0.930 . S
H437 C445 0.930 . S
H438 C446 0.930 1_656 S
H439 C447 0.930 1_655 S
H440 C450 0.930 . S
H441 C451 0.930 . S
C442 H436 0.930 . S
C442 C443 1.355 . S
C442 C444 1.415 . S
C443 C442 1.355 . S
C443 C445 1.419 . S
C444 C442 1.415 . S
C444 C449 1.425 . S
C444 C451 1.409 . S
C445 H437 0.930 . S
C445 C443 1.419 . S
C445 C446 1.362 . S
C446 H438 0.930 1_454 S
C446 C445 1.362 . S
C446 C449 1.409 . S
C447 H439 0.930 1_455 S
C447 C448 1.355 . S
C447 C449 1.415 1_556 S
C448 C447 1.355 . S
C448 C450 1.419 1_556 S
C449 C444 1.425 . S
C449 C446 1.409 . S
C449 C447 1.415 1_554 S
C450 H440 0.930 . S
C450 C448 1.419 1_554 S
C450 C451 1.362 . S
C451 H441 0.930 . S
C451 C444 1.409 . S
C451 C450 1.362 . S
H452 C458 0.935 . S
H453 C461 0.930 . S
H454 C462 0.930 . S
H455 C463 0.930 . S
H456 C466 0.926 1_565 S
H457 C467 0.929 1_565 S
C458 H452 0.935 . S
C458 C459 1.355 . S
C458 C460 1.415 1_554 S
C459 C458 1.355 . S
C459 C461 1.419 . S
C460 C458 1.415 1_556 S
C460 C465 1.425 1_556 S
C460 C467 1.409 . S
C461 H453 0.930 . S
C461 C459 1.419 . S
C461 C462 1.362 . S
C462 H454 0.930 . S
C462 C461 1.362 . S
C462 C465 1.409 . S
C463 H455 0.930 . S
C463 C464 1.355 1_554 S
C463 C465 1.415 . S
C464 C463 1.355 1_556 S
C464 C466 1.419 . S
C465 C460 1.425 1_554 S
C465 C462 1.409 . S
C465 C463 1.415 . S
C466 H456 0.926 1_545 S
C466 C464 1.419 . S
C466 C467 1.362 . S
C467 H457 0.929 1_545 S
C467 C460 1.409 . S
C467 C466 1.362 . S
H468 C474 0.930 . S
H469 C477 0.930 . S
H470 C478 0.930 . S
H471 C479 0.930 . S
H472 C482 0.930 . S
H473 C483 0.930 . S
C474 H468 0.930 . S
C474 C475 1.355 . S
C474 C476 1.415 . S
C475 C474 1.355 . S
C475 C477 1.419 . S
C476 C474 1.415 . S
C476 C481 1.425 1_554 S
C476 C483 1.409 1_554 S
C477 H469 0.930 . S
C477 C475 1.419 . S
C477 C478 1.362 . S
C478 H470 0.930 . S
C478 C477 1.362 . S
C478 C481 1.409 1_554 S
C479 H471 0.930 . S
C479 C480 1.355 . S
C479 C481 1.415 . S
C480 C479 1.355 . S
C480 C482 1.419 . S
C481 C476 1.425 1_556 S
C481 C478 1.409 1_556 S
C481 C479 1.415 . S
C482 H472 0.930 . S
C482 C480 1.419 . S
C482 C483 1.362 . S
C483 H473 0.930 . S
C483 C476 1.409 1_556 S
C483 C482 1.362 . S
H484 C490 0.930 . S
H485 C493 0.930 . S
H486 C494 0.930 . S
H487 C495 0.930 . S
H488 C498 0.931 . S
H489 C499 0.930 . S
C490 H484 0.930 . S
C490 C491 1.355 . S
C490 C492 1.415 . S
C491 C490 1.355 . S
C491 C493 1.419 1_554 S
C492 C490 1.415 . S
C492 C497 1.425 1_554 S
C492 C499 1.409 . S
C493 H485 0.930 . S
C493 C491 1.419 1_556 S
C493 C494 1.362 . S
C494 H486 0.930 . S
C494 C493 1.362 . S
C494 C497 1.409 . S
C495 H487 0.930 . S
C495 C496 1.355 . S
C495 C497 1.415 . S
C496 C495 1.355 . S
C496 C498 1.415 1_556 S
C497 C492 1.425 1_556 S
C497 C494 1.409 . S
C497 C495 1.415 . S
C498 H488 0.931 . S
C498 C496 1.415 1_554 S
C498 C499 1.365 . S
C499 H489 0.930 . S
C499 C492 1.409 . S
C499 C498 1.365 . S
H500 C506 0.930 . S
H501 C509 0.930 . S
H502 C510 0.930 . S
H503 C511 0.932 1_455 S
H504 C514 0.930 . S
H505 C515 0.930 . S
C506 H500 0.930 . S
C506 C507 1.371 . S
C506 C508 1.415 . S
C507 C506 1.371 . S
C507 C509 1.404 1_655 S
C508 C506 1.415 . S
C508 C513 1.428 1_655 S
C508 C515 1.409 . S
C509 H501 0.930 . S
C509 C507 1.404 1_455 S
C509 C510 1.362 . S
C510 H502 0.930 . S
C510 C509 1.362 . S
C510 C513 1.407 . S
C511 H503 0.932 1_655 S
C511 C512 1.352 . S
C511 C513 1.415 1_655 S
C512 C511 1.352 . S
C512 C514 1.419 . S
C513 C508 1.428 1_455 S
C513 C510 1.407 . S
C513 C511 1.415 1_455 S
C514 H504 0.930 . S
C514 C512 1.419 . S
C514 C515 1.362 . S
C515 H505 0.930 . S
C515 C508 1.409 . S
C515 C514 1.362 . S
H516 C522 0.930 . S
H517 C525 0.930 . S
H518 C526 0.930 . S
H519 C527 0.930 1_545 S
H520 C530 0.930 . S
H521 C531 0.930 . S
C522 H516 0.930 . S
C522 C523 1.355 . S
C522 C524 1.415 . S
C523 C522 1.355 . S
C523 C525 1.419 1_565 S
C524 C522 1.415 . S
C524 C529 1.442 . S
C524 C531 1.409 . S
C525 H517 0.930 . S
C525 C523 1.419 1_545 S
C525 C526 1.362 . S
C526 H518 0.930 . S
C526 C525 1.362 . S
C526 C529 1.393 1_545 S
C527 H519 0.930 1_565 S
C527 C528 1.355 . S
C527 C529 1.415 . S
C528 C527 1.355 . S
C528 C530 1.419 . S
C529 C524 1.442 . S
C529 C526 1.393 1_565 S
C529 C527 1.415 . S
C530 H520 0.930 . S
C530 C528 1.419 . S
C530 C531 1.362 . S
C531 H521 0.930 . S
C531 C524 1.409 . S
C531 C530 1.362 . S
H532 C538 0.930 . S
H533 C541 0.930 . S
H534 C542 0.930 . S
H535 C543 0.930 . S
H536 C546 0.930 . S
H537 C547 0.930 . S
C538 H532 0.930 . S
C538 C539 1.355 . S
C538 C540 1.415 . S
C539 C538 1.355 . S
C539 C541 1.419 . S
C540 C538 1.415 . S
C540 C545 1.425 . S
C540 C547 1.409 . S
C541 H533 0.930 . S
C541 C539 1.419 . S
C541 C542 1.362 . S
C542 H534 0.930 . S
C542 C541 1.362 . S
C542 C545 1.409 . S
C543 H535 0.930 . S
C543 C544 1.355 . S
C543 C545 1.415 . S
C544 C543 1.355 . S
C544 C546 1.419 . S
C545 C540 1.425 . S
C545 C542 1.409 . S
C545 C543 1.415 . S
C546 H536 0.930 . S
C546 C544 1.419 . S
C546 C547 1.362 . S
C547 H537 0.930 . S
C547 C540 1.409 . S
C547 C546 1.362 . S
H548 C554 0.930 . S
H549 C557 0.930 . S
H550 C558 0.930 . S
H551 C559 0.930 . S
H552 C562 0.930 . S
H553 C563 0.930 . S
C554 H548 0.930 . S
C554 C555 1.355 . S
C554 C556 1.415 . S
C555 C554 1.355 . S
C555 C557 1.419 . S
C556 C554 1.415 . S
C556 C561 1.425 . S
C556 C563 1.409 . S
C557 H549 0.930 . S
C557 C555 1.419 . S
C557 C558 1.362 . S
C558 H550 0.930 . S
C558 C557 1.362 . S
C558 C561 1.409 . S
C559 H551 0.930 . S
C559 C560 1.355 . S
C559 C561 1.415 . S
C560 C559 1.355 . S
C560 C562 1.419 . S
C561 C556 1.425 . S
C561 C558 1.409 . S
C561 C559 1.415 . S
C562 H552 0.930 . S
C562 C560 1.419 . S
C562 C563 1.362 . S
C563 H553 0.930 . S
C563 C556 1.409 . S
C563 C562 1.362 . S
C187 N70 1.513 . S
C192 C104 1.560 . S
C208 C127 1.610 . S
C203 N81 1.565 . S
C224 C150 1.620 . S
C219 N48 1.580 . S
C240 C177 1.468 . S
C235 N59 1.519 . S
C256 C105 1.541 . S
C251 N26 1.499 1_546 S
C267 N37 1.489 . S
C272 C128 1.514 . S
C283 N4 1.431 . S
C288 C151 1.476 . S
C299 N15 1.584 . S
C304 C176 1.586 1_455 S
C320 C106 0.584 . S
C315 C64 0.539 . S
C336 C129 0.534 . S
C331 C75 0.497 . S
C352 C152 0.539 . S
C347 C86 0.602 . S
C363 C53 0.697 . S
C368 C178 0.684 . S
C379 C20 0.789 . S
C384 C109 0.851 . S
C400 C132 0.873 . S
C395 C31 0.881 1_566 S
C416 C155 0.691 . S
C411 C42 0.710 . S
C427 C9 0.662 . S
C432 C175 0.524 . S
C443 C61 1.593 . S
C448 C107 1.557 . S
C459 C72 1.489 . S
C464 C130 1.488 . S
C480 C153 1.544 . S
C475 C83 1.528 . S
C496 C174 1.419 . S
C491 C50 1.396 . S
C507 C17 1.585 1_655 S
C512 C108 1.539 . S
C528 C131 1.508 . S
C523 C28 1.555 1_565 S
C544 C154 1.480 . S
C539 C39 1.526 . S
C555 C6 1.630 . S
C560 C173 1.690 . S
