# Generated by pormake.
# Topology the, (3,8)-cn, num edge types: 1
# Building blocks:
#     Node 0, Type 0, BuildingBlock: BETDAH_clean_linker_0, # of connection points: 3
#     Node 1, Type 0, BuildingBlock: BETDAH_clean_linker_0, # of connection points: 3
#     Node 2, Type 0, BuildingBlock: BETDAH_clean_linker_0, # of connection points: 3
#     Node 3, Type 0, BuildingBlock: BETDAH_clean_linker_0, # of connection points: 3
#     Node 4, Type 0, BuildingBlock: BETDAH_clean_linker_0, # of connection points: 3
#     Node 5, Type 0, BuildingBlock: BETDAH_clean_linker_0, # of connection points: 3
#     Node 6, Type 0, BuildingBlock: BETDAH_clean_linker_0, # of connection points: 3
#     Node 7, Type 0, BuildingBlock: BETDAH_clean_linker_0, # of connection points: 3
#     Node 8, Type 1, BuildingBlock: GIZVER_clean_sbu_0, # of connection points: 8
#     Node 9, Type 1, BuildingBlock: GIZVER_clean_sbu_0, # of connection points: 8
#     Node 10, Type 1, BuildingBlock: GIZVER_clean_sbu_0, # of connection points: 8
#     Edge 11, Type (0, 1), BuildingBlock: AJUNOK_clean_linker_0, # of connection points: 2
#     Edge 12, Type (0, 1), BuildingBlock: AJUNOK_clean_linker_0, # of connection points: 2
#     Edge 13, Type (0, 1), BuildingBlock: AJUNOK_clean_linker_0, # of connection points: 2
#     Edge 14, Type (0, 1), BuildingBlock: AJUNOK_clean_linker_0, # of connection points: 2
#     Edge 15, Type (0, 1), BuildingBlock: AJUNOK_clean_linker_0, # of connection points: 2
#     Edge 16, Type (0, 1), BuildingBlock: AJUNOK_clean_linker_0, # of connection points: 2
#     Edge 17, Type (0, 1), BuildingBlock: AJUNOK_clean_linker_0, # of connection points: 2
#     Edge 18, Type (0, 1), BuildingBlock: AJUNOK_clean_linker_0, # of connection points: 2
#     Edge 19, Type (0, 1), BuildingBlock: AJUNOK_clean_linker_0, # of connection points: 2
#     Edge 20, Type (0, 1), BuildingBlock: AJUNOK_clean_linker_0, # of connection points: 2
#     Edge 21, Type (0, 1), BuildingBlock: AJUNOK_clean_linker_0, # of connection points: 2
#     Edge 22, Type (0, 1), BuildingBlock: AJUNOK_clean_linker_0, # of connection points: 2
#     Edge 23, Type (0, 1), BuildingBlock: AJUNOK_clean_linker_0, # of connection points: 2
#     Edge 24, Type (0, 1), BuildingBlock: AJUNOK_clean_linker_0, # of connection points: 2
#     Edge 25, Type (0, 1), BuildingBlock: AJUNOK_clean_linker_0, # of connection points: 2
#     Edge 26, Type (0, 1), BuildingBlock: AJUNOK_clean_linker_0, # of connection points: 2
#     Edge 27, Type (0, 1), BuildingBlock: AJUNOK_clean_linker_0, # of connection points: 2
#     Edge 28, Type (0, 1), BuildingBlock: AJUNOK_clean_linker_0, # of connection points: 2
#     Edge 29, Type (0, 1), BuildingBlock: AJUNOK_clean_linker_0, # of connection points: 2
#     Edge 30, Type (0, 1), BuildingBlock: AJUNOK_clean_linker_0, # of connection points: 2
#     Edge 31, Type (0, 1), BuildingBlock: AJUNOK_clean_linker_0, # of connection points: 2
#     Edge 32, Type (0, 1), BuildingBlock: AJUNOK_clean_linker_0, # of connection points: 2
#     Edge 33, Type (0, 1), BuildingBlock: AJUNOK_clean_linker_0, # of connection points: 2
#     Edge 34, Type (0, 1), BuildingBlock: AJUNOK_clean_linker_0, # of connection points: 2
# Relax obj value: 0.074
# Max RMSD: 0.201
# Mean RMSD: 0.122
data_MOF--net-the--node1-GIZVER_clean_sbu_0--node2-BETDAH_clean_linker_0--edge1-AJUNOK_clean_linker_0
_symmetry_space_group_name_H-M    P1
_symmetry_Int_Tables_number       1
_symmetry_cell_setting            triclinic
loop_
_symmetry_equiv_pos_as_xyz
'x, y, z'
_cell_length_a     30.766654
_cell_length_b     28.620366
_cell_length_c     26.891663
_cell_angle_alpha  85.868869
_cell_angle_beta   97.322098
_cell_angle_gamma 113.39762
loop_
_atom_site_label
_atom_site_type_symbol
_atom_site_fract_x
_atom_site_fract_y
_atom_site_fract_z
_atom_type_partial_charge
H0 H 0.42315 0.29308 0.3588 0.0
H1 H 0.38618 0.28763 0.50839 0.0
H2 H 0.35439 0.38866 0.39712 0.0
C3 C 0.40742 0.30609 0.3859 0.0
C4 C 0.38853 0.3431 0.3718 0.0
C5 C 0.40636 0.286 0.43499 0.0
C6 C 0.38694 0.30314 0.47034 0.0
C7 C 0.36773 0.33952 0.45702 0.0
C8 C 0.36866 0.35987 0.40761 0.0
N9 N 0.34805 0.35476 0.49452 0.0
C10 C 0.31272 0.37355 0.48409 0.0
H11 H 0.77841 0.27464 0.41791 0.0
H12 H 0.81649 0.37729 0.29129 0.0
H13 H 0.67747 0.25726 0.28604 0.0
C14 C 0.76895 0.28671 0.38045 0.0
C15 C 0.72361 0.25942 0.35497 0.0
C16 C 0.80245 0.32985 0.35843 0.0
C17 C 0.79121 0.34421 0.30905 0.0
C18 C 0.74641 0.31806 0.28298 0.0
C19 C 0.7123 0.27637 0.30623 0.0
N20 N 0.73794 0.33245 0.23221 0.0
C21 C 0.69977 0.34522 0.21304 0.0
H22 H 0.77963 0.63366 0.3037 0.0
H23 H 0.82292 0.76517 0.3956 0.0
H24 H 0.71807 0.74517 0.26843 0.0
C25 C 0.77677 0.66882 0.31186 0.0
C26 C 0.74482 0.68537 0.28095 0.0
C27 C 0.80517 0.69739 0.35324 0.0
C28 C 0.8007 0.74245 0.36438 0.0
C29 C 0.7696 0.75983 0.33342 0.0
C30 C 0.74219 0.73151 0.29178 0.0
N31 N 0.7699 0.80868 0.33996 0.0
C32 C 0.75081 0.82038 0.37926 0.0
H33 H 0.31567 0.75118 0.42176 0.0
H34 H 0.41427 0.79367 0.31052 0.0
H35 H 0.27806 0.67152 0.28194 0.0
C36 C 0.32346 0.74661 0.38469 0.0
C37 C 0.29018 0.70776 0.35354 0.0
C38 C 0.36819 0.77799 0.36932 0.0
C39 C 0.37987 0.7699 0.32274 0.0
C40 C 0.34781 0.73087 0.29197 0.0
C41 C 0.30301 0.70049 0.30701 0.0
N42 N 0.35974 0.72465 0.2444 0.0
C43 C 0.37221 0.68477 0.23446 0.0
H44 H 0.34405 0.7736 0.66533 0.0
H45 H 0.29081 0.64569 0.76614 0.0
H46 H 0.43353 0.75644 0.79683 0.0
C47 C 0.34972 0.75258 0.69893 0.0
C48 C 0.39389 0.77114 0.72899 0.0
C49 C 0.31318 0.70621 0.71046 0.0
C50 C 0.3189 0.68119 0.75606 0.0
C51 C 0.36167 0.69958 0.78775 0.0
C52 C 0.39977 0.74382 0.77353 0.0
N53 N 0.36434 0.67228 0.83355 0.0
C54 C 0.40554 0.67071 0.86042 0.0
H55 H 0.46802 0.29613 0.77652 0.0
H56 H 0.34608 0.33642 0.76956 0.0
H57 H 0.3469 0.22947 0.66684 0.0
C58 C 0.43255 0.29153 0.76019 0.0
C59 C 0.41075 0.25964 0.71855 0.0
C60 C 0.40929 0.31918 0.77952 0.0
C61 C 0.36452 0.31564 0.75549 0.0
C62 C 0.34241 0.28335 0.71479 0.0
C63 C 0.36509 0.25501 0.6976 0.0
N64 N 0.29588 0.27554 0.69222 0.0
C65 C 0.27903 0.3138 0.67971 0.0
H66 H 0.8296 0.28929 0.68155 0.0
H67 H 0.83928 0.4407 0.7037 0.0
H68 H 0.70415 0.31607 0.70033 0.0
C69 C 0.81314 0.31462 0.68979 0.0
C70 C 0.76353 0.29543 0.69226 0.0
C71 C 0.84113 0.36694 0.69536 0.0
C72 C 0.819 0.39988 0.70295 0.0
C73 C 0.77021 0.38144 0.70608 0.0
C74 C 0.74249 0.3293 0.70124 0.0
N75 N 0.74874 0.41682 0.70607 0.0
C76 C 0.72551 0.42013 0.74568 0.0
H77 H 0.808 0.6161 0.73553 0.0
H78 H 0.80028 0.67372 0.58372 0.0
H79 H 0.70351 0.67879 0.6827 0.0
C80 C 0.7919 0.63397 0.70612 0.0
C81 C 0.75279 0.64501 0.71462 0.0
C82 C 0.80892 0.64427 0.65877 0.0
C83 C 0.78721 0.66581 0.62031 0.0
C84 C 0.75025 0.67946 0.62902 0.0
C85 C 0.73296 0.6691 0.6762 0.0
N86 N 0.73108 0.70331 0.58944 0.0
C87 C 0.71559 0.74113 0.5976 0.0
Co88 Co 0.14769 0.4855 0.55527 0.0
Co89 Co 0.09982 0.46461 0.46479 0.0
Co90 Co 0.06082 0.5303 0.5221 0.0
O91 O 0.08403 0.4742 0.5273 0.0
H92 H 0.06091 0.44261 0.53934 0.0
O93 O 0.03664 0.58592 0.51779 0.0
Co94 Co 0.97051 0.57206 0.49654 0.0
Co95 Co 0.02413 0.59256 0.58295 0.0
H96 H 0.05852 0.61766 0.50461 0.0
O97 O 0.11436 0.409 0.44948 0.0
O98 O 0.16334 0.4803 0.48808 0.0
O99 O 0.10107 0.51622 0.41444 0.0
O100 O 0.10583 0.57127 0.47106 0.0
O101 O 1.00989 0.4917 0.4681 0.0
O102 O 0.91114 0.56564 0.47494 0.0
O103 O 0.97772 0.63764 0.48291 0.0
O104 O 0.95402 0.5014 0.50483 0.0
O105 O 1.01724 0.48908 0.57311 0.0
O106 O 0.029 0.54221 0.63352 0.0
O107 O 0.95907 0.57533 0.56685 0.0
O108 O 1.01199 0.64651 0.604 0.0
C109 C 0.18115 0.43957 0.588 0.0
C110 C 0.15519 0.58126 0.57278 0.0
C111 C 0.11586 0.5616 0.42918 0.0
C112 C 0.15688 0.4381 0.46797 0.0
C113 C 0.93225 0.61463 0.46844 0.0
C114 C 0.96591 0.47823 0.47391 0.0
C115 C 1.01328 0.49711 0.61797 0.0
C116 C 0.96815 0.61578 0.59211 0.0
O117 O 0.20486 0.4885 0.58296 0.0
O118 O 0.13626 0.41972 0.57027 0.0
O119 O 0.11107 0.56879 0.57658 0.0
O120 O 0.16781 0.55633 0.54463 0.0
Co121 Co 0.60895 0.93171 0.52306 0.0
Co122 Co 0.63336 0.96774 0.61568 0.0
Co123 Co 0.56806 0.01985 0.55545 0.0
O124 O 0.6202 0.99556 0.552 0.0
H125 H 0.64876 0.0226 0.54206 0.0
O126 O 0.51654 0.04483 0.56037 0.0
Co127 Co 0.53169 0.11147 0.5865 0.0
Co128 Co 0.503 0.07078 0.49781 0.0
H129 H 0.48821 0.01881 0.57204 0.0
O130 O 0.68759 0.95162 0.63356 0.0
O131 O 0.61891 0.90401 0.59045 0.0
O132 O 0.58819 0.95546 0.66438 0.0
O133 O 0.53464 0.96413 0.60477 0.0
O134 O 0.60962 0.0661 0.61051 0.0
O135 O 0.54076 0.1707 0.61276 0.0
O136 O 0.47275 0.10046 0.60314 0.0
O137 O 0.59576 0.13178 0.57552 0.0
O138 O 0.60117 0.07524 0.50496 0.0
O139 O 0.54432 0.07774 0.44642 0.0
O140 O 0.51671 0.13632 0.51812 0.0
O141 O 0.44727 0.08074 0.48053 0.0
C142 C 0.65022 0.90089 0.49323 0.0
C143 C 0.51715 0.92585 0.50078 0.0
C144 C 0.54532 0.94647 0.64749 0.0
C145 C 0.66027 0.90891 0.61263 0.0
C146 C 0.4962 0.14665 0.61973 0.0
C147 C 0.62104 0.11405 0.60559 0.0
C148 C 0.58797 0.08909 0.46131 0.0
C149 C 0.47427 0.12654 0.49506 0.0
O150 O 0.6049 0.87507 0.49555 0.0
O151 O 0.6701 0.94665 0.5115 0.0
O152 O 0.52625 0.97354 0.50004 0.0
O153 O 0.54339 0.90804 0.52926 0.0
Co154 Co 0.49981 0.52813 0.13526 0.0
Co155 Co 0.47707 0.43557 0.11556 0.0
Co156 Co 0.55134 0.50942 0.03781 0.0
O157 O 0.49436 0.49328 0.07528 0.0
H158 H 0.46696 0.49217 0.05259 0.0
O159 O 0.60772 0.52553 0.9994 0.0
Co160 Co 0.59595 0.49839 0.93361 0.0
Co161 Co 0.62924 0.59023 0.96828 0.0
H162 H 0.63381 0.52018 1.01963 0.0
O163 O 0.41572 0.39994 0.13307 0.0
O164 O 0.47532 0.46357 0.1751 0.0
O165 O 0.52298 0.40532 0.12683 0.0
O166 O 0.57648 0.46139 0.08005 0.0
O167 O 0.50999 0.45222 0.99029 0.0
O168 O 0.58943 0.47146 0.87448 0.0
O169 O 0.65212 0.49253 0.93409 0.0
O170 O 0.53577 0.50077 0.92527 0.0
O171 O 0.52684 0.55825 0.9962 0.0
O172 O 0.58638 0.62444 0.96601 0.0
O173 O 0.62145 0.56729 0.9035 0.0
O174 O 0.68947 0.62106 0.94271 0.0
C175 C 0.45841 0.55812 0.16545 0.0
C176 C 0.59687 0.56019 0.13263 0.0
C177 C 0.56389 0.42351 0.11136 0.0
C178 C 0.43377 0.42593 0.17366 0.0
C179 C 0.63189 0.47358 0.89031 0.0
C180 C 0.50551 0.46081 0.94296 0.0
C181 C 0.54288 0.60204 0.97376 0.0
C182 C 0.66585 0.59722 0.90238 0.0
O183 O 0.49988 0.56259 0.18802 0.0
O184 O 0.44193 0.53159 0.1247 0.0
O185 O 0.59365 0.56591 0.08488 0.0
O186 O 0.56142 0.52987 0.15383 0.0
C187 C 0.22756 0.35596 0.46571 0.0
C188 C 0.27455 0.39095 0.47667 0.0
C189 C 0.1895 0.37169 0.46159 0.0
C190 C 0.19753 0.42283 0.46863 0.0
H191 H 0.2201 0.31609 0.46115 0.0
H192 H 0.1536 0.34338 0.45411 0.0
S193 S 0.31542 0.52907 0.49611 0.0
N194 N 0.32792 0.47836 0.49326 0.0
N195 N 0.25689 0.50873 0.48506 0.0
C196 C 0.24492 0.45827 0.47858 0.0
C197 C 0.2834 0.44207 0.48278 0.0
C198 C 0.68552 0.21602 0.43245 0.0
C199 C 0.68842 0.21453 0.38065 0.0
C200 C 0.65425 0.17446 0.45828 0.0
C201 C 0.6236 0.12987 0.43342 0.0
H202 H 0.70712 0.24995 0.45339 0.0
H203 H 0.65295 0.17801 0.49783 0.0
S204 S 0.61688 0.10462 0.29894 0.0
N205 N 0.65855 0.16263 0.30612 0.0
N206 N 0.59768 0.08595 0.35453 0.0
C207 C 0.6254 0.12759 0.38181 0.0
C208 C 0.6582 0.16951 0.35549 0.0
C209 C 0.83588 0.66648 0.43467 0.0
C210 C 0.84052 0.68075 0.38379 0.0
C211 C 0.86698 0.64691 0.46284 0.0
C212 C 0.90463 0.64256 0.4415 0.0
H213 H 0.80699 0.66873 0.45223 0.0
H214 H 0.86096 0.63421 0.50117 0.0
S215 S 0.93323 0.67668 0.31066 0.0
N216 N 0.88617 0.69017 0.31373 0.0
N217 N 0.94534 0.65498 0.36709 0.0
C218 C 0.91057 0.65834 0.39131 0.0
C219 C 0.87836 0.67709 0.36236 0.0
C220 C 0.44889 0.81308 0.41682 0.0
C221 C 0.40469 0.81656 0.40323 0.0
C222 C 0.48459 0.84873 0.44819 0.0
C223 C 0.47817 0.89016 0.46658 0.0
H224 H 0.45581 0.78213 0.40345 0.0
H225 H 0.51774 0.84381 0.45772 0.0
S226 S 0.36859 0.91646 0.4422 0.0
N227 N 0.35579 0.86413 0.41093 0.0
N228 N 0.42375 0.93229 0.46912 0.0
C229 C 0.43419 0.89442 0.45303 0.0
C230 C 0.39722 0.85727 0.42171 0.0
C231 C 0.22504 0.65683 0.68769 0.0
C232 C 0.27133 0.6812 0.67286 0.0
C233 C 0.18644 0.62724 0.65411 0.0
C234 C 0.19292 0.62055 0.60468 0.0
H235 H 0.21887 0.65944 0.72597 0.0
H236 H 0.15197 0.60727 0.66778 0.0
S237 S 0.30555 0.6797 0.54541 0.0
N238 N 0.32034 0.69876 0.60392 0.0
N239 N 0.2479 0.64435 0.54108 0.0
C240 C 0.2383 0.647 0.58856 0.0
C241 C 0.27746 0.677 0.62253 0.0
C242 C 0.43187 0.23088 0.64198 0.0
C243 C 0.4347 0.23163 0.69485 0.0
C244 C 0.45063 0.20217 0.61794 0.0
C245 C 0.47299 0.17293 0.64565 0.0
H246 H 0.4151 0.25293 0.61878 0.0
H247 H 0.44812 0.20343 0.57739 0.0
S248 S 0.49166 0.16232 0.78419 0.0
N249 N 0.46262 0.20042 0.77383 0.0
N250 N 0.4988 0.14754 0.72836 0.0
C251 C 0.47707 0.17387 0.69825 0.0
C252 C 0.45779 0.20297 0.72291 0.0
C253 C 0.90313 0.37986 0.6386 0.0
C254 C 0.89154 0.38969 0.6845 0.0
C255 C 0.94553 0.41212 0.6196 0.0
C256 C 0.97762 0.45574 0.64559 0.0
H257 H 0.87746 0.34987 0.61504 0.0
H258 H 0.95091 0.40509 0.58227 0.0
S259 S 0.96891 0.49022 0.77328 0.0
N260 N 0.91943 0.43962 0.76001 0.0
N261 N 0.99894 0.50097 0.72405 0.0
C262 C 0.969 0.4623 0.69422 0.0
C263 C 0.92596 0.42912 0.7137 0.0
C264 C 0.65448 0.77601 0.59714 0.0
C265 C 0.70245 0.78295 0.60429 0.0
C266 C 0.64129 0.81702 0.60089 0.0
C267 C 0.67572 0.86621 0.61201 0.0
H268 H 0.62706 0.73891 0.58785 0.0
H269 H 0.60378 0.8101 0.59451 0.0
S270 S 0.8065 0.90296 0.63384 0.0
N271 N 0.78462 0.84134 0.62298 0.0
N272 N 0.76012 0.91891 0.63021 0.0
C273 C 0.72395 0.87316 0.61989 0.0
C274 C 0.73726 0.83132 0.61588 0.0
C275 C 0.39257 0.19615 0.45866 0.0
C276 C 0.42462 0.24615 0.44971 0.0
C277 C 0.40902 0.15767 0.47366 0.0
C278 C 0.45809 0.16828 0.48123 0.0
H279 H 0.35455 0.18675 0.45368 0.0
H280 H 0.38313 0.11943 0.47973 0.0
S281 S 0.55621 0.29405 0.46351 0.0
N282 N 0.50711 0.30485 0.4495 0.0
N283 N 0.53854 0.23285 0.47878 0.0
C284 C 0.49049 0.21854 0.47305 0.0
C285 C 0.4736 0.25744 0.45694 0.0
C286 C 0.84318 0.37769 0.43652 0.0
C287 C 0.84672 0.36291 0.38897 0.0
C288 C 0.88251 0.41327 0.46423 0.0
C289 C 0.92738 0.43572 0.44584 0.0
H290 H 0.80917 0.36322 0.45172 0.0
H291 H 0.87722 0.42419 0.50003 0.0
S292 S 0.95701 0.40612 0.32562 0.0
N293 N 0.89968 0.37036 0.32626 0.0
N294 N 0.97384 0.43769 0.37846 0.0
C295 C 0.93217 0.41949 0.39944 0.0
C296 C 0.8918 0.3832 0.37092 0.0
C297 C 0.74749 0.88991 0.426 0.0
C298 C 0.72876 0.83813 0.41413 0.0
C299 C 0.72295 0.90959 0.45361 0.0
C300 C 0.67844 0.87822 0.46965 0.0
H301 H 0.78057 0.91577 0.4124 0.0
H302 H 0.73807 0.95004 0.46056 0.0
S303 S 0.6169 0.73851 0.45187 0.0
N304 N 0.66551 0.75507 0.42332 0.0
N305 N 0.61886 0.79143 0.47473 0.0
C306 C 0.66057 0.82572 0.45973 0.0
C307 C 0.68584 0.80583 0.43201 0.0
C308 C 0.22606 0.62023 0.36034 0.0
C309 C 0.24333 0.67251 0.37033 0.0
C310 C 0.18335 0.58552 0.3768 0.0
C311 C 0.15604 0.60108 0.40495 0.0
H312 H 0.24645 0.60541 0.34094 0.0
H313 H 0.17303 0.54563 0.36929 0.0
S314 S 0.18309 0.734 0.43853 0.0
N315 N 0.22748 0.7387 0.40714 0.0
N316 N 0.14823 0.67283 0.44023 0.0
C317 C 0.17214 0.65333 0.41442 0.0
C318 C 0.21546 0.68906 0.39679 0.0
C319 C 0.43887 0.82274 0.65891 0.0
C320 C 0.43389 0.81679 0.71069 0.0
C321 C 0.47398 0.86561 0.63925 0.0
C322 C 0.50699 0.90396 0.67045 0.0
H323 H 0.41563 0.79373 0.63294 0.0
H324 H 0.47602 0.86795 0.59916 0.0
S325 S 0.51097 0.90797 0.80837 0.0
N326 N 0.46518 0.85452 0.79277 0.0
N327 N 0.53351 0.93364 0.75559 0.0
C328 C 0.50364 0.89848 0.72231 0.0
C329 C 0.46671 0.85526 0.74246 0.0
C330 C 0.27979 0.39686 0.64535 0.0
C331 C 0.25443 0.34601 0.65953 0.0
C332 C 0.25578 0.4269 0.62234 0.0
C333 C 0.20563 0.40689 0.61239 0.0
H334 H 0.31835 0.41333 0.65152 0.0
H335 H 0.27681 0.4659 0.61176 0.0
S336 S 0.12366 0.27481 0.64232 0.0
N337 N 0.17729 0.27646 0.66212 0.0
N338 N 0.13191 0.3323 0.61892 0.0
C339 C 0.18016 0.35575 0.62649 0.0
C340 C 0.20467 0.32547 0.65008 0.0
C341 C 0.73796 0.2244 0.63191 0.0
C342 C 0.73255 0.24239 0.67721 0.0
C343 C 0.70345 0.17945 0.61093 0.0
C344 C 0.66277 0.1506 0.63484 0.0
H345 H 0.76722 0.24705 0.6106 0.0
H346 H 0.70712 0.16893 0.57426 0.0
S347 S 0.63403 0.17755 0.75637 0.0
N348 N 0.68527 0.22489 0.74746 0.0
N349 N 0.62028 0.14064 0.70744 0.0
C350 C 0.6584 0.16608 0.68157 0.0
C351 C 0.69337 0.21192 0.70294 0.0
C352 C 0.84247 0.5961 0.61335 0.0
C353 C 0.8497 0.6335 0.64801 0.0
C354 C 0.88106 0.59056 0.59594 0.0
C355 C 0.92837 0.62302 0.6117 0.0
H356 H 0.80664 0.57175 0.59871 0.0
H357 H 0.87353 0.56123 0.56902 0.0
S358 S 0.96552 0.72649 0.70348 0.0
N359 N 0.90672 0.7026 0.69873 0.0
N360 N 0.97983 0.69306 0.66572 0.0
C361 C 0.93591 0.66013 0.64723 0.0
C362 C 0.89641 0.66516 0.66544 0.0
C363 C 0.41798 0.41743 0.31218 0.0
C364 C 0.39169 0.36517 0.32008 0.0
C365 C 0.42879 0.43745 0.26395 0.0
C366 C 0.41326 0.40603 0.22179 0.0
H367 H 0.43259 0.44247 0.34381 0.0
H368 H 0.45126 0.47748 0.26005 0.0
S369 S 0.3375 0.26752 0.22241 0.0
N370 N 0.34631 0.28327 0.28182 0.0
N371 N 0.36588 0.32058 0.19112 0.0
C372 C 0.38384 0.35431 0.22896 0.0
C373 C 0.37337 0.33394 0.27814 0.0
C374 C 0.48874 0.67789 0.88247 0.0
C375 C 0.44109 0.65812 0.89251 0.0
C376 C 0.522 0.66137 0.91065 0.0
C377 C 0.50858 0.6241 0.94955 0.0
H378 H 0.50011 0.70518 0.85184 0.0
H379 H 0.55805 0.67655 0.90042 0.0
S380 S 0.38776 0.56351 0.99192 0.0
N381 N 0.38213 0.60188 0.94495 0.0
N382 N 0.44411 0.57064 0.99795 0.0
C383 C 0.46105 0.60562 0.9608 0.0
C384 C 0.42744 0.62265 0.93221 0.0
C385 C 0.43375 0.40323 0.82105 0.0
C386 C 0.43177 0.35312 0.82367 0.0
C387 C 0.45533 0.43652 0.86114 0.0
C388 C 0.47516 0.42111 0.90624 0.0
H389 H 0.41972 0.41746 0.78704 0.0
H390 H 0.4576 0.47531 0.8563 0.0
S391 S 0.47797 0.29343 0.93351 0.0
N392 N 0.45052 0.28925 0.87602 0.0
N393 N 0.49081 0.3519 0.95143 0.0
C394 C 0.47233 0.37073 0.91012 0.0
C395 C 0.45087 0.33685 0.86885 0.0
C396 C 0.6537 0.40732 0.78505 0.0
C397 C 0.70327 0.43016 0.78525 0.0
C398 C 0.63103 0.42075 0.82023 0.0
C399 C 0.65736 0.45714 0.85687 0.0
H400 H 0.63222 0.3799 0.75681 0.0
H401 H 0.59253 0.40296 0.81828 0.0
S402 S 0.78846 0.52825 0.87169 0.0
N403 N 0.77825 0.49087 0.82381 0.0
N404 N 0.7359 0.51579 0.89069 0.0
C405 C 0.70722 0.47945 0.85782 0.0
C406 C 0.73015 0.46607 0.82165 0.0
C407 C 0.75849 0.64675 0.8087 0.0
C408 C 0.73112 0.62986 0.7626 0.0
C409 C 0.73729 0.63561 0.85382 0.0
C410 C 0.68804 0.60676 0.8545 0.0
H411 H 0.79628 0.66981 0.80973 0.0
H412 H 0.75968 0.65011 0.88831 0.0
S413 S 0.60187 0.54979 0.74355 0.0
N414 N 0.65328 0.57998 0.72045 0.0
N415 N 0.61315 0.55958 0.80441 0.0
C416 C 0.66073 0.58832 0.80851 0.0
C417 C 0.68234 0.59972 0.76283 0.0
C418 C 0.68459 0.60137 0.24953 0.0
C419 C 0.71206 0.65298 0.23952 0.0
C420 C 0.64926 0.57125 0.21357 0.0
C421 C 0.64006 0.59113 0.16573 0.0
H422 H 0.68889 0.58464 0.2863 0.0
H423 H 0.62792 0.53226 0.22397 0.0
S424 S 0.70583 0.72234 0.11845 0.0
N425 N 0.73053 0.72155 0.17662 0.0
N426 N 0.66409 0.6647 0.10895 0.0
C427 C 0.66913 0.64179 0.15407 0.0
C428 C 0.70494 0.67277 0.19101 0.0
C429 C 0.42994 0.64378 0.24676 0.0
C430 C 0.38929 0.64774 0.22006 0.0
C431 C 0.45074 0.61298 0.22985 0.0
C432 C 0.43178 0.58512 0.1854 0.0
H433 H 0.44666 0.66584 0.28014 0.0
H434 H 0.48284 0.61231 0.25117 0.0
S435 S 0.3233 0.58085 0.10387 0.0
N436 N 0.3292 0.6201 0.14876 0.0
N437 N 0.36779 0.5619 0.11677 0.0
C438 C 0.38979 0.58744 0.15953 0.0
C439 C 0.36874 0.61893 0.17687 0.0
C440 C 0.61699 0.33433 0.18147 0.0
C441 C 0.66589 0.36482 0.18742 0.0
C442 C 0.58431 0.35318 0.15573 0.0
C443 C 0.59952 0.40296 0.13453 0.0
H444 H 0.60389 0.29582 0.19695 0.0
H445 H 0.5468 0.32857 0.15258 0.0
S446 S 0.72451 0.49792 0.14147 0.0
N447 N 0.72832 0.44687 0.17114 0.0
N448 N 0.6674 0.48244 0.12269 0.0
C449 C 0.64867 0.43353 0.1402 0.0
C450 C 0.68172 0.4144 0.16672 0.0
loop_
_geom_bond_atom_site_label_1
_geom_bond_atom_site_label_2
_geom_bond_distance
_geom_bond_site_symmetry_2
_ccdc_geom_bond_type
H0 C3 0.929 . S
H1 C6 0.929 . S
H2 C8 0.930 . S
C3 H0 0.929 . S
C3 C4 1.398 . S
C3 C5 1.396 . S
C4 C3 1.398 . S
C4 C8 1.407 . S
C5 C3 1.396 . S
C5 C6 1.394 . S
C6 H1 0.929 . S
C6 C5 1.394 . S
C6 C7 1.382 . S
C7 C6 1.382 . S
C7 C8 1.392 . S
C7 N9 1.420 . S
C8 H2 0.930 . S
C8 C4 1.407 . S
C8 C7 1.392 . S
N9 C7 1.420 . S
N9 C10 1.244 . S
C10 N9 1.244 . S
H11 C14 0.929 . S
H12 C17 0.929 . S
H13 C19 0.930 . S
C14 H11 0.929 . S
C14 C15 1.398 . S
C14 C16 1.396 . S
C15 C14 1.398 . S
C15 C19 1.407 . S
C16 C14 1.396 . S
C16 C17 1.394 . S
C17 H12 0.929 . S
C17 C16 1.394 . S
C17 C18 1.382 . S
C18 C17 1.382 . S
C18 C19 1.392 . S
C18 N20 1.420 . S
C19 H13 0.930 . S
C19 C15 1.407 . S
C19 C18 1.392 . S
N20 C18 1.420 . S
N20 C21 1.244 . S
C21 N20 1.244 . S
H22 C25 0.929 . S
H23 C28 0.929 . S
H24 C30 0.930 . S
C25 H22 0.929 . S
C25 C26 1.398 . S
C25 C27 1.396 . S
C26 C25 1.398 . S
C26 C30 1.407 . S
C27 C25 1.396 . S
C27 C28 1.394 . S
C28 H23 0.929 . S
C28 C27 1.394 . S
C28 C29 1.382 . S
C29 C28 1.382 . S
C29 C30 1.392 . S
C29 N31 1.420 . S
C30 H24 0.930 . S
C30 C26 1.407 . S
C30 C29 1.392 . S
N31 C29 1.420 . S
N31 C32 1.244 . S
C32 N31 1.244 . S
H33 C36 0.929 . S
H34 C39 0.929 . S
H35 C41 0.930 . S
C36 H33 0.929 . S
C36 C37 1.398 . S
C36 C38 1.396 . S
C37 C36 1.398 . S
C37 C41 1.407 . S
C38 C36 1.396 . S
C38 C39 1.394 . S
C39 H34 0.929 . S
C39 C38 1.394 . S
C39 C40 1.382 . S
C40 C39 1.382 . S
C40 C41 1.392 . S
C40 N42 1.420 . S
C41 H35 0.930 . S
C41 C37 1.407 . S
C41 C40 1.392 . S
N42 C40 1.420 . S
N42 C43 1.244 . S
C43 N42 1.244 . S
H44 C47 0.929 . S
H45 C50 0.929 . S
H46 C52 0.930 . S
C47 H44 0.929 . S
C47 C48 1.398 . S
C47 C49 1.396 . S
C48 C47 1.398 . S
C48 C52 1.407 . S
C49 C47 1.396 . S
C49 C50 1.394 . S
C50 H45 0.929 . S
C50 C49 1.394 . S
C50 C51 1.382 . S
C51 C50 1.382 . S
C51 C52 1.392 . S
C51 N53 1.420 . S
C52 H46 0.930 . S
C52 C48 1.407 . S
C52 C51 1.392 . S
N53 C51 1.420 . S
N53 C54 1.244 . S
C54 N53 1.244 . S
H55 C58 0.929 . S
H56 C61 0.929 . S
H57 C63 0.930 . S
C58 H55 0.929 . S
C58 C59 1.398 . S
C58 C60 1.396 . S
C59 C58 1.398 . S
C59 C63 1.407 . S
C60 C58 1.396 . S
C60 C61 1.394 . S
C61 H56 0.929 . S
C61 C60 1.394 . S
C61 C62 1.382 . S
C62 C61 1.382 . S
C62 C63 1.392 . S
C62 N64 1.420 . S
C63 H57 0.930 . S
C63 C59 1.407 . S
C63 C62 1.392 . S
N64 C62 1.420 . S
N64 C65 1.244 . S
C65 N64 1.244 . S
H66 C69 0.929 . S
H67 C72 0.929 . S
H68 C74 0.930 . S
C69 H66 0.929 . S
C69 C70 1.398 . S
C69 C71 1.396 . S
C70 C69 1.398 . S
C70 C74 1.407 . S
C71 C69 1.396 . S
C71 C72 1.394 . S
C72 H67 0.929 . S
C72 C71 1.394 . S
C72 C73 1.382 . S
C73 C72 1.382 . S
C73 C74 1.392 . S
C73 N75 1.420 . S
C74 H68 0.930 . S
C74 C70 1.407 . S
C74 C73 1.392 . S
N75 C73 1.420 . S
N75 C76 1.244 . S
C76 N75 1.244 . S
H77 C80 0.929 . S
H78 C83 0.929 . S
H79 C85 0.930 . S
C80 H77 0.929 . S
C80 C81 1.398 . S
C80 C82 1.396 . S
C81 C80 1.398 . S
C81 C85 1.407 . S
C82 C80 1.396 . S
C82 C83 1.394 . S
C83 H78 0.929 . S
C83 C82 1.394 . S
C83 C84 1.382 . S
C84 C83 1.382 . S
C84 C85 1.392 . S
C84 N86 1.420 . S
C85 H79 0.930 . S
C85 C81 1.407 . S
C85 C84 1.392 . S
N86 C84 1.420 . S
N86 C87 1.244 . S
C87 N86 1.244 . S
Co88 O91 2.042 . S
Co88 O98 2.264 . S
Co88 O117 2.286 . S
Co88 O118 2.069 . S
Co88 O120 2.015 . S
Co89 O91 2.122 . S
Co89 O97 2.073 . S
Co89 O98 2.327 . S
Co89 O99 1.976 . S
Co90 O91 2.087 . S
Co90 O93 2.087 1_455 S
Co90 O100 2.111 . S
Co90 O101 2.143 1_455 S
Co90 O105 2.111 1_455 S
Co90 O119 2.143 . S
O91 Co88 2.042 . S
O91 Co89 2.122 . S
O91 Co90 2.087 . S
O91 H92 0.980 . S
H92 O91 0.980 . S
O93 Co90 2.087 1_655 S
O93 Co94 2.042 . S
O93 Co95 2.122 . S
O93 H96 0.980 1_655 S
Co94 O93 2.042 . S
Co94 O102 2.286 . S
Co94 O103 2.069 . S
Co94 O104 2.015 . S
Co94 O107 2.264 . S
Co95 O93 2.122 . S
Co95 O106 1.976 . S
Co95 O107 2.327 . S
Co95 O108 2.073 . S
H96 O93 0.980 1_455 S
O97 Co89 2.073 . S
O97 C112 1.245 . S
O98 Co88 2.264 . S
O98 Co89 2.327 . S
O98 C112 1.257 . S
O99 Co89 1.976 . S
O99 C111 1.251 . S
O100 Co90 2.111 . S
O100 C111 1.274 . S
O101 Co90 2.143 1_655 S
O101 C114 1.246 . S
O102 Co94 2.286 . S
O102 C113 1.259 . S
O103 Co94 2.069 . S
O103 C113 1.289 . S
O104 Co94 2.015 . S
O104 C114 1.257 . S
O105 Co90 2.111 1_655 S
O105 C115 1.274 . S
O106 Co95 1.976 . S
O106 C115 1.251 . S
O107 Co94 2.264 . S
O107 Co95 2.327 . S
O107 C116 1.257 . S
O108 Co95 2.073 . S
O108 C116 1.245 . S
C109 O117 1.259 . S
C109 O118 1.289 . S
C110 O119 1.246 . S
C110 O120 1.257 . S
C111 O99 1.251 . S
C111 O100 1.274 . S
C112 O97 1.245 . S
C112 O98 1.257 . S
C113 O102 1.259 . S
C113 O103 1.289 . S
C114 O101 1.246 . S
C114 O104 1.257 . S
C115 O105 1.274 . S
C115 O106 1.251 . S
C116 O107 1.257 . S
C116 O108 1.245 . S
O117 Co88 2.286 . S
O117 C109 1.259 . S
O118 Co88 2.069 . S
O118 C109 1.289 . S
O119 Co90 2.143 . S
O119 C110 1.246 . S
O120 Co88 2.015 . S
O120 C110 1.257 . S
Co121 O124 2.042 . S
Co121 O131 2.264 . S
Co121 O150 2.286 . S
Co121 O151 2.069 . S
Co121 O153 2.015 . S
Co122 O124 2.122 . S
Co122 O130 2.073 . S
Co122 O131 2.327 . S
Co122 O132 1.976 . S
Co123 O124 2.087 1_545 S
Co123 O126 2.087 . S
Co123 O133 2.111 1_545 S
Co123 O134 2.143 . S
Co123 O138 2.111 . S
Co123 O152 2.143 1_545 S
O124 Co121 2.042 . S
O124 Co122 2.122 . S
O124 Co123 2.087 1_565 S
O124 H125 0.980 1_565 S
H125 O124 0.980 1_545 S
O126 Co123 2.087 . S
O126 Co127 2.042 . S
O126 Co128 2.122 . S
O126 H129 0.980 . S
Co127 O126 2.042 . S
Co127 O135 2.286 . S
Co127 O136 2.069 . S
Co127 O137 2.015 . S
Co127 O140 2.264 . S
Co128 O126 2.122 . S
Co128 O139 1.976 . S
Co128 O140 2.327 . S
Co128 O141 2.073 . S
H129 O126 0.980 . S
O130 Co122 2.073 . S
O130 C145 1.245 . S
O131 Co121 2.264 . S
O131 Co122 2.327 . S
O131 C145 1.257 . S
O132 Co122 1.976 . S
O132 C144 1.251 . S
O133 Co123 2.111 1_565 S
O133 C144 1.274 . S
O134 Co123 2.143 . S
O134 C147 1.246 . S
O135 Co127 2.286 . S
O135 C146 1.259 . S
O136 Co127 2.069 . S
O136 C146 1.289 . S
O137 Co127 2.015 . S
O137 C147 1.257 . S
O138 Co123 2.111 . S
O138 C148 1.274 . S
O139 Co128 1.976 . S
O139 C148 1.251 . S
O140 Co127 2.264 . S
O140 Co128 2.327 . S
O140 C149 1.257 . S
O141 Co128 2.073 . S
O141 C149 1.245 . S
C142 O150 1.259 . S
C142 O151 1.289 . S
C143 O152 1.246 . S
C143 O153 1.257 . S
C144 O132 1.251 . S
C144 O133 1.274 . S
C145 O130 1.245 . S
C145 O131 1.257 . S
C146 O135 1.259 . S
C146 O136 1.289 . S
C147 O134 1.246 . S
C147 O137 1.257 . S
C148 O138 1.274 . S
C148 O139 1.251 . S
C149 O140 1.257 . S
C149 O141 1.245 . S
O150 Co121 2.286 . S
O150 C142 1.259 . S
O151 Co121 2.069 . S
O151 C142 1.289 . S
O152 Co123 2.143 1_565 S
O152 C143 1.246 . S
O153 Co121 2.015 . S
O153 C143 1.257 . S
Co154 O157 2.042 . S
Co154 O164 2.264 . S
Co154 O183 2.286 . S
Co154 O184 2.069 . S
Co154 O186 2.015 . S
Co155 O157 2.122 . S
Co155 O163 2.073 . S
Co155 O164 2.327 . S
Co155 O165 1.976 . S
Co156 O157 2.087 . S
Co156 O159 2.087 1_554 S
Co156 O166 2.111 . S
Co156 O167 2.143 1_554 S
Co156 O171 2.111 1_554 S
Co156 O185 2.143 . S
O157 Co154 2.042 . S
O157 Co155 2.122 . S
O157 Co156 2.087 . S
O157 H158 0.980 . S
H158 O157 0.980 . S
O159 Co156 2.087 1_556 S
O159 Co160 2.042 . S
O159 Co161 2.122 . S
O159 H162 0.980 . S
Co160 O159 2.042 . S
Co160 O168 2.286 . S
Co160 O169 2.069 . S
Co160 O170 2.015 . S
Co160 O173 2.264 . S
Co161 O159 2.122 . S
Co161 O172 1.976 . S
Co161 O173 2.327 . S
Co161 O174 2.073 . S
H162 O159 0.980 . S
O163 Co155 2.073 . S
O163 C178 1.245 . S
O164 Co154 2.264 . S
O164 Co155 2.327 . S
O164 C178 1.257 . S
O165 Co155 1.976 . S
O165 C177 1.251 . S
O166 Co156 2.111 . S
O166 C177 1.274 . S
O167 Co156 2.143 1_556 S
O167 C180 1.246 . S
O168 Co160 2.286 . S
O168 C179 1.259 . S
O169 Co160 2.069 . S
O169 C179 1.289 . S
O170 Co160 2.015 . S
O170 C180 1.257 . S
O171 Co156 2.111 1_556 S
O171 C181 1.274 . S
O172 Co161 1.976 . S
O172 C181 1.251 . S
O173 Co160 2.264 . S
O173 Co161 2.327 . S
O173 C182 1.257 . S
O174 Co161 2.073 . S
O174 C182 1.245 . S
C175 O183 1.259 . S
C175 O184 1.289 . S
C176 O185 1.246 . S
C176 O186 1.257 . S
C177 O165 1.251 . S
C177 O166 1.274 . S
C178 O163 1.245 . S
C178 O164 1.257 . S
C179 O168 1.259 . S
C179 O169 1.289 . S
C180 O167 1.246 . S
C180 O170 1.257 . S
C181 O171 1.274 . S
C181 O172 1.251 . S
C182 O173 1.257 . S
C182 O174 1.245 . S
O183 Co154 2.286 . S
O183 C175 1.259 . S
O184 Co154 2.069 . S
O184 C175 1.289 . S
O185 Co156 2.143 . S
O185 C176 1.246 . S
O186 Co154 2.015 . S
O186 C176 1.257 . S
C187 C188 1.369 . S
C187 C189 1.419 . S
C187 H191 0.930 . S
C188 C187 1.369 . S
C188 C197 1.429 . S
C189 C187 1.419 . S
C189 C190 1.363 . S
C189 H192 0.929 . S
C190 C189 1.363 . S
C190 C196 1.428 . S
H191 C187 0.930 . S
H192 C189 0.929 . S
S193 N194 1.613 . S
S193 N195 1.610 . S
N194 S193 1.613 . S
N194 C197 1.350 . S
N195 S193 1.610 . S
N195 C196 1.351 . S
C196 C190 1.428 . S
C196 N195 1.351 . S
C196 C197 1.434 . S
C197 C188 1.429 . S
C197 N194 1.350 . S
C197 C196 1.434 . S
C198 C199 1.369 . S
C198 C200 1.419 . S
C198 H202 0.930 . S
C199 C198 1.369 . S
C199 C208 1.429 . S
C200 C198 1.419 . S
C200 C201 1.363 . S
C200 H203 0.929 . S
C201 C200 1.363 . S
C201 C207 1.428 . S
H202 C198 0.930 . S
H203 C200 0.929 . S
S204 N205 1.613 . S
S204 N206 1.610 . S
N205 S204 1.613 . S
N205 C208 1.350 . S
N206 S204 1.610 . S
N206 C207 1.351 . S
C207 C201 1.428 . S
C207 N206 1.351 . S
C207 C208 1.434 . S
C208 C199 1.429 . S
C208 N205 1.350 . S
C208 C207 1.434 . S
C209 C210 1.369 . S
C209 C211 1.419 . S
C209 H213 0.930 . S
C210 C209 1.369 . S
C210 C219 1.429 . S
C211 C209 1.419 . S
C211 C212 1.363 . S
C211 H214 0.929 . S
C212 C211 1.363 . S
C212 C218 1.428 . S
H213 C209 0.930 . S
H214 C211 0.929 . S
S215 N216 1.613 . S
S215 N217 1.610 . S
N216 S215 1.613 . S
N216 C219 1.350 . S
N217 S215 1.610 . S
N217 C218 1.351 . S
C218 C212 1.428 . S
C218 N217 1.351 . S
C218 C219 1.434 . S
C219 C210 1.429 . S
C219 N216 1.350 . S
C219 C218 1.434 . S
C220 C221 1.369 . S
C220 C222 1.419 . S
C220 H224 0.930 . S
C221 C220 1.369 . S
C221 C230 1.429 . S
C222 C220 1.419 . S
C222 C223 1.363 . S
C222 H225 0.929 . S
C223 C222 1.363 . S
C223 C229 1.428 . S
H224 C220 0.930 . S
H225 C222 0.929 . S
S226 N227 1.613 . S
S226 N228 1.610 . S
N227 S226 1.613 . S
N227 C230 1.350 . S
N228 S226 1.610 . S
N228 C229 1.351 . S
C229 C223 1.428 . S
C229 N228 1.351 . S
C229 C230 1.434 . S
C230 C221 1.429 . S
C230 N227 1.350 . S
C230 C229 1.434 . S
C231 C232 1.369 . S
C231 C233 1.419 . S
C231 H235 0.930 . S
C232 C231 1.369 . S
C232 C241 1.429 . S
C233 C231 1.419 . S
C233 C234 1.363 . S
C233 H236 0.929 . S
C234 C233 1.363 . S
C234 C240 1.428 . S
H235 C231 0.930 . S
H236 C233 0.929 . S
S237 N238 1.613 . S
S237 N239 1.610 . S
N238 S237 1.613 . S
N238 C241 1.350 . S
N239 S237 1.610 . S
N239 C240 1.351 . S
C240 C234 1.428 . S
C240 N239 1.351 . S
C240 C241 1.434 . S
C241 C232 1.429 . S
C241 N238 1.350 . S
C241 C240 1.434 . S
C242 C243 1.369 . S
C242 C244 1.419 . S
C242 H246 0.930 . S
C243 C242 1.369 . S
C243 C252 1.429 . S
C244 C242 1.419 . S
C244 C245 1.363 . S
C244 H247 0.929 . S
C245 C244 1.363 . S
C245 C251 1.428 . S
H246 C242 0.930 . S
H247 C244 0.929 . S
S248 N249 1.613 . S
S248 N250 1.610 . S
N249 S248 1.613 . S
N249 C252 1.350 . S
N250 S248 1.610 . S
N250 C251 1.351 . S
C251 C245 1.428 . S
C251 N250 1.351 . S
C251 C252 1.434 . S
C252 C243 1.429 . S
C252 N249 1.350 . S
C252 C251 1.434 . S
C253 C254 1.369 . S
C253 C255 1.419 . S
C253 H257 0.930 . S
C254 C253 1.369 . S
C254 C263 1.429 . S
C255 C253 1.419 . S
C255 C256 1.363 . S
C255 H258 0.929 . S
C256 C255 1.363 . S
C256 C262 1.428 . S
H257 C253 0.930 . S
H258 C255 0.929 . S
S259 N260 1.613 . S
S259 N261 1.610 . S
N260 S259 1.613 . S
N260 C263 1.350 . S
N261 S259 1.610 . S
N261 C262 1.351 . S
C262 C256 1.428 . S
C262 N261 1.351 . S
C262 C263 1.434 . S
C263 C254 1.429 . S
C263 N260 1.350 . S
C263 C262 1.434 . S
C264 C265 1.369 . S
C264 C266 1.419 . S
C264 H268 0.930 . S
C265 C264 1.369 . S
C265 C274 1.429 . S
C266 C264 1.419 . S
C266 C267 1.363 . S
C266 H269 0.929 . S
C267 C266 1.363 . S
C267 C273 1.428 . S
H268 C264 0.930 . S
H269 C266 0.929 . S
S270 N271 1.613 . S
S270 N272 1.610 . S
N271 S270 1.613 . S
N271 C274 1.350 . S
N272 S270 1.610 . S
N272 C273 1.351 . S
C273 C267 1.428 . S
C273 N272 1.351 . S
C273 C274 1.434 . S
C274 C265 1.429 . S
C274 N271 1.350 . S
C274 C273 1.434 . S
C275 C276 1.369 . S
C275 C277 1.419 . S
C275 H279 0.930 . S
C276 C275 1.369 . S
C276 C285 1.429 . S
C277 C275 1.419 . S
C277 C278 1.363 . S
C277 H280 0.929 . S
C278 C277 1.363 . S
C278 C284 1.428 . S
H279 C275 0.930 . S
H280 C277 0.929 . S
S281 N282 1.613 . S
S281 N283 1.610 . S
N282 S281 1.613 . S
N282 C285 1.350 . S
N283 S281 1.610 . S
N283 C284 1.351 . S
C284 C278 1.428 . S
C284 N283 1.351 . S
C284 C285 1.434 . S
C285 C276 1.429 . S
C285 N282 1.350 . S
C285 C284 1.434 . S
C286 C287 1.369 . S
C286 C288 1.419 . S
C286 H290 0.930 . S
C287 C286 1.369 . S
C287 C296 1.429 . S
C288 C286 1.419 . S
C288 C289 1.363 . S
C288 H291 0.929 . S
C289 C288 1.363 . S
C289 C295 1.428 . S
H290 C286 0.930 . S
H291 C288 0.929 . S
S292 N293 1.613 . S
S292 N294 1.610 . S
N293 S292 1.613 . S
N293 C296 1.350 . S
N294 S292 1.610 . S
N294 C295 1.351 . S
C295 C289 1.428 . S
C295 N294 1.351 . S
C295 C296 1.434 . S
C296 C287 1.429 . S
C296 N293 1.350 . S
C296 C295 1.434 . S
C297 C298 1.369 . S
C297 C299 1.419 . S
C297 H301 0.930 . S
C298 C297 1.369 . S
C298 C307 1.429 . S
C299 C297 1.419 . S
C299 C300 1.363 . S
C299 H302 0.929 . S
C300 C299 1.363 . S
C300 C306 1.428 . S
H301 C297 0.930 . S
H302 C299 0.929 . S
S303 N304 1.613 . S
S303 N305 1.610 . S
N304 S303 1.613 . S
N304 C307 1.350 . S
N305 S303 1.610 . S
N305 C306 1.351 . S
C306 C300 1.428 . S
C306 N305 1.351 . S
C306 C307 1.434 . S
C307 C298 1.429 . S
C307 N304 1.350 . S
C307 C306 1.434 . S
C308 C309 1.369 . S
C308 C310 1.419 . S
C308 H312 0.930 . S
C309 C308 1.369 . S
C309 C318 1.429 . S
C310 C308 1.419 . S
C310 C311 1.363 . S
C310 H313 0.929 . S
C311 C310 1.363 . S
C311 C317 1.428 . S
H312 C308 0.930 . S
H313 C310 0.929 . S
S314 N315 1.613 . S
S314 N316 1.610 . S
N315 S314 1.613 . S
N315 C318 1.350 . S
N316 S314 1.610 . S
N316 C317 1.351 . S
C317 C311 1.428 . S
C317 N316 1.351 . S
C317 C318 1.434 . S
C318 C309 1.429 . S
C318 N315 1.350 . S
C318 C317 1.434 . S
C319 C320 1.369 . S
C319 C321 1.419 . S
C319 H323 0.930 . S
C320 C319 1.369 . S
C320 C329 1.429 . S
C321 C319 1.419 . S
C321 C322 1.363 . S
C321 H324 0.929 . S
C322 C321 1.363 . S
C322 C328 1.428 . S
H323 C319 0.930 . S
H324 C321 0.929 . S
S325 N326 1.613 . S
S325 N327 1.610 . S
N326 S325 1.613 . S
N326 C329 1.350 . S
N327 S325 1.610 . S
N327 C328 1.351 . S
C328 C322 1.428 . S
C328 N327 1.351 . S
C328 C329 1.434 . S
C329 C320 1.429 . S
C329 N326 1.350 . S
C329 C328 1.434 . S
C330 C331 1.369 . S
C330 C332 1.419 . S
C330 H334 0.930 . S
C331 C330 1.369 . S
C331 C340 1.429 . S
C332 C330 1.419 . S
C332 C333 1.363 . S
C332 H335 0.929 . S
C333 C332 1.363 . S
C333 C339 1.428 . S
H334 C330 0.930 . S
H335 C332 0.929 . S
S336 N337 1.613 . S
S336 N338 1.610 . S
N337 S336 1.613 . S
N337 C340 1.350 . S
N338 S336 1.610 . S
N338 C339 1.351 . S
C339 C333 1.428 . S
C339 N338 1.351 . S
C339 C340 1.434 . S
C340 C331 1.429 . S
C340 N337 1.350 . S
C340 C339 1.434 . S
C341 C342 1.369 . S
C341 C343 1.419 . S
C341 H345 0.930 . S
C342 C341 1.369 . S
C342 C351 1.429 . S
C343 C341 1.419 . S
C343 C344 1.363 . S
C343 H346 0.929 . S
C344 C343 1.363 . S
C344 C350 1.428 . S
H345 C341 0.930 . S
H346 C343 0.929 . S
S347 N348 1.613 . S
S347 N349 1.610 . S
N348 S347 1.613 . S
N348 C351 1.350 . S
N349 S347 1.610 . S
N349 C350 1.351 . S
C350 C344 1.428 . S
C350 N349 1.351 . S
C350 C351 1.434 . S
C351 C342 1.429 . S
C351 N348 1.350 . S
C351 C350 1.434 . S
C352 C353 1.369 . S
C352 C354 1.419 . S
C352 H356 0.930 . S
C353 C352 1.369 . S
C353 C362 1.429 . S
C354 C352 1.419 . S
C354 C355 1.363 . S
C354 H357 0.929 . S
C355 C354 1.363 . S
C355 C361 1.428 . S
H356 C352 0.930 . S
H357 C354 0.929 . S
S358 N359 1.613 . S
S358 N360 1.610 . S
N359 S358 1.613 . S
N359 C362 1.350 . S
N360 S358 1.610 . S
N360 C361 1.351 . S
C361 C355 1.428 . S
C361 N360 1.351 . S
C361 C362 1.434 . S
C362 C353 1.429 . S
C362 N359 1.350 . S
C362 C361 1.434 . S
C363 C364 1.369 . S
C363 C365 1.419 . S
C363 H367 0.930 . S
C364 C363 1.369 . S
C364 C373 1.429 . S
C365 C363 1.419 . S
C365 C366 1.363 . S
C365 H368 0.929 . S
C366 C365 1.363 . S
C366 C372 1.428 . S
H367 C363 0.930 . S
H368 C365 0.929 . S
S369 N370 1.613 . S
S369 N371 1.610 . S
N370 S369 1.613 . S
N370 C373 1.350 . S
N371 S369 1.610 . S
N371 C372 1.351 . S
C372 C366 1.428 . S
C372 N371 1.351 . S
C372 C373 1.434 . S
C373 C364 1.429 . S
C373 N370 1.350 . S
C373 C372 1.434 . S
C374 C375 1.369 . S
C374 C376 1.419 . S
C374 H378 0.930 . S
C375 C374 1.369 . S
C375 C384 1.429 . S
C376 C374 1.419 . S
C376 C377 1.363 . S
C376 H379 0.929 . S
C377 C376 1.363 . S
C377 C383 1.428 . S
H378 C374 0.930 . S
H379 C376 0.929 . S
S380 N381 1.613 . S
S380 N382 1.610 . S
N381 S380 1.613 . S
N381 C384 1.350 . S
N382 S380 1.610 . S
N382 C383 1.351 . S
C383 C377 1.428 . S
C383 N382 1.351 . S
C383 C384 1.434 . S
C384 C375 1.429 . S
C384 N381 1.350 . S
C384 C383 1.434 . S
C385 C386 1.369 . S
C385 C387 1.419 . S
C385 H389 0.930 . S
C386 C385 1.369 . S
C386 C395 1.429 . S
C387 C385 1.419 . S
C387 C388 1.363 . S
C387 H390 0.929 . S
C388 C387 1.363 . S
C388 C394 1.428 . S
H389 C385 0.930 . S
H390 C387 0.929 . S
S391 N392 1.613 . S
S391 N393 1.610 . S
N392 S391 1.613 . S
N392 C395 1.350 . S
N393 S391 1.610 . S
N393 C394 1.351 . S
C394 C388 1.428 . S
C394 N393 1.351 . S
C394 C395 1.434 . S
C395 C386 1.429 . S
C395 N392 1.350 . S
C395 C394 1.434 . S
C396 C397 1.369 . S
C396 C398 1.419 . S
C396 H400 0.930 . S
C397 C396 1.369 . S
C397 C406 1.429 . S
C398 C396 1.419 . S
C398 C399 1.363 . S
C398 H401 0.929 . S
C399 C398 1.363 . S
C399 C405 1.428 . S
H400 C396 0.930 . S
H401 C398 0.929 . S
S402 N403 1.613 . S
S402 N404 1.610 . S
N403 S402 1.613 . S
N403 C406 1.350 . S
N404 S402 1.610 . S
N404 C405 1.351 . S
C405 C399 1.428 . S
C405 N404 1.351 . S
C405 C406 1.434 . S
C406 C397 1.429 . S
C406 N403 1.350 . S
C406 C405 1.434 . S
C407 C408 1.369 . S
C407 C409 1.419 . S
C407 H411 0.930 . S
C408 C407 1.369 . S
C408 C417 1.429 . S
C409 C407 1.419 . S
C409 C410 1.363 . S
C409 H412 0.929 . S
C410 C409 1.363 . S
C410 C416 1.428 . S
H411 C407 0.930 . S
H412 C409 0.929 . S
S413 N414 1.613 . S
S413 N415 1.610 . S
N414 S413 1.613 . S
N414 C417 1.350 . S
N415 S413 1.610 . S
N415 C416 1.351 . S
C416 C410 1.428 . S
C416 N415 1.351 . S
C416 C417 1.434 . S
C417 C408 1.429 . S
C417 N414 1.350 . S
C417 C416 1.434 . S
C418 C419 1.369 . S
C418 C420 1.419 . S
C418 H422 0.930 . S
C419 C418 1.369 . S
C419 C428 1.429 . S
C420 C418 1.419 . S
C420 C421 1.363 . S
C420 H423 0.929 . S
C421 C420 1.363 . S
C421 C427 1.428 . S
H422 C418 0.930 . S
H423 C420 0.929 . S
S424 N425 1.613 . S
S424 N426 1.610 . S
N425 S424 1.613 . S
N425 C428 1.350 . S
N426 S424 1.610 . S
N426 C427 1.351 . S
C427 C421 1.428 . S
C427 N426 1.351 . S
C427 C428 1.434 . S
C428 C419 1.429 . S
C428 N425 1.350 . S
C428 C427 1.434 . S
C429 C430 1.369 . S
C429 C431 1.419 . S
C429 H433 0.930 . S
C430 C429 1.369 . S
C430 C439 1.429 . S
C431 C429 1.419 . S
C431 C432 1.363 . S
C431 H434 0.929 . S
C432 C431 1.363 . S
C432 C438 1.428 . S
H433 C429 0.930 . S
H434 C431 0.929 . S
S435 N436 1.613 . S
S435 N437 1.610 . S
N436 S435 1.613 . S
N436 C439 1.350 . S
N437 S435 1.610 . S
N437 C438 1.351 . S
C438 C432 1.428 . S
C438 N437 1.351 . S
C438 C439 1.434 . S
C439 C430 1.429 . S
C439 N436 1.350 . S
C439 C438 1.434 . S
C440 C441 1.369 . S
C440 C442 1.419 . S
C440 H444 0.930 . S
C441 C440 1.369 . S
C441 C450 1.429 . S
C442 C440 1.419 . S
C442 C443 1.363 . S
C442 H445 0.929 . S
C443 C442 1.363 . S
C443 C449 1.428 . S
H444 C440 0.930 . S
H445 C442 0.929 . S
S446 N447 1.613 . S
S446 N448 1.610 . S
N447 S446 1.613 . S
N447 C450 1.350 . S
N448 S446 1.610 . S
N448 C449 1.351 . S
C449 C443 1.428 . S
C449 N448 1.351 . S
C449 C450 1.434 . S
C450 C441 1.429 . S
C450 N447 1.350 . S
C450 C449 1.434 . S
C190 C112 1.438 . S
C188 C10 1.525 . S
C201 C148 1.398 . S
C199 C15 1.483 . S
C212 C113 1.591 . S
C210 C27 1.614 . S
C223 C143 1.553 . S
C221 C38 1.604 . S
C234 C110 1.468 . S
C232 C49 1.524 . S
C243 C59 1.804 . S
C245 C146 1.821 . S
C254 C71 0.928 . S
C256 C115 0.867 . S
C267 C145 1.517 . S
C265 C87 1.542 . S
C278 C149 1.693 . S
C276 C5 1.723 . S
C289 C114 1.245 . S
C287 C16 1.290 . S
C300 C142 1.593 . S
C298 C32 1.558 . S
C311 C111 1.227 . S
C309 C37 1.375 . S
C322 C144 1.677 . S
C320 C48 1.798 . S
C331 C65 1.316 . S
C333 C109 1.307 . S
C342 C70 1.251 . S
C344 C147 1.247 . S
C355 C116 1.493 . S
C353 C82 1.592 . S
C366 C178 1.707 . S
C364 C4 1.819 . S
C375 C54 1.953 . S
C377 C181 1.818 . S
C388 C180 1.850 . S
C386 C60 1.899 . S
C397 C76 1.362 . S
C399 C179 1.351 . S
C410 C182 1.779 . S
C408 C81 1.904 . S
C419 C26 1.808 . S
C421 C176 1.749 . S
C432 C175 1.900 . S
C430 C43 1.925 . S
C441 C21 1.332 . S
C443 C177 1.255 . S
