# Generated by pormake.
# Topology anh, (6,3)-cn, num edge types: 1
# Building blocks:
#     Node 0, Type 0, BuildingBlock: BETGAK_clean_sbu_0, # of connection points: 6
#     Node 1, Type 0, BuildingBlock: BETGAK_clean_sbu_0, # of connection points: 6
#     Node 2, Type 0, BuildingBlock: BETGAK_clean_sbu_0, # of connection points: 6
#     Node 3, Type 1, BuildingBlock: MIDCAF_clean_linker_0, # of connection points: 3
#     Node 4, Type 1, BuildingBlock: MIDCAF_clean_linker_0, # of connection points: 3
#     Node 5, Type 1, BuildingBlock: MIDCAF_clean_linker_0, # of connection points: 3
#     Node 6, Type 1, BuildingBlock: MIDCAF_clean_linker_0, # of connection points: 3
#     Node 7, Type 1, BuildingBlock: MIDCAF_clean_linker_0, # of connection points: 3
#     Node 8, Type 1, BuildingBlock: MIDCAF_clean_linker_0, # of connection points: 3
#     Edge 9, Type (0, 1), BuildingBlock: MIFKUJ_clean_linker_0, # of connection points: 2
#     Edge 10, Type (0, 1), BuildingBlock: MIFKUJ_clean_linker_0, # of connection points: 2
#     Edge 11, Type (0, 1), BuildingBlock: MIFKUJ_clean_linker_0, # of connection points: 2
#     Edge 12, Type (0, 1), BuildingBlock: MIFKUJ_clean_linker_0, # of connection points: 2
#     Edge 13, Type (0, 1), BuildingBlock: MIFKUJ_clean_linker_0, # of connection points: 2
#     Edge 14, Type (0, 1), BuildingBlock: MIFKUJ_clean_linker_0, # of connection points: 2
#     Edge 15, Type (0, 1), BuildingBlock: MIFKUJ_clean_linker_0, # of connection points: 2
#     Edge 16, Type (0, 1), BuildingBlock: MIFKUJ_clean_linker_0, # of connection points: 2
#     Edge 17, Type (0, 1), BuildingBlock: MIFKUJ_clean_linker_0, # of connection points: 2
#     Edge 18, Type (0, 1), BuildingBlock: MIFKUJ_clean_linker_0, # of connection points: 2
#     Edge 19, Type (0, 1), BuildingBlock: MIFKUJ_clean_linker_0, # of connection points: 2
#     Edge 20, Type (0, 1), BuildingBlock: MIFKUJ_clean_linker_0, # of connection points: 2
#     Edge 21, Type (0, 1), BuildingBlock: MIFKUJ_clean_linker_0, # of connection points: 2
#     Edge 22, Type (0, 1), BuildingBlock: MIFKUJ_clean_linker_0, # of connection points: 2
#     Edge 23, Type (0, 1), BuildingBlock: MIFKUJ_clean_linker_0, # of connection points: 2
#     Edge 24, Type (0, 1), BuildingBlock: MIFKUJ_clean_linker_0, # of connection points: 2
#     Edge 25, Type (0, 1), BuildingBlock: MIFKUJ_clean_linker_0, # of connection points: 2
#     Edge 26, Type (0, 1), BuildingBlock: MIFKUJ_clean_linker_0, # of connection points: 2
# Relax obj value: 0.166
# Max RMSD: 0.197
# Mean RMSD: 0.150
data_MOF--net-anh--node1-BETGAK_clean_sbu_0--node2-MIDCAF_clean_linker_0--edge1-MIFKUJ_clean_linker_0
_symmetry_space_group_name_H-M    P1
_symmetry_Int_Tables_number       1
_symmetry_cell_setting            triclinic
loop_
_symmetry_equiv_pos_as_xyz
'x, y, z'
_cell_length_a     46.05576
_cell_length_b     52.101455
_cell_length_c     82.471276
_cell_angle_alpha  92.37498
_cell_angle_beta   89.683288
_cell_angle_gamma 127.02061
loop_
_atom_site_label
_atom_site_type_symbol
_atom_site_fract_x
_atom_site_fract_y
_atom_site_fract_z
_atom_type_partial_charge
La0 La 0.08032 0.51573 0.1461 0.0
La1 La 1.03987 0.5409 0.15672 0.0
C2 C 0.12422 0.50886 0.13258 0.0
C3 C 0.16222 0.52327 0.1372 0.0
C4 C 0.17129 0.52115 0.15308 0.0
C5 C 0.20725 0.53519 0.15755 0.0
C6 C 0.23514 0.55203 0.14631 0.0
C7 C 0.22618 0.55499 0.13055 0.0
C8 C 0.19002 0.54069 0.12605 0.0
C9 C 0.07074 0.51495 0.17761 0.0
C10 C 0.12311 0.59218 0.15407 0.0
C11 C 0.99638 0.54821 0.17071 0.0
C12 C 0.95921 0.52508 0.17646 0.0
C13 C 0.93567 0.49452 0.16863 0.0
C14 C 0.90073 0.47227 0.1743 0.0
C15 C 0.88843 0.48037 0.18774 0.0
C16 C 0.91194 0.51098 0.19558 0.0
C17 C 0.94725 0.5331 0.19005 0.0
C18 C 0.05169 0.54228 0.12535 0.0
C19 C 0.99846 0.46532 0.14991 0.0
O20 O 0.09949 0.48835 0.14256 0.0
O21 O 0.11821 0.52893 0.12771 0.0
O22 O 0.07265 0.49429 0.16948 0.0
O23 O 0.07762 0.53654 0.16843 0.0
O24 O 0.12326 0.56843 0.14767 0.0
O25 O 0.09324 0.58668 0.16005 0.0
O26 O 1.00012 0.5484 0.15496 0.0
O27 O 1.02165 0.54895 0.1784 0.0
O28 O 0.05278 0.5646 0.13358 0.0
O29 O 1.04262 0.51991 0.13444 0.0
O30 O 1.00092 0.48833 0.15882 0.0
O31 O 1.02567 0.47223 0.14071 0.0
H32 H 0.15059 0.50839 0.16209 0.0
H33 H 0.21292 0.53187 0.16969 0.0
H34 H 0.24708 0.56811 0.12166 0.0
H35 H 0.18377 0.54328 0.11387 0.0
H36 H 0.9441 0.48791 0.15799 0.0
H37 H 0.88289 0.4491 0.16782 0.0
H38 H 0.9029 0.51781 0.2059 0.0
H39 H 0.96509 0.55653 0.19627 0.0
La40 La 0.58749 0.01782 0.48635 0.0
La41 La 0.54237 0.04024 0.47889 0.0
C42 C 0.61366 0.99235 0.49908 0.0
C43 C 0.60489 0.96042 0.50129 0.0
C44 C 0.63127 0.95591 0.4975 0.0
C45 C 0.62501 0.9267 0.50018 0.0
C46 C 0.59223 0.90128 0.50684 0.0
C47 C 0.56539 0.90557 0.51034 0.0
C48 C 0.57167 0.93491 0.5076 0.0
C49 C 0.58354 0.0268 0.45556 0.0
C50 C 0.50139 0.96621 0.4795 0.0
C51 C 0.51776 0.06804 0.46754 0.0
C52 C 0.52601 0.09975 0.47106 0.0
C53 C 0.54678 0.11839 0.48493 0.0
C54 C 0.55295 0.14772 0.48877 0.0
C55 C 0.5387 0.15914 0.47875 0.0
C56 C 0.51862 0.14063 0.46463 0.0
C57 C 0.5123 0.11116 0.46085 0.0
C58 C 0.54796 0.03286 0.50984 0.0
C59 C 0.62924 0.09181 0.48406 0.0
O60 O 0.62018 1.00223 0.48426 0.0
O61 O 0.59447 0.99953 0.50696 0.0
O62 O 0.6116 0.0313 0.46241 0.0
O63 O 0.55809 0.01502 0.46545 0.0
O64 O 0.53134 0.97278 0.48636 0.0
O65 O 0.5013 0.98909 0.47313 0.0
O66 O 0.50286 0.0482 0.47936 0.0
O67 O 0.54366 0.06819 0.46079 0.0
O68 O 0.51974 0.02829 0.5032 0.0
O69 O 0.5726 0.04391 0.4996 0.0
O70 O 0.59821 0.08526 0.47873 0.0
O71 O 0.63081 0.06926 0.48973 0.0
H72 H 0.65704 0.97521 0.49259 0.0
H73 H 0.64597 0.92406 0.49702 0.0
H74 H 0.53995 0.8866 0.51559 0.0
H75 H 0.55081 0.93776 0.51063 0.0
H76 H 0.55763 0.10995 0.49295 0.0
H77 H 0.56807 0.16098 0.49985 0.0
H78 H 0.50774 0.14886 0.45649 0.0
H79 H 0.49637 0.09714 0.45004 0.0
La80 La 0.6022 0.56045 0.85006 0.0
La81 La 0.55221 0.48897 0.85104 0.0
C82 C 0.63473 0.61814 0.84258 0.0
C83 C 0.62719 0.6414 0.83985 0.0
C84 C 0.65512 0.67423 0.84286 0.0
C85 C 0.64961 0.69716 0.83968 0.0
C86 C 0.61598 0.68771 0.83341 0.0
C87 C 0.58766 0.65464 0.83075 0.0
C88 C 0.59327 0.63166 0.83389 0.0
C89 C 0.59068 0.53744 0.87914 0.0
C90 C 0.51513 0.52382 0.85199 0.0
C91 C 0.52253 0.43162 0.8581 0.0
C92 C 0.52812 0.407 0.85371 0.0
C93 C 0.5185 0.39171 0.83812 0.0
C94 C 0.52301 0.36798 0.8342 0.0
C95 C 0.53721 0.35887 0.84574 0.0
C96 C 0.54723 0.3744 0.86127 0.0
C97 C 0.54257 0.3981 0.86523 0.0
C98 C 0.56328 0.51077 0.82171 0.0
C99 C 0.63996 0.52604 0.84948 0.0
O100 O 0.63213 0.6094 0.85747 0.0
O101 O 0.62081 0.59388 0.83197 0.0
O102 O 0.6215 0.56312 0.87479 0.0
O103 O 0.56753 0.52707 0.86781 0.0
O104 O 0.54749 0.54978 0.84774 0.0
O105 O 0.51174 0.49779 0.85623 0.0
O106 O 0.51066 0.43983 0.84653 0.0
O107 O 0.54795 0.45661 0.86717 0.0
O108 O 0.5333 0.4846 0.82622 0.0
O109 O 0.5867 0.52206 0.83305 0.0
O110 O 0.60675 0.49896 0.85161 0.0
O111 O 0.6446 0.5534 0.84726 0.0
H112 H 0.68143 0.68221 0.84752 0.0
H113 H 0.67178 0.72236 0.84213 0.0
H114 H 0.56151 0.64656 0.82583 0.0
H115 H 0.57137 0.6064 0.83142 0.0
H116 H 0.50733 0.39793 0.82891 0.0
H117 H 0.51555 0.35688 0.82205 0.0
H118 H 0.55795 0.36775 0.87049 0.0
H119 H 0.55004 0.40933 0.87736 0.0
C120 C 0.44939 0.924 0.20064 0.0
C121 C 0.44982 0.91513 0.18442 0.0
C122 C 0.47795 0.93839 0.17454 0.0
C123 C 0.50595 0.96944 0.18108 0.0
H124 H 0.61058 0.07069 0.17343 0.0
H125 H 0.66214 0.12009 0.16144 0.0
H126 H 0.68402 0.17253 0.20725 0.0
H127 H 0.63378 0.12419 0.21911 0.0
H128 H 0.61473 0.08875 0.25134 0.0
H129 H 0.61552 0.0905 0.28095 0.0
H130 H 0.51527 0.99387 0.28008 0.0
H131 H 0.51405 0.99214 0.25059 0.0
H132 H 0.47514 0.95994 0.21973 0.0
H133 H 0.42769 0.90704 0.20848 0.0
H134 H 0.47887 0.93227 0.16193 0.0
H135 H 0.52785 0.98656 0.17339 0.0
N136 N 0.5625 0.03528 0.19727 0.0
N137 N 0.58934 0.06462 0.22213 0.0
N138 N 0.53756 0.01141 0.22213 0.0
C139 C 0.58911 0.06339 0.20561 0.0
C140 C 0.56379 0.03881 0.23048 0.0
C141 C 0.53632 0.0091 0.20565 0.0
C142 C 0.61815 0.09311 0.19733 0.0
C143 C 0.62631 0.09284 0.18087 0.0
C144 C 0.65582 0.12116 0.174 0.0
C145 C 0.67773 0.15022 0.18347 0.0
C146 C 0.66851 0.15052 0.19969 0.0
C147 C 0.63937 0.12256 0.20649 0.0
C148 C 0.56435 0.0403 0.24851 0.0
C149 C 0.59278 0.06789 0.25744 0.0
C150 C 0.59335 0.06886 0.27442 0.0
C151 C 0.56545 0.04233 0.28287 0.0
C152 C 0.53693 0.01487 0.27395 0.0
C153 C 0.5364 0.01384 0.257 0.0
C154 C 0.50603 0.97772 0.19758 0.0
C155 C 0.47683 0.95464 0.20708 0.0
C156 C 0.58325 0.4431 0.56136 0.0
C157 C 0.57392 0.43703 0.54474 0.0
C158 C 0.56615 0.45593 0.53704 0.0
C159 C 0.56814 0.48065 0.54578 0.0
H160 H 0.55714 0.55684 0.54272 0.0
H161 H 0.55524 0.59781 0.53034 0.0
H162 H 0.60323 0.65847 0.5741 0.0
H163 H 0.60513 0.61795 0.58645 0.0
H164 H 0.60402 0.58785 0.61899 0.0
H165 H 0.60782 0.58925 0.64857 0.0
H166 H 0.58156 0.49444 0.6462 0.0
H167 H 0.5776 0.49281 0.6167 0.0
H168 H 0.59225 0.47131 0.58289 0.0
H169 H 0.58886 0.42868 0.56771 0.0
H170 H 0.55902 0.45188 0.52421 0.0
H171 H 0.5622 0.49489 0.53949 0.0
N172 N 0.57873 0.53505 0.56454 0.0
N173 N 0.58606 0.5609 0.58988 0.0
N174 N 0.58376 0.51479 0.5884 0.0
C175 C 0.58196 0.5593 0.57347 0.0
C176 C 0.5868 0.53868 0.59746 0.0
C177 C 0.57985 0.51277 0.57197 0.0
C178 C 0.58127 0.58405 0.56559 0.0
C179 C 0.56741 0.57898 0.54966 0.0
C180 C 0.56611 0.60232 0.5426 0.0
C181 C 0.57921 0.63137 0.55124 0.0
C182 C 0.59331 0.63648 0.56708 0.0
C183 C 0.59416 0.6131 0.57419 0.0
C184 C 0.59035 0.54015 0.61541 0.0
C185 C 0.59913 0.5673 0.62475 0.0
C186 C 0.60154 0.56823 0.64169 0.0
C187 C 0.59486 0.54192 0.64969 0.0
C188 C 0.58646 0.51494 0.64038 0.0
C189 C 0.58438 0.51411 0.62345 0.0
C190 C 0.57752 0.48669 0.56245 0.0
C191 C 0.58492 0.46749 0.5701 0.0
C192 C 0.95298 0.49651 0.86866 0.0
C193 C 0.95668 0.51996 0.85896 0.0
C194 C 0.99159 0.54266 0.85256 0.0
C195 C 1.02159 0.5424 0.85618 0.0
H196 H 0.10533 0.48425 0.85524 0.0
H197 H 0.15722 0.48328 0.84957 0.0
H198 H 0.22981 0.57794 0.87282 0.0
H199 H 0.17819 0.5786 0.87841 0.0
H200 H 0.13681 0.55405 0.9202 0.0
H201 H 0.13667 0.55594 0.9499 0.0
H202 H 1.02053 0.50605 0.94857 0.0
H203 H 1.02055 0.50444 0.91894 0.0
H204 H 0.97875 0.47894 0.88059 0.0
H205 H 0.92725 0.47883 0.87414 0.0
H206 H 0.99598 0.56106 0.84493 0.0
H207 H 0.04813 0.56117 0.8517 0.0
N208 N 0.07781 0.52601 0.86592 0.0
N209 N 0.10596 0.5311 0.89097 0.0
N210 N 0.05094 0.52427 0.89071 0.0
C211 C 0.106 0.52967 0.87448 0.0
C212 C 0.07861 0.52822 0.89916 0.0
C213 C 0.05005 0.5235 0.87423 0.0
C214 C 0.13738 0.53194 0.86686 0.0
C215 C 0.13252 0.50532 0.85859 0.0
C216 C 0.16243 0.50457 0.85562 0.0
C217 C 0.19837 0.5305 0.86073 0.0
C218 C 0.20311 0.55756 0.86842 0.0
C219 C 0.17329 0.55808 0.87156 0.0
C220 C 0.0787 0.52913 0.91718 0.0
C221 C 0.11123 0.54343 0.92623 0.0
C222 C 0.11121 0.54466 0.94323 0.0
C223 C 0.07858 0.53108 0.95152 0.0
C224 C 0.04603 0.51649 0.94249 0.0
C225 C 0.04612 0.51576 0.92552 0.0
C226 C 1.01782 0.51958 0.86641 0.0
C227 C 0.98282 0.49649 0.87237 0.0
C228 C 0.15826 0.64087 0.43572 0.0
C229 C 0.17322 0.64356 0.45105 0.0
C230 C 0.15765 0.61541 0.45971 0.0
C231 C 0.12815 0.58528 0.45302 0.0
H232 H 1.00652 0.48884 0.459 0.0
H233 H 0.95692 0.4385 0.47098 0.0
H234 H 0.95681 0.38417 0.43 0.0
H235 H 1.00564 0.43394 0.41806 0.0
H236 H 1.01067 0.46988 0.3834 0.0
H237 H 1.00824 0.46873 0.35383 0.0
H238 H 0.10299 0.56826 0.35469 0.0
H239 H 0.105 0.56975 0.38414 0.0
H240 H 0.11911 0.61011 0.41704 0.0
H241 H 0.16972 0.66183 0.42858 0.0
H242 H 0.16838 0.61666 0.47161 0.0
H243 H 0.11722 0.56398 0.45979 0.0
N244 N 0.06197 0.52398 0.43742 0.0
N245 N 1.03597 0.49432 0.41258 0.0
N246 N 0.084 0.54917 0.41264 0.0
C247 C 1.03691 0.49542 0.4291 0.0
C248 C 0.05935 0.52107 0.40425 0.0
C249 C 0.08576 0.55104 0.42912 0.0
C250 C 1.00998 0.46544 0.43756 0.0
C251 C 0.99621 0.4661 0.4527 0.0
C252 C 0.96765 0.43732 0.45949 0.0
C253 C 0.9529 0.40733 0.45143 0.0
C254 C 0.9677 0.40678 0.4366 0.0
C255 C 0.99562 0.43539 0.42972 0.0
C256 C 0.05797 0.51992 0.38622 0.0
C257 C 1.03099 0.49154 0.3773 0.0
C258 C 1.02968 0.49082 0.36032 0.0
C259 C 0.05534 0.51843 0.35186 0.0
C260 C 0.0824 0.54671 0.36079 0.0
C261 C 0.08368 0.54747 0.37773 0.0
C262 C 0.11407 0.5827 0.43744 0.0
C263 C 0.12926 0.611 0.42903 0.0
C264 C 0.55547 0.10375 0.76952 0.0
C265 C 0.56446 0.11108 0.78616 0.0
C266 C 0.57623 0.0955 0.79427 0.0
C267 C 0.57891 0.07305 0.78589 0.0
H268 H 0.56931 0.98551 0.79081 0.0
H269 H 0.57364 0.94644 0.80374 0.0
H270 H 0.60945 0.92976 0.75874 0.0
H271 H 0.60537 0.96863 0.74585 0.0
H272 H 0.59786 0.99389 0.71328 0.0
H273 H 0.59561 0.99246 0.68363 0.0
H274 H 0.55451 0.04822 0.68558 0.0
H275 H 0.55659 0.0497 0.71512 0.0
H276 H 0.55154 0.07688 0.74828 0.0
H277 H 0.54672 0.11559 0.76287 0.0
H278 H 0.58311 0.1005 0.80712 0.0
H279 H 0.58819 0.06156 0.79247 0.0
N280 N 0.57884 0.02325 0.76769 0.0
N281 N 0.58274 1.00277 0.74253 0.0
N282 N 0.57395 0.04259 0.74344 0.0
C283 C 0.58296 1.00284 0.75902 0.0
C284 C 0.57817 0.0225 0.73464 0.0
C285 C 0.57441 0.04331 0.75993 0.0
C286 C 0.58694 0.98025 0.76727 0.0
C287 C 0.57834 0.97368 0.7837 0.0
C288 C 0.58059 0.95115 0.79109 0.0
C289 C 0.59192 0.93505 0.78226 0.0
C290 C 0.60102 0.94201 0.76593 0.0
C291 C 0.59843 0.9642 0.75851 0.0
C292 C 0.57733 0.02186 0.71663 0.0
C293 C 0.58831 1.00584 0.7074 0.0
C294 C 0.58723 1.00514 0.69042 0.0
C295 C 0.57474 0.0201 0.68231 0.0
C296 C 0.56385 0.03614 0.69151 0.0
C297 C 0.56528 0.03714 0.70845 0.0
C298 C 0.57033 0.06604 0.76917 0.0
C299 C 0.55849 0.08164 0.76113 0.0
C300 C 0.55278 0.35302 0.12208 0.0
C301 C 0.55615 0.35553 0.13912 0.0
C302 C 0.53779 0.36505 0.14807 0.0
C303 C 0.51799 0.37333 0.14018 0.0
H304 H 0.48691 0.43171 0.14845 0.0
H305 H 0.46861 0.46051 0.16415 0.0
H306 H 0.40289 0.44929 0.12337 0.0
H307 H 0.42133 0.42089 0.10759 0.0
H308 H 0.44495 0.40968 0.07161 0.0
H309 H 0.45563 0.42431 0.04329 0.0
H310 H 0.54365 0.41635 0.04246 0.0
H311 H 0.53298 0.40151 0.07077 0.0
H312 H 0.53193 0.36016 0.10101 0.0
H313 H 0.56614 0.34529 0.11483 0.0
H314 H 0.54014 0.3677 0.16119 0.0
H315 H 0.50522 0.38152 0.14753 0.0
N316 N 0.48371 0.39641 0.12393 0.0
N317 N 0.46954 0.41075 0.10038 0.0
N318 N 0.49941 0.38688 0.09849 0.0
C319 C 0.46904 0.40927 0.11677 0.0
C320 C 0.48471 0.39968 0.09115 0.0
C321 C 0.49858 0.38482 0.11491 0.0
C322 C 0.45557 0.42408 0.12677 0.0
C323 C 0.4682 0.43505 0.1429 0.0
C324 C 0.45797 0.45167 0.15187 0.0
C325 C 0.43437 0.457 0.14495 0.0
C326 C 0.42088 0.4452 0.12902 0.0
C327 C 0.43157 0.4291 0.11997 0.0
C328 C 0.48827 0.40461 0.07348 0.0
C329 C 0.46631 0.41065 0.06535 0.0
C330 C 0.47228 0.41889 0.04912 0.0
C331 C 0.50063 0.4217 0.04077 0.0
C332 C 0.52182 0.41465 0.0487 0.0
C333 C 0.51552 0.40594 0.06487 0.0
C334 C 0.5162 0.3725 0.12312 0.0
C335 C 0.53306 0.36147 0.11415 0.0
H336 H 0.27267 0.57977 0.17537 0.0
H337 H 0.32729 0.58595 0.18424 0.0
H338 H 0.33649 0.5562 0.13608 0.0
H339 H 0.28191 0.54925 0.12731 0.0
H340 H 0.32699 0.53544 0.18519 0.0
H341 H 0.41849 0.58249 0.1274 0.0
H342 H 0.44357 0.62731 0.10919 0.0
H343 H 0.43114 0.68073 0.14587 0.0
H344 H 0.40652 0.63649 0.16444 0.0
H345 H 0.36687 0.44074 0.14935 0.0
H346 H 0.35145 0.47536 0.16003 0.0
H347 H 0.46489 0.55115 0.17111 0.0
H348 H 0.48048 0.51631 0.16025 0.0
H349 H 0.43571 0.57184 0.15292 0.0
H350 H 0.40687 0.52254 0.20237 0.0
H351 H 0.38307 0.47923 0.22148 0.0
H352 H 0.2743 0.43462 0.20368 0.0
H353 H 0.2974 0.47732 0.18428 0.0
C354 C 0.28678 0.57515 0.1666 0.0
C355 C 0.27253 0.56343 0.1507 0.0
C356 C 0.31815 0.57898 0.17167 0.0
C357 C 0.33605 0.57164 0.16084 0.0
C358 C 0.32362 0.56265 0.1446 0.0
C359 C 0.29221 0.5586 0.13958 0.0
C360 C 0.36282 0.56703 0.16679 0.0
C361 C 0.35126 0.54392 0.17841 0.0
C362 C 0.39539 0.57921 0.15849 0.0
C363 C 0.41065 0.60608 0.14736 0.0
C364 C 0.42142 0.6039 0.13168 0.0
C365 C 0.43548 0.62919 0.12126 0.0
C366 C 0.43895 0.65685 0.12636 0.0
C367 C 0.42839 0.65928 0.14191 0.0
C368 C 0.41433 0.63407 0.15239 0.0
C369 C 0.3884 0.46453 0.15438 0.0
C370 C 0.42481 0.47599 0.15391 0.0
C371 C 0.37959 0.48421 0.16064 0.0
C372 C 0.40702 0.51576 0.16653 0.0
C373 C 0.44334 0.5268 0.16676 0.0
C374 C 0.45216 0.50691 0.16061 0.0
C375 C 0.39752 0.53794 0.17002 0.0
C376 C 0.41241 0.56439 0.16022 0.0
C377 C 0.36831 0.52916 0.18016 0.0
C378 C 0.35395 0.5033 0.19187 0.0
C379 C 0.37788 0.50343 0.20247 0.0
C380 C 0.3645 0.47897 0.21336 0.0
C381 C 0.3272 0.45421 0.21381 0.0
C382 C 0.30319 0.45387 0.20335 0.0
C383 C 0.31642 0.47827 0.19243 0.0
H384 H 0.3169 0.43529 0.22224 0.0
H385 H 0.44982 0.67639 0.11827 0.0
H386 H 0.63506 0.14714 0.48297 0.0
H387 H 0.69017 0.20191 0.48014 0.0
H388 H 0.7547 0.16706 0.48004 0.0
H389 H 0.69972 0.1124 0.48368 0.0
H390 H 0.79096 0.2216 0.49574 0.0
H391 H 0.72839 0.18537 0.44403 0.0
H392 H 0.67616 0.16271 0.4251 0.0
H393 H 0.67274 0.24165 0.43768 0.0
H394 H 0.72469 0.26458 0.45683 0.0
H395 H 0.94393 0.35072 0.45399 0.0
H396 H 0.88947 0.29888 0.46203 0.0
H397 H 0.83506 0.34222 0.47106 0.0
H398 H 0.88958 0.39425 0.46302 0.0
H399 H 0.79372 0.28498 0.45167 0.0
H400 H 0.86124 0.32232 0.50237 0.0
H401 H 0.9149 0.34374 0.52012 0.0
H402 H 0.911 0.2609 0.50752 0.0
H403 H 0.8576 0.23919 0.48951 0.0
C404 C 0.66103 0.15117 0.48247 0.0
C405 C 0.66297 0.12535 0.48346 0.0
C406 C 0.69259 0.18254 0.48074 0.0
C407 C 0.72675 0.18875 0.47945 0.0
C408 C 0.7288 0.16307 0.48093 0.0
C409 C 0.6973 0.13176 0.483 0.0
C410 C 0.76015 0.22175 0.47621 0.0
C411 C 0.79158 0.23523 0.48597 0.0
C412 C 0.76114 0.24003 0.46363 0.0
C413 C 0.7302 0.22653 0.45197 0.0
C414 C 0.71637 0.1978 0.44282 0.0
C415 C 0.68683 0.18492 0.43204 0.0
C416 C 0.67109 0.20069 0.43022 0.0
C417 C 0.68494 0.22944 0.43912 0.0
C418 C 0.71445 0.24241 0.44992 0.0
C419 C 0.92047 0.34928 0.45782 0.0
C420 C 0.92111 0.37664 0.45788 0.0
C421 C 0.8894 0.31965 0.46248 0.0
C422 C 0.85815 0.31662 0.4672 0.0
C423 C 0.85885 0.34398 0.46749 0.0
C424 C 0.89012 0.37375 0.46301 0.0
C425 C 0.82434 0.28462 0.47115 0.0
C426 C 0.79291 0.27133 0.46148 0.0
C427 C 0.82358 0.26632 0.4836 0.0
C428 C 0.8556 0.27927 0.49448 0.0
C429 C 0.872 0.3088 0.50328 0.0
C430 C 0.90234 0.32097 0.51341 0.0
C431 C 0.91641 0.30373 0.51492 0.0
C432 C 0.9001 0.27424 0.50633 0.0
C433 C 0.86977 0.26198 0.49617 0.0
H434 H 0.9399 0.3132 0.52276 0.0
H435 H 0.64821 0.19067 0.42188 0.0
H436 H 0.66371 0.74359 0.81819 0.0
H437 H 0.65685 0.78501 0.81188 0.0
H438 H 0.55035 0.7295 0.83269 0.0
H439 H 0.55705 0.68769 0.83905 0.0
H440 H 0.54977 0.75374 0.80474 0.0
H441 H 0.62281 0.796 0.85327 0.0
H442 H 0.67376 0.81177 0.87158 0.0
H443 H 0.75007 0.87985 0.83771 0.0
H444 H 0.69959 0.86416 0.81907 0.0
H445 H 0.54168 0.88647 0.80149 0.0
H446 H 0.54329 0.84426 0.81243 0.0
H447 H 0.64752 0.88598 0.79083 0.0
H448 H 0.64627 0.92836 0.78005 0.0
H449 H 0.64538 0.86798 0.82191 0.0
H450 H 0.57161 0.82185 0.7726 0.0
H451 H 0.52029 0.80589 0.75448 0.0
H452 H 0.44466 0.74504 0.79062 0.0
H453 H 0.4956 0.76101 0.80906 0.0
C454 C 0.63894 0.74028 0.82158 0.0
C455 C 0.61109 0.71247 0.82929 0.0
C456 C 0.63505 0.76401 0.81795 0.0
C457 C 0.60336 0.7607 0.82207 0.0
C458 C 0.57511 0.73265 0.82946 0.0
C459 C 0.57894 0.70875 0.83305 0.0
C460 C 0.59987 0.78649 0.81845 0.0
C461 C 0.57033 0.77863 0.80876 0.0
C462 C 0.62692 0.81908 0.8235 0.0
C463 C 0.65739 0.82871 0.83471 0.0
C464 C 0.65047 0.81417 0.84967 0.0
C465 C 0.67926 0.82312 0.86012 0.0
C466 C 0.71513 0.84675 0.8558 0.0
C467 C 0.72227 0.86153 0.84104 0.0
C468 C 0.69357 0.85264 0.83053 0.0
C469 C 0.56514 0.88686 0.79926 0.0
C470 C 0.59377 0.91064 0.78983 0.0
C471 C 0.5659 0.86261 0.80541 0.0
C472 C 0.59536 0.86179 0.8023 0.0
C473 C 0.62447 0.88609 0.79334 0.0
C474 C 0.62361 0.91016 0.7871 0.0
C475 C 0.59568 0.83526 0.80799 0.0
C476 C 0.62463 0.84302 0.81807 0.0
C477 C 0.56802 0.8026 0.80337 0.0
C478 C 0.53741 0.79291 0.79228 0.0
C479 C 0.54404 0.80528 0.77674 0.0
C480 C 0.51502 0.79619 0.7664 0.0
C481 C 0.47924 0.77454 0.77141 0.0
C482 C 0.47239 0.76186 0.78676 0.0
C483 C 0.50132 0.7709 0.79716 0.0
H484 H 0.45681 0.76752 0.76339 0.0
H485 H 0.73739 0.85364 0.86391 0.0
H486 H 0.84032 0.49374 0.19163 0.0
H487 H 0.77458 0.45527 0.19268 0.0
H488 H 0.78352 0.37761 0.19532 0.0
H489 H 0.84971 0.41633 0.19341 0.0
H490 H 0.74092 0.36316 0.17264 0.0
H491 H 0.73932 0.39332 0.22607 0.0
H492 H 0.75545 0.42772 0.25092 0.0
H493 H 0.71523 0.47428 0.22889 0.0
H494 H 0.69937 0.44058 0.20381 0.0
H495 H 0.54746 0.32766 0.16815 0.0
H496 H 0.59413 0.33009 0.18387 0.0
H497 H 0.6692 0.37772 0.14497 0.0
H498 H 0.62333 0.37588 0.12942 0.0
H499 H 0.65609 0.38346 0.19504 0.0
H500 H 0.72982 0.36345 0.14342 0.0
H501 H 0.71329 0.32687 0.1195 0.0
H502 H 0.60881 0.2568 0.13941 0.0
H503 H 0.62495 0.29267 0.16366 0.0
C504 C 0.82834 0.4686 0.193 0.0
C505 C 0.84995 0.45794 0.19233 0.0
C506 C 0.79062 0.44651 0.19375 0.0
C507 C 0.77379 0.41335 0.19423 0.0
C508 C 0.79573 0.403 0.19496 0.0
C509 C 0.83351 0.42509 0.19386 0.0
C510 C 0.734 0.38998 0.19076 0.0
C511 C 0.72243 0.36753 0.17765 0.0
C512 C 0.70878 0.39387 0.19792 0.0
C513 C 0.71807 0.41428 0.21302 0.0
C514 C 0.73405 0.41099 0.22647 0.0
C515 C 0.74315 0.43038 0.24062 0.0
C516 C 0.73635 0.45315 0.24149 0.0
C517 C 0.7204 0.45657 0.22822 0.0
C518 C 0.71124 0.43724 0.21404 0.0
C519 C 0.57378 0.33825 0.16287 0.0
C520 C 0.58168 0.35169 0.14754 0.0
C521 C 0.60032 0.33946 0.17184 0.0
C522 C 0.63502 0.3538 0.16554 0.0
C523 C 0.64235 0.36584 0.14994 0.0
C524 C 0.61599 0.36474 0.14102 0.0
C525 C 0.66524 0.36009 0.17576 0.0
C526 C 0.67461 0.37885 0.19026 0.0
C527 C 0.68846 0.35269 0.16994 0.0
C528 C 0.67861 0.33084 0.1554 0.0
C529 C 0.70342 0.34013 0.1428 0.0
C530 C 0.69409 0.31953 0.12915 0.0
C531 C 0.66 0.28955 0.12792 0.0
C532 C 0.63518 0.28007 0.14036 0.0
C533 C 0.6444 0.30055 0.15406 0.0
H534 H 0.65281 0.27364 0.11734 0.0
H535 H 0.74344 0.46815 0.25244 0.0
H536 H 0.49247 0.91163 0.4884 0.0
H537 H 0.43722 0.856 0.48598 0.0
H538 H 0.37917 0.88821 0.46521 0.0
H539 H 0.43413 0.94385 0.46764 0.0
H540 H 0.33911 0.84396 0.48791 0.0
H541 H 0.40842 0.8539 0.44133 0.0
H542 H 0.46294 0.86645 0.42751 0.0
H543 H 0.45789 0.79444 0.45378 0.0
H544 H 0.40361 0.78177 0.46793 0.0
H545 H 0.18594 0.70199 0.44978 0.0
H546 H 0.2418 0.75509 0.45707 0.0
H547 H 0.29035 0.71144 0.47424 0.0
H548 H 0.23464 0.65798 0.46642 0.0
H549 H 0.33664 0.76011 0.45567 0.0
H550 H 0.26459 0.74717 0.50082 0.0
H551 H 0.21048 0.7349 0.5149 0.0
H552 H 0.22086 0.81244 0.49194 0.0
H553 H 0.27476 0.82491 0.47753 0.0
C554 C 0.46798 0.90693 0.48331 0.0
C555 C 0.46789 0.93232 0.47815 0.0
C556 C 0.43639 0.87504 0.4819 0.0
C557 C 0.40402 0.86781 0.47529 0.0
C558 C 0.40376 0.89314 0.47035 0.0
C559 C 0.43532 0.92498 0.47169 0.0
C560 C 0.37045 0.83392 0.47339 0.0
C561 C 0.33848 0.82569 0.48074 0.0
C562 C 0.36981 0.80977 0.46443 0.0
C563 C 0.40219 0.81712 0.45581 0.0
C564 C 0.41909 0.8409 0.44424 0.0
C565 C 0.44992 0.84801 0.43633 0.0
C566 C 0.46391 0.8313 0.43979 0.0
C567 C 0.44704 0.80739 0.45113 0.0
C568 C 0.41623 0.80022 0.45909 0.0
C569 C 0.20842 0.70359 0.45516 0.0
C570 C 0.20576 0.67562 0.45744 0.0
C571 C 0.24033 0.73406 0.45947 0.0
C572 C 0.27037 0.73744 0.46635 0.0
C573 C 0.26758 0.70953 0.46898 0.0
C574 C 0.23556 0.67894 0.46465 0.0
C575 C 0.30503 0.77016 0.47003 0.0
C576 C 0.33726 0.77823 0.46299 0.0
C577 C 0.30594 0.79416 0.47932 0.0
C578 C 0.27357 0.78681 0.488 0.0
C579 C 0.25519 0.76146 0.49868 0.0
C580 C 0.22457 0.75449 0.50674 0.0
C581 C 0.2122 0.77284 0.50429 0.0
C582 C 0.23047 0.79824 0.49381 0.0
C583 C 0.26108 0.80529 0.48571 0.0
H584 H 0.18849 0.76741 0.51054 0.0
H585 H 0.48779 0.83685 0.43366 0.0
H586 H 0.59402 0.35713 0.85326 0.0
H587 H 0.60024 0.31467 0.84576 0.0
H588 H 0.49555 0.25995 0.82103 0.0
H589 H 0.48873 0.30176 0.82884 0.0
H590 H 0.50288 0.22168 0.83852 0.0
H591 H 0.57411 0.30375 0.80006 0.0
H592 H 0.62192 0.35873 0.7917 0.0
H593 H 0.70316 0.35707 0.81578 0.0
H594 H 0.65573 0.30219 0.82448 0.0
H595 H 0.5094 0.1168 0.78414 0.0
H596 H 0.50684 0.15854 0.79692 0.0
H597 H 0.611 0.20188 0.82054 0.0
H598 H 0.61397 0.16029 0.80756 0.0
H599 H 0.60738 0.24647 0.80614 0.0
H600 H 0.53579 0.1619 0.8425 0.0
H601 H 0.48746 0.10673 0.85042 0.0
H602 H 0.40638 0.11282 0.82994 0.0
H603 H 0.45427 0.16789 0.82168 0.0
C604 C 0.57217 0.33589 0.84637 0.0
C605 C 0.54098 0.33294 0.84156 0.0
C606 C 0.57589 0.31177 0.84198 0.0
C607 C 0.54853 0.28426 0.83268 0.0
C608 C 0.51707 0.28098 0.82817 0.0
C609 C 0.51336 0.30506 0.83252 0.0
C610 C 0.55267 0.259 0.82738 0.0
C611 C 0.52558 0.22707 0.83133 0.0
C612 C 0.58277 0.26611 0.81836 0.0
C613 C 0.61134 0.29902 0.81308 0.0
C614 C 0.60214 0.31521 0.80368 0.0
C615 C 0.62917 0.34634 0.79887 0.0
C616 C 0.66554 0.36143 0.80325 0.0
C617 C 0.67497 0.34538 0.81242 0.0
C618 C 0.64803 0.31425 0.81729 0.0
C619 C 0.53176 0.13519 0.79208 0.0
C620 C 0.56192 0.13526 0.79482 0.0
C621 C 0.53014 0.1589 0.79947 0.0
C622 C 0.55861 0.18323 0.80978 0.0
C623 C 0.58868 0.18329 0.81266 0.0
C624 C 0.59021 0.15939 0.80534 0.0
C625 C 0.5573 0.20909 0.81708 0.0
C626 C 0.58489 0.24113 0.81349 0.0
C627 C 0.52759 0.20206 0.82638 0.0
C628 C 0.49867 0.16895 0.83135 0.0
C629 C 0.50768 0.15139 0.83957 0.0
C630 C 0.48035 0.12015 0.84414 0.0
C631 C 0.44388 0.10625 0.84065 0.0
C632 C 0.43465 0.12361 0.83262 0.0
C633 C 0.46187 0.15485 0.82801 0.0
H634 H 0.42276 0.08207 0.8442 0.0
H635 H 0.68643 0.38553 0.79951 0.0
H636 H 0.64189 0.89471 0.51964 0.0
H637 H 0.63448 0.84523 0.52432 0.0
H638 H 0.52283 0.7892 0.50732 0.0
H639 H 0.53019 0.83893 0.50231 0.0
H640 H 0.53066 0.76576 0.53498 0.0
H641 H 0.58377 0.79443 0.48305 0.0
H642 H 0.62726 0.83001 0.46249 0.0
H643 H 0.71503 0.84449 0.49024 0.0
H644 H 0.67214 0.80937 0.51111 0.0
H645 H 0.52229 0.6235 0.53508 0.0
H646 H 0.51966 0.66575 0.52494 0.0
H647 H 0.63088 0.7378 0.54105 0.0
H648 H 0.6337 0.69581 0.5511 0.0
H649 H 0.61658 0.74837 0.5105 0.0
H650 H 0.56345 0.72429 0.5637 0.0
H651 H 0.51966 0.68874 0.5842 0.0
H652 H 0.43099 0.66496 0.55336 0.0
H653 H 0.47429 0.70006 0.53256 0.0
C654 C 0.61581 0.87191 0.51671 0.0
C655 C 0.58678 0.87085 0.51038 0.0
C656 C 0.61161 0.84361 0.51944 0.0
C657 C 0.5783 0.8135 0.51591 0.0
C658 C 0.54884 0.8122 0.51006 0.0
C659 C 0.55306 0.84063 0.50726 0.0
C660 C 0.57468 0.78362 0.51844 0.0
C661 C 0.54893 0.76159 0.52937 0.0
C662 C 0.59878 0.77835 0.51126 0.0
C663 C 0.62474 0.79944 0.49871 0.0
C664 C 0.61238 0.8054 0.48484 0.0
C665 C 0.63693 0.82545 0.47311 0.0
C666 C 0.6739 0.83955 0.47507 0.0
C667 C 0.68639 0.83357 0.48875 0.0
C668 C 0.66196 0.81355 0.50052 0.0
C669 C 0.54628 0.64833 0.53626 0.0
C670 C 0.57814 0.65641 0.54396 0.0
C671 C 0.54468 0.67242 0.53056 0.0
C672 C 0.57499 0.70494 0.53237 0.0
C673 C 0.60717 0.71289 0.53955 0.0
C674 C 0.60867 0.68891 0.54537 0.0
C675 C 0.57318 0.73098 0.52731 0.0
C676 C 0.59793 0.75228 0.5159 0.0
C677 C 0.54807 0.73548 0.534 0.0
C678 C 0.52206 0.71446 0.5465 0.0
C679 C 0.5346 0.71125 0.56123 0.0
C680 C 0.50987 0.69123 0.57291 0.0
C681 C 0.47256 0.67451 0.57006 0.0
C682 C 0.4599 0.67786 0.55554 0.0
C683 C 0.48451 0.69782 0.5438 0.0
H684 H 0.45346 0.65903 0.57913 0.0
H685 H 0.69286 0.85507 0.46598 0.0
H686 H 0.64126 0.47348 0.84869 0.0
H687 H 0.69373 0.47251 0.84857 0.0
H688 H 0.76604 0.57618 0.85005 0.0
H689 H 0.71349 0.57718 0.84953 0.0
H690 H 0.79583 0.55676 0.83163 0.0
H691 H 0.74372 0.52601 0.88413 0.0
H692 H 0.6932 0.49327 0.90254 0.0
H693 H 0.68245 0.4087 0.8857 0.0
H694 H 0.73201 0.44087 0.86654 0.0
H695 H 0.95645 0.57306 0.85627 0.0
H696 H 0.90455 0.57456 0.85368 0.0
H697 H 0.83123 0.471 0.85301 0.0
H698 H 0.88285 0.46936 0.85566 0.0
H699 H 0.80215 0.49064 0.87086 0.0
H700 H 0.852 0.51966 0.81794 0.0
H701 H 0.89921 0.55077 0.79771 0.0
H702 H 0.91356 0.63679 0.81484 0.0
H703 H 0.86673 0.60625 0.83533 0.0
C704 C 0.66827 0.49618 0.84897 0.0
C705 C 0.67259 0.52543 0.84923 0.0
C706 C 0.69863 0.49562 0.84899 0.0
C707 C 0.7347 0.5243 0.84966 0.0
C708 C 0.739 0.55352 0.84959 0.0
C709 C 0.70862 0.55408 0.84936 0.0
C710 C 0.76765 0.52392 0.85076 0.0
C711 C 0.79722 0.54257 0.84039 0.0
C712 C 0.77006 0.50497 0.86185 0.0
C713 C 0.74136 0.48581 0.87381 0.0
C714 C 0.7305 0.5004 0.8843 0.0
C715 C 0.70195 0.4819 0.89486 0.0
C716 C 0.68466 0.44886 0.89539 0.0
C717 C 0.69586 0.43428 0.88529 0.0
C718 C 0.72409 0.45263 0.87452 0.0
C719 C 0.92939 0.55047 0.85533 0.0
C720 C 0.92459 0.52108 0.85623 0.0
C721 C 0.89935 0.55135 0.85384 0.0
C722 C 0.86314 0.52287 0.85297 0.0
C723 C 0.85837 0.49354 0.85372 0.0
C724 C 0.88832 0.49264 0.85528 0.0
C725 C 0.83036 0.52343 0.85169 0.0
C726 C 0.80081 0.50484 0.86207 0.0
C727 C 0.82794 0.54229 0.84055 0.0
C728 C 0.85614 0.56074 0.82829 0.0
C729 C 0.86543 0.54526 0.81748 0.0
C730 C 0.89208 0.56278 0.80595 0.0
C731 C 0.90945 0.59575 0.80502 0.0
C732 C 0.90013 0.61126 0.8156 0.0
C733 C 0.87351 0.59385 0.82716 0.0
H734 H 0.93007 0.60927 0.79608 0.0
H735 H 0.6626 0.43453 0.90361 0.0
H736 H 0.19216 0.61186 0.14761 0.0
H737 H 0.24922 0.6663 0.15076 0.0
H738 H 0.18965 0.70253 0.16564 0.0
H739 H 0.13266 0.64815 0.16293 0.0
H740 H 0.27852 0.72262 0.13778 0.0
H741 H 0.23828 0.76253 0.195 0.0
H742 H 0.19697 0.7377 0.218 0.0
H743 H 0.19981 0.65688 0.21326 0.0
H744 H 0.24203 0.68165 0.19064 0.0
H745 H 0.40724 0.89372 0.15645 0.0
H746 H 0.35399 0.83834 0.14917 0.0
H747 H 0.37398 0.80519 0.19173 0.0
H748 H 0.42664 0.8601 0.19903 0.0
H749 H 0.30603 0.78261 0.19073 0.0
H750 H 0.38798 0.78724 0.15314 0.0
H751 H 0.43198 0.80883 0.13103 0.0
H752 H 0.35145 0.79598 0.09835 0.0
H753 H 0.30708 0.7747 0.12034 0.0
C754 C 0.19114 0.63141 0.15151 0.0
C755 C 0.15773 0.62547 0.1552 0.0
C756 C 0.22385 0.66262 0.15323 0.0
C757 C 0.22395 0.6886 0.15864 0.0
C758 C 0.19049 0.68288 0.16174 0.0
C759 C 0.15783 0.65169 0.16016 0.0
C760 C 0.259 0.72136 0.16175 0.0
C761 C 0.28447 0.73579 0.14934 0.0
C762 C 0.26734 0.73839 0.17695 0.0
C763 C 0.243 0.72381 0.19098 0.0
C764 C 0.23034 0.73959 0.19897 0.0
C765 C 0.20681 0.72554 0.21196 0.0
C766 C 0.19577 0.69572 0.2171 0.0
C767 C 0.20845 0.68001 0.20932 0.0
C768 C 0.23221 0.69406 0.19642 0.0
C769 C 0.40062 0.87447 0.16405 0.0
C770 C 0.42093 0.88136 0.1784 0.0
C771 C 0.37013 0.84281 0.15991 0.0
C772 C 0.35968 0.81745 0.16996 0.0
C773 C 0.38107 0.82424 0.18387 0.0
C774 C 0.41126 0.8557 0.18801 0.0
C775 C 0.32546 0.7842 0.16668 0.0
C776 C 0.30006 0.76961 0.17911 0.0
C777 C 0.3177 0.76678 0.15166 0.0
C778 C 0.34434 0.77972 0.13843 0.0
C779 C 0.37975 0.7893 0.14128 0.0
C780 C 0.40474 0.80142 0.12876 0.0
C781 C 0.39455 0.80387 0.11331 0.0
C782 C 0.35932 0.79413 0.11034 0.0
C783 C 0.33424 0.78201 0.12282 0.0
H784 H 0.41393 0.81323 0.10363 0.0
H785 H 0.1774 0.68479 0.22711 0.0
H786 H 0.59917 0.2151 0.49262 0.0
H787 H 0.60553 0.26333 0.50215 0.0
H788 H 0.49679 0.22118 0.48456 0.0
H789 H 0.48968 0.1724 0.47541 0.0
H790 H 0.54747 0.28669 0.47764 0.0
H791 H 0.50858 0.21918 0.52317 0.0
H792 H 0.51151 0.18601 0.54257 0.0
H793 H 0.61809 0.26776 0.55874 0.0
H794 H 0.61601 0.30133 0.53924 0.0
H795 H 0.52104 0.39102 0.52311 0.0
H796 H 0.51616 0.34546 0.50999 0.0
H797 H 0.61805 0.37845 0.53277 0.0
H798 H 0.62277 0.42368 0.54603 0.0
H799 H 0.56982 0.31689 0.53656 0.0
H800 H 0.60942 0.38491 0.49143 0.0
H801 H 0.60768 0.4184 0.47178 0.0
H802 H 0.50181 0.33697 0.45466 0.0
H803 H 0.5027 0.30308 0.47437 0.0
C804 C 0.57648 0.21593 0.49084 0.0
C805 C 0.54376 0.18962 0.48336 0.0
C806 C 0.58027 0.24363 0.49621 0.0
C807 C 0.55152 0.24571 0.49419 0.0
C808 C 0.51934 0.22009 0.4862 0.0
C809 C 0.51541 0.19225 0.48092 0.0
C810 C 0.55452 0.27405 0.50104 0.0
C811 C 0.55194 0.29316 0.49054 0.0
C812 C 0.56105 0.28276 0.51782 0.0
C813 C 0.56228 0.26268 0.52962 0.0
C814 C 0.53277 0.23002 0.53076 0.0
C815 C 0.53425 0.21116 0.5418 0.0
C816 C 0.56501 0.22475 0.55185 0.0
C817 C 0.59431 0.25726 0.55092 0.0
C818 C 0.59298 0.27622 0.53989 0.0
C819 C 0.54264 0.38879 0.52512 0.0
C820 C 0.5722 0.41085 0.53566 0.0
C821 C 0.53985 0.36274 0.51761 0.0
C822 C 0.56684 0.35854 0.52032 0.0
C823 C 0.59677 0.38102 0.53055 0.0
C824 C 0.59943 0.40686 0.53813 0.0
C825 C 0.56321 0.32999 0.51316 0.0
C826 C 0.56549 0.31065 0.52364 0.0
C827 C 0.5566 0.32122 0.49635 0.0
C828 C 0.55597 0.34154 0.48449 0.0
C829 C 0.58563 0.37421 0.48357 0.0
C830 C 0.58483 0.39325 0.4724 0.0
C831 C 0.55461 0.37984 0.46201 0.0
C832 C 0.52517 0.34734 0.46273 0.0
C833 C 0.52583 0.32819 0.47389 0.0
H834 H 0.55404 0.39462 0.45337 0.0
H835 H 0.56611 0.21011 0.56039 0.0
H836 H 0.51154 0.57375 0.8456 0.0
H837 H 0.45902 0.57464 0.84647 0.0
H838 H 0.39132 0.47638 0.86076 0.0
H839 H 0.44376 0.47522 0.85963 0.0
H840 H 0.35352 0.48305 0.83984 0.0
H841 H 0.42346 0.54508 0.88808 0.0
H842 H 0.47866 0.58867 0.90351 0.0
H843 H 0.48269 0.65909 0.87618 0.0
H844 H 0.4277 0.61588 0.86047 0.0
H845 H 0.20038 0.47855 0.86356 0.0
H846 H 0.25243 0.47711 0.86191 0.0
H847 H 0.32223 0.57779 0.85184 0.0
H848 H 0.27039 0.57947 0.85383 0.0
H849 H 0.35933 0.56997 0.87046 0.0
H850 H 0.2909 0.50992 0.82212 0.0
H851 H 0.23708 0.46747 0.80558 0.0
H852 H 0.23154 0.39486 0.83148 0.0
H853 H 0.28508 0.4369 0.84832 0.0
C854 C 0.48557 0.55223 0.84894 0.0
C855 C 0.4825 0.52444 0.85259 0.0
C856 C 0.45525 0.55283 0.84955 0.0
C857 C 0.42054 0.52572 0.85394 0.0
C858 C 0.41736 0.49781 0.85736 0.0
C859 C 0.44769 0.4972 0.85677 0.0
C860 C 0.38779 0.52637 0.85489 0.0
C861 C 0.35482 0.50189 0.84675 0.0
C862 C 0.38889 0.55124 0.86346 0.0
C863 C 0.42166 0.57724 0.87301 0.0
C864 C 0.43623 0.56986 0.88531 0.0
C865 C 0.46746 0.5945 0.89411 0.0
C866 C 0.48422 0.62663 0.8908 0.0
C867 C 0.4697 0.63419 0.87872 0.0
C868 C 0.43847 0.60964 0.86988 0.0
C869 C 0.22664 0.50039 0.86077 0.0
C870 C 0.23047 0.5291 0.85879 0.0
C871 C 0.25678 0.49954 0.85979 0.0
C872 C 0.29205 0.52722 0.85647 0.0
C873 C 0.29585 0.55589 0.85445 0.0
C874 C 0.26582 0.55683 0.8556 0.0
C875 C 0.32487 0.52659 0.8554 0.0
C876 C 0.3579 0.55108 0.86353 0.0
C877 C 0.32393 0.50189 0.84668 0.0
C878 C 0.29176 0.47656 0.83659 0.0
C879 C 0.27804 0.4849 0.82437 0.0
C880 C 0.24761 0.46091 0.81492 0.0
C881 C 0.23084 0.42849 0.81751 0.0
C882 C 0.24452 0.41998 0.82951 0.0
C883 C 0.27492 0.44388 0.839 0.0
H884 H 0.20729 0.40995 0.81018 0.0
H885 H 0.50841 0.64567 0.89762 0.0
H886 H 0.98 0.41163 0.13176 0.0
H887 H 0.92486 0.35607 0.1336 0.0
H888 H 0.88655 0.38707 0.17179 0.0
H889 H 0.94134 0.44214 0.17018 0.0
H890 H 0.89813 0.31545 0.15845 0.0
H891 H 0.80171 0.35006 0.16917 0.0
H892 H 0.79692 0.39221 0.16026 0.0
H893 H 0.84662 0.39675 0.11531 0.0
H894 H 0.85242 0.35523 0.12396 0.0
H895 H 0.74415 0.1923 0.19857 0.0
H896 H 0.79689 0.24331 0.18927 0.0
H897 H 0.74004 0.22747 0.14421 0.0
H898 H 0.68626 0.17634 0.15374 0.0
H899 H 0.77505 0.28894 0.15555 0.0
H900 H 0.80816 0.21923 0.14539 0.0
H901 H 0.81702 0.17836 0.15136 0.0
H902 H 0.89446 0.2409 0.18935 0.0
H903 H 0.88568 0.28199 0.18377 0.0
C904 C 0.95975 0.40662 0.1405 0.0
C905 C 0.96495 0.43156 0.15064 0.0
C906 C 0.92826 0.37483 0.14156 0.0
C907 C 0.90122 0.36737 0.15267 0.0
C908 C 0.90656 0.39221 0.16287 0.0
C909 C 0.93799 0.42384 0.16189 0.0
C910 C 0.86774 0.33366 0.15403 0.0
C911 C 0.87122 0.30959 0.15775 0.0
C912 C 0.83252 0.32571 0.15266 0.0
C913 C 0.82738 0.34949 0.14719 0.0
C914 C 0.81127 0.35983 0.15732 0.0
C915 C 0.80851 0.38366 0.15236 0.0
C916 C 0.82115 0.39689 0.13724 0.0
C917 C 0.83678 0.38645 0.12702 0.0
C918 C 0.83997 0.3629 0.13197 0.0
C919 C 0.74266 0.19961 0.18668 0.0
C920 C 0.71074 0.18019 0.17695 0.0
C921 C 0.77308 0.22876 0.18131 0.0
C922 C 0.77274 0.2393 0.16596 0.0
C923 C 0.74105 0.21991 0.1561 0.0
C924 C 0.71043 0.19053 0.16149 0.0
C925 C 0.80544 0.27077 0.16054 0.0
C926 C 0.80185 0.29455 0.15611 0.0
C927 C 0.84058 0.27822 0.16084 0.0
C928 C 0.84606 0.25361 0.16423 0.0
C929 C 0.82689 0.22419 0.1551 0.0
C930 C 0.83193 0.20099 0.1584 0.0
C931 C 0.85624 0.20701 0.17074 0.0
C932 C 0.87562 0.23627 0.17979 0.0
C933 C 0.87066 0.25954 0.17655 0.0
H934 H 0.86011 0.18902 0.17328 0.0
H935 H 0.81895 0.41532 0.13346 0.0
H936 H 1.02908 0.49029 0.10531 0.0
H937 H 1.03577 0.48898 0.07595 0.0
H938 H 0.09502 0.59214 0.07642 0.0
H939 H 0.08622 0.59306 0.1057 0.0
H940 H 0.05272 0.56902 0.05212 0.0
H941 H 0.13653 0.55105 0.07132 0.0
H942 H 0.15742 0.52529 0.08682 0.0
H943 H 0.07888 0.43484 0.0614 0.0
H944 H 0.05737 0.46004 0.04576 0.0
H945 H 0.1222 0.58344 0.97229 0.0
H946 H 0.12003 0.58587 0.00202 0.0
H947 H 1.03272 0.48408 0.00109 0.0
H948 H 1.03442 0.4816 0.97134 0.0
H949 H 0.09168 0.50775 0.02518 0.0
H950 H 1.00918 0.52923 0.00612 0.0
H951 H 0.99302 0.55826 0.99027 0.0
H952 H 0.0764 0.64704 0.01572 0.0
H953 H 0.09342 0.61858 0.03156 0.0
C954 C 1.04359 0.51266 0.09912 0.0
C955 C 0.05713 0.54178 0.10772 0.0
C956 C 0.04771 0.51197 0.08233 0.0
C957 C 0.06657 0.54055 0.07387 0.0
C958 C 0.08036 0.56972 0.08257 0.0
C959 C 0.07544 0.57028 0.09931 0.0
C960 C 0.0708 0.5399 0.05592 0.0
C961 C 0.06186 0.55604 0.04633 0.0
C962 C 0.08218 0.5226 0.04816 0.0
C963 C 0.09513 0.50737 0.05748 0.0
C964 C 0.12356 0.52562 0.06911 0.0
C965 C 0.13553 0.51112 0.07792 0.0
C966 C 0.11937 0.47842 0.07518 0.0
C967 C 0.09133 0.46016 0.06354 0.0
C968 C 0.07929 0.47455 0.05467 0.0
C969 C 0.10275 0.56157 0.97845 0.0
C970 C 0.0784 0.53235 0.96953 0.0
C971 C 0.10146 0.563 0.9954 0.0
C972 C 0.07615 0.53516 0.00372 0.0
C973 C 0.05245 0.50581 0.99488 0.0
C974 C 0.05331 0.50446 0.97792 0.0
C975 C 0.07366 0.53683 0.02162 0.0
C976 C 0.08283 0.52085 0.03112 0.0
C977 C 0.06322 0.55478 0.02933 0.0
C978 C 0.05282 0.57184 0.0199 0.0
C979 C 1.02428 0.55499 0.00824 0.0
C980 C 1.01492 0.57133 -0.00073 0.0
C981 C 1.03374 0.60449 0.00195 0.0
C982 C 0.06188 0.62136 0.01364 0.0
C983 C 0.07138 0.60514 0.02262 0.0
H984 H 1.02645 0.6171 0.995 0.0
H985 H 0.12867 0.46725 0.08203 0.0
H986 H 0.5235 0.01108 0.43874 0.0
H987 H 0.51837 0.01592 0.40962 0.0
H988 H 0.63145 0.05611 0.40429 0.0
H989 H 0.63677 0.05162 0.43336 0.0
H990 H 0.6133 0.08854 0.38746 0.0
H991 H 0.56501 0.97771 0.39411 0.0
H992 H 0.52398 0.92439 0.40573 0.0
H993 H 0.43129 0.91496 0.38661 0.0
H994 H 0.47177 0.96846 0.37508 0.0
H995 H 0.62384 0.06515 0.30317 0.0
H996 H 0.62473 0.06465 0.33277 0.0
H997 H 0.50983 0.02023 0.33299 0.0
H998 H 0.50875 0.02061 0.30335 0.0
H999 H 0.52543 0.9908 0.35272 0.0
H1000 H 0.57291 0.09971 0.34466 0.0
H1001 H 0.61319 0.15336 0.33335 0.0
H1002 H 0.7062 0.16699 0.35527 0.0
H1003 H 0.66652 0.1132 0.36653 0.0
C1004 C 0.54725 0.02107 0.43134 0.0
C1005 C 0.58047 0.03076 0.43822 0.0
C1006 C 0.54428 0.02374 0.41472 0.0
C1007 C 0.57444 0.03604 0.40476 0.0
C1008 C 0.60784 0.04651 0.41175 0.0
C1009 C 0.61081 0.04381 0.42832 0.0
C1010 C 0.5712 0.03738 0.38699 0.0
C1011 C 0.59433 0.06714 0.37983 0.0
C1012 C 0.54573 0.00957 0.37712 0.0
C1013 C 0.52141 0.97724 0.38388 0.0
C1014 C 0.53587 0.96437 0.39248 0.0
C1015 C 0.51272 0.9341 0.39904 0.0
C1016 C 0.47505 0.91635 0.39695 0.0
C1017 C 0.46047 0.92877 0.38824 0.0
C1018 C 0.4835 0.95905 0.38169 0.0
C1019 C 0.59886 0.05566 0.30953 0.0
C1020 C 0.56625 0.04299 0.3009 0.0
C1021 C 0.59939 0.05536 0.32646 0.0
C1022 C 0.56742 0.04271 0.33513 0.0
C1023 C 0.53482 0.03007 0.32656 0.0
C1024 C 0.53424 0.03025 0.30962 0.0
C1025 C 0.56789 0.04196 0.35311 0.0
C1026 C 0.54423 0.01228 0.36033 0.0
C1027 C 0.59278 0.06988 0.36305 0.0
C1028 C 0.61675 0.10229 0.35632 0.0
C1029 C 0.60198 0.11404 0.34697 0.0
C1030 C 0.62471 0.14449 0.34058 0.0
C1031 C 0.66224 0.16354 0.34355 0.0
C1032 C 0.67712 0.1522 0.35296 0.0
C1033 C 0.65453 0.12174 0.35936 0.0
H1034 H 0.67979 0.18712 0.3386 0.0
H1035 H 0.45716 0.89293 0.40203 0.0
H1036 H 0.51617 0.48107 0.79605 0.0
H1037 H 0.52903 0.49198 0.76736 0.0
H1038 H 0.64043 0.57092 0.7798 0.0
H1039 H 0.62795 0.55952 0.80871 0.0
H1040 H 0.60008 0.58138 0.75479 0.0
H1041 H 0.63351 0.51262 0.76672 0.0
H1042 H 0.62412 0.46538 0.77838 0.0
H1043 H 0.52856 0.40242 0.74806 0.0
H1044 H 0.53704 0.44932 0.73641 0.0
H1045 H 0.64614 0.59034 0.67092 0.0
H1046 H 0.64734 0.59008 0.70062 0.0
H1047 H 0.54627 0.49401 0.69867 0.0
H1048 H 0.5454 0.49397 0.66908 0.0
H1049 H 0.59065 0.49715 0.71938 0.0
H1050 H 0.55218 0.56309 0.70925 0.0
H1051 H 0.55705 0.60871 0.6981 0.0
H1052 H 0.65717 0.67523 0.72503 0.0
H1053 H 0.65313 0.62997 0.73619 0.0
C1054 C 0.54339 0.50088 0.79272 0.0
C1055 C 0.5711 0.51944 0.8046 0.0
C1056 C 0.55065 0.50708 0.77634 0.0
C1057 C 0.58567 0.53213 0.77151 0.0
C1058 C 0.61321 0.55152 0.78334 0.0
C1059 C 0.60605 0.54502 0.79981 0.0
C1060 C 0.59328 0.53672 0.754 0.0
C1061 C 0.59883 0.56339 0.74702 0.0
C1062 C 0.59073 0.51278 0.74394 0.0
C1063 C 0.58576 0.4845 0.75079 0.0
C1064 C 0.61032 0.48871 0.76263 0.0
C1065 C 0.60519 0.46199 0.76923 0.0
C1066 C 0.57572 0.43092 0.76399 0.0
C1067 C 0.55137 0.4265 0.75212 0.0
C1068 C 0.55635 0.45315 0.7455 0.0
C1069 C 0.62413 0.56926 0.67687 0.0
C1070 C 0.5957 0.54215 0.66769 0.0
C1071 C 0.6248 0.56914 0.69383 0.0
C1072 C 0.59672 0.54212 0.70193 0.0
C1073 C 0.56834 0.51508 0.69273 0.0
C1074 C 0.56787 0.51506 0.67581 0.0
C1075 C 0.59673 0.54158 0.71994 0.0
C1076 C 0.59253 0.51553 0.72707 0.0
C1077 C 0.60011 0.56594 0.73009 0.0
C1078 C 0.60258 0.59316 0.72339 0.0
C1079 C 0.57539 0.58745 0.71269 0.0
C1080 C 0.57797 0.61324 0.70639 0.0
C1081 C 0.60746 0.64485 0.71081 0.0
C1082 C 0.63438 0.65074 0.72159 0.0
C1083 C 0.63195 0.62503 0.72791 0.0
H1084 H 0.60941 0.66479 0.70593 0.0
H1085 H 0.57179 0.41026 0.76911 0.0
H1086 H 0.60911 0.04983 0.52622 0.0
H1087 H 0.61578 0.04633 0.55538 0.0
H1088 H 0.50368 0.00828 0.56191 0.0
H1089 H 0.49671 0.01124 0.5328 0.0
H1090 H 0.55222 0.05891 0.58399 0.0
H1091 H 0.52616 0.95917 0.56227 0.0
H1092 H 0.5373 0.92742 0.54398 0.0
H1093 H 0.64407 0.97585 0.56533 0.0
H1094 H 0.6338 0.0083 0.58358 0.0
H1095 H 0.51855 1.00618 0.66308 0.0
H1096 H 0.51637 1.00716 0.63355 0.0
H1097 H 0.62449 0.03279 0.63125 0.0
H1098 H 0.62651 0.03125 0.6609 0.0
H1099 H 0.58286 0.99099 0.60676 0.0
H1100 H 0.61084 0.08998 0.62842 0.0
H1101 H 0.60366 0.12525 0.64594 0.0
H1102 H 0.49846 0.08245 0.62413 0.0
H1103 H 0.50477 0.04657 0.60663 0.0
C1104 C 0.58582 0.04038 0.53387 0.0
C1105 C 0.55231 0.03055 0.52728 0.0
C1106 C 0.58968 0.03844 0.55049 0.0
C1107 C 0.56015 0.02687 0.56075 0.0
C1108 C 0.52677 0.01726 0.55418 0.0
C1109 C 0.52282 0.01892 0.53757 0.0
C1110 C 0.56403 0.0254 0.57843 0.0
C1111 C 0.5585 0.04378 0.589 0.0
C1112 C 0.57352 1.00653 0.58486 0.0
C1113 C 0.57934 0.9864 0.57419 0.0
C1114 C 0.55211 0.96321 0.563 0.0
C1115 C 0.55826 0.94507 0.55264 0.0
C1116 C 0.59141 0.94968 0.55346 0.0
C1117 C 0.61842 0.97234 0.56469 0.0
C1118 C 0.61244 0.99059 0.57506 0.0
C1119 C 0.54186 0.01203 0.65628 0.0
C1120 C 0.57286 0.01901 0.6643 0.0
C1121 C 0.5406 0.01257 0.63941 0.0
C1122 C 0.57056 0.02067 0.63019 0.0
C1123 C 0.6011 0.02657 0.63811 0.0
C1124 C 0.60223 0.0257 0.65503 0.0
C1125 C 0.57025 0.02403 0.61239 0.0
C1126 C 0.57664 1.00617 0.60179 0.0
C1127 C 0.56202 0.04375 0.60586 0.0
C1128 C 0.55815 0.06539 0.61632 0.0
C1129 C 0.58606 0.08792 0.62744 0.0
C1130 C 0.58216 0.10805 0.63736 0.0
C1131 C 0.55059 0.10604 0.63618 0.0
C1132 C 0.52288 0.08395 0.62504 0.0
C1133 C 0.52662 0.06373 0.61511 0.0
H1134 H 0.54763 0.12164 0.64386 0.0
H1135 H 0.59615 0.93565 0.54542 0.0
H1136 H 0.63695 0.5596 0.90544 0.0
H1137 H 0.62197 0.53958 0.93293 0.0
H1138 H 0.51071 0.4664 0.91714 0.0
H1139 H 0.52544 0.48665 0.88979 0.0
H1140 H 0.51294 0.49544 0.94477 0.0
H1141 H 0.57149 0.44897 0.92476 0.0
H1142 H 0.61931 0.44544 0.91435 0.0
H1143 H 0.69054 0.50736 0.95416 0.0
H1144 H 0.64333 0.51163 0.96468 0.0
H1145 H 0.45401 0.40107 0.01464 0.0
H1146 H 0.46903 0.4211 0.98718 0.0
H1147 H 0.58169 0.49025 0.00229 0.0
H1148 H 0.56691 0.46954 0.02952 0.0
H1149 H 0.57854 0.46359 0.975 0.0
H1150 H 0.52205 0.51076 0.9954 0.0
H1151 H 0.4736 0.51139 0.00778 0.0
H1152 H 0.40012 0.44985 0.96847 0.0
H1153 H 0.44799 0.4485 0.95596 0.0
C1154 C 0.60937 0.53914 0.90785 0.0
C1155 C 0.58234 0.52469 0.89553 0.0
C1156 C 0.60087 0.52761 0.92352 0.0
C1157 C 0.56525 0.50131 0.92708 0.0
C1158 C 0.53836 0.48672 0.9147 0.0
C1159 C 0.54682 0.49826 0.89907 0.0
C1160 C 0.55553 0.48971 0.94382 0.0
C1161 C 0.52703 0.48812 0.95131 0.0
C1162 C 0.57458 0.4811 0.95259 0.0
C1163 C 0.60396 0.4808 0.94544 0.0
C1164 C 0.59756 0.46227 0.93114 0.0
C1165 C 0.62452 0.46001 0.92527 0.0
C1166 C 0.65787 0.47602 0.93366 0.0
C1167 C 0.66465 0.49488 0.94772 0.0
C1168 C 0.63784 0.49726 0.95362 0.0
C1169 C 0.48193 0.4206 0.01206 0.0
C1170 C 0.50936 0.43365 0.02414 0.0
C1171 C 0.49047 0.43218 0.99641 0.0
C1172 C 0.52645 0.45752 0.99269 0.0
C1173 C 0.55376 0.47066 0.00483 0.0
C1174 C 0.54534 0.45876 0.02036 0.0
C1175 C 0.53616 0.46949 0.976 0.0
C1176 C 0.56459 0.4711 0.9685 0.0
C1177 C 0.51734 0.47848 0.96733 0.0
C1178 C 0.48851 0.47927 0.97483 0.0
C1179 C 0.49547 0.49715 0.98946 0.0
C1180 C 0.46813 0.49768 0.99649 0.0
C1181 C 0.43378 0.4806 0.98894 0.0
C1182 C 0.42673 0.46303 0.97432 0.0
C1183 C 0.45396 0.4624 0.96725 0.0
H1184 H 0.41265 0.48104 0.9944 0.0
H1185 H 0.67844 0.47369 0.92937 0.0
H1186 H 0.08113 0.56358 0.19724 0.0
H1187 H 0.07626 0.56468 0.22685 0.0
H1188 H 0.04795 0.46929 0.22753 0.0
H1189 H 0.05237 0.46798 0.19796 0.0
H1190 H 1.0049 0.47505 0.24712 0.0
H1191 H 0.13281 0.53401 0.23836 0.0
H1192 H 0.19245 0.57606 0.22722 0.0
H1193 H 0.18809 0.64936 0.24985 0.0
H1194 H 0.12819 0.60769 0.261 0.0
H1195 H 1.04096 0.47036 0.33029 0.0
H1196 H 1.04069 0.47021 0.30064 0.0
H1197 H 0.06742 0.56512 0.30286 0.0
H1198 H 0.06727 0.56531 0.33251 0.0
H1199 H 0.10993 0.56089 0.28179 0.0
H1200 H 0.98245 0.50028 0.29199 0.0
H1201 H 0.92415 0.45716 0.30372 0.0
H1202 H 0.92845 0.38576 0.27852 0.0
H1203 H 0.98707 0.42847 0.26681 0.0
C1204 C 0.07365 0.54281 0.20372 0.0
C1205 C 0.06715 0.5157 0.19536 0.0
C1206 C 0.07107 0.54352 0.22063 0.0
C1207 C 0.06204 0.51716 0.22941 0.0
C1208 C 0.05495 0.48988 0.221 0.0
C1209 C 0.05763 0.48921 0.20414 0.0
C1210 C 0.0603 0.518 0.24739 0.0
C1211 C 1.02797 0.49364 0.25472 0.0
C1212 C 0.09016 0.54261 0.25728 0.0
C1213 C 0.12587 0.56773 0.25038 0.0
C1214 C 0.14441 0.55909 0.24084 0.0
C1215 C 0.1783 0.58285 0.23456 0.0
C1216 C 0.19406 0.61534 0.23785 0.0
C1217 C 0.17588 0.62416 0.24735 0.0
C1218 C 0.14196 0.60049 0.25366 0.0
C1219 C 0.04627 0.49102 0.32449 0.0
C1220 C 0.05415 0.51785 0.3338 0.0
C1221 C 0.04618 0.49093 0.30753 0.0
C1222 C 0.05379 0.51757 0.29954 0.0
C1223 C 0.06158 0.54435 0.30878 0.0
C1224 C 0.06161 0.54445 0.32573 0.0
C1225 C 0.05457 0.51786 0.28154 0.0
C1226 C 0.08675 0.54243 0.2742 0.0
C1227 C 1.02463 0.49333 0.27166 0.0
C1228 C 0.98933 0.46759 0.27864 0.0
C1229 C 0.97112 0.47538 0.28905 0.0
C1230 C 0.93799 0.45102 0.29568 0.0
C1231 C 0.92265 0.41874 0.2919 0.0
C1232 C 0.94038 0.41077 0.28145 0.0
C1233 C 0.97355 0.43505 0.2748 0.0
H1234 H 0.897 0.39991 0.29704 0.0
H1235 H 0.22038 0.6337 0.23304 0.0
loop_
_geom_bond_atom_site_label_1
_geom_bond_atom_site_label_2
_geom_bond_distance
_geom_bond_site_symmetry_2
_ccdc_geom_bond_type
La0 C2 2.928 . S
La0 O20 2.521 . S
La0 O21 2.628 . S
La0 O22 2.554 . S
La0 O23 2.757 . S
La0 O24 2.470 . S
La0 O29 2.482 . S
La0 O31 2.503 1_455 S
La1 C11 2.928 . S
La1 O23 2.482 1_655 S
La1 O25 2.503 1_655 S
La1 O26 2.521 . S
La1 O27 2.628 . S
La1 O28 2.551 1_655 S
La1 O29 2.757 1_655 S
La1 O30 2.470 . S
C2 La0 2.928 . S
C2 C3 1.503 . S
C2 O20 1.261 . S
C2 O21 1.243 . S
C3 C2 1.503 . S
C3 C4 1.394 . S
C3 C8 1.373 . S
C4 C3 1.394 . S
C4 C5 1.380 . S
C4 H32 0.930 . S
C5 C4 1.380 . S
C5 C6 1.376 . S
C5 H33 0.930 . S
C6 C5 1.376 . S
C6 C7 1.370 . S
C7 C6 1.370 . S
C7 C8 1.396 . S
C7 H34 0.929 . S
C8 C3 1.373 . S
C8 C7 1.396 . S
C8 H35 0.929 . S
C9 O22 1.240 . S
C9 O23 1.289 . S
C10 O24 1.258 . S
C10 O25 1.256 . S
C11 La1 2.928 . S
C11 C12 1.503 . S
C11 O26 1.261 . S
C11 O27 1.243 . S
C12 C11 1.503 . S
C12 C13 1.394 . S
C12 C17 1.373 . S
C13 C12 1.394 . S
C13 C14 1.380 . S
C13 H36 0.930 . S
C14 C13 1.380 . S
C14 C15 1.376 . S
C14 H37 0.930 . S
C15 C14 1.376 . S
C15 C16 1.370 . S
C16 C15 1.370 . S
C16 C17 1.396 . S
C16 H38 0.929 . S
C17 C12 1.373 . S
C17 C16 1.396 . S
C17 H39 0.929 . S
C18 O28 1.254 . S
C18 O29 1.289 . S
C19 O30 1.258 . S
C19 O31 1.256 . S
O20 La0 2.521 . S
O20 C2 1.261 . S
O21 La0 2.628 . S
O21 C2 1.243 . S
O22 La0 2.554 . S
O22 C9 1.240 . S
O23 La0 2.757 . S
O23 La1 2.482 1_455 S
O23 C9 1.289 . S
O24 La0 2.470 . S
O24 C10 1.258 . S
O25 La1 2.503 1_455 S
O25 C10 1.256 . S
O26 La1 2.521 . S
O26 C11 1.261 . S
O27 La1 2.628 . S
O27 C11 1.243 . S
O28 La1 2.551 1_455 S
O28 C18 1.254 . S
O29 La0 2.482 . S
O29 La1 2.757 1_455 S
O29 C18 1.289 . S
O30 La1 2.470 . S
O30 C19 1.258 . S
O31 La0 2.503 1_655 S
O31 C19 1.256 . S
H32 C4 0.930 . S
H33 C5 0.930 . S
H34 C7 0.929 . S
H35 C8 0.929 . S
H36 C13 0.930 . S
H37 C14 0.930 . S
H38 C16 0.929 . S
H39 C17 0.929 . S
La40 C42 2.928 . S
La40 O60 2.521 . S
La40 O61 2.628 . S
La40 O62 2.554 . S
La40 O63 2.757 1_565 S
La40 O64 2.470 . S
La40 O69 2.482 . S
La40 O71 2.503 1_565 S
La41 C51 2.928 . S
La41 O63 2.482 . S
La41 O65 2.503 1_545 S
La41 O66 2.521 . S
La41 O67 2.628 . S
La41 O68 2.554 . S
La41 O69 2.756 1_545 S
La41 O70 2.470 . S
C42 La40 2.928 . S
C42 C43 1.503 . S
C42 O60 1.261 . S
C42 O61 1.243 . S
C43 C42 1.503 . S
C43 C44 1.394 . S
C43 C48 1.373 . S
C44 C43 1.394 . S
C44 C45 1.380 . S
C44 H72 0.930 . S
C45 C44 1.380 . S
C45 C46 1.376 . S
C45 H73 0.930 . S
C46 C45 1.376 . S
C46 C47 1.370 . S
C47 C46 1.370 . S
C47 C48 1.396 . S
C47 H74 0.929 . S
C48 C43 1.373 . S
C48 C47 1.396 . S
C48 H75 0.929 . S
C49 O62 1.240 1_545 S
C49 O63 1.289 . S
C50 O64 1.258 . S
C50 O65 1.256 . S
C51 La41 2.928 . S
C51 C52 1.503 . S
C51 O66 1.261 . S
C51 O67 1.243 . S
C52 C51 1.503 . S
C52 C53 1.394 . S
C52 C57 1.373 . S
C53 C52 1.394 . S
C53 C54 1.380 . S
C53 H76 0.930 . S
C54 C53 1.380 . S
C54 C55 1.376 . S
C54 H77 0.930 . S
C55 C54 1.376 . S
C55 C56 1.370 . S
C56 C55 1.370 . S
C56 C57 1.396 . S
C56 H78 0.929 . S
C57 C52 1.373 . S
C57 C56 1.396 . S
C57 H79 0.929 . S
C58 O68 1.240 . S
C58 O69 1.289 1_545 S
C59 O70 1.258 . S
C59 O71 1.256 . S
O60 La40 2.521 . S
O60 C42 1.261 . S
O61 La40 2.628 . S
O61 C42 1.243 . S
O62 La40 2.554 . S
O62 C49 1.240 1_565 S
O63 La40 2.757 1_545 S
O63 La41 2.482 . S
O63 C49 1.289 . S
O64 La40 2.470 . S
O64 C50 1.258 . S
O65 La41 2.503 1_565 S
O65 C50 1.256 . S
O66 La41 2.521 . S
O66 C51 1.261 . S
O67 La41 2.628 . S
O67 C51 1.243 . S
O68 La41 2.554 . S
O68 C58 1.240 . S
O69 La40 2.482 . S
O69 La41 2.756 1_565 S
O69 C58 1.289 1_565 S
O70 La41 2.470 . S
O70 C59 1.258 . S
O71 La40 2.503 1_545 S
O71 C59 1.256 . S
H72 C44 0.930 . S
H73 C45 0.930 . S
H74 C47 0.929 . S
H75 C48 0.929 . S
H76 C53 0.930 . S
H77 C54 0.930 . S
H78 C56 0.929 . S
H79 C57 0.929 . S
La80 C82 2.928 . S
La80 O100 2.521 . S
La80 O101 2.628 . S
La80 O102 2.554 . S
La80 O103 2.757 . S
La80 O104 2.470 . S
La80 O109 2.482 . S
La80 O111 2.503 . S
La81 C91 2.928 . S
La81 O103 2.482 . S
La81 O105 2.503 . S
La81 O106 2.521 . S
La81 O107 2.628 . S
La81 O108 2.554 . S
La81 O109 2.757 . S
La81 O110 2.470 . S
C82 La80 2.928 . S
C82 C83 1.503 . S
C82 O100 1.261 . S
C82 O101 1.243 . S
C83 C82 1.503 . S
C83 C84 1.394 . S
C83 C88 1.373 . S
C84 C83 1.394 . S
C84 C85 1.380 . S
C84 H112 0.930 . S
C85 C84 1.380 . S
C85 C86 1.376 . S
C85 H113 0.930 . S
C86 C85 1.376 . S
C86 C87 1.370 . S
C87 C86 1.370 . S
C87 C88 1.396 . S
C87 H114 0.929 . S
C88 C83 1.373 . S
C88 C87 1.396 . S
C88 H115 0.929 . S
C89 O102 1.240 . S
C89 O103 1.289 . S
C90 O104 1.258 . S
C90 O105 1.256 . S
C91 La81 2.928 . S
C91 C92 1.503 . S
C91 O106 1.261 . S
C91 O107 1.243 . S
C92 C91 1.503 . S
C92 C93 1.394 . S
C92 C97 1.373 . S
C93 C92 1.394 . S
C93 C94 1.380 . S
C93 H116 0.930 . S
C94 C93 1.380 . S
C94 C95 1.376 . S
C94 H117 0.930 . S
C95 C94 1.376 . S
C95 C96 1.370 . S
C96 C95 1.370 . S
C96 C97 1.396 . S
C96 H118 0.929 . S
C97 C92 1.373 . S
C97 C96 1.396 . S
C97 H119 0.929 . S
C98 O108 1.240 . S
C98 O109 1.289 . S
C99 O110 1.258 . S
C99 O111 1.256 . S
O100 La80 2.521 . S
O100 C82 1.261 . S
O101 La80 2.628 . S
O101 C82 1.243 . S
O102 La80 2.554 . S
O102 C89 1.240 . S
O103 La80 2.757 . S
O103 La81 2.482 . S
O103 C89 1.289 . S
O104 La80 2.470 . S
O104 C90 1.258 . S
O105 La81 2.503 . S
O105 C90 1.256 . S
O106 La81 2.521 . S
O106 C91 1.261 . S
O107 La81 2.628 . S
O107 C91 1.243 . S
O108 La81 2.554 . S
O108 C98 1.240 . S
O109 La80 2.482 . S
O109 La81 2.757 . S
O109 C98 1.289 . S
O110 La81 2.470 . S
O110 C99 1.258 . S
O111 La80 2.503 . S
O111 C99 1.256 . S
H112 C84 0.930 . S
H113 C85 0.930 . S
H114 C87 0.929 . S
H115 C88 0.929 . S
H116 C93 0.930 . S
H117 C94 0.930 . S
H118 C96 0.929 . S
H119 C97 0.929 . S
C120 C121 1.384 . S
C120 H133 0.947 . S
C120 C155 1.382 . S
C121 C120 1.384 . S
C121 C122 1.378 . S
C122 C121 1.378 . S
C122 C123 1.378 . S
C122 H134 0.952 . S
C123 C122 1.378 . S
C123 H135 0.950 . S
C123 C154 1.383 . S
H124 C143 0.947 . S
H125 C144 0.946 . S
H126 C146 0.953 . S
H127 C147 0.945 . S
H128 C149 0.952 . S
H129 C150 0.949 . S
H130 C152 0.950 . S
H131 C153 0.948 . S
H132 C155 0.951 . S
H133 C120 0.947 . S
H134 C122 0.952 . S
H135 C123 0.950 . S
N136 C139 1.382 . S
N136 C141 1.363 1_545 S
N137 C139 1.371 . S
N137 C140 1.372 . S
N138 C140 1.361 1_565 S
N138 C141 1.377 . S
C139 N136 1.382 . S
C139 N137 1.371 . S
C139 C142 1.480 . S
C140 N137 1.372 . S
C140 N138 1.361 1_545 S
C140 C148 1.457 . S
C141 N136 1.363 1_565 S
C141 N138 1.377 . S
C141 C154 1.479 . S
C142 C139 1.480 . S
C142 C143 1.383 . S
C142 C147 1.385 . S
C143 H124 0.947 . S
C143 C142 1.383 . S
C143 C144 1.388 . S
C144 H125 0.946 . S
C144 C143 1.388 . S
C144 C145 1.384 . S
C145 C144 1.384 . S
C145 C146 1.377 . S
C146 H126 0.953 . S
C146 C145 1.377 . S
C146 C147 1.369 . S
C147 H127 0.945 . S
C147 C142 1.385 . S
C147 C146 1.369 . S
C148 C140 1.457 . S
C148 C149 1.372 . S
C148 C153 1.364 1_545 S
C149 H128 0.952 . S
C149 C148 1.372 . S
C149 C150 1.389 . S
C150 H129 0.949 . S
C150 C149 1.389 . S
C150 C151 1.387 . S
C151 C150 1.387 . S
C151 C152 1.372 1_545 S
C152 H130 0.950 . S
C152 C151 1.372 1_565 S
C152 C153 1.379 . S
C153 H131 0.948 . S
C153 C148 1.364 1_565 S
C153 C152 1.379 . S
C154 C123 1.383 . S
C154 C141 1.479 . S
C154 C155 1.398 . S
C155 C120 1.382 . S
C155 H132 0.951 . S
C155 C154 1.398 . S
C156 C157 1.384 . S
C156 H169 0.947 . S
C156 C191 1.382 . S
C157 C156 1.384 . S
C157 C158 1.378 . S
C158 C157 1.378 . S
C158 C159 1.378 . S
C158 H170 0.952 . S
C159 C158 1.378 . S
C159 H171 0.950 . S
C159 C190 1.383 . S
H160 C179 0.947 . S
H161 C180 0.946 . S
H162 C182 0.953 . S
H163 C183 0.945 . S
H164 C185 0.952 . S
H165 C186 0.949 . S
H166 C188 0.950 . S
H167 C189 0.948 . S
H168 C191 0.951 . S
H169 C156 0.947 . S
H170 C158 0.952 . S
H171 C159 0.950 . S
N172 C175 1.382 . S
N172 C177 1.363 . S
N173 C175 1.371 . S
N173 C176 1.372 . S
N174 C176 1.361 . S
N174 C177 1.377 . S
C175 N172 1.382 . S
C175 N173 1.371 . S
C175 C178 1.480 . S
C176 N173 1.372 . S
C176 N174 1.361 . S
C176 C184 1.457 . S
C177 N172 1.363 . S
C177 N174 1.377 . S
C177 C190 1.479 . S
C178 C175 1.480 . S
C178 C179 1.383 . S
C178 C183 1.385 . S
C179 H160 0.947 . S
C179 C178 1.383 . S
C179 C180 1.388 . S
C180 H161 0.946 . S
C180 C179 1.388 . S
C180 C181 1.384 . S
C181 C180 1.384 . S
C181 C182 1.377 . S
C182 H162 0.953 . S
C182 C181 1.377 . S
C182 C183 1.369 . S
C183 H163 0.945 . S
C183 C178 1.385 . S
C183 C182 1.369 . S
C184 C176 1.457 . S
C184 C185 1.372 . S
C184 C189 1.364 . S
C185 H164 0.952 . S
C185 C184 1.372 . S
C185 C186 1.389 . S
C186 H165 0.949 . S
C186 C185 1.389 . S
C186 C187 1.387 . S
C187 C186 1.387 . S
C187 C188 1.372 . S
C188 H166 0.950 . S
C188 C187 1.372 . S
C188 C189 1.379 . S
C189 H167 0.948 . S
C189 C184 1.364 . S
C189 C188 1.379 . S
C190 C159 1.383 . S
C190 C177 1.479 . S
C190 C191 1.398 . S
C191 C156 1.382 . S
C191 H168 0.951 . S
C191 C190 1.398 . S
C192 C193 1.384 . S
C192 H205 0.947 . S
C192 C227 1.382 . S
C193 C192 1.384 . S
C193 C194 1.378 . S
C194 C193 1.378 . S
C194 C195 1.378 . S
C194 H206 0.952 . S
C195 C194 1.378 . S
C195 H207 0.950 1_655 S
C195 C226 1.383 . S
H196 C215 0.947 . S
H197 C216 0.946 . S
H198 C218 0.953 . S
H199 C219 0.945 . S
H200 C221 0.952 . S
H201 C222 0.949 . S
H202 C224 0.950 1_655 S
H203 C225 0.948 1_655 S
H204 C227 0.951 . S
H205 C192 0.947 . S
H206 C194 0.952 . S
H207 C195 0.950 1_455 S
N208 C211 1.382 . S
N208 C213 1.363 . S
N209 C211 1.371 . S
N209 C212 1.372 . S
N210 C212 1.361 . S
N210 C213 1.377 . S
C211 N208 1.382 . S
C211 N209 1.371 . S
C211 C214 1.480 . S
C212 N209 1.372 . S
C212 N210 1.361 . S
C212 C220 1.457 . S
C213 N208 1.363 . S
C213 N210 1.377 . S
C213 C226 1.479 1_455 S
C214 C211 1.480 . S
C214 C215 1.383 . S
C214 C219 1.385 . S
C215 H196 0.947 . S
C215 C214 1.383 . S
C215 C216 1.388 . S
C216 H197 0.946 . S
C216 C215 1.388 . S
C216 C217 1.384 . S
C217 C216 1.384 . S
C217 C218 1.377 . S
C218 H198 0.953 . S
C218 C217 1.377 . S
C218 C219 1.369 . S
C219 H199 0.945 . S
C219 C214 1.385 . S
C219 C218 1.369 . S
C220 C212 1.457 . S
C220 C221 1.372 . S
C220 C225 1.364 . S
C221 H200 0.952 . S
C221 C220 1.372 . S
C221 C222 1.389 . S
C222 H201 0.949 . S
C222 C221 1.389 . S
C222 C223 1.387 . S
C223 C222 1.387 . S
C223 C224 1.372 . S
C224 H202 0.950 1_455 S
C224 C223 1.372 . S
C224 C225 1.379 . S
C225 H203 0.948 1_455 S
C225 C220 1.364 . S
C225 C224 1.379 . S
C226 C195 1.383 . S
C226 C213 1.479 1_655 S
C226 C227 1.398 . S
C227 C192 1.382 . S
C227 H204 0.951 . S
C227 C226 1.398 . S
C228 C229 1.384 . S
C228 H241 0.947 . S
C228 C263 1.382 . S
C229 C228 1.384 . S
C229 C230 1.378 . S
C230 C229 1.378 . S
C230 C231 1.378 . S
C230 H242 0.952 . S
C231 C230 1.378 . S
C231 H243 0.950 . S
C231 C262 1.383 . S
H232 C251 0.947 . S
H233 C252 0.946 . S
H234 C254 0.953 . S
H235 C255 0.945 . S
H236 C257 0.952 . S
H237 C258 0.949 . S
H238 C260 0.950 . S
H239 C261 0.948 . S
H240 C263 0.951 . S
H241 C228 0.947 . S
H242 C230 0.952 . S
H243 C231 0.950 . S
N244 C247 1.382 1_455 S
N244 C249 1.363 . S
N245 C247 1.371 . S
N245 C248 1.372 1_655 S
N246 C248 1.361 . S
N246 C249 1.377 . S
C247 N244 1.382 1_655 S
C247 N245 1.371 . S
C247 C250 1.480 . S
C248 N245 1.372 1_455 S
C248 N246 1.361 . S
C248 C256 1.457 . S
C249 N244 1.363 . S
C249 N246 1.377 . S
C249 C262 1.479 . S
C250 C247 1.480 . S
C250 C251 1.383 . S
C250 C255 1.385 . S
C251 H232 0.947 . S
C251 C250 1.383 . S
C251 C252 1.388 . S
C252 H233 0.946 . S
C252 C251 1.388 . S
C252 C253 1.384 . S
C253 C252 1.384 . S
C253 C254 1.377 . S
C254 H234 0.953 . S
C254 C253 1.377 . S
C254 C255 1.369 . S
C255 H235 0.945 . S
C255 C250 1.385 . S
C255 C254 1.369 . S
C256 C248 1.457 . S
C256 C257 1.372 1_455 S
C256 C261 1.364 . S
C257 H236 0.952 . S
C257 C256 1.372 1_655 S
C257 C258 1.389 . S
C258 H237 0.949 . S
C258 C257 1.389 . S
C258 C259 1.387 1_655 S
C259 C258 1.387 1_455 S
C259 C260 1.372 . S
C260 H238 0.950 . S
C260 C259 1.372 . S
C260 C261 1.379 . S
C261 H239 0.948 . S
C261 C256 1.364 . S
C261 C260 1.379 . S
C262 C231 1.383 . S
C262 C249 1.479 . S
C262 C263 1.398 . S
C263 C228 1.382 . S
C263 H240 0.951 . S
C263 C262 1.398 . S
C264 C265 1.384 . S
C264 H277 0.947 . S
C264 C299 1.382 . S
C265 C264 1.384 . S
C265 C266 1.378 . S
C266 C265 1.378 . S
C266 C267 1.378 . S
C266 H278 0.952 . S
C267 C266 1.378 . S
C267 H279 0.950 . S
C267 C298 1.383 . S
H268 C287 0.947 . S
H269 C288 0.946 . S
H270 C290 0.953 . S
H271 C291 0.945 . S
H272 C293 0.952 . S
H273 C294 0.949 . S
H274 C296 0.950 . S
H275 C297 0.948 . S
H276 C299 0.951 . S
H277 C264 0.947 . S
H278 C266 0.952 . S
H279 C267 0.950 . S
N280 C283 1.382 1_545 S
N280 C285 1.363 . S
N281 C283 1.371 . S
N281 C284 1.372 1_565 S
N282 C284 1.361 . S
N282 C285 1.377 . S
C283 N280 1.382 1_565 S
C283 N281 1.371 . S
C283 C286 1.480 . S
C284 N281 1.372 1_545 S
C284 N282 1.361 . S
C284 C292 1.457 . S
C285 N280 1.363 . S
C285 N282 1.377 . S
C285 C298 1.479 . S
C286 C283 1.480 . S
C286 C287 1.383 . S
C286 C291 1.385 . S
C287 H268 0.947 . S
C287 C286 1.383 . S
C287 C288 1.388 . S
C288 H269 0.946 . S
C288 C287 1.388 . S
C288 C289 1.384 . S
C289 C288 1.384 . S
C289 C290 1.377 . S
C290 H270 0.953 . S
C290 C289 1.377 . S
C290 C291 1.369 . S
C291 H271 0.945 . S
C291 C286 1.385 . S
C291 C290 1.369 . S
C292 C284 1.457 . S
C292 C293 1.372 1_545 S
C292 C297 1.364 . S
C293 H272 0.952 . S
C293 C292 1.372 1_565 S
C293 C294 1.389 . S
C294 H273 0.949 . S
C294 C293 1.389 . S
C294 C295 1.356 1_565 S
C295 C294 1.356 1_545 S
C295 C296 1.401 . S
C296 H274 0.950 . S
C296 C295 1.401 . S
C296 C297 1.379 . S
C297 H275 0.948 . S
C297 C292 1.364 . S
C297 C296 1.379 . S
C298 C267 1.383 . S
C298 C285 1.479 . S
C298 C299 1.398 . S
C299 C264 1.382 . S
C299 H276 0.951 . S
C299 C298 1.398 . S
C300 C301 1.384 . S
C300 H313 0.947 . S
C300 C335 1.382 . S
C301 C300 1.384 . S
C301 C302 1.378 . S
C302 C301 1.378 . S
C302 C303 1.378 . S
C302 H314 0.952 . S
C303 C302 1.378 . S
C303 H315 0.950 . S
C303 C334 1.383 . S
H304 C323 0.947 . S
H305 C324 0.946 . S
H306 C326 0.953 . S
H307 C327 0.945 . S
H308 C329 0.952 . S
H309 C330 0.949 . S
H310 C332 0.950 . S
H311 C333 0.948 . S
H312 C335 0.951 . S
H313 C300 0.947 . S
H314 C302 0.952 . S
H315 C303 0.950 . S
N316 C319 1.382 . S
N316 C321 1.363 . S
N317 C319 1.371 . S
N317 C320 1.372 . S
N318 C320 1.361 . S
N318 C321 1.377 . S
C319 N316 1.382 . S
C319 N317 1.371 . S
C319 C322 1.480 . S
C320 N317 1.372 . S
C320 N318 1.361 . S
C320 C328 1.457 . S
C321 N316 1.363 . S
C321 N318 1.377 . S
C321 C334 1.479 . S
C322 C319 1.480 . S
C322 C323 1.383 . S
C322 C327 1.385 . S
C323 H304 0.947 . S
C323 C322 1.383 . S
C323 C324 1.388 . S
C324 H305 0.946 . S
C324 C323 1.388 . S
C324 C325 1.384 . S
C325 C324 1.384 . S
C325 C326 1.377 . S
C326 H306 0.953 . S
C326 C325 1.377 . S
C326 C327 1.369 . S
C327 H307 0.945 . S
C327 C322 1.385 . S
C327 C326 1.369 . S
C328 C320 1.457 . S
C328 C329 1.372 . S
C328 C333 1.364 . S
C329 H308 0.952 . S
C329 C328 1.372 . S
C329 C330 1.389 . S
C330 H309 0.949 . S
C330 C329 1.389 . S
C330 C331 1.387 . S
C331 C330 1.387 . S
C331 C332 1.372 . S
C332 H310 0.950 . S
C332 C331 1.372 . S
C332 C333 1.379 . S
C333 H311 0.948 . S
C333 C328 1.364 . S
C333 C332 1.379 . S
C334 C303 1.383 . S
C334 C321 1.479 . S
C334 C335 1.398 . S
C335 C300 1.382 . S
C335 H312 0.951 . S
C335 C334 1.398 . S
H336 C354 0.951 . S
H337 C356 0.951 . S
H338 C358 0.950 . S
H339 C359 0.950 . S
H340 C361 0.950 . S
H341 C364 0.950 . S
H342 C365 0.950 . S
H343 C367 0.950 . S
H344 C368 0.950 . S
H345 C369 0.951 . S
H346 C371 0.951 . S
H347 C373 0.950 . S
H348 C374 0.950 . S
H349 C376 0.950 . S
H350 C379 0.950 . S
H351 C380 0.950 . S
H352 C382 0.950 . S
H353 C383 0.950 . S
C354 H336 0.951 . S
C354 C355 1.366 . S
C354 C356 1.388 . S
C355 C354 1.366 . S
C355 C359 1.385 . S
C356 H337 0.951 . S
C356 C354 1.388 . S
C356 C357 1.366 . S
C357 C356 1.366 . S
C357 C358 1.414 . S
C357 C360 1.499 . S
C358 H338 0.950 . S
C358 C357 1.414 . S
C358 C359 1.374 . S
C359 H339 0.950 . S
C359 C355 1.385 . S
C359 C358 1.374 . S
C360 C357 1.499 . S
C360 C361 1.373 . S
C360 C362 1.389 . S
C361 H340 0.950 . S
C361 C360 1.373 . S
C361 C377 1.377 . S
C362 C360 1.389 . S
C362 C363 1.524 . S
C362 C376 1.377 . S
C363 C362 1.524 . S
C363 C364 1.397 . S
C363 C368 1.363 . S
C364 H341 0.950 . S
C364 C363 1.397 . S
C364 C365 1.334 . S
C365 H342 0.950 . S
C365 C364 1.334 . S
C365 C366 1.287 . S
C366 C365 1.287 . S
C366 C367 1.524 . S
C366 H385 0.913 . S
C367 H343 0.950 . S
C367 C366 1.524 . S
C367 C368 1.415 . S
C368 H344 0.950 . S
C368 C363 1.363 . S
C368 C367 1.415 . S
C369 H345 0.951 . S
C369 C370 1.366 . S
C369 C371 1.388 . S
C370 C369 1.366 . S
C370 C374 1.385 . S
C371 H346 0.951 . S
C371 C369 1.388 . S
C371 C372 1.366 . S
C372 C371 1.366 . S
C372 C373 1.414 . S
C372 C375 1.499 . S
C373 H347 0.950 . S
C373 C372 1.414 . S
C373 C374 1.374 . S
C374 H348 0.950 . S
C374 C370 1.385 . S
C374 C373 1.374 . S
C375 C372 1.499 . S
C375 C376 1.373 . S
C375 C377 1.389 . S
C376 H349 0.950 . S
C376 C362 1.377 . S
C376 C375 1.373 . S
C377 C361 1.377 . S
C377 C375 1.389 . S
C377 C378 1.524 . S
C378 C377 1.524 . S
C378 C379 1.397 . S
C378 C383 1.363 . S
C379 H350 0.950 . S
C379 C378 1.397 . S
C379 C380 1.334 . S
C380 H351 0.950 . S
C380 C379 1.334 . S
C380 C381 1.287 . S
C381 C380 1.287 . S
C381 C382 1.524 . S
C381 H384 0.999 . S
C382 H352 0.950 . S
C382 C381 1.524 . S
C382 C383 1.415 . S
C383 H353 0.950 . S
C383 C378 1.363 . S
C383 C382 1.415 . S
H384 C381 0.999 . S
H385 C366 0.913 . S
H386 C404 0.951 . S
H387 C406 0.951 . S
H388 C408 0.950 . S
H389 C409 0.950 . S
H390 C411 0.950 . S
H391 C414 0.950 . S
H392 C415 0.950 . S
H393 C417 0.950 . S
H394 C418 0.950 . S
H395 C419 0.951 . S
H396 C421 0.951 . S
H397 C423 0.950 . S
H398 C424 0.950 . S
H399 C426 0.950 . S
H400 C429 0.950 . S
H401 C430 0.950 . S
H402 C432 0.950 . S
H403 C433 0.950 . S
C404 H386 0.951 . S
C404 C405 1.366 . S
C404 C406 1.388 . S
C405 C404 1.366 . S
C405 C409 1.385 . S
C406 H387 0.951 . S
C406 C404 1.388 . S
C406 C407 1.366 . S
C407 C406 1.366 . S
C407 C408 1.414 . S
C407 C410 1.499 . S
C408 H388 0.950 . S
C408 C407 1.414 . S
C408 C409 1.374 . S
C409 H389 0.950 . S
C409 C405 1.385 . S
C409 C408 1.374 . S
C410 C407 1.499 . S
C410 C411 1.373 . S
C410 C412 1.389 . S
C411 H390 0.950 . S
C411 C410 1.373 . S
C411 C427 1.377 . S
C412 C410 1.389 . S
C412 C413 1.524 . S
C412 C426 1.377 . S
C413 C412 1.524 . S
C413 C414 1.397 . S
C413 C418 1.363 . S
C414 H391 0.950 . S
C414 C413 1.397 . S
C414 C415 1.334 . S
C415 H392 0.950 . S
C415 C414 1.334 . S
C415 C416 1.287 . S
C416 C415 1.287 . S
C416 C417 1.524 . S
C416 H435 0.913 . S
C417 H393 0.950 . S
C417 C416 1.524 . S
C417 C418 1.415 . S
C418 H394 0.950 . S
C418 C413 1.363 . S
C418 C417 1.415 . S
C419 H395 0.951 . S
C419 C420 1.366 . S
C419 C421 1.388 . S
C420 C419 1.366 . S
C420 C424 1.385 . S
C421 H396 0.951 . S
C421 C419 1.388 . S
C421 C422 1.366 . S
C422 C421 1.366 . S
C422 C423 1.414 . S
C422 C425 1.499 . S
C423 H397 0.950 . S
C423 C422 1.414 . S
C423 C424 1.374 . S
C424 H398 0.950 . S
C424 C420 1.385 . S
C424 C423 1.374 . S
C425 C422 1.499 . S
C425 C426 1.373 . S
C425 C427 1.389 . S
C426 H399 0.950 . S
C426 C412 1.377 . S
C426 C425 1.373 . S
C427 C411 1.377 . S
C427 C425 1.389 . S
C427 C428 1.524 . S
C428 C427 1.524 . S
C428 C429 1.397 . S
C428 C433 1.363 . S
C429 H400 0.950 . S
C429 C428 1.397 . S
C429 C430 1.334 . S
C430 H401 0.950 . S
C430 C429 1.334 . S
C430 C431 1.287 . S
C431 C430 1.287 . S
C431 C432 1.524 . S
C431 H434 0.999 . S
C432 H402 0.950 . S
C432 C431 1.524 . S
C432 C433 1.415 . S
C433 H403 0.950 . S
C433 C428 1.363 . S
C433 C432 1.415 . S
H434 C431 0.999 . S
H435 C416 0.913 . S
H436 C454 0.951 . S
H437 C456 0.951 . S
H438 C458 0.950 . S
H439 C459 0.950 . S
H440 C461 0.950 . S
H441 C464 0.950 . S
H442 C465 0.950 . S
H443 C467 0.950 . S
H444 C468 0.950 . S
H445 C469 0.951 . S
H446 C471 0.951 . S
H447 C473 0.950 . S
H448 C474 0.950 . S
H449 C476 0.950 . S
H450 C479 0.950 . S
H451 C480 0.950 . S
H452 C482 0.950 . S
H453 C483 0.950 . S
C454 H436 0.951 . S
C454 C455 1.366 . S
C454 C456 1.388 . S
C455 C454 1.366 . S
C455 C459 1.385 . S
C456 H437 0.951 . S
C456 C454 1.388 . S
C456 C457 1.366 . S
C457 C456 1.366 . S
C457 C458 1.414 . S
C457 C460 1.499 . S
C458 H438 0.950 . S
C458 C457 1.414 . S
C458 C459 1.374 . S
C459 H439 0.950 . S
C459 C455 1.385 . S
C459 C458 1.374 . S
C460 C457 1.499 . S
C460 C461 1.373 . S
C460 C462 1.389 . S
C461 H440 0.950 . S
C461 C460 1.373 . S
C461 C477 1.377 . S
C462 C460 1.389 . S
C462 C463 1.524 . S
C462 C476 1.377 . S
C463 C462 1.524 . S
C463 C464 1.397 . S
C463 C468 1.363 . S
C464 H441 0.950 . S
C464 C463 1.397 . S
C464 C465 1.334 . S
C465 H442 0.950 . S
C465 C464 1.334 . S
C465 C466 1.287 . S
C466 C465 1.287 . S
C466 C467 1.524 . S
C466 H485 0.913 . S
C467 H443 0.950 . S
C467 C466 1.524 . S
C467 C468 1.415 . S
C468 H444 0.950 . S
C468 C463 1.363 . S
C468 C467 1.415 . S
C469 H445 0.951 . S
C469 C470 1.366 . S
C469 C471 1.388 . S
C470 C469 1.366 . S
C470 C474 1.385 . S
C471 H446 0.951 . S
C471 C469 1.388 . S
C471 C472 1.366 . S
C472 C471 1.366 . S
C472 C473 1.414 . S
C472 C475 1.499 . S
C473 H447 0.950 . S
C473 C472 1.414 . S
C473 C474 1.374 . S
C474 H448 0.950 . S
C474 C470 1.385 . S
C474 C473 1.374 . S
C475 C472 1.499 . S
C475 C476 1.373 . S
C475 C477 1.389 . S
C476 H449 0.950 . S
C476 C462 1.377 . S
C476 C475 1.373 . S
C477 C461 1.377 . S
C477 C475 1.389 . S
C477 C478 1.524 . S
C478 C477 1.524 . S
C478 C479 1.397 . S
C478 C483 1.363 . S
C479 H450 0.950 . S
C479 C478 1.397 . S
C479 C480 1.334 . S
C480 H451 0.950 . S
C480 C479 1.334 . S
C480 C481 1.287 . S
C481 C480 1.287 . S
C481 C482 1.524 . S
C481 H484 0.999 . S
C482 H452 0.950 . S
C482 C481 1.524 . S
C482 C483 1.415 . S
C483 H453 0.950 . S
C483 C478 1.363 . S
C483 C482 1.415 . S
H484 C481 0.999 . S
H485 C466 0.913 . S
H486 C504 0.951 . S
H487 C506 0.951 . S
H488 C508 0.950 . S
H489 C509 0.950 . S
H490 C511 0.950 . S
H491 C514 0.950 . S
H492 C515 0.950 . S
H493 C517 0.950 . S
H494 C518 0.950 . S
H495 C519 0.951 . S
H496 C521 0.951 . S
H497 C523 0.950 . S
H498 C524 0.950 . S
H499 C526 0.950 . S
H500 C529 0.950 . S
H501 C530 0.950 . S
H502 C532 0.950 . S
H503 C533 0.950 . S
C504 H486 0.951 . S
C504 C505 1.366 . S
C504 C506 1.388 . S
C505 C504 1.366 . S
C505 C509 1.385 . S
C506 H487 0.951 . S
C506 C504 1.388 . S
C506 C507 1.366 . S
C507 C506 1.366 . S
C507 C508 1.414 . S
C507 C510 1.499 . S
C508 H488 0.950 . S
C508 C507 1.414 . S
C508 C509 1.374 . S
C509 H489 0.950 . S
C509 C505 1.385 . S
C509 C508 1.374 . S
C510 C507 1.499 . S
C510 C511 1.373 . S
C510 C512 1.389 . S
C511 H490 0.950 . S
C511 C510 1.373 . S
C511 C527 1.377 . S
C512 C510 1.389 . S
C512 C513 1.524 . S
C512 C526 1.377 . S
C513 C512 1.524 . S
C513 C514 1.397 . S
C513 C518 1.363 . S
C514 H491 0.950 . S
C514 C513 1.397 . S
C514 C515 1.334 . S
C515 H492 0.950 . S
C515 C514 1.334 . S
C515 C516 1.287 . S
C516 C515 1.287 . S
C516 C517 1.524 . S
C516 H535 0.913 . S
C517 H493 0.950 . S
C517 C516 1.524 . S
C517 C518 1.415 . S
C518 H494 0.950 . S
C518 C513 1.363 . S
C518 C517 1.415 . S
C519 H495 0.951 . S
C519 C520 1.366 . S
C519 C521 1.388 . S
C520 C519 1.366 . S
C520 C524 1.385 . S
C521 H496 0.951 . S
C521 C519 1.388 . S
C521 C522 1.366 . S
C522 C521 1.366 . S
C522 C523 1.414 . S
C522 C525 1.499 . S
C523 H497 0.950 . S
C523 C522 1.414 . S
C523 C524 1.374 . S
C524 H498 0.950 . S
C524 C520 1.385 . S
C524 C523 1.374 . S
C525 C522 1.499 . S
C525 C526 1.373 . S
C525 C527 1.389 . S
C526 H499 0.950 . S
C526 C512 1.377 . S
C526 C525 1.373 . S
C527 C511 1.377 . S
C527 C525 1.389 . S
C527 C528 1.524 . S
C528 C527 1.524 . S
C528 C529 1.397 . S
C528 C533 1.363 . S
C529 H500 0.950 . S
C529 C528 1.397 . S
C529 C530 1.334 . S
C530 H501 0.950 . S
C530 C529 1.334 . S
C530 C531 1.287 . S
C531 C530 1.287 . S
C531 C532 1.524 . S
C531 H534 0.999 . S
C532 H502 0.950 . S
C532 C531 1.524 . S
C532 C533 1.415 . S
C533 H503 0.950 . S
C533 C528 1.363 . S
C533 C532 1.415 . S
H534 C531 0.999 . S
H535 C516 0.913 . S
H536 C554 0.951 . S
H537 C556 0.951 . S
H538 C558 0.950 . S
H539 C559 0.950 . S
H540 C561 0.950 . S
H541 C564 0.950 . S
H542 C565 0.950 . S
H543 C567 0.950 . S
H544 C568 0.950 . S
H545 C569 0.951 . S
H546 C571 0.951 . S
H547 C573 0.950 . S
H548 C574 0.950 . S
H549 C576 0.950 . S
H550 C579 0.950 . S
H551 C580 0.950 . S
H552 C582 0.950 . S
H553 C583 0.950 . S
C554 H536 0.951 . S
C554 C555 1.366 . S
C554 C556 1.388 . S
C555 C554 1.366 . S
C555 C559 1.385 . S
C556 H537 0.951 . S
C556 C554 1.388 . S
C556 C557 1.366 . S
C557 C556 1.366 . S
C557 C558 1.414 . S
C557 C560 1.499 . S
C558 H538 0.950 . S
C558 C557 1.414 . S
C558 C559 1.374 . S
C559 H539 0.950 . S
C559 C555 1.385 . S
C559 C558 1.374 . S
C560 C557 1.499 . S
C560 C561 1.373 . S
C560 C562 1.389 . S
C561 H540 0.950 . S
C561 C560 1.373 . S
C561 C577 1.377 . S
C562 C560 1.389 . S
C562 C563 1.524 . S
C562 C576 1.377 . S
C563 C562 1.524 . S
C563 C564 1.397 . S
C563 C568 1.363 . S
C564 H541 0.950 . S
C564 C563 1.397 . S
C564 C565 1.334 . S
C565 H542 0.950 . S
C565 C564 1.334 . S
C565 C566 1.287 . S
C566 C565 1.287 . S
C566 C567 1.524 . S
C566 H585 0.913 . S
C567 H543 0.950 . S
C567 C566 1.524 . S
C567 C568 1.415 . S
C568 H544 0.950 . S
C568 C563 1.363 . S
C568 C567 1.415 . S
C569 H545 0.951 . S
C569 C570 1.366 . S
C569 C571 1.388 . S
C570 C569 1.366 . S
C570 C574 1.385 . S
C571 H546 0.951 . S
C571 C569 1.388 . S
C571 C572 1.366 . S
C572 C571 1.366 . S
C572 C573 1.414 . S
C572 C575 1.499 . S
C573 H547 0.950 . S
C573 C572 1.414 . S
C573 C574 1.374 . S
C574 H548 0.950 . S
C574 C570 1.385 . S
C574 C573 1.374 . S
C575 C572 1.499 . S
C575 C576 1.373 . S
C575 C577 1.389 . S
C576 H549 0.950 . S
C576 C562 1.377 . S
C576 C575 1.373 . S
C577 C561 1.377 . S
C577 C575 1.389 . S
C577 C578 1.524 . S
C578 C577 1.524 . S
C578 C579 1.397 . S
C578 C583 1.363 . S
C579 H550 0.950 . S
C579 C578 1.397 . S
C579 C580 1.334 . S
C580 H551 0.950 . S
C580 C579 1.334 . S
C580 C581 1.287 . S
C581 C580 1.287 . S
C581 C582 1.524 . S
C581 H584 0.999 . S
C582 H552 0.950 . S
C582 C581 1.524 . S
C582 C583 1.415 . S
C583 H553 0.950 . S
C583 C578 1.363 . S
C583 C582 1.415 . S
H584 C581 0.999 . S
H585 C566 0.913 . S
H586 C604 0.951 . S
H587 C606 0.951 . S
H588 C608 0.950 . S
H589 C609 0.950 . S
H590 C611 0.950 . S
H591 C614 0.950 . S
H592 C615 0.950 . S
H593 C617 0.950 . S
H594 C618 0.950 . S
H595 C619 0.951 . S
H596 C621 0.951 . S
H597 C623 0.950 . S
H598 C624 0.950 . S
H599 C626 0.950 . S
H600 C629 0.950 . S
H601 C630 0.950 . S
H602 C632 0.950 . S
H603 C633 0.950 . S
C604 H586 0.951 . S
C604 C605 1.366 . S
C604 C606 1.388 . S
C605 C604 1.366 . S
C605 C609 1.385 . S
C606 H587 0.951 . S
C606 C604 1.388 . S
C606 C607 1.366 . S
C607 C606 1.366 . S
C607 C608 1.414 . S
C607 C610 1.499 . S
C608 H588 0.950 . S
C608 C607 1.414 . S
C608 C609 1.374 . S
C609 H589 0.950 . S
C609 C605 1.385 . S
C609 C608 1.374 . S
C610 C607 1.499 . S
C610 C611 1.373 . S
C610 C612 1.389 . S
C611 H590 0.950 . S
C611 C610 1.373 . S
C611 C627 1.377 . S
C612 C610 1.389 . S
C612 C613 1.524 . S
C612 C626 1.377 . S
C613 C612 1.524 . S
C613 C614 1.397 . S
C613 C618 1.363 . S
C614 H591 0.950 . S
C614 C613 1.397 . S
C614 C615 1.334 . S
C615 H592 0.950 . S
C615 C614 1.334 . S
C615 C616 1.287 . S
C616 C615 1.287 . S
C616 C617 1.524 . S
C616 H635 0.913 . S
C617 H593 0.950 . S
C617 C616 1.524 . S
C617 C618 1.415 . S
C618 H594 0.950 . S
C618 C613 1.363 . S
C618 C617 1.415 . S
C619 H595 0.951 . S
C619 C620 1.366 . S
C619 C621 1.388 . S
C620 C619 1.366 . S
C620 C624 1.385 . S
C621 H596 0.951 . S
C621 C619 1.388 . S
C621 C622 1.366 . S
C622 C621 1.366 . S
C622 C623 1.414 . S
C622 C625 1.499 . S
C623 H597 0.950 . S
C623 C622 1.414 . S
C623 C624 1.374 . S
C624 H598 0.950 . S
C624 C620 1.385 . S
C624 C623 1.374 . S
C625 C622 1.499 . S
C625 C626 1.373 . S
C625 C627 1.389 . S
C626 H599 0.950 . S
C626 C612 1.377 . S
C626 C625 1.373 . S
C627 C611 1.377 . S
C627 C625 1.389 . S
C627 C628 1.524 . S
C628 C627 1.524 . S
C628 C629 1.397 . S
C628 C633 1.363 . S
C629 H600 0.950 . S
C629 C628 1.397 . S
C629 C630 1.334 . S
C630 H601 0.950 . S
C630 C629 1.334 . S
C630 C631 1.287 . S
C631 C630 1.287 . S
C631 C632 1.524 . S
C631 H634 0.999 . S
C632 H602 0.950 . S
C632 C631 1.524 . S
C632 C633 1.415 . S
C633 H603 0.950 . S
C633 C628 1.363 . S
C633 C632 1.415 . S
H634 C631 0.999 . S
H635 C616 0.913 . S
H636 C654 0.951 . S
H637 C656 0.951 . S
H638 C658 0.950 . S
H639 C659 0.950 . S
H640 C661 0.950 . S
H641 C664 0.950 . S
H642 C665 0.950 . S
H643 C667 0.950 . S
H644 C668 0.950 . S
H645 C669 0.951 . S
H646 C671 0.951 . S
H647 C673 0.950 . S
H648 C674 0.950 . S
H649 C676 0.950 . S
H650 C679 0.950 . S
H651 C680 0.950 . S
H652 C682 0.950 . S
H653 C683 0.950 . S
C654 H636 0.951 . S
C654 C655 1.366 . S
C654 C656 1.388 . S
C655 C654 1.366 . S
C655 C659 1.385 . S
C656 H637 0.951 . S
C656 C654 1.388 . S
C656 C657 1.366 . S
C657 C656 1.366 . S
C657 C658 1.414 . S
C657 C660 1.499 . S
C658 H638 0.950 . S
C658 C657 1.414 . S
C658 C659 1.374 . S
C659 H639 0.950 . S
C659 C655 1.385 . S
C659 C658 1.374 . S
C660 C657 1.499 . S
C660 C661 1.373 . S
C660 C662 1.389 . S
C661 H640 0.950 . S
C661 C660 1.373 . S
C661 C677 1.377 . S
C662 C660 1.389 . S
C662 C663 1.524 . S
C662 C676 1.377 . S
C663 C662 1.524 . S
C663 C664 1.397 . S
C663 C668 1.363 . S
C664 H641 0.950 . S
C664 C663 1.397 . S
C664 C665 1.334 . S
C665 H642 0.950 . S
C665 C664 1.334 . S
C665 C666 1.287 . S
C666 C665 1.287 . S
C666 C667 1.524 . S
C666 H685 0.913 . S
C667 H643 0.950 . S
C667 C666 1.524 . S
C667 C668 1.415 . S
C668 H644 0.950 . S
C668 C663 1.363 . S
C668 C667 1.415 . S
C669 H645 0.951 . S
C669 C670 1.366 . S
C669 C671 1.388 . S
C670 C669 1.366 . S
C670 C674 1.385 . S
C671 H646 0.951 . S
C671 C669 1.388 . S
C671 C672 1.366 . S
C672 C671 1.366 . S
C672 C673 1.414 . S
C672 C675 1.499 . S
C673 H647 0.950 . S
C673 C672 1.414 . S
C673 C674 1.374 . S
C674 H648 0.950 . S
C674 C670 1.385 . S
C674 C673 1.374 . S
C675 C672 1.499 . S
C675 C676 1.373 . S
C675 C677 1.389 . S
C676 H649 0.950 . S
C676 C662 1.377 . S
C676 C675 1.373 . S
C677 C661 1.377 . S
C677 C675 1.389 . S
C677 C678 1.524 . S
C678 C677 1.524 . S
C678 C679 1.397 . S
C678 C683 1.363 . S
C679 H650 0.950 . S
C679 C678 1.397 . S
C679 C680 1.334 . S
C680 H651 0.950 . S
C680 C679 1.334 . S
C680 C681 1.287 . S
C681 C680 1.287 . S
C681 C682 1.524 . S
C681 H684 0.999 . S
C682 H652 0.950 . S
C682 C681 1.524 . S
C682 C683 1.415 . S
C683 H653 0.950 . S
C683 C678 1.363 . S
C683 C682 1.415 . S
H684 C681 0.999 . S
H685 C666 0.913 . S
H686 C704 0.951 . S
H687 C706 0.951 . S
H688 C708 0.950 . S
H689 C709 0.950 . S
H690 C711 0.950 . S
H691 C714 0.950 . S
H692 C715 0.950 . S
H693 C717 0.950 . S
H694 C718 0.950 . S
H695 C719 0.951 . S
H696 C721 0.951 . S
H697 C723 0.950 . S
H698 C724 0.950 . S
H699 C726 0.950 . S
H700 C729 0.950 . S
H701 C730 0.950 . S
H702 C732 0.950 . S
H703 C733 0.950 . S
C704 H686 0.951 . S
C704 C705 1.366 . S
C704 C706 1.388 . S
C705 C704 1.366 . S
C705 C709 1.385 . S
C706 H687 0.951 . S
C706 C704 1.388 . S
C706 C707 1.366 . S
C707 C706 1.366 . S
C707 C708 1.414 . S
C707 C710 1.499 . S
C708 H688 0.950 . S
C708 C707 1.414 . S
C708 C709 1.374 . S
C709 H689 0.950 . S
C709 C705 1.385 . S
C709 C708 1.374 . S
C710 C707 1.499 . S
C710 C711 1.373 . S
C710 C712 1.389 . S
C711 H690 0.950 . S
C711 C710 1.373 . S
C711 C727 1.377 . S
C712 C710 1.389 . S
C712 C713 1.524 . S
C712 C726 1.377 . S
C713 C712 1.524 . S
C713 C714 1.397 . S
C713 C718 1.363 . S
C714 H691 0.950 . S
C714 C713 1.397 . S
C714 C715 1.334 . S
C715 H692 0.950 . S
C715 C714 1.334 . S
C715 C716 1.287 . S
C716 C715 1.287 . S
C716 C717 1.524 . S
C716 H735 0.913 . S
C717 H693 0.950 . S
C717 C716 1.524 . S
C717 C718 1.415 . S
C718 H694 0.950 . S
C718 C713 1.363 . S
C718 C717 1.415 . S
C719 H695 0.951 . S
C719 C720 1.366 . S
C719 C721 1.388 . S
C720 C719 1.366 . S
C720 C724 1.385 . S
C721 H696 0.951 . S
C721 C719 1.388 . S
C721 C722 1.366 . S
C722 C721 1.366 . S
C722 C723 1.414 . S
C722 C725 1.499 . S
C723 H697 0.950 . S
C723 C722 1.414 . S
C723 C724 1.374 . S
C724 H698 0.950 . S
C724 C720 1.385 . S
C724 C723 1.374 . S
C725 C722 1.499 . S
C725 C726 1.373 . S
C725 C727 1.389 . S
C726 H699 0.950 . S
C726 C712 1.377 . S
C726 C725 1.373 . S
C727 C711 1.377 . S
C727 C725 1.389 . S
C727 C728 1.524 . S
C728 C727 1.524 . S
C728 C729 1.397 . S
C728 C733 1.363 . S
C729 H700 0.950 . S
C729 C728 1.397 . S
C729 C730 1.334 . S
C730 H701 0.950 . S
C730 C729 1.334 . S
C730 C731 1.287 . S
C731 C730 1.287 . S
C731 C732 1.524 . S
C731 H734 0.999 . S
C732 H702 0.950 . S
C732 C731 1.524 . S
C732 C733 1.415 . S
C733 H703 0.950 . S
C733 C728 1.363 . S
C733 C732 1.415 . S
H734 C731 0.999 . S
H735 C716 0.913 . S
H736 C754 0.951 . S
H737 C756 0.951 . S
H738 C758 0.950 . S
H739 C759 0.950 . S
H740 C761 0.950 . S
H741 C764 0.950 . S
H742 C765 0.950 . S
H743 C767 0.950 . S
H744 C768 0.950 . S
H745 C769 0.951 . S
H746 C771 0.951 . S
H747 C773 0.950 . S
H748 C774 0.950 . S
H749 C776 0.950 . S
H750 C779 0.950 . S
H751 C780 0.950 . S
H752 C782 0.950 . S
H753 C783 0.950 . S
C754 H736 0.951 . S
C754 C755 1.366 . S
C754 C756 1.388 . S
C755 C754 1.366 . S
C755 C759 1.385 . S
C756 H737 0.951 . S
C756 C754 1.388 . S
C756 C757 1.366 . S
C757 C756 1.366 . S
C757 C758 1.414 . S
C757 C760 1.499 . S
C758 H738 0.950 . S
C758 C757 1.414 . S
C758 C759 1.374 . S
C759 H739 0.950 . S
C759 C755 1.385 . S
C759 C758 1.374 . S
C760 C757 1.499 . S
C760 C761 1.373 . S
C760 C762 1.389 . S
C761 H740 0.950 . S
C761 C760 1.373 . S
C761 C777 1.377 . S
C762 C760 1.389 . S
C762 C763 1.524 . S
C762 C776 1.377 . S
C763 C762 1.524 . S
C763 C764 1.397 . S
C763 C768 1.363 . S
C764 H741 0.950 . S
C764 C763 1.397 . S
C764 C765 1.334 . S
C765 H742 0.950 . S
C765 C764 1.334 . S
C765 C766 1.287 . S
C766 C765 1.287 . S
C766 C767 1.524 . S
C766 H785 0.913 . S
C767 H743 0.950 . S
C767 C766 1.524 . S
C767 C768 1.415 . S
C768 H744 0.950 . S
C768 C763 1.363 . S
C768 C767 1.415 . S
C769 H745 0.951 . S
C769 C770 1.366 . S
C769 C771 1.388 . S
C770 C769 1.366 . S
C770 C774 1.385 . S
C771 H746 0.951 . S
C771 C769 1.388 . S
C771 C772 1.366 . S
C772 C771 1.366 . S
C772 C773 1.414 . S
C772 C775 1.499 . S
C773 H747 0.950 . S
C773 C772 1.414 . S
C773 C774 1.374 . S
C774 H748 0.950 . S
C774 C770 1.385 . S
C774 C773 1.374 . S
C775 C772 1.499 . S
C775 C776 1.373 . S
C775 C777 1.389 . S
C776 H749 0.950 . S
C776 C762 1.377 . S
C776 C775 1.373 . S
C777 C761 1.377 . S
C777 C775 1.389 . S
C777 C778 1.524 . S
C778 C777 1.524 . S
C778 C779 1.397 . S
C778 C783 1.363 . S
C779 H750 0.950 . S
C779 C778 1.397 . S
C779 C780 1.334 . S
C780 H751 0.950 . S
C780 C779 1.334 . S
C780 C781 1.287 . S
C781 C780 1.287 . S
C781 C782 1.524 . S
C781 H784 0.999 . S
C782 H752 0.950 . S
C782 C781 1.524 . S
C782 C783 1.415 . S
C783 H753 0.950 . S
C783 C778 1.363 . S
C783 C782 1.415 . S
H784 C781 0.999 . S
H785 C766 0.913 . S
H786 C804 0.951 . S
H787 C806 0.951 . S
H788 C808 0.950 . S
H789 C809 0.950 . S
H790 C811 0.950 . S
H791 C814 0.950 . S
H792 C815 0.950 . S
H793 C817 0.950 . S
H794 C818 0.950 . S
H795 C819 0.951 . S
H796 C821 0.951 . S
H797 C823 0.950 . S
H798 C824 0.950 . S
H799 C826 0.950 . S
H800 C829 0.950 . S
H801 C830 0.950 . S
H802 C832 0.950 . S
H803 C833 0.950 . S
C804 H786 0.951 . S
C804 C805 1.366 . S
C804 C806 1.388 . S
C805 C804 1.366 . S
C805 C809 1.385 . S
C806 H787 0.951 . S
C806 C804 1.388 . S
C806 C807 1.366 . S
C807 C806 1.366 . S
C807 C808 1.414 . S
C807 C810 1.499 . S
C808 H788 0.950 . S
C808 C807 1.414 . S
C808 C809 1.374 . S
C809 H789 0.950 . S
C809 C805 1.385 . S
C809 C808 1.374 . S
C810 C807 1.499 . S
C810 C811 1.373 . S
C810 C812 1.389 . S
C811 H790 0.950 . S
C811 C810 1.373 . S
C811 C827 1.377 . S
C812 C810 1.389 . S
C812 C813 1.524 . S
C812 C826 1.377 . S
C813 C812 1.524 . S
C813 C814 1.397 . S
C813 C818 1.363 . S
C814 H791 0.950 . S
C814 C813 1.397 . S
C814 C815 1.334 . S
C815 H792 0.950 . S
C815 C814 1.334 . S
C815 C816 1.287 . S
C816 C815 1.287 . S
C816 C817 1.524 . S
C816 H835 0.913 . S
C817 H793 0.950 . S
C817 C816 1.524 . S
C817 C818 1.415 . S
C818 H794 0.950 . S
C818 C813 1.363 . S
C818 C817 1.415 . S
C819 H795 0.951 . S
C819 C820 1.366 . S
C819 C821 1.388 . S
C820 C819 1.366 . S
C820 C824 1.385 . S
C821 H796 0.951 . S
C821 C819 1.388 . S
C821 C822 1.366 . S
C822 C821 1.366 . S
C822 C823 1.414 . S
C822 C825 1.499 . S
C823 H797 0.950 . S
C823 C822 1.414 . S
C823 C824 1.374 . S
C824 H798 0.950 . S
C824 C820 1.385 . S
C824 C823 1.374 . S
C825 C822 1.499 . S
C825 C826 1.373 . S
C825 C827 1.389 . S
C826 H799 0.950 . S
C826 C812 1.377 . S
C826 C825 1.373 . S
C827 C811 1.377 . S
C827 C825 1.389 . S
C827 C828 1.524 . S
C828 C827 1.524 . S
C828 C829 1.397 . S
C828 C833 1.363 . S
C829 H800 0.950 . S
C829 C828 1.397 . S
C829 C830 1.334 . S
C830 H801 0.950 . S
C830 C829 1.334 . S
C830 C831 1.287 . S
C831 C830 1.287 . S
C831 C832 1.524 . S
C831 H834 0.999 . S
C832 H802 0.950 . S
C832 C831 1.524 . S
C832 C833 1.415 . S
C833 H803 0.950 . S
C833 C828 1.363 . S
C833 C832 1.415 . S
H834 C831 0.999 . S
H835 C816 0.913 . S
H836 C854 0.951 . S
H837 C856 0.951 . S
H838 C858 0.950 . S
H839 C859 0.950 . S
H840 C861 0.950 . S
H841 C864 0.950 . S
H842 C865 0.950 . S
H843 C867 0.950 . S
H844 C868 0.950 . S
H845 C869 0.951 . S
H846 C871 0.951 . S
H847 C873 0.950 . S
H848 C874 0.950 . S
H849 C876 0.950 . S
H850 C879 0.950 . S
H851 C880 0.950 . S
H852 C882 0.950 . S
H853 C883 0.950 . S
C854 H836 0.951 . S
C854 C855 1.366 . S
C854 C856 1.388 . S
C855 C854 1.366 . S
C855 C859 1.385 . S
C856 H837 0.951 . S
C856 C854 1.388 . S
C856 C857 1.366 . S
C857 C856 1.366 . S
C857 C858 1.414 . S
C857 C860 1.499 . S
C858 H838 0.950 . S
C858 C857 1.414 . S
C858 C859 1.374 . S
C859 H839 0.950 . S
C859 C855 1.385 . S
C859 C858 1.374 . S
C860 C857 1.499 . S
C860 C861 1.373 . S
C860 C862 1.389 . S
C861 H840 0.950 . S
C861 C860 1.373 . S
C861 C877 1.377 . S
C862 C860 1.389 . S
C862 C863 1.524 . S
C862 C876 1.377 . S
C863 C862 1.524 . S
C863 C864 1.397 . S
C863 C868 1.363 . S
C864 H841 0.950 . S
C864 C863 1.397 . S
C864 C865 1.334 . S
C865 H842 0.950 . S
C865 C864 1.334 . S
C865 C866 1.287 . S
C866 C865 1.287 . S
C866 C867 1.524 . S
C866 H885 0.913 . S
C867 H843 0.950 . S
C867 C866 1.524 . S
C867 C868 1.415 . S
C868 H844 0.950 . S
C868 C863 1.363 . S
C868 C867 1.415 . S
C869 H845 0.951 . S
C869 C870 1.366 . S
C869 C871 1.388 . S
C870 C869 1.366 . S
C870 C874 1.385 . S
C871 H846 0.951 . S
C871 C869 1.388 . S
C871 C872 1.366 . S
C872 C871 1.366 . S
C872 C873 1.414 . S
C872 C875 1.499 . S
C873 H847 0.950 . S
C873 C872 1.414 . S
C873 C874 1.374 . S
C874 H848 0.950 . S
C874 C870 1.385 . S
C874 C873 1.374 . S
C875 C872 1.499 . S
C875 C876 1.373 . S
C875 C877 1.389 . S
C876 H849 0.950 . S
C876 C862 1.377 . S
C876 C875 1.373 . S
C877 C861 1.377 . S
C877 C875 1.389 . S
C877 C878 1.524 . S
C878 C877 1.524 . S
C878 C879 1.397 . S
C878 C883 1.363 . S
C879 H850 0.950 . S
C879 C878 1.397 . S
C879 C880 1.334 . S
C880 H851 0.950 . S
C880 C879 1.334 . S
C880 C881 1.287 . S
C881 C880 1.287 . S
C881 C882 1.524 . S
C881 H884 0.999 . S
C882 H852 0.950 . S
C882 C881 1.524 . S
C882 C883 1.415 . S
C883 H853 0.950 . S
C883 C878 1.363 . S
C883 C882 1.415 . S
H884 C881 0.999 . S
H885 C866 0.913 . S
H886 C904 0.951 . S
H887 C906 0.951 . S
H888 C908 0.950 . S
H889 C909 0.950 . S
H890 C911 0.950 . S
H891 C914 0.950 . S
H892 C915 0.950 . S
H893 C917 0.950 . S
H894 C918 0.950 . S
H895 C919 0.951 . S
H896 C921 0.951 . S
H897 C923 0.950 . S
H898 C924 0.950 . S
H899 C926 0.950 . S
H900 C929 0.950 . S
H901 C930 0.950 . S
H902 C932 0.950 . S
H903 C933 0.950 . S
C904 H886 0.951 . S
C904 C905 1.366 . S
C904 C906 1.388 . S
C905 C904 1.366 . S
C905 C909 1.385 . S
C906 H887 0.951 . S
C906 C904 1.388 . S
C906 C907 1.366 . S
C907 C906 1.366 . S
C907 C908 1.414 . S
C907 C910 1.499 . S
C908 H888 0.950 . S
C908 C907 1.414 . S
C908 C909 1.374 . S
C909 H889 0.950 . S
C909 C905 1.385 . S
C909 C908 1.374 . S
C910 C907 1.499 . S
C910 C911 1.373 . S
C910 C912 1.389 . S
C911 H890 0.950 . S
C911 C910 1.373 . S
C911 C927 1.377 . S
C912 C910 1.389 . S
C912 C913 1.524 . S
C912 C926 1.377 . S
C913 C912 1.524 . S
C913 C914 1.397 . S
C913 C918 1.363 . S
C914 H891 0.950 . S
C914 C913 1.397 . S
C914 C915 1.334 . S
C915 H892 0.950 . S
C915 C914 1.334 . S
C915 C916 1.287 . S
C916 C915 1.287 . S
C916 C917 1.524 . S
C916 H935 0.913 . S
C917 H893 0.950 . S
C917 C916 1.524 . S
C917 C918 1.415 . S
C918 H894 0.950 . S
C918 C913 1.363 . S
C918 C917 1.415 . S
C919 H895 0.951 . S
C919 C920 1.366 . S
C919 C921 1.388 . S
C920 C919 1.366 . S
C920 C924 1.385 . S
C921 H896 0.951 . S
C921 C919 1.388 . S
C921 C922 1.366 . S
C922 C921 1.366 . S
C922 C923 1.414 . S
C922 C925 1.499 . S
C923 H897 0.950 . S
C923 C922 1.414 . S
C923 C924 1.374 . S
C924 H898 0.950 . S
C924 C920 1.385 . S
C924 C923 1.374 . S
C925 C922 1.499 . S
C925 C926 1.373 . S
C925 C927 1.389 . S
C926 H899 0.950 . S
C926 C912 1.377 . S
C926 C925 1.373 . S
C927 C911 1.377 . S
C927 C925 1.389 . S
C927 C928 1.524 . S
C928 C927 1.524 . S
C928 C929 1.397 . S
C928 C933 1.363 . S
C929 H900 0.950 . S
C929 C928 1.397 . S
C929 C930 1.334 . S
C930 H901 0.950 . S
C930 C929 1.334 . S
C930 C931 1.287 . S
C931 C930 1.287 . S
C931 C932 1.524 . S
C931 H934 0.999 . S
C932 H902 0.950 . S
C932 C931 1.524 . S
C932 C933 1.415 . S
C933 H903 0.950 . S
C933 C928 1.363 . S
C933 C932 1.415 . S
H934 C931 0.999 . S
H935 C916 0.913 . S
H936 C954 0.951 . S
H937 C956 0.945 1_655 S
H938 C958 0.950 . S
H939 C959 0.950 . S
H940 C961 0.950 . S
H941 C964 0.950 . S
H942 C965 0.950 . S
H943 C967 0.950 . S
H944 C968 0.950 . S
H945 C969 0.951 . S
H946 C971 0.951 . S
H947 C973 0.950 1_655 S
H948 C974 0.950 1_655 S
H949 C976 0.950 . S
H950 C979 0.950 1_655 S
H951 C980 0.950 . S
H952 C982 0.950 . S
H953 C983 0.950 . S
C954 H936 0.951 . S
C954 C955 1.366 1_655 S
C954 C956 1.387 1_655 S
C955 C954 1.366 1_455 S
C955 C959 1.385 . S
C956 H937 0.945 1_455 S
C956 C954 1.387 1_455 S
C956 C957 1.372 . S
C957 C956 1.372 . S
C957 C958 1.414 . S
C957 C960 1.499 . S
C958 H938 0.950 . S
C958 C957 1.414 . S
C958 C959 1.374 . S
C959 H939 0.950 . S
C959 C955 1.385 . S
C959 C958 1.374 . S
C960 C957 1.499 . S
C960 C961 1.373 . S
C960 C962 1.389 . S
C961 H940 0.950 . S
C961 C960 1.373 . S
C961 C977 1.377 . S
C962 C960 1.389 . S
C962 C963 1.524 . S
C962 C976 1.377 . S
C963 C962 1.524 . S
C963 C964 1.397 . S
C963 C968 1.363 1_455 S
C964 H941 0.950 . S
C964 C963 1.397 . S
C964 C965 1.334 . S
C965 H942 0.950 . S
C965 C964 1.334 . S
C965 C966 1.287 . S
C966 C965 1.287 . S
C966 C967 1.524 1_455 S
C966 H985 0.913 . S
C967 H943 0.950 . S
C967 C966 1.524 1_655 S
C967 C968 1.415 . S
C968 H944 0.950 . S
C968 C963 1.363 1_655 S
C968 C967 1.415 . S
C969 H945 0.951 . S
C969 C970 1.366 . S
C969 C971 1.388 1_556 S
C970 C969 1.366 . S
C970 C974 1.385 . S
C971 H946 0.951 . S
C971 C969 1.388 1_554 S
C971 C972 1.366 . S
C972 C971 1.366 . S
C972 C973 1.414 . S
C972 C975 1.499 . S
C973 H947 0.950 1_455 S
C973 C972 1.414 . S
C973 C974 1.374 1_554 S
C974 H948 0.950 1_455 S
C974 C970 1.385 . S
C974 C973 1.374 1_556 S
C975 C972 1.499 . S
C975 C976 1.373 . S
C975 C977 1.389 . S
C976 H949 0.950 . S
C976 C962 1.377 . S
C976 C975 1.373 . S
C977 C961 1.377 . S
C977 C975 1.389 . S
C977 C978 1.524 . S
C978 C977 1.524 . S
C978 C979 1.397 . S
C978 C983 1.363 . S
C979 H950 0.950 1_455 S
C979 C978 1.397 . S
C979 C980 1.334 . S
C980 H951 0.950 . S
C980 C979 1.334 . S
C980 C981 1.287 . S
C981 C980 1.287 . S
C981 C982 1.524 . S
C981 H984 0.999 . S
C982 H952 0.950 . S
C982 C981 1.524 . S
C982 C983 1.415 . S
C983 H953 0.950 . S
C983 C978 1.363 . S
C983 C982 1.415 . S
H984 C981 0.999 . S
H985 C966 0.913 . S
H986 C1004 0.951 . S
H987 C1006 0.951 . S
H988 C1008 0.950 . S
H989 C1009 0.950 . S
H990 C1011 0.950 . S
H991 C1014 0.950 . S
H992 C1015 0.950 . S
H993 C1017 0.950 . S
H994 C1018 0.950 . S
H995 C1019 0.951 . S
H996 C1021 0.951 . S
H997 C1023 0.950 . S
H998 C1024 0.950 . S
H999 C1026 0.950 . S
H1000 C1029 0.950 . S
H1001 C1030 0.950 . S
H1002 C1032 0.950 . S
H1003 C1033 0.950 . S
C1004 H986 0.951 . S
C1004 C1005 1.366 1_565 S
C1004 C1006 1.388 . S
C1005 C1004 1.366 1_545 S
C1005 C1009 1.385 . S
C1006 H987 0.951 . S
C1006 C1004 1.388 . S
C1006 C1007 1.366 1_565 S
C1007 C1006 1.366 1_545 S
C1007 C1008 1.414 . S
C1007 C1010 1.499 . S
C1008 H988 0.950 . S
C1008 C1007 1.414 . S
C1008 C1009 1.374 . S
C1009 H989 0.950 . S
C1009 C1005 1.385 . S
C1009 C1008 1.374 . S
C1010 C1007 1.499 . S
C1010 C1011 1.373 . S
C1010 C1012 1.389 1_545 S
C1011 H990 0.950 . S
C1011 C1010 1.373 . S
C1011 C1027 1.377 . S
C1012 C1010 1.389 1_565 S
C1012 C1013 1.524 . S
C1012 C1026 1.377 . S
C1013 C1012 1.524 . S
C1013 C1014 1.397 . S
C1013 C1018 1.363 . S
C1014 H991 0.950 . S
C1014 C1013 1.397 . S
C1014 C1015 1.334 . S
C1015 H992 0.950 . S
C1015 C1014 1.334 . S
C1015 C1016 1.287 . S
C1016 C1015 1.287 . S
C1016 C1017 1.524 . S
C1016 H1035 0.913 . S
C1017 H993 0.950 . S
C1017 C1016 1.524 . S
C1017 C1018 1.415 . S
C1018 H994 0.950 . S
C1018 C1013 1.363 . S
C1018 C1017 1.415 . S
C1019 H995 0.951 . S
C1019 C1020 1.366 . S
C1019 C1021 1.388 . S
C1020 C1019 1.366 . S
C1020 C1024 1.385 1_545 S
C1021 H996 0.951 . S
C1021 C1019 1.388 . S
C1021 C1022 1.366 . S
C1022 C1021 1.366 . S
C1022 C1023 1.414 1_545 S
C1022 C1025 1.499 . S
C1023 H997 0.950 . S
C1023 C1022 1.414 1_565 S
C1023 C1024 1.374 . S
C1024 H998 0.950 . S
C1024 C1020 1.385 1_565 S
C1024 C1023 1.374 . S
C1025 C1022 1.499 . S
C1025 C1026 1.373 1_545 S
C1025 C1027 1.389 . S
C1026 H999 0.950 . S
C1026 C1012 1.377 . S
C1026 C1025 1.373 1_565 S
C1027 C1011 1.377 . S
C1027 C1025 1.389 . S
C1027 C1028 1.524 . S
C1028 C1027 1.524 . S
C1028 C1029 1.397 . S
C1028 C1033 1.363 . S
C1029 H1000 0.950 . S
C1029 C1028 1.397 . S
C1029 C1030 1.334 . S
C1030 H1001 0.950 . S
C1030 C1029 1.334 . S
C1030 C1031 1.287 . S
C1031 C1030 1.287 . S
C1031 C1032 1.524 . S
C1031 H1034 0.999 . S
C1032 H1002 0.950 . S
C1032 C1031 1.524 . S
C1032 C1033 1.415 . S
C1033 H1003 0.950 . S
C1033 C1028 1.363 . S
C1033 C1032 1.415 . S
H1034 C1031 0.999 . S
H1035 C1016 0.913 . S
H1036 C1054 0.951 . S
H1037 C1056 0.951 . S
H1038 C1058 0.950 . S
H1039 C1059 0.950 . S
H1040 C1061 0.950 . S
H1041 C1064 0.950 . S
H1042 C1065 0.950 . S
H1043 C1067 0.950 . S
H1044 C1068 0.950 . S
H1045 C1069 0.951 . S
H1046 C1071 0.951 . S
H1047 C1073 0.950 . S
H1048 C1074 0.950 . S
H1049 C1076 0.950 . S
H1050 C1079 0.950 . S
H1051 C1080 0.950 . S
H1052 C1082 0.950 . S
H1053 C1083 0.950 . S
C1054 H1036 0.951 . S
C1054 C1055 1.366 . S
C1054 C1056 1.388 . S
C1055 C1054 1.366 . S
C1055 C1059 1.385 . S
C1056 H1037 0.951 . S
C1056 C1054 1.388 . S
C1056 C1057 1.366 . S
C1057 C1056 1.366 . S
C1057 C1058 1.414 . S
C1057 C1060 1.499 . S
C1058 H1038 0.950 . S
C1058 C1057 1.414 . S
C1058 C1059 1.374 . S
C1059 H1039 0.950 . S
C1059 C1055 1.385 . S
C1059 C1058 1.374 . S
C1060 C1057 1.499 . S
C1060 C1061 1.373 . S
C1060 C1062 1.389 . S
C1061 H1040 0.950 . S
C1061 C1060 1.373 . S
C1061 C1077 1.377 . S
C1062 C1060 1.389 . S
C1062 C1063 1.524 . S
C1062 C1076 1.377 . S
C1063 C1062 1.524 . S
C1063 C1064 1.397 . S
C1063 C1068 1.363 . S
C1064 H1041 0.950 . S
C1064 C1063 1.397 . S
C1064 C1065 1.334 . S
C1065 H1042 0.950 . S
C1065 C1064 1.334 . S
C1065 C1066 1.287 . S
C1066 C1065 1.287 . S
C1066 C1067 1.524 . S
C1066 H1085 0.913 . S
C1067 H1043 0.950 . S
C1067 C1066 1.524 . S
C1067 C1068 1.415 . S
C1068 H1044 0.950 . S
C1068 C1063 1.363 . S
C1068 C1067 1.415 . S
C1069 H1045 0.951 . S
C1069 C1070 1.366 . S
C1069 C1071 1.388 . S
C1070 C1069 1.366 . S
C1070 C1074 1.385 . S
C1071 H1046 0.951 . S
C1071 C1069 1.388 . S
C1071 C1072 1.366 . S
C1072 C1071 1.366 . S
C1072 C1073 1.414 . S
C1072 C1075 1.499 . S
C1073 H1047 0.950 . S
C1073 C1072 1.414 . S
C1073 C1074 1.374 . S
C1074 H1048 0.950 . S
C1074 C1070 1.385 . S
C1074 C1073 1.374 . S
C1075 C1072 1.499 . S
C1075 C1076 1.373 . S
C1075 C1077 1.389 . S
C1076 H1049 0.950 . S
C1076 C1062 1.377 . S
C1076 C1075 1.373 . S
C1077 C1061 1.377 . S
C1077 C1075 1.389 . S
C1077 C1078 1.524 . S
C1078 C1077 1.524 . S
C1078 C1079 1.397 . S
C1078 C1083 1.363 . S
C1079 H1050 0.950 . S
C1079 C1078 1.397 . S
C1079 C1080 1.334 . S
C1080 H1051 0.950 . S
C1080 C1079 1.334 . S
C1080 C1081 1.287 . S
C1081 C1080 1.287 . S
C1081 C1082 1.524 . S
C1081 H1084 0.999 . S
C1082 H1052 0.950 . S
C1082 C1081 1.524 . S
C1082 C1083 1.415 . S
C1083 H1053 0.950 . S
C1083 C1078 1.363 . S
C1083 C1082 1.415 . S
H1084 C1081 0.999 . S
H1085 C1066 0.913 . S
H1086 C1104 0.951 . S
H1087 C1106 0.951 . S
H1088 C1108 0.950 . S
H1089 C1109 0.950 . S
H1090 C1111 0.950 . S
H1091 C1114 0.950 . S
H1092 C1115 0.950 . S
H1093 C1117 0.950 . S
H1094 C1118 0.950 . S
H1095 C1119 0.951 . S
H1096 C1121 0.951 . S
H1097 C1123 0.950 . S
H1098 C1124 0.950 . S
H1099 C1126 0.950 . S
H1100 C1129 0.950 . S
H1101 C1130 0.950 . S
H1102 C1132 0.950 . S
H1103 C1133 0.950 . S
C1104 H1086 0.951 . S
C1104 C1105 1.366 1_565 S
C1104 C1106 1.388 . S
C1105 C1104 1.366 1_545 S
C1105 C1109 1.385 . S
C1106 H1087 0.951 . S
C1106 C1104 1.388 . S
C1106 C1107 1.366 1_565 S
C1107 C1106 1.366 1_545 S
C1107 C1108 1.414 . S
C1107 C1110 1.499 . S
C1108 H1088 0.950 . S
C1108 C1107 1.414 . S
C1108 C1109 1.374 . S
C1109 H1089 0.950 . S
C1109 C1105 1.385 . S
C1109 C1108 1.374 . S
C1110 C1107 1.499 . S
C1110 C1111 1.373 . S
C1110 C1112 1.389 1_545 S
C1111 H1090 0.950 . S
C1111 C1110 1.373 . S
C1111 C1127 1.377 . S
C1112 C1110 1.389 1_565 S
C1112 C1113 1.524 . S
C1112 C1126 1.377 . S
C1113 C1112 1.524 . S
C1113 C1114 1.397 . S
C1113 C1118 1.363 . S
C1114 H1091 0.950 . S
C1114 C1113 1.397 . S
C1114 C1115 1.334 . S
C1115 H1092 0.950 . S
C1115 C1114 1.334 . S
C1115 C1116 1.287 . S
C1116 C1115 1.287 . S
C1116 C1117 1.524 . S
C1116 H1135 0.913 . S
C1117 H1093 0.950 . S
C1117 C1116 1.524 . S
C1117 C1118 1.415 . S
C1118 H1094 0.950 . S
C1118 C1113 1.363 . S
C1118 C1117 1.415 . S
C1119 H1095 0.951 . S
C1119 C1120 1.366 1_545 S
C1119 C1121 1.388 . S
C1120 C1119 1.366 1_565 S
C1120 C1124 1.385 . S
C1121 H1096 0.951 . S
C1121 C1119 1.388 . S
C1121 C1122 1.366 . S
C1122 C1121 1.366 . S
C1122 C1123 1.414 1_545 S
C1122 C1125 1.499 . S
C1123 H1097 0.950 . S
C1123 C1122 1.414 1_565 S
C1123 C1124 1.374 . S
C1124 H1098 0.950 . S
C1124 C1120 1.385 . S
C1124 C1123 1.374 . S
C1125 C1122 1.499 . S
C1125 C1126 1.373 1_545 S
C1125 C1127 1.389 . S
C1126 H1099 0.950 . S
C1126 C1112 1.377 . S
C1126 C1125 1.373 1_565 S
C1127 C1111 1.377 . S
C1127 C1125 1.389 . S
C1127 C1128 1.524 . S
C1128 C1127 1.524 . S
C1128 C1129 1.397 . S
C1128 C1133 1.363 . S
C1129 H1100 0.950 . S
C1129 C1128 1.397 . S
C1129 C1130 1.334 . S
C1130 H1101 0.950 . S
C1130 C1129 1.334 . S
C1130 C1131 1.287 . S
C1131 C1130 1.287 . S
C1131 C1132 1.524 . S
C1131 H1134 0.999 . S
C1132 H1102 0.950 . S
C1132 C1131 1.524 . S
C1132 C1133 1.415 . S
C1133 H1103 0.950 . S
C1133 C1128 1.363 . S
C1133 C1132 1.415 . S
H1134 C1131 0.999 . S
H1135 C1116 0.913 . S
H1136 C1154 0.951 . S
H1137 C1156 0.951 . S
H1138 C1158 0.950 . S
H1139 C1159 0.950 . S
H1140 C1161 0.950 . S
H1141 C1164 0.950 . S
H1142 C1165 0.950 . S
H1143 C1167 0.950 . S
H1144 C1168 0.950 . S
H1145 C1169 0.951 . S
H1146 C1171 0.951 . S
H1147 C1173 0.950 . S
H1148 C1174 0.950 . S
H1149 C1176 0.950 . S
H1150 C1179 0.950 . S
H1151 C1180 0.950 . S
H1152 C1182 0.950 . S
H1153 C1183 0.950 . S
C1154 H1136 0.951 . S
C1154 C1155 1.366 . S
C1154 C1156 1.388 . S
C1155 C1154 1.366 . S
C1155 C1159 1.385 . S
C1156 H1137 0.951 . S
C1156 C1154 1.388 . S
C1156 C1157 1.366 . S
C1157 C1156 1.366 . S
C1157 C1158 1.414 . S
C1157 C1160 1.499 . S
C1158 H1138 0.950 . S
C1158 C1157 1.414 . S
C1158 C1159 1.374 . S
C1159 H1139 0.950 . S
C1159 C1155 1.385 . S
C1159 C1158 1.374 . S
C1160 C1157 1.499 . S
C1160 C1161 1.373 . S
C1160 C1162 1.389 . S
C1161 H1140 0.950 . S
C1161 C1160 1.373 . S
C1161 C1177 1.377 . S
C1162 C1160 1.389 . S
C1162 C1163 1.524 . S
C1162 C1176 1.377 . S
C1163 C1162 1.524 . S
C1163 C1164 1.397 . S
C1163 C1168 1.363 . S
C1164 H1141 0.950 . S
C1164 C1163 1.397 . S
C1164 C1165 1.334 . S
C1165 H1142 0.950 . S
C1165 C1164 1.334 . S
C1165 C1166 1.287 . S
C1166 C1165 1.287 . S
C1166 C1167 1.524 . S
C1166 H1185 0.913 . S
C1167 H1143 0.950 . S
C1167 C1166 1.524 . S
C1167 C1168 1.415 . S
C1168 H1144 0.950 . S
C1168 C1163 1.363 . S
C1168 C1167 1.415 . S
C1169 H1145 0.951 . S
C1169 C1170 1.366 . S
C1169 C1171 1.388 1_554 S
C1170 C1169 1.366 . S
C1170 C1174 1.385 . S
C1171 H1146 0.951 . S
C1171 C1169 1.388 1_556 S
C1171 C1172 1.366 . S
C1172 C1171 1.366 . S
C1172 C1173 1.414 . S
C1172 C1175 1.499 . S
C1173 H1147 0.950 . S
C1173 C1172 1.414 . S
C1173 C1174 1.374 1_556 S
C1174 H1148 0.950 . S
C1174 C1170 1.385 . S
C1174 C1173 1.374 1_554 S
C1175 C1172 1.499 . S
C1175 C1176 1.373 . S
C1175 C1177 1.389 . S
C1176 H1149 0.950 . S
C1176 C1162 1.377 . S
C1176 C1175 1.373 . S
C1177 C1161 1.377 . S
C1177 C1175 1.389 . S
C1177 C1178 1.524 . S
C1178 C1177 1.524 . S
C1178 C1179 1.397 . S
C1178 C1183 1.363 . S
C1179 H1150 0.950 . S
C1179 C1178 1.397 . S
C1179 C1180 1.334 . S
C1180 H1151 0.950 . S
C1180 C1179 1.334 . S
C1180 C1181 1.287 . S
C1181 C1180 1.287 . S
C1181 C1182 1.524 . S
C1181 H1184 0.999 . S
C1182 H1152 0.950 . S
C1182 C1181 1.524 . S
C1182 C1183 1.415 . S
C1183 H1153 0.950 . S
C1183 C1178 1.363 . S
C1183 C1182 1.415 . S
H1184 C1181 0.999 . S
H1185 C1166 0.913 . S
H1186 C1204 0.951 . S
H1187 C1206 0.951 . S
H1188 C1208 0.950 . S
H1189 C1209 0.950 . S
H1190 C1211 0.950 . S
H1191 C1214 0.950 . S
H1192 C1215 0.950 . S
H1193 C1217 0.950 . S
H1194 C1218 0.950 . S
H1195 C1219 0.951 . S
H1196 C1221 0.951 . S
H1197 C1223 0.950 . S
H1198 C1224 0.950 . S
H1199 C1226 0.950 . S
H1200 C1229 0.950 . S
H1201 C1230 0.950 . S
H1202 C1232 0.950 . S
H1203 C1233 0.950 . S
C1204 H1186 0.951 . S
C1204 C1205 1.366 . S
C1204 C1206 1.388 . S
C1205 C1204 1.366 . S
C1205 C1209 1.385 1_455 S
C1206 H1187 0.951 . S
C1206 C1204 1.388 . S
C1206 C1207 1.366 . S
C1207 C1206 1.366 . S
C1207 C1208 1.414 1_455 S
C1207 C1210 1.499 . S
C1208 H1188 0.950 . S
C1208 C1207 1.414 1_655 S
C1208 C1209 1.374 . S
C1209 H1189 0.950 . S
C1209 C1205 1.385 1_655 S
C1209 C1208 1.374 . S
C1210 C1207 1.499 . S
C1210 C1211 1.373 1_455 S
C1210 C1212 1.389 . S
C1211 H1190 0.950 . S
C1211 C1210 1.373 1_655 S
C1211 C1227 1.377 . S
C1212 C1210 1.389 . S
C1212 C1213 1.524 . S
C1212 C1226 1.377 . S
C1213 C1212 1.524 . S
C1213 C1214 1.397 . S
C1213 C1218 1.363 . S
C1214 H1191 0.950 . S
C1214 C1213 1.397 . S
C1214 C1215 1.334 . S
C1215 H1192 0.950 . S
C1215 C1214 1.334 . S
C1215 C1216 1.287 . S
C1216 C1215 1.287 . S
C1216 C1217 1.524 . S
C1216 H1235 0.913 . S
C1217 H1193 0.950 . S
C1217 C1216 1.524 . S
C1217 C1218 1.415 . S
C1218 H1194 0.950 . S
C1218 C1213 1.363 . S
C1218 C1217 1.415 . S
C1219 H1195 0.951 . S
C1219 C1220 1.364 . S
C1219 C1221 1.388 . S
C1220 C1219 1.364 . S
C1220 C1224 1.386 1_655 S
C1221 H1196 0.951 . S
C1221 C1219 1.388 . S
C1221 C1222 1.366 1_655 S
C1222 C1221 1.366 1_455 S
C1222 C1223 1.414 . S
C1222 C1225 1.499 . S
C1223 H1197 0.950 . S
C1223 C1222 1.414 . S
C1223 C1224 1.374 . S
C1224 H1198 0.950 . S
C1224 C1220 1.386 1_455 S
C1224 C1223 1.374 . S
C1225 C1222 1.499 . S
C1225 C1226 1.373 . S
C1225 C1227 1.389 1_455 S
C1226 H1199 0.950 . S
C1226 C1212 1.377 . S
C1226 C1225 1.373 . S
C1227 C1211 1.377 . S
C1227 C1225 1.389 1_655 S
C1227 C1228 1.524 . S
C1228 C1227 1.524 . S
C1228 C1229 1.397 . S
C1228 C1233 1.363 . S
C1229 H1200 0.950 . S
C1229 C1228 1.397 . S
C1229 C1230 1.334 . S
C1230 H1201 0.950 . S
C1230 C1229 1.334 . S
C1230 C1231 1.287 . S
C1231 C1230 1.287 . S
C1231 C1232 1.524 . S
C1231 H1234 0.999 . S
C1232 H1202 0.950 . S
C1232 C1231 1.524 . S
C1232 C1233 1.415 . S
C1233 H1203 0.950 . S
C1233 C1228 1.363 . S
C1233 C1232 1.415 . S
H1234 C1231 0.999 . S
H1235 C1216 0.913 . S
C355 C6 0.420 . S
C370 C325 0.403 . S
C405 C59 1.847 . S
C420 C253 1.799 . S
C455 C86 1.140 . S
C470 C289 1.132 . S
C505 C15 0.313 . S
C520 C301 0.206 . S
C570 C229 1.929 . S
C555 C50 1.937 . S
C620 C265 1.251 . S
C605 C95 1.249 . S
C655 C46 1.137 . S
C670 C181 1.132 . S
C705 C99 3.058 . S
C720 C193 3.030 . S
C755 C10 1.964 . S
C770 C121 1.961 . S
C820 C157 1.234 . S
C805 C55 1.227 . S
C870 C217 2.896 . S
C855 C90 2.930 . S
C905 C19 1.837 . S
C920 C145 1.796 . S
C970 C223 1.760 . S
C955 C18 1.692 . S
C1005 C49 1.331 . S
C1020 C151 1.373 . S
C1055 C98 1.450 . S
C1070 C187 1.504 . S
C1120 C295 1.483 1_565 S
C1105 C58 1.439 . S
C1170 C331 1.106 . S
C1155 C89 1.083 . S
C1205 C9 1.326 . S
C1220 C259 1.364 1_655 S
