# Generated by pormake.
# Topology zzz, (3,6)-cn, num edge types: 1
# Building blocks:
#     Node 0, Type 0, BuildingBlock: VETTIZ_charged_linker_0, # of connection points: 3
#     Node 1, Type 0, BuildingBlock: VETTIZ_charged_linker_0, # of connection points: 3
#     Node 2, Type 0, BuildingBlock: VETTIZ_charged_linker_0, # of connection points: 3
#     Node 3, Type 0, BuildingBlock: VETTIZ_charged_linker_0, # of connection points: 3
#     Node 4, Type 0, BuildingBlock: VETTIZ_charged_linker_0, # of connection points: 3
#     Node 5, Type 0, BuildingBlock: VETTIZ_charged_linker_0, # of connection points: 3
#     Node 6, Type 0, BuildingBlock: VETTIZ_charged_linker_0, # of connection points: 3
#     Node 7, Type 0, BuildingBlock: VETTIZ_charged_linker_0, # of connection points: 3
#     Node 8, Type 1, BuildingBlock: BETDAH_clean_sbu_0, # of connection points: 6
#     Node 9, Type 1, BuildingBlock: BETDAH_clean_sbu_0, # of connection points: 6
#     Node 10, Type 1, BuildingBlock: BETDAH_clean_sbu_0, # of connection points: 6
#     Node 11, Type 1, BuildingBlock: BETDAH_clean_sbu_0, # of connection points: 6
#     Edge 12, Type (0, 1), BuildingBlock: KIFKEQ_clean_linker_1, # of connection points: 2
#     Edge 13, Type (0, 1), BuildingBlock: KIFKEQ_clean_linker_1, # of connection points: 2
#     Edge 14, Type (0, 1), BuildingBlock: KIFKEQ_clean_linker_1, # of connection points: 2
#     Edge 15, Type (0, 1), BuildingBlock: KIFKEQ_clean_linker_1, # of connection points: 2
#     Edge 16, Type (0, 1), BuildingBlock: KIFKEQ_clean_linker_1, # of connection points: 2
#     Edge 17, Type (0, 1), BuildingBlock: KIFKEQ_clean_linker_1, # of connection points: 2
#     Edge 18, Type (0, 1), BuildingBlock: KIFKEQ_clean_linker_1, # of connection points: 2
#     Edge 19, Type (0, 1), BuildingBlock: KIFKEQ_clean_linker_1, # of connection points: 2
#     Edge 20, Type (0, 1), BuildingBlock: KIFKEQ_clean_linker_1, # of connection points: 2
#     Edge 21, Type (0, 1), BuildingBlock: KIFKEQ_clean_linker_1, # of connection points: 2
#     Edge 22, Type (0, 1), BuildingBlock: KIFKEQ_clean_linker_1, # of connection points: 2
#     Edge 23, Type (0, 1), BuildingBlock: KIFKEQ_clean_linker_1, # of connection points: 2
#     Edge 24, Type (0, 1), BuildingBlock: KIFKEQ_clean_linker_1, # of connection points: 2
#     Edge 25, Type (0, 1), BuildingBlock: KIFKEQ_clean_linker_1, # of connection points: 2
#     Edge 26, Type (0, 1), BuildingBlock: KIFKEQ_clean_linker_1, # of connection points: 2
#     Edge 27, Type (0, 1), BuildingBlock: KIFKEQ_clean_linker_1, # of connection points: 2
#     Edge 28, Type (0, 1), BuildingBlock: KIFKEQ_clean_linker_1, # of connection points: 2
#     Edge 29, Type (0, 1), BuildingBlock: KIFKEQ_clean_linker_1, # of connection points: 2
#     Edge 30, Type (0, 1), BuildingBlock: KIFKEQ_clean_linker_1, # of connection points: 2
#     Edge 31, Type (0, 1), BuildingBlock: KIFKEQ_clean_linker_1, # of connection points: 2
#     Edge 32, Type (0, 1), BuildingBlock: KIFKEQ_clean_linker_1, # of connection points: 2
#     Edge 33, Type (0, 1), BuildingBlock: KIFKEQ_clean_linker_1, # of connection points: 2
#     Edge 34, Type (0, 1), BuildingBlock: KIFKEQ_clean_linker_1, # of connection points: 2
#     Edge 35, Type (0, 1), BuildingBlock: KIFKEQ_clean_linker_1, # of connection points: 2
# Relax obj value: 0.450
# Max RMSD: 0.276
# Mean RMSD: 0.258
data_MOF--net-zzz--node1-BETDAH_clean_sbu_0--node2-VETTIZ_charged_linker_0--edge1-KIFKEQ_clean_linker_1
_symmetry_space_group_name_H-M    P1
_symmetry_Int_Tables_number       1
_symmetry_cell_setting            triclinic
loop_
_symmetry_equiv_pos_as_xyz
'x, y, z'
_cell_length_a     59.553427
_cell_length_b     59.51024
_cell_length_c     18.277809
_cell_angle_alpha  90.000056
_cell_angle_beta   89.987612
_cell_angle_gamma 89.95949
loop_
_atom_site_label
_atom_site_type_symbol
_atom_site_fract_x
_atom_site_fract_y
_atom_site_fract_z
_atom_type_partial_charge
C0 C 0.79293 0.52255 0.29893 0.0
C1 C 0.81664 0.52115 0.29217 0.0
C2 C 0.82628 0.52344 0.22231 0.0
C3 C 0.78957 0.52571 0.16642 0.0
C4 C 0.77964 0.52488 0.23475 0.0
C5 C 0.75416 0.5262 0.2282 0.0
H6 H 0.66381 0.53232 0.99265 0.0
C7 C 0.77189 0.52653 0.10998 0.0
C8 C 0.75081 0.52726 0.14503 0.0
H9 H 0.65956 0.53025 0.22777 0.0
H10 H 0.70076 0.52879 0.23595 0.0
H11 H 0.70584 0.56525 0.9751 0.0
H12 H 0.69558 0.49412 0.98344 0.0
H13 H 0.71939 0.49701 0.92819 0.0
H14 H 0.69309 0.50931 0.89933 0.0
H15 H 0.69264 0.54915 0.90408 0.0
H16 H 0.72257 0.55356 0.90546 0.0
C17 C 0.74606 0.54785 0.26621 0.0
C18 C 0.74389 0.50472 0.26129 0.0
C19 C 0.79405 0.51441 0.84458 0.0
C20 C 0.78129 0.51047 0.78121 0.0
C21 C 0.75798 0.51393 0.7829 0.0
C22 C 0.7474 0.52048 0.84794 0.0
C23 C 0.76018 0.52282 0.91245 0.0
C24 C 0.78316 0.52023 0.90964 0.0
C25 C 0.7939 0.52204 0.98391 0.0
C26 C 0.7734 0.52534 0.03243 0.0
C27 C 0.75388 0.52591 0.99014 0.0
C28 C 0.80942 0.543 0.98385 0.0
C29 C 0.80604 0.49946 0.99982 0.0
C30 C 0.67171 0.53197 0.04612 0.0
C31 C 0.65865 0.53184 0.10934 0.0
C32 C 0.66946 0.53063 0.17808 0.0
C33 C 0.69327 0.52976 0.18261 0.0
C34 C 0.70616 0.52972 0.11769 0.0
C35 C 0.69498 0.53067 0.05127 0.0
C36 C 0.71017 0.52858 0.98699 0.0
C37 C 0.73268 0.52751 0.02434 0.0
C38 C 0.73076 0.5281 0.10134 0.0
C39 C 0.70769 0.55012 0.9398 0.0
C40 C 0.7043 0.50625 0.94684 0.0
H41 H 0.82167 0.52707 0.10897 0.0
H42 H 0.78502 0.52121 0.35208 0.0
H43 H 0.75255 0.48956 0.23954 0.0
H44 H 0.72596 0.50283 0.24764 0.0
H45 H 0.74564 0.50468 0.32182 0.0
H46 H 0.75605 0.56253 0.24721 0.0
H47 H 0.74804 0.5465 0.3265 0.0
H48 H 0.72834 0.55169 0.25398 0.0
H49 H 0.81201 0.51143 0.84478 0.0
H50 H 0.74794 0.51092 0.73448 0.0
H51 H 0.72956 0.52271 0.84575 0.0
H52 H 0.80437 0.55538 0.94129 0.0
H53 H 0.82716 0.53831 0.97293 0.0
H54 H 0.80851 0.55249 0.03594 0.0
H55 H 0.79581 0.48502 0.98027 0.0
H56 H 0.80872 0.49619 0.0585 0.0
H57 H 0.82254 0.4987 0.97153 0.0
H58 H 0.84436 0.52306 0.21559 0.0
C59 C 0.81302 0.52581 0.16009 0.0
C60 C 0.05734 0.76834 0.91922 0.0
C61 C 0.05216 0.78929 0.88818 0.0
C62 C 0.03696 0.80367 0.9244 0.0
C63 C 0.03372 0.77717 0.02368 0.0
C64 C 0.04739 0.76237 0.98611 0.0
C65 C 0.05 0.74035 0.02581 0.0
H66 H 0.98445 0.67088 0.19415 0.0
C67 C 0.02708 0.76663 0.09309 0.0
C68 C 0.03574 0.74473 0.09403 0.0
H69 H 0.04506 0.6566 0.07078 0.0
H70 H 0.05804 0.69445 0.09233 0.0
H71 H 0.01666 0.71297 0.32908 0.0
H72 H 0.97326 0.72483 0.14113 0.0
H73 H 0.96682 0.73642 0.22973 0.0
H74 H 0.96312 0.70684 0.21339 0.0
H75 H 0.99308 0.69433 0.31809 0.0
H76 H 0.98808 0.72299 0.3397 0.0
C77 C 0.07503 0.73731 0.04563 0.0
C78 C 0.04075 0.72123 0.97634 0.0
C79 C 0.99259 0.81377 0.29292 0.0
C80 C 0.99188 0.81022 0.36882 0.0
C81 C 0.99592 0.78827 0.39575 0.0
C82 C 1.00021 0.77022 0.34724 0.0
C83 C 1.00021 0.77413 0.27145 0.0
C84 C 0.99776 0.7959 0.24592 0.0
C85 C 1.00584 0.79835 0.16825 0.0
C86 C 0.01454 0.77481 0.15332 0.0
C87 C 1.00932 0.76032 0.21114 0.0
C88 C 0.02495 0.81609 0.16689 0.0
C89 C 0.98541 0.80424 0.11936 0.0
C90 C 1.00042 0.67595 0.17125 0.0
C91 C 1.0132 0.6608 0.12778 0.0
C92 C 0.0345 0.66777 0.1025 0.0
C93 C 0.04178 0.68981 0.1124 0.0
C94 C 0.02751 0.70522 0.14606 0.0
C95 C 1.0085 0.69808 0.18207 0.0
C96 C 0.99827 0.71729 0.22587 0.0
C97 C 0.01368 0.73692 0.20424 0.0
C98 C 0.02884 0.72968 0.15016 0.0
C99 C 0.9992 0.71169 0.30795 0.0
C100 C 0.97393 0.72158 0.20101 0.0
H101 H 0.01663 0.80956 0.01726 0.0
H102 H 0.06886 0.75696 0.89214 0.0
H103 H 0.04106 0.72576 0.91737 0.0
H104 H 0.02302 0.71718 0.99003 0.0
H105 H 0.05102 0.70577 0.97989 0.0
H106 H 0.08218 0.75323 0.06746 0.0
H107 H 0.08494 0.73237 0.99666 0.0
H108 H 0.07756 0.72456 0.08876 0.0
H109 H 0.99108 0.83061 0.27095 0.0
H110 H 0.99648 0.78529 0.45416 0.0
H111 H 1.00527 0.75424 0.36942 0.0
H112 H 0.03642 0.81368 0.2143 0.0
H113 H 0.01805 0.8334 0.16999 0.0
H114 H 0.03579 0.81503 0.11823 0.0
H115 H 0.96946 0.79784 0.14327 0.0
H116 H 0.9864 0.79626 0.06474 0.0
H117 H 0.9836 0.82271 0.11263 0.0
H118 H 0.03292 0.82004 0.90199 0.0
C119 C 0.02771 0.79771 0.99178 0.0
C120 C 0.8153 1.01375 0.12904 0.0
C121 C 0.831 0.025 0.08356 0.0
C122 C 0.82629 0.04717 0.06142 0.0
C123 C 0.79148 0.04702 0.12923 0.0
C124 C 0.7957 0.0253 0.15221 0.0
C125 C 0.77712 0.01702 0.20266 0.0
H126 H 0.68115 0.04533 0.39235 0.0
C127 C 0.77054 0.055 0.16322 0.0
C128 C 0.7621 0.03786 0.20883 0.0
H129 H 0.71052 0.97917 0.38211 0.0
H130 H 0.74063 0.99361 0.30358 0.0
H131 H 0.72766 0.07454 0.40132 0.0
H132 H 0.6795 0.05331 0.24609 0.0
H133 H 0.69259 0.07479 0.19671 0.0
H134 H 0.67836 0.08119 0.28142 0.0
H135 H 0.69971 0.08532 0.39017 0.0
H136 H 0.7233 0.0976 0.34264 0.0
C137 C 0.78739 1.01039 0.27696 0.0
C138 C 0.76492 0.99743 0.16434 0.0
C139 C 0.73205 0.12515 0.06873 0.0
C140 C 0.71081 0.13427 0.08652 0.0
C141 C 0.70213 0.12985 0.1572 0.0
C142 C 0.71208 0.11384 0.20253 0.0
C143 C 0.73062 0.10172 0.17693 0.0
C144 C 0.74144 0.10857 0.11418 0.0
C145 C 0.76178 0.09424 0.09856 0.0
C146 C 0.75906 0.07581 0.15614 0.0
C147 C 0.74062 0.08029 0.20096 0.0
C148 C 0.78302 0.10882 0.1119 0.0
C149 C 0.75985 0.08481 0.01976 0.0
C150 C 0.69425 0.0339 0.37462 0.0
C151 C 0.69364 1.01124 0.39465 0.0
C152 C 0.71064 0.99681 0.36766 0.0
C153 C 0.72804 1.0052 0.32207 0.0
C154 C 0.72809 0.02811 0.30183 0.0
C155 C 0.71105 0.04177 0.32799 0.0
C156 C 0.71167 0.06495 0.29694 0.0
C157 C 0.7321 0.06342 0.24807 0.0
C158 C 0.74224 0.042 0.25132 0.0
C159 C 0.71563 0.08163 0.36083 0.0
C160 C 0.68948 0.06894 0.25333 0.0
H161 H 0.80442 0.07489 0.06462 0.0
H162 H 0.81842 0.99669 0.14695 0.0
H163 H 0.76136 1.0017 0.10623 0.0
H164 H 0.74854 0.99362 0.1895 0.0
H165 H 0.77541 0.98198 0.16514 0.0
H166 H 0.79811 0.02421 0.29828 0.0
H167 H 0.79799 0.99511 0.27141 0.0
H168 H 0.77445 1.00707 0.31876 0.0
H169 H 0.7402 0.12922 0.01756 0.0
H170 H 0.68632 0.13677 0.17547 0.0
H171 H 0.7039 0.11033 0.2534 0.0
H172 H 0.77911 0.12483 0.14071 0.0
H173 H 0.79134 0.11341 0.0596 0.0
H174 H 0.79537 0.10016 0.1476 0.0
H175 H 0.74275 0.07791 0.01013 0.0
H176 H 0.77166 0.07095 1.00865 0.0
H177 H 0.76295 0.09819 0.97861 0.0
H178 H 0.8377 0.05608 0.02547 0.0
C179 C 0.80685 0.05815 0.08407 0.0
C180 C 0.52368 0.71648 0.41385 0.0
C181 C 0.53441 0.69793 0.44824 0.0
C182 C 0.55757 0.69466 0.43655 0.0
C183 C 0.55771 0.72386 0.34541 0.0
C184 C 0.53614 0.72984 0.36404 0.0
C185 C 0.52977 0.7518 0.32638 0.0
H186 H 0.55529 0.82479 0.04598 0.0
C187 C 0.56524 0.73774 0.28409 0.0
C188 C 0.54961 0.75516 0.27375 0.0
H189 H 0.50434 0.83507 0.21101 0.0
H190 H 0.51415 0.79914 0.26673 0.0
H191 H 0.59503 0.80693 0.151 0.0
H192 H 0.54453 0.77742 0.01637 0.0
H193 H 0.56443 0.75582 0.02419 0.0
H194 H 0.57217 0.78208 0.98163 0.0
H195 H 0.59392 0.80788 0.05279 0.0
H196 H 0.60754 0.78505 0.09976 0.0
C197 C 0.52889 0.77032 0.38543 0.0
C198 C 0.50738 0.74886 0.28534 0.0
C199 C 0.61393 0.69852 0.09886 0.0
C200 C 0.61687 0.70279 0.02382 0.0
C201 C 0.61429 0.72502 0.99848 0.0
C202 C 0.60568 0.74175 0.04479 0.0
C203 C 0.59907 0.73601 0.11632 0.0
C204 C 0.60427 0.715 0.14341 0.0
C205 C 0.59477 0.71108 0.21859 0.0
C206 C 0.58155 0.73282 0.22985 0.0
C207 C 0.584 0.74715 0.16962 0.0
C208 C 0.61455 0.70843 0.27326 0.0
C209 C 0.57922 0.69017 0.21547 0.0
C210 C 0.54659 0.81988 0.09548 0.0
C211 C 0.52942 0.83335 0.1248 0.0
C212 C 0.51781 0.82528 0.18719 0.0
C213 C 0.52372 0.80458 0.22027 0.0
C214 C 0.54151 0.7918 0.19115 0.0
C215 C 0.55241 0.79962 0.12931 0.0
C216 C 0.57023 0.78385 0.10272 0.0
C217 C 0.5699 0.76626 0.16254 0.0
C218 C 0.55272 0.77047 0.214 0.0
C219 C 0.59294 0.79651 0.1009 0.0
C220 C 0.56265 0.77432 0.02735 0.0
H221 H 0.58685 0.70471 0.37928 0.0
H222 H 0.50625 0.72028 0.4252 0.0
H223 H 0.50832 0.7342 0.24773 0.0
H224 H 0.50318 0.76375 0.25198 0.0
H225 H 0.49338 0.74597 0.32439 0.0
H226 H 0.54323 0.76863 0.42405 0.0
H227 H 0.51311 0.76916 0.41771 0.0
H228 H 0.5303 0.78735 0.3623 0.0
H229 H 0.6161 0.68175 0.12051 0.0
H230 H 0.61702 0.72896 0.94131 0.0
H231 H 0.60304 0.75808 0.02157 0.0
H232 H 0.63124 0.70921 0.24604 0.0
H233 H 0.61394 0.69194 0.30173 0.0
H234 H 0.61455 0.72203 0.3149 0.0
H235 H 0.56639 0.69217 0.17172 0.0
H236 H 0.57018 0.68701 0.26689 0.0
H237 H 0.58897 0.67465 0.20422 0.0
H238 H 0.56647 0.68115 0.46381 0.0
C239 C 0.5693 0.7078 0.38638 0.0
C240 C 0.31771 0.50658 0.25658 0.0
C241 C 0.33315 0.51952 0.29825 0.0
C242 C 0.32766 0.54204 0.3147 0.0
C243 C 0.29052 0.53663 0.26651 0.0
C244 C 0.2966 0.51604 0.23845 0.0
C245 C 0.27742 0.50618 0.19371 0.0
H246 H 0.16516 0.5074 0.1236 0.0
C247 C 0.26642 0.5399 0.25645 0.0
C248 C 0.25895 0.5239 0.20535 0.0
H249 H 0.21428 0.50363 0.95064 0.0
H250 H 0.24424 0.51224 0.03958 0.0
H251 H 0.1936 0.48666 0.26386 0.0
H252 H 0.18467 0.55255 0.17189 0.0
H253 H 0.18171 0.55468 0.26736 0.0
H254 H 0.16276 0.53712 0.2171 0.0
H255 H 0.16942 0.50343 0.28471 0.0
H256 H 0.19496 0.50546 0.3378 0.0
C257 C 0.27039 0.48325 0.22534 0.0
C258 C 0.28466 0.50391 0.11329 0.0
C259 C 0.22671 0.57561 0.47437 0.0
C260 C 0.20507 0.57246 0.50289 0.0
C261 C 0.18982 0.55849 0.46547 0.0
C262 C 0.19582 0.54809 0.39989 0.0
C263 C 0.21735 0.55165 0.37117 0.0
C264 C 0.23271 0.56447 0.40949 0.0
C265 C 0.25545 0.56454 0.37351 0.0
C266 C 0.25102 0.5494 0.30733 0.0
C267 C 0.22845 0.54274 0.30542 0.0
C268 C 0.27295 0.55475 0.42797 0.0
C269 C 0.2608 0.58886 0.34976 0.0
C270 C 0.18246 0.50692 0.10527 0.0
C271 C 0.18742 0.50367 0.0309 0.0
C272 C 0.21011 0.50507 1.00812 0.0
C273 C 0.22746 0.50926 0.05929 0.0
C274 C 0.22209 0.51179 0.13368 0.0
C275 C 0.19975 0.51191 0.15467 0.0
C276 C 0.19654 0.5222 0.22923 0.0
C277 C 0.22039 0.52934 0.24701 0.0
C278 C 0.23544 0.52135 0.19431 0.0
C279 C 0.18805 0.50364 0.28189 0.0
C280 C 0.18051 0.54266 0.22173 0.0
H281 H 0.30293 0.56785 0.31168 0.0
H282 H 0.3218 0.48958 0.24026 0.0
H283 H 0.28565 0.52065 0.0865 0.0
H284 H 0.27287 0.49303 0.08263 0.0
H285 H 0.30143 0.49578 0.10934 0.0
H286 H 0.26588 0.48484 0.28416 0.0
H287 H 0.28426 0.47085 0.22025 0.0
H288 H 0.25557 0.47655 0.19555 0.0
H289 H 0.23871 0.58622 0.50244 0.0
H290 H 0.17293 0.55607 0.4861 0.0
H291 H 0.18337 0.53791 0.37363 0.0
H292 H 0.27532 0.53641 0.4196 0.0
H293 H 0.26785 0.55706 0.48594 0.0
H294 H 0.28938 0.56333 0.42394 0.0
H295 H 0.24593 0.59681 0.32354 0.0
H296 H 0.27443 0.58958 0.30886 0.0
H297 H 0.26566 0.59925 0.39774 0.0
H298 H 0.33927 0.55265 0.34445 0.0
C299 C 0.30651 0.55068 0.2981 0.0
C300 C 0.04517 0.24783 0.47569 0.0
C301 C 0.05651 0.22745 0.48888 0.0
C302 C 0.06435 0.21517 0.42742 0.0
C303 C 0.04436 0.23998 0.3455 0.0
C304 C 0.03867 0.25335 0.40433 0.0
C305 C 0.02219 0.27143 0.38405 0.0
H306 H 1.01042 0.34735 0.13983 0.0
C307 C 0.03234 0.24844 0.2805 0.0
C308 C 0.01962 0.26709 0.30222 0.0
H309 H 0.98342 0.34671 0.36007 0.0
H310 H 0.98545 0.30624 0.36179 0.0
H311 H 0.04776 0.30254 0.14607 0.0
H312 H 0.97788 0.29084 0.0873 0.0
H313 H 1.00016 0.29013 0.01954 0.0
H314 H 0.9905 0.31634 0.05376 0.0
H315 H 0.0357 0.31906 0.07321 0.0
H316 H 0.04022 0.28937 0.06082 0.0
C317 C 0.03281 0.29458 0.40203 0.0
C318 C 0.99994 0.26694 0.4257 0.0
C319 C 0.03059 0.20302 0.04737 0.0
C320 C 0.01566 0.20361 0.98773 0.0
C321 C 1.00203 0.22297 0.97894 0.0
C322 C 1.00339 0.2412 0.02855 0.0
C323 C 0.01885 0.24039 0.08653 0.0
C324 C 0.03133 0.221 0.09704 0.0
C325 C 0.04117 0.21986 0.17289 0.0
C326 C 0.03167 0.24112 0.20667 0.0
C327 C 0.02023 0.25401 0.15426 0.0
C328 C 0.06704 0.22093 0.16608 0.0
C329 C 0.0322 0.19834 0.21113 0.0
C330 C 1.00498 0.33841 0.18824 0.0
C331 C 0.99774 0.35031 0.25148 0.0
C332 C 0.98967 0.3381 0.31194 0.0
C333 C 0.99132 0.31479 0.31387 0.0
C334 C 1.00138 0.30361 0.2554 0.0
C335 C 1.00555 0.31458 0.19055 0.0
C336 C 1.01153 0.29761 0.13098 0.0
C337 C 1.01117 0.27536 0.17416 0.0
C338 C 1.00846 0.28026 0.24872 0.0
C339 C 0.0352 0.30246 0.10102 0.0
C340 C 0.99394 0.29863 0.06955 0.0
H341 H 0.06412 0.21084 0.31237 0.0
H342 H 0.03956 0.25839 0.52018 0.0
H343 H 0.99739 0.24867 0.43561 0.0
H344 H 0.98501 0.27219 0.39411 0.0
H345 H 0.99987 0.27552 0.4797 0.0
H346 H 0.0436 0.30054 0.35634 0.0
H347 H 0.04347 0.2938 0.45185 0.0
H348 H 0.0201 0.30752 0.41454 0.0
H349 H 0.04016 0.18796 0.059 0.0
H350 H 0.98978 0.22367 0.93524 0.0
H351 H 0.99129 0.25456 0.02434 0.0
H352 H 0.07213 0.23249 0.12122 0.0
H353 H 0.07417 0.2041 0.15368 0.0
H354 H 0.07518 0.22771 0.21569 0.0
H355 H 0.01454 0.1949 0.19469 0.0
H356 H 0.03155 0.19967 0.27121 0.0
H357 H 0.04243 0.18341 0.1963 0.0
H358 H 0.07328 0.19947 0.43352 0.0
C359 C 0.0586 0.22152 0.3561 0.0
C360 C 0.29195 0.01923 0.06083 0.0
C361 C 0.31577 0.0185 0.06195 0.0
C362 C 0.32693 0.02117 0.12905 0.0
C363 C 0.2915 0.02315 0.19356 0.0
C364 C 0.28008 0.02169 0.12786 0.0
C365 C 0.25478 0.02262 0.14034 0.0
H366 H 0.16955 0.02722 0.39622 0.0
C367 C 0.27506 0.02405 0.25398 0.0
C368 C 0.25324 0.02415 0.224 0.0
H369 H 0.16035 0.02529 0.16261 0.0
H370 H 0.20128 0.02451 0.14503 0.0
H371 H 0.20303 0.99022 0.40046 0.0
H372 H 0.21041 0.06171 0.40165 0.0
H373 H 0.22941 0.05132 0.46705 0.0
H374 H 0.19985 0.0456 0.47721 0.0
H375 H 0.20171 1.00592 0.48386 0.0
H376 H 0.2278 0.99443 0.44995 0.0
C377 C 0.24419 1.00077 0.11109 0.0
C378 C 0.24549 0.04389 0.10301 0.0
C379 C 0.3031 1.01298 0.51362 0.0
C380 C 0.29173 1.00869 0.57958 0.0
C381 C 0.26849 1.01251 0.58361 0.0
C382 C 0.25653 0.01924 0.5214 0.0
C383 C 0.26782 0.02144 0.45397 0.0
C384 C 0.29082 0.01897 0.45141 0.0
C385 C 0.29985 0.02057 0.37468 0.0
C386 C 0.27829 0.02343 0.33103 0.0
C387 C 0.25974 0.02397 0.37782 0.0
C388 C 0.31189 0.99806 0.35679 0.0
C389 C 0.31506 0.0417 0.37011 0.0
C390 C 0.1763 0.02687 0.3411 0.0
C391 C 0.16191 0.02653 0.28101 0.0
C392 C 0.17127 0.02565 0.20996 0.0
C393 C 0.19494 0.02523 0.19997 0.0
C394 C 0.2092 0.0255 0.26173 0.0
C395 C 0.19946 0.02623 0.33056 0.0
C396 C 0.21611 0.02517 0.39116 0.0
C397 C 0.2378 0.02471 0.34863 0.0
C398 C 0.23416 0.02478 0.27227 0.0
C399 C 0.21201 1.00295 0.43412 0.0
C400 C 0.21386 0.04695 0.43733 0.0
H401 H 0.32479 0.02523 0.24309 0.0
H402 H 0.28293 0.01744 1.00976 0.0
H403 H 0.25568 0.05882 0.1183 0.0
H404 H 0.22807 0.0476 0.11957 0.0
H405 H 0.24601 0.04214 0.0425 0.0
H406 H 0.25347 0.98589 0.13215 0.0
H407 H 0.24478 1.00031 0.05035 0.0
H408 H 0.22658 0.99878 0.12853 0.0
H409 H 0.32095 1.00973 0.50881 0.0
H410 H 0.25948 1.00924 0.634 0.0
H411 H 0.23878 0.02143 0.52776 0.0
H412 H 0.30243 0.9836 0.37994 0.0
H413 H 0.32907 0.99769 0.38041 0.0
H414 H 0.31308 0.99447 0.29779 0.0
H415 H 0.31067 0.05429 0.41284 0.0
H416 H 0.31301 0.05085 0.31772 0.0
H417 H 0.33303 0.0373 0.37764 0.0
H418 H 0.34513 0.02094 0.13118 0.0
C419 C 0.31504 0.02364 0.19422 0.0
C420 C 0.50348 0.2922 0.05676 0.0
C421 C 0.51377 0.31264 0.03476 0.0
C422 C 0.53457 0.31853 0.06542 0.0
C423 C 0.53436 0.2852 0.14103 0.0
C424 C 0.51439 0.27845 0.1095 0.0
C425 C 0.50733 0.25551 0.13871 0.0
H426 H 0.53177 0.16957 0.37993 0.0
C427 C 0.5411 0.26854 0.19656 0.0
C428 C 0.52563 0.25065 0.19571 0.0
H429 H 0.47759 0.16965 0.2237 0.0
H430 H 0.48831 0.20756 0.1838 0.0
H431 H 0.56985 0.19128 0.28048 0.0
H432 H 0.52243 0.21716 0.43587 0.0
H433 H 0.54545 0.2354 0.44186 0.0
H434 H 0.54896 0.20604 0.46452 0.0
H435 H 0.57063 0.18567 0.37702 0.0
H436 H 0.58429 0.20991 0.33881 0.0
C437 C 0.50803 0.23856 0.07495 0.0
C438 C 0.48393 0.25755 0.17409 0.0
C439 C 0.60335 0.29015 0.37104 0.0
C440 C 0.60982 0.28153 0.43935 0.0
C441 C 0.60244 0.25998 0.46007 0.0
C442 C 0.58766 0.24786 0.41512 0.0
C443 C 0.57966 0.2577 0.34996 0.0
C444 C 0.5879 0.27832 0.32845 0.0
C445 C 0.57594 0.28748 0.2626 0.0
C446 C 0.55871 0.26918 0.24883 0.0
C447 C 0.56118 0.25171 0.29926 0.0
C448 C 0.59326 0.28917 0.19931 0.0
C449 C 0.56478 0.31012 0.28494 0.0
C450 C 0.52232 0.17758 0.33645 0.0
C451 C 0.50421 0.16649 0.30389 0.0
C452 C 0.49183 0.17782 0.24912 0.0
C453 C 0.49818 0.19968 0.22576 0.0
C454 C 0.51693 0.21029 0.25805 0.0
C455 C 0.52829 0.1991 0.3133 0.0
C456 C 0.54699 0.21257 0.34536 0.0
C457 C 0.5463 0.23319 0.29737 0.0
C458 C 0.52855 0.23231 0.2461 0.0
C459 C 0.56918 0.19924 0.33554 0.0
C460 C 0.54086 0.21803 0.42613 0.0
H461 H 0.56048 0.31096 0.13908 0.0
H462 H 0.48763 0.28704 0.03311 0.0
H463 H 0.48356 0.27185 0.21325 0.0
H464 H 0.47931 0.24237 0.20526 0.0
H465 H 0.47086 0.26055 0.13184 0.0
H466 H 0.52407 0.24016 0.04415 0.0
H467 H 0.49399 0.24165 0.0362 0.0
H468 H 0.50715 0.221 0.09377 0.0
H469 H 0.60817 0.30698 0.35472 0.0
H470 H 0.60708 0.25314 0.51287 0.0
H471 H 0.58223 0.23177 0.43465 0.0
H472 H 0.60706 0.27671 0.20579 0.0
H473 H 0.60107 0.30609 0.19712 0.0
H474 H 0.5858 0.28518 0.14533 0.0
H475 H 0.55925 0.30975 0.3431 0.0
H476 H 0.54931 0.31396 0.25422 0.0
H477 H 0.57666 0.32437 0.27876 0.0
H478 H 0.54279 0.33405 0.04976 0.0
C479 C 0.54485 0.30504 0.11774 0.0
Ho480 Ho 1.01233 0.99928 0.73674 0.0
Ho481 Ho 0.98013 0.01396 0.6318 0.0
C482 C 0.99213 0.96262 0.61976 0.0
C483 C 0.03805 0.9778 0.82585 0.0
C484 C 0.05446 0.96029 0.80781 0.0
C485 C 0.06054 0.94426 0.85997 0.0
C486 C 0.07344 0.9257 0.83942 0.0
C487 C 0.08046 0.92289 0.76622 0.0
C488 C 0.07533 0.93974 0.71508 0.0
C489 C 0.06234 0.95823 0.73563 0.0
C490 C 0.03171 0.01706 0.61455 0.0
C491 C 0.99928 0.04933 0.75219 0.0
C492 C 0.96106 0.0393 0.537 0.0
C493 C 0.96719 0.06323 0.52889 0.0
C494 C 0.98937 0.06882 0.50945 0.0
C495 C 0.99857 0.08924 0.53112 0.0
C496 C 0.9857 0.10465 0.57128 0.0
C497 C 0.9627 0.10047 0.58166 0.0
C498 C 0.95351 0.07982 0.56081 0.0
C499 C 0.95989 0.99585 0.75081 0.0
O500 O 1.00302 0.96618 0.68183 0.0
O501 O 0.98252 0.97941 0.58464 0.0
O502 O 0.04278 0.99775 0.80076 0.0
O503 O 0.0171 0.97224 0.81453 0.0
O504 O 0.03812 0.02101 0.68068 0.0
O505 O 0.01532 1.00372 0.61632 0.0
O506 O 0.9932 0.04644 0.68323 0.0
O507 O 1.00426 0.03171 0.79243 0.0
O508 O 0.95156 0.03423 0.59929 0.0
O509 O 0.97667 0.02482 0.51928 0.0
O510 O 0.95378 0.99245 0.68355 0.0
O511 O 0.97675 1.00886 0.75212 0.0
H512 H 0.05441 0.94551 0.91565 0.0
H513 H 0.07663 0.91285 0.88006 0.0
H514 H 0.08054 0.93818 0.65853 0.0
H515 H 0.05765 0.97044 0.69436 0.0
H516 H 1.00039 0.05666 0.48382 0.0
H517 H 0.01614 0.09247 0.51981 0.0
H518 H 0.95232 0.11228 0.61151 0.0
H519 H 0.93636 0.07602 0.57624 0.0
Ho520 Ho 0.51039 1.01313 0.77308 0.0
Ho521 Ho 0.49018 0.98355 0.65212 0.0
C522 C 0.54371 0.99497 0.64822 0.0
C523 C 0.52929 0.03056 0.88601 0.0
C524 C 0.54621 0.04852 0.88714 0.0
C525 C 0.55933 0.05244 0.82457 0.0
C526 C 0.57559 0.06927 0.82449 0.0
C527 C 0.57884 0.0827 0.88665 0.0
C528 C 0.56511 0.07937 0.94837 0.0
C529 C 0.54891 0.06231 0.94865 0.0
C530 C 0.50219 0.0395 0.65269 0.0
C531 C 0.45677 1.00544 0.76669 0.0
C532 C 0.47474 0.95949 0.54742 0.0
C533 C 0.45593 0.94354 0.55463 0.0
C534 C 0.43659 0.94684 0.51237 0.0
C535 C 0.41584 0.9392 0.53776 0.0
C536 C 0.41422 0.92837 0.60606 0.0
C537 C 0.43395 0.92224 0.64274 0.0
C538 C 0.45472 0.92956 0.61676 0.0
C539 C 0.4941 0.9633 0.78566 0.0
O540 O 0.54205 1.00332 0.71501 0.0
O541 O 0.52582 0.98829 0.61086 0.0
O542 O 0.50939 0.03672 0.86324 0.0
O543 O 0.53593 1.01159 0.85679 0.0
O544 O 0.51148 0.04638 0.71235 0.0
O545 O 0.49829 0.01889 0.66046 0.0
O546 O 0.45903 1.00036 0.69651 0.0
O547 O 0.47455 1.00743 0.80986 0.0
O548 O 0.49313 0.95422 0.58288 0.0
O549 O 0.46903 0.98062 0.55642 0.0
O550 O 0.47759 0.96063 0.74087 0.0
O551 O 0.50825 0.97632 0.75647 0.0
H552 H 0.5572 0.04231 0.77585 0.0
H553 H 0.58586 0.07158 0.77615 0.0
H554 H 0.56748 0.0894 0.99723 0.0
H555 H 0.5387 0.05972 0.99698 0.0
H556 H 0.4371 0.95752 0.46437 0.0
H557 H 0.40086 0.94422 0.50835 0.0
H558 H 0.43314 0.91374 0.6951 0.0
H559 H 0.46941 0.92634 0.64999 0.0
Ho560 Ho 0.47838 0.51219 0.78571 0.0
Ho561 Ho 0.5067 0.49699 0.6645 0.0
C562 C 0.4963 0.54786 0.66629 0.0
C563 C 0.46788 0.53564 0.89812 0.0
C564 C 0.48285 0.55345 0.92718 0.0
C565 C 0.50153 0.54747 0.97034 0.0
C566 C 0.52013 0.56168 0.97504 0.0
C567 C 0.52031 0.58224 0.93743 0.0
C568 C 0.50061 0.5894 0.90204 0.0
C569 C 0.48204 0.57517 0.89705 0.0
C570 C 0.45382 0.49795 0.66938 0.0
C571 C 0.48799 0.4598 0.7825 0.0
C572 C 0.52723 0.47685 0.559 0.0
C573 C 0.54482 0.45962 0.56108 0.0
C574 C 0.54881 0.44609 0.49995 0.0
C575 C 0.56495 0.42908 0.50314 0.0
C576 C 0.57746 0.42539 0.56755 0.0
C577 C 0.57355 0.43927 0.62845 0.0
C578 C 0.5573 0.45617 0.62532 0.0
C579 C 0.53017 0.51234 0.78219 0.0
O580 O 0.49395 0.5439 0.73711 0.0
O581 O 0.49702 0.53074 0.62065 0.0
O582 O 0.45915 0.53947 0.83359 0.0
O583 O 0.47572 0.51519 0.90335 0.0
O584 O 0.44766 0.49583 0.73727 0.0
O585 O 0.4718 0.50913 0.66653 0.0
O586 O 0.49748 0.46373 0.71817 0.0
O587 O 0.48012 0.4764 0.82291 0.0
O588 O 0.5332 0.4965 0.58405 0.0
O589 O 0.50754 0.47053 0.58314 0.0
O590 O 0.53584 0.51584 0.71499 0.0
O591 O 0.5131 0.49994 0.78341 0.0
H592 H 0.50266 0.531 0.99529 0.0
H593 H 0.53489 0.55586 1.00394 0.0
H594 H 0.49994 0.60558 0.87501 0.0
H595 H 0.46782 0.58048 0.86435 0.0
H596 H 0.53918 0.44842 0.45023 0.0
H597 H 0.56711 0.41838 0.45573 0.0
H598 H 0.58293 0.43701 0.67865 0.0
H599 H 0.55431 0.46645 0.67332 0.0
Ho600 Ho 0.99155 0.49148 0.71364 0.0
Ho601 Ho 1.0053 0.52815 0.63165 0.0
C602 C 0.95625 0.51336 0.60051 0.0
C603 C 0.96902 0.46124 0.78256 0.0
C604 C 0.94949 0.44903 0.75378 0.0
C605 C 0.93069 0.44578 0.79835 0.0
C606 C 0.90995 0.44058 0.76704 0.0
C607 C 0.90769 0.4386 0.69046 0.0
C608 C 0.92708 0.43967 0.64684 0.0
C609 C 0.94777 0.44499 0.67815 0.0
C610 C 1.01009 0.47839 0.58354 0.0
C611 C 0.04095 0.5058 0.74476 0.0
C612 C 0.02531 0.55932 0.55825 0.0
C613 C 0.04112 0.57663 0.58262 0.0
C614 C 0.05676 0.58539 0.5334 0.0
C615 C 0.07406 0.59917 0.55851 0.0
C616 C 0.07601 0.60448 0.63353 0.0
C617 C 0.05933 0.5968 0.6819 0.0
C618 C 0.04211 0.58286 0.65672 0.0
C619 C 0.98678 0.54131 0.76156 0.0
O620 O 0.95847 0.50435 0.66604 0.0
O621 O 0.97434 0.52056 0.56655 0.0
O622 O 0.98816 0.45707 0.75062 0.0
O623 O 0.96563 0.48275 0.79167 0.0
O624 O 0.01485 0.4699 0.64667 0.0
O625 O 0.99634 0.49426 0.59256 0.0
O626 O 0.03852 0.5162 0.68122 0.0
O627 O 0.02317 0.49716 0.77703 0.0
O628 O 1.00491 0.56127 0.58338 0.0
O629 O 0.03278 0.53871 0.56208 0.0
O630 O 0.98221 0.54985 0.69848 0.0
O631 O 1.00052 0.52542 0.75271 0.0
H632 H 0.93162 0.44911 0.85657 0.0
H633 H 0.89538 0.4402 0.80247 0.0
H634 H 0.92599 0.43799 0.58794 0.0
H635 H 0.96204 0.44764 0.64234 0.0
H636 H 0.0563 0.58063 0.47619 0.0
H637 H 0.08677 0.60428 0.51958 0.0
H638 H 0.06017 0.60066 0.73973 0.0
H639 H 0.03013 0.57616 0.69568 0.0
H640 H 0.13607 0.06269 0.31348 0.0
H641 H 0.13385 0.99064 0.29359 0.0
H642 H 0.10082 0.06215 0.3821 0.0
H643 H 0.09873 0.98985 0.36324 0.0
H644 H 0.03105 0.99594 0.48034 0.0
H645 H 0.0587 0.99957 0.38126 0.0
H646 H 0.09389 0.05001 0.50652 0.0
H647 H 0.0664 0.0464 0.60438 0.0
C648 C 0.12746 0.04682 0.32101 0.0
C649 C 0.13745 0.02676 0.29684 0.0
C650 C 0.10746 0.04643 0.3615 0.0
C651 C 0.09703 0.02591 0.3795 0.0
C652 C 0.10611 1.00598 0.35014 0.0
C653 C 0.12617 1.0064 0.30962 0.0
C654 C 0.04452 1.00803 0.48596 0.0
C655 C 0.04661 0.02081 0.55036 0.0
C656 C 0.06045 1.01003 0.42939 0.0
C657 C 0.07861 0.0251 0.43553 0.0
C658 C 0.08004 0.03847 0.49897 0.0
C659 C 0.06433 0.03629 0.55554 0.0
H660 H 0.53184 0.1305 0.29582 0.0
H661 H 0.46639 0.15034 0.37307 0.0
H662 H 0.52951 0.09591 0.36714 0.0
H663 H 0.46396 0.11542 0.44504 0.0
H664 H 0.46869 0.04172 0.54748 0.0
H665 H 0.46593 0.0695 0.44703 0.0
H666 H 0.53061 0.09622 0.50816 0.0
H667 H 0.53298 0.06933 0.608 0.0
C668 C 0.51658 0.12704 0.32606 0.0
C669 C 0.49931 0.14314 0.32883 0.0
C670 C 0.51529 0.10728 0.36727 0.0
C671 C 0.49668 0.10302 0.41249 0.0
C672 C 0.47847 0.11815 0.41041 0.0
C673 C 0.4798 0.13811 0.36905 0.0
C674 C 0.48241 0.05332 0.5382 0.0
C675 C 0.50112 0.05331 0.58516 0.0
C676 C 0.48076 0.06929 0.48128 0.0
C677 C 0.49811 0.08501 0.46938 0.0
C678 C 0.51707 0.08425 0.51508 0.0
C679 C 0.51842 0.06883 0.57245 0.0
H680 H 0.37543 0.53733 0.29772 0.0
H681 H 0.33749 0.48087 0.37853 0.0
H682 H 0.40589 0.52834 0.38116 0.0
H683 H 0.36845 0.47115 0.46074 0.0
H684 H 0.40965 0.48532 0.6722 0.0
H685 H 0.38271 0.48604 0.57184 0.0
H686 H 0.43558 0.50576 0.42308 0.0
H687 H 0.4623 0.50577 0.52448 0.0
C688 C 0.37393 0.5225 0.33175 0.0
C689 C 0.35392 0.50993 0.33178 0.0
C690 C 0.3915 0.51725 0.37974 0.0
C691 C 0.38966 0.49919 0.42915 0.0
C692 C 0.37035 0.4855 0.42485 0.0
C693 C 0.35271 0.4908 0.37671 0.0
C694 C 0.41556 0.48958 0.6179 0.0
C695 C 0.43807 0.49575 0.60656 0.0
C696 C 0.40011 0.48983 0.55993 0.0
C697 C 0.40677 0.49611 0.48878 0.0
C698 C 0.42961 0.50125 0.47707 0.0
C699 C 0.44501 0.50114 0.53519 0.0
H700 H 0.0369 0.37362 0.25933 0.0
H701 H 0.96521 0.38158 0.27665 0.0
H702 H 0.04231 0.40903 0.32522 0.0
H703 H 0.97042 0.41677 0.34289 0.0
H704 H 0.98492 0.48208 0.45796 0.0
H705 H 0.9835 0.45558 0.35543 0.0
H706 H 0.03654 0.41664 0.45503 0.0
H707 H 0.03797 0.4431 0.55667 0.0
C708 C 0.02229 0.38351 0.27398 0.0
C709 C 1.00063 0.37492 0.26216 0.0
C710 C 0.02536 0.40361 0.31303 0.0
C711 C 1.00681 0.41563 0.34082 0.0
C712 C 0.98513 0.40814 0.32226 0.0
C713 C 0.98209 0.388 0.28372 0.0
C714 C 0.9966 0.46812 0.45702 0.0
C715 C 1.01151 0.46464 0.51566 0.0
C716 C 0.99569 0.45284 0.39845 0.0
C717 C 1.00986 0.43385 0.39669 0.0
C718 C 0.02557 0.43115 0.45363 0.0
C719 C 0.02631 0.44628 0.51235 0.0
H720 H 0.8371 0.98414 0.01507 0.0
H721 H 0.87297 0.04284 0.08851 0.0
H722 H 0.87033 0.97203 0.9464 0.0
H723 H 0.90549 0.03168 0.01778 0.0
H724 H 0.96516 1.00822 0.89473 0.0
H725 H 0.93628 1.00977 0.98964 0.0
H726 H 0.88807 0.98204 0.83759 0.0
H727 H 0.91715 0.97947 0.74497 0.0
C728 C 0.85225 0.99417 0.01793 0.0
C729 C 0.85229 0.01457 0.05664 0.0
C730 C 0.87125 0.98746 0.97756 0.0
C731 C 0.89071 1.00103 0.97476 0.0
C732 C 0.89114 0.02055 0.01829 0.0
C733 C 0.87231 0.02711 0.05876 0.0
C734 C 0.94849 1.00205 0.88228 0.0
C735 C 0.94345 0.99396 0.81198 0.0
C736 C 0.93178 1.00311 0.93653 0.0
C737 C 0.90949 0.99638 0.92165 0.0
C738 C 0.90491 0.98719 0.85221 0.0
C739 C 0.92165 0.98588 0.79847 0.0
H740 H 0.55832 0.86352 0.06084 0.0
H741 H 0.48787 0.85343 0.10605 0.0
H742 H 0.54938 0.89602 0.98677 0.0
H743 H 0.47896 0.88719 0.03624 0.0
H744 H 0.46805 0.9282 0.82728 0.0
H745 H 0.47611 0.89918 0.91644 0.0
H746 H 0.53796 0.93298 0.97333 0.0
H747 H 0.53021 0.96159 0.88029 0.0
C748 C 0.54086 0.86831 0.0556 0.0
C749 C 0.52381 0.85532 0.08843 0.0
C750 C 0.53572 0.88736 0.01377 0.0
C751 C 0.51335 0.8944 1.00413 0.0
C752 C 0.49637 0.88214 0.04047 0.0
C753 C 0.50151 0.86286 0.08172 0.0
C754 C 0.48334 0.92955 0.8591 0.0
C755 C 0.49859 0.94715 0.84614 0.0
C756 C 0.4879 0.91291 0.91111 0.0
C757 C 0.50777 0.91342 0.95285 0.0
C758 C 0.52268 0.93159 0.94162 0.0
C759 C 0.5182 0.94818 0.88865 0.0
H760 H 0.63194 0.5672 0.07435 0.0
H761 H 0.63083 0.49572 0.1105 0.0
H762 H 0.59636 0.56477 1.00822 0.0
H763 H 0.59552 0.49298 0.04303 0.0
H764 H 0.52937 0.49398 0.92016 0.0
H765 H 0.55588 0.50095 0.02043 0.0
H766 H 0.58979 0.55043 0.8873 0.0
H767 H 0.56342 0.54341 0.78815 0.0
C768 C 0.62348 0.55112 0.07119 0.0
C769 C 0.63395 0.5317 0.09867 0.0
C770 C 0.6033 0.54962 0.03204 0.0
C771 C 0.59323 0.5286 0.01869 0.0
C772 C 0.60263 0.50947 0.05236 0.0
C773 C 0.62281 0.51102 0.09174 0.0
C774 C 0.54239 0.50649 0.91291 0.0
C775 C 0.54455 0.51792 0.84597 0.0
C776 C 0.55762 0.51045 0.97023 0.0
C777 C 0.57513 0.52619 0.9622 0.0
C778 C 0.57647 0.53835 0.8962 0.0
C779 C 0.56146 0.53419 0.83886 0.0
H780 H 0.03509 0.62035 0.11766 0.0
H781 H 0.97122 0.65174 0.07335 0.0
H782 H 0.02507 0.58901 0.03952 0.0
H783 H 0.96039 0.61955 0.99849 0.0
H784 H 0.96669 0.58209 0.77808 0.0
H785 H 0.9693 0.60761 0.88108 0.0
H786 H 1.00556 0.55712 1.00368 0.0
H787 H 1.0038 0.53191 0.89811 0.0
C788 C 0.01856 0.62022 0.09295 0.0
C789 C 1.00418 0.63887 0.10063 0.0
C790 C 1.01267 0.60204 0.04827 0.0
C791 C 0.99205 0.60177 0.01059 0.0
C792 C 0.97672 0.61937 0.02449 0.0
C793 C 0.98274 0.63772 0.06871 0.0
C794 C 0.97497 0.57629 0.82736 0.0
C795 C 0.98526 0.55504 0.82946 0.0
C796 C 0.97632 0.59094 0.88714 0.0
C797 C 0.9878 0.58471 0.95142 0.0
C798 C 0.99697 0.56284 0.95493 0.0
C799 C 0.9958 0.54823 0.89459 0.0
H800 H 0.02656 0.23601 0.60345 0.0
H801 H 0.08305 0.19341 0.54854 0.0
H802 H 1.01161 0.20693 0.67968 0.0
H803 H 0.06631 0.1633 0.61765 0.0
H804 H 0.02495 0.10537 0.64819 0.0
H805 H 0.0459 0.13831 0.68841 0.0
H806 H 0.99189 0.18079 0.61034 0.0
H807 H 0.97096 0.14798 0.57351 0.0
C808 C 0.03634 0.2208 0.6082 0.0
C809 C 0.05488 0.21626 0.56225 0.0
C810 C 0.02745 0.20387 0.65227 0.0
C811 C 0.0364 0.18209 0.64844 0.0
C812 C 0.05804 0.17949 0.61854 0.0
C813 C 0.06747 0.19676 0.57699 0.0
C814 C 0.01756 0.12185 0.64066 0.0
C815 C 0.99673 0.12429 0.60518 0.0
C816 C 0.02946 0.14069 0.66432 0.0
C817 C 0.02104 0.16237 0.65098 0.0
C818 C 0.99912 0.16451 0.62224 0.0
C819 C 0.98709 0.14566 0.59985 0.0
H820 H 0.33072 0.01982 0.64828 0.0
H821 H 0.27986 0.96838 0.63643 0.0
H822 H 0.35694 0.99274 0.69913 0.0
H823 H 0.30619 0.94111 0.68752 0.0
H824 H 0.37301 0.91431 0.55908 0.0
H825 H 0.33754 0.93013 0.60021 0.0
H826 H 0.37132 0.96187 0.78199 0.0
H827 H 0.40681 0.94594 0.74081 0.0
C828 C 0.32482 1.00301 0.66048 0.0
C829 C 0.30352 0.99602 0.63729 0.0
C830 C 0.33977 0.98747 0.6902 0.0
C831 C 0.33371 0.9647 0.69608 0.0
C832 C 0.31132 0.95851 0.683 0.0
C833 C 0.29625 0.97415 0.65398 0.0
C834 C 0.37261 0.92364 0.60996 0.0
C835 C 0.39263 0.92925 0.64584 0.0
C836 C 0.35227 0.93263 0.63401 0.0
C837 C 0.35179 0.94764 0.69355 0.0
C838 C 0.37128 0.95049 0.73569 0.0
C839 C 0.39159 0.94128 0.71208 0.0
H840 H 0.59207 0.29143 0.57133 0.0
H841 H 0.64681 0.30865 0.42751 0.0
H842 H 0.59406 0.32807 0.62718 0.0
H843 H 0.64982 0.34534 0.48628 0.0
H844 H 0.60619 0.41011 0.46196 0.0
H845 H 0.62479 0.37407 0.45815 0.0
H846 H 0.60496 0.36146 0.68218 0.0
H847 H 0.58479 0.39701 0.68374 0.0
C848 C 0.60553 0.30258 0.55487 0.0
C849 C 0.61884 0.29752 0.49372 0.0
C850 C 0.6067 0.3238 0.58697 0.0
C851 C 0.62144 0.34018 0.55891 0.0
C852 C 0.6376 0.33347 0.50705 0.0
C853 C 0.63613 0.31235 0.47398 0.0
C854 C 0.60594 0.39975 0.51065 0.0
C855 C 0.5933 0.40611 0.57209 0.0
C856 C 0.61706 0.37914 0.50916 0.0
C857 C 0.61606 0.36444 0.56951 0.0
C858 C 0.60563 0.37204 0.63404 0.0
C859 C 0.5942 0.39257 0.63513 0.0
H860 H 0.2061 0.61765 0.52847 0.0
H861 H 0.1861 0.5546 0.62431 0.0
H862 H 0.18027 0.63756 0.60953 0.0
H863 H 0.15987 0.57383 0.70255 0.0
H864 H 0.10219 0.63729 0.57114 0.0
H865 H 0.14247 0.63867 0.58255 0.0
H866 H 0.13886 0.597 0.77604 0.0
H867 H 0.09863 0.59389 0.76019 0.0
C868 C 0.19685 0.60817 0.5691 0.0
C869 C 0.19727 0.5846 0.56852 0.0
C870 C 0.1819 0.61952 0.61523 0.0
C871 C 0.16691 0.60733 0.6598 0.0
C872 C 0.17059 0.58405 0.66828 0.0
C873 C 0.18558 0.5728 0.62273 0.0
C874 C 0.10993 0.62884 0.61718 0.0
C875 C 0.09738 0.61419 0.66137 0.0
C876 C 0.13321 0.6299 0.6247 0.0
C877 C 0.14421 0.61653 0.67735 0.0
C878 C 0.13104 0.60639 0.73213 0.0
C879 C 0.10779 0.6048 0.72339 0.0
H880 H 0.09736 0.79051 0.86453 0.0
H881 H 0.03389 0.80777 0.766 0.0
H882 H 0.11611 0.81848 0.78861 0.0
H883 H 0.05201 0.8362 0.69299 0.0
H884 H 0.071 0.89964 0.64029 0.0
H885 H 0.0749 0.85939 0.6241 0.0
H886 H 0.11337 0.85588 0.82453 0.0
H887 H 0.11091 0.89615 0.83726 0.0
C888 C 0.08759 0.79957 0.82417 0.0
C889 C 0.06409 0.7978 0.82304 0.0
C890 C 0.09828 0.81577 0.78104 0.0
C891 C 0.08547 0.83061 0.73784 0.0
C892 C 0.06259 0.8256 0.72658 0.0
C893 C 0.052 0.80933 0.76905 0.0
C894 C 0.08132 0.89046 0.67883 0.0
C895 C 0.08973 0.90092 0.74222 0.0
C896 C 0.0834 0.86724 0.6698 0.0
C897 C 0.09327 0.85409 0.72513 0.0
C898 C 0.10514 0.86516 0.78126 0.0
C899 C 0.10343 0.88839 0.7895 0.0
H900 H 0.71245 0.12651 0.9366 0.0
H901 H 0.67325 0.16209 0.09885 0.0
H902 H 0.67992 0.12386 0.85961 0.0
H903 H 0.63994 0.15601 0.02703 0.0
H904 H 0.57912 0.12706 0.9283 0.0
H905 H 0.61198 0.15108 0.9456 0.0
H906 H 0.65457 0.09628 0.87334 0.0
H907 H 0.62193 0.07347 0.85223 0.0
C908 C 0.69712 0.13416 0.95623 0.0
C909 C 0.69524 0.14264 0.02799 0.0
C910 C 0.67811 0.13213 0.91205 0.0
C911 C 0.65676 0.13759 0.93985 0.0
C912 C 0.65578 0.15043 1.00447 0.0
C913 C 0.67504 0.15353 0.04695 0.0
C914 C 0.5956 0.12053 0.91488 0.0
C915 C 0.59808 0.0984 0.8896 0.0
C916 C 0.61449 0.13423 0.92493 0.0
C917 C 0.63628 0.1258 0.91189 0.0
C918 C 0.63835 0.10393 0.88278 0.0
C919 C 0.61953 0.09055 0.87129 0.0
H920 H 0.59108 0.6997 0.90132 0.0
H921 H 0.63786 0.66147 0.03235 0.0
H922 H 0.57381 0.66541 0.85999 0.0
H923 H 0.6202 0.62672 0.99092 0.0
H924 H 0.55109 0.59105 0.04491 0.0
H925 H 0.58329 0.61601 0.03816 0.0
H926 H 0.56954 0.62823 0.80939 0.0
H927 H 0.53718 0.6032 0.81637 0.0
C928 C 0.59859 0.68396 0.91827 0.0
C929 C 0.61528 0.6834 0.97271 0.0
C930 C 0.5885 0.66411 0.89465 0.0
C931 C 0.595 0.64337 0.92471 0.0
C932 C 0.61433 0.64256 0.96882 0.0
C933 C 0.62454 0.66247 0.99215 0.0
C934 C 0.55518 0.59871 0.99285 0.0
C935 C 0.54121 0.59569 0.93181 0.0
C936 C 0.57382 0.61287 0.98864 0.0
C937 C 0.57895 0.62426 0.92322 0.0
C938 C 0.56587 0.61996 0.86081 0.0
C939 C 0.5472 0.60582 0.86507 0.0
H940 H 0.8166 0.5259 0.7022 0.0
H941 H 0.77107 0.46995 0.72202 0.0
H942 H 0.84262 0.50255 0.63447 0.0
H943 H 0.79724 0.44623 0.65373 0.0
H944 H 0.89519 0.46284 0.56959 0.0
H945 H 0.85762 0.47669 0.54488 0.0
H946 H 0.83129 0.4333 0.7136 0.0
H947 H 0.86859 0.41844 0.73543 0.0
C948 C 0.81175 0.50885 0.68877 0.0
C949 C 0.79218 0.49953 0.71826 0.0
C950 C 0.82661 0.49538 0.64948 0.0
C951 C 0.82232 0.47228 0.64036 0.0
C952 C 0.80119 0.46385 0.66101 0.0
C953 C 0.78617 0.47744 0.69976 0.0
C954 C 0.88129 0.4553 0.5988 0.0
C955 C 0.88501 0.44018 0.65684 0.0
C956 C 0.85972 0.46342 0.58479 0.0
C957 C 0.84166 0.45688 0.62932 0.0
C958 C 0.84484 0.43901 0.67871 0.0
C959 C 0.86635 0.43066 0.69212 0.0
H960 H 0.04856 0.17595 0.93318 0.0
H961 H 0.97657 0.18395 0.93778 0.0
H962 H 0.04428 0.13964 0.87304 0.0
H963 H 0.97222 0.14744 0.87809 0.0
H964 H 0.97337 0.08617 0.72204 0.0
H965 H 0.97708 0.1244 0.77054 0.0
H966 H 0.03255 0.10242 0.90499 0.0
H967 H 0.02892 0.0645 0.8552 0.0
C968 C 0.03177 0.17002 0.92106 0.0
C969 C 1.01292 0.18295 0.94113 0.0
C970 C 0.0293 0.14905 0.88685 0.0
C971 C 1.00787 0.14019 0.87169 0.0
C972 C 0.98901 0.1536 0.88847 0.0
C973 C 0.99151 0.17467 0.92265 0.0
C974 C 0.9865 0.08967 0.76123 0.0
C975 C 1.00108 0.07241 0.78363 0.0
C976 C 0.98847 0.11152 0.78995 0.0
C977 C 1.00532 0.11679 0.84132 0.0
C978 C 0.01969 0.0993 0.86437 0.0
C979 C 0.0175 0.07743 0.83634 0.0
H980 H 0.33843 0.98026 0.03183 0.0
H981 H 0.32716 0.04716 0.94978 0.0
H982 H 0.37084 0.97616 0.95089 0.0
H983 H 0.35975 0.0431 0.86787 0.0
H984 H 0.41666 0.01827 0.70276 0.0
H985 H 0.37942 0.02056 0.76108 0.0
H986 H 0.40807 0.9967 0.96341 0.0
H987 H 0.44506 0.99532 0.90667 0.0
C988 C 0.34237 0.99377 0.99422 0.0
C989 C 0.33005 0.01391 0.99655 0.0
C990 C 0.36113 0.99155 0.9485 0.0
C991 C 0.36817 1.00944 0.90371 0.0
C992 C 0.35478 0.02897 0.90152 0.0
C993 C 0.33599 0.03126 0.94797 0.0
C994 C 0.41494 1.01354 0.7597 0.0
C995 C 0.43391 1.00673 0.80011 0.0
C996 C 0.39361 0.01481 0.79302 0.0
C997 C 0.39063 1.00846 0.86664 0.0
C998 C 0.40961 1.00141 0.90638 0.0
C999 C 0.43091 1.00079 0.87393 0.0
H1000 H 0.47434 0.33635 0.04659 0.0
H1001 H 0.53181 0.32696 0.90678 0.0
H1002 H 0.46435 0.37046 0.97858 0.0
H1003 H 0.52256 0.36112 0.84056 0.0
H1004 H 0.49914 0.42055 0.71178 0.0
H1005 H 0.50046 0.38261 0.7617 0.0
H1006 H 0.47769 0.40783 0.97063 0.0
H1007 H 0.47559 0.44558 0.91978 0.0
C1008 C 0.48438 0.34116 0.99972 0.0
C1009 C 0.50374 0.32884 0.98163 0.0
C1010 C 0.47895 0.36098 0.96147 0.0
C1011 C 0.4928 0.369 0.90433 0.0
C1012 C 0.51125 0.35565 0.88336 0.0
C1013 C 0.5166 0.33592 0.92135 0.0
C1014 C 0.49417 0.41799 0.76817 0.0
C1015 C 0.48736 0.4363 0.81165 0.0
C1016 C 0.49505 0.39614 0.79713 0.0
C1017 C 0.48934 0.39188 0.87076 0.0
C1018 C 0.48191 0.41015 0.91353 0.0
C1019 C 0.48087 0.43197 0.88438 0.0
H1020 H 0.1533 0.4732 0.03479 0.0
H1021 H 0.17799 0.52939 0.90989 0.0
H1022 H 0.11928 0.47246 0.96096 0.0
H1023 H 0.14339 0.52959 0.83771 0.0
H1024 H 0.08269 0.51645 0.68891 0.0
H1025 H 0.11909 0.51414 0.75038 0.0
H1026 H 0.08592 0.49154 0.9475 0.0
H1027 H 0.05002 0.4929 0.88517 0.0
C1028 C 0.15147 0.48532 0.99093 0.0
C1029 C 0.16839 0.50128 0.97809 0.0
C1030 C 0.13177 0.48514 0.94899 0.0
C1031 C 0.12806 0.50127 0.8937 0.0
C1032 C 0.14547 0.51674 0.87907 0.0
C1033 C 0.16541 0.51666 0.92046 0.0
C1034 C 0.08324 0.51086 0.74527 0.0
C1035 C 0.06334 0.50469 0.78171 0.0
C1036 C 0.10417 0.50965 0.7809 0.0
C1037 C 0.10581 0.50243 0.85429 0.0
C1038 C 0.08574 0.49657 0.8906 0.0
C1039 C 0.06495 0.49753 0.85484 0.0
H1040 H 0.01977 0.82383 0.47999 0.0
H1041 H 0.95913 0.84223 0.36617 0.0
H1042 H 0.01946 0.85993 0.54391 0.0
H1043 H 0.95803 0.8778 0.43197 0.0
H1044 H 0.97627 0.9498 0.48541 0.0
H1045 H 0.97544 0.91248 0.43204 0.0
H1046 H 1.00438 0.88505 0.62972 0.0
H1047 H 1.00607 0.92278 0.6819 0.0
C1048 C 1.006 0.83534 0.47027 0.0
C1049 C 0.98948 0.83016 0.41798 0.0
C1050 C 1.00579 0.85615 0.50689 0.0
C1051 C 0.9889 0.87225 0.49268 0.0
C1052 C 0.97173 0.86635 0.44316 0.0
C1053 C 0.97215 0.84576 0.40595 0.0
C1054 C 0.98241 0.93584 0.51776 0.0
C1055 C 0.99115 0.93944 0.58825 0.0
C1056 C 0.98176 0.91423 0.48724 0.0
C1057 C 0.9896 0.89536 0.52642 0.0
C1058 C 0.99836 0.899 0.59715 0.0
C1059 C 0.9992 0.92072 0.62746 0.0
H1060 H 0.66411 0.97635 0.37002 0.0
H1061 H 0.67911 0.02957 0.5223 0.0
H1062 H 0.62853 0.96929 0.43396 0.0
H1063 H 0.64366 0.02324 0.58432 0.0
H1064 H 0.58449 1.00092 0.71455 0.0
H1065 H 0.62162 1.00047 0.65962 0.0
H1066 H 0.59216 0.98628 0.44867 0.0
H1067 H 0.55486 0.98593 0.50457 0.0
C1068 C 0.66006 0.98617 0.41814 0.0
C1069 C 0.67448 1.00348 0.44115 0.0
C1070 C 0.63948 0.9824 0.45419 0.0
C1071 C 0.63291 0.99579 0.51431 0.0
C1072 C 0.64801 1.01232 0.53911 0.0
C1073 C 0.66842 0.01605 0.50327 0.0
C1074 C 0.58584 0.99755 0.65648 0.0
C1075 C 0.56651 0.99363 0.61409 0.0
C1076 C 0.60726 0.9974 0.62471 0.0
C1077 C 0.61012 0.99357 0.5492 0.0
C1078 C 0.59081 0.98905 0.50704 0.0
C1079 C 0.56932 0.98902 0.53908 0.0
H1080 H 0.54427 0.68311 0.58587 0.0
H1081 H 0.49842 0.67238 0.40689 0.0
H1082 H 0.53232 0.64789 0.64166 0.0
H1083 H 0.48599 0.63715 0.46327 0.0
H1084 H 0.49792 0.56218 0.52364 0.0
H1085 H 0.50279 0.60036 0.47798 0.0
H1086 H 0.50418 0.62522 0.69996 0.0
H1087 H 0.49966 0.58691 0.74538 0.0
C1088 C 0.53102 0.67356 0.55977 0.0
C1089 C 0.52225 0.6806 0.49201 0.0
C1090 C 0.52416 0.65328 0.59171 0.0
C1091 C 0.5084 0.63933 0.55662 0.0
C1092 C 0.49847 0.64718 0.49132 0.0
C1093 C 0.50527 0.6676 0.45953 0.0
C1094 C 0.49917 0.57578 0.56281 0.0
C1095 C 0.49848 0.57136 0.63841 0.0
C1096 C 0.50174 0.59779 0.53653 0.0
C1097 C 0.5038 0.61609 0.58503 0.0
C1098 C 0.50283 0.61166 0.66073 0.0
C1099 C 0.50015 0.58963 0.68694 0.0
H1100 H 0.84699 0.48745 0.3021 0.0
H1101 H 0.82253 0.54511 0.42081 0.0
H1102 H 0.87935 0.48513 0.38332 0.0
H1103 H 0.85509 0.5425 0.50394 0.0
H1104 H 0.91403 0.51444 0.66202 0.0
H1105 H 0.87771 0.51563 0.5982 0.0
H1106 H 0.91213 0.51366 0.39074 0.0
H1107 H 0.94823 0.51347 0.45389 0.0
C1108 C 0.84824 0.4993 0.34694 0.0
C1109 C 0.83226 0.51659 0.35451 0.0
C1110 C 0.8669 0.49807 0.39312 0.0
C1111 C 0.8701 0.51394 0.44898 0.0
C1112 C 0.85316 0.5301 0.46104 0.0
C1113 C 0.83443 0.5315 0.41387 0.0
C1114 C 0.91379 0.51436 0.60276 0.0
C1115 C 0.93404 0.5139 0.56303 0.0
C1116 C 0.89298 0.51507 0.56628 0.0
C1117 C 0.89196 0.51446 0.48939 0.0
C1118 C 0.91227 0.51391 0.45001 0.0
C1119 C 0.93299 0.51389 0.48623 0.0
loop_
_geom_bond_atom_site_label_1
_geom_bond_atom_site_label_2
_geom_bond_distance
_geom_bond_site_symmetry_2
_ccdc_geom_bond_type
C0 C1 1.391 . S
C0 C4 1.391 . S
C0 H42 0.948 . S
C1 C0 1.391 . S
C1 C2 1.391 . S
C2 C1 1.391 . S
C2 H58 0.947 . S
C2 C59 1.392 . S
C3 C4 1.391 . S
C3 C7 1.397 . S
C3 C59 1.419 . S
C4 C0 1.391 . S
C4 C3 1.391 . S
C4 C5 1.399 . S
C5 C4 1.399 . S
C5 C8 1.396 . S
C5 C17 1.453 . S
C5 C18 1.684 . S
H6 C30 0.948 . S
C7 C3 1.397 . S
C7 C8 1.394 . S
C7 C26 1.723 . S
C8 C5 1.396 . S
C8 C7 1.394 . S
C8 C38 1.723 . S
H9 C32 0.947 . S
H10 C33 0.948 . S
H11 C39 0.982 . S
H12 C40 0.979 . S
H13 C40 0.980 . S
H14 C40 0.983 . S
H15 C39 0.979 . S
H16 C39 0.977 . S
C17 C5 1.453 . S
C17 H46 0.982 . S
C17 H47 0.979 . S
C17 H48 0.977 . S
C18 C5 1.684 . S
C18 H43 0.979 . S
C18 H44 0.980 . S
C18 H45 0.983 . S
C19 C20 1.391 . S
C19 C24 1.391 . S
C19 H49 0.948 . S
C20 C19 1.391 . S
C20 C21 1.391 . S
C21 C20 1.391 . S
C21 C22 1.392 . S
C21 H50 0.947 . S
C22 C21 1.392 . S
C22 C23 1.419 . S
C22 H51 0.948 . S
C23 C22 1.419 . S
C23 C24 1.391 . S
C23 C27 1.397 . S
C24 C19 1.391 . S
C24 C23 1.391 . S
C24 C25 1.399 . S
C25 C24 1.399 . S
C25 C26 1.396 . S
C25 C28 1.453 . S
C25 C29 1.684 . S
C26 C7 1.723 . S
C26 C25 1.396 . S
C26 C27 1.394 . S
C27 C23 1.397 . S
C27 C26 1.394 . S
C27 C37 1.723 . S
C28 C25 1.453 . S
C28 H52 0.982 . S
C28 H53 0.979 . S
C28 H54 0.977 . S
C29 C25 1.684 . S
C29 H55 0.979 . S
C29 H56 0.980 . S
C29 H57 0.983 . S
C30 H6 0.948 . S
C30 C31 1.391 . S
C30 C35 1.391 . S
C31 C30 1.391 . S
C31 C32 1.391 . S
C32 H9 0.947 . S
C32 C31 1.391 . S
C32 C33 1.392 . S
C33 H10 0.948 . S
C33 C32 1.392 . S
C33 C34 1.419 . S
C34 C33 1.419 . S
C34 C35 1.391 . S
C34 C38 1.397 . S
C35 C30 1.391 . S
C35 C34 1.391 . S
C35 C36 1.399 . S
C36 C35 1.399 . S
C36 C37 1.396 . S
C36 C39 1.453 . S
C36 C40 1.684 . S
C37 C27 1.723 . S
C37 C36 1.396 . S
C37 C38 1.394 . S
C38 C8 1.723 . S
C38 C34 1.397 . S
C38 C37 1.394 . S
C39 H11 0.982 . S
C39 H15 0.979 . S
C39 H16 0.977 . S
C39 C36 1.453 . S
C40 H12 0.979 . S
C40 H13 0.980 . S
C40 H14 0.983 . S
C40 C36 1.684 . S
H41 C59 0.948 . S
H42 C0 0.948 . S
H43 C18 0.979 . S
H44 C18 0.980 . S
H45 C18 0.983 . S
H46 C17 0.982 . S
H47 C17 0.979 . S
H48 C17 0.977 . S
H49 C19 0.948 . S
H50 C21 0.947 . S
H51 C22 0.948 . S
H52 C28 0.982 . S
H53 C28 0.979 . S
H54 C28 0.977 . S
H55 C29 0.979 . S
H56 C29 0.980 . S
H57 C29 0.983 . S
H58 C2 0.947 . S
C59 C2 1.392 . S
C59 C3 1.419 . S
C59 H41 0.948 . S
C60 C61 1.391 . S
C60 C64 1.391 . S
C60 H102 0.948 . S
C61 C60 1.391 . S
C61 C62 1.391 . S
C62 C61 1.391 . S
C62 H118 0.947 . S
C62 C119 1.392 . S
C63 C64 1.391 . S
C63 C67 1.397 1_655 S
C63 C119 1.419 . S
C64 C60 1.391 . S
C64 C63 1.391 . S
C64 C65 1.399 . S
C65 C64 1.399 . S
C65 C68 1.396 1_655 S
C65 C77 1.453 1_655 S
C65 C78 1.684 . S
H66 C90 0.948 . S
C67 C63 1.397 1_455 S
C67 C68 1.394 . S
C67 C86 1.723 . S
C68 C65 1.396 1_455 S
C68 C67 1.394 . S
C68 C98 1.723 . S
H69 C92 0.947 . S
H70 C93 0.948 . S
H71 C99 0.982 . S
H72 C100 0.979 . S
H73 C100 0.980 . S
H74 C100 0.983 . S
H75 C99 0.979 . S
H76 C99 0.977 . S
C77 C65 1.453 1_455 S
C77 H106 0.982 . S
C77 H107 0.979 . S
C77 H108 0.977 . S
C78 C65 1.684 . S
C78 H103 0.979 . S
C78 H104 0.980 . S
C78 H105 0.983 . S
C79 C80 1.391 . S
C79 C84 1.391 . S
C79 H109 0.948 . S
C80 C79 1.391 . S
C80 C81 1.391 . S
C81 C80 1.391 . S
C81 C82 1.392 . S
C81 H110 0.947 . S
C82 C81 1.392 . S
C82 C83 1.419 . S
C82 H111 0.948 . S
C83 C82 1.419 . S
C83 C84 1.391 . S
C83 C87 1.397 1_655 S
C84 C79 1.391 . S
C84 C83 1.391 . S
C84 C85 1.399 . S
C85 C84 1.399 . S
C85 C86 1.396 1_655 S
C85 C88 1.453 1_655 S
C85 C89 1.684 . S
C86 C67 1.723 . S
C86 C85 1.396 1_455 S
C86 C87 1.394 . S
C87 C83 1.397 1_455 S
C87 C86 1.394 . S
C87 C97 1.723 . S
C88 C85 1.453 1_455 S
C88 H112 0.982 . S
C88 H113 0.979 . S
C88 H114 0.977 . S
C89 C85 1.684 . S
C89 H115 0.979 . S
C89 H116 0.980 . S
C89 H117 0.983 . S
C90 H66 0.948 . S
C90 C91 1.391 . S
C90 C95 1.391 . S
C91 C90 1.391 . S
C91 C92 1.391 . S
C92 H69 0.947 . S
C92 C91 1.391 . S
C92 C93 1.392 . S
C93 H70 0.948 . S
C93 C92 1.392 . S
C93 C94 1.419 . S
C94 C93 1.419 . S
C94 C95 1.391 . S
C94 C98 1.397 1_655 S
C95 C90 1.391 . S
C95 C94 1.391 . S
C95 C96 1.399 . S
C96 C95 1.399 . S
C96 C97 1.396 1_655 S
C96 C99 1.453 1_655 S
C96 C100 1.684 . S
C97 C87 1.723 . S
C97 C96 1.396 1_455 S
C97 C98 1.394 . S
C98 C68 1.723 . S
C98 C94 1.397 1_455 S
C98 C97 1.394 . S
C99 H71 0.982 . S
C99 H75 0.979 . S
C99 H76 0.977 . S
C99 C96 1.453 1_455 S
C100 H72 0.979 . S
C100 H73 0.980 . S
C100 H74 0.983 . S
C100 C96 1.684 . S
H101 C119 0.948 . S
H102 C60 0.948 . S
H103 C78 0.979 . S
H104 C78 0.980 . S
H105 C78 0.983 . S
H106 C77 0.982 . S
H107 C77 0.979 . S
H108 C77 0.977 . S
H109 C79 0.948 . S
H110 C81 0.947 . S
H111 C82 0.948 . S
H112 C88 0.982 . S
H113 C88 0.979 . S
H114 C88 0.977 . S
H115 C89 0.979 . S
H116 C89 0.980 . S
H117 C89 0.983 . S
H118 C62 0.947 . S
C119 C62 1.392 . S
C119 C63 1.419 . S
C119 H101 0.948 . S
C120 C121 1.391 . S
C120 C124 1.391 . S
C120 H162 0.948 . S
C121 C120 1.391 . S
C121 C122 1.391 . S
C122 C121 1.391 . S
C122 H178 0.947 . S
C122 C179 1.392 . S
C123 C124 1.391 . S
C123 C127 1.397 1_565 S
C123 C179 1.419 . S
C124 C120 1.391 . S
C124 C123 1.391 . S
C124 C125 1.399 . S
C125 C124 1.399 . S
C125 C128 1.396 1_565 S
C125 C137 1.453 1_565 S
C125 C138 1.684 . S
H126 C150 0.948 . S
C127 C123 1.397 1_545 S
C127 C128 1.394 . S
C127 C146 1.723 . S
C128 C125 1.396 1_545 S
C128 C127 1.394 . S
C128 C158 1.723 . S
H129 C152 0.947 . S
H130 C153 0.948 . S
H131 C159 0.982 . S
H132 C160 0.979 . S
H133 C160 0.980 . S
H134 C160 0.983 . S
H135 C159 0.979 . S
H136 C159 0.977 . S
C137 C125 1.453 1_545 S
C137 H166 0.982 . S
C137 H167 0.979 . S
C137 H168 0.977 . S
C138 C125 1.684 . S
C138 H163 0.979 . S
C138 H164 0.980 . S
C138 H165 0.983 . S
C139 C140 1.391 . S
C139 C144 1.391 . S
C139 H169 0.948 . S
C140 C139 1.391 . S
C140 C141 1.391 . S
C141 C140 1.391 . S
C141 C142 1.392 . S
C141 H170 0.947 . S
C142 C141 1.392 . S
C142 C143 1.419 . S
C142 H171 0.948 . S
C143 C142 1.419 . S
C143 C144 1.391 . S
C143 C147 1.397 1_565 S
C144 C139 1.391 . S
C144 C143 1.391 . S
C144 C145 1.399 . S
C145 C144 1.399 . S
C145 C146 1.396 1_565 S
C145 C148 1.453 1_565 S
C145 C149 1.684 . S
C146 C127 1.723 . S
C146 C145 1.396 1_545 S
C146 C147 1.394 . S
C147 C143 1.397 1_545 S
C147 C146 1.394 . S
C147 C157 1.723 . S
C148 C145 1.453 1_545 S
C148 H172 0.982 . S
C148 H173 0.979 . S
C148 H174 0.977 . S
C149 C145 1.684 . S
C149 H175 0.979 . S
C149 H176 0.980 . S
C149 H177 0.983 . S
C150 H126 0.948 . S
C150 C151 1.391 . S
C150 C155 1.391 . S
C151 C150 1.391 . S
C151 C152 1.391 . S
C152 H129 0.947 . S
C152 C151 1.391 . S
C152 C153 1.392 . S
C153 H130 0.948 . S
C153 C152 1.392 . S
C153 C154 1.419 . S
C154 C153 1.419 . S
C154 C155 1.391 . S
C154 C158 1.397 1_565 S
C155 C150 1.391 . S
C155 C154 1.391 . S
C155 C156 1.399 . S
C156 C155 1.399 . S
C156 C157 1.396 1_565 S
C156 C159 1.453 1_565 S
C156 C160 1.684 . S
C157 C147 1.723 . S
C157 C156 1.396 1_545 S
C157 C158 1.394 . S
C158 C128 1.723 . S
C158 C154 1.397 1_545 S
C158 C157 1.394 . S
C159 H131 0.982 . S
C159 H135 0.979 . S
C159 H136 0.977 . S
C159 C156 1.453 1_545 S
C160 H132 0.979 . S
C160 H133 0.980 . S
C160 H134 0.983 . S
C160 C156 1.684 . S
H161 C179 0.948 . S
H162 C120 0.948 . S
H163 C138 0.979 . S
H164 C138 0.980 . S
H165 C138 0.983 . S
H166 C137 0.982 . S
H167 C137 0.979 . S
H168 C137 0.977 . S
H169 C139 0.948 . S
H170 C141 0.947 . S
H171 C142 0.948 . S
H172 C148 0.982 . S
H173 C148 0.979 . S
H174 C148 0.977 . S
H175 C149 0.979 . S
H176 C149 0.980 . S
H177 C149 0.983 . S
H178 C122 0.947 . S
C179 C122 1.392 . S
C179 C123 1.419 . S
C179 H161 0.948 . S
C180 C181 1.391 . S
C180 C184 1.391 . S
C180 H222 0.948 . S
C181 C180 1.391 . S
C181 C182 1.391 . S
C182 C181 1.391 . S
C182 H238 0.947 . S
C182 C239 1.392 . S
C183 C184 1.391 . S
C183 C187 1.397 . S
C183 C239 1.419 . S
C184 C180 1.391 . S
C184 C183 1.391 . S
C184 C185 1.399 . S
C185 C184 1.399 . S
C185 C188 1.396 . S
C185 C197 1.453 . S
C185 C198 1.684 . S
H186 C210 0.948 . S
C187 C183 1.397 . S
C187 C188 1.394 . S
C187 C206 1.723 . S
C188 C185 1.396 . S
C188 C187 1.394 . S
C188 C218 1.723 . S
H189 C212 0.947 . S
H190 C213 0.948 . S
H191 C219 0.982 . S
H192 C220 0.979 . S
H193 C220 0.980 . S
H194 C220 0.983 . S
H195 C219 0.979 . S
H196 C219 0.977 . S
C197 C185 1.453 . S
C197 H226 0.982 . S
C197 H227 0.979 . S
C197 H228 0.977 . S
C198 C185 1.684 . S
C198 H223 0.979 . S
C198 H224 0.980 . S
C198 H225 0.983 . S
C199 C200 1.391 . S
C199 C204 1.391 . S
C199 H229 0.948 . S
C200 C199 1.391 . S
C200 C201 1.391 . S
C201 C200 1.391 . S
C201 C202 1.392 . S
C201 H230 0.947 . S
C202 C201 1.392 . S
C202 C203 1.419 . S
C202 H231 0.948 . S
C203 C202 1.419 . S
C203 C204 1.391 . S
C203 C207 1.397 . S
C204 C199 1.391 . S
C204 C203 1.391 . S
C204 C205 1.399 . S
C205 C204 1.399 . S
C205 C206 1.396 . S
C205 C208 1.453 . S
C205 C209 1.684 . S
C206 C187 1.723 . S
C206 C205 1.396 . S
C206 C207 1.394 . S
C207 C203 1.397 . S
C207 C206 1.394 . S
C207 C217 1.723 . S
C208 C205 1.453 . S
C208 H232 0.982 . S
C208 H233 0.979 . S
C208 H234 0.977 . S
C209 C205 1.684 . S
C209 H235 0.979 . S
C209 H236 0.980 . S
C209 H237 0.983 . S
C210 H186 0.948 . S
C210 C211 1.391 . S
C210 C215 1.391 . S
C211 C210 1.391 . S
C211 C212 1.391 . S
C212 H189 0.947 . S
C212 C211 1.391 . S
C212 C213 1.392 . S
C213 H190 0.948 . S
C213 C212 1.392 . S
C213 C214 1.419 . S
C214 C213 1.419 . S
C214 C215 1.391 . S
C214 C218 1.397 . S
C215 C210 1.391 . S
C215 C214 1.391 . S
C215 C216 1.399 . S
C216 C215 1.399 . S
C216 C217 1.396 . S
C216 C219 1.453 . S
C216 C220 1.684 . S
C217 C207 1.723 . S
C217 C216 1.396 . S
C217 C218 1.394 . S
C218 C188 1.723 . S
C218 C214 1.397 . S
C218 C217 1.394 . S
C219 H191 0.982 . S
C219 H195 0.979 . S
C219 H196 0.977 . S
C219 C216 1.453 . S
C220 H192 0.979 . S
C220 H193 0.980 . S
C220 H194 0.983 . S
C220 C216 1.684 . S
H221 C239 0.948 . S
H222 C180 0.948 . S
H223 C198 0.979 . S
H224 C198 0.980 . S
H225 C198 0.983 . S
H226 C197 0.982 . S
H227 C197 0.979 . S
H228 C197 0.977 . S
H229 C199 0.948 . S
H230 C201 0.947 . S
H231 C202 0.948 . S
H232 C208 0.982 . S
H233 C208 0.979 . S
H234 C208 0.977 . S
H235 C209 0.979 . S
H236 C209 0.980 . S
H237 C209 0.983 . S
H238 C182 0.947 . S
C239 C182 1.392 . S
C239 C183 1.419 . S
C239 H221 0.948 . S
C240 C241 1.391 . S
C240 C244 1.391 . S
C240 H282 0.948 . S
C241 C240 1.391 . S
C241 C242 1.391 . S
C242 C241 1.391 . S
C242 H298 0.947 . S
C242 C299 1.392 . S
C243 C244 1.391 . S
C243 C247 1.397 . S
C243 C299 1.419 . S
C244 C240 1.391 . S
C244 C243 1.391 . S
C244 C245 1.399 1_554 S
C245 C244 1.399 1_556 S
C245 C248 1.396 . S
C245 C257 1.453 . S
C245 C258 1.684 . S
H246 C270 0.948 . S
C247 C243 1.397 . S
C247 C248 1.394 1_554 S
C247 C266 1.723 . S
C248 C245 1.396 . S
C248 C247 1.394 1_556 S
C248 C278 1.723 . S
H249 C272 0.947 . S
H250 C273 0.948 . S
H251 C279 0.982 . S
H252 C280 0.979 . S
H253 C280 0.980 1_554 S
H254 C280 0.983 . S
H255 C279 0.979 . S
H256 C279 0.977 1_554 S
C257 C245 1.453 . S
C257 H286 0.982 . S
C257 H287 0.979 . S
C257 H288 0.977 . S
C258 C245 1.684 . S
C258 H283 0.979 . S
C258 H284 0.980 . S
C258 H285 0.983 . S
C259 C260 1.391 . S
C259 C264 1.391 . S
C259 H289 0.948 . S
C260 C259 1.391 . S
C260 C261 1.391 . S
C261 C260 1.391 . S
C261 C262 1.392 . S
C261 H290 0.947 . S
C262 C261 1.392 . S
C262 C263 1.419 . S
C262 H291 0.948 . S
C263 C262 1.419 . S
C263 C264 1.391 . S
C263 C267 1.397 . S
C264 C259 1.391 . S
C264 C263 1.391 . S
C264 C265 1.399 . S
C265 C264 1.399 . S
C265 C266 1.396 . S
C265 C268 1.453 . S
C265 C269 1.684 . S
C266 C247 1.723 . S
C266 C265 1.396 . S
C266 C267 1.394 . S
C267 C263 1.397 . S
C267 C266 1.394 . S
C267 C277 1.723 1_554 S
C268 C265 1.453 . S
C268 H292 0.982 . S
C268 H293 0.979 . S
C268 H294 0.977 . S
C269 C265 1.684 . S
C269 H295 0.979 . S
C269 H296 0.980 . S
C269 H297 0.983 . S
C270 H246 0.948 . S
C270 C271 1.391 . S
C270 C275 1.391 . S
C271 C270 1.391 . S
C271 C272 1.391 . S
C272 H249 0.947 . S
C272 C271 1.391 . S
C272 C273 1.392 . S
C273 H250 0.948 . S
C273 C272 1.392 . S
C273 C274 1.419 . S
C274 C273 1.419 . S
C274 C275 1.391 . S
C274 C278 1.397 . S
C275 C270 1.391 . S
C275 C274 1.391 . S
C275 C276 1.399 . S
C276 C275 1.399 . S
C276 C277 1.396 . S
C276 C279 1.453 . S
C276 C280 1.684 . S
C277 C267 1.723 1_556 S
C277 C276 1.396 . S
C277 C278 1.394 . S
C278 C248 1.723 . S
C278 C274 1.397 . S
C278 C277 1.394 . S
C279 H251 0.982 . S
C279 H255 0.979 . S
C279 H256 0.977 1_556 S
C279 C276 1.453 . S
C280 H252 0.979 . S
C280 H253 0.980 1_556 S
C280 H254 0.983 . S
C280 C276 1.684 . S
H281 C299 0.948 . S
H282 C240 0.948 . S
H283 C258 0.979 . S
H284 C258 0.980 . S
H285 C258 0.983 . S
H286 C257 0.982 . S
H287 C257 0.979 . S
H288 C257 0.977 . S
H289 C259 0.948 . S
H290 C261 0.947 . S
H291 C262 0.948 . S
H292 C268 0.982 . S
H293 C268 0.979 . S
H294 C268 0.977 . S
H295 C269 0.979 . S
H296 C269 0.980 . S
H297 C269 0.983 . S
H298 C242 0.947 . S
C299 C242 1.392 . S
C299 C243 1.419 . S
C299 H281 0.948 . S
C300 C301 1.391 . S
C300 C304 1.391 . S
C300 H342 0.948 . S
C301 C300 1.391 . S
C301 C302 1.391 . S
C302 C301 1.391 . S
C302 H358 0.947 . S
C302 C359 1.392 . S
C303 C304 1.398 . S
C303 C307 1.395 1_655 S
C303 C359 1.424 . S
C304 C300 1.391 . S
C304 C303 1.398 . S
C304 C305 1.399 . S
C305 C304 1.399 . S
C305 C308 1.396 1_655 S
C305 C317 1.453 1_655 S
C305 C318 1.684 . S
H306 C330 0.948 . S
C307 C303 1.395 1_455 S
C307 C308 1.395 . S
C307 C326 1.723 1_554 S
C308 C305 1.396 1_455 S
C308 C307 1.395 . S
C308 C338 1.723 . S
H309 C332 0.947 . S
H310 C333 0.948 . S
H311 C339 0.982 . S
H312 C340 0.979 . S
H313 C340 0.980 . S
H314 C340 0.983 . S
H315 C339 0.979 . S
H316 C339 0.977 . S
C317 C305 1.453 1_455 S
C317 H346 0.982 . S
C317 H347 0.979 . S
C317 H348 0.977 . S
C318 C305 1.684 . S
C318 H343 0.979 . S
C318 H344 0.980 . S
C318 H345 0.983 . S
C319 C320 1.391 . S
C319 C324 1.391 . S
C319 H349 0.948 . S
C320 C319 1.391 . S
C320 C321 1.391 . S
C321 C320 1.391 . S
C321 C322 1.392 . S
C321 H350 0.947 . S
C322 C321 1.392 . S
C322 C323 1.424 . S
C322 H351 0.948 . S
C323 C322 1.424 . S
C323 C324 1.398 . S
C323 C327 1.395 1_655 S
C324 C319 1.391 . S
C324 C323 1.398 . S
C324 C325 1.399 . S
C325 C324 1.399 . S
C325 C326 1.396 1_655 S
C325 C328 1.453 1_655 S
C325 C329 1.684 . S
C326 C307 1.723 1_556 S
C326 C325 1.396 1_455 S
C326 C327 1.395 . S
C327 C323 1.395 1_455 S
C327 C326 1.395 . S
C327 C337 1.723 . S
C328 C325 1.453 1_455 S
C328 H352 0.982 . S
C328 H353 0.979 . S
C328 H354 0.977 1_556 S
C329 C325 1.684 . S
C329 H355 0.979 . S
C329 H356 0.980 1_556 S
C329 H357 0.983 . S
C330 H306 0.948 . S
C330 C331 1.391 . S
C330 C335 1.391 . S
C331 C330 1.391 . S
C331 C332 1.391 . S
C332 H309 0.947 . S
C332 C331 1.391 . S
C332 C333 1.392 . S
C333 H310 0.948 . S
C333 C332 1.392 . S
C333 C334 1.424 . S
C334 C333 1.424 . S
C334 C335 1.398 . S
C334 C338 1.395 1_655 S
C335 C330 1.391 . S
C335 C334 1.398 . S
C335 C336 1.399 1_554 S
C336 C335 1.399 1_556 S
C336 C337 1.396 1_655 S
C336 C339 1.453 1_655 S
C336 C340 1.684 . S
C337 C327 1.723 . S
C337 C336 1.396 1_455 S
C337 C338 1.395 1_556 S
C338 C308 1.723 . S
C338 C334 1.395 1_455 S
C338 C337 1.395 1_554 S
C339 H311 0.982 . S
C339 H315 0.979 . S
C339 H316 0.977 . S
C339 C336 1.453 1_455 S
C340 H312 0.979 . S
C340 H313 0.980 . S
C340 H314 0.983 . S
C340 C336 1.684 . S
H341 C359 0.948 . S
H342 C300 0.948 . S
H343 C318 0.979 . S
H344 C318 0.980 . S
H345 C318 0.983 . S
H346 C317 0.982 . S
H347 C317 0.979 . S
H348 C317 0.977 . S
H349 C319 0.948 . S
H350 C321 0.947 . S
H351 C322 0.948 . S
H352 C328 0.982 . S
H353 C328 0.979 . S
H354 C328 0.977 1_554 S
H355 C329 0.979 . S
H356 C329 0.980 1_554 S
H357 C329 0.983 . S
H358 C302 0.947 . S
C359 C302 1.392 . S
C359 C303 1.424 . S
C359 H341 0.948 . S
C360 C361 1.391 . S
C360 C364 1.391 . S
C360 H402 0.948 . S
C361 C360 1.391 . S
C361 C362 1.391 . S
C362 C361 1.391 . S
C362 H418 0.947 . S
C362 C419 1.392 . S
C363 C364 1.391 . S
C363 C367 1.397 1_545 S
C363 C419 1.419 . S
C364 C360 1.391 . S
C364 C363 1.391 . S
C364 C365 1.399 . S
C365 C364 1.399 . S
C365 C368 1.396 1_545 S
C365 C377 1.453 1_545 S
C365 C378 1.684 . S
H366 C390 0.948 . S
C367 C363 1.397 1_565 S
C367 C368 1.394 . S
C367 C386 1.723 1_556 S
C368 C365 1.396 1_565 S
C368 C367 1.394 . S
C368 C398 1.723 1_556 S
H369 C392 0.947 1_556 S
H370 C393 0.948 . S
H371 C399 0.982 . S
H372 C400 0.979 . S
H373 C400 0.980 . S
H374 C400 0.983 . S
H375 C399 0.979 . S
H376 C399 0.977 . S
C377 C365 1.453 1_565 S
C377 H406 0.982 . S
C377 H407 0.979 . S
C377 H408 0.977 . S
C378 C365 1.684 . S
C378 H403 0.979 . S
C378 H404 0.980 . S
C378 H405 0.983 . S
C379 C380 1.391 . S
C379 C384 1.391 . S
C379 H409 0.948 . S
C380 C379 1.391 . S
C380 C381 1.391 . S
C381 C380 1.391 . S
C381 C382 1.392 . S
C381 H410 0.947 . S
C382 C381 1.392 . S
C382 C383 1.419 . S
C382 H411 0.948 . S
C383 C382 1.419 . S
C383 C384 1.391 . S
C383 C387 1.397 1_545 S
C384 C379 1.391 . S
C384 C383 1.391 . S
C384 C385 1.399 . S
C385 C384 1.399 . S
C385 C386 1.396 1_545 S
C385 C388 1.453 1_545 S
C385 C389 1.684 . S
C386 C367 1.723 1_554 S
C386 C385 1.396 1_565 S
C386 C387 1.394 . S
C387 C383 1.397 1_565 S
C387 C386 1.394 . S
C387 C397 1.723 . S
C388 C385 1.453 1_565 S
C388 H412 0.982 . S
C388 H413 0.979 . S
C388 H414 0.977 1_554 S
C389 C385 1.684 . S
C389 H415 0.979 . S
C389 H416 0.980 1_554 S
C389 H417 0.983 . S
C390 H366 0.948 . S
C390 C391 1.391 . S
C390 C395 1.391 . S
C391 C390 1.391 . S
C391 C392 1.391 . S
C392 H369 0.947 1_554 S
C392 C391 1.391 . S
C392 C393 1.392 1_554 S
C393 H370 0.948 . S
C393 C392 1.392 1_556 S
C393 C394 1.419 1_556 S
C394 C393 1.419 1_554 S
C394 C395 1.391 . S
C394 C398 1.397 1_545 S
C395 C390 1.391 . S
C395 C394 1.391 . S
C395 C396 1.399 . S
C396 C395 1.399 . S
C396 C397 1.396 1_545 S
C396 C399 1.453 1_545 S
C396 C400 1.684 . S
C397 C387 1.723 . S
C397 C396 1.396 1_565 S
C397 C398 1.394 . S
C398 C368 1.723 1_554 S
C398 C394 1.397 1_565 S
C398 C397 1.394 . S
C399 H371 0.982 . S
C399 H375 0.979 . S
C399 H376 0.977 . S
C399 C396 1.453 1_565 S
C400 H372 0.979 . S
C400 H373 0.980 . S
C400 H374 0.983 . S
C400 C396 1.684 . S
H401 C419 0.948 . S
H402 C360 0.948 . S
H403 C378 0.979 . S
H404 C378 0.980 . S
H405 C378 0.983 . S
H406 C377 0.982 . S
H407 C377 0.979 . S
H408 C377 0.977 . S
H409 C379 0.948 . S
H410 C381 0.947 . S
H411 C382 0.948 . S
H412 C388 0.982 . S
H413 C388 0.979 . S
H414 C388 0.977 1_556 S
H415 C389 0.979 . S
H416 C389 0.980 1_556 S
H417 C389 0.983 . S
H418 C362 0.947 . S
C419 C362 1.392 . S
C419 C363 1.419 . S
C419 H401 0.948 . S
C420 C421 1.391 . S
C420 C424 1.391 . S
C420 H462 0.948 . S
C421 C420 1.391 . S
C421 C422 1.391 . S
C422 C421 1.391 . S
C422 H478 0.947 . S
C422 C479 1.392 . S
C423 C424 1.391 . S
C423 C427 1.397 . S
C423 C479 1.419 . S
C424 C420 1.391 . S
C424 C423 1.391 . S
C424 C425 1.399 . S
C425 C424 1.399 . S
C425 C428 1.396 . S
C425 C437 1.453 . S
C425 C438 1.684 . S
H426 C450 0.948 . S
C427 C423 1.397 . S
C427 C428 1.394 . S
C427 C446 1.723 1_556 S
C428 C425 1.396 . S
C428 C427 1.394 . S
C428 C458 1.723 1_556 S
H429 C452 0.947 1_556 S
H430 C453 0.948 . S
H431 C459 0.982 . S
H432 C460 0.979 . S
H433 C460 0.980 . S
H434 C460 0.983 . S
H435 C459 0.979 . S
H436 C459 0.977 . S
C437 C425 1.453 . S
C437 H466 0.982 . S
C437 H467 0.979 . S
C437 H468 0.977 . S
C438 C425 1.684 . S
C438 H463 0.979 . S
C438 H464 0.980 . S
C438 H465 0.983 . S
C439 C440 1.391 . S
C439 C444 1.391 . S
C439 H469 0.948 . S
C440 C439 1.391 . S
C440 C441 1.391 . S
C441 C440 1.391 . S
C441 C442 1.392 . S
C441 H470 0.947 . S
C442 C441 1.392 . S
C442 C443 1.419 . S
C442 H471 0.948 . S
C443 C442 1.419 . S
C443 C444 1.391 . S
C443 C447 1.397 . S
C444 C439 1.391 . S
C444 C443 1.391 . S
C444 C445 1.399 . S
C445 C444 1.399 . S
C445 C446 1.396 . S
C445 C448 1.453 . S
C445 C449 1.684 . S
C446 C427 1.723 1_554 S
C446 C445 1.396 . S
C446 C447 1.394 . S
C447 C443 1.397 . S
C447 C446 1.394 . S
C447 C457 1.723 . S
C448 C445 1.453 . S
C448 H472 0.982 . S
C448 H473 0.979 . S
C448 H474 0.977 1_554 S
C449 C445 1.684 . S
C449 H475 0.979 . S
C449 H476 0.980 1_554 S
C449 H477 0.983 . S
C450 H426 0.948 . S
C450 C451 1.391 . S
C450 C455 1.391 . S
C451 C450 1.391 . S
C451 C452 1.391 . S
C452 H429 0.947 1_554 S
C452 C451 1.391 . S
C452 C453 1.392 1_554 S
C453 H430 0.948 . S
C453 C452 1.392 1_556 S
C453 C454 1.419 1_556 S
C454 C453 1.419 1_554 S
C454 C455 1.391 . S
C454 C458 1.397 . S
C455 C450 1.391 . S
C455 C454 1.391 . S
C455 C456 1.399 . S
C456 C455 1.399 . S
C456 C457 1.396 . S
C456 C459 1.453 . S
C456 C460 1.684 . S
C457 C447 1.723 . S
C457 C456 1.396 . S
C457 C458 1.394 . S
C458 C428 1.723 1_554 S
C458 C454 1.397 . S
C458 C457 1.394 . S
C459 H431 0.982 . S
C459 H435 0.979 . S
C459 H436 0.977 . S
C459 C456 1.453 . S
C460 H432 0.979 . S
C460 H433 0.980 . S
C460 H434 0.983 . S
C460 C456 1.684 . S
H461 C479 0.948 . S
H462 C420 0.948 . S
H463 C438 0.979 . S
H464 C438 0.980 . S
H465 C438 0.983 . S
H466 C437 0.982 . S
H467 C437 0.979 . S
H468 C437 0.977 . S
H469 C439 0.948 . S
H470 C441 0.947 . S
H471 C442 0.948 . S
H472 C448 0.982 . S
H473 C448 0.979 . S
H474 C448 0.977 1_556 S
H475 C449 0.979 . S
H476 C449 0.980 1_556 S
H477 C449 0.983 . S
H478 C422 0.947 . S
C479 C422 1.392 . S
C479 C423 1.419 . S
C479 H461 0.948 . S
Ho480 C483 2.811 . S
Ho480 O500 2.322 . S
Ho480 O502 2.378 . S
Ho480 O503 2.524 . S
Ho480 O504 2.381 . S
Ho480 O505 2.669 1_565 S
Ho480 O507 2.346 1_565 S
Ho480 O511 2.305 1_455 S
Ho481 C492 2.811 . S
Ho481 O501 2.346 1_545 S
Ho481 O505 2.305 1_655 S
Ho481 O506 2.322 . S
Ho481 O508 2.378 . S
Ho481 O509 2.524 . S
Ho481 O510 2.381 . S
Ho481 O511 2.669 1_545 S
C482 O500 1.259 1_655 S
C482 O501 1.268 . S
C483 Ho480 2.811 . S
C483 C484 1.488 . S
C483 O502 1.215 . S
C483 O503 1.289 . S
C484 C483 1.488 . S
C484 C485 1.348 . S
C484 C489 1.413 . S
C485 C484 1.348 . S
C485 C486 1.442 . S
C485 H512 0.930 1_455 S
C486 C485 1.442 . S
C486 C487 1.381 . S
C486 H513 0.931 1_455 S
C487 C486 1.381 . S
C487 C488 1.321 . S
C488 C487 1.321 . S
C488 C489 1.403 . S
C488 H514 0.934 . S
C489 C484 1.413 . S
C489 C488 1.403 . S
C489 H515 0.930 . S
C490 O504 1.296 . S
C490 O505 1.244 1_565 S
C491 O506 1.259 1_455 S
C491 O507 1.268 . S
C492 Ho481 2.811 . S
C492 C493 1.488 . S
C492 O508 1.215 . S
C492 O509 1.289 . S
C493 C492 1.488 . S
C493 C494 1.348 . S
C493 C498 1.413 . S
C494 C493 1.348 . S
C494 C495 1.442 . S
C494 H516 0.930 1_655 S
C495 C494 1.442 . S
C495 C496 1.381 . S
C495 H517 0.931 1_655 S
C496 C495 1.381 . S
C496 C497 1.321 . S
C497 C496 1.321 . S
C497 C498 1.403 . S
C497 H518 0.934 . S
C498 C493 1.413 . S
C498 C497 1.403 . S
C498 H519 0.930 . S
C499 O510 1.302 . S
C499 O511 1.241 1_545 S
O500 Ho480 2.322 . S
O500 C482 1.259 1_455 S
O501 Ho481 2.346 1_565 S
O501 C482 1.268 . S
O502 Ho480 2.378 . S
O502 C483 1.215 . S
O503 Ho480 2.524 . S
O503 C483 1.289 . S
O504 Ho480 2.381 . S
O504 C490 1.296 . S
O505 Ho480 2.669 1_545 S
O505 Ho481 2.305 1_455 S
O505 C490 1.244 1_545 S
O506 Ho481 2.322 . S
O506 C491 1.259 1_655 S
O507 Ho480 2.346 1_545 S
O507 C491 1.268 . S
O508 Ho481 2.378 . S
O508 C492 1.215 . S
O509 Ho481 2.524 . S
O509 C492 1.289 . S
O510 Ho481 2.381 . S
O510 C499 1.302 . S
O511 Ho480 2.305 1_655 S
O511 Ho481 2.669 1_565 S
O511 C499 1.241 1_565 S
H512 C485 0.930 1_655 S
H513 C486 0.931 1_655 S
H514 C488 0.934 . S
H515 C489 0.930 . S
H516 C494 0.930 1_455 S
H517 C495 0.931 1_455 S
H518 C497 0.934 . S
H519 C498 0.930 . S
Ho520 C523 2.811 . S
Ho520 O540 2.322 . S
Ho520 O542 2.378 . S
Ho520 O543 2.524 . S
Ho520 O544 2.381 . S
Ho520 O545 2.669 . S
Ho520 O547 2.346 . S
Ho520 O551 2.305 1_545 S
Ho521 C532 2.811 . S
Ho521 O541 2.346 . S
Ho521 O545 2.305 1_565 S
Ho521 O546 2.322 . S
Ho521 O548 2.378 . S
Ho521 O549 2.524 . S
Ho521 O550 2.381 . S
Ho521 O551 2.669 . S
C522 O540 1.259 1_565 S
C522 O541 1.268 . S
C523 Ho520 2.811 . S
C523 C524 1.488 . S
C523 O542 1.215 . S
C523 O543 1.289 . S
C524 C523 1.488 . S
C524 C525 1.348 . S
C524 C529 1.413 . S
C525 C524 1.348 . S
C525 C526 1.442 . S
C525 H552 0.930 1_545 S
C526 C525 1.442 . S
C526 C527 1.381 . S
C526 H553 0.931 1_545 S
C527 C526 1.381 . S
C527 C528 1.321 . S
C528 C527 1.321 . S
C528 C529 1.403 . S
C528 H554 0.934 . S
C529 C524 1.413 . S
C529 C528 1.403 . S
C529 H555 0.930 . S
C530 O544 1.275 . S
C530 O545 1.256 . S
C531 O546 1.259 1_545 S
C531 O547 1.268 . S
C532 Ho521 2.811 . S
C532 C533 1.488 . S
C532 O548 1.215 . S
C532 O549 1.289 . S
C533 C532 1.488 . S
C533 C534 1.348 . S
C533 C538 1.413 . S
C534 C533 1.348 . S
C534 C535 1.442 . S
C534 H556 0.930 1_565 S
C535 C534 1.442 . S
C535 C536 1.381 . S
C535 H557 0.931 1_565 S
C536 C535 1.381 . S
C536 C537 1.321 . S
C537 C536 1.321 . S
C537 C538 1.403 . S
C537 H558 0.934 . S
C538 C533 1.413 . S
C538 C537 1.403 . S
C538 H559 0.930 . S
C539 O550 1.275 . S
C539 O551 1.256 . S
O540 Ho520 2.322 . S
O540 C522 1.259 1_545 S
O541 Ho521 2.346 . S
O541 C522 1.268 . S
O542 Ho520 2.378 . S
O542 C523 1.215 . S
O543 Ho520 2.524 . S
O543 C523 1.289 . S
O544 Ho520 2.381 . S
O544 C530 1.275 . S
O545 Ho520 2.669 . S
O545 Ho521 2.305 1_545 S
O545 C530 1.256 . S
O546 Ho521 2.322 . S
O546 C531 1.259 1_565 S
O547 Ho520 2.346 . S
O547 C531 1.268 . S
O548 Ho521 2.378 . S
O548 C532 1.215 . S
O549 Ho521 2.524 . S
O549 C532 1.289 . S
O550 Ho521 2.381 . S
O550 C539 1.275 . S
O551 Ho520 2.305 1_565 S
O551 Ho521 2.669 . S
O551 C539 1.256 . S
H552 C525 0.930 1_565 S
H553 C526 0.931 1_565 S
H554 C528 0.934 . S
H555 C529 0.930 . S
H556 C534 0.930 1_545 S
H557 C535 0.931 1_545 S
H558 C537 0.934 . S
H559 C538 0.930 . S
Ho560 C563 2.811 . S
Ho560 O580 2.322 . S
Ho560 O582 2.378 . S
Ho560 O583 2.524 . S
Ho560 O584 2.381 . S
Ho560 O585 2.669 . S
Ho560 O587 2.346 . S
Ho560 O591 2.305 . S
Ho561 C572 2.811 . S
Ho561 O581 2.346 . S
Ho561 O585 2.305 . S
Ho561 O586 2.322 . S
Ho561 O588 2.378 . S
Ho561 O589 2.524 . S
Ho561 O590 2.381 . S
Ho561 O591 2.669 . S
C562 O580 1.259 . S
C562 O581 1.268 . S
C563 Ho560 2.811 . S
C563 C564 1.488 . S
C563 O582 1.215 . S
C563 O583 1.289 . S
C564 C563 1.488 . S
C564 C565 1.348 . S
C564 C569 1.413 . S
C565 C564 1.348 . S
C565 C566 1.442 . S
C565 H592 0.930 . S
C566 C565 1.442 . S
C566 C567 1.381 . S
C566 H593 0.931 . S
C567 C566 1.381 . S
C567 C568 1.321 . S
C568 C567 1.321 . S
C568 C569 1.403 . S
C568 H594 0.934 . S
C569 C564 1.413 . S
C569 C568 1.403 . S
C569 H595 0.930 . S
C570 O584 1.275 . S
C570 O585 1.256 . S
C571 O586 1.259 . S
C571 O587 1.268 . S
C572 Ho561 2.811 . S
C572 C573 1.488 . S
C572 O588 1.215 . S
C572 O589 1.289 . S
C573 C572 1.488 . S
C573 C574 1.348 . S
C573 C578 1.413 . S
C574 C573 1.348 . S
C574 C575 1.442 . S
C574 H596 0.930 . S
C575 C574 1.442 . S
C575 C576 1.381 . S
C575 H597 0.931 . S
C576 C575 1.381 . S
C576 C577 1.321 . S
C577 C576 1.321 . S
C577 C578 1.403 . S
C577 H598 0.934 . S
C578 C573 1.413 . S
C578 C577 1.403 . S
C578 H599 0.930 . S
C579 O590 1.275 . S
C579 O591 1.256 . S
O580 Ho560 2.322 . S
O580 C562 1.259 . S
O581 Ho561 2.346 . S
O581 C562 1.268 . S
O582 Ho560 2.378 . S
O582 C563 1.215 . S
O583 Ho560 2.524 . S
O583 C563 1.289 . S
O584 Ho560 2.381 . S
O584 C570 1.275 . S
O585 Ho560 2.669 . S
O585 Ho561 2.305 . S
O585 C570 1.256 . S
O586 Ho561 2.322 . S
O586 C571 1.259 . S
O587 Ho560 2.346 . S
O587 C571 1.268 . S
O588 Ho561 2.378 . S
O588 C572 1.215 . S
O589 Ho561 2.524 . S
O589 C572 1.289 . S
O590 Ho561 2.381 . S
O590 C579 1.275 . S
O591 Ho560 2.305 . S
O591 Ho561 2.669 . S
O591 C579 1.256 . S
H592 C565 0.930 . S
H593 C566 0.931 . S
H594 C568 0.934 . S
H595 C569 0.930 . S
H596 C574 0.930 . S
H597 C575 0.931 . S
H598 C577 0.934 . S
H599 C578 0.930 . S
Ho600 C603 2.811 . S
Ho600 O620 2.322 . S
Ho600 O622 2.378 . S
Ho600 O623 2.524 . S
Ho600 O624 2.381 . S
Ho600 O625 2.669 1_655 S
Ho600 O627 2.346 1_655 S
Ho600 O631 2.305 . S
Ho601 C612 2.811 . S
Ho601 O621 2.346 1_455 S
Ho601 O625 2.305 . S
Ho601 O626 2.322 . S
Ho601 O628 2.378 . S
Ho601 O629 2.524 . S
Ho601 O630 2.381 . S
Ho601 O631 2.669 1_455 S
C602 O620 1.259 . S
C602 O621 1.268 . S
C603 Ho600 2.811 . S
C603 C604 1.488 . S
C603 O622 1.215 . S
C603 O623 1.289 . S
C604 C603 1.488 . S
C604 C605 1.348 . S
C604 C609 1.413 . S
C605 C604 1.348 . S
C605 C606 1.442 . S
C605 H632 0.930 . S
C606 C605 1.442 . S
C606 C607 1.381 . S
C606 H633 0.931 . S
C607 C606 1.381 . S
C607 C608 1.321 . S
C608 C607 1.321 . S
C608 C609 1.403 . S
C608 H634 0.934 . S
C609 C604 1.413 . S
C609 C608 1.403 . S
C609 H635 0.930 . S
C610 O624 1.293 . S
C610 O625 1.246 1_655 S
C611 O626 1.259 . S
C611 O627 1.268 . S
C612 Ho601 2.811 . S
C612 C613 1.488 . S
C612 O628 1.215 . S
C612 O629 1.289 . S
C613 C612 1.488 . S
C613 C614 1.348 . S
C613 C618 1.413 . S
C614 C613 1.348 . S
C614 C615 1.442 . S
C614 H636 0.930 . S
C615 C614 1.442 . S
C615 C616 1.381 . S
C615 H637 0.931 . S
C616 C615 1.381 . S
C616 C617 1.321 . S
C617 C616 1.321 . S
C617 C618 1.403 . S
C617 H638 0.934 . S
C618 C613 1.413 . S
C618 C617 1.403 . S
C618 H639 0.930 . S
C619 O630 1.299 . S
C619 O631 1.243 1_455 S
O620 Ho600 2.322 . S
O620 C602 1.259 . S
O621 Ho601 2.346 1_655 S
O621 C602 1.268 . S
O622 Ho600 2.378 . S
O622 C603 1.215 . S
O623 Ho600 2.524 . S
O623 C603 1.289 . S
O624 Ho600 2.381 . S
O624 C610 1.293 . S
O625 Ho600 2.669 1_455 S
O625 Ho601 2.305 . S
O625 C610 1.246 1_455 S
O626 Ho601 2.322 . S
O626 C611 1.259 . S
O627 Ho600 2.346 1_455 S
O627 C611 1.268 . S
O628 Ho601 2.378 . S
O628 C612 1.215 . S
O629 Ho601 2.524 . S
O629 C612 1.289 . S
O630 Ho601 2.381 . S
O630 C619 1.299 . S
O631 Ho600 2.305 . S
O631 Ho601 2.669 1_655 S
O631 C619 1.243 1_655 S
H632 C605 0.930 . S
H633 C606 0.931 . S
H634 C608 0.934 . S
H635 C609 0.930 . S
H636 C614 0.930 . S
H637 C615 0.931 . S
H638 C617 0.934 . S
H639 C618 0.930 . S
H640 C648 0.950 . S
H641 C653 0.950 . S
H642 C650 0.950 . S
H643 C652 0.950 . S
H644 C654 0.950 . S
H645 C656 0.950 . S
H646 C658 0.950 . S
H647 C659 0.950 . S
C648 H640 0.950 . S
C648 C649 1.414 . S
C648 C650 1.391 . S
C649 C648 1.414 . S
C649 C653 1.367 1_545 S
C650 H642 0.950 . S
C650 C648 1.391 . S
C650 C651 1.400 . S
C651 C650 1.400 . S
C651 C652 1.398 1_545 S
C651 C657 1.492 . S
C652 H643 0.950 . S
C652 C651 1.398 1_565 S
C652 C653 1.391 . S
C653 H641 0.950 . S
C653 C649 1.367 1_565 S
C653 C652 1.391 . S
C654 H644 0.950 . S
C654 C655 1.355 1_565 S
C654 C656 1.391 . S
C655 C654 1.355 1_545 S
C655 C659 1.423 . S
C656 H645 0.950 . S
C656 C654 1.391 . S
C656 C657 1.378 1_565 S
C657 C651 1.492 . S
C657 C656 1.378 1_545 S
C657 C658 1.421 . S
C658 H646 0.950 . S
C658 C657 1.421 . S
C658 C659 1.391 . S
C659 H647 0.950 . S
C659 C655 1.423 . S
C659 C658 1.391 . S
H660 C668 0.950 . S
H661 C673 0.950 . S
H662 C670 0.950 . S
H663 C672 0.950 . S
H664 C674 0.950 . S
H665 C676 0.950 . S
H666 C678 0.950 . S
H667 C679 0.950 . S
C668 H660 0.950 . S
C668 C669 1.386 . S
C668 C670 1.391 . S
C669 C668 1.386 . S
C669 C673 1.393 . S
C670 H662 0.950 . S
C670 C668 1.391 . S
C670 C671 1.400 . S
C671 C670 1.400 . S
C671 C672 1.398 . S
C671 C677 1.491 . S
C672 H663 0.950 . S
C672 C671 1.398 . S
C672 C673 1.391 . S
C673 H661 0.950 . S
C673 C669 1.393 . S
C673 C672 1.391 . S
C674 H664 0.950 . S
C674 C675 1.386 . S
C674 C676 1.391 . S
C675 C674 1.386 . S
C675 C679 1.393 . S
C676 H665 0.950 . S
C676 C674 1.391 . S
C676 C677 1.400 . S
C677 C671 1.491 . S
C677 C676 1.400 . S
C677 C678 1.398 . S
C678 H666 0.950 . S
C678 C677 1.398 . S
C678 C679 1.391 . S
C679 H667 0.950 . S
C679 C675 1.393 . S
C679 C678 1.391 . S
H680 C688 0.950 . S
H681 C693 0.950 . S
H682 C690 0.950 . S
H683 C692 0.950 . S
H684 C694 0.950 . S
H685 C696 0.950 . S
H686 C698 0.950 . S
H687 C699 0.950 . S
C688 H680 0.950 . S
C688 C689 1.386 . S
C688 C690 1.391 . S
C689 C688 1.386 . S
C689 C693 1.393 . S
C690 H682 0.950 . S
C690 C688 1.391 . S
C690 C691 1.400 . S
C691 C690 1.400 . S
C691 C692 1.398 . S
C691 C697 1.491 . S
C692 H683 0.950 . S
C692 C691 1.398 . S
C692 C693 1.391 . S
C693 H681 0.950 . S
C693 C689 1.393 . S
C693 C692 1.391 . S
C694 H684 0.950 . S
C694 C695 1.386 . S
C694 C696 1.391 . S
C695 C694 1.386 . S
C695 C699 1.393 . S
C696 H685 0.950 . S
C696 C694 1.391 . S
C696 C697 1.400 . S
C697 C691 1.491 . S
C697 C696 1.400 . S
C697 C698 1.398 . S
C698 H686 0.950 . S
C698 C697 1.398 . S
C698 C699 1.391 . S
C699 H687 0.950 . S
C699 C695 1.393 . S
C699 C698 1.391 . S
H700 C708 0.950 . S
H701 C713 0.950 . S
H702 C710 0.950 . S
H703 C712 0.950 . S
H704 C714 0.950 . S
H705 C716 0.950 . S
H706 C718 0.950 . S
H707 C719 0.950 . S
C708 H700 0.950 . S
C708 C709 1.414 . S
C708 C710 1.391 . S
C709 C708 1.414 . S
C709 C713 1.366 1_455 S
C710 H702 0.950 . S
C710 C708 1.391 . S
C710 C711 1.400 . S
C711 C710 1.400 . S
C711 C712 1.398 1_455 S
C711 C717 1.492 . S
C712 H703 0.950 . S
C712 C711 1.398 1_655 S
C712 C713 1.391 . S
C713 H701 0.950 . S
C713 C709 1.366 1_655 S
C713 C712 1.391 . S
C714 H704 0.950 . S
C714 C715 1.386 1_655 S
C714 C716 1.391 . S
C715 C714 1.386 1_455 S
C715 C719 1.393 . S
C716 H705 0.950 . S
C716 C714 1.391 . S
C716 C717 1.375 1_655 S
C717 C711 1.492 . S
C717 C716 1.375 1_455 S
C717 C718 1.423 . S
C718 H706 0.950 . S
C718 C717 1.423 . S
C718 C719 1.391 . S
C719 H707 0.950 . S
C719 C715 1.393 . S
C719 C718 1.391 . S
H720 C728 0.950 . S
H721 C733 0.950 . S
H722 C730 0.950 . S
H723 C732 0.950 . S
H724 C734 0.950 . S
H725 C736 0.950 1_554 S
H726 C738 0.950 . S
H727 C739 0.950 . S
C728 H720 0.950 . S
C728 C729 1.379 1_565 S
C728 C730 1.391 . S
C729 C728 1.379 1_545 S
C729 C733 1.400 . S
C730 H722 0.950 . S
C730 C728 1.391 . S
C730 C731 1.401 . S
C731 C730 1.401 . S
C731 C732 1.397 1_565 S
C731 C737 1.491 1_554 S
C732 H723 0.950 . S
C732 C731 1.397 1_545 S
C732 C733 1.391 . S
C733 H721 0.950 . S
C733 C729 1.400 . S
C733 C732 1.391 . S
C734 H724 0.950 . S
C734 C735 1.386 1_545 S
C734 C736 1.391 . S
C735 C734 1.386 1_565 S
C735 C739 1.393 . S
C736 H725 0.950 1_556 S
C736 C734 1.391 . S
C736 C737 1.400 1_545 S
C737 C731 1.491 1_556 S
C737 C736 1.400 1_565 S
C737 C738 1.398 . S
C738 H726 0.950 . S
C738 C737 1.398 . S
C738 C739 1.391 . S
C739 H727 0.950 . S
C739 C735 1.393 . S
C739 C738 1.391 . S
H740 C748 0.950 . S
H741 C753 0.950 . S
H742 C750 0.950 . S
H743 C752 0.950 . S
H744 C754 0.950 . S
H745 C756 0.950 . S
H746 C758 0.950 1_554 S
H747 C759 0.950 . S
C748 H740 0.950 . S
C748 C749 1.386 . S
C748 C750 1.391 . S
C749 C748 1.386 . S
C749 C753 1.393 . S
C750 H742 0.950 . S
C750 C748 1.391 . S
C750 C751 1.400 . S
C751 C750 1.400 . S
C751 C752 1.398 . S
C751 C757 1.484 1_554 S
C752 H743 0.950 . S
C752 C751 1.398 . S
C752 C753 1.391 . S
C753 H741 0.950 . S
C753 C749 1.393 . S
C753 C752 1.391 . S
C754 H744 0.950 . S
C754 C755 1.386 . S
C754 C756 1.391 . S
C755 C754 1.386 . S
C755 C759 1.393 . S
C756 H745 0.950 . S
C756 C754 1.391 . S
C756 C757 1.406 . S
C757 C751 1.484 1_556 S
C757 C756 1.406 . S
C757 C758 1.399 . S
C758 H746 0.950 1_556 S
C758 C757 1.399 . S
C758 C759 1.391 . S
C759 H747 0.950 . S
C759 C755 1.393 . S
C759 C758 1.391 . S
H760 C768 0.950 . S
H761 C773 0.950 . S
H762 C770 0.950 . S
H763 C772 0.950 . S
H764 C774 0.950 . S
H765 C776 0.950 1_554 S
H766 C778 0.950 . S
H767 C779 0.950 . S
C768 H760 0.950 . S
C768 C769 1.386 . S
C768 C770 1.391 . S
C769 C768 1.386 . S
C769 C773 1.393 . S
C770 H762 0.950 . S
C770 C768 1.391 . S
C770 C771 1.400 . S
C771 C770 1.400 . S
C771 C772 1.398 . S
C771 C777 1.484 1_554 S
C772 H763 0.950 . S
C772 C771 1.398 . S
C772 C773 1.391 . S
C773 H761 0.950 . S
C773 C769 1.393 . S
C773 C772 1.391 . S
C774 H764 0.950 . S
C774 C775 1.386 . S
C774 C776 1.391 . S
C775 C774 1.386 . S
C775 C779 1.393 . S
C776 H765 0.950 1_556 S
C776 C774 1.391 . S
C776 C777 1.403 . S
C777 C771 1.484 1_556 S
C777 C776 1.403 . S
C777 C778 1.403 . S
C778 H766 0.950 . S
C778 C777 1.403 . S
C778 C779 1.391 . S
C779 H767 0.950 . S
C779 C775 1.393 . S
C779 C778 1.391 . S
H780 C788 0.950 . S
H781 C793 0.950 . S
H782 C790 0.950 . S
H783 C792 0.950 . S
H784 C794 0.950 . S
H785 C796 0.950 . S
H786 C798 0.950 . S
H787 C799 0.950 . S
C788 H780 0.950 . S
C788 C789 1.358 1_455 S
C788 C790 1.391 . S
C789 C788 1.358 1_655 S
C789 C793 1.421 . S
C790 H782 0.950 . S
C790 C788 1.391 . S
C790 C791 1.357 1_455 S
C791 C790 1.357 1_655 S
C791 C792 1.442 . S
C791 C797 1.491 1_554 S
C792 H783 0.950 . S
C792 C791 1.442 . S
C792 C793 1.391 . S
C793 H781 0.950 . S
C793 C789 1.421 . S
C793 C792 1.391 . S
C794 H784 0.950 . S
C794 C795 1.386 . S
C794 C796 1.391 . S
C795 C794 1.386 . S
C795 C799 1.393 1_655 S
C796 H785 0.950 . S
C796 C794 1.391 . S
C796 C797 1.441 . S
C797 C791 1.491 1_556 S
C797 C796 1.441 . S
C797 C798 1.358 1_655 S
C798 H786 0.950 . S
C798 C797 1.358 1_455 S
C798 C799 1.391 . S
C799 H787 0.950 . S
C799 C795 1.393 1_455 S
C799 C798 1.391 . S
H800 C808 0.950 . S
H801 C813 0.950 . S
H802 C810 0.950 . S
H803 C812 0.950 . S
H804 C814 0.950 . S
H805 C816 0.950 1_455 S
H806 C818 0.950 . S
H807 C819 0.950 . S
C808 H800 0.950 . S
C808 C809 1.386 1_655 S
C808 C810 1.391 . S
C809 C808 1.386 1_455 S
C809 C813 1.393 . S
C810 H802 0.950 . S
C810 C808 1.391 . S
C810 C811 1.400 . S
C811 C810 1.400 . S
C811 C812 1.398 1_655 S
C811 C817 1.491 . S
C812 H803 0.950 . S
C812 C811 1.398 1_455 S
C812 C813 1.391 . S
C813 H801 0.950 . S
C813 C809 1.393 . S
C813 C812 1.391 . S
C814 H804 0.950 . S
C814 C815 1.386 . S
C814 C816 1.391 . S
C815 C814 1.386 . S
C815 C819 1.393 . S
C816 H805 0.950 1_655 S
C816 C814 1.391 . S
C816 C817 1.400 . S
C817 C811 1.491 . S
C817 C816 1.400 . S
C817 C818 1.398 . S
C818 H806 0.950 . S
C818 C817 1.398 . S
C818 C819 1.391 . S
C819 H807 0.950 . S
C819 C815 1.393 . S
C819 C818 1.391 . S
H820 C828 0.950 . S
H821 C833 0.950 . S
H822 C830 0.952 . S
H823 C832 0.950 . S
H824 C834 0.950 . S
H825 C836 0.950 . S
H826 C838 0.950 . S
H827 C839 0.950 . S
C828 H820 0.950 . S
C828 C829 1.386 . S
C828 C830 1.391 1_545 S
C829 C828 1.386 . S
C829 C833 1.393 1_545 S
C830 H822 0.952 . S
C830 C828 1.391 1_565 S
C830 C831 1.400 . S
C831 C830 1.400 . S
C831 C832 1.398 . S
C831 C837 1.491 . S
C832 H823 0.950 . S
C832 C831 1.398 . S
C832 C833 1.391 . S
C833 H821 0.950 . S
C833 C829 1.393 1_565 S
C833 C832 1.391 . S
C834 H824 0.950 . S
C834 C835 1.386 . S
C834 C836 1.391 . S
C835 C834 1.386 . S
C835 C839 1.393 . S
C836 H825 0.950 . S
C836 C834 1.391 . S
C836 C837 1.400 . S
C837 C831 1.491 . S
C837 C836 1.400 . S
C837 C838 1.398 . S
C838 H826 0.950 . S
C838 C837 1.398 . S
C838 C839 1.391 . S
C839 H827 0.950 . S
C839 C835 1.393 . S
C839 C838 1.391 . S
H840 C848 0.950 . S
H841 C853 0.950 . S
H842 C850 0.950 . S
H843 C852 0.950 . S
H844 C854 0.950 . S
H845 C856 0.950 . S
H846 C858 0.950 . S
H847 C859 0.950 . S
C848 H840 0.950 . S
C848 C849 1.386 . S
C848 C850 1.391 . S
C849 C848 1.386 . S
C849 C853 1.393 . S
C850 H842 0.950 . S
C850 C848 1.391 . S
C850 C851 1.400 . S
C851 C850 1.400 . S
C851 C852 1.398 . S
C851 C857 1.491 . S
C852 H843 0.950 . S
C852 C851 1.398 . S
C852 C853 1.391 . S
C853 H841 0.950 . S
C853 C849 1.393 . S
C853 C852 1.391 . S
C854 H844 0.950 . S
C854 C855 1.386 . S
C854 C856 1.391 . S
C855 C854 1.386 . S
C855 C859 1.393 . S
C856 H845 0.950 . S
C856 C854 1.391 . S
C856 C857 1.400 . S
C857 C851 1.491 . S
C857 C856 1.400 . S
C857 C858 1.398 . S
C858 H846 0.950 . S
C858 C857 1.398 . S
C858 C859 1.391 . S
C859 H847 0.950 . S
C859 C855 1.393 . S
C859 C858 1.391 . S
H860 C868 0.950 . S
H861 C873 0.950 . S
H862 C870 0.950 . S
H863 C872 0.950 . S
H864 C874 0.950 . S
H865 C876 0.950 . S
H866 C878 0.950 . S
H867 C879 0.950 . S
C868 H860 0.950 . S
C868 C869 1.386 . S
C868 C870 1.391 . S
C869 C868 1.386 . S
C869 C873 1.393 . S
C870 H862 0.950 . S
C870 C868 1.391 . S
C870 C871 1.400 . S
C871 C870 1.400 . S
C871 C872 1.398 . S
C871 C877 1.491 . S
C872 H863 0.950 . S
C872 C871 1.398 . S
C872 C873 1.391 . S
C873 H861 0.950 . S
C873 C869 1.393 . S
C873 C872 1.391 . S
C874 H864 0.950 . S
C874 C875 1.386 . S
C874 C876 1.391 . S
C875 C874 1.386 . S
C875 C879 1.393 . S
C876 H865 0.950 . S
C876 C874 1.391 . S
C876 C877 1.400 . S
C877 C871 1.491 . S
C877 C876 1.400 . S
C877 C878 1.398 . S
C878 H866 0.950 . S
C878 C877 1.398 . S
C878 C879 1.391 . S
C879 H867 0.950 . S
C879 C875 1.393 . S
C879 C878 1.391 . S
H880 C888 0.950 . S
H881 C893 0.950 . S
H882 C890 0.950 . S
H883 C892 0.950 . S
H884 C894 0.950 . S
H885 C896 0.950 1_655 S
H886 C898 0.950 . S
H887 C899 0.950 1_554 S
C888 H880 0.950 . S
C888 C889 1.386 1_455 S
C888 C890 1.391 . S
C889 C888 1.386 1_655 S
C889 C893 1.393 . S
C890 H882 0.950 . S
C890 C888 1.391 . S
C890 C891 1.400 . S
C891 C890 1.400 . S
C891 C892 1.398 1_455 S
C891 C897 1.491 . S
C892 H883 0.950 . S
C892 C891 1.398 1_655 S
C892 C893 1.391 . S
C893 H881 0.950 . S
C893 C889 1.393 . S
C893 C892 1.391 . S
C894 H884 0.950 . S
C894 C895 1.386 . S
C894 C896 1.391 . S
C895 C894 1.386 . S
C895 C899 1.393 . S
C896 H885 0.950 1_455 S
C896 C894 1.391 . S
C896 C897 1.400 1_556 S
C897 C891 1.491 . S
C897 C896 1.400 1_554 S
C897 C898 1.398 . S
C898 H886 0.950 . S
C898 C897 1.398 . S
C898 C899 1.391 1_554 S
C899 H887 0.950 1_556 S
C899 C895 1.393 . S
C899 C898 1.391 1_556 S
H900 C908 0.940 1_565 S
H901 C913 0.950 . S
H902 C910 0.950 . S
H903 C912 0.950 1_556 S
H904 C914 0.950 . S
H905 C916 0.950 . S
H906 C918 0.950 . S
H907 C919 0.950 . S
C908 H900 0.940 1_545 S
C908 C909 1.382 1_545 S
C908 C910 1.407 . S
C909 C908 1.382 1_565 S
C909 C913 1.393 1_565 S
C910 H902 0.950 . S
C910 C908 1.407 . S
C910 C911 1.400 . S
C911 C910 1.400 . S
C911 C912 1.398 . S
C911 C917 1.491 . S
C912 H903 0.950 1_554 S
C912 C911 1.398 . S
C912 C913 1.391 . S
C913 H901 0.950 . S
C913 C909 1.393 1_545 S
C913 C912 1.391 . S
C914 H904 0.950 . S
C914 C915 1.386 . S
C914 C916 1.391 . S
C915 C914 1.386 . S
C915 C919 1.393 1_556 S
C916 H905 0.950 . S
C916 C914 1.391 . S
C916 C917 1.400 1_556 S
C917 C911 1.491 . S
C917 C916 1.400 1_554 S
C917 C918 1.398 . S
C918 H906 0.950 . S
C918 C917 1.398 . S
C918 C919 1.391 . S
C919 H907 0.950 . S
C919 C915 1.393 1_554 S
C919 C918 1.391 . S
H920 C928 0.950 . S
H921 C933 0.950 . S
H922 C930 0.950 . S
H923 C932 0.950 . S
H924 C934 0.950 . S
H925 C936 0.950 . S
H926 C938 0.950 . S
H927 C939 0.950 . S
C928 H920 0.950 . S
C928 C929 1.386 . S
C928 C930 1.391 . S
C929 C928 1.386 . S
C929 C933 1.393 . S
C930 H922 0.950 . S
C930 C928 1.391 . S
C930 C931 1.400 . S
C931 C930 1.400 . S
C931 C932 1.398 . S
C931 C937 1.491 . S
C932 H923 0.950 . S
C932 C931 1.398 . S
C932 C933 1.391 . S
C933 H921 0.950 . S
C933 C929 1.393 . S
C933 C932 1.391 . S
C934 H924 0.950 . S
C934 C935 1.386 . S
C934 C936 1.391 1_556 S
C935 C934 1.386 . S
C935 C939 1.393 . S
C936 H925 0.950 . S
C936 C934 1.391 1_554 S
C936 C937 1.400 . S
C937 C931 1.491 . S
C937 C936 1.400 . S
C937 C938 1.398 1_554 S
C938 H926 0.950 . S
C938 C937 1.398 1_556 S
C938 C939 1.391 . S
C939 H927 0.950 . S
C939 C935 1.393 . S
C939 C938 1.391 . S
H940 C948 0.950 . S
H941 C953 0.950 . S
H942 C950 0.950 . S
H943 C952 0.950 1_556 S
H944 C954 0.950 . S
H945 C956 0.950 . S
H946 C958 0.950 . S
H947 C959 0.950 . S
C948 H940 0.950 . S
C948 C949 1.386 . S
C948 C950 1.391 . S
C949 C948 1.386 . S
C949 C953 1.393 . S
C950 H942 0.950 . S
C950 C948 1.391 . S
C950 C951 1.400 . S
C951 C950 1.400 . S
C951 C952 1.398 . S
C951 C957 1.491 . S
C952 H943 0.950 1_554 S
C952 C951 1.398 . S
C952 C953 1.391 . S
C953 H941 0.950 . S
C953 C949 1.393 . S
C953 C952 1.391 . S
C954 H944 0.950 . S
C954 C955 1.386 . S
C954 C956 1.391 . S
C955 C954 1.386 . S
C955 C959 1.393 1_556 S
C956 H945 0.950 . S
C956 C954 1.391 . S
C956 C957 1.400 1_556 S
C957 C951 1.491 . S
C957 C956 1.400 1_554 S
C957 C958 1.398 . S
C958 H946 0.950 . S
C958 C957 1.398 . S
C958 C959 1.391 . S
C959 H947 0.950 . S
C959 C955 1.393 1_554 S
C959 C958 1.391 . S
H960 C968 0.950 . S
H961 C973 0.950 . S
H962 C970 0.950 . S
H963 C972 0.950 . S
H964 C974 0.950 . S
H965 C976 0.950 . S
H966 C978 0.950 . S
H967 C979 0.950 . S
C968 H960 0.950 . S
C968 C969 1.386 . S
C968 C970 1.391 . S
C969 C968 1.386 . S
C969 C973 1.393 1_455 S
C970 H962 0.950 . S
C970 C968 1.391 . S
C970 C971 1.400 . S
C971 C970 1.400 . S
C971 C972 1.398 1_455 S
C971 C977 1.491 . S
C972 H963 0.950 . S
C972 C971 1.398 1_655 S
C972 C973 1.391 . S
C973 H961 0.950 . S
C973 C969 1.393 1_655 S
C973 C972 1.391 . S
C974 H964 0.950 . S
C974 C975 1.386 1_655 S
C974 C976 1.391 . S
C975 C974 1.386 1_455 S
C975 C979 1.393 . S
C976 H965 0.950 . S
C976 C974 1.391 . S
C976 C977 1.400 1_655 S
C977 C971 1.491 . S
C977 C976 1.400 1_455 S
C977 C978 1.398 . S
C978 H966 0.950 . S
C978 C977 1.398 . S
C978 C979 1.391 . S
C979 H967 0.950 . S
C979 C975 1.393 . S
C979 C978 1.391 . S
H980 C988 0.950 . S
H981 C993 0.950 . S
H982 C990 0.950 . S
H983 C992 0.950 . S
H984 C994 0.950 . S
H985 C996 0.950 . S
H986 C998 0.951 1_565 S
H987 C999 0.950 . S
C988 H980 0.950 . S
C988 C989 1.386 1_565 S
C988 C990 1.391 . S
C989 C988 1.386 1_545 S
C989 C993 1.393 . S
C990 H982 0.950 . S
C990 C988 1.391 . S
C990 C991 1.400 1_565 S
C991 C990 1.400 1_545 S
C991 C992 1.398 . S
C991 C997 1.491 . S
C992 H983 0.950 . S
C992 C991 1.398 . S
C992 C993 1.391 . S
C993 H981 0.950 . S
C993 C989 1.393 . S
C993 C992 1.391 . S
C994 H984 0.950 . S
C994 C995 1.386 . S
C994 C996 1.391 . S
C995 C994 1.386 . S
C995 C999 1.393 . S
C996 H985 0.950 . S
C996 C994 1.391 . S
C996 C997 1.400 . S
C997 C991 1.491 . S
C997 C996 1.400 . S
C997 C998 1.398 . S
C998 H986 0.951 1_545 S
C998 C997 1.398 . S
C998 C999 1.391 . S
C999 H987 0.950 . S
C999 C995 1.393 . S
C999 C998 1.391 . S
H1000 C1008 0.950 . S
H1001 C1013 0.950 . S
H1002 C1010 0.950 . S
H1003 C1012 0.950 . S
H1004 C1014 0.950 . S
H1005 C1016 0.950 . S
H1006 C1018 0.950 . S
H1007 C1019 0.950 . S
C1008 H1000 0.950 . S
C1008 C1009 1.386 . S
C1008 C1010 1.391 . S
C1009 C1008 1.386 . S
C1009 C1013 1.393 . S
C1010 H1002 0.950 . S
C1010 C1008 1.391 . S
C1010 C1011 1.400 . S
C1011 C1010 1.400 . S
C1011 C1012 1.398 . S
C1011 C1017 1.491 . S
C1012 H1003 0.950 . S
C1012 C1011 1.398 . S
C1012 C1013 1.391 . S
C1013 H1001 0.950 . S
C1013 C1009 1.393 . S
C1013 C1012 1.391 . S
C1014 H1004 0.950 . S
C1014 C1015 1.386 . S
C1014 C1016 1.391 . S
C1015 C1014 1.386 . S
C1015 C1019 1.393 . S
C1016 H1005 0.950 . S
C1016 C1014 1.391 . S
C1016 C1017 1.400 . S
C1017 C1011 1.491 . S
C1017 C1016 1.400 . S
C1017 C1018 1.398 . S
C1018 H1006 0.950 . S
C1018 C1017 1.398 . S
C1018 C1019 1.391 . S
C1019 H1007 0.950 . S
C1019 C1015 1.393 . S
C1019 C1018 1.391 . S
H1020 C1028 0.950 . S
H1021 C1033 0.950 . S
H1022 C1030 0.950 . S
H1023 C1032 0.950 . S
H1024 C1034 0.950 . S
H1025 C1036 0.950 . S
H1026 C1038 0.950 . S
H1027 C1039 0.950 . S
C1028 H1020 0.950 . S
C1028 C1029 1.386 . S
C1028 C1030 1.391 . S
C1029 C1028 1.386 . S
C1029 C1033 1.393 . S
C1030 H1022 0.950 . S
C1030 C1028 1.391 . S
C1030 C1031 1.400 . S
C1031 C1030 1.400 . S
C1031 C1032 1.398 . S
C1031 C1037 1.491 . S
C1032 H1023 0.950 . S
C1032 C1031 1.398 . S
C1032 C1033 1.391 . S
C1033 H1021 0.950 . S
C1033 C1029 1.393 . S
C1033 C1032 1.391 . S
C1034 H1024 0.950 . S
C1034 C1035 1.386 . S
C1034 C1036 1.391 . S
C1035 C1034 1.386 . S
C1035 C1039 1.393 . S
C1036 H1025 0.950 . S
C1036 C1034 1.391 . S
C1036 C1037 1.400 . S
C1037 C1031 1.491 . S
C1037 C1036 1.400 . S
C1037 C1038 1.398 . S
C1038 H1026 0.950 . S
C1038 C1037 1.398 . S
C1038 C1039 1.391 . S
C1039 H1027 0.950 . S
C1039 C1035 1.393 . S
C1039 C1038 1.391 . S
H1040 C1048 0.950 . S
H1041 C1053 0.950 . S
H1042 C1050 0.950 . S
H1043 C1052 0.950 . S
H1044 C1054 0.950 . S
H1045 C1056 0.950 . S
H1046 C1058 0.950 . S
H1047 C1059 0.950 . S
C1048 H1040 0.950 . S
C1048 C1049 1.386 1_455 S
C1048 C1050 1.391 . S
C1049 C1048 1.386 1_655 S
C1049 C1053 1.393 . S
C1050 H1042 0.950 . S
C1050 C1048 1.391 . S
C1050 C1051 1.400 1_455 S
C1051 C1050 1.400 1_655 S
C1051 C1052 1.398 . S
C1051 C1057 1.491 . S
C1052 H1043 0.950 . S
C1052 C1051 1.398 . S
C1052 C1053 1.391 . S
C1053 H1041 0.950 . S
C1053 C1049 1.393 . S
C1053 C1052 1.391 . S
C1054 H1044 0.950 . S
C1054 C1055 1.386 . S
C1054 C1056 1.391 . S
C1055 C1054 1.386 . S
C1055 C1059 1.393 1_655 S
C1056 H1045 0.950 . S
C1056 C1054 1.391 . S
C1056 C1057 1.400 . S
C1057 C1051 1.491 . S
C1057 C1056 1.400 . S
C1057 C1058 1.398 1_655 S
C1058 H1046 0.950 . S
C1058 C1057 1.398 1_455 S
C1058 C1059 1.391 . S
C1059 H1047 0.950 . S
C1059 C1055 1.393 1_455 S
C1059 C1058 1.391 . S
H1060 C1068 0.950 . S
H1061 C1073 0.949 1_545 S
H1062 C1070 0.950 . S
H1063 C1072 0.950 . S
H1064 C1074 0.950 . S
H1065 C1076 0.950 . S
H1066 C1078 0.950 . S
H1067 C1079 0.950 . S
C1068 H1060 0.950 . S
C1068 C1069 1.386 . S
C1068 C1070 1.391 . S
C1069 C1068 1.386 . S
C1069 C1073 1.393 . S
C1070 H1062 0.950 . S
C1070 C1068 1.391 . S
C1070 C1071 1.400 . S
C1071 C1070 1.400 . S
C1071 C1072 1.398 . S
C1071 C1077 1.491 . S
C1072 H1063 0.950 . S
C1072 C1071 1.398 . S
C1072 C1073 1.391 . S
C1073 H1061 0.949 1_565 S
C1073 C1069 1.393 . S
C1073 C1072 1.391 . S
C1074 H1064 0.950 . S
C1074 C1075 1.386 . S
C1074 C1076 1.391 . S
C1075 C1074 1.386 . S
C1075 C1079 1.393 . S
C1076 H1065 0.950 . S
C1076 C1074 1.391 . S
C1076 C1077 1.400 . S
C1077 C1071 1.491 . S
C1077 C1076 1.400 . S
C1077 C1078 1.398 . S
C1078 H1066 0.950 . S
C1078 C1077 1.398 . S
C1078 C1079 1.391 . S
C1079 H1067 0.950 . S
C1079 C1075 1.393 . S
C1079 C1078 1.391 . S
H1080 C1088 0.950 . S
H1081 C1093 0.950 . S
H1082 C1090 0.950 . S
H1083 C1092 0.950 . S
H1084 C1094 0.950 . S
H1085 C1096 0.950 . S
H1086 C1098 0.950 . S
H1087 C1099 0.950 . S
C1088 H1080 0.950 . S
C1088 C1089 1.386 . S
C1088 C1090 1.391 . S
C1089 C1088 1.386 . S
C1089 C1093 1.393 . S
C1090 H1082 0.950 . S
C1090 C1088 1.391 . S
C1090 C1091 1.400 . S
C1091 C1090 1.400 . S
C1091 C1092 1.398 . S
C1091 C1097 1.491 . S
C1092 H1083 0.950 . S
C1092 C1091 1.398 . S
C1092 C1093 1.391 . S
C1093 H1081 0.950 . S
C1093 C1089 1.393 . S
C1093 C1092 1.391 . S
C1094 H1084 0.950 . S
C1094 C1095 1.386 . S
C1094 C1096 1.391 . S
C1095 C1094 1.386 . S
C1095 C1099 1.393 . S
C1096 H1085 0.950 . S
C1096 C1094 1.391 . S
C1096 C1097 1.400 . S
C1097 C1091 1.491 . S
C1097 C1096 1.400 . S
C1097 C1098 1.398 . S
C1098 H1086 0.950 . S
C1098 C1097 1.398 . S
C1098 C1099 1.391 . S
C1099 H1087 0.950 . S
C1099 C1095 1.393 . S
C1099 C1098 1.391 . S
H1100 C1108 0.950 . S
H1101 C1113 0.950 . S
H1102 C1110 0.950 . S
H1103 C1112 0.950 . S
H1104 C1114 0.950 . S
H1105 C1116 0.950 . S
H1106 C1118 0.950 . S
H1107 C1119 0.950 . S
C1108 H1100 0.950 . S
C1108 C1109 1.386 . S
C1108 C1110 1.391 . S
C1109 C1108 1.386 . S
C1109 C1113 1.393 . S
C1110 H1102 0.950 . S
C1110 C1108 1.391 . S
C1110 C1111 1.400 . S
C1111 C1110 1.400 . S
C1111 C1112 1.398 . S
C1111 C1117 1.491 . S
C1112 H1103 0.950 . S
C1112 C1111 1.398 . S
C1112 C1113 1.391 . S
C1113 H1101 0.950 . S
C1113 C1109 1.393 . S
C1113 C1112 1.391 . S
C1114 H1104 0.950 . S
C1114 C1115 1.386 . S
C1114 C1116 1.391 . S
C1115 C1114 1.386 . S
C1115 C1119 1.393 . S
C1116 H1105 0.950 . S
C1116 C1114 1.391 . S
C1116 C1117 1.400 . S
C1117 C1111 1.491 . S
C1117 C1116 1.400 . S
C1117 C1118 1.398 . S
C1118 H1106 0.950 . S
C1118 C1117 1.398 . S
C1118 C1119 1.391 . S
C1119 H1107 0.950 . S
C1119 C1115 1.393 . S
C1119 C1118 1.391 . S
C649 C391 2.251 . S
C655 C490 2.321 1_545 S
C675 C530 2.325 . S
C669 C451 2.236 . S
C695 C570 2.328 . S
C689 C241 1.962 . S
C715 C610 2.326 1_455 S
C709 C331 1.989 1_455 S
C735 C499 2.326 1_565 S
C729 C121 1.978 1_545 S
C749 C211 2.244 . S
C755 C539 2.327 . S
C769 C31 2.240 . S
C775 C579 2.329 . S
C789 C91 1.991 . S
C795 C619 2.326 1_655 S
C815 C496 0.461 . S
C809 C301 0.546 1_455 S
C835 C536 0.403 . S
C829 C380 0.342 . S
C855 C576 0.401 . S
C849 C440 0.341 . S
C869 C260 0.512 . S
C875 C616 0.406 . S
C889 C61 0.536 . S
C895 C487 0.433 . S
C915 C527 0.400 . S
C909 C140 0.493 . S
C935 C567 0.460 . S
C929 C200 0.463 . S
C949 C20 0.400 . S
C955 C607 0.402 . S
C969 C320 2.971 1_455 S
C975 C491 3.198 . S
C989 C361 2.577 . S
C995 C531 3.202 . S
C1015 C571 3.192 . S
C1009 C421 2.552 . S
C1035 C611 3.198 . S
C1029 C271 2.962 . S
C1049 C80 2.955 . S
C1055 C482 3.206 . S
C1075 C522 3.193 . S
C1069 C151 2.960 . S
C1095 C562 3.200 . S
C1089 C181 2.587 . S
C1109 C1 2.588 . S
C1115 C602 3.201 . S
