# Generated by pormake.
# Topology apo, (3,6)-cn, num edge types: 1
# Building blocks:
#     Node 0, Type 0, BuildingBlock: CUQRIR_clean_linker_1, # of connection points: 3
#     Node 1, Type 0, BuildingBlock: CUQRIR_clean_linker_1, # of connection points: 3
#     Node 2, Type 0, BuildingBlock: CUQRIR_clean_linker_1, # of connection points: 3
#     Node 3, Type 0, BuildingBlock: CUQRIR_clean_linker_1, # of connection points: 3
#     Node 4, Type 0, BuildingBlock: CUQRIR_clean_linker_1, # of connection points: 3
#     Node 5, Type 0, BuildingBlock: CUQRIR_clean_linker_1, # of connection points: 3
#     Node 6, Type 0, BuildingBlock: CUQRIR_clean_linker_1, # of connection points: 3
#     Node 7, Type 0, BuildingBlock: CUQRIR_clean_linker_1, # of connection points: 3
#     Node 8, Type 1, BuildingBlock: KUMJIN_clean_sbu_1, # of connection points: 6
#     Node 9, Type 1, BuildingBlock: KUMJIN_clean_sbu_1, # of connection points: 6
#     Node 10, Type 1, BuildingBlock: KUMJIN_clean_sbu_1, # of connection points: 6
#     Node 11, Type 1, BuildingBlock: KUMJIN_clean_sbu_1, # of connection points: 6
#     Edge 12, Type (0, 1), BuildingBlock: XUDNAN_clean_linker_2, # of connection points: 2
#     Edge 13, Type (0, 1), BuildingBlock: XUDNAN_clean_linker_2, # of connection points: 2
#     Edge 14, Type (0, 1), BuildingBlock: XUDNAN_clean_linker_2, # of connection points: 2
#     Edge 15, Type (0, 1), BuildingBlock: XUDNAN_clean_linker_2, # of connection points: 2
#     Edge 16, Type (0, 1), BuildingBlock: XUDNAN_clean_linker_2, # of connection points: 2
#     Edge 17, Type (0, 1), BuildingBlock: XUDNAN_clean_linker_2, # of connection points: 2
#     Edge 18, Type (0, 1), BuildingBlock: XUDNAN_clean_linker_2, # of connection points: 2
#     Edge 19, Type (0, 1), BuildingBlock: XUDNAN_clean_linker_2, # of connection points: 2
#     Edge 20, Type (0, 1), BuildingBlock: XUDNAN_clean_linker_2, # of connection points: 2
#     Edge 21, Type (0, 1), BuildingBlock: XUDNAN_clean_linker_2, # of connection points: 2
#     Edge 22, Type (0, 1), BuildingBlock: XUDNAN_clean_linker_2, # of connection points: 2
#     Edge 23, Type (0, 1), BuildingBlock: XUDNAN_clean_linker_2, # of connection points: 2
#     Edge 24, Type (0, 1), BuildingBlock: XUDNAN_clean_linker_2, # of connection points: 2
#     Edge 25, Type (0, 1), BuildingBlock: XUDNAN_clean_linker_2, # of connection points: 2
#     Edge 26, Type (0, 1), BuildingBlock: XUDNAN_clean_linker_2, # of connection points: 2
#     Edge 27, Type (0, 1), BuildingBlock: XUDNAN_clean_linker_2, # of connection points: 2
#     Edge 28, Type (0, 1), BuildingBlock: XUDNAN_clean_linker_2, # of connection points: 2
#     Edge 29, Type (0, 1), BuildingBlock: XUDNAN_clean_linker_2, # of connection points: 2
#     Edge 30, Type (0, 1), BuildingBlock: XUDNAN_clean_linker_2, # of connection points: 2
#     Edge 31, Type (0, 1), BuildingBlock: XUDNAN_clean_linker_2, # of connection points: 2
#     Edge 32, Type (0, 1), BuildingBlock: XUDNAN_clean_linker_2, # of connection points: 2
#     Edge 33, Type (0, 1), BuildingBlock: XUDNAN_clean_linker_2, # of connection points: 2
#     Edge 34, Type (0, 1), BuildingBlock: XUDNAN_clean_linker_2, # of connection points: 2
#     Edge 35, Type (0, 1), BuildingBlock: XUDNAN_clean_linker_2, # of connection points: 2
# Relax obj value: 0.045
# Max RMSD: 0.226
# Mean RMSD: 0.177
data_MOF--net-apo--node1-KUMJIN_clean_sbu_1--node2-CUQRIR_clean_linker_1--edge1-XUDNAN_clean_linker_2
_symmetry_space_group_name_H-M    P1
_symmetry_Int_Tables_number       1
_symmetry_cell_setting            triclinic
loop_
_symmetry_equiv_pos_as_xyz
'x, y, z'
_cell_length_a     25.859425
_cell_length_b     39.3456
_cell_length_c     47.424545
_cell_angle_alpha  90.006231
_cell_angle_beta   89.862926
_cell_angle_gamma 90.192502
loop_
_atom_site_label
_atom_site_type_symbol
_atom_site_fract_x
_atom_site_fract_y
_atom_site_fract_z
_atom_type_partial_charge
C0 C 0.24211 0.35496 0.42231 0.0
N1 N 0.27284 0.38252 0.42702 0.0
N2 N 0.23252 0.35121 0.39439 0.0
C3 C 0.21743 0.33365 0.44502 0.0
C4 C 0.25793 0.37753 0.38228 0.0
N5 N 0.28196 0.39679 0.40202 0.0
C6 C 0.26089 0.38351 0.35096 0.0
H7 H 0.24587 0.31466 0.45251 0.0
H8 H 0.18293 0.3199 0.43703 0.0
H9 H 0.20599 0.34971 0.46322 0.0
H10 H 0.23116 0.40242 0.34492 0.0
H11 H 0.25348 0.35969 0.33908 0.0
H12 H 0.29939 0.39372 0.34489 0.0
C13 C 0.26841 0.16636 0.91658 0.0
N14 N 0.23694 0.13961 0.92254 0.0
N15 N 0.28513 0.165 0.88954 0.0
C16 C 0.28472 0.19306 0.93748 0.0
C17 C 0.26278 0.13643 0.87918 0.0
N18 N 0.23388 0.12062 0.89931 0.0
C19 C 0.26435 0.12648 0.84849 0.0
H20 H 0.25656 0.21426 0.9369 0.0
H21 H 0.3235 0.20336 0.93212 0.0
H22 H 0.28542 0.18255 0.95919 0.0
H23 H 0.29494 0.10715 0.8453 0.0
H24 H 0.27335 0.14867 0.83489 0.0
H25 H 0.22682 0.11549 0.84171 0.0
C26 C 0.78119 0.18454 0.61301 0.0
N27 N 0.81881 0.16049 0.61316 0.0
N28 N 0.75989 0.18795 0.63902 0.0
C29 C 0.76924 0.20734 0.58838 0.0
C30 C 0.78581 0.1652 0.65495 0.0
N31 N 0.82197 0.14889 0.63944 0.0
C32 C 0.77445 0.15785 0.68552 0.0
H33 H 0.80414 0.21162 0.57518 0.0
H34 H 0.75434 0.23228 0.59559 0.0
H35 H 0.73921 0.19503 0.57515 0.0
H36 H 0.73358 0.16366 0.69076 0.0
H37 H 0.7999 0.17384 0.69891 0.0
H38 H 0.78232 0.1308 0.69052 0.0
C39 C 0.74746 0.32572 0.11896 0.0
N40 N 0.7206 0.35493 0.11582 0.0
N41 N 0.74241 0.31342 0.1454 0.0
C42 C 0.77795 0.30893 0.09575 0.0
C43 C 0.71128 0.33617 0.1584 0.0
N44 N 0.6987 0.3622 0.14069 0.0
C45 C 0.6857 0.32911 0.18639 0.0
H46 H 0.75227 0.29114 0.08416 0.0
H47 H 0.81104 0.29446 0.10442 0.0
H48 H 0.79284 0.32804 0.08056 0.0
H49 H 0.71229 0.33619 0.20376 0.0
H50 H 0.67741 0.30153 0.18852 0.0
H51 H 0.64891 0.34331 0.1886 0.0
C52 C 0.72374 0.68441 0.6163 0.0
N53 N 0.69752 0.65469 0.6133 0.0
N54 N 0.7345 0.69052 0.64375 0.0
C55 C 0.74182 0.70661 0.59235 0.0
C56 C 0.71413 0.66342 0.65747 0.0
N57 N 0.69216 0.64127 0.63896 0.0
C58 C 0.71071 0.66075 0.68911 0.0
H59 H 0.77757 0.7206 0.59818 0.0
H60 H 0.7114 0.72552 0.58745 0.0
H61 H 0.74937 0.69128 0.57314 0.0
H62 H 0.67495 0.64724 0.6957 0.0
H63 H 0.7112 0.68628 0.69905 0.0
H64 H 0.74461 0.64643 0.69699 0.0
C65 C 0.76642 0.83974 0.1188 0.0
N66 N 0.79713 0.86769 0.11688 0.0
N67 N 0.75553 0.83233 0.14605 0.0
C68 C 0.7436 0.82094 0.09408 0.0
C69 C 0.77999 0.85715 0.16075 0.0
N70 N 0.8048 0.87892 0.14304 0.0
C71 C 0.78356 0.85832 0.19241 0.0
H72 H 0.70627 0.80885 0.09997 0.0
H73 H 0.77059 0.80063 0.08733 0.0
H74 H 0.73717 0.83835 0.07603 0.0
H75 H 0.77751 0.8328 0.2018 0.0
H76 H 0.75319 0.87559 0.20059 0.0
H77 H 0.82171 0.86834 0.19919 0.0
C78 C 0.2534 0.83561 0.41511 0.0
N79 N 0.23183 0.86618 0.42129 0.0
N80 N 0.27746 0.8366 0.38969 0.0
C81 C 0.24767 0.80419 0.43292 0.0
C82 C 0.27008 0.86895 0.38088 0.0
N83 N 0.24216 0.88694 0.39986 0.0
C84 C 0.28905 0.88288 0.35313 0.0
H85 H 0.2798 0.78618 0.42926 0.0
H86 H 0.21093 0.79123 0.42732 0.0
H87 H 0.24633 0.81085 0.45565 0.0
H88 H 0.25846 0.87976 0.33697 0.0
H89 H 0.32409 0.86913 0.34595 0.0
H90 H 0.29788 0.91042 0.35505 0.0
C91 C 0.21848 0.6607 0.91209 0.0
N92 N 0.25913 0.63934 0.91536 0.0
N93 N 0.20827 0.66561 0.88438 0.0
C94 C 0.18953 0.6771 0.93603 0.0
C95 C 0.24432 0.64672 0.87091 0.0
N96 N 0.27562 0.63105 0.88969 0.0
C97 C 0.24842 0.64379 0.83929 0.0
H98 H 0.16051 0.69567 0.92857 0.0
H99 H 0.21729 0.68992 0.95037 0.0
H100 H 0.16916 0.65721 0.94839 0.0
H101 H 0.24463 0.66928 0.8295 0.0
H102 H 0.2161 0.6278 0.83147 0.0
H103 H 0.28502 0.63202 0.83223 0.0
Eu104 Eu 0.07956 0.11969 0.24114 0.0
C105 C 0.85025 0.08403 0.29048 0.0
N106 N 0.87682 0.11387 0.28979 0.0
C107 C 0.79905 0.1442 0.27928 0.0
C108 C 0.7965 0.0832 0.28559 0.0
C109 C 0.85214 0.14384 0.28477 0.0
C110 C 0.77109 0.11375 0.27965 0.0
C111 C 0.85015 0.02293 0.29789 0.0
C112 C 0.87678 0.05418 0.29639 0.0
C113 C 0.79647 0.02211 0.29346 0.0
C114 C 0.76981 0.05209 0.28707 0.0
Eu115 Eu 0.96582 0.11044 0.29966 0.0
N116 N 0.9288 0.05569 0.30041 0.0
C117 C 0.87829 0.99345 0.30392 0.0
C118 C 0.95612 0.02736 0.30744 0.0
C119 C 0.93147 0.99572 0.30883 0.0
H120 H 0.87324 0.16757 0.28545 0.0
H121 H 0.95338 0.97317 0.31396 0.0
H122 H 0.18485 0.08807 0.27233 0.0
H123 H 0.03242 0.25107 0.2123 0.0
H124 H 0.99687 0.02922 0.31188 0.0
H125 H 0.85925 0.96892 0.3051 0.0
H126 H 0.01979 0.18929 0.21341 0.0
H127 H 0.77963 0.168 0.2751 0.0
H128 H 0.77529 0.99834 0.29462 0.0
H129 H 0.72848 0.05097 0.28347 0.0
H130 H 0.26825 0.10906 0.2911 0.0
H131 H 0.72986 0.11415 0.27567 0.0
H132 H 0.11193 0.27638 0.23227 0.0
N133 N 0.15926 0.1371 0.26006 0.0
C134 C 0.1703 0.17088 0.25807 0.0
C135 C 0.24098 0.12668 0.28193 0.0
C136 C 0.21741 0.18388 0.26844 0.0
C137 C 0.19371 0.11489 0.27147 0.0
C138 C 0.25291 0.1613 0.28041 0.0
N139 N 0.08748 0.17957 0.23742 0.0
C140 C 0.05273 0.19991 0.22399 0.0
C141 C 0.14323 0.22794 0.24541 0.0
C142 C 0.13327 0.19269 0.24676 0.0
C143 C 0.10578 0.24917 0.23361 0.0
C144 C 0.06066 0.23502 0.22252 0.0
H145 H 0.28949 0.17035 0.28865 0.0
H146 H 0.26356 0.22932 0.27452 0.0
H147 H 0.19852 0.26789 0.25472 0.0
O148 O 0.08529 0.1293 0.19569 0.0
O149 O 0.08719 0.14377 0.28501 0.0
O150 O 0.00482 0.16136 0.29335 0.0
O151 O 0.14222 0.09787 0.2159 0.0
O152 O 0.9962 0.13043 0.22798 0.0
O153 O 0.96266 0.15349 0.26842 0.0
O154 O 0.98609 0.10158 0.34375 0.0
O155 O 0.95803 0.07468 0.26163 0.0
O156 O 0.03814 0.06901 0.2395 0.0
O157 O 0.91869 0.13141 0.33389 0.0
O158 O 0.04612 0.09065 0.30967 0.0
O159 O 0.08843 0.07292 0.26896 0.0
C160 C 0.05481 0.16564 0.2961 0.0
C161 C 0.12548 0.08746 0.16719 0.0
C162 C 0.13382 0.07965 0.1159 0.0
C163 C 0.12594 0.04454 0.11978 0.0
C164 C 0.11821 0.05234 0.17032 0.0
C165 C 0.11821 0.0311 0.14674 0.0
C166 C 0.13326 0.101 0.13993 0.0
C167 C 0.96017 0.14784 0.24122 0.0
C168 C 0.12576 0.11023 0.19208 0.0
C169 C 0.22737 0.21891 0.26687 0.0
C170 C 0.19029 0.24089 0.2556 0.0
C171 C 0.98976 0.0596 0.24372 0.0
C172 C 0.96336 0.14449 0.37605 0.0
C173 C 0.96971 0.15957 0.42601 0.0
C174 C 0.99681 0.18926 0.41835 0.0
C175 C 0.98959 0.17454 0.369 0.0
C176 C 0.95293 0.13721 0.4046 0.0
C177 C 0.00644 0.1967 0.39003 0.0
C178 C 0.07855 0.07067 0.29623 0.0
C179 C 0.94867 0.12013 0.35382 0.0
H180 H 0.12506 0.02742 0.10191 0.0
H181 H 0.11287 0.04132 0.19101 0.0
H182 H 0.11219 1.00405 0.14937 0.0
H183 H 0.1397 0.12808 0.13758 0.0
H184 H 0.00982 0.20706 0.43427 0.0
H185 H 0.99703 0.18078 0.34722 0.0
H186 H 0.93267 0.11398 0.41016 0.0
H187 H 0.02697 0.21974 0.38436 0.0
Eu188 Eu 0.43623 0.40312 0.74091 0.0
C189 C 0.67656 0.42344 0.78324 0.0
N190 N 0.64629 0.39539 0.78626 0.0
C191 C 0.71958 0.35944 0.7785 0.0
C192 C 0.72946 0.4205 0.7764 0.0
C193 C 0.66747 0.36371 0.78561 0.0
C194 C 0.75046 0.38796 0.77324 0.0
C195 C 0.6873 0.48424 0.78967 0.0
C196 C 0.65574 0.45496 0.78965 0.0
C197 C 0.73915 0.48175 0.78104 0.0
C198 C 0.76015 0.44994 0.77434 0.0
Eu199 Eu 0.55828 0.40528 0.79655 0.0
N200 N 0.60546 0.45661 0.79786 0.0
C201 C 0.66625 0.51486 0.7994 0.0
C202 C 0.58621 0.48553 0.80969 0.0
C203 C 0.61574 0.51536 0.80993 0.0
H204 H 0.64391 0.3417 0.79047 0.0
H205 H 0.59982 0.53854 0.81859 0.0
H206 H 0.36203 0.4693 0.76284 0.0
H207 H 0.38899 0.26795 0.73409 0.0
H208 H 0.54814 0.48534 0.81894 0.0
H209 H 0.68927 0.53791 0.79985 0.0
H210 H 0.44319 0.319 0.72789 0.0
H211 H 0.73595 0.3342 0.77732 0.0
H212 H 0.76377 0.50407 0.78042 0.0
H213 H 0.8007 0.44823 0.76873 0.0
H214 H 0.27742 0.47807 0.78514 0.0
H215 H 0.79094 0.38459 0.76801 0.0
H216 H 0.30181 0.27292 0.7552 0.0
N217 N 0.3556 0.41523 0.76222 0.0
C218 C 0.3236 0.38803 0.76596 0.0
C219 C 0.29018 0.45258 0.78019 0.0
C220 C 0.27387 0.39218 0.77779 0.0
C221 C 0.33879 0.44736 0.76804 0.0
C222 C 0.25776 0.42486 0.78534 0.0
N223 N 0.3879 0.35253 0.74582 0.0
C224 C 0.4054 0.32156 0.73718 0.0
C225 C 0.30743 0.32742 0.76093 0.0
C226 C 0.33998 0.35595 0.75736 0.0
C227 C 0.32552 0.29546 0.75258 0.0
C228 C 0.37471 0.29254 0.74066 0.0
H229 H 0.2199 0.42906 0.79452 0.0
H230 H 0.20309 0.36658 0.79024 0.0
H231 H 0.23241 0.30998 0.77545 0.0
O232 O 0.41307 0.38692 0.69857 0.0
O233 O 0.43313 0.3757 0.78378 0.0
O234 O 0.51548 0.35575 0.79159 0.0
O235 O 0.4018 0.43903 0.71122 0.0
O236 O 0.50167 0.36836 0.72812 0.0
O237 O 0.56723 0.36382 0.76221 0.0
O238 O 0.52843 0.40746 0.83979 0.0
O239 O 0.55633 0.44768 0.76382 0.0
O240 O 0.51654 0.41996 0.72729 0.0
O241 O 0.60724 0.39234 0.83252 0.0
O242 O 0.47975 0.42955 0.80482 0.0
O243 O 0.45053 0.45278 0.76372 0.0
C244 C 0.46506 0.35201 0.79286 0.0
C245 C 0.34742 0.41755 0.67494 0.0
C246 C 0.30359 0.42119 0.62933 0.0
C247 C 0.25592 0.42274 0.64354 0.0
C248 C 0.29935 0.41873 0.68865 0.0
C249 C 0.25388 0.42121 0.67297 0.0
C250 C 0.34936 0.41829 0.6452 0.0
C251 C 0.54524 0.35533 0.73776 0.0
C252 C 0.39593 0.41664 0.6912 0.0
C253 C 0.24137 0.36382 0.78121 0.0
C254 C 0.25802 0.33158 0.7727 0.0
C255 C 0.54361 0.44557 0.73706 0.0
C256 C 0.56797 0.37252 0.87434 0.0
C257 C 0.58837 0.35691 0.92318 0.0
C258 C 0.56574 0.3248 0.91823 0.0
C259 C 0.54552 0.34051 0.87005 0.0
C260 C 0.58891 0.38072 0.90087 0.0
C261 C 0.54429 0.31685 0.89198 0.0
C262 C 0.46052 0.45522 0.79074 0.0
C263 C 0.57146 0.39744 0.85127 0.0
H264 H 0.2202 0.42503 0.6318 0.0
H265 H 0.29699 0.41808 0.71142 0.0
H266 H 0.21691 0.42229 0.68368 0.0
H267 H 0.38641 0.41754 0.63447 0.0
H268 H 0.56541 0.30542 0.93443 0.0
H269 H 0.5294 0.33377 0.84975 0.0
H270 H 0.60547 0.40576 0.90402 0.0
H271 H 0.52718 0.29205 0.88851 0.0
Eu272 Eu 0.05279 0.90054 0.74041 0.0
C273 C 0.82849 0.87316 0.77611 0.0
N274 N 0.85113 0.90436 0.77733 0.0
C275 C 0.77853 0.92923 0.75396 0.0
C276 C 0.77993 0.86873 0.76318 0.0
C277 C 0.82692 0.93236 0.76683 0.0
C278 C 0.75505 0.89726 0.75198 0.0
C279 C 0.83151 0.81303 0.78709 0.0
C280 C 0.85463 0.84555 0.78741 0.0
C281 C 0.78376 0.8083 0.77356 0.0
C282 C 0.75809 0.83607 0.76158 0.0
Eu283 Eu 0.93481 0.90692 0.79677 0.0
N284 N 0.90125 0.8508 0.80001 0.0
C285 C 0.85616 0.7865 0.80131 0.0
C286 C 0.92183 0.8261 0.81673 0.0
C287 C 0.90072 0.79333 0.81688 0.0
H288 H 0.84539 0.957 0.76808 0.0
H289 H 0.91835 0.77352 0.82941 0.0
H290 H 0.11553 0.82807 0.75647 0.0
H291 H 0.12285 0.0312 0.73641 0.0
H292 H 0.9539 0.83162 0.83049 0.0
H293 H 0.8397 0.76114 0.80158 0.0
H294 H 0.05843 0.98497 0.73225 0.0
H295 H 0.75955 0.9514 0.74539 0.0
H296 H 0.76582 0.78339 0.77276 0.0
H297 H 0.72107 0.83207 0.75144 0.0
H298 H 0.20172 0.81071 0.77322 0.0
H299 H 0.71775 0.89488 0.7418 0.0
H300 H 0.21235 0.01805 0.75106 0.0
N301 N 0.13389 0.8808 0.75601 0.0
C302 C 0.17126 0.90491 0.75915 0.0
C303 C 0.19359 0.8373 0.76947 0.0
C304 C 0.22161 0.89596 0.76766 0.0
C305 C 0.14453 0.84728 0.76041 0.0
C306 C 0.23228 0.86173 0.77317 0.0
N307 N 0.11007 0.94667 0.74593 0.0
C308 C 0.0969 0.9792 0.73938 0.0
C309 C 0.19758 0.96411 0.75564 0.0
C310 C 0.15932 0.93869 0.75343 0.0
C311 C 0.18405 0.99776 0.74958 0.0
C312 C 0.1335 1.00532 0.74141 0.0
H313 H 0.27042 0.85386 0.77991 0.0
H314 H 0.29868 0.91487 0.77654 0.0
H315 H 0.27783 0.97439 0.76572 0.0
O316 O 0.05197 0.91661 0.69603 0.0
O317 O 0.07119 0.9252 0.78382 0.0
O318 O 0.99345 0.94871 0.79533 0.0
O319 O 0.09351 0.8715 0.70808 0.0
O320 O 0.98839 0.93777 0.72935 0.0
O321 O 0.94759 0.95532 0.77095 0.0
O322 O 0.94208 0.9071 0.84269 0.0
O323 O 0.91824 0.89388 0.75094 0.0
O324 O 0.98748 0.86156 0.73777 0.0
O325 O 0.87898 0.93384 0.82347 0.0
O326 O 0.00614 0.87469 0.80692 0.0
O327 O 0.02842 0.85328 0.76362 0.0
C328 C 0.04279 0.94516 0.79999 0.0
C329 C 0.12486 0.90118 0.66811 0.0
C330 C 0.15963 0.90427 0.61981 0.0
C331 C 0.2082 0.91291 0.63133 0.0
C332 C 0.1735 0.91027 0.67868 0.0
C333 C 0.21474 0.91623 0.66039 0.0
C334 C 0.11784 0.89869 0.63868 0.0
C335 C 0.95973 0.95922 0.74393 0.0
C336 C 0.08222 0.89218 0.6876 0.0
C337 C 0.25975 0.92129 0.77009 0.0
C338 C 0.24788 0.9552 0.76389 0.0
C339 C 0.93791 0.86857 0.73666 0.0
C340 C 0.86394 0.90787 0.86793 0.0
C341 C 0.84005 0.89699 0.91707 0.0
C342 C 0.80287 0.87342 0.9078 0.0
C343 C 0.82611 0.88448 0.85922 0.0
C344 C 0.87041 0.91441 0.89697 0.0
C345 C 0.79575 0.86744 0.87907 0.0
C346 C 0.02777 0.85115 0.79114 0.0
C347 C 0.89917 0.92342 0.84704 0.0
H348 H 0.24193 0.91627 0.61808 0.0
H349 H 0.18001 0.91203 0.70108 0.0
H350 H 0.25236 0.92274 0.66883 0.0
H351 H 0.07991 0.89211 0.63071 0.0
H352 H 0.77899 0.85979 0.92286 0.0
H353 H 0.82038 0.8791 0.83711 0.0
H354 H 0.89982 0.93223 0.9039 0.0
H355 H 0.76686 0.84931 0.87215 0.0
Eu356 Eu 0.4444 0.60117 0.22831 0.0
C357 C 0.66317 0.64559 0.26733 0.0
N358 N 0.641 0.61438 0.27007 0.0
C359 C 0.71759 0.58845 0.25122 0.0
C360 C 0.71279 0.6495 0.25529 0.0
C361 C 0.66883 0.58588 0.26385 0.0
C362 C 0.73928 0.62045 0.2464 0.0
C363 C 0.66122 0.70586 0.2781 0.0
C364 C 0.63761 0.67353 0.27828 0.0
C365 C 0.70969 0.71008 0.26514 0.0
C366 C 0.73521 0.682 0.25352 0.0
Eu367 Eu 0.55605 0.61307 0.28943 0.0
N368 N 0.59036 0.66879 0.29019 0.0
C369 C 0.63593 0.73277 0.29161 0.0
C370 C 0.5663 0.69462 0.30423 0.0
C371 C 0.58841 0.72707 0.30488 0.0
H372 H 0.65407 0.56097 0.269 0.0
H373 H 0.56899 0.74757 0.31578 0.0
H374 H 0.3383 0.63222 0.25843 0.0
H375 H 0.47975 0.47371 0.18598 0.0
H376 H 0.53007 0.69004 0.31486 0.0
H377 H 0.65319 0.75787 0.2924 0.0
H378 H 0.49466 0.53498 0.19195 0.0
H379 H 0.73879 0.56572 0.24569 0.0
H380 H 0.72828 0.73478 0.26451 0.0
H381 H 0.77306 0.68551 0.24409 0.0
H382 H 0.25261 0.61223 0.27481 0.0
H383 H 0.77739 0.62237 0.23698 0.0
H384 H 0.4011 0.44729 0.20626 0.0
N385 N 0.363 0.58344 0.2454 0.0
C386 C 0.35037 0.5502 0.24183 0.0
C387 C 0.27982 0.59448 0.26571 0.0
C388 C 0.30179 0.53763 0.25055 0.0
C389 C 0.32841 0.60574 0.25663 0.0
C390 C 0.26646 0.56024 0.26272 0.0
N391 N 0.43136 0.54232 0.21957 0.0
C392 C 0.46323 0.5233 0.20302 0.0
C393 C 0.37375 0.49429 0.22469 0.0
C394 C 0.38602 0.52888 0.22909 0.0
C395 C 0.40903 0.47396 0.21004 0.0
C396 C 0.45358 0.48871 0.19872 0.0
H397 H 0.22874 0.55158 0.26971 0.0
H398 H 0.25287 0.49293 0.2534 0.0
H399 H 0.31601 0.45491 0.23092 0.0
O400 O 0.42384 0.59412 0.18407 0.0
O401 O 0.42912 0.58089 0.27286 0.0
O402 O 0.51098 0.56478 0.28263 0.0
O403 O 0.40053 0.64004 0.20556 0.0
O404 O 0.52624 0.58429 0.21825 0.0
O405 O 0.56395 0.56667 0.25992 0.0
O406 O 0.53668 0.61374 0.33461 0.0
O407 O 0.53902 0.6557 0.25844 0.0
O408 O 0.5208 0.62733 0.21764 0.0
O409 O 0.61114 0.596 0.32132 0.0
O410 O 0.4762 0.63589 0.29898 0.0
O411 O 0.43778 0.64822 0.25559 0.0
C412 C 0.4616 0.56334 0.28827 0.0
C413 C 0.35238 0.62314 0.16475 0.0
C414 C 0.31359 0.62359 0.11754 0.0
C415 C 0.26443 0.62578 0.13031 0.0
C416 C 0.30306 0.62503 0.17691 0.0
C417 C 0.25936 0.62626 0.15969 0.0
C418 C 0.35737 0.62201 0.1352 0.0
C419 C 0.56031 0.56593 0.23207 0.0
C420 C 0.39968 0.62289 0.18202 0.0
C421 C 0.28993 0.50309 0.24673 0.0
C422 C 0.32597 0.48142 0.23403 0.0
C423 C 0.54296 0.65267 0.23107 0.0
C424 C 0.60744 0.62464 0.36502 0.0
C425 C 0.62625 0.63626 0.41474 0.0
C426 C 0.65424 0.66531 0.40648 0.0
C427 C 0.63709 0.65319 0.3575 0.0
C428 C 0.6027 0.61587 0.3938 0.0
C429 C 0.6598 0.67354 0.37808 0.0
C430 C 0.44282 0.6528 0.28308 0.0
C431 C 0.5823 0.60403 0.34276 0.0
H432 H 0.22977 0.62781 0.11769 0.0
H433 H 0.29834 0.6258 0.19958 0.0
H434 H 0.22132 0.62801 0.16916 0.0
H435 H 0.39567 0.61982 0.12608 0.0
H436 H 0.67311 0.68122 0.42204 0.0
H437 H 0.64337 0.65963 0.33569 0.0
H438 H 0.58079 0.5935 0.39986 0.0
H439 H 0.68234 0.69558 0.37195 0.0
H440 H 0.16946 0.89349 0.36012 0.0
H441 H 0.25773 0.9498 0.42184 0.0
H442 H 0.22366 1.00387 0.40252 0.0
H443 H 0.19868 0.94763 0.30418 0.0
H444 H 0.13707 0.94372 0.28675 0.0
H445 H 0.16053 0.90955 0.30843 0.0
H446 H 0.07706 0.91142 0.33878 0.0
H447 H 0.05275 0.94503 0.31673 0.0
H448 H 0.05707 0.9511 0.35432 0.0
H449 H 0.18307 0.05173 0.37426 0.0
H450 H 0.13904 0.08939 0.34008 0.0
H451 H 0.08602 1.00145 0.29329 0.0
C452 C 0.18003 0.91728 0.37008 0.0
C453 C 0.21478 0.91766 0.39301 0.0
C454 C 0.2296 0.94905 0.40502 0.0
C455 C 0.21096 0.9798 0.39388 0.0
C456 C 0.17832 0.97855 0.37045 0.0
C457 C 0.16291 0.94802 0.35874 0.0
C458 C 0.13156 0.95342 0.33214 0.0
C459 C 0.15859 0.93764 0.30636 0.0
C460 C 0.07633 0.93942 0.33572 0.0
C461 C 0.13179 0.99183 0.33053 0.0
C462 C 0.15843 1.00588 0.35301 0.0
C463 C 0.16243 0.04095 0.35655 0.0
C464 C 0.13763 0.06211 0.337 0.0
C465 C 0.11022 0.04816 0.31391 0.0
C466 C 0.10792 0.01263 0.31041 0.0
H467 H 0.28029 0.56263 0.89389 0.0
H468 H 0.36561 0.65175 0.86748 0.0
H469 H 0.42709 0.61547 0.84114 0.0
H470 H 0.39882 0.50499 0.9 0.0
H471 H 0.36256 0.4688 0.88755 0.0
H472 H 0.33075 0.50144 0.9078 0.0
H473 H 0.26403 0.50851 0.86761 0.0
H474 H 0.29637 0.4767 0.84687 0.0
H475 H 0.28637 0.51857 0.83253 0.0
H476 H 0.4641 0.57152 0.80871 0.0
H477 H 0.49015 0.52048 0.78161 0.0
H478 H 0.38942 0.45817 0.8334 0.0
C479 C 0.31356 0.5741 0.88372 0.0
C480 C 0.31889 0.60977 0.88269 0.0
C481 C 0.3618 0.62437 0.86866 0.0
C482 C 0.39641 0.60399 0.85347 0.0
C483 C 0.38834 0.56895 0.85332 0.0
C484 C 0.34925 0.55391 0.86897 0.0
C485 C 0.34799 0.51575 0.86418 0.0
C486 C 0.36081 0.49661 0.89151 0.0
C487 C 0.29558 0.50424 0.85208 0.0
C488 C 0.39087 0.51199 0.84253 0.0
C489 C 0.41308 0.5431 0.83625 0.0
C490 C 0.44856 0.54683 0.81424 0.0
C491 C 0.46276 0.51788 0.79881 0.0
C492 C 0.44295 0.48556 0.80614 0.0
C493 C 0.40643 0.48257 0.82818 0.0
H494 H 0.72546 0.59168 0.67397 0.0
H495 H 0.59677 0.62136 0.62128 0.0
H496 H 0.54736 0.57104 0.63762 0.0
H497 H 0.70892 0.49897 0.67111 0.0
H498 H 0.72403 0.49373 0.70794 0.0
H499 H 0.75225 0.52835 0.68829 0.0
H500 H 0.71535 0.57163 0.72454 0.0
H501 H 0.6886 0.53667 0.74411 0.0
H502 H 0.64718 0.57069 0.73267 0.0
H503 H 0.51082 0.51854 0.66166 0.0
H504 H 0.48728 0.47141 0.69374 0.0
H505 H 0.63541 0.48106 0.73549 0.0
C506 C 0.68706 0.58734 0.66568 0.0
C507 C 0.66516 0.61017 0.64609 0.0
C508 C 0.6148 0.60373 0.6357 0.0
C509 C 0.58636 0.57535 0.64506 0.0
C510 C 0.60855 0.55398 0.66514 0.0
C511 C 0.65767 0.55983 0.67547 0.0
C512 C 0.67062 0.53545 0.69915 0.0
C513 C 0.71669 0.51278 0.69113 0.0
C514 C 0.68099 0.5548 0.72675 0.0
C515 C 0.6209 0.51507 0.70079 0.0
C516 C 0.58603 0.52565 0.68056 0.0
C517 C 0.53778 0.51019 0.67762 0.0
C518 C 0.52474 0.48343 0.69592 0.0
C519 C 0.55921 0.47293 0.71735 0.0
C520 C 0.60794 0.48897 0.71969 0.0
H521 H 0.78 0.93474 0.17335 0.0
H522 H 0.90725 0.88281 0.13291 0.0
H523 H 0.96892 0.92412 0.15392 0.0
H524 H 0.83426 0.02199 0.16599 0.0
H525 H 0.80907 0.03526 0.1997 0.0
H526 H 0.77539 1.00338 0.17947 0.0
H527 H 0.77991 0.96171 0.22199 0.0
H528 H 0.81285 0.9941 0.24177 0.0
H529 H 0.84187 0.95282 0.23774 0.0
H530 H 0.01664 0.96727 0.18344 0.0
H531 H 0.04719 0.01288 0.21481 0.0
H532 H 0.88836 0.03907 0.23477 0.0
C533 C 0.8208 0.93275 0.1685 0.0
C534 C 0.83924 0.90596 0.15142 0.0
C535 C 0.89271 0.90356 0.14563 0.0
C536 C 0.92782 0.92672 0.15763 0.0
C537 C 0.9086 0.95233 0.1751 0.0
C538 C 0.85623 0.95589 0.18008 0.0
C539 C 0.84574 0.98517 0.20011 0.0
C540 C 0.81426 0.01311 0.18543 0.0
C541 C 0.8185 0.97262 0.227 0.0
C542 C 0.90043 0.99706 0.20624 0.0
C543 C 0.93605 0.97772 0.19159 0.0
C544 C 0.98901 0.98299 0.19454 0.0
C545 C 0.00602 0.00916 0.21237 0.0
C546 C 0.97039 0.0302 0.22691 0.0
C547 C 0.91677 0.02363 0.22399 0.0
H548 H 0.82911 0.0811 0.6301 0.0
H549 H 0.89612 0.16518 0.6761 0.0
H550 H 0.9434 0.12504 0.70665 0.0
H551 H 0.80567 0.02932 0.68625 0.0
H552 H 0.82295 0.98942 0.67016 0.0
H553 H 0.80115 0.02409 0.64856 0.0
H554 H 0.88502 0.02141 0.61871 0.0
H555 H 0.90657 0.98602 0.63973 0.0
H556 H 0.94694 0.0232 0.63605 0.0
H557 H 0.96773 0.07697 0.73779 0.0
H558 H 0.98319 0.02246 0.76241 0.0
H559 H 0.90725 0.96823 0.69451 0.0
C560 C 0.85583 0.09078 0.64572 0.0
C561 C 0.85983 0.12602 0.65075 0.0
C562 C 0.89354 0.13817 0.67191 0.0
C563 C 0.9201 0.11559 0.68941 0.0
C564 C 0.91323 0.08089 0.68505 0.0
C565 C 0.8833 0.0684 0.6632 0.0
C566 C 0.88043 0.02987 0.66426 0.0
C567 C 0.82421 0.01747 0.6675 0.0
C568 C 0.9063 0.0142 0.63813 0.0
C569 C 0.91152 0.02292 0.69072 0.0
C570 C 0.92971 0.05278 0.70247 0.0
C571 C 0.95499 0.05331 0.72842 0.0
C572 C 0.96304 0.02241 0.74239 0.0
C573 C 0.9467 0.99148 0.73013 0.0
C574 C 0.92071 0.99169 0.70399 0.0
H575 H 0.7063 0.39323 0.19268 0.0
H576 H 0.64239 0.40862 0.10879 0.0
H577 H 0.61751 0.46593 0.12225 0.0
H578 H 0.59001 0.42833 0.22433 0.0
H579 H 0.62406 0.4447 0.25458 0.0
H580 H 0.6475 0.40736 0.23676 0.0
H581 H 0.73655 0.43688 0.23033 0.0
H582 H 0.71277 0.47469 0.2474 0.0
H583 H 0.7401 0.47727 0.21247 0.0
H584 H 0.60546 0.52377 0.14418 0.0
H585 H 0.57559 0.56931 0.17543 0.0
H586 H 0.61726 0.5089 0.24859 0.0
C587 C 0.68564 0.40764 0.17705 0.0
C588 C 0.67819 0.39531 0.1491 0.0
C589 C 0.65228 0.41684 0.1297 0.0
C590 C 0.63705 0.44981 0.13731 0.0
C591 C 0.64527 0.46063 0.16488 0.0
C592 C 0.66638 0.43952 0.18485 0.0
C593 C 0.66231 0.45501 0.21417 0.0
C594 C 0.62897 0.43252 0.2336 0.0
C595 C 0.71615 0.46132 0.22683 0.0
C596 C 0.63554 0.48829 0.20744 0.0
C597 C 0.62875 0.49157 0.17866 0.0
C598 C 0.6088 0.52096 0.1668 0.0
C599 C 0.59207 0.54675 0.18488 0.0
C600 C 0.59173 0.54216 0.21461 0.0
C601 C 0.61591 0.51304 0.22604 0.0
H602 H 0.25489 0.45436 0.37511 0.0
H603 H 0.38342 0.40275 0.41407 0.0
H604 H 0.44405 0.44493 0.39325 0.0
H605 H 0.31185 0.46859 0.311 0.0
H606 H 0.28257 0.50962 0.30568 0.0
H607 H 0.2514 0.47903 0.32796 0.0
H608 H 0.25114 0.52486 0.36774 0.0
H609 H 0.28437 0.55435 0.34484 0.0
H610 H 0.31147 0.54373 0.37868 0.0
H611 H 0.49078 0.48651 0.36169 0.0
H612 H 0.52034 0.52583 0.32453 0.0
H613 H 0.3608 0.55018 0.30494 0.0
C614 C 0.29567 0.45292 0.38003 0.0
C615 C 0.31482 0.42567 0.39627 0.0
C616 C 0.36827 0.42387 0.40206 0.0
C617 C 0.40281 0.44759 0.39016 0.0
C618 C 0.38298 0.47315 0.37285 0.0
C619 C 0.33046 0.47634 0.36826 0.0
C620 C 0.31932 0.5038 0.34669 0.0
C621 C 0.2896 0.4893 0.32133 0.0
C622 C 0.28983 0.53345 0.36031 0.0
C623 C 0.37383 0.51436 0.33861 0.0
C624 C 0.40995 0.49681 0.35434 0.0
C625 C 0.46281 0.50076 0.3496 0.0
C626 C 0.47921 0.52309 0.32827 0.0
C627 C 0.44298 0.54112 0.31161 0.0
C628 C 0.38956 0.53689 0.31722 0.0
H629 H 0.25937 0.06091 0.87424 0.0
H630 H 0.13211 0.11558 0.91235 0.0
H631 H 0.07166 0.07087 0.89651 0.0
H632 H 0.19408 0.04307 0.81227 0.0
H633 H 0.22361 1.00217 0.80686 0.0
H634 H 0.25713 0.03418 0.82665 0.0
H635 H 0.26491 0.99116 0.86808 0.0
H636 H 0.23003 0.95972 0.84794 0.0
H637 H 0.20719 0.97192 0.88242 0.0
H638 H 0.02397 0.0254 0.87137 0.0
H639 H 0.99047 0.9833 0.83812 0.0
H640 H 0.14714 0.95948 0.81144 0.0
C641 C 0.21891 0.06288 0.87984 0.0
C642 C 0.20049 0.09151 0.89489 0.0
C643 C 0.14731 0.09349 0.90163 0.0
C644 C 0.11265 0.06829 0.89246 0.0
C645 C 0.13171 0.04135 0.87638 0.0
C646 C 0.18365 0.03837 0.87016 0.0
C647 C 0.19304 0.00964 0.84932 0.0
C648 C 0.21842 0.02313 0.82217 0.0
C649 C 0.22574 0.98143 0.86275 0.0
C650 C 0.13803 0.99757 0.84403 0.0
C651 C 0.10361 0.01588 0.86041 0.0
C652 C 0.05058 0.01076 0.85862 0.0
C653 C 0.03197 0.98675 0.8394 0.0
C654 C 0.06599 0.96812 0.82164 0.0
C655 C 0.12 0.97324 0.82448 0.0
H656 H 0.24687 0.08519 0.95751 0.0
H657 H 0.16918 0.18161 0.9476 0.0
H658 H 0.13192 0.17613 0.99556 0.0
H659 H 0.14395 0.04317 0.99958 0.0
H660 H 0.18949 0.02108 0.02163 0.0
H661 H 0.20634 0.03139 0.98572 0.0
H662 H 0.28833 0.06278 1.00331 0.0
H663 H 0.27153 0.05288 0.03925 0.0
H664 H 0.28193 0.09644 0.02888 0.0
H665 H 0.10801 0.162 0.04573 0.0
H666 H 0.0957 0.13912 0.09376 0.0
H667 H 0.19028 0.05198 0.0719 0.0
C668 C 0.22106 0.10463 0.96536 0.0
C669 C 0.21053 0.13379 0.949 0.0
C670 C 0.17746 0.15916 0.95996 0.0
C671 C 0.15623 0.15622 0.98712 0.0
C672 C 0.16835 0.12763 1.00312 0.0
C673 C 0.19965 0.10211 0.9926 0.0
C674 C 0.20821 0.07475 1.01468 0.0
C675 C 0.18565 0.04057 1.00481 0.0
C676 C 0.26593 0.07154 0.02195 0.0
C677 C 0.17758 0.08913 0.0393 0.0
C678 C 0.15474 0.11959 0.03213 0.0
C679 C 0.12553 0.13807 0.05154 0.0
C680 C 0.11915 0.125 0.07892 0.0
C681 C 0.14193 0.09371 0.08685 0.0
C682 C 0.17162 0.07571 0.06657 0.0
H683 H 0.31849 0.35082 0.47133 0.0
H684 H 0.25265 0.4464 0.44445 0.0
H685 H 0.26126 0.46892 0.49301 0.0
H686 H 0.25384 0.34609 0.53576 0.0
H687 H 0.30644 0.32765 0.55532 0.0
H688 H 0.30178 0.32078 0.5179 0.0
H689 H 0.39422 0.34498 0.51103 0.0
H690 H 0.39934 0.35177 0.54852 0.0
H691 H 0.40973 0.38663 0.52448 0.0
H692 H 0.26595 0.47803 0.54551 0.0
H693 H 0.27145 0.4745 0.59754 0.0
H694 H 0.33603 0.37338 0.59085 0.0
C695 C 0.30696 0.37672 0.47568 0.0
C696 C 0.28524 0.39706 0.45419 0.0
C697 C 0.27021 0.43073 0.46054 0.0
C698 C 0.27468 0.44358 0.48808 0.0
C699 C 0.29475 0.42251 0.50903 0.0
C700 C 0.31129 0.38991 0.50309 0.0
C701 C 0.32847 0.37179 0.52973 0.0
C702 C 0.29567 0.33969 0.53498 0.0
C703 C 0.38639 0.3633 0.52835 0.0
C704 C 0.31769 0.39891 0.55173 0.0
C705 C 0.29839 0.42802 0.53929 0.0
C706 C 0.28198 0.45564 0.55539 0.0
C707 C 0.28511 0.45341 0.58489 0.0
C708 C 0.30486 0.42393 0.59808 0.0
C709 C 0.32191 0.3965 0.58122 0.0
H710 H 0.63494 0.33452 0.08892 0.0
H711 H 0.77021 0.39853 0.08079 0.0
H712 H 0.74807 0.40973 0.0306 0.0
H713 H 0.64394 0.2953 0.02366 0.0
H714 H 0.57546 0.2936 1.01676 0.0
H715 H 0.59848 0.29417 0.05253 0.0
H716 H 0.54295 0.34733 0.06324 0.0
H717 H 0.51907 0.34668 0.02757 0.0
H718 H 0.54943 0.38451 0.04129 0.0
H719 H 0.71577 0.40797 0.97992 0.0
H720 H 0.67476 0.39633 0.93406 0.0
H721 H 0.55741 0.3354 0.97623 0.0
C722 C 0.65872 0.35176 0.07666 0.0
C723 C 0.70352 0.3664 0.08856 0.0
C724 C 0.73514 0.38788 0.07197 0.0
C725 C 0.72291 0.39415 0.04354 0.0
C726 C 0.67878 0.3788 0.03219 0.0
C727 C 0.6468 0.3584 0.0484 0.0
C728 C 0.60333 0.3434 0.03095 0.0
C729 C 0.60547 0.30431 0.03098 0.0
C730 C 0.55057 0.35626 0.04138 0.0
C731 C 0.61647 0.35774 1.00216 0.0
C732 C 0.65998 0.37817 1.00327 0.0
C733 C 0.68107 0.39257 0.97895 0.0
C734 C 0.65717 0.38592 0.95291 0.0
C735 C 0.6123 0.36509 0.95119 0.0
C736 C 0.59174 0.3512 0.97643 0.0
H737 H 0.78873 0.14064 0.56122 0.0
H738 H 0.92345 0.16275 0.61198 0.0
H739 H 0.97925 0.15735 0.56969 0.0
H740 H 0.85219 0.08146 0.50982 0.0
H741 H 0.81537 0.09815 0.48074 0.0
H742 H 0.78786 0.09754 0.51571 0.0
H743 H 0.77112 0.16229 0.51247 0.0
H744 H 0.79885 0.16321 0.47767 0.0
H745 H 0.82428 0.1906 0.50481 0.0
H746 H 0.01808 0.15797 0.52094 0.0
H747 H 0.03754 0.16306 0.47007 0.0
H748 H 0.877 0.14176 0.45049 0.0
C749 C 0.83019 0.14335 0.56343 0.0
C750 C 0.85207 0.15163 0.58982 0.0
C751 C 0.90625 0.15559 0.59206 0.0
C752 C 0.93807 0.15279 0.5681 0.0
C753 C 0.91503 0.14585 0.54211 0.0
C754 C 0.8623 0.14086 0.53969 0.0
C755 C 0.84643 0.13705 0.50907 0.0
C756 C 0.82415 0.10142 0.50351 0.0
C757 C 0.80791 0.16495 0.50051 0.0
C758 C 0.8982 0.14177 0.4945 0.0
C759 C 0.93736 0.14644 0.51396 0.0
C760 C 0.98787 0.15378 0.50556 0.0
C761 C 0.9985 0.1568 0.47663 0.0
C762 C 0.95887 0.15259 0.45632 0.0
C763 C 0.90828 0.14438 0.46548 0.0
H764 H 0.84672 0.83409 0.07537 0.0
H765 H 0.79143 0.93343 0.09978 0.0
H766 H 0.81052 0.95505 0.05163 0.0
H767 H 0.94555 0.86077 0.02193 0.0
H768 H 0.92837 0.82608 0.99892 0.0
H769 H 0.92247 0.82125 0.0366 0.0
H770 H 0.82614 0.80437 0.03071 0.0
H771 H 0.83152 0.80937 0.99315 0.0
H772 H 0.78308 0.83272 1.01242 0.0
H773 H 0.82438 0.96311 0.99856 0.0
H774 H 0.82735 0.95629 0.94652 0.0
H775 H 0.86493 0.84989 0.95679 0.0
C776 C 0.83981 0.86059 0.07068 0.0
C777 C 0.81763 0.88216 0.09115 0.0
C778 C 0.8091 0.9167 0.08443 0.0
C779 C 0.81964 0.92906 0.05712 0.0
C780 C 0.83872 0.90648 0.03685 0.0
C781 C 0.84882 0.87292 0.04346 0.0
C782 C 0.86207 0.85244 1.01741 0.0
C783 C 0.91795 0.83937 1.0188 0.0
C784 C 0.8234 0.82301 1.01318 0.0
C785 C 0.85625 0.87933 0.99486 0.0
C786 C 0.84412 0.9106 1.00643 0.0
C787 C 0.83453 0.93884 0.98939 0.0
C788 C 0.8364 0.93481 0.95989 0.0
C789 C 0.84663 0.90265 0.9478 0.0
C790 C 0.85749 0.87482 0.96558 0.0
H791 H 0.63803 0.68744 0.57557 0.0
H792 H 0.71459 0.59185 0.59146 0.0
H793 H 0.69133 0.57216 0.54329 0.0
H794 H 0.53454 0.65573 0.52769 0.0
H795 H 0.53956 0.69278 0.50549 0.0
H796 H 0.55317 0.69606 0.54266 0.0
H797 H 0.6436 0.72126 0.5313 0.0
H798 H 0.63033 0.71811 0.49422 0.0
H799 H 0.68693 0.69799 0.50864 0.0
H800 H 0.66875 0.56642 0.49087 0.0
H801 H 0.65431 0.57629 0.43982 0.0
H802 H 0.5973 0.67723 0.45833 0.0
C803 C 0.64896 0.66211 0.56901 0.0
C804 C 0.67795 0.64106 0.58709 0.0
C805 C 0.6918 0.6081 0.57794 0.0
C806 C 0.67878 0.59684 0.55064 0.0
C807 C 0.65182 0.61887 0.53285 0.0
C808 C 0.63704 0.65085 0.54182 0.0
C809 C 0.61409 0.6714 0.51798 0.0
C810 C 0.55694 0.67946 0.52381 0.0
C811 C 0.64563 0.7041 0.51273 0.0
C812 C 0.61968 0.64653 0.49384 0.0
C813 C 0.6404 0.61603 0.50283 0.0
C814 C 0.65182 0.59002 0.48376 0.0
C815 C 0.64325 0.59573 0.45481 0.0
C816 C 0.62435 0.6274 0.44521 0.0
C817 C 0.61127 0.65265 0.46515 0.0
H818 H 0.21668 0.60412 0.95839 0.0
H819 H 0.35452 0.65796 0.93213 0.0
H820 H 0.38842 0.65513 0.98103 0.0
H821 H 0.19955 0.64607 0.02104 0.0
H822 H 0.1769 0.61016 0.04125 0.0
H823 H 0.16782 0.61101 1.00367 0.0
H824 H 0.2158 0.55364 0.99862 0.0
H825 H 0.22429 0.55222 0.03632 0.0
H826 H 0.27964 0.54907 1.0133 0.0
H827 H 0.39979 0.65449 0.03398 0.0
H828 H 0.3919 0.65229 0.08567 0.0
H829 H 0.24734 0.59656 0.07743 0.0
C830 C 0.25473 0.61425 0.96292 0.0
C831 C 0.28349 0.63094 0.94171 0.0
C832 C 0.33267 0.64453 0.94816 0.0
C833 C 0.35188 0.6432 0.97586 0.0
C834 C 0.32151 0.62783 0.99669 0.0
C835 C 0.27435 0.61302 0.99041 0.0
C836 C 0.24743 0.60039 1.01686 0.0
C837 C 0.19483 0.61796 0.02093 0.0
C838 C 0.24146 0.56151 1.01623 0.0
C839 C 0.28587 0.61145 0.03915 0.0
C840 C 0.32847 0.62704 0.0271 0.0
C841 C 0.36724 0.64153 0.04359 0.0
C842 C 0.36246 0.63997 0.07308 0.0
C843 C 0.31925 0.62389 0.08604 0.0
C844 C 0.28083 0.60921 0.06854 0.0
H845 H 0.25933 0.91212 0.46076 0.0
H846 H 0.14321 0.83711 0.43977 0.0
H847 H 0.10527 0.84271 0.48763 0.0
H848 H 0.28277 0.88663 0.52802 0.0
H849 H 0.2902 0.92819 0.54351 0.0
H850 H 0.30338 0.92209 0.50663 0.0
H851 H 0.23735 0.96886 0.49364 0.0
H852 H 0.22463 0.97566 0.53061 0.0
H853 H 0.17211 0.96611 0.50694 0.0
H854 H 0.09012 0.84969 0.54006 0.0
H855 H 0.09382 0.86062 0.59107 0.0
H856 H 0.21386 0.93637 0.57665 0.0
C857 C 0.22437 0.89825 0.46586 0.0
C858 C 0.20351 0.87463 0.44658 0.0
C859 C 0.15927 0.85552 0.45431 0.0
C860 C 0.1376 0.85857 0.4814 0.0
C861 C 0.16009 0.88135 0.50033 0.0
C862 C 0.20183 0.90145 0.49267 0.0
C863 C 0.22081 0.92239 0.51744 0.0
C864 C 0.27764 0.91432 0.52429 0.0
C865 C 0.21326 0.96052 0.51182 0.0
C866 C 0.1848 0.90985 0.54052 0.0
C867 C 0.14995 0.88628 0.53025 0.0
C868 C 0.11625 0.86885 0.54818 0.0
C869 C 0.11847 0.87548 0.5773 0.0
C870 C 0.15395 0.89959 0.58847 0.0
C871 C 0.18657 0.91744 0.56937 0.0
H872 H 0.24299 0.28279 0.38956 0.0
H873 H 0.14476 0.36748 0.36761 0.0
H874 H 0.08761 0.32883 0.34049 0.0
H875 H 0.23818 0.24254 0.32404 0.0
H876 H 0.23532 0.19915 0.33633 0.0
H877 H 0.26648 0.23134 0.35737 0.0
H878 H 0.20776 0.21912 0.40002 0.0
H879 H 0.1777 0.1852 0.38038 0.0
H880 H 0.13855 0.21835 0.39555 0.0
H881 H 0.04203 0.2814 0.31553 0.0
H882 H 0.01156 0.22832 0.29313 0.0
H883 H 0.14211 0.17421 0.32842 0.0
C884 C 0.20888 0.29282 0.37938 0.0
C885 C 0.19763 0.32789 0.38069 0.0
C886 C 0.15344 0.34059 0.3668 0.0
C887 C 0.12096 0.31886 0.35143 0.0
C888 C 0.1334 0.28445 0.35008 0.0
C889 C 0.17617 0.2714 0.36372 0.0
C890 C 0.18185 0.23366 0.35777 0.0
C891 C 0.23352 0.2262 0.34298 0.0
C892 C 0.17612 0.21286 0.38506 0.0
C893 C 0.13624 0.22773 0.33825 0.0
C894 C 0.10836 0.2573 0.33453 0.0
C895 C 0.06359 0.25811 0.31825 0.0
C896 C 0.04653 0.22786 0.30566 0.0
C897 C 0.07457 0.19732 0.30902 0.0
C898 C 0.12028 0.19736 0.32532 0.0
H899 H 0.2718 0.23304 0.88244 0.0
H900 H 0.37428 0.14938 0.86331 0.0
H901 H 0.43147 0.18833 0.83638 0.0
H902 H 0.28171 0.27515 0.81554 0.0
H903 H 0.28047 0.31735 0.83053 0.0
H904 H 0.24914 0.28272 0.84859 0.0
H905 H 0.30366 0.29657 0.89309 0.0
H906 H 0.33527 0.33079 0.8745 0.0
H907 H 0.37321 0.29761 0.8904 0.0
H908 H 0.47765 0.2362 0.81215 0.0
H909 H 0.50914 0.28959 0.79076 0.0
H910 H 0.37485 0.34261 0.82335 0.0
C911 C 0.30662 0.2232 0.87276 0.0
C912 C 0.31904 0.18832 0.87491 0.0
C913 C 0.36439 0.17603 0.86176 0.0
C914 C 0.39697 0.19795 0.84652 0.0
C915 C 0.38353 0.23216 0.84455 0.0
C916 C 0.33947 0.2448 0.85729 0.0
C917 C 0.33367 0.28256 0.85145 0.0
C918 C 0.28324 0.28985 0.83555 0.0
C919 C 0.33664 0.30309 0.879 0.0
C920 C 0.38078 0.28904 0.83301 0.0
C921 C 0.40935 0.25966 0.8297 0.0
C922 C 0.45549 0.25932 0.81449 0.0
C923 C 0.47311 0.28978 0.80247 0.0
C924 C 0.44438 0.32017 0.80531 0.0
C925 C 0.39733 0.31967 0.8206 0.0
H926 H 0.76907 0.23116 0.68312 0.0
H927 H 0.66567 0.19937 0.61641 0.0
H928 H 0.59922 0.23959 0.63401 0.0
H929 H 0.67245 0.23746 0.73713 0.0
H930 H 0.70136 0.27407 0.75374 0.0
H931 H 0.74133 0.24424 0.73493 0.0
H932 H 0.77709 0.29308 0.70382 0.0
H933 H 0.73716 0.32315 0.72237 0.0
H934 H 0.73274 0.31962 0.68459 0.0
H935 H 0.54455 0.28301 0.65934 0.0
H936 H 0.5046 0.32546 0.69033 0.0
H937 H 0.64238 0.32613 0.74236 0.0
C938 C 0.73229 0.23264 0.67236 0.0
C939 C 0.7221 0.21225 0.64849 0.0
C940 C 0.67403 0.21509 0.63459 0.0
C941 C 0.63619 0.23768 0.64452 0.0
C942 C 0.64717 0.25706 0.66843 0.0
C943 C 0.69405 0.25472 0.68219 0.0
C944 C 0.69583 0.27779 0.70776 0.0
C945 C 0.70316 0.25715 0.735 0.0
C946 C 0.73821 0.30502 0.70443 0.0
C947 C 0.6424 0.2933 0.70641 0.0
C948 C 0.61517 0.28123 0.68345 0.0
C949 C 0.56544 0.29242 0.67749 0.0
C950 C 0.54301 0.31658 0.69544 0.0
C951 C 0.56987 0.32913 0.71944 0.0
C952 C 0.62028 0.31708 0.72476 0.0
H953 H 0.79809 0.30957 0.19345 0.0
H954 H 0.73939 0.24954 0.12397 0.0
H955 H 0.78671 0.1993 0.14179 0.0
H956 H 0.92255 0.27454 0.19638 0.0
H957 H 0.92719 0.27459 0.23428 0.0
H958 H 0.88685 0.30522 0.21681 0.0
H959 H 0.80784 0.28519 0.24638 0.0
H960 H 0.84822 0.2547 0.2641 0.0
H961 H 0.79022 0.24081 0.24647 0.0
H962 H 0.84745 0.15741 0.16489 0.0
H963 H 0.9107 0.12564 0.19388 0.0
H964 H 0.92401 0.21194 0.25023 0.0
C965 C 0.7944 0.28561 0.18241 0.0
C966 C 0.76568 0.28336 0.1572 0.0
C967 C 0.76208 0.25179 0.14302 0.0
C968 C 0.78853 0.22317 0.15308 0.0
C969 C 0.81758 0.22643 0.17767 0.0
C970 C 0.81995 0.25672 0.19241 0.0
C971 C 0.85444 0.25366 0.21806 0.0
C972 C 0.90047 0.27848 0.21625 0.0
C973 C 0.82331 0.2589 0.24537 0.0
C974 C 0.87196 0.21717 0.21512 0.0
C975 C 0.85049 0.20188 0.19164 0.0
C976 C 0.86377 0.16892 0.1836 0.0
C977 C 0.8998 0.15115 0.20005 0.0
C978 C 0.92144 0.16625 0.22438 0.0
C979 C 0.90705 0.19957 0.23204 0.0
H980 H 0.81939 0.69424 0.67721 0.0
H981 H 0.70076 0.75466 0.63727 0.0
H982 H 0.73985 0.80708 0.65701 0.0
H983 H 0.82927 0.745 0.7414 0.0
H984 H 0.89838 0.74052 0.74428 0.0
H985 H 0.86049 0.70748 0.72788 0.0
H986 H 0.91652 0.71171 0.68272 0.0
H987 H 0.95499 0.74455 0.69891 0.0
H988 H 0.92419 0.75225 0.66546 0.0
H989 H 0.79126 0.8526 0.68129 0.0
H990 H 0.85365 0.88873 0.70707 0.0
H991 H 0.94154 0.7993 0.73002 0.0
C992 C 0.80175 0.71859 0.67286 0.0
C993 C 0.75727 0.72072 0.65572 0.0
C994 C 0.73509 0.75281 0.65019 0.0
C995 C 0.75688 0.78256 0.66141 0.0
C996 C 0.801 0.77974 0.67806 0.0
C997 C 0.82334 0.74862 0.68377 0.0
C998 C 0.87145 0.75286 0.70174 0.0
C999 C 0.86447 0.73543 0.73053 0.0
C1000 C 0.91963 0.73955 0.68627 0.0
C1001 C 0.8731 0.79121 0.70482 0.0
C1002 C 0.83166 0.80616 0.69133 0.0
C1003 C 0.82404 0.8412 0.69176 0.0
C1004 C 0.85965 0.8615 0.70639 0.0
C1005 C 0.9026 0.84678 0.72014 0.0
C1006 C 0.90951 0.8112 0.7192 0.0
H1007 H 0.6733 0.82828 0.1818 0.0
H1008 H 0.78256 0.76795 0.13418 0.0
H1009 H 0.73974 0.71523 0.15076 0.0
H1010 H 0.66538 0.7746 0.2416 0.0
H1011 H 0.59667 0.77907 0.24752 0.0
H1012 H 0.63295 0.81289 0.23115 0.0
H1013 H 0.57385 0.81262 0.18783 0.0
H1014 H 0.53507 0.77979 0.20395 0.0
H1015 H 0.56194 0.77342 0.16925 0.0
H1016 H 0.68291 0.66941 0.17065 0.0
H1017 H 0.61898 0.63294 0.19523 0.0
H1018 H 0.54951 0.72223 0.23289 0.0
C1019 C 0.6881 0.80388 0.17509 0.0
C1020 C 0.73094 0.80194 0.15664 0.0
C1021 C 0.7494 0.76974 0.14807 0.0
C1022 C 0.72543 0.73978 0.15743 0.0
C1023 C 0.68299 0.74244 0.17543 0.0
C1024 C 0.66447 0.77363 0.18425 0.0
C1025 C 0.61816 0.76925 0.20364 0.0
C1026 C 0.62892 0.78482 0.23274 0.0
C1027 C 0.56938 0.78469 0.19037 0.0
C1028 C 0.61436 0.73074 0.20487 0.0
C1029 C 0.65152 0.71584 0.18794 0.0
C1030 C 0.65387 0.68074 0.18412 0.0
C1031 C 0.61728 0.66026 0.19796 0.0
C1032 C 0.57961 0.67488 0.21583 0.0
C1033 C 0.57832 0.71053 0.21945 0.0
H1034 H 0.3549 0.79075 0.39894 0.0
H1035 H 0.23353 0.81889 0.34071 0.0
H1036 H 0.26258 0.77453 0.30753 0.0
H1037 H 0.45206 0.77055 0.3487 0.0
H1038 H 0.47638 0.73371 0.36685 0.0
H1039 H 0.44644 0.76755 0.38652 0.0
H1040 H 0.38125 0.72483 0.40837 0.0
H1041 H 0.4114 0.6908 0.38898 0.0
H1042 H 0.34296 0.69823 0.3855 0.0
H1043 H 0.30996 0.73255 0.27884 0.0
H1044 H 0.3649 0.68858 0.25814 0.0
H1045 H 0.44845 0.67971 0.33727 0.0
C1046 C 0.33402 0.78697 0.37943 0.0
C1047 C 0.2923 0.80837 0.3721 0.0
C1048 C 0.26608 0.80307 0.34633 0.0
C1049 C 0.28216 0.77791 0.32748 0.0
C1050 C 0.32386 0.75761 0.33501 0.0
C1051 C 0.34883 0.76118 0.36057 0.0
C1052 C 0.39196 0.73522 0.36337 0.0
C1053 C 0.44483 0.75282 0.36655 0.0
C1054 C 0.38123 0.71082 0.38802 0.0
C1055 C 0.38773 0.71709 0.33516 0.0
C1056 C 0.34862 0.73091 0.3191 0.0
C1057 C 0.33973 0.72076 0.29147 0.0
C1058 C 0.37123 0.69551 0.27994 0.0
C1059 C 0.41039 0.67971 0.29619 0.0
C1060 C 0.41849 0.69074 0.32431 0.0
H1061 H 0.20201 0.734 0.89007 0.0
H1062 H 0.13206 0.64714 0.84896 0.0
H1063 H 0.07536 0.68552 0.82161 0.0
H1064 H 0.08181 0.7847 0.89525 0.0
H1065 H 0.11508 0.8243 0.88884 0.0
H1066 H 0.14817 0.78985 0.90607 0.0
H1067 H 0.22043 0.79264 0.86813 0.0
H1068 H 0.1873 0.82682 0.85063 0.0
H1069 H 0.20345 0.7888 0.83141 0.0
H1070 H 0.03441 0.73319 0.79506 0.0
H1071 H 0.00377 0.78726 0.77457 0.0
H1072 H 0.0935 0.84367 0.83595 0.0
C1073 C 0.17372 0.72323 0.87581 0.0
C1074 C 0.17097 0.68776 0.8715 0.0
C1075 C 0.13454 0.67431 0.85231 0.0
C1076 C 0.10228 0.69587 0.83681 0.0
C1077 C 0.10653 0.73081 0.84111 0.0
C1078 C 0.14065 0.74445 0.86048 0.0
C1079 C 0.13805 0.78298 0.8606 0.0
C1080 C 0.11967 0.79623 0.88941 0.0
C1081 C 0.19042 0.79872 0.85219 0.0
C1082 C 0.09771 0.78884 0.838 0.0
C1083 C 0.08053 0.75837 0.82682 0.0
C1084 C 0.04668 0.75717 0.80404 0.0
C1085 C 0.02973 0.78791 0.79247 0.0
C1086 C 0.04564 0.81933 0.80413 0.0
C1087 C 0.0798 0.81983 0.82726 0.0
loop_
_geom_bond_atom_site_label_1
_geom_bond_atom_site_label_2
_geom_bond_distance
_geom_bond_site_symmetry_2
_ccdc_geom_bond_type
C0 N1 1.317 . S
C0 N2 1.348 . S
C0 C3 1.485 . S
N1 C0 1.317 . S
N1 N5 1.370 . S
N2 C0 1.348 . S
N2 C4 1.346 . S
C3 C0 1.485 . S
C3 H7 0.960 . S
C3 H8 0.961 . S
C3 H9 0.960 . S
C4 N2 1.346 . S
C4 N5 1.307 . S
C4 C6 1.486 . S
N5 N1 1.370 . S
N5 C4 1.307 . S
C6 C4 1.486 . S
C6 H10 0.960 . S
C6 H11 0.960 . S
C6 H12 0.959 . S
H7 C3 0.960 . S
H8 C3 0.961 . S
H9 C3 0.960 . S
H10 C6 0.960 . S
H11 C6 0.960 . S
H12 C6 0.959 . S
C13 N14 1.317 . S
C13 N15 1.348 . S
C13 C16 1.485 . S
N14 C13 1.317 . S
N14 N18 1.370 . S
N15 C13 1.348 . S
N15 C17 1.346 . S
C16 C13 1.485 . S
C16 H20 0.960 . S
C16 H21 0.961 . S
C16 H22 0.960 . S
C17 N15 1.346 . S
C17 N18 1.307 . S
C17 C19 1.486 . S
N18 N14 1.370 . S
N18 C17 1.307 . S
C19 C17 1.486 . S
C19 H23 0.960 . S
C19 H24 0.960 . S
C19 H25 0.959 . S
H20 C16 0.960 . S
H21 C16 0.961 . S
H22 C16 0.960 . S
H23 C19 0.960 . S
H24 C19 0.960 . S
H25 C19 0.959 . S
C26 N27 1.317 . S
C26 N28 1.348 . S
C26 C29 1.485 . S
N27 C26 1.317 . S
N27 N31 1.370 . S
N28 C26 1.348 . S
N28 C30 1.346 . S
C29 C26 1.485 . S
C29 H33 0.960 . S
C29 H34 0.961 . S
C29 H35 0.960 . S
C30 N28 1.346 . S
C30 N31 1.307 . S
C30 C32 1.486 . S
N31 N27 1.370 . S
N31 C30 1.307 . S
C32 C30 1.486 . S
C32 H36 0.960 . S
C32 H37 0.960 . S
C32 H38 0.959 . S
H33 C29 0.960 . S
H34 C29 0.961 . S
H35 C29 0.960 . S
H36 C32 0.960 . S
H37 C32 0.960 . S
H38 C32 0.959 . S
C39 N40 1.317 . S
C39 N41 1.348 . S
C39 C42 1.485 . S
N40 C39 1.317 . S
N40 N44 1.370 . S
N41 C39 1.348 . S
N41 C43 1.346 . S
C42 C39 1.485 . S
C42 H46 0.960 . S
C42 H47 0.961 . S
C42 H48 0.960 . S
C43 N41 1.346 . S
C43 N44 1.307 . S
C43 C45 1.486 . S
N44 N40 1.370 . S
N44 C43 1.307 . S
C45 C43 1.486 . S
C45 H49 0.960 . S
C45 H50 0.960 . S
C45 H51 0.959 . S
H46 C42 0.960 . S
H47 C42 0.961 . S
H48 C42 0.960 . S
H49 C45 0.960 . S
H50 C45 0.960 . S
H51 C45 0.959 . S
C52 N53 1.317 . S
C52 N54 1.348 . S
C52 C55 1.485 . S
N53 C52 1.317 . S
N53 N57 1.370 . S
N54 C52 1.348 . S
N54 C56 1.346 . S
C55 C52 1.485 . S
C55 H59 0.960 . S
C55 H60 0.961 . S
C55 H61 0.960 . S
C56 N54 1.346 . S
C56 N57 1.307 . S
C56 C58 1.486 . S
N57 N53 1.370 . S
N57 C56 1.307 . S
C58 C56 1.486 . S
C58 H62 0.960 . S
C58 H63 0.960 . S
C58 H64 0.959 . S
H59 C55 0.960 . S
H60 C55 0.961 . S
H61 C55 0.960 . S
H62 C58 0.960 . S
H63 C58 0.960 . S
H64 C58 0.959 . S
C65 N66 1.317 . S
C65 N67 1.348 . S
C65 C68 1.485 . S
N66 C65 1.317 . S
N66 N70 1.370 . S
N67 C65 1.348 . S
N67 C69 1.346 . S
C68 C65 1.485 . S
C68 H72 0.960 . S
C68 H73 0.961 . S
C68 H74 0.960 . S
C69 N67 1.346 . S
C69 N70 1.307 . S
C69 C71 1.486 . S
N70 N66 1.370 . S
N70 C69 1.307 . S
C71 C69 1.486 . S
C71 H75 0.960 . S
C71 H76 0.960 . S
C71 H77 0.959 . S
H72 C68 0.960 . S
H73 C68 0.961 . S
H74 C68 0.960 . S
H75 C71 0.960 . S
H76 C71 0.960 . S
H77 C71 0.959 . S
C78 N79 1.317 . S
C78 N80 1.348 . S
C78 C81 1.485 . S
N79 C78 1.317 . S
N79 N83 1.370 . S
N80 C78 1.348 . S
N80 C82 1.346 . S
C81 C78 1.485 . S
C81 H85 0.960 . S
C81 H86 0.961 . S
C81 H87 0.960 . S
C82 N80 1.346 . S
C82 N83 1.307 . S
C82 C84 1.486 . S
N83 N79 1.370 . S
N83 C82 1.307 . S
C84 C82 1.486 . S
C84 H88 0.960 . S
C84 H89 0.960 . S
C84 H90 0.959 . S
H85 C81 0.960 . S
H86 C81 0.961 . S
H87 C81 0.960 . S
H88 C84 0.960 . S
H89 C84 0.960 . S
H90 C84 0.959 . S
C91 N92 1.317 . S
C91 N93 1.348 . S
C91 C94 1.485 . S
N92 C91 1.317 . S
N92 N96 1.370 . S
N93 C91 1.348 . S
N93 C95 1.346 . S
C94 C91 1.485 . S
C94 H98 0.960 . S
C94 H99 0.961 . S
C94 H100 0.960 . S
C95 N93 1.346 . S
C95 N96 1.307 . S
C95 C97 1.486 . S
N96 N92 1.370 . S
N96 C95 1.307 . S
C97 C95 1.486 . S
C97 H101 0.960 . S
C97 H102 0.960 . S
C97 H103 0.959 . S
H98 C94 0.960 . S
H99 C94 0.961 . S
H100 C94 0.960 . S
H101 C97 0.960 . S
H102 C97 0.960 . S
H103 C97 0.959 . S
Eu104 N133 2.600 . S
Eu104 N139 2.562 . S
Eu104 O148 2.462 . S
Eu104 O149 2.373 . S
Eu104 O151 2.432 . S
Eu104 O152 2.274 1_455 S
Eu104 O156 2.330 1_455 S
Eu104 O159 2.372 . S
Eu104 C168 2.787 . S
C105 N106 1.365 . S
C105 C108 1.405 . S
C105 C112 1.448 . S
N106 C105 1.365 . S
N106 C109 1.319 . S
N106 Eu115 2.600 . S
C107 C109 1.397 . S
C107 C110 1.367 . S
C107 H127 0.931 . S
C108 C105 1.405 . S
C108 C110 1.403 . S
C108 C114 1.439 . S
C109 N106 1.319 . S
C109 C107 1.397 . S
C109 H120 0.930 . S
C110 C107 1.367 . S
C110 C108 1.403 . S
C110 H131 0.929 . S
C111 C112 1.430 . S
C111 C113 1.387 . S
C111 C117 1.404 1_545 S
C112 C105 1.448 . S
C112 C111 1.430 . S
C112 N116 1.351 . S
C113 C111 1.387 . S
C113 C114 1.374 . S
C113 H128 0.931 1_545 S
C114 C108 1.439 . S
C114 C113 1.374 . S
C114 H129 0.931 . S
Eu115 N106 2.600 . S
Eu115 N116 2.562 . S
Eu115 O150 2.335 1_655 S
Eu115 O153 2.372 . S
Eu115 O154 2.462 . S
Eu115 O155 2.373 . S
Eu115 O157 2.432 . S
Eu115 O158 2.291 1_655 S
Eu115 C179 2.787 . S
N116 C112 1.351 . S
N116 Eu115 2.562 . S
N116 C118 1.325 . S
C117 C111 1.404 1_565 S
C117 C119 1.366 . S
C117 H125 0.930 . S
C118 N116 1.325 . S
C118 C119 1.416 1_545 S
C118 H124 0.929 . S
C119 C117 1.366 . S
C119 C118 1.416 1_565 S
C119 H121 0.930 . S
H120 C109 0.930 . S
H121 C119 0.930 . S
H122 C137 0.930 . S
H123 C144 0.930 . S
H124 C118 0.929 . S
H125 C117 0.930 . S
H126 C140 0.929 . S
H127 C107 0.931 . S
H128 C113 0.931 1_565 S
H129 C114 0.931 . S
H130 C135 0.931 . S
H131 C110 0.929 . S
H132 C143 0.930 . S
N133 Eu104 2.600 . S
N133 C134 1.365 . S
N133 C137 1.319 . S
C134 N133 1.365 . S
C134 C136 1.405 . S
C134 C142 1.448 . S
C135 H130 0.931 . S
C135 C137 1.397 . S
C135 C138 1.367 . S
C136 C134 1.405 . S
C136 C138 1.403 . S
C136 C169 1.439 . S
C137 H122 0.930 . S
C137 N133 1.319 . S
C137 C135 1.397 . S
C138 C135 1.367 . S
C138 C136 1.403 . S
C138 H145 0.929 . S
N139 Eu104 2.562 . S
N139 C140 1.325 . S
N139 C142 1.351 . S
C140 H126 0.929 . S
C140 N139 1.325 . S
C140 C144 1.416 . S
C141 C142 1.430 . S
C141 C143 1.404 . S
C141 C170 1.387 . S
C142 C134 1.448 . S
C142 N139 1.351 . S
C142 C141 1.430 . S
C143 H132 0.930 . S
C143 C141 1.404 . S
C143 C144 1.366 . S
C144 H123 0.930 . S
C144 C140 1.416 . S
C144 C143 1.366 . S
H145 C138 0.929 . S
H146 C169 0.931 . S
H147 C170 0.931 . S
O148 Eu104 2.462 . S
O148 C168 1.252 . S
O149 Eu104 2.373 . S
O149 C160 1.249 . S
O150 Eu115 2.335 1_455 S
O150 C160 1.264 . S
O151 Eu104 2.432 . S
O151 C168 1.268 . S
O152 Eu104 2.274 1_655 S
O152 C167 1.276 . S
O153 Eu115 2.372 . S
O153 C167 1.257 . S
O154 Eu115 2.462 . S
O154 C179 1.252 . S
O155 Eu115 2.373 . S
O155 C171 1.249 . S
O156 Eu104 2.330 1_655 S
O156 C171 1.270 . S
O157 Eu115 2.432 . S
O157 C179 1.268 . S
O158 Eu115 2.291 1_455 S
O158 C178 1.255 . S
O159 Eu104 2.372 . S
O159 C178 1.257 . S
C160 O149 1.249 . S
C160 O150 1.264 . S
C161 C164 1.382 . S
C161 C166 1.390 . S
C161 C168 1.506 . S
C162 C163 1.398 . S
C162 C166 1.392 . S
C163 C162 1.398 . S
C163 C165 1.372 . S
C163 H180 0.931 . S
C164 C161 1.382 . S
C164 C165 1.390 . S
C164 H181 0.931 . S
C165 C163 1.372 . S
C165 C164 1.390 . S
C165 H182 0.929 . S
C166 C161 1.390 . S
C166 C162 1.392 . S
C166 H183 0.930 . S
C167 O152 1.276 . S
C167 O153 1.257 . S
C168 Eu104 2.787 . S
C168 O148 1.252 . S
C168 O151 1.268 . S
C168 C161 1.506 . S
C169 C136 1.439 . S
C169 H146 0.931 . S
C169 C170 1.374 . S
C170 C141 1.387 . S
C170 H147 0.931 . S
C170 C169 1.374 . S
C171 O155 1.249 . S
C171 O156 1.270 . S
C172 C175 1.382 . S
C172 C176 1.390 . S
C172 C179 1.506 . S
C173 C174 1.398 . S
C173 C176 1.392 . S
C174 C173 1.398 . S
C174 C177 1.372 . S
C174 H184 0.931 . S
C175 C172 1.382 . S
C175 C177 1.390 . S
C175 H185 0.931 . S
C176 C172 1.390 . S
C176 C173 1.392 . S
C176 H186 0.930 . S
C177 C174 1.372 . S
C177 C175 1.390 . S
C177 H187 0.929 . S
C178 O158 1.255 . S
C178 O159 1.257 . S
C179 Eu115 2.787 . S
C179 O154 1.252 . S
C179 O157 1.268 . S
C179 C172 1.506 . S
H180 C163 0.931 . S
H181 C164 0.931 . S
H182 C165 0.929 . S
H183 C166 0.930 . S
H184 C174 0.931 . S
H185 C175 0.931 . S
H186 C176 0.930 . S
H187 C177 0.929 . S
Eu188 N217 2.600 . S
Eu188 N223 2.562 . S
Eu188 O232 2.462 . S
Eu188 O233 2.373 . S
Eu188 O235 2.432 . S
Eu188 O236 2.291 . S
Eu188 O240 2.335 . S
Eu188 O243 2.372 . S
Eu188 C252 2.787 . S
C189 N190 1.365 . S
C189 C192 1.405 . S
C189 C196 1.448 . S
N190 C189 1.365 . S
N190 C193 1.319 . S
N190 Eu199 2.600 . S
C191 C193 1.397 . S
C191 C194 1.367 . S
C191 H211 0.931 . S
C192 C189 1.405 . S
C192 C194 1.403 . S
C192 C198 1.439 . S
C193 N190 1.319 . S
C193 C191 1.397 . S
C193 H204 0.930 . S
C194 C191 1.367 . S
C194 C192 1.403 . S
C194 H215 0.929 . S
C195 C196 1.430 . S
C195 C197 1.387 . S
C195 C201 1.404 . S
C196 C189 1.448 . S
C196 C195 1.430 . S
C196 N200 1.351 . S
C197 C195 1.387 . S
C197 C198 1.374 . S
C197 H212 0.931 . S
C198 C192 1.439 . S
C198 C197 1.374 . S
C198 H213 0.931 . S
Eu199 N190 2.600 . S
Eu199 N200 2.562 . S
Eu199 O234 2.335 . S
Eu199 O237 2.372 . S
Eu199 O238 2.462 . S
Eu199 O239 2.373 . S
Eu199 O241 2.432 . S
Eu199 O242 2.291 . S
Eu199 C263 2.787 . S
N200 C196 1.351 . S
N200 Eu199 2.562 . S
N200 C202 1.325 . S
C201 C195 1.404 . S
C201 C203 1.366 . S
C201 H209 0.930 . S
C202 N200 1.325 . S
C202 C203 1.416 . S
C202 H208 0.929 . S
C203 C201 1.366 . S
C203 C202 1.416 . S
C203 H205 0.930 . S
H204 C193 0.930 . S
H205 C203 0.930 . S
H206 C221 0.930 . S
H207 C228 0.930 . S
H208 C202 0.929 . S
H209 C201 0.930 . S
H210 C224 0.929 . S
H211 C191 0.931 . S
H212 C197 0.931 . S
H213 C198 0.931 . S
H214 C219 0.931 . S
H215 C194 0.929 . S
H216 C227 0.930 . S
N217 Eu188 2.600 . S
N217 C218 1.365 . S
N217 C221 1.319 . S
C218 N217 1.365 . S
C218 C220 1.405 . S
C218 C226 1.448 . S
C219 H214 0.931 . S
C219 C221 1.397 . S
C219 C222 1.367 . S
C220 C218 1.405 . S
C220 C222 1.403 . S
C220 C253 1.439 . S
C221 H206 0.930 . S
C221 N217 1.319 . S
C221 C219 1.397 . S
C222 C219 1.367 . S
C222 C220 1.403 . S
C222 H229 0.929 . S
N223 Eu188 2.562 . S
N223 C224 1.325 . S
N223 C226 1.351 . S
C224 H210 0.929 . S
C224 N223 1.325 . S
C224 C228 1.416 . S
C225 C226 1.430 . S
C225 C227 1.404 . S
C225 C254 1.387 . S
C226 C218 1.448 . S
C226 N223 1.351 . S
C226 C225 1.430 . S
C227 H216 0.930 . S
C227 C225 1.404 . S
C227 C228 1.366 . S
C228 H207 0.930 . S
C228 C224 1.416 . S
C228 C227 1.366 . S
H229 C222 0.929 . S
H230 C253 0.931 . S
H231 C254 0.931 . S
O232 Eu188 2.462 . S
O232 C252 1.252 . S
O233 Eu188 2.373 . S
O233 C244 1.249 . S
O234 Eu199 2.335 . S
O234 C244 1.264 . S
O235 Eu188 2.432 . S
O235 C252 1.268 . S
O236 Eu188 2.291 . S
O236 C251 1.255 . S
O237 Eu199 2.372 . S
O237 C251 1.257 . S
O238 Eu199 2.462 . S
O238 C263 1.252 . S
O239 Eu199 2.373 . S
O239 C255 1.249 . S
O240 Eu188 2.335 . S
O240 C255 1.264 . S
O241 Eu199 2.432 . S
O241 C263 1.268 . S
O242 Eu199 2.291 . S
O242 C262 1.255 . S
O243 Eu188 2.372 . S
O243 C262 1.257 . S
C244 O233 1.249 . S
C244 O234 1.264 . S
C245 C248 1.382 . S
C245 C250 1.390 . S
C245 C252 1.506 . S
C246 C247 1.398 . S
C246 C250 1.392 . S
C247 C246 1.398 . S
C247 C249 1.372 . S
C247 H264 0.931 . S
C248 C245 1.382 . S
C248 C249 1.390 . S
C248 H265 0.931 . S
C249 C247 1.372 . S
C249 C248 1.390 . S
C249 H266 0.929 . S
C250 C245 1.390 . S
C250 C246 1.392 . S
C250 H267 0.930 . S
C251 O236 1.255 . S
C251 O237 1.257 . S
C252 Eu188 2.787 . S
C252 O232 1.252 . S
C252 O235 1.268 . S
C252 C245 1.506 . S
C253 C220 1.439 . S
C253 H230 0.931 . S
C253 C254 1.374 . S
C254 C225 1.387 . S
C254 H231 0.931 . S
C254 C253 1.374 . S
C255 O239 1.249 . S
C255 O240 1.264 . S
C256 C259 1.382 . S
C256 C260 1.390 . S
C256 C263 1.506 . S
C257 C258 1.398 . S
C257 C260 1.392 . S
C258 C257 1.398 . S
C258 C261 1.372 . S
C258 H268 0.931 . S
C259 C256 1.382 . S
C259 C261 1.390 . S
C259 H269 0.931 . S
C260 C256 1.390 . S
C260 C257 1.392 . S
C260 H270 0.930 . S
C261 C258 1.372 . S
C261 C259 1.390 . S
C261 H271 0.929 . S
C262 O242 1.255 . S
C262 O243 1.257 . S
C263 Eu199 2.787 . S
C263 O238 1.252 . S
C263 O241 1.268 . S
C263 C256 1.506 . S
H264 C247 0.931 . S
H265 C248 0.931 . S
H266 C249 0.929 . S
H267 C250 0.930 . S
H268 C258 0.931 . S
H269 C259 0.931 . S
H270 C260 0.930 . S
H271 C261 0.929 . S
Eu272 N301 2.600 . S
Eu272 N307 2.562 . S
Eu272 O316 2.462 . S
Eu272 O317 2.373 . S
Eu272 O319 2.432 . S
Eu272 O320 2.291 . S
Eu272 O324 2.335 . S
Eu272 O327 2.372 . S
Eu272 C336 2.787 . S
C273 N274 1.365 . S
C273 C276 1.405 . S
C273 C280 1.448 . S
N274 C273 1.365 . S
N274 C277 1.319 . S
N274 Eu283 2.600 . S
C275 C277 1.397 . S
C275 C278 1.367 . S
C275 H295 0.931 . S
C276 C273 1.405 . S
C276 C278 1.403 . S
C276 C282 1.439 . S
C277 N274 1.319 . S
C277 C275 1.397 . S
C277 H288 0.930 . S
C278 C275 1.367 . S
C278 C276 1.403 . S
C278 H299 0.929 . S
C279 C280 1.430 . S
C279 C281 1.387 . S
C279 C285 1.404 . S
C280 C273 1.448 . S
C280 C279 1.430 . S
C280 N284 1.351 . S
C281 C279 1.387 . S
C281 C282 1.374 . S
C281 H296 0.931 . S
C282 C276 1.439 . S
C282 C281 1.374 . S
C282 H297 0.931 . S
Eu283 N274 2.600 . S
Eu283 N284 2.562 . S
Eu283 O318 2.335 1_655 S
Eu283 O321 2.372 . S
Eu283 O322 2.462 . S
Eu283 O323 2.373 . S
Eu283 O325 2.432 . S
Eu283 O326 2.291 1_655 S
Eu283 C347 2.787 . S
N284 C280 1.351 . S
N284 Eu283 2.562 . S
N284 C286 1.325 . S
C285 C279 1.404 . S
C285 C287 1.366 . S
C285 H293 0.930 . S
C286 N284 1.325 . S
C286 C287 1.416 . S
C286 H292 0.929 . S
C287 C285 1.366 . S
C287 C286 1.416 . S
C287 H289 0.930 . S
H288 C277 0.930 . S
H289 C287 0.930 . S
H290 C305 0.930 . S
H291 C312 0.930 . S
H292 C286 0.929 . S
H293 C285 0.930 . S
H294 C308 0.929 . S
H295 C275 0.931 . S
H296 C281 0.931 . S
H297 C282 0.931 . S
H298 C303 0.931 . S
H299 C278 0.929 . S
H300 C311 0.930 . S
N301 Eu272 2.600 . S
N301 C302 1.365 . S
N301 C305 1.319 . S
C302 N301 1.365 . S
C302 C304 1.405 . S
C302 C310 1.448 . S
C303 H298 0.931 . S
C303 C305 1.397 . S
C303 C306 1.367 . S
C304 C302 1.405 . S
C304 C306 1.403 . S
C304 C337 1.439 . S
C305 H290 0.930 . S
C305 N301 1.319 . S
C305 C303 1.397 . S
C306 C303 1.367 . S
C306 C304 1.403 . S
C306 H313 0.929 . S
N307 Eu272 2.562 . S
N307 C308 1.325 . S
N307 C310 1.351 . S
C308 H294 0.929 . S
C308 N307 1.325 . S
C308 C312 1.416 1_565 S
C309 C310 1.430 . S
C309 C311 1.404 1_565 S
C309 C338 1.387 . S
C310 C302 1.448 . S
C310 N307 1.351 . S
C310 C309 1.430 . S
C311 H300 0.930 . S
C311 C309 1.404 1_545 S
C311 C312 1.366 . S
C312 H291 0.930 . S
C312 C308 1.416 1_545 S
C312 C311 1.366 . S
H313 C306 0.929 . S
H314 C337 0.931 . S
H315 C338 0.931 1_545 S
O316 Eu272 2.462 . S
O316 C336 1.252 . S
O317 Eu272 2.373 . S
O317 C328 1.249 . S
O318 Eu283 2.335 1_455 S
O318 C328 1.264 . S
O319 Eu272 2.432 . S
O319 C336 1.268 . S
O320 Eu272 2.291 . S
O320 C335 1.255 1_455 S
O321 Eu283 2.372 . S
O321 C335 1.257 . S
O322 Eu283 2.462 . S
O322 C347 1.252 . S
O323 Eu283 2.373 . S
O323 C339 1.249 . S
O324 Eu272 2.335 . S
O324 C339 1.264 1_455 S
O325 Eu283 2.432 . S
O325 C347 1.268 . S
O326 Eu283 2.291 1_455 S
O326 C346 1.255 . S
O327 Eu272 2.372 . S
O327 C346 1.257 . S
C328 O317 1.249 . S
C328 O318 1.264 . S
C329 C332 1.382 . S
C329 C334 1.390 . S
C329 C336 1.506 . S
C330 C331 1.398 . S
C330 C334 1.392 . S
C331 C330 1.398 . S
C331 C333 1.372 . S
C331 H348 0.931 . S
C332 C329 1.382 . S
C332 C333 1.390 . S
C332 H349 0.931 . S
C333 C331 1.372 . S
C333 C332 1.390 . S
C333 H350 0.929 . S
C334 C329 1.390 . S
C334 C330 1.392 . S
C334 H351 0.930 . S
C335 O320 1.255 1_655 S
C335 O321 1.257 . S
C336 Eu272 2.787 . S
C336 O316 1.252 . S
C336 O319 1.268 . S
C336 C329 1.506 . S
C337 C304 1.439 . S
C337 H314 0.931 . S
C337 C338 1.374 . S
C338 C309 1.387 . S
C338 H315 0.931 1_565 S
C338 C337 1.374 . S
C339 O323 1.249 . S
C339 O324 1.264 1_655 S
C340 C343 1.382 . S
C340 C344 1.390 . S
C340 C347 1.506 . S
C341 C342 1.398 . S
C341 C344 1.392 . S
C342 C341 1.398 . S
C342 C345 1.372 . S
C342 H352 0.931 . S
C343 C340 1.382 . S
C343 C345 1.390 . S
C343 H353 0.931 . S
C344 C340 1.390 . S
C344 C341 1.392 . S
C344 H354 0.930 . S
C345 C342 1.372 . S
C345 C343 1.390 . S
C345 H355 0.929 . S
C346 O326 1.255 . S
C346 O327 1.257 . S
C347 Eu283 2.787 . S
C347 O322 1.252 . S
C347 O325 1.268 . S
C347 C340 1.506 . S
H348 C331 0.931 . S
H349 C332 0.931 . S
H350 C333 0.929 . S
H351 C334 0.930 . S
H352 C342 0.931 . S
H353 C343 0.931 . S
H354 C344 0.930 . S
H355 C345 0.929 . S
Eu356 N385 2.600 . S
Eu356 N391 2.562 . S
Eu356 O400 2.462 . S
Eu356 O401 2.373 . S
Eu356 O403 2.432 . S
Eu356 O404 2.291 . S
Eu356 O408 2.335 . S
Eu356 O411 2.372 . S
Eu356 C420 2.787 . S
C357 N358 1.365 . S
C357 C360 1.405 . S
C357 C364 1.448 . S
N358 C357 1.365 . S
N358 C361 1.319 . S
N358 Eu367 2.600 . S
C359 C361 1.397 . S
C359 C362 1.367 . S
C359 H379 0.931 . S
C360 C357 1.405 . S
C360 C362 1.403 . S
C360 C366 1.439 . S
C361 N358 1.319 . S
C361 C359 1.397 . S
C361 H372 0.930 . S
C362 C359 1.367 . S
C362 C360 1.403 . S
C362 H383 0.929 . S
C363 C364 1.430 . S
C363 C365 1.387 . S
C363 C369 1.404 . S
C364 C357 1.448 . S
C364 C363 1.430 . S
C364 N368 1.351 . S
C365 C363 1.387 . S
C365 C366 1.374 . S
C365 H380 0.931 . S
C366 C360 1.439 . S
C366 C365 1.374 . S
C366 H381 0.931 . S
Eu367 N358 2.600 . S
Eu367 N368 2.562 . S
Eu367 O402 2.335 . S
Eu367 O405 2.372 . S
Eu367 O406 2.462 . S
Eu367 O407 2.373 . S
Eu367 O409 2.432 . S
Eu367 O410 2.291 . S
Eu367 C431 2.787 . S
N368 C364 1.351 . S
N368 Eu367 2.562 . S
N368 C370 1.325 . S
C369 C363 1.404 . S
C369 C371 1.366 . S
C369 H377 0.930 . S
C370 N368 1.325 . S
C370 C371 1.416 . S
C370 H376 0.929 . S
C371 C369 1.366 . S
C371 C370 1.416 . S
C371 H373 0.930 . S
H372 C361 0.930 . S
H373 C371 0.930 . S
H374 C389 0.930 . S
H375 C396 0.930 . S
H376 C370 0.929 . S
H377 C369 0.930 . S
H378 C392 0.929 . S
H379 C359 0.931 . S
H380 C365 0.931 . S
H381 C366 0.931 . S
H382 C387 0.931 . S
H383 C362 0.929 . S
H384 C395 0.930 . S
N385 Eu356 2.600 . S
N385 C386 1.365 . S
N385 C389 1.319 . S
C386 N385 1.365 . S
C386 C388 1.405 . S
C386 C394 1.448 . S
C387 H382 0.931 . S
C387 C389 1.397 . S
C387 C390 1.367 . S
C388 C386 1.405 . S
C388 C390 1.403 . S
C388 C421 1.439 . S
C389 H374 0.930 . S
C389 N385 1.319 . S
C389 C387 1.397 . S
C390 C387 1.367 . S
C390 C388 1.403 . S
C390 H397 0.929 . S
N391 Eu356 2.562 . S
N391 C392 1.325 . S
N391 C394 1.351 . S
C392 H378 0.929 . S
C392 N391 1.325 . S
C392 C396 1.416 . S
C393 C394 1.430 . S
C393 C395 1.404 . S
C393 C422 1.387 . S
C394 C386 1.448 . S
C394 N391 1.351 . S
C394 C393 1.430 . S
C395 H384 0.930 . S
C395 C393 1.404 . S
C395 C396 1.366 . S
C396 H375 0.930 . S
C396 C392 1.416 . S
C396 C395 1.366 . S
H397 C390 0.929 . S
H398 C421 0.931 . S
H399 C422 0.931 . S
O400 Eu356 2.462 . S
O400 C420 1.252 . S
O401 Eu356 2.373 . S
O401 C412 1.249 . S
O402 Eu367 2.335 . S
O402 C412 1.264 . S
O403 Eu356 2.432 . S
O403 C420 1.268 . S
O404 Eu356 2.291 . S
O404 C419 1.255 . S
O405 Eu367 2.372 . S
O405 C419 1.257 . S
O406 Eu367 2.462 . S
O406 C431 1.252 . S
O407 Eu367 2.373 . S
O407 C423 1.249 . S
O408 Eu356 2.335 . S
O408 C423 1.264 . S
O409 Eu367 2.432 . S
O409 C431 1.268 . S
O410 Eu367 2.291 . S
O410 C430 1.255 . S
O411 Eu356 2.372 . S
O411 C430 1.257 . S
C412 O401 1.249 . S
C412 O402 1.264 . S
C413 C416 1.382 . S
C413 C418 1.390 . S
C413 C420 1.506 . S
C414 C415 1.398 . S
C414 C418 1.392 . S
C415 C414 1.398 . S
C415 C417 1.372 . S
C415 H432 0.931 . S
C416 C413 1.382 . S
C416 C417 1.390 . S
C416 H433 0.931 . S
C417 C415 1.372 . S
C417 C416 1.390 . S
C417 H434 0.929 . S
C418 C413 1.390 . S
C418 C414 1.392 . S
C418 H435 0.930 . S
C419 O404 1.255 . S
C419 O405 1.257 . S
C420 Eu356 2.787 . S
C420 O400 1.252 . S
C420 O403 1.268 . S
C420 C413 1.506 . S
C421 C388 1.439 . S
C421 H398 0.931 . S
C421 C422 1.374 . S
C422 C393 1.387 . S
C422 H399 0.931 . S
C422 C421 1.374 . S
C423 O407 1.249 . S
C423 O408 1.264 . S
C424 C427 1.382 . S
C424 C428 1.390 . S
C424 C431 1.506 . S
C425 C426 1.398 . S
C425 C428 1.392 . S
C426 C425 1.398 . S
C426 C429 1.372 . S
C426 H436 0.931 . S
C427 C424 1.382 . S
C427 C429 1.390 . S
C427 H437 0.931 . S
C428 C424 1.390 . S
C428 C425 1.392 . S
C428 H438 0.930 . S
C429 C426 1.372 . S
C429 C427 1.390 . S
C429 H439 0.929 . S
C430 O410 1.255 . S
C430 O411 1.257 . S
C431 Eu367 2.787 . S
C431 O406 1.252 . S
C431 O409 1.268 . S
C431 C424 1.506 . S
H432 C415 0.931 . S
H433 C416 0.931 . S
H434 C417 0.929 . S
H435 C418 0.930 . S
H436 C426 0.931 . S
H437 C427 0.931 . S
H438 C428 0.930 . S
H439 C429 0.929 . S
H440 C452 0.930 . S
H441 C454 0.930 . S
H442 C455 0.930 . S
H443 C459 0.959 . S
H444 C459 0.959 . S
H445 C459 0.961 . S
H446 C460 0.960 . S
H447 C460 0.961 . S
H448 C460 0.959 . S
H449 C463 0.929 . S
H450 C464 0.931 . S
H451 C466 0.929 1_565 S
C452 H440 0.930 . S
C452 C453 1.399 . S
C452 C457 1.399 . S
C453 C452 1.399 . S
C453 C454 1.376 . S
C454 H441 0.930 . S
C454 C453 1.376 . S
C454 C455 1.388 . S
C455 H442 0.930 . S
C455 C454 1.388 . S
C455 C456 1.390 . S
C456 C455 1.390 . S
C456 C457 1.394 . S
C456 C462 1.465 . S
C457 C452 1.399 . S
C457 C456 1.394 . S
C457 C458 1.516 . S
C458 C457 1.516 . S
C458 C459 1.502 . S
C458 C460 1.561 . S
C458 C461 1.526 . S
C459 H443 0.959 . S
C459 H444 0.959 . S
C459 H445 0.961 . S
C459 C458 1.502 . S
C460 H446 0.960 . S
C460 H447 0.961 . S
C460 H448 0.959 . S
C460 C458 1.561 . S
C461 C458 1.526 . S
C461 C462 1.396 . S
C461 C466 1.384 1_565 S
C462 C456 1.465 . S
C462 C461 1.396 . S
C462 C463 1.399 1_565 S
C463 H449 0.929 . S
C463 C462 1.399 1_545 S
C463 C464 1.385 . S
C464 H450 0.931 . S
C464 C463 1.385 . S
C464 C465 1.389 . S
C465 C464 1.389 . S
C465 C466 1.393 . S
C466 H451 0.929 1_545 S
C466 C461 1.384 1_545 S
C466 C465 1.393 . S
H467 C479 0.930 . S
H468 C481 0.930 . S
H469 C482 0.930 . S
H470 C486 0.959 . S
H471 C486 0.959 . S
H472 C486 0.961 . S
H473 C487 0.960 . S
H474 C487 0.961 . S
H475 C487 0.959 . S
H476 C490 0.929 . S
H477 C491 0.931 . S
H478 C493 0.930 . S
C479 H467 0.930 . S
C479 C480 1.399 . S
C479 C484 1.399 . S
C480 C479 1.399 . S
C480 C481 1.376 . S
C481 H468 0.930 . S
C481 C480 1.376 . S
C481 C482 1.388 . S
C482 H469 0.930 . S
C482 C481 1.388 . S
C482 C483 1.390 . S
C483 C482 1.390 . S
C483 C484 1.394 . S
C483 C489 1.465 . S
C484 C479 1.399 . S
C484 C483 1.394 . S
C484 C485 1.516 . S
C485 C484 1.516 . S
C485 C486 1.502 . S
C485 C487 1.561 . S
C485 C488 1.526 . S
C486 H470 0.959 . S
C486 H471 0.959 . S
C486 H472 0.961 . S
C486 C485 1.502 . S
C487 H473 0.960 . S
C487 H474 0.961 . S
C487 H475 0.959 . S
C487 C485 1.561 . S
C488 C485 1.526 . S
C488 C489 1.396 . S
C488 C493 1.390 . S
C489 C483 1.465 . S
C489 C488 1.396 . S
C489 C490 1.399 . S
C490 H476 0.929 . S
C490 C489 1.399 . S
C490 C491 1.385 . S
C491 H477 0.931 . S
C491 C490 1.385 . S
C491 C492 1.389 . S
C492 C491 1.389 . S
C492 C493 1.387 . S
C493 H478 0.930 . S
C493 C488 1.390 . S
C493 C492 1.387 . S
H494 C506 0.930 . S
H495 C508 0.930 . S
H496 C509 0.930 . S
H497 C513 0.959 . S
H498 C513 0.959 . S
H499 C513 0.961 . S
H500 C514 0.960 . S
H501 C514 0.961 . S
H502 C514 0.959 . S
H503 C517 0.929 . S
H504 C518 0.931 . S
H505 C520 0.930 . S
C506 H494 0.930 . S
C506 C507 1.399 . S
C506 C511 1.399 . S
C507 C506 1.399 . S
C507 C508 1.376 . S
C508 H495 0.930 . S
C508 C507 1.376 . S
C508 C509 1.388 . S
C509 H496 0.930 . S
C509 C508 1.388 . S
C509 C510 1.390 . S
C510 C509 1.390 . S
C510 C511 1.394 . S
C510 C516 1.465 . S
C511 C506 1.399 . S
C511 C510 1.394 . S
C511 C512 1.516 . S
C512 C511 1.516 . S
C512 C513 1.502 . S
C512 C514 1.561 . S
C512 C515 1.526 . S
C513 H497 0.959 . S
C513 H498 0.959 . S
C513 H499 0.961 . S
C513 C512 1.502 . S
C514 H500 0.960 . S
C514 H501 0.961 . S
C514 H502 0.959 . S
C514 C512 1.561 . S
C515 C512 1.526 . S
C515 C516 1.396 . S
C515 C520 1.390 . S
C516 C510 1.465 . S
C516 C515 1.396 . S
C516 C517 1.399 . S
C517 H503 0.929 . S
C517 C516 1.399 . S
C517 C518 1.385 . S
C518 H504 0.931 . S
C518 C517 1.385 . S
C518 C519 1.389 . S
C519 C518 1.389 . S
C519 C520 1.387 . S
C520 H505 0.930 . S
C520 C515 1.390 . S
C520 C519 1.387 . S
H521 C533 0.930 . S
H522 C535 0.930 . S
H523 C536 0.930 . S
H524 C540 0.959 . S
H525 C540 0.959 1_545 S
H526 C540 0.961 . S
H527 C541 0.960 . S
H528 C541 0.961 . S
H529 C541 0.959 . S
H530 C544 0.929 . S
H531 C545 0.931 . S
H532 C547 0.930 . S
C533 H521 0.930 . S
C533 C534 1.399 . S
C533 C538 1.399 . S
C534 C533 1.399 . S
C534 C535 1.376 . S
C535 H522 0.930 . S
C535 C534 1.376 . S
C535 C536 1.388 . S
C536 H523 0.930 . S
C536 C535 1.388 . S
C536 C537 1.390 . S
C537 C536 1.390 . S
C537 C538 1.394 . S
C537 C543 1.465 . S
C538 C533 1.399 . S
C538 C537 1.394 . S
C538 C539 1.516 . S
C539 C538 1.516 . S
C539 C540 1.502 . S
C539 C541 1.561 1_565 S
C539 C542 1.526 . S
C540 H524 0.959 . S
C540 H525 0.959 1_565 S
C540 H526 0.961 . S
C540 C539 1.502 . S
C541 H527 0.960 . S
C541 H528 0.961 . S
C541 H529 0.959 . S
C541 C539 1.561 1_545 S
C542 C539 1.526 . S
C542 C543 1.396 . S
C542 C547 1.390 1_565 S
C543 C537 1.465 . S
C543 C542 1.396 . S
C543 C544 1.399 . S
C544 H530 0.929 . S
C544 C543 1.399 . S
C544 C545 1.385 . S
C545 H531 0.931 . S
C545 C544 1.385 . S
C545 C546 1.389 1_565 S
C546 C545 1.389 1_545 S
C546 C547 1.387 . S
C547 H532 0.930 . S
C547 C542 1.390 1_545 S
C547 C546 1.387 . S
H548 C560 0.930 . S
H549 C562 0.930 . S
H550 C563 0.930 . S
H551 C567 0.959 . S
H552 C567 0.959 . S
H553 C567 0.961 . S
H554 C568 0.960 . S
H555 C568 0.961 1_565 S
H556 C568 0.959 . S
H557 C571 0.929 . S
H558 C572 0.931 . S
H559 C574 0.930 . S
C560 H548 0.930 . S
C560 C561 1.399 . S
C560 C565 1.399 . S
C561 C560 1.399 . S
C561 C562 1.376 . S
C562 H549 0.930 . S
C562 C561 1.376 . S
C562 C563 1.388 . S
C563 H550 0.930 . S
C563 C562 1.388 . S
C563 C564 1.390 . S
C564 C563 1.390 . S
C564 C565 1.394 . S
C564 C570 1.465 . S
C565 C560 1.399 . S
C565 C564 1.394 . S
C565 C566 1.516 . S
C566 C565 1.516 . S
C566 C567 1.502 1_545 S
C566 C568 1.561 . S
C566 C569 1.526 . S
C567 H551 0.959 . S
C567 H552 0.959 . S
C567 H553 0.961 . S
C567 C566 1.502 1_565 S
C568 H554 0.960 . S
C568 H555 0.961 1_545 S
C568 H556 0.959 . S
C568 C566 1.561 . S
C569 C566 1.526 . S
C569 C570 1.396 . S
C569 C574 1.390 1_545 S
C570 C564 1.465 . S
C570 C569 1.396 . S
C570 C571 1.399 . S
C571 H557 0.929 . S
C571 C570 1.399 . S
C571 C572 1.385 . S
C572 H558 0.931 . S
C572 C571 1.385 . S
C572 C573 1.389 1_545 S
C573 C572 1.389 1_565 S
C573 C574 1.387 . S
C574 H559 0.930 . S
C574 C569 1.390 1_565 S
C574 C573 1.387 . S
H575 C587 0.930 . S
H576 C589 0.930 . S
H577 C590 0.930 . S
H578 C594 0.959 . S
H579 C594 0.959 . S
H580 C594 0.961 . S
H581 C595 0.960 . S
H582 C595 0.961 . S
H583 C595 0.959 . S
H584 C598 0.929 . S
H585 C599 0.931 . S
H586 C601 0.930 . S
C587 H575 0.930 . S
C587 C588 1.399 . S
C587 C592 1.399 . S
C588 C587 1.399 . S
C588 C589 1.376 . S
C589 H576 0.930 . S
C589 C588 1.376 . S
C589 C590 1.388 . S
C590 H577 0.930 . S
C590 C589 1.388 . S
C590 C591 1.390 . S
C591 C590 1.390 . S
C591 C592 1.394 . S
C591 C597 1.465 . S
C592 C587 1.399 . S
C592 C591 1.394 . S
C592 C593 1.516 . S
C593 C592 1.516 . S
C593 C594 1.502 . S
C593 C595 1.561 . S
C593 C596 1.526 . S
C594 H578 0.959 . S
C594 H579 0.959 . S
C594 H580 0.961 . S
C594 C593 1.502 . S
C595 H581 0.960 . S
C595 H582 0.961 . S
C595 H583 0.959 . S
C595 C593 1.561 . S
C596 C593 1.526 . S
C596 C597 1.396 . S
C596 C601 1.390 . S
C597 C591 1.465 . S
C597 C596 1.396 . S
C597 C598 1.399 . S
C598 H584 0.929 . S
C598 C597 1.399 . S
C598 C599 1.385 . S
C599 H585 0.931 . S
C599 C598 1.385 . S
C599 C600 1.389 . S
C600 C599 1.389 . S
C600 C601 1.387 . S
C601 H586 0.930 . S
C601 C596 1.390 . S
C601 C600 1.387 . S
H602 C614 0.930 . S
H603 C616 0.930 . S
H604 C617 0.930 . S
H605 C621 0.959 . S
H606 C621 0.959 . S
H607 C621 0.961 . S
H608 C622 0.960 . S
H609 C622 0.961 . S
H610 C622 0.959 . S
H611 C625 0.929 . S
H612 C626 0.931 . S
H613 C628 0.930 . S
C614 H602 0.930 . S
C614 C615 1.399 . S
C614 C619 1.399 . S
C615 C614 1.399 . S
C615 C616 1.376 . S
C616 H603 0.930 . S
C616 C615 1.376 . S
C616 C617 1.388 . S
C617 H604 0.930 . S
C617 C616 1.388 . S
C617 C618 1.390 . S
C618 C617 1.390 . S
C618 C619 1.394 . S
C618 C624 1.465 . S
C619 C614 1.399 . S
C619 C618 1.394 . S
C619 C620 1.516 . S
C620 C619 1.516 . S
C620 C621 1.502 . S
C620 C622 1.561 . S
C620 C623 1.526 . S
C621 H605 0.959 . S
C621 H606 0.959 . S
C621 H607 0.961 . S
C621 C620 1.502 . S
C622 H608 0.960 . S
C622 H609 0.961 . S
C622 H610 0.959 . S
C622 C620 1.561 . S
C623 C620 1.526 . S
C623 C624 1.396 . S
C623 C628 1.390 . S
C624 C618 1.465 . S
C624 C623 1.396 . S
C624 C625 1.399 . S
C625 H611 0.929 . S
C625 C624 1.399 . S
C625 C626 1.385 . S
C626 H612 0.931 . S
C626 C625 1.385 . S
C626 C627 1.389 . S
C627 C626 1.389 . S
C627 C628 1.387 . S
C628 H613 0.930 . S
C628 C623 1.390 . S
C628 C627 1.387 . S
H629 C641 0.930 . S
H630 C643 0.930 . S
H631 C644 0.930 . S
H632 C648 0.959 . S
H633 C648 0.959 . S
H634 C648 0.961 . S
H635 C649 0.960 . S
H636 C649 0.961 . S
H637 C649 0.959 . S
H638 C652 0.929 . S
H639 C653 0.931 . S
H640 C655 0.929 1_545 S
C641 H629 0.930 . S
C641 C642 1.399 . S
C641 C646 1.399 . S
C642 C641 1.399 . S
C642 C643 1.376 . S
C643 H630 0.930 . S
C643 C642 1.376 . S
C643 C644 1.388 . S
C644 H631 0.930 . S
C644 C643 1.388 . S
C644 C645 1.390 . S
C645 C644 1.390 . S
C645 C646 1.394 . S
C645 C651 1.465 . S
C646 C641 1.399 . S
C646 C645 1.394 . S
C646 C647 1.516 . S
C647 C646 1.516 . S
C647 C648 1.502 . S
C647 C649 1.561 . S
C647 C650 1.526 . S
C648 H632 0.959 . S
C648 H633 0.959 . S
C648 H634 0.961 . S
C648 C647 1.502 . S
C649 H635 0.960 . S
C649 H636 0.961 . S
C649 H637 0.959 . S
C649 C647 1.561 . S
C650 C647 1.526 . S
C650 C651 1.396 . S
C650 C655 1.390 1_545 S
C651 C645 1.465 . S
C651 C650 1.396 . S
C651 C652 1.399 1_545 S
C652 H638 0.929 . S
C652 C651 1.399 1_565 S
C652 C653 1.385 . S
C653 H639 0.931 . S
C653 C652 1.385 . S
C653 C654 1.389 . S
C654 C653 1.389 . S
C654 C655 1.387 . S
C655 H640 0.929 1_565 S
C655 C650 1.390 1_565 S
C655 C654 1.387 . S
H656 C668 0.930 . S
H657 C670 0.930 . S
H658 C671 0.930 . S
H659 C675 0.959 . S
H660 C675 0.959 . S
H661 C675 0.961 . S
H662 C676 0.960 . S
H663 C676 0.961 . S
H664 C676 0.959 . S
H665 C679 0.929 . S
H666 C680 0.931 . S
H667 C682 0.930 . S
C668 H656 0.930 . S
C668 C669 1.399 . S
C668 C673 1.399 . S
C669 C668 1.399 . S
C669 C670 1.376 . S
C670 H657 0.930 . S
C670 C669 1.376 . S
C670 C671 1.388 . S
C671 H658 0.930 . S
C671 C670 1.388 . S
C671 C672 1.390 . S
C672 C671 1.390 . S
C672 C673 1.394 . S
C672 C678 1.465 1_556 S
C673 C668 1.399 . S
C673 C672 1.394 . S
C673 C674 1.516 1_556 S
C674 C673 1.516 1_554 S
C674 C675 1.502 . S
C674 C676 1.561 . S
C674 C677 1.526 . S
C675 H659 0.959 . S
C675 H660 0.959 . S
C675 H661 0.961 . S
C675 C674 1.502 . S
C676 H662 0.960 . S
C676 H663 0.961 . S
C676 H664 0.959 . S
C676 C674 1.561 . S
C677 C674 1.526 . S
C677 C678 1.396 . S
C677 C682 1.390 . S
C678 C672 1.465 1_554 S
C678 C677 1.396 . S
C678 C679 1.399 . S
C679 H665 0.929 . S
C679 C678 1.399 . S
C679 C680 1.385 . S
C680 H666 0.931 . S
C680 C679 1.385 . S
C680 C681 1.389 . S
C681 C680 1.389 . S
C681 C682 1.387 . S
C682 H667 0.930 . S
C682 C677 1.390 . S
C682 C681 1.387 . S
H683 C695 0.930 . S
H684 C697 0.930 . S
H685 C698 0.930 . S
H686 C702 0.959 . S
H687 C702 0.959 . S
H688 C702 0.961 . S
H689 C703 0.960 . S
H690 C703 0.961 . S
H691 C703 0.959 . S
H692 C706 0.929 . S
H693 C707 0.931 . S
H694 C709 0.930 . S
C695 H683 0.930 . S
C695 C696 1.399 . S
C695 C700 1.399 . S
C696 C695 1.399 . S
C696 C697 1.376 . S
C697 H684 0.930 . S
C697 C696 1.376 . S
C697 C698 1.388 . S
C698 H685 0.930 . S
C698 C697 1.388 . S
C698 C699 1.390 . S
C699 C698 1.390 . S
C699 C700 1.394 . S
C699 C705 1.465 . S
C700 C695 1.399 . S
C700 C699 1.394 . S
C700 C701 1.516 . S
C701 C700 1.516 . S
C701 C702 1.502 . S
C701 C703 1.561 . S
C701 C704 1.526 . S
C702 H686 0.959 . S
C702 H687 0.959 . S
C702 H688 0.961 . S
C702 C701 1.502 . S
C703 H689 0.960 . S
C703 H690 0.961 . S
C703 H691 0.959 . S
C703 C701 1.561 . S
C704 C701 1.526 . S
C704 C705 1.396 . S
C704 C709 1.390 . S
C705 C699 1.465 . S
C705 C704 1.396 . S
C705 C706 1.399 . S
C706 H692 0.929 . S
C706 C705 1.399 . S
C706 C707 1.385 . S
C707 H693 0.931 . S
C707 C706 1.385 . S
C707 C708 1.389 . S
C708 C707 1.389 . S
C708 C709 1.387 . S
C709 H694 0.930 . S
C709 C704 1.390 . S
C709 C708 1.387 . S
H710 C722 0.930 . S
H711 C724 0.930 . S
H712 C725 0.930 . S
H713 C729 0.959 . S
H714 C729 0.959 . S
H715 C729 0.961 . S
H716 C730 0.960 . S
H717 C730 0.961 1_556 S
H718 C730 0.959 . S
H719 C733 0.929 . S
H720 C734 0.931 . S
H721 C736 0.930 . S
C722 H710 0.930 . S
C722 C723 1.399 . S
C722 C727 1.399 . S
C723 C722 1.399 . S
C723 C724 1.376 . S
C724 H711 0.930 . S
C724 C723 1.376 . S
C724 C725 1.388 . S
C725 H712 0.930 . S
C725 C724 1.388 . S
C725 C726 1.390 . S
C726 C725 1.390 . S
C726 C727 1.394 . S
C726 C732 1.465 1_554 S
C727 C722 1.399 . S
C727 C726 1.394 . S
C727 C728 1.516 1_554 S
C728 C727 1.516 1_556 S
C728 C729 1.502 . S
C728 C730 1.561 1_556 S
C728 C731 1.526 . S
C729 H713 0.959 . S
C729 H714 0.959 . S
C729 H715 0.961 . S
C729 C728 1.502 . S
C730 H716 0.960 . S
C730 H717 0.961 1_554 S
C730 H718 0.959 . S
C730 C728 1.561 1_554 S
C731 C728 1.526 . S
C731 C732 1.396 . S
C731 C736 1.390 . S
C732 C726 1.465 1_556 S
C732 C731 1.396 . S
C732 C733 1.399 . S
C733 H719 0.929 . S
C733 C732 1.399 . S
C733 C734 1.385 . S
C734 H720 0.931 . S
C734 C733 1.385 . S
C734 C735 1.389 . S
C735 C734 1.389 . S
C735 C736 1.387 . S
C736 H721 0.930 . S
C736 C731 1.390 . S
C736 C735 1.387 . S
H737 C749 0.930 . S
H738 C751 0.930 . S
H739 C752 0.930 . S
H740 C756 0.959 . S
H741 C756 0.959 . S
H742 C756 0.961 . S
H743 C757 0.960 . S
H744 C757 0.961 . S
H745 C757 0.959 . S
H746 C760 0.929 . S
H747 C761 0.931 . S
H748 C763 0.930 . S
C749 H737 0.930 . S
C749 C750 1.399 . S
C749 C754 1.399 . S
C750 C749 1.399 . S
C750 C751 1.376 . S
C751 H738 0.930 . S
C751 C750 1.376 . S
C751 C752 1.388 . S
C752 H739 0.930 . S
C752 C751 1.388 . S
C752 C753 1.390 . S
C753 C752 1.390 . S
C753 C754 1.394 . S
C753 C759 1.465 . S
C754 C749 1.399 . S
C754 C753 1.394 . S
C754 C755 1.516 . S
C755 C754 1.516 . S
C755 C756 1.502 . S
C755 C757 1.561 . S
C755 C758 1.526 . S
C756 H740 0.959 . S
C756 H741 0.959 . S
C756 H742 0.961 . S
C756 C755 1.502 . S
C757 H743 0.960 . S
C757 H744 0.961 . S
C757 H745 0.959 . S
C757 C755 1.561 . S
C758 C755 1.526 . S
C758 C759 1.396 . S
C758 C763 1.390 . S
C759 C753 1.465 . S
C759 C758 1.396 . S
C759 C760 1.399 . S
C760 H746 0.929 . S
C760 C759 1.399 . S
C760 C761 1.385 . S
C761 H747 0.931 . S
C761 C760 1.385 . S
C761 C762 1.389 . S
C762 C761 1.389 . S
C762 C763 1.387 . S
C763 H748 0.930 . S
C763 C758 1.390 . S
C763 C762 1.387 . S
H764 C776 0.930 . S
H765 C778 0.930 . S
H766 C779 0.930 . S
H767 C783 0.959 . S
H768 C783 0.959 1_556 S
H769 C783 0.961 . S
H770 C784 0.985 . S
H771 C784 0.961 . S
H772 C784 0.959 . S
H773 C787 0.929 . S
H774 C788 0.931 . S
H775 C790 0.930 . S
C776 H764 0.930 . S
C776 C777 1.399 . S
C776 C781 1.399 . S
C777 C776 1.399 . S
C777 C778 1.376 . S
C778 H765 0.930 . S
C778 C777 1.376 . S
C778 C779 1.388 . S
C779 H766 0.930 . S
C779 C778 1.388 . S
C779 C780 1.390 . S
C780 C779 1.390 . S
C780 C781 1.394 . S
C780 C786 1.465 1_554 S
C781 C776 1.399 . S
C781 C780 1.394 . S
C781 C782 1.516 1_554 S
C782 C781 1.516 1_556 S
C782 C783 1.502 1_556 S
C782 C784 1.561 . S
C782 C785 1.526 . S
C783 H767 0.959 . S
C783 H768 0.959 1_554 S
C783 H769 0.961 . S
C783 C782 1.502 1_554 S
C784 H770 0.985 . S
C784 H771 0.961 . S
C784 H772 0.959 . S
C784 C782 1.561 . S
C785 C782 1.526 . S
C785 C786 1.396 . S
C785 C790 1.390 . S
C786 C780 1.465 1_556 S
C786 C785 1.396 . S
C786 C787 1.399 . S
C787 H773 0.929 . S
C787 C786 1.399 . S
C787 C788 1.385 . S
C788 H774 0.931 . S
C788 C787 1.385 . S
C788 C789 1.389 . S
C789 C788 1.389 . S
C789 C790 1.387 . S
C790 H775 0.930 . S
C790 C785 1.390 . S
C790 C789 1.387 . S
H791 C803 0.930 . S
H792 C805 0.930 . S
H793 C806 0.930 . S
H794 C810 0.959 . S
H795 C810 0.959 . S
H796 C810 0.961 . S
H797 C811 0.960 . S
H798 C811 0.961 . S
H799 C811 0.959 . S
H800 C814 0.929 . S
H801 C815 0.931 . S
H802 C817 0.930 . S
C803 H791 0.930 . S
C803 C804 1.399 . S
C803 C808 1.399 . S
C804 C803 1.399 . S
C804 C805 1.376 . S
C805 H792 0.930 . S
C805 C804 1.376 . S
C805 C806 1.388 . S
C806 H793 0.930 . S
C806 C805 1.388 . S
C806 C807 1.390 . S
C807 C806 1.390 . S
C807 C808 1.394 . S
C807 C813 1.465 . S
C808 C803 1.399 . S
C808 C807 1.394 . S
C808 C809 1.516 . S
C809 C808 1.516 . S
C809 C810 1.502 . S
C809 C811 1.561 . S
C809 C812 1.526 . S
C810 H794 0.959 . S
C810 H795 0.959 . S
C810 H796 0.961 . S
C810 C809 1.502 . S
C811 H797 0.960 . S
C811 H798 0.961 . S
C811 H799 0.959 . S
C811 C809 1.561 . S
C812 C809 1.526 . S
C812 C813 1.396 . S
C812 C817 1.390 . S
C813 C807 1.465 . S
C813 C812 1.396 . S
C813 C814 1.399 . S
C814 H800 0.929 . S
C814 C813 1.399 . S
C814 C815 1.385 . S
C815 H801 0.931 . S
C815 C814 1.385 . S
C815 C816 1.389 . S
C816 C815 1.389 . S
C816 C817 1.387 . S
C817 H802 0.930 . S
C817 C812 1.390 . S
C817 C816 1.387 . S
H818 C830 0.930 . S
H819 C832 0.930 . S
H820 C833 0.930 . S
H821 C837 0.959 . S
H822 C837 0.959 . S
H823 C837 0.961 . S
H824 C838 0.960 . S
H825 C838 0.961 1_554 S
H826 C838 0.959 . S
H827 C841 0.929 . S
H828 C842 0.931 . S
H829 C844 0.930 . S
C830 H818 0.930 . S
C830 C831 1.399 . S
C830 C835 1.399 . S
C831 C830 1.399 . S
C831 C832 1.376 . S
C832 H819 0.930 . S
C832 C831 1.376 . S
C832 C833 1.388 . S
C833 H820 0.930 . S
C833 C832 1.388 . S
C833 C834 1.390 . S
C834 C833 1.390 . S
C834 C835 1.394 . S
C834 C840 1.465 1_556 S
C835 C830 1.399 . S
C835 C834 1.394 . S
C835 C836 1.516 1_556 S
C836 C835 1.516 1_554 S
C836 C837 1.502 . S
C836 C838 1.561 1_554 S
C836 C839 1.526 . S
C837 H821 0.959 . S
C837 H822 0.959 . S
C837 H823 0.961 . S
C837 C836 1.502 . S
C838 H824 0.960 . S
C838 H825 0.961 1_556 S
C838 H826 0.959 . S
C838 C836 1.561 1_556 S
C839 C836 1.526 . S
C839 C840 1.396 . S
C839 C844 1.390 . S
C840 C834 1.465 1_554 S
C840 C839 1.396 . S
C840 C841 1.399 . S
C841 H827 0.929 . S
C841 C840 1.399 . S
C841 C842 1.385 . S
C842 H828 0.931 . S
C842 C841 1.385 . S
C842 C843 1.389 . S
C843 C842 1.389 . S
C843 C844 1.387 . S
C844 H829 0.930 . S
C844 C839 1.390 . S
C844 C843 1.387 . S
H845 C857 0.930 . S
H846 C859 0.930 . S
H847 C860 0.930 . S
H848 C864 0.959 . S
H849 C864 0.959 . S
H850 C864 0.961 . S
H851 C865 0.960 . S
H852 C865 0.961 . S
H853 C865 0.959 . S
H854 C868 0.929 . S
H855 C869 0.931 . S
H856 C871 0.930 . S
C857 H845 0.930 . S
C857 C858 1.399 . S
C857 C862 1.399 . S
C858 C857 1.399 . S
C858 C859 1.376 . S
C859 H846 0.930 . S
C859 C858 1.376 . S
C859 C860 1.388 . S
C860 H847 0.930 . S
C860 C859 1.388 . S
C860 C861 1.390 . S
C861 C860 1.390 . S
C861 C862 1.394 . S
C861 C867 1.465 . S
C862 C857 1.399 . S
C862 C861 1.394 . S
C862 C863 1.516 . S
C863 C862 1.516 . S
C863 C864 1.502 . S
C863 C865 1.561 . S
C863 C866 1.526 . S
C864 H848 0.959 . S
C864 H849 0.959 . S
C864 H850 0.961 . S
C864 C863 1.502 . S
C865 H851 0.960 . S
C865 H852 0.961 . S
C865 H853 0.959 . S
C865 C863 1.561 . S
C866 C863 1.526 . S
C866 C867 1.396 . S
C866 C871 1.390 . S
C867 C861 1.465 . S
C867 C866 1.396 . S
C867 C868 1.399 . S
C868 H854 0.929 . S
C868 C867 1.399 . S
C868 C869 1.385 . S
C869 H855 0.931 . S
C869 C868 1.385 . S
C869 C870 1.389 . S
C870 C869 1.389 . S
C870 C871 1.387 . S
C871 H856 0.930 . S
C871 C866 1.390 . S
C871 C870 1.387 . S
H872 C884 0.930 . S
H873 C886 0.930 . S
H874 C887 0.930 . S
H875 C891 0.959 . S
H876 C891 0.959 . S
H877 C891 0.961 . S
H878 C892 0.960 . S
H879 C892 0.961 . S
H880 C892 0.959 . S
H881 C895 0.929 . S
H882 C896 0.931 . S
H883 C898 0.930 . S
C884 H872 0.930 . S
C884 C885 1.399 . S
C884 C889 1.399 . S
C885 C884 1.399 . S
C885 C886 1.376 . S
C886 H873 0.930 . S
C886 C885 1.376 . S
C886 C887 1.388 . S
C887 H874 0.930 . S
C887 C886 1.388 . S
C887 C888 1.390 . S
C888 C887 1.390 . S
C888 C889 1.394 . S
C888 C894 1.465 . S
C889 C884 1.399 . S
C889 C888 1.394 . S
C889 C890 1.516 . S
C890 C889 1.516 . S
C890 C891 1.502 . S
C890 C892 1.561 . S
C890 C893 1.526 . S
C891 H875 0.959 . S
C891 H876 0.959 . S
C891 H877 0.961 . S
C891 C890 1.502 . S
C892 H878 0.960 . S
C892 H879 0.961 . S
C892 H880 0.959 . S
C892 C890 1.561 . S
C893 C890 1.526 . S
C893 C894 1.396 . S
C893 C898 1.390 . S
C894 C888 1.465 . S
C894 C893 1.396 . S
C894 C895 1.399 . S
C895 H881 0.929 . S
C895 C894 1.399 . S
C895 C896 1.385 . S
C896 H882 0.931 . S
C896 C895 1.385 . S
C896 C897 1.389 . S
C897 C896 1.389 . S
C897 C898 1.387 . S
C898 H883 0.930 . S
C898 C893 1.390 . S
C898 C897 1.387 . S
H899 C911 0.930 . S
H900 C913 0.930 . S
H901 C914 0.930 . S
H902 C918 0.959 . S
H903 C918 0.959 . S
H904 C918 0.961 . S
H905 C919 0.960 . S
H906 C919 0.961 . S
H907 C919 0.959 . S
H908 C922 0.929 . S
H909 C923 0.931 . S
H910 C925 0.930 . S
C911 H899 0.930 . S
C911 C912 1.399 . S
C911 C916 1.399 . S
C912 C911 1.399 . S
C912 C913 1.376 . S
C913 H900 0.930 . S
C913 C912 1.376 . S
C913 C914 1.388 . S
C914 H901 0.930 . S
C914 C913 1.388 . S
C914 C915 1.390 . S
C915 C914 1.390 . S
C915 C916 1.394 . S
C915 C921 1.465 . S
C916 C911 1.399 . S
C916 C915 1.394 . S
C916 C917 1.516 . S
C917 C916 1.516 . S
C917 C918 1.502 . S
C917 C919 1.561 . S
C917 C920 1.526 . S
C918 H902 0.959 . S
C918 H903 0.959 . S
C918 H904 0.961 . S
C918 C917 1.502 . S
C919 H905 0.960 . S
C919 H906 0.961 . S
C919 H907 0.959 . S
C919 C917 1.561 . S
C920 C917 1.526 . S
C920 C921 1.396 . S
C920 C925 1.390 . S
C921 C915 1.465 . S
C921 C920 1.396 . S
C921 C922 1.399 . S
C922 H908 0.929 . S
C922 C921 1.399 . S
C922 C923 1.385 . S
C923 H909 0.931 . S
C923 C922 1.385 . S
C923 C924 1.389 . S
C924 C923 1.389 . S
C924 C925 1.387 . S
C925 H910 0.930 . S
C925 C920 1.390 . S
C925 C924 1.387 . S
H926 C938 0.930 . S
H927 C940 0.930 . S
H928 C941 0.930 . S
H929 C945 0.959 . S
H930 C945 0.959 . S
H931 C945 0.961 . S
H932 C946 0.960 . S
H933 C946 0.961 . S
H934 C946 0.959 . S
H935 C949 0.929 . S
H936 C950 0.931 . S
H937 C952 0.930 . S
C938 H926 0.930 . S
C938 C939 1.399 . S
C938 C943 1.399 . S
C939 C938 1.399 . S
C939 C940 1.376 . S
C940 H927 0.930 . S
C940 C939 1.376 . S
C940 C941 1.388 . S
C941 H928 0.930 . S
C941 C940 1.388 . S
C941 C942 1.390 . S
C942 C941 1.390 . S
C942 C943 1.394 . S
C942 C948 1.465 . S
C943 C938 1.399 . S
C943 C942 1.394 . S
C943 C944 1.516 . S
C944 C943 1.516 . S
C944 C945 1.502 . S
C944 C946 1.561 . S
C944 C947 1.526 . S
C945 H929 0.959 . S
C945 H930 0.959 . S
C945 H931 0.961 . S
C945 C944 1.502 . S
C946 H932 0.960 . S
C946 H933 0.961 . S
C946 H934 0.959 . S
C946 C944 1.561 . S
C947 C944 1.526 . S
C947 C948 1.396 . S
C947 C952 1.390 . S
C948 C942 1.465 . S
C948 C947 1.396 . S
C948 C949 1.399 . S
C949 H935 0.929 . S
C949 C948 1.399 . S
C949 C950 1.385 . S
C950 H936 0.931 . S
C950 C949 1.385 . S
C950 C951 1.389 . S
C951 C950 1.389 . S
C951 C952 1.387 . S
C952 H937 0.930 . S
C952 C947 1.390 . S
C952 C951 1.387 . S
H953 C965 0.930 . S
H954 C967 0.930 . S
H955 C968 0.930 . S
H956 C972 0.959 . S
H957 C972 0.959 . S
H958 C972 0.961 . S
H959 C973 0.960 . S
H960 C973 0.961 . S
H961 C973 0.959 . S
H962 C976 0.929 . S
H963 C977 0.931 . S
H964 C979 0.930 . S
C965 H953 0.930 . S
C965 C966 1.399 . S
C965 C970 1.399 . S
C966 C965 1.399 . S
C966 C967 1.376 . S
C967 H954 0.930 . S
C967 C966 1.376 . S
C967 C968 1.388 . S
C968 H955 0.930 . S
C968 C967 1.388 . S
C968 C969 1.390 . S
C969 C968 1.390 . S
C969 C970 1.394 . S
C969 C975 1.465 . S
C970 C965 1.399 . S
C970 C969 1.394 . S
C970 C971 1.516 . S
C971 C970 1.516 . S
C971 C972 1.502 . S
C971 C973 1.561 . S
C971 C974 1.526 . S
C972 H956 0.959 . S
C972 H957 0.959 . S
C972 H958 0.961 . S
C972 C971 1.502 . S
C973 H959 0.960 . S
C973 H960 0.961 . S
C973 H961 0.959 . S
C973 C971 1.561 . S
C974 C971 1.526 . S
C974 C975 1.396 . S
C974 C979 1.390 . S
C975 C969 1.465 . S
C975 C974 1.396 . S
C975 C976 1.399 . S
C976 H962 0.929 . S
C976 C975 1.399 . S
C976 C977 1.385 . S
C977 H963 0.931 . S
C977 C976 1.385 . S
C977 C978 1.389 . S
C978 C977 1.389 . S
C978 C979 1.387 . S
C979 H964 0.930 . S
C979 C974 1.390 . S
C979 C978 1.387 . S
H980 C992 0.930 . S
H981 C994 0.930 . S
H982 C995 0.930 . S
H983 C999 0.959 . S
H984 C999 0.959 . S
H985 C999 0.961 . S
H986 C1000 0.960 . S
H987 C1000 0.961 . S
H988 C1000 0.959 . S
H989 C1003 0.929 . S
H990 C1004 0.931 . S
H991 C1006 0.930 . S
C992 H980 0.930 . S
C992 C993 1.399 . S
C992 C997 1.399 . S
C993 C992 1.399 . S
C993 C994 1.376 . S
C994 H981 0.930 . S
C994 C993 1.376 . S
C994 C995 1.388 . S
C995 H982 0.930 . S
C995 C994 1.388 . S
C995 C996 1.390 . S
C996 C995 1.390 . S
C996 C997 1.394 . S
C996 C1002 1.465 . S
C997 C992 1.399 . S
C997 C996 1.394 . S
C997 C998 1.516 . S
C998 C997 1.516 . S
C998 C999 1.502 . S
C998 C1000 1.561 . S
C998 C1001 1.526 . S
C999 H983 0.959 . S
C999 H984 0.959 . S
C999 H985 0.961 . S
C999 C998 1.502 . S
C1000 H986 0.960 . S
C1000 H987 0.961 . S
C1000 H988 0.959 . S
C1000 C998 1.561 . S
C1001 C998 1.526 . S
C1001 C1002 1.396 . S
C1001 C1006 1.390 . S
C1002 C996 1.465 . S
C1002 C1001 1.396 . S
C1002 C1003 1.399 . S
C1003 H989 0.929 . S
C1003 C1002 1.399 . S
C1003 C1004 1.385 . S
C1004 H990 0.931 . S
C1004 C1003 1.385 . S
C1004 C1005 1.389 . S
C1005 C1004 1.389 . S
C1005 C1006 1.387 . S
C1006 H991 0.930 . S
C1006 C1001 1.390 . S
C1006 C1005 1.387 . S
H1007 C1019 0.930 . S
H1008 C1021 0.930 . S
H1009 C1022 0.930 . S
H1010 C1026 0.959 . S
H1011 C1026 0.959 . S
H1012 C1026 0.961 . S
H1013 C1027 0.960 . S
H1014 C1027 0.961 . S
H1015 C1027 0.959 . S
H1016 C1030 0.929 . S
H1017 C1031 0.931 . S
H1018 C1033 0.930 . S
C1019 H1007 0.930 . S
C1019 C1020 1.399 . S
C1019 C1024 1.399 . S
C1020 C1019 1.399 . S
C1020 C1021 1.376 . S
C1021 H1008 0.930 . S
C1021 C1020 1.376 . S
C1021 C1022 1.388 . S
C1022 H1009 0.930 . S
C1022 C1021 1.388 . S
C1022 C1023 1.390 . S
C1023 C1022 1.390 . S
C1023 C1024 1.394 . S
C1023 C1029 1.465 . S
C1024 C1019 1.399 . S
C1024 C1023 1.394 . S
C1024 C1025 1.516 . S
C1025 C1024 1.516 . S
C1025 C1026 1.502 . S
C1025 C1027 1.561 . S
C1025 C1028 1.526 . S
C1026 H1010 0.959 . S
C1026 H1011 0.959 . S
C1026 H1012 0.961 . S
C1026 C1025 1.502 . S
C1027 H1013 0.960 . S
C1027 H1014 0.961 . S
C1027 H1015 0.959 . S
C1027 C1025 1.561 . S
C1028 C1025 1.526 . S
C1028 C1029 1.396 . S
C1028 C1033 1.390 . S
C1029 C1023 1.465 . S
C1029 C1028 1.396 . S
C1029 C1030 1.399 . S
C1030 H1016 0.929 . S
C1030 C1029 1.399 . S
C1030 C1031 1.385 . S
C1031 H1017 0.931 . S
C1031 C1030 1.385 . S
C1031 C1032 1.389 . S
C1032 C1031 1.389 . S
C1032 C1033 1.387 . S
C1033 H1018 0.930 . S
C1033 C1028 1.390 . S
C1033 C1032 1.387 . S
H1034 C1046 0.930 . S
H1035 C1048 0.930 . S
H1036 C1049 0.930 . S
H1037 C1053 0.959 . S
H1038 C1053 0.959 . S
H1039 C1053 0.961 . S
H1040 C1054 0.960 . S
H1041 C1054 0.961 . S
H1042 C1054 0.959 . S
H1043 C1057 0.929 . S
H1044 C1058 0.931 . S
H1045 C1060 0.930 . S
C1046 H1034 0.930 . S
C1046 C1047 1.399 . S
C1046 C1051 1.399 . S
C1047 C1046 1.399 . S
C1047 C1048 1.376 . S
C1048 H1035 0.930 . S
C1048 C1047 1.376 . S
C1048 C1049 1.388 . S
C1049 H1036 0.930 . S
C1049 C1048 1.388 . S
C1049 C1050 1.390 . S
C1050 C1049 1.390 . S
C1050 C1051 1.394 . S
C1050 C1056 1.465 . S
C1051 C1046 1.399 . S
C1051 C1050 1.394 . S
C1051 C1052 1.516 . S
C1052 C1051 1.516 . S
C1052 C1053 1.502 . S
C1052 C1054 1.561 . S
C1052 C1055 1.526 . S
C1053 H1037 0.959 . S
C1053 H1038 0.959 . S
C1053 H1039 0.961 . S
C1053 C1052 1.502 . S
C1054 H1040 0.960 . S
C1054 H1041 0.961 . S
C1054 H1042 0.959 . S
C1054 C1052 1.561 . S
C1055 C1052 1.526 . S
C1055 C1056 1.396 . S
C1055 C1060 1.390 . S
C1056 C1050 1.465 . S
C1056 C1055 1.396 . S
C1056 C1057 1.399 . S
C1057 H1043 0.929 . S
C1057 C1056 1.399 . S
C1057 C1058 1.385 . S
C1058 H1044 0.931 . S
C1058 C1057 1.385 . S
C1058 C1059 1.389 . S
C1059 C1058 1.389 . S
C1059 C1060 1.387 . S
C1060 H1045 0.930 . S
C1060 C1055 1.390 . S
C1060 C1059 1.387 . S
H1061 C1073 0.930 . S
H1062 C1075 0.930 . S
H1063 C1076 0.930 . S
H1064 C1080 0.959 . S
H1065 C1080 0.959 . S
H1066 C1080 0.961 . S
H1067 C1081 0.960 . S
H1068 C1081 0.961 . S
H1069 C1081 0.959 . S
H1070 C1084 0.929 . S
H1071 C1085 0.931 . S
H1072 C1087 0.930 . S
C1073 H1061 0.930 . S
C1073 C1074 1.399 . S
C1073 C1078 1.399 . S
C1074 C1073 1.399 . S
C1074 C1075 1.376 . S
C1075 H1062 0.930 . S
C1075 C1074 1.376 . S
C1075 C1076 1.388 . S
C1076 H1063 0.930 . S
C1076 C1075 1.388 . S
C1076 C1077 1.390 . S
C1077 C1076 1.390 . S
C1077 C1078 1.394 . S
C1077 C1083 1.465 . S
C1078 C1073 1.399 . S
C1078 C1077 1.394 . S
C1078 C1079 1.516 . S
C1079 C1078 1.516 . S
C1079 C1080 1.502 . S
C1079 C1081 1.561 . S
C1079 C1082 1.526 . S
C1080 H1064 0.959 . S
C1080 H1065 0.959 . S
C1080 H1066 0.961 . S
C1080 C1079 1.502 . S
C1081 H1067 0.960 . S
C1081 H1068 0.961 . S
C1081 H1069 0.959 . S
C1081 C1079 1.561 . S
C1082 C1079 1.526 . S
C1082 C1083 1.396 . S
C1082 C1087 1.390 . S
C1083 C1077 1.465 . S
C1083 C1082 1.396 . S
C1083 C1084 1.399 . S
C1084 H1070 0.929 . S
C1084 C1083 1.399 . S
C1084 C1085 1.385 . S
C1085 H1071 0.931 . S
C1085 C1084 1.385 . S
C1085 C1086 1.389 . S
C1086 C1085 1.389 . S
C1086 C1087 1.387 . S
C1087 H1072 0.930 . S
C1087 C1082 1.390 . S
C1087 C1086 1.387 . S
C453 N83 1.650 . S
C465 C178 1.655 . S
C492 C262 1.610 . S
C480 N96 1.615 . S
C519 C255 1.648 . S
C507 N57 1.606 . S
C534 N70 1.602 . S
C546 C171 1.652 . S
C573 C335 1.613 . S
C561 N31 1.618 . S
C600 C419 1.654 . S
C588 N44 1.656 . S
C615 N5 1.638 . S
C627 C412 1.654 . S
C642 N18 1.650 . S
C654 C328 1.641 . S
C681 C162 1.494 . S
C669 N14 1.612 . S
C708 C246 1.427 . S
C696 N1 1.618 . S
C735 C257 1.435 . S
C723 N40 1.620 . S
C762 C173 1.451 . S
C750 N27 1.618 . S
C789 C341 1.393 . S
C777 N66 1.614 . S
C804 N53 1.616 . S
C816 C425 1.403 . S
C843 C414 1.387 . S
C831 N92 1.590 . S
C858 N79 1.588 . S
C870 C330 1.378 . S
C897 C160 1.545 . S
C885 N2 1.541 . S
C924 C244 1.541 . S
C912 N15 1.544 . S
C939 N28 1.541 . S
C951 C251 1.533 . S
C978 C167 1.526 . S
C966 N41 1.533 . S
C1005 C339 1.535 . S
C993 N54 1.519 . S
C1020 N67 1.539 . S
C1032 C423 1.531 . S
C1047 N80 1.517 . S
C1059 C430 1.486 . S
C1074 N93 1.526 . S
C1086 C346 1.486 . S
