# Generated by pormake.
# Topology ptr, (4,4)-cn, num edge types: 1
# Building blocks:
#     Node 0, Type 0, BuildingBlock: QUQFOY_clean_sbu_1, # of connection points: 4
#     Node 1, Type 0, BuildingBlock: QUQFOY_clean_sbu_1, # of connection points: 4
#     Node 2, Type 0, BuildingBlock: QUQFOY_clean_sbu_1, # of connection points: 4
#     Node 3, Type 0, BuildingBlock: QUQFOY_clean_sbu_1, # of connection points: 4
#     Node 4, Type 0, BuildingBlock: QUQFOY_clean_sbu_1, # of connection points: 4
#     Node 5, Type 0, BuildingBlock: QUQFOY_clean_sbu_1, # of connection points: 4
#     Node 6, Type 0, BuildingBlock: QUQFOY_clean_sbu_1, # of connection points: 4
#     Node 7, Type 0, BuildingBlock: QUQFOY_clean_sbu_1, # of connection points: 4
#     Node 8, Type 0, BuildingBlock: QUQFOY_clean_sbu_1, # of connection points: 4
#     Node 9, Type 0, BuildingBlock: QUQFOY_clean_sbu_1, # of connection points: 4
#     Node 10, Type 0, BuildingBlock: QUQFOY_clean_sbu_1, # of connection points: 4
#     Node 11, Type 0, BuildingBlock: QUQFOY_clean_sbu_1, # of connection points: 4
#     Node 12, Type 0, BuildingBlock: QUQFOY_clean_sbu_1, # of connection points: 4
#     Node 13, Type 0, BuildingBlock: QUQFOY_clean_sbu_1, # of connection points: 4
#     Node 14, Type 0, BuildingBlock: QUQFOY_clean_sbu_1, # of connection points: 4
#     Node 15, Type 0, BuildingBlock: QUQFOY_clean_sbu_1, # of connection points: 4
#     Node 16, Type 0, BuildingBlock: QUQFOY_clean_sbu_1, # of connection points: 4
#     Node 17, Type 0, BuildingBlock: QUQFOY_clean_sbu_1, # of connection points: 4
#     Node 18, Type 1, BuildingBlock: NAHDIM_clean_linker_0, # of connection points: 4
#     Node 19, Type 1, BuildingBlock: NAHDIM_clean_linker_0, # of connection points: 4
#     Node 20, Type 1, BuildingBlock: NAHDIM_clean_linker_0, # of connection points: 4
#     Node 21, Type 1, BuildingBlock: NAHDIM_clean_linker_0, # of connection points: 4
#     Node 22, Type 1, BuildingBlock: NAHDIM_clean_linker_0, # of connection points: 4
#     Node 23, Type 1, BuildingBlock: NAHDIM_clean_linker_0, # of connection points: 4
#     Node 24, Type 1, BuildingBlock: NAHDIM_clean_linker_0, # of connection points: 4
#     Node 25, Type 1, BuildingBlock: NAHDIM_clean_linker_0, # of connection points: 4
#     Node 26, Type 1, BuildingBlock: NAHDIM_clean_linker_0, # of connection points: 4
#     Node 27, Type 1, BuildingBlock: NAHDIM_clean_linker_0, # of connection points: 4
#     Node 28, Type 1, BuildingBlock: NAHDIM_clean_linker_0, # of connection points: 4
#     Node 29, Type 1, BuildingBlock: NAHDIM_clean_linker_0, # of connection points: 4
#     Node 30, Type 1, BuildingBlock: NAHDIM_clean_linker_0, # of connection points: 4
#     Node 31, Type 1, BuildingBlock: NAHDIM_clean_linker_0, # of connection points: 4
#     Node 32, Type 1, BuildingBlock: NAHDIM_clean_linker_0, # of connection points: 4
#     Node 33, Type 1, BuildingBlock: NAHDIM_clean_linker_0, # of connection points: 4
#     Node 34, Type 1, BuildingBlock: NAHDIM_clean_linker_0, # of connection points: 4
#     Node 35, Type 1, BuildingBlock: NAHDIM_clean_linker_0, # of connection points: 4
#     Edge 36, Type (0, 1), BuildingBlock: KIFKEQ_clean_linker_1, # of connection points: 2
#     Edge 37, Type (0, 1), BuildingBlock: KIFKEQ_clean_linker_1, # of connection points: 2
#     Edge 38, Type (0, 1), BuildingBlock: KIFKEQ_clean_linker_1, # of connection points: 2
#     Edge 39, Type (0, 1), BuildingBlock: KIFKEQ_clean_linker_1, # of connection points: 2
#     Edge 40, Type (0, 1), BuildingBlock: KIFKEQ_clean_linker_1, # of connection points: 2
#     Edge 41, Type (0, 1), BuildingBlock: KIFKEQ_clean_linker_1, # of connection points: 2
#     Edge 42, Type (0, 1), BuildingBlock: KIFKEQ_clean_linker_1, # of connection points: 2
#     Edge 43, Type (0, 1), BuildingBlock: KIFKEQ_clean_linker_1, # of connection points: 2
#     Edge 44, Type (0, 1), BuildingBlock: KIFKEQ_clean_linker_1, # of connection points: 2
#     Edge 45, Type (0, 1), BuildingBlock: KIFKEQ_clean_linker_1, # of connection points: 2
#     Edge 46, Type (0, 1), BuildingBlock: KIFKEQ_clean_linker_1, # of connection points: 2
#     Edge 47, Type (0, 1), BuildingBlock: KIFKEQ_clean_linker_1, # of connection points: 2
#     Edge 48, Type (0, 1), BuildingBlock: KIFKEQ_clean_linker_1, # of connection points: 2
#     Edge 49, Type (0, 1), BuildingBlock: KIFKEQ_clean_linker_1, # of connection points: 2
#     Edge 50, Type (0, 1), BuildingBlock: KIFKEQ_clean_linker_1, # of connection points: 2
#     Edge 51, Type (0, 1), BuildingBlock: KIFKEQ_clean_linker_1, # of connection points: 2
#     Edge 52, Type (0, 1), BuildingBlock: KIFKEQ_clean_linker_1, # of connection points: 2
#     Edge 53, Type (0, 1), BuildingBlock: KIFKEQ_clean_linker_1, # of connection points: 2
#     Edge 54, Type (0, 1), BuildingBlock: KIFKEQ_clean_linker_1, # of connection points: 2
#     Edge 55, Type (0, 1), BuildingBlock: KIFKEQ_clean_linker_1, # of connection points: 2
#     Edge 56, Type (0, 1), BuildingBlock: KIFKEQ_clean_linker_1, # of connection points: 2
#     Edge 57, Type (0, 1), BuildingBlock: KIFKEQ_clean_linker_1, # of connection points: 2
#     Edge 58, Type (0, 1), BuildingBlock: KIFKEQ_clean_linker_1, # of connection points: 2
#     Edge 59, Type (0, 1), BuildingBlock: KIFKEQ_clean_linker_1, # of connection points: 2
#     Edge 60, Type (0, 1), BuildingBlock: KIFKEQ_clean_linker_1, # of connection points: 2
#     Edge 61, Type (0, 1), BuildingBlock: KIFKEQ_clean_linker_1, # of connection points: 2
#     Edge 62, Type (0, 1), BuildingBlock: KIFKEQ_clean_linker_1, # of connection points: 2
#     Edge 63, Type (0, 1), BuildingBlock: KIFKEQ_clean_linker_1, # of connection points: 2
#     Edge 64, Type (0, 1), BuildingBlock: KIFKEQ_clean_linker_1, # of connection points: 2
#     Edge 65, Type (0, 1), BuildingBlock: KIFKEQ_clean_linker_1, # of connection points: 2
#     Edge 66, Type (0, 1), BuildingBlock: KIFKEQ_clean_linker_1, # of connection points: 2
#     Edge 67, Type (0, 1), BuildingBlock: KIFKEQ_clean_linker_1, # of connection points: 2
#     Edge 68, Type (0, 1), BuildingBlock: KIFKEQ_clean_linker_1, # of connection points: 2
#     Edge 69, Type (0, 1), BuildingBlock: KIFKEQ_clean_linker_1, # of connection points: 2
#     Edge 70, Type (0, 1), BuildingBlock: KIFKEQ_clean_linker_1, # of connection points: 2
#     Edge 71, Type (0, 1), BuildingBlock: KIFKEQ_clean_linker_1, # of connection points: 2
#     Edge 72, Type (0, 1), BuildingBlock: KIFKEQ_clean_linker_1, # of connection points: 2
#     Edge 73, Type (0, 1), BuildingBlock: KIFKEQ_clean_linker_1, # of connection points: 2
#     Edge 74, Type (0, 1), BuildingBlock: KIFKEQ_clean_linker_1, # of connection points: 2
#     Edge 75, Type (0, 1), BuildingBlock: KIFKEQ_clean_linker_1, # of connection points: 2
#     Edge 76, Type (0, 1), BuildingBlock: KIFKEQ_clean_linker_1, # of connection points: 2
#     Edge 77, Type (0, 1), BuildingBlock: KIFKEQ_clean_linker_1, # of connection points: 2
#     Edge 78, Type (0, 1), BuildingBlock: KIFKEQ_clean_linker_1, # of connection points: 2
#     Edge 79, Type (0, 1), BuildingBlock: KIFKEQ_clean_linker_1, # of connection points: 2
#     Edge 80, Type (0, 1), BuildingBlock: KIFKEQ_clean_linker_1, # of connection points: 2
#     Edge 81, Type (0, 1), BuildingBlock: KIFKEQ_clean_linker_1, # of connection points: 2
#     Edge 82, Type (0, 1), BuildingBlock: KIFKEQ_clean_linker_1, # of connection points: 2
#     Edge 83, Type (0, 1), BuildingBlock: KIFKEQ_clean_linker_1, # of connection points: 2
#     Edge 84, Type (0, 1), BuildingBlock: KIFKEQ_clean_linker_1, # of connection points: 2
#     Edge 85, Type (0, 1), BuildingBlock: KIFKEQ_clean_linker_1, # of connection points: 2
#     Edge 86, Type (0, 1), BuildingBlock: KIFKEQ_clean_linker_1, # of connection points: 2
#     Edge 87, Type (0, 1), BuildingBlock: KIFKEQ_clean_linker_1, # of connection points: 2
#     Edge 88, Type (0, 1), BuildingBlock: KIFKEQ_clean_linker_1, # of connection points: 2
#     Edge 89, Type (0, 1), BuildingBlock: KIFKEQ_clean_linker_1, # of connection points: 2
#     Edge 90, Type (0, 1), BuildingBlock: KIFKEQ_clean_linker_1, # of connection points: 2
#     Edge 91, Type (0, 1), BuildingBlock: KIFKEQ_clean_linker_1, # of connection points: 2
#     Edge 92, Type (0, 1), BuildingBlock: KIFKEQ_clean_linker_1, # of connection points: 2
#     Edge 93, Type (0, 1), BuildingBlock: KIFKEQ_clean_linker_1, # of connection points: 2
#     Edge 94, Type (0, 1), BuildingBlock: KIFKEQ_clean_linker_1, # of connection points: 2
#     Edge 95, Type (0, 1), BuildingBlock: KIFKEQ_clean_linker_1, # of connection points: 2
#     Edge 96, Type (0, 1), BuildingBlock: KIFKEQ_clean_linker_1, # of connection points: 2
#     Edge 97, Type (0, 1), BuildingBlock: KIFKEQ_clean_linker_1, # of connection points: 2
#     Edge 98, Type (0, 1), BuildingBlock: KIFKEQ_clean_linker_1, # of connection points: 2
#     Edge 99, Type (0, 1), BuildingBlock: KIFKEQ_clean_linker_1, # of connection points: 2
#     Edge 100, Type (0, 1), BuildingBlock: KIFKEQ_clean_linker_1, # of connection points: 2
#     Edge 101, Type (0, 1), BuildingBlock: KIFKEQ_clean_linker_1, # of connection points: 2
#     Edge 102, Type (0, 1), BuildingBlock: KIFKEQ_clean_linker_1, # of connection points: 2
#     Edge 103, Type (0, 1), BuildingBlock: KIFKEQ_clean_linker_1, # of connection points: 2
#     Edge 104, Type (0, 1), BuildingBlock: KIFKEQ_clean_linker_1, # of connection points: 2
#     Edge 105, Type (0, 1), BuildingBlock: KIFKEQ_clean_linker_1, # of connection points: 2
#     Edge 106, Type (0, 1), BuildingBlock: KIFKEQ_clean_linker_1, # of connection points: 2
#     Edge 107, Type (0, 1), BuildingBlock: KIFKEQ_clean_linker_1, # of connection points: 2
# Relax obj value: 0.010
# Max RMSD: 0.100
# Mean RMSD: 0.055
data_MOF--net-ptr--node1-QUQFOY_clean_sbu_1--node2-NAHDIM_clean_linker_0--edge1-KIFKEQ_clean_linker_1
_symmetry_space_group_name_H-M    P1
_symmetry_Int_Tables_number       1
_symmetry_cell_setting            triclinic
loop_
_symmetry_equiv_pos_as_xyz
'x, y, z'
_cell_length_a     97.790863
_cell_length_b     97.322503
_cell_length_c     83.480308
_cell_angle_alpha  90.896275
_cell_angle_beta   90.302607
_cell_angle_gamma 119.92434
loop_
_atom_site_label
_atom_site_type_symbol
_atom_site_fract_x
_atom_site_fract_y
_atom_site_fract_z
_atom_type_partial_charge
O0 O 0.01239 0.36285 0.02974 0.0
Cd1 Cd 0.01997 0.35451 0.01104 0.0
Cd2 Cd 0.98903 0.33796 0.00277 0.0
O3 O 0.98697 0.34834 0.02385 0.0
O4 O 0.0403 0.35578 0.01738 0.0
O5 O 0.01782 0.33314 0.01369 0.0
C6 C 0.03259 0.34048 0.01775 0.0
C7 C 0.97209 0.31091 0.99739 0.0
C8 C 0.99811 0.35852 0.03284 0.0
C9 C 0.01106 0.36245 0.9797 0.0
O10 O 0.99699 0.35205 0.98295 0.0
O11 O 0.02239 0.3652 0.98921 0.0
O12 O 0.9672 0.32098 0.99669 0.0
O13 O 0.98661 0.31615 0.00161 0.0
O14 O 0.63731 0.63632 0.03994 0.0
Cd15 Cd 0.64298 0.65434 0.02414 0.0
Cd16 Cd 0.65692 0.63973 0.00887 0.0
O17 O 0.64926 0.62481 0.02825 0.0
O18 O 0.63898 0.66946 0.03677 0.0
O19 O 0.66264 0.67543 0.02816 0.0
C20 C 0.65389 0.67943 0.03625 0.0
C21 C 0.68316 0.65194 0.00104 0.0
C22 C 0.64106 0.62557 0.03963 0.0
C23 C 0.63083 0.64125 0.99112 0.0
O24 O 0.64069 0.63636 0.99118 0.0
O25 O 0.62992 0.64901 0.00308 0.0
O26 O 0.67369 0.637 0.9984 0.0
O27 O 0.67782 0.65994 0.00859 0.0
O28 O 0.3638 0.00983 0.98472 0.0
Cd29 Cd 0.35649 0.01812 0.00373 0.0
Cd30 Cd 0.34083 0.98712 0.01126 0.0
O31 O 0.35026 0.98431 0.99009 0.0
O32 O 0.35981 0.03929 0.9975 0.0
O33 O 0.3362 0.01832 0.00092 0.0
C34 C 0.34466 0.03298 0.99696 0.0
C35 C 0.31409 0.97286 0.01721 0.0
C36 C 0.35978 0.99553 0.98127 0.0
C37 C 0.36565 0.00953 0.0347 0.0
O38 O 0.35559 0.99526 0.03099 0.0
O39 O 0.36774 0.02079 0.02563 0.0
O40 O 0.32266 0.9662 0.01724 0.0
O41 O 0.32056 0.98746 0.01292 0.0
O42 O 0.99386 0.64018 0.98971 0.0
Cd43 Cd 0.98617 0.6479 0.00897 0.0
Cd44 Cd 0.01696 0.66114 0.01717 0.0
O45 O 0.01942 0.65272 0.99518 0.0
O46 O 0.9656 0.64551 0.0016 0.0
O47 O 0.98673 0.66871 0.00717 0.0
C48 C 0.97233 0.66078 0.00201 0.0
C49 C 0.03069 0.68782 0.02478 0.0
C50 C 0.00782 0.6437 0.98604 0.0
C51 C 0.99362 0.63638 0.03899 0.0
O52 O 0.00801 0.64514 0.03534 0.0
O53 O 0.98274 0.63626 0.03044 0.0
O54 O 0.03746 0.67933 0.025 0.0
O55 O 0.01629 0.68124 0.01958 0.0
O56 O 0.3684 0.37086 0.98611 0.0
Cd57 Cd 0.36282 0.35289 0.00197 0.0
Cd58 Cd 0.34656 0.3652 0.01623 0.0
O59 O 0.35352 0.37973 0.99656 0.0
O60 O 0.36473 0.33586 0.9904 0.0
O61 O 0.3421 0.33279 0.99929 0.0
C62 C 0.34965 0.327 0.99172 0.0
C63 C 0.32035 0.35246 0.02442 0.0
C64 C 0.36302 0.38036 0.98587 0.0
C65 C 0.37364 0.36613 0.03491 0.0
O66 O 0.36297 0.36995 0.03425 0.0
O67 O 0.37553 0.35871 0.02326 0.0
O68 O 0.32954 0.36748 0.0268 0.0
O69 O 0.32593 0.34471 0.01682 0.0
O70 O 0.6393 0.99538 0.03546 0.0
Cd71 Cd 0.64779 0.98645 0.01805 0.0
Cd72 Cd 0.6648 0.01691 0.01073 0.0
O73 O 0.65711 0.02059 0.03262 0.0
O74 O 0.64429 0.96561 0.02567 0.0
O75 O 0.668 0.98645 0.02234 0.0
C76 C 0.65943 0.97192 0.02669 0.0
C77 C 0.69133 0.031 0.00358 0.0
C78 C 0.64545 0.0098 0.04003 0.0
C79 C 0.63957 0.99503 0.98707 0.0
O80 O 0.64892 0.00923 0.99172 0.0
O81 O 0.63816 0.98353 0.99533 0.0
O82 O 0.68274 0.03763 0.00391 0.0
O83 O 0.68498 0.01644 0.00798 0.0
O84 O 0.66953 0.69724 0.36548 0.0
Cd85 Cd 0.68273 0.69445 0.34798 0.0
Cd86 Cd 0.65486 0.68061 0.33155 0.0
O87 O 0.64698 0.68681 0.35197 0.0
O88 O 0.70261 0.69834 0.35882 0.0
O89 O 0.68538 0.6752 0.3478 0.0
C90 C 0.69853 0.6838 0.35553 0.0
C91 C 0.64192 0.65457 0.32155 0.0
C92 C 0.65512 0.69356 0.36457 0.0
C93 C 0.6817 0.7092 0.31689 0.0
O94 O 0.66747 0.69811 0.31529 0.0
O95 O 0.68985 0.71001 0.32916 0.0
O96 O 0.63611 0.66378 0.31957 0.0
O97 O 0.65496 0.66006 0.32967 0.0
O98 O 0.30235 0.97047 0.37894 0.0
Cd99 Cd 0.30918 0.98801 0.3623 0.0
Cd100 Cd 0.32085 0.97025 0.34699 0.0
O101 O 0.3122 0.95684 0.36734 0.0
O102 O 0.30798 0.00554 0.37359 0.0
O103 O 0.33034 0.00787 0.36484 0.0
C104 C 0.32307 0.01407 0.37224 0.0
C105 C 0.34445 0.97362 0.33634 0.0
C106 C 0.30481 0.95882 0.37881 0.0
C107 C 0.29583 0.97459 0.32976 0.0
O108 O 0.30492 0.96877 0.32981 0.0
O109 O 0.29566 0.98285 0.34162 0.0
O110 O 0.33159 0.96014 0.33575 0.0
O111 O 0.34412 0.98532 0.34348 0.0
O112 O 0.03712 0.33305 0.31926 0.0
Cd113 Cd 0.03197 0.34647 0.33471 0.0
Cd114 Cd 0.01565 0.31842 0.34994 0.0
O115 O 0.02281 0.30996 0.3307 0.0
O116 O 0.03681 0.36592 0.32281 0.0
O117 O 0.01282 0.34864 0.33086 0.0
C118 C 0.02204 0.3616 0.32355 0.0
C119 C 0.98934 0.30456 0.35789 0.0
C120 C 0.03203 0.31824 0.31966 0.0
C121 C 0.04291 0.34552 0.36792 0.0
O122 O 0.03205 0.33106 0.36786 0.0
O123 O 0.04478 0.35405 0.35585 0.0
O124 O 0.99892 0.29938 0.36078 0.0
O125 O 0.99464 0.31757 0.35008 0.0
O126 O 0.66477 0.95825 0.32045 0.0
Cd127 Cd 0.65223 0.96359 0.33678 0.0
Cd128 Cd 0.68036 0.97862 0.35214 0.0
O129 O 0.68827 0.97252 0.33184 0.0
O130 O 0.63302 0.96039 0.32506 0.0
O131 O 0.65162 0.98377 0.33441 0.0
C132 C 0.63843 0.97545 0.32668 0.0
C133 C 0.69255 0.00498 0.36107 0.0
C134 C 0.67957 0.96352 0.32045 0.0
C135 C 0.65381 0.9514 0.36901 0.0
O136 O 0.66849 0.96142 0.36892 0.0
O137 O 0.64491 0.9507 0.35749 0.0
O138 O 0.69896 0.99636 0.36344 0.0
O139 O 0.67926 0.99866 0.3533 0.0
O140 O 0.03934 0.70872 0.3173 0.0
Cd141 Cd 0.03377 0.69118 0.33381 0.0
Cd142 Cd 0.01851 0.70505 0.34759 0.0
O143 O 0.02498 0.71847 0.32716 0.0
O144 O 0.0387 0.67576 0.32309 0.0
O145 O 0.01458 0.66962 0.33017 0.0
C146 C 0.02389 0.66538 0.32364 0.0
C147 C 0.99231 0.69191 0.35582 0.0
C148 C 0.03419 0.71839 0.31651 0.0
C149 C 0.04516 0.70592 0.36652 0.0
O150 O 0.03533 0.71081 0.36541 0.0
O151 O 0.046 0.69729 0.35542 0.0
O152 O 0.00117 0.70705 0.35773 0.0
O153 O 0.99825 0.68421 0.34873 0.0
O154 O 0.30017 0.33374 0.36934 0.0
Cd155 Cd 0.30593 0.3227 0.35145 0.0
Cd156 Cd 0.32085 0.35219 0.3396 0.0
O157 O 0.31456 0.35825 0.36105 0.0
O158 O 0.30277 0.30256 0.3607 0.0
O159 O 0.3261 0.32202 0.35348 0.0
C160 C 0.31777 0.30816 0.35957 0.0
C161 C 0.34692 0.36635 0.331 0.0
C162 C 0.30535 0.34852 0.37127 0.0
C163 C 0.29378 0.32684 0.32003 0.0
O164 O 0.30367 0.34153 0.32194 0.0
O165 O 0.29317 0.31693 0.33016 0.0
O166 O 0.33765 0.37219 0.3302 0.0
O167 O 0.34145 0.35247 0.33706 0.0
O168 O 0.33229 0.03113 0.69586 0.0
Cd169 Cd 0.34617 0.02873 0.67881 0.0
Cd170 Cd 0.3165 0.01197 0.66358 0.0
O171 O 0.30882 0.018 0.68412 0.0
O172 O 0.36712 0.03918 0.68989 0.0
O173 O 0.3546 0.01381 0.68292 0.0
C174 C 0.36668 0.02575 0.68969 0.0
C175 C 0.30405 0.9857 0.65429 0.0
C176 C 0.31755 0.02609 0.69592 0.0
C177 C 0.34171 0.04028 0.64674 0.0
O178 O 0.32743 0.02915 0.64665 0.0
O179 O 0.35099 0.04184 0.65824 0.0
O180 O 0.29761 0.99438 0.65258 0.0
O181 O 0.31753 0.99188 0.6617 0.0
O182 O 0.9682 0.29984 0.70136 0.0
Cd183 Cd 0.97406 0.31729 0.68482 0.0
Cd184 Cd 0.98852 0.3027 0.67084 0.0
O185 O 0.9808 0.2885 0.69076 0.0
O186 O 0.96983 0.333 0.69594 0.0
O187 O 0.99369 0.33839 0.68867 0.0
C188 C 0.98478 0.34288 0.69569 0.0
C189 C 0.01495 0.31526 0.66359 0.0
C190 C 0.97227 0.28934 0.70174 0.0
C191 C 0.9625 0.30312 0.65196 0.0
O192 O 0.97244 0.29834 0.65265 0.0
O193 O 0.96143 0.31124 0.66346 0.0
O194 O 0.00582 0.3002 0.66134 0.0
O195 O 0.00915 0.3232 0.6704 0.0
O196 O 0.69597 0.6691 0.6503 0.0
Cd197 Cd 0.69062 0.6806 0.66797 0.0
Cd198 Cd 0.67691 0.65164 0.68133 0.0
O199 O 0.68439 0.6453 0.66079 0.0
O200 O 0.6941 0.70072 0.65846 0.0
O201 O 0.6706 0.68152 0.66566 0.0
C202 C 0.67913 0.69531 0.65952 0.0
C203 C 0.6507 0.63747 0.68927 0.0
C204 C 0.69228 0.6546 0.64963 0.0
C205 C 0.70338 0.67833 0.70001 0.0
O206 O 0.69334 0.6636 0.69929 0.0
O207 O 0.70413 0.68735 0.6888 0.0
O208 O 0.66014 0.63194 0.69118 0.0
O209 O 0.65606 0.65093 0.68232 0.0
O210 O 0.33116 0.29943 0.65482 0.0
Cd211 Cd 0.31992 0.30454 0.67289 0.0
Cd212 Cd 0.34856 0.31586 0.68721 0.0
O213 O 0.3549 0.30975 0.66586 0.0
O214 O 0.30074 0.30282 0.66235 0.0
O215 O 0.32021 0.32533 0.67234 0.0
C216 C 0.30684 0.31789 0.66478 0.0
C217 C 0.36137 0.34187 0.69711 0.0
C218 C 0.34546 0.30272 0.65414 0.0
C219 C 0.32114 0.28918 0.70347 0.0
O220 O 0.33603 0.29812 0.70317 0.0
O221 O 0.31241 0.29023 0.69276 0.0
O222 O 0.36761 0.33298 0.69861 0.0
O223 O 0.34798 0.33605 0.68959 0.0
O224 O 0.70709 0.04013 0.64977 0.0
Cd225 Cd 0.70017 0.02273 0.66672 0.0
Cd226 Cd 0.68759 0.03924 0.68043 0.0
O227 O 0.69443 0.05181 0.65946 0.0
O228 O 0.70153 0.00501 0.65601 0.0
O229 O 0.67904 0.00288 0.664 0.0
C230 C 0.6864 0.99655 0.65704 0.0
C231 C 0.66198 0.02974 0.68967 0.0
C232 C 0.70298 0.0506 0.64873 0.0
C233 C 0.7134 0.03773 0.69882 0.0
O234 O 0.7046 0.04386 0.69771 0.0
O235 O 0.71298 0.02821 0.68796 0.0
O236 O 0.67251 0.04455 0.69093 0.0
O237 O 0.66591 0.02026 0.68278 0.0
O238 O 0.95907 0.66703 0.69969 0.0
Cd239 Cd 0.96489 0.65482 0.68322 0.0
Cd240 Cd 0.98286 0.68416 0.67133 0.0
O241 O 0.97693 0.6911 0.69252 0.0
O242 O 0.9576 0.63364 0.69257 0.0
O243 O 0.98276 0.65079 0.68835 0.0
C244 C 0.97215 0.63714 0.69345 0.0
C245 C 0.00921 0.69674 0.66354 0.0
C246 C 0.96609 0.68198 0.7019 0.0
C247 C 0.95595 0.66027 0.65063 0.0
O248 O 0.96621 0.67479 0.65295 0.0
O249 O 0.95421 0.65005 0.6609 0.0
O250 O 0.00088 0.70359 0.66242 0.0
O251 O 0.00263 0.68271 0.66947 0.0
C252 C 0.22069 0.28483 0.09654 0.0
C253 C 0.21848 0.29592 0.08531 0.0
C254 C 0.20299 0.30466 0.10145 0.0
C255 C 0.20374 0.31758 0.10978 0.0
C256 C 0.19064 0.31624 0.11792 0.0
C257 C 0.17643 0.30149 0.11785 0.0
C258 C 0.17551 0.28835 0.10936 0.0
C259 C 0.18876 0.29007 0.10115 0.0
C260 C 0.192 0.33055 0.12671 0.0
C261 C 0.16054 0.27244 0.10911 0.0
C262 C 0.0856 0.3132 0.06161 0.0
C263 C 0.09609 0.30834 0.06971 0.0
C264 C 0.10626 0.30767 0.09599 0.0
C265 C 0.1067 0.29351 0.09483 0.0
C266 C 0.11658 0.29082 0.10499 0.0
C267 C 0.12661 0.30277 0.1162 0.0
C268 C 0.12622 0.31713 0.1173 0.0
C269 C 0.11568 0.31916 0.10748 0.0
C270 C 0.11638 0.27524 0.10356 0.0
C271 C 0.13712 0.3305 0.12857 0.0
C272 C 0.09652 0.29379 0.22072 0.0
C273 C 0.09473 0.27905 0.21596 0.0
C274 C 0.10635 0.27822 0.20687 0.0
C275 C 0.12001 0.29238 0.20249 0.0
C276 C 0.1218 0.30722 0.20722 0.0
C277 C 0.10996 0.30771 0.21621 0.0
C278 C 0.10408 0.26222 0.20194 0.0
C279 C 0.13626 0.32257 0.20285 0.0
C280 C 0.22027 0.27718 0.21564 0.0
C281 C 0.2183 0.28992 0.22455 0.0
C282 C 0.19172 0.2856 0.22079 0.0
C283 C 0.17706 0.27232 0.21724 0.0
C284 C 0.16555 0.2737 0.20843 0.0
C285 C 0.16869 0.28884 0.2035 0.0
C286 C 0.18326 0.30244 0.20777 0.0
C287 C 0.19468 0.30066 0.21629 0.0
C288 C 0.15012 0.25896 0.20424 0.0
C289 C 0.18678 0.31884 0.2033 0.0
C290 C 0.1626 0.29981 0.12677 0.0
C291 C 0.15126 0.30168 0.11839 0.0
C292 C 0.13807 0.30056 0.12607 0.0
C293 C 0.13622 0.29767 0.14272 0.0
C294 C 0.12308 0.29633 0.15089 0.0
C295 C 0.12181 0.29432 0.16741 0.0
C296 C 0.13348 0.29327 0.17633 0.0
C297 C 0.13258 0.29175 0.19317 0.0
C298 C 0.14418 0.29032 0.20163 0.0
C299 C 0.15679 0.29041 0.19373 0.0
C300 C 0.15803 0.29217 0.17691 0.0
C301 C 0.17059 0.29239 0.16857 0.0
C302 C 0.17205 0.29477 0.15214 0.0
C303 C 0.16093 0.29687 0.14338 0.0
C304 C 0.14783 0.29606 0.15142 0.0
C305 C 0.14642 0.29377 0.16823 0.0
C306 C 0.06577 0.28862 0.24944 0.0
C307 C 0.07253 0.28293 0.23678 0.0
O308 O 0.21629 0.30687 0.09409 0.0
O309 O 0.20265 0.28359 0.22888 0.0
O310 O 0.08572 0.29517 0.22974 0.0
O311 O 0.09686 0.3105 0.08622 0.0
H312 H 0.20809 0.28882 0.07727 0.0
H313 H 0.21002 0.27798 0.10385 0.0
H314 H 0.23091 0.29172 0.10481 0.0
H315 H 0.22272 0.27626 0.08947 0.0
H316 H 0.21473 0.32879 0.10991 0.0
H317 H 0.18789 0.27995 0.09469 0.0
H318 H 0.18237 0.3327 0.12278 0.0
H319 H 0.20352 0.34143 0.12471 0.0
H320 H 0.19068 0.3283 0.13976 0.0
H321 H 0.16194 0.26316 0.10264 0.0
H322 H 0.15093 0.27351 0.10321 0.0
H323 H 0.15685 0.26857 0.12156 0.0
H324 H 0.10796 0.31291 0.0643 0.0
H325 H 0.06762 0.29196 0.05142 0.0
H326 H 0.09375 0.32366 0.05421 0.0
H327 H 0.08324 0.32049 0.07062 0.0
H328 H 0.09919 0.28445 0.08615 0.0
H329 H 0.11519 0.33003 0.1083 0.0
H330 H 0.12703 0.27709 0.09709 0.0
H331 H 0.10581 0.26612 0.09682 0.0
H332 H 0.11663 0.27065 0.11559 0.0
H333 H 0.13774 0.34187 0.12549 0.0
H334 H 0.14922 0.33221 0.12836 0.0
H335 H 0.13274 0.32759 0.14098 0.0
H336 H 0.06387 0.27426 0.22788 0.0
H337 H 0.08431 0.26818 0.21929 0.0
H338 H 0.11123 0.31901 0.21993 0.0
H339 H 0.10513 0.2616 0.18874 0.0
H340 H 0.09243 0.25232 0.20555 0.0
H341 H 0.1135 0.26061 0.20752 0.0
H342 H 0.13616 0.33311 0.20804 0.0
H343 H 0.13696 0.3236 0.18962 0.0
H344 H 0.14705 0.32262 0.20715 0.0
H345 H 0.22183 0.29996 0.21625 0.0
H346 H 0.23271 0.28202 0.21194 0.0
H347 H 0.21264 0.27315 0.2047 0.0
H348 H 0.21685 0.26679 0.22336 0.0
H349 H 0.17483 0.26079 0.22104 0.0
H350 H 0.20582 0.31102 0.21962 0.0
H351 H 0.14779 0.25829 0.19114 0.0
H352 H 0.14035 0.25951 0.21035 0.0
H353 H 0.15001 0.24797 0.20786 0.0
H354 H 0.19774 0.32827 0.20922 0.0
H355 H 0.1768 0.32065 0.20663 0.0
H356 H 0.18819 0.32013 0.19013 0.0
H357 H 0.15276 0.30412 0.10568 0.0
H358 H 0.11372 0.29703 0.14465 0.0
H359 H 0.11158 0.29364 0.1731 0.0
H360 H 0.14345 0.28925 0.21456 0.0
H361 H 0.17955 0.2909 0.17467 0.0
H362 H 0.18207 0.29501 0.1464 0.0
H363 H 0.05368 0.28537 0.24476 0.0
H364 H 0.07085 0.30174 0.24772 0.0
H365 H 0.06926 0.27929 0.27052 0.0
C366 C 0.72289 0.91404 0.06236 0.0
C367 C 0.7085 0.91028 0.07252 0.0
C368 C 0.71128 0.9031 0.09933 0.0
C369 C 0.69618 0.89141 0.10378 0.0
C370 C 0.69416 0.87957 0.11446 0.0
C371 C 0.70758 0.87929 0.12054 0.0
C372 C 0.72288 0.8913 0.11623 0.0
C373 C 0.72453 0.90326 0.10587 0.0
C374 C 0.67769 0.86715 0.11896 0.0
C375 C 0.73746 0.89125 0.12218 0.0
C376 C 0.69058 0.7643 0.07965 0.0
C377 C 0.69829 0.77984 0.08847 0.0
C378 C 0.69111 0.79792 0.10182 0.0
C379 C 0.70616 0.80805 0.10852 0.0
C380 C 0.70895 0.82114 0.11822 0.0
C381 C 0.6964 0.82402 0.12151 0.0
C382 C 0.68117 0.81364 0.11506 0.0
C383 C 0.67877 0.80078 0.10521 0.0
C384 C 0.7254 0.83205 0.12475 0.0
C385 C 0.66748 0.81623 0.11843 0.0
C386 C 0.69994 0.80352 0.22771 0.0
C387 C 0.71293 0.81099 0.21751 0.0
C388 C 0.71522 0.82386 0.20822 0.0
C389 C 0.70385 0.82886 0.20851 0.0
C390 C 0.69066 0.8212 0.21864 0.0
C391 C 0.68908 0.80885 0.22834 0.0
C392 C 0.7299 0.83218 0.19827 0.0
C393 C 0.67821 0.82603 0.21927 0.0
C394 C 0.74409 0.9566 0.22242 0.0
C395 C 0.73013 0.94032 0.22622 0.0
C396 C 0.72976 0.91521 0.22233 0.0
C397 C 0.74018 0.90972 0.21889 0.0
C398 C 0.73491 0.895 0.21113 0.0
C399 C 0.71871 0.88538 0.20714 0.0
C400 C 0.70794 0.89048 0.21144 0.0
C401 C 0.7136 0.90543 0.21889 0.0
C402 C 0.74673 0.8899 0.20689 0.0
C403 C 0.6905 0.88024 0.20796 0.0
C404 C 0.70551 0.86586 0.13048 0.0
C405 C 0.70188 0.85167 0.12253 0.0
C406 C 0.69942 0.83835 0.13097 0.0
C407 C 0.7004 0.83906 0.1479 0.0
C408 C 0.6973 0.8257 0.15682 0.0
C409 C 0.69875 0.82665 0.17346 0.0
C410 C 0.70367 0.84107 0.1818 0.0
C411 C 0.70598 0.84238 0.19864 0.0
C412 C 0.71072 0.85691 0.2065 0.0
C413 C 0.71317 0.87022 0.19805 0.0
C414 C 0.71094 0.86915 0.18122 0.0
C415 C 0.71331 0.88231 0.17233 0.0
C416 C 0.71122 0.88118 0.15576 0.0
C417 C 0.70712 0.86698 0.14738 0.0
C418 C 0.70458 0.85352 0.15611 0.0
C419 C 0.70635 0.85457 0.17306 0.0
C420 C 0.69999 0.77002 0.24823 0.0
C421 C 0.70353 0.78123 0.23487 0.0
O422 O 0.7132 0.91408 0.08844 0.0
O423 O 0.7357 0.92995 0.22896 0.0
O424 O 0.69764 0.79143 0.23732 0.0
O425 O 0.68801 0.78538 0.09201 0.0
H426 H 0.69999 0.89732 0.07105 0.0
H427 H 0.72824 0.90693 0.06642 0.0
H428 H 0.73191 0.92682 0.06352 0.0
H429 H 0.71935 0.91101 0.04955 0.0
H430 H 0.686 0.89154 0.09876 0.0
H431 H 0.73615 0.91243 0.10234 0.0
H432 H 0.67476 0.85566 0.11314 0.0
H433 H 0.66872 0.87031 0.11515 0.0
H434 H 0.67696 0.86547 0.13212 0.0
H435 H 0.74839 0.9007 0.11671 0.0
H436 H 0.73647 0.87958 0.11947 0.0
H437 H 0.73854 0.89307 0.13538 0.0
H438 H 0.70962 0.78907 0.08332 0.0
H439 H 0.69191 0.74889 0.09585 0.0
H440 H 0.6965 0.76684 0.06767 0.0
H441 H 0.67904 0.76251 0.07472 0.0
H442 H 0.71582 0.80595 0.10607 0.0
H443 H 0.66719 0.79288 0.10005 0.0
H444 H 0.72933 0.84447 0.12143 0.0
H445 H 0.73409 0.82879 0.12024 0.0
H446 H 0.72535 0.83164 0.13803 0.0
H447 H 0.65604 0.80603 0.11428 0.0
H448 H 0.66929 0.827 0.11221 0.0
H449 H 0.66684 0.81824 0.13147 0.0
H450 H 0.70087 0.77578 0.22258 0.0
H451 H 0.72152 0.80708 0.21702 0.0
H452 H 0.67915 0.80307 0.2363 0.0
H453 H 0.72685 0.82837 0.18554 0.0
H454 H 0.73907 0.82932 0.20214 0.0
H455 H 0.73499 0.84524 0.199 0.0
H456 H 0.6675 0.81728 0.22564 0.0
H457 H 0.67472 0.8274 0.20698 0.0
H458 H 0.68308 0.83766 0.22564 0.0
H459 H 0.72216 0.93638 0.21548 0.0
H460 H 0.73994 0.96513 0.21999 0.0
H461 H 0.75015 0.95565 0.21159 0.0
H462 H 0.75273 0.96126 0.23257 0.0
H463 H 0.75258 0.91727 0.22185 0.0
H464 H 0.7054 0.90942 0.22208 0.0
H465 H 0.74598 0.88711 0.19385 0.0
H466 H 0.7439 0.87893 0.21336 0.0
H467 H 0.75903 0.89915 0.21002 0.0
H468 H 0.68349 0.88507 0.21367 0.0
H469 H 0.68623 0.86804 0.21228 0.0
H470 H 0.68834 0.87937 0.19482 0.0
H471 H 0.70102 0.85099 0.10954 0.0
H472 H 0.69372 0.81435 0.15102 0.0
H473 H 0.69614 0.81596 0.17968 0.0
H474 H 0.71265 0.85791 0.21938 0.0
H475 H 0.71678 0.89365 0.17808 0.0
H476 H 0.7131 0.89166 0.14958 0.0
H477 H 0.72235 0.77631 0.25761 0.0
H478 H 0.6918 0.75795 0.24279 0.0
H479 H 0.69057 0.77039 0.25564 0.0
C480 C 0.19671 0.90398 0.0617 0.0
C481 C 0.20898 0.91649 0.07333 0.0
C482 C 0.19912 0.90157 0.09819 0.0
C483 C 0.18622 0.90401 0.10033 0.0
C484 C 0.17432 0.89494 0.11122 0.0
C485 C 0.17523 0.88313 0.12006 0.0
C486 C 0.18849 0.88106 0.11836 0.0
C487 C 0.20036 0.89048 0.10759 0.0
C488 C 0.1605 0.89768 0.11295 0.0
C489 C 0.18982 0.8685 0.12749 0.0
C490 C 0.0631 0.78982 0.09725 0.0
C491 C 0.07661 0.79175 0.08653 0.0
C492 C 0.10033 0.80733 0.10364 0.0
C493 C 0.11205 0.80646 0.11243 0.0
C494 C 0.12373 0.81967 0.12099 0.0
C495 C 0.12356 0.83412 0.12086 0.0
C496 C 0.11178 0.83516 0.11194 0.0
C497 C 0.10031 0.82177 0.10334 0.0
C498 C 0.13625 0.81818 0.13018 0.0
C499 C 0.11128 0.8504 0.11159 0.0
C500 C 0.09171 0.82202 0.22288 0.0
C501 C 0.10297 0.81786 0.21831 0.0
C502 C 0.11667 0.82866 0.21031 0.0
C503 C 0.11898 0.84383 0.20661 0.0
C504 C 0.10786 0.8482 0.2117 0.0
C505 C 0.09445 0.83727 0.21999 0.0
C506 C 0.1286 0.82383 0.20571 0.0
C507 C 0.10998 0.86429 0.20812 0.0
C508 C 0.22487 0.94934 0.22279 0.0
C509 C 0.21699 0.93931 0.23749 0.0
C510 C 0.19889 0.91298 0.22526 0.0
C511 C 0.19698 0.89797 0.2222 0.0
C512 C 0.18416 0.88652 0.21306 0.0
C513 C 0.17288 0.89019 0.20691 0.0
C514 C 0.17461 0.9053 0.21007 0.0
C515 C 0.18763 0.91659 0.21918 0.0
C516 C 0.18268 0.87051 0.20994 0.0
C517 C 0.16268 0.90949 0.20378 0.0
C518 C 0.16164 0.872 0.12983 0.0
C519 C 0.14912 0.85911 0.12181 0.0
C520 C 0.13581 0.84812 0.13 0.0
C521 C 0.13473 0.85011 0.14667 0.0
C522 C 0.12124 0.8396 0.15516 0.0
C523 C 0.12047 0.84136 0.17164 0.0
C524 C 0.13327 0.85354 0.18031 0.0
C525 C 0.13285 0.85502 0.19717 0.0
C526 C 0.14583 0.86721 0.2054 0.0
C527 C 0.15926 0.87811 0.19725 0.0
C528 C 0.15983 0.87695 0.18037 0.0
C529 C 0.17307 0.88784 0.17176 0.0
C530 C 0.1736 0.88643 0.15517 0.0
C531 C 0.16104 0.87389 0.14661 0.0
C532 C 0.14752 0.86287 0.15504 0.0
C533 C 0.14685 0.86449 0.17191 0.0
C534 C 0.05318 0.79445 0.2183 0.0
C535 C 0.06832 0.79602 0.22549 0.0
O536 O 0.21038 0.90935 0.08704 0.0
O537 O 0.21177 0.92346 0.23404 0.0
O538 O 0.07823 0.81167 0.23032 0.0
O539 O 0.08936 0.79393 0.09582 0.0
H540 H 0.20535 0.9253 0.07667 0.0
H541 H 0.18487 0.89794 0.06718 0.0
H542 H 0.20002 0.8949 0.05849 0.0
H543 H 0.19583 0.90963 0.05058 0.0
H544 H 0.18525 0.91279 0.09343 0.0
H545 H 0.21042 0.88879 0.10599 0.0
H546 H 0.14975 0.88737 0.1077 0.0
H547 H 0.16245 0.90856 0.10684 0.0
H548 H 0.15823 0.89867 0.12583 0.0
H549 H 0.20076 0.86822 0.12463 0.0
H550 H 0.17948 0.85666 0.12464 0.0
H551 H 0.18975 0.87072 0.14056 0.0
H552 H 0.08026 0.80211 0.07866 0.0
H553 H 0.05282 0.78788 0.08979 0.0
H554 H 0.06684 0.80062 0.10481 0.0
H555 H 0.05937 0.77957 0.10526 0.0
H556 H 0.11201 0.7953 0.11257 0.0
H557 H 0.09139 0.82272 0.09653 0.0
H558 H 0.13502 0.81971 0.1432 0.0
H559 H 0.14816 0.82767 0.12669 0.0
H560 H 0.13542 0.80648 0.12808 0.0
H561 H 0.10079 0.84903 0.10493 0.0
H562 H 0.12208 0.8597 0.1058 0.0
H563 H 0.11117 0.8546 0.124 0.0
H564 H 0.07386 0.7924 0.21592 0.0
H565 H 0.10111 0.80622 0.22113 0.0
H566 H 0.08579 0.84043 0.22385 0.0
H567 H 0.12838 0.8222 0.19251 0.0
H568 H 0.12617 0.81258 0.21135 0.0
H569 H 0.14068 0.83328 0.20927 0.0
H570 H 0.09971 0.86544 0.21189 0.0
H571 H 0.11175 0.86652 0.19508 0.0
H572 H 0.1207 0.87361 0.21447 0.0
H573 H 0.20686 0.94079 0.24112 0.0
H574 H 0.22913 0.96206 0.22553 0.0
H575 H 0.21635 0.9456 0.2126 0.0
H576 H 0.23503 0.94797 0.21906 0.0
H577 H 0.20569 0.89528 0.22696 0.0
H578 H 0.18888 0.92813 0.22146 0.0
H579 H 0.18219 0.86815 0.19683 0.0
H580 H 0.1715 0.8611 0.21503 0.0
H581 H 0.19266 0.86966 0.21525 0.0
H582 H 0.16549 0.92163 0.20755 0.0
H583 H 0.15075 0.90086 0.2081 0.0
H584 H 0.16225 0.90868 0.19049 0.0
H585 H 0.14983 0.8575 0.10901 0.0
H586 H 0.11111 0.82989 0.14915 0.0
H587 H 0.10976 0.83292 0.17752 0.0
H588 H 0.14553 0.86814 0.21835 0.0
H589 H 0.18317 0.8976 0.17776 0.0
H590 H 0.18406 0.89516 0.14916 0.0
H591 H 0.04508 0.78203 0.21421 0.0
H592 H 0.05607 0.80226 0.20781 0.0
H593 H 0.04708 0.79799 0.22726 0.0
C594 C 0.29858 0.10644 0.95772 0.0
C595 C 0.29841 0.09467 0.94516 0.0
C596 C 0.30378 0.11101 0.92122 0.0
C597 C 0.28856 0.10891 0.91922 0.0
C598 C 0.28576 0.11828 0.90855 0.0
C599 C 0.29843 0.13008 0.89981 0.0
C600 C 0.31367 0.13194 0.90148 0.0
C601 C 0.31608 0.12223 0.91203 0.0
C602 C 0.2693 0.1158 0.90685 0.0
C603 C 0.32748 0.14447 0.89244 0.0
C604 C 0.27865 0.22345 0.92007 0.0
C605 C 0.29089 0.22229 0.93065 0.0
C606 C 0.29894 0.20641 0.91396 0.0
C607 C 0.31129 0.20717 0.90496 0.0
C608 C 0.3098 0.19373 0.8969 0.0
C609 C 0.29546 0.17916 0.89773 0.0
C610 C 0.28291 0.17823 0.90688 0.0
C611 C 0.28479 0.19185 0.91499 0.0
C612 C 0.32353 0.19512 0.88744 0.0
C613 C 0.26747 0.16287 0.90799 0.0
C614 C 0.26947 0.18652 0.79673 0.0
C615 C 0.28525 0.19136 0.80051 0.0
C616 C 0.28922 0.1811 0.80829 0.0
C617 C 0.27709 0.16584 0.81264 0.0
C618 C 0.26124 0.16077 0.80827 0.0
C619 C 0.25768 0.17113 0.80013 0.0
C620 C 0.30632 0.18665 0.81206 0.0
C621 C 0.24801 0.14454 0.81252 0.0
C622 C 0.27881 0.06038 0.80157 0.0
C623 C 0.27946 0.06888 0.78604 0.0
C624 C 0.28802 0.09605 0.79608 0.0
C625 C 0.30107 0.11128 0.79774 0.0
C626 C 0.30016 0.12327 0.80636 0.0
C627 C 0.28573 0.11994 0.81339 0.0
C628 C 0.27235 0.10463 0.81154 0.0
C629 C 0.27363 0.09279 0.80295 0.0
C630 C 0.31465 0.13948 0.80807 0.0
C631 C 0.25674 0.10077 0.81873 0.0
C632 C 0.29588 0.14111 0.88978 0.0
C633 C 0.29644 0.15426 0.89745 0.0
C634 C 0.29369 0.16493 0.88899 0.0
C635 C 0.28999 0.16234 0.87243 0.0
C636 C 0.28641 0.17243 0.86371 0.0
C637 C 0.28314 0.17 0.84735 0.0
C638 C 0.28362 0.15759 0.83899 0.0
C639 C 0.28086 0.15538 0.82223 0.0
C640 C 0.28153 0.14297 0.81431 0.0
C641 C 0.2847 0.13251 0.82269 0.0
C642 C 0.28725 0.13439 0.83948 0.0
C643 C 0.29021 0.12393 0.84833 0.0
C644 C 0.2928 0.12594 0.86484 0.0
C645 C 0.29288 0.13869 0.87307 0.0
C646 C 0.28989 0.14936 0.86439 0.0
C647 C 0.28689 0.14709 0.84761 0.0
C648 C 0.25771 0.21467 0.79943 0.0
C649 C 0.27126 0.21224 0.79394 0.0
O650 O 0.30719 0.10272 0.93196 0.0
O651 O 0.28998 0.08501 0.78782 0.0
O652 O 0.26527 0.1964 0.78976 0.0
O653 O 0.30128 0.22003 0.92125 0.0
H654 H 0.28605 0.08623 0.94131 0.0
H655 H 0.29309 0.11309 0.95277 0.0
H656 H 0.31089 0.11507 0.96154 0.0
H657 H 0.29175 0.10005 0.96839 0.0
H658 H 0.27882 0.1001 0.926 0.0
H659 H 0.32776 0.12369 0.91355 0.0
H660 H 0.26907 0.12633 0.91183 0.0
H661 H 0.26044 0.10513 0.91321 0.0
H662 H 0.26583 0.11455 0.89399 0.0
H663 H 0.33866 0.14463 0.89532 0.0
H664 H 0.32901 0.15634 0.89534 0.0
H665 H 0.32512 0.14233 0.87935 0.0
H666 H 0.28477 0.21222 0.93895 0.0
H667 H 0.27048 0.22549 0.92762 0.0
H668 H 0.27153 0.21231 0.91302 0.0
H669 H 0.28455 0.23335 0.91158 0.0
H670 H 0.32217 0.21842 0.90427 0.0
H671 H 0.27511 0.19098 0.92196 0.0
H672 H 0.32032 0.19317 0.87451 0.0
H673 H 0.32632 0.18586 0.8911 0.0
H674 H 0.33429 0.20694 0.88909 0.0
H675 H 0.25846 0.16432 0.91467 0.0
H676 H 0.26947 0.15398 0.91414 0.0
H677 H 0.26277 0.15808 0.89579 0.0
H678 H 0.27967 0.21571 0.80429 0.0
H679 H 0.29445 0.20311 0.79732 0.0
H680 H 0.24557 0.16746 0.79688 0.0
H681 H 0.30852 0.18901 0.82514 0.0
H682 H 0.31441 0.19768 0.80571 0.0
H683 H 0.3092 0.1773 0.80871 0.0
H684 H 0.23622 0.14284 0.8093 0.0
H685 H 0.24837 0.14267 0.82557 0.0
H686 H 0.24954 0.13533 0.80611 0.0
H687 H 0.26751 0.06687 0.78297 0.0
H688 H 0.27051 0.04743 0.80012 0.0
H689 H 0.27461 0.06488 0.81159 0.0
H690 H 0.2907 0.06235 0.80483 0.0
H691 H 0.3121 0.1137 0.79236 0.0
H692 H 0.26336 0.0811 0.80171 0.0
H693 H 0.31744 0.14276 0.82096 0.0
H694 H 0.31232 0.14844 0.80257 0.0
H695 H 0.32511 0.14004 0.80228 0.0
H696 H 0.24726 0.0885 0.81568 0.0
H697 H 0.25309 0.10922 0.81443 0.0
H698 H 0.25802 0.10215 0.83197 0.0
H699 H 0.29913 0.15625 0.91019 0.0
H700 H 0.28606 0.18229 0.86946 0.0
H701 H 0.28039 0.17811 0.84131 0.0
H702 H 0.27958 0.14144 0.80144 0.0
H703 H 0.29051 0.11403 0.8426 0.0
H704 H 0.29494 0.11749 0.87104 0.0
H705 H 0.26222 0.22727 0.803 0.0
H706 H 0.25195 0.2072 0.80996 0.0
H707 H 0.24872 0.21127 0.78971 0.0
C708 C 0.81109 0.08437 0.96466 0.0
C709 C 0.80026 0.08849 0.95514 0.0
C710 C 0.809 0.09481 0.92794 0.0
C711 C 0.80652 0.10729 0.92385 0.0
C712 C 0.81636 0.1187 0.9129 0.0
C713 C 0.82912 0.11771 0.90616 0.0
C714 C 0.8314 0.10486 0.91005 0.0
C715 C 0.82109 0.09338 0.92071 0.0
C716 C 0.81336 0.13203 0.90886 0.0
C717 C 0.84502 0.10353 0.90338 0.0
C718 C 0.91254 0.22887 0.95672 0.0
C719 C 0.90047 0.21346 0.94937 0.0
C720 C 0.89537 0.19744 0.92513 0.0
C721 C 0.89993 0.18683 0.91926 0.0
C722 C 0.88976 0.17389 0.90931 0.0
C723 C 0.87485 0.17183 0.90482 0.0
C724 C 0.87055 0.18304 0.91005 0.0
C725 C 0.88085 0.19573 0.92017 0.0
C726 C 0.89477 0.16222 0.90388 0.0
C727 C 0.85496 0.18148 0.90512 0.0
C728 C 0.89928 0.19088 0.79982 0.0
C729 C 0.90257 0.17982 0.80694 0.0
C730 C 0.89111 0.16733 0.81591 0.0
C731 C 0.87611 0.16595 0.81793 0.0
C732 C 0.87271 0.17695 0.81064 0.0
C733 C 0.88433 0.18921 0.80161 0.0
C734 C 0.89503 0.15564 0.82331 0.0
C735 C 0.85685 0.17582 0.81254 0.0
C736 C 0.77919 0.04389 0.80278 0.0
C737 C 0.78283 0.06032 0.79744 0.0
C738 C 0.80891 0.08344 0.80259 0.0
C739 C 0.82423 0.08672 0.80611 0.0
C740 C 0.83492 0.10063 0.8145 0.0
C741 C 0.83024 0.11171 0.81913 0.0
C742 C 0.81495 0.1088 0.81494 0.0
C743 C 0.8044 0.09464 0.80675 0.0
C744 C 0.85118 0.10341 0.81858 0.0
C745 C 0.80978 0.12063 0.81916 0.0
C746 C 0.84074 0.13075 0.89609 0.0
C747 C 0.8521 0.14461 0.90396 0.0
C748 C 0.86339 0.1575 0.89545 0.0
C749 C 0.86349 0.1566 0.87853 0.0
C750 C 0.8746 0.16937 0.86957 0.0
C751 C 0.87475 0.16828 0.85293 0.0
C752 C 0.86378 0.15437 0.84461 0.0
C753 C 0.86402 0.15304 0.82773 0.0
C754 C 0.85283 0.13912 0.81982 0.0
C755 C 0.84137 0.12632 0.82832 0.0
C756 C 0.84098 0.12738 0.84523 0.0
C757 C 0.82966 0.11472 0.85419 0.0
C758 C 0.82942 0.11586 0.87082 0.0
C759 C 0.84066 0.12959 0.87917 0.0
C760 C 0.85214 0.14255 0.87038 0.0
C761 C 0.85227 0.14145 0.85339 0.0
C762 C 0.93488 0.21699 0.80535 0.0
C763 C 0.92605 0.20865 0.78976 0.0
O764 O 0.80005 0.08429 0.93915 0.0
O765 O 0.79892 0.06951 0.79496 0.0
O766 O 0.91005 0.20332 0.79124 0.0
O767 O 0.90524 0.20929 0.93538 0.0
H768 H 0.80513 0.10155 0.95645 0.0
H769 H 0.82327 0.09102 0.95997 0.0
H770 H 0.80692 0.07147 0.96359 0.0
H771 H 0.81144 0.08769 0.97751 0.0
H772 H 0.79696 0.10814 0.92939 0.0
H773 H 0.8228 0.0836 0.92395 0.0
H774 H 0.82241 0.1431 0.91496 0.0
H775 H 0.80153 0.1296 0.91278 0.0
H776 H 0.81431 0.13406 0.89576 0.0
H777 H 0.84586 0.09353 0.90857 0.0
H778 H 0.85629 0.11471 0.90581 0.0
H779 H 0.84359 0.1017 0.89019 0.0
H780 H 0.8883 0.21169 0.94876 0.0
H781 H 0.91833 0.22237 0.9784 0.0
H782 H 0.90715 0.23672 0.95615 0.0
H783 H 0.92149 0.23534 0.94718 0.0
H784 H 0.91129 0.18843 0.92293 0.0
H785 H 0.87759 0.20434 0.92407 0.0
H786 H 0.88606 0.15015 0.90785 0.0
H787 H 0.90662 0.16534 0.90865 0.0
H788 H 0.89501 0.16182 0.89059 0.0
H789 H 0.85408 0.19203 0.90877 0.0
H790 H 0.84523 0.17088 0.91075 0.0
H791 H 0.85327 0.17973 0.89193 0.0
H792 H 0.92786 0.19846 0.78698 0.0
H793 H 0.91402 0.18081 0.8056 0.0
H794 H 0.88187 0.19774 0.79603 0.0
H795 H 0.89482 0.15657 0.83656 0.0
H796 H 0.90683 0.1577 0.81976 0.0
H797 H 0.886 0.14335 0.81969 0.0
H798 H 0.85627 0.18568 0.80666 0.0
H799 H 0.85428 0.17596 0.82547 0.0
H800 H 0.84749 0.1644 0.80726 0.0
H801 H 0.77904 0.06544 0.80732 0.0
H802 H 0.76636 0.03629 0.80499 0.0
H803 H 0.78573 0.045 0.81409 0.0
H804 H 0.78281 0.03805 0.79351 0.0
H805 H 0.82766 0.07811 0.80258 0.0
H806 H 0.79274 0.09244 0.80345 0.0
H807 H 0.85355 0.10579 0.83165 0.0
H808 H 0.86016 0.11403 0.81228 0.0
H809 H 0.85261 0.09314 0.81511 0.0
H810 H 0.798 0.11721 0.81396 0.0
H811 H 0.81853 0.13254 0.8148 0.0
H812 H 0.80926 0.12161 0.83238 0.0
H813 H 0.85211 0.1454 0.91694 0.0
H814 H 0.88336 0.18034 0.87534 0.0
H815 H 0.88362 0.17848 0.84667 0.0
H816 H 0.85315 0.13817 0.80688 0.0
H817 H 0.82083 0.10379 0.84844 0.0
H818 H 0.82038 0.10579 0.87708 0.0
H819 H 0.94771 0.22139 0.80414 0.0
H820 H 0.93054 0.20867 0.81546 0.0
H821 H 0.93312 0.22718 0.8083 0.0
C822 C 0.80241 0.7012 0.96208 0.0
C823 C 0.791 0.70198 0.9499 0.0
C824 C 0.80249 0.69788 0.92535 0.0
C825 C 0.81538 0.71335 0.9243 0.0
C826 C 0.82783 0.7167 0.91385 0.0
C827 C 0.82748 0.70432 0.90442 0.0
C828 C 0.81435 0.6888 0.90521 0.0
C829 C 0.80191 0.68586 0.91549 0.0
C830 C 0.84152 0.73344 0.91312 0.0
C831 C 0.81365 0.67523 0.89552 0.0
C832 C 0.94099 0.72819 0.92809 0.0
C833 C 0.92719 0.71649 0.93828 0.0
C834 C 0.90387 0.7074 0.92045 0.0
C835 C 0.89253 0.69442 0.91148 0.0
C836 C 0.88067 0.69529 0.90281 0.0
C837 C 0.88028 0.70962 0.903 0.0
C838 C 0.89174 0.72286 0.91199 0.0
C839 C 0.9034 0.72162 0.9207 0.0
C840 C 0.86853 0.68085 0.89351 0.0
C841 C 0.89165 0.73832 0.91238 0.0
C842 C 0.9101 0.72882 0.79865 0.0
C843 C 0.90016 0.71351 0.80422 0.0
C844 C 0.88684 0.71018 0.81331 0.0
C845 C 0.88372 0.72258 0.81724 0.0
C846 C 0.89376 0.73802 0.8115 0.0
C847 C 0.90667 0.74085 0.80201 0.0
C848 C 0.87604 0.69341 0.81855 0.0
C849 C 0.89086 0.75155 0.81538 0.0
C850 C 0.77646 0.71943 0.80631 0.0
C851 C 0.78419 0.71833 0.79078 0.0
C852 C 0.80302 0.71041 0.80077 0.0
C853 C 0.8053 0.69744 0.80257 0.0
C854 C 0.81831 0.69886 0.81118 0.0
C855 C 0.82942 0.71372 0.81803 0.0
C856 C 0.82739 0.727 0.81602 0.0
C857 C 0.81417 0.72521 0.80748 0.0
C858 C 0.82011 0.68444 0.81309 0.0
C859 C 0.83918 0.74306 0.823 0.0
C860 C 0.84132 0.70742 0.89458 0.0
C861 C 0.85415 0.70773 0.90239 0.0
C862 C 0.86762 0.71056 0.89404 0.0
C863 C 0.8685 0.71335 0.87741 0.0
C864 C 0.88208 0.71675 0.86873 0.0
C865 C 0.88265 0.71903 0.85228 0.0
C866 C 0.86957 0.71773 0.84382 0.0
C867 C 0.86979 0.71938 0.82698 0.0
C868 C 0.85656 0.71807 0.81901 0.0
C869 C 0.8431 0.71529 0.82737 0.0
C870 C 0.84268 0.71367 0.8442 0.0
C871 C 0.82936 0.71097 0.85299 0.0
C872 C 0.82898 0.7092 0.86953 0.0
C873 C 0.84178 0.70975 0.87786 0.0
C874 C 0.85541 0.71267 0.86924 0.0
C875 C 0.8559 0.71473 0.85241 0.0
C876 C 0.94904 0.74497 0.79917 0.0
C877 C 0.93475 0.72919 0.7937 0.0
O878 O 0.79053 0.69395 0.93582 0.0
O879 O 0.78992 0.70796 0.79256 0.0
O880 O 0.92272 0.73212 0.78947 0.0
O881 O 0.91496 0.70556 0.9285 0.0
H882 H 0.79492 0.71457 0.9473 0.0
H883 H 0.81458 0.70703 0.95736 0.0
H884 H 0.79871 0.68867 0.96467 0.0
H885 H 0.80271 0.70745 0.97344 0.0
H886 H 0.81589 0.72286 0.93162 0.0
H887 H 0.79186 0.67399 0.9163 0.0
H888 H 0.85215 0.73397 0.91859 0.0
H889 H 0.83912 0.74206 0.91959 0.0
H890 H 0.84424 0.73707 0.90046 0.0
H891 H 0.80311 0.66368 0.8983 0.0
H892 H 0.82441 0.67441 0.89786 0.0
H893 H 0.81332 0.67741 0.88256 0.0
H894 H 0.92299 0.72307 0.94591 0.0
H895 H 0.95084 0.73688 0.93593 0.0
H896 H 0.93726 0.73487 0.92025 0.0
H897 H 0.94532 0.72179 0.92037 0.0
H898 H 0.89297 0.68351 0.91136 0.0
H899 H 0.91207 0.7318 0.92757 0.0
H900 H 0.86959 0.68343 0.88052 0.0
H901 H 0.85647 0.67791 0.89712 0.0
H902 H 0.86992 0.67033 0.89537 0.0
H903 H 0.90201 0.74787 0.91901 0.0
H904 H 0.88073 0.73656 0.91822 0.0
H905 H 0.89157 0.74224 0.89997 0.0
H906 H 0.9312 0.72091 0.80391 0.0
H907 H 0.90265 0.70413 0.80114 0.0
H908 H 0.91435 0.75257 0.79742 0.0
H909 H 0.87737 0.6927 0.83167 0.0
H910 H 0.87873 0.68481 0.81248 0.0
H911 H 0.86354 0.68985 0.816 0.0
H912 H 0.90088 0.76318 0.81185 0.0
H913 H 0.88885 0.75201 0.82841 0.0
H914 H 0.88008 0.74962 0.80891 0.0
H915 H 0.79401 0.73028 0.78773 0.0
H916 H 0.77176 0.72765 0.80489 0.0
H917 H 0.7852 0.72402 0.81634 0.0
H918 H 0.76663 0.70755 0.80952 0.0
H919 H 0.79668 0.68609 0.79732 0.0
H920 H 0.81267 0.73542 0.80616 0.0
H921 H 0.8208 0.68228 0.82601 0.0
H922 H 0.8313 0.68659 0.80757 0.0
H923 H 0.81017 0.67362 0.80744 0.0
H924 H 0.83635 0.7524 0.81975 0.0
H925 H 0.85119 0.74655 0.81872 0.0
H926 H 0.83942 0.74245 0.83626 0.0
H927 H 0.85358 0.70557 0.91515 0.0
H928 H 0.89243 0.71768 0.87458 0.0
H929 H 0.89343 0.72165 0.84625 0.0
H930 H 0.85674 0.71921 0.80609 0.0
H931 H 0.81906 0.71019 0.8472 0.0
H932 H 0.81844 0.70719 0.87568 0.0
H933 H 0.95361 0.7533 0.78904 0.0
H934 H 0.95863 0.74319 0.80398 0.0
H935 H 0.94553 0.75048 0.80888 0.0
C936 C 0.88986 0.62408 0.42456 0.0
C937 C 0.888 0.63517 0.41302 0.0
C938 C 0.87184 0.6434 0.42878 0.0
C939 C 0.87235 0.65602 0.43749 0.0
C940 C 0.85911 0.65428 0.44568 0.0
C941 C 0.84499 0.63943 0.44525 0.0
C942 C 0.84428 0.62663 0.43629 0.0
C943 C 0.85768 0.62875 0.42805 0.0
C944 C 0.86025 0.66829 0.4549 0.0
C945 C 0.8294 0.61065 0.4356 0.0
C946 C 0.75702 0.65956 0.39462 0.0
C947 C 0.76909 0.65594 0.40102 0.0
C948 C 0.77424 0.64464 0.42443 0.0
C949 C 0.77066 0.62949 0.42906 0.0
C950 C 0.78105 0.62731 0.43897 0.0
C951 C 0.79513 0.64069 0.44469 0.0
C952 C 0.79841 0.6561 0.44068 0.0
C953 C 0.78791 0.65792 0.43059 0.0
C954 C 0.77716 0.6107 0.44303 0.0
C955 C 0.81309 0.67064 0.44692 0.0
C956 C 0.76579 0.63089 0.54904 0.0
C957 C 0.76312 0.61661 0.54175 0.0
C958 C 0.77496 0.61605 0.53279 0.0
C959 C 0.78969 0.63003 0.531 0.0
C960 C 0.79245 0.64436 0.53844 0.0
C961 C 0.78046 0.64456 0.54742 0.0
C962 C 0.77174 0.60053 0.52517 0.0
C963 C 0.80803 0.65948 0.53681 0.0
C964 C 0.89012 0.61207 0.54234 0.0
C965 C 0.88653 0.624 0.55065 0.0
C966 C 0.85987 0.6196 0.54647 0.0
C967 C 0.84503 0.60682 0.5424 0.0
C968 C 0.83377 0.60914 0.53428 0.0
C969 C 0.83737 0.62471 0.53053 0.0
C970 C 0.8521 0.63778 0.53538 0.0
C971 C 0.86324 0.63508 0.54326 0.0
C972 C 0.81814 0.59494 0.52946 0.0
C973 C 0.85609 0.65458 0.53211 0.0
C974 C 0.83108 0.63735 0.45434 0.0
C975 C 0.81958 0.63917 0.44619 0.0
C976 C 0.80679 0.63856 0.45426 0.0
C977 C 0.8055 0.6363 0.47101 0.0
C978 C 0.79319 0.63631 0.47964 0.0
C979 C 0.79211 0.63418 0.49614 0.0
C980 C 0.80324 0.63185 0.50463 0.0
C981 C 0.80226 0.6297 0.52139 0.0
C982 C 0.81354 0.62744 0.52945 0.0
C983 C 0.82587 0.62727 0.52122 0.0
C984 C 0.82707 0.62945 0.50446 0.0
C985 C 0.83933 0.62936 0.49581 0.0
C986 C 0.84064 0.6319 0.4794 0.0
C987 C 0.82964 0.63443 0.47096 0.0
C988 C 0.81692 0.63411 0.47935 0.0
C989 C 0.81572 0.63177 0.49616 0.0
C990 C 0.72966 0.61952 0.54387 0.0
C991 C 0.73887 0.6209 0.55931 0.0
O992 O 0.88531 0.64597 0.42148 0.0
O993 O 0.87051 0.61659 0.55377 0.0
O994 O 0.75467 0.63214 0.55766 0.0
O995 O 0.76425 0.64612 0.41416 0.0
H996 H 0.87794 0.62807 0.4046 0.0
H997 H 0.87891 0.61703 0.4314 0.0
H998 H 0.8997 0.63099 0.43324 0.0
H999 H 0.89233 0.61566 0.41776 0.0
H1000 H 0.88327 0.66729 0.43792 0.0
H1001 H 0.85698 0.61888 0.42122 0.0
H1002 H 0.85044 0.67028 0.45129 0.0
H1003 H 0.87163 0.67934 0.45298 0.0
H1004 H 0.85908 0.66577 0.4679 0.0
H1005 H 0.83091 0.60168 0.42866 0.0
H1006 H 0.81972 0.61182 0.42999 0.0
H1007 H 0.82573 0.60632 0.44793 0.0
H1008 H 0.78125 0.66634 0.4022 0.0
H1009 H 0.75156 0.64865 0.37186 0.0
H1010 H 0.76232 0.67274 0.39646 0.0
H1011 H 0.74794 0.65637 0.40424 0.0
H1012 H 0.75993 0.61934 0.42445 0.0
H1013 H 0.79036 0.66972 0.42764 0.0
H1014 H 0.78694 0.60871 0.43931 0.0
H1015 H 0.76604 0.60153 0.43712 0.0
H1016 H 0.77595 0.6092 0.45619 0.0
H1017 H 0.81313 0.68178 0.44407 0.0
H1018 H 0.82364 0.67106 0.44152 0.0
H1019 H 0.81414 0.67005 0.46011 0.0
H1020 H 0.7377 0.60921 0.56203 0.0
H1021 H 0.75189 0.60587 0.54295 0.0
H1022 H 0.78244 0.6555 0.55313 0.0
H1023 H 0.77253 0.60166 0.51195 0.0
H1024 H 0.7599 0.59057 0.52817 0.0
H1025 H 0.78083 0.59762 0.52918 0.0
H1026 H 0.80813 0.66976 0.5429 0.0
H1027 H 0.81064 0.66216 0.52394 0.0
H1028 H 0.81763 0.65794 0.54204 0.0
H1029 H 0.89004 0.634 0.5423 0.0
H1030 H 0.90287 0.61774 0.53952 0.0
H1031 H 0.88324 0.60776 0.53093 0.0
H1032 H 0.88687 0.60173 0.55008 0.0
H1033 H 0.84247 0.59494 0.54523 0.0
H1034 H 0.87448 0.64505 0.54706 0.0
H1035 H 0.81615 0.59495 0.51635 0.0
H1036 H 0.80845 0.59565 0.53558 0.0
H1037 H 0.81748 0.58356 0.53255 0.0
H1038 H 0.86733 0.66346 0.53806 0.0
H1039 H 0.84645 0.65658 0.53631 0.0
H1040 H 0.85718 0.65653 0.51901 0.0
H1041 H 0.82071 0.64131 0.43342 0.0
H1042 H 0.78431 0.63805 0.47373 0.0
H1043 H 0.78242 0.63436 0.50215 0.0
H1044 H 0.81272 0.62582 0.54231 0.0
H1045 H 0.84813 0.62744 0.50164 0.0
H1046 H 0.85039 0.63182 0.4734 0.0
H1047 H 0.71698 0.61061 0.54521 0.0
H1048 H 0.73422 0.61564 0.53365 0.0
H1049 H 0.73078 0.63114 0.54099 0.0
C1050 C 0.38049 0.24746 0.38667 0.0
C1051 C 0.36741 0.24456 0.39842 0.0
C1052 C 0.3728 0.23801 0.42468 0.0
C1053 C 0.35819 0.22529 0.42905 0.0
C1054 C 0.35734 0.21394 0.43979 0.0
C1055 C 0.37144 0.21528 0.44611 0.0
C1056 C 0.38619 0.22834 0.44196 0.0
C1057 C 0.38665 0.23973 0.4315 0.0
C1058 C 0.34138 0.20038 0.44418 0.0
C1059 C 0.40149 0.23006 0.44822 0.0
C1060 C 0.35912 0.10169 0.40684 0.0
C1061 C 0.36627 0.11812 0.41363 0.0
C1062 C 0.35894 0.13425 0.43045 0.0
C1063 C 0.37443 0.14687 0.43293 0.0
C1064 C 0.37734 0.16048 0.44179 0.0
C1065 C 0.36452 0.16153 0.44821 0.0
C1066 C 0.34894 0.14883 0.44578 0.0
C1067 C 0.34638 0.13532 0.43699 0.0
C1068 C 0.39411 0.17377 0.4443 0.0
C1069 C 0.33499 0.14957 0.45242 0.0
C1070 C 0.37003 0.14259 0.55214 0.0
C1071 C 0.38453 0.15346 0.54536 0.0
C1072 C 0.38609 0.16649 0.53685 0.0
C1073 C 0.37286 0.16857 0.53488 0.0
C1074 C 0.35837 0.15786 0.54198 0.0
C1075 C 0.35721 0.14508 0.55062 0.0
C1076 C 0.40182 0.17791 0.52973 0.0
C1077 C 0.34404 0.15975 0.54018 0.0
C1078 C 0.39101 0.2885 0.54274 0.0
C1079 C 0.38114 0.27321 0.55194 0.0
C1080 C 0.38655 0.25146 0.5478 0.0
C1081 C 0.39908 0.24929 0.5433 0.0
C1082 C 0.39637 0.23514 0.53575 0.0
C1083 C 0.38068 0.2228 0.53288 0.0
C1084 C 0.36793 0.2246 0.53817 0.0
C1085 C 0.37099 0.2389 0.54565 0.0
C1086 C 0.41023 0.23348 0.53053 0.0
C1087 C 0.35108 0.21149 0.53569 0.0
C1088 C 0.37074 0.20254 0.45628 0.0
C1089 C 0.36835 0.18863 0.44858 0.0
C1090 C 0.36738 0.17602 0.45727 0.0
C1091 C 0.36897 0.17729 0.47415 0.0
C1092 C 0.36804 0.16483 0.48326 0.0
C1093 C 0.36956 0.16616 0.49987 0.0
C1094 C 0.37225 0.18007 0.50803 0.0
C1095 C 0.374 0.1816 0.52491 0.0
C1096 C 0.37672 0.19561 0.53263 0.0
C1097 C 0.37763 0.2082 0.52394 0.0
C1098 C 0.37576 0.20684 0.50706 0.0
C1099 C 0.37639 0.21919 0.49796 0.0
C1100 C 0.37458 0.21775 0.48136 0.0
C1101 C 0.3723 0.20401 0.47318 0.0
C1102 C 0.3715 0.19136 0.48212 0.0
C1103 C 0.37318 0.19276 0.49908 0.0
C1104 C 0.37724 0.11522 0.54443 0.0
C1105 C 0.37763 0.12311 0.56061 0.0
O1106 O 0.37377 0.24866 0.41381 0.0
O1107 O 0.38989 0.26573 0.55422 0.0
O1108 O 0.36778 0.12954 0.5601 0.0
O1109 O 0.35558 0.12091 0.42188 0.0
H1110 H 0.35847 0.23169 0.39756 0.0
H1111 H 0.38576 0.24002 0.38984 0.0
H1112 H 0.38996 0.26011 0.38712 0.0
H1113 H 0.37563 0.24422 0.37426 0.0
H1114 H 0.34747 0.22426 0.42402 0.0
H1115 H 0.39786 0.24971 0.42812 0.0
H1116 H 0.33974 0.18923 0.43858 0.0
H1117 H 0.33159 0.20221 0.44007 0.0
H1118 H 0.34065 0.19885 0.45736 0.0
H1119 H 0.41196 0.24011 0.44273 0.0
H1120 H 0.40182 0.21898 0.44579 0.0
H1121 H 0.40231 0.23207 0.46139 0.0
H1122 H 0.37359 0.12772 0.40515 0.0
H1123 H 0.35998 0.10317 0.39346 0.0
H1124 H 0.34593 0.09652 0.40701 0.0
H1125 H 0.37064 0.09189 0.41941 0.0
H1126 H 0.3843 0.14617 0.42802 0.0
H1127 H 0.33449 0.12552 0.43506 0.0
H1128 H 0.39558 0.18471 0.43873 0.0
H1129 H 0.40284 0.17091 0.43907 0.0
H1130 H 0.3967 0.17636 0.45732 0.0
H1131 H 0.32358 0.13887 0.44913 0.0
H1132 H 0.33492 0.1602 0.44789 0.0
H1133 H 0.33604 0.15075 0.46568 0.0
H1134 H 0.38991 0.1326 0.56351 0.0
H1135 H 0.39466 0.15187 0.54657 0.0
H1136 H 0.34611 0.13672 0.55598 0.0
H1137 H 0.40085 0.1769 0.51646 0.0
H1138 H 0.41134 0.17558 0.53366 0.0
H1139 H 0.40522 0.19029 0.53318 0.0
H1140 H 0.33347 0.15005 0.5459 0.0
H1141 H 0.34135 0.15998 0.52727 0.0
H1142 H 0.34652 0.17124 0.5457 0.0
H1143 H 0.37056 0.26587 0.5442 0.0
H1144 H 0.38447 0.29504 0.54139 0.0
H1145 H 0.3935 0.28554 0.53059 0.0
H1146 H 0.40247 0.29632 0.54893 0.0
H1147 H 0.41105 0.25893 0.5453 0.0
H1148 H 0.36124 0.2402 0.54985 0.0
H1149 H 0.40975 0.23169 0.51733 0.0
H1150 H 0.4096 0.22287 0.53604 0.0
H1151 H 0.42172 0.24406 0.53391 0.0
H1152 H 0.34249 0.21454 0.54092 0.0
H1153 H 0.34941 0.20046 0.54121 0.0
H1154 H 0.34847 0.20898 0.52267 0.0
H1155 H 0.36714 0.18756 0.43563 0.0
H1156 H 0.3661 0.15388 0.47764 0.0
H1157 H 0.36867 0.15614 0.50624 0.0
H1158 H 0.37811 0.19672 0.54557 0.0
H1159 H 0.37824 0.2301 0.50358 0.0
H1160 H 0.37508 0.2276 0.475 0.0
H1161 H 0.38495 0.10986 0.54491 0.0
H1162 H 0.38159 0.12408 0.5348 0.0
H1163 H 0.36501 0.10581 0.54128 0.0
C1164 C 0.86728 0.24244 0.38993 0.0
C1165 C 0.87926 0.2479 0.40388 0.0
C1166 C 0.86523 0.22633 0.42304 0.0
C1167 C 0.85368 0.23024 0.42736 0.0
C1168 C 0.84125 0.22044 0.43744 0.0
C1169 C 0.84046 0.20656 0.44349 0.0
C1170 C 0.85231 0.20285 0.43957 0.0
C1171 C 0.86453 0.21279 0.42938 0.0
C1172 C 0.82882 0.22476 0.44144 0.0
C1173 C 0.85194 0.18826 0.44598 0.0
C1174 C 0.72698 0.11343 0.42544 0.0
C1175 C 0.73963 0.11356 0.41454 0.0
C1176 C 0.76431 0.13006 0.43007 0.0
C1177 C 0.77618 0.1295 0.43889 0.0
C1178 C 0.78835 0.14313 0.44645 0.0
C1179 C 0.78848 0.15769 0.44534 0.0
C1180 C 0.77666 0.15845 0.4362 0.0
C1181 C 0.76474 0.14464 0.42853 0.0
C1182 C 0.80096 0.1419 0.45576 0.0
C1183 C 0.77651 0.17381 0.43476 0.0
C1184 C 0.75844 0.14801 0.54823 0.0
C1185 C 0.76952 0.14362 0.54362 0.0
C1186 C 0.78299 0.15406 0.53508 0.0
C1187 C 0.78527 0.16912 0.53093 0.0
C1188 C 0.77432 0.17372 0.53599 0.0
C1189 C 0.76114 0.16315 0.54479 0.0
C1190 C 0.79474 0.14899 0.53044 0.0
C1191 C 0.77644 0.18971 0.53192 0.0
C1192 C 0.89296 0.27386 0.5433 0.0
C1193 C 0.88486 0.2648 0.55843 0.0
C1194 C 0.86599 0.23807 0.5476 0.0
C1195 C 0.8635 0.22272 0.54553 0.0
C1196 C 0.85041 0.2111 0.53683 0.0
C1197 C 0.83945 0.21493 0.53015 0.0
C1198 C 0.84173 0.23038 0.53238 0.0
C1199 C 0.85503 0.24185 0.54102 0.0
C1200 C 0.84835 0.19474 0.53467 0.0
C1201 C 0.83012 0.23476 0.52557 0.0
C1202 C 0.82687 0.1956 0.45338 0.0
C1203 C 0.8141 0.18274 0.44558 0.0
C1204 C 0.80086 0.17197 0.45405 0.0
C1205 C 0.80007 0.17427 0.47071 0.0
C1206 C 0.78661 0.1641 0.47945 0.0
C1207 C 0.78613 0.16611 0.49593 0.0
C1208 C 0.79918 0.17824 0.50435 0.0
C1209 C 0.79904 0.18001 0.5212 0.0
C1210 C 0.81223 0.19219 0.52917 0.0
C1211 C 0.82565 0.20275 0.52078 0.0
C1212 C 0.82599 0.20123 0.50393 0.0
C1213 C 0.83929 0.21166 0.49511 0.0
C1214 C 0.83956 0.20996 0.47854 0.0
C1215 C 0.82662 0.19765 0.47018 0.0
C1216 C 0.81311 0.18698 0.47884 0.0
C1217 C 0.81273 0.18886 0.49571 0.0
C1218 C 0.71989 0.1198 0.54553 0.0
C1219 C 0.73535 0.1221 0.55265 0.0
O1220 O 0.87709 0.23502 0.41272 0.0
O1221 O 0.87912 0.24871 0.55596 0.0
O1222 O 0.74523 0.13807 0.55629 0.0
O1223 O 0.75272 0.1162 0.4235 0.0
H1224 H 0.87778 0.25639 0.41175 0.0
H1225 H 0.85505 0.23684 0.39443 0.0
H1226 H 0.86828 0.23364 0.38211 0.0
H1227 H 0.86934 0.25274 0.38264 0.0
H1228 H 0.85412 0.24079 0.42281 0.0
H1229 H 0.87353 0.2099 0.42611 0.0
H1230 H 0.81701 0.21496 0.43758 0.0
H1231 H 0.83096 0.23582 0.43559 0.0
H1232 H 0.82854 0.22635 0.45461 0.0
H1233 H 0.86262 0.18763 0.44276 0.0
H1234 H 0.84138 0.1775 0.44108 0.0
H1235 H 0.85094 0.1881 0.45923 0.0
H1236 H 0.74315 0.12302 0.40554 0.0
H1237 H 0.71637 0.11093 0.41824 0.0
H1238 H 0.73143 0.12509 0.43161 0.0
H1239 H 0.7235 0.10423 0.4347 0.0
H1240 H 0.77582 0.11824 0.43992 0.0
H1241 H 0.75577 0.14535 0.42156 0.0
H1242 H 0.81285 0.1514 0.45223 0.0
H1243 H 0.80022 0.13022 0.45387 0.0
H1244 H 0.79969 0.14355 0.46875 0.0
H1245 H 0.76607 0.1723 0.4279 0.0
H1246 H 0.78736 0.18264 0.42866 0.0
H1247 H 0.77655 0.17871 0.44688 0.0
H1248 H 0.74066 0.11788 0.5434 0.0
H1249 H 0.76776 0.13212 0.54688 0.0
H1250 H 0.75263 0.16651 0.54867 0.0
H1251 H 0.79444 0.14731 0.51724 0.0
H1252 H 0.79221 0.13773 0.53612 0.0
H1253 H 0.80687 0.15837 0.53394 0.0
H1254 H 0.76631 0.19106 0.53579 0.0
H1255 H 0.77786 0.19148 0.5188 0.0
H1256 H 0.78734 0.19919 0.53786 0.0
H1257 H 0.875 0.26691 0.56154 0.0
H1258 H 0.89764 0.28677 0.54525 0.0
H1259 H 0.90285 0.27186 0.54005 0.0
H1260 H 0.88444 0.26982 0.53308 0.0
H1261 H 0.87198 0.2199 0.55068 0.0
H1262 H 0.85673 0.25365 0.54251 0.0
H1263 H 0.84744 0.19159 0.52171 0.0
H1264 H 0.8372 0.18589 0.54031 0.0
H1265 H 0.85828 0.19384 0.54008 0.0
H1266 H 0.83312 0.24704 0.52902 0.0
H1267 H 0.81806 0.22639 0.52978 0.0
H1268 H 0.8299 0.23373 0.5123 0.0
H1269 H 0.81458 0.18095 0.43278 0.0
H1270 H 0.77627 0.15445 0.47364 0.0
H1271 H 0.77545 0.15791 0.50201 0.0
H1272 H 0.81212 0.19338 0.54211 0.0
H1273 H 0.84966 0.22127 0.50092 0.0
H1274 H 0.85011 0.21832 0.47238 0.0
H1275 H 0.7118 0.10711 0.54236 0.0
H1276 H 0.72233 0.1268 0.53447 0.0
H1277 H 0.71397 0.12385 0.55419 0.0
C1278 C 0.97327 0.43217 0.28394 0.0
C1279 C 0.98071 0.42706 0.27068 0.0
C1280 C 0.99126 0.45022 0.25314 0.0
C1281 C 0.97663 0.44734 0.24695 0.0
C1282 C 0.97564 0.45839 0.23711 0.0
C1283 C 0.98956 0.47254 0.23324 0.0
C1284 C 0.00434 0.47526 0.23903 0.0
C1285 C 0.00498 0.46404 0.2489 0.0
C1286 C 0.95968 0.45507 0.23106 0.0
C1287 C 0.01941 0.49015 0.23498 0.0
C1288 C 0.9715 0.54238 0.29266 0.0
C1289 C 0.9846 0.55345 0.28149 0.0
C1290 C 0.98061 0.54114 0.25516 0.0
C1291 C 0.99559 0.54353 0.25148 0.0
C1292 C 0.99727 0.53309 0.24095 0.0
C1293 C 0.98365 0.51994 0.23411 0.0
C1294 C 0.96853 0.51777 0.23754 0.0
C1295 C 0.96724 0.52862 0.24782 0.0
C1296 C 0.01358 0.53597 0.23733 0.0
C1297 C 0.95372 0.50378 0.2307 0.0
C1298 C 0.96814 0.53622 0.13228 0.0
C1299 C 0.98396 0.54119 0.13603 0.0
C1300 C 0.9881 0.53088 0.14341 0.0
C1301 C 0.97613 0.51539 0.14727 0.0
C1302 C 0.96025 0.5102 0.14293 0.0
C1303 C 0.9565 0.52065 0.13526 0.0
C1304 C 0.00522 0.53659 0.14728 0.0
C1305 C 0.94718 0.49373 0.14669 0.0
C1306 C 0.97895 0.41053 0.13858 0.0
C1307 C 0.97634 0.41628 0.12246 0.0
C1308 C 0.98497 0.44418 0.12942 0.0
C1309 C 0.99804 0.45949 0.12961 0.0
C1310 C 0.99789 0.47196 0.13814 0.0
C1311 C 0.98415 0.46908 0.14641 0.0
C1312 C 0.97064 0.45374 0.14577 0.0
C1313 C 0.97125 0.44141 0.13746 0.0
C1314 C 0.01249 0.48816 0.13853 0.0
C1315 C 0.95559 0.45032 0.15401 0.0
C1316 C 0.9885 0.48478 0.22378 0.0
C1317 C 0.9872 0.49659 0.23219 0.0
C1318 C 0.98519 0.50799 0.22419 0.0
C1319 C 0.98434 0.50757 0.20725 0.0
C1320 C 0.98205 0.51866 0.1988 0.0
C1321 C 0.9806 0.51776 0.18217 0.0
C1322 C 0.98176 0.50597 0.17331 0.0
C1323 C 0.98006 0.50481 0.15641 0.0
C1324 C 0.98123 0.49291 0.148 0.0
C1325 C 0.98396 0.48197 0.15601 0.0
C1326 C 0.98573 0.48296 0.1729 0.0
C1327 C 0.98855 0.4722 0.18135 0.0
C1328 C 0.98956 0.47282 0.19801 0.0
C1329 C 0.98797 0.48435 0.20685 0.0
C1330 C 0.98569 0.49567 0.19856 0.0
C1331 C 0.9845 0.49493 0.18157 0.0
C1332 C 0.95508 0.56091 0.14104 0.0
C1333 C 0.9684 0.5613 0.13118 0.0
O1334 O 0.99272 0.44023 0.26335 0.0
O1335 O 0.9862 0.43255 0.12141 0.0
O1336 O 0.96381 0.5461 0.12557 0.0
O1337 O 0.9788 0.55072 0.26587 0.0
H1338 H 0.97151 0.41954 0.2616 0.0
H1339 H 0.96773 0.43873 0.27888 0.0
H1340 H 0.98235 0.44001 0.29295 0.0
H1341 H 0.96394 0.4216 0.29004 0.0
H1342 H 0.96588 0.43662 0.24986 0.0
H1343 H 0.01623 0.46614 0.25359 0.0
H1344 H 0.95747 0.46468 0.23519 0.0
H1345 H 0.94995 0.44356 0.23521 0.0
H1346 H 0.9595 0.45494 0.21775 0.0
H1347 H 0.03004 0.49007 0.23959 0.0
H1348 H 0.01923 0.50062 0.24021 0.0
H1349 H 0.0203 0.49155 0.22179 0.0
H1350 H 0.99436 0.55072 0.28262 0.0
H1351 H 0.97593 0.54442 0.30525 0.0
H1352 H 0.96747 0.52984 0.28923 0.0
H1353 H 0.96124 0.54432 0.29188 0.0
H1354 H 0.00594 0.55353 0.25688 0.0
H1355 H 0.95574 0.52702 0.25067 0.0
H1356 H 0.01524 0.52661 0.2429 0.0
H1357 H 0.02298 0.5477 0.24197 0.0
H1358 H 0.01497 0.53526 0.22419 0.0
H1359 H 0.94285 0.50309 0.23558 0.0
H1360 H 0.95362 0.49258 0.23333 0.0
H1361 H 0.95346 0.50469 0.21748 0.0
H1362 H 0.97895 0.56584 0.13925 0.0
H1363 H 0.99305 0.55308 0.1331 0.0
H1364 H 0.94437 0.51688 0.13201 0.0
H1365 H 0.0071 0.53789 0.16046 0.0
H1366 H 0.01323 0.54819 0.14181 0.0
H1367 H 0.00846 0.52774 0.14299 0.0
H1368 H 0.93534 0.49186 0.14338 0.0
H1369 H 0.94739 0.49153 0.15968 0.0
H1370 H 0.94905 0.48484 0.14005 0.0
H1371 H 0.96382 0.41329 0.12129 0.0
H1372 H 0.97116 0.39749 0.13944 0.0
H1373 H 0.97611 0.41625 0.14863 0.0
H1374 H 0.99144 0.41348 0.13995 0.0
H1375 H 0.00854 0.46156 0.1233 0.0
H1376 H 0.96094 0.42971 0.13735 0.0
H1377 H 0.01607 0.49228 0.15113 0.0
H1378 H 0.00988 0.49677 0.13267 0.0
H1379 H 0.02254 0.48822 0.13231 0.0
H1380 H 0.94552 0.43852 0.15047 0.0
H1381 H 0.95247 0.45955 0.15117 0.0
H1382 H 0.95734 0.45061 0.16718 0.0
H1383 H 0.98753 0.49678 0.2452 0.0
H1384 H 0.98113 0.52802 0.20497 0.0
H1385 H 0.97854 0.52644 0.17636 0.0
H1386 H 0.97967 0.49195 0.13508 0.0
H1387 H 0.98985 0.46306 0.17519 0.0
H1388 H 0.99155 0.46412 0.20388 0.0
H1389 H 0.94412 0.55632 0.13365 0.0
H1390 H 0.95853 0.57299 0.14568 0.0
H1391 H 0.95259 0.55304 0.15142 0.0
C1392 C 0.46883 0.42524 0.29999 0.0
C1393 C 0.4582 0.42813 0.28869 0.0
C1394 C 0.46946 0.43414 0.26228 0.0
C1395 C 0.46794 0.4471 0.2577 0.0
C1396 C 0.47855 0.4582 0.24695 0.0
C1397 C 0.49106 0.45637 0.24087 0.0
C1398 C 0.49239 0.44307 0.24526 0.0
C1399 C 0.48133 0.43193 0.2557 0.0
C1400 C 0.47655 0.47203 0.24232 0.0
C1401 C 0.5057 0.44083 0.23928 0.0
C1402 C 0.59042 0.56795 0.28357 0.0
C1403 C 0.58155 0.55183 0.276 0.0
C1404 C 0.55933 0.53651 0.25742 0.0
C1405 C 0.56206 0.52368 0.25552 0.0
C1406 C 0.55169 0.51022 0.24628 0.0
C1407 C 0.53831 0.50953 0.23886 0.0
C1408 C 0.53564 0.52248 0.2406 0.0
C1409 C 0.54626 0.53584 0.2498 0.0
C1410 C 0.55494 0.49667 0.24452 0.0
C1411 C 0.52147 0.52212 0.23291 0.0
C1412 C 0.56506 0.52505 0.13451 0.0
C1413 C 0.56764 0.51345 0.14148 0.0
C1414 C 0.55582 0.50124 0.15043 0.0
C1415 C 0.54119 0.50064 0.15251 0.0
C1416 C 0.53846 0.51211 0.14528 0.0
C1417 C 0.55043 0.52412 0.13631 0.0
C1418 C 0.55901 0.48903 0.15782 0.0
C1419 C 0.52297 0.51179 0.14719 0.0
C1420 C 0.43713 0.38382 0.14533 0.0
C1421 C 0.44232 0.39866 0.13536 0.0
C1422 C 0.46967 0.41974 0.13918 0.0
C1423 C 0.48406 0.42114 0.14382 0.0
C1424 C 0.49583 0.43499 0.15149 0.0
C1425 C 0.49316 0.44784 0.15433 0.0
C1426 C 0.47894 0.4468 0.1489 0.0
C1427 C 0.46734 0.43277 0.14133 0.0
C1428 C 0.51097 0.43581 0.15687 0.0
C1429 C 0.47594 0.46047 0.15131 0.0
C1430 C 0.50326 0.46885 0.23073 0.0
C1431 C 0.51484 0.48272 0.23842 0.0
C1432 C 0.52676 0.49501 0.22979 0.0
C1433 C 0.52737 0.49341 0.21298 0.0
C1434 C 0.53933 0.50543 0.20395 0.0
C1435 C 0.53981 0.50376 0.18741 0.0
C1436 C 0.52837 0.48998 0.17925 0.0
C1437 C 0.52879 0.48815 0.16244 0.0
C1438 C 0.5172 0.47433 0.15471 0.0
C1439 C 0.50509 0.46219 0.16331 0.0
C1440 C 0.50446 0.4638 0.18013 0.0
C1441 C 0.4924 0.45185 0.18915 0.0
C1442 C 0.49189 0.45353 0.2057 0.0
C1443 C 0.50352 0.46714 0.21389 0.0
C1444 C 0.5157 0.47942 0.20501 0.0
C1445 C 0.51618 0.47773 0.18812 0.0
C1446 C 0.60089 0.54977 0.14058 0.0
C1447 C 0.59212 0.54212 0.12476 0.0
O1448 O 0.45968 0.42376 0.27319 0.0
O1449 O 0.45837 0.40575 0.1326 0.0
O1450 O 0.57623 0.53734 0.12608 0.0
O1451 O 0.56891 0.54964 0.26649 0.0
H1452 H 0.46218 0.44104 0.28943 0.0
H1453 H 0.48133 0.4325 0.29636 0.0
H1454 H 0.46558 0.41254 0.29958 0.0
H1455 H 0.4678 0.42868 0.31249 0.0
H1456 H 0.45847 0.44852 0.2626 0.0
H1457 H 0.48228 0.42178 0.25926 0.0
H1458 H 0.48611 0.48307 0.24802 0.0
H1459 H 0.46503 0.47052 0.24616 0.0
H1460 H 0.4775 0.47355 0.22914 0.0
H1461 H 0.50594 0.43075 0.24507 0.0
H1462 H 0.5172 0.45178 0.24157 0.0
H1463 H 0.50439 0.43855 0.22615 0.0
H1464 H 0.57844 0.54183 0.28428 0.0
H1465 H 0.58869 0.56594 0.29683 0.0
H1466 H 0.58264 0.5734 0.28259 0.0
H1467 H 0.61262 0.57782 0.27305 0.0
H1468 H 0.57222 0.52408 0.26122 0.0
H1469 H 0.54428 0.5458 0.25126 0.0
H1470 H 0.54529 0.48593 0.25006 0.0
H1471 H 0.56632 0.49937 0.25026 0.0
H1472 H 0.55519 0.49382 0.23163 0.0
H1473 H 0.52092 0.53305 0.23563 0.0
H1474 H 0.51049 0.51172 0.23715 0.0
H1475 H 0.52182 0.52077 0.21972 0.0
H1476 H 0.59347 0.53171 0.12163 0.0
H1477 H 0.57882 0.51385 0.14007 0.0
H1478 H 0.5485 0.53304 0.13082 0.0
H1479 H 0.55863 0.48984 0.17107 0.0
H1480 H 0.57068 0.49064 0.15443 0.0
H1481 H 0.54967 0.47693 0.15401 0.0
H1482 H 0.52285 0.52182 0.14114 0.0
H1483 H 0.52059 0.5123 0.16012 0.0
H1484 H 0.51324 0.50049 0.14211 0.0
H1485 H 0.4395 0.40653 0.14273 0.0
H1486 H 0.42416 0.37758 0.14709 0.0
H1487 H 0.44304 0.3873 0.15729 0.0
H1488 H 0.44038 0.37555 0.13948 0.0
H1489 H 0.48586 0.41112 0.14181 0.0
H1490 H 0.45653 0.43204 0.13703 0.0
H1491 H 0.51244 0.43779 0.17006 0.0
H1492 H 0.52116 0.44603 0.15125 0.0
H1493 H 0.51125 0.42482 0.15373 0.0
H1494 H 0.46457 0.45807 0.14578 0.0
H1495 H 0.48566 0.47135 0.14604 0.0
H1496 H 0.47575 0.46288 0.16432 0.0
H1497 H 0.51453 0.484 0.25133 0.0
H1498 H 0.54847 0.51627 0.20959 0.0
H1499 H 0.54928 0.51342 0.18109 0.0
H1500 H 0.5176 0.47301 0.14182 0.0
H1501 H 0.48318 0.44105 0.18353 0.0
H1502 H 0.48229 0.44398 0.212 0.0
H1503 H 0.59951 0.56011 0.14391 0.0
H1504 H 0.61365 0.55381 0.13945 0.0
H1505 H 0.59621 0.54114 0.15041 0.0
C1506 C 0.41783 0.97166 0.24862 0.0
C1507 C 0.42855 0.97934 0.26341 0.0
C1508 C 0.45413 0.99752 0.25132 0.0
C1509 C 0.46487 0.0134 0.24824 0.0
C1510 C 0.47858 0.01772 0.23943 0.0
C1511 C 0.48156 0.00579 0.23347 0.0
C1512 C 0.47081 0.98969 0.23656 0.0
C1513 C 0.45726 0.98571 0.2455 0.0
C1514 C 0.48987 0.03501 0.23645 0.0
C1515 C 0.47364 0.97668 0.23037 0.0
C1516 C 0.5984 0.03911 0.25558 0.0
C1517 C 0.58593 0.02652 0.26634 0.0
C1518 C 0.56148 0.01551 0.24989 0.0
C1519 C 0.55058 0.00215 0.24108 0.0
C1520 C 0.53788 0.00188 0.23293 0.0
C1521 C 0.53617 0.01548 0.23349 0.0
C1522 C 0.54703 0.02903 0.24255 0.0
C1523 C 0.55954 0.0289 0.25075 0.0
C1524 C 0.52639 0.98712 0.22361 0.0
C1525 C 0.5455 0.0437 0.24334 0.0
C1526 C 0.5681 0.03732 0.13038 0.0
C1527 C 0.55895 0.02186 0.13586 0.0
C1528 C 0.54508 0.01747 0.14444 0.0
C1529 C 0.54062 0.02898 0.14796 0.0
C1530 C 0.54991 0.04462 0.14234 0.0
C1531 C 0.56339 0.04849 0.13334 0.0
C1532 C 0.53523 0.00052 0.14965 0.0
C1533 C 0.54568 0.05728 0.14592 0.0
C1534 C 0.42329 0.99949 0.13708 0.0
C1535 C 0.43423 0.01363 0.12679 0.0
C1536 C 0.45898 0.0135 0.1297 0.0
C1537 C 0.46299 0.00161 0.12917 0.0
C1538 C 0.47585 0.00306 0.13812 0.0
C1539 C 0.4852 0.01704 0.14738 0.0
C1540 C 0.48157 0.02943 0.1474 0.0
C1541 C 0.46836 0.02745 0.13868 0.0
C1542 C 0.47933 0.9896 0.13778 0.0
C1543 C 0.49166 0.04479 0.15658 0.0
C1544 C 0.49601 0.01014 0.22414 0.0
C1545 C 0.50922 0.01167 0.23236 0.0
C1546 C 0.52314 0.01552 0.22432 0.0
C1547 C 0.52415 0.01835 0.20769 0.0
C1548 C 0.5382 0.0229 0.19938 0.0
C1549 C 0.53897 0.02524 0.18294 0.0
C1550 C 0.52565 0.02287 0.17411 0.0
C1551 C 0.52616 0.0247 0.1573 0.0
C1552 C 0.51279 0.02264 0.149 0.0
C1553 C 0.49881 0.01872 0.15699 0.0
C1554 C 0.49798 0.01651 0.17374 0.0
C1555 C 0.48399 0.01215 0.18211 0.0
C1556 C 0.48333 0.01016 0.19862 0.0
C1557 C 0.49659 0.01228 0.20738 0.0
C1558 C 0.51075 0.01649 0.19915 0.0
C1559 C 0.51147 0.01864 0.18232 0.0
C1560 C 0.60629 0.05786 0.134 0.0
C1561 C 0.59445 0.04126 0.12744 0.0
O1562 O 0.44099 0.9942 0.25979 0.0
O1563 O 0.44626 0.01136 0.12105 0.0
O1564 O 0.58125 0.04156 0.12175 0.0
O1565 O 0.57364 0.0149 0.25714 0.0
H1566 H 0.43325 0.97164 0.26744 0.0
H1567 H 0.42441 0.96988 0.23878 0.0
H1568 H 0.4132 0.97928 0.24418 0.0
H1569 H 0.40774 0.95988 0.25163 0.0
H1570 H 0.46244 0.02245 0.25277 0.0
H1571 H 0.44921 0.97335 0.24778 0.0
H1572 H 0.50186 0.03827 0.24087 0.0
H1573 H 0.48617 0.0429 0.24241 0.0
H1574 H 0.49065 0.03712 0.22337 0.0
H1575 H 0.46374 0.96467 0.23303 0.0
H1576 H 0.48462 0.97806 0.2359 0.0
H1577 H 0.47533 0.97761 0.2172 0.0
H1578 H 0.58131 0.03221 0.2747 0.0
H1579 H 0.60837 0.04825 0.26298 0.0
H1580 H 0.5933 0.04515 0.24863 0.0
H1581 H 0.603 0.03362 0.24699 0.0
H1582 H 0.55212 0.99186 0.24054 0.0
H1583 H 0.56778 0.03931 0.25763 0.0
H1584 H 0.5141 0.98344 0.22708 0.0
H1585 H 0.52854 0.97708 0.22558 0.0
H1586 H 0.52742 0.98965 0.21062 0.0
H1587 H 0.55525 0.05351 0.25039 0.0
H1588 H 0.53411 0.04083 0.2489 0.0
H1589 H 0.54541 0.04785 0.23104 0.0
H1590 H 0.59121 0.03274 0.1374 0.0
H1591 H 0.56253 0.01319 0.13317 0.0
H1592 H 0.57053 0.06036 0.12885 0.0
H1593 H 0.53673 0.99993 0.16276 0.0
H1594 H 0.53871 0.99253 0.14355 0.0
H1595 H 0.52252 0.99608 0.14715 0.0
H1596 H 0.55524 0.06927 0.14263 0.0
H1597 H 0.54316 0.05745 0.15886 0.0
H1598 H 0.53484 0.0546 0.13907 0.0
H1599 H 0.43914 0.02465 0.13431 0.0
H1600 H 0.41374 0.00112 0.14226 0.0
H1601 H 0.43008 0.99837 0.14718 0.0
H1602 H 0.41792 0.98832 0.12979 0.0
H1603 H 0.45576 0.99099 0.12199 0.0
H1604 H 0.46561 0.03693 0.13861 0.0
H1605 H 0.48049 0.98632 0.15019 0.0
H1606 H 0.49074 0.99347 0.13175 0.0
H1607 H 0.47 0.97893 0.13131 0.0
H1608 H 0.48851 0.05397 0.15367 0.0
H1609 H 0.50433 0.04945 0.15392 0.0
H1610 H 0.49014 0.04261 0.16963 0.0
H1611 H 0.50855 0.00956 0.24513 0.0
H1612 H 0.54879 0.02474 0.20551 0.0
H1613 H 0.55013 0.02881 0.17722 0.0
H1614 H 0.51328 0.02418 0.13613 0.0
H1615 H 0.47337 0.01023 0.17599 0.0
H1616 H 0.47226 0.00684 0.20441 0.0
H1617 H 0.61034 0.06661 0.12424 0.0
H1618 H 0.61669 0.058 0.13961 0.0
H1619 H 0.60063 0.06154 0.14332 0.0
C1620 C 0.54131 0.97793 0.7241 0.0
C1621 C 0.55325 0.99075 0.73561 0.0
C1622 C 0.54283 0.98621 0.7624 0.0
C1623 C 0.54595 0.00124 0.76769 0.0
C1624 C 0.53631 0.00285 0.77909 0.0
C1625 C 0.52318 0.98911 0.78512 0.0
C1626 C 0.52031 0.97391 0.78011 0.0
C1627 C 0.53039 0.97267 0.76899 0.0
C1628 C 0.53996 0.01925 0.78438 0.0
C1629 C 0.50632 0.95899 0.7861 0.0
C1630 C 0.44623 0.03164 0.7756 0.0
C1631 C 0.44895 0.02382 0.76077 0.0
C1632 C 0.45784 0.00648 0.77249 0.0
C1633 C 0.45353 0.99076 0.77557 0.0
C1634 C 0.4638 0.98702 0.78375 0.0
C1635 C 0.47876 0.99937 0.78904 0.0
C1636 C 0.48324 0.0153 0.78598 0.0
C1637 C 0.47279 0.01871 0.7777 0.0
C1638 C 0.45867 0.96989 0.78679 0.0
C1639 C 0.49909 0.02875 0.79151 0.0
C1640 C 0.4536 0.99107 0.89319 0.0
C1641 C 0.44949 0.9774 0.88392 0.0
C1642 C 0.46091 0.97604 0.87501 0.0
C1643 C 0.47667 0.98883 0.87509 0.0
C1644 C 0.48087 0.00249 0.88477 0.0
C1645 C 0.46929 0.0033 0.89392 0.0
C1646 C 0.4561 0.96098 0.86545 0.0
C1647 C 0.49752 0.01634 0.88521 0.0
C1648 C 0.57096 0.96318 0.87804 0.0
C1649 C 0.56984 0.97523 0.88913 0.0
C1650 C 0.54402 0.97317 0.88643 0.0
C1651 C 0.52871 0.96102 0.88279 0.0
C1652 C 0.51779 0.96422 0.87521 0.0
C1653 C 0.52224 0.98005 0.87158 0.0
C1654 C 0.53751 0.9925 0.87593 0.0
C1655 C 0.54827 0.98892 0.88328 0.0
C1656 C 0.50157 0.95068 0.87089 0.0
C1657 C 0.54244 0.00957 0.87276 0.0
C1658 C 0.51184 0.99067 0.79573 0.0
C1659 C 0.50082 0.99386 0.78851 0.0
C1660 C 0.48983 0.99564 0.79759 0.0
C1661 C 0.48965 0.99407 0.81441 0.0
C1662 C 0.47882 0.9959 0.82392 0.0
C1663 C 0.47859 0.99413 0.84044 0.0
C1664 C 0.48911 0.99034 0.84808 0.0
C1665 C 0.48865 0.98805 0.86482 0.0
C1666 C 0.49959 0.98474 0.87207 0.0
C1667 C 0.51099 0.98356 0.86306 0.0
C1668 C 0.51142 0.98549 0.84626 0.0
C1669 C 0.52255 0.98412 0.83678 0.0
C1670 C 0.52283 0.98598 0.82026 0.0
C1671 C 0.51187 0.98908 0.81255 0.0
C1672 C 0.50064 0.99066 0.82189 0.0
C1673 C 0.5004 0.98885 0.83876 0.0
C1674 C 0.4333 0.00628 0.88532 0.0
C1675 C 0.42902 0.99143 0.89501 0.0
O1676 O 0.55156 0.98454 0.75078 0.0
O1677 O 0.55423 0.96935 0.89337 0.0
O1678 O 0.44266 0.99271 0.90162 0.0
O1679 O 0.44723 0.00922 0.76459 0.0
H1680 H 0.55068 0.0007 0.73577 0.0
H1681 H 0.52914 0.97392 0.72823 0.0
H1682 H 0.54312 0.96753 0.7236 0.0
H1683 H 0.54249 0.9827 0.71186 0.0
H1684 H 0.55587 0.01168 0.76281 0.0
H1685 H 0.52822 0.96113 0.76489 0.0
H1686 H 0.53108 0.02181 0.77903 0.0
H1687 H 0.55186 0.02853 0.7806 0.0
H1688 H 0.53923 0.01994 0.79761 0.0
H1689 H 0.50511 0.94813 0.78015 0.0
H1690 H 0.4953 0.95938 0.78399 0.0
H1691 H 0.50759 0.95814 0.7992 0.0
H1692 H 0.46106 0.03169 0.75629 0.0
H1693 H 0.44737 0.04321 0.77244 0.0
H1694 H 0.45506 0.03387 0.78515 0.0
H1695 H 0.43429 0.02389 0.78049 0.0
H1696 H 0.44202 0.98139 0.77153 0.0
H1697 H 0.47645 0.03096 0.77546 0.0
H1698 H 0.4673 0.9669 0.78154 0.0
H1699 H 0.44678 0.96164 0.78165 0.0
H1700 H 0.45848 0.96802 0.7999 0.0
H1701 H 0.50059 0.04056 0.78879 0.0
H1702 H 0.50862 0.02761 0.78557 0.0
H1703 H 0.50055 0.02813 0.80463 0.0
H1704 H 0.42315 0.98085 0.88686 0.0
H1705 H 0.4374 0.96773 0.8838 0.0
H1706 H 0.47232 0.01371 0.90131 0.0
H1707 H 0.45576 0.96325 0.85252 0.0
H1708 H 0.44425 0.95126 0.86882 0.0
H1709 H 0.46483 0.95698 0.86721 0.0
H1710 H 0.49851 0.02667 0.8921 0.0
H1711 H 0.50169 0.02009 0.87284 0.0
H1712 H 0.50549 0.01269 0.89085 0.0
H1713 H 0.57433 0.98642 0.88243 0.0
H1714 H 0.58339 0.96768 0.87445 0.0
H1715 H 0.56371 0.96119 0.86704 0.0
H1716 H 0.56656 0.95166 0.88409 0.0
H1717 H 0.52547 0.94894 0.88557 0.0
H1718 H 0.5599 0.99843 0.88678 0.0
H1719 H 0.49919 0.9508 0.85788 0.0
H1720 H 0.49254 0.95215 0.87748 0.0
H1721 H 0.50022 0.93896 0.8738 0.0
H1722 H 0.55423 0.01795 0.87804 0.0
H1723 H 0.53364 0.01244 0.87774 0.0
H1724 H 0.54284 0.01138 0.85964 0.0
H1725 H 0.50086 0.99507 0.7756 0.0
H1726 H 0.47036 0.99869 0.81869 0.0
H1727 H 0.47 0.9957 0.84712 0.0
H1728 H 0.4992 0.98303 0.88491 0.0
H1729 H 0.53118 0.98158 0.84202 0.0
H1730 H 0.5317 0.98485 0.81359 0.0
H1731 H 0.43912 0.01707 0.89318 0.0
H1732 H 0.42261 0.00548 0.87966 0.0
H1733 H 0.44152 0.0075 0.87559 0.0
C1734 C 0.99938 0.54763 0.72697 0.0
C1735 C 0.99435 0.55482 0.74062 0.0
C1736 C 0.00618 0.55027 0.76419 0.0
C1737 C 0.99266 0.53832 0.77153 0.0
C1738 C 0.9937 0.52774 0.78201 0.0
C1739 C 0.00859 0.52924 0.78535 0.0
C1740 C 0.02234 0.5418 0.77867 0.0
C1741 C 0.02095 0.55226 0.76826 0.0
C1742 C 0.97885 0.51472 0.78926 0.0
C1743 C 0.03841 0.54388 0.7822 0.0
C1744 C 0.01025 0.42547 0.73857 0.0
C1745 C 0.01547 0.44087 0.74709 0.0
C1746 C 0.00514 0.45332 0.76536 0.0
C1747 C 0.01992 0.46654 0.76927 0.0
C1748 C 0.02107 0.47885 0.77922 0.0
C1749 C 0.00718 0.47796 0.78531 0.0
C1750 C 0.99232 0.46458 0.78157 0.0
C1751 C 0.99151 0.45238 0.7717 0.0
C1752 C 0.03712 0.4929 0.7831 0.0
C1753 C 0.97729 0.46329 0.78785 0.0
C1754 C 0.01152 0.45653 0.88964 0.0
C1755 C 0.02545 0.46666 0.88165 0.0
C1756 C 0.02679 0.47963 0.87317 0.0
C1757 C 0.01373 0.48216 0.87232 0.0
C1758 C 0.99976 0.47204 0.88063 0.0
C1759 C 0.99897 0.45951 0.88944 0.0
C1760 C 0.04213 0.49057 0.86511 0.0
C1761 C 0.98561 0.47434 0.88012 0.0
C1762 C 0.02395 0.59553 0.87505 0.0
C1763 C 0.01668 0.58463 0.88934 0.0
C1764 C 0.02309 0.56348 0.88663 0.0
C1765 C 0.03625 0.56226 0.8824 0.0
C1766 C 0.0345 0.54845 0.87491 0.0
C1767 C 0.01918 0.5355 0.87183 0.0
C1768 C 0.00583 0.53632 0.87693 0.0
C1769 C 0.00792 0.55029 0.88436 0.0
C1770 C 0.04898 0.54785 0.86986 0.0
C1771 C 0.98935 0.52254 0.87422 0.0
C1772 C 0.00958 0.51705 0.79496 0.0
C1773 C 0.00812 0.50374 0.78678 0.0
C1774 C 0.00823 0.49139 0.79497 0.0
C1775 C 0.00962 0.49215 0.81187 0.0
C1776 C 0.00919 0.47968 0.82054 0.0
C1777 C 0.01055 0.48055 0.83718 0.0
C1778 C 0.01281 0.4941 0.84577 0.0
C1779 C 0.01457 0.49527 0.86267 0.0
C1780 C 0.01678 0.50894 0.87078 0.0
C1781 C 0.01708 0.52145 0.86251 0.0
C1782 C 0.01522 0.52045 0.84564 0.0
C1783 C 0.01528 0.53278 0.83696 0.0
C1784 C 0.01336 0.53167 0.82038 0.0
C1785 C 0.01147 0.51827 0.81181 0.0
C1786 C 0.01143 0.50573 0.8203 0.0
C1787 C 0.01319 0.50678 0.83725 0.0
C1788 C 0.9974 0.42096 0.88095 0.0
C1789 C 0.01192 0.43186 0.89139 0.0
O1790 O 0.00534 0.55991 0.75309 0.0
O1791 O 0.02546 0.57745 0.893 0.0
O1792 O 0.01002 0.44399 0.8979 0.0
O1793 O 0.0035 0.44131 0.75553 0.0
H1794 H 0.98267 0.54523 0.74455 0.0
H1795 H 0.99885 0.53655 0.73102 0.0
H1796 H 0.01166 0.55591 0.72329 0.0
H1797 H 0.99129 0.54462 0.71646 0.0
H1798 H 0.98126 0.53721 0.76916 0.0
H1799 H 0.03136 0.5617 0.76277 0.0
H1800 H 0.97693 0.503 0.78504 0.0
H1801 H 0.96826 0.51557 0.78607 0.0
H1802 H 0.98014 0.51522 0.80251 0.0
H1803 H 0.04803 0.55467 0.77667 0.0
H1804 H 0.03889 0.53336 0.7776 0.0
H1805 H 0.04051 0.54467 0.79536 0.0
H1806 H 0.02242 0.4516 0.73974 0.0
H1807 H 0.01158 0.42837 0.72547 0.0
H1808 H 0.99695 0.41903 0.73813 0.0
H1809 H 0.02304 0.4164 0.75007 0.0
H1810 H 0.03059 0.46737 0.76458 0.0
H1811 H 0.98018 0.44212 0.76869 0.0
H1812 H 0.03883 0.49461 0.7963 0.0
H1813 H 0.03787 0.50381 0.77824 0.0
H1814 H 0.04684 0.49149 0.77805 0.0
H1815 H 0.96666 0.45204 0.78399 0.0
H1816 H 0.97609 0.47339 0.78357 0.0
H1817 H 0.97779 0.46402 0.80115 0.0
H1818 H 0.02259 0.43683 0.88379 0.0
H1819 H 0.03534 0.46459 0.88227 0.0
H1820 H 0.98836 0.45169 0.89587 0.0
H1821 H 0.0406 0.48857 0.85194 0.0
H1822 H 0.05184 0.48855 0.86907 0.0
H1823 H 0.04563 0.50314 0.86765 0.0
H1824 H 0.97505 0.46432 0.88552 0.0
H1825 H 0.98269 0.47563 0.86755 0.0
H1826 H 0.9884 0.4854 0.88681 0.0
H1827 H 0.00444 0.57572 0.8856 0.0
H1828 H 0.01748 0.60196 0.87251 0.0
H1829 H 0.02311 0.58833 0.86424 0.0
H1830 H 0.0366 0.60427 0.87736 0.0
H1831 H 0.04792 0.57239 0.88453 0.0
H1832 H 0.99769 0.55078 0.88844 0.0
H1833 H 0.04885 0.54641 0.85663 0.0
H1834 H 0.04888 0.5374 0.87516 0.0
H1835 H 0.06008 0.55872 0.87358 0.0
H1836 H 0.98022 0.52476 0.87957 0.0
H1837 H 0.98836 0.51168 0.87948 0.0
H1838 H 0.98689 0.52023 0.86116 0.0
H1839 H 0.00685 0.50296 0.77382 0.0
H1840 H 0.00768 0.46905 0.81456 0.0
H1841 H 0.00994 0.4705 0.84321 0.0
H1842 H 0.01815 0.50978 0.88373 0.0
H1843 H 0.01678 0.54342 0.84289 0.0
H1844 H 0.01347 0.54148 0.81434 0.0
H1845 H 0.98656 0.41565 0.88829 0.0
H1846 H 0.9987 0.4113 0.87524 0.0
H1847 H 0.99597 0.42783 0.87124 0.0
C1848 C 0.52971 0.57544 0.72586 0.0
C1849 C 0.54238 0.58169 0.73919 0.0
C1850 C 0.52979 0.56106 0.75958 0.0
C1851 C 0.51813 0.56475 0.76411 0.0
C1852 C 0.50641 0.55531 0.77502 0.0
C1853 C 0.50649 0.54209 0.78173 0.0
C1854 C 0.5185 0.53867 0.77761 0.0
C1855 C 0.52996 0.54819 0.76655 0.0
C1856 C 0.49376 0.55929 0.77921 0.0
C1857 C 0.51908 0.5248 0.7847 0.0
C1858 C 0.39434 0.44552 0.76853 0.0
C1859 C 0.40725 0.4472 0.75704 0.0
C1860 C 0.432 0.46418 0.77223 0.0
C1861 C 0.44467 0.46428 0.78012 0.0
C1862 C 0.45673 0.47814 0.78747 0.0
C1863 C 0.45594 0.49226 0.7871 0.0
C1864 C 0.44319 0.49232 0.77908 0.0
C1865 C 0.43138 0.47831 0.77164 0.0
C1866 C 0.47028 0.47768 0.79568 0.0
C1867 C 0.44202 0.50719 0.7785 0.0
C1868 C 0.4367 0.48518 0.8952 0.0
C1869 C 0.45006 0.48424 0.89123 0.0
C1870 C 0.46095 0.49453 0.88018 0.0
C1871 C 0.45844 0.50618 0.873 0.0
C1872 C 0.44475 0.50699 0.87666 0.0
C1873 C 0.4339 0.49637 0.88762 0.0
C1874 C 0.4753 0.49314 0.87645 0.0
C1875 C 0.4417 0.51922 0.86913 0.0
C1876 C 0.56011 0.61658 0.88364 0.0
C1877 C 0.55301 0.60545 0.89778 0.0
C1878 C 0.53623 0.57909 0.88493 0.0
C1879 C 0.53533 0.56459 0.88143 0.0
C1880 C 0.52237 0.55246 0.87302 0.0
C1881 C 0.50991 0.5549 0.86806 0.0
C1882 C 0.51072 0.56957 0.87148 0.0
C1883 C 0.5239 0.58157 0.87984 0.0
C1884 C 0.52196 0.53699 0.86953 0.0
C1885 C 0.49761 0.57252 0.8663 0.0
C1886 C 0.49363 0.53142 0.7925 0.0
C1887 C 0.48089 0.51781 0.78567 0.0
C1888 C 0.46853 0.50695 0.79506 0.0
C1889 C 0.46869 0.5098 0.81174 0.0
C1890 C 0.45634 0.49923 0.82151 0.0
C1891 C 0.45684 0.50186 0.83798 0.0
C1892 C 0.46965 0.51522 0.84531 0.0
C1893 C 0.47047 0.51778 0.8621 0.0
C1894 C 0.48348 0.53107 0.86902 0.0
C1895 C 0.49589 0.5419 0.85966 0.0
C1896 C 0.49525 0.53961 0.84284 0.0
C1897 C 0.50753 0.55027 0.83305 0.0
C1898 C 0.50698 0.54768 0.81655 0.0
C1899 C 0.49416 0.53433 0.80921 0.0
C1900 C 0.4816 0.52349 0.81884 0.0
C1901 C 0.4821 0.52618 0.83566 0.0
C1902 C 0.41959 0.48923 0.92521 0.0
C1903 C 0.41423 0.47488 0.91378 0.0
O1904 O 0.54092 0.56932 0.74845 0.0
O1905 O 0.54919 0.59018 0.89318 0.0
O1906 O 0.4271 0.4752 0.90652 0.0
O1907 O 0.42071 0.4502 0.76556 0.0
H1908 H 0.54111 0.5904 0.7469 0.0
H1909 H 0.51772 0.56996 0.73098 0.0
H1910 H 0.53045 0.56636 0.71827 0.0
H1911 H 0.53126 0.58534 0.71819 0.0
H1912 H 0.51793 0.57482 0.75908 0.0
H1913 H 0.53905 0.54549 0.7631 0.0
H1914 H 0.48196 0.54901 0.77621 0.0
H1915 H 0.49516 0.5698 0.77277 0.0
H1916 H 0.49412 0.56167 0.7923 0.0
H1917 H 0.52989 0.5245 0.78129 0.0
H1918 H 0.50861 0.51357 0.78051 0.0
H1919 H 0.51862 0.52534 0.79797 0.0
H1920 H 0.41011 0.45708 0.74873 0.0
H1921 H 0.3835 0.44288 0.76168 0.0
H1922 H 0.39826 0.45667 0.77554 0.0
H1923 H 0.39144 0.43583 0.77707 0.0
H1924 H 0.44508 0.45336 0.78048 0.0
H1925 H 0.42172 0.47852 0.76552 0.0
H1926 H 0.47003 0.4798 0.80875 0.0
H1927 H 0.48169 0.48726 0.79116 0.0
H1928 H 0.4698 0.46612 0.79378 0.0
H1929 H 0.43093 0.50511 0.77256 0.0
H1930 H 0.45219 0.51643 0.77187 0.0
H1931 H 0.44259 0.51189 0.79084 0.0
H1932 H 0.40609 0.47493 0.90444 0.0
H1933 H 0.45204 0.47549 0.89703 0.0
H1934 H 0.42342 0.497 0.89029 0.0
H1935 H 0.47684 0.49298 0.86329 0.0
H1936 H 0.47454 0.48229 0.88151 0.0
H1937 H 0.48594 0.50363 0.88158 0.0
H1938 H 0.43066 0.51854 0.87344 0.0
H1939 H 0.44086 0.51752 0.8559 0.0
H1940 H 0.45174 0.53129 0.87185 0.0
H1941 H 0.54228 0.60556 0.90193 0.0
H1942 H 0.56313 0.62884 0.8872 0.0
H1943 H 0.55152 0.61262 0.87349 0.0
H1944 H 0.57096 0.61671 0.87949 0.0
H1945 H 0.54491 0.5628 0.88536 0.0
H1946 H 0.52443 0.59276 0.88232 0.0
H1947 H 0.52051 0.53436 0.85645 0.0
H1948 H 0.51166 0.52721 0.87548 0.0
H1949 H 0.53284 0.53717 0.87377 0.0
H1950 H 0.50009 0.58465 0.86962 0.0
H1951 H 0.48641 0.56376 0.87191 0.0
H1952 H 0.49585 0.57083 0.85311 0.0
H1953 H 0.4807 0.51551 0.77289 0.0
H1954 H 0.44619 0.48873 0.81653 0.0
H1955 H 0.44707 0.49325 0.84492 0.0
H1956 H 0.48418 0.53278 0.88194 0.0
H1957 H 0.51773 0.5607 0.83806 0.0
H1958 H 0.5168 0.55623 0.80963 0.0
H1959 H 0.42806 0.48958 0.93436 0.0
H1960 H 0.40926 0.48859 0.93138 0.0
H1961 H 0.42545 0.50048 0.91858 0.0
C1962 C 0.63481 0.77125 0.62489 0.0
C1963 C 0.63409 0.7598 0.61161 0.0
C1964 C 0.6395 0.77712 0.58845 0.0
C1965 C 0.62442 0.77549 0.58702 0.0
C1966 C 0.62174 0.78529 0.57685 0.0
C1967 C 0.63439 0.79704 0.56806 0.0
C1968 C 0.64952 0.79855 0.56928 0.0
C1969 C 0.6518 0.7884 0.57932 0.0
C1970 C 0.60541 0.78321 0.57564 0.0
C1971 C 0.66332 0.81105 0.56022 0.0
C1972 C 0.61607 0.89152 0.58694 0.0
C1973 C 0.62791 0.89041 0.59821 0.0
C1974 C 0.63588 0.87398 0.58229 0.0
C1975 C 0.64816 0.87445 0.57341 0.0
C1976 C 0.64645 0.86089 0.5654 0.0
C1977 C 0.63196 0.84647 0.56618 0.0
C1978 C 0.61948 0.84581 0.57527 0.0
C1979 C 0.62158 0.85955 0.58331 0.0
C1980 C 0.66011 0.86201 0.55601 0.0
C1981 C 0.6039 0.83061 0.57636 0.0
C1982 C 0.60406 0.85319 0.46616 0.0
C1983 C 0.61999 0.85817 0.46929 0.0
C1984 C 0.62434 0.84803 0.4767 0.0
C1985 C 0.61247 0.83275 0.48132 0.0
C1986 C 0.59646 0.82752 0.47754 0.0
C1987 C 0.5925 0.83777 0.46978 0.0
C1988 C 0.64158 0.85375 0.47987 0.0
C1989 C 0.5835 0.81126 0.48208 0.0
C1990 C 0.61412 0.72758 0.46859 0.0
C1991 C 0.6156 0.73665 0.45324 0.0
C1992 C 0.62427 0.76361 0.46402 0.0
C1993 C 0.63741 0.7787 0.46631 0.0
C1994 C 0.6364 0.79057 0.47508 0.0
C1995 C 0.6218 0.78726 0.48165 0.0
C1996 C 0.60835 0.77209 0.47922 0.0
C1997 C 0.60971 0.76039 0.47045 0.0
C1998 C 0.65098 0.80664 0.47741 0.0
C1999 C 0.59258 0.76824 0.48597 0.0
C2000 C 0.6319 0.80816 0.55813 0.0
C2001 C 0.63261 0.82137 0.56585 0.0
C2002 C 0.62994 0.83213 0.55743 0.0
C2003 C 0.62616 0.82955 0.54088 0.0
C2004 C 0.62263 0.83968 0.53222 0.0
C2005 C 0.61922 0.83723 0.51587 0.0
C2006 C 0.61958 0.82477 0.50747 0.0
C2007 C 0.61665 0.82251 0.49074 0.0
C2008 C 0.61737 0.81016 0.48275 0.0
C2009 C 0.62065 0.79973 0.49104 0.0
C2010 C 0.62319 0.80155 0.50784 0.0
C2011 C 0.62606 0.79102 0.51665 0.0
C2012 C 0.62864 0.79298 0.53316 0.0
C2013 C 0.62885 0.80578 0.54143 0.0
C2014 C 0.62594 0.81651 0.5328 0.0
C2015 C 0.62288 0.81427 0.51602 0.0
C2016 C 0.59283 0.88211 0.46858 0.0
C2017 C 0.60595 0.87898 0.46315 0.0
O2018 O 0.64277 0.76825 0.59855 0.0
O2019 O 0.62629 0.75267 0.45562 0.0
O2020 O 0.59943 0.86293 0.45963 0.0
O2021 O 0.63841 0.88773 0.58948 0.0
H2022 H 0.62161 0.75174 0.60785 0.0
H2023 H 0.62963 0.77842 0.62061 0.0
H2024 H 0.64724 0.77942 0.62871 0.0
H2025 H 0.62798 0.76456 0.63544 0.0
H2026 H 0.6147 0.76667 0.59381 0.0
H2027 H 0.66336 0.78951 0.58042 0.0
H2028 H 0.60556 0.79386 0.58084 0.0
H2029 H 0.59652 0.77262 0.58207 0.0
H2030 H 0.60169 0.7821 0.56287 0.0
H2031 H 0.6745 0.81118 0.56308 0.0
H2032 H 0.6649 0.82294 0.56309 0.0
H2033 H 0.66094 0.80888 0.54714 0.0
H2034 H 0.62146 0.88057 0.60668 0.0
H2035 H 0.60783 0.89393 0.59395 0.0
H2036 H 0.60896 0.88023 0.58011 0.0
H2037 H 0.62232 0.90117 0.57825 0.0
H2038 H 0.65917 0.88559 0.57274 0.0
H2039 H 0.61196 0.85888 0.59024 0.0
H2040 H 0.65689 0.85996 0.54308 0.0
H2041 H 0.66273 0.85266 0.55981 0.0
H2042 H 0.67096 0.87376 0.55759 0.0
H2043 H 0.59503 0.83222 0.58313 0.0
H2044 H 0.60571 0.82155 0.5824 0.0
H2045 H 0.59912 0.82594 0.56415 0.0
H2046 H 0.61455 0.88262 0.47335 0.0
H2047 H 0.62901 0.86993 0.46591 0.0
H2048 H 0.58027 0.83398 0.46702 0.0
H2049 H 0.64415 0.85609 0.49291 0.0
H2050 H 0.64939 0.86482 0.47344 0.0
H2051 H 0.64447 0.84448 0.47619 0.0
H2052 H 0.57157 0.80936 0.47916 0.0
H2053 H 0.58421 0.80953 0.49511 0.0
H2054 H 0.58503 0.80208 0.47559 0.0
H2055 H 0.60387 0.73501 0.44976 0.0
H2056 H 0.60567 0.71473 0.46664 0.0
H2057 H 0.60967 0.73191 0.47852 0.0
H2058 H 0.62578 0.72919 0.47226 0.0
H2059 H 0.64857 0.78111 0.46128 0.0
H2060 H 0.59936 0.74882 0.46873 0.0
H2061 H 0.65353 0.8094 0.49041 0.0
H2062 H 0.64888 0.8159 0.47228 0.0
H2063 H 0.6615 0.80728 0.47167 0.0
H2064 H 0.58317 0.75596 0.48285 0.0
H2065 H 0.58904 0.77667 0.48136 0.0
H2066 H 0.59356 0.76969 0.49922 0.0
H2067 H 0.63536 0.82334 0.57858 0.0
H2068 H 0.62238 0.84959 0.53799 0.0
H2069 H 0.61649 0.84538 0.50989 0.0
H2070 H 0.61533 0.80862 0.46989 0.0
H2071 H 0.62626 0.78108 0.51088 0.0
H2072 H 0.63069 0.78445 0.53932 0.0
H2073 H 0.59775 0.89488 0.4717 0.0
H2074 H 0.58712 0.8751 0.47938 0.0
H2075 H 0.5837 0.87863 0.45898 0.0
C2076 C 0.13129 0.74729 0.63528 0.0
C2077 C 0.12194 0.75237 0.62454 0.0
C2078 C 0.13288 0.75994 0.59815 0.0
C2079 C 0.13071 0.77271 0.59446 0.0
C2080 C 0.14102 0.78454 0.58411 0.0
C2081 C 0.15392 0.78367 0.57757 0.0
C2082 C 0.15594 0.77059 0.58112 0.0
C2083 C 0.14515 0.75869 0.59113 0.0
C2084 C 0.13828 0.79811 0.58039 0.0
C2085 C 0.16972 0.76938 0.57473 0.0
C2086 C 0.25252 0.89758 0.62033 0.0
C2087 C 0.24347 0.88114 0.6135 0.0
C2088 C 0.22042 0.86502 0.59611 0.0
C2089 C 0.22365 0.85261 0.59361 0.0
C2090 C 0.21339 0.83914 0.58431 0.0
C2091 C 0.19958 0.83802 0.57748 0.0
C2092 C 0.19631 0.8505 0.57999 0.0
C2093 C 0.20683 0.86387 0.58921 0.0
C2094 C 0.21727 0.82609 0.58176 0.0
C2095 C 0.18165 0.84966 0.57296 0.0
C2096 C 0.22754 0.85869 0.47396 0.0
C2097 C 0.23061 0.84749 0.48112 0.0
C2098 C 0.21881 0.8347 0.48948 0.0
C2099 C 0.20369 0.83316 0.49089 0.0
C2100 C 0.2005 0.84427 0.48353 0.0
C2101 C 0.21246 0.85683 0.47507 0.0
C2102 C 0.22252 0.82289 0.49695 0.0
C2103 C 0.18452 0.84298 0.48478 0.0
C2104 C 0.10695 0.71106 0.47277 0.0
C2105 C 0.11099 0.72768 0.46769 0.0
C2106 C 0.13695 0.75068 0.47374 0.0
C2107 C 0.15216 0.75394 0.4778 0.0
C2108 C 0.16259 0.7678 0.48642 0.0
C2109 C 0.15777 0.77886 0.49071 0.0
C2110 C 0.14262 0.77597 0.48597 0.0
C2111 C 0.13232 0.76186 0.47756 0.0
C2112 C 0.17871 0.77055 0.49111 0.0
C2113 C 0.13733 0.78778 0.48984 0.0
C2114 C 0.1658 0.79692 0.56788 0.0
C2115 C 0.17687 0.81071 0.57608 0.0
C2116 C 0.18844 0.8237 0.5679 0.0
C2117 C 0.18916 0.82295 0.55102 0.0
C2118 C 0.20073 0.83575 0.54242 0.0
C2119 C 0.20138 0.83489 0.52581 0.0
C2120 C 0.19056 0.82116 0.51716 0.0
C2121 C 0.19131 0.82008 0.50029 0.0
C2122 C 0.18034 0.80628 0.49206 0.0
C2123 C 0.16859 0.79337 0.5002 0.0
C2124 C 0.16766 0.79421 0.51708 0.0
C2125 C 0.156 0.78147 0.52568 0.0
C2126 C 0.15522 0.7824 0.54228 0.0
C2127 C 0.16625 0.79599 0.55097 0.0
C2128 C 0.17804 0.80903 0.54253 0.0
C2129 C 0.17872 0.80815 0.52557 0.0
C2130 C 0.26275 0.88494 0.48137 0.0
C2131 C 0.25475 0.87696 0.46536 0.0
O2132 O 0.12339 0.74887 0.60869 0.0
O2133 O 0.1272 0.73678 0.46593 0.0
O2134 O 0.23866 0.87146 0.46599 0.0
O2135 O 0.23001 0.87826 0.60504 0.0
H2136 H 0.12712 0.76542 0.62639 0.0
H2137 H 0.14395 0.75384 0.63204 0.0
H2138 H 0.12688 0.73437 0.6338 0.0
H2139 H 0.13031 0.75002 0.64805 0.0
H2140 H 0.12098 0.77341 0.59977 0.0
H2141 H 0.14662 0.74869 0.59405 0.0
H2142 H 0.14747 0.80906 0.58658 0.0
H2143 H 0.12652 0.79583 0.58437 0.0
H2144 H 0.13928 0.80032 0.56732 0.0
H2145 H 0.17058 0.75945 0.58006 0.0
H2146 H 0.18093 0.78061 0.5772 0.0
H2147 H 0.16843 0.76747 0.56154 0.0
H2148 H 0.24128 0.87154 0.622 0.0
H2149 H 0.25186 0.89609 0.63371 0.0
H2150 H 0.24439 0.90267 0.61996 0.0
H2151 H 0.27384 0.90751 0.60807 0.0
H2152 H 0.23416 0.85335 0.59883 0.0
H2153 H 0.20444 0.87351 0.59118 0.0
H2154 H 0.20788 0.81496 0.58698 0.0
H2155 H 0.22878 0.82901 0.58732 0.0
H2156 H 0.21762 0.82382 0.56873 0.0
H2157 H 0.18055 0.86013 0.57643 0.0
H2158 H 0.17103 0.83877 0.57701 0.0
H2159 H 0.18188 0.8489 0.55969 0.0
H2160 H 0.2568 0.86691 0.4627 0.0
H2161 H 0.24215 0.84862 0.4803 0.0
H2162 H 0.21016 0.86546 0.46947 0.0
H2163 H 0.22198 0.82364 0.51019 0.0
H2164 H 0.23441 0.82499 0.49371 0.0
H2165 H 0.21357 0.81065 0.49309 0.0
H2166 H 0.18409 0.85291 0.47887 0.0
H2167 H 0.18143 0.84285 0.49758 0.0
H2168 H 0.17541 0.83163 0.47913 0.0
H2169 H 0.10688 0.73264 0.47744 0.0
H2170 H 0.09403 0.70352 0.47446 0.0
H2171 H 0.11303 0.71181 0.4843 0.0
H2172 H 0.11082 0.70536 0.46359 0.0
H2173 H 0.15569 0.74535 0.47454 0.0
H2174 H 0.12077 0.75968 0.47384 0.0
H2175 H 0.18063 0.77276 0.50424 0.0
H2176 H 0.18791 0.78126 0.4851 0.0
H2177 H 0.18027 0.76033 0.48776 0.0
H2178 H 0.12572 0.7844 0.48421 0.0
H2179 H 0.14622 0.79972 0.48569 0.0
H2180 H 0.13637 0.78865 0.50301 0.0
H2181 H 0.17646 0.81137 0.58905 0.0
H2182 H 0.20943 0.84658 0.54844 0.0
H2183 H 0.21053 0.84513 0.51985 0.0
H2184 H 0.18106 0.8055 0.47914 0.0
H2185 H 0.14731 0.77062 0.51967 0.0
H2186 H 0.14592 0.77226 0.54824 0.0
H2187 H 0.26071 0.89496 0.48426 0.0
H2188 H 0.27566 0.8895 0.48083 0.0
H2189 H 0.25798 0.87633 0.49122 0.0
C2190 C 0.13553 0.36538 0.6295 0.0
C2191 C 0.12467 0.36617 0.61663 0.0
C2192 C 0.13719 0.36212 0.59284 0.0
C2193 C 0.15033 0.37751 0.59237 0.0
C2194 C 0.16313 0.38085 0.58244 0.0
C2195 C 0.16287 0.36856 0.57292 0.0
C2196 C 0.14951 0.35314 0.57313 0.0
C2197 C 0.13676 0.35021 0.58294 0.0
C2198 C 0.17708 0.39748 0.58231 0.0
C2199 C 0.14887 0.33967 0.56331 0.0
C2200 C 0.27546 0.38943 0.59628 0.0
C2201 C 0.26198 0.37723 0.60647 0.0
C2202 C 0.23835 0.36891 0.58929 0.0
C2203 C 0.2269 0.35635 0.57997 0.0
C2204 C 0.21516 0.35772 0.57167 0.0
C2205 C 0.21501 0.37218 0.57256 0.0
C2206 C 0.22648 0.38495 0.58207 0.0
C2207 C 0.23799 0.38317 0.59044 0.0
C2208 C 0.20294 0.34373 0.56188 0.0
C2209 C 0.22663 0.40051 0.58327 0.0
C2210 C 0.24816 0.39186 0.47082 0.0
C2211 C 0.2366 0.37646 0.47488 0.0
C2212 C 0.22297 0.37378 0.48299 0.0
C2213 C 0.22099 0.38682 0.48728 0.0
C2214 C 0.23242 0.4023 0.48274 0.0
C2215 C 0.24577 0.40457 0.47435 0.0
C2216 C 0.21072 0.35705 0.48705 0.0
C2217 C 0.23065 0.41646 0.48696 0.0
C2218 C 0.11533 0.38713 0.47487 0.0
C2219 C 0.12288 0.38567 0.45937 0.0
C2220 C 0.14131 0.37724 0.46946 0.0
C2221 C 0.14326 0.36409 0.47129 0.0
C2222 C 0.15612 0.36523 0.47997 0.0
C2223 C 0.1674 0.38 0.48685 0.0
C2224 C 0.16572 0.39349 0.48477 0.0
C2225 C 0.15265 0.39198 0.47615 0.0
C2226 C 0.15756 0.35061 0.48193 0.0
C2227 C 0.17768 0.40944 0.49181 0.0
C2228 C 0.17692 0.37163 0.56346 0.0
C2229 C 0.18931 0.37128 0.57151 0.0
C2230 C 0.20286 0.37387 0.56346 0.0
C2231 C 0.20427 0.37711 0.54691 0.0
C2232 C 0.21793 0.38022 0.53854 0.0
C2233 C 0.21899 0.38284 0.52214 0.0
C2234 C 0.20636 0.3823 0.51345 0.0
C2235 C 0.20707 0.38432 0.49666 0.0
C2236 C 0.1943 0.38372 0.48841 0.0
C2237 C 0.18078 0.38121 0.49648 0.0
C2238 C 0.17987 0.37925 0.51327 0.0
C2239 C 0.16647 0.37679 0.52177 0.0
C2240 C 0.16558 0.37458 0.53825 0.0
C2241 C 0.17794 0.37446 0.54682 0.0
C2242 C 0.19165 0.37714 0.53852 0.0
C2243 C 0.19266 0.37964 0.52174 0.0
C2244 C 0.28619 0.40145 0.4753 0.0
C2245 C 0.27104 0.38847 0.46725 0.0
O2246 O 0.12482 0.35818 0.60276 0.0
O2247 O 0.12829 0.37504 0.46125 0.0
O2248 O 0.26154 0.39477 0.46321 0.0
O2249 O 0.24947 0.36667 0.59674 0.0
H2250 H 0.12871 0.37877 0.61391 0.0
H2251 H 0.14791 0.37123 0.62538 0.0
H2252 H 0.13171 0.35284 0.6322 0.0
H2253 H 0.1353 0.37159 0.64069 0.0
H2254 H 0.15074 0.38694 0.59974 0.0
H2255 H 0.12653 0.33841 0.58329 0.0
H2256 H 0.18746 0.39759 0.58789 0.0
H2257 H 0.17477 0.40607 0.58897 0.0
H2258 H 0.18016 0.40146 0.56979 0.0
H2259 H 0.13806 0.32818 0.56558 0.0
H2260 H 0.15937 0.33851 0.56604 0.0
H2261 H 0.14915 0.34224 0.55037 0.0
H2262 H 0.25797 0.38346 0.61487 0.0
H2263 H 0.28557 0.39771 0.6041 0.0
H2264 H 0.27156 0.39653 0.58936 0.0
H2265 H 0.27951 0.38342 0.58769 0.0
H2266 H 0.22722 0.34538 0.57921 0.0
H2267 H 0.24668 0.39299 0.5977 0.0
H2268 H 0.20452 0.34664 0.54898 0.0
H2269 H 0.1909 0.34115 0.56514 0.0
H2270 H 0.20381 0.3329 0.56363 0.0
H2271 H 0.2369 0.40963 0.59035 0.0
H2272 H 0.21564 0.39862 0.58903 0.0
H2273 H 0.22691 0.40507 0.57109 0.0
H2274 H 0.26511 0.37883 0.47606 0.0
H2275 H 0.23814 0.36652 0.47155 0.0
H2276 H 0.25465 0.41637 0.47089 0.0
H2277 H 0.21062 0.35559 0.50021 0.0
H2278 H 0.21306 0.3481 0.48121 0.0
H2279 H 0.19879 0.35463 0.48331 0.0
H2280 H 0.2411 0.42781 0.48353 0.0
H2281 H 0.22883 0.41686 0.50004 0.0
H2282 H 0.22007 0.41533 0.48072 0.0
H2283 H 0.13287 0.39748 0.4562 0.0
H2284 H 0.12412 0.39172 0.48485 0.0
H2285 H 0.11085 0.39552 0.47332 0.0
H2286 H 0.10538 0.37538 0.47823 0.0
H2287 H 0.1345 0.3528 0.46604 0.0
H2288 H 0.15141 0.40233 0.47478 0.0
H2289 H 0.15794 0.34831 0.49487 0.0
H2290 H 0.16877 0.35258 0.47664 0.0
H2291 H 0.1476 0.33993 0.4761 0.0
H2292 H 0.17514 0.41896 0.48848 0.0
H2293 H 0.18967 0.41268 0.48767 0.0
H2294 H 0.17777 0.4088 0.50508 0.0
H2295 H 0.18831 0.36873 0.5842 0.0
H2296 H 0.22795 0.38061 0.54457 0.0
H2297 H 0.22978 0.38513 0.51635 0.0
H2298 H 0.19484 0.38509 0.47552 0.0
H2299 H 0.1565 0.37653 0.51578 0.0
H2300 H 0.155 0.37276 0.54416 0.0
H2301 H 0.29268 0.41151 0.4671 0.0
H2302 H 0.29396 0.39666 0.47878 0.0
H2303 H 0.28324 0.40595 0.4863 0.0
H2304 H 0.01769 0.37583 0.05776 0.0
H2305 H 0.9705 0.35823 0.03888 0.0
H2306 H 0.01232 0.38922 0.07961 0.0
H2307 H 0.96532 0.37217 0.06033 0.0
H2308 H 0.95595 0.38743 0.10883 0.0
H2309 H 0.96095 0.3727 0.08801 0.0
H2310 H 0.00907 0.41122 0.0849 0.0
H2311 H 0.00422 0.42547 0.10628 0.0
C2312 C 0.00617 0.37485 0.05826 0.0
C2313 C 0.99453 0.36597 0.04657 0.0
C2314 C 0.00313 0.38265 0.07072 0.0
C2315 C 0.98842 0.38193 0.07172 0.0
C2316 C 0.97671 0.37284 0.06012 0.0
C2317 C 0.9797 0.36488 0.04776 0.0
C2318 C 0.96755 0.39274 0.10359 0.0
C2319 C 0.97955 0.40776 0.10892 0.0
C2320 C 0.97043 0.38435 0.09161 0.0
C2321 C 0.98539 0.39078 0.08464 0.0
C2322 C 0.99744 0.40578 0.09009 0.0
C2323 C 0.99461 0.41408 0.10221 0.0
H2324 H 0.63024 0.6279 0.06892 0.0
H2325 H 0.6387 0.59628 0.03915 0.0
H2326 H 0.61914 0.6079 0.08937 0.0
H2327 H 0.62692 0.57589 0.05938 0.0
H2328 H 0.58398 0.56406 0.1147 0.0
H2329 H 0.59617 0.58375 0.0941 0.0
H2330 H 0.6298 0.56802 0.08546 0.0
H2331 H 0.61697 0.54769 0.10562 0.0
C2332 C 0.62967 0.61663 0.06672 0.0
C2333 C 0.63527 0.61364 0.05237 0.0
C2334 C 0.62318 0.60508 0.07841 0.0
C2335 C 0.62188 0.59014 0.07597 0.0
C2336 C 0.62783 0.58729 0.06175 0.0
C2337 C 0.63454 0.59895 0.05011 0.0
C2338 C 0.59379 0.5646 0.10821 0.0
C2339 C 0.59926 0.55403 0.11149 0.0
C2340 C 0.60096 0.57608 0.09653 0.0
C2341 C 0.61405 0.57757 0.0881 0.0
C2342 C 0.6196 0.56707 0.09149 0.0
C2343 C 0.61229 0.55545 0.10307 0.0
H2344 H 0.39627 0.03284 0.03944 0.0
H2345 H 0.35751 0.99313 0.06238 0.0
H2346 H 0.41368 0.03569 0.06211 0.0
H2347 H 0.3748 0.99639 0.08519 0.0
H2348 H 0.4117 0.02237 0.12849 0.0
H2349 H 0.39505 0.02323 0.1069 0.0
H2350 H 0.4195 0.01015 0.0725 0.0
H2351 H 0.43562 0.00851 0.09392 0.0
C2352 C 0.3914 0.02499 0.04948 0.0
C2353 C 0.37558 0.01275 0.04918 0.0
C2354 C 0.40135 0.02659 0.06235 0.0
C2355 C 0.39548 0.01626 0.07528 0.0
C2356 C 0.37951 0.00452 0.07535 0.0
C2357 C 0.36967 0.00266 0.06232 0.0
C2358 C 0.41353 0.0197 0.11632 0.0
C2359 C 0.42495 0.0153 0.11303 0.0
C2360 C 0.40407 0.02025 0.10402 0.0
C2361 C 0.40616 0.01686 0.08815 0.0
C2362 C 0.41784 0.01296 0.08469 0.0
C2363 C 0.42704 0.01201 0.09701 0.0
H2364 H 0.36751 0.97227 0.97832 0.0
H2365 H 0.36943 0.01183 0.95358 0.0
H2366 H 0.38335 0.9694 0.95719 0.0
H2367 H 0.38476 0.00856 0.93227 0.0
H2368 H 0.39799 0.98271 0.89117 0.0
H2369 H 0.37946 0.98184 0.91134 0.0
H2370 H 0.41507 0.99469 0.9482 0.0
H2371 H 0.43386 0.99631 0.92813 0.0
C2372 C 0.37099 0.98008 0.96819 0.0
C2373 C 0.36728 0.99227 0.96755 0.0
C2374 C 0.38008 0.97848 0.9562 0.0
C2375 C 0.38519 0.98877 0.9432 0.0
C2376 C 0.38086 0.00046 0.94217 0.0
C2377 C 0.37214 0.00233 0.95435 0.0
C2378 C 0.40183 0.98525 0.90359 0.0
C2379 C 0.4174 0.98953 0.90798 0.0
C2380 C 0.39124 0.98473 0.91508 0.0
C2381 C 0.39589 0.98809 0.93123 0.0
C2382 C 0.41123 0.99189 0.93578 0.0
C2383 C 0.42196 0.99281 0.92426 0.0
H2384 H 0.03381 0.39333 0.97609 0.0
H2385 H 0.99425 0.35406 0.95163 0.0
H2386 H 0.03577 0.41084 0.9543 0.0
H2387 H 0.99661 0.37149 0.92967 0.0
H2388 H 0.02045 0.40918 0.88804 0.0
H2389 H 0.022 0.39222 0.90855 0.0
H2390 H 0.01032 0.41651 0.94482 0.0
H2391 H 0.00799 0.43295 0.92446 0.0
C2392 C 0.02582 0.38837 0.96588 0.0
C2393 C 0.01387 0.37236 0.96553 0.0
C2394 C 0.0269 0.39838 0.95351 0.0
C2395 C 0.01634 0.39243 0.94042 0.0
C2396 C 0.00492 0.37628 0.93965 0.0
C2397 C 0.00358 0.36635 0.95219 0.0
C2398 C 0.01823 0.41091 0.9004 0.0
C2399 C 0.01405 0.4224 0.90452 0.0
C2400 C 0.01916 0.40125 0.91207 0.0
C2401 C 0.01637 0.40321 0.92817 0.0
C2402 C 0.01267 0.41495 0.93246 0.0
C2403 C 0.01133 0.42434 0.92075 0.0
H2404 H 0.60245 0.64038 0.99 0.0
H2405 H 0.63486 0.63342 0.96074 0.0
H2406 H 0.58386 0.63209 0.9675 0.0
H2407 H 0.61675 0.62596 0.938 0.0
H2408 H 0.57451 0.59591 0.90599 0.0
H2409 H 0.59305 0.60505 0.92837 0.0
H2410 H 0.57802 0.63841 0.94231 0.0
H2411 H 0.55865 0.62842 0.92035 0.0
C2412 C 0.6057 0.63732 0.97867 0.0
C2413 C 0.62005 0.63743 0.97717 0.0
C2414 C 0.59508 0.63264 0.96571 0.0
C2415 C 0.59869 0.62821 0.95088 0.0
C2416 C 0.61333 0.62887 0.94931 0.0
C2417 C 0.6238 0.63327 0.96232 0.0
C2418 C 0.57497 0.60503 0.91395 0.0
C2419 C 0.56478 0.61115 0.91165 0.0
C2420 C 0.58582 0.61047 0.9267 0.0
C2421 C 0.58711 0.62251 0.93724 0.0
C2422 C 0.57717 0.6289 0.93468 0.0
C2423 C 0.56613 0.62326 0.92206 0.0
H2424 H 0.98834 0.63181 0.95994 0.0
H2425 H 0.03275 0.63936 0.97903 0.0
H2426 H 0.99118 0.61834 0.93655 0.0
H2427 H 0.0353 0.62516 0.95594 0.0
H2428 H 0.04124 0.61 0.9055 0.0
H2429 H 0.03982 0.62533 0.92818 0.0
H2430 H 0.98929 0.59404 0.92954 0.0
H2431 H 0.9907 0.57939 0.90635 0.0
C2432 C 0.99871 0.63054 0.95914 0.0
C2433 C 0.01028 0.63658 0.97135 0.0
C2434 C 1.00029 0.62268 0.94578 0.0
C2435 C 0.01336 0.6204 0.94441 0.0
C2436 C 0.02515 0.6268 0.95648 0.0
C2437 C 0.02367 0.63491 0.96976 0.0
C2438 C 0.02983 0.60655 0.91057 0.0
C2439 C 0.01603 0.59373 0.90391 0.0
C2440 C 0.02902 0.61523 0.92368 0.0
C2441 C 0.01441 0.61109 0.93062 0.0
C2442 C 0.0007 0.5979 0.92425 0.0
C2443 C 0.0015 0.58939 0.91103 0.0
H2444 H 0.38457 0.3861 0.96252 0.0
H2445 H 0.35442 0.40294 0.98154 0.0
H2446 H 0.39581 0.40801 0.94404 0.0
H2447 H 0.36584 0.42501 0.96305 0.0
H2448 H 0.38224 0.45577 0.91774 0.0
H2449 H 0.36852 0.43194 0.93394 0.0
H2450 H 0.4134 0.43699 0.94799 0.0
H2451 H 0.42699 0.46063 0.93191 0.0
C2452 C 0.38023 0.39439 0.96269 0.0
C2453 C 0.36868 0.39283 0.97363 0.0
C2454 C 0.38674 0.407 0.95213 0.0
C2455 C 0.38182 0.41831 0.95221 0.0
C2456 C 0.36981 0.41642 0.96266 0.0
C2457 C 0.36333 0.40382 0.9733 0.0
C2458 C 0.3891 0.45163 0.92417 0.0
C2459 C 0.40565 0.45981 0.92324 0.0
C2460 C 0.38128 0.43809 0.9335 0.0
C2461 C 0.38988 0.4325 0.94207 0.0
C2462 C 0.40642 0.44079 0.94124 0.0
C2463 C 0.41421 0.45434 0.93205 0.0
H2464 H 0.61929 0.9664 0.97252 0.0
H2465 H 0.63774 0.01682 0.96834 0.0
H2466 H 0.6027 0.96158 0.94879 0.0
H2467 H 0.62088 0.01198 0.94499 0.0
H2468 H 0.60024 0.99904 0.89438 0.0
H2469 H 0.61745 0.00352 0.91749 0.0
H2470 H 0.57976 0.96263 0.94019 0.0
H2471 H 0.56278 0.9579 0.91679 0.0
C2472 C 0.61981 0.97645 0.96655 0.0
C2473 C 0.62986 0.99199 0.97234 0.0
C2474 C 0.61021 0.97368 0.95302 0.0
C2475 C 0.6104 0.98638 0.94498 0.0
C2476 C 0.62057 0.00192 0.95071 0.0
C2477 C 0.6302 0.00469 0.96418 0.0
C2478 C 0.59563 0.99111 0.90439 0.0
C2479 C 0.58006 0.97835 0.90395 0.0
C2480 C 0.60546 0.99368 0.91765 0.0
C2481 C 0.59997 0.9835 0.93077 0.0
C2482 C 0.58443 0.97062 0.93025 0.0
C2483 C 0.57462 0.96802 0.91694 0.0
H2484 H 0.65946 0.03622 0.05966 0.0
H2485 H 0.61524 0.99307 0.05044 0.0
H2486 H 0.64707 0.04349 0.08116 0.0
H2487 H 0.60287 0.00062 0.07156 0.0
H2488 H 0.58633 0.03492 0.09487 0.0
H2489 H 0.59882 0.02695 0.07438 0.0
H2490 H 0.63203 0.02846 0.10952 0.0
H2491 H 0.61915 0.03577 0.13036 0.0
C2492 C 0.64713 0.02831 0.06223 0.0
C2493 C 0.63833 0.01407 0.05341 0.0
C2494 C 0.64009 0.03245 0.07451 0.0
C2495 C 0.62405 0.02261 0.07789 0.0
C2496 C 0.61524 0.0084 0.0691 0.0
C2497 C 0.62236 0.00407 0.0571 0.0
C2498 C 0.59622 0.0335 0.09836 0.0
C2499 C 0.60182 0.03615 0.11434 0.0
C2500 C 0.60335 0.02893 0.08657 0.0
C2501 C 0.61641 0.02722 0.09042 0.0
C2502 C 0.62206 0.02986 0.10628 0.0
C2503 C 0.6147 0.03405 0.11815 0.0
H2504 H 0.96429 0.61552 0.05043 0.0
H2505 H 0.01402 0.63331 0.05903 0.0
H2506 H 0.95802 0.5976 0.07284 0.0
H2507 H 0.00775 0.61521 0.08106 0.0
H2508 H 0.95293 0.55558 0.102 0.0
H2509 H 0.95879 0.57391 0.08002 0.0
H2510 H 0.99754 0.61073 0.10781 0.0
H2511 H 0.9919 0.59225 0.12954 0.0
C2512 C 0.97388 0.61563 0.05709 0.0
C2513 C 0.98965 0.62587 0.05293 0.0
C2514 C 0.97028 0.60528 0.06986 0.0
C2515 C 0.98239 0.60495 0.07873 0.0
C2516 C 0.99815 0.6153 0.07464 0.0
C2517 C 0.00173 0.62564 0.06192 0.0
C2518 C 0.96281 0.56754 0.10329 0.0
C2519 C 0.97222 0.57239 0.1173 0.0
C2520 C 0.96606 0.5781 0.09079 0.0
C2521 C 0.97869 0.59378 0.09212 0.0
C2522 C 0.98792 0.59866 0.10626 0.0
C2523 C 0.98469 0.5881 0.11872 0.0
H2524 H 0.40255 0.36823 0.03781 0.0
H2525 H 0.36822 0.3744 0.06452 0.0
H2526 H 0.4201 0.37704 0.06124 0.0
H2527 H 0.38531 0.38244 0.0881 0.0
H2528 H 0.42417 0.41059 0.12375 0.0
H2529 H 0.40854 0.40338 0.09907 0.0
H2530 H 0.42419 0.37012 0.0869 0.0
H2531 H 0.44058 0.37814 0.11114 0.0
C2532 C 0.39868 0.37129 0.04875 0.0
C2533 C 0.38403 0.37069 0.04929 0.0
C2534 C 0.40872 0.37629 0.06222 0.0
C2535 C 0.40422 0.38058 0.07662 0.0
C2536 C 0.3894 0.37964 0.07717 0.0
C2537 C 0.3795 0.37489 0.06366 0.0
C2538 C 0.42433 0.40181 0.11574 0.0
C2539 C 0.4333 0.39466 0.11957 0.0
C2540 C 0.41525 0.39755 0.10164 0.0
C2541 C 0.4148 0.3859 0.09107 0.0
C2542 C 0.42425 0.37916 0.09466 0.0
C2543 C 0.43352 0.38362 0.10866 0.0
H2544 H 0.62798 0.69526 0.36432 0.0
H2545 H 0.66671 0.70233 0.39509 0.0
H2546 H 0.61819 0.70537 0.3856 0.0
H2547 H 0.65663 0.71182 0.41655 0.0
H2548 H 0.59757 0.71236 0.43204 0.0
H2549 H 0.60625 0.70065 0.41119 0.0
H2550 H 0.65485 0.7344 0.42346 0.0
H2551 H 0.64613 0.7455 0.4447 0.0
C2552 C 0.63425 0.69871 0.37572 0.0
C2553 C 0.64818 0.6981 0.37796 0.0
C2554 C 0.62861 0.70447 0.38796 0.0
C2555 C 0.63669 0.7096 0.40279 0.0
C2556 C 0.6503 0.70838 0.40518 0.0
C2557 C 0.65602 0.7028 0.3929 0.0
C2558 C 0.6101 0.7173 0.43016 0.0
C2559 C 0.62114 0.73008 0.43975 0.0
C2560 C 0.61509 0.71063 0.41819 0.0
C2561 C 0.63127 0.71658 0.41556 0.0
C2562 C 0.6423 0.72933 0.42525 0.0
C2563 C 0.63731 0.73588 0.4373 0.0
H2564 H 0.29293 0.96174 0.4074 0.0
H2565 H 0.30207 0.92944 0.37959 0.0
H2566 H 0.28134 0.94219 0.42827 0.0
H2567 H 0.28992 0.90961 0.40021 0.0
H2568 H 0.24615 0.89828 0.45433 0.0
H2569 H 0.25845 0.91778 0.43348 0.0
H2570 H 0.29308 0.90302 0.42674 0.0
H2571 H 0.28024 0.883 0.44714 0.0
C2572 C 0.29243 0.95044 0.40572 0.0
C2573 C 0.29841 0.94715 0.39181 0.0
C2574 C 0.28566 0.93916 0.41765 0.0
C2575 C 0.28454 0.92423 0.41591 0.0
C2576 C 0.29074 0.92104 0.40207 0.0
C2577 C 0.29765 0.93239 0.3902 0.0
C2578 C 0.25622 0.89902 0.4482 0.0
C2579 C 0.26197 0.8888 0.45205 0.0
C2580 C 0.26343 0.91036 0.43639 0.0
C2581 C 0.27677 0.912 0.42837 0.0
C2582 C 0.28265 0.90191 0.43241 0.0
C2583 C 0.27534 0.89046 0.44412 0.0
H2584 H 0.03927 0.33315 0.39777 0.0
H2585 H 0.07144 0.37291 0.36949 0.0
H2586 H 0.05794 0.34331 0.42019 0.0
H2587 H 0.09043 0.38275 0.39165 0.0
H2588 H 0.11634 0.4035 0.43901 0.0
H2589 H 0.09636 0.39447 0.41767 0.0
H2590 H 0.0822 0.34581 0.42809 0.0
H2591 H 0.10156 0.35486 0.44984 0.0
C2592 C 0.05035 0.34405 0.39633 0.0
C2593 C 0.05388 0.35219 0.38183 0.0
C2594 C 0.06113 0.34984 0.40915 0.0
C2595 C 0.0758 0.36379 0.40773 0.0
C2596 C 0.07919 0.37209 0.3933 0.0
C2597 C 0.06832 0.3664 0.38053 0.0
C2598 C 0.10897 0.39088 0.43664 0.0
C2599 C 0.11081 0.37992 0.44581 0.0
C2600 C 0.09755 0.38569 0.42439 0.0
C2601 C 0.0877 0.3694 0.42104 0.0
C2602 C 0.08942 0.35844 0.4304 0.0
C2603 C 0.1007 0.36363 0.44275 0.0
H2604 H 0.02219 0.28664 0.31498 0.0
H2605 H 0.05504 0.33319 0.29754 0.0
H2606 H 0.03341 0.27498 0.29692 0.0
H2607 H 0.06609 0.32149 0.27952 0.0
H2608 H 0.10182 0.3019 0.25925 0.0
H2609 H 0.08619 0.31361 0.28002 0.0
H2610 H 0.03408 0.264 0.27065 0.0
H2611 H 0.04838 0.25103 0.24959 0.0
C2612 C 0.03168 0.29436 0.3072 0.0
C2613 C 0.03777 0.31086 0.30779 0.0
C2614 C 0.03805 0.28767 0.29679 0.0
C2615 C 0.05071 0.29736 0.28694 0.0
C2616 C 0.05652 0.31376 0.28721 0.0
C2617 C 0.05008 0.32044 0.29746 0.0
C2618 C 0.08942 0.29466 0.26188 0.0
C2619 C 0.07612 0.2764 0.24995 0.0
C2620 C 0.07942 0.30213 0.27415 0.0
C2621 C 0.0583 0.29059 0.27684 0.0
C2622 C 0.04659 0.27077 0.26839 0.0
C2623 C 0.0555 0.26224 0.25587 0.0
H2624 H 0.70428 0.74016 0.32144 0.0
H2625 H 0.67459 0.70625 0.2849 0.0
H2626 H 0.71488 0.76104 0.30153 0.0
H2627 H 0.68561 0.72711 0.26489 0.0
H2628 H 0.72266 0.76662 0.2234 0.0
H2629 H 0.71148 0.74272 0.24777 0.0
H2630 H 0.70734 0.77964 0.2874 0.0
H2631 H 0.71857 0.80459 0.26417 0.0
C2632 C 0.70014 0.73716 0.30912 0.0
C2633 C 0.68862 0.7216 0.30469 0.0
C2634 C 0.70611 0.74911 0.29778 0.0
C2635 C 0.70099 0.74562 0.28175 0.0
C2636 C 0.68977 0.73003 0.2772 0.0
C2637 C 0.68344 0.71815 0.28863 0.0
C2638 C 0.72061 0.7693 0.23548 0.0
C2639 C 0.71909 0.78721 0.24043 0.0
C2640 C 0.71284 0.75425 0.25046 0.0
C2641 C 0.70729 0.75823 0.26985 0.0
C2642 C 0.71026 0.77755 0.27548 0.0
C2643 C 0.7179 0.79338 0.26136 0.0
H2644 H 0.29888 0.96575 0.2995 0.0
H2645 H 0.26833 0.97554 0.32876 0.0
H2646 H 0.28046 0.95841 0.27708 0.0
H2647 H 0.2494 0.96741 0.30654 0.0
H2648 H 0.22393 0.96336 0.25922 0.0
H2649 H 0.24358 0.97331 0.28095 0.0
H2650 H 0.25603 0.93766 0.26858 0.0
H2651 H 0.23718 0.92846 0.24645 0.0
C2652 C 0.28817 0.96627 0.30115 0.0
C2653 C 0.28501 0.97114 0.31592 0.0
C2654 C 0.27751 0.96194 0.28831 0.0
C2655 C 0.26327 0.96207 0.29 0.0
C2656 C 0.2603 0.96731 0.3047 0.0
C2657 C 0.27111 0.97191 0.31749 0.0
C2658 C 0.23088 0.95767 0.26125 0.0
C2659 C 0.22873 0.94491 0.25136 0.0
C2660 C 0.24209 0.96331 0.27373 0.0
C2661 C 0.25141 0.95628 0.27662 0.0
C2662 C 0.24929 0.94356 0.26663 0.0
C2663 C 0.23827 0.9381 0.25404 0.0
H2664 H 0.66431 0.94306 0.29527 0.0
H2665 H 0.71087 0.97399 0.31534 0.0
H2666 H 0.6759 0.936 0.27315 0.0
H2667 H 0.72247 0.96722 0.29298 0.0
H2668 H 0.73789 0.94142 0.25822 0.0
H2669 H 0.72526 0.94588 0.28133 0.0
H2670 H 0.69124 0.94795 0.24967 0.0
H2671 H 0.70365 0.94306 0.2267 0.0
C2672 C 0.67702 0.9484 0.29495 0.0
C2673 C 0.68666 0.95913 0.30708 0.0
C2674 C 0.68367 0.94439 0.28222 0.0
C2675 C 0.70012 0.95106 0.28126 0.0
C2676 C 0.70975 0.96169 0.29346 0.0
C2677 C 0.70309 0.96566 0.30623 0.0
C2678 C 0.72753 0.94253 0.25628 0.0
C2679 C 0.72156 0.94161 0.2407 0.0
C2680 C 0.7204 0.94527 0.26948 0.0
C2681 C 0.70723 0.94729 0.26736 0.0
C2682 C 0.70119 0.94619 0.25178 0.0
C2683 C 0.7083 0.94342 0.2386 0.0
H2684 H 0.05582 0.72329 0.29345 0.0
H2685 H 0.02422 0.73947 0.30962 0.0
H2686 H 0.06471 0.74243 0.27207 0.0
H2687 H 0.03282 0.75835 0.28791 0.0
H2688 H 0.06291 0.80101 0.25692 0.0
H2689 H 0.05507 0.78254 0.27902 0.0
H2690 H 0.05568 0.74735 0.24727 0.0
H2691 H 0.06401 0.76603 0.22539 0.0
C2692 C 0.05067 0.73085 0.29238 0.0
C2693 C 0.03928 0.72982 0.30326 0.0
C2694 C 0.05573 0.74179 0.28006 0.0
C2695 C 0.04949 0.75194 0.27823 0.0
C2696 C 0.03806 0.75089 0.2891 0.0
C2697 C 0.03304 0.73998 0.30148 0.0
C2698 C 0.06162 0.78942 0.25478 0.0
C2699 C 0.06444 0.78508 0.23953 0.0
C2700 C 0.05694 0.77876 0.26737 0.0
C2701 C 0.05477 0.76345 0.26495 0.0
C2702 C 0.05753 0.75913 0.24966 0.0
C2703 C 0.06227 0.7698 0.23711 0.0
H2704 H 0.28949 0.34507 0.29824 0.0
H2705 H 0.27292 0.29628 0.31031 0.0
H2706 H 0.27095 0.33629 0.27577 0.0
H2707 H 0.25467 0.28746 0.28746 0.0
H2708 H 0.21291 0.27717 0.25478 0.0
H2709 H 0.2309 0.28615 0.2779 0.0
H2710 H 0.26643 0.32397 0.24989 0.0
H2711 H 0.2482 0.31529 0.22703 0.0
C2712 C 0.28198 0.33245 0.29603 0.0
C2713 C 0.28272 0.32138 0.3061 0.0
C2714 C 0.27138 0.3274 0.28307 0.0
C2715 C 0.2613 0.31115 0.27975 0.0
C2716 C 0.26207 0.30007 0.28979 0.0
C2717 C 0.27263 0.30512 0.30283 0.0
C2718 C 0.22447 0.28756 0.25369 0.0
C2719 C 0.22901 0.2958 0.23923 0.0
C2720 C 0.23487 0.2926 0.26686 0.0
C2721 C 0.25012 0.30584 0.26581 0.0
C2722 C 0.25468 0.31394 0.25127 0.0
C2723 C 0.24426 0.30896 0.23814 0.0
H2724 H 0.31566 0.37931 0.38068 0.0
H2725 H 0.28347 0.33087 0.39357 0.0
H2726 H 0.30706 0.38872 0.40361 0.0
H2727 H 0.27455 0.34026 0.41617 0.0
H2728 H 0.2771 0.40035 0.43666 0.0
H2729 H 0.28499 0.39056 0.41341 0.0
H2730 H 0.28327 0.35302 0.44188 0.0
H2731 H 0.27487 0.36254 0.4649 0.0
C2732 C 0.30671 0.37066 0.38836 0.0
C2733 C 0.30029 0.35433 0.38529 0.0
C2734 C 0.30168 0.37606 0.40145 0.0
C2735 C 0.29008 0.36526 0.41175 0.0
C2736 C 0.28367 0.34893 0.40865 0.0
C2737 C 0.28874 0.34353 0.39562 0.0
C2738 C 0.27815 0.38985 0.43783 0.0
C2739 C 0.27499 0.38197 0.45248 0.0
C2740 C 0.28286 0.38435 0.42458 0.0
C2741 C 0.28475 0.37097 0.42573 0.0
C2742 C 0.28165 0.36316 0.44044 0.0
C2743 C 0.27687 0.36862 0.45365 0.0
H2744 H 0.66971 0.94716 0.39373 0.0
H2745 H 0.62269 0.93071 0.3749 0.0
H2746 H 0.65871 0.92896 0.41585 0.0
H2747 H 0.61166 0.91287 0.3973 0.0
H2748 H 0.59705 0.87218 0.43127 0.0
H2749 H 0.60903 0.88912 0.40831 0.0
H2750 H 0.64408 0.92546 0.4398 0.0
H2751 H 0.63239 0.90824 0.4626 0.0
C2752 C 0.65701 0.93972 0.39435 0.0
C2753 C 0.64708 0.94041 0.38254 0.0
C2754 C 0.6507 0.92933 0.40709 0.0
C2755 C 0.63429 0.91943 0.40839 0.0
C2756 C 0.62436 0.92012 0.39655 0.0
C2757 C 0.63068 0.93045 0.38375 0.0
C2758 C 0.60751 0.88366 0.4332 0.0
C2759 C 0.61401 0.88878 0.44867 0.0
C2760 C 0.61426 0.89346 0.42009 0.0
C2761 C 0.62753 0.90868 0.42219 0.0
C2762 C 0.63406 0.91372 0.43768 0.0
C2763 C 0.62735 0.90389 0.45075 0.0
H2764 H 0.04874 0.72652 0.39101 0.0
H2765 H 0.06519 0.69502 0.37458 0.0
H2766 H 0.06558 0.73329 0.4148 0.0
H2767 H 0.08166 0.70142 0.3986 0.0
H2768 H 0.11979 0.7259 0.43668 0.0
H2769 H 0.10473 0.72193 0.41194 0.0
H2770 H 0.06714 0.72162 0.43925 0.0
H2771 H 0.0825 0.72615 0.46385 0.0
C2772 C 0.05591 0.72099 0.39249 0.0
C2773 C 0.05558 0.7102 0.38089 0.0
C2774 C 0.06552 0.72482 0.40618 0.0
C2775 C 0.07497 0.71789 0.40866 0.0
C2776 C 0.07473 0.70719 0.39698 0.0
C2777 C 0.06519 0.70342 0.38324 0.0
C2778 C 0.10845 0.72531 0.43732 0.0
C2779 C 0.10245 0.72668 0.45216 0.0
C2780 C 0.09972 0.72284 0.42318 0.0
C2781 C 0.08469 0.72144 0.42357 0.0
C2782 C 0.07878 0.72293 0.43843 0.0
C2783 C 0.08754 0.72548 0.45254 0.0
H2784 H 0.28953 0.02606 0.69701 0.0
H2785 H 0.33047 0.03613 0.72575 0.0
H2786 H 0.27998 0.03594 0.71877 0.0
H2787 H 0.32067 0.04532 0.7477 0.0
H2788 H 0.26108 0.04351 0.76611 0.0
H2789 H 0.2694 0.03172 0.74497 0.0
H2790 H 0.31805 0.06734 0.7545 0.0
H2791 H 0.30976 0.07848 0.77603 0.0
C2792 C 0.29635 0.03012 0.70808 0.0
C2793 C 0.31082 0.03045 0.70961 0.0
C2794 C 0.29085 0.03574 0.72059 0.0
C2795 C 0.29964 0.04163 0.73497 0.0
C2796 C 0.31379 0.0413 0.73667 0.0
C2797 C 0.31936 0.0359 0.72412 0.0
C2798 C 0.27353 0.04881 0.76357 0.0
C2799 C 0.28471 0.06213 0.77247 0.0
C2800 C 0.27832 0.04211 0.75144 0.0
C2801 C 0.29441 0.04858 0.74795 0.0
C2802 C 0.30557 0.06186 0.75696 0.0
C2803 C 0.30081 0.06842 0.76918 0.0
H2804 H 0.97107 0.26062 0.7027 0.0
H2805 H 0.96046 0.29193 0.73038 0.0
H2806 H 0.9598 0.24089 0.72358 0.0
H2807 H 0.94987 0.27261 0.7515 0.0
H2808 H 0.91639 0.22909 0.77847 0.0
H2809 H 0.92774 0.24809 0.75713 0.0
H2810 H 0.96319 0.23448 0.75004 0.0
H2811 H 0.9512 0.2148 0.77092 0.0
C2812 C 0.96653 0.26337 0.71335 0.0
C2813 C 0.96656 0.27778 0.71484 0.0
C2814 C 0.96012 0.25209 0.72536 0.0
C2815 C 0.95377 0.25505 0.73921 0.0
C2816 C 0.95426 0.2697 0.74085 0.0
C2817 C 0.96046 0.28086 0.72878 0.0
C2818 C 0.92643 0.22994 0.77216 0.0
C2819 C 0.93266 0.22014 0.77609 0.0
C2820 C 0.93311 0.24103 0.76005 0.0
C2821 C 0.94644 0.2429 0.75182 0.0
C2822 C 0.95277 0.23319 0.75588 0.0
C2823 C 0.94595 0.22195 0.76787 0.0
H2824 H 0.701 0.6648 0.729 0.0
H2825 H 0.73121 0.70646 0.70198 0.0
H2826 H 0.71997 0.67483 0.75115 0.0
H2827 H 0.75057 0.7162 0.72383 0.0
H2828 H 0.77652 0.73598 0.77142 0.0
H2829 H 0.75646 0.72688 0.75017 0.0
H2830 H 0.74472 0.67846 0.7584 0.0
H2831 H 0.76409 0.68753 0.78012 0.0
C2832 C 0.71174 0.67609 0.72777 0.0
C2833 C 0.71462 0.68482 0.71372 0.0
C2834 C 0.7227 0.6818 0.74044 0.0
C2835 C 0.73693 0.69627 0.73928 0.0
C2836 C 0.73968 0.70511 0.72528 0.0
C2837 C 0.7286 0.6995 0.71269 0.0
C2838 C 0.76966 0.72341 0.76859 0.0
C2839 C 0.77216 0.71254 0.77717 0.0
C2840 C 0.75821 0.71817 0.75637 0.0
C2841 C 0.74898 0.70192 0.75245 0.0
C2842 C 0.75142 0.69105 0.76118 0.0
C2843 C 0.76271 0.69626 0.77351 0.0
H2844 H 0.6945 0.62766 0.64784 0.0
H2845 H 0.70272 0.66848 0.62076 0.0
H2846 H 0.70568 0.61936 0.62627 0.0
H2847 H 0.71322 0.65988 0.59894 0.0
H2848 H 0.74732 0.65103 0.57063 0.0
H2849 H 0.73573 0.65846 0.59236 0.0
H2850 H 0.70207 0.60899 0.59978 0.0
H2851 H 0.71434 0.60157 0.5785 0.0
C2852 C 0.69848 0.63473 0.63717 0.0
C2853 C 0.69783 0.64878 0.63606 0.0
C2854 C 0.70484 0.62994 0.62476 0.0
C2855 C 0.71052 0.63901 0.61086 0.0
C2856 C 0.70936 0.6528 0.60959 0.0
C2857 C 0.70321 0.65768 0.62207 0.0
C2858 C 0.73762 0.64172 0.57708 0.0
C2859 C 0.73201 0.62567 0.57314 0.0
C2860 C 0.7308 0.64599 0.58941 0.0
C2861 C 0.7179 0.63435 0.59788 0.0
C2862 C 0.71215 0.61829 0.59377 0.0
C2863 C 0.71913 0.61401 0.58154 0.0
H2864 H 0.36924 0.06868 0.64589 0.0
H2865 H 0.32703 0.03828 0.61811 0.0
H2866 H 0.37785 0.08854 0.62522 0.0
H2867 H 0.33592 0.05787 0.59713 0.0
H2868 H 0.34741 0.10299 0.57115 0.0
H2869 H 0.33912 0.08307 0.59175 0.0
H2870 H 0.38756 0.09454 0.59879 0.0
H2871 H 0.39586 0.11501 0.57866 0.0
C2872 C 0.36189 0.06614 0.63527 0.0
C2873 C 0.34741 0.05191 0.63369 0.0
C2874 C 0.36687 0.07751 0.62336 0.0
C2875 C 0.35757 0.07487 0.60949 0.0
C2876 C 0.34325 0.06047 0.60778 0.0
C2877 C 0.33819 0.04916 0.61976 0.0
C2878 C 0.3563 0.10143 0.57729 0.0
C2879 C 0.37236 0.1109 0.57363 0.0
C2880 C 0.35154 0.08984 0.58895 0.0
C2881 C 0.36267 0.08719 0.59701 0.0
C2882 C 0.37869 0.09646 0.5931 0.0
C2883 C 0.38346 0.10816 0.58154 0.0
H2884 H 0.93488 0.30365 0.64956 0.0
H2885 H 0.96586 0.29261 0.62256 0.0
H2886 H 0.91638 0.29472 0.62697 0.0
H2887 H 0.94778 0.28438 0.5997 0.0
H2888 H 0.90458 0.25384 0.5687 0.0
H2889 H 0.92324 0.26357 0.59106 0.0
H2890 H 0.91158 0.30027 0.60081 0.0
H2891 H 0.89219 0.28985 0.57888 0.0
C2892 C 0.93784 0.29953 0.6387 0.0
C2893 C 0.95178 0.29873 0.63788 0.0
C2894 C 0.92727 0.29448 0.62569 0.0
C2895 C 0.93049 0.28872 0.61148 0.0
C2896 C 0.94469 0.28838 0.61055 0.0
C2897 C 0.95514 0.29321 0.62363 0.0
C2898 C 0.90582 0.26383 0.57576 0.0
C2899 C 0.89656 0.2708 0.57233 0.0
C2900 C 0.91672 0.26959 0.58848 0.0
C2901 C 0.91894 0.28272 0.59784 0.0
C2902 C 0.90996 0.28994 0.59412 0.0
C2903 C 0.8989 0.28403 0.58152 0.0
H2904 H 0.37175 0.29977 0.65092 0.0
H2905 H 0.33166 0.29543 0.62447 0.0
H2906 H 0.38025 0.29147 0.62706 0.0
H2907 H 0.34049 0.28793 0.60048 0.0
H2908 H 0.3511 0.26116 0.56317 0.0
H2909 H 0.34264 0.26735 0.5883 0.0
H2910 H 0.39138 0.29941 0.60174 0.0
H2911 H 0.39977 0.29236 0.57703 0.0
C2912 C 0.36484 0.29719 0.63996 0.0
C2913 C 0.351 0.2982 0.63959 0.0
C2914 C 0.36975 0.2925 0.62623 0.0
C2915 C 0.36104 0.28893 0.61177 0.0
C2916 C 0.34731 0.29018 0.61144 0.0
C2917 C 0.3423 0.29462 0.62519 0.0
C2918 C 0.35998 0.26945 0.57156 0.0
C2919 C 0.37607 0.27656 0.56796 0.0
C2920 C 0.35515 0.27313 0.58593 0.0
C2921 C 0.36629 0.28414 0.597 0.0
C2922 C 0.38243 0.29083 0.5936 0.0
C2923 C 0.38726 0.28694 0.57933 0.0
H2924 H 0.72396 0.05362 0.62561 0.0
H2925 H 0.69401 0.07219 0.64073 0.0
H2926 H 0.73275 0.07147 0.60309 0.0
H2927 H 0.70244 0.08971 0.6179 0.0
H2928 H 0.73145 0.12953 0.58376 0.0
H2929 H 0.72443 0.11278 0.60721 0.0
H2930 H 0.72329 0.07513 0.57801 0.0
H2931 H 0.73086 0.09214 0.55477 0.0
C2932 C 0.71918 0.06145 0.62409 0.0
C2933 C 0.70826 0.06145 0.63499 0.0
C2934 C 0.72417 0.07165 0.61111 0.0
C2935 C 0.7183 0.08203 0.60862 0.0
C2936 C 0.70741 0.08205 0.61956 0.0
C2937 C 0.70248 0.07192 0.6326 0.0
C2938 C 0.72998 0.11778 0.58246 0.0
C2939 C 0.73207 0.11227 0.56751 0.0
C2940 C 0.72577 0.10809 0.59584 0.0
C2941 C 0.72331 0.09259 0.59454 0.0
C2942 C 0.72538 0.0871 0.57955 0.0
C2943 C 0.72968 0.09681 0.56621 0.0
H2944 H 0.95303 0.67911 0.62845 0.0
H2945 H 0.93575 0.63004 0.63982 0.0
H2946 H 0.93577 0.6708 0.60486 0.0
H2947 H 0.91891 0.62172 0.61597 0.0
H2948 H 0.87936 0.61118 0.58083 0.0
H2949 H 0.89578 0.62036 0.60505 0.0
H2950 H 0.9325 0.65902 0.57885 0.0
H2951 H 0.91574 0.65014 0.55483 0.0
C2952 C 0.94564 0.66655 0.62585 0.0
C2953 C 0.94577 0.65525 0.63604 0.0
C2954 C 0.93578 0.66177 0.61227 0.0
C2955 C 0.92589 0.64557 0.60849 0.0
C2956 C 0.92613 0.63429 0.61864 0.0
C2957 C 0.93589 0.63906 0.63228 0.0
C2958 C 0.89081 0.62182 0.58035 0.0
C2959 C 0.89613 0.63018 0.56603 0.0
C2960 C 0.90033 0.62698 0.59418 0.0
C2961 C 0.9155 0.64045 0.59394 0.0
C2962 C 0.92079 0.64878 0.57959 0.0
C2963 C 0.91122 0.64369 0.5658 0.0
H2964 H 0.98411 0.71031 0.71771 0.0
H2965 H 0.93749 0.66896 0.71635 0.0
H2966 H 0.97626 0.7214 0.74006 0.0
H2967 H 0.92958 0.68035 0.73835 0.0
H2968 H 0.92173 0.72112 0.76268 0.0
H2969 H 0.92918 0.70941 0.74076 0.0
H2970 H 0.96475 0.70882 0.77097 0.0
H2971 H 0.95691 0.71984 0.79328 0.0
C2972 C 0.97219 0.70365 0.72212 0.0
C2973 C 0.96142 0.68876 0.71533 0.0
C2974 C 0.96774 0.70996 0.7349 0.0
C2975 C 0.95234 0.70169 0.74081 0.0
C2976 C 0.94151 0.68692 0.73392 0.0
C2977 C 0.94606 0.68042 0.72141 0.0
C2978 C 0.93111 0.7185 0.76478 0.0
C2979 C 0.93896 0.72177 0.77977 0.0
C2980 C 0.93533 0.71177 0.75218 0.0
C2981 C 0.94761 0.70842 0.75421 0.0
C2982 C 0.95536 0.71151 0.76911 0.0
C2983 C 0.95091 0.71787 0.78183 0.0
H2984 H 0.28973 0.26919 0.70905 0.0
H2985 H 0.33635 0.28253 0.72705 0.0
H2986 H 0.27809 0.25018 0.73048 0.0
H2987 H 0.32472 0.26327 0.74819 0.0
H2988 H 0.29812 0.24126 0.79446 0.0
H2989 H 0.31018 0.25949 0.77246 0.0
H2990 H 0.27459 0.22525 0.73982 0.0
H2991 H 0.26232 0.20722 0.76201 0.0
C2992 C 0.2975 0.26802 0.71751 0.0
C2993 C 0.31398 0.27745 0.71635 0.0
C2994 C 0.29083 0.25703 0.72974 0.0
C2995 C 0.30047 0.25519 0.74107 0.0
C2996 C 0.31694 0.26454 0.73981 0.0
C2997 C 0.32361 0.27554 0.72762 0.0
C2998 C 0.29303 0.23757 0.78253 0.0
C2999 C 0.27947 0.22272 0.77989 0.0
C3000 C 0.29994 0.24799 0.76991 0.0
C3001 C 0.29339 0.24382 0.75435 0.0
C3002 C 0.27986 0.22889 0.75169 0.0
C3003 C 0.27293 0.21849 0.76434 0.0
H3004 H 0.71895 0.05934 0.7229 0.0
H3005 H 0.73231 0.02537 0.70656 0.0
H3006 H 0.73652 0.06599 0.74604 0.0
H3007 H 0.74959 0.03173 0.72997 0.0
H3008 H 0.78989 0.0568 0.7662 0.0
H3009 H 0.7738 0.05224 0.74208 0.0
H3010 H 0.73824 0.05452 0.77069 0.0
H3011 H 0.75457 0.05952 0.79465 0.0
C3012 C 0.72559 0.05323 0.72426 0.0
C3013 C 0.72418 0.04178 0.71287 0.0
C3014 C 0.73562 0.057 0.73759 0.0
C3015 C 0.74446 0.04938 0.73992 0.0
C3016 C 0.74313 0.038 0.72846 0.0
C3017 C 0.73313 0.03427 0.71508 0.0
C3018 C 0.77876 0.05661 0.76724 0.0
C3019 C 0.77362 0.05884 0.78225 0.0
C3020 C 0.76946 0.05382 0.75347 0.0
C3021 C 0.75471 0.05302 0.75442 0.0
C3022 C 0.74964 0.05534 0.76944 0.0
C3023 C 0.75897 0.05817 0.78319 0.0
H3024 H 0.0188 0.31234 0.03311 0.0
H3025 H 0.06372 0.34908 0.01611 0.0
H3026 H 0.03182 0.29897 0.04508 0.0
H3027 H 0.07664 0.33535 0.02763 0.0
H3028 H 0.09746 0.29676 0.03646 0.0
H3029 H 0.08041 0.31054 0.02163 0.0
H3030 H 0.048 0.30156 0.07076 0.0
H3031 H 0.06409 0.28739 0.08688 0.0
C3032 C 0.03141 0.31742 0.03173 0.0
C3033 C 0.04026 0.33173 0.02367 0.0
C3034 C 0.03886 0.30985 0.03869 0.0
C3035 C 0.0552 0.31621 0.03729 0.0
C3036 C 0.06399 0.33021 0.02879 0.0
C3037 C 0.05662 0.33805 0.02224 0.0
C3038 C 0.08777 0.2969 0.0425 0.0
C3039 C 0.08444 0.2932 0.06433 0.0
C3040 C 0.07766 0.3062 0.0337 0.0
C3041 C 0.06307 0.30841 0.04487 0.0
C3042 C 0.05719 0.3005 0.06469 0.0
C3043 C 0.06662 0.29104 0.07457 0.0
H3044 H 0.64081 0.68628 0.06149 0.0
H3045 H 0.68256 0.70634 0.03254 0.0
H3046 H 0.65263 0.70959 0.07876 0.0
H3047 H 0.69415 0.73039 0.04922 0.0
H3048 H 0.72556 0.77341 0.08995 0.0
H3049 H 0.71049 0.74554 0.06944 0.0
H3050 H 0.65702 0.73215 0.09019 0.0
H3051 H 0.67102 0.75934 0.11152 0.0
C3052 C 0.65244 0.69589 0.05862 0.0
C3053 C 0.66077 0.69445 0.04568 0.0
C3054 C 0.65925 0.70943 0.06852 0.0
C3055 C 0.67447 0.72207 0.06555 0.0
C3056 C 0.6826 0.72082 0.05223 0.0
C3057 C 0.6759 0.70708 0.04251 0.0
C3058 C 0.71298 0.76534 0.09046 0.0
C3059 C 0.69952 0.77082 0.10079 0.0
C3060 C 0.7033 0.74839 0.07703 0.0
C3061 C 0.68195 0.73613 0.07657 0.0
C3062 C 0.66968 0.73975 0.0903 0.0
C3063 C 0.67831 0.75638 0.10418 0.0
H3064 H 0.29531 0.94103 0.02126 0.0
H3065 H 0.29622 0.98562 0.02729 0.0
H3066 H 0.26964 0.92738 0.0339 0.0
H3067 H 0.27093 0.97217 0.04068 0.0
H3068 H 0.21932 0.94177 0.05359 0.0
H3069 H 0.24368 0.95489 0.03847 0.0
H3070 H 0.25844 0.92382 0.05919 0.0
H3071 H 0.23372 0.9102 0.07347 0.0
C3072 C 0.28998 0.94791 0.02525 0.0
C3073 C 0.29779 0.9644 0.02329 0.0
C3074 C 0.27532 0.94011 0.03268 0.0
C3075 C 0.26822 0.94865 0.03858 0.0
C3076 C 0.27588 0.96512 0.03617 0.0
C3077 C 0.29043 0.97288 0.02851 0.0
C3078 C 0.22787 0.93787 0.05495 0.0
C3079 C 0.22474 0.92521 0.06502 0.0
C3080 C 0.24187 0.9454 0.04633 0.0
C3081 C 0.25315 0.94051 0.04759 0.0
C3082 C 0.24998 0.92781 0.05767 0.0
C3083 C 0.23588 0.92013 0.0661 0.0
H3084 H 0.35836 0.06503 0.99416 0.0
H3085 H 0.31446 0.02136 0.98591 0.0
H3086 H 0.34698 0.07985 0.98237 0.0
H3087 H 0.30326 0.03603 0.97334 0.0
H3088 H 0.28303 0.0682 0.96322 0.0
H3089 H 0.29374 0.05363 0.97697 0.0
H3090 H 0.33971 0.0852 0.95763 0.0
H3091 H 0.32915 0.10023 0.94476 0.0
C3092 C 0.34625 0.0586 0.98981 0.0
C3093 C 0.33731 0.04204 0.99096 0.0
C3094 C 0.33976 0.06708 0.98288 0.0
C3095 C 0.32422 0.05917 0.97667 0.0
C3096 C 0.31518 0.04259 0.97814 0.0
C3097 C 0.32161 0.03415 0.98531 0.0
C3098 C 0.2954 0.07191 0.96186 0.0
C3099 C 0.30513 0.08513 0.95261 0.0
C3100 C 0.30155 0.06354 0.96969 0.0
C3101 C 0.31762 0.06814 0.96841 0.0
C3102 C 0.32734 0.0814 0.95913 0.0
C3103 C 0.32123 0.08991 0.95151 0.0
H3104 H 0.97949 0.28729 0.99417 0.0
H3105 H 0.94062 0.29636 0.99028 0.0
H3106 H 0.96191 0.25967 0.98594 0.0
H3107 H 0.92321 0.26893 0.98186 0.0
H3108 H 0.88368 0.21093 0.98026 0.0
H3109 H 0.90588 0.24274 0.99125 0.0
H3110 H 0.9505 0.24037 0.96437 0.0
H3111 H 0.92941 0.20828 0.95297 0.0
C3112 C 0.9672 0.28339 0.9916 0.0
C3113 C 0.96145 0.29402 0.99294 0.0
C3114 C 0.95716 0.2676 0.98673 0.0
C3115 C 0.94117 0.26212 0.98325 0.0
C3116 C 0.93541 0.27271 0.9847 0.0
C3117 C 0.94544 0.28848 0.98945 0.0
C3118 C 0.89616 0.21609 0.978 0.0
C3119 C 0.90377 0.20732 0.96301 0.0
C3120 C 0.90996 0.2362 0.98404 0.0
C3121 C 0.93043 0.24546 0.97825 0.0
C3122 C 0.93812 0.23466 0.96724 0.0
C3123 C 0.92523 0.21444 0.96062 0.0
H3124 H 0.70041 0.63795 0.99314 0.0
H3125 H 0.70247 0.68329 0.99474 0.0
H3126 H 0.72647 0.65017 0.9814 0.0
H3127 H 0.72819 0.69547 0.98209 0.0
H3128 H 0.7652 0.67167 0.94531 0.0
H3129 H 0.73955 0.66026 0.95775 0.0
H3130 H 0.75492 0.70395 0.98477 0.0
H3131 H 0.78025 0.71569 0.97137 0.0
C3132 C 0.70645 0.65055 0.99091 0.0
C3133 C 0.69941 0.65966 0.99486 0.0
C3134 C 0.72135 0.65756 0.98401 0.0
C3135 C 0.72948 0.67383 0.98054 0.0
C3136 C 0.72247 0.68298 0.98474 0.0
C3137 C 0.70767 0.676 0.99195 0.0
C3138 C 0.76302 0.67896 0.95367 0.0
C3139 C 0.77467 0.69475 0.95708 0.0
C3140 C 0.74834 0.67231 0.96105 0.0
C3141 C 0.74505 0.68111 0.97239 0.0
C3142 C 0.7568 0.69686 0.9759 0.0
C3143 C 0.77138 0.7036 0.96829 0.0
H3144 H 0.98317 0.6927 0.00127 0.0
H3145 H 0.9433 0.64724 0.98749 0.0
H3146 H 0.97131 0.70604 0.98708 0.0
H3147 H 0.93147 0.6606 0.97341 0.0
H3148 H 0.92928 0.68983 0.93133 0.0
H3149 H 0.93899 0.6764 0.94846 0.0
H3150 H 0.9482 0.71064 0.98651 0.0
H3151 H 0.93837 0.72411 0.96929 0.0
C3152 C 0.97176 0.68556 0.99544 0.0
C3153 C 0.96423 0.66891 0.99541 0.0
C3154 C 0.96496 0.69321 0.98736 0.0
C3155 C 0.95054 0.68436 0.979 0.0
C3156 C 0.9427 0.66773 0.97955 0.0
C3157 C 0.94944 0.66009 0.98771 0.0
C3158 C 0.93313 0.69434 0.94344 0.0
C3159 C 0.93268 0.70779 0.94912 0.0
C3160 C 0.93867 0.68664 0.95326 0.0
C3161 C 0.94417 0.69235 0.9689 0.0
C3162 C 0.944 0.70596 0.97452 0.0
C3163 C 0.93831 0.7136 0.96472 0.0
H3164 H 0.36219 0.31239 0.97382 0.0
H3165 H 0.31803 0.30541 0.99236 0.0
H3166 H 0.3482 0.28676 0.95989 0.0
H3167 H 0.30401 0.2798 0.97822 0.0
H3168 H 0.28621 0.22813 0.96188 0.0
H3169 H 0.30052 0.25287 0.97758 0.0
H3170 H 0.32988 0.27555 0.9369 0.0
H3171 H 0.31569 0.25084 0.92134 0.0
C3172 C 0.3495 0.30536 0.97499 0.0
C3173 C 0.34122 0.31097 0.98416 0.0
C3174 C 0.34148 0.2907 0.96692 0.0
C3175 C 0.32499 0.28129 0.96786 0.0
C3176 C 0.31674 0.28671 0.97736 0.0
C3177 C 0.32477 0.30142 0.9854 0.0
C3178 C 0.29583 0.23838 0.95639 0.0
C3179 C 0.30007 0.23746 0.94052 0.0
C3180 C 0.30394 0.25256 0.96532 0.0
C3181 C 0.31642 0.26613 0.95853 0.0
C3182 C 0.32054 0.26523 0.9426 0.0
C3183 C 0.31241 0.25109 0.93367 0.0
H3184 H 0.70746 0.06147 0.99333 0.0
H3185 H 0.71202 0.01996 0.99973 0.0
H3186 H 0.73349 0.07515 0.98147 0.0
H3187 H 0.73829 0.0338 0.98812 0.0
H3188 H 0.7768 0.05735 0.95025 0.0
H3189 H 0.75071 0.04354 0.96236 0.0
H3190 H 0.76112 0.08652 0.98831 0.0
H3191 H 0.78697 0.10032 0.97593 0.0
C3192 C 0.71409 0.05531 0.99237 0.0
C3193 C 0.70765 0.03962 0.99749 0.0
C3194 C 0.72906 0.06319 0.98561 0.0
C3195 C 0.73798 0.05557 0.9838 0.0
C3196 C 0.73164 0.03994 0.98913 0.0
C3197 C 0.71664 0.03205 0.99592 0.0
C3198 C 0.77338 0.06385 0.95838 0.0
C3199 C 0.78376 0.08 0.96187 0.0
C3200 C 0.75853 0.05592 0.96546 0.0
C3201 C 0.75379 0.06393 0.97628 0.0
C3202 C 0.76426 0.08005 0.97983 0.0
C3203 C 0.77908 0.08797 0.97275 0.0
H3204 H 0.64432 0.94157 0.0374 0.0
H3205 H 0.69085 0.98186 0.03086 0.0
H3206 H 0.65599 0.92695 0.04906 0.0
H3207 H 0.70257 0.96707 0.04224 0.0
H3208 H 0.71729 0.94165 0.07844 0.0
H3209 H 0.70544 0.95656 0.06751 0.0
H3210 H 0.67113 0.91457 0.0414 0.0
H3211 H 0.68275 0.89969 0.05262 0.0
C3212 C 0.65706 0.94728 0.03833 0.0
C3213 C 0.66665 0.96288 0.03317 0.0
C3214 C 0.66376 0.93886 0.04497 0.0
C3215 C 0.68022 0.94582 0.0466 0.0
C3216 C 0.68983 0.96142 0.04137 0.0
C3217 C 0.68312 0.96985 0.03472 0.0
C3218 C 0.70707 0.9356 0.07055 0.0
C3219 C 0.70072 0.91942 0.06666 0.0
C3220 C 0.70039 0.94416 0.06414 0.0
C3221 C 0.68729 0.93676 0.0536 0.0
C3222 C 0.68101 0.92058 0.0497 0.0
C3223 C 0.68768 0.91205 0.0561 0.0
H3224 H 0.05972 0.70378 0.03936 0.0
H3225 H 0.01987 0.70888 0.02547 0.0
H3226 H 0.07175 0.7296 0.05301 0.0
H3227 H 0.03189 0.73468 0.03925 0.0
H3228 H 0.06482 0.78647 0.05571 0.0
H3229 H 0.05479 0.76227 0.03913 0.0
H3230 H 0.06499 0.73946 0.07763 0.0
H3231 H 0.07496 0.76353 0.09411 0.0
C3232 C 0.0536 0.71048 0.03905 0.0
C3233 C 0.03879 0.70423 0.03141 0.0
C3234 C 0.06046 0.72523 0.04696 0.0
C3235 C 0.05269 0.7341 0.04733 0.0
C3236 C 0.0382 0.72817 0.0391 0.0
C3237 C 0.03129 0.71336 0.03126 0.0
C3238 C 0.06507 0.77631 0.06051 0.0
C3239 C 0.07103 0.77702 0.07605 0.0
C3240 C 0.05925 0.76246 0.05108 0.0
C3241 C 0.05927 0.74903 0.05702 0.0
C3242 C 0.06514 0.74972 0.07259 0.0
C3243 C 0.07083 0.7635 0.08204 0.0
H3244 H 0.30568 0.3658 0.04077 0.0
H3245 H 0.29884 0.32065 0.02357 0.0
H3246 H 0.28046 0.3523 0.05429 0.0
H3247 H 0.27366 0.30711 0.03736 0.0
H3248 H 0.22289 0.28921 0.05427 0.0
H3249 H 0.24665 0.30295 0.03811 0.0
H3250 H 0.27072 0.33549 0.07773 0.0
H3251 H 0.247 0.3219 0.09372 0.0
C3252 C 0.29874 0.35299 0.03977 0.0
C3253 C 0.30431 0.34429 0.03117 0.0
C3254 C 0.28433 0.34525 0.04761 0.0
C3255 C 0.27514 0.32862 0.04705 0.0
C3256 C 0.28041 0.31994 0.03794 0.0
C3257 C 0.29487 0.3277 0.03009 0.0
C3258 C 0.23324 0.29941 0.05941 0.0
C3259 C 0.23299 0.3047 0.07512 0.0
C3260 C 0.24685 0.3072 0.05022 0.0
C3261 C 0.26052 0.32041 0.05658 0.0
C3262 C 0.26029 0.32558 0.07235 0.0
C3263 C 0.24673 0.31778 0.08153 0.0
H3264 H 0.72889 0.70035 0.36656 0.0
H3265 H 0.69128 0.65269 0.35574 0.0
H3266 H 0.74601 0.69004 0.37446 0.0
H3267 H 0.70853 0.64237 0.36369 0.0
H3268 H 0.74027 0.62191 0.39482 0.0
H3269 H 0.71917 0.63333 0.38551 0.0
H3270 H 0.76397 0.6822 0.36225 0.0
H3271 H 0.78619 0.67221 0.37115 0.0
C3272 C 0.72426 0.68766 0.36589 0.0
C3273 C 0.70874 0.67734 0.36045 0.0
C3274 C 0.73412 0.68176 0.37033 0.0
C3275 C 0.72862 0.66542 0.36964 0.0
C3276 C 0.71303 0.65502 0.3645 0.0
C3277 C 0.7032 0.66095 0.35982 0.0
C3278 C 0.74451 0.63273 0.3882 0.0
C3279 C 0.76598 0.64736 0.38652 0.0
C3280 C 0.73161 0.64029 0.38298 0.0
C3281 C 0.73936 0.65943 0.37378 0.0
C3282 C 0.75989 0.67116 0.36841 0.0
C3283 C 0.77369 0.66466 0.37311 0.0
H3284 H 0.35493 0.03508 0.37227 0.0
H3285 H 0.31072 0.02955 0.38891 0.0
H3286 H 0.36905 0.06094 0.38593 0.0
H3287 H 0.32478 0.05542 0.40224 0.0
H3288 H 0.35242 0.09822 0.44432 0.0
H3289 H 0.33737 0.06813 0.42709 0.0
H3290 H 0.38015 0.08902 0.38608 0.0
H3291 H 0.39624 0.11958 0.40231 0.0
C3292 C 0.34822 0.03944 0.3787 0.0
C3293 C 0.33171 0.03021 0.37956 0.0
C3294 C 0.35631 0.05431 0.38646 0.0
C3295 C 0.34804 0.06018 0.39527 0.0
C3296 C 0.33153 0.0511 0.39584 0.0
C3297 C 0.32345 0.0363 0.38807 0.0
C3298 C 0.35783 0.09628 0.43391 0.0
C3299 C 0.37446 0.11294 0.42343 0.0
C3300 C 0.34818 0.07786 0.42263 0.0
C3301 C 0.3565 0.07549 0.40416 0.0
C3302 C 0.37526 0.09094 0.39691 0.0
C3303 C 0.3858 0.10982 0.40733 0.0
H3304 H 0.96621 0.31247 0.35453 0.0
H3305 H 0.97551 0.27739 0.375 0.0
H3306 H 0.93958 0.29871 0.36534 0.0
H3307 H 0.94914 0.26389 0.38605 0.0
H3308 H 0.89556 0.23472 0.38984 0.0
H3309 H 0.92174 0.24823 0.37806 0.0
H3310 H 0.92627 0.29352 0.39089 0.0
H3311 H 0.89992 0.27994 0.40236 0.0
C3312 C 0.96258 0.30183 0.36131 0.0
C3313 C 0.97298 0.29603 0.36388 0.0
C3314 C 0.94736 0.294 0.36761 0.0
C3315 C 0.94222 0.2802 0.3766 0.0
C3316 C 0.95261 0.27436 0.37902 0.0
C3317 C 0.96778 0.28216 0.37273 0.0
C3318 C 0.90224 0.24756 0.39026 0.0
C3319 C 0.89583 0.25627 0.3973 0.0
C3320 C 0.91723 0.25531 0.38353 0.0
C3321 C 0.92616 0.27197 0.38358 0.0
C3322 C 0.91967 0.28069 0.3905 0.0
C3323 C 0.90466 0.27292 0.39722 0.0
H3324 H 0.99162 0.35592 0.32274 0.0
H3325 H 0.03871 0.38895 0.30712 0.0
H3326 H 0.98176 0.37175 0.30993 0.0
H3327 H 0.02884 0.40454 0.29408 0.0
H3328 H 0.0085 0.43754 0.28767 0.0
H3329 H 0.01829 0.42176 0.30065 0.0
H3330 H 0.97722 0.37883 0.28338 0.0
H3331 H 0.96733 0.39468 0.27066 0.0
C3332 C 0.99985 0.36653 0.31656 0.0
C3333 C 0.01595 0.37118 0.31598 0.0
C3334 C 0.9942 0.37555 0.30913 0.0
C3335 C 0.00452 0.38941 0.30096 0.0
C3336 C 0.02061 0.39405 0.30044 0.0
C3337 C 0.02625 0.38505 0.30785 0.0
C3338 C 0.00168 0.42474 0.28651 0.0
C3339 C 0.98731 0.41734 0.27788 0.0
C3340 C 0.00728 0.41569 0.29393 0.0
C3341 C 0.99857 0.39902 0.29301 0.0
C3342 C 0.98415 0.39163 0.28445 0.0
C3343 C 0.97856 0.40069 0.27702 0.0
H3344 H 0.6513 0.63235 0.32291 0.0
H3345 H 0.6151 0.64046 0.30303 0.0
H3346 H 0.63962 0.6068 0.30874 0.0
H3347 H 0.60329 0.61481 0.28914 0.0
H3348 H 0.59043 0.57315 0.24595 0.0
H3349 H 0.60445 0.60252 0.26444 0.0
H3350 H 0.62214 0.57897 0.30736 0.0
H3351 H 0.60859 0.54908 0.28994 0.0
C3352 C 0.64075 0.6286 0.31568 0.0
C3353 C 0.63419 0.63849 0.31405 0.0
C3354 C 0.63398 0.61389 0.30762 0.0
C3355 C 0.62057 0.60881 0.29773 0.0
C3356 C 0.6138 0.61851 0.29641 0.0
C3357 C 0.62051 0.63318 0.30449 0.0
C3358 C 0.59682 0.57447 0.25701 0.0
C3359 C 0.59558 0.55712 0.26748 0.0
C3360 C 0.6049 0.59243 0.26902 0.0
C3361 C 0.61395 0.59375 0.2884 0.0
C3362 C 0.61626 0.57767 0.29597 0.0
C3363 C 0.60852 0.5592 0.28486 0.0
H3364 H 0.37218 0.00117 0.33073 0.0
H3365 H 0.34888 0.95036 0.32343 0.0
H3366 H 0.3946 0.00404 0.31515 0.0
H3367 H 0.37096 0.95322 0.3078 0.0
H3368 H 0.41663 0.96045 0.28952 0.0
H3369 H 0.39839 0.96037 0.30937 0.0
H3370 H 0.39964 0.00064 0.28683 0.0
H3371 H 0.41824 0.00092 0.26718 0.0
C3372 C 0.37192 0.99062 0.32596 0.0
C3373 C 0.35874 0.97554 0.32828 0.0
C3374 C 0.3847 0.99227 0.31696 0.0
C3375 C 0.38459 0.97887 0.31023 0.0
C3376 C 0.37158 0.96379 0.31299 0.0
C3377 C 0.35884 0.96216 0.32188 0.0
C3378 C 0.41327 0.9695 0.28903 0.0
C3379 C 0.41896 0.98077 0.27688 0.0
C3380 C 0.40273 0.96938 0.30031 0.0
C3381 C 0.39745 0.98042 0.29962 0.0
C3382 C 0.4036 0.99209 0.28783 0.0
C3383 C 0.41421 0.99223 0.27654 0.0
H3384 H 0.61127 0.96101 0.30877 0.0
H3385 H 0.64668 0.00682 0.32768 0.0
H3386 H 0.59831 0.97339 0.29503 0.0
H3387 H 0.63374 0.01925 0.31372 0.0
H3388 H 0.59683 0.03304 0.29755 0.0
H3389 H 0.60909 0.02078 0.3131 0.0
H3390 H 0.60469 0.99112 0.27212 0.0
H3391 H 0.59242 0.00327 0.25671 0.0
C3392 C 0.61626 0.97372 0.31006 0.0
C3393 C 0.63006 0.98294 0.31926 0.0
C3394 C 0.60887 0.98082 0.3021 0.0
C3395 C 0.61508 0.99731 0.30318 0.0
C3396 C 0.62862 0.0065 0.31274 0.0
C3397 C 0.63607 0.99939 0.32068 0.0
C3398 C 0.5984 0.02381 0.29196 0.0
C3399 C 0.59334 0.01884 0.27606 0.0
C3400 C 0.6055 0.01688 0.3008 0.0
C3401 C 0.60769 0.00486 0.29389 0.0
C3402 C 0.60286 1.0001 0.2779 0.0
C3403 C 0.59586 0.00707 0.26906 0.0
H3404 H 0.9934 0.64059 0.32262 0.0
H3405 H 0.0409 0.65353 0.30928 0.0
H3406 H 0.98389 0.61381 0.31176 0.0
H3407 H 0.0314 0.62698 0.29823 0.0
H3408 H 0.01176 0.57329 0.29818 0.0
H3409 H 0.02095 0.60027 0.30801 0.0
H3410 H 0.98011 0.59905 0.28641 0.0
H3411 H 0.9708 0.57186 0.27678 0.0
C3412 C 0.00179 0.63775 0.31733 0.0
C3413 C 0.01791 0.64917 0.3169 0.0
C3414 C 0.99634 0.62244 0.311 0.0
C3415 C 0.0069 0.61824 0.30417 0.0
C3416 C 0.02298 0.62974 0.30362 0.0
C3417 C 0.02842 0.645 0.3099 0.0
C3418 C 0.00485 0.57887 0.29538 0.0
C3419 C 0.99071 0.57058 0.28649 0.0
C3420 C 0.01012 0.59433 0.30098 0.0
C3421 C 0.0013 0.60185 0.29794 0.0
C3422 C 0.98711 0.59355 0.28906 0.0
C3423 C 0.98186 0.57807 0.28342 0.0
H3424 H 0.36125 0.39555 0.31759 0.0
H3425 H 0.36933 0.35726 0.33018 0.0
H3426 H 0.38767 0.41007 0.30672 0.0
H3427 H 0.39599 0.37199 0.31955 0.0
H3428 H 0.43692 0.39621 0.28426 0.0
H3429 H 0.40998 0.38111 0.29426 0.0
H3430 H 0.41485 0.42395 0.316 0.0
H3431 H 0.44156 0.43897 0.30574 0.0
C3432 C 0.3687 0.39026 0.31813 0.0
C3433 C 0.36318 0.37525 0.3248 0.0
C3434 C 0.38389 0.39863 0.31195 0.0
C3435 C 0.39397 0.39222 0.31228 0.0
C3436 C 0.38846 0.37719 0.31893 0.0
C3437 C 0.37323 0.3688 0.32514 0.0
C3438 C 0.4321 0.40238 0.291 0.0
C3439 C 0.4412 0.41882 0.29395 0.0
C3440 C 0.41676 0.39373 0.29687 0.0
C3441 C 0.41023 0.40133 0.30589 0.0
C3442 C 0.41939 0.41776 0.30886 0.0
C3443 C 0.4347 0.42638 0.30301 0.0
H3444 H 0.30311 0.27898 0.37303 0.0
H3445 H 0.34907 0.31668 0.35951 0.0
H3446 H 0.31502 0.26401 0.38318 0.0
H3447 H 0.361 0.30151 0.36943 0.0
H3448 H 0.37845 0.27654 0.40334 0.0
H3449 H 0.36656 0.29208 0.3943 0.0
H3450 H 0.32764 0.2497 0.37308 0.0
H3451 H 0.33939 0.23424 0.38238 0.0
C3452 C 0.31576 0.28405 0.37214 0.0
C3453 C 0.32513 0.29901 0.36541 0.0
C3454 C 0.32259 0.27542 0.37791 0.0
C3455 C 0.33897 0.28153 0.3771 0.0
C3456 C 0.34837 0.29654 0.37041 0.0
C3457 C 0.34152 0.30518 0.36461 0.0
C3458 C 0.36725 0.27057 0.39693 0.0
C3459 C 0.35969 0.25413 0.39383 0.0
C3460 C 0.36052 0.27947 0.39161 0.0
C3461 C 0.34612 0.27213 0.38299 0.0
C3462 C 0.33859 0.25569 0.37991 0.0
C3463 C 0.34533 0.24682 0.38521 0.0
H3464 H 0.71985 0.02087 0.37863 0.0
H3465 H 0.68206 0.02626 0.35838 0.0
H3466 H 0.73145 0.04732 0.39071 0.0
H3467 H 0.69362 0.05274 0.3707 0.0
H3468 H 0.72795 0.10559 0.38363 0.0
H3469 H 0.71693 0.07977 0.3698 0.0
H3470 H 0.72457 0.05984 0.41251 0.0
H3471 H 0.73565 0.08558 0.42619 0.0
C3472 C 0.71403 0.02772 0.3767 0.0
C3473 C 0.69999 0.02142 0.3676 0.0
C3474 C 0.72064 0.04285 0.38371 0.0
C3475 C 0.71339 0.05208 0.38177 0.0
C3476 C 0.69955 0.04596 0.37232 0.0
C3477 C 0.6929 0.03077 0.36533 0.0
C3478 C 0.72736 0.09569 0.38997 0.0
C3479 C 0.73299 0.09768 0.40585 0.0
C3480 C 0.72096 0.0809 0.38211 0.0
C3481 C 0.72003 0.06781 0.39001 0.0
C3482 C 0.72543 0.06977 0.40598 0.0
C3483 C 0.73174 0.08449 0.41383 0.0
H3484 H 0.97109 0.65998 0.35543 0.0
H3485 H 0.97704 0.70516 0.37122 0.0
H3486 H 0.94545 0.64643 0.36841 0.0
H3487 H 0.9514 0.69167 0.38393 0.0
H3488 H 0.91601 0.66152 0.4222 0.0
H3489 H 0.94047 0.6751 0.40732 0.0
H3490 H 0.91841 0.6421 0.36755 0.0
H3491 H 0.89391 0.62839 0.38261 0.0
C3492 C 0.96685 0.66703 0.36149 0.0
C3493 C 0.97616 0.68364 0.36237 0.0
C3494 C 0.95213 0.65927 0.36887 0.0
C3495 C 0.94644 0.66797 0.37732 0.0
C3496 C 0.95556 0.6846 0.37776 0.0
C3497 C 0.97023 0.69234 0.37038 0.0
C3498 C 0.91632 0.65731 0.41019 0.0
C3499 C 0.90293 0.6441 0.40342 0.0
C3500 C 0.93033 0.66509 0.40165 0.0
C3501 C 0.93136 0.65977 0.38618 0.0
C3502 C 0.91802 0.64646 0.37946 0.0
C3503 C 0.90397 0.63869 0.38801 0.0
H3504 H 0.39452 0.04959 0.70155 0.0
H3505 H 0.36759 0.99857 0.69605 0.0
H3506 H 0.41458 0.04753 0.71676 0.0
H3507 H 0.38801 0.9965 0.71122 0.0
H3508 H 0.4172 0.0018 0.75841 0.0
H3509 H 0.3978 0.00103 0.73925 0.0
H3510 H 0.43505 0.04064 0.71463 0.0
H3511 H 0.45428 0.04162 0.734 0.0
C3512 C 0.39297 0.03791 0.70341 0.0
C3513 C 0.37942 0.02423 0.69763 0.0
C3514 C 0.40457 0.03673 0.71205 0.0
C3515 C 0.40294 0.02185 0.71518 0.0
C3516 C 0.38955 0.00814 0.7091 0.0
C3517 C 0.37791 0.00932 0.70034 0.0
C3518 C 0.42122 0.01013 0.74871 0.0
C3519 C 0.43725 0.02173 0.74766 0.0
C3520 C 0.41014 0.00966 0.7377 0.0
C3521 C 0.41486 0.02084 0.72548 0.0
C3522 C 0.43099 0.032 0.72405 0.0
C3523 C 0.44203 0.03249 0.73506 0.0
H3524 H 0.96891 0.3545 0.71269 0.0
H3525 H 0.01578 0.36639 0.69792 0.0
H3526 H 0.97992 0.37903 0.72846 0.0
H3527 H 0.02681 0.39091 0.71395 0.0
H3528 H 0.04743 0.44716 0.73624 0.0
H3529 H 0.03497 0.41853 0.71677 0.0
H3530 H 0.99048 0.38939 0.75489 0.0
H3531 H 0.00185 0.41733 0.77532 0.0
C3532 C 0.98157 0.36239 0.71273 0.0
C3533 C 0.99148 0.35845 0.70409 0.0
C3534 C 0.98788 0.3764 0.7219 0.0
C3535 C 0.00423 0.38681 0.72259 0.0
C3536 C 0.01414 0.38319 0.71355 0.0
C3537 C 0.00783 0.3691 0.70442 0.0
C3538 C 0.03738 0.43625 0.7401 0.0
C3539 C 0.02428 0.436 0.75632 0.0
C3540 C 0.02907 0.41855 0.72767 0.0
C3541 C 0.01084 0.4011 0.73308 0.0
C3542 C 0.0009 0.40025 0.7516 0.0
C3543 C 0.00829 0.41733 0.76482 0.0
H3544 H 0.63703 0.60995 0.70585 0.0
H3545 H 0.6277 0.64567 0.68715 0.0
H3546 H 0.61103 0.59664 0.71776 0.0
H3547 H 0.60143 0.63207 0.69875 0.0
H3548 H 0.56313 0.61368 0.7371 0.0
H3549 H 0.58899 0.62695 0.72457 0.0
H3550 H 0.58344 0.58136 0.71111 0.0
H3551 H 0.55781 0.56818 0.72402 0.0
C3552 C 0.62936 0.61488 0.70412 0.0
C3553 C 0.63446 0.62889 0.69556 0.0
C3554 C 0.6144 0.60718 0.7109 0.0
C3555 C 0.60412 0.61328 0.70925 0.0
C3556 C 0.60913 0.62718 0.70046 0.0
C3557 C 0.62414 0.63491 0.6937 0.0
C3558 C 0.56754 0.60654 0.73157 0.0
C3559 C 0.55859 0.5899 0.73178 0.0
C3560 C 0.58227 0.61412 0.72425 0.0
C3561 C 0.58833 0.60523 0.71684 0.0
C3562 C 0.57928 0.58858 0.71692 0.0
C3563 C 0.56458 0.58101 0.72428 0.0
H3564 H 0.69392 0.72706 0.65466 0.0
H3565 H 0.64846 0.68445 0.65042 0.0
H3566 H 0.68283 0.74235 0.64352 0.0
H3567 H 0.63743 0.69954 0.63836 0.0
H3568 H 0.61893 0.73365 0.63013 0.0
H3569 H 0.62939 0.71819 0.64248 0.0
H3570 H 0.67418 0.74751 0.61975 0.0
H3571 H 0.66403 0.7635 0.60841 0.0
C3572 C 0.68154 0.72095 0.65124 0.0
C3573 C 0.67206 0.70457 0.65339 0.0
C3574 C 0.67518 0.72969 0.64469 0.0
C3575 C 0.65922 0.72222 0.63979 0.0
C3576 C 0.6497 0.7058 0.64215 0.0
C3577 C 0.65602 0.6971 0.649 0.0
C3578 C 0.63099 0.73668 0.62775 0.0
C3579 C 0.64052 0.74963 0.61808 0.0
C3580 C 0.63699 0.72779 0.63475 0.0
C3581 C 0.65267 0.73152 0.63216 0.0
C3582 C 0.66214 0.74439 0.62232 0.0
C3583 C 0.65623 0.75346 0.61557 0.0
H3584 H 0.27611 0.97013 0.63771 0.0
H3585 H 0.3147 0.96443 0.65492 0.0
H3586 H 0.26419 0.94406 0.62475 0.0
H3587 H 0.30288 0.93841 0.64165 0.0
H3588 H 0.27202 0.87985 0.62532 0.0
H3589 H 0.28607 0.91038 0.64158 0.0
H3590 H 0.26406 0.93116 0.60005 0.0
H3591 H 0.24943 0.90111 0.58277 0.0
C3592 C 0.28204 0.9633 0.63877 0.0
C3593 C 0.2964 0.96941 0.64731 0.0
C3594 C 0.27526 0.94838 0.63122 0.0
C3595 C 0.28264 0.93921 0.63205 0.0
C3596 C 0.29678 0.94509 0.64092 0.0
C3597 C 0.30362 0.96007 0.64846 0.0
C3598 C 0.27123 0.88959 0.62023 0.0
C3599 C 0.25685 0.88643 0.60389 0.0
C3600 C 0.2793 0.90844 0.63067 0.0
C3601 C 0.27583 0.92385 0.62325 0.0
C3602 C 0.26523 0.92146 0.60461 0.0
C3603 C 0.25672 0.90306 0.5933 0.0
H3604 H 0.03398 0.34657 0.65688 0.0
H3605 H 0.03289 0.30169 0.65716 0.0
H3606 H 0.06013 0.35899 0.64512 0.0
H3607 H 0.05933 0.31417 0.64631 0.0
H3608 H 0.09928 0.33571 0.61166 0.0
H3609 H 0.07313 0.32412 0.62296 0.0
H3610 H 0.08689 0.36798 0.64903 0.0
H3611 H 0.11278 0.37988 0.63675 0.0
C3612 C 0.03947 0.33943 0.65468 0.0
C3613 C 0.03137 0.32315 0.65786 0.0
C3614 C 0.05451 0.34656 0.64799 0.0
C3615 C 0.06192 0.33761 0.64458 0.0
C3616 C 0.05392 0.3214 0.64831 0.0
C3617 C 0.03879 0.31424 0.6547 0.0
C3618 C 0.09665 0.34299 0.61955 0.0
C3619 C 0.10803 0.35887 0.62302 0.0
C3620 C 0.08167 0.33625 0.62628 0.0
C3621 C 0.07778 0.34503 0.63704 0.0
C3622 C 0.08925 0.36089 0.64059 0.0
C3623 C 0.10414 0.36772 0.63362 0.0
H3624 H 0.31701 0.34969 0.66701 0.0
H3625 H 0.27937 0.30542 0.64743 0.0
H3626 H 0.30558 0.36394 0.65378 0.0
H3627 H 0.26791 0.31963 0.63441 0.0
H3628 H 0.2656 0.35217 0.59657 0.0
H3629 H 0.27567 0.33788 0.61183 0.0
H3630 H 0.28233 0.36783 0.65328 0.0
H3631 H 0.27228 0.38224 0.63788 0.0
C3632 C 0.3062 0.34298 0.66007 0.0
C3633 C 0.29916 0.32643 0.65818 0.0
C3634 C 0.29963 0.35114 0.65254 0.0
C3635 C 0.28592 0.34292 0.64293 0.0
C3636 C 0.27862 0.32632 0.64151 0.0
C3637 C 0.28514 0.31817 0.64906 0.0
C3638 C 0.26903 0.35557 0.609 0.0
C3639 C 0.26781 0.36808 0.61615 0.0
C3640 C 0.27477 0.34737 0.61775 0.0
C3641 C 0.27963 0.35161 0.63382 0.0
C3642 C 0.27869 0.3643 0.64092 0.0
C3643 C 0.27285 0.37247 0.63216 0.0
H3644 H 0.65452 0.97562 0.65669 0.0
H3645 H 0.69886 0.9809 0.64087 0.0
H3646 H 0.64045 0.94968 0.6431 0.0
H3647 H 0.68486 0.955 0.62751 0.0
H3648 H 0.6535 0.91847 0.58896 0.0
H3649 H 0.66744 0.94355 0.60395 0.0
H3650 H 0.63622 0.92242 0.64378 0.0
H3651 H 0.62218 0.89729 0.62865 0.0
C3652 C 0.66127 0.97119 0.65046 0.0
C3653 C 0.67781 0.98036 0.64981 0.0
C3654 C 0.65322 0.95631 0.64272 0.0
C3655 C 0.66153 0.95033 0.63413 0.0
C3656 C 0.67808 0.95937 0.63381 0.0
C3657 C 0.68612 0.97419 0.64157 0.0
C3658 C 0.64976 0.91913 0.601 0.0
C3659 C 0.63699 0.9058 0.60779 0.0
C3660 C 0.65774 0.93348 0.6096 0.0
C3661 C 0.65303 0.93494 0.62513 0.0
C3662 C 0.64011 0.9217 0.63183 0.0
C3663 C 0.63216 0.90729 0.62324 0.0
H3664 H 0.02969 0.68515 0.66264 0.0
H3665 H 0.02595 0.72634 0.6513 0.0
H3666 H 0.0567 0.69842 0.65274 0.0
H3667 H 0.05272 0.73941 0.64123 0.0
H3668 H 0.10668 0.7645 0.64205 0.0
H3669 H 0.0796 0.75091 0.65148 0.0
H3670 H 0.07151 0.70768 0.62768 0.0
H3671 H 0.0988 0.72134 0.61844 0.0
C3672 C 0.03462 0.69701 0.65804 0.0
C3673 C 0.02568 0.70471 0.65783 0.0
C3674 C 0.05005 0.70457 0.65226 0.0
C3675 C 0.05688 0.71998 0.6462 0.0
C3676 C 0.04791 0.72763 0.646 0.0
C3677 C 0.03252 0.72009 0.65173 0.0
C3678 C 0.09906 0.75215 0.63868 0.0
C3679 C 0.10477 0.74405 0.62929 0.0
C3680 C 0.08353 0.74435 0.64407 0.0
C3681 C 0.07336 0.72822 0.64029 0.0
C3682 C 0.07908 0.72008 0.63091 0.0
C3683 C 0.09463 0.72791 0.62548 0.0
H3684 H 0.9526 0.60573 0.69816 0.0
H3685 H 0.00111 0.64288 0.70434 0.0
H3686 H 0.95886 0.58693 0.71006 0.0
H3687 H 0.00734 0.62414 0.71704 0.0
H3688 H 0.01537 0.58165 0.72413 0.0
H3689 H 0.0106 0.60186 0.71282 0.0
H3690 H 0.96471 0.57992 0.73474 0.0
H3691 H 0.96913 0.55925 0.74512 0.0
C3692 C 0.96461 0.60991 0.70219 0.0
C3693 C 0.97635 0.62579 0.70035 0.0
C3694 C 0.9682 0.59914 0.70918 0.0
C3695 C 0.98358 0.604 0.71477 0.0
C3696 C 0.99539 0.61991 0.71277 0.0
C3697 C 0.99183 0.63067 0.70554 0.0
C3698 C 0.00421 0.58108 0.72638 0.0
C3699 C 0.99236 0.56847 0.73498 0.0
C3700 C 0.00153 0.59279 0.72006 0.0
C3701 C 0.9871 0.59238 0.72252 0.0
C3702 C 0.97573 0.58035 0.73207 0.0
C3703 C 0.97831 0.56854 0.73815 0.0
H3704 H 0.35087 0.3632 0.69673 0.0
H3705 H 0.38907 0.357 0.71421 0.0
H3706 H 0.36249 0.38896 0.71054 0.0
H3707 H 0.40081 0.38283 0.72777 0.0
H3708 H 0.40512 0.41918 0.76617 0.0
H3709 H 0.39466 0.39434 0.75085 0.0
H3710 H 0.38513 0.41593 0.71069 0.0
H3711 H 0.39543 0.44076 0.72618 0.0
C3712 C 0.36183 0.3674 0.70337 0.0
C3713 C 0.369 0.35801 0.70444 0.0
C3714 C 0.36854 0.3822 0.71123 0.0
C3715 C 0.38253 0.38791 0.72034 0.0
C3716 C 0.38989 0.37867 0.72106 0.0
C3717 C 0.38321 0.3639 0.7132 0.0
C3718 C 0.40096 0.41865 0.754 0.0
C3719 C 0.40138 0.432 0.74725 0.0
C3720 C 0.395 0.40445 0.74521 0.0
C3721 C 0.38917 0.40319 0.72949 0.0
C3722 C 0.38946 0.41649 0.72279 0.0
C3723 C 0.39546 0.43073 0.73159 0.0
H3724 H 0.65084 0.04706 0.70492 0.0
H3725 H 0.63712 0.99922 0.68963 0.0
H3726 H 0.62499 0.03763 0.71656 0.0
H3727 H 0.61104 0.98979 0.70105 0.0
H3728 H 0.57175 0.97677 0.73783 0.0
H3729 H 0.59803 0.98605 0.72687 0.0
H3730 H 0.59781 0.02708 0.70813 0.0
H3731 H 0.57177 0.01794 0.71934 0.0
C3732 C 0.64227 0.03453 0.70395 0.0
C3733 C 0.64604 0.0239 0.6963 0.0
C3734 C 0.62741 0.02913 0.71058 0.0
C3735 C 0.61592 0.01296 0.70972 0.0
C3736 C 0.61968 0.0023 0.70208 0.0
C3737 C 0.63458 0.00771 0.69543 0.0
C3738 C 0.57746 0.98787 0.73154 0.0
C3739 C 0.56987 0.9968 0.72971 0.0
C3740 C 0.59241 0.9931 0.72512 0.0
C3741 C 0.60005 0.00734 0.71666 0.0
C3742 C 0.5924 0.01621 0.71481 0.0
C3743 C 0.57747 0.01098 0.72121 0.0
loop_
_geom_bond_atom_site_label_1
_geom_bond_atom_site_label_2
_geom_bond_distance
_geom_bond_site_symmetry_2
_ccdc_geom_bond_type
O0 Cd1 2.223 . S
O0 C8 1.315 . S
Cd1 O0 2.223 . S
Cd1 O4 2.297 . S
Cd1 O5 2.439 . S
Cd1 O11 2.240 1_554 S
Cd2 O3 2.240 . S
Cd2 O10 2.223 1_554 S
Cd2 O12 2.297 1_554 S
Cd2 O13 2.439 1_554 S
O3 Cd2 2.240 . S
O3 C8 1.279 1_655 S
O4 Cd1 2.297 . S
O4 C6 1.247 . S
O5 Cd1 2.439 . S
O5 C6 1.208 . S
C6 O4 1.247 . S
C6 O5 1.208 . S
C7 O12 1.247 . S
C7 O13 1.208 . S
C8 O0 1.315 . S
C8 O3 1.279 1_455 S
C9 O10 1.315 1_455 S
C9 O11 1.279 . S
O10 Cd2 2.223 1_556 S
O10 C9 1.315 1_655 S
O11 Cd1 2.240 1_556 S
O11 C9 1.279 . S
O12 Cd2 2.297 1_556 S
O12 C7 1.247 . S
O13 Cd2 2.439 1_556 S
O13 C7 1.208 . S
O14 Cd15 2.223 . S
O14 C22 1.315 . S
Cd15 O14 2.223 . S
Cd15 O18 2.297 . S
Cd15 O19 2.439 . S
Cd15 O25 2.203 1_554 S
Cd16 O17 2.240 . S
Cd16 O24 2.223 1_554 S
Cd16 O26 2.297 1_554 S
Cd16 O27 2.439 . S
O17 Cd16 2.240 . S
O17 C22 1.279 . S
O18 Cd15 2.297 . S
O18 C20 1.247 . S
O19 Cd15 2.439 . S
O19 C20 1.208 . S
C20 O18 1.247 . S
C20 O19 1.208 . S
C21 O26 1.247 . S
C21 O27 1.208 1_556 S
C22 O14 1.315 . S
C22 O17 1.279 . S
C23 O24 1.315 . S
C23 O25 1.292 . S
O24 Cd16 2.223 1_556 S
O24 C23 1.315 . S
O25 Cd15 2.203 1_556 S
O25 C23 1.292 . S
O26 Cd16 2.297 1_556 S
O26 C21 1.247 . S
O27 Cd16 2.439 . S
O27 C21 1.208 1_554 S
O28 Cd29 2.223 1_556 S
O28 C36 1.315 . S
Cd29 O28 2.223 1_554 S
Cd29 O32 2.297 1_554 S
Cd29 O33 2.439 1_554 S
Cd29 O39 2.240 . S
Cd30 O31 2.240 1_554 S
Cd30 O38 2.223 . S
Cd30 O40 2.297 . S
Cd30 O41 2.439 . S
O31 Cd30 2.240 1_556 S
O31 C36 1.279 1_565 S
O32 Cd29 2.297 1_556 S
O32 C34 1.247 . S
O33 Cd29 2.439 1_556 S
O33 C34 1.208 . S
C34 O32 1.247 . S
C34 O33 1.208 . S
C35 O40 1.247 . S
C35 O41 1.208 . S
C36 O28 1.315 . S
C36 O31 1.279 1_545 S
C37 O38 1.315 1_545 S
C37 O39 1.279 . S
O38 Cd30 2.223 . S
O38 C37 1.315 1_565 S
O39 Cd29 2.240 . S
O39 C37 1.279 . S
O40 Cd30 2.297 . S
O40 C35 1.247 . S
O41 Cd30 2.439 . S
O41 C35 1.208 . S
O42 Cd43 2.223 1_556 S
O42 C50 1.345 . S
Cd43 O42 2.223 1_554 S
Cd43 O46 2.297 1_554 S
Cd43 O47 2.439 1_554 S
Cd43 O53 2.240 . S
Cd44 O45 2.240 1_554 S
Cd44 O52 2.223 . S
Cd44 O54 2.297 . S
Cd44 O55 2.439 . S
O45 Cd44 2.240 1_556 S
O45 C50 1.280 1_455 S
O46 Cd43 2.297 1_556 S
O46 C48 1.247 . S
O47 Cd43 2.439 1_556 S
O47 C48 1.208 . S
C48 O46 1.247 . S
C48 O47 1.208 . S
C49 O54 1.247 . S
C49 O55 1.208 . S
C50 O42 1.345 . S
C50 O45 1.280 1_655 S
C51 O52 1.371 . S
C51 O53 1.228 1_455 S
O52 Cd44 2.223 . S
O52 C51 1.371 . S
O53 Cd43 2.240 . S
O53 C51 1.228 1_655 S
O54 Cd44 2.297 . S
O54 C49 1.247 . S
O55 Cd44 2.439 . S
O55 C49 1.208 . S
O56 Cd57 2.223 . S
O56 C64 1.315 . S
Cd57 O56 2.223 . S
Cd57 O60 2.297 . S
Cd57 O61 2.439 . S
Cd57 O67 2.240 1_556 S
Cd58 O59 2.240 1_554 S
Cd58 O66 2.223 . S
Cd58 O68 2.297 . S
Cd58 O69 2.439 . S
O59 Cd58 2.240 1_556 S
O59 C64 1.279 . S
O60 Cd57 2.297 . S
O60 C62 1.247 . S
O61 Cd57 2.439 . S
O61 C62 1.208 . S
C62 O60 1.247 . S
C62 O61 1.208 . S
C63 O68 1.247 . S
C63 O69 1.208 . S
C64 O56 1.315 . S
C64 O59 1.279 . S
C65 O66 1.315 . S
C65 O67 1.279 . S
O66 Cd58 2.223 . S
O66 C65 1.315 . S
O67 Cd57 2.240 1_554 S
O67 C65 1.279 . S
O68 Cd58 2.297 . S
O68 C63 1.247 . S
O69 Cd58 2.439 . S
O69 C63 1.208 . S
O70 Cd71 2.223 . S
O70 C78 1.309 . S
Cd71 O70 2.223 . S
Cd71 O74 2.297 . S
Cd71 O75 2.439 . S
Cd71 O81 2.240 1_554 S
Cd72 O73 2.240 . S
Cd72 O80 2.223 1_554 S
Cd72 O82 2.297 1_554 S
Cd72 O83 2.439 1_554 S
O73 Cd72 2.240 . S
O73 C78 1.279 1_545 S
O74 Cd71 2.297 . S
O74 C76 1.247 . S
O75 Cd71 2.439 . S
O75 C76 1.208 . S
C76 O74 1.247 . S
C76 O75 1.208 . S
C77 O82 1.247 . S
C77 O83 1.208 . S
C78 O70 1.309 . S
C78 O73 1.279 1_565 S
C79 O80 1.353 . S
C79 O81 1.244 1_545 S
O80 Cd72 2.223 1_556 S
O80 C79 1.353 . S
O81 Cd71 2.240 1_556 S
O81 C79 1.244 1_565 S
O82 Cd72 2.297 1_556 S
O82 C77 1.247 . S
O83 Cd72 2.439 1_556 S
O83 C77 1.208 . S
O84 Cd85 2.223 . S
O84 C92 1.315 . S
Cd85 O84 2.223 . S
Cd85 O88 2.297 . S
Cd85 O89 2.439 . S
Cd85 O95 2.240 . S
Cd86 O87 2.240 . S
Cd86 O94 2.223 . S
Cd86 O96 2.297 . S
Cd86 O97 2.439 . S
O87 Cd86 2.240 . S
O87 C92 1.279 . S
O88 Cd85 2.297 . S
O88 C90 1.247 . S
O89 Cd85 2.439 . S
O89 C90 1.208 . S
C90 O88 1.247 . S
C90 O89 1.208 . S
C91 O96 1.247 . S
C91 O97 1.208 . S
C92 O84 1.315 . S
C92 O87 1.279 . S
C93 O94 1.315 . S
C93 O95 1.279 . S
O94 Cd86 2.223 . S
O94 C93 1.315 . S
O95 Cd85 2.240 . S
O95 C93 1.279 . S
O96 Cd86 2.297 . S
O96 C91 1.247 . S
O97 Cd86 2.439 . S
O97 C91 1.208 . S
O98 Cd99 2.223 . S
O98 C106 1.315 . S
Cd99 O98 2.223 . S
Cd99 O102 2.297 1_565 S
Cd99 O103 2.439 1_565 S
Cd99 O109 2.240 . S
Cd100 O101 2.240 . S
Cd100 O108 2.223 . S
Cd100 O110 2.297 . S
Cd100 O111 2.439 . S
O101 Cd100 2.240 . S
O101 C106 1.279 . S
O102 Cd99 2.297 1_545 S
O102 C104 1.247 . S
O103 Cd99 2.439 1_545 S
O103 C104 1.208 . S
C104 O102 1.247 . S
C104 O103 1.208 . S
C105 O110 1.247 . S
C105 O111 1.208 . S
C106 O98 1.315 . S
C106 O101 1.279 . S
C107 O108 1.315 . S
C107 O109 1.279 . S
O108 Cd100 2.223 . S
O108 C107 1.315 . S
O109 Cd99 2.240 . S
O109 C107 1.279 . S
O110 Cd100 2.297 . S
O110 C105 1.247 . S
O111 Cd100 2.439 . S
O111 C105 1.208 . S
O112 Cd113 2.223 . S
O112 C120 1.315 . S
Cd113 O112 2.223 . S
Cd113 O116 2.297 . S
Cd113 O117 2.439 . S
Cd113 O123 2.240 . S
Cd114 O115 2.240 . S
Cd114 O122 2.223 . S
Cd114 O124 2.297 1_455 S
Cd114 O125 2.439 1_455 S
O115 Cd114 2.240 . S
O115 C120 1.279 . S
O116 Cd113 2.297 . S
O116 C118 1.247 . S
O117 Cd113 2.439 . S
O117 C118 1.208 . S
C118 O116 1.247 . S
C118 O117 1.208 . S
C119 O124 1.247 . S
C119 O125 1.208 . S
C120 O112 1.315 . S
C120 O115 1.279 . S
C121 O122 1.315 . S
C121 O123 1.279 . S
O122 Cd114 2.223 . S
O122 C121 1.315 . S
O123 Cd113 2.240 . S
O123 C121 1.279 . S
O124 Cd114 2.297 1_655 S
O124 C119 1.247 . S
O125 Cd114 2.439 1_655 S
O125 C119 1.208 . S
O126 Cd127 2.223 . S
O126 C134 1.315 . S
Cd127 O126 2.223 . S
Cd127 O130 2.297 . S
Cd127 O131 2.439 . S
Cd127 O137 2.240 . S
Cd128 O129 2.240 . S
Cd128 O136 2.223 . S
Cd128 O138 2.297 1_565 S
Cd128 O139 2.439 1_565 S
O129 Cd128 2.240 . S
O129 C134 1.279 . S
O130 Cd127 2.297 . S
O130 C132 1.247 . S
O131 Cd127 2.439 . S
O131 C132 1.208 . S
C132 O130 1.247 . S
C132 O131 1.208 . S
C133 O138 1.247 . S
C133 O139 1.208 . S
C134 O126 1.315 . S
C134 O129 1.279 . S
C135 O136 1.315 . S
C135 O137 1.279 . S
O136 Cd128 2.223 . S
O136 C135 1.315 . S
O137 Cd127 2.240 . S
O137 C135 1.279 . S
O138 Cd128 2.297 1_545 S
O138 C133 1.247 . S
O139 Cd128 2.439 1_545 S
O139 C133 1.208 . S
O140 Cd141 2.223 . S
O140 C148 1.315 . S
Cd141 O140 2.223 . S
Cd141 O144 2.297 . S
Cd141 O145 2.439 . S
Cd141 O151 2.240 . S
Cd142 O143 2.240 . S
Cd142 O150 2.223 . S
Cd142 O152 2.297 1_455 S
Cd142 O153 2.439 1_455 S
O143 Cd142 2.240 . S
O143 C148 1.279 . S
O144 Cd141 2.297 . S
O144 C146 1.247 . S
O145 Cd141 2.439 . S
O145 C146 1.208 . S
C146 O144 1.247 . S
C146 O145 1.208 . S
C147 O152 1.247 . S
C147 O153 1.208 . S
C148 O140 1.315 . S
C148 O143 1.279 . S
C149 O150 1.315 . S
C149 O151 1.279 . S
O150 Cd142 2.223 . S
O150 C149 1.315 . S
O151 Cd141 2.240 . S
O151 C149 1.279 . S
O152 Cd142 2.297 1_655 S
O152 C147 1.247 . S
O153 Cd142 2.439 1_655 S
O153 C147 1.208 . S
O154 Cd155 2.223 . S
O154 C162 1.315 . S
Cd155 O154 2.223 . S
Cd155 O158 2.297 . S
Cd155 O159 2.439 . S
Cd155 O165 2.240 . S
Cd156 O157 2.240 . S
Cd156 O164 2.223 . S
Cd156 O166 2.297 . S
Cd156 O167 2.439 . S
O157 Cd156 2.240 . S
O157 C162 1.279 . S
O158 Cd155 2.297 . S
O158 C160 1.247 . S
O159 Cd155 2.439 . S
O159 C160 1.208 . S
C160 O158 1.247 . S
C160 O159 1.208 . S
C161 O166 1.247 . S
C161 O167 1.208 . S
C162 O154 1.315 . S
C162 O157 1.279 . S
C163 O164 1.315 . S
C163 O165 1.279 . S
O164 Cd156 2.223 . S
O164 C163 1.315 . S
O165 Cd155 2.240 . S
O165 C163 1.279 . S
O166 Cd156 2.297 . S
O166 C161 1.247 . S
O167 Cd156 2.439 . S
O167 C161 1.208 . S
O168 Cd169 2.223 . S
O168 C176 1.315 . S
Cd169 O168 2.223 . S
Cd169 O172 2.297 . S
Cd169 O173 2.439 . S
Cd169 O179 2.240 . S
Cd170 O171 2.240 . S
Cd170 O178 2.223 . S
Cd170 O180 2.297 1_545 S
Cd170 O181 2.439 1_545 S
O171 Cd170 2.240 . S
O171 C176 1.279 . S
O172 Cd169 2.297 . S
O172 C174 1.247 . S
O173 Cd169 2.439 . S
O173 C174 1.208 . S
C174 O172 1.247 . S
C174 O173 1.208 . S
C175 O180 1.247 . S
C175 O181 1.208 . S
C176 O168 1.315 . S
C176 O171 1.279 . S
C177 O178 1.315 . S
C177 O179 1.279 . S
O178 Cd170 2.223 . S
O178 C177 1.315 . S
O179 Cd169 2.240 . S
O179 C177 1.279 . S
O180 Cd170 2.297 1_565 S
O180 C175 1.247 . S
O181 Cd170 2.439 1_565 S
O181 C175 1.208 . S
O182 Cd183 2.223 . S
O182 C190 1.315 . S
Cd183 O182 2.223 . S
Cd183 O186 2.297 . S
Cd183 O187 2.439 . S
Cd183 O193 2.240 . S
Cd184 O185 2.240 . S
Cd184 O192 2.223 . S
Cd184 O194 2.297 1_655 S
Cd184 O195 2.439 1_655 S
O185 Cd184 2.240 . S
O185 C190 1.279 . S
O186 Cd183 2.297 . S
O186 C188 1.247 . S
O187 Cd183 2.439 . S
O187 C188 1.208 . S
C188 O186 1.247 . S
C188 O187 1.208 . S
C189 O194 1.247 . S
C189 O195 1.208 . S
C190 O182 1.315 . S
C190 O185 1.279 . S
C191 O192 1.315 . S
C191 O193 1.279 . S
O192 Cd184 2.223 . S
O192 C191 1.315 . S
O193 Cd183 2.240 . S
O193 C191 1.279 . S
O194 Cd184 2.297 1_455 S
O194 C189 1.247 . S
O195 Cd184 2.439 1_455 S
O195 C189 1.208 . S
O196 Cd197 2.223 . S
O196 C204 1.315 . S
Cd197 O196 2.223 . S
Cd197 O200 2.297 . S
Cd197 O201 2.439 . S
Cd197 O207 2.240 . S
Cd198 O199 2.240 . S
Cd198 O206 2.223 . S
Cd198 O208 2.297 . S
Cd198 O209 2.439 . S
O199 Cd198 2.240 . S
O199 C204 1.279 . S
O200 Cd197 2.297 . S
O200 C202 1.247 . S
O201 Cd197 2.439 . S
O201 C202 1.208 . S
C202 O200 1.247 . S
C202 O201 1.208 . S
C203 O208 1.247 . S
C203 O209 1.208 . S
C204 O196 1.315 . S
C204 O199 1.279 . S
C205 O206 1.315 . S
C205 O207 1.279 . S
O206 Cd198 2.223 . S
O206 C205 1.315 . S
O207 Cd197 2.240 . S
O207 C205 1.279 . S
O208 Cd198 2.297 . S
O208 C203 1.247 . S
O209 Cd198 2.439 . S
O209 C203 1.208 . S
O210 Cd211 2.223 . S
O210 C218 1.315 . S
Cd211 O210 2.223 . S
Cd211 O214 2.297 . S
Cd211 O215 2.439 . S
Cd211 O221 2.240 . S
Cd212 O213 2.240 . S
Cd212 O220 2.223 . S
Cd212 O222 2.297 . S
Cd212 O223 2.439 . S
O213 Cd212 2.240 . S
O213 C218 1.279 . S
O214 Cd211 2.297 . S
O214 C216 1.247 . S
O215 Cd211 2.439 . S
O215 C216 1.208 . S
C216 O214 1.247 . S
C216 O215 1.208 . S
C217 O222 1.247 . S
C217 O223 1.208 . S
C218 O210 1.315 . S
C218 O213 1.279 . S
C219 O220 1.315 . S
C219 O221 1.279 . S
O220 Cd212 2.223 . S
O220 C219 1.315 . S
O221 Cd211 2.240 . S
O221 C219 1.279 . S
O222 Cd212 2.297 . S
O222 C217 1.247 . S
O223 Cd212 2.439 . S
O223 C217 1.208 . S
O224 Cd225 2.223 . S
O224 C232 1.315 . S
Cd225 O224 2.223 . S
Cd225 O228 2.297 1_545 S
Cd225 O229 2.439 1_545 S
Cd225 O235 2.240 . S
Cd226 O227 2.240 . S
Cd226 O234 2.223 . S
Cd226 O236 2.297 . S
Cd226 O237 2.439 . S
O227 Cd226 2.240 . S
O227 C232 1.279 . S
O228 Cd225 2.297 1_565 S
O228 C230 1.247 . S
O229 Cd225 2.439 1_565 S
O229 C230 1.208 . S
C230 O228 1.247 . S
C230 O229 1.208 . S
C231 O236 1.247 . S
C231 O237 1.208 . S
C232 O224 1.315 . S
C232 O227 1.279 . S
C233 O234 1.315 . S
C233 O235 1.279 . S
O234 Cd226 2.223 . S
O234 C233 1.315 . S
O235 Cd225 2.240 . S
O235 C233 1.279 . S
O236 Cd226 2.297 . S
O236 C231 1.247 . S
O237 Cd226 2.439 . S
O237 C231 1.208 . S
O238 Cd239 2.223 . S
O238 C246 1.315 . S
Cd239 O238 2.223 . S
Cd239 O242 2.297 . S
Cd239 O243 2.439 . S
Cd239 O249 2.240 . S
Cd240 O241 2.240 . S
Cd240 O248 2.223 . S
Cd240 O250 2.297 1_655 S
Cd240 O251 2.439 1_655 S
O241 Cd240 2.240 . S
O241 C246 1.279 . S
O242 Cd239 2.297 . S
O242 C244 1.247 . S
O243 Cd239 2.439 . S
O243 C244 1.208 . S
C244 O242 1.247 . S
C244 O243 1.208 . S
C245 O250 1.247 . S
C245 O251 1.208 . S
C246 O238 1.315 . S
C246 O241 1.279 . S
C247 O248 1.315 . S
C247 O249 1.279 . S
O248 Cd240 2.223 . S
O248 C247 1.315 . S
O249 Cd239 2.240 . S
O249 C247 1.279 . S
O250 Cd240 2.297 1_455 S
O250 C245 1.247 . S
O251 Cd240 2.439 1_455 S
O251 C245 1.208 . S
C252 C253 1.560 . S
C252 H313 0.959 . S
C252 H314 0.959 . S
C252 H315 0.960 . S
C253 C252 1.560 . S
C253 O308 1.426 . S
C253 H312 0.980 . S
C254 C255 1.407 . S
C254 C259 1.418 . S
C254 O308 1.334 . S
C255 C254 1.407 . S
C255 C256 1.360 . S
C255 H316 0.929 . S
C256 C255 1.360 . S
C256 C257 1.401 . S
C256 C260 1.527 . S
C257 C256 1.401 . S
C257 C258 1.405 . S
C257 C290 1.587 . S
C258 C257 1.405 . S
C258 C259 1.332 . S
C258 C261 1.496 . S
C259 C254 1.418 . S
C259 C258 1.332 . S
C259 H317 0.929 . S
C260 C256 1.527 . S
C260 H318 0.959 . S
C260 H319 0.961 . S
C260 H320 0.961 . S
C261 C258 1.496 . S
C261 H321 0.960 . S
C261 H322 0.960 . S
C261 H323 0.961 . S
C262 C263 1.517 . S
C262 H325 0.961 . S
C262 H326 0.960 . S
C262 H327 0.959 . S
C263 C262 1.517 . S
C263 O311 1.468 . S
C263 H324 0.980 . S
C264 C265 1.349 . S
C264 C269 1.367 . S
C264 O311 1.408 . S
C265 C264 1.349 . S
C265 C266 1.407 . S
C265 H328 0.930 . S
C266 C265 1.407 . S
C266 C267 1.449 . S
C266 C270 1.535 . S
C267 C266 1.449 . S
C267 C268 1.384 . S
C267 C292 1.553 . S
C268 C267 1.384 . S
C268 C269 1.364 . S
C268 C271 1.450 . S
C269 C264 1.367 . S
C269 C268 1.364 . S
C269 H329 0.931 . S
C270 C266 1.535 . S
C270 H330 0.959 . S
C270 H331 0.961 . S
C270 H332 0.959 . S
C271 C268 1.450 . S
C271 H333 0.960 . S
C271 H334 0.960 . S
C271 H335 0.960 . S
C272 C273 1.309 . S
C272 C277 1.304 . S
C272 O310 1.435 . S
C273 C272 1.309 . S
C273 C274 1.476 . S
C273 H337 0.930 . S
C274 C273 1.476 . S
C274 C275 1.400 . S
C274 C278 1.567 . S
C275 C274 1.400 . S
C275 C276 1.373 . S
C275 C297 1.432 . S
C276 C275 1.373 . S
C276 C277 1.339 . S
C276 C279 1.530 . S
C277 C272 1.304 . S
C277 C276 1.339 . S
C277 H338 0.930 . S
C278 C274 1.567 . S
C278 H339 0.961 . S
C278 H340 0.960 . S
C278 H341 0.958 . S
C279 C276 1.530 . S
C279 H342 0.961 . S
C279 H343 0.960 . S
C279 H344 0.960 . S
C280 C281 1.530 . S
C280 H346 0.961 . S
C280 H347 0.961 . S
C280 H348 0.959 . S
C281 C280 1.530 . S
C281 O309 1.412 . S
C281 H345 0.980 . S
C282 C283 1.288 . S
C282 C287 1.377 . S
C282 O309 1.393 . S
C283 C282 1.288 . S
C283 C284 1.369 . S
C283 H349 0.932 . S
C284 C283 1.369 . S
C284 C285 1.398 . S
C284 C288 1.527 . S
C285 C284 1.398 . S
C285 C286 1.380 . S
C285 C299 1.497 . S
C286 C285 1.380 . S
C286 C287 1.383 . S
C286 C289 1.603 . S
C287 C282 1.377 . S
C287 C286 1.383 . S
C287 H350 0.929 . S
C288 C284 1.527 . S
C288 H351 0.961 . S
C288 H352 0.959 . S
C288 H353 0.959 . S
C289 C286 1.603 . S
C289 H354 0.960 . S
C289 H355 0.962 . S
C289 H356 0.961 . S
C290 C257 1.587 . S
C290 C291 1.360 . S
C290 C303 1.412 . S
C291 C290 1.360 . S
C291 C292 1.365 . S
C291 H357 0.929 . S
C292 C267 1.553 . S
C292 C291 1.365 . S
C292 C293 1.404 . S
C293 C292 1.404 . S
C293 C294 1.395 . S
C293 C304 1.451 . S
C294 C293 1.395 . S
C294 C295 1.322 . S
C294 H358 0.930 . S
C295 C294 1.322 . S
C295 C296 1.459 . S
C295 H359 0.929 . S
C296 C295 1.459 . S
C296 C297 1.445 . S
C296 C305 1.395 . S
C297 C275 1.432 . S
C297 C296 1.445 . S
C297 C298 1.370 . S
C298 C297 1.370 . S
C298 C299 1.438 . S
C298 H360 0.930 . S
C299 C285 1.497 . S
C299 C298 1.438 . S
C299 C300 1.360 . S
C300 C299 1.360 . S
C300 C301 1.401 . S
C300 C305 1.446 . S
C301 C300 1.401 . S
C301 C302 1.347 . S
C301 H361 0.929 . S
C302 C301 1.347 . S
C302 C303 1.455 . S
C302 H362 0.930 . S
C303 C290 1.412 . S
C303 C302 1.455 . S
C303 C304 1.331 . S
C304 C293 1.451 . S
C304 C303 1.331 . S
C304 C305 1.497 . S
C305 C296 1.395 . S
C305 C300 1.446 . S
C305 C304 1.497 . S
C306 C307 1.582 . S
C306 H363 0.962 . S
C306 H364 0.959 . S
C306 H365 0.958 . S
C307 C306 1.582 . S
C307 O310 1.458 . S
C307 H336 0.980 . S
O308 C253 1.426 . S
O308 C254 1.334 . S
O309 C281 1.412 . S
O309 C282 1.393 . S
O310 C272 1.435 . S
O310 C307 1.458 . S
O311 C263 1.468 . S
O311 C264 1.408 . S
H312 C253 0.980 . S
H313 C252 0.959 . S
H314 C252 0.959 . S
H315 C252 0.960 . S
H316 C255 0.929 . S
H317 C259 0.929 . S
H318 C260 0.959 . S
H319 C260 0.961 . S
H320 C260 0.961 . S
H321 C261 0.960 . S
H322 C261 0.960 . S
H323 C261 0.961 . S
H324 C263 0.980 . S
H325 C262 0.961 . S
H326 C262 0.960 . S
H327 C262 0.959 . S
H328 C265 0.930 . S
H329 C269 0.931 . S
H330 C270 0.959 . S
H331 C270 0.961 . S
H332 C270 0.959 . S
H333 C271 0.960 . S
H334 C271 0.960 . S
H335 C271 0.960 . S
H336 C307 0.980 . S
H337 C273 0.930 . S
H338 C277 0.930 . S
H339 C278 0.961 . S
H340 C278 0.960 . S
H341 C278 0.958 . S
H342 C279 0.961 . S
H343 C279 0.960 . S
H344 C279 0.960 . S
H345 C281 0.980 . S
H346 C280 0.961 . S
H347 C280 0.961 . S
H348 C280 0.959 . S
H349 C283 0.932 . S
H350 C287 0.929 . S
H351 C288 0.961 . S
H352 C288 0.959 . S
H353 C288 0.959 . S
H354 C289 0.960 . S
H355 C289 0.962 . S
H356 C289 0.961 . S
H357 C291 0.929 . S
H358 C294 0.930 . S
H359 C295 0.929 . S
H360 C298 0.930 . S
H361 C301 0.929 . S
H362 C302 0.930 . S
H363 C306 0.962 . S
H364 C306 0.959 . S
H365 C306 0.958 . S
C366 C367 1.560 . S
C366 H427 0.959 . S
C366 H428 0.959 . S
C366 H429 0.960 . S
C367 C366 1.560 . S
C367 O422 1.426 . S
C367 H426 0.980 . S
C368 C369 1.407 . S
C368 C373 1.418 . S
C368 O422 1.334 . S
C369 C368 1.407 . S
C369 C370 1.360 . S
C369 H430 0.929 . S
C370 C369 1.360 . S
C370 C371 1.401 . S
C370 C374 1.527 . S
C371 C370 1.401 . S
C371 C372 1.405 . S
C371 C404 1.587 . S
C372 C371 1.405 . S
C372 C373 1.332 . S
C372 C375 1.496 . S
C373 C368 1.418 . S
C373 C372 1.332 . S
C373 H431 0.929 . S
C374 C370 1.527 . S
C374 H432 0.959 . S
C374 H433 0.961 . S
C374 H434 0.961 . S
C375 C372 1.496 . S
C375 H435 0.960 . S
C375 H436 0.960 . S
C375 H437 0.961 . S
C376 C377 1.517 . S
C376 H439 0.961 . S
C376 H440 0.960 . S
C376 H441 0.959 . S
C377 C376 1.517 . S
C377 O425 1.468 . S
C377 H438 0.980 . S
C378 C379 1.349 . S
C378 C383 1.367 . S
C378 O425 1.408 . S
C379 C378 1.349 . S
C379 C380 1.407 . S
C379 H442 0.930 . S
C380 C379 1.407 . S
C380 C381 1.449 . S
C380 C384 1.535 . S
C381 C380 1.449 . S
C381 C382 1.384 . S
C381 C406 1.553 . S
C382 C381 1.384 . S
C382 C383 1.364 . S
C382 C385 1.450 . S
C383 C378 1.367 . S
C383 C382 1.364 . S
C383 H443 0.931 . S
C384 C380 1.535 . S
C384 H444 0.959 . S
C384 H445 0.961 . S
C384 H446 0.959 . S
C385 C382 1.450 . S
C385 H447 0.960 . S
C385 H448 0.960 . S
C385 H449 0.960 . S
C386 C387 1.309 . S
C386 C391 1.304 . S
C386 O424 1.435 . S
C387 C386 1.309 . S
C387 C388 1.476 . S
C387 H451 0.930 . S
C388 C387 1.476 . S
C388 C389 1.400 . S
C388 C392 1.567 . S
C389 C388 1.400 . S
C389 C390 1.373 . S
C389 C411 1.432 . S
C390 C389 1.373 . S
C390 C391 1.339 . S
C390 C393 1.530 . S
C391 C386 1.304 . S
C391 C390 1.339 . S
C391 H452 0.930 . S
C392 C388 1.567 . S
C392 H453 0.961 . S
C392 H454 0.960 . S
C392 H455 0.958 . S
C393 C390 1.530 . S
C393 H456 0.961 . S
C393 H457 0.960 . S
C393 H458 0.960 . S
C394 C395 1.530 . S
C394 H460 0.961 . S
C394 H461 0.961 . S
C394 H462 0.959 . S
C395 C394 1.530 . S
C395 O423 1.412 . S
C395 H459 0.980 . S
C396 C397 1.288 . S
C396 C401 1.377 . S
C396 O423 1.393 . S
C397 C396 1.288 . S
C397 C398 1.369 . S
C397 H463 0.932 . S
C398 C397 1.369 . S
C398 C399 1.398 . S
C398 C402 1.527 . S
C399 C398 1.398 . S
C399 C400 1.380 . S
C399 C413 1.497 . S
C400 C399 1.380 . S
C400 C401 1.383 . S
C400 C403 1.603 . S
C401 C396 1.377 . S
C401 C400 1.383 . S
C401 H464 0.929 . S
C402 C398 1.527 . S
C402 H465 0.961 . S
C402 H466 0.959 . S
C402 H467 0.959 . S
C403 C400 1.603 . S
C403 H468 0.960 . S
C403 H469 0.962 . S
C403 H470 0.961 . S
C404 C371 1.587 . S
C404 C405 1.360 . S
C404 C417 1.412 . S
C405 C404 1.360 . S
C405 C406 1.365 . S
C405 H471 0.929 . S
C406 C381 1.553 . S
C406 C405 1.365 . S
C406 C407 1.404 . S
C407 C406 1.404 . S
C407 C408 1.395 . S
C407 C418 1.451 . S
C408 C407 1.395 . S
C408 C409 1.322 . S
C408 H472 0.930 . S
C409 C408 1.322 . S
C409 C410 1.459 . S
C409 H473 0.929 . S
C410 C409 1.459 . S
C410 C411 1.445 . S
C410 C419 1.395 . S
C411 C389 1.432 . S
C411 C410 1.445 . S
C411 C412 1.370 . S
C412 C411 1.370 . S
C412 C413 1.438 . S
C412 H474 0.930 . S
C413 C399 1.497 . S
C413 C412 1.438 . S
C413 C414 1.360 . S
C414 C413 1.360 . S
C414 C415 1.401 . S
C414 C419 1.446 . S
C415 C414 1.401 . S
C415 C416 1.347 . S
C415 H475 0.929 . S
C416 C415 1.347 . S
C416 C417 1.455 . S
C416 H476 0.930 . S
C417 C404 1.412 . S
C417 C416 1.455 . S
C417 C418 1.331 . S
C418 C407 1.451 . S
C418 C417 1.331 . S
C418 C419 1.497 . S
C419 C410 1.395 . S
C419 C414 1.446 . S
C419 C418 1.497 . S
C420 C421 1.582 . S
C420 H477 0.962 . S
C420 H478 0.959 . S
C420 H479 0.958 . S
C421 C420 1.582 . S
C421 O424 1.458 . S
C421 H450 0.980 . S
O422 C367 1.426 . S
O422 C368 1.334 . S
O423 C395 1.412 . S
O423 C396 1.393 . S
O424 C386 1.435 . S
O424 C421 1.458 . S
O425 C377 1.468 . S
O425 C378 1.408 . S
H426 C367 0.980 . S
H427 C366 0.959 . S
H428 C366 0.959 . S
H429 C366 0.960 . S
H430 C369 0.929 . S
H431 C373 0.929 . S
H432 C374 0.959 . S
H433 C374 0.961 . S
H434 C374 0.961 . S
H435 C375 0.960 . S
H436 C375 0.960 . S
H437 C375 0.961 . S
H438 C377 0.980 . S
H439 C376 0.961 . S
H440 C376 0.960 . S
H441 C376 0.959 . S
H442 C379 0.930 . S
H443 C383 0.931 . S
H444 C384 0.959 . S
H445 C384 0.961 . S
H446 C384 0.959 . S
H447 C385 0.960 . S
H448 C385 0.960 . S
H449 C385 0.960 . S
H450 C421 0.980 . S
H451 C387 0.930 . S
H452 C391 0.930 . S
H453 C392 0.961 . S
H454 C392 0.960 . S
H455 C392 0.958 . S
H456 C393 0.961 . S
H457 C393 0.960 . S
H458 C393 0.960 . S
H459 C395 0.980 . S
H460 C394 0.961 . S
H461 C394 0.961 . S
H462 C394 0.959 . S
H463 C397 0.932 . S
H464 C401 0.929 . S
H465 C402 0.961 . S
H466 C402 0.959 . S
H467 C402 0.959 . S
H468 C403 0.960 . S
H469 C403 0.962 . S
H470 C403 0.961 . S
H471 C405 0.929 . S
H472 C408 0.930 . S
H473 C409 0.929 . S
H474 C412 0.930 . S
H475 C415 0.929 . S
H476 C416 0.930 . S
H477 C420 0.962 . S
H478 C420 0.959 . S
H479 C420 0.958 . S
C480 C481 1.560 . S
C480 H541 0.959 . S
C480 H542 0.959 . S
C480 H543 0.960 . S
C481 C480 1.560 . S
C481 O536 1.426 . S
C481 H540 0.980 . S
C482 C483 1.407 . S
C482 C487 1.418 . S
C482 O536 1.334 . S
C483 C482 1.407 . S
C483 C484 1.360 . S
C483 H544 0.929 . S
C484 C483 1.360 . S
C484 C485 1.401 . S
C484 C488 1.527 . S
C485 C484 1.401 . S
C485 C486 1.405 . S
C485 C518 1.587 . S
C486 C485 1.405 . S
C486 C487 1.332 . S
C486 C489 1.496 . S
C487 C482 1.418 . S
C487 C486 1.332 . S
C487 H545 0.929 . S
C488 C484 1.527 . S
C488 H546 0.959 . S
C488 H547 0.961 . S
C488 H548 0.961 . S
C489 C486 1.496 . S
C489 H549 0.960 . S
C489 H550 0.960 . S
C489 H551 0.961 . S
C490 C491 1.517 . S
C490 H553 0.961 . S
C490 H554 0.960 . S
C490 H555 0.959 . S
C491 C490 1.517 . S
C491 O539 1.468 . S
C491 H552 0.980 . S
C492 C493 1.349 . S
C492 C497 1.367 . S
C492 O539 1.408 . S
C493 C492 1.349 . S
C493 C494 1.407 . S
C493 H556 0.930 . S
C494 C493 1.407 . S
C494 C495 1.449 . S
C494 C498 1.535 . S
C495 C494 1.449 . S
C495 C496 1.384 . S
C495 C520 1.553 . S
C496 C495 1.384 . S
C496 C497 1.364 . S
C496 C499 1.450 . S
C497 C492 1.367 . S
C497 C496 1.364 . S
C497 H557 0.931 . S
C498 C494 1.535 . S
C498 H558 0.959 . S
C498 H559 0.961 . S
C498 H560 0.959 . S
C499 C496 1.450 . S
C499 H561 0.960 . S
C499 H562 0.960 . S
C499 H563 0.960 . S
C500 C501 1.309 . S
C500 C505 1.304 . S
C500 O538 1.435 . S
C501 C500 1.309 . S
C501 C502 1.476 . S
C501 H565 0.930 . S
C502 C501 1.476 . S
C502 C503 1.400 . S
C502 C506 1.567 . S
C503 C502 1.400 . S
C503 C504 1.373 . S
C503 C525 1.432 . S
C504 C503 1.373 . S
C504 C505 1.339 . S
C504 C507 1.530 . S
C505 C500 1.304 . S
C505 C504 1.339 . S
C505 H566 0.930 . S
C506 C502 1.567 . S
C506 H567 0.961 . S
C506 H568 0.960 . S
C506 H569 0.958 . S
C507 C504 1.530 . S
C507 H570 0.961 . S
C507 H571 0.960 . S
C507 H572 0.960 . S
C508 C509 1.530 . S
C508 H574 0.961 . S
C508 H575 0.961 . S
C508 H576 0.959 . S
C509 C508 1.530 . S
C509 O537 1.412 . S
C509 H573 0.980 . S
C510 C511 1.288 . S
C510 C515 1.377 . S
C510 O537 1.393 . S
C511 C510 1.288 . S
C511 C512 1.369 . S
C511 H577 0.932 . S
C512 C511 1.369 . S
C512 C513 1.398 . S
C512 C516 1.527 . S
C513 C512 1.398 . S
C513 C514 1.380 . S
C513 C527 1.497 . S
C514 C513 1.380 . S
C514 C515 1.383 . S
C514 C517 1.603 . S
C515 C510 1.377 . S
C515 C514 1.383 . S
C515 H578 0.929 . S
C516 C512 1.527 . S
C516 H579 0.961 . S
C516 H580 0.959 . S
C516 H581 0.959 . S
C517 C514 1.603 . S
C517 H582 0.960 . S
C517 H583 0.962 . S
C517 H584 0.961 . S
C518 C485 1.587 . S
C518 C519 1.360 . S
C518 C531 1.412 . S
C519 C518 1.360 . S
C519 C520 1.365 . S
C519 H585 0.929 . S
C520 C495 1.553 . S
C520 C519 1.365 . S
C520 C521 1.404 . S
C521 C520 1.404 . S
C521 C522 1.395 . S
C521 C532 1.451 . S
C522 C521 1.395 . S
C522 C523 1.322 . S
C522 H586 0.930 . S
C523 C522 1.322 . S
C523 C524 1.459 . S
C523 H587 0.929 . S
C524 C523 1.459 . S
C524 C525 1.445 . S
C524 C533 1.395 . S
C525 C503 1.432 . S
C525 C524 1.445 . S
C525 C526 1.370 . S
C526 C525 1.370 . S
C526 C527 1.438 . S
C526 H588 0.930 . S
C527 C513 1.497 . S
C527 C526 1.438 . S
C527 C528 1.360 . S
C528 C527 1.360 . S
C528 C529 1.401 . S
C528 C533 1.446 . S
C529 C528 1.401 . S
C529 C530 1.347 . S
C529 H589 0.929 . S
C530 C529 1.347 . S
C530 C531 1.455 . S
C530 H590 0.930 . S
C531 C518 1.412 . S
C531 C530 1.455 . S
C531 C532 1.331 . S
C532 C521 1.451 . S
C532 C531 1.331 . S
C532 C533 1.497 . S
C533 C524 1.395 . S
C533 C528 1.446 . S
C533 C532 1.497 . S
C534 C535 1.582 . S
C534 H591 0.962 . S
C534 H592 0.959 . S
C534 H593 0.958 . S
C535 C534 1.582 . S
C535 O538 1.458 . S
C535 H564 0.980 . S
O536 C481 1.426 . S
O536 C482 1.334 . S
O537 C509 1.412 . S
O537 C510 1.393 . S
O538 C500 1.435 . S
O538 C535 1.458 . S
O539 C491 1.468 . S
O539 C492 1.408 . S
H540 C481 0.980 . S
H541 C480 0.959 . S
H542 C480 0.959 . S
H543 C480 0.960 . S
H544 C483 0.929 . S
H545 C487 0.929 . S
H546 C488 0.959 . S
H547 C488 0.961 . S
H548 C488 0.961 . S
H549 C489 0.960 . S
H550 C489 0.960 . S
H551 C489 0.961 . S
H552 C491 0.980 . S
H553 C490 0.961 . S
H554 C490 0.960 . S
H555 C490 0.959 . S
H556 C493 0.930 . S
H557 C497 0.931 . S
H558 C498 0.959 . S
H559 C498 0.961 . S
H560 C498 0.959 . S
H561 C499 0.960 . S
H562 C499 0.960 . S
H563 C499 0.960 . S
H564 C535 0.980 . S
H565 C501 0.930 . S
H566 C505 0.930 . S
H567 C506 0.961 . S
H568 C506 0.960 . S
H569 C506 0.958 . S
H570 C507 0.961 . S
H571 C507 0.960 . S
H572 C507 0.960 . S
H573 C509 0.980 . S
H574 C508 0.961 . S
H575 C508 0.961 . S
H576 C508 0.959 . S
H577 C511 0.932 . S
H578 C515 0.929 . S
H579 C516 0.961 . S
H580 C516 0.959 . S
H581 C516 0.959 . S
H582 C517 0.960 . S
H583 C517 0.962 . S
H584 C517 0.961 . S
H585 C519 0.929 . S
H586 C522 0.930 . S
H587 C523 0.929 . S
H588 C526 0.930 . S
H589 C529 0.929 . S
H590 C530 0.930 . S
H591 C534 0.962 . S
H592 C534 0.959 . S
H593 C534 0.958 . S
C594 C595 1.560 . S
C594 H655 0.959 . S
C594 H656 0.959 . S
C594 H657 0.960 . S
C595 C594 1.560 . S
C595 O650 1.426 . S
C595 H654 0.980 . S
C596 C597 1.407 . S
C596 C601 1.418 . S
C596 O650 1.334 . S
C597 C596 1.407 . S
C597 C598 1.360 . S
C597 H658 0.929 . S
C598 C597 1.360 . S
C598 C599 1.401 . S
C598 C602 1.527 . S
C599 C598 1.401 . S
C599 C600 1.405 . S
C599 C632 1.587 . S
C600 C599 1.405 . S
C600 C601 1.332 . S
C600 C603 1.496 . S
C601 C596 1.418 . S
C601 C600 1.332 . S
C601 H659 0.929 . S
C602 C598 1.527 . S
C602 H660 0.959 . S
C602 H661 0.961 . S
C602 H662 0.961 . S
C603 C600 1.496 . S
C603 H663 0.960 . S
C603 H664 0.960 . S
C603 H665 0.961 . S
C604 C605 1.517 . S
C604 H667 0.961 . S
C604 H668 0.960 . S
C604 H669 0.959 . S
C605 C604 1.517 . S
C605 O653 1.468 . S
C605 H666 0.980 . S
C606 C607 1.349 . S
C606 C611 1.367 . S
C606 O653 1.408 . S
C607 C606 1.349 . S
C607 C608 1.407 . S
C607 H670 0.930 . S
C608 C607 1.407 . S
C608 C609 1.449 . S
C608 C612 1.535 . S
C609 C608 1.449 . S
C609 C610 1.384 . S
C609 C634 1.553 . S
C610 C609 1.384 . S
C610 C611 1.364 . S
C610 C613 1.450 . S
C611 C606 1.367 . S
C611 C610 1.364 . S
C611 H671 0.931 . S
C612 C608 1.535 . S
C612 H672 0.959 . S
C612 H673 0.961 . S
C612 H674 0.959 . S
C613 C610 1.450 . S
C613 H675 0.960 . S
C613 H676 0.960 . S
C613 H677 0.960 . S
C614 C615 1.309 . S
C614 C619 1.304 . S
C614 O652 1.435 . S
C615 C614 1.309 . S
C615 C616 1.476 . S
C615 H679 0.930 . S
C616 C615 1.476 . S
C616 C617 1.400 . S
C616 C620 1.567 . S
C617 C616 1.400 . S
C617 C618 1.373 . S
C617 C639 1.432 . S
C618 C617 1.373 . S
C618 C619 1.339 . S
C618 C621 1.530 . S
C619 C614 1.304 . S
C619 C618 1.339 . S
C619 H680 0.930 . S
C620 C616 1.567 . S
C620 H681 0.961 . S
C620 H682 0.960 . S
C620 H683 0.958 . S
C621 C618 1.530 . S
C621 H684 0.961 . S
C621 H685 0.960 . S
C621 H686 0.960 . S
C622 C623 1.530 . S
C622 H688 0.961 . S
C622 H689 0.961 . S
C622 H690 0.959 . S
C623 C622 1.530 . S
C623 O651 1.412 . S
C623 H687 0.980 . S
C624 C625 1.288 . S
C624 C629 1.377 . S
C624 O651 1.393 . S
C625 C624 1.288 . S
C625 C626 1.369 . S
C625 H691 0.932 . S
C626 C625 1.369 . S
C626 C627 1.398 . S
C626 C630 1.527 . S
C627 C626 1.398 . S
C627 C628 1.380 . S
C627 C641 1.497 . S
C628 C627 1.380 . S
C628 C629 1.383 . S
C628 C631 1.603 . S
C629 C624 1.377 . S
C629 C628 1.383 . S
C629 H692 0.929 . S
C630 C626 1.527 . S
C630 H693 0.961 . S
C630 H694 0.959 . S
C630 H695 0.959 . S
C631 C628 1.603 . S
C631 H696 0.960 . S
C631 H697 0.962 . S
C631 H698 0.961 . S
C632 C599 1.587 . S
C632 C633 1.360 . S
C632 C645 1.412 . S
C633 C632 1.360 . S
C633 C634 1.365 . S
C633 H699 0.929 . S
C634 C609 1.553 . S
C634 C633 1.365 . S
C634 C635 1.404 . S
C635 C634 1.404 . S
C635 C636 1.395 . S
C635 C646 1.451 . S
C636 C635 1.395 . S
C636 C637 1.322 . S
C636 H700 0.930 . S
C637 C636 1.322 . S
C637 C638 1.459 . S
C637 H701 0.929 . S
C638 C637 1.459 . S
C638 C639 1.445 . S
C638 C647 1.395 . S
C639 C617 1.432 . S
C639 C638 1.445 . S
C639 C640 1.370 . S
C640 C639 1.370 . S
C640 C641 1.438 . S
C640 H702 0.930 . S
C641 C627 1.497 . S
C641 C640 1.438 . S
C641 C642 1.360 . S
C642 C641 1.360 . S
C642 C643 1.401 . S
C642 C647 1.446 . S
C643 C642 1.401 . S
C643 C644 1.347 . S
C643 H703 0.929 . S
C644 C643 1.347 . S
C644 C645 1.455 . S
C644 H704 0.930 . S
C645 C632 1.412 . S
C645 C644 1.455 . S
C645 C646 1.331 . S
C646 C635 1.451 . S
C646 C645 1.331 . S
C646 C647 1.497 . S
C647 C638 1.395 . S
C647 C642 1.446 . S
C647 C646 1.497 . S
C648 C649 1.582 . S
C648 H705 0.962 . S
C648 H706 0.959 . S
C648 H707 0.958 . S
C649 C648 1.582 . S
C649 O652 1.458 . S
C649 H678 0.980 . S
O650 C595 1.426 . S
O650 C596 1.334 . S
O651 C623 1.412 . S
O651 C624 1.393 . S
O652 C614 1.435 . S
O652 C649 1.458 . S
O653 C605 1.468 . S
O653 C606 1.408 . S
H654 C595 0.980 . S
H655 C594 0.959 . S
H656 C594 0.959 . S
H657 C594 0.960 . S
H658 C597 0.929 . S
H659 C601 0.929 . S
H660 C602 0.959 . S
H661 C602 0.961 . S
H662 C602 0.961 . S
H663 C603 0.960 . S
H664 C603 0.960 . S
H665 C603 0.961 . S
H666 C605 0.980 . S
H667 C604 0.961 . S
H668 C604 0.960 . S
H669 C604 0.959 . S
H670 C607 0.930 . S
H671 C611 0.931 . S
H672 C612 0.959 . S
H673 C612 0.961 . S
H674 C612 0.959 . S
H675 C613 0.960 . S
H676 C613 0.960 . S
H677 C613 0.960 . S
H678 C649 0.980 . S
H679 C615 0.930 . S
H680 C619 0.930 . S
H681 C620 0.961 . S
H682 C620 0.960 . S
H683 C620 0.958 . S
H684 C621 0.961 . S
H685 C621 0.960 . S
H686 C621 0.960 . S
H687 C623 0.980 . S
H688 C622 0.961 . S
H689 C622 0.961 . S
H690 C622 0.959 . S
H691 C625 0.932 . S
H692 C629 0.929 . S
H693 C630 0.961 . S
H694 C630 0.959 . S
H695 C630 0.959 . S
H696 C631 0.960 . S
H697 C631 0.962 . S
H698 C631 0.961 . S
H699 C633 0.929 . S
H700 C636 0.930 . S
H701 C637 0.929 . S
H702 C640 0.930 . S
H703 C643 0.929 . S
H704 C644 0.930 . S
H705 C648 0.962 . S
H706 C648 0.959 . S
H707 C648 0.958 . S
C708 C709 1.560 . S
C708 H769 0.959 . S
C708 H770 0.959 . S
C708 H771 0.960 . S
C709 C708 1.560 . S
C709 O764 1.426 . S
C709 H768 0.980 . S
C710 C711 1.407 . S
C710 C715 1.418 . S
C710 O764 1.334 . S
C711 C710 1.407 . S
C711 C712 1.360 . S
C711 H772 0.929 . S
C712 C711 1.360 . S
C712 C713 1.401 . S
C712 C716 1.527 . S
C713 C712 1.401 . S
C713 C714 1.405 . S
C713 C746 1.587 . S
C714 C713 1.405 . S
C714 C715 1.332 . S
C714 C717 1.496 . S
C715 C710 1.418 . S
C715 C714 1.332 . S
C715 H773 0.929 . S
C716 C712 1.527 . S
C716 H774 0.959 . S
C716 H775 0.961 . S
C716 H776 0.961 . S
C717 C714 1.496 . S
C717 H777 0.960 . S
C717 H778 0.960 . S
C717 H779 0.961 . S
C718 C719 1.517 . S
C718 H781 0.961 . S
C718 H782 0.960 . S
C718 H783 0.959 . S
C719 C718 1.517 . S
C719 O767 1.468 . S
C719 H780 0.980 . S
C720 C721 1.349 . S
C720 C725 1.367 . S
C720 O767 1.408 . S
C721 C720 1.349 . S
C721 C722 1.407 . S
C721 H784 0.930 . S
C722 C721 1.407 . S
C722 C723 1.449 . S
C722 C726 1.535 . S
C723 C722 1.449 . S
C723 C724 1.384 . S
C723 C748 1.553 . S
C724 C723 1.384 . S
C724 C725 1.364 . S
C724 C727 1.450 . S
C725 C720 1.367 . S
C725 C724 1.364 . S
C725 H785 0.931 . S
C726 C722 1.535 . S
C726 H786 0.959 . S
C726 H787 0.961 . S
C726 H788 0.959 . S
C727 C724 1.450 . S
C727 H789 0.960 . S
C727 H790 0.960 . S
C727 H791 0.960 . S
C728 C729 1.309 . S
C728 C733 1.304 . S
C728 O766 1.435 . S
C729 C728 1.309 . S
C729 C730 1.476 . S
C729 H793 0.930 . S
C730 C729 1.476 . S
C730 C731 1.400 . S
C730 C734 1.567 . S
C731 C730 1.400 . S
C731 C732 1.373 . S
C731 C753 1.432 . S
C732 C731 1.373 . S
C732 C733 1.339 . S
C732 C735 1.530 . S
C733 C728 1.304 . S
C733 C732 1.339 . S
C733 H794 0.930 . S
C734 C730 1.567 . S
C734 H795 0.961 . S
C734 H796 0.960 . S
C734 H797 0.958 . S
C735 C732 1.530 . S
C735 H798 0.961 . S
C735 H799 0.960 . S
C735 H800 0.960 . S
C736 C737 1.530 . S
C736 H802 0.961 . S
C736 H803 0.961 . S
C736 H804 0.959 . S
C737 C736 1.530 . S
C737 O765 1.412 . S
C737 H801 0.980 . S
C738 C739 1.288 . S
C738 C743 1.377 . S
C738 O765 1.393 . S
C739 C738 1.288 . S
C739 C740 1.369 . S
C739 H805 0.932 . S
C740 C739 1.369 . S
C740 C741 1.398 . S
C740 C744 1.527 . S
C741 C740 1.398 . S
C741 C742 1.380 . S
C741 C755 1.497 . S
C742 C741 1.380 . S
C742 C743 1.383 . S
C742 C745 1.603 . S
C743 C738 1.377 . S
C743 C742 1.383 . S
C743 H806 0.929 . S
C744 C740 1.527 . S
C744 H807 0.961 . S
C744 H808 0.959 . S
C744 H809 0.959 . S
C745 C742 1.603 . S
C745 H810 0.960 . S
C745 H811 0.962 . S
C745 H812 0.961 . S
C746 C713 1.587 . S
C746 C747 1.360 . S
C746 C759 1.412 . S
C747 C746 1.360 . S
C747 C748 1.365 . S
C747 H813 0.929 . S
C748 C723 1.553 . S
C748 C747 1.365 . S
C748 C749 1.404 . S
C749 C748 1.404 . S
C749 C750 1.395 . S
C749 C760 1.451 . S
C750 C749 1.395 . S
C750 C751 1.322 . S
C750 H814 0.930 . S
C751 C750 1.322 . S
C751 C752 1.459 . S
C751 H815 0.929 . S
C752 C751 1.459 . S
C752 C753 1.445 . S
C752 C761 1.395 . S
C753 C731 1.432 . S
C753 C752 1.445 . S
C753 C754 1.370 . S
C754 C753 1.370 . S
C754 C755 1.438 . S
C754 H816 0.930 . S
C755 C741 1.497 . S
C755 C754 1.438 . S
C755 C756 1.360 . S
C756 C755 1.360 . S
C756 C757 1.401 . S
C756 C761 1.446 . S
C757 C756 1.401 . S
C757 C758 1.347 . S
C757 H817 0.929 . S
C758 C757 1.347 . S
C758 C759 1.455 . S
C758 H818 0.930 . S
C759 C746 1.412 . S
C759 C758 1.455 . S
C759 C760 1.331 . S
C760 C749 1.451 . S
C760 C759 1.331 . S
C760 C761 1.497 . S
C761 C752 1.395 . S
C761 C756 1.446 . S
C761 C760 1.497 . S
C762 C763 1.582 . S
C762 H819 0.962 . S
C762 H820 0.959 . S
C762 H821 0.958 . S
C763 C762 1.582 . S
C763 O766 1.458 . S
C763 H792 0.980 . S
O764 C709 1.426 . S
O764 C710 1.334 . S
O765 C737 1.412 . S
O765 C738 1.393 . S
O766 C728 1.435 . S
O766 C763 1.458 . S
O767 C719 1.468 . S
O767 C720 1.408 . S
H768 C709 0.980 . S
H769 C708 0.959 . S
H770 C708 0.959 . S
H771 C708 0.960 . S
H772 C711 0.929 . S
H773 C715 0.929 . S
H774 C716 0.959 . S
H775 C716 0.961 . S
H776 C716 0.961 . S
H777 C717 0.960 . S
H778 C717 0.960 . S
H779 C717 0.961 . S
H780 C719 0.980 . S
H781 C718 0.961 . S
H782 C718 0.960 . S
H783 C718 0.959 . S
H784 C721 0.930 . S
H785 C725 0.931 . S
H786 C726 0.959 . S
H787 C726 0.961 . S
H788 C726 0.959 . S
H789 C727 0.960 . S
H790 C727 0.960 . S
H791 C727 0.960 . S
H792 C763 0.980 . S
H793 C729 0.930 . S
H794 C733 0.930 . S
H795 C734 0.961 . S
H796 C734 0.960 . S
H797 C734 0.958 . S
H798 C735 0.961 . S
H799 C735 0.960 . S
H800 C735 0.960 . S
H801 C737 0.980 . S
H802 C736 0.961 . S
H803 C736 0.961 . S
H804 C736 0.959 . S
H805 C739 0.932 . S
H806 C743 0.929 . S
H807 C744 0.961 . S
H808 C744 0.959 . S
H809 C744 0.959 . S
H810 C745 0.960 . S
H811 C745 0.962 . S
H812 C745 0.961 . S
H813 C747 0.929 . S
H814 C750 0.930 . S
H815 C751 0.929 . S
H816 C754 0.930 . S
H817 C757 0.929 . S
H818 C758 0.930 . S
H819 C762 0.962 . S
H820 C762 0.959 . S
H821 C762 0.958 . S
C822 C823 1.560 . S
C822 H883 0.959 . S
C822 H884 0.959 . S
C822 H885 0.960 . S
C823 C822 1.560 . S
C823 O878 1.426 . S
C823 H882 0.980 . S
C824 C825 1.407 . S
C824 C829 1.418 . S
C824 O878 1.334 . S
C825 C824 1.407 . S
C825 C826 1.360 . S
C825 H886 0.929 . S
C826 C825 1.360 . S
C826 C827 1.401 . S
C826 C830 1.527 . S
C827 C826 1.401 . S
C827 C828 1.405 . S
C827 C860 1.587 . S
C828 C827 1.405 . S
C828 C829 1.332 . S
C828 C831 1.496 . S
C829 C824 1.418 . S
C829 C828 1.332 . S
C829 H887 0.929 . S
C830 C826 1.527 . S
C830 H888 0.959 . S
C830 H889 0.961 . S
C830 H890 0.961 . S
C831 C828 1.496 . S
C831 H891 0.960 . S
C831 H892 0.960 . S
C831 H893 0.961 . S
C832 C833 1.517 . S
C832 H895 0.961 . S
C832 H896 0.960 . S
C832 H897 0.959 . S
C833 C832 1.517 . S
C833 O881 1.468 . S
C833 H894 0.980 . S
C834 C835 1.349 . S
C834 C839 1.367 . S
C834 O881 1.408 . S
C835 C834 1.349 . S
C835 C836 1.407 . S
C835 H898 0.930 . S
C836 C835 1.407 . S
C836 C837 1.449 . S
C836 C840 1.535 . S
C837 C836 1.449 . S
C837 C838 1.384 . S
C837 C862 1.553 . S
C838 C837 1.384 . S
C838 C839 1.364 . S
C838 C841 1.450 . S
C839 C834 1.367 . S
C839 C838 1.364 . S
C839 H899 0.931 . S
C840 C836 1.535 . S
C840 H900 0.959 . S
C840 H901 0.961 . S
C840 H902 0.959 . S
C841 C838 1.450 . S
C841 H903 0.960 . S
C841 H904 0.960 . S
C841 H905 0.960 . S
C842 C843 1.309 . S
C842 C847 1.304 . S
C842 O880 1.435 . S
C843 C842 1.309 . S
C843 C844 1.476 . S
C843 H907 0.930 . S
C844 C843 1.476 . S
C844 C845 1.400 . S
C844 C848 1.567 . S
C845 C844 1.400 . S
C845 C846 1.373 . S
C845 C867 1.432 . S
C846 C845 1.373 . S
C846 C847 1.339 . S
C846 C849 1.530 . S
C847 C842 1.304 . S
C847 C846 1.339 . S
C847 H908 0.930 . S
C848 C844 1.567 . S
C848 H909 0.961 . S
C848 H910 0.960 . S
C848 H911 0.958 . S
C849 C846 1.530 . S
C849 H912 0.961 . S
C849 H913 0.960 . S
C849 H914 0.960 . S
C850 C851 1.530 . S
C850 H916 0.961 . S
C850 H917 0.961 . S
C850 H918 0.959 . S
C851 C850 1.530 . S
C851 O879 1.412 . S
C851 H915 0.980 . S
C852 C853 1.288 . S
C852 C857 1.377 . S
C852 O879 1.393 . S
C853 C852 1.288 . S
C853 C854 1.369 . S
C853 H919 0.932 . S
C854 C853 1.369 . S
C854 C855 1.398 . S
C854 C858 1.527 . S
C855 C854 1.398 . S
C855 C856 1.380 . S
C855 C869 1.497 . S
C856 C855 1.380 . S
C856 C857 1.383 . S
C856 C859 1.603 . S
C857 C852 1.377 . S
C857 C856 1.383 . S
C857 H920 0.929 . S
C858 C854 1.527 . S
C858 H921 0.961 . S
C858 H922 0.959 . S
C858 H923 0.959 . S
C859 C856 1.603 . S
C859 H924 0.960 . S
C859 H925 0.962 . S
C859 H926 0.961 . S
C860 C827 1.587 . S
C860 C861 1.360 . S
C860 C873 1.412 . S
C861 C860 1.360 . S
C861 C862 1.365 . S
C861 H927 0.929 . S
C862 C837 1.553 . S
C862 C861 1.365 . S
C862 C863 1.404 . S
C863 C862 1.404 . S
C863 C864 1.395 . S
C863 C874 1.451 . S
C864 C863 1.395 . S
C864 C865 1.322 . S
C864 H928 0.930 . S
C865 C864 1.322 . S
C865 C866 1.459 . S
C865 H929 0.929 . S
C866 C865 1.459 . S
C866 C867 1.445 . S
C866 C875 1.395 . S
C867 C845 1.432 . S
C867 C866 1.445 . S
C867 C868 1.370 . S
C868 C867 1.370 . S
C868 C869 1.438 . S
C868 H930 0.930 . S
C869 C855 1.497 . S
C869 C868 1.438 . S
C869 C870 1.360 . S
C870 C869 1.360 . S
C870 C871 1.401 . S
C870 C875 1.446 . S
C871 C870 1.401 . S
C871 C872 1.347 . S
C871 H931 0.929 . S
C872 C871 1.347 . S
C872 C873 1.455 . S
C872 H932 0.930 . S
C873 C860 1.412 . S
C873 C872 1.455 . S
C873 C874 1.331 . S
C874 C863 1.451 . S
C874 C873 1.331 . S
C874 C875 1.497 . S
C875 C866 1.395 . S
C875 C870 1.446 . S
C875 C874 1.497 . S
C876 C877 1.582 . S
C876 H933 0.962 . S
C876 H934 0.959 . S
C876 H935 0.958 . S
C877 C876 1.582 . S
C877 O880 1.458 . S
C877 H906 0.980 . S
O878 C823 1.426 . S
O878 C824 1.334 . S
O879 C851 1.412 . S
O879 C852 1.393 . S
O880 C842 1.435 . S
O880 C877 1.458 . S
O881 C833 1.468 . S
O881 C834 1.408 . S
H882 C823 0.980 . S
H883 C822 0.959 . S
H884 C822 0.959 . S
H885 C822 0.960 . S
H886 C825 0.929 . S
H887 C829 0.929 . S
H888 C830 0.959 . S
H889 C830 0.961 . S
H890 C830 0.961 . S
H891 C831 0.960 . S
H892 C831 0.960 . S
H893 C831 0.961 . S
H894 C833 0.980 . S
H895 C832 0.961 . S
H896 C832 0.960 . S
H897 C832 0.959 . S
H898 C835 0.930 . S
H899 C839 0.931 . S
H900 C840 0.959 . S
H901 C840 0.961 . S
H902 C840 0.959 . S
H903 C841 0.960 . S
H904 C841 0.960 . S
H905 C841 0.960 . S
H906 C877 0.980 . S
H907 C843 0.930 . S
H908 C847 0.930 . S
H909 C848 0.961 . S
H910 C848 0.960 . S
H911 C848 0.958 . S
H912 C849 0.961 . S
H913 C849 0.960 . S
H914 C849 0.960 . S
H915 C851 0.980 . S
H916 C850 0.961 . S
H917 C850 0.961 . S
H918 C850 0.959 . S
H919 C853 0.932 . S
H920 C857 0.929 . S
H921 C858 0.961 . S
H922 C858 0.959 . S
H923 C858 0.959 . S
H924 C859 0.960 . S
H925 C859 0.962 . S
H926 C859 0.961 . S
H927 C861 0.929 . S
H928 C864 0.930 . S
H929 C865 0.929 . S
H930 C868 0.930 . S
H931 C871 0.929 . S
H932 C872 0.930 . S
H933 C876 0.962 . S
H934 C876 0.959 . S
H935 C876 0.958 . S
C936 C937 1.560 . S
C936 H997 0.959 . S
C936 H998 0.959 . S
C936 H999 0.960 . S
C937 C936 1.560 . S
C937 O992 1.426 . S
C937 H996 0.980 . S
C938 C939 1.407 . S
C938 C943 1.418 . S
C938 O992 1.334 . S
C939 C938 1.407 . S
C939 C940 1.360 . S
C939 H1000 0.929 . S
C940 C939 1.360 . S
C940 C941 1.401 . S
C940 C944 1.527 . S
C941 C940 1.401 . S
C941 C942 1.405 . S
C941 C974 1.587 . S
C942 C941 1.405 . S
C942 C943 1.332 . S
C942 C945 1.496 . S
C943 C938 1.418 . S
C943 C942 1.332 . S
C943 H1001 0.929 . S
C944 C940 1.527 . S
C944 H1002 0.959 . S
C944 H1003 0.961 . S
C944 H1004 0.961 . S
C945 C942 1.496 . S
C945 H1005 0.960 . S
C945 H1006 0.960 . S
C945 H1007 0.961 . S
C946 C947 1.517 . S
C946 H1009 0.961 . S
C946 H1010 0.960 . S
C946 H1011 0.959 . S
C947 C946 1.517 . S
C947 O995 1.468 . S
C947 H1008 0.980 . S
C948 C949 1.349 . S
C948 C953 1.367 . S
C948 O995 1.408 . S
C949 C948 1.349 . S
C949 C950 1.407 . S
C949 H1012 0.930 . S
C950 C949 1.407 . S
C950 C951 1.449 . S
C950 C954 1.535 . S
C951 C950 1.449 . S
C951 C952 1.384 . S
C951 C976 1.553 . S
C952 C951 1.384 . S
C952 C953 1.364 . S
C952 C955 1.450 . S
C953 C948 1.367 . S
C953 C952 1.364 . S
C953 H1013 0.931 . S
C954 C950 1.535 . S
C954 H1014 0.959 . S
C954 H1015 0.961 . S
C954 H1016 0.959 . S
C955 C952 1.450 . S
C955 H1017 0.960 . S
C955 H1018 0.960 . S
C955 H1019 0.960 . S
C956 C957 1.309 . S
C956 C961 1.304 . S
C956 O994 1.435 . S
C957 C956 1.309 . S
C957 C958 1.476 . S
C957 H1021 0.930 . S
C958 C957 1.476 . S
C958 C959 1.400 . S
C958 C962 1.567 . S
C959 C958 1.400 . S
C959 C960 1.373 . S
C959 C981 1.432 . S
C960 C959 1.373 . S
C960 C961 1.339 . S
C960 C963 1.530 . S
C961 C956 1.304 . S
C961 C960 1.339 . S
C961 H1022 0.930 . S
C962 C958 1.567 . S
C962 H1023 0.961 . S
C962 H1024 0.960 . S
C962 H1025 0.958 . S
C963 C960 1.530 . S
C963 H1026 0.961 . S
C963 H1027 0.960 . S
C963 H1028 0.960 . S
C964 C965 1.530 . S
C964 H1030 0.961 . S
C964 H1031 0.961 . S
C964 H1032 0.959 . S
C965 C964 1.530 . S
C965 O993 1.412 . S
C965 H1029 0.980 . S
C966 C967 1.288 . S
C966 C971 1.377 . S
C966 O993 1.393 . S
C967 C966 1.288 . S
C967 C968 1.369 . S
C967 H1033 0.932 . S
C968 C967 1.369 . S
C968 C969 1.398 . S
C968 C972 1.527 . S
C969 C968 1.398 . S
C969 C970 1.380 . S
C969 C983 1.497 . S
C970 C969 1.380 . S
C970 C971 1.383 . S
C970 C973 1.603 . S
C971 C966 1.377 . S
C971 C970 1.383 . S
C971 H1034 0.929 . S
C972 C968 1.527 . S
C972 H1035 0.961 . S
C972 H1036 0.959 . S
C972 H1037 0.959 . S
C973 C970 1.603 . S
C973 H1038 0.960 . S
C973 H1039 0.962 . S
C973 H1040 0.961 . S
C974 C941 1.587 . S
C974 C975 1.360 . S
C974 C987 1.412 . S
C975 C974 1.360 . S
C975 C976 1.365 . S
C975 H1041 0.929 . S
C976 C951 1.553 . S
C976 C975 1.365 . S
C976 C977 1.404 . S
C977 C976 1.404 . S
C977 C978 1.395 . S
C977 C988 1.451 . S
C978 C977 1.395 . S
C978 C979 1.322 . S
C978 H1042 0.930 . S
C979 C978 1.322 . S
C979 C980 1.459 . S
C979 H1043 0.929 . S
C980 C979 1.459 . S
C980 C981 1.445 . S
C980 C989 1.395 . S
C981 C959 1.432 . S
C981 C980 1.445 . S
C981 C982 1.370 . S
C982 C981 1.370 . S
C982 C983 1.438 . S
C982 H1044 0.930 . S
C983 C969 1.497 . S
C983 C982 1.438 . S
C983 C984 1.360 . S
C984 C983 1.360 . S
C984 C985 1.401 . S
C984 C989 1.446 . S
C985 C984 1.401 . S
C985 C986 1.347 . S
C985 H1045 0.929 . S
C986 C985 1.347 . S
C986 C987 1.455 . S
C986 H1046 0.930 . S
C987 C974 1.412 . S
C987 C986 1.455 . S
C987 C988 1.331 . S
C988 C977 1.451 . S
C988 C987 1.331 . S
C988 C989 1.497 . S
C989 C980 1.395 . S
C989 C984 1.446 . S
C989 C988 1.497 . S
C990 C991 1.582 . S
C990 H1047 0.962 . S
C990 H1048 0.959 . S
C990 H1049 0.958 . S
C991 C990 1.582 . S
C991 O994 1.458 . S
C991 H1020 0.980 . S
O992 C937 1.426 . S
O992 C938 1.334 . S
O993 C965 1.412 . S
O993 C966 1.393 . S
O994 C956 1.435 . S
O994 C991 1.458 . S
O995 C947 1.468 . S
O995 C948 1.408 . S
H996 C937 0.980 . S
H997 C936 0.959 . S
H998 C936 0.959 . S
H999 C936 0.960 . S
H1000 C939 0.929 . S
H1001 C943 0.929 . S
H1002 C944 0.959 . S
H1003 C944 0.961 . S
H1004 C944 0.961 . S
H1005 C945 0.960 . S
H1006 C945 0.960 . S
H1007 C945 0.961 . S
H1008 C947 0.980 . S
H1009 C946 0.961 . S
H1010 C946 0.960 . S
H1011 C946 0.959 . S
H1012 C949 0.930 . S
H1013 C953 0.931 . S
H1014 C954 0.959 . S
H1015 C954 0.961 . S
H1016 C954 0.959 . S
H1017 C955 0.960 . S
H1018 C955 0.960 . S
H1019 C955 0.960 . S
H1020 C991 0.980 . S
H1021 C957 0.930 . S
H1022 C961 0.930 . S
H1023 C962 0.961 . S
H1024 C962 0.960 . S
H1025 C962 0.958 . S
H1026 C963 0.961 . S
H1027 C963 0.960 . S
H1028 C963 0.960 . S
H1029 C965 0.980 . S
H1030 C964 0.961 . S
H1031 C964 0.961 . S
H1032 C964 0.959 . S
H1033 C967 0.932 . S
H1034 C971 0.929 . S
H1035 C972 0.961 . S
H1036 C972 0.959 . S
H1037 C972 0.959 . S
H1038 C973 0.960 . S
H1039 C973 0.962 . S
H1040 C973 0.961 . S
H1041 C975 0.929 . S
H1042 C978 0.930 . S
H1043 C979 0.929 . S
H1044 C982 0.930 . S
H1045 C985 0.929 . S
H1046 C986 0.930 . S
H1047 C990 0.962 . S
H1048 C990 0.959 . S
H1049 C990 0.958 . S
C1050 C1051 1.560 . S
C1050 H1111 0.959 . S
C1050 H1112 0.959 . S
C1050 H1113 0.960 . S
C1051 C1050 1.560 . S
C1051 O1106 1.426 . S
C1051 H1110 0.980 . S
C1052 C1053 1.407 . S
C1052 C1057 1.418 . S
C1052 O1106 1.334 . S
C1053 C1052 1.407 . S
C1053 C1054 1.360 . S
C1053 H1114 0.929 . S
C1054 C1053 1.360 . S
C1054 C1055 1.401 . S
C1054 C1058 1.527 . S
C1055 C1054 1.401 . S
C1055 C1056 1.405 . S
C1055 C1088 1.587 . S
C1056 C1055 1.405 . S
C1056 C1057 1.332 . S
C1056 C1059 1.496 . S
C1057 C1052 1.418 . S
C1057 C1056 1.332 . S
C1057 H1115 0.929 . S
C1058 C1054 1.527 . S
C1058 H1116 0.959 . S
C1058 H1117 0.961 . S
C1058 H1118 0.961 . S
C1059 C1056 1.496 . S
C1059 H1119 0.960 . S
C1059 H1120 0.960 . S
C1059 H1121 0.961 . S
C1060 C1061 1.517 . S
C1060 H1123 0.961 . S
C1060 H1124 0.960 . S
C1060 H1125 0.959 . S
C1061 C1060 1.517 . S
C1061 O1109 1.468 . S
C1061 H1122 0.980 . S
C1062 C1063 1.349 . S
C1062 C1067 1.367 . S
C1062 O1109 1.408 . S
C1063 C1062 1.349 . S
C1063 C1064 1.407 . S
C1063 H1126 0.930 . S
C1064 C1063 1.407 . S
C1064 C1065 1.449 . S
C1064 C1068 1.535 . S
C1065 C1064 1.449 . S
C1065 C1066 1.384 . S
C1065 C1090 1.553 . S
C1066 C1065 1.384 . S
C1066 C1067 1.364 . S
C1066 C1069 1.450 . S
C1067 C1062 1.367 . S
C1067 C1066 1.364 . S
C1067 H1127 0.931 . S
C1068 C1064 1.535 . S
C1068 H1128 0.959 . S
C1068 H1129 0.961 . S
C1068 H1130 0.959 . S
C1069 C1066 1.450 . S
C1069 H1131 0.960 . S
C1069 H1132 0.960 . S
C1069 H1133 0.960 . S
C1070 C1071 1.309 . S
C1070 C1075 1.304 . S
C1070 O1108 1.435 . S
C1071 C1070 1.309 . S
C1071 C1072 1.476 . S
C1071 H1135 0.930 . S
C1072 C1071 1.476 . S
C1072 C1073 1.400 . S
C1072 C1076 1.567 . S
C1073 C1072 1.400 . S
C1073 C1074 1.373 . S
C1073 C1095 1.432 . S
C1074 C1073 1.373 . S
C1074 C1075 1.339 . S
C1074 C1077 1.530 . S
C1075 C1070 1.304 . S
C1075 C1074 1.339 . S
C1075 H1136 0.930 . S
C1076 C1072 1.567 . S
C1076 H1137 0.961 . S
C1076 H1138 0.960 . S
C1076 H1139 0.958 . S
C1077 C1074 1.530 . S
C1077 H1140 0.961 . S
C1077 H1141 0.960 . S
C1077 H1142 0.960 . S
C1078 C1079 1.530 . S
C1078 H1144 0.961 . S
C1078 H1145 0.961 . S
C1078 H1146 0.959 . S
C1079 C1078 1.530 . S
C1079 O1107 1.412 . S
C1079 H1143 0.980 . S
C1080 C1081 1.288 . S
C1080 C1085 1.377 . S
C1080 O1107 1.393 . S
C1081 C1080 1.288 . S
C1081 C1082 1.369 . S
C1081 H1147 0.932 . S
C1082 C1081 1.369 . S
C1082 C1083 1.398 . S
C1082 C1086 1.527 . S
C1083 C1082 1.398 . S
C1083 C1084 1.380 . S
C1083 C1097 1.497 . S
C1084 C1083 1.380 . S
C1084 C1085 1.383 . S
C1084 C1087 1.603 . S
C1085 C1080 1.377 . S
C1085 C1084 1.383 . S
C1085 H1148 0.929 . S
C1086 C1082 1.527 . S
C1086 H1149 0.961 . S
C1086 H1150 0.959 . S
C1086 H1151 0.959 . S
C1087 C1084 1.603 . S
C1087 H1152 0.960 . S
C1087 H1153 0.962 . S
C1087 H1154 0.961 . S
C1088 C1055 1.587 . S
C1088 C1089 1.360 . S
C1088 C1101 1.412 . S
C1089 C1088 1.360 . S
C1089 C1090 1.365 . S
C1089 H1155 0.929 . S
C1090 C1065 1.553 . S
C1090 C1089 1.365 . S
C1090 C1091 1.404 . S
C1091 C1090 1.404 . S
C1091 C1092 1.395 . S
C1091 C1102 1.451 . S
C1092 C1091 1.395 . S
C1092 C1093 1.322 . S
C1092 H1156 0.930 . S
C1093 C1092 1.322 . S
C1093 C1094 1.459 . S
C1093 H1157 0.929 . S
C1094 C1093 1.459 . S
C1094 C1095 1.445 . S
C1094 C1103 1.395 . S
C1095 C1073 1.432 . S
C1095 C1094 1.445 . S
C1095 C1096 1.370 . S
C1096 C1095 1.370 . S
C1096 C1097 1.438 . S
C1096 H1158 0.930 . S
C1097 C1083 1.497 . S
C1097 C1096 1.438 . S
C1097 C1098 1.360 . S
C1098 C1097 1.360 . S
C1098 C1099 1.401 . S
C1098 C1103 1.446 . S
C1099 C1098 1.401 . S
C1099 C1100 1.347 . S
C1099 H1159 0.929 . S
C1100 C1099 1.347 . S
C1100 C1101 1.455 . S
C1100 H1160 0.930 . S
C1101 C1088 1.412 . S
C1101 C1100 1.455 . S
C1101 C1102 1.331 . S
C1102 C1091 1.451 . S
C1102 C1101 1.331 . S
C1102 C1103 1.497 . S
C1103 C1094 1.395 . S
C1103 C1098 1.446 . S
C1103 C1102 1.497 . S
C1104 C1105 1.582 . S
C1104 H1161 0.962 . S
C1104 H1162 0.959 . S
C1104 H1163 0.958 . S
C1105 C1104 1.582 . S
C1105 O1108 1.458 . S
C1105 H1134 0.980 . S
O1106 C1051 1.426 . S
O1106 C1052 1.334 . S
O1107 C1079 1.412 . S
O1107 C1080 1.393 . S
O1108 C1070 1.435 . S
O1108 C1105 1.458 . S
O1109 C1061 1.468 . S
O1109 C1062 1.408 . S
H1110 C1051 0.980 . S
H1111 C1050 0.959 . S
H1112 C1050 0.959 . S
H1113 C1050 0.960 . S
H1114 C1053 0.929 . S
H1115 C1057 0.929 . S
H1116 C1058 0.959 . S
H1117 C1058 0.961 . S
H1118 C1058 0.961 . S
H1119 C1059 0.960 . S
H1120 C1059 0.960 . S
H1121 C1059 0.961 . S
H1122 C1061 0.980 . S
H1123 C1060 0.961 . S
H1124 C1060 0.960 . S
H1125 C1060 0.959 . S
H1126 C1063 0.930 . S
H1127 C1067 0.931 . S
H1128 C1068 0.959 . S
H1129 C1068 0.961 . S
H1130 C1068 0.959 . S
H1131 C1069 0.960 . S
H1132 C1069 0.960 . S
H1133 C1069 0.960 . S
H1134 C1105 0.980 . S
H1135 C1071 0.930 . S
H1136 C1075 0.930 . S
H1137 C1076 0.961 . S
H1138 C1076 0.960 . S
H1139 C1076 0.958 . S
H1140 C1077 0.961 . S
H1141 C1077 0.960 . S
H1142 C1077 0.960 . S
H1143 C1079 0.980 . S
H1144 C1078 0.961 . S
H1145 C1078 0.961 . S
H1146 C1078 0.959 . S
H1147 C1081 0.932 . S
H1148 C1085 0.929 . S
H1149 C1086 0.961 . S
H1150 C1086 0.959 . S
H1151 C1086 0.959 . S
H1152 C1087 0.960 . S
H1153 C1087 0.962 . S
H1154 C1087 0.961 . S
H1155 C1089 0.929 . S
H1156 C1092 0.930 . S
H1157 C1093 0.929 . S
H1158 C1096 0.930 . S
H1159 C1099 0.929 . S
H1160 C1100 0.930 . S
H1161 C1104 0.962 . S
H1162 C1104 0.959 . S
H1163 C1104 0.958 . S
C1164 C1165 1.560 . S
C1164 H1225 0.959 . S
C1164 H1226 0.959 . S
C1164 H1227 0.960 . S
C1165 C1164 1.560 . S
C1165 O1220 1.426 . S
C1165 H1224 0.980 . S
C1166 C1167 1.407 . S
C1166 C1171 1.418 . S
C1166 O1220 1.334 . S
C1167 C1166 1.407 . S
C1167 C1168 1.360 . S
C1167 H1228 0.929 . S
C1168 C1167 1.360 . S
C1168 C1169 1.401 . S
C1168 C1172 1.527 . S
C1169 C1168 1.401 . S
C1169 C1170 1.405 . S
C1169 C1202 1.587 . S
C1170 C1169 1.405 . S
C1170 C1171 1.332 . S
C1170 C1173 1.496 . S
C1171 C1166 1.418 . S
C1171 C1170 1.332 . S
C1171 H1229 0.929 . S
C1172 C1168 1.527 . S
C1172 H1230 0.959 . S
C1172 H1231 0.961 . S
C1172 H1232 0.961 . S
C1173 C1170 1.496 . S
C1173 H1233 0.960 . S
C1173 H1234 0.960 . S
C1173 H1235 0.961 . S
C1174 C1175 1.517 . S
C1174 H1237 0.961 . S
C1174 H1238 0.960 . S
C1174 H1239 0.959 . S
C1175 C1174 1.517 . S
C1175 O1223 1.468 . S
C1175 H1236 0.980 . S
C1176 C1177 1.349 . S
C1176 C1181 1.367 . S
C1176 O1223 1.408 . S
C1177 C1176 1.349 . S
C1177 C1178 1.407 . S
C1177 H1240 0.930 . S
C1178 C1177 1.407 . S
C1178 C1179 1.449 . S
C1178 C1182 1.535 . S
C1179 C1178 1.449 . S
C1179 C1180 1.384 . S
C1179 C1204 1.553 . S
C1180 C1179 1.384 . S
C1180 C1181 1.364 . S
C1180 C1183 1.450 . S
C1181 C1176 1.367 . S
C1181 C1180 1.364 . S
C1181 H1241 0.931 . S
C1182 C1178 1.535 . S
C1182 H1242 0.959 . S
C1182 H1243 0.961 . S
C1182 H1244 0.959 . S
C1183 C1180 1.450 . S
C1183 H1245 0.960 . S
C1183 H1246 0.960 . S
C1183 H1247 0.960 . S
C1184 C1185 1.309 . S
C1184 C1189 1.304 . S
C1184 O1222 1.435 . S
C1185 C1184 1.309 . S
C1185 C1186 1.476 . S
C1185 H1249 0.930 . S
C1186 C1185 1.476 . S
C1186 C1187 1.400 . S
C1186 C1190 1.567 . S
C1187 C1186 1.400 . S
C1187 C1188 1.373 . S
C1187 C1209 1.432 . S
C1188 C1187 1.373 . S
C1188 C1189 1.339 . S
C1188 C1191 1.530 . S
C1189 C1184 1.304 . S
C1189 C1188 1.339 . S
C1189 H1250 0.930 . S
C1190 C1186 1.567 . S
C1190 H1251 0.961 . S
C1190 H1252 0.960 . S
C1190 H1253 0.958 . S
C1191 C1188 1.530 . S
C1191 H1254 0.961 . S
C1191 H1255 0.960 . S
C1191 H1256 0.960 . S
C1192 C1193 1.530 . S
C1192 H1258 0.961 . S
C1192 H1259 0.961 . S
C1192 H1260 0.959 . S
C1193 C1192 1.530 . S
C1193 O1221 1.412 . S
C1193 H1257 0.980 . S
C1194 C1195 1.288 . S
C1194 C1199 1.377 . S
C1194 O1221 1.393 . S
C1195 C1194 1.288 . S
C1195 C1196 1.369 . S
C1195 H1261 0.932 . S
C1196 C1195 1.369 . S
C1196 C1197 1.398 . S
C1196 C1200 1.527 . S
C1197 C1196 1.398 . S
C1197 C1198 1.380 . S
C1197 C1211 1.497 . S
C1198 C1197 1.380 . S
C1198 C1199 1.383 . S
C1198 C1201 1.603 . S
C1199 C1194 1.377 . S
C1199 C1198 1.383 . S
C1199 H1262 0.929 . S
C1200 C1196 1.527 . S
C1200 H1263 0.961 . S
C1200 H1264 0.959 . S
C1200 H1265 0.959 . S
C1201 C1198 1.603 . S
C1201 H1266 0.960 . S
C1201 H1267 0.962 . S
C1201 H1268 0.961 . S
C1202 C1169 1.587 . S
C1202 C1203 1.360 . S
C1202 C1215 1.412 . S
C1203 C1202 1.360 . S
C1203 C1204 1.365 . S
C1203 H1269 0.929 . S
C1204 C1179 1.553 . S
C1204 C1203 1.365 . S
C1204 C1205 1.404 . S
C1205 C1204 1.404 . S
C1205 C1206 1.395 . S
C1205 C1216 1.451 . S
C1206 C1205 1.395 . S
C1206 C1207 1.322 . S
C1206 H1270 0.930 . S
C1207 C1206 1.322 . S
C1207 C1208 1.459 . S
C1207 H1271 0.929 . S
C1208 C1207 1.459 . S
C1208 C1209 1.445 . S
C1208 C1217 1.395 . S
C1209 C1187 1.432 . S
C1209 C1208 1.445 . S
C1209 C1210 1.370 . S
C1210 C1209 1.370 . S
C1210 C1211 1.438 . S
C1210 H1272 0.930 . S
C1211 C1197 1.497 . S
C1211 C1210 1.438 . S
C1211 C1212 1.360 . S
C1212 C1211 1.360 . S
C1212 C1213 1.401 . S
C1212 C1217 1.446 . S
C1213 C1212 1.401 . S
C1213 C1214 1.347 . S
C1213 H1273 0.929 . S
C1214 C1213 1.347 . S
C1214 C1215 1.455 . S
C1214 H1274 0.930 . S
C1215 C1202 1.412 . S
C1215 C1214 1.455 . S
C1215 C1216 1.331 . S
C1216 C1205 1.451 . S
C1216 C1215 1.331 . S
C1216 C1217 1.497 . S
C1217 C1208 1.395 . S
C1217 C1212 1.446 . S
C1217 C1216 1.497 . S
C1218 C1219 1.582 . S
C1218 H1275 0.962 . S
C1218 H1276 0.959 . S
C1218 H1277 0.958 . S
C1219 C1218 1.582 . S
C1219 O1222 1.458 . S
C1219 H1248 0.980 . S
O1220 C1165 1.426 . S
O1220 C1166 1.334 . S
O1221 C1193 1.412 . S
O1221 C1194 1.393 . S
O1222 C1184 1.435 . S
O1222 C1219 1.458 . S
O1223 C1175 1.468 . S
O1223 C1176 1.408 . S
H1224 C1165 0.980 . S
H1225 C1164 0.959 . S
H1226 C1164 0.959 . S
H1227 C1164 0.960 . S
H1228 C1167 0.929 . S
H1229 C1171 0.929 . S
H1230 C1172 0.959 . S
H1231 C1172 0.961 . S
H1232 C1172 0.961 . S
H1233 C1173 0.960 . S
H1234 C1173 0.960 . S
H1235 C1173 0.961 . S
H1236 C1175 0.980 . S
H1237 C1174 0.961 . S
H1238 C1174 0.960 . S
H1239 C1174 0.959 . S
H1240 C1177 0.930 . S
H1241 C1181 0.931 . S
H1242 C1182 0.959 . S
H1243 C1182 0.961 . S
H1244 C1182 0.959 . S
H1245 C1183 0.960 . S
H1246 C1183 0.960 . S
H1247 C1183 0.960 . S
H1248 C1219 0.980 . S
H1249 C1185 0.930 . S
H1250 C1189 0.930 . S
H1251 C1190 0.961 . S
H1252 C1190 0.960 . S
H1253 C1190 0.958 . S
H1254 C1191 0.961 . S
H1255 C1191 0.960 . S
H1256 C1191 0.960 . S
H1257 C1193 0.980 . S
H1258 C1192 0.961 . S
H1259 C1192 0.961 . S
H1260 C1192 0.959 . S
H1261 C1195 0.932 . S
H1262 C1199 0.929 . S
H1263 C1200 0.961 . S
H1264 C1200 0.959 . S
H1265 C1200 0.959 . S
H1266 C1201 0.960 . S
H1267 C1201 0.962 . S
H1268 C1201 0.961 . S
H1269 C1203 0.929 . S
H1270 C1206 0.930 . S
H1271 C1207 0.929 . S
H1272 C1210 0.930 . S
H1273 C1213 0.929 . S
H1274 C1214 0.930 . S
H1275 C1218 0.962 . S
H1276 C1218 0.959 . S
H1277 C1218 0.958 . S
C1278 C1279 1.560 . S
C1278 H1339 0.959 . S
C1278 H1340 0.959 . S
C1278 H1341 0.960 . S
C1279 C1278 1.560 . S
C1279 O1334 1.426 . S
C1279 H1338 0.980 . S
C1280 C1281 1.407 1_455 S
C1280 C1285 1.418 . S
C1280 O1334 1.334 . S
C1281 C1280 1.407 1_655 S
C1281 C1282 1.360 . S
C1281 H1342 0.929 . S
C1282 C1281 1.360 . S
C1282 C1283 1.385 1_655 S
C1282 C1286 1.527 . S
C1283 C1282 1.385 1_455 S
C1283 C1284 1.483 . S
C1283 C1316 1.529 1_455 S
C1284 C1283 1.483 . S
C1284 C1285 1.332 . S
C1284 C1287 1.496 . S
C1285 C1280 1.418 . S
C1285 C1284 1.332 . S
C1285 H1343 0.929 . S
C1286 C1282 1.527 . S
C1286 H1344 0.959 . S
C1286 H1345 0.961 . S
C1286 H1346 0.961 . S
C1287 C1284 1.496 . S
C1287 H1347 0.960 . S
C1287 H1348 0.960 . S
C1287 H1349 0.961 . S
C1288 C1289 1.517 . S
C1288 H1351 0.961 . S
C1288 H1352 0.960 . S
C1288 H1353 0.959 . S
C1289 C1288 1.517 . S
C1289 O1337 1.468 . S
C1289 H1350 0.980 1_655 S
C1290 C1291 1.349 . S
C1290 C1295 1.367 . S
C1290 O1337 1.408 . S
C1291 C1290 1.349 . S
C1291 C1292 1.390 1_655 S
C1291 H1354 0.930 1_655 S
C1292 C1291 1.390 1_455 S
C1292 C1293 1.434 1_455 S
C1292 C1296 1.565 . S
C1293 C1292 1.434 1_655 S
C1293 C1294 1.384 . S
C1293 C1318 1.553 . S
C1294 C1293 1.384 . S
C1294 C1295 1.364 . S
C1294 C1297 1.450 . S
C1295 C1290 1.367 . S
C1295 C1294 1.364 . S
C1295 H1355 0.931 . S
C1296 C1292 1.565 . S
C1296 H1356 0.959 . S
C1296 H1357 0.961 . S
C1296 H1358 0.959 . S
C1297 C1294 1.450 . S
C1297 H1359 0.960 . S
C1297 H1360 0.960 . S
C1297 H1361 0.960 . S
C1298 C1299 1.309 . S
C1298 C1303 1.304 . S
C1298 O1336 1.435 . S
C1299 C1298 1.309 . S
C1299 C1300 1.440 1_655 S
C1299 H1363 0.930 1_655 S
C1300 C1299 1.440 1_455 S
C1300 C1301 1.377 1_455 S
C1300 C1304 1.626 . S
C1301 C1300 1.377 1_655 S
C1301 C1302 1.373 . S
C1301 C1323 1.432 . S
C1302 C1301 1.373 . S
C1302 C1303 1.339 . S
C1302 C1305 1.530 . S
C1303 C1298 1.304 . S
C1303 C1302 1.339 . S
C1303 H1364 0.930 . S
C1304 C1300 1.626 . S
C1304 H1365 0.961 . S
C1304 H1366 0.960 . S
C1304 H1367 0.958 . S
C1305 C1302 1.530 . S
C1305 H1368 0.961 . S
C1305 H1369 0.960 . S
C1305 H1370 0.960 . S
C1306 C1307 1.549 . S
C1306 H1372 0.961 . S
C1306 H1373 0.961 . S
C1306 H1374 0.959 . S
C1307 C1306 1.549 . S
C1307 O1335 1.416 . S
C1307 H1371 0.975 1_455 S
C1308 C1309 1.288 . S
C1308 C1313 1.377 1_455 S
C1308 O1335 1.393 . S
C1309 C1308 1.288 . S
C1309 C1310 1.369 . S
C1309 H1375 0.932 . S
C1310 C1309 1.369 . S
C1310 C1311 1.398 1_455 S
C1310 C1314 1.527 . S
C1311 C1310 1.398 1_655 S
C1311 C1312 1.380 . S
C1311 C1325 1.497 . S
C1312 C1311 1.380 . S
C1312 C1313 1.383 . S
C1312 C1315 1.603 . S
C1313 C1308 1.377 1_655 S
C1313 C1312 1.383 . S
C1313 H1376 0.929 . S
C1314 C1310 1.527 . S
C1314 H1377 0.961 . S
C1314 H1378 0.959 . S
C1314 H1379 0.959 . S
C1315 C1312 1.603 . S
C1315 H1380 0.960 . S
C1315 H1381 0.962 . S
C1315 H1382 0.961 . S
C1316 C1283 1.529 1_655 S
C1316 C1317 1.360 . S
C1316 C1329 1.412 . S
C1317 C1316 1.360 . S
C1317 C1318 1.365 . S
C1317 H1383 0.929 . S
C1318 C1293 1.553 . S
C1318 C1317 1.365 . S
C1318 C1319 1.404 . S
C1319 C1318 1.404 . S
C1319 C1320 1.395 . S
C1319 C1330 1.451 . S
C1320 C1319 1.395 . S
C1320 C1321 1.322 . S
C1320 H1384 0.930 . S
C1321 C1320 1.322 . S
C1321 C1322 1.459 . S
C1321 H1385 0.929 . S
C1322 C1321 1.459 . S
C1322 C1323 1.445 . S
C1322 C1331 1.395 . S
C1323 C1301 1.432 . S
C1323 C1322 1.445 . S
C1323 C1324 1.370 . S
C1324 C1323 1.370 . S
C1324 C1325 1.438 . S
C1324 H1386 0.930 . S
C1325 C1311 1.497 . S
C1325 C1324 1.438 . S
C1325 C1326 1.360 . S
C1326 C1325 1.360 . S
C1326 C1327 1.401 . S
C1326 C1331 1.446 . S
C1327 C1326 1.401 . S
C1327 C1328 1.347 . S
C1327 H1387 0.929 . S
C1328 C1327 1.347 . S
C1328 C1329 1.455 . S
C1328 H1388 0.930 . S
C1329 C1316 1.412 . S
C1329 C1328 1.455 . S
C1329 C1330 1.331 . S
C1330 C1319 1.451 . S
C1330 C1329 1.331 . S
C1330 C1331 1.497 . S
C1331 C1322 1.395 . S
C1331 C1326 1.446 . S
C1331 C1330 1.497 . S
C1332 C1333 1.582 . S
C1332 H1389 0.962 . S
C1332 H1390 0.959 . S
C1332 H1391 0.958 . S
C1333 C1332 1.582 . S
C1333 O1336 1.458 . S
C1333 H1362 0.980 . S
O1334 C1279 1.426 . S
O1334 C1280 1.334 . S
O1335 C1307 1.416 . S
O1335 C1308 1.393 . S
O1336 C1298 1.435 . S
O1336 C1333 1.458 . S
O1337 C1289 1.468 . S
O1337 C1290 1.408 . S
H1338 C1279 0.980 . S
H1339 C1278 0.959 . S
H1340 C1278 0.959 . S
H1341 C1278 0.960 . S
H1342 C1281 0.929 . S
H1343 C1285 0.929 . S
H1344 C1286 0.959 . S
H1345 C1286 0.961 . S
H1346 C1286 0.961 . S
H1347 C1287 0.960 . S
H1348 C1287 0.960 . S
H1349 C1287 0.961 . S
H1350 C1289 0.980 1_455 S
H1351 C1288 0.961 . S
H1352 C1288 0.960 . S
H1353 C1288 0.959 . S
H1354 C1291 0.930 1_455 S
H1355 C1295 0.931 . S
H1356 C1296 0.959 . S
H1357 C1296 0.961 . S
H1358 C1296 0.959 . S
H1359 C1297 0.960 . S
H1360 C1297 0.960 . S
H1361 C1297 0.960 . S
H1362 C1333 0.980 . S
H1363 C1299 0.930 1_455 S
H1364 C1303 0.930 . S
H1365 C1304 0.961 . S
H1366 C1304 0.960 . S
H1367 C1304 0.958 . S
H1368 C1305 0.961 . S
H1369 C1305 0.960 . S
H1370 C1305 0.960 . S
H1371 C1307 0.975 1_655 S
H1372 C1306 0.961 . S
H1373 C1306 0.961 . S
H1374 C1306 0.959 . S
H1375 C1309 0.932 . S
H1376 C1313 0.929 . S
H1377 C1314 0.961 . S
H1378 C1314 0.959 . S
H1379 C1314 0.959 . S
H1380 C1315 0.960 . S
H1381 C1315 0.962 . S
H1382 C1315 0.961 . S
H1383 C1317 0.929 . S
H1384 C1320 0.930 . S
H1385 C1321 0.929 . S
H1386 C1324 0.930 . S
H1387 C1327 0.929 . S
H1388 C1328 0.930 . S
H1389 C1332 0.962 . S
H1390 C1332 0.959 . S
H1391 C1332 0.958 . S
C1392 C1393 1.560 . S
C1392 H1453 0.959 . S
C1392 H1454 0.959 . S
C1392 H1455 0.960 . S
C1393 C1392 1.560 . S
C1393 O1448 1.426 . S
C1393 H1452 0.980 . S
C1394 C1395 1.407 . S
C1394 C1399 1.418 . S
C1394 O1448 1.334 . S
C1395 C1394 1.407 . S
C1395 C1396 1.360 . S
C1395 H1456 0.929 . S
C1396 C1395 1.360 . S
C1396 C1397 1.401 . S
C1396 C1400 1.527 . S
C1397 C1396 1.401 . S
C1397 C1398 1.405 . S
C1397 C1430 1.587 . S
C1398 C1397 1.405 . S
C1398 C1399 1.332 . S
C1398 C1401 1.496 . S
C1399 C1394 1.418 . S
C1399 C1398 1.332 . S
C1399 H1457 0.929 . S
C1400 C1396 1.527 . S
C1400 H1458 0.959 . S
C1400 H1459 0.961 . S
C1400 H1460 0.961 . S
C1401 C1398 1.496 . S
C1401 H1461 0.960 . S
C1401 H1462 0.960 . S
C1401 H1463 0.961 . S
C1402 C1403 1.517 . S
C1402 H1465 0.961 . S
C1402 H1466 0.960 . S
C1402 H1467 0.959 . S
C1403 C1402 1.517 . S
C1403 O1451 1.468 . S
C1403 H1464 0.980 . S
C1404 C1405 1.349 . S
C1404 C1409 1.367 . S
C1404 O1451 1.408 . S
C1405 C1404 1.349 . S
C1405 C1406 1.407 . S
C1405 H1468 0.930 . S
C1406 C1405 1.407 . S
C1406 C1407 1.449 . S
C1406 C1410 1.535 . S
C1407 C1406 1.449 . S
C1407 C1408 1.384 . S
C1407 C1432 1.553 . S
C1408 C1407 1.384 . S
C1408 C1409 1.364 . S
C1408 C1411 1.450 . S
C1409 C1404 1.367 . S
C1409 C1408 1.364 . S
C1409 H1469 0.931 . S
C1410 C1406 1.535 . S
C1410 H1470 0.959 . S
C1410 H1471 0.961 . S
C1410 H1472 0.959 . S
C1411 C1408 1.450 . S
C1411 H1473 0.960 . S
C1411 H1474 0.960 . S
C1411 H1475 0.960 . S
C1412 C1413 1.309 . S
C1412 C1417 1.304 . S
C1412 O1450 1.435 . S
C1413 C1412 1.309 . S
C1413 C1414 1.476 . S
C1413 H1477 0.930 . S
C1414 C1413 1.476 . S
C1414 C1415 1.400 . S
C1414 C1418 1.567 . S
C1415 C1414 1.400 . S
C1415 C1416 1.373 . S
C1415 C1437 1.432 . S
C1416 C1415 1.373 . S
C1416 C1417 1.339 . S
C1416 C1419 1.530 . S
C1417 C1412 1.304 . S
C1417 C1416 1.339 . S
C1417 H1478 0.930 . S
C1418 C1414 1.567 . S
C1418 H1479 0.961 . S
C1418 H1480 0.960 . S
C1418 H1481 0.958 . S
C1419 C1416 1.530 . S
C1419 H1482 0.961 . S
C1419 H1483 0.960 . S
C1419 H1484 0.960 . S
C1420 C1421 1.530 . S
C1420 H1486 0.961 . S
C1420 H1487 0.961 . S
C1420 H1488 0.959 . S
C1421 C1420 1.530 . S
C1421 O1449 1.412 . S
C1421 H1485 0.980 . S
C1422 C1423 1.288 . S
C1422 C1427 1.377 . S
C1422 O1449 1.393 . S
C1423 C1422 1.288 . S
C1423 C1424 1.369 . S
C1423 H1489 0.932 . S
C1424 C1423 1.369 . S
C1424 C1425 1.398 . S
C1424 C1428 1.527 . S
C1425 C1424 1.398 . S
C1425 C1426 1.380 . S
C1425 C1439 1.497 . S
C1426 C1425 1.380 . S
C1426 C1427 1.383 . S
C1426 C1429 1.603 . S
C1427 C1422 1.377 . S
C1427 C1426 1.383 . S
C1427 H1490 0.929 . S
C1428 C1424 1.527 . S
C1428 H1491 0.961 . S
C1428 H1492 0.959 . S
C1428 H1493 0.959 . S
C1429 C1426 1.603 . S
C1429 H1494 0.960 . S
C1429 H1495 0.962 . S
C1429 H1496 0.961 . S
C1430 C1397 1.587 . S
C1430 C1431 1.360 . S
C1430 C1443 1.412 . S
C1431 C1430 1.360 . S
C1431 C1432 1.365 . S
C1431 H1497 0.929 . S
C1432 C1407 1.553 . S
C1432 C1431 1.365 . S
C1432 C1433 1.404 . S
C1433 C1432 1.404 . S
C1433 C1434 1.395 . S
C1433 C1444 1.451 . S
C1434 C1433 1.395 . S
C1434 C1435 1.322 . S
C1434 H1498 0.930 . S
C1435 C1434 1.322 . S
C1435 C1436 1.459 . S
C1435 H1499 0.929 . S
C1436 C1435 1.459 . S
C1436 C1437 1.445 . S
C1436 C1445 1.395 . S
C1437 C1415 1.432 . S
C1437 C1436 1.445 . S
C1437 C1438 1.370 . S
C1438 C1437 1.370 . S
C1438 C1439 1.438 . S
C1438 H1500 0.930 . S
C1439 C1425 1.497 . S
C1439 C1438 1.438 . S
C1439 C1440 1.360 . S
C1440 C1439 1.360 . S
C1440 C1441 1.401 . S
C1440 C1445 1.446 . S
C1441 C1440 1.401 . S
C1441 C1442 1.347 . S
C1441 H1501 0.929 . S
C1442 C1441 1.347 . S
C1442 C1443 1.455 . S
C1442 H1502 0.930 . S
C1443 C1430 1.412 . S
C1443 C1442 1.455 . S
C1443 C1444 1.331 . S
C1444 C1433 1.451 . S
C1444 C1443 1.331 . S
C1444 C1445 1.497 . S
C1445 C1436 1.395 . S
C1445 C1440 1.446 . S
C1445 C1444 1.497 . S
C1446 C1447 1.582 . S
C1446 H1503 0.962 . S
C1446 H1504 0.959 . S
C1446 H1505 0.958 . S
C1447 C1446 1.582 . S
C1447 O1450 1.458 . S
C1447 H1476 0.980 . S
O1448 C1393 1.426 . S
O1448 C1394 1.334 . S
O1449 C1421 1.412 . S
O1449 C1422 1.393 . S
O1450 C1412 1.435 . S
O1450 C1447 1.458 . S
O1451 C1403 1.468 . S
O1451 C1404 1.408 . S
H1452 C1393 0.980 . S
H1453 C1392 0.959 . S
H1454 C1392 0.959 . S
H1455 C1392 0.960 . S
H1456 C1395 0.929 . S
H1457 C1399 0.929 . S
H1458 C1400 0.959 . S
H1459 C1400 0.961 . S
H1460 C1400 0.961 . S
H1461 C1401 0.960 . S
H1462 C1401 0.960 . S
H1463 C1401 0.961 . S
H1464 C1403 0.980 . S
H1465 C1402 0.961 . S
H1466 C1402 0.960 . S
H1467 C1402 0.959 . S
H1468 C1405 0.930 . S
H1469 C1409 0.931 . S
H1470 C1410 0.959 . S
H1471 C1410 0.961 . S
H1472 C1410 0.959 . S
H1473 C1411 0.960 . S
H1474 C1411 0.960 . S
H1475 C1411 0.960 . S
H1476 C1447 0.980 . S
H1477 C1413 0.930 . S
H1478 C1417 0.930 . S
H1479 C1418 0.961 . S
H1480 C1418 0.960 . S
H1481 C1418 0.958 . S
H1482 C1419 0.961 . S
H1483 C1419 0.960 . S
H1484 C1419 0.960 . S
H1485 C1421 0.980 . S
H1486 C1420 0.961 . S
H1487 C1420 0.961 . S
H1488 C1420 0.959 . S
H1489 C1423 0.932 . S
H1490 C1427 0.929 . S
H1491 C1428 0.961 . S
H1492 C1428 0.959 . S
H1493 C1428 0.959 . S
H1494 C1429 0.960 . S
H1495 C1429 0.962 . S
H1496 C1429 0.961 . S
H1497 C1431 0.929 . S
H1498 C1434 0.930 . S
H1499 C1435 0.929 . S
H1500 C1438 0.930 . S
H1501 C1441 0.929 . S
H1502 C1442 0.930 . S
H1503 C1446 0.962 . S
H1504 C1446 0.959 . S
H1505 C1446 0.958 . S
C1506 C1507 1.560 . S
C1506 H1567 0.959 . S
C1506 H1568 0.959 . S
C1506 H1569 0.960 . S
C1507 C1506 1.560 . S
C1507 O1562 1.426 . S
C1507 H1566 0.980 . S
C1508 C1509 1.407 1_565 S
C1508 C1513 1.418 . S
C1508 O1562 1.334 . S
C1509 C1508 1.407 1_545 S
C1509 C1510 1.360 . S
C1509 H1570 0.929 . S
C1510 C1509 1.360 . S
C1510 C1511 1.341 1_545 S
C1510 C1514 1.527 . S
C1511 C1510 1.341 1_565 S
C1511 C1512 1.462 . S
C1511 C1544 1.596 1_565 S
C1512 C1511 1.462 . S
C1512 C1513 1.332 . S
C1512 C1515 1.496 . S
C1513 C1508 1.418 . S
C1513 C1512 1.332 . S
C1513 H1571 0.929 . S
C1514 C1510 1.527 . S
C1514 H1572 0.959 . S
C1514 H1573 0.961 . S
C1514 H1574 0.961 . S
C1515 C1512 1.496 . S
C1515 H1575 0.960 . S
C1515 H1576 0.960 . S
C1515 H1577 0.961 . S
C1516 C1517 1.517 . S
C1516 H1579 0.973 . S
C1516 H1580 0.960 . S
C1516 H1581 0.959 . S
C1517 C1516 1.517 . S
C1517 O1565 1.468 . S
C1517 H1578 0.980 1_545 S
C1518 C1519 1.349 . S
C1518 C1523 1.367 . S
C1518 O1565 1.408 . S
C1519 C1518 1.349 . S
C1519 C1520 1.430 1_545 S
C1519 H1582 0.930 1_545 S
C1520 C1519 1.430 1_565 S
C1520 C1521 1.387 1_565 S
C1520 C1524 1.577 . S
C1521 C1520 1.387 1_545 S
C1521 C1522 1.384 . S
C1521 C1546 1.553 . S
C1522 C1521 1.384 . S
C1522 C1523 1.364 . S
C1522 C1525 1.450 . S
C1523 C1518 1.367 . S
C1523 C1522 1.364 . S
C1523 H1583 0.931 . S
C1524 C1520 1.577 . S
C1524 H1584 0.959 . S
C1524 H1585 0.961 . S
C1524 H1586 0.959 . S
C1525 C1522 1.450 . S
C1525 H1587 0.960 . S
C1525 H1588 0.960 . S
C1525 H1589 0.960 . S
C1526 C1527 1.309 . S
C1526 C1531 1.304 . S
C1526 O1564 1.435 . S
C1527 C1526 1.309 . S
C1527 C1528 1.502 1_545 S
C1527 H1591 0.930 1_545 S
C1528 C1527 1.502 1_565 S
C1528 C1529 1.317 1_565 S
C1528 C1532 1.625 . S
C1529 C1528 1.317 1_545 S
C1529 C1530 1.373 . S
C1529 C1551 1.432 . S
C1530 C1529 1.373 . S
C1530 C1531 1.339 . S
C1530 C1533 1.530 . S
C1531 C1526 1.304 . S
C1531 C1530 1.339 . S
C1531 H1592 0.930 . S
C1532 C1528 1.625 . S
C1532 H1593 0.961 . S
C1532 H1594 0.960 . S
C1532 H1595 0.958 . S
C1533 C1530 1.530 . S
C1533 H1596 0.961 . S
C1533 H1597 0.960 . S
C1533 H1598 0.960 . S
C1534 C1535 1.526 1_565 S
C1534 H1600 0.961 . S
C1534 H1601 0.961 . S
C1534 H1602 0.959 . S
C1535 C1534 1.526 1_545 S
C1535 O1563 1.383 1_545 S
C1535 H1599 0.995 . S
C1536 C1537 1.288 . S
C1536 C1541 1.377 1_565 S
C1536 O1563 1.393 . S
C1537 C1536 1.288 . S
C1537 C1538 1.369 . S
C1537 H1603 0.932 . S
C1538 C1537 1.369 . S
C1538 C1539 1.398 1_565 S
C1538 C1542 1.527 . S
C1539 C1538 1.398 1_545 S
C1539 C1540 1.380 . S
C1539 C1553 1.497 . S
C1540 C1539 1.380 . S
C1540 C1541 1.383 . S
C1540 C1543 1.603 . S
C1541 C1536 1.377 1_545 S
C1541 C1540 1.383 . S
C1541 H1604 0.929 . S
C1542 C1538 1.527 . S
C1542 H1605 0.961 . S
C1542 H1606 0.959 . S
C1542 H1607 0.959 . S
C1543 C1540 1.603 . S
C1543 H1608 0.960 . S
C1543 H1609 0.962 . S
C1543 H1610 0.961 . S
C1544 C1511 1.596 1_545 S
C1544 C1545 1.360 . S
C1544 C1557 1.412 . S
C1545 C1544 1.360 . S
C1545 C1546 1.365 . S
C1545 H1611 0.929 . S
C1546 C1521 1.553 . S
C1546 C1545 1.365 . S
C1546 C1547 1.404 . S
C1547 C1546 1.404 . S
C1547 C1548 1.395 . S
C1547 C1558 1.451 . S
C1548 C1547 1.395 . S
C1548 C1549 1.322 . S
C1548 H1612 0.930 . S
C1549 C1548 1.322 . S
C1549 C1550 1.459 . S
C1549 H1613 0.929 . S
C1550 C1549 1.459 . S
C1550 C1551 1.445 . S
C1550 C1559 1.395 . S
C1551 C1529 1.432 . S
C1551 C1550 1.445 . S
C1551 C1552 1.370 . S
C1552 C1551 1.370 . S
C1552 C1553 1.438 . S
C1552 H1614 0.930 . S
C1553 C1539 1.497 . S
C1553 C1552 1.438 . S
C1553 C1554 1.360 . S
C1554 C1553 1.360 . S
C1554 C1555 1.401 . S
C1554 C1559 1.446 . S
C1555 C1554 1.401 . S
C1555 C1556 1.347 . S
C1555 H1615 0.929 . S
C1556 C1555 1.347 . S
C1556 C1557 1.455 . S
C1556 H1616 0.930 . S
C1557 C1544 1.412 . S
C1557 C1556 1.455 . S
C1557 C1558 1.331 . S
C1558 C1547 1.451 . S
C1558 C1557 1.331 . S
C1558 C1559 1.497 . S
C1559 C1550 1.395 . S
C1559 C1554 1.446 . S
C1559 C1558 1.497 . S
C1560 C1561 1.582 . S
C1560 H1617 0.962 . S
C1560 H1618 0.959 . S
C1560 H1619 0.958 . S
C1561 C1560 1.582 . S
C1561 O1564 1.458 . S
C1561 H1590 0.980 . S
O1562 C1507 1.426 . S
O1562 C1508 1.334 . S
O1563 C1535 1.383 1_565 S
O1563 C1536 1.393 . S
O1564 C1526 1.435 . S
O1564 C1561 1.458 . S
O1565 C1517 1.468 . S
O1565 C1518 1.408 . S
H1566 C1507 0.980 . S
H1567 C1506 0.959 . S
H1568 C1506 0.959 . S
H1569 C1506 0.960 . S
H1570 C1509 0.929 . S
H1571 C1513 0.929 . S
H1572 C1514 0.959 . S
H1573 C1514 0.961 . S
H1574 C1514 0.961 . S
H1575 C1515 0.960 . S
H1576 C1515 0.960 . S
H1577 C1515 0.961 . S
H1578 C1517 0.980 1_565 S
H1579 C1516 0.973 . S
H1580 C1516 0.960 . S
H1581 C1516 0.959 . S
H1582 C1519 0.930 1_565 S
H1583 C1523 0.931 . S
H1584 C1524 0.959 . S
H1585 C1524 0.961 . S
H1586 C1524 0.959 . S
H1587 C1525 0.960 . S
H1588 C1525 0.960 . S
H1589 C1525 0.960 . S
H1590 C1561 0.980 . S
H1591 C1527 0.930 1_565 S
H1592 C1531 0.930 . S
H1593 C1532 0.961 . S
H1594 C1532 0.960 . S
H1595 C1532 0.958 . S
H1596 C1533 0.961 . S
H1597 C1533 0.960 . S
H1598 C1533 0.960 . S
H1599 C1535 0.995 . S
H1600 C1534 0.961 . S
H1601 C1534 0.961 . S
H1602 C1534 0.959 . S
H1603 C1537 0.932 . S
H1604 C1541 0.929 . S
H1605 C1542 0.961 . S
H1606 C1542 0.959 . S
H1607 C1542 0.959 . S
H1608 C1543 0.960 . S
H1609 C1543 0.962 . S
H1610 C1543 0.961 . S
H1611 C1545 0.929 . S
H1612 C1548 0.930 . S
H1613 C1549 0.929 . S
H1614 C1552 0.930 . S
H1615 C1555 0.929 . S
H1616 C1556 0.930 . S
H1617 C1560 0.962 . S
H1618 C1560 0.959 . S
H1619 C1560 0.958 . S
C1620 C1621 1.560 . S
C1620 H1681 0.959 . S
C1620 H1682 0.959 . S
C1620 H1683 0.960 . S
C1621 C1620 1.560 . S
C1621 O1676 1.426 . S
C1621 H1680 0.980 1_565 S
C1622 C1623 1.407 1_565 S
C1622 C1627 1.418 . S
C1622 O1676 1.334 . S
C1623 C1622 1.407 1_545 S
C1623 C1624 1.360 . S
C1623 H1684 0.929 . S
C1624 C1623 1.360 . S
C1624 C1625 1.401 . S
C1624 C1628 1.527 . S
C1625 C1624 1.401 . S
C1625 C1626 1.405 1_545 S
C1625 C1658 1.587 . S
C1626 C1625 1.405 1_565 S
C1626 C1627 1.332 . S
C1626 C1629 1.496 . S
C1627 C1622 1.418 . S
C1627 C1626 1.332 . S
C1627 H1685 0.929 . S
C1628 C1624 1.527 . S
C1628 H1686 0.959 . S
C1628 H1687 0.961 . S
C1628 H1688 0.961 . S
C1629 C1626 1.496 . S
C1629 H1689 0.960 . S
C1629 H1690 0.960 . S
C1629 H1691 0.961 . S
C1630 C1631 1.517 . S
C1630 H1693 0.961 . S
C1630 H1694 0.960 . S
C1630 H1695 0.959 . S
C1631 C1630 1.517 . S
C1631 O1679 1.468 . S
C1631 H1692 0.980 . S
C1632 C1633 1.349 . S
C1632 C1637 1.367 . S
C1632 O1679 1.408 . S
C1633 C1632 1.349 . S
C1633 C1634 1.407 . S
C1633 H1696 0.905 1_545 S
C1634 C1633 1.407 . S
C1634 C1635 1.449 . S
C1634 C1638 1.535 1_545 S
C1635 C1634 1.449 . S
C1635 C1636 1.384 . S
C1635 C1660 1.553 . S
C1636 C1635 1.384 . S
C1636 C1637 1.364 . S
C1636 C1639 1.450 . S
C1637 C1632 1.367 . S
C1637 C1636 1.364 . S
C1637 H1697 0.931 . S
C1638 C1634 1.535 1_565 S
C1638 H1698 0.959 . S
C1638 H1699 0.961 . S
C1638 H1700 0.959 . S
C1639 C1636 1.450 . S
C1639 H1701 0.960 . S
C1639 H1702 0.960 . S
C1639 H1703 0.960 . S
C1640 C1641 1.309 1_545 S
C1640 C1645 1.304 . S
C1640 O1678 1.435 . S
C1641 C1640 1.309 1_565 S
C1641 C1642 1.476 . S
C1641 H1705 0.930 . S
C1642 C1641 1.476 . S
C1642 C1643 1.400 1_565 S
C1642 C1646 1.567 . S
C1643 C1642 1.400 1_545 S
C1643 C1644 1.373 . S
C1643 C1665 1.432 . S
C1644 C1643 1.373 . S
C1644 C1645 1.339 . S
C1644 C1647 1.530 . S
C1645 C1640 1.304 . S
C1645 C1644 1.339 . S
C1645 H1706 0.930 . S
C1646 C1642 1.567 . S
C1646 H1707 0.961 . S
C1646 H1708 0.960 . S
C1646 H1709 0.958 . S
C1647 C1644 1.530 . S
C1647 H1710 0.961 . S
C1647 H1711 0.960 . S
C1647 H1712 0.960 . S
C1648 C1649 1.530 . S
C1648 H1714 0.961 . S
C1648 H1715 0.961 . S
C1648 H1716 0.959 . S
C1649 C1648 1.530 . S
C1649 O1677 1.412 . S
C1649 H1713 0.979 1_565 S
C1650 C1651 1.288 . S
C1650 C1655 1.377 1_565 S
C1650 O1677 1.393 . S
C1651 C1650 1.288 . S
C1651 C1652 1.369 . S
C1651 H1717 0.932 . S
C1652 C1651 1.369 . S
C1652 C1653 1.398 . S
C1652 C1656 1.527 . S
C1653 C1652 1.398 . S
C1653 C1654 1.380 1_565 S
C1653 C1667 1.497 1_565 S
C1654 C1653 1.380 1_545 S
C1654 C1655 1.383 . S
C1654 C1657 1.603 . S
C1655 C1650 1.377 1_545 S
C1655 C1654 1.383 . S
C1655 H1718 0.929 . S
C1656 C1652 1.527 . S
C1656 H1719 0.961 . S
C1656 H1720 0.959 . S
C1656 H1721 0.959 . S
C1657 C1654 1.603 . S
C1657 H1722 0.960 . S
C1657 H1723 0.962 . S
C1657 H1724 0.961 . S
C1658 C1625 1.587 . S
C1658 C1659 1.360 . S
C1658 C1671 1.412 . S
C1659 C1658 1.360 . S
C1659 C1660 1.365 . S
C1659 H1725 0.929 . S
C1660 C1635 1.553 . S
C1660 C1659 1.365 . S
C1660 C1661 1.404 . S
C1661 C1660 1.404 . S
C1661 C1662 1.395 . S
C1661 C1672 1.451 . S
C1662 C1661 1.395 . S
C1662 C1663 1.322 . S
C1662 H1726 0.930 . S
C1663 C1662 1.322 . S
C1663 C1664 1.459 . S
C1663 H1727 0.929 . S
C1664 C1663 1.459 . S
C1664 C1665 1.445 . S
C1664 C1673 1.395 . S
C1665 C1643 1.432 . S
C1665 C1664 1.445 . S
C1665 C1666 1.370 . S
C1666 C1665 1.370 . S
C1666 C1667 1.438 . S
C1666 H1728 0.930 . S
C1667 C1653 1.497 1_545 S
C1667 C1666 1.438 . S
C1667 C1668 1.360 . S
C1668 C1667 1.360 . S
C1668 C1669 1.401 . S
C1668 C1673 1.446 . S
C1669 C1668 1.401 . S
C1669 C1670 1.347 . S
C1669 H1729 0.975 . S
C1670 C1669 1.347 . S
C1670 C1671 1.455 . S
C1670 H1730 0.930 . S
C1671 C1658 1.412 . S
C1671 C1670 1.455 . S
C1671 C1672 1.331 . S
C1672 C1661 1.451 . S
C1672 C1671 1.331 . S
C1672 C1673 1.497 . S
C1673 C1664 1.395 . S
C1673 C1668 1.446 . S
C1673 C1672 1.497 . S
C1674 C1675 1.582 . S
C1674 H1731 0.962 . S
C1674 H1732 0.959 . S
C1674 H1733 0.958 . S
C1675 C1674 1.582 . S
C1675 O1678 1.458 . S
C1675 H1704 0.980 1_545 S
O1676 C1621 1.426 . S
O1676 C1622 1.334 . S
O1677 C1649 1.412 . S
O1677 C1650 1.393 . S
O1678 C1640 1.435 . S
O1678 C1675 1.458 . S
O1679 C1631 1.468 . S
O1679 C1632 1.408 . S
H1680 C1621 0.980 1_545 S
H1681 C1620 0.959 . S
H1682 C1620 0.959 . S
H1683 C1620 0.960 . S
H1684 C1623 0.929 . S
H1685 C1627 0.929 . S
H1686 C1628 0.959 . S
H1687 C1628 0.961 . S
H1688 C1628 0.961 . S
H1689 C1629 0.960 . S
H1690 C1629 0.960 . S
H1691 C1629 0.961 . S
H1692 C1631 0.980 . S
H1693 C1630 0.961 . S
H1694 C1630 0.960 . S
H1695 C1630 0.959 . S
H1696 C1633 0.905 1_565 S
H1697 C1637 0.931 . S
H1698 C1638 0.959 . S
H1699 C1638 0.961 . S
H1700 C1638 0.959 . S
H1701 C1639 0.960 . S
H1702 C1639 0.960 . S
H1703 C1639 0.960 . S
H1704 C1675 0.980 1_565 S
H1705 C1641 0.930 . S
H1706 C1645 0.930 . S
H1707 C1646 0.961 . S
H1708 C1646 0.960 . S
H1709 C1646 0.958 . S
H1710 C1647 0.961 . S
H1711 C1647 0.960 . S
H1712 C1647 0.960 . S
H1713 C1649 0.979 1_545 S
H1714 C1648 0.961 . S
H1715 C1648 0.961 . S
H1716 C1648 0.959 . S
H1717 C1651 0.932 . S
H1718 C1655 0.929 . S
H1719 C1656 0.961 . S
H1720 C1656 0.959 . S
H1721 C1656 0.959 . S
H1722 C1657 0.960 . S
H1723 C1657 0.962 . S
H1724 C1657 0.961 . S
H1725 C1659 0.929 . S
H1726 C1662 0.930 . S
H1727 C1663 0.929 . S
H1728 C1666 0.930 . S
H1729 C1669 0.975 . S
H1730 C1670 0.930 . S
H1731 C1674 0.962 . S
H1732 C1674 0.959 . S
H1733 C1674 0.958 . S
C1734 C1735 1.560 . S
C1734 H1795 0.959 . S
C1734 H1796 0.959 . S
C1734 H1797 0.960 . S
C1735 C1734 1.560 . S
C1735 O1790 1.426 . S
C1735 H1794 0.980 1_455 S
C1736 C1737 1.407 1_455 S
C1736 C1741 1.418 . S
C1736 O1790 1.334 . S
C1737 C1736 1.407 1_655 S
C1737 C1738 1.360 . S
C1737 H1798 0.929 . S
C1738 C1737 1.360 . S
C1738 C1739 1.401 . S
C1738 C1742 1.527 . S
C1739 C1738 1.401 . S
C1739 C1740 1.405 1_655 S
C1739 C1772 1.587 . S
C1740 C1739 1.405 1_455 S
C1740 C1741 1.332 . S
C1740 C1743 1.496 . S
C1741 C1736 1.418 . S
C1741 C1740 1.332 . S
C1741 H1799 0.929 . S
C1742 C1738 1.527 . S
C1742 H1800 0.959 . S
C1742 H1801 0.961 . S
C1742 H1802 0.961 . S
C1743 C1740 1.496 . S
C1743 H1803 0.960 . S
C1743 H1804 0.960 . S
C1743 H1805 0.961 . S
C1744 C1745 1.517 . S
C1744 H1807 0.961 . S
C1744 H1808 0.960 . S
C1744 H1809 0.959 . S
C1745 C1744 1.517 . S
C1745 O1793 1.468 . S
C1745 H1806 0.980 . S
C1746 C1747 1.349 . S
C1746 C1751 1.367 . S
C1746 O1793 1.408 . S
C1747 C1746 1.349 . S
C1747 C1748 1.407 . S
C1747 H1810 0.860 1_655 S
C1748 C1747 1.407 . S
C1748 C1749 1.449 . S
C1748 C1752 1.535 1_655 S
C1749 C1748 1.449 . S
C1749 C1750 1.384 . S
C1749 C1774 1.553 . S
C1750 C1749 1.384 . S
C1750 C1751 1.364 . S
C1750 C1753 1.450 . S
C1751 C1746 1.367 . S
C1751 C1750 1.364 . S
C1751 H1811 0.931 . S
C1752 C1748 1.535 1_455 S
C1752 H1812 0.959 . S
C1752 H1813 0.961 . S
C1752 H1814 0.959 . S
C1753 C1750 1.450 . S
C1753 H1815 0.960 . S
C1753 H1816 0.960 . S
C1753 H1817 0.960 . S
C1754 C1755 1.309 1_655 S
C1754 C1759 1.304 . S
C1754 O1792 1.435 . S
C1755 C1754 1.309 1_455 S
C1755 C1756 1.476 . S
C1755 H1819 0.930 . S
C1756 C1755 1.476 . S
C1756 C1757 1.400 1_455 S
C1756 C1760 1.567 . S
C1757 C1756 1.400 1_655 S
C1757 C1758 1.373 . S
C1757 C1779 1.432 . S
C1758 C1757 1.373 . S
C1758 C1759 1.339 . S
C1758 C1761 1.530 . S
C1759 C1754 1.304 . S
C1759 C1758 1.339 . S
C1759 H1820 0.930 . S
C1760 C1756 1.567 . S
C1760 H1821 0.961 . S
C1760 H1822 0.960 . S
C1760 H1823 0.958 . S
C1761 C1758 1.530 . S
C1761 H1824 0.961 . S
C1761 H1825 0.960 . S
C1761 H1826 0.960 . S
C1762 C1763 1.530 . S
C1762 H1828 0.961 . S
C1762 H1829 0.961 . S
C1762 H1830 0.959 . S
C1763 C1762 1.530 . S
C1763 O1791 1.412 . S
C1763 H1827 0.963 1_455 S
C1764 C1765 1.288 . S
C1764 C1769 1.377 1_455 S
C1764 O1791 1.393 . S
C1765 C1764 1.288 . S
C1765 C1766 1.369 . S
C1765 H1831 0.932 . S
C1766 C1765 1.369 . S
C1766 C1767 1.398 . S
C1766 C1770 1.527 . S
C1767 C1766 1.398 . S
C1767 C1768 1.380 1_455 S
C1767 C1781 1.497 1_455 S
C1768 C1767 1.380 1_655 S
C1768 C1769 1.383 . S
C1768 C1771 1.603 . S
C1769 C1764 1.377 1_655 S
C1769 C1768 1.383 . S
C1769 H1832 0.929 . S
C1770 C1766 1.527 . S
C1770 H1833 0.961 . S
C1770 H1834 0.959 . S
C1770 H1835 0.959 . S
C1771 C1768 1.603 . S
C1771 H1836 0.960 . S
C1771 H1837 0.962 . S
C1771 H1838 0.961 . S
C1772 C1739 1.587 . S
C1772 C1773 1.360 . S
C1772 C1785 1.412 . S
C1773 C1772 1.360 . S
C1773 C1774 1.365 . S
C1773 H1839 0.929 . S
C1774 C1749 1.553 . S
C1774 C1773 1.365 . S
C1774 C1775 1.404 . S
C1775 C1774 1.404 . S
C1775 C1776 1.395 . S
C1775 C1786 1.451 . S
C1776 C1775 1.395 . S
C1776 C1777 1.322 . S
C1776 H1840 0.930 . S
C1777 C1776 1.322 . S
C1777 C1778 1.459 . S
C1777 H1841 0.929 . S
C1778 C1777 1.459 . S
C1778 C1779 1.445 . S
C1778 C1787 1.395 . S
C1779 C1757 1.432 . S
C1779 C1778 1.445 . S
C1779 C1780 1.370 . S
C1780 C1779 1.370 . S
C1780 C1781 1.438 . S
C1780 H1842 0.930 . S
C1781 C1767 1.497 1_655 S
C1781 C1780 1.438 . S
C1781 C1782 1.360 . S
C1782 C1781 1.360 . S
C1782 C1783 1.401 . S
C1782 C1787 1.446 . S
C1783 C1782 1.401 . S
C1783 C1784 1.347 . S
C1783 H1843 0.929 . S
C1784 C1783 1.347 . S
C1784 C1785 1.455 . S
C1784 H1844 0.930 . S
C1785 C1772 1.412 . S
C1785 C1784 1.455 . S
C1785 C1786 1.331 . S
C1786 C1775 1.451 . S
C1786 C1785 1.331 . S
C1786 C1787 1.497 . S
C1787 C1778 1.395 . S
C1787 C1782 1.446 . S
C1787 C1786 1.497 . S
C1788 C1789 1.583 . S
C1788 H1845 0.962 . S
C1788 H1846 0.959 . S
C1788 H1847 0.958 . S
C1789 C1788 1.583 . S
C1789 O1792 1.486 . S
C1789 H1818 0.969 1_655 S
O1790 C1735 1.426 . S
O1790 C1736 1.334 . S
O1791 C1763 1.412 . S
O1791 C1764 1.393 . S
O1792 C1754 1.435 . S
O1792 C1789 1.486 . S
O1793 C1745 1.468 . S
O1793 C1746 1.408 . S
H1794 C1735 0.980 1_655 S
H1795 C1734 0.959 . S
H1796 C1734 0.959 . S
H1797 C1734 0.960 . S
H1798 C1737 0.929 . S
H1799 C1741 0.929 . S
H1800 C1742 0.959 . S
H1801 C1742 0.961 . S
H1802 C1742 0.961 . S
H1803 C1743 0.960 . S
H1804 C1743 0.960 . S
H1805 C1743 0.961 . S
H1806 C1745 0.980 . S
H1807 C1744 0.961 . S
H1808 C1744 0.960 . S
H1809 C1744 0.959 . S
H1810 C1747 0.860 1_455 S
H1811 C1751 0.931 . S
H1812 C1752 0.959 . S
H1813 C1752 0.961 . S
H1814 C1752 0.959 . S
H1815 C1753 0.960 . S
H1816 C1753 0.960 . S
H1817 C1753 0.960 . S
H1818 C1789 0.969 1_455 S
H1819 C1755 0.930 . S
H1820 C1759 0.930 . S
H1821 C1760 0.961 . S
H1822 C1760 0.960 . S
H1823 C1760 0.958 . S
H1824 C1761 0.961 . S
H1825 C1761 0.960 . S
H1826 C1761 0.960 . S
H1827 C1763 0.963 1_655 S
H1828 C1762 0.961 . S
H1829 C1762 0.961 . S
H1830 C1762 0.959 . S
H1831 C1765 0.932 . S
H1832 C1769 0.929 . S
H1833 C1770 0.961 . S
H1834 C1770 0.959 . S
H1835 C1770 0.959 . S
H1836 C1771 0.960 . S
H1837 C1771 0.962 . S
H1838 C1771 0.961 . S
H1839 C1773 0.929 . S
H1840 C1776 0.930 . S
H1841 C1777 0.929 . S
H1842 C1780 0.930 . S
H1843 C1783 0.929 . S
H1844 C1784 0.930 . S
H1845 C1788 0.962 . S
H1846 C1788 0.959 . S
H1847 C1788 0.958 . S
C1848 C1849 1.560 . S
C1848 H1909 0.959 . S
C1848 H1910 0.959 . S
C1848 H1911 0.960 . S
C1849 C1848 1.560 . S
C1849 O1904 1.426 . S
C1849 H1908 0.980 . S
C1850 C1851 1.407 . S
C1850 C1855 1.418 . S
C1850 O1904 1.334 . S
C1851 C1850 1.407 . S
C1851 C1852 1.360 . S
C1851 H1912 0.929 . S
C1852 C1851 1.360 . S
C1852 C1853 1.401 . S
C1852 C1856 1.527 . S
C1853 C1852 1.401 . S
C1853 C1854 1.405 . S
C1853 C1886 1.587 . S
C1854 C1853 1.405 . S
C1854 C1855 1.332 . S
C1854 C1857 1.496 . S
C1855 C1850 1.418 . S
C1855 C1854 1.332 . S
C1855 H1913 0.929 . S
C1856 C1852 1.527 . S
C1856 H1914 0.959 . S
C1856 H1915 0.961 . S
C1856 H1916 0.961 . S
C1857 C1854 1.496 . S
C1857 H1917 0.960 . S
C1857 H1918 0.960 . S
C1857 H1919 0.961 . S
C1858 C1859 1.517 . S
C1858 H1921 0.961 . S
C1858 H1922 0.960 . S
C1858 H1923 0.959 . S
C1859 C1858 1.517 . S
C1859 O1907 1.468 . S
C1859 H1920 0.980 . S
C1860 C1861 1.349 . S
C1860 C1865 1.367 . S
C1860 O1907 1.408 . S
C1861 C1860 1.349 . S
C1861 C1862 1.407 . S
C1861 H1924 0.930 . S
C1862 C1861 1.407 . S
C1862 C1863 1.449 . S
C1862 C1866 1.535 . S
C1863 C1862 1.449 . S
C1863 C1864 1.384 . S
C1863 C1888 1.553 . S
C1864 C1863 1.384 . S
C1864 C1865 1.364 . S
C1864 C1867 1.450 . S
C1865 C1860 1.367 . S
C1865 C1864 1.364 . S
C1865 H1925 0.931 . S
C1866 C1862 1.535 . S
C1866 H1926 0.959 . S
C1866 H1927 0.961 . S
C1866 H1928 0.959 . S
C1867 C1864 1.450 . S
C1867 H1929 0.960 . S
C1867 H1930 0.960 . S
C1867 H1931 0.960 . S
C1868 C1869 1.309 . S
C1868 C1873 1.304 . S
C1868 O1906 1.435 . S
C1869 C1868 1.309 . S
C1869 C1870 1.476 . S
C1869 H1933 0.930 . S
C1870 C1869 1.476 . S
C1870 C1871 1.400 . S
C1870 C1874 1.567 . S
C1871 C1870 1.400 . S
C1871 C1872 1.373 . S
C1871 C1893 1.432 . S
C1872 C1871 1.373 . S
C1872 C1873 1.339 . S
C1872 C1875 1.530 . S
C1873 C1868 1.304 . S
C1873 C1872 1.339 . S
C1873 H1934 0.930 . S
C1874 C1870 1.567 . S
C1874 H1935 0.961 . S
C1874 H1936 0.960 . S
C1874 H1937 0.958 . S
C1875 C1872 1.530 . S
C1875 H1938 0.961 . S
C1875 H1939 0.960 . S
C1875 H1940 0.960 . S
C1876 C1877 1.530 . S
C1876 H1942 0.961 . S
C1876 H1943 0.961 . S
C1876 H1944 0.959 . S
C1877 C1876 1.530 . S
C1877 O1905 1.412 . S
C1877 H1941 0.980 . S
C1878 C1879 1.288 . S
C1878 C1883 1.377 . S
C1878 O1905 1.393 . S
C1879 C1878 1.288 . S
C1879 C1880 1.369 . S
C1879 H1945 0.932 . S
C1880 C1879 1.369 . S
C1880 C1881 1.398 . S
C1880 C1884 1.527 . S
C1881 C1880 1.398 . S
C1881 C1882 1.380 . S
C1881 C1895 1.497 . S
C1882 C1881 1.380 . S
C1882 C1883 1.383 . S
C1882 C1885 1.603 . S
C1883 C1878 1.377 . S
C1883 C1882 1.383 . S
C1883 H1946 0.929 . S
C1884 C1880 1.527 . S
C1884 H1947 0.961 . S
C1884 H1948 0.959 . S
C1884 H1949 0.959 . S
C1885 C1882 1.603 . S
C1885 H1950 0.960 . S
C1885 H1951 0.962 . S
C1885 H1952 0.961 . S
C1886 C1853 1.587 . S
C1886 C1887 1.360 . S
C1886 C1899 1.412 . S
C1887 C1886 1.360 . S
C1887 C1888 1.365 . S
C1887 H1953 0.929 . S
C1888 C1863 1.553 . S
C1888 C1887 1.365 . S
C1888 C1889 1.404 . S
C1889 C1888 1.404 . S
C1889 C1890 1.395 . S
C1889 C1900 1.451 . S
C1890 C1889 1.395 . S
C1890 C1891 1.322 . S
C1890 H1954 0.930 . S
C1891 C1890 1.322 . S
C1891 C1892 1.459 . S
C1891 H1955 0.929 . S
C1892 C1891 1.459 . S
C1892 C1893 1.445 . S
C1892 C1901 1.395 . S
C1893 C1871 1.432 . S
C1893 C1892 1.445 . S
C1893 C1894 1.370 . S
C1894 C1893 1.370 . S
C1894 C1895 1.438 . S
C1894 H1956 0.930 . S
C1895 C1881 1.497 . S
C1895 C1894 1.438 . S
C1895 C1896 1.360 . S
C1896 C1895 1.360 . S
C1896 C1897 1.401 . S
C1896 C1901 1.446 . S
C1897 C1896 1.401 . S
C1897 C1898 1.347 . S
C1897 H1957 0.929 . S
C1898 C1897 1.347 . S
C1898 C1899 1.455 . S
C1898 H1958 0.930 . S
C1899 C1886 1.412 . S
C1899 C1898 1.455 . S
C1899 C1900 1.331 . S
C1900 C1889 1.451 . S
C1900 C1899 1.331 . S
C1900 C1901 1.497 . S
C1901 C1892 1.395 . S
C1901 C1896 1.446 . S
C1901 C1900 1.497 . S
C1902 C1903 1.582 . S
C1902 H1959 0.962 . S
C1902 H1960 0.959 . S
C1902 H1961 0.958 . S
C1903 C1902 1.582 . S
C1903 O1906 1.458 . S
C1903 H1932 0.980 . S
O1904 C1849 1.426 . S
O1904 C1850 1.334 . S
O1905 C1877 1.412 . S
O1905 C1878 1.393 . S
O1906 C1868 1.435 . S
O1906 C1903 1.458 . S
O1907 C1859 1.468 . S
O1907 C1860 1.408 . S
H1908 C1849 0.980 . S
H1909 C1848 0.959 . S
H1910 C1848 0.959 . S
H1911 C1848 0.960 . S
H1912 C1851 0.929 . S
H1913 C1855 0.929 . S
H1914 C1856 0.959 . S
H1915 C1856 0.961 . S
H1916 C1856 0.961 . S
H1917 C1857 0.960 . S
H1918 C1857 0.960 . S
H1919 C1857 0.961 . S
H1920 C1859 0.980 . S
H1921 C1858 0.961 . S
H1922 C1858 0.960 . S
H1923 C1858 0.959 . S
H1924 C1861 0.930 . S
H1925 C1865 0.931 . S
H1926 C1866 0.959 . S
H1927 C1866 0.961 . S
H1928 C1866 0.959 . S
H1929 C1867 0.960 . S
H1930 C1867 0.960 . S
H1931 C1867 0.960 . S
H1932 C1903 0.980 . S
H1933 C1869 0.930 . S
H1934 C1873 0.930 . S
H1935 C1874 0.961 . S
H1936 C1874 0.960 . S
H1937 C1874 0.958 . S
H1938 C1875 0.961 . S
H1939 C1875 0.960 . S
H1940 C1875 0.960 . S
H1941 C1877 0.980 . S
H1942 C1876 0.961 . S
H1943 C1876 0.961 . S
H1944 C1876 0.959 . S
H1945 C1879 0.932 . S
H1946 C1883 0.929 . S
H1947 C1884 0.961 . S
H1948 C1884 0.959 . S
H1949 C1884 0.959 . S
H1950 C1885 0.960 . S
H1951 C1885 0.962 . S
H1952 C1885 0.961 . S
H1953 C1887 0.929 . S
H1954 C1890 0.930 . S
H1955 C1891 0.929 . S
H1956 C1894 0.930 . S
H1957 C1897 0.929 . S
H1958 C1898 0.930 . S
H1959 C1902 0.962 . S
H1960 C1902 0.959 . S
H1961 C1902 0.958 . S
C1962 C1963 1.560 . S
C1962 H2023 0.959 . S
C1962 H2024 0.959 . S
C1962 H2025 0.960 . S
C1963 C1962 1.560 . S
C1963 O2018 1.426 . S
C1963 H2022 0.980 . S
C1964 C1965 1.407 . S
C1964 C1969 1.418 . S
C1964 O2018 1.334 . S
C1965 C1964 1.407 . S
C1965 C1966 1.360 . S
C1965 H2026 0.929 . S
C1966 C1965 1.360 . S
C1966 C1967 1.401 . S
C1966 C1970 1.527 . S
C1967 C1966 1.401 . S
C1967 C1968 1.405 . S
C1967 C2000 1.587 . S
C1968 C1967 1.405 . S
C1968 C1969 1.332 . S
C1968 C1971 1.496 . S
C1969 C1964 1.418 . S
C1969 C1968 1.332 . S
C1969 H2027 0.929 . S
C1970 C1966 1.527 . S
C1970 H2028 0.959 . S
C1970 H2029 0.961 . S
C1970 H2030 0.961 . S
C1971 C1968 1.496 . S
C1971 H2031 0.960 . S
C1971 H2032 0.960 . S
C1971 H2033 0.961 . S
C1972 C1973 1.517 . S
C1972 H2035 0.961 . S
C1972 H2036 0.960 . S
C1972 H2037 0.959 . S
C1973 C1972 1.517 . S
C1973 O2021 1.468 . S
C1973 H2034 0.980 . S
C1974 C1975 1.349 . S
C1974 C1979 1.367 . S
C1974 O2021 1.408 . S
C1975 C1974 1.349 . S
C1975 C1976 1.407 . S
C1975 H2038 0.930 . S
C1976 C1975 1.407 . S
C1976 C1977 1.449 . S
C1976 C1980 1.535 . S
C1977 C1976 1.449 . S
C1977 C1978 1.384 . S
C1977 C2002 1.553 . S
C1978 C1977 1.384 . S
C1978 C1979 1.364 . S
C1978 C1981 1.450 . S
C1979 C1974 1.367 . S
C1979 C1978 1.364 . S
C1979 H2039 0.931 . S
C1980 C1976 1.535 . S
C1980 H2040 0.959 . S
C1980 H2041 0.961 . S
C1980 H2042 0.959 . S
C1981 C1978 1.450 . S
C1981 H2043 0.960 . S
C1981 H2044 0.960 . S
C1981 H2045 0.960 . S
C1982 C1983 1.309 . S
C1982 C1987 1.304 . S
C1982 O2020 1.435 . S
C1983 C1982 1.309 . S
C1983 C1984 1.476 . S
C1983 H2047 0.930 . S
C1984 C1983 1.476 . S
C1984 C1985 1.400 . S
C1984 C1988 1.567 . S
C1985 C1984 1.400 . S
C1985 C1986 1.373 . S
C1985 C2007 1.432 . S
C1986 C1985 1.373 . S
C1986 C1987 1.339 . S
C1986 C1989 1.530 . S
C1987 C1982 1.304 . S
C1987 C1986 1.339 . S
C1987 H2048 0.930 . S
C1988 C1984 1.567 . S
C1988 H2049 0.961 . S
C1988 H2050 0.960 . S
C1988 H2051 0.958 . S
C1989 C1986 1.530 . S
C1989 H2052 0.961 . S
C1989 H2053 0.960 . S
C1989 H2054 0.960 . S
C1990 C1991 1.530 . S
C1990 H2056 0.961 . S
C1990 H2057 0.961 . S
C1990 H2058 0.959 . S
C1991 C1990 1.530 . S
C1991 O2019 1.412 . S
C1991 H2055 0.980 . S
C1992 C1993 1.288 . S
C1992 C1997 1.377 . S
C1992 O2019 1.393 . S
C1993 C1992 1.288 . S
C1993 C1994 1.369 . S
C1993 H2059 0.932 . S
C1994 C1993 1.369 . S
C1994 C1995 1.398 . S
C1994 C1998 1.527 . S
C1995 C1994 1.398 . S
C1995 C1996 1.380 . S
C1995 C2009 1.497 . S
C1996 C1995 1.380 . S
C1996 C1997 1.383 . S
C1996 C1999 1.603 . S
C1997 C1992 1.377 . S
C1997 C1996 1.383 . S
C1997 H2060 0.929 . S
C1998 C1994 1.527 . S
C1998 H2061 0.961 . S
C1998 H2062 0.959 . S
C1998 H2063 0.959 . S
C1999 C1996 1.603 . S
C1999 H2064 0.960 . S
C1999 H2065 0.962 . S
C1999 H2066 0.961 . S
C2000 C1967 1.587 . S
C2000 C2001 1.360 . S
C2000 C2013 1.412 . S
C2001 C2000 1.360 . S
C2001 C2002 1.365 . S
C2001 H2067 0.929 . S
C2002 C1977 1.553 . S
C2002 C2001 1.365 . S
C2002 C2003 1.404 . S
C2003 C2002 1.404 . S
C2003 C2004 1.395 . S
C2003 C2014 1.451 . S
C2004 C2003 1.395 . S
C2004 C2005 1.322 . S
C2004 H2068 0.930 . S
C2005 C2004 1.322 . S
C2005 C2006 1.459 . S
C2005 H2069 0.929 . S
C2006 C2005 1.459 . S
C2006 C2007 1.445 . S
C2006 C2015 1.395 . S
C2007 C1985 1.432 . S
C2007 C2006 1.445 . S
C2007 C2008 1.370 . S
C2008 C2007 1.370 . S
C2008 C2009 1.438 . S
C2008 H2070 0.930 . S
C2009 C1995 1.497 . S
C2009 C2008 1.438 . S
C2009 C2010 1.360 . S
C2010 C2009 1.360 . S
C2010 C2011 1.401 . S
C2010 C2015 1.446 . S
C2011 C2010 1.401 . S
C2011 C2012 1.347 . S
C2011 H2071 0.929 . S
C2012 C2011 1.347 . S
C2012 C2013 1.455 . S
C2012 H2072 0.930 . S
C2013 C2000 1.412 . S
C2013 C2012 1.455 . S
C2013 C2014 1.331 . S
C2014 C2003 1.451 . S
C2014 C2013 1.331 . S
C2014 C2015 1.497 . S
C2015 C2006 1.395 . S
C2015 C2010 1.446 . S
C2015 C2014 1.497 . S
C2016 C2017 1.582 . S
C2016 H2073 0.962 . S
C2016 H2074 0.959 . S
C2016 H2075 0.958 . S
C2017 C2016 1.582 . S
C2017 O2020 1.458 . S
C2017 H2046 0.980 . S
O2018 C1963 1.426 . S
O2018 C1964 1.334 . S
O2019 C1991 1.412 . S
O2019 C1992 1.393 . S
O2020 C1982 1.435 . S
O2020 C2017 1.458 . S
O2021 C1973 1.468 . S
O2021 C1974 1.408 . S
H2022 C1963 0.980 . S
H2023 C1962 0.959 . S
H2024 C1962 0.959 . S
H2025 C1962 0.960 . S
H2026 C1965 0.929 . S
H2027 C1969 0.929 . S
H2028 C1970 0.959 . S
H2029 C1970 0.961 . S
H2030 C1970 0.961 . S
H2031 C1971 0.960 . S
H2032 C1971 0.960 . S
H2033 C1971 0.961 . S
H2034 C1973 0.980 . S
H2035 C1972 0.961 . S
H2036 C1972 0.960 . S
H2037 C1972 0.959 . S
H2038 C1975 0.930 . S
H2039 C1979 0.931 . S
H2040 C1980 0.959 . S
H2041 C1980 0.961 . S
H2042 C1980 0.959 . S
H2043 C1981 0.960 . S
H2044 C1981 0.960 . S
H2045 C1981 0.960 . S
H2046 C2017 0.980 . S
H2047 C1983 0.930 . S
H2048 C1987 0.930 . S
H2049 C1988 0.961 . S
H2050 C1988 0.960 . S
H2051 C1988 0.958 . S
H2052 C1989 0.961 . S
H2053 C1989 0.960 . S
H2054 C1989 0.960 . S
H2055 C1991 0.980 . S
H2056 C1990 0.961 . S
H2057 C1990 0.961 . S
H2058 C1990 0.959 . S
H2059 C1993 0.932 . S
H2060 C1997 0.929 . S
H2061 C1998 0.961 . S
H2062 C1998 0.959 . S
H2063 C1998 0.959 . S
H2064 C1999 0.960 . S
H2065 C1999 0.962 . S
H2066 C1999 0.961 . S
H2067 C2001 0.929 . S
H2068 C2004 0.930 . S
H2069 C2005 0.929 . S
H2070 C2008 0.930 . S
H2071 C2011 0.929 . S
H2072 C2012 0.930 . S
H2073 C2016 0.962 . S
H2074 C2016 0.959 . S
H2075 C2016 0.958 . S
C2076 C2077 1.560 . S
C2076 H2137 0.959 . S
C2076 H2138 0.959 . S
C2076 H2139 0.960 . S
C2077 C2076 1.560 . S
C2077 O2132 1.426 . S
C2077 H2136 0.980 . S
C2078 C2079 1.407 . S
C2078 C2083 1.418 . S
C2078 O2132 1.334 . S
C2079 C2078 1.407 . S
C2079 C2080 1.360 . S
C2079 H2140 0.929 . S
C2080 C2079 1.360 . S
C2080 C2081 1.401 . S
C2080 C2084 1.527 . S
C2081 C2080 1.401 . S
C2081 C2082 1.405 . S
C2081 C2114 1.587 . S
C2082 C2081 1.405 . S
C2082 C2083 1.332 . S
C2082 C2085 1.496 . S
C2083 C2078 1.418 . S
C2083 C2082 1.332 . S
C2083 H2141 0.929 . S
C2084 C2080 1.527 . S
C2084 H2142 0.959 . S
C2084 H2143 0.961 . S
C2084 H2144 0.961 . S
C2085 C2082 1.496 . S
C2085 H2145 0.960 . S
C2085 H2146 0.960 . S
C2085 H2147 0.961 . S
C2086 C2087 1.517 . S
C2086 H2149 0.961 . S
C2086 H2150 0.960 . S
C2086 H2151 0.959 . S
C2087 C2086 1.517 . S
C2087 O2135 1.468 . S
C2087 H2148 0.980 . S
C2088 C2089 1.349 . S
C2088 C2093 1.367 . S
C2088 O2135 1.408 . S
C2089 C2088 1.349 . S
C2089 C2090 1.407 . S
C2089 H2152 0.930 . S
C2090 C2089 1.407 . S
C2090 C2091 1.449 . S
C2090 C2094 1.535 . S
C2091 C2090 1.449 . S
C2091 C2092 1.384 . S
C2091 C2116 1.553 . S
C2092 C2091 1.384 . S
C2092 C2093 1.364 . S
C2092 C2095 1.450 . S
C2093 C2088 1.367 . S
C2093 C2092 1.364 . S
C2093 H2153 0.931 . S
C2094 C2090 1.535 . S
C2094 H2154 0.959 . S
C2094 H2155 0.961 . S
C2094 H2156 0.959 . S
C2095 C2092 1.450 . S
C2095 H2157 0.960 . S
C2095 H2158 0.960 . S
C2095 H2159 0.960 . S
C2096 C2097 1.309 . S
C2096 C2101 1.304 . S
C2096 O2134 1.435 . S
C2097 C2096 1.309 . S
C2097 C2098 1.476 . S
C2097 H2161 0.930 . S
C2098 C2097 1.476 . S
C2098 C2099 1.400 . S
C2098 C2102 1.567 . S
C2099 C2098 1.400 . S
C2099 C2100 1.373 . S
C2099 C2121 1.432 . S
C2100 C2099 1.373 . S
C2100 C2101 1.339 . S
C2100 C2103 1.530 . S
C2101 C2096 1.304 . S
C2101 C2100 1.339 . S
C2101 H2162 0.930 . S
C2102 C2098 1.567 . S
C2102 H2163 0.961 . S
C2102 H2164 0.960 . S
C2102 H2165 0.958 . S
C2103 C2100 1.530 . S
C2103 H2166 0.961 . S
C2103 H2167 0.960 . S
C2103 H2168 0.960 . S
C2104 C2105 1.530 . S
C2104 H2170 0.961 . S
C2104 H2171 0.961 . S
C2104 H2172 0.959 . S
C2105 C2104 1.530 . S
C2105 O2133 1.412 . S
C2105 H2169 0.980 . S
C2106 C2107 1.288 . S
C2106 C2111 1.377 . S
C2106 O2133 1.393 . S
C2107 C2106 1.288 . S
C2107 C2108 1.369 . S
C2107 H2173 0.932 . S
C2108 C2107 1.369 . S
C2108 C2109 1.398 . S
C2108 C2112 1.527 . S
C2109 C2108 1.398 . S
C2109 C2110 1.380 . S
C2109 C2123 1.497 . S
C2110 C2109 1.380 . S
C2110 C2111 1.383 . S
C2110 C2113 1.603 . S
C2111 C2106 1.377 . S
C2111 C2110 1.383 . S
C2111 H2174 0.929 . S
C2112 C2108 1.527 . S
C2112 H2175 0.961 . S
C2112 H2176 0.959 . S
C2112 H2177 0.959 . S
C2113 C2110 1.603 . S
C2113 H2178 0.960 . S
C2113 H2179 0.962 . S
C2113 H2180 0.961 . S
C2114 C2081 1.587 . S
C2114 C2115 1.360 . S
C2114 C2127 1.412 . S
C2115 C2114 1.360 . S
C2115 C2116 1.365 . S
C2115 H2181 0.929 . S
C2116 C2091 1.553 . S
C2116 C2115 1.365 . S
C2116 C2117 1.404 . S
C2117 C2116 1.404 . S
C2117 C2118 1.395 . S
C2117 C2128 1.451 . S
C2118 C2117 1.395 . S
C2118 C2119 1.322 . S
C2118 H2182 0.930 . S
C2119 C2118 1.322 . S
C2119 C2120 1.459 . S
C2119 H2183 0.929 . S
C2120 C2119 1.459 . S
C2120 C2121 1.445 . S
C2120 C2129 1.395 . S
C2121 C2099 1.432 . S
C2121 C2120 1.445 . S
C2121 C2122 1.370 . S
C2122 C2121 1.370 . S
C2122 C2123 1.438 . S
C2122 H2184 0.930 . S
C2123 C2109 1.497 . S
C2123 C2122 1.438 . S
C2123 C2124 1.360 . S
C2124 C2123 1.360 . S
C2124 C2125 1.401 . S
C2124 C2129 1.446 . S
C2125 C2124 1.401 . S
C2125 C2126 1.347 . S
C2125 H2185 0.929 . S
C2126 C2125 1.347 . S
C2126 C2127 1.455 . S
C2126 H2186 0.930 . S
C2127 C2114 1.412 . S
C2127 C2126 1.455 . S
C2127 C2128 1.331 . S
C2128 C2117 1.451 . S
C2128 C2127 1.331 . S
C2128 C2129 1.497 . S
C2129 C2120 1.395 . S
C2129 C2124 1.446 . S
C2129 C2128 1.497 . S
C2130 C2131 1.582 . S
C2130 H2187 0.962 . S
C2130 H2188 0.959 . S
C2130 H2189 0.958 . S
C2131 C2130 1.582 . S
C2131 O2134 1.458 . S
C2131 H2160 0.980 . S
O2132 C2077 1.426 . S
O2132 C2078 1.334 . S
O2133 C2105 1.412 . S
O2133 C2106 1.393 . S
O2134 C2096 1.435 . S
O2134 C2131 1.458 . S
O2135 C2087 1.468 . S
O2135 C2088 1.408 . S
H2136 C2077 0.980 . S
H2137 C2076 0.959 . S
H2138 C2076 0.959 . S
H2139 C2076 0.960 . S
H2140 C2079 0.929 . S
H2141 C2083 0.929 . S
H2142 C2084 0.959 . S
H2143 C2084 0.961 . S
H2144 C2084 0.961 . S
H2145 C2085 0.960 . S
H2146 C2085 0.960 . S
H2147 C2085 0.961 . S
H2148 C2087 0.980 . S
H2149 C2086 0.961 . S
H2150 C2086 0.960 . S
H2151 C2086 0.959 . S
H2152 C2089 0.930 . S
H2153 C2093 0.931 . S
H2154 C2094 0.959 . S
H2155 C2094 0.961 . S
H2156 C2094 0.959 . S
H2157 C2095 0.960 . S
H2158 C2095 0.960 . S
H2159 C2095 0.960 . S
H2160 C2131 0.980 . S
H2161 C2097 0.930 . S
H2162 C2101 0.930 . S
H2163 C2102 0.961 . S
H2164 C2102 0.960 . S
H2165 C2102 0.958 . S
H2166 C2103 0.961 . S
H2167 C2103 0.960 . S
H2168 C2103 0.960 . S
H2169 C2105 0.980 . S
H2170 C2104 0.961 . S
H2171 C2104 0.961 . S
H2172 C2104 0.959 . S
H2173 C2107 0.932 . S
H2174 C2111 0.929 . S
H2175 C2112 0.961 . S
H2176 C2112 0.959 . S
H2177 C2112 0.959 . S
H2178 C2113 0.960 . S
H2179 C2113 0.962 . S
H2180 C2113 0.961 . S
H2181 C2115 0.929 . S
H2182 C2118 0.930 . S
H2183 C2119 0.929 . S
H2184 C2122 0.930 . S
H2185 C2125 0.929 . S
H2186 C2126 0.930 . S
H2187 C2130 0.962 . S
H2188 C2130 0.959 . S
H2189 C2130 0.958 . S
C2190 C2191 1.560 . S
C2190 H2251 0.959 . S
C2190 H2252 0.959 . S
C2190 H2253 0.960 . S
C2191 C2190 1.560 . S
C2191 O2246 1.426 . S
C2191 H2250 0.980 . S
C2192 C2193 1.407 . S
C2192 C2197 1.418 . S
C2192 O2246 1.334 . S
C2193 C2192 1.407 . S
C2193 C2194 1.360 . S
C2193 H2254 0.929 . S
C2194 C2193 1.360 . S
C2194 C2195 1.401 . S
C2194 C2198 1.527 . S
C2195 C2194 1.401 . S
C2195 C2196 1.405 . S
C2195 C2228 1.587 . S
C2196 C2195 1.405 . S
C2196 C2197 1.332 . S
C2196 C2199 1.496 . S
C2197 C2192 1.418 . S
C2197 C2196 1.332 . S
C2197 H2255 0.929 . S
C2198 C2194 1.527 . S
C2198 H2256 0.959 . S
C2198 H2257 0.961 . S
C2198 H2258 0.961 . S
C2199 C2196 1.496 . S
C2199 H2259 0.960 . S
C2199 H2260 0.960 . S
C2199 H2261 0.961 . S
C2200 C2201 1.517 . S
C2200 H2263 0.961 . S
C2200 H2264 0.960 . S
C2200 H2265 0.959 . S
C2201 C2200 1.517 . S
C2201 O2249 1.468 . S
C2201 H2262 0.980 . S
C2202 C2203 1.349 . S
C2202 C2207 1.367 . S
C2202 O2249 1.408 . S
C2203 C2202 1.349 . S
C2203 C2204 1.407 . S
C2203 H2266 0.930 . S
C2204 C2203 1.407 . S
C2204 C2205 1.449 . S
C2204 C2208 1.535 . S
C2205 C2204 1.449 . S
C2205 C2206 1.384 . S
C2205 C2230 1.553 . S
C2206 C2205 1.384 . S
C2206 C2207 1.364 . S
C2206 C2209 1.450 . S
C2207 C2202 1.367 . S
C2207 C2206 1.364 . S
C2207 H2267 0.931 . S
C2208 C2204 1.535 . S
C2208 H2268 0.959 . S
C2208 H2269 0.961 . S
C2208 H2270 0.959 . S
C2209 C2206 1.450 . S
C2209 H2271 0.960 . S
C2209 H2272 0.960 . S
C2209 H2273 0.960 . S
C2210 C2211 1.309 . S
C2210 C2215 1.304 . S
C2210 O2248 1.435 . S
C2211 C2210 1.309 . S
C2211 C2212 1.476 . S
C2211 H2275 0.930 . S
C2212 C2211 1.476 . S
C2212 C2213 1.400 . S
C2212 C2216 1.567 . S
C2213 C2212 1.400 . S
C2213 C2214 1.373 . S
C2213 C2235 1.432 . S
C2214 C2213 1.373 . S
C2214 C2215 1.339 . S
C2214 C2217 1.530 . S
C2215 C2210 1.304 . S
C2215 C2214 1.339 . S
C2215 H2276 0.930 . S
C2216 C2212 1.567 . S
C2216 H2277 0.961 . S
C2216 H2278 0.960 . S
C2216 H2279 0.958 . S
C2217 C2214 1.530 . S
C2217 H2280 0.961 . S
C2217 H2281 0.960 . S
C2217 H2282 0.960 . S
C2218 C2219 1.530 . S
C2218 H2284 0.961 . S
C2218 H2285 0.961 . S
C2218 H2286 0.959 . S
C2219 C2218 1.530 . S
C2219 O2247 1.412 . S
C2219 H2283 0.980 . S
C2220 C2221 1.288 . S
C2220 C2225 1.377 . S
C2220 O2247 1.393 . S
C2221 C2220 1.288 . S
C2221 C2222 1.369 . S
C2221 H2287 0.932 . S
C2222 C2221 1.369 . S
C2222 C2223 1.398 . S
C2222 C2226 1.527 . S
C2223 C2222 1.398 . S
C2223 C2224 1.380 . S
C2223 C2237 1.497 . S
C2224 C2223 1.380 . S
C2224 C2225 1.383 . S
C2224 C2227 1.603 . S
C2225 C2220 1.377 . S
C2225 C2224 1.383 . S
C2225 H2288 0.929 . S
C2226 C2222 1.527 . S
C2226 H2289 0.961 . S
C2226 H2290 0.959 . S
C2226 H2291 0.959 . S
C2227 C2224 1.603 . S
C2227 H2292 0.960 . S
C2227 H2293 0.962 . S
C2227 H2294 0.961 . S
C2228 C2195 1.587 . S
C2228 C2229 1.360 . S
C2228 C2241 1.412 . S
C2229 C2228 1.360 . S
C2229 C2230 1.365 . S
C2229 H2295 0.929 . S
C2230 C2205 1.553 . S
C2230 C2229 1.365 . S
C2230 C2231 1.404 . S
C2231 C2230 1.404 . S
C2231 C2232 1.395 . S
C2231 C2242 1.451 . S
C2232 C2231 1.395 . S
C2232 C2233 1.322 . S
C2232 H2296 0.930 . S
C2233 C2232 1.322 . S
C2233 C2234 1.459 . S
C2233 H2297 0.929 . S
C2234 C2233 1.459 . S
C2234 C2235 1.445 . S
C2234 C2243 1.395 . S
C2235 C2213 1.432 . S
C2235 C2234 1.445 . S
C2235 C2236 1.370 . S
C2236 C2235 1.370 . S
C2236 C2237 1.438 . S
C2236 H2298 0.930 . S
C2237 C2223 1.497 . S
C2237 C2236 1.438 . S
C2237 C2238 1.360 . S
C2238 C2237 1.360 . S
C2238 C2239 1.401 . S
C2238 C2243 1.446 . S
C2239 C2238 1.401 . S
C2239 C2240 1.347 . S
C2239 H2299 0.929 . S
C2240 C2239 1.347 . S
C2240 C2241 1.455 . S
C2240 H2300 0.930 . S
C2241 C2228 1.412 . S
C2241 C2240 1.455 . S
C2241 C2242 1.331 . S
C2242 C2231 1.451 . S
C2242 C2241 1.331 . S
C2242 C2243 1.497 . S
C2243 C2234 1.395 . S
C2243 C2238 1.446 . S
C2243 C2242 1.497 . S
C2244 C2245 1.582 . S
C2244 H2301 0.962 . S
C2244 H2302 0.959 . S
C2244 H2303 0.958 . S
C2245 C2244 1.582 . S
C2245 O2248 1.458 . S
C2245 H2274 0.980 . S
O2246 C2191 1.426 . S
O2246 C2192 1.334 . S
O2247 C2219 1.412 . S
O2247 C2220 1.393 . S
O2248 C2210 1.435 . S
O2248 C2245 1.458 . S
O2249 C2201 1.468 . S
O2249 C2202 1.408 . S
H2250 C2191 0.980 . S
H2251 C2190 0.959 . S
H2252 C2190 0.959 . S
H2253 C2190 0.960 . S
H2254 C2193 0.929 . S
H2255 C2197 0.929 . S
H2256 C2198 0.959 . S
H2257 C2198 0.961 . S
H2258 C2198 0.961 . S
H2259 C2199 0.960 . S
H2260 C2199 0.960 . S
H2261 C2199 0.961 . S
H2262 C2201 0.980 . S
H2263 C2200 0.961 . S
H2264 C2200 0.960 . S
H2265 C2200 0.959 . S
H2266 C2203 0.930 . S
H2267 C2207 0.931 . S
H2268 C2208 0.959 . S
H2269 C2208 0.961 . S
H2270 C2208 0.959 . S
H2271 C2209 0.960 . S
H2272 C2209 0.960 . S
H2273 C2209 0.960 . S
H2274 C2245 0.980 . S
H2275 C2211 0.930 . S
H2276 C2215 0.930 . S
H2277 C2216 0.961 . S
H2278 C2216 0.960 . S
H2279 C2216 0.958 . S
H2280 C2217 0.961 . S
H2281 C2217 0.960 . S
H2282 C2217 0.960 . S
H2283 C2219 0.980 . S
H2284 C2218 0.961 . S
H2285 C2218 0.961 . S
H2286 C2218 0.959 . S
H2287 C2221 0.932 . S
H2288 C2225 0.929 . S
H2289 C2226 0.961 . S
H2290 C2226 0.959 . S
H2291 C2226 0.959 . S
H2292 C2227 0.960 . S
H2293 C2227 0.962 . S
H2294 C2227 0.961 . S
H2295 C2229 0.929 . S
H2296 C2232 0.930 . S
H2297 C2233 0.929 . S
H2298 C2236 0.930 . S
H2299 C2239 0.929 . S
H2300 C2240 0.930 . S
H2301 C2244 0.962 . S
H2302 C2244 0.959 . S
H2303 C2244 0.958 . S
H2304 C2312 0.950 . S
H2305 C2317 0.950 . S
H2306 C2314 0.950 . S
H2307 C2316 0.950 . S
H2308 C2318 0.950 . S
H2309 C2320 0.950 . S
H2310 C2322 0.950 . S
H2311 C2323 0.950 . S
C2312 H2304 0.950 . S
C2312 C2313 1.355 1_455 S
C2312 C2314 1.391 . S
C2313 C2312 1.355 1_655 S
C2313 C2317 1.450 . S
C2314 H2306 0.950 . S
C2314 C2312 1.391 . S
C2314 C2315 1.400 1_455 S
C2315 C2314 1.400 1_655 S
C2315 C2316 1.398 . S
C2315 C2321 1.491 . S
C2316 H2307 0.950 . S
C2316 C2315 1.398 . S
C2316 C2317 1.391 . S
C2317 H2305 0.950 . S
C2317 C2313 1.450 . S
C2317 C2316 1.391 . S
C2318 H2308 0.950 . S
C2318 C2319 1.386 . S
C2318 C2320 1.391 . S
C2319 C2318 1.386 . S
C2319 C2323 1.393 1_655 S
C2320 H2309 0.950 . S
C2320 C2318 1.391 . S
C2320 C2321 1.400 . S
C2321 C2315 1.491 . S
C2321 C2320 1.400 . S
C2321 C2322 1.398 1_655 S
C2322 H2310 0.950 . S
C2322 C2321 1.398 1_455 S
C2322 C2323 1.391 . S
C2323 H2311 0.950 . S
C2323 C2319 1.393 1_455 S
C2323 C2322 1.391 . S
H2324 C2332 0.950 . S
H2325 C2337 0.950 . S
H2326 C2334 0.950 . S
H2327 C2336 0.950 . S
H2328 C2338 0.950 . S
H2329 C2340 0.950 . S
H2330 C2342 0.950 . S
H2331 C2343 0.950 . S
C2332 H2324 0.950 . S
C2332 C2333 1.386 . S
C2332 C2334 1.391 . S
C2333 C2332 1.386 . S
C2333 C2337 1.393 . S
C2334 H2326 0.950 . S
C2334 C2332 1.391 . S
C2334 C2335 1.400 . S
C2335 C2334 1.400 . S
C2335 C2336 1.398 . S
C2335 C2341 1.491 . S
C2336 H2327 0.950 . S
C2336 C2335 1.398 . S
C2336 C2337 1.391 . S
C2337 H2325 0.950 . S
C2337 C2333 1.393 . S
C2337 C2336 1.391 . S
C2338 H2328 0.950 . S
C2338 C2339 1.386 . S
C2338 C2340 1.391 . S
C2339 C2338 1.386 . S
C2339 C2343 1.393 . S
C2340 H2329 0.950 . S
C2340 C2338 1.391 . S
C2340 C2341 1.400 . S
C2341 C2335 1.491 . S
C2341 C2340 1.400 . S
C2341 C2342 1.398 . S
C2342 H2330 0.950 . S
C2342 C2341 1.398 . S
C2342 C2343 1.391 . S
C2343 H2331 0.950 . S
C2343 C2339 1.393 . S
C2343 C2342 1.391 . S
H2344 C2352 0.950 . S
H2345 C2357 0.950 . S
H2346 C2354 0.950 . S
H2347 C2356 0.950 . S
H2348 C2358 0.950 . S
H2349 C2360 0.950 . S
H2350 C2362 0.950 . S
H2351 C2363 0.950 . S
C2352 H2344 0.950 . S
C2352 C2353 1.386 . S
C2352 C2354 1.391 . S
C2353 C2352 1.386 . S
C2353 C2357 1.393 1_545 S
C2354 H2346 0.950 . S
C2354 C2352 1.391 . S
C2354 C2355 1.400 . S
C2355 C2354 1.400 . S
C2355 C2356 1.398 1_545 S
C2355 C2361 1.491 . S
C2356 H2347 0.950 . S
C2356 C2355 1.398 1_565 S
C2356 C2357 1.391 . S
C2357 H2345 0.950 . S
C2357 C2353 1.393 1_565 S
C2357 C2356 1.391 . S
C2358 H2348 0.950 . S
C2358 C2359 1.386 1_565 S
C2358 C2360 1.391 . S
C2359 C2358 1.386 1_545 S
C2359 C2363 1.393 . S
C2360 H2349 0.950 . S
C2360 C2358 1.391 . S
C2360 C2361 1.400 1_565 S
C2361 C2355 1.491 . S
C2361 C2360 1.400 1_545 S
C2361 C2362 1.398 . S
C2362 H2350 0.950 . S
C2362 C2361 1.398 . S
C2362 C2363 1.391 . S
C2363 H2351 0.950 . S
C2363 C2359 1.393 . S
C2363 C2362 1.391 . S
H2364 C2372 0.950 . S
H2365 C2377 0.950 . S
H2366 C2374 0.950 . S
H2367 C2376 0.950 . S
H2368 C2378 0.950 . S
H2369 C2380 0.950 . S
H2370 C2382 0.950 . S
H2371 C2383 0.950 . S
C2372 H2364 0.950 . S
C2372 C2373 1.386 . S
C2372 C2374 1.391 . S
C2373 C2372 1.386 . S
C2373 C2377 1.393 1_565 S
C2374 H2366 0.950 . S
C2374 C2372 1.391 . S
C2374 C2375 1.400 . S
C2375 C2374 1.400 . S
C2375 C2376 1.398 1_565 S
C2375 C2381 1.491 . S
C2376 H2367 0.950 . S
C2376 C2375 1.398 1_545 S
C2376 C2377 1.391 . S
C2377 H2365 0.950 . S
C2377 C2373 1.393 1_545 S
C2377 C2376 1.391 . S
C2378 H2368 0.950 . S
C2378 C2379 1.386 1_545 S
C2378 C2380 1.391 . S
C2379 C2378 1.386 1_565 S
C2379 C2383 1.393 . S
C2380 H2369 0.950 . S
C2380 C2378 1.391 . S
C2380 C2381 1.400 1_545 S
C2381 C2375 1.491 . S
C2381 C2380 1.400 1_565 S
C2381 C2382 1.398 . S
C2382 H2370 0.950 . S
C2382 C2381 1.398 . S
C2382 C2383 1.391 . S
C2383 H2371 0.950 . S
C2383 C2379 1.393 . S
C2383 C2382 1.391 . S
H2384 C2392 0.950 . S
H2385 C2397 0.950 . S
H2386 C2394 0.950 . S
H2387 C2396 0.950 . S
H2388 C2398 0.950 . S
H2389 C2400 0.950 . S
H2390 C2402 0.950 . S
H2391 C2403 0.950 . S
C2392 H2384 0.950 . S
C2392 C2393 1.386 . S
C2392 C2394 1.391 . S
C2393 C2392 1.386 . S
C2393 C2397 1.393 . S
C2394 H2386 0.950 . S
C2394 C2392 1.391 . S
C2394 C2395 1.400 . S
C2395 C2394 1.400 . S
C2395 C2396 1.398 . S
C2395 C2401 1.491 . S
C2396 H2387 0.950 . S
C2396 C2395 1.398 . S
C2396 C2397 1.391 . S
C2397 H2385 0.950 . S
C2397 C2393 1.393 . S
C2397 C2396 1.391 . S
C2398 H2388 0.950 . S
C2398 C2399 1.386 . S
C2398 C2400 1.391 . S
C2399 C2398 1.386 . S
C2399 C2403 1.393 . S
C2400 H2389 0.950 . S
C2400 C2398 1.391 . S
C2400 C2401 1.400 . S
C2401 C2395 1.491 . S
C2401 C2400 1.400 . S
C2401 C2402 1.398 . S
C2402 H2390 0.950 . S
C2402 C2401 1.398 . S
C2402 C2403 1.391 . S
C2403 H2391 0.950 . S
C2403 C2399 1.393 . S
C2403 C2402 1.391 . S
H2404 C2412 0.950 . S
H2405 C2417 0.950 . S
H2406 C2414 0.950 . S
H2407 C2416 0.950 . S
H2408 C2418 0.950 . S
H2409 C2420 0.950 . S
H2410 C2422 0.950 . S
H2411 C2423 0.950 . S
C2412 H2404 0.950 . S
C2412 C2413 1.386 . S
C2412 C2414 1.391 . S
C2413 C2412 1.386 . S
C2413 C2417 1.393 . S
C2414 H2406 0.950 . S
C2414 C2412 1.391 . S
C2414 C2415 1.400 . S
C2415 C2414 1.400 . S
C2415 C2416 1.398 . S
C2415 C2421 1.491 . S
C2416 H2407 0.950 . S
C2416 C2415 1.398 . S
C2416 C2417 1.391 . S
C2417 H2405 0.950 . S
C2417 C2413 1.393 . S
C2417 C2416 1.391 . S
C2418 H2408 0.950 . S
C2418 C2419 1.386 . S
C2418 C2420 1.391 . S
C2419 C2418 1.386 . S
C2419 C2423 1.393 . S
C2420 H2409 0.950 . S
C2420 C2418 1.391 . S
C2420 C2421 1.400 . S
C2421 C2415 1.491 . S
C2421 C2420 1.400 . S
C2421 C2422 1.398 . S
C2422 H2410 0.950 . S
C2422 C2421 1.398 . S
C2422 C2423 1.391 . S
C2423 H2411 0.950 . S
C2423 C2419 1.393 . S
C2423 C2422 1.391 . S
H2424 C2432 0.950 . S
H2425 C2437 0.950 . S
H2426 C2434 0.950 . S
H2427 C2436 0.950 . S
H2428 C2438 0.950 . S
H2429 C2440 0.950 . S
H2430 C2442 0.950 . S
H2431 C2443 0.950 . S
C2432 H2424 0.950 . S
C2432 C2433 1.386 1_655 S
C2432 C2434 1.391 . S
C2433 C2432 1.386 1_455 S
C2433 C2437 1.393 . S
C2434 H2426 0.950 . S
C2434 C2432 1.391 . S
C2434 C2435 1.400 1_655 S
C2435 C2434 1.400 1_455 S
C2435 C2436 1.398 . S
C2435 C2441 1.491 . S
C2436 H2427 0.950 . S
C2436 C2435 1.398 . S
C2436 C2437 1.391 . S
C2437 H2425 0.950 . S
C2437 C2433 1.393 . S
C2437 C2436 1.391 . S
C2438 H2428 0.950 . S
C2438 C2439 1.389 1_455 S
C2438 C2440 1.391 . S
C2439 C2438 1.389 1_655 S
C2439 C2443 1.386 . S
C2440 H2429 0.950 . S
C2440 C2438 1.391 . S
C2440 C2441 1.400 . S
C2441 C2435 1.491 . S
C2441 C2440 1.400 . S
C2441 C2442 1.398 1_455 S
C2442 H2430 0.950 . S
C2442 C2441 1.398 1_655 S
C2442 C2443 1.391 . S
C2443 H2431 0.950 . S
C2443 C2439 1.386 . S
C2443 C2442 1.391 . S
H2444 C2452 0.950 . S
H2445 C2457 0.950 . S
H2446 C2454 0.950 . S
H2447 C2456 0.950 . S
H2448 C2458 0.950 . S
H2449 C2460 0.950 . S
H2450 C2462 0.950 . S
H2451 C2463 0.950 . S
C2452 H2444 0.950 . S
C2452 C2453 1.386 . S
C2452 C2454 1.391 . S
C2453 C2452 1.386 . S
C2453 C2457 1.393 . S
C2454 H2446 0.950 . S
C2454 C2452 1.391 . S
C2454 C2455 1.400 . S
C2455 C2454 1.400 . S
C2455 C2456 1.398 . S
C2455 C2461 1.491 . S
C2456 H2447 0.950 . S
C2456 C2455 1.398 . S
C2456 C2457 1.391 . S
C2457 H2445 0.950 . S
C2457 C2453 1.393 . S
C2457 C2456 1.391 . S
C2458 H2448 0.950 . S
C2458 C2459 1.386 . S
C2458 C2460 1.391 . S
C2459 C2458 1.386 . S
C2459 C2463 1.393 . S
C2460 H2449 0.950 . S
C2460 C2458 1.391 . S
C2460 C2461 1.400 . S
C2461 C2455 1.491 . S
C2461 C2460 1.400 . S
C2461 C2462 1.398 . S
C2462 H2450 0.950 . S
C2462 C2461 1.398 . S
C2462 C2463 1.391 . S
C2463 H2451 0.950 . S
C2463 C2459 1.393 . S
C2463 C2462 1.391 . S
H2464 C2472 0.950 . S
H2465 C2477 0.950 . S
H2466 C2474 0.950 . S
H2467 C2476 0.950 . S
H2468 C2478 0.950 . S
H2469 C2480 0.950 . S
H2470 C2482 0.950 . S
H2471 C2483 0.950 . S
C2472 H2464 0.950 . S
C2472 C2473 1.386 . S
C2472 C2474 1.391 . S
C2473 C2472 1.386 . S
C2473 C2477 1.393 1_565 S
C2474 H2466 0.950 . S
C2474 C2472 1.391 . S
C2474 C2475 1.400 . S
C2475 C2474 1.400 . S
C2475 C2476 1.398 1_565 S
C2475 C2481 1.491 . S
C2476 H2467 0.950 . S
C2476 C2475 1.398 1_545 S
C2476 C2477 1.391 . S
C2477 H2465 0.950 . S
C2477 C2473 1.393 1_545 S
C2477 C2476 1.391 . S
C2478 H2468 0.950 . S
C2478 C2479 1.374 1_545 S
C2478 C2480 1.391 . S
C2479 C2478 1.374 1_565 S
C2479 C2483 1.413 . S
C2480 H2469 0.950 . S
C2480 C2478 1.391 . S
C2480 C2481 1.400 1_545 S
C2481 C2475 1.491 . S
C2481 C2480 1.400 1_565 S
C2481 C2482 1.398 . S
C2482 H2470 0.950 . S
C2482 C2481 1.398 . S
C2482 C2483 1.391 . S
C2483 H2471 0.950 . S
C2483 C2479 1.413 . S
C2483 C2482 1.391 . S
H2484 C2492 0.950 . S
H2485 C2497 0.950 . S
H2486 C2494 0.950 . S
H2487 C2496 0.950 . S
H2488 C2498 0.950 . S
H2489 C2500 0.950 . S
H2490 C2502 0.950 . S
H2491 C2503 0.950 . S
C2492 H2484 0.950 . S
C2492 C2493 1.386 . S
C2492 C2494 1.391 . S
C2493 C2492 1.386 . S
C2493 C2497 1.393 1_545 S
C2494 H2486 0.950 . S
C2494 C2492 1.391 . S
C2494 C2495 1.400 . S
C2495 C2494 1.400 . S
C2495 C2496 1.398 1_545 S
C2495 C2501 1.491 . S
C2496 H2487 0.950 . S
C2496 C2495 1.398 1_565 S
C2496 C2497 1.391 . S
C2497 H2485 0.950 . S
C2497 C2493 1.393 1_565 S
C2497 C2496 1.391 . S
C2498 H2488 0.950 . S
C2498 C2499 1.374 1_565 S
C2498 C2500 1.391 . S
C2499 C2498 1.374 1_545 S
C2499 C2503 1.397 . S
C2500 H2489 0.950 . S
C2500 C2498 1.391 . S
C2500 C2501 1.400 1_565 S
C2501 C2495 1.491 . S
C2501 C2500 1.400 1_545 S
C2501 C2502 1.398 . S
C2502 H2490 0.950 . S
C2502 C2501 1.398 . S
C2502 C2503 1.391 . S
C2503 H2491 0.950 . S
C2503 C2499 1.397 . S
C2503 C2502 1.391 . S
H2504 C2512 0.950 . S
H2505 C2517 0.950 . S
H2506 C2514 0.950 . S
H2507 C2516 0.950 . S
H2508 C2518 0.950 . S
H2509 C2520 0.950 . S
H2510 C2522 0.950 . S
H2511 C2523 0.950 . S
C2512 H2504 0.950 . S
C2512 C2513 1.386 . S
C2512 C2514 1.391 . S
C2513 C2512 1.386 . S
C2513 C2517 1.393 1_655 S
C2514 H2506 0.950 . S
C2514 C2512 1.391 . S
C2514 C2515 1.400 . S
C2515 C2514 1.400 . S
C2515 C2516 1.398 1_655 S
C2515 C2521 1.491 . S
C2516 H2507 0.950 . S
C2516 C2515 1.398 1_455 S
C2516 C2517 1.391 . S
C2517 H2505 0.950 . S
C2517 C2513 1.393 1_455 S
C2517 C2516 1.391 . S
C2518 H2508 0.950 . S
C2518 C2519 1.377 1_455 S
C2518 C2520 1.391 . S
C2519 C2518 1.377 1_655 S
C2519 C2523 1.411 . S
C2520 H2509 0.950 . S
C2520 C2518 1.391 . S
C2520 C2521 1.400 1_455 S
C2521 C2515 1.491 . S
C2521 C2520 1.400 1_655 S
C2521 C2522 1.398 . S
C2522 H2510 0.950 . S
C2522 C2521 1.398 . S
C2522 C2523 1.391 . S
C2523 H2511 0.950 . S
C2523 C2519 1.411 . S
C2523 C2522 1.391 . S
H2524 C2532 0.950 . S
H2525 C2537 0.950 . S
H2526 C2534 0.950 . S
H2527 C2536 0.950 . S
H2528 C2538 0.950 . S
H2529 C2540 0.950 . S
H2530 C2542 0.950 . S
H2531 C2543 0.950 . S
C2532 H2524 0.950 . S
C2532 C2533 1.386 . S
C2532 C2534 1.391 . S
C2533 C2532 1.386 . S
C2533 C2537 1.393 . S
C2534 H2526 0.950 . S
C2534 C2532 1.391 . S
C2534 C2535 1.400 . S
C2535 C2534 1.400 . S
C2535 C2536 1.398 . S
C2535 C2541 1.491 . S
C2536 H2527 0.950 . S
C2536 C2535 1.398 . S
C2536 C2537 1.391 . S
C2537 H2525 0.950 . S
C2537 C2533 1.393 . S
C2537 C2536 1.391 . S
C2538 H2528 0.950 . S
C2538 C2539 1.386 . S
C2538 C2540 1.391 . S
C2539 C2538 1.386 . S
C2539 C2543 1.393 . S
C2540 H2529 0.950 . S
C2540 C2538 1.391 . S
C2540 C2541 1.400 . S
C2541 C2535 1.491 . S
C2541 C2540 1.400 . S
C2541 C2542 1.398 . S
C2542 H2530 0.950 . S
C2542 C2541 1.398 . S
C2542 C2543 1.391 . S
C2543 H2531 0.950 . S
C2543 C2539 1.393 . S
C2543 C2542 1.391 . S
H2544 C2552 0.950 . S
H2545 C2557 0.950 . S
H2546 C2554 0.950 . S
H2547 C2556 0.950 . S
H2548 C2558 0.950 . S
H2549 C2560 0.950 . S
H2550 C2562 0.950 . S
H2551 C2563 0.950 . S
C2552 H2544 0.950 . S
C2552 C2553 1.386 . S
C2552 C2554 1.391 . S
C2553 C2552 1.386 . S
C2553 C2557 1.393 . S
C2554 H2546 0.950 . S
C2554 C2552 1.391 . S
C2554 C2555 1.400 . S
C2555 C2554 1.400 . S
C2555 C2556 1.398 . S
C2555 C2561 1.491 . S
C2556 H2547 0.950 . S
C2556 C2555 1.398 . S
C2556 C2557 1.391 . S
C2557 H2545 0.950 . S
C2557 C2553 1.393 . S
C2557 C2556 1.391 . S
C2558 H2548 0.950 . S
C2558 C2559 1.386 . S
C2558 C2560 1.391 . S
C2559 C2558 1.386 . S
C2559 C2563 1.393 . S
C2560 H2549 0.950 . S
C2560 C2558 1.391 . S
C2560 C2561 1.400 . S
C2561 C2555 1.491 . S
C2561 C2560 1.400 . S
C2561 C2562 1.398 . S
C2562 H2550 0.950 . S
C2562 C2561 1.398 . S
C2562 C2563 1.391 . S
C2563 H2551 0.950 . S
C2563 C2559 1.393 . S
C2563 C2562 1.391 . S
H2564 C2572 0.950 . S
H2565 C2577 0.950 . S
H2566 C2574 0.950 . S
H2567 C2576 0.950 . S
H2568 C2578 0.950 . S
H2569 C2580 0.950 . S
H2570 C2582 0.950 . S
H2571 C2583 0.950 . S
C2572 H2564 0.950 . S
C2572 C2573 1.386 . S
C2572 C2574 1.391 . S
C2573 C2572 1.386 . S
C2573 C2577 1.393 . S
C2574 H2566 0.950 . S
C2574 C2572 1.391 . S
C2574 C2575 1.400 . S
C2575 C2574 1.400 . S
C2575 C2576 1.398 . S
C2575 C2581 1.491 . S
C2576 H2567 0.950 . S
C2576 C2575 1.398 . S
C2576 C2577 1.391 . S
C2577 H2565 0.950 . S
C2577 C2573 1.393 . S
C2577 C2576 1.391 . S
C2578 H2568 0.950 . S
C2578 C2579 1.386 . S
C2578 C2580 1.391 . S
C2579 C2578 1.386 . S
C2579 C2583 1.393 . S
C2580 H2569 0.950 . S
C2580 C2578 1.391 . S
C2580 C2581 1.400 . S
C2581 C2575 1.491 . S
C2581 C2580 1.400 . S
C2581 C2582 1.398 . S
C2582 H2570 0.950 . S
C2582 C2581 1.398 . S
C2582 C2583 1.391 . S
C2583 H2571 0.950 . S
C2583 C2579 1.393 . S
C2583 C2582 1.391 . S
H2584 C2592 0.950 . S
H2585 C2597 0.950 . S
H2586 C2594 0.950 . S
H2587 C2596 0.950 . S
H2588 C2598 0.950 . S
H2589 C2600 0.950 . S
H2590 C2602 0.950 . S
H2591 C2603 0.950 . S
C2592 H2584 0.950 . S
C2592 C2593 1.386 . S
C2592 C2594 1.391 . S
C2593 C2592 1.386 . S
C2593 C2597 1.393 . S
C2594 H2586 0.950 . S
C2594 C2592 1.391 . S
C2594 C2595 1.400 . S
C2595 C2594 1.400 . S
C2595 C2596 1.398 . S
C2595 C2601 1.491 . S
C2596 H2587 0.950 . S
C2596 C2595 1.398 . S
C2596 C2597 1.391 . S
C2597 H2585 0.950 . S
C2597 C2593 1.393 . S
C2597 C2596 1.391 . S
C2598 H2588 0.950 . S
C2598 C2599 1.386 . S
C2598 C2600 1.391 . S
C2599 C2598 1.386 . S
C2599 C2603 1.393 . S
C2600 H2589 0.950 . S
C2600 C2598 1.391 . S
C2600 C2601 1.400 . S
C2601 C2595 1.491 . S
C2601 C2600 1.400 . S
C2601 C2602 1.398 . S
C2602 H2590 0.950 . S
C2602 C2601 1.398 . S
C2602 C2603 1.391 . S
C2603 H2591 0.950 . S
C2603 C2599 1.393 . S
C2603 C2602 1.391 . S
H2604 C2612 0.950 . S
H2605 C2617 0.950 . S
H2606 C2614 0.950 . S
H2607 C2616 0.950 . S
H2608 C2618 0.950 . S
H2609 C2620 0.950 . S
H2610 C2622 0.950 . S
H2611 C2623 0.950 . S
C2612 H2604 0.950 . S
C2612 C2613 1.386 . S
C2612 C2614 1.391 . S
C2613 C2612 1.386 . S
C2613 C2617 1.393 . S
C2614 H2606 0.950 . S
C2614 C2612 1.391 . S
C2614 C2615 1.400 . S
C2615 C2614 1.400 . S
C2615 C2616 1.398 . S
C2615 C2621 1.491 . S
C2616 H2607 0.950 . S
C2616 C2615 1.398 . S
C2616 C2617 1.391 . S
C2617 H2605 0.950 . S
C2617 C2613 1.393 . S
C2617 C2616 1.391 . S
C2618 H2608 0.950 . S
C2618 C2619 1.386 . S
C2618 C2620 1.391 . S
C2619 C2618 1.386 . S
C2619 C2623 1.393 . S
C2620 H2609 0.950 . S
C2620 C2618 1.391 . S
C2620 C2621 1.400 . S
C2621 C2615 1.491 . S
C2621 C2620 1.400 . S
C2621 C2622 1.398 . S
C2622 H2610 0.950 . S
C2622 C2621 1.398 . S
C2622 C2623 1.391 . S
C2623 H2611 0.950 . S
C2623 C2619 1.393 . S
C2623 C2622 1.391 . S
H2624 C2632 0.950 . S
H2625 C2637 0.950 . S
H2626 C2634 0.950 . S
H2627 C2636 0.950 . S
H2628 C2638 0.950 . S
H2629 C2640 0.950 . S
H2630 C2642 0.950 . S
H2631 C2643 0.950 . S
C2632 H2624 0.950 . S
C2632 C2633 1.386 . S
C2632 C2634 1.391 . S
C2633 C2632 1.386 . S
C2633 C2637 1.393 . S
C2634 H2626 0.950 . S
C2634 C2632 1.391 . S
C2634 C2635 1.400 . S
C2635 C2634 1.400 . S
C2635 C2636 1.398 . S
C2635 C2641 1.491 . S
C2636 H2627 0.950 . S
C2636 C2635 1.398 . S
C2636 C2637 1.391 . S
C2637 H2625 0.950 . S
C2637 C2633 1.393 . S
C2637 C2636 1.391 . S
C2638 H2628 0.950 . S
C2638 C2639 1.386 . S
C2638 C2640 1.391 . S
C2639 C2638 1.386 . S
C2639 C2643 1.393 . S
C2640 H2629 0.950 . S
C2640 C2638 1.391 . S
C2640 C2641 1.400 . S
C2641 C2635 1.491 . S
C2641 C2640 1.400 . S
C2641 C2642 1.398 . S
C2642 H2630 0.950 . S
C2642 C2641 1.398 . S
C2642 C2643 1.391 . S
C2643 H2631 0.950 . S
C2643 C2639 1.393 . S
C2643 C2642 1.391 . S
H2644 C2652 0.950 . S
H2645 C2657 0.950 . S
H2646 C2654 0.950 . S
H2647 C2656 0.950 . S
H2648 C2658 0.950 . S
H2649 C2660 0.950 . S
H2650 C2662 0.950 . S
H2651 C2663 0.950 . S
C2652 H2644 0.950 . S
C2652 C2653 1.386 . S
C2652 C2654 1.391 . S
C2653 C2652 1.386 . S
C2653 C2657 1.393 . S
C2654 H2646 0.950 . S
C2654 C2652 1.391 . S
C2654 C2655 1.400 . S
C2655 C2654 1.400 . S
C2655 C2656 1.398 . S
C2655 C2661 1.491 . S
C2656 H2647 0.950 . S
C2656 C2655 1.398 . S
C2656 C2657 1.391 . S
C2657 H2645 0.950 . S
C2657 C2653 1.393 . S
C2657 C2656 1.391 . S
C2658 H2648 0.950 . S
C2658 C2659 1.386 . S
C2658 C2660 1.391 . S
C2659 C2658 1.386 . S
C2659 C2663 1.393 . S
C2660 H2649 0.950 . S
C2660 C2658 1.391 . S
C2660 C2661 1.400 . S
C2661 C2655 1.491 . S
C2661 C2660 1.400 . S
C2661 C2662 1.398 . S
C2662 H2650 0.950 . S
C2662 C2661 1.398 . S
C2662 C2663 1.391 . S
C2663 H2651 0.950 . S
C2663 C2659 1.393 . S
C2663 C2662 1.391 . S
H2664 C2672 0.950 . S
H2665 C2677 0.950 . S
H2666 C2674 0.950 . S
H2667 C2676 0.950 . S
H2668 C2678 0.950 . S
H2669 C2680 0.950 . S
H2670 C2682 0.950 . S
H2671 C2683 0.950 . S
C2672 H2664 0.950 . S
C2672 C2673 1.386 . S
C2672 C2674 1.391 . S
C2673 C2672 1.386 . S
C2673 C2677 1.393 . S
C2674 H2666 0.950 . S
C2674 C2672 1.391 . S
C2674 C2675 1.400 . S
C2675 C2674 1.400 . S
C2675 C2676 1.398 . S
C2675 C2681 1.491 . S
C2676 H2667 0.950 . S
C2676 C2675 1.398 . S
C2676 C2677 1.391 . S
C2677 H2665 0.950 . S
C2677 C2673 1.393 . S
C2677 C2676 1.391 . S
C2678 H2668 0.950 . S
C2678 C2679 1.386 . S
C2678 C2680 1.391 . S
C2679 C2678 1.386 . S
C2679 C2683 1.393 . S
C2680 H2669 0.950 . S
C2680 C2678 1.391 . S
C2680 C2681 1.400 . S
C2681 C2675 1.491 . S
C2681 C2680 1.400 . S
C2681 C2682 1.398 . S
C2682 H2670 0.950 . S
C2682 C2681 1.398 . S
C2682 C2683 1.391 . S
C2683 H2671 0.950 . S
C2683 C2679 1.393 . S
C2683 C2682 1.391 . S
H2684 C2692 0.950 . S
H2685 C2697 0.950 . S
H2686 C2694 0.950 . S
H2687 C2696 0.950 . S
H2688 C2698 0.950 . S
H2689 C2700 0.950 . S
H2690 C2702 0.950 . S
H2691 C2703 0.950 . S
C2692 H2684 0.950 . S
C2692 C2693 1.386 . S
C2692 C2694 1.391 . S
C2693 C2692 1.386 . S
C2693 C2697 1.393 . S
C2694 H2686 0.950 . S
C2694 C2692 1.391 . S
C2694 C2695 1.400 . S
C2695 C2694 1.400 . S
C2695 C2696 1.398 . S
C2695 C2701 1.491 . S
C2696 H2687 0.950 . S
C2696 C2695 1.398 . S
C2696 C2697 1.391 . S
C2697 H2685 0.950 . S
C2697 C2693 1.393 . S
C2697 C2696 1.391 . S
C2698 H2688 0.950 . S
C2698 C2699 1.386 . S
C2698 C2700 1.391 . S
C2699 C2698 1.386 . S
C2699 C2703 1.393 . S
C2700 H2689 0.950 . S
C2700 C2698 1.391 . S
C2700 C2701 1.400 . S
C2701 C2695 1.491 . S
C2701 C2700 1.400 . S
C2701 C2702 1.398 . S
C2702 H2690 0.950 . S
C2702 C2701 1.398 . S
C2702 C2703 1.391 . S
C2703 H2691 0.950 . S
C2703 C2699 1.393 . S
C2703 C2702 1.391 . S
H2704 C2712 0.950 . S
H2705 C2717 0.950 . S
H2706 C2714 0.950 . S
H2707 C2716 0.950 . S
H2708 C2718 0.950 . S
H2709 C2720 0.950 . S
H2710 C2722 0.950 . S
H2711 C2723 0.950 . S
C2712 H2704 0.950 . S
C2712 C2713 1.386 . S
C2712 C2714 1.391 . S
C2713 C2712 1.386 . S
C2713 C2717 1.393 . S
C2714 H2706 0.950 . S
C2714 C2712 1.391 . S
C2714 C2715 1.400 . S
C2715 C2714 1.400 . S
C2715 C2716 1.398 . S
C2715 C2721 1.491 . S
C2716 H2707 0.950 . S
C2716 C2715 1.398 . S
C2716 C2717 1.391 . S
C2717 H2705 0.950 . S
C2717 C2713 1.393 . S
C2717 C2716 1.391 . S
C2718 H2708 0.950 . S
C2718 C2719 1.386 . S
C2718 C2720 1.391 . S
C2719 C2718 1.386 . S
C2719 C2723 1.393 . S
C2720 H2709 0.950 . S
C2720 C2718 1.391 . S
C2720 C2721 1.400 . S
C2721 C2715 1.491 . S
C2721 C2720 1.400 . S
C2721 C2722 1.398 . S
C2722 H2710 0.950 . S
C2722 C2721 1.398 . S
C2722 C2723 1.391 . S
C2723 H2711 0.950 . S
C2723 C2719 1.393 . S
C2723 C2722 1.391 . S
H2724 C2732 0.950 . S
H2725 C2737 0.950 . S
H2726 C2734 0.950 . S
H2727 C2736 0.950 . S
H2728 C2738 0.950 . S
H2729 C2740 0.950 . S
H2730 C2742 0.950 . S
H2731 C2743 0.950 . S
C2732 H2724 0.950 . S
C2732 C2733 1.386 . S
C2732 C2734 1.391 . S
C2733 C2732 1.386 . S
C2733 C2737 1.393 . S
C2734 H2726 0.950 . S
C2734 C2732 1.391 . S
C2734 C2735 1.400 . S
C2735 C2734 1.400 . S
C2735 C2736 1.398 . S
C2735 C2741 1.491 . S
C2736 H2727 0.950 . S
C2736 C2735 1.398 . S
C2736 C2737 1.391 . S
C2737 H2725 0.950 . S
C2737 C2733 1.393 . S
C2737 C2736 1.391 . S
C2738 H2728 0.950 . S
C2738 C2739 1.386 . S
C2738 C2740 1.391 . S
C2739 C2738 1.386 . S
C2739 C2743 1.393 . S
C2740 H2729 0.950 . S
C2740 C2738 1.391 . S
C2740 C2741 1.400 . S
C2741 C2735 1.491 . S
C2741 C2740 1.400 . S
C2741 C2742 1.398 . S
C2742 H2730 0.950 . S
C2742 C2741 1.398 . S
C2742 C2743 1.391 . S
C2743 H2731 0.950 . S
C2743 C2739 1.393 . S
C2743 C2742 1.391 . S
H2744 C2752 0.950 . S
H2745 C2757 0.950 . S
H2746 C2754 0.950 . S
H2747 C2756 0.950 . S
H2748 C2758 0.950 . S
H2749 C2760 0.950 . S
H2750 C2762 0.950 . S
H2751 C2763 0.950 . S
C2752 H2744 0.950 . S
C2752 C2753 1.386 . S
C2752 C2754 1.391 . S
C2753 C2752 1.386 . S
C2753 C2757 1.393 . S
C2754 H2746 0.950 . S
C2754 C2752 1.391 . S
C2754 C2755 1.400 . S
C2755 C2754 1.400 . S
C2755 C2756 1.398 . S
C2755 C2761 1.491 . S
C2756 H2747 0.950 . S
C2756 C2755 1.398 . S
C2756 C2757 1.391 . S
C2757 H2745 0.950 . S
C2757 C2753 1.393 . S
C2757 C2756 1.391 . S
C2758 H2748 0.950 . S
C2758 C2759 1.386 . S
C2758 C2760 1.391 . S
C2759 C2758 1.386 . S
C2759 C2763 1.393 . S
C2760 H2749 0.950 . S
C2760 C2758 1.391 . S
C2760 C2761 1.400 . S
C2761 C2755 1.491 . S
C2761 C2760 1.400 . S
C2761 C2762 1.398 . S
C2762 H2750 0.950 . S
C2762 C2761 1.398 . S
C2762 C2763 1.391 . S
C2763 H2751 0.950 . S
C2763 C2759 1.393 . S
C2763 C2762 1.391 . S
H2764 C2772 0.950 . S
H2765 C2777 0.950 . S
H2766 C2774 0.950 . S
H2767 C2776 0.950 . S
H2768 C2778 0.950 . S
H2769 C2780 0.950 . S
H2770 C2782 0.950 . S
H2771 C2783 0.950 . S
C2772 H2764 0.950 . S
C2772 C2773 1.386 . S
C2772 C2774 1.391 . S
C2773 C2772 1.386 . S
C2773 C2777 1.393 . S
C2774 H2766 0.950 . S
C2774 C2772 1.391 . S
C2774 C2775 1.400 . S
C2775 C2774 1.400 . S
C2775 C2776 1.398 . S
C2775 C2781 1.491 . S
C2776 H2767 0.950 . S
C2776 C2775 1.398 . S
C2776 C2777 1.391 . S
C2777 H2765 0.950 . S
C2777 C2773 1.393 . S
C2777 C2776 1.391 . S
C2778 H2768 0.950 . S
C2778 C2779 1.386 . S
C2778 C2780 1.391 . S
C2779 C2778 1.386 . S
C2779 C2783 1.393 . S
C2780 H2769 0.950 . S
C2780 C2778 1.391 . S
C2780 C2781 1.400 . S
C2781 C2775 1.491 . S
C2781 C2780 1.400 . S
C2781 C2782 1.398 . S
C2782 H2770 0.950 . S
C2782 C2781 1.398 . S
C2782 C2783 1.391 . S
C2783 H2771 0.950 . S
C2783 C2779 1.393 . S
C2783 C2782 1.391 . S
H2784 C2792 0.950 . S
H2785 C2797 0.950 . S
H2786 C2794 0.950 . S
H2787 C2796 0.950 . S
H2788 C2798 0.950 . S
H2789 C2800 0.950 . S
H2790 C2802 0.950 . S
H2791 C2803 0.950 . S
C2792 H2784 0.950 . S
C2792 C2793 1.386 . S
C2792 C2794 1.391 . S
C2793 C2792 1.386 . S
C2793 C2797 1.393 . S
C2794 H2786 0.950 . S
C2794 C2792 1.391 . S
C2794 C2795 1.400 . S
C2795 C2794 1.400 . S
C2795 C2796 1.398 . S
C2795 C2801 1.491 . S
C2796 H2787 0.950 . S
C2796 C2795 1.398 . S
C2796 C2797 1.391 . S
C2797 H2785 0.950 . S
C2797 C2793 1.393 . S
C2797 C2796 1.391 . S
C2798 H2788 0.950 . S
C2798 C2799 1.386 . S
C2798 C2800 1.391 . S
C2799 C2798 1.386 . S
C2799 C2803 1.393 . S
C2800 H2789 0.950 . S
C2800 C2798 1.391 . S
C2800 C2801 1.400 . S
C2801 C2795 1.491 . S
C2801 C2800 1.400 . S
C2801 C2802 1.398 . S
C2802 H2790 0.950 . S
C2802 C2801 1.398 . S
C2802 C2803 1.391 . S
C2803 H2791 0.950 . S
C2803 C2799 1.393 . S
C2803 C2802 1.391 . S
H2804 C2812 0.950 . S
H2805 C2817 0.950 . S
H2806 C2814 0.950 . S
H2807 C2816 0.950 . S
H2808 C2818 0.950 . S
H2809 C2820 0.950 . S
H2810 C2822 0.950 . S
H2811 C2823 0.950 . S
C2812 H2804 0.950 . S
C2812 C2813 1.386 . S
C2812 C2814 1.391 . S
C2813 C2812 1.386 . S
C2813 C2817 1.393 . S
C2814 H2806 0.950 . S
C2814 C2812 1.391 . S
C2814 C2815 1.400 . S
C2815 C2814 1.400 . S
C2815 C2816 1.398 . S
C2815 C2821 1.491 . S
C2816 H2807 0.950 . S
C2816 C2815 1.398 . S
C2816 C2817 1.391 . S
C2817 H2805 0.950 . S
C2817 C2813 1.393 . S
C2817 C2816 1.391 . S
C2818 H2808 0.950 . S
C2818 C2819 1.386 . S
C2818 C2820 1.391 . S
C2819 C2818 1.386 . S
C2819 C2823 1.393 . S
C2820 H2809 0.950 . S
C2820 C2818 1.391 . S
C2820 C2821 1.400 . S
C2821 C2815 1.491 . S
C2821 C2820 1.400 . S
C2821 C2822 1.398 . S
C2822 H2810 0.950 . S
C2822 C2821 1.398 . S
C2822 C2823 1.391 . S
C2823 H2811 0.950 . S
C2823 C2819 1.393 . S
C2823 C2822 1.391 . S
H2824 C2832 0.950 . S
H2825 C2837 0.950 . S
H2826 C2834 0.950 . S
H2827 C2836 0.950 . S
H2828 C2838 0.950 . S
H2829 C2840 0.950 . S
H2830 C2842 0.950 . S
H2831 C2843 0.950 . S
C2832 H2824 0.950 . S
C2832 C2833 1.386 . S
C2832 C2834 1.391 . S
C2833 C2832 1.386 . S
C2833 C2837 1.393 . S
C2834 H2826 0.950 . S
C2834 C2832 1.391 . S
C2834 C2835 1.400 . S
C2835 C2834 1.400 . S
C2835 C2836 1.398 . S
C2835 C2841 1.491 . S
C2836 H2827 0.950 . S
C2836 C2835 1.398 . S
C2836 C2837 1.391 . S
C2837 H2825 0.950 . S
C2837 C2833 1.393 . S
C2837 C2836 1.391 . S
C2838 H2828 0.950 . S
C2838 C2839 1.386 . S
C2838 C2840 1.391 . S
C2839 C2838 1.386 . S
C2839 C2843 1.393 . S
C2840 H2829 0.950 . S
C2840 C2838 1.391 . S
C2840 C2841 1.400 . S
C2841 C2835 1.491 . S
C2841 C2840 1.400 . S
C2841 C2842 1.398 . S
C2842 H2830 0.950 . S
C2842 C2841 1.398 . S
C2842 C2843 1.391 . S
C2843 H2831 0.950 . S
C2843 C2839 1.393 . S
C2843 C2842 1.391 . S
H2844 C2852 0.950 . S
H2845 C2857 0.950 . S
H2846 C2854 0.950 . S
H2847 C2856 0.950 . S
H2848 C2858 0.950 . S
H2849 C2860 0.950 . S
H2850 C2862 0.950 . S
H2851 C2863 0.950 . S
C2852 H2844 0.950 . S
C2852 C2853 1.386 . S
C2852 C2854 1.391 . S
C2853 C2852 1.386 . S
C2853 C2857 1.393 . S
C2854 H2846 0.950 . S
C2854 C2852 1.391 . S
C2854 C2855 1.400 . S
C2855 C2854 1.400 . S
C2855 C2856 1.398 . S
C2855 C2861 1.491 . S
C2856 H2847 0.950 . S
C2856 C2855 1.398 . S
C2856 C2857 1.391 . S
C2857 H2845 0.950 . S
C2857 C2853 1.393 . S
C2857 C2856 1.391 . S
C2858 H2848 0.950 . S
C2858 C2859 1.386 . S
C2858 C2860 1.391 . S
C2859 C2858 1.386 . S
C2859 C2863 1.393 . S
C2860 H2849 0.950 . S
C2860 C2858 1.391 . S
C2860 C2861 1.400 . S
C2861 C2855 1.491 . S
C2861 C2860 1.400 . S
C2861 C2862 1.398 . S
C2862 H2850 0.950 . S
C2862 C2861 1.398 . S
C2862 C2863 1.391 . S
C2863 H2851 0.950 . S
C2863 C2859 1.393 . S
C2863 C2862 1.391 . S
H2864 C2872 0.950 . S
H2865 C2877 0.950 . S
H2866 C2874 0.950 . S
H2867 C2876 0.950 . S
H2868 C2878 0.950 . S
H2869 C2880 0.950 . S
H2870 C2882 0.950 . S
H2871 C2883 0.950 . S
C2872 H2864 0.950 . S
C2872 C2873 1.386 . S
C2872 C2874 1.391 . S
C2873 C2872 1.386 . S
C2873 C2877 1.393 . S
C2874 H2866 0.950 . S
C2874 C2872 1.391 . S
C2874 C2875 1.400 . S
C2875 C2874 1.400 . S
C2875 C2876 1.398 . S
C2875 C2881 1.491 . S
C2876 H2867 0.950 . S
C2876 C2875 1.398 . S
C2876 C2877 1.391 . S
C2877 H2865 0.950 . S
C2877 C2873 1.393 . S
C2877 C2876 1.391 . S
C2878 H2868 0.950 . S
C2878 C2879 1.386 . S
C2878 C2880 1.391 . S
C2879 C2878 1.386 . S
C2879 C2883 1.393 . S
C2880 H2869 0.950 . S
C2880 C2878 1.391 . S
C2880 C2881 1.400 . S
C2881 C2875 1.491 . S
C2881 C2880 1.400 . S
C2881 C2882 1.398 . S
C2882 H2870 0.950 . S
C2882 C2881 1.398 . S
C2882 C2883 1.391 . S
C2883 H2871 0.950 . S
C2883 C2879 1.393 . S
C2883 C2882 1.391 . S
H2884 C2892 0.950 . S
H2885 C2897 0.950 . S
H2886 C2894 0.950 . S
H2887 C2896 0.950 . S
H2888 C2898 0.950 . S
H2889 C2900 0.950 . S
H2890 C2902 0.950 . S
H2891 C2903 0.950 . S
C2892 H2884 0.950 . S
C2892 C2893 1.386 . S
C2892 C2894 1.391 . S
C2893 C2892 1.386 . S
C2893 C2897 1.393 . S
C2894 H2886 0.950 . S
C2894 C2892 1.391 . S
C2894 C2895 1.400 . S
C2895 C2894 1.400 . S
C2895 C2896 1.398 . S
C2895 C2901 1.491 . S
C2896 H2887 0.950 . S
C2896 C2895 1.398 . S
C2896 C2897 1.391 . S
C2897 H2885 0.950 . S
C2897 C2893 1.393 . S
C2897 C2896 1.391 . S
C2898 H2888 0.950 . S
C2898 C2899 1.386 . S
C2898 C2900 1.391 . S
C2899 C2898 1.386 . S
C2899 C2903 1.393 . S
C2900 H2889 0.950 . S
C2900 C2898 1.391 . S
C2900 C2901 1.400 . S
C2901 C2895 1.491 . S
C2901 C2900 1.400 . S
C2901 C2902 1.398 . S
C2902 H2890 0.950 . S
C2902 C2901 1.398 . S
C2902 C2903 1.391 . S
C2903 H2891 0.950 . S
C2903 C2899 1.393 . S
C2903 C2902 1.391 . S
H2904 C2912 0.950 . S
H2905 C2917 0.950 . S
H2906 C2914 0.950 . S
H2907 C2916 0.950 . S
H2908 C2918 0.950 . S
H2909 C2920 0.950 . S
H2910 C2922 0.950 . S
H2911 C2923 0.950 . S
C2912 H2904 0.950 . S
C2912 C2913 1.386 . S
C2912 C2914 1.391 . S
C2913 C2912 1.386 . S
C2913 C2917 1.393 . S
C2914 H2906 0.950 . S
C2914 C2912 1.391 . S
C2914 C2915 1.400 . S
C2915 C2914 1.400 . S
C2915 C2916 1.398 . S
C2915 C2921 1.491 . S
C2916 H2907 0.950 . S
C2916 C2915 1.398 . S
C2916 C2917 1.391 . S
C2917 H2905 0.950 . S
C2917 C2913 1.393 . S
C2917 C2916 1.391 . S
C2918 H2908 0.950 . S
C2918 C2919 1.386 . S
C2918 C2920 1.391 . S
C2919 C2918 1.386 . S
C2919 C2923 1.393 . S
C2920 H2909 0.950 . S
C2920 C2918 1.391 . S
C2920 C2921 1.400 . S
C2921 C2915 1.491 . S
C2921 C2920 1.400 . S
C2921 C2922 1.398 . S
C2922 H2910 0.950 . S
C2922 C2921 1.398 . S
C2922 C2923 1.391 . S
C2923 H2911 0.950 . S
C2923 C2919 1.393 . S
C2923 C2922 1.391 . S
H2924 C2932 0.950 . S
H2925 C2937 0.950 . S
H2926 C2934 0.950 . S
H2927 C2936 0.950 . S
H2928 C2938 0.950 . S
H2929 C2940 0.950 . S
H2930 C2942 0.950 . S
H2931 C2943 0.950 . S
C2932 H2924 0.950 . S
C2932 C2933 1.386 . S
C2932 C2934 1.391 . S
C2933 C2932 1.386 . S
C2933 C2937 1.393 . S
C2934 H2926 0.950 . S
C2934 C2932 1.391 . S
C2934 C2935 1.400 . S
C2935 C2934 1.400 . S
C2935 C2936 1.398 . S
C2935 C2941 1.491 . S
C2936 H2927 0.950 . S
C2936 C2935 1.398 . S
C2936 C2937 1.391 . S
C2937 H2925 0.950 . S
C2937 C2933 1.393 . S
C2937 C2936 1.391 . S
C2938 H2928 0.950 . S
C2938 C2939 1.386 . S
C2938 C2940 1.391 . S
C2939 C2938 1.386 . S
C2939 C2943 1.393 . S
C2940 H2929 0.950 . S
C2940 C2938 1.391 . S
C2940 C2941 1.400 . S
C2941 C2935 1.491 . S
C2941 C2940 1.400 . S
C2941 C2942 1.398 . S
C2942 H2930 0.950 . S
C2942 C2941 1.398 . S
C2942 C2943 1.391 . S
C2943 H2931 0.950 . S
C2943 C2939 1.393 . S
C2943 C2942 1.391 . S
H2944 C2952 0.950 . S
H2945 C2957 0.950 . S
H2946 C2954 0.950 . S
H2947 C2956 0.950 . S
H2948 C2958 0.950 . S
H2949 C2960 0.950 . S
H2950 C2962 0.950 . S
H2951 C2963 0.950 . S
C2952 H2944 0.950 . S
C2952 C2953 1.386 . S
C2952 C2954 1.391 . S
C2953 C2952 1.386 . S
C2953 C2957 1.393 . S
C2954 H2946 0.950 . S
C2954 C2952 1.391 . S
C2954 C2955 1.400 . S
C2955 C2954 1.400 . S
C2955 C2956 1.398 . S
C2955 C2961 1.491 . S
C2956 H2947 0.950 . S
C2956 C2955 1.398 . S
C2956 C2957 1.391 . S
C2957 H2945 0.950 . S
C2957 C2953 1.393 . S
C2957 C2956 1.391 . S
C2958 H2948 0.950 . S
C2958 C2959 1.386 . S
C2958 C2960 1.391 . S
C2959 C2958 1.386 . S
C2959 C2963 1.393 . S
C2960 H2949 0.950 . S
C2960 C2958 1.391 . S
C2960 C2961 1.400 . S
C2961 C2955 1.491 . S
C2961 C2960 1.400 . S
C2961 C2962 1.398 . S
C2962 H2950 0.950 . S
C2962 C2961 1.398 . S
C2962 C2963 1.391 . S
C2963 H2951 0.950 . S
C2963 C2959 1.393 . S
C2963 C2962 1.391 . S
H2964 C2972 0.950 . S
H2965 C2977 0.950 . S
H2966 C2974 0.950 . S
H2967 C2976 0.950 . S
H2968 C2978 0.950 . S
H2969 C2980 0.950 . S
H2970 C2982 0.950 . S
H2971 C2983 0.950 . S
C2972 H2964 0.950 . S
C2972 C2973 1.386 . S
C2972 C2974 1.391 . S
C2973 C2972 1.386 . S
C2973 C2977 1.393 . S
C2974 H2966 0.950 . S
C2974 C2972 1.391 . S
C2974 C2975 1.400 . S
C2975 C2974 1.400 . S
C2975 C2976 1.398 . S
C2975 C2981 1.491 . S
C2976 H2967 0.950 . S
C2976 C2975 1.398 . S
C2976 C2977 1.391 . S
C2977 H2965 0.950 . S
C2977 C2973 1.393 . S
C2977 C2976 1.391 . S
C2978 H2968 0.950 . S
C2978 C2979 1.386 . S
C2978 C2980 1.391 . S
C2979 C2978 1.386 . S
C2979 C2983 1.393 . S
C2980 H2969 0.950 . S
C2980 C2978 1.391 . S
C2980 C2981 1.400 . S
C2981 C2975 1.491 . S
C2981 C2980 1.400 . S
C2981 C2982 1.398 . S
C2982 H2970 0.950 . S
C2982 C2981 1.398 . S
C2982 C2983 1.391 . S
C2983 H2971 0.950 . S
C2983 C2979 1.393 . S
C2983 C2982 1.391 . S
H2984 C2992 0.950 . S
H2985 C2997 0.950 . S
H2986 C2994 0.950 . S
H2987 C2996 0.950 . S
H2988 C2998 0.950 . S
H2989 C3000 0.950 . S
H2990 C3002 0.950 . S
H2991 C3003 0.950 . S
C2992 H2984 0.950 . S
C2992 C2993 1.386 . S
C2992 C2994 1.391 . S
C2993 C2992 1.386 . S
C2993 C2997 1.393 . S
C2994 H2986 0.950 . S
C2994 C2992 1.391 . S
C2994 C2995 1.400 . S
C2995 C2994 1.400 . S
C2995 C2996 1.398 . S
C2995 C3001 1.491 . S
C2996 H2987 0.950 . S
C2996 C2995 1.398 . S
C2996 C2997 1.391 . S
C2997 H2985 0.950 . S
C2997 C2993 1.393 . S
C2997 C2996 1.391 . S
C2998 H2988 0.950 . S
C2998 C2999 1.386 . S
C2998 C3000 1.391 . S
C2999 C2998 1.386 . S
C2999 C3003 1.393 . S
C3000 H2989 0.950 . S
C3000 C2998 1.391 . S
C3000 C3001 1.400 . S
C3001 C2995 1.491 . S
C3001 C3000 1.400 . S
C3001 C3002 1.398 . S
C3002 H2990 0.950 . S
C3002 C3001 1.398 . S
C3002 C3003 1.391 . S
C3003 H2991 0.950 . S
C3003 C2999 1.393 . S
C3003 C3002 1.391 . S
H3004 C3012 0.950 . S
H3005 C3017 0.950 . S
H3006 C3014 0.950 . S
H3007 C3016 0.950 . S
H3008 C3018 0.950 . S
H3009 C3020 0.950 . S
H3010 C3022 0.950 . S
H3011 C3023 0.950 . S
C3012 H3004 0.950 . S
C3012 C3013 1.386 . S
C3012 C3014 1.391 . S
C3013 C3012 1.386 . S
C3013 C3017 1.393 . S
C3014 H3006 0.950 . S
C3014 C3012 1.391 . S
C3014 C3015 1.400 . S
C3015 C3014 1.400 . S
C3015 C3016 1.398 . S
C3015 C3021 1.491 . S
C3016 H3007 0.950 . S
C3016 C3015 1.398 . S
C3016 C3017 1.391 . S
C3017 H3005 0.950 . S
C3017 C3013 1.393 . S
C3017 C3016 1.391 . S
C3018 H3008 0.950 . S
C3018 C3019 1.386 . S
C3018 C3020 1.391 . S
C3019 C3018 1.386 . S
C3019 C3023 1.393 . S
C3020 H3009 0.950 . S
C3020 C3018 1.391 . S
C3020 C3021 1.400 . S
C3021 C3015 1.491 . S
C3021 C3020 1.400 . S
C3021 C3022 1.398 . S
C3022 H3010 0.950 . S
C3022 C3021 1.398 . S
C3022 C3023 1.391 . S
C3023 H3011 0.950 . S
C3023 C3019 1.393 . S
C3023 C3022 1.391 . S
H3024 C3032 0.950 . S
H3025 C3037 0.950 . S
H3026 C3034 0.950 . S
H3027 C3036 0.950 . S
H3028 C3038 0.950 . S
H3029 C3040 0.950 . S
H3030 C3042 0.950 . S
H3031 C3043 0.950 . S
C3032 H3024 0.950 . S
C3032 C3033 1.386 . S
C3032 C3034 1.391 . S
C3033 C3032 1.386 . S
C3033 C3037 1.393 . S
C3034 H3026 0.950 . S
C3034 C3032 1.391 . S
C3034 C3035 1.400 . S
C3035 C3034 1.400 . S
C3035 C3036 1.398 . S
C3035 C3041 1.491 . S
C3036 H3027 0.950 . S
C3036 C3035 1.398 . S
C3036 C3037 1.391 . S
C3037 H3025 0.950 . S
C3037 C3033 1.393 . S
C3037 C3036 1.391 . S
C3038 H3028 0.950 . S
C3038 C3039 1.386 . S
C3038 C3040 1.391 . S
C3039 C3038 1.386 . S
C3039 C3043 1.393 . S
C3040 H3029 0.950 . S
C3040 C3038 1.391 . S
C3040 C3041 1.400 . S
C3041 C3035 1.491 . S
C3041 C3040 1.400 . S
C3041 C3042 1.398 . S
C3042 H3030 0.950 . S
C3042 C3041 1.398 . S
C3042 C3043 1.391 . S
C3043 H3031 0.950 . S
C3043 C3039 1.393 . S
C3043 C3042 1.391 . S
H3044 C3052 0.950 . S
H3045 C3057 0.950 . S
H3046 C3054 0.950 . S
H3047 C3056 0.950 . S
H3048 C3058 0.950 . S
H3049 C3060 0.950 . S
H3050 C3062 0.950 . S
H3051 C3063 0.950 . S
C3052 H3044 0.950 . S
C3052 C3053 1.386 . S
C3052 C3054 1.391 . S
C3053 C3052 1.386 . S
C3053 C3057 1.393 . S
C3054 H3046 0.950 . S
C3054 C3052 1.391 . S
C3054 C3055 1.400 . S
C3055 C3054 1.400 . S
C3055 C3056 1.398 . S
C3055 C3061 1.491 . S
C3056 H3047 0.950 . S
C3056 C3055 1.398 . S
C3056 C3057 1.391 . S
C3057 H3045 0.950 . S
C3057 C3053 1.393 . S
C3057 C3056 1.391 . S
C3058 H3048 0.950 . S
C3058 C3059 1.386 . S
C3058 C3060 1.391 . S
C3059 C3058 1.386 . S
C3059 C3063 1.393 . S
C3060 H3049 0.950 . S
C3060 C3058 1.391 . S
C3060 C3061 1.400 . S
C3061 C3055 1.491 . S
C3061 C3060 1.400 . S
C3061 C3062 1.398 . S
C3062 H3050 0.950 . S
C3062 C3061 1.398 . S
C3062 C3063 1.391 . S
C3063 H3051 0.950 . S
C3063 C3059 1.393 . S
C3063 C3062 1.391 . S
H3064 C3072 0.950 . S
H3065 C3077 0.950 . S
H3066 C3074 0.950 . S
H3067 C3076 0.950 . S
H3068 C3078 0.950 . S
H3069 C3080 0.950 . S
H3070 C3082 0.950 . S
H3071 C3083 0.950 . S
C3072 H3064 0.950 . S
C3072 C3073 1.386 . S
C3072 C3074 1.391 . S
C3073 C3072 1.386 . S
C3073 C3077 1.393 . S
C3074 H3066 0.950 . S
C3074 C3072 1.391 . S
C3074 C3075 1.400 . S
C3075 C3074 1.400 . S
C3075 C3076 1.398 . S
C3075 C3081 1.491 . S
C3076 H3067 0.950 . S
C3076 C3075 1.398 . S
C3076 C3077 1.391 . S
C3077 H3065 0.950 . S
C3077 C3073 1.393 . S
C3077 C3076 1.391 . S
C3078 H3068 0.950 . S
C3078 C3079 1.386 . S
C3078 C3080 1.391 . S
C3079 C3078 1.386 . S
C3079 C3083 1.393 . S
C3080 H3069 0.950 . S
C3080 C3078 1.391 . S
C3080 C3081 1.400 . S
C3081 C3075 1.491 . S
C3081 C3080 1.400 . S
C3081 C3082 1.398 . S
C3082 H3070 0.950 . S
C3082 C3081 1.398 . S
C3082 C3083 1.391 . S
C3083 H3071 0.950 . S
C3083 C3079 1.393 . S
C3083 C3082 1.391 . S
H3084 C3092 0.950 . S
H3085 C3097 0.950 . S
H3086 C3094 0.950 . S
H3087 C3096 0.950 . S
H3088 C3098 0.950 . S
H3089 C3100 0.950 . S
H3090 C3102 0.950 . S
H3091 C3103 0.950 . S
C3092 H3084 0.950 . S
C3092 C3093 1.386 . S
C3092 C3094 1.391 . S
C3093 C3092 1.386 . S
C3093 C3097 1.393 . S
C3094 H3086 0.950 . S
C3094 C3092 1.391 . S
C3094 C3095 1.400 . S
C3095 C3094 1.400 . S
C3095 C3096 1.398 . S
C3095 C3101 1.491 . S
C3096 H3087 0.950 . S
C3096 C3095 1.398 . S
C3096 C3097 1.391 . S
C3097 H3085 0.950 . S
C3097 C3093 1.393 . S
C3097 C3096 1.391 . S
C3098 H3088 0.950 . S
C3098 C3099 1.386 . S
C3098 C3100 1.391 . S
C3099 C3098 1.386 . S
C3099 C3103 1.393 . S
C3100 H3089 0.950 . S
C3100 C3098 1.391 . S
C3100 C3101 1.400 . S
C3101 C3095 1.491 . S
C3101 C3100 1.400 . S
C3101 C3102 1.398 . S
C3102 H3090 0.950 . S
C3102 C3101 1.398 . S
C3102 C3103 1.391 . S
C3103 H3091 0.950 . S
C3103 C3099 1.393 . S
C3103 C3102 1.391 . S
H3104 C3112 0.950 . S
H3105 C3117 0.950 . S
H3106 C3114 0.950 . S
H3107 C3116 0.950 . S
H3108 C3118 0.950 . S
H3109 C3120 0.950 . S
H3110 C3122 0.950 . S
H3111 C3123 0.950 . S
C3112 H3104 0.950 . S
C3112 C3113 1.386 . S
C3112 C3114 1.391 . S
C3113 C3112 1.386 . S
C3113 C3117 1.393 . S
C3114 H3106 0.950 . S
C3114 C3112 1.391 . S
C3114 C3115 1.400 . S
C3115 C3114 1.400 . S
C3115 C3116 1.398 . S
C3115 C3121 1.491 . S
C3116 H3107 0.950 . S
C3116 C3115 1.398 . S
C3116 C3117 1.391 . S
C3117 H3105 0.950 . S
C3117 C3113 1.393 . S
C3117 C3116 1.391 . S
C3118 H3108 0.950 . S
C3118 C3119 1.386 . S
C3118 C3120 1.391 . S
C3119 C3118 1.386 . S
C3119 C3123 1.393 . S
C3120 H3109 0.950 . S
C3120 C3118 1.391 . S
C3120 C3121 1.400 . S
C3121 C3115 1.491 . S
C3121 C3120 1.400 . S
C3121 C3122 1.398 . S
C3122 H3110 0.950 . S
C3122 C3121 1.398 . S
C3122 C3123 1.391 . S
C3123 H3111 0.950 . S
C3123 C3119 1.393 . S
C3123 C3122 1.391 . S
H3124 C3132 0.950 . S
H3125 C3137 0.950 . S
H3126 C3134 0.950 . S
H3127 C3136 0.950 . S
H3128 C3138 0.950 . S
H3129 C3140 0.950 . S
H3130 C3142 0.950 . S
H3131 C3143 0.950 . S
C3132 H3124 0.950 . S
C3132 C3133 1.386 . S
C3132 C3134 1.391 . S
C3133 C3132 1.386 . S
C3133 C3137 1.393 . S
C3134 H3126 0.950 . S
C3134 C3132 1.391 . S
C3134 C3135 1.400 . S
C3135 C3134 1.400 . S
C3135 C3136 1.398 . S
C3135 C3141 1.491 . S
C3136 H3127 0.950 . S
C3136 C3135 1.398 . S
C3136 C3137 1.391 . S
C3137 H3125 0.950 . S
C3137 C3133 1.393 . S
C3137 C3136 1.391 . S
C3138 H3128 0.950 . S
C3138 C3139 1.386 . S
C3138 C3140 1.391 . S
C3139 C3138 1.386 . S
C3139 C3143 1.393 . S
C3140 H3129 0.950 . S
C3140 C3138 1.391 . S
C3140 C3141 1.400 . S
C3141 C3135 1.491 . S
C3141 C3140 1.400 . S
C3141 C3142 1.398 . S
C3142 H3130 0.950 . S
C3142 C3141 1.398 . S
C3142 C3143 1.391 . S
C3143 H3131 0.950 . S
C3143 C3139 1.393 . S
C3143 C3142 1.391 . S
H3144 C3152 0.950 . S
H3145 C3157 0.950 . S
H3146 C3154 0.950 . S
H3147 C3156 0.950 . S
H3148 C3158 0.950 . S
H3149 C3160 0.950 . S
H3150 C3162 0.950 . S
H3151 C3163 0.950 . S
C3152 H3144 0.950 . S
C3152 C3153 1.386 . S
C3152 C3154 1.391 . S
C3153 C3152 1.386 . S
C3153 C3157 1.393 . S
C3154 H3146 0.950 . S
C3154 C3152 1.391 . S
C3154 C3155 1.400 . S
C3155 C3154 1.400 . S
C3155 C3156 1.398 . S
C3155 C3161 1.491 . S
C3156 H3147 0.950 . S
C3156 C3155 1.398 . S
C3156 C3157 1.391 . S
C3157 H3145 0.950 . S
C3157 C3153 1.393 . S
C3157 C3156 1.391 . S
C3158 H3148 0.950 . S
C3158 C3159 1.386 . S
C3158 C3160 1.391 . S
C3159 C3158 1.386 . S
C3159 C3163 1.393 . S
C3160 H3149 0.950 . S
C3160 C3158 1.391 . S
C3160 C3161 1.400 . S
C3161 C3155 1.491 . S
C3161 C3160 1.400 . S
C3161 C3162 1.398 . S
C3162 H3150 0.950 . S
C3162 C3161 1.398 . S
C3162 C3163 1.391 . S
C3163 H3151 0.950 . S
C3163 C3159 1.393 . S
C3163 C3162 1.391 . S
H3164 C3172 0.950 . S
H3165 C3177 0.950 . S
H3166 C3174 0.950 . S
H3167 C3176 0.950 . S
H3168 C3178 0.950 . S
H3169 C3180 0.950 . S
H3170 C3182 0.950 . S
H3171 C3183 0.950 . S
C3172 H3164 0.950 . S
C3172 C3173 1.386 . S
C3172 C3174 1.391 . S
C3173 C3172 1.386 . S
C3173 C3177 1.393 . S
C3174 H3166 0.950 . S
C3174 C3172 1.391 . S
C3174 C3175 1.400 . S
C3175 C3174 1.400 . S
C3175 C3176 1.398 . S
C3175 C3181 1.491 . S
C3176 H3167 0.950 . S
C3176 C3175 1.398 . S
C3176 C3177 1.391 . S
C3177 H3165 0.950 . S
C3177 C3173 1.393 . S
C3177 C3176 1.391 . S
C3178 H3168 0.950 . S
C3178 C3179 1.386 . S
C3178 C3180 1.391 . S
C3179 C3178 1.386 . S
C3179 C3183 1.393 . S
C3180 H3169 0.950 . S
C3180 C3178 1.391 . S
C3180 C3181 1.400 . S
C3181 C3175 1.491 . S
C3181 C3180 1.400 . S
C3181 C3182 1.398 . S
C3182 H3170 0.950 . S
C3182 C3181 1.398 . S
C3182 C3183 1.391 . S
C3183 H3171 0.950 . S
C3183 C3179 1.393 . S
C3183 C3182 1.391 . S
H3184 C3192 0.950 . S
H3185 C3197 0.950 . S
H3186 C3194 0.950 . S
H3187 C3196 0.950 . S
H3188 C3198 0.950 . S
H3189 C3200 0.950 . S
H3190 C3202 0.950 . S
H3191 C3203 0.950 . S
C3192 H3184 0.950 . S
C3192 C3193 1.386 . S
C3192 C3194 1.391 . S
C3193 C3192 1.386 . S
C3193 C3197 1.393 . S
C3194 H3186 0.950 . S
C3194 C3192 1.391 . S
C3194 C3195 1.400 . S
C3195 C3194 1.400 . S
C3195 C3196 1.398 . S
C3195 C3201 1.491 . S
C3196 H3187 0.950 . S
C3196 C3195 1.398 . S
C3196 C3197 1.391 . S
C3197 H3185 0.950 . S
C3197 C3193 1.393 . S
C3197 C3196 1.391 . S
C3198 H3188 0.950 . S
C3198 C3199 1.386 . S
C3198 C3200 1.391 . S
C3199 C3198 1.386 . S
C3199 C3203 1.393 . S
C3200 H3189 0.950 . S
C3200 C3198 1.391 . S
C3200 C3201 1.400 . S
C3201 C3195 1.491 . S
C3201 C3200 1.400 . S
C3201 C3202 1.398 . S
C3202 H3190 0.950 . S
C3202 C3201 1.398 . S
C3202 C3203 1.391 . S
C3203 H3191 0.950 . S
C3203 C3199 1.393 . S
C3203 C3202 1.391 . S
H3204 C3212 0.950 . S
H3205 C3217 0.950 . S
H3206 C3214 0.950 . S
H3207 C3216 0.950 . S
H3208 C3218 0.950 . S
H3209 C3220 0.950 . S
H3210 C3222 0.950 . S
H3211 C3223 0.950 . S
C3212 H3204 0.950 . S
C3212 C3213 1.386 . S
C3212 C3214 1.391 . S
C3213 C3212 1.386 . S
C3213 C3217 1.393 . S
C3214 H3206 0.950 . S
C3214 C3212 1.391 . S
C3214 C3215 1.400 . S
C3215 C3214 1.400 . S
C3215 C3216 1.398 . S
C3215 C3221 1.491 . S
C3216 H3207 0.950 . S
C3216 C3215 1.398 . S
C3216 C3217 1.391 . S
C3217 H3205 0.950 . S
C3217 C3213 1.393 . S
C3217 C3216 1.391 . S
C3218 H3208 0.950 . S
C3218 C3219 1.386 . S
C3218 C3220 1.391 . S
C3219 C3218 1.386 . S
C3219 C3223 1.393 . S
C3220 H3209 0.950 . S
C3220 C3218 1.391 . S
C3220 C3221 1.400 . S
C3221 C3215 1.491 . S
C3221 C3220 1.400 . S
C3221 C3222 1.398 . S
C3222 H3210 0.950 . S
C3222 C3221 1.398 . S
C3222 C3223 1.391 . S
C3223 H3211 0.950 . S
C3223 C3219 1.393 . S
C3223 C3222 1.391 . S
H3224 C3232 0.950 . S
H3225 C3237 0.950 . S
H3226 C3234 0.950 . S
H3227 C3236 0.950 . S
H3228 C3238 0.950 . S
H3229 C3240 0.950 . S
H3230 C3242 0.950 . S
H3231 C3243 0.950 . S
C3232 H3224 0.950 . S
C3232 C3233 1.386 . S
C3232 C3234 1.391 . S
C3233 C3232 1.386 . S
C3233 C3237 1.393 . S
C3234 H3226 0.950 . S
C3234 C3232 1.391 . S
C3234 C3235 1.400 . S
C3235 C3234 1.400 . S
C3235 C3236 1.398 . S
C3235 C3241 1.491 . S
C3236 H3227 0.950 . S
C3236 C3235 1.398 . S
C3236 C3237 1.391 . S
C3237 H3225 0.950 . S
C3237 C3233 1.393 . S
C3237 C3236 1.391 . S
C3238 H3228 0.950 . S
C3238 C3239 1.386 . S
C3238 C3240 1.391 . S
C3239 C3238 1.386 . S
C3239 C3243 1.393 . S
C3240 H3229 0.950 . S
C3240 C3238 1.391 . S
C3240 C3241 1.400 . S
C3241 C3235 1.491 . S
C3241 C3240 1.400 . S
C3241 C3242 1.398 . S
C3242 H3230 0.950 . S
C3242 C3241 1.398 . S
C3242 C3243 1.391 . S
C3243 H3231 0.950 . S
C3243 C3239 1.393 . S
C3243 C3242 1.391 . S
H3244 C3252 0.950 . S
H3245 C3257 0.950 . S
H3246 C3254 0.950 . S
H3247 C3256 0.950 . S
H3248 C3258 0.950 . S
H3249 C3260 0.950 . S
H3250 C3262 0.950 . S
H3251 C3263 0.950 . S
C3252 H3244 0.950 . S
C3252 C3253 1.386 . S
C3252 C3254 1.391 . S
C3253 C3252 1.386 . S
C3253 C3257 1.393 . S
C3254 H3246 0.950 . S
C3254 C3252 1.391 . S
C3254 C3255 1.400 . S
C3255 C3254 1.400 . S
C3255 C3256 1.398 . S
C3255 C3261 1.491 . S
C3256 H3247 0.950 . S
C3256 C3255 1.398 . S
C3256 C3257 1.391 . S
C3257 H3245 0.950 . S
C3257 C3253 1.393 . S
C3257 C3256 1.391 . S
C3258 H3248 0.950 . S
C3258 C3259 1.386 . S
C3258 C3260 1.391 . S
C3259 C3258 1.386 . S
C3259 C3263 1.393 . S
C3260 H3249 0.950 . S
C3260 C3258 1.391 . S
C3260 C3261 1.400 . S
C3261 C3255 1.491 . S
C3261 C3260 1.400 . S
C3261 C3262 1.398 . S
C3262 H3250 0.950 . S
C3262 C3261 1.398 . S
C3262 C3263 1.391 . S
C3263 H3251 0.950 . S
C3263 C3259 1.393 . S
C3263 C3262 1.391 . S
H3264 C3272 0.950 . S
H3265 C3277 0.950 . S
H3266 C3274 0.950 . S
H3267 C3276 0.950 . S
H3268 C3278 0.950 . S
H3269 C3280 0.950 . S
H3270 C3282 0.950 . S
H3271 C3283 0.950 . S
C3272 H3264 0.950 . S
C3272 C3273 1.386 . S
C3272 C3274 1.391 . S
C3273 C3272 1.386 . S
C3273 C3277 1.393 . S
C3274 H3266 0.950 . S
C3274 C3272 1.391 . S
C3274 C3275 1.400 . S
C3275 C3274 1.400 . S
C3275 C3276 1.398 . S
C3275 C3281 1.491 . S
C3276 H3267 0.950 . S
C3276 C3275 1.398 . S
C3276 C3277 1.391 . S
C3277 H3265 0.950 . S
C3277 C3273 1.393 . S
C3277 C3276 1.391 . S
C3278 H3268 0.950 . S
C3278 C3279 1.386 . S
C3278 C3280 1.391 . S
C3279 C3278 1.386 . S
C3279 C3283 1.393 . S
C3280 H3269 0.950 . S
C3280 C3278 1.391 . S
C3280 C3281 1.400 . S
C3281 C3275 1.491 . S
C3281 C3280 1.400 . S
C3281 C3282 1.398 . S
C3282 H3270 0.950 . S
C3282 C3281 1.398 . S
C3282 C3283 1.391 . S
C3283 H3271 0.950 . S
C3283 C3279 1.393 . S
C3283 C3282 1.391 . S
H3284 C3292 0.950 . S
H3285 C3297 0.950 . S
H3286 C3294 0.950 . S
H3287 C3296 0.950 . S
H3288 C3298 0.950 . S
H3289 C3300 0.950 . S
H3290 C3302 0.950 . S
H3291 C3303 0.950 . S
C3292 H3284 0.950 . S
C3292 C3293 1.386 . S
C3292 C3294 1.391 . S
C3293 C3292 1.386 . S
C3293 C3297 1.393 . S
C3294 H3286 0.950 . S
C3294 C3292 1.391 . S
C3294 C3295 1.400 . S
C3295 C3294 1.400 . S
C3295 C3296 1.398 . S
C3295 C3301 1.491 . S
C3296 H3287 0.950 . S
C3296 C3295 1.398 . S
C3296 C3297 1.391 . S
C3297 H3285 0.950 . S
C3297 C3293 1.393 . S
C3297 C3296 1.391 . S
C3298 H3288 0.950 . S
C3298 C3299 1.386 . S
C3298 C3300 1.391 . S
C3299 C3298 1.386 . S
C3299 C3303 1.393 . S
C3300 H3289 0.950 . S
C3300 C3298 1.391 . S
C3300 C3301 1.400 . S
C3301 C3295 1.491 . S
C3301 C3300 1.400 . S
C3301 C3302 1.398 . S
C3302 H3290 0.950 . S
C3302 C3301 1.398 . S
C3302 C3303 1.391 . S
C3303 H3291 0.950 . S
C3303 C3299 1.393 . S
C3303 C3302 1.391 . S
H3304 C3312 0.950 . S
H3305 C3317 0.950 . S
H3306 C3314 0.950 . S
H3307 C3316 0.950 . S
H3308 C3318 0.950 . S
H3309 C3320 0.950 . S
H3310 C3322 0.950 . S
H3311 C3323 0.950 . S
C3312 H3304 0.950 . S
C3312 C3313 1.386 . S
C3312 C3314 1.391 . S
C3313 C3312 1.386 . S
C3313 C3317 1.393 . S
C3314 H3306 0.950 . S
C3314 C3312 1.391 . S
C3314 C3315 1.400 . S
C3315 C3314 1.400 . S
C3315 C3316 1.398 . S
C3315 C3321 1.491 . S
C3316 H3307 0.950 . S
C3316 C3315 1.398 . S
C3316 C3317 1.391 . S
C3317 H3305 0.950 . S
C3317 C3313 1.393 . S
C3317 C3316 1.391 . S
C3318 H3308 0.950 . S
C3318 C3319 1.386 . S
C3318 C3320 1.391 . S
C3319 C3318 1.386 . S
C3319 C3323 1.393 . S
C3320 H3309 0.950 . S
C3320 C3318 1.391 . S
C3320 C3321 1.400 . S
C3321 C3315 1.491 . S
C3321 C3320 1.400 . S
C3321 C3322 1.398 . S
C3322 H3310 0.950 . S
C3322 C3321 1.398 . S
C3322 C3323 1.391 . S
C3323 H3311 0.950 . S
C3323 C3319 1.393 . S
C3323 C3322 1.391 . S
H3324 C3332 0.950 . S
H3325 C3337 0.950 . S
H3326 C3334 0.950 . S
H3327 C3336 0.950 . S
H3328 C3338 0.950 . S
H3329 C3340 0.950 . S
H3330 C3342 0.950 . S
H3331 C3343 0.950 . S
C3332 H3324 0.950 . S
C3332 C3333 1.386 . S
C3332 C3334 1.391 . S
C3333 C3332 1.386 . S
C3333 C3337 1.393 . S
C3334 H3326 0.950 . S
C3334 C3332 1.391 . S
C3334 C3335 1.400 . S
C3335 C3334 1.400 . S
C3335 C3336 1.398 . S
C3335 C3341 1.491 . S
C3336 H3327 0.950 . S
C3336 C3335 1.398 . S
C3336 C3337 1.391 . S
C3337 H3325 0.950 . S
C3337 C3333 1.393 . S
C3337 C3336 1.391 . S
C3338 H3328 0.950 . S
C3338 C3339 1.386 . S
C3338 C3340 1.391 . S
C3339 C3338 1.386 . S
C3339 C3343 1.393 . S
C3340 H3329 0.950 . S
C3340 C3338 1.391 . S
C3340 C3341 1.400 . S
C3341 C3335 1.491 . S
C3341 C3340 1.400 . S
C3341 C3342 1.398 . S
C3342 H3330 0.950 . S
C3342 C3341 1.398 . S
C3342 C3343 1.391 . S
C3343 H3331 0.950 . S
C3343 C3339 1.393 . S
C3343 C3342 1.391 . S
H3344 C3352 0.950 . S
H3345 C3357 0.950 . S
H3346 C3354 0.950 . S
H3347 C3356 0.950 . S
H3348 C3358 0.950 . S
H3349 C3360 0.950 . S
H3350 C3362 0.950 . S
H3351 C3363 0.950 . S
C3352 H3344 0.950 . S
C3352 C3353 1.386 . S
C3352 C3354 1.391 . S
C3353 C3352 1.386 . S
C3353 C3357 1.393 . S
C3354 H3346 0.950 . S
C3354 C3352 1.391 . S
C3354 C3355 1.400 . S
C3355 C3354 1.400 . S
C3355 C3356 1.398 . S
C3355 C3361 1.491 . S
C3356 H3347 0.950 . S
C3356 C3355 1.398 . S
C3356 C3357 1.391 . S
C3357 H3345 0.950 . S
C3357 C3353 1.393 . S
C3357 C3356 1.391 . S
C3358 H3348 0.950 . S
C3358 C3359 1.386 . S
C3358 C3360 1.391 . S
C3359 C3358 1.386 . S
C3359 C3363 1.393 . S
C3360 H3349 0.950 . S
C3360 C3358 1.391 . S
C3360 C3361 1.400 . S
C3361 C3355 1.491 . S
C3361 C3360 1.400 . S
C3361 C3362 1.398 . S
C3362 H3350 0.950 . S
C3362 C3361 1.398 . S
C3362 C3363 1.391 . S
C3363 H3351 0.950 . S
C3363 C3359 1.393 . S
C3363 C3362 1.391 . S
H3364 C3372 0.903 1_545 S
H3365 C3377 0.950 . S
H3366 C3374 0.931 1_545 S
H3367 C3376 0.950 . S
H3368 C3378 0.950 . S
H3369 C3380 0.950 . S
H3370 C3382 0.888 1_545 S
H3371 C3383 0.935 1_545 S
C3372 H3364 0.903 1_565 S
C3372 C3373 1.413 . S
C3372 C3374 1.397 . S
C3373 C3372 1.413 . S
C3373 C3377 1.393 . S
C3374 H3366 0.931 1_565 S
C3374 C3372 1.397 . S
C3374 C3375 1.434 . S
C3375 C3374 1.434 . S
C3375 C3376 1.398 . S
C3375 C3381 1.491 . S
C3376 H3367 0.950 . S
C3376 C3375 1.398 . S
C3376 C3377 1.391 . S
C3377 H3365 0.950 . S
C3377 C3373 1.393 . S
C3377 C3376 1.391 . S
C3378 H3368 0.950 . S
C3378 C3379 1.386 . S
C3378 C3380 1.391 . S
C3379 C3378 1.386 . S
C3379 C3383 1.421 . S
C3380 H3369 0.950 . S
C3380 C3378 1.391 . S
C3380 C3381 1.400 . S
C3381 C3375 1.491 . S
C3381 C3380 1.400 . S
C3381 C3382 1.434 . S
C3382 H3370 0.888 1_565 S
C3382 C3381 1.434 . S
C3382 C3383 1.407 . S
C3383 H3371 0.935 1_565 S
C3383 C3379 1.421 . S
C3383 C3382 1.407 . S
H3384 C3392 0.950 . S
H3385 C3397 0.950 . S
H3386 C3394 0.950 . S
H3387 C3396 0.950 . S
H3388 C3398 0.919 1_545 S
H3389 C3400 0.950 . S
H3390 C3402 0.950 . S
H3391 C3403 0.950 . S
C3392 H3384 0.950 . S
C3392 C3393 1.386 . S
C3392 C3394 1.391 . S
C3393 C3392 1.386 . S
C3393 C3397 1.393 . S
C3394 H3386 0.950 . S
C3394 C3392 1.391 . S
C3394 C3395 1.400 . S
C3395 C3394 1.400 . S
C3395 C3396 1.398 . S
C3395 C3401 1.491 . S
C3396 H3387 0.950 . S
C3396 C3395 1.398 . S
C3396 C3397 1.391 . S
C3397 H3385 0.950 . S
C3397 C3393 1.393 . S
C3397 C3396 1.391 . S
C3398 H3388 0.919 1_565 S
C3398 C3399 1.386 . S
C3398 C3400 1.404 . S
C3399 C3398 1.386 . S
C3399 C3403 1.408 . S
C3400 H3389 0.950 . S
C3400 C3398 1.404 . S
C3400 C3401 1.400 . S
C3401 C3395 1.491 . S
C3401 C3400 1.400 . S
C3401 C3402 1.398 . S
C3402 H3390 0.950 . S
C3402 C3401 1.398 . S
C3402 C3403 1.391 . S
C3403 H3391 0.950 . S
C3403 C3399 1.408 . S
C3403 C3402 1.391 . S
H3404 C3412 0.950 . S
H3405 C3417 0.950 . S
H3406 C3414 0.950 . S
H3407 C3416 0.950 . S
H3408 C3418 0.950 . S
H3409 C3420 0.950 . S
H3410 C3422 0.950 . S
H3411 C3423 0.950 . S
C3412 H3404 0.950 . S
C3412 C3413 1.386 1_655 S
C3412 C3414 1.391 . S
C3413 C3412 1.386 1_455 S
C3413 C3417 1.393 . S
C3414 H3406 0.950 . S
C3414 C3412 1.391 . S
C3414 C3415 1.400 1_655 S
C3415 C3414 1.400 1_455 S
C3415 C3416 1.398 . S
C3415 C3421 1.491 . S
C3416 H3407 0.950 . S
C3416 C3415 1.398 . S
C3416 C3417 1.391 . S
C3417 H3405 0.950 . S
C3417 C3413 1.393 . S
C3417 C3416 1.391 . S
C3418 H3408 0.950 . S
C3418 C3419 1.388 1_455 S
C3418 C3420 1.391 . S
C3419 C3418 1.388 1_655 S
C3419 C3423 1.389 . S
C3420 H3409 0.950 . S
C3420 C3418 1.391 . S
C3420 C3421 1.400 . S
C3421 C3415 1.491 . S
C3421 C3420 1.400 . S
C3421 C3422 1.398 1_455 S
C3422 H3410 0.950 . S
C3422 C3421 1.398 1_655 S
C3422 C3423 1.391 . S
C3423 H3411 0.950 . S
C3423 C3419 1.389 . S
C3423 C3422 1.391 . S
H3424 C3432 0.950 . S
H3425 C3437 0.950 . S
H3426 C3434 0.950 . S
H3427 C3436 0.950 . S
H3428 C3438 0.950 . S
H3429 C3440 0.950 . S
H3430 C3442 0.950 . S
H3431 C3443 0.950 . S
C3432 H3424 0.950 . S
C3432 C3433 1.386 . S
C3432 C3434 1.391 . S
C3433 C3432 1.386 . S
C3433 C3437 1.393 . S
C3434 H3426 0.950 . S
C3434 C3432 1.391 . S
C3434 C3435 1.400 . S
C3435 C3434 1.400 . S
C3435 C3436 1.398 . S
C3435 C3441 1.491 . S
C3436 H3427 0.950 . S
C3436 C3435 1.398 . S
C3436 C3437 1.391 . S
C3437 H3425 0.950 . S
C3437 C3433 1.393 . S
C3437 C3436 1.391 . S
C3438 H3428 0.950 . S
C3438 C3439 1.386 . S
C3438 C3440 1.391 . S
C3439 C3438 1.386 . S
C3439 C3443 1.393 . S
C3440 H3429 0.950 . S
C3440 C3438 1.391 . S
C3440 C3441 1.400 . S
C3441 C3435 1.491 . S
C3441 C3440 1.400 . S
C3441 C3442 1.398 . S
C3442 H3430 0.950 . S
C3442 C3441 1.398 . S
C3442 C3443 1.391 . S
C3443 H3431 0.950 . S
C3443 C3439 1.393 . S
C3443 C3442 1.391 . S
H3444 C3452 0.950 . S
H3445 C3457 0.950 . S
H3446 C3454 0.950 . S
H3447 C3456 0.950 . S
H3448 C3458 0.950 . S
H3449 C3460 0.950 . S
H3450 C3462 0.950 . S
H3451 C3463 0.950 . S
C3452 H3444 0.950 . S
C3452 C3453 1.386 . S
C3452 C3454 1.391 . S
C3453 C3452 1.386 . S
C3453 C3457 1.393 . S
C3454 H3446 0.950 . S
C3454 C3452 1.391 . S
C3454 C3455 1.400 . S
C3455 C3454 1.400 . S
C3455 C3456 1.398 . S
C3455 C3461 1.491 . S
C3456 H3447 0.950 . S
C3456 C3455 1.398 . S
C3456 C3457 1.391 . S
C3457 H3445 0.950 . S
C3457 C3453 1.393 . S
C3457 C3456 1.391 . S
C3458 H3448 0.950 . S
C3458 C3459 1.386 . S
C3458 C3460 1.391 . S
C3459 C3458 1.386 . S
C3459 C3463 1.393 . S
C3460 H3449 0.950 . S
C3460 C3458 1.391 . S
C3460 C3461 1.400 . S
C3461 C3455 1.491 . S
C3461 C3460 1.400 . S
C3461 C3462 1.398 . S
C3462 H3450 0.950 . S
C3462 C3461 1.398 . S
C3462 C3463 1.391 . S
C3463 H3451 0.950 . S
C3463 C3459 1.393 . S
C3463 C3462 1.391 . S
H3464 C3472 0.950 . S
H3465 C3477 0.950 . S
H3466 C3474 0.950 . S
H3467 C3476 0.950 . S
H3468 C3478 0.950 . S
H3469 C3480 0.950 . S
H3470 C3482 0.950 . S
H3471 C3483 0.950 . S
C3472 H3464 0.950 . S
C3472 C3473 1.386 . S
C3472 C3474 1.391 . S
C3473 C3472 1.386 . S
C3473 C3477 1.393 . S
C3474 H3466 0.950 . S
C3474 C3472 1.391 . S
C3474 C3475 1.400 . S
C3475 C3474 1.400 . S
C3475 C3476 1.398 . S
C3475 C3481 1.491 . S
C3476 H3467 0.950 . S
C3476 C3475 1.398 . S
C3476 C3477 1.391 . S
C3477 H3465 0.950 . S
C3477 C3473 1.393 . S
C3477 C3476 1.391 . S
C3478 H3468 0.950 . S
C3478 C3479 1.386 . S
C3478 C3480 1.391 . S
C3479 C3478 1.386 . S
C3479 C3483 1.393 . S
C3480 H3469 0.950 . S
C3480 C3478 1.391 . S
C3480 C3481 1.400 . S
C3481 C3475 1.491 . S
C3481 C3480 1.400 . S
C3481 C3482 1.398 . S
C3482 H3470 0.950 . S
C3482 C3481 1.398 . S
C3482 C3483 1.391 . S
C3483 H3471 0.950 . S
C3483 C3479 1.393 . S
C3483 C3482 1.391 . S
H3484 C3492 0.950 . S
H3485 C3497 0.950 . S
H3486 C3494 0.950 . S
H3487 C3496 0.950 . S
H3488 C3498 0.950 . S
H3489 C3500 0.950 . S
H3490 C3502 0.950 . S
H3491 C3503 0.950 . S
C3492 H3484 0.950 . S
C3492 C3493 1.386 . S
C3492 C3494 1.391 . S
C3493 C3492 1.386 . S
C3493 C3497 1.393 . S
C3494 H3486 0.950 . S
C3494 C3492 1.391 . S
C3494 C3495 1.400 . S
C3495 C3494 1.400 . S
C3495 C3496 1.398 . S
C3495 C3501 1.491 . S
C3496 H3487 0.950 . S
C3496 C3495 1.398 . S
C3496 C3497 1.391 . S
C3497 H3485 0.950 . S
C3497 C3493 1.393 . S
C3497 C3496 1.391 . S
C3498 H3488 0.950 . S
C3498 C3499 1.386 . S
C3498 C3500 1.391 . S
C3499 C3498 1.386 . S
C3499 C3503 1.393 . S
C3500 H3489 0.950 . S
C3500 C3498 1.391 . S
C3500 C3501 1.400 . S
C3501 C3495 1.491 . S
C3501 C3500 1.400 . S
C3501 C3502 1.398 . S
C3502 H3490 0.950 . S
C3502 C3501 1.398 . S
C3502 C3503 1.391 . S
C3503 H3491 0.950 . S
C3503 C3499 1.393 . S
C3503 C3502 1.391 . S
H3504 C3512 0.950 . S
H3505 C3517 0.950 . S
H3506 C3514 0.950 . S
H3507 C3516 0.950 . S
H3508 C3518 0.950 . S
H3509 C3520 0.950 . S
H3510 C3522 0.950 . S
H3511 C3523 0.950 . S
C3512 H3504 0.950 . S
C3512 C3513 1.386 . S
C3512 C3514 1.391 . S
C3513 C3512 1.386 . S
C3513 C3517 1.393 . S
C3514 H3506 0.950 . S
C3514 C3512 1.391 . S
C3514 C3515 1.400 . S
C3515 C3514 1.400 . S
C3515 C3516 1.398 . S
C3515 C3521 1.491 . S
C3516 H3507 0.950 . S
C3516 C3515 1.398 . S
C3516 C3517 1.391 . S
C3517 H3505 0.950 . S
C3517 C3513 1.393 . S
C3517 C3516 1.391 . S
C3518 H3508 0.950 . S
C3518 C3519 1.386 . S
C3518 C3520 1.391 . S
C3519 C3518 1.386 . S
C3519 C3523 1.393 . S
C3520 H3509 0.950 . S
C3520 C3518 1.391 . S
C3520 C3521 1.400 . S
C3521 C3515 1.491 . S
C3521 C3520 1.400 . S
C3521 C3522 1.398 . S
C3522 H3510 0.950 . S
C3522 C3521 1.398 . S
C3522 C3523 1.391 . S
C3523 H3511 0.950 . S
C3523 C3519 1.393 . S
C3523 C3522 1.391 . S
H3524 C3532 0.950 . S
H3525 C3537 0.950 . S
H3526 C3534 0.950 . S
H3527 C3536 0.950 . S
H3528 C3538 0.950 . S
H3529 C3540 0.950 . S
H3530 C3542 0.950 . S
H3531 C3543 0.950 . S
C3532 H3524 0.950 . S
C3532 C3533 1.386 . S
C3532 C3534 1.391 . S
C3533 C3532 1.386 . S
C3533 C3537 1.393 1_655 S
C3534 H3526 0.950 . S
C3534 C3532 1.391 . S
C3534 C3535 1.400 . S
C3535 C3534 1.400 . S
C3535 C3536 1.398 1_655 S
C3535 C3541 1.491 . S
C3536 H3527 0.950 . S
C3536 C3535 1.398 1_455 S
C3536 C3537 1.391 . S
C3537 H3525 0.950 . S
C3537 C3533 1.393 1_455 S
C3537 C3536 1.391 . S
C3538 H3528 0.950 . S
C3538 C3539 1.386 1_455 S
C3538 C3540 1.391 . S
C3539 C3538 1.386 1_655 S
C3539 C3543 1.393 . S
C3540 H3529 0.950 . S
C3540 C3538 1.391 . S
C3540 C3541 1.400 1_455 S
C3541 C3535 1.491 . S
C3541 C3540 1.400 1_655 S
C3541 C3542 1.398 . S
C3542 H3530 0.950 . S
C3542 C3541 1.398 . S
C3542 C3543 1.391 . S
C3543 H3531 0.950 . S
C3543 C3539 1.393 . S
C3543 C3542 1.391 . S
H3544 C3552 0.950 . S
H3545 C3557 0.950 . S
H3546 C3554 0.950 . S
H3547 C3556 0.950 . S
H3548 C3558 0.950 . S
H3549 C3560 0.950 . S
H3550 C3562 0.950 . S
H3551 C3563 0.950 . S
C3552 H3544 0.950 . S
C3552 C3553 1.386 . S
C3552 C3554 1.391 . S
C3553 C3552 1.386 . S
C3553 C3557 1.393 . S
C3554 H3546 0.950 . S
C3554 C3552 1.391 . S
C3554 C3555 1.400 . S
C3555 C3554 1.400 . S
C3555 C3556 1.398 . S
C3555 C3561 1.491 . S
C3556 H3547 0.950 . S
C3556 C3555 1.398 . S
C3556 C3557 1.391 . S
C3557 H3545 0.950 . S
C3557 C3553 1.393 . S
C3557 C3556 1.391 . S
C3558 H3548 0.950 . S
C3558 C3559 1.386 . S
C3558 C3560 1.391 . S
C3559 C3558 1.386 . S
C3559 C3563 1.393 . S
C3560 H3549 0.950 . S
C3560 C3558 1.391 . S
C3560 C3561 1.400 . S
C3561 C3555 1.491 . S
C3561 C3560 1.400 . S
C3561 C3562 1.398 . S
C3562 H3550 0.950 . S
C3562 C3561 1.398 . S
C3562 C3563 1.391 . S
C3563 H3551 0.950 . S
C3563 C3559 1.393 . S
C3563 C3562 1.391 . S
H3564 C3572 0.950 . S
H3565 C3577 0.950 . S
H3566 C3574 0.950 . S
H3567 C3576 0.950 . S
H3568 C3578 0.950 . S
H3569 C3580 0.950 . S
H3570 C3582 0.950 . S
H3571 C3583 0.950 . S
C3572 H3564 0.950 . S
C3572 C3573 1.386 . S
C3572 C3574 1.391 . S
C3573 C3572 1.386 . S
C3573 C3577 1.393 . S
C3574 H3566 0.950 . S
C3574 C3572 1.391 . S
C3574 C3575 1.400 . S
C3575 C3574 1.400 . S
C3575 C3576 1.398 . S
C3575 C3581 1.491 . S
C3576 H3567 0.950 . S
C3576 C3575 1.398 . S
C3576 C3577 1.391 . S
C3577 H3565 0.950 . S
C3577 C3573 1.393 . S
C3577 C3576 1.391 . S
C3578 H3568 0.950 . S
C3578 C3579 1.386 . S
C3578 C3580 1.391 . S
C3579 C3578 1.386 . S
C3579 C3583 1.393 . S
C3580 H3569 0.950 . S
C3580 C3578 1.391 . S
C3580 C3581 1.400 . S
C3581 C3575 1.491 . S
C3581 C3580 1.400 . S
C3581 C3582 1.398 . S
C3582 H3570 0.950 . S
C3582 C3581 1.398 . S
C3582 C3583 1.391 . S
C3583 H3571 0.950 . S
C3583 C3579 1.393 . S
C3583 C3582 1.391 . S
H3584 C3592 0.950 . S
H3585 C3597 0.950 . S
H3586 C3594 0.950 . S
H3587 C3596 0.950 . S
H3588 C3598 0.950 . S
H3589 C3600 0.950 . S
H3590 C3602 0.950 . S
H3591 C3603 0.950 . S
C3592 H3584 0.950 . S
C3592 C3593 1.386 . S
C3592 C3594 1.391 . S
C3593 C3592 1.386 . S
C3593 C3597 1.393 . S
C3594 H3586 0.950 . S
C3594 C3592 1.391 . S
C3594 C3595 1.400 . S
C3595 C3594 1.400 . S
C3595 C3596 1.398 . S
C3595 C3601 1.491 . S
C3596 H3587 0.950 . S
C3596 C3595 1.398 . S
C3596 C3597 1.391 . S
C3597 H3585 0.950 . S
C3597 C3593 1.393 . S
C3597 C3596 1.391 . S
C3598 H3588 0.950 . S
C3598 C3599 1.386 . S
C3598 C3600 1.391 . S
C3599 C3598 1.386 . S
C3599 C3603 1.393 . S
C3600 H3589 0.950 . S
C3600 C3598 1.391 . S
C3600 C3601 1.400 . S
C3601 C3595 1.491 . S
C3601 C3600 1.400 . S
C3601 C3602 1.398 . S
C3602 H3590 0.950 . S
C3602 C3601 1.398 . S
C3602 C3603 1.391 . S
C3603 H3591 0.950 . S
C3603 C3599 1.393 . S
C3603 C3602 1.391 . S
H3604 C3612 0.950 . S
H3605 C3617 0.950 . S
H3606 C3614 0.950 . S
H3607 C3616 0.950 . S
H3608 C3618 0.950 . S
H3609 C3620 0.950 . S
H3610 C3622 0.950 . S
H3611 C3623 0.950 . S
C3612 H3604 0.950 . S
C3612 C3613 1.386 . S
C3612 C3614 1.391 . S
C3613 C3612 1.386 . S
C3613 C3617 1.393 . S
C3614 H3606 0.950 . S
C3614 C3612 1.391 . S
C3614 C3615 1.400 . S
C3615 C3614 1.400 . S
C3615 C3616 1.398 . S
C3615 C3621 1.491 . S
C3616 H3607 0.950 . S
C3616 C3615 1.398 . S
C3616 C3617 1.391 . S
C3617 H3605 0.950 . S
C3617 C3613 1.393 . S
C3617 C3616 1.391 . S
C3618 H3608 0.950 . S
C3618 C3619 1.386 . S
C3618 C3620 1.391 . S
C3619 C3618 1.386 . S
C3619 C3623 1.393 . S
C3620 H3609 0.950 . S
C3620 C3618 1.391 . S
C3620 C3621 1.400 . S
C3621 C3615 1.491 . S
C3621 C3620 1.400 . S
C3621 C3622 1.398 . S
C3622 H3610 0.950 . S
C3622 C3621 1.398 . S
C3622 C3623 1.391 . S
C3623 H3611 0.950 . S
C3623 C3619 1.393 . S
C3623 C3622 1.391 . S
H3624 C3632 0.950 . S
H3625 C3637 0.950 . S
H3626 C3634 0.950 . S
H3627 C3636 0.950 . S
H3628 C3638 0.950 . S
H3629 C3640 0.950 . S
H3630 C3642 0.950 . S
H3631 C3643 0.950 . S
C3632 H3624 0.950 . S
C3632 C3633 1.386 . S
C3632 C3634 1.391 . S
C3633 C3632 1.386 . S
C3633 C3637 1.393 . S
C3634 H3626 0.950 . S
C3634 C3632 1.391 . S
C3634 C3635 1.400 . S
C3635 C3634 1.400 . S
C3635 C3636 1.398 . S
C3635 C3641 1.491 . S
C3636 H3627 0.950 . S
C3636 C3635 1.398 . S
C3636 C3637 1.391 . S
C3637 H3625 0.950 . S
C3637 C3633 1.393 . S
C3637 C3636 1.391 . S
C3638 H3628 0.950 . S
C3638 C3639 1.386 . S
C3638 C3640 1.391 . S
C3639 C3638 1.386 . S
C3639 C3643 1.393 . S
C3640 H3629 0.950 . S
C3640 C3638 1.391 . S
C3640 C3641 1.400 . S
C3641 C3635 1.491 . S
C3641 C3640 1.400 . S
C3641 C3642 1.398 . S
C3642 H3630 0.950 . S
C3642 C3641 1.398 . S
C3642 C3643 1.391 . S
C3643 H3631 0.950 . S
C3643 C3639 1.393 . S
C3643 C3642 1.391 . S
H3644 C3652 0.950 . S
H3645 C3657 0.950 . S
H3646 C3654 0.950 . S
H3647 C3656 0.950 . S
H3648 C3658 0.950 . S
H3649 C3660 0.950 . S
H3650 C3662 0.950 . S
H3651 C3663 0.950 . S
C3652 H3644 0.950 . S
C3652 C3653 1.386 . S
C3652 C3654 1.391 . S
C3653 C3652 1.386 . S
C3653 C3657 1.393 . S
C3654 H3646 0.950 . S
C3654 C3652 1.391 . S
C3654 C3655 1.400 . S
C3655 C3654 1.400 . S
C3655 C3656 1.398 . S
C3655 C3661 1.491 . S
C3656 H3647 0.950 . S
C3656 C3655 1.398 . S
C3656 C3657 1.391 . S
C3657 H3645 0.950 . S
C3657 C3653 1.393 . S
C3657 C3656 1.391 . S
C3658 H3648 0.950 . S
C3658 C3659 1.386 . S
C3658 C3660 1.391 . S
C3659 C3658 1.386 . S
C3659 C3663 1.393 . S
C3660 H3649 0.950 . S
C3660 C3658 1.391 . S
C3660 C3661 1.400 . S
C3661 C3655 1.491 . S
C3661 C3660 1.400 . S
C3661 C3662 1.398 . S
C3662 H3650 0.950 . S
C3662 C3661 1.398 . S
C3662 C3663 1.391 . S
C3663 H3651 0.950 . S
C3663 C3659 1.393 . S
C3663 C3662 1.391 . S
H3664 C3672 0.950 . S
H3665 C3677 0.950 . S
H3666 C3674 0.950 . S
H3667 C3676 0.950 . S
H3668 C3678 0.950 . S
H3669 C3680 0.950 . S
H3670 C3682 0.950 . S
H3671 C3683 0.950 . S
C3672 H3664 0.950 . S
C3672 C3673 1.386 . S
C3672 C3674 1.391 . S
C3673 C3672 1.386 . S
C3673 C3677 1.393 . S
C3674 H3666 0.950 . S
C3674 C3672 1.391 . S
C3674 C3675 1.400 . S
C3675 C3674 1.400 . S
C3675 C3676 1.398 . S
C3675 C3681 1.491 . S
C3676 H3667 0.950 . S
C3676 C3675 1.398 . S
C3676 C3677 1.391 . S
C3677 H3665 0.950 . S
C3677 C3673 1.393 . S
C3677 C3676 1.391 . S
C3678 H3668 0.950 . S
C3678 C3679 1.386 . S
C3678 C3680 1.391 . S
C3679 C3678 1.386 . S
C3679 C3683 1.393 . S
C3680 H3669 0.950 . S
C3680 C3678 1.391 . S
C3680 C3681 1.400 . S
C3681 C3675 1.491 . S
C3681 C3680 1.400 . S
C3681 C3682 1.398 . S
C3682 H3670 0.950 . S
C3682 C3681 1.398 . S
C3682 C3683 1.391 . S
C3683 H3671 0.950 . S
C3683 C3679 1.393 . S
C3683 C3682 1.391 . S
H3684 C3692 0.950 . S
H3685 C3697 0.950 . S
H3686 C3694 0.950 . S
H3687 C3696 0.950 . S
H3688 C3698 0.950 . S
H3689 C3700 0.950 . S
H3690 C3702 0.950 . S
H3691 C3703 0.950 . S
C3692 H3684 0.950 . S
C3692 C3693 1.386 . S
C3692 C3694 1.391 . S
C3693 C3692 1.386 . S
C3693 C3697 1.393 1_655 S
C3694 H3686 0.950 . S
C3694 C3692 1.391 . S
C3694 C3695 1.400 . S
C3695 C3694 1.400 . S
C3695 C3696 1.398 1_655 S
C3695 C3701 1.491 . S
C3696 H3687 0.950 . S
C3696 C3695 1.398 1_455 S
C3696 C3697 1.391 . S
C3697 H3685 0.950 . S
C3697 C3693 1.393 1_455 S
C3697 C3696 1.391 . S
C3698 H3688 0.950 . S
C3698 C3699 1.386 1_455 S
C3698 C3700 1.391 . S
C3699 C3698 1.386 1_655 S
C3699 C3703 1.393 . S
C3700 H3689 0.950 . S
C3700 C3698 1.391 . S
C3700 C3701 1.400 1_455 S
C3701 C3695 1.491 . S
C3701 C3700 1.400 1_655 S
C3701 C3702 1.398 . S
C3702 H3690 0.950 . S
C3702 C3701 1.398 . S
C3702 C3703 1.391 . S
C3703 H3691 0.950 . S
C3703 C3699 1.393 . S
C3703 C3702 1.391 . S
H3704 C3712 0.950 . S
H3705 C3717 0.950 . S
H3706 C3714 0.950 . S
H3707 C3716 0.950 . S
H3708 C3718 0.950 . S
H3709 C3720 0.950 . S
H3710 C3722 0.950 . S
H3711 C3723 0.950 . S
C3712 H3704 0.950 . S
C3712 C3713 1.386 . S
C3712 C3714 1.391 . S
C3713 C3712 1.386 . S
C3713 C3717 1.393 . S
C3714 H3706 0.950 . S
C3714 C3712 1.391 . S
C3714 C3715 1.400 . S
C3715 C3714 1.400 . S
C3715 C3716 1.398 . S
C3715 C3721 1.491 . S
C3716 H3707 0.950 . S
C3716 C3715 1.398 . S
C3716 C3717 1.391 . S
C3717 H3705 0.950 . S
C3717 C3713 1.393 . S
C3717 C3716 1.391 . S
C3718 H3708 0.950 . S
C3718 C3719 1.386 . S
C3718 C3720 1.391 . S
C3719 C3718 1.386 . S
C3719 C3723 1.393 . S
C3720 H3709 0.950 . S
C3720 C3718 1.391 . S
C3720 C3721 1.400 . S
C3721 C3715 1.491 . S
C3721 C3720 1.400 . S
C3721 C3722 1.398 . S
C3722 H3710 0.950 . S
C3722 C3721 1.398 . S
C3722 C3723 1.391 . S
C3723 H3711 0.950 . S
C3723 C3719 1.393 . S
C3723 C3722 1.391 . S
H3724 C3732 0.950 . S
H3725 C3737 0.950 . S
H3726 C3734 0.950 . S
H3727 C3736 0.950 . S
H3728 C3738 0.950 . S
H3729 C3740 0.950 . S
H3730 C3742 0.950 . S
H3731 C3743 0.950 . S
C3732 H3724 0.950 . S
C3732 C3733 1.386 . S
C3732 C3734 1.391 . S
C3733 C3732 1.386 . S
C3733 C3737 1.393 1_545 S
C3734 H3726 0.950 . S
C3734 C3732 1.391 . S
C3734 C3735 1.400 . S
C3735 C3734 1.400 . S
C3735 C3736 1.398 1_545 S
C3735 C3741 1.491 . S
C3736 H3727 0.950 . S
C3736 C3735 1.398 1_565 S
C3736 C3737 1.391 . S
C3737 H3725 0.950 . S
C3737 C3733 1.393 1_565 S
C3737 C3736 1.391 . S
C3738 H3728 0.950 . S
C3738 C3739 1.351 1_565 S
C3738 C3740 1.391 . S
C3739 C3738 1.351 1_545 S
C3739 C3743 1.410 . S
C3740 H3729 0.950 . S
C3740 C3738 1.391 . S
C3740 C3741 1.400 1_565 S
C3741 C3735 1.491 . S
C3741 C3740 1.400 1_545 S
C3741 C3742 1.398 . S
C3742 H3730 0.950 . S
C3742 C3741 1.398 . S
C3742 C3743 1.391 . S
C3743 H3731 0.950 . S
C3743 C3739 1.410 . S
C3743 C3742 1.391 . S
C2313 C8 1.311 1_655 S
C2319 C1307 1.062 1_655 S
C2333 C22 1.691 . S
C2339 C1447 1.119 . S
C2359 C1535 1.169 . S
C2353 C37 1.402 . S
C2373 C36 1.456 1_565 S
C2379 C1675 1.077 1_565 S
C2393 C9 1.411 . S
C2399 C1789 1.000 1_455 S
C2413 C23 1.709 . S
C2419 C1877 1.287 . S
C2433 C50 1.303 1_455 S
C2439 C1763 1.111 1_655 S
C2459 C1903 1.330 . S
C2453 C64 1.599 . S
C2479 C1649 1.158 . S
C2473 C79 1.407 1_565 S
C2493 C78 1.433 1_545 S
C2499 C1561 1.084 . S
C2519 C1333 1.084 . S
C2513 C51 1.421 1_655 S
C2533 C65 1.611 . S
C2539 C1421 1.417 . S
C2553 C92 1.752 . S
C2559 C1991 1.254 . S
C2573 C106 1.785 . S
C2579 C2131 1.187 . S
C2599 C2219 1.274 . S
C2593 C121 1.727 . S
C2613 C120 1.735 . S
C2619 C307 1.125 . S
C2633 C93 1.746 . S
C2639 C421 1.123 . S
C2653 C107 1.765 . S
C2659 C509 1.281 . S
C2673 C134 1.511 . S
C2679 C395 1.350 . S
C2693 C148 1.654 . S
C2699 C535 1.414 . S
C2719 C281 1.453 . S
C2713 C163 1.626 . S
C2739 C2245 1.518 . S
C2733 C162 1.788 . S
C2759 C2017 1.394 . S
C2753 C135 1.649 . S
C2779 C2105 1.541 . S
C2773 C149 1.702 . S
C2793 C176 1.618 . S
C2799 C623 1.146 . S
C2813 C190 1.750 . S
C2819 C763 1.153 . S
C2833 C205 1.727 . S
C2839 C851 1.259 . S
C2853 C204 1.867 . S
C2859 C991 1.260 . S
C2879 C1105 1.156 . S
C2873 C177 1.747 . S
C2899 C1193 1.352 . S
C2893 C191 1.800 . S
C2919 C1079 1.445 . S
C2913 C218 1.654 . S
C2939 C1219 1.444 . S
C2933 C232 1.693 . S
C2953 C247 1.621 . S
C2959 C965 1.449 . S
C2979 C877 1.378 . S
C2973 C246 1.644 . S
C2993 C219 1.654 . S
C2999 C649 1.355 . S
C3019 C737 1.514 . S
C3013 C233 1.663 . S
C3039 C263 0.944 . S
C3033 C6 1.756 . S
C3053 C20 1.558 . S
C3059 C377 0.845 . S
C3079 C481 1.161 . S
C3073 C35 1.653 . S
C3099 C595 1.123 . S
C3093 C34 1.564 . S
C3119 C719 0.948 . S
C3113 C7 1.702 . S
C3139 C823 1.137 . S
C3133 C21 1.563 . S
C3153 C48 1.845 . S
C3159 C833 1.308 . S
C3173 C62 1.634 . S
C3179 C605 1.179 . S
C3193 C77 1.747 . S
C3199 C709 1.498 . S
C3213 C76 1.660 . S
C3219 C367 1.443 . S
C3239 C491 1.316 . S
C3233 C49 1.789 . S
C3253 C63 1.649 . S
C3259 C253 1.404 . S
C3279 C947 0.947 . S
C3273 C90 1.678 . S
C3293 C104 1.685 . S
C3299 C1061 1.013 . S
C3313 C119 1.648 . S
C3319 C1165 1.274 . S
C3339 C1279 1.097 . S
C3333 C118 1.281 . S
C3353 C91 1.623 . S
C3359 C1403 0.958 . S
C3373 C105 1.406 . S
C3379 C1507 1.141 . S
C3393 C132 1.493 . S
C3399 C1517 0.913 1_565 S
C3413 C146 1.413 . S
C3419 C1289 0.892 . S
C3439 C1393 1.436 . S
C3433 C161 1.669 . S
C3453 C160 1.595 . S
C3459 C1051 1.403 . S
C3473 C133 1.771 . S
C3479 C1175 1.294 . S
C3499 C937 1.525 . S
C3493 C147 1.777 . S
C3519 C1631 0.978 . S
C3513 C174 1.484 . S
C3533 C188 1.407 . S
C3539 C1745 0.884 . S
C3553 C203 1.589 . S
C3559 C1849 1.158 . S
C3579 C1963 1.105 . S
C3573 C202 1.509 . S
C3599 C2087 0.987 . S
C3593 C175 1.700 . S
C3613 C189 1.687 . S
C3619 C2191 1.291 . S
C3633 C216 1.773 . S
C3639 C2201 1.292 . S
C3653 C230 1.771 . S
C3659 C1973 1.310 . S
C3679 C2077 1.475 . S
C3673 C245 1.733 . S
C3699 C1735 1.112 1_655 S
C3693 C244 1.304 . S
C3719 C1859 1.239 . S
C3713 C217 1.720 . S
C3733 C231 1.411 . S
C3739 C1621 1.180 1_545 S
