# Generated by pormake.
# Topology pyr, (3,6)-cn, num edge types: 1
# Building blocks:
#     Node 0, Type 0, BuildingBlock: VETTIZ_charged_linker_0, # of connection points: 3
#     Node 1, Type 0, BuildingBlock: VETTIZ_charged_linker_0, # of connection points: 3
#     Node 2, Type 0, BuildingBlock: VETTIZ_charged_linker_0, # of connection points: 3
#     Node 3, Type 0, BuildingBlock: VETTIZ_charged_linker_0, # of connection points: 3
#     Node 4, Type 0, BuildingBlock: VETTIZ_charged_linker_0, # of connection points: 3
#     Node 5, Type 0, BuildingBlock: VETTIZ_charged_linker_0, # of connection points: 3
#     Node 6, Type 0, BuildingBlock: VETTIZ_charged_linker_0, # of connection points: 3
#     Node 7, Type 0, BuildingBlock: VETTIZ_charged_linker_0, # of connection points: 3
#     Node 8, Type 1, BuildingBlock: MIFKUJ_clean_sbu_0, # of connection points: 6
#     Node 9, Type 1, BuildingBlock: MIFKUJ_clean_sbu_0, # of connection points: 6
#     Node 10, Type 1, BuildingBlock: MIFKUJ_clean_sbu_0, # of connection points: 6
#     Node 11, Type 1, BuildingBlock: MIFKUJ_clean_sbu_0, # of connection points: 6
#     Edge 12, Type (0, 1), BuildingBlock: MIFKUJ_clean_linker_0, # of connection points: 2
#     Edge 13, Type (0, 1), BuildingBlock: MIFKUJ_clean_linker_0, # of connection points: 2
#     Edge 14, Type (0, 1), BuildingBlock: MIFKUJ_clean_linker_0, # of connection points: 2
#     Edge 15, Type (0, 1), BuildingBlock: MIFKUJ_clean_linker_0, # of connection points: 2
#     Edge 16, Type (0, 1), BuildingBlock: MIFKUJ_clean_linker_0, # of connection points: 2
#     Edge 17, Type (0, 1), BuildingBlock: MIFKUJ_clean_linker_0, # of connection points: 2
#     Edge 18, Type (0, 1), BuildingBlock: MIFKUJ_clean_linker_0, # of connection points: 2
#     Edge 19, Type (0, 1), BuildingBlock: MIFKUJ_clean_linker_0, # of connection points: 2
#     Edge 20, Type (0, 1), BuildingBlock: MIFKUJ_clean_linker_0, # of connection points: 2
#     Edge 21, Type (0, 1), BuildingBlock: MIFKUJ_clean_linker_0, # of connection points: 2
#     Edge 22, Type (0, 1), BuildingBlock: MIFKUJ_clean_linker_0, # of connection points: 2
#     Edge 23, Type (0, 1), BuildingBlock: MIFKUJ_clean_linker_0, # of connection points: 2
#     Edge 24, Type (0, 1), BuildingBlock: MIFKUJ_clean_linker_0, # of connection points: 2
#     Edge 25, Type (0, 1), BuildingBlock: MIFKUJ_clean_linker_0, # of connection points: 2
#     Edge 26, Type (0, 1), BuildingBlock: MIFKUJ_clean_linker_0, # of connection points: 2
#     Edge 27, Type (0, 1), BuildingBlock: MIFKUJ_clean_linker_0, # of connection points: 2
#     Edge 28, Type (0, 1), BuildingBlock: MIFKUJ_clean_linker_0, # of connection points: 2
#     Edge 29, Type (0, 1), BuildingBlock: MIFKUJ_clean_linker_0, # of connection points: 2
#     Edge 30, Type (0, 1), BuildingBlock: MIFKUJ_clean_linker_0, # of connection points: 2
#     Edge 31, Type (0, 1), BuildingBlock: MIFKUJ_clean_linker_0, # of connection points: 2
#     Edge 32, Type (0, 1), BuildingBlock: MIFKUJ_clean_linker_0, # of connection points: 2
#     Edge 33, Type (0, 1), BuildingBlock: MIFKUJ_clean_linker_0, # of connection points: 2
#     Edge 34, Type (0, 1), BuildingBlock: MIFKUJ_clean_linker_0, # of connection points: 2
#     Edge 35, Type (0, 1), BuildingBlock: MIFKUJ_clean_linker_0, # of connection points: 2
# Relax obj value: 0.025
# Max RMSD: 0.077
# Mean RMSD: 0.046
data_MOF--net-pyr--node1-MIFKUJ_clean_sbu_0--node2-VETTIZ_charged_linker_0--edge1-MIFKUJ_clean_linker_0
_symmetry_space_group_name_H-M    P1
_symmetry_Int_Tables_number       1
_symmetry_cell_setting            triclinic
loop_
_symmetry_equiv_pos_as_xyz
'x, y, z'
_cell_length_a     59.282245
_cell_length_b     53.176563
_cell_length_c     58.049544
_cell_angle_alpha  86.501276
_cell_angle_beta   88.761848
_cell_angle_gamma 95.24693
loop_
_atom_site_label
_atom_site_type_symbol
_atom_site_fract_x
_atom_site_fract_y
_atom_site_fract_z
_atom_type_partial_charge
C0 C 0.18341 0.13508 0.27668 0.0
C1 C 0.16564 0.14366 0.28955 0.0
C2 C 0.15712 0.1667 0.28255 0.0
C3 C 0.18288 0.17138 0.24931 0.0
C4 C 0.19192 0.14937 0.25682 0.0
C5 C 0.21102 0.14326 0.24127 0.0
H6 H 0.27666 0.17263 0.14494 0.0
C7 C 0.19473 0.181 0.22748 0.0
C8 C 0.21151 0.16487 0.22288 0.0
H9 H 0.27932 0.10943 0.19524 0.0
H10 H 0.24894 0.12401 0.21732 0.0
H11 H 0.26726 0.21577 0.18101 0.0
H12 H 0.22416 0.16597 0.1417 0.0
H13 H 0.2109 0.19403 0.14264 0.0
H14 H 0.23855 0.1947 0.12882 0.0
H15 H 0.26599 0.21865 0.15009 0.0
H16 H 0.24658 0.23339 0.16811 0.0
C17 C 0.23297 0.14431 0.25535 0.0
C18 C 0.20425 0.11731 0.23134 0.0
C19 C 0.16542 0.25384 0.18006 0.0
C20 C 0.17163 0.26556 0.15818 0.0
C21 C 0.1909 0.25836 0.14648 0.0
C22 C 0.20338 0.23939 0.15613 0.0
C23 C 0.19647 0.2273 0.17765 0.0
C24 C 0.17793 0.23479 0.18936 0.0
C25 C 0.17289 0.21966 0.2119 0.0
C26 C 0.19109 0.20138 0.21148 0.0
C27 C 0.20486 0.20597 0.19141 0.0
C28 C 0.17607 0.23776 0.23178 0.0
C29 C 0.14876 0.20591 0.21088 0.0
C30 C 0.2707 0.16181 0.16065 0.0
C31 C 0.28073 0.13991 0.16835 0.0
C32 C 0.2724 0.12667 0.18907 0.0
C33 C 0.25454 0.13504 0.20183 0.0
C34 C 0.24462 0.15676 0.19376 0.0
C35 C 0.25265 0.16971 0.17345 0.0
C36 C 0.2393 0.1917 0.16696 0.0
C37 C 0.22235 0.19019 0.18709 0.0
C38 C 0.22558 0.16972 0.20272 0.0
C39 C 0.25553 0.21627 0.16632 0.0
C40 C 0.22768 0.18661 0.14378 0.0
H41 H 0.1582 0.19776 0.25779 0.0
H42 H 0.19044 0.11759 0.28192 0.0
H43 H 0.18585 0.11517 0.22767 0.0
H44 H 0.21287 0.11498 0.21466 0.0
H45 H 0.20771 0.10147 0.24375 0.0
H46 H 0.23288 0.15893 0.26828 0.0
H47 H 0.23477 0.12587 0.26487 0.0
H48 H 0.24841 0.14989 0.24458 0.0
H49 H 0.15097 0.25924 0.18971 0.0
H50 H 0.19599 0.26691 0.12954 0.0
H51 H 0.21769 0.23457 0.14626 0.0
H52 H 0.18845 0.25429 0.22677 0.0
H53 H 0.15984 0.24519 0.23666 0.0
H54 H 0.18321 0.22865 0.24729 0.0
H55 H 0.14613 0.19784 0.1938 0.0
H56 H 0.14554 0.18976 0.2237 0.0
H57 H 0.13564 0.2192 0.21339 0.0
H58 H 0.14337 0.17356 0.29225 0.0
C59 C 0.16564 0.1806 0.26248 0.0
C60 C 0.2645 0.86906 0.63931 0.0
C61 C 0.25259 0.88751 0.64949 0.0
C62 C 0.26042 0.8968 0.67048 0.0
C63 C 0.29132 0.86989 0.6704 0.0
C64 C 0.2835 0.8604 0.65012 0.0
C65 C 0.29732 0.84006 0.64208 0.0
H66 H 0.38626 0.76991 0.6574 0.0
C67 C 0.31136 0.85679 0.67721 0.0
C68 C 0.31479 0.83905 0.66078 0.0
H69 H 0.33715 0.76623 0.60336 0.0
H70 H 0.31796 0.79914 0.61998 0.0
H71 H 0.39183 0.83092 0.65819 0.0
H72 H 0.35106 0.77215 0.69812 0.0
H73 H 0.35872 0.79555 0.71727 0.0
H74 H 0.38051 0.77954 0.70358 0.0
H75 H 0.40334 0.80919 0.67864 0.0
H76 H 0.3932 0.83819 0.68728 0.0
C77 C 0.3083 0.84924 0.61823 0.0
C78 C 0.28164 0.81507 0.64206 0.0
C79 C 0.35633 0.88278 0.74728 0.0
C80 C 0.37551 0.87371 0.75776 0.0
C81 C 0.38491 0.85288 0.74854 0.0
C82 C 0.37597 0.84187 0.72904 0.0
C83 C 0.35719 0.85147 0.71852 0.0
C84 C 0.34743 0.87132 0.72783 0.0
C85 C 0.32687 0.87814 0.71482 0.0
C86 C 0.32639 0.85957 0.69586 0.0
C87 C 0.34431 0.84414 0.69808 0.0
C88 C 0.33137 0.90589 0.70495 0.0
C89 C 0.30585 0.87313 0.73139 0.0
C90 C 0.37124 0.77596 0.64924 0.0
C91 C 0.36333 0.7654 0.62893 0.0
C92 C 0.34387 0.77424 0.61878 0.0
C93 C 0.33262 0.79327 0.62856 0.0
C94 C 0.34081 0.80367 0.64879 0.0
C95 C 0.35976 0.7949 0.65882 0.0
C96 C 0.36601 0.808 0.68033 0.0
C97 C 0.34768 0.82607 0.6816 0.0
C98 C 0.333 0.82353 0.66305 0.0
C99 C 0.38989 0.82226 0.67615 0.0
C100 C 0.36419 0.78791 0.70098 0.0
H101 H 0.28472 0.89611 0.69673 0.0
H102 H 0.2593 0.86151 0.62315 0.0
H103 H 0.26845 0.81399 0.65611 0.0
H104 H 0.29077 0.79808 0.6455 0.0
H105 H 0.2728 0.81354 0.62546 0.0
H106 H 0.31415 0.86976 0.61781 0.0
H107 H 0.29601 0.84647 0.60424 0.0
H108 H 0.32357 0.8398 0.6141 0.0
H109 H 0.34854 0.89864 0.75383 0.0
H110 H 0.39916 0.84482 0.75654 0.0
H111 H 0.38406 0.82623 0.72293 0.0
H112 H 0.3488 0.90941 0.69724 0.0
H113 H 0.3298 0.91926 0.71874 0.0
H114 H 0.31992 0.91072 0.69097 0.0
H115 H 0.30814 0.85776 0.74478 0.0
H116 H 0.29036 0.86643 0.72245 0.0
H117 H 0.30267 0.89031 0.74047 0.0
H118 H 0.25145 0.91047 0.6792 0.0
C119 C 0.27969 0.88823 0.68086 0.0
C120 C 0.6328 0.2754 0.85644 0.0
C121 C 0.61177 0.26425 0.84945 0.0
C122 C 0.60163 0.27561 0.83011 0.0
C123 C 0.63326 0.30803 0.82519 0.0
C124 C 0.64301 0.29726 0.84433 0.0
C125 C 0.66472 0.31199 0.85036 0.0
H126 H 0.74433 0.41042 0.82721 0.0
C127 C 0.64833 0.33057 0.81654 0.0
C128 C 0.66666 0.33311 0.83139 0.0
H129 H 0.73982 0.35463 0.88491 0.0
H130 H 0.7055 0.33456 0.87031 0.0
H131 H 0.69114 0.41936 0.82822 0.0
H132 H 0.72852 0.37084 0.78786 0.0
H133 H 0.70972 0.38574 0.76967 0.0
H134 H 0.7318 0.40469 0.78325 0.0
H135 H 0.71073 0.43167 0.80537 0.0
H136 H 0.68164 0.42143 0.79975 0.0
C137 C 0.66142 0.32212 0.87462 0.0
C138 C 0.68413 0.29453 0.84851 0.0
C139 C 0.62913 0.38052 0.74317 0.0
C140 C 0.63985 0.40194 0.73057 0.0
C141 C 0.66034 0.41339 0.7387 0.0
C142 C 0.66996 0.40368 0.7589 0.0
C143 C 0.65901 0.38226 0.77126 0.0
C144 C 0.63893 0.37107 0.7633 0.0
C145 C 0.62952 0.34857 0.77865 0.0
C146 C 0.64731 0.34794 0.79705 0.0
C147 C 0.66459 0.36773 0.7927 0.0
C148 C 0.6062 0.35421 0.78868 0.0
C149 C 0.62872 0.32491 0.76429 0.0
C150 C 0.73594 0.39381 0.83658 0.0
C151 C 0.74476 0.38416 0.85732 0.0
C152 C 0.73323 0.36264 0.8691 0.0
C153 C 0.71331 0.35093 0.86053 0.0
C154 C 0.70455 0.36086 0.83997 0.0
C155 C 0.71575 0.382 0.82834 0.0
C156 C 0.70345 0.39015 0.80706 0.0
C157 C 0.68304 0.37048 0.80796 0.0
C158 C 0.68395 0.3533 0.82721 0.0
C159 C 0.69642 0.41713 0.81 0.0
C160 C 0.71911 0.38798 0.78573 0.0
H161 H 0.60364 0.30488 0.80343 0.0
H162 H 0.64137 0.26731 0.87099 0.0
H163 H 0.68212 0.28317 0.83309 0.0
H164 H 0.70103 0.30506 0.84624 0.0
H165 H 0.68414 0.28114 0.86396 0.0
H166 H 0.64328 0.32442 0.87852 0.0
H167 H 0.66727 0.30901 0.8884 0.0
H168 H 0.67017 0.34122 0.87608 0.0
H169 H 0.61321 0.37146 0.7377 0.0
H170 H 0.66913 0.42973 0.72927 0.0
H171 H 0.68559 0.41321 0.7641 0.0
H172 H 0.6057 0.37479 0.79095 0.0
H173 H 0.59229 0.34834 0.77708 0.0
H174 H 0.60245 0.34505 0.80612 0.0
H175 H 0.64426 0.32534 0.75311 0.0
H176 H 0.62821 0.30701 0.77501 0.0
H177 H 0.61389 0.32408 0.7529 0.0
H178 H 0.58524 0.26802 0.82449 0.0
C179 C 0.61227 0.29726 0.81794 0.0
C180 C 0.87901 0.71514 0.33033 0.0
C181 C 0.87189 0.72381 0.35146 0.0
C182 C 0.85146 0.71283 0.36213 0.0
C183 C 0.8459 0.68457 0.33119 0.0
C184 C 0.86585 0.69542 0.32062 0.0
C185 C 0.87134 0.68308 0.29877 0.0
H186 H 0.84739 0.58903 0.22698 0.0
C187 C 0.83656 0.66414 0.31704 0.0
C188 C 0.85138 0.66305 0.29806 0.0
H189 H 0.9031 0.64764 0.22177 0.0
H190 H 0.88849 0.66628 0.25523 0.0
H191 H 0.84573 0.57905 0.28327 0.0
H192 H 0.80982 0.62707 0.23725 0.0
H193 H 0.79078 0.61498 0.25966 0.0
H194 H 0.80249 0.59354 0.24067 0.0
H195 H 0.82565 0.56699 0.26299 0.0
H196 H 0.81665 0.5753 0.2911 0.0
C197 C 0.89407 0.67122 0.302 0.0
C198 C 0.87148 0.70321 0.27829 0.0
C199 C 0.76288 0.61337 0.34285 0.0
C200 C 0.74968 0.59329 0.33367 0.0
C201 C 0.75713 0.58358 0.31304 0.0
C202 C 0.77754 0.59363 0.30188 0.0
C203 C 0.79058 0.61371 0.31136 0.0
C204 C 0.78306 0.62327 0.33146 0.0
C205 C 0.79871 0.64487 0.33895 0.0
C206 C 0.81684 0.64691 0.31996 0.0
C207 C 0.81214 0.62855 0.3039 0.0
C208 C 0.80806 0.63686 0.3628 0.0
C209 C 0.78548 0.66873 0.33872 0.0
C210 C 0.85645 0.60578 0.23323 0.0
C211 C 0.87653 0.61677 0.22197 0.0
C212 C 0.8876 0.6389 0.23019 0.0
C213 C 0.87916 0.64959 0.24969 0.0
C214 C 0.85934 0.63813 0.26108 0.0
C215 C 0.84806 0.61689 0.25256 0.0
C216 C 0.8266 0.60815 0.26624 0.0
C217 C 0.82735 0.62707 0.28485 0.0
C218 C 0.84669 0.64444 0.28182 0.0
C219 C 0.82854 0.58087 0.27641 0.0
C220 C 0.80626 0.61083 0.25023 0.0
H221 H 0.82308 0.68584 0.36113 0.0
H222 H 0.89472 0.72312 0.32182 0.0
H223 H 0.85898 0.71711 0.2814 0.0
H224 H 0.86633 0.69498 0.26196 0.0
H225 H 0.88841 0.71393 0.27568 0.0
H226 H 0.89506 0.66255 0.31985 0.0
H227 H 0.9087 0.68578 0.2991 0.0
H228 H 0.89624 0.65569 0.29065 0.0
H229 H 0.75744 0.62157 0.35843 0.0
H230 H 0.74728 0.56804 0.30567 0.0
H231 H 0.78241 0.58537 0.28633 0.0
H232 H 0.80929 0.61608 0.36465 0.0
H233 H 0.79689 0.64179 0.37713 0.0
H234 H 0.82551 0.64528 0.3653 0.0
H235 H 0.77371 0.6691 0.32405 0.0
H236 H 0.79657 0.68658 0.33616 0.0
H237 H 0.77519 0.66912 0.35489 0.0
H238 H 0.84548 0.71946 0.37825 0.0
C239 C 0.83843 0.69335 0.3521 0.0
C240 C 0.82517 0.74693 0.84096 0.0
C241 C 0.84356 0.73598 0.83116 0.0
C242 C 0.85151 0.74457 0.80873 0.0
C243 C 0.82366 0.77518 0.8067 0.0
C244 C 0.81549 0.76634 0.82844 0.0
C245 C 0.79608 0.78025 0.83644 0.0
H246 H 0.72724 0.87351 0.81705 0.0
C247 C 0.81032 0.79598 0.79868 0.0
C248 C 0.79398 0.79889 0.8159 0.0
H249 H 0.72948 0.82239 0.87775 0.0
H250 H 0.75866 0.80134 0.85957 0.0
H251 H 0.73273 0.83243 0.77902 0.0
H252 H 0.78109 0.88389 0.81097 0.0
H253 H 0.7885 0.88471 0.78148 0.0
H254 H 0.76145 0.89445 0.7902 0.0
H255 H 0.7351 0.86593 0.77196 0.0
H256 H 0.75251 0.84528 0.75749 0.0
C257 C 0.77484 0.761 0.83991 0.0
C258 C 0.80332 0.79374 0.85842 0.0
C259 C 0.83331 0.84689 0.72389 0.0
C260 C 0.82505 0.86807 0.71247 0.0
C261 C 0.8051 0.87715 0.72099 0.0
C262 C 0.79414 0.86597 0.74124 0.0
C263 C 0.80326 0.84552 0.75308 0.0
C264 C 0.82221 0.83596 0.74403 0.0
C265 C 0.8294 0.81395 0.75864 0.0
C266 C 0.81205 0.81236 0.77837 0.0
C267 C 0.79689 0.83099 0.77514 0.0
C268 C 0.82693 0.79017 0.74438 0.0
C269 C 0.85375 0.82117 0.76677 0.0
C270 C 0.73407 0.85787 0.82651 0.0
C271 C 0.72592 0.84966 0.84892 0.0
C272 C 0.73512 0.82892 0.86037 0.0
C273 C 0.75226 0.81682 0.84984 0.0
C274 C 0.76052 0.82561 0.82767 0.0
C275 C 0.75138 0.84574 0.81634 0.0
C276 C 0.76279 0.85302 0.79318 0.0
C277 C 0.78021 0.83385 0.79247 0.0
C278 C 0.77879 0.81787 0.81273 0.0
C279 C 0.74495 0.8492 0.7743 0.0
C280 C 0.77398 0.88048 0.79373 0.0
H281 H 0.8486 0.76983 0.77955 0.0
H282 H 0.81875 0.74095 0.85822 0.0
H283 H 0.82174 0.80014 0.85756 0.0
H284 H 0.7949 0.81116 0.86058 0.0
H285 H 0.80004 0.78087 0.87417 0.0
H286 H 0.77451 0.74678 0.8266 0.0
H287 H 0.77466 0.75059 0.8571 0.0
H288 H 0.7588 0.76986 0.83792 0.0
H289 H 0.84837 0.8392 0.71746 0.0
H290 H 0.79843 0.89346 0.71243 0.0
H291 H 0.77927 0.87401 0.74715 0.0
H292 H 0.81331 0.79141 0.73157 0.0
H293 H 0.8429 0.78785 0.7347 0.0
H294 H 0.82178 0.77262 0.75516 0.0
H295 H 0.85572 0.84122 0.77147 0.0
H296 H 0.85811 0.81003 0.78242 0.0
H297 H 0.86651 0.81905 0.7529 0.0
H298 H 0.86536 0.73616 0.8006 0.0
C299 C 0.84166 0.76405 0.79646 0.0
C300 C 0.73443 0.13258 0.35559 0.0
C301 C 0.7457 0.11384 0.34513 0.0
C302 C 0.73734 0.10482 0.32425 0.0
C303 C 0.70723 0.13279 0.32485 0.0
C304 C 0.71554 0.14188 0.3451 0.0
C305 C 0.70232 0.16249 0.35358 0.0
H306 H 0.6177 0.23864 0.33831 0.0
C307 C 0.68752 0.14666 0.31839 0.0
C308 C 0.68474 0.1643 0.33506 0.0
H309 H 0.66456 0.23598 0.39437 0.0
H310 H 0.68236 0.20255 0.37712 0.0
H311 H 0.60805 0.17762 0.33757 0.0
H312 H 0.65285 0.23292 0.29778 0.0
H313 H 0.64221 0.21075 0.27861 0.0
H314 H 0.62292 0.22921 0.29325 0.0
H315 H 0.59811 0.19977 0.31644 0.0
H316 H 0.60689 0.16977 0.30866 0.0
C317 C 0.69137 0.15324 0.37744 0.0
C318 C 0.71858 0.18702 0.35372 0.0
C319 C 0.64161 0.12336 0.24825 0.0
C320 C 0.62278 0.13334 0.23783 0.0
C321 C 0.61414 0.15452 0.24719 0.0
C322 C 0.62353 0.16508 0.26675 0.0
C323 C 0.64196 0.15459 0.27717 0.0
C324 C 0.65095 0.13433 0.26772 0.0
C325 C 0.67124 0.12648 0.28059 0.0
C326 C 0.67241 0.14482 0.29974 0.0
C327 C 0.65512 0.16114 0.29767 0.0
C328 C 0.66591 0.09875 0.29022 0.0
C329 C 0.69228 0.13087 0.264 0.0
C330 C 0.63167 0.23075 0.34702 0.0
C331 C 0.63975 0.24023 0.36773 0.0
C332 C 0.65819 0.22948 0.37821 0.0
C333 C 0.66845 0.20988 0.36823 0.0
C334 C 0.66022 0.20073 0.34752 0.0
C335 C 0.64204 0.21105 0.33734 0.0
C336 C 0.63524 0.19856 0.31565 0.0
C337 C 0.6525 0.17921 0.31437 0.0
C338 C 0.66712 0.18064 0.33303 0.0
C339 C 0.61076 0.18584 0.31952 0.0
C340 C 0.63824 0.21879 0.29516 0.0
H341 H 0.71272 0.10639 0.29834 0.0
H342 H 0.74002 0.13985 0.37173 0.0
H343 H 0.73093 0.1884 0.33887 0.0
H344 H 0.70979 0.20441 0.35171 0.0
H345 H 0.72841 0.18743 0.36978 0.0
H346 H 0.68626 0.13253 0.3782 0.0
H347 H 0.7034 0.15686 0.39154 0.0
H348 H 0.67558 0.16193 0.38119 0.0
H349 H 0.6488 0.10716 0.24165 0.0
H350 H 0.60017 0.16323 0.23927 0.0
H351 H 0.61605 0.18108 0.27296 0.0
H352 H 0.64844 0.09579 0.29789 0.0
H353 H 0.66707 0.08544 0.2763 0.0
H354 H 0.67718 0.09331 0.30418 0.0
H355 H 0.69047 0.14659 0.25081 0.0
H356 H 0.70797 0.13677 0.27296 0.0
H357 H 0.6948 0.11368 0.25466 0.0
H358 H 0.7458 0.09083 0.31542 0.0
C359 C 0.71819 0.11408 0.31416 0.0
C360 C 0.3674 0.62229 0.25555 0.0
C361 C 0.35611 0.60257 0.26981 0.0
C362 C 0.33371 0.59373 0.26485 0.0
C363 C 0.33441 0.6237 0.23148 0.0
C364 C 0.3562 0.63272 0.23673 0.0
C365 C 0.36538 0.65468 0.22063 0.0
H366 H 0.35154 0.73442 0.1276 0.0
C367 C 0.32771 0.63864 0.21074 0.0
C368 C 0.34576 0.65699 0.20448 0.0
H369 H 0.40821 0.73492 0.17337 0.0
H370 H 0.39002 0.69861 0.19551 0.0
H371 H 0.31326 0.72521 0.16769 0.0
H372 H 0.34434 0.67446 0.1245 0.0
H373 H 0.31546 0.66375 0.12721 0.0
H374 H 0.32386 0.69485 0.11389 0.0
H375 H 0.30729 0.72346 0.13763 0.0
H376 H 0.29165 0.70297 0.1595 0.0
C377 C 0.3697 0.67828 0.23492 0.0
C378 C 0.3867 0.64704 0.20791 0.0
C379 C 0.2518 0.61618 0.17365 0.0
C380 C 0.2414 0.62637 0.15402 0.0
C381 C 0.2529 0.64719 0.14109 0.0
C382 C 0.27423 0.65764 0.14749 0.0
C383 C 0.2844 0.64726 0.16706 0.0
C384 C 0.27321 0.6269 0.17983 0.0
C385 C 0.28671 0.61848 0.20015 0.0
C386 C 0.30791 0.63693 0.19725 0.0
C387 C 0.3064 0.65376 0.17783 0.0
C388 C 0.27308 0.62214 0.22259 0.0
C389 C 0.29197 0.59088 0.19715 0.0
C390 C 0.35999 0.7269 0.1425 0.0
C391 C 0.38146 0.7377 0.14861 0.0
C392 C 0.39188 0.72687 0.16797 0.0
C393 C 0.38118 0.70585 0.18098 0.0
C394 C 0.35969 0.69545 0.17474 0.0
C395 C 0.34946 0.706 0.15578 0.0
C396 C 0.3265 0.69265 0.15185 0.0
C397 C 0.32451 0.67255 0.17173 0.0
C398 C 0.34405 0.67419 0.185 0.0
C399 C 0.30862 0.71195 0.15408 0.0
C400 C 0.32734 0.68089 0.12809 0.0
H401 H 0.30587 0.59641 0.24272 0.0
H402 H 0.38446 0.62979 0.25925 0.0
H403 H 0.38396 0.62716 0.20285 0.0
H404 H 0.39092 0.65851 0.19165 0.0
H405 H 0.40163 0.64841 0.21915 0.0
H406 H 0.35777 0.67736 0.25008 0.0
H407 H 0.38718 0.67988 0.24154 0.0
H408 H 0.36675 0.69608 0.22508 0.0
H409 H 0.2434 0.60036 0.1841 0.0
H410 H 0.24557 0.65518 0.12569 0.0
H411 H 0.28203 0.67336 0.13681 0.0
H412 H 0.26298 0.63872 0.22039 0.0
H413 H 0.26112 0.60525 0.22749 0.0
H414 H 0.28408 0.62633 0.23726 0.0
H415 H 0.29698 0.58837 0.17891 0.0
H416 H 0.3063 0.58527 0.20748 0.0
H417 H 0.27688 0.57741 0.20174 0.0
H418 H 0.32471 0.57858 0.27567 0.0
C419 C 0.32285 0.60407 0.2457 0.0
C420 C 0.13254 0.27077 0.67813 0.0
C421 C 0.1407 0.25928 0.65877 0.0
C422 C 0.16274 0.26719 0.64995 0.0
C423 C 0.16742 0.29849 0.67845 0.0
C424 C 0.14618 0.2902 0.68769 0.0
C425 C 0.14021 0.30447 0.70827 0.0
H426 H 0.16547 0.4019 0.77606 0.0
C427 C 0.17684 0.31967 0.69167 0.0
C428 C 0.16108 0.32321 0.70927 0.0
H429 H 0.1083 0.3452 0.78277 0.0
H430 H 0.12258 0.32443 0.7503 0.0
H431 H 0.16773 0.40861 0.71971 0.0
H432 H 0.20194 0.36241 0.76877 0.0
H433 H 0.22173 0.3733 0.74665 0.0
H434 H 0.2095 0.39582 0.76408 0.0
H435 H 0.18869 0.42155 0.73868 0.0
H436 H 0.19653 0.41038 0.71121 0.0
C437 C 0.11869 0.31789 0.70271 0.0
C438 C 0.1376 0.2856 0.72982 0.0
C439 C 0.25207 0.36725 0.66578 0.0
C440 C 0.26471 0.38863 0.67349 0.0
C441 C 0.25648 0.40034 0.69274 0.0
C442 C 0.23589 0.39107 0.7039 0.0
C443 C 0.22335 0.36984 0.69577 0.0
C444 C 0.23157 0.35828 0.67706 0.0
C445 C 0.21601 0.33607 0.67062 0.0
C446 C 0.19708 0.33608 0.68862 0.0
C447 C 0.20141 0.35592 0.70328 0.0
C448 C 0.20784 0.34201 0.64584 0.0
C449 C 0.22881 0.31196 0.67351 0.0
C450 C 0.15602 0.3851 0.77036 0.0
C451 C 0.13569 0.37521 0.78172 0.0
C452 C 0.12403 0.35305 0.77421 0.0
C453 C 0.13231 0.34109 0.75535 0.0
C454 C 0.15258 0.35127 0.744 0.0
C455 C 0.16428 0.37268 0.75178 0.0
C456 C 0.18617 0.37992 0.7384 0.0
C457 C 0.18552 0.35953 0.72116 0.0
C458 C 0.16563 0.34304 0.72432 0.0
C459 C 0.18496 0.40657 0.72641 0.0
C460 C 0.20598 0.378 0.75523 0.0
H461 H 0.19259 0.29188 0.65196 0.0
H462 H 0.11574 0.26516 0.68542 0.0
H463 H 0.14783 0.26929 0.72783 0.0
H464 H 0.14397 0.29418 0.74561 0.0
H465 H 0.11967 0.27786 0.7329 0.0
H466 H 0.11999 0.32693 0.68487 0.0
H467 H 0.10334 0.30417 0.70389 0.0
H468 H 0.11602 0.33326 0.71409 0.0
H469 H 0.25804 0.35755 0.65128 0.0
H470 H 0.26577 0.41698 0.69892 0.0
H471 H 0.23046 0.40092 0.71832 0.0
H472 H 0.20518 0.36241 0.64303 0.0
H473 H 0.22053 0.33761 0.63267 0.0
H474 H 0.19132 0.33188 0.64233 0.0
H475 H 0.24105 0.31342 0.68775 0.0
H476 H 0.21744 0.29474 0.67847 0.0
H477 H 0.23853 0.30893 0.6575 0.0
H478 H 0.1698 0.25824 0.63553 0.0
C479 C 0.17608 0.28668 0.65964 0.0
Zn480 Zn 0.02224 0.00686 0.52412 0.0
Zn481 Zn 0.97306 0.98972 0.47357 0.0
C482 C 0.0435 0.05513 0.53465 0.0
O483 O 0.05808 0.04963 0.5188 0.0
C484 C 0.96812 0.93466 0.46963 0.0
O485 O 0.97013 0.93311 0.49215 0.0
O486 O 0.04684 0.9859 0.53661 0.0
O487 O 0.99176 0.99007 0.53469 0.0
O488 O 0.96648 0.98268 0.5076 0.0
C489 C 0.05348 0.98874 0.55708 0.0
O490 O 0.04336 0.00407 0.56994 0.0
O491 O 0.02614 0.0398 0.53961 0.0
C492 C 0.93993 0.00552 0.44123 0.0
O493 O 0.94766 0.98747 0.42971 0.0
O494 O 0.94859 0.01062 0.46049 0.0
O495 O 0.00351 0.00652 0.46294 0.0
O496 O 0.02852 0.01491 0.49013 0.0
O497 O 0.96936 0.95628 0.45885 0.0
C498 C 0.97205 0.98209 0.52862 0.0
C499 C 0.02297 0.01524 0.46909 0.0
Zn500 Zn 0.51818 0.9859 0.98935 0.0
Zn501 Zn 0.48195 0.01357 0.00875 0.0
C502 C 0.49615 0.95622 0.95542 0.0
O503 O 0.51109 0.94094 0.96261 0.0
C504 C 0.51003 0.04514 0.03634 0.0
O505 O 0.49992 0.06214 0.02402 0.0
O506 O 0.54646 0.9706 0.97987 0.0
O507 O 0.52667 0.02382 0.98756 0.0
O508 O 0.49226 0.03119 0.97793 0.0
C509 C 0.55861 0.98091 0.96296 0.0
O510 O 0.5531 0.00218 0.95282 0.0
O511 O 0.49531 0.97724 0.96463 0.0
C512 C 0.44967 0.02369 0.0415 0.0
O513 O 0.4611 0.00721 0.05297 0.0
O514 O 0.45505 0.02971 0.02043 0.0
O515 O 0.47231 0.97618 0.01118 0.0
O516 O 0.50667 0.96715 0.01935 0.0
O517 O 0.50581 0.0219 0.03245 0.0
C518 C 0.51345 0.03756 0.97672 0.0
C519 C 0.48537 0.96167 0.02129 0.0
Zn520 Zn 0.51103 0.48056 0.48412 0.0
Zn521 Zn 0.49087 0.52419 0.51366 0.0
C522 C 0.5378 0.50992 0.45032 0.0
O523 O 0.52256 0.49809 0.43774 0.0
C524 C 0.46674 0.4955 0.55005 0.0
O525 O 0.48228 0.50847 0.56144 0.0
O526 O 0.5201 0.4485 0.47094 0.0
O527 O 0.51285 0.47473 0.51866 0.0
O528 O 0.52147 0.51478 0.52483 0.0
C529 C 0.54055 0.44377 0.47385 0.0
O530 O 0.55373 0.45907 0.48577 0.0
O531 O 0.53591 0.50674 0.47219 0.0
C532 C 0.47568 0.5747 0.51739 0.0
O533 O 0.47347 0.57396 0.49498 0.0
O534 O 0.48377 0.55636 0.52852 0.0
O535 O 0.48443 0.52891 0.47956 0.0
O536 O 0.4819 0.48931 0.46954 0.0
O537 O 0.46717 0.49816 0.52813 0.0
C538 C 0.52328 0.4915 0.53019 0.0
C539 C 0.47704 0.51203 0.46628 0.0
Zn540 Zn 0.98337 0.51308 0.97773 0.0
Zn541 Zn 0.01787 0.48233 0.02079 0.0
C542 C 0.95559 0.48055 0.9519 0.0
O543 O 0.97099 0.49048 0.93653 0.0
C544 C 0.03982 0.51119 0.05485 0.0
O545 O 0.02576 0.49557 0.06789 0.0
O546 O 0.97307 0.54304 0.95955 0.0
O547 O 0.98394 0.52385 0.01044 0.0
O548 O 0.9857 0.48735 0.03013 0.0
C549 C 0.95272 0.54735 0.96394 0.0
O550 O 0.94097 0.53311 0.98011 0.0
O551 O 0.95785 0.48586 0.97288 0.0
C552 C 0.04836 0.4489 0.03566 0.0
O553 O 0.06078 0.46565 0.02206 0.0
O554 O 0.02728 0.45119 0.03806 0.0
O555 O 0.02669 0.47808 0.98767 0.0
O556 O 0.01157 0.50362 0.96191 0.0
O557 O 0.03881 0.51052 0.03301 0.0
C558 C 0.97984 0.50976 0.02878 0.0
C559 C 0.02531 0.48734 0.96712 0.0
H560 H 0.14906 0.09429 0.29057 0.0
H561 H 0.12763 0.06963 0.32226 0.0
H562 H 0.13697 0.13316 0.36494 0.0
H563 H 0.15803 0.15813 0.33309 0.0
H564 H 0.14296 0.0796 0.38647 0.0
H565 H 0.09178 0.13064 0.34331 0.0
H566 H 0.07481 0.1459 0.30726 0.0
H567 H 0.05117 0.06959 0.29373 0.0
H568 H 0.06836 0.05385 0.32954 0.0
H569 H 0.05768 0.05183 0.47348 0.0
H570 H 0.08461 0.0707 0.44357 0.0
H571 H 0.05341 0.02156 0.39441 0.0
H572 H 0.02579 0.0034 0.42414 0.0
H573 H 0.0601 0.06573 0.37522 0.0
H574 H 0.10725 0.0136 0.41847 0.0
H575 H 0.12535 0.99575 0.45286 0.0
H576 H 0.15772 0.06919 0.46482 0.0
H577 H 0.13957 0.08757 0.4307 0.0
C578 C 0.14686 0.1028 0.30686 0.0
C579 C 0.15506 0.12806 0.30948 0.0
C580 C 0.13464 0.08875 0.32487 0.0
C581 C 0.1308 0.09967 0.34582 0.0
C582 C 0.13991 0.12447 0.34887 0.0
C583 C 0.15176 0.1387 0.33071 0.0
C584 C 0.11561 0.08596 0.36375 0.0
C585 C 0.12481 0.07669 0.38425 0.0
C586 C 0.09211 0.08158 0.36031 0.0
C587 C 0.08158 0.09106 0.33893 0.0
C588 C 0.08315 0.1171 0.33253 0.0
C589 C 0.07346 0.12584 0.31217 0.0
C590 C 0.06198 0.10872 0.29818 0.0
C591 C 0.06011 0.08283 0.30456 0.0
C592 C 0.06981 0.07399 0.32489 0.0
C593 C 0.05671 0.04489 0.45636 0.0
C594 C 0.0397 0.02609 0.45117 0.0
C595 C 0.07219 0.0556 0.43928 0.0
C596 C 0.07135 0.04726 0.41679 0.0
C597 C 0.05444 0.02831 0.41163 0.0
C598 C 0.03867 0.01794 0.42861 0.0
C599 C 0.08728 0.05924 0.39837 0.0
C600 C 0.07824 0.06831 0.37764 0.0
C601 C 0.11099 0.06298 0.40151 0.0
C602 C 0.12189 0.05201 0.42211 0.0
C603 C 0.11808 0.02599 0.42854 0.0
C604 C 0.12838 0.01577 0.44797 0.0
C605 C 0.14264 0.03134 0.46103 0.0
C606 C 0.14665 0.05716 0.45469 0.0
C607 C 0.13639 0.06748 0.43529 0.0
H608 H 0.15064 0.02339 0.47602 0.0
H609 H 0.05447 0.11552 0.28242 0.0
H610 H 0.3541 0.89408 0.79405 0.0
H611 H 0.37143 0.91105 0.82852 0.0
H612 H 0.43729 0.89605 0.80289 0.0
H613 H 0.42052 0.88044 0.76794 0.0
H614 H 0.42193 0.87441 0.85051 0.0
H615 H 0.42988 0.95192 0.80052 0.0
H616 H 0.41486 0.98558 0.77587 0.0
H617 H 0.37309 0.00432 0.83252 0.0
H618 H 0.38763 0.97048 0.85743 0.0
H619 H 0.50464 0.92456 0.92209 0.0
H620 H 0.48096 0.91258 0.89012 0.0
H621 H 0.43005 0.95898 0.91355 0.0
H622 H 0.45456 0.97225 0.94506 0.0
H623 H 0.43219 0.96429 0.86975 0.0
H624 H 0.42348 0.88999 0.92064 0.0
H625 H 0.43458 0.8547 0.94622 0.0
H626 H 0.47321 0.82854 0.89061 0.0
H627 H 0.46219 0.8635 0.8646 0.0
C628 C 0.37233 0.89487 0.79546 0.0
C629 C 0.38583 0.88552 0.77822 0.0
C630 C 0.38216 0.90445 0.81526 0.0
C631 C 0.40559 0.90462 0.81824 0.0
C632 C 0.41914 0.89587 0.80094 0.0
C633 C 0.40944 0.88673 0.78105 0.0
C634 C 0.41608 0.91263 0.83985 0.0
C635 C 0.42432 0.89407 0.85471 0.0
C636 C 0.41829 0.93812 0.84571 0.0
C637 C 0.40961 0.95846 0.83074 0.0
C638 C 0.41731 0.96303 0.80765 0.0
C639 C 0.40893 0.98219 0.79364 0.0
C640 C 0.39297 0.99702 0.80259 0.0
C641 C 0.38541 0.99278 0.82559 0.0
C642 C 0.39372 0.97362 0.83966 0.0
C643 C 0.48836 0.93217 0.92051 0.0
C644 C 0.48137 0.94918 0.93618 0.0
C645 C 0.4747 0.92512 0.90228 0.0
C646 C 0.45331 0.93421 0.8997 0.0
C647 C 0.44637 0.95151 0.91522 0.0
C648 C 0.46035 0.95907 0.93322 0.0
C649 C 0.43872 0.92608 0.88037 0.0
C650 C 0.42961 0.94456 0.86588 0.0
C651 C 0.43523 0.90034 0.87507 0.0
C652 C 0.44214 0.87947 0.89073 0.0
C653 C 0.43447 0.87681 0.91391 0.0
C654 C 0.44071 0.85685 0.92848 0.0
C655 C 0.45472 0.83952 0.92011 0.0
C656 C 0.4624 0.842 0.89709 0.0
C657 C 0.45607 0.86181 0.88239 0.0
H658 H 0.45955 0.82411 0.93145 0.0
H659 H 0.38651 0.01185 0.79173 0.0
H660 H 0.63691 0.45173 0.71635 0.0
H661 H 0.61929 0.46852 0.68165 0.0
H662 H 0.60152 0.39254 0.66182 0.0
H663 H 0.61965 0.37564 0.69613 0.0
H664 H 0.61721 0.42311 0.625 0.0
H665 H 0.56237 0.42606 0.68686 0.0
H666 H 0.54861 0.4377 0.7248 0.0
H667 H 0.56274 0.51648 0.70369 0.0
H668 H 0.57689 0.50528 0.66571 0.0
H669 H 0.53129 0.44349 0.54521 0.0
H670 H 0.55283 0.43033 0.57844 0.0
H671 H 0.56749 0.50831 0.59401 0.0
H672 H 0.54558 0.5217 0.56086 0.0
H673 H 0.55523 0.47903 0.6325 0.0
H674 H 0.60733 0.47569 0.56908 0.0
H675 H 0.61999 0.46347 0.53094 0.0
H676 H 0.61098 0.38511 0.55479 0.0
H677 H 0.59768 0.39677 0.59287 0.0
C678 C 0.62949 0.43858 0.70448 0.0
C679 C 0.62962 0.41231 0.70914 0.0
C680 C 0.61924 0.44822 0.68472 0.0
C681 C 0.60882 0.4318 0.66921 0.0
C682 C 0.60937 0.4056 0.67354 0.0
C683 C 0.61957 0.39595 0.6933 0.0
C684 C 0.59699 0.44185 0.6487 0.0
C685 C 0.60351 0.43513 0.62666 0.0
C686 C 0.57947 0.45806 0.65075 0.0
C687 C 0.57092 0.46483 0.67355 0.0
C688 C 0.56271 0.44586 0.69038 0.0
C689 C 0.55481 0.45238 0.71188 0.0
C690 C 0.55486 0.47781 0.71668 0.0
C691 C 0.56275 0.49679 0.69997 0.0
C692 C 0.5707 0.49037 0.67845 0.0
C693 C 0.5391 0.45792 0.55564 0.0
C694 C 0.53673 0.4837 0.55028 0.0
C695 C 0.55153 0.45033 0.57461 0.0
C696 C 0.56207 0.46833 0.5886 0.0
C697 C 0.55959 0.49408 0.58344 0.0
C698 C 0.54712 0.50171 0.56442 0.0
C699 C 0.57531 0.46013 0.60879 0.0
C700 C 0.56905 0.46717 0.63079 0.0
C701 C 0.59305 0.44419 0.60667 0.0
C702 C 0.60128 0.43711 0.58381 0.0
C703 C 0.60784 0.45582 0.56614 0.0
C704 C 0.61512 0.44899 0.54451 0.0
C705 C 0.61617 0.42351 0.54039 0.0
C706 C 0.61003 0.40482 0.55794 0.0
C707 C 0.60262 0.41153 0.57956 0.0
H708 H 0.62181 0.41824 0.52364 0.0
H709 H 0.54873 0.48282 0.73333 0.0
H710 H 0.89018 0.63978 0.18007 0.0
H711 H 0.90735 0.62062 0.14735 0.0
H712 H 0.90252 0.54855 0.18629 0.0
H713 H 0.88499 0.56753 0.21895 0.0
H714 H 0.94699 0.56592 0.16323 0.0
H715 H 0.86675 0.55345 0.14815 0.0
H716 H 0.82871 0.5677 0.14255 0.0
H717 H 0.85445 0.61805 0.08544 0.0
H718 H 0.89274 0.60438 0.09093 0.0
H719 H 0.97281 0.48783 0.07271 0.0
H720 H 0.95528 0.50571 0.10581 0.0
H721 H 0.94505 0.57306 0.06351 0.0
H722 H 0.96222 0.55529 0.03037 0.0
H723 H 0.90817 0.55806 0.08879 0.0
H724 H 0.98681 0.57255 0.10132 0.0
H725 H 0.0263 0.56273 0.10602 0.0
H726 H 0.0066 0.5149 0.1667 0.0
H727 H 0.96677 0.52374 0.16194 0.0
C728 C 0.89275 0.61984 0.18159 0.0
C729 C 0.88624 0.60508 0.20195 0.0
C730 C 0.90251 0.60895 0.16294 0.0
C731 C 0.90618 0.58321 0.16448 0.0
C732 C 0.89982 0.56845 0.18484 0.0
C733 C 0.8897 0.57924 0.20336 0.0
C734 C 0.91663 0.57173 0.14478 0.0
C735 C 0.93843 0.56376 0.14705 0.0
C736 C 0.9057 0.56993 0.12347 0.0
C737 C 0.88266 0.57808 0.12011 0.0
C738 C 0.86435 0.56774 0.13454 0.0
C739 C 0.84273 0.57567 0.13136 0.0
C740 C 0.83917 0.59382 0.11369 0.0
C741 C 0.85723 0.60402 0.09914 0.0
C742 C 0.87889 0.59617 0.10227 0.0
C743 C 0.96678 0.50641 0.07044 0.0
C744 C 0.96896 0.52013 0.04889 0.0
C745 C 0.95687 0.51666 0.08941 0.0
C746 C 0.94903 0.54082 0.08717 0.0
C747 C 0.95097 0.55439 0.06563 0.0
C748 C 0.96089 0.54421 0.04671 0.0
C749 C 0.93859 0.55193 0.10719 0.0
C750 C 0.91678 0.55997 0.10498 0.0
C751 C 0.94978 0.55433 0.12838 0.0
C752 C 0.97369 0.54858 0.1311 0.0
C753 C 0.9908 0.55965 0.11549 0.0
C754 C 0.01328 0.55431 0.1182 0.0
C755 C 0.01897 0.53825 0.13668 0.0
C756 C 0.00216 0.52734 0.15239 0.0
C757 C 0.97961 0.53246 0.14966 0.0
H758 H 0.03642 0.53432 0.13887 0.0
H759 H 0.82242 0.59993 0.11125 0.0
H760 H 0.28607 0.14133 0.12113 0.0
H761 H 0.31574 0.12451 0.09869 0.0
H762 H 0.34612 0.09833 0.16155 0.0
H763 H 0.31758 0.11693 0.18418 0.0
H764 H 0.37798 0.11517 0.1324 0.0
H765 H 0.31075 0.05844 0.12827 0.0
H766 H 0.27061 0.046 0.12077 0.0
H767 H 0.28131 0.0719 0.04952 0.0
H768 H 0.32147 0.08481 0.05667 0.0
H769 H 0.43905 0.01999 0.08754 0.0
H770 H 0.41077 0.04168 0.10775 0.0
H771 H 0.39197 0.0773 0.04313 0.0
H772 H 0.42031 0.05558 0.02262 0.0
H773 H 0.35486 0.05699 0.07168 0.0
H774 H 0.42421 0.11105 0.07739 0.0
H775 H 0.46455 0.11944 0.08649 0.0
H776 H 0.44966 0.09393 0.15724 0.0
H777 H 0.40926 0.08505 0.1485 0.0
C778 C 0.29931 0.13251 0.13027 0.0
C779 C 0.29925 0.13037 0.15456 0.0
C780 C 0.31611 0.12253 0.11735 0.0
C781 C 0.33289 0.10961 0.1284 0.0
C782 C 0.33326 0.10804 0.15261 0.0
C783 C 0.31671 0.11842 0.16555 0.0
C784 C 0.34975 0.09725 0.11479 0.0
C785 C 0.37287 0.10228 0.11929 0.0
C786 C 0.34318 0.08064 0.09744 0.0
C787 C 0.31905 0.07283 0.09307 0.0
C788 C 0.3045 0.06165 0.11104 0.0
C789 C 0.28175 0.05449 0.10685 0.0
C790 C 0.2734 0.05822 0.0847 0.0
C791 C 0.2878 0.06906 0.06668 0.0
C792 C 0.31056 0.07629 0.07079 0.0
C793 C 0.42885 0.03233 0.07756 0.0
C794 C 0.43193 0.03612 0.05347 0.0
C795 C 0.41278 0.04479 0.08917 0.0
C796 C 0.3995 0.06126 0.07693 0.0
C797 C 0.40215 0.0647 0.05284 0.0
C798 C 0.41835 0.05233 0.04119 0.0
C799 C 0.38289 0.0749 0.08939 0.0
C800 C 0.35988 0.07006 0.08469 0.0
C801 C 0.38953 0.09128 0.10683 0.0
C802 C 0.41372 0.09726 0.11225 0.0
C803 C 0.42955 0.10713 0.09487 0.0
C804 C 0.45242 0.11199 0.09996 0.0
C805 C 0.45965 0.10723 0.12243 0.0
C806 C 0.44402 0.09765 0.13986 0.0
C807 C 0.42113 0.09273 0.13485 0.0
H808 H 0.47737 0.11096 0.12633 0.0
H809 H 0.25579 0.05266 0.08148 0.0
H810 H 0.23779 0.93515 0.64963 0.0
H811 H 0.20333 0.94963 0.63323 0.0
H812 H 0.18684 0.87655 0.60665 0.0
H813 H 0.22045 0.86114 0.62425 0.0
H814 H 0.18498 0.92732 0.57459 0.0
H815 H 0.15754 0.88045 0.6461 0.0
H816 H 0.15867 0.87028 0.68806 0.0
H817 H 0.14936 0.94741 0.7008 0.0
H818 H 0.14854 0.95811 0.65887 0.0
H819 H 0.07358 0.94907 0.5398 0.0
H820 H 0.10672 0.9296 0.55456 0.0
H821 H 0.11174 0.98202 0.60854 0.0
H822 H 0.0782 0.00069 0.59452 0.0
H823 H 0.11949 0.93904 0.62626 0.0
H824 H 0.14723 0.98807 0.5581 0.0
H825 H 0.14827 0.00257 0.51692 0.0
H826 H 0.15984 0.92786 0.49811 0.0
H827 H 0.15853 0.91281 0.53924 0.0
C828 C 0.22676 0.9219 0.64064 0.0
C829 C 0.23204 0.89681 0.63852 0.0
C830 C 0.20717 0.93038 0.63104 0.0
C831 C 0.19264 0.91416 0.61873 0.0
C832 C 0.19799 0.88938 0.61598 0.0
C833 C 0.21734 0.88069 0.62598 0.0
C834 C 0.17146 0.92296 0.60943 0.0
C835 C 0.17046 0.92953 0.58574 0.0
C836 C 0.15293 0.92658 0.62417 0.0
C837 C 0.15323 0.92012 0.64936 0.0
C838 C 0.15597 0.89529 0.65785 0.0
C839 C 0.1565 0.88942 0.68162 0.0
C840 C 0.15415 0.9082 0.69709 0.0
C841 C 0.1512 0.93288 0.6888 0.0
C842 C 0.15069 0.93885 0.66504 0.0
C843 C 0.08173 0.95634 0.55486 0.0
C844 C 0.07326 0.97642 0.56598 0.0
C845 C 0.10077 0.94531 0.56322 0.0
C846 C 0.11203 0.95455 0.58251 0.0
C847 C 0.1034 0.97446 0.59369 0.0
C848 C 0.0842 0.98518 0.5856 0.0
C849 C 0.13277 0.94362 0.59119 0.0
C850 C 0.13381 0.9367 0.61489 0.0
C851 C 0.15154 0.94027 0.57647 0.0
C852 C 0.15252 0.94925 0.55174 0.0
C853 C 0.14983 0.97469 0.54518 0.0
C854 C 0.15049 0.98301 0.52184 0.0
C855 C 0.15405 0.96613 0.50489 0.0
C856 C 0.15704 0.9409 0.51126 0.0
C857 C 0.15635 0.93247 0.53458 0.0
H858 H 0.15454 0.97261 0.48683 0.0
H859 H 0.15457 0.90362 0.71549 0.0
H860 H 0.78518 0.39892 0.83451 0.0
H861 H 0.82091 0.41516 0.8512 0.0
H862 H 0.78786 0.41236 0.91834 0.0
H863 H 0.75217 0.39616 0.90177 0.0
H864 H 0.81711 0.45681 0.9084 0.0
H865 H 0.81819 0.36631 0.90656 0.0
H866 H 0.81544 0.32574 0.88792 0.0
H867 H 0.87115 0.35325 0.84191 0.0
H868 H 0.87401 0.39415 0.86007 0.0
H869 H 0.91532 0.46814 0.97607 0.0
H870 H 0.8793 0.4509 0.96077 0.0
H871 H 0.91199 0.44583 0.89433 0.0
H872 H 0.94795 0.46272 0.90949 0.0
H873 H 0.88257 0.40519 0.90433 0.0
H874 H 0.88179 0.49503 0.90395 0.0
H875 H 0.88536 0.53664 0.92072 0.0
H876 H 0.8302 0.51217 0.96841 0.0
H877 H 0.82648 0.47025 0.95206 0.0
C878 C 0.78549 0.4021 0.85275 0.0
C879 C 0.76593 0.39611 0.86686 0.0
C880 C 0.80591 0.41123 0.8623 0.0
C881 C 0.80708 0.41474 0.88607 0.0
C882 C 0.78736 0.40974 0.89999 0.0
C883 C 0.76702 0.40035 0.89052 0.0
C884 C 0.82904 0.42263 0.89662 0.0
C885 C 0.83134 0.44538 0.90778 0.0
C886 C 0.84777 0.408 0.89535 0.0
C887 C 0.84616 0.38338 0.88451 0.0
C888 C 0.82973 0.36378 0.89234 0.0
C889 C 0.82817 0.34071 0.88189 0.0
C890 C 0.84307 0.33694 0.8637 0.0
C891 C 0.8596 0.35621 0.85598 0.0
C892 C 0.86121 0.37933 0.86635 0.0
C893 C 0.91491 0.46294 0.95833 0.0
C894 C 0.93449 0.46693 0.94398 0.0
C895 C 0.89428 0.45327 0.94955 0.0
C896 C 0.89286 0.44744 0.92628 0.0
C897 C 0.91263 0.45026 0.91229 0.0
C898 C 0.93319 0.45998 0.921 0.0
C899 C 0.87069 0.43939 0.91616 0.0
C900 C 0.86834 0.41661 0.90505 0.0
C901 C 0.85202 0.45416 0.91721 0.0
C902 C 0.85402 0.47941 0.92695 0.0
C903 C 0.87053 0.49846 0.91812 0.0
C904 C 0.87256 0.52211 0.92754 0.0
C905 C 0.85807 0.52702 0.94569 0.0
C906 C 0.84145 0.50831 0.95438 0.0
C907 C 0.83934 0.48461 0.94503 0.0
H908 H 0.85969 0.54534 0.95297 0.0
H909 H 0.84184 0.31906 0.85563 0.0
H910 H 0.70864 0.58161 0.31431 0.0
H911 H 0.67239 0.56796 0.33438 0.0
H912 H 0.70553 0.56883 0.39979 0.0
H913 H 0.74184 0.582 0.37983 0.0
H914 H 0.67479 0.52742 0.39774 0.0
H915 H 0.67707 0.61751 0.38212 0.0
H916 H 0.68135 0.65733 0.35769 0.0
H917 H 0.62482 0.63093 0.3178 0.0
H918 H 0.62041 0.59077 0.34179 0.0
H919 H 0.57757 0.52557 0.47049 0.0
H920 H 0.61346 0.54142 0.4508 0.0
H921 H 0.581 0.53929 0.38507 0.0
H922 H 0.54507 0.52357 0.40457 0.0
H923 H 0.61136 0.58156 0.38754 0.0
H924 H 0.60926 0.49149 0.40229 0.0
H925 H 0.60417 0.45174 0.42679 0.0
H926 H 0.65979 0.47783 0.46803 0.0
H927 H 0.66501 0.51793 0.44394 0.0
C928 C 0.70824 0.5785 0.33293 0.0
C929 C 0.72804 0.58304 0.34551 0.0
C930 C 0.68751 0.57091 0.34439 0.0
C931 C 0.68624 0.56772 0.3686 0.0
C932 C 0.70612 0.5713 0.38112 0.0
C933 C 0.72681 0.57898 0.3697 0.0
C934 C 0.6641 0.56144 0.38097 0.0
C935 C 0.66102 0.53941 0.39572 0.0
C936 C 0.646 0.57686 0.37801 0.0
C937 C 0.64857 0.60102 0.3636 0.0
C938 C 0.66567 0.6201 0.36802 0.0
C939 C 0.6681 0.64275 0.35427 0.0
C940 C 0.65341 0.64663 0.33616 0.0
C941 C 0.63621 0.62788 0.3318 0.0
C942 C 0.63373 0.60518 0.34548 0.0
C943 C 0.57797 0.52893 0.45189 0.0
C944 C 0.55854 0.52311 0.43905 0.0
C945 C 0.5985 0.53785 0.44066 0.0
C946 C 0.59992 0.54113 0.41647 0.0
C947 C 0.58027 0.53678 0.40375 0.0
C948 C 0.55977 0.52773 0.41493 0.0
C949 C 0.6221 0.5476 0.4043 0.0
C950 C 0.62517 0.56961 0.38957 0.0
C951 C 0.64016 0.53212 0.40721 0.0
C952 C 0.63738 0.50782 0.42144 0.0
C953 C 0.62032 0.48882 0.41667 0.0
C954 C 0.61741 0.46622 0.43047 0.0
C955 C 0.6316 0.46229 0.449 0.0
C956 C 0.64879 0.48091 0.45369 0.0
C957 C 0.65174 0.50358 0.43995 0.0
H958 H 0.62931 0.44479 0.45969 0.0
H959 H 0.65531 0.66418 0.32554 0.0
H960 H 0.1862 0.3096 0.13313 0.0
H961 H 0.16303 0.33998 0.11416 0.0
H962 H 0.10234 0.29533 0.14012 0.0
H963 H 0.12539 0.2643 0.15833 0.0
H964 H 0.09824 0.3099 0.09603 0.0
H965 H 0.12061 0.35056 0.16399 0.0
H966 H 0.147 0.36727 0.19281 0.0
H967 H 0.18108 0.41871 0.14068 0.0
H968 H 0.15509 0.40206 0.11145 0.0
H969 H 0.02807 0.40944 0.06376 0.0
H970 H 0.04694 0.37739 0.08643 0.0
H971 H 0.11197 0.41146 0.06015 0.0
H972 H 0.09342 0.44334 0.03757 0.0
H973 H 0.11087 0.4018 0.10734 0.0
H974 H 0.08961 0.35842 0.03912 0.0
H975 H 0.06277 0.34162 0.01072 0.0
H976 H 0.02566 0.29537 0.06458 0.0
H977 H 0.05213 0.31217 0.09336 0.0
C978 C 0.16793 0.30616 0.13469 0.0
C979 C 0.15766 0.28456 0.1473 0.0
C980 C 0.1547 0.32368 0.12405 0.0
C981 C 0.13095 0.3201 0.126 0.0
C982 C 0.12064 0.29853 0.1385 0.0
C983 C 0.13385 0.28095 0.14908 0.0
C984 C 0.11692 0.3386 0.11452 0.0
C985 C 0.10072 0.32995 0.09882 0.0
C986 C 0.12035 0.36478 0.11794 0.0
C987 C 0.13601 0.3749 0.13548 0.0
C988 C 0.13384 0.3653 0.15862 0.0
C989 C 0.14871 0.37479 0.17505 0.0
C990 C 0.16574 0.394 0.16857 0.0
C991 C 0.1679 0.40381 0.14567 0.0
C992 C 0.15308 0.39437 0.12917 0.0
C993 C 0.04638 0.41 0.06276 0.0
C994 C 0.05925 0.42889 0.04885 0.0
C995 C 0.05711 0.3917 0.07568 0.0
C996 C 0.08083 0.39209 0.0749 0.0
C997 C 0.09365 0.4109 0.06103 0.0
C998 C 0.08298 0.42904 0.04805 0.0
C999 C 0.09255 0.37312 0.08862 0.0
C1000 C 0.10827 0.38171 0.10477 0.0
C1001 C 0.08858 0.3469 0.08571 0.0
C1002 C 0.07269 0.33678 0.06842 0.0
C1003 C 0.07561 0.34484 0.04493 0.0
C1004 C 0.06049 0.33528 0.02876 0.0
C1005 C 0.04248 0.3175 0.03585 0.0
C1006 C 0.03959 0.30918 0.05912 0.0
C1007 C 0.05465 0.31871 0.07537 0.0
H1008 H 0.03079 0.31012 0.02331 0.0
H1009 H 0.17723 0.40132 0.18131 0.0
H1010 H 0.6127 0.25063 0.89601 0.0
H1011 H 0.59562 0.21188 0.91651 0.0
H1012 H 0.56674 0.18704 0.85342 0.0
H1013 H 0.58498 0.22488 0.83225 0.0
H1014 H 0.53696 0.18673 0.90128 0.0
H1015 H 0.6029 0.15734 0.86227 0.0
H1016 H 0.64372 0.16037 0.85215 0.0
H1017 H 0.65934 0.15461 0.92406 0.0
H1018 H 0.61858 0.15195 0.9346 0.0
H1019 H 0.49526 0.06155 0.93954 0.0
H1020 H 0.51121 0.09984 0.91727 0.0
H1021 H 0.56778 0.1057 0.96289 0.0
H1022 H 0.55253 0.06661 0.98425 0.0
H1023 H 0.58356 0.11651 0.92292 0.0
H1024 H 0.52091 0.14474 0.96389 0.0
H1025 H 0.48124 0.14476 0.97758 0.0
H1026 H 0.46024 0.15649 0.90771 0.0
H1027 H 0.49976 0.15619 0.89358 0.0
C1028 C 0.60309 0.23684 0.88627 0.0
C1029 C 0.60047 0.24104 0.86228 0.0
C1030 C 0.59312 0.2148 0.89814 0.0
C1031 C 0.57996 0.1967 0.88644 0.0
C1032 C 0.57678 0.20092 0.86273 0.0
C1033 C 0.58713 0.22272 0.8507 0.0
C1034 C 0.56992 0.17311 0.899 0.0
C1035 C 0.54697 0.17114 0.90577 0.0
C1036 C 0.58328 0.15335 0.90554 0.0
C1037 C 0.60773 0.15476 0.89921 0.0
C1038 C 0.61505 0.15699 0.87592 0.0
C1039 C 0.63817 0.15858 0.87011 0.0
C1040 C 0.65412 0.15777 0.88745 0.0
C1041 C 0.64697 0.15528 0.91065 0.0
C1042 C 0.62387 0.15372 0.91654 0.0
C1043 C 0.51107 0.07108 0.9448 0.0
C1044 C 0.52264 0.06114 0.96363 0.0
C1045 C 0.52013 0.09309 0.93216 0.0
C1046 C 0.54057 0.10609 0.93856 0.0
C1047 C 0.55205 0.09612 0.95748 0.0
C1048 C 0.54329 0.07379 0.96974 0.0
C1049 C 0.55027 0.12973 0.92534 0.0
C1050 C 0.5733 0.13188 0.91847 0.0
C1051 C 0.53704 0.14994 0.91923 0.0
C1052 C 0.51326 0.15019 0.92766 0.0
C1053 C 0.50781 0.14714 0.95143 0.0
C1054 C 0.48536 0.14723 0.95927 0.0
C1055 C 0.46822 0.15056 0.94352 0.0
C1056 C 0.47352 0.15387 0.91989 0.0
C1057 C 0.49595 0.15377 0.91196 0.0
H1058 H 0.45085 0.15062 0.94963 0.0
H1059 H 0.67201 0.15899 0.88292 0.0
H1060 H 0.88372 0.72425 0.39647 0.0
H1061 H 0.90371 0.75889 0.41581 0.0
H1062 H 0.91071 0.80391 0.35121 0.0
H1063 H 0.89099 0.76899 0.33166 0.0
H1064 H 0.94854 0.81046 0.37562 0.0
H1065 H 0.869 0.81247 0.39037 0.0
H1066 H 0.83036 0.79511 0.4028 0.0
H1067 H 0.85331 0.77846 0.47122 0.0
H1068 H 0.89219 0.79539 0.45911 0.0
H1069 H 0.96365 0.93145 0.42311 0.0
H1070 H 0.95115 0.89411 0.40267 0.0
H1071 H 0.94722 0.8485 0.46693 0.0
H1072 H 0.95957 0.88585 0.48761 0.0
H1073 H 0.90872 0.842 0.4426 0.0
H1074 H 0.98872 0.84256 0.42708 0.0
H1075 H 0.02664 0.86137 0.41367 0.0
H1076 H 0.00188 0.87533 0.34555 0.0
H1077 H 0.9637 0.85691 0.35863 0.0
C1078 C 0.88959 0.74152 0.38639 0.0
C1079 C 0.88557 0.7441 0.36264 0.0
C1080 C 0.901 0.76128 0.39744 0.0
C1081 C 0.9083 0.78416 0.38504 0.0
C1082 C 0.90516 0.78643 0.36112 0.0
C1083 C 0.8939 0.76652 0.34998 0.0
C1084 C 0.91829 0.80602 0.39729 0.0
C1085 C 0.93975 0.81755 0.39011 0.0
C1086 C 0.90694 0.81504 0.41639 0.0
C1087 C 0.88355 0.80497 0.42377 0.0
C1088 C 0.86584 0.80493 0.40803 0.0
C1089 C 0.84389 0.7952 0.41502 0.0
C1090 C 0.83939 0.78563 0.43777 0.0
C1091 C 0.85683 0.78585 0.45359 0.0
C1092 C 0.87882 0.79552 0.44668 0.0
C1093 C 0.96038 0.91344 0.4329 0.0
C1094 C 0.96253 0.91164 0.45702 0.0
C1095 C 0.95334 0.89208 0.42114 0.0
C1096 C 0.9484 0.86851 0.43326 0.0
C1097 C 0.95099 0.86653 0.45726 0.0
C1098 C 0.95809 0.88788 0.46904 0.0
C1099 C 0.93906 0.84632 0.42111 0.0
C1100 C 0.91761 0.83481 0.42823 0.0
C1101 C 0.95033 0.83757 0.40183 0.0
C1102 C 0.9733 0.84855 0.3939 0.0
C1103 C 0.99131 0.84982 0.40929 0.0
C1104 C 0.01286 0.86038 0.40174 0.0
C1105 C 0.01666 0.86959 0.37879 0.0
C1106 C 0.99891 0.8682 0.36333 0.0
C1107 C 0.97732 0.85768 0.37079 0.0
H1108 H 0.03335 0.87776 0.37298 0.0
H1109 H 0.82239 0.7781 0.44315 0.0
H1110 H 0.37148 0.75977 0.58294 0.0
H1111 H 0.39105 0.72688 0.56552 0.0
H1112 H 0.40267 0.6932 0.63318 0.0
H1113 H 0.38272 0.72578 0.6508 0.0
H1114 H 0.44073 0.69637 0.60511 0.0
H1115 H 0.36264 0.66593 0.60117 0.0
H1116 H 0.32242 0.66817 0.59204 0.0
H1117 H 0.34039 0.68158 0.52 0.0
H1118 H 0.38078 0.67979 0.52874 0.0
H1119 H 0.47322 0.57987 0.56414 0.0
H1120 H 0.45519 0.61222 0.58426 0.0
H1121 H 0.4394 0.64844 0.51882 0.0
H1122 H 0.45711 0.61611 0.49861 0.0
H1123 H 0.40306 0.64265 0.54759 0.0
H1124 H 0.48149 0.67412 0.55195 0.0
H1125 H 0.52161 0.67169 0.56142 0.0
H1126 H 0.50283 0.65578 0.63304 0.0
H1127 H 0.46254 0.65778 0.62395 0.0
C1128 C 0.37793 0.74521 0.59415 0.0
C1129 C 0.37538 0.7454 0.6183 0.0
C1130 C 0.38921 0.72647 0.58415 0.0
C1131 C 0.39816 0.70746 0.59805 0.0
C1132 C 0.39594 0.70773 0.62214 0.0
C1133 C 0.38458 0.72643 0.63217 0.0
C1134 C 0.4098 0.68731 0.58734 0.0
C1135 C 0.4324 0.68436 0.59277 0.0
C1136 C 0.39905 0.67193 0.57099 0.0
C1137 C 0.37476 0.67297 0.56564 0.0
C1138 C 0.35804 0.66957 0.5834 0.0
C1139 C 0.33521 0.67072 0.57829 0.0
C1140 C 0.32886 0.67508 0.55546 0.0
C1141 C 0.34534 0.67824 0.53768 0.0
C1142 C 0.3682 0.67713 0.5427 0.0
C1143 C 0.46614 0.59488 0.55402 0.0
C1144 C 0.46663 0.59539 0.52974 0.0
C1145 C 0.45586 0.61339 0.56555 0.0
C1146 C 0.44601 0.63283 0.55304 0.0
C1147 C 0.44683 0.63359 0.52883 0.0
C1148 C 0.45706 0.61512 0.5173 0.0
C1149 C 0.43413 0.65193 0.56507 0.0
C1150 C 0.4114 0.65462 0.55994 0.0
C1151 C 0.44477 0.667 0.58173 0.0
C1152 C 0.46898 0.66583 0.58723 0.0
C1153 C 0.4859 0.66989 0.56969 0.0
C1154 C 0.50867 0.66864 0.575 0.0
C1155 C 0.51476 0.66351 0.59781 0.0
C1156 C 0.49809 0.65971 0.61537 0.0
C1157 C 0.47528 0.66092 0.61016 0.0
H1158 H 0.53241 0.66255 0.60188 0.0
H1159 H 0.31117 0.67596 0.55154 0.0
H1160 H 0.80904 0.88481 0.67086 0.0
H1161 H 0.83121 0.9065 0.63801 0.0
H1162 H 0.8923 0.90302 0.67669 0.0
H1163 H 0.87034 0.88161 0.70944 0.0
H1164 H 0.88857 0.95029 0.65464 0.0
H1165 H 0.88089 0.86191 0.63728 0.0
H1166 H 0.85934 0.82129 0.63037 0.0
H1167 H 0.82638 0.85692 0.57366 0.0
H1168 H 0.84752 0.89786 0.58045 0.0
H1169 H 0.97917 0.97045 0.57424 0.0
H1170 H 0.95129 0.95319 0.60386 0.0
H1171 H 0.89863 0.9532 0.5537 0.0
H1172 H 0.92658 0.96984 0.5237 0.0
H1173 H 0.894 0.91071 0.57973 0.0
H1174 H 0.90389 0.99819 0.59429 0.0
H1175 H 0.92507 0.03912 0.60083 0.0
H1176 H 0.9527 0.00652 0.66229 0.0
H1177 H 0.93194 0.96528 0.65595 0.0
C1178 C 0.82718 0.88882 0.67232 0.0
C1179 C 0.83803 0.88138 0.69258 0.0
C1180 C 0.8398 0.90107 0.65357 0.0
C1181 C 0.86337 0.9062 0.65494 0.0
C1182 C 0.87412 0.8992 0.67531 0.0
C1183 C 0.86159 0.8868 0.69391 0.0
C1184 C 0.87713 0.9186 0.63517 0.0
C1185 C 0.88988 0.94162 0.63828 0.0
C1186 C 0.87823 0.9076 0.61366 0.0
C1187 C 0.86557 0.883 0.60956 0.0
C1188 C 0.86889 0.86113 0.62348 0.0
C1189 C 0.85679 0.83804 0.61955 0.0
C1190 C 0.84145 0.83654 0.60164 0.0
C1191 C 0.83823 0.85812 0.58756 0.0
C1192 C 0.85027 0.88127 0.59143 0.0
C1193 C 0.96166 0.96686 0.56947 0.0
C1194 C 0.95509 0.97166 0.54661 0.0
C1195 C 0.9457 0.9571 0.58647 0.0
C1196 C 0.92279 0.95235 0.58109 0.0
C1197 C 0.9162 0.95684 0.55825 0.0
C1198 C 0.9322 0.96638 0.54115 0.0
C1199 C 0.90588 0.94223 0.59931 0.0
C1200 C 0.8925 0.91965 0.59593 0.0
C1201 C 0.90407 0.95375 0.62055 0.0
C1202 C 0.91646 0.97859 0.62454 0.0
C1203 C 0.91459 0.9997 0.60912 0.0
C1204 C 0.92651 0.02296 0.6128 0.0
C1205 C 0.94025 0.02541 0.63194 0.0
C1206 C 0.94206 0.0046 0.64747 0.0
C1207 C 0.93019 0.98128 0.64386 0.0
H1208 H 0.94948 0.04343 0.63476 0.0
H1209 H 0.8321 0.81864 0.59862 0.0
H1210 H 0.64349 0.11193 0.20179 0.0
H1211 H 0.62585 0.09438 0.16797 0.0
H1212 H 0.56057 0.11282 0.19261 0.0
H1213 H 0.57772 0.12855 0.22726 0.0
H1214 H 0.55453 0.07054 0.17483 0.0
H1215 H 0.594 0.15027 0.14929 0.0
H1216 H 0.62673 0.18236 0.14367 0.0
H1217 H 0.6619 0.13171 0.10416 0.0
H1218 H 0.62947 0.09919 0.10979 0.0
H1219 H 0.524 0.09322 0.04702 0.0
H1220 H 0.54477 0.10648 0.08074 0.0
H1221 H 0.54949 0.02836 0.10322 0.0
H1222 H 0.52847 0.01487 0.06953 0.0
H1223 H 0.58593 0.10029 0.09697 0.0
H1224 H 0.54217 0.02312 0.1624 0.0
H1225 H 0.50576 0.99665 0.16738 0.0
H1226 H 0.47299 0.05185 0.1264 0.0
H1227 H 0.50909 0.07883 0.12153 0.0
C1228 C 0.62532 0.11186 0.20029 0.0
C1229 C 0.61214 0.12199 0.21729 0.0
C1230 C 0.61527 0.1021 0.1807 0.0
C1231 C 0.59189 0.10271 0.1774 0.0
C1232 C 0.57864 0.11221 0.1946 0.0
C1233 C 0.58859 0.12158 0.21433 0.0
C1234 C 0.58121 0.09394 0.15592 0.0
C1235 C 0.56152 0.07698 0.15784 0.0
C1236 C 0.5899 0.10269 0.13362 0.0
C1237 C 0.60941 0.12221 0.13017 0.0
C1238 C 0.60878 0.14592 0.13954 0.0
C1239 C 0.62727 0.16419 0.13634 0.0
C1240 C 0.64641 0.15905 0.12362 0.0
C1241 C 0.64708 0.13565 0.11404 0.0
C1242 C 0.62865 0.11729 0.11722 0.0
C1243 C 0.5296 0.07882 0.05902 0.0
C1244 C 0.52445 0.05297 0.05566 0.0
C1245 C 0.54156 0.08646 0.07825 0.0
C1246 C 0.5485 0.06844 0.09462 0.0
C1247 C 0.54407 0.0426 0.09093 0.0
C1248 C 0.53214 0.03492 0.07163 0.0
C1249 C 0.5595 0.07679 0.11599 0.0
C1250 C 0.57917 0.09366 0.11401 0.0
C1251 C 0.5503 0.06874 0.1382 0.0
C1252 C 0.52842 0.05283 0.14139 0.0
C1253 C 0.52718 0.02964 0.15454 0.0
C1254 C 0.50659 0.01456 0.15735 0.0
C1255 C 0.48709 0.02254 0.14716 0.0
C1256 C 0.48811 0.04567 0.13423 0.0
C1257 C 0.50864 0.06085 0.13143 0.0
H1258 H 0.47119 0.01081 0.14931 0.0
H1259 H 0.66071 0.17322 0.12116 0.0
H1260 H 0.34116 0.59741 0.31481 0.0
H1261 H 0.36104 0.58066 0.34832 0.0
H1262 H 0.41654 0.56558 0.30358 0.0
H1263 H 0.39704 0.58301 0.27012 0.0
H1264 H 0.39535 0.52369 0.34119 0.0
H1265 H 0.42939 0.61086 0.3276 0.0
H1266 H 0.42692 0.65686 0.32197 0.0
H1267 H 0.39199 0.65654 0.38759 0.0
H1268 H 0.39394 0.61043 0.39342 0.0
H1269 H 0.47764 0.49453 0.42301 0.0
H1270 H 0.45671 0.50883 0.38961 0.0
H1271 H 0.42317 0.55901 0.43193 0.0
H1272 H 0.4455 0.54615 0.46477 0.0
H1273 H 0.43193 0.58297 0.39491 0.0
H1274 H 0.39729 0.49895 0.4112 0.0
H1275 H 0.39534 0.45262 0.41856 0.0
H1276 H 0.42509 0.44552 0.35144 0.0
H1277 H 0.42749 0.49185 0.34378 0.0
C1278 C 0.35755 0.59039 0.31216 0.0
C1279 C 0.36762 0.59151 0.28994 0.0
C1280 C 0.36887 0.58088 0.33126 0.0
C1281 C 0.39021 0.57188 0.32836 0.0
C1282 C 0.40005 0.5724 0.30612 0.0
C1283 C 0.38898 0.58243 0.28709 0.0
C1284 C 0.40257 0.56264 0.34865 0.0
C1285 C 0.4036 0.53655 0.35288 0.0
C1286 C 0.41255 0.57945 0.36424 0.0
C1287 C 0.41158 0.60717 0.36081 0.0
C1288 C 0.42098 0.62056 0.34071 0.0
C1289 C 0.41972 0.64666 0.33751 0.0
C1290 C 0.40924 0.65961 0.35438 0.0
C1291 C 0.40007 0.64648 0.37452 0.0
C1292 C 0.40126 0.62037 0.37778 0.0
C1293 C 0.46574 0.50856 0.42514 0.0
C1294 C 0.46322 0.51928 0.44645 0.0
C1295 C 0.45358 0.5166 0.40606 0.0
C1296 C 0.43788 0.53474 0.40814 0.0
C1297 C 0.43516 0.5451 0.42965 0.0
C1298 C 0.44788 0.53768 0.44849 0.0
C1299 C 0.42492 0.54364 0.38783 0.0
C1300 C 0.42371 0.56981 0.38347 0.0
C1301 C 0.41422 0.52677 0.37249 0.0
C1302 C 0.41276 0.4989 0.37701 0.0
C1303 C 0.40356 0.48752 0.39807 0.0
C1304 C 0.40235 0.46126 0.40228 0.0
C1305 C 0.41014 0.44615 0.3855 0.0
C1306 C 0.41909 0.45726 0.36444 0.0
C1307 C 0.42036 0.48351 0.36014 0.0
H1308 H 0.4092 0.42582 0.3888 0.0
H1309 H 0.40828 0.67981 0.35187 0.0
H1310 H 0.1242 0.35454 0.82485 0.0
H1311 H 0.10778 0.37513 0.85697 0.0
H1312 H 0.10913 0.44476 0.81437 0.0
H1313 H 0.12666 0.42443 0.78263 0.0
H1314 H 0.11979 0.45589 0.85526 0.0
H1315 H 0.05945 0.40266 0.82531 0.0
H1316 H 0.04001 0.36306 0.81267 0.0
H1317 H 0.04383 0.32817 0.88099 0.0
H1318 H 0.06358 0.36747 0.89396 0.0
H1319 H 0.03323 0.50756 0.92274 0.0
H1320 H 0.05448 0.49007 0.89175 0.0
H1321 H 0.0698 0.42818 0.93851 0.0
H1322 H 0.04899 0.44561 0.96964 0.0
H1323 H 0.05039 0.41407 0.89554 0.0
H1324 H 0.11049 0.47001 0.92459 0.0
H1325 H 0.12805 0.51115 0.93579 0.0
H1326 H 0.12166 0.54299 0.86672 0.0
H1327 H 0.10375 0.5021 0.85519 0.0
C1328 C 0.12104 0.37427 0.82246 0.0
C1329 C 0.12649 0.38791 0.80132 0.0
C1330 C 0.11156 0.386 0.84074 0.0
C1331 C 0.10668 0.41138 0.83796 0.0
C1332 C 0.11264 0.42517 0.81695 0.0
C1333 C 0.1226 0.41357 0.79882 0.0
C1334 C 0.09509 0.42338 0.85683 0.0
C1335 C 0.10445 0.44686 0.86382 0.0
C1336 C 0.07516 0.41157 0.86826 0.0
C1337 C 0.06318 0.38794 0.86055 0.0
C1338 C 0.05628 0.38649 0.8376 0.0
C1339 C 0.04519 0.3641 0.83038 0.0
C1340 C 0.04074 0.34309 0.84601 0.0
C1341 C 0.04731 0.34445 0.8689 0.0
C1342 C 0.05844 0.36678 0.8762 0.0
C1343 C 0.04131 0.49037 0.92649 0.0
C1344 C 0.03938 0.47797 0.94866 0.0
C1345 C 0.05347 0.48045 0.90879 0.0
C1346 C 0.06368 0.45788 0.91291 0.0
C1347 C 0.06202 0.44564 0.93504 0.0
C1348 C 0.05018 0.4557 0.95281 0.0
C1349 C 0.0752 0.44633 0.89391 0.0
C1350 C 0.06574 0.423 0.88689 0.0
C1351 C 0.09473 0.4585 0.8822 0.0
C1352 C 0.10556 0.48306 0.8891 0.0
C1353 C 0.11263 0.48584 0.91184 0.0
C1354 C 0.12269 0.50911 0.91824 0.0
C1355 C 0.12591 0.52969 0.90199 0.0
C1356 C 0.11913 0.52704 0.8793 0.0
C1357 C 0.10904 0.50382 0.87282 0.0
H1358 H 0.1337 0.54769 0.90697 0.0
H1359 H 0.03215 0.32578 0.84039 0.0
H1360 H 0.69061 0.82922 0.87752 0.0
H1361 H 0.66304 0.85161 0.898 0.0
H1362 H 0.69326 0.92272 0.86654 0.0
H1363 H 0.72178 0.90064 0.84714 0.0
H1364 H 0.68472 0.9278 0.90997 0.0
H1365 H 0.64222 0.89319 0.84833 0.0
H1366 H 0.62663 0.85998 0.82371 0.0
H1367 H 0.59125 0.82061 0.88248 0.0
H1368 H 0.60688 0.85342 0.90752 0.0
H1369 H 0.59146 0.00032 0.93145 0.0
H1370 H 0.62077 0.97784 0.91351 0.0
H1371 H 0.59713 0.90969 0.95437 0.0
H1372 H 0.56784 0.93203 0.97252 0.0
H1373 H 0.60216 0.90305 0.90683 0.0
H1374 H 0.64486 0.93989 0.96795 0.0
H1375 H 0.65993 0.97473 0.99104 0.0
H1376 H 0.69431 0.01202 0.93076 0.0
H1377 H 0.67917 0.97756 0.90723 0.0
C1378 C 0.69156 0.84964 0.87511 0.0
C1379 C 0.70843 0.8631 0.86062 0.0
C1380 C 0.67558 0.8624 0.88663 0.0
C1381 C 0.67586 0.88883 0.88356 0.0
C1382 C 0.69265 0.90231 0.8691 0.0
C1383 C 0.70879 0.8896 0.85779 0.0
C1384 C 0.65891 0.90248 0.89573 0.0
C1385 C 0.66666 0.92258 0.90901 0.0
C1386 C 0.63534 0.8954 0.89485 0.0
C1387 C 0.62591 0.87563 0.87984 0.0
C1388 C 0.63126 0.87734 0.85604 0.0
C1389 C 0.62239 0.85861 0.842 0.0
C1390 C 0.60801 0.83816 0.85154 0.0
C1391 C 0.60242 0.83644 0.87513 0.0
C1392 C 0.61127 0.85511 0.88925 0.0
C1393 C 0.59263 0.98061 0.93678 0.0
C1394 C 0.57736 0.96794 0.9534 0.0
C1395 C 0.60941 0.96783 0.92655 0.0
C1396 C 0.6111 0.94216 0.93269 0.0
C1397 C 0.59605 0.92952 0.94944 0.0
C1398 C 0.57943 0.94235 0.95986 0.0
C1399 C 0.62803 0.92825 0.92095 0.0
C1400 C 0.62024 0.90816 0.90776 0.0
C1401 C 0.65151 0.93555 0.92165 0.0
C1402 C 0.6607 0.95625 0.93579 0.0
C1403 C 0.65547 0.95562 0.95958 0.0
C1404 C 0.66406 0.97528 0.97275 0.0
C1405 C 0.67802 0.99561 0.96236 0.0
C1406 C 0.68347 0.99628 0.93878 0.0
C1407 C 0.67491 0.97667 0.92552 0.0
H1408 H 0.68465 0.01081 0.97259 0.0
H1409 H 0.60116 0.82368 0.84064 0.0
H1410 H 0.77902 0.13942 0.3694 0.0
H1411 H 0.8116 0.12275 0.38764 0.0
H1412 H 0.7924 0.04952 0.36214 0.0
H1413 H 0.75875 0.06547 0.34546 0.0
H1414 H 0.80532 0.04258 0.4033 0.0
H1415 H 0.83727 0.09333 0.33738 0.0
H1416 H 0.84497 0.13189 0.31156 0.0
H1417 H 0.87604 0.17113 0.3669 0.0
H1418 H 0.86827 0.13288 0.39314 0.0
H1419 H 0.9112 0.99059 0.4077 0.0
H1420 H 0.87854 0.01107 0.39346 0.0
H1421 H 0.89213 0.07065 0.43978 0.0
H1422 H 0.92481 0.04994 0.45455 0.0
H1423 H 0.88263 0.0862 0.39073 0.0
H1424 H 0.85174 0.03216 0.45564 0.0
H1425 H 0.84529 0.99174 0.47902 0.0
H1426 H 0.81331 0.95663 0.42194 0.0
H1427 H 0.81989 0.99676 0.39809 0.0
C1428 C 0.78144 0.11965 0.36793 0.0
C1429 C 0.76608 0.10386 0.35584 0.0
C1430 C 0.80038 0.11022 0.37811 0.0
C1431 C 0.8048 0.08494 0.37597 0.0
C1432 C 0.78949 0.06913 0.364 0.0
C1433 C 0.77033 0.07841 0.35416 0.0
C1434 C 0.82515 0.07479 0.38644 0.0
C1435 C 0.82221 0.05206 0.40029 0.0
C1436 C 0.84726 0.08731 0.38302 0.0
C1437 C 0.85196 0.11033 0.36728 0.0
C1438 C 0.84559 0.11024 0.34409 0.0
C1439 C 0.84999 0.13203 0.32937 0.0
C1440 C 0.86093 0.15397 0.33761 0.0
C1441 C 0.86754 0.15414 0.36056 0.0
C1442 C 0.86315 0.13241 0.37536 0.0
C1443 C 0.90735 0.0081 0.41485 0.0
C1444 C 0.92059 0.01863 0.4323 0.0
C1445 C 0.88863 0.01973 0.40671 0.0
C1446 C 0.88291 0.04229 0.41564 0.0
C1447 C 0.89632 0.05322 0.4327 0.0
C1448 C 0.9149 0.04134 0.44116 0.0
C1449 C 0.86265 0.05404 0.40721 0.0
C1450 C 0.86564 0.07697 0.39378 0.0
C1451 C 0.84065 0.04151 0.41065 0.0
C1452 C 0.83649 0.01742 0.42502 0.0
C1453 C 0.8435 0.01577 0.44801 0.0
C1454 C 0.83979 0.99292 0.46136 0.0
C1455 C 0.82894 0.97161 0.45196 0.0
C1456 C 0.82173 0.97314 0.4292 0.0
C1457 C 0.82542 0.99594 0.41577 0.0
H1458 H 0.82609 0.95394 0.46232 0.0
H1459 H 0.86432 0.17082 0.32619 0.0
H1460 H 0.22582 0.57616 0.15346 0.0
H1461 H 0.19003 0.55811 0.13844 0.0
H1462 H 0.17067 0.6332 0.12193 0.0
H1463 H 0.20604 0.65137 0.13758 0.0
H1464 H 0.13476 0.60247 0.13891 0.0
H1465 H 0.19348 0.59955 0.08055 0.0
H1466 H 0.23015 0.58826 0.06537 0.0
H1467 H 0.209 0.50942 0.08023 0.0
H1468 H 0.17231 0.52028 0.09579 0.0
H1469 H 0.07402 0.54292 0.03325 0.0
H1470 H 0.10671 0.56475 0.0511 0.0
H1471 H 0.08098 0.53518 0.11838 0.0
H1472 H 0.04826 0.5136 0.10074 0.0
H1473 H 0.13924 0.54486 0.07519 0.0
H1474 H 0.09769 0.57475 0.15865 0.0
H1475 H 0.06082 0.58732 0.17213 0.0
H1476 H 0.0476 0.61603 0.10348 0.0
H1477 H 0.08441 0.60374 0.08963 0.0
C1478 C 0.21378 0.58885 0.14701 0.0
C1479 C 0.21894 0.61524 0.14653 0.0
C1480 C 0.1934 0.57849 0.13824 0.0
C1481 C 0.17778 0.59429 0.12871 0.0
C1482 C 0.18247 0.62061 0.12908 0.0
C1483 C 0.20282 0.63097 0.13784 0.0
C1484 C 0.15706 0.58351 0.11743 0.0
C1485 C 0.13574 0.58983 0.12502 0.0
C1486 C 0.15828 0.56731 0.09905 0.0
C1487 C 0.18024 0.56074 0.08952 0.0
C1488 C 0.19671 0.57982 0.08071 0.0
C1489 C 0.21749 0.57349 0.07202 0.0
C1490 C 0.22192 0.54814 0.07188 0.0
C1491 C 0.20556 0.52905 0.08037 0.0
C1492 C 0.18476 0.53528 0.08911 0.0
C1493 C 0.07515 0.54137 0.05187 0.0
C1494 C 0.05846 0.52657 0.06556 0.0
C1495 C 0.09391 0.55376 0.06205 0.0
C1496 C 0.0963 0.55173 0.08611 0.0
C1497 C 0.07941 0.53737 0.09983 0.0
C1498 C 0.06068 0.52499 0.08968 0.0
C1499 C 0.11692 0.56365 0.09676 0.0
C1500 C 0.13823 0.55748 0.0891 0.0
C1501 C 0.11568 0.58021 0.11485 0.0
C1502 C 0.09374 0.5882 0.1231 0.0
C1503 C 0.08696 0.58388 0.14647 0.0
C1504 C 0.06606 0.59091 0.15416 0.0
C1505 C 0.05188 0.60247 0.13867 0.0
C1506 C 0.0586 0.60707 0.11546 0.0
C1507 C 0.07944 0.6 0.10767 0.0
H1508 H 0.03568 0.60782 0.14464 0.0
H1509 H 0.23802 0.54328 0.06515 0.0
H1510 H 0.27338 0.39396 0.62694 0.0
H1511 H 0.30892 0.40964 0.60677 0.0
H1512 H 0.34016 0.42223 0.67201 0.0
H1513 H 0.30462 0.40633 0.69239 0.0
H1514 H 0.34992 0.46209 0.64089 0.0
H1515 H 0.3518 0.37207 0.64219 0.0
H1516 H 0.33698 0.32822 0.63601 0.0
H1517 H 0.33362 0.34704 0.56325 0.0
H1518 H 0.34812 0.39113 0.56904 0.0
H1519 H 0.46177 0.4853 0.59659 0.0
H1520 H 0.42859 0.46454 0.61796 0.0
H1521 H 0.39529 0.45119 0.55392 0.0
H1522 H 0.4286 0.47168 0.53232 0.0
H1523 H 0.38727 0.41083 0.58523 0.0
H1524 H 0.38371 0.50079 0.58381 0.0
H1525 H 0.39817 0.54488 0.58952 0.0
H1526 H 0.40409 0.52639 0.66205 0.0
H1527 H 0.38999 0.48206 0.65671 0.0
C1528 C 0.28787 0.39981 0.63703 0.0
C1529 C 0.28622 0.39873 0.66129 0.0
C1530 C 0.30816 0.4088 0.62546 0.0
C1531 C 0.32727 0.41676 0.6379 0.0
C1532 C 0.32561 0.41612 0.66209 0.0
C1533 C 0.30528 0.40713 0.6737 0.0
C1534 C 0.34885 0.42613 0.62558 0.0
C1535 C 0.35829 0.45073 0.62901 0.0
C1536 C 0.35944 0.41151 0.60965 0.0
C1537 C 0.35086 0.38497 0.60609 0.0
C1538 C 0.34774 0.36692 0.6249 0.0
C1539 C 0.33942 0.34201 0.62146 0.0
C1540 C 0.33431 0.33487 0.59926 0.0
C1541 C 0.33756 0.35261 0.58044 0.0
C1542 C 0.34585 0.37755 0.58379 0.0
C1543 C 0.4475 0.47772 0.58701 0.0
C1544 C 0.44771 0.48039 0.56275 0.0
C1545 C 0.42852 0.46592 0.59927 0.0
C1546 C 0.40933 0.45676 0.58753 0.0
C1547 C 0.4099 0.45825 0.5633 0.0
C1548 C 0.42893 0.47 0.55099 0.0
C1549 C 0.38831 0.44676 0.60056 0.0
C1550 C 0.37895 0.42211 0.59722 0.0
C1551 C 0.37772 0.46135 0.61653 0.0
C1552 C 0.38601 0.48805 0.61982 0.0
C1553 C 0.38826 0.50608 0.60095 0.0
C1554 C 0.39636 0.53112 0.60412 0.0
C1555 C 0.4021 0.53842 0.62612 0.0
C1556 C 0.39967 0.5207 0.64501 0.0
C1557 C 0.39161 0.49562 0.64192 0.0
H1558 H 0.40838 0.55781 0.62854 0.0
H1559 H 0.32787 0.31557 0.59664 0.0
H1560 H 0.88892 0.73084 0.83366 0.0
H1561 H 0.90735 0.69837 0.85583 0.0
H1562 H 0.84212 0.66409 0.88134 0.0
H1563 H 0.82347 0.69629 0.8589 0.0
H1564 H 0.87294 0.66953 0.9157 0.0
H1565 H 0.86983 0.6369 0.84037 0.0
H1566 H 0.87595 0.63856 0.79814 0.0
H1567 H 0.94775 0.6523 0.80633 0.0
H1568 H 0.94203 0.65109 0.84862 0.0
H1569 H 0.90787 0.55465 0.96352 0.0
H1570 H 0.88964 0.58666 0.94073 0.0
H1571 H 0.95464 0.61702 0.91125 0.0
H1572 H 0.97301 0.58446 0.9336 0.0
H1573 H 0.924 0.61387 0.87886 0.0
H1574 H 0.92749 0.64679 0.95396 0.0
H1575 H 0.92169 0.64542 0.99623 0.0
H1576 H 0.8498 0.63179 0.98864 0.0
H1577 H 0.8552 0.63274 0.94632 0.0
C1578 C 0.87846 0.7162 0.84372 0.0
C1579 C 0.85472 0.71608 0.84443 0.0
C1580 C 0.88903 0.69772 0.85644 0.0
C1581 C 0.87607 0.67875 0.87005 0.0
C1582 C 0.8524 0.67863 0.87095 0.0
C1583 C 0.8418 0.69707 0.85818 0.0
C1584 C 0.88728 0.65921 0.8836 0.0
C1585 C 0.88388 0.65711 0.90765 0.0
C1586 C 0.90198 0.64352 0.87308 0.0
C1587 C 0.90547 0.64415 0.84765 0.0
C1588 C 0.88691 0.64048 0.83316 0.0
C1589 C 0.89031 0.6413 0.80921 0.0
C1590 C 0.91222 0.6456 0.79955 0.0
C1591 C 0.93078 0.64901 0.81383 0.0
C1592 C 0.92747 0.64823 0.83779 0.0
C1593 C 0.91834 0.56822 0.95229 0.0
C1594 C 0.94191 0.56717 0.95047 0.0
C1595 C 0.90788 0.58656 0.93932 0.0
C1596 C 0.92082 0.60449 0.92458 0.0
C1597 C 0.94435 0.60339 0.92258 0.0
C1598 C 0.95482 0.58485 0.9354 0.0
C1599 C 0.90971 0.62417 0.91102 0.0
C1600 C 0.91312 0.6263 0.88695 0.0
C1601 C 0.89508 0.63997 0.92154 0.0
C1602 C 0.89177 0.63963 0.94698 0.0
C1603 C 0.91046 0.64334 0.96131 0.0
C1604 C 0.90724 0.64266 0.98528 0.0
C1605 C 0.8854 0.63847 0.99512 0.0
C1606 C 0.86672 0.63502 0.981 0.0
C1607 C 0.86984 0.63565 0.95702 0.0
H1608 H 0.88295 0.63794 0.01368 0.0
H1609 H 0.91481 0.64622 0.781 0.0
H1610 H 0.42675 0.74827 0.1373 0.0
H1611 H 0.44529 0.7859 0.11602 0.0
H1612 H 0.38058 0.81579 0.10749 0.0
H1613 H 0.36192 0.77855 0.12921 0.0
H1614 H 0.40642 0.82055 0.06717 0.0
H1615 H 0.41595 0.83852 0.14689 0.0
H1616 H 0.42765 0.83004 0.18691 0.0
H1617 H 0.49656 0.82828 0.16314 0.0
H1618 H 0.4852 0.8364 0.12292 0.0
H1619 H 0.44078 0.94749 0.03211 0.0
H1620 H 0.42453 0.90925 0.05397 0.0
H1621 H 0.49143 0.88517 0.06342 0.0
H1622 H 0.50794 0.92376 0.04181 0.0
H1623 H 0.46592 0.87633 0.10268 0.0
H1624 H 0.45731 0.86029 0.02342 0.0
H1625 H 0.44637 0.86999 0.98344 0.0
H1626 H 0.37654 0.86715 0.00558 0.0
H1627 H 0.38718 0.85821 0.04591 0.0
C1628 C 0.41644 0.76294 0.13113 0.0
C1629 C 0.39279 0.76033 0.1351 0.0
C1630 C 0.42709 0.78441 0.11887 0.0
C1631 C 0.41435 0.80375 0.11031 0.0
C1632 C 0.39074 0.80106 0.11389 0.0
C1633 C 0.38009 0.77967 0.12624 0.0
C1634 C 0.42561 0.82686 0.09769 0.0
C1635 C 0.41924 0.8329 0.07502 0.0
C1636 C 0.44281 0.84259 0.1077 0.0
C1637 C 0.44968 0.8378 0.13187 0.0
C1638 C 0.43356 0.83611 0.15018 0.0
C1639 C 0.44014 0.83141 0.1729 0.0
C1640 C 0.46282 0.82855 0.17756 0.0
C1641 C 0.47899 0.83046 0.1595 0.0
C1642 C 0.47249 0.83513 0.13674 0.0
C1643 C 0.4521 0.9341 0.03882 0.0
C1644 C 0.47568 0.93861 0.03502 0.0
C1645 C 0.44275 0.91219 0.0513 0.0
C1646 C 0.45672 0.89412 0.06005 0.0
C1647 C 0.48031 0.89881 0.05678 0.0
C1648 C 0.48971 0.92083 0.04435 0.0
C1649 C 0.44657 0.87017 0.07223 0.0
C1650 C 0.45316 0.86393 0.09478 0.0
C1651 C 0.42967 0.85415 0.06206 0.0
C1652 C 0.42308 0.85881 0.03774 0.0
C1653 C 0.43963 0.86189 0.01981 0.0
C1654 C 0.43348 0.86726 0.99706 0.0
C1655 C 0.41075 0.86918 0.99194 0.0
C1656 C 0.39414 0.86568 0.00957 0.0
C1657 C 0.40023 0.8605 0.0324 0.0
H1658 H 0.40602 0.87336 0.97431 0.0
H1659 H 0.46788 0.82491 0.19516 0.0
H1660 H 0.11123 0.221 0.67928 0.0
H1661 H 0.08877 0.18773 0.66036 0.0
H1662 H 0.11617 0.21854 0.59403 0.0
H1663 H 0.13747 0.25263 0.61259 0.0
H1664 H 0.07357 0.20419 0.59007 0.0
H1665 H 0.13697 0.16663 0.62445 0.0
H1666 H 0.16155 0.15456 0.65625 0.0
H1667 H 0.10493 0.11133 0.69142 0.0
H1668 H 0.07994 0.12342 0.65994 0.0
H1669 H 0.07196 0.09715 0.52228 0.0
H1670 H 0.08229 0.13311 0.54553 0.0
H1671 H 0.03718 0.09967 0.60058 0.0
H1672 H 0.02641 0.06378 0.57725 0.0
H1673 H 0.08317 0.11459 0.61351 0.0
H1674 H 0.02135 0.14849 0.57457 0.0
H1675 H 0.99882 0.15981 0.54092 0.0
H1676 H 0.05503 0.20935 0.51224 0.0
H1677 H 0.07803 0.19804 0.54556 0.0
C1678 C 0.11219 0.22095 0.66064 0.0
C1679 C 0.12641 0.23935 0.6475 0.0
C1680 C 0.09951 0.20174 0.64986 0.0
C1681 C 0.10108 0.20035 0.62579 0.0
C1682 C 0.11474 0.21912 0.61262 0.0
C1683 C 0.12718 0.23844 0.62333 0.0
C1684 C 0.08914 0.17906 0.61416 0.0
C1685 C 0.07578 0.18461 0.59515 0.0
C1686 C 0.09156 0.15345 0.62107 0.0
C1687 C 0.10654 0.14618 0.64 0.0
C1688 C 0.12973 0.15471 0.63906 0.0
C1689 C 0.14374 0.14784 0.657 0.0
C1690 C 0.13479 0.13226 0.67588 0.0
C1691 C 0.11182 0.12345 0.67682 0.0
C1692 C 0.09773 0.1303 0.65893 0.0
C1693 C 0.06405 0.09759 0.53923 0.0
C1694 C 0.04839 0.07769 0.54796 0.0
C1695 C 0.0699 0.11815 0.55244 0.0
C1696 C 0.06042 0.11901 0.5747 0.0
C1697 C 0.0446 0.09932 0.5834 0.0
C1698 C 0.03842 0.07893 0.57002 0.0
C1699 C 0.06812 0.13985 0.58922 0.0
C1700 C 0.08069 0.13418 0.60873 0.0
C1701 C 0.06527 0.16533 0.58255 0.0
C1702 C 0.05147 0.17225 0.5625 0.0
C1703 C 0.02898 0.16163 0.56099 0.0
C1704 C 0.01611 0.16808 0.542 0.0
C1705 C 0.0255 0.18524 0.52443 0.0
C1706 C 0.04778 0.19604 0.52585 0.0
C1707 C 0.06073 0.18964 0.54481 0.0
H1708 H 0.01551 0.19022 0.50974 0.0
H1709 H 0.14566 0.12695 0.68975 0.0
H1710 H 0.59456 0.24782 0.37027 0.0
H1711 H 0.57713 0.28218 0.38786 0.0
H1712 H 0.64289 0.31394 0.4076 0.0
H1713 H 0.66057 0.28006 0.38956 0.0
H1714 H 0.61088 0.31137 0.44319 0.0
H1715 H 0.61775 0.34086 0.36306 0.0
H1716 H 0.61237 0.33779 0.32129 0.0
H1717 H 0.54018 0.3295 0.33253 0.0
H1718 H 0.54513 0.33216 0.37444 0.0
H1719 H 0.58432 0.4318 0.47379 0.0
H1720 H 0.60008 0.39685 0.45572 0.0
H1721 H 0.53384 0.3715 0.43204 0.0
H1722 H 0.51797 0.40694 0.44968 0.0
H1723 H 0.56496 0.36979 0.39864 0.0
H1724 H 0.55713 0.34032 0.47797 0.0
H1725 H 0.56144 0.34171 0.52004 0.0
H1726 H 0.63385 0.34848 0.51085 0.0
H1727 H 0.62998 0.34742 0.46866 0.0
C1728 C 0.60539 0.26228 0.37807 0.0
C1729 C 0.62902 0.26113 0.37843 0.0
C1730 C 0.59536 0.28185 0.38821 0.0
C1731 C 0.60873 0.30068 0.39893 0.0
C1732 C 0.63226 0.29954 0.39949 0.0
C1733 C 0.64232 0.28007 0.38924 0.0
C1734 C 0.59818 0.32149 0.40976 0.0
C1735 C 0.60108 0.32436 0.4334 0.0
C1736 C 0.58483 0.33793 0.39711 0.0
C1737 C 0.58182 0.33644 0.37191 0.0
C1738 C 0.60073 0.33817 0.35665 0.0
C1739 C 0.59776 0.33654 0.33295 0.0
C1740 C 0.57595 0.33338 0.32427 0.0
C1741 C 0.55706 0.33191 0.33928 0.0
C1742 C 0.55994 0.3335 0.36301 0.0
C1743 C 0.57304 0.41876 0.46483 0.0
C1744 C 0.54984 0.42209 0.46329 0.0
C1745 C 0.58209 0.3987 0.45456 0.0
C1746 C 0.5681 0.38129 0.4428 0.0
C1747 C 0.54495 0.38466 0.44108 0.0
C1748 C 0.53589 0.40486 0.45124 0.0
C1749 C 0.57776 0.3598 0.4321 0.0
C1750 C 0.5747 0.35679 0.40847 0.0
C1751 C 0.59083 0.34307 0.44481 0.0
C1752 C 0.59326 0.34397 0.47014 0.0
C1753 C 0.57398 0.34232 0.4849 0.0
C1754 C 0.57634 0.343 0.50877 0.0
C1755 C 0.5979 0.34517 0.5181 0.0
C1756 C 0.61716 0.34677 0.50358 0.0
C1757 C 0.61489 0.3461 0.4797 0.0
H1758 H 0.59968 0.34547 0.53659 0.0
H1759 H 0.57369 0.33213 0.30591 0.0
loop_
_geom_bond_atom_site_label_1
_geom_bond_atom_site_label_2
_geom_bond_distance
_geom_bond_site_symmetry_2
_ccdc_geom_bond_type
C0 C1 1.391 . S
C0 C4 1.391 . S
C0 H42 0.948 . S
C1 C0 1.391 . S
C1 C2 1.391 . S
C2 C1 1.391 . S
C2 H58 0.947 . S
C2 C59 1.392 . S
C3 C4 1.391 . S
C3 C7 1.397 . S
C3 C59 1.419 . S
C4 C0 1.391 . S
C4 C3 1.391 . S
C4 C5 1.399 . S
C5 C4 1.399 . S
C5 C8 1.396 . S
C5 C17 1.453 . S
C5 C18 1.684 . S
H6 C30 0.948 . S
C7 C3 1.397 . S
C7 C8 1.394 . S
C7 C26 1.723 . S
C8 C5 1.396 . S
C8 C7 1.394 . S
C8 C38 1.723 . S
H9 C32 0.947 . S
H10 C33 0.948 . S
H11 C39 0.982 . S
H12 C40 0.979 . S
H13 C40 0.980 . S
H14 C40 0.983 . S
H15 C39 0.979 . S
H16 C39 0.977 . S
C17 C5 1.453 . S
C17 H46 0.982 . S
C17 H47 0.979 . S
C17 H48 0.977 . S
C18 C5 1.684 . S
C18 H43 0.979 . S
C18 H44 0.980 . S
C18 H45 0.983 . S
C19 C20 1.391 . S
C19 C24 1.391 . S
C19 H49 0.948 . S
C20 C19 1.391 . S
C20 C21 1.391 . S
C21 C20 1.391 . S
C21 C22 1.392 . S
C21 H50 0.947 . S
C22 C21 1.392 . S
C22 C23 1.419 . S
C22 H51 0.948 . S
C23 C22 1.419 . S
C23 C24 1.391 . S
C23 C27 1.397 . S
C24 C19 1.391 . S
C24 C23 1.391 . S
C24 C25 1.399 . S
C25 C24 1.399 . S
C25 C26 1.396 . S
C25 C28 1.453 . S
C25 C29 1.684 . S
C26 C7 1.723 . S
C26 C25 1.396 . S
C26 C27 1.394 . S
C27 C23 1.397 . S
C27 C26 1.394 . S
C27 C37 1.723 . S
C28 C25 1.453 . S
C28 H52 0.982 . S
C28 H53 0.979 . S
C28 H54 0.977 . S
C29 C25 1.684 . S
C29 H55 0.979 . S
C29 H56 0.980 . S
C29 H57 0.983 . S
C30 H6 0.948 . S
C30 C31 1.391 . S
C30 C35 1.391 . S
C31 C30 1.391 . S
C31 C32 1.391 . S
C32 H9 0.947 . S
C32 C31 1.391 . S
C32 C33 1.392 . S
C33 H10 0.948 . S
C33 C32 1.392 . S
C33 C34 1.419 . S
C34 C33 1.419 . S
C34 C35 1.391 . S
C34 C38 1.397 . S
C35 C30 1.391 . S
C35 C34 1.391 . S
C35 C36 1.399 . S
C36 C35 1.399 . S
C36 C37 1.396 . S
C36 C39 1.453 . S
C36 C40 1.684 . S
C37 C27 1.723 . S
C37 C36 1.396 . S
C37 C38 1.394 . S
C38 C8 1.723 . S
C38 C34 1.397 . S
C38 C37 1.394 . S
C39 H11 0.982 . S
C39 H15 0.979 . S
C39 H16 0.977 . S
C39 C36 1.453 . S
C40 H12 0.979 . S
C40 H13 0.980 . S
C40 H14 0.983 . S
C40 C36 1.684 . S
H41 C59 0.948 . S
H42 C0 0.948 . S
H43 C18 0.979 . S
H44 C18 0.980 . S
H45 C18 0.983 . S
H46 C17 0.982 . S
H47 C17 0.979 . S
H48 C17 0.977 . S
H49 C19 0.948 . S
H50 C21 0.947 . S
H51 C22 0.948 . S
H52 C28 0.982 . S
H53 C28 0.979 . S
H54 C28 0.977 . S
H55 C29 0.979 . S
H56 C29 0.980 . S
H57 C29 0.983 . S
H58 C2 0.947 . S
C59 C2 1.392 . S
C59 C3 1.419 . S
C59 H41 0.948 . S
C60 C61 1.391 . S
C60 C64 1.391 . S
C60 H102 0.948 . S
C61 C60 1.391 . S
C61 C62 1.391 . S
C62 C61 1.391 . S
C62 H118 0.947 . S
C62 C119 1.392 . S
C63 C64 1.391 . S
C63 C67 1.397 . S
C63 C119 1.419 . S
C64 C60 1.391 . S
C64 C63 1.391 . S
C64 C65 1.399 . S
C65 C64 1.399 . S
C65 C68 1.396 . S
C65 C77 1.453 . S
C65 C78 1.684 . S
H66 C90 0.948 . S
C67 C63 1.397 . S
C67 C68 1.394 . S
C67 C86 1.723 . S
C68 C65 1.396 . S
C68 C67 1.394 . S
C68 C98 1.723 . S
H69 C92 0.947 . S
H70 C93 0.948 . S
H71 C99 0.982 . S
H72 C100 0.979 . S
H73 C100 0.980 . S
H74 C100 0.983 . S
H75 C99 0.979 . S
H76 C99 0.977 . S
C77 C65 1.453 . S
C77 H106 0.982 . S
C77 H107 0.979 . S
C77 H108 0.977 . S
C78 C65 1.684 . S
C78 H103 0.979 . S
C78 H104 0.980 . S
C78 H105 0.983 . S
C79 C80 1.391 . S
C79 C84 1.391 . S
C79 H109 0.948 . S
C80 C79 1.391 . S
C80 C81 1.391 . S
C81 C80 1.391 . S
C81 C82 1.392 . S
C81 H110 0.947 . S
C82 C81 1.392 . S
C82 C83 1.419 . S
C82 H111 0.948 . S
C83 C82 1.419 . S
C83 C84 1.391 . S
C83 C87 1.397 . S
C84 C79 1.391 . S
C84 C83 1.391 . S
C84 C85 1.399 . S
C85 C84 1.399 . S
C85 C86 1.396 . S
C85 C88 1.453 . S
C85 C89 1.684 . S
C86 C67 1.723 . S
C86 C85 1.396 . S
C86 C87 1.394 . S
C87 C83 1.397 . S
C87 C86 1.394 . S
C87 C97 1.723 . S
C88 C85 1.453 . S
C88 H112 0.982 . S
C88 H113 0.979 . S
C88 H114 0.977 . S
C89 C85 1.684 . S
C89 H115 0.979 . S
C89 H116 0.980 . S
C89 H117 0.983 . S
C90 H66 0.948 . S
C90 C91 1.391 . S
C90 C95 1.391 . S
C91 C90 1.391 . S
C91 C92 1.391 . S
C92 H69 0.947 . S
C92 C91 1.391 . S
C92 C93 1.392 . S
C93 H70 0.948 . S
C93 C92 1.392 . S
C93 C94 1.419 . S
C94 C93 1.419 . S
C94 C95 1.391 . S
C94 C98 1.397 . S
C95 C90 1.391 . S
C95 C94 1.391 . S
C95 C96 1.399 . S
C96 C95 1.399 . S
C96 C97 1.396 . S
C96 C99 1.453 . S
C96 C100 1.684 . S
C97 C87 1.723 . S
C97 C96 1.396 . S
C97 C98 1.394 . S
C98 C68 1.723 . S
C98 C94 1.397 . S
C98 C97 1.394 . S
C99 H71 0.982 . S
C99 H75 0.979 . S
C99 H76 0.977 . S
C99 C96 1.453 . S
C100 H72 0.979 . S
C100 H73 0.980 . S
C100 H74 0.983 . S
C100 C96 1.684 . S
H101 C119 0.948 . S
H102 C60 0.948 . S
H103 C78 0.979 . S
H104 C78 0.980 . S
H105 C78 0.983 . S
H106 C77 0.982 . S
H107 C77 0.979 . S
H108 C77 0.977 . S
H109 C79 0.948 . S
H110 C81 0.947 . S
H111 C82 0.948 . S
H112 C88 0.982 . S
H113 C88 0.979 . S
H114 C88 0.977 . S
H115 C89 0.979 . S
H116 C89 0.980 . S
H117 C89 0.983 . S
H118 C62 0.947 . S
C119 C62 1.392 . S
C119 C63 1.419 . S
C119 H101 0.948 . S
C120 C121 1.391 . S
C120 C124 1.391 . S
C120 H162 0.948 . S
C121 C120 1.391 . S
C121 C122 1.391 . S
C122 C121 1.391 . S
C122 H178 0.947 . S
C122 C179 1.392 . S
C123 C124 1.391 . S
C123 C127 1.397 . S
C123 C179 1.419 . S
C124 C120 1.391 . S
C124 C123 1.391 . S
C124 C125 1.399 . S
C125 C124 1.399 . S
C125 C128 1.396 . S
C125 C137 1.453 . S
C125 C138 1.684 . S
H126 C150 0.948 . S
C127 C123 1.397 . S
C127 C128 1.394 . S
C127 C146 1.723 . S
C128 C125 1.396 . S
C128 C127 1.394 . S
C128 C158 1.723 . S
H129 C152 0.947 . S
H130 C153 0.948 . S
H131 C159 0.982 . S
H132 C160 0.979 . S
H133 C160 0.980 . S
H134 C160 0.983 . S
H135 C159 0.979 . S
H136 C159 0.977 . S
C137 C125 1.453 . S
C137 H166 0.982 . S
C137 H167 0.979 . S
C137 H168 0.977 . S
C138 C125 1.684 . S
C138 H163 0.979 . S
C138 H164 0.980 . S
C138 H165 0.983 . S
C139 C140 1.391 . S
C139 C144 1.391 . S
C139 H169 0.948 . S
C140 C139 1.391 . S
C140 C141 1.391 . S
C141 C140 1.391 . S
C141 C142 1.392 . S
C141 H170 0.947 . S
C142 C141 1.392 . S
C142 C143 1.419 . S
C142 H171 0.948 . S
C143 C142 1.419 . S
C143 C144 1.391 . S
C143 C147 1.397 . S
C144 C139 1.391 . S
C144 C143 1.391 . S
C144 C145 1.399 . S
C145 C144 1.399 . S
C145 C146 1.396 . S
C145 C148 1.453 . S
C145 C149 1.684 . S
C146 C127 1.723 . S
C146 C145 1.396 . S
C146 C147 1.394 . S
C147 C143 1.397 . S
C147 C146 1.394 . S
C147 C157 1.723 . S
C148 C145 1.453 . S
C148 H172 0.982 . S
C148 H173 0.979 . S
C148 H174 0.977 . S
C149 C145 1.684 . S
C149 H175 0.979 . S
C149 H176 0.980 . S
C149 H177 0.983 . S
C150 H126 0.948 . S
C150 C151 1.391 . S
C150 C155 1.391 . S
C151 C150 1.391 . S
C151 C152 1.391 . S
C152 H129 0.947 . S
C152 C151 1.391 . S
C152 C153 1.392 . S
C153 H130 0.948 . S
C153 C152 1.392 . S
C153 C154 1.419 . S
C154 C153 1.419 . S
C154 C155 1.391 . S
C154 C158 1.397 . S
C155 C150 1.391 . S
C155 C154 1.391 . S
C155 C156 1.399 . S
C156 C155 1.399 . S
C156 C157 1.396 . S
C156 C159 1.453 . S
C156 C160 1.684 . S
C157 C147 1.723 . S
C157 C156 1.396 . S
C157 C158 1.394 . S
C158 C128 1.723 . S
C158 C154 1.397 . S
C158 C157 1.394 . S
C159 H131 0.982 . S
C159 H135 0.979 . S
C159 H136 0.977 . S
C159 C156 1.453 . S
C160 H132 0.979 . S
C160 H133 0.980 . S
C160 H134 0.983 . S
C160 C156 1.684 . S
H161 C179 0.948 . S
H162 C120 0.948 . S
H163 C138 0.979 . S
H164 C138 0.980 . S
H165 C138 0.983 . S
H166 C137 0.982 . S
H167 C137 0.979 . S
H168 C137 0.977 . S
H169 C139 0.948 . S
H170 C141 0.947 . S
H171 C142 0.948 . S
H172 C148 0.982 . S
H173 C148 0.979 . S
H174 C148 0.977 . S
H175 C149 0.979 . S
H176 C149 0.980 . S
H177 C149 0.983 . S
H178 C122 0.947 . S
C179 C122 1.392 . S
C179 C123 1.419 . S
C179 H161 0.948 . S
C180 C181 1.391 . S
C180 C184 1.391 . S
C180 H222 0.948 . S
C181 C180 1.391 . S
C181 C182 1.391 . S
C182 C181 1.391 . S
C182 H238 0.947 . S
C182 C239 1.392 . S
C183 C184 1.391 . S
C183 C187 1.397 . S
C183 C239 1.419 . S
C184 C180 1.391 . S
C184 C183 1.391 . S
C184 C185 1.399 . S
C185 C184 1.399 . S
C185 C188 1.396 . S
C185 C197 1.453 . S
C185 C198 1.684 . S
H186 C210 0.948 . S
C187 C183 1.397 . S
C187 C188 1.394 . S
C187 C206 1.723 . S
C188 C185 1.396 . S
C188 C187 1.394 . S
C188 C218 1.723 . S
H189 C212 0.947 . S
H190 C213 0.948 . S
H191 C219 0.982 . S
H192 C220 0.979 . S
H193 C220 0.980 . S
H194 C220 0.983 . S
H195 C219 0.979 . S
H196 C219 0.977 . S
C197 C185 1.453 . S
C197 H226 0.982 . S
C197 H227 0.979 . S
C197 H228 0.977 . S
C198 C185 1.684 . S
C198 H223 0.979 . S
C198 H224 0.980 . S
C198 H225 0.983 . S
C199 C200 1.391 . S
C199 C204 1.391 . S
C199 H229 0.948 . S
C200 C199 1.391 . S
C200 C201 1.391 . S
C201 C200 1.391 . S
C201 C202 1.392 . S
C201 H230 0.947 . S
C202 C201 1.392 . S
C202 C203 1.419 . S
C202 H231 0.948 . S
C203 C202 1.419 . S
C203 C204 1.391 . S
C203 C207 1.397 . S
C204 C199 1.391 . S
C204 C203 1.391 . S
C204 C205 1.399 . S
C205 C204 1.399 . S
C205 C206 1.396 . S
C205 C208 1.453 . S
C205 C209 1.684 . S
C206 C187 1.723 . S
C206 C205 1.396 . S
C206 C207 1.394 . S
C207 C203 1.397 . S
C207 C206 1.394 . S
C207 C217 1.723 . S
C208 C205 1.453 . S
C208 H232 0.982 . S
C208 H233 0.979 . S
C208 H234 0.977 . S
C209 C205 1.684 . S
C209 H235 0.979 . S
C209 H236 0.980 . S
C209 H237 0.983 . S
C210 H186 0.948 . S
C210 C211 1.391 . S
C210 C215 1.391 . S
C211 C210 1.391 . S
C211 C212 1.391 . S
C212 H189 0.947 . S
C212 C211 1.391 . S
C212 C213 1.392 . S
C213 H190 0.948 . S
C213 C212 1.392 . S
C213 C214 1.419 . S
C214 C213 1.419 . S
C214 C215 1.391 . S
C214 C218 1.397 . S
C215 C210 1.391 . S
C215 C214 1.391 . S
C215 C216 1.399 . S
C216 C215 1.399 . S
C216 C217 1.396 . S
C216 C219 1.453 . S
C216 C220 1.684 . S
C217 C207 1.723 . S
C217 C216 1.396 . S
C217 C218 1.394 . S
C218 C188 1.723 . S
C218 C214 1.397 . S
C218 C217 1.394 . S
C219 H191 0.982 . S
C219 H195 0.979 . S
C219 H196 0.977 . S
C219 C216 1.453 . S
C220 H192 0.979 . S
C220 H193 0.980 . S
C220 H194 0.983 . S
C220 C216 1.684 . S
H221 C239 0.948 . S
H222 C180 0.948 . S
H223 C198 0.979 . S
H224 C198 0.980 . S
H225 C198 0.983 . S
H226 C197 0.982 . S
H227 C197 0.979 . S
H228 C197 0.977 . S
H229 C199 0.948 . S
H230 C201 0.947 . S
H231 C202 0.948 . S
H232 C208 0.982 . S
H233 C208 0.979 . S
H234 C208 0.977 . S
H235 C209 0.979 . S
H236 C209 0.980 . S
H237 C209 0.983 . S
H238 C182 0.947 . S
C239 C182 1.392 . S
C239 C183 1.419 . S
C239 H221 0.948 . S
C240 C241 1.391 . S
C240 C244 1.391 . S
C240 H282 0.948 . S
C241 C240 1.391 . S
C241 C242 1.391 . S
C242 C241 1.391 . S
C242 H298 0.947 . S
C242 C299 1.392 . S
C243 C244 1.391 . S
C243 C247 1.397 . S
C243 C299 1.419 . S
C244 C240 1.391 . S
C244 C243 1.391 . S
C244 C245 1.399 . S
C245 C244 1.399 . S
C245 C248 1.396 . S
C245 C257 1.453 . S
C245 C258 1.684 . S
H246 C270 0.948 . S
C247 C243 1.397 . S
C247 C248 1.394 . S
C247 C266 1.723 . S
C248 C245 1.396 . S
C248 C247 1.394 . S
C248 C278 1.723 . S
H249 C272 0.947 . S
H250 C273 0.948 . S
H251 C279 0.982 . S
H252 C280 0.979 . S
H253 C280 0.980 . S
H254 C280 0.983 . S
H255 C279 0.979 . S
H256 C279 0.977 . S
C257 C245 1.453 . S
C257 H286 0.982 . S
C257 H287 0.979 . S
C257 H288 0.977 . S
C258 C245 1.684 . S
C258 H283 0.979 . S
C258 H284 0.980 . S
C258 H285 0.983 . S
C259 C260 1.391 . S
C259 C264 1.391 . S
C259 H289 0.948 . S
C260 C259 1.391 . S
C260 C261 1.391 . S
C261 C260 1.391 . S
C261 C262 1.392 . S
C261 H290 0.947 . S
C262 C261 1.392 . S
C262 C263 1.419 . S
C262 H291 0.948 . S
C263 C262 1.419 . S
C263 C264 1.391 . S
C263 C267 1.397 . S
C264 C259 1.391 . S
C264 C263 1.391 . S
C264 C265 1.399 . S
C265 C264 1.399 . S
C265 C266 1.396 . S
C265 C268 1.453 . S
C265 C269 1.684 . S
C266 C247 1.723 . S
C266 C265 1.396 . S
C266 C267 1.394 . S
C267 C263 1.397 . S
C267 C266 1.394 . S
C267 C277 1.723 . S
C268 C265 1.453 . S
C268 H292 0.982 . S
C268 H293 0.979 . S
C268 H294 0.977 . S
C269 C265 1.684 . S
C269 H295 0.979 . S
C269 H296 0.980 . S
C269 H297 0.983 . S
C270 H246 0.948 . S
C270 C271 1.391 . S
C270 C275 1.391 . S
C271 C270 1.391 . S
C271 C272 1.391 . S
C272 H249 0.947 . S
C272 C271 1.391 . S
C272 C273 1.392 . S
C273 H250 0.948 . S
C273 C272 1.392 . S
C273 C274 1.419 . S
C274 C273 1.419 . S
C274 C275 1.391 . S
C274 C278 1.397 . S
C275 C270 1.391 . S
C275 C274 1.391 . S
C275 C276 1.399 . S
C276 C275 1.399 . S
C276 C277 1.396 . S
C276 C279 1.453 . S
C276 C280 1.684 . S
C277 C267 1.723 . S
C277 C276 1.396 . S
C277 C278 1.394 . S
C278 C248 1.723 . S
C278 C274 1.397 . S
C278 C277 1.394 . S
C279 H251 0.982 . S
C279 H255 0.979 . S
C279 H256 0.977 . S
C279 C276 1.453 . S
C280 H252 0.979 . S
C280 H253 0.980 . S
C280 H254 0.983 . S
C280 C276 1.684 . S
H281 C299 0.948 . S
H282 C240 0.948 . S
H283 C258 0.979 . S
H284 C258 0.980 . S
H285 C258 0.983 . S
H286 C257 0.982 . S
H287 C257 0.979 . S
H288 C257 0.977 . S
H289 C259 0.948 . S
H290 C261 0.947 . S
H291 C262 0.948 . S
H292 C268 0.982 . S
H293 C268 0.979 . S
H294 C268 0.977 . S
H295 C269 0.979 . S
H296 C269 0.980 . S
H297 C269 0.983 . S
H298 C242 0.947 . S
C299 C242 1.392 . S
C299 C243 1.419 . S
C299 H281 0.948 . S
C300 C301 1.391 . S
C300 C304 1.391 . S
C300 H342 0.948 . S
C301 C300 1.391 . S
C301 C302 1.391 . S
C302 C301 1.391 . S
C302 H358 0.947 . S
C302 C359 1.392 . S
C303 C304 1.391 . S
C303 C307 1.397 . S
C303 C359 1.419 . S
C304 C300 1.391 . S
C304 C303 1.391 . S
C304 C305 1.399 . S
C305 C304 1.399 . S
C305 C308 1.396 . S
C305 C317 1.453 . S
C305 C318 1.684 . S
H306 C330 0.948 . S
C307 C303 1.397 . S
C307 C308 1.394 . S
C307 C326 1.723 . S
C308 C305 1.396 . S
C308 C307 1.394 . S
C308 C338 1.723 . S
H309 C332 0.947 . S
H310 C333 0.948 . S
H311 C339 0.982 . S
H312 C340 0.979 . S
H313 C340 0.980 . S
H314 C340 0.983 . S
H315 C339 0.979 . S
H316 C339 0.977 . S
C317 C305 1.453 . S
C317 H346 0.982 . S
C317 H347 0.979 . S
C317 H348 0.977 . S
C318 C305 1.684 . S
C318 H343 0.979 . S
C318 H344 0.980 . S
C318 H345 0.983 . S
C319 C320 1.391 . S
C319 C324 1.391 . S
C319 H349 0.948 . S
C320 C319 1.391 . S
C320 C321 1.391 . S
C321 C320 1.391 . S
C321 C322 1.392 . S
C321 H350 0.947 . S
C322 C321 1.392 . S
C322 C323 1.419 . S
C322 H351 0.948 . S
C323 C322 1.419 . S
C323 C324 1.391 . S
C323 C327 1.397 . S
C324 C319 1.391 . S
C324 C323 1.391 . S
C324 C325 1.399 . S
C325 C324 1.399 . S
C325 C326 1.396 . S
C325 C328 1.453 . S
C325 C329 1.684 . S
C326 C307 1.723 . S
C326 C325 1.396 . S
C326 C327 1.394 . S
C327 C323 1.397 . S
C327 C326 1.394 . S
C327 C337 1.723 . S
C328 C325 1.453 . S
C328 H352 0.982 . S
C328 H353 0.979 . S
C328 H354 0.977 . S
C329 C325 1.684 . S
C329 H355 0.979 . S
C329 H356 0.980 . S
C329 H357 0.983 . S
C330 H306 0.948 . S
C330 C331 1.391 . S
C330 C335 1.391 . S
C331 C330 1.391 . S
C331 C332 1.391 . S
C332 H309 0.947 . S
C332 C331 1.391 . S
C332 C333 1.392 . S
C333 H310 0.948 . S
C333 C332 1.392 . S
C333 C334 1.419 . S
C334 C333 1.419 . S
C334 C335 1.391 . S
C334 C338 1.397 . S
C335 C330 1.391 . S
C335 C334 1.391 . S
C335 C336 1.399 . S
C336 C335 1.399 . S
C336 C337 1.396 . S
C336 C339 1.453 . S
C336 C340 1.684 . S
C337 C327 1.723 . S
C337 C336 1.396 . S
C337 C338 1.394 . S
C338 C308 1.723 . S
C338 C334 1.397 . S
C338 C337 1.394 . S
C339 H311 0.982 . S
C339 H315 0.979 . S
C339 H316 0.977 . S
C339 C336 1.453 . S
C340 H312 0.979 . S
C340 H313 0.980 . S
C340 H314 0.983 . S
C340 C336 1.684 . S
H341 C359 0.948 . S
H342 C300 0.948 . S
H343 C318 0.979 . S
H344 C318 0.980 . S
H345 C318 0.983 . S
H346 C317 0.982 . S
H347 C317 0.979 . S
H348 C317 0.977 . S
H349 C319 0.948 . S
H350 C321 0.947 . S
H351 C322 0.948 . S
H352 C328 0.982 . S
H353 C328 0.979 . S
H354 C328 0.977 . S
H355 C329 0.979 . S
H356 C329 0.980 . S
H357 C329 0.983 . S
H358 C302 0.947 . S
C359 C302 1.392 . S
C359 C303 1.419 . S
C359 H341 0.948 . S
C360 C361 1.391 . S
C360 C364 1.391 . S
C360 H402 0.948 . S
C361 C360 1.391 . S
C361 C362 1.391 . S
C362 C361 1.391 . S
C362 H418 0.947 . S
C362 C419 1.392 . S
C363 C364 1.391 . S
C363 C367 1.397 . S
C363 C419 1.419 . S
C364 C360 1.391 . S
C364 C363 1.391 . S
C364 C365 1.399 . S
C365 C364 1.399 . S
C365 C368 1.396 . S
C365 C377 1.453 . S
C365 C378 1.684 . S
H366 C390 0.948 . S
C367 C363 1.397 . S
C367 C368 1.394 . S
C367 C386 1.723 . S
C368 C365 1.396 . S
C368 C367 1.394 . S
C368 C398 1.723 . S
H369 C392 0.947 . S
H370 C393 0.948 . S
H371 C399 0.982 . S
H372 C400 0.979 . S
H373 C400 0.980 . S
H374 C400 0.983 . S
H375 C399 0.979 . S
H376 C399 0.977 . S
C377 C365 1.453 . S
C377 H406 0.982 . S
C377 H407 0.979 . S
C377 H408 0.977 . S
C378 C365 1.684 . S
C378 H403 0.979 . S
C378 H404 0.980 . S
C378 H405 0.983 . S
C379 C380 1.391 . S
C379 C384 1.391 . S
C379 H409 0.948 . S
C380 C379 1.391 . S
C380 C381 1.391 . S
C381 C380 1.391 . S
C381 C382 1.392 . S
C381 H410 0.947 . S
C382 C381 1.392 . S
C382 C383 1.419 . S
C382 H411 0.948 . S
C383 C382 1.419 . S
C383 C384 1.391 . S
C383 C387 1.397 . S
C384 C379 1.391 . S
C384 C383 1.391 . S
C384 C385 1.399 . S
C385 C384 1.399 . S
C385 C386 1.396 . S
C385 C388 1.453 . S
C385 C389 1.684 . S
C386 C367 1.723 . S
C386 C385 1.396 . S
C386 C387 1.394 . S
C387 C383 1.397 . S
C387 C386 1.394 . S
C387 C397 1.723 . S
C388 C385 1.453 . S
C388 H412 0.982 . S
C388 H413 0.979 . S
C388 H414 0.977 . S
C389 C385 1.684 . S
C389 H415 0.979 . S
C389 H416 0.980 . S
C389 H417 0.983 . S
C390 H366 0.948 . S
C390 C391 1.391 . S
C390 C395 1.391 . S
C391 C390 1.391 . S
C391 C392 1.391 . S
C392 H369 0.947 . S
C392 C391 1.391 . S
C392 C393 1.392 . S
C393 H370 0.948 . S
C393 C392 1.392 . S
C393 C394 1.419 . S
C394 C393 1.419 . S
C394 C395 1.391 . S
C394 C398 1.397 . S
C395 C390 1.391 . S
C395 C394 1.391 . S
C395 C396 1.399 . S
C396 C395 1.399 . S
C396 C397 1.396 . S
C396 C399 1.453 . S
C396 C400 1.684 . S
C397 C387 1.723 . S
C397 C396 1.396 . S
C397 C398 1.394 . S
C398 C368 1.723 . S
C398 C394 1.397 . S
C398 C397 1.394 . S
C399 H371 0.982 . S
C399 H375 0.979 . S
C399 H376 0.977 . S
C399 C396 1.453 . S
C400 H372 0.979 . S
C400 H373 0.980 . S
C400 H374 0.983 . S
C400 C396 1.684 . S
H401 C419 0.948 . S
H402 C360 0.948 . S
H403 C378 0.979 . S
H404 C378 0.980 . S
H405 C378 0.983 . S
H406 C377 0.982 . S
H407 C377 0.979 . S
H408 C377 0.977 . S
H409 C379 0.948 . S
H410 C381 0.947 . S
H411 C382 0.948 . S
H412 C388 0.982 . S
H413 C388 0.979 . S
H414 C388 0.977 . S
H415 C389 0.979 . S
H416 C389 0.980 . S
H417 C389 0.983 . S
H418 C362 0.947 . S
C419 C362 1.392 . S
C419 C363 1.419 . S
C419 H401 0.948 . S
C420 C421 1.391 . S
C420 C424 1.391 . S
C420 H462 0.948 . S
C421 C420 1.391 . S
C421 C422 1.391 . S
C422 C421 1.391 . S
C422 H478 0.947 . S
C422 C479 1.392 . S
C423 C424 1.391 . S
C423 C427 1.397 . S
C423 C479 1.419 . S
C424 C420 1.391 . S
C424 C423 1.391 . S
C424 C425 1.399 . S
C425 C424 1.399 . S
C425 C428 1.396 . S
C425 C437 1.453 . S
C425 C438 1.684 . S
H426 C450 0.948 . S
C427 C423 1.397 . S
C427 C428 1.394 . S
C427 C446 1.723 . S
C428 C425 1.396 . S
C428 C427 1.394 . S
C428 C458 1.723 . S
H429 C452 0.947 . S
H430 C453 0.948 . S
H431 C459 0.982 . S
H432 C460 0.979 . S
H433 C460 0.980 . S
H434 C460 0.983 . S
H435 C459 0.979 . S
H436 C459 0.977 . S
C437 C425 1.453 . S
C437 H466 0.982 . S
C437 H467 0.979 . S
C437 H468 0.977 . S
C438 C425 1.684 . S
C438 H463 0.979 . S
C438 H464 0.980 . S
C438 H465 0.983 . S
C439 C440 1.391 . S
C439 C444 1.391 . S
C439 H469 0.948 . S
C440 C439 1.391 . S
C440 C441 1.391 . S
C441 C440 1.391 . S
C441 C442 1.392 . S
C441 H470 0.947 . S
C442 C441 1.392 . S
C442 C443 1.419 . S
C442 H471 0.948 . S
C443 C442 1.419 . S
C443 C444 1.391 . S
C443 C447 1.397 . S
C444 C439 1.391 . S
C444 C443 1.391 . S
C444 C445 1.399 . S
C445 C444 1.399 . S
C445 C446 1.396 . S
C445 C448 1.453 . S
C445 C449 1.684 . S
C446 C427 1.723 . S
C446 C445 1.396 . S
C446 C447 1.394 . S
C447 C443 1.397 . S
C447 C446 1.394 . S
C447 C457 1.723 . S
C448 C445 1.453 . S
C448 H472 0.982 . S
C448 H473 0.979 . S
C448 H474 0.977 . S
C449 C445 1.684 . S
C449 H475 0.979 . S
C449 H476 0.980 . S
C449 H477 0.983 . S
C450 H426 0.948 . S
C450 C451 1.391 . S
C450 C455 1.391 . S
C451 C450 1.391 . S
C451 C452 1.391 . S
C452 H429 0.947 . S
C452 C451 1.391 . S
C452 C453 1.392 . S
C453 H430 0.948 . S
C453 C452 1.392 . S
C453 C454 1.419 . S
C454 C453 1.419 . S
C454 C455 1.391 . S
C454 C458 1.397 . S
C455 C450 1.391 . S
C455 C454 1.391 . S
C455 C456 1.399 . S
C456 C455 1.399 . S
C456 C457 1.396 . S
C456 C459 1.453 . S
C456 C460 1.684 . S
C457 C447 1.723 . S
C457 C456 1.396 . S
C457 C458 1.394 . S
C458 C428 1.723 . S
C458 C454 1.397 . S
C458 C457 1.394 . S
C459 H431 0.982 . S
C459 H435 0.979 . S
C459 H436 0.977 . S
C459 C456 1.453 . S
C460 H432 0.979 . S
C460 H433 0.980 . S
C460 H434 0.983 . S
C460 C456 1.684 . S
H461 C479 0.948 . S
H462 C420 0.948 . S
H463 C438 0.979 . S
H464 C438 0.980 . S
H465 C438 0.983 . S
H466 C437 0.982 . S
H467 C437 0.979 . S
H468 C437 0.977 . S
H469 C439 0.948 . S
H470 C441 0.947 . S
H471 C442 0.948 . S
H472 C448 0.982 . S
H473 C448 0.979 . S
H474 C448 0.977 . S
H475 C449 0.979 . S
H476 C449 0.980 . S
H477 C449 0.983 . S
H478 C422 0.947 . S
C479 C422 1.392 . S
C479 C423 1.419 . S
C479 H461 0.948 . S
Zn480 O486 1.969 1_545 S
Zn480 O487 1.965 1_545 S
Zn480 O491 2.024 . S
Zn480 O496 1.969 . S
Zn481 O488 1.969 . S
Zn481 O494 1.969 1_565 S
Zn481 O495 1.965 1_565 S
Zn481 O497 2.024 . S
C482 O483 1.229 . S
C482 O491 1.058 . S
O483 C482 1.229 . S
C484 O485 1.229 . S
C484 O497 1.058 . S
O485 C484 1.229 . S
O486 Zn480 1.969 1_565 S
O486 C489 1.267 . S
O487 Zn480 1.965 1_565 S
O487 C498 1.260 1_455 S
O488 Zn481 1.969 . S
O488 C498 1.258 . S
C489 O486 1.267 . S
C489 O490 1.228 . S
O490 C489 1.228 . S
O491 Zn480 2.024 . S
O491 C482 1.058 . S
C492 O493 1.228 . S
C492 O494 1.267 . S
O493 C492 1.228 . S
O494 Zn481 1.969 1_545 S
O494 C492 1.267 . S
O495 Zn481 1.965 1_545 S
O495 C499 1.260 1_655 S
O496 Zn480 1.969 . S
O496 C499 1.258 . S
O497 Zn481 2.024 . S
O497 C484 1.058 . S
C498 O487 1.260 1_655 S
C498 O488 1.258 . S
C499 O495 1.260 1_455 S
C499 O496 1.258 . S
Zn500 O506 1.969 . S
Zn500 O507 1.965 1_565 S
Zn500 O511 2.024 . S
Zn500 O516 1.969 . S
Zn501 O508 1.969 . S
Zn501 O514 1.969 . S
Zn501 O515 1.965 1_545 S
Zn501 O517 2.024 . S
C502 O503 1.229 . S
C502 O511 1.058 . S
O503 C502 1.229 . S
C504 O505 1.229 . S
C504 O517 1.058 . S
O505 C504 1.229 . S
O506 Zn500 1.969 . S
O506 C509 1.267 . S
O507 Zn500 1.965 1_545 S
O507 C518 1.260 . S
O508 Zn501 1.969 . S
O508 C518 1.258 1_554 S
C509 O506 1.267 . S
C509 O510 1.228 . S
O510 C509 1.228 . S
O511 Zn500 2.024 . S
O511 C502 1.058 . S
C512 O513 1.228 . S
C512 O514 1.267 . S
O513 C512 1.228 . S
O514 Zn501 1.969 . S
O514 C512 1.267 . S
O515 Zn501 1.965 1_565 S
O515 C519 1.260 . S
O516 Zn500 1.969 . S
O516 C519 1.258 1_556 S
O517 Zn501 2.024 . S
O517 C504 1.058 . S
C518 O507 1.260 . S
C518 O508 1.258 1_556 S
C519 O515 1.260 . S
C519 O516 1.258 1_554 S
Zn520 O526 1.969 . S
Zn520 O527 1.965 . S
Zn520 O531 2.024 . S
Zn520 O536 1.969 . S
Zn521 O528 1.969 . S
Zn521 O534 1.969 . S
Zn521 O535 1.965 . S
Zn521 O537 2.024 . S
C522 O523 1.229 . S
C522 O531 1.058 . S
O523 C522 1.229 . S
C524 O525 1.229 . S
C524 O537 1.058 . S
O525 C524 1.229 . S
O526 Zn520 1.969 . S
O526 C529 1.267 . S
O527 Zn520 1.965 . S
O527 C538 1.260 . S
O528 Zn521 1.969 . S
O528 C538 1.258 . S
C529 O526 1.267 . S
C529 O530 1.228 . S
O530 C529 1.228 . S
O531 Zn520 2.024 . S
O531 C522 1.058 . S
C532 O533 1.228 . S
C532 O534 1.267 . S
O533 C532 1.228 . S
O534 Zn521 1.969 . S
O534 C532 1.267 . S
O535 Zn521 1.965 . S
O535 C539 1.260 . S
O536 Zn520 1.969 . S
O536 C539 1.258 . S
O537 Zn521 2.024 . S
O537 C524 1.058 . S
C538 O527 1.260 . S
C538 O528 1.258 . S
C539 O535 1.260 . S
C539 O536 1.258 . S
Zn540 O546 1.969 . S
Zn540 O547 1.965 1_556 S
Zn540 O551 2.024 . S
Zn540 O556 1.991 . S
Zn541 O548 2.000 . S
Zn541 O554 1.969 . S
Zn541 O555 1.965 1_554 S
Zn541 O557 2.024 . S
C542 O543 1.229 . S
C542 O551 1.058 . S
O543 C542 1.229 . S
C544 O545 1.229 . S
C544 O557 1.058 . S
O545 C544 1.229 . S
O546 Zn540 1.969 . S
O546 C549 1.267 . S
O547 Zn540 1.965 1_554 S
O547 C558 1.260 . S
O548 Zn541 2.000 . S
O548 C558 1.227 1_455 S
C549 O546 1.267 . S
C549 O550 1.228 . S
O550 C549 1.228 . S
O551 Zn540 2.024 . S
O551 C542 1.058 . S
C552 O553 1.228 . S
C552 O554 1.267 . S
O553 C552 1.228 . S
O554 Zn541 1.969 . S
O554 C552 1.267 . S
O555 Zn541 1.965 1_556 S
O555 C559 1.260 . S
O556 Zn540 1.991 . S
O556 C559 1.237 1_655 S
O557 Zn541 2.024 . S
O557 C544 1.058 . S
C558 O547 1.260 . S
C558 O548 1.227 1_655 S
C559 O555 1.260 . S
C559 O556 1.237 1_455 S
H560 C578 0.951 . S
H561 C580 0.951 . S
H562 C582 0.950 . S
H563 C583 0.950 . S
H564 C585 0.950 . S
H565 C588 0.950 . S
H566 C589 0.950 . S
H567 C591 0.950 . S
H568 C592 0.950 . S
H569 C593 0.951 . S
H570 C595 0.951 . S
H571 C597 0.950 . S
H572 C598 0.950 . S
H573 C600 0.950 . S
H574 C603 0.950 . S
H575 C604 0.950 . S
H576 C606 0.950 . S
H577 C607 0.950 . S
C578 H560 0.951 . S
C578 C579 1.366 . S
C578 C580 1.388 . S
C579 C578 1.366 . S
C579 C583 1.385 . S
C580 H561 0.951 . S
C580 C578 1.388 . S
C580 C581 1.366 . S
C581 C580 1.366 . S
C581 C582 1.414 . S
C581 C584 1.499 . S
C582 H562 0.950 . S
C582 C581 1.414 . S
C582 C583 1.374 . S
C583 H563 0.950 . S
C583 C579 1.385 . S
C583 C582 1.374 . S
C584 C581 1.499 . S
C584 C585 1.373 . S
C584 C586 1.389 . S
C585 H564 0.950 . S
C585 C584 1.373 . S
C585 C601 1.377 . S
C586 C584 1.389 . S
C586 C587 1.524 . S
C586 C600 1.377 . S
C587 C586 1.524 . S
C587 C588 1.397 . S
C587 C592 1.363 . S
C588 H565 0.950 . S
C588 C587 1.397 . S
C588 C589 1.334 . S
C589 H566 0.950 . S
C589 C588 1.334 . S
C589 C590 1.287 . S
C590 C589 1.287 . S
C590 C591 1.524 . S
C590 H609 0.913 . S
C591 H567 0.950 . S
C591 C590 1.524 . S
C591 C592 1.415 . S
C592 H568 0.950 . S
C592 C587 1.363 . S
C592 C591 1.415 . S
C593 H569 0.951 . S
C593 C594 1.366 . S
C593 C595 1.388 . S
C594 C593 1.366 . S
C594 C598 1.385 . S
C595 H570 0.951 . S
C595 C593 1.388 . S
C595 C596 1.366 . S
C596 C595 1.366 . S
C596 C597 1.414 . S
C596 C599 1.499 . S
C597 H571 0.950 . S
C597 C596 1.414 . S
C597 C598 1.374 . S
C598 H572 0.950 . S
C598 C594 1.385 . S
C598 C597 1.374 . S
C599 C596 1.499 . S
C599 C600 1.373 . S
C599 C601 1.389 . S
C600 H573 0.950 . S
C600 C586 1.377 . S
C600 C599 1.373 . S
C601 C585 1.377 . S
C601 C599 1.389 . S
C601 C602 1.524 . S
C602 C601 1.524 . S
C602 C603 1.397 . S
C602 C607 1.363 . S
C603 H574 0.950 . S
C603 C602 1.397 . S
C603 C604 1.334 . S
C604 H575 0.950 . S
C604 C603 1.334 . S
C604 C605 1.287 . S
C605 C604 1.287 . S
C605 C606 1.524 . S
C605 H608 0.999 . S
C606 H576 0.950 . S
C606 C605 1.524 . S
C606 C607 1.415 . S
C607 H577 0.950 . S
C607 C602 1.363 . S
C607 C606 1.415 . S
H608 C605 0.999 . S
H609 C590 0.913 . S
H610 C628 0.951 . S
H611 C630 0.951 . S
H612 C632 0.950 . S
H613 C633 0.950 . S
H614 C635 0.950 . S
H615 C638 0.950 . S
H616 C639 0.950 . S
H617 C641 0.950 1_545 S
H618 C642 0.950 . S
H619 C643 0.951 . S
H620 C645 0.951 . S
H621 C647 0.950 . S
H622 C648 0.950 . S
H623 C650 0.950 . S
H624 C653 0.950 . S
H625 C654 0.950 . S
H626 C656 0.950 . S
H627 C657 0.950 . S
C628 H610 0.951 . S
C628 C629 1.366 . S
C628 C630 1.388 . S
C629 C628 1.366 . S
C629 C633 1.385 . S
C630 H611 0.951 . S
C630 C628 1.388 . S
C630 C631 1.366 . S
C631 C630 1.366 . S
C631 C632 1.414 . S
C631 C634 1.499 . S
C632 H612 0.950 . S
C632 C631 1.414 . S
C632 C633 1.374 . S
C633 H613 0.950 . S
C633 C629 1.385 . S
C633 C632 1.374 . S
C634 C631 1.499 . S
C634 C635 1.373 . S
C634 C636 1.389 . S
C635 H614 0.950 . S
C635 C634 1.373 . S
C635 C651 1.377 . S
C636 C634 1.389 . S
C636 C637 1.524 . S
C636 C650 1.377 . S
C637 C636 1.524 . S
C637 C638 1.397 . S
C637 C642 1.363 . S
C638 H615 0.950 . S
C638 C637 1.397 . S
C638 C639 1.334 . S
C639 H616 0.950 . S
C639 C638 1.334 . S
C639 C640 1.287 . S
C640 C639 1.287 . S
C640 C641 1.524 . S
C640 H659 0.913 1_565 S
C641 H617 0.950 1_565 S
C641 C640 1.524 . S
C641 C642 1.415 . S
C642 H618 0.950 . S
C642 C637 1.363 . S
C642 C641 1.415 . S
C643 H619 0.951 . S
C643 C644 1.366 . S
C643 C645 1.388 . S
C644 C643 1.366 . S
C644 C648 1.385 . S
C645 H620 0.951 . S
C645 C643 1.388 . S
C645 C646 1.366 . S
C646 C645 1.366 . S
C646 C647 1.414 . S
C646 C649 1.499 . S
C647 H621 0.950 . S
C647 C646 1.414 . S
C647 C648 1.374 . S
C648 H622 0.950 . S
C648 C644 1.385 . S
C648 C647 1.374 . S
C649 C646 1.499 . S
C649 C650 1.373 . S
C649 C651 1.389 . S
C650 H623 0.950 . S
C650 C636 1.377 . S
C650 C649 1.373 . S
C651 C635 1.377 . S
C651 C649 1.389 . S
C651 C652 1.524 . S
C652 C651 1.524 . S
C652 C653 1.397 . S
C652 C657 1.363 . S
C653 H624 0.950 . S
C653 C652 1.397 . S
C653 C654 1.334 . S
C654 H625 0.950 . S
C654 C653 1.334 . S
C654 C655 1.287 . S
C655 C654 1.287 . S
C655 C656 1.524 . S
C655 H658 0.999 . S
C656 H626 0.950 . S
C656 C655 1.524 . S
C656 C657 1.415 . S
C657 H627 0.950 . S
C657 C652 1.363 . S
C657 C656 1.415 . S
H658 C655 0.999 . S
H659 C640 0.913 1_545 S
H660 C678 0.951 . S
H661 C680 0.951 . S
H662 C682 0.950 . S
H663 C683 0.950 . S
H664 C685 0.950 . S
H665 C688 0.950 . S
H666 C689 0.950 . S
H667 C691 0.950 . S
H668 C692 0.950 . S
H669 C693 0.951 . S
H670 C695 0.951 . S
H671 C697 0.950 . S
H672 C698 0.950 . S
H673 C700 0.950 . S
H674 C703 0.950 . S
H675 C704 0.950 . S
H676 C706 0.950 . S
H677 C707 0.950 . S
C678 H660 0.951 . S
C678 C679 1.366 . S
C678 C680 1.388 . S
C679 C678 1.366 . S
C679 C683 1.385 . S
C680 H661 0.951 . S
C680 C678 1.388 . S
C680 C681 1.366 . S
C681 C680 1.366 . S
C681 C682 1.414 . S
C681 C684 1.499 . S
C682 H662 0.950 . S
C682 C681 1.414 . S
C682 C683 1.374 . S
C683 H663 0.950 . S
C683 C679 1.385 . S
C683 C682 1.374 . S
C684 C681 1.499 . S
C684 C685 1.373 . S
C684 C686 1.389 . S
C685 H664 0.950 . S
C685 C684 1.373 . S
C685 C701 1.377 . S
C686 C684 1.389 . S
C686 C687 1.524 . S
C686 C700 1.377 . S
C687 C686 1.524 . S
C687 C688 1.397 . S
C687 C692 1.363 . S
C688 H665 0.950 . S
C688 C687 1.397 . S
C688 C689 1.334 . S
C689 H666 0.950 . S
C689 C688 1.334 . S
C689 C690 1.287 . S
C690 C689 1.287 . S
C690 C691 1.524 . S
C690 H709 0.913 . S
C691 H667 0.950 . S
C691 C690 1.524 . S
C691 C692 1.415 . S
C692 H668 0.950 . S
C692 C687 1.363 . S
C692 C691 1.415 . S
C693 H669 0.951 . S
C693 C694 1.366 . S
C693 C695 1.388 . S
C694 C693 1.366 . S
C694 C698 1.385 . S
C695 H670 0.951 . S
C695 C693 1.388 . S
C695 C696 1.366 . S
C696 C695 1.366 . S
C696 C697 1.414 . S
C696 C699 1.499 . S
C697 H671 0.950 . S
C697 C696 1.414 . S
C697 C698 1.374 . S
C698 H672 0.950 . S
C698 C694 1.385 . S
C698 C697 1.374 . S
C699 C696 1.499 . S
C699 C700 1.373 . S
C699 C701 1.389 . S
C700 H673 0.950 . S
C700 C686 1.377 . S
C700 C699 1.373 . S
C701 C685 1.377 . S
C701 C699 1.389 . S
C701 C702 1.524 . S
C702 C701 1.524 . S
C702 C703 1.397 . S
C702 C707 1.363 . S
C703 H674 0.950 . S
C703 C702 1.397 . S
C703 C704 1.334 . S
C704 H675 0.950 . S
C704 C703 1.334 . S
C704 C705 1.287 . S
C705 C704 1.287 . S
C705 C706 1.524 . S
C705 H708 0.999 . S
C706 H676 0.950 . S
C706 C705 1.524 . S
C706 C707 1.415 . S
C707 H677 0.950 . S
C707 C702 1.363 . S
C707 C706 1.415 . S
H708 C705 0.999 . S
H709 C690 0.913 . S
H710 C728 0.951 . S
H711 C730 0.951 . S
H712 C732 0.950 . S
H713 C733 0.950 . S
H714 C735 0.950 . S
H715 C738 0.950 . S
H716 C739 0.950 . S
H717 C741 0.950 . S
H718 C742 0.950 . S
H719 C743 0.951 . S
H720 C745 0.951 . S
H721 C747 0.950 . S
H722 C748 0.950 . S
H723 C750 0.950 . S
H724 C753 0.950 . S
H725 C754 0.950 . S
H726 C756 0.950 . S
H727 C757 0.950 . S
C728 H710 0.951 . S
C728 C729 1.366 . S
C728 C730 1.388 . S
C729 C728 1.366 . S
C729 C733 1.385 . S
C730 H711 0.951 . S
C730 C728 1.388 . S
C730 C731 1.366 . S
C731 C730 1.366 . S
C731 C732 1.414 . S
C731 C734 1.499 . S
C732 H712 0.950 . S
C732 C731 1.414 . S
C732 C733 1.374 . S
C733 H713 0.950 . S
C733 C729 1.385 . S
C733 C732 1.374 . S
C734 C731 1.499 . S
C734 C735 1.373 . S
C734 C736 1.389 . S
C735 H714 0.950 . S
C735 C734 1.373 . S
C735 C751 1.377 . S
C736 C734 1.389 . S
C736 C737 1.524 . S
C736 C750 1.377 . S
C737 C736 1.524 . S
C737 C738 1.397 . S
C737 C742 1.363 . S
C738 H715 0.950 . S
C738 C737 1.397 . S
C738 C739 1.334 . S
C739 H716 0.950 . S
C739 C738 1.334 . S
C739 C740 1.287 . S
C740 C739 1.287 . S
C740 C741 1.524 . S
C740 H759 0.913 . S
C741 H717 0.950 . S
C741 C740 1.524 . S
C741 C742 1.415 . S
C742 H718 0.950 . S
C742 C737 1.363 . S
C742 C741 1.415 . S
C743 H719 0.951 . S
C743 C744 1.366 . S
C743 C745 1.388 . S
C744 C743 1.366 . S
C744 C748 1.385 . S
C745 H720 0.951 . S
C745 C743 1.388 . S
C745 C746 1.366 . S
C746 C745 1.366 . S
C746 C747 1.414 . S
C746 C749 1.499 . S
C747 H721 0.950 . S
C747 C746 1.414 . S
C747 C748 1.374 . S
C748 H722 0.950 . S
C748 C744 1.385 . S
C748 C747 1.374 . S
C749 C746 1.499 . S
C749 C750 1.373 . S
C749 C751 1.389 . S
C750 H723 0.950 . S
C750 C736 1.377 . S
C750 C749 1.373 . S
C751 C735 1.377 . S
C751 C749 1.389 . S
C751 C752 1.524 . S
C752 C751 1.524 . S
C752 C753 1.397 . S
C752 C757 1.363 . S
C753 H724 0.950 . S
C753 C752 1.397 . S
C753 C754 1.334 . S
C754 H725 0.950 . S
C754 C753 1.334 . S
C754 C755 1.287 . S
C755 C754 1.287 . S
C755 C756 1.524 . S
C755 H758 0.999 . S
C756 H726 0.950 . S
C756 C755 1.524 . S
C756 C757 1.415 . S
C757 H727 0.950 . S
C757 C752 1.363 . S
C757 C756 1.415 . S
H758 C755 0.999 . S
H759 C740 0.913 . S
H760 C778 0.951 . S
H761 C780 0.951 . S
H762 C782 0.950 . S
H763 C783 0.950 . S
H764 C785 0.950 . S
H765 C788 0.950 . S
H766 C789 0.950 . S
H767 C791 0.950 . S
H768 C792 0.950 . S
H769 C793 0.951 . S
H770 C795 0.951 . S
H771 C797 0.950 . S
H772 C798 0.950 . S
H773 C800 0.950 . S
H774 C803 0.950 . S
H775 C804 0.950 . S
H776 C806 0.950 . S
H777 C807 0.950 . S
C778 H760 0.951 . S
C778 C779 1.366 . S
C778 C780 1.388 . S
C779 C778 1.366 . S
C779 C783 1.385 . S
C780 H761 0.951 . S
C780 C778 1.388 . S
C780 C781 1.366 . S
C781 C780 1.366 . S
C781 C782 1.414 . S
C781 C784 1.499 . S
C782 H762 0.950 . S
C782 C781 1.414 . S
C782 C783 1.374 . S
C783 H763 0.950 . S
C783 C779 1.385 . S
C783 C782 1.374 . S
C784 C781 1.499 . S
C784 C785 1.373 . S
C784 C786 1.389 . S
C785 H764 0.950 . S
C785 C784 1.373 . S
C785 C801 1.377 . S
C786 C784 1.389 . S
C786 C787 1.524 . S
C786 C800 1.377 . S
C787 C786 1.524 . S
C787 C788 1.397 . S
C787 C792 1.363 . S
C788 H765 0.950 . S
C788 C787 1.397 . S
C788 C789 1.334 . S
C789 H766 0.950 . S
C789 C788 1.334 . S
C789 C790 1.287 . S
C790 C789 1.287 . S
C790 C791 1.524 . S
C790 H809 0.913 . S
C791 H767 0.950 . S
C791 C790 1.524 . S
C791 C792 1.415 . S
C792 H768 0.950 . S
C792 C787 1.363 . S
C792 C791 1.415 . S
C793 H769 0.951 . S
C793 C794 1.366 . S
C793 C795 1.388 . S
C794 C793 1.366 . S
C794 C798 1.385 . S
C795 H770 0.951 . S
C795 C793 1.388 . S
C795 C796 1.366 . S
C796 C795 1.366 . S
C796 C797 1.414 . S
C796 C799 1.499 . S
C797 H771 0.950 . S
C797 C796 1.414 . S
C797 C798 1.374 . S
C798 H772 0.950 . S
C798 C794 1.385 . S
C798 C797 1.374 . S
C799 C796 1.499 . S
C799 C800 1.373 . S
C799 C801 1.389 . S
C800 H773 0.950 . S
C800 C786 1.377 . S
C800 C799 1.373 . S
C801 C785 1.377 . S
C801 C799 1.389 . S
C801 C802 1.524 . S
C802 C801 1.524 . S
C802 C803 1.397 . S
C802 C807 1.363 . S
C803 H774 0.950 . S
C803 C802 1.397 . S
C803 C804 1.334 . S
C804 H775 0.950 . S
C804 C803 1.334 . S
C804 C805 1.287 . S
C805 C804 1.287 . S
C805 C806 1.524 . S
C805 H808 0.999 . S
C806 H776 0.950 . S
C806 C805 1.524 . S
C806 C807 1.415 . S
C807 H777 0.950 . S
C807 C802 1.363 . S
C807 C806 1.415 . S
H808 C805 0.999 . S
H809 C790 0.913 . S
H810 C828 0.951 . S
H811 C830 0.951 . S
H812 C832 0.950 . S
H813 C833 0.950 . S
H814 C835 0.950 . S
H815 C838 0.950 . S
H816 C839 0.950 . S
H817 C841 0.950 . S
H818 C842 0.950 . S
H819 C843 0.951 . S
H820 C845 0.951 . S
H821 C847 0.950 . S
H822 C848 0.950 . S
H823 C850 0.950 . S
H824 C853 0.950 . S
H825 C854 0.950 . S
H826 C856 0.950 . S
H827 C857 0.950 . S
C828 H810 0.951 . S
C828 C829 1.366 . S
C828 C830 1.388 . S
C829 C828 1.366 . S
C829 C833 1.385 . S
C830 H811 0.951 . S
C830 C828 1.388 . S
C830 C831 1.366 . S
C831 C830 1.366 . S
C831 C832 1.414 . S
C831 C834 1.499 . S
C832 H812 0.950 . S
C832 C831 1.414 . S
C832 C833 1.374 . S
C833 H813 0.950 . S
C833 C829 1.385 . S
C833 C832 1.374 . S
C834 C831 1.499 . S
C834 C835 1.373 . S
C834 C836 1.389 . S
C835 H814 0.950 . S
C835 C834 1.373 . S
C835 C851 1.377 . S
C836 C834 1.389 . S
C836 C837 1.524 . S
C836 C850 1.377 . S
C837 C836 1.524 . S
C837 C838 1.397 . S
C837 C842 1.363 . S
C838 H815 0.950 . S
C838 C837 1.397 . S
C838 C839 1.334 . S
C839 H816 0.950 . S
C839 C838 1.334 . S
C839 C840 1.287 . S
C840 C839 1.287 . S
C840 C841 1.524 . S
C840 H859 0.913 . S
C841 H817 0.950 . S
C841 C840 1.524 . S
C841 C842 1.415 . S
C842 H818 0.950 . S
C842 C837 1.363 . S
C842 C841 1.415 . S
C843 H819 0.951 . S
C843 C844 1.366 . S
C843 C845 1.388 . S
C844 C843 1.366 . S
C844 C848 1.385 . S
C845 H820 0.951 . S
C845 C843 1.388 . S
C845 C846 1.366 . S
C846 C845 1.366 . S
C846 C847 1.414 . S
C846 C849 1.499 . S
C847 H821 0.950 . S
C847 C846 1.414 . S
C847 C848 1.374 . S
C848 H822 0.950 . S
C848 C844 1.385 . S
C848 C847 1.374 . S
C849 C846 1.499 . S
C849 C850 1.373 . S
C849 C851 1.389 . S
C850 H823 0.950 . S
C850 C836 1.377 . S
C850 C849 1.373 . S
C851 C835 1.377 . S
C851 C849 1.389 . S
C851 C852 1.524 . S
C852 C851 1.524 . S
C852 C853 1.397 . S
C852 C857 1.363 . S
C853 H824 0.950 . S
C853 C852 1.397 . S
C853 C854 1.334 . S
C854 H825 0.950 . S
C854 C853 1.334 . S
C854 C855 1.287 . S
C855 C854 1.287 . S
C855 C856 1.524 . S
C855 H858 0.999 . S
C856 H826 0.950 . S
C856 C855 1.524 . S
C856 C857 1.415 . S
C857 H827 0.950 . S
C857 C852 1.363 . S
C857 C856 1.415 . S
H858 C855 0.999 . S
H859 C840 0.913 . S
H860 C878 0.951 . S
H861 C880 0.951 . S
H862 C882 0.950 . S
H863 C883 0.950 . S
H864 C885 0.950 . S
H865 C888 0.950 . S
H866 C889 0.950 . S
H867 C891 0.950 . S
H868 C892 0.950 . S
H869 C893 0.951 . S
H870 C895 0.951 . S
H871 C897 0.950 . S
H872 C898 0.950 . S
H873 C900 0.950 . S
H874 C903 0.950 . S
H875 C904 0.950 . S
H876 C906 0.950 . S
H877 C907 0.950 . S
C878 H860 0.951 . S
C878 C879 1.366 . S
C878 C880 1.388 . S
C879 C878 1.366 . S
C879 C883 1.385 . S
C880 H861 0.951 . S
C880 C878 1.388 . S
C880 C881 1.366 . S
C881 C880 1.366 . S
C881 C882 1.414 . S
C881 C884 1.499 . S
C882 H862 0.950 . S
C882 C881 1.414 . S
C882 C883 1.374 . S
C883 H863 0.950 . S
C883 C879 1.385 . S
C883 C882 1.374 . S
C884 C881 1.499 . S
C884 C885 1.373 . S
C884 C886 1.389 . S
C885 H864 0.950 . S
C885 C884 1.373 . S
C885 C901 1.377 . S
C886 C884 1.389 . S
C886 C887 1.524 . S
C886 C900 1.377 . S
C887 C886 1.524 . S
C887 C888 1.397 . S
C887 C892 1.363 . S
C888 H865 0.950 . S
C888 C887 1.397 . S
C888 C889 1.334 . S
C889 H866 0.950 . S
C889 C888 1.334 . S
C889 C890 1.287 . S
C890 C889 1.287 . S
C890 C891 1.524 . S
C890 H909 0.913 . S
C891 H867 0.950 . S
C891 C890 1.524 . S
C891 C892 1.415 . S
C892 H868 0.950 . S
C892 C887 1.363 . S
C892 C891 1.415 . S
C893 H869 0.951 . S
C893 C894 1.366 . S
C893 C895 1.388 . S
C894 C893 1.366 . S
C894 C898 1.385 . S
C895 H870 0.951 . S
C895 C893 1.388 . S
C895 C896 1.366 . S
C896 C895 1.366 . S
C896 C897 1.414 . S
C896 C899 1.499 . S
C897 H871 0.950 . S
C897 C896 1.414 . S
C897 C898 1.374 . S
C898 H872 0.950 . S
C898 C894 1.385 . S
C898 C897 1.374 . S
C899 C896 1.499 . S
C899 C900 1.373 . S
C899 C901 1.389 . S
C900 H873 0.950 . S
C900 C886 1.377 . S
C900 C899 1.373 . S
C901 C885 1.377 . S
C901 C899 1.389 . S
C901 C902 1.524 . S
C902 C901 1.524 . S
C902 C903 1.397 . S
C902 C907 1.363 . S
C903 H874 0.950 . S
C903 C902 1.397 . S
C903 C904 1.334 . S
C904 H875 0.950 . S
C904 C903 1.334 . S
C904 C905 1.287 . S
C905 C904 1.287 . S
C905 C906 1.524 . S
C905 H908 0.999 . S
C906 H876 0.950 . S
C906 C905 1.524 . S
C906 C907 1.415 . S
C907 H877 0.950 . S
C907 C902 1.363 . S
C907 C906 1.415 . S
H908 C905 0.999 . S
H909 C890 0.913 . S
H910 C928 0.951 . S
H911 C930 0.951 . S
H912 C932 0.950 . S
H913 C933 0.950 . S
H914 C935 0.950 . S
H915 C938 0.950 . S
H916 C939 0.950 . S
H917 C941 0.950 . S
H918 C942 0.950 . S
H919 C943 0.951 . S
H920 C945 0.951 . S
H921 C947 0.950 . S
H922 C948 0.950 . S
H923 C950 0.950 . S
H924 C953 0.950 . S
H925 C954 0.950 . S
H926 C956 0.950 . S
H927 C957 0.950 . S
C928 H910 0.951 . S
C928 C929 1.366 . S
C928 C930 1.388 . S
C929 C928 1.366 . S
C929 C933 1.385 . S
C930 H911 0.951 . S
C930 C928 1.388 . S
C930 C931 1.366 . S
C931 C930 1.366 . S
C931 C932 1.414 . S
C931 C934 1.499 . S
C932 H912 0.950 . S
C932 C931 1.414 . S
C932 C933 1.374 . S
C933 H913 0.950 . S
C933 C929 1.385 . S
C933 C932 1.374 . S
C934 C931 1.499 . S
C934 C935 1.373 . S
C934 C936 1.389 . S
C935 H914 0.950 . S
C935 C934 1.373 . S
C935 C951 1.377 . S
C936 C934 1.389 . S
C936 C937 1.524 . S
C936 C950 1.377 . S
C937 C936 1.524 . S
C937 C938 1.397 . S
C937 C942 1.363 . S
C938 H915 0.950 . S
C938 C937 1.397 . S
C938 C939 1.334 . S
C939 H916 0.950 . S
C939 C938 1.334 . S
C939 C940 1.287 . S
C940 C939 1.287 . S
C940 C941 1.524 . S
C940 H959 0.913 . S
C941 H917 0.950 . S
C941 C940 1.524 . S
C941 C942 1.415 . S
C942 H918 0.950 . S
C942 C937 1.363 . S
C942 C941 1.415 . S
C943 H919 0.951 . S
C943 C944 1.366 . S
C943 C945 1.388 . S
C944 C943 1.366 . S
C944 C948 1.385 . S
C945 H920 0.951 . S
C945 C943 1.388 . S
C945 C946 1.366 . S
C946 C945 1.366 . S
C946 C947 1.414 . S
C946 C949 1.499 . S
C947 H921 0.950 . S
C947 C946 1.414 . S
C947 C948 1.374 . S
C948 H922 0.950 . S
C948 C944 1.385 . S
C948 C947 1.374 . S
C949 C946 1.499 . S
C949 C950 1.373 . S
C949 C951 1.389 . S
C950 H923 0.950 . S
C950 C936 1.377 . S
C950 C949 1.373 . S
C951 C935 1.377 . S
C951 C949 1.389 . S
C951 C952 1.524 . S
C952 C951 1.524 . S
C952 C953 1.397 . S
C952 C957 1.363 . S
C953 H924 0.950 . S
C953 C952 1.397 . S
C953 C954 1.334 . S
C954 H925 0.950 . S
C954 C953 1.334 . S
C954 C955 1.287 . S
C955 C954 1.287 . S
C955 C956 1.524 . S
C955 H958 0.999 . S
C956 H926 0.950 . S
C956 C955 1.524 . S
C956 C957 1.415 . S
C957 H927 0.950 . S
C957 C952 1.363 . S
C957 C956 1.415 . S
H958 C955 0.999 . S
H959 C940 0.913 . S
H960 C978 0.951 . S
H961 C980 0.951 . S
H962 C982 0.950 . S
H963 C983 0.950 . S
H964 C985 0.950 . S
H965 C988 0.950 . S
H966 C989 0.950 . S
H967 C991 0.950 . S
H968 C992 0.950 . S
H969 C993 0.951 . S
H970 C995 0.951 . S
H971 C997 0.950 . S
H972 C998 0.950 . S
H973 C1000 0.950 . S
H974 C1003 0.950 . S
H975 C1004 0.950 . S
H976 C1006 0.950 . S
H977 C1007 0.950 . S
C978 H960 0.951 . S
C978 C979 1.366 . S
C978 C980 1.388 . S
C979 C978 1.366 . S
C979 C983 1.385 . S
C980 H961 0.951 . S
C980 C978 1.388 . S
C980 C981 1.366 . S
C981 C980 1.366 . S
C981 C982 1.414 . S
C981 C984 1.499 . S
C982 H962 0.950 . S
C982 C981 1.414 . S
C982 C983 1.374 . S
C983 H963 0.950 . S
C983 C979 1.385 . S
C983 C982 1.374 . S
C984 C981 1.499 . S
C984 C985 1.373 . S
C984 C986 1.389 . S
C985 H964 0.950 . S
C985 C984 1.373 . S
C985 C1001 1.377 . S
C986 C984 1.389 . S
C986 C987 1.524 . S
C986 C1000 1.377 . S
C987 C986 1.524 . S
C987 C988 1.397 . S
C987 C992 1.363 . S
C988 H965 0.950 . S
C988 C987 1.397 . S
C988 C989 1.334 . S
C989 H966 0.950 . S
C989 C988 1.334 . S
C989 C990 1.287 . S
C990 C989 1.287 . S
C990 C991 1.524 . S
C990 H1009 0.913 . S
C991 H967 0.950 . S
C991 C990 1.524 . S
C991 C992 1.415 . S
C992 H968 0.950 . S
C992 C987 1.363 . S
C992 C991 1.415 . S
C993 H969 0.951 . S
C993 C994 1.366 . S
C993 C995 1.388 . S
C994 C993 1.366 . S
C994 C998 1.385 . S
C995 H970 0.951 . S
C995 C993 1.388 . S
C995 C996 1.366 . S
C996 C995 1.366 . S
C996 C997 1.414 . S
C996 C999 1.499 . S
C997 H971 0.950 . S
C997 C996 1.414 . S
C997 C998 1.374 . S
C998 H972 0.950 . S
C998 C994 1.385 . S
C998 C997 1.374 . S
C999 C996 1.499 . S
C999 C1000 1.373 . S
C999 C1001 1.389 . S
C1000 H973 0.950 . S
C1000 C986 1.377 . S
C1000 C999 1.373 . S
C1001 C985 1.377 . S
C1001 C999 1.389 . S
C1001 C1002 1.524 . S
C1002 C1001 1.524 . S
C1002 C1003 1.397 . S
C1002 C1007 1.363 . S
C1003 H974 0.950 . S
C1003 C1002 1.397 . S
C1003 C1004 1.334 . S
C1004 H975 0.950 . S
C1004 C1003 1.334 . S
C1004 C1005 1.287 . S
C1005 C1004 1.287 . S
C1005 C1006 1.524 . S
C1005 H1008 0.999 1_554 S
C1006 H976 0.950 . S
C1006 C1005 1.524 . S
C1006 C1007 1.415 . S
C1007 H977 0.950 . S
C1007 C1002 1.363 . S
C1007 C1006 1.415 . S
H1008 C1005 0.999 1_556 S
H1009 C990 0.913 . S
H1010 C1028 0.951 . S
H1011 C1030 0.951 . S
H1012 C1032 0.950 . S
H1013 C1033 0.950 . S
H1014 C1035 0.950 . S
H1015 C1038 0.950 . S
H1016 C1039 0.950 . S
H1017 C1041 0.950 . S
H1018 C1042 0.950 . S
H1019 C1043 0.951 . S
H1020 C1045 0.951 . S
H1021 C1047 0.950 . S
H1022 C1048 0.950 . S
H1023 C1050 0.950 . S
H1024 C1053 0.950 . S
H1025 C1054 0.950 . S
H1026 C1056 0.950 . S
H1027 C1057 0.950 . S
C1028 H1010 0.951 . S
C1028 C1029 1.366 . S
C1028 C1030 1.388 . S
C1029 C1028 1.366 . S
C1029 C1033 1.385 . S
C1030 H1011 0.951 . S
C1030 C1028 1.388 . S
C1030 C1031 1.366 . S
C1031 C1030 1.366 . S
C1031 C1032 1.414 . S
C1031 C1034 1.499 . S
C1032 H1012 0.950 . S
C1032 C1031 1.414 . S
C1032 C1033 1.374 . S
C1033 H1013 0.950 . S
C1033 C1029 1.385 . S
C1033 C1032 1.374 . S
C1034 C1031 1.499 . S
C1034 C1035 1.373 . S
C1034 C1036 1.389 . S
C1035 H1014 0.950 . S
C1035 C1034 1.373 . S
C1035 C1051 1.377 . S
C1036 C1034 1.389 . S
C1036 C1037 1.524 . S
C1036 C1050 1.377 . S
C1037 C1036 1.524 . S
C1037 C1038 1.397 . S
C1037 C1042 1.363 . S
C1038 H1015 0.950 . S
C1038 C1037 1.397 . S
C1038 C1039 1.334 . S
C1039 H1016 0.950 . S
C1039 C1038 1.334 . S
C1039 C1040 1.287 . S
C1040 C1039 1.287 . S
C1040 C1041 1.524 . S
C1040 H1059 0.913 . S
C1041 H1017 0.950 . S
C1041 C1040 1.524 . S
C1041 C1042 1.415 . S
C1042 H1018 0.950 . S
C1042 C1037 1.363 . S
C1042 C1041 1.415 . S
C1043 H1019 0.951 . S
C1043 C1044 1.366 . S
C1043 C1045 1.388 . S
C1044 C1043 1.366 . S
C1044 C1048 1.385 . S
C1045 H1020 0.951 . S
C1045 C1043 1.388 . S
C1045 C1046 1.366 . S
C1046 C1045 1.366 . S
C1046 C1047 1.414 . S
C1046 C1049 1.499 . S
C1047 H1021 0.950 . S
C1047 C1046 1.414 . S
C1047 C1048 1.374 . S
C1048 H1022 0.950 . S
C1048 C1044 1.385 . S
C1048 C1047 1.374 . S
C1049 C1046 1.499 . S
C1049 C1050 1.373 . S
C1049 C1051 1.389 . S
C1050 H1023 0.950 . S
C1050 C1036 1.377 . S
C1050 C1049 1.373 . S
C1051 C1035 1.377 . S
C1051 C1049 1.389 . S
C1051 C1052 1.524 . S
C1052 C1051 1.524 . S
C1052 C1053 1.397 . S
C1052 C1057 1.363 . S
C1053 H1024 0.950 . S
C1053 C1052 1.397 . S
C1053 C1054 1.334 . S
C1054 H1025 0.950 . S
C1054 C1053 1.334 . S
C1054 C1055 1.287 . S
C1055 C1054 1.287 . S
C1055 C1056 1.524 . S
C1055 H1058 0.999 . S
C1056 H1026 0.950 . S
C1056 C1055 1.524 . S
C1056 C1057 1.415 . S
C1057 H1027 0.950 . S
C1057 C1052 1.363 . S
C1057 C1056 1.415 . S
H1058 C1055 0.999 . S
H1059 C1040 0.913 . S
H1060 C1078 0.951 . S
H1061 C1080 0.951 . S
H1062 C1082 0.950 . S
H1063 C1083 0.950 . S
H1064 C1085 0.950 . S
H1065 C1088 0.950 . S
H1066 C1089 0.950 . S
H1067 C1091 0.950 . S
H1068 C1092 0.950 . S
H1069 C1093 0.951 . S
H1070 C1095 0.951 . S
H1071 C1097 0.950 . S
H1072 C1098 0.950 . S
H1073 C1100 0.950 . S
H1074 C1103 0.950 . S
H1075 C1104 0.950 1_455 S
H1076 C1106 0.950 . S
H1077 C1107 0.950 . S
C1078 H1060 0.951 . S
C1078 C1079 1.366 . S
C1078 C1080 1.388 . S
C1079 C1078 1.366 . S
C1079 C1083 1.385 . S
C1080 H1061 0.951 . S
C1080 C1078 1.388 . S
C1080 C1081 1.366 . S
C1081 C1080 1.366 . S
C1081 C1082 1.414 . S
C1081 C1084 1.499 . S
C1082 H1062 0.950 . S
C1082 C1081 1.414 . S
C1082 C1083 1.374 . S
C1083 H1063 0.950 . S
C1083 C1079 1.385 . S
C1083 C1082 1.374 . S
C1084 C1081 1.499 . S
C1084 C1085 1.373 . S
C1084 C1086 1.389 . S
C1085 H1064 0.950 . S
C1085 C1084 1.373 . S
C1085 C1101 1.377 . S
C1086 C1084 1.389 . S
C1086 C1087 1.524 . S
C1086 C1100 1.377 . S
C1087 C1086 1.524 . S
C1087 C1088 1.397 . S
C1087 C1092 1.363 . S
C1088 H1065 0.950 . S
C1088 C1087 1.397 . S
C1088 C1089 1.334 . S
C1089 H1066 0.950 . S
C1089 C1088 1.334 . S
C1089 C1090 1.287 . S
C1090 C1089 1.287 . S
C1090 C1091 1.524 . S
C1090 H1109 0.913 . S
C1091 H1067 0.950 . S
C1091 C1090 1.524 . S
C1091 C1092 1.415 . S
C1092 H1068 0.950 . S
C1092 C1087 1.363 . S
C1092 C1091 1.415 . S
C1093 H1069 0.951 . S
C1093 C1094 1.366 . S
C1093 C1095 1.388 . S
C1094 C1093 1.366 . S
C1094 C1098 1.385 . S
C1095 H1070 0.951 . S
C1095 C1093 1.388 . S
C1095 C1096 1.366 . S
C1096 C1095 1.366 . S
C1096 C1097 1.414 . S
C1096 C1099 1.499 . S
C1097 H1071 0.950 . S
C1097 C1096 1.414 . S
C1097 C1098 1.374 . S
C1098 H1072 0.950 . S
C1098 C1094 1.385 . S
C1098 C1097 1.374 . S
C1099 C1096 1.499 . S
C1099 C1100 1.373 . S
C1099 C1101 1.389 . S
C1100 H1073 0.950 . S
C1100 C1086 1.377 . S
C1100 C1099 1.373 . S
C1101 C1085 1.377 . S
C1101 C1099 1.389 . S
C1101 C1102 1.524 . S
C1102 C1101 1.524 . S
C1102 C1103 1.397 . S
C1102 C1107 1.363 . S
C1103 H1074 0.950 . S
C1103 C1102 1.397 . S
C1103 C1104 1.334 . S
C1104 H1075 0.950 1_655 S
C1104 C1103 1.334 . S
C1104 C1105 1.287 . S
C1105 C1104 1.287 . S
C1105 C1106 1.524 . S
C1105 H1108 0.999 1_655 S
C1106 H1076 0.950 . S
C1106 C1105 1.524 . S
C1106 C1107 1.415 . S
C1107 H1077 0.950 . S
C1107 C1102 1.363 . S
C1107 C1106 1.415 . S
H1108 C1105 0.999 1_455 S
H1109 C1090 0.913 . S
H1110 C1128 0.951 . S
H1111 C1130 0.951 . S
H1112 C1132 0.950 . S
H1113 C1133 0.950 . S
H1114 C1135 0.950 . S
H1115 C1138 0.950 . S
H1116 C1139 0.950 . S
H1117 C1141 0.950 . S
H1118 C1142 0.950 . S
H1119 C1143 0.951 . S
H1120 C1145 0.951 . S
H1121 C1147 0.950 . S
H1122 C1148 0.950 . S
H1123 C1150 0.950 . S
H1124 C1153 0.950 . S
H1125 C1154 0.950 . S
H1126 C1156 0.950 . S
H1127 C1157 0.950 . S
C1128 H1110 0.951 . S
C1128 C1129 1.366 . S
C1128 C1130 1.388 . S
C1129 C1128 1.366 . S
C1129 C1133 1.385 . S
C1130 H1111 0.951 . S
C1130 C1128 1.388 . S
C1130 C1131 1.366 . S
C1131 C1130 1.366 . S
C1131 C1132 1.414 . S
C1131 C1134 1.499 . S
C1132 H1112 0.950 . S
C1132 C1131 1.414 . S
C1132 C1133 1.374 . S
C1133 H1113 0.950 . S
C1133 C1129 1.385 . S
C1133 C1132 1.374 . S
C1134 C1131 1.499 . S
C1134 C1135 1.373 . S
C1134 C1136 1.389 . S
C1135 H1114 0.950 . S
C1135 C1134 1.373 . S
C1135 C1151 1.377 . S
C1136 C1134 1.389 . S
C1136 C1137 1.524 . S
C1136 C1150 1.377 . S
C1137 C1136 1.524 . S
C1137 C1138 1.397 . S
C1137 C1142 1.363 . S
C1138 H1115 0.950 . S
C1138 C1137 1.397 . S
C1138 C1139 1.334 . S
C1139 H1116 0.950 . S
C1139 C1138 1.334 . S
C1139 C1140 1.287 . S
C1140 C1139 1.287 . S
C1140 C1141 1.524 . S
C1140 H1159 0.913 . S
C1141 H1117 0.950 . S
C1141 C1140 1.524 . S
C1141 C1142 1.415 . S
C1142 H1118 0.950 . S
C1142 C1137 1.363 . S
C1142 C1141 1.415 . S
C1143 H1119 0.951 . S
C1143 C1144 1.366 . S
C1143 C1145 1.388 . S
C1144 C1143 1.366 . S
C1144 C1148 1.385 . S
C1145 H1120 0.951 . S
C1145 C1143 1.388 . S
C1145 C1146 1.366 . S
C1146 C1145 1.366 . S
C1146 C1147 1.414 . S
C1146 C1149 1.499 . S
C1147 H1121 0.950 . S
C1147 C1146 1.414 . S
C1147 C1148 1.374 . S
C1148 H1122 0.950 . S
C1148 C1144 1.385 . S
C1148 C1147 1.374 . S
C1149 C1146 1.499 . S
C1149 C1150 1.373 . S
C1149 C1151 1.389 . S
C1150 H1123 0.950 . S
C1150 C1136 1.377 . S
C1150 C1149 1.373 . S
C1151 C1135 1.377 . S
C1151 C1149 1.389 . S
C1151 C1152 1.524 . S
C1152 C1151 1.524 . S
C1152 C1153 1.397 . S
C1152 C1157 1.363 . S
C1153 H1124 0.950 . S
C1153 C1152 1.397 . S
C1153 C1154 1.334 . S
C1154 H1125 0.950 . S
C1154 C1153 1.334 . S
C1154 C1155 1.287 . S
C1155 C1154 1.287 . S
C1155 C1156 1.524 . S
C1155 H1158 0.999 . S
C1156 H1126 0.950 . S
C1156 C1155 1.524 . S
C1156 C1157 1.415 . S
C1157 H1127 0.950 . S
C1157 C1152 1.363 . S
C1157 C1156 1.415 . S
H1158 C1155 0.999 . S
H1159 C1140 0.913 . S
H1160 C1178 0.951 . S
H1161 C1180 0.951 . S
H1162 C1182 0.950 . S
H1163 C1183 0.950 . S
H1164 C1185 0.950 . S
H1165 C1188 0.950 . S
H1166 C1189 0.950 . S
H1167 C1191 0.950 . S
H1168 C1192 0.950 . S
H1169 C1193 0.951 . S
H1170 C1195 0.951 . S
H1171 C1197 0.950 . S
H1172 C1198 0.950 . S
H1173 C1200 0.950 . S
H1174 C1203 0.950 . S
H1175 C1204 0.950 . S
H1176 C1206 0.950 . S
H1177 C1207 0.950 . S
C1178 H1160 0.951 . S
C1178 C1179 1.366 . S
C1178 C1180 1.388 . S
C1179 C1178 1.366 . S
C1179 C1183 1.385 . S
C1180 H1161 0.951 . S
C1180 C1178 1.388 . S
C1180 C1181 1.366 . S
C1181 C1180 1.366 . S
C1181 C1182 1.414 . S
C1181 C1184 1.499 . S
C1182 H1162 0.950 . S
C1182 C1181 1.414 . S
C1182 C1183 1.374 . S
C1183 H1163 0.950 . S
C1183 C1179 1.385 . S
C1183 C1182 1.374 . S
C1184 C1181 1.499 . S
C1184 C1185 1.373 . S
C1184 C1186 1.389 . S
C1185 H1164 0.950 . S
C1185 C1184 1.373 . S
C1185 C1201 1.377 . S
C1186 C1184 1.389 . S
C1186 C1187 1.524 . S
C1186 C1200 1.377 . S
C1187 C1186 1.524 . S
C1187 C1188 1.397 . S
C1187 C1192 1.363 . S
C1188 H1165 0.950 . S
C1188 C1187 1.397 . S
C1188 C1189 1.334 . S
C1189 H1166 0.950 . S
C1189 C1188 1.334 . S
C1189 C1190 1.287 . S
C1190 C1189 1.287 . S
C1190 C1191 1.524 . S
C1190 H1209 0.913 . S
C1191 H1167 0.950 . S
C1191 C1190 1.524 . S
C1191 C1192 1.415 . S
C1192 H1168 0.950 . S
C1192 C1187 1.363 . S
C1192 C1191 1.415 . S
C1193 H1169 0.951 . S
C1193 C1194 1.366 . S
C1193 C1195 1.388 . S
C1194 C1193 1.366 . S
C1194 C1198 1.385 . S
C1195 H1170 0.951 . S
C1195 C1193 1.388 . S
C1195 C1196 1.366 . S
C1196 C1195 1.366 . S
C1196 C1197 1.414 . S
C1196 C1199 1.499 . S
C1197 H1171 0.950 . S
C1197 C1196 1.414 . S
C1197 C1198 1.374 . S
C1198 H1172 0.950 . S
C1198 C1194 1.385 . S
C1198 C1197 1.374 . S
C1199 C1196 1.499 . S
C1199 C1200 1.373 . S
C1199 C1201 1.389 . S
C1200 H1173 0.950 . S
C1200 C1186 1.377 . S
C1200 C1199 1.373 . S
C1201 C1185 1.377 . S
C1201 C1199 1.389 . S
C1201 C1202 1.524 . S
C1202 C1201 1.524 . S
C1202 C1203 1.397 . S
C1202 C1207 1.363 . S
C1203 H1174 0.950 . S
C1203 C1202 1.397 . S
C1203 C1204 1.334 . S
C1204 H1175 0.950 . S
C1204 C1203 1.334 . S
C1204 C1205 1.287 . S
C1205 C1204 1.287 . S
C1205 C1206 1.524 . S
C1205 H1208 0.964 1_655 S
C1206 H1176 0.950 . S
C1206 C1205 1.524 . S
C1206 C1207 1.415 . S
C1207 H1177 0.950 . S
C1207 C1202 1.363 . S
C1207 C1206 1.415 . S
H1208 C1205 0.964 1_455 S
H1209 C1190 0.913 . S
H1210 C1228 0.951 . S
H1211 C1230 0.951 . S
H1212 C1232 0.950 . S
H1213 C1233 0.950 . S
H1214 C1235 0.950 . S
H1215 C1238 0.950 . S
H1216 C1239 0.950 . S
H1217 C1241 0.950 . S
H1218 C1242 0.950 . S
H1219 C1243 0.951 . S
H1220 C1245 0.951 . S
H1221 C1247 0.950 . S
H1222 C1248 0.950 . S
H1223 C1250 0.950 . S
H1224 C1253 0.950 . S
H1225 C1254 0.950 . S
H1226 C1256 0.950 . S
H1227 C1257 0.950 . S
C1228 H1210 0.951 . S
C1228 C1229 1.366 . S
C1228 C1230 1.388 . S
C1229 C1228 1.366 . S
C1229 C1233 1.385 . S
C1230 H1211 0.951 . S
C1230 C1228 1.388 . S
C1230 C1231 1.366 . S
C1231 C1230 1.366 . S
C1231 C1232 1.414 . S
C1231 C1234 1.499 . S
C1232 H1212 0.950 . S
C1232 C1231 1.414 . S
C1232 C1233 1.374 . S
C1233 H1213 0.950 . S
C1233 C1229 1.385 . S
C1233 C1232 1.374 . S
C1234 C1231 1.499 . S
C1234 C1235 1.373 . S
C1234 C1236 1.389 . S
C1235 H1214 0.950 . S
C1235 C1234 1.373 . S
C1235 C1251 1.377 . S
C1236 C1234 1.389 . S
C1236 C1237 1.524 . S
C1236 C1250 1.377 . S
C1237 C1236 1.524 . S
C1237 C1238 1.397 . S
C1237 C1242 1.363 . S
C1238 H1215 0.950 . S
C1238 C1237 1.397 . S
C1238 C1239 1.334 . S
C1239 H1216 0.950 . S
C1239 C1238 1.334 . S
C1239 C1240 1.287 . S
C1240 C1239 1.287 . S
C1240 C1241 1.524 . S
C1240 H1259 0.913 . S
C1241 H1217 0.950 . S
C1241 C1240 1.524 . S
C1241 C1242 1.415 . S
C1242 H1218 0.950 . S
C1242 C1237 1.363 . S
C1242 C1241 1.415 . S
C1243 H1219 0.951 . S
C1243 C1244 1.366 . S
C1243 C1245 1.388 . S
C1244 C1243 1.366 . S
C1244 C1248 1.385 . S
C1245 H1220 0.951 . S
C1245 C1243 1.388 . S
C1245 C1246 1.366 . S
C1246 C1245 1.366 . S
C1246 C1247 1.414 . S
C1246 C1249 1.499 . S
C1247 H1221 0.950 . S
C1247 C1246 1.414 . S
C1247 C1248 1.374 . S
C1248 H1222 0.950 . S
C1248 C1244 1.385 . S
C1248 C1247 1.374 . S
C1249 C1246 1.499 . S
C1249 C1250 1.373 . S
C1249 C1251 1.389 . S
C1250 H1223 0.950 . S
C1250 C1236 1.377 . S
C1250 C1249 1.373 . S
C1251 C1235 1.377 . S
C1251 C1249 1.389 . S
C1251 C1252 1.524 . S
C1252 C1251 1.524 . S
C1252 C1253 1.397 . S
C1252 C1257 1.363 . S
C1253 H1224 0.950 . S
C1253 C1252 1.397 . S
C1253 C1254 1.334 1_545 S
C1254 H1225 0.950 . S
C1254 C1253 1.334 1_565 S
C1254 C1255 1.287 . S
C1255 C1254 1.287 . S
C1255 C1256 1.524 1_565 S
C1255 H1258 0.999 . S
C1256 H1226 0.950 . S
C1256 C1255 1.524 1_545 S
C1256 C1257 1.415 . S
C1257 H1227 0.950 . S
C1257 C1252 1.363 . S
C1257 C1256 1.415 . S
H1258 C1255 0.999 . S
H1259 C1240 0.913 . S
H1260 C1278 0.951 . S
H1261 C1280 0.951 . S
H1262 C1282 0.950 . S
H1263 C1283 0.950 . S
H1264 C1285 0.950 . S
H1265 C1288 0.950 . S
H1266 C1289 0.950 . S
H1267 C1291 0.950 . S
H1268 C1292 0.950 . S
H1269 C1293 0.951 . S
H1270 C1295 0.951 . S
H1271 C1297 0.950 . S
H1272 C1298 0.950 . S
H1273 C1300 0.950 . S
H1274 C1303 0.950 . S
H1275 C1304 0.950 . S
H1276 C1306 0.950 . S
H1277 C1307 0.950 . S
C1278 H1260 0.951 . S
C1278 C1279 1.366 . S
C1278 C1280 1.388 . S
C1279 C1278 1.366 . S
C1279 C1283 1.385 . S
C1280 H1261 0.951 . S
C1280 C1278 1.388 . S
C1280 C1281 1.366 . S
C1281 C1280 1.366 . S
C1281 C1282 1.414 . S
C1281 C1284 1.499 . S
C1282 H1262 0.950 . S
C1282 C1281 1.414 . S
C1282 C1283 1.374 . S
C1283 H1263 0.950 . S
C1283 C1279 1.385 . S
C1283 C1282 1.374 . S
C1284 C1281 1.499 . S
C1284 C1285 1.373 . S
C1284 C1286 1.389 . S
C1285 H1264 0.950 . S
C1285 C1284 1.373 . S
C1285 C1301 1.377 . S
C1286 C1284 1.389 . S
C1286 C1287 1.524 . S
C1286 C1300 1.377 . S
C1287 C1286 1.524 . S
C1287 C1288 1.397 . S
C1287 C1292 1.363 . S
C1288 H1265 0.950 . S
C1288 C1287 1.397 . S
C1288 C1289 1.334 . S
C1289 H1266 0.950 . S
C1289 C1288 1.334 . S
C1289 C1290 1.287 . S
C1290 C1289 1.287 . S
C1290 C1291 1.524 . S
C1290 H1309 0.913 . S
C1291 H1267 0.950 . S
C1291 C1290 1.524 . S
C1291 C1292 1.415 . S
C1292 H1268 0.950 . S
C1292 C1287 1.363 . S
C1292 C1291 1.415 . S
C1293 H1269 0.951 . S
C1293 C1294 1.366 . S
C1293 C1295 1.388 . S
C1294 C1293 1.366 . S
C1294 C1298 1.385 . S
C1295 H1270 0.951 . S
C1295 C1293 1.388 . S
C1295 C1296 1.366 . S
C1296 C1295 1.366 . S
C1296 C1297 1.414 . S
C1296 C1299 1.499 . S
C1297 H1271 0.950 . S
C1297 C1296 1.414 . S
C1297 C1298 1.374 . S
C1298 H1272 0.950 . S
C1298 C1294 1.385 . S
C1298 C1297 1.374 . S
C1299 C1296 1.499 . S
C1299 C1300 1.373 . S
C1299 C1301 1.389 . S
C1300 H1273 0.950 . S
C1300 C1286 1.377 . S
C1300 C1299 1.373 . S
C1301 C1285 1.377 . S
C1301 C1299 1.389 . S
C1301 C1302 1.524 . S
C1302 C1301 1.524 . S
C1302 C1303 1.397 . S
C1302 C1307 1.363 . S
C1303 H1274 0.950 . S
C1303 C1302 1.397 . S
C1303 C1304 1.334 . S
C1304 H1275 0.950 . S
C1304 C1303 1.334 . S
C1304 C1305 1.287 . S
C1305 C1304 1.287 . S
C1305 C1306 1.524 . S
C1305 H1308 0.999 . S
C1306 H1276 0.950 . S
C1306 C1305 1.524 . S
C1306 C1307 1.415 . S
C1307 H1277 0.950 . S
C1307 C1302 1.363 . S
C1307 C1306 1.415 . S
H1308 C1305 0.999 . S
H1309 C1290 0.913 . S
H1310 C1328 0.951 . S
H1311 C1330 0.951 . S
H1312 C1332 0.950 . S
H1313 C1333 0.950 . S
H1314 C1335 0.950 . S
H1315 C1338 0.950 . S
H1316 C1339 0.950 . S
H1317 C1341 0.950 . S
H1318 C1342 0.950 . S
H1319 C1343 0.951 . S
H1320 C1345 0.951 . S
H1321 C1347 0.950 . S
H1322 C1348 0.950 . S
H1323 C1350 0.950 . S
H1324 C1353 0.950 . S
H1325 C1354 0.950 . S
H1326 C1356 0.950 . S
H1327 C1357 0.950 . S
C1328 H1310 0.951 . S
C1328 C1329 1.366 . S
C1328 C1330 1.388 . S
C1329 C1328 1.366 . S
C1329 C1333 1.385 . S
C1330 H1311 0.951 . S
C1330 C1328 1.388 . S
C1330 C1331 1.366 . S
C1331 C1330 1.366 . S
C1331 C1332 1.414 . S
C1331 C1334 1.499 . S
C1332 H1312 0.950 . S
C1332 C1331 1.414 . S
C1332 C1333 1.374 . S
C1333 H1313 0.950 . S
C1333 C1329 1.385 . S
C1333 C1332 1.374 . S
C1334 C1331 1.499 . S
C1334 C1335 1.373 . S
C1334 C1336 1.389 . S
C1335 H1314 0.950 . S
C1335 C1334 1.373 . S
C1335 C1351 1.377 . S
C1336 C1334 1.389 . S
C1336 C1337 1.524 . S
C1336 C1350 1.377 . S
C1337 C1336 1.524 . S
C1337 C1338 1.397 . S
C1337 C1342 1.363 . S
C1338 H1315 0.950 . S
C1338 C1337 1.397 . S
C1338 C1339 1.334 . S
C1339 H1316 0.950 . S
C1339 C1338 1.334 . S
C1339 C1340 1.287 . S
C1340 C1339 1.287 . S
C1340 C1341 1.524 . S
C1340 H1359 0.913 . S
C1341 H1317 0.950 . S
C1341 C1340 1.524 . S
C1341 C1342 1.415 . S
C1342 H1318 0.950 . S
C1342 C1337 1.363 . S
C1342 C1341 1.415 . S
C1343 H1319 0.951 . S
C1343 C1344 1.366 . S
C1343 C1345 1.388 . S
C1344 C1343 1.366 . S
C1344 C1348 1.385 . S
C1345 H1320 0.951 . S
C1345 C1343 1.388 . S
C1345 C1346 1.366 . S
C1346 C1345 1.366 . S
C1346 C1347 1.414 . S
C1346 C1349 1.499 . S
C1347 H1321 0.950 . S
C1347 C1346 1.414 . S
C1347 C1348 1.374 . S
C1348 H1322 0.950 . S
C1348 C1344 1.385 . S
C1348 C1347 1.374 . S
C1349 C1346 1.499 . S
C1349 C1350 1.373 . S
C1349 C1351 1.389 . S
C1350 H1323 0.950 . S
C1350 C1336 1.377 . S
C1350 C1349 1.373 . S
C1351 C1335 1.377 . S
C1351 C1349 1.389 . S
C1351 C1352 1.524 . S
C1352 C1351 1.524 . S
C1352 C1353 1.397 . S
C1352 C1357 1.363 . S
C1353 H1324 0.950 . S
C1353 C1352 1.397 . S
C1353 C1354 1.334 . S
C1354 H1325 0.950 . S
C1354 C1353 1.334 . S
C1354 C1355 1.287 . S
C1355 C1354 1.287 . S
C1355 C1356 1.524 . S
C1355 H1358 0.999 . S
C1356 H1326 0.950 . S
C1356 C1355 1.524 . S
C1356 C1357 1.415 . S
C1357 H1327 0.950 . S
C1357 C1352 1.363 . S
C1357 C1356 1.415 . S
H1358 C1355 0.999 . S
H1359 C1340 0.913 . S
H1360 C1378 0.951 . S
H1361 C1380 0.951 . S
H1362 C1382 0.950 . S
H1363 C1383 0.950 . S
H1364 C1385 0.950 . S
H1365 C1388 0.950 . S
H1366 C1389 0.950 . S
H1367 C1391 0.950 . S
H1368 C1392 0.950 . S
H1369 C1393 0.951 . S
H1370 C1395 0.951 . S
H1371 C1397 0.950 . S
H1372 C1398 0.950 . S
H1373 C1400 0.950 . S
H1374 C1403 0.950 . S
H1375 C1404 0.950 . S
H1376 C1406 0.950 1_545 S
H1377 C1407 0.950 . S
C1378 H1360 0.951 . S
C1378 C1379 1.366 . S
C1378 C1380 1.388 . S
C1379 C1378 1.366 . S
C1379 C1383 1.385 . S
C1380 H1361 0.951 . S
C1380 C1378 1.388 . S
C1380 C1381 1.366 . S
C1381 C1380 1.366 . S
C1381 C1382 1.414 . S
C1381 C1384 1.499 . S
C1382 H1362 0.950 . S
C1382 C1381 1.414 . S
C1382 C1383 1.374 . S
C1383 H1363 0.950 . S
C1383 C1379 1.385 . S
C1383 C1382 1.374 . S
C1384 C1381 1.499 . S
C1384 C1385 1.373 . S
C1384 C1386 1.389 . S
C1385 H1364 0.950 . S
C1385 C1384 1.373 . S
C1385 C1401 1.377 . S
C1386 C1384 1.389 . S
C1386 C1387 1.524 . S
C1386 C1400 1.377 . S
C1387 C1386 1.524 . S
C1387 C1388 1.397 . S
C1387 C1392 1.363 . S
C1388 H1365 0.950 . S
C1388 C1387 1.397 . S
C1388 C1389 1.334 . S
C1389 H1366 0.950 . S
C1389 C1388 1.334 . S
C1389 C1390 1.287 . S
C1390 C1389 1.287 . S
C1390 C1391 1.524 . S
C1390 H1409 0.913 . S
C1391 H1367 0.950 . S
C1391 C1390 1.524 . S
C1391 C1392 1.415 . S
C1392 H1368 0.950 . S
C1392 C1387 1.363 . S
C1392 C1391 1.415 . S
C1393 H1369 0.951 . S
C1393 C1394 1.366 . S
C1393 C1395 1.388 . S
C1394 C1393 1.366 . S
C1394 C1398 1.385 . S
C1395 H1370 0.951 . S
C1395 C1393 1.388 . S
C1395 C1396 1.366 . S
C1396 C1395 1.366 . S
C1396 C1397 1.414 . S
C1396 C1399 1.499 . S
C1397 H1371 0.950 . S
C1397 C1396 1.414 . S
C1397 C1398 1.374 . S
C1398 H1372 0.950 . S
C1398 C1394 1.385 . S
C1398 C1397 1.374 . S
C1399 C1396 1.499 . S
C1399 C1400 1.373 . S
C1399 C1401 1.389 . S
C1400 H1373 0.950 . S
C1400 C1386 1.377 . S
C1400 C1399 1.373 . S
C1401 C1385 1.377 . S
C1401 C1399 1.389 . S
C1401 C1402 1.524 . S
C1402 C1401 1.524 . S
C1402 C1403 1.397 . S
C1402 C1407 1.363 . S
C1403 H1374 0.950 . S
C1403 C1402 1.397 . S
C1403 C1404 1.334 . S
C1404 H1375 0.950 . S
C1404 C1403 1.334 . S
C1404 C1405 1.287 . S
C1405 C1404 1.287 . S
C1405 C1406 1.524 . S
C1405 H1408 1.035 . S
C1406 H1376 0.950 1_565 S
C1406 C1405 1.524 . S
C1406 C1407 1.415 . S
C1407 H1377 0.950 . S
C1407 C1402 1.363 . S
C1407 C1406 1.415 . S
H1408 C1405 1.035 . S
H1409 C1390 0.913 . S
H1410 C1428 0.951 . S
H1411 C1430 0.951 . S
H1412 C1432 0.950 . S
H1413 C1433 0.950 . S
H1414 C1435 0.950 . S
H1415 C1438 0.950 . S
H1416 C1439 0.950 . S
H1417 C1441 0.950 . S
H1418 C1442 0.950 . S
H1419 C1443 0.951 . S
H1420 C1445 0.951 . S
H1421 C1447 0.950 . S
H1422 C1448 0.950 . S
H1423 C1450 0.950 . S
H1424 C1453 0.950 . S
H1425 C1454 0.950 . S
H1426 C1456 0.950 . S
H1427 C1457 0.950 . S
C1428 H1410 0.951 . S
C1428 C1429 1.366 . S
C1428 C1430 1.388 . S
C1429 C1428 1.366 . S
C1429 C1433 1.385 . S
C1430 H1411 0.951 . S
C1430 C1428 1.388 . S
C1430 C1431 1.366 . S
C1431 C1430 1.366 . S
C1431 C1432 1.414 . S
C1431 C1434 1.499 . S
C1432 H1412 0.950 . S
C1432 C1431 1.414 . S
C1432 C1433 1.374 . S
C1433 H1413 0.950 . S
C1433 C1429 1.385 . S
C1433 C1432 1.374 . S
C1434 C1431 1.499 . S
C1434 C1435 1.373 . S
C1434 C1436 1.389 . S
C1435 H1414 0.950 . S
C1435 C1434 1.373 . S
C1435 C1451 1.377 . S
C1436 C1434 1.389 . S
C1436 C1437 1.524 . S
C1436 C1450 1.377 . S
C1437 C1436 1.524 . S
C1437 C1438 1.397 . S
C1437 C1442 1.363 . S
C1438 H1415 0.950 . S
C1438 C1437 1.397 . S
C1438 C1439 1.334 . S
C1439 H1416 0.950 . S
C1439 C1438 1.334 . S
C1439 C1440 1.287 . S
C1440 C1439 1.287 . S
C1440 C1441 1.524 . S
C1440 H1459 0.913 . S
C1441 H1417 0.950 . S
C1441 C1440 1.524 . S
C1441 C1442 1.415 . S
C1442 H1418 0.950 . S
C1442 C1437 1.363 . S
C1442 C1441 1.415 . S
C1443 H1419 0.951 . S
C1443 C1444 1.366 . S
C1443 C1445 1.388 . S
C1444 C1443 1.366 . S
C1444 C1448 1.385 . S
C1445 H1420 0.951 . S
C1445 C1443 1.388 . S
C1445 C1446 1.366 . S
C1446 C1445 1.366 . S
C1446 C1447 1.414 . S
C1446 C1449 1.499 . S
C1447 H1421 0.950 . S
C1447 C1446 1.414 . S
C1447 C1448 1.374 . S
C1448 H1422 0.950 . S
C1448 C1444 1.385 . S
C1448 C1447 1.374 . S
C1449 C1446 1.499 . S
C1449 C1450 1.373 . S
C1449 C1451 1.389 . S
C1450 H1423 0.950 . S
C1450 C1436 1.377 . S
C1450 C1449 1.373 . S
C1451 C1435 1.377 . S
C1451 C1449 1.389 . S
C1451 C1452 1.524 . S
C1452 C1451 1.524 . S
C1452 C1453 1.397 . S
C1452 C1457 1.363 . S
C1453 H1424 0.950 . S
C1453 C1452 1.397 . S
C1453 C1454 1.334 . S
C1454 H1425 0.950 . S
C1454 C1453 1.334 . S
C1454 C1455 1.287 1_545 S
C1455 C1454 1.287 1_565 S
C1455 C1456 1.524 . S
C1455 H1458 0.999 . S
C1456 H1426 0.950 . S
C1456 C1455 1.524 . S
C1456 C1457 1.415 1_565 S
C1457 H1427 0.950 . S
C1457 C1452 1.363 . S
C1457 C1456 1.415 1_545 S
H1458 C1455 0.999 . S
H1459 C1440 0.913 . S
H1460 C1478 0.951 . S
H1461 C1480 0.951 . S
H1462 C1482 0.950 . S
H1463 C1483 0.950 . S
H1464 C1485 0.950 . S
H1465 C1488 0.950 . S
H1466 C1489 0.950 . S
H1467 C1491 0.950 . S
H1468 C1492 0.950 . S
H1469 C1493 0.951 . S
H1470 C1495 0.951 . S
H1471 C1497 0.950 . S
H1472 C1498 0.950 . S
H1473 C1500 0.950 . S
H1474 C1503 0.950 . S
H1475 C1504 0.950 . S
H1476 C1506 0.950 . S
H1477 C1507 0.950 . S
C1478 H1460 0.951 . S
C1478 C1479 1.366 . S
C1478 C1480 1.388 . S
C1479 C1478 1.366 . S
C1479 C1483 1.385 . S
C1480 H1461 0.951 . S
C1480 C1478 1.388 . S
C1480 C1481 1.366 . S
C1481 C1480 1.366 . S
C1481 C1482 1.414 . S
C1481 C1484 1.499 . S
C1482 H1462 0.950 . S
C1482 C1481 1.414 . S
C1482 C1483 1.374 . S
C1483 H1463 0.950 . S
C1483 C1479 1.385 . S
C1483 C1482 1.374 . S
C1484 C1481 1.499 . S
C1484 C1485 1.373 . S
C1484 C1486 1.389 . S
C1485 H1464 0.950 . S
C1485 C1484 1.373 . S
C1485 C1501 1.377 . S
C1486 C1484 1.389 . S
C1486 C1487 1.524 . S
C1486 C1500 1.377 . S
C1487 C1486 1.524 . S
C1487 C1488 1.397 . S
C1487 C1492 1.363 . S
C1488 H1465 0.950 . S
C1488 C1487 1.397 . S
C1488 C1489 1.334 . S
C1489 H1466 0.950 . S
C1489 C1488 1.334 . S
C1489 C1490 1.287 . S
C1490 C1489 1.287 . S
C1490 C1491 1.524 . S
C1490 H1509 0.913 . S
C1491 H1467 0.950 . S
C1491 C1490 1.524 . S
C1491 C1492 1.415 . S
C1492 H1468 0.950 . S
C1492 C1487 1.363 . S
C1492 C1491 1.415 . S
C1493 H1469 0.951 . S
C1493 C1494 1.366 . S
C1493 C1495 1.388 . S
C1494 C1493 1.366 . S
C1494 C1498 1.385 . S
C1495 H1470 0.951 . S
C1495 C1493 1.388 . S
C1495 C1496 1.366 . S
C1496 C1495 1.366 . S
C1496 C1497 1.414 . S
C1496 C1499 1.499 . S
C1497 H1471 0.950 . S
C1497 C1496 1.414 . S
C1497 C1498 1.374 . S
C1498 H1472 0.950 . S
C1498 C1494 1.385 . S
C1498 C1497 1.374 . S
C1499 C1496 1.499 . S
C1499 C1500 1.373 . S
C1499 C1501 1.389 . S
C1500 H1473 0.950 . S
C1500 C1486 1.377 . S
C1500 C1499 1.373 . S
C1501 C1485 1.377 . S
C1501 C1499 1.389 . S
C1501 C1502 1.524 . S
C1502 C1501 1.524 . S
C1502 C1503 1.397 . S
C1502 C1507 1.363 . S
C1503 H1474 0.950 . S
C1503 C1502 1.397 . S
C1503 C1504 1.334 . S
C1504 H1475 0.950 . S
C1504 C1503 1.334 . S
C1504 C1505 1.287 . S
C1505 C1504 1.287 . S
C1505 C1506 1.524 . S
C1505 H1508 0.999 . S
C1506 H1476 0.950 . S
C1506 C1505 1.524 . S
C1506 C1507 1.415 . S
C1507 H1477 0.950 . S
C1507 C1502 1.363 . S
C1507 C1506 1.415 . S
H1508 C1505 0.999 . S
H1509 C1490 0.913 . S
H1510 C1528 0.951 . S
H1511 C1530 0.951 . S
H1512 C1532 0.950 . S
H1513 C1533 0.950 . S
H1514 C1535 0.950 . S
H1515 C1538 0.950 . S
H1516 C1539 0.950 . S
H1517 C1541 0.950 . S
H1518 C1542 0.950 . S
H1519 C1543 0.951 . S
H1520 C1545 0.951 . S
H1521 C1547 0.950 . S
H1522 C1548 0.950 . S
H1523 C1550 0.950 . S
H1524 C1553 0.950 . S
H1525 C1554 0.950 . S
H1526 C1556 0.950 . S
H1527 C1557 0.950 . S
C1528 H1510 0.951 . S
C1528 C1529 1.366 . S
C1528 C1530 1.388 . S
C1529 C1528 1.366 . S
C1529 C1533 1.385 . S
C1530 H1511 0.951 . S
C1530 C1528 1.388 . S
C1530 C1531 1.366 . S
C1531 C1530 1.366 . S
C1531 C1532 1.414 . S
C1531 C1534 1.499 . S
C1532 H1512 0.950 . S
C1532 C1531 1.414 . S
C1532 C1533 1.374 . S
C1533 H1513 0.950 . S
C1533 C1529 1.385 . S
C1533 C1532 1.374 . S
C1534 C1531 1.499 . S
C1534 C1535 1.373 . S
C1534 C1536 1.389 . S
C1535 H1514 0.950 . S
C1535 C1534 1.373 . S
C1535 C1551 1.377 . S
C1536 C1534 1.389 . S
C1536 C1537 1.524 . S
C1536 C1550 1.377 . S
C1537 C1536 1.524 . S
C1537 C1538 1.397 . S
C1537 C1542 1.363 . S
C1538 H1515 0.950 . S
C1538 C1537 1.397 . S
C1538 C1539 1.334 . S
C1539 H1516 0.950 . S
C1539 C1538 1.334 . S
C1539 C1540 1.287 . S
C1540 C1539 1.287 . S
C1540 C1541 1.524 . S
C1540 H1559 0.913 . S
C1541 H1517 0.950 . S
C1541 C1540 1.524 . S
C1541 C1542 1.415 . S
C1542 H1518 0.950 . S
C1542 C1537 1.363 . S
C1542 C1541 1.415 . S
C1543 H1519 0.951 . S
C1543 C1544 1.366 . S
C1543 C1545 1.388 . S
C1544 C1543 1.366 . S
C1544 C1548 1.385 . S
C1545 H1520 0.951 . S
C1545 C1543 1.388 . S
C1545 C1546 1.366 . S
C1546 C1545 1.366 . S
C1546 C1547 1.414 . S
C1546 C1549 1.499 . S
C1547 H1521 0.950 . S
C1547 C1546 1.414 . S
C1547 C1548 1.374 . S
C1548 H1522 0.950 . S
C1548 C1544 1.385 . S
C1548 C1547 1.374 . S
C1549 C1546 1.499 . S
C1549 C1550 1.373 . S
C1549 C1551 1.389 . S
C1550 H1523 0.950 . S
C1550 C1536 1.377 . S
C1550 C1549 1.373 . S
C1551 C1535 1.377 . S
C1551 C1549 1.389 . S
C1551 C1552 1.524 . S
C1552 C1551 1.524 . S
C1552 C1553 1.397 . S
C1552 C1557 1.363 . S
C1553 H1524 0.950 . S
C1553 C1552 1.397 . S
C1553 C1554 1.334 . S
C1554 H1525 0.950 . S
C1554 C1553 1.334 . S
C1554 C1555 1.287 . S
C1555 C1554 1.287 . S
C1555 C1556 1.524 . S
C1555 H1558 0.999 . S
C1556 H1526 0.950 . S
C1556 C1555 1.524 . S
C1556 C1557 1.415 . S
C1557 H1527 0.950 . S
C1557 C1552 1.363 . S
C1557 C1556 1.415 . S
H1558 C1555 0.999 . S
H1559 C1540 0.913 . S
H1560 C1578 0.951 . S
H1561 C1580 0.951 . S
H1562 C1582 0.950 . S
H1563 C1583 0.950 . S
H1564 C1585 0.950 . S
H1565 C1588 0.950 . S
H1566 C1589 0.950 . S
H1567 C1591 0.950 . S
H1568 C1592 0.950 . S
H1569 C1593 0.951 . S
H1570 C1595 0.951 . S
H1571 C1597 0.950 . S
H1572 C1598 0.950 . S
H1573 C1600 0.950 . S
H1574 C1603 0.950 . S
H1575 C1604 0.950 . S
H1576 C1606 0.950 . S
H1577 C1607 0.950 . S
C1578 H1560 0.951 . S
C1578 C1579 1.366 . S
C1578 C1580 1.388 . S
C1579 C1578 1.366 . S
C1579 C1583 1.385 . S
C1580 H1561 0.951 . S
C1580 C1578 1.388 . S
C1580 C1581 1.366 . S
C1581 C1580 1.366 . S
C1581 C1582 1.414 . S
C1581 C1584 1.499 . S
C1582 H1562 0.950 . S
C1582 C1581 1.414 . S
C1582 C1583 1.374 . S
C1583 H1563 0.950 . S
C1583 C1579 1.385 . S
C1583 C1582 1.374 . S
C1584 C1581 1.499 . S
C1584 C1585 1.373 . S
C1584 C1586 1.389 . S
C1585 H1564 0.950 . S
C1585 C1584 1.373 . S
C1585 C1601 1.377 . S
C1586 C1584 1.389 . S
C1586 C1587 1.524 . S
C1586 C1600 1.377 . S
C1587 C1586 1.524 . S
C1587 C1588 1.397 . S
C1587 C1592 1.363 . S
C1588 H1565 0.950 . S
C1588 C1587 1.397 . S
C1588 C1589 1.334 . S
C1589 H1566 0.950 . S
C1589 C1588 1.334 . S
C1589 C1590 1.287 . S
C1590 C1589 1.287 . S
C1590 C1591 1.524 . S
C1590 H1609 0.913 . S
C1591 H1567 0.950 . S
C1591 C1590 1.524 . S
C1591 C1592 1.415 . S
C1592 H1568 0.950 . S
C1592 C1587 1.363 . S
C1592 C1591 1.415 . S
C1593 H1569 0.951 . S
C1593 C1594 1.366 . S
C1593 C1595 1.388 . S
C1594 C1593 1.366 . S
C1594 C1598 1.385 . S
C1595 H1570 0.951 . S
C1595 C1593 1.388 . S
C1595 C1596 1.366 . S
C1596 C1595 1.366 . S
C1596 C1597 1.414 . S
C1596 C1599 1.499 . S
C1597 H1571 0.950 . S
C1597 C1596 1.414 . S
C1597 C1598 1.374 . S
C1598 H1572 0.950 . S
C1598 C1594 1.385 . S
C1598 C1597 1.374 . S
C1599 C1596 1.499 . S
C1599 C1600 1.373 . S
C1599 C1601 1.389 . S
C1600 H1573 0.950 . S
C1600 C1586 1.377 . S
C1600 C1599 1.373 . S
C1601 C1585 1.377 . S
C1601 C1599 1.389 . S
C1601 C1602 1.524 . S
C1602 C1601 1.524 . S
C1602 C1603 1.397 . S
C1602 C1607 1.363 . S
C1603 H1574 0.950 . S
C1603 C1602 1.397 . S
C1603 C1604 1.334 . S
C1604 H1575 0.950 . S
C1604 C1603 1.334 . S
C1604 C1605 1.287 . S
C1605 C1604 1.287 . S
C1605 C1606 1.524 . S
C1605 H1608 1.013 . S
C1606 H1576 0.950 . S
C1606 C1605 1.524 . S
C1606 C1607 1.415 . S
C1607 H1577 0.950 . S
C1607 C1602 1.363 . S
C1607 C1606 1.415 . S
H1608 C1605 1.013 . S
H1609 C1590 0.913 . S
H1610 C1628 0.951 . S
H1611 C1630 0.951 . S
H1612 C1632 0.950 . S
H1613 C1633 0.950 . S
H1614 C1635 0.950 . S
H1615 C1638 0.950 . S
H1616 C1639 0.950 . S
H1617 C1641 0.950 . S
H1618 C1642 0.950 . S
H1619 C1643 0.951 . S
H1620 C1645 0.951 . S
H1621 C1647 0.950 . S
H1622 C1648 0.950 . S
H1623 C1650 0.950 . S
H1624 C1653 0.950 . S
H1625 C1654 0.950 . S
H1626 C1656 0.968 . S
H1627 C1657 0.950 . S
C1628 H1610 0.951 . S
C1628 C1629 1.366 . S
C1628 C1630 1.388 . S
C1629 C1628 1.366 . S
C1629 C1633 1.385 . S
C1630 H1611 0.951 . S
C1630 C1628 1.388 . S
C1630 C1631 1.366 . S
C1631 C1630 1.366 . S
C1631 C1632 1.414 . S
C1631 C1634 1.499 . S
C1632 H1612 0.950 . S
C1632 C1631 1.414 . S
C1632 C1633 1.374 . S
C1633 H1613 0.950 . S
C1633 C1629 1.385 . S
C1633 C1632 1.374 . S
C1634 C1631 1.499 . S
C1634 C1635 1.373 . S
C1634 C1636 1.389 . S
C1635 H1614 0.950 . S
C1635 C1634 1.373 . S
C1635 C1651 1.377 . S
C1636 C1634 1.389 . S
C1636 C1637 1.524 . S
C1636 C1650 1.377 . S
C1637 C1636 1.524 . S
C1637 C1638 1.397 . S
C1637 C1642 1.363 . S
C1638 H1615 0.950 . S
C1638 C1637 1.397 . S
C1638 C1639 1.334 . S
C1639 H1616 0.950 . S
C1639 C1638 1.334 . S
C1639 C1640 1.287 . S
C1640 C1639 1.287 . S
C1640 C1641 1.524 . S
C1640 H1659 0.913 . S
C1641 H1617 0.950 . S
C1641 C1640 1.524 . S
C1641 C1642 1.415 . S
C1642 H1618 0.950 . S
C1642 C1637 1.363 . S
C1642 C1641 1.415 . S
C1643 H1619 0.951 . S
C1643 C1644 1.366 . S
C1643 C1645 1.388 . S
C1644 C1643 1.366 . S
C1644 C1648 1.385 . S
C1645 H1620 0.951 . S
C1645 C1643 1.388 . S
C1645 C1646 1.366 . S
C1646 C1645 1.366 . S
C1646 C1647 1.414 . S
C1646 C1649 1.499 . S
C1647 H1621 0.950 . S
C1647 C1646 1.414 . S
C1647 C1648 1.374 . S
C1648 H1622 0.950 . S
C1648 C1644 1.385 . S
C1648 C1647 1.374 . S
C1649 C1646 1.499 . S
C1649 C1650 1.373 . S
C1649 C1651 1.389 . S
C1650 H1623 0.950 . S
C1650 C1636 1.377 . S
C1650 C1649 1.373 . S
C1651 C1635 1.377 . S
C1651 C1649 1.389 . S
C1651 C1652 1.524 . S
C1652 C1651 1.524 . S
C1652 C1653 1.397 . S
C1652 C1657 1.363 . S
C1653 H1624 0.950 . S
C1653 C1652 1.397 . S
C1653 C1654 1.334 1_554 S
C1654 H1625 0.950 . S
C1654 C1653 1.334 1_556 S
C1654 C1655 1.287 . S
C1655 C1654 1.287 . S
C1655 C1656 1.524 1_556 S
C1655 H1658 0.999 . S
C1656 H1626 0.968 . S
C1656 C1655 1.524 1_554 S
C1656 C1657 1.415 . S
C1657 H1627 0.950 . S
C1657 C1652 1.363 . S
C1657 C1656 1.415 . S
H1658 C1655 0.999 . S
H1659 C1640 0.913 . S
H1660 C1678 0.951 . S
H1661 C1680 0.951 . S
H1662 C1682 0.950 . S
H1663 C1683 0.950 . S
H1664 C1685 0.950 . S
H1665 C1688 0.950 . S
H1666 C1689 0.950 . S
H1667 C1691 0.950 . S
H1668 C1692 0.950 . S
H1669 C1693 0.951 . S
H1670 C1695 0.951 . S
H1671 C1697 0.950 . S
H1672 C1698 0.950 . S
H1673 C1700 0.950 . S
H1674 C1703 0.950 . S
H1675 C1704 0.950 1_655 S
H1676 C1706 0.950 . S
H1677 C1707 0.950 . S
C1678 H1660 0.951 . S
C1678 C1679 1.366 . S
C1678 C1680 1.388 . S
C1679 C1678 1.366 . S
C1679 C1683 1.385 . S
C1680 H1661 0.951 . S
C1680 C1678 1.388 . S
C1680 C1681 1.366 . S
C1681 C1680 1.366 . S
C1681 C1682 1.414 . S
C1681 C1684 1.499 . S
C1682 H1662 0.950 . S
C1682 C1681 1.414 . S
C1682 C1683 1.374 . S
C1683 H1663 0.950 . S
C1683 C1679 1.385 . S
C1683 C1682 1.374 . S
C1684 C1681 1.499 . S
C1684 C1685 1.373 . S
C1684 C1686 1.389 . S
C1685 H1664 0.950 . S
C1685 C1684 1.373 . S
C1685 C1701 1.377 . S
C1686 C1684 1.389 . S
C1686 C1687 1.524 . S
C1686 C1700 1.377 . S
C1687 C1686 1.524 . S
C1687 C1688 1.397 . S
C1687 C1692 1.363 . S
C1688 H1665 0.950 . S
C1688 C1687 1.397 . S
C1688 C1689 1.334 . S
C1689 H1666 0.950 . S
C1689 C1688 1.334 . S
C1689 C1690 1.287 . S
C1690 C1689 1.287 . S
C1690 C1691 1.524 . S
C1690 H1709 0.913 . S
C1691 H1667 0.950 . S
C1691 C1690 1.524 . S
C1691 C1692 1.415 . S
C1692 H1668 0.950 . S
C1692 C1687 1.363 . S
C1692 C1691 1.415 . S
C1693 H1669 0.951 . S
C1693 C1694 1.366 . S
C1693 C1695 1.388 . S
C1694 C1693 1.366 . S
C1694 C1698 1.385 . S
C1695 H1670 0.951 . S
C1695 C1693 1.388 . S
C1695 C1696 1.366 . S
C1696 C1695 1.366 . S
C1696 C1697 1.414 . S
C1696 C1699 1.499 . S
C1697 H1671 0.950 . S
C1697 C1696 1.414 . S
C1697 C1698 1.374 . S
C1698 H1672 0.950 . S
C1698 C1694 1.385 . S
C1698 C1697 1.374 . S
C1699 C1696 1.499 . S
C1699 C1700 1.373 . S
C1699 C1701 1.389 . S
C1700 H1673 0.950 . S
C1700 C1686 1.377 . S
C1700 C1699 1.373 . S
C1701 C1685 1.377 . S
C1701 C1699 1.389 . S
C1701 C1702 1.524 . S
C1702 C1701 1.524 . S
C1702 C1703 1.397 . S
C1702 C1707 1.363 . S
C1703 H1674 0.950 . S
C1703 C1702 1.397 . S
C1703 C1704 1.334 . S
C1704 H1675 0.950 1_455 S
C1704 C1703 1.334 . S
C1704 C1705 1.287 . S
C1705 C1704 1.287 . S
C1705 C1706 1.524 . S
C1705 H1708 0.999 1_455 S
C1706 H1676 0.950 . S
C1706 C1705 1.524 . S
C1706 C1707 1.415 . S
C1707 H1677 0.950 . S
C1707 C1702 1.363 . S
C1707 C1706 1.415 . S
H1708 C1705 0.999 1_655 S
H1709 C1690 0.913 . S
H1710 C1728 0.951 . S
H1711 C1730 0.951 . S
H1712 C1732 0.950 . S
H1713 C1733 0.950 . S
H1714 C1735 0.950 . S
H1715 C1738 0.950 . S
H1716 C1739 0.950 . S
H1717 C1741 0.950 . S
H1718 C1742 0.950 . S
H1719 C1743 0.951 . S
H1720 C1745 0.951 . S
H1721 C1747 0.950 . S
H1722 C1748 0.950 . S
H1723 C1750 0.950 . S
H1724 C1753 0.950 . S
H1725 C1754 0.950 . S
H1726 C1756 0.950 . S
H1727 C1757 0.950 . S
C1728 H1710 0.951 . S
C1728 C1729 1.366 . S
C1728 C1730 1.388 . S
C1729 C1728 1.366 . S
C1729 C1733 1.385 . S
C1730 H1711 0.951 . S
C1730 C1728 1.388 . S
C1730 C1731 1.366 . S
C1731 C1730 1.366 . S
C1731 C1732 1.414 . S
C1731 C1734 1.499 . S
C1732 H1712 0.950 . S
C1732 C1731 1.414 . S
C1732 C1733 1.374 . S
C1733 H1713 0.950 . S
C1733 C1729 1.385 . S
C1733 C1732 1.374 . S
C1734 C1731 1.499 . S
C1734 C1735 1.373 . S
C1734 C1736 1.389 . S
C1735 H1714 0.950 . S
C1735 C1734 1.373 . S
C1735 C1751 1.377 . S
C1736 C1734 1.389 . S
C1736 C1737 1.524 . S
C1736 C1750 1.377 . S
C1737 C1736 1.524 . S
C1737 C1738 1.397 . S
C1737 C1742 1.363 . S
C1738 H1715 0.950 . S
C1738 C1737 1.397 . S
C1738 C1739 1.334 . S
C1739 H1716 0.950 . S
C1739 C1738 1.334 . S
C1739 C1740 1.287 . S
C1740 C1739 1.287 . S
C1740 C1741 1.524 . S
C1740 H1759 0.913 . S
C1741 H1717 0.950 . S
C1741 C1740 1.524 . S
C1741 C1742 1.415 . S
C1742 H1718 0.950 . S
C1742 C1737 1.363 . S
C1742 C1741 1.415 . S
C1743 H1719 0.951 . S
C1743 C1744 1.366 . S
C1743 C1745 1.388 . S
C1744 C1743 1.366 . S
C1744 C1748 1.385 . S
C1745 H1720 0.951 . S
C1745 C1743 1.388 . S
C1745 C1746 1.366 . S
C1746 C1745 1.366 . S
C1746 C1747 1.414 . S
C1746 C1749 1.499 . S
C1747 H1721 0.950 . S
C1747 C1746 1.414 . S
C1747 C1748 1.374 . S
C1748 H1722 0.950 . S
C1748 C1744 1.385 . S
C1748 C1747 1.374 . S
C1749 C1746 1.499 . S
C1749 C1750 1.373 . S
C1749 C1751 1.389 . S
C1750 H1723 0.950 . S
C1750 C1736 1.377 . S
C1750 C1749 1.373 . S
C1751 C1735 1.377 . S
C1751 C1749 1.389 . S
C1751 C1752 1.524 . S
C1752 C1751 1.524 . S
C1752 C1753 1.397 . S
C1752 C1757 1.363 . S
C1753 H1724 0.950 . S
C1753 C1752 1.397 . S
C1753 C1754 1.334 . S
C1754 H1725 0.950 . S
C1754 C1753 1.334 . S
C1754 C1755 1.287 . S
C1755 C1754 1.287 . S
C1755 C1756 1.524 . S
C1755 H1758 0.999 . S
C1756 H1726 0.950 . S
C1756 C1755 1.524 . S
C1756 C1757 1.415 . S
C1757 H1727 0.950 . S
C1757 C1752 1.363 . S
C1757 C1756 1.415 . S
H1758 C1755 0.999 . S
H1759 C1740 0.913 . S
C579 C1 1.460 . S
C594 C499 1.482 . S
C629 C80 1.290 . S
C644 C502 1.267 . S
C694 C538 1.720 . S
C679 C140 1.738 . S
C729 C211 1.629 . S
C744 C558 1.621 . S
C794 C512 1.736 . S
C779 C31 1.731 . S
C844 C489 1.554 . S
C829 C61 1.562 . S
C894 C542 1.530 . S
C879 C151 1.602 . S
C944 C522 1.374 . S
C929 C200 1.460 . S
C979 C20 1.319 . S
C994 C552 1.300 . S
C1044 C518 1.578 . S
C1029 C121 1.586 . S
C1079 C181 1.621 . S
C1094 C484 1.590 . S
C1129 C91 1.330 . S
C1144 C532 1.318 . S
C1194 C498 1.482 . S
C1179 C260 1.483 . S
C1229 C320 1.291 . S
C1244 C504 1.260 . S
C1279 C361 1.729 . S
C1294 C539 1.721 . S
C1329 C451 1.630 . S
C1344 C559 1.625 . S
C1379 C271 1.722 . S
C1394 C509 1.738 . S
C1444 C492 1.554 . S
C1429 C301 1.559 . S
C1494 C544 1.529 . S
C1479 C380 1.587 . S
C1544 C524 1.374 . S
C1529 C440 1.460 . S
C1579 C241 1.310 . S
C1594 C549 1.304 . S
C1644 C519 1.579 . S
C1629 C391 1.579 . S
C1694 C482 1.587 . S
C1679 C421 1.618 . S
C1729 C331 1.329 . S
C1744 C529 1.318 . S
