# Generated by pormake.
# Topology ptr, (4,4)-cn, num edge types: 1
# Building blocks:
#     Node 0, Type 0, BuildingBlock: UXUYUI_clean_sbu_0, # of connection points: 4
#     Node 1, Type 0, BuildingBlock: UXUYUI_clean_sbu_0, # of connection points: 4
#     Node 2, Type 0, BuildingBlock: UXUYUI_clean_sbu_0, # of connection points: 4
#     Node 3, Type 0, BuildingBlock: UXUYUI_clean_sbu_0, # of connection points: 4
#     Node 4, Type 0, BuildingBlock: UXUYUI_clean_sbu_0, # of connection points: 4
#     Node 5, Type 0, BuildingBlock: UXUYUI_clean_sbu_0, # of connection points: 4
#     Node 6, Type 0, BuildingBlock: UXUYUI_clean_sbu_0, # of connection points: 4
#     Node 7, Type 0, BuildingBlock: UXUYUI_clean_sbu_0, # of connection points: 4
#     Node 8, Type 0, BuildingBlock: UXUYUI_clean_sbu_0, # of connection points: 4
#     Node 9, Type 0, BuildingBlock: UXUYUI_clean_sbu_0, # of connection points: 4
#     Node 10, Type 0, BuildingBlock: UXUYUI_clean_sbu_0, # of connection points: 4
#     Node 11, Type 0, BuildingBlock: UXUYUI_clean_sbu_0, # of connection points: 4
#     Node 12, Type 0, BuildingBlock: UXUYUI_clean_sbu_0, # of connection points: 4
#     Node 13, Type 0, BuildingBlock: UXUYUI_clean_sbu_0, # of connection points: 4
#     Node 14, Type 0, BuildingBlock: UXUYUI_clean_sbu_0, # of connection points: 4
#     Node 15, Type 0, BuildingBlock: UXUYUI_clean_sbu_0, # of connection points: 4
#     Node 16, Type 0, BuildingBlock: UXUYUI_clean_sbu_0, # of connection points: 4
#     Node 17, Type 0, BuildingBlock: UXUYUI_clean_sbu_0, # of connection points: 4
#     Node 18, Type 1, BuildingBlock: KUFVIS_clean_linker_0, # of connection points: 4
#     Node 19, Type 1, BuildingBlock: KUFVIS_clean_linker_0, # of connection points: 4
#     Node 20, Type 1, BuildingBlock: KUFVIS_clean_linker_0, # of connection points: 4
#     Node 21, Type 1, BuildingBlock: KUFVIS_clean_linker_0, # of connection points: 4
#     Node 22, Type 1, BuildingBlock: KUFVIS_clean_linker_0, # of connection points: 4
#     Node 23, Type 1, BuildingBlock: KUFVIS_clean_linker_0, # of connection points: 4
#     Node 24, Type 1, BuildingBlock: KUFVIS_clean_linker_0, # of connection points: 4
#     Node 25, Type 1, BuildingBlock: KUFVIS_clean_linker_0, # of connection points: 4
#     Node 26, Type 1, BuildingBlock: KUFVIS_clean_linker_0, # of connection points: 4
#     Node 27, Type 1, BuildingBlock: KUFVIS_clean_linker_0, # of connection points: 4
#     Node 28, Type 1, BuildingBlock: KUFVIS_clean_linker_0, # of connection points: 4
#     Node 29, Type 1, BuildingBlock: KUFVIS_clean_linker_0, # of connection points: 4
#     Node 30, Type 1, BuildingBlock: KUFVIS_clean_linker_0, # of connection points: 4
#     Node 31, Type 1, BuildingBlock: KUFVIS_clean_linker_0, # of connection points: 4
#     Node 32, Type 1, BuildingBlock: KUFVIS_clean_linker_0, # of connection points: 4
#     Node 33, Type 1, BuildingBlock: KUFVIS_clean_linker_0, # of connection points: 4
#     Node 34, Type 1, BuildingBlock: KUFVIS_clean_linker_0, # of connection points: 4
#     Node 35, Type 1, BuildingBlock: KUFVIS_clean_linker_0, # of connection points: 4
#     Edge 36, Type (0, 1), BuildingBlock: CIFDUS_clean_linker_0, # of connection points: 2
#     Edge 37, Type (0, 1), BuildingBlock: CIFDUS_clean_linker_0, # of connection points: 2
#     Edge 38, Type (0, 1), BuildingBlock: CIFDUS_clean_linker_0, # of connection points: 2
#     Edge 39, Type (0, 1), BuildingBlock: CIFDUS_clean_linker_0, # of connection points: 2
#     Edge 40, Type (0, 1), BuildingBlock: CIFDUS_clean_linker_0, # of connection points: 2
#     Edge 41, Type (0, 1), BuildingBlock: CIFDUS_clean_linker_0, # of connection points: 2
#     Edge 42, Type (0, 1), BuildingBlock: CIFDUS_clean_linker_0, # of connection points: 2
#     Edge 43, Type (0, 1), BuildingBlock: CIFDUS_clean_linker_0, # of connection points: 2
#     Edge 44, Type (0, 1), BuildingBlock: CIFDUS_clean_linker_0, # of connection points: 2
#     Edge 45, Type (0, 1), BuildingBlock: CIFDUS_clean_linker_0, # of connection points: 2
#     Edge 46, Type (0, 1), BuildingBlock: CIFDUS_clean_linker_0, # of connection points: 2
#     Edge 47, Type (0, 1), BuildingBlock: CIFDUS_clean_linker_0, # of connection points: 2
#     Edge 48, Type (0, 1), BuildingBlock: CIFDUS_clean_linker_0, # of connection points: 2
#     Edge 49, Type (0, 1), BuildingBlock: CIFDUS_clean_linker_0, # of connection points: 2
#     Edge 50, Type (0, 1), BuildingBlock: CIFDUS_clean_linker_0, # of connection points: 2
#     Edge 51, Type (0, 1), BuildingBlock: CIFDUS_clean_linker_0, # of connection points: 2
#     Edge 52, Type (0, 1), BuildingBlock: CIFDUS_clean_linker_0, # of connection points: 2
#     Edge 53, Type (0, 1), BuildingBlock: CIFDUS_clean_linker_0, # of connection points: 2
#     Edge 54, Type (0, 1), BuildingBlock: CIFDUS_clean_linker_0, # of connection points: 2
#     Edge 55, Type (0, 1), BuildingBlock: CIFDUS_clean_linker_0, # of connection points: 2
#     Edge 56, Type (0, 1), BuildingBlock: CIFDUS_clean_linker_0, # of connection points: 2
#     Edge 57, Type (0, 1), BuildingBlock: CIFDUS_clean_linker_0, # of connection points: 2
#     Edge 58, Type (0, 1), BuildingBlock: CIFDUS_clean_linker_0, # of connection points: 2
#     Edge 59, Type (0, 1), BuildingBlock: CIFDUS_clean_linker_0, # of connection points: 2
#     Edge 60, Type (0, 1), BuildingBlock: CIFDUS_clean_linker_0, # of connection points: 2
#     Edge 61, Type (0, 1), BuildingBlock: CIFDUS_clean_linker_0, # of connection points: 2
#     Edge 62, Type (0, 1), BuildingBlock: CIFDUS_clean_linker_0, # of connection points: 2
#     Edge 63, Type (0, 1), BuildingBlock: CIFDUS_clean_linker_0, # of connection points: 2
#     Edge 64, Type (0, 1), BuildingBlock: CIFDUS_clean_linker_0, # of connection points: 2
#     Edge 65, Type (0, 1), BuildingBlock: CIFDUS_clean_linker_0, # of connection points: 2
#     Edge 66, Type (0, 1), BuildingBlock: CIFDUS_clean_linker_0, # of connection points: 2
#     Edge 67, Type (0, 1), BuildingBlock: CIFDUS_clean_linker_0, # of connection points: 2
#     Edge 68, Type (0, 1), BuildingBlock: CIFDUS_clean_linker_0, # of connection points: 2
#     Edge 69, Type (0, 1), BuildingBlock: CIFDUS_clean_linker_0, # of connection points: 2
#     Edge 70, Type (0, 1), BuildingBlock: CIFDUS_clean_linker_0, # of connection points: 2
#     Edge 71, Type (0, 1), BuildingBlock: CIFDUS_clean_linker_0, # of connection points: 2
#     Edge 72, Type (0, 1), BuildingBlock: CIFDUS_clean_linker_0, # of connection points: 2
#     Edge 73, Type (0, 1), BuildingBlock: CIFDUS_clean_linker_0, # of connection points: 2
#     Edge 74, Type (0, 1), BuildingBlock: CIFDUS_clean_linker_0, # of connection points: 2
#     Edge 75, Type (0, 1), BuildingBlock: CIFDUS_clean_linker_0, # of connection points: 2
#     Edge 76, Type (0, 1), BuildingBlock: CIFDUS_clean_linker_0, # of connection points: 2
#     Edge 77, Type (0, 1), BuildingBlock: CIFDUS_clean_linker_0, # of connection points: 2
#     Edge 78, Type (0, 1), BuildingBlock: CIFDUS_clean_linker_0, # of connection points: 2
#     Edge 79, Type (0, 1), BuildingBlock: CIFDUS_clean_linker_0, # of connection points: 2
#     Edge 80, Type (0, 1), BuildingBlock: CIFDUS_clean_linker_0, # of connection points: 2
#     Edge 81, Type (0, 1), BuildingBlock: CIFDUS_clean_linker_0, # of connection points: 2
#     Edge 82, Type (0, 1), BuildingBlock: CIFDUS_clean_linker_0, # of connection points: 2
#     Edge 83, Type (0, 1), BuildingBlock: CIFDUS_clean_linker_0, # of connection points: 2
#     Edge 84, Type (0, 1), BuildingBlock: CIFDUS_clean_linker_0, # of connection points: 2
#     Edge 85, Type (0, 1), BuildingBlock: CIFDUS_clean_linker_0, # of connection points: 2
#     Edge 86, Type (0, 1), BuildingBlock: CIFDUS_clean_linker_0, # of connection points: 2
#     Edge 87, Type (0, 1), BuildingBlock: CIFDUS_clean_linker_0, # of connection points: 2
#     Edge 88, Type (0, 1), BuildingBlock: CIFDUS_clean_linker_0, # of connection points: 2
#     Edge 89, Type (0, 1), BuildingBlock: CIFDUS_clean_linker_0, # of connection points: 2
#     Edge 90, Type (0, 1), BuildingBlock: CIFDUS_clean_linker_0, # of connection points: 2
#     Edge 91, Type (0, 1), BuildingBlock: CIFDUS_clean_linker_0, # of connection points: 2
#     Edge 92, Type (0, 1), BuildingBlock: CIFDUS_clean_linker_0, # of connection points: 2
#     Edge 93, Type (0, 1), BuildingBlock: CIFDUS_clean_linker_0, # of connection points: 2
#     Edge 94, Type (0, 1), BuildingBlock: CIFDUS_clean_linker_0, # of connection points: 2
#     Edge 95, Type (0, 1), BuildingBlock: CIFDUS_clean_linker_0, # of connection points: 2
#     Edge 96, Type (0, 1), BuildingBlock: CIFDUS_clean_linker_0, # of connection points: 2
#     Edge 97, Type (0, 1), BuildingBlock: CIFDUS_clean_linker_0, # of connection points: 2
#     Edge 98, Type (0, 1), BuildingBlock: CIFDUS_clean_linker_0, # of connection points: 2
#     Edge 99, Type (0, 1), BuildingBlock: CIFDUS_clean_linker_0, # of connection points: 2
#     Edge 100, Type (0, 1), BuildingBlock: CIFDUS_clean_linker_0, # of connection points: 2
#     Edge 101, Type (0, 1), BuildingBlock: CIFDUS_clean_linker_0, # of connection points: 2
#     Edge 102, Type (0, 1), BuildingBlock: CIFDUS_clean_linker_0, # of connection points: 2
#     Edge 103, Type (0, 1), BuildingBlock: CIFDUS_clean_linker_0, # of connection points: 2
#     Edge 104, Type (0, 1), BuildingBlock: CIFDUS_clean_linker_0, # of connection points: 2
#     Edge 105, Type (0, 1), BuildingBlock: CIFDUS_clean_linker_0, # of connection points: 2
#     Edge 106, Type (0, 1), BuildingBlock: CIFDUS_clean_linker_0, # of connection points: 2
#     Edge 107, Type (0, 1), BuildingBlock: CIFDUS_clean_linker_0, # of connection points: 2
# Relax obj value: 0.092
# Max RMSD: 0.233
# Mean RMSD: 0.128
data_MOF--net-ptr--node1-UXUYUI_clean_sbu_0--node2-KUFVIS_clean_linker_0--edge1-CIFDUS_clean_linker_0
_symmetry_space_group_name_H-M    P1
_symmetry_Int_Tables_number       1
_symmetry_cell_setting            triclinic
loop_
_symmetry_equiv_pos_as_xyz
'x, y, z'
_cell_length_a     88.175704
_cell_length_b     88.222701
_cell_length_c     51.456681
_cell_angle_alpha  90.0602
_cell_angle_beta   90.045378
_cell_angle_gamma 120.09221
loop_
_atom_site_label
_atom_site_type_symbol
_atom_site_fract_x
_atom_site_fract_y
_atom_site_fract_z
_atom_type_partial_charge
Li0 Li 0.99174 0.34461 0.00735 0.0
Li1 Li 0.02311 0.36003 0.01248 0.0
Li2 Li 1.00514 0.37099 0.03491 0.0
Li3 Li 0.00951 0.37345 0.9866 0.0
C4 C 1.0048 0.33353 0.04861 0.0
N5 N 1.00505 0.3038 0.06473 0.0
C6 C 1.00448 0.32165 0.03033 0.0
C7 C 1.00525 0.3303 0.0751 0.0
C8 C 1.00461 0.3067 0.03886 0.0
C9 C 1.00537 0.31518 0.08286 0.0
C10 C 0.01841 0.34777 0.96142 0.0
C11 C 0.04309 0.35733 0.9326 0.0
N12 N 0.03692 0.34044 0.92513 0.0
C13 C 0.01223 0.33052 0.95332 0.0
C14 C 0.03388 0.36131 0.95087 0.0
C15 C 0.02181 0.32708 0.935 0.0
C16 C 0.96541 0.31919 0.97636 0.0
N17 N 0.97088 0.32234 0.00148 0.0
C18 C 0.94547 0.29568 0.01493 0.0
C19 C 0.96138 0.31091 0.02073 0.0
C20 C 0.93925 0.29248 0.98922 0.0
C21 C 0.94955 0.30438 0.96981 0.0
H22 H 0.97319 0.32852 0.96147 0.0
H23 H 0.96591 0.31379 0.04063 0.0
C24 C 0.05614 0.37065 0.03329 0.0
N25 N 0.04397 0.35847 0.01704 0.0
C26 C 0.07175 0.37079 0.03847 0.0
C27 C 0.06213 0.34574 0.01024 0.0
C28 C 0.04661 0.34603 0.00568 0.0
C29 C 0.07501 0.35826 0.02684 0.0
H30 H 0.05361 0.3802 0.04246 0.0
H31 H 0.03665 0.33621 0.99328 0.0
C32 C 0.97042 0.35721 0.00021 0.0
N33 N 0.93547 0.33978 0.98606 0.0
C34 C 0.96557 0.35814 0.97465 0.0
C35 C 0.95748 0.34749 0.01861 0.0
C36 C 0.94783 0.34924 0.96788 0.0
C37 C 0.93989 0.33874 0.01105 0.0
C38 C 0.03981 0.40085 0.00916 0.0
C39 C 0.03788 0.4149 0.01735 0.0
C40 C 0.05483 0.4041 0.99547 0.0
C41 C 0.05086 0.43198 0.01124 0.0
C42 C 0.06753 0.42137 0.98976 0.0
N43 N 0.06529 0.43483 -0.00233 0.0
C44 C 0.01819 0.39418 0.07781 0.0
C45 C 0.98828 0.38359 0.06783 0.0
C46 C 0.0178 0.4052 0.09705 0.0
N47 N 1.00357 0.38375 0.06361 0.0
C48 C 0.98724 0.3942 0.08708 0.0
C49 C 1.00217 0.4053 0.10182 0.0
H50 H 0.03026 0.39425 0.07373 0.0
H51 H 0.97698 0.37555 0.05585 0.0
C52 C 0.01042 0.38247 0.93328 0.0
N53 N 0.01115 0.38803 0.95813 0.0
C54 C 0.00948 0.39218 0.91257 0.0
C55 C 0.01034 0.41333 0.94331 0.0
C56 C 0.01107 0.4031 0.96344 0.0
C57 C 0.00921 0.40771 0.91751 0.0
H58 H 0.00985 0.37015 0.92954 0.0
H59 H 0.01081 0.40681 0.98337 0.0
O60 O 1.00483 0.34835 0.04076 0.0
O61 O 0.00927 0.35134 0.97951 0.0
O62 O 0.98776 0.36539 0.00703 0.0
O63 O 0.02727 0.38404 0.01509 0.0
H64 H 1.00412 0.32394 0.00979 0.0
H65 H 1.00554 0.3394 0.08949 0.0
H66 H 1.00438 0.2974 0.0249 0.0
H67 H 1.00572 0.31251 0.1033 0.0
H68 H 0.05511 0.36768 0.92432 0.0
H69 H 1.0002 0.31989 0.96118 0.0
H70 H 0.03866 0.37473 0.9566 0.0
H71 H 0.01723 0.31378 0.92864 0.0
H72 H 0.93788 0.2868 0.03042 0.0
H73 H 0.94533 0.30228 0.9497 0.0
H74 H 0.08098 0.38042 0.05198 0.0
H75 H 0.064 0.33582 0.0008 0.0
H76 H 0.97538 0.3655 0.96012 0.0
H77 H 0.96101 0.34636 0.03837 0.0
H78 H 0.94389 0.34978 0.94815 0.0
H79 H 0.92975 0.33103 0.02501 0.0
H80 H 0.02638 0.41264 0.02808 0.0
H81 H 0.05676 0.39343 0.9895 0.0
H82 H 0.04947 0.44296 0.01729 0.0
H83 H 0.0792 0.42407 0.97913 0.0
H84 H 0.02956 0.41347 0.10816 0.0
H85 H 0.97499 0.39403 0.08998 0.0
H86 H 0.00856 0.38739 0.89291 0.0
H87 H 0.00978 0.42502 0.94793 0.0
Li88 Li 0.66935 0.64543 0.00293 0.0
Li89 Li 0.65473 0.66317 0.00707 0.0
Li90 Li 0.64369 0.63497 0.02996 0.0
Li91 Li 0.64021 0.6355 0.98327 0.0
C92 C 0.66705 0.65726 0.06072 0.0
N93 N 0.66566 0.65645 0.11435 0.0
C94 C 0.66082 0.66683 0.07409 0.0
C95 C 0.67262 0.64732 0.07459 0.0
C96 C 0.66022 0.66625 0.10122 0.0
C97 C 0.6718 0.64707 0.10171 0.0
C98 C 0.67083 0.67111 0.95966 0.0
C99 C 0.66965 0.69287 0.93277 0.0
N100 N 0.68737 0.70122 0.93003 0.0
C101 C 0.68902 0.67986 0.95649 0.0
C102 C 0.66104 0.6776 0.94761 0.0
C103 C 0.69714 0.69508 0.94146 0.0
C104 C 0.69482 0.64083 0.97578 0.0
N105 N 0.69176 0.64717 -0.00195 0.0
C106 C 0.72127 0.65777 0.01221 0.0
C107 C 0.70455 0.65546 0.01623 0.0
C108 C 0.72478 0.65132 0.9894 0.0
C109 C 0.71123 0.64256 0.9712 0.0
H110 H 0.6846 0.63473 0.9613 0.0
H111 H 0.70188 0.66064 0.03358 0.0
C112 C 0.64599 0.68943 0.01934 0.0
N113 N 0.65886 0.68666 0.01011 0.0
C114 C 0.64946 0.70646 0.02457 0.0
C115 C 0.67906 0.71752 0.00939 0.0
C116 C 0.67515 0.7003 0.00511 0.0
C117 C 0.66631 0.72085 0.02006 0.0
H118 H 0.63324 0.67835 0.02374 0.0
H119 H 0.68534 0.69783 -0.00148 0.0
C120 C 0.65478 0.61115 0.99677 0.0
N121 N 0.6692 0.59084 0.98265 0.0
C122 C 0.6517 0.60365 0.97199 0.0
C123 C 0.66517 0.60828 0.01438 0.0
C124 C 0.6591 0.59341 0.96524 0.0
C125 C 0.67236 0.598 0.00686 0.0
C126 C 0.61402 0.6388 0.0019 0.0
C127 C 0.59991 0.6228 0.00995 0.0
C128 C 0.61125 0.64911 0.98407 0.0
C129 C 0.58325 0.61727 -0.00024 0.0
C130 C 0.59439 0.64312 0.97433 0.0
N131 N 0.58086 0.62745 0.98229 0.0
C132 C 0.6207 0.62612 0.0729 0.0
C133 C 0.63262 0.60755 0.06659 0.0
C134 C 0.61021 0.61556 0.09321 0.0
N135 N 0.63151 0.62186 0.05997 0.0
C136 C 0.62252 0.59675 0.08692 0.0
C137 C 0.61098 0.60059 0.10032 0.0
H138 H 0.61996 0.6375 0.06702 0.0
H139 H 0.64105 0.60428 0.05574 0.0
C140 C 0.62623 0.62963 0.93175 0.0
N141 N 0.62446 0.62265 0.95582 0.0
C142 C 0.61432 0.61995 0.9121 0.0
C143 C 0.59907 0.59607 0.94238 0.0
C144 C 0.61132 0.60617 0.96137 0.0
C145 C 0.60045 0.60293 0.91732 0.0
H146 H 0.63693 0.64265 0.92774 0.0
H147 H 0.61035 0.60092 0.98067 0.0
O148 O 0.66719 0.6572 0.03416 0.0
O149 O 0.66267 0.65624 0.9744 0.0
O150 O 0.64777 0.62133 0.0037 0.0
O151 O 0.6305 0.64426 0.01121 0.0
H152 H 0.65635 0.67449 0.06362 0.0
H153 H 0.67734 0.63972 0.0645 0.0
H154 H 0.65537 0.67354 0.11183 0.0
H155 H 0.67597 0.63936 0.1127 0.0
H156 H 0.66224 0.69809 0.92345 0.0
H157 H 0.69682 0.67505 0.96569 0.0
H158 H 0.64697 0.67101 0.94987 0.0
H159 H 0.71121 0.70202 0.93892 0.0
H160 H 0.73142 0.6647 0.02663 0.0
H161 H 0.71352 0.63775 0.9531 0.0
H162 H 0.63925 0.70818 0.03326 0.0
H163 H 0.69216 0.72806 0.0051 0.0
H164 H 0.64384 0.60582 0.95801 0.0
H165 H 0.66794 0.61421 0.03348 0.0
H166 H 0.65687 0.58757 0.94611 0.0
H167 H 0.68053 0.59579 0.02023 0.0
H168 H 0.60185 0.6146 0.02361 0.0
H169 H 0.62201 0.66157 0.97777 0.0
H170 H 0.57222 0.60486 0.00567 0.0
H171 H 0.59207 0.65092 0.96042 0.0
H172 H 0.60161 0.61907 0.10324 0.0
H173 H 0.62338 0.58524 0.09164 0.0
H174 H 0.61612 0.62566 0.89294 0.0
H175 H 0.58854 0.58311 0.94738 0.0
Li176 Li 0.37598 0.00958 0.98762 0.0
Li177 Li 0.37659 0.01261 0.03592 0.0
Li178 Li 0.34844 0.99333 0.01175 0.0
Li179 Li 0.36209 0.02466 0.00876 0.0
C180 C 0.37499 0.97995 0.00641 0.0
N181 N 0.386 0.95735 0.98925 0.0
C182 C 0.39166 0.98296 0.01296 0.0
C183 C 0.36381 0.96528 0.99149 0.0
C184 C 0.39703 0.97144 0.00399 0.0
C185 C 0.36964 0.95405 0.98292 0.0
C186 C 0.39567 0.04841 0.00284 0.0
C187 C 0.40495 0.07839 0.01404 0.0
N188 N 0.41089 0.08336 0.98937 0.0
C189 C 0.40189 0.05382 0.9776 0.0
C190 C 0.39725 0.0608 0.02124 0.0
C191 C 0.40956 0.07154 0.97119 0.0
C192 C 0.38543 0.00881 0.93461 0.0
N193 N 0.39052 0.01007 0.95982 0.0
C194 C 0.41866 0.01487 0.94686 0.0
C195 C 0.40683 0.01321 0.96621 0.0
C196 C 0.4138 0.01372 0.92066 0.0
C197 C 0.3969 0.01057 0.91461 0.0
H198 H 0.37265 0.00691 0.92994 0.0
H199 H 0.41081 0.0149 0.98636 0.0
C200 C 0.39021 1.0005 0.0753 0.0
N201 N 0.39118 0.01511 0.06483 0.0
C202 C 0.40248 1.00198 0.09384 0.0
C203 C 0.41609 0.03349 0.09123 0.0
C204 C 0.40371 0.0314 0.07251 0.0
C205 C 0.41574 0.01867 0.10183 0.0
H206 H 0.38023 0.98769 0.06862 0.0
H207 H 0.40443 0.04279 0.06355 0.0
C208 C 0.34073 0.9991 0.96122 0.0
N209 N 0.31513 0.98126 0.92417 0.0
C210 C 0.32929 1.00504 0.95416 0.0
C211 C 0.33927 0.98421 0.94925 0.0
C212 C 0.3164 0.99581 0.93543 0.0
C213 C 0.32621 0.97533 0.93061 0.0
C214 C 0.3374 0.00836 0.04944 0.0
C215 C 0.3255 0.0085 0.03164 0.0
C216 C 0.33313 0.0058 0.07582 0.0
C217 C 0.30948 0.0061 0.04055 0.0
C218 C 0.31698 1.00345 0.08398 0.0
N219 N 0.30559 1.00364 0.06632 0.0
C220 C 0.32664 0.95914 0.03011 0.0
C221 C 0.31141 0.96881 0.00319 0.0
C222 C 0.31124 0.94325 0.03453 0.0
N223 N 0.32651 0.97155 0.01466 0.0
C224 C 0.29571 0.95302 0.00689 0.0
C225 C 0.2954 0.93997 0.02291 0.0
H226 H 0.33872 0.96173 0.03942 0.0
H227 H 0.31138 0.97894 0.99152 0.0
C228 C 0.36133 0.05075 0.97968 0.0
N229 N 0.3585 0.04421 0.00421 0.0
C230 C 0.36093 0.06602 0.97438 0.0
C231 C 0.35377 0.0672 0.01941 0.0
C232 C 0.35465 0.052 0.024 0.0
C233 C 0.35727 0.07449 0.99441 0.0
H234 H 0.36444 0.04434 0.96438 0.0
H235 H 0.3527 0.04668 0.04343 0.0
O236 O 0.36953 0.99112 0.01496 0.0
O237 O 0.38765 0.03103 0.0093 0.0
O238 O 0.35333 0.00792 0.97967 0.0
O239 O 0.35307 0.01045 0.04114 0.0
H240 H 0.40046 0.99419 0.02462 0.0
H241 H 0.35072 0.96251 0.98673 0.0
H242 H 0.40995 0.9737 0.00873 0.0
H243 H 0.36114 0.94268 0.97129 0.0
H244 H 0.40607 0.08808 0.028 0.0
H245 H 0.40067 0.04445 0.96302 0.0
H246 H 0.39213 0.05683 0.04068 0.0
H247 H 0.41436 0.0759 0.95171 0.0
H248 H 0.43167 0.01762 0.95231 0.0
H249 H 0.39265 0.00959 0.89462 0.0
H250 H 0.40165 0.99023 0.10178 0.0
H251 H 0.42617 0.04658 0.09677 0.0
H252 H 0.33028 0.0166 0.96315 0.0
H253 H 0.34818 0.97961 0.95419 0.0
H254 H 0.3074 1.0002 0.92987 0.0
H255 H 0.3249 0.96376 0.92124 0.0
H256 H 0.32858 0.01042 0.01117 0.0
H257 H 0.3422 0.0056 0.08983 0.0
H258 H 0.30014 0.00616 0.02697 0.0
H259 H 0.31349 1.00145 0.10434 0.0
H260 H 0.3117 0.93388 0.04759 0.0
H261 H 0.28394 0.95116 0.99739 0.0
H262 H 0.36363 0.07129 0.95484 0.0
H263 H 0.35098 0.0735 0.03529 0.0
Li264 Li 0.02601 0.66326 0.00844 0.0
Li265 Li 0.00855 0.63595 0.03175 0.0
Li266 Li 0.0091 0.63579 0.98455 0.0
Li267 Li 0.99408 0.64849 0.00721 0.0
C268 C 0.04258 0.64396 0.02305 0.0
N269 N 0.0701 0.64691 0.0526 0.0
C270 C 0.04819 0.65475 0.04503 0.0
C271 C 0.05091 0.63462 0.01615 0.0
C272 C 0.06214 0.65608 0.0597 0.0
C273 C 0.06482 0.6363 0.03133 0.0
C274 C 0.99986 0.65806 0.05911 0.0
C275 C 0.97533 0.6416 0.08774 0.0
N276 N 0.97986 0.65647 0.10144 0.0
C277 C 1.00429 0.67317 0.07348 0.0
C278 C 0.98529 0.64213 0.0663 0.0
C279 C 0.994 0.6721 0.09482 0.0
C280 C 0.04703 0.69946 0.02034 0.0
N281 N 0.0475 0.68557 0.00979 0.0
C282 C 0.07881 0.7024 0.00677 0.0
C283 C 0.06295 0.68692 0.00235 0.0
C284 C 0.0788 0.71674 0.01868 0.0
C285 C 0.06259 0.71528 0.02485 0.0
H286 H 0.0346 0.69805 0.02615 0.0
H287 H 0.06305 0.67574 0.99392 0.0
C288 C 1.00383 0.60541 0.05565 0.0
N289 N 0.00846 0.62234 0.06056 0.0
C290 C 1.00563 0.59525 0.07491 0.0
C291 C 0.0165 0.62004 0.10408 0.0
C292 C 0.01451 0.62971 0.08428 0.0
C293 C 0.01236 0.60266 0.09938 0.0
H294 H 0.99933 0.60001 0.03644 0.0
H295 H 0.01834 0.64328 0.08757 0.0
C296 C 0.02112 0.6667 0.95621 0.0
N297 N 0.04228 0.68264 0.91364 0.0
C298 C 0.01766 0.67719 0.93974 0.0
C299 C 0.03533 0.66429 0.951 0.0
C300 C 0.02851 0.68514 0.91832 0.0
C301 C 0.04588 0.67247 0.9294 0.0
C302 C 0.9739 0.61326 0.99338 0.0
C303 C 0.97061 0.61955 0.97037 0.0
C304 C 0.96219 0.5962 0.00153 0.0
C305 C 0.9556 0.60864 0.95593 0.0
C306 C 0.94732 0.58569 0.98654 0.0
N307 N 0.94436 0.59208 0.96424 0.0
C308 C 0.00901 0.60677 0.96271 0.0
C309 C 1.00397 0.62359 0.93168 0.0
C310 C 1.0063 0.5942 0.94391 0.0
N311 N 1.00771 0.62103 0.95636 0.0
C312 C 1.00128 0.61142 0.91223 0.0
C313 C 1.00217 0.59632 0.91827 0.0
H314 H 0.01167 0.60493 0.98263 0.0
H315 H 1.00265 0.63484 0.92718 0.0
C316 C 0.97473 0.6648 0.99144 0.0
N317 N 0.97382 0.65133 0.00549 0.0
C318 C 0.9596 0.66578 0.98672 0.0
C319 C 0.94302 0.63942 0.01196 0.0
C320 C 0.95844 0.63896 0.01618 0.0
C321 C 0.94335 0.65271 0.99648 0.0
H322 H 0.98708 0.6744 0.98299 0.0
H323 H 0.95794 0.62826 0.02708 0.0
O324 O 0.02876 0.6422 0.00861 0.0
O325 O 0.00984 0.65898 0.03817 0.0
O326 O 0.01058 0.6589 0.97727 0.0
O327 O 0.98852 0.62364 0.00791 0.0
H328 H 0.04179 0.66196 0.05078 0.0
H329 H 0.04664 0.62614 -0.00073 0.0
H330 H 0.06662 0.66438 0.07675 0.0
H331 H 0.0714 0.62915 0.02623 0.0
H332 H 0.96401 0.62937 0.0935 0.0
H333 H 0.01555 0.6856 0.0682 0.0
H334 H 0.98168 0.63028 0.05549 0.0
H335 H 0.99727 0.6837 0.10611 0.0
H336 H 0.091 0.703 0.00158 0.0
H337 H 0.06197 0.72591 0.03435 0.0
H338 H 1.00246 0.582 0.07033 0.0
H339 H 0.02152 0.62621 0.12276 0.0
H340 H 1.00669 0.67917 0.94346 0.0
H341 H 0.03818 0.65613 0.96335 0.0
H342 H 0.02599 0.6933 0.90542 0.0
H343 H 0.05691 0.67071 0.92515 0.0
H344 H 0.97952 0.63271 0.96372 0.0
H345 H 0.96458 0.59115 0.01929 0.0
H346 H 0.95288 0.61334 0.93811 0.0
H347 H 0.93813 0.57246 0.99263 0.0
H348 H 1.00689 0.5827 0.94961 0.0
H349 H 0.9984 0.61379 0.89269 0.0
H350 H 0.96049 0.67613 0.97438 0.0
H351 H 0.93085 0.62916 0.02007 0.0
Li352 Li 0.35116 0.36714 0.00823 0.0
Li353 Li 0.38079 0.37918 0.02617 0.0
Li354 Li 0.37545 0.3779 0.9791 0.0
Li355 Li 0.36708 0.35065 0.0016 0.0
C356 C 0.36378 0.40127 0.01006 0.0
N357 N 0.34716 0.42022 0.01934 0.0
C358 C 0.36208 0.40584 0.03546 0.0
C359 C 0.35727 0.40655 0.98935 0.0
C360 C 0.35357 0.41537 0.03976 0.0
C361 C 0.34885 0.41607 0.99445 0.0
C362 C 0.36192 0.34774 0.05497 0.0
C363 C 0.38073 0.34024 0.07899 0.0
N364 N 0.36704 0.32973 0.09468 0.0
C365 C 0.34804 0.33687 0.07131 0.0
C366 C 0.37841 0.34946 0.0588 0.0
C367 C 0.35089 0.32787 0.0913 0.0
C368 C 0.31697 0.36376 -0.00088 0.0
N369 N 0.32917 0.36548 0.01692 0.0
C370 C 0.31206 0.36734 0.05144 0.0
C371 C 0.32684 0.367 0.04269 0.0
C372 C 0.29936 0.36597 0.03356 0.0
C373 C 0.30183 0.3639 0.00709 0.0
H374 H 0.31904 0.3625 0.97875 0.0
H375 H 0.33672 0.36831 0.05644 0.0
C376 C 0.41193 0.40658 0.04844 0.0
N377 N 0.39558 0.39314 0.05389 0.0
C378 C 0.42225 0.41823 0.068 0.0
C379 C 0.39869 0.40197 0.09838 0.0
C380 C 0.38889 0.39059 0.07832 0.0
C381 C 0.41549 0.41617 0.09324 0.0
H382 H 0.41668 0.40869 0.02871 0.0
H383 H 0.37569 0.3801 0.08204 0.0
C384 C 0.34813 0.3532 0.95078 0.0
N385 N 0.33907 0.34924 0.89878 0.0
C386 C 0.34808 0.33978 0.93622 0.0
C387 C 0.3435 0.36454 0.93892 0.0
C388 C 0.34347 0.33801 0.90995 0.0
C389 C 0.33899 0.36235 0.9126 0.0
C390 C 0.40271 0.37261 0.97976 0.0
C391 C 0.39764 0.35983 0.96039 0.0
C392 C 0.41958 0.38724 0.97924 0.0
C393 C 0.40955 0.36186 0.94092 0.0
C394 C 0.43109 0.38884 0.95937 0.0
N395 N 0.42588 0.37622 0.94079 0.0
C396 C 0.39779 0.40894 0.95269 0.0
C397 C 0.38699 0.38388 0.92569 0.0
C398 C 0.4096 0.4194 0.93343 0.0
N399 N 0.38705 0.39146 0.94873 0.0
C400 C 0.39846 0.39382 0.90589 0.0
C401 C 0.41038 0.41173 0.90991 0.0
H402 H 0.39791 0.4146 0.9714 0.0
H403 H 0.37889 0.36993 0.92309 0.0
C404 C 0.35026 0.31371 0.99282 0.0
N405 N 0.36551 0.32814 4e-05 0.0
C406 C 0.34977 0.29785 0.98805 0.0
C407 C 0.38042 0.31176 -0.00035 0.0
C408 C 0.38029 0.3273 0.00431 0.0
C409 C 0.36515 0.29688 0.99069 0.0
H410 H 0.33868 0.31474 0.9896 0.0
H411 H 0.39224 0.33892 0.01022 0.0
O412 O 0.37159 0.39149 0.00552 0.0
O413 O 0.35927 0.35651 0.03522 0.0
O414 O 0.35252 0.35506 0.97655 0.0
O415 O 0.39102 0.37108 -0.00145 0.0
H416 H 0.36704 0.40184 0.05171 0.0
H417 H 0.35869 0.40331 0.96956 0.0
H418 H 0.352 0.41884 0.05934 0.0
H419 H 0.34365 0.42017 0.97861 0.0
H420 H 0.39342 0.34144 0.08217 0.0
H421 H 0.33519 0.3354 0.06855 0.0
H422 H 0.38931 0.35783 0.04635 0.0
H423 H 0.34027 0.31941 0.10411 0.0
H424 H 0.31055 0.36862 0.07208 0.0
H425 H 0.29237 0.36279 0.99268 0.0
H426 H 0.43503 0.42917 0.06317 0.0
H427 H 0.39302 0.39989 0.11763 0.0
H428 H 0.35168 0.3309 0.94504 0.0
H429 H 0.34356 0.37504 0.94984 0.0
H430 H 0.34343 0.32772 0.89843 0.0
H431 H 0.33546 0.3711 0.90314 0.0
H432 H 0.38452 0.34866 0.95996 0.0
H433 H 0.42375 0.39735 0.99385 0.0
H434 H 0.40574 0.35211 0.92576 0.0
H435 H 0.44414 0.40014 0.95869 0.0
H436 H 0.41865 0.43309 0.93749 0.0
H437 H 0.39843 0.38738 0.88795 0.0
H438 H 0.33775 0.28676 0.98094 0.0
H439 H 0.39251 0.31155 0.00219 0.0
Li440 Li 0.65049 0.98334 0.00376 0.0
Li441 Li 0.63841 1.0003 0.02485 0.0
Li442 Li 0.63779 0.99732 0.97689 0.0
Li443 Li 0.66555 0.01565 -0.00094 0.0
C444 C 0.6128 0.96244 0.0046 0.0
N445 N 0.58513 0.92843 0.00725 0.0
C446 C 0.60523 0.95515 0.02857 0.0
C447 C 0.60608 0.95254 0.98192 0.0
C448 C 0.59132 0.9379 0.02953 0.0
C449 C 0.59214 0.93534 0.98368 0.0
C450 C 0.67035 0.0127 0.05179 0.0
C451 C 0.67717 0.03804 0.07796 0.0
N452 N 0.68875 0.0354 0.09191 0.0
C453 C 0.6823 0.01023 0.06637 0.0
C454 C 0.66774 0.02671 0.0576 0.0
C455 C 0.69148 0.02184 0.08659 0.0
C456 C 0.66244 0.95842 0.99434 0.0
N457 N 0.65265 0.96298 0.00941 0.0
C458 C 0.64392 0.9379 0.03637 0.0
C459 C 0.64379 0.95324 0.0304 0.0
C460 C 0.65355 0.93258 0.02091 0.0
C461 C 0.6631 0.94318 -0.00019 0.0
H462 H 0.66976 0.9666 0.97813 0.0
H463 H 0.63671 0.9575 0.04268 0.0
C464 C 0.61011 1.00163 0.04649 0.0
N465 N 0.62407 0.99979 0.05278 0.0
C466 C 0.59773 0.99932 0.06534 0.0
C467 C 0.61458 0.99364 0.09692 0.0
C468 C 0.62656 0.99593 0.07741 0.0
C469 C 0.59975 0.99505 0.09094 0.0
H470 H 0.60832 1.00436 0.02658 0.0
H471 H 0.63759 0.99419 0.08178 0.0
C472 C 0.66097 0.99136 0.94772 0.0
N473 N 0.66148 0.97869 0.8988 0.0
C474 C 0.67272 1.00251 0.92896 0.0
C475 C 0.64957 0.97377 0.94167 0.0
C476 C 0.67276 0.99586 0.90432 0.0
C477 C 0.65001 0.96761 0.91682 0.0
C478 C 0.64737 0.03237 0.98229 0.0
C479 C 0.65678 0.03539 0.95918 0.0
C480 C 0.64075 0.04327 0.98913 0.0
C481 C 0.65944 0.04933 0.94327 0.0
C482 C 0.64369 0.05707 0.97269 0.0
N483 N 0.6529 0.05979 0.9503 0.0
C484 C 0.60587 0.98992 0.95574 0.0
C485 C 0.6276 0.99779 0.92331 0.0
C486 C 0.59351 0.98807 0.93713 0.0
N487 N 0.6225 0.99462 0.94859 0.0
C488 C 0.61562 0.996 0.90402 0.0
C489 C 0.59831 0.9911 0.91083 0.0
H490 H 0.60223 0.98769 0.97604 0.0
H491 H 0.64097 1.00197 0.91808 0.0
C492 C 0.70138 0.03608 0.98423 0.0
N493 N 0.68802 0.03675 0.99632 0.0
C494 C 0.71739 0.05145 0.97988 0.0
C495 C 0.70583 0.06783 0.00142 0.0
C496 C 0.69005 0.05218 0.00525 0.0
C497 C 0.71969 0.0677 0.98809 0.0
H498 H 0.69943 0.02365 0.97727 0.0
H499 H 0.67926 0.05243 0.01478 0.0
O500 O 0.62635 0.97936 0.00329 0.0
O501 O 0.66137 1.0015 0.03183 0.0
O502 O 0.66063 0.99772 0.97182 0.0
O503 O 0.6446 0.01882 -0.00178 0.0
H504 H 0.61013 0.96269 0.04629 0.0
H505 H 0.61145 0.9581 0.96312 0.0
H506 H 0.58543 0.93205 0.04798 0.0
H507 H 0.58685 0.92751 0.96629 0.0
H508 H 0.6753 0.04895 0.08265 0.0
H509 H 0.68447 0.99945 0.06207 0.0
H510 H 0.65855 0.02884 0.04651 0.0
H511 H 0.70078 0.02009 0.09804 0.0
H512 H 0.63679 0.93042 0.05328 0.0
H513 H 0.67083 0.93964 0.98757 0.0
H514 H 0.58643 1.0003 0.0597 0.0
H515 H 0.61686 0.99063 0.11643 0.0
H516 H 0.68164 0.01618 0.93333 0.0
H517 H 0.64057 0.96495 0.95606 0.0
H518 H 0.68172 1.00434 0.88957 0.0
H519 H 0.64124 0.95402 0.91187 0.0
H520 H 0.662 0.0271 0.95361 0.0
H521 H 0.63344 0.04107 0.00696 0.0
H522 H 0.66671 0.05182 0.92535 0.0
H523 H 0.63865 0.06563 0.97774 0.0
H524 H 0.5803 0.9842 0.94325 0.0
H525 H 0.61999 0.99879 0.88403 0.0
H526 H 0.72754 0.05066 0.96921 0.0
H527 H 0.70702 0.07997 0.00838 0.0
Li528 Li 0.66106 0.67918 0.34951 0.0
Li529 Li 0.69223 0.69844 0.3556 0.0
Li530 Li 0.67002 0.7057 0.37253 0.0
Li531 Li 0.67522 0.70723 0.32582 0.0
C532 C 0.6691 0.67168 0.39704 0.0
N533 N 0.65869 0.64153 0.42556 0.0
C534 C 0.67962 0.66398 0.39785 0.0
C535 C 0.65341 0.66418 0.411 0.0
C536 C 0.6741 0.64871 0.41233 0.0
C537 C 0.64833 0.64888 0.4252 0.0
C538 C 0.67573 0.67188 0.31089 0.0
C539 C 0.65767 0.64871 0.2809 0.0
N540 N 0.66545 0.63955 0.28888 0.0
C541 C 0.68353 0.66221 0.31883 0.0
C542 C 0.6627 0.66509 0.29176 0.0
C543 C 0.67817 0.64591 0.30742 0.0
C544 C 0.62712 0.65176 0.33549 0.0
N545 N 0.64259 0.65486 0.34598 0.0
C546 C 0.63244 0.62406 0.34643 0.0
C547 C 0.64534 0.64136 0.35169 0.0
C548 C 0.61654 0.6205 0.33487 0.0
C549 C 0.61387 0.63465 0.32984 0.0
H550 H 0.62529 0.66263 0.33052 0.0
H551 H 0.65781 0.64398 0.35933 0.0
C552 C 0.72084 0.70532 0.38711 0.0
N553 N 0.71492 0.70134 0.36227 0.0
C554 C 0.73715 0.70749 0.39388 0.0
C555 C 0.74121 0.70173 0.34926 0.0
C556 C 0.72478 0.69973 0.34332 0.0
C557 C 0.74759 0.70564 0.37489 0.0
H558 H 0.71276 0.7066 0.40175 0.0
H559 H 0.71987 0.69682 0.3236 0.0
C560 C 0.63931 0.69817 0.3523 0.0
N561 N 0.61291 0.70366 0.37016 0.0
C562 C 0.63678 0.71117 0.34115 0.0
C563 C 0.62826 0.68779 0.37226 0.0
C564 C 0.6234 0.71379 0.35052 0.0
C565 C 0.61504 0.69082 0.3811 0.0
C566 C 0.70778 0.73407 0.34454 0.0
C567 C 0.71704 0.74992 0.35795 0.0
C568 C 0.71474 0.73142 0.32173 0.0
C569 C 0.73318 0.76291 0.34829 0.0
C570 C 0.73092 0.74472 0.31271 0.0
N571 N 0.73973 0.76006 0.32607 0.0
C572 C 0.66329 0.7126 0.4242 0.0
C573 C 0.66452 0.73225 0.39182 0.0
C574 C 0.66042 0.7221 0.44341 0.0
N575 N 0.66529 0.71783 0.39902 0.0
C576 C 0.66141 0.74197 0.41028 0.0
C577 C 0.65948 0.73708 0.4366 0.0
H578 H 0.66424 0.70124 0.42945 0.0
H579 H 0.6664 0.73624 0.37166 0.0
C580 C 0.67369 0.71423 0.27185 0.0
N581 N 0.67616 0.72072 0.2964 0.0
C582 C 0.67286 0.72394 0.25102 0.0
C583 C 0.6778 0.74709 0.28101 0.0
C584 C 0.6785 0.73692 0.30125 0.0
C585 C 0.6746 0.74048 0.25554 0.0
H586 H 0.67205 0.7014 0.2685 0.0
H587 H 0.68037 0.74171 0.32103 0.0
O588 O 0.67437 0.68673 0.38319 0.0
O589 O 0.68054 0.68769 0.32221 0.0
O590 O 0.65252 0.69558 0.34368 0.0
O591 O 0.69202 0.72122 0.35388 0.0
H592 H 0.69179 0.66958 0.38716 0.0
H593 H 0.64524 0.67009 0.41091 0.0
H594 H 0.68205 0.64255 0.41299 0.0
H595 H 0.63617 0.64288 0.43599 0.0
H596 H 0.64751 0.64324 0.26623 0.0
H597 H 0.69338 0.66708 0.33395 0.0
H598 H 0.65629 0.67224 0.28574 0.0
H599 H 0.68404 0.63826 0.31347 0.0
H600 H 0.63512 0.61361 0.35074 0.0
H601 H 0.60202 0.63266 0.32042 0.0
H602 H 0.74134 0.7102 0.41397 0.0
H603 H 0.74885 0.70034 0.33398 0.0
H604 H 0.6451 0.71922 0.32552 0.0
H605 H 0.62991 0.67753 0.38083 0.0
H606 H 0.62136 0.72389 0.34219 0.0
H607 H 0.60645 0.68294 0.39664 0.0
H608 H 0.7118 0.75215 0.37564 0.0
H609 H 0.70776 0.71923 0.31109 0.0
H610 H 0.7405 0.77526 0.35847 0.0
H611 H 0.73648 0.74285 0.2951 0.0
H612 H 0.65943 0.71799 0.46344 0.0
H613 H 0.66057 0.75323 0.40393 0.0
H614 H 0.67065 0.71846 0.23161 0.0
H615 H 0.67907 0.75968 0.28542 0.0
Li616 Li 0.30639 0.9704 0.31748 0.0
Li617 Li 0.30877 0.96847 0.36429 0.0
Li618 Li 0.31826 0.99797 0.34261 0.0
Li619 Li 0.33626 0.98359 0.33887 0.0
C620 C 0.27898 0.97314 0.33457 0.0
N621 N 0.24747 0.9659 0.31251 0.0
C622 C 0.26358 0.95771 0.34093 0.0
C623 C 0.27833 0.98501 0.3173 0.0
C624 C 0.24778 0.95424 0.32948 0.0
C625 C 0.26228 0.98108 0.30627 0.0
C626 C 0.31823 0.94492 0.34679 0.0
C627 C 0.33181 0.93371 0.37572 0.0
N628 N 0.32029 0.91715 0.36761 0.0
C629 C 0.30661 0.92781 0.33858 0.0
C630 C 0.331 0.94792 0.36537 0.0
C631 C 0.30782 0.91394 0.34941 0.0
C632 C 0.29495 0.96275 0.26446 0.0
N633 N 0.29176 0.95679 0.28931 0.0
C634 C 0.26614 0.93034 0.2759 0.0
C635 C 0.27784 0.94084 0.29526 0.0
C636 C 0.26884 0.9363 0.25011 0.0
C637 C 0.28359 0.95269 0.24447 0.0
H638 H 0.3063 0.97529 0.26012 0.0
H639 H 0.2757 0.93635 0.31518 0.0
C640 C 0.30072 0.95867 0.41766 0.0
N641 N 0.29685 0.95322 0.39259 0.0
C642 C 0.29161 0.94714 0.43797 0.0
C643 C 0.27465 0.9247 0.40625 0.0
C644 C 0.28406 0.93665 0.3866 0.0
C645 C 0.27835 0.92988 0.43239 0.0
H646 H 0.31072 0.97201 0.42189 0.0
H647 H 0.2811 0.93275 0.36647 0.0
C648 C 0.33537 0.00732 0.29419 0.0
N649 N 0.35027 0.03595 0.26141 0.0
C650 C 0.35358 0.0181 0.2932 0.0
C651 C 0.32474 0.01104 0.27838 0.0
C652 C 0.36086 0.03252 0.27652 0.0
C653 C 0.33253 0.0256 0.26198 0.0
C654 C 0.34321 1.00113 0.38803 0.0
C655 C 0.35224 0.01944 0.38757 0.0
C656 C 0.34785 0.99241 0.40624 0.0
C657 C 0.36594 0.02873 0.40513 0.0
C658 C 0.36163 1.00217 0.42346 0.0
N659 N 0.37032 0.01997 0.42255 0.0
C660 C 0.3062 0.01946 0.36326 0.0
C661 C 0.33042 0.03519 0.33532 0.0
C662 C 0.30549 0.03465 0.36852 0.0
N663 N 0.31852 0.01993 0.34691 0.0
C664 C 0.33002 0.05067 0.33971 0.0
C665 C 0.31749 0.05064 0.35667 0.0
H666 H 0.29704 0.00727 0.37258 0.0
H667 H 0.34045 0.03555 0.32297 0.0
C668 C 0.36162 0.9759 0.31942 0.0
N669 N 0.35964 0.9873 0.3349 0.0
C670 C 0.37833 0.97846 0.31421 0.0
C671 C 0.39067 1.00419 0.34153 0.0
C672 C 0.37377 1.0012 0.34605 0.0
C673 C 0.39321 0.99295 0.32499 0.0
H674 H 0.35022 0.96504 0.31053 0.0
H675 H 0.37208 0.01035 0.35779 0.0
O676 O 0.29462 0.97662 0.3452 0.0
O677 O 0.31707 0.95864 0.33669 0.0
O678 O 0.32804 0.99312 0.31034 0.0
O679 O 0.32969 0.99184 0.37107 0.0
H680 H 0.26384 0.94844 0.35441 0.0
H681 H 0.29009 0.99712 0.31247 0.0
H682 H 0.23577 0.94229 0.33407 0.0
H683 H 0.26159 0.99011 0.29277 0.0
H684 H 0.3416 0.93585 0.39017 0.0
H685 H 0.2967 0.92526 0.3241 0.0
H686 H 0.3402 0.96108 0.3717 0.0
H687 H 0.29886 0.90062 0.34334 0.0
H688 H 0.25492 0.91787 0.28118 0.0
H689 H 0.28638 0.95766 0.22478 0.0
H690 H 0.29468 0.95183 0.45781 0.0
H691 H 0.26465 0.91152 0.40101 0.0
H692 H 0.362 0.01541 0.30523 0.0
H693 H 0.31064 1.00281 0.27878 0.0
H694 H 0.37493 0.041 0.27561 0.0
H695 H 0.32446 0.02866 0.24971 0.0
H696 H 0.34882 0.02641 0.37366 0.0
H697 H 0.34085 0.97826 0.40717 0.0
H698 H 0.3731 0.0429 0.4049 0.0
H699 H 0.36539 0.99559 0.43761 0.0
H700 H 0.29587 0.03387 0.38231 0.0
H701 H 0.33951 0.06252 0.32993 0.0
H702 H 0.37957 0.96961 0.30097 0.0
H703 H 0.40168 0.01545 0.35046 0.0
Li704 Li 0.04354 0.33954 0.32007 0.0
Li705 Li 0.04316 0.33975 0.36718 0.0
Li706 Li 0.01502 0.32154 0.34256 0.0
Li707 Li 0.02881 0.3538 0.34456 0.0
C708 C 0.03747 0.30638 0.33109 0.0
N709 N 0.03949 0.28004 0.30504 0.0
C710 C 0.05052 0.30244 0.3375 0.0
C711 C 0.02534 0.29679 0.31163 0.0
C712 C 0.05136 0.28912 0.32404 0.0
C713 C 0.02659 0.28355 0.29864 0.0
C714 C 0.06808 0.37263 0.35726 0.0
C715 C 0.08027 0.39483 0.39061 0.0
N716 N 0.09644 0.39708 0.38574 0.0
C717 C 0.08483 0.37529 0.35239 0.0
C718 C 0.06578 0.38258 0.37635 0.0
C719 C 0.09899 0.38766 0.36708 0.0
C720 C 0.0561 0.34544 0.26757 0.0
N721 N 0.05863 0.34155 0.29216 0.0
C722 C 0.0851 0.34231 0.27947 0.0
C723 C 0.07276 0.33995 0.29836 0.0
C724 C 0.08295 0.34641 0.25386 0.0
C725 C 0.06809 0.34782 0.24799 0.0
H726 H 0.04493 0.34694 0.26323 0.0
H727 H 0.07464 0.33722 0.31821 0.0
C728 C 0.05148 0.33837 0.42068 0.0
N729 N 0.05691 0.33967 0.39567 0.0
C730 C 0.06117 0.33663 0.4408 0.0
C731 C 0.08189 0.33777 0.40904 0.0
C732 C 0.07182 0.3395 0.38959 0.0
C733 C 0.0765 0.33608 0.43506 0.0
H734 H 0.03942 0.33825 0.42497 0.0
H735 H 0.07565 0.34025 0.36947 0.0
C736 C 1.00777 0.33264 0.29466 0.0
N737 N 0.98184 0.32146 0.25721 0.0
C738 C 0.99508 0.33769 0.29597 0.0
C739 C 1.00738 0.32208 0.2741 0.0
C740 C 0.98205 0.33186 0.2769 0.0
C741 C 0.99413 0.3165 0.25543 0.0
C742 C 0.0098 0.34025 0.39048 0.0
C743 C 0.9915 0.33045 0.3895 0.0
C744 C 0.01802 0.35369 0.40879 0.0
C745 C 0.98171 0.33443 0.40665 0.0
C746 C 1.00777 0.35728 0.42558 0.0
N747 N 0.98998 0.34767 0.42416 0.0
C748 C 0.99371 0.28801 0.3614 0.0
C749 C 0.97831 0.29573 0.33148 0.0
C750 C 0.97859 0.27204 0.36646 0.0
N751 N 0.99333 0.29954 0.34432 0.0
C752 C 0.96283 0.27984 0.33595 0.0
C753 C 0.96277 0.26778 0.35387 0.0
H754 H 1.00573 0.29145 0.37164 0.0
H755 H 0.97813 0.3051 0.31828 0.0
C756 C 0.0367 0.38829 0.33254 0.0
N757 N 0.02425 0.37302 0.3434 0.0
C758 C 0.0333 0.40194 0.32793 0.0
C759 C 1.00457 0.38422 0.34665 0.0
C760 C 0.00851 0.37091 0.35083 0.0
C761 C 0.01686 0.39984 0.3344 0.0
H762 H 0.04903 0.38959 0.32644 0.0
H763 H 0.9986 0.3586 0.35879 0.0
O764 O 0.03656 0.31951 0.34389 0.0
O765 O 0.05399 0.36039 0.3434 0.0
O766 O 0.02073 0.33839 0.31301 0.0
O767 O 0.01958 0.33649 0.37389 0.0
H768 H 0.05995 0.30963 0.35264 0.0
H769 H 0.01502 0.29948 0.30668 0.0
H770 H 0.06145 0.286 0.32871 0.0
H771 H 0.0173 0.27606 0.2835 0.0
H772 H 0.07867 0.40257 0.40552 0.0
H773 H 0.08686 0.36781 0.33754 0.0
H774 H 0.05296 0.38088 0.38007 0.0
H775 H 0.11201 0.38977 0.36364 0.0
H776 H 0.09645 0.34137 0.28506 0.0
H777 H 0.06574 0.35074 0.22848 0.0
H778 H 0.05662 0.33558 0.46061 0.0
H779 H 0.09344 0.33717 0.40362 0.0
H780 H 0.99519 0.34589 0.31164 0.0
H781 H 0.01726 0.31829 0.27247 0.0
H782 H 0.9721 0.33559 0.27777 0.0
H783 H 0.99365 0.30828 0.23948 0.0
H784 H 0.98491 0.31997 0.37552 0.0
H785 H 0.03215 0.36123 0.41009 0.0
H786 H 0.96754 0.32702 0.40601 0.0
H787 H 0.01396 0.36768 0.43979 0.0
H788 H 0.97919 0.26342 0.38086 0.0
H789 H 0.95099 0.27713 0.32571 0.0
H790 H 0.04309 0.41359 0.31805 0.0
H791 H 0.99176 0.38202 0.35211 0.0
Li792 Li 0.69176 0.99885 0.33907 0.0
Li793 Li 0.67516 0.97131 0.36176 0.0
Li794 Li 0.67787 0.97177 0.31402 0.0
Li795 Li 0.65976 0.98267 0.33455 0.0
C796 C 0.71059 0.98332 0.35675 0.0
N797 N 0.73854 0.99171 0.38954 0.0
C798 C 0.7123 0.99226 0.38001 0.0
C799 C 0.72306 0.97864 0.35018 0.0
C800 C 0.72653 0.99638 0.39632 0.0
C801 C 0.73711 0.983 0.36701 0.0
C802 C 0.66372 0.99172 0.38789 0.0
C803 C 0.63676 0.97582 0.41195 0.0
N804 N 0.64331 0.9885 0.43055 0.0
C805 C 0.67018 1.00461 0.40722 0.0
C806 C 0.64688 0.97721 0.39025 0.0
C807 C 0.65966 1.00273 0.42865 0.0
C808 C 0.70879 0.03422 0.35331 0.0
N809 N 0.71168 0.02197 0.34204 0.0
C810 C 0.74242 0.04265 0.33895 0.0
C811 C 0.72807 0.02587 0.33462 0.0
C812 C 0.73988 0.05553 0.351 0.0
C813 C 0.72271 0.05109 0.358 0.0
H814 H 0.69566 0.03073 0.35917 0.0
H815 H 0.73006 0.01589 0.32577 0.0
C816 C 0.67314 0.9418 0.38446 0.0
N817 N 0.67382 0.95713 0.39057 0.0
C818 C 0.67218 0.9304 0.40405 0.0
C819 C 0.67283 0.95088 0.43588 0.0
C820 C 0.67394 0.96196 0.41569 0.0
C821 C 0.67184 0.93483 0.43015 0.0
H822 H 0.67325 0.9384 0.36428 0.0
H823 H 0.67499 0.9744 0.42015 0.0
C824 C 0.68853 1.00297 0.28633 0.0
N825 N 0.71075 0.02155 0.24597 0.0
C826 C 0.68488 0.01364 0.2706 0.0
C827 C 0.7035 1.00176 0.28158 0.0
C828 C 0.69627 0.02293 0.25027 0.0
C829 C 0.71456 0.01125 0.26108 0.0
C830 C 0.64206 0.94325 0.33285 0.0
C831 C 0.63569 0.93661 0.30805 0.0
C832 C 0.63328 0.93333 0.35472 0.0
C833 C 0.62054 0.92024 0.30553 0.0
C834 C 0.61817 0.91701 0.35139 0.0
N835 N 0.61217 0.91086 0.32708 0.0
C836 C 0.67969 0.94359 0.29285 0.0
C837 C 0.67448 0.96007 0.2614 0.0
C838 C 0.67744 0.93112 0.27417 0.0
N839 N 0.678 0.95758 0.28624 0.0
C840 C 0.67225 0.948 0.24207 0.0
C841 C 0.67338 0.93307 0.24841 0.0
H842 H 0.68215 0.9418 0.3129 0.0
H843 H 0.67279 0.97108 0.25674 0.0
C844 C 0.63474 0.99454 0.34282 0.0
N845 N 0.63867 0.98369 0.32922 0.0
C846 C 0.61911 0.99458 0.3379 0.0
C847 C 0.61212 0.97262 0.30478 0.0
C848 C 0.62784 0.97307 0.31023 0.0
C849 C 0.60747 0.98337 0.31878 0.0
H850 H 0.64374 1.0032 0.35744 0.0
H851 H 0.63152 0.96509 0.29902 0.0
O852 O 0.6968 0.97912 0.34038 0.0
O853 O 0.674 0.99332 0.36701 0.0
O854 O 0.67757 0.99395 0.30644 0.0
O855 O 0.65707 0.95913 0.33573 0.0
H856 H 0.70281 0.99602 0.38545 0.0
H857 H 0.72189 0.97171 0.33223 0.0
H858 H 0.72804 1.00331 0.41436 0.0
H859 H 0.74688 0.97947 0.36217 0.0
H860 H 0.6237 0.96466 0.41399 0.0
H861 H 0.68323 0.01589 0.40572 0.0
H862 H 0.64163 0.96721 0.37541 0.0
H863 H 0.6645 0.01259 0.44378 0.0
H864 H 0.75536 0.04547 0.33306 0.0
H865 H 0.72008 0.0604 0.36781 0.0
H866 H 0.67137 0.91811 0.39883 0.0
H867 H 0.67291 0.95491 0.4558 0.0
H868 H 0.67336 0.01475 0.27408 0.0
H869 H 0.70655 0.99357 0.29355 0.0
H870 H 0.6936 0.03124 0.23792 0.0
H871 H 0.72619 0.01044 0.25718 0.0
H872 H 0.64228 0.94406 0.29089 0.0
H873 H 0.63807 0.93812 0.37409 0.0
H874 H 0.61545 0.915 0.28645 0.0
H875 H 0.61125 0.90922 0.36815 0.0
H876 H 0.67821 0.91975 0.28007 0.0
H877 H 0.66941 0.95022 0.22242 0.0
H878 H 0.61612 1.00317 0.34904 0.0
H879 H 0.60386 0.96417 0.28931 0.0
Li880 Li 0.04571 0.70785 0.36328 0.0
Li881 Li 0.01663 0.69611 0.34356 0.0
Li882 Li 0.03494 0.68162 0.33695 0.0
Li883 Li 0.04293 0.70969 0.31519 0.0
C884 C 0.02508 0.68447 0.39612 0.0
N885 N 0.02746 0.68583 0.44969 0.0
C886 C 0.01526 0.68989 0.41064 0.0
C887 C 0.03602 0.67962 0.40882 0.0
C888 C 0.01665 0.6905 0.43772 0.0
C889 C 0.03707 0.68044 0.43592 0.0
C890 C 0.03186 0.73328 0.33815 0.0
C891 C 0.02268 0.74799 0.30786 0.0
N892 N 0.02302 0.75859 0.32733 0.0
C893 C 0.03237 0.74451 0.35776 0.0
C894 C 0.0272 0.7352 0.31291 0.0
C895 C 0.02775 0.75713 0.35195 0.0
C896 C 0.07646 0.72208 0.39391 0.0
N897 N 0.06044 0.72072 0.39206 0.0
C898 C 0.06675 0.73951 0.42899 0.0
C899 C 0.05538 0.72908 0.40921 0.0
C900 C 0.08333 0.74105 0.43132 0.0
C901 C 0.08808 0.73206 0.41364 0.0
H902 H 0.08037 0.71563 0.37987 0.0
H903 H 0.04254 0.72772 0.40746 0.0
C904 C 0.97975 0.67567 0.33971 0.0
N905 N 0.99297 0.6914 0.34818 0.0
C906 C 0.96225 0.67099 0.34377 0.0
C907 C 0.97219 0.69885 0.36493 0.0
C908 C 0.98951 0.70299 0.36049 0.0
C909 C 0.95825 0.68255 0.35685 0.0
H910 H 0.98282 0.66662 0.33014 0.0
H911 H 1.00015 0.7152 0.36768 0.0
C912 C 0.06951 0.69754 0.32911 0.0
N913 N 0.0916 0.68491 0.31633 0.0
C914 C 0.07746 0.70101 0.30466 0.0
C915 C 0.07295 0.68778 0.34714 0.0
C916 C 0.08856 0.69449 0.29856 0.0
C917 C 0.08409 0.68146 0.34028 0.0
C918 C 0.01191 0.68345 0.28829 0.0
C919 C 0.01169 0.67155 0.2701 0.0
C920 C 1.00222 0.69174 0.28341 0.0
C921 C 1.00218 0.66851 0.24707 0.0
C922 C 0.99286 0.68834 0.26017 0.0
N923 N 0.99305 0.67692 0.24261 0.0
C924 C 0.03014 0.64732 0.34946 0.0
C925 C 0.04109 0.65864 0.3076 0.0
C926 C 0.03163 0.63248 0.34435 0.0
N927 N 0.03499 0.66007 0.33116 0.0
C928 C 0.04292 0.64421 0.30179 0.0
C929 C 0.03834 0.63093 0.32033 0.0
H930 H 0.02533 0.64876 0.36809 0.0
H931 H 0.04492 0.66896 0.29343 0.0
C932 C 0.06771 0.74059 0.2909 0.0
N933 N 0.05481 0.72388 0.2859 0.0
C934 C 0.07893 0.75097 0.27108 0.0
C935 C 0.06296 0.72694 0.24116 0.0
C936 C 0.05207 0.71704 0.26154 0.0
C937 C 0.07691 0.74399 0.24595 0.0
H938 H 0.06974 0.74557 0.31058 0.0
H939 H 0.04199 0.70365 0.25811 0.0
O940 O 0.02422 0.68421 0.36958 0.0
O941 O 0.03649 0.72092 0.34353 0.0
O942 O 0.05831 0.70352 0.33526 0.0
O943 O 0.02111 0.68649 0.31103 0.0
H944 H 1.00678 0.69373 0.4011 0.0
H945 H 0.04371 0.67541 0.39787 0.0
H946 H 0.00919 0.69475 0.44921 0.0
H947 H 0.04556 0.67683 0.44601 0.0
H948 H 0.019 0.74955 0.28841 0.0
H949 H 0.03616 0.74343 0.37733 0.0
H950 H 0.02726 0.72708 0.29727 0.0
H951 H 0.02794 0.76579 0.36701 0.0
H952 H 0.06257 0.74612 0.4425 0.0
H953 H 0.10081 0.73302 0.41477 0.0
H954 H 0.95195 0.65831 0.33711 0.0
H955 H 0.96979 0.70802 0.37562 0.0
H956 H 0.07506 0.70858 0.29047 0.0
H957 H 0.06685 0.68487 0.36608 0.0
H958 H 0.09473 0.69701 0.27967 0.0
H959 H 0.08673 0.67376 0.35396 0.0
H960 H 0.01881 0.66474 0.27363 0.0
H961 H 1.00169 0.70052 0.29752 0.0
H962 H 1.00202 0.65943 0.23277 0.0
H963 H 0.98535 0.69472 0.25617 0.0
H964 H 0.02792 0.62253 0.35917 0.0
H965 H 0.04781 0.64344 0.28283 0.0
H966 H 0.0896 0.76396 0.27568 0.0
H967 H 0.0608 0.72112 0.222 0.0
Li968 Li 0.30887 0.34485 0.36642 0.0
Li969 Li 0.31819 0.32558 0.34504 0.0
Li970 Li 0.33264 0.35749 0.33527 0.0
Li971 Li 0.30274 0.33769 0.31875 0.0
C972 C 0.33661 0.34843 0.39434 0.0
N973 N 0.34564 0.35342 0.44635 0.0
C974 C 0.33606 0.33482 0.40896 0.0
C975 C 0.34181 0.3646 0.40614 0.0
C976 C 0.34066 0.3376 0.43524 0.0
C977 C 0.3463 0.36685 0.43247 0.0
C978 C 0.2799 0.30713 0.35762 0.0
C979 C 0.25233 0.28088 0.34901 0.0
N980 N 0.25036 0.2773 0.3749 0.0
C981 C 0.27755 0.30323 0.38413 0.0
C982 C 0.26716 0.29591 0.33989 0.0
C983 C 0.26255 0.28807 0.39248 0.0
C984 C 0.28733 0.35561 0.3889 0.0
N985 N 0.2978 0.34896 0.39545 0.0
C986 C 0.29035 0.34824 0.44027 0.0
C987 C 0.29929 0.34505 0.42055 0.0
C988 C 0.27947 0.3551 0.43401 0.0
C989 C 0.27794 0.35872 0.40793 0.0
H990 H 0.28612 0.35832 0.36876 0.0
H991 H 0.30711 0.33918 0.42532 0.0
C992 C 0.33487 0.30567 0.33564 0.0
N993 N 0.32167 0.30574 0.34921 0.0
C994 C 0.33853 0.29207 0.33887 0.0
C995 C 0.31486 0.27869 0.36982 0.0
C996 C 0.31161 0.29251 0.36589 0.0
C997 C 0.32864 0.27843 0.35648 0.0
H998 H 0.34278 0.31635 0.32258 0.0
H999 H 0.3014 0.29291 0.37684 0.0
C1000 C 0.31796 0.37729 0.33015 0.0
N1001 N 0.33168 0.4119 0.31591 0.0
C1002 C 0.31635 0.38154 0.30454 0.0
C1003 C 0.32635 0.39059 0.34861 0.0
C1004 C 0.32342 0.39913 0.2977 0.0
C1005 C 0.33327 0.40802 0.34099 0.0
C1006 C 0.32159 0.32592 0.2901 0.0
C1007 C 0.33251 0.331 0.26834 0.0
C1008 C 0.30732 0.30888 0.29161 0.0
C1009 C 0.32895 0.31891 0.24838 0.0
C1010 C 0.3042 0.29717 0.27127 0.0
N1011 N 0.31499 0.30239 0.25026 0.0
C1012 C 0.36683 0.38755 0.34469 0.0
C1013 C 0.35587 0.38438 0.3018 0.0
C1014 C 0.38167 0.40357 0.33827 0.0
N1015 N 0.35418 0.37847 0.32659 0.0
C1016 C 0.37036 0.40035 0.29462 0.0
C1017 C 0.38343 0.41032 0.31304 0.0
H1018 H 0.36535 0.38252 0.36419 0.0
H1019 H 0.34573 0.37683 0.2877 0.0
C1020 C 0.27067 0.33303 0.30385 0.0
N1021 N 0.28515 0.33353 0.29374 0.0
C1022 C 0.25719 0.33125 0.2876 0.0
C1023 C 0.2736 0.33019 0.25073 0.0
C1024 C 0.28685 0.33211 0.26773 0.0
C1025 C 0.25861 0.32996 0.26062 0.0
H1026 H 0.26975 0.33431 0.32462 0.0
H1027 H 0.29863 0.33288 0.26008 0.0
O1028 O 0.33231 0.34599 0.36854 0.0
O1029 O 0.29436 0.32204 0.34907 0.0
O1030 O 0.31154 0.3602 0.33706 0.0
O1031 O 0.32488 0.33768 0.30967 0.0
H1032 H 0.33215 0.32226 0.40011 0.0
H1033 H 0.34216 0.37522 0.39517 0.0
H1034 H 0.34028 0.32718 0.4468 0.0
H1035 H 0.35026 0.37926 0.44188 0.0
H1036 H 0.24239 0.27207 0.33551 0.0
H1037 H 0.28735 0.31168 0.39807 0.0
H1038 H 0.26869 0.29878 0.31931 0.0
H1039 H 0.26062 0.28485 0.41294 0.0
H1040 H 0.29158 0.34496 0.46014 0.0
H1041 H 0.26965 0.364 0.40235 0.0
H1042 H 0.34918 0.2924 0.32796 0.0
H1043 H 0.30709 0.26872 0.38398 0.0
H1044 H 0.30989 0.37137 0.29003 0.0
H1045 H 0.32761 0.38748 0.36854 0.0
H1046 H 0.32239 0.40263 0.27791 0.0
H1047 H 0.33991 0.41847 0.35501 0.0
H1048 H 0.3436 0.34417 0.26688 0.0
H1049 H 0.29877 0.30472 0.30832 0.0
H1050 H 0.33729 0.32266 0.23141 0.0
H1051 H 0.29321 0.28394 0.2722 0.0
H1052 H 0.39143 0.41079 0.35305 0.0
H1053 H 0.37134 0.40482 0.27477 0.0
H1054 H 0.24583 0.33103 0.29604 0.0
H1055 H 0.27536 0.32952 0.23002 0.0
Li1056 Li 0.32439 0.01591 0.67436 0.0
Li1057 Li 0.3566 0.02977 0.67675 0.0
Li1058 Li 0.34059 0.04327 0.69866 0.0
Li1059 Li 0.34381 0.04479 0.65158 0.0
C1060 C 0.33157 1.00456 0.71828 0.0
N1061 N 0.31572 0.9723 0.74255 0.0
C1062 C 0.33713 0.99258 0.71297 0.0
C1063 C 0.31807 1.00021 0.73613 0.0
C1064 C 0.32893 0.97632 0.7254 0.0
C1065 C 0.31018 0.98381 0.74814 0.0
C1066 C 0.34855 0.01563 0.6265 0.0
C1067 C 0.36979 0.02178 0.59266 0.0
N1068 N 0.36313 1.0043 0.58908 0.0
C1069 C 0.34179 0.99771 0.62228 0.0
C1070 C 0.36255 0.02776 0.61138 0.0
C1071 C 0.34938 0.99225 0.60335 0.0
C1072 C 0.2877 0.99519 0.66759 0.0
N1073 N 0.30245 0.99412 0.67084 0.0
C1074 C 0.28619 0.96321 0.66258 0.0
C1075 C 0.30186 0.97844 0.66908 0.0
C1076 C 0.27093 0.9641 0.65788 0.0
C1077 C 0.27176 0.9803 0.66138 0.0
H1078 H 0.28839 0.00772 0.66868 0.0
H1079 H 0.3137 0.97784 0.67151 0.0
C1080 C 0.38881 0.03832 0.69803 0.0
N1081 N 0.37674 0.02682 0.68098 0.0
C1082 C 0.40411 0.03787 0.70329 0.0
C1083 C 0.39432 0.01347 0.6737 0.0
C1084 C 0.37917 0.01445 0.66889 0.0
C1085 C 0.4071 0.02535 0.69105 0.0
H1086 H 0.38649 0.04787 0.70768 0.0
H1087 H 0.36932 1.00519 0.65579 0.0
C1088 C 0.3116 0.04272 0.68308 0.0
N1089 N 0.2909 0.05426 0.70612 0.0
C1090 C 0.31012 0.05634 0.67186 0.0
C1091 C 0.30235 0.0348 0.70581 0.0
C1092 C 0.29964 0.06203 0.68385 0.0
C1093 C 0.29201 0.04087 0.71723 0.0
C1094 C 0.3772 0.06919 0.66893 0.0
C1095 C 0.38075 0.08599 0.67578 0.0
C1096 C 0.38897 0.06726 0.65303 0.0
C1097 C 0.39575 0.10058 0.66605 0.0
C1098 C 0.40385 0.08215 0.64372 0.0
N1099 N 0.40689 0.09837 0.65033 0.0
C1100 C 0.34139 0.05242 0.75213 0.0
C1101 C 0.34194 0.07281 0.72166 0.0
C1102 C 0.34282 0.06343 0.77271 0.0
N1103 N 0.34109 0.05733 0.72721 0.0
C1104 C 0.3433 0.08417 0.74158 0.0
C1105 C 0.34395 0.07963 0.76753 0.0
H1106 H 0.34078 0.04007 0.75599 0.0
H1107 H 0.34184 0.07646 0.70164 0.0
C1108 C 0.34287 0.05305 0.5982 0.0
N1109 N 0.34583 0.05937 0.6229 0.0
C1110 C 0.34365 0.06365 0.57751 0.0
C1111 C 0.34984 0.08686 0.60811 0.0
C1112 C 0.34916 0.07588 0.62816 0.0
C1113 C 0.34714 0.08079 0.58237 0.0
H1114 H 0.33964 0.03969 0.59457 0.0
H1115 H 0.35091 0.08039 0.64806 0.0
O1116 O 0.33937 0.02049 0.70618 0.0
O1117 O 0.34127 0.0212 0.64498 0.0
O1118 O 0.32205 0.03716 0.6719 0.0
O1119 O 0.36254 0.05474 0.67831 0.0
H1120 H 0.34753 0.9957 0.69917 0.0
H1121 H 0.31375 0.00941 0.74074 0.0
H1122 H 0.33303 0.96687 0.72134 0.0
H1123 H 0.29968 0.98025 0.76193 0.0
H1124 H 0.38066 0.03105 0.58088 0.0
H1125 H 0.33086 0.98812 0.63354 0.0
H1126 H 0.36765 0.04165 0.61382 0.0
H1127 H 0.34434 0.97842 0.60001 0.0
H1128 H 0.28632 0.95111 0.65982 0.0
H1129 H 0.26033 0.98165 0.65839 0.0
H1130 H 0.41333 0.04704 0.71729 0.0
H1131 H 0.39603 1.00357 0.66386 0.0
H1132 H 0.31697 0.06247 0.65409 0.0
H1133 H 0.30323 0.02416 0.7146 0.0
H1134 H 0.29844 0.07262 0.67544 0.0
H1135 H 0.28489 0.03494 0.73493 0.0
H1136 H 0.37199 0.0878 0.68839 0.0
H1137 H 0.38678 0.05441 0.6481 0.0
H1138 H 0.39856 0.11365 0.67105 0.0
H1139 H 0.41302 0.08081 0.63133 0.0
H1140 H 0.34306 0.05932 0.79245 0.0
H1141 H 0.34434 0.09659 0.73666 0.0
H1142 H 0.34119 0.05838 0.55795 0.0
H1143 H 0.35255 0.09998 0.61265 0.0
Li1144 Li 1.00351 0.31512 0.67697 0.0
Li1145 Li 0.98503 0.32841 0.67928 0.0
Li1146 Li 0.97603 0.30008 0.70122 0.0
Li1147 Li 0.97447 0.30107 0.65407 0.0
C1148 C 0.01015 0.332 0.72545 0.0
N1149 N 0.03772 0.34946 0.75979 0.0
C1150 C 0.0189 0.35028 0.72709 0.0
C1151 C 0.01525 0.32259 0.74157 0.0
C1152 C 0.03285 0.35887 0.74449 0.0
C1153 C 0.02927 0.33167 0.75872 0.0
C1154 C 0.00844 0.33989 0.63686 0.0
C1155 C 0.021 0.3593 0.60026 0.0
N1156 N 0.03415 0.37105 0.6158 0.0
C1157 C 0.02204 0.35216 0.65246 0.0
C1158 C 1.00787 0.34347 0.61055 0.0
C1159 C 0.03493 0.36783 0.64147 0.0
C1160 C 0.02741 0.30672 0.6569 0.0
N1161 N 0.02678 0.31841 0.67342 0.0
C1162 C 0.05776 0.33207 0.68087 0.0
C1163 C 0.04156 0.33101 0.68535 0.0
C1164 C 0.05875 0.32005 0.66397 0.0
C1165 C 0.04323 0.30727 0.65192 0.0
H1166 H 0.01555 0.29697 0.64738 0.0
H1167 H 0.04093 0.34038 0.69813 0.0
C1168 C 0.97777 0.35076 0.70707 0.0
N1169 N 0.98395 0.34952 0.68348 0.0
C1170 C 0.97598 0.36519 0.71318 0.0
C1171 C 0.98701 0.37704 0.67058 0.0
C1172 C 0.98846 0.36222 0.66518 0.0
C1173 C 0.9806 0.37862 0.69485 0.0
H1174 H 0.97425 0.34046 0.72122 0.0
H1175 H 0.99309 0.36087 0.64637 0.0
C1176 C 0.98395 0.27551 0.68608 0.0
N1177 N 0.98146 0.24596 0.70869 0.0
C1178 C 0.96993 0.25894 0.67991 0.0
C1179 C 0.99683 0.27704 0.70345 0.0
C1180 C 0.96886 0.24416 0.69164 0.0
C1181 C 0.99531 0.26195 0.71475 0.0
C1182 C 0.94947 0.30987 0.66788 0.0
C1183 C 0.93308 0.30415 0.67914 0.0
C1184 C 0.95368 0.31901 0.64437 0.0
C1185 C 0.92112 0.30771 0.66668 0.0
C1186 C 0.94137 0.32232 0.63253 0.0
N1187 N 0.92548 0.31665 0.64383 0.0
C1188 C 0.96767 0.29097 0.75456 0.0
C1189 C 0.94841 0.27003 0.72398 0.0
C1190 C 0.95696 0.28092 0.77504 0.0
N1191 N 0.96317 0.28544 0.72963 0.0
C1192 C 0.93741 0.25948 0.74387 0.0
C1193 C 0.94146 0.26508 0.76977 0.0
H1194 H 0.97922 0.30347 0.75852 0.0
H1195 H 0.94487 0.26621 0.70393 0.0
C1196 C 0.96784 0.28981 0.60128 0.0
N1197 N 0.96113 0.28687 0.62569 0.0
C1198 C 0.95842 0.27819 0.58117 0.0
C1199 C 0.93532 0.26086 0.61171 0.0
C1200 C 0.94513 0.27289 0.63116 0.0
C1201 C 0.94202 0.26328 0.58633 0.0
H1202 H 0.98066 0.30098 0.59755 0.0
H1203 H 0.94022 0.27082 0.65086 0.0
O1204 O 0.99642 0.32338 0.70858 0.0
O1205 O 0.99559 0.32452 0.64725 0.0
O1206 O 0.98513 0.29014 0.67498 0.0
O1207 O 0.96131 0.30653 0.67998 0.0
H1208 H 0.01499 0.35777 0.71501 0.0
H1209 H 1.00843 0.30845 0.74093 0.0
H1210 H 0.0398 0.37301 0.74585 0.0
H1211 H 0.0334 0.32455 0.77122 0.0
H1212 H 0.02071 0.36226 0.57993 0.0
H1213 H 0.02258 0.34963 0.67284 0.0
H1214 H 0.99734 0.33415 0.59824 0.0
H1215 H 0.04554 0.37744 0.65335 0.0
H1216 H 0.06935 0.34215 0.6906 0.0
H1217 H 0.04333 0.29799 0.63823 0.0
H1218 H 0.97127 0.36595 0.7323 0.0
H1219 H 0.99063 0.38703 0.65584 0.0
H1220 H 0.95993 0.2575 0.66633 0.0
H1221 H 1.00793 0.28973 0.70805 0.0
H1222 H 0.95802 0.23125 0.68718 0.0
H1223 H 1.00516 0.26295 0.72829 0.0
H1224 H 0.92964 0.29705 0.69734 0.0
H1225 H 0.96629 0.32353 0.63533 0.0
H1226 H 0.90838 0.30337 0.67518 0.0
H1227 H 0.94445 0.32939 0.61435 0.0
H1228 H 0.96057 0.28569 0.79478 0.0
H1229 H 0.92544 0.24752 0.73896 0.0
H1230 H 0.96399 0.28081 0.56184 0.0
H1231 H 0.92288 0.24951 0.61675 0.0
Li1232 Li 0.7037 0.6924 0.67018 0.0
Li1233 Li 0.68416 0.66069 0.67672 0.0
Li1234 Li 0.71479 0.67708 0.69701 0.0
Li1235 Li 0.71106 0.67036 0.65035 0.0
C1236 C 0.68862 0.69005 0.71623 0.0
N1237 N 0.6781 0.71118 0.74059 0.0
C1238 C 0.67122 0.68617 0.71439 0.0
C1239 C 0.7006 0.70452 0.7308 0.0
C1240 C 0.66617 0.69705 0.72676 0.0
C1241 C 0.69506 0.71509 0.74287 0.0
C1242 C 0.67775 0.66623 0.62493 0.0
C1243 C 0.66138 0.64323 0.59378 0.0
N1244 N 0.65146 0.65063 0.58813 0.0
C1245 C 0.66755 0.67374 0.61852 0.0
C1246 C 0.67478 0.65097 0.61223 0.0
C1247 C 0.65426 0.6656 0.59998 0.0
C1248 C 0.72029 0.72903 0.66044 0.0
N1249 N 0.70445 0.71444 0.66448 0.0
C1250 C 0.6899 0.73085 0.65695 0.0
C1251 C 0.6894 0.71515 0.66323 0.0
C1252 C 0.70607 0.74603 0.6519 0.0
C1253 C 0.72142 0.745 0.65435 0.0
H1254 H 0.73209 0.72822 0.66118 0.0
H1255 H 0.67692 0.70341 0.66629 0.0
C1256 C 0.65686 0.6275 0.69446 0.0
N1257 N 0.66013 0.64224 0.68141 0.0
C1258 C 0.63961 0.61408 0.69882 0.0
C1259 C 0.62931 0.63125 0.67647 0.0
C1260 C 0.64674 0.64427 0.67237 0.0
C1261 C 0.62553 0.61592 0.69003 0.0
H1262 H 0.66766 0.62627 0.70194 0.0
H1263 H 0.64956 0.6562 0.66257 0.0
C1264 C 0.74372 0.70411 0.67417 0.0
N1265 N 0.77832 0.72562 0.68853 0.0
C1266 C 0.75713 0.70359 0.66044 0.0
C1267 C 0.74796 0.71577 0.69497 0.0
C1268 C 0.77453 0.71452 0.66805 0.0
C1269 C 0.76551 0.72648 0.702 0.0
C1270 C 0.70202 0.63831 0.67455 0.0
C1271 C 0.71459 0.63494 0.68533 0.0
C1272 C 0.68886 0.6257 0.65868 0.0
C1273 C 0.71407 0.61922 0.67946 0.0
C1274 C 0.68876 0.61012 0.6533 0.0
N1275 N 0.70128 0.60725 0.66367 0.0
C1276 C 0.7262 0.68073 0.75019 0.0
C1277 C 0.74461 0.67844 0.71888 0.0
C1278 C 0.73779 0.68245 0.77011 0.0
N1279 N 0.72984 0.67885 0.72514 0.0
C1280 C 0.75667 0.6804 0.73804 0.0
C1281 C 0.75338 0.68242 0.76417 0.0
H1282 H 0.71428 0.68084 0.75471 0.0
H1283 H 0.74712 0.67672 0.69884 0.0
C1284 C 0.71904 0.66765 0.59728 0.0
N1285 N 0.722 0.66517 0.62242 0.0
C1286 C 0.72791 0.66471 0.57718 0.0
C1287 C 0.74289 0.65692 0.60919 0.0
C1288 C 0.7337 0.65996 0.62863 0.0
C1289 C 0.74012 0.65936 0.58303 0.0
H1290 H 0.71007 0.67229 0.59285 0.0
H1291 H 0.73631 0.65871 0.64878 0.0
O1292 O 0.69384 0.67965 0.70399 0.0
O1293 O 0.69079 0.674 0.64313 0.0
O1294 O 0.72657 0.69326 0.66728 0.0
O1295 O 0.70238 0.65368 0.68007 0.0
H1296 H 0.66175 0.67498 0.70335 0.0
H1297 H 0.71403 0.70753 0.73286 0.0
H1298 H 0.65278 0.69427 0.72532 0.0
H1299 H 0.70422 0.72638 0.75411 0.0
H1300 H 0.65893 0.63139 0.58387 0.0
H1301 H 0.66979 0.68566 0.62785 0.0
H1302 H 0.68289 0.64529 0.61627 0.0
H1303 H 0.64618 0.67121 0.59501 0.0
H1304 H 0.67768 0.73085 0.65494 0.0
H1305 H 0.73421 0.75634 0.65098 0.0
H1306 H 0.63735 0.60268 0.70985 0.0
H1307 H 0.61889 0.63326 0.66938 0.0
H1308 H 0.75416 0.69487 0.64406 0.0
H1309 H 0.73779 0.71648 0.70562 0.0
H1310 H 0.78502 0.71419 0.65766 0.0
H1311 H 0.76894 0.73546 0.71817 0.0
H1312 H 0.72471 0.64438 0.698 0.0
H1313 H 0.67867 0.62777 0.6509 0.0
H1314 H 0.72381 0.61652 0.68751 0.0
H1315 H 0.67867 0.60029 0.64099 0.0
H1316 H 0.73441 0.68357 0.78996 0.0
H1317 H 0.76854 0.68053 0.73228 0.0
H1318 H 0.72564 0.66713 0.55732 0.0
H1319 H 0.75216 0.65283 0.61461 0.0
Li1320 Li 0.36082 0.32932 0.67563 0.0
Li1321 Li 0.33952 0.3013 0.69658 0.0
Li1322 Li 0.34588 0.30245 0.64954 0.0
Li1323 Li 0.32873 0.31528 0.66661 0.0
C1324 C 0.378 0.31035 0.67101 0.0
N1325 N 0.41012 0.31604 0.65389 0.0
C1326 C 0.38682 0.30347 0.68481 0.0
C1327 C 0.38549 0.32013 0.6485 0.0
C1328 C 0.40305 0.30649 0.67584 0.0
C1329 C 0.40175 0.32286 0.64016 0.0
C1330 C 0.33566 0.32749 0.72301 0.0
C1331 C 0.31207 0.32186 0.75232 0.0
N1332 N 0.32396 0.33298 0.76996 0.0
C1333 C 0.34763 0.339 0.74131 0.0
C1334 C 0.31773 0.31897 0.72845 0.0
C1335 C 0.34146 0.34154 0.76498 0.0
C1336 C 0.38975 0.36387 0.66421 0.0
N1337 N 0.38263 0.35047 0.68159 0.0
C1338 C 0.40709 0.36595 0.71014 0.0
C1339 C 0.391 0.35121 0.70412 0.0
C1340 C 0.41487 0.38011 0.69269 0.0
C1341 C 0.40594 0.37891 0.6694 0.0
H1342 H 0.38291 0.36287 0.64627 0.0
H1343 H 0.38509 0.3403 0.7175 0.0
C1344 C 0.32857 0.26912 0.71996 0.0
N1345 N 0.33429 0.2862 0.72575 0.0
C1346 C 0.32492 0.25695 0.73974 0.0
C1347 C 0.33305 0.28014 0.7712 0.0
C1348 C 0.33666 0.29189 0.75078 0.0
C1349 C 0.32719 0.26242 0.76577 0.0
H1350 H 0.32699 0.26499 0.69986 0.0
H1351 H 0.34163 0.30556 0.75498 0.0
C1352 C 0.34264 0.32647 0.61683 0.0
N1353 N 0.32966 0.32729 0.56826 0.0
C1354 C 0.32828 0.31144 0.60662 0.0
C1355 C 0.35039 0.34194 0.60234 0.0
C1356 C 0.32191 0.3121 0.58204 0.0
C1357 C 0.34365 0.34209 0.57782 0.0
C1358 C 0.30619 0.27738 0.66767 0.0
C1359 C 0.29902 0.26665 0.64583 0.0
C1360 C 0.29595 0.27416 0.68992 0.0
C1361 C 0.28158 0.25312 0.64643 0.0
C1362 C 0.27856 0.26048 0.68976 0.0
N1363 N 0.27178 0.25035 0.66819 0.0
C1364 C 0.34351 0.27185 0.6323 0.0
C1365 C 0.35416 0.2934 0.59921 0.0
C1366 C 0.3443 0.25978 0.61567 0.0
N1367 N 0.3482 0.28819 0.6238 0.0
C1368 C 0.35504 0.28166 0.58179 0.0
C1369 C 0.34991 0.2645 0.58989 0.0
H1370 H 0.33907 0.26819 0.6521 0.0
H1371 H 0.35808 0.30657 0.59303 0.0
C1372 C 0.31085 0.33421 0.67141 0.0
N1373 N 0.30964 0.31959 0.66054 0.0
C1374 C 0.29749 0.33815 0.66788 0.0
C1375 C 0.28185 0.31203 0.64173 0.0
C1376 C 0.29544 0.30848 0.64604 0.0
C1377 C 0.28278 0.32713 0.65255 0.0
H1378 H 0.32227 0.34286 0.68284 0.0
H1379 H 0.29474 0.29699 0.63739 0.0
O1380 O 0.36212 0.30752 0.67962 0.0
O1381 O 0.34151 0.32486 0.69976 0.0
O1382 O 0.34904 0.32618 0.64094 0.0
O1383 O 0.32328 0.29065 0.6674 0.0
H1384 H 0.38116 0.29587 0.70228 0.0
H1385 H 0.37886 0.32556 0.63757 0.0
H1386 H 0.41004 0.30125 0.68632 0.0
H1387 H 0.40771 0.3304 0.62278 0.0
H1388 H 0.29823 0.31532 0.75679 0.0
H1389 H 0.36155 0.34583 0.73734 0.0
H1390 H 0.30825 0.31036 0.7143 0.0
H1391 H 0.35059 0.35033 0.77938 0.0
H1392 H 0.41319 0.36632 0.72858 0.0
H1393 H 0.41144 0.38937 0.65524 0.0
H1394 H 0.32037 0.24341 0.73472 0.0
H1395 H 0.3353 0.28497 0.791 0.0
H1396 H 0.32217 0.29938 0.6175 0.0
H1397 H 0.36149 0.35372 0.60996 0.0
H1398 H 0.31081 0.30054 0.57393 0.0
H1399 H 0.34953 0.35397 0.56639 0.0
H1400 H 0.30684 0.26873 0.62858 0.0
H1401 H 0.30141 0.28194 0.70726 0.0
H1402 H 0.27584 0.24478 0.62961 0.0
H1403 H 0.27048 0.25787 0.70685 0.0
H1404 H 0.34054 0.24686 0.62299 0.0
H1405 H 0.3593 0.28587 0.56205 0.0
H1406 H 0.29877 0.34982 0.67695 0.0
H1407 H 0.27101 0.3033 0.62936 0.0
Li1408 Li 0.68056 0.03324 0.67406 0.0
Li1409 Li 0.70992 0.04335 0.69225 0.0
Li1410 Li 0.70503 0.04326 0.64539 0.0
Li1411 Li 0.69474 0.01519 0.66611 0.0
C1412 C 0.69517 0.06757 0.67702 0.0
N1413 N 0.6808 0.08856 0.68646 0.0
C1414 C 0.69517 0.07353 0.70219 0.0
C1415 C 0.68805 0.07242 0.6566 0.0
C1416 C 0.68779 0.0841 0.70658 0.0
C1417 C 0.68079 0.08301 0.66178 0.0
C1418 C 0.68897 0.01146 0.7196 0.0
C1419 C 0.70531 1.00008 0.74161 0.0
N1420 N 0.69175 0.9914 0.75844 0.0
C1421 C 0.67518 1.00239 0.73704 0.0
C1422 C 0.70416 0.01029 0.72182 0.0
C1423 C 0.67685 0.99233 0.75658 0.0
C1424 C 0.6471 0.03108 0.66466 0.0
N1425 N 0.65932 0.03301 0.68256 0.0
C1426 C 0.64322 0.03715 0.7164 0.0
C1427 C 0.65752 0.03577 0.70805 0.0
C1428 C 0.6305 0.03555 0.69839 0.0
C1429 C 0.63244 0.03223 0.67223 0.0
H1430 H 0.64879 0.02884 0.64451 0.0
H1431 H 0.66741 0.03719 0.72187 0.0
C1432 C 0.73931 0.07238 0.71399 0.0
N1433 N 0.72478 0.05694 0.72021 0.0
C1434 C 0.74944 0.08422 0.73348 0.0
C1435 C 0.7294 0.06409 0.7654 0.0
C1436 C 0.71971 0.05263 0.74534 0.0
C1437 C 0.74433 0.08026 0.75955 0.0
H1438 H 0.74257 0.07587 0.69382 0.0
H1439 H 0.70777 0.04065 0.74986 0.0
C1440 C 0.6776 0.01921 0.61581 0.0
N1441 N 0.66954 0.01406 0.56348 0.0
C1442 C 0.67836 0.00582 0.60239 0.0
C1443 C 0.6726 0.02989 0.60269 0.0
C1444 C 0.67427 1.00346 0.57592 0.0
C1445 C 0.66862 0.0271 0.57621 0.0
C1446 C 0.73218 0.03864 0.64602 0.0
C1447 C 0.72833 0.02854 0.62345 0.0
C1448 C 0.74894 0.0531 0.64948 0.0
C1449 C 0.74131 0.03314 0.60459 0.0
C1450 C 0.76155 0.05731 0.63015 0.0
N1451 N 0.7575 0.04733 0.60829 0.0
C1452 C 0.72752 0.0752 0.62194 0.0
C1453 C 0.71566 0.0521 0.59115 0.0
C1454 C 0.73763 0.08723 0.60274 0.0
N1455 N 0.71676 0.05801 0.61591 0.0
C1456 C 0.72534 0.06373 0.57128 0.0
C1457 C 0.73655 0.08153 0.57701 0.0
H1458 H 0.72849 0.07955 0.64184 0.0
H1459 H 0.70768 0.03834 0.58681 0.0
C1460 C 0.67339 0.97848 0.66803 0.0
N1461 N 0.69014 0.99149 0.66389 0.0
C1462 C 0.66878 0.96093 0.66493 0.0
C1463 C 0.69887 0.97042 0.65404 0.0
C1464 C 0.70294 0.98779 0.65778 0.0
C1465 C 0.68148 0.95665 0.65706 0.0
H1466 H 0.66351 0.98178 0.67327 0.0
H1467 H 0.71626 0.99832 0.65514 0.0
O1468 O 0.70185 0.05679 0.67245 0.0
O1469 O 0.68741 0.02116 0.70018 0.0
O1470 O 0.68132 0.02155 0.64178 0.0
O1471 O 0.71948 0.03456 0.66439 0.0
H1472 H 0.7006 0.06984 0.71822 0.0
H1473 H 0.68805 0.06797 0.63699 0.0
H1474 H 0.68757 0.0887 0.72599 0.0
H1475 H 0.67514 0.08679 0.64619 0.0
H1476 H 0.71698 0.99906 0.74358 0.0
H1477 H 0.66332 1.00312 0.73547 0.0
H1478 H 0.71494 0.01717 0.70844 0.0
H1479 H 0.6663 0.98525 0.77025 0.0
H1480 H 0.64209 0.03934 0.73684 0.0
H1481 H 0.62292 0.03089 0.65775 0.0
H1482 H 0.76067 0.09666 0.72811 0.0
H1483 H 0.72504 0.0605 0.78527 0.0
H1484 H 0.68206 0.99735 0.6123 0.0
H1485 H 0.67199 0.04033 0.61276 0.0
H1486 H 0.67485 0.99319 0.56526 0.0
H1487 H 0.66484 0.03533 0.56576 0.0
H1488 H 0.71536 0.01744 0.62029 0.0
H1489 H 0.75221 0.06099 0.66689 0.0
H1490 H 0.73845 0.02551 0.58695 0.0
H1491 H 0.77456 0.06851 0.63253 0.0
H1492 H 0.74615 0.10085 0.60794 0.0
H1493 H 0.72444 0.05875 0.55174 0.0
H1494 H 0.6553 0.95087 0.66815 0.0
H1495 H 0.70914 0.96794 0.64779 0.0
Li1496 Li 0.97845 0.67362 0.69646 0.0
Li1497 Li 0.98905 0.65596 0.67543 0.0
Li1498 Li 1.00514 0.68917 0.67103 0.0
Li1499 Li 0.97668 0.67066 0.64872 0.0
C1500 C 1.00103 0.67492 0.72907 0.0
N1501 N 0.99915 0.67559 0.78259 0.0
C1502 C 0.99304 0.65927 0.7431 0.0
C1503 C 1.00817 0.69092 0.74221 0.0
C1504 C 0.99221 0.65988 0.77016 0.0
C1505 C 1.00706 0.69098 0.76929 0.0
C1506 C 0.95294 0.63579 0.66541 0.0
C1507 C 0.94287 0.61509 0.62994 0.0
N1508 N 0.9294 0.60335 0.64494 0.0
C1509 C 0.9389 0.62357 0.68039 0.0
C1510 C 0.95485 0.63157 0.63992 0.0
C1511 C 0.92718 0.60722 0.66974 0.0
C1512 C 0.96667 0.69031 0.73167 0.0
N1513 N 0.96553 0.67478 0.72554 0.0
C1514 C 0.94343 0.66003 0.75789 0.0
C1515 C 0.9543 0.65979 0.7383 0.0
C1516 C 0.94428 0.67589 0.76449 0.0
C1517 C 0.95622 0.69119 0.75127 0.0
H1518 H 0.97542 0.70197 0.72105 0.0
H1519 H 0.95367 0.64762 0.73307 0.0
C1520 C 0.00875 0.63887 0.67236 0.0
N1521 N 0.99276 0.6364 0.67911 0.0
C1522 C 0.01295 0.62578 0.67697 0.0
C1523 C 0.98402 0.60765 0.6949 0.0
C1524 C 0.98039 0.62111 0.68999 0.0
C1525 C 1.00061 0.61001 0.68883 0.0
H1526 H 0.01842 0.65123 0.66399 0.0
H1527 H 0.96794 0.61959 0.69586 0.0
C1528 C 0.9898 0.7092 0.66615 0.0
N1529 N 1.00196 0.74439 0.65761 0.0
C1530 C 0.98552 0.71468 0.64318 0.0
C1531 C 1.00025 0.72166 0.68478 0.0
C1532 C 0.99178 0.73251 0.63924 0.0
C1533 C 1.00628 0.73937 0.68009 0.0
C1534 C 1.00378 0.66786 0.61981 0.0
C1535 C 0.01362 0.68186 0.60301 0.0
C1536 C 0.99904 0.65085 0.61204 0.0
C1537 C 0.01829 0.67858 0.57858 0.0
C1538 C 1.00396 0.6481 0.58747 0.0
N1539 N 0.01339 0.66191 0.57137 0.0
C1540 C 0.04129 0.71372 0.68343 0.0
C1541 C 0.02958 0.721 0.64724 0.0
C1542 C 0.05754 0.72907 0.68012 0.0
N1543 N 0.0277 0.71003 0.66709 0.0
C1544 C 0.04537 0.73651 0.64352 0.0
C1545 C 0.05962 0.74076 0.66007 0.0
H1546 H 0.03953 0.70474 0.69898 0.0
H1547 H 0.01875 0.71774 0.63425 0.0
C1548 C 0.94741 0.6696 0.6272 0.0
N1549 N 0.96243 0.66988 0.62026 0.0
C1550 C 0.93701 0.67147 0.60844 0.0
C1551 C 0.95738 0.6732 0.57558 0.0
C1552 C 0.96739 0.67131 0.59498 0.0
C1553 C 0.94217 0.6737 0.58227 0.0
H1554 H 0.9439 0.66862 0.64752 0.0
H1555 H 0.97933 0.67148 0.58986 0.0
O1556 O 1.00148 0.67456 0.70254 0.0
O1557 O 0.96455 0.65185 0.67563 0.0
O1558 O 0.98393 0.69179 0.67022 0.0
O1559 O 0.99927 0.67085 0.64397 0.0
H1560 H 0.98737 0.64678 0.73317 0.0
H1561 H 0.01441 0.70314 0.73161 0.0
H1562 H 0.98598 0.64787 0.78128 0.0
H1563 H 0.01245 0.70326 0.77973 0.0
H1564 H 0.94424 0.61167 0.61023 0.0
H1565 H 0.93708 0.62664 0.70009 0.0
H1566 H 0.96535 0.64096 0.62786 0.0
H1567 H 0.91632 0.59761 0.68118 0.0
H1568 H 0.93455 0.64799 0.76788 0.0
H1569 H 0.95718 0.70366 0.75564 0.0
H1570 H 0.02587 0.62816 0.67186 0.0
H1571 H 0.97423 0.59589 0.70458 0.0
H1572 H 0.97754 0.7053 0.62846 0.0
H1573 H 1.00394 0.71772 0.70247 0.0
H1574 H 0.9886 0.73692 0.62153 0.0
H1575 H 0.01447 0.74914 0.69427 0.0
H1576 H 0.01748 0.6951 0.60859 0.0
H1577 H 0.99165 0.63983 0.62482 0.0
H1578 H 0.02581 0.6893 0.56535 0.0
H1579 H 1.00031 0.63499 0.58122 0.0
H1580 H 0.06826 0.73185 0.69318 0.0
H1581 H 0.04652 0.74497 0.62749 0.0
H1582 H 0.92549 0.67192 0.61451 0.0
H1583 H 0.96168 0.67455 0.55557 0.0
H1584 H 0.22522 0.33382 0.11882 0.0
H1585 H 0.1925 0.35007 0.0808 0.0
H1586 H 0.17887 0.32602 0.15718 0.0
H1587 H 0.16764 0.34339 0.16172 0.0
H1588 H 0.12566 0.34492 0.12234 0.0
H1589 H 0.16268 0.33794 0.07781 0.0
C1590 C 0.21337 0.3347 0.11868 0.0
C1591 C 0.20245 0.3292 0.14038 0.0
C1592 C 0.20981 0.34209 0.09724 0.0
C1593 C 0.19479 0.34382 0.09724 0.0
C1594 C 0.18328 0.33814 0.1189 0.0
C1595 C 0.18736 0.33075 0.14039 0.0
C1596 C 0.1674 0.34033 0.11964 0.0
C1597 C 0.16093 0.34259 0.14371 0.0
C1598 C 0.14588 0.3442 0.14483 0.0
C1599 C 0.13749 0.34402 0.12171 0.0
C1600 C 0.14364 0.34208 0.09769 0.0
C1601 C 0.15844 0.34001 0.09655 0.0
H1602 H 0.67169 0.88674 0.11789 0.0
H1603 H 0.67389 0.84629 0.07572 0.0
H1604 H 0.6703 0.84464 0.16022 0.0
H1605 H 0.67844 0.82618 0.16003 0.0
H1606 H 0.67383 0.78185 0.12005 0.0
H1607 H 0.66758 0.8196 0.07687 0.0
C1608 C 0.67169 0.87444 0.11805 0.0
C1609 C 0.67139 0.86657 0.14165 0.0
C1610 C 0.67216 0.86688 0.09451 0.0
C1611 C 0.67292 0.85134 0.09436 0.0
C1612 C 0.67247 0.84275 0.11803 0.0
C1613 C 0.67145 0.85068 0.14159 0.0
C1614 C 0.67295 0.82574 0.11836 0.0
C1615 C 0.67594 0.81917 0.14193 0.0
C1616 C 0.67547 0.80303 0.14275 0.0
C1617 C 0.67356 0.79402 0.11963 0.0
C1618 C 0.67121 0.80023 0.09595 0.0
C1619 C 0.67028 0.81569 0.09536 0.0
H1620 H 0.22952 0.8908 0.11631 0.0
H1621 H 0.18811 0.85045 0.07164 0.0
H1622 H 0.18871 0.8469 0.15598 0.0
H1623 H 0.16127 0.82974 0.15344 0.0
H1624 H 0.12462 0.78371 0.11259 0.0
H1625 H 0.16974 0.82244 0.07216 0.0
C1626 C 0.21724 0.87843 0.1157 0.0
C1627 C 0.20933 0.86997 0.13884 0.0
C1628 C 0.20984 0.8712 0.09168 0.0
C1629 C 0.19386 0.85528 0.09054 0.0
C1630 C 0.18555 0.84602 0.11368 0.0
C1631 C 0.19395 0.85353 0.13777 0.0
C1632 C 0.16833 0.82877 0.11296 0.0
C1633 C 0.15776 0.82228 0.13563 0.0
C1634 C 0.14246 0.80577 0.13584 0.0
C1635 C 0.13682 0.79616 0.11282 0.0
C1636 C 0.14642 0.80229 0.08993 0.0
C1637 C 0.16227 0.8184 0.08996 0.0
H1638 H 0.34106 0.12208 0.90139 0.0
H1639 H 0.33756 0.162 0.94336 0.0
H1640 H 0.34227 0.16437 0.85923 0.0
H1641 H 0.32804 0.17841 0.86133 0.0
H1642 H 0.33928 0.22672 0.89712 0.0
H1643 H 0.34799 0.19047 0.94034 0.0
C1644 C 0.34085 0.13427 0.90114 0.0
C1645 C 0.34136 0.14224 0.87748 0.0
C1646 C 0.34006 0.14166 0.92471 0.0
C1647 C 0.33881 0.15692 0.92485 0.0
C1648 C 0.33925 0.1654 0.90119 0.0
C1649 C 0.34089 0.15792 0.87763 0.0
C1650 C 0.33838 0.18207 0.90077 0.0
C1651 C 0.33286 0.18702 0.87801 0.0
C1652 C 0.33337 0.20316 0.87638 0.0
C1653 C 0.33859 0.2141 0.89816 0.0
C1654 C 0.34335 0.20931 0.92127 0.0
C1655 C 0.34347 0.19346 0.92258 0.0
H1656 H 0.78533 0.12074 0.89362 0.0
H1657 H 0.82762 0.15786 0.94078 0.0
H1658 H 0.82845 0.16443 0.85695 0.0
H1659 H 0.85631 0.17906 0.86067 0.0
H1660 H 0.8939 0.2234 0.90389 0.0
H1661 H 0.84633 0.18633 0.94121 0.0
C1662 C 0.79785 0.1328 0.89502 0.0
C1663 C 0.80636 0.14179 0.87246 0.0
C1664 C 0.8052 0.13883 0.91951 0.0
C1665 C 0.82191 0.15386 0.92164 0.0
C1666 C 0.83096 0.16348 0.8991 0.0
C1667 C 0.82265 0.15725 0.87461 0.0
C1668 C 0.84874 0.17998 0.90084 0.0
C1669 C 0.8599 0.18627 0.87874 0.0
C1670 C 0.87576 0.20231 0.87939 0.0
C1671 C 0.88133 0.21136 0.90288 0.0
C1672 C 0.87087 0.20561 0.92505 0.0
C1673 C 0.85452 0.19007 0.92409 0.0
H1674 H 0.78961 0.66675 0.8924 0.0
H1675 H 0.82456 0.65501 0.9336 0.0
H1676 H 0.8369 0.67617 0.85531 0.0
H1677 H 0.85212 0.66314 0.85323 0.0
H1678 H 0.89463 0.66533 0.8962 0.0
H1679 H 0.8534 0.66689 0.93756 0.0
C1680 C 0.80198 0.66687 0.8931 0.0
C1681 C 0.81267 0.67178 0.87114 0.0
C1682 C 0.8064 0.66116 0.91561 0.0
C1683 C 0.82184 0.6602 0.91633 0.0
C1684 C 0.83336 0.66567 0.89468 0.0
C1685 C 0.82848 0.67155 0.87217 0.0
C1686 C 0.85024 0.66515 0.89531 0.0
C1687 C 0.85825 0.66423 0.87187 0.0
C1688 C 0.87454 0.66499 0.87213 0.0
C1689 C 0.8823 0.66531 0.89589 0.0
C1690 C 0.87452 0.66555 0.91932 0.0
C1691 C 0.85875 0.6659 0.91916 0.0
H1692 H 0.8975 0.67571 0.45249 0.0
H1693 H 0.85609 0.67646 0.41011 0.0
H1694 H 0.85724 0.67854 0.49448 0.0
H1695 H 0.82872 0.66432 0.49084 0.0
H1696 H 0.7934 0.67857 0.45687 0.0
H1697 H 0.83937 0.6888 0.41474 0.0
C1698 C 0.88545 0.67621 0.45252 0.0
C1699 C 0.87803 0.67685 0.47613 0.0
C1700 C 0.87782 0.67642 0.42883 0.0
C1701 C 0.86202 0.67674 0.42865 0.0
C1702 C 0.85387 0.67696 0.45235 0.0
C1703 C 0.86239 0.67738 0.47599 0.0
C1704 C 0.83668 0.6768 0.45283 0.0
C1705 C 0.82556 0.67021 0.47486 0.0
C1706 C 0.81004 0.67094 0.47654 0.0
C1707 C 0.80524 0.67772 0.45566 0.0
C1708 C 0.81554 0.68382 0.43333 0.0
C1709 C 0.83129 0.68346 0.43185 0.0
H1710 H 0.35039 0.22961 0.44814 0.0
H1711 H 0.33081 0.18046 0.4087 0.0
H1712 H 0.35357 0.18844 0.48602 0.0
H1713 H 0.33824 0.16069 0.48962 0.0
H1714 H 0.33198 0.11584 0.44869 0.0
H1715 H 0.33874 0.16006 0.40513 0.0
C1716 C 0.34848 0.21646 0.44751 0.0
C1717 C 0.3524 0.20986 0.46945 0.0
C1718 C 0.34097 0.20606 0.42549 0.0
C1719 C 0.33732 0.18855 0.42546 0.0
C1720 C 0.34194 0.18167 0.44713 0.0
C1721 C 0.34959 0.19276 0.46904 0.0
C1722 C 0.33867 0.16309 0.44731 0.0
C1723 C 0.33755 0.1545 0.47121 0.0
C1724 C 0.336 0.13787 0.47176 0.0
C1725 C 0.3338 0.12895 0.44841 0.0
C1726 C 0.33449 0.13674 0.42456 0.0
C1727 C 0.33733 0.15394 0.42386 0.0
H1728 H 0.8994 0.21963 0.45296 0.0
H1729 H 0.85603 0.18106 0.40884 0.0
H1730 H 0.85653 0.17747 0.49298 0.0
H1731 H 0.82805 0.16445 0.48876 0.0
H1732 H 0.79066 0.11715 0.45053 0.0
H1733 H 0.83834 0.15198 0.41148 0.0
C1734 C 0.88682 0.20758 0.4525 0.0
C1735 C 0.87867 0.19944 0.47576 0.0
C1736 C 0.87888 0.2008 0.42854 0.0
C1737 C 0.8622 0.18569 0.4276 0.0
C1738 C 0.85363 0.17692 0.45082 0.0
C1739 C 0.86226 0.18399 0.47483 0.0
C1740 C 0.83583 0.16055 0.45027 0.0
C1741 C 0.82448 0.1559 0.47204 0.0
C1742 C 0.80826 0.14021 0.47247 0.0
C1743 C 0.80297 0.12949 0.45042 0.0
C1744 C 0.81351 0.13395 0.42835 0.0
C1745 C 0.83006 0.14922 0.42836 0.0
H1746 H 0.01168 0.45363 0.23395 0.0
H1747 H 0.01506 0.49675 0.27674 0.0
H1748 H 0.01807 0.4981 0.19226 0.0
H1749 H 0.00946 0.51655 0.19349 0.0
H1750 H 0.02112 0.56391 0.23213 0.0
H1751 H 0.02484 0.52451 0.27502 0.0
C1752 C 0.01268 0.46641 0.2341 0.0
C1753 C 0.01391 0.47476 0.2106 0.0
C1754 C 0.01356 0.47449 0.25782 0.0
C1755 C 0.01506 0.49115 0.25807 0.0
C1756 C 0.0162 0.50006 0.23445 0.0
C1757 C 0.01626 0.49171 0.21081 0.0
C1758 C 0.0173 0.5178 0.23419 0.0
C1759 C 0.01376 0.52429 0.21103 0.0
C1760 C 0.01584 0.54114 0.20997 0.0
C1761 C 0.02024 0.55118 0.23257 0.0
C1762 C 0.02309 0.54505 0.25596 0.0
C1763 C 0.0219 0.52854 0.25681 0.0
H1764 H 0.45265 0.46131 0.22766 0.0
H1765 H 0.49108 0.50431 0.27244 0.0
H1766 H 0.50087 0.49743 0.19156 0.0
H1767 H 0.51857 0.52479 0.19114 0.0
H1768 H 0.56276 0.56242 0.23417 0.0
H1769 H 0.51938 0.52169 0.27545 0.0
C1770 C 0.46537 0.47317 0.22878 0.0
C1771 C 0.47587 0.47907 0.2067 0.0
C1772 C 0.47088 0.48205 0.25241 0.0
C1773 C 0.48742 0.49736 0.25414 0.0
C1774 C 0.49869 0.50363 0.23212 0.0
C1775 C 0.49272 0.49379 0.20866 0.0
C1776 C 0.51639 0.52033 0.23313 0.0
C1777 C 0.52487 0.52914 0.20982 0.0
C1778 C 0.54182 0.54379 0.21012 0.0
C1779 C 0.55 0.55058 0.23389 0.0
C1780 C 0.54183 0.5429 0.25735 0.0
C1781 C 0.52514 0.52769 0.25705 0.0
H1782 H 0.45624 0.00567 0.22598 0.0
H1783 H 0.49075 0.99262 0.26567 0.0
H1784 H 0.50056 0.01033 0.18542 0.0
H1785 H 0.51395 0.99562 0.1829 0.0
H1786 H 0.55644 0.99543 0.22252 0.0
H1787 H 0.51929 1.00225 0.26675 0.0
C1788 C 0.46815 1.00491 0.22595 0.0
C1789 C 0.47775 0.00824 0.20306 0.0
C1790 C 0.47302 0.99973 0.24858 0.0
C1791 C 0.4877 0.99744 0.24827 0.0
C1792 C 0.49814 1.00126 0.22553 0.0
C1793 C 0.49292 0.00684 0.20307 0.0
C1794 C 0.51422 0.9993 0.22493 0.0
C1795 C 0.52073 0.99687 0.20098 0.0
C1796 C 0.53603 0.9957 0.19995 0.0
C1797 C 0.54451 0.99615 0.22308 0.0
C1798 C 0.53828 0.9981 0.24703 0.0
C1799 C 0.52341 1.00003 0.24804 0.0
H1800 H 0.56084 0.00999 0.78753 0.0
H1801 H 0.52373 0.01916 0.74738 0.0
H1802 H 0.51265 0.99731 0.82523 0.0
H1803 H 0.49906 0.01266 0.8285 0.0
H1804 H 0.45461 0.00862 0.78841 0.0
H1805 H 0.49425 0.00559 0.7448 0.0
C1806 C 0.54815 0.0092 0.7872 0.0
C1807 C 0.53733 1.00306 0.80903 0.0
C1808 C 0.54318 0.01467 0.76497 0.0
C1809 C 0.52707 0.01431 0.76448 0.0
C1810 C 0.51581 0.00837 0.78639 0.0
C1811 C 0.52111 1.00252 0.80847 0.0
C1812 C 0.49886 0.00865 0.78669 0.0
C1813 C 0.49195 0.01065 0.8105 0.0
C1814 C 0.47601 0.01064 0.81131 0.0
C1815 C 0.46706 0.00891 0.78808 0.0
C1816 C 0.47377 0.00754 0.76423 0.0
C1817 C 0.48952 0.00717 0.76343 0.0
H1818 H 1.00239 0.55291 0.78693 0.0
H1819 H 1.00418 0.51311 0.74189 0.0
H1820 H 0.99875 0.50863 0.82599 0.0
H1821 H 0.01009 0.49237 0.82356 0.0
H1822 H 1.00258 0.44724 0.78202 0.0
H1823 H 0.99424 0.48492 0.74231 0.0
C1824 C 1.0021 0.54048 0.78611 0.0
C1825 C 1.00087 0.5316 0.80911 0.0
C1826 C 1.00295 0.53369 0.762 0.0
C1827 C 1.00296 0.51776 0.76078 0.0
C1828 C 1.00189 0.50837 0.78382 0.0
C1829 C 1.00051 0.51552 0.80791 0.0
C1830 C 1.00223 0.49136 0.783 0.0
C1831 C 1.00647 0.485 0.80565 0.0
C1832 C 1.00582 0.46875 0.80572 0.0
C1833 C 1.00233 0.45942 0.78249 0.0
C1834 C 0.99836 0.46528 0.75975 0.0
C1835 C 0.99806 0.48108 0.75996 0.0
H1836 H 0.56221 0.55936 0.78274 0.0
H1837 H 0.52311 0.51757 0.73664 0.0
H1838 H 0.52223 0.51417 0.82096 0.0
H1839 H 0.49451 0.4978 0.8172 0.0
H1840 H 0.46042 0.44984 0.77839 0.0
H1841 H 0.50541 0.489 0.73787 0.0
C1842 C 0.55024 0.54674 0.78158 0.0
C1843 C 0.54232 0.53784 0.80443 0.0
C1844 C 0.54365 0.53932 0.75725 0.0
C1845 C 0.52827 0.52279 0.75568 0.0
C1846 C 0.51968 0.51346 0.77865 0.0
C1847 C 0.52749 0.52107 0.80292 0.0
C1848 C 0.5028 0.49596 0.7778 0.0
C1849 C 0.49174 0.4898 0.8 0.0
C1850 C 0.47695 0.47297 0.80059 0.0
C1851 C 0.47222 0.46264 0.77827 0.0
C1852 C 0.48216 0.46854 0.75561 0.0
C1853 C 0.49758 0.48505 0.75535 0.0
H1854 H 0.67756 0.79003 0.56311 0.0
H1855 H 0.68955 0.83687 0.60466 0.0
H1856 H 0.66639 0.82701 0.52754 0.0
H1857 H 0.68113 0.85521 0.52395 0.0
H1858 H 0.67972 0.89667 0.56446 0.0
H1859 H 0.67775 0.85445 0.60823 0.0
C1860 C 0.67738 0.80224 0.56411 0.0
C1861 C 0.67157 0.80761 0.54273 0.0
C1862 C 0.68364 0.81257 0.58647 0.0
C1863 C 0.6841 0.82877 0.58756 0.0
C1864 C 0.6782 0.83459 0.56612 0.0
C1865 C 0.67163 0.82352 0.544 0.0
C1866 C 0.67918 0.85219 0.56614 0.0
C1867 C 0.68015 0.86069 0.54225 0.0
C1868 C 0.67957 0.87628 0.54153 0.0
C1869 C 0.67936 0.8842 0.56488 0.0
C1870 C 0.67885 0.87654 0.58883 0.0
C1871 C 0.6787 0.86049 0.58957 0.0
H1872 H 0.12414 0.78643 0.56592 0.0
H1873 H 0.1662 0.82842 0.60782 0.0
H1874 H 0.1628 0.83065 0.52378 0.0
H1875 H 0.19137 0.84575 0.52583 0.0
H1876 H 0.22725 0.89462 0.56148 0.0
H1877 H 0.18237 0.85747 0.60438 0.0
C1878 C 0.13621 0.799 0.56579 0.0
C1879 C 0.14304 0.80743 0.54221 0.0
C1880 C 0.14423 0.80675 0.58932 0.0
C1881 C 0.1599 0.82299 0.58938 0.0
C1882 C 0.16728 0.83189 0.56569 0.0
C1883 C 0.1582 0.82405 0.54223 0.0
C1884 C 0.18427 0.84916 0.56511 0.0
C1885 C 0.19484 0.85439 0.54244 0.0
C1886 C 0.21024 0.87077 0.54094 0.0
C1887 C 0.21548 0.88185 0.56255 0.0
C1888 C 0.20568 0.87699 0.58545 0.0
C1889 C 0.19007 0.86071 0.58678 0.0
H1890 H 0.12213 0.33728 0.56703 0.0
H1891 H 0.16615 0.34158 0.60854 0.0
H1892 H 0.16281 0.33537 0.52462 0.0
H1893 H 0.19126 0.35107 0.52638 0.0
H1894 H 0.23027 0.34264 0.56171 0.0
H1895 H 0.1843 0.33075 0.60501 0.0
C1896 C 0.13449 0.33738 0.56673 0.0
C1897 C 0.14169 0.33646 0.54304 0.0
C1898 C 0.14301 0.33877 0.5902 0.0
C1899 C 0.15948 0.33984 0.59018 0.0
C1900 C 0.16724 0.33899 0.56645 0.0
C1901 C 0.15784 0.33691 0.54305 0.0
C1902 C 0.18506 0.34047 0.56571 0.0
C1903 C 0.1955 0.34662 0.54294 0.0
C1904 C 0.21173 0.3473 0.54124 0.0
C1905 C 0.21798 0.34263 0.56293 0.0
C1906 C 0.2085 0.33729 0.58607 0.0
C1907 C 0.19182 0.33571 0.58733 0.0
H1908 H 0.02505 0.44004 0.11049 0.0
H1909 H 0.97716 0.39608 0.13895 0.0
H1910 H 0.97576 0.41426 0.17357 0.0
H1911 H 0.98893 0.44209 0.19721 0.0
H1912 H 0.03687 0.48624 0.16964 0.0
H1913 H 0.03734 0.46871 0.13287 0.0
C1914 C 0.01434 0.43449 0.12433 0.0
C1915 C 1.00129 0.4167 0.12229 0.0
C1916 C 0.01358 0.44507 0.14418 0.0
C1917 C 0.98732 0.40973 0.14005 0.0
C1918 C 0.98653 0.4201 0.15987 0.0
C1919 C 0.99938 0.4479 0.18297 0.0
C1920 C 0.0129 0.46536 0.18614 0.0
C1921 C 0.99967 0.43771 0.16227 0.0
C1922 C 0.02628 0.47285 0.16747 0.0
C1923 C 0.02662 0.46278 0.14663 0.0
H1924 H 0.57611 0.58811 0.10852 0.0
H1925 H 0.62097 0.58699 0.13976 0.0
H1926 H 0.60307 0.56811 0.17513 0.0
H1927 H 0.57511 0.55292 0.19815 0.0
H1928 H 0.53012 0.5542 0.16805 0.0
H1929 H 0.54751 0.57173 0.13094 0.0
C1930 C 0.58195 0.58377 0.12316 0.0
C1931 C 0.59987 0.58901 0.12161 0.0
C1932 C 0.57154 0.57286 0.14348 0.0
C1933 C 0.6072 0.58306 0.14044 0.0
C1934 C 0.59699 0.5723 0.1607 0.0
C1935 C 0.56909 0.55699 0.18339 0.0
C1936 C 0.55142 0.55242 0.1859 0.0
C1937 C 0.57921 0.56724 0.1625 0.0
C1938 C 0.54369 0.55749 0.16645 0.0
C1939 C 0.55367 0.56763 0.14539 0.0
H1940 H 0.43463 1.00194 0.10239 0.0
H1941 H 0.42698 0.03991 0.1444 0.0
H1942 H 0.44772 0.04201 0.17769 0.0
H1943 H 0.46592 0.0311 0.19679 0.0
H1944 H 0.47303 0.99251 0.1557 0.0
H1945 H 0.45509 0.99299 0.11973 0.0
C1946 C 0.43755 0.01068 0.11884 0.0
C1947 C 0.42912 0.02059 0.12113 0.0
C1948 C 0.44951 0.01182 0.13792 0.0
C1949 C 0.43329 0.03215 0.14222 0.0
C1950 C 0.44513 0.03334 0.16127 0.0
C1951 C 0.46376 0.02301 0.17974 0.0
C1952 C 0.47065 0.01167 0.17898 0.0
C1953 C 0.45305 0.023 0.15956 0.0
C1954 C 0.46797 1.00143 0.15667 0.0
C1955 C 0.45752 1.00153 0.13626 0.0
H1956 H 0.43512 0.99965 0.91665 0.0
H1957 H 0.42099 0.03412 0.87773 0.0
H1958 H 0.44074 0.03786 0.84199 0.0
H1959 H 0.4606 0.03008 0.82067 0.0
H1960 H 0.47352 0.99414 0.85766 0.0
H1961 H 0.45632 0.99285 0.89583 0.0
C1962 C 0.43653 0.00811 0.90045 0.0
C1963 C 0.42646 0.01644 0.89967 0.0
C1964 C 0.4478 0.01006 0.87977 0.0
C1965 C 0.42835 0.02732 0.87853 0.0
C1966 C 0.43972 0.02955 0.85819 0.0
C1967 C 0.45968 0.02196 0.83709 0.0
C1968 C 0.46812 0.01202 0.83614 0.0
C1969 C 0.44926 0.02076 0.85841 0.0
C1970 C 0.4672 1.00197 0.8579 0.0
C1971 C 0.45721 1.00108 0.8796 0.0
H1972 H 0.0269 0.44291 0.90737 0.0
H1973 H 0.98448 0.39351 0.87984 0.0
H1974 H 0.97899 0.40834 0.84426 0.0
H1975 H 0.98642 0.43497 0.82057 0.0
H1976 H 0.02991 0.4845 0.8454 0.0
H1977 H 0.0344 0.47013 0.88304 0.0
C1978 C 0.01644 0.43547 0.89357 0.0
C1979 C 1.00622 0.41712 0.89604 0.0
C1980 C 0.01345 0.4441 0.8729 0.0
C1981 C 0.99272 0.40758 0.87807 0.0
C1982 C 0.98949 0.41607 0.85784 0.0
C1983 C 0.99702 0.44266 0.83405 0.0
C1984 C 1.00798 0.46075 0.82992 0.0
C1985 C 0.99985 0.43426 0.85496 0.0
C1986 C 0.02125 0.47056 0.84811 0.0
C1987 C 0.02391 0.46232 0.8695 0.0
H1988 H 0.58594 0.56788 0.90748 0.0
H1989 H 0.58603 0.6143 0.88065 0.0
H1990 H 0.56677 0.59774 0.8447 0.0
H1991 H 0.55143 0.57066 0.81937 0.0
H1992 H 0.5512 0.52416 0.8456 0.0
H1993 H 0.56843 0.54 0.88395 0.0
C1994 C 0.58152 0.57432 0.89405 0.0
C1995 C 0.58766 0.59241 0.89661 0.0
C1996 C 0.57034 0.56469 0.87342 0.0
C1997 C 0.58188 0.60053 0.87883 0.0
C1998 C 0.57074 0.59104 0.85836 0.0
C1999 C 0.55503 0.56396 0.83365 0.0
C2000 C 0.55021 0.54634 0.82963 0.0
C2001 C 0.56516 0.57322 0.85523 0.0
C2002 C 0.5547 0.53771 0.84838 0.0
C2003 C 0.56468 0.54681 0.87015 0.0
H2004 H 0.01823 0.57685 0.91107 0.0
H2005 H 0.97724 0.58487 0.88012 0.0
H2006 H 0.97203 0.56413 0.84526 0.0
H2007 H 0.98032 0.54521 0.82185 0.0
H2008 H 0.02119 0.53697 0.85217 0.0
H2009 H 0.02469 0.55565 0.88964 0.0
C2010 C 1.00797 0.57387 0.89696 0.0
C2011 C 0.99838 0.58273 0.89805 0.0
C2012 C 1.0049 0.56175 0.87696 0.0
C2013 C 0.98519 0.57869 0.87943 0.0
C2014 C 0.98206 0.56668 0.85958 0.0
C2015 C 0.98985 0.54734 0.83685 0.0
C2016 C 1.00059 0.53986 0.83417 0.0
C2017 C 0.99204 0.55838 0.8579 0.0
C2018 C 0.01271 0.54251 0.85389 0.0
C2019 C 0.01483 0.55335 0.87514 0.0
H2020 H 0.42299 0.44562 0.89366 0.0
H2021 H 0.42958 0.40069 0.88297 0.0
H2022 H 0.45158 0.41625 0.84974 0.0
H2023 H 0.46798 0.4419 0.82226 0.0
H2024 H 0.46202 0.48714 0.83204 0.0
H2025 H 0.44121 0.47245 0.86771 0.0
C2026 C 0.42937 0.43932 0.88422 0.0
C2027 C 0.42432 0.42185 0.89045 0.0
C2028 C 0.44222 0.44843 0.86512 0.0
C2029 C 0.43277 0.4139 0.87804 0.0
C2030 C 0.44551 0.42284 0.85919 0.0
C2031 C 0.46219 0.44858 0.83234 0.0
C2032 C 0.46635 0.46547 0.82445 0.0
C2033 C 0.45013 0.43998 0.85234 0.0
C2034 C 0.45903 0.47414 0.83787 0.0
C2035 C 0.44704 0.46568 0.85808 0.0
H2036 H 0.57481 1.0027 0.91302 0.0
H2037 H 0.59293 0.97568 0.86317 0.0
H2038 H 0.57362 0.97481 0.82849 0.0
H2039 H 0.55348 0.98375 0.81114 0.0
H2040 H 0.53644 0.01223 0.85972 0.0
H2041 H 0.55274 0.00975 0.89646 0.0
C2042 C 0.57432 0.99638 0.89471 0.0
C2043 C 0.58548 0.98944 0.89061 0.0
C2044 C 0.56327 0.99606 0.87469 0.0
C2045 C 0.58476 0.98141 0.86668 0.0
C2046 C 0.57363 0.98081 0.84689 0.0
C2047 C 0.5532 0.98929 0.82985 0.0
C2048 C 0.54393 0.99837 0.83257 0.0
C2049 C 0.56313 0.98842 0.85049 0.0
C2050 C 0.54339 1.00512 0.85709 0.0
C2051 C 0.55289 1.00389 0.87801 0.0
H2052 H 0.5812 0.01203 0.09833 0.0
H2053 H 0.58767 0.97002 0.12887 0.0
H2054 H 0.56704 0.96531 0.16362 0.0
H2055 H 0.54862 0.97425 0.18701 0.0
H2056 H 0.54211 0.01627 0.1571 0.0
H2057 H 0.5606 0.01925 0.11974 0.0
C2058 C 0.57791 1.00166 0.11232 0.0
C2059 C 0.58629 0.99162 0.11115 0.0
C2060 C 0.56586 0.99888 0.13225 0.0
C2061 C 0.58186 0.9783 0.12963 0.0
C2062 C 0.56991 0.97546 0.14941 0.0
C2063 C 0.5511 0.98393 0.17214 0.0
C2064 C 0.54414 0.99513 0.17492 0.0
C2065 C 0.56208 0.98586 0.15116 0.0
C2066 C 0.54722 0.00742 0.15532 0.0
C2067 C 0.55796 0.00926 0.13413 0.0
H2068 H 0.99207 0.56807 0.11297 0.0
H2069 H 0.04108 0.61492 0.13058 0.0
H2070 H 0.047 0.59947 0.16466 0.0
H2071 H 0.03783 0.57325 0.19079 0.0
H2072 H 0.98878 0.52631 0.17461 0.0
H2073 H 0.98361 0.54097 0.13796 0.0
C2074 C 1.00412 0.57483 0.1241 0.0
C2075 C 0.01597 0.59274 0.11946 0.0
C2076 C 1.00751 0.56582 0.14376 0.0
C2077 C 0.03151 0.6013 0.13413 0.0
C2078 C 0.035 0.59243 0.1535 0.0
C2079 C 0.02603 0.56619 0.17915 0.0
C2080 C 0.01362 0.5488 0.18553 0.0
C2081 C 0.023 0.5748 0.15869 0.0
C2082 C 0.99856 0.53969 0.17001 0.0
C2083 C 0.99554 0.54813 0.14924 0.0
H2084 H 0.45012 0.4308 0.10663 0.0
H2085 H 0.40275 0.43142 0.12551 0.0
H2086 H 0.41792 0.45229 0.16045 0.0
H2087 H 0.44395 0.46915 0.18698 0.0
H2088 H 0.49125 0.4679 0.17056 0.0
H2089 H 0.47704 0.44901 0.13271 0.0
C2090 C 0.44321 0.43564 0.11831 0.0
C2091 C 0.42527 0.42938 0.11374 0.0
C2092 C 0.45202 0.4476 0.13864 0.0
C2093 C 0.41645 0.43575 0.12899 0.0
C2094 C 0.42514 0.44777 0.14885 0.0
C2095 C 0.45118 0.46476 0.1751 0.0
C2096 C 0.46853 0.4697 0.18174 0.0
C2097 C 0.4428 0.45356 0.15407 0.0
C2098 C 0.47788 0.46429 0.16582 0.0
C2099 C 0.4697 0.45337 0.14434 0.0
H2100 H 0.67416 0.77275 0.43807 0.0
H2101 H 0.6398 0.72586 0.48117 0.0
H2102 H 0.6389 0.74365 0.51675 0.0
H2103 H 0.64998 0.7725 0.53724 0.0
H2104 H 0.6839 0.81928 0.49399 0.0
H2105 H 0.68212 0.80151 0.45632 0.0
C2106 C 0.6661 0.76633 0.45491 0.0
C2107 C 0.65732 0.74791 0.45697 0.0
C2108 C 0.66546 0.77664 0.47525 0.0
C2109 C 0.64713 0.73998 0.47923 0.0
C2110 C 0.64647 0.75015 0.49955 0.0
C2111 C 0.65671 0.77878 0.51937 0.0
C2112 C 0.66716 0.79715 0.51843 0.0
C2113 C 0.65592 0.76848 0.49803 0.0
C2114 C 0.67568 0.80517 0.49512 0.0
C2115 C 0.67483 0.795 0.4737 0.0
H2116 H 0.24318 0.90647 0.43398 0.0
H2117 H 0.29075 0.92546 0.47878 0.0
H2118 H 0.27396 0.90707 0.51528 0.0
H2119 H 0.24565 0.88739 0.5356 0.0
H2120 H 0.19795 0.86903 0.49156 0.0
H2121 H 0.21498 0.88471 0.45321 0.0
C2122 C 0.24993 0.90636 0.45154 0.0
C2123 C 0.26821 0.91754 0.45371 0.0
C2124 C 0.24018 0.89575 0.47253 0.0
C2125 C 0.27667 0.91731 0.47675 0.0
C2126 C 0.26709 0.90669 0.49758 0.0
C2127 C 0.23899 0.88669 0.51752 0.0
C2128 C 0.22055 0.87723 0.51652 0.0
C2129 C 0.24882 0.89616 0.49587 0.0
C2130 C 0.21212 0.87614 0.49283 0.0
C2131 C 0.22185 0.88527 0.47098 0.0
H2132 H 0.11207 0.35148 0.44068 0.0
H2133 H 0.0632 0.31371 0.47624 0.0
H2134 H 0.07915 0.30922 0.51127 0.0
H2135 H 0.10681 0.31688 0.53285 0.0
H2136 H 0.15579 0.35519 0.49839 0.0
H2137 H 0.13999 0.35794 0.46122 0.0
C2138 C 0.10491 0.34211 0.45592 0.0
C2139 C 0.08643 0.33312 0.45595 0.0
C2140 C 0.11418 0.33952 0.47604 0.0
C2141 C 0.07739 0.32113 0.47601 0.0
C2142 C 0.08651 0.31842 0.49594 0.0
C2143 C 0.11405 0.3258 0.51715 0.0
C2144 C 0.13245 0.33595 0.51854 0.0
C2145 C 0.10488 0.3277 0.49632 0.0
C2146 C 0.14164 0.34713 0.49776 0.0
C2147 C 0.13259 0.34886 0.47664 0.0
H2148 H 0.10102 0.32896 0.24662 0.0
H2149 H 0.09505 0.37112 0.21546 0.0
H2150 H 0.11557 0.37541 0.18071 0.0
H2151 H 0.13378 0.36609 0.1576 0.0
H2152 H 0.13958 0.32373 0.18793 0.0
H2153 H 0.12127 0.32122 0.2253 0.0
C2154 C 0.1044 0.33927 0.23248 0.0
C2155 C 0.09623 0.34951 0.23352 0.0
C2156 C 0.11634 0.34177 0.21254 0.0
C2157 C 0.10073 0.36272 0.21483 0.0
C2158 C 0.11262 0.36531 0.19506 0.0
C2159 C 0.13118 0.35642 0.17255 0.0
C2160 C 0.13789 0.345 0.16987 0.0
C2161 C 0.12026 0.35473 0.19349 0.0
C2162 C 0.13467 0.33275 0.1896 0.0
C2163 C 0.12402 0.33117 0.2108 0.0
H2164 H 0.69363 0.77569 0.2452 0.0
H2165 H 0.64962 0.72726 0.21784 0.0
H2166 H 0.6453 0.74272 0.18202 0.0
H2167 H 0.65442 0.76958 0.15765 0.0
H2168 H 0.69883 0.81814 0.18325 0.0
H2169 H 0.70219 0.8032 0.22119 0.0
C2170 C 0.68302 0.76857 0.2315 0.0
C2171 C 0.67211 0.75028 0.23404 0.0
C2172 C 0.68058 0.77758 0.21081 0.0
C2173 C 0.65846 0.74124 0.21604 0.0
C2174 C 0.65587 0.7501 0.19566 0.0
C2175 C 0.66486 0.77692 0.17154 0.0
C2176 C 0.67649 0.79489 0.1675 0.0
C2177 C 0.66695 0.76819 0.19273 0.0
C2178 C 0.68968 0.80431 0.18597 0.0
C2179 C 0.69168 0.79573 0.20751 0.0
H2180 H 0.25276 0.90081 0.24236 0.0
H2181 H 0.25647 0.94793 0.21098 0.0
H2182 H 0.23711 0.93117 0.17527 0.0
H2183 H 0.22041 0.90358 0.1517 0.0
H2184 H 0.21692 0.85634 0.18171 0.0
H2185 H 0.23434 0.87254 0.21978 0.0
C2186 C 0.24915 0.90737 0.22788 0.0
C2187 C 0.25628 0.92568 0.2292 0.0
C2188 C 0.23796 0.89761 0.20728 0.0
C2189 C 0.25152 0.93395 0.21016 0.0
C2190 C 0.24033 0.92435 0.18982 0.0
C2191 C 0.22339 0.89681 0.16666 0.0
C2192 C 0.21756 0.87884 0.16378 0.0
C2193 C 0.23371 0.90626 0.18798 0.0
C2194 C 0.22121 0.87015 0.18353 0.0
C2195 C 0.2313 0.87945 0.20515 0.0
H2196 H 0.68984 0.91398 0.24156 0.0
H2197 H 0.64823 0.921 0.2106 0.0
H2198 H 0.64288 0.89978 0.17643 0.0
H2199 H 0.65101 0.88049 0.15381 0.0
H2200 H 0.69257 0.8733 0.18409 0.0
H2201 H 0.69641 0.8927 0.22073 0.0
C2202 C 0.67944 0.9107 0.22757 0.0
C2203 C 0.66968 0.91938 0.22847 0.0
C2204 C 0.6763 0.89831 0.20799 0.0
C2205 C 0.6563 0.91496 0.21003 0.0
C2206 C 0.6531 0.90267 0.19059 0.0
C2207 C 0.66081 0.88306 0.16858 0.0
C2208 C 0.6716 0.87562 0.16615 0.0
C2209 C 0.66319 0.89449 0.18914 0.0
C2210 C 0.68404 0.8788 0.18562 0.0
C2211 C 0.68635 0.89003 0.2064 0.0
H2212 H 0.09226 0.77888 0.23362 0.0
H2213 H 0.0914 0.73108 0.21238 0.0
H2214 H 0.11255 0.74641 0.17799 0.0
H2215 H 0.13054 0.7729 0.15306 0.0
H2216 H 0.13136 0.82085 0.17253 0.0
H2217 H 0.11151 0.80614 0.20917 0.0
C2218 C 0.09681 0.77188 0.22156 0.0
C2219 C 0.09002 0.75377 0.22533 0.0
C2220 C 0.10908 0.78082 0.2017 0.0
C2221 C 0.09605 0.74489 0.20951 0.0
C2222 C 0.10827 0.75367 0.18998 0.0
C2223 C 0.12637 0.78016 0.16532 0.0
C2224 C 0.13223 0.79787 0.15993 0.0
C2225 C 0.11471 0.77155 0.18574 0.0
C2226 C 0.12707 0.80721 0.17634 0.0
C2227 C 0.11561 0.79876 0.19711 0.0
H2228 H 0.24402 0.30905 0.21822 0.0
H2229 H 0.24285 0.3498 0.26304 0.0
H2230 H 0.22273 0.35107 0.23168 0.0
H2231 H 0.20831 0.3431 0.1888 0.0
H2232 H 0.21047 0.30324 0.14321 0.0
H2233 H 0.22707 0.29891 0.17763 0.0
C2234 C 0.23927 0.31813 0.22117 0.0
C2235 C 0.24507 0.32942 0.2428 0.0
C2236 C 0.22783 0.31893 0.2029 0.0
C2237 C 0.23855 0.3409 0.24662 0.0
C2238 C 0.22709 0.3417 0.22862 0.0
C2239 C 0.21195 0.33309 0.18684 0.0
C2240 C 0.2082 0.32349 0.1636 0.0
C2241 C 0.22196 0.33107 0.20638 0.0
C2242 C 0.21322 0.31075 0.16102 0.0
C2243 C 0.22283 0.30838 0.18057 0.0
H2244 H 0.24468 0.34447 0.43432 0.0
H2245 H 0.29194 0.37227 0.47985 0.0
H2246 H 0.27526 0.37504 0.51562 0.0
H2247 H 0.24707 0.36715 0.53533 0.0
H2248 H 0.19931 0.33668 0.49173 0.0
H2249 H 0.21637 0.33815 0.45338 0.0
C2250 C 0.25132 0.35136 0.45194 0.0
C2251 C 0.26947 0.35805 0.4546 0.0
C2252 C 0.24156 0.35253 0.47267 0.0
C2253 C 0.27794 0.36684 0.47756 0.0
C2254 C 0.26843 0.36848 0.49793 0.0
C2255 C 0.24037 0.3609 0.51739 0.0
C2256 C 0.22191 0.35155 0.51659 0.0
C2257 C 0.25019 0.36099 0.49593 0.0
C2258 C 0.21348 0.344 0.49294 0.0
C2259 C 0.22324 0.34464 0.47108 0.0
H2260 H 0.68979 0.91723 0.43616 0.0
H2261 H 0.64998 0.92518 0.47168 0.0
H2262 H 0.64784 0.90642 0.50794 0.0
H2263 H 0.65813 0.889 0.5305 0.0
H2264 H 0.69897 0.88195 0.49693 0.0
H2265 H 0.69943 0.89858 0.45845 0.0
C2266 C 0.68053 0.91468 0.45173 0.0
C2267 C 0.67017 0.92271 0.45138 0.0
C2268 C 0.6795 0.90399 0.47274 0.0
C2269 C 0.6583 0.91939 0.47174 0.0
C2270 C 0.657 0.9086 0.49239 0.0
C2271 C 0.66718 0.89112 0.51478 0.0
C2272 C 0.67868 0.88447 0.51673 0.0
C2273 C 0.66771 0.90106 0.49326 0.0
C2274 C 0.68997 0.88691 0.49589 0.0
C2275 C 0.69033 0.89654 0.47401 0.0
H2276 H 0.09489 0.77525 0.44315 0.0
H2277 H 0.0993 0.73064 0.4662 0.0
H2278 H 0.11922 0.74771 0.50143 0.0
H2279 H 0.13437 0.77487 0.52676 0.0
H2280 H 0.13079 0.81991 0.5037 0.0
H2281 H 0.11185 0.80331 0.46703 0.0
C2282 C 0.10024 0.76934 0.45596 0.0
C2283 C 0.09556 0.7517 0.45232 0.0
C2284 C 0.11191 0.77933 0.47595 0.0
C2285 C 0.10275 0.7442 0.46869 0.0
C2286 C 0.11411 0.75394 0.48881 0.0
C2287 C 0.12957 0.78108 0.5135 0.0
C2288 C 0.13385 0.79851 0.51788 0.0
C2289 C 0.11867 0.77145 0.49272 0.0
C2290 C 0.12772 0.80652 0.50054 0.0
C2291 C 0.11678 0.79699 0.47976 0.0
H2292 H 0.3282 0.09938 0.77334 0.0
H2293 H 0.36533 0.08778 0.80979 0.0
H2294 H 0.36904 0.10747 0.84563 0.0
H2295 H 0.36102 0.12707 0.86741 0.0
H2296 H 0.323 0.13791 0.83236 0.0
H2297 H 0.32101 0.1201 0.79457 0.0
C2298 C 0.33723 0.1013 0.789 0.0
C2299 C 0.34634 0.09196 0.78899 0.0
C2300 C 0.3393 0.11266 0.80964 0.0
C2301 C 0.35789 0.09451 0.80955 0.0
C2302 C 0.36014 0.10589 0.82995 0.0
C2303 C 0.35227 0.12554 0.85152 0.0
C2304 C 0.34201 0.13365 0.85289 0.0
C2305 C 0.35077 0.11486 0.83034 0.0
C2306 C 0.33111 0.1319 0.83178 0.0
C2307 C 0.32983 0.12156 0.81029 0.0
H2308 H 0.92406 0.2297 0.77914 0.0
H2309 H 0.93038 0.27859 0.80765 0.0
H2310 H 0.90975 0.2632 0.84266 0.0
H2311 H 0.89038 0.23625 0.8655 0.0
H2312 H 0.88469 0.18715 0.83958 0.0
H2313 H 0.90409 0.20211 0.8026 0.0
C2314 C 0.92084 0.23692 0.79301 0.0
C2315 C 0.9289 0.2553 0.79097 0.0
C2316 C 0.90899 0.22796 0.81334 0.0
C2317 C 0.92464 0.26451 0.80908 0.0
C2318 C 0.91275 0.25571 0.82898 0.0
C2319 C 0.89349 0.22878 0.85195 0.0
C2320 C 0.88631 0.21064 0.85559 0.0
C2321 C 0.90497 0.2375 0.83139 0.0
C2322 C 0.89002 0.20112 0.83726 0.0
C2323 C 0.90122 0.2097 0.81625 0.0
H2324 H 0.7736 0.66687 0.76683 0.0
H2325 H 0.76183 0.70221 0.80871 0.0
H2326 H 0.78069 0.70352 0.8443 0.0
H2327 H 0.79891 0.69308 0.8649 0.0
H2328 H 0.81108 0.65821 0.8229 0.0
H2329 H 0.79445 0.65907 0.78539 0.0
C2330 C 0.77539 0.67518 0.78343 0.0
C2331 C 0.76597 0.6842 0.78507 0.0
C2332 C 0.78652 0.67613 0.80374 0.0
C2333 C 0.76843 0.6947 0.80707 0.0
C2334 C 0.77939 0.69562 0.82739 0.0
C2335 C 0.79814 0.6859 0.84735 0.0
C2336 C 0.80611 0.6755 0.84673 0.0
C2337 C 0.78824 0.68615 0.82613 0.0
C2338 C 0.80519 0.66642 0.8238 0.0
C2339 C 0.79549 0.66674 0.80248 0.0
H2340 H 0.775 0.66995 0.58318 0.0
H2341 H 0.72847 0.64392 0.53556 0.0
H2342 H 0.74586 0.64298 0.49935 0.0
H2343 H 0.77452 0.65193 0.48008 0.0
H2344 H 0.82127 0.67917 0.52687 0.0
H2345 H 0.80345 0.67648 0.56491 0.0
C2346 C 0.76859 0.66375 0.56506 0.0
C2347 C 0.75046 0.6572 0.56201 0.0
C2348 C 0.77871 0.66338 0.54422 0.0
C2349 C 0.74244 0.64937 0.53828 0.0
C2350 C 0.75236 0.64874 0.51761 0.0
C2351 C 0.7808 0.65711 0.49869 0.0
C2352 C 0.79921 0.66594 0.50055 0.0
C2353 C 0.77054 0.65609 0.52017 0.0
C2354 C 0.80713 0.67225 0.52491 0.0
C2355 C 0.79696 0.6709 0.54659 0.0
H2356 H 0.33149 0.10075 0.57917 0.0
H2357 H 0.36461 0.08635 0.53678 0.0
H2358 H 0.36505 0.10386 0.4998 0.0
H2359 H 0.35524 0.1222 0.47894 0.0
H2360 H 0.32086 0.13569 0.51956 0.0
H2361 H 0.32215 0.12008 0.5582 0.0
C2362 C 0.33893 0.10162 0.5619 0.0
C2363 C 0.34792 0.09218 0.56061 0.0
C2364 C 0.33895 0.11157 0.54052 0.0
C2365 C 0.3574 0.09329 0.53808 0.0
C2366 C 0.35773 0.10336 0.517 0.0
C2367 C 0.34792 0.12165 0.49619 0.0
C2368 C 0.33773 0.12986 0.49622 0.0
C2369 C 0.34837 0.11233 0.51789 0.0
C2370 C 0.32879 0.12949 0.51901 0.0
C2371 C 0.32944 0.12046 0.54102 0.0
H2372 H 0.90653 0.24479 0.57778 0.0
H2373 H 0.95551 0.25188 0.54821 0.0
H2374 H 0.93999 0.23145 0.51295 0.0
H2375 H 0.91281 0.21277 0.48914 0.0
H2376 H 0.86376 0.20558 0.51812 0.0
H2377 H 0.87892 0.22417 0.55567 0.0
C2378 C 0.91381 0.2417 0.56387 0.0
C2379 C 0.93225 0.25015 0.56553 0.0
C2380 C 0.90477 0.22975 0.54367 0.0
C2381 C 0.9414 0.246 0.54711 0.0
C2382 C 0.93252 0.23416 0.52704 0.0
C2383 C 0.90542 0.21516 0.50381 0.0
C2384 C 0.88722 0.20794 0.50073 0.0
C2385 C 0.91426 0.22617 0.52492 0.0
C2386 C 0.87776 0.21089 0.52011 0.0
C2387 C 0.88646 0.22168 0.54142 0.0
H2388 H 0.37368 0.2696 0.55178 0.0
H2389 H 0.32539 0.22969 0.58619 0.0
H2390 H 0.32376 0.2084 0.55456 0.0
H2391 H 0.33418 0.20182 0.51417 0.0
H2392 H 0.38092 0.24214 0.47743 0.0
H2393 H 0.38514 0.26247 0.51289 0.0
C2394 C 0.36279 0.25625 0.55237 0.0
C2395 C 0.34966 0.25136 0.57137 0.0
C2396 C 0.36168 0.24409 0.53368 0.0
C2397 C 0.33582 0.23387 0.57205 0.0
C2398 C 0.3348 0.22165 0.55383 0.0
C2399 C 0.34557 0.21489 0.51444 0.0
C2400 C 0.35735 0.22048 0.49352 0.0
C2401 C 0.34746 0.22668 0.53427 0.0
C2402 C 0.37183 0.23757 0.49359 0.0
C2403 C 0.37412 0.24921 0.51369 0.0
H2404 H 0.77148 0.10539 0.57835 0.0
H2405 H 0.72579 0.08533 0.52913 0.0
H2406 H 0.74377 0.10394 0.49349 0.0
H2407 H 0.77265 0.12398 0.47535 0.0
H2408 H 0.81882 0.14216 0.52314 0.0
H2409 H 0.80044 0.12694 0.56064 0.0
C2410 C 0.76546 0.10532 0.55993 0.0
C2411 C 0.74736 0.09392 0.55627 0.0
C2412 C 0.77596 0.11581 0.53934 0.0
C2413 C 0.73973 0.09383 0.53226 0.0
C2414 C 0.74999 0.10451 0.51194 0.0
C2415 C 0.77872 0.12468 0.49398 0.0
C2416 C 0.79713 0.134 0.49626 0.0
C2417 C 0.76815 0.11524 0.51509 0.0
C2418 C 0.80471 0.13517 0.52078 0.0
C2419 C 0.7942 0.12628 0.54218 0.0
H2420 H 0.90659 0.65853 0.5766 0.0
H2421 H 0.95569 0.69761 0.54316 0.0
H2422 H 0.94 0.70334 0.50915 0.0
H2423 H 0.91258 0.69625 0.4875 0.0
H2424 H 0.86331 0.65665 0.51944 0.0
H2425 H 0.87876 0.6527 0.55613 0.0
C2426 C 0.91384 0.66843 0.56203 0.0
C2427 C 0.93231 0.67742 0.56222 0.0
C2428 C 0.90471 0.6717 0.54243 0.0
C2429 C 0.94149 0.69017 0.54313 0.0
C2430 C 0.93254 0.69359 0.52379 0.0
C2431 C 0.90521 0.68682 0.50259 0.0
C2432 C 0.88686 0.67661 0.50062 0.0
C2433 C 0.91418 0.68426 0.52303 0.0
C2434 C 0.87744 0.66472 0.52058 0.0
C2435 C 0.88629 0.66233 0.54138 0.0
H2436 H 0.90911 0.65418 0.77151 0.0
H2437 H 0.95426 0.69946 0.80396 0.0
H2438 H 0.93619 0.70092 0.83865 0.0
H2439 H 0.90802 0.68864 0.8609 0.0
H2440 H 0.86263 0.64322 0.82959 0.0
H2441 H 0.8802 0.64266 0.79295 0.0
C2442 C 0.91495 0.66431 0.78625 0.0
C2443 C 0.93301 0.67665 0.78527 0.0
C2444 C 0.90443 0.66512 0.80616 0.0
C2445 C 0.94039 0.68989 0.80422 0.0
C2446 C 0.93008 0.69071 0.82408 0.0
C2447 C 0.90196 0.67869 0.84592 0.0
C2448 C 0.88413 0.6659 0.84797 0.0
C2449 C 0.91215 0.67833 0.82535 0.0
C2450 C 0.87632 0.65323 0.82832 0.0
C2451 C 0.88641 0.65283 0.80755 0.0
H2452 H 0.33739 0.23798 0.7681 0.0
H2453 H 0.31019 0.25892 0.81159 0.0
H2454 H 0.30754 0.24042 0.84858 0.0
H2455 H 0.31513 0.22026 0.86975 0.0
H2456 H 0.34397 0.20068 0.82734 0.0
H2457 H 0.34305 0.21601 0.78835 0.0
C2458 C 0.3306 0.23825 0.7855 0.0
C2459 C 0.32414 0.24993 0.78719 0.0
C2460 C 0.32933 0.22774 0.80683 0.0
C2461 C 0.31553 0.25026 0.80998 0.0
C2462 C 0.31394 0.23963 0.83108 0.0
C2463 C 0.32113 0.21926 0.85192 0.0
C2464 C 0.32981 0.20952 0.8516 0.0
C2465 C 0.32116 0.22864 0.82993 0.0
C2466 C 0.33712 0.208 0.82815 0.0
C2467 C 0.33679 0.21694 0.80592 0.0
H2468 H 0.77977 0.10028 0.76684 0.0
H2469 H 0.73018 0.08954 0.79909 0.0
H2470 H 0.74528 0.10948 0.8351 0.0
H2471 H 0.77224 0.12831 0.85898 0.0
H2472 H 0.82192 0.13812 0.82863 0.0
H2473 H 0.80723 0.12088 0.78977 0.0
C2474 C 0.77232 0.10248 0.78162 0.0
C2475 C 0.75386 0.09321 0.78051 0.0
C2476 C 0.7811 0.11391 0.80248 0.0
C2477 C 0.74437 0.09618 0.7998 0.0
C2478 C 0.75299 0.10768 0.8203 0.0
C2479 C 0.77988 0.12676 0.84379 0.0
C2480 C 0.79811 0.13429 0.84686 0.0
C2481 C 0.7713 0.11634 0.82209 0.0
C2482 C 0.80788 0.13252 0.82672 0.0
C2483 C 0.79945 0.12249 0.80464 0.0
H2484 H 0.07916 0.3297 0.03378 0.0
H2485 H 0.10806 0.38628 0.03389 0.0
H2486 H 0.13369 0.38615 0.0513 0.0
H2487 H 0.14623 0.37005 0.07289 0.0
H2488 H 0.11745 0.3137 0.07342 0.0
H2489 H 0.09377 0.3136 0.04832 0.0
C2490 C 0.09119 0.34202 0.0369 0.0
C2491 C 0.09143 0.35798 0.03312 0.0
C2492 C 0.10599 0.34188 0.04691 0.0
C2493 C 0.10722 0.37378 0.0374 0.0
C2494 C 0.12198 0.37374 0.04718 0.0
C2495 C 0.13513 0.35779 0.06638 0.0
C2496 C 0.13363 0.34191 0.07456 0.0
C2497 C 0.12131 0.35789 0.05289 0.0
C2498 C 0.119 0.32605 0.06678 0.0
C2499 C 0.10534 0.32602 0.05284 0.0
H2500 H 0.64586 0.73646 0.02104 0.0
H2501 H 0.69773 0.74604 0.0401 0.0
H2502 H 0.70499 0.77386 0.05948 0.0
H2503 H 0.69539 0.79321 0.07748 0.0
H2504 H 0.64282 0.78263 0.06377 0.0
H2505 H 0.63714 0.75778 0.03565 0.0
C2506 C 0.65878 0.74464 0.02932 0.0
C2507 C 0.67113 0.73889 0.02902 0.0
C2508 C 0.66277 0.76055 0.04151 0.0
C2509 C 0.68794 0.74999 0.03946 0.0
C2510 C 0.69212 0.76596 0.05087 0.0
C2511 C 0.68289 0.7858 0.06756 0.0
C2512 C 0.66955 0.78969 0.07255 0.0
C2513 C 0.67949 0.77108 0.05275 0.0
C2514 C 0.65334 0.77997 0.0599 0.0
C2515 C 0.65003 0.76561 0.04421 0.0
H2516 H 0.26255 0.93563 0.02907 0.0
H2517 H 0.29033 0.9069 0.02996 0.0
H2518 H 0.26431 0.88116 0.04659 0.0
H2519 H 0.23531 0.86846 0.06732 0.0
H2520 H 0.20778 0.89723 0.06702 0.0
H2521 H 0.23167 0.92095 0.04252 0.0
C2522 C 0.26284 0.92363 0.03213 0.0
C2523 C 0.27865 0.92347 0.02881 0.0
C2524 C 0.24774 0.90876 0.04164 0.0
C2525 C 0.27861 0.90769 0.03312 0.0
C2526 C 0.26365 0.89286 0.04244 0.0
C2527 C 0.23422 0.87956 0.06071 0.0
C2528 C 0.21974 0.88103 0.0685 0.0
C2529 C 0.24835 0.89344 0.04764 0.0
C2530 C 0.21863 0.89568 0.06065 0.0
C2531 C 0.23245 0.90937 0.04708 0.0
H2532 H 0.33037 0.08127 0.99646 0.0
H2533 H 0.38539 0.10476 0.97906 0.0
H2534 H 0.3857 0.13061 0.96139 0.0
H2535 H 0.36921 0.14375 0.94367 0.0
H2536 H 0.31366 0.11917 0.95666 0.0
H2537 H 0.31458 0.09686 0.984 0.0
C2538 C 0.34247 0.09231 0.98945 0.0
C2539 C 0.35782 0.09119 0.98884 0.0
C2540 C 0.34238 0.1069 0.9785 0.0
C2541 C 0.37344 0.1054 0.97952 0.0
C2542 C 0.3736 0.12014 0.96941 0.0
C2543 C 0.35749 0.13395 0.95353 0.0
C2544 C 0.34144 0.13314 0.94856 0.0
C2545 C 0.35801 0.1207 0.96783 0.0
C2546 C 0.32619 0.12018 0.96072 0.0
C2547 C 0.3267 0.10728 0.97595 0.0
H2548 H 0.92692 0.258 0.00097 0.0
H2549 H 0.91314 0.29247 0.96137 0.0
H2550 H 0.88725 0.26732 0.94285 0.0
H2551 H 0.87181 0.23615 0.93167 0.0
H2552 H 0.88672 0.20164 0.96788 0.0
H2553 H 0.90835 0.22587 0.99475 0.0
C2554 C 0.91797 0.25993 0.98882 0.0
C2555 C 0.92207 0.27705 0.98217 0.0
C2556 C 0.90326 0.24534 0.97768 0.0
C2557 C 0.91041 0.27941 0.96636 0.0
C2558 C 0.89558 0.26504 0.95583 0.0
C2559 C 0.87922 0.23382 0.94639 0.0
C2560 C 0.87758 0.21716 0.94811 0.0
C2561 C 0.89228 0.248 0.96051 0.0
C2562 C 0.88754 0.21429 0.96666 0.0
C2563 C 0.90014 0.22824 0.98163 0.0
H2564 H 0.73488 0.62845 0.97228 0.0
H2565 H 0.75504 0.68268 0.99251 0.0
H2566 H 0.78389 0.6901 0.97587 0.0
H2567 H 0.80185 0.6819 0.94924 0.0
H2568 H 0.78173 0.62794 0.92808 0.0
H2569 H 0.75458 0.61952 0.95191 0.0
C2570 C 0.7457 0.64182 0.97342 0.0
C2571 C 0.7428 0.65504 0.98331 0.0
C2572 C 0.76227 0.646 0.96369 0.0
C2573 C 0.75695 0.67228 0.98502 0.0
C2574 C 0.77343 0.67654 0.97539 0.0
C2575 C 0.7918 0.66822 0.9509 0.0
C2576 C 0.79377 0.65549 0.93731 0.0
C2577 C 0.77608 0.66362 0.96392 0.0
C2578 C 0.78057 0.63785 0.9389 0.0
C2579 C 0.76496 0.63311 0.95215 0.0
H2580 H 0.93644 0.67967 0.99171 0.0
H2581 H 0.91284 0.62372 0.98194 0.0
H2582 H 0.88706 0.62233 0.96234 0.0
H2583 H 0.87343 0.63753 0.9414 0.0
H2584 H 0.89747 0.69349 0.94833 0.0
H2585 H 0.92058 0.69439 0.97598 0.0
C2586 C 0.92556 0.66715 0.98558 0.0
C2587 C 0.92672 0.65185 0.98816 0.0
C2588 C 0.91078 0.66646 0.97382 0.0
C2589 C 0.91234 0.6357 0.98045 0.0
C2590 C 0.89758 0.63489 0.96904 0.0
C2591 C 0.88331 0.64978 0.95001 0.0
C2592 C 0.88366 0.66538 0.9433 0.0
C2593 C 0.8969 0.65023 0.96486 0.0
C2594 C 0.89676 0.6813 0.95381 0.0
C2595 C 0.91013 0.68182 0.96921 0.0
H2596 H 0.34134 0.2622 -0.00094 0.0
H2597 H 0.39026 0.29648 0.96057 0.0
H2598 H 0.38959 0.27143 0.93946 0.0
H2599 H 0.37289 0.24046 0.92667 0.0
H2600 H 0.32359 0.20607 0.96359 0.0
H2601 H 0.32672 0.23026 0.99097 0.0
C2602 C 0.35195 0.26412 0.98634 0.0
C2603 C 0.36575 0.28123 0.98126 0.0
C2604 C 0.35142 0.2496 0.97399 0.0
C2605 C 0.37954 0.28349 0.96498 0.0
C2606 C 0.37913 0.26916 0.95275 0.0
C2607 C 0.36323 0.23817 0.94151 0.0
C2608 C 0.34814 0.22156 0.94342 0.0
C2609 C 0.36488 0.25224 0.95648 0.0
C2610 C 0.33546 0.21871 0.96221 0.0
C2611 C 0.33713 0.2326 0.97754 0.0
H2612 H 0.75399 0.07521 0.98719 0.0
H2613 H 0.72147 0.09795 0.97169 0.0
H2614 H 0.7466 0.1241 0.95439 0.0
H2615 H 0.77657 0.13856 0.93742 0.0
H2616 H 0.80888 0.11543 0.94961 0.0
H2617 H 0.78536 0.09165 0.97481 0.0
C2618 C 0.75244 0.08595 0.98023 0.0
C2619 C 0.73573 0.08444 0.98065 0.0
C2620 C 0.76699 0.10096 0.96974 0.0
C2621 C 0.7341 0.09868 0.97192 0.0
C2622 C 0.74849 0.11366 0.96182 0.0
C2623 C 0.77868 0.12869 0.94659 0.0
C2624 C 0.79446 0.12883 0.94209 0.0
C2625 C 0.76485 0.11473 0.95994 0.0
C2626 C 0.79696 0.11576 0.95337 0.0
C2627 C 0.78339 0.10202 0.96735 0.0
H2628 H 0.6819 0.92784 0.02387 0.0
H2629 H 0.62574 0.90079 0.03339 0.0
H2630 H 0.62629 0.87568 0.05212 0.0
H2631 H 0.64317 0.8637 0.07252 0.0
H2632 H 0.69935 0.89121 0.06573 0.0
H2633 H 0.69841 0.91351 0.03844 0.0
C2634 C 0.66975 0.91625 0.02941 0.0
C2635 C 0.65384 0.91632 0.02769 0.0
C2636 C 0.6702 0.90191 0.04064 0.0
C2637 C 0.6382 0.90122 0.03503 0.0
C2638 C 0.63849 0.88682 0.04567 0.0
C2639 C 0.6551 0.87416 0.064 0.0
C2640 C 0.67127 0.87573 0.07066 0.0
C2641 C 0.65447 0.8873 0.04948 0.0
C2642 C 0.68674 0.88958 0.06029 0.0
C2643 C 0.6862 0.90247 0.04509 0.0
H2644 H 0.08889 0.75148 0.01375 0.0
H2645 H 0.10614 0.71692 0.04346 0.0
H2646 H 0.13146 0.74166 0.06377 0.0
H2647 H 0.14588 0.77217 0.07904 0.0
H2648 H 0.12842 0.80675 0.05077 0.0
H2649 H 0.10638 0.78323 0.02343 0.0
C2650 C 0.09836 0.74945 0.02433 0.0
C2651 C 0.0955 0.73232 0.02728 0.0
C2652 C 0.11292 0.76379 0.03616 0.0
C2653 C 0.10802 0.72992 0.04077 0.0
C2654 C 0.12249 0.74408 0.05252 0.0
C2655 C 0.13778 0.77472 0.06592 0.0
C2656 C 0.13888 0.79118 0.06657 0.0
C2657 C 0.12476 0.76096 0.05106 0.0
C2658 C 0.12803 0.79429 0.0501 0.0
C2659 C 0.11522 0.78073 0.03486 0.0
H2660 H 0.26497 0.34503 0.01936 0.0
H2661 H 0.29868 0.38861 0.06888 0.0
H2662 H 0.27318 0.38727 0.08957 0.0
H2663 H 0.24159 0.37093 0.09817 0.0
H2664 H 0.20767 0.32652 0.0506 0.0
H2665 H 0.23275 0.33129 0.02391 0.0
C2666 C 0.26671 0.35447 0.03425 0.0
C2667 C 0.28373 0.36666 0.04294 0.0
C2668 C 0.2519 0.3535 0.04634 0.0
C2669 C 0.28574 0.37881 0.06229 0.0
C2670 C 0.27116 0.37812 0.07404 0.0
C2671 C 0.23965 0.36279 0.08125 0.0
C2672 C 0.22287 0.34856 0.07604 0.0
C2673 C 0.25421 0.36516 0.06686 0.0
C2674 C 0.22045 0.33777 0.05455 0.0
C2675 C 0.23484 0.34033 0.03961 0.0
H2676 H 0.76114 0.68517 0.35917 0.0
H2677 H 0.77251 0.72967 0.4075 0.0
H2678 H 0.79772 0.72919 0.42602 0.0
H2679 H 0.81328 0.71308 0.43382 0.0
H2680 H 0.80139 0.66793 0.3872 0.0
H2681 H 0.78021 0.67212 0.36185 0.0
C2682 C 0.76941 0.69505 0.37323 0.0
C2683 C 0.76465 0.70718 0.38237 0.0
C2684 C 0.78387 0.69461 0.38404 0.0
C2685 C 0.77555 0.71988 0.40064 0.0
C2686 C 0.79005 0.71969 0.41115 0.0
C2687 C 0.8066 0.70468 0.41731 0.0
C2688 C 0.80892 0.69032 0.41218 0.0
C2689 C 0.79391 0.70671 0.40374 0.0
C2690 C 0.8 0.67924 0.39116 0.0
C2691 C 0.78767 0.68146 0.37701 0.0
H2692 H 0.34546 0.08432 0.35998 0.0
H2693 H 0.28907 0.0545 0.36748 0.0
H2694 H 0.28905 0.0802 0.38463 0.0
H2695 H 0.30544 0.10976 0.4037 0.0
H2696 H 0.36153 0.13963 0.3958 0.0
H2697 H 0.36118 0.11564 0.37133 0.0
C2698 C 0.33306 0.08345 0.3646 0.0
C2699 C 0.31734 0.06716 0.36306 0.0
C2700 C 0.33307 0.09843 0.37418 0.0
C2701 C 0.30149 0.06656 0.36934 0.0
C2702 C 0.30141 0.08135 0.37892 0.0
C2703 C 0.31745 0.1113 0.39544 0.0
C2704 C 0.33346 0.12649 0.40117 0.0
C2705 C 0.31717 0.09718 0.38227 0.0
C2706 C 0.34903 0.12821 0.39108 0.0
C2707 C 0.34884 0.11434 0.37755 0.0
H2708 H 0.92988 0.26323 0.35998 0.0
H2709 H 0.95844 0.23535 0.36369 0.0
H2710 H 0.93306 0.21018 0.38291 0.0
H2711 H 0.90459 0.19808 0.40499 0.0
H2712 H 0.87625 0.22602 0.40224 0.0
H2713 H 0.89935 0.24886 0.37541 0.0
C2714 C 0.93043 0.25148 0.36427 0.0
C2715 C 0.94626 0.25141 0.3609 0.0
C2716 C 0.91574 0.237 0.37544 0.0
C2717 C 0.94664 0.23602 0.36674 0.0
C2718 C 0.93207 0.22154 0.37761 0.0
C2719 C 0.90316 0.20879 0.39746 0.0
C2720 C 0.88871 0.21032 0.40514 0.0
C2721 C 0.9168 0.22214 0.38293 0.0
C2722 C 0.88713 0.22445 0.39602 0.0
C2723 C 0.90047 0.23763 0.38106 0.0
H2724 H 0.0367 0.4358 0.33495 0.0
H2725 H 0.98571 0.39309 0.31331 0.0
H2726 H 0.97863 0.41352 0.29261 0.0
H2727 H 0.98865 0.44262 0.27428 0.0
H2728 H 0.04007 0.48526 0.29307 0.0
H2729 H 0.04511 0.46599 0.32169 0.0
C2730 C 0.02397 0.431 0.32598 0.0
C2731 C 0.01185 0.41285 0.32556 0.0
C2732 C 0.02004 0.44286 0.31356 0.0
C2733 C 0.99528 0.40693 0.3142 0.0
C2734 C 0.99123 0.41862 0.30214 0.0
C2735 C 1.00068 0.44782 0.28547 0.0
C2736 C 0.01397 0.46528 0.28165 0.0
C2737 C 1.00372 0.4365 0.30092 0.0
C2738 C 0.02958 0.4719 0.29598 0.0
C2739 C 0.03256 0.4608 0.31198 0.0
H2740 H 0.58055 0.60371 0.3363 0.0
H2741 H 0.62357 0.59682 0.31189 0.0
H2742 H 0.60316 0.56932 0.29085 0.0
H2743 H 0.57388 0.54995 0.27308 0.0
H2744 H 0.53098 0.55766 0.29411 0.0
H2745 H 0.55032 0.58171 0.32324 0.0
C2746 C 0.58544 0.59609 0.32661 0.0
C2747 C 0.60365 0.6025 0.32556 0.0
C2748 C 0.57359 0.58036 0.31393 0.0
C2749 C 0.60968 0.59225 0.31329 0.0
C2750 C 0.598 0.57652 0.30105 0.0
C2751 C 0.56865 0.55648 0.28486 0.0
C2752 C 0.55108 0.5521 0.28151 0.0
C2753 C 0.58002 0.57077 0.30048 0.0
C2754 C 0.54442 0.56069 0.29662 0.0
C2755 C 0.55557 0.57464 0.31291 0.0
H2756 H 0.40588 0.97051 0.31659 0.0
H2757 H 0.42114 0.02531 0.3148 0.0
H2758 H 0.44932 0.03256 0.29638 0.0
H2759 H 0.46767 0.02304 0.27434 0.0
H2760 H 0.45201 0.96835 0.27239 0.0
H2761 H 0.42624 0.96137 0.29908 0.0
C2762 C 0.41543 0.98405 0.31237 0.0
C2763 C 0.41122 0.99729 0.31697 0.0
C2764 C 0.43161 0.98816 0.30109 0.0
C2765 C 0.42395 0.01481 0.31179 0.0
C2766 C 0.4401 0.01901 0.30104 0.0
C2767 C 0.45893 0.00968 0.28065 0.0
C2768 C 0.46169 0.99622 0.27162 0.0
C2769 C 0.44383 0.00576 0.29485 0.0
C2770 C 0.45024 0.97893 0.27949 0.0
C2771 C 0.43537 0.97493 0.29436 0.0
H2772 H 0.6021 0.01127 0.314 0.0
H2773 H 0.57538 0.95485 0.30925 0.0
H2774 H 0.54952 0.95432 0.29131 0.0
H2775 H 0.5365 0.9701 0.27035 0.0
H2776 H 0.56334 0.02639 0.27324 0.0
H2777 H 0.58683 0.02683 0.29937 0.0
C2778 C 0.59046 0.99884 0.30969 0.0
C2779 C 0.59085 0.98315 0.31243 0.0
C2780 C 0.57561 0.99863 0.29908 0.0
C2781 C 0.57562 0.96716 0.30669 0.0
C2782 C 0.56077 0.96683 0.29654 0.0
C2783 C 0.54712 0.98238 0.27777 0.0
C2784 C 0.54814 0.99817 0.27031 0.0
C2785 C 0.56087 0.9825 0.29175 0.0
C2786 C 0.56215 0.01408 0.2793 0.0
C2787 C 0.57571 0.01432 0.29383 0.0
H2788 H 0.01531 0.59611 0.32933 0.0
H2789 H 0.06623 0.63134 0.29695 0.0
H2790 H 0.06773 0.60661 0.27875 0.0
H2791 H 0.05236 0.57575 0.26548 0.0
H2792 H 1.00106 0.54047 0.29593 0.0
H2793 H 1.00216 0.56417 0.32228 0.0
C2794 C 0.02693 0.59832 0.3189 0.0
C2795 C 0.04044 0.6156 0.31395 0.0
C2796 C 0.02764 0.58397 0.30816 0.0
C2797 C 0.05543 0.61822 0.30042 0.0
C2798 C 0.05635 0.60407 0.2901 0.0
C2799 C 0.04181 0.57312 0.27886 0.0
C2800 C 0.02672 0.55643 0.279 0.0
C2801 C 0.04224 0.58698 0.29293 0.0
C2802 C 0.01293 0.55316 0.2959 0.0
C2803 C 0.01344 0.56681 0.31058 0.0
H2804 H 0.41816 0.42355 0.32499 0.0
H2805 H 0.38296 0.43605 0.28448 0.0
H2806 H 0.40782 0.46243 0.26681 0.0
H2807 H 0.43923 0.47918 0.25727 0.0
H2808 H 0.47459 0.46602 0.29521 0.0
H2809 H 0.45023 0.44326 0.32046 0.0
C2810 C 0.41595 0.43226 0.31278 0.0
C2811 C 0.39869 0.42758 0.3056 0.0
C2812 C 0.43039 0.4474 0.30237 0.0
C2813 C 0.39608 0.43905 0.28974 0.0
C2814 C 0.4103 0.45423 0.27977 0.0
C2815 C 0.44166 0.47182 0.27195 0.0
C2816 C 0.45864 0.4743 0.27457 0.0
C2817 C 0.42748 0.45819 0.2852 0.0
C2818 C 0.46168 0.46453 0.29322 0.0
C2819 C 0.44767 0.45128 0.30725 0.0
H2820 H 0.3071 0.24327 0.36618 0.0
H2821 H 0.36165 0.28338 0.36135 0.0
H2822 H 0.37031 0.26283 0.37699 0.0
H2823 H 0.36245 0.23507 0.39835 0.0
H2824 H 0.30819 0.19541 0.40641 0.0
H2825 H 0.29935 0.2139 0.38276 0.0
C2826 C 0.32088 0.24747 0.36834 0.0
C2827 C 0.33366 0.26499 0.36275 0.0
C2828 C 0.32583 0.23561 0.37793 0.0
C2829 C 0.35148 0.27004 0.36523 0.0
C2830 C 0.35648 0.25829 0.37437 0.0
C2831 C 0.34872 0.23026 0.39407 0.0
C2832 C 0.33598 0.21393 0.40402 0.0
C2833 C 0.34378 0.24125 0.38153 0.0
C2834 C 0.31822 0.20783 0.39864 0.0
C2835 C 0.31319 0.21854 0.3855 0.0
H2836 H 0.77237 0.06372 0.36903 0.0
H2837 H 0.74134 0.0872 0.34795 0.0
H2838 H 0.76369 0.11517 0.36589 0.0
H2839 H 0.78967 0.13154 0.39362 0.0
H2840 H 0.82041 0.10812 0.41564 0.0
H2841 H 0.801 0.0818 0.3904 0.0
C2842 C 0.77069 0.07505 0.36767 0.0
C2843 C 0.75494 0.07318 0.35766 0.0
C2844 C 0.78363 0.09117 0.37814 0.0
C2845 C 0.75305 0.08808 0.35622 0.0
C2846 C 0.7659 0.10414 0.36633 0.0
C2847 C 0.79252 0.12095 0.39186 0.0
C2848 C 0.80652 0.12177 0.40605 0.0
C2849 C 0.78092 0.10566 0.37818 0.0
C2850 C 0.8099 0.10786 0.40435 0.0
C2851 C 0.79863 0.09272 0.39029 0.0
H2852 H 0.94177 0.70194 0.35587 0.0
H2853 H 0.93336 0.65068 0.37521 0.0
H2854 H 0.90496 0.64267 0.39386 0.0
H2855 H 0.88504 0.65192 0.41145 0.0
H2856 H 0.89396 0.70357 0.39493 0.0
H2857 H 0.91924 0.70959 0.36785 0.0
C2858 C 0.93361 0.68894 0.36388 0.0
C2859 C 0.93986 0.67702 0.36438 0.0
C2860 C 0.91731 0.68448 0.37505 0.0
C2861 C 0.92894 0.66012 0.3744 0.0
C2862 C 0.91269 0.65553 0.38524 0.0
C2863 C 0.8921 0.6642 0.40096 0.0
C2864 C 0.88767 0.67727 0.40504 0.0
C2865 C 0.90704 0.6678 0.3865 0.0
C2866 C 0.897 0.69324 0.39174 0.0
C2867 C 0.91164 0.69677 0.37666 0.0
H2868 H 0.40998 0.99619 0.69915 0.0
H2869 H 0.44051 0.05266 0.69734 0.0
H2870 H 0.46573 0.05181 0.71505 0.0
H2871 H 0.47745 0.03532 0.73762 0.0
H2872 H 0.44676 0.9791 0.74121 0.0
H2873 H 0.42357 0.97944 0.71534 0.0
C2874 C 0.42228 0.00829 0.70196 0.0
C2875 C 0.42317 0.02448 0.69744 0.0
C2876 C 0.43678 0.00773 0.7124 0.0
C2877 C 0.43926 0.04002 0.7013 0.0
C2878 C 0.45376 0.03956 0.7113 0.0
C2879 C 0.46603 0.02313 0.73161 0.0
C2880 C 0.46389 0.00719 0.74081 0.0
C2881 C 0.45247 0.02354 0.71781 0.0
C2882 C 0.44882 0.99147 0.73375 0.0
C2883 C 0.43545 0.99171 0.71937 0.0
H2884 H 1.00407 0.4133 0.68572 0.0
H2885 H 0.9534 0.37891 0.7195 0.0
H2886 H 0.95268 0.404 0.73793 0.0
H2887 H 0.96866 0.43495 0.75077 0.0
H2888 H 0.01984 0.46934 0.71923 0.0
H2889 H 0.01792 0.4453 0.69276 0.0
C2890 C 0.99268 0.41135 0.69652 0.0
C2891 C 0.97899 0.39419 0.7017 0.0
C2892 C 0.99243 0.42591 0.70742 0.0
C2893 C 0.96432 0.39192 0.71578 0.0
C2894 C 0.96385 0.40628 0.72624 0.0
C2895 C 0.97899 0.43733 0.73711 0.0
C2896 C 0.99426 0.45388 0.73662 0.0
C2897 C 0.97812 0.42325 0.72305 0.0
C2898 C 1.00782 0.45678 0.71946 0.0
C2899 C 1.00684 0.44294 0.70473 0.0
H2900 H 0.60963 0.58008 0.68832 0.0
H2901 H 0.60009 0.62215 0.70797 0.0
H2902 H 0.57141 0.60113 0.72534 0.0
H2903 H 0.55127 0.5715 0.74134 0.0
H2904 H 0.56107 0.52944 0.72392 0.0
H2905 H 0.58703 0.54952 0.69865 0.0
C2906 C 0.60116 0.5846 0.69612 0.0
C2907 C 0.60714 0.60272 0.69708 0.0
C2908 C 0.58466 0.5724 0.7064 0.0
C2909 C 0.59587 0.60833 0.70686 0.0
C2910 C 0.57946 0.5963 0.71693 0.0
C2911 C 0.55871 0.56662 0.73105 0.0
C2912 C 0.55428 0.54904 0.73436 0.0
C2913 C 0.57397 0.57839 0.71756 0.0
C2914 C 0.56409 0.54286 0.72131 0.0
C2915 C 0.57912 0.55443 0.70728 0.0
H2916 H 0.68604 0.76067 0.6659 0.0
H2917 H 0.72768 0.76785 0.61413 0.0
H2918 H 0.72703 0.79218 0.5933 0.0
H2919 H 0.71173 0.80839 0.58509 0.0
H2920 H 0.66862 0.80013 0.63382 0.0
H2921 H 0.67292 0.77963 0.6608 0.0
C2922 C 0.69506 0.76764 0.6502 0.0
C2923 C 0.70683 0.76224 0.64162 0.0
C2924 C 0.69437 0.78153 0.63774 0.0
C2925 C 0.71861 0.7717 0.62149 0.0
C2926 C 0.71818 0.78562 0.60936 0.0
C2927 C 0.70375 0.80261 0.60226 0.0
C2928 C 0.69 0.80583 0.60767 0.0
C2929 C 0.7058 0.79029 0.61679 0.0
C2930 C 0.67948 0.79806 0.62961 0.0
C2931 C 0.68176 0.78611 0.64472 0.0
H2932 H 0.25633 0.92897 0.66912 0.0
H2933 H 0.24966 0.96495 0.62011 0.0
H2934 H 0.22593 0.94058 0.5971 0.0
H2935 H 0.21014 0.90941 0.5863 0.0
H2936 H 0.21776 0.8731 0.63241 0.0
H2937 H 0.23769 0.89703 0.66136 0.0
C2938 C 0.24958 0.93147 0.65356 0.0
C2939 C 0.25495 0.94889 0.64642 0.0
C2940 C 0.23605 0.91727 0.63983 0.0
C2941 C 0.2458 0.9518 0.62642 0.0
C2942 C 0.23224 0.93783 0.61301 0.0
C2943 C 0.21571 0.90669 0.60326 0.0
C2944 C 0.21249 0.88959 0.60736 0.0
C2945 C 0.22763 0.92057 0.61902 0.0
C2946 C 0.21988 0.88615 0.62914 0.0
C2947 C 0.23148 0.89989 0.64541 0.0
H2948 H 0.09081 0.34939 0.65622 0.0
H2949 H 0.06509 0.29293 0.6578 0.0
H2950 H 0.09122 0.29405 0.63993 0.0
H2951 H 0.11932 0.31078 0.61702 0.0
H2952 H 0.1447 0.367 0.61406 0.0
H2953 H 0.12121 0.36637 0.64027 0.0
C2954 C 0.09107 0.33734 0.65337 0.0
C2955 C 0.07578 0.32107 0.65777 0.0
C2956 C 0.10618 0.33806 0.64291 0.0
C2957 C 0.07644 0.30562 0.65386 0.0
C2958 C 0.09144 0.30624 0.64379 0.0
C2959 C 0.12008 0.3229 0.62327 0.0
C2960 C 0.13379 0.33892 0.61407 0.0
C2961 C 0.10613 0.32234 0.6373 0.0
C2962 C 0.13445 0.35456 0.62149 0.0
C2963 C 0.12085 0.35416 0.63606 0.0
H2964 H 0.24712 0.30559 0.64664 0.0
H2965 H 0.28798 0.35996 0.64384 0.0
H2966 H 0.26697 0.36818 0.62904 0.0
H2967 H 0.23832 0.35969 0.61037 0.0
H2968 H 0.19795 0.30542 0.60854 0.0
H2969 H 0.21717 0.29743 0.63211 0.0
C2970 C 0.25142 0.31925 0.64292 0.0
C2971 C 0.26926 0.33207 0.64627 0.0
C2972 C 0.23928 0.32393 0.63362 0.0
C2973 C 0.27441 0.34975 0.64181 0.0
C2974 C 0.26239 0.35451 0.63313 0.0
C2975 C 0.23354 0.3462 0.61606 0.0
C2976 C 0.21677 0.33316 0.60795 0.0
C2977 C 0.24496 0.34168 0.62824 0.0
C2978 C 0.21072 0.31569 0.61498 0.0
C2979 C 0.22184 0.31112 0.62802 0.0
H2980 H 0.7003 0.93955 0.66289 0.0
H2981 H 0.651 0.93213 0.63383 0.0
H2982 H 0.64389 0.90385 0.61615 0.0
H2983 H 0.65371 0.88375 0.60204 0.0
H2984 H 0.70412 0.89224 0.62616 0.0
H2985 H 0.70859 0.91718 0.653 0.0
C2986 C 0.68795 0.93172 0.65284 0.0
C2987 C 0.67633 0.93825 0.64963 0.0
C2988 C 0.6841 0.91554 0.64177 0.0
C2989 C 0.6602 0.92759 0.63701 0.0
C2990 C 0.65613 0.91137 0.62663 0.0
C2991 C 0.66535 0.89065 0.61407 0.0
C2992 C 0.67854 0.88618 0.61226 0.0
C2993 C 0.66822 0.90551 0.62808 0.0
C2994 C 0.69369 0.8953 0.62756 0.0
C2995 C 0.69636 0.90976 0.6425 0.0
H2996 H 0.09217 0.74443 0.65645 0.0
H2997 H 0.06498 0.77358 0.65251 0.0
H2998 H 0.09131 0.79903 0.6357 0.0
H2999 H 0.11992 0.81078 0.61445 0.0
H3000 H 0.14635 0.78096 0.61494 0.0
H3001 H 0.12291 0.75829 0.64152 0.0
C3002 C 0.09221 0.75653 0.65262 0.0
C3003 C 0.07659 0.75705 0.65531 0.0
C3004 C 0.10732 0.77101 0.64229 0.0
C3005 C 0.07677 0.77279 0.65017 0.0
C3006 C 0.09183 0.78735 0.64058 0.0
C3007 C 0.1209 0.79971 0.62153 0.0
C3008 C 0.13489 0.7976 0.61322 0.0
C3009 C 0.10692 0.78635 0.63551 0.0
C3010 C 0.13586 0.78298 0.62167 0.0
C3011 C 0.12229 0.7699 0.63645 0.0
H3012 H 0.98118 0.57414 0.68609 0.0
H3013 H 0.03127 0.6166 0.71148 0.0
H3014 H 0.03811 0.59581 0.73171 0.0
H3015 H 0.02793 0.56621 0.74833 0.0
H3016 H 0.97743 0.52374 0.72531 0.0
H3017 H 0.97283 0.54367 0.69755 0.0
C3018 C 0.99368 0.5788 0.69577 0.0
C3019 C 1.0056 0.59696 0.69745 0.0
C3020 C 0.99746 0.56673 0.70779 0.0
C3021 C 0.02187 0.60274 0.7097 0.0
C3022 C 0.02577 0.59085 0.72145 0.0
C3023 C 0.01624 0.56124 0.73638 0.0
C3024 C 1.00306 0.54358 0.7387 0.0
C3025 C 0.01344 0.5729 0.72137 0.0
C3026 C 0.98784 0.53724 0.7235 0.0
C3027 C 0.98511 0.54871 0.70799 0.0
H3028 H 0.42509 0.41457 0.68314 0.0
H3029 H 0.44321 0.38181 0.71741 0.0
H3030 H 0.46855 0.40756 0.73556 0.0
H3031 H 0.48267 0.43863 0.74786 0.0
H3032 H 0.46456 0.47141 0.71444 0.0
H3033 H 0.44268 0.44664 0.68878 0.0
C3034 C 0.4348 0.41305 0.69394 0.0
C3035 C 0.43186 0.39612 0.69949 0.0
C3036 C 0.44948 0.42801 0.70437 0.0
C3037 C 0.44472 0.39456 0.71356 0.0
C3038 C 0.45934 0.40932 0.7238 0.0
C3039 C 0.4745 0.4405 0.73394 0.0
C3040 C 0.4753 0.4568 0.73277 0.0
C3041 C 0.46149 0.42602 0.72019 0.0
C3042 C 0.46438 0.45905 0.71523 0.0
C3043 C 0.45165 0.44479 0.70096 0.0
H3044 H 0.59588 0.01473 0.68562 0.0
H3045 H 0.63101 0.05992 0.7314 0.0
H3046 H 0.60612 0.05972 0.75234 0.0
H3047 H 0.57481 0.04377 0.76287 0.0
H3048 H 0.53956 0.9978 0.71911 0.0
H3049 H 0.56384 1.00158 0.6914 0.0
C3050 C 0.59806 0.02479 0.69969 0.0
C3051 C 0.61529 0.03708 0.70738 0.0
C3052 C 0.58361 0.02446 0.71196 0.0
C3053 C 0.61789 0.05004 0.72564 0.0
C3054 C 0.60366 0.04999 0.73753 0.0
C3055 C 0.57239 0.03505 0.74652 0.0
C3056 C 0.5555 0.02061 0.74283 0.0
C3057 C 0.58651 0.03687 0.73159 0.0
C3058 C 0.55244 0.00916 0.72197 0.0
C3059 C 0.56638 0.01116 0.70646 0.0
loop_
_geom_bond_atom_site_label_1
_geom_bond_atom_site_label_2
_geom_bond_distance
_geom_bond_site_symmetry_2
_ccdc_geom_bond_type
Li0 N17 1.989 1_554 S
Li0 O60 1.956 . S
Li0 O61 1.970 1_654 S
Li0 O62 1.961 . S
Li1 N25 1.990 . S
Li1 O60 1.970 1_455 S
Li1 O61 1.956 1_554 S
Li1 O63 1.961 . S
Li2 N47 1.990 . S
Li2 O60 1.961 . S
Li2 O62 1.956 . S
Li2 O63 1.970 1_655 S
Li3 N53 1.990 . S
Li3 O61 1.961 . S
Li3 O62 1.970 1_456 S
Li3 O63 1.956 1_556 S
C4 C6 1.348 1_655 S
C4 C7 1.356 . S
C4 O60 1.325 . S
N5 C8 1.314 . S
N5 C9 1.279 . S
C6 C4 1.348 1_455 S
C6 C8 1.353 1_455 S
C6 H64 0.929 . S
C7 C4 1.356 . S
C7 C9 1.358 . S
C7 H65 0.930 . S
C8 N5 1.314 . S
C8 C6 1.353 1_655 S
C8 H66 0.930 1_655 S
C9 N5 1.279 . S
C9 C7 1.358 . S
C9 H67 0.930 . S
C10 C13 1.348 1_455 S
C10 C14 1.356 . S
C10 O61 1.325 . S
C11 N12 1.279 . S
C11 C14 1.358 . S
C11 H68 0.930 . S
N12 C11 1.279 . S
N12 C15 1.314 . S
C13 C10 1.348 1_655 S
C13 C15 1.342 1_655 S
C13 H69 0.941 . S
C14 C10 1.356 . S
C14 C11 1.358 . S
C14 H70 0.930 . S
C15 N12 1.314 . S
C15 C13 1.342 1_455 S
C15 H71 0.930 1_455 S
C16 N17 1.320 . S
C16 C21 1.353 . S
C16 H22 0.930 . S
N17 Li0 1.989 1_556 S
N17 C16 1.320 . S
N17 C19 1.275 1_556 S
C18 C19 1.358 . S
C18 C20 1.356 1_554 S
C18 H72 0.930 . S
C19 N17 1.275 1_554 S
C19 C18 1.358 . S
C19 H23 0.930 . S
C20 C18 1.356 1_556 S
C20 C21 1.348 . S
C21 C16 1.353 . S
C21 C20 1.348 . S
C21 H73 0.929 . S
H22 C16 0.930 . S
H23 C19 0.930 . S
C24 N25 1.314 . S
C24 C26 1.353 . S
C24 H30 0.930 . S
N25 Li1 1.990 . S
N25 C24 1.314 . S
N25 C28 1.279 . S
C26 C24 1.353 . S
C26 C29 1.348 . S
C26 H74 0.929 . S
C27 C28 1.358 . S
C27 C29 1.356 . S
C27 H75 0.930 . S
C28 N25 1.279 . S
C28 C27 1.358 . S
C28 H31 0.930 1_554 S
C29 C26 1.348 . S
C29 C27 1.356 . S
H30 C24 0.930 . S
H31 C28 0.930 1_556 S
C32 C34 1.348 . S
C32 C35 1.356 1_556 S
C32 O62 1.325 1_556 S
N33 C36 1.314 . S
N33 C37 1.279 1_556 S
C34 C32 1.348 . S
C34 C36 1.353 . S
C34 H76 0.929 . S
C35 C32 1.356 1_554 S
C35 C37 1.358 . S
C35 H77 0.930 . S
C36 N33 1.314 . S
C36 C34 1.353 . S
C36 H78 0.930 . S
C37 N33 1.279 1_554 S
C37 C35 1.358 . S
C37 H79 0.930 . S
C38 C39 1.348 . S
C38 C40 1.356 . S
C38 O63 1.325 . S
C39 C38 1.348 . S
C39 C41 1.353 . S
C39 H80 0.929 . S
C40 C38 1.356 . S
C40 C42 1.358 . S
C40 H81 0.930 1_554 S
C41 C39 1.353 . S
C41 N43 1.314 . S
C41 H82 0.930 . S
C42 C40 1.358 . S
C42 N43 1.279 . S
C42 H83 0.930 . S
N43 C41 1.314 . S
N43 C42 1.279 . S
C44 C46 1.353 . S
C44 N47 1.314 . S
C44 H50 0.930 1_655 S
C45 N47 1.279 . S
C45 C48 1.358 . S
C45 H51 0.930 . S
C46 C44 1.353 . S
C46 C49 1.348 . S
C46 H84 0.961 . S
N47 Li2 1.990 . S
N47 C44 1.314 . S
N47 C45 1.279 . S
C48 C45 1.358 . S
C48 C49 1.356 . S
C48 H85 0.930 . S
C49 C46 1.348 . S
C49 C48 1.356 . S
H50 C44 0.930 1_455 S
H51 C45 0.930 . S
C52 N53 1.314 . S
C52 C54 1.353 . S
C52 H58 0.930 1_455 S
N53 Li3 1.990 . S
N53 C52 1.314 . S
N53 C56 1.279 . S
C54 C52 1.353 . S
C54 C57 1.348 . S
C54 H86 0.929 . S
C55 C56 1.358 . S
C55 C57 1.356 . S
C55 H87 0.930 . S
C56 N53 1.279 . S
C56 C55 1.358 . S
C56 H59 0.930 . S
C57 C54 1.348 . S
C57 C55 1.356 . S
H58 C52 0.930 1_655 S
H59 C56 0.930 . S
O60 Li0 1.956 . S
O60 Li1 1.970 1_655 S
O60 Li2 1.961 . S
O60 C4 1.325 . S
O61 Li0 1.970 1_456 S
O61 Li1 1.956 1_556 S
O61 Li3 1.961 . S
O61 C10 1.325 . S
O62 Li0 1.961 . S
O62 Li2 1.956 . S
O62 Li3 1.970 1_654 S
O62 C32 1.325 1_554 S
O63 Li1 1.961 . S
O63 Li2 1.970 1_455 S
O63 Li3 1.956 1_554 S
O63 C38 1.325 . S
H64 C6 0.929 . S
H65 C7 0.930 . S
H66 C8 0.930 1_455 S
H67 C9 0.930 . S
H68 C11 0.930 . S
H69 C13 0.941 . S
H70 C14 0.930 . S
H71 C15 0.930 1_655 S
H72 C18 0.930 . S
H73 C21 0.929 . S
H74 C26 0.929 . S
H75 C27 0.930 . S
H76 C34 0.929 . S
H77 C35 0.930 . S
H78 C36 0.930 . S
H79 C37 0.930 . S
H80 C39 0.929 . S
H81 C40 0.930 1_556 S
H82 C41 0.930 . S
H83 C42 0.930 . S
H84 C46 0.961 . S
H85 C48 0.930 . S
H86 C54 0.929 . S
H87 C55 0.930 . S
Li88 N105 1.990 1_554 S
Li88 O148 1.956 . S
Li88 O149 1.970 1_554 S
Li88 O150 1.962 . S
Li89 N113 1.990 . S
Li89 O148 1.970 . S
Li89 O149 1.956 1_554 S
Li89 O151 1.961 . S
Li90 N135 1.990 . S
Li90 O148 1.961 . S
Li90 O150 1.964 . S
Li90 O151 1.970 . S
Li91 N141 1.990 . S
Li91 O149 1.961 . S
Li91 O150 1.967 1_556 S
Li91 O151 1.956 1_556 S
C92 C94 1.348 . S
C92 C95 1.356 . S
C92 O148 1.325 . S
N93 C96 1.314 . S
N93 C97 1.279 . S
C94 C92 1.348 . S
C94 C96 1.353 . S
C94 H152 0.929 . S
C95 C92 1.356 . S
C95 C97 1.358 . S
C95 H153 0.930 . S
C96 N93 1.314 . S
C96 C94 1.353 . S
C96 H154 0.930 . S
C97 N93 1.279 . S
C97 C95 1.358 . S
C97 H155 0.930 . S
C98 C101 1.348 . S
C98 C102 1.356 . S
C98 O149 1.325 . S
C99 N100 1.279 . S
C99 C102 1.358 . S
C99 H156 0.930 . S
N100 C99 1.279 . S
N100 C103 1.314 . S
C101 C98 1.348 . S
C101 C103 1.353 . S
C101 H157 0.929 . S
C102 C98 1.356 . S
C102 C99 1.358 . S
C102 H158 0.930 . S
C103 N100 1.314 . S
C103 C101 1.353 . S
C103 H159 0.930 . S
C104 N105 1.314 . S
C104 C109 1.353 . S
C104 H110 0.930 . S
N105 Li88 1.990 1_556 S
N105 C104 1.314 . S
N105 C107 1.279 1_556 S
C106 C107 1.358 . S
C106 C108 1.356 1_554 S
C106 H160 0.930 . S
C107 N105 1.279 1_554 S
C107 C106 1.358 . S
C107 H111 0.930 . S
C108 C106 1.356 1_556 S
C108 C109 1.348 . S
C109 C104 1.353 . S
C109 C108 1.348 . S
C109 H161 0.929 . S
H110 C104 0.930 . S
H111 C107 0.930 . S
C112 N113 1.314 . S
C112 C114 1.353 . S
C112 H118 0.930 . S
N113 Li89 1.990 . S
N113 C112 1.314 . S
N113 C116 1.279 . S
C114 C112 1.353 . S
C114 C117 1.348 . S
C114 H162 0.929 . S
C115 C116 1.358 . S
C115 C117 1.356 . S
C115 H163 0.930 . S
C116 N113 1.279 . S
C116 C115 1.358 . S
C116 H119 0.930 1_554 S
C117 C114 1.348 . S
C117 C115 1.356 . S
H118 C112 0.930 . S
H119 C116 0.930 1_556 S
C120 C122 1.348 . S
C120 C123 1.356 1_556 S
C120 O150 1.323 1_556 S
N121 C124 1.314 . S
N121 C125 1.302 . S
C122 C120 1.348 . S
C122 C124 1.353 . S
C122 H164 0.929 . S
C123 C120 1.356 1_554 S
C123 C125 1.350 1_554 S
C123 H165 0.930 . S
C124 N121 1.314 . S
C124 C122 1.353 . S
C124 H166 0.930 . S
C125 N121 1.302 . S
C125 C123 1.350 1_556 S
C125 H167 0.916 1_556 S
C126 C127 1.348 . S
C126 C128 1.356 . S
C126 O151 1.325 . S
C127 C126 1.348 . S
C127 C129 1.353 . S
C127 H168 0.929 . S
C128 C126 1.356 . S
C128 C130 1.358 . S
C128 H169 0.930 . S
C129 C127 1.353 . S
C129 N131 1.314 . S
C129 H170 0.930 . S
C130 C128 1.358 . S
C130 N131 1.279 . S
C130 H171 0.930 . S
N131 C129 1.314 . S
N131 C130 1.279 . S
C132 C134 1.353 . S
C132 N135 1.314 . S
C132 H138 0.930 . S
C133 N135 1.279 . S
C133 C136 1.358 . S
C133 H139 0.930 . S
C134 C132 1.353 . S
C134 C137 1.348 . S
C134 H172 0.929 . S
N135 Li90 1.990 . S
N135 C132 1.314 . S
N135 C133 1.279 . S
C136 C133 1.358 . S
C136 C137 1.356 . S
C136 H173 0.930 . S
C137 C134 1.348 . S
C137 C136 1.356 . S
H138 C132 0.930 . S
H139 C133 0.930 . S
C140 N141 1.314 . S
C140 C142 1.353 . S
C140 H146 0.930 . S
N141 Li91 1.990 . S
N141 C140 1.314 . S
N141 C144 1.279 . S
C142 C140 1.353 . S
C142 C145 1.348 . S
C142 H174 0.929 . S
C143 C144 1.358 . S
C143 C145 1.356 . S
C143 H175 0.930 . S
C144 N141 1.279 . S
C144 C143 1.358 . S
C144 H147 0.930 . S
C145 C142 1.348 . S
C145 C143 1.356 . S
H146 C140 0.930 . S
H147 C144 0.930 . S
O148 Li88 1.956 . S
O148 Li89 1.970 . S
O148 Li90 1.961 . S
O148 C92 1.325 . S
O149 Li88 1.970 1_556 S
O149 Li89 1.956 1_556 S
O149 Li91 1.961 . S
O149 C98 1.325 . S
O150 Li88 1.962 . S
O150 Li90 1.964 . S
O150 Li91 1.967 1_554 S
O150 C120 1.323 1_554 S
O151 Li89 1.961 . S
O151 Li90 1.970 . S
O151 Li91 1.956 1_554 S
O151 C126 1.325 . S
H152 C94 0.929 . S
H153 C95 0.930 . S
H154 C96 0.930 . S
H155 C97 0.930 . S
H156 C99 0.930 . S
H157 C101 0.929 . S
H158 C102 0.930 . S
H159 C103 0.930 . S
H160 C106 0.930 . S
H161 C109 0.929 . S
H162 C114 0.929 . S
H163 C115 0.930 . S
H164 C122 0.929 . S
H165 C123 0.930 . S
H166 C124 0.930 . S
H167 C125 0.916 1_554 S
H168 C127 0.929 . S
H169 C128 0.930 . S
H170 C129 0.930 . S
H171 C130 0.930 . S
H172 C134 0.929 . S
H173 C136 0.930 . S
H174 C142 0.929 . S
H175 C143 0.930 . S
Li176 N193 1.990 . S
Li176 O236 1.956 1_556 S
Li176 O237 1.970 1_566 S
Li176 O238 1.961 . S
Li177 N201 1.990 . S
Li177 O236 1.970 1_545 S
Li177 O237 1.956 . S
Li177 O239 1.961 . S
Li178 N223 1.990 . S
Li178 O236 1.961 . S
Li178 O238 1.956 1_554 S
Li178 O239 1.970 1_565 S
Li179 N229 1.990 1_554 S
Li179 O237 1.961 . S
Li179 O238 1.970 1_544 S
Li179 O239 1.956 . S
C180 C182 1.348 . S
C180 C183 1.356 . S
C180 O236 1.325 . S
N181 C184 1.314 . S
N181 C185 1.279 . S
C182 C180 1.348 . S
C182 C184 1.353 . S
C182 H240 0.929 . S
C183 C180 1.356 . S
C183 C185 1.358 . S
C183 H241 0.930 1_554 S
C184 N181 1.314 . S
C184 C182 1.353 . S
C184 H242 0.930 . S
C185 N181 1.279 . S
C185 C183 1.358 . S
C185 H243 0.930 . S
C186 C189 1.348 . S
C186 C190 1.356 1_556 S
C186 O237 1.325 1_556 S
C187 N188 1.279 1_554 S
C187 C190 1.358 . S
C187 H244 0.930 . S
N188 C187 1.279 1_556 S
N188 C191 1.314 . S
C189 C186 1.348 . S
C189 C191 1.353 . S
C189 H245 0.929 . S
C190 C186 1.356 1_554 S
C190 C187 1.358 . S
C190 H246 0.930 . S
C191 N188 1.314 . S
C191 C189 1.353 . S
C191 H247 0.930 . S
C192 N193 1.314 . S
C192 C197 1.353 . S
C192 H198 0.930 1_565 S
N193 Li176 1.990 . S
N193 C192 1.314 . S
N193 C195 1.279 . S
C194 C195 1.358 . S
C194 C196 1.356 . S
C194 H248 0.930 . S
C195 N193 1.279 . S
C195 C194 1.358 . S
C195 H199 0.930 . S
C196 C194 1.356 . S
C196 C197 1.348 . S
C197 C192 1.353 . S
C197 C196 1.348 . S
C197 H249 0.964 . S
H198 C192 0.930 1_545 S
H199 C195 0.930 . S
C200 N201 1.314 . S
C200 C202 1.353 . S
C200 H206 0.930 1_545 S
N201 Li177 1.990 . S
N201 C200 1.314 . S
N201 C204 1.279 . S
C202 C200 1.353 . S
C202 C205 1.348 . S
C202 H250 0.929 . S
C203 C204 1.358 . S
C203 C205 1.356 . S
C203 H251 0.930 . S
C204 N201 1.279 . S
C204 C203 1.358 . S
C204 H207 0.930 . S
C205 C202 1.348 . S
C205 C203 1.356 . S
H206 C200 0.930 1_565 S
H207 C204 0.930 . S
C208 C210 1.348 1_565 S
C208 C211 1.356 . S
C208 O238 1.325 . S
N209 C212 1.314 . S
N209 C213 1.279 . S
C210 C208 1.348 1_545 S
C210 C212 1.353 1_545 S
C210 H252 0.929 . S
C211 C208 1.356 . S
C211 C213 1.358 . S
C211 H253 0.930 . S
C212 N209 1.314 . S
C212 C210 1.353 1_565 S
C212 H254 0.930 1_565 S
C213 N209 1.279 . S
C213 C211 1.358 . S
C213 H255 0.930 . S
C214 C215 1.348 1_545 S
C214 C216 1.356 . S
C214 O239 1.325 . S
C215 C214 1.348 1_565 S
C215 C217 1.345 1_565 S
C215 H256 0.938 . S
C216 C214 1.356 . S
C216 C218 1.358 . S
C216 H257 0.930 . S
C217 C215 1.345 1_545 S
C217 N219 1.314 . S
C217 H258 0.930 1_545 S
C218 C216 1.358 . S
C218 N219 1.279 . S
C218 H259 0.930 . S
N219 C217 1.314 . S
N219 C218 1.279 . S
C220 C222 1.353 . S
C220 N223 1.314 . S
C220 H226 0.930 . S
C221 N223 1.279 . S
C221 C224 1.358 . S
C221 H227 0.930 1_554 S
C222 C220 1.353 . S
C222 C225 1.348 . S
C222 H260 0.929 . S
N223 Li178 1.990 . S
N223 C220 1.314 . S
N223 C221 1.279 . S
C224 C221 1.358 . S
C224 C225 1.356 . S
C224 H261 0.937 . S
C225 C222 1.348 . S
C225 C224 1.356 . S
H226 C220 0.930 . S
H227 C221 0.930 1_556 S
C228 N229 1.314 . S
C228 C230 1.353 . S
C228 H234 0.930 . S
N229 Li179 1.990 1_556 S
N229 C228 1.314 . S
N229 C232 1.279 1_556 S
C230 C228 1.353 . S
C230 C233 1.348 . S
C230 H262 0.929 . S
C231 C232 1.358 . S
C231 C233 1.356 1_554 S
C231 H263 0.930 . S
C232 N229 1.279 1_554 S
C232 C231 1.358 . S
C232 H235 0.930 . S
C233 C230 1.348 . S
C233 C231 1.356 1_556 S
H234 C228 0.930 . S
H235 C232 0.930 . S
O236 Li176 1.956 1_554 S
O236 Li177 1.970 1_565 S
O236 Li178 1.961 . S
O236 C180 1.325 . S
O237 Li176 1.970 1_544 S
O237 Li177 1.956 . S
O237 Li179 1.961 . S
O237 C186 1.325 1_554 S
O238 Li176 1.961 . S
O238 Li178 1.956 1_556 S
O238 Li179 1.970 1_566 S
O238 C208 1.325 . S
O239 Li177 1.961 . S
O239 Li178 1.970 1_545 S
O239 Li179 1.956 . S
O239 C214 1.325 . S
H240 C182 0.929 . S
H241 C183 0.930 1_556 S
H242 C184 0.930 . S
H243 C185 0.930 . S
H244 C187 0.930 . S
H245 C189 0.929 . S
H246 C190 0.930 . S
H247 C191 0.930 . S
H248 C194 0.930 . S
H249 C197 0.964 . S
H250 C202 0.929 . S
H251 C203 0.930 . S
H252 C210 0.929 . S
H253 C211 0.930 . S
H254 C212 0.930 1_545 S
H255 C213 0.930 . S
H256 C215 0.938 . S
H257 C216 0.930 . S
H258 C217 0.930 1_565 S
H259 C218 0.930 . S
H260 C222 0.929 . S
H261 C224 0.937 . S
H262 C230 0.929 . S
H263 C231 0.930 . S
Li264 N281 1.990 . S
Li264 O324 1.956 . S
Li264 O325 1.970 1_455 S
Li264 O326 1.961 1_554 S
Li265 N289 1.990 . S
Li265 O324 1.970 1_655 S
Li265 O325 1.956 . S
Li265 O327 1.961 . S
Li266 N311 1.990 . S
Li266 O324 1.961 1_556 S
Li266 O326 1.956 . S
Li266 O327 1.970 1_456 S
Li267 N317 1.990 1_554 S
Li267 O325 1.961 . S
Li267 O326 1.970 1_654 S
Li267 O327 1.956 . S
C268 C270 1.348 . S
C268 C271 1.356 . S
C268 O324 1.325 . S
N269 C272 1.314 . S
N269 C273 1.279 . S
C270 C268 1.348 . S
C270 C272 1.353 . S
C270 H328 0.929 . S
C271 C268 1.356 . S
C271 C273 1.358 . S
C271 H329 0.930 1_554 S
C272 N269 1.314 . S
C272 C270 1.353 . S
C272 H330 0.930 . S
C273 N269 1.279 . S
C273 C271 1.358 . S
C273 H331 0.930 1_554 S
C274 C277 1.348 1_655 S
C274 C278 1.356 . S
C274 O325 1.325 . S
C275 N276 1.279 . S
C275 C278 1.358 . S
C275 H332 0.930 . S
N276 C275 1.279 . S
N276 C279 1.299 1_655 S
C277 C274 1.348 1_455 S
C277 C279 1.362 . S
C277 H333 0.929 . S
C278 C274 1.356 . S
C278 C275 1.358 . S
C278 H334 0.930 . S
C279 N276 1.299 1_455 S
C279 C277 1.362 . S
C279 H335 0.937 . S
C280 N281 1.314 . S
C280 C285 1.353 . S
C280 H286 0.930 . S
N281 Li264 1.990 . S
N281 C280 1.314 . S
N281 C283 1.279 . S
C282 C283 1.358 . S
C282 C284 1.356 . S
C282 H336 0.930 . S
C283 N281 1.279 . S
C283 C282 1.358 . S
C283 H287 0.930 . S
C284 C282 1.356 . S
C284 C285 1.348 . S
C285 C280 1.353 . S
C285 C284 1.348 . S
C285 H337 0.929 . S
H286 C280 0.930 . S
H287 C283 0.930 . S
C288 N289 1.314 . S
C288 C290 1.353 . S
C288 H294 0.930 . S
N289 Li265 1.990 . S
N289 C288 1.314 . S
N289 C292 1.279 . S
C290 C288 1.353 . S
C290 C293 1.348 . S
C290 H338 0.929 . S
C291 C292 1.358 . S
C291 C293 1.356 . S
C291 H339 0.930 . S
C292 N289 1.279 . S
C292 C291 1.358 . S
C292 H295 0.930 . S
C293 C290 1.348 . S
C293 C291 1.356 . S
H294 C288 0.930 . S
H295 C292 0.930 . S
C296 C298 1.348 1_455 S
C296 C299 1.356 . S
C296 O326 1.325 . S
N297 C300 1.298 1_455 S
N297 C301 1.279 . S
C298 C296 1.348 1_655 S
C298 C300 1.352 . S
C298 H340 0.929 . S
C299 C296 1.356 . S
C299 C301 1.358 . S
C299 H341 0.930 . S
C300 N297 1.298 1_655 S
C300 C298 1.352 . S
C300 H342 0.949 . S
C301 N297 1.279 . S
C301 C299 1.358 . S
C301 H343 0.930 . S
C302 C303 1.348 . S
C302 C304 1.356 1_556 S
C302 O327 1.325 1_556 S
C303 C302 1.348 . S
C303 C305 1.353 . S
C303 H344 0.929 . S
C304 C302 1.356 1_554 S
C304 C306 1.358 . S
C304 H345 0.930 . S
C305 C303 1.353 . S
C305 N307 1.314 . S
C305 H346 0.930 . S
C306 C304 1.358 . S
C306 N307 1.279 1_554 S
C306 H347 0.930 . S
N307 C305 1.314 . S
N307 C306 1.279 1_556 S
C308 C310 1.353 . S
C308 N311 1.314 . S
C308 H314 0.930 . S
C309 N311 1.279 . S
C309 C312 1.358 . S
C309 H315 0.930 . S
C310 C308 1.353 . S
C310 C313 1.348 . S
C310 H348 0.929 . S
N311 Li266 1.990 . S
N311 C308 1.314 . S
N311 C309 1.279 . S
C312 C309 1.358 . S
C312 C313 1.356 . S
C312 H349 0.930 . S
C313 C310 1.348 . S
C313 C312 1.356 . S
H314 C308 0.930 . S
H315 C309 0.930 . S
C316 N317 1.314 1_554 S
C316 C318 1.353 1_554 S
C316 H322 0.930 . S
N317 Li267 1.990 1_556 S
N317 C316 1.314 1_556 S
N317 C320 1.279 . S
C318 C316 1.353 1_556 S
C318 C321 1.348 . S
C318 H350 0.929 1_556 S
C319 C320 1.358 . S
C319 C321 1.356 . S
C319 H351 0.930 . S
C320 N317 1.279 . S
C320 C319 1.358 . S
C320 H323 0.930 . S
C321 C318 1.348 . S
C321 C319 1.356 . S
H322 C316 0.930 . S
H323 C320 0.930 . S
O324 Li264 1.956 . S
O324 Li265 1.970 1_455 S
O324 Li266 1.961 1_554 S
O324 C268 1.325 . S
O325 Li264 1.970 1_655 S
O325 Li265 1.956 . S
O325 Li267 1.961 . S
O325 C274 1.325 . S
O326 Li264 1.961 1_556 S
O326 Li266 1.956 . S
O326 Li267 1.970 1_456 S
O326 C296 1.325 . S
O327 Li265 1.961 . S
O327 Li266 1.970 1_654 S
O327 Li267 1.956 . S
O327 C302 1.325 1_554 S
H328 C270 0.929 . S
H329 C271 0.930 1_556 S
H330 C272 0.930 . S
H331 C273 0.930 1_556 S
H332 C275 0.930 . S
H333 C277 0.929 . S
H334 C278 0.930 . S
H335 C279 0.937 . S
H336 C282 0.930 . S
H337 C285 0.929 . S
H338 C290 0.929 . S
H339 C291 0.930 . S
H340 C298 0.929 . S
H341 C299 0.930 . S
H342 C300 0.949 . S
H343 C301 0.930 . S
H344 C303 0.929 . S
H345 C304 0.930 . S
H346 C305 0.930 . S
H347 C306 0.930 . S
H348 C310 0.929 . S
H349 C312 0.930 . S
H350 C318 0.929 1_554 S
H351 C319 0.930 . S
Li352 N369 1.990 . S
Li352 O412 1.956 . S
Li352 O413 1.970 . S
Li352 O414 1.961 1_554 S
Li353 N377 1.990 . S
Li353 O412 1.970 . S
Li353 O413 1.956 . S
Li353 O415 1.998 . S
Li354 N399 1.990 . S
Li354 O412 1.961 1_556 S
Li354 O414 1.956 . S
Li354 O415 1.952 1_556 S
Li355 N405 1.990 1_554 S
Li355 O413 1.961 . S
Li355 O414 1.970 1_554 S
Li355 O415 1.958 . S
C356 C358 1.348 . S
C356 C359 1.356 . S
C356 O412 1.325 . S
N357 C360 1.314 . S
N357 C361 1.279 . S
C358 C356 1.348 . S
C358 C360 1.353 . S
C358 H416 0.929 . S
C359 C356 1.356 . S
C359 C361 1.358 . S
C359 H417 0.930 1_554 S
C360 N357 1.314 . S
C360 C358 1.353 . S
C360 H418 0.930 . S
C361 N357 1.279 . S
C361 C359 1.358 . S
C361 H419 0.930 . S
C362 C365 1.348 . S
C362 C366 1.356 . S
C362 O413 1.325 . S
C363 N364 1.279 . S
C363 C366 1.358 . S
C363 H420 0.930 . S
N364 C363 1.279 . S
N364 C367 1.314 . S
C365 C362 1.348 . S
C365 C367 1.353 . S
C365 H421 0.929 . S
C366 C362 1.356 . S
C366 C363 1.358 . S
C366 H422 0.930 . S
C367 N364 1.314 . S
C367 C365 1.353 . S
C367 H423 0.930 . S
C368 N369 1.314 . S
C368 C373 1.353 . S
C368 H374 0.930 . S
N369 Li352 1.990 . S
N369 C368 1.314 . S
N369 C371 1.279 . S
C370 C371 1.358 . S
C370 C372 1.356 . S
C370 H424 0.930 . S
C371 N369 1.279 . S
C371 C370 1.358 . S
C371 H375 0.930 . S
C372 C370 1.356 . S
C372 C373 1.348 . S
C373 C368 1.353 . S
C373 C372 1.348 . S
C373 H425 0.929 . S
H374 C368 0.930 . S
H375 C371 0.930 . S
C376 N377 1.314 . S
C376 C378 1.353 . S
C376 H382 0.930 . S
N377 Li353 1.990 . S
N377 C376 1.314 . S
N377 C380 1.279 . S
C378 C376 1.353 . S
C378 C381 1.348 . S
C378 H426 0.929 . S
C379 C380 1.358 . S
C379 C381 1.356 . S
C379 H427 0.930 . S
C380 N377 1.279 . S
C380 C379 1.358 . S
C380 H383 0.930 . S
C381 C378 1.348 . S
C381 C379 1.356 . S
H382 C376 0.930 . S
H383 C380 0.930 . S
C384 C386 1.348 . S
C384 C387 1.356 . S
C384 O414 1.325 . S
N385 C388 1.314 . S
N385 C389 1.279 . S
C386 C384 1.348 . S
C386 C388 1.353 . S
C386 H428 0.929 . S
C387 C384 1.356 . S
C387 C389 1.358 . S
C387 H429 0.930 . S
C388 N385 1.314 . S
C388 C386 1.353 . S
C388 H430 0.930 . S
C389 N385 1.279 . S
C389 C387 1.358 . S
C389 H431 0.930 . S
C390 C391 1.348 . S
C390 C392 1.356 1_556 S
C390 O415 1.316 1_556 S
C391 C390 1.348 . S
C391 C393 1.353 . S
C391 H432 0.929 . S
C392 C390 1.356 1_554 S
C392 C394 1.358 . S
C392 H433 0.930 . S
C393 C391 1.353 . S
C393 N395 1.314 . S
C393 H434 0.930 . S
C394 C392 1.358 . S
C394 N395 1.279 1_554 S
C394 H435 0.930 . S
N395 C393 1.314 . S
N395 C394 1.279 1_556 S
C396 C398 1.353 . S
C396 N399 1.314 . S
C396 H402 0.930 . S
C397 N399 1.279 . S
C397 C400 1.358 . S
C397 H403 0.930 . S
C398 C396 1.353 . S
C398 C401 1.348 . S
C398 H436 0.929 . S
N399 Li354 1.990 . S
N399 C396 1.314 . S
N399 C397 1.279 . S
C400 C397 1.358 . S
C400 C401 1.356 . S
C400 H437 0.930 . S
C401 C398 1.348 . S
C401 C400 1.356 . S
H402 C396 0.930 . S
H403 C397 0.930 . S
C404 N405 1.322 . S
C404 C406 1.362 . S
C404 H410 0.912 1_556 S
N405 Li355 1.990 1_556 S
N405 C404 1.322 . S
N405 C408 1.279 . S
C406 C404 1.362 . S
C406 C409 1.348 . S
C406 H438 0.929 . S
C407 C408 1.358 . S
C407 C409 1.356 . S
C407 H439 0.930 . S
C408 N405 1.279 . S
C408 C407 1.358 . S
C408 H411 0.930 . S
C409 C406 1.348 . S
C409 C407 1.356 . S
H410 C404 0.912 1_554 S
H411 C408 0.930 . S
O412 Li352 1.956 . S
O412 Li353 1.970 . S
O412 Li354 1.961 1_554 S
O412 C356 1.325 . S
O413 Li352 1.970 . S
O413 Li353 1.956 . S
O413 Li355 1.961 . S
O413 C362 1.325 . S
O414 Li352 1.961 1_556 S
O414 Li354 1.956 . S
O414 Li355 1.970 1_556 S
O414 C384 1.325 . S
O415 Li353 1.998 . S
O415 Li354 1.952 1_554 S
O415 Li355 1.958 . S
O415 C390 1.316 1_554 S
H416 C358 0.929 . S
H417 C359 0.930 1_556 S
H418 C360 0.930 . S
H419 C361 0.930 . S
H420 C363 0.930 . S
H421 C365 0.929 . S
H422 C366 0.930 . S
H423 C367 0.930 . S
H424 C370 0.930 . S
H425 C373 0.929 . S
H426 C378 0.929 . S
H427 C379 0.930 . S
H428 C386 0.929 . S
H429 C387 0.930 . S
H430 C388 0.930 . S
H431 C389 0.930 . S
H432 C391 0.929 . S
H433 C392 0.930 . S
H434 C393 0.930 . S
H435 C394 0.930 . S
H436 C398 0.929 . S
H437 C400 0.930 . S
H438 C406 0.929 . S
H439 C407 0.930 . S
Li440 N457 1.990 . S
Li440 O500 1.956 . S
Li440 O501 1.970 1_565 S
Li440 O502 1.961 1_554 S
Li441 N465 1.990 . S
Li441 O500 1.970 1_545 S
Li441 O501 1.956 . S
Li441 O503 1.961 . S
Li442 N487 1.990 . S
Li442 O500 1.961 1_556 S
Li442 O502 1.956 . S
Li442 O503 1.970 1_566 S
Li443 N493 1.990 1_554 S
Li443 O501 1.961 . S
Li443 O502 1.970 1_544 S
Li443 O503 1.956 . S
C444 C446 1.348 . S
C444 C447 1.356 . S
C444 O500 1.325 . S
N445 C448 1.314 . S
N445 C449 1.279 . S
C446 C444 1.348 . S
C446 C448 1.353 . S
C446 H504 0.929 . S
C447 C444 1.356 . S
C447 C449 1.358 . S
C447 H505 0.930 1_554 S
C448 N445 1.314 . S
C448 C446 1.353 . S
C448 H506 0.930 . S
C449 N445 1.279 . S
C449 C447 1.358 . S
C449 H507 0.930 1_554 S
C450 C453 1.348 1_545 S
C450 C454 1.356 . S
C450 O501 1.325 . S
C451 N452 1.279 . S
C451 C454 1.358 . S
C451 H508 0.930 . S
N452 C451 1.279 . S
N452 C455 1.301 1_545 S
C453 C450 1.348 1_565 S
C453 C455 1.352 . S
C453 H509 0.929 . S
C454 C450 1.356 . S
C454 C451 1.358 . S
C454 H510 0.930 . S
C455 N452 1.301 1_565 S
C455 C453 1.352 . S
C455 H511 0.945 . S
C456 N457 1.314 . S
C456 C461 1.353 . S
C456 H462 0.930 . S
N457 Li440 1.990 . S
N457 C456 1.314 . S
N457 C459 1.279 . S
C458 C459 1.358 . S
C458 C460 1.356 . S
C458 H512 0.930 . S
C459 N457 1.279 . S
C459 C458 1.358 . S
C459 H463 0.930 . S
C460 C458 1.356 . S
C460 C461 1.348 . S
C461 C456 1.353 . S
C461 C460 1.348 . S
C461 H513 0.929 . S
H462 C456 0.930 . S
H463 C459 0.930 . S
C464 N465 1.314 . S
C464 C466 1.353 . S
C464 H470 0.930 . S
N465 Li441 1.990 . S
N465 C464 1.314 . S
N465 C468 1.279 . S
C466 C464 1.353 . S
C466 C469 1.348 . S
C466 H514 0.929 . S
C467 C468 1.358 . S
C467 C469 1.356 . S
C467 H515 0.930 . S
C468 N465 1.279 . S
C468 C467 1.358 . S
C468 H471 0.930 . S
C469 C466 1.348 . S
C469 C467 1.356 . S
H470 C464 0.930 . S
H471 C468 0.930 . S
C472 C474 1.348 1_565 S
C472 C475 1.356 . S
C472 O502 1.325 . S
N473 C476 1.305 1_565 S
N473 C477 1.279 . S
C474 C472 1.348 1_545 S
C474 C476 1.359 . S
C474 H516 0.929 . S
C475 C472 1.356 . S
C475 C477 1.358 . S
C475 H517 0.930 . S
C476 N473 1.305 1_545 S
C476 C474 1.359 . S
C476 H518 0.934 . S
C477 N473 1.279 . S
C477 C475 1.358 . S
C477 H519 0.930 . S
C478 C479 1.348 . S
C478 C480 1.356 1_556 S
C478 O503 1.325 1_556 S
C479 C478 1.348 . S
C479 C481 1.353 . S
C479 H520 0.929 . S
C480 C478 1.356 1_554 S
C480 C482 1.358 . S
C480 H521 0.930 . S
C481 C479 1.353 . S
C481 N483 1.314 . S
C481 H522 0.930 . S
C482 C480 1.358 . S
C482 N483 1.279 1_554 S
C482 H523 0.930 . S
N483 C481 1.314 . S
N483 C482 1.279 1_556 S
C484 C486 1.353 . S
C484 N487 1.314 . S
C484 H490 0.930 . S
C485 N487 1.279 . S
C485 C488 1.358 . S
C485 H491 0.930 . S
C486 C484 1.353 . S
C486 C489 1.348 . S
C486 H524 0.929 . S
N487 Li442 1.990 . S
N487 C484 1.314 . S
N487 C485 1.279 . S
C488 C485 1.358 . S
C488 C489 1.356 . S
C488 H525 0.930 . S
C489 C486 1.348 . S
C489 C488 1.356 . S
H490 C484 0.930 . S
H491 C485 0.930 . S
C492 N493 1.314 1_554 S
C492 C494 1.350 1_554 S
C492 H498 0.930 . S
N493 Li443 1.990 1_556 S
N493 C492 1.314 1_556 S
N493 C496 1.279 . S
C494 C492 1.350 1_556 S
C494 C497 1.357 . S
C494 H526 0.924 1_556 S
C495 C496 1.358 . S
C495 C497 1.356 . S
C495 H527 0.930 . S
C496 N493 1.279 . S
C496 C495 1.358 . S
C496 H499 0.930 . S
C497 C494 1.357 . S
C497 C495 1.356 . S
H498 C492 0.930 . S
H499 C496 0.930 . S
O500 Li440 1.956 . S
O500 Li441 1.970 1_565 S
O500 Li442 1.961 1_554 S
O500 C444 1.325 . S
O501 Li440 1.970 1_545 S
O501 Li441 1.956 . S
O501 Li443 1.961 . S
O501 C450 1.325 . S
O502 Li440 1.961 1_556 S
O502 Li442 1.956 . S
O502 Li443 1.970 1_566 S
O502 C472 1.325 . S
O503 Li441 1.961 . S
O503 Li442 1.970 1_544 S
O503 Li443 1.956 . S
O503 C478 1.325 1_554 S
H504 C446 0.929 . S
H505 C447 0.930 1_556 S
H506 C448 0.930 . S
H507 C449 0.930 1_556 S
H508 C451 0.930 . S
H509 C453 0.929 . S
H510 C454 0.930 . S
H511 C455 0.945 . S
H512 C458 0.930 . S
H513 C461 0.929 . S
H514 C466 0.929 . S
H515 C467 0.930 . S
H516 C474 0.929 . S
H517 C475 0.930 . S
H518 C476 0.934 . S
H519 C477 0.930 . S
H520 C479 0.929 . S
H521 C480 0.930 . S
H522 C481 0.930 . S
H523 C482 0.930 . S
H524 C486 0.929 . S
H525 C488 0.930 . S
H526 C494 0.924 1_554 S
H527 C495 0.930 . S
Li528 N545 1.990 . S
Li528 O588 1.956 . S
Li528 O589 1.970 . S
Li528 O590 1.961 . S
Li529 N553 1.990 . S
Li529 O588 1.970 . S
Li529 O589 1.956 . S
Li529 O591 1.961 . S
Li530 N575 1.990 . S
Li530 O588 1.961 . S
Li530 O590 1.956 . S
Li530 O591 1.970 . S
Li531 N581 1.990 . S
Li531 O589 1.961 . S
Li531 O590 1.970 . S
Li531 O591 1.956 . S
C532 C534 1.348 . S
C532 C535 1.356 . S
C532 O588 1.325 . S
N533 C536 1.314 . S
N533 C537 1.279 . S
C534 C532 1.348 . S
C534 C536 1.353 . S
C534 H592 0.929 . S
C535 C532 1.356 . S
C535 C537 1.358 . S
C535 H593 0.930 . S
C536 N533 1.314 . S
C536 C534 1.353 . S
C536 H594 0.930 . S
C537 N533 1.279 . S
C537 C535 1.358 . S
C537 H595 0.930 . S
C538 C541 1.348 . S
C538 C542 1.356 . S
C538 O589 1.325 . S
C539 N540 1.279 . S
C539 C542 1.358 . S
C539 H596 0.930 . S
N540 C539 1.279 . S
N540 C543 1.314 . S
C541 C538 1.348 . S
C541 C543 1.353 . S
C541 H597 0.929 . S
C542 C538 1.356 . S
C542 C539 1.358 . S
C542 H598 0.930 . S
C543 N540 1.314 . S
C543 C541 1.353 . S
C543 H599 0.930 . S
C544 N545 1.314 . S
C544 C549 1.353 . S
C544 H550 0.930 . S
N545 Li528 1.990 . S
N545 C544 1.314 . S
N545 C547 1.279 . S
C546 C547 1.358 . S
C546 C548 1.356 . S
C546 H600 0.930 . S
C547 N545 1.279 . S
C547 C546 1.358 . S
C547 H551 0.930 . S
C548 C546 1.356 . S
C548 C549 1.348 . S
C549 C544 1.353 . S
C549 C548 1.348 . S
C549 H601 0.929 . S
H550 C544 0.930 . S
H551 C547 0.930 . S
C552 N553 1.314 . S
C552 C554 1.353 . S
C552 H558 0.930 . S
N553 Li529 1.990 . S
N553 C552 1.314 . S
N553 C556 1.279 . S
C554 C552 1.353 . S
C554 C557 1.348 . S
C554 H602 0.929 . S
C555 C556 1.358 . S
C555 C557 1.356 . S
C555 H603 0.930 . S
C556 N553 1.279 . S
C556 C555 1.358 . S
C556 H559 0.930 . S
C557 C554 1.348 . S
C557 C555 1.356 . S
H558 C552 0.930 . S
H559 C556 0.930 . S
C560 C562 1.348 . S
C560 C563 1.356 . S
C560 O590 1.325 . S
N561 C564 1.314 . S
N561 C565 1.279 . S
C562 C560 1.348 . S
C562 C564 1.353 . S
C562 H604 0.929 . S
C563 C560 1.356 . S
C563 C565 1.358 . S
C563 H605 0.930 . S
C564 N561 1.314 . S
C564 C562 1.353 . S
C564 H606 0.930 . S
C565 N561 1.279 . S
C565 C563 1.358 . S
C565 H607 0.930 . S
C566 C567 1.348 . S
C566 C568 1.356 . S
C566 O591 1.325 . S
C567 C566 1.348 . S
C567 C569 1.353 . S
C567 H608 0.929 . S
C568 C566 1.356 . S
C568 C570 1.358 . S
C568 H609 0.930 . S
C569 C567 1.353 . S
C569 N571 1.314 . S
C569 H610 0.930 . S
C570 C568 1.358 . S
C570 N571 1.279 . S
C570 H611 0.930 . S
N571 C569 1.314 . S
N571 C570 1.279 . S
C572 C574 1.353 . S
C572 N575 1.314 . S
C572 H578 0.930 . S
C573 N575 1.279 . S
C573 C576 1.358 . S
C573 H579 0.930 . S
C574 C572 1.353 . S
C574 C577 1.348 . S
C574 H612 0.929 . S
N575 Li530 1.990 . S
N575 C572 1.314 . S
N575 C573 1.279 . S
C576 C573 1.358 . S
C576 C577 1.356 . S
C576 H613 0.930 . S
C577 C574 1.348 . S
C577 C576 1.356 . S
H578 C572 0.930 . S
H579 C573 0.930 . S
C580 N581 1.314 . S
C580 C582 1.353 . S
C580 H586 0.930 . S
N581 Li531 1.990 . S
N581 C580 1.314 . S
N581 C584 1.279 . S
C582 C580 1.353 . S
C582 C585 1.348 . S
C582 H614 0.929 . S
C583 C584 1.358 . S
C583 C585 1.356 . S
C583 H615 0.930 . S
C584 N581 1.279 . S
C584 C583 1.358 . S
C584 H587 0.930 . S
C585 C582 1.348 . S
C585 C583 1.356 . S
H586 C580 0.930 . S
H587 C584 0.930 . S
O588 Li528 1.956 . S
O588 Li529 1.970 . S
O588 Li530 1.961 . S
O588 C532 1.325 . S
O589 Li528 1.970 . S
O589 Li529 1.956 . S
O589 Li531 1.961 . S
O589 C538 1.325 . S
O590 Li528 1.961 . S
O590 Li530 1.956 . S
O590 Li531 1.970 . S
O590 C560 1.325 . S
O591 Li529 1.961 . S
O591 Li530 1.970 . S
O591 Li531 1.956 . S
O591 C566 1.325 . S
H592 C534 0.929 . S
H593 C535 0.930 . S
H594 C536 0.930 . S
H595 C537 0.930 . S
H596 C539 0.930 . S
H597 C541 0.929 . S
H598 C542 0.930 . S
H599 C543 0.930 . S
H600 C546 0.930 . S
H601 C549 0.929 . S
H602 C554 0.929 . S
H603 C555 0.930 . S
H604 C562 0.929 . S
H605 C563 0.930 . S
H606 C564 0.930 . S
H607 C565 0.930 . S
H608 C567 0.929 . S
H609 C568 0.930 . S
H610 C569 0.930 . S
H611 C570 0.930 . S
H612 C574 0.929 . S
H613 C576 0.930 . S
H614 C582 0.929 . S
H615 C583 0.930 . S
Li616 N633 1.990 . S
Li616 O676 1.956 . S
Li616 O677 1.970 . S
Li616 O678 1.961 . S
Li617 N641 1.990 . S
Li617 O676 1.970 . S
Li617 O677 1.956 . S
Li617 O679 1.961 . S
Li618 N663 1.995 1_565 S
Li618 O676 1.959 . S
Li618 O678 1.954 . S
Li618 O679 1.967 . S
Li619 N669 1.990 . S
Li619 O677 1.961 . S
Li619 O678 1.970 . S
Li619 O679 1.956 . S
C620 C622 1.348 . S
C620 C623 1.356 . S
C620 O676 1.325 . S
N621 C624 1.314 . S
N621 C625 1.279 . S
C622 C620 1.348 . S
C622 C624 1.353 . S
C622 H680 0.929 . S
C623 C620 1.356 . S
C623 C625 1.358 . S
C623 H681 0.930 . S
C624 N621 1.314 . S
C624 C622 1.353 . S
C624 H682 0.930 . S
C625 N621 1.279 . S
C625 C623 1.358 . S
C625 H683 0.930 . S
C626 C629 1.348 . S
C626 C630 1.356 . S
C626 O677 1.325 . S
C627 N628 1.279 . S
C627 C630 1.358 . S
C627 H684 0.930 . S
N628 C627 1.279 . S
N628 C631 1.314 . S
C629 C626 1.348 . S
C629 C631 1.353 . S
C629 H685 0.929 . S
C630 C626 1.356 . S
C630 C627 1.358 . S
C630 H686 0.930 . S
C631 N628 1.314 . S
C631 C629 1.353 . S
C631 H687 0.930 . S
C632 N633 1.314 . S
C632 C637 1.353 . S
C632 H638 0.930 . S
N633 Li616 1.990 . S
N633 C632 1.314 . S
N633 C635 1.279 . S
C634 C635 1.358 . S
C634 C636 1.356 . S
C634 H688 0.930 . S
C635 N633 1.279 . S
C635 C634 1.358 . S
C635 H639 0.930 . S
C636 C634 1.356 . S
C636 C637 1.348 . S
C637 C632 1.353 . S
C637 C636 1.348 . S
C637 H689 0.929 . S
H638 C632 0.930 . S
H639 C635 0.930 . S
C640 N641 1.314 . S
C640 C642 1.353 . S
C640 H646 0.930 . S
N641 Li617 1.990 . S
N641 C640 1.314 . S
N641 C644 1.279 . S
C642 C640 1.353 . S
C642 C645 1.348 . S
C642 H690 0.929 . S
C643 C644 1.358 . S
C643 C645 1.356 . S
C643 H691 0.930 . S
C644 N641 1.279 . S
C644 C643 1.358 . S
C644 H647 0.930 . S
C645 C642 1.348 . S
C645 C643 1.356 . S
H646 C640 0.930 . S
H647 C644 0.930 . S
C648 C650 1.348 . S
C648 C651 1.356 . S
C648 O678 1.325 1_545 S
N649 C652 1.314 . S
N649 C653 1.279 . S
C650 C648 1.348 . S
C650 C652 1.353 . S
C650 H692 0.929 . S
C651 C648 1.356 . S
C651 C653 1.358 . S
C651 H693 0.930 . S
C652 N649 1.314 . S
C652 C650 1.353 . S
C652 H694 0.930 . S
C653 N649 1.279 . S
C653 C651 1.358 . S
C653 H695 0.930 . S
C654 C655 1.348 1_565 S
C654 C656 1.356 . S
C654 O679 1.325 . S
C655 C654 1.348 1_545 S
C655 C657 1.353 . S
C655 H696 0.929 . S
C656 C654 1.356 . S
C656 C658 1.358 . S
C656 H697 0.930 . S
C657 C655 1.353 . S
C657 N659 1.314 . S
C657 H698 0.930 . S
C658 C656 1.358 . S
C658 N659 1.279 1_565 S
C658 H699 0.930 . S
N659 C657 1.314 . S
N659 C658 1.279 1_545 S
C660 C662 1.353 . S
C660 N663 1.314 . S
C660 H666 0.930 . S
C661 N663 1.279 . S
C661 C664 1.358 . S
C661 H667 0.930 . S
C662 C660 1.353 . S
C662 C665 1.348 . S
C662 H700 0.929 . S
N663 Li618 1.995 1_545 S
N663 C660 1.314 . S
N663 C661 1.279 . S
C664 C661 1.358 . S
C664 C665 1.356 . S
C664 H701 0.930 . S
C665 C662 1.348 . S
C665 C664 1.356 . S
H666 C660 0.930 . S
H667 C661 0.930 . S
C668 N669 1.314 . S
C668 C670 1.353 . S
C668 H674 0.930 . S
N669 Li619 1.990 . S
N669 C668 1.314 . S
N669 C672 1.279 . S
C670 C668 1.353 . S
C670 C673 1.348 . S
C670 H702 0.929 . S
C671 C672 1.358 . S
C671 C673 1.356 . S
C671 H703 0.921 1_565 S
C672 N669 1.279 . S
C672 C671 1.358 . S
C672 H675 0.930 . S
C673 C670 1.348 . S
C673 C671 1.356 . S
H674 C668 0.930 . S
H675 C672 0.930 . S
O676 Li616 1.956 . S
O676 Li617 1.970 . S
O676 Li618 1.959 . S
O676 C620 1.325 . S
O677 Li616 1.970 . S
O677 Li617 1.956 . S
O677 Li619 1.961 . S
O677 C626 1.325 . S
O678 Li616 1.961 . S
O678 Li618 1.954 . S
O678 Li619 1.970 . S
O678 C648 1.325 1_565 S
O679 Li617 1.961 . S
O679 Li618 1.967 . S
O679 Li619 1.956 . S
O679 C654 1.325 . S
H680 C622 0.929 . S
H681 C623 0.930 . S
H682 C624 0.930 . S
H683 C625 0.930 . S
H684 C627 0.930 . S
H685 C629 0.929 . S
H686 C630 0.930 . S
H687 C631 0.930 . S
H688 C634 0.930 . S
H689 C637 0.929 . S
H690 C642 0.929 . S
H691 C643 0.930 . S
H692 C650 0.929 . S
H693 C651 0.930 . S
H694 C652 0.930 . S
H695 C653 0.930 . S
H696 C655 0.929 . S
H697 C656 0.930 . S
H698 C657 0.930 . S
H699 C658 0.930 . S
H700 C662 0.929 . S
H701 C664 0.930 . S
H702 C670 0.929 . S
H703 C671 0.921 1_545 S
Li704 N721 1.990 . S
Li704 O764 1.956 . S
Li704 O765 1.970 . S
Li704 O766 1.961 . S
Li705 N729 1.990 . S
Li705 O764 1.970 . S
Li705 O765 1.956 . S
Li705 O767 1.961 . S
Li706 N751 1.990 1_455 S
Li706 O764 1.961 . S
Li706 O766 1.956 . S
Li706 O767 1.970 . S
Li707 N757 1.990 . S
Li707 O765 1.961 . S
Li707 O766 1.970 . S
Li707 O767 1.956 . S
C708 C710 1.348 . S
C708 C711 1.356 . S
C708 O764 1.325 . S
N709 C712 1.314 . S
N709 C713 1.279 . S
C710 C708 1.348 . S
C710 C712 1.353 . S
C710 H768 0.929 . S
C711 C708 1.356 . S
C711 C713 1.358 . S
C711 H769 0.930 . S
C712 N709 1.314 . S
C712 C710 1.353 . S
C712 H770 0.930 . S
C713 N709 1.279 . S
C713 C711 1.358 . S
C713 H771 0.930 . S
C714 C717 1.348 . S
C714 C718 1.356 . S
C714 O765 1.325 . S
C715 N716 1.279 . S
C715 C718 1.358 . S
C715 H772 0.930 . S
N716 C715 1.279 . S
N716 C719 1.314 . S
C717 C714 1.348 . S
C717 C719 1.353 . S
C717 H773 0.929 . S
C718 C714 1.356 . S
C718 C715 1.358 . S
C718 H774 0.930 . S
C719 N716 1.314 . S
C719 C717 1.353 . S
C719 H775 0.930 . S
C720 N721 1.314 . S
C720 C725 1.353 . S
C720 H726 0.930 . S
N721 Li704 1.990 . S
N721 C720 1.314 . S
N721 C723 1.279 . S
C722 C723 1.358 . S
C722 C724 1.356 . S
C722 H776 0.930 . S
C723 N721 1.279 . S
C723 C722 1.358 . S
C723 H727 0.930 . S
C724 C722 1.356 . S
C724 C725 1.348 . S
C725 C720 1.353 . S
C725 C724 1.348 . S
C725 H777 0.929 . S
H726 C720 0.930 . S
H727 C723 0.930 . S
C728 N729 1.314 . S
C728 C730 1.353 . S
C728 H734 0.930 . S
N729 Li705 1.990 . S
N729 C728 1.314 . S
N729 C732 1.279 . S
C730 C728 1.353 . S
C730 C733 1.348 . S
C730 H778 0.929 . S
C731 C732 1.358 . S
C731 C733 1.356 . S
C731 H779 0.930 . S
C732 N729 1.279 . S
C732 C731 1.358 . S
C732 H735 0.930 . S
C733 C730 1.348 . S
C733 C731 1.356 . S
H734 C728 0.930 . S
H735 C732 0.930 . S
C736 C738 1.348 . S
C736 C739 1.356 . S
C736 O766 1.325 1_655 S
N737 C740 1.314 . S
N737 C741 1.279 . S
C738 C736 1.348 . S
C738 C740 1.353 . S
C738 H780 0.929 . S
C739 C736 1.356 . S
C739 C741 1.358 . S
C739 H781 0.930 . S
C740 N737 1.314 . S
C740 C738 1.353 . S
C740 H782 0.930 . S
C741 N737 1.279 . S
C741 C739 1.358 . S
C741 H783 0.930 . S
C742 C743 1.348 1_455 S
C742 C744 1.356 . S
C742 O767 1.325 . S
C743 C742 1.348 1_655 S
C743 C745 1.353 . S
C743 H784 0.929 . S
C744 C742 1.356 . S
C744 C746 1.358 . S
C744 H785 0.930 . S
C745 C743 1.353 . S
C745 N747 1.314 . S
C745 H786 0.930 . S
C746 C744 1.358 . S
C746 N747 1.279 1_455 S
C746 H787 0.930 . S
N747 C745 1.314 . S
N747 C746 1.279 1_655 S
C748 C750 1.353 . S
C748 N751 1.314 . S
C748 H754 0.930 . S
C749 N751 1.279 . S
C749 C752 1.358 . S
C749 H755 0.930 . S
C750 C748 1.353 . S
C750 C753 1.348 . S
C750 H788 0.929 . S
N751 Li706 1.990 1_655 S
N751 C748 1.314 . S
N751 C749 1.279 . S
C752 C749 1.358 . S
C752 C753 1.356 . S
C752 H789 0.930 . S
C753 C750 1.348 . S
C753 C752 1.356 . S
H754 C748 0.930 . S
H755 C749 0.930 . S
C756 N757 1.314 . S
C756 C758 1.353 . S
C756 H762 0.930 . S
N757 Li707 1.990 . S
N757 C756 1.314 . S
N757 C760 1.279 . S
C758 C756 1.353 . S
C758 C761 1.348 . S
C758 H790 0.929 . S
C759 C760 1.358 . S
C759 C761 1.356 . S
C759 H791 0.934 1_455 S
C760 N757 1.279 . S
C760 C759 1.358 . S
C760 H763 0.930 . S
C761 C758 1.348 . S
C761 C759 1.356 . S
H762 C756 0.930 . S
H763 C760 0.930 . S
O764 Li704 1.956 . S
O764 Li705 1.970 . S
O764 Li706 1.961 . S
O764 C708 1.325 . S
O765 Li704 1.970 . S
O765 Li705 1.956 . S
O765 Li707 1.961 . S
O765 C714 1.325 . S
O766 Li704 1.961 . S
O766 Li706 1.956 . S
O766 Li707 1.970 . S
O766 C736 1.325 1_455 S
O767 Li705 1.961 . S
O767 Li706 1.970 . S
O767 Li707 1.956 . S
O767 C742 1.325 . S
H768 C710 0.929 . S
H769 C711 0.930 . S
H770 C712 0.930 . S
H771 C713 0.930 . S
H772 C715 0.930 . S
H773 C717 0.929 . S
H774 C718 0.930 . S
H775 C719 0.930 . S
H776 C722 0.930 . S
H777 C725 0.929 . S
H778 C730 0.929 . S
H779 C731 0.930 . S
H780 C738 0.929 . S
H781 C739 0.930 . S
H782 C740 0.930 . S
H783 C741 0.930 . S
H784 C743 0.929 . S
H785 C744 0.930 . S
H786 C745 0.930 . S
H787 C746 0.930 . S
H788 C750 0.929 . S
H789 C752 0.930 . S
H790 C758 0.929 . S
H791 C759 0.934 1_655 S
Li792 N809 1.945 1_565 S
Li792 O852 2.036 . S
Li792 O853 1.967 . S
Li792 O854 1.958 . S
Li793 N817 1.990 . S
Li793 O852 1.970 . S
Li793 O853 1.956 . S
Li793 O855 1.961 . S
Li794 N839 1.990 . S
Li794 O852 1.961 . S
Li794 O854 1.956 . S
Li794 O855 1.970 . S
Li795 N845 1.990 . S
Li795 O853 1.961 . S
Li795 O854 1.970 . S
Li795 O855 1.956 . S
C796 C798 1.348 . S
C796 C799 1.356 . S
C796 O852 1.325 . S
N797 C800 1.314 . S
N797 C801 1.279 . S
C798 C796 1.348 . S
C798 C800 1.353 . S
C798 H856 0.929 . S
C799 C796 1.356 . S
C799 C801 1.358 . S
C799 H857 0.930 . S
C800 N797 1.314 . S
C800 C798 1.353 . S
C800 H858 0.930 . S
C801 N797 1.279 . S
C801 C799 1.358 . S
C801 H859 0.930 . S
C802 C805 1.348 1_565 S
C802 C806 1.356 . S
C802 O853 1.325 . S
C803 N804 1.279 1_565 S
C803 C806 1.358 . S
C803 H860 0.930 . S
N804 C803 1.279 1_545 S
N804 C807 1.314 . S
C805 C802 1.348 1_545 S
C805 C807 1.353 . S
C805 H861 0.929 . S
C806 C802 1.356 . S
C806 C803 1.358 . S
C806 H862 0.930 . S
C807 N804 1.314 . S
C807 C805 1.353 . S
C807 H863 0.930 . S
C808 N809 1.314 . S
C808 C813 1.353 . S
C808 H814 0.930 . S
N809 Li792 1.945 1_545 S
N809 C808 1.314 . S
N809 C811 1.279 . S
C810 C811 1.358 . S
C810 C812 1.356 . S
C810 H864 0.930 . S
C811 N809 1.279 . S
C811 C810 1.358 . S
C811 H815 0.930 . S
C812 C810 1.356 . S
C812 C813 1.348 . S
C813 C808 1.353 . S
C813 C812 1.348 . S
C813 H865 0.929 . S
H814 C808 0.930 . S
H815 C811 0.930 . S
C816 N817 1.314 . S
C816 C818 1.353 . S
C816 H822 0.930 . S
N817 Li793 1.990 . S
N817 C816 1.314 . S
N817 C820 1.279 . S
C818 C816 1.353 . S
C818 C821 1.348 . S
C818 H866 0.929 . S
C819 C820 1.358 . S
C819 C821 1.356 . S
C819 H867 0.930 . S
C820 N817 1.279 . S
C820 C819 1.358 . S
C820 H823 0.930 . S
C821 C818 1.348 . S
C821 C819 1.356 . S
H822 C816 0.930 . S
H823 C820 0.930 . S
C824 C826 1.348 . S
C824 C827 1.356 . S
C824 O854 1.325 1_545 S
N825 C828 1.314 . S
N825 C829 1.279 . S
C826 C824 1.348 . S
C826 C828 1.353 . S
C826 H868 0.929 1_545 S
C827 C824 1.356 . S
C827 C829 1.358 . S
C827 H869 0.930 . S
C828 N825 1.314 . S
C828 C826 1.353 . S
C828 H870 0.930 . S
C829 N825 1.279 . S
C829 C827 1.358 . S
C829 H871 0.930 . S
C830 C831 1.348 . S
C830 C832 1.356 . S
C830 O855 1.325 . S
C831 C830 1.348 . S
C831 C833 1.353 . S
C831 H872 0.929 . S
C832 C830 1.356 . S
C832 C834 1.358 . S
C832 H873 0.930 . S
C833 C831 1.353 . S
C833 N835 1.314 . S
C833 H874 0.930 . S
C834 C832 1.358 . S
C834 N835 1.279 . S
C834 H875 0.930 . S
N835 C833 1.314 . S
N835 C834 1.279 . S
C836 C838 1.353 . S
C836 N839 1.314 . S
C836 H842 0.930 . S
C837 N839 1.279 . S
C837 C840 1.358 . S
C837 H843 0.930 . S
C838 C836 1.353 . S
C838 C841 1.348 . S
C838 H876 0.929 . S
N839 Li794 1.990 . S
N839 C836 1.314 . S
N839 C837 1.279 . S
C840 C837 1.358 . S
C840 C841 1.356 . S
C840 H877 0.930 . S
C841 C838 1.348 . S
C841 C840 1.356 . S
H842 C836 0.930 . S
H843 C837 0.930 . S
C844 N845 1.314 . S
C844 C846 1.353 . S
C844 H850 0.930 1_565 S
N845 Li795 1.990 . S
N845 C844 1.314 . S
N845 C848 1.279 . S
C846 C844 1.353 . S
C846 C849 1.348 . S
C846 H878 0.929 1_565 S
C847 C848 1.358 . S
C847 C849 1.356 . S
C847 H879 0.930 . S
C848 N845 1.279 . S
C848 C847 1.358 . S
C848 H851 0.930 . S
C849 C846 1.348 . S
C849 C847 1.356 . S
H850 C844 0.930 1_545 S
H851 C848 0.930 . S
O852 Li792 2.036 . S
O852 Li793 1.970 . S
O852 Li794 1.961 . S
O852 C796 1.325 . S
O853 Li792 1.967 . S
O853 Li793 1.956 . S
O853 Li795 1.961 . S
O853 C802 1.325 . S
O854 Li792 1.958 . S
O854 Li794 1.956 . S
O854 Li795 1.970 . S
O854 C824 1.325 1_565 S
O855 Li793 1.961 . S
O855 Li794 1.970 . S
O855 Li795 1.956 . S
O855 C830 1.325 . S
H856 C798 0.929 . S
H857 C799 0.930 . S
H858 C800 0.930 . S
H859 C801 0.930 . S
H860 C803 0.930 . S
H861 C805 0.929 . S
H862 C806 0.930 . S
H863 C807 0.930 . S
H864 C810 0.930 . S
H865 C813 0.929 . S
H866 C818 0.929 . S
H867 C819 0.930 . S
H868 C826 0.929 1_565 S
H869 C827 0.930 . S
H870 C828 0.930 . S
H871 C829 0.930 . S
H872 C831 0.929 . S
H873 C832 0.930 . S
H874 C833 0.930 . S
H875 C834 0.930 . S
H876 C838 0.929 . S
H877 C840 0.930 . S
H878 C846 0.929 1_545 S
H879 C847 0.930 . S
Li880 N897 1.990 . S
Li880 O940 1.956 . S
Li880 O941 1.970 . S
Li880 O942 1.961 . S
Li881 N905 1.918 1_455 S
Li881 O940 2.025 . S
Li881 O941 1.991 . S
Li881 O943 1.990 . S
Li882 N927 1.990 . S
Li882 O940 1.961 . S
Li882 O942 1.956 . S
Li882 O943 1.970 . S
Li883 N933 1.990 . S
Li883 O941 1.961 . S
Li883 O942 1.970 . S
Li883 O943 1.956 . S
C884 C886 1.348 1_455 S
C884 C887 1.356 . S
C884 O940 1.325 . S
N885 C888 1.314 . S
N885 C889 1.279 1_655 S
C886 C884 1.348 1_655 S
C886 C888 1.353 . S
C886 H944 0.929 . S
C887 C884 1.356 . S
C887 C889 1.358 . S
C887 H945 0.930 . S
C888 N885 1.314 . S
C888 C886 1.353 . S
C888 H946 0.930 . S
C889 N885 1.279 1_455 S
C889 C887 1.358 . S
C889 H947 0.930 . S
C890 C893 1.348 . S
C890 C894 1.356 . S
C890 O941 1.325 . S
C891 N892 1.279 . S
C891 C894 1.358 . S
C891 H948 0.930 . S
N892 C891 1.279 . S
N892 C895 1.314 . S
C893 C890 1.348 . S
C893 C895 1.353 . S
C893 H949 0.929 . S
C894 C890 1.356 . S
C894 C891 1.358 . S
C894 H950 0.930 . S
C895 N892 1.314 . S
C895 C893 1.353 . S
C895 H951 0.930 . S
C896 N897 1.314 . S
C896 C901 1.353 . S
C896 H902 0.930 . S
N897 Li880 1.990 . S
N897 C896 1.314 . S
N897 C899 1.279 . S
C898 C899 1.358 . S
C898 C900 1.356 . S
C898 H952 0.930 . S
C899 N897 1.279 . S
C899 C898 1.358 . S
C899 H903 0.930 . S
C900 C898 1.356 . S
C900 C901 1.348 . S
C901 C896 1.353 . S
C901 C900 1.348 . S
C901 H953 0.929 . S
H902 C896 0.930 . S
H903 C899 0.930 . S
C904 N905 1.314 . S
C904 C906 1.353 . S
C904 H910 0.930 . S
N905 Li881 1.918 1_655 S
N905 C904 1.314 . S
N905 C908 1.279 . S
C906 C904 1.353 . S
C906 C909 1.348 . S
C906 H954 0.929 . S
C907 C908 1.358 . S
C907 C909 1.356 . S
C907 H955 0.930 . S
C908 N905 1.279 . S
C908 C907 1.358 . S
C908 H911 0.930 . S
C909 C906 1.348 . S
C909 C907 1.356 . S
H910 C904 0.930 . S
H911 C908 0.930 . S
C912 C914 1.348 . S
C912 C915 1.356 . S
C912 O942 1.325 . S
N913 C916 1.314 . S
N913 C917 1.279 . S
C914 C912 1.348 . S
C914 C916 1.353 . S
C914 H956 0.929 . S
C915 C912 1.356 . S
C915 C917 1.358 . S
C915 H957 0.930 . S
C916 N913 1.314 . S
C916 C914 1.353 . S
C916 H958 0.930 . S
C917 N913 1.279 . S
C917 C915 1.358 . S
C917 H959 0.930 . S
C918 C919 1.348 . S
C918 C920 1.356 . S
C918 O943 1.325 1_655 S
C919 C918 1.348 . S
C919 C921 1.353 . S
C919 H960 0.929 1_655 S
C920 C918 1.356 . S
C920 C922 1.358 . S
C920 H961 0.930 . S
C921 C919 1.353 . S
C921 N923 1.314 . S
C921 H962 0.930 . S
C922 C920 1.358 . S
C922 N923 1.279 . S
C922 H963 0.930 . S
N923 C921 1.314 . S
N923 C922 1.279 . S
C924 C926 1.353 . S
C924 N927 1.314 . S
C924 H930 0.930 1_455 S
C925 N927 1.279 . S
C925 C928 1.358 . S
C925 H931 0.930 . S
C926 C924 1.353 . S
C926 C929 1.348 . S
C926 H964 0.929 1_455 S
N927 Li882 1.990 . S
N927 C924 1.314 . S
N927 C925 1.279 . S
C928 C925 1.358 . S
C928 C929 1.356 . S
C928 H965 0.930 . S
C929 C926 1.348 . S
C929 C928 1.356 . S
H930 C924 0.930 1_655 S
H931 C925 0.930 . S
C932 N933 1.314 . S
C932 C934 1.353 . S
C932 H938 0.930 . S
N933 Li883 1.990 . S
N933 C932 1.314 . S
N933 C936 1.279 . S
C934 C932 1.353 . S
C934 C937 1.348 . S
C934 H966 0.929 . S
C935 C936 1.358 . S
C935 C937 1.356 . S
C935 H967 0.930 . S
C936 N933 1.279 . S
C936 C935 1.358 . S
C936 H939 0.930 . S
C937 C934 1.348 . S
C937 C935 1.356 . S
H938 C932 0.930 . S
H939 C936 0.930 . S
O940 Li880 1.956 . S
O940 Li881 2.025 . S
O940 Li882 1.961 . S
O940 C884 1.325 . S
O941 Li880 1.970 . S
O941 Li881 1.991 . S
O941 Li883 1.961 . S
O941 C890 1.325 . S
O942 Li880 1.961 . S
O942 Li882 1.956 . S
O942 Li883 1.970 . S
O942 C912 1.325 . S
O943 Li881 1.990 . S
O943 Li882 1.970 . S
O943 Li883 1.956 . S
O943 C918 1.325 1_455 S
H944 C886 0.929 . S
H945 C887 0.930 . S
H946 C888 0.930 . S
H947 C889 0.930 . S
H948 C891 0.930 . S
H949 C893 0.929 . S
H950 C894 0.930 . S
H951 C895 0.930 . S
H952 C898 0.930 . S
H953 C901 0.929 . S
H954 C906 0.929 . S
H955 C907 0.930 . S
H956 C914 0.929 . S
H957 C915 0.930 . S
H958 C916 0.930 . S
H959 C917 0.930 . S
H960 C919 0.929 1_455 S
H961 C920 0.930 . S
H962 C921 0.930 . S
H963 C922 0.930 . S
H964 C926 0.929 1_655 S
H965 C928 0.930 . S
H966 C934 0.929 . S
H967 C935 0.930 . S
Li968 N985 1.990 . S
Li968 O1028 1.956 . S
Li968 O1029 1.970 . S
Li968 O1030 1.961 . S
Li969 N993 1.990 . S
Li969 O1028 1.970 . S
Li969 O1029 1.956 . S
Li969 O1031 1.961 . S
Li970 N1015 1.990 . S
Li970 O1028 1.961 . S
Li970 O1030 1.956 . S
Li970 O1031 1.970 . S
Li971 N1021 1.990 . S
Li971 O1029 1.961 . S
Li971 O1030 1.970 . S
Li971 O1031 1.956 . S
C972 C974 1.348 . S
C972 C975 1.356 . S
C972 O1028 1.325 . S
N973 C976 1.314 . S
N973 C977 1.279 . S
C974 C972 1.348 . S
C974 C976 1.353 . S
C974 H1032 0.929 . S
C975 C972 1.356 . S
C975 C977 1.358 . S
C975 H1033 0.930 . S
C976 N973 1.314 . S
C976 C974 1.353 . S
C976 H1034 0.930 . S
C977 N973 1.279 . S
C977 C975 1.358 . S
C977 H1035 0.930 . S
C978 C981 1.348 . S
C978 C982 1.356 . S
C978 O1029 1.325 . S
C979 N980 1.279 . S
C979 C982 1.358 . S
C979 H1036 0.930 . S
N980 C979 1.279 . S
N980 C983 1.314 . S
C981 C978 1.348 . S
C981 C983 1.353 . S
C981 H1037 0.929 . S
C982 C978 1.356 . S
C982 C979 1.358 . S
C982 H1038 0.930 . S
C983 N980 1.314 . S
C983 C981 1.353 . S
C983 H1039 0.930 . S
C984 N985 1.314 . S
C984 C989 1.353 . S
C984 H990 0.930 . S
N985 Li968 1.990 . S
N985 C984 1.314 . S
N985 C987 1.279 . S
C986 C987 1.358 . S
C986 C988 1.356 . S
C986 H1040 0.930 . S
C987 N985 1.279 . S
C987 C986 1.358 . S
C987 H991 0.930 . S
C988 C986 1.356 . S
C988 C989 1.348 . S
C989 C984 1.353 . S
C989 C988 1.348 . S
C989 H1041 0.929 . S
H990 C984 0.930 . S
H991 C987 0.930 . S
C992 N993 1.314 . S
C992 C994 1.353 . S
C992 H998 0.930 . S
N993 Li969 1.990 . S
N993 C992 1.314 . S
N993 C996 1.279 . S
C994 C992 1.353 . S
C994 C997 1.348 . S
C994 H1042 0.929 . S
C995 C996 1.358 . S
C995 C997 1.356 . S
C995 H1043 0.930 . S
C996 N993 1.279 . S
C996 C995 1.358 . S
C996 H999 0.930 . S
C997 C994 1.348 . S
C997 C995 1.356 . S
H998 C992 0.930 . S
H999 C996 0.930 . S
C1000 C1002 1.348 . S
C1000 C1003 1.356 . S
C1000 O1030 1.325 . S
N1001 C1004 1.314 . S
N1001 C1005 1.279 . S
C1002 C1000 1.348 . S
C1002 C1004 1.353 . S
C1002 H1044 0.929 . S
C1003 C1000 1.356 . S
C1003 C1005 1.358 . S
C1003 H1045 0.930 . S
C1004 N1001 1.314 . S
C1004 C1002 1.353 . S
C1004 H1046 0.930 . S
C1005 N1001 1.279 . S
C1005 C1003 1.358 . S
C1005 H1047 0.930 . S
C1006 C1007 1.348 . S
C1006 C1008 1.356 . S
C1006 O1031 1.325 . S
C1007 C1006 1.348 . S
C1007 C1009 1.353 . S
C1007 H1048 0.929 . S
C1008 C1006 1.356 . S
C1008 C1010 1.358 . S
C1008 H1049 0.930 . S
C1009 C1007 1.353 . S
C1009 N1011 1.314 . S
C1009 H1050 0.930 . S
C1010 C1008 1.358 . S
C1010 N1011 1.279 . S
C1010 H1051 0.930 . S
N1011 C1009 1.314 . S
N1011 C1010 1.279 . S
C1012 C1014 1.353 . S
C1012 N1015 1.314 . S
C1012 H1018 0.930 . S
C1013 N1015 1.279 . S
C1013 C1016 1.358 . S
C1013 H1019 0.930 . S
C1014 C1012 1.353 . S
C1014 C1017 1.348 . S
C1014 H1052 0.929 . S
N1015 Li970 1.990 . S
N1015 C1012 1.314 . S
N1015 C1013 1.279 . S
C1016 C1013 1.358 . S
C1016 C1017 1.356 . S
C1016 H1053 0.930 . S
C1017 C1014 1.348 . S
C1017 C1016 1.356 . S
H1018 C1012 0.930 . S
H1019 C1013 0.930 . S
C1020 N1021 1.314 . S
C1020 C1022 1.353 . S
C1020 H1026 0.930 . S
N1021 Li971 1.990 . S
N1021 C1020 1.314 . S
N1021 C1024 1.279 . S
C1022 C1020 1.353 . S
C1022 C1025 1.348 . S
C1022 H1054 0.929 . S
C1023 C1024 1.358 . S
C1023 C1025 1.356 . S
C1023 H1055 0.930 . S
C1024 N1021 1.279 . S
C1024 C1023 1.358 . S
C1024 H1027 0.930 . S
C1025 C1022 1.348 . S
C1025 C1023 1.356 . S
H1026 C1020 0.930 . S
H1027 C1024 0.930 . S
O1028 Li968 1.956 . S
O1028 Li969 1.970 . S
O1028 Li970 1.961 . S
O1028 C972 1.325 . S
O1029 Li968 1.970 . S
O1029 Li969 1.956 . S
O1029 Li971 1.961 . S
O1029 C978 1.325 . S
O1030 Li968 1.961 . S
O1030 Li970 1.956 . S
O1030 Li971 1.970 . S
O1030 C1000 1.325 . S
O1031 Li969 1.961 . S
O1031 Li970 1.970 . S
O1031 Li971 1.956 . S
O1031 C1006 1.325 . S
H1032 C974 0.929 . S
H1033 C975 0.930 . S
H1034 C976 0.930 . S
H1035 C977 0.930 . S
H1036 C979 0.930 . S
H1037 C981 0.929 . S
H1038 C982 0.930 . S
H1039 C983 0.930 . S
H1040 C986 0.930 . S
H1041 C989 0.929 . S
H1042 C994 0.929 . S
H1043 C995 0.930 . S
H1044 C1002 0.929 . S
H1045 C1003 0.930 . S
H1046 C1004 0.930 . S
H1047 C1005 0.930 . S
H1048 C1007 0.929 . S
H1049 C1008 0.930 . S
H1050 C1009 0.930 . S
H1051 C1010 0.930 . S
H1052 C1014 0.929 . S
H1053 C1016 0.930 . S
H1054 C1022 0.929 . S
H1055 C1023 0.930 . S
Li1056 N1073 1.944 1_545 S
Li1056 O1116 1.957 . S
Li1056 O1117 1.972 . S
Li1056 O1118 2.040 . S
Li1057 N1081 1.990 . S
Li1057 O1116 1.970 . S
Li1057 O1117 1.956 . S
Li1057 O1119 1.961 . S
Li1058 N1103 1.990 . S
Li1058 O1116 1.961 . S
Li1058 O1118 1.956 . S
Li1058 O1119 1.970 . S
Li1059 N1109 1.990 . S
Li1059 O1117 1.961 . S
Li1059 O1118 1.970 . S
Li1059 O1119 1.956 . S
C1060 C1062 1.348 . S
C1060 C1063 1.356 . S
C1060 O1116 1.325 1_565 S
N1061 C1064 1.314 . S
N1061 C1065 1.279 . S
C1062 C1060 1.348 . S
C1062 C1064 1.353 . S
C1062 H1120 0.929 . S
C1063 C1060 1.356 . S
C1063 C1065 1.358 . S
C1063 H1121 0.930 . S
C1064 N1061 1.314 . S
C1064 C1062 1.353 . S
C1064 H1122 0.930 . S
C1065 N1061 1.279 . S
C1065 C1063 1.358 . S
C1065 H1123 0.930 . S
C1066 C1069 1.348 1_545 S
C1066 C1070 1.356 . S
C1066 O1117 1.325 . S
C1067 N1068 1.279 1_545 S
C1067 C1070 1.358 . S
C1067 H1124 0.930 . S
N1068 C1067 1.279 1_565 S
N1068 C1071 1.314 . S
C1069 C1066 1.348 1_565 S
C1069 C1071 1.353 . S
C1069 H1125 0.929 . S
C1070 C1066 1.356 . S
C1070 C1067 1.358 . S
C1070 H1126 0.930 . S
C1071 N1068 1.314 . S
C1071 C1069 1.353 . S
C1071 H1127 0.930 . S
C1072 N1073 1.314 . S
C1072 C1077 1.353 . S
C1072 H1078 0.930 . S
N1073 Li1056 1.944 1_565 S
N1073 C1072 1.314 . S
N1073 C1075 1.279 . S
C1074 C1075 1.358 . S
C1074 C1076 1.356 . S
C1074 H1128 0.930 . S
C1075 N1073 1.279 . S
C1075 C1074 1.358 . S
C1075 H1079 0.930 . S
C1076 C1074 1.356 . S
C1076 C1077 1.348 . S
C1077 C1072 1.353 . S
C1077 C1076 1.348 . S
C1077 H1129 0.929 . S
H1078 C1072 0.930 . S
H1079 C1075 0.930 . S
C1080 N1081 1.314 . S
C1080 C1082 1.353 . S
C1080 H1086 0.930 . S
N1081 Li1057 1.990 . S
N1081 C1080 1.314 . S
N1081 C1084 1.279 . S
C1082 C1080 1.353 . S
C1082 C1085 1.348 . S
C1082 H1130 0.929 . S
C1083 C1084 1.358 . S
C1083 C1085 1.356 . S
C1083 H1131 0.931 1_545 S
C1084 N1081 1.279 . S
C1084 C1083 1.358 . S
C1084 H1087 0.930 . S
C1085 C1082 1.348 . S
C1085 C1083 1.356 . S
H1086 C1080 0.930 . S
H1087 C1084 0.930 . S
C1088 C1090 1.348 . S
C1088 C1091 1.356 . S
C1088 O1118 1.325 . S
N1089 C1092 1.314 . S
N1089 C1093 1.279 . S
C1090 C1088 1.348 . S
C1090 C1092 1.353 . S
C1090 H1132 0.929 . S
C1091 C1088 1.356 . S
C1091 C1093 1.358 . S
C1091 H1133 0.930 . S
C1092 N1089 1.314 . S
C1092 C1090 1.353 . S
C1092 H1134 0.930 . S
C1093 N1089 1.279 . S
C1093 C1091 1.358 . S
C1093 H1135 0.930 . S
C1094 C1095 1.348 . S
C1094 C1096 1.356 . S
C1094 O1119 1.325 . S
C1095 C1094 1.348 . S
C1095 C1097 1.353 . S
C1095 H1136 0.929 . S
C1096 C1094 1.356 . S
C1096 C1098 1.358 . S
C1096 H1137 0.930 . S
C1097 C1095 1.353 . S
C1097 N1099 1.314 . S
C1097 H1138 0.930 . S
C1098 C1096 1.358 . S
C1098 N1099 1.279 . S
C1098 H1139 0.930 . S
N1099 C1097 1.314 . S
N1099 C1098 1.279 . S
C1100 C1102 1.353 . S
C1100 N1103 1.314 . S
C1100 H1106 0.930 . S
C1101 N1103 1.279 . S
C1101 C1104 1.358 . S
C1101 H1107 0.930 . S
C1102 C1100 1.353 . S
C1102 C1105 1.348 . S
C1102 H1140 0.929 . S
N1103 Li1058 1.990 . S
N1103 C1100 1.314 . S
N1103 C1101 1.279 . S
C1104 C1101 1.358 . S
C1104 C1105 1.356 . S
C1104 H1141 0.930 . S
C1105 C1102 1.348 . S
C1105 C1104 1.356 . S
H1106 C1100 0.930 . S
H1107 C1101 0.930 . S
C1108 N1109 1.314 . S
C1108 C1110 1.353 . S
C1108 H1114 0.930 . S
N1109 Li1059 1.990 . S
N1109 C1108 1.314 . S
N1109 C1112 1.279 . S
C1110 C1108 1.353 . S
C1110 C1113 1.348 . S
C1110 H1142 0.929 . S
C1111 C1112 1.358 . S
C1111 C1113 1.356 . S
C1111 H1143 0.930 . S
C1112 N1109 1.279 . S
C1112 C1111 1.358 . S
C1112 H1115 0.930 . S
C1113 C1110 1.348 . S
C1113 C1111 1.356 . S
H1114 C1108 0.930 . S
H1115 C1112 0.930 . S
O1116 Li1056 1.957 . S
O1116 Li1057 1.970 . S
O1116 Li1058 1.961 . S
O1116 C1060 1.325 1_545 S
O1117 Li1056 1.972 . S
O1117 Li1057 1.956 . S
O1117 Li1059 1.961 . S
O1117 C1066 1.325 . S
O1118 Li1056 2.040 . S
O1118 Li1058 1.956 . S
O1118 Li1059 1.970 . S
O1118 C1088 1.325 . S
O1119 Li1057 1.961 . S
O1119 Li1058 1.970 . S
O1119 Li1059 1.956 . S
O1119 C1094 1.325 . S
H1120 C1062 0.929 . S
H1121 C1063 0.930 . S
H1122 C1064 0.930 . S
H1123 C1065 0.930 . S
H1124 C1067 0.930 . S
H1125 C1069 0.929 . S
H1126 C1070 0.930 . S
H1127 C1071 0.930 . S
H1128 C1074 0.930 . S
H1129 C1077 0.929 . S
H1130 C1082 0.929 . S
H1131 C1083 0.931 1_565 S
H1132 C1090 0.929 . S
H1133 C1091 0.930 . S
H1134 C1092 0.930 . S
H1135 C1093 0.930 . S
H1136 C1095 0.929 . S
H1137 C1096 0.930 . S
H1138 C1097 0.930 . S
H1139 C1098 0.930 . S
H1140 C1102 0.929 . S
H1141 C1104 0.930 . S
H1142 C1110 0.929 . S
H1143 C1111 0.930 . S
Li1144 N1161 1.993 1_655 S
Li1144 O1204 1.955 . S
Li1144 O1205 1.968 . S
Li1144 O1206 1.960 . S
Li1145 N1169 1.990 . S
Li1145 O1204 1.970 . S
Li1145 O1205 1.956 . S
Li1145 O1207 1.961 . S
Li1146 N1191 1.990 . S
Li1146 O1204 1.961 . S
Li1146 O1206 1.956 . S
Li1146 O1207 1.970 . S
Li1147 N1197 1.990 . S
Li1147 O1205 1.961 . S
Li1147 O1206 1.970 . S
Li1147 O1207 1.956 . S
C1148 C1150 1.348 . S
C1148 C1151 1.356 . S
C1148 O1204 1.325 1_455 S
N1149 C1152 1.314 . S
N1149 C1153 1.279 . S
C1150 C1148 1.348 . S
C1150 C1152 1.353 . S
C1150 H1208 0.929 . S
C1151 C1148 1.356 . S
C1151 C1153 1.358 . S
C1151 H1209 0.930 . S
C1152 N1149 1.314 . S
C1152 C1150 1.353 . S
C1152 H1210 0.930 . S
C1153 N1149 1.279 . S
C1153 C1151 1.358 . S
C1153 H1211 0.930 . S
C1154 C1157 1.348 1_655 S
C1154 C1158 1.356 . S
C1154 O1205 1.325 . S
C1155 N1156 1.279 1_655 S
C1155 C1158 1.358 . S
C1155 H1212 0.930 . S
N1156 C1155 1.279 1_455 S
N1156 C1159 1.314 . S
C1157 C1154 1.348 1_455 S
C1157 C1159 1.353 . S
C1157 H1213 0.929 . S
C1158 C1154 1.356 . S
C1158 C1155 1.358 . S
C1158 H1214 0.930 . S
C1159 N1156 1.314 . S
C1159 C1157 1.353 . S
C1159 H1215 0.930 . S
C1160 N1161 1.314 . S
C1160 C1165 1.353 . S
C1160 H1166 0.930 . S
N1161 Li1144 1.993 1_455 S
N1161 C1160 1.314 . S
N1161 C1163 1.279 . S
C1162 C1163 1.358 . S
C1162 C1164 1.356 . S
C1162 H1216 0.930 . S
C1163 N1161 1.279 . S
C1163 C1162 1.358 . S
C1163 H1167 0.930 . S
C1164 C1162 1.356 . S
C1164 C1165 1.348 . S
C1165 C1160 1.353 . S
C1165 C1164 1.348 . S
C1165 H1217 0.929 . S
H1166 C1160 0.930 . S
H1167 C1163 0.930 . S
C1168 N1169 1.314 . S
C1168 C1170 1.353 . S
C1168 H1174 0.930 . S
N1169 Li1145 1.990 . S
N1169 C1168 1.314 . S
N1169 C1172 1.279 . S
C1170 C1168 1.353 . S
C1170 C1173 1.348 . S
C1170 H1218 0.929 . S
C1171 C1172 1.358 . S
C1171 C1173 1.356 . S
C1171 H1219 0.921 1_655 S
C1172 N1169 1.279 . S
C1172 C1171 1.358 . S
C1172 H1175 0.930 . S
C1173 C1170 1.348 . S
C1173 C1171 1.356 . S
H1174 C1168 0.930 . S
H1175 C1172 0.930 . S
C1176 C1178 1.348 . S
C1176 C1179 1.356 . S
C1176 O1206 1.325 . S
N1177 C1180 1.314 . S
N1177 C1181 1.279 . S
C1178 C1176 1.348 . S
C1178 C1180 1.353 . S
C1178 H1220 0.929 . S
C1179 C1176 1.356 . S
C1179 C1181 1.358 . S
C1179 H1221 0.930 . S
C1180 N1177 1.314 . S
C1180 C1178 1.353 . S
C1180 H1222 0.930 . S
C1181 N1177 1.279 . S
C1181 C1179 1.358 . S
C1181 H1223 0.930 . S
C1182 C1183 1.348 . S
C1182 C1184 1.356 . S
C1182 O1207 1.325 . S
C1183 C1182 1.348 . S
C1183 C1185 1.353 . S
C1183 H1224 0.929 . S
C1184 C1182 1.356 . S
C1184 C1186 1.358 . S
C1184 H1225 0.930 . S
C1185 C1183 1.353 . S
C1185 N1187 1.314 . S
C1185 H1226 0.930 . S
C1186 C1184 1.358 . S
C1186 N1187 1.279 . S
C1186 H1227 0.930 . S
N1187 C1185 1.314 . S
N1187 C1186 1.279 . S
C1188 C1190 1.353 . S
C1188 N1191 1.314 . S
C1188 H1194 0.930 . S
C1189 N1191 1.279 . S
C1189 C1192 1.358 . S
C1189 H1195 0.930 . S
C1190 C1188 1.353 . S
C1190 C1193 1.348 . S
C1190 H1228 0.929 . S
N1191 Li1146 1.990 . S
N1191 C1188 1.314 . S
N1191 C1189 1.279 . S
C1192 C1189 1.358 . S
C1192 C1193 1.356 . S
C1192 H1229 0.930 . S
C1193 C1190 1.348 . S
C1193 C1192 1.356 . S
H1194 C1188 0.930 . S
H1195 C1189 0.930 . S
C1196 N1197 1.314 . S
C1196 C1198 1.353 . S
C1196 H1202 0.930 . S
N1197 Li1147 1.990 . S
N1197 C1196 1.314 . S
N1197 C1200 1.279 . S
C1198 C1196 1.353 . S
C1198 C1201 1.348 . S
C1198 H1230 0.929 . S
C1199 C1200 1.358 . S
C1199 C1201 1.356 . S
C1199 H1231 0.930 . S
C1200 N1197 1.279 . S
C1200 C1199 1.358 . S
C1200 H1203 0.930 . S
C1201 C1198 1.348 . S
C1201 C1199 1.356 . S
H1202 C1196 0.930 . S
H1203 C1200 0.930 . S
O1204 Li1144 1.955 . S
O1204 Li1145 1.970 . S
O1204 Li1146 1.961 . S
O1204 C1148 1.325 1_655 S
O1205 Li1144 1.968 . S
O1205 Li1145 1.956 . S
O1205 Li1147 1.961 . S
O1205 C1154 1.325 . S
O1206 Li1144 1.960 . S
O1206 Li1146 1.956 . S
O1206 Li1147 1.970 . S
O1206 C1176 1.325 . S
O1207 Li1145 1.961 . S
O1207 Li1146 1.970 . S
O1207 Li1147 1.956 . S
O1207 C1182 1.325 . S
H1208 C1150 0.929 . S
H1209 C1151 0.930 . S
H1210 C1152 0.930 . S
H1211 C1153 0.930 . S
H1212 C1155 0.930 . S
H1213 C1157 0.929 . S
H1214 C1158 0.930 . S
H1215 C1159 0.930 . S
H1216 C1162 0.930 . S
H1217 C1165 0.929 . S
H1218 C1170 0.929 . S
H1219 C1171 0.921 1_455 S
H1220 C1178 0.929 . S
H1221 C1179 0.930 . S
H1222 C1180 0.930 . S
H1223 C1181 0.930 . S
H1224 C1183 0.929 . S
H1225 C1184 0.930 . S
H1226 C1185 0.930 . S
H1227 C1186 0.930 . S
H1228 C1190 0.929 . S
H1229 C1192 0.930 . S
H1230 C1198 0.929 . S
H1231 C1199 0.930 . S
Li1232 N1249 1.990 . S
Li1232 O1292 1.956 . S
Li1232 O1293 1.970 . S
Li1232 O1294 1.961 . S
Li1233 N1257 1.990 . S
Li1233 O1292 1.970 . S
Li1233 O1293 1.956 . S
Li1233 O1295 1.961 . S
Li1234 N1279 1.990 . S
Li1234 O1292 1.961 . S
Li1234 O1294 1.956 . S
Li1234 O1295 1.970 . S
Li1235 N1285 1.990 . S
Li1235 O1293 1.961 . S
Li1235 O1294 1.970 . S
Li1235 O1295 1.956 . S
C1236 C1238 1.348 . S
C1236 C1239 1.356 . S
C1236 O1292 1.325 . S
N1237 C1240 1.314 . S
N1237 C1241 1.279 . S
C1238 C1236 1.348 . S
C1238 C1240 1.353 . S
C1238 H1296 0.929 . S
C1239 C1236 1.356 . S
C1239 C1241 1.358 . S
C1239 H1297 0.930 . S
C1240 N1237 1.314 . S
C1240 C1238 1.353 . S
C1240 H1298 0.930 . S
C1241 N1237 1.279 . S
C1241 C1239 1.358 . S
C1241 H1299 0.930 . S
C1242 C1245 1.348 . S
C1242 C1246 1.356 . S
C1242 O1293 1.325 . S
C1243 N1244 1.279 . S
C1243 C1246 1.358 . S
C1243 H1300 0.930 . S
N1244 C1243 1.279 . S
N1244 C1247 1.314 . S
C1245 C1242 1.348 . S
C1245 C1247 1.353 . S
C1245 H1301 0.929 . S
C1246 C1242 1.356 . S
C1246 C1243 1.358 . S
C1246 H1302 0.930 . S
C1247 N1244 1.314 . S
C1247 C1245 1.353 . S
C1247 H1303 0.930 . S
C1248 N1249 1.314 . S
C1248 C1253 1.353 . S
C1248 H1254 0.930 . S
N1249 Li1232 1.990 . S
N1249 C1248 1.314 . S
N1249 C1251 1.279 . S
C1250 C1251 1.358 . S
C1250 C1252 1.356 . S
C1250 H1304 0.930 . S
C1251 N1249 1.279 . S
C1251 C1250 1.358 . S
C1251 H1255 0.930 . S
C1252 C1250 1.356 . S
C1252 C1253 1.348 . S
C1253 C1248 1.353 . S
C1253 C1252 1.348 . S
C1253 H1305 0.929 . S
H1254 C1248 0.930 . S
H1255 C1251 0.930 . S
C1256 N1257 1.314 . S
C1256 C1258 1.353 . S
C1256 H1262 0.930 . S
N1257 Li1233 1.990 . S
N1257 C1256 1.314 . S
N1257 C1260 1.279 . S
C1258 C1256 1.353 . S
C1258 C1261 1.348 . S
C1258 H1306 0.929 . S
C1259 C1260 1.358 . S
C1259 C1261 1.356 . S
C1259 H1307 0.930 . S
C1260 N1257 1.279 . S
C1260 C1259 1.358 . S
C1260 H1263 0.930 . S
C1261 C1258 1.348 . S
C1261 C1259 1.356 . S
H1262 C1256 0.930 . S
H1263 C1260 0.930 . S
C1264 C1266 1.348 . S
C1264 C1267 1.356 . S
C1264 O1294 1.325 . S
N1265 C1268 1.314 . S
N1265 C1269 1.279 . S
C1266 C1264 1.348 . S
C1266 C1268 1.353 . S
C1266 H1308 0.929 . S
C1267 C1264 1.356 . S
C1267 C1269 1.358 . S
C1267 H1309 0.930 . S
C1268 N1265 1.314 . S
C1268 C1266 1.353 . S
C1268 H1310 0.930 . S
C1269 N1265 1.279 . S
C1269 C1267 1.358 . S
C1269 H1311 0.930 . S
C1270 C1271 1.348 . S
C1270 C1272 1.356 . S
C1270 O1295 1.325 . S
C1271 C1270 1.348 . S
C1271 C1273 1.353 . S
C1271 H1312 0.929 . S
C1272 C1270 1.356 . S
C1272 C1274 1.358 . S
C1272 H1313 0.930 . S
C1273 C1271 1.353 . S
C1273 N1275 1.314 . S
C1273 H1314 0.930 . S
C1274 C1272 1.358 . S
C1274 N1275 1.279 . S
C1274 H1315 0.930 . S
N1275 C1273 1.314 . S
N1275 C1274 1.279 . S
C1276 C1278 1.353 . S
C1276 N1279 1.314 . S
C1276 H1282 0.930 . S
C1277 N1279 1.279 . S
C1277 C1280 1.358 . S
C1277 H1283 0.930 . S
C1278 C1276 1.353 . S
C1278 C1281 1.348 . S
C1278 H1316 0.929 . S
N1279 Li1234 1.990 . S
N1279 C1276 1.314 . S
N1279 C1277 1.279 . S
C1280 C1277 1.358 . S
C1280 C1281 1.356 . S
C1280 H1317 0.930 . S
C1281 C1278 1.348 . S
C1281 C1280 1.356 . S
H1282 C1276 0.930 . S
H1283 C1277 0.930 . S
C1284 N1285 1.314 . S
C1284 C1286 1.353 . S
C1284 H1290 0.930 . S
N1285 Li1235 1.990 . S
N1285 C1284 1.314 . S
N1285 C1288 1.279 . S
C1286 C1284 1.353 . S
C1286 C1289 1.348 . S
C1286 H1318 0.929 . S
C1287 C1288 1.358 . S
C1287 C1289 1.356 . S
C1287 H1319 0.930 . S
C1288 N1285 1.279 . S
C1288 C1287 1.358 . S
C1288 H1291 0.930 . S
C1289 C1286 1.348 . S
C1289 C1287 1.356 . S
H1290 C1284 0.930 . S
H1291 C1288 0.930 . S
O1292 Li1232 1.956 . S
O1292 Li1233 1.970 . S
O1292 Li1234 1.961 . S
O1292 C1236 1.325 . S
O1293 Li1232 1.970 . S
O1293 Li1233 1.956 . S
O1293 Li1235 1.961 . S
O1293 C1242 1.325 . S
O1294 Li1232 1.961 . S
O1294 Li1234 1.956 . S
O1294 Li1235 1.970 . S
O1294 C1264 1.325 . S
O1295 Li1233 1.961 . S
O1295 Li1234 1.970 . S
O1295 Li1235 1.956 . S
O1295 C1270 1.325 . S
H1296 C1238 0.929 . S
H1297 C1239 0.930 . S
H1298 C1240 0.930 . S
H1299 C1241 0.930 . S
H1300 C1243 0.930 . S
H1301 C1245 0.929 . S
H1302 C1246 0.930 . S
H1303 C1247 0.930 . S
H1304 C1250 0.930 . S
H1305 C1253 0.929 . S
H1306 C1258 0.929 . S
H1307 C1259 0.930 . S
H1308 C1266 0.929 . S
H1309 C1267 0.930 . S
H1310 C1268 0.930 . S
H1311 C1269 0.930 . S
H1312 C1271 0.929 . S
H1313 C1272 0.930 . S
H1314 C1273 0.930 . S
H1315 C1274 0.930 . S
H1316 C1278 0.929 . S
H1317 C1280 0.930 . S
H1318 C1286 0.929 . S
H1319 C1287 0.930 . S
Li1320 N1337 1.990 . S
Li1320 O1380 1.956 . S
Li1320 O1381 1.970 . S
Li1320 O1382 1.961 . S
Li1321 N1345 1.990 . S
Li1321 O1380 1.970 . S
Li1321 O1381 1.956 . S
Li1321 O1383 1.961 . S
Li1322 N1367 1.990 . S
Li1322 O1380 1.961 . S
Li1322 O1382 1.956 . S
Li1322 O1383 1.970 . S
Li1323 N1373 1.990 . S
Li1323 O1381 1.961 . S
Li1323 O1382 1.970 . S
Li1323 O1383 1.956 . S
C1324 C1326 1.348 . S
C1324 C1327 1.356 . S
C1324 O1380 1.325 . S
N1325 C1328 1.314 . S
N1325 C1329 1.279 . S
C1326 C1324 1.348 . S
C1326 C1328 1.353 . S
C1326 H1384 0.929 . S
C1327 C1324 1.356 . S
C1327 C1329 1.358 . S
C1327 H1385 0.930 . S
C1328 N1325 1.314 . S
C1328 C1326 1.353 . S
C1328 H1386 0.930 . S
C1329 N1325 1.279 . S
C1329 C1327 1.358 . S
C1329 H1387 0.930 . S
C1330 C1333 1.348 . S
C1330 C1334 1.356 . S
C1330 O1381 1.325 . S
C1331 N1332 1.279 . S
C1331 C1334 1.358 . S
C1331 H1388 0.930 . S
N1332 C1331 1.279 . S
N1332 C1335 1.314 . S
C1333 C1330 1.348 . S
C1333 C1335 1.353 . S
C1333 H1389 0.929 . S
C1334 C1330 1.356 . S
C1334 C1331 1.358 . S
C1334 H1390 0.930 . S
C1335 N1332 1.314 . S
C1335 C1333 1.353 . S
C1335 H1391 0.930 . S
C1336 N1337 1.314 . S
C1336 C1341 1.353 . S
C1336 H1342 0.930 . S
N1337 Li1320 1.990 . S
N1337 C1336 1.314 . S
N1337 C1339 1.279 . S
C1338 C1339 1.358 . S
C1338 C1340 1.356 . S
C1338 H1392 0.930 . S
C1339 N1337 1.279 . S
C1339 C1338 1.358 . S
C1339 H1343 0.930 . S
C1340 C1338 1.356 . S
C1340 C1341 1.348 . S
C1341 C1336 1.353 . S
C1341 C1340 1.348 . S
C1341 H1393 0.929 . S
H1342 C1336 0.930 . S
H1343 C1339 0.930 . S
C1344 N1345 1.314 . S
C1344 C1346 1.353 . S
C1344 H1350 0.930 . S
N1345 Li1321 1.990 . S
N1345 C1344 1.314 . S
N1345 C1348 1.279 . S
C1346 C1344 1.353 . S
C1346 C1349 1.348 . S
C1346 H1394 0.929 . S
C1347 C1348 1.358 . S
C1347 C1349 1.356 . S
C1347 H1395 0.930 . S
C1348 N1345 1.279 . S
C1348 C1347 1.358 . S
C1348 H1351 0.930 . S
C1349 C1346 1.348 . S
C1349 C1347 1.356 . S
H1350 C1344 0.930 . S
H1351 C1348 0.930 . S
C1352 C1354 1.348 . S
C1352 C1355 1.356 . S
C1352 O1382 1.325 . S
N1353 C1356 1.314 . S
N1353 C1357 1.279 . S
C1354 C1352 1.348 . S
C1354 C1356 1.353 . S
C1354 H1396 0.929 . S
C1355 C1352 1.356 . S
C1355 C1357 1.358 . S
C1355 H1397 0.930 . S
C1356 N1353 1.314 . S
C1356 C1354 1.353 . S
C1356 H1398 0.930 . S
C1357 N1353 1.279 . S
C1357 C1355 1.358 . S
C1357 H1399 0.930 . S
C1358 C1359 1.348 . S
C1358 C1360 1.356 . S
C1358 O1383 1.325 . S
C1359 C1358 1.348 . S
C1359 C1361 1.353 . S
C1359 H1400 0.929 . S
C1360 C1358 1.356 . S
C1360 C1362 1.358 . S
C1360 H1401 0.930 . S
C1361 C1359 1.353 . S
C1361 N1363 1.314 . S
C1361 H1402 0.930 . S
C1362 C1360 1.358 . S
C1362 N1363 1.279 . S
C1362 H1403 0.930 . S
N1363 C1361 1.314 . S
N1363 C1362 1.279 . S
C1364 C1366 1.353 . S
C1364 N1367 1.314 . S
C1364 H1370 0.930 . S
C1365 N1367 1.279 . S
C1365 C1368 1.358 . S
C1365 H1371 0.930 . S
C1366 C1364 1.353 . S
C1366 C1369 1.348 . S
C1366 H1404 0.929 . S
N1367 Li1322 1.990 . S
N1367 C1364 1.314 . S
N1367 C1365 1.279 . S
C1368 C1365 1.358 . S
C1368 C1369 1.356 . S
C1368 H1405 0.930 . S
C1369 C1366 1.348 . S
C1369 C1368 1.356 . S
H1370 C1364 0.930 . S
H1371 C1365 0.930 . S
C1372 N1373 1.314 . S
C1372 C1374 1.353 . S
C1372 H1378 0.930 . S
N1373 Li1323 1.990 . S
N1373 C1372 1.314 . S
N1373 C1376 1.279 . S
C1374 C1372 1.353 . S
C1374 C1377 1.348 . S
C1374 H1406 0.929 . S
C1375 C1376 1.358 . S
C1375 C1377 1.356 . S
C1375 H1407 0.930 . S
C1376 N1373 1.279 . S
C1376 C1375 1.358 . S
C1376 H1379 0.930 . S
C1377 C1374 1.348 . S
C1377 C1375 1.356 . S
H1378 C1372 0.930 . S
H1379 C1376 0.930 . S
O1380 Li1320 1.956 . S
O1380 Li1321 1.970 . S
O1380 Li1322 1.961 . S
O1380 C1324 1.325 . S
O1381 Li1320 1.970 . S
O1381 Li1321 1.956 . S
O1381 Li1323 1.961 . S
O1381 C1330 1.325 . S
O1382 Li1320 1.961 . S
O1382 Li1322 1.956 . S
O1382 Li1323 1.970 . S
O1382 C1352 1.325 . S
O1383 Li1321 1.961 . S
O1383 Li1322 1.970 . S
O1383 Li1323 1.956 . S
O1383 C1358 1.325 . S
H1384 C1326 0.929 . S
H1385 C1327 0.930 . S
H1386 C1328 0.930 . S
H1387 C1329 0.930 . S
H1388 C1331 0.930 . S
H1389 C1333 0.929 . S
H1390 C1334 0.930 . S
H1391 C1335 0.930 . S
H1392 C1338 0.930 . S
H1393 C1341 0.929 . S
H1394 C1346 0.929 . S
H1395 C1347 0.930 . S
H1396 C1354 0.929 . S
H1397 C1355 0.930 . S
H1398 C1356 0.930 . S
H1399 C1357 0.930 . S
H1400 C1359 0.929 . S
H1401 C1360 0.930 . S
H1402 C1361 0.930 . S
H1403 C1362 0.930 . S
H1404 C1366 0.929 . S
H1405 C1368 0.930 . S
H1406 C1374 0.929 . S
H1407 C1375 0.930 . S
Li1408 N1425 1.990 . S
Li1408 O1468 1.956 . S
Li1408 O1469 1.970 . S
Li1408 O1470 1.961 . S
Li1409 N1433 1.990 . S
Li1409 O1468 1.970 . S
Li1409 O1469 1.956 . S
Li1409 O1471 1.961 . S
Li1410 N1455 1.990 . S
Li1410 O1468 1.961 . S
Li1410 O1470 1.956 . S
Li1410 O1471 1.970 . S
Li1411 N1461 1.923 1_545 S
Li1411 O1469 1.987 . S
Li1411 O1470 2.021 . S
Li1411 O1471 1.989 . S
C1412 C1414 1.348 . S
C1412 C1415 1.356 . S
C1412 O1468 1.325 . S
N1413 C1416 1.314 . S
N1413 C1417 1.279 . S
C1414 C1412 1.348 . S
C1414 C1416 1.353 . S
C1414 H1472 0.929 . S
C1415 C1412 1.356 . S
C1415 C1417 1.358 . S
C1415 H1473 0.930 . S
C1416 N1413 1.314 . S
C1416 C1414 1.353 . S
C1416 H1474 0.930 . S
C1417 N1413 1.279 . S
C1417 C1415 1.358 . S
C1417 H1475 0.930 . S
C1418 C1421 1.348 . S
C1418 C1422 1.356 . S
C1418 O1469 1.325 1_565 S
C1419 N1420 1.279 . S
C1419 C1422 1.358 . S
C1419 H1476 0.930 . S
N1420 C1419 1.279 . S
N1420 C1423 1.314 . S
C1421 C1418 1.348 . S
C1421 C1423 1.353 . S
C1421 H1477 0.929 1_565 S
C1422 C1418 1.356 . S
C1422 C1419 1.358 . S
C1422 H1478 0.930 . S
C1423 N1420 1.314 . S
C1423 C1421 1.353 . S
C1423 H1479 0.930 . S
C1424 N1425 1.314 . S
C1424 C1429 1.353 . S
C1424 H1430 0.930 1_545 S
N1425 Li1408 1.990 . S
N1425 C1424 1.314 . S
N1425 C1427 1.279 . S
C1426 C1427 1.358 . S
C1426 C1428 1.356 . S
C1426 H1480 0.930 . S
C1427 N1425 1.279 . S
C1427 C1426 1.358 . S
C1427 H1431 0.930 . S
C1428 C1426 1.356 . S
C1428 C1429 1.348 . S
C1429 C1424 1.353 . S
C1429 C1428 1.348 . S
C1429 H1481 0.929 1_545 S
H1430 C1424 0.930 1_565 S
H1431 C1427 0.930 . S
C1432 N1433 1.314 . S
C1432 C1434 1.353 . S
C1432 H1438 0.930 . S
N1433 Li1409 1.990 . S
N1433 C1432 1.314 . S
N1433 C1436 1.279 . S
C1434 C1432 1.353 . S
C1434 C1437 1.348 . S
C1434 H1482 0.929 . S
C1435 C1436 1.358 . S
C1435 C1437 1.356 . S
C1435 H1483 0.930 . S
C1436 N1433 1.279 . S
C1436 C1435 1.358 . S
C1436 H1439 0.930 . S
C1437 C1434 1.348 . S
C1437 C1435 1.356 . S
H1438 C1432 0.930 . S
H1439 C1436 0.930 . S
C1440 C1442 1.348 1_545 S
C1440 C1443 1.356 . S
C1440 O1470 1.325 . S
N1441 C1444 1.314 . S
N1441 C1445 1.279 1_565 S
C1442 C1440 1.348 1_565 S
C1442 C1444 1.353 . S
C1442 H1484 0.929 . S
C1443 C1440 1.356 . S
C1443 C1445 1.358 . S
C1443 H1485 0.930 . S
C1444 N1441 1.314 . S
C1444 C1442 1.353 . S
C1444 H1486 0.930 . S
C1445 N1441 1.279 1_545 S
C1445 C1443 1.358 . S
C1445 H1487 0.930 . S
C1446 C1447 1.348 . S
C1446 C1448 1.356 . S
C1446 O1471 1.325 . S
C1447 C1446 1.348 . S
C1447 C1449 1.353 . S
C1447 H1488 0.929 . S
C1448 C1446 1.356 . S
C1448 C1450 1.358 . S
C1448 H1489 0.930 . S
C1449 C1447 1.353 . S
C1449 N1451 1.314 . S
C1449 H1490 0.930 . S
C1450 C1448 1.358 . S
C1450 N1451 1.279 . S
C1450 H1491 0.930 . S
N1451 C1449 1.314 . S
N1451 C1450 1.279 . S
C1452 C1454 1.353 . S
C1452 N1455 1.314 . S
C1452 H1458 0.930 . S
C1453 N1455 1.279 . S
C1453 C1456 1.358 . S
C1453 H1459 0.930 . S
C1454 C1452 1.353 . S
C1454 C1457 1.348 . S
C1454 H1492 0.929 . S
N1455 Li1410 1.990 . S
N1455 C1452 1.314 . S
N1455 C1453 1.279 . S
C1456 C1453 1.358 . S
C1456 C1457 1.356 . S
C1456 H1493 0.930 . S
C1457 C1454 1.348 . S
C1457 C1456 1.356 . S
H1458 C1452 0.930 . S
H1459 C1453 0.930 . S
C1460 N1461 1.314 . S
C1460 C1462 1.353 . S
C1460 H1466 0.930 . S
N1461 Li1411 1.923 1_565 S
N1461 C1460 1.314 . S
N1461 C1464 1.279 . S
C1462 C1460 1.353 . S
C1462 C1465 1.348 . S
C1462 H1494 0.929 . S
C1463 C1464 1.358 . S
C1463 C1465 1.356 . S
C1463 H1495 0.930 . S
C1464 N1461 1.279 . S
C1464 C1463 1.358 . S
C1464 H1467 0.930 . S
C1465 C1462 1.348 . S
C1465 C1463 1.356 . S
H1466 C1460 0.930 . S
H1467 C1464 0.930 . S
O1468 Li1408 1.956 . S
O1468 Li1409 1.970 . S
O1468 Li1410 1.961 . S
O1468 C1412 1.325 . S
O1469 Li1408 1.970 . S
O1469 Li1409 1.956 . S
O1469 Li1411 1.987 . S
O1469 C1418 1.325 1_545 S
O1470 Li1408 1.961 . S
O1470 Li1410 1.956 . S
O1470 Li1411 2.021 . S
O1470 C1440 1.325 . S
O1471 Li1409 1.961 . S
O1471 Li1410 1.970 . S
O1471 Li1411 1.989 . S
O1471 C1446 1.325 . S
H1472 C1414 0.929 . S
H1473 C1415 0.930 . S
H1474 C1416 0.930 . S
H1475 C1417 0.930 . S
H1476 C1419 0.930 . S
H1477 C1421 0.929 1_545 S
H1478 C1422 0.930 . S
H1479 C1423 0.930 . S
H1480 C1426 0.930 . S
H1481 C1429 0.929 1_565 S
H1482 C1434 0.929 . S
H1483 C1435 0.930 . S
H1484 C1442 0.929 . S
H1485 C1443 0.930 . S
H1486 C1444 0.930 . S
H1487 C1445 0.930 . S
H1488 C1447 0.929 . S
H1489 C1448 0.930 . S
H1490 C1449 0.930 . S
H1491 C1450 0.930 . S
H1492 C1454 0.929 . S
H1493 C1456 0.930 . S
H1494 C1462 0.929 . S
H1495 C1463 0.930 . S
Li1496 N1513 1.990 . S
Li1496 O1556 1.956 . S
Li1496 O1557 1.970 . S
Li1496 O1558 1.961 . S
Li1497 N1521 1.990 . S
Li1497 O1556 1.970 . S
Li1497 O1557 1.956 . S
Li1497 O1559 1.961 . S
Li1498 N1543 1.990 1_655 S
Li1498 O1556 1.961 . S
Li1498 O1558 1.956 . S
Li1498 O1559 1.970 . S
Li1499 N1549 1.990 . S
Li1499 O1557 1.961 . S
Li1499 O1558 1.970 . S
Li1499 O1559 1.956 . S
C1500 C1502 1.348 . S
C1500 C1503 1.356 . S
C1500 O1556 1.325 1_455 S
N1501 C1504 1.314 . S
N1501 C1505 1.279 . S
C1502 C1500 1.348 . S
C1502 C1504 1.353 . S
C1502 H1560 0.929 1_455 S
C1503 C1500 1.356 . S
C1503 C1505 1.358 . S
C1503 H1561 0.930 . S
C1504 N1501 1.314 . S
C1504 C1502 1.353 . S
C1504 H1562 0.930 . S
C1505 N1501 1.279 . S
C1505 C1503 1.358 . S
C1505 H1563 0.930 . S
C1506 C1509 1.348 . S
C1506 C1510 1.356 . S
C1506 O1557 1.325 . S
C1507 N1508 1.279 . S
C1507 C1510 1.358 . S
C1507 H1564 0.930 . S
N1508 C1507 1.279 . S
N1508 C1511 1.314 . S
C1509 C1506 1.348 . S
C1509 C1511 1.353 . S
C1509 H1565 0.929 . S
C1510 C1506 1.356 . S
C1510 C1507 1.358 . S
C1510 H1566 0.930 . S
C1511 N1508 1.314 . S
C1511 C1509 1.353 . S
C1511 H1567 0.930 . S
C1512 N1513 1.314 . S
C1512 C1517 1.353 . S
C1512 H1518 0.930 . S
N1513 Li1496 1.990 . S
N1513 C1512 1.314 . S
N1513 C1515 1.279 . S
C1514 C1515 1.358 . S
C1514 C1516 1.356 . S
C1514 H1568 0.930 . S
C1515 N1513 1.279 . S
C1515 C1514 1.358 . S
C1515 H1519 0.930 . S
C1516 C1514 1.356 . S
C1516 C1517 1.348 . S
C1517 C1512 1.353 . S
C1517 C1516 1.348 . S
C1517 H1569 0.929 . S
H1518 C1512 0.930 . S
H1519 C1515 0.930 . S
C1520 N1521 1.314 . S
C1520 C1522 1.353 . S
C1520 H1526 0.930 1_655 S
N1521 Li1497 1.990 . S
N1521 C1520 1.314 . S
N1521 C1524 1.279 . S
C1522 C1520 1.353 . S
C1522 C1525 1.348 . S
C1522 H1570 0.929 1_655 S
C1523 C1524 1.358 . S
C1523 C1525 1.356 . S
C1523 H1571 0.930 . S
C1524 N1521 1.279 . S
C1524 C1523 1.358 . S
C1524 H1527 0.930 . S
C1525 C1522 1.348 . S
C1525 C1523 1.356 . S
H1526 C1520 0.930 1_455 S
H1527 C1524 0.930 . S
C1528 C1530 1.348 . S
C1528 C1531 1.356 . S
C1528 O1558 1.325 . S
N1529 C1532 1.314 . S
N1529 C1533 1.279 . S
C1530 C1528 1.348 . S
C1530 C1532 1.353 . S
C1530 H1572 0.929 . S
C1531 C1528 1.356 . S
C1531 C1533 1.358 . S
C1531 H1573 0.930 . S
C1532 N1529 1.314 . S
C1532 C1530 1.353 . S
C1532 H1574 0.930 . S
C1533 N1529 1.279 . S
C1533 C1531 1.358 . S
C1533 H1575 0.930 . S
C1534 C1535 1.348 1_655 S
C1534 C1536 1.356 . S
C1534 O1559 1.325 . S
C1535 C1534 1.348 1_455 S
C1535 C1537 1.353 . S
C1535 H1576 0.929 . S
C1536 C1534 1.356 . S
C1536 C1538 1.358 . S
C1536 H1577 0.930 . S
C1537 C1535 1.353 . S
C1537 N1539 1.314 . S
C1537 H1578 0.930 . S
C1538 C1536 1.358 . S
C1538 N1539 1.279 1_655 S
C1538 H1579 0.930 . S
N1539 C1537 1.314 . S
N1539 C1538 1.279 1_455 S
C1540 C1542 1.353 . S
C1540 N1543 1.314 . S
C1540 H1546 0.930 . S
C1541 N1543 1.279 . S
C1541 C1544 1.358 . S
C1541 H1547 0.930 . S
C1542 C1540 1.353 . S
C1542 C1545 1.348 . S
C1542 H1580 0.929 . S
N1543 Li1498 1.990 1_455 S
N1543 C1540 1.314 . S
N1543 C1541 1.279 . S
C1544 C1541 1.358 . S
C1544 C1545 1.356 . S
C1544 H1581 0.930 . S
C1545 C1542 1.348 . S
C1545 C1544 1.356 . S
H1546 C1540 0.930 . S
H1547 C1541 0.930 . S
C1548 N1549 1.314 . S
C1548 C1550 1.353 . S
C1548 H1554 0.930 . S
N1549 Li1499 1.990 . S
N1549 C1548 1.314 . S
N1549 C1552 1.279 . S
C1550 C1548 1.353 . S
C1550 C1553 1.348 . S
C1550 H1582 0.929 . S
C1551 C1552 1.358 . S
C1551 C1553 1.356 . S
C1551 H1583 0.930 . S
C1552 N1549 1.279 . S
C1552 C1551 1.358 . S
C1552 H1555 0.930 . S
C1553 C1550 1.348 . S
C1553 C1551 1.356 . S
H1554 C1548 0.930 . S
H1555 C1552 0.930 . S
O1556 Li1496 1.956 . S
O1556 Li1497 1.970 . S
O1556 Li1498 1.961 . S
O1556 C1500 1.325 1_655 S
O1557 Li1496 1.970 . S
O1557 Li1497 1.956 . S
O1557 Li1499 1.961 . S
O1557 C1506 1.325 . S
O1558 Li1496 1.961 . S
O1558 Li1498 1.956 . S
O1558 Li1499 1.970 . S
O1558 C1528 1.325 . S
O1559 Li1497 1.961 . S
O1559 Li1498 1.970 . S
O1559 Li1499 1.956 . S
O1559 C1534 1.325 . S
H1560 C1502 0.929 1_655 S
H1561 C1503 0.930 . S
H1562 C1504 0.930 . S
H1563 C1505 0.930 . S
H1564 C1507 0.930 . S
H1565 C1509 0.929 . S
H1566 C1510 0.930 . S
H1567 C1511 0.930 . S
H1568 C1514 0.930 . S
H1569 C1517 0.929 . S
H1570 C1522 0.929 1_455 S
H1571 C1523 0.930 . S
H1572 C1530 0.929 . S
H1573 C1531 0.930 . S
H1574 C1532 0.930 . S
H1575 C1533 0.930 . S
H1576 C1535 0.929 . S
H1577 C1536 0.930 . S
H1578 C1537 0.930 . S
H1579 C1538 0.930 . S
H1580 C1542 0.929 . S
H1581 C1544 0.930 . S
H1582 C1550 0.929 . S
H1583 C1551 0.930 . S
H1584 C1590 0.930 . S
H1585 C1593 0.931 . S
H1586 C1595 0.931 . S
H1587 C1597 0.930 . S
H1588 C1599 0.930 . S
H1589 C1601 0.931 . S
C1590 H1584 0.930 . S
C1590 C1591 1.380 . S
C1590 C1592 1.394 . S
C1591 C1590 1.380 . S
C1591 C1595 1.382 . S
C1592 C1590 1.394 . S
C1592 C1593 1.400 . S
C1593 H1585 0.931 . S
C1593 C1592 1.400 . S
C1593 C1594 1.375 . S
C1594 C1593 1.375 . S
C1594 C1595 1.415 . S
C1594 C1596 1.501 . S
C1595 H1586 0.931 . S
C1595 C1591 1.382 . S
C1595 C1594 1.415 . S
C1596 C1594 1.501 . S
C1596 C1597 1.384 . S
C1596 C1601 1.408 . S
C1597 H1587 0.930 . S
C1597 C1596 1.384 . S
C1597 C1598 1.389 . S
C1598 C1597 1.389 . S
C1598 C1599 1.405 . S
C1599 H1588 0.930 . S
C1599 C1598 1.405 . S
C1599 C1600 1.364 . S
C1600 C1599 1.364 . S
C1600 C1601 1.400 . S
C1601 H1589 0.931 . S
C1601 C1596 1.408 . S
C1601 C1600 1.400 . S
H1602 C1608 0.930 . S
H1603 C1611 0.931 . S
H1604 C1613 0.931 . S
H1605 C1615 0.930 . S
H1606 C1617 0.930 . S
H1607 C1619 0.931 . S
C1608 H1602 0.930 . S
C1608 C1609 1.380 . S
C1608 C1610 1.394 . S
C1609 C1608 1.380 . S
C1609 C1613 1.382 . S
C1610 C1608 1.394 . S
C1610 C1611 1.400 . S
C1611 H1603 0.931 . S
C1611 C1610 1.400 . S
C1611 C1612 1.375 . S
C1612 C1611 1.375 . S
C1612 C1613 1.415 . S
C1612 C1614 1.501 . S
C1613 H1604 0.931 . S
C1613 C1609 1.382 . S
C1613 C1612 1.415 . S
C1614 C1612 1.501 . S
C1614 C1615 1.384 . S
C1614 C1619 1.408 . S
C1615 H1605 0.930 . S
C1615 C1614 1.384 . S
C1615 C1616 1.389 . S
C1616 C1615 1.389 . S
C1616 C1617 1.405 . S
C1617 H1606 0.930 . S
C1617 C1616 1.405 . S
C1617 C1618 1.364 . S
C1618 C1617 1.364 . S
C1618 C1619 1.400 . S
C1619 H1607 0.931 . S
C1619 C1614 1.408 . S
C1619 C1618 1.400 . S
H1620 C1626 0.930 . S
H1621 C1629 0.931 . S
H1622 C1631 0.931 . S
H1623 C1633 0.930 . S
H1624 C1635 0.930 . S
H1625 C1637 0.931 . S
C1626 H1620 0.930 . S
C1626 C1627 1.380 . S
C1626 C1628 1.394 . S
C1627 C1626 1.380 . S
C1627 C1631 1.382 . S
C1628 C1626 1.394 . S
C1628 C1629 1.400 . S
C1629 H1621 0.931 . S
C1629 C1628 1.400 . S
C1629 C1630 1.375 . S
C1630 C1629 1.375 . S
C1630 C1631 1.415 . S
C1630 C1632 1.501 . S
C1631 H1622 0.931 . S
C1631 C1627 1.382 . S
C1631 C1630 1.415 . S
C1632 C1630 1.501 . S
C1632 C1633 1.384 . S
C1632 C1637 1.408 . S
C1633 H1623 0.930 . S
C1633 C1632 1.384 . S
C1633 C1634 1.389 . S
C1634 C1633 1.389 . S
C1634 C1635 1.405 . S
C1635 H1624 0.930 . S
C1635 C1634 1.405 . S
C1635 C1636 1.364 . S
C1636 C1635 1.364 . S
C1636 C1637 1.400 . S
C1637 H1625 0.931 . S
C1637 C1632 1.408 . S
C1637 C1636 1.400 . S
H1638 C1644 0.930 . S
H1639 C1647 0.931 . S
H1640 C1649 0.931 . S
H1641 C1651 0.930 . S
H1642 C1653 0.930 . S
H1643 C1655 0.931 . S
C1644 H1638 0.930 . S
C1644 C1645 1.380 . S
C1644 C1646 1.394 . S
C1645 C1644 1.380 . S
C1645 C1649 1.382 . S
C1646 C1644 1.394 . S
C1646 C1647 1.400 . S
C1647 H1639 0.931 . S
C1647 C1646 1.400 . S
C1647 C1648 1.375 . S
C1648 C1647 1.375 . S
C1648 C1649 1.415 . S
C1648 C1650 1.501 . S
C1649 H1640 0.931 . S
C1649 C1645 1.382 . S
C1649 C1648 1.415 . S
C1650 C1648 1.501 . S
C1650 C1651 1.384 . S
C1650 C1655 1.408 . S
C1651 H1641 0.930 . S
C1651 C1650 1.384 . S
C1651 C1652 1.389 . S
C1652 C1651 1.389 . S
C1652 C1653 1.405 . S
C1653 H1642 0.930 . S
C1653 C1652 1.405 . S
C1653 C1654 1.364 . S
C1654 C1653 1.364 . S
C1654 C1655 1.400 . S
C1655 H1643 0.931 . S
C1655 C1650 1.408 . S
C1655 C1654 1.400 . S
H1656 C1662 0.930 . S
H1657 C1665 0.931 . S
H1658 C1667 0.931 . S
H1659 C1669 0.930 . S
H1660 C1671 0.930 . S
H1661 C1673 0.931 . S
C1662 H1656 0.930 . S
C1662 C1663 1.380 . S
C1662 C1664 1.394 . S
C1663 C1662 1.380 . S
C1663 C1667 1.382 . S
C1664 C1662 1.394 . S
C1664 C1665 1.400 . S
C1665 H1657 0.931 . S
C1665 C1664 1.400 . S
C1665 C1666 1.375 . S
C1666 C1665 1.375 . S
C1666 C1667 1.415 . S
C1666 C1668 1.501 . S
C1667 H1658 0.931 . S
C1667 C1663 1.382 . S
C1667 C1666 1.415 . S
C1668 C1666 1.501 . S
C1668 C1669 1.384 . S
C1668 C1673 1.408 . S
C1669 H1659 0.930 . S
C1669 C1668 1.384 . S
C1669 C1670 1.389 . S
C1670 C1669 1.389 . S
C1670 C1671 1.405 . S
C1671 H1660 0.930 . S
C1671 C1670 1.405 . S
C1671 C1672 1.364 . S
C1672 C1671 1.364 . S
C1672 C1673 1.400 . S
C1673 H1661 0.931 . S
C1673 C1668 1.408 . S
C1673 C1672 1.400 . S
H1674 C1680 0.930 . S
H1675 C1683 0.931 . S
H1676 C1685 0.931 . S
H1677 C1687 0.930 . S
H1678 C1689 0.930 . S
H1679 C1691 0.931 . S
C1680 H1674 0.930 . S
C1680 C1681 1.380 . S
C1680 C1682 1.394 . S
C1681 C1680 1.380 . S
C1681 C1685 1.382 . S
C1682 C1680 1.394 . S
C1682 C1683 1.400 . S
C1683 H1675 0.931 . S
C1683 C1682 1.400 . S
C1683 C1684 1.375 . S
C1684 C1683 1.375 . S
C1684 C1685 1.415 . S
C1684 C1686 1.501 . S
C1685 H1676 0.931 . S
C1685 C1681 1.382 . S
C1685 C1684 1.415 . S
C1686 C1684 1.501 . S
C1686 C1687 1.384 . S
C1686 C1691 1.408 . S
C1687 H1677 0.930 . S
C1687 C1686 1.384 . S
C1687 C1688 1.389 . S
C1688 C1687 1.389 . S
C1688 C1689 1.405 . S
C1689 H1678 0.930 . S
C1689 C1688 1.405 . S
C1689 C1690 1.364 . S
C1690 C1689 1.364 . S
C1690 C1691 1.400 . S
C1691 H1679 0.931 . S
C1691 C1686 1.408 . S
C1691 C1690 1.400 . S
H1692 C1698 0.930 . S
H1693 C1701 0.931 . S
H1694 C1703 0.931 . S
H1695 C1705 0.930 . S
H1696 C1707 0.930 . S
H1697 C1709 0.931 . S
C1698 H1692 0.930 . S
C1698 C1699 1.380 . S
C1698 C1700 1.394 . S
C1699 C1698 1.380 . S
C1699 C1703 1.382 . S
C1700 C1698 1.394 . S
C1700 C1701 1.400 . S
C1701 H1693 0.931 . S
C1701 C1700 1.400 . S
C1701 C1702 1.375 . S
C1702 C1701 1.375 . S
C1702 C1703 1.415 . S
C1702 C1704 1.501 . S
C1703 H1694 0.931 . S
C1703 C1699 1.382 . S
C1703 C1702 1.415 . S
C1704 C1702 1.501 . S
C1704 C1705 1.384 . S
C1704 C1709 1.408 . S
C1705 H1695 0.930 . S
C1705 C1704 1.384 . S
C1705 C1706 1.389 . S
C1706 C1705 1.389 . S
C1706 C1707 1.405 . S
C1707 H1696 0.930 . S
C1707 C1706 1.405 . S
C1707 C1708 1.364 . S
C1708 C1707 1.364 . S
C1708 C1709 1.400 . S
C1709 H1697 0.931 . S
C1709 C1704 1.408 . S
C1709 C1708 1.400 . S
H1710 C1716 0.930 . S
H1711 C1719 0.931 . S
H1712 C1721 0.931 . S
H1713 C1723 0.930 . S
H1714 C1725 0.930 . S
H1715 C1727 0.931 . S
C1716 H1710 0.930 . S
C1716 C1717 1.380 . S
C1716 C1718 1.394 . S
C1717 C1716 1.380 . S
C1717 C1721 1.382 . S
C1718 C1716 1.394 . S
C1718 C1719 1.400 . S
C1719 H1711 0.931 . S
C1719 C1718 1.400 . S
C1719 C1720 1.375 . S
C1720 C1719 1.375 . S
C1720 C1721 1.415 . S
C1720 C1722 1.501 . S
C1721 H1712 0.931 . S
C1721 C1717 1.382 . S
C1721 C1720 1.415 . S
C1722 C1720 1.501 . S
C1722 C1723 1.384 . S
C1722 C1727 1.408 . S
C1723 H1713 0.930 . S
C1723 C1722 1.384 . S
C1723 C1724 1.389 . S
C1724 C1723 1.389 . S
C1724 C1725 1.405 . S
C1725 H1714 0.930 . S
C1725 C1724 1.405 . S
C1725 C1726 1.364 . S
C1726 C1725 1.364 . S
C1726 C1727 1.400 . S
C1727 H1715 0.931 . S
C1727 C1722 1.408 . S
C1727 C1726 1.400 . S
H1728 C1734 0.930 . S
H1729 C1737 0.931 . S
H1730 C1739 0.931 . S
H1731 C1741 0.930 . S
H1732 C1743 0.930 . S
H1733 C1745 0.931 . S
C1734 H1728 0.930 . S
C1734 C1735 1.380 . S
C1734 C1736 1.394 . S
C1735 C1734 1.380 . S
C1735 C1739 1.382 . S
C1736 C1734 1.394 . S
C1736 C1737 1.400 . S
C1737 H1729 0.931 . S
C1737 C1736 1.400 . S
C1737 C1738 1.375 . S
C1738 C1737 1.375 . S
C1738 C1739 1.415 . S
C1738 C1740 1.501 . S
C1739 H1730 0.931 . S
C1739 C1735 1.382 . S
C1739 C1738 1.415 . S
C1740 C1738 1.501 . S
C1740 C1741 1.384 . S
C1740 C1745 1.408 . S
C1741 H1731 0.930 . S
C1741 C1740 1.384 . S
C1741 C1742 1.389 . S
C1742 C1741 1.389 . S
C1742 C1743 1.405 . S
C1743 H1732 0.930 . S
C1743 C1742 1.405 . S
C1743 C1744 1.364 . S
C1744 C1743 1.364 . S
C1744 C1745 1.400 . S
C1745 H1733 0.931 . S
C1745 C1740 1.408 . S
C1745 C1744 1.400 . S
H1746 C1752 0.923 . S
H1747 C1755 0.931 . S
H1748 C1757 0.931 . S
H1749 C1759 0.930 . S
H1750 C1761 0.930 . S
H1751 C1763 0.941 . S
C1752 H1746 0.923 . S
C1752 C1753 1.386 . S
C1752 C1754 1.395 1_655 S
C1753 C1752 1.386 . S
C1753 C1757 1.382 . S
C1754 C1752 1.395 1_455 S
C1754 C1755 1.400 . S
C1755 H1747 0.931 . S
C1755 C1754 1.400 . S
C1755 C1756 1.375 . S
C1756 C1755 1.375 . S
C1756 C1757 1.415 1_455 S
C1756 C1758 1.501 . S
C1757 H1748 0.931 . S
C1757 C1753 1.382 . S
C1757 C1756 1.415 1_655 S
C1758 C1756 1.501 . S
C1758 C1759 1.384 . S
C1758 C1763 1.425 . S
C1759 H1749 0.930 . S
C1759 C1758 1.384 . S
C1759 C1760 1.389 . S
C1760 C1759 1.389 . S
C1760 C1761 1.405 . S
C1761 H1750 0.930 . S
C1761 C1760 1.405 . S
C1761 C1762 1.356 . S
C1762 C1761 1.356 . S
C1762 C1763 1.393 . S
C1763 H1751 0.941 . S
C1763 C1758 1.425 . S
C1763 C1762 1.393 . S
H1764 C1770 0.930 . S
H1765 C1773 0.931 . S
H1766 C1775 0.931 . S
H1767 C1777 0.930 . S
H1768 C1779 0.930 . S
H1769 C1781 0.931 . S
C1770 H1764 0.930 . S
C1770 C1771 1.380 . S
C1770 C1772 1.394 . S
C1771 C1770 1.380 . S
C1771 C1775 1.382 . S
C1772 C1770 1.394 . S
C1772 C1773 1.400 . S
C1773 H1765 0.931 . S
C1773 C1772 1.400 . S
C1773 C1774 1.375 . S
C1774 C1773 1.375 . S
C1774 C1775 1.415 . S
C1774 C1776 1.501 . S
C1775 H1766 0.931 . S
C1775 C1771 1.382 . S
C1775 C1774 1.415 . S
C1776 C1774 1.501 . S
C1776 C1777 1.384 . S
C1776 C1781 1.408 . S
C1777 H1767 0.930 . S
C1777 C1776 1.384 . S
C1777 C1778 1.389 . S
C1778 C1777 1.389 . S
C1778 C1779 1.405 . S
C1779 H1768 0.930 . S
C1779 C1778 1.405 . S
C1779 C1780 1.364 . S
C1780 C1779 1.364 . S
C1780 C1781 1.400 . S
C1781 H1769 0.931 . S
C1781 C1776 1.408 . S
C1781 C1780 1.400 . S
H1782 C1788 0.947 . S
H1783 C1791 0.931 . S
H1784 C1793 0.931 . S
H1785 C1795 0.930 . S
H1786 C1797 0.930 . S
H1787 C1799 0.919 . S
C1788 H1782 0.947 . S
C1788 C1789 1.376 . S
C1788 C1790 1.382 1_545 S
C1789 C1788 1.376 . S
C1789 C1793 1.382 . S
C1790 C1788 1.382 1_565 S
C1790 C1791 1.400 . S
C1791 H1783 0.931 . S
C1791 C1790 1.400 . S
C1791 C1792 1.375 . S
C1792 C1791 1.375 . S
C1792 C1793 1.415 1_565 S
C1792 C1794 1.501 . S
C1793 H1784 0.931 . S
C1793 C1789 1.382 . S
C1793 C1792 1.415 1_545 S
C1794 C1792 1.501 . S
C1794 C1795 1.384 . S
C1794 C1799 1.396 . S
C1795 H1785 0.930 . S
C1795 C1794 1.384 . S
C1795 C1796 1.389 . S
C1796 C1795 1.389 . S
C1796 C1797 1.405 . S
C1797 H1786 0.930 . S
C1797 C1796 1.405 . S
C1797 C1798 1.380 . S
C1798 C1797 1.380 . S
C1798 C1799 1.405 . S
C1799 H1787 0.919 . S
C1799 C1794 1.396 . S
C1799 C1798 1.405 . S
H1800 C1806 0.916 . S
H1801 C1809 0.931 . S
H1802 C1811 0.927 . S
H1803 C1813 0.930 . S
H1804 C1815 0.899 . S
H1805 C1817 0.931 . S
C1806 H1800 0.916 . S
C1806 C1807 1.387 . S
C1806 C1808 1.411 1_545 S
C1807 C1806 1.387 . S
C1807 C1811 1.399 1_545 S
C1808 C1806 1.411 1_565 S
C1808 C1809 1.382 . S
C1809 H1801 0.931 . S
C1809 C1808 1.382 . S
C1809 C1810 1.375 . S
C1810 C1809 1.375 . S
C1810 C1811 1.409 . S
C1810 C1812 1.501 . S
C1811 H1802 0.927 . S
C1811 C1807 1.399 1_565 S
C1811 C1810 1.409 . S
C1812 C1810 1.501 . S
C1812 C1813 1.384 . S
C1812 C1817 1.408 1_565 S
C1813 H1803 0.930 . S
C1813 C1812 1.384 . S
C1813 C1814 1.389 . S
C1814 C1813 1.389 . S
C1814 C1815 1.433 . S
C1815 H1804 0.899 . S
C1815 C1814 1.433 . S
C1815 C1816 1.372 1_565 S
C1816 C1815 1.372 1_545 S
C1816 C1817 1.400 . S
C1817 H1805 0.931 . S
C1817 C1812 1.408 1_545 S
C1817 C1816 1.400 . S
H1818 C1824 0.957 . S
H1819 C1827 0.931 . S
H1820 C1829 0.934 . S
H1821 C1831 0.930 . S
H1822 C1833 0.930 . S
H1823 C1835 0.931 . S
C1824 H1818 0.957 . S
C1824 C1825 1.373 . S
C1824 C1826 1.373 1_655 S
C1825 C1824 1.373 . S
C1825 C1829 1.361 1_655 S
C1826 C1824 1.373 1_455 S
C1826 C1827 1.418 . S
C1827 H1819 0.931 . S
C1827 C1826 1.418 . S
C1827 C1828 1.375 . S
C1828 C1827 1.375 . S
C1828 C1829 1.422 . S
C1828 C1830 1.501 . S
C1829 H1820 0.934 . S
C1829 C1825 1.361 1_455 S
C1829 C1828 1.422 . S
C1830 C1828 1.501 . S
C1830 C1831 1.384 . S
C1830 C1835 1.408 1_455 S
C1831 H1821 0.930 . S
C1831 C1830 1.384 . S
C1831 C1832 1.389 . S
C1832 C1831 1.389 . S
C1832 C1833 1.405 . S
C1833 H1822 0.930 . S
C1833 C1832 1.405 . S
C1833 C1834 1.364 1_455 S
C1834 C1833 1.364 1_655 S
C1834 C1835 1.400 . S
C1835 H1823 0.931 . S
C1835 C1830 1.408 1_655 S
C1835 C1834 1.400 . S
H1836 C1842 0.930 . S
H1837 C1845 0.931 . S
H1838 C1847 0.931 . S
H1839 C1849 0.930 . S
H1840 C1851 0.930 . S
H1841 C1853 0.931 . S
C1842 H1836 0.930 . S
C1842 C1843 1.380 . S
C1842 C1844 1.394 . S
C1843 C1842 1.380 . S
C1843 C1847 1.382 . S
C1844 C1842 1.394 . S
C1844 C1845 1.400 . S
C1845 H1837 0.931 . S
C1845 C1844 1.400 . S
C1845 C1846 1.375 . S
C1846 C1845 1.375 . S
C1846 C1847 1.415 . S
C1846 C1848 1.501 . S
C1847 H1838 0.931 . S
C1847 C1843 1.382 . S
C1847 C1846 1.415 . S
C1848 C1846 1.501 . S
C1848 C1849 1.384 . S
C1848 C1853 1.408 . S
C1849 H1839 0.930 . S
C1849 C1848 1.384 . S
C1849 C1850 1.389 . S
C1850 C1849 1.389 . S
C1850 C1851 1.405 . S
C1851 H1840 0.930 . S
C1851 C1850 1.405 . S
C1851 C1852 1.364 . S
C1852 C1851 1.364 . S
C1852 C1853 1.400 . S
C1853 H1841 0.931 . S
C1853 C1848 1.408 . S
C1853 C1852 1.400 . S
H1854 C1860 0.930 . S
H1855 C1863 0.931 . S
H1856 C1865 0.931 . S
H1857 C1867 0.930 . S
H1858 C1869 0.930 . S
H1859 C1871 0.931 . S
C1860 H1854 0.930 . S
C1860 C1861 1.380 . S
C1860 C1862 1.394 . S
C1861 C1860 1.380 . S
C1861 C1865 1.382 . S
C1862 C1860 1.394 . S
C1862 C1863 1.400 . S
C1863 H1855 0.931 . S
C1863 C1862 1.400 . S
C1863 C1864 1.375 . S
C1864 C1863 1.375 . S
C1864 C1865 1.415 . S
C1864 C1866 1.501 . S
C1865 H1856 0.931 . S
C1865 C1861 1.382 . S
C1865 C1864 1.415 . S
C1866 C1864 1.501 . S
C1866 C1867 1.384 . S
C1866 C1871 1.408 . S
C1867 H1857 0.930 . S
C1867 C1866 1.384 . S
C1867 C1868 1.389 . S
C1868 C1867 1.389 . S
C1868 C1869 1.405 . S
C1869 H1858 0.930 . S
C1869 C1868 1.405 . S
C1869 C1870 1.364 . S
C1870 C1869 1.364 . S
C1870 C1871 1.400 . S
C1871 H1859 0.931 . S
C1871 C1866 1.408 . S
C1871 C1870 1.400 . S
H1872 C1878 0.930 . S
H1873 C1881 0.931 . S
H1874 C1883 0.931 . S
H1875 C1885 0.930 . S
H1876 C1887 0.930 . S
H1877 C1889 0.931 . S
C1878 H1872 0.930 . S
C1878 C1879 1.380 . S
C1878 C1880 1.394 . S
C1879 C1878 1.380 . S
C1879 C1883 1.382 . S
C1880 C1878 1.394 . S
C1880 C1881 1.400 . S
C1881 H1873 0.931 . S
C1881 C1880 1.400 . S
C1881 C1882 1.375 . S
C1882 C1881 1.375 . S
C1882 C1883 1.415 . S
C1882 C1884 1.501 . S
C1883 H1874 0.931 . S
C1883 C1879 1.382 . S
C1883 C1882 1.415 . S
C1884 C1882 1.501 . S
C1884 C1885 1.384 . S
C1884 C1889 1.408 . S
C1885 H1875 0.930 . S
C1885 C1884 1.384 . S
C1885 C1886 1.389 . S
C1886 C1885 1.389 . S
C1886 C1887 1.405 . S
C1887 H1876 0.930 . S
C1887 C1886 1.405 . S
C1887 C1888 1.364 . S
C1888 C1887 1.364 . S
C1888 C1889 1.400 . S
C1889 H1877 0.931 . S
C1889 C1884 1.408 . S
C1889 C1888 1.400 . S
H1890 C1896 0.930 . S
H1891 C1899 0.931 . S
H1892 C1901 0.931 . S
H1893 C1903 0.930 . S
H1894 C1905 0.930 . S
H1895 C1907 0.931 . S
C1896 H1890 0.930 . S
C1896 C1897 1.380 . S
C1896 C1898 1.394 . S
C1897 C1896 1.380 . S
C1897 C1901 1.382 . S
C1898 C1896 1.394 . S
C1898 C1899 1.400 . S
C1899 H1891 0.931 . S
C1899 C1898 1.400 . S
C1899 C1900 1.375 . S
C1900 C1899 1.375 . S
C1900 C1901 1.415 . S
C1900 C1902 1.501 . S
C1901 H1892 0.931 . S
C1901 C1897 1.382 . S
C1901 C1900 1.415 . S
C1902 C1900 1.501 . S
C1902 C1903 1.384 . S
C1902 C1907 1.408 . S
C1903 H1893 0.930 . S
C1903 C1902 1.384 . S
C1903 C1904 1.389 . S
C1904 C1903 1.389 . S
C1904 C1905 1.405 . S
C1905 H1894 0.930 . S
C1905 C1904 1.405 . S
C1905 C1906 1.364 . S
C1906 C1905 1.364 . S
C1906 C1907 1.400 . S
C1907 H1895 0.931 . S
C1907 C1902 1.408 . S
C1907 C1906 1.400 . S
H1908 C1914 0.930 1_455 S
H1909 C1917 0.930 . S
H1910 C1918 0.930 . S
H1911 C1919 0.930 . S
H1912 C1922 0.930 . S
H1913 C1923 0.930 . S
C1914 H1908 0.930 1_655 S
C1914 C1915 1.355 . S
C1914 C1916 1.415 . S
C1915 C1914 1.355 . S
C1915 C1917 1.419 . S
C1916 C1914 1.415 . S
C1916 C1921 1.425 . S
C1916 C1923 1.409 1_655 S
C1917 H1909 0.930 . S
C1917 C1915 1.419 . S
C1917 C1918 1.362 . S
C1918 H1910 0.930 . S
C1918 C1917 1.362 . S
C1918 C1921 1.409 . S
C1919 H1911 0.930 . S
C1919 C1920 1.355 . S
C1919 C1921 1.415 . S
C1920 C1919 1.355 . S
C1920 C1922 1.419 1_655 S
C1921 C1916 1.425 . S
C1921 C1918 1.409 . S
C1921 C1919 1.415 . S
C1922 H1912 0.930 . S
C1922 C1920 1.419 1_455 S
C1922 C1923 1.362 . S
C1923 H1913 0.930 . S
C1923 C1916 1.409 1_455 S
C1923 C1922 1.362 . S
H1924 C1930 0.930 . S
H1925 C1933 0.930 . S
H1926 C1934 0.930 . S
H1927 C1935 0.930 . S
H1928 C1938 0.930 . S
H1929 C1939 0.930 . S
C1930 H1924 0.930 . S
C1930 C1931 1.355 . S
C1930 C1932 1.415 . S
C1931 C1930 1.355 . S
C1931 C1933 1.419 . S
C1932 C1930 1.415 . S
C1932 C1937 1.425 . S
C1932 C1939 1.409 . S
C1933 H1925 0.930 . S
C1933 C1931 1.419 . S
C1933 C1934 1.362 . S
C1934 H1926 0.930 . S
C1934 C1933 1.362 . S
C1934 C1937 1.409 . S
C1935 H1927 0.930 . S
C1935 C1936 1.355 . S
C1935 C1937 1.415 . S
C1936 C1935 1.355 . S
C1936 C1938 1.419 . S
C1937 C1932 1.425 . S
C1937 C1934 1.409 . S
C1937 C1935 1.415 . S
C1938 H1928 0.930 . S
C1938 C1936 1.419 . S
C1938 C1939 1.362 . S
C1939 H1929 0.930 . S
C1939 C1932 1.409 . S
C1939 C1938 1.362 . S
H1940 C1946 0.930 1_565 S
H1941 C1949 0.930 . S
H1942 C1950 0.930 . S
H1943 C1951 0.930 . S
H1944 C1954 0.930 . S
H1945 C1955 0.930 . S
C1946 H1940 0.930 1_545 S
C1946 C1947 1.355 . S
C1946 C1948 1.415 . S
C1947 C1946 1.355 . S
C1947 C1949 1.419 . S
C1948 C1946 1.415 . S
C1948 C1953 1.425 . S
C1948 C1955 1.409 1_545 S
C1949 H1941 0.930 . S
C1949 C1947 1.419 . S
C1949 C1950 1.362 . S
C1950 H1942 0.930 . S
C1950 C1949 1.362 . S
C1950 C1953 1.409 . S
C1951 H1943 0.930 . S
C1951 C1952 1.355 . S
C1951 C1953 1.415 . S
C1952 C1951 1.355 . S
C1952 C1954 1.419 1_545 S
C1953 C1948 1.425 . S
C1953 C1950 1.409 . S
C1953 C1951 1.415 . S
C1954 H1944 0.930 . S
C1954 C1952 1.419 1_565 S
C1954 C1955 1.362 . S
C1955 H1945 0.930 . S
C1955 C1948 1.409 1_565 S
C1955 C1954 1.362 . S
H1956 C1962 0.930 . S
H1957 C1965 0.941 . S
H1958 C1966 0.930 . S
H1959 C1967 0.954 . S
H1960 C1970 0.930 . S
H1961 C1971 0.930 . S
C1962 H1956 0.930 . S
C1962 C1963 1.355 . S
C1962 C1964 1.415 . S
C1963 C1962 1.355 . S
C1963 C1965 1.410 1_565 S
C1964 C1962 1.415 . S
C1964 C1969 1.425 . S
C1964 C1971 1.409 . S
C1965 H1957 0.941 . S
C1965 C1963 1.410 1_545 S
C1965 C1966 1.360 . S
C1966 H1958 0.930 . S
C1966 C1965 1.360 . S
C1966 C1969 1.409 1_545 S
C1967 H1959 0.954 . S
C1967 C1968 1.325 1_545 S
C1967 C1969 1.421 1_545 S
C1968 C1967 1.325 1_565 S
C1968 C1970 1.419 . S
C1969 C1964 1.425 . S
C1969 C1966 1.409 1_565 S
C1969 C1967 1.421 1_565 S
C1970 H1960 0.930 . S
C1970 C1968 1.419 . S
C1970 C1971 1.362 . S
C1971 H1961 0.930 . S
C1971 C1964 1.409 . S
C1971 C1970 1.362 . S
H1972 C1978 0.930 . S
H1973 C1981 0.930 1_655 S
H1974 C1982 0.930 . S
H1975 C1983 0.953 . S
H1976 C1986 0.930 . S
H1977 C1987 0.930 . S
C1978 H1972 0.930 . S
C1978 C1979 1.355 . S
C1978 C1980 1.415 . S
C1979 C1978 1.355 . S
C1979 C1981 1.419 . S
C1980 C1978 1.415 . S
C1980 C1985 1.425 . S
C1980 C1987 1.409 . S
C1981 H1973 0.930 1_455 S
C1981 C1979 1.419 . S
C1981 C1982 1.362 1_455 S
C1982 H1974 0.930 . S
C1982 C1981 1.362 1_655 S
C1982 C1985 1.409 1_655 S
C1983 H1975 0.953 . S
C1983 C1984 1.350 1_655 S
C1983 C1985 1.398 1_655 S
C1984 C1983 1.350 1_455 S
C1984 C1986 1.419 . S
C1985 C1980 1.425 . S
C1985 C1982 1.409 1_455 S
C1985 C1983 1.398 1_455 S
C1986 H1976 0.930 . S
C1986 C1984 1.419 . S
C1986 C1987 1.362 . S
C1987 H1977 0.930 . S
C1987 C1980 1.409 . S
C1987 C1986 1.362 . S
H1988 C1994 0.930 . S
H1989 C1997 0.930 . S
H1990 C1998 0.930 . S
H1991 C1999 0.930 . S
H1992 C2002 0.930 . S
H1993 C2003 0.930 . S
C1994 H1988 0.930 . S
C1994 C1995 1.355 . S
C1994 C1996 1.415 . S
C1995 C1994 1.355 . S
C1995 C1997 1.419 . S
C1996 C1994 1.415 . S
C1996 C2001 1.425 . S
C1996 C2003 1.409 . S
C1997 H1989 0.930 . S
C1997 C1995 1.419 . S
C1997 C1998 1.362 . S
C1998 H1990 0.930 . S
C1998 C1997 1.362 . S
C1998 C2001 1.409 . S
C1999 H1991 0.930 . S
C1999 C2000 1.355 . S
C1999 C2001 1.415 . S
C2000 C1999 1.355 . S
C2000 C2002 1.419 . S
C2001 C1996 1.425 . S
C2001 C1998 1.409 . S
C2001 C1999 1.415 . S
C2002 H1992 0.930 . S
C2002 C2000 1.419 . S
C2002 C2003 1.362 . S
C2003 H1993 0.930 . S
C2003 C1996 1.409 . S
C2003 C2002 1.362 . S
H2004 C2010 0.930 . S
H2005 C2013 0.930 . S
H2006 C2014 0.930 . S
H2007 C2015 0.930 . S
H2008 C2018 0.930 . S
H2009 C2019 0.930 . S
C2010 H2004 0.930 . S
C2010 C2011 1.355 . S
C2010 C2012 1.415 . S
C2011 C2010 1.355 . S
C2011 C2013 1.419 1_455 S
C2012 C2010 1.415 . S
C2012 C2017 1.449 . S
C2012 C2019 1.409 . S
C2013 H2005 0.930 . S
C2013 C2011 1.419 1_655 S
C2013 C2014 1.362 . S
C2014 H2006 0.930 . S
C2014 C2013 1.362 . S
C2014 C2017 1.384 1_655 S
C2015 H2007 0.930 . S
C2015 C2016 1.355 1_655 S
C2015 C2017 1.418 1_655 S
C2016 C2015 1.355 1_455 S
C2016 C2018 1.419 . S
C2017 C2012 1.449 . S
C2017 C2014 1.384 1_455 S
C2017 C2015 1.418 1_455 S
C2018 H2008 0.930 . S
C2018 C2016 1.419 . S
C2018 C2019 1.362 . S
C2019 H2009 0.930 . S
C2019 C2012 1.409 . S
C2019 C2018 1.362 . S
H2020 C2026 0.930 . S
H2021 C2029 0.930 . S
H2022 C2030 0.930 . S
H2023 C2031 0.930 . S
H2024 C2034 0.930 . S
H2025 C2035 0.930 . S
C2026 H2020 0.930 . S
C2026 C2027 1.355 . S
C2026 C2028 1.415 . S
C2027 C2026 1.355 . S
C2027 C2029 1.419 . S
C2028 C2026 1.415 . S
C2028 C2033 1.425 . S
C2028 C2035 1.409 . S
C2029 H2021 0.930 . S
C2029 C2027 1.419 . S
C2029 C2030 1.362 . S
C2030 H2022 0.930 . S
C2030 C2029 1.362 . S
C2030 C2033 1.409 . S
C2031 H2023 0.930 . S
C2031 C2032 1.355 . S
C2031 C2033 1.415 . S
C2032 C2031 1.355 . S
C2032 C2034 1.419 . S
C2033 C2028 1.425 . S
C2033 C2030 1.409 . S
C2033 C2031 1.415 . S
C2034 H2024 0.930 . S
C2034 C2032 1.419 . S
C2034 C2035 1.362 . S
C2035 H2025 0.930 . S
C2035 C2028 1.409 . S
C2035 C2034 1.362 . S
H2036 C2042 0.944 . S
H2037 C2045 0.930 . S
H2038 C2046 0.930 . S
H2039 C2047 0.930 . S
H2040 C2050 0.930 . S
H2041 C2051 0.930 . S
C2042 H2036 0.944 . S
C2042 C2043 1.355 . S
C2042 C2044 1.415 . S
C2043 C2042 1.355 . S
C2043 C2045 1.419 . S
C2044 C2042 1.415 . S
C2044 C2049 1.425 . S
C2044 C2051 1.409 1_565 S
C2045 H2037 0.930 . S
C2045 C2043 1.419 . S
C2045 C2046 1.362 . S
C2046 H2038 0.930 . S
C2046 C2045 1.362 . S
C2046 C2049 1.409 . S
C2047 H2039 0.930 . S
C2047 C2048 1.401 . S
C2047 C2049 1.415 . S
C2048 C2047 1.401 . S
C2048 C2050 1.397 1_565 S
C2049 C2044 1.425 . S
C2049 C2046 1.409 . S
C2049 C2047 1.415 . S
C2050 H2040 0.930 . S
C2050 C2048 1.397 1_545 S
C2050 C2051 1.362 . S
C2051 H2041 0.930 . S
C2051 C2044 1.409 1_545 S
C2051 C2050 1.362 . S
H2052 C2058 0.930 . S
H2053 C2061 0.930 . S
H2054 C2062 0.930 . S
H2055 C2063 0.930 . S
H2056 C2066 0.930 . S
H2057 C2067 0.930 . S
C2058 H2052 0.930 . S
C2058 C2059 1.355 . S
C2058 C2060 1.415 . S
C2059 C2058 1.355 . S
C2059 C2061 1.419 1_545 S
C2060 C2058 1.415 . S
C2060 C2065 1.462 . S
C2060 C2067 1.409 . S
C2061 H2053 0.930 . S
C2061 C2059 1.419 1_565 S
C2061 C2062 1.362 . S
C2062 H2054 0.930 . S
C2062 C2061 1.362 . S
C2062 C2065 1.370 1_565 S
C2063 H2055 0.930 . S
C2063 C2064 1.355 1_565 S
C2063 C2065 1.420 1_565 S
C2064 C2063 1.355 1_545 S
C2064 C2066 1.419 . S
C2065 C2060 1.462 . S
C2065 C2062 1.370 1_545 S
C2065 C2063 1.420 1_545 S
C2066 H2056 0.930 . S
C2066 C2064 1.419 . S
C2066 C2067 1.362 . S
C2067 H2057 0.930 . S
C2067 C2060 1.409 . S
C2067 C2066 1.362 . S
H2068 C2074 0.930 . S
H2069 C2077 0.930 . S
H2070 C2078 0.930 . S
H2071 C2079 0.930 . S
H2072 C2082 0.930 . S
H2073 C2083 0.930 . S
C2074 H2068 0.930 . S
C2074 C2075 1.355 . S
C2074 C2076 1.415 . S
C2075 C2074 1.355 . S
C2075 C2077 1.419 1_655 S
C2076 C2074 1.415 . S
C2076 C2081 1.377 1_655 S
C2076 C2083 1.409 . S
C2077 H2069 0.930 . S
C2077 C2075 1.419 1_455 S
C2077 C2078 1.362 . S
C2078 H2070 0.930 . S
C2078 C2077 1.362 . S
C2078 C2081 1.417 . S
C2079 H2071 0.930 . S
C2079 C2080 1.355 1_455 S
C2079 C2081 1.455 . S
C2080 C2079 1.355 1_655 S
C2080 C2082 1.419 . S
C2081 C2076 1.377 1_455 S
C2081 C2078 1.417 . S
C2081 C2079 1.455 . S
C2082 H2072 0.930 . S
C2082 C2080 1.419 . S
C2082 C2083 1.362 . S
C2083 H2073 0.930 . S
C2083 C2076 1.409 . S
C2083 C2082 1.362 . S
H2084 C2090 0.930 . S
H2085 C2093 0.930 . S
H2086 C2094 0.930 . S
H2087 C2095 0.930 . S
H2088 C2098 0.930 . S
H2089 C2099 0.930 . S
C2090 H2084 0.930 . S
C2090 C2091 1.355 . S
C2090 C2092 1.415 . S
C2091 C2090 1.355 . S
C2091 C2093 1.419 . S
C2092 C2090 1.415 . S
C2092 C2097 1.425 . S
C2092 C2099 1.409 . S
C2093 H2085 0.930 . S
C2093 C2091 1.419 . S
C2093 C2094 1.362 . S
C2094 H2086 0.930 . S
C2094 C2093 1.362 . S
C2094 C2097 1.409 . S
C2095 H2087 0.930 . S
C2095 C2096 1.355 . S
C2095 C2097 1.415 . S
C2096 C2095 1.355 . S
C2096 C2098 1.419 . S
C2097 C2092 1.425 . S
C2097 C2094 1.409 . S
C2097 C2095 1.415 . S
C2098 H2088 0.930 . S
C2098 C2096 1.419 . S
C2098 C2099 1.362 . S
C2099 H2089 0.930 . S
C2099 C2092 1.409 . S
C2099 C2098 1.362 . S
H2100 C2106 0.930 . S
H2101 C2109 0.930 . S
H2102 C2110 0.930 . S
H2103 C2111 0.930 . S
H2104 C2114 0.930 . S
H2105 C2115 0.930 . S
C2106 H2100 0.930 . S
C2106 C2107 1.355 . S
C2106 C2108 1.415 . S
C2107 C2106 1.355 . S
C2107 C2109 1.419 . S
C2108 C2106 1.415 . S
C2108 C2113 1.425 . S
C2108 C2115 1.409 . S
C2109 H2101 0.930 . S
C2109 C2107 1.419 . S
C2109 C2110 1.362 . S
C2110 H2102 0.930 . S
C2110 C2109 1.362 . S
C2110 C2113 1.409 . S
C2111 H2103 0.930 . S
C2111 C2112 1.355 . S
C2111 C2113 1.415 . S
C2112 C2111 1.355 . S
C2112 C2114 1.419 . S
C2113 C2108 1.425 . S
C2113 C2110 1.409 . S
C2113 C2111 1.415 . S
C2114 H2104 0.930 . S
C2114 C2112 1.419 . S
C2114 C2115 1.362 . S
C2115 H2105 0.930 . S
C2115 C2108 1.409 . S
C2115 C2114 1.362 . S
H2116 C2122 0.930 . S
H2117 C2125 0.930 . S
H2118 C2126 0.930 . S
H2119 C2127 0.930 . S
H2120 C2130 0.930 . S
H2121 C2131 0.930 . S
C2122 H2116 0.930 . S
C2122 C2123 1.355 . S
C2122 C2124 1.415 . S
C2123 C2122 1.355 . S
C2123 C2125 1.419 . S
C2124 C2122 1.415 . S
C2124 C2129 1.425 . S
C2124 C2131 1.409 . S
C2125 H2117 0.930 . S
C2125 C2123 1.419 . S
C2125 C2126 1.362 . S
C2126 H2118 0.930 . S
C2126 C2125 1.362 . S
C2126 C2129 1.409 . S
C2127 H2119 0.930 . S
C2127 C2128 1.355 . S
C2127 C2129 1.415 . S
C2128 C2127 1.355 . S
C2128 C2130 1.419 . S
C2129 C2124 1.425 . S
C2129 C2126 1.409 . S
C2129 C2127 1.415 . S
C2130 H2120 0.930 . S
C2130 C2128 1.419 . S
C2130 C2131 1.362 . S
C2131 H2121 0.930 . S
C2131 C2124 1.409 . S
C2131 C2130 1.362 . S
H2132 C2138 0.930 . S
H2133 C2141 0.930 . S
H2134 C2142 0.930 . S
H2135 C2143 0.930 . S
H2136 C2146 0.930 . S
H2137 C2147 0.930 . S
C2138 H2132 0.930 . S
C2138 C2139 1.355 . S
C2138 C2140 1.415 . S
C2139 C2138 1.355 . S
C2139 C2141 1.419 . S
C2140 C2138 1.415 . S
C2140 C2145 1.425 . S
C2140 C2147 1.409 . S
C2141 H2133 0.930 . S
C2141 C2139 1.419 . S
C2141 C2142 1.362 . S
C2142 H2134 0.930 . S
C2142 C2141 1.362 . S
C2142 C2145 1.409 . S
C2143 H2135 0.930 . S
C2143 C2144 1.355 . S
C2143 C2145 1.415 . S
C2144 C2143 1.355 . S
C2144 C2146 1.419 . S
C2145 C2140 1.425 . S
C2145 C2142 1.409 . S
C2145 C2143 1.415 . S
C2146 H2136 0.930 . S
C2146 C2144 1.419 . S
C2146 C2147 1.362 . S
C2147 H2137 0.930 . S
C2147 C2140 1.409 . S
C2147 C2146 1.362 . S
H2148 C2154 0.930 . S
H2149 C2157 0.930 . S
H2150 C2158 0.930 . S
H2151 C2159 0.930 . S
H2152 C2162 0.930 . S
H2153 C2163 0.930 . S
C2154 H2148 0.930 . S
C2154 C2155 1.355 . S
C2154 C2156 1.415 . S
C2155 C2154 1.355 . S
C2155 C2157 1.419 . S
C2156 C2154 1.415 . S
C2156 C2161 1.425 . S
C2156 C2163 1.409 . S
C2157 H2149 0.930 . S
C2157 C2155 1.419 . S
C2157 C2158 1.362 . S
C2158 H2150 0.930 . S
C2158 C2157 1.362 . S
C2158 C2161 1.409 . S
C2159 H2151 0.930 . S
C2159 C2160 1.355 . S
C2159 C2161 1.415 . S
C2160 C2159 1.355 . S
C2160 C2162 1.419 . S
C2161 C2156 1.425 . S
C2161 C2158 1.409 . S
C2161 C2159 1.415 . S
C2162 H2152 0.930 . S
C2162 C2160 1.419 . S
C2162 C2163 1.362 . S
C2163 H2153 0.930 . S
C2163 C2156 1.409 . S
C2163 C2162 1.362 . S
H2164 C2170 0.930 . S
H2165 C2173 0.930 . S
H2166 C2174 0.930 . S
H2167 C2175 0.930 . S
H2168 C2178 0.930 . S
H2169 C2179 0.930 . S
C2170 H2164 0.930 . S
C2170 C2171 1.355 . S
C2170 C2172 1.415 . S
C2171 C2170 1.355 . S
C2171 C2173 1.419 . S
C2172 C2170 1.415 . S
C2172 C2177 1.425 . S
C2172 C2179 1.409 . S
C2173 H2165 0.930 . S
C2173 C2171 1.419 . S
C2173 C2174 1.362 . S
C2174 H2166 0.930 . S
C2174 C2173 1.362 . S
C2174 C2177 1.409 . S
C2175 H2167 0.930 . S
C2175 C2176 1.355 . S
C2175 C2177 1.415 . S
C2176 C2175 1.355 . S
C2176 C2178 1.419 . S
C2177 C2172 1.425 . S
C2177 C2174 1.409 . S
C2177 C2175 1.415 . S
C2178 H2168 0.930 . S
C2178 C2176 1.419 . S
C2178 C2179 1.362 . S
C2179 H2169 0.930 . S
C2179 C2172 1.409 . S
C2179 C2178 1.362 . S
H2180 C2186 0.930 . S
H2181 C2189 0.930 . S
H2182 C2190 0.930 . S
H2183 C2191 0.930 . S
H2184 C2194 0.930 . S
H2185 C2195 0.930 . S
C2186 H2180 0.930 . S
C2186 C2187 1.355 . S
C2186 C2188 1.415 . S
C2187 C2186 1.355 . S
C2187 C2189 1.419 . S
C2188 C2186 1.415 . S
C2188 C2193 1.425 . S
C2188 C2195 1.409 . S
C2189 H2181 0.930 . S
C2189 C2187 1.419 . S
C2189 C2190 1.362 . S
C2190 H2182 0.930 . S
C2190 C2189 1.362 . S
C2190 C2193 1.409 . S
C2191 H2183 0.930 . S
C2191 C2192 1.355 . S
C2191 C2193 1.415 . S
C2192 C2191 1.355 . S
C2192 C2194 1.419 . S
C2193 C2188 1.425 . S
C2193 C2190 1.409 . S
C2193 C2191 1.415 . S
C2194 H2184 0.930 . S
C2194 C2192 1.419 . S
C2194 C2195 1.362 . S
C2195 H2185 0.930 . S
C2195 C2188 1.409 . S
C2195 C2194 1.362 . S
H2196 C2202 0.930 . S
H2197 C2205 0.930 . S
H2198 C2206 0.930 . S
H2199 C2207 0.930 . S
H2200 C2210 0.930 . S
H2201 C2211 0.930 . S
C2202 H2196 0.930 . S
C2202 C2203 1.355 . S
C2202 C2204 1.415 . S
C2203 C2202 1.355 . S
C2203 C2205 1.419 . S
C2204 C2202 1.415 . S
C2204 C2209 1.425 . S
C2204 C2211 1.409 . S
C2205 H2197 0.930 . S
C2205 C2203 1.419 . S
C2205 C2206 1.362 . S
C2206 H2198 0.930 . S
C2206 C2205 1.362 . S
C2206 C2209 1.409 . S
C2207 H2199 0.930 . S
C2207 C2208 1.355 . S
C2207 C2209 1.415 . S
C2208 C2207 1.355 . S
C2208 C2210 1.419 . S
C2209 C2204 1.425 . S
C2209 C2206 1.409 . S
C2209 C2207 1.415 . S
C2210 H2200 0.930 . S
C2210 C2208 1.419 . S
C2210 C2211 1.362 . S
C2211 H2201 0.930 . S
C2211 C2204 1.409 . S
C2211 C2210 1.362 . S
H2212 C2218 0.930 . S
H2213 C2221 0.930 . S
H2214 C2222 0.930 . S
H2215 C2223 0.930 . S
H2216 C2226 0.930 . S
H2217 C2227 0.930 . S
C2218 H2212 0.930 . S
C2218 C2219 1.355 . S
C2218 C2220 1.415 . S
C2219 C2218 1.355 . S
C2219 C2221 1.419 . S
C2220 C2218 1.415 . S
C2220 C2225 1.425 . S
C2220 C2227 1.409 . S
C2221 H2213 0.930 . S
C2221 C2219 1.419 . S
C2221 C2222 1.362 . S
C2222 H2214 0.930 . S
C2222 C2221 1.362 . S
C2222 C2225 1.409 . S
C2223 H2215 0.930 . S
C2223 C2224 1.355 . S
C2223 C2225 1.415 . S
C2224 C2223 1.355 . S
C2224 C2226 1.419 . S
C2225 C2220 1.425 . S
C2225 C2222 1.409 . S
C2225 C2223 1.415 . S
C2226 H2216 0.930 . S
C2226 C2224 1.419 . S
C2226 C2227 1.362 . S
C2227 H2217 0.930 . S
C2227 C2220 1.409 . S
C2227 C2226 1.362 . S
H2228 C2234 0.930 . S
H2229 C2237 0.930 . S
H2230 C2238 0.930 . S
H2231 C2239 0.930 . S
H2232 C2242 0.930 . S
H2233 C2243 0.930 . S
C2234 H2228 0.930 . S
C2234 C2235 1.355 . S
C2234 C2236 1.415 . S
C2235 C2234 1.355 . S
C2235 C2237 1.419 . S
C2236 C2234 1.415 . S
C2236 C2241 1.425 . S
C2236 C2243 1.409 . S
C2237 H2229 0.930 . S
C2237 C2235 1.419 . S
C2237 C2238 1.362 . S
C2238 H2230 0.930 . S
C2238 C2237 1.362 . S
C2238 C2241 1.409 . S
C2239 H2231 0.930 . S
C2239 C2240 1.355 . S
C2239 C2241 1.415 . S
C2240 C2239 1.355 . S
C2240 C2242 1.419 . S
C2241 C2236 1.425 . S
C2241 C2238 1.409 . S
C2241 C2239 1.415 . S
C2242 H2232 0.930 . S
C2242 C2240 1.419 . S
C2242 C2243 1.362 . S
C2243 H2233 0.930 . S
C2243 C2236 1.409 . S
C2243 C2242 1.362 . S
H2244 C2250 0.930 . S
H2245 C2253 0.930 . S
H2246 C2254 0.930 . S
H2247 C2255 0.930 . S
H2248 C2258 0.930 . S
H2249 C2259 0.930 . S
C2250 H2244 0.930 . S
C2250 C2251 1.355 . S
C2250 C2252 1.415 . S
C2251 C2250 1.355 . S
C2251 C2253 1.419 . S
C2252 C2250 1.415 . S
C2252 C2257 1.425 . S
C2252 C2259 1.409 . S
C2253 H2245 0.930 . S
C2253 C2251 1.419 . S
C2253 C2254 1.362 . S
C2254 H2246 0.930 . S
C2254 C2253 1.362 . S
C2254 C2257 1.409 . S
C2255 H2247 0.930 . S
C2255 C2256 1.355 . S
C2255 C2257 1.415 . S
C2256 C2255 1.355 . S
C2256 C2258 1.419 . S
C2257 C2252 1.425 . S
C2257 C2254 1.409 . S
C2257 C2255 1.415 . S
C2258 H2248 0.930 . S
C2258 C2256 1.419 . S
C2258 C2259 1.362 . S
C2259 H2249 0.930 . S
C2259 C2252 1.409 . S
C2259 C2258 1.362 . S
H2260 C2266 0.930 . S
H2261 C2269 0.930 . S
H2262 C2270 0.930 . S
H2263 C2271 0.930 . S
H2264 C2274 0.930 . S
H2265 C2275 0.930 . S
C2266 H2260 0.930 . S
C2266 C2267 1.355 . S
C2266 C2268 1.415 . S
C2267 C2266 1.355 . S
C2267 C2269 1.419 . S
C2268 C2266 1.415 . S
C2268 C2273 1.425 . S
C2268 C2275 1.409 . S
C2269 H2261 0.930 . S
C2269 C2267 1.419 . S
C2269 C2270 1.362 . S
C2270 H2262 0.930 . S
C2270 C2269 1.362 . S
C2270 C2273 1.409 . S
C2271 H2263 0.930 . S
C2271 C2272 1.355 . S
C2271 C2273 1.415 . S
C2272 C2271 1.355 . S
C2272 C2274 1.419 . S
C2273 C2268 1.425 . S
C2273 C2270 1.409 . S
C2273 C2271 1.415 . S
C2274 H2264 0.930 . S
C2274 C2272 1.419 . S
C2274 C2275 1.362 . S
C2275 H2265 0.930 . S
C2275 C2268 1.409 . S
C2275 C2274 1.362 . S
H2276 C2282 0.930 . S
H2277 C2285 0.930 . S
H2278 C2286 0.930 . S
H2279 C2287 0.930 . S
H2280 C2290 0.930 . S
H2281 C2291 0.930 . S
C2282 H2276 0.930 . S
C2282 C2283 1.355 . S
C2282 C2284 1.415 . S
C2283 C2282 1.355 . S
C2283 C2285 1.419 . S
C2284 C2282 1.415 . S
C2284 C2289 1.425 . S
C2284 C2291 1.409 . S
C2285 H2277 0.930 . S
C2285 C2283 1.419 . S
C2285 C2286 1.362 . S
C2286 H2278 0.930 . S
C2286 C2285 1.362 . S
C2286 C2289 1.409 . S
C2287 H2279 0.930 . S
C2287 C2288 1.355 . S
C2287 C2289 1.415 . S
C2288 C2287 1.355 . S
C2288 C2290 1.419 . S
C2289 C2284 1.425 . S
C2289 C2286 1.409 . S
C2289 C2287 1.415 . S
C2290 H2280 0.930 . S
C2290 C2288 1.419 . S
C2290 C2291 1.362 . S
C2291 H2281 0.930 . S
C2291 C2284 1.409 . S
C2291 C2290 1.362 . S
H2292 C2298 0.930 . S
H2293 C2301 0.930 . S
H2294 C2302 0.930 . S
H2295 C2303 0.930 . S
H2296 C2306 0.930 . S
H2297 C2307 0.930 . S
C2298 H2292 0.930 . S
C2298 C2299 1.355 . S
C2298 C2300 1.415 . S
C2299 C2298 1.355 . S
C2299 C2301 1.419 . S
C2300 C2298 1.415 . S
C2300 C2305 1.425 . S
C2300 C2307 1.409 . S
C2301 H2293 0.930 . S
C2301 C2299 1.419 . S
C2301 C2302 1.362 . S
C2302 H2294 0.930 . S
C2302 C2301 1.362 . S
C2302 C2305 1.409 . S
C2303 H2295 0.930 . S
C2303 C2304 1.355 . S
C2303 C2305 1.415 . S
C2304 C2303 1.355 . S
C2304 C2306 1.419 . S
C2305 C2300 1.425 . S
C2305 C2302 1.409 . S
C2305 C2303 1.415 . S
C2306 H2296 0.930 . S
C2306 C2304 1.419 . S
C2306 C2307 1.362 . S
C2307 H2297 0.930 . S
C2307 C2300 1.409 . S
C2307 C2306 1.362 . S
H2308 C2314 0.930 . S
H2309 C2317 0.930 . S
H2310 C2318 0.930 . S
H2311 C2319 0.930 . S
H2312 C2322 0.930 . S
H2313 C2323 0.930 . S
C2314 H2308 0.930 . S
C2314 C2315 1.355 . S
C2314 C2316 1.415 . S
C2315 C2314 1.355 . S
C2315 C2317 1.419 . S
C2316 C2314 1.415 . S
C2316 C2321 1.425 . S
C2316 C2323 1.409 . S
C2317 H2309 0.930 . S
C2317 C2315 1.419 . S
C2317 C2318 1.362 . S
C2318 H2310 0.930 . S
C2318 C2317 1.362 . S
C2318 C2321 1.409 . S
C2319 H2311 0.930 . S
C2319 C2320 1.355 . S
C2319 C2321 1.415 . S
C2320 C2319 1.355 . S
C2320 C2322 1.419 . S
C2321 C2316 1.425 . S
C2321 C2318 1.409 . S
C2321 C2319 1.415 . S
C2322 H2312 0.930 . S
C2322 C2320 1.419 . S
C2322 C2323 1.362 . S
C2323 H2313 0.930 . S
C2323 C2316 1.409 . S
C2323 C2322 1.362 . S
H2324 C2330 0.930 . S
H2325 C2333 0.930 . S
H2326 C2334 0.930 . S
H2327 C2335 0.930 . S
H2328 C2338 0.930 . S
H2329 C2339 0.930 . S
C2330 H2324 0.930 . S
C2330 C2331 1.355 . S
C2330 C2332 1.415 . S
C2331 C2330 1.355 . S
C2331 C2333 1.419 . S
C2332 C2330 1.415 . S
C2332 C2337 1.425 . S
C2332 C2339 1.409 . S
C2333 H2325 0.930 . S
C2333 C2331 1.419 . S
C2333 C2334 1.362 . S
C2334 H2326 0.930 . S
C2334 C2333 1.362 . S
C2334 C2337 1.409 . S
C2335 H2327 0.930 . S
C2335 C2336 1.355 . S
C2335 C2337 1.415 . S
C2336 C2335 1.355 . S
C2336 C2338 1.419 . S
C2337 C2332 1.425 . S
C2337 C2334 1.409 . S
C2337 C2335 1.415 . S
C2338 H2328 0.930 . S
C2338 C2336 1.419 . S
C2338 C2339 1.362 . S
C2339 H2329 0.930 . S
C2339 C2332 1.409 . S
C2339 C2338 1.362 . S
H2340 C2346 0.930 . S
H2341 C2349 0.930 . S
H2342 C2350 0.930 . S
H2343 C2351 0.930 . S
H2344 C2354 0.930 . S
H2345 C2355 0.930 . S
C2346 H2340 0.930 . S
C2346 C2347 1.355 . S
C2346 C2348 1.415 . S
C2347 C2346 1.355 . S
C2347 C2349 1.419 . S
C2348 C2346 1.415 . S
C2348 C2353 1.425 . S
C2348 C2355 1.409 . S
C2349 H2341 0.930 . S
C2349 C2347 1.419 . S
C2349 C2350 1.362 . S
C2350 H2342 0.930 . S
C2350 C2349 1.362 . S
C2350 C2353 1.409 . S
C2351 H2343 0.930 . S
C2351 C2352 1.355 . S
C2351 C2353 1.415 . S
C2352 C2351 1.355 . S
C2352 C2354 1.419 . S
C2353 C2348 1.425 . S
C2353 C2350 1.409 . S
C2353 C2351 1.415 . S
C2354 H2344 0.930 . S
C2354 C2352 1.419 . S
C2354 C2355 1.362 . S
C2355 H2345 0.930 . S
C2355 C2348 1.409 . S
C2355 C2354 1.362 . S
H2356 C2362 0.930 . S
H2357 C2365 0.930 . S
H2358 C2366 0.930 . S
H2359 C2367 0.930 . S
H2360 C2370 0.930 . S
H2361 C2371 0.930 . S
C2362 H2356 0.930 . S
C2362 C2363 1.355 . S
C2362 C2364 1.415 . S
C2363 C2362 1.355 . S
C2363 C2365 1.419 . S
C2364 C2362 1.415 . S
C2364 C2369 1.425 . S
C2364 C2371 1.409 . S
C2365 H2357 0.930 . S
C2365 C2363 1.419 . S
C2365 C2366 1.362 . S
C2366 H2358 0.930 . S
C2366 C2365 1.362 . S
C2366 C2369 1.409 . S
C2367 H2359 0.930 . S
C2367 C2368 1.355 . S
C2367 C2369 1.415 . S
C2368 C2367 1.355 . S
C2368 C2370 1.419 . S
C2369 C2364 1.425 . S
C2369 C2366 1.409 . S
C2369 C2367 1.415 . S
C2370 H2360 0.930 . S
C2370 C2368 1.419 . S
C2370 C2371 1.362 . S
C2371 H2361 0.930 . S
C2371 C2364 1.409 . S
C2371 C2370 1.362 . S
H2372 C2378 0.930 . S
H2373 C2381 0.930 . S
H2374 C2382 0.930 . S
H2375 C2383 0.930 . S
H2376 C2386 0.930 . S
H2377 C2387 0.930 . S
C2378 H2372 0.930 . S
C2378 C2379 1.355 . S
C2378 C2380 1.415 . S
C2379 C2378 1.355 . S
C2379 C2381 1.419 . S
C2380 C2378 1.415 . S
C2380 C2385 1.425 . S
C2380 C2387 1.409 . S
C2381 H2373 0.930 . S
C2381 C2379 1.419 . S
C2381 C2382 1.362 . S
C2382 H2374 0.930 . S
C2382 C2381 1.362 . S
C2382 C2385 1.409 . S
C2383 H2375 0.930 . S
C2383 C2384 1.355 . S
C2383 C2385 1.415 . S
C2384 C2383 1.355 . S
C2384 C2386 1.419 . S
C2385 C2380 1.425 . S
C2385 C2382 1.409 . S
C2385 C2383 1.415 . S
C2386 H2376 0.930 . S
C2386 C2384 1.419 . S
C2386 C2387 1.362 . S
C2387 H2377 0.930 . S
C2387 C2380 1.409 . S
C2387 C2386 1.362 . S
H2388 C2394 0.930 . S
H2389 C2397 0.930 . S
H2390 C2398 0.930 . S
H2391 C2399 0.930 . S
H2392 C2402 0.930 . S
H2393 C2403 0.930 . S
C2394 H2388 0.930 . S
C2394 C2395 1.355 . S
C2394 C2396 1.415 . S
C2395 C2394 1.355 . S
C2395 C2397 1.419 . S
C2396 C2394 1.415 . S
C2396 C2401 1.425 . S
C2396 C2403 1.409 . S
C2397 H2389 0.930 . S
C2397 C2395 1.419 . S
C2397 C2398 1.362 . S
C2398 H2390 0.930 . S
C2398 C2397 1.362 . S
C2398 C2401 1.409 . S
C2399 H2391 0.930 . S
C2399 C2400 1.355 . S
C2399 C2401 1.415 . S
C2400 C2399 1.355 . S
C2400 C2402 1.419 . S
C2401 C2396 1.425 . S
C2401 C2398 1.409 . S
C2401 C2399 1.415 . S
C2402 H2392 0.930 . S
C2402 C2400 1.419 . S
C2402 C2403 1.362 . S
C2403 H2393 0.930 . S
C2403 C2396 1.409 . S
C2403 C2402 1.362 . S
H2404 C2410 0.930 . S
H2405 C2413 0.930 . S
H2406 C2414 0.930 . S
H2407 C2415 0.930 . S
H2408 C2418 0.930 . S
H2409 C2419 0.930 . S
C2410 H2404 0.930 . S
C2410 C2411 1.355 . S
C2410 C2412 1.415 . S
C2411 C2410 1.355 . S
C2411 C2413 1.419 . S
C2412 C2410 1.415 . S
C2412 C2417 1.425 . S
C2412 C2419 1.409 . S
C2413 H2405 0.930 . S
C2413 C2411 1.419 . S
C2413 C2414 1.362 . S
C2414 H2406 0.930 . S
C2414 C2413 1.362 . S
C2414 C2417 1.409 . S
C2415 H2407 0.930 . S
C2415 C2416 1.355 . S
C2415 C2417 1.415 . S
C2416 C2415 1.355 . S
C2416 C2418 1.419 . S
C2417 C2412 1.425 . S
C2417 C2414 1.409 . S
C2417 C2415 1.415 . S
C2418 H2408 0.930 . S
C2418 C2416 1.419 . S
C2418 C2419 1.362 . S
C2419 H2409 0.930 . S
C2419 C2412 1.409 . S
C2419 C2418 1.362 . S
H2420 C2426 0.930 . S
H2421 C2429 0.930 . S
H2422 C2430 0.930 . S
H2423 C2431 0.930 . S
H2424 C2434 0.930 . S
H2425 C2435 0.930 . S
C2426 H2420 0.930 . S
C2426 C2427 1.355 . S
C2426 C2428 1.415 . S
C2427 C2426 1.355 . S
C2427 C2429 1.419 . S
C2428 C2426 1.415 . S
C2428 C2433 1.425 . S
C2428 C2435 1.409 . S
C2429 H2421 0.930 . S
C2429 C2427 1.419 . S
C2429 C2430 1.362 . S
C2430 H2422 0.930 . S
C2430 C2429 1.362 . S
C2430 C2433 1.409 . S
C2431 H2423 0.930 . S
C2431 C2432 1.355 . S
C2431 C2433 1.415 . S
C2432 C2431 1.355 . S
C2432 C2434 1.419 . S
C2433 C2428 1.425 . S
C2433 C2430 1.409 . S
C2433 C2431 1.415 . S
C2434 H2424 0.930 . S
C2434 C2432 1.419 . S
C2434 C2435 1.362 . S
C2435 H2425 0.930 . S
C2435 C2428 1.409 . S
C2435 C2434 1.362 . S
H2436 C2442 0.930 . S
H2437 C2445 0.930 . S
H2438 C2446 0.930 . S
H2439 C2447 0.930 . S
H2440 C2450 0.930 . S
H2441 C2451 0.930 . S
C2442 H2436 0.930 . S
C2442 C2443 1.355 . S
C2442 C2444 1.415 . S
C2443 C2442 1.355 . S
C2443 C2445 1.419 . S
C2444 C2442 1.415 . S
C2444 C2449 1.425 . S
C2444 C2451 1.409 . S
C2445 H2437 0.930 . S
C2445 C2443 1.419 . S
C2445 C2446 1.362 . S
C2446 H2438 0.930 . S
C2446 C2445 1.362 . S
C2446 C2449 1.409 . S
C2447 H2439 0.930 . S
C2447 C2448 1.355 . S
C2447 C2449 1.415 . S
C2448 C2447 1.355 . S
C2448 C2450 1.419 . S
C2449 C2444 1.425 . S
C2449 C2446 1.409 . S
C2449 C2447 1.415 . S
C2450 H2440 0.930 . S
C2450 C2448 1.419 . S
C2450 C2451 1.362 . S
C2451 H2441 0.930 . S
C2451 C2444 1.409 . S
C2451 C2450 1.362 . S
H2452 C2458 0.930 . S
H2453 C2461 0.930 . S
H2454 C2462 0.930 . S
H2455 C2463 0.930 . S
H2456 C2466 0.930 . S
H2457 C2467 0.930 . S
C2458 H2452 0.930 . S
C2458 C2459 1.355 . S
C2458 C2460 1.415 . S
C2459 C2458 1.355 . S
C2459 C2461 1.419 . S
C2460 C2458 1.415 . S
C2460 C2465 1.425 . S
C2460 C2467 1.409 . S
C2461 H2453 0.930 . S
C2461 C2459 1.419 . S
C2461 C2462 1.362 . S
C2462 H2454 0.930 . S
C2462 C2461 1.362 . S
C2462 C2465 1.409 . S
C2463 H2455 0.930 . S
C2463 C2464 1.355 . S
C2463 C2465 1.415 . S
C2464 C2463 1.355 . S
C2464 C2466 1.419 . S
C2465 C2460 1.425 . S
C2465 C2462 1.409 . S
C2465 C2463 1.415 . S
C2466 H2456 0.930 . S
C2466 C2464 1.419 . S
C2466 C2467 1.362 . S
C2467 H2457 0.930 . S
C2467 C2460 1.409 . S
C2467 C2466 1.362 . S
H2468 C2474 0.930 . S
H2469 C2477 0.930 . S
H2470 C2478 0.930 . S
H2471 C2479 0.930 . S
H2472 C2482 0.930 . S
H2473 C2483 0.930 . S
C2474 H2468 0.930 . S
C2474 C2475 1.355 . S
C2474 C2476 1.415 . S
C2475 C2474 1.355 . S
C2475 C2477 1.419 . S
C2476 C2474 1.415 . S
C2476 C2481 1.425 . S
C2476 C2483 1.409 . S
C2477 H2469 0.930 . S
C2477 C2475 1.419 . S
C2477 C2478 1.362 . S
C2478 H2470 0.930 . S
C2478 C2477 1.362 . S
C2478 C2481 1.409 . S
C2479 H2471 0.930 . S
C2479 C2480 1.355 . S
C2479 C2481 1.415 . S
C2480 C2479 1.355 . S
C2480 C2482 1.419 . S
C2481 C2476 1.425 . S
C2481 C2478 1.409 . S
C2481 C2479 1.415 . S
C2482 H2472 0.930 . S
C2482 C2480 1.419 . S
C2482 C2483 1.362 . S
C2483 H2473 0.930 . S
C2483 C2476 1.409 . S
C2483 C2482 1.362 . S
H2484 C2490 0.930 . S
H2485 C2493 0.930 . S
H2486 C2494 0.930 . S
H2487 C2495 0.930 . S
H2488 C2498 0.930 . S
H2489 C2499 0.930 . S
C2490 H2484 0.930 . S
C2490 C2491 1.355 . S
C2490 C2492 1.415 . S
C2491 C2490 1.355 . S
C2491 C2493 1.419 . S
C2492 C2490 1.415 . S
C2492 C2497 1.425 . S
C2492 C2499 1.409 . S
C2493 H2485 0.930 . S
C2493 C2491 1.419 . S
C2493 C2494 1.362 . S
C2494 H2486 0.930 . S
C2494 C2493 1.362 . S
C2494 C2497 1.409 . S
C2495 H2487 0.930 . S
C2495 C2496 1.355 . S
C2495 C2497 1.415 . S
C2496 C2495 1.355 . S
C2496 C2498 1.419 . S
C2497 C2492 1.425 . S
C2497 C2494 1.409 . S
C2497 C2495 1.415 . S
C2498 H2488 0.930 . S
C2498 C2496 1.419 . S
C2498 C2499 1.362 . S
C2499 H2489 0.930 . S
C2499 C2492 1.409 . S
C2499 C2498 1.362 . S
H2500 C2506 0.930 . S
H2501 C2509 0.930 . S
H2502 C2510 0.930 . S
H2503 C2511 0.930 . S
H2504 C2514 0.930 . S
H2505 C2515 0.930 . S
C2506 H2500 0.930 . S
C2506 C2507 1.355 . S
C2506 C2508 1.415 . S
C2507 C2506 1.355 . S
C2507 C2509 1.419 . S
C2508 C2506 1.415 . S
C2508 C2513 1.425 . S
C2508 C2515 1.409 . S
C2509 H2501 0.930 . S
C2509 C2507 1.419 . S
C2509 C2510 1.362 . S
C2510 H2502 0.930 . S
C2510 C2509 1.362 . S
C2510 C2513 1.409 . S
C2511 H2503 0.930 . S
C2511 C2512 1.355 . S
C2511 C2513 1.415 . S
C2512 C2511 1.355 . S
C2512 C2514 1.419 . S
C2513 C2508 1.425 . S
C2513 C2510 1.409 . S
C2513 C2511 1.415 . S
C2514 H2504 0.930 . S
C2514 C2512 1.419 . S
C2514 C2515 1.362 . S
C2515 H2505 0.930 . S
C2515 C2508 1.409 . S
C2515 C2514 1.362 . S
H2516 C2522 0.930 . S
H2517 C2525 0.930 . S
H2518 C2526 0.930 . S
H2519 C2527 0.930 . S
H2520 C2530 0.930 . S
H2521 C2531 0.930 . S
C2522 H2516 0.930 . S
C2522 C2523 1.355 . S
C2522 C2524 1.415 . S
C2523 C2522 1.355 . S
C2523 C2525 1.419 . S
C2524 C2522 1.415 . S
C2524 C2529 1.425 . S
C2524 C2531 1.409 . S
C2525 H2517 0.930 . S
C2525 C2523 1.419 . S
C2525 C2526 1.362 . S
C2526 H2518 0.930 . S
C2526 C2525 1.362 . S
C2526 C2529 1.409 . S
C2527 H2519 0.930 . S
C2527 C2528 1.355 . S
C2527 C2529 1.415 . S
C2528 C2527 1.355 . S
C2528 C2530 1.419 . S
C2529 C2524 1.425 . S
C2529 C2526 1.409 . S
C2529 C2527 1.415 . S
C2530 H2520 0.930 . S
C2530 C2528 1.419 . S
C2530 C2531 1.362 . S
C2531 H2521 0.930 . S
C2531 C2524 1.409 . S
C2531 C2530 1.362 . S
H2532 C2538 0.930 . S
H2533 C2541 0.930 . S
H2534 C2542 0.930 . S
H2535 C2543 0.930 . S
H2536 C2546 0.930 . S
H2537 C2547 0.930 . S
C2538 H2532 0.930 . S
C2538 C2539 1.355 . S
C2538 C2540 1.415 . S
C2539 C2538 1.355 . S
C2539 C2541 1.419 . S
C2540 C2538 1.415 . S
C2540 C2545 1.425 . S
C2540 C2547 1.409 . S
C2541 H2533 0.930 . S
C2541 C2539 1.419 . S
C2541 C2542 1.362 . S
C2542 H2534 0.930 . S
C2542 C2541 1.362 . S
C2542 C2545 1.409 . S
C2543 H2535 0.930 . S
C2543 C2544 1.355 . S
C2543 C2545 1.415 . S
C2544 C2543 1.355 . S
C2544 C2546 1.419 . S
C2545 C2540 1.425 . S
C2545 C2542 1.409 . S
C2545 C2543 1.415 . S
C2546 H2536 0.930 . S
C2546 C2544 1.419 . S
C2546 C2547 1.362 . S
C2547 H2537 0.930 . S
C2547 C2540 1.409 . S
C2547 C2546 1.362 . S
H2548 C2554 0.930 . S
H2549 C2557 0.930 . S
H2550 C2558 0.930 . S
H2551 C2559 0.930 . S
H2552 C2562 0.930 . S
H2553 C2563 0.930 . S
C2554 H2548 0.930 . S
C2554 C2555 1.355 . S
C2554 C2556 1.415 . S
C2555 C2554 1.355 . S
C2555 C2557 1.419 . S
C2556 C2554 1.415 . S
C2556 C2561 1.425 . S
C2556 C2563 1.409 . S
C2557 H2549 0.930 . S
C2557 C2555 1.419 . S
C2557 C2558 1.362 . S
C2558 H2550 0.930 . S
C2558 C2557 1.362 . S
C2558 C2561 1.409 . S
C2559 H2551 0.930 . S
C2559 C2560 1.355 . S
C2559 C2561 1.415 . S
C2560 C2559 1.355 . S
C2560 C2562 1.419 . S
C2561 C2556 1.425 . S
C2561 C2558 1.409 . S
C2561 C2559 1.415 . S
C2562 H2552 0.930 . S
C2562 C2560 1.419 . S
C2562 C2563 1.362 . S
C2563 H2553 0.930 . S
C2563 C2556 1.409 . S
C2563 C2562 1.362 . S
H2564 C2570 0.930 . S
H2565 C2573 0.930 . S
H2566 C2574 0.930 . S
H2567 C2575 0.930 . S
H2568 C2578 0.930 . S
H2569 C2579 0.930 . S
C2570 H2564 0.930 . S
C2570 C2571 1.355 . S
C2570 C2572 1.415 . S
C2571 C2570 1.355 . S
C2571 C2573 1.419 . S
C2572 C2570 1.415 . S
C2572 C2577 1.425 . S
C2572 C2579 1.409 . S
C2573 H2565 0.930 . S
C2573 C2571 1.419 . S
C2573 C2574 1.362 . S
C2574 H2566 0.930 . S
C2574 C2573 1.362 . S
C2574 C2577 1.409 . S
C2575 H2567 0.930 . S
C2575 C2576 1.355 . S
C2575 C2577 1.415 . S
C2576 C2575 1.355 . S
C2576 C2578 1.419 . S
C2577 C2572 1.425 . S
C2577 C2574 1.409 . S
C2577 C2575 1.415 . S
C2578 H2568 0.930 . S
C2578 C2576 1.419 . S
C2578 C2579 1.362 . S
C2579 H2569 0.930 . S
C2579 C2572 1.409 . S
C2579 C2578 1.362 . S
H2580 C2586 0.930 1_554 S
H2581 C2589 0.930 . S
H2582 C2590 0.930 . S
H2583 C2591 0.930 . S
H2584 C2594 0.930 . S
H2585 C2595 0.930 1_554 S
C2586 H2580 0.930 1_556 S
C2586 C2587 1.355 . S
C2586 C2588 1.415 . S
C2587 C2586 1.355 . S
C2587 C2589 1.419 . S
C2588 C2586 1.415 . S
C2588 C2593 1.425 . S
C2588 C2595 1.409 . S
C2589 H2581 0.930 . S
C2589 C2587 1.419 . S
C2589 C2590 1.362 . S
C2590 H2582 0.930 . S
C2590 C2589 1.362 . S
C2590 C2593 1.409 . S
C2591 H2583 0.930 . S
C2591 C2592 1.355 . S
C2591 C2593 1.415 . S
C2592 C2591 1.355 . S
C2592 C2594 1.419 . S
C2593 C2588 1.425 . S
C2593 C2590 1.409 . S
C2593 C2591 1.415 . S
C2594 H2584 0.930 . S
C2594 C2592 1.419 . S
C2594 C2595 1.362 . S
C2595 H2585 0.930 1_556 S
C2595 C2588 1.409 . S
C2595 C2594 1.362 . S
H2596 C2602 0.930 . S
H2597 C2605 0.930 . S
H2598 C2606 0.930 . S
H2599 C2607 0.930 . S
H2600 C2610 0.930 . S
H2601 C2611 0.930 . S
C2602 H2596 0.930 . S
C2602 C2603 1.355 . S
C2602 C2604 1.415 . S
C2603 C2602 1.355 . S
C2603 C2605 1.419 . S
C2604 C2602 1.415 . S
C2604 C2609 1.425 . S
C2604 C2611 1.409 . S
C2605 H2597 0.930 . S
C2605 C2603 1.419 . S
C2605 C2606 1.362 . S
C2606 H2598 0.930 . S
C2606 C2605 1.362 . S
C2606 C2609 1.409 . S
C2607 H2599 0.930 . S
C2607 C2608 1.355 . S
C2607 C2609 1.415 . S
C2608 C2607 1.355 . S
C2608 C2610 1.419 . S
C2609 C2604 1.425 . S
C2609 C2606 1.409 . S
C2609 C2607 1.415 . S
C2610 H2600 0.930 . S
C2610 C2608 1.419 . S
C2610 C2611 1.362 . S
C2611 H2601 0.930 . S
C2611 C2604 1.409 . S
C2611 C2610 1.362 . S
H2612 C2618 0.930 . S
H2613 C2621 0.930 . S
H2614 C2622 0.930 . S
H2615 C2623 0.930 . S
H2616 C2626 0.930 . S
H2617 C2627 0.930 . S
C2618 H2612 0.930 . S
C2618 C2619 1.355 . S
C2618 C2620 1.415 . S
C2619 C2618 1.355 . S
C2619 C2621 1.419 . S
C2620 C2618 1.415 . S
C2620 C2625 1.425 . S
C2620 C2627 1.409 . S
C2621 H2613 0.930 . S
C2621 C2619 1.419 . S
C2621 C2622 1.362 . S
C2622 H2614 0.930 . S
C2622 C2621 1.362 . S
C2622 C2625 1.409 . S
C2623 H2615 0.930 . S
C2623 C2624 1.355 . S
C2623 C2625 1.415 . S
C2624 C2623 1.355 . S
C2624 C2626 1.419 . S
C2625 C2620 1.425 . S
C2625 C2622 1.409 . S
C2625 C2623 1.415 . S
C2626 H2616 0.930 . S
C2626 C2624 1.419 . S
C2626 C2627 1.362 . S
C2627 H2617 0.930 . S
C2627 C2620 1.409 . S
C2627 C2626 1.362 . S
H2628 C2634 0.930 . S
H2629 C2637 0.930 . S
H2630 C2638 0.930 . S
H2631 C2639 0.930 . S
H2632 C2642 0.930 . S
H2633 C2643 0.930 . S
C2634 H2628 0.930 . S
C2634 C2635 1.355 . S
C2634 C2636 1.415 . S
C2635 C2634 1.355 . S
C2635 C2637 1.419 . S
C2636 C2634 1.415 . S
C2636 C2641 1.425 . S
C2636 C2643 1.409 . S
C2637 H2629 0.930 . S
C2637 C2635 1.419 . S
C2637 C2638 1.362 . S
C2638 H2630 0.930 . S
C2638 C2637 1.362 . S
C2638 C2641 1.409 . S
C2639 H2631 0.930 . S
C2639 C2640 1.355 . S
C2639 C2641 1.415 . S
C2640 C2639 1.355 . S
C2640 C2642 1.419 . S
C2641 C2636 1.425 . S
C2641 C2638 1.409 . S
C2641 C2639 1.415 . S
C2642 H2632 0.930 . S
C2642 C2640 1.419 . S
C2642 C2643 1.362 . S
C2643 H2633 0.930 . S
C2643 C2636 1.409 . S
C2643 C2642 1.362 . S
H2644 C2650 0.930 . S
H2645 C2653 0.930 . S
H2646 C2654 0.930 . S
H2647 C2655 0.930 . S
H2648 C2658 0.930 . S
H2649 C2659 0.930 . S
C2650 H2644 0.930 . S
C2650 C2651 1.355 . S
C2650 C2652 1.415 . S
C2651 C2650 1.355 . S
C2651 C2653 1.419 . S
C2652 C2650 1.415 . S
C2652 C2657 1.425 . S
C2652 C2659 1.409 . S
C2653 H2645 0.930 . S
C2653 C2651 1.419 . S
C2653 C2654 1.362 . S
C2654 H2646 0.930 . S
C2654 C2653 1.362 . S
C2654 C2657 1.409 . S
C2655 H2647 0.930 . S
C2655 C2656 1.355 . S
C2655 C2657 1.415 . S
C2656 C2655 1.355 . S
C2656 C2658 1.419 . S
C2657 C2652 1.425 . S
C2657 C2654 1.409 . S
C2657 C2655 1.415 . S
C2658 H2648 0.930 . S
C2658 C2656 1.419 . S
C2658 C2659 1.362 . S
C2659 H2649 0.930 . S
C2659 C2652 1.409 . S
C2659 C2658 1.362 . S
H2660 C2666 0.930 . S
H2661 C2669 0.930 . S
H2662 C2670 0.930 . S
H2663 C2671 0.930 . S
H2664 C2674 0.930 . S
H2665 C2675 0.930 . S
C2666 H2660 0.930 . S
C2666 C2667 1.355 . S
C2666 C2668 1.415 . S
C2667 C2666 1.355 . S
C2667 C2669 1.419 . S
C2668 C2666 1.415 . S
C2668 C2673 1.425 . S
C2668 C2675 1.409 . S
C2669 H2661 0.930 . S
C2669 C2667 1.419 . S
C2669 C2670 1.362 . S
C2670 H2662 0.930 . S
C2670 C2669 1.362 . S
C2670 C2673 1.409 . S
C2671 H2663 0.930 . S
C2671 C2672 1.355 . S
C2671 C2673 1.415 . S
C2672 C2671 1.355 . S
C2672 C2674 1.419 . S
C2673 C2668 1.425 . S
C2673 C2670 1.409 . S
C2673 C2671 1.415 . S
C2674 H2664 0.930 . S
C2674 C2672 1.419 . S
C2674 C2675 1.362 . S
C2675 H2665 0.930 . S
C2675 C2668 1.409 . S
C2675 C2674 1.362 . S
H2676 C2682 0.930 . S
H2677 C2685 0.930 . S
H2678 C2686 0.930 . S
H2679 C2687 0.930 . S
H2680 C2690 0.930 . S
H2681 C2691 0.930 . S
C2682 H2676 0.930 . S
C2682 C2683 1.355 . S
C2682 C2684 1.415 . S
C2683 C2682 1.355 . S
C2683 C2685 1.419 . S
C2684 C2682 1.415 . S
C2684 C2689 1.425 . S
C2684 C2691 1.409 . S
C2685 H2677 0.930 . S
C2685 C2683 1.419 . S
C2685 C2686 1.362 . S
C2686 H2678 0.930 . S
C2686 C2685 1.362 . S
C2686 C2689 1.409 . S
C2687 H2679 0.930 . S
C2687 C2688 1.355 . S
C2687 C2689 1.415 . S
C2688 C2687 1.355 . S
C2688 C2690 1.419 . S
C2689 C2684 1.425 . S
C2689 C2686 1.409 . S
C2689 C2687 1.415 . S
C2690 H2680 0.930 . S
C2690 C2688 1.419 . S
C2690 C2691 1.362 . S
C2691 H2681 0.930 . S
C2691 C2684 1.409 . S
C2691 C2690 1.362 . S
H2692 C2698 0.930 . S
H2693 C2701 0.930 . S
H2694 C2702 0.930 . S
H2695 C2703 0.930 . S
H2696 C2706 0.930 . S
H2697 C2707 0.930 . S
C2698 H2692 0.930 . S
C2698 C2699 1.355 . S
C2698 C2700 1.415 . S
C2699 C2698 1.355 . S
C2699 C2701 1.419 . S
C2700 C2698 1.415 . S
C2700 C2705 1.425 . S
C2700 C2707 1.409 . S
C2701 H2693 0.930 . S
C2701 C2699 1.419 . S
C2701 C2702 1.362 . S
C2702 H2694 0.930 . S
C2702 C2701 1.362 . S
C2702 C2705 1.409 . S
C2703 H2695 0.930 . S
C2703 C2704 1.355 . S
C2703 C2705 1.415 . S
C2704 C2703 1.355 . S
C2704 C2706 1.419 . S
C2705 C2700 1.425 . S
C2705 C2702 1.409 . S
C2705 C2703 1.415 . S
C2706 H2696 0.930 . S
C2706 C2704 1.419 . S
C2706 C2707 1.362 . S
C2707 H2697 0.930 . S
C2707 C2700 1.409 . S
C2707 C2706 1.362 . S
H2708 C2714 0.930 . S
H2709 C2717 0.930 . S
H2710 C2718 0.930 . S
H2711 C2719 0.930 . S
H2712 C2722 0.930 . S
H2713 C2723 0.930 . S
C2714 H2708 0.930 . S
C2714 C2715 1.355 . S
C2714 C2716 1.415 . S
C2715 C2714 1.355 . S
C2715 C2717 1.419 . S
C2716 C2714 1.415 . S
C2716 C2721 1.425 . S
C2716 C2723 1.409 . S
C2717 H2709 0.930 . S
C2717 C2715 1.419 . S
C2717 C2718 1.362 . S
C2718 H2710 0.930 . S
C2718 C2717 1.362 . S
C2718 C2721 1.409 . S
C2719 H2711 0.930 . S
C2719 C2720 1.355 . S
C2719 C2721 1.415 . S
C2720 C2719 1.355 . S
C2720 C2722 1.419 . S
C2721 C2716 1.425 . S
C2721 C2718 1.409 . S
C2721 C2719 1.415 . S
C2722 H2712 0.930 . S
C2722 C2720 1.419 . S
C2722 C2723 1.362 . S
C2723 H2713 0.930 . S
C2723 C2716 1.409 . S
C2723 C2722 1.362 . S
H2724 C2730 0.930 . S
H2725 C2733 0.930 . S
H2726 C2734 0.930 . S
H2727 C2735 0.930 . S
H2728 C2738 0.930 . S
H2729 C2739 0.930 . S
C2730 H2724 0.930 . S
C2730 C2731 1.355 . S
C2730 C2732 1.415 . S
C2731 C2730 1.355 . S
C2731 C2733 1.419 1_455 S
C2732 C2730 1.415 . S
C2732 C2737 1.460 . S
C2732 C2739 1.409 . S
C2733 H2725 0.930 . S
C2733 C2731 1.419 1_655 S
C2733 C2734 1.362 . S
C2734 H2726 0.930 . S
C2734 C2733 1.362 . S
C2734 C2737 1.404 1_655 S
C2735 H2727 0.930 . S
C2735 C2736 1.355 1_655 S
C2735 C2737 1.388 1_655 S
C2736 C2735 1.355 1_455 S
C2736 C2738 1.419 . S
C2737 C2732 1.460 . S
C2737 C2734 1.404 1_455 S
C2737 C2735 1.388 1_455 S
C2738 H2728 0.930 . S
C2738 C2736 1.419 . S
C2738 C2739 1.362 . S
C2739 H2729 0.930 . S
C2739 C2732 1.409 . S
C2739 C2738 1.362 . S
H2740 C2746 0.930 . S
H2741 C2749 0.930 . S
H2742 C2750 0.930 . S
H2743 C2751 0.930 . S
H2744 C2754 0.930 . S
H2745 C2755 0.930 . S
C2746 H2740 0.930 . S
C2746 C2747 1.355 . S
C2746 C2748 1.415 . S
C2747 C2746 1.355 . S
C2747 C2749 1.419 . S
C2748 C2746 1.415 . S
C2748 C2753 1.425 . S
C2748 C2755 1.409 . S
C2749 H2741 0.930 . S
C2749 C2747 1.419 . S
C2749 C2750 1.362 . S
C2750 H2742 0.930 . S
C2750 C2749 1.362 . S
C2750 C2753 1.409 . S
C2751 H2743 0.930 . S
C2751 C2752 1.355 . S
C2751 C2753 1.415 . S
C2752 C2751 1.355 . S
C2752 C2754 1.419 . S
C2753 C2748 1.425 . S
C2753 C2750 1.409 . S
C2753 C2751 1.415 . S
C2754 H2744 0.930 . S
C2754 C2752 1.419 . S
C2754 C2755 1.362 . S
C2755 H2745 0.930 . S
C2755 C2748 1.409 . S
C2755 C2754 1.362 . S
H2756 C2762 0.930 . S
H2757 C2765 0.930 . S
H2758 C2766 0.930 . S
H2759 C2767 0.930 . S
H2760 C2770 0.930 . S
H2761 C2771 0.930 . S
C2762 H2756 0.930 . S
C2762 C2763 1.355 . S
C2762 C2764 1.415 . S
C2763 C2762 1.355 . S
C2763 C2765 1.419 1_565 S
C2764 C2762 1.415 . S
C2764 C2769 1.432 . S
C2764 C2771 1.409 . S
C2765 H2757 0.930 . S
C2765 C2763 1.419 1_545 S
C2765 C2766 1.362 . S
C2766 H2758 0.930 . S
C2766 C2765 1.362 . S
C2766 C2769 1.401 1_545 S
C2767 H2759 0.930 . S
C2767 C2768 1.355 1_545 S
C2767 C2769 1.417 1_545 S
C2768 C2767 1.355 1_565 S
C2768 C2770 1.419 . S
C2769 C2764 1.432 . S
C2769 C2766 1.401 1_565 S
C2769 C2767 1.417 1_565 S
C2770 H2760 0.930 . S
C2770 C2768 1.419 . S
C2770 C2771 1.362 . S
C2771 H2761 0.930 . S
C2771 C2764 1.409 . S
C2771 C2770 1.362 . S
H2772 C2778 0.958 . S
H2773 C2781 0.930 . S
H2774 C2782 0.930 . S
H2775 C2783 0.930 . S
H2776 C2786 0.930 . S
H2777 C2787 0.930 . S
C2778 H2772 0.958 . S
C2778 C2779 1.297 1_545 S
C2778 C2780 1.412 . S
C2779 C2778 1.297 1_565 S
C2779 C2781 1.419 . S
C2780 C2778 1.412 . S
C2780 C2785 1.399 1_545 S
C2780 C2787 1.472 . S
C2781 H2773 0.930 . S
C2781 C2779 1.419 . S
C2781 C2782 1.362 . S
C2782 H2774 0.930 . S
C2782 C2781 1.362 . S
C2782 C2785 1.409 . S
C2783 H2775 0.930 . S
C2783 C2784 1.344 1_565 S
C2783 C2785 1.415 . S
C2784 C2783 1.344 1_545 S
C2784 C2786 1.424 . S
C2785 C2780 1.399 1_565 S
C2785 C2782 1.409 . S
C2785 C2783 1.415 . S
C2786 H2776 0.930 . S
C2786 C2784 1.424 . S
C2786 C2787 1.362 . S
C2787 H2777 0.930 . S
C2787 C2780 1.472 . S
C2787 C2786 1.362 . S
H2788 C2794 0.930 . S
H2789 C2797 0.930 . S
H2790 C2798 0.930 . S
H2791 C2799 0.930 . S
H2792 C2802 0.930 . S
H2793 C2803 0.930 . S
C2794 H2788 0.930 . S
C2794 C2795 1.355 1_655 S
C2794 C2796 1.415 . S
C2795 C2794 1.355 1_455 S
C2795 C2797 1.419 . S
C2796 C2794 1.415 . S
C2796 C2801 1.425 1_655 S
C2796 C2803 1.409 . S
C2797 H2789 0.930 . S
C2797 C2795 1.419 . S
C2797 C2798 1.362 . S
C2798 H2790 0.930 . S
C2798 C2797 1.362 . S
C2798 C2801 1.409 . S
C2799 H2791 0.930 . S
C2799 C2800 1.325 1_455 S
C2799 C2801 1.415 . S
C2800 C2799 1.325 1_655 S
C2800 C2802 1.479 . S
C2801 C2796 1.425 1_455 S
C2801 C2798 1.409 . S
C2801 C2799 1.415 . S
C2802 H2792 0.930 . S
C2802 C2800 1.479 . S
C2802 C2803 1.362 . S
C2803 H2793 0.930 . S
C2803 C2796 1.409 . S
C2803 C2802 1.362 . S
H2804 C2810 0.930 . S
H2805 C2813 0.930 . S
H2806 C2814 0.930 . S
H2807 C2815 0.930 . S
H2808 C2818 0.930 . S
H2809 C2819 0.930 . S
C2810 H2804 0.930 . S
C2810 C2811 1.355 . S
C2810 C2812 1.415 . S
C2811 C2810 1.355 . S
C2811 C2813 1.419 . S
C2812 C2810 1.415 . S
C2812 C2817 1.425 . S
C2812 C2819 1.409 . S
C2813 H2805 0.930 . S
C2813 C2811 1.419 . S
C2813 C2814 1.362 . S
C2814 H2806 0.930 . S
C2814 C2813 1.362 . S
C2814 C2817 1.409 . S
C2815 H2807 0.930 . S
C2815 C2816 1.355 . S
C2815 C2817 1.415 . S
C2816 C2815 1.355 . S
C2816 C2818 1.419 . S
C2817 C2812 1.425 . S
C2817 C2814 1.409 . S
C2817 C2815 1.415 . S
C2818 H2808 0.930 . S
C2818 C2816 1.419 . S
C2818 C2819 1.362 . S
C2819 H2809 0.930 . S
C2819 C2812 1.409 . S
C2819 C2818 1.362 . S
H2820 C2826 0.930 . S
H2821 C2829 0.930 . S
H2822 C2830 0.930 . S
H2823 C2831 0.930 . S
H2824 C2834 0.930 . S
H2825 C2835 0.930 . S
C2826 H2820 0.930 . S
C2826 C2827 1.355 . S
C2826 C2828 1.415 . S
C2827 C2826 1.355 . S
C2827 C2829 1.419 . S
C2828 C2826 1.415 . S
C2828 C2833 1.425 . S
C2828 C2835 1.409 . S
C2829 H2821 0.930 . S
C2829 C2827 1.419 . S
C2829 C2830 1.362 . S
C2830 H2822 0.930 . S
C2830 C2829 1.362 . S
C2830 C2833 1.409 . S
C2831 H2823 0.930 . S
C2831 C2832 1.355 . S
C2831 C2833 1.415 . S
C2832 C2831 1.355 . S
C2832 C2834 1.419 . S
C2833 C2828 1.425 . S
C2833 C2830 1.409 . S
C2833 C2831 1.415 . S
C2834 H2824 0.930 . S
C2834 C2832 1.419 . S
C2834 C2835 1.362 . S
C2835 H2825 0.930 . S
C2835 C2828 1.409 . S
C2835 C2834 1.362 . S
H2836 C2842 0.930 . S
H2837 C2845 0.930 . S
H2838 C2846 0.930 . S
H2839 C2847 0.930 . S
H2840 C2850 0.930 . S
H2841 C2851 0.930 . S
C2842 H2836 0.930 . S
C2842 C2843 1.355 . S
C2842 C2844 1.415 . S
C2843 C2842 1.355 . S
C2843 C2845 1.419 . S
C2844 C2842 1.415 . S
C2844 C2849 1.425 . S
C2844 C2851 1.409 . S
C2845 H2837 0.930 . S
C2845 C2843 1.419 . S
C2845 C2846 1.362 . S
C2846 H2838 0.930 . S
C2846 C2845 1.362 . S
C2846 C2849 1.409 . S
C2847 H2839 0.930 . S
C2847 C2848 1.355 . S
C2847 C2849 1.415 . S
C2848 C2847 1.355 . S
C2848 C2850 1.419 . S
C2849 C2844 1.425 . S
C2849 C2846 1.409 . S
C2849 C2847 1.415 . S
C2850 H2840 0.930 . S
C2850 C2848 1.419 . S
C2850 C2851 1.362 . S
C2851 H2841 0.930 . S
C2851 C2844 1.409 . S
C2851 C2850 1.362 . S
H2852 C2858 0.930 . S
H2853 C2861 0.930 . S
H2854 C2862 0.930 . S
H2855 C2863 0.930 . S
H2856 C2866 0.930 . S
H2857 C2867 0.930 . S
C2858 H2852 0.930 . S
C2858 C2859 1.355 . S
C2858 C2860 1.415 . S
C2859 C2858 1.355 . S
C2859 C2861 1.419 . S
C2860 C2858 1.415 . S
C2860 C2865 1.425 . S
C2860 C2867 1.409 . S
C2861 H2853 0.930 . S
C2861 C2859 1.419 . S
C2861 C2862 1.362 . S
C2862 H2854 0.930 . S
C2862 C2861 1.362 . S
C2862 C2865 1.409 . S
C2863 H2855 0.930 . S
C2863 C2864 1.355 . S
C2863 C2865 1.415 . S
C2864 C2863 1.355 . S
C2864 C2866 1.419 . S
C2865 C2860 1.425 . S
C2865 C2862 1.409 . S
C2865 C2863 1.415 . S
C2866 H2856 0.930 . S
C2866 C2864 1.419 . S
C2866 C2867 1.362 . S
C2867 H2857 0.930 . S
C2867 C2860 1.409 . S
C2867 C2866 1.362 . S
H2868 C2874 0.930 1_565 S
H2869 C2877 0.930 . S
H2870 C2878 0.930 . S
H2871 C2879 0.930 . S
H2872 C2882 0.930 . S
H2873 C2883 0.930 . S
C2874 H2868 0.930 1_545 S
C2874 C2875 1.355 . S
C2874 C2876 1.415 . S
C2875 C2874 1.355 . S
C2875 C2877 1.419 . S
C2876 C2874 1.415 . S
C2876 C2881 1.425 . S
C2876 C2883 1.409 1_545 S
C2877 H2869 0.930 . S
C2877 C2875 1.419 . S
C2877 C2878 1.362 . S
C2878 H2870 0.930 . S
C2878 C2877 1.362 . S
C2878 C2881 1.409 . S
C2879 H2871 0.930 . S
C2879 C2880 1.355 . S
C2879 C2881 1.415 . S
C2880 C2879 1.355 . S
C2880 C2882 1.419 1_545 S
C2881 C2876 1.425 . S
C2881 C2878 1.409 . S
C2881 C2879 1.415 . S
C2882 H2872 0.930 . S
C2882 C2880 1.419 1_565 S
C2882 C2883 1.362 . S
C2883 H2873 0.930 . S
C2883 C2876 1.409 1_565 S
C2883 C2882 1.362 . S
H2884 C2890 0.971 . S
H2885 C2893 0.930 . S
H2886 C2894 0.930 . S
H2887 C2895 0.930 . S
H2888 C2898 0.930 . S
H2889 C2899 0.930 . S
C2890 H2884 0.971 . S
C2890 C2891 1.339 1_455 S
C2890 C2892 1.373 1_455 S
C2891 C2890 1.339 1_655 S
C2891 C2893 1.419 . S
C2892 C2890 1.373 1_655 S
C2892 C2897 1.458 . S
C2892 C2899 1.398 1_655 S
C2893 H2885 0.930 . S
C2893 C2891 1.419 . S
C2893 C2894 1.362 . S
C2894 H2886 0.930 . S
C2894 C2893 1.362 . S
C2894 C2897 1.409 . S
C2895 H2887 0.930 . S
C2895 C2896 1.355 . S
C2895 C2897 1.415 . S
C2896 C2895 1.355 . S
C2896 C2898 1.419 1_655 S
C2897 C2892 1.458 . S
C2897 C2894 1.409 . S
C2897 C2895 1.415 . S
C2898 H2888 0.930 . S
C2898 C2896 1.419 1_455 S
C2898 C2899 1.362 . S
C2899 H2889 0.930 . S
C2899 C2892 1.398 1_455 S
C2899 C2898 1.362 . S
H2900 C2906 0.930 . S
H2901 C2909 0.930 . S
H2902 C2910 0.930 . S
H2903 C2911 0.930 . S
H2904 C2914 0.930 . S
H2905 C2915 0.930 . S
C2906 H2900 0.930 . S
C2906 C2907 1.355 . S
C2906 C2908 1.415 . S
C2907 C2906 1.355 . S
C2907 C2909 1.419 . S
C2908 C2906 1.415 . S
C2908 C2913 1.425 . S
C2908 C2915 1.409 . S
C2909 H2901 0.930 . S
C2909 C2907 1.419 . S
C2909 C2910 1.362 . S
C2910 H2902 0.930 . S
C2910 C2909 1.362 . S
C2910 C2913 1.409 . S
C2911 H2903 0.930 . S
C2911 C2912 1.355 . S
C2911 C2913 1.415 . S
C2912 C2911 1.355 . S
C2912 C2914 1.419 . S
C2913 C2908 1.425 . S
C2913 C2910 1.409 . S
C2913 C2911 1.415 . S
C2914 H2904 0.930 . S
C2914 C2912 1.419 . S
C2914 C2915 1.362 . S
C2915 H2905 0.930 . S
C2915 C2908 1.409 . S
C2915 C2914 1.362 . S
H2916 C2922 0.930 . S
H2917 C2925 0.930 . S
H2918 C2926 0.930 . S
H2919 C2927 0.930 . S
H2920 C2930 0.930 . S
H2921 C2931 0.930 . S
C2922 H2916 0.930 . S
C2922 C2923 1.355 . S
C2922 C2924 1.415 . S
C2923 C2922 1.355 . S
C2923 C2925 1.419 . S
C2924 C2922 1.415 . S
C2924 C2929 1.425 . S
C2924 C2931 1.409 . S
C2925 H2917 0.930 . S
C2925 C2923 1.419 . S
C2925 C2926 1.362 . S
C2926 H2918 0.930 . S
C2926 C2925 1.362 . S
C2926 C2929 1.409 . S
C2927 H2919 0.930 . S
C2927 C2928 1.355 . S
C2927 C2929 1.415 . S
C2928 C2927 1.355 . S
C2928 C2930 1.419 . S
C2929 C2924 1.425 . S
C2929 C2926 1.409 . S
C2929 C2927 1.415 . S
C2930 H2920 0.930 . S
C2930 C2928 1.419 . S
C2930 C2931 1.362 . S
C2931 H2921 0.930 . S
C2931 C2924 1.409 . S
C2931 C2930 1.362 . S
H2932 C2938 0.930 . S
H2933 C2941 0.930 . S
H2934 C2942 0.930 . S
H2935 C2943 0.930 . S
H2936 C2946 0.930 . S
H2937 C2947 0.930 . S
C2938 H2932 0.930 . S
C2938 C2939 1.355 . S
C2938 C2940 1.415 . S
C2939 C2938 1.355 . S
C2939 C2941 1.419 . S
C2940 C2938 1.415 . S
C2940 C2945 1.425 . S
C2940 C2947 1.409 . S
C2941 H2933 0.930 . S
C2941 C2939 1.419 . S
C2941 C2942 1.362 . S
C2942 H2934 0.930 . S
C2942 C2941 1.362 . S
C2942 C2945 1.409 . S
C2943 H2935 0.930 . S
C2943 C2944 1.355 . S
C2943 C2945 1.415 . S
C2944 C2943 1.355 . S
C2944 C2946 1.419 . S
C2945 C2940 1.425 . S
C2945 C2942 1.409 . S
C2945 C2943 1.415 . S
C2946 H2936 0.930 . S
C2946 C2944 1.419 . S
C2946 C2947 1.362 . S
C2947 H2937 0.930 . S
C2947 C2940 1.409 . S
C2947 C2946 1.362 . S
H2948 C2954 0.930 . S
H2949 C2957 0.930 . S
H2950 C2958 0.930 . S
H2951 C2959 0.930 . S
H2952 C2962 0.930 . S
H2953 C2963 0.930 . S
C2954 H2948 0.930 . S
C2954 C2955 1.355 . S
C2954 C2956 1.415 . S
C2955 C2954 1.355 . S
C2955 C2957 1.419 . S
C2956 C2954 1.415 . S
C2956 C2961 1.425 . S
C2956 C2963 1.409 . S
C2957 H2949 0.930 . S
C2957 C2955 1.419 . S
C2957 C2958 1.362 . S
C2958 H2950 0.930 . S
C2958 C2957 1.362 . S
C2958 C2961 1.409 . S
C2959 H2951 0.930 . S
C2959 C2960 1.355 . S
C2959 C2961 1.415 . S
C2960 C2959 1.355 . S
C2960 C2962 1.419 . S
C2961 C2956 1.425 . S
C2961 C2958 1.409 . S
C2961 C2959 1.415 . S
C2962 H2952 0.930 . S
C2962 C2960 1.419 . S
C2962 C2963 1.362 . S
C2963 H2953 0.930 . S
C2963 C2956 1.409 . S
C2963 C2962 1.362 . S
H2964 C2970 0.930 . S
H2965 C2973 0.930 . S
H2966 C2974 0.930 . S
H2967 C2975 0.930 . S
H2968 C2978 0.930 . S
H2969 C2979 0.930 . S
C2970 H2964 0.930 . S
C2970 C2971 1.355 . S
C2970 C2972 1.415 . S
C2971 C2970 1.355 . S
C2971 C2973 1.419 . S
C2972 C2970 1.415 . S
C2972 C2977 1.425 . S
C2972 C2979 1.409 . S
C2973 H2965 0.930 . S
C2973 C2971 1.419 . S
C2973 C2974 1.362 . S
C2974 H2966 0.930 . S
C2974 C2973 1.362 . S
C2974 C2977 1.409 . S
C2975 H2967 0.930 . S
C2975 C2976 1.355 . S
C2975 C2977 1.415 . S
C2976 C2975 1.355 . S
C2976 C2978 1.419 . S
C2977 C2972 1.425 . S
C2977 C2974 1.409 . S
C2977 C2975 1.415 . S
C2978 H2968 0.930 . S
C2978 C2976 1.419 . S
C2978 C2979 1.362 . S
C2979 H2969 0.930 . S
C2979 C2972 1.409 . S
C2979 C2978 1.362 . S
H2980 C2986 0.930 . S
H2981 C2989 0.930 . S
H2982 C2990 0.930 . S
H2983 C2991 0.930 . S
H2984 C2994 0.930 . S
H2985 C2995 0.930 . S
C2986 H2980 0.930 . S
C2986 C2987 1.355 . S
C2986 C2988 1.415 . S
C2987 C2986 1.355 . S
C2987 C2989 1.419 . S
C2988 C2986 1.415 . S
C2988 C2993 1.425 . S
C2988 C2995 1.409 . S
C2989 H2981 0.930 . S
C2989 C2987 1.419 . S
C2989 C2990 1.362 . S
C2990 H2982 0.930 . S
C2990 C2989 1.362 . S
C2990 C2993 1.409 . S
C2991 H2983 0.930 . S
C2991 C2992 1.355 . S
C2991 C2993 1.415 . S
C2992 C2991 1.355 . S
C2992 C2994 1.419 . S
C2993 C2988 1.425 . S
C2993 C2990 1.409 . S
C2993 C2991 1.415 . S
C2994 H2984 0.930 . S
C2994 C2992 1.419 . S
C2994 C2995 1.362 . S
C2995 H2985 0.930 . S
C2995 C2988 1.409 . S
C2995 C2994 1.362 . S
H2996 C3002 0.930 . S
H2997 C3005 0.930 . S
H2998 C3006 0.930 . S
H2999 C3007 0.930 . S
H3000 C3010 0.930 . S
H3001 C3011 0.930 . S
C3002 H2996 0.930 . S
C3002 C3003 1.355 . S
C3002 C3004 1.415 . S
C3003 C3002 1.355 . S
C3003 C3005 1.419 . S
C3004 C3002 1.415 . S
C3004 C3009 1.425 . S
C3004 C3011 1.409 . S
C3005 H2997 0.930 . S
C3005 C3003 1.419 . S
C3005 C3006 1.362 . S
C3006 H2998 0.930 . S
C3006 C3005 1.362 . S
C3006 C3009 1.409 . S
C3007 H2999 0.930 . S
C3007 C3008 1.355 . S
C3007 C3009 1.415 . S
C3008 C3007 1.355 . S
C3008 C3010 1.419 . S
C3009 C3004 1.425 . S
C3009 C3006 1.409 . S
C3009 C3007 1.415 . S
C3010 H3000 0.930 . S
C3010 C3008 1.419 . S
C3010 C3011 1.362 . S
C3011 H3001 0.930 . S
C3011 C3004 1.409 . S
C3011 C3010 1.362 . S
H3012 C3018 0.930 . S
H3013 C3021 0.945 1_455 S
H3014 C3022 0.930 . S
H3015 C3023 0.930 . S
H3016 C3026 0.930 . S
H3017 C3027 0.930 . S
C3018 H3012 0.930 . S
C3018 C3019 1.355 . S
C3018 C3020 1.415 . S
C3019 C3018 1.355 . S
C3019 C3021 1.451 . S
C3020 C3018 1.415 . S
C3020 C3025 1.425 . S
C3020 C3027 1.409 . S
C3021 H3013 0.945 1_655 S
C3021 C3019 1.451 . S
C3021 C3022 1.320 1_655 S
C3022 H3014 0.930 . S
C3022 C3021 1.320 1_455 S
C3022 C3025 1.409 1_455 S
C3023 H3015 0.930 . S
C3023 C3024 1.355 1_455 S
C3023 C3025 1.415 1_455 S
C3024 C3023 1.355 1_655 S
C3024 C3026 1.419 . S
C3025 C3020 1.425 . S
C3025 C3022 1.409 1_655 S
C3025 C3023 1.415 1_655 S
C3026 H3016 0.930 . S
C3026 C3024 1.419 . S
C3026 C3027 1.362 . S
C3027 H3017 0.930 . S
C3027 C3020 1.409 . S
C3027 C3026 1.362 . S
H3028 C3034 0.930 . S
H3029 C3037 0.930 . S
H3030 C3038 0.930 . S
H3031 C3039 0.930 . S
H3032 C3042 0.930 . S
H3033 C3043 0.930 . S
C3034 H3028 0.930 . S
C3034 C3035 1.355 . S
C3034 C3036 1.415 . S
C3035 C3034 1.355 . S
C3035 C3037 1.419 . S
C3036 C3034 1.415 . S
C3036 C3041 1.425 . S
C3036 C3043 1.409 . S
C3037 H3029 0.930 . S
C3037 C3035 1.419 . S
C3037 C3038 1.362 . S
C3038 H3030 0.930 . S
C3038 C3037 1.362 . S
C3038 C3041 1.409 . S
C3039 H3031 0.930 . S
C3039 C3040 1.355 . S
C3039 C3041 1.415 . S
C3040 C3039 1.355 . S
C3040 C3042 1.419 . S
C3041 C3036 1.425 . S
C3041 C3038 1.409 . S
C3041 C3039 1.415 . S
C3042 H3032 0.930 . S
C3042 C3040 1.419 . S
C3042 C3043 1.362 . S
C3043 H3033 0.930 . S
C3043 C3036 1.409 . S
C3043 C3042 1.362 . S
H3044 C3050 0.930 1_565 S
H3045 C3053 0.930 . S
H3046 C3054 0.930 . S
H3047 C3055 0.930 . S
H3048 C3058 0.930 . S
H3049 C3059 0.930 . S
C3050 H3044 0.930 1_545 S
C3050 C3051 1.355 . S
C3050 C3052 1.415 . S
C3051 C3050 1.355 . S
C3051 C3053 1.419 . S
C3052 C3050 1.415 . S
C3052 C3057 1.425 . S
C3052 C3059 1.409 1_545 S
C3053 H3045 0.930 . S
C3053 C3051 1.419 . S
C3053 C3054 1.362 . S
C3054 H3046 0.930 . S
C3054 C3053 1.362 . S
C3054 C3057 1.409 . S
C3055 H3047 0.930 . S
C3055 C3056 1.365 . S
C3055 C3057 1.415 . S
C3056 C3055 1.365 . S
C3056 C3058 1.394 1_545 S
C3057 C3052 1.425 . S
C3057 C3054 1.409 . S
C3057 C3055 1.415 . S
C3058 H3048 0.930 . S
C3058 C3056 1.394 1_565 S
C3058 C3059 1.362 . S
C3059 H3049 0.930 . S
C3059 C3052 1.409 1_565 S
C3059 C3058 1.362 . S
C1915 C49 1.691 . S
C1920 C1753 1.662 . S
C1931 C137 1.678 . S
C1936 C1778 1.643 . S
C1952 C1789 1.684 . S
C1947 C205 1.709 . S
C1963 C196 1.673 . S
C1968 C1814 1.683 . S
C1979 C57 1.659 . S
C1984 C1832 1.659 . S
C1995 C145 1.680 . S
C2000 C1843 1.632 . S
C2011 C313 1.700 . S
C2016 C1825 1.701 1_455 S
C2032 C1850 1.664 . S
C2027 C401 1.660 . S
C2048 C1807 1.693 1_565 S
C2043 C489 1.729 . S
C2059 C469 1.701 . S
C2064 C1796 1.712 1_545 S
C2080 C1760 1.710 1_655 S
C2075 C293 1.696 . S
C2091 C381 1.685 . S
C2096 C1771 1.680 . S
C2107 C577 1.730 . S
C2112 C1861 1.697 . S
C2123 C645 1.702 . S
C2128 C1886 1.664 . S
C2144 C1897 1.656 . S
C2139 C733 1.666 . S
C2155 C724 1.678 . S
C2160 C1598 1.681 . S
C2171 C585 1.707 . S
C2176 C1616 1.707 . S
C2187 C636 1.727 . S
C2192 C1627 1.686 . S
C2203 C841 1.659 . S
C2208 C1609 1.658 . S
C2219 C937 1.684 . S
C2224 C1634 1.690 . S
C2240 C1591 1.655 . S
C2235 C1025 1.667 . S
C2256 C1904 1.661 . S
C2251 C988 1.696 . S
C2272 C1868 1.629 . S
C2267 C821 1.665 . S
C2288 C1879 1.634 . S
C2283 C900 1.669 . S
C2299 C1105 1.663 . S
C2304 C1645 1.652 . S
C2315 C1193 1.688 . S
C2320 C1670 1.678 . S
C2331 C1281 1.719 . S
C2336 C1681 1.705 . S
C2347 C1289 1.723 . S
C2352 C1706 1.717 . S
C2368 C1724 1.667 . S
C2363 C1113 1.697 . S
C2384 C1735 1.679 . S
C2379 C1201 1.688 . S
C2400 C1717 1.657 . S
C2395 C1369 1.673 . S
C2416 C1742 1.636 . S
C2411 C1457 1.672 . S
C2427 C1553 1.676 . S
C2432 C1699 1.668 . S
C2448 C1688 1.636 . S
C2443 C1516 1.668 . S
C2459 C1349 1.707 . S
C2464 C1652 1.677 . S
C2480 C1663 1.706 . S
C2475 C1437 1.714 . S
C2496 C1600 1.354 . S
C2491 C29 1.398 . S
C2507 C117 1.325 . S
C2512 C1618 1.253 . S
C2528 C1628 1.377 . S
C2523 C225 1.400 . S
C2544 C1646 1.354 . S
C2539 C233 1.392 . S
C2560 C1672 1.387 . S
C2555 C20 1.394 . S
C2576 C1682 1.294 . S
C2571 C108 1.321 . S
C2587 C321 1.438 . S
C2592 C1690 1.414 . S
C2603 C409 1.405 . S
C2608 C1654 1.328 . S
C2619 C497 1.463 . S
C2624 C1664 1.414 . S
C2635 C460 1.457 . S
C2640 C1610 1.393 . S
C2656 C1636 1.415 . S
C2651 C284 1.449 . S
C2667 C372 1.410 . S
C2672 C1592 1.311 . S
C2688 C1708 1.316 . S
C2683 C557 1.357 . S
C2699 C665 1.408 . S
C2704 C1726 1.333 . S
C2715 C753 1.414 . S
C2720 C1736 1.325 . S
C2736 C1754 1.191 . S
C2731 C761 1.239 . S
C2747 C548 1.326 . S
C2752 C1780 1.300 . S
C2763 C673 1.250 . S
C2768 C1790 1.201 . S
C2779 C849 1.278 . S
C2784 C1798 1.187 1_545 S
C2795 C929 1.279 . S
C2800 C1762 1.153 1_655 S
C2816 C1772 1.323 . S
C2811 C1017 1.408 . S
C2827 C997 1.399 . S
C2832 C1718 1.370 . S
C2843 C812 1.443 . S
C2848 C1744 1.314 . S
C2864 C1700 1.409 . S
C2859 C909 1.440 . S
C2880 C1816 1.153 . S
C2875 C1085 1.252 . S
C2891 C1173 1.246 . S
C2896 C1834 1.214 . S
C2907 C1261 1.326 . S
C2912 C1844 1.269 . S
C2928 C1862 1.307 . S
C2923 C1252 1.331 . S
C2944 C1888 1.377 . S
C2939 C1076 1.393 . S
C2955 C1164 1.411 . S
C2960 C1898 1.313 . S
C2971 C1377 1.388 . S
C2976 C1906 1.309 . S
C2987 C1465 1.436 . S
C2992 C1870 1.325 . S
C3008 C1880 1.362 . S
C3003 C1545 1.466 . S
C3024 C1826 1.236 1_655 S
C3019 C1525 1.250 . S
C3040 C1852 1.269 . S
C3035 C1340 1.407 . S
C3051 C1428 1.282 . S
C3056 C1808 1.188 1_545 S
