# Generated by pormake.
# Topology eea, (3,6)-cn, num edge types: 1
# Building blocks:
#     Node 0, Type 0, BuildingBlock: MIDCAF_clean_linker_0, # of connection points: 3
#     Node 1, Type 0, BuildingBlock: MIDCAF_clean_linker_0, # of connection points: 3
#     Node 2, Type 0, BuildingBlock: MIDCAF_clean_linker_0, # of connection points: 3
#     Node 3, Type 0, BuildingBlock: MIDCAF_clean_linker_0, # of connection points: 3
#     Node 4, Type 0, BuildingBlock: MIDCAF_clean_linker_0, # of connection points: 3
#     Node 5, Type 0, BuildingBlock: MIDCAF_clean_linker_0, # of connection points: 3
#     Node 6, Type 0, BuildingBlock: MIDCAF_clean_linker_0, # of connection points: 3
#     Node 7, Type 0, BuildingBlock: MIDCAF_clean_linker_0, # of connection points: 3
#     Node 8, Type 0, BuildingBlock: MIDCAF_clean_linker_0, # of connection points: 3
#     Node 9, Type 0, BuildingBlock: MIDCAF_clean_linker_0, # of connection points: 3
#     Node 10, Type 0, BuildingBlock: MIDCAF_clean_linker_0, # of connection points: 3
#     Node 11, Type 0, BuildingBlock: MIDCAF_clean_linker_0, # of connection points: 3
#     Node 12, Type 0, BuildingBlock: MIDCAF_clean_linker_0, # of connection points: 3
#     Node 13, Type 0, BuildingBlock: MIDCAF_clean_linker_0, # of connection points: 3
#     Node 14, Type 0, BuildingBlock: MIDCAF_clean_linker_0, # of connection points: 3
#     Node 15, Type 0, BuildingBlock: MIDCAF_clean_linker_0, # of connection points: 3
#     Node 16, Type 0, BuildingBlock: MIDCAF_clean_linker_0, # of connection points: 3
#     Node 17, Type 0, BuildingBlock: MIDCAF_clean_linker_0, # of connection points: 3
#     Node 18, Type 1, BuildingBlock: NUHQIS_clean_sbu_0, # of connection points: 6
#     Node 19, Type 1, BuildingBlock: NUHQIS_clean_sbu_0, # of connection points: 6
#     Node 20, Type 1, BuildingBlock: NUHQIS_clean_sbu_0, # of connection points: 6
#     Node 21, Type 1, BuildingBlock: NUHQIS_clean_sbu_0, # of connection points: 6
#     Node 22, Type 1, BuildingBlock: NUHQIS_clean_sbu_0, # of connection points: 6
#     Node 23, Type 1, BuildingBlock: NUHQIS_clean_sbu_0, # of connection points: 6
#     Node 24, Type 1, BuildingBlock: NUHQIS_clean_sbu_0, # of connection points: 6
#     Node 25, Type 1, BuildingBlock: NUHQIS_clean_sbu_0, # of connection points: 6
#     Node 26, Type 1, BuildingBlock: NUHQIS_clean_sbu_0, # of connection points: 6
#     Edge 27, Type (0, 1), BuildingBlock: AJUNOK_clean_linker_0, # of connection points: 2
#     Edge 28, Type (0, 1), BuildingBlock: AJUNOK_clean_linker_0, # of connection points: 2
#     Edge 29, Type (0, 1), BuildingBlock: AJUNOK_clean_linker_0, # of connection points: 2
#     Edge 30, Type (0, 1), BuildingBlock: AJUNOK_clean_linker_0, # of connection points: 2
#     Edge 31, Type (0, 1), BuildingBlock: AJUNOK_clean_linker_0, # of connection points: 2
#     Edge 32, Type (0, 1), BuildingBlock: AJUNOK_clean_linker_0, # of connection points: 2
#     Edge 33, Type (0, 1), BuildingBlock: AJUNOK_clean_linker_0, # of connection points: 2
#     Edge 34, Type (0, 1), BuildingBlock: AJUNOK_clean_linker_0, # of connection points: 2
#     Edge 35, Type (0, 1), BuildingBlock: AJUNOK_clean_linker_0, # of connection points: 2
#     Edge 36, Type (0, 1), BuildingBlock: AJUNOK_clean_linker_0, # of connection points: 2
#     Edge 37, Type (0, 1), BuildingBlock: AJUNOK_clean_linker_0, # of connection points: 2
#     Edge 38, Type (0, 1), BuildingBlock: AJUNOK_clean_linker_0, # of connection points: 2
#     Edge 39, Type (0, 1), BuildingBlock: AJUNOK_clean_linker_0, # of connection points: 2
#     Edge 40, Type (0, 1), BuildingBlock: AJUNOK_clean_linker_0, # of connection points: 2
#     Edge 41, Type (0, 1), BuildingBlock: AJUNOK_clean_linker_0, # of connection points: 2
#     Edge 42, Type (0, 1), BuildingBlock: AJUNOK_clean_linker_0, # of connection points: 2
#     Edge 43, Type (0, 1), BuildingBlock: AJUNOK_clean_linker_0, # of connection points: 2
#     Edge 44, Type (0, 1), BuildingBlock: AJUNOK_clean_linker_0, # of connection points: 2
#     Edge 45, Type (0, 1), BuildingBlock: AJUNOK_clean_linker_0, # of connection points: 2
#     Edge 46, Type (0, 1), BuildingBlock: AJUNOK_clean_linker_0, # of connection points: 2
#     Edge 47, Type (0, 1), BuildingBlock: AJUNOK_clean_linker_0, # of connection points: 2
#     Edge 48, Type (0, 1), BuildingBlock: AJUNOK_clean_linker_0, # of connection points: 2
#     Edge 49, Type (0, 1), BuildingBlock: AJUNOK_clean_linker_0, # of connection points: 2
#     Edge 50, Type (0, 1), BuildingBlock: AJUNOK_clean_linker_0, # of connection points: 2
#     Edge 51, Type (0, 1), BuildingBlock: AJUNOK_clean_linker_0, # of connection points: 2
#     Edge 52, Type (0, 1), BuildingBlock: AJUNOK_clean_linker_0, # of connection points: 2
#     Edge 53, Type (0, 1), BuildingBlock: AJUNOK_clean_linker_0, # of connection points: 2
#     Edge 54, Type (0, 1), BuildingBlock: AJUNOK_clean_linker_0, # of connection points: 2
#     Edge 55, Type (0, 1), BuildingBlock: AJUNOK_clean_linker_0, # of connection points: 2
#     Edge 56, Type (0, 1), BuildingBlock: AJUNOK_clean_linker_0, # of connection points: 2
#     Edge 57, Type (0, 1), BuildingBlock: AJUNOK_clean_linker_0, # of connection points: 2
#     Edge 58, Type (0, 1), BuildingBlock: AJUNOK_clean_linker_0, # of connection points: 2
#     Edge 59, Type (0, 1), BuildingBlock: AJUNOK_clean_linker_0, # of connection points: 2
#     Edge 60, Type (0, 1), BuildingBlock: AJUNOK_clean_linker_0, # of connection points: 2
#     Edge 61, Type (0, 1), BuildingBlock: AJUNOK_clean_linker_0, # of connection points: 2
#     Edge 62, Type (0, 1), BuildingBlock: AJUNOK_clean_linker_0, # of connection points: 2
#     Edge 63, Type (0, 1), BuildingBlock: AJUNOK_clean_linker_0, # of connection points: 2
#     Edge 64, Type (0, 1), BuildingBlock: AJUNOK_clean_linker_0, # of connection points: 2
#     Edge 65, Type (0, 1), BuildingBlock: AJUNOK_clean_linker_0, # of connection points: 2
#     Edge 66, Type (0, 1), BuildingBlock: AJUNOK_clean_linker_0, # of connection points: 2
#     Edge 67, Type (0, 1), BuildingBlock: AJUNOK_clean_linker_0, # of connection points: 2
#     Edge 68, Type (0, 1), BuildingBlock: AJUNOK_clean_linker_0, # of connection points: 2
#     Edge 69, Type (0, 1), BuildingBlock: AJUNOK_clean_linker_0, # of connection points: 2
#     Edge 70, Type (0, 1), BuildingBlock: AJUNOK_clean_linker_0, # of connection points: 2
#     Edge 71, Type (0, 1), BuildingBlock: AJUNOK_clean_linker_0, # of connection points: 2
#     Edge 72, Type (0, 1), BuildingBlock: AJUNOK_clean_linker_0, # of connection points: 2
#     Edge 73, Type (0, 1), BuildingBlock: AJUNOK_clean_linker_0, # of connection points: 2
#     Edge 74, Type (0, 1), BuildingBlock: AJUNOK_clean_linker_0, # of connection points: 2
#     Edge 75, Type (0, 1), BuildingBlock: AJUNOK_clean_linker_0, # of connection points: 2
#     Edge 76, Type (0, 1), BuildingBlock: AJUNOK_clean_linker_0, # of connection points: 2
#     Edge 77, Type (0, 1), BuildingBlock: AJUNOK_clean_linker_0, # of connection points: 2
#     Edge 78, Type (0, 1), BuildingBlock: AJUNOK_clean_linker_0, # of connection points: 2
#     Edge 79, Type (0, 1), BuildingBlock: AJUNOK_clean_linker_0, # of connection points: 2
#     Edge 80, Type (0, 1), BuildingBlock: AJUNOK_clean_linker_0, # of connection points: 2
# Relax obj value: 0.035
# Max RMSD: 0.131
# Mean RMSD: 0.088
data_MOF--net-eea--node1-NUHQIS_clean_sbu_0--node2-MIDCAF_clean_linker_0--edge1-AJUNOK_clean_linker_0
_symmetry_space_group_name_H-M    P1
_symmetry_Int_Tables_number       1
_symmetry_cell_setting            triclinic
loop_
_symmetry_equiv_pos_as_xyz
'x, y, z'
_cell_length_a     48.331471
_cell_length_b     48.697476
_cell_length_c     73.901455
_cell_angle_alpha  93.20367
_cell_angle_beta   92.908017
_cell_angle_gamma 119.91752
loop_
_atom_site_label
_atom_site_type_symbol
_atom_site_fract_x
_atom_site_fract_y
_atom_site_fract_z
_atom_type_partial_charge
C0 C 0.25476 0.02778 0.40533 0.0
C1 C 0.23721 0.01768 0.3882 0.0
C2 C 0.23164 0.03911 0.37897 0.0
C3 C 0.24238 0.06978 0.38705 0.0
H4 H 0.24838 0.15417 0.37783 0.0
H5 H 0.23423 0.18881 0.36225 0.0
H6 H 0.25906 0.25001 0.41206 0.0
H7 H 0.2739 0.21582 0.42771 0.0
H8 H 0.30346 0.20031 0.46308 0.0
H9 H 0.32347 0.21119 0.49523 0.0
H10 H 0.32314 0.12228 0.49319 0.0
H11 H 0.30381 0.1115 0.46115 0.0
H12 H 0.27846 0.06516 0.4268 0.0
H13 H 0.26 0.0119 0.41254 0.0
H14 H 0.21821 0.03185 0.36572 0.0
H15 H 0.23704 0.08549 0.37975 0.0
N16 N 0.26261 0.13193 0.40504 0.0
N17 N 0.28269 0.16794 0.43127 0.0
N18 N 0.28134 0.11914 0.43122 0.0
C19 C 0.26976 0.16036 0.41367 0.0
C20 C 0.28865 0.14741 0.44012 0.0
C21 C 0.26835 0.1112 0.4137 0.0
C22 C 0.26234 0.18217 0.40407 0.0
C23 C 0.25107 0.17511 0.3855 0.0
C24 C 0.24286 0.19487 0.37654 0.0
C25 C 0.24578 0.22219 0.3859 0.0
C26 C 0.2572 0.22944 0.40441 0.0
C27 C 0.26552 0.20972 0.41339 0.0
C28 C 0.30183 0.15494 0.45948 0.0
C29 C 0.30774 0.18311 0.46945 0.0
C30 C 0.31899 0.18927 0.48789 0.0
C31 C 0.3245 0.16739 0.49672 0.0
C32 C 0.31918 0.1396 0.4867 0.0
C33 C 0.30796 0.13341 0.46833 0.0
C34 C 0.25897 0.07959 0.40452 0.0
C35 C 0.26546 0.05837 0.41344 0.0
C36 C 1.00242 0.22804 0.40873 0.0
C37 C 0.00453 0.21809 0.39085 0.0
C38 C 0.97812 0.19076 0.38185 0.0
C39 C 0.95054 0.17316 0.39067 0.0
H40 H 0.87499 0.08386 0.38703 0.0
H41 H 0.83706 0.03011 0.37355 0.0
H42 H 0.77453 0.01832 0.41578 0.0
H43 H 0.81255 0.07175 0.42957 0.0
H44 H 0.83029 0.13085 0.45693 0.0
H45 H 0.81975 0.14148 0.4875 0.0
H46 H 0.92056 0.20814 0.50092 0.0
H47 H 0.93128 0.19794 0.46987 0.0
H48 H 0.97397 0.2185 0.43142 0.0
H49 H 0.02229 0.24938 0.41588 0.0
H50 H 0.97909 0.18254 0.36809 0.0
H51 H 0.93086 0.15196 0.38329 0.0
N52 N 0.89723 0.13344 0.41003 0.0
N53 N 0.8659 0.12471 0.43443 0.0
N54 N 0.91482 0.17261 0.43472 0.0
C55 C 0.87046 0.11434 0.41809 0.0
C56 C 0.88775 0.15368 0.44286 0.0
C57 C 0.91948 0.16259 0.41811 0.0
C58 C 0.84695 0.08214 0.40946 0.0
C59 C 0.85318 0.06988 0.39348 0.0
C60 C 0.83147 0.03911 0.38572 0.0
C61 C 0.80312 0.01997 0.39377 0.0
C62 C 0.79658 0.03233 0.40955 0.0
C63 C 0.8183 0.06305 0.41735 0.0
C64 C 0.88173 0.16334 0.46097 0.0
C65 C 0.85031 0.14802 0.46628 0.0
C66 C 0.84421 0.15404 0.48384 0.0
C67 C 0.8693 0.17545 0.49666 0.0
C68 C 0.90066 0.19175 0.49126 0.0
C69 C 0.90681 0.18586 0.47352 0.0
C70 C 0.94854 0.18255 0.40873 0.0
C71 C 0.97469 0.21046 0.41758 0.0
C72 C 0.79709 0.78086 0.41473 0.0
C73 C 0.79863 0.78683 0.39628 0.0
C74 C 0.82308 0.78646 0.38695 0.0
C75 C 0.84535 0.78021 0.39577 0.0
H76 H 0.93872 0.8023 0.39426 0.0
H77 H 0.98634 0.8144 0.37893 0.0
H78 H 0.00791 0.76002 0.41542 0.0
H79 H 0.96072 0.74875 0.43128 0.0
H80 H 0.92279 0.73329 0.46914 0.0
H81 H 0.91333 0.71187 0.49876 0.0
H82 H 0.82502 0.7138 0.49817 0.0
H83 H 0.83451 0.73565 0.46879 0.0
H84 H 0.81737 0.7699 0.43775 0.0
H85 H 0.77907 0.78175 0.42246 0.0
H86 H 0.82485 0.79077 0.37271 0.0
H87 H 0.86374 0.78006 0.38805 0.0
N88 N 0.89442 0.77335 0.41536 0.0
N89 N 0.91167 0.75537 0.43991 0.0
N90 N 0.86313 0.7556 0.43994 0.0
C91 C 0.9166 0.7675 0.42342 0.0
C92 C 0.88495 0.7494 0.4483 0.0
C93 C 0.86764 0.76748 0.42344 0.0
C94 C 0.94583 0.77462 0.41414 0.0
C95 C 0.95359 0.79292 0.39912 0.0
C96 C 0.98089 0.79981 0.39023 0.0
C97 C 1.0012 0.7885 0.39601 0.0
C98 C 0.99327 0.76983 0.41088 0.0
C99 C 0.96607 0.76318 0.41991 0.0
C100 C 0.87942 0.73621 0.46641 0.0
C101 C 0.9013 0.72913 0.47526 0.0
C102 C 0.89579 0.71662 0.49223 0.0
C103 C 0.86822 0.71078 0.50076 0.0
C104 C 0.84652 0.71809 0.492 0.0
C105 C 0.85198 0.73054 0.47507 0.0
C106 C 0.84371 0.77398 0.41418 0.0
C107 C 0.81922 0.77429 0.42354 0.0
C108 C 0.00894 0.22047 0.60367 0.0
C109 C 0.00547 0.20867 0.62089 0.0
C110 C 0.03078 0.20623 0.62925 0.0
C111 C 0.05856 0.21469 0.62049 0.0
H112 H 0.13777 0.20709 0.62542 0.0
H113 H 0.17737 0.19635 0.63991 0.0
H114 H 0.2402 0.24054 0.598 0.0
H115 H 0.20042 0.25076 0.58319 0.0
H116 H 0.17836 0.27516 0.55177 0.0
H117 H 0.1897 0.29811 0.52289 0.0
H118 H 0.09618 0.28906 0.51726 0.0
H119 H 0.08431 0.26551 0.54642 0.0
H120 H 0.0386 0.23783 0.5816 0.0
H121 H 0.9901 0.2232 0.597 0.0
H122 H 0.02886 0.19716 0.64246 0.0
H123 H 0.07731 0.2121 0.62741 0.0
N124 N 0.11415 0.22886 0.60194 0.0
N125 N 0.14608 0.24868 0.57788 0.0
N126 N 0.0966 0.247 0.57752 0.0
C127 C 0.14141 0.23594 0.59408 0.0
C128 C 0.12398 0.25433 0.56944 0.0
C129 C 0.0916 0.23427 0.59389 0.0
C130 C 0.16573 0.2297 0.60305 0.0
C131 C 0.15995 0.2145 0.61922 0.0
C132 C 0.1827 0.2084 0.62759 0.0
C133 C 0.21176 0.2173 0.62001 0.0
C134 C 0.21774 0.23277 0.60396 0.0
C135 C 0.19496 0.23881 0.59554 0.0
C136 C 0.13037 0.2685 0.55163 0.0
C137 C 0.16004 0.278 0.54453 0.0
C138 C 0.16674 0.29143 0.52795 0.0
C139 C 0.14407 0.29589 0.51792 0.0
C140 C 0.11418 0.28602 0.52475 0.0
C141 C 0.10745 0.27263 0.54148 0.0
C142 C 0.06199 0.22604 0.60313 0.0
C143 C 0.03685 0.22904 0.59488 0.0
C144 C 0.74973 0.76472 0.61168 0.0
C145 C 0.7662 0.77505 0.62913 0.0
C146 C 0.77138 0.8037 0.63793 0.0
C147 C 0.76022 0.82167 0.62951 0.0
H148 H 0.77914 0.91358 0.6298 0.0
H149 H 0.79678 0.96681 0.64355 0.0
H150 H 0.71926 0.96772 0.61232 0.0
H151 H 0.70242 0.91475 0.59778 0.0
H152 H 0.67413 0.86495 0.56073 0.0
H153 H 0.65348 0.85461 0.52886 0.0
H154 H 0.68623 0.7874 0.52039 0.0
H155 H 0.70612 0.79696 0.55246 0.0
H156 H 0.72596 0.77417 0.58974 0.0
H157 H 0.74547 0.74267 0.60462 0.0
H158 H 0.78461 0.81254 0.65123 0.0
H159 H 0.76486 0.84374 0.63672 0.0
N160 N 0.73938 0.85955 0.61162 0.0
N161 N 0.71396 0.8688 0.58688 0.0
N162 N 0.71692 0.82207 0.58612 0.0
C163 C 0.73007 0.87839 0.60367 0.0
C164 C 0.70735 0.84072 0.57799 0.0
C165 C 0.73274 0.83128 0.60306 0.0
C166 C 0.7393 0.90991 0.61275 0.0
C167 C 0.76561 0.92494 0.62598 0.0
C168 C 0.7756 0.95539 0.63398 0.0
C169 C 0.75904 0.97124 0.62928 0.0
C170 C 0.73251 0.9561 0.61618 0.0
C171 C 0.72283 0.92578 0.60791 0.0
C172 C 0.69195 0.83191 0.55913 0.0
C173 C 0.6766 0.84765 0.55215 0.0
C174 C 0.66482 0.8418 0.53389 0.0
C175 C 0.66825 0.82023 0.52214 0.0
C176 C 0.68271 0.80373 0.52919 0.0
C177 C 0.69426 0.80935 0.54755 0.0
C178 C 0.74374 0.81149 0.61201 0.0
C179 C 0.73851 0.78273 0.60321 0.0
C180 C 0.21281 0.97872 0.60459 0.0
C181 C 0.21085 0.98747 0.6227 0.0
C182 C 0.18589 0.96561 0.63223 0.0
C183 C 0.16343 0.93553 0.62385 0.0
H184 H 0.08205 0.85517 0.63191 0.0
H185 H 0.03578 0.82151 0.64785 0.0
H186 H 0.99184 0.75702 0.59915 0.0
H187 H 0.03872 0.7903 0.58317 0.0
H188 H 0.0824 0.80721 0.54619 0.0
H189 H 0.0938 0.79364 0.516 0.0
H190 H 0.19225 0.869 0.52668 0.0
H191 H 0.1813 0.88246 0.55654 0.0
H192 H 0.19269 0.94272 0.58223 0.0
H193 H 0.23133 0.99536 0.59676 0.0
H194 H 0.18387 0.97172 0.64623 0.0
H195 H 0.14456 0.91924 0.63162 0.0
N196 N 0.1151 0.87529 0.60492 0.0
N197 N 0.0977 0.83652 0.58003 0.0
N198 N 0.14616 0.88483 0.58031 0.0
C199 C 0.09296 0.84618 0.59671 0.0
C200 C 0.12451 0.85583 0.57181 0.0
C201 C 0.14166 0.89479 0.59679 0.0
C202 C 0.06431 0.82542 0.60621 0.0
C203 C 0.06262 0.83381 0.62451 0.0
C204 C 0.036 0.81457 0.6337 0.0
C205 C 0.01028 0.78644 0.62485 0.0
C206 C 0.01163 0.77819 0.60648 0.0
C207 C 0.03843 0.79736 0.59729 0.0
C208 C 0.13087 0.84596 0.55382 0.0
C209 C 0.10653 0.82063 0.54215 0.0
C210 C 0.11299 0.81292 0.52487 0.0
C211 C 0.144 0.83003 0.51912 0.0
C212 C 0.1683 0.855 0.53088 0.0
C213 C 0.16185 0.86286 0.54796 0.0
C214 C 0.16549 0.92664 0.60575 0.0
C215 C 0.19049 0.9486 0.59623 0.0
C216 C 0.92936 0.36275 0.73758 0.0
C217 C 0.90955 0.35068 0.7212 0.0
C218 C 0.90049 0.37011 0.71234 0.0
C219 C 0.91013 0.40071 0.72005 0.0
H220 H 0.88953 0.47236 0.7168 0.0
H221 H 0.86971 0.50404 0.70266 0.0
H222 H 0.93622 0.58597 0.73917 0.0
H223 H 0.95515 0.55404 0.75385 0.0
H224 H 0.96832 0.53235 0.79484 0.0
H225 H 0.9855 0.54223 0.82745 0.0
H226 H 0.9949 0.45858 0.82469 0.0
H227 H 0.97776 0.44841 0.79235 0.0
H228 H 0.95379 0.40166 0.75814 0.0
H229 H 0.93727 0.34846 0.74446 0.0
H230 H 0.88522 0.36131 0.69967 0.0
H231 H 0.90209 0.41479 0.71306 0.0
N232 N 0.92847 0.46279 0.73727 0.0
N233 N 0.94906 0.49995 0.76301 0.0
N234 N 0.95164 0.45315 0.7629 0.0
C235 C 0.9345 0.49093 0.74575 0.0
C236 C 0.95771 0.48109 0.77168 0.0
C237 C 0.93715 0.44385 0.74572 0.0
C238 C 0.92371 0.51062 0.73659 0.0
C239 C 0.89996 0.49715 0.72182 0.0
C240 C 0.88862 0.51528 0.71368 0.0
C241 C 0.90096 0.5473 0.72002 0.0
C242 C 0.92549 0.56106 0.73436 0.0
C243 C 0.93651 0.54283 0.74269 0.0
C244 C 0.97121 0.48934 0.79096 0.0
C245 C 0.9743 0.5162 0.80113 0.0
C246 C 0.98415 0.52191 0.81977 0.0
C247 C 0.99086 0.50079 0.82855 0.0
C248 C 0.98914 0.4748 0.81828 0.0
C249 C 0.97944 0.46912 0.79971 0.0
C250 C 0.92903 0.41245 0.7368 0.0
C251 C 0.93895 0.3933 0.74533 0.0
C252 C 0.674 0.55704 0.74497 0.0
C253 C 0.67055 0.55603 0.72585 0.0
C254 C 0.64015 0.5357 0.71663 0.0
C255 C 0.61399 0.51672 0.72624 0.0
H256 H 0.52535 0.43029 0.71938 0.0
H257 H 0.48622 0.37832 0.70416 0.0
H258 H 0.46917 0.33875 0.75607 0.0
H259 H 0.50706 0.39115 0.77139 0.0
H260 H 0.52908 0.44152 0.80655 0.0
H261 H 0.51887 0.45403 0.83695 0.0
H262 H 0.57848 0.5543 0.83151 0.0
H263 H 0.58892 0.54189 0.80083 0.0
H264 H 0.65124 0.53959 0.76929 0.0
H265 H 0.69723 0.57155 0.75252 0.0
H266 H 0.63656 0.53444 0.70196 0.0
H267 H 0.59097 0.50106 0.71869 0.0
N268 N 0.56757 0.46751 0.74677 0.0
N269 N 0.54144 0.45393 0.77342 0.0
N270 N 0.58798 0.50372 0.77299 0.0
C271 C 0.54327 0.44624 0.75578 0.0
C272 C 0.56341 0.48267 0.7821 0.0
C273 C 0.59016 0.49613 0.75527 0.0
C274 C 0.51939 0.41476 0.74656 0.0
C275 C 0.51326 0.41048 0.72754 0.0
C276 C 0.49103 0.38062 0.7188 0.0
C277 C 0.47506 0.35421 0.72887 0.0
C278 C 0.48099 0.35862 0.74793 0.0
C279 C 0.50276 0.38862 0.7567 0.0
C280 C 0.55969 0.49072 0.80117 0.0
C281 C 0.54022 0.46628 0.81179 0.0
C282 C 0.53444 0.47339 0.82926 0.0
C283 C 0.54765 0.5051 0.83651 0.0
C284 C 0.5677 0.52964 0.82613 0.0
C285 C 0.57385 0.52251 0.80865 0.0
C286 C 0.61746 0.51794 0.74534 0.0
C287 C 0.64767 0.53857 0.75462 0.0
C288 C 0.46655 0.11557 0.74847 0.0
C289 C 0.4683 0.12198 0.7301 0.0
C290 C 0.4927 0.12161 0.72072 0.0
C291 C 0.51476 0.11496 0.72944 0.0
H292 H 0.59598 0.11491 0.72176 0.0
H293 H 0.64292 0.12697 0.70593 0.0
H294 H 0.68905 0.11684 0.75458 0.0
H295 H 0.64132 0.10381 0.77055 0.0
H296 H 0.59559 0.07699 0.80592 0.0
H297 H 0.58506 0.05532 0.83548 0.0
H298 H 0.48832 0.03808 0.82827 0.0
H299 H 0.49898 0.06054 0.79917 0.0
H300 H 0.48649 0.10397 0.77135 0.0
H301 H 0.44854 0.11642 0.75623 0.0
H302 H 0.49461 0.12625 0.70654 0.0
H303 H 0.53316 0.11486 0.72171 0.0
N304 N 0.56348 0.10737 0.74893 0.0
N305 N 0.58114 0.09022 0.77374 0.0
N306 N 0.53234 0.09003 0.77354 0.0
C307 C 0.58583 0.10183 0.75709 0.0
C308 C 0.55424 0.08409 0.78203 0.0
C309 C 0.53679 0.10171 0.75701 0.0
C310 C 0.61478 0.10857 0.74757 0.0
C311 C 0.61606 0.11531 0.72924 0.0
C312 C 0.64318 0.12252 0.72012 0.0
C313 C 0.67007 0.1236 0.72907 0.0
C314 C 0.66874 0.11632 0.74731 0.0
C315 C 0.6414 0.10889 0.75646 0.0
C316 C 0.5482 0.07059 0.80003 0.0
C317 C 0.57205 0.06852 0.8106 0.0
C318 C 0.56592 0.05584 0.82753 0.0
C319 C 0.53567 0.04456 0.83422 0.0
C320 C 0.51193 0.0467 0.82364 0.0
C321 C 0.51809 0.05955 0.80686 0.0
C322 C 0.51295 0.10835 0.74778 0.0
C323 C 0.48847 0.10863 0.75718 0.0
C324 C 0.67404 0.5556 0.93657 0.0
C325 C 0.67051 0.5444 0.95395 0.0
C326 C 0.69542 0.5414 0.96238 0.0
C327 C 0.72285 0.54866 0.95354 0.0
H328 H 0.80902 0.55351 0.96172 0.0
H329 H 0.84749 0.54161 0.97654 0.0
H330 H 0.88853 0.54493 0.92559 0.0
H331 H 0.85082 0.55805 0.91085 0.0
H332 H 0.83435 0.59188 0.87993 0.0
H333 H 0.84506 0.6146 0.85088 0.0
H334 H 0.7635 0.6281 0.85277 0.0
H335 H 0.75217 0.60465 0.88182 0.0
H336 H 0.70336 0.57124 0.91427 0.0
H337 H 0.65551 0.55874 0.92985 0.0
H338 H 0.69342 0.53277 0.97573 0.0
H339 H 0.74128 0.54562 0.96049 0.0
N340 N 0.77708 0.55937 0.93445 0.0
N341 N 0.80779 0.57598 0.90959 0.0
N342 N 0.76004 0.57767 0.90995 0.0
C343 C 0.80336 0.56429 0.92612 0.0
C344 C 0.7864 0.58289 0.90139 0.0
C345 C 0.75521 0.56581 0.92653 0.0
C346 C 0.82686 0.55693 0.93508 0.0
C347 C 0.8263 0.55185 0.95365 0.0
C348 C 0.84831 0.54491 0.96216 0.0
C349 C 0.87135 0.54264 0.95232 0.0
C350 C 0.87169 0.54734 0.9337 0.0
C351 C 0.84989 0.55465 0.92521 0.0
C352 C 0.7923 0.5963 0.88336 0.0
C353 C 0.81849 0.59951 0.87421 0.0
C354 C 0.82477 0.61268 0.85752 0.0
C355 C 0.80509 0.62305 0.84941 0.0
C356 C 0.77881 0.61981 0.85845 0.0
C357 C 0.77244 0.60652 0.8752 0.0
C358 C 0.72628 0.55932 0.936 0.0
C359 C 0.70159 0.56296 0.9277 0.0
C360 C 0.42475 0.10591 0.94469 0.0
C361 C 0.43644 0.11294 0.96315 0.0
C362 C 0.4353 0.13739 0.97342 0.0
C363 C 0.42364 0.1552 0.96527 0.0
H364 H 0.41997 0.23561 0.97541 0.0
H365 H 0.43636 0.28737 0.99127 0.0
H366 H 0.41222 0.31746 0.94202 0.0
H367 H 0.39519 0.26561 0.92612 0.0
H368 H 0.37382 0.2223 0.89071 0.0
H369 H 0.35715 0.21373 0.85835 0.0
H370 H 0.34986 0.12161 0.85592 0.0
H371 H 0.36652 0.12987 0.88855 0.0
H372 H 0.4048 0.11813 0.92216 0.0
H373 H 0.42533 0.08707 0.9365 0.0
H374 H 0.44343 0.14275 0.98778 0.0
H375 H 0.4235 0.17415 0.97359 0.0
N376 N 0.40684 0.1961 0.94732 0.0
N377 N 0.3878 0.20957 0.92157 0.0
N378 N 0.39075 0.16288 0.92008 0.0
C379 C 0.3995 0.2163 0.93931 0.0
C380 C 0.38318 0.18288 0.91186 0.0
C381 C 0.40254 0.16935 0.93786 0.0
C382 C 0.40659 0.24652 0.94941 0.0
C383 C 0.4179 0.25311 0.96795 0.0
C384 C 0.42745 0.28279 0.97704 0.0
C385 C 0.42606 0.30649 0.96776 0.0
C386 C 0.41352 0.29954 0.94947 0.0
C387 C 0.40386 0.26984 0.94037 0.0
C388 C 0.37173 0.17684 0.89228 0.0
C389 C 0.36863 0.20011 0.8834 0.0
C390 C 0.35927 0.19536 0.86482 0.0
C391 C 0.35273 0.16725 0.85467 0.0
C392 C 0.35494 0.14355 0.86351 0.0
C393 C 0.36454 0.14836 0.88215 0.0
C394 C 0.41272 0.14885 0.94666 0.0
C395 C 0.41302 0.12371 0.93651 0.0
C396 C 0.87901 0.30331 0.93736 0.0
C397 C 0.87466 0.31308 0.95469 0.0
C398 C 0.84725 0.29263 0.96312 0.0
C399 C 0.82488 0.26273 0.95454 0.0
H400 H 0.75161 0.17685 0.96479 0.0
H401 H 0.70487 0.14533 0.98099 0.0
H402 H 0.65468 0.08592 0.93137 0.0
H403 H 0.70153 0.11776 0.91488 0.0
H404 H 0.7514 0.12674 0.88035 0.0
H405 H 0.76241 0.11378 0.84988 0.0
H406 H 0.845 0.20797 0.85173 0.0
H407 H 0.83463 0.22092 0.88176 0.0
H408 H 0.86082 0.26656 0.91542 0.0
H409 H 0.89997 0.31865 0.93058 0.0
H410 H 0.84295 0.29988 0.97631 0.0
H411 H 0.80405 0.24759 0.96146 0.0
N412 N 0.78014 0.20045 0.93673 0.0
N413 N 0.76154 0.16281 0.91119 0.0
N414 N 0.80881 0.21212 0.91106 0.0
C415 C 0.75804 0.17139 0.92848 0.0
C416 C 0.78713 0.18324 0.90242 0.0
C417 C 0.80553 0.22096 0.92814 0.0
C418 C 0.73028 0.15012 0.93841 0.0
C419 C 0.73072 0.15703 0.95724 0.0
C420 C 0.704 0.13887 0.96662 0.0
C421 C 0.67604 0.11347 0.95742 0.0
C422 C 0.67581 0.10577 0.93874 0.0
C423 C 0.7027 0.12386 0.92933 0.0
C424 C 0.79226 0.17477 0.8837 0.0
C425 C 0.77191 0.14464 0.87425 0.0
C426 C 0.77815 0.13721 0.85682 0.0
C427 C 0.80495 0.15967 0.84864 0.0
C428 C 0.82469 0.18989 0.85789 0.0
C429 C 0.81851 0.19732 0.87515 0.0
C430 C 0.8293 0.25271 0.93725 0.0
C431 C 0.8566 0.27341 0.92873 0.0
C432 C 0.57903 0.69346 0.07056 0.0
C433 C 0.57842 0.68919 0.05154 0.0
C434 C 0.58904 0.71587 0.04154 0.0
C435 C 0.59885 0.7459 0.05031 0.0
H436 H 0.58129 0.82086 0.04388 0.0
H437 H 0.56137 0.85238 0.02971 0.0
H438 H 0.59493 0.91793 0.07819 0.0
H439 H 0.61439 0.8862 0.09266 0.0
H440 H 0.6343 0.86546 0.12944 0.0
H441 H 0.65208 0.8749 0.16188 0.0
H442 H 0.66488 0.79323 0.15776 0.0
H443 H 0.64663 0.78328 0.12556 0.0
H444 H 0.58923 0.72589 0.094 0.0
H445 H 0.57074 0.6734 0.07867 0.0
H446 H 0.58987 0.71362 0.02695 0.0
H447 H 0.60645 0.76597 0.04226 0.0
N448 N 0.60219 0.80184 0.06993 0.0
N449 N 0.62029 0.83685 0.09657 0.0
N450 N 0.62002 0.78856 0.09629 0.0
C451 C 0.60817 0.82971 0.07881 0.0
C452 C 0.62652 0.81644 0.10536 0.0
C453 C 0.60802 0.78119 0.0786 0.0
C454 C 0.59911 0.85071 0.06955 0.0
C455 C 0.58465 0.84208 0.05155 0.0
C456 C 0.5733 0.86016 0.04336 0.0
C457 C 0.5761 0.88721 0.05298 0.0
C458 C 0.5918 0.89671 0.07064 0.0
C459 C 0.60312 0.87862 0.07887 0.0
C460 C 0.63891 0.82354 0.12484 0.0
C461 C 0.64112 0.84963 0.1354 0.0
C462 C 0.65147 0.85517 0.15397 0.0
C463 C 0.66001 0.83487 0.1623 0.0
C464 C 0.65823 0.80912 0.15171 0.0
C465 C 0.64782 0.80351 0.13322 0.0
C466 C 0.59911 0.74994 0.0693 0.0
C467 C 0.58955 0.72354 0.07936 0.0
C468 C 0.33595 0.88774 0.07568 0.0
C469 C 0.33727 0.87831 0.05753 0.0
C470 C 0.31111 0.85029 0.04892 0.0
C471 C 0.28446 0.83183 0.05826 0.0
H472 H 0.20041 0.74984 0.05055 0.0
H473 H 0.15972 0.69846 0.03533 0.0
H474 H 0.11354 0.67312 0.08512 0.0
H475 H 0.15363 0.72464 0.10032 0.0
H476 H 0.18145 0.76997 0.13413 0.0
H477 H 0.17323 0.78201 0.16495 0.0
H478 H 0.25149 0.87832 0.16512 0.0
H479 H 0.26005 0.86643 0.13379 0.0
H480 H 0.30903 0.87701 0.09908 0.0
H481 H 0.35579 0.90931 0.08265 0.0
H482 H 0.31103 0.8428 0.03483 0.0
H483 H 0.26486 0.81037 0.05105 0.0
N484 N 0.23132 0.79222 0.07767 0.0
N485 N 0.20273 0.7811 0.10337 0.0
N486 N 0.25172 0.82891 0.10368 0.0
C487 C 0.20531 0.77244 0.08609 0.0
C488 C 0.2256 0.80917 0.11231 0.0
C489 C 0.25467 0.82042 0.08625 0.0
C490 C 0.18032 0.74148 0.07668 0.0
C491 C 0.18151 0.73344 0.05827 0.0
C492 C 0.15826 0.70399 0.04953 0.0
C493 C 0.13332 0.68196 0.05899 0.0
C494 C 0.13208 0.68993 0.07737 0.0
C495 C 0.15523 0.71941 0.0861 0.0
C496 C 0.22156 0.81722 0.13136 0.0
C497 C 0.19713 0.7938 0.14059 0.0
C498 C 0.19245 0.80057 0.15836 0.0
C499 C 0.21196 0.83093 0.16748 0.0
C500 C 0.2362 0.85465 0.15836 0.0
C501 C 0.24114 0.84779 0.14048 0.0
C502 C 0.2831 0.84093 0.0765 0.0
C503 C 0.30917 0.86922 0.08508 0.0
C504 C 0.12517 0.4368 0.07828 0.0
C505 C 0.13273 0.45279 0.06241 0.0
C506 C 0.16295 0.46274 0.0561 0.0
C507 C 0.18486 0.45631 0.06521 0.0
H508 H 0.27964 0.47898 0.06809 0.0
H509 H 0.32792 0.49205 0.05319 0.0
H510 H 0.33621 0.41954 0.07996 0.0
H511 H 0.28863 0.40751 0.09562 0.0
H512 H 0.25512 0.4039 0.1394 0.0
H513 H 0.24271 0.38164 0.16878 0.0
H514 H 0.1453 0.36132 0.15864 0.0
H515 H 0.15769 0.3842 0.1297 0.0
H516 H 0.14035 0.41775 0.09952 0.0
H517 H 0.10206 0.42886 0.08347 0.0
H518 H 0.1698 0.4758 0.04417 0.0
H519 H 0.20785 0.46432 0.05986 0.0
N520 N 0.22859 0.44045 0.08335 0.0
N521 N 0.24318 0.41917 0.10732 0.0
N522 N 0.19398 0.41821 0.10608 0.0
C523 C 0.25002 0.43376 0.09159 0.0
C524 C 0.21513 0.41142 0.1147 0.0
C525 C 0.2005 0.43271 0.09041 0.0
C526 C 0.28027 0.44226 0.08315 0.0
C527 C 0.29188 0.46595 0.07095 0.0
C528 C 0.31954 0.47338 0.0623 0.0
C529 C 0.33625 0.45709 0.06542 0.0
C530 C 0.32456 0.43325 0.07759 0.0
C531 C 0.29712 0.42618 0.0865 0.0
C532 C 0.20757 0.39627 0.13217 0.0
C533 C 0.23105 0.39468 0.14341 0.0
C534 C 0.22393 0.38186 0.16026 0.0
C535 C 0.19318 0.37029 0.16626 0.0
C536 C 0.1695 0.37093 0.15474 0.0
C537 C 0.17662 0.38389 0.13802 0.0
C538 C 0.17722 0.43991 0.08096 0.0
C539 C 0.14712 0.43038 0.08744 0.0
C540 C 0.34298 0.89148 0.2725 0.0
C541 C 0.34052 0.88089 0.29001 0.0
C542 C 0.36552 0.87736 0.29782 0.0
C543 C 0.39235 0.88436 0.28846 0.0
H544 H 0.46998 0.8758 0.29291 0.0
H545 H 0.5098 0.8662 0.30803 0.0
H546 H 0.56975 0.9026 0.26397 0.0
H547 H 0.52955 0.91176 0.24847 0.0
H548 H 0.49336 0.91532 0.21116 0.0
H549 H 0.50289 0.93579 0.18142 0.0
H550 H 0.43491 0.96766 0.18793 0.0
H551 H 0.42501 0.94692 0.21791 0.0
H552 H 0.37104 0.90656 0.24962 0.0
H553 H 0.32406 0.89438 0.2661 0.0
H554 H 0.36407 0.86852 0.31107 0.0
H555 H 0.41091 0.88109 0.29503 0.0
N556 N 0.44604 0.89583 0.26891 0.0
N557 N 0.47573 0.91172 0.24366 0.0
N558 N 0.42747 0.91247 0.24424 0.0
C559 C 0.47218 0.9009 0.26041 0.0
C560 C 0.4536 0.9176 0.23544 0.0
C561 C 0.42353 0.90143 0.26105 0.0
C562 C 0.49652 0.89478 0.26947 0.0
C563 C 0.49162 0.88189 0.28638 0.0
C564 C 0.51457 0.87656 0.29515 0.0
C565 C 0.54316 0.88418 0.28735 0.0
C566 C 0.54795 0.89657 0.27032 0.0
C567 C 0.52492 0.90187 0.26148 0.0
C568 C 0.45835 0.92941 0.21702 0.0
C569 C 0.48025 0.92656 0.20632 0.0
C570 C 0.48562 0.93811 0.18919 0.0
C571 C 0.46947 0.95309 0.18229 0.0
C572 C 0.44765 0.95615 0.19293 0.0
C573 C 0.44191 0.94416 0.21004 0.0
C574 C 0.39499 0.89496 0.27092 0.0
C575 C 0.36996 0.89854 0.26308 0.0
C576 C 0.10044 0.44512 0.27677 0.0
C577 C 0.09758 0.44022 0.29534 0.0
C578 C 0.08389 0.45468 0.30571 0.0
C579 C 0.07348 0.47369 0.29774 0.0
H580 H 0.0865 0.56607 0.30909 0.0
H581 H 0.10393 0.61819 0.32493 0.0
H582 H 0.07485 0.64672 0.27664 0.0
H583 H 0.0567 0.59466 0.26089 0.0
H584 H 0.02749 0.54886 0.22654 0.0
H585 H 0.01029 0.54186 0.19433 0.0
H586 H 0.02362 0.46078 0.18728 0.0
H587 H 0.04053 0.46729 0.21974 0.0
H588 H 0.09203 0.46696 0.25442 0.0
H589 H 0.11196 0.4354 0.26851 0.0
H590 H 0.08117 0.45127 0.32001 0.0
H591 H 0.06329 0.48477 0.3061 0.0
N592 N 0.07026 0.5254 0.28093 0.0
N593 N 0.05166 0.54014 0.25551 0.0
N594 N 0.05507 0.49378 0.25305 0.0
C595 C 0.06312 0.54607 0.27328 0.0
C596 C 0.04735 0.51404 0.24531 0.0
C597 C 0.06627 0.49924 0.2709 0.0
C598 C 0.07052 0.57623 0.28363 0.0
C599 C 0.08349 0.5833 0.30189 0.0
C600 C 0.09369 0.6132 0.31094 0.0
C601 C 0.09125 0.63661 0.30189 0.0
C602 C 0.07699 0.62909 0.28394 0.0
C603 C 0.0667 0.59923 0.27492 0.0
C604 C 0.0357 0.50879 0.22578 0.0
C605 C 0.02681 0.52947 0.21822 0.0
C606 C 0.01712 0.52564 0.19972 0.0
C607 C 0.01621 0.50115 0.1883 0.0
C608 C 0.02424 0.47992 0.19583 0.0
C609 C 0.03396 0.48372 0.2144 0.0
C610 C 0.07597 0.47811 0.27915 0.0
C611 C 0.08926 0.46342 0.2687 0.0
C612 C 0.54704 0.64259 0.27183 0.0
C613 C 0.54234 0.65249 0.28902 0.0
C614 C 0.51674 0.63086 0.29825 0.0
C615 C 0.49559 0.6002 0.29018 0.0
H616 H 0.41551 0.5212 0.29812 0.0
H617 H 0.36786 0.49028 0.31359 0.0
H618 H 0.32424 0.42325 0.2659 0.0
H619 H 0.3721 0.45458 0.25003 0.0
H620 H 0.41571 0.48138 0.20989 0.0
H621 H 0.42822 0.47358 0.1788 0.0
H622 H 0.52928 0.5288 0.19628 0.0
H623 H 0.51704 0.53719 0.22686 0.0
H624 H 0.52991 0.60518 0.25033 0.0
H625 H 0.56667 0.65885 0.26446 0.0
H626 H 0.51307 0.63767 0.31173 0.0
H627 H 0.47589 0.58428 0.29761 0.0
N628 N 0.44926 0.53935 0.27166 0.0
N629 N 0.43159 0.50074 0.24668 0.0
N630 N 0.48096 0.54841 0.24744 0.0
C631 C 0.42683 0.5105 0.26334 0.0
C632 C 0.45896 0.51969 0.23877 0.0
C633 C 0.47626 0.55848 0.26382 0.0
C634 C 0.3977 0.49055 0.27269 0.0
C635 C 0.39586 0.49993 0.29078 0.0
C636 C 0.36856 0.48214 0.29976 0.0
C637 C 0.34224 0.45455 0.29093 0.0
C638 C 0.34403 0.44478 0.27294 0.0
C639 C 0.37151 0.46259 0.2639 0.0
C640 C 0.46538 0.51035 0.22073 0.0
C641 C 0.44054 0.49145 0.20708 0.0
C642 C 0.44769 0.48706 0.18932 0.0
C643 C 0.47973 0.5014 0.18504 0.0
C644 C 0.50438 0.51841 0.19902 0.0
C645 C 0.49731 0.52303 0.21658 0.0
C646 C 0.49972 0.59044 0.27275 0.0
C647 C 0.52593 0.61187 0.26375 0.0
Tb648 Tb 0.49466 0.97874 0.98836 0.0
Eu649 Eu 0.5184 0.02176 0.0284 0.0
C650 C 0.52339 0.95991 0.02128 0.0
C651 C 0.44886 0.9592 0.0196 0.0
C652 C 0.4876 0.96482 0.93834 0.0
C653 C 0.48962 0.95736 0.90567 0.0
C654 C 0.48193 0.94479 0.92253 0.0
C655 C 0.50069 0.99759 0.93703 0.0
C656 C 0.50852 0.01019 0.92021 0.0
C657 C 0.50352 0.99032 0.90434 0.0
C658 C 0.48167 0.95186 0.95627 0.0
O659 O 0.47296 0.00866 0.98913 0.0
O660 O 0.50896 0.05086 0.00922 0.0
O661 O 0.5622 0.0388 0.01255 0.0
O662 O 0.53474 0.02492 0.98436 0.0
C663 C 0.486 0.03853 0.99585 0.0
O664 O 0.51018 0.04702 0.05103 0.0
O665 O 0.55189 0.04138 0.05284 0.0
O666 O 0.51398 0.97478 0.03238 0.0
O667 O 0.52412 0.96402 1.00384 0.0
O668 O 0.45929 0.94857 1.00632 0.0
O669 O 0.46501 0.98897 0.02659 0.0
C670 C 0.5615 0.04108 0.99491 0.0
O671 O 0.50733 0.95881 0.96664 0.0
O672 O 0.46124 0.95564 0.96543 0.0
C673 C 0.52465 0.03552 0.07966 0.0
C674 C 0.50475 0.00797 0.11287 0.0
C675 C 0.49522 0.02896 0.10649 0.0
C676 C 0.50508 0.04258 0.0901 0.0
C677 C 0.53467 0.01498 0.08621 0.0
C678 C 0.52501 0.00157 0.10264 0.0
C679 C 0.53334 0.04857 0.06175 0.0
H680 H 0.48454 0.9412 0.89368 0.0
H681 H 0.4718 0.91943 0.92323 0.0
H682 H 0.50523 0.01349 0.94906 0.0
H683 H 0.51904 0.03561 0.91969 0.0
H684 H 0.47965 0.03443 0.11403 0.0
H685 H 0.49699 0.05832 0.08543 0.0
H686 H 0.54982 0.009 0.07861 0.0
H687 H 0.5336 0.98626 0.10736 0.0
Tb688 Tb 0.02287 0.50643 0.99035 0.0
Eu689 Eu 0.97986 0.48803 0.0253 0.0
C690 C 0.04168 0.55628 0.02368 0.0
C691 C 0.04273 0.48242 0.02488 0.0
C692 C 0.04474 0.52036 0.94341 0.0
C693 C 0.05815 0.52627 0.91215 0.0
C694 C 0.0673 0.52795 0.93062 0.0
C695 C 0.01309 0.51169 0.93768 0.0
C696 C 1.00393 0.50998 0.91924 0.0
C697 C 0.02627 0.5168 0.90629 0.0
C698 C 0.05404 0.52092 0.96266 0.0
O699 O 0.97844 0.46283 0.98108 0.0
O700 O 0.96706 0.44271 0.00862 0.0
O701 O 0.94912 0.49116 1.00254 0.0
O702 O 0.99036 0.52504 0.9867 0.0
C703 C 0.96395 0.43862 0.99082 0.0
O704 O 0.95434 0.45422 0.04485 0.0
O705 O 0.95522 0.49912 0.04595 0.0
O706 O 0.01188 0.54121 0.02776 0.0
O707 O 0.05223 0.5428 0.01226 0.0
O708 O 0.03956 0.48092 0.00699 0.0
O709 O 0.02647 0.49145 0.03487 0.0
C710 C 0.96018 0.51162 0.99023 0.0
O711 O 0.05165 0.54136 0.97365 0.0
O712 O 0.04212 0.49317 0.969 0.0
C713 C 0.95795 0.47878 0.07364 0.0
C714 C 0.97735 0.48705 0.11101 0.0
C715 C 0.94466 0.47255 0.10491 0.0
C716 C 0.93503 0.46849 0.08632 0.0
C717 C 0.99058 0.49318 0.07966 0.0
C718 C 1.0002 0.49718 0.0982 0.0
C719 C 0.94795 0.47362 0.05412 0.0
H720 H 0.07575 0.53157 0.9024 0.0
H721 H 0.09183 0.53474 0.93488 0.0
H722 H 0.99543 0.50595 0.94745 0.0
H723 H 0.97934 0.50314 0.91508 0.0
H724 H 0.9266 0.46457 0.11453 0.0
H725 H 0.90974 0.45719 0.08184 0.0
H726 H 0.00857 0.50103 0.07 0.0
H727 H 0.02548 0.50779 0.1025 0.0
Tb728 Tb 0.51877 0.49351 0.02732 0.0
Eu729 Eu 0.48523 0.50247 0.98965 0.0
C730 C 0.47707 0.43667 0.99871 0.0
C731 C 0.55542 0.50994 0.99169 0.0
C732 C 0.53311 0.48947 0.07602 0.0
C733 C 0.52457 0.47159 0.10637 0.0
C734 C 0.53341 0.4694 0.08882 0.0
C735 C 0.52382 0.51176 0.08099 0.0
C736 C 0.51512 0.51403 0.09852 0.0
C737 C 0.5154 0.49399 0.11141 0.0
C738 C 0.54017 0.48554 0.05719 0.0
O739 O 0.51967 0.53817 0.03202 0.0
O740 O 0.52193 0.55105 1.00262 0.0
O741 O 0.45252 0.50037 0.01091 0.0
O742 O 0.4693 0.4782 0.03261 0.0
C743 C 0.527 0.55927 0.02018 0.0
O744 O 0.47755 0.53179 0.97093 0.0
O745 O 0.45725 0.4815 0.96344 0.0
O746 O 0.46094 0.45078 0.99444 0.0
O747 O 0.50523 0.45273 0.00798 0.0
O748 O 0.55785 0.5145 0.00959 0.0
O749 O 0.52796 0.4992 0.98198 0.0
C750 C 0.44908 0.48682 0.02623 0.0
O751 O 0.51638 0.46263 0.04673 0.0
O752 O 0.55494 0.51146 0.04896 0.0
C753 C 0.47863 0.51533 0.9404 0.0
C754 C 0.50517 0.52007 0.90678 0.0
C755 C 0.47276 0.51135 0.90734 0.0
C756 C 0.45959 0.50891 0.92404 0.0
C757 C 0.51124 0.52503 0.93988 0.0
C758 C 0.52436 0.52729 0.92322 0.0
C759 C 0.46399 0.50885 0.95781 0.0
H760 H 0.52508 0.45589 0.11604 0.0
H761 H 0.54013 0.4518 0.08517 0.0
H762 H 0.5227 0.52703 0.07122 0.0
H763 H 0.50741 0.53097 0.10183 0.0
H764 H 0.4573 0.50513 0.89487 0.0
H765 H 0.43431 0.50105 0.92416 0.0
H766 H 0.52634 0.52998 0.95236 0.0
H767 H 0.5494 0.53412 0.92317 0.0
Tb768 Tb 0.16245 0.31213 0.32168 0.0
Eu769 Eu 0.18664 0.35626 0.36189 0.0
C770 C 0.20101 0.29982 0.35236 0.0
C771 C 0.12143 0.29062 0.35526 0.0
C772 C 0.15208 0.29546 0.27194 0.0
C773 C 0.1522 0.28684 0.23915 0.0
C774 C 0.14598 0.27494 0.25627 0.0
C775 C 0.16463 0.32803 0.27025 0.0
C776 C 0.1708 0.3399 0.25321 0.0
C777 C 0.1645 0.31949 0.23739 0.0
C778 C 0.14586 0.28324 0.29005 0.0
O779 O 0.16117 0.35495 0.31743 0.0
O780 O 0.15353 0.36847 0.34616 0.0
O781 O 0.22191 0.38789 0.34313 0.0
O782 O 0.21217 0.34891 0.32011 0.0
C783 C 0.15073 0.36899 0.32844 0.0
O784 O 0.17385 0.37746 0.3844 0.0
O785 O 0.21964 0.37956 0.38644 0.0
O786 O 0.21283 0.32914 0.35961 0.0
O787 O 0.17646 0.28661 0.33988 0.0
O788 O 0.1208 0.29395 0.3377 0.0
O789 O 0.1479 0.30718 0.36593 0.0
C790 C 0.22927 0.37804 0.32815 0.0
O791 O 0.17091 0.28775 0.30019 0.0
O792 O 0.12769 0.29036 0.29934 0.0
C793 C 0.19248 0.37193 0.41322 0.0
C794 C 0.17652 0.34839 0.44763 0.0
C795 C 0.18639 0.38036 0.4452 0.0
C796 C 0.1943 0.39199 0.42816 0.0
C797 C 0.18253 0.33997 0.41554 0.0
C798 C 0.17461 0.32832 0.43258 0.0
C799 C 0.19905 0.38394 0.39508 0.0
H800 H 0.14703 0.27045 0.22725 0.0
H801 H 0.1364 0.24973 0.25726 0.0
H802 H 0.16973 0.34434 0.28215 0.0
H803 H 0.18085 0.36519 0.25244 0.0
H804 H 0.18752 0.39628 0.45643 0.0
H805 H 0.20147 0.41659 0.42661 0.0
H806 H 0.18069 0.324 0.40413 0.0
H807 H 0.16725 0.30366 0.43403 0.0
Tb808 Tb 0.69262 0.84512 0.32466 0.0
Eu809 Eu 0.64884 0.8271 0.35941 0.0
C810 C 0.71286 0.89299 0.35974 0.0
C811 C 0.70979 0.81752 0.35812 0.0
C812 C 0.71502 0.8549 0.27743 0.0
C813 C 0.73009 0.86393 0.24657 0.0
C814 C 0.7387 0.86664 0.26522 0.0
C815 C 0.6826 0.84013 0.27085 0.0
C816 C 0.67399 0.83747 0.25223 0.0
C817 C 0.69766 0.84961 0.23992 0.0
C818 C 0.72422 0.85934 0.29705 0.0
O819 O 0.65932 0.79397 0.32082 0.0
O820 O 0.61836 0.79194 0.33595 0.0
O821 O 0.63635 0.85734 0.34271 0.0
O822 O 0.64903 0.84488 0.31523 0.0
C823 C 0.62899 0.77943 0.32401 0.0
O824 O 0.61615 0.79164 0.37623 0.0
O825 O 0.62949 0.84116 0.38186 0.0
O826 O 0.69634 0.86941 0.36949 0.0
O827 O 0.70883 0.88911 0.34188 0.0
O828 O 0.721 0.83861 0.34609 0.0
O829 O 0.6801 0.80516 0.36236 0.0
C830 C 0.63399 0.85595 0.32487 0.0
O831 O 0.71761 0.87853 0.30632 0.0
O832 O 0.71618 0.83355 0.30506 0.0
C833 C 0.62111 0.81115 0.40706 0.0
C834 C 0.63388 0.81085 0.4446 0.0
C835 C 0.64281 0.7948 0.43192 0.0
C836 C 0.63661 0.79506 0.41327 0.0
C837 C 0.61186 0.82684 0.41975 0.0
C838 C 0.61834 0.82684 0.43837 0.0
C839 C 0.61525 0.81277 0.3875 0.0
H840 H 0.74878 0.87284 0.23735 0.0
H841 H 0.76382 0.87807 0.27011 0.0
H842 H 0.66401 0.83101 0.28013 0.0
H843 H 0.64883 0.82634 0.24747 0.0
H844 H 0.65527 0.78274 0.43644 0.0
H845 H 0.64432 0.78303 0.40376 0.0
H846 H 0.59995 0.83944 0.41523 0.0
H847 H 0.61127 0.8394 0.44793 0.0
Tb848 Tb 0.184 0.82317 0.36134 0.0
Eu849 Eu 0.15485 0.83529 0.32303 0.0
C850 C 0.14482 0.76808 0.33124 0.0
C851 C 0.22447 0.8433 0.32734 0.0
C852 C 0.19568 0.81533 0.41019 0.0
C853 C 0.18407 0.793 0.43936 0.0
C854 C 0.19296 0.79228 0.42168 0.0
C855 C 0.18939 0.83917 0.41667 0.0
C856 C 0.18066 0.83999 0.43437 0.0
C857 C 0.17785 0.81689 0.4459 0.0
C858 C 0.20342 0.81322 0.39127 0.0
O859 O 0.18139 0.8657 0.3672 0.0
O860 O 0.18834 0.88274 0.33877 0.0
O861 O 0.11925 0.83104 0.34285 0.0
O862 O 0.13395 0.8079 0.3651 0.0
C863 C 0.18952 0.88845 0.35644 0.0
O864 O 0.15503 0.86786 0.30377 0.0
O865 O 0.12585 0.8172 0.29689 0.0
O866 O 0.12981 0.78285 0.32601 0.0
O867 O 0.17192 0.7833 0.3416 0.0
O868 O 0.22492 0.84767 0.34513 0.0
O869 O 0.19756 0.83095 0.31688 0.0
C870 C 0.11438 0.81679 0.35797 0.0
O871 O 0.18019 0.79095 0.3802 0.0
O872 O 0.21855 0.83993 0.38378 0.0
C873 C 0.15185 0.8483 0.27336 0.0
C874 C 0.17649 0.84847 0.23952 0.0
C875 C 0.14671 0.84686 0.24037 0.0
C876 C 0.1344 0.8466 0.25717 0.0
C877 C 0.18214 0.85115 0.27257 0.0
C878 C 0.19434 0.8512 0.25581 0.0
C879 C 0.13786 0.84521 0.29091 0.0
H880 H 0.18158 0.77458 0.44783 0.0
H881 H 0.19733 0.77347 0.41688 0.0
H882 H 0.19093 0.85702 0.40801 0.0
H883 H 0.17616 0.85876 0.43906 0.0
H884 H 0.13245 0.84467 0.22799 0.0
H885 H 0.11098 0.84435 0.2575 0.0
H886 H 0.1961 0.85277 0.28491 0.0
H887 H 0.21754 0.85292 0.25557 0.0
Tb888 Tb 0.82873 0.64651 0.65545 0.0
Eu889 Eu 0.85383 0.69023 0.69568 0.0
C890 C 0.85816 0.62685 0.68744 0.0
C891 C 0.78506 0.62821 0.68838 0.0
C892 C 0.82262 0.63334 0.60541 0.0
C893 C 0.81781 0.62566 0.57232 0.0
C894 C 0.80944 0.61335 0.58918 0.0
C895 C 0.84441 0.66586 0.60456 0.0
C896 C 0.85274 0.67819 0.58771 0.0
C897 C 0.83961 0.65824 0.57137 0.0
C898 C 0.81323 0.62041 0.62313 0.0
O899 O 0.83242 0.69212 0.65209 0.0
O900 O 0.82047 0.70202 0.68021 0.0
O901 O 0.88969 0.71956 0.67633 0.0
O902 O 0.88057 0.67695 0.65676 0.0
C903 C 0.82026 0.70498 0.66271 0.0
O904 O 0.84437 0.71515 0.71782 0.0
O905 O 0.88695 0.71124 0.72036 0.0
O906 O 0.87234 0.65619 0.69508 0.0
O907 O 0.83639 0.61655 0.67345 0.0
O908 O 0.78592 0.62891 0.67059 0.0
O909 O 0.81091 0.64384 0.69963 0.0
C910 C 0.89827 0.70707 0.66302 0.0
O911 O 0.83587 0.62122 0.63391 0.0
O912 O 0.7964 0.62999 0.63193 0.0
C913 C 0.85872 0.70494 0.74649 0.0
C914 C 0.8393 0.67905 0.78005 0.0
C915 C 0.85945 0.71206 0.77941 0.0
C916 C 0.86899 0.72488 0.76277 0.0
C917 C 0.83882 0.67202 0.74709 0.0
C918 C 0.82933 0.65919 0.76366 0.0
C919 C 0.86789 0.71824 0.72883 0.0
H920 H 0.80673 0.60977 0.56 0.0
H921 H 0.79244 0.58825 0.58952 0.0
H922 H 0.85487 0.68173 0.61694 0.0
H923 H 0.8696 0.70335 0.58747 0.0
H924 H 0.86756 0.72801 0.79178 0.0
H925 H 0.88425 0.75037 0.76261 0.0
H926 H 0.83058 0.65616 0.7347 0.0
H927 H 0.81451 0.63363 0.76365 0.0
Tb928 Tb 0.36307 0.18018 0.65829 0.0
Eu929 Eu 0.31855 0.16298 0.69281 0.0
C930 C 0.38312 0.22918 0.693 0.0
C931 C 0.38036 0.1542 0.69237 0.0
C932 C 0.38479 0.18815 0.61102 0.0
C933 C 0.39799 0.20177 0.58033 0.0
C934 C 0.4075 0.20468 0.59885 0.0
C935 C 0.3525 0.16831 0.60449 0.0
C936 C 0.34298 0.16541 0.58599 0.0
C937 C 0.36557 0.18248 0.57377 0.0
C938 C 0.39441 0.19353 0.63061 0.0
O939 O 0.33067 0.12882 0.6552 0.0
O940 O 0.28891 0.12631 0.6697 0.0
O941 O 0.305 0.19151 0.67523 0.0
O942 O 0.31913 0.17875 0.64833 0.0
C943 C 0.30029 0.11368 0.6583 0.0
O944 O 0.28737 0.1279 0.71038 0.0
O945 O 0.29698 0.17641 0.71421 0.0
O946 O 0.36509 0.20657 0.70298 0.0
O947 O 0.38051 0.22468 0.67517 0.0
O948 O 0.39155 0.17461 0.68002 0.0
O949 O 0.35072 0.14218 0.69667 0.0
C950 C 0.30307 0.1893 0.65737 0.0
O951 O 0.38757 0.21287 0.63952 0.0
O952 O 0.38693 0.16827 0.63907 0.0
C953 C 0.29278 0.14984 0.74075 0.0
C954 C 0.31172 0.15362 0.77795 0.0
C955 C 0.30253 0.12586 0.76656 0.0
C956 C 0.29317 0.12397 0.74812 0.0
C957 C 0.30069 0.17705 0.75238 0.0
C958 C 0.31013 0.17894 0.77078 0.0
C959 C 0.28519 0.14897 0.721 0.0
H960 H 0.41584 0.21514 0.57118 0.0
H961 H 0.43247 0.22028 0.60372 0.0
H962 H 0.33464 0.15544 0.61375 0.0
H963 H 0.31795 0.14985 0.58124 0.0
H964 H 0.30339 0.10596 0.77183 0.0
H965 H 0.28683 0.10249 0.73958 0.0
H966 H 0.3001 0.19716 0.74721 0.0
H967 H 0.31636 0.20031 0.7794 0.0
Tb968 Tb 0.84858 0.15328 0.69186 0.0
Eu969 Eu 0.82273 0.17193 0.65485 0.0
C970 C 0.81026 0.1017 0.65939 0.0
C971 C 0.88882 0.17201 0.65745 0.0
C972 C 0.85624 0.1414 0.74013 0.0
C973 C 0.85465 0.12709 0.77119 0.0
C974 C 0.86393 0.12653 0.75359 0.0
C975 C 0.8387 0.15642 0.74438 0.0
C976 C 0.82954 0.1571 0.76198 0.0
C977 C 0.83766 0.1427 0.77564 0.0
C978 C 0.86548 0.14024 0.72156 0.0
O979 O 0.84928 0.19734 0.69905 0.0
O980 O 0.85966 0.21677 0.67144 0.0
O981 O 0.78992 0.16981 0.6761 0.0
O982 O 0.79795 0.13709 0.69419 0.0
C983 C 0.86055 0.2214 0.68912 0.0
O984 O 0.83162 0.20769 0.63593 0.0
O985 O 0.78887 0.16142 0.63114 0.0
O986 O 0.79822 0.11858 0.65313 0.0
O987 O 0.83497 0.11377 0.67164 0.0
O988 O 0.88974 0.17499 0.67538 0.0
O989 O 0.86251 0.16384 0.64717 0.0
C990 C 0.78156 0.15082 0.68928 0.0
O991 O 0.84266 0.11919 0.70982 0.0
O992 O 0.88169 0.16758 0.71488 0.0
C993 C 0.81548 0.18583 0.60567 0.0
C994 C 0.83532 0.1847 0.57051 0.0
C995 C 0.82232 0.20399 0.57538 0.0
C996 C 0.81258 0.20462 0.59286 0.0
C997 C 0.82815 0.16634 0.60082 0.0
C998 C 0.83786 0.16569 0.58338 0.0
C999 C 0.80743 0.18819 0.62441 0.0
H1000 H 0.86063 0.11516 0.7813 0.0
H1001 H 0.87702 0.11441 0.75048 0.0
H1002 H 0.83217 0.16767 0.73408 0.0
H1003 H 0.81654 0.16936 0.76499 0.0
H1004 H 0.81937 0.21834 0.56563 0.0
H1005 H 0.80301 0.21993 0.59641 0.0
H1006 H 0.83082 0.15185 0.61058 0.0
H1007 H 0.84771 0.15057 0.58001 0.0
C1008 C 0.37738 0.931 0.04761 0.0
C1009 C 0.36542 0.8981 0.04739 0.0
C1010 C 0.40372 0.95023 0.03814 0.0
C1011 C 0.41926 0.9374 0.028 0.0
H1012 H 0.36615 0.94199 0.0551 0.0
H1013 H 0.41206 0.97548 0.03887 0.0
S1014 S 0.39828 0.85278 0.02377 0.0
N1015 N 0.37171 0.85355 0.03668 0.0
N1016 N 0.42114 0.8897 0.01874 0.0
C1017 C 0.40747 0.90448 0.02758 0.0
C1018 C 0.38063 0.88486 0.03731 0.0
C1019 C 0.09402 0.47301 0.06216 0.0
C1020 C 0.10932 0.4594 0.05257 0.0
C1021 C 0.07252 0.48022 0.0531 0.0
C1022 C 0.06534 0.47406 0.03407 0.0
H1023 H 0.09912 0.47866 0.07676 0.0
H1024 H 0.0617 0.49101 0.06115 0.0
S1025 S 0.09726 0.4362 1.00287 0.0
N1026 N 0.1145 0.43831 0.02316 0.0
N1027 N 0.0744 0.45201 1.00608 0.0
C1028 C 0.08012 0.4599 0.02436 0.0
C1029 C 0.102 0.45256 0.03361 0.0
C1030 C 0.57513 0.63618 0.05031 0.0
C1031 C 0.5665 0.65681 0.0424 0.0
C1032 C 0.56242 0.60475 0.04288 0.0
C1033 C 0.54117 0.59293 0.02703 0.0
H1034 H 0.59166 0.64427 0.06246 0.0
H1035 H 0.56935 0.58959 0.0496 0.0
S1036 S 0.51039 0.63657 1.00109 0.0
N1037 N 0.53451 0.66262 0.01799 0.0
N1038 N 0.51189 0.60384 1.00357 0.0
C1039 C 0.53288 0.61332 0.01866 0.0
C1040 C 0.54528 0.64521 0.02644 0.0
C1041 C 0.90905 0.37216 0.95461 0.0
C1042 C 0.89853 0.34471 0.96391 0.0
C1043 C 0.93065 0.40242 0.96331 0.0
C1044 C 0.94246 0.4063 0.98164 0.0
H1045 H 0.89998 0.37032 0.94062 0.0
H1046 H 0.93757 0.42292 0.9557 0.0
S1047 S 0.92486 0.34144 0.01135 0.0
N1048 N 0.90336 0.32298 0.99191 0.0
N1049 N 0.94368 0.37971 0.00838 0.0
C1050 C 0.93279 0.37887 0.99091 0.0
C1051 C 0.91088 0.34812 0.98203 0.0
C1052 C 0.64296 0.54625 0.98166 0.0
C1053 C 0.64084 0.53539 0.96328 0.0
C1054 C 0.61535 0.5376 0.99082 0.0
C1055 C 0.58444 0.51769 0.98198 0.0
H1056 H 0.66619 0.56188 0.98899 0.0
H1057 H 0.61833 0.54699 1.00486 0.0
S1058 S 0.56591 0.4804 0.93435 0.0
N1059 N 0.60539 0.50207 0.93693 0.0
N1060 N 0.55361 0.48584 0.95395 0.0
C1061 C 0.58205 0.50619 0.96367 0.0
C1062 C 0.61016 0.51505 0.95438 0.0
C1063 C 0.43213 0.06126 0.96963 0.0
C1064 C 0.44967 0.09466 0.9717 0.0
C1065 C 0.44404 0.04341 0.97762 0.0
C1066 C 0.47395 0.05829 0.988 0.0
H1067 H 0.40886 0.0488 0.96192 0.0
H1068 H 0.4295 0.01771 0.97569 0.0
S1069 S 0.5302 0.14532 0.99638 0.0
N1070 N 0.49905 0.14207 0.98407 0.0
N1071 N 0.52146 0.10855 0.99924 0.0
C1072 C 0.49188 0.09175 0.99005 0.0
C1073 C 0.47974 0.10992 0.98186 0.0
C1074 C 0.64851 0.084 0.98393 0.0
C1075 C 0.64687 0.09598 0.96722 0.0
C1076 C 0.62105 0.06726 0.99327 0.0
C1077 C 0.59103 0.06197 0.98623 0.0
H1078 H 0.67106 0.08702 0.98962 0.0
H1079 H 0.62318 0.05757 1.00576 0.0
S1080 S 0.57495 0.0925 0.94438 0.0
N1081 N 0.61346 0.10411 0.94503 0.0
N1082 N 0.56202 0.07284 0.96246 0.0
C1083 C 0.58941 0.07501 0.96993 0.0
C1084 C 0.61726 0.09192 0.96045 0.0
C1085 C 0.88385 0.51067 0.97335 0.0
C1086 C 0.89457 0.53501 0.96155 0.0
C1087 C 0.90516 0.50332 0.98249 0.0
C1088 C 0.93819 0.51995 0.98022 0.0
H1089 H 0.85865 0.49694 0.97546 0.0
H1090 H 0.89551 0.48431 0.99136 0.0
S1091 S 0.97874 0.58652 0.95116 0.0
N1092 N 0.94061 0.57636 0.94846 0.0
N1093 N 0.98059 0.56225 0.96526 0.0
C1094 C 0.94926 0.54433 0.96839 0.0
C1095 C 0.92751 0.55189 0.95914 0.0
C1096 C 0.42049 0.35391 0.97572 0.0
C1097 C 0.43883 0.3389 0.97681 0.0
C1098 C 0.43285 0.38529 0.98318 0.0
C1099 C 0.46411 0.40291 0.99196 0.0
H1100 H 0.39643 0.34134 0.96895 0.0
H1101 H 0.41782 0.39585 0.98185 0.0
S1102 S 0.52203 0.37433 0.9981 0.0
N1103 N 0.4898 0.34382 0.98709 0.0
N1104 N 0.5131 0.40272 1.00132 0.0
C1105 C 0.48256 0.38794 0.99335 0.0
C1106 C 0.4699 0.35596 0.98573 0.0
C1107 C 0.1195 0.63205 0.0399 0.0
C1108 C 0.1093 0.65032 0.04984 0.0
C1109 C 0.09745 0.60181 0.03144 0.0
C1110 C 0.06427 0.58857 0.03261 0.0
H1111 H 0.14482 0.641 0.03887 0.0
H1112 H 0.10662 0.5886 0.02412 0.0
S1113 S 0.02515 0.62782 0.05608 0.0
N1114 N 0.06386 0.65386 0.05966 0.0
N1115 N 0.02227 0.59684 0.04396 0.0
C1116 C 0.05371 0.60681 0.04235 0.0
C1117 C 0.07624 0.63769 0.05092 0.0
C1118 C 0.36595 0.46993 0.03715 0.0
C1119 C 0.36545 0.46483 0.05577 0.0
C1120 C 0.39309 0.47739 0.02777 0.0
C1121 C 0.42086 0.4798 0.03654 0.0
H1122 H 0.34499 0.46772 0.02964 0.0
H1123 H 0.39204 0.48076 0.01344 0.0
S1124 S 0.4329 0.47091 0.0855 0.0
N1125 N 0.39606 0.46472 0.08286 0.0
N1126 N 0.44655 0.47776 0.06524 0.0
C1127 C 0.42081 0.47507 0.05521 0.0
C1128 C 0.3933 0.46781 0.06479 0.0
C1129 C 0.56765 0.91431 0.02714 0.0
C1130 C 0.56162 0.9048 0.04483 0.0
C1131 C 0.55452 0.93142 0.01937 0.0
C1132 C 0.53487 0.93956 0.02902 0.0
H1133 H 0.58315 0.90905 0.01939 0.0
H1134 H 0.56046 0.93894 1.00589 0.0
S1135 S 0.50892 0.91696 0.07506 0.0
N1136 N 0.5327 0.90243 0.07119 0.0
N1137 N 0.50811 0.93458 0.05676 0.0
C1138 C 0.52783 0.9292 0.04652 0.0
C1139 C 0.5412 0.91185 0.05438 0.0
C1140 C 0.03333 0.24445 0.36395 0.0
C1141 C 0.03442 0.2356 0.38168 0.0
C1142 C 0.06142 0.26127 0.35516 0.0
C1143 C 0.09162 0.26976 0.36378 0.0
H1144 H 0.01065 0.23892 0.35696 0.0
H1145 H 0.05951 0.26843 0.34175 0.0
S1146 S 0.10682 0.24856 0.40933 0.0
N1147 N 0.06772 0.2341 0.40688 0.0
N1148 N 0.12042 0.2655 0.39052 0.0
C1149 C 0.0928 0.25992 0.38126 0.0
C1150 C 0.06426 0.24294 0.39017 0.0
C1151 C 0.78626 0.81938 0.37566 0.0
C1152 C 0.77531 0.79401 0.38675 0.0
C1153 C 0.76494 0.82656 0.36638 0.0
C1154 C 0.73168 0.80875 0.36781 0.0
H1155 H 0.81165 0.83412 0.37428 0.0
H1156 H 0.77478 0.84653 0.35818 0.0
S1157 S 0.69046 0.73878 0.39444 0.0
N1158 N 0.72883 0.75017 0.39804 0.0
N1159 N 0.68877 0.76388 0.38093 0.0
C1160 C 0.72035 0.78314 0.3788 0.0
C1161 C 0.74212 0.77576 0.38819 0.0
C1162 C 0.22949 0.97854 0.36222 0.0
C1163 C 0.22416 0.98457 0.38016 0.0
C1164 C 0.21786 0.94735 0.35453 0.0
C1165 C 0.20045 0.92111 0.36452 0.0
H1166 H 0.24325 0.9981 0.35418 0.0
H1167 H 0.22303 0.94385 0.34078 0.0
S1168 S 0.17727 0.92427 0.41146 0.0
N1169 N 0.19846 0.96189 0.40726 0.0
N1170 N 0.17662 0.90332 0.39294 0.0
C1171 C 0.19426 0.92688 0.38234 0.0
C1172 C 0.20611 0.95859 0.39013 0.0
C1173 C 0.59743 0.69834 0.29831 0.0
C1174 C 0.56403 0.68538 0.29734 0.0
C1175 C 0.61832 0.72903 0.30668 0.0
C1176 C 0.60652 0.74779 0.31442 0.0
H1177 H 0.60748 0.68442 0.29289 0.0
H1178 H 0.64386 0.73778 0.30743 0.0
S1179 S 0.52104 0.72599 0.31357 0.0
N1180 N 0.52015 0.69445 0.30343 0.0
N1181 N 0.55927 0.75198 0.31933 0.0
C1182 C 0.57315 0.7354 0.31305 0.0
C1183 C 0.55195 0.70422 0.30448 0.0
C1184 C 0.28074 0.85237 0.29086 0.0
C1185 C 0.31144 0.87227 0.29986 0.0
C1186 C 0.25301 0.84288 0.29996 0.0
C1187 C 0.25467 0.85296 0.31847 0.0
H1188 H 0.27808 0.84359 0.27672 0.0
H1189 H 0.23005 0.82733 0.29234 0.0
S1190 S 0.32939 0.90685 0.34797 0.0
N1191 N 0.34194 0.90284 0.32815 0.0
N1192 N 0.28991 0.88494 0.34528 0.0
C1193 C 0.28528 0.87308 0.32761 0.0
C1194 C 0.31357 0.88275 0.31831 0.0
C1195 C 0.12712 0.43135 0.32124 0.0
C1196 C 0.10964 0.42085 0.30398 0.0
C1197 C 0.13974 0.4141 0.32936 0.0
C1198 C 0.1358 0.38604 0.32037 0.0
H1199 H 0.13171 0.45346 0.32839 0.0
H1200 H 0.15346 0.42329 0.34251 0.0
S1201 S 0.08939 0.34648 0.2759 0.0
N1202 N 0.08669 0.37887 0.27899 0.0
N1203 N 0.11154 0.34729 0.29389 0.0
C1204 C 0.11784 0.37488 0.30332 0.0
C1205 C 0.10452 0.39208 0.29521 0.0
C1206 C 0.31587 0.42801 0.31836 0.0
C1207 C 0.31312 0.4362 0.30061 0.0
C1208 C 0.28863 0.41029 0.32765 0.0
C1209 C 0.25783 0.40022 0.31948 0.0
H1210 H 0.3392 0.43474 0.32494 0.0
H1211 H 0.2916 0.40355 0.34102 0.0
S1212 S 0.23773 0.41853 0.27439 0.0
N1213 N 0.27715 0.43518 0.27604 0.0
N1214 N 0.22604 0.40141 0.2934 0.0
C1215 C 0.25476 0.409 0.30206 0.0
C1216 C 0.28239 0.42712 0.29264 0.0
C1217 C 0.58061 0.86242 0.28766 0.0
C1218 C 0.56767 0.87883 0.29692 0.0
C1219 C 0.60246 0.85565 0.29671 0.0
C1220 C 0.61224 0.86503 0.3154 0.0
H1221 H 0.57318 0.85404 0.2734 0.0
H1222 H 0.61119 0.84236 0.28904 0.0
S1223 S 0.58797 0.91174 0.34534 0.0
N1224 N 0.56814 0.90655 0.32541 0.0
N1225 N 0.60887 0.89368 0.3425 0.0
C1226 C 0.6002 0.88235 0.32467 0.0
C1227 C 0.57801 0.88927 0.31543 0.0
C1228 C 0.08654 0.68455 0.3099 0.0
C1229 C 0.10473 0.66934 0.31068 0.0
C1230 C 0.0996 0.71632 0.31681 0.0
C1231 C 0.13138 0.73412 0.3248 0.0
H1232 H 0.06204 0.67184 0.30375 0.0
H1233 H 0.08463 0.727 0.31578 0.0
S1234 S 0.18928 0.70533 0.32982 0.0
N1235 N 0.15624 0.67442 0.31978 0.0
N1236 N 0.18078 0.73404 0.33304 0.0
C1237 C 0.14972 0.71902 0.32591 0.0
C1238 C 0.1364 0.68665 0.3188 0.0
C1239 C 0.77055 0.98203 0.3668 0.0
C1240 C 0.78022 0.98731 0.38552 0.0
C1241 C 0.74884 0.95147 0.35863 0.0
C1242 C 0.73592 0.92495 0.36888 0.0
H1243 H 0.77955 0.00177 0.35841 0.0
H1244 H 0.74198 0.94877 0.34418 0.0
S1245 S 0.75524 0.92597 0.4183 0.0
N1246 N 0.77653 0.96352 0.41399 0.0
N1247 N 0.73544 0.90599 0.39875 0.0
C1248 C 0.74568 0.92989 0.38763 0.0
C1249 C 0.76787 0.96108 0.39592 0.0
C1250 C 0.02909 0.79411 0.36732 0.0
C1251 C 0.03049 0.79625 0.38651 0.0
C1252 C 0.05637 0.8013 0.35812 0.0
C1253 C 0.086 0.81054 0.36774 0.0
H1254 H 0.00662 0.78637 0.35933 0.0
H1255 H 0.05407 0.79894 0.34338 0.0
S1256 S 0.10354 0.82354 0.41792 0.0
N1257 N 0.06492 0.81122 0.41469 0.0
N1258 N 0.11574 0.82374 0.39745 0.0
C1259 C 0.08791 0.81342 0.38687 0.0
C1260 C 0.06031 0.8065 0.39623 0.0
C1261 C 0.20585 0.22841 0.36629 0.0
C1262 C 0.23582 0.24242 0.3765 0.0
C1263 C 0.19517 0.24709 0.35803 0.0
C1264 C 0.21405 0.28049 0.35973 0.0
H1265 H 0.19012 0.20283 0.36507 0.0
H1266 H 0.17153 0.23525 0.35074 0.0
S1267 S 0.29601 0.32853 0.38332 0.0
N1268 N 0.28535 0.29141 0.38659 0.0
N1269 N 0.26531 0.32665 0.37126 0.0
C1270 C 0.24457 0.29473 0.3694 0.0
C1271 C 0.25543 0.27567 0.37775 0.0
C1272 C 0.7037 0.56225 0.6994 0.0
C1273 C 0.69867 0.57554 0.71552 0.0
C1274 C 0.73101 0.57971 0.69005 0.0
C1275 C 0.75438 0.6109 0.69664 0.0
H1276 H 0.68691 0.53783 0.69425 0.0
H1277 H 0.73448 0.56834 0.67805 0.0
S1278 S 0.75095 0.6582 0.73674 0.0
N1279 N 0.71804 0.62318 0.73638 0.0
N1280 N 0.76959 0.65538 0.71925 0.0
C1281 C 0.74909 0.62485 0.71229 0.0
C1282 C 0.72124 0.60734 0.72163 0.0
C1283 C 0.45647 0.15542 0.70994 0.0
C1284 C 0.44523 0.12962 0.72072 0.0
C1285 C 0.43537 0.16303 0.70081 0.0
C1286 C 0.40206 0.14523 0.70208 0.0
H1287 H 0.48191 0.17012 0.70869 0.0
H1288 H 0.44539 0.18328 0.69282 0.0
S1289 S 0.36015 0.07424 0.72785 0.0
N1290 N 0.39845 0.08542 0.73154 0.0
N1291 N 0.35879 0.09992 0.71469 0.0
C1292 C 0.39045 0.11923 0.71277 0.0
C1293 C 0.41199 0.11141 0.72201 0.0
C1294 C 0.90041 0.31139 0.6951 0.0
C1295 C 0.89768 0.31762 0.71352 0.0
C1296 C 0.88857 0.28023 0.6874 0.0
C1297 C 0.87345 0.25411 0.69781 0.0
H1298 H 0.91191 0.33078 0.6866 0.0
H1299 H 0.89129 0.27669 0.67314 0.0
S1300 S 0.85923 0.25789 0.74661 0.0
N1301 N 0.87805 0.29536 0.7419 0.0
N1302 N 0.85597 0.23673 0.72755 0.0
C1303 C 0.87059 0.26009 0.7163 0.0
C1304 C 0.88267 0.29186 0.72412 0.0
C1305 C 0.22341 0.03768 0.64104 0.0
C1306 C 0.2343 0.01959 0.63156 0.0
C1307 C 0.24493 0.06804 0.64954 0.0
C1308 C 0.27826 0.08159 0.64891 0.0
H1309 H 0.19796 0.02841 0.64174 0.0
H1310 H 0.23522 0.08101 0.65659 0.0
S1311 S 0.31911 0.04324 0.62645 0.0
N1312 N 0.28055 0.01678 0.62252 0.0
N1313 N 0.32113 0.07406 0.63828 0.0
C1314 C 0.2895 0.06369 0.63948 0.0
C1315 C 0.26751 0.03267 0.63086 0.0
C1316 C 0.97696 0.20864 0.64858 0.0
C1317 C 0.97548 0.19851 0.63012 0.0
C1318 C 0.94896 0.19936 0.65749 0.0
C1319 C 0.91833 0.17954 0.64832 0.0
H1320 H 0.99996 0.22435 0.65613 0.0
H1321 H 0.95138 0.2084 0.67156 0.0
S1322 S 0.90149 0.14346 0.60049 0.0
N1323 N 0.94093 0.16549 0.60345 0.0
N1324 N 0.88849 0.14813 0.62 0.0
C1325 C 0.91661 0.16849 0.62999 0.0
C1326 C 0.94508 0.17796 0.62096 0.0
C1327 C 0.79767 0.74711 0.62834 0.0
C1328 C 0.77903 0.75661 0.63793 0.0
C1329 C 0.81107 0.73067 0.63653 0.0
C1330 C 0.80634 0.72309 0.65466 0.0
H1331 H 0.80236 0.75285 0.61446 0.0
H1332 H 0.82538 0.72401 0.62857 0.0
S1333 S 0.75745 0.74091 0.68521 0.0
N1334 N 0.75514 0.75608 0.66615 0.0
N1335 N 0.78044 0.72534 0.6817 0.0
C1336 C 0.78737 0.73218 0.66434 0.0
C1337 C 0.7737 0.74889 0.65595 0.0
C1338 C 0.96806 0.77934 0.64572 0.0
C1339 C 0.98226 0.76586 0.6349 0.0
C1340 C 0.9415 0.76035 0.65521 0.0
C1341 C 0.92804 0.72712 0.65422 0.0
H1342 H 0.97718 0.80475 0.64658 0.0
H1343 H 0.93098 0.77176 0.66299 0.0
S1344 S 0.95829 0.68047 0.62924 0.0
N1345 N 0.98234 0.71754 0.62489 0.0
N1346 N 0.93236 0.6818 0.64242 0.0
C1347 C 0.94256 0.71345 0.64381 0.0
C1348 C 0.96962 0.7328 0.63422 0.0
C1349 C 0.24414 0.2182 0.64789 0.0
C1350 C 0.2358 0.21067 0.62902 0.0
C1351 C 0.26614 0.21157 0.65683 0.0
C1352 C 0.28075 0.19708 0.6473 0.0
H1353 H 0.23365 0.22947 0.65582 0.0
H1354 H 0.27162 0.21785 0.67138 0.0
S1355 S 0.26617 0.17158 0.59771 0.0
N1356 N 0.2432 0.18722 0.60111 0.0
N1357 N 0.28477 0.17501 0.61778 0.0
C1358 C 0.27269 0.18953 0.62836 0.0
C1359 C 0.25022 0.19627 0.61927 0.0
C1360 C 0.77301 0.02763 0.62636 0.0
C1361 C 0.77036 0.00401 0.63749 0.0
C1362 C 0.78543 0.05917 0.63361 0.0
C1363 C 0.79606 0.06824 0.65215 0.0
H1364 H 0.76618 0.02188 0.61187 0.0
H1365 H 0.78755 0.07673 0.62454 0.0
S1366 S 0.79101 0.01515 0.68745 0.0
N1367 N 0.77659 0.99149 0.66833 0.0
N1368 N 0.8011 0.05107 0.68176 0.0
C1369 C 0.79288 0.04486 0.66351 0.0
C1370 C 0.77973 0.01267 0.65622 0.0
C1371 C 0.42256 0.30283 0.72661 0.0
C1372 C 0.45211 0.32216 0.71957 0.0
C1373 C 0.40048 0.2726 0.71806 0.0
C1374 C 0.40693 0.26079 0.70201 0.0
H1375 H 0.41622 0.31127 0.73869 0.0
H1376 H 0.37795 0.25865 0.72387 0.0
S1377 S 0.48182 0.3004 0.67895 0.0
N1378 N 0.48756 0.326 0.69636 0.0
N1379 N 0.44553 0.26974 0.67995 0.0
C1380 C 0.43646 0.27959 0.69493 0.0
C1381 C 0.45916 0.31013 0.70379 0.0
C1382 C 0.71356 0.11283 0.72007 0.0
C1383 C 0.69906 0.13166 0.7192 0.0
C1384 C 0.74 0.11916 0.71031 0.0
C1385 C 0.75311 0.14457 0.69919 0.0
H1386 H 0.70405 0.09265 0.72811 0.0
H1387 H 0.75003 0.10373 0.7114 0.0
S1388 S 0.72577 0.20286 0.69356 0.0
N1389 N 0.70114 0.17814 0.70729 0.0
N1390 N 0.75042 0.18978 0.68878 0.0
C1391 C 0.73916 0.16394 0.69846 0.0
C1392 C 0.7123 0.15756 0.70848 0.0
C1393 C 0.88336 0.56528 0.69275 0.0
C1394 C 0.8881 0.56627 0.71182 0.0
C1395 C 0.87252 0.58413 0.6848 0.0
C1396 C 0.86649 0.60481 0.69567 0.0
H1397 H 0.88884 0.55046 0.68392 0.0
H1398 H 0.86993 0.58336 0.6701 0.0
S1399 S 0.87078 0.61308 0.74608 0.0
N1400 N 0.88234 0.58703 0.74124 0.0
N1401 N 0.8632 0.62322 0.72628 0.0
C1402 C 0.87002 0.60519 0.71468 0.0
C1403 C 0.88054 0.58574 0.72276 0.0
C1404 C 0.4861 0.99827 0.16255 0.0
C1405 C 0.47617 0.96607 0.16422 0.0
C1406 C 0.49488 0.01152 0.1459 0.0
C1407 C 0.49389 0.99305 0.13022 0.0
H1408 H 0.488 0.01356 0.17434 0.0
H1409 H 0.50327 0.03663 0.14543 0.0
S1410 S 0.46563 0.9065 0.12693 0.0
N1411 N 0.46347 0.91548 0.1485 0.0
N1412 N 0.47921 0.94004 0.11719 0.0
C1413 C 0.48279 0.9605 0.1316 0.0
C1414 C 0.47412 0.94712 0.14857 0.0
C1415 C 0.98284 0.46854 0.15986 0.0
C1416 C 0.00698 0.49794 0.16854 0.0
C1417 C 0.97318 0.46527 0.14128 0.0
C1418 C 0.98757 0.49121 0.1307 0.0
H1419 H 0.97105 0.44803 0.16756 0.0
H1420 H 0.95455 0.4422 0.1351 0.0
S1421 S 0.05221 0.57312 0.1469 0.0
N1422 N 0.04548 0.55329 0.16511 0.0
N1423 N 0.02699 0.54727 0.13026 0.0
C1424 C 0.01184 0.52068 0.1392 0.0
C1425 C 0.0216 0.52403 0.1581 0.0
C1426 C 0.47477 0.47056 0.15538 0.0
C1427 C 0.48787 0.4999 0.16599 0.0
C1428 C 0.4838 0.4688 0.13776 0.0
C1429 C 0.506 0.49634 0.13005 0.0
H1430 H 0.45793 0.44877 0.16088 0.0
H1431 H 0.47322 0.44572 0.13007 0.0
S1432 S 0.54625 0.57905 0.15198 0.0
N1433 N 0.52315 0.55722 0.16723 0.0
N1434 N 0.54061 0.55381 0.1344 0.0
C1435 C 0.51885 0.52583 0.14044 0.0
C1436 C 0.50968 0.52763 0.15832 0.0
C1437 C 0.02435 0.53391 0.85685 0.0
C1438 C 0.99873 0.5051 0.84849 0.0
C1439 C 0.03308 0.53764 0.87561 0.0
C1440 C 0.01614 0.51286 0.88663 0.0
H1441 H 0.03814 0.5534 0.84878 0.0
H1442 H 0.05319 0.56005 0.88156 0.0
S1443 S 0.94654 0.43318 0.87132 0.0
N1444 N 0.95597 0.45177 0.85263 0.0
N1445 N 0.97245 0.45872 0.88783 0.0
C1446 C 0.99014 0.48418 0.87844 0.0
C1447 C 0.98143 0.4803 0.85938 0.0
C1448 C 0.54339 0.49713 0.86964 0.0
C1449 C 0.53957 0.51201 0.8547 0.0
C1450 C 0.53313 0.50076 0.88656 0.0
C1451 C 0.51826 0.51906 0.88914 0.0
H1452 H 0.55397 0.48216 0.86815 0.0
H1453 H 0.53587 0.48824 0.89754 0.0
S1454 S 0.50362 0.5638 0.85457 0.0
N1455 N 0.52076 0.54649 0.84372 0.0
N1456 N 0.50138 0.55324 0.87555 0.0
C1457 C 0.51492 0.53462 0.87444 0.0
C1458 C 0.52567 0.53118 0.85724 0.0
C1459 C 0.51232 0.03979 0.86439 0.0
C1460 C 0.52861 0.03089 0.85221 0.0
C1461 C 0.50451 0.02674 0.88114 0.0
C1462 C 0.5125 0.00406 0.88648 0.0
H1463 H 0.5056 0.05716 0.86098 0.0
H1464 H 0.49167 0.0342 0.88988 0.0
S1465 S 0.55579 0.97298 0.85981 0.0
N1466 N 0.55246 0.99781 0.84676 0.0
N1467 N 0.53867 0.97405 0.8784 0.0
C1468 C 0.52911 0.99517 0.87454 0.0
C1469 C 0.53702 0.00843 0.85743 0.0
C1470 C 0.13121 0.29511 0.48435 0.0
C1471 C 0.15183 0.31052 0.5003 0.0
C1472 C 0.13932 0.30744 0.4674 0.0
C1473 C 0.16816 0.33593 0.46579 0.0
H1474 H 0.10899 0.27293 0.48489 0.0
H1475 H 0.12284 0.29462 0.45546 0.0
S1476 S 0.22995 0.38593 0.50354 0.0
N1477 N 0.20193 0.35624 0.51345 0.0
N1478 N 0.21723 0.37922 0.48171 0.0
C1479 C 0.1887 0.35181 0.48169 0.0
C1480 C 0.18055 0.33916 0.49889 0.0
C1481 C 0.66784 0.84422 0.4932 0.0
C1482 C 0.65871 0.81679 0.50237 0.0
C1483 C 0.65956 0.842 0.47454 0.0
C1484 C 0.64205 0.81229 0.46432 0.0
H1485 H 0.68188 0.86768 0.50045 0.0
H1486 H 0.6673 0.86374 0.468 0.0
S1487 S 0.6108 0.73326 0.48187 0.0
N1488 N 0.62996 0.75892 0.4999 0.0
N1489 N 0.61487 0.75483 0.46466 0.0
C1490 C 0.63264 0.78465 0.47324 0.0
C1491 C 0.64088 0.78688 0.49231 0.0
C1492 C 0.13286 0.82352 0.48521 0.0
C1493 C 0.15106 0.82329 0.50059 0.0
C1494 C 0.14144 0.82102 0.46758 0.0
C1495 C 0.16831 0.81783 0.46466 0.0
H1496 H 0.11249 0.82677 0.48682 0.0
H1497 H 0.12705 0.82185 0.45616 0.0
S1498 S 0.22284 0.81422 0.50042 0.0
N1499 N 0.19629 0.81819 0.51178 0.0
N1500 N 0.21253 0.81371 0.47869 0.0
C1501 C 0.18612 0.81659 0.47993 0.0
C1502 C 0.17749 0.81931 0.49786 0.0
C1503 C 0.65555 0.81374 0.19274 0.0
C1504 C 0.66979 0.83964 0.18212 0.0
C1505 C 0.66457 0.81726 0.21141 0.0
C1506 C 0.68834 0.84677 0.22016 0.0
H1507 H 0.63712 0.79055 0.18658 0.0
H1508 H 0.65312 0.79659 0.21901 0.0
S1509 S 0.73275 0.92212 0.19856 0.0
N1510 N 0.70884 0.89581 0.18171 0.0
N1511 N 0.72544 0.90257 0.21691 0.0
C1512 C 0.70266 0.87293 0.20974 0.0
C1513 C 0.69341 0.86936 0.19071 0.0
C1514 C 0.19911 0.86151 0.19077 0.0
C1515 C 0.20629 0.83739 0.18642 0.0
C1516 C 0.18985 0.8653 0.20805 0.0
C1517 C 0.188 0.84543 0.22164 0.0
H1518 H 0.19954 0.8768 0.18056 0.0
H1519 H 0.18384 0.8837 0.21077 0.0
S1520 S 0.20569 0.7796 0.21725 0.0
N1521 N 0.21197 0.79411 0.19724 0.0
N1522 N 0.19471 0.80123 0.22963 0.0
C1523 C 0.19602 0.82185 0.21758 0.0
C1524 C 0.20512 0.81783 0.2 0.0
C1525 C 0.19486 0.33597 0.19017 0.0
C1526 C 0.18578 0.35772 0.1845 0.0
C1527 C 0.18758 0.32345 0.20712 0.0
C1528 C 0.17113 0.33234 0.21919 0.0
H1529 H 0.20741 0.32827 0.18135 0.0
H1530 H 0.1953 0.30699 0.21091 0.0
S1531 S 0.14222 0.38875 0.21096 0.0
N1532 N 0.15998 0.3881 0.19257 0.0
N1533 N 0.1455 0.36394 0.22403 0.0
C1534 C 0.16189 0.35406 0.21366 0.0
C1535 C 0.16936 0.36684 0.19645 0.0
C1536 C 0.8444 0.66104 0.82929 0.0
C1537 C 0.81268 0.63775 0.83176 0.0
C1538 C 0.85262 0.67458 0.81271 0.0
C1539 C 0.82953 0.66529 0.79779 0.0
H1540 H 0.86313 0.66892 0.84031 0.0
H1541 H 0.87744 0.69203 0.81146 0.0
S1542 S 0.74288 0.6058 0.79714 0.0
N1543 N 0.75796 0.6062 0.81779 0.0
N1544 N 0.77325 0.63206 0.78678 0.0
C1545 C 0.79761 0.64235 0.80012 0.0
C1546 C 0.78923 0.62858 0.81704 0.0
C1547 C 0.31512 0.13609 0.82717 0.0
C1548 C 0.34369 0.16297 0.83486 0.0
C1549 C 0.30511 0.13289 0.80864 0.0
C1550 C 0.32338 0.15647 0.79725 0.0
H1551 H 0.29999 0.11789 0.83564 0.0
H1552 H 0.28255 0.11226 0.80329 0.0
S1553 S 0.40206 0.22921 0.81033 0.0
N1554 N 0.39146 0.21207 0.82942 0.0
N1555 N 0.37273 0.20602 0.79459 0.0
C1556 C 0.35259 0.1828 0.80465 0.0
C1557 C 0.36273 0.18605 0.82346 0.0
C1558 C 0.78967 0.14131 0.81534 0.0
C1559 C 0.81264 0.15224 0.83042 0.0
C1560 C 0.79776 0.13777 0.79769 0.0
C1561 C 0.82903 0.14471 0.79453 0.0
H1562 H 0.76559 0.13651 0.81709 0.0
H1563 H 0.77949 0.12983 0.78641 0.0
S1564 S 0.89743 0.17249 0.82966 0.0
N1565 N 0.86745 0.16844 0.84121 0.0
N1566 N 0.88279 0.16232 0.80813 0.0
C1567 C 0.85191 0.15475 0.80961 0.0
C1568 C 0.84369 0.1584 0.82752 0.0
C1569 C 0.36155 0.1695 0.52237 0.0
C1570 C 0.3355 0.17305 0.51638 0.0
C1571 C 0.37142 0.17306 0.54093 0.0
C1572 C 0.35541 0.18003 0.5542 0.0
H1573 H 0.37436 0.16381 0.51261 0.0
H1574 H 0.39133 0.16971 0.54494 0.0
S1575 S 0.28634 0.19251 0.54567 0.0
N1576 N 0.2941 0.1843 0.5252 0.0
N1577 N 0.31302 0.19155 0.56009 0.0
C1578 C 0.32964 0.18413 0.5484 0.0
C1579 C 0.31965 0.18059 0.5295 0.0
C1580 C 0.84335 0.15157 0.52457 0.0
C1581 C 0.86238 0.17898 0.51578 0.0
C1582 C 0.83502 0.15373 0.54224 0.0
C1583 C 0.84527 0.18341 0.55189 0.0
H1584 H 0.83474 0.12813 0.51769 0.0
H1585 H 0.81995 0.13191 0.54829 0.0
S1586 S 0.8965 0.26248 0.53533 0.0
N1587 N 0.89172 0.2368 0.51818 0.0
N1588 N 0.87654 0.24093 0.55161 0.0
C1589 C 0.86475 0.21108 0.54341 0.0
C1590 C 0.87329 0.20886 0.52535 0.0
C1591 C 0.85314 0.71145 0.53284 0.0
C1592 C 0.862 0.69738 0.51881 0.0
C1593 C 0.84643 0.69895 0.5498 0.0
C1594 C 0.84793 0.6716 0.55341 0.0
H1595 H 0.85149 0.73244 0.53071 0.0
H1596 H 0.83944 0.71049 0.56007 0.0
S1597 S 0.87029 0.62588 0.52145 0.0
N1598 N 0.87198 0.65455 0.50978 0.0
N1599 N 0.85974 0.63131 0.54165 0.0
C1600 C 0.85698 0.65742 0.53957 0.0
C1601 C 0.86398 0.67026 0.52232 0.0
loop_
_geom_bond_atom_site_label_1
_geom_bond_atom_site_label_2
_geom_bond_distance
_geom_bond_site_symmetry_2
_ccdc_geom_bond_type
C0 C1 1.384 . S
C0 H13 0.947 . S
C0 C35 1.382 . S
C1 C0 1.384 . S
C1 C2 1.378 . S
C2 C1 1.378 . S
C2 C3 1.378 . S
C2 H14 0.952 . S
C3 C2 1.378 . S
C3 H15 0.950 . S
C3 C34 1.383 . S
H4 C23 0.947 . S
H5 C24 0.946 . S
H6 C26 0.953 . S
H7 C27 0.945 . S
H8 C29 0.952 . S
H9 C30 0.949 . S
H10 C32 0.950 . S
H11 C33 0.948 . S
H12 C35 0.951 . S
H13 C0 0.947 . S
H14 C2 0.952 . S
H15 C3 0.950 . S
N16 C19 1.382 . S
N16 C21 1.363 . S
N17 C19 1.371 . S
N17 C20 1.372 . S
N18 C20 1.361 . S
N18 C21 1.377 . S
C19 N16 1.382 . S
C19 N17 1.371 . S
C19 C22 1.480 . S
C20 N17 1.372 . S
C20 N18 1.361 . S
C20 C28 1.457 . S
C21 N16 1.363 . S
C21 N18 1.377 . S
C21 C34 1.479 . S
C22 C19 1.480 . S
C22 C23 1.383 . S
C22 C27 1.385 . S
C23 H4 0.947 . S
C23 C22 1.383 . S
C23 C24 1.388 . S
C24 H5 0.946 . S
C24 C23 1.388 . S
C24 C25 1.384 . S
C25 C24 1.384 . S
C25 C26 1.377 . S
C26 H6 0.953 . S
C26 C25 1.377 . S
C26 C27 1.369 . S
C27 H7 0.945 . S
C27 C22 1.385 . S
C27 C26 1.369 . S
C28 C20 1.457 . S
C28 C29 1.372 . S
C28 C33 1.364 . S
C29 H8 0.952 . S
C29 C28 1.372 . S
C29 C30 1.389 . S
C30 H9 0.949 . S
C30 C29 1.389 . S
C30 C31 1.387 . S
C31 C30 1.387 . S
C31 C32 1.372 . S
C32 H10 0.950 . S
C32 C31 1.372 . S
C32 C33 1.379 . S
C33 H11 0.948 . S
C33 C28 1.364 . S
C33 C32 1.379 . S
C34 C3 1.383 . S
C34 C21 1.479 . S
C34 C35 1.398 . S
C35 C0 1.382 . S
C35 H12 0.951 . S
C35 C34 1.398 . S
C36 C37 1.384 . S
C36 H49 0.947 . S
C36 C71 1.382 . S
C37 C36 1.384 . S
C37 C38 1.378 . S
C38 C37 1.378 . S
C38 C39 1.378 . S
C38 H50 0.952 . S
C39 C38 1.378 . S
C39 H51 0.950 . S
C39 C70 1.383 . S
H40 C59 0.947 . S
H41 C60 0.946 . S
H42 C62 0.953 . S
H43 C63 0.945 . S
H44 C65 0.952 . S
H45 C66 0.949 . S
H46 C68 0.950 . S
H47 C69 0.948 . S
H48 C71 0.951 . S
H49 C36 0.947 . S
H50 C38 0.952 . S
H51 C39 0.950 . S
N52 C55 1.382 . S
N52 C57 1.363 . S
N53 C55 1.371 . S
N53 C56 1.372 . S
N54 C56 1.361 . S
N54 C57 1.377 . S
C55 N52 1.382 . S
C55 N53 1.371 . S
C55 C58 1.480 . S
C56 N53 1.372 . S
C56 N54 1.361 . S
C56 C64 1.457 . S
C57 N52 1.363 . S
C57 N54 1.377 . S
C57 C70 1.479 . S
C58 C55 1.480 . S
C58 C59 1.383 . S
C58 C63 1.385 . S
C59 H40 0.947 . S
C59 C58 1.383 . S
C59 C60 1.388 . S
C60 H41 0.946 . S
C60 C59 1.388 . S
C60 C61 1.384 . S
C61 C60 1.384 . S
C61 C62 1.377 . S
C62 H42 0.953 . S
C62 C61 1.377 . S
C62 C63 1.369 . S
C63 H43 0.945 . S
C63 C58 1.385 . S
C63 C62 1.369 . S
C64 C56 1.457 . S
C64 C65 1.372 . S
C64 C69 1.364 . S
C65 H44 0.952 . S
C65 C64 1.372 . S
C65 C66 1.389 . S
C66 H45 0.949 . S
C66 C65 1.389 . S
C66 C67 1.387 . S
C67 C66 1.387 . S
C67 C68 1.372 . S
C68 H46 0.950 . S
C68 C67 1.372 . S
C68 C69 1.379 . S
C69 H47 0.948 . S
C69 C64 1.364 . S
C69 C68 1.379 . S
C70 C39 1.383 . S
C70 C57 1.479 . S
C70 C71 1.398 . S
C71 C36 1.382 . S
C71 H48 0.951 . S
C71 C70 1.398 . S
C72 C73 1.384 . S
C72 H85 0.947 . S
C72 C107 1.382 . S
C73 C72 1.384 . S
C73 C74 1.378 . S
C74 C73 1.378 . S
C74 C75 1.378 . S
C74 H86 0.952 . S
C75 C74 1.378 . S
C75 H87 0.950 . S
C75 C106 1.383 . S
H76 C95 0.947 . S
H77 C96 0.946 . S
H78 C98 0.953 1_455 S
H79 C99 0.945 . S
H80 C101 0.952 . S
H81 C102 0.949 . S
H82 C104 0.950 . S
H83 C105 0.948 . S
H84 C107 0.951 . S
H85 C72 0.947 . S
H86 C74 0.952 . S
H87 C75 0.950 . S
N88 C91 1.382 . S
N88 C93 1.363 . S
N89 C91 1.371 . S
N89 C92 1.372 . S
N90 C92 1.361 . S
N90 C93 1.377 . S
C91 N88 1.382 . S
C91 N89 1.371 . S
C91 C94 1.480 . S
C92 N89 1.372 . S
C92 N90 1.361 . S
C92 C100 1.457 . S
C93 N88 1.363 . S
C93 N90 1.377 . S
C93 C106 1.479 . S
C94 C91 1.480 . S
C94 C95 1.383 . S
C94 C99 1.385 . S
C95 H76 0.947 . S
C95 C94 1.383 . S
C95 C96 1.388 . S
C96 H77 0.946 . S
C96 C95 1.388 . S
C96 C97 1.384 . S
C97 C96 1.384 . S
C97 C98 1.377 . S
C98 H78 0.953 1_655 S
C98 C97 1.377 . S
C98 C99 1.369 . S
C99 H79 0.945 . S
C99 C94 1.385 . S
C99 C98 1.369 . S
C100 C92 1.457 . S
C100 C101 1.372 . S
C100 C105 1.364 . S
C101 H80 0.952 . S
C101 C100 1.372 . S
C101 C102 1.389 . S
C102 H81 0.949 . S
C102 C101 1.389 . S
C102 C103 1.387 . S
C103 C102 1.387 . S
C103 C104 1.372 . S
C104 H82 0.950 . S
C104 C103 1.372 . S
C104 C105 1.379 . S
C105 H83 0.948 . S
C105 C100 1.364 . S
C105 C104 1.379 . S
C106 C75 1.383 . S
C106 C93 1.479 . S
C106 C107 1.398 . S
C107 C72 1.382 . S
C107 H84 0.951 . S
C107 C106 1.398 . S
C108 C109 1.384 . S
C108 H121 0.947 1_455 S
C108 C143 1.382 . S
C109 C108 1.384 . S
C109 C110 1.378 . S
C110 C109 1.378 . S
C110 C111 1.378 . S
C110 H122 0.952 . S
C111 C110 1.378 . S
C111 H123 0.950 . S
C111 C142 1.383 . S
H112 C131 0.947 . S
H113 C132 0.946 . S
H114 C134 0.953 . S
H115 C135 0.945 . S
H116 C137 0.952 . S
H117 C138 0.949 . S
H118 C140 0.950 . S
H119 C141 0.948 . S
H120 C143 0.951 . S
H121 C108 0.947 1_655 S
H122 C110 0.952 . S
H123 C111 0.950 . S
N124 C127 1.382 . S
N124 C129 1.363 . S
N125 C127 1.371 . S
N125 C128 1.372 . S
N126 C128 1.361 . S
N126 C129 1.377 . S
C127 N124 1.382 . S
C127 N125 1.371 . S
C127 C130 1.480 . S
C128 N125 1.372 . S
C128 N126 1.361 . S
C128 C136 1.457 . S
C129 N124 1.363 . S
C129 N126 1.377 . S
C129 C142 1.479 . S
C130 C127 1.480 . S
C130 C131 1.383 . S
C130 C135 1.385 . S
C131 H112 0.947 . S
C131 C130 1.383 . S
C131 C132 1.388 . S
C132 H113 0.946 . S
C132 C131 1.388 . S
C132 C133 1.384 . S
C133 C132 1.384 . S
C133 C134 1.377 . S
C134 H114 0.953 . S
C134 C133 1.377 . S
C134 C135 1.369 . S
C135 H115 0.945 . S
C135 C130 1.385 . S
C135 C134 1.369 . S
C136 C128 1.457 . S
C136 C137 1.372 . S
C136 C141 1.364 . S
C137 H116 0.952 . S
C137 C136 1.372 . S
C137 C138 1.389 . S
C138 H117 0.949 . S
C138 C137 1.389 . S
C138 C139 1.387 . S
C139 C138 1.387 . S
C139 C140 1.372 . S
C140 H118 0.950 . S
C140 C139 1.372 . S
C140 C141 1.379 . S
C141 H119 0.948 . S
C141 C136 1.364 . S
C141 C140 1.379 . S
C142 C111 1.383 . S
C142 C129 1.479 . S
C142 C143 1.398 . S
C143 C108 1.382 . S
C143 H120 0.951 . S
C143 C142 1.398 . S
C144 C145 1.384 . S
C144 H157 0.947 . S
C144 C179 1.382 . S
C145 C144 1.384 . S
C145 C146 1.378 . S
C146 C145 1.378 . S
C146 C147 1.378 . S
C146 H158 0.952 . S
C147 C146 1.378 . S
C147 H159 0.950 . S
C147 C178 1.383 . S
H148 C167 0.947 . S
H149 C168 0.946 . S
H150 C170 0.953 . S
H151 C171 0.945 . S
H152 C173 0.952 . S
H153 C174 0.949 . S
H154 C176 0.950 . S
H155 C177 0.948 . S
H156 C179 0.951 . S
H157 C144 0.947 . S
H158 C146 0.952 . S
H159 C147 0.950 . S
N160 C163 1.382 . S
N160 C165 1.363 . S
N161 C163 1.371 . S
N161 C164 1.372 . S
N162 C164 1.361 . S
N162 C165 1.377 . S
C163 N160 1.382 . S
C163 N161 1.371 . S
C163 C166 1.480 . S
C164 N161 1.372 . S
C164 N162 1.361 . S
C164 C172 1.457 . S
C165 N160 1.363 . S
C165 N162 1.377 . S
C165 C178 1.479 . S
C166 C163 1.480 . S
C166 C167 1.383 . S
C166 C171 1.385 . S
C167 H148 0.947 . S
C167 C166 1.383 . S
C167 C168 1.388 . S
C168 H149 0.946 . S
C168 C167 1.388 . S
C168 C169 1.384 . S
C169 C168 1.384 . S
C169 C170 1.377 . S
C170 H150 0.953 . S
C170 C169 1.377 . S
C170 C171 1.369 . S
C171 H151 0.945 . S
C171 C166 1.385 . S
C171 C170 1.369 . S
C172 C164 1.457 . S
C172 C173 1.372 . S
C172 C177 1.364 . S
C173 H152 0.952 . S
C173 C172 1.372 . S
C173 C174 1.389 . S
C174 H153 0.949 . S
C174 C173 1.389 . S
C174 C175 1.387 . S
C175 C174 1.387 . S
C175 C176 1.372 . S
C176 H154 0.950 . S
C176 C175 1.372 . S
C176 C177 1.379 . S
C177 H155 0.948 . S
C177 C172 1.364 . S
C177 C176 1.379 . S
C178 C147 1.383 . S
C178 C165 1.479 . S
C178 C179 1.398 . S
C179 C144 1.382 . S
C179 H156 0.951 . S
C179 C178 1.398 . S
C180 C181 1.384 . S
C180 H193 0.947 . S
C180 C215 1.382 . S
C181 C180 1.384 . S
C181 C182 1.378 . S
C182 C181 1.378 . S
C182 C183 1.378 . S
C182 H194 0.952 . S
C183 C182 1.378 . S
C183 H195 0.950 . S
C183 C214 1.383 . S
H184 C203 0.947 . S
H185 C204 0.946 . S
H186 C206 0.953 . S
H187 C207 0.945 . S
H188 C209 0.952 . S
H189 C210 0.949 . S
H190 C212 0.950 . S
H191 C213 0.948 . S
H192 C215 0.951 . S
H193 C180 0.947 . S
H194 C182 0.952 . S
H195 C183 0.950 . S
N196 C199 1.382 . S
N196 C201 1.363 . S
N197 C199 1.371 . S
N197 C200 1.372 . S
N198 C200 1.361 . S
N198 C201 1.377 . S
C199 N196 1.382 . S
C199 N197 1.371 . S
C199 C202 1.480 . S
C200 N197 1.372 . S
C200 N198 1.361 . S
C200 C208 1.457 . S
C201 N196 1.363 . S
C201 N198 1.377 . S
C201 C214 1.479 . S
C202 C199 1.480 . S
C202 C203 1.383 . S
C202 C207 1.385 . S
C203 H184 0.947 . S
C203 C202 1.383 . S
C203 C204 1.388 . S
C204 H185 0.946 . S
C204 C203 1.388 . S
C204 C205 1.384 . S
C205 C204 1.384 . S
C205 C206 1.377 . S
C206 H186 0.953 . S
C206 C205 1.377 . S
C206 C207 1.369 . S
C207 H187 0.945 . S
C207 C202 1.385 . S
C207 C206 1.369 . S
C208 C200 1.457 . S
C208 C209 1.372 . S
C208 C213 1.364 . S
C209 H188 0.952 . S
C209 C208 1.372 . S
C209 C210 1.389 . S
C210 H189 0.949 . S
C210 C209 1.389 . S
C210 C211 1.387 . S
C211 C210 1.387 . S
C211 C212 1.372 . S
C212 H190 0.950 . S
C212 C211 1.372 . S
C212 C213 1.379 . S
C213 H191 0.948 . S
C213 C208 1.364 . S
C213 C212 1.379 . S
C214 C183 1.383 . S
C214 C201 1.479 . S
C214 C215 1.398 . S
C215 C180 1.382 . S
C215 H192 0.951 . S
C215 C214 1.398 . S
C216 C217 1.384 . S
C216 H229 0.947 . S
C216 C251 1.382 . S
C217 C216 1.384 . S
C217 C218 1.378 . S
C218 C217 1.378 . S
C218 C219 1.378 . S
C218 H230 0.952 . S
C219 C218 1.378 . S
C219 H231 0.950 . S
C219 C250 1.383 . S
H220 C239 0.947 . S
H221 C240 0.946 . S
H222 C242 0.953 . S
H223 C243 0.945 . S
H224 C245 0.952 . S
H225 C246 0.949 . S
H226 C248 0.949 . S
H227 C249 0.948 . S
H228 C251 0.951 . S
H229 C216 0.947 . S
H230 C218 0.952 . S
H231 C219 0.950 . S
N232 C235 1.382 . S
N232 C237 1.363 . S
N233 C235 1.371 . S
N233 C236 1.372 . S
N234 C236 1.361 . S
N234 C237 1.377 . S
C235 N232 1.382 . S
C235 N233 1.371 . S
C235 C238 1.480 . S
C236 N233 1.372 . S
C236 N234 1.361 . S
C236 C244 1.457 . S
C237 N232 1.363 . S
C237 N234 1.377 . S
C237 C250 1.479 . S
C238 C235 1.480 . S
C238 C239 1.383 . S
C238 C243 1.385 . S
C239 H220 0.947 . S
C239 C238 1.383 . S
C239 C240 1.388 . S
C240 H221 0.946 . S
C240 C239 1.388 . S
C240 C241 1.384 . S
C241 C240 1.384 . S
C241 C242 1.377 . S
C242 H222 0.953 . S
C242 C241 1.377 . S
C242 C243 1.369 . S
C243 H223 0.945 . S
C243 C238 1.385 . S
C243 C242 1.369 . S
C244 C236 1.457 . S
C244 C245 1.372 . S
C244 C249 1.364 . S
C245 H224 0.952 . S
C245 C244 1.372 . S
C245 C246 1.389 . S
C246 H225 0.949 . S
C246 C245 1.389 . S
C246 C247 1.394 . S
C247 C246 1.394 . S
C247 C248 1.366 1_655 S
C248 H226 0.949 . S
C248 C247 1.366 1_455 S
C248 C249 1.379 1_455 S
C249 H227 0.948 . S
C249 C244 1.364 . S
C249 C248 1.379 1_655 S
C250 C219 1.383 . S
C250 C237 1.479 . S
C250 C251 1.398 . S
C251 C216 1.382 . S
C251 H228 0.951 . S
C251 C250 1.398 . S
C252 C253 1.384 . S
C252 H265 0.947 . S
C252 C287 1.382 . S
C253 C252 1.384 . S
C253 C254 1.378 . S
C254 C253 1.378 . S
C254 C255 1.378 . S
C254 H266 0.952 . S
C255 C254 1.378 . S
C255 H267 0.950 . S
C255 C286 1.383 . S
H256 C275 0.947 . S
H257 C276 0.946 . S
H258 C278 0.953 . S
H259 C279 0.945 . S
H260 C281 0.952 . S
H261 C282 0.949 . S
H262 C284 0.950 . S
H263 C285 0.948 . S
H264 C287 0.951 . S
H265 C252 0.947 . S
H266 C254 0.952 . S
H267 C255 0.950 . S
N268 C271 1.382 . S
N268 C273 1.363 . S
N269 C271 1.371 . S
N269 C272 1.372 . S
N270 C272 1.361 . S
N270 C273 1.377 . S
C271 N268 1.382 . S
C271 N269 1.371 . S
C271 C274 1.480 . S
C272 N269 1.372 . S
C272 N270 1.361 . S
C272 C280 1.457 . S
C273 N268 1.363 . S
C273 N270 1.377 . S
C273 C286 1.479 . S
C274 C271 1.480 . S
C274 C275 1.383 . S
C274 C279 1.385 . S
C275 H256 0.947 . S
C275 C274 1.383 . S
C275 C276 1.388 . S
C276 H257 0.946 . S
C276 C275 1.388 . S
C276 C277 1.384 . S
C277 C276 1.384 . S
C277 C278 1.377 . S
C278 H258 0.953 . S
C278 C277 1.377 . S
C278 C279 1.369 . S
C279 H259 0.945 . S
C279 C274 1.385 . S
C279 C278 1.369 . S
C280 C272 1.457 . S
C280 C281 1.372 . S
C280 C285 1.364 . S
C281 H260 0.952 . S
C281 C280 1.372 . S
C281 C282 1.389 . S
C282 H261 0.949 . S
C282 C281 1.389 . S
C282 C283 1.387 . S
C283 C282 1.387 . S
C283 C284 1.372 . S
C284 H262 0.950 . S
C284 C283 1.372 . S
C284 C285 1.379 . S
C285 H263 0.948 . S
C285 C280 1.364 . S
C285 C284 1.379 . S
C286 C255 1.383 . S
C286 C273 1.479 . S
C286 C287 1.398 . S
C287 C252 1.382 . S
C287 H264 0.951 . S
C287 C286 1.398 . S
C288 C289 1.384 . S
C288 H301 0.947 . S
C288 C323 1.382 . S
C289 C288 1.384 . S
C289 C290 1.378 . S
C290 C289 1.378 . S
C290 C291 1.378 . S
C290 H302 0.952 . S
C291 C290 1.378 . S
C291 H303 0.950 . S
C291 C322 1.383 . S
H292 C311 0.947 . S
H293 C312 0.946 . S
H294 C314 0.953 . S
H295 C315 0.945 . S
H296 C317 0.952 . S
H297 C318 0.949 . S
H298 C320 0.950 . S
H299 C321 0.948 . S
H300 C323 0.951 . S
H301 C288 0.947 . S
H302 C290 0.952 . S
H303 C291 0.950 . S
N304 C307 1.382 . S
N304 C309 1.363 . S
N305 C307 1.371 . S
N305 C308 1.372 . S
N306 C308 1.361 . S
N306 C309 1.377 . S
C307 N304 1.382 . S
C307 N305 1.371 . S
C307 C310 1.480 . S
C308 N305 1.372 . S
C308 N306 1.361 . S
C308 C316 1.457 . S
C309 N304 1.363 . S
C309 N306 1.377 . S
C309 C322 1.479 . S
C310 C307 1.480 . S
C310 C311 1.383 . S
C310 C315 1.385 . S
C311 H292 0.947 . S
C311 C310 1.383 . S
C311 C312 1.388 . S
C312 H293 0.946 . S
C312 C311 1.388 . S
C312 C313 1.384 . S
C313 C312 1.384 . S
C313 C314 1.377 . S
C314 H294 0.953 . S
C314 C313 1.377 . S
C314 C315 1.369 . S
C315 H295 0.945 . S
C315 C310 1.385 . S
C315 C314 1.369 . S
C316 C308 1.457 . S
C316 C317 1.372 . S
C316 C321 1.364 . S
C317 H296 0.952 . S
C317 C316 1.372 . S
C317 C318 1.389 . S
C318 H297 0.949 . S
C318 C317 1.389 . S
C318 C319 1.387 . S
C319 C318 1.387 . S
C319 C320 1.372 . S
C320 H298 0.950 . S
C320 C319 1.372 . S
C320 C321 1.379 . S
C321 H299 0.948 . S
C321 C316 1.364 . S
C321 C320 1.379 . S
C322 C291 1.383 . S
C322 C309 1.479 . S
C322 C323 1.398 . S
C323 C288 1.382 . S
C323 H300 0.951 . S
C323 C322 1.398 . S
C324 C325 1.384 . S
C324 H337 0.947 . S
C324 C359 1.382 . S
C325 C324 1.384 . S
C325 C326 1.378 . S
C326 C325 1.378 . S
C326 C327 1.378 . S
C326 H338 0.952 . S
C327 C326 1.378 . S
C327 H339 0.950 . S
C327 C358 1.383 . S
H328 C347 0.947 . S
H329 C348 0.946 . S
H330 C350 0.953 . S
H331 C351 0.945 . S
H332 C353 0.952 . S
H333 C354 0.949 . S
H334 C356 0.950 . S
H335 C357 0.948 . S
H336 C359 0.951 . S
H337 C324 0.947 . S
H338 C326 0.952 . S
H339 C327 0.950 . S
N340 C343 1.382 . S
N340 C345 1.363 . S
N341 C343 1.371 . S
N341 C344 1.372 . S
N342 C344 1.361 . S
N342 C345 1.377 . S
C343 N340 1.382 . S
C343 N341 1.371 . S
C343 C346 1.480 . S
C344 N341 1.372 . S
C344 N342 1.361 . S
C344 C352 1.457 . S
C345 N340 1.363 . S
C345 N342 1.377 . S
C345 C358 1.479 . S
C346 C343 1.480 . S
C346 C347 1.383 . S
C346 C351 1.385 . S
C347 H328 0.947 . S
C347 C346 1.383 . S
C347 C348 1.388 . S
C348 H329 0.946 . S
C348 C347 1.388 . S
C348 C349 1.384 . S
C349 C348 1.384 . S
C349 C350 1.377 . S
C350 H330 0.953 . S
C350 C349 1.377 . S
C350 C351 1.369 . S
C351 H331 0.945 . S
C351 C346 1.385 . S
C351 C350 1.369 . S
C352 C344 1.457 . S
C352 C353 1.372 . S
C352 C357 1.364 . S
C353 H332 0.952 . S
C353 C352 1.372 . S
C353 C354 1.389 . S
C354 H333 0.949 . S
C354 C353 1.389 . S
C354 C355 1.387 . S
C355 C354 1.387 . S
C355 C356 1.372 . S
C356 H334 0.950 . S
C356 C355 1.372 . S
C356 C357 1.379 . S
C357 H335 0.948 . S
C357 C352 1.364 . S
C357 C356 1.379 . S
C358 C327 1.383 . S
C358 C345 1.479 . S
C358 C359 1.398 . S
C359 C324 1.382 . S
C359 H336 0.951 . S
C359 C358 1.398 . S
C360 C361 1.384 . S
C360 H373 0.947 . S
C360 C395 1.382 . S
C361 C360 1.384 . S
C361 C362 1.378 . S
C362 C361 1.378 . S
C362 C363 1.378 . S
C362 H374 1.007 . S
C363 C362 1.378 . S
C363 H375 0.950 . S
C363 C394 1.383 . S
H364 C383 0.947 . S
H365 C384 0.950 . S
H366 C386 0.953 . S
H367 C387 0.945 . S
H368 C389 0.952 . S
H369 C390 0.949 . S
H370 C392 0.950 . S
H371 C393 0.948 . S
H372 C395 0.951 . S
H373 C360 0.947 . S
H374 C362 1.007 . S
H375 C363 0.950 . S
N376 C379 1.382 . S
N376 C381 1.363 . S
N377 C379 1.371 . S
N377 C380 1.372 . S
N378 C380 1.361 . S
N378 C381 1.377 . S
C379 N376 1.382 . S
C379 N377 1.371 . S
C379 C382 1.480 . S
C380 N377 1.372 . S
C380 N378 1.361 . S
C380 C388 1.457 . S
C381 N376 1.363 . S
C381 N378 1.377 . S
C381 C394 1.479 . S
C382 C379 1.480 . S
C382 C383 1.383 . S
C382 C387 1.385 . S
C383 H364 0.947 . S
C383 C382 1.383 . S
C383 C384 1.388 . S
C384 H365 0.950 . S
C384 C383 1.388 . S
C384 C385 1.384 . S
C385 C384 1.384 . S
C385 C386 1.377 . S
C386 H366 0.953 . S
C386 C385 1.377 . S
C386 C387 1.369 . S
C387 H367 0.945 . S
C387 C382 1.385 . S
C387 C386 1.369 . S
C388 C380 1.457 . S
C388 C389 1.372 . S
C388 C393 1.364 . S
C389 H368 0.952 . S
C389 C388 1.372 . S
C389 C390 1.389 . S
C390 H369 0.949 . S
C390 C389 1.389 . S
C390 C391 1.387 . S
C391 C390 1.387 . S
C391 C392 1.372 . S
C392 H370 0.950 . S
C392 C391 1.372 . S
C392 C393 1.379 . S
C393 H371 0.948 . S
C393 C388 1.364 . S
C393 C392 1.379 . S
C394 C363 1.383 . S
C394 C381 1.479 . S
C394 C395 1.398 . S
C395 C360 1.382 . S
C395 H372 0.951 . S
C395 C394 1.398 . S
C396 C397 1.384 . S
C396 H409 0.947 . S
C396 C431 1.382 . S
C397 C396 1.384 . S
C397 C398 1.378 . S
C398 C397 1.378 . S
C398 C399 1.378 . S
C398 H410 0.952 . S
C399 C398 1.378 . S
C399 H411 0.950 . S
C399 C430 1.383 . S
H400 C419 0.947 . S
H401 C420 0.946 . S
H402 C422 0.953 . S
H403 C423 0.945 . S
H404 C425 0.952 . S
H405 C426 0.949 . S
H406 C428 0.950 . S
H407 C429 0.948 . S
H408 C431 0.951 . S
H409 C396 0.947 . S
H410 C398 0.952 . S
H411 C399 0.950 . S
N412 C415 1.382 . S
N412 C417 1.363 . S
N413 C415 1.371 . S
N413 C416 1.372 . S
N414 C416 1.361 . S
N414 C417 1.377 . S
C415 N412 1.382 . S
C415 N413 1.371 . S
C415 C418 1.480 . S
C416 N413 1.372 . S
C416 N414 1.361 . S
C416 C424 1.457 . S
C417 N412 1.363 . S
C417 N414 1.377 . S
C417 C430 1.479 . S
C418 C415 1.480 . S
C418 C419 1.383 . S
C418 C423 1.385 . S
C419 H400 0.947 . S
C419 C418 1.383 . S
C419 C420 1.388 . S
C420 H401 0.946 . S
C420 C419 1.388 . S
C420 C421 1.384 . S
C421 C420 1.384 . S
C421 C422 1.377 . S
C422 H402 0.953 . S
C422 C421 1.377 . S
C422 C423 1.369 . S
C423 H403 0.945 . S
C423 C418 1.385 . S
C423 C422 1.369 . S
C424 C416 1.457 . S
C424 C425 1.372 . S
C424 C429 1.364 . S
C425 H404 0.952 . S
C425 C424 1.372 . S
C425 C426 1.389 . S
C426 H405 0.949 . S
C426 C425 1.389 . S
C426 C427 1.387 . S
C427 C426 1.387 . S
C427 C428 1.372 . S
C428 H406 0.950 . S
C428 C427 1.372 . S
C428 C429 1.379 . S
C429 H407 0.948 . S
C429 C424 1.364 . S
C429 C428 1.379 . S
C430 C399 1.383 . S
C430 C417 1.479 . S
C430 C431 1.398 . S
C431 C396 1.382 . S
C431 H408 0.951 . S
C431 C430 1.398 . S
C432 C433 1.384 . S
C432 H445 0.947 . S
C432 C467 1.382 . S
C433 C432 1.384 . S
C433 C434 1.378 . S
C434 C433 1.378 . S
C434 C435 1.378 . S
C434 H446 1.007 . S
C435 C434 1.378 . S
C435 H447 0.950 . S
C435 C466 1.383 . S
H436 C455 0.947 . S
H437 C456 0.946 . S
H438 C458 0.953 . S
H439 C459 0.945 . S
H440 C461 0.952 . S
H441 C462 0.949 . S
H442 C464 0.950 . S
H443 C465 0.948 . S
H444 C467 0.951 . S
H445 C432 0.947 . S
H446 C434 1.007 . S
H447 C435 0.950 . S
N448 C451 1.382 . S
N448 C453 1.363 . S
N449 C451 1.371 . S
N449 C452 1.372 . S
N450 C452 1.361 . S
N450 C453 1.377 . S
C451 N448 1.382 . S
C451 N449 1.371 . S
C451 C454 1.480 . S
C452 N449 1.372 . S
C452 N450 1.361 . S
C452 C460 1.457 . S
C453 N448 1.363 . S
C453 N450 1.377 . S
C453 C466 1.479 . S
C454 C451 1.480 . S
C454 C455 1.383 . S
C454 C459 1.385 . S
C455 H436 0.947 . S
C455 C454 1.383 . S
C455 C456 1.388 . S
C456 H437 0.946 . S
C456 C455 1.388 . S
C456 C457 1.384 . S
C457 C456 1.384 . S
C457 C458 1.377 . S
C458 H438 0.953 . S
C458 C457 1.377 . S
C458 C459 1.369 . S
C459 H439 0.945 . S
C459 C454 1.385 . S
C459 C458 1.369 . S
C460 C452 1.457 . S
C460 C461 1.372 . S
C460 C465 1.364 . S
C461 H440 0.952 . S
C461 C460 1.372 . S
C461 C462 1.389 . S
C462 H441 0.949 . S
C462 C461 1.389 . S
C462 C463 1.387 . S
C463 C462 1.387 . S
C463 C464 1.372 . S
C464 H442 0.950 . S
C464 C463 1.372 . S
C464 C465 1.379 . S
C465 H443 0.948 . S
C465 C460 1.364 . S
C465 C464 1.379 . S
C466 C435 1.383 . S
C466 C453 1.479 . S
C466 C467 1.398 . S
C467 C432 1.382 . S
C467 H444 0.951 . S
C467 C466 1.398 . S
C468 C469 1.384 . S
C468 H481 0.947 . S
C468 C503 1.382 . S
C469 C468 1.384 . S
C469 C470 1.378 . S
C470 C469 1.378 . S
C470 C471 1.378 . S
C470 H482 0.952 . S
C471 C470 1.378 . S
C471 H483 0.950 . S
C471 C502 1.383 . S
H472 C491 0.947 . S
H473 C492 0.946 . S
H474 C494 0.953 . S
H475 C495 0.945 . S
H476 C497 0.952 . S
H477 C498 0.949 . S
H478 C500 0.950 . S
H479 C501 0.948 . S
H480 C503 0.951 . S
H481 C468 0.947 . S
H482 C470 0.952 . S
H483 C471 0.950 . S
N484 C487 1.382 . S
N484 C489 1.363 . S
N485 C487 1.371 . S
N485 C488 1.372 . S
N486 C488 1.361 . S
N486 C489 1.377 . S
C487 N484 1.382 . S
C487 N485 1.371 . S
C487 C490 1.480 . S
C488 N485 1.372 . S
C488 N486 1.361 . S
C488 C496 1.457 . S
C489 N484 1.363 . S
C489 N486 1.377 . S
C489 C502 1.479 . S
C490 C487 1.480 . S
C490 C491 1.383 . S
C490 C495 1.385 . S
C491 H472 0.947 . S
C491 C490 1.383 . S
C491 C492 1.388 . S
C492 H473 0.946 . S
C492 C491 1.388 . S
C492 C493 1.384 . S
C493 C492 1.384 . S
C493 C494 1.377 . S
C494 H474 0.953 . S
C494 C493 1.377 . S
C494 C495 1.369 . S
C495 H475 0.945 . S
C495 C490 1.385 . S
C495 C494 1.369 . S
C496 C488 1.457 . S
C496 C497 1.372 . S
C496 C501 1.364 . S
C497 H476 0.952 . S
C497 C496 1.372 . S
C497 C498 1.389 . S
C498 H477 0.949 . S
C498 C497 1.389 . S
C498 C499 1.387 . S
C499 C498 1.387 . S
C499 C500 1.372 . S
C500 H478 0.950 . S
C500 C499 1.372 . S
C500 C501 1.379 . S
C501 H479 0.948 . S
C501 C496 1.364 . S
C501 C500 1.379 . S
C502 C471 1.383 . S
C502 C489 1.479 . S
C502 C503 1.398 . S
C503 C468 1.382 . S
C503 H480 0.951 . S
C503 C502 1.398 . S
C504 C505 1.384 . S
C504 H517 0.947 . S
C504 C539 1.382 . S
C505 C504 1.384 . S
C505 C506 1.378 . S
C506 C505 1.378 . S
C506 C507 1.378 . S
C506 H518 0.952 . S
C507 C506 1.378 . S
C507 H519 0.950 . S
C507 C538 1.383 . S
H508 C527 0.947 . S
H509 C528 0.946 . S
H510 C530 0.953 . S
H511 C531 0.945 . S
H512 C533 0.952 . S
H513 C534 0.949 . S
H514 C536 0.950 . S
H515 C537 0.948 . S
H516 C539 0.951 . S
H517 C504 0.947 . S
H518 C506 0.952 . S
H519 C507 0.950 . S
N520 C523 1.382 . S
N520 C525 1.363 . S
N521 C523 1.371 . S
N521 C524 1.372 . S
N522 C524 1.361 . S
N522 C525 1.377 . S
C523 N520 1.382 . S
C523 N521 1.371 . S
C523 C526 1.480 . S
C524 N521 1.372 . S
C524 N522 1.361 . S
C524 C532 1.457 . S
C525 N520 1.363 . S
C525 N522 1.377 . S
C525 C538 1.479 . S
C526 C523 1.480 . S
C526 C527 1.383 . S
C526 C531 1.385 . S
C527 H508 0.947 . S
C527 C526 1.383 . S
C527 C528 1.388 . S
C528 H509 0.946 . S
C528 C527 1.388 . S
C528 C529 1.384 . S
C529 C528 1.384 . S
C529 C530 1.377 . S
C530 H510 0.953 . S
C530 C529 1.377 . S
C530 C531 1.369 . S
C531 H511 0.945 . S
C531 C526 1.385 . S
C531 C530 1.369 . S
C532 C524 1.457 . S
C532 C533 1.372 . S
C532 C537 1.364 . S
C533 H512 0.952 . S
C533 C532 1.372 . S
C533 C534 1.389 . S
C534 H513 0.949 . S
C534 C533 1.389 . S
C534 C535 1.387 . S
C535 C534 1.387 . S
C535 C536 1.372 . S
C536 H514 0.950 . S
C536 C535 1.372 . S
C536 C537 1.379 . S
C537 H515 0.948 . S
C537 C532 1.364 . S
C537 C536 1.379 . S
C538 C507 1.383 . S
C538 C525 1.479 . S
C538 C539 1.398 . S
C539 C504 1.382 . S
C539 H516 0.951 . S
C539 C538 1.398 . S
C540 C541 1.384 . S
C540 H553 0.947 . S
C540 C575 1.382 . S
C541 C540 1.384 . S
C541 C542 1.378 . S
C542 C541 1.378 . S
C542 C543 1.378 . S
C542 H554 0.952 . S
C543 C542 1.378 . S
C543 H555 0.950 . S
C543 C574 1.383 . S
H544 C563 0.947 . S
H545 C564 0.946 . S
H546 C566 0.953 . S
H547 C567 0.945 . S
H548 C569 0.952 . S
H549 C570 0.949 . S
H550 C572 0.950 . S
H551 C573 0.948 . S
H552 C575 0.951 . S
H553 C540 0.947 . S
H554 C542 0.952 . S
H555 C543 0.950 . S
N556 C559 1.382 . S
N556 C561 1.363 . S
N557 C559 1.371 . S
N557 C560 1.372 . S
N558 C560 1.361 . S
N558 C561 1.377 . S
C559 N556 1.382 . S
C559 N557 1.371 . S
C559 C562 1.480 . S
C560 N557 1.372 . S
C560 N558 1.361 . S
C560 C568 1.457 . S
C561 N556 1.363 . S
C561 N558 1.377 . S
C561 C574 1.479 . S
C562 C559 1.480 . S
C562 C563 1.383 . S
C562 C567 1.385 . S
C563 H544 0.947 . S
C563 C562 1.383 . S
C563 C564 1.388 . S
C564 H545 0.946 . S
C564 C563 1.388 . S
C564 C565 1.384 . S
C565 C564 1.384 . S
C565 C566 1.377 . S
C566 H546 0.953 . S
C566 C565 1.377 . S
C566 C567 1.369 . S
C567 H547 0.945 . S
C567 C562 1.385 . S
C567 C566 1.369 . S
C568 C560 1.457 . S
C568 C569 1.372 . S
C568 C573 1.364 . S
C569 H548 0.952 . S
C569 C568 1.372 . S
C569 C570 1.389 . S
C570 H549 0.949 . S
C570 C569 1.389 . S
C570 C571 1.387 . S
C571 C570 1.387 . S
C571 C572 1.372 . S
C572 H550 0.950 . S
C572 C571 1.372 . S
C572 C573 1.379 . S
C573 H551 0.948 . S
C573 C568 1.364 . S
C573 C572 1.379 . S
C574 C543 1.383 . S
C574 C561 1.479 . S
C574 C575 1.398 . S
C575 C540 1.382 . S
C575 H552 0.951 . S
C575 C574 1.398 . S
C576 C577 1.384 . S
C576 H589 0.947 . S
C576 C611 1.382 . S
C577 C576 1.384 . S
C577 C578 1.378 . S
C578 C577 1.378 . S
C578 C579 1.378 . S
C578 H590 0.952 . S
C579 C578 1.378 . S
C579 H591 0.950 . S
C579 C610 1.383 . S
H580 C599 0.947 . S
H581 C600 0.946 . S
H582 C602 0.953 . S
H583 C603 0.945 . S
H584 C605 0.952 . S
H585 C606 0.949 . S
H586 C608 0.948 . S
H587 C609 0.948 . S
H588 C611 0.951 . S
H589 C576 0.947 . S
H590 C578 0.952 . S
H591 C579 0.950 . S
N592 C595 1.382 . S
N592 C597 1.363 . S
N593 C595 1.371 . S
N593 C596 1.372 . S
N594 C596 1.361 . S
N594 C597 1.377 . S
C595 N592 1.382 . S
C595 N593 1.371 . S
C595 C598 1.480 . S
C596 N593 1.372 . S
C596 N594 1.361 . S
C596 C604 1.457 . S
C597 N592 1.363 . S
C597 N594 1.377 . S
C597 C610 1.479 . S
C598 C595 1.480 . S
C598 C599 1.383 . S
C598 C603 1.385 . S
C599 H580 0.947 . S
C599 C598 1.383 . S
C599 C600 1.388 . S
C600 H581 0.946 . S
C600 C599 1.388 . S
C600 C601 1.384 . S
C601 C600 1.384 . S
C601 C602 1.377 . S
C602 H582 0.953 . S
C602 C601 1.377 . S
C602 C603 1.369 . S
C603 H583 0.945 . S
C603 C598 1.385 . S
C603 C602 1.369 . S
C604 C596 1.457 . S
C604 C605 1.372 . S
C604 C609 1.364 . S
C605 H584 0.952 . S
C605 C604 1.372 . S
C605 C606 1.389 . S
C606 H585 0.949 . S
C606 C605 1.389 . S
C606 C607 1.379 . S
C607 C606 1.379 . S
C607 C608 1.386 1_455 S
C608 H586 0.948 . S
C608 C607 1.386 1_655 S
C608 C609 1.378 1_655 S
C609 H587 0.948 . S
C609 C604 1.364 . S
C609 C608 1.378 1_455 S
C610 C579 1.383 . S
C610 C597 1.479 . S
C610 C611 1.398 . S
C611 C576 1.382 . S
C611 H588 0.951 . S
C611 C610 1.398 . S
C612 C613 1.384 . S
C612 H625 0.947 . S
C612 C647 1.382 . S
C613 C612 1.384 . S
C613 C614 1.378 . S
C614 C613 1.378 . S
C614 C615 1.378 . S
C614 H626 0.952 . S
C615 C614 1.378 . S
C615 H627 0.950 . S
C615 C646 1.383 . S
H616 C635 0.947 . S
H617 C636 0.946 . S
H618 C638 0.953 . S
H619 C639 0.945 . S
H620 C641 0.952 . S
H621 C642 0.949 . S
H622 C644 0.950 . S
H623 C645 0.948 . S
H624 C647 0.951 . S
H625 C612 0.947 . S
H626 C614 0.952 . S
H627 C615 0.950 . S
N628 C631 1.382 . S
N628 C633 1.363 . S
N629 C631 1.371 . S
N629 C632 1.372 . S
N630 C632 1.361 . S
N630 C633 1.377 . S
C631 N628 1.382 . S
C631 N629 1.371 . S
C631 C634 1.480 . S
C632 N629 1.372 . S
C632 N630 1.361 . S
C632 C640 1.457 . S
C633 N628 1.363 . S
C633 N630 1.377 . S
C633 C646 1.479 . S
C634 C631 1.480 . S
C634 C635 1.383 . S
C634 C639 1.385 . S
C635 H616 0.947 . S
C635 C634 1.383 . S
C635 C636 1.388 . S
C636 H617 0.946 . S
C636 C635 1.388 . S
C636 C637 1.384 . S
C637 C636 1.384 . S
C637 C638 1.377 . S
C638 H618 0.953 . S
C638 C637 1.377 . S
C638 C639 1.369 . S
C639 H619 0.945 . S
C639 C634 1.385 . S
C639 C638 1.369 . S
C640 C632 1.457 . S
C640 C641 1.372 . S
C640 C645 1.364 . S
C641 H620 0.952 . S
C641 C640 1.372 . S
C641 C642 1.389 . S
C642 H621 0.949 . S
C642 C641 1.389 . S
C642 C643 1.387 . S
C643 C642 1.387 . S
C643 C644 1.372 . S
C644 H622 0.950 . S
C644 C643 1.372 . S
C644 C645 1.379 . S
C645 H623 0.948 . S
C645 C640 1.364 . S
C645 C644 1.379 . S
C646 C615 1.383 . S
C646 C633 1.479 . S
C646 C647 1.398 . S
C647 C612 1.382 . S
C647 H624 0.951 . S
C647 C646 1.398 . S
Tb648 C658 2.825 . S
Tb648 O659 2.347 1_565 S
Tb648 O662 2.366 1_565 S
Tb648 O667 2.418 . S
Tb648 O668 2.429 . S
Tb648 O671 2.479 . S
Tb648 O672 2.467 1_565 S
Eu649 O660 2.418 . S
Eu649 O661 2.384 . S
Eu649 O664 2.479 . S
Eu649 O665 2.475 . S
Eu649 O666 2.347 1_545 S
Eu649 O669 2.366 1_545 S
Eu649 C679 2.825 . S
C650 O666 1.259 . S
C650 O667 1.265 1_554 S
C651 O668 1.203 1_554 S
C651 O669 1.265 . S
C652 C654 1.380 . S
C652 C655 1.374 1_565 S
C652 C658 1.507 . S
C653 C654 1.384 . S
C653 C657 1.387 1_565 S
C653 H680 0.930 . S
C654 C652 1.380 . S
C654 C653 1.384 . S
C654 H681 0.931 . S
C655 C652 1.374 1_545 S
C655 C656 1.390 . S
C655 H682 0.930 . S
C656 C655 1.390 . S
C656 C657 1.391 . S
C656 H683 0.930 . S
C657 C653 1.387 1_545 S
C657 C656 1.391 . S
C658 Tb648 2.825 . S
C658 C652 1.507 . S
C658 O671 1.238 . S
C658 O672 1.241 1_565 S
O659 Tb648 2.347 1_545 S
O659 C663 1.259 . S
O660 Eu649 2.418 . S
O660 C663 1.265 1_554 S
O661 Eu649 2.384 . S
O661 C670 1.255 1_554 S
O662 Tb648 2.366 1_545 S
O662 C670 1.265 . S
C663 O659 1.259 . S
C663 O660 1.265 1_556 S
O664 Eu649 2.479 . S
O664 C679 1.238 . S
O665 Eu649 2.475 . S
O665 C679 1.253 . S
O666 Eu649 2.347 1_565 S
O666 C650 1.259 . S
O667 Tb648 2.418 . S
O667 C650 1.265 1_556 S
O668 Tb648 2.429 . S
O668 C651 1.203 1_556 S
O669 Eu649 2.366 1_565 S
O669 C651 1.265 . S
C670 O661 1.255 1_556 S
C670 O662 1.265 . S
O671 Tb648 2.479 . S
O671 C658 1.238 . S
O672 Tb648 2.467 1_545 S
O672 C658 1.241 1_545 S
C673 C676 1.380 . S
C673 C677 1.374 1_545 S
C673 C679 1.507 . S
C674 C675 1.387 1_565 S
C674 C678 1.391 . S
C675 C674 1.387 1_545 S
C675 C676 1.384 . S
C675 H684 0.930 . S
C676 C673 1.380 . S
C676 C675 1.384 . S
C676 H685 0.931 . S
C677 C673 1.374 1_565 S
C677 C678 1.390 . S
C677 H686 0.930 . S
C678 C674 1.391 . S
C678 C677 1.390 . S
C678 H687 0.930 . S
C679 Eu649 2.825 . S
C679 O664 1.238 . S
C679 O665 1.253 . S
C679 C673 1.507 . S
H680 C653 0.930 . S
H681 C654 0.931 . S
H682 C655 0.930 . S
H683 C656 0.930 . S
H684 C675 0.930 . S
H685 C676 0.931 . S
H686 C677 0.930 . S
H687 C678 0.930 . S
Tb688 C698 2.825 . S
Tb688 O699 2.347 1_455 S
Tb688 O702 2.366 1_455 S
Tb688 O707 2.418 . S
Tb688 O708 2.384 1_556 S
Tb688 O711 2.479 . S
Tb688 O712 2.471 1_455 S
Eu689 O700 2.418 . S
Eu689 O701 2.335 1_554 S
Eu689 O704 2.479 . S
Eu689 O705 2.471 1_655 S
Eu689 O706 2.347 1_655 S
Eu689 O709 2.366 1_655 S
Eu689 C719 2.825 . S
C690 O706 1.259 . S
C690 O707 1.265 1_554 S
C691 O708 1.255 . S
C691 O709 1.265 . S
C692 C694 1.380 . S
C692 C695 1.374 1_455 S
C692 C698 1.507 . S
C693 C694 1.384 . S
C693 C697 1.387 1_455 S
C693 H720 0.930 . S
C694 C692 1.380 . S
C694 C693 1.384 . S
C694 H721 0.931 . S
C695 C692 1.374 1_655 S
C695 C696 1.390 . S
C695 H722 0.930 . S
C696 C695 1.390 . S
C696 C697 1.391 . S
C696 H723 0.930 . S
C697 C693 1.387 1_655 S
C697 C696 1.391 . S
C698 Tb688 2.825 . S
C698 C692 1.507 . S
C698 O711 1.238 . S
C698 O712 1.247 1_455 S
O699 Tb688 2.347 1_655 S
O699 C703 1.259 . S
O700 Eu689 2.418 . S
O700 C703 1.265 1_554 S
O701 Eu689 2.335 1_556 S
O701 C710 1.315 . S
O702 Tb688 2.366 1_655 S
O702 C710 1.265 . S
C703 O699 1.259 . S
C703 O700 1.265 1_556 S
O704 Eu689 2.479 . S
O704 C719 1.238 . S
O705 Eu689 2.471 1_455 S
O705 C719 1.247 1_455 S
O706 Eu689 2.347 1_455 S
O706 C690 1.259 . S
O707 Tb688 2.418 . S
O707 C690 1.265 1_556 S
O708 Tb688 2.384 1_554 S
O708 C691 1.255 . S
O709 Eu689 2.366 1_455 S
O709 C691 1.265 . S
C710 O701 1.315 . S
C710 O702 1.265 . S
O711 Tb688 2.479 . S
O711 C698 1.238 . S
O712 Tb688 2.471 1_655 S
O712 C698 1.247 1_655 S
C713 C716 1.380 . S
C713 C717 1.374 1_655 S
C713 C719 1.507 . S
C714 C715 1.387 1_455 S
C714 C718 1.391 . S
C715 C714 1.387 1_655 S
C715 C716 1.384 . S
C715 H724 0.930 . S
C716 C713 1.380 . S
C716 C715 1.384 . S
C716 H725 0.931 . S
C717 C713 1.374 1_455 S
C717 C718 1.390 . S
C717 H726 0.930 . S
C718 C714 1.391 . S
C718 C717 1.390 . S
C718 H727 0.930 . S
C719 Eu689 2.825 . S
C719 O704 1.238 . S
C719 O705 1.247 1_655 S
C719 C713 1.507 . S
H720 C693 0.930 . S
H721 C694 0.931 . S
H722 C695 0.930 . S
H723 C696 0.930 . S
H724 C715 0.930 . S
H725 C716 0.931 . S
H726 C717 0.930 . S
H727 C718 0.930 . S
Tb728 C738 2.825 . S
Tb728 O739 2.347 . S
Tb728 O742 2.366 . S
Tb728 O747 2.418 . S
Tb728 O748 2.384 . S
Tb728 O751 2.479 . S
Tb728 O752 2.471 . S
Eu729 O740 2.418 . S
Eu729 O741 2.384 1_556 S
Eu729 O744 2.479 . S
Eu729 O745 2.471 . S
Eu729 O746 2.347 . S
Eu729 O749 2.366 . S
Eu729 C759 2.825 . S
C730 O746 1.259 . S
C730 O747 1.265 1_556 S
C731 O748 1.255 1_556 S
C731 O749 1.265 . S
C732 C734 1.380 . S
C732 C735 1.374 . S
C732 C738 1.507 . S
C733 C734 1.384 . S
C733 C737 1.387 . S
C733 H760 0.930 . S
C734 C732 1.380 . S
C734 C733 1.384 . S
C734 H761 0.931 . S
C735 C732 1.374 . S
C735 C736 1.390 . S
C735 H762 0.930 . S
C736 C735 1.390 . S
C736 C737 1.391 . S
C736 H763 0.930 . S
C737 C733 1.387 . S
C737 C736 1.391 . S
C738 Tb728 2.825 . S
C738 C732 1.507 . S
C738 O751 1.238 . S
C738 O752 1.247 . S
O739 Tb728 2.347 . S
O739 C743 1.259 . S
O740 Eu729 2.418 . S
O740 C743 1.265 1_556 S
O741 Eu729 2.384 1_554 S
O741 C750 1.255 . S
O742 Tb728 2.366 . S
O742 C750 1.265 . S
C743 O739 1.259 . S
C743 O740 1.265 1_554 S
O744 Eu729 2.479 . S
O744 C759 1.238 . S
O745 Eu729 2.471 . S
O745 C759 1.247 . S
O746 Eu729 2.347 . S
O746 C730 1.259 . S
O747 Tb728 2.418 . S
O747 C730 1.265 1_554 S
O748 Tb728 2.384 . S
O748 C731 1.255 1_554 S
O749 Eu729 2.366 . S
O749 C731 1.265 . S
C750 O741 1.255 . S
C750 O742 1.265 . S
O751 Tb728 2.479 . S
O751 C738 1.238 . S
O752 Tb728 2.471 . S
O752 C738 1.247 . S
C753 C756 1.380 . S
C753 C757 1.374 . S
C753 C759 1.507 . S
C754 C755 1.387 . S
C754 C758 1.391 . S
C755 C754 1.387 . S
C755 C756 1.384 . S
C755 H764 0.930 . S
C756 C753 1.380 . S
C756 C755 1.384 . S
C756 H765 0.931 . S
C757 C753 1.374 . S
C757 C758 1.390 . S
C757 H766 0.930 . S
C758 C754 1.391 . S
C758 C757 1.390 . S
C758 H767 0.930 . S
C759 Eu729 2.825 . S
C759 O744 1.238 . S
C759 O745 1.247 . S
C759 C753 1.507 . S
H760 C733 0.930 . S
H761 C734 0.931 . S
H762 C735 0.930 . S
H763 C736 0.930 . S
H764 C755 0.930 . S
H765 C756 0.931 . S
H766 C757 0.930 . S
H767 C758 0.930 . S
Tb768 C778 2.825 . S
Tb768 O779 2.347 . S
Tb768 O782 2.366 . S
Tb768 O787 2.418 . S
Tb768 O788 2.384 . S
Tb768 O791 2.479 . S
Tb768 O792 2.471 . S
Eu769 O780 2.418 . S
Eu769 O781 2.384 . S
Eu769 O784 2.479 . S
Eu769 O785 2.471 . S
Eu769 O786 2.347 . S
Eu769 O789 2.366 . S
Eu769 C799 2.825 . S
C770 O786 1.259 . S
C770 O787 1.265 . S
C771 O788 1.255 . S
C771 O789 1.265 . S
C772 C774 1.380 . S
C772 C775 1.374 . S
C772 C778 1.507 . S
C773 C774 1.384 . S
C773 C777 1.387 . S
C773 H800 0.930 . S
C774 C772 1.380 . S
C774 C773 1.384 . S
C774 H801 0.931 . S
C775 C772 1.374 . S
C775 C776 1.390 . S
C775 H802 0.930 . S
C776 C775 1.390 . S
C776 C777 1.391 . S
C776 H803 0.930 . S
C777 C773 1.387 . S
C777 C776 1.391 . S
C778 Tb768 2.825 . S
C778 C772 1.507 . S
C778 O791 1.238 . S
C778 O792 1.247 . S
O779 Tb768 2.347 . S
O779 C783 1.259 . S
O780 Eu769 2.418 . S
O780 C783 1.265 . S
O781 Eu769 2.384 . S
O781 C790 1.255 . S
O782 Tb768 2.366 . S
O782 C790 1.265 . S
C783 O779 1.259 . S
C783 O780 1.265 . S
O784 Eu769 2.479 . S
O784 C799 1.238 . S
O785 Eu769 2.471 . S
O785 C799 1.247 . S
O786 Eu769 2.347 . S
O786 C770 1.259 . S
O787 Tb768 2.418 . S
O787 C770 1.265 . S
O788 Tb768 2.384 . S
O788 C771 1.255 . S
O789 Eu769 2.366 . S
O789 C771 1.265 . S
C790 O781 1.255 . S
C790 O782 1.265 . S
O791 Tb768 2.479 . S
O791 C778 1.238 . S
O792 Tb768 2.471 . S
O792 C778 1.247 . S
C793 C796 1.380 . S
C793 C797 1.374 . S
C793 C799 1.507 . S
C794 C795 1.387 . S
C794 C798 1.391 . S
C795 C794 1.387 . S
C795 C796 1.384 . S
C795 H804 0.930 . S
C796 C793 1.380 . S
C796 C795 1.384 . S
C796 H805 0.931 . S
C797 C793 1.374 . S
C797 C798 1.390 . S
C797 H806 0.930 . S
C798 C794 1.391 . S
C798 C797 1.390 . S
C798 H807 0.930 . S
C799 Eu769 2.825 . S
C799 O784 1.238 . S
C799 O785 1.247 . S
C799 C793 1.507 . S
H800 C773 0.930 . S
H801 C774 0.931 . S
H802 C775 0.930 . S
H803 C776 0.930 . S
H804 C795 0.930 . S
H805 C796 0.931 . S
H806 C797 0.930 . S
H807 C798 0.930 . S
Tb808 C818 2.825 . S
Tb808 O819 2.347 . S
Tb808 O822 2.366 . S
Tb808 O827 2.418 . S
Tb808 O828 2.384 . S
Tb808 O831 2.479 . S
Tb808 O832 2.471 . S
Eu809 O820 2.418 . S
Eu809 O821 2.384 . S
Eu809 O824 2.479 . S
Eu809 O825 2.471 . S
Eu809 O826 2.347 . S
Eu809 O829 2.366 . S
Eu809 C839 2.825 . S
C810 O826 1.259 . S
C810 O827 1.265 . S
C811 O828 1.255 . S
C811 O829 1.265 . S
C812 C814 1.380 . S
C812 C815 1.374 . S
C812 C818 1.507 . S
C813 C814 1.384 . S
C813 C817 1.387 . S
C813 H840 0.930 . S
C814 C812 1.380 . S
C814 C813 1.384 . S
C814 H841 0.931 . S
C815 C812 1.374 . S
C815 C816 1.390 . S
C815 H842 0.930 . S
C816 C815 1.390 . S
C816 C817 1.391 . S
C816 H843 0.930 . S
C817 C813 1.387 . S
C817 C816 1.391 . S
C818 Tb808 2.825 . S
C818 C812 1.507 . S
C818 O831 1.238 . S
C818 O832 1.247 . S
O819 Tb808 2.347 . S
O819 C823 1.259 . S
O820 Eu809 2.418 . S
O820 C823 1.265 . S
O821 Eu809 2.384 . S
O821 C830 1.255 . S
O822 Tb808 2.366 . S
O822 C830 1.265 . S
C823 O819 1.259 . S
C823 O820 1.265 . S
O824 Eu809 2.479 . S
O824 C839 1.238 . S
O825 Eu809 2.471 . S
O825 C839 1.247 . S
O826 Eu809 2.347 . S
O826 C810 1.259 . S
O827 Tb808 2.418 . S
O827 C810 1.265 . S
O828 Tb808 2.384 . S
O828 C811 1.255 . S
O829 Eu809 2.366 . S
O829 C811 1.265 . S
C830 O821 1.255 . S
C830 O822 1.265 . S
O831 Tb808 2.479 . S
O831 C818 1.238 . S
O832 Tb808 2.471 . S
O832 C818 1.247 . S
C833 C836 1.380 . S
C833 C837 1.374 . S
C833 C839 1.507 . S
C834 C835 1.387 . S
C834 C838 1.391 . S
C835 C834 1.387 . S
C835 C836 1.384 . S
C835 H844 0.930 . S
C836 C833 1.380 . S
C836 C835 1.384 . S
C836 H845 0.931 . S
C837 C833 1.374 . S
C837 C838 1.390 . S
C837 H846 0.930 . S
C838 C834 1.391 . S
C838 C837 1.390 . S
C838 H847 0.930 . S
C839 Eu809 2.825 . S
C839 O824 1.238 . S
C839 O825 1.247 . S
C839 C833 1.507 . S
H840 C813 0.930 . S
H841 C814 0.931 . S
H842 C815 0.930 . S
H843 C816 0.930 . S
H844 C835 0.930 . S
H845 C836 0.931 . S
H846 C837 0.930 . S
H847 C838 0.930 . S
Tb848 C858 2.825 . S
Tb848 O859 2.347 . S
Tb848 O862 2.366 . S
Tb848 O867 2.418 . S
Tb848 O868 2.384 . S
Tb848 O871 2.479 . S
Tb848 O872 2.471 . S
Eu849 O860 2.418 . S
Eu849 O861 2.384 . S
Eu849 O864 2.479 . S
Eu849 O865 2.471 . S
Eu849 O866 2.347 . S
Eu849 O869 2.366 . S
Eu849 C879 2.825 . S
C850 O866 1.259 . S
C850 O867 1.265 . S
C851 O868 1.255 . S
C851 O869 1.265 . S
C852 C854 1.380 . S
C852 C855 1.374 . S
C852 C858 1.507 . S
C853 C854 1.384 . S
C853 C857 1.387 . S
C853 H880 0.930 . S
C854 C852 1.380 . S
C854 C853 1.384 . S
C854 H881 0.931 . S
C855 C852 1.374 . S
C855 C856 1.390 . S
C855 H882 0.930 . S
C856 C855 1.390 . S
C856 C857 1.391 . S
C856 H883 0.930 . S
C857 C853 1.387 . S
C857 C856 1.391 . S
C858 Tb848 2.825 . S
C858 C852 1.507 . S
C858 O871 1.238 . S
C858 O872 1.247 . S
O859 Tb848 2.347 . S
O859 C863 1.259 . S
O860 Eu849 2.418 . S
O860 C863 1.265 . S
O861 Eu849 2.384 . S
O861 C870 1.255 . S
O862 Tb848 2.366 . S
O862 C870 1.265 . S
C863 O859 1.259 . S
C863 O860 1.265 . S
O864 Eu849 2.479 . S
O864 C879 1.238 . S
O865 Eu849 2.471 . S
O865 C879 1.247 . S
O866 Eu849 2.347 . S
O866 C850 1.259 . S
O867 Tb848 2.418 . S
O867 C850 1.265 . S
O868 Tb848 2.384 . S
O868 C851 1.255 . S
O869 Eu849 2.366 . S
O869 C851 1.265 . S
C870 O861 1.255 . S
C870 O862 1.265 . S
O871 Tb848 2.479 . S
O871 C858 1.238 . S
O872 Tb848 2.471 . S
O872 C858 1.247 . S
C873 C876 1.380 . S
C873 C877 1.374 . S
C873 C879 1.507 . S
C874 C875 1.387 . S
C874 C878 1.391 . S
C875 C874 1.387 . S
C875 C876 1.384 . S
C875 H884 0.930 . S
C876 C873 1.380 . S
C876 C875 1.384 . S
C876 H885 0.931 . S
C877 C873 1.374 . S
C877 C878 1.390 . S
C877 H886 0.930 . S
C878 C874 1.391 . S
C878 C877 1.390 . S
C878 H887 0.930 . S
C879 Eu849 2.825 . S
C879 O864 1.238 . S
C879 O865 1.247 . S
C879 C873 1.507 . S
H880 C853 0.930 . S
H881 C854 0.931 . S
H882 C855 0.930 . S
H883 C856 0.930 . S
H884 C875 0.930 . S
H885 C876 0.931 . S
H886 C877 0.930 . S
H887 C878 0.930 . S
Tb888 C898 2.825 . S
Tb888 O899 2.347 . S
Tb888 O902 2.366 . S
Tb888 O907 2.418 . S
Tb888 O908 2.384 . S
Tb888 O911 2.479 . S
Tb888 O912 2.471 . S
Eu889 O900 2.418 . S
Eu889 O901 2.384 . S
Eu889 O904 2.479 . S
Eu889 O905 2.471 . S
Eu889 O906 2.347 . S
Eu889 O909 2.366 . S
Eu889 C919 2.825 . S
C890 O906 1.259 . S
C890 O907 1.265 . S
C891 O908 1.255 . S
C891 O909 1.265 . S
C892 C894 1.380 . S
C892 C895 1.374 . S
C892 C898 1.507 . S
C893 C894 1.384 . S
C893 C897 1.387 . S
C893 H920 0.930 . S
C894 C892 1.380 . S
C894 C893 1.384 . S
C894 H921 0.931 . S
C895 C892 1.374 . S
C895 C896 1.390 . S
C895 H922 0.930 . S
C896 C895 1.390 . S
C896 C897 1.391 . S
C896 H923 0.930 . S
C897 C893 1.387 . S
C897 C896 1.391 . S
C898 Tb888 2.825 . S
C898 C892 1.507 . S
C898 O911 1.238 . S
C898 O912 1.247 . S
O899 Tb888 2.347 . S
O899 C903 1.259 . S
O900 Eu889 2.418 . S
O900 C903 1.265 . S
O901 Eu889 2.384 . S
O901 C910 1.255 . S
O902 Tb888 2.366 . S
O902 C910 1.265 . S
C903 O899 1.259 . S
C903 O900 1.265 . S
O904 Eu889 2.479 . S
O904 C919 1.238 . S
O905 Eu889 2.471 . S
O905 C919 1.247 . S
O906 Eu889 2.347 . S
O906 C890 1.259 . S
O907 Tb888 2.418 . S
O907 C890 1.265 . S
O908 Tb888 2.384 . S
O908 C891 1.255 . S
O909 Eu889 2.366 . S
O909 C891 1.265 . S
C910 O901 1.255 . S
C910 O902 1.265 . S
O911 Tb888 2.479 . S
O911 C898 1.238 . S
O912 Tb888 2.471 . S
O912 C898 1.247 . S
C913 C916 1.380 . S
C913 C917 1.374 . S
C913 C919 1.507 . S
C914 C915 1.387 . S
C914 C918 1.391 . S
C915 C914 1.387 . S
C915 C916 1.384 . S
C915 H924 0.930 . S
C916 C913 1.380 . S
C916 C915 1.384 . S
C916 H925 0.931 . S
C917 C913 1.374 . S
C917 C918 1.390 . S
C917 H926 0.930 . S
C918 C914 1.391 . S
C918 C917 1.390 . S
C918 H927 0.930 . S
C919 Eu889 2.825 . S
C919 O904 1.238 . S
C919 O905 1.247 . S
C919 C913 1.507 . S
H920 C893 0.930 . S
H921 C894 0.931 . S
H922 C895 0.930 . S
H923 C896 0.930 . S
H924 C915 0.930 . S
H925 C916 0.931 . S
H926 C917 0.930 . S
H927 C918 0.930 . S
Tb928 C938 2.825 . S
Tb928 O939 2.347 . S
Tb928 O942 2.366 . S
Tb928 O947 2.418 . S
Tb928 O948 2.384 . S
Tb928 O951 2.479 . S
Tb928 O952 2.471 . S
Eu929 O940 2.418 . S
Eu929 O941 2.384 . S
Eu929 O944 2.479 . S
Eu929 O945 2.471 . S
Eu929 O946 2.347 . S
Eu929 O949 2.366 . S
Eu929 C959 2.825 . S
C930 O946 1.259 . S
C930 O947 1.265 . S
C931 O948 1.255 . S
C931 O949 1.265 . S
C932 C934 1.380 . S
C932 C935 1.374 . S
C932 C938 1.507 . S
C933 C934 1.384 . S
C933 C937 1.387 . S
C933 H960 0.930 . S
C934 C932 1.380 . S
C934 C933 1.384 . S
C934 H961 0.931 . S
C935 C932 1.374 . S
C935 C936 1.390 . S
C935 H962 0.930 . S
C936 C935 1.390 . S
C936 C937 1.391 . S
C936 H963 0.930 . S
C937 C933 1.387 . S
C937 C936 1.391 . S
C938 Tb928 2.825 . S
C938 C932 1.507 . S
C938 O951 1.238 . S
C938 O952 1.247 . S
O939 Tb928 2.347 . S
O939 C943 1.259 . S
O940 Eu929 2.418 . S
O940 C943 1.265 . S
O941 Eu929 2.384 . S
O941 C950 1.255 . S
O942 Tb928 2.366 . S
O942 C950 1.265 . S
C943 O939 1.259 . S
C943 O940 1.265 . S
O944 Eu929 2.479 . S
O944 C959 1.238 . S
O945 Eu929 2.471 . S
O945 C959 1.247 . S
O946 Eu929 2.347 . S
O946 C930 1.259 . S
O947 Tb928 2.418 . S
O947 C930 1.265 . S
O948 Tb928 2.384 . S
O948 C931 1.255 . S
O949 Eu929 2.366 . S
O949 C931 1.265 . S
C950 O941 1.255 . S
C950 O942 1.265 . S
O951 Tb928 2.479 . S
O951 C938 1.238 . S
O952 Tb928 2.471 . S
O952 C938 1.247 . S
C953 C956 1.380 . S
C953 C957 1.374 . S
C953 C959 1.507 . S
C954 C955 1.387 . S
C954 C958 1.391 . S
C955 C954 1.387 . S
C955 C956 1.384 . S
C955 H964 0.930 . S
C956 C953 1.380 . S
C956 C955 1.384 . S
C956 H965 0.931 . S
C957 C953 1.374 . S
C957 C958 1.390 . S
C957 H966 0.930 . S
C958 C954 1.391 . S
C958 C957 1.390 . S
C958 H967 0.930 . S
C959 Eu929 2.825 . S
C959 O944 1.238 . S
C959 O945 1.247 . S
C959 C953 1.507 . S
H960 C933 0.930 . S
H961 C934 0.931 . S
H962 C935 0.930 . S
H963 C936 0.930 . S
H964 C955 0.930 . S
H965 C956 0.931 . S
H966 C957 0.930 . S
H967 C958 0.930 . S
Tb968 C978 2.825 . S
Tb968 O979 2.347 . S
Tb968 O982 2.366 . S
Tb968 O987 2.418 . S
Tb968 O988 2.384 . S
Tb968 O991 2.479 . S
Tb968 O992 2.471 . S
Eu969 O980 2.418 . S
Eu969 O981 2.384 . S
Eu969 O984 2.479 . S
Eu969 O985 2.471 . S
Eu969 O986 2.347 . S
Eu969 O989 2.366 . S
Eu969 C999 2.825 . S
C970 O986 1.259 . S
C970 O987 1.265 . S
C971 O988 1.255 . S
C971 O989 1.265 . S
C972 C974 1.380 . S
C972 C975 1.374 . S
C972 C978 1.507 . S
C973 C974 1.384 . S
C973 C977 1.387 . S
C973 H1000 0.930 . S
C974 C972 1.380 . S
C974 C973 1.384 . S
C974 H1001 0.931 . S
C975 C972 1.374 . S
C975 C976 1.390 . S
C975 H1002 0.930 . S
C976 C975 1.390 . S
C976 C977 1.391 . S
C976 H1003 0.930 . S
C977 C973 1.387 . S
C977 C976 1.391 . S
C978 Tb968 2.825 . S
C978 C972 1.507 . S
C978 O991 1.238 . S
C978 O992 1.247 . S
O979 Tb968 2.347 . S
O979 C983 1.259 . S
O980 Eu969 2.418 . S
O980 C983 1.265 . S
O981 Eu969 2.384 . S
O981 C990 1.255 . S
O982 Tb968 2.366 . S
O982 C990 1.265 . S
C983 O979 1.259 . S
C983 O980 1.265 . S
O984 Eu969 2.479 . S
O984 C999 1.238 . S
O985 Eu969 2.471 . S
O985 C999 1.247 . S
O986 Eu969 2.347 . S
O986 C970 1.259 . S
O987 Tb968 2.418 . S
O987 C970 1.265 . S
O988 Tb968 2.384 . S
O988 C971 1.255 . S
O989 Eu969 2.366 . S
O989 C971 1.265 . S
C990 O981 1.255 . S
C990 O982 1.265 . S
O991 Tb968 2.479 . S
O991 C978 1.238 . S
O992 Tb968 2.471 . S
O992 C978 1.247 . S
C993 C996 1.380 . S
C993 C997 1.374 . S
C993 C999 1.507 . S
C994 C995 1.387 . S
C994 C998 1.391 . S
C995 C994 1.387 . S
C995 C996 1.384 . S
C995 H1004 0.930 . S
C996 C993 1.380 . S
C996 C995 1.384 . S
C996 H1005 0.931 . S
C997 C993 1.374 . S
C997 C998 1.390 . S
C997 H1006 0.930 . S
C998 C994 1.391 . S
C998 C997 1.390 . S
C998 H1007 0.930 . S
C999 Eu969 2.825 . S
C999 O984 1.238 . S
C999 O985 1.247 . S
C999 C993 1.507 . S
H1000 C973 0.930 . S
H1001 C974 0.931 . S
H1002 C975 0.930 . S
H1003 C976 0.930 . S
H1004 C995 0.930 . S
H1005 C996 0.931 . S
H1006 C997 0.930 . S
H1007 C998 0.930 . S
C1008 C1009 1.369 . S
C1008 C1010 1.419 . S
C1008 H1012 0.930 . S
C1009 C1008 1.369 . S
C1009 C1018 1.429 . S
C1010 C1008 1.419 . S
C1010 C1011 1.363 . S
C1010 H1013 0.929 . S
C1011 C1010 1.363 . S
C1011 C1017 1.428 . S
H1012 C1008 0.930 . S
H1013 C1010 0.929 . S
S1014 N1015 1.613 . S
S1014 N1016 1.610 . S
N1015 S1014 1.613 . S
N1015 C1018 1.350 . S
N1016 S1014 1.610 . S
N1016 C1017 1.351 . S
C1017 C1011 1.428 . S
C1017 N1016 1.351 . S
C1017 C1018 1.434 . S
C1018 C1009 1.429 . S
C1018 N1015 1.350 . S
C1018 C1017 1.434 . S
C1019 C1020 1.369 . S
C1019 C1021 1.419 . S
C1019 H1023 0.930 . S
C1020 C1019 1.369 . S
C1020 C1029 1.429 . S
C1021 C1019 1.419 . S
C1021 C1022 1.363 . S
C1021 H1024 0.929 . S
C1022 C1021 1.363 . S
C1022 C1028 1.428 . S
H1023 C1019 0.930 . S
H1024 C1021 0.929 . S
S1025 N1026 1.613 . S
S1025 N1027 1.610 . S
N1026 S1025 1.613 . S
N1026 C1029 1.350 . S
N1027 S1025 1.610 . S
N1027 C1028 1.351 . S
C1028 C1022 1.428 . S
C1028 N1027 1.351 . S
C1028 C1029 1.434 . S
C1029 C1020 1.429 . S
C1029 N1026 1.350 . S
C1029 C1028 1.434 . S
C1030 C1031 1.369 . S
C1030 C1032 1.419 . S
C1030 H1034 0.930 . S
C1031 C1030 1.369 . S
C1031 C1040 1.429 . S
C1032 C1030 1.419 . S
C1032 C1033 1.363 . S
C1032 H1035 0.929 . S
C1033 C1032 1.363 . S
C1033 C1039 1.428 . S
H1034 C1030 0.930 . S
H1035 C1032 0.929 . S
S1036 N1037 1.613 . S
S1036 N1038 1.610 . S
N1037 S1036 1.613 . S
N1037 C1040 1.350 . S
N1038 S1036 1.610 . S
N1038 C1039 1.351 . S
C1039 C1033 1.428 . S
C1039 N1038 1.351 . S
C1039 C1040 1.434 . S
C1040 C1031 1.429 . S
C1040 N1037 1.350 . S
C1040 C1039 1.434 . S
C1041 C1042 1.369 . S
C1041 C1043 1.419 . S
C1041 H1045 0.930 . S
C1042 C1041 1.369 . S
C1042 C1051 1.429 . S
C1043 C1041 1.419 . S
C1043 C1044 1.363 . S
C1043 H1046 0.929 . S
C1044 C1043 1.363 . S
C1044 C1050 1.428 . S
H1045 C1041 0.930 . S
H1046 C1043 0.929 . S
S1047 N1048 1.613 . S
S1047 N1049 1.610 . S
N1048 S1047 1.613 . S
N1048 C1051 1.350 1_554 S
N1049 S1047 1.610 . S
N1049 C1050 1.351 1_554 S
C1050 C1044 1.428 . S
C1050 N1049 1.351 1_556 S
C1050 C1051 1.434 . S
C1051 C1042 1.429 . S
C1051 N1048 1.350 1_556 S
C1051 C1050 1.434 . S
C1052 C1053 1.369 . S
C1052 C1054 1.419 . S
C1052 H1056 0.930 . S
C1053 C1052 1.369 . S
C1053 C1062 1.429 . S
C1054 C1052 1.419 . S
C1054 C1055 1.363 . S
C1054 H1057 0.929 . S
C1055 C1054 1.363 . S
C1055 C1061 1.428 . S
H1056 C1052 0.930 . S
H1057 C1054 0.929 . S
S1058 N1059 1.613 . S
S1058 N1060 1.610 . S
N1059 S1058 1.613 . S
N1059 C1062 1.350 . S
N1060 S1058 1.610 . S
N1060 C1061 1.351 . S
C1061 C1055 1.428 . S
C1061 N1060 1.351 . S
C1061 C1062 1.434 . S
C1062 C1053 1.429 . S
C1062 N1059 1.350 . S
C1062 C1061 1.434 . S
C1063 C1064 1.369 . S
C1063 C1065 1.419 . S
C1063 H1067 0.930 . S
C1064 C1063 1.369 . S
C1064 C1073 1.429 . S
C1065 C1063 1.419 . S
C1065 C1066 1.363 . S
C1065 H1068 0.926 1_556 S
C1066 C1065 1.363 . S
C1066 C1072 1.428 . S
H1067 C1063 0.930 . S
H1068 C1065 0.926 1_554 S
S1069 N1070 1.613 . S
S1069 N1071 1.610 . S
N1070 S1069 1.613 . S
N1070 C1073 1.350 . S
N1071 S1069 1.610 . S
N1071 C1072 1.351 . S
C1072 C1066 1.428 . S
C1072 N1071 1.351 . S
C1072 C1073 1.434 . S
C1073 C1064 1.429 . S
C1073 N1070 1.350 . S
C1073 C1072 1.434 . S
C1074 C1075 1.369 . S
C1074 C1076 1.419 . S
C1074 H1078 0.930 . S
C1075 C1074 1.369 . S
C1075 C1084 1.429 . S
C1076 C1074 1.419 . S
C1076 C1077 1.363 . S
C1076 H1079 0.929 1_556 S
C1077 C1076 1.363 . S
C1077 C1083 1.428 . S
H1078 C1074 0.930 . S
H1079 C1076 0.929 1_554 S
S1080 N1081 1.613 . S
S1080 N1082 1.610 . S
N1081 S1080 1.613 . S
N1081 C1084 1.350 . S
N1082 S1080 1.610 . S
N1082 C1083 1.351 . S
C1083 C1077 1.428 . S
C1083 N1082 1.351 . S
C1083 C1084 1.434 . S
C1084 C1075 1.429 . S
C1084 N1081 1.350 . S
C1084 C1083 1.434 . S
C1085 C1086 1.369 . S
C1085 C1087 1.419 . S
C1085 H1089 0.930 . S
C1086 C1085 1.369 . S
C1086 C1095 1.429 . S
C1087 C1085 1.419 . S
C1087 C1088 1.363 . S
C1087 H1090 0.929 . S
C1088 C1087 1.363 . S
C1088 C1094 1.428 . S
H1089 C1085 0.930 . S
H1090 C1087 0.929 . S
S1091 N1092 1.613 . S
S1091 N1093 1.610 . S
N1092 S1091 1.613 . S
N1092 C1095 1.350 . S
N1093 S1091 1.610 . S
N1093 C1094 1.351 . S
C1094 C1088 1.428 . S
C1094 N1093 1.351 . S
C1094 C1095 1.434 . S
C1095 C1086 1.429 . S
C1095 N1092 1.350 . S
C1095 C1094 1.434 . S
C1096 C1097 1.369 . S
C1096 C1098 1.419 . S
C1096 H1100 0.930 . S
C1097 C1096 1.369 . S
C1097 C1106 1.429 . S
C1098 C1096 1.419 . S
C1098 C1099 1.363 . S
C1098 H1101 0.929 . S
C1099 C1098 1.363 . S
C1099 C1105 1.428 . S
H1100 C1096 0.930 . S
H1101 C1098 0.929 . S
S1102 N1103 1.613 . S
S1102 N1104 1.610 . S
N1103 S1102 1.613 . S
N1103 C1106 1.350 . S
N1104 S1102 1.610 . S
N1104 C1105 1.351 . S
C1105 C1099 1.428 . S
C1105 N1104 1.351 . S
C1105 C1106 1.434 . S
C1106 C1097 1.429 . S
C1106 N1103 1.350 . S
C1106 C1105 1.434 . S
C1107 C1108 1.369 . S
C1107 C1109 1.419 . S
C1107 H1111 0.930 . S
C1108 C1107 1.369 . S
C1108 C1117 1.429 . S
C1109 C1107 1.419 . S
C1109 C1110 1.363 . S
C1109 H1112 0.929 . S
C1110 C1109 1.363 . S
C1110 C1116 1.428 . S
H1111 C1107 0.930 . S
H1112 C1109 0.929 . S
S1113 N1114 1.613 . S
S1113 N1115 1.610 . S
N1114 S1113 1.613 . S
N1114 C1117 1.350 . S
N1115 S1113 1.610 . S
N1115 C1116 1.351 . S
C1116 C1110 1.428 . S
C1116 N1115 1.351 . S
C1116 C1117 1.434 . S
C1117 C1108 1.429 . S
C1117 N1114 1.350 . S
C1117 C1116 1.434 . S
C1118 C1119 1.369 . S
C1118 C1120 1.419 . S
C1118 H1122 0.930 . S
C1119 C1118 1.369 . S
C1119 C1128 1.429 . S
C1120 C1118 1.419 . S
C1120 C1121 1.363 . S
C1120 H1123 0.929 . S
C1121 C1120 1.363 . S
C1121 C1127 1.428 . S
H1122 C1118 0.930 . S
H1123 C1120 0.929 . S
S1124 N1125 1.613 . S
S1124 N1126 1.610 . S
N1125 S1124 1.613 . S
N1125 C1128 1.350 . S
N1126 S1124 1.610 . S
N1126 C1127 1.351 . S
C1127 C1121 1.428 . S
C1127 N1126 1.351 . S
C1127 C1128 1.434 . S
C1128 C1119 1.429 . S
C1128 N1125 1.350 . S
C1128 C1127 1.434 . S
C1129 C1130 1.369 . S
C1129 C1131 1.419 . S
C1129 H1133 0.930 1_554 S
C1130 C1129 1.369 . S
C1130 C1139 1.429 . S
C1131 C1129 1.419 . S
C1131 C1132 1.363 . S
C1131 H1134 0.929 1_554 S
C1132 C1131 1.363 . S
C1132 C1138 1.428 . S
H1133 C1129 0.930 1_556 S
H1134 C1131 0.929 1_556 S
S1135 N1136 1.613 . S
S1135 N1137 1.610 . S
N1136 S1135 1.613 . S
N1136 C1139 1.350 . S
N1137 S1135 1.610 . S
N1137 C1138 1.351 . S
C1138 C1132 1.428 . S
C1138 N1137 1.351 . S
C1138 C1139 1.434 . S
C1139 C1130 1.429 . S
C1139 N1136 1.350 . S
C1139 C1138 1.434 . S
C1140 C1141 1.369 . S
C1140 C1142 1.419 . S
C1140 H1144 0.930 . S
C1141 C1140 1.369 . S
C1141 C1150 1.429 . S
C1142 C1140 1.419 . S
C1142 C1143 1.363 . S
C1142 H1145 0.929 . S
C1143 C1142 1.363 . S
C1143 C1149 1.428 . S
H1144 C1140 0.930 . S
H1145 C1142 0.929 . S
S1146 N1147 1.613 . S
S1146 N1148 1.610 . S
N1147 S1146 1.613 . S
N1147 C1150 1.350 . S
N1148 S1146 1.610 . S
N1148 C1149 1.351 . S
C1149 C1143 1.428 . S
C1149 N1148 1.351 . S
C1149 C1150 1.434 . S
C1150 C1141 1.429 . S
C1150 N1147 1.350 . S
C1150 C1149 1.434 . S
C1151 C1152 1.369 . S
C1151 C1153 1.419 . S
C1151 H1155 0.930 . S
C1152 C1151 1.369 . S
C1152 C1161 1.429 . S
C1153 C1151 1.419 . S
C1153 C1154 1.363 . S
C1153 H1156 0.929 . S
C1154 C1153 1.363 . S
C1154 C1160 1.428 . S
H1155 C1151 0.930 . S
H1156 C1153 0.929 . S
S1157 N1158 1.613 . S
S1157 N1159 1.610 . S
N1158 S1157 1.613 . S
N1158 C1161 1.350 . S
N1159 S1157 1.610 . S
N1159 C1160 1.351 . S
C1160 C1154 1.428 . S
C1160 N1159 1.351 . S
C1160 C1161 1.434 . S
C1161 C1152 1.429 . S
C1161 N1158 1.350 . S
C1161 C1160 1.434 . S
C1162 C1163 1.369 1_565 S
C1162 C1164 1.419 . S
C1162 H1166 0.930 . S
C1163 C1162 1.369 1_545 S
C1163 C1172 1.429 1_545 S
C1164 C1162 1.419 . S
C1164 C1165 1.363 . S
C1164 H1167 0.929 . S
C1165 C1164 1.363 . S
C1165 C1171 1.428 . S
H1166 C1162 0.930 . S
H1167 C1164 0.929 . S
S1168 N1169 1.613 1_565 S
S1168 N1170 1.610 . S
N1169 S1168 1.613 1_545 S
N1169 C1172 1.350 1_545 S
N1170 S1168 1.610 . S
N1170 C1171 1.351 . S
C1171 C1165 1.428 . S
C1171 N1170 1.351 . S
C1171 C1172 1.434 . S
C1172 C1163 1.429 1_565 S
C1172 N1169 1.350 1_565 S
C1172 C1171 1.434 . S
C1173 C1174 1.369 . S
C1173 C1175 1.419 . S
C1173 H1177 0.930 . S
C1174 C1173 1.369 . S
C1174 C1183 1.429 . S
C1175 C1173 1.419 . S
C1175 C1176 1.363 . S
C1175 H1178 0.929 . S
C1176 C1175 1.363 . S
C1176 C1182 1.428 . S
H1177 C1173 0.930 . S
H1178 C1175 0.929 . S
S1179 N1180 1.613 . S
S1179 N1181 1.610 . S
N1180 S1179 1.613 . S
N1180 C1183 1.350 . S
N1181 S1179 1.610 . S
N1181 C1182 1.351 . S
C1182 C1176 1.428 . S
C1182 N1181 1.351 . S
C1182 C1183 1.434 . S
C1183 C1174 1.429 . S
C1183 N1180 1.350 . S
C1183 C1182 1.434 . S
C1184 C1185 1.369 . S
C1184 C1186 1.419 . S
C1184 H1188 0.930 . S
C1185 C1184 1.369 . S
C1185 C1194 1.429 . S
C1186 C1184 1.419 . S
C1186 C1187 1.363 . S
C1186 H1189 0.929 . S
C1187 C1186 1.363 . S
C1187 C1193 1.428 . S
H1188 C1184 0.930 . S
H1189 C1186 0.929 . S
S1190 N1191 1.613 . S
S1190 N1192 1.610 . S
N1191 S1190 1.613 . S
N1191 C1194 1.350 . S
N1192 S1190 1.610 . S
N1192 C1193 1.351 . S
C1193 C1187 1.428 . S
C1193 N1192 1.351 . S
C1193 C1194 1.434 . S
C1194 C1185 1.429 . S
C1194 N1191 1.350 . S
C1194 C1193 1.434 . S
C1195 C1196 1.369 . S
C1195 C1197 1.419 . S
C1195 H1199 0.930 . S
C1196 C1195 1.369 . S
C1196 C1205 1.429 . S
C1197 C1195 1.419 . S
C1197 C1198 1.363 . S
C1197 H1200 0.929 . S
C1198 C1197 1.363 . S
C1198 C1204 1.428 . S
H1199 C1195 0.930 . S
H1200 C1197 0.929 . S
S1201 N1202 1.613 . S
S1201 N1203 1.610 . S
N1202 S1201 1.613 . S
N1202 C1205 1.350 . S
N1203 S1201 1.610 . S
N1203 C1204 1.351 . S
C1204 C1198 1.428 . S
C1204 N1203 1.351 . S
C1204 C1205 1.434 . S
C1205 C1196 1.429 . S
C1205 N1202 1.350 . S
C1205 C1204 1.434 . S
C1206 C1207 1.369 . S
C1206 C1208 1.419 . S
C1206 H1210 0.930 . S
C1207 C1206 1.369 . S
C1207 C1216 1.429 . S
C1208 C1206 1.419 . S
C1208 C1209 1.363 . S
C1208 H1211 0.929 . S
C1209 C1208 1.363 . S
C1209 C1215 1.428 . S
H1210 C1206 0.930 . S
H1211 C1208 0.929 . S
S1212 N1213 1.613 . S
S1212 N1214 1.610 . S
N1213 S1212 1.613 . S
N1213 C1216 1.350 . S
N1214 S1212 1.610 . S
N1214 C1215 1.351 . S
C1215 C1209 1.428 . S
C1215 N1214 1.351 . S
C1215 C1216 1.434 . S
C1216 C1207 1.429 . S
C1216 N1213 1.350 . S
C1216 C1215 1.434 . S
C1217 C1218 1.369 . S
C1217 C1219 1.419 . S
C1217 H1221 0.930 . S
C1218 C1217 1.369 . S
C1218 C1227 1.429 . S
C1219 C1217 1.419 . S
C1219 C1220 1.363 . S
C1219 H1222 0.929 . S
C1220 C1219 1.363 . S
C1220 C1226 1.428 . S
H1221 C1217 0.930 . S
H1222 C1219 0.929 . S
S1223 N1224 1.613 . S
S1223 N1225 1.610 . S
N1224 S1223 1.613 . S
N1224 C1227 1.350 . S
N1225 S1223 1.610 . S
N1225 C1226 1.351 . S
C1226 C1220 1.428 . S
C1226 N1225 1.351 . S
C1226 C1227 1.434 . S
C1227 C1218 1.429 . S
C1227 N1224 1.350 . S
C1227 C1226 1.434 . S
C1228 C1229 1.369 . S
C1228 C1230 1.419 . S
C1228 H1232 0.930 . S
C1229 C1228 1.369 . S
C1229 C1238 1.429 . S
C1230 C1228 1.419 . S
C1230 C1231 1.363 . S
C1230 H1233 0.929 . S
C1231 C1230 1.363 . S
C1231 C1237 1.428 . S
H1232 C1228 0.930 . S
H1233 C1230 0.929 . S
S1234 N1235 1.613 . S
S1234 N1236 1.610 . S
N1235 S1234 1.613 . S
N1235 C1238 1.350 . S
N1236 S1234 1.610 . S
N1236 C1237 1.351 . S
C1237 C1231 1.428 . S
C1237 N1236 1.351 . S
C1237 C1238 1.434 . S
C1238 C1229 1.429 . S
C1238 N1235 1.350 . S
C1238 C1237 1.434 . S
C1239 C1240 1.369 1_565 S
C1239 C1241 1.419 . S
C1239 H1243 0.930 . S
C1240 C1239 1.369 1_545 S
C1240 C1249 1.429 1_545 S
C1241 C1239 1.419 . S
C1241 C1242 1.363 . S
C1241 H1244 0.929 . S
C1242 C1241 1.363 . S
C1242 C1248 1.428 . S
H1243 C1239 0.930 . S
H1244 C1241 0.929 . S
S1245 N1246 1.613 . S
S1245 N1247 1.610 . S
N1246 S1245 1.613 . S
N1246 C1249 1.350 . S
N1247 S1245 1.610 . S
N1247 C1248 1.351 . S
C1248 C1242 1.428 . S
C1248 N1247 1.351 . S
C1248 C1249 1.434 . S
C1249 C1240 1.429 1_565 S
C1249 N1246 1.350 . S
C1249 C1248 1.434 . S
C1250 C1251 1.369 . S
C1250 C1252 1.419 . S
C1250 H1254 0.930 . S
C1251 C1250 1.369 . S
C1251 C1260 1.429 . S
C1252 C1250 1.419 . S
C1252 C1253 1.363 . S
C1252 H1255 0.929 . S
C1253 C1252 1.363 . S
C1253 C1259 1.428 . S
H1254 C1250 0.930 . S
H1255 C1252 0.929 . S
S1256 N1257 1.613 . S
S1256 N1258 1.610 . S
N1257 S1256 1.613 . S
N1257 C1260 1.350 . S
N1258 S1256 1.610 . S
N1258 C1259 1.351 . S
C1259 C1253 1.428 . S
C1259 N1258 1.351 . S
C1259 C1260 1.434 . S
C1260 C1251 1.429 . S
C1260 N1257 1.350 . S
C1260 C1259 1.434 . S
C1261 C1262 1.369 . S
C1261 C1263 1.419 . S
C1261 H1265 0.930 . S
C1262 C1261 1.369 . S
C1262 C1271 1.429 . S
C1263 C1261 1.419 . S
C1263 C1264 1.363 . S
C1263 H1266 0.929 . S
C1264 C1263 1.363 . S
C1264 C1270 1.428 . S
H1265 C1261 0.930 . S
H1266 C1263 0.929 . S
S1267 N1268 1.613 . S
S1267 N1269 1.610 . S
N1268 S1267 1.613 . S
N1268 C1271 1.350 . S
N1269 S1267 1.610 . S
N1269 C1270 1.351 . S
C1270 C1264 1.428 . S
C1270 N1269 1.351 . S
C1270 C1271 1.434 . S
C1271 C1262 1.429 . S
C1271 N1268 1.350 . S
C1271 C1270 1.434 . S
C1272 C1273 1.369 . S
C1272 C1274 1.419 . S
C1272 H1276 0.930 . S
C1273 C1272 1.369 . S
C1273 C1282 1.429 . S
C1274 C1272 1.419 . S
C1274 C1275 1.363 . S
C1274 H1277 0.929 . S
C1275 C1274 1.363 . S
C1275 C1281 1.428 . S
H1276 C1272 0.930 . S
H1277 C1274 0.929 . S
S1278 N1279 1.613 . S
S1278 N1280 1.610 . S
N1279 S1278 1.613 . S
N1279 C1282 1.350 . S
N1280 S1278 1.610 . S
N1280 C1281 1.351 . S
C1281 C1275 1.428 . S
C1281 N1280 1.351 . S
C1281 C1282 1.434 . S
C1282 C1273 1.429 . S
C1282 N1279 1.350 . S
C1282 C1281 1.434 . S
C1283 C1284 1.369 . S
C1283 C1285 1.419 . S
C1283 H1287 0.930 . S
C1284 C1283 1.369 . S
C1284 C1293 1.429 . S
C1285 C1283 1.419 . S
C1285 C1286 1.363 . S
C1285 H1288 0.929 . S
C1286 C1285 1.363 . S
C1286 C1292 1.428 . S
H1287 C1283 0.930 . S
H1288 C1285 0.929 . S
S1289 N1290 1.613 . S
S1289 N1291 1.610 . S
N1290 S1289 1.613 . S
N1290 C1293 1.350 . S
N1291 S1289 1.610 . S
N1291 C1292 1.351 . S
C1292 C1286 1.428 . S
C1292 N1291 1.351 . S
C1292 C1293 1.434 . S
C1293 C1284 1.429 . S
C1293 N1290 1.350 . S
C1293 C1292 1.434 . S
C1294 C1295 1.369 . S
C1294 C1296 1.419 . S
C1294 H1298 0.930 . S
C1295 C1294 1.369 . S
C1295 C1304 1.429 . S
C1296 C1294 1.419 . S
C1296 C1297 1.363 . S
C1296 H1299 0.929 . S
C1297 C1296 1.363 . S
C1297 C1303 1.428 . S
H1298 C1294 0.930 . S
H1299 C1296 0.929 . S
S1300 N1301 1.613 . S
S1300 N1302 1.610 . S
N1301 S1300 1.613 . S
N1301 C1304 1.350 . S
N1302 S1300 1.610 . S
N1302 C1303 1.351 . S
C1303 C1297 1.428 . S
C1303 N1302 1.351 . S
C1303 C1304 1.434 . S
C1304 C1295 1.429 . S
C1304 N1301 1.350 . S
C1304 C1303 1.434 . S
C1305 C1306 1.369 1_545 S
C1305 C1307 1.419 . S
C1305 H1309 0.930 . S
C1306 C1305 1.369 1_565 S
C1306 C1315 1.429 1_565 S
C1307 C1305 1.419 . S
C1307 C1308 1.363 . S
C1307 H1310 0.929 . S
C1308 C1307 1.363 . S
C1308 C1314 1.428 . S
H1309 C1305 0.930 . S
H1310 C1307 0.929 . S
S1311 N1312 1.613 . S
S1311 N1313 1.610 . S
N1312 S1311 1.613 . S
N1312 C1315 1.350 . S
N1313 S1311 1.610 . S
N1313 C1314 1.351 . S
C1314 C1308 1.428 . S
C1314 N1313 1.351 . S
C1314 C1315 1.434 . S
C1315 C1306 1.429 1_545 S
C1315 N1312 1.350 . S
C1315 C1314 1.434 . S
C1316 C1317 1.369 . S
C1316 C1318 1.419 . S
C1316 H1320 0.930 . S
C1317 C1316 1.369 . S
C1317 C1326 1.429 . S
C1318 C1316 1.419 . S
C1318 C1319 1.363 . S
C1318 H1321 0.929 . S
C1319 C1318 1.363 . S
C1319 C1325 1.428 . S
H1320 C1316 0.930 . S
H1321 C1318 0.929 . S
S1322 N1323 1.613 . S
S1322 N1324 1.610 . S
N1323 S1322 1.613 . S
N1323 C1326 1.350 . S
N1324 S1322 1.610 . S
N1324 C1325 1.351 . S
C1325 C1319 1.428 . S
C1325 N1324 1.351 . S
C1325 C1326 1.434 . S
C1326 C1317 1.429 . S
C1326 N1323 1.350 . S
C1326 C1325 1.434 . S
C1327 C1328 1.369 . S
C1327 C1329 1.419 . S
C1327 H1331 0.930 . S
C1328 C1327 1.369 . S
C1328 C1337 1.429 . S
C1329 C1327 1.419 . S
C1329 C1330 1.363 . S
C1329 H1332 0.929 . S
C1330 C1329 1.363 . S
C1330 C1336 1.428 . S
H1331 C1327 0.930 . S
H1332 C1329 0.929 . S
S1333 N1334 1.613 . S
S1333 N1335 1.610 . S
N1334 S1333 1.613 . S
N1334 C1337 1.350 . S
N1335 S1333 1.610 . S
N1335 C1336 1.351 . S
C1336 C1330 1.428 . S
C1336 N1335 1.351 . S
C1336 C1337 1.434 . S
C1337 C1328 1.429 . S
C1337 N1334 1.350 . S
C1337 C1336 1.434 . S
C1338 C1339 1.369 . S
C1338 C1340 1.419 . S
C1338 H1342 0.930 . S
C1339 C1338 1.369 . S
C1339 C1348 1.429 . S
C1340 C1338 1.419 . S
C1340 C1341 1.363 . S
C1340 H1343 0.929 . S
C1341 C1340 1.363 . S
C1341 C1347 1.428 . S
H1342 C1338 0.930 . S
H1343 C1340 0.929 . S
S1344 N1345 1.613 . S
S1344 N1346 1.610 . S
N1345 S1344 1.613 . S
N1345 C1348 1.350 . S
N1346 S1344 1.610 . S
N1346 C1347 1.351 . S
C1347 C1341 1.428 . S
C1347 N1346 1.351 . S
C1347 C1348 1.434 . S
C1348 C1339 1.429 . S
C1348 N1345 1.350 . S
C1348 C1347 1.434 . S
C1349 C1350 1.369 . S
C1349 C1351 1.419 . S
C1349 H1353 0.930 . S
C1350 C1349 1.369 . S
C1350 C1359 1.429 . S
C1351 C1349 1.419 . S
C1351 C1352 1.363 . S
C1351 H1354 0.929 . S
C1352 C1351 1.363 . S
C1352 C1358 1.428 . S
H1353 C1349 0.930 . S
H1354 C1351 0.929 . S
S1355 N1356 1.613 . S
S1355 N1357 1.610 . S
N1356 S1355 1.613 . S
N1356 C1359 1.350 . S
N1357 S1355 1.610 . S
N1357 C1358 1.351 . S
C1358 C1352 1.428 . S
C1358 N1357 1.351 . S
C1358 C1359 1.434 . S
C1359 C1350 1.429 . S
C1359 N1356 1.350 . S
C1359 C1358 1.434 . S
C1360 C1361 1.369 1_545 S
C1360 C1362 1.419 . S
C1360 H1364 0.930 . S
C1361 C1360 1.369 1_565 S
C1361 C1370 1.429 1_565 S
C1362 C1360 1.419 . S
C1362 C1363 1.363 . S
C1362 H1365 0.929 . S
C1363 C1362 1.363 . S
C1363 C1369 1.428 . S
H1364 C1360 0.930 . S
H1365 C1362 0.929 . S
S1366 N1367 1.613 1_545 S
S1366 N1368 1.610 . S
N1367 S1366 1.613 1_565 S
N1367 C1370 1.350 1_565 S
N1368 S1366 1.610 . S
N1368 C1369 1.351 . S
C1369 C1363 1.428 . S
C1369 N1368 1.351 . S
C1369 C1370 1.434 . S
C1370 C1361 1.429 1_545 S
C1370 N1367 1.350 1_545 S
C1370 C1369 1.434 . S
C1371 C1372 1.369 . S
C1371 C1373 1.419 . S
C1371 H1375 0.930 . S
C1372 C1371 1.369 . S
C1372 C1381 1.429 . S
C1373 C1371 1.419 . S
C1373 C1374 1.363 . S
C1373 H1376 0.929 . S
C1374 C1373 1.363 . S
C1374 C1380 1.428 . S
H1375 C1371 0.930 . S
H1376 C1373 0.929 . S
S1377 N1378 1.613 . S
S1377 N1379 1.610 . S
N1378 S1377 1.613 . S
N1378 C1381 1.350 . S
N1379 S1377 1.610 . S
N1379 C1380 1.351 . S
C1380 C1374 1.428 . S
C1380 N1379 1.351 . S
C1380 C1381 1.434 . S
C1381 C1372 1.429 . S
C1381 N1378 1.350 . S
C1381 C1380 1.434 . S
C1382 C1383 1.369 . S
C1382 C1384 1.419 . S
C1382 H1386 0.930 . S
C1383 C1382 1.369 . S
C1383 C1392 1.429 . S
C1384 C1382 1.419 . S
C1384 C1385 1.363 . S
C1384 H1387 0.929 . S
C1385 C1384 1.363 . S
C1385 C1391 1.428 . S
H1386 C1382 0.930 . S
H1387 C1384 0.929 . S
S1388 N1389 1.613 . S
S1388 N1390 1.610 . S
N1389 S1388 1.613 . S
N1389 C1392 1.350 . S
N1390 S1388 1.610 . S
N1390 C1391 1.351 . S
C1391 C1385 1.428 . S
C1391 N1390 1.351 . S
C1391 C1392 1.434 . S
C1392 C1383 1.429 . S
C1392 N1389 1.350 . S
C1392 C1391 1.434 . S
C1393 C1394 1.369 . S
C1393 C1395 1.419 . S
C1393 H1397 0.930 . S
C1394 C1393 1.369 . S
C1394 C1403 1.429 . S
C1395 C1393 1.419 . S
C1395 C1396 1.363 . S
C1395 H1398 0.929 . S
C1396 C1395 1.363 . S
C1396 C1402 1.428 . S
H1397 C1393 0.930 . S
H1398 C1395 0.929 . S
S1399 N1400 1.613 . S
S1399 N1401 1.610 . S
N1400 S1399 1.613 . S
N1400 C1403 1.350 . S
N1401 S1399 1.610 . S
N1401 C1402 1.351 . S
C1402 C1396 1.428 . S
C1402 N1401 1.351 . S
C1402 C1403 1.434 . S
C1403 C1394 1.429 . S
C1403 N1400 1.350 . S
C1403 C1402 1.434 . S
C1404 C1405 1.369 1_545 S
C1404 C1406 1.419 . S
C1404 H1408 0.930 . S
C1405 C1404 1.369 1_565 S
C1405 C1414 1.429 . S
C1406 C1404 1.419 . S
C1406 C1407 1.363 1_545 S
C1406 H1409 0.929 . S
C1407 C1406 1.363 1_565 S
C1407 C1413 1.428 . S
H1408 C1404 0.930 . S
H1409 C1406 0.929 . S
S1410 N1411 1.613 . S
S1410 N1412 1.610 . S
N1411 S1410 1.613 . S
N1411 C1414 1.350 . S
N1412 S1410 1.610 . S
N1412 C1413 1.351 . S
C1413 C1407 1.428 . S
C1413 N1412 1.351 . S
C1413 C1414 1.434 . S
C1414 C1405 1.429 . S
C1414 N1411 1.350 . S
C1414 C1413 1.434 . S
C1415 C1416 1.369 1_655 S
C1415 C1417 1.419 . S
C1415 H1419 0.930 . S
C1416 C1415 1.369 1_455 S
C1416 C1425 1.429 . S
C1417 C1415 1.419 . S
C1417 C1418 1.363 1_655 S
C1417 H1420 0.929 . S
C1418 C1417 1.363 1_455 S
C1418 C1424 1.428 . S
H1419 C1415 0.930 . S
H1420 C1417 0.929 . S
S1421 N1422 1.613 . S
S1421 N1423 1.610 . S
N1422 S1421 1.613 . S
N1422 C1425 1.350 . S
N1423 S1421 1.610 . S
N1423 C1424 1.351 . S
C1424 C1418 1.428 . S
C1424 N1423 1.351 . S
C1424 C1425 1.434 . S
C1425 C1416 1.429 . S
C1425 N1422 1.350 . S
C1425 C1424 1.434 . S
C1426 C1427 1.369 . S
C1426 C1428 1.419 . S
C1426 H1430 0.930 . S
C1427 C1426 1.369 . S
C1427 C1436 1.429 . S
C1428 C1426 1.419 . S
C1428 C1429 1.363 . S
C1428 H1431 0.929 . S
C1429 C1428 1.363 . S
C1429 C1435 1.428 . S
H1430 C1426 0.930 . S
H1431 C1428 0.929 . S
S1432 N1433 1.613 . S
S1432 N1434 1.610 . S
N1433 S1432 1.613 . S
N1433 C1436 1.350 . S
N1434 S1432 1.610 . S
N1434 C1435 1.351 . S
C1435 C1429 1.428 . S
C1435 N1434 1.351 . S
C1435 C1436 1.434 . S
C1436 C1427 1.429 . S
C1436 N1433 1.350 . S
C1436 C1435 1.434 . S
C1437 C1438 1.369 . S
C1437 C1439 1.419 . S
C1437 H1441 0.932 1_655 S
C1438 C1437 1.369 . S
C1438 C1447 1.429 . S
C1439 C1437 1.419 . S
C1439 C1440 1.363 . S
C1439 H1442 0.929 . S
C1440 C1439 1.363 . S
C1440 C1446 1.428 . S
H1441 C1437 0.932 1_455 S
H1442 C1439 0.929 . S
S1443 N1444 1.613 . S
S1443 N1445 1.610 . S
N1444 S1443 1.613 . S
N1444 C1447 1.350 . S
N1445 S1443 1.610 . S
N1445 C1446 1.351 . S
C1446 C1440 1.428 . S
C1446 N1445 1.351 . S
C1446 C1447 1.434 . S
C1447 C1438 1.429 . S
C1447 N1444 1.350 . S
C1447 C1446 1.434 . S
C1448 C1449 1.369 . S
C1448 C1450 1.419 . S
C1448 H1452 0.930 . S
C1449 C1448 1.369 . S
C1449 C1458 1.429 . S
C1450 C1448 1.419 . S
C1450 C1451 1.363 . S
C1450 H1453 0.929 . S
C1451 C1450 1.363 . S
C1451 C1457 1.428 . S
H1452 C1448 0.930 . S
H1453 C1450 0.929 . S
S1454 N1455 1.613 . S
S1454 N1456 1.610 . S
N1455 S1454 1.613 . S
N1455 C1458 1.350 . S
N1456 S1454 1.610 . S
N1456 C1457 1.351 . S
C1457 C1451 1.428 . S
C1457 N1456 1.351 . S
C1457 C1458 1.434 . S
C1458 C1449 1.429 . S
C1458 N1455 1.350 . S
C1458 C1457 1.434 . S
C1459 C1460 1.369 . S
C1459 C1461 1.419 . S
C1459 H1463 0.930 . S
C1460 C1459 1.369 . S
C1460 C1469 1.429 . S
C1461 C1459 1.419 . S
C1461 C1462 1.363 . S
C1461 H1464 0.929 . S
C1462 C1461 1.363 . S
C1462 C1468 1.428 1_545 S
H1463 C1459 0.930 . S
H1464 C1461 0.929 . S
S1465 N1466 1.613 . S
S1465 N1467 1.610 . S
N1466 S1465 1.613 . S
N1466 C1469 1.350 1_565 S
N1467 S1465 1.610 . S
N1467 C1468 1.351 . S
C1468 C1462 1.428 1_565 S
C1468 N1467 1.351 . S
C1468 C1469 1.434 1_565 S
C1469 C1460 1.429 . S
C1469 N1466 1.350 1_545 S
C1469 C1468 1.434 1_545 S
C1470 C1471 1.369 . S
C1470 C1472 1.419 . S
C1470 H1474 0.930 . S
C1471 C1470 1.369 . S
C1471 C1480 1.429 . S
C1472 C1470 1.419 . S
C1472 C1473 1.363 . S
C1472 H1475 0.929 . S
C1473 C1472 1.363 . S
C1473 C1479 1.428 . S
H1474 C1470 0.930 . S
H1475 C1472 0.929 . S
S1476 N1477 1.613 . S
S1476 N1478 1.610 . S
N1477 S1476 1.613 . S
N1477 C1480 1.350 . S
N1478 S1476 1.610 . S
N1478 C1479 1.351 . S
C1479 C1473 1.428 . S
C1479 N1478 1.351 . S
C1479 C1480 1.434 . S
C1480 C1471 1.429 . S
C1480 N1477 1.350 . S
C1480 C1479 1.434 . S
C1481 C1482 1.369 . S
C1481 C1483 1.419 . S
C1481 H1485 0.930 . S
C1482 C1481 1.369 . S
C1482 C1491 1.429 . S
C1483 C1481 1.419 . S
C1483 C1484 1.363 . S
C1483 H1486 0.929 . S
C1484 C1483 1.363 . S
C1484 C1490 1.428 . S
H1485 C1481 0.930 . S
H1486 C1483 0.929 . S
S1487 N1488 1.613 . S
S1487 N1489 1.610 . S
N1488 S1487 1.613 . S
N1488 C1491 1.350 . S
N1489 S1487 1.610 . S
N1489 C1490 1.351 . S
C1490 C1484 1.428 . S
C1490 N1489 1.351 . S
C1490 C1491 1.434 . S
C1491 C1482 1.429 . S
C1491 N1488 1.350 . S
C1491 C1490 1.434 . S
C1492 C1493 1.369 . S
C1492 C1494 1.419 . S
C1492 H1496 0.930 . S
C1493 C1492 1.369 . S
C1493 C1502 1.429 . S
C1494 C1492 1.419 . S
C1494 C1495 1.363 . S
C1494 H1497 0.929 . S
C1495 C1494 1.363 . S
C1495 C1501 1.428 . S
H1496 C1492 0.930 . S
H1497 C1494 0.929 . S
S1498 N1499 1.613 . S
S1498 N1500 1.610 . S
N1499 S1498 1.613 . S
N1499 C1502 1.350 . S
N1500 S1498 1.610 . S
N1500 C1501 1.351 . S
C1501 C1495 1.428 . S
C1501 N1500 1.351 . S
C1501 C1502 1.434 . S
C1502 C1493 1.429 . S
C1502 N1499 1.350 . S
C1502 C1501 1.434 . S
C1503 C1504 1.369 . S
C1503 C1505 1.419 . S
C1503 H1507 0.930 . S
C1504 C1503 1.369 . S
C1504 C1513 1.429 . S
C1505 C1503 1.419 . S
C1505 C1506 1.363 . S
C1505 H1508 0.929 . S
C1506 C1505 1.363 . S
C1506 C1512 1.428 . S
H1507 C1503 0.930 . S
H1508 C1505 0.929 . S
S1509 N1510 1.613 . S
S1509 N1511 1.610 . S
N1510 S1509 1.613 . S
N1510 C1513 1.350 . S
N1511 S1509 1.610 . S
N1511 C1512 1.351 . S
C1512 C1506 1.428 . S
C1512 N1511 1.351 . S
C1512 C1513 1.434 . S
C1513 C1504 1.429 . S
C1513 N1510 1.350 . S
C1513 C1512 1.434 . S
C1514 C1515 1.369 . S
C1514 C1516 1.419 . S
C1514 H1518 0.930 . S
C1515 C1514 1.369 . S
C1515 C1524 1.429 . S
C1516 C1514 1.419 . S
C1516 C1517 1.363 . S
C1516 H1519 0.929 . S
C1517 C1516 1.363 . S
C1517 C1523 1.428 . S
H1518 C1514 0.930 . S
H1519 C1516 0.929 . S
S1520 N1521 1.613 . S
S1520 N1522 1.610 . S
N1521 S1520 1.613 . S
N1521 C1524 1.350 . S
N1522 S1520 1.610 . S
N1522 C1523 1.351 . S
C1523 C1517 1.428 . S
C1523 N1522 1.351 . S
C1523 C1524 1.434 . S
C1524 C1515 1.429 . S
C1524 N1521 1.350 . S
C1524 C1523 1.434 . S
C1525 C1526 1.369 . S
C1525 C1527 1.419 . S
C1525 H1529 0.930 . S
C1526 C1525 1.369 . S
C1526 C1535 1.429 . S
C1527 C1525 1.419 . S
C1527 C1528 1.363 . S
C1527 H1530 0.929 . S
C1528 C1527 1.363 . S
C1528 C1534 1.428 . S
H1529 C1525 0.930 . S
H1530 C1527 0.929 . S
S1531 N1532 1.613 . S
S1531 N1533 1.610 . S
N1532 S1531 1.613 . S
N1532 C1535 1.350 . S
N1533 S1531 1.610 . S
N1533 C1534 1.351 . S
C1534 C1528 1.428 . S
C1534 N1533 1.351 . S
C1534 C1535 1.434 . S
C1535 C1526 1.429 . S
C1535 N1532 1.350 . S
C1535 C1534 1.434 . S
C1536 C1537 1.369 . S
C1536 C1538 1.419 . S
C1536 H1540 0.930 . S
C1537 C1536 1.369 . S
C1537 C1546 1.429 . S
C1538 C1536 1.419 . S
C1538 C1539 1.363 . S
C1538 H1541 0.929 . S
C1539 C1538 1.363 . S
C1539 C1545 1.428 . S
H1540 C1536 0.930 . S
H1541 C1538 0.929 . S
S1542 N1543 1.613 . S
S1542 N1544 1.610 . S
N1543 S1542 1.613 . S
N1543 C1546 1.350 . S
N1544 S1542 1.610 . S
N1544 C1545 1.351 . S
C1545 C1539 1.428 . S
C1545 N1544 1.351 . S
C1545 C1546 1.434 . S
C1546 C1537 1.429 . S
C1546 N1543 1.350 . S
C1546 C1545 1.434 . S
C1547 C1548 1.369 . S
C1547 C1549 1.419 . S
C1547 H1551 0.930 . S
C1548 C1547 1.369 . S
C1548 C1557 1.429 . S
C1549 C1547 1.419 . S
C1549 C1550 1.363 . S
C1549 H1552 0.929 . S
C1550 C1549 1.363 . S
C1550 C1556 1.428 . S
H1551 C1547 0.930 . S
H1552 C1549 0.929 . S
S1553 N1554 1.613 . S
S1553 N1555 1.610 . S
N1554 S1553 1.613 . S
N1554 C1557 1.350 . S
N1555 S1553 1.610 . S
N1555 C1556 1.351 . S
C1556 C1550 1.428 . S
C1556 N1555 1.351 . S
C1556 C1557 1.434 . S
C1557 C1548 1.429 . S
C1557 N1554 1.350 . S
C1557 C1556 1.434 . S
C1558 C1559 1.369 . S
C1558 C1560 1.419 . S
C1558 H1562 0.930 . S
C1559 C1558 1.369 . S
C1559 C1568 1.429 . S
C1560 C1558 1.419 . S
C1560 C1561 1.363 . S
C1560 H1563 0.929 . S
C1561 C1560 1.363 . S
C1561 C1567 1.428 . S
H1562 C1558 0.930 . S
H1563 C1560 0.929 . S
S1564 N1565 1.613 . S
S1564 N1566 1.610 . S
N1565 S1564 1.613 . S
N1565 C1568 1.350 . S
N1566 S1564 1.610 . S
N1566 C1567 1.351 . S
C1567 C1561 1.428 . S
C1567 N1566 1.351 . S
C1567 C1568 1.434 . S
C1568 C1559 1.429 . S
C1568 N1565 1.350 . S
C1568 C1567 1.434 . S
C1569 C1570 1.369 . S
C1569 C1571 1.419 . S
C1569 H1573 0.930 . S
C1570 C1569 1.369 . S
C1570 C1579 1.429 . S
C1571 C1569 1.419 . S
C1571 C1572 1.363 . S
C1571 H1574 0.929 . S
C1572 C1571 1.363 . S
C1572 C1578 1.428 . S
H1573 C1569 0.930 . S
H1574 C1571 0.929 . S
S1575 N1576 1.613 . S
S1575 N1577 1.610 . S
N1576 S1575 1.613 . S
N1576 C1579 1.350 . S
N1577 S1575 1.610 . S
N1577 C1578 1.351 . S
C1578 C1572 1.428 . S
C1578 N1577 1.351 . S
C1578 C1579 1.434 . S
C1579 C1570 1.429 . S
C1579 N1576 1.350 . S
C1579 C1578 1.434 . S
C1580 C1581 1.369 . S
C1580 C1582 1.419 . S
C1580 H1584 0.930 . S
C1581 C1580 1.369 . S
C1581 C1590 1.429 . S
C1582 C1580 1.419 . S
C1582 C1583 1.363 . S
C1582 H1585 0.929 . S
C1583 C1582 1.363 . S
C1583 C1589 1.428 . S
H1584 C1580 0.930 . S
H1585 C1582 0.929 . S
S1586 N1587 1.613 . S
S1586 N1588 1.610 . S
N1587 S1586 1.613 . S
N1587 C1590 1.350 . S
N1588 S1586 1.610 . S
N1588 C1589 1.351 . S
C1589 C1583 1.428 . S
C1589 N1588 1.351 . S
C1589 C1590 1.434 . S
C1590 C1581 1.429 . S
C1590 N1587 1.350 . S
C1590 C1589 1.434 . S
C1591 C1592 1.369 . S
C1591 C1593 1.419 . S
C1591 H1595 0.930 . S
C1592 C1591 1.369 . S
C1592 C1601 1.429 . S
C1593 C1591 1.419 . S
C1593 C1594 1.363 . S
C1593 H1596 0.929 . S
C1594 C1593 1.363 . S
C1594 C1600 1.428 . S
H1595 C1591 0.930 . S
H1596 C1593 0.929 . S
S1597 N1598 1.613 . S
S1597 N1599 1.610 . S
N1598 S1597 1.613 . S
N1598 C1601 1.350 . S
N1599 S1597 1.610 . S
N1599 C1600 1.351 . S
C1600 C1594 1.428 . S
C1600 N1599 1.351 . S
C1600 C1601 1.434 . S
C1601 C1592 1.429 . S
C1601 N1598 1.350 . S
C1601 C1600 1.434 . S
C1009 C469 1.737 . S
C1011 C651 1.754 . S
C1020 C505 1.794 . S
C1022 C691 1.783 . S
C1031 C433 1.813 . S
C1033 C743 1.819 . S
C1042 C397 1.648 . S
C1044 C703 1.631 . S
C1055 C731 1.533 . S
C1053 C325 1.522 . S
C1064 C361 1.547 . S
C1066 C663 1.580 . S
C1077 C670 1.754 . S
C1075 C421 1.751 . S
C1088 C710 1.785 . S
C1086 C349 1.788 . S
C1097 C385 1.809 . S
C1099 C730 1.819 . S
C1108 C493 1.639 . S
C1110 C690 1.637 . S
C1119 C529 1.534 . S
C1121 C750 1.534 . S
C1132 C650 1.582 . S
C1130 C457 1.555 . S
C1143 C771 1.752 . S
C1141 C37 1.741 1_455 S
C1152 C73 1.794 . S
C1154 C811 1.783 . S
C1163 C1 1.815 . S
C1165 C863 1.821 . S
C1174 C613 1.644 . S
C1176 C823 1.632 . S
C1185 C541 1.521 . S
C1187 C851 1.531 . S
C1196 C577 1.554 . S
C1198 C783 1.578 . S
C1207 C637 1.750 . S
C1209 C790 1.755 . S
C1218 C565 1.791 . S
C1220 C830 1.782 . S
C1231 C850 1.818 . S
C1229 C601 1.812 . S
C1240 C61 1.637 . S
C1242 C810 1.638 . S
C1253 C870 1.534 . S
C1251 C97 1.534 1_455 S
C1262 C25 1.562 . S
C1264 C770 1.578 . S
C1275 C891 1.750 . S
C1273 C253 1.744 . S
C1284 C289 1.792 . S
C1286 C931 1.785 . S
C1297 C983 1.821 . S
C1295 C217 1.814 . S
C1308 C943 1.632 . S
C1306 C181 1.648 . S
C1319 C971 1.531 . S
C1317 C109 1.525 1_655 S
C1328 C145 1.555 . S
C1330 C903 1.574 . S
C1339 C205 1.755 1_655 S
C1341 C910 1.751 . S
C1350 C133 1.787 . S
C1352 C950 1.786 . S
C1363 C970 1.817 . S
C1361 C169 1.813 . S
C1372 C277 1.644 . S
C1374 C930 1.632 . S
C1383 C313 1.535 . S
C1385 C990 1.532 . S
C1394 C241 1.557 . S
C1396 C890 1.582 . S
C1405 C571 1.399 . S
C1407 C674 1.383 . S
C1418 C714 1.821 . S
C1416 C607 1.858 . S
C1427 C643 1.579 . S
C1429 C737 1.576 . S
C1438 C247 1.856 . S
C1440 C697 1.819 . S
C1449 C283 1.586 . S
C1451 C754 1.577 . S
C1462 C657 1.384 . S
C1460 C319 1.397 . S
C1471 C139 1.396 . S
C1473 C794 1.384 . S
C1482 C175 1.856 . S
C1484 C834 1.819 . S
C1493 C211 1.580 . S
C1495 C857 1.575 . S
C1504 C463 1.857 . S
C1506 C817 1.820 . S
C1517 C874 1.577 . S
C1515 C499 1.584 . S
C1526 C535 1.400 . S
C1528 C777 1.382 . S
C1537 C355 1.397 . S
C1539 C914 1.385 . S
C1548 C391 1.852 . S
C1550 C954 1.822 . S
C1561 C977 1.575 . S
C1559 C427 1.580 . S
C1570 C31 1.856 . S
C1572 C937 1.822 . S
C1581 C67 1.586 . S
C1583 C994 1.577 . S
C1592 C103 1.397 . S
C1594 C897 1.384 . S
