# Generated by pormake.
# Topology ctn, (3,4)-cn, num edge types: 1
# Building blocks:
#     Node 0, Type 0, BuildingBlock: PAMTOO_clean_linker_0, # of connection points: 3
#     Node 1, Type 0, BuildingBlock: PAMTOO_clean_linker_0, # of connection points: 3
#     Node 2, Type 0, BuildingBlock: PAMTOO_clean_linker_0, # of connection points: 3
#     Node 3, Type 0, BuildingBlock: PAMTOO_clean_linker_0, # of connection points: 3
#     Node 4, Type 0, BuildingBlock: PAMTOO_clean_linker_0, # of connection points: 3
#     Node 5, Type 0, BuildingBlock: PAMTOO_clean_linker_0, # of connection points: 3
#     Node 6, Type 0, BuildingBlock: PAMTOO_clean_linker_0, # of connection points: 3
#     Node 7, Type 0, BuildingBlock: PAMTOO_clean_linker_0, # of connection points: 3
#     Node 8, Type 0, BuildingBlock: PAMTOO_clean_linker_0, # of connection points: 3
#     Node 9, Type 0, BuildingBlock: PAMTOO_clean_linker_0, # of connection points: 3
#     Node 10, Type 0, BuildingBlock: PAMTOO_clean_linker_0, # of connection points: 3
#     Node 11, Type 0, BuildingBlock: PAMTOO_clean_linker_0, # of connection points: 3
#     Node 12, Type 0, BuildingBlock: PAMTOO_clean_linker_0, # of connection points: 3
#     Node 13, Type 0, BuildingBlock: PAMTOO_clean_linker_0, # of connection points: 3
#     Node 14, Type 0, BuildingBlock: PAMTOO_clean_linker_0, # of connection points: 3
#     Node 15, Type 0, BuildingBlock: PAMTOO_clean_linker_0, # of connection points: 3
#     Node 16, Type 1, BuildingBlock: AZAVOO_clean_sbu_0, # of connection points: 4
#     Node 17, Type 1, BuildingBlock: AZAVOO_clean_sbu_0, # of connection points: 4
#     Node 18, Type 1, BuildingBlock: AZAVOO_clean_sbu_0, # of connection points: 4
#     Node 19, Type 1, BuildingBlock: AZAVOO_clean_sbu_0, # of connection points: 4
#     Node 20, Type 1, BuildingBlock: AZAVOO_clean_sbu_0, # of connection points: 4
#     Node 21, Type 1, BuildingBlock: AZAVOO_clean_sbu_0, # of connection points: 4
#     Node 22, Type 1, BuildingBlock: AZAVOO_clean_sbu_0, # of connection points: 4
#     Node 23, Type 1, BuildingBlock: AZAVOO_clean_sbu_0, # of connection points: 4
#     Node 24, Type 1, BuildingBlock: AZAVOO_clean_sbu_0, # of connection points: 4
#     Node 25, Type 1, BuildingBlock: AZAVOO_clean_sbu_0, # of connection points: 4
#     Node 26, Type 1, BuildingBlock: AZAVOO_clean_sbu_0, # of connection points: 4
#     Node 27, Type 1, BuildingBlock: AZAVOO_clean_sbu_0, # of connection points: 4
#     Edge 28, Type (0, 1), BuildingBlock: EZIPEK_clean_linker_0, # of connection points: 2
#     Edge 29, Type (0, 1), BuildingBlock: EZIPEK_clean_linker_0, # of connection points: 2
#     Edge 30, Type (0, 1), BuildingBlock: EZIPEK_clean_linker_0, # of connection points: 2
#     Edge 31, Type (0, 1), BuildingBlock: EZIPEK_clean_linker_0, # of connection points: 2
#     Edge 32, Type (0, 1), BuildingBlock: EZIPEK_clean_linker_0, # of connection points: 2
#     Edge 33, Type (0, 1), BuildingBlock: EZIPEK_clean_linker_0, # of connection points: 2
#     Edge 34, Type (0, 1), BuildingBlock: EZIPEK_clean_linker_0, # of connection points: 2
#     Edge 35, Type (0, 1), BuildingBlock: EZIPEK_clean_linker_0, # of connection points: 2
#     Edge 36, Type (0, 1), BuildingBlock: EZIPEK_clean_linker_0, # of connection points: 2
#     Edge 37, Type (0, 1), BuildingBlock: EZIPEK_clean_linker_0, # of connection points: 2
#     Edge 38, Type (0, 1), BuildingBlock: EZIPEK_clean_linker_0, # of connection points: 2
#     Edge 39, Type (0, 1), BuildingBlock: EZIPEK_clean_linker_0, # of connection points: 2
#     Edge 40, Type (0, 1), BuildingBlock: EZIPEK_clean_linker_0, # of connection points: 2
#     Edge 41, Type (0, 1), BuildingBlock: EZIPEK_clean_linker_0, # of connection points: 2
#     Edge 42, Type (0, 1), BuildingBlock: EZIPEK_clean_linker_0, # of connection points: 2
#     Edge 43, Type (0, 1), BuildingBlock: EZIPEK_clean_linker_0, # of connection points: 2
#     Edge 44, Type (0, 1), BuildingBlock: EZIPEK_clean_linker_0, # of connection points: 2
#     Edge 45, Type (0, 1), BuildingBlock: EZIPEK_clean_linker_0, # of connection points: 2
#     Edge 46, Type (0, 1), BuildingBlock: EZIPEK_clean_linker_0, # of connection points: 2
#     Edge 47, Type (0, 1), BuildingBlock: EZIPEK_clean_linker_0, # of connection points: 2
#     Edge 48, Type (0, 1), BuildingBlock: EZIPEK_clean_linker_0, # of connection points: 2
#     Edge 49, Type (0, 1), BuildingBlock: EZIPEK_clean_linker_0, # of connection points: 2
#     Edge 50, Type (0, 1), BuildingBlock: EZIPEK_clean_linker_0, # of connection points: 2
#     Edge 51, Type (0, 1), BuildingBlock: EZIPEK_clean_linker_0, # of connection points: 2
#     Edge 52, Type (0, 1), BuildingBlock: EZIPEK_clean_linker_0, # of connection points: 2
#     Edge 53, Type (0, 1), BuildingBlock: EZIPEK_clean_linker_0, # of connection points: 2
#     Edge 54, Type (0, 1), BuildingBlock: EZIPEK_clean_linker_0, # of connection points: 2
#     Edge 55, Type (0, 1), BuildingBlock: EZIPEK_clean_linker_0, # of connection points: 2
#     Edge 56, Type (0, 1), BuildingBlock: EZIPEK_clean_linker_0, # of connection points: 2
#     Edge 57, Type (0, 1), BuildingBlock: EZIPEK_clean_linker_0, # of connection points: 2
#     Edge 58, Type (0, 1), BuildingBlock: EZIPEK_clean_linker_0, # of connection points: 2
#     Edge 59, Type (0, 1), BuildingBlock: EZIPEK_clean_linker_0, # of connection points: 2
#     Edge 60, Type (0, 1), BuildingBlock: EZIPEK_clean_linker_0, # of connection points: 2
#     Edge 61, Type (0, 1), BuildingBlock: EZIPEK_clean_linker_0, # of connection points: 2
#     Edge 62, Type (0, 1), BuildingBlock: EZIPEK_clean_linker_0, # of connection points: 2
#     Edge 63, Type (0, 1), BuildingBlock: EZIPEK_clean_linker_0, # of connection points: 2
#     Edge 64, Type (0, 1), BuildingBlock: EZIPEK_clean_linker_0, # of connection points: 2
#     Edge 65, Type (0, 1), BuildingBlock: EZIPEK_clean_linker_0, # of connection points: 2
#     Edge 66, Type (0, 1), BuildingBlock: EZIPEK_clean_linker_0, # of connection points: 2
#     Edge 67, Type (0, 1), BuildingBlock: EZIPEK_clean_linker_0, # of connection points: 2
#     Edge 68, Type (0, 1), BuildingBlock: EZIPEK_clean_linker_0, # of connection points: 2
#     Edge 69, Type (0, 1), BuildingBlock: EZIPEK_clean_linker_0, # of connection points: 2
#     Edge 70, Type (0, 1), BuildingBlock: EZIPEK_clean_linker_0, # of connection points: 2
#     Edge 71, Type (0, 1), BuildingBlock: EZIPEK_clean_linker_0, # of connection points: 2
#     Edge 72, Type (0, 1), BuildingBlock: EZIPEK_clean_linker_0, # of connection points: 2
#     Edge 73, Type (0, 1), BuildingBlock: EZIPEK_clean_linker_0, # of connection points: 2
#     Edge 74, Type (0, 1), BuildingBlock: EZIPEK_clean_linker_0, # of connection points: 2
#     Edge 75, Type (0, 1), BuildingBlock: EZIPEK_clean_linker_0, # of connection points: 2
# Relax obj value: 0.060
# Max RMSD: 0.169
# Mean RMSD: 0.106
data_MOF--net-ctn--node1-AZAVOO_clean_sbu_0--node2-PAMTOO_clean_linker_0--edge1-EZIPEK_clean_linker_0
_symmetry_space_group_name_H-M    P1
_symmetry_Int_Tables_number       1
_symmetry_cell_setting            triclinic
loop_
_symmetry_equiv_pos_as_xyz
'x, y, z'
_cell_length_a     38.021229
_cell_length_b     39.121224
_cell_length_c     39.913763
_cell_angle_alpha  84.647451
_cell_angle_beta   96.220322
_cell_angle_gamma 101.91119
loop_
_atom_site_label
_atom_site_type_symbol
_atom_site_fract_x
_atom_site_fract_y
_atom_site_fract_z
_atom_type_partial_charge
H0 H 0.98394 0.10814 0.04822 0.0
H1 H 0.01998 0.01026 0.06608 0.0
H2 H 0.04691 0.0774 0.97724 0.0
H3 H 0.03579 0.00147 0.9657 0.0
C4 C 0.04366 0.99168 0.99186 0.0
O5 O 0.05563 0.01926 0.01203 0.0
H6 H 0.01827 0.97505 1.00017 0.0
C7 C 0.9969 0.08868 0.03972 0.0
C8 C 0.01401 0.09577 0.00979 0.0
C9 C 0.99881 0.05781 0.06001 0.0
C10 C 0.01721 0.03348 0.04981 0.0
C11 C 0.0342 0.04041 0.01973 0.0
C12 C 0.03241 0.07145 0.99968 0.0
H13 H 0.33488 0.68747 0.30246 0.0
H14 H 0.28003 0.70359 0.20402 0.0
H15 H 0.36474 0.78467 0.24279 0.0
H16 H 0.3024 0.81364 0.20775 0.0
C17 C 0.28943 0.79023 0.19399 0.0
O18 O 0.3138 0.76856 0.19355 0.0
H19 H 0.26677 0.77787 0.20929 0.0
C20 C 0.33127 0.70385 0.27939 0.0
C21 C 0.35377 0.73691 0.2751 0.0
C22 C 0.30431 0.69179 0.25391 0.0
C23 C 0.30029 0.71299 0.22401 0.0
C24 C 0.32102 0.74689 0.2206 0.0
C25 C 0.34821 0.75866 0.24585 0.0
H26 H 0.99585 0.54449 0.13534 0.0
H27 H 0.95134 0.50798 0.03809 0.0
H28 H 0.04315 0.47139 0.08974 0.0
H29 H 0.03808 0.50206 0.00958 0.0
C30 C 0.01275 0.48243 0.00468 0.0
O31 O 0.99842 0.4683 0.03454 0.0
H32 H 0.99281 0.49664 0.9906 0.0
C33 C 0.99611 0.52844 0.1147 0.0
C34 C 0.02244 0.50765 0.11596 0.0
C35 C 0.97033 0.52868 0.08657 0.0
C36 C 0.97105 0.50797 0.05984 0.0
C37 C 0.99766 0.48783 0.06064 0.0
C38 C 0.02301 0.48746 0.08882 0.0
H39 H 0.73588 0.88398 0.28661 0.0
H40 H 0.69591 0.7785 0.25774 0.0
H41 H 0.7875 0.84279 0.21345 0.0
H42 H 0.7195 0.7996 0.1686 0.0
C43 C 0.72172 0.77473 0.18392 0.0
O44 O 0.74332 0.78128 0.21372 0.0
H45 H 0.69465 0.76203 0.19157 0.0
C46 C 0.73701 0.86286 0.27124 0.0
C47 C 0.76414 0.867 0.24926 0.0
C48 C 0.71239 0.8309 0.27457 0.0
C49 C 0.71462 0.80336 0.25514 0.0
C50 C 0.74113 0.80781 0.2324 0.0
C51 C 0.76599 0.83957 0.22979 0.0
H52 H 0.11722 0.97291 0.56379 0.0
H53 H 0.02469 0.95026 0.49121 0.0
H54 H 0.08871 0.05409 0.49176 0.0
H55 H 0.99635 0.03803 0.46418 0.0
C56 C 0.9998 0.01323 0.45467 0.0
O57 O 0.03616 0.01256 0.45933 0.0
H58 H 0.98393 0.99062 0.46907 0.0
C59 C 0.09894 0.98161 0.54357 0.0
C60 C 0.10582 0.01657 0.53001 0.0
C61 C 0.06904 0.95765 0.53018 0.0
C62 C 0.04678 0.96889 0.50275 0.0
C63 C 0.05374 0.00358 0.48904 0.0
C64 C 0.08273 0.02754 0.50316 0.0
H65 H 0.15363 0.77766 0.78556 0.0
H66 H 0.17421 0.68174 0.75343 0.0
H67 H 0.2286 0.72259 0.84509 0.0
H68 H 0.27774 0.70678 0.80095 0.0
C69 C 0.25921 0.68641 0.78637 0.0
O70 O 0.22662 0.67702 0.80042 0.0
H71 H 0.25551 0.69946 0.76057 0.0
C72 C 0.16713 0.75557 0.78943 0.0
C73 C 0.19023 0.75196 0.81903 0.0
C74 C 0.16041 0.72991 0.76563 0.0
C75 C 0.17863 0.70169 0.77136 0.0
C76 C 0.20449 0.70022 0.79885 0.0
C77 C 0.20936 0.72459 0.82322 0.0
H78 H 0.90839 0.53636 0.53649 0.0
H79 H 0.94201 0.46579 0.4756 0.0
H80 H 0.01185 0.56428 0.49582 0.0
H81 H 0.99529 0.53856 0.42209 0.0
C82 C 1.00151 0.51226 0.42996 0.0
O83 O 0.00407 0.50648 0.46469 0.0
H84 H 0.97794 0.4939 0.41852 0.0
C85 C 0.9283 0.53019 0.52175 0.0
C86 C 0.96104 0.55404 0.51815 0.0
C87 C 0.92131 0.49834 0.50637 0.0
C88 C 0.94716 0.4904 0.48743 0.0
C89 C 0.97961 0.51422 0.48343 0.0
C90 C 0.98664 0.54594 0.49891 0.0
H91 H 0.74597 0.79035 0.86487 0.0
H92 H 0.81355 0.73131 0.82463 0.0
H93 H 0.7804 0.81824 0.76488 0.0
H94 H 0.86982 0.78033 0.78977 0.0
C95 C 0.85392 0.78484 0.76526 0.0
O96 O 0.81811 0.76888 0.76679 0.0
H97 H 0.85671 0.81377 0.76199 0.0
C98 C 0.76026 0.78547 0.8443 0.0
C99 C 0.7603 0.80723 0.81419 0.0
C100 C 0.77975 0.75824 0.84831 0.0
C101 C 0.79845 0.75222 0.82171 0.0
C102 C 0.79886 0.77398 0.79178 0.0
C103 C 0.7797 0.80131 0.788 0.0
H104 H 0.24893 0.30048 0.37841 0.0
H105 H 0.31924 0.23862 0.34677 0.0
H106 H 0.28336 0.31807 0.27782 0.0
H107 H 0.37508 0.28229 0.30689 0.0
C108 C 0.35813 0.28657 0.28298 0.0
O109 O 0.32276 0.26977 0.2858 0.0
H110 H 0.36023 0.31545 0.27991 0.0
C111 C 0.26359 0.29363 0.35902 0.0
C112 C 0.26322 0.31212 0.32706 0.0
C113 C 0.28407 0.2673 0.3664 0.0
C114 C 0.30334 0.25882 0.34131 0.0
C115 C 0.30316 0.27722 0.30948 0.0
C116 C 0.28303 0.30367 0.30237 0.0
H117 H 0.4919 0.03816 0.6376 0.0
H118 H 0.44519 0.00247 0.54065 0.0
H119 H 0.53491 0.96204 0.59204 0.0
H120 H 0.52862 0.99444 0.51113 0.0
C121 C 0.50398 0.97377 0.50692 0.0
O122 O 0.48994 0.9603 0.53707 0.0
H123 H 0.48333 0.98669 0.49227 0.0
C124 C 0.4912 0.02174 0.61702 0.0
C125 C 0.51644 0.99982 0.61816 0.0
C126 C 0.4655 0.02292 0.58899 0.0
C127 C 0.46491 0.00174 0.56232 0.0
C128 C 0.4903 0.98026 0.5631 0.0
C129 C 0.51573 0.97912 0.59112 0.0
H130 H 0.2355 0.36759 0.77456 0.0
H131 H 0.2072 0.25624 0.79722 0.0
H132 H 0.30138 0.29993 0.7456 0.0
H133 H 0.21683 0.21216 0.75327 0.0
C134 C 0.24657 0.2144 0.75525 0.0
O135 O 0.26377 0.24262 0.77311 0.0
H136 H 0.2505 0.19005 0.77057 0.0
C137 C 0.24004 0.34147 0.77225 0.0
C138 C 0.27086 0.33718 0.75805 0.0
C139 C 0.21672 0.3123 0.7861 0.0
C140 C 0.22409 0.27874 0.78511 0.0
C141 C 0.25408 0.27418 0.76979 0.0
C142 C 0.27706 0.30335 0.75564 0.0
H143 H 0.82768 0.18823 0.79845 0.0
H144 H 0.73271 0.21599 0.74563 0.0
H145 H 0.82517 0.29669 0.76924 0.0
H146 H 0.715 0.30018 0.71677 0.0
C147 C 0.73377 0.28313 0.71223 0.0
O148 O 0.75994 0.28484 0.73944 0.0
H149 H 0.71572 0.25701 0.71164 0.0
C150 C 0.81437 0.20812 0.78498 0.0
C151 C 0.8308 0.24374 0.78618 0.0
C152 C 0.77919 0.19829 0.76984 0.0
C153 C 0.76078 0.22398 0.75476 0.0
C154 C 0.77825 0.25936 0.75194 0.0
C155 C 0.81316 0.26913 0.7682 0.0
H156 H 0.47927 0.60096 0.54699 0.0
H157 H 0.50947 0.50045 0.56742 0.0
H158 H 0.54685 0.56786 0.48183 0.0
H159 H 0.53303 0.49243 0.46964 0.0
C160 C 0.53929 0.48185 0.49589 0.0
O161 O 0.55032 0.50869 0.51704 0.0
H162 H 0.51321 0.46529 0.50262 0.0
C163 C 0.49227 0.58092 0.53972 0.0
C164 C 0.51211 0.58753 0.51148 0.0
C165 C 0.49098 0.54947 0.55981 0.0
C166 C 0.50923 0.52424 0.55124 0.0
C167 C 0.52913 0.53081 0.52291 0.0
C168 C 0.53032 0.56232 0.50292 0.0
H169 H 0.60613 0.46103 0.05853 0.0
H170 H 0.50256 0.44333 1.00029 0.0
H171 H 0.57693 0.54074 0.98516 0.0
H172 H 0.51264 0.46198 0.93204 0.0
C173 C 0.51921 0.49108 0.93143 0.0
O174 O 0.51572 0.50197 0.96263 0.0
H175 H 0.54789 0.49821 0.92555 0.0
C176 C 0.58649 0.4703 0.04005 0.0
C177 C 0.59483 0.50414 0.02399 0.0
C178 C 0.553 0.4483 0.03192 0.0
C179 C 0.52804 0.46039 0.00748 0.0
C180 C 0.53714 0.49318 0.98998 0.0
C181 C 0.57011 0.51531 0.99875 0.0
H182 H 0.65999 0.28014 0.29494 0.0
H183 H 0.70532 0.20396 0.25094 0.0
H184 H 0.74796 0.23844 0.34724 0.0
H185 H 0.80539 0.22809 0.31237 0.0
C186 C 0.78961 0.21409 0.29089 0.0
O187 O 0.7549 0.20024 0.29911 0.0
H188 H 0.78983 0.23478 0.26973 0.0
C189 C 0.68038 0.26475 0.29418 0.0
C190 C 0.70397 0.26188 0.32364 0.0
C191 C 0.68276 0.2472 0.26505 0.0
C192 C 0.70581 0.22257 0.26927 0.0
C193 C 0.73001 0.22058 0.29797 0.0
C194 C 0.72917 0.24028 0.32499 0.0
H195 H 0.4098 0.03354 0.04293 0.0
H196 H 0.44332 0.97609 0.9693 0.0
H197 H 0.51318 0.06971 0.00326 0.0
H198 H 0.50659 0.06199 0.92936 0.0
C199 C 0.5037 0.03308 0.92973 0.0
O200 O 0.50511 0.01866 0.96268 0.0
H201 H 0.47662 0.02166 0.91784 0.0
C202 C 0.42978 0.03038 0.02664 0.0
C203 C 0.46247 0.0549 0.0258 0.0
C204 C 0.42278 0.00193 0.00625 0.0
C205 C 0.44853 0.99802 0.98507 0.0
C206 C 0.48102 0.02236 0.98397 0.0
C207 C 0.48812 0.05069 0.00446 0.0
Mg208 Mg 0.2066 0.86204 0.00545 0.0
O209 O 0.26394 0.89665 0.00406 0.0
O210 O 0.302 0.85951 0.00621 0.0
Mg211 Mg 0.2709 0.80321 0.01318 0.0
C212 C 0.29584 0.89053 0.00451 0.0
C213 C 0.14437 0.89838 0.99056 0.0
O214 O 0.13039 0.86518 0.99755 0.0
O215 O 0.20633 0.84665 0.9515 0.0
O216 O 0.24209 0.80714 0.95953 0.0
O217 O 0.21105 0.86303 0.06122 0.0
O218 O 0.22916 0.82372 0.03432 0.0
C219 C 0.22089 0.82369 0.94063 0.0
C220 C 0.22719 0.83685 0.06235 0.0
O221 O 0.17825 0.90745 0.98882 0.0
Mg222 Mg 0.17063 0.50155 0.30403 0.0
O223 O 0.13384 0.50117 0.25389 0.0
O224 O 0.16912 0.50227 0.21226 0.0
Mg225 Mg 0.22804 0.50698 0.23481 0.0
C226 C 0.13827 0.50134 0.22257 0.0
C227 C 0.12645 0.50105 0.36252 0.0
O228 O 0.15896 0.51762 0.37285 0.0
O229 O 0.17747 0.44483 0.30211 0.0
O230 O 0.21844 0.45278 0.26429 0.0
O231 O 0.18214 0.55989 0.30184 0.0
O232 O 0.2145 0.52903 0.27913 0.0
C233 C 0.19996 0.43358 0.28647 0.0
C234 C 0.20913 0.55924 0.28491 0.0
O235 O 0.12151 0.48744 0.33425 0.0
Mg236 Mg 0.8028 0.6587 0.05754 0.0
O237 O 0.75173 0.61484 0.05304 0.0
O238 O 0.7046 0.6417 0.04235 0.0
Mg239 Mg 0.72389 0.70112 0.0427 0.0
C240 C 0.71788 0.61403 0.04688 0.0
C241 C 0.86474 0.61799 0.07851 0.0
O242 O 0.86849 0.6389 0.1031 0.0
O243 O 0.7973 0.67221 0.99976 0.0
O244 O 0.75166 0.70135 0.99456 0.0
O245 O 0.79878 0.66182 0.11348 0.0
O246 O 0.77345 0.69307 0.07265 0.0
C247 C 0.7764 0.69028 0.9821 0.0
C248 C 0.77931 0.68519 0.10434 0.0
O249 O 0.83955 0.61907 0.05485 0.0
Mg250 Mg 0.9229 0.06821 0.24431 0.0
O251 O 0.88233 0.0159 0.2425 0.0
O252 O 0.91224 0.974 0.23487 0.0
Mg253 Mg 0.97177 0.99909 0.23409 0.0
C254 C 0.88318 0.98408 0.23867 0.0
C255 C 0.88136 0.12539 0.25448 0.0
O256 O 0.90689 0.14294 0.23628 0.0
O257 O 0.94297 0.0524 0.29806 0.0
O258 O 0.97049 0.00898 0.28997 0.0
O259 O 0.91688 0.07693 0.18813 0.0
O260 O 0.9578 0.05005 0.21686 0.0
C261 C 0.96018 0.02837 0.30951 0.0
C262 C 0.9433 0.06067 0.18818 0.0
O263 O 0.88007 0.09302 0.26253 0.0
Mg264 Mg 0.31225 0.1667 0.57538 0.0
O265 O 0.25877 0.12689 0.56783 0.0
O266 O 0.21427 0.15723 0.56193 0.0
Mg267 Mg 0.23869 0.21506 0.57006 0.0
C268 C 0.22539 0.12852 0.56256 0.0
C269 C 0.37016 0.1212 0.58702 0.0
O270 O 0.37686 0.14008 0.61335 0.0
O271 O 0.30602 0.18715 0.51937 0.0
O272 O 0.26321 0.21888 0.51946 0.0
O273 O 0.31048 0.15974 0.63128 0.0
O274 O 0.28673 0.19978 0.59922 0.0
C275 C 0.286 0.20757 0.50441 0.0
C276 C 0.2928 0.18491 0.62896 0.0
O277 O 0.34439 0.1256 0.56489 0.0
Mg278 Mg 0.39837 0.54976 0.73859 0.0
O279 O 0.36932 0.49202 0.7369 0.0
O280 O 0.41134 0.46029 0.73283 0.0
Mg281 Mg 0.46613 0.49746 0.72967 0.0
C282 C 0.37873 0.46275 0.73512 0.0
C283 C 0.35434 0.59565 0.76668 0.0
O284 O 0.38734 0.61426 0.76967 0.0
O285 O 0.42119 0.53842 0.79293 0.0
O286 O 0.46439 0.50949 0.78486 0.0
O287 O 0.39249 0.55875 0.6821 0.0
O288 O 0.43845 0.5403 0.71151 0.0
C289 C 0.44719 0.52315 0.80412 0.0
C290 C 0.42275 0.54834 0.68255 0.0
O291 O 0.34896 0.56533 0.75579 0.0
Mg292 Mg 0.70662 0.3564 0.51759 0.0
O293 O 0.76272 0.3928 0.51499 0.0
O294 O 0.8026 0.35721 0.51883 0.0
Mg295 Mg 0.77337 0.30015 0.52625 0.0
C296 C 0.79504 0.38776 0.51569 0.0
C297 C 0.64216 0.38979 0.49942 0.0
O298 O 0.62886 0.35622 0.50502 0.0
O299 O 0.70727 0.34104 0.46396 0.0
O300 O 0.74481 0.30317 0.47201 0.0
O301 O 0.71054 0.35788 0.57329 0.0
O302 O 0.73114 0.31972 0.54745 0.0
C303 C 0.72282 0.31886 0.45309 0.0
C304 C 0.72735 0.33208 0.57539 0.0
O305 O 0.67618 0.40006 0.50002 0.0
Mg306 Mg 0.66479 0.9964 0.80553 0.0
O307 O 0.62798 0.99296 0.75571 0.0
O308 O 0.66412 0.99951 0.71404 0.0
Mg309 Mg 0.72307 0.0066 0.73716 0.0
C310 C 0.63279 0.99513 0.72438 0.0
C311 C 0.61828 0.00077 0.85901 0.0
O312 O 0.64896 0.02287 0.8649 0.0
O313 O 0.67609 0.94108 0.80439 0.0
O314 O 0.71548 0.95154 0.765 0.0
O315 O 0.669 0.05363 0.80095 0.0
O316 O 0.70907 0.02818 0.78215 0.0
C317 C 0.69837 0.93122 0.78738 0.0
C318 C 0.69821 0.05654 0.78622 0.0
O319 O 0.61555 0.97994 0.83574 0.0
Mg320 Mg 0.04196 0.29343 0.91084 0.0
O321 O 0.98717 0.28099 0.87896 0.0
O322 O 0.94641 0.27239 0.9168 0.0
Mg323 Mg 0.97358 0.26996 0.97084 0.0
C324 C 0.95443 0.27489 0.88625 0.0
C325 C 0.10302 0.30856 0.87005 0.0
O326 O 0.11191 0.29193 0.89886 0.0
O327 O 0.03197 0.34622 0.92417 0.0
O328 O 0.99551 0.32919 0.96577 0.0
O329 O 0.04669 0.23762 0.91257 0.0
O330 O 0.02145 0.25994 0.95059 0.0
C331 C 0.01472 0.353 0.94771 0.0
C332 C 0.03002 0.23307 0.93968 0.0
O333 O 0.0721 0.31675 0.86528 0.0
Mg334 Mg 0.54855 0.78817 0.41906 0.0
O335 O 0.49676 0.77894 0.38307 0.0
O336 O 0.45066 0.76023 0.41494 0.0
Mg337 Mg 0.47258 0.75911 0.47074 0.0
C338 C 0.46315 0.76805 0.38616 0.0
C339 C 0.60905 0.80127 0.37449 0.0
O340 O 0.61566 0.77648 0.39739 0.0
O341 O 0.53615 0.8392 0.43339 0.0
O342 O 0.49203 0.81924 0.46752 0.0
O343 O 0.5527 0.73232 0.41858 0.0
O344 O 0.5245 0.75228 0.45601 0.0
C345 C 0.51391 0.84425 0.45332 0.0
C346 C 0.53381 0.72622 0.4443 0.0
O347 O 0.58148 0.81458 0.37598 0.0
Mg348 Mg 0.9799 0.74119 0.60696 0.0
O349 O 0.02835 0.73332 0.64458 0.0
O350 O 0.07442 0.73469 0.61426 0.0
Mg351 Mg 0.05305 0.73176 0.55852 0.0
C352 C 0.06171 0.7336 0.64273 0.0
C353 C 0.92445 0.74037 0.65908 0.0
O354 O 0.91096 0.71054 0.64562 0.0
O355 O 0.00738 0.79754 0.59136 0.0
O356 O 0.04906 0.78931 0.55904 0.0
O357 O 0.95987 0.68335 0.6076 0.0
O358 O 0.99674 0.71369 0.57141 0.0
C359 C 0.03249 0.80941 0.57197 0.0
C360 C 0.97888 0.68387 0.58249 0.0
O361 O 0.95329 0.75937 0.64909 0.0
Mg362 Mg 0.48282 0.23402 0.12844 0.0
O363 O 0.53679 0.23327 0.16089 0.0
O364 O 0.57773 0.23437 0.12453 0.0
Mg365 Mg 0.54968 0.22765 0.07116 0.0
C366 C 0.56938 0.2353 0.15452 0.0
C367 C 0.42521 0.24633 0.17213 0.0
O368 O 0.40534 0.23308 0.14564 0.0
O369 O 0.50325 0.29092 0.10839 0.0
O370 O 0.54065 0.2838 0.07102 0.0
O371 O 0.46741 0.17516 0.13138 0.0
O372 O 0.49707 0.20709 0.09098 0.0
C373 C 0.5245 0.30318 0.08546 0.0
C374 C 0.48261 0.17667 0.10363 0.0
O375 O 0.4594 0.25093 0.17317 0.0
C376 C 0.22566 0.8027 0.85064 0.0
C377 C 0.19422 0.77604 0.84657 0.0
C378 C 0.17679 0.78597 0.90175 0.0
C379 C 0.20895 0.81162 0.90639 0.0
N380 N 0.26012 0.84982 0.88371 0.0
N381 N 0.1365 0.74646 0.86464 0.0
C382 C 0.23214 0.82177 0.88019 0.0
C383 C 0.16854 0.76929 0.87089 0.0
N384 N 0.24978 0.80886 0.82667 0.0
N385 N 0.15528 0.77606 0.92776 0.0
H386 H 0.13044 0.73201 0.84341 0.0
H387 H 0.11484 0.74335 0.87926 0.0
H388 H 0.15966 0.78848 0.95028 0.0
H389 H 0.13409 0.75447 0.92797 0.0
H390 H 0.27516 0.82503 0.8295 0.0
H391 H 0.24483 0.79661 0.80402 0.0
H392 H 0.27664 0.86064 0.86472 0.0
H393 H 0.26516 0.8641 0.90514 0.0
C394 C 0.06289 0.53835 0.40938 0.0
C395 C 0.03624 0.50816 0.41651 0.0
C396 C 0.07262 0.47198 0.39368 0.0
C397 C 0.09537 0.503 0.38125 0.0
N398 N 0.10813 0.56618 0.37225 0.0
N399 N 0.01703 0.4452 0.41853 0.0
C400 C 0.08955 0.53633 0.38787 0.0
C401 C 0.04156 0.47457 0.40968 0.0
N402 N 0.06353 0.56875 0.42397 0.0
N403 N 0.0816 0.44021 0.39147 0.0
H404 H 0.99654 0.44535 0.43384 0.0
H405 H 0.01639 0.42067 0.41009 0.0
H406 H 0.10425 0.43747 0.38016 0.0
H407 H 0.06843 0.41684 0.40304 0.0
H408 H 0.08439 0.59057 0.42185 0.0
H409 H 0.04588 0.57074 0.44161 0.0
H410 H 0.10211 0.59079 0.37362 0.0
H411 H 0.12682 0.56606 0.355 0.0
C412 C 0.75293 0.70886 0.88867 0.0
C413 C 0.78179 0.73694 0.88111 0.0
C414 C 0.81115 0.72952 0.93851 0.0
C415 C 0.78199 0.70179 0.94625 0.0
N416 N 0.7292 0.66021 0.92776 0.0
N417 N 0.84155 0.76995 0.89594 0.0
C418 C 0.75418 0.68991 0.92089 0.0
C419 C 0.81205 0.74578 0.90508 0.0
N420 N 0.7239 0.70106 0.86533 0.0
N421 N 0.83671 0.74189 0.96367 0.0
H422 H 0.8425 0.78387 0.87236 0.0
H423 H 0.86607 0.77459 0.91077 0.0
H424 H 0.83762 0.73021 0.98822 0.0
H425 H 0.85591 0.7649 0.9609 0.0
H426 H 0.70006 0.68373 0.87039 0.0
H427 H 0.72287 0.71332 0.84098 0.0
H428 H 0.70995 0.64803 0.90982 0.0
H429 H 0.72968 0.64599 0.95119 0.0
C430 C 0.95343 0.02315 0.40498 0.0
C431 C 0.98598 0.01181 0.4173 0.0
C432 C 1.00153 0.01253 0.35965 0.0
C433 C 0.96851 0.02242 0.34671 0.0
N434 N 0.90767 0.02461 0.35795 0.0
N435 N 0.02744 0.97673 0.40375 0.0
C436 C 0.94277 0.02426 0.36958 0.0
C437 C 0.00592 1.00045 0.39393 0.0
N438 N 0.93236 0.03231 0.4269 0.0
N439 N 0.02952 0.01595 0.34005 0.0
H440 H 0.02718 0.96323 0.42755 0.0
H441 H 0.04085 0.96672 0.38662 0.0
H442 H 0.02934 0.02813 0.31569 0.0
H443 H 0.05463 0.01077 0.34984 0.0
H444 H 0.91103 0.04502 0.41895 0.0
H445 H 0.93697 0.02841 0.45307 0.0
H446 H 0.88731 0.02288 0.37387 0.0
H447 H 0.89786 0.02217 0.3327 0.0
C448 C 0.23908 0.2171 0.69111 0.0
C449 C 0.26178 0.21478 0.72145 0.0
C450 C 0.30842 0.2035 0.68835 0.0
C451 C 0.2824 0.19731 0.66007 0.0
N452 N 0.22 0.19175 0.63795 0.0
N453 N 0.31903 0.20485 0.74911 0.0
C454 C 0.24698 0.20279 0.66214 0.0
C455 C 0.29691 0.20799 0.72012 0.0
N456 N 0.21018 0.23305 0.68971 0.0
N457 N 0.34427 0.20636 0.68469 0.0
H458 H 0.31259 0.20939 0.7728 0.0
H459 H 0.34293 0.19559 0.74985 0.0
H460 H 0.35401 0.20502 0.6615 0.0
H461 H 0.36458 0.21405 0.70376 0.0
H462 H 0.19434 0.23721 0.66727 0.0
H463 H 0.20514 0.2462 0.70969 0.0
H464 H 0.19306 0.1926 0.63984 0.0
H465 H 0.22399 0.17744 0.61859 0.0
C466 C 0.49435 0.56079 0.62062 0.0
C467 C 0.47402 0.54545 0.59202 0.0
C468 C 0.42054 0.5287 0.62366 0.0
C469 C 0.43994 0.54725 0.6511 0.0
N470 N 0.49305 0.58749 0.67253 0.0
N471 N 0.41719 0.51789 0.56434 0.0
C472 C 0.47635 0.56486 0.64886 0.0
C473 C 0.43693 0.53017 0.59299 0.0
N474 N 0.53095 0.57152 0.62077 0.0
N475 N 0.38696 0.5088 0.62724 0.0
H476 H 0.42868 0.51732 0.54187 0.0
H477 H 0.38918 0.51031 0.56217 0.0
H478 H 0.37389 0.50753 0.64903 0.0
H479 H 0.37315 0.49154 0.6097 0.0
H480 H 0.54769 0.57927 0.64228 0.0
H481 H 0.54507 0.56973 0.60021 0.0
H482 H 0.51815 0.60383 0.6702 0.0
H483 H 0.48037 0.59295 0.69272 0.0
C484 C 0.75773 0.33158 0.6685 0.0
C485 C 0.74843 0.2953 0.67815 0.0
C486 C 0.73569 0.28196 0.61888 0.0
C487 C 0.74178 0.31849 0.6091 0.0
N488 N 0.7715 0.37672 0.62322 0.0
N489 N 0.74616 0.23694 0.66253 0.0
C490 C 0.75729 0.34286 0.63354 0.0
C491 C 0.74368 0.27085 0.65324 0.0
N492 N 0.76487 0.35526 0.69261 0.0
N493 N 0.71945 0.2578 0.59652 0.0
H494 H 0.75311 0.22866 0.68745 0.0
H495 H 0.74584 0.21851 0.6452 0.0
H496 H 0.71203 0.26396 0.57121 0.0
H497 H 0.71056 0.23142 0.60385 0.0
H498 H 0.76706 0.38212 0.68714 0.0
H499 H 0.76728 0.34776 0.71839 0.0
H500 H 0.78601 0.39495 0.63954 0.0
H501 H 0.77185 0.38559 0.59777 0.0
C502 C 0.57397 0.02836 0.65042 0.0
C503 C 0.54481 0.99934 0.64702 0.0
C504 C 0.57348 0.96678 0.69434 0.0
C505 C 0.60146 0.99663 0.6989 0.0
N506 N 0.62319 0.05855 0.68709 0.0
N507 N 0.51308 0.9435 0.66945 0.0
C508 C 0.6002 0.02823 0.67861 0.0
C509 C 0.54345 0.96927 0.67014 0.0
N510 N 0.57745 0.05552 0.62604 0.0
N511 N 0.57624 0.93576 0.71223 0.0
H512 H 0.4906 0.9446 0.6522 0.0
H513 H 0.50888 0.92261 0.6877 0.0
H514 H 0.59768 0.9331 0.73028 0.0
H515 H 0.55881 0.91211 0.70743 0.0
H516 H 0.60034 0.0754 0.62526 0.0
H517 H 0.55894 0.05668 0.60489 0.0
H518 H 0.6212 0.08305 0.67526 0.0
H519 H 0.64179 0.05978 0.70835 0.0
C520 C 0.86119 0.24023 0.84504 0.0
C521 C 0.863 0.25391 0.81097 0.0
C522 C 0.92435 0.28609 0.82675 0.0
C523 C 0.92414 0.26721 0.85911 0.0
N524 N 0.8948 0.21647 0.89269 0.0
N525 N 0.89982 0.28541 0.76802 0.0
C526 C 0.89334 0.24126 0.86638 0.0
C527 C 0.89566 0.27559 0.8013 0.0
N528 N 0.82872 0.22757 0.85766 0.0
N529 N 0.95055 0.31494 0.8206 0.0
H530 H 0.87981 0.27748 0.74874 0.0
H531 H 0.92434 0.29855 0.75952 0.0
H532 H 0.97063 0.32503 0.83898 0.0
H533 H 0.94987 0.33109 0.79834 0.0
H534 H 0.82644 0.2193 0.88309 0.0
H535 H 0.80444 0.23014 0.84386 0.0
H536 H 0.87314 0.19586 0.89703 0.0
H537 H 0.91871 0.21365 0.90712 0.0
C538 C 0.49546 0.93583 0.45647 0.0
C539 C 0.51301 0.94434 0.4888 0.0
C540 C 0.53956 0.89169 0.492 0.0
C541 C 0.51601 0.88006 0.46348 0.0
N542 N 0.47104 0.89015 0.41842 0.0
N543 N 0.55724 0.93386 0.53461 0.0
C544 C 0.49392 0.90194 0.44556 0.0
C545 C 0.53706 0.92343 0.50556 0.0
N546 N 0.4824 0.96071 0.43523 0.0
N547 N 0.56459 0.87251 0.50573 0.0
H548 H 0.56002 0.95894 0.54259 0.0
H549 H 0.57112 0.91787 0.55098 0.0
H550 H 0.56671 0.84891 0.4967 0.0
H551 H 0.5849 0.88082 0.52452 0.0
H552 H 0.47169 0.9566 0.41047 0.0
H553 H 0.48704 0.98697 0.44042 0.0
H554 H 0.45105 0.9031 0.40691 0.0
H555 H 0.47058 0.86619 0.40872 0.0
C556 C 0.15036 0.3046 0.79163 0.0
C557 C 0.1865 0.31694 0.80475 0.0
C558 C 0.1647 0.335 0.85448 0.0
C559 C 0.12945 0.31691 0.84439 0.0
N560 N 0.08852 0.28222 0.80413 0.0
N561 N 0.22866 0.34062 0.85063 0.0
C562 C 0.12197 0.30156 0.81287 0.0
C563 C 0.19389 0.33171 0.83654 0.0
N564 N 0.14326 0.29595 0.75885 0.0
N565 N 0.17014 0.35547 0.88124 0.0
H566 H 0.25099 0.33795 0.83882 0.0
H567 H 0.23524 0.34778 0.87537 0.0
H568 H 0.14901 0.3588 0.89448 0.0
H569 H 0.19468 0.3719 0.88792 0.0
H570 H 0.11727 0.29001 0.74681 0.0
H571 H 0.16354 0.29786 0.74271 0.0
H572 H 0.08282 0.26691 0.78349 0.0
H573 H 0.06687 0.27949 0.81875 0.0
C574 C 0.49276 0.63053 0.4662 0.0
C575 C 0.51752 0.62285 0.49369 0.0
C576 C 0.55006 0.68385 0.49092 0.0
C577 C 0.52683 0.69102 0.46199 0.0
N578 N 0.47753 0.67201 0.42049 0.0
N579 N 0.57171 0.64024 0.53051 0.0
C580 C 0.49855 0.66455 0.44914 0.0
C581 C 0.54671 0.64901 0.50562 0.0
N582 N 0.46333 0.60547 0.45706 0.0
N583 N 0.57498 0.71055 0.50463 0.0
H584 H 0.56959 0.61527 0.54279 0.0
H585 H 0.59592 0.6569 0.53761 0.0
H586 H 0.57934 0.73624 0.49388 0.0
H587 H 0.58977 0.70802 0.52791 0.0
H588 H 0.44216 0.61016 0.43962 0.0
H589 H 0.45897 0.58001 0.4684 0.0
H590 H 0.45908 0.65326 0.4074 0.0
H591 H 0.47966 0.69721 0.40884 0.0
C592 C 0.88542 0.74127 0.74277 0.0
C593 C 0.86929 0.77125 0.73661 0.0
C594 C 0.88716 0.77947 0.67851 0.0
C595 C 0.90591 0.75143 0.6858 0.0
N596 N 0.92701 0.70824 0.7256 0.0
N597 N 0.84403 0.81093 0.69549 0.0
C598 C 0.90591 0.73284 0.71805 0.0
C599 C 0.86714 0.78822 0.70355 0.0
N600 N 0.87938 0.71967 0.77142 0.0
N601 N 0.88901 0.79812 0.64778 0.0
H602 H 0.8271 0.81622 0.71237 0.0
H603 H 0.83852 0.82177 0.67117 0.0
H604 H 0.90167 0.79135 0.62817 0.0
H605 H 0.88002 0.82157 0.64222 0.0
H606 H 0.88727 0.69558 0.7758 0.0
H607 H 0.86287 0.7237 0.78928 0.0
H608 H 0.93178 0.69682 0.74984 0.0
H609 H 0.94242 0.70133 0.70819 0.0
C610 C 0.05376 0.90906 0.5761 0.0
C611 C 0.06227 0.9199 0.54245 0.0
C612 C 0.04595 0.85906 0.52777 0.0
C613 C 0.04181 0.84764 0.56222 0.0
N614 N 0.05011 0.86221 0.62052 0.0
N615 N 0.07633 0.90384 0.48919 0.0
C616 C 0.04806 0.87274 0.58687 0.0
C617 C 0.06152 0.89444 0.51922 0.0
N618 N 0.04976 0.93307 0.59741 0.0
N619 N 0.03325 0.83674 0.50284 0.0
H620 H 0.08943 0.92935 0.48256 0.0
H621 H 0.07913 0.88557 0.47274 0.0
H622 H 0.019 0.81125 0.50754 0.0
H623 H 0.03294 0.84497 0.47722 0.0
H624 H 0.03998 0.92603 0.621 0.0
H625 H 0.05296 0.95979 0.59034 0.0
H626 H 0.058 0.8797 0.63936 0.0
H627 H 0.0477 0.83603 0.62956 0.0
C628 C 0.10033 0.73983 0.73527 0.0
C629 C 0.1353 0.7326 0.73416 0.0
C630 C 0.11887 0.71952 0.67518 0.0
C631 C 0.08674 0.73302 0.67449 0.0
N632 N 0.05498 0.76764 0.70373 0.0
N633 N 0.18105 0.72782 0.69797 0.0
C634 C 0.07967 0.74666 0.70446 0.0
C635 C 0.14569 0.72637 0.70251 0.0
N636 N 0.08587 0.73879 0.76526 0.0
N637 N 0.12334 0.69842 0.65123 0.0
H638 H 0.202 0.73566 0.71648 0.0
H639 H 0.18951 0.72545 0.67443 0.0
H640 H 0.10267 0.68835 0.63335 0.0
H641 H 0.14586 0.6868 0.65252 0.0
H642 H 0.05935 0.74158 0.76652 0.0
H643 H 0.09854 0.7308 0.78823 0.0
H644 H 0.0511 0.77947 0.72505 0.0
H645 H 0.04246 0.7774 0.68144 0.0
C646 C 0.9837 0.59022 0.5679 0.0
C647 C 0.96808 0.58799 0.534 0.0
C648 C 0.96018 0.64882 0.53178 0.0
C649 C 0.97732 0.65162 0.56515 0.0
N650 N 0.01103 0.62764 0.61292 0.0
N651 N 0.9471 0.61627 0.48157 0.0
C652 C 0.99069 0.62302 0.58267 0.0
C653 C 0.9582 0.61772 0.51527 0.0
N654 N 0.99111 0.56078 0.58615 0.0
N655 N 0.94392 0.6751 0.51654 0.0
H656 H 0.94397 0.59357 0.46885 0.0
H657 H 0.94363 0.63816 0.4656 0.0
H658 H 0.94445 0.69829 0.52766 0.0
H659 H 0.92732 0.67286 0.494 0.0
H660 H 0.99862 0.55962 0.61203 0.0
H661 H 0.98754 0.53664 0.5758 0.0
H662 H 0.02468 0.60901 0.6255 0.0
H663 H 0.01684 0.65143 0.6242 0.0
C664 C 0.8233 0.90138 0.27238 0.0
C665 C 0.79266 0.89911 0.24843 0.0
C666 C 0.81992 0.95452 0.21898 0.0
C667 C 0.85037 0.95687 0.24322 0.0
N668 N 0.87687 0.93821 0.29775 0.0
N669 N 0.75821 0.92566 0.20285 0.0
C670 C 0.85078 0.93197 0.27139 0.0
C671 C 0.78983 0.92645 0.22293 0.0
N672 N 0.82675 0.87377 0.29532 0.0
N673 N 0.82036 0.97832 0.19163 0.0
H674 H 0.73593 0.90516 0.20484 0.0
H675 H 0.75296 0.94634 0.18599 0.0
H676 H 0.8412 1.00003 0.18878 0.0
H677 H 0.80109 0.97576 0.17094 0.0
H678 H 0.85039 0.87218 0.31069 0.0
H679 H 0.80689 0.85109 0.29737 0.0
H680 H 0.87649 0.9229 0.32054 0.0
H681 H 0.89707 0.96077 0.29823 0.0
C682 C 0.82716 0.16741 0.30785 0.0
C683 C 0.80772 0.18534 0.28203 0.0
C684 C 0.83005 0.15661 0.23882 0.0
C685 C 0.85361 0.14309 0.26434 0.0
N686 N 0.87619 0.13631 0.32297 0.0
N687 N 0.78035 0.18726 0.22469 0.0
C688 C 0.85214 0.14809 0.2989 0.0
C689 C 0.80605 0.17701 0.24792 0.0
N690 N 0.82073 0.16786 0.34084 0.0
N691 N 0.8313 0.15049 0.20581 0.0
H692 H 0.76124 0.20063 0.23092 0.0
H693 H 0.77548 0.17995 0.19998 0.0
H694 H 0.84637 0.13342 0.19855 0.0
H695 H 0.81852 0.16301 0.18534 0.0
H696 H 0.83136 0.15261 0.36059 0.0
H697 H 0.8015 0.18051 0.34816 0.0
H698 H 0.8796 0.14294 0.34793 0.0
H699 H 0.8948 0.12186 0.31759 0.0
C700 C 0.35927 0.97757 0.98335 0.0
C701 C 0.38897 0.97514 0.0076 0.0
C702 C 0.35581 0.91975 0.03225 0.0
C703 C 0.32748 0.9202 0.00578 0.0
N704 N 0.30499 0.94685 0.95296 0.0
N705 N 0.41787 0.94244 0.05267 0.0
C706 C 0.32977 0.94856 0.98059 0.0
C707 C 0.38784 0.94586 0.03142 0.0
N708 N 0.35923 0.00775 0.96311 0.0
N709 N 0.35173 0.89508 0.05891 0.0
H710 H 0.44142 0.96165 0.05386 0.0
H711 H 0.42044 0.91956 0.06745 0.0
H712 H 0.32927 0.87491 0.06063 0.0
H713 H 0.36929 0.89621 0.08088 0.0
H714 H 0.33682 0.01265 0.94742 0.0
H715 H 0.3807 0.0292 0.96411 0.0
H716 H 0.30736 0.9649 0.93205 0.0
H717 H 0.28369 0.92559 0.94939 0.0
C718 C 0.26084 0.37503 0.33248 0.0
C719 C 0.24429 0.34219 0.31991 0.0
C720 C 0.19431 0.36795 0.29064 0.0
C721 C 0.21266 0.40129 0.30058 0.0
N722 N 0.26273 0.43757 0.33103 0.0
N723 N 0.19564 0.30634 0.28757 0.0
C724 C 0.24554 0.40498 0.32188 0.0
C725 C 0.21092 0.3383 0.29931 0.0
N726 N 0.29128 0.37752 0.35458 0.0
N727 N 0.16098 0.36484 0.27313 0.0
H728 H 0.20612 0.28386 0.29486 0.0
H729 H 0.17338 0.302 0.26981 0.0
H730 H 0.14865 0.38628 0.26629 0.0
H731 H 0.14448 0.34113 0.26709 0.0
H732 H 0.30239 0.39934 0.36799 0.0
H733 H 0.30485 0.35694 0.36116 0.0
H734 H 0.2889 0.44329 0.3426 0.0
H735 H 0.25129 0.45977 0.32592 0.0
C736 C 0.13978 0.0599 0.57056 0.0
C737 C 0.13905 0.04138 0.54156 0.0
C738 C 0.19724 0.07756 0.52797 0.0
C739 C 0.1981 0.096 0.55714 0.0
N740 N 0.17573 0.09869 0.61085 0.0
N741 N 0.17022 0.02649 0.49723 0.0
C742 C 0.17099 0.0853 0.57988 0.0
C743 C 0.1689 0.04826 0.52176 0.0
N744 N 0.11018 0.05408 0.58848 0.0
N745 N 0.22237 0.08908 0.50528 0.0
H746 H 0.14977 0.00492 0.49189 0.0
H747 H 0.19285 0.02787 0.48424 0.0
H748 H 0.24407 0.10988 0.50917 0.0
H749 H 0.22048 0.07957 0.48151 0.0
H750 H 0.10738 0.06964 0.60743 0.0
H751 H 0.08724 0.03496 0.58294 0.0
H752 H 0.15859 0.08972 0.62981 0.0
H753 H 0.199 0.11629 0.61886 0.0
C754 C 0.74542 0.14827 0.8046 0.0
C755 C 0.75968 0.16139 0.77359 0.0
C756 C 0.73288 0.1055 0.74935 0.0
C757 C 0.72179 0.09153 0.78151 0.0
N758 N 0.72718 0.09695 0.84181 0.0
N759 N 0.77169 0.15148 0.7176 0.0
C760 C 0.73106 0.11211 0.80979 0.0
C761 C 0.75495 0.13962 0.74628 0.0
N762 N 0.74387 0.17056 0.82854 0.0
N763 N 0.72098 0.08703 0.72159 0.0
H764 H 0.78746 0.17655 0.71439 0.0
H765 H 0.77221 0.13563 0.69817 0.0
H766 H 0.70449 0.06228 0.72302 0.0
H767 H 0.72494 0.09733 0.69696 0.0
H768 H 0.73071 0.16256 0.85037 0.0
H769 H 0.75176 0.19763 0.82463 0.0
H770 H 0.7367 0.1104 0.86336 0.0
H771 H 0.71835 0.07009 0.84696 0.0
C772 C 0.44584 0.07889 0.56613 0.0
C773 C 0.4397 0.04717 0.58701 0.0
C774 C 0.38644 0.06307 0.60637 0.0
C775 C 0.39182 0.09415 0.58454 0.0
N776 N 0.42255 0.12916 0.53955 0.0
N777 N 0.40115 0.00585 0.62241 0.0
C778 C 0.42019 0.10118 0.563 0.0
C779 C 0.40908 0.03833 0.60583 0.0
N780 N 0.47704 0.08844 0.55047 0.0
N781 N 0.35999 0.05751 0.62805 0.0
H782 H 0.4173 0.98724 0.62279 0.0
H783 H 0.37724 0.99624 0.63361 0.0
H784 H 0.34147 0.07389 0.62772 0.0
H785 H 0.35744 0.03777 0.64752 0.0
H786 H 0.48517 0.11292 0.53797 0.0
H787 H 0.49643 0.07284 0.5521 0.0
H788 H 0.44015 0.13367 0.52066 0.0
H789 H 0.40485 0.14655 0.53724 0.0
C790 C 0.57128 0.4348 0.52602 0.0
C791 C 0.56854 0.46019 0.49839 0.0
C792 C 0.61575 0.44068 0.47211 0.0
C793 C 0.6184 0.41539 0.49957 0.0
N794 N 0.60708 0.39578 0.55724 0.0
N795 N 0.5986 0.49592 0.45297 0.0
C796 C 0.59851 0.4145 0.52786 0.0
C797 C 0.59395 0.46583 0.47375 0.0
N798 N 0.54804 0.43003 0.55068 0.0
N799 N 0.6331 0.44009 0.44399 0.0
H800 H 0.58545 0.5164 0.45509 0.0
H801 H 0.61891 0.50251 0.4366 0.0
H802 H 0.64938 0.4221 0.44186 0.0
H803 H 0.62884 0.45549 0.42176 0.0
H804 H 0.54522 0.40855 0.56838 0.0
H805 H 0.53044 0.44667 0.55293 0.0
H806 H 0.59629 0.39705 0.57987 0.0
H807 H 0.62791 0.38178 0.56013 0.0
C808 C 0.73149 0.31109 0.36003 0.0
C809 C 0.70344 0.2817 0.35362 0.0
C810 C 0.68258 0.28375 0.40934 0.0
C811 C 0.71391 0.30936 0.41762 0.0
N812 N 0.76846 0.34788 0.40163 0.0
N813 N 0.65261 0.239 0.37187 0.0
C814 C 0.73828 0.32346 0.39303 0.0
C815 C 0.67866 0.26809 0.37799 0.0
N816 N 0.75138 0.32717 0.33436 0.0
N817 N 0.65673 0.27428 0.4316 0.0
H818 H 0.64832 0.22746 0.34887 0.0
H819 H 0.63654 0.22506 0.39007 0.0
H820 H 0.6592 0.28453 0.45514 0.0
H821 H 0.63161 0.25847 0.42579 0.0
H822 H 0.7702 0.35051 0.33629 0.0
H823 H 0.74677 0.31867 0.30995 0.0
H824 H 0.78951 0.35634 0.38632 0.0
H825 H 0.77332 0.35858 0.42508 0.0
C826 C 0.56764 0.02237 0.92759 0.0
C827 C 0.53343 0.02506 0.9105 0.0
C828 C 0.55557 0.01344 0.85757 0.0
C829 C 0.58679 0.00454 0.87641 0.0
N830 N 0.61888 0.99423 0.93068 0.0
N831 N 0.4958 0.0258 0.8574 0.0
C832 C 0.5915 0.00687 0.91187 0.0
C833 C 0.52756 0.02107 0.87499 0.0
N834 N 0.57872 0.03699 0.95769 0.0
N835 N 0.55387 0.01766 0.82304 0.0
H836 H 0.47736 0.03801 0.86667 0.0
H837 H 0.48754 0.0172 0.83334 0.0
H838 H 0.5739 0.0135 0.80897 0.0
H839 H 0.53405 0.02839 0.80816 0.0
H840 H 0.6046 0.03789 0.96971 0.0
H841 H 0.56418 0.05262 0.96806 0.0
H842 H 0.62152 0.99265 0.95703 0.0
H843 H 0.63648 0.98194 0.92008 0.0
C844 C 0.25785 0.22209 0.4108 0.0
C845 C 0.28643 0.24949 0.401 0.0
C846 C 0.31715 0.24654 0.45838 0.0
C847 C 0.28864 0.21907 0.46811 0.0
N848 N 0.23511 0.17652 0.45324 0.0
N849 N 0.34567 0.28474 0.41329 0.0
C850 C 0.25996 0.20558 0.44412 0.0
C851 C 0.31694 0.26062 0.42413 0.0
N852 N 0.22833 0.21247 0.3884 0.0
N853 N 0.34341 0.26039 0.48235 0.0
H854 H 0.34571 0.29723 0.38904 0.0
H855 H 0.37041 0.29101 0.42752 0.0
H856 H 0.34502 0.2501 0.50741 0.0
H857 H 0.36252 0.28317 0.47811 0.0
H858 H 0.20466 0.19569 0.39486 0.0
H859 H 0.22667 0.22273 0.36333 0.0
H860 H 0.2155 0.163 0.43641 0.0
H861 H 0.23574 0.16419 0.47755 0.0
C862 C 0.45917 0.48876 0.89538 0.0
C863 C 0.49512 0.50663 0.90382 0.0
C864 C 0.49369 0.54349 0.85096 0.0
C865 C 0.45986 0.52258 0.84052 0.0
N866 N 0.40547 0.48318 0.85539 0.0
N867 N 0.5393 0.55995 0.89719 0.0
C868 C 0.44081 0.49787 0.86377 0.0
C869 C 0.50999 0.5371 0.88405 0.0
N870 N 0.44323 0.46258 0.91723 0.0
N871 N 0.5107 0.56863 0.82878 0.0
H872 H 0.55061 0.55649 0.92198 0.0
H873 H 0.5499 0.58403 0.88508 0.0
H874 H 0.49843 0.57539 0.80509 0.0
H875 H 0.53732 0.58178 0.83324 0.0
H876 H 0.41888 0.4456 0.91138 0.0
H877 H 0.45477 0.45765 0.94167 0.0
H878 H 0.38905 0.46642 0.87165 0.0
H879 H 0.39156 0.48988 0.83255 0.0
C880 C 0.77421 0.75745 0.15882 0.0
C881 C 0.73662 0.75123 0.16275 0.0
C882 C 0.7275 0.69901 0.13052 0.0
C883 C 0.76524 0.70409 0.1288 0.0
N884 N 0.82536 0.73461 0.14581 0.0
N885 N 0.67674 0.72405 0.14025 0.0
C886 C 0.78884 0.73209 0.14458 0.0
C887 C 0.7129 0.72404 0.14542 0.0
N888 N 0.79524 0.78935 0.16514 0.0
N889 N 0.70573 0.66956 0.11858 0.0
H890 H 0.66526 0.74413 0.14694 0.0
H891 H 0.65858 0.70679 0.12528 0.0
H892 H 0.71604 0.65094 0.10782 0.0
H893 H 0.67845 0.6619 0.12227 0.0
H894 H 0.82221 0.79674 0.16024 0.0
H895 H 0.78427 0.81029 0.17035 0.0
H896 H 0.84387 0.75211 0.1603 0.0
H897 H 0.83713 0.71708 0.13486 0.0
C898 C 0.00873 0.07042 0.12079 0.0
C899 C 0.98577 0.05391 0.09409 0.0
C900 C 0.93687 0.03636 0.13125 0.0
C901 C 0.95833 0.05673 0.1564 0.0
N902 N 0.01308 0.09707 0.17377 0.0
N903 N 0.92752 0.02293 0.07236 0.0
C904 C 0.994 0.07453 0.151 0.0
C905 C 0.9497 0.03718 0.09892 0.0
N906 N 0.0447 0.08211 0.11726 0.0
N907 N 0.9048 0.01544 0.1387 0.0
H908 H 0.93652 0.02194 0.04875 0.0
H909 H 0.89984 0.01392 0.07309 0.0
H910 H 0.89517 0.01393 0.16237 0.0
H911 H 0.88937 0.99741 0.12266 0.0
H912 H 0.06355 0.09085 0.13711 0.0
H913 H 0.05639 0.08021 0.09522 0.0
H914 H 0.03741 0.1139 0.16927 0.0
H915 H 1.00326 0.10139 0.19608 0.0
C916 C 0.29156 0.83251 0.14167 0.0
C917 C 0.27542 0.80021 0.15804 0.0
C918 C 0.23201 0.78898 0.10796 0.0
C919 C 0.24444 0.8238 0.09467 0.0
N920 N 0.28288 0.88074 0.10152 0.0
N921 N 0.22979 0.7469 0.1565 0.0
C922 C 0.27314 0.84622 0.11237 0.0
C923 C 0.24571 0.77801 0.14096 0.0
N924 N 0.32531 0.84939 0.15305 0.0
N925 N 0.20684 0.76643 0.08925 0.0
H926 H 0.24011 0.73628 0.17937 0.0
H927 H 0.2051 0.73216 0.14755 0.0
H928 H 0.19385 0.77402 0.06626 0.0
H929 H 0.20029 0.73957 0.09544 0.0
H930 H 0.33949 0.87144 0.14013 0.0
H931 H 0.34107 0.83897 0.17284 0.0
H932 H 0.30044 0.89896 0.11604 0.0
H933 H 0.27225 0.89169 0.07885 0.0
C934 C 0.04673 0.47956 0.1706 0.0
C935 C 0.05051 0.50761 0.14513 0.0
C936 C 0.10907 0.53386 0.1736 0.0
C937 C 0.10725 0.5038 0.19682 0.0
N938 N 0.07621 0.44616 0.21546 0.0
N939 N 0.08677 0.55957 0.11989 0.0
C940 C 0.07641 0.47622 0.19499 0.0
C941 C 0.08205 0.53433 0.14602 0.0
N942 N 0.01452 0.4564 0.1717 0.0
N943 N 0.136 0.56255 0.17859 0.0
H944 H 0.06726 0.56139 0.09967 0.0
H945 H 0.11101 0.57718 0.11693 0.0
H946 H 0.15623 0.56342 0.19851 0.0
H947 H 0.13653 0.58661 0.16489 0.0
H948 H 0.00863 0.43752 0.19154 0.0
H949 H 0.99245 0.45794 0.15405 0.0
H950 H 0.05638 0.4236 0.2129 0.0
H951 H 0.09745 0.44272 0.23347 0.0
C952 C 0.41615 0.7361 0.30201 0.0
C953 C 0.38348 0.74829 0.30139 0.0
C954 C 0.40691 0.77967 0.35198 0.0
C955 C 0.43743 0.76347 0.35536 0.0
N956 N 0.46948 0.72311 0.33524 0.0
N957 N 0.34583 0.77923 0.32684 0.0
C958 C 0.4419 0.74114 0.33061 0.0
C959 C 0.37837 0.76958 0.32658 0.0
N960 N 0.42272 0.71998 0.27501 0.0
N961 N 0.40581 0.80559 0.37235 0.0
H962 H 0.32461 0.77308 0.30814 0.0
H963 H 0.33896 0.79119 0.34676 0.0
H964 H 0.42661 0.81423 0.39072 0.0
H965 H 0.38611 0.82086 0.36892 0.0
H966 H 0.44765 0.71403 0.27219 0.0
H967 H 0.40419 0.7153 0.25387 0.0
H968 H 0.47125 0.70313 0.32038 0.0
H969 H 0.48933 0.72599 0.35543 0.0
C970 C 0.04324 0.43067 1.00113 0.0
C971 C 0.02039 0.45323 0.98528 0.0
C972 C 0.99935 0.41285 0.94049 0.0
C973 C 0.02015 0.38936 0.95756 0.0
N974 N 0.06883 0.379 0.9985 0.0
N975 N 0.99089 0.47277 0.9323 0.0
C976 C 0.04439 0.39934 0.98614 0.0
C977 C 1.00267 0.44653 0.95259 0.0
N978 N 0.06339 0.43898 0.0308 0.0
N979 N 0.97569 0.40266 0.91331 0.0
H980 H 0.99669 0.49875 0.9385 0.0
H981 H 0.98009 0.46988 0.90737 0.0
H982 H 0.97358 0.37865 0.90305 0.0
H983 H 0.95664 0.41703 0.90236 0.0
H984 H 0.07633 0.42161 0.04635 0.0
H985 H 0.06683 0.46349 0.04025 0.0
H986 H 0.08954 0.38611 0.01732 0.0
H987 H 0.07027 0.35595 0.98796 0.0
C988 C 0.64808 0.82142 0.28902 0.0
C989 C 0.68544 0.82572 0.29983 0.0
C990 C 0.67178 0.82311 0.35863 0.0
C991 C 0.63445 0.8135 0.34824 0.0
N992 N 0.58696 0.79878 0.3035 0.0
N993 N 0.73264 0.82468 0.3454 0.0
C994 C 0.62242 0.81166 0.31337 0.0
C995 C 0.6973 0.82508 0.33479 0.0
N996 N 0.63714 0.82731 0.2556 0.0
N997 N 0.68285 0.83122 0.39118 0.0
H998 H 0.75213 0.82504 0.32884 0.0
H999 H 0.74189 0.82051 0.37069 0.0
H1000 H 0.6648 0.83116 0.40911 0.0
H1001 H 0.70957 0.84163 0.39933 0.0
H1002 H 0.6105 0.82806 0.2467 0.0
H1003 H 0.6552 0.83465 0.23709 0.0
H1004 H 0.57757 0.79315 0.27873 0.0
H1005 H 0.56729 0.79089 0.32041 0.0
C1006 C 0.99363 0.13652 0.96268 0.0
C1007 C 0.01711 0.13102 0.9919 0.0
C1008 C 0.04486 0.19345 0.98949 0.0
C1009 C 0.02353 0.19847 0.95865 0.0
N1010 N 0.97966 0.17523 0.91406 0.0
N1011 N 0.06823 0.15246 0.03093 0.0
C1012 C 0.99847 0.17009 0.94468 0.0
C1013 C 0.04347 0.15905 0.00483 0.0
N1014 N 0.96623 0.10986 0.95273 0.0
N1015 N 0.06658 0.22158 0.0041 0.0
H1016 H 0.06805 0.12765 0.04309 0.0
H1017 H 0.09075 0.17086 0.03893 0.0
H1018 H 0.07029 0.24702 0.9928 0.0
H1019 H 0.07917 0.22025 0.02854 0.0
H1020 H 0.94582 0.11296 0.93381 0.0
H1021 H 0.96244 0.08483 0.96506 0.0
H1022 H 0.964 0.15504 0.90059 0.0
H1023 H 0.9811 0.19983 0.9011 0.0
C1024 C 0.36864 0.29093 0.22058 0.0
C1025 C 0.37255 0.27371 0.25333 0.0
C1026 C 0.40866 0.23632 0.23205 0.0
C1027 C 0.40752 0.25588 0.20028 0.0
N1028 N 0.39059 0.30447 0.16512 0.0
N1029 N 0.38532 0.22247 0.28704 0.0
C1030 C 0.38837 0.28371 0.19466 0.0
C1031 C 0.38956 0.24424 0.25824 0.0
N1032 N 0.34447 0.31272 0.21369 0.0
N1033 N 0.42843 0.21047 0.23731 0.0
H1034 H 0.36952 0.22597 0.30572 0.0
H1035 H 0.39411 0.19882 0.29109 0.0
H1036 H 0.44085 0.20239 0.21823 0.0
H1037 H 0.43439 0.19825 0.26091 0.0
H1038 H 0.33765 0.32325 0.18952 0.0
H1039 H 0.32794 0.31718 0.23134 0.0
H1040 H 0.381 0.32773 0.16106 0.0
H1041 H 0.40492 0.30021 0.14556 0.0
C1042 C 0.53887 0.38375 0.02454 0.0
C1043 C 0.54517 0.41133 0.04646 0.0
C1044 C 0.53938 0.36801 0.09521 0.0
C1045 C 0.5291 0.34069 0.07286 0.0
N1046 N 0.5087 0.32423 0.01602 0.0
N1047 N 0.54397 0.42969 0.10235 0.0
C1048 C 0.52571 0.34907 0.03743 0.0
C1049 C 0.5432 0.40349 0.08177 0.0
N1050 N 0.54684 0.39029 0.99168 0.0
N1051 N 0.5472 0.36036 0.12894 0.0
H1052 H 0.54605 0.45586 0.09335 0.0
H1053 H 0.53908 0.42501 0.12772 0.0
H1054 H 0.54571 0.33486 0.1397 0.0
H1055 H 0.55841 0.37943 0.14569 0.0
H1056 H 0.54581 0.37042 0.97571 0.0
H1057 H 0.55829 0.4151 0.98147 0.0
H1058 H 0.50277 0.33003 0.99026 0.0
H1059 H 0.49671 0.29891 0.02451 0.0
C1060 C 0.63555 0.27574 0.2267 0.0
C1061 C 0.65909 0.2515 0.23191 0.0
C1062 C 0.62692 0.22081 0.18366 0.0
C1063 C 0.59929 0.2405 0.18223 0.0
N1064 N 0.57881 0.28949 0.20155 0.0
N1065 N 0.69097 0.22658 0.19445 0.0
C1066 C 0.6039 0.26875 0.20359 0.0
C1067 C 0.65915 0.2309 0.20454 0.0
N1068 N 0.64692 0.3082 0.23853 0.0
N1069 N 0.62252 0.19193 0.16572 0.0
H1070 H 0.71572 0.24 0.20504 0.0
H1071 H 0.69238 0.21417 0.17273 0.0
H1072 H 0.59851 0.18202 0.15151 0.0
H1073 H 0.64163 0.17595 0.16812 0.0
H1074 H 0.63281 0.3285 0.23309 0.0
H1075 H 0.67324 0.31631 0.24939 0.0
H1076 H 0.57855 0.3071 0.21952 0.0
H1077 H 0.55732 0.28822 0.18291 0.0
C1078 C 0.45429 0.11581 0.03227 0.0
C1079 C 0.46876 0.08627 0.04574 0.0
C1080 C 0.49532 0.11713 0.09627 0.0
C1081 C 0.47825 0.14541 0.08399 0.0
N1082 N 0.43601 0.16908 0.04334 0.0
N1083 N 0.49959 0.05658 0.09183 0.0
C1084 C 0.45635 0.14411 0.05274 0.0
C1085 C 0.48836 0.0863 0.07814 0.0
N1086 N 0.43914 0.1171 0.9996 0.0
N1087 N 0.51906 0.12027 0.12462 0.0
H1088 H 0.49564 0.0339 0.07893 0.0
H1089 H 0.51058 0.05351 0.11671 0.0
H1090 H 0.52457 0.14244 0.13842 0.0
H1091 H 0.53531 0.10223 0.13304 0.0
H1092 H 0.43201 0.13957 0.98703 0.0
H1093 H 0.43635 0.09658 0.98399 0.0
H1094 H 0.41644 0.16736 0.02286 0.0
H1095 H 0.43612 0.19002 0.05774 0.0
C1096 C 0.29663 0.38935 0.72028 0.0
C1097 C 0.29938 0.36837 0.75102 0.0
C1098 C 0.35334 0.40987 0.77153 0.0
C1099 C 0.35165 0.42999 0.74011 0.0
N1100 N 0.32531 0.43707 0.68292 0.0
N1101 N 0.33177 0.35601 0.80479 0.0
C1102 C 0.3242 0.41927 0.71402 0.0
C1103 C 0.32826 0.37782 0.77627 0.0
N1104 N 0.2673 0.38092 0.6974 0.0
N1105 N 0.37801 0.42224 0.79737 0.0
H1106 H 0.31281 0.33343 0.81045 0.0
H1107 H 0.35456 0.35897 0.82204 0.0
H1108 H 0.39748 0.44514 0.79473 0.0
H1109 H 0.37785 0.41134 0.82216 0.0
H1110 H 0.26135 0.39713 0.67627 0.0
H1111 H 0.24749 0.35833 0.70054 0.0
H1112 H 0.3085 0.42876 0.66166 0.0
H1113 H 0.34509 0.45907 0.67775 0.0
C1114 C 0.30041 0.64508 0.81228 0.0
C1115 C 0.27639 0.65481 0.78496 0.0
C1116 C 0.29767 0.61855 0.74784 0.0
C1117 C 0.32394 0.61123 0.77416 0.0
N1118 N 0.34417 0.60889 0.83341 0.0
N1119 N 0.24166 0.63901 0.73261 0.0
C1120 C 0.3233 0.62178 0.80712 0.0
C1121 C 0.27148 0.63749 0.75467 0.0
N1122 N 0.30172 0.65871 0.8428 0.0
N1123 N 0.29913 0.60963 0.71578 0.0
H1124 H 0.22142 0.65168 0.73763 0.0
H1125 H 0.23498 0.62444 0.71146 0.0
H1126 H 0.31792 0.59593 0.7094 0.0
H1127 H 0.28341 0.61813 0.6949 0.0
H1128 H 0.32158 0.65657 0.86252 0.0
H1129 H 0.2828 0.67276 0.84832 0.0
H1130 H 0.34324 0.6132 0.85859 0.0
H1131 H 0.36058 0.5913 0.83026 0.0
C1132 C 0.85797 0.47151 0.48514 0.0
C1133 C 0.88722 0.47251 0.51055 0.0
C1134 C 0.85305 0.4219 0.54191 0.0
C1135 C 0.82555 0.41832 0.51458 0.0
N1136 N 0.80351 0.43711 0.45831 0.0
N1137 N 0.9146 0.44743 0.56173 0.0
C1138 C 0.82823 0.44265 0.48579 0.0
C1139 C 0.88523 0.44748 0.53867 0.0
N1140 N 0.85859 0.49835 0.46054 0.0
N1141 N 0.84797 0.40145 0.57137 0.0
H1142 H 0.93821 0.46648 0.56093 0.0
H1143 H 0.91657 0.42729 0.58038 0.0
H1144 H 0.82508 0.38205 0.5747 0.0
H1145 H 0.86497 0.40553 0.59351 0.0
H1146 H 0.83655 0.50114 0.44334 0.0
H1147 H 0.88024 0.51955 0.45904 0.0
H1148 H 0.80626 0.45157 0.43516 0.0
H1149 H 0.78154 0.41616 0.45762 0.0
C1150 C 0.75945 0.86915 0.82549 0.0
C1151 C 0.74193 0.83775 0.81064 0.0
C1152 C 0.69161 0.86586 0.78637 0.0
C1153 C 0.71091 0.89805 0.79836 0.0
N1154 N 0.76278 0.93136 0.8292 0.0
N1155 N 0.6918 0.80525 0.77714 0.0
C1156 C 0.74455 0.89984 0.81822 0.0
C1157 C 0.70794 0.83576 0.79132 0.0
N1158 N 0.79036 0.86953 0.84664 0.0
N1159 N 0.65766 0.86424 0.77046 0.0
H1160 H 0.70216 0.78237 0.78162 0.0
H1161 H 0.66901 0.80265 0.75992 0.0
H1162 H 0.64548 0.88603 0.76622 0.0
H1163 H 0.64055 0.84121 0.76335 0.0
H1164 H 0.80232 0.89003 0.86149 0.0
H1165 H 0.80336 0.84832 0.85104 0.0
H1166 H 0.78937 0.93591 0.83986 0.0
H1167 H 0.75175 0.95388 0.82645 0.0
C1168 C 0.65584 0.53592 0.00802 0.0
C1169 C 0.63014 0.5277 0.03235 0.0
C1170 C 0.67055 0.56687 0.0706 0.0
C1171 C 0.69244 0.57998 0.04398 0.0
N1172 N 0.70749 0.57685 0.98748 0.0
N1173 N 0.61166 0.53703 0.08627 0.0
C1174 C 0.68581 0.56414 0.01281 0.0
C1175 C 0.63729 0.54329 0.06374 0.0
N1176 N 0.6518 0.51634 0.98072 0.0
N1177 N 0.68211 0.57644 0.10258 0.0
H1178 H 0.58678 0.52015 0.08216 0.0
H1179 H 0.6139 0.55072 0.10782 0.0
H1180 H 0.70755 0.59183 0.10831 0.0
H1181 H 0.66874 0.56576 0.12373 0.0
H1182 H 0.67118 0.51892 0.96363 0.0
H1183 H 0.63037 0.49524 0.97678 0.0
H1184 H 0.70155 0.56962 0.96273 0.0
H1185 H 0.73093 0.59589 0.99104 0.0
C1186 C 0.24182 0.65524 0.25852 0.0
C1187 C 0.27961 0.65727 0.25901 0.0
C1188 C 0.27158 0.59505 0.27759 0.0
C1189 C 0.23342 0.59218 0.27361 0.0
N1190 N 0.18269 0.61824 0.25078 0.0
N1191 N 0.32886 0.62683 0.2598 0.0
C1192 C 0.21864 0.62187 0.2611 0.0
C1193 C 0.29398 0.62641 0.26552 0.0
N1194 N 0.22805 0.685 0.25733 0.0
N1195 N 0.28685 0.56915 0.29497 0.0
H1196 H 0.34587 0.64916 0.25011 0.0
H1197 H 0.3395 0.60416 0.26124 0.0
H1198 H 0.27209 0.54679 0.30687 0.0
H1199 H 0.3146 0.57189 0.30107 0.0
H1200 H 0.20103 0.68456 0.26021 0.0
H1201 H 0.24408 0.71008 0.25709 0.0
H1202 H 0.17139 0.63872 0.23862 0.0
H1203 H 0.16501 0.59402 0.25077 0.0
C1204 C 0.91234 0.54112 0.1032 0.0
C1205 C 0.9429 0.55131 0.08438 0.0
C1206 C 0.91896 0.60213 0.05777 0.0
C1207 C 0.89011 0.59366 0.07879 0.0
N1208 N 0.86058 0.55721 0.12374 0.0
N1209 N 0.97823 0.59375 0.04725 0.0
C1210 C 0.88719 0.56374 0.10218 0.0
C1211 C 0.94693 0.58237 0.06247 0.0
N1212 N 0.90673 0.50923 0.12113 0.0
N1213 N 0.91957 0.62902 0.03322 0.0
H1214 H 0.99935 0.58011 0.05019 0.0
H1215 H 0.98467 0.61804 0.03394 0.0
H1216 H 0.9003 0.64484 0.02982 0.0
H1217 H 0.9375 0.6341 0.0146 0.0
H1218 H 0.88309 0.49844 0.13237 0.0
H1219 H 0.92471 0.49216 0.12272 0.0
H1220 H 0.85952 0.53849 0.14412 0.0
H1221 H 0.84044 0.57193 0.12244 0.0
C1222 C 0.09654 0.97512 0.96699 0.0
C1223 C 0.07305 0.97027 0.99323 0.0
C1224 C 0.10456 0.92523 0.02168 0.0
C1225 C 0.12204 0.92501 0.99206 0.0
N1226 N 0.13301 0.94824 0.93521 0.0
N1227 N 0.05629 0.94165 0.04729 0.0
C1228 C 0.1178 0.9497 0.9644 0.0
C1229 C 0.07762 0.94567 0.02117 0.0
N1230 N 0.09984 0.00466 0.94547 0.0
N1231 N 0.1151 0.90732 0.05089 0.0
H1232 H 0.03891 0.95831 0.05018 0.0
H1233 H 0.05474 0.92072 0.06559 0.0
H1234 H 0.13584 0.89328 0.05268 0.0
H1235 H 0.10615 0.90939 0.07422 0.0
H1236 H 0.11882 0.01071 0.92776 0.0
H1237 H 0.08707 0.02528 0.94811 0.0
H1238 H 0.1274 0.96313 0.91298 0.0
H1239 H 0.14889 0.93009 0.93238 0.0
loop_
_geom_bond_atom_site_label_1
_geom_bond_atom_site_label_2
_geom_bond_distance
_geom_bond_site_symmetry_2
_ccdc_geom_bond_type
H0 C7 0.929 . S
H1 C10 0.930 . S
H2 C12 0.936 . S
H3 C4 0.969 . S
C4 H3 0.969 . S
C4 O5 1.550 1_565 S
C4 H6 0.973 . S
O5 C4 1.550 1_545 S
O5 C11 1.412 . S
H6 C4 0.973 . S
C7 H0 0.929 . S
C7 C8 1.400 . S
C7 C9 1.364 . S
C8 C7 1.400 . S
C8 C12 1.374 1_654 S
C9 C7 1.364 . S
C9 C10 1.374 1_655 S
C10 H1 0.930 . S
C10 C9 1.374 1_455 S
C10 C11 1.383 . S
C11 O5 1.412 . S
C11 C10 1.383 . S
C11 C12 1.390 1_554 S
C12 H2 0.936 . S
C12 C8 1.374 1_456 S
C12 C11 1.390 1_556 S
H13 C20 0.929 . S
H14 C23 0.930 . S
H15 C25 0.929 . S
H16 C17 0.969 . S
C17 H16 0.969 . S
C17 O18 1.550 . S
C17 H19 0.973 . S
O18 C17 1.550 . S
O18 C24 1.412 . S
H19 C17 0.973 . S
C20 H13 0.929 . S
C20 C21 1.400 . S
C20 C22 1.364 . S
C21 C20 1.400 . S
C21 C25 1.377 . S
C22 C20 1.364 . S
C22 C23 1.374 . S
C23 H14 0.930 . S
C23 C22 1.374 . S
C23 C24 1.383 . S
C24 O18 1.412 . S
C24 C23 1.383 . S
C24 C25 1.394 . S
C25 H15 0.929 . S
C25 C21 1.377 . S
C25 C24 1.394 . S
H26 C33 0.929 . S
H27 C36 0.930 . S
H28 C38 0.929 . S
H29 C30 0.969 . S
C30 H29 0.969 . S
C30 O31 1.550 . S
C30 H32 0.973 . S
O31 C30 1.550 . S
O31 C37 1.412 . S
H32 C30 0.973 . S
C33 H26 0.929 . S
C33 C34 1.400 1_655 S
C33 C35 1.364 . S
C34 C33 1.400 1_455 S
C34 C38 1.377 . S
C35 C33 1.364 . S
C35 C36 1.374 . S
C36 H27 0.930 . S
C36 C35 1.374 . S
C36 C37 1.383 . S
C37 O31 1.412 . S
C37 C36 1.383 . S
C37 C38 1.394 1_655 S
C38 H28 0.929 . S
C38 C34 1.377 . S
C38 C37 1.394 1_455 S
H39 C46 0.929 . S
H40 C49 0.930 . S
H41 C51 0.929 . S
H42 C43 0.969 . S
C43 H42 0.969 . S
C43 O44 1.550 . S
C43 H45 0.973 . S
O44 C43 1.550 . S
O44 C50 1.412 . S
H45 C43 0.973 . S
C46 H39 0.929 . S
C46 C47 1.400 . S
C46 C48 1.364 . S
C47 C46 1.400 . S
C47 C51 1.377 . S
C48 C46 1.364 . S
C48 C49 1.374 . S
C49 H40 0.930 . S
C49 C48 1.374 . S
C49 C50 1.383 . S
C50 O44 1.412 . S
C50 C49 1.383 . S
C50 C51 1.394 . S
C51 H41 0.929 . S
C51 C47 1.377 . S
C51 C50 1.394 . S
H52 C59 0.929 . S
H53 C62 0.930 . S
H54 C64 0.929 . S
H55 C56 0.969 1_655 S
C56 H55 0.969 1_455 S
C56 O57 1.550 1_565 S
C56 H58 0.973 1_455 S
O57 C56 1.550 1_545 S
O57 C63 1.412 1_545 S
H58 C56 0.973 1_655 S
C59 H52 0.929 . S
C59 C60 1.400 1_565 S
C59 C61 1.364 . S
C60 C59 1.400 1_545 S
C60 C64 1.377 . S
C61 C59 1.364 . S
C61 C62 1.374 . S
C62 H53 0.930 . S
C62 C61 1.374 . S
C62 C63 1.383 . S
C63 O57 1.412 1_565 S
C63 C62 1.383 . S
C63 C64 1.394 1_565 S
C64 H54 0.929 . S
C64 C60 1.377 . S
C64 C63 1.394 1_545 S
H65 C72 0.929 . S
H66 C75 0.930 . S
H67 C77 0.929 . S
H68 C69 0.969 . S
C69 H68 0.969 . S
C69 O70 1.550 . S
C69 H71 0.973 . S
O70 C69 1.550 . S
O70 C76 1.412 . S
H71 C69 0.973 . S
C72 H65 0.929 . S
C72 C73 1.400 . S
C72 C74 1.364 . S
C73 C72 1.400 . S
C73 C77 1.377 . S
C74 C72 1.364 . S
C74 C75 1.374 . S
C75 H66 0.930 . S
C75 C74 1.374 . S
C75 C76 1.383 . S
C76 O70 1.412 . S
C76 C75 1.383 . S
C76 C77 1.394 . S
C77 H67 0.929 . S
C77 C73 1.377 . S
C77 C76 1.394 . S
H78 C85 0.929 . S
H79 C88 0.930 . S
H80 C90 0.929 1_455 S
H81 C82 0.969 1_655 S
C82 H81 0.969 1_455 S
C82 O83 1.550 . S
C82 H84 0.973 1_455 S
O83 C82 1.550 . S
O83 C89 1.412 1_455 S
H84 C82 0.973 1_655 S
C85 H78 0.929 . S
C85 C86 1.400 . S
C85 C87 1.364 . S
C86 C85 1.400 . S
C86 C90 1.377 . S
C87 C85 1.364 . S
C87 C88 1.374 . S
C88 H79 0.930 . S
C88 C87 1.374 . S
C88 C89 1.383 . S
C89 O83 1.412 1_655 S
C89 C88 1.383 . S
C89 C90 1.394 . S
C90 H80 0.929 1_655 S
C90 C86 1.377 . S
C90 C89 1.394 . S
H91 C98 0.929 . S
H92 C101 0.930 . S
H93 C103 0.929 . S
H94 C95 0.969 . S
C95 H94 0.969 . S
C95 O96 1.550 . S
C95 H97 0.973 . S
O96 C95 1.550 . S
O96 C102 1.412 . S
H97 C95 0.973 . S
C98 H91 0.929 . S
C98 C99 1.400 . S
C98 C100 1.364 . S
C99 C98 1.400 . S
C99 C103 1.377 . S
C100 C98 1.364 . S
C100 C101 1.374 . S
C101 H92 0.930 . S
C101 C100 1.374 . S
C101 C102 1.383 . S
C102 O96 1.412 . S
C102 C101 1.383 . S
C102 C103 1.394 . S
C103 H93 0.929 . S
C103 C99 1.377 . S
C103 C102 1.394 . S
H104 C111 0.929 . S
H105 C114 0.930 . S
H106 C116 0.929 . S
H107 C108 0.969 . S
C108 H107 0.969 . S
C108 O109 1.550 . S
C108 H110 0.973 . S
O109 C108 1.550 . S
O109 C115 1.412 . S
H110 C108 0.973 . S
C111 H104 0.929 . S
C111 C112 1.400 . S
C111 C113 1.364 . S
C112 C111 1.400 . S
C112 C116 1.377 . S
C113 C111 1.364 . S
C113 C114 1.374 . S
C114 H105 0.930 . S
C114 C113 1.374 . S
C114 C115 1.383 . S
C115 O109 1.412 . S
C115 C114 1.383 . S
C115 C116 1.394 . S
C116 H106 0.929 . S
C116 C112 1.377 . S
C116 C115 1.394 . S
H117 C124 0.929 1_545 S
H118 C127 0.930 . S
H119 C129 0.929 . S
H120 C121 0.969 . S
C121 H120 0.969 . S
C121 O122 1.550 . S
C121 H123 0.973 . S
O122 C121 1.550 . S
O122 C128 1.412 . S
H123 C121 0.973 . S
C124 H117 0.929 1_565 S
C124 C125 1.400 . S
C124 C126 1.364 . S
C125 C124 1.400 . S
C125 C129 1.377 . S
C126 C124 1.364 . S
C126 C127 1.374 . S
C127 H118 0.930 . S
C127 C126 1.374 . S
C127 C128 1.383 . S
C128 O122 1.412 . S
C128 C127 1.383 . S
C128 C129 1.394 . S
C129 H119 0.929 . S
C129 C125 1.377 . S
C129 C128 1.394 . S
H130 C137 0.929 . S
H131 C140 0.930 . S
H132 C142 0.929 . S
H133 C134 0.969 . S
C134 H133 0.969 . S
C134 O135 1.550 . S
C134 H136 0.973 . S
O135 C134 1.550 . S
O135 C141 1.412 . S
H136 C134 0.973 . S
C137 H130 0.929 . S
C137 C138 1.400 . S
C137 C139 1.364 . S
C138 C137 1.400 . S
C138 C142 1.377 . S
C139 C137 1.364 . S
C139 C140 1.374 . S
C140 H131 0.930 . S
C140 C139 1.374 . S
C140 C141 1.383 . S
C141 O135 1.412 . S
C141 C140 1.383 . S
C141 C142 1.394 . S
C142 H132 0.929 . S
C142 C138 1.377 . S
C142 C141 1.394 . S
H143 C150 0.929 . S
H144 C153 0.930 . S
H145 C155 0.929 . S
H146 C147 0.969 . S
C147 H146 0.969 . S
C147 O148 1.550 . S
C147 H149 0.973 . S
O148 C147 1.550 . S
O148 C154 1.412 . S
H149 C147 0.973 . S
C150 H143 0.929 . S
C150 C151 1.400 . S
C150 C152 1.364 . S
C151 C150 1.400 . S
C151 C155 1.377 . S
C152 C150 1.364 . S
C152 C153 1.374 . S
C153 H144 0.930 . S
C153 C152 1.374 . S
C153 C154 1.383 . S
C154 O148 1.412 . S
C154 C153 1.383 . S
C154 C155 1.394 . S
C155 H145 0.929 . S
C155 C151 1.377 . S
C155 C154 1.394 . S
H156 C163 0.929 . S
H157 C166 0.930 . S
H158 C168 0.929 . S
H159 C160 0.969 . S
C160 H159 0.969 . S
C160 O161 1.550 . S
C160 H162 0.973 . S
O161 C160 1.550 . S
O161 C167 1.412 . S
H162 C160 0.973 . S
C163 H156 0.929 . S
C163 C164 1.400 . S
C163 C165 1.364 . S
C164 C163 1.400 . S
C164 C168 1.377 . S
C165 C163 1.364 . S
C165 C166 1.374 . S
C166 H157 0.930 . S
C166 C165 1.374 . S
C166 C167 1.383 . S
C167 O161 1.412 . S
C167 C166 1.383 . S
C167 C168 1.394 . S
C168 H158 0.929 . S
C168 C164 1.377 . S
C168 C167 1.394 . S
H169 C176 0.929 . S
H170 C179 0.930 . S
H171 C181 0.929 . S
H172 C173 0.969 . S
C173 H172 0.969 . S
C173 O174 1.550 . S
C173 H175 0.973 . S
O174 C173 1.550 . S
O174 C180 1.412 . S
H175 C173 0.973 . S
C176 H169 0.929 . S
C176 C177 1.400 1_554 S
C176 C178 1.364 . S
C177 C176 1.400 1_556 S
C177 C181 1.377 . S
C178 C176 1.364 . S
C178 C179 1.374 1_554 S
C179 H170 0.930 . S
C179 C178 1.374 1_556 S
C179 C180 1.383 . S
C180 O174 1.412 . S
C180 C179 1.383 . S
C180 C181 1.394 . S
C181 H171 0.929 . S
C181 C177 1.377 . S
C181 C180 1.394 . S
H182 C189 0.929 . S
H183 C192 0.930 . S
H184 C194 0.929 . S
H185 C186 0.969 . S
C186 H185 0.969 . S
C186 O187 1.550 . S
C186 H188 0.973 . S
O187 C186 1.550 . S
O187 C193 1.412 . S
H188 C186 0.973 . S
C189 H182 0.929 . S
C189 C190 1.400 . S
C189 C191 1.364 . S
C190 C189 1.400 . S
C190 C194 1.377 . S
C191 C189 1.364 . S
C191 C192 1.374 . S
C192 H183 0.930 . S
C192 C191 1.374 . S
C192 C193 1.383 . S
C193 O187 1.412 . S
C193 C192 1.383 . S
C193 C194 1.394 . S
C194 H184 0.929 . S
C194 C190 1.377 . S
C194 C193 1.394 . S
H195 C202 0.929 . S
H196 C205 0.930 . S
H197 C207 0.929 . S
H198 C199 0.969 . S
C199 H198 0.969 . S
C199 O200 1.550 . S
C199 H201 0.973 . S
O200 C199 1.550 . S
O200 C206 1.412 . S
H201 C199 0.973 . S
C202 H195 0.929 . S
C202 C203 1.400 . S
C202 C204 1.364 . S
C203 C202 1.400 . S
C203 C207 1.377 . S
C204 C202 1.364 . S
C204 C205 1.374 1_554 S
C205 H196 0.930 . S
C205 C204 1.374 1_556 S
C205 C206 1.383 . S
C206 O200 1.412 . S
C206 C205 1.383 . S
C206 C207 1.394 1_556 S
C207 H197 0.929 . S
C207 C203 1.377 . S
C207 C206 1.394 1_554 S
Mg208 O209 2.030 . S
Mg208 O215 1.986 1_554 S
Mg208 O217 2.114 . S
Mg208 O218 2.251 . S
Mg208 O221 2.010 . S
O209 Mg208 2.030 . S
O209 C212 1.248 1_554 S
O210 Mg211 2.028 . S
O210 C212 1.248 . S
Mg211 O210 2.028 . S
Mg211 O216 2.032 . S
Mg211 O218 2.079 1_556 S
C212 O209 1.248 1_556 S
C212 O210 1.248 . S
C213 O214 1.264 . S
C213 O221 1.249 . S
O214 C213 1.264 . S
O215 Mg208 1.986 1_556 S
O215 C219 1.246 . S
O216 Mg211 2.032 . S
O216 C219 1.259 . S
O217 Mg208 2.114 . S
O217 C220 1.252 . S
O218 Mg208 2.251 . S
O218 Mg211 2.079 1_554 S
O218 C220 1.273 . S
C219 O215 1.246 . S
C219 O216 1.259 . S
C220 O217 1.252 . S
C220 O218 1.273 . S
O221 Mg208 2.010 . S
O221 C213 1.249 . S
Mg222 O223 2.028 . S
Mg222 O229 1.986 . S
Mg222 O231 2.114 . S
Mg222 O232 2.251 . S
Mg222 O235 2.010 . S
O223 Mg222 2.028 . S
O223 C226 1.250 . S
O224 Mg225 2.028 . S
O224 C226 1.248 . S
Mg225 O224 2.028 . S
Mg225 O230 2.032 . S
Mg225 O232 2.079 . S
C226 O223 1.250 . S
C226 O224 1.248 . S
C227 O228 1.264 . S
C227 O235 1.249 . S
O228 C227 1.264 . S
O229 Mg222 1.986 . S
O229 C233 1.246 . S
O230 Mg225 2.032 . S
O230 C233 1.259 . S
O231 Mg222 2.114 . S
O231 C234 1.252 . S
O232 Mg222 2.251 . S
O232 Mg225 2.079 . S
O232 C234 1.273 . S
C233 O229 1.246 . S
C233 O230 1.259 . S
C234 O231 1.252 . S
C234 O232 1.273 . S
O235 Mg222 2.010 . S
O235 C227 1.249 . S
Mg236 O237 2.028 . S
Mg236 O243 1.986 . S
Mg236 O245 2.114 . S
Mg236 O246 2.251 . S
Mg236 O249 2.010 . S
O237 Mg236 2.028 . S
O237 C240 1.250 . S
O238 Mg239 2.028 . S
O238 C240 1.248 . S
Mg239 O238 2.028 . S
Mg239 O244 2.032 1_554 S
Mg239 O246 2.079 . S
C240 O237 1.250 . S
C240 O238 1.248 . S
C241 O242 1.264 . S
C241 O249 1.249 . S
O242 C241 1.264 . S
O243 Mg236 1.986 . S
O243 C247 1.246 1_554 S
O244 Mg239 2.032 1_556 S
O244 C247 1.259 . S
O245 Mg236 2.114 . S
O245 C248 1.252 . S
O246 Mg236 2.251 . S
O246 Mg239 2.079 . S
O246 C248 1.273 . S
C247 O243 1.246 1_556 S
C247 O244 1.259 . S
C248 O245 1.252 . S
C248 O246 1.273 . S
O249 Mg236 2.010 . S
O249 C241 1.249 . S
Mg250 O251 2.028 . S
Mg250 O257 1.986 . S
Mg250 O259 2.114 . S
Mg250 O260 2.251 . S
Mg250 O263 2.010 . S
O251 Mg250 2.028 . S
O251 C254 1.250 1_545 S
O252 Mg253 2.028 . S
O252 C254 1.248 . S
Mg253 O252 2.028 . S
Mg253 O258 2.032 . S
Mg253 O260 2.079 1_565 S
C254 O251 1.250 1_565 S
C254 O252 1.248 . S
C255 O256 1.264 . S
C255 O263 1.249 . S
O256 C255 1.264 . S
O257 Mg250 1.986 . S
O257 C261 1.246 . S
O258 Mg253 2.032 . S
O258 C261 1.259 1_565 S
O259 Mg250 2.114 . S
O259 C262 1.252 . S
O260 Mg250 2.251 . S
O260 Mg253 2.079 1_545 S
O260 C262 1.273 . S
C261 O257 1.246 . S
C261 O258 1.259 1_545 S
C262 O259 1.252 . S
C262 O260 1.273 . S
O263 Mg250 2.010 . S
O263 C255 1.249 . S
Mg264 O265 2.028 . S
Mg264 O271 1.986 . S
Mg264 O273 2.114 . S
Mg264 O274 2.251 . S
Mg264 O277 2.010 . S
O265 Mg264 2.028 . S
O265 C268 1.250 . S
O266 Mg267 2.028 . S
O266 C268 1.248 . S
Mg267 O266 2.028 . S
Mg267 O272 2.032 . S
Mg267 O274 2.079 . S
C268 O265 1.250 . S
C268 O266 1.248 . S
C269 O270 1.264 . S
C269 O277 1.249 . S
O270 C269 1.264 . S
O271 Mg264 1.986 . S
O271 C275 1.246 . S
O272 Mg267 2.032 . S
O272 C275 1.259 . S
O273 Mg264 2.114 . S
O273 C276 1.252 . S
O274 Mg264 2.251 . S
O274 Mg267 2.079 . S
O274 C276 1.273 . S
C275 O271 1.246 . S
C275 O272 1.259 . S
C276 O273 1.252 . S
C276 O274 1.273 . S
O277 Mg264 2.010 . S
O277 C269 1.249 . S
Mg278 O279 2.028 . S
Mg278 O285 1.986 . S
Mg278 O287 2.114 . S
Mg278 O288 2.251 . S
Mg278 O291 2.010 . S
O279 Mg278 2.028 . S
O279 C282 1.250 . S
O280 Mg281 2.028 . S
O280 C282 1.248 . S
Mg281 O280 2.028 . S
Mg281 O286 2.032 . S
Mg281 O288 2.079 . S
C282 O279 1.250 . S
C282 O280 1.248 . S
C283 O284 1.264 . S
C283 O291 1.249 . S
O284 C283 1.264 . S
O285 Mg278 1.986 . S
O285 C289 1.246 . S
O286 Mg281 2.032 . S
O286 C289 1.259 . S
O287 Mg278 2.114 . S
O287 C290 1.252 . S
O288 Mg278 2.251 . S
O288 Mg281 2.079 . S
O288 C290 1.273 . S
C289 O285 1.246 . S
C289 O286 1.259 . S
C290 O287 1.252 . S
C290 O288 1.273 . S
O291 Mg278 2.010 . S
O291 C283 1.249 . S
Mg292 O293 2.028 . S
Mg292 O299 1.986 . S
Mg292 O301 2.114 . S
Mg292 O302 2.251 . S
Mg292 O305 2.010 . S
O293 Mg292 2.028 . S
O293 C296 1.250 . S
O294 Mg295 2.028 . S
O294 C296 1.248 . S
Mg295 O294 2.028 . S
Mg295 O300 2.032 . S
Mg295 O302 2.079 . S
C296 O293 1.250 . S
C296 O294 1.248 . S
C297 O298 1.264 . S
C297 O305 1.249 . S
O298 C297 1.264 . S
O299 Mg292 1.986 . S
O299 C303 1.246 . S
O300 Mg295 2.032 . S
O300 C303 1.259 . S
O301 Mg292 2.114 . S
O301 C304 1.252 . S
O302 Mg292 2.251 . S
O302 Mg295 2.079 . S
O302 C304 1.273 . S
C303 O299 1.246 . S
C303 O300 1.259 . S
C304 O301 1.252 . S
C304 O302 1.273 . S
O305 Mg292 2.010 . S
O305 C297 1.249 . S
Mg306 O307 2.028 1_545 S
Mg306 O313 1.986 1_545 S
Mg306 O315 2.114 . S
Mg306 O316 2.251 . S
Mg306 O319 2.010 . S
O307 Mg306 2.028 1_565 S
O307 C310 1.250 . S
O308 Mg309 2.028 . S
O308 C310 1.248 . S
Mg309 O308 2.028 . S
Mg309 O314 2.032 . S
Mg309 O316 2.079 1_565 S
C310 O307 1.250 . S
C310 O308 1.248 . S
C311 O312 1.264 . S
C311 O319 1.249 . S
O312 C311 1.264 . S
O313 Mg306 1.986 1_565 S
O313 C317 1.246 . S
O314 Mg309 2.032 . S
O314 C317 1.259 . S
O315 Mg306 2.114 . S
O315 C318 1.252 . S
O316 Mg306 2.251 . S
O316 Mg309 2.079 1_545 S
O316 C318 1.273 . S
C317 O313 1.246 . S
C317 O314 1.259 . S
C318 O315 1.252 . S
C318 O316 1.273 . S
O319 Mg306 2.010 . S
O319 C311 1.249 . S
Mg320 O321 2.028 1_455 S
Mg320 O327 1.986 . S
Mg320 O329 2.114 . S
Mg320 O330 2.251 1_455 S
Mg320 O333 2.010 . S
O321 Mg320 2.028 1_655 S
O321 C324 1.250 . S
O322 Mg323 2.028 . S
O322 C324 1.248 . S
Mg323 O322 2.028 . S
Mg323 O328 2.032 . S
Mg323 O330 2.079 . S
C324 O321 1.250 . S
C324 O322 1.248 . S
C325 O326 1.264 . S
C325 O333 1.249 . S
O326 C325 1.264 . S
O327 Mg320 1.986 . S
O327 C331 1.246 1_455 S
O328 Mg323 2.032 . S
O328 C331 1.259 . S
O329 Mg320 2.114 . S
O329 C332 1.252 . S
O330 Mg320 2.251 1_655 S
O330 Mg323 2.079 . S
O330 C332 1.273 1_655 S
C331 O327 1.246 1_655 S
C331 O328 1.259 . S
C332 O329 1.252 . S
C332 O330 1.273 1_455 S
O333 Mg320 2.010 . S
O333 C325 1.249 . S
Mg334 O335 2.028 . S
Mg334 O341 1.986 . S
Mg334 O343 2.114 . S
Mg334 O344 2.251 . S
Mg334 O347 2.010 . S
O335 Mg334 2.028 . S
O335 C338 1.250 . S
O336 Mg337 2.028 . S
O336 C338 1.248 . S
Mg337 O336 2.028 . S
Mg337 O342 2.032 . S
Mg337 O344 2.079 . S
C338 O335 1.250 . S
C338 O336 1.248 . S
C339 O340 1.264 . S
C339 O347 1.249 . S
O340 C339 1.264 . S
O341 Mg334 1.986 . S
O341 C345 1.246 . S
O342 Mg337 2.032 . S
O342 C345 1.259 . S
O343 Mg334 2.114 . S
O343 C346 1.252 . S
O344 Mg334 2.251 . S
O344 Mg337 2.079 . S
O344 C346 1.273 . S
C345 O341 1.246 . S
C345 O342 1.259 . S
C346 O343 1.252 . S
C346 O344 1.273 . S
O347 Mg334 2.010 . S
O347 C339 1.249 . S
Mg348 O349 2.028 1_655 S
Mg348 O355 1.986 1_655 S
Mg348 O357 2.114 . S
Mg348 O358 2.251 1_655 S
Mg348 O361 2.010 . S
O349 Mg348 2.028 1_455 S
O349 C352 1.250 . S
O350 Mg351 2.028 . S
O350 C352 1.248 . S
Mg351 O350 2.028 . S
Mg351 O356 2.032 . S
Mg351 O358 2.079 . S
C352 O349 1.250 . S
C352 O350 1.248 . S
C353 O354 1.264 . S
C353 O361 1.249 . S
O354 C353 1.264 . S
O355 Mg348 1.986 1_455 S
O355 C359 1.246 . S
O356 Mg351 2.032 . S
O356 C359 1.259 . S
O357 Mg348 2.114 . S
O357 C360 1.252 . S
O358 Mg348 2.251 1_455 S
O358 Mg351 2.079 . S
O358 C360 1.273 1_455 S
C359 O355 1.246 . S
C359 O356 1.259 . S
C360 O357 1.252 . S
C360 O358 1.273 1_655 S
O361 Mg348 2.010 . S
O361 C353 1.249 . S
Mg362 O363 2.028 . S
Mg362 O369 1.986 . S
Mg362 O371 2.114 . S
Mg362 O372 2.251 . S
Mg362 O375 2.010 . S
O363 Mg362 2.028 . S
O363 C366 1.250 . S
O364 Mg365 2.028 . S
O364 C366 1.248 . S
Mg365 O364 2.028 . S
Mg365 O370 2.032 . S
Mg365 O372 2.079 . S
C366 O363 1.250 . S
C366 O364 1.248 . S
C367 O368 1.264 . S
C367 O375 1.249 . S
O368 C367 1.264 . S
O369 Mg362 1.986 . S
O369 C373 1.246 . S
O370 Mg365 2.032 . S
O370 C373 1.259 . S
O371 Mg362 2.114 . S
O371 C374 1.252 . S
O372 Mg362 2.251 . S
O372 Mg365 2.079 . S
O372 C374 1.273 . S
C373 O369 1.246 . S
C373 O370 1.259 . S
C374 O371 1.252 . S
C374 O372 1.273 . S
O375 Mg362 2.010 . S
O375 C367 1.249 . S
C376 C377 1.363 . S
C376 C382 1.379 . S
C376 N384 1.356 . S
C377 C376 1.363 . S
C377 C383 1.363 . S
C378 C379 1.363 . S
C378 C383 1.379 . S
C378 N385 1.356 . S
C379 C378 1.363 . S
C379 C382 1.363 . S
N380 C382 1.356 . S
N380 H392 0.984 . S
N380 H393 0.985 . S
N381 C383 1.356 . S
N381 H386 0.984 . S
N381 H387 0.985 . S
C382 C376 1.379 . S
C382 C379 1.363 . S
C382 N380 1.356 . S
C383 C377 1.363 . S
C383 C378 1.379 . S
C383 N381 1.356 . S
N384 C376 1.356 . S
N384 H390 0.984 . S
N384 H391 0.984 . S
N385 C378 1.356 . S
N385 H388 0.984 . S
N385 H389 0.985 . S
H386 N381 0.984 . S
H387 N381 0.985 . S
H388 N385 0.984 . S
H389 N385 0.985 . S
H390 N384 0.984 . S
H391 N384 0.984 . S
H392 N380 0.984 . S
H393 N380 0.985 . S
C394 C395 1.363 . S
C394 C400 1.379 . S
C394 N402 1.356 . S
C395 C394 1.363 . S
C395 C401 1.363 . S
C396 C397 1.363 . S
C396 C401 1.379 . S
C396 N403 1.356 . S
C397 C396 1.363 . S
C397 C400 1.363 . S
N398 C400 1.356 . S
N398 H410 0.984 . S
N398 H411 0.985 . S
N399 C401 1.356 . S
N399 H404 0.984 . S
N399 H405 0.985 . S
C400 C394 1.379 . S
C400 C397 1.363 . S
C400 N398 1.356 . S
C401 C395 1.363 . S
C401 C396 1.379 . S
C401 N399 1.356 . S
N402 C394 1.356 . S
N402 H408 0.984 . S
N402 H409 0.984 . S
N403 C396 1.356 . S
N403 H406 0.984 . S
N403 H407 0.985 . S
H404 N399 0.984 . S
H405 N399 0.985 . S
H406 N403 0.984 . S
H407 N403 0.985 . S
H408 N402 0.984 . S
H409 N402 0.984 . S
H410 N398 0.984 . S
H411 N398 0.985 . S
C412 C413 1.363 . S
C412 C418 1.379 . S
C412 N420 1.356 . S
C413 C412 1.363 . S
C413 C419 1.363 . S
C414 C415 1.363 . S
C414 C419 1.379 . S
C414 N421 1.356 . S
C415 C414 1.363 . S
C415 C418 1.363 . S
N416 C418 1.356 . S
N416 H428 0.984 . S
N416 H429 0.985 . S
N417 C419 1.356 . S
N417 H422 0.984 . S
N417 H423 0.985 . S
C418 C412 1.379 . S
C418 C415 1.363 . S
C418 N416 1.356 . S
C419 C413 1.363 . S
C419 C414 1.379 . S
C419 N417 1.356 . S
N420 C412 1.356 . S
N420 H426 0.984 . S
N420 H427 0.984 . S
N421 C414 1.356 . S
N421 H424 0.984 1_556 S
N421 H425 0.985 . S
H422 N417 0.984 . S
H423 N417 0.985 . S
H424 N421 0.984 1_554 S
H425 N421 0.985 . S
H426 N420 0.984 . S
H427 N420 0.984 . S
H428 N416 0.984 . S
H429 N416 0.985 . S
C430 C431 1.363 1_545 S
C430 C436 1.379 . S
C430 N438 1.356 . S
C431 C430 1.363 1_565 S
C431 C437 1.363 . S
C432 C433 1.363 1_565 S
C432 C437 1.379 . S
C432 N439 1.356 . S
C433 C432 1.363 1_545 S
C433 C436 1.363 . S
N434 C436 1.356 . S
N434 H446 0.984 . S
N434 H447 0.985 . S
N435 C437 1.356 1_455 S
N435 H440 0.984 . S
N435 H441 0.985 . S
C436 C430 1.379 . S
C436 C433 1.363 . S
C436 N434 1.356 . S
C437 C431 1.363 . S
C437 C432 1.379 . S
C437 N435 1.356 1_655 S
N438 C430 1.356 . S
N438 H444 0.984 . S
N438 H445 0.984 . S
N439 C432 1.356 . S
N439 H442 0.984 . S
N439 H443 0.985 . S
H440 N435 0.984 . S
H441 N435 0.985 . S
H442 N439 0.984 . S
H443 N439 0.985 . S
H444 N438 0.984 . S
H445 N438 0.984 . S
H446 N434 0.984 . S
H447 N434 0.985 . S
C448 C449 1.363 . S
C448 C454 1.379 . S
C448 N456 1.356 . S
C449 C448 1.363 . S
C449 C455 1.363 . S
C450 C451 1.363 . S
C450 C455 1.379 . S
C450 N457 1.356 . S
C451 C450 1.363 . S
C451 C454 1.363 . S
N452 C454 1.356 . S
N452 H464 0.984 . S
N452 H465 0.985 . S
N453 C455 1.356 . S
N453 H458 0.984 . S
N453 H459 0.985 . S
C454 C448 1.379 . S
C454 C451 1.363 . S
C454 N452 1.356 . S
C455 C449 1.363 . S
C455 C450 1.379 . S
C455 N453 1.356 . S
N456 C448 1.356 . S
N456 H462 0.984 . S
N456 H463 0.984 . S
N457 C450 1.356 . S
N457 H460 0.984 . S
N457 H461 0.985 . S
H458 N453 0.984 . S
H459 N453 0.985 . S
H460 N457 0.984 . S
H461 N457 0.985 . S
H462 N456 0.984 . S
H463 N456 0.984 . S
H464 N452 0.984 . S
H465 N452 0.985 . S
C466 C467 1.363 . S
C466 C472 1.379 . S
C466 N474 1.356 . S
C467 C466 1.363 . S
C467 C473 1.363 . S
C468 C469 1.363 . S
C468 C473 1.379 . S
C468 N475 1.356 . S
C469 C468 1.363 . S
C469 C472 1.363 . S
N470 C472 1.356 . S
N470 H482 0.984 . S
N470 H483 0.985 . S
N471 C473 1.356 . S
N471 H476 0.984 . S
N471 H477 0.985 . S
C472 C466 1.379 . S
C472 C469 1.363 . S
C472 N470 1.356 . S
C473 C467 1.363 . S
C473 C468 1.379 . S
C473 N471 1.356 . S
N474 C466 1.356 . S
N474 H480 0.984 . S
N474 H481 0.984 . S
N475 C468 1.356 . S
N475 H478 0.984 . S
N475 H479 0.985 . S
H476 N471 0.984 . S
H477 N471 0.985 . S
H478 N475 0.984 . S
H479 N475 0.985 . S
H480 N474 0.984 . S
H481 N474 0.984 . S
H482 N470 0.984 . S
H483 N470 0.985 . S
C484 C485 1.363 . S
C484 C490 1.379 . S
C484 N492 1.356 . S
C485 C484 1.363 . S
C485 C491 1.363 . S
C486 C487 1.363 . S
C486 C491 1.379 . S
C486 N493 1.356 . S
C487 C486 1.363 . S
C487 C490 1.363 . S
N488 C490 1.356 . S
N488 H500 0.984 . S
N488 H501 0.985 . S
N489 C491 1.356 . S
N489 H494 0.984 . S
N489 H495 0.985 . S
C490 C484 1.379 . S
C490 C487 1.363 . S
C490 N488 1.356 . S
C491 C485 1.363 . S
C491 C486 1.379 . S
C491 N489 1.356 . S
N492 C484 1.356 . S
N492 H498 0.984 . S
N492 H499 0.984 . S
N493 C486 1.356 . S
N493 H496 0.984 . S
N493 H497 0.985 . S
H494 N489 0.984 . S
H495 N489 0.985 . S
H496 N493 0.984 . S
H497 N493 0.985 . S
H498 N492 0.984 . S
H499 N492 0.984 . S
H500 N488 0.984 . S
H501 N488 0.985 . S
C502 C503 1.363 1_545 S
C502 C508 1.379 . S
C502 N510 1.356 . S
C503 C502 1.363 1_565 S
C503 C509 1.363 . S
C504 C505 1.363 . S
C504 C509 1.379 . S
C504 N511 1.356 . S
C505 C504 1.363 . S
C505 C508 1.363 1_565 S
N506 C508 1.356 . S
N506 H518 0.984 . S
N506 H519 0.985 . S
N507 C509 1.356 . S
N507 H512 0.984 . S
N507 H513 0.985 . S
C508 C502 1.379 . S
C508 C505 1.363 1_545 S
C508 N506 1.356 . S
C509 C503 1.363 . S
C509 C504 1.379 . S
C509 N507 1.356 . S
N510 C502 1.356 . S
N510 H516 0.984 . S
N510 H517 0.984 . S
N511 C504 1.356 . S
N511 H514 0.984 . S
N511 H515 0.985 . S
H512 N507 0.984 . S
H513 N507 0.985 . S
H514 N511 0.984 . S
H515 N511 0.985 . S
H516 N510 0.984 . S
H517 N510 0.984 . S
H518 N506 0.984 . S
H519 N506 0.985 . S
C520 C521 1.363 . S
C520 C526 1.379 . S
C520 N528 1.356 . S
C521 C520 1.363 . S
C521 C527 1.363 . S
C522 C523 1.363 . S
C522 C527 1.379 . S
C522 N529 1.356 . S
C523 C522 1.363 . S
C523 C526 1.363 . S
N524 C526 1.356 . S
N524 H536 0.984 . S
N524 H537 0.985 . S
N525 C527 1.356 . S
N525 H530 0.984 . S
N525 H531 0.985 . S
C526 C520 1.379 . S
C526 C523 1.363 . S
C526 N524 1.356 . S
C527 C521 1.363 . S
C527 C522 1.379 . S
C527 N525 1.356 . S
N528 C520 1.356 . S
N528 H534 0.984 . S
N528 H535 0.984 . S
N529 C522 1.356 . S
N529 H532 0.984 . S
N529 H533 0.985 . S
H530 N525 0.984 . S
H531 N525 0.985 . S
H532 N529 0.984 . S
H533 N529 0.985 . S
H534 N528 0.984 . S
H535 N528 0.984 . S
H536 N524 0.984 . S
H537 N524 0.985 . S
C538 C539 1.363 . S
C538 C544 1.379 . S
C538 N546 1.356 . S
C539 C538 1.363 . S
C539 C545 1.363 . S
C540 C541 1.363 . S
C540 C545 1.379 . S
C540 N547 1.356 . S
C541 C540 1.363 . S
C541 C544 1.363 . S
N542 C544 1.356 . S
N542 H554 0.984 . S
N542 H555 0.985 . S
N543 C545 1.356 . S
N543 H548 0.984 . S
N543 H549 0.985 . S
C544 C538 1.379 . S
C544 C541 1.363 . S
C544 N542 1.356 . S
C545 C539 1.363 . S
C545 C540 1.379 . S
C545 N543 1.356 . S
N546 C538 1.356 . S
N546 H552 0.984 . S
N546 H553 0.984 . S
N547 C540 1.356 . S
N547 H550 0.984 . S
N547 H551 0.985 . S
H548 N543 0.984 . S
H549 N543 0.985 . S
H550 N547 0.984 . S
H551 N547 0.985 . S
H552 N546 0.984 . S
H553 N546 0.984 . S
H554 N542 0.984 . S
H555 N542 0.985 . S
C556 C557 1.363 . S
C556 C562 1.379 . S
C556 N564 1.356 . S
C557 C556 1.363 . S
C557 C563 1.363 . S
C558 C559 1.363 . S
C558 C563 1.379 . S
C558 N565 1.356 . S
C559 C558 1.363 . S
C559 C562 1.363 . S
N560 C562 1.356 . S
N560 H572 0.984 . S
N560 H573 0.985 . S
N561 C563 1.356 . S
N561 H566 0.984 . S
N561 H567 0.985 . S
C562 C556 1.379 . S
C562 C559 1.363 . S
C562 N560 1.356 . S
C563 C557 1.363 . S
C563 C558 1.379 . S
C563 N561 1.356 . S
N564 C556 1.356 . S
N564 H570 0.984 . S
N564 H571 0.984 . S
N565 C558 1.356 . S
N565 H568 0.984 . S
N565 H569 0.985 . S
H566 N561 0.984 . S
H567 N561 0.985 . S
H568 N565 0.984 . S
H569 N565 0.985 . S
H570 N564 0.984 . S
H571 N564 0.984 . S
H572 N560 0.984 . S
H573 N560 0.985 . S
C574 C575 1.363 . S
C574 C580 1.379 . S
C574 N582 1.356 . S
C575 C574 1.363 . S
C575 C581 1.363 . S
C576 C577 1.363 . S
C576 C581 1.379 . S
C576 N583 1.356 . S
C577 C576 1.363 . S
C577 C580 1.363 . S
N578 C580 1.356 . S
N578 H590 0.984 . S
N578 H591 0.985 . S
N579 C581 1.356 . S
N579 H584 0.984 . S
N579 H585 0.985 . S
C580 C574 1.379 . S
C580 C577 1.363 . S
C580 N578 1.356 . S
C581 C575 1.363 . S
C581 C576 1.379 . S
C581 N579 1.356 . S
N582 C574 1.356 . S
N582 H588 0.984 . S
N582 H589 0.984 . S
N583 C576 1.356 . S
N583 H586 0.984 . S
N583 H587 0.985 . S
H584 N579 0.984 . S
H585 N579 0.985 . S
H586 N583 0.984 . S
H587 N583 0.985 . S
H588 N582 0.984 . S
H589 N582 0.984 . S
H590 N578 0.984 . S
H591 N578 0.985 . S
C592 C593 1.363 . S
C592 C598 1.379 . S
C592 N600 1.356 . S
C593 C592 1.363 . S
C593 C599 1.363 . S
C594 C595 1.363 . S
C594 C599 1.379 . S
C594 N601 1.356 . S
C595 C594 1.363 . S
C595 C598 1.363 . S
N596 C598 1.356 . S
N596 H608 0.984 . S
N596 H609 0.985 . S
N597 C599 1.356 . S
N597 H602 0.984 . S
N597 H603 0.985 . S
C598 C592 1.379 . S
C598 C595 1.363 . S
C598 N596 1.356 . S
C599 C593 1.363 . S
C599 C594 1.379 . S
C599 N597 1.356 . S
N600 C592 1.356 . S
N600 H606 0.984 . S
N600 H607 0.984 . S
N601 C594 1.356 . S
N601 H604 0.984 . S
N601 H605 0.985 . S
H602 N597 0.984 . S
H603 N597 0.985 . S
H604 N601 0.984 . S
H605 N601 0.985 . S
H606 N600 0.984 . S
H607 N600 0.984 . S
H608 N596 0.984 . S
H609 N596 0.985 . S
C610 C611 1.363 . S
C610 C616 1.379 . S
C610 N618 1.356 . S
C611 C610 1.363 . S
C611 C617 1.363 . S
C612 C613 1.363 . S
C612 C617 1.379 . S
C612 N619 1.356 . S
C613 C612 1.363 . S
C613 C616 1.363 . S
N614 C616 1.356 . S
N614 H626 0.984 . S
N614 H627 0.985 . S
N615 C617 1.356 . S
N615 H620 0.984 . S
N615 H621 0.985 . S
C616 C610 1.379 . S
C616 C613 1.363 . S
C616 N614 1.356 . S
C617 C611 1.363 . S
C617 C612 1.379 . S
C617 N615 1.356 . S
N618 C610 1.356 . S
N618 H624 0.984 . S
N618 H625 0.984 . S
N619 C612 1.356 . S
N619 H622 0.984 . S
N619 H623 0.985 . S
H620 N615 0.984 . S
H621 N615 0.985 . S
H622 N619 0.984 . S
H623 N619 0.985 . S
H624 N618 0.984 . S
H625 N618 0.984 . S
H626 N614 0.984 . S
H627 N614 0.985 . S
C628 C629 1.363 . S
C628 C634 1.379 . S
C628 N636 1.356 . S
C629 C628 1.363 . S
C629 C635 1.363 . S
C630 C631 1.363 . S
C630 C635 1.379 . S
C630 N637 1.356 . S
C631 C630 1.363 . S
C631 C634 1.363 . S
N632 C634 1.356 . S
N632 H644 0.984 . S
N632 H645 0.985 . S
N633 C635 1.356 . S
N633 H638 0.984 . S
N633 H639 0.985 . S
C634 C628 1.379 . S
C634 C631 1.363 . S
C634 N632 1.356 . S
C635 C629 1.363 . S
C635 C630 1.379 . S
C635 N633 1.356 . S
N636 C628 1.356 . S
N636 H642 0.984 . S
N636 H643 0.984 . S
N637 C630 1.356 . S
N637 H640 0.984 . S
N637 H641 0.985 . S
H638 N633 0.984 . S
H639 N633 0.985 . S
H640 N637 0.984 . S
H641 N637 0.985 . S
H642 N636 0.984 . S
H643 N636 0.984 . S
H644 N632 0.984 . S
H645 N632 0.985 . S
C646 C647 1.363 . S
C646 C652 1.379 . S
C646 N654 1.356 . S
C647 C646 1.363 . S
C647 C653 1.363 . S
C648 C649 1.363 . S
C648 C653 1.379 . S
C648 N655 1.356 . S
C649 C648 1.363 . S
C649 C652 1.363 . S
N650 C652 1.356 . S
N650 H662 0.984 . S
N650 H663 0.985 . S
N651 C653 1.356 . S
N651 H656 0.984 . S
N651 H657 0.985 . S
C652 C646 1.379 . S
C652 C649 1.363 . S
C652 N650 1.356 . S
C653 C647 1.363 . S
C653 C648 1.379 . S
C653 N651 1.356 . S
N654 C646 1.356 . S
N654 H660 0.984 . S
N654 H661 0.984 . S
N655 C648 1.356 . S
N655 H658 0.984 . S
N655 H659 0.985 . S
H656 N651 0.984 . S
H657 N651 0.985 . S
H658 N655 0.984 . S
H659 N655 0.985 . S
H660 N654 0.984 . S
H661 N654 0.984 . S
H662 N650 0.984 . S
H663 N650 0.985 . S
C664 C665 1.363 . S
C664 C670 1.379 . S
C664 N672 1.356 . S
C665 C664 1.363 . S
C665 C671 1.363 . S
C666 C667 1.363 . S
C666 C671 1.379 . S
C666 N673 1.356 . S
C667 C666 1.363 . S
C667 C670 1.363 . S
N668 C670 1.356 . S
N668 H680 0.984 . S
N668 H681 0.985 . S
N669 C671 1.356 . S
N669 H674 0.984 . S
N669 H675 0.985 . S
C670 C664 1.379 . S
C670 C667 1.363 . S
C670 N668 1.356 . S
C671 C665 1.363 . S
C671 C666 1.379 . S
C671 N669 1.356 . S
N672 C664 1.356 . S
N672 H678 0.984 . S
N672 H679 0.984 . S
N673 C666 1.356 . S
N673 H676 0.984 . S
N673 H677 0.985 . S
H674 N669 0.984 . S
H675 N669 0.985 . S
H676 N673 0.984 . S
H677 N673 0.985 . S
H678 N672 0.984 . S
H679 N672 0.984 . S
H680 N668 0.984 . S
H681 N668 0.985 . S
C682 C683 1.363 . S
C682 C688 1.379 . S
C682 N690 1.356 . S
C683 C682 1.363 . S
C683 C689 1.363 . S
C684 C685 1.363 . S
C684 C689 1.379 . S
C684 N691 1.356 . S
C685 C684 1.363 . S
C685 C688 1.363 . S
N686 C688 1.356 . S
N686 H698 0.984 . S
N686 H699 0.985 . S
N687 C689 1.356 . S
N687 H692 0.984 . S
N687 H693 0.985 . S
C688 C682 1.379 . S
C688 C685 1.363 . S
C688 N686 1.356 . S
C689 C683 1.363 . S
C689 C684 1.379 . S
C689 N687 1.356 . S
N690 C682 1.356 . S
N690 H696 0.984 . S
N690 H697 0.984 . S
N691 C684 1.356 . S
N691 H694 0.984 . S
N691 H695 0.985 . S
H692 N687 0.984 . S
H693 N687 0.985 . S
H694 N691 0.984 . S
H695 N691 0.985 . S
H696 N690 0.984 . S
H697 N690 0.984 . S
H698 N686 0.984 . S
H699 N686 0.985 . S
C700 C701 1.363 1_556 S
C700 C706 1.379 1_545 S
C700 N708 1.356 . S
C701 C700 1.363 1_554 S
C701 C707 1.363 1_545 S
C702 C703 1.380 . S
C702 C707 1.379 . S
C702 N709 1.356 . S
C703 C702 1.380 . S
C703 C706 1.348 1_554 S
N704 C706 1.356 . S
N704 H716 0.984 1_565 S
N704 H717 0.985 . S
N705 C707 1.356 . S
N705 H710 0.984 . S
N705 H711 0.985 . S
C706 C700 1.379 1_565 S
C706 C703 1.348 1_556 S
C706 N704 1.356 . S
C707 C701 1.363 1_565 S
C707 C702 1.379 . S
C707 N705 1.356 . S
N708 C700 1.356 . S
N708 H714 0.984 . S
N708 H715 0.984 . S
N709 C702 1.356 . S
N709 H712 0.984 . S
N709 H713 0.985 . S
H710 N705 0.984 . S
H711 N705 0.985 . S
H712 N709 0.984 . S
H713 N709 0.985 . S
H714 N708 0.984 . S
H715 N708 0.984 . S
H716 N704 0.984 1_545 S
H717 N704 0.985 . S
C718 C719 1.363 . S
C718 C724 1.379 . S
C718 N726 1.356 . S
C719 C718 1.363 . S
C719 C725 1.363 . S
C720 C721 1.363 . S
C720 C725 1.379 . S
C720 N727 1.356 . S
C721 C720 1.363 . S
C721 C724 1.363 . S
N722 C724 1.356 . S
N722 H734 0.984 . S
N722 H735 0.985 . S
N723 C725 1.356 . S
N723 H728 0.984 . S
N723 H729 0.985 . S
C724 C718 1.379 . S
C724 C721 1.363 . S
C724 N722 1.356 . S
C725 C719 1.363 . S
C725 C720 1.379 . S
C725 N723 1.356 . S
N726 C718 1.356 . S
N726 H732 0.984 . S
N726 H733 0.984 . S
N727 C720 1.356 . S
N727 H730 0.984 . S
N727 H731 0.985 . S
H728 N723 0.984 . S
H729 N723 0.985 . S
H730 N727 0.984 . S
H731 N727 0.985 . S
H732 N726 0.984 . S
H733 N726 0.984 . S
H734 N722 0.984 . S
H735 N722 0.985 . S
C736 C737 1.363 . S
C736 C742 1.379 . S
C736 N744 1.356 1_545 S
C737 C736 1.363 . S
C737 C743 1.363 . S
C738 C739 1.363 . S
C738 C743 1.379 . S
C738 N745 1.356 . S
C739 C738 1.363 . S
C739 C742 1.363 . S
N740 C742 1.356 . S
N740 H752 0.984 . S
N740 H753 0.985 . S
N741 C743 1.356 . S
N741 H746 0.984 . S
N741 H747 0.985 . S
C742 C736 1.379 . S
C742 C739 1.363 . S
C742 N740 1.356 . S
C743 C737 1.363 . S
C743 C738 1.379 . S
C743 N741 1.356 . S
N744 C736 1.356 1_565 S
N744 H750 0.984 . S
N744 H751 0.984 . S
N745 C738 1.356 . S
N745 H748 0.984 . S
N745 H749 0.985 . S
H746 N741 0.984 . S
H747 N741 0.985 . S
H748 N745 0.984 . S
H749 N745 0.985 . S
H750 N744 0.984 . S
H751 N744 0.984 . S
H752 N740 0.984 . S
H753 N740 0.985 . S
C754 C755 1.363 . S
C754 C760 1.379 . S
C754 N762 1.356 . S
C755 C754 1.363 . S
C755 C761 1.363 . S
C756 C757 1.363 . S
C756 C761 1.379 . S
C756 N763 1.356 . S
C757 C756 1.363 . S
C757 C760 1.363 . S
N758 C760 1.356 . S
N758 H770 0.984 . S
N758 H771 0.985 . S
N759 C761 1.356 . S
N759 H764 0.984 . S
N759 H765 0.985 . S
C760 C754 1.379 . S
C760 C757 1.363 . S
C760 N758 1.356 . S
C761 C755 1.363 . S
C761 C756 1.379 . S
C761 N759 1.356 . S
N762 C754 1.356 . S
N762 H768 0.984 . S
N762 H769 0.984 . S
N763 C756 1.356 . S
N763 H766 0.984 . S
N763 H767 0.985 . S
H764 N759 0.984 . S
H765 N759 0.985 . S
H766 N763 0.984 . S
H767 N763 0.985 . S
H768 N762 0.984 . S
H769 N762 0.984 . S
H770 N758 0.984 . S
H771 N758 0.985 . S
C772 C773 1.363 . S
C772 C778 1.379 . S
C772 N780 1.356 . S
C773 C772 1.363 . S
C773 C779 1.363 . S
C774 C775 1.363 . S
C774 C779 1.379 . S
C774 N781 1.356 . S
C775 C774 1.363 . S
C775 C778 1.363 . S
N776 C778 1.356 . S
N776 H788 0.984 . S
N776 H789 0.985 . S
N777 C779 1.356 1_565 S
N777 H782 0.984 . S
N777 H783 0.985 . S
C778 C772 1.379 . S
C778 C775 1.363 . S
C778 N776 1.356 . S
C779 C773 1.363 . S
C779 C774 1.379 . S
C779 N777 1.356 1_545 S
N780 C772 1.356 . S
N780 H786 0.984 . S
N780 H787 0.984 . S
N781 C774 1.356 . S
N781 H784 0.984 . S
N781 H785 0.985 . S
H782 N777 0.984 . S
H783 N777 0.985 . S
H784 N781 0.984 . S
H785 N781 0.985 . S
H786 N780 0.984 . S
H787 N780 0.984 . S
H788 N776 0.984 . S
H789 N776 0.985 . S
C790 C791 1.363 . S
C790 C796 1.379 . S
C790 N798 1.356 . S
C791 C790 1.363 . S
C791 C797 1.363 . S
C792 C793 1.363 . S
C792 C797 1.379 . S
C792 N799 1.356 . S
C793 C792 1.363 . S
C793 C796 1.363 . S
N794 C796 1.356 . S
N794 H806 0.984 . S
N794 H807 0.985 . S
N795 C797 1.356 . S
N795 H800 0.984 . S
N795 H801 0.985 . S
C796 C790 1.379 . S
C796 C793 1.363 . S
C796 N794 1.356 . S
C797 C791 1.363 . S
C797 C792 1.379 . S
C797 N795 1.356 . S
N798 C790 1.356 . S
N798 H804 0.984 . S
N798 H805 0.984 . S
N799 C792 1.356 . S
N799 H802 0.984 . S
N799 H803 0.985 . S
H800 N795 0.984 . S
H801 N795 0.985 . S
H802 N799 0.984 . S
H803 N799 0.985 . S
H804 N798 0.984 . S
H805 N798 0.984 . S
H806 N794 0.984 . S
H807 N794 0.985 . S
C808 C809 1.363 . S
C808 C814 1.379 . S
C808 N816 1.356 . S
C809 C808 1.363 . S
C809 C815 1.363 . S
C810 C811 1.363 . S
C810 C815 1.379 . S
C810 N817 1.356 . S
C811 C810 1.363 . S
C811 C814 1.363 . S
N812 C814 1.356 . S
N812 H824 0.984 . S
N812 H825 0.985 . S
N813 C815 1.356 . S
N813 H818 0.984 . S
N813 H819 0.985 . S
C814 C808 1.379 . S
C814 C811 1.363 . S
C814 N812 1.356 . S
C815 C809 1.363 . S
C815 C810 1.379 . S
C815 N813 1.356 . S
N816 C808 1.356 . S
N816 H822 0.984 . S
N816 H823 0.984 . S
N817 C810 1.356 . S
N817 H820 0.984 . S
N817 H821 0.985 . S
H818 N813 0.984 . S
H819 N813 0.985 . S
H820 N817 0.984 . S
H821 N817 0.985 . S
H822 N816 0.984 . S
H823 N816 0.984 . S
H824 N812 0.984 . S
H825 N812 0.985 . S
C826 C827 1.363 . S
C826 C832 1.379 . S
C826 N834 1.356 . S
C827 C826 1.363 . S
C827 C833 1.363 . S
C828 C829 1.363 . S
C828 C833 1.379 . S
C828 N835 1.356 . S
C829 C828 1.363 . S
C829 C832 1.363 . S
N830 C832 1.356 . S
N830 H842 0.984 . S
N830 H843 0.985 . S
N831 C833 1.356 . S
N831 H836 0.984 . S
N831 H837 0.985 . S
C832 C826 1.379 . S
C832 C829 1.363 . S
C832 N830 1.356 . S
C833 C827 1.363 . S
C833 C828 1.379 . S
C833 N831 1.356 . S
N834 C826 1.356 . S
N834 H840 0.984 . S
N834 H841 0.984 . S
N835 C828 1.356 . S
N835 H838 0.984 . S
N835 H839 0.985 . S
H836 N831 0.984 . S
H837 N831 0.985 . S
H838 N835 0.984 . S
H839 N835 0.985 . S
H840 N834 0.984 . S
H841 N834 0.984 . S
H842 N830 0.984 . S
H843 N830 0.985 . S
C844 C845 1.363 . S
C844 C850 1.379 . S
C844 N852 1.356 . S
C845 C844 1.363 . S
C845 C851 1.363 . S
C846 C847 1.363 . S
C846 C851 1.379 . S
C846 N853 1.356 . S
C847 C846 1.363 . S
C847 C850 1.363 . S
N848 C850 1.356 . S
N848 H860 0.984 . S
N848 H861 0.985 . S
N849 C851 1.356 . S
N849 H854 0.984 . S
N849 H855 0.985 . S
C850 C844 1.379 . S
C850 C847 1.363 . S
C850 N848 1.356 . S
C851 C845 1.363 . S
C851 C846 1.379 . S
C851 N849 1.356 . S
N852 C844 1.356 . S
N852 H858 0.984 . S
N852 H859 0.984 . S
N853 C846 1.356 . S
N853 H856 0.984 . S
N853 H857 0.985 . S
H854 N849 0.984 . S
H855 N849 0.985 . S
H856 N853 0.984 . S
H857 N853 0.985 . S
H858 N852 0.984 . S
H859 N852 0.984 . S
H860 N848 0.984 . S
H861 N848 0.985 . S
C862 C863 1.363 . S
C862 C868 1.379 . S
C862 N870 1.356 . S
C863 C862 1.363 . S
C863 C869 1.363 . S
C864 C865 1.363 . S
C864 C869 1.379 . S
C864 N871 1.356 . S
C865 C864 1.363 . S
C865 C868 1.363 . S
N866 C868 1.356 . S
N866 H878 0.984 . S
N866 H879 0.985 . S
N867 C869 1.356 . S
N867 H872 0.984 . S
N867 H873 0.985 . S
C868 C862 1.379 . S
C868 C865 1.363 . S
C868 N866 1.356 . S
C869 C863 1.363 . S
C869 C864 1.379 . S
C869 N867 1.356 . S
N870 C862 1.356 . S
N870 H876 0.984 . S
N870 H877 0.984 . S
N871 C864 1.356 . S
N871 H874 0.984 . S
N871 H875 0.985 . S
H872 N867 0.984 . S
H873 N867 0.985 . S
H874 N871 0.984 . S
H875 N871 0.985 . S
H876 N870 0.984 . S
H877 N870 0.984 . S
H878 N866 0.984 . S
H879 N866 0.985 . S
C880 C881 1.363 . S
C880 C886 1.379 . S
C880 N888 1.356 . S
C881 C880 1.363 . S
C881 C887 1.363 . S
C882 C883 1.363 . S
C882 C887 1.379 . S
C882 N889 1.356 . S
C883 C882 1.363 . S
C883 C886 1.363 . S
N884 C886 1.356 . S
N884 H896 0.984 . S
N884 H897 0.985 . S
N885 C887 1.356 . S
N885 H890 0.984 . S
N885 H891 0.985 . S
C886 C880 1.379 . S
C886 C883 1.363 . S
C886 N884 1.356 . S
C887 C881 1.363 . S
C887 C882 1.379 . S
C887 N885 1.356 . S
N888 C880 1.356 . S
N888 H894 0.984 . S
N888 H895 0.984 . S
N889 C882 1.356 . S
N889 H892 0.984 . S
N889 H893 0.985 . S
H890 N885 0.984 . S
H891 N885 0.985 . S
H892 N889 0.984 . S
H893 N889 0.985 . S
H894 N888 0.984 . S
H895 N888 0.984 . S
H896 N884 0.984 . S
H897 N884 0.985 . S
C898 C899 1.363 . S
C898 C904 1.379 . S
C898 N906 1.357 1_655 S
C899 C898 1.363 . S
C899 C905 1.363 . S
C900 C901 1.363 . S
C900 C905 1.379 . S
C900 N907 1.356 1_545 S
C901 C900 1.363 . S
C901 C904 1.363 . S
N902 C904 1.356 . S
N902 H914 0.984 . S
N902 H915 0.985 . S
N903 C905 1.356 1_565 S
N903 H908 0.984 . S
N903 H909 0.985 . S
C904 C898 1.379 . S
C904 C901 1.363 . S
C904 N902 1.356 . S
C905 C899 1.363 . S
C905 C900 1.379 . S
C905 N903 1.356 1_545 S
N906 C898 1.357 1_455 S
N906 H912 0.984 . S
N906 H913 0.984 . S
N907 C900 1.356 1_565 S
N907 H910 0.984 1_565 S
N907 H911 0.985 . S
H908 N903 0.984 . S
H909 N903 0.985 . S
H910 N907 0.984 1_545 S
H911 N907 0.985 . S
H912 N906 0.984 . S
H913 N906 0.984 . S
H914 N902 0.984 . S
H915 N902 0.985 . S
C916 C917 1.363 . S
C916 C922 1.379 . S
C916 N924 1.356 . S
C917 C916 1.363 . S
C917 C923 1.363 . S
C918 C919 1.363 . S
C918 C923 1.379 . S
C918 N925 1.356 . S
C919 C918 1.363 . S
C919 C922 1.363 . S
N920 C922 1.356 . S
N920 H932 0.984 . S
N920 H933 0.985 . S
N921 C923 1.356 . S
N921 H926 0.984 . S
N921 H927 0.985 . S
C922 C916 1.379 . S
C922 C919 1.363 . S
C922 N920 1.356 . S
C923 C917 1.363 . S
C923 C918 1.379 . S
C923 N921 1.356 . S
N924 C916 1.356 . S
N924 H930 0.984 . S
N924 H931 0.984 . S
N925 C918 1.356 . S
N925 H928 0.984 . S
N925 H929 0.985 . S
H926 N921 0.984 . S
H927 N921 0.985 . S
H928 N925 0.984 . S
H929 N925 0.985 . S
H930 N924 0.984 . S
H931 N924 0.984 . S
H932 N920 0.984 . S
H933 N920 0.985 . S
C934 C935 1.363 . S
C934 C940 1.379 . S
C934 N942 1.356 . S
C935 C934 1.363 . S
C935 C941 1.363 . S
C936 C937 1.363 . S
C936 C941 1.379 . S
C936 N943 1.356 . S
C937 C936 1.363 . S
C937 C940 1.363 . S
N938 C940 1.356 . S
N938 H950 0.984 . S
N938 H951 0.985 . S
N939 C941 1.356 . S
N939 H944 0.984 . S
N939 H945 0.985 . S
C940 C934 1.379 . S
C940 C937 1.363 . S
C940 N938 1.356 . S
C941 C935 1.363 . S
C941 C936 1.379 . S
C941 N939 1.356 . S
N942 C934 1.356 . S
N942 H948 0.984 1_455 S
N942 H949 0.984 1_455 S
N943 C936 1.356 . S
N943 H946 0.984 . S
N943 H947 0.985 . S
H944 N939 0.984 . S
H945 N939 0.985 . S
H946 N943 0.984 . S
H947 N943 0.985 . S
H948 N942 0.984 1_655 S
H949 N942 0.984 1_655 S
H950 N938 0.984 . S
H951 N938 0.985 . S
C952 C953 1.363 . S
C952 C958 1.379 . S
C952 N960 1.356 . S
C953 C952 1.363 . S
C953 C959 1.363 . S
C954 C955 1.363 . S
C954 C959 1.379 . S
C954 N961 1.356 . S
C955 C954 1.363 . S
C955 C958 1.363 . S
N956 C958 1.356 . S
N956 H968 0.984 . S
N956 H969 0.985 . S
N957 C959 1.356 . S
N957 H962 0.984 . S
N957 H963 0.985 . S
C958 C952 1.379 . S
C958 C955 1.363 . S
C958 N956 1.356 . S
C959 C953 1.363 . S
C959 C954 1.379 . S
C959 N957 1.356 . S
N960 C952 1.356 . S
N960 H966 0.984 . S
N960 H967 0.984 . S
N961 C954 1.356 . S
N961 H964 0.984 . S
N961 H965 0.985 . S
H962 N957 0.984 . S
H963 N957 0.985 . S
H964 N961 0.984 . S
H965 N961 0.985 . S
H966 N960 0.984 . S
H967 N960 0.984 . S
H968 N956 0.984 . S
H969 N956 0.985 . S
C970 C971 1.363 1_455 S
C970 C976 1.379 1_554 S
C970 N978 1.356 . S
C971 C970 1.363 1_655 S
C971 C977 1.363 1_554 S
C972 C973 1.363 1_655 S
C972 C977 1.379 . S
C972 N979 1.356 . S
C973 C972 1.363 1_455 S
C973 C976 1.363 . S
N974 C976 1.356 . S
N974 H986 0.984 1_556 S
N974 H987 0.985 . S
N975 C977 1.356 . S
N975 H980 0.994 . S
N975 H981 0.985 . S
C976 C970 1.379 1_556 S
C976 C973 1.363 . S
C976 N974 1.356 . S
C977 C971 1.363 1_556 S
C977 C972 1.379 . S
C977 N975 1.356 . S
N978 C970 1.356 . S
N978 H984 0.984 . S
N978 H985 0.984 . S
N979 C972 1.356 . S
N979 H982 0.984 . S
N979 H983 0.985 . S
H980 N975 0.994 . S
H981 N975 0.985 . S
H982 N979 0.984 . S
H983 N979 0.985 . S
H984 N978 0.984 . S
H985 N978 0.984 . S
H986 N974 0.984 1_554 S
H987 N974 0.985 . S
C988 C989 1.363 . S
C988 C994 1.379 . S
C988 N996 1.356 . S
C989 C988 1.363 . S
C989 C995 1.363 . S
C990 C991 1.363 . S
C990 C995 1.379 . S
C990 N997 1.356 . S
C991 C990 1.363 . S
C991 C994 1.363 . S
N992 C994 1.356 . S
N992 H1004 0.984 . S
N992 H1005 0.985 . S
N993 C995 1.356 . S
N993 H998 0.984 . S
N993 H999 0.985 . S
C994 C988 1.379 . S
C994 C991 1.363 . S
C994 N992 1.356 . S
C995 C989 1.363 . S
C995 C990 1.379 . S
C995 N993 1.356 . S
N996 C988 1.356 . S
N996 H1002 0.984 . S
N996 H1003 0.984 . S
N997 C990 1.356 . S
N997 H1000 0.984 . S
N997 H1001 0.985 . S
H998 N993 0.984 . S
H999 N993 0.985 . S
H1000 N997 0.984 . S
H1001 N997 0.985 . S
H1002 N996 0.984 . S
H1003 N996 0.984 . S
H1004 N992 0.984 . S
H1005 N992 0.985 . S
C1006 C1007 1.363 1_455 S
C1006 C1012 1.379 . S
C1006 N1014 1.356 . S
C1007 C1006 1.363 1_655 S
C1007 C1013 1.363 . S
C1008 C1009 1.363 1_655 S
C1008 C1013 1.379 . S
C1008 N1015 1.356 . S
C1009 C1008 1.363 1_455 S
C1009 C1012 1.363 . S
N1010 C1012 1.356 . S
N1010 H1022 0.984 . S
N1010 H1023 0.985 . S
N1011 C1013 1.356 1_554 S
N1011 H1016 0.984 . S
N1011 H1017 0.985 . S
C1012 C1006 1.379 . S
C1012 C1009 1.363 . S
C1012 N1010 1.356 . S
C1013 C1007 1.363 . S
C1013 C1008 1.379 . S
C1013 N1011 1.356 1_556 S
N1014 C1006 1.356 . S
N1014 H1020 0.984 . S
N1014 H1021 0.984 . S
N1015 C1008 1.356 . S
N1015 H1018 0.984 . S
N1015 H1019 0.985 1_556 S
H1016 N1011 0.984 . S
H1017 N1011 0.985 . S
H1018 N1015 0.984 . S
H1019 N1015 0.985 1_554 S
H1020 N1014 0.984 . S
H1021 N1014 0.984 . S
H1022 N1010 0.984 . S
H1023 N1010 0.985 . S
C1024 C1025 1.363 . S
C1024 C1030 1.379 . S
C1024 N1032 1.356 . S
C1025 C1024 1.363 . S
C1025 C1031 1.363 . S
C1026 C1027 1.363 . S
C1026 C1031 1.379 . S
C1026 N1033 1.356 . S
C1027 C1026 1.363 . S
C1027 C1030 1.363 . S
N1028 C1030 1.356 . S
N1028 H1040 0.984 . S
N1028 H1041 0.985 . S
N1029 C1031 1.356 . S
N1029 H1034 0.984 . S
N1029 H1035 0.985 . S
C1030 C1024 1.379 . S
C1030 C1027 1.363 . S
C1030 N1028 1.356 . S
C1031 C1025 1.363 . S
C1031 C1026 1.379 . S
C1031 N1029 1.356 . S
N1032 C1024 1.356 . S
N1032 H1038 0.984 . S
N1032 H1039 0.984 . S
N1033 C1026 1.356 . S
N1033 H1036 0.984 . S
N1033 H1037 0.985 . S
H1034 N1029 0.984 . S
H1035 N1029 0.985 . S
H1036 N1033 0.984 . S
H1037 N1033 0.985 . S
H1038 N1032 0.984 . S
H1039 N1032 0.984 . S
H1040 N1028 0.984 . S
H1041 N1028 0.985 . S
C1042 C1043 1.363 . S
C1042 C1048 1.379 . S
C1042 N1050 1.356 1_554 S
C1043 C1042 1.363 . S
C1043 C1049 1.363 . S
C1044 C1045 1.363 . S
C1044 C1049 1.379 . S
C1044 N1051 1.356 . S
C1045 C1044 1.363 . S
C1045 C1048 1.363 . S
N1046 C1048 1.356 . S
N1046 H1058 0.984 . S
N1046 H1059 0.985 . S
N1047 C1049 1.356 . S
N1047 H1052 0.984 . S
N1047 H1053 0.985 . S
C1048 C1042 1.379 . S
C1048 C1045 1.363 . S
C1048 N1046 1.356 . S
C1049 C1043 1.363 . S
C1049 C1044 1.379 . S
C1049 N1047 1.356 . S
N1050 C1042 1.356 1_556 S
N1050 H1056 0.984 . S
N1050 H1057 0.984 . S
N1051 C1044 1.356 . S
N1051 H1054 0.984 . S
N1051 H1055 0.985 . S
H1052 N1047 0.984 . S
H1053 N1047 0.985 . S
H1054 N1051 0.984 . S
H1055 N1051 0.985 . S
H1056 N1050 0.984 . S
H1057 N1050 0.984 . S
H1058 N1046 0.984 . S
H1059 N1046 0.985 . S
C1060 C1061 1.363 . S
C1060 C1066 1.379 . S
C1060 N1068 1.356 . S
C1061 C1060 1.363 . S
C1061 C1067 1.363 . S
C1062 C1063 1.363 . S
C1062 C1067 1.379 . S
C1062 N1069 1.356 . S
C1063 C1062 1.363 . S
C1063 C1066 1.363 . S
N1064 C1066 1.356 . S
N1064 H1076 0.984 . S
N1064 H1077 0.985 . S
N1065 C1067 1.356 . S
N1065 H1070 0.984 . S
N1065 H1071 0.985 . S
C1066 C1060 1.379 . S
C1066 C1063 1.363 . S
C1066 N1064 1.356 . S
C1067 C1061 1.363 . S
C1067 C1062 1.379 . S
C1067 N1065 1.356 . S
N1068 C1060 1.356 . S
N1068 H1074 0.984 . S
N1068 H1075 0.984 . S
N1069 C1062 1.356 . S
N1069 H1072 0.984 . S
N1069 H1073 0.985 . S
H1070 N1065 0.984 . S
H1071 N1065 0.985 . S
H1072 N1069 0.984 . S
H1073 N1069 0.985 . S
H1074 N1068 0.984 . S
H1075 N1068 0.984 . S
H1076 N1064 0.984 . S
H1077 N1064 0.985 . S
C1078 C1079 1.363 . S
C1078 C1084 1.379 . S
C1078 N1086 1.356 . S
C1079 C1078 1.363 . S
C1079 C1085 1.363 . S
C1080 C1081 1.363 . S
C1080 C1085 1.379 . S
C1080 N1087 1.356 . S
C1081 C1080 1.363 . S
C1081 C1084 1.363 . S
N1082 C1084 1.356 . S
N1082 H1094 0.984 . S
N1082 H1095 0.985 . S
N1083 C1085 1.356 . S
N1083 H1088 0.984 . S
N1083 H1089 0.985 . S
C1084 C1078 1.379 . S
C1084 C1081 1.363 . S
C1084 N1082 1.356 . S
C1085 C1079 1.363 . S
C1085 C1080 1.379 . S
C1085 N1083 1.356 . S
N1086 C1078 1.356 . S
N1086 H1092 0.984 . S
N1086 H1093 0.984 . S
N1087 C1080 1.356 . S
N1087 H1090 0.984 . S
N1087 H1091 0.985 . S
H1088 N1083 0.984 . S
H1089 N1083 0.985 . S
H1090 N1087 0.984 . S
H1091 N1087 0.985 . S
H1092 N1086 0.984 . S
H1093 N1086 0.984 . S
H1094 N1082 0.984 . S
H1095 N1082 0.985 . S
C1096 C1097 1.363 . S
C1096 C1102 1.379 . S
C1096 N1104 1.356 . S
C1097 C1096 1.363 . S
C1097 C1103 1.363 . S
C1098 C1099 1.363 . S
C1098 C1103 1.379 . S
C1098 N1105 1.356 . S
C1099 C1098 1.363 . S
C1099 C1102 1.363 . S
N1100 C1102 1.356 . S
N1100 H1112 0.984 . S
N1100 H1113 0.985 . S
N1101 C1103 1.356 . S
N1101 H1106 0.984 . S
N1101 H1107 0.985 . S
C1102 C1096 1.379 . S
C1102 C1099 1.363 . S
C1102 N1100 1.356 . S
C1103 C1097 1.363 . S
C1103 C1098 1.379 . S
C1103 N1101 1.356 . S
N1104 C1096 1.356 . S
N1104 H1110 0.984 . S
N1104 H1111 0.984 . S
N1105 C1098 1.356 . S
N1105 H1108 0.984 . S
N1105 H1109 0.985 . S
H1106 N1101 0.984 . S
H1107 N1101 0.985 . S
H1108 N1105 0.984 . S
H1109 N1105 0.985 . S
H1110 N1104 0.984 . S
H1111 N1104 0.984 . S
H1112 N1100 0.984 . S
H1113 N1100 0.985 . S
C1114 C1115 1.363 . S
C1114 C1120 1.379 . S
C1114 N1122 1.356 . S
C1115 C1114 1.363 . S
C1115 C1121 1.363 . S
C1116 C1117 1.363 . S
C1116 C1121 1.379 . S
C1116 N1123 1.356 . S
C1117 C1116 1.363 . S
C1117 C1120 1.363 . S
N1118 C1120 1.356 . S
N1118 H1130 0.984 . S
N1118 H1131 0.985 . S
N1119 C1121 1.356 . S
N1119 H1124 0.984 . S
N1119 H1125 0.985 . S
C1120 C1114 1.379 . S
C1120 C1117 1.363 . S
C1120 N1118 1.356 . S
C1121 C1115 1.363 . S
C1121 C1116 1.379 . S
C1121 N1119 1.356 . S
N1122 C1114 1.356 . S
N1122 H1128 0.984 . S
N1122 H1129 0.984 . S
N1123 C1116 1.356 . S
N1123 H1126 0.984 . S
N1123 H1127 0.985 . S
H1124 N1119 0.984 . S
H1125 N1119 0.985 . S
H1126 N1123 0.984 . S
H1127 N1123 0.985 . S
H1128 N1122 0.984 . S
H1129 N1122 0.984 . S
H1130 N1118 0.984 . S
H1131 N1118 0.985 . S
C1132 C1133 1.363 . S
C1132 C1138 1.379 . S
C1132 N1140 1.356 . S
C1133 C1132 1.363 . S
C1133 C1139 1.363 . S
C1134 C1135 1.363 . S
C1134 C1139 1.379 . S
C1134 N1141 1.356 . S
C1135 C1134 1.363 . S
C1135 C1138 1.363 . S
N1136 C1138 1.356 . S
N1136 H1148 0.984 . S
N1136 H1149 0.985 . S
N1137 C1139 1.356 . S
N1137 H1142 0.984 . S
N1137 H1143 0.985 . S
C1138 C1132 1.379 . S
C1138 C1135 1.363 . S
C1138 N1136 1.356 . S
C1139 C1133 1.363 . S
C1139 C1134 1.379 . S
C1139 N1137 1.356 . S
N1140 C1132 1.356 . S
N1140 H1146 0.984 . S
N1140 H1147 0.984 . S
N1141 C1134 1.356 . S
N1141 H1144 0.984 . S
N1141 H1145 0.985 . S
H1142 N1137 0.984 . S
H1143 N1137 0.985 . S
H1144 N1141 0.984 . S
H1145 N1141 0.985 . S
H1146 N1140 0.984 . S
H1147 N1140 0.984 . S
H1148 N1136 0.984 . S
H1149 N1136 0.985 . S
C1150 C1151 1.363 . S
C1150 C1156 1.379 . S
C1150 N1158 1.356 . S
C1151 C1150 1.363 . S
C1151 C1157 1.363 . S
C1152 C1153 1.363 . S
C1152 C1157 1.379 . S
C1152 N1159 1.356 . S
C1153 C1152 1.363 . S
C1153 C1156 1.363 . S
N1154 C1156 1.356 . S
N1154 H1166 0.984 . S
N1154 H1167 0.985 . S
N1155 C1157 1.356 . S
N1155 H1160 0.984 . S
N1155 H1161 0.985 . S
C1156 C1150 1.379 . S
C1156 C1153 1.363 . S
C1156 N1154 1.356 . S
C1157 C1151 1.363 . S
C1157 C1152 1.379 . S
C1157 N1155 1.356 . S
N1158 C1150 1.356 . S
N1158 H1164 0.984 . S
N1158 H1165 0.984 . S
N1159 C1152 1.356 . S
N1159 H1162 0.984 . S
N1159 H1163 0.985 . S
H1160 N1155 0.984 . S
H1161 N1155 0.985 . S
H1162 N1159 0.984 . S
H1163 N1159 0.985 . S
H1164 N1158 0.984 . S
H1165 N1158 0.984 . S
H1166 N1154 0.984 . S
H1167 N1154 0.985 . S
C1168 C1169 1.363 1_556 S
C1168 C1174 1.391 . S
C1168 N1176 1.356 . S
C1169 C1168 1.363 1_554 S
C1169 C1175 1.363 . S
C1170 C1171 1.363 . S
C1170 C1175 1.379 . S
C1170 N1177 1.356 . S
C1171 C1170 1.363 . S
C1171 C1174 1.328 1_554 S
N1172 C1174 1.371 . S
N1172 H1184 0.984 . S
N1172 H1185 0.985 1_556 S
N1173 C1175 1.356 . S
N1173 H1178 0.984 . S
N1173 H1179 0.985 . S
C1174 C1168 1.391 . S
C1174 C1171 1.328 1_556 S
C1174 N1172 1.371 . S
C1175 C1169 1.363 . S
C1175 C1170 1.379 . S
C1175 N1173 1.356 . S
N1176 C1168 1.356 . S
N1176 H1182 0.984 . S
N1176 H1183 0.984 . S
N1177 C1170 1.356 . S
N1177 H1180 0.984 . S
N1177 H1181 0.985 . S
H1178 N1173 0.984 . S
H1179 N1173 0.985 . S
H1180 N1177 0.984 . S
H1181 N1177 0.985 . S
H1182 N1176 0.984 . S
H1183 N1176 0.984 . S
H1184 N1172 0.984 . S
H1185 N1172 0.985 1_554 S
C1186 C1187 1.363 . S
C1186 C1192 1.379 . S
C1186 N1194 1.356 . S
C1187 C1186 1.363 . S
C1187 C1193 1.363 . S
C1188 C1189 1.363 . S
C1188 C1193 1.379 . S
C1188 N1195 1.356 . S
C1189 C1188 1.363 . S
C1189 C1192 1.363 . S
N1190 C1192 1.356 . S
N1190 H1202 0.984 . S
N1190 H1203 0.985 . S
N1191 C1193 1.356 . S
N1191 H1196 0.984 . S
N1191 H1197 0.985 . S
C1192 C1186 1.379 . S
C1192 C1189 1.363 . S
C1192 N1190 1.356 . S
C1193 C1187 1.363 . S
C1193 C1188 1.379 . S
C1193 N1191 1.356 . S
N1194 C1186 1.356 . S
N1194 H1200 0.984 . S
N1194 H1201 0.984 . S
N1195 C1188 1.356 . S
N1195 H1198 0.984 . S
N1195 H1199 0.985 . S
H1196 N1191 0.984 . S
H1197 N1191 0.985 . S
H1198 N1195 0.984 . S
H1199 N1195 0.985 . S
H1200 N1194 0.984 . S
H1201 N1194 0.984 . S
H1202 N1190 0.984 . S
H1203 N1190 0.985 . S
C1204 C1205 1.363 . S
C1204 C1210 1.379 . S
C1204 N1212 1.356 . S
C1205 C1204 1.363 . S
C1205 C1211 1.363 . S
C1206 C1207 1.363 . S
C1206 C1211 1.379 . S
C1206 N1213 1.356 . S
C1207 C1206 1.363 . S
C1207 C1210 1.363 . S
N1208 C1210 1.356 . S
N1208 H1220 0.984 . S
N1208 H1221 0.985 . S
N1209 C1211 1.356 . S
N1209 H1214 0.984 . S
N1209 H1215 0.985 . S
C1210 C1204 1.379 . S
C1210 C1207 1.363 . S
C1210 N1208 1.356 . S
C1211 C1205 1.363 . S
C1211 C1206 1.379 . S
C1211 N1209 1.356 . S
N1212 C1204 1.356 . S
N1212 H1218 0.984 . S
N1212 H1219 0.984 . S
N1213 C1206 1.356 . S
N1213 H1216 0.984 . S
N1213 H1217 0.985 . S
H1214 N1209 0.984 . S
H1215 N1209 0.985 . S
H1216 N1213 0.984 . S
H1217 N1213 0.985 . S
H1218 N1212 0.984 . S
H1219 N1212 0.984 . S
H1220 N1208 0.984 . S
H1221 N1208 0.985 . S
C1222 C1223 1.363 . S
C1222 C1228 1.378 . S
C1222 N1230 1.358 . S
C1223 C1222 1.363 . S
C1223 C1229 1.363 . S
C1224 C1225 1.363 . S
C1224 C1229 1.379 . S
C1224 N1231 1.356 . S
C1225 C1224 1.363 . S
C1225 C1228 1.362 . S
N1226 C1228 1.358 1_556 S
N1226 H1238 0.984 . S
N1226 H1239 0.985 . S
N1227 C1229 1.356 1_545 S
N1227 H1232 0.984 . S
N1227 H1233 0.985 . S
C1228 C1222 1.378 . S
C1228 C1225 1.362 . S
C1228 N1226 1.358 1_554 S
C1229 C1223 1.363 . S
C1229 C1224 1.379 . S
C1229 N1227 1.356 1_565 S
N1230 C1222 1.358 . S
N1230 H1236 0.976 1_554 S
N1230 H1237 0.992 . S
N1231 C1224 1.356 . S
N1231 H1234 0.984 . S
N1231 H1235 0.985 1_565 S
H1232 N1227 0.984 . S
H1233 N1227 0.985 . S
H1234 N1231 0.984 . S
H1235 N1231 0.985 1_545 S
H1236 N1230 0.976 1_556 S
H1237 N1230 0.992 . S
H1238 N1226 0.984 . S
H1239 N1226 0.985 . S
C379 C219 1.646 . S
C377 C73 1.680 . S
C397 C227 1.164 . S
C395 C82 1.318 . S
C413 C100 1.716 . S
C415 C247 1.656 . S
C433 C261 1.363 . S
C431 C56 1.361 1_655 S
C451 C276 1.455 . S
C449 C134 1.444 . S
C469 C290 1.691 . S
C467 C165 1.673 . S
C485 C147 1.287 . S
C487 C304 1.333 . S
C505 C310 1.708 . S
C503 C125 1.752 . S
C521 C151 1.437 . S
C523 C324 1.401 . S
C541 C345 1.468 . S
C539 C121 1.462 . S
C557 C139 1.669 . S
C559 C325 1.423 . S
C577 C346 1.409 . S
C575 C164 1.401 . S
C593 C95 1.328 . S
C595 C353 1.182 . S
C611 C61 1.514 . S
C613 C359 1.492 . S
C629 C74 1.466 . S
C631 C352 1.435 . S
C647 C86 1.673 . S
C649 C360 1.679 . S
C665 C47 1.452 . S
C667 C254 1.404 . S
C683 C186 1.354 . S
C685 C255 1.142 . S
C703 C212 1.501 1_554 S
C701 C204 1.568 . S
C721 C233 1.706 . S
C719 C112 1.742 . S
C737 C60 1.403 . S
C739 C268 1.360 . S
C757 C318 1.468 . S
C755 C152 1.457 . S
C775 C269 1.511 . S
C773 C126 1.771 1_545 S
C793 C297 1.114 . S
C791 C160 1.421 . S
C811 C303 1.646 . S
C809 C190 1.680 . S
C827 C199 1.318 . S
C829 C311 1.162 . S
C845 C113 1.716 . S
C847 C275 1.656 . S
C865 C289 1.363 . S
C863 C173 1.361 . S
C881 C43 1.444 . S
C883 C248 1.455 . S
C901 C262 1.691 . S
C899 C9 1.673 . S
C919 C220 1.333 . S
C917 C17 1.287 . S
C937 C226 1.708 . S
C935 C34 1.752 . S
C953 C21 1.437 . S
C955 C338 1.401 . S
C971 C30 1.462 . S
C973 C331 1.468 1_455 S
C989 C48 1.669 . S
C991 C339 1.423 . S
C1007 C8 1.401 1_556 S
C1009 C332 1.409 . S
C1027 C367 1.182 . S
C1025 C108 1.328 . S
C1045 C373 1.492 . S
C1043 C178 1.514 . S
C1063 C366 1.435 . S
C1061 C191 1.466 . S
C1079 C203 1.673 . S
C1081 C374 1.681 . S
C1097 C138 1.452 . S
C1099 C282 1.404 . S
C1117 C283 1.142 . S
C1115 C69 1.354 . S
C1135 C296 1.502 . S
C1133 C87 1.568 . S
C1153 C317 1.706 . S
C1151 C99 1.745 . S
C1169 C177 1.402 1_554 S
C1171 C240 1.360 . S
C1189 C234 1.468 . S
C1187 C22 1.460 . S
C1205 C35 1.771 . S
C1207 C241 1.511 . S
C1225 C213 1.114 . S
C1223 C4 1.421 . S
