# Generated by pormake.
# Topology sit, (3,6)-cn, num edge types: 1
# Building blocks:
#     Node 0, Type 0, BuildingBlock: PAMTOO_clean_linker_0, # of connection points: 3
#     Node 1, Type 0, BuildingBlock: PAMTOO_clean_linker_0, # of connection points: 3
#     Node 2, Type 0, BuildingBlock: PAMTOO_clean_linker_0, # of connection points: 3
#     Node 3, Type 0, BuildingBlock: PAMTOO_clean_linker_0, # of connection points: 3
#     Node 4, Type 1, BuildingBlock: MIDCAF_clean_sbu_0, # of connection points: 6
#     Node 5, Type 1, BuildingBlock: MIDCAF_clean_sbu_0, # of connection points: 6
#     Edge 6, Type (0, 1), BuildingBlock: ZUJKAS_clean_linker_0, # of connection points: 2
#     Edge 7, Type (0, 1), BuildingBlock: ZUJKAS_clean_linker_0, # of connection points: 2
#     Edge 8, Type (0, 1), BuildingBlock: ZUJKAS_clean_linker_0, # of connection points: 2
#     Edge 9, Type (0, 1), BuildingBlock: ZUJKAS_clean_linker_0, # of connection points: 2
#     Edge 10, Type (0, 1), BuildingBlock: ZUJKAS_clean_linker_0, # of connection points: 2
#     Edge 11, Type (0, 1), BuildingBlock: ZUJKAS_clean_linker_0, # of connection points: 2
#     Edge 12, Type (0, 1), BuildingBlock: ZUJKAS_clean_linker_0, # of connection points: 2
#     Edge 13, Type (0, 1), BuildingBlock: ZUJKAS_clean_linker_0, # of connection points: 2
#     Edge 14, Type (0, 1), BuildingBlock: ZUJKAS_clean_linker_0, # of connection points: 2
#     Edge 15, Type (0, 1), BuildingBlock: ZUJKAS_clean_linker_0, # of connection points: 2
#     Edge 16, Type (0, 1), BuildingBlock: ZUJKAS_clean_linker_0, # of connection points: 2
#     Edge 17, Type (0, 1), BuildingBlock: ZUJKAS_clean_linker_0, # of connection points: 2
# Relax obj value: 0.079
# Max RMSD: 0.182
# Mean RMSD: 0.119
data_MOF--net-sit--node1-MIDCAF_clean_sbu_0--node2-PAMTOO_clean_linker_0--edge1-ZUJKAS_clean_linker_0
_symmetry_space_group_name_H-M    P1
_symmetry_Int_Tables_number       1
_symmetry_cell_setting            triclinic
loop_
_symmetry_equiv_pos_as_xyz
'x, y, z'
_cell_length_a     27.497734
_cell_length_b     43.074877
_cell_length_c     48.257464
_cell_angle_alpha  89.92023
_cell_angle_beta   89.452783
_cell_angle_gamma 86.37587
loop_
_atom_site_label
_atom_site_type_symbol
_atom_site_fract_x
_atom_site_fract_y
_atom_site_fract_z
_atom_type_partial_charge
H0 H 0.06593 0.38889 0.01187 0.0
H1 H 0.1402 0.30449 0.04141 0.0
H2 H 0.98646 0.32132 0.05611 0.0
H3 H 0.04439 0.29533 0.10376 0.0
C4 C 0.07198 0.28038 0.09206 0.0
O5 O 0.06269 0.28252 0.06407 0.0
H6 H 0.10843 0.28904 0.09645 0.0
C7 C 0.06554 0.36724 0.02334 0.0
C8 C 0.02127 0.35787 0.03416 0.0
C9 C 0.10868 0.34827 0.02566 0.0
C10 C 0.10728 0.31946 0.03924 0.0
C11 C 0.06339 0.30998 0.05049 0.0
C12 C 0.02034 0.329 0.04768 0.0
H13 H 0.05438 0.6382 0.00828 0.0
H14 H 0.97912 0.7216 0.03977 0.0
H15 H 0.13061 0.7018 0.05809 0.0
H16 H 0.06636 0.72555 0.10538 0.0
C17 C 0.04185 0.74215 0.09351 0.0
O18 O 0.05452 0.74106 0.06579 0.0
H19 H 0.00384 0.73506 0.09619 0.0
C20 C 0.0543 0.65934 0.02048 0.0
C21 C 0.09733 0.66729 0.03326 0.0
C22 C 0.01165 0.67884 0.0224 0.0
C23 C 0.01176 0.70623 0.0381 0.0
C24 C 0.05453 0.71436 0.05113 0.0
C25 C 0.09745 0.6951 0.04842 0.0
H26 H 0.55602 0.89246 0.50646 0.0
H27 H 0.62378 0.80719 0.53852 0.0
H28 H 0.47381 0.83276 0.55803 0.0
H29 H 0.52992 0.80503 0.60509 0.0
C30 C 0.55744 0.79012 0.59335 0.0
O31 O 0.54642 0.791 0.56551 0.0
H32 H 0.59383 0.79946 0.59656 0.0
C33 C 0.5541 0.87156 0.51889 0.0
C34 C 0.5102 0.86546 0.53225 0.0
C35 C 0.59515 0.85064 0.52073 0.0
C36 C 0.59246 0.82365 0.53687 0.0
C37 C 0.54883 0.81733 0.55041 0.0
C38 C 0.50758 0.83802 0.54782 0.0
H39 H 0.53064 0.14248 0.50644 0.0
H40 H 0.4662 0.22495 0.54579 0.0
H41 H 0.62102 0.20422 0.54938 0.0
H42 H 0.57498 0.23007 0.60171 0.0
C43 C 0.54468 0.24482 0.59241 0.0
O44 O 0.5487 0.24385 0.56393 0.0
H45 H 0.50977 0.23531 0.59921 0.0
C46 C 0.53418 0.16317 0.51886 0.0
C47 C 0.58059 0.17089 0.52714 0.0
C48 C 0.4926 0.18229 0.52554 0.0
C49 C 0.49782 0.20966 0.5407 0.0
C50 C 0.544 0.2173 0.5496 0.0
C51 C 0.58534 0.19783 0.54297 0.0
Zn52 Zn 0.0126 0.0724 0.33962 0.0
Zn53 Zn 0.09192 0.95664 0.33991 0.0
Zn54 Zn 0.0524 0.0147 0.34022 0.0
C55 C 0.08069 0.97422 0.28484 0.0
C56 C 1e-05 0.95624 0.3663 0.0
O57 O 0.10332 0.0436 0.36158 0.0
O58 O 0.06593 0.09067 0.36076 0.0
C59 C 0.02877 0.05611 0.28462 0.0
O60 O 0.06127 0.99905 0.29638 0.0
O61 O 0.0987 0.95211 0.29939 0.0
O62 O 0.03627 0.93823 0.35959 0.0
O63 O -0.00028 0.98552 0.36069 0.0
O64 O 0.00979 0.07802 0.29922 0.0
O65 O 0.04679 0.03099 0.29624 0.0
O66 O 0.98253 0.017 0.36396 0.0
O67 O 0.95176 0.06552 0.35966 0.0
C68 C 0.94891 0.03846 0.36926 0.0
O69 O 0.12072 1.01227 0.36483 0.0
O70 O 0.15061 0.96346 0.36145 0.0
C71 C 0.10198 0.07277 0.36765 0.0
C72 C 0.15342 0.99058 0.37086 0.0
Zn73 Zn 0.53077 0.5709 0.83647 0.0
Zn74 Zn 0.59638 0.45284 0.83772 0.0
Zn75 Zn 0.56341 0.51191 0.83789 0.0
C76 C 0.58609 0.46966 0.78261 0.0
C77 C 0.50494 0.45672 0.86468 0.0
O78 O 0.61776 0.53833 0.85946 0.0
O79 O 0.58511 0.58662 0.85829 0.0
C80 C 0.54579 0.55365 0.7819 0.0
O81 O 0.57016 0.49546 0.79403 0.0
O82 O 0.60149 0.44701 0.79739 0.0
O83 O 0.53942 0.43724 0.85816 0.0
O84 O 0.50745 0.48573 0.85865 0.0
O85 O 0.53053 0.57688 0.79608 0.0
O86 O 0.55945 0.52774 0.79377 0.0
O87 O 0.49347 0.51775 0.86155 0.0
O88 O 0.46827 0.56715 0.85592 0.0
C89 C 0.46214 0.54075 0.86623 0.0
O90 O 0.63177 0.50633 0.86235 0.0
O91 O 0.65673 0.45662 0.85846 0.0
C92 C 0.61917 0.56737 0.86558 0.0
C93 C 0.66243 0.48334 0.86804 0.0
H94 H 0.1466 0.23505 0.09211 0.0
H95 H 0.14646 0.18259 0.11217 0.0
H96 H -0.00569 0.19902 0.13362 0.0
H97 H -0.00567 0.25108 0.11321 0.0
H98 H 0.12951 0.17187 0.16601 0.0
H99 H -0.00387 0.11091 0.10525 0.0
H100 H 0.02222 0.14592 0.09298 0.0
H101 H 0.97075 0.1482 0.11647 0.0
C102 C 0.11302 0.22712 0.10071 0.0
C103 C 0.07068 0.24714 0.10162 0.0
C104 C 0.11291 0.19719 0.11207 0.0
C105 C 0.07025 0.18666 0.12414 0.0
C106 C 0.02739 0.20625 0.12387 0.0
H107 H 0.96387 0.08853 0.25242 0.0
H108 H 0.97989 0.11127 0.20731 0.0
C109 C 0.0275 0.23612 0.1125 0.0
C110 C 0.07175 0.1572 0.14028 0.0
H111 H 0.00752 0.09327 0.15297 0.0
C112 C 0.10383 0.15416 0.16271 0.0
C113 C 0.03844 0.134 0.13588 0.0
C114 C 0.00533 0.13476 0.11113 0.0
C115 C 0.10052 0.13021 0.18227 0.0
C116 C 0.06465 0.10833 0.17902 0.0
C117 C 0.03502 0.11001 0.15545 0.0
C118 C 0.05139 0.08786 0.20232 0.0
C119 C 0.13273 0.13013 0.20745 0.0
C120 C 0.08501 0.06552 0.21375 0.0
C121 C 0.07581 0.05236 0.23977 0.0
C122 C 0.03294 0.0615 0.25449 0.0
C123 C -0.00259 0.08131 0.24161 0.0
C124 C 0.00649 0.09427 0.21577 0.0
H125 H 0.15435 0.15103 0.2084 0.0
H126 H 0.11046 0.12913 0.22671 0.0
H127 H 0.15852 0.10926 0.20694 0.0
H128 H 0.11959 0.05985 0.20346 0.0
H129 H 0.10386 0.03723 0.24928 0.0
H130 H 0.12438 0.77394 0.09718 0.0
H131 H 0.1342 0.82407 0.12002 0.0
H132 H 0.98016 0.83245 0.13846 0.0
H133 H 0.97015 0.78263 0.11529 0.0
H134 H 0.02252 0.8906 0.12246 0.0
H135 H 0.12374 0.82541 0.20571 0.0
H136 H 0.14743 0.81919 0.17121 0.0
H137 H 0.08843 0.80635 0.18026 0.0
C138 C 0.09261 0.78681 0.10573 0.0
C139 C 0.04666 0.7744 0.10475 0.0
C140 C 0.0982 0.81534 0.11875 0.0
C141 C 0.05797 0.83176 0.13117 0.0
C142 C 0.01162 0.82015 0.12897 0.0
H143 H 0.00041 0.97349 0.25263 0.0
H144 H -0.00344 0.94466 0.20908 0.0
C145 C 0.006 0.79166 0.11588 0.0
C146 C 0.06487 0.85919 0.1489 0.0
H147 H 0.11426 0.8795 0.21024 0.0
C148 C 0.0429 0.88835 0.14157 0.0
C149 C 0.09118 0.85608 0.17387 0.0
C150 C 0.11376 0.82508 0.18346 0.0
C151 C 0.04683 0.9146 0.1586 0.0
C152 C 0.07269 0.91134 0.18375 0.0
C153 C 0.09499 0.88218 0.19079 0.0
C154 C 0.07483 0.93677 0.20442 0.0
C155 C 0.0235 0.94549 0.14946 0.0
C156 C 0.12001 0.94323 0.2157 0.0
C157 C 0.12207 0.95907 0.24082 0.0
C158 C 0.07905 0.96928 0.25477 0.0
C159 C 0.03404 0.96623 0.24194 0.0
C160 C 0.03189 0.94975 0.217 0.0
H161 H 0.01988 0.94658 0.12656 0.0
H162 H 0.98637 0.94858 0.15865 0.0
H163 H 0.04482 0.96507 0.15638 0.0
H164 H 0.15361 0.93354 0.20638 0.0
H165 H 0.15714 0.96099 0.25051 0.0
H166 H 0.4824 0.75134 0.59214 0.0
H167 H 0.4785 0.69995 0.61392 0.0
H168 H 0.62653 0.7045 0.64163 0.0
H169 H 0.63083 0.75548 0.61946 0.0
H170 H 0.60368 0.64404 0.62267 0.0
H171 H 0.46775 0.695 0.69872 0.0
H172 H 0.45158 0.6995 0.66291 0.0
H173 H 0.50257 0.71876 0.67616 0.0
C174 C 0.51427 0.74104 0.60251 0.0
C175 C 0.55684 0.75731 0.60419 0.0
C176 C 0.51199 0.71182 0.615 0.0
C177 C 0.55206 0.69859 0.62966 0.0
C178 C 0.59525 0.71426 0.63038 0.0
H179 H 0.62693 0.56525 0.75282 0.0
H180 H 0.62753 0.59412 0.7092 0.0
C181 C 0.5976 0.7434 0.61781 0.0
C182 C 0.54788 0.66983 0.64627 0.0
H183 H 0.4921 0.64239 0.70389 0.0
C184 C 0.57893 0.64348 0.64027 0.0
C185 C 0.51561 0.66916 0.66923 0.0
C186 C 0.4827 0.69713 0.67738 0.0
C187 C 0.57896 0.61658 0.65689 0.0
C188 C 0.54772 0.61631 0.68036 0.0
C189 C 0.51572 0.64238 0.68576 0.0
C190 C 0.5505 0.59103 0.70144 0.0
C191 C 0.61255 0.58885 0.6492 0.0
C192 C 0.50753 0.5785 0.71117 0.0
C193 C 0.50717 0.56237 0.73632 0.0
C194 C 0.5499 0.55807 0.75184 0.0
C195 C 0.59385 0.56762 0.74077 0.0
C196 C 0.59414 0.58417 0.71579 0.0
H197 H 0.6198 0.58809 0.62652 0.0
H198 H 0.64798 0.5907 0.6597 0.0
H199 H 0.59718 0.5667 0.65565 0.0
H200 H 0.4734 0.58354 0.70054 0.0
H201 H 0.47272 0.55571 0.7448 0.0
H202 H 0.47027 0.29013 0.59292 0.0
H203 H 0.47044 0.34285 0.61235 0.0
H204 H 0.62195 0.32603 0.63355 0.0
H205 H 0.62193 0.27379 0.61373 0.0
H206 H 0.48604 0.355 0.66567 0.0
H207 H 0.62242 0.41324 0.60333 0.0
H208 H 0.59611 0.37811 0.59191 0.0
H209 H 0.64701 0.37613 0.61525 0.0
C210 C 0.50368 0.29802 0.60139 0.0
C211 C 0.54587 0.27789 0.6023 0.0
C212 C 0.50383 0.32808 0.61236 0.0
C213 C 0.54637 0.33862 0.62408 0.0
C214 C 0.58901 0.31881 0.62402 0.0
H215 H 0.65113 0.43598 0.75089 0.0
H216 H 0.63601 0.41347 0.70578 0.0
C217 C 0.58887 0.28882 0.61302 0.0
C218 C 0.54499 0.36847 0.63956 0.0
H219 H 0.61071 0.43183 0.65091 0.0
C220 C 0.5123 0.37234 0.66198 0.0
C221 C 0.57902 0.3912 0.63461 0.0
C222 C 0.61273 0.38962 0.60975 0.0
C223 C 0.51572 0.39663 0.68107 0.0
C224 C 0.55241 0.41795 0.67737 0.0
C225 C 0.58261 0.4155 0.65374 0.0
C226 C 0.56594 0.43842 0.70038 0.0
C227 C 0.48275 0.39766 0.70631 0.0
C228 C 0.53298 0.46152 0.71154 0.0
C229 C 0.54172 0.47457 0.73751 0.0
C230 C 0.58341 0.46452 0.75247 0.0
C231 C 0.61853 0.44393 0.73985 0.0
C232 C 0.60996 0.4311 0.71402 0.0
H233 H 0.46002 0.37726 0.70752 0.0
H234 H 0.5046 0.39841 0.72551 0.0
H235 H 0.45801 0.41901 0.70565 0.0
H236 H 0.49908 0.46783 0.70111 0.0
H237 H 0.51398 0.49029 0.74687 0.0
H238 H 0.14397 0.40606 0.02711 0.0
H239 H 0.21178 0.42484 0.00012 0.0
H240 H 0.24475 0.33234 0.9682 0.0
H241 H 0.17572 0.31356 0.99443 0.0
H242 H 0.30984 0.40896 -0.00109 0.0
H243 H 0.22574 0.38434 0.89782 0.0
H244 H 0.19251 0.38336 0.93021 0.0
H245 H 0.23335 0.35101 0.92011 0.0
C246 C 0.1657 0.38969 0.01436 0.0
C247 C 0.15409 0.35842 0.01257 0.0
C248 C 0.20452 0.40044 -0.00095 0.0
C249 C 0.23252 0.38014 0.98168 0.0
C250 C 0.22281 0.34853 0.98101 0.0
H251 H 0.50767 0.4111 0.90336 0.0
H252 H 0.44026 0.39396 0.93171 0.0
C253 C 0.1838 0.33775 0.99628 0.0
C254 C 0.27111 0.39235 0.96388 0.0
H255 H 0.30688 0.40031 0.89641 0.0
C256 C 0.30917 0.40712 0.9765 0.0
C257 C 0.2695 0.39056 0.93461 0.0
C258 C 0.22785 0.37675 0.91981 0.0
C259 C 0.34643 0.41942 0.96066 0.0
C260 C 0.34596 0.41634 0.9315 0.0
C261 C 0.30728 0.40233 0.91881 0.0
C262 C 0.38622 0.4266 0.9139 0.0
C263 C 0.38577 0.43584 0.97523 0.0
C264 C 0.37773 0.44994 0.89386 0.0
C265 C 0.41619 0.45959 0.87744 0.0
C266 C 0.46353 0.44606 0.88092 0.0
C267 C 0.47154 0.42208 0.90041 0.0
C268 C 0.43322 0.41246 0.91678 0.0
H269 H 0.37383 0.44379 0.99625 0.0
H270 H 0.41837 0.41953 0.97753 0.0
H271 H 0.3966 0.45625 0.96309 0.0
H272 H 0.34151 0.46087 0.89116 0.0
H273 H 0.40896 0.47758 0.86207 0.0
H274 H 0.00733 0.66278 0.96817 0.0
H275 H 0.93715 0.64548 0.94301 0.0
H276 H 0.84763 0.65886 0.0164 0.0
H277 H 0.91812 0.6763 0.04185 0.0
H278 H 0.84843 0.59663 0.98622 0.0
H279 H 0.81058 0.70105 0.92 0.0
H280 H 0.87336 0.6868 0.92235 0.0
H281 H 0.84233 0.70258 0.95255 0.0
C282 C 0.97262 0.66218 0.9789 0.0
C283 C 0.96803 0.67075 0.00694 0.0
C284 C 0.93263 0.65243 0.9645 0.0
C285 C 0.88741 0.65103 0.97789 0.0
C286 C 0.88238 0.65992 0.00579 0.0
H287 H 0.61285 0.6151 0.90218 0.0
H288 H 0.67772 0.63441 0.93046 0.0
C289 C 0.92241 0.67 0.0202 0.0
C290 C 0.84605 0.63923 0.96274 0.0
H291 H 0.76947 0.65604 0.90884 0.0
C292 C 0.83086 0.60963 0.96941 0.0
C293 C 0.82341 0.65637 0.94093 0.0
C294 C 0.83785 0.68858 0.93354 0.0
C295 C 0.79397 0.59642 0.95434 0.0
C296 C 0.7722 0.61325 0.93205 0.0
C297 C 0.78671 0.64312 0.92579 0.0
C298 C 0.73323 0.60067 0.91537 0.0
C299 C 0.77816 0.56474 0.96239 0.0
C300 C 0.74333 0.57556 0.89725 0.0
C301 C 0.7064 0.56471 0.88077 0.0
C302 C 0.65887 0.57857 0.8825 0.0
C303 C 0.64915 0.60389 0.90049 0.0
C304 C 0.68603 0.61486 0.91674 0.0
H305 H 0.79378 0.55664 0.98248 0.0
H306 H 0.73779 0.56506 0.96378 0.0
H307 H 0.79031 0.54772 0.94617 0.0
H308 H 0.77988 0.56472 0.89556 0.0
H309 H 0.71515 0.54587 0.8664 0.0
H310 H 0.00646 0.42032 0.04283 0.0
H311 H 0.9397 0.45469 0.02492 0.0
H312 H 0.86926 0.37482 0.99476 0.0
H313 H 0.93559 0.34044 0.01293 0.0
H314 H 0.92251 0.45937 0.97085 0.0
H315 H 0.75358 0.42781 0.02342 0.0
H316 H 0.81327 0.41682 0.03694 0.0
H317 H 0.78715 0.3938 0.01041 0.0
C318 C 0.97596 0.41011 0.03306 0.0
C319 C 0.97621 0.37774 0.02914 0.0
C320 C 0.93789 0.42974 0.02286 0.0
C321 C 0.89928 0.41738 0.00864 0.0
C322 C 0.89801 0.38491 0.00622 0.0
H323 H 0.75497 0.45891 0.86364 0.0
H324 H 0.8142 0.45245 0.90081 0.0
C325 C 0.936 0.36523 0.01656 0.0
C326 C 0.86448 0.43816 0.99283 0.0
H327 H 0.74411 0.44936 0.97692 0.0
C328 C 0.88339 0.45777 0.97267 0.0
C329 C 0.81344 0.43663 0.99544 0.0
C330 C 0.7907 0.41786 0.01796 0.0
C331 C 0.85294 0.47376 0.95355 0.0
C332 C 0.80233 0.46968 0.9544 0.0
C333 C 0.783 0.45226 0.97605 0.0
C334 C 0.77013 0.47901 0.93097 0.0
C335 C 0.87576 0.49372 0.93192 0.0
C336 C 0.72578 0.49643 0.9354 0.0
C337 C 0.69192 0.50032 0.91399 0.0
C338 C 0.70177 0.48639 0.88807 0.0
C339 C 0.74694 0.4702 0.88335 0.0
C340 C 0.78085 0.46663 0.90457 0.0
H341 H 0.90726 0.50523 0.94063 0.0
H342 H 0.88972 0.47872 0.91454 0.0
H343 H 0.84939 0.51184 0.92356 0.0
H344 H 0.71655 0.50584 0.95572 0.0
H345 H 0.65691 0.51242 0.91821 0.0
H346 H 0.18277 0.68451 0.01108 0.0
H347 H 0.24839 0.64976 0.99177 0.0
H348 H 0.17863 0.57039 0.02448 0.0
H349 H 0.11207 0.60511 0.04301 0.0
H350 H 0.31473 0.60398 0.00946 0.0
H351 H 0.17593 0.55444 0.942 0.0
H352 H 0.16216 0.58817 0.96338 0.0
H353 H 0.16651 0.54998 0.97861 0.0
C354 C 0.18225 0.65972 0.01482 0.0
C355 C 0.14233 0.64739 0.02825 0.0
C356 C 0.2196 0.63986 0.00371 0.0
C357 C 0.2177 0.60742 0.00606 0.0
C358 C 0.18014 0.59527 0.02178 0.0
H359 H 0.46222 0.50865 0.91522 0.0
H360 H 0.40111 0.51539 0.95261 0.0
C361 C 0.14243 0.61509 0.03254 0.0
C362 C 0.25215 0.58677 0.9896 0.0
H363 H 0.25748 0.5388 0.93318 0.0
C364 C 0.30235 0.58924 0.99309 0.0
C365 C 0.23573 0.56767 0.96815 0.0
C366 C 0.1822 0.56498 0.96256 0.0
C367 C 0.33651 0.57463 0.97475 0.0
C368 C 0.31994 0.55652 0.95269 0.0
C369 C 0.26997 0.55247 0.95027 0.0
C370 C 0.35246 0.54674 0.9292 0.0
C371 C 0.38969 0.58058 0.97793 0.0
C372 C 0.3438 0.56051 0.9032 0.0
C373 C 0.37809 0.55639 0.88189 0.0
C374 C 0.42156 0.53824 0.88608 0.0
C375 C 0.42871 0.52252 0.91141 0.0
C376 C 0.39415 0.52662 0.93284 0.0
H377 H 0.39548 0.59864 0.99378 0.0
H378 H 0.41014 0.55876 0.98433 0.0
H379 H 0.4053 0.58816 0.95791 0.0
H380 H 0.31183 0.57605 0.8999 0.0
H381 H 0.37182 0.56881 0.86258 0.0
H382 H 0.60212 0.86743 0.46658 0.0
H383 H 0.67476 0.88173 0.4412 0.0
H384 H 0.76198 0.8626 0.51376 0.0
H385 H 0.689 0.84838 0.53948 0.0
H386 H 0.7718 0.92305 0.48716 0.0
H387 H 0.79293 0.82408 0.41342 0.0
H388 H 0.73238 0.84224 0.41603 0.0
H389 H 0.75871 0.8222 0.44547 0.0
C390 C 0.63683 0.86613 0.47709 0.0
C391 C 0.64 0.85693 0.50502 0.0
C392 C 0.67828 0.87407 0.46252 0.0
C393 C 0.72365 0.87295 0.47557 0.0
C394 C 0.7272 0.86341 0.50334 0.0
H395 H 0.00478 0.90691 0.40153 0.0
H396 H 0.9383 0.88635 0.42869 0.0
C397 C 0.68568 0.85519 0.51793 0.0
C398 C 0.76667 0.8834 0.46046 0.0
H399 H 0.83916 0.86783 0.4037 0.0
C400 C 0.78683 0.91088 0.46905 0.0
C401 C 0.78615 0.86735 0.43692 0.0
C402 C 0.76679 0.83717 0.42746 0.0
C403 C 0.82524 0.9232 0.45418 0.0
C404 C 0.84362 0.90768 0.43017 0.0
C405 C 0.82442 0.87978 0.42199 0.0
C406 C 0.88328 0.91999 0.41345 0.0
C407 C 0.84614 0.95269 0.46408 0.0
C408 C 0.87386 0.94531 0.39555 0.0
C409 C 0.91161 0.9568 0.37971 0.0
C410 C 0.95936 0.94351 0.38195 0.0
C411 C 0.96835 0.91775 0.39951 0.0
C412 C 0.93057 0.90605 0.4151 0.0
H413 H 0.8298 0.96097 0.48409 0.0
H414 H 0.88622 0.94894 0.46645 0.0
H415 H 0.83947 0.97113 0.44832 0.0
H416 H 0.8373 0.95603 0.39376 0.0
H417 H 0.90336 0.9758 0.36549 0.0
H418 H 0.42407 0.21984 0.4989 0.0
H419 H 0.35148 0.20362 0.47506 0.0
H420 H 0.38235 0.10948 0.5034 0.0
H421 H 0.454 0.12565 0.52774 0.0
H422 H 0.3565 0.15978 0.43272 0.0
H423 H 0.23616 0.12294 0.51788 0.0
H424 H 0.28652 0.14704 0.52366 0.0
H425 H 0.29718 0.10565 0.51967 0.0
C426 C 0.41447 0.19591 0.50071 0.0
C427 C 0.44466 0.17396 0.51508 0.0
C428 C 0.37328 0.18664 0.48695 0.0
C429 C 0.36144 0.1554 0.48762 0.0
C430 C 0.39036 0.13378 0.50298 0.0
H431 H 0.19949 0.05565 0.36634 0.0
H432 H 0.26291 0.07547 0.39578 0.0
C433 C 0.43147 0.143 0.51668 0.0
C434 C 0.32183 0.14471 0.47018 0.0
H435 H 0.21695 0.10642 0.47223 0.0
C436 C 0.32572 0.14837 0.44135 0.0
C437 C 0.28181 0.12984 0.48154 0.0
C438 C 0.2748 0.12636 0.5124 0.0
C439 C 0.29098 0.1371 0.42349 0.0
C440 C 0.25177 0.1214 0.4348 0.0
C441 C 0.2474 0.1182 0.46365 0.0
C442 C 0.21395 0.10902 0.41709 0.0
C443 C 0.29622 0.14236 0.39272 0.0
C444 C 0.16552 0.12097 0.41969 0.0
C445 C 0.12937 0.10938 0.40326 0.0
C446 C 0.14096 0.08541 0.38415 0.0
C447 C 0.18954 0.07368 0.38132 0.0
C448 C 0.22578 0.08523 0.39786 0.0
H449 H 0.32147 0.16086 0.388 0.0
H450 H 0.3111 0.12052 0.38278 0.0
H451 H 0.26033 0.1489 0.3833 0.0
H452 H 0.15572 0.13933 0.43441 0.0
H453 H 0.09215 0.11883 0.40583 0.0
H454 H 0.50288 0.92833 0.53969 0.0
H455 H 0.43707 0.96496 0.52396 0.0
H456 H 0.35621 0.88788 0.4972 0.0
H457 H 0.42109 0.85139 0.51377 0.0
H458 H 0.41333 0.97317 0.47302 0.0
H459 H 0.247 0.94231 0.52779 0.0
H460 H 0.30687 0.92863 0.53933 0.0
H461 H 0.27602 0.90772 0.51306 0.0
C462 C 0.47028 0.9193 0.53121 0.0
C463 C 0.46688 0.88708 0.52795 0.0
C464 C 0.43276 0.94021 0.52221 0.0
C465 C 0.39128 0.92929 0.50963 0.0
C466 C 0.38699 0.897 0.50757 0.0
H467 H 0.24733 0.96876 0.36721 0.0
H468 H 0.30635 0.96514 0.40455 0.0
C469 C 0.42422 0.87608 0.51692 0.0
C470 C 0.35609 0.95117 0.4951 0.0
H471 H 0.2352 0.96259 0.4804 0.0
C472 C 0.3743 0.97146 0.47523 0.0
C473 C 0.30504 0.94988 0.49832 0.0
C474 C 0.28273 0.9312 0.52105 0.0
C475 C 0.34316 0.98794 0.45675 0.0
C476 C 0.29275 0.98335 0.45767 0.0
C477 C 0.27402 0.96568 0.47931 0.0
C478 C 0.26062 0.99172 0.43395 0.0
C479 C 0.36482 1.00902 0.43561 0.0
C480 C 0.21537 1.00828 0.43783 0.0
C481 C 0.18139 1.01032 0.41634 0.0
C482 C 0.19222 0.9956 0.39085 0.0
C483 C 0.23841 0.98058 0.38659 0.0
C484 C 0.27227 0.97869 0.40789 0.0
H485 H 0.39737 0.01964 0.44403 0.0
H486 H 0.3768 0.99515 0.41713 0.0
H487 H 0.33799 0.02788 0.42899 0.0
H488 H 0.20549 0.01827 0.45785 0.0
H489 H 0.14564 0.0216 0.42022 0.0
H490 H 0.65355 0.14205 0.55811 0.0
H491 H 0.71933 0.10512 0.54125 0.0
H492 H 0.66897 0.11929 0.45747 0.0
H493 H 0.60327 0.15533 0.47422 0.0
H494 H 0.68467 0.05683 0.47118 0.0
H495 H 0.84368 0.12425 0.49926 0.0
H496 H 0.80147 0.11557 0.52645 0.0
H497 H 0.78235 0.14181 0.49917 0.0
C498 C 0.65719 0.13746 0.5361 0.0
C499 C 0.62352 0.15138 0.51741 0.0
C500 C 0.69457 0.1164 0.5265 0.0
C501 C 0.69897 0.10946 0.49809 0.0
C502 C 0.66598 0.12406 0.47949 0.0
H503 H 0.85312 0.05391 0.36261 0.0
H504 H 0.79159 0.05965 0.39933 0.0
C505 C 0.62864 0.14474 0.48903 0.0
C506 C 0.73743 0.08707 0.48701 0.0
H507 H 0.85861 0.08081 0.47081 0.0
C508 C 0.72292 0.06164 0.4716 0.0
C509 C 0.78734 0.0931 0.48789 0.0
C510 C 0.80494 0.12021 0.50392 0.0
C511 C 0.75633 0.04372 0.45518 0.0
C512 C 0.80544 0.0515 0.45415 0.0
C513 C 0.82084 0.07494 0.47163 0.0
C514 C 0.83886 0.0404 0.43154 0.0
C515 C 0.73799 0.0179 0.43782 0.0
C516 C 0.8855 0.02685 0.43727 0.0
C517 C 0.92047 0.023 0.41607 0.0
C518 C 0.90946 0.03351 0.38917 0.0
C519 C 0.86209 0.04535 0.38318 0.0
C520 C 0.82695 0.04853 0.40414 0.0
H521 H 0.7082 1.00649 0.44879 0.0
H522 H 0.72285 0.02788 0.41827 0.0
H523 H 0.7674 1.00002 0.43252 0.0
H524 H 0.89552 0.02075 0.45833 0.0
H525 H 0.95709 0.0142 0.42115 0.0
loop_
_geom_bond_atom_site_label_1
_geom_bond_atom_site_label_2
_geom_bond_distance
_geom_bond_site_symmetry_2
_ccdc_geom_bond_type
H0 C7 0.929 . S
H1 C10 0.930 . S
H2 C12 0.929 . S
H3 C4 0.969 . S
C4 H3 0.969 . S
C4 O5 1.550 . S
C4 H6 0.973 . S
O5 C4 1.550 . S
O5 C11 1.412 . S
H6 C4 0.973 . S
C7 H0 0.929 . S
C7 C8 1.400 1_556 S
C7 C9 1.364 1_556 S
C8 C7 1.400 1_554 S
C8 C12 1.377 . S
C9 C7 1.364 1_554 S
C9 C10 1.374 . S
C10 H1 0.930 . S
C10 C9 1.374 . S
C10 C11 1.383 . S
C11 O5 1.412 . S
C11 C10 1.383 . S
C11 C12 1.394 . S
C12 H2 0.929 . S
C12 C8 1.377 . S
C12 C11 1.394 . S
H13 C20 0.930 . S
H14 C23 0.930 . S
H15 C25 0.929 . S
H16 C17 0.969 . S
C17 H16 0.969 . S
C17 O18 1.550 1_655 S
C17 H19 0.973 . S
O18 C17 1.550 1_455 S
O18 C24 1.412 . S
H19 C17 0.973 . S
C20 H13 0.930 . S
C20 C21 1.400 1_556 S
C20 C22 1.364 1_456 S
C21 C20 1.400 1_554 S
C21 C25 1.377 . S
C22 C20 1.364 1_654 S
C22 C23 1.374 . S
C23 H14 0.930 . S
C23 C22 1.374 . S
C23 C24 1.383 1_655 S
C24 O18 1.412 . S
C24 C23 1.383 1_455 S
C24 C25 1.394 . S
C25 H15 0.929 . S
C25 C21 1.377 . S
C25 C24 1.394 . S
H26 C33 0.929 . S
H27 C36 0.930 . S
H28 C38 0.929 . S
H29 C30 0.969 . S
C30 H29 0.969 . S
C30 O31 1.550 . S
C30 H32 0.973 . S
O31 C30 1.550 . S
O31 C37 1.412 . S
H32 C30 0.973 . S
C33 H26 0.929 . S
C33 C34 1.400 . S
C33 C35 1.364 . S
C34 C33 1.400 . S
C34 C38 1.377 . S
C35 C33 1.364 . S
C35 C36 1.374 . S
C36 H27 0.930 . S
C36 C35 1.374 . S
C36 C37 1.383 . S
C37 O31 1.412 . S
C37 C36 1.383 . S
C37 C38 1.394 . S
C38 H28 0.929 . S
C38 C34 1.377 . S
C38 C37 1.394 . S
H39 C46 0.929 . S
H40 C49 0.930 . S
H41 C51 0.929 . S
H42 C43 0.969 . S
C43 H42 0.969 . S
C43 O44 1.550 . S
C43 H45 0.973 . S
O44 C43 1.550 . S
O44 C50 1.412 . S
H45 C43 0.973 . S
C46 H39 0.929 . S
C46 C47 1.400 . S
C46 C48 1.364 . S
C47 C46 1.400 . S
C47 C51 1.377 . S
C48 C46 1.364 . S
C48 C49 1.374 . S
C49 H40 0.930 . S
C49 C48 1.374 . S
C49 C50 1.383 . S
C50 O44 1.412 . S
C50 C49 1.383 . S
C50 C51 1.394 . S
C51 H41 0.929 . S
C51 C47 1.377 . S
C51 C50 1.394 . S
Zn52 O58 1.920 . S
Zn52 O64 1.898 . S
Zn52 O67 1.905 1_455 S
Zn53 O61 1.905 . S
Zn53 O62 1.898 . S
Zn53 O70 1.920 . S
Zn54 O57 2.080 . S
Zn54 O60 2.114 1_545 S
Zn54 O63 2.120 1_545 S
Zn54 O65 2.120 . S
Zn54 O66 2.109 1_455 S
Zn54 O69 2.080 1_545 S
C55 O60 1.166 . S
C55 O61 1.182 . S
C56 O62 1.167 . S
C56 O63 1.299 . S
O57 Zn54 2.080 . S
O57 C71 1.305 . S
O58 Zn52 1.920 . S
O58 C71 1.234 . S
C59 O64 1.167 . S
C59 O65 1.299 . S
O60 Zn54 2.114 1_565 S
O60 C55 1.166 . S
O61 Zn53 1.905 . S
O61 C55 1.182 . S
O62 Zn53 1.898 . S
O62 C56 1.167 . S
O63 Zn54 2.120 1_565 S
O63 C56 1.299 . S
O64 Zn52 1.898 . S
O64 C59 1.167 . S
O65 Zn54 2.120 . S
O65 C59 1.299 . S
O66 Zn54 2.109 1_655 S
O66 C68 1.169 . S
O67 Zn52 1.905 1_655 S
O67 C68 1.182 . S
C68 O66 1.169 . S
C68 O67 1.182 . S
O69 Zn54 2.080 1_565 S
O69 C72 1.305 . S
O70 Zn53 1.920 . S
O70 C72 1.234 . S
C71 O57 1.305 . S
C71 O58 1.234 . S
C72 O69 1.305 . S
C72 O70 1.234 . S
Zn73 O79 1.920 . S
Zn73 O85 1.898 . S
Zn73 O88 1.905 . S
Zn74 O82 1.905 . S
Zn74 O83 1.898 . S
Zn74 O91 1.920 . S
Zn75 O78 2.080 . S
Zn75 O81 2.114 . S
Zn75 O84 2.120 . S
Zn75 O86 2.120 . S
Zn75 O87 2.114 . S
Zn75 O90 2.080 . S
C76 O81 1.166 . S
C76 O82 1.182 . S
C77 O83 1.167 . S
C77 O84 1.299 . S
O78 Zn75 2.080 . S
O78 C92 1.305 . S
O79 Zn73 1.920 . S
O79 C92 1.234 . S
C80 O85 1.167 . S
C80 O86 1.299 . S
O81 Zn75 2.114 . S
O81 C76 1.166 . S
O82 Zn74 1.905 . S
O82 C76 1.182 . S
O83 Zn74 1.898 . S
O83 C77 1.167 . S
O84 Zn75 2.120 . S
O84 C77 1.299 . S
O85 Zn73 1.898 . S
O85 C80 1.167 . S
O86 Zn75 2.120 . S
O86 C80 1.299 . S
O87 Zn75 2.114 . S
O87 C89 1.166 . S
O88 Zn73 1.905 . S
O88 C89 1.182 . S
C89 O87 1.166 . S
C89 O88 1.182 . S
O90 Zn75 2.080 . S
O90 C93 1.305 . S
O91 Zn74 1.920 . S
O91 C93 1.234 . S
C92 O78 1.305 . S
C92 O79 1.234 . S
C93 O90 1.305 . S
C93 O91 1.234 . S
H94 C102 0.929 . S
H95 C104 0.930 . S
H96 C106 0.930 . S
H97 C109 0.929 . S
H98 C112 0.930 . S
H99 C114 0.960 . S
H100 C114 0.960 . S
H101 C114 0.960 . S
C102 H94 0.929 . S
C102 C103 1.377 . S
C102 C104 1.384 . S
C103 C102 1.377 . S
C103 C109 1.390 . S
C104 H95 0.930 . S
C104 C102 1.384 . S
C104 C105 1.372 . S
C105 C104 1.372 . S
C105 C106 1.400 . S
C105 C110 1.490 . S
C106 H96 0.930 . S
C106 C105 1.400 . S
C106 C109 1.386 . S
H107 C123 0.930 . S
H108 C124 0.931 . S
C109 H97 0.929 . S
C109 C103 1.390 . S
C109 C106 1.386 . S
C110 C105 1.490 . S
C110 C112 1.395 . S
C110 C113 1.403 . S
H111 C117 0.930 . S
C112 H98 0.930 . S
C112 C110 1.395 . S
C112 C115 1.403 . S
C113 C110 1.403 . S
C113 C114 1.524 . S
C113 C117 1.400 . S
C114 H99 0.960 . S
C114 H100 0.960 . S
C114 H101 0.960 . S
C114 C113 1.524 . S
C115 C112 1.403 . S
C115 C116 1.392 . S
C115 C119 1.495 . S
C116 C115 1.392 . S
C116 C117 1.385 . S
C116 C118 1.478 . S
C117 H111 0.930 . S
C117 C113 1.400 . S
C117 C116 1.385 . S
C118 C116 1.478 . S
C118 C120 1.381 . S
C118 C124 1.383 . S
C119 C115 1.495 . S
C119 H125 0.959 . S
C119 H126 0.961 . S
C119 H127 0.960 . S
C120 C118 1.381 . S
C120 C121 1.394 . S
C120 H128 0.930 . S
C121 C120 1.394 . S
C121 C122 1.383 . S
C121 H129 0.929 . S
C122 C121 1.383 . S
C122 C123 1.377 . S
C123 H107 0.930 . S
C123 C122 1.377 . S
C123 C124 1.379 . S
C124 H108 0.931 . S
C124 C118 1.383 . S
C124 C123 1.379 . S
H125 C119 0.959 . S
H126 C119 0.961 . S
H127 C119 0.960 . S
H128 C120 0.930 . S
H129 C121 0.929 . S
H130 C138 0.929 . S
H131 C140 0.930 . S
H132 C142 0.930 . S
H133 C145 0.929 . S
H134 C148 0.930 . S
H135 C150 0.960 . S
H136 C150 0.960 . S
H137 C150 0.960 . S
C138 H130 0.929 . S
C138 C139 1.377 1_455 S
C138 C140 1.384 . S
C139 C138 1.377 1_655 S
C139 C145 1.390 . S
C140 H131 0.930 . S
C140 C138 1.384 . S
C140 C141 1.372 . S
C141 C140 1.372 . S
C141 C142 1.400 1_455 S
C141 C146 1.490 . S
C142 H132 0.930 . S
C142 C141 1.400 1_655 S
C142 C145 1.386 . S
H143 C159 0.930 . S
H144 C160 0.931 1_655 S
C145 H133 0.929 . S
C145 C139 1.390 . S
C145 C142 1.386 . S
C146 C141 1.490 . S
C146 C148 1.395 1_455 S
C146 C149 1.403 . S
H147 C153 0.930 . S
C148 H134 0.930 . S
C148 C146 1.395 1_655 S
C148 C151 1.403 . S
C149 C146 1.403 . S
C149 C150 1.524 . S
C149 C153 1.400 . S
C150 H135 0.960 . S
C150 H136 0.960 . S
C150 H137 0.960 . S
C150 C149 1.524 . S
C151 C148 1.403 . S
C151 C152 1.392 1_655 S
C151 C155 1.495 . S
C152 C151 1.392 1_455 S
C152 C153 1.385 . S
C152 C154 1.478 . S
C153 H147 0.930 . S
C153 C149 1.400 . S
C153 C152 1.385 . S
C154 C152 1.478 . S
C154 C156 1.381 . S
C154 C160 1.383 . S
C155 C151 1.495 . S
C155 H161 0.959 . S
C155 H162 0.961 . S
C155 H163 0.960 . S
C156 C154 1.381 . S
C156 C157 1.394 . S
C156 H164 0.930 . S
C157 C156 1.394 . S
C157 C158 1.383 . S
C157 H165 0.929 . S
C158 C157 1.383 . S
C158 C159 1.377 . S
C159 H143 0.930 . S
C159 C158 1.377 . S
C159 C160 1.379 . S
C160 H144 0.931 1_455 S
C160 C154 1.383 . S
C160 C159 1.379 . S
H161 C155 0.959 . S
H162 C155 0.961 . S
H163 C155 0.960 . S
H164 C156 0.930 . S
H165 C157 0.929 . S
H166 C174 0.929 . S
H167 C176 0.930 . S
H168 C178 0.930 . S
H169 C181 0.929 . S
H170 C184 0.930 . S
H171 C186 0.960 . S
H172 C186 0.960 . S
H173 C186 0.960 . S
C174 H166 0.929 . S
C174 C175 1.377 . S
C174 C176 1.384 . S
C175 C174 1.377 . S
C175 C181 1.390 . S
C176 H167 0.930 . S
C176 C174 1.384 . S
C176 C177 1.372 . S
C177 C176 1.372 . S
C177 C178 1.400 . S
C177 C182 1.490 . S
C178 H168 0.930 . S
C178 C177 1.400 . S
C178 C181 1.386 . S
H179 C195 0.930 . S
H180 C196 0.931 . S
C181 H169 0.929 . S
C181 C175 1.390 . S
C181 C178 1.386 . S
C182 C177 1.490 . S
C182 C184 1.395 . S
C182 C185 1.403 . S
H183 C189 0.930 . S
C184 H170 0.930 . S
C184 C182 1.395 . S
C184 C187 1.403 . S
C185 C182 1.403 . S
C185 C186 1.524 . S
C185 C189 1.400 . S
C186 H171 0.960 . S
C186 H172 0.960 . S
C186 H173 0.960 . S
C186 C185 1.524 . S
C187 C184 1.403 . S
C187 C188 1.392 . S
C187 C191 1.495 . S
C188 C187 1.392 . S
C188 C189 1.385 . S
C188 C190 1.478 . S
C189 H183 0.930 . S
C189 C185 1.400 . S
C189 C188 1.385 . S
C190 C188 1.478 . S
C190 C192 1.381 . S
C190 C196 1.383 . S
C191 C187 1.495 . S
C191 H197 0.959 . S
C191 H198 0.961 . S
C191 H199 0.960 . S
C192 C190 1.381 . S
C192 C193 1.394 . S
C192 H200 0.930 . S
C193 C192 1.394 . S
C193 C194 1.383 . S
C193 H201 0.929 . S
C194 C193 1.383 . S
C194 C195 1.377 . S
C195 H179 0.930 . S
C195 C194 1.377 . S
C195 C196 1.379 . S
C196 H180 0.931 . S
C196 C190 1.383 . S
C196 C195 1.379 . S
H197 C191 0.959 . S
H198 C191 0.961 . S
H199 C191 0.960 . S
H200 C192 0.930 . S
H201 C193 0.929 . S
H202 C210 0.929 . S
H203 C212 0.930 . S
H204 C214 0.930 . S
H205 C217 0.929 . S
H206 C220 0.930 . S
H207 C222 0.960 . S
H208 C222 0.960 . S
H209 C222 0.960 . S
C210 H202 0.929 . S
C210 C211 1.377 . S
C210 C212 1.384 . S
C211 C210 1.377 . S
C211 C217 1.390 . S
C212 H203 0.930 . S
C212 C210 1.384 . S
C212 C213 1.372 . S
C213 C212 1.372 . S
C213 C214 1.400 . S
C213 C218 1.490 . S
C214 H204 0.930 . S
C214 C213 1.400 . S
C214 C217 1.386 . S
H215 C231 0.930 . S
H216 C232 0.931 . S
C217 H205 0.929 . S
C217 C211 1.390 . S
C217 C214 1.386 . S
C218 C213 1.490 . S
C218 C220 1.395 . S
C218 C221 1.403 . S
H219 C225 0.930 . S
C220 H206 0.930 . S
C220 C218 1.395 . S
C220 C223 1.403 . S
C221 C218 1.403 . S
C221 C222 1.524 . S
C221 C225 1.400 . S
C222 H207 0.960 . S
C222 H208 0.960 . S
C222 H209 0.960 . S
C222 C221 1.524 . S
C223 C220 1.403 . S
C223 C224 1.392 . S
C223 C227 1.495 . S
C224 C223 1.392 . S
C224 C225 1.385 . S
C224 C226 1.478 . S
C225 H219 0.930 . S
C225 C221 1.400 . S
C225 C224 1.385 . S
C226 C224 1.478 . S
C226 C228 1.381 . S
C226 C232 1.383 . S
C227 C223 1.495 . S
C227 H233 0.959 . S
C227 H234 0.961 . S
C227 H235 0.960 . S
C228 C226 1.381 . S
C228 C229 1.394 . S
C228 H236 0.930 . S
C229 C228 1.394 . S
C229 C230 1.383 . S
C229 H237 0.929 . S
C230 C229 1.383 . S
C230 C231 1.377 . S
C231 H215 0.930 . S
C231 C230 1.377 . S
C231 C232 1.379 . S
C232 H216 0.931 . S
C232 C226 1.383 . S
C232 C231 1.379 . S
H233 C227 0.959 . S
H234 C227 0.961 . S
H235 C227 0.960 . S
H236 C228 0.930 . S
H237 C229 0.929 . S
H238 C246 0.929 . S
H239 C248 0.930 . S
H240 C250 0.927 1_554 S
H241 C253 0.929 . S
H242 C256 0.930 . S
H243 C258 0.960 . S
H244 C258 0.960 . S
H245 C258 0.960 . S
C246 H238 0.929 . S
C246 C247 1.373 1_556 S
C246 C248 1.384 . S
C247 C246 1.373 1_554 S
C247 C253 1.391 . S
C248 H239 0.930 . S
C248 C246 1.384 . S
C248 C249 1.372 . S
C249 C248 1.372 . S
C249 C250 1.400 . S
C249 C254 1.490 . S
C250 H240 0.927 1_556 S
C250 C249 1.400 . S
C250 C253 1.386 1_556 S
H251 C267 0.930 . S
H252 C268 0.931 . S
C253 H241 0.929 . S
C253 C247 1.391 . S
C253 C250 1.386 1_554 S
C254 C249 1.490 . S
C254 C256 1.395 . S
C254 C257 1.403 . S
H255 C261 0.930 . S
C256 H242 0.930 . S
C256 C254 1.395 . S
C256 C259 1.403 . S
C257 C254 1.403 . S
C257 C258 1.524 . S
C257 C261 1.400 . S
C258 H243 0.960 . S
C258 H244 0.960 . S
C258 H245 0.960 . S
C258 C257 1.524 . S
C259 C256 1.403 . S
C259 C260 1.392 . S
C259 C263 1.495 . S
C260 C259 1.392 . S
C260 C261 1.385 . S
C260 C262 1.478 . S
C261 H255 0.930 . S
C261 C257 1.400 . S
C261 C260 1.385 . S
C262 C260 1.478 . S
C262 C264 1.381 . S
C262 C268 1.383 . S
C263 C259 1.495 . S
C263 H269 0.959 . S
C263 H270 0.961 . S
C263 H271 0.960 . S
C264 C262 1.381 . S
C264 C265 1.394 . S
C264 H272 0.930 . S
C265 C264 1.394 . S
C265 C266 1.383 . S
C265 H273 0.929 . S
C266 C265 1.383 . S
C266 C267 1.377 . S
C267 H251 0.930 . S
C267 C266 1.377 . S
C267 C268 1.379 . S
C268 H252 0.931 . S
C268 C262 1.383 . S
C268 C267 1.379 . S
H269 C263 0.959 . S
H270 C263 0.961 . S
H271 C263 0.960 . S
H272 C264 0.930 . S
H273 C265 0.929 . S
H274 C282 0.929 . S
H275 C284 0.930 . S
H276 C286 0.930 . S
H277 C289 0.929 . S
H278 C292 0.930 . S
H279 C294 0.960 . S
H280 C294 0.960 . S
H281 C294 0.960 . S
C282 H274 0.929 . S
C282 C283 1.377 1_556 S
C282 C284 1.384 . S
C283 C282 1.377 1_554 S
C283 C289 1.390 . S
C284 H275 0.930 . S
C284 C282 1.384 . S
C284 C285 1.372 . S
C285 C284 1.372 . S
C285 C286 1.400 1_556 S
C285 C290 1.490 . S
C286 H276 0.930 . S
C286 C285 1.400 1_554 S
C286 C289 1.386 . S
H287 C303 0.930 . S
H288 C304 0.931 . S
C289 H277 0.929 . S
C289 C283 1.390 . S
C289 C286 1.386 . S
C290 C285 1.490 . S
C290 C292 1.395 . S
C290 C293 1.403 . S
H291 C297 0.930 . S
C292 H278 0.930 . S
C292 C290 1.395 . S
C292 C295 1.403 . S
C293 C290 1.403 . S
C293 C294 1.524 . S
C293 C297 1.400 . S
C294 H279 0.960 . S
C294 H280 0.960 . S
C294 H281 0.960 . S
C294 C293 1.524 . S
C295 C292 1.403 . S
C295 C296 1.392 . S
C295 C299 1.495 . S
C296 C295 1.392 . S
C296 C297 1.385 . S
C296 C298 1.478 . S
C297 H291 0.930 . S
C297 C293 1.400 . S
C297 C296 1.385 . S
C298 C296 1.478 . S
C298 C300 1.381 . S
C298 C304 1.383 . S
C299 C295 1.495 . S
C299 H305 0.959 . S
C299 H306 0.961 . S
C299 H307 0.960 . S
C300 C298 1.381 . S
C300 C301 1.394 . S
C300 H308 0.930 . S
C301 C300 1.394 . S
C301 C302 1.383 . S
C301 H309 0.929 . S
C302 C301 1.383 . S
C302 C303 1.377 . S
C303 H287 0.930 . S
C303 C302 1.377 . S
C303 C304 1.379 . S
C304 H288 0.931 . S
C304 C298 1.383 . S
C304 C303 1.379 . S
H305 C299 0.959 . S
H306 C299 0.961 . S
H307 C299 0.960 . S
H308 C300 0.930 . S
H309 C301 0.929 . S
H310 C318 0.929 . S
H311 C320 0.930 1_554 S
H312 C322 0.930 . S
H313 C325 0.929 . S
H314 C328 0.930 . S
H315 C330 0.960 . S
H316 C330 0.960 . S
H317 C330 0.960 . S
C318 H310 0.929 . S
C318 C319 1.377 1_654 S
C318 C320 1.384 1_554 S
C319 C318 1.377 1_456 S
C319 C325 1.390 . S
C320 H311 0.930 1_556 S
C320 C318 1.384 1_556 S
C320 C321 1.372 . S
C321 C320 1.372 . S
C321 C322 1.400 . S
C321 C326 1.490 . S
C322 H312 0.930 . S
C322 C321 1.400 . S
C322 C325 1.386 1_655 S
H323 C339 0.930 . S
H324 C340 0.931 . S
C325 H313 0.929 . S
C325 C319 1.390 . S
C325 C322 1.386 1_455 S
C326 C321 1.490 . S
C326 C328 1.395 . S
C326 C329 1.403 . S
H327 C333 0.930 . S
C328 H314 0.930 . S
C328 C326 1.395 . S
C328 C331 1.403 . S
C329 C326 1.403 . S
C329 C330 1.524 . S
C329 C333 1.400 . S
C330 H315 0.960 . S
C330 H316 0.960 . S
C330 H317 0.960 . S
C330 C329 1.524 . S
C331 C328 1.403 . S
C331 C332 1.392 . S
C331 C335 1.495 . S
C332 C331 1.392 . S
C332 C333 1.385 . S
C332 C334 1.478 . S
C333 H327 0.930 . S
C333 C329 1.400 . S
C333 C332 1.385 . S
C334 C332 1.478 . S
C334 C336 1.381 . S
C334 C340 1.383 . S
C335 C331 1.495 . S
C335 H341 0.959 . S
C335 H342 0.961 . S
C335 H343 0.960 . S
C336 C334 1.381 . S
C336 C337 1.394 . S
C336 H344 0.930 . S
C337 C336 1.394 . S
C337 C338 1.383 . S
C337 H345 0.929 . S
C338 C337 1.383 . S
C338 C339 1.377 . S
C339 H323 0.930 . S
C339 C338 1.377 . S
C339 C340 1.379 . S
C340 H324 0.931 . S
C340 C334 1.383 . S
C340 C339 1.379 . S
H341 C335 0.959 . S
H342 C335 0.961 . S
H343 C335 0.960 . S
H344 C336 0.930 . S
H345 C337 0.929 . S
H346 C354 0.929 . S
H347 C356 0.930 . S
H348 C358 0.930 . S
H349 C361 0.929 1_554 S
H350 C364 0.930 . S
H351 C366 0.960 . S
H352 C366 0.960 . S
H353 C366 0.960 . S
C354 H346 0.929 . S
C354 C355 1.377 . S
C354 C356 1.384 . S
C355 C354 1.377 . S
C355 C361 1.390 . S
C356 H347 0.930 . S
C356 C354 1.384 . S
C356 C357 1.372 . S
C357 C356 1.372 . S
C357 C358 1.400 . S
C357 C362 1.490 . S
C358 H348 0.930 . S
C358 C357 1.400 . S
C358 C361 1.386 . S
H359 C375 0.930 . S
H360 C376 0.931 . S
C361 H349 0.929 1_556 S
C361 C355 1.390 . S
C361 C358 1.386 . S
C362 C357 1.490 . S
C362 C364 1.395 . S
C362 C365 1.403 . S
H363 C369 0.930 . S
C364 H350 0.930 . S
C364 C362 1.395 . S
C364 C367 1.403 . S
C365 C362 1.403 . S
C365 C366 1.524 . S
C365 C369 1.400 . S
C366 H351 0.960 . S
C366 H352 0.960 . S
C366 H353 0.960 . S
C366 C365 1.524 . S
C367 C364 1.403 . S
C367 C368 1.392 . S
C367 C371 1.495 . S
C368 C367 1.392 . S
C368 C369 1.385 . S
C368 C370 1.478 . S
C369 H363 0.930 . S
C369 C365 1.400 . S
C369 C368 1.385 . S
C370 C368 1.478 . S
C370 C372 1.381 . S
C370 C376 1.383 . S
C371 C367 1.495 . S
C371 H377 0.959 . S
C371 H378 0.961 . S
C371 H379 0.960 . S
C372 C370 1.381 . S
C372 C373 1.394 . S
C372 H380 0.930 . S
C373 C372 1.394 . S
C373 C374 1.383 . S
C373 H381 0.929 . S
C374 C373 1.383 . S
C374 C375 1.377 . S
C375 H359 0.930 . S
C375 C374 1.377 . S
C375 C376 1.379 . S
C376 H360 0.931 . S
C376 C370 1.383 . S
C376 C375 1.379 . S
H377 C371 0.959 . S
H378 C371 0.961 . S
H379 C371 0.960 . S
H380 C372 0.930 . S
H381 C373 0.929 . S
H382 C390 0.929 . S
H383 C392 0.930 . S
H384 C394 0.930 . S
H385 C397 0.929 . S
H386 C400 0.930 . S
H387 C402 0.960 . S
H388 C402 0.960 . S
H389 C402 0.960 . S
C390 H382 0.929 . S
C390 C391 1.377 . S
C390 C392 1.384 . S
C391 C390 1.377 . S
C391 C397 1.390 . S
C392 H383 0.930 . S
C392 C390 1.384 . S
C392 C393 1.372 . S
C393 C392 1.372 . S
C393 C394 1.400 . S
C393 C398 1.490 . S
C394 H384 0.930 . S
C394 C393 1.400 . S
C394 C397 1.386 . S
H395 C411 0.930 1_455 S
H396 C412 0.931 . S
C397 H385 0.929 . S
C397 C391 1.390 . S
C397 C394 1.386 . S
C398 C393 1.490 . S
C398 C400 1.395 . S
C398 C401 1.403 . S
H399 C405 0.930 . S
C400 H386 0.930 . S
C400 C398 1.395 . S
C400 C403 1.403 . S
C401 C398 1.403 . S
C401 C402 1.524 . S
C401 C405 1.400 . S
C402 H387 0.960 . S
C402 H388 0.960 . S
C402 H389 0.960 . S
C402 C401 1.524 . S
C403 C400 1.403 . S
C403 C404 1.392 . S
C403 C407 1.495 . S
C404 C403 1.392 . S
C404 C405 1.385 . S
C404 C406 1.478 . S
C405 H399 0.930 . S
C405 C401 1.400 . S
C405 C404 1.385 . S
C406 C404 1.478 . S
C406 C408 1.381 . S
C406 C412 1.383 . S
C407 C403 1.495 . S
C407 H413 0.959 . S
C407 H414 0.961 . S
C407 H415 0.960 . S
C408 C406 1.381 . S
C408 C409 1.394 . S
C408 H416 0.930 . S
C409 C408 1.394 . S
C409 C410 1.383 . S
C409 H417 0.929 . S
C410 C409 1.383 . S
C410 C411 1.377 . S
C411 H395 0.930 1_655 S
C411 C410 1.377 . S
C411 C412 1.379 . S
C412 H396 0.931 . S
C412 C406 1.383 . S
C412 C411 1.379 . S
H413 C407 0.959 . S
H414 C407 0.961 . S
H415 C407 0.960 . S
H416 C408 0.930 . S
H417 C409 0.929 . S
H418 C426 0.929 . S
H419 C428 0.930 . S
H420 C430 0.930 . S
H421 C433 0.929 . S
H422 C436 0.930 . S
H423 C438 0.960 . S
H424 C438 0.960 . S
H425 C438 0.960 . S
C426 H418 0.929 . S
C426 C427 1.377 . S
C426 C428 1.384 . S
C427 C426 1.377 . S
C427 C433 1.390 . S
C428 H419 0.930 . S
C428 C426 1.384 . S
C428 C429 1.372 . S
C429 C428 1.372 . S
C429 C430 1.400 . S
C429 C434 1.490 . S
C430 H420 0.930 . S
C430 C429 1.400 . S
C430 C433 1.386 . S
H431 C447 0.930 . S
H432 C448 0.931 . S
C433 H421 0.929 . S
C433 C427 1.390 . S
C433 C430 1.386 . S
C434 C429 1.490 . S
C434 C436 1.395 . S
C434 C437 1.403 . S
H435 C441 0.930 . S
C436 H422 0.930 . S
C436 C434 1.395 . S
C436 C439 1.403 . S
C437 C434 1.403 . S
C437 C438 1.524 . S
C437 C441 1.400 . S
C438 H423 0.960 . S
C438 H424 0.960 . S
C438 H425 0.960 . S
C438 C437 1.524 . S
C439 C436 1.403 . S
C439 C440 1.392 . S
C439 C443 1.495 . S
C440 C439 1.392 . S
C440 C441 1.385 . S
C440 C442 1.478 . S
C441 H435 0.930 . S
C441 C437 1.400 . S
C441 C440 1.385 . S
C442 C440 1.478 . S
C442 C444 1.381 . S
C442 C448 1.383 . S
C443 C439 1.495 . S
C443 H449 0.959 . S
C443 H450 0.961 . S
C443 H451 0.960 . S
C444 C442 1.381 . S
C444 C445 1.394 . S
C444 H452 0.930 . S
C445 C444 1.394 . S
C445 C446 1.383 . S
C445 H453 0.929 . S
C446 C445 1.383 . S
C446 C447 1.377 . S
C447 H431 0.930 . S
C447 C446 1.377 . S
C447 C448 1.379 . S
C448 H432 0.931 . S
C448 C442 1.383 . S
C448 C447 1.379 . S
H449 C443 0.959 . S
H450 C443 0.961 . S
H451 C443 0.960 . S
H452 C444 0.930 . S
H453 C445 0.929 . S
H454 C462 0.929 . S
H455 C464 0.930 . S
H456 C466 0.930 . S
H457 C469 0.929 . S
H458 C472 0.930 . S
H459 C474 0.960 . S
H460 C474 0.960 . S
H461 C474 0.960 . S
C462 H454 0.929 . S
C462 C463 1.377 . S
C462 C464 1.384 . S
C463 C462 1.377 . S
C463 C469 1.390 . S
C464 H455 0.930 . S
C464 C462 1.384 . S
C464 C465 1.372 . S
C465 C464 1.372 . S
C465 C466 1.400 . S
C465 C470 1.490 . S
C466 H456 0.930 . S
C466 C465 1.400 . S
C466 C469 1.386 . S
H467 C483 0.930 . S
H468 C484 0.931 . S
C469 H457 0.929 . S
C469 C463 1.390 . S
C469 C466 1.386 . S
C470 C465 1.490 . S
C470 C472 1.395 . S
C470 C473 1.403 . S
H471 C477 0.930 . S
C472 H458 0.930 . S
C472 C470 1.395 . S
C472 C475 1.403 . S
C473 C470 1.403 . S
C473 C474 1.524 . S
C473 C477 1.400 . S
C474 H459 0.960 . S
C474 H460 0.960 . S
C474 H461 0.960 . S
C474 C473 1.524 . S
C475 C472 1.403 . S
C475 C476 1.392 . S
C475 C479 1.495 . S
C476 C475 1.392 . S
C476 C477 1.385 . S
C476 C478 1.478 . S
C477 H471 0.930 . S
C477 C473 1.400 . S
C477 C476 1.385 . S
C478 C476 1.478 . S
C478 C480 1.381 . S
C478 C484 1.383 . S
C479 C475 1.495 . S
C479 H485 0.959 . S
C479 H486 0.961 . S
C479 H487 0.960 . S
C480 C478 1.381 . S
C480 C481 1.394 . S
C480 H488 0.930 . S
C481 C480 1.394 . S
C481 C482 1.383 . S
C481 H489 0.929 . S
C482 C481 1.383 . S
C482 C483 1.377 . S
C483 H467 0.930 . S
C483 C482 1.377 . S
C483 C484 1.379 . S
C484 H468 0.931 . S
C484 C478 1.383 . S
C484 C483 1.379 . S
H485 C479 0.959 . S
H486 C479 0.961 . S
H487 C479 0.960 . S
H488 C480 0.930 . S
H489 C481 0.929 . S
H490 C498 0.929 . S
H491 C500 0.930 . S
H492 C502 0.930 . S
H493 C505 0.929 . S
H494 C508 0.930 . S
H495 C510 0.960 . S
H496 C510 0.960 . S
H497 C510 0.960 . S
C498 H490 0.929 . S
C498 C499 1.377 . S
C498 C500 1.384 . S
C499 C498 1.377 . S
C499 C505 1.390 . S
C500 H491 0.930 . S
C500 C498 1.384 . S
C500 C501 1.372 . S
C501 C500 1.372 . S
C501 C502 1.400 . S
C501 C506 1.490 . S
C502 H492 0.930 . S
C502 C501 1.400 . S
C502 C505 1.386 . S
H503 C519 0.930 . S
H504 C520 0.931 . S
C505 H493 0.929 . S
C505 C499 1.390 . S
C505 C502 1.386 . S
C506 C501 1.490 . S
C506 C508 1.395 . S
C506 C509 1.403 . S
H507 C513 0.930 . S
C508 H494 0.930 . S
C508 C506 1.395 . S
C508 C511 1.403 . S
C509 C506 1.403 . S
C509 C510 1.524 . S
C509 C513 1.400 . S
C510 H495 0.960 . S
C510 H496 0.960 . S
C510 H497 0.960 . S
C510 C509 1.524 . S
C511 C508 1.403 . S
C511 C512 1.392 . S
C511 C515 1.495 . S
C512 C511 1.392 . S
C512 C513 1.385 . S
C512 C514 1.478 . S
C513 H507 0.930 . S
C513 C509 1.400 . S
C513 C512 1.385 . S
C514 C512 1.478 . S
C514 C516 1.381 . S
C514 C520 1.383 . S
C515 C511 1.495 . S
C515 H521 0.959 . S
C515 H522 0.961 . S
C515 H523 0.960 . S
C516 C514 1.381 . S
C516 C517 1.394 . S
C516 H524 0.930 . S
C517 C516 1.394 . S
C517 C518 1.383 . S
C517 H525 0.929 . S
C518 C517 1.383 . S
C518 C519 1.377 . S
C519 H503 0.930 . S
C519 C518 1.377 . S
C519 C520 1.379 . S
C520 H504 0.931 . S
C520 C514 1.383 . S
C520 C519 1.379 . S
H521 C515 0.959 . S
H522 C515 0.961 . S
H523 C515 0.960 . S
H524 C516 0.930 . S
H525 C517 0.929 . S
C122 C59 1.372 . S
C103 C4 1.475 . S
C158 C55 1.434 . S
C139 C17 1.481 . S
C194 C80 1.428 . S
C175 C30 1.476 . S
C211 C43 1.477 . S
C230 C76 1.368 . S
C247 C9 1.151 . S
C266 C77 1.109 . S
C302 C92 1.122 . S
C283 C22 1.170 . S
C319 C8 1.785 1_556 S
C338 C93 1.662 . S
C374 C89 1.620 . S
C355 C21 1.797 1_556 S
C410 C56 1.095 1_655 S
C391 C35 1.153 . S
C427 C48 1.172 . S
C446 C71 1.017 . S
C482 C72 1.654 . S
C463 C34 1.783 . S
C518 C68 1.682 . S
C499 C47 1.796 . S
