# Generated by pormake.
# Topology pyr, (3,6)-cn, num edge types: 1
# Building blocks:
#     Node 0, Type 0, BuildingBlock: BELTOD_clean_linker_0, # of connection points: 3
#     Node 1, Type 0, BuildingBlock: BELTOD_clean_linker_0, # of connection points: 3
#     Node 2, Type 0, BuildingBlock: BELTOD_clean_linker_0, # of connection points: 3
#     Node 3, Type 0, BuildingBlock: BELTOD_clean_linker_0, # of connection points: 3
#     Node 4, Type 0, BuildingBlock: BELTOD_clean_linker_0, # of connection points: 3
#     Node 5, Type 0, BuildingBlock: BELTOD_clean_linker_0, # of connection points: 3
#     Node 6, Type 0, BuildingBlock: BELTOD_clean_linker_0, # of connection points: 3
#     Node 7, Type 0, BuildingBlock: BELTOD_clean_linker_0, # of connection points: 3
#     Node 8, Type 1, BuildingBlock: JUFBIX_clean_sbu_0, # of connection points: 6
#     Node 9, Type 1, BuildingBlock: JUFBIX_clean_sbu_0, # of connection points: 6
#     Node 10, Type 1, BuildingBlock: JUFBIX_clean_sbu_0, # of connection points: 6
#     Node 11, Type 1, BuildingBlock: JUFBIX_clean_sbu_0, # of connection points: 6
#     Edge 12, Type (0, 1), BuildingBlock: TEMPAE_clean_linker_10, # of connection points: 2
#     Edge 13, Type (0, 1), BuildingBlock: TEMPAE_clean_linker_10, # of connection points: 2
#     Edge 14, Type (0, 1), BuildingBlock: TEMPAE_clean_linker_10, # of connection points: 2
#     Edge 15, Type (0, 1), BuildingBlock: TEMPAE_clean_linker_10, # of connection points: 2
#     Edge 16, Type (0, 1), BuildingBlock: TEMPAE_clean_linker_10, # of connection points: 2
#     Edge 17, Type (0, 1), BuildingBlock: TEMPAE_clean_linker_10, # of connection points: 2
#     Edge 18, Type (0, 1), BuildingBlock: TEMPAE_clean_linker_10, # of connection points: 2
#     Edge 19, Type (0, 1), BuildingBlock: TEMPAE_clean_linker_10, # of connection points: 2
#     Edge 20, Type (0, 1), BuildingBlock: TEMPAE_clean_linker_10, # of connection points: 2
#     Edge 21, Type (0, 1), BuildingBlock: TEMPAE_clean_linker_10, # of connection points: 2
#     Edge 22, Type (0, 1), BuildingBlock: TEMPAE_clean_linker_10, # of connection points: 2
#     Edge 23, Type (0, 1), BuildingBlock: TEMPAE_clean_linker_10, # of connection points: 2
#     Edge 24, Type (0, 1), BuildingBlock: TEMPAE_clean_linker_10, # of connection points: 2
#     Edge 25, Type (0, 1), BuildingBlock: TEMPAE_clean_linker_10, # of connection points: 2
#     Edge 26, Type (0, 1), BuildingBlock: TEMPAE_clean_linker_10, # of connection points: 2
#     Edge 27, Type (0, 1), BuildingBlock: TEMPAE_clean_linker_10, # of connection points: 2
#     Edge 28, Type (0, 1), BuildingBlock: TEMPAE_clean_linker_10, # of connection points: 2
#     Edge 29, Type (0, 1), BuildingBlock: TEMPAE_clean_linker_10, # of connection points: 2
#     Edge 30, Type (0, 1), BuildingBlock: TEMPAE_clean_linker_10, # of connection points: 2
#     Edge 31, Type (0, 1), BuildingBlock: TEMPAE_clean_linker_10, # of connection points: 2
#     Edge 32, Type (0, 1), BuildingBlock: TEMPAE_clean_linker_10, # of connection points: 2
#     Edge 33, Type (0, 1), BuildingBlock: TEMPAE_clean_linker_10, # of connection points: 2
#     Edge 34, Type (0, 1), BuildingBlock: TEMPAE_clean_linker_10, # of connection points: 2
#     Edge 35, Type (0, 1), BuildingBlock: TEMPAE_clean_linker_10, # of connection points: 2
# Relax obj value: 0.052
# Max RMSD: 0.092
# Mean RMSD: 0.040
data_MOF--net-pyr--node1-JUFBIX_clean_sbu_0--node2-BELTOD_clean_linker_0--edge1-TEMPAE_clean_linker_10
_symmetry_space_group_name_H-M    P1
_symmetry_Int_Tables_number       1
_symmetry_cell_setting            triclinic
loop_
_symmetry_equiv_pos_as_xyz
'x, y, z'
_cell_length_a     43.332557
_cell_length_b     41.385757
_cell_length_c     42.90638
_cell_angle_alpha  85.151723
_cell_angle_beta   90.313983
_cell_angle_gamma 91.612034
loop_
_atom_site_label
_atom_site_type_symbol
_atom_site_fract_x
_atom_site_fract_y
_atom_site_fract_z
_atom_type_partial_charge
P0 P 0.20844 0.18963 0.19958 0.0
H1 H 0.26096 0.21285 0.16162 0.0
H2 H 0.3001 0.18614 0.13353 0.0
H3 H 0.25166 0.09409 0.15429 0.0
H4 H 0.21316 0.12122 0.18385 0.0
H5 H 0.16625 0.23697 0.21924 0.0
H6 H 0.13446 0.27761 0.19083 0.0
H7 H 0.15881 0.24012 0.10363 0.0
H8 H 0.19086 0.19941 0.13233 0.0
H9 H 0.22448 0.17213 0.26493 0.0
H10 H 0.15083 0.14918 0.20185 0.0
O11 O 0.23108 0.21539 0.21785 0.0
H12 H 0.19701 0.14224 0.30824 0.0
H13 H 0.12324 0.11849 0.24543 0.0
C14 C 0.23426 0.16907 0.17515 0.0
C15 C 0.25862 0.18692 0.16 0.0
C16 C 0.28099 0.17151 0.14363 0.0
C17 C 0.27941 0.13771 0.14147 0.0
C18 C 0.25416 0.12 0.15581 0.0
C19 C 0.23186 0.13553 0.17253 0.0
C20 C 0.181 0.21516 0.17798 0.0
C21 C 0.16443 0.23715 0.19403 0.0
C22 C 0.14644 0.26056 0.17773 0.0
C23 C 0.14436 0.2624 0.14491 0.0
C24 C 0.15987 0.23932 0.1289 0.0
C25 C 0.17822 0.21602 0.1453 0.0
C26 C 0.18953 0.16337 0.23014 0.0
C27 C 0.20246 0.16045 0.26027 0.0
C28 C 0.18668 0.14341 0.28514 0.0
C29 C 0.15775 0.12835 0.28041 0.0
C30 C 0.14548 0.12986 0.24984 0.0
C31 C 0.16119 0.14739 0.22493 0.0
P32 P 0.45125 0.92264 0.58318 0.0
H33 H 0.49479 0.9662 0.61345 0.0
H34 H 0.50208 0.9776 0.66815 0.0
H35 H 0.4282 0.90866 0.69521 0.0
H36 H 0.422 0.89661 0.64098 0.0
H37 H 0.42994 0.87981 0.53634 0.0
H38 H 0.43437 0.82167 0.53234 0.0
H39 H 0.49403 0.81561 0.61365 0.0
H40 H 0.48835 0.87346 0.61823 0.0
H41 H 0.42083 0.98196 0.5593 0.0
H42 H 0.39412 0.88358 0.59124 0.0
O43 O 0.47436 0.94607 0.55928 0.0
H44 H 0.36632 0.99565 0.55374 0.0
H45 H 0.33999 0.89665 0.5847 0.0
C46 C 0.45775 0.93069 0.62322 0.0
C47 C 0.48035 0.95344 0.63124 0.0
C48 C 0.48436 0.96005 0.66249 0.0
C49 C 0.46573 0.94404 0.6861 0.0
C50 C 0.44331 0.92106 0.67778 0.0
C51 C 0.43948 0.91438 0.64668 0.0
C52 C 0.45797 0.8807 0.57815 0.0
C53 C 0.44392 0.86591 0.55332 0.0
C54 C 0.44666 0.83268 0.55096 0.0
C55 C 0.46417 0.8138 0.57299 0.0
C56 C 0.47962 0.8292 0.59684 0.0
C57 C 0.47656 0.86238 0.59936 0.0
C58 C 0.41153 0.9316 0.57492 0.0
C59 C 0.40327 0.96314 0.56437 0.0
C60 C 0.37213 0.9709 0.56117 0.0
C61 C 0.34883 0.94722 0.56879 0.0
C62 C 0.35734 0.91554 0.57896 0.0
C63 C 0.38836 0.90792 0.58231 0.0
P64 P 0.70888 0.32467 0.82472 0.0
H65 H 0.76678 0.30325 0.8525 0.0
H66 H 0.80556 0.32887 0.88425 0.0
H67 H 0.74824 0.41245 0.88691 0.0
H68 H 0.70985 0.38683 0.85396 0.0
H69 H 0.67425 0.26855 0.80594 0.0
H70 H 0.64062 0.22777 0.83409 0.0
H71 H 0.65063 0.27846 0.91769 0.0
H72 H 0.68432 0.31945 0.88918 0.0
H73 H 0.72428 0.35771 0.76406 0.0
H74 H 0.64916 0.35638 0.82968 0.0
O75 O 0.72964 0.30299 0.80178 0.0
H76 H 0.69519 0.39276 0.72654 0.0
H77 H 0.61981 0.39169 0.79207 0.0
C78 C 0.73575 0.3434 0.85038 0.0
C79 C 0.76253 0.3271 0.85991 0.0
C80 C 0.78461 0.34172 0.87838 0.0
C81 C 0.7802 0.37286 0.88816 0.0
C82 C 0.7527 0.38871 0.87937 0.0
C83 C 0.73064 0.37405 0.86067 0.0
C84 C 0.6823 0.29657 0.84566 0.0
C85 C 0.6692 0.27093 0.83032 0.0
C86 C 0.65004 0.24759 0.84645 0.0
C87 C 0.64332 0.24963 0.87823 0.0
C88 C 0.6554 0.27623 0.89322 0.0
C89 C 0.67478 0.29955 0.87702 0.0
C90 C 0.68859 0.35389 0.79934 0.0
C91 C 0.70157 0.36513 0.77047 0.0
C92 C 0.6849 0.38509 0.74901 0.0
C93 C 0.65505 0.39456 0.75619 0.0
C94 C 0.64275 0.38474 0.78589 0.0
C95 C 0.65942 0.36448 0.80732 0.0
P96 P 0.90495 0.66713 0.42042 0.0
H97 H 0.9539 0.70984 0.39504 0.0
H98 H 0.99178 0.74385 0.41954 0.0
H99 H 0.96766 0.69637 0.51016 0.0
H100 H 0.92898 0.66281 0.48525 0.0
H101 H 0.87021 0.66229 0.36293 0.0
H102 H 0.88168 0.63942 0.31385 0.0
H103 H 0.97171 0.61269 0.34962 0.0
H104 H 0.9597 0.6351 0.39909 0.0
H105 H 0.86622 0.67298 0.47441 0.0
H106 H 0.89584 0.59614 0.42054 0.0
O107 O 0.88164 0.69809 0.41185 0.0
H108 H 0.82667 0.63672 0.49933 0.0
H109 H 0.85633 0.55959 0.44554 0.0
C110 C 0.93862 0.6839 0.43829 0.0
C111 C 0.95747 0.70597 0.42008 0.0
C112 C 0.97935 0.72532 0.4342 0.0
C113 C 0.98269 0.72306 0.46694 0.0
C114 C 0.96538 0.69901 0.48494 0.0
C115 C 0.94332 0.6797 0.4707 0.0
C116 C 0.91441 0.65104 0.38423 0.0
C117 C 0.89253 0.65179 0.36008 0.0
C118 C 0.89916 0.63882 0.33202 0.0
C119 C 0.92775 0.62463 0.32772 0.0
C120 C 0.94947 0.62344 0.35227 0.0
C121 C 0.94276 0.63643 0.38041 0.0
C122 C 0.88346 0.63748 0.4452 0.0
C123 C 0.86487 0.64797 0.46873 0.0
C124 C 0.84238 0.62709 0.48312 0.0
C125 C 0.83811 0.59538 0.47407 0.0
C126 C 0.85884 0.58403 0.45265 0.0
C127 C 0.88143 0.60495 0.43834 0.0
P128 P 0.84979 0.8715 0.87921 0.0
H129 H 0.82513 0.92864 0.90407 0.0
H130 H 0.77378 0.94376 0.91886 0.0
H131 H 0.73584 0.85456 0.88712 0.0
H132 H 0.78804 0.83923 0.87274 0.0
H133 H 0.90016 0.8326 0.85985 0.0
H134 H 0.91946 0.77988 0.87968 0.0
H135 H 0.84124 0.76551 0.9416 0.0
H136 H 0.82217 0.81865 0.92194 0.0
H137 H 0.87818 0.93223 0.85228 0.0
H138 H 0.84434 0.84272 0.81847 0.0
O139 O 0.87292 0.89147 0.9027 0.0
H140 H 0.89708 0.95058 0.8003 0.0
H141 H 0.86246 0.86135 0.76567 0.0
C142 C 0.81066 0.8824 0.88798 0.0
C143 C 0.80586 0.91219 0.90028 0.0
C144 C 0.77626 0.92101 0.9085 0.0
C145 C 0.75042 0.90043 0.90433 0.0
C146 C 0.75518 0.87085 0.89113 0.0
C147 C 0.785 0.86206 0.88279 0.0
C148 C 0.85905 0.8293 0.88848 0.0
C149 C 0.88657 0.81777 0.87698 0.0
C150 C 0.89785 0.78774 0.88866 0.0
C151 C 0.88193 0.76848 0.91227 0.0
C152 C 0.85385 0.77957 0.92314 0.0
C153 C 0.84277 0.8099 0.91169 0.0
C154 C 0.86031 0.88583 0.83947 0.0
C155 C 0.87453 0.91658 0.83354 0.0
C156 C 0.88516 0.9272 0.80356 0.0
C157 C 0.88154 0.90747 0.77853 0.0
C158 C 0.86621 0.87703 0.78437 0.0
C159 C 0.8556 0.86639 0.81453 0.0
P160 P 0.63666 0.17997 0.39018 0.0
H161 H 0.65999 0.23438 0.4223 0.0
H162 H 0.63467 0.2765 0.44854 0.0
H163 H 0.54595 0.2303 0.43292 0.0
H164 H 0.57151 0.18783 0.40696 0.0
H165 H 0.66535 0.12064 0.37585 0.0
H166 H 0.70298 0.0862 0.40367 0.0
H167 H 0.69721 0.14287 0.48334 0.0
H168 H 0.65898 0.17699 0.45563 0.0
H169 H 0.61199 0.19767 0.32823 0.0
H170 H 0.6016 0.11794 0.39918 0.0
O171 O 0.66156 0.2014 0.36655 0.0
H172 H 0.58202 0.16731 0.29176 0.0
H173 H 0.57128 0.08721 0.36269 0.0
C174 C 0.61762 0.20819 0.41256 0.0
C175 C 0.63513 0.23303 0.42496 0.0
C176 C 0.62067 0.25696 0.44006 0.0
C177 C 0.58837 0.2566 0.4427 0.0
C178 C 0.57088 0.23115 0.43101 0.0
C179 C 0.58547 0.20692 0.41622 0.0
C180 C 0.65904 0.15117 0.41372 0.0
C181 C 0.67135 0.12504 0.3997 0.0
C182 C 0.69283 0.10531 0.41564 0.0
C183 C 0.7029 0.11183 0.4457 0.0
C184 C 0.68978 0.13736 0.46019 0.0
C185 C 0.66792 0.15687 0.44431 0.0
C186 C 0.60984 0.15955 0.36592 0.0
C187 C 0.60281 0.17377 0.33609 0.0
C188 C 0.58536 0.15648 0.31537 0.0
C189 C 0.57452 0.1247 0.32427 0.0
C190 C 0.5797 0.11147 0.35507 0.0
C191 C 0.59706 0.12894 0.37587 0.0
P192 P 0.35116 0.63678 0.16571 0.0
H193 H 0.31249 0.66139 0.11365 0.0
H194 H 0.25906 0.64963 0.09904 0.0
H195 H 0.24671 0.58926 0.18544 0.0
H196 H 0.30026 0.60099 0.19984 0.0
H197 H 0.41418 0.66016 0.15581 0.0
H198 H 0.43748 0.71337 0.14034 0.0
H199 H 0.34706 0.75516 0.13877 0.0
H200 H 0.32426 0.70206 0.15615 0.0
H201 H 0.39678 0.59133 0.19171 0.0
H202 H 0.33049 0.65484 0.22689 0.0
O203 O 0.3677 0.61247 0.14196 0.0
H204 H 0.41352 0.57517 0.24478 0.0
H205 H 0.34662 0.63802 0.28066 0.0
C206 C 0.31018 0.63304 0.15835 0.0
C207 C 0.29802 0.64647 0.12995 0.0
C208 C 0.26743 0.63964 0.12156 0.0
C209 C 0.24853 0.6186 0.14113 0.0
C210 C 0.26067 0.6055 0.16981 0.0
C211 C 0.29125 0.61252 0.17824 0.0
C212 C 0.36742 0.67696 0.15621 0.0
C213 C 0.39941 0.68085 0.15227 0.0
C214 C 0.41267 0.71131 0.14317 0.0
C215 C 0.39416 0.73863 0.13759 0.0
C216 C 0.36212 0.7348 0.14285 0.0
C217 C 0.34893 0.70428 0.15242 0.0
C218 C 0.36196 0.62384 0.20538 0.0
C219 C 0.38544 0.60145 0.21093 0.0
C220 C 0.39493 0.59209 0.24142 0.0
C221 C 0.3812 0.60496 0.26714 0.0
C222 C 0.35779 0.6277 0.26144 0.0
C223 C 0.34838 0.63717 0.23077 0.0
P224 P 0.10914 0.35938 0.62286 0.0
H225 H 0.12031 0.31815 0.57328 0.0
H226 H 0.08727 0.2799 0.54775 0.0
H227 H 1.00761 0.31485 0.59347 0.0
H228 H 0.04111 0.35327 0.61914 0.0
H229 H 0.149 0.40919 0.64599 0.0
H230 H 0.18728 0.44659 0.62089 0.0
H231 H 0.15926 0.41713 0.53055 0.0
H232 H 0.12009 0.38011 0.55587 0.0
H233 H 0.08772 0.32483 0.68078 0.0
H234 H 0.08664 0.42277 0.63776 0.0
O235 O 0.13474 0.33238 0.63675 0.0
H236 H 0.06824 0.34326 0.72935 0.0
H237 H 0.069 0.44181 0.68666 0.0
C238 C 0.08323 0.33833 0.59822 0.0
C239 C 0.09561 0.31833 0.57704 0.0
C240 C 0.07659 0.29655 0.56231 0.0
C241 C 0.04476 0.29421 0.56869 0.0
C242 C 0.03207 0.31592 0.58831 0.0
C243 C 0.05121 0.33793 0.60294 0.0
C244 C 0.13139 0.39209 0.60286 0.0
C245 C 0.15013 0.41167 0.62069 0.0
C246 C 0.17201 0.43316 0.60627 0.0
C247 C 0.17614 0.43491 0.57372 0.0
C248 C 0.15644 0.41631 0.55567 0.0
C249 C 0.13411 0.39509 0.57017 0.0
C250 C 0.08964 0.37263 0.65617 0.0
C251 C 0.08318 0.35032 0.68181 0.0
C252 C 0.07225 0.36094 0.70961 0.0
C253 C 0.06781 0.39415 0.71223 0.0
C254 C 0.07213 0.41607 0.68557 0.0
C255 C 0.0826 0.40528 0.65763 0.0
Co256 Co 0.99385 0.00708 0.51048 0.0
C257 C 0.0235 0.94784 0.51247 0.0
Co258 Co 0.03797 0.00572 0.53599 0.0
C259 C 0.92981 0.01761 0.49677 0.0
C260 C 0.95235 0.99498 0.46036 0.0
N261 N 0.95723 0.00633 0.48857 0.0
N262 N 0.90804 0.01399 0.47467 0.0
C263 C 0.92212 0.99978 0.45168 0.0
H264 H 0.92615 0.02914 0.51812 0.0
H265 H 0.96977 0.98426 0.44684 0.0
C266 C 0.0085 0.06509 0.53383 0.0
N267 N 0.07465 0.0066 0.55785 0.0
C268 C 0.10232 0.9964 0.54909 0.0
C269 C 0.07984 0.01903 0.58552 0.0
N270 N 0.12467 1.00216 0.57009 0.0
C271 C 0.1106 0.01638 0.59309 0.0
C272 C 0.04446 0.02618 0.47255 0.0
O273 O 0.98757 0.05067 0.51899 0.0
O274 O 0.03222 0.04965 0.54314 0.0
O275 O 0.05941 0.01958 0.4978 0.0
O276 O 0.01523 0.0225 0.47291 0.0
O277 O 0.0436 0.96173 0.52877 0.0
H278 H 0.06243 0.02968 0.5991 0.0
H279 H 0.1061 0.98572 0.52731 0.0
O280 O 1.00037 0.96361 0.50201 0.0
O281 O 0.97255 0.99176 0.54822 0.0
O282 O 0.01632 0.99191 0.57392 0.0
C283 C 0.98722 0.98681 0.57387 0.0
H284 H 0.91137 0.99343 0.43012 0.0
H285 H 0.12168 0.02416 0.61396 0.0
Co286 Co 0.49295 1.00308 0.99694 0.0
C287 C 0.48592 0.95266 0.04403 0.0
Co288 Co 0.52025 0.01007 0.03936 0.0
C289 C 0.48001 0.99805 0.93195 0.0
C290 C 0.44019 0.98603 0.96034 0.0
N291 N 0.46993 0.99624 0.96173 0.0
N292 N 0.45788 0.98901 0.91193 0.0
C293 C 0.4327 0.98157 0.92976 0.0
H294 H 0.50336 0.00542 0.92525 0.0
H295 H 0.42523 0.98116 0.98039 0.0
C296 C 0.52743 0.06052 0.99234 0.0
N297 N 0.5438 0.01696 0.07442 0.0
C298 C 0.53424 0.02134 0.10362 0.0
C299 C 0.57473 0.02146 0.07527 0.0
N300 N 0.55794 0.02876 0.12253 0.0
C301 C 0.58348 0.0286 0.10476 0.0
C302 C 0.55224 0.97817 0.9951 0.0
O303 O 0.50791 0.04379 0.97782 0.0
O304 O 0.53583 0.05009 0.0197 0.0
O305 O 0.55384 0.9881 0.02229 0.0
O306 O 0.52728 0.98203 0.97969 0.0
O307 O 0.50468 0.96992 0.05893 0.0
H308 H 0.58994 0.02074 0.05546 0.0
H309 H 0.51022 0.02062 0.11048 0.0
O310 O 0.47817 0.96257 0.01631 0.0
O311 O 0.45879 0.02398 0.01427 0.0
O312 O 0.48628 0.03208 0.05598 0.0
C313 C 0.46093 0.03496 0.04104 0.0
H314 H 0.4108 0.97225 0.92159 0.0
H315 H 0.60681 0.03395 0.11229 0.0
Co316 Co 0.52765 0.53284 0.51866 0.0
C317 C 0.47787 0.53892 0.47713 0.0
Co318 Co 0.48349 0.51345 0.53857 0.0
C319 C 0.59324 0.54183 0.50782 0.0
C320 C 0.56662 0.57749 0.48152 0.0
N321 N 0.56397 0.55086 0.50178 0.0
N322 N 0.61409 0.56196 0.49229 0.0
C323 C 0.5973 0.58429 0.47555 0.0
H324 H 0.59912 0.52145 0.52403 0.0
H325 H 0.54747 0.59145 0.47206 0.0
C326 C 0.53327 0.50696 0.57998 0.0
N327 N 0.44723 0.49536 0.55528 0.0
C328 C 0.41804 0.50488 0.54973 0.0
C329 C 0.44443 0.46759 0.57396 0.0
N330 N 0.39707 0.48401 0.56411 0.0
C331 C 0.41369 0.46057 0.57944 0.0
C332 C 0.51803 0.46863 0.50967 0.0
O333 O 0.54826 0.5209 0.55704 0.0
O334 O 0.50439 0.50184 0.57703 0.0
O335 O 0.49321 0.47267 0.5243 0.0
O336 O 0.53687 0.49247 0.50421 0.0
O337 O 0.46288 0.525 0.50006 0.0
H338 H 0.46347 0.45276 0.58215 0.0
H339 H 0.41232 0.52642 0.53499 0.0
O340 O 0.50664 0.54451 0.4803 0.0
O341 O 0.51842 0.57309 0.53324 0.0
O342 O 0.47401 0.55445 0.55263 0.0
C343 C 0.49357 0.57776 0.54751 0.0
H344 H 0.60643 0.60423 0.46007 0.0
H345 H 0.40434 0.43907 0.59257 0.0
Co346 Co 0.01779 0.50712 1.00043 0.0
C347 C 0.95942 0.47764 0.99804 0.0
Co348 Co 0.9919 0.50729 0.04429 0.0
C349 C 0.03787 0.48571 0.94224 0.0
C350 C 0.05457 0.53383 0.94873 0.0
N351 N 0.03856 0.50843 0.96297 0.0
N352 N 0.05236 0.49605 0.9153 0.0
C353 C 0.0631 0.52631 0.91944 0.0
H354 H 0.0262 0.46233 0.94664 0.0
H355 H 0.05856 0.55687 0.95847 0.0
C356 C 0.05037 0.53674 0.04658 0.0
N357 N 0.97087 0.50594 0.08161 0.0
C358 C 0.9715 0.52831 0.10269 0.0
C359 C 0.95287 0.48131 0.09451 0.0
N360 N 0.95472 0.51858 0.12835 0.0
C361 C 0.94282 0.48906 0.12322 0.0
C362 C 0.02918 0.45309 0.04097 0.0
O363 O 0.05129 0.52995 0.01827 0.0
O364 O 0.02625 0.52894 0.06251 0.0
O365 O 0.00953 0.46627 0.05744 0.0
O366 O 0.0365 0.46703 0.01435 0.0
O367 O 0.95773 0.48577 0.02585 0.0
H368 H 0.94799 0.45884 0.08405 0.0
H369 H 0.98424 0.55121 0.09935 0.0
O370 O 0.98415 0.48417 0.98277 0.0
O371 O 0.99898 0.54719 0.98667 0.0
O372 O 0.97439 0.54832 0.03099 0.0
C373 C 0.98052 0.56129 1.00369 0.0
H374 H 0.07491 0.54255 0.90203 0.0
H375 H 0.92877 0.47369 0.13951 0.0
C376 C 0.13688 0.12846 0.33488 0.0
C377 C 0.14021 0.11231 0.30766 0.0
C378 C 0.12093 0.11383 0.3611 0.0
C379 C 0.10834 0.08191 0.36047 0.0
C380 C 0.11164 0.06543 0.33304 0.0
C381 C 0.12724 0.08094 0.30687 0.0
C382 C 0.11747 0.13264 0.38949 0.0
C383 C 0.09904 0.03124 0.33149 0.0
C384 C 0.09267 0.03604 0.44022 0.0
C385 C 0.06067 0.03907 0.44335 0.0
C386 C 0.10829 0.04896 0.41304 0.0
C387 C 0.0917 0.066 0.38855 0.0
C388 C 0.05937 0.06899 0.39155 0.0
C389 C 0.04425 0.05524 0.41869 0.0
C390 C 0.14265 0.04466 0.41066 0.0
C391 C 0.04081 0.08745 0.36642 0.0
H392 H 0.1465 0.15286 0.33553 0.0
H393 H 0.12991 0.06824 0.28601 0.0
H394 H 0.09265 0.13449 0.39514 0.0
H395 H 0.12863 0.11967 0.41004 0.0
H396 H 0.12788 0.15751 0.38598 0.0
H397 H 0.10374 0.02161 0.30864 0.0
H398 H 0.10946 0.01502 0.35037 0.0
H399 H 0.07374 0.0304 0.33538 0.0
H400 H 0.10556 0.02344 0.45903 0.0
H401 H 0.01956 0.0579 0.42091 0.0
H402 H 0.15483 0.06865 0.40968 0.0
H403 H 0.14808 0.03359 0.38873 0.0
H404 H 0.15187 0.02914 0.43078 0.0
H405 H 0.0493 0.11307 0.36344 0.0
H406 H 0.01579 0.08707 0.37197 0.0
H407 H 0.04384 0.07703 0.34369 0.0
C408 C 0.47311 0.98392 0.72666 0.0
C409 C 0.46885 0.95171 0.71922 0.0
C410 C 0.47359 0.99164 0.75789 0.0
C411 C 0.46938 0.96661 0.7822 0.0
C412 C 0.46598 0.93399 0.7749 0.0
C413 C 0.46597 0.92693 0.74353 0.0
C414 C 0.47763 0.02667 0.76484 0.0
C415 C 0.46138 0.90661 0.80018 0.0
C416 C 0.49015 0.97978 0.86632 0.0
C417 C 0.46114 0.98533 0.87898 0.0
C418 C 0.49336 0.97453 0.83464 0.0
C419 C 0.46689 0.97453 0.8152 0.0
C420 C 0.43765 0.98069 0.82764 0.0
C421 C 0.43517 0.98616 0.85932 0.0
C422 C 0.52495 0.96822 0.82216 0.0
C423 C 0.40885 0.98078 0.80764 0.0
H424 H 0.47507 1.00326 0.70804 0.0
H425 H 0.46332 0.90192 0.73801 0.0
H426 H 0.45613 0.03489 0.77525 0.0
H427 H 0.4964 0.02929 0.78222 0.0
H428 H 0.4831 0.04291 0.74352 0.0
H429 H 0.46023 0.88247 0.79065 0.0
H430 H 0.48049 0.90689 0.81747 0.0
H431 H 0.43963 0.9099 0.81293 0.0
H432 H 0.51033 0.97862 0.88131 0.0
H433 H 0.41278 0.99095 0.86873 0.0
H434 H 0.53018 0.98514 0.80129 0.0
H435 H 0.52542 0.94324 0.81465 0.0
H436 H 0.54345 0.97097 0.83986 0.0
H437 H 0.41169 0.99858 0.78697 0.0
H438 H 0.388 0.98684 0.82068 0.0
H439 H 0.40496 0.95654 0.79881 0.0
C440 C 0.63459 0.40301 0.70163 0.0
C441 C 0.63636 0.41307 0.732 0.0
C442 C 0.61709 0.41985 0.67829 0.0
C443 C 0.60117 0.44774 0.68533 0.0
C444 C 0.60288 0.4581 0.71596 0.0
C445 C 0.62028 0.44047 0.73903 0.0
C446 C 0.61551 0.40765 0.64609 0.0
C447 C 0.58655 0.48793 0.72424 0.0
C448 C 0.58049 0.50387 0.61398 0.0
C449 C 0.54962 0.49457 0.60882 0.0
C450 C 0.59712 0.48995 0.63968 0.0
C451 C 0.58271 0.46576 0.66046 0.0
C452 C 0.55127 0.45701 0.65591 0.0
C453 C 0.53506 0.47168 0.63029 0.0
C454 C 0.63046 0.5003 0.64395 0.0
C455 C 0.53515 0.43104 0.67725 0.0
H456 H 0.6466 0.38155 0.69622 0.0
H457 H 0.62174 0.44841 0.76244 0.0
H458 H 0.59113 0.4024 0.63975 0.0
H459 H 0.62467 0.4266 0.62846 0.0
H460 H 0.62885 0.38531 0.64457 0.0
H461 H 0.59035 0.49293 0.74903 0.0
H462 H 0.59479 0.50935 0.70894 0.0
H463 H 0.56137 0.48497 0.72011 0.0
H464 H 0.59187 0.52167 0.5976 0.0
H465 H 0.51125 0.46425 0.62643 0.0
H466 H 0.64561 0.47991 0.63989 0.0
H467 H 0.63456 0.50659 0.66829 0.0
H468 H 0.63737 0.5215 0.62761 0.0
H469 H 0.54593 0.40736 0.67492 0.0
H470 H 0.51014 0.42858 0.67182 0.0
H471 H 0.5378 0.43648 0.70201 0.0
C472 C 0.94815 0.5803 0.29803 0.0
C473 C 0.93443 0.61059 0.2979 0.0
C474 C 0.95289 0.56592 0.27007 0.0
C475 C 0.94361 0.58223 0.24136 0.0
C476 C 0.93044 0.61315 0.24099 0.0
C477 C 0.92606 0.62698 0.26929 0.0
C478 C 0.96706 0.53291 0.27131 0.0
C479 C 0.92035 0.63128 0.2108 0.0
C480 C 0.97579 0.55545 0.16591 0.0
C481 C 0.9517 0.53524 0.15622 0.0
C482 C 0.9735 0.57101 0.19357 0.0
C483 C 0.9464 0.56629 0.21184 0.0
C484 C 0.92189 0.54618 0.20202 0.0
C485 C 0.92487 0.53084 0.17435 0.0
C486 C 1.00017 0.59216 0.20342 0.0
C487 C 0.89254 0.54078 0.2208 0.0
H488 H 0.95438 0.56738 0.3201 0.0
H489 H 0.9159 0.65065 0.26904 0.0
H490 H 0.95004 0.515 0.26301 0.0
H491 H 0.98728 0.53357 0.2555 0.0
H492 H 0.97458 0.5243 0.29531 0.0
H493 H 0.91159 0.65565 0.21445 0.0
H494 H 0.93991 0.63424 0.19413 0.0
H495 H 0.90182 0.61714 0.19969 0.0
H496 H 0.99676 0.55853 0.15223 0.0
H497 H 0.90608 0.51557 0.16671 0.0
H498 H 0.00903 0.58249 0.22656 0.0
H499 H 0.99227 0.61706 0.20599 0.0
H500 H 0.01947 0.5936 0.18637 0.0
H501 H 0.89791 0.52988 0.24466 0.0
H502 H 0.87557 0.5246 0.20979 0.0
H503 H 0.88164 0.56434 0.2234 0.0
C504 C 0.31987 0.13706 0.09915 0.0
C505 C 0.30458 0.12125 0.12525 0.0
C506 C 0.345 0.12309 0.08512 0.0
C507 C 0.35495 0.09208 0.09687 0.0
C508 C 0.33911 0.07548 0.12254 0.0
C509 C 0.31439 0.0903 0.13653 0.0
C510 C 0.36125 0.14183 0.05797 0.0
C511 C 0.34857 0.04218 0.13556 0.0
C512 C 0.40404 0.04527 0.0431 0.0
C513 C 0.43393 0.04996 0.05505 0.0
C514 C 0.37817 0.0584 0.05669 0.0
C515 C 0.38219 0.07729 0.08256 0.0
C516 C 0.41236 0.08236 0.09453 0.0
C517 C 0.43775 0.06841 0.08087 0.0
C518 C 0.34646 0.05181 0.04351 0.0
C519 C 0.41788 0.10275 0.1217 0.0
H520 H 0.31228 0.16058 0.0896 0.0
H521 H 0.30326 0.07784 0.15684 0.0
H522 H 0.38595 0.14587 0.06387 0.0
H523 H 0.36042 0.12764 0.03716 0.0
H524 H 0.35085 0.16574 0.05165 0.0
H525 H 0.33289 0.03167 0.1544 0.0
H526 H 0.34878 0.02548 0.11665 0.0
H527 H 0.37236 0.0435 0.14514 0.0
H528 H 0.40074 0.03082 0.02336 0.0
H529 H 0.46071 0.07224 0.09028 0.0
H530 H 0.33575 0.07498 0.0351 0.0
H531 H 0.33133 0.03989 0.06211 0.0
H532 H 0.3471 0.03605 0.02382 0.0
H533 H 0.40925 0.12752 0.1158 0.0
H534 H 0.44271 0.1047 0.12806 0.0
H535 H 0.40487 0.09214 0.14246 0.0
C536 C 0.29575 0.94362 0.5916 0.0
C537 C 0.31576 0.9557 0.56751 0.0
C538 C 0.26447 0.9513 0.59099 0.0
C539 C 0.25294 0.97181 0.56581 0.0
C540 C 0.27296 0.98419 0.54142 0.0
C541 C 0.30418 0.97594 0.54254 0.0
C542 C 0.24382 0.93765 0.61745 0.0
C543 C 0.26141 0.00618 0.51423 0.0
C544 C 0.1663 0.96851 0.55272 0.0
C545 C 0.15691 0.99515 0.56809 0.0
C546 C 0.19758 0.96096 0.55126 0.0
C547 C 0.21996 0.98062 0.5654 0.0
C548 C 0.21069 0.00789 0.58043 0.0
C549 C 0.17925 0.01477 0.58166 0.0
C550 C 0.20661 0.93153 0.53524 0.0
C551 C 0.23394 0.02954 0.59559 0.0
H552 H 0.30466 0.92846 0.61126 0.0
H553 H 0.31947 0.98509 0.52372 0.0
H554 H 0.23416 0.95772 0.62956 0.0
H555 H 0.22407 0.92378 0.60809 0.0
H556 H 0.25627 0.92141 0.6349 0.0
H557 H 0.27995 0.01369 0.49713 0.0
H558 H 0.24254 0.9937 0.50195 0.0
H559 H 0.25168 0.02826 0.52288 0.0
H560 H 0.14909 0.9531 0.54249 0.0
H561 H 0.17215 0.03569 0.59307 0.0
H562 H 0.21722 0.91362 0.55248 0.0
H563 H 0.22415 0.93847 0.51698 0.0
H564 H 0.18654 0.91961 0.52421 0.0
H565 H 0.24599 0.0154 0.61488 0.0
H566 H 0.22305 0.05054 0.60522 0.0
H567 H 0.25173 0.03881 0.57834 0.0
C568 C 0.81203 0.4221 0.90042 0.0
C569 C 0.80473 0.38889 0.90655 0.0
C570 C 0.83644 0.43697 0.91612 0.0
C571 C 0.85425 0.41818 0.9383 0.0
C572 C 0.84668 0.38484 0.94504 0.0
C573 C 0.82194 0.37069 0.92928 0.0
C574 C 0.84358 0.47267 0.9085 0.0
C575 C 0.86512 0.36393 0.96846 0.0
C576 C 0.9361 0.4483 0.95451 0.0
C577 C 0.93268 0.46173 0.98321 0.0
C578 C 0.91084 0.43388 0.93978 0.0
C579 C 0.8813 0.43318 0.95387 0.0
C580 C 0.87769 0.44672 0.98282 0.0
C581 C 0.90344 0.46063 0.99724 0.0
C582 C 0.91578 0.41936 0.90913 0.0
C583 C 0.84654 0.44683 0.99841 0.0
H584 H 0.79922 0.43636 0.88267 0.0
H585 H 0.81617 0.34519 0.93468 0.0
H586 H 0.84391 0.48546 0.93021 0.0
H587 H 0.86686 0.47605 0.89789 0.0
H588 H 0.82652 0.48427 0.89201 0.0
H589 H 0.85598 0.33851 0.97142 0.0
H590 H 0.88952 0.36373 0.96079 0.0
H591 H 0.86502 0.37414 0.99154 0.0
H592 H 0.95862 0.44896 0.94354 0.0
H593 H 0.90055 0.47112 0.01932 0.0
H594 H 0.90115 0.43154 0.89064 0.0
H595 H 0.90872 0.39329 0.91138 0.0
H596 H 0.94024 0.42161 0.90141 0.0
H597 H 0.82992 0.45999 0.98257 0.0
H598 H 0.84757 0.45844 0.02082 0.0
H599 H 0.83733 0.42162 1.0031 0.0
C600 C 0.79629 0.57723 0.51238 0.0
C601 C 0.80895 0.57708 0.48238 0.0
C602 C 0.76526 0.56797 0.51797 0.0
C603 C 0.74656 0.55878 0.49286 0.0
C604 C 0.76011 0.5553 0.46345 0.0
C605 C 0.7912 0.56443 0.45858 0.0
C606 C 0.75185 0.5711 0.54992 0.0
C607 C 0.74104 0.54552 0.43604 0.0
C608 C 0.66223 0.53177 0.50237 0.0
C609 C 0.64731 0.56098 0.49415 0.0
C610 C 0.69463 0.53066 0.50321 0.0
C611 C 0.7124 0.55934 0.49526 0.0
C612 C 0.69746 0.58898 0.4877 0.0
C613 C 0.6652 0.58944 0.48745 0.0
C614 C 0.70976 0.4987 0.51176 0.0
C615 C 0.71553 0.62023 0.47913 0.0
H616 H 0.8101 0.58647 0.53099 0.0
H617 H 0.80071 0.56439 0.43527 0.0
H618 H 0.73899 0.59393 0.54952 0.0
H619 H 0.73536 0.55072 0.55656 0.0
H620 H 0.77014 0.57173 0.56813 0.0
H621 H 0.75571 0.53888 0.41653 0.0
H622 H 0.72526 0.5247 0.4432 0.0
H623 H 0.72661 0.56609 0.42722 0.0
H624 H 0.64865 0.50961 0.50746 0.0
H625 H 0.65399 0.61227 0.48194 0.0
H626 H 0.72872 0.5017 0.52885 0.0
H627 H 0.72011 0.48989 0.49057 0.0
H628 H 0.69303 0.47987 0.52182 0.0
H629 H 0.73159 0.62553 0.49837 0.0
H630 H 0.70035 0.64127 0.4743 0.0
H631 H 0.72967 0.61774 0.45802 0.0
C632 C 0.10638 0.28318 0.10355 0.0
C633 C 0.12723 0.28927 0.12766 0.0
C634 C 0.08959 0.30846 0.08794 0.0
C635 C 0.0941 0.34073 0.09622 0.0
C636 C 0.11559 0.34703 0.12013 0.0
C637 C 0.13167 0.32129 0.13562 0.0
C638 C 0.06664 0.30056 0.06292 0.0
C639 C 0.12159 0.38103 0.12944 0.0
C640 C 0.07165 0.41289 0.0399 0.0
C641 C 0.04449 0.42285 0.05353 0.0
C642 C 0.08768 0.38586 0.05312 0.0
C643 C 0.07611 0.36796 0.08042 0.0
C644 C 0.04814 0.37726 0.09363 0.0
C645 C 0.03284 0.40465 0.08022 0.0
C646 C 0.11758 0.37715 0.03846 0.0
C647 C 0.03468 0.35868 0.12242 0.0
H648 H 0.10268 0.25851 0.09737 0.0
H649 H 0.14807 0.3263 0.15389 0.0
H650 H 0.0432 0.3075 0.06966 0.0
H651 H 0.07246 0.31481 0.04056 0.0
H652 H 0.066 0.27437 0.05895 0.0
H653 H 0.13973 0.38205 0.14776 0.0
H654 H 0.12886 0.39727 0.10872 0.0
H655 H 0.10005 0.39071 0.13841 0.0
H656 H 0.08095 0.42681 0.01938 0.0
H657 H 0.01181 0.41199 0.09087 0.0
H658 H 0.11669 0.35134 0.03325 0.0
H659 H 0.13689 0.38013 0.05516 0.0
H660 H 0.12276 0.39247 0.01649 0.0
H661 H 0.03235 0.33249 0.1188 0.0
H662 H 0.01169 0.36752 0.12852 0.0
H663 H 0.05047 0.361 0.1426 0.0
C664 C 0.63111 0.19077 0.8923 0.0
C665 C 0.62478 0.22333 0.89574 0.0
C666 C 0.61405 0.16543 0.90851 0.0
C667 C 0.58984 0.17274 0.92857 0.0
C668 C 0.58322 0.20557 0.93211 0.0
C669 C 0.6009 0.2305 0.91579 0.0
C670 C 0.62216 0.13079 0.90437 0.0
C671 C 0.55742 0.21433 0.95305 0.0
C672 C 0.53112 0.10391 0.94781 0.0
C673 C 0.54163 0.09084 0.97708 0.0
C674 C 0.54586 0.13134 0.93227 0.0
C675 C 0.57195 0.14585 0.94614 0.0
C676 C 0.58217 0.13326 0.97602 0.0
C677 C 0.56683 0.10604 0.99116 0.0
C678 C 0.53405 0.14424 0.9006 0.0
C679 C 0.61004 0.14781 0.99152 0.0
H680 H 0.64983 0.18508 0.8772 0.0
H681 H 0.59577 0.25562 0.91834 0.0
H682 H 0.62855 0.11825 0.92728 0.0
H683 H 0.60183 0.11747 0.89546 0.0
H684 H 0.64163 0.12922 0.88788 0.0
H685 H 0.55488 0.24098 0.95289 0.0
H686 H 0.53526 0.20335 0.94547 0.0
H687 H 0.56175 0.20431 0.97743 0.0
H688 H 0.5116 0.09242 0.93681 0.0
H689 H 0.57517 0.09613 0.01374 0.0
H690 H 0.55157 0.14085 0.88249 0.0
H691 H 0.53019 0.17065 0.90028 0.0
H692 H 0.51214 0.13186 0.89412 0.0
H693 H 0.6309 0.14485 0.97727 0.0
H694 H 0.61403 0.13629 0.01548 0.0
H695 H 0.60724 0.1742 0.9929 0.0
C696 C 0.02634 0.76419 0.46789 0.0
C697 C 0.99971 0.7494 0.48188 0.0
C698 C 0.03707 0.79475 0.4758 0.0
C699 C 0.02093 0.81059 0.49841 0.0
C700 C 0.99654 0.79398 0.51536 0.0
C701 C 0.9861 0.76363 0.50679 0.0
C702 C 0.06355 0.81141 0.4576 0.0
C703 C 0.97909 0.80977 0.54012 0.0
C704 C 0.04554 0.89285 0.52492 0.0
C705 C 0.02585 0.91329 0.50681 0.0
C706 C 0.04527 0.85931 0.52172 0.0
C707 C 0.02495 0.84619 0.49982 0.0
C708 C 1.00621 0.86704 0.48043 0.0
C709 C 1.00682 0.90027 0.48426 0.0
C710 C 0.06557 0.83787 0.54277 0.0
C711 C 0.98449 0.85411 0.45645 0.0
H712 H 0.03751 0.75293 0.44919 0.0
H713 H 0.96551 0.75257 0.5178 0.0
H714 H 0.05427 0.82914 0.4393 0.0
H715 H 0.07884 0.82501 0.47302 0.0
H716 H 0.07752 0.79385 0.44594 0.0
H717 H 0.96458 0.79188 0.55469 0.0
H718 H 0.99522 0.82223 0.55562 0.0
H719 H 0.96379 0.82834 0.52867 0.0
H720 H 0.06033 0.90282 0.54239 0.0
H721 H 0.99184 0.91602 0.46993 0.0
H722 H 0.07663 0.81948 0.52948 0.0
H723 H 0.05122 0.82463 0.56129 0.0
H724 H 0.08385 0.85211 0.55422 0.0
H725 H 0.9972 0.83922 0.44074 0.0
H726 H 0.97301 0.87381 0.44192 0.0
H727 H 0.96637 0.83821 0.46842 0.0
C728 C 0.46572 0.75709 0.59869 0.0
C729 C 0.46613 0.77819 0.57127 0.0
C730 C 0.46834 0.72351 0.59747 0.0
C731 C 0.47104 0.71069 0.56811 0.0
C732 C 0.47063 0.7317 0.54031 0.0
C733 C 0.46841 0.7652 0.54224 0.0
C734 C 0.46896 0.70185 0.6276 0.0
C735 C 0.4733 0.71887 0.50853 0.0
C736 C 0.51214 0.63245 0.56013 0.0
C737 C 0.48739 0.61055 0.55649 0.0
C738 C 0.50705 0.66479 0.56532 0.0
C739 C 0.47643 0.67563 0.56635 0.0
C740 C 0.45128 0.65339 0.56374 0.0
C741 C 0.45708 0.62091 0.5591 0.0
C742 C 0.53448 0.68762 0.56859 0.0
C743 C 0.41833 0.6642 0.56439 0.0
H744 H 0.46333 0.76682 0.62119 0.0
H745 H 0.46913 0.78128 0.52096 0.0
H746 H 0.45093 0.68232 0.62716 0.0
H747 H 0.49157 0.68996 0.63013 0.0
H748 H 0.46523 0.71545 0.64843 0.0
H749 H 0.47032 0.7381 0.48915 0.0
H750 H 0.4963 0.70822 0.50619 0.0
H751 H 0.4557 0.69928 0.50593 0.0
H752 H 0.53563 0.62439 0.55841 0.0
H753 H 0.43792 0.60403 0.55611 0.0
H754 H 0.53224 0.70064 0.58999 0.0
H755 H 0.53532 0.70616 0.54833 0.0
H756 H 0.55668 0.67477 0.56975 0.0
H757 H 0.41437 0.67758 0.58528 0.0
H758 H 0.40145 0.64348 0.56455 0.0
H759 H 0.41383 0.68111 0.54349 0.0
C760 C 0.89406 0.95123 0.73538 0.0
C761 C 0.89461 0.91842 0.74692 0.0
C762 C 0.90817 0.96232 0.70682 0.0
C763 C 0.92306 0.94012 0.68894 0.0
C764 C 0.92298 0.90683 0.69995 0.0
C765 C 0.90891 0.89643 0.72875 0.0
C766 C 0.90763 0.998 0.69607 0.0
C767 C 0.93838 0.88226 0.6816 0.0
C768 C 0.93933 0.96552 0.60267 0.0
C769 C 0.97072 0.97495 0.60326 0.0
C770 C 0.92361 0.95392 0.63022 0.0
C771 C 0.9395 0.9519 0.65927 0.0
C772 C 0.97114 0.96152 0.66002 0.0
C773 C 0.98635 0.97275 0.6321 0.0
C774 C 0.88999 0.94373 0.62824 0.0
C775 C 0.98896 0.96008 0.69043 0.0
H776 H 0.88263 0.96843 0.74877 0.0
H777 H 0.9099 0.87113 0.73743 0.0
H778 H 0.93159 0.00815 0.69421 0.0
H779 H 0.89706 1.00146 0.67246 0.0
H780 H 0.89456 0.01206 0.71227 0.0
H781 H 0.9349 0.85708 0.69241 0.0
H782 H 0.9292 0.88353 0.65734 0.0
H783 H 0.96353 0.88788 0.68004 0.0
H784 H 0.927 0.96699 0.58056 0.0
H785 H 0.01055 0.98001 0.63292 0.0
H786 H 0.87594 0.95846 0.64294 0.0
H787 H 0.88677 0.918 0.63749 0.0
H788 H 0.88099 0.94648 0.60389 0.0
H789 H 0.97788 0.97539 0.70696 0.0
H790 H 0.01339 0.96849 0.68713 0.0
H791 H 0.98856 0.93487 0.7015 0.0
C792 C 0.5419 0.11772 0.27682 0.0
C793 C 0.56174 0.10441 0.30012 0.0
C794 C 0.53594 0.10192 0.24969 0.0
C795 C 0.55019 0.07215 0.24588 0.0
C796 C 0.5676 0.05703 0.27073 0.0
C797 C 0.57322 0.07338 0.29759 0.0
C798 C 0.51689 0.11866 0.22389 0.0
C799 C 0.58299 0.02516 0.26772 0.0
C800 C 0.53189 0.02738 0.17382 0.0
C801 C 0.55606 0.03878 0.1538 0.0
C802 C 0.52955 0.03783 0.20403 0.0
C803 C 0.55189 0.06022 0.21428 0.0
C804 C 0.57633 0.0717 0.19419 0.0
C805 C 0.57808 0.06087 0.16426 0.0
C806 C 0.50327 0.02503 0.22491 0.0
C807 C 0.6006 0.09574 0.20416 0.0
H808 H 0.5325 0.14143 0.27898 0.0
H809 H 0.58866 0.06296 0.31544 0.0
H810 H 0.53247 0.12951 0.20515 0.0
H811 H 0.50106 0.10109 0.2133 0.0
H812 H 0.50308 0.13831 0.23245 0.0
H813 H 0.59069 0.01386 0.29076 0.0
H814 H 0.56717 0.00786 0.25675 0.0
H815 H 0.60352 0.02937 0.25241 0.0
H816 H 0.51495 0.0101 0.16594 0.0
H817 H 0.59642 0.07033 0.14877 0.0
H818 H 0.48936 0.04543 0.23161 0.0
H819 H 0.51249 0.01268 0.24682 0.0
H820 H 0.48785 0.00766 0.21343 0.0
H821 H 0.58953 0.11835 0.20987 0.0
H822 H 0.61819 0.10207 0.18575 0.0
H823 H 0.61253 0.08561 0.22559 0.0
C824 C 0.39591 0.61797 0.32166 0.0
C825 C 0.39196 0.59503 0.29955 0.0
C826 C 0.4081 0.60921 0.35153 0.0
C827 C 0.41675 0.57678 0.35947 0.0
C828 C 0.41204 0.55335 0.33759 0.0
C829 C 0.39959 0.56271 0.30803 0.0
C830 C 0.41257 0.63487 0.37428 0.0
C831 C 0.42095 0.51853 0.34509 0.0
C832 C 0.47929 0.56092 0.42094 0.0
C833 C 0.46208 0.54876 0.44718 0.0
C834 C 0.46479 0.57026 0.39238 0.0
C835 C 0.43221 0.56765 0.38997 0.0
C836 C 0.41465 0.55568 0.41643 0.0
C837 C 0.4298 0.54626 0.44468 0.0
C838 C 0.48439 0.58266 0.36467 0.0
C839 C 0.37988 0.55277 0.41489 0.0
H840 H 0.39038 0.64305 0.3153 0.0
H841 H 0.39606 0.54465 0.29138 0.0
H842 H 0.40168 0.62668 0.39703 0.0
H843 H 0.43757 0.63887 0.37873 0.0
H844 H 0.40264 0.65837 0.36543 0.0
H845 H 0.41471 0.50301 0.32599 0.0
H846 H 0.44622 0.51743 0.34917 0.0
H847 H 0.40945 0.50828 0.3669 0.0
H848 H 0.50423 0.56294 0.42263 0.0
H849 H 0.41629 0.53705 0.46486 0.0
H850 H 0.47742 0.6074 0.35598 0.0
H851 H 0.48071 0.56684 0.34528 0.0
H852 H 0.5094 0.58347 0.37047 0.0
H853 H 0.37016 0.57672 0.40741 0.0
H854 H 0.36954 0.54373 0.43774 0.0
H855 H 0.37282 0.53594 0.39718 0.0
C856 C 0.04241 0.43269 0.74569 0.0
C857 C 0.06152 0.40623 0.74318 0.0
C858 C 0.03922 0.44647 0.77424 0.0
C859 C 0.0552 0.43318 0.80096 0.0
C860 C 0.07342 0.40563 0.79895 0.0
C861 C 0.07657 0.39266 0.77005 0.0
C862 C 0.01968 0.47597 0.77552 0.0
C863 C 0.09054 0.39057 0.82705 0.0
C864 C 0.07639 0.48805 0.86461 0.0
C865 C 0.05343 0.47966 0.88698 0.0
C866 C 0.07704 0.47328 0.83642 0.0
C867 C 0.0544 0.4492 0.8306 0.0
C868 C 0.03136 0.44027 0.85315 0.0
C869 C 0.03102 0.45575 0.88099 0.0
C870 C 0.10195 0.48351 0.81283 0.0
C871 C 1.007 0.41447 0.84784 0.0
H872 H 0.03032 0.44301 0.72519 0.0
H873 H 0.09183 0.3726 0.76834 0.0
H874 H 1.0023 0.4718 0.79442 0.0
H875 H 0.03451 0.49704 0.78107 0.0
H876 H 1.0075 0.48232 0.75308 0.0
H877 H 0.10156 0.36761 0.82221 0.0
H878 H 0.10877 0.40779 0.83428 0.0
H879 H 0.07457 0.38551 0.84711 0.0
H880 H 0.09401 0.50612 0.86917 0.0
H881 H 0.01282 0.44944 0.89776 0.0
H882 H 0.09133 0.49216 0.79016 0.0
H883 H 0.11614 0.46244 0.80857 0.0
H884 H 0.11743 0.50312 0.82066 0.0
H885 H 0.99307 0.42201 0.82685 0.0
H886 H 0.99122 0.40968 0.86813 0.0
H887 H 0.01811 0.39149 0.84334 0.0
C888 C 0.71004 0.94228 0.91024 0.0
C889 C 0.71903 0.90982 0.91448 0.0
C890 C 0.68189 0.95217 0.92206 0.0
C891 C 0.66185 0.9291 0.93847 0.0
C892 C 0.67021 0.89609 0.94189 0.0
C893 C 0.69862 0.88687 0.92992 0.0
C894 C 0.674 0.98758 0.91771 0.0
C895 C 0.64955 0.87064 0.95906 0.0
C896 C 0.6076 0.96134 0.99776 0.0
C897 C 0.57965 0.96381 0.98109 0.0
C898 C 0.63422 0.94962 0.98436 0.0
C899 C 0.63309 0.93992 0.95345 0.0
C900 C 0.6048 0.94177 0.93668 0.0
C901 C 0.57851 0.95371 0.95063 0.0
C902 C 0.6638 0.94826 1.00313 0.0
C903 C 0.60244 0.93164 0.90375 0.0
H904 H 0.72521 0.96018 0.89783 0.0
H905 H 0.7053 0.8618 0.93363 0.0
H906 H 0.65101 0.99036 0.90646 0.0
H907 H 0.6727 0.99757 0.94085 0.0
H908 H 0.6913 1.00226 0.9032 0.0
H909 H 0.65816 0.84575 0.95778 0.0
H910 H 0.648 0.87552 0.98403 0.0
H911 H 0.62583 0.87164 0.94924 0.0
H912 H 0.60887 0.96908 0.02125 0.0
H913 H 0.55711 0.9555 0.93747 0.0
H914 H 0.68169 0.96443 0.99111 0.0
H915 H 0.67268 0.92329 1.00484 0.0
H916 H 0.6607 0.95575 0.02715 0.0
H917 H 0.61815 0.94716 0.88817 0.0
H918 H 0.5786 0.93347 0.89422 0.0
H919 H 0.60988 0.90627 0.90315 0.0
C920 C 0.75535 0.11274 0.46964 0.0
C921 C 0.72982 0.09472 0.4597 0.0
C922 C 0.7835 0.0979 0.47668 0.0
C923 C 0.78599 0.06422 0.47396 0.0
C924 C 0.75956 0.04548 0.46649 0.0
C925 C 0.73178 0.06103 0.45919 0.0
C926 C 0.81119 0.11878 0.48438 0.0
C927 C 0.76117 0.0094 0.46397 0.0
C928 C 0.86333 0.03742 0.44652 0.0
C929 C 0.87696 0.02525 0.47459 0.0
C930 C 0.83361 0.04985 0.44608 0.0
C931 C 0.81695 0.04973 0.47439 0.0
C932 C 0.8303 0.03684 0.50277 0.0
C933 C 0.86033 0.02495 0.50256 0.0
C934 C 0.82031 0.06376 0.41534 0.0
C935 C 0.81301 0.03588 0.53329 0.0
H936 H 0.75397 0.13885 0.46978 0.0
H937 H 0.71192 0.04705 0.4518 0.0
H938 H 0.82387 0.1075 0.50483 0.0
H939 H 0.82731 0.12097 0.46426 0.0
H940 H 0.8046 0.14354 0.48947 0.0
H941 H 0.73784 0.99767 0.46302 0.0
H942 H 0.77377 0.00494 0.44238 0.0
H943 H 0.77404 0.99766 0.48408 0.0
H944 H 0.87631 0.03808 0.42497 0.0
H945 H 0.87077 0.0152 0.52423 0.0
H946 H 0.81524 0.08973 0.41675 0.0
H947 H 0.79822 0.05097 0.41039 0.0
H948 H 0.83623 0.06178 0.39543 0.0
H949 H 0.80832 0.06092 0.53898 0.0
H950 H 0.82605 0.02355 0.55302 0.0
H951 H 0.79034 0.02308 0.53118 0.0
C952 C 0.20766 0.57575 0.13378 0.0
C953 C 0.21717 0.60855 0.1305 0.0
C954 C 0.1793 0.56535 0.12151 0.0
C955 C 0.15982 0.5883 0.10566 0.0
C956 C 0.16881 0.62159 0.10317 0.0
C957 C 0.19741 0.6313 0.11549 0.0
C958 C 0.17072 0.5296 0.12451 0.0
C959 C 0.14857 0.64686 0.08675 0.0
C960 C 0.10556 0.55644 0.04466 0.0
C961 C 0.07768 0.55197 0.06117 0.0
C962 C 0.13224 0.56876 0.05872 0.0
C963 C 0.13107 0.5771 0.09002 0.0
C964 C 0.10281 0.5735 0.10657 0.0
C965 C 0.07648 0.56086 0.09199 0.0
C966 C 0.16191 0.57207 0.04027 0.0
C967 C 0.10051 0.5824 0.13986 0.0
H968 H 0.22293 0.55795 0.14495 0.0
H969 H 0.20446 0.65672 0.11317 0.0
H970 H 0.14751 0.52556 0.13513 0.0
H971 H 0.16962 0.52044 0.10095 0.0
H972 H 0.18756 0.5151 0.13897 0.0
H973 H 0.15778 0.67192 0.08878 0.0
H974 H 0.14667 0.64277 0.06158 0.0
H975 H 0.12491 0.64473 0.09658 0.0
H976 H 0.10676 0.54964 0.02085 0.0
H977 H 0.05503 0.55762 0.10491 0.0
H978 H 0.17953 0.55622 0.05192 0.0
H979 H 0.17118 0.59738 0.03955 0.0
H980 H 0.15877 0.56542 0.01588 0.0
H981 H 0.11533 0.56643 0.15527 0.0
H982 H 0.07647 0.58006 0.14883 0.0
H983 H 0.10909 0.60771 0.14155 0.0
C984 C 0.2244 0.43439 0.54273 0.0
C985 C 0.20422 0.45165 0.56011 0.0
C986 C 0.25504 0.44527 0.53779 0.0
C987 C 0.26551 0.4742 0.55035 0.0
C988 C 0.24419 0.49371 0.56445 0.0
C989 C 0.21374 0.48206 0.56939 0.0
C990 C 0.27698 0.4238 0.52246 0.0
C991 C 0.25422 0.52521 0.57724 0.0
C992 C 0.34562 0.46869 0.58532 0.0
C993 C 0.3639 0.48462 0.56163 0.0
C994 C 0.31354 0.46601 0.58214 0.0
C995 C 0.29918 0.48004 0.55472 0.0
C996 C 0.31724 0.49761 0.53132 0.0
C997 C 0.34949 0.49953 0.53496 0.0
C998 C 0.29514 0.44712 0.60778 0.0
C999 C 0.30273 0.51331 0.50199 0.0
H1000 H 0.21719 0.41082 0.53558 0.0
H1001 H 0.19798 0.49568 0.58242 0.0
H1002 H 0.29257 0.43838 0.50602 0.0
H1003 H 0.29156 0.41109 0.5407 0.0
H1004 H 0.26451 0.40525 0.50953 0.0
H1005 H 0.23422 0.54058 0.58115 0.0
H1006 H 0.26618 0.51994 0.59996 0.0
H1007 H 0.27069 0.5391 0.56116 0.0
H1008 H 0.3565 0.45783 0.60628 0.0
H1009 H 0.36341 0.51173 0.51642 0.0
H1010 H 0.28324 0.4259 0.59837 0.0
H1011 H 0.27711 0.46251 0.61657 0.0
H1012 H 0.30983 0.43823 0.62783 0.0
H1013 H 0.2956 0.49433 0.48645 0.0
H1014 H 0.319 0.53065 0.48889 0.0
H1015 H 0.28172 0.52634 0.50766 0.0
C1016 C 0.87774 0.70913 0.93128 0.0
C1017 C 0.89559 0.73794 0.92664 0.0
C1018 C 0.89076 0.68017 0.94433 0.0
C1019 C 0.92225 0.68009 0.95354 0.0
C1020 C 0.94017 0.7093 0.94946 0.0
C1021 C 0.92672 0.73771 0.93588 0.0
C1022 C 0.87094 0.64951 0.94775 0.0
C1023 C 0.97364 0.71056 0.95938 0.0
C1024 C 0.9504 0.61134 0.01105 0.0
C1025 C 0.96565 0.59178 0.99118 0.0
C1026 C 0.93623 0.64011 0.9992 0.0
C1027 C 0.93679 0.64934 0.9666 0.0
C1028 C 0.95185 0.62947 0.94643 0.0
C1029 C 0.96627 0.60119 0.95895 0.0
C1030 C 0.92091 0.66081 0.02161 0.0
C1031 C 0.95269 0.63804 0.91153 0.0
H1032 H 0.85373 0.70908 0.92408 0.0
H1033 H 0.94055 0.75999 0.93282 0.0
H1034 H 0.88094 0.63089 0.93394 0.0
H1035 H 0.87052 0.63946 0.97255 0.0
H1036 H 0.84682 0.65361 0.93978 0.0
H1037 H 0.98407 0.73542 0.9558 0.0
H1038 H 0.9758 0.70189 0.98446 0.0
H1039 H 0.98714 0.69418 0.94587 0.0
H1040 H 0.94983 0.60434 0.03597 0.0
H1041 H 0.97776 0.58618 0.94332 0.0
H1042 H 0.89619 0.66353 0.01538 0.0
H1043 H 0.93181 0.68548 0.01977 0.0
H1044 H 0.92254 0.6504 0.04627 0.0
H1045 H 0.92884 0.64053 0.90226 0.0
H1046 H 0.96443 0.61952 0.89891 0.0
H1047 H 0.96492 0.66177 0.9063 0.0
C1048 C 0.39728 0.7998 0.13497 0.0
C1049 C 0.40818 0.77058 0.12538 0.0
C1050 C 0.40983 0.82994 0.12281 0.0
C1051 C 0.43415 0.83096 0.1008 0.0
C1052 C 0.4456 0.80162 0.09139 0.0
C1053 C 0.43234 0.7719 0.10354 0.0
C1054 C 0.39681 0.86071 0.13323 0.0
C1055 C 0.47163 0.80162 0.06812 0.0
C1056 C 0.44767 0.90616 0.04478 0.0
C1057 C 0.47267 0.92169 0.05884 0.0
C1058 C 0.4346 0.87697 0.05849 0.0
C1059 C 0.44704 0.86266 0.08679 0.0
C1060 C 0.47226 0.8782 0.10114 0.0
C1061 C 0.48466 0.90764 0.0871 0.0
C1062 C 0.40752 0.86138 0.0426 0.0
C1063 C 0.48641 0.86352 0.13111 0.0
H1064 H 0.37897 0.79917 0.15213 0.0
H1065 H 0.44061 0.74963 0.0954 0.0
H1066 H 0.41536 0.87545 0.14361 0.0
H1067 H 0.38753 0.87556 0.11274 0.0
H1068 H 0.37808 0.85581 0.1507 0.0
H1069 H 0.47893 0.77671 0.06442 0.0
H1070 H 0.46434 0.81366 0.04529 0.0
H1071 H 0.49188 0.81564 0.07627 0.0
H1072 H 0.43809 0.91695 0.02307 0.0
H1073 H 0.50398 0.91945 0.0981 0.0
H1074 H 0.38776 0.85779 0.05899 0.0
H1075 H 0.41377 0.8371 0.03593 0.0
H1076 H 0.39991 0.87616 0.02126 0.0
H1077 H 0.46861 0.86 0.14966 0.0
H1078 H 0.50565 0.87885 0.13954 0.0
H1079 H 0.49533 0.83925 0.12746 0.0
C1080 C 0.03151 0.25448 0.52949 0.0
C1081 C 0.02648 0.26593 0.55883 0.0
C1082 C 0.0218 0.22305 0.52331 0.0
C1083 C 1.00654 0.20281 0.547 0.0
C1084 C 0.99807 0.21566 0.57516 0.0
C1085 C 0.00827 0.2471 0.58082 0.0
C1086 C 0.03099 0.21041 0.49281 0.0
C1087 C 0.98128 0.19508 0.60077 0.0
C1088 C 0.98089 0.11785 0.52826 0.0
C1089 C 1.00647 0.09987 0.53886 0.0
C1090 C 0.98005 0.15137 0.53135 0.0
C1091 C 1.00549 0.16714 0.54504 0.0
C1092 C 0.03101 0.14892 0.55634 0.0
C1093 C 0.03111 0.11557 0.55323 0.0
C1094 C 0.95234 0.16998 0.51938 0.0
C1095 C 0.05866 0.16477 0.57115 0.0
H1096 H 0.04498 0.26925 0.51215 0.0
H1097 H 1.00425 0.2557 0.60358 0.0
H1098 H 0.05099 0.1944 0.49693 0.0
H1099 H 0.01189 0.19576 0.48329 0.0
H1100 H 0.0377 0.23039 0.47499 0.0
H1101 H 0.9708 0.21016 0.61792 0.0
H1102 H 0.96288 0.17972 0.59093 0.0
H1103 H 0.99784 0.17868 0.61344 0.0
H1104 H 0.96173 0.10584 0.51719 0.0
H1105 H 0.05092 0.1019 0.56156 0.0
H1106 H 0.95899 0.18649 0.49865 0.0
H1107 H 0.94391 0.18526 0.53741 0.0
H1108 H 0.93311 0.15365 0.51258 0.0
H1109 H 0.06945 0.18335 0.55414 0.0
H1110 H 0.07643 0.14703 0.57906 0.0
H1111 H 0.05129 0.17731 0.5916 0.0
C1112 C 0.54964 0.30022 0.43846 0.0
C1113 C 0.57318 0.28416 0.45548 0.0
C1114 C 0.538 0.32911 0.44791 0.0
C1115 C 0.55008 0.34195 0.47513 0.0
C1116 C 0.57269 0.32489 0.4933 0.0
C1117 C 0.58411 0.29624 0.48313 0.0
C1118 C 0.51404 0.34676 0.42783 0.0
C1119 C 0.5858 0.33763 0.5227 0.0
C1120 C 0.55043 0.43289 0.4801 0.0
C1121 C 0.52536 0.43635 0.49994 0.0
C1122 C 0.55836 0.40231 0.47147 0.0
C1123 C 0.54098 0.37449 0.48323 0.0
C1124 C 0.51549 0.3778 0.50306 0.0
C1125 C 0.50788 0.40876 0.51108 0.0
C1126 C 0.58555 0.39975 0.45002 0.0
C1127 C 0.49663 0.34861 0.51621 0.0
H1128 H 0.54141 0.29106 0.41689 0.0
H1129 H 0.60213 0.28361 0.49643 0.0
H1130 H 0.49435 0.35309 0.44234 0.0
H1131 H 0.52431 0.36982 0.4169 0.0
H1132 H 0.50513 0.33217 0.40899 0.0
H1133 H 0.60106 0.31998 0.53566 0.0
H1134 H 0.59939 0.36039 0.51659 0.0
H1135 H 0.5669 0.34352 0.53843 0.0
H1136 H 0.56396 0.45413 0.47132 0.0
H1137 H 0.48854 0.41126 0.52654 0.0
H1138 H 0.57823 0.38741 0.42911 0.0
H1139 H 0.60354 0.38482 0.46221 0.0
H1140 H 0.59603 0.42385 0.44213 0.0
H1141 H 0.48731 0.33492 0.49694 0.0
H1142 H 0.47708 0.35541 0.53074 0.0
H1143 H 0.51156 0.33198 0.5308 0.0
loop_
_geom_bond_atom_site_label_1
_geom_bond_atom_site_label_2
_geom_bond_distance
_geom_bond_site_symmetry_2
_ccdc_geom_bond_type
P0 O11 1.490 . S
P0 C14 1.812 . S
P0 C20 1.803 . S
P0 C26 1.819 . S
H1 C15 0.941 . S
H2 C16 0.939 . S
H3 C18 0.940 . S
H4 C19 0.940 . S
H5 C21 0.939 . S
H6 C22 0.942 . S
H7 C24 0.940 . S
H8 C25 0.939 . S
H9 C27 0.941 . S
H10 C31 0.939 . S
O11 P0 1.490 . S
H12 C28 0.939 . S
H13 C30 0.940 . S
C14 P0 1.812 . S
C14 C15 1.389 . S
C14 C19 1.391 . S
C15 H1 0.941 . S
C15 C14 1.389 . S
C15 C16 1.397 . S
C16 H2 0.939 . S
C16 C15 1.397 . S
C16 C17 1.378 . S
C17 C16 1.378 . S
C17 C18 1.378 . S
C18 H3 0.940 . S
C18 C17 1.378 . S
C18 C19 1.396 . S
C19 H4 0.940 . S
C19 C14 1.391 . S
C19 C18 1.396 . S
C20 P0 1.803 . S
C20 C21 1.378 . S
C20 C25 1.400 . S
C21 H5 0.939 . S
C21 C20 1.378 . S
C21 C22 1.361 . S
C22 H6 0.942 . S
C22 C21 1.361 . S
C22 C23 1.369 . S
C23 C22 1.369 . S
C23 C24 1.404 . S
C24 H7 0.940 . S
C24 C23 1.404 . S
C24 C25 1.389 . S
C25 H8 0.939 . S
C25 C20 1.400 . S
C25 C24 1.389 . S
C26 P0 1.819 . S
C26 C27 1.391 . S
C26 C31 1.391 . S
C27 H9 0.941 . S
C27 C26 1.391 . S
C27 C28 1.396 . S
C28 H12 0.939 . S
C28 C27 1.396 . S
C28 C29 1.397 . S
C29 C28 1.397 . S
C29 C30 1.385 . S
C30 H13 0.940 . S
C30 C29 1.385 . S
C30 C31 1.388 . S
C31 H10 0.939 . S
C31 C26 1.391 . S
C31 C30 1.388 . S
P32 O43 1.490 . S
P32 C46 1.812 . S
P32 C52 1.803 . S
P32 C58 1.819 . S
H33 C47 0.941 . S
H34 C48 0.939 . S
H35 C50 0.940 . S
H36 C51 0.940 . S
H37 C53 0.939 . S
H38 C54 0.942 . S
H39 C56 0.940 . S
H40 C57 0.939 . S
H41 C59 0.941 . S
H42 C63 0.939 . S
O43 P32 1.490 . S
H44 C60 0.939 . S
H45 C62 0.940 . S
C46 P32 1.812 . S
C46 C47 1.389 . S
C46 C51 1.391 . S
C47 H33 0.941 . S
C47 C46 1.389 . S
C47 C48 1.397 . S
C48 H34 0.939 . S
C48 C47 1.397 . S
C48 C49 1.378 . S
C49 C48 1.378 . S
C49 C50 1.378 . S
C50 H35 0.940 . S
C50 C49 1.378 . S
C50 C51 1.396 . S
C51 H36 0.940 . S
C51 C46 1.391 . S
C51 C50 1.396 . S
C52 P32 1.803 . S
C52 C53 1.378 . S
C52 C57 1.400 . S
C53 H37 0.939 . S
C53 C52 1.378 . S
C53 C54 1.361 . S
C54 H38 0.942 . S
C54 C53 1.361 . S
C54 C55 1.369 . S
C55 C54 1.369 . S
C55 C56 1.404 . S
C56 H39 0.940 . S
C56 C55 1.404 . S
C56 C57 1.389 . S
C57 H40 0.939 . S
C57 C52 1.400 . S
C57 C56 1.389 . S
C58 P32 1.819 . S
C58 C59 1.391 . S
C58 C63 1.391 . S
C59 H41 0.941 . S
C59 C58 1.391 . S
C59 C60 1.396 . S
C60 H44 0.939 . S
C60 C59 1.396 . S
C60 C61 1.397 . S
C61 C60 1.397 . S
C61 C62 1.385 . S
C62 H45 0.940 . S
C62 C61 1.385 . S
C62 C63 1.388 . S
C63 H42 0.939 . S
C63 C58 1.391 . S
C63 C62 1.388 . S
P64 O75 1.490 . S
P64 C78 1.812 . S
P64 C84 1.803 . S
P64 C90 1.819 . S
H65 C79 0.941 . S
H66 C80 0.939 . S
H67 C82 0.940 . S
H68 C83 0.940 . S
H69 C85 0.939 . S
H70 C86 0.942 . S
H71 C88 0.940 . S
H72 C89 0.939 . S
H73 C91 0.941 . S
H74 C95 0.939 . S
O75 P64 1.490 . S
H76 C92 0.939 . S
H77 C94 0.940 . S
C78 P64 1.812 . S
C78 C79 1.389 . S
C78 C83 1.391 . S
C79 H65 0.941 . S
C79 C78 1.389 . S
C79 C80 1.397 . S
C80 H66 0.939 . S
C80 C79 1.397 . S
C80 C81 1.378 . S
C81 C80 1.378 . S
C81 C82 1.378 . S
C82 H67 0.940 . S
C82 C81 1.378 . S
C82 C83 1.396 . S
C83 H68 0.940 . S
C83 C78 1.391 . S
C83 C82 1.396 . S
C84 P64 1.803 . S
C84 C85 1.378 . S
C84 C89 1.400 . S
C85 H69 0.939 . S
C85 C84 1.378 . S
C85 C86 1.361 . S
C86 H70 0.942 . S
C86 C85 1.361 . S
C86 C87 1.369 . S
C87 C86 1.369 . S
C87 C88 1.404 . S
C88 H71 0.940 . S
C88 C87 1.404 . S
C88 C89 1.389 . S
C89 H72 0.939 . S
C89 C84 1.400 . S
C89 C88 1.389 . S
C90 P64 1.819 . S
C90 C91 1.391 . S
C90 C95 1.391 . S
C91 H73 0.941 . S
C91 C90 1.391 . S
C91 C92 1.396 . S
C92 H76 0.939 . S
C92 C91 1.396 . S
C92 C93 1.397 . S
C93 C92 1.397 . S
C93 C94 1.385 . S
C94 H77 0.940 . S
C94 C93 1.385 . S
C94 C95 1.388 . S
C95 H74 0.939 . S
C95 C90 1.391 . S
C95 C94 1.388 . S
P96 O107 1.490 . S
P96 C110 1.812 . S
P96 C116 1.803 . S
P96 C122 1.819 . S
H97 C111 0.941 . S
H98 C112 0.939 . S
H99 C114 0.940 . S
H100 C115 0.940 . S
H101 C117 0.939 . S
H102 C118 0.942 . S
H103 C120 0.940 . S
H104 C121 0.939 . S
H105 C123 0.941 . S
H106 C127 0.939 . S
O107 P96 1.490 . S
H108 C124 0.939 . S
H109 C126 0.940 . S
C110 P96 1.812 . S
C110 C111 1.389 . S
C110 C115 1.391 . S
C111 H97 0.941 . S
C111 C110 1.389 . S
C111 C112 1.397 . S
C112 H98 0.939 . S
C112 C111 1.397 . S
C112 C113 1.378 . S
C113 C112 1.378 . S
C113 C114 1.378 . S
C114 H99 0.940 . S
C114 C113 1.378 . S
C114 C115 1.396 . S
C115 H100 0.940 . S
C115 C110 1.391 . S
C115 C114 1.396 . S
C116 P96 1.803 . S
C116 C117 1.378 . S
C116 C121 1.400 . S
C117 H101 0.939 . S
C117 C116 1.378 . S
C117 C118 1.361 . S
C118 H102 0.942 . S
C118 C117 1.361 . S
C118 C119 1.369 . S
C119 C118 1.369 . S
C119 C120 1.404 . S
C120 H103 0.940 . S
C120 C119 1.404 . S
C120 C121 1.389 . S
C121 H104 0.939 . S
C121 C116 1.400 . S
C121 C120 1.389 . S
C122 P96 1.819 . S
C122 C123 1.391 . S
C122 C127 1.391 . S
C123 H105 0.941 . S
C123 C122 1.391 . S
C123 C124 1.396 . S
C124 H108 0.939 . S
C124 C123 1.396 . S
C124 C125 1.397 . S
C125 C124 1.397 . S
C125 C126 1.385 . S
C126 H109 0.940 . S
C126 C125 1.385 . S
C126 C127 1.388 . S
C127 H106 0.939 . S
C127 C122 1.391 . S
C127 C126 1.388 . S
P128 O139 1.490 . S
P128 C142 1.812 . S
P128 C148 1.803 . S
P128 C154 1.819 . S
H129 C143 0.941 . S
H130 C144 0.939 . S
H131 C146 0.940 . S
H132 C147 0.940 . S
H133 C149 0.939 . S
H134 C150 0.942 . S
H135 C152 0.940 . S
H136 C153 0.939 . S
H137 C155 0.941 . S
H138 C159 0.939 . S
O139 P128 1.490 . S
H140 C156 0.939 . S
H141 C158 0.940 . S
C142 P128 1.812 . S
C142 C143 1.389 . S
C142 C147 1.391 . S
C143 H129 0.941 . S
C143 C142 1.389 . S
C143 C144 1.397 . S
C144 H130 0.939 . S
C144 C143 1.397 . S
C144 C145 1.378 . S
C145 C144 1.378 . S
C145 C146 1.378 . S
C146 H131 0.940 . S
C146 C145 1.378 . S
C146 C147 1.396 . S
C147 H132 0.940 . S
C147 C142 1.391 . S
C147 C146 1.396 . S
C148 P128 1.803 . S
C148 C149 1.378 . S
C148 C153 1.400 . S
C149 H133 0.939 . S
C149 C148 1.378 . S
C149 C150 1.361 . S
C150 H134 0.942 . S
C150 C149 1.361 . S
C150 C151 1.369 . S
C151 C150 1.369 . S
C151 C152 1.404 . S
C152 H135 0.940 . S
C152 C151 1.404 . S
C152 C153 1.389 . S
C153 H136 0.939 . S
C153 C148 1.400 . S
C153 C152 1.389 . S
C154 P128 1.819 . S
C154 C155 1.391 . S
C154 C159 1.391 . S
C155 H137 0.941 . S
C155 C154 1.391 . S
C155 C156 1.396 . S
C156 H140 0.939 . S
C156 C155 1.396 . S
C156 C157 1.397 . S
C157 C156 1.397 . S
C157 C158 1.385 . S
C158 H141 0.940 . S
C158 C157 1.385 . S
C158 C159 1.388 . S
C159 H138 0.939 . S
C159 C154 1.391 . S
C159 C158 1.388 . S
P160 O171 1.490 . S
P160 C174 1.812 . S
P160 C180 1.803 . S
P160 C186 1.819 . S
H161 C175 0.941 . S
H162 C176 0.939 . S
H163 C178 0.940 . S
H164 C179 0.940 . S
H165 C181 0.939 . S
H166 C182 0.942 . S
H167 C184 0.940 . S
H168 C185 0.939 . S
H169 C187 0.941 . S
H170 C191 0.939 . S
O171 P160 1.490 . S
H172 C188 0.939 . S
H173 C190 0.940 . S
C174 P160 1.812 . S
C174 C175 1.389 . S
C174 C179 1.391 . S
C175 H161 0.941 . S
C175 C174 1.389 . S
C175 C176 1.397 . S
C176 H162 0.939 . S
C176 C175 1.397 . S
C176 C177 1.378 . S
C177 C176 1.378 . S
C177 C178 1.378 . S
C178 H163 0.940 . S
C178 C177 1.378 . S
C178 C179 1.396 . S
C179 H164 0.940 . S
C179 C174 1.391 . S
C179 C178 1.396 . S
C180 P160 1.803 . S
C180 C181 1.378 . S
C180 C185 1.400 . S
C181 H165 0.939 . S
C181 C180 1.378 . S
C181 C182 1.361 . S
C182 H166 0.942 . S
C182 C181 1.361 . S
C182 C183 1.369 . S
C183 C182 1.369 . S
C183 C184 1.404 . S
C184 H167 0.940 . S
C184 C183 1.404 . S
C184 C185 1.389 . S
C185 H168 0.939 . S
C185 C180 1.400 . S
C185 C184 1.389 . S
C186 P160 1.819 . S
C186 C187 1.391 . S
C186 C191 1.391 . S
C187 H169 0.941 . S
C187 C186 1.391 . S
C187 C188 1.396 . S
C188 H172 0.939 . S
C188 C187 1.396 . S
C188 C189 1.397 . S
C189 C188 1.397 . S
C189 C190 1.385 . S
C190 H173 0.940 . S
C190 C189 1.385 . S
C190 C191 1.388 . S
C191 H170 0.939 . S
C191 C186 1.391 . S
C191 C190 1.388 . S
P192 O203 1.490 . S
P192 C206 1.812 . S
P192 C212 1.803 . S
P192 C218 1.819 . S
H193 C207 0.941 . S
H194 C208 0.939 . S
H195 C210 0.940 . S
H196 C211 0.940 . S
H197 C213 0.939 . S
H198 C214 0.942 . S
H199 C216 0.940 . S
H200 C217 0.939 . S
H201 C219 0.941 . S
H202 C223 0.939 . S
O203 P192 1.490 . S
H204 C220 0.939 . S
H205 C222 0.940 . S
C206 P192 1.812 . S
C206 C207 1.389 . S
C206 C211 1.391 . S
C207 H193 0.941 . S
C207 C206 1.389 . S
C207 C208 1.397 . S
C208 H194 0.939 . S
C208 C207 1.397 . S
C208 C209 1.378 . S
C209 C208 1.378 . S
C209 C210 1.378 . S
C210 H195 0.940 . S
C210 C209 1.378 . S
C210 C211 1.396 . S
C211 H196 0.940 . S
C211 C206 1.391 . S
C211 C210 1.396 . S
C212 P192 1.803 . S
C212 C213 1.378 . S
C212 C217 1.400 . S
C213 H197 0.939 . S
C213 C212 1.378 . S
C213 C214 1.361 . S
C214 H198 0.942 . S
C214 C213 1.361 . S
C214 C215 1.369 . S
C215 C214 1.369 . S
C215 C216 1.404 . S
C216 H199 0.940 . S
C216 C215 1.404 . S
C216 C217 1.389 . S
C217 H200 0.939 . S
C217 C212 1.400 . S
C217 C216 1.389 . S
C218 P192 1.819 . S
C218 C219 1.391 . S
C218 C223 1.391 . S
C219 H201 0.941 . S
C219 C218 1.391 . S
C219 C220 1.396 . S
C220 H204 0.939 . S
C220 C219 1.396 . S
C220 C221 1.397 . S
C221 C220 1.397 . S
C221 C222 1.385 . S
C222 H205 0.940 . S
C222 C221 1.385 . S
C222 C223 1.388 . S
C223 H202 0.939 . S
C223 C218 1.391 . S
C223 C222 1.388 . S
P224 O235 1.490 . S
P224 C238 1.812 . S
P224 C244 1.803 . S
P224 C250 1.819 . S
H225 C239 0.941 . S
H226 C240 0.939 . S
H227 C242 0.940 . S
H228 C243 0.940 . S
H229 C245 0.939 . S
H230 C246 0.942 . S
H231 C248 0.940 . S
H232 C249 0.939 . S
H233 C251 0.941 . S
H234 C255 0.939 . S
O235 P224 1.490 . S
H236 C252 0.939 . S
H237 C254 0.940 . S
C238 P224 1.812 . S
C238 C239 1.389 . S
C238 C243 1.391 . S
C239 H225 0.941 . S
C239 C238 1.389 . S
C239 C240 1.397 . S
C240 H226 0.939 . S
C240 C239 1.397 . S
C240 C241 1.378 . S
C241 C240 1.378 . S
C241 C242 1.378 . S
C242 H227 0.940 . S
C242 C241 1.378 . S
C242 C243 1.396 . S
C243 H228 0.940 . S
C243 C238 1.391 . S
C243 C242 1.396 . S
C244 P224 1.803 . S
C244 C245 1.378 . S
C244 C249 1.400 . S
C245 H229 0.939 . S
C245 C244 1.378 . S
C245 C246 1.361 . S
C246 H230 0.942 . S
C246 C245 1.361 . S
C246 C247 1.369 . S
C247 C246 1.369 . S
C247 C248 1.404 . S
C248 H231 0.940 . S
C248 C247 1.404 . S
C248 C249 1.389 . S
C249 H232 0.939 . S
C249 C244 1.400 . S
C249 C248 1.389 . S
C250 P224 1.819 . S
C250 C251 1.391 . S
C250 C255 1.391 . S
C251 H233 0.941 . S
C251 C250 1.391 . S
C251 C252 1.396 . S
C252 H236 0.939 . S
C252 C251 1.396 . S
C252 C253 1.397 . S
C253 C252 1.397 . S
C253 C254 1.385 . S
C254 H237 0.940 . S
C254 C253 1.385 . S
C254 C255 1.388 . S
C255 H234 0.939 . S
C255 C250 1.391 . S
C255 C254 1.388 . S
Co256 N261 2.057 . S
Co256 O273 2.021 . S
Co256 O276 2.062 . S
Co256 O280 2.117 1_545 S
Co256 O281 2.020 . S
C257 O277 1.259 1_655 S
C257 O280 1.258 . S
Co258 N267 2.057 . S
Co258 O274 2.117 1_565 S
Co258 O275 2.020 1_565 S
Co258 O277 2.021 . S
Co258 O282 2.062 . S
C259 N261 1.316 . S
C259 N262 1.347 . S
C259 H264 0.931 . S
C260 N261 1.396 . S
C260 C263 1.364 . S
C260 H265 0.899 1_545 S
N261 Co256 2.057 . S
N261 C259 1.316 . S
N261 C260 1.396 . S
N262 C259 1.347 . S
N262 C263 1.373 . S
C263 C260 1.364 . S
C263 N262 1.373 . S
C263 H284 0.931 . S
H264 C259 0.931 . S
H265 C260 0.899 1_565 S
C266 O273 1.259 1_455 S
C266 O274 1.258 . S
N267 Co258 2.057 . S
N267 C268 1.316 . S
N267 C269 1.375 1_565 S
C268 N267 1.316 . S
C268 N270 1.347 . S
C268 H279 0.931 . S
C269 N267 1.375 1_545 S
C269 C271 1.350 1_545 S
C269 H278 0.930 . S
N270 C268 1.347 . S
N270 C271 1.373 . S
C271 C269 1.350 1_565 S
C271 N270 1.373 . S
C271 H285 0.931 1_565 S
C272 O275 1.256 . S
C272 O276 1.255 1_455 S
O273 Co256 2.021 . S
O273 C266 1.259 1_655 S
O274 Co258 2.117 1_545 S
O274 C266 1.258 . S
O275 Co258 2.020 1_545 S
O275 C272 1.256 . S
O276 Co256 2.062 . S
O276 C272 1.255 1_655 S
O277 C257 1.259 1_455 S
O277 Co258 2.021 . S
H278 C269 0.930 . S
H279 C268 0.931 . S
O280 Co256 2.117 1_565 S
O280 C257 1.258 . S
O281 Co256 2.020 . S
O281 C283 1.256 1_545 S
O282 Co258 2.062 . S
O282 C283 1.255 1_455 S
C283 O281 1.256 1_565 S
C283 O282 1.255 1_655 S
H284 C263 0.931 . S
H285 C271 0.931 1_545 S
Co286 N291 2.057 1_545 S
Co286 O303 2.021 . S
Co286 O306 2.062 1_545 S
Co286 O310 2.117 1_546 S
Co286 O311 2.020 1_556 S
C287 O307 1.259 . S
C287 O310 1.258 . S
Co288 N297 2.057 . S
Co288 O304 2.117 . S
Co288 O305 2.020 1_545 S
Co288 O307 2.021 1_545 S
Co288 O312 2.062 . S
C289 N291 1.316 . S
C289 N292 1.347 . S
C289 H294 0.931 1_565 S
C290 N291 1.375 . S
C290 C293 1.350 . S
C290 H295 0.930 . S
N291 Co286 2.057 1_565 S
N291 C289 1.316 . S
N291 C290 1.375 . S
N292 C289 1.347 . S
N292 C293 1.373 . S
C293 C290 1.350 . S
C293 N292 1.373 . S
C293 H314 0.931 . S
H294 C289 0.931 1_545 S
H295 C290 0.930 . S
C296 O303 1.259 . S
C296 O304 1.258 1_556 S
N297 Co288 2.057 . S
N297 C298 1.316 . S
N297 C299 1.375 . S
C298 N297 1.316 . S
C298 N300 1.347 . S
C298 H309 0.931 . S
C299 N297 1.375 . S
C299 C301 1.350 . S
C299 H308 0.930 . S
N300 C298 1.347 . S
N300 C301 1.373 . S
C301 C299 1.350 . S
C301 N300 1.373 . S
C301 H315 0.931 . S
C302 O305 1.256 1_556 S
C302 O306 1.255 . S
O303 Co286 2.021 . S
O303 C296 1.259 . S
O304 Co288 2.117 . S
O304 C296 1.258 1_554 S
O305 Co288 2.020 1_565 S
O305 C302 1.256 1_554 S
O306 Co286 2.062 1_565 S
O306 C302 1.255 . S
O307 C287 1.259 . S
O307 Co288 2.021 1_565 S
H308 C299 0.930 . S
H309 C298 0.931 . S
O310 Co286 2.117 1_564 S
O310 C287 1.258 . S
O311 Co286 2.020 1_554 S
O311 C313 1.256 . S
O312 Co288 2.062 . S
O312 C313 1.255 . S
C313 O311 1.256 . S
C313 O312 1.255 . S
H314 C293 0.931 . S
H315 C301 0.931 . S
Co316 N321 2.057 . S
Co316 O333 2.021 . S
Co316 O336 2.062 . S
Co316 O340 2.117 . S
Co316 O341 2.020 . S
C317 O337 1.259 . S
C317 O340 1.258 . S
Co318 N327 2.057 . S
Co318 O334 2.117 . S
Co318 O335 2.020 . S
Co318 O337 2.021 . S
Co318 O342 2.062 . S
C319 N321 1.316 . S
C319 N322 1.347 . S
C319 H324 0.931 . S
C320 N321 1.375 . S
C320 C323 1.350 . S
C320 H325 0.930 . S
N321 Co316 2.057 . S
N321 C319 1.316 . S
N321 C320 1.375 . S
N322 C319 1.347 . S
N322 C323 1.373 . S
C323 C320 1.350 . S
C323 N322 1.373 . S
C323 H344 0.931 . S
H324 C319 0.931 . S
H325 C320 0.930 . S
C326 O333 1.259 . S
C326 O334 1.258 . S
N327 Co318 2.057 . S
N327 C328 1.316 . S
N327 C329 1.375 . S
C328 N327 1.316 . S
C328 N330 1.347 . S
C328 H339 0.931 . S
C329 N327 1.375 . S
C329 C331 1.350 . S
C329 H338 0.930 . S
N330 C328 1.347 . S
N330 C331 1.373 . S
C331 C329 1.350 . S
C331 N330 1.373 . S
C331 H345 0.931 . S
C332 O335 1.256 . S
C332 O336 1.255 . S
O333 Co316 2.021 . S
O333 C326 1.259 . S
O334 Co318 2.117 . S
O334 C326 1.258 . S
O335 Co318 2.020 . S
O335 C332 1.256 . S
O336 Co316 2.062 . S
O336 C332 1.255 . S
O337 C317 1.259 . S
O337 Co318 2.021 . S
H338 C329 0.930 . S
H339 C328 0.931 . S
O340 Co316 2.117 . S
O340 C317 1.258 . S
O341 Co316 2.020 . S
O341 C343 1.256 . S
O342 Co318 2.062 . S
O342 C343 1.255 . S
C343 O341 1.256 . S
C343 O342 1.255 . S
H344 C323 0.931 . S
H345 C331 0.931 . S
Co346 N351 2.057 . S
Co346 O363 2.021 . S
Co346 O366 2.050 1_556 S
Co346 O370 2.117 1_455 S
Co346 O371 2.020 1_455 S
C347 O367 1.280 . S
C347 O370 1.245 1_554 S
Co348 N357 2.057 . S
Co348 O364 2.117 1_655 S
Co348 O365 2.020 1_655 S
Co348 O367 2.021 . S
Co348 O372 2.062 . S
C349 N351 1.316 . S
C349 N352 1.347 . S
C349 H354 0.931 . S
C350 N351 1.375 1_655 S
C350 C353 1.350 1_655 S
C350 H355 0.930 . S
N351 Co346 2.057 . S
N351 C349 1.316 . S
N351 C350 1.375 1_455 S
N352 C349 1.347 . S
N352 C353 1.373 . S
C353 C350 1.350 1_455 S
C353 N352 1.373 . S
C353 H374 0.931 1_455 S
H354 C349 0.931 . S
H355 C350 0.930 . S
C356 O363 1.259 1_554 S
C356 O364 1.258 . S
N357 Co348 2.057 . S
N357 C358 1.316 . S
N357 C359 1.375 1_655 S
C358 N357 1.316 . S
C358 N360 1.347 . S
C358 H369 0.931 . S
C359 N357 1.375 1_455 S
C359 C361 1.350 1_455 S
C359 H368 0.930 . S
N360 C358 1.347 . S
N360 C361 1.373 . S
C361 C359 1.350 1_655 S
C361 N360 1.373 . S
C361 H375 0.931 1_655 S
C362 O365 1.256 . S
C362 O366 1.283 . S
O363 Co346 2.021 . S
O363 C356 1.259 1_556 S
O364 Co348 2.117 1_455 S
O364 C356 1.258 . S
O365 Co348 2.020 1_455 S
O365 C362 1.256 . S
O366 Co346 2.050 1_554 S
O366 C362 1.283 . S
O367 C347 1.280 . S
O367 Co348 2.021 . S
H368 C359 0.930 . S
H369 C358 0.931 . S
O370 Co346 2.117 1_655 S
O370 C347 1.245 1_556 S
O371 Co346 2.020 1_655 S
O371 C373 1.256 . S
O372 Co348 2.062 . S
O372 C373 1.255 1_554 S
C373 O371 1.256 . S
C373 O372 1.255 1_556 S
H374 C353 0.931 1_655 S
H375 C361 0.931 1_455 S
C376 C377 1.391 . S
C376 C378 1.394 . S
C376 H392 0.931 . S
C377 C376 1.391 . S
C377 C381 1.376 . S
C378 C376 1.394 . S
C378 C379 1.369 . S
C378 C382 1.531 . S
C379 C378 1.369 . S
C379 C380 1.410 . S
C379 C387 1.503 . S
C380 C379 1.410 . S
C380 C381 1.392 . S
C380 C383 1.511 . S
C381 C377 1.376 . S
C381 C380 1.392 . S
C381 H393 0.929 . S
C382 C378 1.531 . S
C382 H394 0.960 . S
C382 H395 0.962 . S
C382 H396 0.960 . S
C383 C380 1.511 . S
C383 H397 0.966 . S
C383 H398 0.961 . S
C383 H399 0.961 1_455 S
C384 C385 1.370 . S
C384 C386 1.363 . S
C384 H400 0.944 . S
C385 C384 1.370 . S
C385 C389 1.408 . S
C386 C384 1.363 . S
C386 C387 1.370 . S
C386 C390 1.524 . S
C387 C379 1.503 . S
C387 C386 1.370 . S
C387 C388 1.403 . S
C388 C387 1.403 . S
C388 C389 1.404 . S
C388 C391 1.539 . S
C389 C385 1.408 . S
C389 C388 1.404 . S
C389 H401 0.930 . S
C390 C386 1.524 . S
C390 H402 0.956 . S
C390 H403 0.960 . S
C390 H404 0.961 1_545 S
C391 C388 1.539 . S
C391 H405 0.958 . S
C391 H406 0.961 1_455 S
C391 H407 0.960 . S
H392 C376 0.931 . S
H393 C381 0.929 . S
H394 C382 0.960 . S
H395 C382 0.962 . S
H396 C382 0.960 . S
H397 C383 0.966 . S
H398 C383 0.961 . S
H399 C383 0.961 1_655 S
H400 C384 0.944 . S
H401 C389 0.930 . S
H402 C390 0.956 . S
H403 C390 0.960 . S
H404 C390 0.961 1_565 S
H405 C391 0.958 . S
H406 C391 0.961 1_655 S
H407 C391 0.960 . S
C408 C409 1.391 . S
C408 C410 1.394 . S
C408 H424 0.931 . S
C409 C408 1.391 . S
C409 C413 1.376 . S
C410 C408 1.394 . S
C410 C411 1.369 . S
C410 C414 1.531 . S
C411 C410 1.369 . S
C411 C412 1.410 . S
C411 C419 1.503 . S
C412 C411 1.410 . S
C412 C413 1.392 . S
C412 C415 1.511 . S
C413 C409 1.376 . S
C413 C412 1.392 . S
C413 H425 0.929 . S
C414 C410 1.531 . S
C414 H426 0.960 . S
C414 H427 0.962 . S
C414 H428 0.960 . S
C415 C412 1.511 . S
C415 H429 0.961 . S
C415 H430 0.961 . S
C415 H431 0.961 . S
C416 C417 1.370 . S
C416 C418 1.363 . S
C416 H432 0.931 . S
C417 C416 1.370 . S
C417 C421 1.408 . S
C418 C416 1.363 . S
C418 C419 1.370 . S
C418 C422 1.524 . S
C419 C411 1.503 . S
C419 C418 1.370 . S
C419 C420 1.403 . S
C420 C419 1.403 . S
C420 C421 1.404 . S
C420 C423 1.539 . S
C421 C417 1.408 . S
C421 C420 1.404 . S
C421 H433 0.930 1_565 S
C422 C418 1.524 . S
C422 H434 0.956 . S
C422 H435 0.961 . S
C422 H436 0.961 . S
C423 C420 1.539 . S
C423 H437 0.958 1_565 S
C423 H438 0.961 1_565 S
C423 H439 0.960 . S
H424 C408 0.931 . S
H425 C413 0.929 . S
H426 C414 0.960 . S
H427 C414 0.962 . S
H428 C414 0.960 . S
H429 C415 0.961 . S
H430 C415 0.961 . S
H431 C415 0.961 . S
H432 C416 0.931 . S
H433 C421 0.930 1_545 S
H434 C422 0.956 . S
H435 C422 0.961 . S
H436 C422 0.961 . S
H437 C423 0.958 1_545 S
H438 C423 0.961 1_545 S
H439 C423 0.960 . S
C440 C441 1.391 . S
C440 C442 1.394 . S
C440 H456 0.931 . S
C441 C440 1.391 . S
C441 C445 1.376 . S
C442 C440 1.394 . S
C442 C443 1.369 . S
C442 C446 1.531 . S
C443 C442 1.369 . S
C443 C444 1.410 . S
C443 C451 1.503 . S
C444 C443 1.410 . S
C444 C445 1.392 . S
C444 C447 1.511 . S
C445 C441 1.376 . S
C445 C444 1.392 . S
C445 H457 0.929 . S
C446 C442 1.531 . S
C446 H458 0.960 . S
C446 H459 0.962 . S
C446 H460 0.960 . S
C447 C444 1.511 . S
C447 H461 0.961 . S
C447 H462 0.961 . S
C447 H463 0.961 . S
C448 C449 1.370 . S
C448 C450 1.363 . S
C448 H464 0.931 . S
C449 C448 1.370 . S
C449 C453 1.408 . S
C450 C448 1.363 . S
C450 C451 1.370 . S
C450 C454 1.524 . S
C451 C443 1.503 . S
C451 C450 1.370 . S
C451 C452 1.403 . S
C452 C451 1.403 . S
C452 C453 1.404 . S
C452 C455 1.539 . S
C453 C449 1.408 . S
C453 C452 1.404 . S
C453 H465 0.930 . S
C454 C450 1.524 . S
C454 H466 0.956 . S
C454 H467 0.961 . S
C454 H468 0.961 . S
C455 C452 1.539 . S
C455 H469 0.958 . S
C455 H470 0.961 . S
C455 H471 0.960 . S
H456 C440 0.931 . S
H457 C445 0.929 . S
H458 C446 0.960 . S
H459 C446 0.962 . S
H460 C446 0.960 . S
H461 C447 0.961 . S
H462 C447 0.961 . S
H463 C447 0.961 . S
H464 C448 0.931 . S
H465 C453 0.930 . S
H466 C454 0.956 . S
H467 C454 0.961 . S
H468 C454 0.961 . S
H469 C455 0.958 . S
H470 C455 0.961 . S
H471 C455 0.960 . S
C472 C473 1.391 . S
C472 C474 1.394 . S
C472 H488 0.931 . S
C473 C472 1.391 . S
C473 C477 1.376 . S
C474 C472 1.394 . S
C474 C475 1.369 . S
C474 C478 1.531 . S
C475 C474 1.369 . S
C475 C476 1.410 . S
C475 C483 1.503 . S
C476 C475 1.410 . S
C476 C477 1.392 . S
C476 C479 1.511 . S
C477 C473 1.376 . S
C477 C476 1.392 . S
C477 H489 0.929 . S
C478 C474 1.531 . S
C478 H490 0.960 . S
C478 H491 0.962 . S
C478 H492 0.960 . S
C479 C476 1.511 . S
C479 H493 0.961 . S
C479 H494 0.961 . S
C479 H495 0.961 . S
C480 C481 1.370 . S
C480 C482 1.363 . S
C480 H496 0.931 . S
C481 C480 1.370 . S
C481 C485 1.408 . S
C482 C480 1.363 . S
C482 C483 1.370 . S
C482 C486 1.524 . S
C483 C475 1.503 . S
C483 C482 1.370 . S
C483 C484 1.403 . S
C484 C483 1.403 . S
C484 C485 1.404 . S
C484 C487 1.539 . S
C485 C481 1.408 . S
C485 C484 1.404 . S
C485 H497 0.930 . S
C486 C482 1.524 . S
C486 H498 0.956 1_655 S
C486 H499 0.961 . S
C486 H500 0.961 1_655 S
C487 C484 1.539 . S
C487 H501 0.958 . S
C487 H502 0.961 . S
C487 H503 0.960 . S
H488 C472 0.931 . S
H489 C477 0.929 . S
H490 C478 0.960 . S
H491 C478 0.962 . S
H492 C478 0.960 . S
H493 C479 0.961 . S
H494 C479 0.961 . S
H495 C479 0.961 . S
H496 C480 0.931 . S
H497 C485 0.930 . S
H498 C486 0.956 1_455 S
H499 C486 0.961 . S
H500 C486 0.961 1_455 S
H501 C487 0.958 . S
H502 C487 0.961 . S
H503 C487 0.960 . S
C504 C505 1.391 . S
C504 C506 1.394 . S
C504 H520 0.931 . S
C505 C504 1.391 . S
C505 C509 1.376 . S
C506 C504 1.394 . S
C506 C507 1.369 . S
C506 C510 1.531 . S
C507 C506 1.369 . S
C507 C508 1.410 . S
C507 C515 1.503 . S
C508 C507 1.410 . S
C508 C509 1.392 . S
C508 C511 1.511 . S
C509 C505 1.376 . S
C509 C508 1.392 . S
C509 H521 0.929 . S
C510 C506 1.531 . S
C510 H522 0.960 . S
C510 H523 0.962 . S
C510 H524 0.960 . S
C511 C508 1.511 . S
C511 H525 0.961 . S
C511 H526 0.961 . S
C511 H527 0.961 . S
C512 C513 1.370 . S
C512 C514 1.363 . S
C512 H528 0.944 . S
C513 C512 1.370 . S
C513 C517 1.408 . S
C514 C512 1.363 . S
C514 C515 1.370 . S
C514 C518 1.524 . S
C515 C507 1.503 . S
C515 C514 1.370 . S
C515 C516 1.403 . S
C516 C515 1.403 . S
C516 C517 1.404 . S
C516 C519 1.539 . S
C517 C513 1.408 . S
C517 C516 1.404 . S
C517 H529 0.930 . S
C518 C514 1.524 . S
C518 H530 0.956 . S
C518 H531 0.961 . S
C518 H532 0.961 1_545 S
C519 C516 1.539 . S
C519 H533 0.958 . S
C519 H534 0.961 . S
C519 H535 0.960 . S
H520 C504 0.931 . S
H521 C509 0.929 . S
H522 C510 0.960 . S
H523 C510 0.962 . S
H524 C510 0.960 . S
H525 C511 0.961 . S
H526 C511 0.961 . S
H527 C511 0.961 . S
H528 C512 0.944 . S
H529 C517 0.930 . S
H530 C518 0.956 . S
H531 C518 0.961 . S
H532 C518 0.961 1_565 S
H533 C519 0.958 . S
H534 C519 0.961 . S
H535 C519 0.960 . S
C536 C537 1.391 . S
C536 C538 1.394 . S
C536 H552 0.931 . S
C537 C536 1.391 . S
C537 C541 1.376 . S
C538 C536 1.394 . S
C538 C539 1.369 . S
C538 C542 1.531 . S
C539 C538 1.369 . S
C539 C540 1.410 . S
C539 C547 1.503 . S
C540 C539 1.410 . S
C540 C541 1.392 . S
C540 C543 1.511 . S
C541 C537 1.376 . S
C541 C540 1.392 . S
C541 H553 0.929 . S
C542 C538 1.531 . S
C542 H554 0.960 . S
C542 H555 0.962 . S
C542 H556 0.960 . S
C543 C540 1.511 . S
C543 H557 0.961 . S
C543 H558 0.961 . S
C543 H559 0.961 . S
C544 C545 1.370 . S
C544 C546 1.363 . S
C544 H560 0.931 . S
C545 C544 1.370 . S
C545 C549 1.408 . S
C546 C544 1.363 . S
C546 C547 1.370 . S
C546 C550 1.524 . S
C547 C539 1.503 . S
C547 C546 1.370 . S
C547 C548 1.403 . S
C548 C547 1.403 . S
C548 C549 1.404 . S
C548 C551 1.539 . S
C549 C545 1.408 . S
C549 C548 1.404 . S
C549 H561 0.930 . S
C550 C546 1.524 . S
C550 H562 0.956 . S
C550 H563 0.961 . S
C550 H564 0.961 . S
C551 C548 1.539 . S
C551 H565 0.958 . S
C551 H566 0.961 . S
C551 H567 0.960 . S
H552 C536 0.931 . S
H553 C541 0.929 . S
H554 C542 0.960 . S
H555 C542 0.962 . S
H556 C542 0.960 . S
H557 C543 0.961 . S
H558 C543 0.961 . S
H559 C543 0.961 . S
H560 C544 0.931 . S
H561 C549 0.930 . S
H562 C550 0.956 . S
H563 C550 0.961 . S
H564 C550 0.961 . S
H565 C551 0.958 . S
H566 C551 0.961 . S
H567 C551 0.960 . S
C568 C569 1.391 . S
C568 C570 1.394 . S
C568 H584 0.931 . S
C569 C568 1.391 . S
C569 C573 1.376 . S
C570 C568 1.394 . S
C570 C571 1.369 . S
C570 C574 1.531 . S
C571 C570 1.369 . S
C571 C572 1.410 . S
C571 C579 1.503 . S
C572 C571 1.410 . S
C572 C573 1.392 . S
C572 C575 1.511 1_556 S
C573 C569 1.376 . S
C573 C572 1.392 . S
C573 H585 0.929 . S
C574 C570 1.531 . S
C574 H586 0.960 . S
C574 H587 0.962 . S
C574 H588 0.960 . S
C575 C572 1.511 1_554 S
C575 H589 0.961 . S
C575 H590 0.961 . S
C575 H591 0.961 . S
C576 C577 1.370 . S
C576 C578 1.363 . S
C576 H592 0.931 . S
C577 C576 1.370 . S
C577 C581 1.416 . S
C578 C576 1.363 . S
C578 C579 1.370 . S
C578 C582 1.524 . S
C579 C571 1.503 . S
C579 C578 1.370 . S
C579 C580 1.403 . S
C580 C579 1.403 . S
C580 C581 1.409 . S
C580 C583 1.539 1_556 S
C581 C577 1.416 . S
C581 C580 1.409 . S
C581 H593 0.918 1_556 S
C582 C578 1.524 . S
C582 H594 0.956 . S
C582 H595 0.961 . S
C582 H596 0.961 . S
C583 C580 1.539 1_554 S
C583 H597 0.958 1_554 S
C583 H598 0.961 . S
C583 H599 0.960 . S
H584 C568 0.931 . S
H585 C573 0.929 . S
H586 C574 0.960 . S
H587 C574 0.962 . S
H588 C574 0.960 . S
H589 C575 0.961 . S
H590 C575 0.961 . S
H591 C575 0.961 . S
H592 C576 0.931 . S
H593 C581 0.918 1_554 S
H594 C582 0.956 . S
H595 C582 0.961 . S
H596 C582 0.961 . S
H597 C583 0.958 1_556 S
H598 C583 0.961 . S
H599 C583 0.960 . S
C600 C601 1.391 . S
C600 C602 1.394 . S
C600 H616 0.931 . S
C601 C600 1.391 . S
C601 C605 1.376 . S
C602 C600 1.394 . S
C602 C603 1.369 . S
C602 C606 1.531 . S
C603 C602 1.369 . S
C603 C604 1.410 . S
C603 C611 1.503 . S
C604 C603 1.410 . S
C604 C605 1.392 . S
C604 C607 1.511 . S
C605 C601 1.376 . S
C605 C604 1.392 . S
C605 H617 0.929 . S
C606 C602 1.531 . S
C606 H618 0.960 . S
C606 H619 0.962 . S
C606 H620 0.960 . S
C607 C604 1.511 . S
C607 H621 0.961 . S
C607 H622 0.961 . S
C607 H623 0.961 . S
C608 C609 1.370 . S
C608 C610 1.363 . S
C608 H624 0.931 . S
C609 C608 1.370 . S
C609 C613 1.408 . S
C610 C608 1.363 . S
C610 C611 1.370 . S
C610 C614 1.524 . S
C611 C603 1.503 . S
C611 C610 1.370 . S
C611 C612 1.403 . S
C612 C611 1.403 . S
C612 C613 1.404 . S
C612 C615 1.539 . S
C613 C609 1.408 . S
C613 C612 1.404 . S
C613 H625 0.930 . S
C614 C610 1.524 . S
C614 H626 0.956 . S
C614 H627 0.961 . S
C614 H628 0.961 . S
C615 C612 1.539 . S
C615 H629 0.958 . S
C615 H630 0.961 . S
C615 H631 0.960 . S
H616 C600 0.931 . S
H617 C605 0.929 . S
H618 C606 0.960 . S
H619 C606 0.962 . S
H620 C606 0.960 . S
H621 C607 0.961 . S
H622 C607 0.961 . S
H623 C607 0.961 . S
H624 C608 0.931 . S
H625 C613 0.930 . S
H626 C614 0.956 . S
H627 C614 0.961 . S
H628 C614 0.961 . S
H629 C615 0.958 . S
H630 C615 0.961 . S
H631 C615 0.960 . S
C632 C633 1.391 . S
C632 C634 1.394 . S
C632 H648 0.931 . S
C633 C632 1.391 . S
C633 C637 1.376 . S
C634 C632 1.394 . S
C634 C635 1.369 . S
C634 C638 1.531 . S
C635 C634 1.369 . S
C635 C636 1.410 . S
C635 C643 1.503 . S
C636 C635 1.410 . S
C636 C637 1.392 . S
C636 C639 1.511 . S
C637 C633 1.376 . S
C637 C636 1.392 . S
C637 H649 0.929 . S
C638 C634 1.531 . S
C638 H650 0.976 . S
C638 H651 0.962 . S
C638 H652 0.960 1_455 S
C639 C636 1.511 . S
C639 H653 0.961 . S
C639 H654 0.961 . S
C639 H655 0.961 . S
C640 C641 1.370 . S
C640 C642 1.363 . S
C640 H656 0.931 . S
C641 C640 1.370 . S
C641 C645 1.408 . S
C642 C640 1.363 . S
C642 C643 1.370 . S
C642 C646 1.524 . S
C643 C635 1.503 . S
C643 C642 1.370 . S
C643 C644 1.403 . S
C644 C643 1.403 . S
C644 C645 1.404 . S
C644 C647 1.539 . S
C645 C641 1.408 . S
C645 C644 1.404 . S
C645 H657 0.930 1_455 S
C646 C642 1.524 . S
C646 H658 0.956 . S
C646 H659 0.961 . S
C646 H660 0.961 . S
C647 C644 1.539 . S
C647 H661 0.958 1_455 S
C647 H662 0.961 1_455 S
C647 H663 0.960 . S
H648 C632 0.931 . S
H649 C637 0.929 . S
H650 C638 0.976 . S
H651 C638 0.962 . S
H652 C638 0.960 1_655 S
H653 C639 0.961 . S
H654 C639 0.961 . S
H655 C639 0.961 . S
H656 C640 0.931 . S
H657 C645 0.930 1_655 S
H658 C646 0.956 . S
H659 C646 0.961 . S
H660 C646 0.961 . S
H661 C647 0.958 1_655 S
H662 C647 0.961 1_655 S
H663 C647 0.960 . S
C664 C665 1.391 . S
C664 C666 1.394 . S
C664 H680 0.931 . S
C665 C664 1.391 . S
C665 C669 1.376 . S
C666 C664 1.394 . S
C666 C667 1.369 . S
C666 C670 1.531 . S
C667 C666 1.369 . S
C667 C668 1.410 . S
C667 C675 1.503 . S
C668 C667 1.410 . S
C668 C669 1.392 . S
C668 C671 1.511 . S
C669 C665 1.376 . S
C669 C668 1.392 . S
C669 H681 0.929 . S
C670 C666 1.531 . S
C670 H682 0.960 . S
C670 H683 0.962 . S
C670 H684 0.960 . S
C671 C668 1.511 . S
C671 H685 0.961 . S
C671 H686 0.961 . S
C671 H687 0.961 . S
C672 C673 1.370 . S
C672 C674 1.363 . S
C672 H688 0.931 . S
C673 C672 1.370 . S
C673 C677 1.408 1_556 S
C674 C672 1.363 . S
C674 C675 1.370 . S
C674 C678 1.524 . S
C675 C667 1.503 . S
C675 C674 1.370 . S
C675 C676 1.403 . S
C676 C675 1.403 . S
C676 C677 1.404 1_556 S
C676 C679 1.539 1_556 S
C677 C673 1.408 1_554 S
C677 C676 1.404 1_554 S
C677 H689 0.930 . S
C678 C674 1.524 . S
C678 H690 0.956 . S
C678 H691 0.961 . S
C678 H692 0.961 . S
C679 C676 1.539 1_554 S
C679 H693 0.958 . S
C679 H694 0.961 . S
C679 H695 0.960 . S
H680 C664 0.931 . S
H681 C669 0.929 . S
H682 C670 0.960 . S
H683 C670 0.962 . S
H684 C670 0.960 . S
H685 C671 0.961 . S
H686 C671 0.961 . S
H687 C671 0.961 . S
H688 C672 0.931 . S
H689 C677 0.930 . S
H690 C678 0.956 . S
H691 C678 0.961 . S
H692 C678 0.961 . S
H693 C679 0.958 . S
H694 C679 0.961 . S
H695 C679 0.960 . S
C696 C697 1.391 . S
C696 C698 1.394 . S
C696 H712 0.931 . S
C697 C696 1.391 . S
C697 C701 1.376 . S
C698 C696 1.394 . S
C698 C699 1.369 . S
C698 C702 1.531 1_655 S
C699 C698 1.369 . S
C699 C700 1.410 . S
C699 C707 1.503 . S
C700 C699 1.410 . S
C700 C701 1.392 . S
C700 C703 1.511 . S
C701 C697 1.376 . S
C701 C700 1.392 . S
C701 H713 0.929 . S
C702 C698 1.531 1_455 S
C702 H714 0.960 . S
C702 H715 0.962 . S
C702 H716 0.960 . S
C703 C700 1.511 . S
C703 H717 0.961 . S
C703 H718 0.961 . S
C703 H719 0.961 . S
C704 C705 1.370 . S
C704 C706 1.363 . S
C704 H720 0.931 1_655 S
C705 C704 1.370 . S
C705 C709 1.408 . S
C706 C704 1.363 . S
C706 C707 1.370 . S
C706 C710 1.524 . S
C707 C699 1.503 . S
C707 C706 1.370 . S
C707 C708 1.403 . S
C708 C707 1.403 . S
C708 C709 1.404 . S
C708 C711 1.539 . S
C709 C705 1.408 . S
C709 C708 1.404 . S
C709 H721 0.930 . S
C710 C706 1.524 . S
C710 H722 0.956 1_655 S
C710 H723 0.961 . S
C710 H724 0.961 1_655 S
C711 C708 1.539 . S
C711 H725 0.958 . S
C711 H726 0.961 . S
C711 H727 0.960 . S
H712 C696 0.931 . S
H713 C701 0.929 . S
H714 C702 0.960 . S
H715 C702 0.962 . S
H716 C702 0.960 . S
H717 C703 0.961 . S
H718 C703 0.961 . S
H719 C703 0.961 . S
H720 C704 0.931 1_455 S
H721 C709 0.930 . S
H722 C710 0.956 1_455 S
H723 C710 0.961 . S
H724 C710 0.961 1_455 S
H725 C711 0.958 . S
H726 C711 0.961 . S
H727 C711 0.960 . S
C728 C729 1.391 . S
C728 C730 1.394 . S
C728 H744 0.931 . S
C729 C728 1.391 . S
C729 C733 1.376 . S
C730 C728 1.394 . S
C730 C731 1.369 . S
C730 C734 1.531 . S
C731 C730 1.369 . S
C731 C732 1.410 . S
C731 C739 1.503 . S
C732 C731 1.410 . S
C732 C733 1.392 . S
C732 C735 1.511 . S
C733 C729 1.376 . S
C733 C732 1.392 . S
C733 H745 0.929 . S
C734 C730 1.531 . S
C734 H746 0.960 . S
C734 H747 0.962 . S
C734 H748 0.960 . S
C735 C732 1.511 . S
C735 H749 0.961 . S
C735 H750 0.961 . S
C735 H751 0.961 . S
C736 C737 1.370 . S
C736 C738 1.363 . S
C736 H752 0.931 . S
C737 C736 1.370 . S
C737 C741 1.408 . S
C738 C736 1.363 . S
C738 C739 1.370 . S
C738 C742 1.524 . S
C739 C731 1.503 . S
C739 C738 1.370 . S
C739 C740 1.403 . S
C740 C739 1.403 . S
C740 C741 1.404 . S
C740 C743 1.539 . S
C741 C737 1.408 . S
C741 C740 1.404 . S
C741 H753 0.930 . S
C742 C738 1.524 . S
C742 H754 0.956 . S
C742 H755 0.961 . S
C742 H756 0.961 . S
C743 C740 1.539 . S
C743 H757 0.958 . S
C743 H758 0.961 . S
C743 H759 0.960 . S
H744 C728 0.931 . S
H745 C733 0.929 . S
H746 C734 0.960 . S
H747 C734 0.962 . S
H748 C734 0.960 . S
H749 C735 0.961 . S
H750 C735 0.961 . S
H751 C735 0.961 . S
H752 C736 0.931 . S
H753 C741 0.930 . S
H754 C742 0.956 . S
H755 C742 0.961 . S
H756 C742 0.961 . S
H757 C743 0.958 . S
H758 C743 0.961 . S
H759 C743 0.960 . S
C760 C761 1.391 . S
C760 C762 1.394 . S
C760 H776 0.931 . S
C761 C760 1.391 . S
C761 C765 1.376 . S
C762 C760 1.394 . S
C762 C763 1.369 . S
C762 C766 1.531 . S
C763 C762 1.369 . S
C763 C764 1.410 . S
C763 C771 1.503 . S
C764 C763 1.410 . S
C764 C765 1.392 . S
C764 C767 1.511 . S
C765 C761 1.376 . S
C765 C764 1.392 . S
C765 H777 0.929 . S
C766 C762 1.531 . S
C766 H778 0.960 1_565 S
C766 H779 0.962 . S
C766 H780 0.960 1_565 S
C767 C764 1.511 . S
C767 H781 0.961 1_655 S
C767 H782 0.961 . S
C767 H783 0.961 1_655 S
C768 C769 1.370 . S
C768 C770 1.363 . S
C768 H784 0.931 . S
C769 C768 1.370 . S
C769 C773 1.428 . S
C770 C768 1.363 . S
C770 C771 1.370 . S
C770 C774 1.524 . S
C771 C763 1.503 . S
C771 C770 1.370 . S
C771 C772 1.403 . S
C772 C771 1.403 . S
C772 C773 1.406 . S
C772 C775 1.539 1_565 S
C773 C769 1.428 . S
C773 C772 1.406 . S
C773 H785 0.909 1_565 S
C774 C770 1.524 . S
C774 H786 0.956 . S
C774 H787 0.961 . S
C774 H788 0.961 . S
C775 C772 1.539 1_545 S
C775 H789 0.958 . S
C775 H790 0.961 1_655 S
C775 H791 0.960 . S
H776 C760 0.931 . S
H777 C765 0.929 . S
H778 C766 0.960 1_545 S
H779 C766 0.962 . S
H780 C766 0.960 1_545 S
H781 C767 0.961 1_455 S
H782 C767 0.961 . S
H783 C767 0.961 1_455 S
H784 C768 0.931 . S
H785 C773 0.909 1_545 S
H786 C774 0.956 . S
H787 C774 0.961 . S
H788 C774 0.961 . S
H789 C775 0.958 . S
H790 C775 0.961 1_455 S
H791 C775 0.960 . S
C792 C793 1.391 . S
C792 C794 1.394 . S
C792 H808 0.931 . S
C793 C792 1.391 . S
C793 C797 1.376 . S
C794 C792 1.394 . S
C794 C795 1.369 . S
C794 C798 1.531 . S
C795 C794 1.369 . S
C795 C796 1.410 . S
C795 C803 1.503 . S
C796 C795 1.410 . S
C796 C797 1.392 . S
C796 C799 1.511 . S
C797 C793 1.376 . S
C797 C796 1.392 . S
C797 H809 0.929 . S
C798 C794 1.531 . S
C798 H810 0.960 . S
C798 H811 0.962 . S
C798 H812 0.960 . S
C799 C796 1.511 . S
C799 H813 0.961 . S
C799 H814 0.961 . S
C799 H815 0.961 . S
C800 C801 1.370 . S
C800 C802 1.363 . S
C800 H816 0.931 . S
C801 C800 1.370 . S
C801 C805 1.408 . S
C802 C800 1.363 . S
C802 C803 1.370 . S
C802 C806 1.524 . S
C803 C795 1.503 . S
C803 C802 1.370 . S
C803 C804 1.403 . S
C804 C803 1.403 . S
C804 C805 1.404 . S
C804 C807 1.539 . S
C805 C801 1.408 . S
C805 C804 1.404 . S
C805 H817 0.930 . S
C806 C802 1.524 . S
C806 H818 0.956 . S
C806 H819 0.961 . S
C806 H820 0.961 . S
C807 C804 1.539 . S
C807 H821 0.958 . S
C807 H822 0.961 . S
C807 H823 0.960 . S
H808 C792 0.931 . S
H809 C797 0.929 . S
H810 C798 0.960 . S
H811 C798 0.962 . S
H812 C798 0.960 . S
H813 C799 0.961 . S
H814 C799 0.961 . S
H815 C799 0.961 . S
H816 C800 0.931 . S
H817 C805 0.930 . S
H818 C806 0.956 . S
H819 C806 0.961 . S
H820 C806 0.961 . S
H821 C807 0.958 . S
H822 C807 0.961 . S
H823 C807 0.960 . S
C824 C825 1.391 . S
C824 C826 1.394 . S
C824 H840 0.931 . S
C825 C824 1.391 . S
C825 C829 1.376 . S
C826 C824 1.394 . S
C826 C827 1.369 . S
C826 C830 1.531 . S
C827 C826 1.369 . S
C827 C828 1.410 . S
C827 C835 1.503 . S
C828 C827 1.410 . S
C828 C829 1.392 . S
C828 C831 1.511 . S
C829 C825 1.376 . S
C829 C828 1.392 . S
C829 H841 0.929 . S
C830 C826 1.531 . S
C830 H842 0.960 . S
C830 H843 0.962 . S
C830 H844 0.960 . S
C831 C828 1.511 . S
C831 H845 0.961 . S
C831 H846 0.961 . S
C831 H847 0.961 . S
C832 C833 1.370 . S
C832 C834 1.363 . S
C832 H848 0.931 . S
C833 C832 1.370 . S
C833 C837 1.408 . S
C834 C832 1.363 . S
C834 C835 1.370 . S
C834 C838 1.524 . S
C835 C827 1.503 . S
C835 C834 1.370 . S
C835 C836 1.403 . S
C836 C835 1.403 . S
C836 C837 1.404 . S
C836 C839 1.539 . S
C837 C833 1.408 . S
C837 C836 1.404 . S
C837 H849 0.930 . S
C838 C834 1.524 . S
C838 H850 0.956 . S
C838 H851 0.961 . S
C838 H852 0.961 . S
C839 C836 1.539 . S
C839 H853 0.958 . S
C839 H854 0.961 . S
C839 H855 0.960 . S
H840 C824 0.931 . S
H841 C829 0.929 . S
H842 C830 0.960 . S
H843 C830 0.962 . S
H844 C830 0.960 . S
H845 C831 0.961 . S
H846 C831 0.961 . S
H847 C831 0.961 . S
H848 C832 0.931 . S
H849 C837 0.930 . S
H850 C838 0.956 . S
H851 C838 0.961 . S
H852 C838 0.961 . S
H853 C839 0.958 . S
H854 C839 0.961 . S
H855 C839 0.960 . S
C856 C857 1.391 . S
C856 C858 1.394 . S
C856 H872 0.931 . S
C857 C856 1.391 . S
C857 C861 1.376 . S
C858 C856 1.394 . S
C858 C859 1.369 . S
C858 C862 1.531 . S
C859 C858 1.369 . S
C859 C860 1.410 . S
C859 C867 1.503 . S
C860 C859 1.410 . S
C860 C861 1.392 . S
C860 C863 1.511 . S
C861 C857 1.376 . S
C861 C860 1.392 . S
C861 H873 0.929 . S
C862 C858 1.531 . S
C862 H874 0.960 . S
C862 H875 0.962 . S
C862 H876 0.960 1_455 S
C863 C860 1.511 . S
C863 H877 0.961 . S
C863 H878 0.961 . S
C863 H879 0.961 . S
C864 C865 1.370 . S
C864 C866 1.363 . S
C864 H880 0.931 . S
C865 C864 1.370 . S
C865 C869 1.408 . S
C866 C864 1.363 . S
C866 C867 1.370 . S
C866 C870 1.524 . S
C867 C859 1.503 . S
C867 C866 1.370 . S
C867 C868 1.403 . S
C868 C867 1.403 . S
C868 C869 1.404 . S
C868 C871 1.539 . S
C869 C865 1.408 . S
C869 C868 1.404 . S
C869 H881 0.930 . S
C870 C866 1.524 . S
C870 H882 0.956 . S
C870 H883 0.961 . S
C870 H884 0.961 . S
C871 C868 1.539 . S
C871 H885 0.958 1_455 S
C871 H886 0.961 . S
C871 H887 0.960 . S
H872 C856 0.931 . S
H873 C861 0.929 . S
H874 C862 0.960 . S
H875 C862 0.962 . S
H876 C862 0.960 1_655 S
H877 C863 0.961 . S
H878 C863 0.961 . S
H879 C863 0.961 . S
H880 C864 0.931 . S
H881 C869 0.930 . S
H882 C870 0.956 . S
H883 C870 0.961 . S
H884 C870 0.961 . S
H885 C871 0.958 1_655 S
H886 C871 0.961 . S
H887 C871 0.960 . S
C888 C889 1.391 . S
C888 C890 1.394 . S
C888 H904 0.931 . S
C889 C888 1.391 . S
C889 C893 1.376 . S
C890 C888 1.394 . S
C890 C891 1.369 . S
C890 C894 1.531 1_565 S
C891 C890 1.369 . S
C891 C892 1.410 . S
C891 C899 1.503 . S
C892 C891 1.410 . S
C892 C893 1.392 . S
C892 C895 1.511 . S
C893 C889 1.376 . S
C893 C892 1.392 . S
C893 H905 0.929 . S
C894 C890 1.531 1_545 S
C894 H906 0.960 . S
C894 H907 0.962 1_546 S
C894 H908 0.960 . S
C895 C892 1.511 . S
C895 H909 0.961 . S
C895 H910 0.961 . S
C895 H911 0.961 . S
C896 C897 1.370 . S
C896 C898 1.363 . S
C896 H912 0.931 1_556 S
C897 C896 1.370 . S
C897 C901 1.408 . S
C898 C896 1.363 . S
C898 C899 1.370 . S
C898 C902 1.524 1_556 S
C899 C891 1.503 . S
C899 C898 1.370 . S
C899 C900 1.403 . S
C900 C899 1.403 . S
C900 C901 1.404 . S
C900 C903 1.539 1_565 S
C901 C897 1.408 . S
C901 C900 1.404 . S
C901 H913 0.930 1_565 S
C902 C898 1.524 1_554 S
C902 H914 0.956 . S
C902 H915 0.961 1_554 S
C902 H916 0.961 . S
C903 C900 1.539 1_545 S
C903 H917 0.958 . S
C903 H918 0.961 . S
C903 H919 0.960 1_545 S
H904 C888 0.931 . S
H905 C893 0.929 . S
H906 C894 0.960 . S
H907 C894 0.962 1_564 S
H908 C894 0.960 . S
H909 C895 0.961 . S
H910 C895 0.961 . S
H911 C895 0.961 . S
H912 C896 0.931 1_554 S
H913 C901 0.930 1_545 S
H914 C902 0.956 . S
H915 C902 0.961 1_556 S
H916 C902 0.961 . S
H917 C903 0.958 . S
H918 C903 0.961 . S
H919 C903 0.960 1_565 S
C920 C921 1.391 . S
C920 C922 1.394 . S
C920 H936 0.931 . S
C921 C920 1.391 . S
C921 C925 1.376 . S
C922 C920 1.394 . S
C922 C923 1.369 . S
C922 C926 1.531 . S
C923 C922 1.369 . S
C923 C924 1.410 . S
C923 C931 1.503 . S
C924 C923 1.410 . S
C924 C925 1.392 . S
C924 C927 1.511 . S
C925 C921 1.376 . S
C925 C924 1.392 . S
C925 H937 0.929 . S
C926 C922 1.531 . S
C926 H938 0.960 . S
C926 H939 0.962 . S
C926 H940 0.960 . S
C927 C924 1.511 . S
C927 H941 0.961 . S
C927 H942 0.961 . S
C927 H943 0.961 . S
C928 C929 1.370 . S
C928 C930 1.363 . S
C928 H944 0.931 . S
C929 C928 1.370 . S
C929 C933 1.408 . S
C930 C928 1.363 . S
C930 C931 1.370 . S
C930 C934 1.524 . S
C931 C923 1.503 . S
C931 C930 1.370 . S
C931 C932 1.403 . S
C932 C931 1.403 . S
C932 C933 1.404 . S
C932 C935 1.539 . S
C933 C929 1.408 . S
C933 C932 1.404 . S
C933 H945 0.930 . S
C934 C930 1.524 . S
C934 H946 0.956 . S
C934 H947 0.961 . S
C934 H948 0.961 . S
C935 C932 1.539 . S
C935 H949 0.958 . S
C935 H950 0.961 . S
C935 H951 0.960 . S
H936 C920 0.931 . S
H937 C925 0.929 . S
H938 C926 0.960 . S
H939 C926 0.962 . S
H940 C926 0.960 . S
H941 C927 0.961 . S
H942 C927 0.961 . S
H943 C927 0.961 . S
H944 C928 0.931 . S
H945 C933 0.930 . S
H946 C934 0.956 . S
H947 C934 0.961 . S
H948 C934 0.961 . S
H949 C935 0.958 . S
H950 C935 0.961 . S
H951 C935 0.960 . S
C952 C953 1.391 . S
C952 C954 1.394 . S
C952 H968 0.931 . S
C953 C952 1.391 . S
C953 C957 1.376 . S
C954 C952 1.394 . S
C954 C955 1.369 . S
C954 C958 1.531 . S
C955 C954 1.369 . S
C955 C956 1.410 . S
C955 C963 1.503 . S
C956 C955 1.410 . S
C956 C957 1.392 . S
C956 C959 1.511 . S
C957 C953 1.376 . S
C957 C956 1.392 . S
C957 H969 0.929 . S
C958 C954 1.531 . S
C958 H970 0.960 . S
C958 H971 0.962 . S
C958 H972 0.960 . S
C959 C956 1.511 . S
C959 H973 0.961 . S
C959 H974 0.961 . S
C959 H975 0.961 . S
C960 C961 1.370 . S
C960 C962 1.363 . S
C960 H976 0.931 . S
C961 C960 1.370 . S
C961 C965 1.408 . S
C962 C960 1.363 . S
C962 C963 1.370 . S
C962 C966 1.524 . S
C963 C955 1.503 . S
C963 C962 1.370 . S
C963 C964 1.403 . S
C964 C963 1.403 . S
C964 C965 1.404 . S
C964 C967 1.539 . S
C965 C961 1.408 . S
C965 C964 1.404 . S
C965 H977 0.930 . S
C966 C962 1.524 . S
C966 H978 0.956 . S
C966 H979 0.961 . S
C966 H980 0.961 . S
C967 C964 1.539 . S
C967 H981 0.958 . S
C967 H982 0.961 . S
C967 H983 0.960 . S
H968 C952 0.931 . S
H969 C957 0.929 . S
H970 C958 0.960 . S
H971 C958 0.962 . S
H972 C958 0.960 . S
H973 C959 0.961 . S
H974 C959 0.961 . S
H975 C959 0.961 . S
H976 C960 0.931 . S
H977 C965 0.930 . S
H978 C966 0.956 . S
H979 C966 0.961 . S
H980 C966 0.961 . S
H981 C967 0.958 . S
H982 C967 0.961 . S
H983 C967 0.960 . S
C984 C985 1.391 . S
C984 C986 1.394 . S
C984 H1000 0.931 . S
C985 C984 1.391 . S
C985 C989 1.376 . S
C986 C984 1.394 . S
C986 C987 1.369 . S
C986 C990 1.531 . S
C987 C986 1.369 . S
C987 C988 1.410 . S
C987 C995 1.503 . S
C988 C987 1.410 . S
C988 C989 1.392 . S
C988 C991 1.511 . S
C989 C985 1.376 . S
C989 C988 1.392 . S
C989 H1001 0.929 . S
C990 C986 1.531 . S
C990 H1002 0.960 . S
C990 H1003 0.962 . S
C990 H1004 0.960 . S
C991 C988 1.511 . S
C991 H1005 0.961 . S
C991 H1006 0.961 . S
C991 H1007 0.961 . S
C992 C993 1.370 . S
C992 C994 1.363 . S
C992 H1008 0.931 . S
C993 C992 1.370 . S
C993 C997 1.408 . S
C994 C992 1.363 . S
C994 C995 1.370 . S
C994 C998 1.524 . S
C995 C987 1.503 . S
C995 C994 1.370 . S
C995 C996 1.403 . S
C996 C995 1.403 . S
C996 C997 1.404 . S
C996 C999 1.539 . S
C997 C993 1.408 . S
C997 C996 1.404 . S
C997 H1009 0.930 . S
C998 C994 1.524 . S
C998 H1010 0.956 . S
C998 H1011 0.961 . S
C998 H1012 0.961 . S
C999 C996 1.539 . S
C999 H1013 0.958 . S
C999 H1014 0.961 . S
C999 H1015 0.960 . S
H1000 C984 0.931 . S
H1001 C989 0.929 . S
H1002 C990 0.960 . S
H1003 C990 0.962 . S
H1004 C990 0.960 . S
H1005 C991 0.961 . S
H1006 C991 0.961 . S
H1007 C991 0.961 . S
H1008 C992 0.931 . S
H1009 C997 0.930 . S
H1010 C998 0.956 . S
H1011 C998 0.961 . S
H1012 C998 0.961 . S
H1013 C999 0.958 . S
H1014 C999 0.961 . S
H1015 C999 0.960 . S
C1016 C1017 1.391 . S
C1016 C1018 1.394 . S
C1016 H1032 0.931 . S
C1017 C1016 1.391 . S
C1017 C1021 1.376 . S
C1018 C1016 1.394 . S
C1018 C1019 1.369 . S
C1018 C1022 1.531 . S
C1019 C1018 1.369 . S
C1019 C1020 1.410 . S
C1019 C1027 1.503 . S
C1020 C1019 1.410 . S
C1020 C1021 1.392 . S
C1020 C1023 1.511 . S
C1021 C1017 1.376 . S
C1021 C1020 1.392 . S
C1021 H1033 0.929 . S
C1022 C1018 1.531 . S
C1022 H1034 0.960 . S
C1022 H1035 0.962 . S
C1022 H1036 0.960 . S
C1023 C1020 1.511 . S
C1023 H1037 0.972 1_655 S
C1023 H1038 0.961 . S
C1023 H1039 0.961 1_655 S
C1024 C1025 1.358 1_554 S
C1024 C1026 1.359 1_554 S
C1024 H1040 0.949 . S
C1025 C1024 1.358 1_556 S
C1025 C1029 1.408 . S
C1026 C1024 1.359 1_556 S
C1026 C1027 1.370 . S
C1026 C1030 1.524 1_556 S
C1027 C1019 1.503 . S
C1027 C1026 1.370 . S
C1027 C1028 1.403 . S
C1028 C1027 1.403 . S
C1028 C1029 1.404 . S
C1028 C1031 1.539 . S
C1029 C1025 1.408 . S
C1029 C1028 1.404 . S
C1029 H1041 0.929 . S
C1030 C1026 1.524 1_554 S
C1030 H1042 0.956 . S
C1030 H1043 0.961 . S
C1030 H1044 0.961 . S
C1031 C1028 1.539 . S
C1031 H1045 0.958 . S
C1031 H1046 0.961 1_655 S
C1031 H1047 0.960 . S
H1032 C1016 0.931 . S
H1033 C1021 0.929 . S
H1034 C1022 0.960 . S
H1035 C1022 0.962 . S
H1036 C1022 0.960 . S
H1037 C1023 0.972 1_455 S
H1038 C1023 0.961 . S
H1039 C1023 0.961 1_455 S
H1040 C1024 0.949 . S
H1041 C1029 0.929 . S
H1042 C1030 0.956 . S
H1043 C1030 0.961 . S
H1044 C1030 0.961 . S
H1045 C1031 0.958 . S
H1046 C1031 0.961 1_455 S
H1047 C1031 0.960 . S
C1048 C1049 1.391 . S
C1048 C1050 1.394 . S
C1048 H1064 0.931 . S
C1049 C1048 1.391 . S
C1049 C1053 1.376 . S
C1050 C1048 1.394 . S
C1050 C1051 1.369 . S
C1050 C1054 1.531 . S
C1051 C1050 1.369 . S
C1051 C1052 1.410 . S
C1051 C1059 1.503 . S
C1052 C1051 1.410 . S
C1052 C1053 1.392 . S
C1052 C1055 1.511 . S
C1053 C1049 1.376 . S
C1053 C1052 1.392 . S
C1053 H1065 0.929 . S
C1054 C1050 1.531 . S
C1054 H1066 0.960 . S
C1054 H1067 0.962 . S
C1054 H1068 0.960 . S
C1055 C1052 1.511 . S
C1055 H1069 0.961 . S
C1055 H1070 0.961 . S
C1055 H1071 0.961 . S
C1056 C1057 1.370 . S
C1056 C1058 1.363 . S
C1056 H1072 0.931 . S
C1057 C1056 1.370 . S
C1057 C1061 1.408 . S
C1058 C1056 1.363 . S
C1058 C1059 1.370 . S
C1058 C1062 1.524 . S
C1059 C1051 1.503 . S
C1059 C1058 1.370 . S
C1059 C1060 1.403 . S
C1060 C1059 1.403 . S
C1060 C1061 1.404 . S
C1060 C1063 1.539 . S
C1061 C1057 1.408 . S
C1061 C1060 1.404 . S
C1061 H1073 0.930 . S
C1062 C1058 1.524 . S
C1062 H1074 0.956 . S
C1062 H1075 0.961 . S
C1062 H1076 0.961 . S
C1063 C1060 1.539 . S
C1063 H1077 0.958 . S
C1063 H1078 0.961 . S
C1063 H1079 0.960 . S
H1064 C1048 0.931 . S
H1065 C1053 0.929 . S
H1066 C1054 0.960 . S
H1067 C1054 0.962 . S
H1068 C1054 0.960 . S
H1069 C1055 0.961 . S
H1070 C1055 0.961 . S
H1071 C1055 0.961 . S
H1072 C1056 0.931 . S
H1073 C1061 0.930 . S
H1074 C1062 0.956 . S
H1075 C1062 0.961 . S
H1076 C1062 0.961 . S
H1077 C1063 0.958 . S
H1078 C1063 0.961 . S
H1079 C1063 0.960 . S
C1080 C1081 1.391 . S
C1080 C1082 1.394 . S
C1080 H1096 0.931 . S
C1081 C1080 1.391 . S
C1081 C1085 1.376 . S
C1082 C1080 1.394 . S
C1082 C1083 1.369 . S
C1082 C1086 1.531 1_455 S
C1083 C1082 1.369 . S
C1083 C1084 1.410 . S
C1083 C1091 1.503 . S
C1084 C1083 1.410 . S
C1084 C1085 1.392 . S
C1084 C1087 1.511 . S
C1085 C1081 1.376 . S
C1085 C1084 1.392 . S
C1085 H1097 0.929 . S
C1086 C1082 1.531 1_655 S
C1086 H1098 0.952 1_655 S
C1086 H1099 0.962 . S
C1086 H1100 0.960 . S
C1087 C1084 1.511 . S
C1087 H1101 0.961 . S
C1087 H1102 0.961 . S
C1087 H1103 0.961 . S
C1088 C1089 1.370 . S
C1088 C1090 1.363 . S
C1088 H1104 0.931 . S
C1089 C1088 1.370 . S
C1089 C1093 1.408 . S
C1090 C1088 1.363 . S
C1090 C1091 1.370 . S
C1090 C1094 1.524 . S
C1091 C1083 1.503 . S
C1091 C1090 1.370 . S
C1091 C1092 1.403 . S
C1092 C1091 1.403 . S
C1092 C1093 1.404 . S
C1092 C1095 1.539 . S
C1093 C1089 1.408 . S
C1093 C1092 1.404 . S
C1093 H1105 0.930 . S
C1094 C1090 1.524 . S
C1094 H1106 0.956 1_455 S
C1094 H1107 0.961 . S
C1094 H1108 0.948 1_455 S
C1095 C1092 1.539 . S
C1095 H1109 0.958 . S
C1095 H1110 0.961 . S
C1095 H1111 0.960 . S
H1096 C1080 0.931 . S
H1097 C1085 0.929 . S
H1098 C1086 0.952 1_455 S
H1099 C1086 0.962 . S
H1100 C1086 0.960 . S
H1101 C1087 0.961 . S
H1102 C1087 0.961 . S
H1103 C1087 0.961 . S
H1104 C1088 0.931 . S
H1105 C1093 0.930 . S
H1106 C1094 0.956 1_655 S
H1107 C1094 0.961 . S
H1108 C1094 0.948 1_655 S
H1109 C1095 0.958 . S
H1110 C1095 0.961 . S
H1111 C1095 0.960 . S
C1112 C1113 1.391 . S
C1112 C1114 1.394 . S
C1112 H1128 0.931 . S
C1113 C1112 1.391 . S
C1113 C1117 1.376 . S
C1114 C1112 1.394 . S
C1114 C1115 1.369 . S
C1114 C1118 1.531 . S
C1115 C1114 1.369 . S
C1115 C1116 1.410 . S
C1115 C1123 1.503 . S
C1116 C1115 1.410 . S
C1116 C1117 1.392 . S
C1116 C1119 1.511 . S
C1117 C1113 1.376 . S
C1117 C1116 1.392 . S
C1117 H1129 0.929 . S
C1118 C1114 1.531 . S
C1118 H1130 0.960 . S
C1118 H1131 0.962 . S
C1118 H1132 0.960 . S
C1119 C1116 1.511 . S
C1119 H1133 0.961 . S
C1119 H1134 0.961 . S
C1119 H1135 0.961 . S
C1120 C1121 1.370 . S
C1120 C1122 1.363 . S
C1120 H1136 0.931 . S
C1121 C1120 1.370 . S
C1121 C1125 1.408 . S
C1122 C1120 1.363 . S
C1122 C1123 1.370 . S
C1122 C1126 1.524 . S
C1123 C1115 1.503 . S
C1123 C1122 1.370 . S
C1123 C1124 1.403 . S
C1124 C1123 1.403 . S
C1124 C1125 1.404 . S
C1124 C1127 1.539 . S
C1125 C1121 1.408 . S
C1125 C1124 1.404 . S
C1125 H1137 0.930 . S
C1126 C1122 1.524 . S
C1126 H1138 0.956 . S
C1126 H1139 0.961 . S
C1126 H1140 0.961 . S
C1127 C1124 1.539 . S
C1127 H1141 0.958 . S
C1127 H1142 0.961 . S
C1127 H1143 0.960 . S
H1128 C1112 0.931 . S
H1129 C1117 0.929 . S
H1130 C1118 0.960 . S
H1131 C1118 0.962 . S
H1132 C1118 0.960 . S
H1133 C1119 0.961 . S
H1134 C1119 0.961 . S
H1135 C1119 0.961 . S
H1136 C1120 0.931 . S
H1137 C1125 0.930 . S
H1138 C1126 0.956 . S
H1139 C1126 0.961 . S
H1140 C1126 0.961 . S
H1141 C1127 0.958 . S
H1142 C1127 0.961 . S
H1143 C1127 0.960 . S
C377 C29 2.071 . S
C385 C272 2.205 . S
C409 C49 1.079 . S
C417 N292 1.065 . S
C449 C326 2.017 . S
C441 C93 1.896 . S
C473 C119 1.188 . S
C481 N360 1.217 . S
C513 C313 2.306 . S
C505 C17 2.181 . S
C545 N270 1.182 . S
C537 C61 1.234 . S
C577 C347 1.971 1_556 S
C569 C81 1.914 . S
C609 N322 1.039 . S
C601 C125 0.947 . S
C633 C23 1.706 . S
C641 C362 1.797 . S
C673 C296 1.680 . S
C665 C87 1.607 . S
C697 C113 1.343 . S
C705 C257 1.481 . S
C729 C55 1.432 . S
C737 C343 1.426 . S
C769 C283 2.136 . S
C761 C157 2.117 . S
C793 C189 1.025 . S
C801 N300 1.096 . S
C825 C221 1.980 . S
C833 C317 1.981 . S
C857 C253 1.240 . S
C865 N352 1.254 . S
C889 C145 2.348 . S
C897 C302 2.349 . S
C929 N262 1.099 . S
C921 C183 1.141 . S
C961 C356 2.010 . S
C953 C209 1.993 . S
C993 N330 1.008 . S
C985 C247 0.984 . S
C1017 C151 1.807 . S
C1025 C373 1.814 . S
C1057 C287 1.684 . S
C1049 C215 1.682 . S
C1089 C266 1.471 . S
C1081 C241 1.374 . S
C1113 C177 1.396 . S
C1121 C332 1.462 . S
