# Generated by pormake.
# Topology tsx, (6,3)-cn, num edge types: 1
# Building blocks:
#     Node 0, Type 0, BuildingBlock: LEVNOQ01_clean_sbu_1, # of connection points: 6
#     Node 1, Type 0, BuildingBlock: LEVNOQ01_clean_sbu_1, # of connection points: 6
#     Node 2, Type 1, BuildingBlock: BETDIP_clean_linker_0, # of connection points: 3
#     Node 3, Type 1, BuildingBlock: BETDIP_clean_linker_0, # of connection points: 3
#     Node 4, Type 1, BuildingBlock: BETDIP_clean_linker_0, # of connection points: 3
#     Node 5, Type 1, BuildingBlock: BETDIP_clean_linker_0, # of connection points: 3
#     Edge 6, Type (0, 1), BuildingBlock: EZIPEK_clean_linker_0, # of connection points: 2
#     Edge 7, Type (0, 1), BuildingBlock: EZIPEK_clean_linker_0, # of connection points: 2
#     Edge 8, Type (0, 1), BuildingBlock: EZIPEK_clean_linker_0, # of connection points: 2
#     Edge 9, Type (0, 1), BuildingBlock: EZIPEK_clean_linker_0, # of connection points: 2
#     Edge 10, Type (0, 1), BuildingBlock: EZIPEK_clean_linker_0, # of connection points: 2
#     Edge 11, Type (0, 1), BuildingBlock: EZIPEK_clean_linker_0, # of connection points: 2
#     Edge 12, Type (0, 1), BuildingBlock: EZIPEK_clean_linker_0, # of connection points: 2
#     Edge 13, Type (0, 1), BuildingBlock: EZIPEK_clean_linker_0, # of connection points: 2
#     Edge 14, Type (0, 1), BuildingBlock: EZIPEK_clean_linker_0, # of connection points: 2
#     Edge 15, Type (0, 1), BuildingBlock: EZIPEK_clean_linker_0, # of connection points: 2
#     Edge 16, Type (0, 1), BuildingBlock: EZIPEK_clean_linker_0, # of connection points: 2
#     Edge 17, Type (0, 1), BuildingBlock: EZIPEK_clean_linker_0, # of connection points: 2
# Relax obj value: 0.102
# Max RMSD: 0.148
# Mean RMSD: 0.111
data_MOF--net-tsx--node1-LEVNOQ01_clean_sbu_1--node2-BETDIP_clean_linker_0--edge1-EZIPEK_clean_linker_0
_symmetry_space_group_name_H-M    P1
_symmetry_Int_Tables_number       1
_symmetry_cell_setting            triclinic
loop_
_symmetry_equiv_pos_as_xyz
'x, y, z'
_cell_length_a     13.634198
_cell_length_b     16.67379
_cell_length_c     25.999409
_cell_angle_alpha  98.145108
_cell_angle_beta   103.2341
_cell_angle_gamma 92.471696
loop_
_atom_site_label
_atom_site_type_symbol
_atom_site_fract_x
_atom_site_fract_y
_atom_site_fract_z
_atom_type_partial_charge
O0 O 0.22149 0.011 0.09396 0.0
Mg1 Mg 0.27063 0.03713 0.02657 0.0
O2 O 0.05447 0.0127 0.06308 0.0
Mg3 Mg 0.0272 0.03588 -0.02506 0.0
O4 O 0.17397 0.11564 -0.00529 0.0
O5 O 0.33814 0.14997 0.02406 0.0
O6 O 0.00581 0.06125 0.88751 0.0
O7 O 0.94718 0.15542 -0.00652 0.0
Mg8 Mg 0.79189 0.0139 0.90261 0.0
O9 O 0.87917 0.95868 0.9585 0.0
O10 O 0.8574 0.00776 0.83668 0.0
O11 O 0.79086 0.13483 0.94077 0.0
O12 O 0.71927 0.91473 0.92321 0.0
C13 C 0.18992 0.89039 0.94819 0.0
C14 C 0.13173 0.00389 0.0999 0.0
C15 C 0.24887 0.16988 0.00369 0.0
C16 C 0.944 0.04346 0.84189 0.0
C17 C 0.8605 0.18044 -0.02542 0.0
C18 C 0.80322 0.90858 0.95676 0.0
O19 O 0.26997 0.9359 0.96901 0.0
O20 O 0.10245 0.91399 0.95049 0.0
O21 O 0.75998 0.51316 0.61623 0.0
Mg22 Mg 0.81739 0.52959 0.54845 0.0
O23 O 0.59456 0.4975 0.57762 0.0
Mg24 Mg 0.58178 0.49372 0.48729 0.0
O25 O 0.71369 0.59069 0.50417 0.0
O26 O 0.87154 0.64281 0.53788 0.0
O27 O 0.57891 0.49112 0.39683 0.0
O28 O 0.48043 0.60326 0.48538 0.0
Mg29 Mg 0.36759 0.43867 0.40653 0.0
O30 O 0.4459 0.39935 0.47318 0.0
O31 O 0.44325 0.4185 0.34488 0.0
O32 O 0.33477 0.56013 0.42683 0.0
O33 O 0.29408 0.34278 0.42732 0.0
C34 C 0.77002 0.36765 0.48487 0.0
C35 C 0.66825 0.50259 0.61872 0.0
C36 C 0.78129 0.6506 0.51123 0.0
C37 C 0.52823 0.45675 0.35083 0.0
C38 C 0.39281 0.61629 0.45895 0.0
C39 C 0.37132 0.34505 0.46702 0.0
O40 O 0.83932 0.42492 0.49898 0.0
O41 O 0.67912 0.38113 0.48611 0.0
H42 H 0.14117 0.94395 0.46142 0.0
H43 H 0.0305 0.03847 0.3152 0.0
H44 H 0.22133 0.84137 0.31647 0.0
H45 H 0.90248 0.07061 0.35008 0.0
C46 C 0.93712 0.08998 0.3922 0.0
C47 C 0.13515 0.94206 0.41904 0.0
C48 C 0.18633 0.88478 0.39226 0.0
C49 C 0.07382 -0.00546 0.39095 0.0
C50 C 0.07069 -0.00577 0.33678 0.0
C51 C 0.12409 0.9398 0.31017 0.0
C52 C 0.17995 0.8836 0.33737 0.0
N53 N 0.01855 0.04875 0.41824 0.0
H54 H 0.98592 0.96364 0.48523 0.0
H55 H 0.09362 0.12284 0.63347 0.0
H56 H 0.83346 0.96133 0.61275 0.0
H57 H 0.24428 0.10135 0.61345 0.0
C58 C 0.22483 0.10959 0.57175 0.0
C59 C 0.97283 -0.01024 0.52281 0.0
C60 C 0.88776 0.96201 0.54009 0.0
C61 C 0.04743 0.04759 0.55586 0.0
C62 C 0.0384 0.07755 0.60734 0.0
C63 C 0.96307 0.04391 0.62759 0.0
C64 C 0.88779 0.9879 0.59433 0.0
N65 N 0.13194 0.07373 0.53718 0.0
H66 H 0.60297 0.51796 -0.02137 0.0
H67 H 0.49604 0.56989 0.819 0.0
H68 H 0.71707 0.39711 0.84945 0.0
H69 H 0.34029 0.56013 0.84641 0.0
C70 C 0.36538 0.60098 0.88414 0.0
C71 C 0.60247 0.50685 0.93679 0.0
C72 C 0.6647 0.44901 0.91866 0.0
C73 C 0.5357 0.54626 0.90031 0.0
C74 C 0.54135 0.53565 0.8468 0.0
C75 C 0.60888 0.48422 0.82916 0.0
C76 C 0.66705 0.43857 0.86424 0.0
N77 N 0.46358 0.59658 0.91736 0.0
H78 H 0.41815 0.55795 -0.00112 0.0
H79 H 0.63711 0.59884 0.1482 0.0
H80 H 0.4095 0.40194 0.11645 0.0
H81 H 0.74398 0.625 0.09234 0.0
C82 C 0.69619 0.66261 0.06796 0.0
C83 C 0.45108 0.53685 0.03548 0.0
C84 C 0.406 0.46891 0.05043 0.0
C85 C 0.53962 0.57941 0.06862 0.0
C86 C 0.5752 0.56146 0.12028 0.0
C87 C 0.52505 0.49998 0.13783 0.0
C88 C 0.44505 0.45113 0.10229 0.0
N89 N 0.59021 0.64157 0.04996 0.0
C90 C 0.20353 0.31014 0.03197 0.0
C91 C 0.23694 0.25446 -0.00566 0.0
C92 C 0.32544 0.36613 0.96775 0.0
C93 C 0.31662 0.41595 0.01523 0.0
N94 N 0.20632 0.4515 0.07279 0.0
N95 N 0.31007 0.22915 0.9186 0.0
C96 C 0.23932 0.39339 0.03973 0.0
C97 C 0.28904 0.2831 0.9586 0.0
N98 N 0.14671 0.28223 0.06362 0.0
N99 N 0.3641 0.39838 0.93072 0.0
H100 H 0.27924 0.16894 0.90992 0.0
H101 H 0.35975 0.24294 0.89551 0.0
H102 H 0.38773 0.45922 0.93565 0.0
H103 H 0.3644 0.36691 0.89322 0.0
H104 H 0.1285 0.31838 0.09562 0.0
H105 H 0.11997 0.22142 0.05851 0.0
H106 H 0.14631 0.44129 0.09022 0.0
H107 H 0.23502 0.51212 0.07868 0.0
C108 C 0.23789 0.7989 0.87562 0.0
C109 C 0.20284 0.80732 0.92307 0.0
C110 C 0.24737 0.66934 0.93517 0.0
C111 C 0.30266 0.66912 0.89508 0.0
N112 N 0.34811 0.7322 0.82491 0.0
N113 N 0.17117 0.75052 -0.00156 0.0
C114 C 0.29605 0.733 0.86406 0.0
C115 C 0.20532 0.74198 0.95266 0.0
N116 N 0.21379 0.85386 0.84149 0.0
N117 N 0.2315 0.59942 0.95475 0.0
H118 H 0.13595 0.80159 0.0109 0.0
H119 H 0.18195 0.70882 0.02512 0.0
H120 H 0.25577 0.5444 0.93984 0.0
H121 H 0.18526 0.59398 -0.01892 0.0
H122 H 0.22987 0.8487 0.80394 0.0
H123 H 0.16697 0.89968 0.8489 0.0
H124 H 0.35527 0.78133 0.80502 0.0
H125 H 0.38955 0.68403 0.81437 0.0
C126 C 0.74806 0.87305 0.03541 0.0
C127 C 0.8042 0.85347 -0.00357 0.0
C128 C 0.81627 0.71555 0.01797 0.0
C129 C 0.74321 0.73064 0.04864 0.0
N130 N 0.64657 0.82471 0.09184 0.0
N131 N 0.89709 0.75926 0.95133 0.0
C132 C 0.71184 0.81003 0.05934 0.0
C133 C 0.84188 0.77607 -0.01125 0.0
N134 N 0.7306 0.95237 0.04956 0.0
N135 N 0.86025 0.64344 0.01634 0.0
H136 H 0.9201 0.80359 0.93105 0.0
H137 H 0.91647 0.70125 0.93878 0.0
H138 H 0.83983 0.59594 0.03483 0.0
H139 H 0.92261 0.63306 0.00022 0.0
H140 H 0.69711 0.97262 0.08069 0.0
H141 H 0.75823 -0.00048 0.03298 0.0
H142 H 0.61073 0.87826 0.09607 0.0
H143 H 0.62553 0.78186 0.11371 0.0
C144 C 0.74993 0.28229 0.003 0.0
C145 C 0.83942 0.26692 -0.0139 0.0
C146 C 0.8342 0.39762 0.95317 0.0
C147 C 0.73085 0.39963 0.95493 0.0
N148 N 0.59132 0.34344 -0.01429 0.0
N149 N 0.972 0.3127 0.94706 0.0
C150 C 0.68972 0.34347 -0.0174 0.0
C151 C 0.8851 0.3267 0.96339 0.0
N152 N 0.72099 0.23546 0.03679 0.0
N153 N 0.8821 0.46255 0.93997 0.0
H154 H 0.01164 0.26178 0.95397 0.0
H155 H 0.00195 0.34948 0.9243 0.0
H156 H 0.8455 0.51458 0.93167 0.0
H157 H 0.95951 0.4678 0.94237 0.0
H158 H 0.6608 0.24731 0.05449 0.0
H159 H 0.76466 0.1898 0.05118 0.0
H160 H 0.55429 0.29741 -0.001 0.0
H161 H 0.54464 0.38713 -0.02756 0.0
C162 C 0.80786 0.75945 0.45846 0.0
C163 C 0.75789 0.73024 0.49507 0.0
C164 C 0.72796 0.86942 0.52692 0.0
C165 C 0.80919 0.89599 0.50649 0.0
N166 N 0.84982 0.87794 0.42074 0.0
N167 N 0.65159 0.75684 0.55725 0.0
C168 C 0.8271 0.84475 0.46191 0.0
C169 C 0.70885 0.78487 0.5259 0.0
N170 N 0.83912 0.70567 0.42205 0.0
N171 N 0.66921 0.92497 0.54579 0.0
H172 H 0.63562 0.69503 0.55686 0.0
H173 H 0.62346 0.79511 0.58483 0.0
H174 H 0.68236 0.9868 0.5445 0.0
H175 H 0.60384 0.90891 0.55753 0.0
H176 H 0.88276 0.72301 0.39686 0.0
H177 H 0.82158 0.64314 0.41799 0.0
H178 H 0.85749 0.84378 0.38531 0.0
H179 H 0.84815 0.94037 0.42023 0.0
C180 C 0.74033 0.22892 0.42489 0.0
C181 C 0.7994 0.28451 0.46891 0.0
C182 C 0.94793 0.20991 0.46495 0.0
C183 C 0.88918 0.15246 0.42248 0.0
N184 N 0.72244 0.09235 0.37575 0.0
N185 N 0.94364 0.30143 0.54467 0.0
C186 C 0.78294 0.15697 0.40692 0.0
C187 C 0.89779 0.26572 0.49375 0.0
N188 N 0.64673 0.24538 0.39808 0.0
N189 N 0.05102 0.21702 0.47531 0.0
H190 H 0.90633 0.33945 0.56806 0.0
H191 H 0.01302 0.28496 0.56528 0.0
H192 H 0.09233 0.18435 0.45162 0.0
H193 H 0.09458 0.26338 0.50348 0.0
H194 H 0.60769 0.21062 0.36209 0.0
H195 H 0.61039 0.29644 0.40856 0.0
H196 H 0.64378 0.08994 0.3676 0.0
H197 H 0.75043 0.03757 0.36328 0.0
C198 C 0.36976 0.20234 0.48423 0.0
C199 C 0.36977 0.286 0.50408 0.0
C200 C 0.29551 0.25275 0.57642 0.0
C201 C 0.28736 0.16941 0.55357 0.0
N202 N 0.3448 0.06276 0.49806 0.0
N203 N 0.35904 0.39111 0.57566 0.0
C204 C 0.33351 0.14348 0.51127 0.0
C205 C 0.34234 0.31118 0.55286 0.0
N206 N 0.40038 0.17969 0.43812 0.0
N207 N 0.25266 0.27635 0.61828 0.0
H208 H 0.39158 0.43499 0.55849 0.0
H209 H 0.34933 0.41295 0.61354 0.0
H210 H 0.21985 0.23522 0.63729 0.0
H211 H 0.24516 0.33659 0.63286 0.0
H212 H 0.39058 0.12048 0.41761 0.0
H213 H 0.43304 0.22149 0.41938 0.0
H214 H 0.3888 0.04099 0.47216 0.0
H215 H 0.31889 0.01831 0.51736 0.0
C216 C 0.40583 0.75844 0.43798 0.0
C217 C 0.35814 0.69934 0.46047 0.0
C218 C 0.20195 0.76845 0.44563 0.0
C219 C 0.24814 0.82649 0.42156 0.0
N220 N 0.40174 0.89085 0.40968 0.0
N221 N 0.22659 0.66387 0.5025 0.0
C222 C 0.35295 0.82632 0.42294 0.0
C223 C 0.2616 0.71048 0.47035 0.0
N224 N 0.4982 0.74702 0.42724 0.0
N225 N 0.09999 0.76422 0.44135 0.0
H226 H 0.27002 0.62111 0.52091 0.0
H227 H 0.16037 0.67352 0.51524 0.0
H228 H 0.05184 0.80237 0.42118 0.0
H229 H 0.06156 0.71791 0.45362 0.0
H230 H 0.53044 0.78225 0.40446 0.0
H231 H 0.54081 0.69937 0.43849 0.0
H232 H 0.47998 0.89829 0.41556 0.0
H233 H 0.36494 0.94082 0.39733 0.0
C234 C 0.06768 0.91614 0.15825 0.0
C235 C 0.12001 0.98876 0.15269 0.0
C236 C 0.18866 0.0186 0.24926 0.0
C237 C 0.12952 0.95029 0.25545 0.0
N238 N 0.00112 0.84044 0.21758 0.0
N239 N 0.20993 0.1185 0.19305 0.0
C240 C 0.06548 0.90074 0.21042 0.0
C241 C 0.17461 0.04277 0.19832 0.0
N242 N 0.0241 0.86047 0.11413 0.0
N243 N 0.25934 0.05968 0.29205 0.0
H244 H 0.19766 0.13956 0.15634 0.0
H245 H 0.24177 0.16333 0.22551 0.0
H246 H 0.27228 0.04328 0.33017 0.0
H247 H 0.31157 0.10496 0.28872 0.0
H248 H 0.99435 0.80275 0.1162 0.0
H249 H 0.02406 0.86953 0.07528 0.0
H250 H 0.9445 0.80844 0.18667 0.0
H251 H -5e-05 0.82606 0.25522 0.0
C252 C 0.05364 0.04317 0.77662 0.0
C253 C 0.96771 0.06953 0.79372 0.0
C254 C 0.89757 0.106 0.70528 0.0
C255 C 0.96995 0.06011 0.68565 0.0
N256 N 0.11388 0.97889 0.70206 0.0
N257 N 0.8177 0.14256 0.77891 0.0
C258 C 0.04834 0.0281 0.72119 0.0
C259 C 0.89297 0.10693 0.7594 0.0
N260 N 0.14061 0.03405 0.81279 0.0
N261 N 0.83462 0.14878 0.6723 0.0
H262 H 0.81898 0.1513 0.81965 0.0
H263 H 0.75406 0.16254 0.75519 0.0
H264 H 0.83743 0.14923 0.63256 0.0
H265 H 0.78499 0.18845 0.68494 0.0
H266 H 0.20806 0.02215 0.80179 0.0
H267 H 0.1491 0.04792 0.85394 0.0
H268 H 0.1649 0.94721 0.72635 0.0
H269 H 0.11133 0.96338 0.66148 0.0
C270 C 0.68385 0.56385 0.71353 0.0
C271 C 0.64791 0.49789 0.67155 0.0
C272 C 0.58072 0.42336 0.73233 0.0
C273 C 0.62581 0.48588 0.77519 0.0
N274 N 0.7363 0.60836 0.80906 0.0
N275 N 0.57742 0.35901 0.64228 0.0
C276 C 0.68228 0.55401 0.76652 0.0
C277 C 0.60005 0.42596 0.68113 0.0
N278 N 0.7158 0.63699 0.70243 0.0
N279 N 0.51779 0.36269 0.74027 0.0
H280 H 0.59116 0.35817 0.60437 0.0
H281 H 0.55223 0.30236 0.64889 0.0
H282 H 0.50384 0.35807 0.7776 0.0
H283 H 0.47368 0.32069 0.70921 0.0
H284 H 0.73305 0.68957 0.73072 0.0
H285 H 0.71539 0.64737 0.66374 0.0
H286 H 0.7873 0.6543 0.80537 0.0
H287 H 0.73747 0.60319 0.84873 0.0
C288 C 0.60448 0.42647 0.27192 0.0
C289 C 0.55283 0.47921 0.3023 0.0
C290 C 0.49382 0.55095 0.22686 0.0
C291 C 0.54298 0.49682 0.19565 0.0
N292 N 0.65975 0.39376 0.18927 0.0
N293 N 0.47185 0.60368 0.31481 0.0
C294 C 0.60356 0.43798 0.21859 0.0
C295 C 0.50589 0.54584 0.28174 0.0
N296 N 0.65172 0.36452 0.29389 0.0
N297 N 0.43051 0.60387 0.20329 0.0
H298 H 0.47724 0.60045 0.35508 0.0
H299 H 0.44667 0.65829 0.30383 0.0
H300 H 0.41959 0.61051 0.16315 0.0
H301 H 0.38269 0.63731 0.22239 0.0
H302 H 0.68183 0.3181 0.27266 0.0
H303 H 0.65887 0.3591 0.33402 0.0
H304 H 0.71147 0.35398 0.20456 0.0
H305 H 0.65927 0.40085 0.14996 0.0
loop_
_geom_bond_atom_site_label_1
_geom_bond_atom_site_label_2
_geom_bond_distance
_geom_bond_site_symmetry_2
_ccdc_geom_bond_type
O0 Mg1 1.990 . S
O0 C14 1.253 . S
Mg1 O0 1.990 . S
Mg1 O4 2.180 . S
Mg1 O5 2.117 . S
Mg1 O19 2.030 1_545 S
O2 Mg3 2.069 1_554 S
O2 C14 1.260 . S
Mg3 O2 2.069 1_556 S
Mg3 O4 2.099 1_556 S
Mg3 O6 2.082 . S
Mg3 O7 2.072 1_456 S
Mg3 O9 2.099 1_445 S
Mg3 O20 2.079 1_545 S
O4 Mg1 2.180 . S
O4 Mg3 2.099 1_554 S
O4 C15 1.279 . S
O5 Mg1 2.117 . S
O5 C15 1.250 . S
O6 Mg3 2.082 . S
O6 C16 1.264 . S
O7 Mg3 2.072 1_654 S
O7 C17 1.260 1_554 S
Mg8 O9 2.180 . S
Mg8 O10 2.030 1_565 S
Mg8 O11 1.990 1_565 S
Mg8 O12 2.117 . S
O9 Mg3 2.099 1_665 S
O9 Mg8 2.180 . S
O9 C18 1.279 . S
O10 Mg8 2.030 1_545 S
O10 C16 1.248 1_655 S
O11 Mg8 1.990 1_545 S
O11 C17 1.253 . S
O12 Mg8 2.117 . S
O12 C18 1.250 . S
C13 O19 1.248 . S
C13 O20 1.264 1_554 S
C14 O0 1.253 . S
C14 O2 1.260 . S
C15 O4 1.279 . S
C15 O5 1.250 . S
C16 O6 1.264 . S
C16 O10 1.248 1_455 S
C17 O7 1.260 1_556 S
C17 O11 1.253 . S
C18 O9 1.279 . S
C18 O12 1.250 . S
O19 Mg1 2.030 1_565 S
O19 C13 1.248 . S
O20 Mg3 2.079 1_565 S
O20 C13 1.264 1_556 S
O21 Mg22 1.990 . S
O21 C35 1.253 . S
Mg22 O21 1.990 . S
Mg22 O25 2.180 . S
Mg22 O26 2.117 . S
Mg22 O40 2.030 . S
O23 Mg24 2.072 . S
O23 C35 1.260 . S
Mg24 O23 2.072 . S
Mg24 O25 2.099 . S
Mg24 O27 2.079 . S
Mg24 O28 2.072 . S
Mg24 O30 2.099 . S
Mg24 O41 2.079 . S
O25 Mg22 2.180 . S
O25 Mg24 2.099 . S
O25 C36 1.279 . S
O26 Mg22 2.117 . S
O26 C36 1.250 . S
O27 Mg24 2.079 . S
O27 C37 1.264 . S
O28 Mg24 2.072 . S
O28 C38 1.260 . S
Mg29 O30 2.180 . S
Mg29 O31 2.030 . S
Mg29 O32 1.990 . S
Mg29 O33 2.117 . S
O30 Mg24 2.099 . S
O30 Mg29 2.180 . S
O30 C39 1.279 . S
O31 Mg29 2.030 . S
O31 C37 1.248 . S
O32 Mg29 1.990 . S
O32 C38 1.253 . S
O33 Mg29 2.117 . S
O33 C39 1.250 . S
C34 O40 1.248 . S
C34 O41 1.264 . S
C35 O21 1.253 . S
C35 O23 1.260 . S
C36 O25 1.279 . S
C36 O26 1.250 . S
C37 O27 1.264 . S
C37 O31 1.248 . S
C38 O28 1.260 . S
C38 O32 1.253 . S
C39 O30 1.279 . S
C39 O33 1.250 . S
O40 Mg22 2.030 . S
O40 C34 1.248 . S
O41 Mg24 2.079 . S
O41 C34 1.264 . S
H42 C47 0.930 . S
H43 C50 0.930 . S
H44 C52 0.930 . S
H45 C46 1.016 . S
C46 H45 1.016 . S
C46 N53 1.286 . S
C47 H42 0.930 . S
C47 C48 1.397 . S
C47 C49 1.361 1_565 S
C48 C47 1.397 . S
C48 C52 1.390 . S
C49 C47 1.361 1_545 S
C49 C50 1.393 . S
C49 N53 1.413 1_455 S
C50 H43 0.930 . S
C50 C49 1.393 . S
C50 C51 1.399 1_545 S
C51 C50 1.399 1_565 S
C51 C52 1.381 . S
C52 H44 0.930 . S
C52 C48 1.390 . S
C52 C51 1.381 . S
N53 C46 1.286 . S
N53 C49 1.413 1_655 S
H54 C59 0.930 1_565 S
H55 C62 0.930 . S
H56 C64 0.930 . S
H57 C58 1.016 . S
C58 H57 1.016 . S
C58 N65 1.286 . S
C59 H54 0.930 1_545 S
C59 C60 1.397 1_545 S
C59 C61 1.361 1_655 S
C60 C59 1.397 1_565 S
C60 C64 1.390 . S
C61 C59 1.361 1_455 S
C61 C62 1.393 . S
C61 N65 1.413 . S
C62 H55 0.930 . S
C62 C61 1.393 . S
C62 C63 1.399 1_455 S
C63 C62 1.399 1_655 S
C63 C64 1.381 1_545 S
C64 H56 0.930 . S
C64 C60 1.390 . S
C64 C63 1.381 1_565 S
N65 C58 1.286 . S
N65 C61 1.413 . S
H66 C71 0.930 1_554 S
H67 C74 0.930 . S
H68 C76 0.930 . S
H69 C70 1.016 . S
C70 H69 1.016 . S
C70 N77 1.286 . S
C71 H66 0.930 1_556 S
C71 C72 1.397 . S
C71 C73 1.361 . S
C72 C71 1.397 . S
C72 C76 1.390 . S
C73 C71 1.361 . S
C73 C74 1.393 . S
C73 N77 1.413 . S
C74 H67 0.930 . S
C74 C73 1.393 . S
C74 C75 1.399 . S
C75 C74 1.399 . S
C75 C76 1.381 . S
C76 H68 0.930 . S
C76 C72 1.390 . S
C76 C75 1.381 . S
N77 C70 1.286 . S
N77 C73 1.413 . S
H78 C83 0.930 1_556 S
H79 C86 0.930 . S
H80 C88 0.930 . S
H81 C82 1.016 . S
C82 H81 1.016 . S
C82 N89 1.286 . S
C83 H78 0.930 1_554 S
C83 C84 1.397 . S
C83 C85 1.361 . S
C84 C83 1.397 . S
C84 C88 1.390 . S
C85 C83 1.361 . S
C85 C86 1.393 . S
C85 N89 1.413 . S
C86 H79 0.930 . S
C86 C85 1.393 . S
C86 C87 1.399 . S
C87 C86 1.399 . S
C87 C88 1.381 . S
C88 H80 0.930 . S
C88 C84 1.390 . S
C88 C87 1.381 . S
N89 C82 1.286 . S
N89 C85 1.413 . S
C90 C91 1.363 . S
C90 C96 1.379 . S
C90 N98 1.356 . S
C91 C90 1.363 . S
C91 C97 1.363 1_554 S
C92 C93 1.363 1_556 S
C92 C97 1.379 . S
C92 N99 1.356 . S
C93 C92 1.363 1_554 S
C93 C96 1.363 . S
N94 C96 1.356 . S
N94 H106 0.984 . S
N94 H107 0.985 . S
N95 C97 1.356 . S
N95 H100 0.984 . S
N95 H101 0.985 . S
C96 C90 1.379 . S
C96 C93 1.363 . S
C96 N94 1.356 . S
C97 C91 1.363 1_556 S
C97 C92 1.379 . S
C97 N95 1.356 . S
N98 C90 1.356 . S
N98 H104 0.984 . S
N98 H105 0.984 . S
N99 C92 1.356 . S
N99 H102 0.984 . S
N99 H103 0.985 . S
H100 N95 0.984 . S
H101 N95 0.985 . S
H102 N99 0.984 . S
H103 N99 0.985 . S
H104 N98 0.984 . S
H105 N98 0.984 . S
H106 N94 0.984 . S
H107 N94 0.985 . S
C108 C109 1.363 1_556 S
C108 C114 1.379 . S
C108 N116 1.356 . S
C109 C108 1.363 1_554 S
C109 C115 1.363 . S
C110 C111 1.363 . S
C110 C115 1.379 . S
C110 N117 1.356 . S
C111 C110 1.363 . S
C111 C114 1.363 1_554 S
N112 C114 1.356 . S
N112 H124 0.984 . S
N112 H125 0.985 . S
N113 C115 1.356 . S
N113 H118 0.984 . S
N113 H119 0.985 . S
C114 C108 1.379 . S
C114 C111 1.363 1_556 S
C114 N112 1.356 . S
C115 C109 1.363 . S
C115 C110 1.379 . S
C115 N113 1.356 . S
N116 C108 1.356 . S
N116 H122 0.984 . S
N116 H123 0.984 . S
N117 C110 1.356 . S
N117 H120 0.984 . S
N117 H121 0.985 . S
H118 N113 0.984 . S
H119 N113 0.985 . S
H120 N117 0.984 . S
H121 N117 0.985 . S
H122 N116 0.984 . S
H123 N116 0.984 . S
H124 N112 0.984 . S
H125 N112 0.985 . S
C126 C127 1.363 1_556 S
C126 C132 1.379 . S
C126 N134 1.356 . S
C127 C126 1.363 1_554 S
C127 C133 1.363 . S
C128 C129 1.363 . S
C128 C133 1.379 . S
C128 N135 1.356 . S
C129 C128 1.363 . S
C129 C132 1.363 1_554 S
N130 C132 1.356 . S
N130 H142 0.984 . S
N130 H143 0.985 . S
N131 C133 1.356 . S
N131 H136 0.984 . S
N131 H137 0.985 . S
C132 C126 1.379 . S
C132 C129 1.363 1_556 S
C132 N130 1.356 . S
C133 C127 1.363 . S
C133 C128 1.379 . S
C133 N131 1.356 . S
N134 C126 1.356 . S
N134 H140 0.984 . S
N134 H141 0.984 . S
N135 C128 1.356 . S
N135 H138 0.984 . S
N135 H139 0.985 . S
H136 N131 0.984 . S
H137 N131 0.985 . S
H138 N135 0.984 . S
H139 N135 0.985 . S
H140 N134 0.984 . S
H141 N134 0.984 . S
H142 N130 0.984 . S
H143 N130 0.985 . S
C144 C145 1.363 1_554 S
C144 C150 1.379 . S
C144 N152 1.356 . S
C145 C144 1.363 1_556 S
C145 C151 1.363 . S
C146 C147 1.363 . S
C146 C151 1.379 . S
C146 N153 1.356 . S
C147 C146 1.363 . S
C147 C150 1.363 1_556 S
N148 C150 1.356 . S
N148 H160 0.984 . S
N148 H161 0.985 . S
N149 C151 1.356 . S
N149 H154 0.984 . S
N149 H155 0.985 . S
C150 C144 1.379 . S
C150 C147 1.363 1_554 S
C150 N148 1.356 . S
C151 C145 1.363 . S
C151 C146 1.379 . S
C151 N149 1.356 . S
N152 C144 1.356 . S
N152 H158 0.984 . S
N152 H159 0.984 . S
N153 C146 1.356 . S
N153 H156 0.984 . S
N153 H157 0.985 . S
H154 N149 0.984 . S
H155 N149 0.985 . S
H156 N153 0.984 . S
H157 N153 0.985 . S
H158 N152 0.984 . S
H159 N152 0.984 . S
H160 N148 0.984 . S
H161 N148 0.985 . S
C162 C163 1.363 . S
C162 C168 1.379 . S
C162 N170 1.356 . S
C163 C162 1.363 . S
C163 C169 1.363 . S
C164 C165 1.363 . S
C164 C169 1.379 . S
C164 N171 1.356 . S
C165 C164 1.363 . S
C165 C168 1.363 . S
N166 C168 1.356 . S
N166 H178 0.984 . S
N166 H179 0.985 . S
N167 C169 1.356 . S
N167 H172 0.984 . S
N167 H173 0.985 . S
C168 C162 1.379 . S
C168 C165 1.363 . S
C168 N166 1.356 . S
C169 C163 1.363 . S
C169 C164 1.379 . S
C169 N167 1.356 . S
N170 C162 1.356 . S
N170 H176 0.984 . S
N170 H177 0.984 . S
N171 C164 1.356 . S
N171 H174 0.984 . S
N171 H175 0.985 . S
H172 N167 0.984 . S
H173 N167 0.985 . S
H174 N171 0.984 . S
H175 N171 0.985 . S
H176 N170 0.984 . S
H177 N170 0.984 . S
H178 N166 0.984 . S
H179 N166 0.985 . S
C180 C181 1.363 . S
C180 C186 1.379 . S
C180 N188 1.356 . S
C181 C180 1.363 . S
C181 C187 1.363 . S
C182 C183 1.363 . S
C182 C187 1.379 . S
C182 N189 1.356 1_655 S
C183 C182 1.363 . S
C183 C186 1.363 . S
N184 C186 1.356 . S
N184 H196 0.984 . S
N184 H197 0.985 . S
N185 C187 1.356 . S
N185 H190 0.984 . S
N185 H191 0.985 . S
C186 C180 1.379 . S
C186 C183 1.363 . S
C186 N184 1.356 . S
C187 C181 1.363 . S
C187 C182 1.379 . S
C187 N185 1.356 . S
N188 C180 1.356 . S
N188 H194 0.984 . S
N188 H195 0.984 . S
N189 C182 1.356 1_455 S
N189 H192 0.984 . S
N189 H193 0.985 . S
H190 N185 0.984 . S
H191 N185 0.985 . S
H192 N189 0.984 . S
H193 N189 0.985 . S
H194 N188 0.984 . S
H195 N188 0.984 . S
H196 N184 0.984 . S
H197 N184 0.985 . S
C198 C199 1.363 . S
C198 C204 1.379 . S
C198 N206 1.356 . S
C199 C198 1.363 . S
C199 C205 1.363 . S
C200 C201 1.363 . S
C200 C205 1.379 . S
C200 N207 1.356 . S
C201 C200 1.363 . S
C201 C204 1.363 . S
N202 C204 1.356 . S
N202 H214 0.984 . S
N202 H215 0.985 . S
N203 C205 1.356 . S
N203 H208 0.984 . S
N203 H209 0.985 . S
C204 C198 1.379 . S
C204 C201 1.363 . S
C204 N202 1.356 . S
C205 C199 1.363 . S
C205 C200 1.379 . S
C205 N203 1.356 . S
N206 C198 1.356 . S
N206 H212 0.984 . S
N206 H213 0.984 . S
N207 C200 1.356 . S
N207 H210 0.984 . S
N207 H211 0.985 . S
H208 N203 0.984 . S
H209 N203 0.985 . S
H210 N207 0.984 . S
H211 N207 0.985 . S
H212 N206 0.984 . S
H213 N206 0.984 . S
H214 N202 0.984 . S
H215 N202 0.985 . S
C216 C217 1.363 . S
C216 C222 1.379 . S
C216 N224 1.356 . S
C217 C216 1.363 . S
C217 C223 1.363 . S
C218 C219 1.363 . S
C218 C223 1.379 . S
C218 N225 1.356 . S
C219 C218 1.363 . S
C219 C222 1.363 . S
N220 C222 1.356 . S
N220 H232 0.984 . S
N220 H233 0.985 . S
N221 C223 1.356 . S
N221 H226 0.984 . S
N221 H227 0.985 . S
C222 C216 1.379 . S
C222 C219 1.363 . S
C222 N220 1.356 . S
C223 C217 1.363 . S
C223 C218 1.379 . S
C223 N221 1.356 . S
N224 C216 1.356 . S
N224 H230 0.984 . S
N224 H231 0.984 . S
N225 C218 1.356 . S
N225 H228 0.984 . S
N225 H229 0.985 . S
H226 N221 0.984 . S
H227 N221 0.985 . S
H228 N225 0.984 . S
H229 N225 0.985 . S
H230 N224 0.984 . S
H231 N224 0.984 . S
H232 N220 0.984 . S
H233 N220 0.985 . S
C234 C235 1.363 . S
C234 C240 1.379 . S
C234 N242 1.356 . S
C235 C234 1.363 . S
C235 C241 1.363 1_565 S
C236 C237 1.363 1_545 S
C236 C241 1.379 . S
C236 N243 1.356 . S
C237 C236 1.363 1_565 S
C237 C240 1.363 . S
N238 C240 1.356 . S
N238 H250 0.984 1_455 S
N238 H251 0.985 . S
N239 C241 1.356 . S
N239 H244 0.984 . S
N239 H245 0.985 . S
C240 C234 1.379 . S
C240 C237 1.363 . S
C240 N238 1.356 . S
C241 C235 1.363 1_545 S
C241 C236 1.379 . S
C241 N239 1.356 . S
N242 C234 1.356 . S
N242 H248 0.984 1_455 S
N242 H249 0.984 . S
N243 C236 1.356 . S
N243 H246 0.984 . S
N243 H247 0.985 . S
H244 N239 0.984 . S
H245 N239 0.985 . S
H246 N243 0.984 . S
H247 N243 0.985 . S
H248 N242 0.984 1_655 S
H249 N242 0.984 . S
H250 N238 0.984 1_655 S
H251 N238 0.985 . S
C252 C253 1.363 1_565 S
C252 C258 1.379 . S
C252 N260 1.356 . S
C253 C252 1.363 1_545 S
C253 C259 1.363 1_455 S
C254 C255 1.363 . S
C254 C259 1.379 . S
C254 N261 1.356 . S
C255 C254 1.363 . S
C255 C258 1.363 1_645 S
N256 C258 1.356 . S
N256 H268 0.984 . S
N256 H269 0.985 . S
N257 C259 1.356 . S
N257 H262 0.984 . S
N257 H263 0.985 . S
C258 C252 1.379 . S
C258 C255 1.363 1_465 S
C258 N256 1.356 . S
C259 C253 1.363 1_655 S
C259 C254 1.379 . S
C259 N257 1.356 . S
N260 C252 1.356 . S
N260 H266 0.984 . S
N260 H267 0.984 . S
N261 C254 1.356 . S
N261 H264 0.984 . S
N261 H265 0.985 . S
H262 N257 0.984 . S
H263 N257 0.985 . S
H264 N261 0.984 . S
H265 N261 0.985 . S
H266 N260 0.984 . S
H267 N260 0.984 . S
H268 N256 0.984 . S
H269 N256 0.985 . S
C270 C271 1.363 . S
C270 C276 1.379 . S
C270 N278 1.356 . S
C271 C270 1.363 . S
C271 C277 1.363 . S
C272 C273 1.363 . S
C272 C277 1.379 . S
C272 N279 1.356 . S
C273 C272 1.363 . S
C273 C276 1.363 . S
N274 C276 1.356 . S
N274 H286 0.984 . S
N274 H287 0.985 . S
N275 C277 1.356 . S
N275 H280 0.984 . S
N275 H281 0.985 . S
C276 C270 1.379 . S
C276 C273 1.363 . S
C276 N274 1.356 . S
C277 C271 1.363 . S
C277 C272 1.379 . S
C277 N275 1.356 . S
N278 C270 1.356 . S
N278 H284 0.984 . S
N278 H285 0.984 . S
N279 C272 1.356 . S
N279 H282 0.984 . S
N279 H283 0.985 . S
H280 N275 0.984 . S
H281 N275 0.985 . S
H282 N279 0.984 . S
H283 N279 0.985 . S
H284 N278 0.984 . S
H285 N278 0.984 . S
H286 N274 0.984 . S
H287 N274 0.985 . S
C288 C289 1.363 . S
C288 C294 1.379 . S
C288 N296 1.356 . S
C289 C288 1.363 . S
C289 C295 1.363 . S
C290 C291 1.363 . S
C290 C295 1.379 . S
C290 N297 1.356 . S
C291 C290 1.363 . S
C291 C294 1.363 . S
N292 C294 1.356 . S
N292 H304 0.984 . S
N292 H305 0.985 . S
N293 C295 1.356 . S
N293 H298 0.984 . S
N293 H299 0.985 . S
C294 C288 1.379 . S
C294 C291 1.363 . S
C294 N292 1.356 . S
C295 C289 1.363 . S
C295 C290 1.379 . S
C295 N293 1.356 . S
N296 C288 1.356 . S
N296 H302 0.984 . S
N296 H303 0.984 . S
N297 C290 1.356 . S
N297 H300 0.984 . S
N297 H301 0.985 . S
H298 N293 0.984 . S
H299 N293 0.985 . S
H300 N297 0.984 . S
H301 N297 0.985 . S
H302 N296 0.984 . S
H303 N296 0.984 . S
H304 N292 0.984 . S
H305 N292 0.985 . S
C93 C84 1.472 . S
C91 C15 1.375 . S
C109 C13 1.470 . S
C111 C70 1.435 1_554 S
C127 C18 1.276 1_554 S
C129 C82 1.450 . S
C145 C17 1.442 . S
C147 C72 1.474 . S
C163 C36 1.375 . S
C165 C60 1.472 . S
C181 C34 1.470 . S
C183 C46 1.435 . S
C201 C58 1.450 . S
C199 C39 1.276 . S
C219 C48 1.474 . S
C217 C38 1.442 . S
C235 C14 1.575 1_565 S
C237 C51 1.617 . S
C253 C16 1.401 . S
C255 C63 1.432 . S
C273 C75 1.617 . S
C271 C35 1.574 . S
C289 C37 1.401 . S
C291 C87 1.432 . S
