# Generated by pormake.
# Topology anh, (6,3)-cn, num edge types: 1
# Building blocks:
#     Node 0, Type 0, BuildingBlock: MIFKUJ_clean_sbu_0, # of connection points: 6
#     Node 1, Type 0, BuildingBlock: MIFKUJ_clean_sbu_0, # of connection points: 6
#     Node 2, Type 0, BuildingBlock: MIFKUJ_clean_sbu_0, # of connection points: 6
#     Node 3, Type 1, BuildingBlock: ESEHIV_clean_linker_0, # of connection points: 3
#     Node 4, Type 1, BuildingBlock: ESEHIV_clean_linker_0, # of connection points: 3
#     Node 5, Type 1, BuildingBlock: ESEHIV_clean_linker_0, # of connection points: 3
#     Node 6, Type 1, BuildingBlock: ESEHIV_clean_linker_0, # of connection points: 3
#     Node 7, Type 1, BuildingBlock: ESEHIV_clean_linker_0, # of connection points: 3
#     Node 8, Type 1, BuildingBlock: ESEHIV_clean_linker_0, # of connection points: 3
#     Edge 9, Type (0, 1), BuildingBlock: XIVTED_clean_linker_0, # of connection points: 2
#     Edge 10, Type (0, 1), BuildingBlock: XIVTED_clean_linker_0, # of connection points: 2
#     Edge 11, Type (0, 1), BuildingBlock: XIVTED_clean_linker_0, # of connection points: 2
#     Edge 12, Type (0, 1), BuildingBlock: XIVTED_clean_linker_0, # of connection points: 2
#     Edge 13, Type (0, 1), BuildingBlock: XIVTED_clean_linker_0, # of connection points: 2
#     Edge 14, Type (0, 1), BuildingBlock: XIVTED_clean_linker_0, # of connection points: 2
#     Edge 15, Type (0, 1), BuildingBlock: XIVTED_clean_linker_0, # of connection points: 2
#     Edge 16, Type (0, 1), BuildingBlock: XIVTED_clean_linker_0, # of connection points: 2
#     Edge 17, Type (0, 1), BuildingBlock: XIVTED_clean_linker_0, # of connection points: 2
#     Edge 18, Type (0, 1), BuildingBlock: XIVTED_clean_linker_0, # of connection points: 2
#     Edge 19, Type (0, 1), BuildingBlock: XIVTED_clean_linker_0, # of connection points: 2
#     Edge 20, Type (0, 1), BuildingBlock: XIVTED_clean_linker_0, # of connection points: 2
#     Edge 21, Type (0, 1), BuildingBlock: XIVTED_clean_linker_0, # of connection points: 2
#     Edge 22, Type (0, 1), BuildingBlock: XIVTED_clean_linker_0, # of connection points: 2
#     Edge 23, Type (0, 1), BuildingBlock: XIVTED_clean_linker_0, # of connection points: 2
#     Edge 24, Type (0, 1), BuildingBlock: XIVTED_clean_linker_0, # of connection points: 2
#     Edge 25, Type (0, 1), BuildingBlock: XIVTED_clean_linker_0, # of connection points: 2
#     Edge 26, Type (0, 1), BuildingBlock: XIVTED_clean_linker_0, # of connection points: 2
# Relax obj value: 0.135
# Max RMSD: 0.186
# Mean RMSD: 0.149
data_MOF--net-anh--node1-MIFKUJ_clean_sbu_0--node2-ESEHIV_clean_linker_0--edge1-XIVTED_clean_linker_0
_symmetry_space_group_name_H-M    P1
_symmetry_Int_Tables_number       1
_symmetry_cell_setting            triclinic
loop_
_symmetry_equiv_pos_as_xyz
'x, y, z'
_cell_length_a     28.87314
_cell_length_b     29.010327
_cell_length_c     49.521253
_cell_angle_alpha  94.114505
_cell_angle_beta   89.864786
_cell_angle_gamma 119.36008
loop_
_atom_site_label
_atom_site_type_symbol
_atom_site_fract_x
_atom_site_fract_y
_atom_site_fract_z
_atom_type_partial_charge
Zn0 Zn 0.01895 0.5297 0.14408 0.0
Zn1 Zn 0.90862 0.41389 0.14548 0.0
C2 C 0.1101 0.51983 0.15833 0.0
O3 O 0.11332 0.55458 0.17784 0.0
C4 C 0.81475 0.42254 0.13822 0.0
O5 O 0.80089 0.37668 0.12478 0.0
O6 O 0.06645 0.60794 0.14328 0.0
O7 O 0.97142 0.50693 0.11057 0.0
O8 O 0.94072 0.42071 0.109 0.0
C9 C 0.10052 0.62557 0.12504 0.0
O10 O 0.10118 0.59215 0.10588 0.0
O11 O 0.07052 0.50016 0.14145 0.0
C12 C 0.83567 0.32802 0.17171 0.0
O13 O 0.8493 0.36823 0.1899 0.0
O14 O 0.85765 0.33669 0.14898 0.0
O15 O 0.95849 0.43416 0.1779 0.0
O16 O 0.98678 0.51979 0.18072 0.0
O17 O 0.86197 0.44963 0.14848 0.0
C18 C 0.95734 0.46295 0.09703 0.0
C19 C 0.97502 0.47781 0.19208 0.0
Zn20 Zn 0.53886 0.07107 0.48544 0.0
Zn21 Zn 0.51439 0.92862 0.48829 0.0
C22 C 0.64609 0.14742 0.4969 0.0
O23 O 0.62296 0.15591 0.51807 0.0
C24 C 0.41708 0.83408 0.49363 0.0
O25 O 0.44591 0.83154 0.51336 0.0
O26 O 0.51846 0.12802 0.48768 0.0
O27 O 0.49769 0.01918 0.45418 0.0
O28 O 0.54375 0.97898 0.45929 0.0
C29 C 0.53684 0.16374 0.47104 0.0
O30 O 0.56557 0.16023 0.45122 0.0
O31 O 0.61783 0.10947 0.47931 0.0
C32 C 0.595 0.90563 0.50609 0.0
O33 O 0.6106 0.94981 0.52155 0.0
O34 O 0.55544 0.8896 0.48968 0.0
O35 O 0.51638 0.96213 0.52571 0.0
O36 O 0.52733 0.04284 0.52207 0.0
O37 O 0.43796 0.87349 0.47921 0.0
C38 C 0.50969 0.98425 0.44577 0.0
C39 C 0.52031 0.00526 0.53627 0.0
Zn40 Zn 0.63728 0.60375 0.83637 0.0
Zn41 Zn 0.52461 0.62517 0.83188 0.0
C42 C 0.59254 0.49228 0.84217 0.0
O43 O 0.6079 0.51044 0.86749 0.0
C44 C 0.53243 0.72706 0.8428 0.0
O45 O 0.49682 0.7004 0.8604 0.0
O46 O 0.71326 0.62103 0.83592 0.0
O47 O 0.62938 0.64672 0.80882 0.0
O48 O 0.545 0.5934 0.79977 0.0
C49 C 0.72597 0.60393 0.81439 0.0
O50 O 0.69018 0.57951 0.79453 0.0
O51 O 0.59728 0.52468 0.82488 0.0
C52 C 0.41502 0.54251 0.83185 0.0
O53 O 0.43491 0.51373 0.84035 0.0
O54 O 0.44588 0.59073 0.8277 0.0
O55 O 0.54206 0.61603 0.86998 0.0
O56 O 0.61806 0.61469 0.87415 0.0
O57 O 0.55205 0.70343 0.8282 0.0
C58 C 0.59225 0.61659 0.79189 0.0
C59 C 0.57783 0.61497 0.88448 0.0
H60 H 0.39105 0.86649 0.23682 0.0
H61 H 0.55279 0.98777 0.25375 0.0
H62 H 0.47954 0.96904 0.1751 0.0
C63 C 0.42776 0.89867 0.23015 0.0
C64 C 0.43059 0.91382 0.20362 0.0
C65 C 0.4718 0.92489 0.24822 0.0
C66 C 0.51904 0.96654 0.23956 0.0
C67 C 0.52211 0.98346 0.21341 0.0
C68 C 0.47805 0.95593 0.19519 0.0
H69 H 0.66881 0.64325 0.59957 0.0
H70 H 0.61327 0.47639 0.58853 0.0
H71 H 0.61158 0.56007 0.52067 0.0
C72 C 0.65321 0.60724 0.58624 0.0
C73 C 0.64159 0.60812 0.55876 0.0
C74 C 0.64131 0.5597 0.59728 0.0
C75 C 0.62162 0.51308 0.58013 0.0
C76 C 0.61207 0.51327 0.55236 0.0
C77 C 0.6219 0.56082 0.54177 0.0
H78 H 0.95143 0.50327 0.89257 0.0
H79 H 0.06229 0.44551 0.89513 0.0
H80 H 0.02897 0.49342 0.82024 0.0
C81 C 0.97824 0.49229 0.88227 0.0
C82 C 0.98744 0.50064 0.85486 0.0
C83 C 1.00447 0.47169 0.89676 0.0
C84 C 0.03959 0.45827 0.88341 0.0
C85 C 0.04936 0.46644 0.85577 0.0
C86 C 0.02168 0.48626 0.84141 0.0
H87 H 0.94447 0.40438 0.39647 0.0
H88 H 0.0855 0.55603 0.39697 0.0
H89 H 0.03133 0.48224 0.47171 0.0
C90 C 0.9782 0.43737 0.40748 0.0
C91 C 0.98406 0.43738 0.43564 0.0
C92 C 0.01425 0.48017 0.39346 0.0
C93 C 0.05653 0.52367 0.4079 0.0
C94 C 0.063 0.52516 0.43612 0.0
C95 C 0.02661 0.48165 0.44997 0.0
H96 H 0.53477 0.14873 0.73792 0.0
H97 H 0.54974 0.01029 0.74517 0.0
H98 H 0.56888 0.11363 0.81616 0.0
C99 C 0.54259 0.12389 0.75037 0.0
C100 C 0.55361 0.13803 0.77832 0.0
C101 C 0.54175 0.07841 0.73816 0.0
C102 C 0.54987 0.04535 0.75444 0.0
C103 C 0.55894 0.05722 0.78258 0.0
C104 C 0.56041 0.10356 0.79458 0.0
H105 H 0.43124 0.53532 0.0777 0.0
H106 H 0.58435 0.54734 0.0881 0.0
H107 H 0.47323 0.49337 0.15203 0.0
C108 C 0.4598 0.53149 0.09014 0.0
C109 C 0.44642 0.5143 0.11634 0.0
C110 C 0.50915 0.54296 0.07966 0.0
C111 C 0.54599 0.53833 0.09598 0.0
C112 C 0.53351 0.52005 0.12188 0.0
C113 C 0.48346 0.50804 0.13214 0.0
H114 H 0.12387 0.45931 0.117 0.0
H115 H 0.42348 0.54816 0.16534 0.0
H116 H 0.19967 0.55609 0.19095 0.0
H117 H 0.34897 0.4569 0.09002 0.0
H118 H 0.33845 0.54217 0.17794 0.0
H119 H 0.20253 0.44945 0.10937 0.0
C120 C 0.15675 0.47803 0.13179 0.0
C121 C 0.15508 0.50884 0.15457 0.0
C122 C 0.34056 0.52295 0.15878 0.0
C123 C 0.24572 0.49797 0.14588 0.0
C124 C 0.38902 0.52601 0.1517 0.0
C125 C 0.39356 0.5035 0.12647 0.0
C126 C 0.29623 0.49704 0.14053 0.0
C127 C 0.34757 0.47559 0.10949 0.0
C128 C 0.20179 0.47249 0.12739 0.0
C129 C 0.19911 0.53218 0.17301 0.0
N130 N 0.30114 0.47355 0.1167 0.0
N131 N 0.24261 0.52656 0.16818 0.0
H132 H 0.71271 0.23933 0.5273 0.0
H133 H 0.94271 0.33189 0.42006 0.0
H134 H 0.70752 0.14343 0.45532 0.0
H135 H 0.93323 0.43814 0.48256 0.0
H136 H 0.86573 0.25764 0.4382 0.0
H137 H 0.80178 0.3072 0.51634 0.0
C138 C 0.7305 0.23219 0.50934 0.0
C139 C 0.70229 0.18574 0.49204 0.0
C140 C 0.88077 0.29706 0.44815 0.0
C141 C 0.80441 0.26351 0.47941 0.0
C142 C 0.92472 0.33949 0.43782 0.0
C143 C 0.94387 0.39144 0.44955 0.0
C144 C 0.85561 0.30647 0.47044 0.0
C145 C 0.91975 0.39879 0.47286 0.0
C146 C 0.78136 0.27109 0.50309 0.0
C147 C 0.72756 0.17874 0.46913 0.0
N148 N 0.87642 0.35684 0.48236 0.0
N149 N 0.77701 0.21736 0.4634 0.0
H150 H 0.60606 0.79529 0.80922 0.0
H151 H 0.50611 0.00811 0.82718 0.0
H152 H 0.48914 0.78481 0.86658 0.0
H153 H 0.62879 0.02072 0.77349 0.0
H154 H 0.50703 0.93271 0.84636 0.0
H155 H 0.6218 0.88318 0.79971 0.0
C156 C 0.58397 0.81161 0.81998 0.0
C157 C 0.54585 0.7823 0.83854 0.0
C158 C 0.53437 0.95254 0.83069 0.0
C159 C 0.56346 0.88311 0.82763 0.0
C160 C 0.53414 0.99583 0.81994 0.0
C161 C 0.56701 0.02019 0.79857 0.0
C162 C 0.56768 0.93364 0.81989 0.0
C163 C 0.60231 0.00251 0.78973 0.0
C164 C 0.59301 0.86192 0.81457 0.0
C165 C 0.51869 0.80577 0.85199 0.0
N166 N 0.60125 0.96 0.80017 0.0
N167 N 0.52762 0.85449 0.84608 0.0
H168 H 0.82952 0.52294 0.15281 0.0
H169 H 0.51706 0.42551 0.1384 0.0
H170 H 0.7072 0.36088 0.13299 0.0
H171 H 0.63843 0.58871 0.13521 0.0
H172 H 0.58629 0.40267 0.14824 0.0
H173 H 0.7601 0.54884 0.15664 0.0
C174 C 0.78818 0.49281 0.14948 0.0
C175 C 0.77428 0.43979 0.1422 0.0
C176 C 0.59774 0.44371 0.14597 0.0
C177 C 0.69476 0.46887 0.14699 0.0
C178 C 0.55812 0.45682 0.14076 0.0
C179 C 0.57205 0.50902 0.13599 0.0
C180 C 0.65168 0.48313 0.14647 0.0
C181 C 0.62609 0.54795 0.13876 0.0
C182 C 0.7486 0.50757 0.15167 0.0
C183 C 0.71998 0.40236 0.13824 0.0
N184 N 0.66397 0.53417 0.14349 0.0
N185 N 0.68241 0.41759 0.14063 0.0
H186 H 0.34251 0.83078 0.45821 0.0
H187 H 0.13229 0.52718 0.47483 0.0
H188 H 0.36547 0.73883 0.51617 0.0
H189 H 0.09937 0.62985 0.42928 0.0
H190 H 0.21607 0.60442 0.49201 0.0
H191 H 0.25234 0.75758 0.44816 0.0
C192 C 0.32854 0.79527 0.46889 0.0
C193 C 0.36171 0.79087 0.48796 0.0
C194 C 0.19018 0.61009 0.47849 0.0
C195 C 0.25845 0.7067 0.47651 0.0
C196 C 0.1422 0.56607 0.46885 0.0
C197 C 0.10919 0.57198 0.4503 0.0
C198 C 0.20523 0.66021 0.4694 0.0
C199 C 0.12419 0.6233 0.4431 0.0
C200 C 0.27695 0.75351 0.46322 0.0
C201 C 0.34134 0.74394 0.50127 0.0
N202 N 0.17129 0.66523 0.45239 0.0
N203 N 0.29119 0.70353 0.49514 0.0
H204 H 0.56576 0.4094 0.87368 0.0
H205 H 0.6036 0.23245 0.7553 0.0
H206 H 0.58963 0.44953 0.79064 0.0
H207 H 0.51971 0.16339 0.82681 0.0
H208 H 0.60743 0.31567 0.7707 0.0
H209 H 0.55477 0.32178 0.85925 0.0
C210 C 0.56809 0.3996 0.85238 0.0
C211 C 0.57875 0.43696 0.83333 0.0
C212 C 0.58794 0.28234 0.78302 0.0
C213 C 0.56729 0.3373 0.81688 0.0
C214 C 0.58561 0.23459 0.77423 0.0
C215 C 0.56016 0.19018 0.78946 0.0
C216 C 0.56556 0.28661 0.80756 0.0
C217 C 0.53954 0.19641 0.81435 0.0
C218 C 0.56186 0.34962 0.84421 0.0
C219 C 0.58133 0.42206 0.80603 0.0
N220 N 0.54261 0.24378 0.82264 0.0
N221 N 0.57627 0.37369 0.7987 0.0
H222 H 0.65267 0.90859 0.55037 0.0
H223 H 0.6652 0.64548 0.5076 0.0
H224 H 0.58673 0.8221 0.47279 0.0
H225 H 0.62369 0.68247 0.58713 0.0
H226 H 0.66473 0.72393 0.49218 0.0
H227 H 0.67496 0.84075 0.56134 0.0
C228 C 0.64392 0.87599 0.5354 0.0
C229 C 0.61704 0.87043 0.51082 0.0
C230 C 0.65666 0.71482 0.51308 0.0
C231 C 0.6428 0.79331 0.52319 0.0
C232 C 0.65647 0.66994 0.5219 0.0
C233 C 0.64503 0.6571 0.54889 0.0
C234 C 0.64663 0.74758 0.53153 0.0
C235 C 0.63465 0.69107 0.56645 0.0
C236 C 0.65647 0.8373 0.54173 0.0
C237 C 0.60676 0.82736 0.49215 0.0
N238 N 0.636 0.73469 0.5575 0.0
N239 N 0.61932 0.79004 0.4988 0.0
H240 H 0.75572 0.55111 0.77654 0.0
H241 H 0.99908 0.59688 0.87105 0.0
H242 H 0.8116 0.65535 0.85 0.0
H243 H 0.9235 0.46833 0.80879 0.0
H244 H 0.9475 0.63598 0.85469 0.0
H245 H 0.83277 0.53787 0.77978 0.0
C246 C 0.7847 0.57202 0.79308 0.0
C247 C 0.77672 0.60348 0.8134 0.0
C248 C 0.9427 0.59968 0.84428 0.0
C249 C 0.86469 0.5885 0.81712 0.0
C250 C 0.97208 0.57744 0.8536 0.0
C251 C 0.96439 0.5289 0.84152 0.0
C252 C 0.90495 0.57281 0.82294 0.0
C253 C 0.9299 0.50558 0.81873 0.0
C254 C 0.82858 0.56433 0.7949 0.0
C255 C 0.81573 0.62998 0.83418 0.0
N256 N 0.90052 0.52729 0.81042 0.0
N257 N 0.85773 0.62135 0.83569 0.0
H258 H 0.10703 0.70712 0.15898 0.0
H259 H 0.42173 0.86898 0.15198 0.0
H260 H 0.19565 0.66895 0.09982 0.0
H261 H 0.33101 0.89619 0.21409 0.0
H262 H 0.3387 0.81018 0.12576 0.0
H263 H 0.18714 0.79084 0.17198 0.0
C264 C 0.14317 0.71678 0.1484 0.0
C265 C 0.14503 0.68052 0.12874 0.0
C266 C 0.33707 0.82978 0.1449 0.0
C267 C 0.23714 0.77589 0.14383 0.0
C268 C 0.38437 0.86338 0.15977 0.0
C269 C 0.38278 0.88631 0.18539 0.0
C270 C 0.28821 0.81941 0.15584 0.0
C271 C 0.33362 0.87815 0.19465 0.0
C272 C 0.18897 0.76459 0.15585 0.0
C273 C 0.19266 0.69547 0.11536 0.0
N274 N 0.28823 0.84483 0.18005 0.0
N275 N 0.23721 0.74163 0.12354 0.0
H276 H 0.47616 0.18189 0.50812 0.0
H277 H 0.64468 0.49544 0.50258 0.0
H278 H 0.59209 0.25802 0.44785 0.0
H279 H 0.52918 0.41679 0.56253 0.0
H280 H 0.61528 0.40922 0.47735 0.0
H281 H 0.4839 0.26731 0.52318 0.0
C282 C 0.50271 0.21647 0.49779 0.0
C283 C 0.53417 0.21298 0.477 0.0
C284 C 0.59591 0.41093 0.49584 0.0
C285 C 0.54383 0.31117 0.49439 0.0
C286 C 0.61255 0.4601 0.51017 0.0
C287 C 0.59001 0.46297 0.53491 0.0
C288 C 0.55647 0.36452 0.5064 0.0
C289 C 0.5485 0.4161 0.54386 0.0
C290 C 0.50718 0.26532 0.50642 0.0
C291 C 0.56743 0.25899 0.46414 0.0
N292 N 0.53349 0.36879 0.52978 0.0
N293 N 0.57203 0.3064 0.47333 0.0
H294 H 0.36385 0.58226 0.80359 0.0
H295 H 0.0823 0.39328 0.86281 0.0
H296 H 0.33467 0.45216 0.85109 0.0
H297 H 0.12119 0.5332 0.82134 0.0
H298 H 0.16802 0.40147 0.8504 0.0
H299 H 0.26897 0.55166 0.80144 0.0
C300 C 0.33734 0.54698 0.81346 0.0
C301 C 0.35718 0.52032 0.82804 0.0
C302 C 0.15714 0.42965 0.8436 0.0
C303 C 0.24831 0.48523 0.82586 0.0
C304 C 0.10833 0.42513 0.85072 0.0
C305 C 0.09472 0.46309 0.84352 0.0
C306 C 0.19242 0.4724 0.82917 0.0
C307 C 0.12949 0.50276 0.82732 0.0
C308 C 0.28308 0.52939 0.81215 0.0
C309 C 0.32095 0.47421 0.83993 0.0
N310 N 0.17692 0.50673 0.82105 0.0
N311 N 0.26816 0.45854 0.83897 0.0
H312 H 0.78734 0.23757 0.13686 0.0
H313 H 0.57387 0.07591 0.24521 0.0
H314 H 0.78527 0.29773 0.21892 0.0
H315 H 0.5769 0.00501 0.16602 0.0
H316 H 0.65192 0.15744 0.23499 0.0
H317 H 0.71143 0.1518 0.1463 0.0
C318 C 0.77121 0.23264 0.15688 0.0
C319 C 0.79248 0.2749 0.17712 0.0
C320 C 0.6359 0.12414 0.2198 0.0
C321 C 0.70588 0.17747 0.18792 0.0
C322 C 0.59139 0.07733 0.2257 0.0
C323 C 0.56933 0.03324 0.20659 0.0
C324 C 0.65869 0.12747 0.19446 0.0
C325 C 0.59276 0.0381 0.18132 0.0
C326 C 0.72788 0.1838 0.16221 0.0
C327 C 0.77005 0.26644 0.20265 0.0
N328 N 0.63639 0.08448 0.17596 0.0
N329 N 0.72797 0.21885 0.20726 0.0
H330 H 0.9401 0.37861 0.06132 0.0
H331 H 0.0115 0.55002 0.93286 0.0
H332 H 0.98693 0.54511 0.06518 0.0
H333 H 0.98617 0.39018 0.92797 0.0
H334 H 0.99915 0.54681 0.98141 0.0
H335 H 0.9527 0.37971 0.01238 0.0
C336 C 0.95276 0.41529 0.05189 0.0
C337 C 0.96238 0.46183 0.06736 0.0
C338 C 0.99628 0.51234 0.96983 0.0
C339 C 0.97702 0.46332 0.01158 0.0
C340 C 1.00308 0.51408 0.94208 0.0
C341 C 0.99919 0.47003 0.92642 0.0
C342 C 0.98537 0.46614 0.98213 0.0
C343 C 0.9894 0.42491 0.93943 0.0
C344 C 0.96015 0.4159 0.024 0.0
C345 C 0.97895 0.50825 0.05411 0.0
N346 N 0.98247 0.42395 0.96662 0.0
N347 N 0.98568 0.50776 0.02702 0.0
H348 H 0.42887 0.97683 0.41394 0.0
H349 H 0.5407 0.91127 0.2802 0.0
H350 H 0.5517 0.93294 0.41459 0.0
H351 H 0.39313 0.91484 0.28191 0.0
H352 H 0.54059 0.91011 0.32955 0.0
H353 H 0.40964 0.94559 0.36607 0.0
C354 C 0.4514 0.96007 0.40406 0.0
C355 C 0.49264 0.95844 0.41809 0.0
C356 C 0.50766 0.91006 0.3191 0.0
C357 C 0.4712 0.92304 0.36327 0.0
C358 C 0.50782 0.91085 0.29098 0.0
C359 C 0.46717 0.91371 0.27708 0.0
C360 C 0.46704 0.91312 0.3334 0.0
C361 C 0.4252 0.91257 0.29188 0.0
C362 C 0.44028 0.94203 0.37675 0.0
C363 C 0.52 0.93554 0.40443 0.0
N364 N 0.42669 0.91332 0.31931 0.0
N365 N 0.50944 0.91961 0.37762 0.0
H366 H 0.686 0.66763 0.76607 0.0
H367 H 0.5655 0.4866 0.62768 0.0
H368 H 0.52684 0.53435 0.75556 0.0
H369 H 0.71801 0.6298 0.63486 0.0
H370 H 0.5583 0.49398 0.67664 0.0
H371 H 0.7046 0.64614 0.7201 0.0
C372 C 0.65506 0.63369 0.75413 0.0
C373 C 0.60465 0.60299 0.76454 0.0
C374 C 0.5937 0.52342 0.66758 0.0
C375 C 0.62565 0.5782 0.71201 0.0
C376 C 0.59814 0.51891 0.63962 0.0
C377 C 0.64218 0.55802 0.62712 0.0
C378 C 0.63345 0.56749 0.68317 0.0
C379 C 0.68292 0.59934 0.64364 0.0
C380 C 0.66574 0.6214 0.72793 0.0
C381 C 0.56609 0.55941 0.74824 0.0
N382 N 0.67727 0.60338 0.67081 0.0
N383 N 0.57733 0.54847 0.72274 0.0
H384 H 0.49373 0.93208 0.5741 0.0
H385 H 0.58301 0.14932 0.69936 0.0
H386 H 0.54492 0.0975 0.56632 0.0
H387 H 0.48653 0.98159 0.70858 0.0
H388 H 0.57423 0.1304 0.65042 0.0
H389 H 0.49584 0.94866 0.62345 0.0
C390 C 0.50524 0.97177 0.58272 0.0
C391 C 0.51925 0.01347 0.56603 0.0
C392 C 0.5547 0.09773 0.66314 0.0
C393 C 0.52207 0.03262 0.62229 0.0
C394 C 0.55939 0.10851 0.69114 0.0
C395 C 0.53521 0.06704 0.70823 0.0
C396 C 0.52617 0.045 0.65199 0.0
C397 C 0.50638 0.01481 0.69625 0.0
C398 C 0.50628 0.98113 0.61085 0.0
C399 C 0.53372 0.06407 0.57832 0.0
N400 N 0.50284 0.00523 0.66884 0.0
N401 N 0.53506 0.07224 0.60568 0.0
H402 H 0.50785 0.63107 0.91601 0.0
H403 H 0.56166 0.51089 0.04352 0.0
H404 H 0.63146 0.58854 0.9201 0.0
H405 H 0.48388 0.60581 0.05051 0.0
H406 H 0.58183 0.53356 -0.00296 0.0
H407 H 0.49292 0.6171 0.96418 0.0
C408 C 0.53206 0.61914 0.92704 0.0
C409 C 0.57088 0.6108 0.91396 0.0
C410 C 0.56066 0.54974 0.00879 0.0
C411 C 0.55353 0.59426 0.96885 0.0
C412 C 0.54934 0.53708 0.03545 0.0
C413 C 0.52146 0.55691 0.0512 0.0
C414 C 0.54332 0.58182 -0.00255 0.0
C415 C 0.50504 0.5892 0.03913 0.0
C416 C 0.52357 0.61131 0.95452 0.0
C417 C 0.60117 0.59552 0.9293 0.0
N418 N 0.51603 0.6005 0.0129 0.0
N419 N 0.5915 0.58728 0.95585 0.0
H420 H 0.00934 0.56378 0.22934 0.0
H421 H 0.9868 0.39684 0.35539 0.0
H422 H 0.95434 0.39539 0.22256 0.0
H423 H 0.02742 0.56171 0.3637 0.0
H424 H 0.97666 0.3963 0.30646 0.0
H425 H 0.01873 0.56478 0.27848 0.0
C426 C 0.99924 0.52704 0.23816 0.0
C427 C 0.98106 0.47944 0.2218 0.0
C428 C 0.98775 0.43262 0.31897 0.0
C429 C 0.99176 0.48033 0.27795 0.0
C430 C 0.99326 0.43285 0.34694 0.0
C431 C 0.00791 0.47937 0.36368 0.0
C432 C 0.99705 0.47925 0.3076 0.0
C433 C 0.01669 0.52513 0.35153 0.0
C434 C 1.00457 0.52763 0.26621 0.0
C435 C 0.96857 0.43304 0.23435 0.0
N436 N 0.01114 0.52394 0.32422 0.0
N437 N 0.9742 0.43468 0.26164 0.0
loop_
_geom_bond_atom_site_label_1
_geom_bond_atom_site_label_2
_geom_bond_distance
_geom_bond_site_symmetry_2
_ccdc_geom_bond_type
Zn0 O6 1.969 . S
Zn0 O7 1.965 . S
Zn0 O11 2.024 . S
Zn0 O16 1.969 . S
Zn1 O8 1.969 . S
Zn1 O14 1.969 . S
Zn1 O15 1.965 . S
Zn1 O17 2.024 . S
C2 O3 1.229 . S
C2 O11 1.058 . S
O3 C2 1.229 . S
C4 O5 1.229 . S
C4 O17 1.058 . S
O5 C4 1.229 . S
O6 Zn0 1.969 . S
O6 C9 1.267 . S
O7 Zn0 1.965 . S
O7 C18 1.260 1_455 S
O8 Zn1 1.969 . S
O8 C18 1.258 . S
C9 O6 1.267 . S
C9 O10 1.228 . S
O10 C9 1.228 . S
O11 Zn0 2.024 . S
O11 C2 1.058 . S
C12 O13 1.228 . S
C12 O14 1.267 . S
O13 C12 1.228 . S
O14 Zn1 1.969 . S
O14 C12 1.267 . S
O15 Zn1 1.965 . S
O15 C19 1.260 1_655 S
O16 Zn0 1.969 . S
O16 C19 1.258 . S
O17 Zn1 2.024 . S
O17 C4 1.058 . S
C18 O7 1.260 1_655 S
C18 O8 1.258 . S
C19 O15 1.260 1_455 S
C19 O16 1.258 . S
Zn20 O26 1.969 . S
Zn20 O27 1.965 . S
Zn20 O31 2.024 . S
Zn20 O36 1.969 . S
Zn21 O28 1.969 . S
Zn21 O34 1.969 . S
Zn21 O35 1.965 . S
Zn21 O37 2.024 . S
C22 O23 1.229 . S
C22 O31 1.058 . S
O23 C22 1.229 . S
C24 O25 1.229 . S
C24 O37 1.058 . S
O25 C24 1.229 . S
O26 Zn20 1.969 . S
O26 C29 1.267 . S
O27 Zn20 1.965 . S
O27 C38 1.260 . S
O28 Zn21 1.969 . S
O28 C38 1.258 1_565 S
C29 O26 1.267 . S
C29 O30 1.228 . S
O30 C29 1.228 . S
O31 Zn20 2.024 . S
O31 C22 1.058 . S
C32 O33 1.228 . S
C32 O34 1.267 . S
O33 C32 1.228 . S
O34 Zn21 1.969 . S
O34 C32 1.267 . S
O35 Zn21 1.965 . S
O35 C39 1.260 1_565 S
O36 Zn20 1.969 . S
O36 C39 1.258 . S
O37 Zn21 2.024 . S
O37 C24 1.058 . S
C38 O27 1.260 . S
C38 O28 1.258 1_545 S
C39 O35 1.260 1_545 S
C39 O36 1.258 . S
Zn40 O46 1.969 . S
Zn40 O47 1.965 . S
Zn40 O51 2.024 . S
Zn40 O56 1.969 . S
Zn41 O48 1.969 . S
Zn41 O54 1.969 . S
Zn41 O55 1.965 . S
Zn41 O57 2.024 . S
C42 O43 1.229 . S
C42 O51 1.058 . S
O43 C42 1.229 . S
C44 O45 1.229 . S
C44 O57 1.058 . S
O45 C44 1.229 . S
O46 Zn40 1.969 . S
O46 C49 1.267 . S
O47 Zn40 1.965 . S
O47 C58 1.260 . S
O48 Zn41 1.969 . S
O48 C58 1.258 . S
C49 O46 1.267 . S
C49 O50 1.228 . S
O50 C49 1.228 . S
O51 Zn40 2.024 . S
O51 C42 1.058 . S
C52 O53 1.228 . S
C52 O54 1.267 . S
O53 C52 1.228 . S
O54 Zn41 1.969 . S
O54 C52 1.267 . S
O55 Zn41 1.965 . S
O55 C59 1.260 . S
O56 Zn40 1.969 . S
O56 C59 1.258 . S
O57 Zn41 2.024 . S
O57 C44 1.058 . S
C58 O47 1.260 . S
C58 O48 1.258 . S
C59 O55 1.260 . S
C59 O56 1.258 . S
H60 C63 0.931 . S
H61 C66 0.928 . S
H62 C68 0.930 . S
C63 H60 0.931 . S
C63 C64 1.413 . S
C63 C65 1.360 1_565 S
C64 C63 1.413 . S
C64 C68 1.429 1_565 S
C65 C63 1.360 1_545 S
C65 C66 1.372 . S
C66 H61 0.928 . S
C66 C65 1.372 . S
C66 C67 1.404 . S
C67 C66 1.404 . S
C67 C68 1.391 . S
C68 H62 0.930 . S
C68 C64 1.429 1_545 S
C68 C67 1.391 . S
H69 C72 0.931 . S
H70 C75 0.928 . S
H71 C77 0.930 . S
C72 H69 0.931 . S
C72 C73 1.413 . S
C72 C74 1.360 . S
C73 C72 1.413 . S
C73 C77 1.429 . S
C74 C72 1.360 . S
C74 C75 1.372 . S
C75 H70 0.928 . S
C75 C74 1.372 . S
C75 C76 1.404 . S
C76 C75 1.404 . S
C76 C77 1.391 . S
C77 H71 0.930 . S
C77 C73 1.429 . S
C77 C76 1.391 . S
H78 C81 0.931 . S
H79 C84 0.928 . S
H80 C86 0.930 . S
C81 H78 0.931 . S
C81 C82 1.413 . S
C81 C83 1.360 1_655 S
C82 C81 1.413 . S
C82 C86 1.429 1_655 S
C83 C81 1.360 1_455 S
C83 C84 1.372 . S
C84 H79 0.928 . S
C84 C83 1.372 . S
C84 C85 1.404 . S
C85 C84 1.404 . S
C85 C86 1.391 . S
C86 H80 0.930 . S
C86 C82 1.429 1_455 S
C86 C85 1.391 . S
H87 C90 0.931 . S
H88 C93 0.928 . S
H89 C95 0.930 . S
C90 H87 0.931 . S
C90 C91 1.413 . S
C90 C92 1.360 1_655 S
C91 C90 1.413 . S
C91 C95 1.429 1_655 S
C92 C90 1.360 1_455 S
C92 C93 1.372 . S
C93 H88 0.928 . S
C93 C92 1.372 . S
C93 C94 1.404 . S
C94 C93 1.404 . S
C94 C95 1.391 . S
C95 H89 0.930 . S
C95 C91 1.429 1_455 S
C95 C94 1.391 . S
H96 C99 0.931 . S
H97 C102 0.928 . S
H98 C104 0.930 . S
C99 H96 0.931 . S
C99 C100 1.413 . S
C99 C101 1.360 . S
C100 C99 1.413 . S
C100 C104 1.429 . S
C101 C99 1.360 . S
C101 C102 1.372 1_545 S
C102 H97 0.928 . S
C102 C101 1.372 1_565 S
C102 C103 1.404 . S
C103 C102 1.404 . S
C103 C104 1.391 1_565 S
C104 H98 0.930 . S
C104 C100 1.429 . S
C104 C103 1.391 1_545 S
H105 C108 0.931 . S
H106 C111 0.928 . S
H107 C113 0.930 . S
C108 H105 0.931 . S
C108 C109 1.413 . S
C108 C110 1.360 . S
C109 C108 1.413 . S
C109 C113 1.429 . S
C110 C108 1.360 . S
C110 C111 1.372 . S
C111 H106 0.928 . S
C111 C110 1.372 . S
C111 C112 1.404 . S
C112 C111 1.404 . S
C112 C113 1.391 . S
C113 H107 0.930 . S
C113 C109 1.429 . S
C113 C112 1.391 . S
H114 C120 0.930 . S
H115 C124 0.930 . S
H116 C129 0.929 . S
H117 C127 0.929 . S
H118 C122 0.929 . S
H119 C128 0.929 . S
C120 H114 0.930 . S
C120 C121 1.367 . S
C120 C128 1.378 . S
C121 C120 1.367 . S
C121 C129 1.433 . S
C122 H118 0.929 . S
C122 C124 1.378 . S
C122 C126 1.350 . S
C123 C126 1.463 . S
C123 C128 1.350 . S
C123 N131 1.427 . S
C124 H115 0.930 . S
C124 C122 1.378 . S
C124 C125 1.367 . S
C125 C124 1.367 . S
C125 C127 1.433 . S
C126 C122 1.350 . S
C126 C123 1.463 . S
C126 N130 1.427 . S
C127 H117 0.929 . S
C127 C125 1.433 . S
C127 N130 1.384 . S
C128 H119 0.929 . S
C128 C120 1.378 . S
C128 C123 1.350 . S
C129 H116 0.929 . S
C129 C121 1.433 . S
C129 N131 1.384 . S
N130 C126 1.427 . S
N130 C127 1.384 . S
N131 C123 1.427 . S
N131 C129 1.384 . S
H132 C138 0.930 . S
H133 C142 0.930 . S
H134 C147 0.929 . S
H135 C145 0.929 . S
H136 C140 0.929 . S
H137 C146 0.929 . S
C138 H132 0.930 . S
C138 C139 1.367 . S
C138 C146 1.378 . S
C139 C138 1.367 . S
C139 C147 1.433 . S
C140 H136 0.929 . S
C140 C142 1.378 . S
C140 C144 1.350 . S
C141 C144 1.463 . S
C141 C146 1.350 . S
C141 N149 1.427 . S
C142 H133 0.930 . S
C142 C140 1.378 . S
C142 C143 1.367 . S
C143 C142 1.367 . S
C143 C145 1.433 . S
C144 C140 1.350 . S
C144 C141 1.463 . S
C144 N148 1.427 . S
C145 H135 0.929 . S
C145 C143 1.433 . S
C145 N148 1.384 . S
C146 H137 0.929 . S
C146 C138 1.378 . S
C146 C141 1.350 . S
C147 H134 0.929 . S
C147 C139 1.433 . S
C147 N149 1.384 . S
N148 C144 1.427 . S
N148 C145 1.384 . S
N149 C141 1.427 . S
N149 C147 1.384 . S
H150 C156 0.930 . S
H151 C160 0.930 . S
H152 C165 0.929 . S
H153 C163 0.929 . S
H154 C158 0.929 . S
H155 C164 0.929 . S
C156 H150 0.930 . S
C156 C157 1.367 . S
C156 C164 1.378 . S
C157 C156 1.367 . S
C157 C165 1.433 . S
C158 H154 0.929 . S
C158 C160 1.378 . S
C158 C162 1.350 . S
C159 C162 1.463 . S
C159 C164 1.350 . S
C159 N167 1.427 . S
C160 H151 0.930 . S
C160 C158 1.378 . S
C160 C161 1.367 . S
C161 C160 1.367 . S
C161 C163 1.433 . S
C162 C158 1.350 . S
C162 C159 1.463 . S
C162 N166 1.427 . S
C163 H153 0.929 . S
C163 C161 1.433 . S
C163 N166 1.384 . S
C164 H155 0.929 . S
C164 C156 1.378 . S
C164 C159 1.350 . S
C165 H152 0.929 . S
C165 C157 1.433 . S
C165 N167 1.384 . S
N166 C162 1.427 . S
N166 C163 1.384 . S
N167 C159 1.427 . S
N167 C165 1.384 . S
H168 C174 0.930 . S
H169 C178 0.930 . S
H170 C183 0.929 . S
H171 C181 0.929 . S
H172 C176 0.929 . S
H173 C182 0.929 . S
C174 H168 0.930 . S
C174 C175 1.367 . S
C174 C182 1.378 . S
C175 C174 1.367 . S
C175 C183 1.433 . S
C176 H172 0.929 . S
C176 C178 1.378 . S
C176 C180 1.350 . S
C177 C180 1.463 . S
C177 C182 1.350 . S
C177 N185 1.427 . S
C178 H169 0.930 . S
C178 C176 1.378 . S
C178 C179 1.367 . S
C179 C178 1.367 . S
C179 C181 1.433 . S
C180 C176 1.350 . S
C180 C177 1.463 . S
C180 N184 1.427 . S
C181 H171 0.929 . S
C181 C179 1.433 . S
C181 N184 1.384 . S
C182 H173 0.929 . S
C182 C174 1.378 . S
C182 C177 1.350 . S
C183 H170 0.929 . S
C183 C175 1.433 . S
C183 N185 1.384 . S
N184 C180 1.427 . S
N184 C181 1.384 . S
N185 C177 1.427 . S
N185 C183 1.384 . S
H186 C192 0.930 . S
H187 C196 0.930 . S
H188 C201 0.929 . S
H189 C199 0.929 . S
H190 C194 0.929 . S
H191 C200 0.929 . S
C192 H186 0.930 . S
C192 C193 1.367 . S
C192 C200 1.378 . S
C193 C192 1.367 . S
C193 C201 1.433 . S
C194 H190 0.929 . S
C194 C196 1.378 . S
C194 C198 1.350 . S
C195 C198 1.463 . S
C195 C200 1.350 . S
C195 N203 1.427 . S
C196 H187 0.930 . S
C196 C194 1.378 . S
C196 C197 1.367 . S
C197 C196 1.367 . S
C197 C199 1.433 . S
C198 C194 1.350 . S
C198 C195 1.463 . S
C198 N202 1.427 . S
C199 H189 0.929 . S
C199 C197 1.433 . S
C199 N202 1.384 . S
C200 H191 0.929 . S
C200 C192 1.378 . S
C200 C195 1.350 . S
C201 H188 0.929 . S
C201 C193 1.433 . S
C201 N203 1.384 . S
N202 C198 1.427 . S
N202 C199 1.384 . S
N203 C195 1.427 . S
N203 C201 1.384 . S
H204 C210 0.930 . S
H205 C214 0.930 . S
H206 C219 0.929 . S
H207 C217 0.929 . S
H208 C212 0.929 . S
H209 C218 0.929 . S
C210 H204 0.930 . S
C210 C211 1.367 . S
C210 C218 1.378 . S
C211 C210 1.367 . S
C211 C219 1.433 . S
C212 H208 0.929 . S
C212 C214 1.378 . S
C212 C216 1.350 . S
C213 C216 1.463 . S
C213 C218 1.350 . S
C213 N221 1.427 . S
C214 H205 0.930 . S
C214 C212 1.378 . S
C214 C215 1.367 . S
C215 C214 1.367 . S
C215 C217 1.433 . S
C216 C212 1.350 . S
C216 C213 1.463 . S
C216 N220 1.427 . S
C217 H207 0.929 . S
C217 C215 1.433 . S
C217 N220 1.384 . S
C218 H209 0.929 . S
C218 C210 1.378 . S
C218 C213 1.350 . S
C219 H206 0.929 . S
C219 C211 1.433 . S
C219 N221 1.384 . S
N220 C216 1.427 . S
N220 C217 1.384 . S
N221 C213 1.427 . S
N221 C219 1.384 . S
H222 C228 0.930 . S
H223 C232 0.930 . S
H224 C237 0.929 . S
H225 C235 0.929 . S
H226 C230 0.929 . S
H227 C236 0.929 . S
C228 H222 0.930 . S
C228 C229 1.367 . S
C228 C236 1.378 . S
C229 C228 1.367 . S
C229 C237 1.433 . S
C230 H226 0.929 . S
C230 C232 1.378 . S
C230 C234 1.350 . S
C231 C234 1.463 . S
C231 C236 1.350 . S
C231 N239 1.427 . S
C232 H223 0.930 . S
C232 C230 1.378 . S
C232 C233 1.367 . S
C233 C232 1.367 . S
C233 C235 1.433 . S
C234 C230 1.350 . S
C234 C231 1.463 . S
C234 N238 1.427 . S
C235 H225 0.929 . S
C235 C233 1.433 . S
C235 N238 1.384 . S
C236 H227 0.929 . S
C236 C228 1.378 . S
C236 C231 1.350 . S
C237 H224 0.929 . S
C237 C229 1.433 . S
C237 N239 1.384 . S
N238 C234 1.427 . S
N238 C235 1.384 . S
N239 C231 1.427 . S
N239 C237 1.384 . S
H240 C246 0.930 . S
H241 C250 0.930 . S
H242 C255 0.929 . S
H243 C253 0.929 . S
H244 C248 0.929 . S
H245 C254 0.929 . S
C246 H240 0.930 . S
C246 C247 1.367 . S
C246 C254 1.378 . S
C247 C246 1.367 . S
C247 C255 1.433 . S
C248 H244 0.929 . S
C248 C250 1.378 . S
C248 C252 1.350 . S
C249 C252 1.463 . S
C249 C254 1.350 . S
C249 N257 1.427 . S
C250 H241 0.930 . S
C250 C248 1.378 . S
C250 C251 1.367 . S
C251 C250 1.367 . S
C251 C253 1.433 . S
C252 C248 1.350 . S
C252 C249 1.463 . S
C252 N256 1.427 . S
C253 H243 0.929 . S
C253 C251 1.433 . S
C253 N256 1.384 . S
C254 H245 0.929 . S
C254 C246 1.378 . S
C254 C249 1.350 . S
C255 H242 0.929 . S
C255 C247 1.433 . S
C255 N257 1.384 . S
N256 C252 1.427 . S
N256 C253 1.384 . S
N257 C249 1.427 . S
N257 C255 1.384 . S
H258 C264 0.930 . S
H259 C268 0.930 . S
H260 C273 0.929 . S
H261 C271 0.929 . S
H262 C266 0.929 . S
H263 C272 0.929 . S
C264 H258 0.930 . S
C264 C265 1.367 . S
C264 C272 1.378 . S
C265 C264 1.367 . S
C265 C273 1.433 . S
C266 H262 0.929 . S
C266 C268 1.378 . S
C266 C270 1.350 . S
C267 C270 1.463 . S
C267 C272 1.350 . S
C267 N275 1.427 . S
C268 H259 0.930 . S
C268 C266 1.378 . S
C268 C269 1.367 . S
C269 C268 1.367 . S
C269 C271 1.433 . S
C270 C266 1.350 . S
C270 C267 1.463 . S
C270 N274 1.427 . S
C271 H261 0.929 . S
C271 C269 1.433 . S
C271 N274 1.384 . S
C272 H263 0.929 . S
C272 C264 1.378 . S
C272 C267 1.350 . S
C273 H260 0.929 . S
C273 C265 1.433 . S
C273 N275 1.384 . S
N274 C270 1.427 . S
N274 C271 1.384 . S
N275 C267 1.427 . S
N275 C273 1.384 . S
H276 C282 0.930 . S
H277 C286 0.930 . S
H278 C291 0.929 . S
H279 C289 0.929 . S
H280 C284 0.929 . S
H281 C290 0.929 . S
C282 H276 0.930 . S
C282 C283 1.367 . S
C282 C290 1.378 . S
C283 C282 1.367 . S
C283 C291 1.433 . S
C284 H280 0.929 . S
C284 C286 1.378 . S
C284 C288 1.350 . S
C285 C288 1.463 . S
C285 C290 1.350 . S
C285 N293 1.427 . S
C286 H277 0.930 . S
C286 C284 1.378 . S
C286 C287 1.367 . S
C287 C286 1.367 . S
C287 C289 1.433 . S
C288 C284 1.350 . S
C288 C285 1.463 . S
C288 N292 1.427 . S
C289 H279 0.929 . S
C289 C287 1.433 . S
C289 N292 1.384 . S
C290 H281 0.929 . S
C290 C282 1.378 . S
C290 C285 1.350 . S
C291 H278 0.929 . S
C291 C283 1.433 . S
C291 N293 1.384 . S
N292 C288 1.427 . S
N292 C289 1.384 . S
N293 C285 1.427 . S
N293 C291 1.384 . S
H294 C300 0.930 . S
H295 C304 0.930 . S
H296 C309 0.929 . S
H297 C307 0.929 . S
H298 C302 0.929 . S
H299 C308 0.929 . S
C300 H294 0.930 . S
C300 C301 1.367 . S
C300 C308 1.378 . S
C301 C300 1.367 . S
C301 C309 1.433 . S
C302 H298 0.929 . S
C302 C304 1.378 . S
C302 C306 1.350 . S
C303 C306 1.463 . S
C303 C308 1.350 . S
C303 N311 1.427 . S
C304 H295 0.930 . S
C304 C302 1.378 . S
C304 C305 1.367 . S
C305 C304 1.367 . S
C305 C307 1.433 . S
C306 C302 1.350 . S
C306 C303 1.463 . S
C306 N310 1.427 . S
C307 H297 0.929 . S
C307 C305 1.433 . S
C307 N310 1.384 . S
C308 H299 0.929 . S
C308 C300 1.378 . S
C308 C303 1.350 . S
C309 H296 0.929 . S
C309 C301 1.433 . S
C309 N311 1.384 . S
N310 C306 1.427 . S
N310 C307 1.384 . S
N311 C303 1.427 . S
N311 C309 1.384 . S
H312 C318 0.930 . S
H313 C322 0.930 . S
H314 C327 0.929 . S
H315 C325 0.929 . S
H316 C320 0.929 . S
H317 C326 0.929 . S
C318 H312 0.930 . S
C318 C319 1.367 . S
C318 C326 1.378 . S
C319 C318 1.367 . S
C319 C327 1.433 . S
C320 H316 0.929 . S
C320 C322 1.378 . S
C320 C324 1.350 . S
C321 C324 1.463 . S
C321 C326 1.350 . S
C321 N329 1.427 . S
C322 H313 0.930 . S
C322 C320 1.378 . S
C322 C323 1.367 . S
C323 C322 1.367 . S
C323 C325 1.433 . S
C324 C320 1.350 . S
C324 C321 1.463 . S
C324 N328 1.427 . S
C325 H315 0.929 . S
C325 C323 1.433 . S
C325 N328 1.384 . S
C326 H317 0.929 . S
C326 C318 1.378 . S
C326 C321 1.350 . S
C327 H314 0.929 . S
C327 C319 1.433 . S
C327 N329 1.384 . S
N328 C324 1.427 . S
N328 C325 1.384 . S
N329 C321 1.427 . S
N329 C327 1.384 . S
H330 C336 0.930 . S
H331 C340 0.930 . S
H332 C345 0.929 . S
H333 C343 0.929 . S
H334 C338 0.929 1_554 S
H335 C344 0.929 . S
C336 H330 0.930 . S
C336 C337 1.367 . S
C336 C344 1.378 . S
C337 C336 1.367 . S
C337 C345 1.433 1_455 S
C338 H334 0.929 1_556 S
C338 C340 1.378 . S
C338 C342 1.350 1_556 S
C339 C342 1.463 . S
C339 C344 1.350 . S
C339 N347 1.427 . S
C340 H331 0.930 . S
C340 C338 1.378 . S
C340 C341 1.367 . S
C341 C340 1.367 . S
C341 C343 1.433 . S
C342 C338 1.350 1_554 S
C342 C339 1.463 . S
C342 N346 1.427 1_554 S
C343 H333 0.929 . S
C343 C341 1.433 . S
C343 N346 1.384 . S
C344 H335 0.929 . S
C344 C336 1.378 . S
C344 C339 1.350 . S
C345 H332 0.929 . S
C345 C337 1.433 1_655 S
C345 N347 1.384 1_655 S
N346 C342 1.427 1_556 S
N346 C343 1.384 . S
N347 C339 1.427 . S
N347 C345 1.384 1_455 S
H348 C354 0.930 . S
H349 C358 0.930 . S
H350 C363 0.929 . S
H351 C361 0.929 . S
H352 C356 0.929 . S
H353 C362 0.929 . S
C354 H348 0.930 . S
C354 C355 1.367 1_565 S
C354 C362 1.378 . S
C355 C354 1.367 1_545 S
C355 C363 1.433 . S
C356 H352 0.929 . S
C356 C358 1.378 . S
C356 C360 1.350 . S
C357 C360 1.463 . S
C357 C362 1.350 1_545 S
C357 N365 1.427 . S
C358 H349 0.930 . S
C358 C356 1.378 . S
C358 C359 1.367 . S
C359 C358 1.367 . S
C359 C361 1.433 1_545 S
C360 C356 1.350 . S
C360 C357 1.463 . S
C360 N364 1.427 1_545 S
C361 H351 0.929 . S
C361 C359 1.433 1_565 S
C361 N364 1.384 . S
C362 H353 0.929 . S
C362 C354 1.378 . S
C362 C357 1.350 1_565 S
C363 H350 0.929 . S
C363 C355 1.433 . S
C363 N365 1.384 . S
N364 C360 1.427 1_565 S
N364 C361 1.384 . S
N365 C357 1.427 . S
N365 C363 1.384 . S
H366 C372 0.930 . S
H367 C376 0.930 . S
H368 C381 0.929 . S
H369 C379 0.929 . S
H370 C374 0.929 . S
H371 C380 0.929 . S
C372 H366 0.930 . S
C372 C373 1.367 . S
C372 C380 1.378 . S
C373 C372 1.367 . S
C373 C381 1.433 . S
C374 H370 0.929 . S
C374 C376 1.378 . S
C374 C378 1.350 . S
C375 C378 1.463 . S
C375 C380 1.350 . S
C375 N383 1.427 . S
C376 H367 0.930 . S
C376 C374 1.378 . S
C376 C377 1.367 . S
C377 C376 1.367 . S
C377 C379 1.433 . S
C378 C374 1.350 . S
C378 C375 1.463 . S
C378 N382 1.427 . S
C379 H369 0.929 . S
C379 C377 1.433 . S
C379 N382 1.384 . S
C380 H371 0.929 . S
C380 C372 1.378 . S
C380 C375 1.350 . S
C381 H368 0.929 . S
C381 C373 1.433 . S
C381 N383 1.384 . S
N382 C378 1.427 . S
N382 C379 1.384 . S
N383 C375 1.427 . S
N383 C381 1.384 . S
H384 C390 0.930 . S
H385 C394 0.930 . S
H386 C399 0.929 . S
H387 C397 0.929 . S
H388 C392 0.929 . S
H389 C398 0.929 . S
C390 H384 0.930 . S
C390 C391 1.367 1_565 S
C390 C398 1.378 . S
C391 C390 1.367 1_545 S
C391 C399 1.433 . S
C392 H388 0.929 . S
C392 C394 1.378 . S
C392 C396 1.350 . S
C393 C396 1.463 . S
C393 C398 1.350 1_545 S
C393 N401 1.427 . S
C394 H385 0.930 . S
C394 C392 1.378 . S
C394 C395 1.367 . S
C395 C394 1.367 . S
C395 C397 1.433 1_545 S
C396 C392 1.350 . S
C396 C393 1.463 . S
C396 N400 1.427 1_545 S
C397 H387 0.929 . S
C397 C395 1.433 1_565 S
C397 N400 1.384 . S
C398 H389 0.929 . S
C398 C390 1.378 . S
C398 C393 1.350 1_565 S
C399 H386 0.929 . S
C399 C391 1.433 . S
C399 N401 1.384 . S
N400 C396 1.427 1_565 S
N400 C397 1.384 . S
N401 C393 1.427 . S
N401 C399 1.384 . S
H402 C408 0.930 . S
H403 C412 0.930 . S
H404 C417 0.929 . S
H405 C415 0.929 . S
H406 C410 0.929 1_556 S
H407 C416 0.929 . S
C408 H402 0.930 . S
C408 C409 1.367 . S
C408 C416 1.378 . S
C409 C408 1.367 . S
C409 C417 1.433 . S
C410 H406 0.929 1_554 S
C410 C412 1.378 . S
C410 C414 1.350 1_554 S
C411 C414 1.463 . S
C411 C416 1.350 . S
C411 N419 1.427 . S
C412 H403 0.930 . S
C412 C410 1.378 . S
C412 C413 1.367 . S
C413 C412 1.367 . S
C413 C415 1.433 . S
C414 C410 1.350 1_556 S
C414 C411 1.463 . S
C414 N418 1.427 1_556 S
C415 H405 0.929 . S
C415 C413 1.433 . S
C415 N418 1.384 . S
C416 H407 0.929 . S
C416 C408 1.378 . S
C416 C411 1.350 . S
C417 H404 0.929 . S
C417 C409 1.433 . S
C417 N419 1.384 . S
N418 C414 1.427 1_554 S
N418 C415 1.384 . S
N419 C411 1.427 . S
N419 C417 1.384 . S
H420 C426 0.930 . S
H421 C430 0.930 . S
H422 C435 0.929 . S
H423 C433 0.929 . S
H424 C428 0.929 1_655 S
H425 C434 0.929 . S
C426 H420 0.930 . S
C426 C427 1.373 1_455 S
C426 C434 1.378 . S
C427 C426 1.373 1_655 S
C427 C435 1.426 . S
C428 H424 0.929 1_455 S
C428 C430 1.378 . S
C428 C432 1.350 . S
C429 C432 1.463 . S
C429 C434 1.350 . S
C429 N437 1.427 1_455 S
C430 H421 0.930 . S
C430 C428 1.378 . S
C430 C431 1.367 . S
C431 C430 1.367 . S
C431 C433 1.433 . S
C432 C428 1.350 . S
C432 C429 1.463 . S
C432 N436 1.427 . S
C433 H423 0.929 . S
C433 C431 1.433 . S
C433 N436 1.384 . S
C434 H425 0.929 . S
C434 C426 1.378 . S
C434 C429 1.350 . S
C435 H422 0.929 . S
C435 C427 1.426 . S
C435 N437 1.384 . S
N436 C432 1.427 . S
N436 C433 1.384 . S
N437 C429 1.427 1_655 S
N437 C435 1.384 . S
C121 C2 1.348 . S
C125 C109 1.438 . S
C139 C22 1.334 . S
C143 C91 1.443 . S
C157 C44 1.347 . S
C161 C103 1.434 . S
C175 C4 1.441 . S
C179 C112 1.537 . S
C197 C94 1.530 . S
C193 C24 1.456 . S
C215 C100 1.522 . S
C211 C42 1.440 . S
C229 C32 1.238 . S
C233 C73 1.286 . S
C247 C49 1.239 . S
C251 C82 1.271 . S
C265 C9 1.236 . S
C269 C64 1.266 . S
C287 C76 1.252 . S
C283 C29 1.218 . S
C305 C85 1.252 . S
C301 C52 1.198 . S
C319 C12 1.202 . S
C323 C67 1.245 . S
C341 C83 1.439 . S
C337 C18 1.429 1_455 S
C355 C38 1.416 . S
C359 C65 1.440 . S
C373 C58 1.416 . S
C377 C74 1.440 . S
C395 C101 1.512 . S
C391 C39 1.498 . S
C413 C110 1.499 . S
C409 C59 1.478 . S
C427 C19 1.472 1_655 S
C431 C92 1.502 . S
