# Generated by pormake.
# Topology ana-f, (3,3)-cn, num edge types: 1
# Building blocks:
#     Node 0, Type 0, BuildingBlock: OLANEW_clean_sbu_2, # of connection points: 3
#     Node 1, Type 0, BuildingBlock: OLANEW_clean_sbu_2, # of connection points: 3
#     Node 2, Type 0, BuildingBlock: OLANEW_clean_sbu_2, # of connection points: 3
#     Node 3, Type 0, BuildingBlock: OLANEW_clean_sbu_2, # of connection points: 3
#     Node 4, Type 0, BuildingBlock: OLANEW_clean_sbu_2, # of connection points: 3
#     Node 5, Type 0, BuildingBlock: OLANEW_clean_sbu_2, # of connection points: 3
#     Node 6, Type 0, BuildingBlock: OLANEW_clean_sbu_2, # of connection points: 3
#     Node 7, Type 0, BuildingBlock: OLANEW_clean_sbu_2, # of connection points: 3
#     Node 8, Type 0, BuildingBlock: OLANEW_clean_sbu_2, # of connection points: 3
#     Node 9, Type 0, BuildingBlock: OLANEW_clean_sbu_2, # of connection points: 3
#     Node 10, Type 0, BuildingBlock: OLANEW_clean_sbu_2, # of connection points: 3
#     Node 11, Type 0, BuildingBlock: OLANEW_clean_sbu_2, # of connection points: 3
#     Node 12, Type 0, BuildingBlock: OLANEW_clean_sbu_2, # of connection points: 3
#     Node 13, Type 0, BuildingBlock: OLANEW_clean_sbu_2, # of connection points: 3
#     Node 14, Type 0, BuildingBlock: OLANEW_clean_sbu_2, # of connection points: 3
#     Node 15, Type 0, BuildingBlock: OLANEW_clean_sbu_2, # of connection points: 3
#     Node 16, Type 0, BuildingBlock: OLANEW_clean_sbu_2, # of connection points: 3
#     Node 17, Type 0, BuildingBlock: OLANEW_clean_sbu_2, # of connection points: 3
#     Node 18, Type 0, BuildingBlock: OLANEW_clean_sbu_2, # of connection points: 3
#     Node 19, Type 0, BuildingBlock: OLANEW_clean_sbu_2, # of connection points: 3
#     Node 20, Type 0, BuildingBlock: OLANEW_clean_sbu_2, # of connection points: 3
#     Node 21, Type 0, BuildingBlock: OLANEW_clean_sbu_2, # of connection points: 3
#     Node 22, Type 0, BuildingBlock: OLANEW_clean_sbu_2, # of connection points: 3
#     Node 23, Type 0, BuildingBlock: OLANEW_clean_sbu_2, # of connection points: 3
#     Node 24, Type 0, BuildingBlock: OLANEW_clean_sbu_2, # of connection points: 3
#     Node 25, Type 0, BuildingBlock: OLANEW_clean_sbu_2, # of connection points: 3
#     Node 26, Type 0, BuildingBlock: OLANEW_clean_sbu_2, # of connection points: 3
#     Node 27, Type 0, BuildingBlock: OLANEW_clean_sbu_2, # of connection points: 3
#     Node 28, Type 0, BuildingBlock: OLANEW_clean_sbu_2, # of connection points: 3
#     Node 29, Type 0, BuildingBlock: OLANEW_clean_sbu_2, # of connection points: 3
#     Node 30, Type 0, BuildingBlock: OLANEW_clean_sbu_2, # of connection points: 3
#     Node 31, Type 0, BuildingBlock: OLANEW_clean_sbu_2, # of connection points: 3
#     Node 32, Type 0, BuildingBlock: OLANEW_clean_sbu_2, # of connection points: 3
#     Node 33, Type 0, BuildingBlock: OLANEW_clean_sbu_2, # of connection points: 3
#     Node 34, Type 0, BuildingBlock: OLANEW_clean_sbu_2, # of connection points: 3
#     Node 35, Type 0, BuildingBlock: OLANEW_clean_sbu_2, # of connection points: 3
#     Node 36, Type 0, BuildingBlock: OLANEW_clean_sbu_2, # of connection points: 3
#     Node 37, Type 0, BuildingBlock: OLANEW_clean_sbu_2, # of connection points: 3
#     Node 38, Type 0, BuildingBlock: OLANEW_clean_sbu_2, # of connection points: 3
#     Node 39, Type 0, BuildingBlock: OLANEW_clean_sbu_2, # of connection points: 3
#     Node 40, Type 0, BuildingBlock: OLANEW_clean_sbu_2, # of connection points: 3
#     Node 41, Type 0, BuildingBlock: OLANEW_clean_sbu_2, # of connection points: 3
#     Node 42, Type 0, BuildingBlock: OLANEW_clean_sbu_2, # of connection points: 3
#     Node 43, Type 0, BuildingBlock: OLANEW_clean_sbu_2, # of connection points: 3
#     Node 44, Type 0, BuildingBlock: OLANEW_clean_sbu_2, # of connection points: 3
#     Node 45, Type 0, BuildingBlock: OLANEW_clean_sbu_2, # of connection points: 3
#     Node 46, Type 0, BuildingBlock: OLANEW_clean_sbu_2, # of connection points: 3
#     Node 47, Type 0, BuildingBlock: OLANEW_clean_sbu_2, # of connection points: 3
#     Node 48, Type 0, BuildingBlock: OLANEW_clean_sbu_2, # of connection points: 3
#     Node 49, Type 0, BuildingBlock: OLANEW_clean_sbu_2, # of connection points: 3
#     Node 50, Type 0, BuildingBlock: OLANEW_clean_sbu_2, # of connection points: 3
#     Node 51, Type 0, BuildingBlock: OLANEW_clean_sbu_2, # of connection points: 3
#     Node 52, Type 0, BuildingBlock: OLANEW_clean_sbu_2, # of connection points: 3
#     Node 53, Type 0, BuildingBlock: OLANEW_clean_sbu_2, # of connection points: 3
#     Node 54, Type 0, BuildingBlock: OLANEW_clean_sbu_2, # of connection points: 3
#     Node 55, Type 0, BuildingBlock: OLANEW_clean_sbu_2, # of connection points: 3
#     Node 56, Type 0, BuildingBlock: OLANEW_clean_sbu_2, # of connection points: 3
#     Node 57, Type 0, BuildingBlock: OLANEW_clean_sbu_2, # of connection points: 3
#     Node 58, Type 0, BuildingBlock: OLANEW_clean_sbu_2, # of connection points: 3
#     Node 59, Type 0, BuildingBlock: OLANEW_clean_sbu_2, # of connection points: 3
#     Node 60, Type 0, BuildingBlock: OLANEW_clean_sbu_2, # of connection points: 3
#     Node 61, Type 0, BuildingBlock: OLANEW_clean_sbu_2, # of connection points: 3
#     Node 62, Type 0, BuildingBlock: OLANEW_clean_sbu_2, # of connection points: 3
#     Node 63, Type 0, BuildingBlock: OLANEW_clean_sbu_2, # of connection points: 3
#     Node 64, Type 0, BuildingBlock: OLANEW_clean_sbu_2, # of connection points: 3
#     Node 65, Type 0, BuildingBlock: OLANEW_clean_sbu_2, # of connection points: 3
#     Node 66, Type 0, BuildingBlock: OLANEW_clean_sbu_2, # of connection points: 3
#     Node 67, Type 0, BuildingBlock: OLANEW_clean_sbu_2, # of connection points: 3
#     Node 68, Type 0, BuildingBlock: OLANEW_clean_sbu_2, # of connection points: 3
#     Node 69, Type 0, BuildingBlock: OLANEW_clean_sbu_2, # of connection points: 3
#     Node 70, Type 0, BuildingBlock: OLANEW_clean_sbu_2, # of connection points: 3
#     Node 71, Type 0, BuildingBlock: OLANEW_clean_sbu_2, # of connection points: 3
#     Node 72, Type 0, BuildingBlock: OLANEW_clean_sbu_2, # of connection points: 3
#     Node 73, Type 0, BuildingBlock: OLANEW_clean_sbu_2, # of connection points: 3
#     Node 74, Type 0, BuildingBlock: OLANEW_clean_sbu_2, # of connection points: 3
#     Node 75, Type 0, BuildingBlock: OLANEW_clean_sbu_2, # of connection points: 3
#     Node 76, Type 0, BuildingBlock: OLANEW_clean_sbu_2, # of connection points: 3
#     Node 77, Type 0, BuildingBlock: OLANEW_clean_sbu_2, # of connection points: 3
#     Node 78, Type 0, BuildingBlock: OLANEW_clean_sbu_2, # of connection points: 3
#     Node 79, Type 0, BuildingBlock: OLANEW_clean_sbu_2, # of connection points: 3
#     Node 80, Type 0, BuildingBlock: OLANEW_clean_sbu_2, # of connection points: 3
#     Node 81, Type 0, BuildingBlock: OLANEW_clean_sbu_2, # of connection points: 3
#     Node 82, Type 0, BuildingBlock: OLANEW_clean_sbu_2, # of connection points: 3
#     Node 83, Type 0, BuildingBlock: OLANEW_clean_sbu_2, # of connection points: 3
#     Node 84, Type 0, BuildingBlock: OLANEW_clean_sbu_2, # of connection points: 3
#     Node 85, Type 0, BuildingBlock: OLANEW_clean_sbu_2, # of connection points: 3
#     Node 86, Type 0, BuildingBlock: OLANEW_clean_sbu_2, # of connection points: 3
#     Node 87, Type 0, BuildingBlock: OLANEW_clean_sbu_2, # of connection points: 3
#     Node 88, Type 0, BuildingBlock: OLANEW_clean_sbu_2, # of connection points: 3
#     Node 89, Type 0, BuildingBlock: OLANEW_clean_sbu_2, # of connection points: 3
#     Node 90, Type 0, BuildingBlock: OLANEW_clean_sbu_2, # of connection points: 3
#     Node 91, Type 0, BuildingBlock: OLANEW_clean_sbu_2, # of connection points: 3
#     Node 92, Type 0, BuildingBlock: OLANEW_clean_sbu_2, # of connection points: 3
#     Node 93, Type 0, BuildingBlock: OLANEW_clean_sbu_2, # of connection points: 3
#     Node 94, Type 0, BuildingBlock: OLANEW_clean_sbu_2, # of connection points: 3
#     Node 95, Type 0, BuildingBlock: OLANEW_clean_sbu_2, # of connection points: 3
#     Node 96, Type 1, BuildingBlock: QEWDON_clean_linker_0, # of connection points: 3
#     Node 97, Type 1, BuildingBlock: QEWDON_clean_linker_0, # of connection points: 3
#     Node 98, Type 1, BuildingBlock: QEWDON_clean_linker_0, # of connection points: 3
#     Node 99, Type 1, BuildingBlock: QEWDON_clean_linker_0, # of connection points: 3
#     Node 100, Type 1, BuildingBlock: QEWDON_clean_linker_0, # of connection points: 3
#     Node 101, Type 1, BuildingBlock: QEWDON_clean_linker_0, # of connection points: 3
#     Node 102, Type 1, BuildingBlock: QEWDON_clean_linker_0, # of connection points: 3
#     Node 103, Type 1, BuildingBlock: QEWDON_clean_linker_0, # of connection points: 3
#     Node 104, Type 1, BuildingBlock: QEWDON_clean_linker_0, # of connection points: 3
#     Node 105, Type 1, BuildingBlock: QEWDON_clean_linker_0, # of connection points: 3
#     Node 106, Type 1, BuildingBlock: QEWDON_clean_linker_0, # of connection points: 3
#     Node 107, Type 1, BuildingBlock: QEWDON_clean_linker_0, # of connection points: 3
#     Node 108, Type 1, BuildingBlock: QEWDON_clean_linker_0, # of connection points: 3
#     Node 109, Type 1, BuildingBlock: QEWDON_clean_linker_0, # of connection points: 3
#     Node 110, Type 1, BuildingBlock: QEWDON_clean_linker_0, # of connection points: 3
#     Node 111, Type 1, BuildingBlock: QEWDON_clean_linker_0, # of connection points: 3
#     Node 112, Type 1, BuildingBlock: QEWDON_clean_linker_0, # of connection points: 3
#     Node 113, Type 1, BuildingBlock: QEWDON_clean_linker_0, # of connection points: 3
#     Node 114, Type 1, BuildingBlock: QEWDON_clean_linker_0, # of connection points: 3
#     Node 115, Type 1, BuildingBlock: QEWDON_clean_linker_0, # of connection points: 3
#     Node 116, Type 1, BuildingBlock: QEWDON_clean_linker_0, # of connection points: 3
#     Node 117, Type 1, BuildingBlock: QEWDON_clean_linker_0, # of connection points: 3
#     Node 118, Type 1, BuildingBlock: QEWDON_clean_linker_0, # of connection points: 3
#     Node 119, Type 1, BuildingBlock: QEWDON_clean_linker_0, # of connection points: 3
#     Node 120, Type 1, BuildingBlock: QEWDON_clean_linker_0, # of connection points: 3
#     Node 121, Type 1, BuildingBlock: QEWDON_clean_linker_0, # of connection points: 3
#     Node 122, Type 1, BuildingBlock: QEWDON_clean_linker_0, # of connection points: 3
#     Node 123, Type 1, BuildingBlock: QEWDON_clean_linker_0, # of connection points: 3
#     Node 124, Type 1, BuildingBlock: QEWDON_clean_linker_0, # of connection points: 3
#     Node 125, Type 1, BuildingBlock: QEWDON_clean_linker_0, # of connection points: 3
#     Node 126, Type 1, BuildingBlock: QEWDON_clean_linker_0, # of connection points: 3
#     Node 127, Type 1, BuildingBlock: QEWDON_clean_linker_0, # of connection points: 3
#     Node 128, Type 1, BuildingBlock: QEWDON_clean_linker_0, # of connection points: 3
#     Node 129, Type 1, BuildingBlock: QEWDON_clean_linker_0, # of connection points: 3
#     Node 130, Type 1, BuildingBlock: QEWDON_clean_linker_0, # of connection points: 3
#     Node 131, Type 1, BuildingBlock: QEWDON_clean_linker_0, # of connection points: 3
#     Node 132, Type 1, BuildingBlock: QEWDON_clean_linker_0, # of connection points: 3
#     Node 133, Type 1, BuildingBlock: QEWDON_clean_linker_0, # of connection points: 3
#     Node 134, Type 1, BuildingBlock: QEWDON_clean_linker_0, # of connection points: 3
#     Node 135, Type 1, BuildingBlock: QEWDON_clean_linker_0, # of connection points: 3
#     Node 136, Type 1, BuildingBlock: QEWDON_clean_linker_0, # of connection points: 3
#     Node 137, Type 1, BuildingBlock: QEWDON_clean_linker_0, # of connection points: 3
#     Node 138, Type 1, BuildingBlock: QEWDON_clean_linker_0, # of connection points: 3
#     Node 139, Type 1, BuildingBlock: QEWDON_clean_linker_0, # of connection points: 3
#     Node 140, Type 1, BuildingBlock: QEWDON_clean_linker_0, # of connection points: 3
#     Node 141, Type 1, BuildingBlock: QEWDON_clean_linker_0, # of connection points: 3
#     Node 142, Type 1, BuildingBlock: QEWDON_clean_linker_0, # of connection points: 3
#     Node 143, Type 1, BuildingBlock: QEWDON_clean_linker_0, # of connection points: 3
#     Node 144, Type 1, BuildingBlock: QEWDON_clean_linker_0, # of connection points: 3
#     Node 145, Type 1, BuildingBlock: QEWDON_clean_linker_0, # of connection points: 3
#     Node 146, Type 1, BuildingBlock: QEWDON_clean_linker_0, # of connection points: 3
#     Node 147, Type 1, BuildingBlock: QEWDON_clean_linker_0, # of connection points: 3
#     Node 148, Type 1, BuildingBlock: QEWDON_clean_linker_0, # of connection points: 3
#     Node 149, Type 1, BuildingBlock: QEWDON_clean_linker_0, # of connection points: 3
#     Node 150, Type 1, BuildingBlock: QEWDON_clean_linker_0, # of connection points: 3
#     Node 151, Type 1, BuildingBlock: QEWDON_clean_linker_0, # of connection points: 3
#     Node 152, Type 1, BuildingBlock: QEWDON_clean_linker_0, # of connection points: 3
#     Node 153, Type 1, BuildingBlock: QEWDON_clean_linker_0, # of connection points: 3
#     Node 154, Type 1, BuildingBlock: QEWDON_clean_linker_0, # of connection points: 3
#     Node 155, Type 1, BuildingBlock: QEWDON_clean_linker_0, # of connection points: 3
#     Node 156, Type 1, BuildingBlock: QEWDON_clean_linker_0, # of connection points: 3
#     Node 157, Type 1, BuildingBlock: QEWDON_clean_linker_0, # of connection points: 3
#     Node 158, Type 1, BuildingBlock: QEWDON_clean_linker_0, # of connection points: 3
#     Node 159, Type 1, BuildingBlock: QEWDON_clean_linker_0, # of connection points: 3
#     Node 160, Type 1, BuildingBlock: QEWDON_clean_linker_0, # of connection points: 3
#     Node 161, Type 1, BuildingBlock: QEWDON_clean_linker_0, # of connection points: 3
#     Node 162, Type 1, BuildingBlock: QEWDON_clean_linker_0, # of connection points: 3
#     Node 163, Type 1, BuildingBlock: QEWDON_clean_linker_0, # of connection points: 3
#     Node 164, Type 1, BuildingBlock: QEWDON_clean_linker_0, # of connection points: 3
#     Node 165, Type 1, BuildingBlock: QEWDON_clean_linker_0, # of connection points: 3
#     Node 166, Type 1, BuildingBlock: QEWDON_clean_linker_0, # of connection points: 3
#     Node 167, Type 1, BuildingBlock: QEWDON_clean_linker_0, # of connection points: 3
#     Node 168, Type 1, BuildingBlock: QEWDON_clean_linker_0, # of connection points: 3
#     Node 169, Type 1, BuildingBlock: QEWDON_clean_linker_0, # of connection points: 3
#     Node 170, Type 1, BuildingBlock: QEWDON_clean_linker_0, # of connection points: 3
#     Node 171, Type 1, BuildingBlock: QEWDON_clean_linker_0, # of connection points: 3
#     Node 172, Type 1, BuildingBlock: QEWDON_clean_linker_0, # of connection points: 3
#     Node 173, Type 1, BuildingBlock: QEWDON_clean_linker_0, # of connection points: 3
#     Node 174, Type 1, BuildingBlock: QEWDON_clean_linker_0, # of connection points: 3
#     Node 175, Type 1, BuildingBlock: QEWDON_clean_linker_0, # of connection points: 3
#     Node 176, Type 1, BuildingBlock: QEWDON_clean_linker_0, # of connection points: 3
#     Node 177, Type 1, BuildingBlock: QEWDON_clean_linker_0, # of connection points: 3
#     Node 178, Type 1, BuildingBlock: QEWDON_clean_linker_0, # of connection points: 3
#     Node 179, Type 1, BuildingBlock: QEWDON_clean_linker_0, # of connection points: 3
#     Node 180, Type 1, BuildingBlock: QEWDON_clean_linker_0, # of connection points: 3
#     Node 181, Type 1, BuildingBlock: QEWDON_clean_linker_0, # of connection points: 3
#     Node 182, Type 1, BuildingBlock: QEWDON_clean_linker_0, # of connection points: 3
#     Node 183, Type 1, BuildingBlock: QEWDON_clean_linker_0, # of connection points: 3
#     Node 184, Type 1, BuildingBlock: QEWDON_clean_linker_0, # of connection points: 3
#     Node 185, Type 1, BuildingBlock: QEWDON_clean_linker_0, # of connection points: 3
#     Node 186, Type 1, BuildingBlock: QEWDON_clean_linker_0, # of connection points: 3
#     Node 187, Type 1, BuildingBlock: QEWDON_clean_linker_0, # of connection points: 3
#     Node 188, Type 1, BuildingBlock: QEWDON_clean_linker_0, # of connection points: 3
#     Node 189, Type 1, BuildingBlock: QEWDON_clean_linker_0, # of connection points: 3
#     Node 190, Type 1, BuildingBlock: QEWDON_clean_linker_0, # of connection points: 3
#     Node 191, Type 1, BuildingBlock: QEWDON_clean_linker_0, # of connection points: 3
#     Edge 192, Type (0, 1), None
#     Edge 193, Type (0, 1), None
#     Edge 194, Type (0, 1), None
#     Edge 195, Type (0, 1), None
#     Edge 196, Type (0, 1), None
#     Edge 197, Type (0, 1), None
#     Edge 198, Type (0, 1), None
#     Edge 199, Type (0, 1), None
#     Edge 200, Type (0, 1), None
#     Edge 201, Type (0, 1), None
#     Edge 202, Type (0, 1), None
#     Edge 203, Type (0, 1), None
#     Edge 204, Type (0, 1), None
#     Edge 205, Type (0, 1), None
#     Edge 206, Type (0, 1), None
#     Edge 207, Type (0, 1), None
#     Edge 208, Type (0, 1), None
#     Edge 209, Type (0, 1), None
#     Edge 210, Type (0, 1), None
#     Edge 211, Type (0, 1), None
#     Edge 212, Type (0, 1), None
#     Edge 213, Type (0, 1), None
#     Edge 214, Type (0, 1), None
#     Edge 215, Type (0, 1), None
#     Edge 216, Type (0, 1), None
#     Edge 217, Type (0, 1), None
#     Edge 218, Type (0, 1), None
#     Edge 219, Type (0, 1), None
#     Edge 220, Type (0, 1), None
#     Edge 221, Type (0, 1), None
#     Edge 222, Type (0, 1), None
#     Edge 223, Type (0, 1), None
#     Edge 224, Type (0, 1), None
#     Edge 225, Type (0, 1), None
#     Edge 226, Type (0, 1), None
#     Edge 227, Type (0, 1), None
#     Edge 228, Type (0, 1), None
#     Edge 229, Type (0, 1), None
#     Edge 230, Type (0, 1), None
#     Edge 231, Type (0, 1), None
#     Edge 232, Type (0, 1), None
#     Edge 233, Type (0, 1), None
#     Edge 234, Type (0, 1), None
#     Edge 235, Type (0, 1), None
#     Edge 236, Type (0, 1), None
#     Edge 237, Type (0, 1), None
#     Edge 238, Type (0, 1), None
#     Edge 239, Type (0, 1), None
#     Edge 240, Type (0, 1), None
#     Edge 241, Type (0, 1), None
#     Edge 242, Type (0, 1), None
#     Edge 243, Type (0, 1), None
#     Edge 244, Type (0, 1), None
#     Edge 245, Type (0, 1), None
#     Edge 246, Type (0, 1), None
#     Edge 247, Type (0, 1), None
#     Edge 248, Type (0, 1), None
#     Edge 249, Type (0, 1), None
#     Edge 250, Type (0, 1), None
#     Edge 251, Type (0, 1), None
#     Edge 252, Type (0, 1), None
#     Edge 253, Type (0, 1), None
#     Edge 254, Type (0, 1), None
#     Edge 255, Type (0, 1), None
#     Edge 256, Type (0, 1), None
#     Edge 257, Type (0, 1), None
#     Edge 258, Type (0, 1), None
#     Edge 259, Type (0, 1), None
#     Edge 260, Type (0, 1), None
#     Edge 261, Type (0, 1), None
#     Edge 262, Type (0, 1), None
#     Edge 263, Type (0, 1), None
#     Edge 264, Type (0, 1), None
#     Edge 265, Type (0, 1), None
#     Edge 266, Type (0, 1), None
#     Edge 267, Type (0, 1), None
#     Edge 268, Type (0, 1), None
#     Edge 269, Type (0, 1), None
#     Edge 270, Type (0, 1), None
#     Edge 271, Type (0, 1), None
#     Edge 272, Type (0, 1), None
#     Edge 273, Type (0, 1), None
#     Edge 274, Type (0, 1), None
#     Edge 275, Type (0, 1), None
#     Edge 276, Type (0, 1), None
#     Edge 277, Type (0, 1), None
#     Edge 278, Type (0, 1), None
#     Edge 279, Type (0, 1), None
#     Edge 280, Type (0, 1), None
#     Edge 281, Type (0, 1), None
#     Edge 282, Type (0, 1), None
#     Edge 283, Type (0, 1), None
#     Edge 284, Type (0, 1), None
#     Edge 285, Type (0, 1), None
#     Edge 286, Type (0, 1), None
#     Edge 287, Type (0, 1), None
#     Edge 288, Type (0, 1), None
#     Edge 289, Type (0, 1), None
#     Edge 290, Type (0, 1), None
#     Edge 291, Type (0, 1), None
#     Edge 292, Type (0, 1), None
#     Edge 293, Type (0, 1), None
#     Edge 294, Type (0, 1), None
#     Edge 295, Type (0, 1), None
#     Edge 296, Type (0, 1), None
#     Edge 297, Type (0, 1), None
#     Edge 298, Type (0, 1), None
#     Edge 299, Type (0, 1), None
#     Edge 300, Type (0, 1), None
#     Edge 301, Type (0, 1), None
#     Edge 302, Type (0, 1), None
#     Edge 303, Type (0, 1), None
#     Edge 304, Type (0, 1), None
#     Edge 305, Type (0, 1), None
#     Edge 306, Type (0, 1), None
#     Edge 307, Type (0, 1), None
#     Edge 308, Type (0, 1), None
#     Edge 309, Type (0, 1), None
#     Edge 310, Type (0, 1), None
#     Edge 311, Type (0, 1), None
#     Edge 312, Type (0, 1), None
#     Edge 313, Type (0, 1), None
#     Edge 314, Type (0, 1), None
#     Edge 315, Type (0, 1), None
#     Edge 316, Type (0, 1), None
#     Edge 317, Type (0, 1), None
#     Edge 318, Type (0, 1), None
#     Edge 319, Type (0, 1), None
#     Edge 320, Type (0, 1), None
#     Edge 321, Type (0, 1), None
#     Edge 322, Type (0, 1), None
#     Edge 323, Type (0, 1), None
#     Edge 324, Type (0, 1), None
#     Edge 325, Type (0, 1), None
#     Edge 326, Type (0, 1), None
#     Edge 327, Type (0, 1), None
#     Edge 328, Type (0, 1), None
#     Edge 329, Type (0, 1), None
#     Edge 330, Type (0, 1), None
#     Edge 331, Type (0, 1), None
#     Edge 332, Type (0, 1), None
#     Edge 333, Type (0, 1), None
#     Edge 334, Type (0, 1), None
#     Edge 335, Type (0, 1), None
#     Edge 336, Type (0, 1), None
#     Edge 337, Type (0, 1), None
#     Edge 338, Type (0, 1), None
#     Edge 339, Type (0, 1), None
#     Edge 340, Type (0, 1), None
#     Edge 341, Type (0, 1), None
#     Edge 342, Type (0, 1), None
#     Edge 343, Type (0, 1), None
#     Edge 344, Type (0, 1), None
#     Edge 345, Type (0, 1), None
#     Edge 346, Type (0, 1), None
#     Edge 347, Type (0, 1), None
#     Edge 348, Type (0, 1), None
#     Edge 349, Type (0, 1), None
#     Edge 350, Type (0, 1), None
#     Edge 351, Type (0, 1), None
#     Edge 352, Type (0, 1), None
#     Edge 353, Type (0, 1), None
#     Edge 354, Type (0, 1), None
#     Edge 355, Type (0, 1), None
#     Edge 356, Type (0, 1), None
#     Edge 357, Type (0, 1), None
#     Edge 358, Type (0, 1), None
#     Edge 359, Type (0, 1), None
#     Edge 360, Type (0, 1), None
#     Edge 361, Type (0, 1), None
#     Edge 362, Type (0, 1), None
#     Edge 363, Type (0, 1), None
#     Edge 364, Type (0, 1), None
#     Edge 365, Type (0, 1), None
#     Edge 366, Type (0, 1), None
#     Edge 367, Type (0, 1), None
#     Edge 368, Type (0, 1), None
#     Edge 369, Type (0, 1), None
#     Edge 370, Type (0, 1), None
#     Edge 371, Type (0, 1), None
#     Edge 372, Type (0, 1), None
#     Edge 373, Type (0, 1), None
#     Edge 374, Type (0, 1), None
#     Edge 375, Type (0, 1), None
#     Edge 376, Type (0, 1), None
#     Edge 377, Type (0, 1), None
#     Edge 378, Type (0, 1), None
#     Edge 379, Type (0, 1), None
#     Edge 380, Type (0, 1), None
#     Edge 381, Type (0, 1), None
#     Edge 382, Type (0, 1), None
#     Edge 383, Type (0, 1), None
#     Edge 384, Type (0, 1), None
#     Edge 385, Type (0, 1), None
#     Edge 386, Type (0, 1), None
#     Edge 387, Type (0, 1), None
#     Edge 388, Type (0, 1), None
#     Edge 389, Type (0, 1), None
#     Edge 390, Type (0, 1), None
#     Edge 391, Type (0, 1), None
#     Edge 392, Type (0, 1), None
#     Edge 393, Type (0, 1), None
#     Edge 394, Type (0, 1), None
#     Edge 395, Type (0, 1), None
#     Edge 396, Type (0, 1), None
#     Edge 397, Type (0, 1), None
#     Edge 398, Type (0, 1), None
#     Edge 399, Type (0, 1), None
#     Edge 400, Type (0, 1), None
#     Edge 401, Type (0, 1), None
#     Edge 402, Type (0, 1), None
#     Edge 403, Type (0, 1), None
#     Edge 404, Type (0, 1), None
#     Edge 405, Type (0, 1), None
#     Edge 406, Type (0, 1), None
#     Edge 407, Type (0, 1), None
#     Edge 408, Type (0, 1), None
#     Edge 409, Type (0, 1), None
#     Edge 410, Type (0, 1), None
#     Edge 411, Type (0, 1), None
#     Edge 412, Type (0, 1), None
#     Edge 413, Type (0, 1), None
#     Edge 414, Type (0, 1), None
#     Edge 415, Type (0, 1), None
#     Edge 416, Type (0, 1), None
#     Edge 417, Type (0, 1), None
#     Edge 418, Type (0, 1), None
#     Edge 419, Type (0, 1), None
#     Edge 420, Type (0, 1), None
#     Edge 421, Type (0, 1), None
#     Edge 422, Type (0, 1), None
#     Edge 423, Type (0, 1), None
#     Edge 424, Type (0, 1), None
#     Edge 425, Type (0, 1), None
#     Edge 426, Type (0, 1), None
#     Edge 427, Type (0, 1), None
#     Edge 428, Type (0, 1), None
#     Edge 429, Type (0, 1), None
#     Edge 430, Type (0, 1), None
#     Edge 431, Type (0, 1), None
#     Edge 432, Type (0, 1), None
#     Edge 433, Type (0, 1), None
#     Edge 434, Type (0, 1), None
#     Edge 435, Type (0, 1), None
#     Edge 436, Type (0, 1), None
#     Edge 437, Type (0, 1), None
#     Edge 438, Type (0, 1), None
#     Edge 439, Type (0, 1), None
#     Edge 440, Type (0, 1), None
#     Edge 441, Type (0, 1), None
#     Edge 442, Type (0, 1), None
#     Edge 443, Type (0, 1), None
#     Edge 444, Type (0, 1), None
#     Edge 445, Type (0, 1), None
#     Edge 446, Type (0, 1), None
#     Edge 447, Type (0, 1), None
#     Edge 448, Type (0, 1), None
#     Edge 449, Type (0, 1), None
#     Edge 450, Type (0, 1), None
#     Edge 451, Type (0, 1), None
#     Edge 452, Type (0, 1), None
#     Edge 453, Type (0, 1), None
#     Edge 454, Type (0, 1), None
#     Edge 455, Type (0, 1), None
#     Edge 456, Type (0, 1), None
#     Edge 457, Type (0, 1), None
#     Edge 458, Type (0, 1), None
#     Edge 459, Type (0, 1), None
#     Edge 460, Type (0, 1), None
#     Edge 461, Type (0, 1), None
#     Edge 462, Type (0, 1), None
#     Edge 463, Type (0, 1), None
#     Edge 464, Type (0, 1), None
#     Edge 465, Type (0, 1), None
#     Edge 466, Type (0, 1), None
#     Edge 467, Type (0, 1), None
#     Edge 468, Type (0, 1), None
#     Edge 469, Type (0, 1), None
#     Edge 470, Type (0, 1), None
#     Edge 471, Type (0, 1), None
#     Edge 472, Type (0, 1), None
#     Edge 473, Type (0, 1), None
#     Edge 474, Type (0, 1), None
#     Edge 475, Type (0, 1), None
#     Edge 476, Type (0, 1), None
#     Edge 477, Type (0, 1), None
#     Edge 478, Type (0, 1), None
#     Edge 479, Type (0, 1), None
# Relax obj value: 0.000
# Max RMSD: 0.024
# Mean RMSD: 0.023
data_MOF--net-ana-f--node1-OLANEW_clean_sbu_2--node2-QEWDON_clean_linker_0--edge1-none
_symmetry_space_group_name_H-M    P1
_symmetry_Int_Tables_number       1
_symmetry_cell_setting            triclinic
loop_
_symmetry_equiv_pos_as_xyz
'x, y, z'
_cell_length_a     77.457419
_cell_length_b     77.460275
_cell_length_c     77.457049
_cell_angle_alpha  89.962827
_cell_angle_beta   89.965682
_cell_angle_gamma 89.950543
loop_
_atom_site_label
_atom_site_type_symbol
_atom_site_fract_x
_atom_site_fract_y
_atom_site_fract_z
_atom_type_partial_charge
O0 O 0.05178 0.20711 0.41074 0.0
Cd1 Cd 0.02758 0.19387 0.42612 0.0
O2 O 0.0683 0.1915 0.42738 0.0
Cd3 Cd 0.09108 0.179 0.43873 0.0
O4 O 0.11655 0.1704 0.44726 0.0
C5 C 0.11865 0.15839 0.45825 0.0
O6 O 0.10502 0.15081 0.46491 0.0
C7 C 0.06688 0.20242 0.4151 0.0
C8 C 0.01416 0.16638 0.40713 0.0
O9 O 0.00798 0.18167 0.40564 0.0
O10 O 0.0266 0.16403 0.41778 0.0
O11 O 0.03699 0.80225 0.66217 0.0
Cd12 Cd 0.04775 0.77746 0.6785 0.0
O13 O 0.05397 0.81816 0.67807 0.0
Cd14 Cd 0.06811 0.84094 0.68715 0.0
O15 O 0.07762 0.8664 0.69462 0.0
C16 C 0.0908 0.8684 0.70418 0.0
O17 O 0.09908 0.85471 0.70983 0.0
C18 C 0.04319 0.81701 0.66568 0.0
C19 C 0.07766 0.76585 0.66219 0.0
O20 O 0.06291 0.75928 0.65861 0.0
O21 O 0.07831 0.77752 0.67389 0.0
O22 O 0.44444 0.78874 0.91697 0.0
Cd23 Cd 0.47015 0.79949 0.93173 0.0
O24 O 0.42898 0.8044 0.93464 0.0
Cd25 Cd 0.40664 0.81756 0.94622 0.0
O26 O 0.38146 0.8268 0.9551 0.0
C27 C 0.37986 0.83951 0.96535 0.0
O28 O 0.3938 0.84736 0.97097 0.0
C29 C 0.42971 0.79427 0.92167 0.0
C30 C 0.48132 0.82867 0.91388 0.0
O31 O 0.48756 0.81372 0.91047 0.0
O32 O 0.47024 0.82986 0.92612 0.0
O33 O 0.45049 0.19606 0.16063 0.0
Cd34 Cd 0.43836 0.22056 0.17647 0.0
O35 O 0.43644 0.1796 0.17867 0.0
Cd36 Cd 0.42495 0.15698 0.19143 0.0
O37 O 0.41706 0.13132 0.20019 0.0
C38 C 0.40477 0.12907 0.21083 0.0
O39 O 0.39661 0.14261 0.21699 0.0
C40 C 0.44631 0.18097 0.16552 0.0
C41 C 0.4114 0.23551 0.1578 0.0
O42 O 0.42694 0.24097 0.15627 0.0
O43 O 0.40855 0.22307 0.16834 0.0
O44 O 0.05658 0.79925 0.08777 0.0
Cd45 Cd 0.03129 0.81101 0.07293 0.0
O46 O 0.07225 0.81224 0.06828 0.0
Cd47 Cd 0.09414 0.82283 0.05358 0.0
O48 O 0.11955 0.83057 0.04396 0.0
C49 C 0.12144 0.84348 0.03401 0.0
O50 O 0.10771 0.85215 0.02909 0.0
C51 C 0.07145 0.80299 0.08193 0.0
C52 C 0.01658 0.83756 0.09234 0.0
O53 O 0.01127 0.82196 0.09382 0.0
O54 O 0.02872 0.84064 0.08151 0.0
O55 O 0.46448 0.80343 0.3381 0.0
Cd56 Cd 0.45237 0.77812 0.32366 0.0
O57 O 0.44793 0.81874 0.32116 0.0
Cd58 Cd 0.43445 0.84103 0.31002 0.0
O59 O 0.42521 0.86608 0.30094 0.0
C60 C 0.41157 0.86762 0.29196 0.0
O61 O 0.4028 0.85371 0.28785 0.0
C62 C 0.45889 0.81814 0.33345 0.0
C63 C 0.42242 0.76826 0.34103 0.0
O64 O 0.43705 0.76145 0.34471 0.0
O65 O 0.42189 0.77943 0.32883 0.0
O66 O 0.44759 0.20323 0.58932 0.0
Cd67 Cd 0.47221 0.19114 0.57363 0.0
O68 O 0.43146 0.18884 0.57132 0.0
Cd69 Cd 0.40887 0.17716 0.5589 0.0
O70 O 0.38324 0.16956 0.55004 0.0
C71 C 0.38097 0.15596 0.54118 0.0
O72 O 0.39441 0.14646 0.53707 0.0
C73 C 0.4326 0.19883 0.58437 0.0
C74 C 0.4869 0.16402 0.59229 0.0
O75 O 0.49255 0.1795 0.59377 0.0
O76 O 0.4744 0.16132 0.5818 0.0
O77 O 0.03216 0.20022 0.84047 0.0
Cd78 Cd 0.0442 0.22506 0.82515 0.0
O79 O 0.05006 0.18463 0.82525 0.0
Cd80 Cd 0.06461 0.16203 0.8164 0.0
O81 O 0.07464 0.13693 0.80846 0.0
C82 C 0.08765 0.13528 0.79859 0.0
O83 O 0.09553 0.14918 0.79289 0.0
C84 C 0.03849 0.18551 0.83693 0.0
C85 C 0.07467 0.23462 0.84168 0.0
O86 O 0.06024 0.24173 0.84559 0.0
O87 O 0.07475 0.22332 0.8296 0.0
O88 O 0.40785 0.04995 0.21019 0.0
Cd89 Cd 0.42372 0.02591 0.19723 0.0
O90 O 0.42339 0.06633 0.19336 0.0
Cd91 Cd 0.43302 0.08928 0.17993 0.0
O92 O 0.44105 0.11474 0.17103 0.0
C93 C 0.45103 0.11682 0.15817 0.0
O94 O 0.45679 0.10318 0.14987 0.0
C95 C 0.41157 0.06496 0.20476 0.0
C96 C 0.40578 0.01312 0.16876 0.0
O97 O 0.4036 0.00673 0.18388 0.0
O98 O 0.41665 0.02547 0.16704 0.0
O99 O 0.19786 0.15914 0.45542 0.0
Cd100 Cd 0.22204 0.17433 0.44189 0.0
O101 O 0.18134 0.17643 0.44054 0.0
Cd102 Cd 0.15866 0.18873 0.42869 0.0
O103 O 0.13315 0.19771 0.42059 0.0
C104 C 0.13098 0.2087 0.40858 0.0
O105 O 0.14457 0.21512 0.4007 0.0
C106 C 0.18275 0.16393 0.4512 0.0
C107 C 0.23519 0.15545 0.41415 0.0
O108 O 0.24137 0.15373 0.42941 0.0
O109 O 0.22285 0.16625 0.41195 0.0
O110 O 0.08916 0.94768 0.70364 0.0
Cd111 Cd 0.07332 0.97227 0.69168 0.0
O112 O 0.07128 0.93153 0.68912 0.0
Cd113 Cd 0.05904 0.90891 0.6773 0.0
O114 O 0.05027 0.88329 0.66962 0.0
C115 C 0.04136 0.88102 0.65605 0.0
O116 O 0.03715 0.89448 0.64661 0.0
C117 C 0.08431 0.93269 0.69912 0.0
C118 C 0.09177 0.98696 0.66444 0.0
O119 O 0.09337 0.9926 0.67991 0.0
O120 O 0.08126 0.97447 0.6618 0.0
O121 O 0.30069 0.83925 0.96649 0.0
Cd122 Cd 0.27564 0.82456 0.95415 0.0
O123 O 0.3162 0.82226 0.95021 0.0
Cd124 Cd 0.33865 0.81116 0.93701 0.0
O125 O 0.36378 0.80214 0.92801 0.0
C126 C 0.36539 0.79286 0.91459 0.0
O127 O 0.35151 0.78843 0.90592 0.0
C128 C 0.31546 0.83464 0.96104 0.0
C129 C 0.26645 0.84149 0.92373 0.0
O130 O 0.2594 0.84543 0.93818 0.0
O131 O 0.27755 0.8292 0.9236 0.0
O132 O 0.41384 0.94663 0.28708 0.0
Cd133 Cd 0.4288 0.97237 0.29748 0.0
O134 O 0.43174 0.93133 0.30263 0.0
Cd135 Cd 0.44343 0.9091 0.31583 0.0
O136 O 0.45248 0.88403 0.32516 0.0
C137 C 0.46281 0.88259 0.33783 0.0
O138 O 0.46838 0.89662 0.34554 0.0
C139 C 0.41863 0.93196 0.29268 0.0
C140 C 0.41175 0.98325 0.32726 0.0
O141 O 0.40781 0.98949 0.31244 0.0
O142 O 0.42415 0.97232 0.32803 0.0
O143 O 0.30221 0.16225 0.53659 0.0
Cd144 Cd 0.27748 0.17866 0.54736 0.0
O145 O 0.31812 0.17812 0.55359 0.0
Cd146 Cd 0.34089 0.18715 0.56779 0.0
O147 O 0.36633 0.19456 0.57739 0.0
C148 C 0.3683 0.20419 0.59053 0.0
O149 O 0.35459 0.20994 0.5987 0.0
C150 C 0.31697 0.16573 0.54282 0.0
C151 C 0.26605 0.1625 0.57742 0.0
O152 O 0.25942 0.15882 0.56272 0.0
O153 O 0.2777 0.17423 0.57796 0.0
O154 O 0.08771 0.05598 0.79893 0.0
Cd155 Cd 0.07282 0.03075 0.81072 0.0
O156 O 0.06861 0.07178 0.81233 0.0
Cd157 Cd 0.05446 0.09385 0.8233 0.0
O158 O 0.04499 0.11929 0.8311 0.0
C159 C 0.03482 0.12123 0.84384 0.0
O160 O 0.0296 0.10752 0.85236 0.0
C161 C 0.0821 0.07088 0.80288 0.0
C162 C 0.0923 0.0161 0.83726 0.0
O163 O 0.09375 0.01078 0.82166 0.0
O164 O 0.08145 0.02821 0.84035 0.0
O165 O 0.20039 0.83996 0.03067 0.0
Cd166 Cd 0.22527 0.82466 0.04265 0.0
O167 O 0.18496 0.82493 0.04887 0.0
Cd168 Cd 0.16246 0.81636 0.06371 0.0
O169 O 0.13746 0.80852 0.07405 0.0
C170 C 0.13589 0.79863 0.08705 0.0
O171 O 0.14984 0.79284 0.09478 0.0
C172 C 0.18574 0.83653 0.03721 0.0
C173 C 0.23443 0.84109 0.07329 0.0
O174 O 0.2416 0.84516 0.05894 0.0
O175 O 0.2233 0.82886 0.07322 0.0
O176 O 0.20819 0.41071 0.05298 0.0
Cd177 Cd 0.19488 0.42607 0.0288 0.0
O178 O 0.19235 0.42718 0.06944 0.0
Cd179 Cd 0.17965 0.43836 0.09219 0.0
O180 O 0.17084 0.44681 0.1176 0.0
C181 C 0.15877 0.45776 0.11964 0.0
O182 O 0.15124 0.46441 0.10597 0.0
C183 C 0.2034 0.41502 0.06806 0.0
C184 C 0.16724 0.4072 0.0155 0.0
O185 O 0.18249 0.40566 0.00924 0.0
O186 O 0.16501 0.41783 0.02798 0.0
O187 O 0.71306 0.08596 0.94708 0.0
Cd188 Cd 0.70222 0.07073 0.97251 0.0
O189 O 0.69684 0.06883 0.93166 0.0
Cd190 Cd 0.68332 0.05814 0.90921 0.0
O191 O 0.67423 0.04963 0.88393 0.0
C192 C 0.66056 0.04075 0.88219 0.0
O193 O 0.6517 0.03645 0.89601 0.0
C194 C 0.70725 0.08155 0.93239 0.0
C195 C 0.67272 0.08802 0.98379 0.0
O196 O 0.68757 0.09144 0.99023 0.0
O197 O 0.67178 0.07604 0.97241 0.0
O198 O 0.15903 0.45468 0.19885 0.0
Cd199 Cd 0.17429 0.44118 0.22304 0.0
O200 O 0.1767 0.44019 0.18239 0.0
Cd201 Cd 0.18946 0.42863 0.15981 0.0
O202 O 0.1986 0.42064 0.13432 0.0
C203 C 0.20967 0.4087 0.13219 0.0
O204 O 0.2161 0.40086 0.1458 0.0
C205 C 0.16402 0.45066 0.18375 0.0
C206 C 0.1556 0.41338 0.23633 0.0
O207 O 0.15379 0.42865 0.24243 0.0
O208 O 0.16639 0.41119 0.22396 0.0
O209 O 0.78979 0.91706 0.44379 0.0
Cd210 Cd 0.80162 0.93079 0.46961 0.0
O211 O 0.80549 0.93471 0.42837 0.0
Cd212 Cd 0.81834 0.9466 0.40601 0.0
O213 O 0.82729 0.95585 0.38085 0.0
C214 C 0.83998 0.96612 0.37924 0.0
O215 O 0.848 0.97155 0.39316 0.0
C216 C 0.79499 0.92204 0.42904 0.0
C217 C 0.83022 0.91163 0.48015 0.0
O218 O 0.81525 0.90877 0.4866 0.0
O219 O 0.83172 0.92388 0.46912 0.0
O220 O 0.83847 0.03418 0.19843 0.0
Cd221 Cd 0.82367 0.04627 0.22356 0.0
O222 O 0.82237 0.05131 0.18285 0.0
Cd223 Cd 0.81221 0.06533 0.1604 0.0
O224 O 0.80362 0.07532 0.13545 0.0
C225 C 0.79259 0.08739 0.13386 0.0
O226 O 0.78591 0.09439 0.14779 0.0
C227 C 0.8344 0.04008 0.18367 0.0
C228 C 0.84075 0.07643 0.23317 0.0
O229 O 0.84454 0.06189 0.24012 0.0
O230 O 0.82854 0.07676 0.22202 0.0
O231 O 0.30007 0.58801 0.55695 0.0
Cd232 Cd 0.3121 0.57325 0.53175 0.0
O233 O 0.31279 0.56838 0.57266 0.0
Cd234 Cd 0.32309 0.55338 0.59451 0.0
O235 O 0.33085 0.54386 0.61995 0.0
C236 C 0.34385 0.53403 0.62186 0.0
O237 O 0.35255 0.52916 0.60813 0.0
C238 C 0.30361 0.58207 0.57183 0.0
C239 C 0.3383 0.59303 0.51692 0.0
O240 O 0.32267 0.5942 0.51161 0.0
O241 O 0.34158 0.58234 0.52913 0.0
O242 O 0.16262 0.53597 0.30086 0.0
Cd243 Cd 0.17909 0.54664 0.27613 0.0
O244 O 0.17863 0.55289 0.31673 0.0
Cd245 Cd 0.18779 0.56708 0.33946 0.0
O246 O 0.19528 0.57675 0.36485 0.0
C247 C 0.20502 0.58981 0.36679 0.0
O248 O 0.21087 0.59788 0.35306 0.0
C249 C 0.16617 0.5422 0.31561 0.0
C250 C 0.16318 0.57689 0.26481 0.0
O251 O 0.15934 0.56223 0.25818 0.0
O252 O 0.17496 0.57729 0.27642 0.0
O253 O 0.33997 0.46682 0.80072 0.0
Cd254 Cd 0.32512 0.45458 0.77571 0.0
O255 O 0.32299 0.45057 0.81627 0.0
Cd256 Cd 0.31192 0.43731 0.8387 0.0
O257 O 0.30303 0.42817 0.86383 0.0
C258 C 0.29346 0.41494 0.8654 0.0
O259 O 0.28865 0.40656 0.85147 0.0
C260 C 0.3354 0.46136 0.8155 0.0
C261 C 0.34183 0.42406 0.76644 0.0
O262 O 0.34585 0.43848 0.75939 0.0
O263 O 0.32957 0.424 0.77756 0.0
O264 O 0.94293 0.78515 0.58976 0.0
Cd265 Cd 0.97133 0.78272 0.57632 0.0
O266 O 0.93098 0.79541 0.56616 0.0
Cd267 Cd 0.90845 0.80322 0.55085 0.0
O268 O 0.88417 0.81508 0.54259 0.0
C269 C 0.88455 0.83081 0.53794 0.0
O270 O 0.89941 0.83897 0.5379 0.0
C271 C 0.92966 0.79072 0.58187 0.0
C272 C 0.99283 0.81038 0.58432 0.0
O273 O 0.98401 0.81024 0.57032 0.0
O274 O 0.9914 0.79748 0.59459 0.0
O275 O 0.96078 0.19543 0.34325 0.0
Cd276 Cd 0.96168 0.22423 0.33045 0.0
O277 O 0.95115 0.18359 0.31936 0.0
Cd278 Cd 0.94456 0.16109 0.30344 0.0
O279 O 0.93435 0.13634 0.29443 0.0
C280 C 0.91871 0.13581 0.28955 0.0
O281 O 0.90958 0.15011 0.28968 0.0
C282 C 0.95596 0.1821 0.33501 0.0
C283 C 0.93374 0.24484 0.33993 0.0
O284 O 0.93358 0.23624 0.3258 0.0
O285 O 0.94706 0.24357 0.34966 0.0
O286 O 0.55632 0.20989 0.09536 0.0
Cd287 Cd 0.52789 0.21271 0.08195 0.0
O288 O 0.56843 0.20004 0.07166 0.0
Cd289 Cd 0.59118 0.19279 0.05632 0.0
O290 O 0.61577 0.18168 0.04785 0.0
C291 C 0.61582 0.16603 0.04297 0.0
O292 O 0.60118 0.15747 0.04283 0.0
C293 C 0.56967 0.20458 0.08741 0.0
C294 C 0.50543 0.1855 0.08907 0.0
O295 O 0.51479 0.18555 0.07541 0.0
O296 O 0.50687 0.19822 0.09954 0.0
O297 O 0.52397 0.80665 0.83982 0.0
Cd298 Cd 0.52768 0.77677 0.83022 0.0
O299 O 0.54785 0.81606 0.82794 0.0
Cd300 Cd 0.56858 0.83402 0.82074 0.0
O301 O 0.58466 0.85319 0.80762 0.0
C302 C 0.58567 0.86836 0.81374 0.0
O303 O 0.57789 0.87182 0.82841 0.0
C304 C 0.53411 0.81912 0.83648 0.0
C305 C 0.55861 0.76058 0.83925 0.0
O306 O 0.55702 0.76874 0.82492 0.0
O307 O 0.54569 0.7605 0.8496 0.0
O308 O 0.94241 0.2274 0.9174 0.0
Cd309 Cd 0.97182 0.22318 0.92798 0.0
O310 O 0.93281 0.20309 0.92819 0.0
Cd311 Cd 0.91475 0.18206 0.93389 0.0
O312 O 0.89551 0.16565 0.94638 0.0
C313 C 0.88046 0.16451 0.93998 0.0
O314 O 0.87718 0.17235 0.9253 0.0
C315 C 0.92996 0.217 0.91989 0.0
C316 C 0.98761 0.19256 0.91743 0.0
O317 O 0.97954 0.19351 0.93186 0.0
O318 O 0.98789 0.206 0.90778 0.0
O319 O 0.54233 0.19431 0.65391 0.0
Cd320 Cd 0.54085 0.22313 0.66669 0.0
O321 O 0.55235 0.18269 0.67779 0.0
Cd322 Cd 0.5593 0.16031 0.69378 0.0
O323 O 0.56977 0.13569 0.70298 0.0
C324 C 0.58547 0.1353 0.70773 0.0
O325 O 0.59449 0.14965 0.70734 0.0
C326 C 0.5474 0.18107 0.6622 0.0
C327 C 0.56868 0.24447 0.65855 0.0
O328 O 0.56863 0.23535 0.67237 0.0
O329 O 0.55566 0.2433 0.64841 0.0
O330 O 0.55661 0.77992 0.41576 0.0
Cd331 Cd 0.527 0.78462 0.42575 0.0
O332 O 0.56704 0.80318 0.42791 0.0
Cd333 Cd 0.58525 0.82341 0.43572 0.0
O334 O 0.60482 0.83882 0.44897 0.0
C335 C 0.61965 0.84036 0.44215 0.0
O336 O 0.62241 0.83352 0.42687 0.0
C337 C 0.56951 0.78951 0.41907 0.0
C338 C 0.51072 0.81454 0.41392 0.0
O339 O 0.51881 0.81429 0.42836 0.0
O340 O 0.51073 0.80075 0.40478 0.0
O341 O 0.96285 0.80634 0.15586 0.0
Cd342 Cd 0.96459 0.77773 0.1691 0.0
O343 O 0.95258 0.81806 0.17957 0.0
Cd344 Cd 0.94515 0.84044 0.19537 0.0
O345 O 0.93457 0.86506 0.20444 0.0
C346 C 0.91901 0.86548 0.20962 0.0
O347 O 0.91005 0.85108 0.20977 0.0
C348 C 0.95753 0.81958 0.16396 0.0
C349 C 0.93662 0.75643 0.16148 0.0
O350 O 0.93685 0.7656 0.17525 0.0
O351 O 0.94954 0.75749 0.15119 0.0
O352 O 0.59004 0.94265 0.78869 0.0
Cd353 Cd 0.57686 0.97123 0.78682 0.0
O354 O 0.56622 0.93071 0.79841 0.0
Cd355 Cd 0.55061 0.90818 0.80554 0.0
O356 O 0.54218 0.8838 0.81706 0.0
C357 C 0.53807 0.88393 0.83293 0.0
O358 O 0.53864 0.89861 0.84142 0.0
C359 C 0.58195 0.92934 0.79383 0.0
C360 C 0.58601 0.99266 0.8142 0.0
O361 O 0.57193 0.98398 0.81454 0.0
O362 O 0.59582 0.99112 0.80096 0.0
O363 O 0.80709 0.83913 0.52535 0.0
Cd364 Cd 0.77723 0.83016 0.53042 0.0
O365 O 0.81682 0.82749 0.54921 0.0
Cd366 Cd 0.83493 0.82005 0.5697 0.0
O367 O 0.85391 0.80644 0.58559 0.0
C368 C 0.86927 0.81213 0.58635 0.0
O369 O 0.87302 0.82666 0.57844 0.0
C370 C 0.81974 0.83568 0.53523 0.0
C371 C 0.7627 0.83983 0.56197 0.0
O372 O 0.77054 0.82535 0.5602 0.0
O373 O 0.76216 0.85001 0.54892 0.0
O374 O 0.91612 0.05837 0.27492 0.0
Cd375 Cd 0.9266 0.02892 0.27932 0.0
O376 O 0.92668 0.06809 0.29926 0.0
Cd377 Cd 0.93226 0.08621 0.32027 0.0
O378 O 0.94451 0.10556 0.3367 0.0
C379 C 0.93797 0.12056 0.3378 0.0
O380 O 0.92331 0.12373 0.32989 0.0
C381 C 0.91853 0.07089 0.28525 0.0
C382 C 0.91536 0.01292 0.30959 0.0
O383 O 0.92981 0.02097 0.30901 0.0
O384 O 0.90601 0.01276 0.29594 0.0
O385 O 0.69346 0.15995 0.02997 0.0
Cd386 Cd 0.72331 0.16943 0.03427 0.0
O387 O 0.68352 0.17106 0.05401 0.0
Cd388 Cd 0.66517 0.17763 0.07461 0.0
O389 O 0.64576 0.19054 0.09057 0.0
C390 C 0.63055 0.18448 0.09141 0.0
O391 O 0.6271 0.16989 0.0835 0.0
C392 C 0.68077 0.16297 0.03996 0.0
C393 C 0.73963 0.1591 0.06473 0.0
O394 O 0.73131 0.17339 0.06381 0.0
O395 O 0.73978 0.14935 0.05136 0.0
O396 O 0.58902 0.05801 0.72336 0.0
Cd397 Cd 0.57878 0.02824 0.72055 0.0
O398 O 0.57786 0.06743 0.69911 0.0
Cd399 Cd 0.57165 0.08531 0.67799 0.0
O400 O 0.55908 0.10455 0.66155 0.0
C401 C 0.56559 0.11953 0.66003 0.0
O402 O 0.58043 0.12282 0.66754 0.0
C403 C 0.58626 0.07041 0.71293 0.0
C404 C 0.58877 0.01041 0.69085 0.0
O405 O 0.57458 0.01893 0.69146 0.0
O406 O 0.59858 0.01072 0.70418 0.0
O407 O 0.69527 0.84468 0.46263 0.0
Cd408 Cd 0.72408 0.83191 0.46163 0.0
O409 O 0.68312 0.82139 0.45196 0.0
Cd410 Cd 0.66036 0.80591 0.44524 0.0
O411 O 0.63532 0.79744 0.43526 0.0
C412 C 0.63459 0.79276 0.41956 0.0
O413 O 0.64881 0.79285 0.4103 0.0
C414 C 0.68179 0.8367 0.4578 0.0
C415 C 0.74309 0.84182 0.43273 0.0
O416 O 0.73436 0.82776 0.43279 0.0
O417 O 0.74267 0.85129 0.44629 0.0
O418 O 0.91597 0.94295 0.224 0.0
Cd419 Cd 0.92606 0.97254 0.21973 0.0
O420 O 0.92642 0.93325 0.19957 0.0
Cd421 Cd 0.93187 0.91505 0.1786 0.0
O422 O 0.94436 0.89582 0.16218 0.0
C423 C 0.93813 0.8807 0.16107 0.0
O424 O 0.92354 0.87723 0.169 0.0
C425 C 0.91841 0.93043 0.21367 0.0
C426 C 0.91494 0.98857 0.18943 0.0
O427 O 0.92942 0.98057 0.19011 0.0
O428 O 0.90546 0.98864 0.203 0.0
O429 O 0.80582 0.15941 0.9638 0.0
Cd430 Cd 0.77714 0.17244 0.96477 0.0
O431 O 0.81758 0.18311 0.95361 0.0
Cd432 Cd 0.83993 0.199 0.94642 0.0
O433 O 0.86458 0.2079 0.93584 0.0
C434 C 0.86507 0.21254 0.92012 0.0
O435 O 0.85075 0.21226 0.91104 0.0
C436 C 0.81911 0.16753 0.95865 0.0
C437 C 0.75667 0.16326 0.93668 0.0
O438 O 0.76531 0.17736 0.93663 0.0
O439 O 0.7578 0.15344 0.94996 0.0
O440 O 0.78535 0.58939 0.94239 0.0
Cd441 Cd 0.78289 0.57611 0.97088 0.0
O442 O 0.79545 0.5657 0.93049 0.0
Cd443 Cd 0.80308 0.55021 0.90803 0.0
O444 O 0.81494 0.54194 0.88376 0.0
C445 C 0.83084 0.53795 0.884 0.0
O446 O 0.8392 0.53852 0.89875 0.0
C447 C 0.79081 0.58142 0.92913 0.0
C448 C 0.81039 0.5843 0.99253 0.0
O449 O 0.81035 0.57026 0.98377 0.0
O450 O 0.79747 0.59453 0.99096 0.0
O451 O 0.27524 0.91693 0.05632 0.0
Cd452 Cd 0.28017 0.92736 0.02693 0.0
O453 O 0.29926 0.92776 0.06654 0.0
Cd454 Cd 0.31977 0.93346 0.08518 0.0
O455 O 0.33571 0.94558 0.10503 0.0
C456 C 0.33626 0.93902 0.12005 0.0
O457 O 0.3281 0.92444 0.12294 0.0
C458 C 0.28527 0.91949 0.06905 0.0
C459 C 0.3105 0.91572 0.01133 0.0
O460 O 0.31 0.93016 0.01939 0.0
O461 O 0.29674 0.90654 0.01098 0.0
O462 O 0.83825 0.52404 0.80676 0.0
Cd463 Cd 0.82874 0.5277 0.77684 0.0
O464 O 0.82623 0.54788 0.81613 0.0
Cd465 Cd 0.8189 0.56855 0.8341 0.0
O466 O 0.80559 0.58458 0.85321 0.0
C467 C 0.81155 0.58554 0.86845 0.0
O468 O 0.82619 0.57775 0.87204 0.0
C469 C 0.83482 0.53418 0.81921 0.0
C470 C 0.83798 0.55853 0.76059 0.0
O471 O 0.82361 0.55704 0.76869 0.0
O472 O 0.84826 0.54555 0.76059 0.0
O473 O 0.22255 0.08902 0.55798 0.0
Cd474 Cd 0.21953 0.07895 0.52817 0.0
O475 O 0.19837 0.07781 0.56747 0.0
Cd476 Cd 0.17736 0.07152 0.58544 0.0
O477 O 0.16104 0.05893 0.60475 0.0
C478 C 0.15967 0.06536 0.61978 0.0
O479 O 0.16728 0.08014 0.62309 0.0
C480 C 0.21221 0.08619 0.57043 0.0
C481 C 0.18939 0.08834 0.51075 0.0
O482 O 0.1904 0.07415 0.51923 0.0
O483 O 0.2025 0.09843 0.51092 0.0
O484 O 0.15635 0.96346 0.8056 0.0
Cd485 Cd 0.16937 0.96543 0.77692 0.0
O486 O 0.18031 0.95351 0.81709 0.0
Cd487 Cd 0.19647 0.94625 0.83925 0.0
O488 O 0.20588 0.93573 0.86376 0.0
C489 C 0.21101 0.92015 0.86416 0.0
O490 O 0.21093 0.91113 0.8498 0.0
C491 C 0.16464 0.95823 0.81877 0.0
C492 C 0.16182 0.93746 0.7556 0.0
O493 O 0.17566 0.93777 0.76467 0.0
O494 O 0.15144 0.9503 0.75677 0.0
O495 O 0.72709 0.41809 0.44195 0.0
Cd496 Cd 0.72301 0.42837 0.47148 0.0
O497 O 0.70228 0.428 0.43263 0.0
Cd498 Cd 0.68104 0.4327 0.41453 0.0
O499 O 0.66408 0.4446 0.39538 0.0
C500 C 0.66328 0.43848 0.38019 0.0
O501 O 0.67186 0.4243 0.37658 0.0
C502 C 0.71647 0.42023 0.42962 0.0
C503 C 0.69253 0.4176 0.48739 0.0
O504 O 0.69339 0.4321 0.47944 0.0
O505 O 0.706 0.40797 0.48748 0.0
O506 O 0.84242 0.46066 0.69539 0.0
Cd507 Cd 0.82931 0.4614 0.72406 0.0
O508 O 0.81864 0.45117 0.68319 0.0
Cd509 Cd 0.80299 0.44476 0.66046 0.0
O510 O 0.79432 0.43464 0.63554 0.0
C511 C 0.78954 0.41897 0.63486 0.0
O512 O 0.78956 0.40977 0.64911 0.0
C513 C 0.83432 0.45594 0.68193 0.0
C514 C 0.83898 0.43358 0.74476 0.0
O515 O 0.8249 0.43326 0.73606 0.0
O516 O 0.84856 0.44701 0.74355 0.0
O517 O 0.65469 0.54097 0.19411 0.0
Cd518 Cd 0.66762 0.53855 0.22281 0.0
O519 O 0.67864 0.55058 0.18229 0.0
Cd520 Cd 0.69443 0.55751 0.15977 0.0
O521 O 0.70332 0.56836 0.13521 0.0
C522 C 0.70791 0.5841 0.135 0.0
O523 O 0.70755 0.59291 0.14949 0.0
C524 C 0.66291 0.54605 0.18083 0.0
C525 C 0.65962 0.5657 0.24507 0.0
O526 O 0.67344 0.56586 0.23595 0.0
O527 O 0.6494 0.5528 0.24347 0.0
O528 O 0.5519 0.70753 0.91094 0.0
Cd529 Cd 0.5277 0.69431 0.92633 0.0
O530 O 0.56844 0.69177 0.92742 0.0
Cd531 Cd 0.59125 0.67915 0.93856 0.0
O532 O 0.61672 0.67046 0.94699 0.0
C533 C 0.61884 0.65844 0.95798 0.0
O534 O 0.60521 0.65089 0.9647 0.0
C535 C 0.567 0.70275 0.91521 0.0
C536 C 0.51441 0.66671 0.90742 0.0
O537 O 0.50818 0.68197 0.90586 0.0
O538 O 0.52684 0.66445 0.91811 0.0
O539 O 0.5457 0.30166 0.15964 0.0
Cd540 Cd 0.55763 0.27776 0.17653 0.0
O541 O 0.56131 0.31834 0.17607 0.0
Cd542 Cd 0.57406 0.34139 0.1864 0.0
O543 O 0.58223 0.36719 0.1942 0.0
C544 C 0.59534 0.36962 0.20374 0.0
O545 O 0.60421 0.35621 0.20918 0.0
C546 C 0.55078 0.31675 0.16351 0.0
C547 C 0.58538 0.26283 0.15906 0.0
O548 O 0.56999 0.25706 0.15725 0.0
O549 O 0.58772 0.27557 0.16934 0.0
O550 O 0.94471 0.28941 0.41678 0.0
Cd551 Cd 0.97047 0.30031 0.43137 0.0
O552 O 0.92924 0.30494 0.43455 0.0
Cd553 Cd 0.90689 0.31795 0.44628 0.0
O554 O 0.88169 0.32707 0.45525 0.0
C555 C 0.88008 0.33975 0.46554 0.0
O556 O 0.89401 0.34761 0.47116 0.0
C557 C 0.92997 0.29483 0.42157 0.0
C558 C 0.9816 0.32932 0.4132 0.0
O559 O 0.98783 0.31434 0.40992 0.0
O560 O 0.97055 0.33062 0.42545 0.0
O561 O 0.95462 0.69722 0.65932 0.0
Cd562 Cd 0.94124 0.72147 0.67456 0.0
O563 O 0.93985 0.68079 0.67677 0.0
Cd564 Cd 0.92805 0.65821 0.68933 0.0
O565 O 0.91995 0.63273 0.69839 0.0
C566 C 0.90784 0.63061 0.70927 0.0
O567 O 0.89987 0.64422 0.71553 0.0
C568 C 0.95044 0.68213 0.66421 0.0
C569 C 0.91369 0.73511 0.65573 0.0
O570 O 0.92903 0.74109 0.65407 0.0
O571 O 0.91132 0.7227 0.66642 0.0
O572 O 0.55658 0.29893 0.58773 0.0
Cd573 Cd 0.53131 0.31078 0.57296 0.0
O574 O 0.57229 0.31215 0.56844 0.0
Cd575 Cd 0.59426 0.32294 0.55399 0.0
O576 O 0.61967 0.33072 0.54442 0.0
C577 C 0.62156 0.34355 0.53437 0.0
O578 O 0.60783 0.35215 0.52932 0.0
C579 C 0.57146 0.30277 0.58198 0.0
C580 C 0.51669 0.33724 0.59257 0.0
O581 O 0.51136 0.32164 0.59396 0.0
O582 O 0.52879 0.34037 0.58172 0.0
O583 O 0.96729 0.30174 0.83888 0.0
Cd584 Cd 0.95525 0.27653 0.82422 0.0
O585 O 0.95064 0.31709 0.82209 0.0
Cd586 Cd 0.93704 0.33944 0.81123 0.0
O587 O 0.92771 0.36449 0.8023 0.0
C588 C 0.91424 0.366 0.79307 0.0
O589 O 0.90568 0.35205 0.78864 0.0
C590 C 0.96159 0.31645 0.83437 0.0
C591 C 0.92484 0.26723 0.84108 0.0
O592 O 0.93931 0.26028 0.84512 0.0
O593 O 0.92469 0.27825 0.82873 0.0
O594 O 0.94717 0.70387 0.08925 0.0
Cd595 Cd 0.97178 0.69179 0.07354 0.0
O596 O 0.93108 0.68933 0.07133 0.0
Cd597 Cd 0.90852 0.67751 0.05898 0.0
O598 O 0.88292 0.66983 0.05009 0.0
C599 C 0.88069 0.65624 0.04121 0.0
O600 O 0.89416 0.64677 0.0371 0.0
C601 C 0.93219 0.69938 0.08433 0.0
C602 C 0.98639 0.66459 0.09213 0.0
O603 O 0.99208 0.68005 0.09366 0.0
O604 O 0.97389 0.66194 0.08163 0.0
O605 O 0.53344 0.69809 0.34126 0.0
Cd606 Cd 0.54556 0.72318 0.32639 0.0
O607 O 0.55133 0.68243 0.32606 0.0
Cd608 Cd 0.56572 0.6598 0.31698 0.0
O609 O 0.57547 0.63462 0.30889 0.0
C610 C 0.58856 0.6329 0.29914 0.0
O611 O 0.59668 0.64675 0.29367 0.0
C612 C 0.53963 0.68334 0.33763 0.0
C613 C 0.57537 0.73343 0.34372 0.0
O614 O 0.56072 0.74033 0.34718 0.0
O615 O 0.57597 0.72201 0.33177 0.0
O616 O 0.91015 0.55141 0.70822 0.0
Cd617 Cd 0.9256 0.52714 0.6952 0.0
O618 O 0.92667 0.56783 0.69239 0.0
Cd619 Cd 0.93782 0.59057 0.67966 0.0
O620 O 0.94635 0.61598 0.67089 0.0
C621 C 0.95739 0.618 0.65891 0.0
O622 O 0.96409 0.60432 0.65144 0.0
C623 C 0.91443 0.56647 0.70335 0.0
C624 C 0.90691 0.51391 0.66742 0.0
O625 O 0.90517 0.5077 0.68267 0.0
O626 O 0.91768 0.52628 0.66525 0.0
O627 O 0.69804 0.65906 0.95487 0.0
Cd628 Cd 0.72218 0.67433 0.94133 0.0
O629 O 0.6815 0.6765 0.94019 0.0
Cd630 Cd 0.65882 0.68899 0.92852 0.0
O631 O 0.63329 0.69802 0.92053 0.0
C632 C 0.63109 0.70899 0.90852 0.0
O633 O 0.64466 0.71538 0.90058 0.0
C634 C 0.68292 0.66392 0.95076 0.0
C635 C 0.7355 0.65552 0.91361 0.0
O636 O 0.74164 0.65382 0.92889 0.0
O637 O 0.72311 0.66626 0.91138 0.0
O638 O 0.59044 0.4487 0.20406 0.0
Cd639 Cd 0.57374 0.47269 0.19206 0.0
O640 O 0.57401 0.43204 0.18842 0.0
Cd641 Cd 0.56371 0.40896 0.1757 0.0
O642 O 0.55582 0.38317 0.16759 0.0
C643 C 0.54619 0.38073 0.15454 0.0
O644 O 0.54072 0.39414 0.14568 0.0
C645 C 0.58655 0.43361 0.19897 0.0
C646 C 0.59156 0.4875 0.16448 0.0
O647 O 0.59323 0.49329 0.17989 0.0
O648 O 0.58124 0.47482 0.16205 0.0
O649 O 0.80091 0.33932 0.46681 0.0
Cd650 Cd 0.7759 0.32465 0.45438 0.0
O651 O 0.81644 0.32242 0.45046 0.0
Cd652 Cd 0.8389 0.3114 0.43719 0.0
O653 O 0.86403 0.30245 0.42812 0.0
C654 C 0.86563 0.29314 0.41472 0.0
O655 O 0.85174 0.28864 0.40611 0.0
C656 C 0.81569 0.33475 0.46134 0.0
C657 C 0.7668 0.3417 0.424 0.0
O658 O 0.7597 0.34559 0.43844 0.0
O659 O 0.77788 0.32941 0.42385 0.0
O660 O 0.91589 0.44507 0.78904 0.0
Cd661 Cd 0.93047 0.47089 0.79979 0.0
O662 O 0.93381 0.42975 0.80455 0.0
Cd663 Cd 0.94572 0.40752 0.81758 0.0
O664 O 0.95489 0.3824 0.82669 0.0
C665 C 0.96518 0.38088 0.83938 0.0
O666 O 0.97066 0.39486 0.84725 0.0
C667 C 0.92077 0.43038 0.7945 0.0
C668 C 0.91253 0.48197 0.82897 0.0
O669 O 0.90908 0.48817 0.81402 0.0
O670 O 0.92484 0.47097 0.83017 0.0
O671 O 0.80193 0.66239 0.03651 0.0
Cd672 Cd 0.77719 0.67873 0.04734 0.0
O673 O 0.81781 0.67828 0.05354 0.0
Cd674 Cd 0.84054 0.68736 0.06775 0.0
O675 O 0.86594 0.69488 0.07736 0.0
C676 C 0.86788 0.70455 0.09047 0.0
O677 O 0.85415 0.71029 0.09862 0.0
C678 C 0.81669 0.6659 0.04275 0.0
C679 C 0.76587 0.66247 0.07738 0.0
O680 O 0.75922 0.65881 0.06268 0.0
O681 O 0.77748 0.67423 0.07793 0.0
O682 O 0.58758 0.55361 0.29849 0.0
Cd683 Cd 0.57232 0.52847 0.31001 0.0
O684 O 0.56881 0.56949 0.31226 0.0
Cd685 Cd 0.55518 0.59167 0.32363 0.0
O686 O 0.54582 0.6171 0.33158 0.0
C687 C 0.53525 0.61903 0.34398 0.0
O688 O 0.52954 0.6053 0.35215 0.0
C689 C 0.58223 0.56853 0.30271 0.0
C690 C 0.59121 0.51394 0.33704 0.0
O691 O 0.59307 0.50863 0.32147 0.0
O692 O 0.5802 0.52597 0.33987 0.0
O693 O 0.70054 0.34015 0.5313 0.0
Cd694 Cd 0.72535 0.32478 0.54332 0.0
O695 O 0.68504 0.32498 0.54932 0.0
Cd696 Cd 0.66251 0.31622 0.56401 0.0
O697 O 0.63747 0.30831 0.57421 0.0
C698 C 0.63589 0.29841 0.5872 0.0
O699 O 0.64983 0.29265 0.59497 0.0
C700 C 0.68586 0.33664 0.53773 0.0
C701 C 0.73463 0.34112 0.57398 0.0
O702 O 0.74181 0.34517 0.55963 0.0
O703 O 0.72342 0.32897 0.57391 0.0
O704 O 0.70999 0.91115 0.55532 0.0
Cd705 Cd 0.69577 0.92601 0.53137 0.0
O706 O 0.69409 0.92762 0.57169 0.0
Cd707 Cd 0.68145 0.93886 0.59438 0.0
O708 O 0.6725 0.94741 0.61967 0.0
C709 C 0.66035 0.95828 0.62155 0.0
O710 O 0.65286 0.96478 0.60779 0.0
C711 C 0.7053 0.91561 0.57039 0.0
C712 C 0.66806 0.90651 0.51923 0.0
O713 O 0.6831 0.90523 0.51243 0.0
O714 O 0.66605 0.91717 0.53171 0.0
O715 O 0.20382 0.58898 0.44609 0.0
Cd716 Cd 0.19155 0.57337 0.47066 0.0
O717 O 0.18945 0.57092 0.42999 0.0
Cd718 Cd 0.17783 0.5584 0.40744 0.0
O719 O 0.17019 0.54952 0.38184 0.0
C720 C 0.15649 0.54081 0.37961 0.0
O721 O 0.14694 0.53687 0.39308 0.0
C722 C 0.19946 0.58395 0.4311 0.0
C723 C 0.16443 0.5921 0.48525 0.0
O724 O 0.17988 0.59351 0.49098 0.0
O725 O 0.16175 0.58166 0.4727 0.0
O726 O 0.65985 0.95513 0.70074 0.0
Cd727 Cd 0.67485 0.94161 0.72505 0.0
O728 O 0.67804 0.94113 0.68443 0.0
Cd729 Cd 0.69147 0.92993 0.66201 0.0
O730 O 0.70087 0.9219 0.6366 0.0
C731 C 0.71215 0.91015 0.63453 0.0
O732 O 0.71874 0.90252 0.64819 0.0
C733 C 0.66515 0.95134 0.68568 0.0
C734 C 0.65585 0.91392 0.73812 0.0
O735 O 0.65413 0.92918 0.74429 0.0
O736 O 0.6667 0.91169 0.72582 0.0
O737 O 0.29071 0.41625 0.94455 0.0
Cd738 Cd 0.30205 0.43064 0.97022 0.0
O739 O 0.30615 0.43406 0.92905 0.0
Cd740 Cd 0.31897 0.44598 0.9067 0.0
O741 O 0.32796 0.45506 0.88151 0.0
C742 C 0.34064 0.46534 0.87989 0.0
O743 O 0.34858 0.47087 0.89381 0.0
C744 C 0.29594 0.42115 0.92978 0.0
C745 C 0.33089 0.41215 0.98131 0.0
O746 O 0.3159 0.40911 0.98764 0.0
O747 O 0.33229 0.42428 0.97014 0.0
O748 O 0.34059 0.53106 0.70084 0.0
Cd749 Cd 0.3252 0.54306 0.72566 0.0
O750 O 0.32552 0.5492 0.68538 0.0
Cd751 Cd 0.31689 0.56398 0.66286 0.0
O752 O 0.30902 0.57428 0.63786 0.0
C753 C 0.29896 0.58715 0.63626 0.0
O754 O 0.29298 0.59477 0.65019 0.0
C755 C 0.33713 0.53755 0.68618 0.0
C756 C 0.34139 0.57379 0.73497 0.0
O757 O 0.34551 0.55944 0.74213 0.0
O758 O 0.32925 0.57367 0.72374 0.0
O759 O 0.79522 0.08955 0.05463 0.0
Cd760 Cd 0.80838 0.07522 0.02973 0.0
O761 O 0.80886 0.0706 0.07037 0.0
Cd762 Cd 0.81976 0.05611 0.09225 0.0
O763 O 0.82778 0.04648 0.11756 0.0
C764 C 0.84051 0.03627 0.11932 0.0
O765 O 0.84888 0.03108 0.10551 0.0
C766 C 0.79891 0.08373 0.06952 0.0
C767 C 0.83549 0.09488 0.01644 0.0
O768 O 0.82011 0.0964 0.01052 0.0
O769 O 0.8381 0.08393 0.02858 0.0
O770 O 0.66352 0.03655 0.80317 0.0
Cd771 Cd 0.67917 0.04715 0.77788 0.0
O772 O 0.68082 0.05253 0.81862 0.0
Cd773 Cd 0.69172 0.06597 0.84103 0.0
O774 O 0.70024 0.07504 0.86631 0.0
C775 C 0.70926 0.08862 0.86803 0.0
O776 O 0.71372 0.09738 0.8542 0.0
C777 C 0.66795 0.04231 0.81787 0.0
C778 C 0.6628 0.07717 0.76659 0.0
O779 O 0.65894 0.06242 0.76016 0.0
O780 O 0.67477 0.07776 0.77799 0.0
O781 O 0.83904 0.96791 0.30005 0.0
Cd782 Cd 0.82412 0.95572 0.27506 0.0
O783 O 0.82175 0.95202 0.31563 0.0
Cd784 Cd 0.81029 0.93897 0.33799 0.0
O785 O 0.80139 0.92982 0.36311 0.0
C786 C 0.7914 0.91691 0.36462 0.0
O787 O 0.78613 0.90889 0.35064 0.0
C788 C 0.83434 0.9626 0.31485 0.0
C789 C 0.84091 0.92528 0.26566 0.0
O790 O 0.84481 0.93973 0.25858 0.0
O791 O 0.82873 0.92516 0.27687 0.0
O792 O 0.44265 0.28623 0.09293 0.0
Cd793 Cd 0.4711 0.28285 0.07969 0.0
O794 O 0.43108 0.29634 0.06908 0.0
Cd795 Cd 0.40881 0.3042 0.05338 0.0
O796 O 0.38467 0.316 0.04457 0.0
C797 C 0.38507 0.33169 0.0398 0.0
O798 O 0.39991 0.3399 0.03995 0.0
C799 C 0.42954 0.29187 0.08483 0.0
C800 C 0.49348 0.31024 0.08622 0.0
O801 O 0.48428 0.30983 0.07248 0.0
O802 O 0.49195 0.29778 0.09701 0.0
O803 O 0.46078 0.69516 0.84338 0.0
Cd804 Cd 0.46153 0.72389 0.83042 0.0
O805 O 0.4511 0.68312 0.8196 0.0
Cd806 Cd 0.44457 0.6605 0.80381 0.0
O807 O 0.43453 0.63562 0.79498 0.0
C808 C 0.41888 0.63488 0.79015 0.0
O809 O 0.4096 0.64909 0.79022 0.0
C810 C 0.45599 0.68175 0.83524 0.0
C811 C 0.43359 0.7445 0.83991 0.0
O812 O 0.4334 0.73584 0.8258 0.0
O813 O 0.44694 0.74328 0.84961 0.0
O814 O 0.05788 0.72135 0.58941 0.0
Cd815 Cd 0.02802 0.71834 0.57944 0.0
O816 O 0.06746 0.69737 0.57785 0.0
Cd817 Cd 0.08537 0.67646 0.57104 0.0
O818 O 0.10465 0.66033 0.55814 0.0
C819 C 0.11963 0.65876 0.56462 0.0
O820 O 0.12289 0.66603 0.57958 0.0
C821 C 0.07038 0.71112 0.58638 0.0
C822 C 0.01049 0.68829 0.5889 0.0
O823 O 0.01899 0.68923 0.57472 0.0
O824 O 0.0107 0.70142 0.59896 0.0
O825 O 0.02414 0.30653 0.33933 0.0
Cd826 Cd 0.02781 0.27655 0.33002 0.0
O827 O 0.04795 0.31589 0.32723 0.0
Cd828 Cd 0.06856 0.33386 0.31973 0.0
O829 O 0.08455 0.35292 0.30631 0.0
C830 C 0.08543 0.36821 0.31217 0.0
O831 O 0.0776 0.37187 0.32676 0.0
C832 C 0.03424 0.31899 0.3358 0.0
C833 C 0.05871 0.26034 0.33913 0.0
O834 O 0.05713 0.26841 0.32476 0.0
O835 O 0.04579 0.26036 0.34949 0.0
O836 O 0.4413 0.72589 0.41588 0.0
Cd837 Cd 0.47076 0.7215 0.42629 0.0
O838 O 0.43194 0.70124 0.42606 0.0
Cd839 Cd 0.41411 0.67994 0.43142 0.0
O840 O 0.39522 0.66326 0.44407 0.0
C841 C 0.38008 0.66194 0.43793 0.0
O842 O 0.37642 0.66979 0.42334 0.0
C843 C 0.42893 0.71536 0.41817 0.0
C844 C 0.48625 0.69056 0.41624 0.0
O845 O 0.47812 0.6918 0.43062 0.0
O846 O 0.48671 0.70387 0.4064 0.0
O847 O 0.04207 0.69454 0.1537 0.0
Cd848 Cd 0.04076 0.72335 0.16653 0.0
O849 O 0.05211 0.68284 0.17752 0.0
Cd850 Cd 0.05903 0.66038 0.19343 0.0
O851 O 0.06957 0.63573 0.20244 0.0
C852 C 0.08533 0.63531 0.20694 0.0
O853 O 0.09437 0.64965 0.20642 0.0
C854 C 0.04711 0.68127 0.16194 0.0
C855 C 0.06867 0.74457 0.15837 0.0
O856 O 0.06861 0.73543 0.17217 0.0
O857 O 0.05563 0.74348 0.14825 0.0
O858 O 0.05751 0.27712 0.91651 0.0
Cd859 Cd 0.02809 0.28178 0.92698 0.0
O860 O 0.06758 0.30124 0.92725 0.0
Cd861 Cd 0.0859 0.322 0.93304 0.0
O862 O 0.10545 0.33811 0.94541 0.0
C863 C 0.12041 0.33918 0.93878 0.0
O864 O 0.12341 0.33143 0.92399 0.0
C865 C 0.07018 0.28725 0.919 0.0
C866 C 0.01213 0.31194 0.91537 0.0
O867 O 0.02022 0.31153 0.9298 0.0
O868 O 0.01191 0.29818 0.90619 0.0
O869 O 0.46355 0.30552 0.65623 0.0
Cd870 Cd 0.46535 0.27681 0.66922 0.0
O871 O 0.45346 0.31696 0.68014 0.0
Cd872 Cd 0.44615 0.3391 0.69632 0.0
O873 O 0.43572 0.36363 0.70578 0.0
C874 C 0.42013 0.36411 0.71088 0.0
O875 O 0.41104 0.3498 0.71076 0.0
C876 C 0.4583 0.31867 0.66451 0.0
C877 C 0.43728 0.25564 0.66162 0.0
O878 O 0.43761 0.26471 0.67545 0.0
O879 O 0.45014 0.25673 0.65127 0.0
O880 O 0.089 0.44197 0.28541 0.0
Cd881 Cd 0.07569 0.47041 0.2826 0.0
O882 O 0.06534 0.43005 0.29552 0.0
Cd883 Cd 0.04992 0.40759 0.30329 0.0
O884 O 0.04175 0.38339 0.31535 0.0
C885 C 0.03777 0.38375 0.33126 0.0
O886 O 0.03831 0.39857 0.3395 0.0
C887 C 0.08108 0.42872 0.29095 0.0
C888 C 0.08408 0.49244 0.30973 0.0
O889 O 0.07003 0.48371 0.30988 0.0
O890 O 0.09424 0.49066 0.29678 0.0
O891 O 0.30789 0.33925 0.02549 0.0
Cd892 Cd 0.27785 0.33013 0.02922 0.0
O893 O 0.31711 0.32796 0.04973 0.0
Cd894 Cd 0.33499 0.32113 0.07065 0.0
O895 O 0.35383 0.30788 0.08701 0.0
C896 C 0.36917 0.31359 0.08802 0.0
O897 O 0.37309 0.32804 0.08004 0.0
C898 C 0.32029 0.33606 0.03576 0.0
C899 C 0.26171 0.33931 0.06013 0.0
O900 O 0.26975 0.32491 0.05855 0.0
O901 O 0.26175 0.34967 0.04721 0.0
O902 O 0.41717 0.55735 0.77594 0.0
Cd903 Cd 0.42786 0.52799 0.78041 0.0
O904 O 0.42767 0.56729 0.80022 0.0
Cd905 Cd 0.43301 0.58559 0.82111 0.0
O906 O 0.44508 0.60515 0.83742 0.0
C907 C 0.43842 0.6201 0.83843 0.0
O908 O 0.42373 0.62311 0.8305 0.0
C909 C 0.41947 0.56993 0.78621 0.0
C910 C 0.41642 0.51191 0.81057 0.0
O911 O 0.43082 0.52006 0.81012 0.0
O912 O 0.4072 0.51169 0.79683 0.0
O913 O 0.19451 0.65302 0.54162 0.0
Cd914 Cd 0.22334 0.6658 0.54051 0.0
O915 O 0.18282 0.67678 0.55184 0.0
Cd916 Cd 0.16034 0.69262 0.55881 0.0
O917 O 0.13568 0.70163 0.56934 0.0
C918 C 0.13532 0.7063 0.58506 0.0
O919 O 0.14971 0.70591 0.59403 0.0
C920 C 0.18124 0.66125 0.54669 0.0
C921 C 0.2443 0.6578 0.56868 0.0
O922 O 0.23511 0.67157 0.56846 0.0
O923 O 0.24336 0.64763 0.55566 0.0
O924 O 0.08908 0.55799 0.22238 0.0
Cd925 Cd 0.07881 0.52821 0.21964 0.0
O926 O 0.07763 0.56745 0.19829 0.0
Cd927 Cd 0.07122 0.58538 0.17728 0.0
O928 O 0.05859 0.60472 0.16101 0.0
C929 C 0.06513 0.61968 0.15949 0.0
O930 O 0.08002 0.62291 0.16692 0.0
C931 C 0.08619 0.5704 0.21201 0.0
C932 C 0.08833 0.5104 0.18977 0.0
O933 O 0.07418 0.51896 0.19059 0.0
O934 O 0.09833 0.51066 0.20295 0.0
O935 O 0.19552 0.34387 0.96098 0.0
Cd936 Cd 0.22425 0.33087 0.96145 0.0
O937 O 0.18344 0.32018 0.95113 0.0
Cd938 Cd 0.16076 0.30451 0.94456 0.0
O939 O 0.13585 0.29577 0.9345 0.0
C940 C 0.13516 0.29089 0.91886 0.0
O941 O 0.14941 0.29087 0.90964 0.0
C942 C 0.1821 0.33577 0.95617 0.0
C943 C 0.24461 0.34033 0.93333 0.0
O944 O 0.23586 0.32629 0.93318 0.0
O945 O 0.24359 0.34999 0.94672 0.0
O946 O 0.41823 0.44124 0.72671 0.0
Cd947 Cd 0.42883 0.47069 0.72284 0.0
O948 O 0.42834 0.43194 0.70199 0.0
Cd949 Cd 0.43323 0.41402 0.68065 0.0
O950 O 0.44537 0.39494 0.66379 0.0
C951 C 0.43904 0.37988 0.66254 0.0
O952 O 0.42452 0.37638 0.67059 0.0
C953 C 0.42037 0.42894 0.71606 0.0
C954 C 0.41805 0.48694 0.69255 0.0
O955 O 0.43249 0.47887 0.69328 0.0
O956 O 0.40848 0.48701 0.70606 0.0
O957 O 0.30588 0.65568 0.46284 0.0
Cd958 Cd 0.27712 0.66858 0.46432 0.0
O959 O 0.31719 0.67951 0.45243 0.0
Cd960 Cd 0.3393 0.69563 0.44493 0.0
O961 O 0.36377 0.70508 0.43437 0.0
C962 C 0.36407 0.71037 0.41884 0.0
O963 O 0.34965 0.71038 0.40991 0.0
C964 C 0.31899 0.66396 0.45748 0.0
C965 C 0.25636 0.66095 0.43595 0.0
O966 O 0.2654 0.6748 0.43641 0.0
O967 O 0.25729 0.65061 0.44883 0.0
O968 O 0.28503 0.08923 0.44278 0.0
Cd969 Cd 0.28273 0.07597 0.47128 0.0
O970 O 0.29515 0.06553 0.43093 0.0
Cd971 Cd 0.30273 0.04986 0.40857 0.0
O972 O 0.31429 0.04144 0.38421 0.0
C973 C 0.33024 0.03762 0.38416 0.0
O974 O 0.3389 0.03842 0.39872 0.0
C975 C 0.29045 0.08123 0.42952 0.0
C976 C 0.31037 0.08412 0.49276 0.0
O977 O 0.31026 0.07008 0.48401 0.0
O978 O 0.29746 0.09437 0.49126 0.0
O979 O 0.77587 0.41672 0.55723 0.0
Cd980 Cd 0.78054 0.42724 0.52784 0.0
O981 O 0.80007 0.42731 0.56728 0.0
Cd982 Cd 0.82082 0.43278 0.5857 0.0
O983 O 0.83701 0.44489 0.60535 0.0
C984 C 0.83789 0.43826 0.62032 0.0
O985 O 0.8299 0.4236 0.6233 0.0
C986 C 0.78604 0.41912 0.56988 0.0
C987 C 0.81078 0.4157 0.51197 0.0
O988 O 0.8103 0.43012 0.52007 0.0
O989 O 0.79703 0.4065 0.5117 0.0
O990 O 0.33559 0.02274 0.30703 0.0
Cd991 Cd 0.32521 0.02609 0.27739 0.0
O992 O 0.32388 0.04677 0.31631 0.0
Cd993 Cd 0.31726 0.06769 0.33426 0.0
O994 O 0.30439 0.08394 0.35346 0.0
C995 C 0.31058 0.085 0.3686 0.0
O996 O 0.32523 0.07717 0.37205 0.0
C997 C 0.33255 0.03312 0.31937 0.0
C998 C 0.33438 0.05678 0.26088 0.0
O999 O 0.32011 0.05543 0.26916 0.0
O1000 O 0.34457 0.04373 0.26076 0.0
O1001 O 0.72277 0.58883 0.05766 0.0
Cd1002 Cd 0.71974 0.57893 0.02778 0.0
O1003 O 0.69855 0.57764 0.06711 0.0
Cd1004 Cd 0.67759 0.57142 0.08516 0.0
O1005 O 0.66125 0.5589 0.10451 0.0
C1006 C 0.66008 0.56524 0.11959 0.0
O1007 O 0.6679 0.5799 0.12295 0.0
C1008 C 0.71242 0.58595 0.07009 0.0
C1009 C 0.68959 0.58835 0.0104 0.0
O1010 O 0.69062 0.57414 0.01883 0.0
O1011 O 0.70269 0.59846 0.01061 0.0
O1012 O 0.65761 0.46455 0.30628 0.0
Cd1013 Cd 0.67086 0.46774 0.27783 0.0
O1014 O 0.68164 0.45497 0.31793 0.0
Cd1015 Cd 0.6977 0.44761 0.34012 0.0
O1016 O 0.70692 0.43671 0.36454 0.0
C1017 C 0.712 0.42111 0.36477 0.0
O1018 O 0.71201 0.41228 0.35029 0.0
C1019 C 0.66581 0.4592 0.31945 0.0
C1020 C 0.66418 0.44022 0.25565 0.0
O1021 O 0.67796 0.44065 0.26481 0.0
O1022 O 0.65345 0.45274 0.25712 0.0
O1023 O 0.22664 0.91783 0.94132 0.0
Cd1024 Cd 0.22268 0.92828 0.97081 0.0
O1025 O 0.20191 0.92793 0.93201 0.0
Cd1026 Cd 0.1806 0.93284 0.91406 0.0
O1027 O 0.16375 0.94498 0.89498 0.0
C1028 C 0.16258 0.9387 0.87988 0.0
O1029 O 0.17072 0.92424 0.87635 0.0
C1030 C 0.21601 0.92001 0.92901 0.0
C1031 C 0.1923 0.91753 0.9869 0.0
O1032 O 0.1931 0.93201 0.9789 0.0
O1033 O 0.20578 0.90792 0.98697 0.0
O1034 O 0.33957 0.96188 0.19504 0.0
Cd1035 Cd 0.32614 0.96292 0.22354 0.0
O1036 O 0.31588 0.95266 0.18249 0.0
Cd1037 Cd 0.30053 0.94629 0.15955 0.0
O1038 O 0.29236 0.93583 0.13462 0.0
C1039 C 0.28793 0.92005 0.13404 0.0
O1040 O 0.28799 0.91098 0.14837 0.0
C1041 C 0.33164 0.9572 0.18147 0.0
C1042 C 0.3359 0.93534 0.2445 0.0
O1043 O 0.32183 0.93488 0.23581 0.0
O1044 O 0.34542 0.94881 0.24319 0.0
O1045 O 0.15397 0.04178 0.69448 0.0
Cd1046 Cd 0.16687 0.04011 0.72324 0.0
O1047 O 0.17786 0.05164 0.68275 0.0
Cd1048 Cd 0.19373 0.05854 0.66027 0.0
O1049 O 0.20274 0.06916 0.63566 0.0
C1050 C 0.20741 0.08488 0.63534 0.0
O1051 O 0.20704 0.09381 0.64975 0.0
C1052 C 0.16222 0.04683 0.68121 0.0
C1053 C 0.15884 0.06785 0.74475 0.0
O1054 O 0.17264 0.06781 0.73561 0.0
O1055 O 0.14867 0.05486 0.74353 0.0
H1056 H 0.06695 0.21863 0.38412 0.0
C1057 C 0.07982 0.21751 0.38947 0.0
C1058 C 0.0821 0.20923 0.40552 0.0
C1059 C 0.09403 0.22384 0.38002 0.0
H1060 H 0.10091 0.20182 0.42459 0.0
C1061 C 0.0989 0.20735 0.41202 0.0
C1062 C 0.11331 0.21284 0.4025 0.0
C1063 C 0.11074 0.22148 0.38679 0.0
C1064 C 0.09157 0.23233 0.36285 0.0
H1065 H 0.12185 0.22624 0.37976 0.0
C1066 C 0.07695 0.24269 0.35944 0.0
C1067 C 0.07462 0.2505 0.34316 0.0
C1068 C 0.10382 0.22996 0.3496 0.0
H1069 H 0.11494 0.22169 0.35143 0.0
C1070 C 0.10174 0.23797 0.33361 0.0
H1071 H 0.06742 0.24479 0.36946 0.0
C1072 C 0.08729 0.24819 0.33038 0.0
H1073 H 0.08589 0.254 0.31774 0.0
H1074 H 0.11129 0.23604 0.32358 0.0
H1075 H 0.03125 0.81654 0.63292 0.0
C1076 C 0.03246 0.82956 0.63787 0.0
C1077 C 0.03855 0.83212 0.6548 0.0
C1078 C 0.02853 0.84365 0.62708 0.0
H1079 H 0.04426 0.85127 0.67412 0.0
C1080 C 0.04049 0.84906 0.66091 0.0
C1081 C 0.03729 0.8633 0.65014 0.0
C1082 C 0.03098 0.86049 0.6334 0.0
C1083 C 0.02225 0.84087 0.6091 0.0
H1084 H 0.02803 0.87146 0.62525 0.0
C1085 C 0.0108 0.82727 0.60525 0.0
C1086 C 0.00457 0.82486 0.58835 0.0
C1087 C 0.02755 0.85189 0.59564 0.0
H1088 H 0.03668 0.86221 0.59797 0.0
C1089 C 0.02129 0.84964 0.57891 0.0
H1090 H 0.00641 0.81877 0.61546 0.0
C1091 C 0.0098 0.83628 0.57527 0.0
H1092 H 0.00523 0.83473 0.56214 0.0
H1093 H 0.02543 0.85823 0.5687 0.0
H1094 H 0.42885 0.78234 0.8889 0.0
C1095 C 0.41604 0.78357 0.89438 0.0
C1096 C 0.41416 0.78964 0.91142 0.0
C1097 C 0.40153 0.77966 0.88416 0.0
H1098 H 0.39575 0.79538 0.93145 0.0
C1099 C 0.39747 0.79164 0.91819 0.0
C1100 C 0.38282 0.78856 0.90798 0.0
C1101 C 0.38495 0.7822 0.89116 0.0
C1102 C 0.40362 0.77335 0.86607 0.0
H1103 H 0.37365 0.7793 0.88347 0.0
C1104 C 0.4172 0.76207 0.86163 0.0
C1105 C 0.41902 0.75592 0.84462 0.0
C1106 C 0.39197 0.77853 0.8531 0.0
H1107 H 0.38165 0.78755 0.85585 0.0
C1108 C 0.39362 0.7723 0.83628 0.0
H1109 H 0.42619 0.75778 0.87145 0.0
C1110 C 0.407 0.761 0.83205 0.0
H1111 H 0.40808 0.75649 0.81886 0.0
H1112 H 0.38456 0.77635 0.82645 0.0
H1113 H 0.46143 0.18087 0.13385 0.0
C1114 C 0.45998 0.16798 0.13909 0.0
C1115 C 0.45238 0.16571 0.15548 0.0
C1116 C 0.4653 0.1537 0.12916 0.0
H1117 H 0.44553 0.14682 0.17467 0.0
C1118 C 0.45042 0.14887 0.16187 0.0
C1119 C 0.455 0.13445 0.15191 0.0
C1120 C 0.46271 0.13698 0.13573 0.0
C1121 C 0.4732 0.15612 0.11178 0.0
H1122 H 0.46668 0.12587 0.12821 0.0
C1123 C 0.48517 0.16947 0.10871 0.0
C1124 C 0.49303 0.17135 0.0924 0.0
C1125 C 0.46899 0.14485 0.09817 0.0
H1126 H 0.45956 0.13469 0.09993 0.0
C1127 C 0.47678 0.14664 0.08203 0.0
H1128 H 0.48866 0.17815 0.11909 0.0
C1129 C 0.48879 0.15973 0.07916 0.0
H1130 H 0.49458 0.16087 0.06647 0.0
H1131 H 0.47346 0.13786 0.07169 0.0
H1132 H 0.07275 0.78782 0.1135 0.0
C1133 C 0.08545 0.78935 0.10785 0.0
C1134 C 0.08711 0.79706 0.09144 0.0
C1135 C 0.10007 0.784 0.11725 0.0
H1136 H 0.10535 0.80441 0.07183 0.0
C1137 C 0.10372 0.79925 0.08456 0.0
C1138 C 0.1185 0.79462 0.09396 0.0
C1139 C 0.11656 0.78671 0.11013 0.0
C1140 C 0.09823 0.77592 0.13464 0.0
H1141 H 0.12794 0.78267 0.11719 0.0
C1142 C 0.08469 0.76426 0.13817 0.0
C1143 C 0.08315 0.75643 0.15451 0.0
C1144 C 0.11011 0.77974 0.14785 0.0
H1145 H 0.12042 0.78894 0.14578 0.0
C1146 C 0.10871 0.77189 0.164 0.0
H1147 H 0.07554 0.76105 0.12811 0.0
C1148 C 0.09539 0.76026 0.16733 0.0
H1149 H 0.09453 0.75448 0.18003 0.0
H1150 H 0.11795 0.77493 0.17403 0.0
H1151 H 0.47264 0.81983 0.36546 0.0
C1152 C 0.47161 0.83245 0.35954 0.0
C1153 C 0.46457 0.83389 0.34283 0.0
C1154 C 0.47675 0.8472 0.36886 0.0
H1155 H 0.45817 0.85169 0.32244 0.0
C1156 C 0.46272 0.85036 0.3355 0.0
C1157 C 0.46701 0.86527 0.34484 0.0
C1158 C 0.47446 0.86356 0.36125 0.0
C1159 C 0.4839 0.84564 0.38674 0.0
H1160 H 0.47833 0.87506 0.36817 0.0
C1161 C 0.49425 0.83142 0.39158 0.0
C1162 C 0.50088 0.83001 0.40846 0.0
C1163 C 0.48027 0.85838 0.39921 0.0
H1164 H 0.47193 0.86921 0.39628 0.0
C1165 C 0.48712 0.85721 0.41581 0.0
H1166 H 0.49731 0.82151 0.3822 0.0
C1167 C 0.49739 0.84318 0.42043 0.0
H1168 H 0.50228 0.84246 0.43351 0.0
H1169 H 0.48425 0.86713 0.42523 0.0
H1170 H 0.43199 0.21304 0.61632 0.0
C1171 C 0.41919 0.21194 0.61081 0.0
C1172 C 0.41718 0.20477 0.59422 0.0
C1173 C 0.40479 0.21729 0.62055 0.0
H1174 H 0.39863 0.19873 0.57444 0.0
C1175 C 0.40045 0.2032 0.58743 0.0
C1176 C 0.38587 0.20773 0.59721 0.0
C1177 C 0.38816 0.21505 0.6136 0.0
C1178 C 0.40703 0.22496 0.63805 0.0
H1179 H 0.37696 0.21905 0.62097 0.0
C1180 C 0.42073 0.2364 0.6415 0.0
C1181 C 0.42265 0.24393 0.65793 0.0
C1182 C 0.39534 0.22102 0.65141 0.0
H1183 H 0.38488 0.21198 0.64937 0.0
C1184 C 0.39712 0.22854 0.66767 0.0
H1185 H 0.42973 0.23972 0.63131 0.0
C1186 C 0.41063 0.23998 0.67093 0.0
H1187 H 0.41177 0.24554 0.6837 0.0
H1188 H 0.38803 0.22543 0.67782 0.0
H1189 H 0.02483 0.18498 0.86895 0.0
C1190 C 0.02585 0.17214 0.86353 0.0
C1191 C 0.03292 0.1701 0.84691 0.0
C1192 C 0.02072 0.15775 0.87343 0.0
H1193 H 0.03962 0.1516 0.82725 0.0
C1194 C 0.03491 0.15338 0.84023 0.0
C1195 C 0.03056 0.13881 0.85011 0.0
C1196 C 0.02302 0.14113 0.86643 0.0
C1197 C 0.01361 0.15998 0.89126 0.0
H1198 H 0.01911 0.12989 0.87376 0.0
C1199 C 0.00354 0.17454 0.89564 0.0
C1200 C 0.99707 0.17669 0.91251 0.0
C1201 C 0.01705 0.14761 0.90416 0.0
H1202 H 0.02518 0.13654 0.9016 0.0
C1203 C 0.0103 0.14949 0.92075 0.0
H1204 H 0.00058 0.18416 0.88594 0.0
C1205 C 0.00035 0.16389 0.92493 0.0
H1206 H 0.99556 0.16517 0.938 0.0
H1207 H 0.01302 0.13985 0.93051 0.0
H1208 H 0.38021 0.06498 0.22011 0.0
C1209 C 0.38555 0.07786 0.21912 0.0
C1210 C 0.40178 0.08017 0.21126 0.0
C1211 C 0.37591 0.09207 0.22517 0.0
H1212 H 0.42109 0.09895 0.20436 0.0
C1213 C 0.40834 0.09697 0.20953 0.0
C1214 C 0.39865 0.11137 0.21477 0.0
C1215 C 0.38271 0.10878 0.22298 0.0
C1216 C 0.35855 0.08958 0.23324 0.0
H1217 H 0.37553 0.11987 0.22756 0.0
C1218 C 0.35495 0.07498 0.24355 0.0
C1219 C 0.33852 0.07264 0.25102 0.0
C1220 C 0.34533 0.10179 0.23054 0.0
H1221 H 0.34732 0.1129 0.2223 0.0
C1222 C 0.32917 0.0997 0.2382 0.0
H1223 H 0.36495 0.06548 0.24591 0.0
C1224 C 0.32576 0.08527 0.2484 0.0
H1225 H 0.313 0.08385 0.25395 0.0
H1226 H 0.31916 0.10921 0.23604 0.0
H1227 H 0.18243 0.13303 0.46778 0.0
C1228 C 0.16963 0.13856 0.46666 0.0
C1229 C 0.16749 0.15458 0.45827 0.0
C1230 C 0.15532 0.12934 0.47312 0.0
H1231 H 0.14884 0.17384 0.45092 0.0
C1232 C 0.15075 0.1613 0.45652 0.0
C1233 C 0.13627 0.15204 0.4622 0.0
C1234 C 0.13869 0.13633 0.47087 0.0
C1235 C 0.15756 0.11217 0.48164 0.0
H1236 H 0.12753 0.12945 0.47574 0.0
C1237 C 0.17193 0.10868 0.49232 0.0
C1238 C 0.17386 0.09245 0.50036 0.0
C1239 C 0.14525 0.09904 0.47908 0.0
H1240 H 0.13432 0.10097 0.47059 0.0
C1241 C 0.14698 0.08309 0.48723 0.0
H1242 H 0.18151 0.11861 0.49452 0.0
C1243 C 0.16113 0.07979 0.49784 0.0
H1244 H 0.16224 0.06719 0.5038 0.0
H1245 H 0.13739 0.07315 0.48517 0.0
H1246 H 0.11633 0.93217 0.71317 0.0
C1247 C 0.11088 0.91935 0.71204 0.0
C1248 C 0.09426 0.91729 0.70495 0.0
C1249 C 0.12071 0.90497 0.71728 0.0
H1250 H 0.07453 0.89868 0.69894 0.0
C1251 C 0.08754 0.90054 0.70335 0.0
C1252 C 0.09742 0.88599 0.70776 0.0
C1253 C 0.11384 0.88832 0.71501 0.0
C1254 C 0.13825 0.90726 0.72487 0.0
H1255 H 0.12128 0.87714 0.71891 0.0
C1256 C 0.14169 0.92093 0.73636 0.0
C1257 C 0.15815 0.92288 0.74382 0.0
C1258 C 0.15164 0.89565 0.7208 0.0
H1259 H 0.14961 0.88523 0.71172 0.0
C1260 C 0.16793 0.89747 0.72826 0.0
H1261 H 0.13147 0.92986 0.73978 0.0
C1262 C 0.17118 0.91094 0.73975 0.0
H1263 H 0.18398 0.91211 0.74526 0.0
H1264 H 0.17811 0.88845 0.72504 0.0
H1265 H 0.31684 0.86682 0.97433 0.0
C1266 C 0.32952 0.86097 0.97352 0.0
C1267 C 0.33111 0.84419 0.96672 0.0
C1268 C 0.34415 0.87046 0.97868 0.0
H1269 H 0.3491 0.82384 0.9607 0.0
C1270 C 0.34764 0.83695 0.96508 0.0
C1271 C 0.36246 0.84644 0.96937 0.0
C1272 C 0.36058 0.86293 0.97663 0.0
C1273 C 0.34238 0.88841 0.98561 0.0
H1274 H 0.37201 0.86995 0.98052 0.0
C1275 C 0.32791 0.8933 0.99558 0.0
C1276 C 0.32624 0.91026 0.00194 0.0
C1277 C 0.35514 0.9009 0.98214 0.0
H1278 H 0.36617 0.89795 0.97408 0.0
C1279 C 0.35372 0.91758 0.98876 0.0
H1280 H 0.31799 0.88391 0.99855 0.0
C1281 C 0.33942 0.92225 0.99863 0.0
H1282 H 0.33851 0.93539 0.00334 0.0
H1283 H 0.36366 0.92701 0.98602 0.0
H1284 H 0.38562 0.93098 0.28145 0.0
C1285 C 0.39114 0.91819 0.28267 0.0
C1286 C 0.4083 0.91637 0.28839 0.0
C1287 C 0.38084 0.90364 0.27911 0.0
H1288 H 0.42847 0.89802 0.29386 0.0
C1289 C 0.41512 0.8997 0.29039 0.0
C1290 C 0.40486 0.88502 0.28766 0.0
C1291 C 0.3879 0.88709 0.28164 0.0
C1292 C 0.36262 0.90568 0.27316 0.0
H1293 H 0.38016 0.87576 0.27901 0.0
C1294 C 0.35795 0.91917 0.26185 0.0
C1295 C 0.34083 0.92093 0.25601 0.0
C1296 C 0.34976 0.89408 0.27869 0.0
H1297 H 0.3527 0.88384 0.28774 0.0
C1298 C 0.33282 0.89568 0.27278 0.0
H1299 H 0.36768 0.92812 0.25728 0.0
C1300 C 0.32836 0.90894 0.26144 0.0
H1301 H 0.31509 0.90998 0.25716 0.0
H1302 H 0.32307 0.88664 0.27709 0.0
H1303 H 0.31646 0.13294 0.53097 0.0
C1304 C 0.32949 0.13786 0.5322 0.0
C1305 C 0.33207 0.15481 0.53823 0.0
C1306 C 0.34357 0.12703 0.52836 0.0
H1307 H 0.35124 0.17411 0.54394 0.0
C1308 C 0.34901 0.16089 0.5402 0.0
C1309 C 0.36324 0.15008 0.53707 0.0
C1310 C 0.36041 0.13333 0.53082 0.0
C1311 C 0.34078 0.10902 0.52216 0.0
H1312 H 0.37138 0.12514 0.52793 0.0
C1313 C 0.32722 0.10513 0.51068 0.0
C1314 C 0.32482 0.0882 0.50453 0.0
C1315 C 0.35177 0.09558 0.52758 0.0
H1316 H 0.36205 0.09794 0.53674 0.0
C1317 C 0.34951 0.07882 0.5214 0.0
H1318 H 0.31875 0.11533 0.50621 0.0
C1319 C 0.33619 0.07513 0.50988 0.0
H1320 H 0.33465 0.06199 0.50537 0.0
H1321 H 0.35808 0.06861 0.52564 0.0
H1322 H 0.11378 0.07198 0.78792 0.0
C1323 C 0.10819 0.08471 0.78941 0.0
C1324 C 0.09173 0.08648 0.79698 0.0
C1325 C 0.11772 0.09928 0.78415 0.0
H1326 H 0.0721 0.10482 0.80407 0.0
C1327 C 0.08491 0.10313 0.79909 0.0
C1328 C 0.09445 0.11785 0.79458 0.0
C1329 C 0.11068 0.11581 0.78682 0.0
C1330 C 0.13516 0.09733 0.7762 0.0
H1331 H 0.11786 0.12714 0.78287 0.0
C1332 C 0.13865 0.08385 0.76448 0.0
C1333 C 0.15503 0.08224 0.75673 0.0
C1334 C 0.14842 0.10908 0.7802 0.0
H1335 H 0.14637 0.11935 0.78945 0.0
C1336 C 0.16462 0.10761 0.77245 0.0
H1337 H 0.12854 0.07479 0.76113 0.0
C1338 C 0.16792 0.09435 0.76074 0.0
H1339 H 0.18065 0.09344 0.75502 0.0
H1340 H 0.1747 0.11675 0.77561 0.0
H1341 H 0.18514 0.86863 0.02377 0.0
C1342 C 0.1723 0.86322 0.02484 0.0
C1343 C 0.1703 0.84654 0.0318 0.0
C1344 C 0.15787 0.87317 0.01993 0.0
H1345 H 0.15186 0.82684 0.03853 0.0
C1346 C 0.15359 0.83985 0.03386 0.0
C1347 C 0.13899 0.84977 0.02969 0.0
C1348 C 0.14127 0.86615 0.02228 0.0
C1349 C 0.16004 0.89108 0.01301 0.0
H1350 H 0.13 0.87353 0.01852 0.0
C1351 C 0.17449 0.89557 0.00283 0.0
C1352 C 0.17656 0.91251 0.99652 0.0
C1353 C 0.14772 0.90395 0.01674 0.0
H1354 H 0.13674 0.90129 0.02497 0.0
C1355 C 0.14952 0.92061 0.01017 0.0
H1356 H 0.18408 0.8859 0.99966 0.0
C1357 C 0.1638 0.92489 1.00009 0.0
H1358 H 0.16503 0.93802 0.99542 0.0
H1359 H 0.13992 0.93033 0.01311 0.0
H1360 H 0.21981 0.38413 0.06823 0.0
C1361 C 0.21864 0.38951 0.08109 0.0
C1362 C 0.21026 0.40551 0.08331 0.0
C1363 C 0.22503 0.38015 0.09533 0.0
H1364 H 0.20271 0.42459 0.10206 0.0
C1365 C 0.20833 0.41205 0.10009 0.0
C1366 C 0.21387 0.40262 0.11453 0.0
C1367 C 0.22262 0.38695 0.11202 0.0
C1368 C 0.23362 0.36301 0.09293 0.0
H1369 H 0.22743 0.37998 0.12315 0.0
C1370 C 0.244 0.35961 0.07832 0.0
C1371 C 0.25188 0.34335 0.07604 0.0
C1372 C 0.23133 0.3498 0.10523 0.0
H1373 H 0.22306 0.35162 0.11635 0.0
C1374 C 0.23942 0.33384 0.10321 0.0
H1375 H 0.24603 0.3696 0.06875 0.0
C1376 C 0.24965 0.33061 0.08876 0.0
H1377 H 0.25552 0.31799 0.08741 0.0
H1378 H 0.23756 0.32383 0.11279 0.0
H1379 H 0.71894 0.11437 0.93157 0.0
C1380 C 0.71785 0.1089 0.91875 0.0
C1381 C 0.7119 0.09184 0.91685 0.0
C1382 C 0.72185 0.11913 0.90427 0.0
H1383 H 0.70644 0.07174 0.89844 0.0
C1384 C 0.71008 0.08505 0.90016 0.0
C1385 C 0.71326 0.09527 0.88551 0.0
C1386 C 0.7195 0.11213 0.88768 0.0
C1387 C 0.72813 0.13721 0.90641 0.0
H1388 H 0.72248 0.11983 0.87639 0.0
C1389 C 0.73928 0.14162 0.92009 0.0
C1390 C 0.74538 0.15862 0.922 0.0
C1391 C 0.72306 0.15022 0.89473 0.0
H1392 H 0.71416 0.14748 0.88433 0.0
C1393 C 0.72926 0.16703 0.89648 0.0
H1394 H 0.7435 0.13177 0.92907 0.0
C1395 C 0.74041 0.17123 0.90996 0.0
H1396 H 0.7449 0.18442 0.91112 0.0
H1397 H 0.7253 0.17689 0.88739 0.0
H1398 H 0.13309 0.46723 0.1833 0.0
C1399 C 0.13867 0.4661 0.17052 0.0
C1400 C 0.15472 0.45773 0.16846 0.0
C1401 C 0.12951 0.47254 0.15617 0.0
H1402 H 0.17406 0.4504 0.14989 0.0
C1403 C 0.16152 0.456 0.15175 0.0
C1404 C 0.15231 0.46167 0.13722 0.0
C1405 C 0.13657 0.4703 0.13957 0.0
C1406 C 0.1123 0.48101 0.15831 0.0
H1407 H 0.12973 0.47516 0.12838 0.0
C1408 C 0.10875 0.49179 0.17258 0.0
C1409 C 0.0925 0.49984 0.17437 0.0
C1410 C 0.09923 0.47834 0.14597 0.0
H1411 H 0.10122 0.46977 0.13511 0.0
C1412 C 0.08325 0.48648 0.14757 0.0
H1413 H 0.11865 0.49407 0.18218 0.0
C1414 C 0.0799 0.4972 0.16161 0.0
H1415 H 0.06728 0.50316 0.16262 0.0
H1416 H 0.07335 0.48432 0.13795 0.0
H1417 H 0.78183 0.88978 0.4276 0.0
C1418 C 0.78283 0.8956 0.41492 0.0
C1419 C 0.78951 0.91244 0.41335 0.0
C1420 C 0.77801 0.886 0.40026 0.0
H1421 H 0.79551 0.93276 0.39534 0.0
C1422 C 0.79126 0.91962 0.39681 0.0
C1423 C 0.78729 0.91 0.38198 0.0
C1424 C 0.78026 0.89341 0.38383 0.0
C1425 C 0.77109 0.86809 0.40204 0.0
H1426 H 0.77667 0.88622 0.3724 0.0
C1427 C 0.76035 0.86356 0.41603 0.0
C1428 C 0.75376 0.8467 0.41766 0.0
C1429 C 0.77519 0.85535 0.38973 0.0
H1430 H 0.78379 0.85813 0.37906 0.0
C1431 C 0.76847 0.83871 0.39115 0.0
H1432 H 0.75686 0.8732 0.42554 0.0
C1433 C 0.75776 0.83439 0.40497 0.0
H1434 H 0.75289 0.82132 0.40587 0.0
H1435 H 0.7717 0.82907 0.38157 0.0
H1436 H 0.86638 0.02621 0.18276 0.0
C1437 C 0.86079 0.02725 0.16999 0.0
C1438 C 0.84416 0.03439 0.16814 0.0
C1439 C 0.87049 0.02208 0.15548 0.0
H1440 H 0.82431 0.04112 0.14986 0.0
C1441 C 0.83728 0.03635 0.1515 0.0
C1442 C 0.84697 0.03196 0.13682 0.0
C1443 C 0.86329 0.02438 0.13894 0.0
C1444 C 0.88835 0.01495 0.15747 0.0
H1445 H 0.87048 0.02044 0.12762 0.0
C1446 C 0.89291 0.00476 0.1719 0.0
C1447 C 0.90979 0.99822 0.17375 0.0
C1448 C 0.90109 0.01849 0.14497 0.0
H1449 H 0.89839 0.02672 0.134 0.0
C1450 C 0.9177 0.01171 0.14657 0.0
H1451 H 0.88332 0.00176 0.18163 0.0
C1452 C 0.92204 0.0016 0.16081 0.0
H1453 H 0.93513 0.99677 0.16186 0.0
H1454 H 0.92732 0.0145 0.13682 0.0
H1455 H 0.28792 0.6134 0.57307 0.0
C1456 C 0.2895 0.60778 0.58578 0.0
C1457 C 0.29749 0.5915 0.58747 0.0
C1458 C 0.28395 0.6171 0.60038 0.0
H1459 H 0.30526 0.57211 0.60576 0.0
C1460 C 0.29979 0.5847 0.6041 0.0
C1461 C 0.29491 0.594 0.61886 0.0
C1462 C 0.2867 0.61002 0.61688 0.0
C1463 C 0.27563 0.63438 0.59851 0.0
H1464 H 0.28249 0.617 0.62824 0.0
C1465 C 0.26405 0.63779 0.58488 0.0
C1466 C 0.25604 0.65404 0.58329 0.0
C1467 C 0.27919 0.64762 0.61044 0.0
H1468 H 0.28833 0.64566 0.62083 0.0
C1469 C 0.27115 0.66367 0.609 0.0
H1470 H 0.26103 0.62771 0.57568 0.0
C1471 C 0.25961 0.66689 0.59557 0.0
H1472 H 0.25368 0.67952 0.59468 0.0
H1473 H 0.27398 0.67372 0.61828 0.0
H1474 H 0.13327 0.53056 0.31517 0.0
C1475 C 0.13823 0.53182 0.32819 0.0
C1476 C 0.15523 0.53772 0.33073 0.0
C1477 C 0.12738 0.52814 0.3423 0.0
H1478 H 0.17461 0.54332 0.34985 0.0
C1479 C 0.16136 0.53968 0.34766 0.0
C1480 C 0.15054 0.5367 0.36191 0.0
C1481 C 0.13373 0.53061 0.35912 0.0
C1482 C 0.1093 0.52213 0.33957 0.0
H1483 H 0.12552 0.52785 0.37011 0.0
C1484 C 0.10528 0.51049 0.32619 0.0
C1485 C 0.0883 0.50446 0.32392 0.0
C1486 C 0.09594 0.52785 0.3505 0.0
H1487 H 0.09842 0.53713 0.36065 0.0
C1488 C 0.07911 0.52181 0.34836 0.0
H1489 H 0.11543 0.50581 0.31777 0.0
C1490 C 0.0753 0.51011 0.33524 0.0
H1491 H 0.06211 0.50569 0.33379 0.0
H1492 H 0.06897 0.52627 0.35688 0.0
H1493 H 0.36759 0.47468 0.81678 0.0
C1494 C 0.3618 0.47379 0.82948 0.0
C1495 C 0.34503 0.46698 0.83113 0.0
C1496 C 0.37137 0.47887 0.84409 0.0
H1497 H 0.32479 0.46086 0.8492 0.0
C1498 C 0.33788 0.46526 0.84769 0.0
C1499 C 0.34746 0.46946 0.86248 0.0
C1500 C 0.36393 0.47673 0.86055 0.0
C1501 C 0.38931 0.48579 0.84228 0.0
H1502 H 0.37103 0.48055 0.87196 0.0
C1503 C 0.39412 0.49591 0.82788 0.0
C1504 C 0.41106 0.5023 0.8262 0.0
C1505 C 0.40188 0.48218 0.85493 0.0
H1506 H 0.39899 0.474 0.86589 0.0
C1507 C 0.41855 0.48882 0.85349 0.0
H1508 H 0.38467 0.49898 0.81805 0.0
C1509 C 0.42313 0.49886 0.83928 0.0
H1510 H 0.43626 0.50358 0.83835 0.0
H1511 H 0.42804 0.48597 0.86335 0.0
H1512 H 0.91869 0.76759 0.60511 0.0
C1513 C 0.90892 0.77724 0.60241 0.0
C1514 C 0.9127 0.79043 0.5906 0.0
C1515 C 0.8925 0.77594 0.61009 0.0
H1516 H 0.9031 0.81336 0.57822 0.0
C1517 C 0.90002 0.80272 0.58672 0.0
C1518 C 0.8832 0.80103 0.59325 0.0
C1519 C 0.87957 0.78777 0.60512 0.0
C1520 C 0.88892 0.76185 0.62277 0.0
H1521 H 0.86672 0.78682 0.61054 0.0
C1522 C 0.90206 0.75597 0.63393 0.0
C1523 C 0.8993 0.74197 0.64516 0.0
C1524 C 0.87267 0.75378 0.62349 0.0
H1525 H 0.86232 0.75765 0.61493 0.0
C1526 C 0.86969 0.74021 0.635 0.0
H1527 H 0.91455 0.76225 0.63384 0.0
C1528 C 0.8829 0.73426 0.64572 0.0
H1529 H 0.88034 0.72349 0.65426 0.0
H1530 H 0.85714 0.73407 0.63539 0.0
H1531 H 0.97994 0.17165 0.35762 0.0
C1532 C 0.97078 0.16149 0.35476 0.0
C1533 C 0.95725 0.16494 0.34325 0.0
C1534 C 0.97307 0.14492 0.36188 0.0
H1535 H 0.93475 0.15453 0.33076 0.0
C1536 C 0.94561 0.15176 0.3391 0.0
C1537 C 0.94827 0.13487 0.34508 0.0
C1538 C 0.96183 0.13158 0.35669 0.0
C1539 C 0.9876 0.14157 0.37413 0.0
H1540 H 0.9635 0.11864 0.3617 0.0
C1541 C 0.99323 0.15462 0.38551 0.0
C1542 C 0.00754 0.15204 0.39637 0.0
C1543 C 0.99631 0.12561 0.37421 0.0
H1544 H 0.9927 0.11537 0.36544 0.0
C1545 C 0.01019 0.1228 0.38537 0.0
H1546 H 0.9865 0.16687 0.38591 0.0
C1547 C 0.01584 0.13592 0.39634 0.0
H1548 H 0.02687 0.13351 0.40459 0.0
H1549 H 0.01681 0.11049 0.38528 0.0
H1550 H 0.5804 0.22813 0.11021 0.0
C1551 C 0.59031 0.21861 0.10761 0.0
C1552 C 0.58666 0.20519 0.09605 0.0
C1553 C 0.6068 0.22037 0.11505 0.0
H1554 H 0.59663 0.18239 0.08371 0.0
C1555 C 0.59956 0.19313 0.09213 0.0
C1556 C 0.6164 0.19524 0.09843 0.0
C1557 C 0.61988 0.20869 0.11012 0.0
C1558 C 0.61033 0.23484 0.12731 0.0
H1559 H 0.63277 0.20994 0.11537 0.0
C1560 C 0.59717 0.24106 0.13826 0.0
C1561 C 0.59987 0.25546 0.14896 0.0
C1562 C 0.62657 0.24298 0.12776 0.0
H1563 H 0.63694 0.23891 0.11932 0.0
C1564 C 0.62951 0.2569 0.13882 0.0
H1565 H 0.58469 0.23477 0.13841 0.0
C1566 C 0.61626 0.26319 0.1493 0.0
H1567 H 0.61878 0.27427 0.15744 0.0
H1568 H 0.64204 0.26308 0.139 0.0
H1569 H 0.51269 0.82676 0.8625 0.0
C1570 C 0.51844 0.83829 0.85714 0.0
C1571 C 0.52979 0.83662 0.84304 0.0
C1572 C 0.51418 0.85458 0.86403 0.0
H1573 H 0.54368 0.85063 0.82334 0.0
C1574 C 0.53602 0.85163 0.83496 0.0
C1575 C 0.53199 0.86803 0.84161 0.0
C1576 C 0.52166 0.86932 0.85646 0.0
C1577 C 0.50136 0.85629 0.87848 0.0
H1578 H 0.51912 0.88196 0.86181 0.0
C1579 C 0.4987 0.84275 0.89042 0.0
C1580 C 0.48571 0.84384 0.90311 0.0
C1581 C 0.49101 0.87122 0.87998 0.0
H1582 H 0.49199 0.88173 0.87084 0.0
C1583 C 0.47873 0.87268 0.89308 0.0
H1584 H 0.50656 0.83121 0.88986 0.0
C1585 C 0.47603 0.85909 0.90454 0.0
H1586 H 0.46598 0.86036 0.9142 0.0
H1587 H 0.47093 0.88425 0.89404 0.0
H1588 H 0.92357 0.23811 0.89339 0.0
C1589 C 0.91179 0.23235 0.8982 0.0
C1590 C 0.91278 0.22115 0.91246 0.0
C1591 C 0.89589 0.23639 0.89038 0.0
H1592 H 0.8979 0.20713 0.93139 0.0
C1593 C 0.89743 0.21481 0.91974 0.0
C1594 C 0.88136 0.21875 0.91225 0.0
C1595 C 0.88079 0.22902 0.8973 0.0
C1596 C 0.89504 0.24881 0.87554 0.0
H1597 H 0.86843 0.23155 0.89129 0.0
C1598 C 0.90918 0.25086 0.86419 0.0
C1599 C 0.90904 0.26358 0.85121 0.0
C1600 C 0.88042 0.25939 0.87306 0.0
H1601 H 0.86945 0.25877 0.88169 0.0
C1602 C 0.8799 0.27142 0.85966 0.0
H1603 H 0.92045 0.24271 0.86549 0.0
C1604 C 0.89412 0.2736 0.84884 0.0
H1605 H 0.89359 0.28346 0.83893 0.0
H1606 H 0.86858 0.27944 0.85795 0.0
H1607 H 0.523 0.17024 0.64029 0.0
C1608 C 0.53229 0.16015 0.64306 0.0
C1609 C 0.54609 0.16382 0.65417 0.0
C1610 C 0.52987 0.14345 0.6363 0.0
H1611 H 0.56887 0.15363 0.66637 0.0
C1612 C 0.55786 0.15072 0.65829 0.0
C1613 C 0.55512 0.13373 0.65269 0.0
C1614 C 0.54131 0.13023 0.64144 0.0
C1615 C 0.51499 0.13983 0.62457 0.0
H1616 H 0.53958 0.1172 0.63671 0.0
C1617 C 0.50878 0.15271 0.61326 0.0
C1618 C 0.49415 0.14986 0.6029 0.0
C1619 C 0.5065 0.12376 0.62491 0.0
H1620 H 0.51051 0.11364 0.63367 0.0
C1621 C 0.49232 0.12067 0.61424 0.0
H1622 H 0.5153 0.16505 0.61251 0.0
C1623 C 0.48612 0.13362 0.60333 0.0
H1624 H 0.47485 0.13099 0.59548 0.0
H1625 H 0.48589 0.10827 0.61465 0.0
H1626 H 0.5759 0.7667 0.39393 0.0
C1627 C 0.58769 0.77256 0.39853 0.0
C1628 C 0.58674 0.78461 0.4121 0.0
C1629 C 0.60361 0.76768 0.39121 0.0
H1630 H 0.60182 0.79929 0.43037 0.0
C1631 C 0.60218 0.79102 0.41916 0.0
C1632 C 0.61823 0.78644 0.41199 0.0
C1633 C 0.61875 0.77531 0.39771 0.0
C1634 C 0.60451 0.7541 0.37743 0.0
H1635 H 0.63112 0.77224 0.39197 0.0
C1636 C 0.59056 0.75129 0.36604 0.0
C1637 C 0.59089 0.73767 0.35401 0.0
C1638 C 0.61907 0.74323 0.37607 0.0
H1639 H 0.62987 0.74438 0.38484 0.0
C1640 C 0.61976 0.73023 0.36363 0.0
H1641 H 0.57931 0.75956 0.36653 0.0
C1642 C 0.60577 0.7274 0.35269 0.0
H1643 H 0.60645 0.71686 0.34353 0.0
H1644 H 0.63104 0.72202 0.36275 0.0
H1645 H 0.98151 0.8306 0.14151 0.0
C1646 C 0.97205 0.84053 0.14429 0.0
C1647 C 0.95845 0.83674 0.15564 0.0
C1648 C 0.97405 0.8572 0.13729 0.0
H1649 H 0.93556 0.84661 0.16791 0.0
C1650 C 0.94644 0.84964 0.15969 0.0
C1651 C 0.94877 0.8666 0.1538 0.0
C1652 C 0.96239 0.87023 0.14235 0.0
C1653 C 0.98875 0.86103 0.12538 0.0
H1654 H 0.9638 0.88323 0.13741 0.0
C1655 C 0.995 0.84829 0.11396 0.0
C1656 C 0.00934 0.85148 0.10328 0.0
C1657 C 0.99696 0.87725 0.12562 0.0
H1658 H 0.9929 0.88726 0.13447 0.0
C1659 C 0.01089 0.88064 0.11469 0.0
H1660 H 0.98871 0.83583 0.11334 0.0
C1661 C 0.01709 0.86786 0.1036 0.0
H1662 H 0.02813 0.87074 0.09551 0.0
H1663 H 0.01709 0.89315 0.11502 0.0
H1664 H 0.60519 0.91868 0.77056 0.0
C1665 C 0.60233 0.9087 0.77995 0.0
C1666 C 0.5905 0.91228 0.79316 0.0
C1667 C 0.60983 0.89223 0.77826 0.0
H1668 H 0.57785 0.90223 0.81577 0.0
C1669 C 0.5864 0.89933 0.80511 0.0
C1670 C 0.59275 0.8825 0.80302 0.0
C1671 C 0.60466 0.87907 0.78973 0.0
C1672 C 0.62256 0.88886 0.76416 0.0
H1673 H 0.60995 0.86618 0.7885 0.0
C1674 C 0.63386 0.90202 0.75863 0.0
C1675 C 0.64515 0.89947 0.74464 0.0
C1676 C 0.62319 0.87277 0.75573 0.0
H1677 H 0.61452 0.86242 0.75931 0.0
C1678 C 0.63476 0.86999 0.74217 0.0
H1679 H 0.63384 0.91437 0.76518 0.0
C1680 C 0.64563 0.88323 0.73658 0.0
H1681 H 0.65421 0.88083 0.7258 0.0
H1682 H 0.63509 0.85758 0.73576 0.0
H1683 H 0.82748 0.86083 0.5128 0.0
C1684 C 0.83901 0.85537 0.51846 0.0
C1685 C 0.83729 0.84169 0.53032 0.0
C1686 C 0.85536 0.86171 0.51361 0.0
H1687 H 0.85118 0.82217 0.54458 0.0
C1688 C 0.85225 0.83349 0.5365 0.0
C1689 C 0.8687 0.83963 0.5319 0.0
C1690 C 0.87008 0.85407 0.52103 0.0
C1691 C 0.8571 0.87568 0.50028 0.0
H1692 H 0.88279 0.85903 0.51801 0.0
C1693 C 0.84387 0.88798 0.49763 0.0
C1694 C 0.84506 0.90031 0.48432 0.0
C1695 C 0.87178 0.87639 0.4895 0.0
H1696 H 0.88201 0.86693 0.49046 0.0
C1697 C 0.87333 0.88909 0.47682 0.0
H1698 H 0.83255 0.88799 0.50581 0.0
C1699 C 0.86007 0.90096 0.47419 0.0
H1700 H 0.86139 0.91032 0.46388 0.0
H1701 H 0.8847 0.88946 0.46869 0.0
H1702 H 0.89252 0.07731 0.26353 0.0
C1703 C 0.89723 0.08908 0.26936 0.0
C1704 C 0.91123 0.08808 0.28088 0.0
C1705 C 0.88956 0.105 0.26508 0.0
H1706 H 0.92986 0.10297 0.29525 0.0
C1707 C 0.91839 0.10344 0.28733 0.0
C1708 C 0.911 0.11952 0.2832 0.0
C1709 C 0.8963 0.1201 0.27259 0.0
C1710 C 0.87506 0.1059 0.25228 0.0
H1711 H 0.89037 0.13246 0.2699 0.0
C1712 C 0.86368 0.09185 0.24999 0.0
C1713 C 0.85098 0.0921 0.23701 0.0
C1714 C 0.87296 0.12052 0.24162 0.0
H1715 H 0.88165 0.13141 0.24241 0.0
C1716 C 0.85985 0.12113 0.22929 0.0
H1717 H 0.86471 0.08057 0.25817 0.0
C1718 C 0.84896 0.10702 0.22691 0.0
H1719 H 0.83927 0.10764 0.21685 0.0
H1720 H 0.85841 0.13246 0.22121 0.0
H1721 H 0.67364 0.13793 0.01731 0.0
C1722 C 0.66197 0.14297 0.02308 0.0
C1723 C 0.66336 0.15655 0.03507 0.0
C1724 C 0.64581 0.1362 0.01824 0.0
H1725 H 0.64896 0.17554 0.04953 0.0
C1726 C 0.64819 0.16427 0.04137 0.0
C1727 C 0.6319 0.15772 0.03678 0.0
C1728 C 0.63089 0.14335 0.02578 0.0
C1729 C 0.64445 0.12232 0.00479 0.0
H1730 H 0.61833 0.13806 0.02278 0.0
C1731 C 0.65813 0.11059 0.00186 0.0
C1732 C 0.65739 0.09849 0.98833 0.0
C1733 C 0.62973 0.12118 0.99412 0.0
H1734 H 0.61913 0.1302 0.9953 0.0
C1735 C 0.62861 0.10863 0.98126 0.0
H1736 H 0.6695 0.11087 0.00995 0.0
C1737 C 0.64234 0.09738 0.97831 0.0
H1738 H 0.64135 0.08817 0.96784 0.0
H1739 H 0.61721 0.10793 0.97322 0.0
H1740 H 0.61208 0.07736 0.73469 0.0
C1741 C 0.60732 0.08901 0.72864 0.0
C1742 C 0.5934 0.08773 0.71705 0.0
C1743 C 0.6148 0.10505 0.73276 0.0
H1744 H 0.57462 0.10232 0.7025 0.0
C1745 C 0.5861 0.10296 0.71039 0.0
C1746 C 0.59333 0.11914 0.7143 0.0
C1747 C 0.60798 0.11998 0.72494 0.0
C1748 C 0.6291 0.10627 0.74577 0.0
H1749 H 0.61378 0.13243 0.72744 0.0
C1750 C 0.64041 0.09225 0.74871 0.0
C1751 C 0.65282 0.09281 0.76197 0.0
C1752 C 0.63103 0.12117 0.75606 0.0
H1753 H 0.62238 0.13206 0.75482 0.0
C1754 C 0.6439 0.12209 0.76862 0.0
H1755 H 0.63954 0.08075 0.74085 0.0
C1756 C 0.65469 0.108 0.77165 0.0
H1757 H 0.66415 0.10886 0.7819 0.0
H1758 H 0.6452 0.13362 0.77639 0.0
H1759 H 0.6722 0.85785 0.48345 0.0
C1760 C 0.6617 0.85542 0.47454 0.0
C1761 C 0.66467 0.84477 0.46023 0.0
C1762 C 0.64519 0.86228 0.47787 0.0
H1763 H 0.65349 0.83371 0.43736 0.0
C1764 C 0.65108 0.84128 0.44885 0.0
C1765 C 0.63427 0.84695 0.45251 0.0
C1766 C 0.63143 0.85764 0.46691 0.0
C1767 C 0.64246 0.87382 0.49306 0.0
H1768 H 0.61853 0.86244 0.46941 0.0
C1769 C 0.6556 0.88523 0.49838 0.0
C1770 C 0.65362 0.89556 0.51317 0.0
C1771 C 0.62702 0.87326 0.50263 0.0
H1772 H 0.61674 0.86444 0.49922 0.0
C1773 C 0.6248 0.88383 0.51708 0.0
H1774 H 0.66743 0.88611 0.49099 0.0
C1775 C 0.63801 0.89489 0.52237 0.0
H1776 H 0.63607 0.9027 0.5338 0.0
H1777 H 0.61289 0.88324 0.52437 0.0
H1778 H 0.89249 0.92399 0.23542 0.0
C1779 C 0.89725 0.91221 0.22963 0.0
C1780 C 0.91123 0.91321 0.2181 0.0
C1781 C 0.88963 0.89629 0.23396 0.0
H1782 H 0.92994 0.89835 0.20375 0.0
C1783 C 0.91848 0.89786 0.2117 0.0
C1784 C 0.91119 0.88176 0.21592 0.0
C1785 C 0.89649 0.88117 0.22655 0.0
C1786 C 0.87506 0.89546 0.24671 0.0
H1787 H 0.89063 0.8688 0.22931 0.0
C1788 C 0.86369 0.90956 0.24889 0.0
C1789 C 0.85101 0.90949 0.2619 0.0
C1790 C 0.87289 0.88091 0.25744 0.0
H1791 H 0.88154 0.86997 0.25671 0.0
C1792 C 0.85976 0.88045 0.26979 0.0
H1793 H 0.86474 0.92077 0.24062 0.0
C1794 C 0.84894 0.89465 0.2721 0.0
H1795 H 0.83925 0.89416 0.28218 0.0
H1796 H 0.85828 0.86918 0.27793 0.0
H1797 H 0.82974 0.14489 0.98259 0.0
C1798 C 0.83982 0.14773 0.97331 0.0
C1799 C 0.83626 0.15924 0.95978 0.0
C1800 C 0.8564 0.14058 0.97543 0.0
H1801 H 0.84648 0.1716 0.9371 0.0
C1802 C 0.84934 0.16331 0.94797 0.0
C1803 C 0.86623 0.15729 0.95046 0.0
C1804 C 0.86963 0.14571 0.96403 0.0
C1805 C 0.85986 0.12832 0.98993 0.0
H1806 H 0.88258 0.14067 0.96558 0.0
C1807 C 0.84691 0.11686 0.99563 0.0
C1808 C 0.84967 0.10588 0.00983 0.0
C1809 C 0.87589 0.12826 0.9985 0.0
H1810 H 0.88606 0.13709 0.99483 0.0
C1811 C 0.87886 0.11703 0.01229 0.0
H1812 H 0.8346 0.11646 0.98901 0.0
C1813 C 0.86586 0.10593 0.01798 0.0
H1814 H 0.86841 0.0976 0.02892 0.0
H1815 H 0.89123 0.11713 0.01879 0.0
H1816 H 0.76773 0.60477 0.91831 0.0
C1817 C 0.77725 0.60196 0.90845 0.0
C1818 C 0.7904 0.59008 0.91212 0.0
C1819 C 0.77581 0.60961 0.89202 0.0
H1820 H 0.81314 0.5775 0.90229 0.0
C1821 C 0.80252 0.58607 0.89931 0.0
C1822 C 0.80066 0.59255 0.88249 0.0
C1823 C 0.78744 0.6045 0.87897 0.0
C1824 C 0.76178 0.6224 0.88857 0.0
H1825 H 0.78638 0.60988 0.86611 0.0
C1826 C 0.75612 0.63361 0.90176 0.0
C1827 C 0.74217 0.64493 0.89914 0.0
C1828 C 0.75354 0.62317 0.8724 0.0
H1829 H 0.75723 0.61457 0.86202 0.0
C1830 C 0.74002 0.63477 0.86955 0.0
H1831 H 0.76253 0.63349 0.91418 0.0
C1832 C 0.73429 0.64554 0.88283 0.0
H1833 H 0.72354 0.65415 0.88037 0.0
H1834 H 0.73375 0.6352 0.85707 0.0
H1835 H 0.26397 0.89308 0.07503 0.0
C1836 C 0.26942 0.89793 0.08693 0.0
C1837 C 0.28064 0.91217 0.08616 0.0
C1838 C 0.26495 0.89019 0.10277 0.0
H1839 H 0.29422 0.93118 0.1013 0.0
C1840 C 0.28655 0.91953 0.10163 0.0
C1841 C 0.28219 0.91211 0.11763 0.0
C1842 C 0.27194 0.89716 0.11802 0.0
C1843 C 0.25248 0.87539 0.10341 0.0
H1844 H 0.26911 0.89121 0.13034 0.0
C1845 C 0.25067 0.86404 0.08926 0.0
C1846 C 0.23791 0.85112 0.08918 0.0
C1847 C 0.24163 0.87296 0.11784 0.0
H1848 H 0.24204 0.88159 0.1288 0.0
C1849 C 0.22956 0.8596 0.11815 0.0
H1850 H 0.25902 0.86529 0.07813 0.0
C1851 C 0.22761 0.84879 0.10391 0.0
H1852 H 0.21772 0.83892 0.10427 0.0
H1853 H 0.22133 0.85792 0.12933 0.0
H1854 H 0.86099 0.51299 0.82694 0.0
C1855 C 0.85552 0.51866 0.83846 0.0
C1856 C 0.84133 0.52989 0.83674 0.0
C1857 C 0.86237 0.51443 0.85478 0.0
H1858 H 0.82143 0.54357 0.85066 0.0
C1859 C 0.83311 0.53601 0.85171 0.0
C1860 C 0.8397 0.532 0.86814 0.0
C1861 C 0.85464 0.52182 0.86949 0.0
C1862 C 0.87694 0.50175 0.85653 0.0
H1863 H 0.85994 0.5193 0.88217 0.0
C1864 C 0.88894 0.49918 0.84302 0.0
C1865 C 0.90172 0.4863 0.84413 0.0
C1866 C 0.8785 0.49142 0.87147 0.0
H1867 H 0.86933 0.49232 0.88197 0.0
C1868 C 0.8917 0.47925 0.87296 0.0
H1869 H 0.88833 0.50703 0.83148 0.0
C1870 C 0.90321 0.47663 0.85939 0.0
H1871 H 0.91294 0.46666 0.86067 0.0
H1872 H 0.89272 0.47147 0.88453 0.0
H1873 H 0.23398 0.11196 0.57745 0.0
C1874 C 0.228 0.10711 0.5891 0.0
C1875 C 0.21642 0.09319 0.58778 0.0
C1876 C 0.2322 0.11448 0.60518 0.0
H1877 H 0.202 0.07427 0.6023 0.0
C1878 C 0.20987 0.08576 0.60299 0.0
C1879 C 0.21386 0.09287 0.61921 0.0
C1880 C 0.22447 0.10754 0.6201 0.0
C1881 C 0.24521 0.12878 0.60645 0.0
H1882 H 0.22702 0.11326 0.63258 0.0
C1883 C 0.24812 0.14016 0.59249 0.0
C1884 C 0.26141 0.15253 0.59306 0.0
C1885 C 0.25554 0.13062 0.62134 0.0
H1886 H 0.25434 0.12192 0.63219 0.0
C1887 C 0.26812 0.14347 0.62229 0.0
H1888 H 0.24023 0.13935 0.581 0.0
C1889 C 0.27113 0.15431 0.60824 0.0
H1890 H 0.2814 0.16375 0.60911 0.0
H1891 H 0.27592 0.14471 0.63381 0.0
H1892 H 0.14186 0.98177 0.83 0.0
C1893 C 0.14488 0.97235 0.8399 0.0
C1894 C 0.15645 0.95897 0.83599 0.0
C1895 C 0.13795 0.97419 0.85661 0.0
H1896 H 0.16922 0.93629 0.84574 0.0
C1897 C 0.16082 0.94701 0.84885 0.0
C1898 C 0.15499 0.94921 0.86585 0.0
C1899 C 0.14331 0.96259 0.86958 0.0
C1900 C 0.12578 0.98865 0.86055 0.0
H1901 H 0.13843 0.96388 0.88262 0.0
C1902 C 0.11422 0.99477 0.84787 0.0
C1903 C 0.10333 0.00894 0.85114 0.0
C1904 C 0.12593 0.9968 0.8768 0.0
H1905 H 0.13488 0.99286 0.88678 0.0
C1906 C 0.11478 0.01054 0.88028 0.0
H1907 H 0.11366 0.98851 0.83539 0.0
C1908 C 0.10357 0.01663 0.86756 0.0
H1909 H 0.09533 0.02753 0.8705 0.0
H1910 H 0.11505 0.0167 0.89282 0.0
H1911 H 0.73774 0.39396 0.42302 0.0
C1912 C 0.73196 0.39884 0.41128 0.0
C1913 C 0.72066 0.413 0.41239 0.0
C1914 C 0.73605 0.39119 0.39531 0.0
H1915 H 0.70645 0.43194 0.39773 0.0
C1916 C 0.71425 0.42037 0.39712 0.0
C1917 C 0.71828 0.4131 0.38097 0.0
C1918 C 0.72868 0.39824 0.38025 0.0
C1919 C 0.74848 0.37636 0.39437 0.0
H1920 H 0.73128 0.39238 0.36784 0.0
C1921 C 0.75046 0.36489 0.40842 0.0
C1922 C 0.76321 0.35194 0.40825 0.0
C1923 C 0.75912 0.37402 0.37978 0.0
H1924 H 0.75852 0.38273 0.36887 0.0
C1925 C 0.77119 0.36064 0.37922 0.0
H1926 H 0.74225 0.36608 0.41965 0.0
C1927 C 0.77332 0.34972 0.39337 0.0
H1928 H 0.7832 0.33983 0.39281 0.0
H1929 H 0.77926 0.35903 0.36792 0.0
H1930 H 0.85715 0.4799 0.6719 0.0
C1931 C 0.85439 0.4708 0.66165 0.0
C1932 C 0.84279 0.4573 0.66488 0.0
C1933 C 0.86174 0.47315 0.64519 0.0
H1934 H 0.83036 0.4349 0.65418 0.0
C1935 C 0.83877 0.44574 0.65158 0.0
C1936 C 0.84499 0.44846 0.63479 0.0
C1937 C 0.8567 0.46199 0.63173 0.0
C1938 C 0.87408 0.48764 0.64208 0.0
H1939 H 0.86189 0.4637 0.61886 0.0
C1940 C 0.88532 0.49315 0.65529 0.0
C1941 C 0.8963 0.50741 0.65291 0.0
C1942 C 0.87441 0.49642 0.62616 0.0
H1943 H 0.86575 0.49291 0.61579 0.0
C1944 C 0.88567 0.51026 0.62355 0.0
H1945 H 0.88553 0.48636 0.66751 0.0
C1946 C 0.89651 0.51578 0.63683 0.0
H1947 H 0.90484 0.52678 0.63457 0.0
H1948 H 0.88577 0.51693 0.61127 0.0
H1949 H 0.64026 0.52238 0.17001 0.0
C1950 C 0.64307 0.53175 0.16001 0.0
C1951 C 0.65458 0.54521 0.16369 0.0
C1952 C 0.63593 0.52977 0.14341 0.0
H1953 H 0.66716 0.56783 0.15362 0.0
C1954 C 0.65876 0.55707 0.15069 0.0
C1955 C 0.65277 0.55472 0.13376 0.0
C1956 C 0.64112 0.54126 0.13027 0.0
C1957 C 0.62373 0.51526 0.13982 0.0
H1958 H 0.6361 0.53986 0.1173 0.0
C1959 C 0.61256 0.50916 0.15286 0.0
C1960 C 0.60188 0.49476 0.1501 0.0
C1961 C 0.62354 0.50697 0.12365 0.0
H1962 H 0.63215 0.51092 0.11338 0.0
C1963 C 0.6125 0.49304 0.12064 0.0
H1964 H 0.61222 0.51555 0.16528 0.0
C1965 C 0.60179 0.48689 0.13377 0.0
H1966 H 0.59367 0.47581 0.13121 0.0
H1967 H 0.61251 0.48676 0.10816 0.0
H1968 H 0.56701 0.71893 0.88422 0.0
C1969 C 0.57989 0.71781 0.88953 0.0
C1970 C 0.5822 0.70954 0.90558 0.0
C1971 C 0.59408 0.72413 0.88005 0.0
H1972 H 0.60105 0.70214 0.92462 0.0
C1973 C 0.59901 0.70766 0.91205 0.0
C1974 C 0.6134 0.71314 0.90249 0.0
C1975 C 0.6108 0.72177 0.88678 0.0
C1976 C 0.59157 0.73262 0.86288 0.0
H1977 H 0.62189 0.72653 0.87972 0.0
C1978 C 0.57692 0.74297 0.85951 0.0
C1979 C 0.57455 0.75077 0.84323 0.0
C1980 C 0.60379 0.73028 0.84961 0.0
H1981 H 0.61494 0.72203 0.85142 0.0
C1982 C 0.60168 0.73829 0.83363 0.0
H1983 H 0.56741 0.74505 0.86955 0.0
C1984 C 0.5872 0.74849 0.83043 0.0
H1985 H 0.58576 0.7543 0.81779 0.0
H1986 H 0.6112 0.73639 0.82358 0.0
H1987 H 0.53653 0.3161 0.13154 0.0
C1988 C 0.53781 0.32912 0.13649 0.0
C1989 C 0.54499 0.33177 0.15299 0.0
C1990 C 0.53272 0.34316 0.12612 0.0
H1991 H 0.5512 0.35104 0.17202 0.0
C1992 C 0.54675 0.34874 0.15907 0.0
C1993 C 0.54242 0.36294 0.14865 0.0
C1994 C 0.53514 0.36003 0.13235 0.0
C1995 C 0.52517 0.34032 0.10866 0.0
H1996 H 0.53134 0.37095 0.12446 0.0
C1997 C 0.51331 0.32685 0.10573 0.0
C1998 C 0.50577 0.32451 0.08935 0.0
C1999 C 0.52958 0.35127 0.09484 0.0
H2000 H 0.53894 0.36152 0.09651 0.0
C2001 C 0.5221 0.34904 0.07862 0.0
H2002 H 0.50964 0.31842 0.11628 0.0
C2003 C 0.51021 0.33582 0.07587 0.0
H2004 H 0.50466 0.33433 0.06313 0.0
H2005 H 0.52558 0.35757 0.06811 0.0
H2006 H 0.92903 0.28281 0.38883 0.0
C2007 C 0.91624 0.28401 0.39436 0.0
C2008 C 0.9144 0.2901 0.41139 0.0
C2009 C 0.90171 0.28002 0.3842 0.0
H2010 H 0.89604 0.29582 0.43147 0.0
C2011 C 0.89773 0.29205 0.41821 0.0
C2012 C 0.88305 0.2889 0.40806 0.0
C2013 C 0.88515 0.28251 0.39124 0.0
C2014 C 0.90377 0.27368 0.36611 0.0
H2015 H 0.87383 0.27956 0.3836 0.0
C2016 C 0.91736 0.26241 0.36166 0.0
C2017 C 0.91916 0.25625 0.34466 0.0
C2018 C 0.89208 0.27881 0.35316 0.0
H2019 H 0.88175 0.28781 0.35593 0.0
C2020 C 0.89371 0.27256 0.33635 0.0
H2021 H 0.92638 0.25816 0.37147 0.0
C2022 C 0.9071 0.26129 0.3321 0.0
H2023 H 0.90817 0.25677 0.31891 0.0
H2024 H 0.88461 0.27658 0.32653 0.0
H2025 H 0.96719 0.68167 0.63339 0.0
C2026 C 0.966 0.66889 0.63894 0.0
C2027 C 0.95751 0.66682 0.65493 0.0
C2028 C 0.97249 0.65453 0.62981 0.0
H2029 H 0.95 0.64825 0.67419 0.0
C2030 C 0.95568 0.65011 0.66168 0.0
C2031 C 0.96139 0.63558 0.6525 0.0
C2032 C 0.97016 0.63793 0.63684 0.0
C2033 C 0.98111 0.65668 0.61268 0.0
H2034 H 0.97505 0.62673 0.63003 0.0
C2035 C 0.99186 0.67098 0.6092 0.0
C2036 C 1.00001 0.67282 0.59301 0.0
C2037 C 0.97858 0.64433 0.59958 0.0
H2038 H 0.97003 0.63344 0.6015 0.0
C2039 C 0.98683 0.64596 0.58367 0.0
H2040 H 0.99403 0.6806 0.61911 0.0
C2041 C 0.99752 0.66005 0.58039 0.0
H2042 H 0.00356 0.66108 0.56782 0.0
H2043 H 0.98479 0.63633 0.57375 0.0
H2044 H 0.57272 0.28769 0.6136 0.0
C2045 C 0.58542 0.28919 0.60795 0.0
C2046 C 0.58711 0.29683 0.59151 0.0
C2047 C 0.60004 0.28387 0.61739 0.0
H2048 H 0.60536 0.30404 0.57186 0.0
C2049 C 0.60373 0.29897 0.58463 0.0
C2050 C 0.61849 0.29439 0.59408 0.0
C2051 C 0.61653 0.28655 0.61028 0.0
C2052 C 0.59817 0.27585 0.6348 0.0
H2053 H 0.6279 0.28255 0.61738 0.0
C2054 C 0.58467 0.26416 0.63833 0.0
C2055 C 0.58312 0.25637 0.6547 0.0
C2056 C 0.61001 0.27975 0.64802 0.0
H2057 H 0.62031 0.28897 0.64595 0.0
C2058 C 0.6086 0.27195 0.66419 0.0
H2059 H 0.57554 0.26089 0.62826 0.0
C2060 C 0.59531 0.26029 0.66753 0.0
H2061 H 0.59445 0.25453 0.68025 0.0
H2062 H 0.61781 0.27504 0.67423 0.0
H2063 H 0.97494 0.31791 0.86653 0.0
C2064 C 0.97397 0.33059 0.86071 0.0
C2065 C 0.96711 0.33214 0.84395 0.0
C2066 C 0.97898 0.34526 0.87022 0.0
H2067 H 0.96081 0.3501 0.82365 0.0
C2068 C 0.96526 0.34867 0.83674 0.0
C2069 C 0.96941 0.36352 0.84625 0.0
C2070 C 0.97673 0.36168 0.86272 0.0
C2071 C 0.98596 0.34354 0.88815 0.0
H2072 H 0.98051 0.37313 0.86976 0.0
C2073 C 0.99611 0.32918 0.893 0.0
C2074 C 0.00253 0.32757 0.90994 0.0
C2075 C 0.98235 0.35624 0.90067 0.0
H2076 H 0.97415 0.36718 0.89775 0.0
C2077 C 0.98902 0.35488 0.91734 0.0
H2078 H 0.99919 0.31931 0.88359 0.0
C2079 C 0.99908 0.34069 0.92197 0.0
H2080 H 0.00382 0.33982 0.93509 0.0
H2081 H 0.98617 0.36477 0.92679 0.0
H2082 H 0.93154 0.71368 0.11625 0.0
C2083 C 0.91874 0.71252 0.11074 0.0
C2084 C 0.91675 0.7053 0.09417 0.0
C2085 C 0.90432 0.71784 0.12046 0.0
H2086 H 0.89823 0.69915 0.0744 0.0
C2087 C 0.90003 0.70366 0.08738 0.0
C2088 C 0.88544 0.70816 0.09715 0.0
C2089 C 0.8877 0.71554 0.11352 0.0
C2090 C 0.90652 0.72556 0.13795 0.0
H2091 H 0.87649 0.71951 0.12088 0.0
C2092 C 0.92019 0.73706 0.14139 0.0
C2093 C 0.92205 0.74464 0.1578 0.0
C2094 C 0.89484 0.7216 0.15131 0.0
H2095 H 0.88442 0.71252 0.14928 0.0
C2096 C 0.89657 0.72918 0.16755 0.0
H2097 H 0.92918 0.74039 0.1312 0.0
C2098 C 0.91003 0.74068 0.1708 0.0
H2099 H 0.91114 0.74628 0.18356 0.0
H2100 H 0.88749 0.72605 0.1777 0.0
H2101 H 0.52501 0.6827 0.36921 0.0
C2102 C 0.5261 0.66988 0.36375 0.0
C2103 C 0.53369 0.66789 0.34735 0.0
C2104 C 0.52049 0.65548 0.37335 0.0
H2105 H 0.54081 0.64945 0.32778 0.0
C2106 C 0.53574 0.65119 0.34062 0.0
C2107 C 0.53095 0.6366 0.35026 0.0
C2108 C 0.5229 0.63888 0.36634 0.0
C2109 C 0.5127 0.65769 0.39091 0.0
H2110 H 0.51864 0.62762 0.37346 0.0
C2111 C 0.50264 0.67235 0.39497 0.0
C2112 C 0.49562 0.67455 0.41161 0.0
C2113 C 0.5155 0.64522 0.40387 0.0
H2114 H 0.52358 0.63405 0.40157 0.0
C2115 C 0.50817 0.64714 0.42021 0.0
H2116 H 0.50016 0.68204 0.3852 0.0
C2117 C 0.49828 0.66166 0.42409 0.0
H2118 H 0.49304 0.66297 0.43699 0.0
H2119 H 0.5104 0.63743 0.43002 0.0
H2120 H 0.88331 0.56662 0.71927 0.0
C2121 C 0.88866 0.57949 0.71814 0.0
C2122 C 0.90478 0.58173 0.70999 0.0
C2123 C 0.87916 0.59373 0.72433 0.0
H2124 H 0.92393 0.60049 0.70267 0.0
C2125 C 0.91131 0.59851 0.7081 0.0
C2126 C 0.90174 0.61295 0.71344 0.0
C2127 C 0.88595 0.61043 0.72195 0.0
C2128 C 0.86192 0.5913 0.73269 0.0
H2129 H 0.87887 0.62155 0.72661 0.0
C2130 C 0.85842 0.57671 0.74306 0.0
C2131 C 0.84208 0.57441 0.75075 0.0
C2132 C 0.8487 0.60355 0.73018 0.0
H2133 H 0.85059 0.61465 0.72191 0.0
C2134 C 0.83264 0.60151 0.73808 0.0
H2135 H 0.86842 0.56718 0.74526 0.0
C2136 C 0.82933 0.58709 0.74831 0.0
H2137 H 0.81664 0.58571 0.75403 0.0
H2138 H 0.82263 0.61106 0.73606 0.0
H2139 H 0.68262 0.63303 0.96738 0.0
C2140 C 0.66982 0.63856 0.96628 0.0
C2141 C 0.66767 0.65459 0.95788 0.0
C2142 C 0.65552 0.62937 0.97278 0.0
H2143 H 0.64902 0.67384 0.95054 0.0
C2144 C 0.65094 0.66131 0.95616 0.0
C2145 C 0.63646 0.65207 0.96188 0.0
C2146 C 0.63888 0.63636 0.97056 0.0
C2147 C 0.65776 0.6122 0.9813 0.0
H2148 H 0.62773 0.6295 0.97546 0.0
C2149 C 0.67213 0.6087 0.99197 0.0
C2150 C 0.67406 0.59248 1.00001 0.0
C2151 C 0.64543 0.59908 0.97876 0.0
H2152 H 0.6345 0.60101 0.97028 0.0
C2153 C 0.64716 0.58313 0.98691 0.0
H2154 H 0.68172 0.61863 0.99415 0.0
C2155 C 0.66131 0.57983 0.99751 0.0
H2156 H 0.66242 0.56722 0.00347 0.0
H2157 H 0.63755 0.57319 0.98486 0.0
H2158 H 0.61859 0.43421 0.21301 0.0
C2159 C 0.61359 0.42121 0.21183 0.0
C2160 C 0.59705 0.41859 0.20476 0.0
C2161 C 0.62396 0.40716 0.2169 0.0
H2162 H 0.57792 0.39936 0.19873 0.0
C2163 C 0.59089 0.40163 0.2031 0.0
C2164 C 0.6013 0.38741 0.20742 0.0
C2165 C 0.61766 0.3903 0.21459 0.0
C2166 C 0.64147 0.40998 0.22434 0.0
H2167 H 0.62553 0.37937 0.21838 0.0
C2168 C 0.64451 0.42353 0.23608 0.0
C2169 C 0.66095 0.42587 0.24349 0.0
C2170 C 0.65523 0.39895 0.21991 0.0
H2171 H 0.65347 0.38864 0.21064 0.0
C2172 C 0.6715 0.40119 0.22728 0.0
H2173 H 0.63401 0.43201 0.23976 0.0
C2174 C 0.67436 0.41449 0.23906 0.0
H2175 H 0.68714 0.41598 0.24451 0.0
H2176 H 0.68197 0.3926 0.22379 0.0
H2177 H 0.81702 0.36689 0.47474 0.0
C2178 C 0.82971 0.36107 0.47389 0.0
C2179 C 0.83133 0.34431 0.46703 0.0
C2180 C 0.84433 0.37058 0.47903 0.0
H2181 H 0.84935 0.32401 0.46092 0.0
C2182 C 0.84787 0.33711 0.46534 0.0
C2183 C 0.86268 0.34662 0.46962 0.0
C2184 C 0.86078 0.36308 0.47692 0.0
C2185 C 0.84255 0.38851 0.48599 0.0
H2186 H 0.8722 0.37013 0.4808 0.0
C2187 C 0.82812 0.39335 0.49604 0.0
C2188 C 0.82645 0.41029 0.50245 0.0
C2189 C 0.85526 0.40104 0.48246 0.0
H2190 H 0.86625 0.39812 0.47433 0.0
C2191 C 0.85384 0.41771 0.48911 0.0
H2192 H 0.81825 0.38393 0.49906 0.0
C2193 C 0.83958 0.42232 0.49908 0.0
H2194 H 0.83867 0.43545 0.50382 0.0
H2195 H 0.86373 0.42717 0.48633 0.0
H2196 H 0.88799 0.42924 0.78262 0.0
C2197 C 0.89358 0.41648 0.78385 0.0
C2198 C 0.91064 0.41474 0.78988 0.0
C2199 C 0.88348 0.40189 0.77995 0.0
H2200 H 0.93084 0.39649 0.79558 0.0
C2201 C 0.91755 0.39811 0.79186 0.0
C2202 C 0.90746 0.38337 0.78881 0.0
C2203 C 0.89061 0.38537 0.78247 0.0
C2204 C 0.86537 0.40384 0.77364 0.0
H2205 H 0.88301 0.374 0.77959 0.0
C2206 C 0.86082 0.41738 0.76235 0.0
C2207 C 0.8438 0.41907 0.7562 0.0
C2208 C 0.85249 0.3921 0.77883 0.0
H2209 H 0.85532 0.38181 0.78785 0.0
C2210 C 0.83565 0.39363 0.7726 0.0
H2211 H 0.87057 0.42643 0.75805 0.0
C2212 C 0.83132 0.40696 0.7613 0.0
H2213 H 0.81812 0.40794 0.75679 0.0
H2214 H 0.82589 0.38449 0.77666 0.0
H2215 H 0.81624 0.63312 0.03084 0.0
C2216 C 0.82926 0.63806 0.03211 0.0
C2217 C 0.8318 0.655 0.03816 0.0
C2218 C 0.84337 0.62725 0.02829 0.0
H2219 H 0.85093 0.67433 0.04393 0.0
C2220 C 0.84874 0.66111 0.04017 0.0
C2221 C 0.86299 0.65033 0.03707 0.0
C2222 C 0.8602 0.63357 0.0308 0.0
C2223 C 0.84062 0.60924 0.02208 0.0
H2224 H 0.87118 0.6254 0.02793 0.0
C2225 C 0.82711 0.60533 0.01054 0.0
C2226 C 0.82476 0.5884 0.00438 0.0
C2227 C 0.8516 0.59581 0.02755 0.0
H2228 H 0.86184 0.59819 0.03676 0.0
C2229 C 0.8494 0.57905 0.02136 0.0
H2230 H 0.81865 0.61552 0.00604 0.0
C2231 C 0.83614 0.57534 0.00978 0.0
H2232 H 0.83463 0.5622 0.00526 0.0
H2233 H 0.85796 0.56885 0.02564 0.0
H2234 H 0.61408 0.5694 0.28809 0.0
C2235 C 0.60862 0.58219 0.28966 0.0
C2236 C 0.59208 0.58407 0.29705 0.0
C2237 C 0.61839 0.5967 0.28471 0.0
H2238 H 0.57253 0.60255 0.30401 0.0
C2239 C 0.58541 0.60077 0.29923 0.0
C2240 C 0.59519 0.61543 0.29503 0.0
C2241 C 0.61151 0.61328 0.28748 0.0
C2242 C 0.63591 0.59465 0.277 0.0
H2243 H 0.61889 0.62456 0.28378 0.0
C2244 C 0.63939 0.5814 0.26501 0.0
C2245 C 0.65585 0.57979 0.25742 0.0
C2246 C 0.64928 0.60612 0.28146 0.0
H2247 H 0.64722 0.6162 0.29093 0.0
C2248 C 0.66556 0.60461 0.27391 0.0
H2249 H 0.62921 0.57256 0.26132 0.0
C2250 C 0.66884 0.59161 0.26191 0.0
H2251 H 0.68163 0.59068 0.25633 0.0
H2252 H 0.67571 0.61353 0.27744 0.0
H2253 H 0.68527 0.36874 0.52426 0.0
C2254 C 0.67243 0.36332 0.5253 0.0
C2255 C 0.67042 0.34665 0.53227 0.0
C2256 C 0.65801 0.37325 0.52033 0.0
H2257 H 0.65198 0.32694 0.53895 0.0
C2258 C 0.65372 0.33994 0.53429 0.0
C2259 C 0.63912 0.34985 0.53007 0.0
C2260 C 0.6414 0.36622 0.52264 0.0
C2261 C 0.66018 0.39115 0.51338 0.0
H2262 H 0.63014 0.37358 0.51884 0.0
C2263 C 0.67467 0.39564 0.50326 0.0
C2264 C 0.67675 0.41257 0.49693 0.0
C2265 C 0.64783 0.40401 0.51704 0.0
H2266 H 0.63682 0.40136 0.52523 0.0
C2267 C 0.64965 0.42066 0.51044 0.0
H2268 H 0.68428 0.38597 0.50014 0.0
C2269 C 0.66396 0.42494 0.50042 0.0
H2270 H 0.66519 0.43807 0.49574 0.0
H2271 H 0.64002 0.43038 0.51333 0.0
H2272 H 0.72181 0.88487 0.57081 0.0
C2273 C 0.72084 0.89042 0.5836 0.0
C2274 C 0.7124 0.9064 0.5857 0.0
C2275 C 0.72749 0.8813 0.59788 0.0
H2276 H 0.70489 0.92567 0.60427 0.0
C2277 C 0.7106 0.91315 0.60241 0.0
C2278 C 0.71635 0.90394 0.61691 0.0
C2279 C 0.72524 0.88832 0.61451 0.0
C2280 C 0.73615 0.86417 0.59556 0.0
H2281 H 0.73023 0.88156 0.62568 0.0
C2282 C 0.74595 0.8605 0.58062 0.0
C2283 C 0.75369 0.84419 0.57828 0.0
C2284 C 0.73439 0.85117 0.60818 0.0
H2285 H 0.72655 0.85316 0.61958 0.0
C2286 C 0.74242 0.83519 0.60613 0.0
H2287 H 0.74762 0.87031 0.5708 0.0
C2288 C 0.75202 0.83168 0.59131 0.0
H2289 H 0.75781 0.81903 0.58992 0.0
H2290 H 0.74097 0.82536 0.61596 0.0
H2291 H 0.21382 0.61583 0.43039 0.0
C2292 C 0.21275 0.61026 0.41761 0.0
C2293 C 0.2055 0.59371 0.41565 0.0
C2294 C 0.21822 0.6199 0.40319 0.0
H2295 H 0.19939 0.57389 0.39717 0.0
C2296 C 0.20394 0.58686 0.39895 0.0
C2297 C 0.20857 0.59655 0.38434 0.0
C2298 C 0.21601 0.61289 0.38659 0.0
C2299 C 0.22599 0.63737 0.40539 0.0
H2300 H 0.22009 0.62017 0.37536 0.0
C2301 C 0.23729 0.64083 0.41922 0.0
C2302 C 0.24486 0.65724 0.42116 0.0
C2303 C 0.22227 0.65068 0.39358 0.0
H2304 H 0.21335 0.64864 0.38302 0.0
C2305 C 0.22986 0.66691 0.39537 0.0
H2306 H 0.24045 0.63068 0.42831 0.0
C2307 C 0.24113 0.67019 0.40901 0.0
H2308 H 0.24674 0.68294 0.41016 0.0
H2309 H 0.22692 0.67702 0.38618 0.0
H2310 H 0.63407 0.96767 0.68495 0.0
C2311 C 0.63977 0.96657 0.67223 0.0
C2312 C 0.65592 0.95836 0.67031 0.0
C2313 C 0.63067 0.97289 0.65778 0.0
H2314 H 0.67545 0.95113 0.65192 0.0
C2315 C 0.66287 0.95666 0.65367 0.0
C2316 C 0.65373 0.96222 0.63906 0.0
C2317 C 0.6379 0.97071 0.64125 0.0
C2318 C 0.61335 0.98118 0.65974 0.0
H2319 H 0.63111 0.97548 0.62999 0.0
C2320 C 0.60954 0.99195 0.67394 0.0
C2321 C 0.5932 0.99984 0.67554 0.0
C2322 C 0.60043 0.97833 0.64727 0.0
H2323 H 0.60262 0.96975 0.63646 0.0
C2324 C 0.58436 0.98632 0.64868 0.0
H2325 H 0.61932 0.99435 0.68364 0.0
C2326 C 0.58075 0.99705 0.66266 0.0
H2327 H 0.56807 0.00289 0.66351 0.0
H2328 H 0.57458 0.98404 0.63897 0.0
H2329 H 0.28334 0.38863 0.92866 0.0
C2330 C 0.2845 0.39426 0.91591 0.0
C2331 C 0.29088 0.41119 0.91417 0.0
C2332 C 0.28017 0.38431 0.90132 0.0
H2333 H 0.29674 0.43134 0.89592 0.0
C2334 C 0.29276 0.41814 0.89754 0.0
C2335 C 0.28927 0.40819 0.8828 0.0
C2336 C 0.2826 0.39148 0.88481 0.0
C2337 C 0.27353 0.36633 0.90327 0.0
H2338 H 0.27939 0.384 0.87345 0.0
C2339 C 0.26234 0.36193 0.91695 0.0
C2340 C 0.25591 0.34502 0.91866 0.0
C2341 C 0.2783 0.35341 0.8914 0.0
H2342 H 0.28723 0.35612 0.88099 0.0
C2343 C 0.27178 0.33669 0.89293 0.0
H2344 H 0.25837 0.37173 0.92611 0.0
C2345 C 0.2606 0.33251 0.90641 0.0
H2346 H 0.25586 0.31939 0.90739 0.0
H2347 H 0.27552 0.3269 0.88369 0.0
H2348 H 0.36923 0.52406 0.68553 0.0
C2349 C 0.36377 0.5251 0.67271 0.0
C2350 C 0.3471 0.53207 0.67073 0.0
C2351 C 0.37366 0.52012 0.65827 0.0
H2352 H 0.32733 0.53873 0.65233 0.0
C2353 C 0.34034 0.53406 0.65403 0.0
C2354 C 0.3502 0.5298 0.63942 0.0
C2355 C 0.36659 0.5224 0.64167 0.0
C2356 C 0.39157 0.51317 0.6604 0.0
H2357 H 0.37393 0.51858 0.63041 0.0
C2358 C 0.39608 0.50298 0.67484 0.0
C2359 C 0.41301 0.49661 0.67685 0.0
C2360 C 0.40441 0.51688 0.64804 0.0
H2361 H 0.40173 0.52512 0.63708 0.0
C2362 C 0.42106 0.51027 0.6498 0.0
H2363 H 0.38642 0.49983 0.68445 0.0
C2364 C 0.42536 0.50016 0.66406 0.0
H2365 H 0.43848 0.49546 0.66524 0.0
H2366 H 0.43076 0.51319 0.64017 0.0
H2367 H 0.7821 0.11444 0.07093 0.0
C2368 C 0.78341 0.10859 0.08357 0.0
C2369 C 0.792 0.09261 0.08515 0.0
C2370 C 0.77695 0.11733 0.09818 0.0
H2371 H 0.80005 0.07312 0.10324 0.0
C2372 C 0.79411 0.08552 0.10169 0.0
C2373 C 0.78843 0.09428 0.11648 0.0
C2374 C 0.77947 0.1099 0.1146 0.0
C2375 C 0.76814 0.13444 0.09646 0.0
H2376 H 0.77457 0.11635 0.126 0.0
C2377 C 0.75768 0.13829 0.08203 0.0
C2378 C 0.74956 0.15452 0.08043 0.0
C2379 C 0.77031 0.14717 0.10925 0.0
H2380 H 0.77863 0.14501 0.12026 0.0
C2381 C 0.762 0.16309 0.10789 0.0
H2382 H 0.75575 0.12868 0.07207 0.0
C2383 C 0.75167 0.16676 0.09363 0.0
H2384 H 0.74563 0.17935 0.0928 0.0
H2385 H 0.76376 0.17273 0.11785 0.0
H2386 H 0.63504 0.03074 0.8186 0.0
C2387 C 0.64046 0.03194 0.83143 0.0
C2388 C 0.65754 0.03782 0.83338 0.0
C2389 C 0.63012 0.02815 0.84591 0.0
H2390 H 0.67758 0.04325 0.85185 0.0
C2391 C 0.66426 0.0397 0.85009 0.0
C2392 C 0.65395 0.03671 0.86471 0.0
C2393 C 0.63705 0.0306 0.86251 0.0
C2394 C 0.61201 0.02198 0.84375 0.0
H2395 H 0.62926 0.02778 0.87377 0.0
C2396 C 0.60763 0.01052 0.83033 0.0
C2397 C 0.59061 0.00441 0.82851 0.0
C2398 C 0.59898 0.02741 0.85522 0.0
H2399 H 0.60172 0.03655 0.86542 0.0
C2400 C 0.58214 0.02126 0.85355 0.0
H2401 H 0.61751 0.00604 0.8215 0.0
C2402 C 0.57796 0.00976 0.84035 0.0
H2403 H 0.56476 0.00529 0.83926 0.0
H2404 H 0.57225 0.0255 0.86247 0.0
H2405 H 0.86657 0.97583 0.31604 0.0
C2406 C 0.86085 0.97489 0.32877 0.0
C2407 C 0.84407 0.9681 0.33047 0.0
C2408 C 0.87052 0.97986 0.34335 0.0
H2409 H 0.82394 0.96192 0.34864 0.0
C2410 C 0.83703 0.96629 0.34707 0.0
C2411 C 0.8467 0.97037 0.36183 0.0
C2412 C 0.86318 0.97762 0.35984 0.0
C2413 C 0.88845 0.98679 0.34146 0.0
H2414 H 0.87035 0.98135 0.37123 0.0
C2415 C 0.89316 0.99695 0.32706 0.0
C2416 C 0.9101 0.00332 0.32527 0.0
C2417 C 0.9011 0.98315 0.35402 0.0
H2418 H 0.89828 0.97495 0.36498 0.0
C2419 C 0.91776 0.98977 0.35248 0.0
H2420 H 0.88365 1.00006 0.3173 0.0
C2421 C 0.92226 0.99983 0.33825 0.0
H2422 H 0.93539 0.00454 0.33724 0.0
H2423 H 0.92732 0.98689 0.36226 0.0
H2424 H 0.41798 0.26892 0.10795 0.0
C2425 C 0.40834 0.27864 0.10508 0.0
C2426 C 0.41245 0.29179 0.09333 0.0
C2427 C 0.39174 0.27742 0.11239 0.0
H2428 H 0.4032 0.3147 0.08062 0.0
C2429 C 0.39991 0.30414 0.08914 0.0
C2430 C 0.38295 0.30255 0.09531 0.0
C2431 C 0.37901 0.28935 0.10715 0.0
C2432 C 0.38771 0.26325 0.12486 0.0
H2433 H 0.36604 0.2885 0.1123 0.0
C2434 C 0.40054 0.25697 0.13616 0.0
C2435 C 0.39731 0.2429 0.14717 0.0
C2436 C 0.37129 0.25548 0.12521 0.0
H2437 H 0.36116 0.2596 0.11651 0.0
C2438 C 0.36784 0.24186 0.13653 0.0
H2439 H 0.41316 0.26298 0.13636 0.0
C2440 C 0.38075 0.23554 0.1474 0.0
H2441 H 0.37782 0.22472 0.15576 0.0
H2442 H 0.35517 0.23597 0.13664 0.0
H2443 H 0.48008 0.67159 0.85787 0.0
C2444 C 0.47098 0.66135 0.85509 0.0
C2445 C 0.4574 0.66465 0.84359 0.0
C2446 C 0.47339 0.64483 0.86229 0.0
H2447 H 0.43495 0.65402 0.83121 0.0
C2448 C 0.44584 0.65137 0.83953 0.0
C2449 C 0.44862 0.63454 0.84561 0.0
C2450 C 0.46223 0.6314 0.85721 0.0
C2451 C 0.48797 0.64164 0.87451 0.0
H2452 H 0.46399 0.6185 0.8623 0.0
C2453 C 0.49354 0.65476 0.88583 0.0
C2454 C 0.50788 0.6523 0.8967 0.0
C2455 C 0.49679 0.62574 0.87464 0.0
H2456 H 0.49323 0.61544 0.8659 0.0
C2457 C 0.5107 0.62305 0.88578 0.0
H2458 H 0.48674 0.66697 0.8862 0.0
C2459 C 0.51628 0.63623 0.89671 0.0
H2460 H 0.52733 0.63391 0.90496 0.0
H2461 H 0.51739 0.61077 0.88573 0.0
H2462 H 0.07747 0.73315 0.61195 0.0
C2463 C 0.0891 0.72712 0.60714 0.0
C2464 C 0.08776 0.7154 0.59332 0.0
C2465 C 0.1052 0.7314 0.61443 0.0
H2466 H 0.10228 0.70083 0.5745 0.0
C2467 C 0.10296 0.70879 0.58592 0.0
C2468 C 0.11919 0.71283 0.593 0.0
C2469 C 0.1201 0.72357 0.60756 0.0
C2470 C 0.10651 0.7446 0.62855 0.0
H2471 H 0.13259 0.72617 0.61324 0.0
C2472 C 0.09259 0.74766 0.63995 0.0
C2473 C 0.09323 0.76108 0.65217 0.0
C2474 C 0.12141 0.75494 0.63022 0.0
H2475 H 0.13222 0.75362 0.62148 0.0
C2476 C 0.12242 0.76766 0.64291 0.0
H2477 H 0.08109 0.73978 0.63927 0.0
C2478 C 0.10843 0.7708 0.65378 0.0
H2479 H 0.10935 0.78118 0.6631 0.0
H2480 H 0.13395 0.77547 0.64401 0.0
H2481 H 0.01294 0.32688 0.36184 0.0
C2482 C 0.01859 0.33837 0.35629 0.0
C2483 C 0.02987 0.33656 0.34215 0.0
C2484 C 0.01428 0.35474 0.36297 0.0
H2485 H 0.04355 0.35035 0.32216 0.0
C2486 C 0.03596 0.35148 0.33382 0.0
C2487 C 0.03187 0.36795 0.34024 0.0
C2488 C 0.02164 0.3694 0.35514 0.0
C2489 C 0.00151 0.35659 0.37746 0.0
H2490 H 0.01907 0.38211 0.36031 0.0
C2491 C 0.9989 0.34317 0.38956 0.0
C2492 C 0.98595 0.34438 0.40227 0.0
C2493 C 0.99114 0.37152 0.37883 0.0
H2494 H 0.99206 0.38193 0.36957 0.0
C2495 C 0.9789 0.37311 0.39195 0.0
H2496 H 0.00678 0.33165 0.3891 0.0
C2497 C 0.97625 0.35964 0.40357 0.0
H2498 H 0.96623 0.36099 0.41324 0.0
H2499 H 0.97109 0.38467 0.39281 0.0
H2500 H 0.42211 0.73735 0.3925 0.0
C2501 C 0.41043 0.73134 0.39722 0.0
C2502 C 0.41164 0.71963 0.41105 0.0
C2503 C 0.39442 0.73556 0.38973 0.0
H2504 H 0.39705 0.70483 0.4296 0.0
C2505 C 0.39641 0.71292 0.41824 0.0
C2506 C 0.38023 0.717 0.41105 0.0
C2507 C 0.37944 0.72782 0.39651 0.0
C2508 C 0.39332 0.74853 0.37538 0.0
H2509 H 0.36701 0.73047 0.39072 0.0
C2510 C 0.40728 0.75107 0.36392 0.0
C2511 C 0.40685 0.76421 0.35136 0.0
C2512 C 0.37859 0.75908 0.37349 0.0
H2513 H 0.36775 0.75809 0.38224 0.0
C2514 C 0.3778 0.77157 0.36052 0.0
H2515 H 0.41863 0.74297 0.36477 0.0
C2516 C 0.39183 0.7742 0.34956 0.0
H2517 H 0.39107 0.78437 0.33998 0.0
H2518 H 0.3664 0.77957 0.35925 0.0
H2519 H 0.02259 0.67057 0.1401 0.0
C2520 C 0.03186 0.66044 0.14281 0.0
C2521 C 0.04571 0.66404 0.15387 0.0
C2522 C 0.02937 0.64377 0.13601 0.0
H2523 H 0.06851 0.65376 0.16595 0.0
C2524 C 0.05746 0.6509 0.15791 0.0
C2525 C 0.05465 0.63393 0.15226 0.0
C2526 C 0.04079 0.63051 0.14106 0.0
C2527 C 0.01444 0.64023 0.12431 0.0
H2528 H 0.03901 0.61749 0.13629 0.0
C2529 C 0.00825 0.65316 0.11305 0.0
C2530 C 0.9936 0.65037 0.10271 0.0
C2531 C 0.0059 0.6242 0.12464 0.0
H2532 H 0.0099 0.61404 0.13337 0.0
C2533 C 0.99168 0.62118 0.11399 0.0
H2534 H 0.01481 0.66547 0.1123 0.0
C2535 C 0.98551 0.63416 0.10312 0.0
H2536 H 0.97422 0.63159 0.09528 0.0
H2537 H 0.98521 0.6088 0.11439 0.0
H2538 H 0.07628 0.26535 0.89309 0.0
C2539 C 0.08813 0.27109 0.89771 0.0
C2540 C 0.08731 0.28268 0.91166 0.0
C2541 C 0.10396 0.26662 0.88997 0.0
H2542 H 0.10244 0.29695 0.93017 0.0
C2543 C 0.10277 0.28899 0.91872 0.0
C2544 C 0.11877 0.28467 0.91126 0.0
C2545 C 0.11917 0.27401 0.89661 0.0
C2546 C 0.10465 0.25374 0.87553 0.0
H2547 H 0.13147 0.27117 0.89062 0.0
C2548 C 0.09049 0.2515 0.86428 0.0
C2549 C 0.0905 0.23841 0.85168 0.0
C2550 C 0.11916 0.24294 0.87337 0.0
H2551 H 0.13014 0.24369 0.88196 0.0
C2552 C 0.11955 0.23051 0.86034 0.0
H2553 H 0.07929 0.25979 0.86534 0.0
C2554 C 0.10531 0.22817 0.84961 0.0
H2555 H 0.10575 0.21803 0.83999 0.0
H2556 H 0.13079 0.22232 0.85886 0.0
H2557 H 0.48204 0.32989 0.64193 0.0
C2558 C 0.47264 0.33981 0.64492 0.0
C2559 C 0.45916 0.33592 0.65638 0.0
C2560 C 0.47459 0.35654 0.63807 0.0
H2561 H 0.43644 0.34572 0.66903 0.0
C2562 C 0.44723 0.34881 0.66071 0.0
C2563 C 0.44953 0.36583 0.65497 0.0
C2564 C 0.46302 0.36954 0.6434 0.0
C2565 C 0.48916 0.36047 0.62603 0.0
H2566 H 0.4644 0.38259 0.63858 0.0
C2567 C 0.49529 0.34782 0.61444 0.0
C2568 C 0.50954 0.35109 0.60365 0.0
C2569 C 0.49738 0.37668 0.62631 0.0
H2570 H 0.49342 0.38663 0.63528 0.0
C2571 C 0.5112 0.38016 0.61526 0.0
H2572 H 0.48899 0.33537 0.61379 0.0
C2573 C 0.51729 0.36747 0.60402 0.0
H2574 H 0.52825 0.37041 0.59585 0.0
H2575 H 0.5174 0.39267 0.61563 0.0
H2576 H 0.10461 0.41787 0.2681 0.0
C2577 C 0.10181 0.40805 0.27767 0.0
C2578 C 0.08983 0.41175 0.29072 0.0
C2579 C 0.10956 0.39167 0.2764 0.0
H2580 H 0.07719 0.40201 0.31346 0.0
C2581 C 0.08582 0.399 0.30291 0.0
C2582 C 0.09241 0.38221 0.30121 0.0
C2583 C 0.10446 0.37866 0.28808 0.0
C2584 C 0.12249 0.38822 0.26249 0.0
H2585 H 0.10993 0.36583 0.28714 0.0
C2586 C 0.13365 0.40146 0.25685 0.0
C2587 C 0.14507 0.39886 0.24298 0.0
C2588 C 0.12343 0.37201 0.25434 0.0
H2589 H 0.11489 0.36159 0.25803 0.0
C2590 C 0.13514 0.36919 0.24091 0.0
H2591 H 0.1334 0.4139 0.2632 0.0
C2592 C 0.14585 0.38251 0.23518 0.0
H2593 H 0.15455 0.38006 0.22451 0.0
H2594 H 0.13571 0.35668 0.23471 0.0
H2595 H 0.32827 0.36139 0.01368 0.0
C2596 C 0.33974 0.35601 0.01955 0.0
C2597 C 0.33789 0.34225 0.03128 0.0
C2598 C 0.35612 0.36254 0.01508 0.0
H2599 H 0.35164 0.32275 0.0457 0.0
C2600 C 0.35279 0.33414 0.03772 0.0
C2601 C 0.36928 0.34043 0.03348 0.0
C2602 C 0.37076 0.35495 0.02273 0.0
C2603 C 0.35798 0.37663 0.0019 0.0
H2604 H 0.38348 0.36003 0.01999 0.0
C2605 C 0.34463 0.38876 0.99905 0.0
C2606 C 0.34586 0.40112 0.98577 0.0
C2607 C 0.37285 0.37761 0.99141 0.0
H2608 H 0.3832 0.3683 0.99255 0.0
C2609 C 0.37445 0.39038 0.97881 0.0
H2610 H 0.33316 0.38859 0.00701 0.0
C2611 C 0.36106 0.40204 0.97594 0.0
H2612 H 0.36242 0.41143 0.96567 0.0
H2613 H 0.38597 0.39094 0.9709 0.0
H2614 H 0.39322 0.5759 0.76472 0.0
C2615 C 0.39782 0.58777 0.77044 0.0
C2616 C 0.41194 0.58702 0.78182 0.0
C2617 C 0.38987 0.60355 0.76617 0.0
H2618 H 0.4305 0.60221 0.79594 0.0
C2619 C 0.41895 0.6025 0.78812 0.0
C2620 C 0.41132 0.61846 0.78396 0.0
C2621 C 0.3965 0.61879 0.7735 0.0
C2622 C 0.37518 0.60414 0.75357 0.0
H2623 H 0.39038 0.63105 0.7708 0.0
C2624 C 0.36403 0.58987 0.75152 0.0
C2625 C 0.35124 0.58974 0.73863 0.0
C2626 C 0.37268 0.61864 0.74284 0.0
H2627 H 0.38116 0.62971 0.74347 0.0
C2628 C 0.35944 0.6189 0.73063 0.0
H2629 H 0.36535 0.57868 0.75978 0.0
C2630 C 0.34883 0.60454 0.72844 0.0
H2631 H 0.33905 0.60487 0.71845 0.0
H2632 H 0.35769 0.63013 0.72248 0.0
H2633 H 0.17051 0.63973 0.5219 0.0
C2634 C 0.16038 0.64236 0.53118 0.0
C2635 C 0.16399 0.65324 0.54517 0.0
C2636 C 0.14369 0.63566 0.52858 0.0
H2637 H 0.15373 0.66507 0.56811 0.0
C2638 C 0.15085 0.65718 0.55696 0.0
C2639 C 0.13387 0.65163 0.55404 0.0
C2640 C 0.13042 0.64062 0.54003 0.0
C2641 C 0.14015 0.62415 0.51351 0.0
H2642 H 0.1174 0.63593 0.53816 0.0
C2643 C 0.15304 0.61289 0.50725 0.0
C2644 C 0.15025 0.60272 0.49248 0.0
C2645 C 0.12415 0.62467 0.5049 0.0
H2646 H 0.11402 0.6334 0.50896 0.0
C2647 C 0.12113 0.61419 0.49055 0.0
H2648 H 0.16532 0.612 0.51386 0.0
C2649 C 0.13408 0.60331 0.48432 0.0
H2650 H 0.13151 0.59561 0.47295 0.0
H2651 H 0.10878 0.61473 0.48404 0.0
H2652 H 0.11229 0.57731 0.23342 0.0
C2653 C 0.10747 0.58898 0.22745 0.0
C2654 C 0.09338 0.58772 0.21606 0.0
C2655 C 0.11502 0.60501 0.23148 0.0
H2656 H 0.0744 0.60234 0.20182 0.0
C2657 C 0.08599 0.60296 0.20954 0.0
C2658 C 0.09328 0.61914 0.21337 0.0
C2659 C 0.1081 0.61995 0.22379 0.0
C2660 C 0.12951 0.6062 0.24429 0.0
H2661 H 0.11394 0.6324 0.22621 0.0
C2662 C 0.14081 0.59215 0.24709 0.0
C2663 C 0.15333 0.59262 0.26023 0.0
C2664 C 0.13163 0.6211 0.25455 0.0
H2665 H 0.12301 0.63203 0.25342 0.0
C2666 C 0.14464 0.62195 0.26697 0.0
H2667 H 0.1398 0.58065 0.23924 0.0
C2668 C 0.15537 0.6078 0.2699 0.0
H2669 H 0.16494 0.60861 0.28006 0.0
H2670 H 0.14608 0.63348 0.27473 0.0
H2671 H 0.17199 0.35807 0.98059 0.0
C2672 C 0.16173 0.35541 0.97148 0.0
C2673 C 0.165 0.34409 0.95774 0.0
C2674 C 0.14521 0.36257 0.97403 0.0
H2675 H 0.15432 0.33201 0.93515 0.0
C2676 C 0.15169 0.34019 0.94616 0.0
C2677 C 0.13486 0.34622 0.94907 0.0
C2678 C 0.13175 0.35763 0.96284 0.0
C2679 C 0.14207 0.37461 0.98877 0.0
H2680 H 0.11884 0.36268 0.96471 0.0
C2681 C 0.15521 0.38586 0.99443 0.0
C2682 C 0.15281 0.39655 0.00891 0.0
C2683 C 0.1262 0.37463 0.99765 0.0
H2684 H 0.11589 0.36595 0.99402 0.0
C2685 C 0.12357 0.3856 0.01171 0.0
H2686 H 0.16739 0.38631 0.98759 0.0
C2687 C 0.13677 0.39646 0.01737 0.0
H2688 H 0.1345 0.40457 0.02853 0.0
H2689 H 0.11132 0.38547 0.01844 0.0
H2690 H 0.39405 0.42253 0.73732 0.0
C2691 C 0.39873 0.41078 0.73141 0.0
C2692 C 0.41288 0.41177 0.72009 0.0
C2693 C 0.39082 0.3949 0.73535 0.0
H2694 H 0.43155 0.39693 0.7057 0.0
C2695 C 0.41999 0.39644 0.71351 0.0
C2696 C 0.41244 0.38038 0.71737 0.0
C2697 C 0.39759 0.37981 0.7278 0.0
C2698 C 0.37603 0.39408 0.74782 0.0
H2699 H 0.39153 0.36747 0.73029 0.0
C2700 C 0.36477 0.40828 0.74995 0.0
C2701 C 0.35186 0.4082 0.76273 0.0
C2702 C 0.37352 0.37944 0.75836 0.0
H2703 H 0.38207 0.36842 0.75764 0.0
C2704 C 0.36018 0.37899 0.77047 0.0
H2705 H 0.36609 0.41956 0.74181 0.0
C2706 C 0.34946 0.39329 0.77275 0.0
H2707 H 0.3396 0.39279 0.78265 0.0
H2708 H 0.35843 0.36766 0.77847 0.0
H2709 H 0.33044 0.64187 0.48159 0.0
C2710 C 0.3403 0.64475 0.47209 0.0
C2711 C 0.33628 0.65594 0.45842 0.0
C2712 C 0.35708 0.63804 0.47409 0.0
H2713 H 0.34588 0.66821 0.43542 0.0
C2714 C 0.34908 0.66011 0.44634 0.0
C2715 C 0.36614 0.65451 0.44866 0.0
C2716 C 0.37 0.64323 0.46235 0.0
C2717 C 0.36115 0.62629 0.48885 0.0
H2718 H 0.38308 0.63851 0.46376 0.0
C2719 C 0.34862 0.6147 0.4952 0.0
C2720 C 0.35202 0.60416 0.5096 0.0
C2721 C 0.37738 0.62685 0.49703 0.0
H2722 H 0.38724 0.63584 0.4929 0.0
C2723 C 0.38098 0.61607 0.51103 0.0
H2724 H 0.33616 0.61382 0.48893 0.0
C2725 C 0.36841 0.60481 0.51732 0.0
H2726 H 0.37144 0.59684 0.52841 0.0
H2727 H 0.39349 0.61665 0.51721 0.0
H2728 H 0.26736 0.10462 0.41882 0.0
C2729 C 0.27678 0.10174 0.40888 0.0
C2730 C 0.28992 0.08983 0.41248 0.0
C2731 C 0.27521 0.10933 0.39243 0.0
H2732 H 0.31252 0.07713 0.40247 0.0
C2733 C 0.3019 0.08572 0.39956 0.0
C2734 C 0.2999 0.09214 0.38274 0.0
C2735 C 0.2867 0.10413 0.3793 0.0
C2736 C 0.26119 0.12215 0.38905 0.0
H2737 H 0.28554 0.10947 0.36643 0.0
C2738 C 0.25566 0.13342 0.40224 0.0
C2739 C 0.24173 0.14479 0.39967 0.0
C2740 C 0.25284 0.12289 0.37293 0.0
H2741 H 0.25642 0.11425 0.36256 0.0
C2742 C 0.23935 0.13454 0.37014 0.0
H2743 H 0.26215 0.13332 0.41462 0.0
C2744 C 0.23375 0.14538 0.38341 0.0
H2745 H 0.22302 0.15403 0.38099 0.0
H2746 H 0.23299 0.13496 0.3577 0.0
H2747 H 0.76449 0.39292 0.57588 0.0
C2748 C 0.77014 0.3976 0.58776 0.0
C2749 C 0.78153 0.4117 0.58698 0.0
C2750 C 0.76576 0.38977 0.60357 0.0
H2751 H 0.79555 0.43037 0.60215 0.0
C2752 C 0.78772 0.41883 0.60246 0.0
C2753 C 0.78346 0.4113 0.61844 0.0
C2754 C 0.773 0.3965 0.6188 0.0
C2755 C 0.75314 0.3751 0.60419 0.0
H2756 H 0.77022 0.39046 0.6311 0.0
C2757 C 0.75114 0.36386 0.58998 0.0
C2758 C 0.73825 0.35107 0.58989 0.0
C2759 C 0.74233 0.37271 0.61866 0.0
H2760 H 0.74291 0.38127 0.62967 0.0
C2761 C 0.73012 0.35948 0.61895 0.0
H2762 H 0.75945 0.36509 0.57882 0.0
C2763 C 0.72799 0.34877 0.60466 0.0
H2764 H 0.71799 0.339 0.60501 0.0
H2765 H 0.72192 0.35782 0.63016 0.0
H2766 H 0.35943 0.01269 0.32659 0.0
C2767 C 0.35415 0.01837 0.3382 0.0
C2768 C 0.33965 0.02922 0.33675 0.0
C2769 C 0.36158 0.01456 0.35437 0.0
H2770 H 0.31984 0.04265 0.35102 0.0
C2771 C 0.33171 0.03536 0.35186 0.0
C2772 C 0.33883 0.03169 0.36815 0.0
C2773 C 0.35406 0.02189 0.36921 0.0
C2774 C 0.37658 0.00234 0.35581 0.0
H2775 H 0.35976 0.01965 0.38176 0.0
C2776 C 0.38823 0.99999 0.34196 0.0
C2777 C 0.40137 0.98745 0.34276 0.0
C2778 C 0.3789 0.99221 0.37079 0.0
H2779 H 0.37004 0.99296 0.38155 0.0
C2780 C 0.39246 0.98041 0.37195 0.0
H2781 H 0.38706 0.00774 0.33039 0.0
C2782 C 0.40359 0.97795 0.35803 0.0
H2783 H 0.41361 0.96825 0.35908 0.0
H2784 H 0.39405 0.97276 0.38354 0.0
H2785 H 0.73406 0.6118 0.07722 0.0
C2786 C 0.72816 0.60684 0.08886 0.0
C2787 C 0.71666 0.59286 0.08748 0.0
C2788 C 0.73238 0.61411 0.10498 0.0
H2789 H 0.70242 0.57373 0.1019 0.0
C2790 C 0.71022 0.58526 0.10265 0.0
C2791 C 0.71424 0.59227 0.11891 0.0
C2792 C 0.72475 0.607 0.11987 0.0
C2793 C 0.74529 0.62849 0.1063 0.0
H2794 H 0.72731 0.61264 0.13239 0.0
C2795 C 0.74808 0.63997 0.0924 0.0
C2796 C 0.7613 0.65241 0.09299 0.0
C2797 C 0.75564 0.63033 0.12117 0.0
H2798 H 0.75452 0.62157 0.13198 0.0
C2799 C 0.76814 0.64326 0.12216 0.0
H2800 H 0.74017 0.63918 0.08092 0.0
C2801 C 0.77104 0.65419 0.10816 0.0
H2802 H 0.78127 0.66368 0.10905 0.0
H2803 H 0.77596 0.64449 0.13367 0.0
H2804 H 0.64198 0.48165 0.33066 0.0
C2805 C 0.64514 0.47216 0.34044 0.0
C2806 C 0.6573 0.45931 0.33655 0.0
C2807 C 0.63777 0.4734 0.35702 0.0
H2808 H 0.67069 0.43693 0.34616 0.0
C2809 C 0.66185 0.44728 0.34928 0.0
C2810 C 0.65559 0.44895 0.36619 0.0
C2811 C 0.64332 0.4618 0.36991 0.0
C2812 C 0.62491 0.48727 0.3609 0.0
H2813 H 0.63812 0.46266 0.38286 0.0
C2814 C 0.61346 0.49315 0.34801 0.0
C2815 C 0.60201 0.5069 0.35117 0.0
C2816 C 0.6243 0.49514 0.37728 0.0
H2817 H 0.63311 0.49136 0.38744 0.0
C2818 C 0.61257 0.50841 0.38065 0.0
H2819 H 0.61347 0.48708 0.33542 0.0
C2820 C 0.60152 0.51432 0.3677 0.0
H2821 H 0.59282 0.52489 0.37056 0.0
H2822 H 0.61225 0.51437 0.39328 0.0
H2823 H 0.23732 0.89374 0.9225 0.0
C2824 C 0.23144 0.89849 0.91075 0.0
C2825 C 0.2201 0.91262 0.91181 0.0
C2826 C 0.23543 0.89069 0.89483 0.0
H2827 H 0.20572 0.93136 0.89703 0.0
C2828 C 0.21355 0.91981 0.8965 0.0
C2829 C 0.21747 0.91237 0.8804 0.0
C2830 C 0.22792 0.89754 0.87976 0.0
C2831 C 0.24792 0.87591 0.89396 0.0
H2832 H 0.23045 0.89155 0.8674 0.0
C2833 C 0.25001 0.86455 0.90808 0.0
C2834 C 0.26279 0.85164 0.90794 0.0
C2835 C 0.2585 0.8735 0.87933 0.0
H2836 H 0.25782 0.88213 0.86837 0.0
C2837 C 0.27062 0.86016 0.87882 0.0
H2838 H 0.24184 0.86579 0.91934 0.0
C2839 C 0.27285 0.84934 0.89304 0.0
H2840 H 0.28276 0.83948 0.8925 0.0
H2841 H 0.27866 0.8585 0.8675 0.0
H2842 H 0.35514 0.98062 0.1718 0.0
C2843 C 0.35242 0.97152 0.16154 0.0
C2844 C 0.34045 0.9583 0.16457 0.0
C2845 C 0.36025 0.97357 0.14526 0.0
H2846 H 0.32783 0.93609 0.15371 0.0
C2847 C 0.3365 0.94675 0.15125 0.0
C2848 C 0.34319 0.94922 0.1346 0.0
C2849 C 0.35526 0.96247 0.13173 0.0
C2850 C 0.3731 0.98767 0.14244 0.0
H2851 H 0.36081 0.96398 0.11899 0.0
C2852 C 0.38411 0.99288 0.15595 0.0
C2853 C 0.39549 0.00687 0.15391 0.0
C2854 C 0.37412 0.99641 0.12653 0.0
H2855 H 0.36567 0.9931 0.11591 0.0
C2856 C 0.38581 0.00995 0.12425 0.0
H2857 H 0.3838 0.9861 0.16818 0.0
C2858 C 0.39639 0.01522 0.13784 0.0
H2859 H 0.40505 0.02601 0.13584 0.0
H2860 H 0.38645 0.0166 0.11197 0.0
H2861 H 0.14007 0.02264 0.67042 0.0
C2862 C 0.14282 0.03196 0.66035 0.0
C2863 C 0.15406 0.04565 0.66401 0.0
C2864 C 0.13592 0.02968 0.64369 0.0
H2865 H 0.16634 0.0684 0.65385 0.0
C2866 C 0.15816 0.05747 0.65094 0.0
C2867 C 0.15239 0.05485 0.63398 0.0
C2868 C 0.14103 0.04114 0.6305 0.0
C2869 C 0.12404 0.01491 0.6401 0.0
H2870 H 0.13618 0.03952 0.61749 0.0
C2871 C 0.11279 0.00873 0.65304 0.0
C2872 C 0.10231 0.99419 0.65021 0.0
C2873 C 0.1242 0.00648 0.62399 0.0
H2874 H 0.1329 0.01047 0.61382 0.0
C2875 C 0.11339 0.99239 0.62093 0.0
H2876 H 0.11218 0.01521 0.66541 0.0
C2877 C 0.10255 0.98621 0.63393 0.0
H2878 H 0.0946 0.97502 0.63133 0.0
H2879 H 0.11367 0.98601 0.6085 0.0
loop_
_geom_bond_atom_site_label_1
_geom_bond_atom_site_label_2
_geom_bond_distance
_geom_bond_site_symmetry_2
_ccdc_geom_bond_type
O0 Cd1 2.300 . S
O0 C7 1.275 . S
Cd1 O0 2.300 . S
Cd1 O9 2.381 . S
Cd1 O10 2.378 . S
O2 Cd3 2.385 . S
O2 C7 1.255 . S
Cd3 O2 2.385 . S
Cd3 O4 2.317 . S
O4 Cd3 2.317 . S
O4 C5 1.232 . S
C5 O4 1.232 . S
C5 O6 1.218 . S
O6 C5 1.218 . S
C7 O0 1.275 . S
C7 O2 1.255 . S
C8 O9 1.258 . S
C8 O10 1.256 . S
O9 Cd1 2.381 . S
O9 C8 1.258 . S
O10 Cd1 2.378 . S
O10 C8 1.256 . S
O11 Cd12 2.300 . S
O11 C18 1.275 . S
Cd12 O11 2.300 . S
Cd12 O20 2.381 . S
Cd12 O21 2.378 . S
O13 Cd14 2.385 . S
O13 C18 1.255 . S
Cd14 O13 2.385 . S
Cd14 O15 2.317 . S
O15 Cd14 2.317 . S
O15 C16 1.232 . S
C16 O15 1.232 . S
C16 O17 1.218 . S
O17 C16 1.218 . S
C18 O11 1.275 . S
C18 O13 1.255 . S
C19 O20 1.258 . S
C19 O21 1.256 . S
O20 Cd12 2.381 . S
O20 C19 1.258 . S
O21 Cd12 2.378 . S
O21 C19 1.256 . S
O22 Cd23 2.300 . S
O22 C29 1.275 . S
Cd23 O22 2.300 . S
Cd23 O31 2.381 . S
Cd23 O32 2.378 . S
O24 Cd25 2.385 . S
O24 C29 1.255 . S
Cd25 O24 2.385 . S
Cd25 O26 2.317 . S
O26 Cd25 2.317 . S
O26 C27 1.232 . S
C27 O26 1.232 . S
C27 O28 1.218 . S
O28 C27 1.218 . S
C29 O22 1.275 . S
C29 O24 1.255 . S
C30 O31 1.258 . S
C30 O32 1.256 . S
O31 Cd23 2.381 . S
O31 C30 1.258 . S
O32 Cd23 2.378 . S
O32 C30 1.256 . S
O33 Cd34 2.300 . S
O33 C40 1.275 . S
Cd34 O33 2.300 . S
Cd34 O42 2.381 . S
Cd34 O43 2.378 . S
O35 Cd36 2.385 . S
O35 C40 1.255 . S
Cd36 O35 2.385 . S
Cd36 O37 2.317 . S
O37 Cd36 2.317 . S
O37 C38 1.232 . S
C38 O37 1.232 . S
C38 O39 1.218 . S
O39 C38 1.218 . S
C40 O33 1.275 . S
C40 O35 1.255 . S
C41 O42 1.258 . S
C41 O43 1.256 . S
O42 Cd34 2.381 . S
O42 C41 1.258 . S
O43 Cd34 2.378 . S
O43 C41 1.256 . S
O44 Cd45 2.300 . S
O44 C51 1.275 . S
Cd45 O44 2.300 . S
Cd45 O53 2.381 . S
Cd45 O54 2.378 . S
O46 Cd47 2.385 . S
O46 C51 1.255 . S
Cd47 O46 2.385 . S
Cd47 O48 2.317 . S
O48 Cd47 2.317 . S
O48 C49 1.232 . S
C49 O48 1.232 . S
C49 O50 1.218 . S
O50 C49 1.218 . S
C51 O44 1.275 . S
C51 O46 1.255 . S
C52 O53 1.258 . S
C52 O54 1.256 . S
O53 Cd45 2.381 . S
O53 C52 1.258 . S
O54 Cd45 2.378 . S
O54 C52 1.256 . S
O55 Cd56 2.300 . S
O55 C62 1.275 . S
Cd56 O55 2.300 . S
Cd56 O64 2.381 . S
Cd56 O65 2.378 . S
O57 Cd58 2.385 . S
O57 C62 1.255 . S
Cd58 O57 2.385 . S
Cd58 O59 2.317 . S
O59 Cd58 2.317 . S
O59 C60 1.232 . S
C60 O59 1.232 . S
C60 O61 1.218 . S
O61 C60 1.218 . S
C62 O55 1.275 . S
C62 O57 1.255 . S
C63 O64 1.258 . S
C63 O65 1.256 . S
O64 Cd56 2.381 . S
O64 C63 1.258 . S
O65 Cd56 2.378 . S
O65 C63 1.256 . S
O66 Cd67 2.300 . S
O66 C73 1.275 . S
Cd67 O66 2.300 . S
Cd67 O75 2.381 . S
Cd67 O76 2.378 . S
O68 Cd69 2.385 . S
O68 C73 1.255 . S
Cd69 O68 2.385 . S
Cd69 O70 2.317 . S
O70 Cd69 2.317 . S
O70 C71 1.232 . S
C71 O70 1.232 . S
C71 O72 1.218 . S
O72 C71 1.218 . S
C73 O66 1.275 . S
C73 O68 1.255 . S
C74 O75 1.258 . S
C74 O76 1.256 . S
O75 Cd67 2.381 . S
O75 C74 1.258 . S
O76 Cd67 2.378 . S
O76 C74 1.256 . S
O77 Cd78 2.300 . S
O77 C84 1.275 . S
Cd78 O77 2.300 . S
Cd78 O86 2.381 . S
Cd78 O87 2.378 . S
O79 Cd80 2.385 . S
O79 C84 1.255 . S
Cd80 O79 2.385 . S
Cd80 O81 2.317 . S
O81 Cd80 2.317 . S
O81 C82 1.232 . S
C82 O81 1.232 . S
C82 O83 1.218 . S
O83 C82 1.218 . S
C84 O77 1.275 . S
C84 O79 1.255 . S
C85 O86 1.258 . S
C85 O87 1.256 . S
O86 Cd78 2.381 . S
O86 C85 1.258 . S
O87 Cd78 2.378 . S
O87 C85 1.256 . S
O88 Cd89 2.300 . S
O88 C95 1.275 . S
Cd89 O88 2.300 . S
Cd89 O97 2.381 . S
Cd89 O98 2.378 . S
O90 Cd91 2.385 . S
O90 C95 1.255 . S
Cd91 O90 2.385 . S
Cd91 O92 2.317 . S
O92 Cd91 2.317 . S
O92 C93 1.232 . S
C93 O92 1.232 . S
C93 O94 1.218 . S
O94 C93 1.218 . S
C95 O88 1.275 . S
C95 O90 1.255 . S
C96 O97 1.258 . S
C96 O98 1.256 . S
O97 Cd89 2.381 . S
O97 C96 1.258 . S
O98 Cd89 2.378 . S
O98 C96 1.256 . S
O99 Cd100 2.300 . S
O99 C106 1.275 . S
Cd100 O99 2.300 . S
Cd100 O108 2.381 . S
Cd100 O109 2.378 . S
O101 Cd102 2.385 . S
O101 C106 1.255 . S
Cd102 O101 2.385 . S
Cd102 O103 2.317 . S
O103 Cd102 2.317 . S
O103 C104 1.232 . S
C104 O103 1.232 . S
C104 O105 1.218 . S
O105 C104 1.218 . S
C106 O99 1.275 . S
C106 O101 1.255 . S
C107 O108 1.258 . S
C107 O109 1.256 . S
O108 Cd100 2.381 . S
O108 C107 1.258 . S
O109 Cd100 2.378 . S
O109 C107 1.256 . S
O110 Cd111 2.300 . S
O110 C117 1.275 . S
Cd111 O110 2.300 . S
Cd111 O119 2.381 . S
Cd111 O120 2.378 . S
O112 Cd113 2.385 . S
O112 C117 1.255 . S
Cd113 O112 2.385 . S
Cd113 O114 2.317 . S
O114 Cd113 2.317 . S
O114 C115 1.232 . S
C115 O114 1.232 . S
C115 O116 1.218 . S
O116 C115 1.218 . S
C117 O110 1.275 . S
C117 O112 1.255 . S
C118 O119 1.258 . S
C118 O120 1.256 . S
O119 Cd111 2.381 . S
O119 C118 1.258 . S
O120 Cd111 2.378 . S
O120 C118 1.256 . S
O121 Cd122 2.300 . S
O121 C128 1.275 . S
Cd122 O121 2.300 . S
Cd122 O130 2.381 . S
Cd122 O131 2.378 . S
O123 Cd124 2.385 . S
O123 C128 1.255 . S
Cd124 O123 2.385 . S
Cd124 O125 2.317 . S
O125 Cd124 2.317 . S
O125 C126 1.232 . S
C126 O125 1.232 . S
C126 O127 1.218 . S
O127 C126 1.218 . S
C128 O121 1.275 . S
C128 O123 1.255 . S
C129 O130 1.258 . S
C129 O131 1.256 . S
O130 Cd122 2.381 . S
O130 C129 1.258 . S
O131 Cd122 2.378 . S
O131 C129 1.256 . S
O132 Cd133 2.300 . S
O132 C139 1.275 . S
Cd133 O132 2.300 . S
Cd133 O141 2.381 . S
Cd133 O142 2.378 . S
O134 Cd135 2.385 . S
O134 C139 1.255 . S
Cd135 O134 2.385 . S
Cd135 O136 2.317 . S
O136 Cd135 2.317 . S
O136 C137 1.232 . S
C137 O136 1.232 . S
C137 O138 1.218 . S
O138 C137 1.218 . S
C139 O132 1.275 . S
C139 O134 1.255 . S
C140 O141 1.258 . S
C140 O142 1.256 . S
O141 Cd133 2.381 . S
O141 C140 1.258 . S
O142 Cd133 2.378 . S
O142 C140 1.256 . S
O143 Cd144 2.300 . S
O143 C150 1.275 . S
Cd144 O143 2.300 . S
Cd144 O152 2.381 . S
Cd144 O153 2.378 . S
O145 Cd146 2.385 . S
O145 C150 1.255 . S
Cd146 O145 2.385 . S
Cd146 O147 2.317 . S
O147 Cd146 2.317 . S
O147 C148 1.232 . S
C148 O147 1.232 . S
C148 O149 1.218 . S
O149 C148 1.218 . S
C150 O143 1.275 . S
C150 O145 1.255 . S
C151 O152 1.258 . S
C151 O153 1.256 . S
O152 Cd144 2.381 . S
O152 C151 1.258 . S
O153 Cd144 2.378 . S
O153 C151 1.256 . S
O154 Cd155 2.300 . S
O154 C161 1.275 . S
Cd155 O154 2.300 . S
Cd155 O163 2.381 . S
Cd155 O164 2.378 . S
O156 Cd157 2.385 . S
O156 C161 1.255 . S
Cd157 O156 2.385 . S
Cd157 O158 2.317 . S
O158 Cd157 2.317 . S
O158 C159 1.232 . S
C159 O158 1.232 . S
C159 O160 1.218 . S
O160 C159 1.218 . S
C161 O154 1.275 . S
C161 O156 1.255 . S
C162 O163 1.258 . S
C162 O164 1.256 . S
O163 Cd155 2.381 . S
O163 C162 1.258 . S
O164 Cd155 2.378 . S
O164 C162 1.256 . S
O165 Cd166 2.300 . S
O165 C172 1.275 . S
Cd166 O165 2.300 . S
Cd166 O174 2.381 . S
Cd166 O175 2.378 . S
O167 Cd168 2.385 . S
O167 C172 1.255 . S
Cd168 O167 2.385 . S
Cd168 O169 2.317 . S
O169 Cd168 2.317 . S
O169 C170 1.232 . S
C170 O169 1.232 . S
C170 O171 1.218 . S
O171 C170 1.218 . S
C172 O165 1.275 . S
C172 O167 1.255 . S
C173 O174 1.258 . S
C173 O175 1.256 . S
O174 Cd166 2.381 . S
O174 C173 1.258 . S
O175 Cd166 2.378 . S
O175 C173 1.256 . S
O176 Cd177 2.300 . S
O176 C183 1.275 . S
Cd177 O176 2.300 . S
Cd177 O185 2.381 . S
Cd177 O186 2.378 . S
O178 Cd179 2.385 . S
O178 C183 1.255 . S
Cd179 O178 2.385 . S
Cd179 O180 2.317 . S
O180 Cd179 2.317 . S
O180 C181 1.232 . S
C181 O180 1.232 . S
C181 O182 1.218 . S
O182 C181 1.218 . S
C183 O176 1.275 . S
C183 O178 1.255 . S
C184 O185 1.258 . S
C184 O186 1.256 . S
O185 Cd177 2.381 . S
O185 C184 1.258 . S
O186 Cd177 2.378 . S
O186 C184 1.256 . S
O187 Cd188 2.300 . S
O187 C194 1.275 . S
Cd188 O187 2.300 . S
Cd188 O196 2.381 . S
Cd188 O197 2.378 . S
O189 Cd190 2.385 . S
O189 C194 1.255 . S
Cd190 O189 2.385 . S
Cd190 O191 2.317 . S
O191 Cd190 2.317 . S
O191 C192 1.232 . S
C192 O191 1.232 . S
C192 O193 1.218 . S
O193 C192 1.218 . S
C194 O187 1.275 . S
C194 O189 1.255 . S
C195 O196 1.258 . S
C195 O197 1.256 . S
O196 Cd188 2.381 . S
O196 C195 1.258 . S
O197 Cd188 2.378 . S
O197 C195 1.256 . S
O198 Cd199 2.300 . S
O198 C205 1.275 . S
Cd199 O198 2.300 . S
Cd199 O207 2.381 . S
Cd199 O208 2.378 . S
O200 Cd201 2.385 . S
O200 C205 1.255 . S
Cd201 O200 2.385 . S
Cd201 O202 2.317 . S
O202 Cd201 2.317 . S
O202 C203 1.232 . S
C203 O202 1.232 . S
C203 O204 1.218 . S
O204 C203 1.218 . S
C205 O198 1.275 . S
C205 O200 1.255 . S
C206 O207 1.258 . S
C206 O208 1.256 . S
O207 Cd199 2.381 . S
O207 C206 1.258 . S
O208 Cd199 2.378 . S
O208 C206 1.256 . S
O209 Cd210 2.300 . S
O209 C216 1.275 . S
Cd210 O209 2.300 . S
Cd210 O218 2.381 . S
Cd210 O219 2.378 . S
O211 Cd212 2.385 . S
O211 C216 1.255 . S
Cd212 O211 2.385 . S
Cd212 O213 2.317 . S
O213 Cd212 2.317 . S
O213 C214 1.232 . S
C214 O213 1.232 . S
C214 O215 1.218 . S
O215 C214 1.218 . S
C216 O209 1.275 . S
C216 O211 1.255 . S
C217 O218 1.258 . S
C217 O219 1.256 . S
O218 Cd210 2.381 . S
O218 C217 1.258 . S
O219 Cd210 2.378 . S
O219 C217 1.256 . S
O220 Cd221 2.300 . S
O220 C227 1.275 . S
Cd221 O220 2.300 . S
Cd221 O229 2.381 . S
Cd221 O230 2.378 . S
O222 Cd223 2.385 . S
O222 C227 1.255 . S
Cd223 O222 2.385 . S
Cd223 O224 2.317 . S
O224 Cd223 2.317 . S
O224 C225 1.232 . S
C225 O224 1.232 . S
C225 O226 1.218 . S
O226 C225 1.218 . S
C227 O220 1.275 . S
C227 O222 1.255 . S
C228 O229 1.258 . S
C228 O230 1.256 . S
O229 Cd221 2.381 . S
O229 C228 1.258 . S
O230 Cd221 2.378 . S
O230 C228 1.256 . S
O231 Cd232 2.300 . S
O231 C238 1.275 . S
Cd232 O231 2.300 . S
Cd232 O240 2.381 . S
Cd232 O241 2.378 . S
O233 Cd234 2.385 . S
O233 C238 1.255 . S
Cd234 O233 2.385 . S
Cd234 O235 2.317 . S
O235 Cd234 2.317 . S
O235 C236 1.232 . S
C236 O235 1.232 . S
C236 O237 1.218 . S
O237 C236 1.218 . S
C238 O231 1.275 . S
C238 O233 1.255 . S
C239 O240 1.258 . S
C239 O241 1.256 . S
O240 Cd232 2.381 . S
O240 C239 1.258 . S
O241 Cd232 2.378 . S
O241 C239 1.256 . S
O242 Cd243 2.300 . S
O242 C249 1.275 . S
Cd243 O242 2.300 . S
Cd243 O251 2.381 . S
Cd243 O252 2.378 . S
O244 Cd245 2.385 . S
O244 C249 1.255 . S
Cd245 O244 2.385 . S
Cd245 O246 2.317 . S
O246 Cd245 2.317 . S
O246 C247 1.232 . S
C247 O246 1.232 . S
C247 O248 1.218 . S
O248 C247 1.218 . S
C249 O242 1.275 . S
C249 O244 1.255 . S
C250 O251 1.258 . S
C250 O252 1.256 . S
O251 Cd243 2.381 . S
O251 C250 1.258 . S
O252 Cd243 2.378 . S
O252 C250 1.256 . S
O253 Cd254 2.300 . S
O253 C260 1.275 . S
Cd254 O253 2.300 . S
Cd254 O262 2.381 . S
Cd254 O263 2.378 . S
O255 Cd256 2.385 . S
O255 C260 1.255 . S
Cd256 O255 2.385 . S
Cd256 O257 2.317 . S
O257 Cd256 2.317 . S
O257 C258 1.232 . S
C258 O257 1.232 . S
C258 O259 1.218 . S
O259 C258 1.218 . S
C260 O253 1.275 . S
C260 O255 1.255 . S
C261 O262 1.258 . S
C261 O263 1.256 . S
O262 Cd254 2.381 . S
O262 C261 1.258 . S
O263 Cd254 2.378 . S
O263 C261 1.256 . S
O264 Cd265 2.300 . S
O264 C271 1.275 . S
Cd265 O264 2.300 . S
Cd265 O273 2.381 . S
Cd265 O274 2.378 . S
O266 Cd267 2.385 . S
O266 C271 1.255 . S
Cd267 O266 2.385 . S
Cd267 O268 2.317 . S
O268 Cd267 2.317 . S
O268 C269 1.232 . S
C269 O268 1.232 . S
C269 O270 1.218 . S
O270 C269 1.218 . S
C271 O264 1.275 . S
C271 O266 1.255 . S
C272 O273 1.258 . S
C272 O274 1.256 . S
O273 Cd265 2.381 . S
O273 C272 1.258 . S
O274 Cd265 2.378 . S
O274 C272 1.256 . S
O275 Cd276 2.300 . S
O275 C282 1.275 . S
Cd276 O275 2.300 . S
Cd276 O284 2.381 . S
Cd276 O285 2.378 . S
O277 Cd278 2.385 . S
O277 C282 1.255 . S
Cd278 O277 2.385 . S
Cd278 O279 2.317 . S
O279 Cd278 2.317 . S
O279 C280 1.232 . S
C280 O279 1.232 . S
C280 O281 1.218 . S
O281 C280 1.218 . S
C282 O275 1.275 . S
C282 O277 1.255 . S
C283 O284 1.258 . S
C283 O285 1.256 . S
O284 Cd276 2.381 . S
O284 C283 1.258 . S
O285 Cd276 2.378 . S
O285 C283 1.256 . S
O286 Cd287 2.300 . S
O286 C293 1.275 . S
Cd287 O286 2.300 . S
Cd287 O295 2.381 . S
Cd287 O296 2.378 . S
O288 Cd289 2.385 . S
O288 C293 1.255 . S
Cd289 O288 2.385 . S
Cd289 O290 2.317 . S
O290 Cd289 2.317 . S
O290 C291 1.232 . S
C291 O290 1.232 . S
C291 O292 1.218 . S
O292 C291 1.218 . S
C293 O286 1.275 . S
C293 O288 1.255 . S
C294 O295 1.258 . S
C294 O296 1.256 . S
O295 Cd287 2.381 . S
O295 C294 1.258 . S
O296 Cd287 2.378 . S
O296 C294 1.256 . S
O297 Cd298 2.300 . S
O297 C304 1.275 . S
Cd298 O297 2.300 . S
Cd298 O306 2.381 . S
Cd298 O307 2.378 . S
O299 Cd300 2.385 . S
O299 C304 1.255 . S
Cd300 O299 2.385 . S
Cd300 O301 2.317 . S
O301 Cd300 2.317 . S
O301 C302 1.232 . S
C302 O301 1.232 . S
C302 O303 1.218 . S
O303 C302 1.218 . S
C304 O297 1.275 . S
C304 O299 1.255 . S
C305 O306 1.258 . S
C305 O307 1.256 . S
O306 Cd298 2.381 . S
O306 C305 1.258 . S
O307 Cd298 2.378 . S
O307 C305 1.256 . S
O308 Cd309 2.300 . S
O308 C315 1.275 . S
Cd309 O308 2.300 . S
Cd309 O317 2.381 . S
Cd309 O318 2.378 . S
O310 Cd311 2.385 . S
O310 C315 1.255 . S
Cd311 O310 2.385 . S
Cd311 O312 2.317 . S
O312 Cd311 2.317 . S
O312 C313 1.232 . S
C313 O312 1.232 . S
C313 O314 1.218 . S
O314 C313 1.218 . S
C315 O308 1.275 . S
C315 O310 1.255 . S
C316 O317 1.258 . S
C316 O318 1.256 . S
O317 Cd309 2.381 . S
O317 C316 1.258 . S
O318 Cd309 2.378 . S
O318 C316 1.256 . S
O319 Cd320 2.300 . S
O319 C326 1.275 . S
Cd320 O319 2.300 . S
Cd320 O328 2.381 . S
Cd320 O329 2.378 . S
O321 Cd322 2.385 . S
O321 C326 1.255 . S
Cd322 O321 2.385 . S
Cd322 O323 2.317 . S
O323 Cd322 2.317 . S
O323 C324 1.232 . S
C324 O323 1.232 . S
C324 O325 1.218 . S
O325 C324 1.218 . S
C326 O319 1.275 . S
C326 O321 1.255 . S
C327 O328 1.258 . S
C327 O329 1.256 . S
O328 Cd320 2.381 . S
O328 C327 1.258 . S
O329 Cd320 2.378 . S
O329 C327 1.256 . S
O330 Cd331 2.300 . S
O330 C337 1.275 . S
Cd331 O330 2.300 . S
Cd331 O339 2.381 . S
Cd331 O340 2.378 . S
O332 Cd333 2.385 . S
O332 C337 1.255 . S
Cd333 O332 2.385 . S
Cd333 O334 2.317 . S
O334 Cd333 2.317 . S
O334 C335 1.232 . S
C335 O334 1.232 . S
C335 O336 1.218 . S
O336 C335 1.218 . S
C337 O330 1.275 . S
C337 O332 1.255 . S
C338 O339 1.258 . S
C338 O340 1.256 . S
O339 Cd331 2.381 . S
O339 C338 1.258 . S
O340 Cd331 2.378 . S
O340 C338 1.256 . S
O341 Cd342 2.300 . S
O341 C348 1.275 . S
Cd342 O341 2.300 . S
Cd342 O350 2.381 . S
Cd342 O351 2.378 . S
O343 Cd344 2.385 . S
O343 C348 1.255 . S
Cd344 O343 2.385 . S
Cd344 O345 2.317 . S
O345 Cd344 2.317 . S
O345 C346 1.232 . S
C346 O345 1.232 . S
C346 O347 1.218 . S
O347 C346 1.218 . S
C348 O341 1.275 . S
C348 O343 1.255 . S
C349 O350 1.258 . S
C349 O351 1.256 . S
O350 Cd342 2.381 . S
O350 C349 1.258 . S
O351 Cd342 2.378 . S
O351 C349 1.256 . S
O352 Cd353 2.300 . S
O352 C359 1.275 . S
Cd353 O352 2.300 . S
Cd353 O361 2.381 . S
Cd353 O362 2.378 . S
O354 Cd355 2.385 . S
O354 C359 1.255 . S
Cd355 O354 2.385 . S
Cd355 O356 2.317 . S
O356 Cd355 2.317 . S
O356 C357 1.232 . S
C357 O356 1.232 . S
C357 O358 1.218 . S
O358 C357 1.218 . S
C359 O352 1.275 . S
C359 O354 1.255 . S
C360 O361 1.258 . S
C360 O362 1.256 . S
O361 Cd353 2.381 . S
O361 C360 1.258 . S
O362 Cd353 2.378 . S
O362 C360 1.256 . S
O363 Cd364 2.300 . S
O363 C370 1.275 . S
Cd364 O363 2.300 . S
Cd364 O372 2.381 . S
Cd364 O373 2.378 . S
O365 Cd366 2.385 . S
O365 C370 1.255 . S
Cd366 O365 2.385 . S
Cd366 O367 2.317 . S
O367 Cd366 2.317 . S
O367 C368 1.232 . S
C368 O367 1.232 . S
C368 O369 1.218 . S
O369 C368 1.218 . S
C370 O363 1.275 . S
C370 O365 1.255 . S
C371 O372 1.258 . S
C371 O373 1.256 . S
O372 Cd364 2.381 . S
O372 C371 1.258 . S
O373 Cd364 2.378 . S
O373 C371 1.256 . S
O374 Cd375 2.300 . S
O374 C381 1.275 . S
Cd375 O374 2.300 . S
Cd375 O383 2.381 . S
Cd375 O384 2.378 . S
O376 Cd377 2.385 . S
O376 C381 1.255 . S
Cd377 O376 2.385 . S
Cd377 O378 2.317 . S
O378 Cd377 2.317 . S
O378 C379 1.232 . S
C379 O378 1.232 . S
C379 O380 1.218 . S
O380 C379 1.218 . S
C381 O374 1.275 . S
C381 O376 1.255 . S
C382 O383 1.258 . S
C382 O384 1.256 . S
O383 Cd375 2.381 . S
O383 C382 1.258 . S
O384 Cd375 2.378 . S
O384 C382 1.256 . S
O385 Cd386 2.300 . S
O385 C392 1.275 . S
Cd386 O385 2.300 . S
Cd386 O394 2.381 . S
Cd386 O395 2.378 . S
O387 Cd388 2.385 . S
O387 C392 1.255 . S
Cd388 O387 2.385 . S
Cd388 O389 2.317 . S
O389 Cd388 2.317 . S
O389 C390 1.232 . S
C390 O389 1.232 . S
C390 O391 1.218 . S
O391 C390 1.218 . S
C392 O385 1.275 . S
C392 O387 1.255 . S
C393 O394 1.258 . S
C393 O395 1.256 . S
O394 Cd386 2.381 . S
O394 C393 1.258 . S
O395 Cd386 2.378 . S
O395 C393 1.256 . S
O396 Cd397 2.300 . S
O396 C403 1.275 . S
Cd397 O396 2.300 . S
Cd397 O405 2.381 . S
Cd397 O406 2.378 . S
O398 Cd399 2.385 . S
O398 C403 1.255 . S
Cd399 O398 2.385 . S
Cd399 O400 2.317 . S
O400 Cd399 2.317 . S
O400 C401 1.232 . S
C401 O400 1.232 . S
C401 O402 1.218 . S
O402 C401 1.218 . S
C403 O396 1.275 . S
C403 O398 1.255 . S
C404 O405 1.258 . S
C404 O406 1.256 . S
O405 Cd397 2.381 . S
O405 C404 1.258 . S
O406 Cd397 2.378 . S
O406 C404 1.256 . S
O407 Cd408 2.300 . S
O407 C414 1.275 . S
Cd408 O407 2.300 . S
Cd408 O416 2.381 . S
Cd408 O417 2.378 . S
O409 Cd410 2.385 . S
O409 C414 1.255 . S
Cd410 O409 2.385 . S
Cd410 O411 2.317 . S
O411 Cd410 2.317 . S
O411 C412 1.232 . S
C412 O411 1.232 . S
C412 O413 1.218 . S
O413 C412 1.218 . S
C414 O407 1.275 . S
C414 O409 1.255 . S
C415 O416 1.258 . S
C415 O417 1.256 . S
O416 Cd408 2.381 . S
O416 C415 1.258 . S
O417 Cd408 2.378 . S
O417 C415 1.256 . S
O418 Cd419 2.300 . S
O418 C425 1.275 . S
Cd419 O418 2.300 . S
Cd419 O427 2.381 . S
Cd419 O428 2.378 . S
O420 Cd421 2.385 . S
O420 C425 1.255 . S
Cd421 O420 2.385 . S
Cd421 O422 2.317 . S
O422 Cd421 2.317 . S
O422 C423 1.232 . S
C423 O422 1.232 . S
C423 O424 1.218 . S
O424 C423 1.218 . S
C425 O418 1.275 . S
C425 O420 1.255 . S
C426 O427 1.258 . S
C426 O428 1.256 . S
O427 Cd419 2.381 . S
O427 C426 1.258 . S
O428 Cd419 2.378 . S
O428 C426 1.256 . S
O429 Cd430 2.300 . S
O429 C436 1.275 . S
Cd430 O429 2.300 . S
Cd430 O438 2.381 . S
Cd430 O439 2.378 . S
O431 Cd432 2.385 . S
O431 C436 1.255 . S
Cd432 O431 2.385 . S
Cd432 O433 2.317 . S
O433 Cd432 2.317 . S
O433 C434 1.232 . S
C434 O433 1.232 . S
C434 O435 1.218 . S
O435 C434 1.218 . S
C436 O429 1.275 . S
C436 O431 1.255 . S
C437 O438 1.258 . S
C437 O439 1.256 . S
O438 Cd430 2.381 . S
O438 C437 1.258 . S
O439 Cd430 2.378 . S
O439 C437 1.256 . S
O440 Cd441 2.300 . S
O440 C447 1.275 . S
Cd441 O440 2.300 . S
Cd441 O449 2.381 . S
Cd441 O450 2.378 . S
O442 Cd443 2.385 . S
O442 C447 1.255 . S
Cd443 O442 2.385 . S
Cd443 O444 2.317 . S
O444 Cd443 2.317 . S
O444 C445 1.232 . S
C445 O444 1.232 . S
C445 O446 1.218 . S
O446 C445 1.218 . S
C447 O440 1.275 . S
C447 O442 1.255 . S
C448 O449 1.258 . S
C448 O450 1.256 . S
O449 Cd441 2.381 . S
O449 C448 1.258 . S
O450 Cd441 2.378 . S
O450 C448 1.256 . S
O451 Cd452 2.300 . S
O451 C458 1.275 . S
Cd452 O451 2.300 . S
Cd452 O460 2.381 . S
Cd452 O461 2.378 . S
O453 Cd454 2.385 . S
O453 C458 1.255 . S
Cd454 O453 2.385 . S
Cd454 O455 2.317 . S
O455 Cd454 2.317 . S
O455 C456 1.232 . S
C456 O455 1.232 . S
C456 O457 1.218 . S
O457 C456 1.218 . S
C458 O451 1.275 . S
C458 O453 1.255 . S
C459 O460 1.258 . S
C459 O461 1.256 . S
O460 Cd452 2.381 . S
O460 C459 1.258 . S
O461 Cd452 2.378 . S
O461 C459 1.256 . S
O462 Cd463 2.300 . S
O462 C469 1.275 . S
Cd463 O462 2.300 . S
Cd463 O471 2.381 . S
Cd463 O472 2.378 . S
O464 Cd465 2.385 . S
O464 C469 1.255 . S
Cd465 O464 2.385 . S
Cd465 O466 2.317 . S
O466 Cd465 2.317 . S
O466 C467 1.232 . S
C467 O466 1.232 . S
C467 O468 1.218 . S
O468 C467 1.218 . S
C469 O462 1.275 . S
C469 O464 1.255 . S
C470 O471 1.258 . S
C470 O472 1.256 . S
O471 Cd463 2.381 . S
O471 C470 1.258 . S
O472 Cd463 2.378 . S
O472 C470 1.256 . S
O473 Cd474 2.300 . S
O473 C480 1.275 . S
Cd474 O473 2.300 . S
Cd474 O482 2.381 . S
Cd474 O483 2.378 . S
O475 Cd476 2.385 . S
O475 C480 1.255 . S
Cd476 O475 2.385 . S
Cd476 O477 2.317 . S
O477 Cd476 2.317 . S
O477 C478 1.232 . S
C478 O477 1.232 . S
C478 O479 1.218 . S
O479 C478 1.218 . S
C480 O473 1.275 . S
C480 O475 1.255 . S
C481 O482 1.258 . S
C481 O483 1.256 . S
O482 Cd474 2.381 . S
O482 C481 1.258 . S
O483 Cd474 2.378 . S
O483 C481 1.256 . S
O484 Cd485 2.300 . S
O484 C491 1.275 . S
Cd485 O484 2.300 . S
Cd485 O493 2.381 . S
Cd485 O494 2.378 . S
O486 Cd487 2.385 . S
O486 C491 1.255 . S
Cd487 O486 2.385 . S
Cd487 O488 2.317 . S
O488 Cd487 2.317 . S
O488 C489 1.232 . S
C489 O488 1.232 . S
C489 O490 1.218 . S
O490 C489 1.218 . S
C491 O484 1.275 . S
C491 O486 1.255 . S
C492 O493 1.258 . S
C492 O494 1.256 . S
O493 Cd485 2.381 . S
O493 C492 1.258 . S
O494 Cd485 2.378 . S
O494 C492 1.256 . S
O495 Cd496 2.300 . S
O495 C502 1.275 . S
Cd496 O495 2.300 . S
Cd496 O504 2.381 . S
Cd496 O505 2.378 . S
O497 Cd498 2.385 . S
O497 C502 1.255 . S
Cd498 O497 2.385 . S
Cd498 O499 2.317 . S
O499 Cd498 2.317 . S
O499 C500 1.232 . S
C500 O499 1.232 . S
C500 O501 1.218 . S
O501 C500 1.218 . S
C502 O495 1.275 . S
C502 O497 1.255 . S
C503 O504 1.258 . S
C503 O505 1.256 . S
O504 Cd496 2.381 . S
O504 C503 1.258 . S
O505 Cd496 2.378 . S
O505 C503 1.256 . S
O506 Cd507 2.300 . S
O506 C513 1.275 . S
Cd507 O506 2.300 . S
Cd507 O515 2.381 . S
Cd507 O516 2.378 . S
O508 Cd509 2.385 . S
O508 C513 1.255 . S
Cd509 O508 2.385 . S
Cd509 O510 2.317 . S
O510 Cd509 2.317 . S
O510 C511 1.232 . S
C511 O510 1.232 . S
C511 O512 1.218 . S
O512 C511 1.218 . S
C513 O506 1.275 . S
C513 O508 1.255 . S
C514 O515 1.258 . S
C514 O516 1.256 . S
O515 Cd507 2.381 . S
O515 C514 1.258 . S
O516 Cd507 2.378 . S
O516 C514 1.256 . S
O517 Cd518 2.300 . S
O517 C524 1.275 . S
Cd518 O517 2.300 . S
Cd518 O526 2.381 . S
Cd518 O527 2.378 . S
O519 Cd520 2.385 . S
O519 C524 1.255 . S
Cd520 O519 2.385 . S
Cd520 O521 2.317 . S
O521 Cd520 2.317 . S
O521 C522 1.232 . S
C522 O521 1.232 . S
C522 O523 1.218 . S
O523 C522 1.218 . S
C524 O517 1.275 . S
C524 O519 1.255 . S
C525 O526 1.258 . S
C525 O527 1.256 . S
O526 Cd518 2.381 . S
O526 C525 1.258 . S
O527 Cd518 2.378 . S
O527 C525 1.256 . S
O528 Cd529 2.300 . S
O528 C535 1.275 . S
Cd529 O528 2.300 . S
Cd529 O537 2.381 . S
Cd529 O538 2.378 . S
O530 Cd531 2.385 . S
O530 C535 1.255 . S
Cd531 O530 2.385 . S
Cd531 O532 2.317 . S
O532 Cd531 2.317 . S
O532 C533 1.232 . S
C533 O532 1.232 . S
C533 O534 1.218 . S
O534 C533 1.218 . S
C535 O528 1.275 . S
C535 O530 1.255 . S
C536 O537 1.258 . S
C536 O538 1.256 . S
O537 Cd529 2.381 . S
O537 C536 1.258 . S
O538 Cd529 2.378 . S
O538 C536 1.256 . S
O539 Cd540 2.300 . S
O539 C546 1.275 . S
Cd540 O539 2.300 . S
Cd540 O548 2.381 . S
Cd540 O549 2.378 . S
O541 Cd542 2.385 . S
O541 C546 1.255 . S
Cd542 O541 2.385 . S
Cd542 O543 2.317 . S
O543 Cd542 2.317 . S
O543 C544 1.232 . S
C544 O543 1.232 . S
C544 O545 1.218 . S
O545 C544 1.218 . S
C546 O539 1.275 . S
C546 O541 1.255 . S
C547 O548 1.258 . S
C547 O549 1.256 . S
O548 Cd540 2.381 . S
O548 C547 1.258 . S
O549 Cd540 2.378 . S
O549 C547 1.256 . S
O550 Cd551 2.300 . S
O550 C557 1.275 . S
Cd551 O550 2.300 . S
Cd551 O559 2.381 . S
Cd551 O560 2.378 . S
O552 Cd553 2.385 . S
O552 C557 1.255 . S
Cd553 O552 2.385 . S
Cd553 O554 2.317 . S
O554 Cd553 2.317 . S
O554 C555 1.232 . S
C555 O554 1.232 . S
C555 O556 1.218 . S
O556 C555 1.218 . S
C557 O550 1.275 . S
C557 O552 1.255 . S
C558 O559 1.258 . S
C558 O560 1.256 . S
O559 Cd551 2.381 . S
O559 C558 1.258 . S
O560 Cd551 2.378 . S
O560 C558 1.256 . S
O561 Cd562 2.300 . S
O561 C568 1.275 . S
Cd562 O561 2.300 . S
Cd562 O570 2.381 . S
Cd562 O571 2.378 . S
O563 Cd564 2.385 . S
O563 C568 1.255 . S
Cd564 O563 2.385 . S
Cd564 O565 2.317 . S
O565 Cd564 2.317 . S
O565 C566 1.232 . S
C566 O565 1.232 . S
C566 O567 1.218 . S
O567 C566 1.218 . S
C568 O561 1.275 . S
C568 O563 1.255 . S
C569 O570 1.258 . S
C569 O571 1.256 . S
O570 Cd562 2.381 . S
O570 C569 1.258 . S
O571 Cd562 2.378 . S
O571 C569 1.256 . S
O572 Cd573 2.300 . S
O572 C579 1.275 . S
Cd573 O572 2.300 . S
Cd573 O581 2.381 . S
Cd573 O582 2.378 . S
O574 Cd575 2.385 . S
O574 C579 1.255 . S
Cd575 O574 2.385 . S
Cd575 O576 2.317 . S
O576 Cd575 2.317 . S
O576 C577 1.232 . S
C577 O576 1.232 . S
C577 O578 1.218 . S
O578 C577 1.218 . S
C579 O572 1.275 . S
C579 O574 1.255 . S
C580 O581 1.258 . S
C580 O582 1.256 . S
O581 Cd573 2.381 . S
O581 C580 1.258 . S
O582 Cd573 2.378 . S
O582 C580 1.256 . S
O583 Cd584 2.300 . S
O583 C590 1.275 . S
Cd584 O583 2.300 . S
Cd584 O592 2.381 . S
Cd584 O593 2.378 . S
O585 Cd586 2.385 . S
O585 C590 1.255 . S
Cd586 O585 2.385 . S
Cd586 O587 2.317 . S
O587 Cd586 2.317 . S
O587 C588 1.232 . S
C588 O587 1.232 . S
C588 O589 1.218 . S
O589 C588 1.218 . S
C590 O583 1.275 . S
C590 O585 1.255 . S
C591 O592 1.258 . S
C591 O593 1.256 . S
O592 Cd584 2.381 . S
O592 C591 1.258 . S
O593 Cd584 2.378 . S
O593 C591 1.256 . S
O594 Cd595 2.300 . S
O594 C601 1.275 . S
Cd595 O594 2.300 . S
Cd595 O603 2.381 . S
Cd595 O604 2.378 . S
O596 Cd597 2.385 . S
O596 C601 1.255 . S
Cd597 O596 2.385 . S
Cd597 O598 2.317 . S
O598 Cd597 2.317 . S
O598 C599 1.232 . S
C599 O598 1.232 . S
C599 O600 1.218 . S
O600 C599 1.218 . S
C601 O594 1.275 . S
C601 O596 1.255 . S
C602 O603 1.258 . S
C602 O604 1.256 . S
O603 Cd595 2.381 . S
O603 C602 1.258 . S
O604 Cd595 2.378 . S
O604 C602 1.256 . S
O605 Cd606 2.300 . S
O605 C612 1.275 . S
Cd606 O605 2.300 . S
Cd606 O614 2.381 . S
Cd606 O615 2.378 . S
O607 Cd608 2.385 . S
O607 C612 1.255 . S
Cd608 O607 2.385 . S
Cd608 O609 2.317 . S
O609 Cd608 2.317 . S
O609 C610 1.232 . S
C610 O609 1.232 . S
C610 O611 1.218 . S
O611 C610 1.218 . S
C612 O605 1.275 . S
C612 O607 1.255 . S
C613 O614 1.258 . S
C613 O615 1.256 . S
O614 Cd606 2.381 . S
O614 C613 1.258 . S
O615 Cd606 2.378 . S
O615 C613 1.256 . S
O616 Cd617 2.300 . S
O616 C623 1.275 . S
Cd617 O616 2.300 . S
Cd617 O625 2.381 . S
Cd617 O626 2.378 . S
O618 Cd619 2.385 . S
O618 C623 1.255 . S
Cd619 O618 2.385 . S
Cd619 O620 2.317 . S
O620 Cd619 2.317 . S
O620 C621 1.232 . S
C621 O620 1.232 . S
C621 O622 1.218 . S
O622 C621 1.218 . S
C623 O616 1.275 . S
C623 O618 1.255 . S
C624 O625 1.258 . S
C624 O626 1.256 . S
O625 Cd617 2.381 . S
O625 C624 1.258 . S
O626 Cd617 2.378 . S
O626 C624 1.256 . S
O627 Cd628 2.300 . S
O627 C634 1.275 . S
Cd628 O627 2.300 . S
Cd628 O636 2.381 . S
Cd628 O637 2.378 . S
O629 Cd630 2.385 . S
O629 C634 1.255 . S
Cd630 O629 2.385 . S
Cd630 O631 2.317 . S
O631 Cd630 2.317 . S
O631 C632 1.232 . S
C632 O631 1.232 . S
C632 O633 1.218 . S
O633 C632 1.218 . S
C634 O627 1.275 . S
C634 O629 1.255 . S
C635 O636 1.258 . S
C635 O637 1.256 . S
O636 Cd628 2.381 . S
O636 C635 1.258 . S
O637 Cd628 2.378 . S
O637 C635 1.256 . S
O638 Cd639 2.300 . S
O638 C645 1.275 . S
Cd639 O638 2.300 . S
Cd639 O647 2.381 . S
Cd639 O648 2.378 . S
O640 Cd641 2.385 . S
O640 C645 1.255 . S
Cd641 O640 2.385 . S
Cd641 O642 2.317 . S
O642 Cd641 2.317 . S
O642 C643 1.232 . S
C643 O642 1.232 . S
C643 O644 1.218 . S
O644 C643 1.218 . S
C645 O638 1.275 . S
C645 O640 1.255 . S
C646 O647 1.258 . S
C646 O648 1.256 . S
O647 Cd639 2.381 . S
O647 C646 1.258 . S
O648 Cd639 2.378 . S
O648 C646 1.256 . S
O649 Cd650 2.300 . S
O649 C656 1.275 . S
Cd650 O649 2.300 . S
Cd650 O658 2.381 . S
Cd650 O659 2.378 . S
O651 Cd652 2.385 . S
O651 C656 1.255 . S
Cd652 O651 2.385 . S
Cd652 O653 2.317 . S
O653 Cd652 2.317 . S
O653 C654 1.232 . S
C654 O653 1.232 . S
C654 O655 1.218 . S
O655 C654 1.218 . S
C656 O649 1.275 . S
C656 O651 1.255 . S
C657 O658 1.258 . S
C657 O659 1.256 . S
O658 Cd650 2.381 . S
O658 C657 1.258 . S
O659 Cd650 2.378 . S
O659 C657 1.256 . S
O660 Cd661 2.300 . S
O660 C667 1.275 . S
Cd661 O660 2.300 . S
Cd661 O669 2.381 . S
Cd661 O670 2.378 . S
O662 Cd663 2.385 . S
O662 C667 1.255 . S
Cd663 O662 2.385 . S
Cd663 O664 2.317 . S
O664 Cd663 2.317 . S
O664 C665 1.232 . S
C665 O664 1.232 . S
C665 O666 1.218 . S
O666 C665 1.218 . S
C667 O660 1.275 . S
C667 O662 1.255 . S
C668 O669 1.258 . S
C668 O670 1.256 . S
O669 Cd661 2.381 . S
O669 C668 1.258 . S
O670 Cd661 2.378 . S
O670 C668 1.256 . S
O671 Cd672 2.300 . S
O671 C678 1.275 . S
Cd672 O671 2.300 . S
Cd672 O680 2.381 . S
Cd672 O681 2.378 . S
O673 Cd674 2.385 . S
O673 C678 1.255 . S
Cd674 O673 2.385 . S
Cd674 O675 2.317 . S
O675 Cd674 2.317 . S
O675 C676 1.232 . S
C676 O675 1.232 . S
C676 O677 1.218 . S
O677 C676 1.218 . S
C678 O671 1.275 . S
C678 O673 1.255 . S
C679 O680 1.258 . S
C679 O681 1.256 . S
O680 Cd672 2.381 . S
O680 C679 1.258 . S
O681 Cd672 2.378 . S
O681 C679 1.256 . S
O682 Cd683 2.300 . S
O682 C689 1.275 . S
Cd683 O682 2.300 . S
Cd683 O691 2.381 . S
Cd683 O692 2.378 . S
O684 Cd685 2.385 . S
O684 C689 1.255 . S
Cd685 O684 2.385 . S
Cd685 O686 2.317 . S
O686 Cd685 2.317 . S
O686 C687 1.232 . S
C687 O686 1.232 . S
C687 O688 1.218 . S
O688 C687 1.218 . S
C689 O682 1.275 . S
C689 O684 1.255 . S
C690 O691 1.258 . S
C690 O692 1.256 . S
O691 Cd683 2.381 . S
O691 C690 1.258 . S
O692 Cd683 2.378 . S
O692 C690 1.256 . S
O693 Cd694 2.300 . S
O693 C700 1.275 . S
Cd694 O693 2.300 . S
Cd694 O702 2.381 . S
Cd694 O703 2.378 . S
O695 Cd696 2.385 . S
O695 C700 1.255 . S
Cd696 O695 2.385 . S
Cd696 O697 2.317 . S
O697 Cd696 2.317 . S
O697 C698 1.232 . S
C698 O697 1.232 . S
C698 O699 1.218 . S
O699 C698 1.218 . S
C700 O693 1.275 . S
C700 O695 1.255 . S
C701 O702 1.258 . S
C701 O703 1.256 . S
O702 Cd694 2.381 . S
O702 C701 1.258 . S
O703 Cd694 2.378 . S
O703 C701 1.256 . S
O704 Cd705 2.300 . S
O704 C711 1.275 . S
Cd705 O704 2.300 . S
Cd705 O713 2.381 . S
Cd705 O714 2.378 . S
O706 Cd707 2.385 . S
O706 C711 1.255 . S
Cd707 O706 2.385 . S
Cd707 O708 2.317 . S
O708 Cd707 2.317 . S
O708 C709 1.232 . S
C709 O708 1.232 . S
C709 O710 1.218 . S
O710 C709 1.218 . S
C711 O704 1.275 . S
C711 O706 1.255 . S
C712 O713 1.258 . S
C712 O714 1.256 . S
O713 Cd705 2.381 . S
O713 C712 1.258 . S
O714 Cd705 2.378 . S
O714 C712 1.256 . S
O715 Cd716 2.300 . S
O715 C722 1.275 . S
Cd716 O715 2.300 . S
Cd716 O724 2.381 . S
Cd716 O725 2.378 . S
O717 Cd718 2.385 . S
O717 C722 1.255 . S
Cd718 O717 2.385 . S
Cd718 O719 2.317 . S
O719 Cd718 2.317 . S
O719 C720 1.232 . S
C720 O719 1.232 . S
C720 O721 1.218 . S
O721 C720 1.218 . S
C722 O715 1.275 . S
C722 O717 1.255 . S
C723 O724 1.258 . S
C723 O725 1.256 . S
O724 Cd716 2.381 . S
O724 C723 1.258 . S
O725 Cd716 2.378 . S
O725 C723 1.256 . S
O726 Cd727 2.300 . S
O726 C733 1.275 . S
Cd727 O726 2.300 . S
Cd727 O735 2.381 . S
Cd727 O736 2.378 . S
O728 Cd729 2.385 . S
O728 C733 1.255 . S
Cd729 O728 2.385 . S
Cd729 O730 2.317 . S
O730 Cd729 2.317 . S
O730 C731 1.232 . S
C731 O730 1.232 . S
C731 O732 1.218 . S
O732 C731 1.218 . S
C733 O726 1.275 . S
C733 O728 1.255 . S
C734 O735 1.258 . S
C734 O736 1.256 . S
O735 Cd727 2.381 . S
O735 C734 1.258 . S
O736 Cd727 2.378 . S
O736 C734 1.256 . S
O737 Cd738 2.300 . S
O737 C744 1.275 . S
Cd738 O737 2.300 . S
Cd738 O746 2.381 . S
Cd738 O747 2.378 . S
O739 Cd740 2.385 . S
O739 C744 1.255 . S
Cd740 O739 2.385 . S
Cd740 O741 2.317 . S
O741 Cd740 2.317 . S
O741 C742 1.232 . S
C742 O741 1.232 . S
C742 O743 1.218 . S
O743 C742 1.218 . S
C744 O737 1.275 . S
C744 O739 1.255 . S
C745 O746 1.258 . S
C745 O747 1.256 . S
O746 Cd738 2.381 . S
O746 C745 1.258 . S
O747 Cd738 2.378 . S
O747 C745 1.256 . S
O748 Cd749 2.300 . S
O748 C755 1.275 . S
Cd749 O748 2.300 . S
Cd749 O757 2.381 . S
Cd749 O758 2.378 . S
O750 Cd751 2.385 . S
O750 C755 1.255 . S
Cd751 O750 2.385 . S
Cd751 O752 2.317 . S
O752 Cd751 2.317 . S
O752 C753 1.232 . S
C753 O752 1.232 . S
C753 O754 1.218 . S
O754 C753 1.218 . S
C755 O748 1.275 . S
C755 O750 1.255 . S
C756 O757 1.258 . S
C756 O758 1.256 . S
O757 Cd749 2.381 . S
O757 C756 1.258 . S
O758 Cd749 2.378 . S
O758 C756 1.256 . S
O759 Cd760 2.300 . S
O759 C766 1.275 . S
Cd760 O759 2.300 . S
Cd760 O768 2.381 . S
Cd760 O769 2.378 . S
O761 Cd762 2.385 . S
O761 C766 1.255 . S
Cd762 O761 2.385 . S
Cd762 O763 2.317 . S
O763 Cd762 2.317 . S
O763 C764 1.232 . S
C764 O763 1.232 . S
C764 O765 1.218 . S
O765 C764 1.218 . S
C766 O759 1.275 . S
C766 O761 1.255 . S
C767 O768 1.258 . S
C767 O769 1.256 . S
O768 Cd760 2.381 . S
O768 C767 1.258 . S
O769 Cd760 2.378 . S
O769 C767 1.256 . S
O770 Cd771 2.300 . S
O770 C777 1.275 . S
Cd771 O770 2.300 . S
Cd771 O779 2.381 . S
Cd771 O780 2.378 . S
O772 Cd773 2.385 . S
O772 C777 1.255 . S
Cd773 O772 2.385 . S
Cd773 O774 2.317 . S
O774 Cd773 2.317 . S
O774 C775 1.232 . S
C775 O774 1.232 . S
C775 O776 1.218 . S
O776 C775 1.218 . S
C777 O770 1.275 . S
C777 O772 1.255 . S
C778 O779 1.258 . S
C778 O780 1.256 . S
O779 Cd771 2.381 . S
O779 C778 1.258 . S
O780 Cd771 2.378 . S
O780 C778 1.256 . S
O781 Cd782 2.300 . S
O781 C788 1.275 . S
Cd782 O781 2.300 . S
Cd782 O790 2.381 . S
Cd782 O791 2.378 . S
O783 Cd784 2.385 . S
O783 C788 1.255 . S
Cd784 O783 2.385 . S
Cd784 O785 2.317 . S
O785 Cd784 2.317 . S
O785 C786 1.232 . S
C786 O785 1.232 . S
C786 O787 1.218 . S
O787 C786 1.218 . S
C788 O781 1.275 . S
C788 O783 1.255 . S
C789 O790 1.258 . S
C789 O791 1.256 . S
O790 Cd782 2.381 . S
O790 C789 1.258 . S
O791 Cd782 2.378 . S
O791 C789 1.256 . S
O792 Cd793 2.300 . S
O792 C799 1.275 . S
Cd793 O792 2.300 . S
Cd793 O801 2.381 . S
Cd793 O802 2.378 . S
O794 Cd795 2.385 . S
O794 C799 1.255 . S
Cd795 O794 2.385 . S
Cd795 O796 2.317 . S
O796 Cd795 2.317 . S
O796 C797 1.232 . S
C797 O796 1.232 . S
C797 O798 1.218 . S
O798 C797 1.218 . S
C799 O792 1.275 . S
C799 O794 1.255 . S
C800 O801 1.258 . S
C800 O802 1.256 . S
O801 Cd793 2.381 . S
O801 C800 1.258 . S
O802 Cd793 2.378 . S
O802 C800 1.256 . S
O803 Cd804 2.300 . S
O803 C810 1.275 . S
Cd804 O803 2.300 . S
Cd804 O812 2.381 . S
Cd804 O813 2.378 . S
O805 Cd806 2.385 . S
O805 C810 1.255 . S
Cd806 O805 2.385 . S
Cd806 O807 2.317 . S
O807 Cd806 2.317 . S
O807 C808 1.232 . S
C808 O807 1.232 . S
C808 O809 1.218 . S
O809 C808 1.218 . S
C810 O803 1.275 . S
C810 O805 1.255 . S
C811 O812 1.258 . S
C811 O813 1.256 . S
O812 Cd804 2.381 . S
O812 C811 1.258 . S
O813 Cd804 2.378 . S
O813 C811 1.256 . S
O814 Cd815 2.300 . S
O814 C821 1.275 . S
Cd815 O814 2.300 . S
Cd815 O823 2.381 . S
Cd815 O824 2.378 . S
O816 Cd817 2.385 . S
O816 C821 1.255 . S
Cd817 O816 2.385 . S
Cd817 O818 2.317 . S
O818 Cd817 2.317 . S
O818 C819 1.232 . S
C819 O818 1.232 . S
C819 O820 1.218 . S
O820 C819 1.218 . S
C821 O814 1.275 . S
C821 O816 1.255 . S
C822 O823 1.258 . S
C822 O824 1.256 . S
O823 Cd815 2.381 . S
O823 C822 1.258 . S
O824 Cd815 2.378 . S
O824 C822 1.256 . S
O825 Cd826 2.300 . S
O825 C832 1.275 . S
Cd826 O825 2.300 . S
Cd826 O834 2.381 . S
Cd826 O835 2.378 . S
O827 Cd828 2.385 . S
O827 C832 1.255 . S
Cd828 O827 2.385 . S
Cd828 O829 2.317 . S
O829 Cd828 2.317 . S
O829 C830 1.232 . S
C830 O829 1.232 . S
C830 O831 1.218 . S
O831 C830 1.218 . S
C832 O825 1.275 . S
C832 O827 1.255 . S
C833 O834 1.258 . S
C833 O835 1.256 . S
O834 Cd826 2.381 . S
O834 C833 1.258 . S
O835 Cd826 2.378 . S
O835 C833 1.256 . S
O836 Cd837 2.300 . S
O836 C843 1.275 . S
Cd837 O836 2.300 . S
Cd837 O845 2.381 . S
Cd837 O846 2.378 . S
O838 Cd839 2.385 . S
O838 C843 1.255 . S
Cd839 O838 2.385 . S
Cd839 O840 2.317 . S
O840 Cd839 2.317 . S
O840 C841 1.232 . S
C841 O840 1.232 . S
C841 O842 1.218 . S
O842 C841 1.218 . S
C843 O836 1.275 . S
C843 O838 1.255 . S
C844 O845 1.258 . S
C844 O846 1.256 . S
O845 Cd837 2.381 . S
O845 C844 1.258 . S
O846 Cd837 2.378 . S
O846 C844 1.256 . S
O847 Cd848 2.300 . S
O847 C854 1.275 . S
Cd848 O847 2.300 . S
Cd848 O856 2.381 . S
Cd848 O857 2.378 . S
O849 Cd850 2.385 . S
O849 C854 1.255 . S
Cd850 O849 2.385 . S
Cd850 O851 2.317 . S
O851 Cd850 2.317 . S
O851 C852 1.232 . S
C852 O851 1.232 . S
C852 O853 1.218 . S
O853 C852 1.218 . S
C854 O847 1.275 . S
C854 O849 1.255 . S
C855 O856 1.258 . S
C855 O857 1.256 . S
O856 Cd848 2.381 . S
O856 C855 1.258 . S
O857 Cd848 2.378 . S
O857 C855 1.256 . S
O858 Cd859 2.300 . S
O858 C865 1.275 . S
Cd859 O858 2.300 . S
Cd859 O867 2.381 . S
Cd859 O868 2.378 . S
O860 Cd861 2.385 . S
O860 C865 1.255 . S
Cd861 O860 2.385 . S
Cd861 O862 2.317 . S
O862 Cd861 2.317 . S
O862 C863 1.232 . S
C863 O862 1.232 . S
C863 O864 1.218 . S
O864 C863 1.218 . S
C865 O858 1.275 . S
C865 O860 1.255 . S
C866 O867 1.258 . S
C866 O868 1.256 . S
O867 Cd859 2.381 . S
O867 C866 1.258 . S
O868 Cd859 2.378 . S
O868 C866 1.256 . S
O869 Cd870 2.300 . S
O869 C876 1.275 . S
Cd870 O869 2.300 . S
Cd870 O878 2.381 . S
Cd870 O879 2.378 . S
O871 Cd872 2.385 . S
O871 C876 1.255 . S
Cd872 O871 2.385 . S
Cd872 O873 2.317 . S
O873 Cd872 2.317 . S
O873 C874 1.232 . S
C874 O873 1.232 . S
C874 O875 1.218 . S
O875 C874 1.218 . S
C876 O869 1.275 . S
C876 O871 1.255 . S
C877 O878 1.258 . S
C877 O879 1.256 . S
O878 Cd870 2.381 . S
O878 C877 1.258 . S
O879 Cd870 2.378 . S
O879 C877 1.256 . S
O880 Cd881 2.300 . S
O880 C887 1.275 . S
Cd881 O880 2.300 . S
Cd881 O889 2.381 . S
Cd881 O890 2.378 . S
O882 Cd883 2.385 . S
O882 C887 1.255 . S
Cd883 O882 2.385 . S
Cd883 O884 2.317 . S
O884 Cd883 2.317 . S
O884 C885 1.232 . S
C885 O884 1.232 . S
C885 O886 1.218 . S
O886 C885 1.218 . S
C887 O880 1.275 . S
C887 O882 1.255 . S
C888 O889 1.258 . S
C888 O890 1.256 . S
O889 Cd881 2.381 . S
O889 C888 1.258 . S
O890 Cd881 2.378 . S
O890 C888 1.256 . S
O891 Cd892 2.300 . S
O891 C898 1.275 . S
Cd892 O891 2.300 . S
Cd892 O900 2.381 . S
Cd892 O901 2.378 . S
O893 Cd894 2.385 . S
O893 C898 1.255 . S
Cd894 O893 2.385 . S
Cd894 O895 2.317 . S
O895 Cd894 2.317 . S
O895 C896 1.232 . S
C896 O895 1.232 . S
C896 O897 1.218 . S
O897 C896 1.218 . S
C898 O891 1.275 . S
C898 O893 1.255 . S
C899 O900 1.258 . S
C899 O901 1.256 . S
O900 Cd892 2.381 . S
O900 C899 1.258 . S
O901 Cd892 2.378 . S
O901 C899 1.256 . S
O902 Cd903 2.300 . S
O902 C909 1.275 . S
Cd903 O902 2.300 . S
Cd903 O911 2.381 . S
Cd903 O912 2.378 . S
O904 Cd905 2.385 . S
O904 C909 1.255 . S
Cd905 O904 2.385 . S
Cd905 O906 2.317 . S
O906 Cd905 2.317 . S
O906 C907 1.232 . S
C907 O906 1.232 . S
C907 O908 1.218 . S
O908 C907 1.218 . S
C909 O902 1.275 . S
C909 O904 1.255 . S
C910 O911 1.258 . S
C910 O912 1.256 . S
O911 Cd903 2.381 . S
O911 C910 1.258 . S
O912 Cd903 2.378 . S
O912 C910 1.256 . S
O913 Cd914 2.300 . S
O913 C920 1.275 . S
Cd914 O913 2.300 . S
Cd914 O922 2.381 . S
Cd914 O923 2.378 . S
O915 Cd916 2.385 . S
O915 C920 1.255 . S
Cd916 O915 2.385 . S
Cd916 O917 2.317 . S
O917 Cd916 2.317 . S
O917 C918 1.232 . S
C918 O917 1.232 . S
C918 O919 1.218 . S
O919 C918 1.218 . S
C920 O913 1.275 . S
C920 O915 1.255 . S
C921 O922 1.258 . S
C921 O923 1.256 . S
O922 Cd914 2.381 . S
O922 C921 1.258 . S
O923 Cd914 2.378 . S
O923 C921 1.256 . S
O924 Cd925 2.300 . S
O924 C931 1.275 . S
Cd925 O924 2.300 . S
Cd925 O933 2.381 . S
Cd925 O934 2.378 . S
O926 Cd927 2.385 . S
O926 C931 1.255 . S
Cd927 O926 2.385 . S
Cd927 O928 2.317 . S
O928 Cd927 2.317 . S
O928 C929 1.232 . S
C929 O928 1.232 . S
C929 O930 1.218 . S
O930 C929 1.218 . S
C931 O924 1.275 . S
C931 O926 1.255 . S
C932 O933 1.258 . S
C932 O934 1.256 . S
O933 Cd925 2.381 . S
O933 C932 1.258 . S
O934 Cd925 2.378 . S
O934 C932 1.256 . S
O935 Cd936 2.300 . S
O935 C942 1.275 . S
Cd936 O935 2.300 . S
Cd936 O944 2.381 . S
Cd936 O945 2.378 . S
O937 Cd938 2.385 . S
O937 C942 1.255 . S
Cd938 O937 2.385 . S
Cd938 O939 2.317 . S
O939 Cd938 2.317 . S
O939 C940 1.232 . S
C940 O939 1.232 . S
C940 O941 1.218 . S
O941 C940 1.218 . S
C942 O935 1.275 . S
C942 O937 1.255 . S
C943 O944 1.258 . S
C943 O945 1.256 . S
O944 Cd936 2.381 . S
O944 C943 1.258 . S
O945 Cd936 2.378 . S
O945 C943 1.256 . S
O946 Cd947 2.300 . S
O946 C953 1.275 . S
Cd947 O946 2.300 . S
Cd947 O955 2.381 . S
Cd947 O956 2.378 . S
O948 Cd949 2.385 . S
O948 C953 1.255 . S
Cd949 O948 2.385 . S
Cd949 O950 2.317 . S
O950 Cd949 2.317 . S
O950 C951 1.232 . S
C951 O950 1.232 . S
C951 O952 1.218 . S
O952 C951 1.218 . S
C953 O946 1.275 . S
C953 O948 1.255 . S
C954 O955 1.258 . S
C954 O956 1.256 . S
O955 Cd947 2.381 . S
O955 C954 1.258 . S
O956 Cd947 2.378 . S
O956 C954 1.256 . S
O957 Cd958 2.300 . S
O957 C964 1.275 . S
Cd958 O957 2.300 . S
Cd958 O966 2.381 . S
Cd958 O967 2.378 . S
O959 Cd960 2.385 . S
O959 C964 1.255 . S
Cd960 O959 2.385 . S
Cd960 O961 2.317 . S
O961 Cd960 2.317 . S
O961 C962 1.232 . S
C962 O961 1.232 . S
C962 O963 1.218 . S
O963 C962 1.218 . S
C964 O957 1.275 . S
C964 O959 1.255 . S
C965 O966 1.258 . S
C965 O967 1.256 . S
O966 Cd958 2.381 . S
O966 C965 1.258 . S
O967 Cd958 2.378 . S
O967 C965 1.256 . S
O968 Cd969 2.300 . S
O968 C975 1.275 . S
Cd969 O968 2.300 . S
Cd969 O977 2.381 . S
Cd969 O978 2.378 . S
O970 Cd971 2.385 . S
O970 C975 1.255 . S
Cd971 O970 2.385 . S
Cd971 O972 2.317 . S
O972 Cd971 2.317 . S
O972 C973 1.232 . S
C973 O972 1.232 . S
C973 O974 1.218 . S
O974 C973 1.218 . S
C975 O968 1.275 . S
C975 O970 1.255 . S
C976 O977 1.258 . S
C976 O978 1.256 . S
O977 Cd969 2.381 . S
O977 C976 1.258 . S
O978 Cd969 2.378 . S
O978 C976 1.256 . S
O979 Cd980 2.300 . S
O979 C986 1.275 . S
Cd980 O979 2.300 . S
Cd980 O988 2.381 . S
Cd980 O989 2.378 . S
O981 Cd982 2.385 . S
O981 C986 1.255 . S
Cd982 O981 2.385 . S
Cd982 O983 2.317 . S
O983 Cd982 2.317 . S
O983 C984 1.232 . S
C984 O983 1.232 . S
C984 O985 1.218 . S
O985 C984 1.218 . S
C986 O979 1.275 . S
C986 O981 1.255 . S
C987 O988 1.258 . S
C987 O989 1.256 . S
O988 Cd980 2.381 . S
O988 C987 1.258 . S
O989 Cd980 2.378 . S
O989 C987 1.256 . S
O990 Cd991 2.300 . S
O990 C997 1.275 . S
Cd991 O990 2.300 . S
Cd991 O999 2.381 . S
Cd991 O1000 2.378 . S
O992 Cd993 2.385 . S
O992 C997 1.255 . S
Cd993 O992 2.385 . S
Cd993 O994 2.317 . S
O994 Cd993 2.317 . S
O994 C995 1.232 . S
C995 O994 1.232 . S
C995 O996 1.218 . S
O996 C995 1.218 . S
C997 O990 1.275 . S
C997 O992 1.255 . S
C998 O999 1.258 . S
C998 O1000 1.256 . S
O999 Cd991 2.381 . S
O999 C998 1.258 . S
O1000 Cd991 2.378 . S
O1000 C998 1.256 . S
O1001 Cd1002 2.300 . S
O1001 C1008 1.275 . S
Cd1002 O1001 2.300 . S
Cd1002 O1010 2.381 . S
Cd1002 O1011 2.378 . S
O1003 Cd1004 2.385 . S
O1003 C1008 1.255 . S
Cd1004 O1003 2.385 . S
Cd1004 O1005 2.317 . S
O1005 Cd1004 2.317 . S
O1005 C1006 1.232 . S
C1006 O1005 1.232 . S
C1006 O1007 1.218 . S
O1007 C1006 1.218 . S
C1008 O1001 1.275 . S
C1008 O1003 1.255 . S
C1009 O1010 1.258 . S
C1009 O1011 1.256 . S
O1010 Cd1002 2.381 . S
O1010 C1009 1.258 . S
O1011 Cd1002 2.378 . S
O1011 C1009 1.256 . S
O1012 Cd1013 2.300 . S
O1012 C1019 1.275 . S
Cd1013 O1012 2.300 . S
Cd1013 O1021 2.381 . S
Cd1013 O1022 2.378 . S
O1014 Cd1015 2.385 . S
O1014 C1019 1.255 . S
Cd1015 O1014 2.385 . S
Cd1015 O1016 2.317 . S
O1016 Cd1015 2.317 . S
O1016 C1017 1.232 . S
C1017 O1016 1.232 . S
C1017 O1018 1.218 . S
O1018 C1017 1.218 . S
C1019 O1012 1.275 . S
C1019 O1014 1.255 . S
C1020 O1021 1.258 . S
C1020 O1022 1.256 . S
O1021 Cd1013 2.381 . S
O1021 C1020 1.258 . S
O1022 Cd1013 2.378 . S
O1022 C1020 1.256 . S
O1023 Cd1024 2.300 . S
O1023 C1030 1.275 . S
Cd1024 O1023 2.300 . S
Cd1024 O1032 2.381 . S
Cd1024 O1033 2.378 . S
O1025 Cd1026 2.385 . S
O1025 C1030 1.255 . S
Cd1026 O1025 2.385 . S
Cd1026 O1027 2.317 . S
O1027 Cd1026 2.317 . S
O1027 C1028 1.232 . S
C1028 O1027 1.232 . S
C1028 O1029 1.218 . S
O1029 C1028 1.218 . S
C1030 O1023 1.275 . S
C1030 O1025 1.255 . S
C1031 O1032 1.258 . S
C1031 O1033 1.256 . S
O1032 Cd1024 2.381 . S
O1032 C1031 1.258 . S
O1033 Cd1024 2.378 . S
O1033 C1031 1.256 . S
O1034 Cd1035 2.300 . S
O1034 C1041 1.275 . S
Cd1035 O1034 2.300 . S
Cd1035 O1043 2.381 . S
Cd1035 O1044 2.378 . S
O1036 Cd1037 2.385 . S
O1036 C1041 1.255 . S
Cd1037 O1036 2.385 . S
Cd1037 O1038 2.317 . S
O1038 Cd1037 2.317 . S
O1038 C1039 1.232 . S
C1039 O1038 1.232 . S
C1039 O1040 1.218 . S
O1040 C1039 1.218 . S
C1041 O1034 1.275 . S
C1041 O1036 1.255 . S
C1042 O1043 1.258 . S
C1042 O1044 1.256 . S
O1043 Cd1035 2.381 . S
O1043 C1042 1.258 . S
O1044 Cd1035 2.378 . S
O1044 C1042 1.256 . S
O1045 Cd1046 2.300 . S
O1045 C1052 1.275 . S
Cd1046 O1045 2.300 . S
Cd1046 O1054 2.381 . S
Cd1046 O1055 2.378 . S
O1047 Cd1048 2.385 . S
O1047 C1052 1.255 . S
Cd1048 O1047 2.385 . S
Cd1048 O1049 2.317 . S
O1049 Cd1048 2.317 . S
O1049 C1050 1.232 . S
C1050 O1049 1.232 . S
C1050 O1051 1.218 . S
O1051 C1050 1.218 . S
C1052 O1045 1.275 . S
C1052 O1047 1.255 . S
C1053 O1054 1.258 . S
C1053 O1055 1.256 . S
O1054 Cd1046 2.381 . S
O1054 C1053 1.258 . S
O1055 Cd1046 2.378 . S
O1055 C1053 1.256 . S
H1056 C1057 0.949 . S
C1057 H1056 0.949 . S
C1057 C1058 1.395 . S
C1057 C1059 1.391 . S
C1058 C1057 1.395 . S
C1058 C1061 1.390 . S
C1059 C1057 1.391 . S
C1059 C1063 1.387 . S
C1059 C1064 1.491 . S
H1060 C1061 0.950 . S
C1061 C1058 1.390 . S
C1061 H1060 0.950 . S
C1061 C1062 1.378 . S
C1062 C1061 1.378 . S
C1062 C1063 1.409 . S
C1063 C1059 1.387 . S
C1063 C1062 1.409 . S
C1063 H1065 0.951 . S
C1064 C1059 1.491 . S
C1064 C1066 1.382 . S
C1064 C1068 1.404 . S
H1065 C1063 0.951 . S
C1066 C1064 1.382 . S
C1066 C1067 1.390 . S
C1066 H1071 0.949 . S
C1067 C1066 1.390 . S
C1067 C1072 1.399 . S
C1068 C1064 1.404 . S
C1068 H1069 0.950 . S
C1068 C1070 1.375 . S
H1069 C1068 0.950 . S
C1070 C1068 1.375 . S
C1070 C1072 1.382 . S
C1070 H1074 0.950 . S
H1071 C1066 0.949 . S
C1072 C1067 1.399 . S
C1072 C1070 1.382 . S
C1072 H1073 0.952 . S
H1073 C1072 0.952 . S
H1074 C1070 0.950 . S
H1075 C1076 0.949 . S
C1076 H1075 0.949 . S
C1076 C1077 1.395 . S
C1076 C1078 1.391 . S
C1077 C1076 1.395 . S
C1077 C1080 1.390 . S
C1078 C1076 1.391 . S
C1078 C1082 1.387 . S
C1078 C1083 1.491 . S
H1079 C1080 0.950 . S
C1080 C1077 1.390 . S
C1080 H1079 0.950 . S
C1080 C1081 1.378 . S
C1081 C1080 1.378 . S
C1081 C1082 1.409 . S
C1082 C1078 1.387 . S
C1082 C1081 1.409 . S
C1082 H1084 0.951 . S
C1083 C1078 1.491 . S
C1083 C1085 1.382 . S
C1083 C1087 1.404 . S
H1084 C1082 0.951 . S
C1085 C1083 1.382 . S
C1085 C1086 1.390 1_455 S
C1085 H1090 0.949 . S
C1086 C1085 1.390 1_655 S
C1086 C1091 1.399 . S
C1087 C1083 1.404 . S
C1087 H1088 0.950 . S
C1087 C1089 1.375 . S
H1088 C1087 0.950 . S
C1089 C1087 1.375 . S
C1089 C1091 1.382 1_455 S
C1089 H1093 0.954 . S
H1090 C1085 0.949 . S
C1091 C1086 1.399 . S
C1091 C1089 1.382 1_655 S
C1091 H1092 0.952 . S
H1092 C1091 0.952 . S
H1093 C1089 0.954 . S
H1094 C1095 0.949 . S
C1095 H1094 0.949 . S
C1095 C1096 1.395 . S
C1095 C1097 1.391 . S
C1096 C1095 1.395 . S
C1096 C1099 1.390 . S
C1097 C1095 1.391 . S
C1097 C1101 1.387 . S
C1097 C1102 1.491 . S
H1098 C1099 0.950 . S
C1099 C1096 1.390 . S
C1099 H1098 0.950 . S
C1099 C1100 1.378 . S
C1100 C1099 1.378 . S
C1100 C1101 1.409 . S
C1101 C1097 1.387 . S
C1101 C1100 1.409 . S
C1101 H1103 0.951 . S
C1102 C1097 1.491 . S
C1102 C1104 1.382 . S
C1102 C1106 1.404 . S
H1103 C1101 0.951 . S
C1104 C1102 1.382 . S
C1104 C1105 1.390 . S
C1104 H1109 0.949 . S
C1105 C1104 1.390 . S
C1105 C1110 1.399 . S
C1106 C1102 1.404 . S
C1106 H1107 0.950 . S
C1106 C1108 1.375 . S
H1107 C1106 0.950 . S
C1108 C1106 1.375 . S
C1108 C1110 1.382 . S
C1108 H1112 0.950 . S
H1109 C1104 0.949 . S
C1110 C1105 1.399 . S
C1110 C1108 1.382 . S
C1110 H1111 0.952 . S
H1111 C1110 0.952 . S
H1112 C1108 0.950 . S
H1113 C1114 0.949 . S
C1114 H1113 0.949 . S
C1114 C1115 1.395 . S
C1114 C1116 1.391 . S
C1115 C1114 1.395 . S
C1115 C1118 1.390 . S
C1116 C1114 1.391 . S
C1116 C1120 1.387 . S
C1116 C1121 1.491 . S
H1117 C1118 0.950 . S
C1118 C1115 1.390 . S
C1118 H1117 0.950 . S
C1118 C1119 1.378 . S
C1119 C1118 1.378 . S
C1119 C1120 1.409 . S
C1120 C1116 1.387 . S
C1120 C1119 1.409 . S
C1120 H1122 0.951 . S
C1121 C1116 1.491 . S
C1121 C1123 1.382 . S
C1121 C1125 1.404 . S
H1122 C1120 0.951 . S
C1123 C1121 1.382 . S
C1123 C1124 1.390 . S
C1123 H1128 0.949 . S
C1124 C1123 1.390 . S
C1124 C1129 1.399 . S
C1125 C1121 1.404 . S
C1125 H1126 0.950 . S
C1125 C1127 1.375 . S
H1126 C1125 0.950 . S
C1127 C1125 1.375 . S
C1127 C1129 1.382 . S
C1127 H1131 0.950 . S
H1128 C1123 0.949 . S
C1129 C1124 1.399 . S
C1129 C1127 1.382 . S
C1129 H1130 0.952 . S
H1130 C1129 0.952 . S
H1131 C1127 0.950 . S
H1132 C1133 0.949 . S
C1133 H1132 0.949 . S
C1133 C1134 1.395 . S
C1133 C1135 1.391 . S
C1134 C1133 1.395 . S
C1134 C1137 1.390 . S
C1135 C1133 1.391 . S
C1135 C1139 1.387 . S
C1135 C1140 1.491 . S
H1136 C1137 0.950 . S
C1137 C1134 1.390 . S
C1137 H1136 0.950 . S
C1137 C1138 1.378 . S
C1138 C1137 1.378 . S
C1138 C1139 1.409 . S
C1139 C1135 1.387 . S
C1139 C1138 1.409 . S
C1139 H1141 0.951 . S
C1140 C1135 1.491 . S
C1140 C1142 1.382 . S
C1140 C1144 1.404 . S
H1141 C1139 0.951 . S
C1142 C1140 1.382 . S
C1142 C1143 1.390 . S
C1142 H1147 0.949 . S
C1143 C1142 1.390 . S
C1143 C1148 1.399 . S
C1144 C1140 1.404 . S
C1144 H1145 0.950 . S
C1144 C1146 1.375 . S
H1145 C1144 0.950 . S
C1146 C1144 1.375 . S
C1146 C1148 1.382 . S
C1146 H1150 0.950 . S
H1147 C1142 0.949 . S
C1148 C1143 1.399 . S
C1148 C1146 1.382 . S
C1148 H1149 0.952 . S
H1149 C1148 0.952 . S
H1150 C1146 0.950 . S
H1151 C1152 0.949 . S
C1152 H1151 0.949 . S
C1152 C1153 1.395 . S
C1152 C1154 1.391 . S
C1153 C1152 1.395 . S
C1153 C1156 1.390 . S
C1154 C1152 1.391 . S
C1154 C1158 1.387 . S
C1154 C1159 1.491 . S
H1155 C1156 0.950 . S
C1156 C1153 1.390 . S
C1156 H1155 0.950 . S
C1156 C1157 1.378 . S
C1157 C1156 1.378 . S
C1157 C1158 1.409 . S
C1158 C1154 1.387 . S
C1158 C1157 1.409 . S
C1158 H1160 0.951 . S
C1159 C1154 1.491 . S
C1159 C1161 1.382 . S
C1159 C1163 1.404 . S
H1160 C1158 0.951 . S
C1161 C1159 1.382 . S
C1161 C1162 1.390 . S
C1161 H1166 0.949 . S
C1162 C1161 1.390 . S
C1162 C1167 1.399 . S
C1163 C1159 1.404 . S
C1163 H1164 0.950 . S
C1163 C1165 1.375 . S
H1164 C1163 0.950 . S
C1165 C1163 1.375 . S
C1165 C1167 1.382 . S
C1165 H1169 0.950 . S
H1166 C1161 0.949 . S
C1167 C1162 1.399 . S
C1167 C1165 1.382 . S
C1167 H1168 0.952 . S
H1168 C1167 0.952 . S
H1169 C1165 0.950 . S
H1170 C1171 0.949 . S
C1171 H1170 0.949 . S
C1171 C1172 1.395 . S
C1171 C1173 1.391 . S
C1172 C1171 1.395 . S
C1172 C1175 1.390 . S
C1173 C1171 1.391 . S
C1173 C1177 1.387 . S
C1173 C1178 1.491 . S
H1174 C1175 0.950 . S
C1175 C1172 1.390 . S
C1175 H1174 0.950 . S
C1175 C1176 1.378 . S
C1176 C1175 1.378 . S
C1176 C1177 1.409 . S
C1177 C1173 1.387 . S
C1177 C1176 1.409 . S
C1177 H1179 0.951 . S
C1178 C1173 1.491 . S
C1178 C1180 1.382 . S
C1178 C1182 1.404 . S
H1179 C1177 0.951 . S
C1180 C1178 1.382 . S
C1180 C1181 1.390 . S
C1180 H1185 0.949 . S
C1181 C1180 1.390 . S
C1181 C1186 1.399 . S
C1182 C1178 1.404 . S
C1182 H1183 0.950 . S
C1182 C1184 1.375 . S
H1183 C1182 0.950 . S
C1184 C1182 1.375 . S
C1184 C1186 1.382 . S
C1184 H1188 0.950 . S
H1185 C1180 0.949 . S
C1186 C1181 1.399 . S
C1186 C1184 1.382 . S
C1186 H1187 0.952 . S
H1187 C1186 0.952 . S
H1188 C1184 0.950 . S
H1189 C1190 0.949 . S
C1190 H1189 0.949 . S
C1190 C1191 1.395 . S
C1190 C1192 1.391 . S
C1191 C1190 1.395 . S
C1191 C1194 1.390 . S
C1192 C1190 1.391 . S
C1192 C1196 1.387 . S
C1192 C1197 1.491 . S
H1193 C1194 0.950 . S
C1194 C1191 1.390 . S
C1194 H1193 0.950 . S
C1194 C1195 1.378 . S
C1195 C1194 1.378 . S
C1195 C1196 1.409 . S
C1196 C1192 1.387 . S
C1196 C1195 1.409 . S
C1196 H1198 0.951 . S
C1197 C1192 1.491 . S
C1197 C1199 1.382 . S
C1197 C1201 1.404 . S
H1198 C1196 0.951 . S
C1199 C1197 1.382 . S
C1199 C1200 1.390 1_455 S
C1199 H1204 0.949 . S
C1200 C1199 1.390 1_655 S
C1200 C1205 1.399 . S
C1201 C1197 1.404 . S
C1201 H1202 0.950 . S
C1201 C1203 1.375 . S
H1202 C1201 0.950 . S
C1203 C1201 1.375 . S
C1203 C1205 1.382 1_455 S
C1203 H1207 0.953 . S
H1204 C1199 0.949 . S
C1205 C1200 1.399 . S
C1205 C1203 1.382 1_655 S
C1205 H1206 0.952 . S
H1206 C1205 0.952 . S
H1207 C1203 0.953 . S
H1208 C1209 0.949 . S
C1209 H1208 0.949 . S
C1209 C1210 1.395 . S
C1209 C1211 1.391 . S
C1210 C1209 1.395 . S
C1210 C1213 1.390 . S
C1211 C1209 1.391 . S
C1211 C1215 1.387 . S
C1211 C1216 1.491 . S
H1212 C1213 0.950 . S
C1213 C1210 1.390 . S
C1213 H1212 0.950 . S
C1213 C1214 1.378 . S
C1214 C1213 1.378 . S
C1214 C1215 1.409 . S
C1215 C1211 1.387 . S
C1215 C1214 1.409 . S
C1215 H1217 0.951 . S
C1216 C1211 1.491 . S
C1216 C1218 1.382 . S
C1216 C1220 1.404 . S
H1217 C1215 0.951 . S
C1218 C1216 1.382 . S
C1218 C1219 1.390 . S
C1218 H1223 0.949 . S
C1219 C1218 1.390 . S
C1219 C1224 1.399 . S
C1220 C1216 1.404 . S
C1220 H1221 0.950 . S
C1220 C1222 1.375 . S
H1221 C1220 0.950 . S
C1222 C1220 1.375 . S
C1222 C1224 1.382 . S
C1222 H1226 0.950 . S
H1223 C1218 0.949 . S
C1224 C1219 1.399 . S
C1224 C1222 1.382 . S
C1224 H1225 0.952 . S
H1225 C1224 0.952 . S
H1226 C1222 0.950 . S
H1227 C1228 0.949 . S
C1228 H1227 0.949 . S
C1228 C1229 1.395 . S
C1228 C1230 1.391 . S
C1229 C1228 1.395 . S
C1229 C1232 1.390 . S
C1230 C1228 1.391 . S
C1230 C1234 1.387 . S
C1230 C1235 1.491 . S
H1231 C1232 0.950 . S
C1232 C1229 1.390 . S
C1232 H1231 0.950 . S
C1232 C1233 1.378 . S
C1233 C1232 1.378 . S
C1233 C1234 1.409 . S
C1234 C1230 1.387 . S
C1234 C1233 1.409 . S
C1234 H1236 0.951 . S
C1235 C1230 1.491 . S
C1235 C1237 1.382 . S
C1235 C1239 1.404 . S
H1236 C1234 0.951 . S
C1237 C1235 1.382 . S
C1237 C1238 1.390 . S
C1237 H1242 0.949 . S
C1238 C1237 1.390 . S
C1238 C1243 1.399 . S
C1239 C1235 1.404 . S
C1239 H1240 0.950 . S
C1239 C1241 1.375 . S
H1240 C1239 0.950 . S
C1241 C1239 1.375 . S
C1241 C1243 1.382 . S
C1241 H1245 0.950 . S
H1242 C1237 0.949 . S
C1243 C1238 1.399 . S
C1243 C1241 1.382 . S
C1243 H1244 0.952 . S
H1244 C1243 0.952 . S
H1245 C1241 0.950 . S
H1246 C1247 0.949 . S
C1247 H1246 0.949 . S
C1247 C1248 1.395 . S
C1247 C1249 1.391 . S
C1248 C1247 1.395 . S
C1248 C1251 1.390 . S
C1249 C1247 1.391 . S
C1249 C1253 1.387 . S
C1249 C1254 1.491 . S
H1250 C1251 0.950 . S
C1251 C1248 1.390 . S
C1251 H1250 0.950 . S
C1251 C1252 1.378 . S
C1252 C1251 1.378 . S
C1252 C1253 1.409 . S
C1253 C1249 1.387 . S
C1253 C1252 1.409 . S
C1253 H1255 0.951 . S
C1254 C1249 1.491 . S
C1254 C1256 1.382 . S
C1254 C1258 1.404 . S
H1255 C1253 0.951 . S
C1256 C1254 1.382 . S
C1256 C1257 1.390 . S
C1256 H1261 0.949 . S
C1257 C1256 1.390 . S
C1257 C1262 1.399 . S
C1258 C1254 1.404 . S
C1258 H1259 0.950 . S
C1258 C1260 1.375 . S
H1259 C1258 0.950 . S
C1260 C1258 1.375 . S
C1260 C1262 1.382 . S
C1260 H1264 0.950 . S
H1261 C1256 0.949 . S
C1262 C1257 1.399 . S
C1262 C1260 1.382 . S
C1262 H1263 0.952 . S
H1263 C1262 0.952 . S
H1264 C1260 0.950 . S
H1265 C1266 0.949 . S
C1266 H1265 0.949 . S
C1266 C1267 1.395 . S
C1266 C1268 1.391 . S
C1267 C1266 1.395 . S
C1267 C1270 1.390 . S
C1268 C1266 1.391 . S
C1268 C1272 1.387 . S
C1268 C1273 1.491 . S
H1269 C1270 0.950 . S
C1270 C1267 1.390 . S
C1270 H1269 0.950 . S
C1270 C1271 1.378 . S
C1271 C1270 1.378 . S
C1271 C1272 1.409 . S
C1272 C1268 1.387 . S
C1272 C1271 1.409 . S
C1272 H1274 0.951 . S
C1273 C1268 1.491 . S
C1273 C1275 1.382 . S
C1273 C1277 1.404 . S
H1274 C1272 0.951 . S
C1275 C1273 1.382 . S
C1275 C1276 1.390 1_556 S
C1275 H1280 0.949 . S
C1276 C1275 1.390 1_554 S
C1276 C1281 1.399 . S
C1277 C1273 1.404 . S
C1277 H1278 0.950 . S
C1277 C1279 1.375 . S
H1278 C1277 0.950 . S
C1279 C1277 1.375 . S
C1279 C1281 1.382 1_556 S
C1279 H1283 0.953 . S
H1280 C1275 0.949 . S
C1281 C1276 1.399 . S
C1281 C1279 1.382 1_554 S
C1281 H1282 0.952 . S
H1282 C1281 0.952 . S
H1283 C1279 0.953 . S
H1284 C1285 0.949 . S
C1285 H1284 0.949 . S
C1285 C1286 1.395 . S
C1285 C1287 1.391 . S
C1286 C1285 1.395 . S
C1286 C1289 1.390 . S
C1287 C1285 1.391 . S
C1287 C1291 1.387 . S
C1287 C1292 1.491 . S
H1288 C1289 0.950 . S
C1289 C1286 1.390 . S
C1289 H1288 0.950 . S
C1289 C1290 1.378 . S
C1290 C1289 1.378 . S
C1290 C1291 1.409 . S
C1291 C1287 1.387 . S
C1291 C1290 1.409 . S
C1291 H1293 0.951 . S
C1292 C1287 1.491 . S
C1292 C1294 1.382 . S
C1292 C1296 1.404 . S
H1293 C1291 0.951 . S
C1294 C1292 1.382 . S
C1294 C1295 1.390 . S
C1294 H1299 0.949 . S
C1295 C1294 1.390 . S
C1295 C1300 1.399 . S
C1296 C1292 1.404 . S
C1296 H1297 0.950 . S
C1296 C1298 1.375 . S
H1297 C1296 0.950 . S
C1298 C1296 1.375 . S
C1298 C1300 1.382 . S
C1298 H1302 0.950 . S
H1299 C1294 0.949 . S
C1300 C1295 1.399 . S
C1300 C1298 1.382 . S
C1300 H1301 0.952 . S
H1301 C1300 0.952 . S
H1302 C1298 0.950 . S
H1303 C1304 0.949 . S
C1304 H1303 0.949 . S
C1304 C1305 1.395 . S
C1304 C1306 1.391 . S
C1305 C1304 1.395 . S
C1305 C1308 1.390 . S
C1306 C1304 1.391 . S
C1306 C1310 1.387 . S
C1306 C1311 1.491 . S
H1307 C1308 0.950 . S
C1308 C1305 1.390 . S
C1308 H1307 0.950 . S
C1308 C1309 1.378 . S
C1309 C1308 1.378 . S
C1309 C1310 1.409 . S
C1310 C1306 1.387 . S
C1310 C1309 1.409 . S
C1310 H1312 0.951 . S
C1311 C1306 1.491 . S
C1311 C1313 1.382 . S
C1311 C1315 1.404 . S
H1312 C1310 0.951 . S
C1313 C1311 1.382 . S
C1313 C1314 1.390 . S
C1313 H1318 0.949 . S
C1314 C1313 1.390 . S
C1314 C1319 1.399 . S
C1315 C1311 1.404 . S
C1315 H1316 0.950 . S
C1315 C1317 1.375 . S
H1316 C1315 0.950 . S
C1317 C1315 1.375 . S
C1317 C1319 1.382 . S
C1317 H1321 0.950 . S
H1318 C1313 0.949 . S
C1319 C1314 1.399 . S
C1319 C1317 1.382 . S
C1319 H1320 0.952 . S
H1320 C1319 0.952 . S
H1321 C1317 0.950 . S
H1322 C1323 0.949 . S
C1323 H1322 0.949 . S
C1323 C1324 1.395 . S
C1323 C1325 1.391 . S
C1324 C1323 1.395 . S
C1324 C1327 1.390 . S
C1325 C1323 1.391 . S
C1325 C1329 1.387 . S
C1325 C1330 1.491 . S
H1326 C1327 0.950 . S
C1327 C1324 1.390 . S
C1327 H1326 0.950 . S
C1327 C1328 1.378 . S
C1328 C1327 1.378 . S
C1328 C1329 1.409 . S
C1329 C1325 1.387 . S
C1329 C1328 1.409 . S
C1329 H1331 0.951 . S
C1330 C1325 1.491 . S
C1330 C1332 1.382 . S
C1330 C1334 1.404 . S
H1331 C1329 0.951 . S
C1332 C1330 1.382 . S
C1332 C1333 1.390 . S
C1332 H1337 0.949 . S
C1333 C1332 1.390 . S
C1333 C1338 1.399 . S
C1334 C1330 1.404 . S
C1334 H1335 0.950 . S
C1334 C1336 1.375 . S
H1335 C1334 0.950 . S
C1336 C1334 1.375 . S
C1336 C1338 1.382 . S
C1336 H1340 0.950 . S
H1337 C1332 0.949 . S
C1338 C1333 1.399 . S
C1338 C1336 1.382 . S
C1338 H1339 0.952 . S
H1339 C1338 0.952 . S
H1340 C1336 0.950 . S
H1341 C1342 0.949 . S
C1342 H1341 0.949 . S
C1342 C1343 1.395 . S
C1342 C1344 1.391 . S
C1343 C1342 1.395 . S
C1343 C1346 1.390 . S
C1344 C1342 1.391 . S
C1344 C1348 1.387 . S
C1344 C1349 1.491 . S
H1345 C1346 0.950 . S
C1346 C1343 1.390 . S
C1346 H1345 0.950 . S
C1346 C1347 1.378 . S
C1347 C1346 1.378 . S
C1347 C1348 1.409 . S
C1348 C1344 1.387 . S
C1348 C1347 1.409 . S
C1348 H1350 0.951 . S
C1349 C1344 1.491 . S
C1349 C1351 1.382 . S
C1349 C1353 1.404 . S
H1350 C1348 0.951 . S
C1351 C1349 1.382 . S
C1351 C1352 1.390 1_554 S
C1351 H1356 0.949 . S
C1352 C1351 1.390 1_556 S
C1352 C1357 1.399 . S
C1353 C1349 1.404 . S
C1353 H1354 0.950 . S
C1353 C1355 1.375 . S
H1354 C1353 0.950 . S
C1355 C1353 1.375 . S
C1355 C1357 1.382 1_554 S
C1355 H1359 0.953 . S
H1356 C1351 0.949 . S
C1357 C1352 1.399 . S
C1357 C1355 1.382 1_556 S
C1357 H1358 0.952 . S
H1358 C1357 0.952 . S
H1359 C1355 0.953 . S
H1360 C1361 0.949 . S
C1361 H1360 0.949 . S
C1361 C1362 1.395 . S
C1361 C1363 1.391 . S
C1362 C1361 1.395 . S
C1362 C1365 1.390 . S
C1363 C1361 1.391 . S
C1363 C1367 1.387 . S
C1363 C1368 1.491 . S
H1364 C1365 0.950 . S
C1365 C1362 1.390 . S
C1365 H1364 0.950 . S
C1365 C1366 1.378 . S
C1366 C1365 1.378 . S
C1366 C1367 1.409 . S
C1367 C1363 1.387 . S
C1367 C1366 1.409 . S
C1367 H1369 0.951 . S
C1368 C1363 1.491 . S
C1368 C1370 1.382 . S
C1368 C1372 1.404 . S
H1369 C1367 0.951 . S
C1370 C1368 1.382 . S
C1370 C1371 1.390 . S
C1370 H1375 0.949 . S
C1371 C1370 1.390 . S
C1371 C1376 1.399 . S
C1372 C1368 1.404 . S
C1372 H1373 0.950 . S
C1372 C1374 1.375 . S
H1373 C1372 0.950 . S
C1374 C1372 1.375 . S
C1374 C1376 1.382 . S
C1374 H1378 0.950 . S
H1375 C1370 0.949 . S
C1376 C1371 1.399 . S
C1376 C1374 1.382 . S
C1376 H1377 0.952 . S
H1377 C1376 0.952 . S
H1378 C1374 0.950 . S
H1379 C1380 0.949 . S
C1380 H1379 0.949 . S
C1380 C1381 1.395 . S
C1380 C1382 1.391 . S
C1381 C1380 1.395 . S
C1381 C1384 1.390 . S
C1382 C1380 1.391 . S
C1382 C1386 1.387 . S
C1382 C1387 1.491 . S
H1383 C1384 0.950 . S
C1384 C1381 1.390 . S
C1384 H1383 0.950 . S
C1384 C1385 1.378 . S
C1385 C1384 1.378 . S
C1385 C1386 1.409 . S
C1386 C1382 1.387 . S
C1386 C1385 1.409 . S
C1386 H1388 0.951 . S
C1387 C1382 1.491 . S
C1387 C1389 1.382 . S
C1387 C1391 1.404 . S
H1388 C1386 0.951 . S
C1389 C1387 1.382 . S
C1389 C1390 1.390 . S
C1389 H1394 0.949 . S
C1390 C1389 1.390 . S
C1390 C1395 1.399 . S
C1391 C1387 1.404 . S
C1391 H1392 0.950 . S
C1391 C1393 1.375 . S
H1392 C1391 0.950 . S
C1393 C1391 1.375 . S
C1393 C1395 1.382 . S
C1393 H1397 0.950 . S
H1394 C1389 0.949 . S
C1395 C1390 1.399 . S
C1395 C1393 1.382 . S
C1395 H1396 0.952 . S
H1396 C1395 0.952 . S
H1397 C1393 0.950 . S
H1398 C1399 0.949 . S
C1399 H1398 0.949 . S
C1399 C1400 1.395 . S
C1399 C1401 1.391 . S
C1400 C1399 1.395 . S
C1400 C1403 1.390 . S
C1401 C1399 1.391 . S
C1401 C1405 1.387 . S
C1401 C1406 1.491 . S
H1402 C1403 0.950 . S
C1403 C1400 1.390 . S
C1403 H1402 0.950 . S
C1403 C1404 1.378 . S
C1404 C1403 1.378 . S
C1404 C1405 1.409 . S
C1405 C1401 1.387 . S
C1405 C1404 1.409 . S
C1405 H1407 0.951 . S
C1406 C1401 1.491 . S
C1406 C1408 1.382 . S
C1406 C1410 1.404 . S
H1407 C1405 0.951 . S
C1408 C1406 1.382 . S
C1408 C1409 1.390 . S
C1408 H1413 0.949 . S
C1409 C1408 1.390 . S
C1409 C1414 1.399 . S
C1410 C1406 1.404 . S
C1410 H1411 0.950 . S
C1410 C1412 1.375 . S
H1411 C1410 0.950 . S
C1412 C1410 1.375 . S
C1412 C1414 1.382 . S
C1412 H1416 0.950 . S
H1413 C1408 0.949 . S
C1414 C1409 1.399 . S
C1414 C1412 1.382 . S
C1414 H1415 0.952 . S
H1415 C1414 0.952 . S
H1416 C1412 0.950 . S
H1417 C1418 0.949 . S
C1418 H1417 0.949 . S
C1418 C1419 1.395 . S
C1418 C1420 1.391 . S
C1419 C1418 1.395 . S
C1419 C1422 1.390 . S
C1420 C1418 1.391 . S
C1420 C1424 1.387 . S
C1420 C1425 1.491 . S
H1421 C1422 0.950 . S
C1422 C1419 1.390 . S
C1422 H1421 0.950 . S
C1422 C1423 1.378 . S
C1423 C1422 1.378 . S
C1423 C1424 1.409 . S
C1424 C1420 1.387 . S
C1424 C1423 1.409 . S
C1424 H1426 0.951 . S
C1425 C1420 1.491 . S
C1425 C1427 1.382 . S
C1425 C1429 1.404 . S
H1426 C1424 0.951 . S
C1427 C1425 1.382 . S
C1427 C1428 1.390 . S
C1427 H1432 0.949 . S
C1428 C1427 1.390 . S
C1428 C1433 1.399 . S
C1429 C1425 1.404 . S
C1429 H1430 0.950 . S
C1429 C1431 1.375 . S
H1430 C1429 0.950 . S
C1431 C1429 1.375 . S
C1431 C1433 1.382 . S
C1431 H1435 0.950 . S
H1432 C1427 0.949 . S
C1433 C1428 1.399 . S
C1433 C1431 1.382 . S
C1433 H1434 0.952 . S
H1434 C1433 0.952 . S
H1435 C1431 0.950 . S
H1436 C1437 0.949 . S
C1437 H1436 0.949 . S
C1437 C1438 1.395 . S
C1437 C1439 1.391 . S
C1438 C1437 1.395 . S
C1438 C1441 1.390 . S
C1439 C1437 1.391 . S
C1439 C1443 1.387 . S
C1439 C1444 1.491 . S
H1440 C1441 0.950 . S
C1441 C1438 1.390 . S
C1441 H1440 0.950 . S
C1441 C1442 1.378 . S
C1442 C1441 1.378 . S
C1442 C1443 1.409 . S
C1443 C1439 1.387 . S
C1443 C1442 1.409 . S
C1443 H1445 0.951 . S
C1444 C1439 1.491 . S
C1444 C1446 1.382 . S
C1444 C1448 1.404 . S
H1445 C1443 0.951 . S
C1446 C1444 1.382 . S
C1446 C1447 1.390 1_545 S
C1446 H1451 0.949 . S
C1447 C1446 1.390 1_565 S
C1447 C1452 1.399 . S
C1448 C1444 1.404 . S
C1448 H1449 0.950 . S
C1448 C1450 1.375 . S
H1449 C1448 0.950 . S
C1450 C1448 1.375 . S
C1450 C1452 1.382 1_545 S
C1450 H1454 0.953 . S
H1451 C1446 0.949 . S
C1452 C1447 1.399 . S
C1452 C1450 1.382 1_565 S
C1452 H1453 0.952 . S
H1453 C1452 0.952 . S
H1454 C1450 0.953 . S
H1455 C1456 0.949 . S
C1456 H1455 0.949 . S
C1456 C1457 1.395 . S
C1456 C1458 1.391 . S
C1457 C1456 1.395 . S
C1457 C1460 1.390 . S
C1458 C1456 1.391 . S
C1458 C1462 1.387 . S
C1458 C1463 1.491 . S
H1459 C1460 0.950 . S
C1460 C1457 1.390 . S
C1460 H1459 0.950 . S
C1460 C1461 1.378 . S
C1461 C1460 1.378 . S
C1461 C1462 1.409 . S
C1462 C1458 1.387 . S
C1462 C1461 1.409 . S
C1462 H1464 0.951 . S
C1463 C1458 1.491 . S
C1463 C1465 1.382 . S
C1463 C1467 1.404 . S
H1464 C1462 0.951 . S
C1465 C1463 1.382 . S
C1465 C1466 1.390 . S
C1465 H1470 0.949 . S
C1466 C1465 1.390 . S
C1466 C1471 1.399 . S
C1467 C1463 1.404 . S
C1467 H1468 0.950 . S
C1467 C1469 1.375 . S
H1468 C1467 0.950 . S
C1469 C1467 1.375 . S
C1469 C1471 1.382 . S
C1469 H1473 0.950 . S
H1470 C1465 0.949 . S
C1471 C1466 1.399 . S
C1471 C1469 1.382 . S
C1471 H1472 0.952 . S
H1472 C1471 0.952 . S
H1473 C1469 0.950 . S
H1474 C1475 0.949 . S
C1475 H1474 0.949 . S
C1475 C1476 1.395 . S
C1475 C1477 1.391 . S
C1476 C1475 1.395 . S
C1476 C1479 1.390 . S
C1477 C1475 1.391 . S
C1477 C1481 1.387 . S
C1477 C1482 1.491 . S
H1478 C1479 0.950 . S
C1479 C1476 1.390 . S
C1479 H1478 0.950 . S
C1479 C1480 1.378 . S
C1480 C1479 1.378 . S
C1480 C1481 1.409 . S
C1481 C1477 1.387 . S
C1481 C1480 1.409 . S
C1481 H1483 0.951 . S
C1482 C1477 1.491 . S
C1482 C1484 1.382 . S
C1482 C1486 1.404 . S
H1483 C1481 0.951 . S
C1484 C1482 1.382 . S
C1484 C1485 1.390 . S
C1484 H1489 0.949 . S
C1485 C1484 1.390 . S
C1485 C1490 1.399 . S
C1486 C1482 1.404 . S
C1486 H1487 0.950 . S
C1486 C1488 1.375 . S
H1487 C1486 0.950 . S
C1488 C1486 1.375 . S
C1488 C1490 1.382 . S
C1488 H1492 0.950 . S
H1489 C1484 0.949 . S
C1490 C1485 1.399 . S
C1490 C1488 1.382 . S
C1490 H1491 0.952 . S
H1491 C1490 0.952 . S
H1492 C1488 0.950 . S
H1493 C1494 0.949 . S
C1494 H1493 0.949 . S
C1494 C1495 1.395 . S
C1494 C1496 1.391 . S
C1495 C1494 1.395 . S
C1495 C1498 1.390 . S
C1496 C1494 1.391 . S
C1496 C1500 1.387 . S
C1496 C1501 1.491 . S
H1497 C1498 0.950 . S
C1498 C1495 1.390 . S
C1498 H1497 0.950 . S
C1498 C1499 1.378 . S
C1499 C1498 1.378 . S
C1499 C1500 1.409 . S
C1500 C1496 1.387 . S
C1500 C1499 1.409 . S
C1500 H1502 0.951 . S
C1501 C1496 1.491 . S
C1501 C1503 1.382 . S
C1501 C1505 1.404 . S
H1502 C1500 0.951 . S
C1503 C1501 1.382 . S
C1503 C1504 1.390 . S
C1503 H1508 0.949 . S
C1504 C1503 1.390 . S
C1504 C1509 1.399 . S
C1505 C1501 1.404 . S
C1505 H1506 0.950 . S
C1505 C1507 1.375 . S
H1506 C1505 0.950 . S
C1507 C1505 1.375 . S
C1507 C1509 1.382 . S
C1507 H1511 0.950 . S
H1508 C1503 0.949 . S
C1509 C1504 1.399 . S
C1509 C1507 1.382 . S
C1509 H1510 0.952 . S
H1510 C1509 0.952 . S
H1511 C1507 0.950 . S
H1512 C1513 0.949 . S
C1513 H1512 0.949 . S
C1513 C1514 1.395 . S
C1513 C1515 1.391 . S
C1514 C1513 1.395 . S
C1514 C1517 1.390 . S
C1515 C1513 1.391 . S
C1515 C1519 1.387 . S
C1515 C1520 1.491 . S
H1516 C1517 0.950 . S
C1517 C1514 1.390 . S
C1517 H1516 0.950 . S
C1517 C1518 1.378 . S
C1518 C1517 1.378 . S
C1518 C1519 1.409 . S
C1519 C1515 1.387 . S
C1519 C1518 1.409 . S
C1519 H1521 0.951 . S
C1520 C1515 1.491 . S
C1520 C1522 1.382 . S
C1520 C1524 1.404 . S
H1521 C1519 0.951 . S
C1522 C1520 1.382 . S
C1522 C1523 1.390 . S
C1522 H1527 0.949 . S
C1523 C1522 1.390 . S
C1523 C1528 1.399 . S
C1524 C1520 1.404 . S
C1524 H1525 0.950 . S
C1524 C1526 1.375 . S
H1525 C1524 0.950 . S
C1526 C1524 1.375 . S
C1526 C1528 1.382 . S
C1526 H1530 0.950 . S
H1527 C1522 0.949 . S
C1528 C1523 1.399 . S
C1528 C1526 1.382 . S
C1528 H1529 0.952 . S
H1529 C1528 0.952 . S
H1530 C1526 0.950 . S
H1531 C1532 0.949 . S
C1532 H1531 0.949 . S
C1532 C1533 1.395 . S
C1532 C1534 1.391 . S
C1533 C1532 1.395 . S
C1533 C1536 1.390 . S
C1534 C1532 1.391 . S
C1534 C1538 1.387 . S
C1534 C1539 1.491 . S
H1535 C1536 0.950 . S
C1536 C1533 1.390 . S
C1536 H1535 0.950 . S
C1536 C1537 1.378 . S
C1537 C1536 1.378 . S
C1537 C1538 1.409 . S
C1538 C1534 1.387 . S
C1538 C1537 1.409 . S
C1538 H1540 0.951 . S
C1539 C1534 1.491 . S
C1539 C1541 1.382 . S
C1539 C1543 1.411 . S
H1540 C1538 0.951 . S
C1541 C1539 1.382 . S
C1541 C1542 1.390 1_655 S
C1541 H1546 0.949 . S
C1542 C1541 1.390 1_455 S
C1542 C1547 1.399 . S
C1543 C1539 1.411 . S
C1543 H1544 0.955 . S
C1543 C1545 1.363 1_655 S
H1544 C1543 0.955 . S
C1545 C1543 1.363 1_455 S
C1545 C1547 1.382 . S
C1545 H1549 0.950 . S
H1546 C1541 0.949 . S
C1547 C1542 1.399 . S
C1547 C1545 1.382 . S
C1547 H1548 0.952 . S
H1548 C1547 0.952 . S
H1549 C1545 0.950 . S
H1550 C1551 0.949 . S
C1551 H1550 0.949 . S
C1551 C1552 1.395 . S
C1551 C1553 1.391 . S
C1552 C1551 1.395 . S
C1552 C1555 1.390 . S
C1553 C1551 1.391 . S
C1553 C1557 1.387 . S
C1553 C1558 1.491 . S
H1554 C1555 0.950 . S
C1555 C1552 1.390 . S
C1555 H1554 0.950 . S
C1555 C1556 1.378 . S
C1556 C1555 1.378 . S
C1556 C1557 1.409 . S
C1557 C1553 1.387 . S
C1557 C1556 1.409 . S
C1557 H1559 0.951 . S
C1558 C1553 1.491 . S
C1558 C1560 1.382 . S
C1558 C1562 1.404 . S
H1559 C1557 0.951 . S
C1560 C1558 1.382 . S
C1560 C1561 1.390 . S
C1560 H1565 0.949 . S
C1561 C1560 1.390 . S
C1561 C1566 1.399 . S
C1562 C1558 1.404 . S
C1562 H1563 0.950 . S
C1562 C1564 1.375 . S
H1563 C1562 0.950 . S
C1564 C1562 1.375 . S
C1564 C1566 1.382 . S
C1564 H1568 0.950 . S
H1565 C1560 0.949 . S
C1566 C1561 1.399 . S
C1566 C1564 1.382 . S
C1566 H1567 0.952 . S
H1567 C1566 0.952 . S
H1568 C1564 0.950 . S
H1569 C1570 0.949 . S
C1570 H1569 0.949 . S
C1570 C1571 1.395 . S
C1570 C1572 1.391 . S
C1571 C1570 1.395 . S
C1571 C1574 1.390 . S
C1572 C1570 1.391 . S
C1572 C1576 1.387 . S
C1572 C1577 1.491 . S
H1573 C1574 0.950 . S
C1574 C1571 1.390 . S
C1574 H1573 0.950 . S
C1574 C1575 1.378 . S
C1575 C1574 1.378 . S
C1575 C1576 1.409 . S
C1576 C1572 1.387 . S
C1576 C1575 1.409 . S
C1576 H1578 0.951 . S
C1577 C1572 1.491 . S
C1577 C1579 1.382 . S
C1577 C1581 1.404 . S
H1578 C1576 0.951 . S
C1579 C1577 1.382 . S
C1579 C1580 1.390 . S
C1579 H1584 0.949 . S
C1580 C1579 1.390 . S
C1580 C1585 1.399 . S
C1581 C1577 1.404 . S
C1581 H1582 0.950 . S
C1581 C1583 1.375 . S
H1582 C1581 0.950 . S
C1583 C1581 1.375 . S
C1583 C1585 1.382 . S
C1583 H1587 0.950 . S
H1584 C1579 0.949 . S
C1585 C1580 1.399 . S
C1585 C1583 1.382 . S
C1585 H1586 0.952 . S
H1586 C1585 0.952 . S
H1587 C1583 0.950 . S
H1588 C1589 0.949 . S
C1589 H1588 0.949 . S
C1589 C1590 1.395 . S
C1589 C1591 1.391 . S
C1590 C1589 1.395 . S
C1590 C1593 1.390 . S
C1591 C1589 1.391 . S
C1591 C1595 1.387 . S
C1591 C1596 1.491 . S
H1592 C1593 0.950 . S
C1593 C1590 1.390 . S
C1593 H1592 0.950 . S
C1593 C1594 1.378 . S
C1594 C1593 1.378 . S
C1594 C1595 1.409 . S
C1595 C1591 1.387 . S
C1595 C1594 1.409 . S
C1595 H1597 0.951 . S
C1596 C1591 1.491 . S
C1596 C1598 1.382 . S
C1596 C1600 1.404 . S
H1597 C1595 0.951 . S
C1598 C1596 1.382 . S
C1598 C1599 1.390 . S
C1598 H1603 0.949 . S
C1599 C1598 1.390 . S
C1599 C1604 1.399 . S
C1600 C1596 1.404 . S
C1600 H1601 0.950 . S
C1600 C1602 1.375 . S
H1601 C1600 0.950 . S
C1602 C1600 1.375 . S
C1602 C1604 1.382 . S
C1602 H1606 0.950 . S
H1603 C1598 0.949 . S
C1604 C1599 1.399 . S
C1604 C1602 1.382 . S
C1604 H1605 0.952 . S
H1605 C1604 0.952 . S
H1606 C1602 0.950 . S
H1607 C1608 0.949 . S
C1608 H1607 0.949 . S
C1608 C1609 1.395 . S
C1608 C1610 1.391 . S
C1609 C1608 1.395 . S
C1609 C1612 1.390 . S
C1610 C1608 1.391 . S
C1610 C1614 1.387 . S
C1610 C1615 1.491 . S
H1611 C1612 0.950 . S
C1612 C1609 1.390 . S
C1612 H1611 0.950 . S
C1612 C1613 1.378 . S
C1613 C1612 1.378 . S
C1613 C1614 1.409 . S
C1614 C1610 1.387 . S
C1614 C1613 1.409 . S
C1614 H1616 0.951 . S
C1615 C1610 1.491 . S
C1615 C1617 1.382 . S
C1615 C1619 1.404 . S
H1616 C1614 0.951 . S
C1617 C1615 1.382 . S
C1617 C1618 1.390 . S
C1617 H1622 0.949 . S
C1618 C1617 1.390 . S
C1618 C1623 1.399 . S
C1619 C1615 1.404 . S
C1619 H1620 0.950 . S
C1619 C1621 1.375 . S
H1620 C1619 0.950 . S
C1621 C1619 1.375 . S
C1621 C1623 1.382 . S
C1621 H1625 0.950 . S
H1622 C1617 0.949 . S
C1623 C1618 1.399 . S
C1623 C1621 1.382 . S
C1623 H1624 0.952 . S
H1624 C1623 0.952 . S
H1625 C1621 0.950 . S
H1626 C1627 0.949 . S
C1627 H1626 0.949 . S
C1627 C1628 1.395 . S
C1627 C1629 1.391 . S
C1628 C1627 1.395 . S
C1628 C1631 1.390 . S
C1629 C1627 1.391 . S
C1629 C1633 1.387 . S
C1629 C1634 1.491 . S
H1630 C1631 0.950 . S
C1631 C1628 1.390 . S
C1631 H1630 0.950 . S
C1631 C1632 1.378 . S
C1632 C1631 1.378 . S
C1632 C1633 1.409 . S
C1633 C1629 1.387 . S
C1633 C1632 1.409 . S
C1633 H1635 0.951 . S
C1634 C1629 1.491 . S
C1634 C1636 1.382 . S
C1634 C1638 1.404 . S
H1635 C1633 0.951 . S
C1636 C1634 1.382 . S
C1636 C1637 1.390 . S
C1636 H1641 0.949 . S
C1637 C1636 1.390 . S
C1637 C1642 1.399 . S
C1638 C1634 1.404 . S
C1638 H1639 0.950 . S
C1638 C1640 1.375 . S
H1639 C1638 0.950 . S
C1640 C1638 1.375 . S
C1640 C1642 1.382 . S
C1640 H1644 0.950 . S
H1641 C1636 0.949 . S
C1642 C1637 1.399 . S
C1642 C1640 1.382 . S
C1642 H1643 0.952 . S
H1643 C1642 0.952 . S
H1644 C1640 0.950 . S
H1645 C1646 0.949 . S
C1646 H1645 0.949 . S
C1646 C1647 1.395 . S
C1646 C1648 1.391 . S
C1647 C1646 1.395 . S
C1647 C1650 1.390 . S
C1648 C1646 1.391 . S
C1648 C1652 1.387 . S
C1648 C1653 1.491 . S
H1649 C1650 0.950 . S
C1650 C1647 1.390 . S
C1650 H1649 0.950 . S
C1650 C1651 1.378 . S
C1651 C1650 1.378 . S
C1651 C1652 1.409 . S
C1652 C1648 1.387 . S
C1652 C1651 1.409 . S
C1652 H1654 0.951 . S
C1653 C1648 1.491 . S
C1653 C1655 1.382 . S
C1653 C1657 1.409 . S
H1654 C1652 0.951 . S
C1655 C1653 1.382 . S
C1655 C1656 1.390 1_655 S
C1655 H1660 0.949 . S
C1656 C1655 1.390 1_455 S
C1656 C1661 1.399 . S
C1657 C1653 1.409 . S
C1657 H1658 0.953 . S
C1657 C1659 1.366 1_655 S
H1658 C1657 0.953 . S
C1659 C1657 1.366 1_455 S
C1659 C1661 1.382 . S
C1659 H1663 0.950 . S
H1660 C1655 0.949 . S
C1661 C1656 1.399 . S
C1661 C1659 1.382 . S
C1661 H1662 0.952 . S
H1662 C1661 0.952 . S
H1663 C1659 0.950 . S
H1664 C1665 0.949 . S
C1665 H1664 0.949 . S
C1665 C1666 1.395 . S
C1665 C1667 1.391 . S
C1666 C1665 1.395 . S
C1666 C1669 1.390 . S
C1667 C1665 1.391 . S
C1667 C1671 1.387 . S
C1667 C1672 1.491 . S
H1668 C1669 0.950 . S
C1669 C1666 1.390 . S
C1669 H1668 0.950 . S
C1669 C1670 1.378 . S
C1670 C1669 1.378 . S
C1670 C1671 1.409 . S
C1671 C1667 1.387 . S
C1671 C1670 1.409 . S
C1671 H1673 0.951 . S
C1672 C1667 1.491 . S
C1672 C1674 1.382 . S
C1672 C1676 1.404 . S
H1673 C1671 0.951 . S
C1674 C1672 1.382 . S
C1674 C1675 1.390 . S
C1674 H1679 0.949 . S
C1675 C1674 1.390 . S
C1675 C1680 1.399 . S
C1676 C1672 1.404 . S
C1676 H1677 0.950 . S
C1676 C1678 1.375 . S
H1677 C1676 0.950 . S
C1678 C1676 1.375 . S
C1678 C1680 1.382 . S
C1678 H1682 0.950 . S
H1679 C1674 0.949 . S
C1680 C1675 1.399 . S
C1680 C1678 1.382 . S
C1680 H1681 0.952 . S
H1681 C1680 0.952 . S
H1682 C1678 0.950 . S
H1683 C1684 0.949 . S
C1684 H1683 0.949 . S
C1684 C1685 1.395 . S
C1684 C1686 1.391 . S
C1685 C1684 1.395 . S
C1685 C1688 1.390 . S
C1686 C1684 1.391 . S
C1686 C1690 1.387 . S
C1686 C1691 1.491 . S
H1687 C1688 0.950 . S
C1688 C1685 1.390 . S
C1688 H1687 0.950 . S
C1688 C1689 1.378 . S
C1689 C1688 1.378 . S
C1689 C1690 1.409 . S
C1690 C1686 1.387 . S
C1690 C1689 1.409 . S
C1690 H1692 0.951 . S
C1691 C1686 1.491 . S
C1691 C1693 1.382 . S
C1691 C1695 1.404 . S
H1692 C1690 0.951 . S
C1693 C1691 1.382 . S
C1693 C1694 1.390 . S
C1693 H1698 0.949 . S
C1694 C1693 1.390 . S
C1694 C1699 1.399 . S
C1695 C1691 1.404 . S
C1695 H1696 0.950 . S
C1695 C1697 1.375 . S
H1696 C1695 0.950 . S
C1697 C1695 1.375 . S
C1697 C1699 1.382 . S
C1697 H1701 0.950 . S
H1698 C1693 0.949 . S
C1699 C1694 1.399 . S
C1699 C1697 1.382 . S
C1699 H1700 0.952 . S
H1700 C1699 0.952 . S
H1701 C1697 0.950 . S
H1702 C1703 0.949 . S
C1703 H1702 0.949 . S
C1703 C1704 1.395 . S
C1703 C1705 1.391 . S
C1704 C1703 1.395 . S
C1704 C1707 1.390 . S
C1705 C1703 1.391 . S
C1705 C1709 1.387 . S
C1705 C1710 1.491 . S
H1706 C1707 0.950 . S
C1707 C1704 1.390 . S
C1707 H1706 0.950 . S
C1707 C1708 1.378 . S
C1708 C1707 1.378 . S
C1708 C1709 1.409 . S
C1709 C1705 1.387 . S
C1709 C1708 1.409 . S
C1709 H1711 0.951 . S
C1710 C1705 1.491 . S
C1710 C1712 1.382 . S
C1710 C1714 1.404 . S
H1711 C1709 0.951 . S
C1712 C1710 1.382 . S
C1712 C1713 1.390 . S
C1712 H1717 0.949 . S
C1713 C1712 1.390 . S
C1713 C1718 1.399 . S
C1714 C1710 1.404 . S
C1714 H1715 0.950 . S
C1714 C1716 1.375 . S
H1715 C1714 0.950 . S
C1716 C1714 1.375 . S
C1716 C1718 1.382 . S
C1716 H1720 0.950 . S
H1717 C1712 0.949 . S
C1718 C1713 1.399 . S
C1718 C1716 1.382 . S
C1718 H1719 0.952 . S
H1719 C1718 0.952 . S
H1720 C1716 0.950 . S
H1721 C1722 0.949 . S
C1722 H1721 0.949 . S
C1722 C1723 1.395 . S
C1722 C1724 1.391 . S
C1723 C1722 1.395 . S
C1723 C1726 1.390 . S
C1724 C1722 1.391 . S
C1724 C1728 1.387 . S
C1724 C1729 1.491 . S
H1725 C1726 0.950 . S
C1726 C1723 1.390 . S
C1726 H1725 0.950 . S
C1726 C1727 1.378 . S
C1727 C1726 1.378 . S
C1727 C1728 1.409 . S
C1728 C1724 1.387 . S
C1728 C1727 1.409 . S
C1728 H1730 0.951 . S
C1729 C1724 1.491 . S
C1729 C1731 1.382 . S
C1729 C1733 1.410 . S
H1730 C1728 0.951 . S
C1731 C1729 1.382 . S
C1731 C1732 1.390 1_554 S
C1731 H1736 0.949 . S
C1732 C1731 1.390 1_556 S
C1732 C1737 1.399 . S
C1733 C1729 1.410 . S
C1733 H1734 0.954 . S
C1733 C1735 1.364 1_554 S
H1734 C1733 0.954 . S
C1735 C1733 1.364 1_556 S
C1735 C1737 1.382 . S
C1735 H1739 0.950 . S
H1736 C1731 0.949 . S
C1737 C1732 1.399 . S
C1737 C1735 1.382 . S
C1737 H1738 0.952 . S
H1738 C1737 0.952 . S
H1739 C1735 0.950 . S
H1740 C1741 0.949 . S
C1741 H1740 0.949 . S
C1741 C1742 1.395 . S
C1741 C1743 1.391 . S
C1742 C1741 1.395 . S
C1742 C1745 1.390 . S
C1743 C1741 1.391 . S
C1743 C1747 1.387 . S
C1743 C1748 1.491 . S
H1744 C1745 0.950 . S
C1745 C1742 1.390 . S
C1745 H1744 0.950 . S
C1745 C1746 1.378 . S
C1746 C1745 1.378 . S
C1746 C1747 1.409 . S
C1747 C1743 1.387 . S
C1747 C1746 1.409 . S
C1747 H1749 0.951 . S
C1748 C1743 1.491 . S
C1748 C1750 1.382 . S
C1748 C1752 1.404 . S
H1749 C1747 0.951 . S
C1750 C1748 1.382 . S
C1750 C1751 1.390 . S
C1750 H1755 0.949 . S
C1751 C1750 1.390 . S
C1751 C1756 1.399 . S
C1752 C1748 1.404 . S
C1752 H1753 0.950 . S
C1752 C1754 1.375 . S
H1753 C1752 0.950 . S
C1754 C1752 1.375 . S
C1754 C1756 1.382 . S
C1754 H1758 0.950 . S
H1755 C1750 0.949 . S
C1756 C1751 1.399 . S
C1756 C1754 1.382 . S
C1756 H1757 0.952 . S
H1757 C1756 0.952 . S
H1758 C1754 0.950 . S
H1759 C1760 0.949 . S
C1760 H1759 0.949 . S
C1760 C1761 1.395 . S
C1760 C1762 1.391 . S
C1761 C1760 1.395 . S
C1761 C1764 1.390 . S
C1762 C1760 1.391 . S
C1762 C1766 1.387 . S
C1762 C1767 1.491 . S
H1763 C1764 0.950 . S
C1764 C1761 1.390 . S
C1764 H1763 0.950 . S
C1764 C1765 1.378 . S
C1765 C1764 1.378 . S
C1765 C1766 1.409 . S
C1766 C1762 1.387 . S
C1766 C1765 1.409 . S
C1766 H1768 0.951 . S
C1767 C1762 1.491 . S
C1767 C1769 1.382 . S
C1767 C1771 1.404 . S
H1768 C1766 0.951 . S
C1769 C1767 1.382 . S
C1769 C1770 1.390 . S
C1769 H1774 0.949 . S
C1770 C1769 1.390 . S
C1770 C1775 1.399 . S
C1771 C1767 1.404 . S
C1771 H1772 0.950 . S
C1771 C1773 1.375 . S
H1772 C1771 0.950 . S
C1773 C1771 1.375 . S
C1773 C1775 1.382 . S
C1773 H1777 0.950 . S
H1774 C1769 0.949 . S
C1775 C1770 1.399 . S
C1775 C1773 1.382 . S
C1775 H1776 0.952 . S
H1776 C1775 0.952 . S
H1777 C1773 0.950 . S
H1778 C1779 0.949 . S
C1779 H1778 0.949 . S
C1779 C1780 1.395 . S
C1779 C1781 1.391 . S
C1780 C1779 1.395 . S
C1780 C1783 1.390 . S
C1781 C1779 1.391 . S
C1781 C1785 1.387 . S
C1781 C1786 1.491 . S
H1782 C1783 0.950 . S
C1783 C1780 1.390 . S
C1783 H1782 0.950 . S
C1783 C1784 1.378 . S
C1784 C1783 1.378 . S
C1784 C1785 1.409 . S
C1785 C1781 1.387 . S
C1785 C1784 1.409 . S
C1785 H1787 0.951 . S
C1786 C1781 1.491 . S
C1786 C1788 1.382 . S
C1786 C1790 1.404 . S
H1787 C1785 0.951 . S
C1788 C1786 1.382 . S
C1788 C1789 1.390 . S
C1788 H1793 0.949 . S
C1789 C1788 1.390 . S
C1789 C1794 1.399 . S
C1790 C1786 1.404 . S
C1790 H1791 0.950 . S
C1790 C1792 1.375 . S
H1791 C1790 0.950 . S
C1792 C1790 1.375 . S
C1792 C1794 1.382 . S
C1792 H1796 0.950 . S
H1793 C1788 0.949 . S
C1794 C1789 1.399 . S
C1794 C1792 1.382 . S
C1794 H1795 0.952 . S
H1795 C1794 0.952 . S
H1796 C1792 0.950 . S
H1797 C1798 0.949 . S
C1798 H1797 0.949 . S
C1798 C1799 1.395 . S
C1798 C1800 1.391 . S
C1799 C1798 1.395 . S
C1799 C1802 1.390 . S
C1800 C1798 1.391 . S
C1800 C1804 1.387 . S
C1800 C1805 1.491 . S
H1801 C1802 0.950 . S
C1802 C1799 1.390 . S
C1802 H1801 0.950 . S
C1802 C1803 1.378 . S
C1803 C1802 1.378 . S
C1803 C1804 1.409 . S
C1804 C1800 1.387 . S
C1804 C1803 1.409 . S
C1804 H1806 0.951 . S
C1805 C1800 1.491 . S
C1805 C1807 1.382 . S
C1805 C1809 1.409 . S
H1806 C1804 0.951 . S
C1807 C1805 1.382 . S
C1807 C1808 1.390 1_556 S
C1807 H1812 0.949 . S
C1808 C1807 1.390 1_554 S
C1808 C1813 1.399 . S
C1809 C1805 1.409 . S
C1809 H1810 0.953 . S
C1809 C1811 1.366 1_556 S
H1810 C1809 0.953 . S
C1811 C1809 1.366 1_554 S
C1811 C1813 1.382 . S
C1811 H1815 0.950 . S
H1812 C1807 0.949 . S
C1813 C1808 1.399 . S
C1813 C1811 1.382 . S
C1813 H1814 0.952 . S
H1814 C1813 0.952 . S
H1815 C1811 0.950 . S
H1816 C1817 0.949 . S
C1817 H1816 0.949 . S
C1817 C1818 1.395 . S
C1817 C1819 1.391 . S
C1818 C1817 1.395 . S
C1818 C1821 1.390 . S
C1819 C1817 1.391 . S
C1819 C1823 1.387 . S
C1819 C1824 1.491 . S
H1820 C1821 0.950 . S
C1821 C1818 1.390 . S
C1821 H1820 0.950 . S
C1821 C1822 1.378 . S
C1822 C1821 1.378 . S
C1822 C1823 1.409 . S
C1823 C1819 1.387 . S
C1823 C1822 1.409 . S
C1823 H1825 0.951 . S
C1824 C1819 1.491 . S
C1824 C1826 1.382 . S
C1824 C1828 1.404 . S
H1825 C1823 0.951 . S
C1826 C1824 1.382 . S
C1826 C1827 1.390 . S
C1826 H1831 0.949 . S
C1827 C1826 1.390 . S
C1827 C1832 1.399 . S
C1828 C1824 1.404 . S
C1828 H1829 0.950 . S
C1828 C1830 1.375 . S
H1829 C1828 0.950 . S
C1830 C1828 1.375 . S
C1830 C1832 1.382 . S
C1830 H1834 0.950 . S
H1831 C1826 0.949 . S
C1832 C1827 1.399 . S
C1832 C1830 1.382 . S
C1832 H1833 0.952 . S
H1833 C1832 0.952 . S
H1834 C1830 0.950 . S
H1835 C1836 0.949 . S
C1836 H1835 0.949 . S
C1836 C1837 1.395 . S
C1836 C1838 1.391 . S
C1837 C1836 1.395 . S
C1837 C1840 1.390 . S
C1838 C1836 1.391 . S
C1838 C1842 1.387 . S
C1838 C1843 1.491 . S
H1839 C1840 0.950 . S
C1840 C1837 1.390 . S
C1840 H1839 0.950 . S
C1840 C1841 1.378 . S
C1841 C1840 1.378 . S
C1841 C1842 1.409 . S
C1842 C1838 1.387 . S
C1842 C1841 1.409 . S
C1842 H1844 0.951 . S
C1843 C1838 1.491 . S
C1843 C1845 1.382 . S
C1843 C1847 1.404 . S
H1844 C1842 0.951 . S
C1845 C1843 1.382 . S
C1845 C1846 1.390 . S
C1845 H1850 0.949 . S
C1846 C1845 1.390 . S
C1846 C1851 1.399 . S
C1847 C1843 1.404 . S
C1847 H1848 0.950 . S
C1847 C1849 1.375 . S
H1848 C1847 0.950 . S
C1849 C1847 1.375 . S
C1849 C1851 1.382 . S
C1849 H1853 0.950 . S
H1850 C1845 0.949 . S
C1851 C1846 1.399 . S
C1851 C1849 1.382 . S
C1851 H1852 0.952 . S
H1852 C1851 0.952 . S
H1853 C1849 0.950 . S
H1854 C1855 0.949 . S
C1855 H1854 0.949 . S
C1855 C1856 1.395 . S
C1855 C1857 1.391 . S
C1856 C1855 1.395 . S
C1856 C1859 1.390 . S
C1857 C1855 1.391 . S
C1857 C1861 1.387 . S
C1857 C1862 1.491 . S
H1858 C1859 0.950 . S
C1859 C1856 1.390 . S
C1859 H1858 0.950 . S
C1859 C1860 1.378 . S
C1860 C1859 1.378 . S
C1860 C1861 1.409 . S
C1861 C1857 1.387 . S
C1861 C1860 1.409 . S
C1861 H1863 0.951 . S
C1862 C1857 1.491 . S
C1862 C1864 1.382 . S
C1862 C1866 1.404 . S
H1863 C1861 0.951 . S
C1864 C1862 1.382 . S
C1864 C1865 1.390 . S
C1864 H1869 0.949 . S
C1865 C1864 1.390 . S
C1865 C1870 1.399 . S
C1866 C1862 1.404 . S
C1866 H1867 0.950 . S
C1866 C1868 1.375 . S
H1867 C1866 0.950 . S
C1868 C1866 1.375 . S
C1868 C1870 1.382 . S
C1868 H1872 0.950 . S
H1869 C1864 0.949 . S
C1870 C1865 1.399 . S
C1870 C1868 1.382 . S
C1870 H1871 0.952 . S
H1871 C1870 0.952 . S
H1872 C1868 0.950 . S
H1873 C1874 0.949 . S
C1874 H1873 0.949 . S
C1874 C1875 1.395 . S
C1874 C1876 1.391 . S
C1875 C1874 1.395 . S
C1875 C1878 1.390 . S
C1876 C1874 1.391 . S
C1876 C1880 1.387 . S
C1876 C1881 1.491 . S
H1877 C1878 0.950 . S
C1878 C1875 1.390 . S
C1878 H1877 0.950 . S
C1878 C1879 1.378 . S
C1879 C1878 1.378 . S
C1879 C1880 1.409 . S
C1880 C1876 1.387 . S
C1880 C1879 1.409 . S
C1880 H1882 0.951 . S
C1881 C1876 1.491 . S
C1881 C1883 1.382 . S
C1881 C1885 1.404 . S
H1882 C1880 0.951 . S
C1883 C1881 1.382 . S
C1883 C1884 1.390 . S
C1883 H1888 0.949 . S
C1884 C1883 1.390 . S
C1884 C1889 1.399 . S
C1885 C1881 1.404 . S
C1885 H1886 0.950 . S
C1885 C1887 1.375 . S
H1886 C1885 0.950 . S
C1887 C1885 1.375 . S
C1887 C1889 1.382 . S
C1887 H1891 0.950 . S
H1888 C1883 0.949 . S
C1889 C1884 1.399 . S
C1889 C1887 1.382 . S
C1889 H1890 0.952 . S
H1890 C1889 0.952 . S
H1891 C1887 0.950 . S
H1892 C1893 0.949 . S
C1893 H1892 0.949 . S
C1893 C1894 1.395 . S
C1893 C1895 1.391 . S
C1894 C1893 1.395 . S
C1894 C1897 1.390 . S
C1895 C1893 1.391 . S
C1895 C1899 1.387 . S
C1895 C1900 1.491 . S
H1896 C1897 0.950 . S
C1897 C1894 1.390 . S
C1897 H1896 0.950 . S
C1897 C1898 1.378 . S
C1898 C1897 1.378 . S
C1898 C1899 1.409 . S
C1899 C1895 1.387 . S
C1899 C1898 1.409 . S
C1899 H1901 0.951 . S
C1900 C1895 1.491 . S
C1900 C1902 1.382 . S
C1900 C1904 1.411 . S
H1901 C1899 0.951 . S
C1902 C1900 1.382 . S
C1902 C1903 1.390 1_565 S
C1902 H1907 0.949 . S
C1903 C1902 1.390 1_545 S
C1903 C1908 1.399 . S
C1904 C1900 1.411 . S
C1904 H1905 0.954 . S
C1904 C1906 1.363 1_565 S
H1905 C1904 0.954 . S
C1906 C1904 1.363 1_545 S
C1906 C1908 1.382 . S
C1906 H1910 0.950 . S
H1907 C1902 0.949 . S
C1908 C1903 1.399 . S
C1908 C1906 1.382 . S
C1908 H1909 0.952 . S
H1909 C1908 0.952 . S
H1910 C1906 0.950 . S
H1911 C1912 0.949 . S
C1912 H1911 0.949 . S
C1912 C1913 1.395 . S
C1912 C1914 1.391 . S
C1913 C1912 1.395 . S
C1913 C1916 1.390 . S
C1914 C1912 1.391 . S
C1914 C1918 1.387 . S
C1914 C1919 1.491 . S
H1915 C1916 0.950 . S
C1916 C1913 1.390 . S
C1916 H1915 0.950 . S
C1916 C1917 1.378 . S
C1917 C1916 1.378 . S
C1917 C1918 1.409 . S
C1918 C1914 1.387 . S
C1918 C1917 1.409 . S
C1918 H1920 0.951 . S
C1919 C1914 1.491 . S
C1919 C1921 1.382 . S
C1919 C1923 1.404 . S
H1920 C1918 0.951 . S
C1921 C1919 1.382 . S
C1921 C1922 1.390 . S
C1921 H1926 0.949 . S
C1922 C1921 1.390 . S
C1922 C1927 1.399 . S
C1923 C1919 1.404 . S
C1923 H1924 0.950 . S
C1923 C1925 1.375 . S
H1924 C1923 0.950 . S
C1925 C1923 1.375 . S
C1925 C1927 1.382 . S
C1925 H1929 0.950 . S
H1926 C1921 0.949 . S
C1927 C1922 1.399 . S
C1927 C1925 1.382 . S
C1927 H1928 0.952 . S
H1928 C1927 0.952 . S
H1929 C1925 0.950 . S
H1930 C1931 0.949 . S
C1931 H1930 0.949 . S
C1931 C1932 1.395 . S
C1931 C1933 1.391 . S
C1932 C1931 1.395 . S
C1932 C1935 1.390 . S
C1933 C1931 1.391 . S
C1933 C1937 1.387 . S
C1933 C1938 1.491 . S
H1934 C1935 0.950 . S
C1935 C1932 1.390 . S
C1935 H1934 0.950 . S
C1935 C1936 1.378 . S
C1936 C1935 1.378 . S
C1936 C1937 1.409 . S
C1937 C1933 1.387 . S
C1937 C1936 1.409 . S
C1937 H1939 0.951 . S
C1938 C1933 1.491 . S
C1938 C1940 1.382 . S
C1938 C1942 1.404 . S
H1939 C1937 0.951 . S
C1940 C1938 1.382 . S
C1940 C1941 1.390 . S
C1940 H1945 0.949 . S
C1941 C1940 1.390 . S
C1941 C1946 1.399 . S
C1942 C1938 1.404 . S
C1942 H1943 0.950 . S
C1942 C1944 1.375 . S
H1943 C1942 0.950 . S
C1944 C1942 1.375 . S
C1944 C1946 1.382 . S
C1944 H1948 0.950 . S
H1945 C1940 0.949 . S
C1946 C1941 1.399 . S
C1946 C1944 1.382 . S
C1946 H1947 0.952 . S
H1947 C1946 0.952 . S
H1948 C1944 0.950 . S
H1949 C1950 0.949 . S
C1950 H1949 0.949 . S
C1950 C1951 1.395 . S
C1950 C1952 1.391 . S
C1951 C1950 1.395 . S
C1951 C1954 1.390 . S
C1952 C1950 1.391 . S
C1952 C1956 1.387 . S
C1952 C1957 1.491 . S
H1953 C1954 0.950 . S
C1954 C1951 1.390 . S
C1954 H1953 0.950 . S
C1954 C1955 1.378 . S
C1955 C1954 1.378 . S
C1955 C1956 1.409 . S
C1956 C1952 1.387 . S
C1956 C1955 1.409 . S
C1956 H1958 0.951 . S
C1957 C1952 1.491 . S
C1957 C1959 1.382 . S
C1957 C1961 1.404 . S
H1958 C1956 0.951 . S
C1959 C1957 1.382 . S
C1959 C1960 1.390 . S
C1959 H1964 0.949 . S
C1960 C1959 1.390 . S
C1960 C1965 1.399 . S
C1961 C1957 1.404 . S
C1961 H1962 0.950 . S
C1961 C1963 1.375 . S
H1962 C1961 0.950 . S
C1963 C1961 1.375 . S
C1963 C1965 1.382 . S
C1963 H1967 0.950 . S
H1964 C1959 0.949 . S
C1965 C1960 1.399 . S
C1965 C1963 1.382 . S
C1965 H1966 0.952 . S
H1966 C1965 0.952 . S
H1967 C1963 0.950 . S
H1968 C1969 0.949 . S
C1969 H1968 0.949 . S
C1969 C1970 1.395 . S
C1969 C1971 1.391 . S
C1970 C1969 1.395 . S
C1970 C1973 1.390 . S
C1971 C1969 1.391 . S
C1971 C1975 1.387 . S
C1971 C1976 1.491 . S
H1972 C1973 0.950 . S
C1973 C1970 1.390 . S
C1973 H1972 0.950 . S
C1973 C1974 1.378 . S
C1974 C1973 1.378 . S
C1974 C1975 1.409 . S
C1975 C1971 1.387 . S
C1975 C1974 1.409 . S
C1975 H1977 0.951 . S
C1976 C1971 1.491 . S
C1976 C1978 1.382 . S
C1976 C1980 1.404 . S
H1977 C1975 0.951 . S
C1978 C1976 1.382 . S
C1978 C1979 1.390 . S
C1978 H1983 0.949 . S
C1979 C1978 1.390 . S
C1979 C1984 1.399 . S
C1980 C1976 1.404 . S
C1980 H1981 0.950 . S
C1980 C1982 1.375 . S
H1981 C1980 0.950 . S
C1982 C1980 1.375 . S
C1982 C1984 1.382 . S
C1982 H1986 0.950 . S
H1983 C1978 0.949 . S
C1984 C1979 1.399 . S
C1984 C1982 1.382 . S
C1984 H1985 0.952 . S
H1985 C1984 0.952 . S
H1986 C1982 0.950 . S
H1987 C1988 0.949 . S
C1988 H1987 0.949 . S
C1988 C1989 1.395 . S
C1988 C1990 1.391 . S
C1989 C1988 1.395 . S
C1989 C1992 1.390 . S
C1990 C1988 1.391 . S
C1990 C1994 1.387 . S
C1990 C1995 1.491 . S
H1991 C1992 0.950 . S
C1992 C1989 1.390 . S
C1992 H1991 0.950 . S
C1992 C1993 1.378 . S
C1993 C1992 1.378 . S
C1993 C1994 1.409 . S
C1994 C1990 1.387 . S
C1994 C1993 1.409 . S
C1994 H1996 0.951 . S
C1995 C1990 1.491 . S
C1995 C1997 1.382 . S
C1995 C1999 1.404 . S
H1996 C1994 0.951 . S
C1997 C1995 1.382 . S
C1997 C1998 1.390 . S
C1997 H2002 0.949 . S
C1998 C1997 1.390 . S
C1998 C2003 1.399 . S
C1999 C1995 1.404 . S
C1999 H2000 0.950 . S
C1999 C2001 1.375 . S
H2000 C1999 0.950 . S
C2001 C1999 1.375 . S
C2001 C2003 1.382 . S
C2001 H2005 0.950 . S
H2002 C1997 0.949 . S
C2003 C1998 1.399 . S
C2003 C2001 1.382 . S
C2003 H2004 0.952 . S
H2004 C2003 0.952 . S
H2005 C2001 0.950 . S
H2006 C2007 0.949 . S
C2007 H2006 0.949 . S
C2007 C2008 1.395 . S
C2007 C2009 1.391 . S
C2008 C2007 1.395 . S
C2008 C2011 1.390 . S
C2009 C2007 1.391 . S
C2009 C2013 1.387 . S
C2009 C2014 1.491 . S
H2010 C2011 0.950 . S
C2011 C2008 1.390 . S
C2011 H2010 0.950 . S
C2011 C2012 1.378 . S
C2012 C2011 1.378 . S
C2012 C2013 1.409 . S
C2013 C2009 1.387 . S
C2013 C2012 1.409 . S
C2013 H2015 0.951 . S
C2014 C2009 1.491 . S
C2014 C2016 1.382 . S
C2014 C2018 1.404 . S
H2015 C2013 0.951 . S
C2016 C2014 1.382 . S
C2016 C2017 1.390 . S
C2016 H2021 0.949 . S
C2017 C2016 1.390 . S
C2017 C2022 1.399 . S
C2018 C2014 1.404 . S
C2018 H2019 0.950 . S
C2018 C2020 1.375 . S
H2019 C2018 0.950 . S
C2020 C2018 1.375 . S
C2020 C2022 1.382 . S
C2020 H2024 0.950 . S
H2021 C2016 0.949 . S
C2022 C2017 1.399 . S
C2022 C2020 1.382 . S
C2022 H2023 0.952 . S
H2023 C2022 0.952 . S
H2024 C2020 0.950 . S
H2025 C2026 0.949 . S
C2026 H2025 0.949 . S
C2026 C2027 1.395 . S
C2026 C2028 1.391 . S
C2027 C2026 1.395 . S
C2027 C2030 1.390 . S
C2028 C2026 1.391 . S
C2028 C2032 1.387 . S
C2028 C2033 1.491 . S
H2029 C2030 0.950 . S
C2030 C2027 1.390 . S
C2030 H2029 0.950 . S
C2030 C2031 1.378 . S
C2031 C2030 1.378 . S
C2031 C2032 1.409 . S
C2032 C2028 1.387 . S
C2032 C2031 1.409 . S
C2032 H2034 0.951 . S
C2033 C2028 1.491 . S
C2033 C2035 1.382 . S
C2033 C2037 1.404 . S
H2034 C2032 0.951 . S
C2035 C2033 1.382 . S
C2035 C2036 1.390 1_655 S
C2035 H2040 0.949 . S
C2036 C2035 1.390 1_455 S
C2036 C2041 1.399 . S
C2037 C2033 1.404 . S
C2037 H2038 0.950 . S
C2037 C2039 1.375 . S
H2038 C2037 0.950 . S
C2039 C2037 1.375 . S
C2039 C2041 1.382 1_655 S
C2039 H2043 0.953 . S
H2040 C2035 0.949 . S
C2041 C2036 1.399 . S
C2041 C2039 1.382 1_455 S
C2041 H2042 0.952 . S
H2042 C2041 0.952 . S
H2043 C2039 0.953 . S
H2044 C2045 0.949 . S
C2045 H2044 0.949 . S
C2045 C2046 1.395 . S
C2045 C2047 1.391 . S
C2046 C2045 1.395 . S
C2046 C2049 1.390 . S
C2047 C2045 1.391 . S
C2047 C2051 1.387 . S
C2047 C2052 1.491 . S
H2048 C2049 0.950 . S
C2049 C2046 1.390 . S
C2049 H2048 0.950 . S
C2049 C2050 1.378 . S
C2050 C2049 1.378 . S
C2050 C2051 1.409 . S
C2051 C2047 1.387 . S
C2051 C2050 1.409 . S
C2051 H2053 0.951 . S
C2052 C2047 1.491 . S
C2052 C2054 1.382 . S
C2052 C2056 1.404 . S
H2053 C2051 0.951 . S
C2054 C2052 1.382 . S
C2054 C2055 1.390 . S
C2054 H2059 0.949 . S
C2055 C2054 1.390 . S
C2055 C2060 1.399 . S
C2056 C2052 1.404 . S
C2056 H2057 0.950 . S
C2056 C2058 1.375 . S
H2057 C2056 0.950 . S
C2058 C2056 1.375 . S
C2058 C2060 1.382 . S
C2058 H2062 0.950 . S
H2059 C2054 0.949 . S
C2060 C2055 1.399 . S
C2060 C2058 1.382 . S
C2060 H2061 0.952 . S
H2061 C2060 0.952 . S
H2062 C2058 0.950 . S
H2063 C2064 0.949 . S
C2064 H2063 0.949 . S
C2064 C2065 1.395 . S
C2064 C2066 1.391 . S
C2065 C2064 1.395 . S
C2065 C2068 1.390 . S
C2066 C2064 1.391 . S
C2066 C2070 1.387 . S
C2066 C2071 1.491 . S
H2067 C2068 0.950 . S
C2068 C2065 1.390 . S
C2068 H2067 0.950 . S
C2068 C2069 1.378 . S
C2069 C2068 1.378 . S
C2069 C2070 1.409 . S
C2070 C2066 1.387 . S
C2070 C2069 1.409 . S
C2070 H2072 0.951 . S
C2071 C2066 1.491 . S
C2071 C2073 1.382 . S
C2071 C2075 1.404 . S
H2072 C2070 0.951 . S
C2073 C2071 1.382 . S
C2073 C2074 1.390 1_655 S
C2073 H2078 0.949 . S
C2074 C2073 1.390 1_455 S
C2074 C2079 1.399 . S
C2075 C2071 1.404 . S
C2075 H2076 0.950 . S
C2075 C2077 1.375 . S
H2076 C2075 0.950 . S
C2077 C2075 1.375 . S
C2077 C2079 1.382 1_655 S
C2077 H2081 0.954 . S
H2078 C2073 0.949 . S
C2079 C2074 1.399 . S
C2079 C2077 1.382 1_455 S
C2079 H2080 0.952 . S
H2080 C2079 0.952 . S
H2081 C2077 0.954 . S
H2082 C2083 0.949 . S
C2083 H2082 0.949 . S
C2083 C2084 1.395 . S
C2083 C2085 1.391 . S
C2084 C2083 1.395 . S
C2084 C2087 1.390 . S
C2085 C2083 1.391 . S
C2085 C2089 1.387 . S
C2085 C2090 1.491 . S
H2086 C2087 0.950 . S
C2087 C2084 1.390 . S
C2087 H2086 0.950 . S
C2087 C2088 1.378 . S
C2088 C2087 1.378 . S
C2088 C2089 1.409 . S
C2089 C2085 1.387 . S
C2089 C2088 1.409 . S
C2089 H2091 0.951 . S
C2090 C2085 1.491 . S
C2090 C2092 1.382 . S
C2090 C2094 1.404 . S
H2091 C2089 0.951 . S
C2092 C2090 1.382 . S
C2092 C2093 1.390 . S
C2092 H2097 0.949 . S
C2093 C2092 1.390 . S
C2093 C2098 1.399 . S
C2094 C2090 1.404 . S
C2094 H2095 0.950 . S
C2094 C2096 1.375 . S
H2095 C2094 0.950 . S
C2096 C2094 1.375 . S
C2096 C2098 1.382 . S
C2096 H2100 0.950 . S
H2097 C2092 0.949 . S
C2098 C2093 1.399 . S
C2098 C2096 1.382 . S
C2098 H2099 0.952 . S
H2099 C2098 0.952 . S
H2100 C2096 0.950 . S
H2101 C2102 0.949 . S
C2102 H2101 0.949 . S
C2102 C2103 1.395 . S
C2102 C2104 1.391 . S
C2103 C2102 1.395 . S
C2103 C2106 1.390 . S
C2104 C2102 1.391 . S
C2104 C2108 1.387 . S
C2104 C2109 1.491 . S
H2105 C2106 0.950 . S
C2106 C2103 1.390 . S
C2106 H2105 0.950 . S
C2106 C2107 1.378 . S
C2107 C2106 1.378 . S
C2107 C2108 1.409 . S
C2108 C2104 1.387 . S
C2108 C2107 1.409 . S
C2108 H2110 0.951 . S
C2109 C2104 1.491 . S
C2109 C2111 1.382 . S
C2109 C2113 1.404 . S
H2110 C2108 0.951 . S
C2111 C2109 1.382 . S
C2111 C2112 1.390 . S
C2111 H2116 0.949 . S
C2112 C2111 1.390 . S
C2112 C2117 1.399 . S
C2113 C2109 1.404 . S
C2113 H2114 0.950 . S
C2113 C2115 1.375 . S
H2114 C2113 0.950 . S
C2115 C2113 1.375 . S
C2115 C2117 1.382 . S
C2115 H2119 0.950 . S
H2116 C2111 0.949 . S
C2117 C2112 1.399 . S
C2117 C2115 1.382 . S
C2117 H2118 0.952 . S
H2118 C2117 0.952 . S
H2119 C2115 0.950 . S
H2120 C2121 0.949 . S
C2121 H2120 0.949 . S
C2121 C2122 1.395 . S
C2121 C2123 1.391 . S
C2122 C2121 1.395 . S
C2122 C2125 1.390 . S
C2123 C2121 1.391 . S
C2123 C2127 1.387 . S
C2123 C2128 1.491 . S
H2124 C2125 0.950 . S
C2125 C2122 1.390 . S
C2125 H2124 0.950 . S
C2125 C2126 1.378 . S
C2126 C2125 1.378 . S
C2126 C2127 1.409 . S
C2127 C2123 1.387 . S
C2127 C2126 1.409 . S
C2127 H2129 0.951 . S
C2128 C2123 1.491 . S
C2128 C2130 1.382 . S
C2128 C2132 1.404 . S
H2129 C2127 0.951 . S
C2130 C2128 1.382 . S
C2130 C2131 1.390 . S
C2130 H2135 0.949 . S
C2131 C2130 1.390 . S
C2131 C2136 1.399 . S
C2132 C2128 1.404 . S
C2132 H2133 0.950 . S
C2132 C2134 1.375 . S
H2133 C2132 0.950 . S
C2134 C2132 1.375 . S
C2134 C2136 1.382 . S
C2134 H2138 0.950 . S
H2135 C2130 0.949 . S
C2136 C2131 1.399 . S
C2136 C2134 1.382 . S
C2136 H2137 0.952 . S
H2137 C2136 0.952 . S
H2138 C2134 0.950 . S
H2139 C2140 0.949 . S
C2140 H2139 0.949 . S
C2140 C2141 1.395 . S
C2140 C2142 1.391 . S
C2141 C2140 1.395 . S
C2141 C2144 1.390 . S
C2142 C2140 1.391 . S
C2142 C2146 1.387 . S
C2142 C2147 1.491 . S
H2143 C2144 0.950 . S
C2144 C2141 1.390 . S
C2144 H2143 0.950 . S
C2144 C2145 1.378 . S
C2145 C2144 1.378 . S
C2145 C2146 1.409 . S
C2146 C2142 1.387 . S
C2146 C2145 1.409 . S
C2146 H2148 0.951 . S
C2147 C2142 1.491 . S
C2147 C2149 1.382 . S
C2147 C2151 1.404 . S
H2148 C2146 0.951 . S
C2149 C2147 1.382 . S
C2149 C2150 1.390 1_556 S
C2149 H2154 0.949 . S
C2150 C2149 1.390 1_554 S
C2150 C2155 1.399 . S
C2151 C2147 1.404 . S
C2151 H2152 0.950 . S
C2151 C2153 1.375 . S
H2152 C2151 0.950 . S
C2153 C2151 1.375 . S
C2153 C2155 1.382 1_556 S
C2153 H2157 0.953 . S
H2154 C2149 0.949 . S
C2155 C2150 1.399 . S
C2155 C2153 1.382 1_554 S
C2155 H2156 0.952 . S
H2156 C2155 0.952 . S
H2157 C2153 0.953 . S
H2158 C2159 0.949 . S
C2159 H2158 0.949 . S
C2159 C2160 1.395 . S
C2159 C2161 1.391 . S
C2160 C2159 1.395 . S
C2160 C2163 1.390 . S
C2161 C2159 1.391 . S
C2161 C2165 1.387 . S
C2161 C2166 1.491 . S
H2162 C2163 0.950 . S
C2163 C2160 1.390 . S
C2163 H2162 0.950 . S
C2163 C2164 1.378 . S
C2164 C2163 1.378 . S
C2164 C2165 1.409 . S
C2165 C2161 1.387 . S
C2165 C2164 1.409 . S
C2165 H2167 0.951 . S
C2166 C2161 1.491 . S
C2166 C2168 1.382 . S
C2166 C2170 1.404 . S
H2167 C2165 0.951 . S
C2168 C2166 1.382 . S
C2168 C2169 1.390 . S
C2168 H2173 0.949 . S
C2169 C2168 1.390 . S
C2169 C2174 1.399 . S
C2170 C2166 1.404 . S
C2170 H2171 0.950 . S
C2170 C2172 1.375 . S
H2171 C2170 0.950 . S
C2172 C2170 1.375 . S
C2172 C2174 1.382 . S
C2172 H2176 0.950 . S
H2173 C2168 0.949 . S
C2174 C2169 1.399 . S
C2174 C2172 1.382 . S
C2174 H2175 0.952 . S
H2175 C2174 0.952 . S
H2176 C2172 0.950 . S
H2177 C2178 0.949 . S
C2178 H2177 0.949 . S
C2178 C2179 1.395 . S
C2178 C2180 1.391 . S
C2179 C2178 1.395 . S
C2179 C2182 1.390 . S
C2180 C2178 1.391 . S
C2180 C2184 1.387 . S
C2180 C2185 1.491 . S
H2181 C2182 0.950 . S
C2182 C2179 1.390 . S
C2182 H2181 0.950 . S
C2182 C2183 1.378 . S
C2183 C2182 1.378 . S
C2183 C2184 1.409 . S
C2184 C2180 1.387 . S
C2184 C2183 1.409 . S
C2184 H2186 0.951 . S
C2185 C2180 1.491 . S
C2185 C2187 1.382 . S
C2185 C2189 1.404 . S
H2186 C2184 0.951 . S
C2187 C2185 1.382 . S
C2187 C2188 1.390 . S
C2187 H2192 0.949 . S
C2188 C2187 1.390 . S
C2188 C2193 1.399 . S
C2189 C2185 1.404 . S
C2189 H2190 0.950 . S
C2189 C2191 1.375 . S
H2190 C2189 0.950 . S
C2191 C2189 1.375 . S
C2191 C2193 1.382 . S
C2191 H2195 0.950 . S
H2192 C2187 0.949 . S
C2193 C2188 1.399 . S
C2193 C2191 1.382 . S
C2193 H2194 0.952 . S
H2194 C2193 0.952 . S
H2195 C2191 0.950 . S
H2196 C2197 0.949 . S
C2197 H2196 0.949 . S
C2197 C2198 1.395 . S
C2197 C2199 1.391 . S
C2198 C2197 1.395 . S
C2198 C2201 1.390 . S
C2199 C2197 1.391 . S
C2199 C2203 1.387 . S
C2199 C2204 1.491 . S
H2200 C2201 0.950 . S
C2201 C2198 1.390 . S
C2201 H2200 0.950 . S
C2201 C2202 1.378 . S
C2202 C2201 1.378 . S
C2202 C2203 1.409 . S
C2203 C2199 1.387 . S
C2203 C2202 1.409 . S
C2203 H2205 0.951 . S
C2204 C2199 1.491 . S
C2204 C2206 1.382 . S
C2204 C2208 1.404 . S
H2205 C2203 0.951 . S
C2206 C2204 1.382 . S
C2206 C2207 1.390 . S
C2206 H2211 0.949 . S
C2207 C2206 1.390 . S
C2207 C2212 1.399 . S
C2208 C2204 1.404 . S
C2208 H2209 0.950 . S
C2208 C2210 1.375 . S
H2209 C2208 0.950 . S
C2210 C2208 1.375 . S
C2210 C2212 1.382 . S
C2210 H2214 0.950 . S
H2211 C2206 0.949 . S
C2212 C2207 1.399 . S
C2212 C2210 1.382 . S
C2212 H2213 0.952 . S
H2213 C2212 0.952 . S
H2214 C2210 0.950 . S
H2215 C2216 0.949 . S
C2216 H2215 0.949 . S
C2216 C2217 1.395 . S
C2216 C2218 1.391 . S
C2217 C2216 1.395 . S
C2217 C2220 1.390 . S
C2218 C2216 1.391 . S
C2218 C2222 1.387 . S
C2218 C2223 1.491 . S
H2219 C2220 0.950 . S
C2220 C2217 1.390 . S
C2220 H2219 0.950 . S
C2220 C2221 1.378 . S
C2221 C2220 1.378 . S
C2221 C2222 1.409 . S
C2222 C2218 1.387 . S
C2222 C2221 1.409 . S
C2222 H2224 0.951 . S
C2223 C2218 1.491 . S
C2223 C2225 1.382 . S
C2223 C2227 1.404 . S
H2224 C2222 0.951 . S
C2225 C2223 1.382 . S
C2225 C2226 1.390 1_554 S
C2225 H2230 0.949 . S
C2226 C2225 1.390 1_556 S
C2226 C2231 1.399 . S
C2227 C2223 1.404 . S
C2227 H2228 0.950 . S
C2227 C2229 1.375 . S
H2228 C2227 0.950 . S
C2229 C2227 1.375 . S
C2229 C2231 1.382 1_554 S
C2229 H2233 0.954 . S
H2230 C2225 0.949 . S
C2231 C2226 1.399 . S
C2231 C2229 1.382 1_556 S
C2231 H2232 0.952 . S
H2232 C2231 0.952 . S
H2233 C2229 0.954 . S
H2234 C2235 0.949 . S
C2235 H2234 0.949 . S
C2235 C2236 1.395 . S
C2235 C2237 1.391 . S
C2236 C2235 1.395 . S
C2236 C2239 1.390 . S
C2237 C2235 1.391 . S
C2237 C2241 1.387 . S
C2237 C2242 1.491 . S
H2238 C2239 0.950 . S
C2239 C2236 1.390 . S
C2239 H2238 0.950 . S
C2239 C2240 1.378 . S
C2240 C2239 1.378 . S
C2240 C2241 1.409 . S
C2241 C2237 1.387 . S
C2241 C2240 1.409 . S
C2241 H2243 0.951 . S
C2242 C2237 1.491 . S
C2242 C2244 1.382 . S
C2242 C2246 1.404 . S
H2243 C2241 0.951 . S
C2244 C2242 1.382 . S
C2244 C2245 1.390 . S
C2244 H2249 0.949 . S
C2245 C2244 1.390 . S
C2245 C2250 1.399 . S
C2246 C2242 1.404 . S
C2246 H2247 0.950 . S
C2246 C2248 1.375 . S
H2247 C2246 0.950 . S
C2248 C2246 1.375 . S
C2248 C2250 1.382 . S
C2248 H2252 0.950 . S
H2249 C2244 0.949 . S
C2250 C2245 1.399 . S
C2250 C2248 1.382 . S
C2250 H2251 0.952 . S
H2251 C2250 0.952 . S
H2252 C2248 0.950 . S
H2253 C2254 0.949 . S
C2254 H2253 0.949 . S
C2254 C2255 1.395 . S
C2254 C2256 1.391 . S
C2255 C2254 1.395 . S
C2255 C2258 1.390 . S
C2256 C2254 1.391 . S
C2256 C2260 1.387 . S
C2256 C2261 1.491 . S
H2257 C2258 0.950 . S
C2258 C2255 1.390 . S
C2258 H2257 0.950 . S
C2258 C2259 1.378 . S
C2259 C2258 1.378 . S
C2259 C2260 1.409 . S
C2260 C2256 1.387 . S
C2260 C2259 1.409 . S
C2260 H2262 0.951 . S
C2261 C2256 1.491 . S
C2261 C2263 1.382 . S
C2261 C2265 1.404 . S
H2262 C2260 0.951 . S
C2263 C2261 1.382 . S
C2263 C2264 1.390 . S
C2263 H2268 0.949 . S
C2264 C2263 1.390 . S
C2264 C2269 1.399 . S
C2265 C2261 1.404 . S
C2265 H2266 0.950 . S
C2265 C2267 1.375 . S
H2266 C2265 0.950 . S
C2267 C2265 1.375 . S
C2267 C2269 1.382 . S
C2267 H2271 0.950 . S
H2268 C2263 0.949 . S
C2269 C2264 1.399 . S
C2269 C2267 1.382 . S
C2269 H2270 0.952 . S
H2270 C2269 0.952 . S
H2271 C2267 0.950 . S
H2272 C2273 0.949 . S
C2273 H2272 0.949 . S
C2273 C2274 1.395 . S
C2273 C2275 1.391 . S
C2274 C2273 1.395 . S
C2274 C2277 1.390 . S
C2275 C2273 1.391 . S
C2275 C2279 1.387 . S
C2275 C2280 1.491 . S
H2276 C2277 0.950 . S
C2277 C2274 1.390 . S
C2277 H2276 0.950 . S
C2277 C2278 1.378 . S
C2278 C2277 1.378 . S
C2278 C2279 1.409 . S
C2279 C2275 1.387 . S
C2279 C2278 1.409 . S
C2279 H2281 0.951 . S
C2280 C2275 1.491 . S
C2280 C2282 1.382 . S
C2280 C2284 1.404 . S
H2281 C2279 0.951 . S
C2282 C2280 1.382 . S
C2282 C2283 1.390 . S
C2282 H2287 0.949 . S
C2283 C2282 1.390 . S
C2283 C2288 1.399 . S
C2284 C2280 1.404 . S
C2284 H2285 0.950 . S
C2284 C2286 1.375 . S
H2285 C2284 0.950 . S
C2286 C2284 1.375 . S
C2286 C2288 1.382 . S
C2286 H2290 0.950 . S
H2287 C2282 0.949 . S
C2288 C2283 1.399 . S
C2288 C2286 1.382 . S
C2288 H2289 0.952 . S
H2289 C2288 0.952 . S
H2290 C2286 0.950 . S
H2291 C2292 0.949 . S
C2292 H2291 0.949 . S
C2292 C2293 1.395 . S
C2292 C2294 1.391 . S
C2293 C2292 1.395 . S
C2293 C2296 1.390 . S
C2294 C2292 1.391 . S
C2294 C2298 1.387 . S
C2294 C2299 1.491 . S
H2295 C2296 0.950 . S
C2296 C2293 1.390 . S
C2296 H2295 0.950 . S
C2296 C2297 1.378 . S
C2297 C2296 1.378 . S
C2297 C2298 1.409 . S
C2298 C2294 1.387 . S
C2298 C2297 1.409 . S
C2298 H2300 0.951 . S
C2299 C2294 1.491 . S
C2299 C2301 1.382 . S
C2299 C2303 1.404 . S
H2300 C2298 0.951 . S
C2301 C2299 1.382 . S
C2301 C2302 1.390 . S
C2301 H2306 0.949 . S
C2302 C2301 1.390 . S
C2302 C2307 1.399 . S
C2303 C2299 1.404 . S
C2303 H2304 0.950 . S
C2303 C2305 1.375 . S
H2304 C2303 0.950 . S
C2305 C2303 1.375 . S
C2305 C2307 1.382 . S
C2305 H2309 0.950 . S
H2306 C2301 0.949 . S
C2307 C2302 1.399 . S
C2307 C2305 1.382 . S
C2307 H2308 0.952 . S
H2308 C2307 0.952 . S
H2309 C2305 0.950 . S
H2310 C2311 0.949 . S
C2311 H2310 0.949 . S
C2311 C2312 1.395 . S
C2311 C2313 1.391 . S
C2312 C2311 1.395 . S
C2312 C2315 1.390 . S
C2313 C2311 1.391 . S
C2313 C2317 1.387 . S
C2313 C2318 1.491 . S
H2314 C2315 0.950 . S
C2315 C2312 1.390 . S
C2315 H2314 0.950 . S
C2315 C2316 1.378 . S
C2316 C2315 1.378 . S
C2316 C2317 1.409 . S
C2317 C2313 1.387 . S
C2317 C2316 1.409 . S
C2317 H2319 0.951 . S
C2318 C2313 1.491 . S
C2318 C2320 1.382 . S
C2318 C2322 1.404 . S
H2319 C2317 0.951 . S
C2320 C2318 1.382 . S
C2320 C2321 1.390 1_565 S
C2320 H2325 0.949 . S
C2321 C2320 1.390 1_545 S
C2321 C2326 1.399 . S
C2322 C2318 1.404 . S
C2322 H2323 0.950 . S
C2322 C2324 1.375 . S
H2323 C2322 0.950 . S
C2324 C2322 1.375 . S
C2324 C2326 1.382 1_565 S
C2324 H2328 0.953 . S
H2325 C2320 0.949 . S
C2326 C2321 1.399 . S
C2326 C2324 1.382 1_545 S
C2326 H2327 0.952 . S
H2327 C2326 0.952 . S
H2328 C2324 0.953 . S
H2329 C2330 0.949 . S
C2330 H2329 0.949 . S
C2330 C2331 1.395 . S
C2330 C2332 1.391 . S
C2331 C2330 1.395 . S
C2331 C2334 1.390 . S
C2332 C2330 1.391 . S
C2332 C2336 1.387 . S
C2332 C2337 1.491 . S
H2333 C2334 0.950 . S
C2334 C2331 1.390 . S
C2334 H2333 0.950 . S
C2334 C2335 1.378 . S
C2335 C2334 1.378 . S
C2335 C2336 1.409 . S
C2336 C2332 1.387 . S
C2336 C2335 1.409 . S
C2336 H2338 0.951 . S
C2337 C2332 1.491 . S
C2337 C2339 1.382 . S
C2337 C2341 1.404 . S
H2338 C2336 0.951 . S
C2339 C2337 1.382 . S
C2339 C2340 1.390 . S
C2339 H2344 0.949 . S
C2340 C2339 1.390 . S
C2340 C2345 1.399 . S
C2341 C2337 1.404 . S
C2341 H2342 0.950 . S
C2341 C2343 1.375 . S
H2342 C2341 0.950 . S
C2343 C2341 1.375 . S
C2343 C2345 1.382 . S
C2343 H2347 0.950 . S
H2344 C2339 0.949 . S
C2345 C2340 1.399 . S
C2345 C2343 1.382 . S
C2345 H2346 0.952 . S
H2346 C2345 0.952 . S
H2347 C2343 0.950 . S
H2348 C2349 0.949 . S
C2349 H2348 0.949 . S
C2349 C2350 1.395 . S
C2349 C2351 1.391 . S
C2350 C2349 1.395 . S
C2350 C2353 1.390 . S
C2351 C2349 1.391 . S
C2351 C2355 1.387 . S
C2351 C2356 1.491 . S
H2352 C2353 0.950 . S
C2353 C2350 1.390 . S
C2353 H2352 0.950 . S
C2353 C2354 1.378 . S
C2354 C2353 1.378 . S
C2354 C2355 1.409 . S
C2355 C2351 1.387 . S
C2355 C2354 1.409 . S
C2355 H2357 0.951 . S
C2356 C2351 1.491 . S
C2356 C2358 1.382 . S
C2356 C2360 1.404 . S
H2357 C2355 0.951 . S
C2358 C2356 1.382 . S
C2358 C2359 1.390 . S
C2358 H2363 0.949 . S
C2359 C2358 1.390 . S
C2359 C2364 1.399 . S
C2360 C2356 1.404 . S
C2360 H2361 0.950 . S
C2360 C2362 1.375 . S
H2361 C2360 0.950 . S
C2362 C2360 1.375 . S
C2362 C2364 1.382 . S
C2362 H2366 0.950 . S
H2363 C2358 0.949 . S
C2364 C2359 1.399 . S
C2364 C2362 1.382 . S
C2364 H2365 0.952 . S
H2365 C2364 0.952 . S
H2366 C2362 0.950 . S
H2367 C2368 0.949 . S
C2368 H2367 0.949 . S
C2368 C2369 1.395 . S
C2368 C2370 1.391 . S
C2369 C2368 1.395 . S
C2369 C2372 1.390 . S
C2370 C2368 1.391 . S
C2370 C2374 1.387 . S
C2370 C2375 1.491 . S
H2371 C2372 0.950 . S
C2372 C2369 1.390 . S
C2372 H2371 0.950 . S
C2372 C2373 1.378 . S
C2373 C2372 1.378 . S
C2373 C2374 1.409 . S
C2374 C2370 1.387 . S
C2374 C2373 1.409 . S
C2374 H2376 0.951 . S
C2375 C2370 1.491 . S
C2375 C2377 1.382 . S
C2375 C2379 1.404 . S
H2376 C2374 0.951 . S
C2377 C2375 1.382 . S
C2377 C2378 1.390 . S
C2377 H2382 0.949 . S
C2378 C2377 1.390 . S
C2378 C2383 1.399 . S
C2379 C2375 1.404 . S
C2379 H2380 0.950 . S
C2379 C2381 1.375 . S
H2380 C2379 0.950 . S
C2381 C2379 1.375 . S
C2381 C2383 1.382 . S
C2381 H2385 0.950 . S
H2382 C2377 0.949 . S
C2383 C2378 1.399 . S
C2383 C2381 1.382 . S
C2383 H2384 0.952 . S
H2384 C2383 0.952 . S
H2385 C2381 0.950 . S
H2386 C2387 0.949 . S
C2387 H2386 0.949 . S
C2387 C2388 1.395 . S
C2387 C2389 1.391 . S
C2388 C2387 1.395 . S
C2388 C2391 1.390 . S
C2389 C2387 1.391 . S
C2389 C2393 1.387 . S
C2389 C2394 1.491 . S
H2390 C2391 0.950 . S
C2391 C2388 1.390 . S
C2391 H2390 0.950 . S
C2391 C2392 1.378 . S
C2392 C2391 1.378 . S
C2392 C2393 1.409 . S
C2393 C2389 1.387 . S
C2393 C2392 1.409 . S
C2393 H2395 0.951 . S
C2394 C2389 1.491 . S
C2394 C2396 1.382 . S
C2394 C2398 1.404 . S
H2395 C2393 0.951 . S
C2396 C2394 1.382 . S
C2396 C2397 1.390 1_545 S
C2396 H2401 0.949 . S
C2397 C2396 1.390 1_565 S
C2397 C2402 1.399 . S
C2398 C2394 1.404 . S
C2398 H2399 0.950 . S
C2398 C2400 1.375 . S
H2399 C2398 0.950 . S
C2400 C2398 1.375 . S
C2400 C2402 1.382 1_545 S
C2400 H2404 0.953 . S
H2401 C2396 0.949 . S
C2402 C2397 1.399 . S
C2402 C2400 1.382 1_565 S
C2402 H2403 0.952 . S
H2403 C2402 0.952 . S
H2404 C2400 0.953 . S
H2405 C2406 0.949 . S
C2406 H2405 0.949 . S
C2406 C2407 1.395 . S
C2406 C2408 1.391 . S
C2407 C2406 1.395 . S
C2407 C2410 1.390 . S
C2408 C2406 1.391 . S
C2408 C2412 1.387 . S
C2408 C2413 1.491 . S
H2409 C2410 0.950 . S
C2410 C2407 1.390 . S
C2410 H2409 0.950 . S
C2410 C2411 1.378 . S
C2411 C2410 1.378 . S
C2411 C2412 1.409 . S
C2412 C2408 1.387 . S
C2412 C2411 1.409 . S
C2412 H2414 0.951 . S
C2413 C2408 1.491 . S
C2413 C2415 1.382 . S
C2413 C2417 1.404 . S
H2414 C2412 0.951 . S
C2415 C2413 1.382 . S
C2415 C2416 1.390 1_565 S
C2415 H2420 0.949 . S
C2416 C2415 1.390 1_545 S
C2416 C2421 1.399 . S
C2417 C2413 1.404 . S
C2417 H2418 0.950 . S
C2417 C2419 1.375 . S
H2418 C2417 0.950 . S
C2419 C2417 1.375 . S
C2419 C2421 1.382 1_565 S
C2419 H2423 0.953 . S
H2420 C2415 0.949 . S
C2421 C2416 1.399 . S
C2421 C2419 1.382 1_545 S
C2421 H2422 0.952 . S
H2422 C2421 0.952 . S
H2423 C2419 0.953 . S
H2424 C2425 0.949 . S
C2425 H2424 0.949 . S
C2425 C2426 1.395 . S
C2425 C2427 1.391 . S
C2426 C2425 1.395 . S
C2426 C2429 1.390 . S
C2427 C2425 1.391 . S
C2427 C2431 1.387 . S
C2427 C2432 1.491 . S
H2428 C2429 0.950 . S
C2429 C2426 1.390 . S
C2429 H2428 0.950 . S
C2429 C2430 1.378 . S
C2430 C2429 1.378 . S
C2430 C2431 1.409 . S
C2431 C2427 1.387 . S
C2431 C2430 1.409 . S
C2431 H2433 0.951 . S
C2432 C2427 1.491 . S
C2432 C2434 1.382 . S
C2432 C2436 1.404 . S
H2433 C2431 0.951 . S
C2434 C2432 1.382 . S
C2434 C2435 1.390 . S
C2434 H2439 0.949 . S
C2435 C2434 1.390 . S
C2435 C2440 1.399 . S
C2436 C2432 1.404 . S
C2436 H2437 0.950 . S
C2436 C2438 1.375 . S
H2437 C2436 0.950 . S
C2438 C2436 1.375 . S
C2438 C2440 1.382 . S
C2438 H2442 0.950 . S
H2439 C2434 0.949 . S
C2440 C2435 1.399 . S
C2440 C2438 1.382 . S
C2440 H2441 0.952 . S
H2441 C2440 0.952 . S
H2442 C2438 0.950 . S
H2443 C2444 0.949 . S
C2444 H2443 0.949 . S
C2444 C2445 1.395 . S
C2444 C2446 1.391 . S
C2445 C2444 1.395 . S
C2445 C2448 1.390 . S
C2446 C2444 1.391 . S
C2446 C2450 1.387 . S
C2446 C2451 1.491 . S
H2447 C2448 0.950 . S
C2448 C2445 1.390 . S
C2448 H2447 0.950 . S
C2448 C2449 1.378 . S
C2449 C2448 1.378 . S
C2449 C2450 1.409 . S
C2450 C2446 1.387 . S
C2450 C2449 1.409 . S
C2450 H2452 0.951 . S
C2451 C2446 1.491 . S
C2451 C2453 1.382 . S
C2451 C2455 1.404 . S
H2452 C2450 0.951 . S
C2453 C2451 1.382 . S
C2453 C2454 1.390 . S
C2453 H2458 0.949 . S
C2454 C2453 1.390 . S
C2454 C2459 1.399 . S
C2455 C2451 1.404 . S
C2455 H2456 0.950 . S
C2455 C2457 1.375 . S
H2456 C2455 0.950 . S
C2457 C2455 1.375 . S
C2457 C2459 1.382 . S
C2457 H2461 0.950 . S
H2458 C2453 0.949 . S
C2459 C2454 1.399 . S
C2459 C2457 1.382 . S
C2459 H2460 0.952 . S
H2460 C2459 0.952 . S
H2461 C2457 0.950 . S
H2462 C2463 0.949 . S
C2463 H2462 0.949 . S
C2463 C2464 1.395 . S
C2463 C2465 1.391 . S
C2464 C2463 1.395 . S
C2464 C2467 1.390 . S
C2465 C2463 1.391 . S
C2465 C2469 1.387 . S
C2465 C2470 1.491 . S
H2466 C2467 0.950 . S
C2467 C2464 1.390 . S
C2467 H2466 0.950 . S
C2467 C2468 1.378 . S
C2468 C2467 1.378 . S
C2468 C2469 1.409 . S
C2469 C2465 1.387 . S
C2469 C2468 1.409 . S
C2469 H2471 0.951 . S
C2470 C2465 1.491 . S
C2470 C2472 1.382 . S
C2470 C2474 1.404 . S
H2471 C2469 0.951 . S
C2472 C2470 1.382 . S
C2472 C2473 1.390 . S
C2472 H2477 0.949 . S
C2473 C2472 1.390 . S
C2473 C2478 1.399 . S
C2474 C2470 1.404 . S
C2474 H2475 0.950 . S
C2474 C2476 1.375 . S
H2475 C2474 0.950 . S
C2476 C2474 1.375 . S
C2476 C2478 1.382 . S
C2476 H2480 0.950 . S
H2477 C2472 0.949 . S
C2478 C2473 1.399 . S
C2478 C2476 1.382 . S
C2478 H2479 0.952 . S
H2479 C2478 0.952 . S
H2480 C2476 0.950 . S
H2481 C2482 0.949 . S
C2482 H2481 0.949 . S
C2482 C2483 1.395 . S
C2482 C2484 1.391 . S
C2483 C2482 1.395 . S
C2483 C2486 1.390 . S
C2484 C2482 1.391 . S
C2484 C2488 1.387 . S
C2484 C2489 1.491 . S
H2485 C2486 0.950 . S
C2486 C2483 1.390 . S
C2486 H2485 0.950 . S
C2486 C2487 1.378 . S
C2487 C2486 1.378 . S
C2487 C2488 1.409 . S
C2488 C2484 1.387 . S
C2488 C2487 1.409 . S
C2488 H2490 0.951 . S
C2489 C2484 1.491 . S
C2489 C2491 1.382 . S
C2489 C2493 1.408 . S
H2490 C2488 0.951 . S
C2491 C2489 1.382 . S
C2491 C2492 1.390 1_455 S
C2491 H2496 0.949 . S
C2492 C2491 1.390 1_655 S
C2492 C2497 1.399 . S
C2493 C2489 1.408 . S
C2493 H2494 0.952 . S
C2493 C2495 1.368 1_455 S
H2494 C2493 0.952 . S
C2495 C2493 1.368 1_655 S
C2495 C2497 1.382 . S
C2495 H2499 0.950 . S
H2496 C2491 0.949 . S
C2497 C2492 1.399 . S
C2497 C2495 1.382 . S
C2497 H2498 0.952 . S
H2498 C2497 0.952 . S
H2499 C2495 0.950 . S
H2500 C2501 0.949 . S
C2501 H2500 0.949 . S
C2501 C2502 1.395 . S
C2501 C2503 1.391 . S
C2502 C2501 1.395 . S
C2502 C2505 1.390 . S
C2503 C2501 1.391 . S
C2503 C2507 1.387 . S
C2503 C2508 1.491 . S
H2504 C2505 0.950 . S
C2505 C2502 1.390 . S
C2505 H2504 0.950 . S
C2505 C2506 1.378 . S
C2506 C2505 1.378 . S
C2506 C2507 1.409 . S
C2507 C2503 1.387 . S
C2507 C2506 1.409 . S
C2507 H2509 0.951 . S
C2508 C2503 1.491 . S
C2508 C2510 1.382 . S
C2508 C2512 1.404 . S
H2509 C2507 0.951 . S
C2510 C2508 1.382 . S
C2510 C2511 1.390 . S
C2510 H2515 0.949 . S
C2511 C2510 1.390 . S
C2511 C2516 1.399 . S
C2512 C2508 1.404 . S
C2512 H2513 0.950 . S
C2512 C2514 1.375 . S
H2513 C2512 0.950 . S
C2514 C2512 1.375 . S
C2514 C2516 1.382 . S
C2514 H2518 0.950 . S
H2515 C2510 0.949 . S
C2516 C2511 1.399 . S
C2516 C2514 1.382 . S
C2516 H2517 0.952 . S
H2517 C2516 0.952 . S
H2518 C2514 0.950 . S
H2519 C2520 0.949 . S
C2520 H2519 0.949 . S
C2520 C2521 1.395 . S
C2520 C2522 1.391 . S
C2521 C2520 1.395 . S
C2521 C2524 1.390 . S
C2522 C2520 1.391 . S
C2522 C2526 1.387 . S
C2522 C2527 1.491 . S
H2523 C2524 0.950 . S
C2524 C2521 1.390 . S
C2524 H2523 0.950 . S
C2524 C2525 1.378 . S
C2525 C2524 1.378 . S
C2525 C2526 1.409 . S
C2526 C2522 1.387 . S
C2526 C2525 1.409 . S
C2526 H2528 0.951 . S
C2527 C2522 1.491 . S
C2527 C2529 1.382 . S
C2527 C2531 1.412 . S
H2528 C2526 0.951 . S
C2529 C2527 1.382 . S
C2529 C2530 1.390 1_455 S
C2529 H2534 0.949 . S
C2530 C2529 1.390 1_655 S
C2530 C2535 1.399 . S
C2531 C2527 1.412 . S
C2531 H2532 0.955 . S
C2531 C2533 1.362 1_455 S
H2532 C2531 0.955 . S
C2533 C2531 1.362 1_655 S
C2533 C2535 1.382 . S
C2533 H2537 0.950 . S
H2534 C2529 0.949 . S
C2535 C2530 1.399 . S
C2535 C2533 1.382 . S
C2535 H2536 0.952 . S
H2536 C2535 0.952 . S
H2537 C2533 0.950 . S
H2538 C2539 0.949 . S
C2539 H2538 0.949 . S
C2539 C2540 1.395 . S
C2539 C2541 1.391 . S
C2540 C2539 1.395 . S
C2540 C2543 1.390 . S
C2541 C2539 1.391 . S
C2541 C2545 1.387 . S
C2541 C2546 1.491 . S
H2542 C2543 0.950 . S
C2543 C2540 1.390 . S
C2543 H2542 0.950 . S
C2543 C2544 1.378 . S
C2544 C2543 1.378 . S
C2544 C2545 1.409 . S
C2545 C2541 1.387 . S
C2545 C2544 1.409 . S
C2545 H2547 0.951 . S
C2546 C2541 1.491 . S
C2546 C2548 1.382 . S
C2546 C2550 1.404 . S
H2547 C2545 0.951 . S
C2548 C2546 1.382 . S
C2548 C2549 1.390 . S
C2548 H2553 0.949 . S
C2549 C2548 1.390 . S
C2549 C2554 1.399 . S
C2550 C2546 1.404 . S
C2550 H2551 0.950 . S
C2550 C2552 1.375 . S
H2551 C2550 0.950 . S
C2552 C2550 1.375 . S
C2552 C2554 1.382 . S
C2552 H2556 0.950 . S
H2553 C2548 0.949 . S
C2554 C2549 1.399 . S
C2554 C2552 1.382 . S
C2554 H2555 0.952 . S
H2555 C2554 0.952 . S
H2556 C2552 0.950 . S
H2557 C2558 0.949 . S
C2558 H2557 0.949 . S
C2558 C2559 1.395 . S
C2558 C2560 1.391 . S
C2559 C2558 1.395 . S
C2559 C2562 1.390 . S
C2560 C2558 1.391 . S
C2560 C2564 1.387 . S
C2560 C2565 1.491 . S
H2561 C2562 0.950 . S
C2562 C2559 1.390 . S
C2562 H2561 0.950 . S
C2562 C2563 1.378 . S
C2563 C2562 1.378 . S
C2563 C2564 1.409 . S
C2564 C2560 1.387 . S
C2564 C2563 1.409 . S
C2564 H2566 0.951 . S
C2565 C2560 1.491 . S
C2565 C2567 1.382 . S
C2565 C2569 1.404 . S
H2566 C2564 0.951 . S
C2567 C2565 1.382 . S
C2567 C2568 1.390 . S
C2567 H2572 0.949 . S
C2568 C2567 1.390 . S
C2568 C2573 1.399 . S
C2569 C2565 1.404 . S
C2569 H2570 0.950 . S
C2569 C2571 1.375 . S
H2570 C2569 0.950 . S
C2571 C2569 1.375 . S
C2571 C2573 1.382 . S
C2571 H2575 0.950 . S
H2572 C2567 0.949 . S
C2573 C2568 1.399 . S
C2573 C2571 1.382 . S
C2573 H2574 0.952 . S
H2574 C2573 0.952 . S
H2575 C2571 0.950 . S
H2576 C2577 0.949 . S
C2577 H2576 0.949 . S
C2577 C2578 1.395 . S
C2577 C2579 1.391 . S
C2578 C2577 1.395 . S
C2578 C2581 1.390 . S
C2579 C2577 1.391 . S
C2579 C2583 1.387 . S
C2579 C2584 1.491 . S
H2580 C2581 0.950 . S
C2581 C2578 1.390 . S
C2581 H2580 0.950 . S
C2581 C2582 1.378 . S
C2582 C2581 1.378 . S
C2582 C2583 1.409 . S
C2583 C2579 1.387 . S
C2583 C2582 1.409 . S
C2583 H2585 0.951 . S
C2584 C2579 1.491 . S
C2584 C2586 1.382 . S
C2584 C2588 1.404 . S
H2585 C2583 0.951 . S
C2586 C2584 1.382 . S
C2586 C2587 1.390 . S
C2586 H2591 0.949 . S
C2587 C2586 1.390 . S
C2587 C2592 1.399 . S
C2588 C2584 1.404 . S
C2588 H2589 0.950 . S
C2588 C2590 1.375 . S
H2589 C2588 0.950 . S
C2590 C2588 1.375 . S
C2590 C2592 1.382 . S
C2590 H2594 0.950 . S
H2591 C2586 0.949 . S
C2592 C2587 1.399 . S
C2592 C2590 1.382 . S
C2592 H2593 0.952 . S
H2593 C2592 0.952 . S
H2594 C2590 0.950 . S
H2595 C2596 0.949 . S
C2596 H2595 0.949 . S
C2596 C2597 1.395 . S
C2596 C2598 1.391 . S
C2597 C2596 1.395 . S
C2597 C2600 1.390 . S
C2598 C2596 1.391 . S
C2598 C2602 1.387 . S
C2598 C2603 1.491 . S
H2599 C2600 0.950 . S
C2600 C2597 1.390 . S
C2600 H2599 0.950 . S
C2600 C2601 1.378 . S
C2601 C2600 1.378 . S
C2601 C2602 1.409 . S
C2602 C2598 1.387 . S
C2602 C2601 1.409 . S
C2602 H2604 0.951 . S
C2603 C2598 1.491 . S
C2603 C2605 1.382 . S
C2603 C2607 1.408 . S
H2604 C2602 0.951 . S
C2605 C2603 1.382 . S
C2605 C2606 1.390 1_554 S
C2605 H2610 0.949 . S
C2606 C2605 1.390 1_556 S
C2606 C2611 1.399 . S
C2607 C2603 1.408 . S
C2607 H2608 0.952 . S
C2607 C2609 1.368 1_554 S
H2608 C2607 0.952 . S
C2609 C2607 1.368 1_556 S
C2609 C2611 1.382 . S
C2609 H2613 0.950 . S
H2610 C2605 0.949 . S
C2611 C2606 1.399 . S
C2611 C2609 1.382 . S
C2611 H2612 0.952 . S
H2612 C2611 0.952 . S
H2613 C2609 0.950 . S
H2614 C2615 0.949 . S
C2615 H2614 0.949 . S
C2615 C2616 1.395 . S
C2615 C2617 1.391 . S
C2616 C2615 1.395 . S
C2616 C2619 1.390 . S
C2617 C2615 1.391 . S
C2617 C2621 1.387 . S
C2617 C2622 1.491 . S
H2618 C2619 0.950 . S
C2619 C2616 1.390 . S
C2619 H2618 0.950 . S
C2619 C2620 1.378 . S
C2620 C2619 1.378 . S
C2620 C2621 1.409 . S
C2621 C2617 1.387 . S
C2621 C2620 1.409 . S
C2621 H2623 0.951 . S
C2622 C2617 1.491 . S
C2622 C2624 1.382 . S
C2622 C2626 1.404 . S
H2623 C2621 0.951 . S
C2624 C2622 1.382 . S
C2624 C2625 1.390 . S
C2624 H2629 0.949 . S
C2625 C2624 1.390 . S
C2625 C2630 1.399 . S
C2626 C2622 1.404 . S
C2626 H2627 0.950 . S
C2626 C2628 1.375 . S
H2627 C2626 0.950 . S
C2628 C2626 1.375 . S
C2628 C2630 1.382 . S
C2628 H2632 0.950 . S
H2629 C2624 0.949 . S
C2630 C2625 1.399 . S
C2630 C2628 1.382 . S
C2630 H2631 0.952 . S
H2631 C2630 0.952 . S
H2632 C2628 0.950 . S
H2633 C2634 0.949 . S
C2634 H2633 0.949 . S
C2634 C2635 1.395 . S
C2634 C2636 1.391 . S
C2635 C2634 1.395 . S
C2635 C2638 1.390 . S
C2636 C2634 1.391 . S
C2636 C2640 1.387 . S
C2636 C2641 1.491 . S
H2637 C2638 0.950 . S
C2638 C2635 1.390 . S
C2638 H2637 0.950 . S
C2638 C2639 1.378 . S
C2639 C2638 1.378 . S
C2639 C2640 1.409 . S
C2640 C2636 1.387 . S
C2640 C2639 1.409 . S
C2640 H2642 0.951 . S
C2641 C2636 1.491 . S
C2641 C2643 1.382 . S
C2641 C2645 1.404 . S
H2642 C2640 0.951 . S
C2643 C2641 1.382 . S
C2643 C2644 1.390 . S
C2643 H2648 0.949 . S
C2644 C2643 1.390 . S
C2644 C2649 1.399 . S
C2645 C2641 1.404 . S
C2645 H2646 0.950 . S
C2645 C2647 1.375 . S
H2646 C2645 0.950 . S
C2647 C2645 1.375 . S
C2647 C2649 1.382 . S
C2647 H2651 0.950 . S
H2648 C2643 0.949 . S
C2649 C2644 1.399 . S
C2649 C2647 1.382 . S
C2649 H2650 0.952 . S
H2650 C2649 0.952 . S
H2651 C2647 0.950 . S
H2652 C2653 0.949 . S
C2653 H2652 0.949 . S
C2653 C2654 1.395 . S
C2653 C2655 1.391 . S
C2654 C2653 1.395 . S
C2654 C2657 1.390 . S
C2655 C2653 1.391 . S
C2655 C2659 1.387 . S
C2655 C2660 1.491 . S
H2656 C2657 0.950 . S
C2657 C2654 1.390 . S
C2657 H2656 0.950 . S
C2657 C2658 1.378 . S
C2658 C2657 1.378 . S
C2658 C2659 1.409 . S
C2659 C2655 1.387 . S
C2659 C2658 1.409 . S
C2659 H2661 0.951 . S
C2660 C2655 1.491 . S
C2660 C2662 1.382 . S
C2660 C2664 1.404 . S
H2661 C2659 0.951 . S
C2662 C2660 1.382 . S
C2662 C2663 1.390 . S
C2662 H2667 0.949 . S
C2663 C2662 1.390 . S
C2663 C2668 1.399 . S
C2664 C2660 1.404 . S
C2664 H2665 0.950 . S
C2664 C2666 1.375 . S
H2665 C2664 0.950 . S
C2666 C2664 1.375 . S
C2666 C2668 1.382 . S
C2666 H2670 0.950 . S
H2667 C2662 0.949 . S
C2668 C2663 1.399 . S
C2668 C2666 1.382 . S
C2668 H2669 0.952 . S
H2669 C2668 0.952 . S
H2670 C2666 0.950 . S
H2671 C2672 0.949 . S
C2672 H2671 0.949 . S
C2672 C2673 1.395 . S
C2672 C2674 1.391 . S
C2673 C2672 1.395 . S
C2673 C2676 1.390 . S
C2674 C2672 1.391 . S
C2674 C2678 1.387 . S
C2674 C2679 1.491 . S
H2675 C2676 0.950 . S
C2676 C2673 1.390 . S
C2676 H2675 0.950 . S
C2676 C2677 1.378 . S
C2677 C2676 1.378 . S
C2677 C2678 1.409 . S
C2678 C2674 1.387 . S
C2678 C2677 1.409 . S
C2678 H2680 0.951 . S
C2679 C2674 1.491 . S
C2679 C2681 1.382 . S
C2679 C2683 1.412 . S
H2680 C2678 0.951 . S
C2681 C2679 1.382 . S
C2681 C2682 1.390 1_556 S
C2681 H2686 0.949 . S
C2682 C2681 1.390 1_554 S
C2682 C2687 1.399 . S
C2683 C2679 1.412 . S
C2683 H2684 0.955 . S
C2683 C2685 1.361 1_556 S
H2684 C2683 0.955 . S
C2685 C2683 1.361 1_554 S
C2685 C2687 1.382 . S
C2685 H2689 0.950 . S
H2686 C2681 0.949 . S
C2687 C2682 1.399 . S
C2687 C2685 1.382 . S
C2687 H2688 0.952 . S
H2688 C2687 0.952 . S
H2689 C2685 0.950 . S
H2690 C2691 0.949 . S
C2691 H2690 0.949 . S
C2691 C2692 1.395 . S
C2691 C2693 1.391 . S
C2692 C2691 1.395 . S
C2692 C2695 1.390 . S
C2693 C2691 1.391 . S
C2693 C2697 1.387 . S
C2693 C2698 1.491 . S
H2694 C2695 0.950 . S
C2695 C2692 1.390 . S
C2695 H2694 0.950 . S
C2695 C2696 1.378 . S
C2696 C2695 1.378 . S
C2696 C2697 1.409 . S
C2697 C2693 1.387 . S
C2697 C2696 1.409 . S
C2697 H2699 0.951 . S
C2698 C2693 1.491 . S
C2698 C2700 1.382 . S
C2698 C2702 1.404 . S
H2699 C2697 0.951 . S
C2700 C2698 1.382 . S
C2700 C2701 1.390 . S
C2700 H2705 0.949 . S
C2701 C2700 1.390 . S
C2701 C2706 1.399 . S
C2702 C2698 1.404 . S
C2702 H2703 0.950 . S
C2702 C2704 1.375 . S
H2703 C2702 0.950 . S
C2704 C2702 1.375 . S
C2704 C2706 1.382 . S
C2704 H2708 0.950 . S
H2705 C2700 0.949 . S
C2706 C2701 1.399 . S
C2706 C2704 1.382 . S
C2706 H2707 0.952 . S
H2707 C2706 0.952 . S
H2708 C2704 0.950 . S
H2709 C2710 0.949 . S
C2710 H2709 0.949 . S
C2710 C2711 1.395 . S
C2710 C2712 1.391 . S
C2711 C2710 1.395 . S
C2711 C2714 1.390 . S
C2712 C2710 1.391 . S
C2712 C2716 1.387 . S
C2712 C2717 1.491 . S
H2713 C2714 0.950 . S
C2714 C2711 1.390 . S
C2714 H2713 0.950 . S
C2714 C2715 1.378 . S
C2715 C2714 1.378 . S
C2715 C2716 1.409 . S
C2716 C2712 1.387 . S
C2716 C2715 1.409 . S
C2716 H2718 0.951 . S
C2717 C2712 1.491 . S
C2717 C2719 1.382 . S
C2717 C2721 1.404 . S
H2718 C2716 0.951 . S
C2719 C2717 1.382 . S
C2719 C2720 1.390 . S
C2719 H2724 0.949 . S
C2720 C2719 1.390 . S
C2720 C2725 1.399 . S
C2721 C2717 1.404 . S
C2721 H2722 0.950 . S
C2721 C2723 1.375 . S
H2722 C2721 0.950 . S
C2723 C2721 1.375 . S
C2723 C2725 1.382 . S
C2723 H2727 0.950 . S
H2724 C2719 0.949 . S
C2725 C2720 1.399 . S
C2725 C2723 1.382 . S
C2725 H2726 0.952 . S
H2726 C2725 0.952 . S
H2727 C2723 0.950 . S
H2728 C2729 0.949 . S
C2729 H2728 0.949 . S
C2729 C2730 1.395 . S
C2729 C2731 1.391 . S
C2730 C2729 1.395 . S
C2730 C2733 1.390 . S
C2731 C2729 1.391 . S
C2731 C2735 1.387 . S
C2731 C2736 1.491 . S
H2732 C2733 0.950 . S
C2733 C2730 1.390 . S
C2733 H2732 0.950 . S
C2733 C2734 1.378 . S
C2734 C2733 1.378 . S
C2734 C2735 1.409 . S
C2735 C2731 1.387 . S
C2735 C2734 1.409 . S
C2735 H2737 0.951 . S
C2736 C2731 1.491 . S
C2736 C2738 1.382 . S
C2736 C2740 1.404 . S
H2737 C2735 0.951 . S
C2738 C2736 1.382 . S
C2738 C2739 1.390 . S
C2738 H2743 0.949 . S
C2739 C2738 1.390 . S
C2739 C2744 1.399 . S
C2740 C2736 1.404 . S
C2740 H2741 0.950 . S
C2740 C2742 1.375 . S
H2741 C2740 0.950 . S
C2742 C2740 1.375 . S
C2742 C2744 1.382 . S
C2742 H2746 0.950 . S
H2743 C2738 0.949 . S
C2744 C2739 1.399 . S
C2744 C2742 1.382 . S
C2744 H2745 0.952 . S
H2745 C2744 0.952 . S
H2746 C2742 0.950 . S
H2747 C2748 0.949 . S
C2748 H2747 0.949 . S
C2748 C2749 1.395 . S
C2748 C2750 1.391 . S
C2749 C2748 1.395 . S
C2749 C2752 1.390 . S
C2750 C2748 1.391 . S
C2750 C2754 1.387 . S
C2750 C2755 1.491 . S
H2751 C2752 0.950 . S
C2752 C2749 1.390 . S
C2752 H2751 0.950 . S
C2752 C2753 1.378 . S
C2753 C2752 1.378 . S
C2753 C2754 1.409 . S
C2754 C2750 1.387 . S
C2754 C2753 1.409 . S
C2754 H2756 0.951 . S
C2755 C2750 1.491 . S
C2755 C2757 1.382 . S
C2755 C2759 1.404 . S
H2756 C2754 0.951 . S
C2757 C2755 1.382 . S
C2757 C2758 1.390 . S
C2757 H2762 0.949 . S
C2758 C2757 1.390 . S
C2758 C2763 1.399 . S
C2759 C2755 1.404 . S
C2759 H2760 0.950 . S
C2759 C2761 1.375 . S
H2760 C2759 0.950 . S
C2761 C2759 1.375 . S
C2761 C2763 1.382 . S
C2761 H2765 0.950 . S
H2762 C2757 0.949 . S
C2763 C2758 1.399 . S
C2763 C2761 1.382 . S
C2763 H2764 0.952 . S
H2764 C2763 0.952 . S
H2765 C2761 0.950 . S
H2766 C2767 0.949 . S
C2767 H2766 0.949 . S
C2767 C2768 1.395 . S
C2767 C2769 1.391 . S
C2768 C2767 1.395 . S
C2768 C2771 1.390 . S
C2769 C2767 1.391 . S
C2769 C2773 1.387 . S
C2769 C2774 1.491 . S
H2770 C2771 0.950 . S
C2771 C2768 1.390 . S
C2771 H2770 0.950 . S
C2771 C2772 1.378 . S
C2772 C2771 1.378 . S
C2772 C2773 1.409 . S
C2773 C2769 1.387 . S
C2773 C2772 1.409 . S
C2773 H2775 0.951 . S
C2774 C2769 1.491 . S
C2774 C2776 1.382 . S
C2774 C2778 1.410 . S
H2775 C2773 0.951 . S
C2776 C2774 1.382 . S
C2776 C2777 1.390 1_545 S
C2776 H2781 0.949 . S
C2777 C2776 1.390 1_565 S
C2777 C2782 1.399 . S
C2778 C2774 1.410 . S
C2778 H2779 0.954 . S
C2778 C2780 1.364 1_545 S
H2779 C2778 0.954 . S
C2780 C2778 1.364 1_565 S
C2780 C2782 1.382 . S
C2780 H2784 0.950 . S
H2781 C2776 0.949 . S
C2782 C2777 1.399 . S
C2782 C2780 1.382 . S
C2782 H2783 0.952 . S
H2783 C2782 0.952 . S
H2784 C2780 0.950 . S
H2785 C2786 0.949 . S
C2786 H2785 0.949 . S
C2786 C2787 1.395 . S
C2786 C2788 1.391 . S
C2787 C2786 1.395 . S
C2787 C2790 1.390 . S
C2788 C2786 1.391 . S
C2788 C2792 1.387 . S
C2788 C2793 1.491 . S
H2789 C2790 0.950 . S
C2790 C2787 1.390 . S
C2790 H2789 0.950 . S
C2790 C2791 1.378 . S
C2791 C2790 1.378 . S
C2791 C2792 1.409 . S
C2792 C2788 1.387 . S
C2792 C2791 1.409 . S
C2792 H2794 0.951 . S
C2793 C2788 1.491 . S
C2793 C2795 1.382 . S
C2793 C2797 1.404 . S
H2794 C2792 0.951 . S
C2795 C2793 1.382 . S
C2795 C2796 1.390 . S
C2795 H2800 0.949 . S
C2796 C2795 1.390 . S
C2796 C2801 1.399 . S
C2797 C2793 1.404 . S
C2797 H2798 0.950 . S
C2797 C2799 1.375 . S
H2798 C2797 0.950 . S
C2799 C2797 1.375 . S
C2799 C2801 1.382 . S
C2799 H2803 0.950 . S
H2800 C2795 0.949 . S
C2801 C2796 1.399 . S
C2801 C2799 1.382 . S
C2801 H2802 0.952 . S
H2802 C2801 0.952 . S
H2803 C2799 0.950 . S
H2804 C2805 0.949 . S
C2805 H2804 0.949 . S
C2805 C2806 1.395 . S
C2805 C2807 1.391 . S
C2806 C2805 1.395 . S
C2806 C2809 1.390 . S
C2807 C2805 1.391 . S
C2807 C2811 1.387 . S
C2807 C2812 1.491 . S
H2808 C2809 0.950 . S
C2809 C2806 1.390 . S
C2809 H2808 0.950 . S
C2809 C2810 1.378 . S
C2810 C2809 1.378 . S
C2810 C2811 1.409 . S
C2811 C2807 1.387 . S
C2811 C2810 1.409 . S
C2811 H2813 0.951 . S
C2812 C2807 1.491 . S
C2812 C2814 1.382 . S
C2812 C2816 1.404 . S
H2813 C2811 0.951 . S
C2814 C2812 1.382 . S
C2814 C2815 1.390 . S
C2814 H2819 0.949 . S
C2815 C2814 1.390 . S
C2815 C2820 1.399 . S
C2816 C2812 1.404 . S
C2816 H2817 0.950 . S
C2816 C2818 1.375 . S
H2817 C2816 0.950 . S
C2818 C2816 1.375 . S
C2818 C2820 1.382 . S
C2818 H2822 0.950 . S
H2819 C2814 0.949 . S
C2820 C2815 1.399 . S
C2820 C2818 1.382 . S
C2820 H2821 0.952 . S
H2821 C2820 0.952 . S
H2822 C2818 0.950 . S
H2823 C2824 0.949 . S
C2824 H2823 0.949 . S
C2824 C2825 1.395 . S
C2824 C2826 1.391 . S
C2825 C2824 1.395 . S
C2825 C2828 1.390 . S
C2826 C2824 1.391 . S
C2826 C2830 1.387 . S
C2826 C2831 1.491 . S
H2827 C2828 0.950 . S
C2828 C2825 1.390 . S
C2828 H2827 0.950 . S
C2828 C2829 1.378 . S
C2829 C2828 1.378 . S
C2829 C2830 1.409 . S
C2830 C2826 1.387 . S
C2830 C2829 1.409 . S
C2830 H2832 0.951 . S
C2831 C2826 1.491 . S
C2831 C2833 1.382 . S
C2831 C2835 1.404 . S
H2832 C2830 0.951 . S
C2833 C2831 1.382 . S
C2833 C2834 1.390 . S
C2833 H2838 0.949 . S
C2834 C2833 1.390 . S
C2834 C2839 1.399 . S
C2835 C2831 1.404 . S
C2835 H2836 0.950 . S
C2835 C2837 1.375 . S
H2836 C2835 0.950 . S
C2837 C2835 1.375 . S
C2837 C2839 1.382 . S
C2837 H2841 0.950 . S
H2838 C2833 0.949 . S
C2839 C2834 1.399 . S
C2839 C2837 1.382 . S
C2839 H2840 0.952 . S
H2840 C2839 0.952 . S
H2841 C2837 0.950 . S
H2842 C2843 0.949 . S
C2843 H2842 0.949 . S
C2843 C2844 1.395 . S
C2843 C2845 1.391 . S
C2844 C2843 1.395 . S
C2844 C2847 1.390 . S
C2845 C2843 1.391 . S
C2845 C2849 1.387 . S
C2845 C2850 1.491 . S
H2846 C2847 0.950 . S
C2847 C2844 1.390 . S
C2847 H2846 0.950 . S
C2847 C2848 1.378 . S
C2848 C2847 1.378 . S
C2848 C2849 1.409 . S
C2849 C2845 1.387 . S
C2849 C2848 1.409 . S
C2849 H2851 0.951 . S
C2850 C2845 1.491 . S
C2850 C2852 1.382 . S
C2850 C2854 1.409 . S
H2851 C2849 0.951 . S
C2852 C2850 1.382 . S
C2852 C2853 1.390 1_565 S
C2852 H2857 0.949 . S
C2853 C2852 1.390 1_545 S
C2853 C2858 1.399 . S
C2854 C2850 1.409 . S
C2854 H2855 0.953 . S
C2854 C2856 1.366 1_565 S
H2855 C2854 0.953 . S
C2856 C2854 1.366 1_545 S
C2856 C2858 1.382 . S
C2856 H2860 0.950 . S
H2857 C2852 0.949 . S
C2858 C2853 1.399 . S
C2858 C2856 1.382 . S
C2858 H2859 0.952 . S
H2859 C2858 0.952 . S
H2860 C2856 0.950 . S
H2861 C2862 0.949 . S
C2862 H2861 0.949 . S
C2862 C2863 1.395 . S
C2862 C2864 1.391 . S
C2863 C2862 1.395 . S
C2863 C2866 1.390 . S
C2864 C2862 1.391 . S
C2864 C2868 1.387 . S
C2864 C2869 1.491 . S
H2865 C2866 0.950 . S
C2866 C2863 1.390 . S
C2866 H2865 0.950 . S
C2866 C2867 1.378 . S
C2867 C2866 1.378 . S
C2867 C2868 1.409 . S
C2868 C2864 1.387 . S
C2868 C2867 1.409 . S
C2868 H2870 0.951 . S
C2869 C2864 1.491 . S
C2869 C2871 1.382 . S
C2869 C2873 1.409 . S
H2870 C2868 0.951 . S
C2871 C2869 1.382 . S
C2871 C2872 1.390 1_545 S
C2871 H2876 0.949 . S
C2872 C2871 1.390 1_565 S
C2872 C2877 1.399 . S
C2873 C2869 1.409 . S
C2873 H2874 0.953 . S
C2873 C2875 1.366 1_545 S
H2874 C2873 0.953 . S
C2875 C2873 1.366 1_565 S
C2875 C2877 1.382 . S
C2875 H2879 0.950 . S
H2876 C2871 0.949 . S
C2877 C2872 1.399 . S
C2877 C2875 1.382 . S
C2877 H2878 0.952 . S
H2878 C2877 0.952 . S
H2879 C2875 0.950 . S
C1542 C8 1.344 . S
C2473 C19 1.343 . S
C1580 C30 1.344 . S
C2435 C41 1.343 . S
C1656 C52 1.343 . S
C63 C2511 1.344 . S
C1618 C74 1.343 . S
C2549 C85 1.344 . S
C2853 C96 1.344 . S
C107 C2739 1.343 . S
C2872 C118 1.344 . S
C129 C2834 1.344 . S
C2777 C140 1.344 . S
C1884 C151 1.344 . S
C1903 C162 1.343 . S
C173 C1846 1.344 . S
C184 C2682 1.344 . S
C1732 C195 1.344 . S
C2587 C206 1.343 . S
C1694 C217 1.344 . S
C228 C1713 1.344 . S
C2720 C239 1.343 . S
C2663 C250 1.344 . S
C261 C2701 1.344 . S
C272 C1086 1.525 . S
C283 C2017 1.524 . S
C1124 C294 1.524 . S
C305 C1979 1.524 . S
C1200 C316 1.524 . S
C327 C2055 1.524 . S
C1162 C338 1.524 . S
C2093 C349 1.525 . S
C360 C2397 1.524 . S
C2283 C371 1.525 . S
C382 C2416 1.524 . S
C2378 C393 1.524 . S
C2321 C404 1.524 . S
C415 C1428 1.524 . S
C426 C1447 1.525 . S
C1390 C437 1.524 . S
C448 C2226 1.525 . S
C1276 C459 1.524 . S
C470 C2131 1.524 . S
C1238 C481 1.524 . S
C492 C1257 1.525 . S
C2264 C503 1.524 . S
C2207 C514 1.524 . S
C2245 C525 1.524 . S
C536 C2454 1.344 . S
C1561 C547 1.343 . S
C2492 C558 1.344 . S
C1523 C569 1.343 . S
C580 C2568 1.343 . S
C1599 C591 1.344 . S
C2530 C602 1.343 . S
C1637 C613 1.344 . S
C624 C1941 1.344 . S
C1827 C635 1.343 . S
C1960 C646 1.344 . S
C657 C1922 1.344 . S
C668 C1865 1.344 . S
C679 C2796 1.344 . S
C690 C2815 1.343 . S
C2758 C701 1.344 . S
C712 C1770 1.344 . S
C2644 C723 1.344 . S
C1675 C734 1.343 . S
C2606 C745 1.344 . S
C756 C2625 1.344 . S
C767 C1808 1.343 . S
C1751 C778 1.344 . S
C789 C1789 1.344 . S
C800 C1998 1.525 . S
C1105 C811 1.524 . S
C2036 C822 1.524 . S
C833 C1067 1.524 . S
C2112 C844 1.524 . S
C1143 C855 1.524 . S
C866 C2074 1.524 . S
C877 C1181 1.525 . S
C1485 C888 1.524 . S
C899 C1371 1.525 . S
C1504 C910 1.524 . S
C1466 C921 1.524 . S
C932 C1409 1.524 . S
C943 C2340 1.524 . S
C2359 C954 1.525 . S
C965 C2302 1.524 . S
C1314 C976 1.525 . S
C2188 C987 1.524 . S
C998 C1219 1.524 . S
C1009 C2150 1.524 . S
C1020 C2169 1.525 . S
C1031 C1352 1.524 . S
C1042 C1295 1.524 . S
C1333 C1053 1.524 . S
C1233 C5 1.124 . S
C1252 C16 1.125 . S
C27 C1271 1.124 . S
C38 C1214 1.125 . S
C49 C1347 1.125 . S
C1290 C60 1.124 . S
C1309 C71 1.125 . S
C82 C1328 1.124 . S
C93 C1119 1.124 . S
C104 C1062 1.126 . S
C115 C1081 1.124 . S
C1100 C126 1.125 . S
C137 C1157 1.125 . S
C148 C1176 1.124 . S
C159 C1195 1.126 . S
C170 C1138 1.124 . S
C1404 C181 1.124 . S
C192 C2392 1.124 . S
C1366 C203 1.125 . S
C2411 C214 1.124 . S
C225 C2373 1.124 . S
C236 C2354 1.125 . S
C2297 C247 1.124 . S
C2335 C258 1.124 . S
C1689 C269 1.494 . S
C1708 C280 1.493 . S
C1727 C291 1.495 . S
C302 C1670 1.492 . S
C313 C1803 1.492 . S
C1746 C324 1.495 . S
C335 C1765 1.493 . S
C1784 C346 1.494 . S
C357 C1575 1.495 . S
C1518 C368 1.492 . S
C379 C1537 1.494 . S
C1556 C390 1.493 . S
C1613 C401 1.493 . S
C412 C1632 1.494 . S
C1651 C423 1.492 . S
C1594 C434 1.495 . S
C1860 C445 1.494 . S
C2848 C456 1.493 . S
C1822 C467 1.493 . S
C478 C2867 1.495 . S
C489 C2829 1.494 . S
C2810 C500 1.493 . S
C2753 C511 1.493 . S
C2791 C522 1.495 . S
C533 C2145 1.124 . S
C2164 C544 1.125 . S
C555 C2183 1.124 . S
C2126 C566 1.125 . S
C577 C2259 1.125 . S
C588 C2202 1.124 . S
C599 C2221 1.125 . S
C610 C2240 1.124 . S
C621 C2031 1.124 . S
C1974 C632 1.126 . S
C1993 C643 1.124 . S
C654 C2012 1.125 . S
C665 C2069 1.125 . S
C676 C2088 1.124 . S
C687 C2107 1.126 . S
C698 C2050 1.124 . S
C2316 C709 1.124 . S
C1480 C720 1.124 . S
C2278 C731 1.125 . S
C1499 C742 1.124 . S
C1461 C753 1.124 . S
C1442 C764 1.125 . S
C775 C1385 1.124 . S
C1423 C786 1.124 . S
C797 C2601 1.494 . S
C808 C2620 1.493 . S
C2639 C819 1.495 . S
C830 C2582 1.492 . S
C2715 C841 1.492 . S
C852 C2658 1.495 . S
C863 C2677 1.493 . S
C2696 C874 1.494 . S
C2487 C885 1.495 . S
C2430 C896 1.492 . S
C2449 C907 1.494 . S
C2468 C918 1.493 . S
C929 C2525 1.493 . S
C2544 C940 1.494 . S
C951 C2563 1.492 . S
C962 C2506 1.495 . S
C973 C2772 1.494 . S
C984 C1936 1.493 . S
C995 C2734 1.493 . S
C1955 C1006 1.495 . S
C1017 C1917 1.494 . S
C1028 C1898 1.493 . S
C1039 C1841 1.493 . S
C1879 C1050 1.495 . S
C7 C1058 1.420 . S
C18 C1077 1.419 . S
C29 C1096 1.419 . S
C1115 C40 1.419 . S
C1134 C51 1.419 . S
C62 C1153 1.419 . S
C73 C1172 1.419 . S
C84 C1191 1.420 . S
C1210 C95 1.420 . S
C1229 C106 1.419 . S
C117 C1248 1.419 . S
C1267 C128 1.420 . S
C139 C1286 1.420 . S
C150 C1305 1.419 . S
C161 C1324 1.419 . S
C172 C1343 1.420 . S
C183 C1362 1.420 . S
C194 C1381 1.419 . S
C1400 C205 1.419 . S
C1419 C216 1.419 . S
C1438 C227 1.420 . S
C1457 C238 1.419 . S
C249 C1476 1.419 . S
C1495 C260 1.419 . S
C271 C1514 1.571 . S
C282 C1533 1.570 . S
C293 C1552 1.571 . S
C1571 C304 1.568 . S
C315 C1590 1.568 . S
C1609 C326 1.571 . S
C337 C1628 1.570 . S
C348 C1647 1.571 . S
C1666 C359 1.571 . S
C370 C1685 1.568 . S
C1704 C381 1.570 . S
C392 C1723 1.570 . S
C1742 C403 1.570 . S
C1761 C414 1.570 . S
C1780 C425 1.568 . S
C436 C1799 1.571 . S
C447 C1818 1.571 . S
C458 C1837 1.570 . S
C469 C1856 1.568 . S
C480 C1875 1.571 . S
C491 C1894 1.571 . S
C1913 C502 1.568 . S
C513 C1932 1.570 . S
C1951 C524 1.571 . S
C535 C1970 1.420 . S
C1989 C546 1.419 . S
C2008 C557 1.419 . S
C2027 C568 1.419 . S
C579 C2046 1.419 . S
C590 C2065 1.419 . S
C2084 C601 1.419 . S
C2103 C612 1.420 . S
C623 C2122 1.420 . S
C634 C2141 1.419 . S
C645 C2160 1.419 . S
C656 C2179 1.420 . S
C667 C2198 1.420 . S
C2217 C678 1.419 . S
C2236 C689 1.419 . S
C2255 C700 1.420 . S
C2274 C711 1.420 . S
C722 C2293 1.419 . S
C733 C2312 1.419 . S
C2331 C744 1.419 . S
C755 C2350 1.420 . S
C2369 C766 1.419 . S
C2388 C777 1.419 . S
C2407 C788 1.419 . S
C799 C2426 1.571 . S
C810 C2445 1.570 . S
C821 C2464 1.571 . S
C832 C2483 1.568 . S
C2502 C843 1.568 . S
C2521 C854 1.571 . S
C2540 C865 1.570 . S
C876 C2559 1.571 . S
C887 C2578 1.571 . S
C2597 C898 1.568 . S
C2616 C909 1.570 . S
C2635 C920 1.570 . S
C2654 C931 1.570 . S
C2673 C942 1.570 . S
C2692 C953 1.568 . S
C2711 C964 1.571 . S
C2730 C975 1.571 . S
C2749 C986 1.570 . S
C2768 C997 1.568 . S
C1008 C2787 1.571 . S
C2806 C1019 1.571 . S
C1030 C2825 1.568 . S
C2844 C1041 1.570 . S
C2863 C1052 1.571 . S
