# Generated by pormake.
# Topology pyr, (3,6)-cn, num edge types: 1
# Building blocks:
#     Node 0, Type 0, BuildingBlock: ESEHIV_clean_linker_0, # of connection points: 3
#     Node 1, Type 0, BuildingBlock: ESEHIV_clean_linker_0, # of connection points: 3
#     Node 2, Type 0, BuildingBlock: ESEHIV_clean_linker_0, # of connection points: 3
#     Node 3, Type 0, BuildingBlock: ESEHIV_clean_linker_0, # of connection points: 3
#     Node 4, Type 0, BuildingBlock: ESEHIV_clean_linker_0, # of connection points: 3
#     Node 5, Type 0, BuildingBlock: ESEHIV_clean_linker_0, # of connection points: 3
#     Node 6, Type 0, BuildingBlock: ESEHIV_clean_linker_0, # of connection points: 3
#     Node 7, Type 0, BuildingBlock: ESEHIV_clean_linker_0, # of connection points: 3
#     Node 8, Type 1, BuildingBlock: GEDQOX_clean_sbu_0, # of connection points: 6
#     Node 9, Type 1, BuildingBlock: GEDQOX_clean_sbu_0, # of connection points: 6
#     Node 10, Type 1, BuildingBlock: GEDQOX_clean_sbu_0, # of connection points: 6
#     Node 11, Type 1, BuildingBlock: GEDQOX_clean_sbu_0, # of connection points: 6
#     Edge 12, Type (0, 1), BuildingBlock: ZUJKAS_clean_linker_0, # of connection points: 2
#     Edge 13, Type (0, 1), BuildingBlock: ZUJKAS_clean_linker_0, # of connection points: 2
#     Edge 14, Type (0, 1), BuildingBlock: ZUJKAS_clean_linker_0, # of connection points: 2
#     Edge 15, Type (0, 1), BuildingBlock: ZUJKAS_clean_linker_0, # of connection points: 2
#     Edge 16, Type (0, 1), BuildingBlock: ZUJKAS_clean_linker_0, # of connection points: 2
#     Edge 17, Type (0, 1), BuildingBlock: ZUJKAS_clean_linker_0, # of connection points: 2
#     Edge 18, Type (0, 1), BuildingBlock: ZUJKAS_clean_linker_0, # of connection points: 2
#     Edge 19, Type (0, 1), BuildingBlock: ZUJKAS_clean_linker_0, # of connection points: 2
#     Edge 20, Type (0, 1), BuildingBlock: ZUJKAS_clean_linker_0, # of connection points: 2
#     Edge 21, Type (0, 1), BuildingBlock: ZUJKAS_clean_linker_0, # of connection points: 2
#     Edge 22, Type (0, 1), BuildingBlock: ZUJKAS_clean_linker_0, # of connection points: 2
#     Edge 23, Type (0, 1), BuildingBlock: ZUJKAS_clean_linker_0, # of connection points: 2
#     Edge 24, Type (0, 1), BuildingBlock: ZUJKAS_clean_linker_0, # of connection points: 2
#     Edge 25, Type (0, 1), BuildingBlock: ZUJKAS_clean_linker_0, # of connection points: 2
#     Edge 26, Type (0, 1), BuildingBlock: ZUJKAS_clean_linker_0, # of connection points: 2
#     Edge 27, Type (0, 1), BuildingBlock: ZUJKAS_clean_linker_0, # of connection points: 2
#     Edge 28, Type (0, 1), BuildingBlock: ZUJKAS_clean_linker_0, # of connection points: 2
#     Edge 29, Type (0, 1), BuildingBlock: ZUJKAS_clean_linker_0, # of connection points: 2
#     Edge 30, Type (0, 1), BuildingBlock: ZUJKAS_clean_linker_0, # of connection points: 2
#     Edge 31, Type (0, 1), BuildingBlock: ZUJKAS_clean_linker_0, # of connection points: 2
#     Edge 32, Type (0, 1), BuildingBlock: ZUJKAS_clean_linker_0, # of connection points: 2
#     Edge 33, Type (0, 1), BuildingBlock: ZUJKAS_clean_linker_0, # of connection points: 2
#     Edge 34, Type (0, 1), BuildingBlock: ZUJKAS_clean_linker_0, # of connection points: 2
#     Edge 35, Type (0, 1), BuildingBlock: ZUJKAS_clean_linker_0, # of connection points: 2
# Relax obj value: 0.101
# Max RMSD: 0.152
# Mean RMSD: 0.061
data_MOF--net-pyr--node1-GEDQOX_clean_sbu_0--node2-ESEHIV_clean_linker_0--edge1-ZUJKAS_clean_linker_0
_symmetry_space_group_name_H-M    P1
_symmetry_Int_Tables_number       1
_symmetry_cell_setting            triclinic
loop_
_symmetry_equiv_pos_as_xyz
'x, y, z'
_cell_length_a     49.555204
_cell_length_b     49.394344
_cell_length_c     43.727063
_cell_angle_alpha  88.098024
_cell_angle_beta   92.183756
_cell_angle_gamma 88.183971
loop_
_atom_site_label
_atom_site_type_symbol
_atom_site_fract_x
_atom_site_fract_y
_atom_site_fract_z
_atom_type_partial_charge
H0 H 0.16417 0.20464 0.189 0.0
H1 H 0.22487 0.1401 0.18904 0.0
H2 H 0.22515 0.2057 0.12138 0.0
C3 C 0.1813 0.19495 0.1788 0.0
C4 C 0.19231 0.20819 0.15282 0.0
C5 C 0.19237 0.17023 0.19256 0.0
C6 C 0.21626 0.15911 0.17965 0.0
C7 C 0.22887 0.17152 0.15403 0.0
C8 C 0.21623 0.19601 0.14093 0.0
H9 H 0.33596 0.81255 0.78049 0.0
H10 H 0.40798 0.76141 0.78251 0.0
H11 H 0.33862 0.74155 0.7265 0.0
C12 C 0.34663 0.79449 0.77335 0.0
C13 C 0.33399 0.77758 0.7524 0.0
C14 C 0.37328 0.78881 0.78442 0.0
C15 C 0.38726 0.76566 0.77453 0.0
C16 C 0.37485 0.74845 0.75362 0.0
C17 C 0.34815 0.75447 0.74299 0.0
H18 H 0.74962 0.38423 0.88354 0.0
H19 H 0.74975 0.43564 0.80183 0.0
H20 H 0.6823 0.38533 0.81883 0.0
C21 C 0.73996 0.39188 0.86218 0.0
C22 C 0.71443 0.38276 0.85338 0.0
C23 C 0.75276 0.41123 0.84392 0.0
C24 C 0.73978 0.42121 0.81641 0.0
C25 C 0.71453 0.41156 0.80699 0.0
C26 C 0.7019 0.39269 0.82586 0.0
H27 H 0.83348 0.8037 0.34498 0.0
H28 H 0.86794 0.81486 0.2567 0.0
H29 H 0.80978 0.75344 0.2709 0.0
C30 C 0.83459 0.79837 0.3212 0.0
C31 C 0.81928 0.77709 0.3102 0.0
C32 C 0.85206 0.81221 0.30203 0.0
C33 C 0.85412 0.80465 0.27149 0.0
C34 C 0.83829 0.78394 0.26 0.0
C35 C 0.82087 0.7704 0.2794 0.0
H36 H 0.82981 0.90052 0.83469 0.0
H37 H 0.89358 0.83927 0.83897 0.0
H38 H 0.82873 0.83466 0.90198 0.0
C39 C 0.83885 0.88204 0.845 0.0
C40 C 0.8261 0.86957 0.87047 0.0
C41 C 0.86308 0.87116 0.83269 0.0
C42 C 0.87453 0.84686 0.84694 0.0
C43 C 0.86266 0.83274 0.87183 0.0
C44 C 0.8385 0.84486 0.88336 0.0
H45 H 0.63387 0.27943 0.2531 0.0
H46 H 0.70609 0.22862 0.25276 0.0
H47 H 0.69853 0.28972 0.31975 0.0
C48 C 0.65395 0.27389 0.26238 0.0
C49 C 0.66443 0.28713 0.28799 0.0
C50 C 0.66907 0.25294 0.24928 0.0
C51 C 0.69485 0.2455 0.26192 0.0
C52 C 0.7054 0.25837 0.28765 0.0
C53 C 0.69023 0.2794 0.30019 0.0
H54 H 0.30044 0.65856 0.13475 0.0
H55 H 0.30753 0.59936 0.20964 0.0
H56 H 0.36876 0.65817 0.19815 0.0
C57 C 0.31151 0.6496 0.15464 0.0
C58 C 0.33599 0.66061 0.1643 0.0
C59 C 0.30111 0.62737 0.17074 0.0
C60 C 0.31544 0.61637 0.19692 0.0
C61 C 0.33976 0.62757 0.20703 0.0
C62 C 0.34997 0.64946 0.19042 0.0
H63 H 0.17343 0.23182 0.77738 0.0
H64 H 0.20311 0.25292 0.6884 0.0
H65 H 0.21974 0.30295 0.76489 0.0
C66 C 0.18462 0.24492 0.76246 0.0
C67 C 0.19648 0.26787 0.77441 0.0
C68 C 0.18686 0.23926 0.73129 0.0
C69 C 0.20146 0.2568 0.71251 0.0
C70 C 0.2138 0.27954 0.72453 0.0
C71 C 0.21106 0.28497 0.75551 0.0
Nd72 Nd 0.04846 0.99629 0.51474 0.0
Nd73 Nd 1.01089 0.04451 0.51315 0.0
C74 C 0.07932 0.95258 0.50723 0.0
C75 C 0.09089 0.93067 0.52761 0.0
C76 C 0.07849 0.92342 0.55489 0.0
C77 C 0.09133 0.90478 0.57583 0.0
C78 C 0.1169 0.89332 0.56998 0.0
C79 C 0.1288 0.90013 0.54214 0.0
C80 C 0.11587 0.91862 0.52115 0.0
C81 C 0.06146 0.03378 0.55718 0.0
C82 C 1.0032 0.99529 0.56739 0.0
C83 C 0.98034 0.08825 0.52167 0.0
C84 C 0.96568 0.10828 0.50131 0.0
C85 C 0.95168 0.13017 0.51359 0.0
C86 C 0.93522 0.14757 0.49455 0.0
C87 C 0.93239 0.14317 0.46294 0.0
C88 C 0.94745 0.1218 0.45063 0.0
C89 C 0.964 0.10454 0.46966 0.0
C90 C 0.9973 1.00686 0.471 0.0
C91 C 0.05582 0.04535 0.45999 0.0
O92 O 0.05308 0.95325 0.50247 0.0
O93 O 0.08894 0.97649 0.51186 0.0
O94 O 0.06337 1.00785 0.56288 0.0
O95 O 0.05396 0.03906 0.52976 0.0
O96 O 1.01969 0.97989 0.5516 0.0
O97 O 0.99943 0.02142 0.55913 0.0
O98 O 1.00672 0.0885 0.52162 0.0
O99 O 0.97107 0.06379 0.52111 0.0
O100 O 0.99439 0.03278 0.46567 0.0
O101 O 1.00535 1.0017 0.49826 0.0
O102 O 0.03835 0.06047 0.47481 0.0
O103 O 0.06087 0.01965 0.46934 0.0
H104 H 0.05926 0.93271 0.56039 0.0
H105 H 0.08146 0.89976 0.59686 0.0
H106 H 0.14866 0.89211 0.53708 0.0
H107 H 0.12583 0.92424 0.50035 0.0
H108 H 0.95288 0.13335 0.538 0.0
H109 H 0.92425 0.1641 0.50468 0.0
H110 H 0.94553 0.11759 0.42651 0.0
H111 H 0.97472 0.08767 0.45984 0.0
Nd112 Nd 0.52924 1.00556 0.03684 0.0
Nd113 Nd 0.52668 0.0373 0.98784 0.0
C114 C 0.53154 0.96357 0.07634 0.0
C115 C 0.51476 0.93967 0.08109 0.0
C116 C 0.5161 0.91775 0.0614 0.0
C117 C 0.49928 0.89585 0.06518 0.0
C118 C 0.48074 0.8954 0.08868 0.0
C119 C 0.47961 0.91711 0.1086 0.0
C120 C 0.49656 0.93896 0.10494 0.0
C121 C 0.48489 0.04239 0.04278 0.0
C122 C 0.49518 0.9847 0.97756 0.0
C123 C 0.52383 0.07913 0.94809 0.0
C124 C 0.53827 0.10465 0.94499 0.0
C125 C 0.5403 0.12246 0.96935 0.0
C126 C 0.55513 0.14591 0.96653 0.0
C127 C 0.56828 0.15197 0.93937 0.0
C128 C 0.56604 0.13426 0.91495 0.0
C129 C 0.55112 0.11084 0.91773 0.0
C130 C 0.57068 1.00006 0.98194 0.0
C131 C 0.56098 0.05798 0.04694 0.0
O132 O 0.54519 0.96457 0.05144 0.0
O133 O 0.52064 0.98705 0.08232 0.0
O134 O 0.50403 0.03678 0.06323 0.0
O135 O 0.49041 0.02983 0.01843 0.0
O136 O 0.50989 0.97715 1.0021 0.0
O137 O 0.49479 1.01009 0.96815 0.0
O138 O 0.50811 0.0767 0.97118 0.0
O139 O 0.53791 0.05696 0.94383 0.0
O140 O 0.55138 1.00553 0.9616 0.0
O141 O 0.5654 1.01292 1.00617 0.0
O142 O 0.54594 0.06564 0.02269 0.0
O143 O 0.56155 0.03253 0.05616 0.0
H144 H 0.5299 0.91758 0.04278 0.0
H145 H 0.50044 0.87947 0.04936 0.0
H146 H 0.46575 0.9171 0.12718 0.0
H147 H 0.49523 0.95545 0.1206 0.0
H148 H 0.53071 0.11816 0.99074 0.0
H149 H 0.55672 0.15905 0.98583 0.0
H150 H 0.57567 0.13862 0.89359 0.0
H151 H 0.5498 0.09742 0.89867 0.0
Nd152 Nd 0.49412 0.50557 0.51196 0.0
Nd153 Nd 0.54909 0.54055 0.51588 0.0
C154 C 0.44486 0.48832 0.50145 0.0
C155 C 0.42237 0.47765 0.51834 0.0
C156 C 0.3986 0.47118 0.50229 0.0
C157 C 0.3778 0.45883 0.5176 0.0
C158 C 0.38054 0.45272 0.54924 0.0
C159 C 0.40414 0.46011 0.5654 0.0
C160 C 0.42493 0.47247 0.55003 0.0
C161 C 0.5336 0.48801 0.55442 0.0
C162 C 0.49683 0.55856 0.55638 0.0
C163 C 0.59747 0.5573 0.53147 0.0
C164 C 0.62037 0.56848 0.51573 0.0
C165 C 0.64315 0.57627 0.53276 0.0
C166 C 0.6638 0.58969 0.51828 0.0
C167 C 0.66187 0.59556 0.48654 0.0
C168 C 0.63937 0.58674 0.46945 0.0
C169 C 0.61878 0.5733 0.48395 0.0
C170 C 0.51609 0.55547 0.46515 0.0
C171 C 0.54397 0.4903 0.46955 0.0
O172 O 0.45006 0.51388 0.50505 0.0
O173 O 0.46662 0.47254 0.50147 0.0
O174 O 0.51655 0.4717 0.54203 0.0
O175 O 0.52733 0.51213 0.54672 0.0
O176 O 0.48191 0.53965 0.54391 0.0
O177 O 0.52268 0.56152 0.55066 0.0
O178 O 0.59257 0.53176 0.5268 0.0
O179 O 0.57561 0.57304 0.53063 0.0
O180 O 0.53887 0.56709 0.47087 0.0
O181 O 0.51299 0.53808 0.48589 0.0
O182 O 0.56035 0.50275 0.48881 0.0
O183 O 0.51737 0.49314 0.47024 0.0
H184 H 0.39636 0.47516 0.47778 0.0
H185 H 0.35972 0.45372 0.50462 0.0
H186 H 0.40699 0.4554 0.5897 0.0
H187 H 0.44328 0.47734 0.56268 0.0
H188 H 0.64462 0.57264 0.55735 0.0
H189 H 0.68104 0.59591 0.53199 0.0
H190 H 0.63707 0.59123 0.44506 0.0
H191 H 0.60119 0.56747 0.47054 0.0
Nd192 Nd 1.0018 0.51313 0.03233 0.0
Nd193 Nd 0.04857 0.52541 0.99321 0.0
C194 C 0.95273 0.50895 0.05272 0.0
C195 C 0.93238 0.53019 0.05955 0.0
C196 C 0.9211 0.54798 0.03626 0.0
C197 C 0.90665 0.57146 0.04371 0.0
C198 C 0.9035 0.57759 0.07447 0.0
C199 C 0.91299 0.55888 0.09759 0.0
C200 C 0.92714 0.53528 0.09017 0.0
C201 C 0.04317 0.53815 0.06197 0.0
C202 C 1.00076 0.573 0.99066 0.0
C203 C 0.09798 0.5274 0.9735 0.0
C204 C 0.11623 0.50376 0.9701 0.0
C205 C 0.14441 0.50592 0.97106 0.0
C206 C 0.16115 0.48251 0.97015 0.0
C207 C 0.14977 0.45679 0.9691 0.0
C208 C 0.12159 0.45488 0.96819 0.0
C209 C 0.10503 0.47809 0.96845 0.0
C210 C 1.00736 0.5002 0.96347 0.0
C211 C 0.04986 0.46612 0.0357 0.0
O212 O 0.95821 0.50631 0.02387 0.0
O213 O 0.97445 0.5078 0.07079 0.0
O214 O 0.02957 0.51908 0.07471 0.0
O215 O 0.0339 0.54423 0.03533 0.0
O216 O 0.98746 0.55476 1.00696 0.0
O217 O 0.02643 0.56773 0.98431 0.0
O218 O 0.09223 0.53221 1.0018 0.0
O219 O 0.07654 0.5286 0.95499 0.0
O220 O 1.0212 0.51902 0.95068 0.0
O221 O 1.0165 0.4942 0.9902 0.0
O222 O 0.0634 0.48512 0.021 0.0
O223 O 0.02372 0.47058 0.04012 0.0
H224 H 0.9247 0.54464 1.01238 0.0
H225 H 0.8995 0.58565 0.02554 0.0
H226 H 0.91046 0.56309 0.12149 0.0
H227 H 0.9354 0.52184 0.10852 0.0
H228 H 0.15338 0.52556 0.97266 0.0
H229 H 0.18287 0.48442 0.97054 0.0
H230 H 0.11228 0.43539 0.96666 0.0
H231 H 0.08334 0.47592 0.96758 0.0
H232 H 0.1385 0.17424 0.21117 0.0
H233 H 0.11775 0.15419 0.25558 0.0
H234 H 0.19254 0.11128 0.28123 0.0
H235 H 0.21426 0.13318 0.23843 0.0
H236 H 0.10309 0.10963 0.27515 0.0
H237 H 0.18018 0.13334 0.36362 0.0
H238 H 0.1814 0.14678 0.32495 0.0
H239 H 0.19468 0.11303 0.33494 0.0
C240 C 0.15117 0.16124 0.22645 0.0
C241 C 0.17884 0.15636 0.22032 0.0
C242 C 0.13884 0.1492 0.25218 0.0
C243 C 0.15322 0.1313 0.27334 0.0
C244 C 0.18058 0.12563 0.26677 0.0
H245 H 0.10114 0.02593 0.43035 0.0
H246 H 0.12408 0.04609 0.38654 0.0
C247 C 0.1931 0.13802 0.24129 0.0
C248 C 0.13936 0.11834 0.30125 0.0
H249 H 0.14731 0.10195 0.37874 0.0
C250 C 0.11297 0.10831 0.29771 0.0
C251 C 0.15137 0.11614 0.33156 0.0
C252 C 0.17831 0.12815 0.33912 0.0
C253 C 0.099 0.09628 0.32246 0.0
C254 C 0.11126 0.09364 0.35241 0.0
C255 C 0.13758 0.10348 0.35609 0.0
C256 C 0.09697 0.08113 0.37996 0.0
C257 C 0.07109 0.08599 0.31623 0.0
C258 C 0.07384 0.09372 0.39199 0.0
C259 C 0.06079 0.08233 0.4176 0.0
C260 C 0.06997 0.05753 0.43224 0.0
C261 C 0.09306 0.04487 0.42007 0.0
C262 C 0.1064 0.05654 0.39477 0.0
H263 H 0.0662 0.08475 0.29132 0.0
H264 H 0.06909 0.06563 0.32732 0.0
H265 H 0.056 0.09995 0.32608 0.0
H266 H 0.0659 0.11272 0.38171 0.0
H267 H 0.04324 0.09301 0.42584 0.0
H268 H 0.40442 0.77676 0.83658 0.0
H269 H 0.42574 0.80873 0.87108 0.0
H270 H 0.39367 0.8757 0.81361 0.0
H271 H 0.37283 0.844 0.77883 0.0
H272 H 0.44957 0.87858 0.8313 0.0
H273 H 0.38532 0.85825 0.93057 0.0
H274 H 0.40145 0.82911 0.91461 0.0
H275 H 0.37602 0.84844 0.89227 0.0
C276 C 0.40206 0.79829 0.83126 0.0
C277 C 0.38675 0.80788 0.80516 0.0
C278 C 0.41402 0.81651 0.8511 0.0
C279 C 0.41089 0.84456 0.8451 0.0
C280 C 0.3961 0.85413 0.81877 0.0
H281 H 0.4644 0.99289 0.92455 0.0
H282 H 0.44375 0.95848 0.89311 0.0
C283 C 0.38408 0.83599 0.79903 0.0
C284 C 0.42331 0.86411 0.8659 0.0
H285 H 0.42035 0.88902 0.93766 0.0
C286 C 0.44322 0.88088 0.85456 0.0
C287 C 0.41499 0.86695 0.89624 0.0
C288 C 0.39313 0.84991 0.90922 0.0
C289 C 0.45516 0.9004 0.87282 0.0
C290 C 0.44649 0.90362 0.90298 0.0
C291 C 0.42684 0.88658 0.91448 0.0
C292 C 0.45762 0.9246 0.92291 0.0
C293 C 0.47727 0.9171 0.85978 0.0
C294 C 0.47129 0.91705 0.95072 0.0
C295 C 0.48291 0.93668 0.96888 0.0
C296 C 0.48097 0.96425 0.95959 0.0
C297 C 0.46644 0.97183 0.93224 0.0
C298 C 0.45478 0.95217 0.91414 0.0
H299 H 0.48651 0.90727 0.84003 0.0
H300 H 0.46861 0.93716 0.85161 0.0
H301 H 0.49342 0.92045 0.87743 0.0
H302 H 0.47351 0.8959 0.95803 0.0
H303 H 0.49385 0.93015 0.98989 0.0
H304 H 0.70622 0.46331 0.78294 0.0
H305 H 0.67867 0.47735 0.73678 0.0
H306 H 0.66526 0.39354 0.71822 0.0
H307 H 0.69261 0.37945 0.76399 0.0
H308 H 0.68141 0.46202 0.67202 0.0
H309 H 0.58867 0.42892 0.72808 0.0
H310 H 0.61991 0.43429 0.74929 0.0
H311 H 0.61572 0.4038 0.72858 0.0
C312 C 0.69775 0.44794 0.76867 0.0
C313 C 0.70115 0.42033 0.77725 0.0
C314 C 0.68201 0.45595 0.74243 0.0
C315 C 0.66957 0.43645 0.72453 0.0
C316 C 0.67429 0.40888 0.7321 0.0
H317 H 0.549 0.43699 0.57563 0.0
H318 H 0.58391 0.42456 0.6154 0.0
C319 C 0.68988 0.40089 0.75823 0.0
C320 C 0.65041 0.44466 0.69888 0.0
H321 H 0.58419 0.44131 0.67535 0.0
C322 C 0.66012 0.45766 0.67271 0.0
C323 C 0.62268 0.43889 0.69999 0.0
C324 C 0.61099 0.42592 0.72807 0.0
C325 C 0.64285 0.46447 0.64718 0.0
C326 C 0.61515 0.45846 0.64821 0.0
C327 C 0.60547 0.44567 0.67453 0.0
C328 C 0.59556 0.46581 0.62262 0.0
C329 C 0.65449 0.47746 0.61911 0.0
C330 C 0.59054 0.49307 0.61363 0.0
C331 C 0.57068 0.50016 0.59103 0.0
C332 C 0.55537 0.48012 0.57717 0.0
C333 C 0.56055 0.45281 0.58594 0.0
C334 C 0.58046 0.44571 0.60859 0.0
H335 H 0.67673 0.47394 0.61879 0.0
H336 H 0.64513 0.46958 0.59786 0.0
H337 H 0.65032 0.49967 0.61905 0.0
H338 H 0.60149 0.50895 0.62464 0.0
H339 H 0.56696 0.52141 0.58486 0.0
H340 H 0.79917 0.77718 0.21562 0.0
H341 H 0.80378 0.75155 0.1689 0.0
H342 H 0.88948 0.74103 0.189 0.0
H343 H 0.88506 0.76749 0.23492 0.0
H344 H 0.87794 0.74563 0.12728 0.0
H345 H 0.81192 0.67061 0.18272 0.0
H346 H 0.79689 0.70374 0.1748 0.0
H347 H 0.82448 0.69926 0.20261 0.0
C348 C 0.81906 0.76999 0.20948 0.0
C349 C 0.84175 0.77401 0.22886 0.0
C350 C 0.82165 0.75525 0.18297 0.0
C351 C 0.84683 0.74374 0.17598 0.0
C352 C 0.86982 0.74963 0.19404 0.0
H353 H 0.92837 0.61255 0.11144 0.0
H354 H 0.91115 0.65647 0.12758 0.0
C355 C 0.86732 0.76476 0.22024 0.0
C356 C 0.84909 0.72299 0.15244 0.0
H357 H 0.83318 0.65761 0.13867 0.0
C358 C 0.86774 0.72658 0.12937 0.0
C359 C 0.83573 0.6981 0.15519 0.0
C360 C 0.81629 0.69248 0.18025 0.0
C361 C 0.87454 0.70541 0.11018 0.0
C362 C 0.86238 0.68015 0.11423 0.0
C363 C 0.84229 0.67716 0.13564 0.0
C364 C 0.87357 0.65536 0.10086 0.0
C365 C 0.89561 0.70973 0.08668 0.0
C366 C 0.85799 0.64019 0.0806 0.0
C367 C 0.86788 0.61503 0.07123 0.0
C368 C 0.89309 0.60458 0.08274 0.0
C369 C 0.90872 0.62006 0.1026 0.0
C370 C 0.89907 0.64525 0.11151 0.0
H371 H 0.89723 0.73157 0.08029 0.0
H372 H 0.91556 0.70215 0.09638 0.0
H373 H 0.8909 0.69841 0.06571 0.0
H374 H 0.83808 0.64759 0.07253 0.0
H375 H 0.85556 0.60339 0.05583 0.0
H376 H 0.2461 0.16908 0.09332 0.0
H377 H 0.28697 0.14752 0.07363 0.0
H378 H 0.31389 0.12396 0.16568 0.0
H379 H 0.27284 0.14449 0.18519 0.0
H380 H 0.33774 0.1517 0.0733 0.0
H381 H 0.32998 0.05322 0.13433 0.0
H382 H 0.30328 0.07875 0.13457 0.0
H383 H 0.33202 0.07972 0.16115 0.0
C384 C 0.26057 0.15927 0.10959 0.0
C385 C 0.25508 0.15864 0.14124 0.0
C386 C 0.28436 0.14667 0.09811 0.0
C387 C 0.30422 0.13276 0.11755 0.0
C388 C 0.29912 0.133 0.14926 0.0
H389 H 0.46811 0.05605 0.09984 0.0
H390 H 0.42564 0.07692 0.11555 0.0
C391 C 0.27522 0.14521 0.16068 0.0
C392 C 0.33007 0.11877 0.10495 0.0
H393 H 0.37246 0.06156 0.11263 0.0
C394 C 0.34492 0.13184 0.08192 0.0
C395 C 0.34049 0.09251 0.11522 0.0
C396 C 0.32546 0.07512 0.1374 0.0
C397 C 0.36923 0.12032 0.07014 0.0
C398 C 0.37995 0.09448 0.08109 0.0
C399 C 0.36507 0.08132 0.10387 0.0
C400 C 0.40669 0.08122 0.07025 0.0
C401 C 0.38381 0.13654 0.0465 0.0
C402 C 0.41143 0.07568 0.03914 0.0
C403 C 0.43617 0.06309 0.02991 0.0
C404 C 0.45755 0.05564 0.0513 0.0
C405 C 0.45267 0.06124 0.08226 0.0
C406 C 0.42796 0.07337 0.09147 0.0
H407 H 0.3771 0.15823 0.04562 0.0
H408 H 0.40599 0.13516 0.05126 0.0
H409 H 0.37958 0.12824 0.0236 0.0
H410 H 0.39577 0.08074 0.02179 0.0
H411 H 0.43856 0.05931 1.0059 0.0
H412 H 0.31689 0.77447 0.6925 0.0
H413 H 0.27336 0.78959 0.66895 0.0
H414 H 0.2463 0.81408 0.75669 0.0
H415 H 0.28973 0.79829 0.78082 0.0
H416 H 0.21666 0.77532 0.68592 0.0
H417 H 0.2425 0.88375 0.69683 0.0
H418 H 0.26807 0.85681 0.69904 0.0
H419 H 0.24635 0.86164 0.7304 0.0
C420 C 0.30153 0.78247 0.70701 0.0
C421 C 0.30682 0.78516 0.73859 0.0
C422 C 0.2767 0.7912 0.69345 0.0
C423 C 0.25679 0.80301 0.7111 0.0
C424 C 0.26159 0.80514 0.74272 0.0
H425 H 0.11969 0.89966 0.63199 0.0
H426 H 0.14895 0.8747 0.67002 0.0
C427 C 0.28642 0.79626 0.75639 0.0
C428 C 0.23179 0.81459 0.69576 0.0
H429 H 0.20235 0.87469 0.66976 0.0
C430 C 0.21325 0.79704 0.68267 0.0
C431 C 0.22748 0.84291 0.69176 0.0
C432 C 0.24713 0.86252 0.70505 0.0
C433 C 0.19067 0.80714 0.66499 0.0
C434 C 0.18707 0.83547 0.65969 0.0
C435 C 0.20511 0.85299 0.67384 0.0
C436 C 0.16619 0.84749 0.63767 0.0
C437 C 0.17104 0.78736 0.65209 0.0
C438 C 0.16577 0.84017 0.60692 0.0
C439 C 0.14875 0.85413 0.58517 0.0
C440 C 0.13213 0.87603 0.59364 0.0
C441 C 0.13191 0.88268 0.62468 0.0
C442 C 0.14878 0.86855 0.64646 0.0
H443 H 0.17095 0.76849 0.66663 0.0
H444 H 0.15017 0.79629 0.65002 0.0
H445 H 0.17728 0.78167 0.62899 0.0
H446 H 0.17944 0.82442 0.59942 0.0
H447 H 0.1492 0.84826 0.56154 0.0
H448 H 0.77022 0.46323 0.84421 0.0
H449 H 0.81452 0.47851 0.86229 0.0
H450 H 0.84033 0.39568 0.88398 0.0
H451 H 0.79633 0.38026 0.86569 0.0
H452 H 0.83886 0.46761 0.92351 0.0
H453 H 0.90106 0.42737 0.83103 0.0
H454 H 0.86486 0.43272 0.82666 0.0
H455 H 0.87884 0.40366 0.84819 0.0
C456 C 0.78548 0.44829 0.85248 0.0
C457 C 0.77984 0.42057 0.85357 0.0
C458 C 0.81066 0.45704 0.86292 0.0
C459 C 0.83068 0.43818 0.87421 0.0
C460 C 0.82521 0.4105 0.87503 0.0
H461 H 0.97489 0.46207 0.98785 0.0
H462 H 0.93181 0.44693 0.96599 0.0
C463 C 0.80003 0.40176 0.86481 0.0
C464 C 0.85702 0.44742 0.88617 0.0
H465 H 0.92473 0.44408 0.87432 0.0
C466 C 0.85765 0.46258 0.91274 0.0
C467 C 0.88139 0.44092 0.87188 0.0
C468 C 0.88165 0.42546 0.84271 0.0
C469 C 0.88216 0.47103 0.92576 0.0
C470 C 0.9066 0.46392 0.91191 0.0
C471 C 0.90593 0.44922 0.88501 0.0
C472 C 0.93303 0.47216 0.92468 0.0
C473 C 0.88179 0.48772 0.95404 0.0
C474 C 0.94818 0.49079 0.90829 0.0
C475 C 0.97266 0.49948 0.92072 0.0
C476 C 0.98246 0.48952 0.94963 0.0
C477 C 0.96767 0.47022 0.96561 0.0
C478 C 0.94308 0.46164 0.95323 0.0
H479 H 0.86121 0.49607 0.9582 0.0
H480 H 0.88866 0.47479 0.97426 0.0
H481 H 0.89577 0.50477 0.95209 0.0
H482 H 0.94077 0.49901 0.88616 0.0
H483 H 0.9837 0.51434 0.90789 0.0
H484 H 0.83415 0.7579 0.36796 0.0
H485 H 0.8093 0.72741 0.40104 0.0
H486 H 0.74428 0.72693 0.33265 0.0
H487 H 0.76862 0.75809 0.29979 0.0
H488 H 0.72705 0.73292 0.39246 0.0
H489 H 0.80073 0.64635 0.38536 0.0
H490 H 0.81487 0.67732 0.39795 0.0
H491 H 0.80063 0.67573 0.35967 0.0
C492 C 0.81435 0.75168 0.36018 0.0
C493 C 0.80334 0.76035 0.33124 0.0
C494 C 0.80037 0.73398 0.37893 0.0
C495 C 0.77523 0.72457 0.369 0.0
C496 C 0.76379 0.73383 0.34058 0.0
H497 H 0.68387 0.58912 0.43057 0.0
H498 H 0.71282 0.62046 0.4036 0.0
C499 C 0.77774 0.75152 0.32181 0.0
C500 C 0.76077 0.70497 0.38812 0.0
H501 H 0.7646 0.64034 0.41858 0.0
C502 C 0.73525 0.71271 0.39827 0.0
C503 C 0.77149 0.67853 0.39529 0.0
C504 C 0.79832 0.6688 0.38382 0.0
C505 C 0.72009 0.69468 0.41549 0.0
C506 C 0.731 0.6684 0.42312 0.0
C507 C 0.75649 0.66062 0.41292 0.0
C508 C 0.71561 0.64838 0.44059 0.0
C509 C 0.69224 0.70367 0.42467 0.0
C510 C 0.70833 0.65337 0.4706 0.0
C511 C 0.69163 0.63566 0.48595 0.0
C512 C 0.68209 0.61255 0.47159 0.0
C513 C 0.69053 0.60697 0.44204 0.0
C514 C 0.70719 0.62473 0.42669 0.0
H515 H 0.68451 0.72194 0.41118 0.0
H516 H 0.6777 0.68724 0.42162 0.0
H517 H 0.69304 0.70874 0.44922 0.0
H518 H 0.715 0.67132 0.48186 0.0
H519 H 0.68536 0.64068 0.50858 0.0
H520 H 0.13751 0.22441 0.14947 0.0
H521 H 0.11553 0.26662 0.12961 0.0
H522 H 0.1925 0.29602 0.10374 0.0
H523 H 0.21475 0.25364 0.12366 0.0
H524 H 0.11548 0.31719 0.14347 0.0
H525 H 0.1532 0.31793 0.02624 0.0
H526 H 0.15815 0.28883 0.05208 0.0
H527 H 0.18006 0.31715 0.05492 0.0
C528 C 0.15013 0.23971 0.13977 0.0
C529 C 0.17846 0.2347 0.13874 0.0
C530 C 0.13723 0.26426 0.12806 0.0
C531 C 0.15173 0.28533 0.11428 0.0
C532 C 0.18005 0.28045 0.11314 0.0
H533 H 0.10472 0.45134 0.03542 0.0
H534 H 0.12836 0.40933 0.05441 0.0
C535 C 0.19303 0.25579 0.12485 0.0
C536 C 0.13723 0.31218 0.10229 0.0
H537 H 0.12996 0.35796 0.04063 0.0
C538 C 0.11871 0.32579 0.12083 0.0
C539 C 0.14087 0.32449 0.07275 0.0
C540 C 0.15892 0.31125 0.0502 0.0
C541 C 0.10463 0.3506 0.11138 0.0
C542 C 0.10809 0.36279 0.08177 0.0
C543 C 0.12674 0.3493 0.06326 0.0
C544 C 0.09291 0.38926 0.06978 0.0
C545 C 0.0868 0.36396 0.13406 0.0
C546 C 0.0645 0.39315 0.07125 0.0
C547 C 0.05076 0.41764 0.06049 0.0
C548 C 0.06458 0.43949 0.04725 0.0
C549 C 0.09291 0.43543 0.04526 0.0
C550 C 0.10665 0.411 0.05619 0.0
H551 H 0.09297 0.35763 0.158 0.0
H552 H 0.08731 0.38638 0.13184 0.0
H553 H 0.06568 0.35777 0.12991 0.0
H554 H 0.05263 0.37703 0.08049 0.0
H555 H 0.02906 0.41933 0.06243 0.0
H556 H 0.66278 0.38431 0.87241 0.0
H557 H 0.63856 0.34717 0.89614 0.0
H558 H 0.71132 0.29665 0.89815 0.0
H559 H 0.73573 0.334 0.87509 0.0
H560 H 0.63069 0.30063 0.86858 0.0
H561 H 0.68295 0.27836 0.98125 0.0
H562 H 0.68753 0.30939 0.95934 0.0
H563 H 0.70576 0.27875 0.95038 0.0
C564 C 0.67369 0.36544 0.87857 0.0
C565 C 0.70105 0.36191 0.87191 0.0
C566 C 0.65989 0.34429 0.89213 0.0
C567 C 0.67317 0.31921 0.89916 0.0
C568 C 0.70082 0.31601 0.89364 0.0
H569 H 0.61813 0.1567 0.91552 0.0
H570 H 0.6435 0.19809 0.90845 0.0
C571 C 0.71472 0.3373 0.88035 0.0
C572 C 0.65738 0.2956 0.90861 0.0
H573 H 0.65446 0.24374 0.96196 0.0
C574 C 0.63568 0.28845 0.88924 0.0
C575 C 0.66397 0.27965 0.93552 0.0
C576 C 0.68616 0.28707 0.95797 0.0
C577 C 0.62085 0.26542 0.89562 0.0
C578 C 0.62792 0.24913 0.92197 0.0
C579 C 0.64927 0.25636 0.94169 0.0
C580 C 0.61362 0.22406 0.92866 0.0
C581 C 0.59804 0.25816 0.87386 0.0
C582 C 0.58862 0.22518 0.94254 0.0
C583 C 0.57404 0.20166 0.9465 0.0
C584 C 0.58424 0.17672 0.93645 0.0
C585 C 0.60961 0.17568 0.92309 0.0
C586 C 0.62421 0.19919 0.91929 0.0
H587 H 0.59586 0.27233 0.85358 0.0
H588 H 0.60152 0.23727 0.86589 0.0
H589 H 0.57876 0.25853 0.88599 0.0
H590 H 0.58015 0.24434 0.9497 0.0
H591 H 0.55447 0.2031 0.95664 0.0
H592 H 0.90659 0.81707 0.29828 0.0
H593 H 0.93507 0.8496 0.32444 0.0
H594 H 0.86402 0.88809 0.35999 0.0
H595 H 0.83564 0.85529 0.33456 0.0
H596 H 0.93786 0.90465 0.32245 0.0
H597 H 0.90863 0.86857 0.43733 0.0
H598 H 0.90046 0.85063 0.40311 0.0
H599 H 0.87986 0.87936 0.41337 0.0
C600 C 0.8971 0.8327 0.31141 0.0
C601 C 0.869 0.83358 0.31473 0.0
C602 C 0.91335 0.85118 0.32638 0.0
C603 C 0.90169 0.87081 0.34475 0.0
C604 C 0.87349 0.8726 0.34667 0.0
H605 H 0.96894 1.0155 0.41676 0.0
H606 H 0.94845 0.98143 0.38474 0.0
C607 C 0.8573 0.85398 0.33203 0.0
C608 C 0.91892 0.88904 0.3626 0.0
H609 H 0.93123 0.91048 0.43497 0.0
C610 C 0.93662 0.90581 0.34709 0.0
C611 C 0.91778 0.89001 0.39483 0.0
C612 C 0.90088 0.87097 0.41318 0.0
C613 C 0.95249 0.92429 0.36286 0.0
C614 C 0.94998 0.9265 0.39484 0.0
C615 C 0.93295 0.90904 0.41041 0.0
C616 C 0.96423 0.94708 0.41273 0.0
C617 C 0.97194 0.941 0.34513 0.0
C618 C 0.97946 0.93919 0.43948 0.0
C619 C 0.99059 0.95866 0.45818 0.0
C620 C 0.98689 0.98635 0.45033 0.0
C621 C 0.97223 0.99425 0.42322 0.0
C622 C 0.96075 0.97478 0.40474 0.0
H623 H 0.97811 0.93071 0.32417 0.0
H624 H 0.96189 0.96067 0.33782 0.0
H625 H 0.99036 0.94507 0.35927 0.0
H626 H 0.98229 0.91795 0.44621 0.0
H627 H 1.00169 0.95203 0.47903 0.0
H628 H 0.35741 0.6974 0.74348 0.0
H629 H 0.37961 0.66232 0.7142 0.0
H630 H 0.44865 0.71244 0.70452 0.0
H631 H 0.42643 0.74781 0.73338 0.0
H632 H 0.39501 0.67301 0.6527 0.0
H633 H 0.48207 0.6361 0.72829 0.0
H634 H 0.45292 0.65376 0.74263 0.0
H635 H 0.47816 0.67231 0.72326 0.0
C636 C 0.37747 0.70081 0.73546 0.0
C637 C 0.3901 0.72545 0.7406 0.0
C638 C 0.39014 0.68072 0.71884 0.0
C639 C 0.41579 0.68475 0.70736 0.0
C640 C 0.42903 0.70876 0.71364 0.0
H641 H 0.51858 0.60304 0.58216 0.0
H642 H 0.49823 0.63288 0.6189 0.0
C643 C 0.41632 0.72893 0.7302 0.0
C644 C 0.42745 0.6651 0.68627 0.0
H645 H 0.48133 0.62183 0.67694 0.0
C646 C 0.41377 0.66162 0.65806 0.0
C647 C 0.45201 0.65054 0.6933 0.0
C648 C 0.46712 0.65311 0.7236 0.0
C649 C 0.4243 0.64435 0.63631 0.0
C650 C 0.44886 0.62967 0.64333 0.0
C651 C 0.46247 0.63305 0.67166 0.0
C652 C 0.46108 0.61119 0.62127 0.0
C653 C 0.40946 0.6427 0.60566 0.0
C654 C 0.44703 0.58891 0.6106 0.0
C655 C 0.45851 0.57189 0.58936 0.0
C656 C 0.48442 0.57664 0.57868 0.0
C657 C 0.49858 0.59876 0.58983 0.0
C658 C 0.48701 0.61583 0.6109 0.0
H659 H 0.39531 0.66038 0.60095 0.0
H660 H 0.42381 0.64165 0.58681 0.0
H661 H 0.39745 0.62413 0.60557 0.0
H662 H 0.42722 0.5846 0.61881 0.0
H663 H 0.44714 0.5549 0.58152 0.0
H664 H 0.89396 0.84789 0.78726 0.0
H665 H 0.91691 0.86932 0.74492 0.0
H666 H 0.88539 0.94735 0.76987 0.0
H667 H 0.86355 0.92623 0.81341 0.0
H668 H 0.90378 0.89508 0.69422 0.0
H669 H 0.95985 0.97019 0.75979 0.0
H670 H 0.94174 0.94367 0.77845 0.0
H671 H 0.9241 0.97412 0.76374 0.0
C672 C 0.89216 0.86972 0.78449 0.0
C673 C 0.87674 0.8849 0.80508 0.0
C674 C 0.90532 0.88213 0.75957 0.0
C675 C 0.90396 0.91047 0.75367 0.0
C676 C 0.88803 0.92566 0.77368 0.0
H677 H 0.96875 0.02028 0.60796 0.0
H678 H 0.94531 1.00026 0.65138 0.0
C679 C 0.87491 0.91327 0.79874 0.0
C680 C 0.91854 0.92362 0.72646 0.0
H681 H 0.96033 0.97531 0.70561 0.0
C682 C 0.91623 0.91253 0.69708 0.0
C683 C 0.93512 0.94664 0.729 0.0
C684 C 0.94062 0.9592 0.75948 0.0
C685 C 0.92909 0.92365 0.671 0.0
C686 C 0.94563 0.94665 0.67355 0.0
C687 C 0.94786 0.95785 0.70285 0.0
C688 C 0.96065 0.9592 0.64641 0.0
C689 C 0.92403 0.91088 0.64055 0.0
C690 C 0.978 0.94354 0.62843 0.0
C691 C 0.99164 0.95511 0.60335 0.0
C692 C 0.98875 0.98301 0.5949 0.0
C693 C 0.97172 0.99878 0.61315 0.0
C694 C 0.95816 0.98721 0.63835 0.0
H695 H 0.90502 0.89954 0.64011 0.0
H696 H 0.92282 0.92637 0.62152 0.0
H697 H 0.94089 0.89628 0.63646 0.0
H698 H 0.98136 0.92215 0.63396 0.0
H699 H 1.00455 0.94197 0.59048 0.0
H700 H 0.69294 0.23836 0.19674 0.0
H701 H 0.67548 0.20817 0.15787 0.0
H702 H 0.60208 0.20047 0.207 0.0
H703 H 0.61922 0.23108 0.24548 0.0
H704 H 0.6636 0.15645 0.16586 0.0
H705 H 0.57177 0.21345 0.12119 0.0
H706 H 0.59737 0.22873 0.14479 0.0
H707 H 0.572 0.20852 0.162 0.0
C708 C 0.6729 0.23053 0.19893 0.0
C709 C 0.65736 0.23717 0.22401 0.0
C710 C 0.66296 0.21329 0.17675 0.0
C711 C 0.63732 0.20229 0.17927 0.0
C712 C 0.6216 0.20926 0.20407 0.0
H713 H 0.58258 0.05253 0.1054 0.0
H714 H 0.6027 0.08775 0.13605 0.0
C715 C 0.63143 0.22672 0.2261 0.0
C716 C 0.62788 0.18203 0.15726 0.0
H717 H 0.57465 0.16628 0.11003 0.0
C718 C 0.64426 0.15875 0.1534 0.0
C719 C 0.60284 0.18515 0.14066 0.0
C720 C 0.58513 0.21045 0.1421 0.0
C721 C 0.63597 0.13818 0.13409 0.0
C722 C 0.61026 0.14061 0.11885 0.0
C723 C 0.59423 0.16424 0.12201 0.0
C724 C 0.59939 0.1188 0.09982 0.0
C725 C 0.655 0.11422 0.13 0.0
C726 C 0.5904 0.12459 0.06941 0.0
C727 C 0.57855 0.1046 0.05201 0.0
C728 C 0.57546 0.07839 0.06465 0.0
C729 C 0.58493 0.07245 0.09491 0.0
C730 C 0.59656 0.09255 0.11241 0.0
H731 H 0.67635 0.11942 0.13492 0.0
H732 H 0.65004 0.09755 0.14625 0.0
H733 H 0.6532 0.10672 0.10637 0.0
H734 H 0.59232 0.1447 0.05921 0.0
H735 H 0.57157 0.10978 0.02873 0.0
H736 H 0.35418 0.57491 0.22323 0.0
H737 H 0.382 0.55858 0.26829 0.0
H738 H 0.38669 0.64048 0.29885 0.0
H739 H 0.3589 0.65681 0.25422 0.0
H740 H 0.43605 0.57715 0.28333 0.0
H741 H 0.36409 0.59533 0.37527 0.0
H742 H 0.35332 0.59268 0.33556 0.0
H743 H 0.36723 0.62356 0.34877 0.0
C744 C 0.36082 0.58929 0.23988 0.0
C745 C 0.3545 0.6171 0.23528 0.0
C746 C 0.37676 0.57999 0.26543 0.0
C747 C 0.38617 0.59834 0.28692 0.0
C748 C 0.37934 0.62599 0.2827 0.0
H749 H 0.52034 0.59325 0.41874 0.0
H750 H 0.48882 0.6019 0.37452 0.0
C751 C 0.36364 0.63529 0.25713 0.0
C752 C 0.40438 0.58905 0.31298 0.0
H753 H 0.41034 0.58743 0.391 0.0
C754 C 0.43039 0.5791 0.3069 0.0
C755 C 0.39681 0.59152 0.34361 0.0
C756 C 0.36876 0.60113 0.35132 0.0
C757 C 0.4494 0.57236 0.33077 0.0
C758 C 0.44219 0.57594 0.36138 0.0
C759 C 0.41588 0.58501 0.36746 0.0
C760 C 0.46164 0.57041 0.3875 0.0
C761 C 0.47703 0.56147 0.32309 0.0
C762 C 0.45653 0.55017 0.40956 0.0
C763 C 0.47438 0.54531 0.43473 0.0
C764 C 0.4975 0.56078 0.43842 0.0
C765 C 0.50264 0.58106 0.41636 0.0
C766 C 0.48477 0.58589 0.39108 0.0
H767 H 0.4772 0.55383 0.29948 0.0
H768 H 0.49167 0.57794 0.32471 0.0
H769 H 0.484 0.54481 0.33948 0.0
H770 H 0.43875 0.53807 0.40722 0.0
H771 H 0.47009 0.5294 0.45127 0.0
H772 H 0.22289 0.24823 0.82678 0.0
H773 H 0.22051 0.26747 0.87798 0.0
H774 H 0.15921 0.32556 0.84271 0.0
H775 H 0.1615 0.30631 0.79214 0.0
H776 H 0.23288 0.31958 0.8904 0.0
H777 H 0.12868 0.30246 0.92356 0.0
H778 H 0.14464 0.28312 0.89446 0.0
H779 H 0.12831 0.31561 0.88486 0.0
C780 C 0.20839 0.26456 0.83047 0.0
C781 C 0.1921 0.27572 0.80599 0.0
C782 C 0.2071 0.27556 0.85953 0.0
C783 C 0.18932 0.29761 0.86429 0.0
C784 C 0.17248 0.30805 0.83985 0.0
H785 H 0.18774 0.44717 0.92735 0.0
H786 H 0.20459 0.4028 0.91266 0.0
C787 C 0.17385 0.29719 0.81096 0.0
C788 C 0.19034 0.3123 0.89323 0.0
H789 H 0.14781 0.34531 0.93972 0.0
C790 C 0.21448 0.3246 0.90195 0.0
C791 C 0.16664 0.31823 0.90901 0.0
C792 C 0.14071 0.30386 0.90267 0.0
C793 C 0.21469 0.34512 0.92341 0.0
C794 C 0.19005 0.35385 0.93576 0.0
C795 C 0.1667 0.33915 0.92985 0.0
C796 C 0.18666 0.38057 0.94994 0.0
C797 C 0.24105 0.35807 0.93144 0.0
C798 C 0.17155 0.38312 0.97628 0.0
C799 C 0.16146 0.40853 0.98429 0.0
C800 C 0.16652 0.43178 0.96626 0.0
C801 C 0.18384 0.42959 0.94181 0.0
C802 C 0.19362 0.40415 0.93353 0.0
H803 H 0.25799 0.34274 0.9321 0.0
H804 H 0.24527 0.37361 0.91349 0.0
H805 H 0.24059 0.36784 0.95393 0.0
H806 H 0.16586 0.36528 0.98929 0.0
H807 H 0.14817 0.40979 1.00331 0.0
H808 H 0.8088 0.87153 0.93106 0.0
H809 H 0.7676 0.89251 0.9509 0.0
H810 H 0.74149 0.91849 0.85941 0.0
H811 H 0.7824 0.89757 0.83947 0.0
H812 H 0.74546 0.94635 0.94997 0.0
H813 H 0.67304 0.88335 0.88757 0.0
H814 H 0.70871 0.87468 0.89092 0.0
H815 H 0.69611 0.90024 0.86331 0.0
C816 C 0.79432 0.88145 0.91488 0.0
C817 C 0.79981 0.88235 0.88322 0.0
C818 C 0.77046 0.89379 0.92647 0.0
C819 C 0.75037 0.90726 0.90706 0.0
C820 C 0.7558 0.90815 0.87546 0.0
H821 H 0.58682 0.98517 0.92503 0.0
H822 H 0.62908 0.96427 0.90919 0.0
C823 C 0.77978 0.89618 0.86392 0.0
C824 C 0.72421 0.92038 0.91958 0.0
H825 H 0.65445 0.92063 0.913 0.0
C826 C 0.72561 0.9405 0.94186 0.0
C827 C 0.69765 0.91349 0.90953 0.0
C828 C 0.69361 0.89161 0.88674 0.0
C829 C 0.70214 0.95408 0.9532 0.0
C830 C 0.67544 0.9471 0.94327 0.0
C831 C 0.67419 0.92669 0.9212 0.0
C832 C 0.64883 0.96095 0.95424 0.0
C833 C 0.7066 0.97681 0.9748 0.0
C834 C 0.6441 0.96672 0.98535 0.0
C835 C 0.61945 0.97947 0.9946 0.0
C836 C 0.5979 0.98661 0.97335 0.0
C837 C 0.60246 0.98034 0.94251 0.0
C838 C 0.62707 0.96803 0.93326 0.0
H839 H 0.72681 0.98554 0.97225 0.0
H840 H 0.69104 0.99334 0.97088 0.0
H841 H 0.70567 0.96879 0.99873 0.0
H842 H 0.65931 0.96098 1.00293 0.0
H843 H 0.61716 0.98338 0.01859 0.0
H844 H 0.75319 0.24494 0.26126 0.0
H845 H 0.79507 0.22668 0.28728 0.0
H846 H 0.75751 0.23135 0.37436 0.0
H847 H 0.71572 0.24915 0.34873 0.0
H848 H 0.82666 0.25111 0.34058 0.0
H849 H 0.78493 0.14991 0.36515 0.0
H850 H 0.77093 0.17286 0.33518 0.0
H851 H 0.76366 0.17841 0.37444 0.0
C852 C 0.75393 0.24204 0.28595 0.0
C853 C 0.73122 0.2485 0.30298 0.0
C854 C 0.77783 0.23179 0.30073 0.0
C855 C 0.77918 0.22758 0.33263 0.0
C856 C 0.75673 0.23438 0.34968 0.0
H857 H 0.88164 0.15988 0.47771 0.0
H858 H 0.84669 0.18231 0.44433 0.0
C859 C 0.73296 0.24471 0.33501 0.0
C860 C 0.8037 0.21546 0.34846 0.0
H861 H 0.82607 0.15979 0.39135 0.0
C862 C 0.82678 0.23103 0.35141 0.0
C863 C 0.80361 0.18929 0.36243 0.0
C864 C 0.77956 0.17148 0.35902 0.0
C865 C 0.84949 0.22147 0.36929 0.0
C866 C 0.84905 0.19558 0.38406 0.0
C867 C 0.82625 0.17972 0.38017 0.0
C868 C 0.87146 0.18474 0.4047 0.0
C869 C 0.87327 0.23952 0.37327 0.0
C870 C 0.89713 0.17906 0.39358 0.0
C871 C 0.91736 0.1665 0.41278 0.0
C872 C 0.91215 0.15922 0.44335 0.0
C873 C 0.88656 0.1656 0.45451 0.0
C874 C 0.86644 0.17821 0.43537 0.0
H875 H 0.86808 0.26087 0.36594 0.0
H876 H 0.88082 0.23902 0.39753 0.0
H877 H 0.88992 0.23212 0.35913 0.0
H878 H 0.90128 0.18357 0.36985 0.0
H879 H 0.93691 0.16205 0.40354 0.0
H880 H 0.28397 0.61642 0.11246 0.0
H881 H 0.23961 0.6009 0.09537 0.0
H882 H 0.21482 0.59755 0.18884 0.0
H883 H 0.25899 0.61351 0.2061 0.0
H884 H 0.21249 0.55219 0.11408 0.0
H885 H 0.15662 0.64734 0.14119 0.0
H886 H 0.19285 0.64553 0.13786 0.0
H887 H 0.17794 0.63218 0.17172 0.0
C888 C 0.26903 0.61244 0.12936 0.0
C889 C 0.27488 0.61633 0.1606 0.0
C890 C 0.2438 0.60346 0.11958 0.0
C891 C 0.22392 0.59843 0.14082 0.0
C892 C 0.22985 0.60166 0.17209 0.0
H893 H 0.07156 0.51885 0.11304 0.0
H894 H 0.11556 0.53354 0.13262 0.0
C895 C 0.25513 0.61053 0.18192 0.0
C896 C 0.19686 0.59009 0.13014 0.0
H897 H 0.13049 0.61109 0.12412 0.0
C898 C 0.19454 0.565 0.1163 0.0
C899 C 0.17361 0.60707 0.1328 0.0
C900 C 0.17524 0.63465 0.14646 0.0
C901 C 0.1694 0.55628 0.10536 0.0
C902 C 0.14611 0.57305 0.10851 0.0
C903 C 0.14845 0.59826 0.12202 0.0
C904 C 0.11917 0.56488 0.09741 0.0
C905 C 0.16787 0.52939 0.09008 0.0
C906 C 0.10654 0.57806 0.07155 0.0
C907 C 0.0815 0.5697 0.0603 0.0
C908 C 0.06866 0.5482 0.07497 0.0
C909 C 0.08103 0.53551 0.10135 0.0
C910 C 0.10615 0.54376 0.11245 0.0
H911 H 0.18818 0.52093 0.08497 0.0
H912 H 0.15801 0.51467 0.10541 0.0
H913 H 0.15542 0.53154 0.06841 0.0
H914 H 0.11632 0.59447 0.05975 0.0
H915 H 0.07235 0.57982 0.03993 0.0
H916 H 0.26261 0.30108 0.738 0.0
H917 H 0.28787 0.33217 0.70616 0.0
H918 H 0.22574 0.33016 0.63455 0.0
H919 H 0.19996 0.29947 0.66661 0.0
H920 H 0.30694 0.32236 0.6471 0.0
H921 H 0.23633 0.41219 0.64722 0.0
H922 H 0.23496 0.38421 0.67472 0.0
H923 H 0.22166 0.38093 0.6363 0.0
C924 C 0.25419 0.30747 0.71559 0.0
C925 C 0.22927 0.29793 0.70482 0.0
C926 C 0.26868 0.32511 0.69741 0.0
C927 C 0.25847 0.33367 0.66822 0.0
C928 C 0.23372 0.32407 0.65723 0.0
H929 H 0.35392 0.40905 0.5283 0.0
H930 H 0.32231 0.38106 0.55572 0.0
C931 C 0.2192 0.30633 0.67541 0.0
C932 C 0.27432 0.35199 0.64907 0.0
H933 H 0.27442 0.41576 0.61643 0.0
C934 C 0.29983 0.34275 0.6403 0.0
C935 C 0.26499 0.37863 0.64055 0.0
C936 C 0.23808 0.38978 0.65032 0.0
C937 C 0.31634 0.35947 0.62315 0.0
C938 C 0.3069 0.38599 0.6143 0.0
C939 C 0.28142 0.39531 0.62311 0.0
C940 C 0.32373 0.4045 0.59662 0.0
C941 C 0.34402 0.34886 0.61522 0.0
C942 C 0.33418 0.42744 0.61024 0.0
C943 C 0.35211 0.44361 0.59457 0.0
C944 C 0.3597 0.43715 0.56495 0.0
C945 C 0.3483 0.41472 0.55097 0.0
C946 C 0.33043 0.39856 0.56667 0.0
H947 H 0.35036 0.33032 0.62906 0.0
H948 H 0.34373 0.34373 0.59069 0.0
H949 H 0.35935 0.36448 0.61883 0.0
H950 H 0.32909 0.43236 0.63333 0.0
H951 H 0.36028 0.46097 0.60576 0.0
H952 H 0.85898 0.80663 0.93031 0.0
H953 H 0.88064 0.76403 0.95064 0.0
H954 H 0.91917 0.75328 0.86533 0.0
H955 H 0.89676 0.79462 0.84419 0.0
H956 H 0.87992 0.70697 0.92686 0.0
H957 H 0.9837 0.74564 0.9309 0.0
H958 H 0.95406 0.76798 0.9295 0.0
H959 H 0.96444 0.75185 0.89551 0.0
C960 C 0.87175 0.79533 0.91541 0.0
C961 C 0.87585 0.80551 0.8852 0.0
C962 C 0.88446 0.77062 0.92739 0.0
C963 C 0.90231 0.75491 0.91005 0.0
C964 C 0.90618 0.76472 0.87991 0.0
H965 H 1.0145 0.61036 0.94478 0.0
H966 H 0.99054 0.65232 0.92614 0.0
C967 C 0.89321 0.78907 0.86777 0.0
C968 C 0.91666 0.72845 0.92298 0.0
H969 H 0.97949 0.69898 0.94177 0.0
C970 C 0.9017 0.7054 0.93026 0.0
C971 C 0.94525 0.72544 0.92732 0.0
C972 C 0.96295 0.749 0.92066 0.0
C973 C 0.91414 0.67999 0.94066 0.0
C974 C 0.94285 0.677 0.94562 0.0
C975 C 0.9577 0.70028 0.93842 0.0
C976 C 0.95781 0.65028 0.95756 0.0
C977 C 0.89603 0.65627 0.9447 0.0
C978 C 0.94858 0.63404 0.98218 0.0
C979 C 0.96218 0.60937 0.99252 0.0
C980 C 0.98631 0.59988 0.97955 0.0
C981 C 0.99611 0.61647 0.95566 0.0
C982 C 0.9822 0.64088 0.94489 0.0
H983 H 0.87721 0.65894 0.93013 0.0
H984 H 0.90632 0.63695 0.93884 0.0
H985 H 0.89001 0.65477 0.96887 0.0
H986 H 0.93084 0.64049 0.99397 0.0
H987 H 0.95386 0.59786 1.01122 0.0
H988 H 0.30924 0.70842 0.14827 0.0
H989 H 0.32883 0.75006 0.12796 0.0
H990 H 0.40646 0.70844 0.12481 0.0
H991 H 0.38703 0.66687 0.14498 0.0
H992 H 0.37377 0.77422 0.16043 0.0
H993 H 0.39698 0.75088 0.04077 0.0
H994 H 0.37199 0.73311 0.062 0.0
H995 H 0.40731 0.72481 0.06883 0.0
C996 C 0.33031 0.70805 0.1425 0.0
C997 C 0.34669 0.68454 0.1482 0.0
C998 C 0.34146 0.73179 0.13104 0.0
C999 C 0.36898 0.73216 0.12466 0.0
C1000 C 0.38508 0.7084 0.12916 0.0
H1001 H 0.49421 0.84149 0.08735 0.0
H1002 H 0.4646 0.80328 0.09456 0.0
C1003 C 0.37403 0.68478 0.14087 0.0
C1004 C 0.38172 0.75791 0.11653 0.0
H1005 H 0.41896 0.78861 0.06216 0.0
C1006 C 0.3833 0.77766 0.13877 0.0
C1007 C 0.39424 0.76205 0.08837 0.0
C1008 C 0.39242 0.74171 0.06346 0.0
C1009 C 0.39821 0.801 0.13417 0.0
C1010 C 0.41127 0.80493 0.10621 0.0
C1011 C 0.40895 0.78552 0.08358 0.0
C1012 C 0.42867 0.82827 0.10071 0.0
C1013 C 0.40094 0.82052 0.15987 0.0
C1014 C 0.41818 0.85496 0.10136 0.0
C1015 C 0.43509 0.8768 0.09748 0.0
C1016 C 0.4627 0.87229 0.09244 0.0
C1017 C 0.47299 0.84555 0.09103 0.0
C1018 C 0.45612 0.82374 0.09516 0.0
H1019 H 0.39531 0.81126 0.18214 0.0
H1020 H 0.42195 0.82758 0.16229 0.0
H1021 H 0.3873 0.83848 0.15476 0.0
H1022 H 0.39692 0.85889 0.10491 0.0
H1023 H 0.42655 0.89722 0.09814 0.0
H1024 H 0.20581 0.20541 0.68801 0.0
H1025 H 0.18183 0.16969 0.66245 0.0
H1026 H 0.11409 0.18244 0.71998 0.0
H1027 H 0.13716 0.21957 0.74425 0.0
H1028 H 0.16332 0.12283 0.68183 0.0
H1029 H 0.07714 0.18885 0.63678 0.0
H1030 H 0.10712 0.20227 0.65441 0.0
H1031 H 0.08142 0.18838 0.67772 0.0
C1032 C 0.18566 0.20092 0.69499 0.0
C1033 C 0.17328 0.21572 0.71787 0.0
C1034 C 0.17208 0.18027 0.68055 0.0
C1035 C 0.14593 0.17377 0.68883 0.0
C1036 C 0.13397 0.18759 0.71264 0.0
H1037 H 0.07394 0.02692 0.61821 0.0
H1038 H 0.09248 0.06043 0.65263 0.0
C1039 C 0.1474 0.20855 0.72684 0.0
C1040 C 0.13129 0.1527 0.67214 0.0
H1041 H 0.07448 0.14202 0.62814 0.0
C1042 C 0.14386 0.12699 0.67014 0.0
C1043 C 0.10605 0.1583 0.65657 0.0
C1044 C 0.09224 0.18601 0.65617 0.0
C1045 C 0.13215 0.10684 0.65261 0.0
C1046 C 0.10666 0.11226 0.63754 0.0
C1047 C 0.09389 0.13783 0.63994 0.0
C1048 C 0.0937 0.09233 0.61755 0.0
C1049 C 0.1478 0.08042 0.64942 0.0
C1050 C 0.087 0.09952 0.58679 0.0
C1051 C 0.07587 0.08063 0.56733 0.0
C1052 C 0.07151 0.05415 0.57824 0.0
C1053 C 0.07749 0.04714 0.60919 0.0
C1054 C 0.08824 0.06619 0.62879 0.0
H1055 H 0.16965 0.08238 0.65526 0.0
H1056 H 0.13993 0.06486 0.66532 0.0
H1057 H 0.14564 0.0731 0.62574 0.0
H1058 H 0.09089 0.11962 0.57766 0.0
H1059 H 0.0713 0.08659 0.54358 0.0
H1060 H 0.65709 0.29135 0.34901 0.0
H1061 H 0.63354 0.32766 0.37482 0.0
H1062 H 0.61147 0.36693 0.28748 0.0
H1063 H 0.63561 0.33066 0.26134 0.0
H1064 H 0.63425 0.4017 0.33163 0.0
H1065 H 0.55172 0.34221 0.37927 0.0
H1066 H 0.58467 0.32696 0.38752 0.0
H1067 H 0.57186 0.33044 0.34849 0.0
C1068 C 0.64719 0.30768 0.33525 0.0
C1069 C 0.64829 0.30826 0.30315 0.0
C1070 C 0.63354 0.32828 0.35003 0.0
C1071 C 0.62054 0.3498 0.33304 0.0
C1072 C 0.62129 0.35037 0.30095 0.0
H1073 H 0.51699 0.46595 0.42286 0.0
H1074 H 0.53523 0.43411 0.38689 0.0
C1075 C 0.63491 0.32962 0.28608 0.0
C1076 C 0.60725 0.37216 0.34918 0.0
H1077 H 0.55957 0.38497 0.40153 0.0
C1078 C 0.61769 0.39818 0.34663 0.0
C1079 C 0.5855 0.36754 0.36849 0.0
C1080 C 0.57258 0.34033 0.37093 0.0
C1081 C 0.60761 0.41951 0.36384 0.0
C1082 C 0.58683 0.41449 0.3844 0.0
C1083 C 0.57572 0.38872 0.38602 0.0
C1084 C 0.57643 0.43549 0.40479 0.0
C1085 C 0.61928 0.44719 0.35986 0.0
C1086 C 0.59359 0.44694 0.4268 0.0
C1087 C 0.58324 0.46527 0.44745 0.0
C1088 C 0.55548 0.47224 0.44665 0.0
C1089 C 0.53846 0.46098 0.42427 0.0
C1090 C 0.54883 0.44278 0.40362 0.0
H1091 H 0.6291 0.44958 0.33755 0.0
H1092 H 0.60342 0.46344 0.36133 0.0
H1093 H 0.63485 0.44992 0.37832 0.0
H1094 H 0.61487 0.44116 0.42854 0.0
H1095 H 0.59689 0.47345 0.46447 0.0
loop_
_geom_bond_atom_site_label_1
_geom_bond_atom_site_label_2
_geom_bond_distance
_geom_bond_site_symmetry_2
_ccdc_geom_bond_type
H0 C3 0.931 . S
H1 C6 0.928 . S
H2 C8 0.930 . S
C3 H0 0.931 . S
C3 C4 1.413 . S
C3 C5 1.360 . S
C4 C3 1.413 . S
C4 C8 1.429 . S
C5 C3 1.360 . S
C5 C6 1.372 . S
C6 H1 0.928 . S
C6 C5 1.372 . S
C6 C7 1.404 . S
C7 C6 1.404 . S
C7 C8 1.391 . S
C8 H2 0.930 . S
C8 C4 1.429 . S
C8 C7 1.391 . S
H9 C12 0.931 . S
H10 C15 0.928 . S
H11 C17 0.930 . S
C12 H9 0.931 . S
C12 C13 1.413 . S
C12 C14 1.360 . S
C13 C12 1.413 . S
C13 C17 1.429 . S
C14 C12 1.360 . S
C14 C15 1.372 . S
C15 H10 0.928 . S
C15 C14 1.372 . S
C15 C16 1.404 . S
C16 C15 1.404 . S
C16 C17 1.391 . S
C17 H11 0.930 . S
C17 C13 1.429 . S
C17 C16 1.391 . S
H18 C21 0.931 . S
H19 C24 0.928 . S
H20 C26 0.930 . S
C21 H18 0.931 . S
C21 C22 1.413 . S
C21 C23 1.360 . S
C22 C21 1.413 . S
C22 C26 1.429 . S
C23 C21 1.360 . S
C23 C24 1.372 . S
C24 H19 0.928 . S
C24 C23 1.372 . S
C24 C25 1.404 . S
C25 C24 1.404 . S
C25 C26 1.391 . S
C26 H20 0.930 . S
C26 C22 1.429 . S
C26 C25 1.391 . S
H27 C30 0.931 . S
H28 C33 0.928 . S
H29 C35 0.930 . S
C30 H27 0.931 . S
C30 C31 1.413 . S
C30 C32 1.360 . S
C31 C30 1.413 . S
C31 C35 1.429 . S
C32 C30 1.360 . S
C32 C33 1.372 . S
C33 H28 0.928 . S
C33 C32 1.372 . S
C33 C34 1.404 . S
C34 C33 1.404 . S
C34 C35 1.391 . S
C35 H29 0.930 . S
C35 C31 1.429 . S
C35 C34 1.391 . S
H36 C39 0.931 . S
H37 C42 0.928 . S
H38 C44 0.930 . S
C39 H36 0.931 . S
C39 C40 1.413 . S
C39 C41 1.360 . S
C40 C39 1.413 . S
C40 C44 1.429 . S
C41 C39 1.360 . S
C41 C42 1.372 . S
C42 H37 0.928 . S
C42 C41 1.372 . S
C42 C43 1.404 . S
C43 C42 1.404 . S
C43 C44 1.391 . S
C44 H38 0.930 . S
C44 C40 1.429 . S
C44 C43 1.391 . S
H45 C48 0.931 . S
H46 C51 0.928 . S
H47 C53 0.930 . S
C48 H45 0.931 . S
C48 C49 1.413 . S
C48 C50 1.360 . S
C49 C48 1.413 . S
C49 C53 1.429 . S
C50 C48 1.360 . S
C50 C51 1.372 . S
C51 H46 0.928 . S
C51 C50 1.372 . S
C51 C52 1.404 . S
C52 C51 1.404 . S
C52 C53 1.391 . S
C53 H47 0.930 . S
C53 C49 1.429 . S
C53 C52 1.391 . S
H54 C57 0.931 . S
H55 C60 0.928 . S
H56 C62 0.930 . S
C57 H54 0.931 . S
C57 C58 1.413 . S
C57 C59 1.360 . S
C58 C57 1.413 . S
C58 C62 1.429 . S
C59 C57 1.360 . S
C59 C60 1.372 . S
C60 H55 0.928 . S
C60 C59 1.372 . S
C60 C61 1.404 . S
C61 C60 1.404 . S
C61 C62 1.391 . S
C62 H56 0.930 . S
C62 C58 1.429 . S
C62 C61 1.391 . S
H63 C66 0.931 . S
H64 C69 0.928 . S
H65 C71 0.930 . S
C66 H63 0.931 . S
C66 C67 1.413 . S
C66 C68 1.360 . S
C67 C66 1.413 . S
C67 C71 1.429 . S
C68 C66 1.360 . S
C68 C69 1.372 . S
C69 H64 0.928 . S
C69 C68 1.372 . S
C69 C70 1.404 . S
C70 C69 1.404 . S
C70 C71 1.391 . S
C71 H65 0.930 . S
C71 C67 1.429 . S
C71 C70 1.391 . S
Nd72 C74 2.836 . S
Nd72 O92 2.500 . S
Nd72 O93 2.492 . S
Nd72 O94 2.487 1_565 S
Nd72 O95 2.682 1_565 S
Nd72 O96 2.410 . S
Nd72 O101 2.414 1_455 S
Nd72 O103 2.424 1_565 S
Nd73 C83 2.836 . S
Nd73 O95 2.414 1_655 S
Nd73 O97 2.424 1_545 S
Nd73 O98 2.500 . S
Nd73 O99 2.492 . S
Nd73 O100 2.487 1_545 S
Nd73 O101 2.682 1_545 S
Nd73 O102 2.410 . S
C74 Nd72 2.836 . S
C74 C75 1.498 . S
C74 O92 1.258 . S
C74 O93 1.239 . S
C75 C74 1.498 . S
C75 C76 1.366 . S
C75 C80 1.407 . S
C76 C75 1.366 . S
C76 C77 1.392 . S
C76 H104 0.930 . S
C77 C76 1.392 . S
C77 C78 1.398 . S
C77 H105 0.929 . S
C78 C77 1.398 . S
C78 C79 1.352 . S
C79 C78 1.352 . S
C79 C80 1.384 . S
C79 H106 0.930 . S
C80 C75 1.407 . S
C80 C79 1.384 . S
C80 H107 0.929 . S
C81 O94 1.241 . S
C81 O95 1.273 . S
C82 O96 1.251 1_655 S
C82 O97 1.268 . S
C83 Nd73 2.836 . S
C83 C84 1.498 . S
C83 O98 1.258 . S
C83 O99 1.239 . S
C84 C83 1.498 . S
C84 C85 1.366 . S
C84 C89 1.407 . S
C85 C84 1.366 . S
C85 C86 1.392 . S
C85 H108 0.930 . S
C86 C85 1.392 . S
C86 C87 1.398 . S
C86 H109 0.929 . S
C87 C86 1.398 . S
C87 C88 1.352 . S
C88 C87 1.352 . S
C88 C89 1.384 . S
C88 H110 0.930 . S
C89 C84 1.407 . S
C89 C88 1.384 . S
C89 H111 0.929 . S
C90 O100 1.241 . S
C90 O101 1.273 . S
C91 O102 1.251 1_455 S
C91 O103 1.268 . S
O92 Nd72 2.500 . S
O92 C74 1.258 . S
O93 Nd72 2.492 . S
O93 C74 1.239 . S
O94 Nd72 2.487 1_545 S
O94 C81 1.241 . S
O95 Nd72 2.682 1_545 S
O95 Nd73 2.414 1_455 S
O95 C81 1.273 . S
O96 Nd72 2.410 . S
O96 C82 1.251 1_455 S
O97 Nd73 2.424 1_565 S
O97 C82 1.268 . S
O98 Nd73 2.500 . S
O98 C83 1.258 . S
O99 Nd73 2.492 . S
O99 C83 1.239 . S
O100 Nd73 2.487 1_565 S
O100 C90 1.241 . S
O101 Nd72 2.414 1_655 S
O101 Nd73 2.682 1_565 S
O101 C90 1.273 . S
O102 Nd73 2.410 . S
O102 C91 1.251 1_655 S
O103 Nd72 2.424 1_545 S
O103 C91 1.268 . S
H104 C76 0.930 . S
H105 C77 0.929 . S
H106 C79 0.930 . S
H107 C80 0.929 . S
H108 C85 0.930 . S
H109 C86 0.929 . S
H110 C88 0.930 . S
H111 C89 0.929 . S
Nd112 C114 2.836 . S
Nd112 O132 2.500 . S
Nd112 O133 2.492 . S
Nd112 O134 2.487 1_565 S
Nd112 O135 2.682 1_565 S
Nd112 O136 2.410 1_554 S
Nd112 O141 2.414 1_554 S
Nd112 O143 2.424 1_565 S
Nd113 C123 2.836 . S
Nd113 O135 2.414 1_556 S
Nd113 O137 2.424 1_545 S
Nd113 O138 2.500 . S
Nd113 O139 2.492 . S
Nd113 O140 2.487 . S
Nd113 O141 2.682 1_545 S
Nd113 O142 2.410 1_556 S
C114 Nd112 2.836 . S
C114 C115 1.498 . S
C114 O132 1.258 . S
C114 O133 1.239 . S
C115 C114 1.498 . S
C115 C116 1.366 . S
C115 C120 1.407 . S
C116 C115 1.366 . S
C116 C117 1.392 . S
C116 H144 0.930 . S
C117 C116 1.392 . S
C117 C118 1.398 . S
C117 H145 0.929 . S
C118 C117 1.398 . S
C118 C119 1.352 . S
C119 C118 1.352 . S
C119 C120 1.384 . S
C119 H146 0.930 . S
C120 C115 1.407 . S
C120 C119 1.384 . S
C120 H147 0.929 . S
C121 O134 1.241 . S
C121 O135 1.273 . S
C122 O136 1.251 . S
C122 O137 1.268 . S
C123 Nd113 2.836 . S
C123 C124 1.498 . S
C123 O138 1.258 . S
C123 O139 1.239 . S
C124 C123 1.498 . S
C124 C125 1.366 . S
C124 C129 1.407 . S
C125 C124 1.366 . S
C125 C126 1.392 . S
C125 H148 0.930 . S
C126 C125 1.392 . S
C126 C127 1.398 . S
C126 H149 0.929 . S
C127 C126 1.398 . S
C127 C128 1.352 . S
C128 C127 1.352 . S
C128 C129 1.384 . S
C128 H150 0.930 . S
C129 C124 1.407 . S
C129 C128 1.384 . S
C129 H151 0.929 . S
C130 O140 1.241 1_565 S
C130 O141 1.273 . S
C131 O142 1.251 . S
C131 O143 1.268 . S
O132 Nd112 2.500 . S
O132 C114 1.258 . S
O133 Nd112 2.492 . S
O133 C114 1.239 . S
O134 Nd112 2.487 1_545 S
O134 C121 1.241 . S
O135 Nd112 2.682 1_545 S
O135 Nd113 2.414 1_554 S
O135 C121 1.273 . S
O136 Nd112 2.410 1_556 S
O136 C122 1.251 . S
O137 Nd113 2.424 1_565 S
O137 C122 1.268 . S
O138 Nd113 2.500 . S
O138 C123 1.258 . S
O139 Nd113 2.492 . S
O139 C123 1.239 . S
O140 Nd113 2.487 . S
O140 C130 1.241 1_545 S
O141 Nd112 2.414 1_556 S
O141 Nd113 2.682 1_565 S
O141 C130 1.273 . S
O142 Nd113 2.410 1_554 S
O142 C131 1.251 . S
O143 Nd112 2.424 1_545 S
O143 C131 1.268 . S
H144 C116 0.930 . S
H145 C117 0.929 . S
H146 C119 0.930 . S
H147 C120 0.929 . S
H148 C125 0.930 . S
H149 C126 0.929 . S
H150 C128 0.930 . S
H151 C129 0.929 . S
Nd152 C154 2.836 . S
Nd152 O172 2.500 . S
Nd152 O173 2.492 . S
Nd152 O174 2.487 . S
Nd152 O175 2.682 . S
Nd152 O176 2.410 . S
Nd152 O181 2.414 . S
Nd152 O183 2.424 . S
Nd153 C163 2.836 . S
Nd153 O175 2.414 . S
Nd153 O177 2.424 . S
Nd153 O178 2.500 . S
Nd153 O179 2.492 . S
Nd153 O180 2.487 . S
Nd153 O181 2.682 . S
Nd153 O182 2.410 . S
C154 Nd152 2.836 . S
C154 C155 1.498 . S
C154 O172 1.258 . S
C154 O173 1.239 . S
C155 C154 1.498 . S
C155 C156 1.366 . S
C155 C160 1.407 . S
C156 C155 1.366 . S
C156 C157 1.392 . S
C156 H184 0.930 . S
C157 C156 1.392 . S
C157 C158 1.398 . S
C157 H185 0.929 . S
C158 C157 1.398 . S
C158 C159 1.352 . S
C159 C158 1.352 . S
C159 C160 1.384 . S
C159 H186 0.930 . S
C160 C155 1.407 . S
C160 C159 1.384 . S
C160 H187 0.929 . S
C161 O174 1.241 . S
C161 O175 1.273 . S
C162 O176 1.251 . S
C162 O177 1.268 . S
C163 Nd153 2.836 . S
C163 C164 1.498 . S
C163 O178 1.258 . S
C163 O179 1.239 . S
C164 C163 1.498 . S
C164 C165 1.366 . S
C164 C169 1.407 . S
C165 C164 1.366 . S
C165 C166 1.392 . S
C165 H188 0.930 . S
C166 C165 1.392 . S
C166 C167 1.398 . S
C166 H189 0.929 . S
C167 C166 1.398 . S
C167 C168 1.352 . S
C168 C167 1.352 . S
C168 C169 1.384 . S
C168 H190 0.930 . S
C169 C164 1.407 . S
C169 C168 1.384 . S
C169 H191 0.929 . S
C170 O180 1.241 . S
C170 O181 1.273 . S
C171 O182 1.251 . S
C171 O183 1.268 . S
O172 Nd152 2.500 . S
O172 C154 1.258 . S
O173 Nd152 2.492 . S
O173 C154 1.239 . S
O174 Nd152 2.487 . S
O174 C161 1.241 . S
O175 Nd152 2.682 . S
O175 Nd153 2.414 . S
O175 C161 1.273 . S
O176 Nd152 2.410 . S
O176 C162 1.251 . S
O177 Nd153 2.424 . S
O177 C162 1.268 . S
O178 Nd153 2.500 . S
O178 C163 1.258 . S
O179 Nd153 2.492 . S
O179 C163 1.239 . S
O180 Nd153 2.487 . S
O180 C170 1.241 . S
O181 Nd152 2.414 . S
O181 Nd153 2.682 . S
O181 C170 1.273 . S
O182 Nd153 2.410 . S
O182 C171 1.251 . S
O183 Nd152 2.424 . S
O183 C171 1.268 . S
H184 C156 0.930 . S
H185 C157 0.929 . S
H186 C159 0.930 . S
H187 C160 0.929 . S
H188 C165 0.930 . S
H189 C166 0.929 . S
H190 C168 0.930 . S
H191 C169 0.929 . S
Nd192 C194 2.836 . S
Nd192 O212 2.500 . S
Nd192 O213 2.492 . S
Nd192 O214 2.487 1_655 S
Nd192 O215 2.682 1_655 S
Nd192 O216 2.410 . S
Nd192 O221 2.414 1_554 S
Nd192 O223 2.424 1_655 S
Nd193 C203 2.836 . S
Nd193 O215 2.414 1_556 S
Nd193 O217 2.424 1_455 S
Nd193 O218 2.500 . S
Nd193 O219 2.492 . S
Nd193 O220 2.487 1_455 S
Nd193 O221 2.682 1_455 S
Nd193 O222 2.410 . S
C194 Nd192 2.836 . S
C194 C195 1.498 . S
C194 O212 1.258 . S
C194 O213 1.239 . S
C195 C194 1.498 . S
C195 C196 1.366 . S
C195 C200 1.407 . S
C196 C195 1.366 . S
C196 C197 1.392 . S
C196 H224 0.930 . S
C197 C196 1.392 . S
C197 C198 1.398 . S
C197 H225 0.929 . S
C198 C197 1.398 . S
C198 C199 1.352 . S
C199 C198 1.352 . S
C199 C200 1.384 . S
C199 H226 0.930 . S
C200 C195 1.407 . S
C200 C199 1.384 . S
C200 H227 0.929 . S
C201 O214 1.241 . S
C201 O215 1.273 . S
C202 O216 1.251 1_556 S
C202 O217 1.268 . S
C203 Nd193 2.836 . S
C203 C204 1.498 . S
C203 O218 1.258 . S
C203 O219 1.239 . S
C204 C203 1.498 . S
C204 C205 1.366 . S
C204 C209 1.407 . S
C205 C204 1.366 . S
C205 C206 1.392 . S
C205 H228 0.930 . S
C206 C205 1.392 . S
C206 C207 1.398 . S
C206 H229 0.929 . S
C207 C206 1.398 . S
C207 C208 1.352 . S
C208 C207 1.352 . S
C208 C209 1.384 . S
C208 H230 0.930 . S
C209 C204 1.407 . S
C209 C208 1.384 . S
C209 H231 0.929 . S
C210 O220 1.241 . S
C210 O221 1.273 . S
C211 O222 1.251 1_554 S
C211 O223 1.268 . S
O212 Nd192 2.500 . S
O212 C194 1.258 . S
O213 Nd192 2.492 . S
O213 C194 1.239 . S
O214 Nd192 2.487 1_455 S
O214 C201 1.241 . S
O215 Nd192 2.682 1_455 S
O215 Nd193 2.414 1_554 S
O215 C201 1.273 . S
O216 Nd192 2.410 . S
O216 C202 1.251 1_554 S
O217 Nd193 2.424 1_655 S
O217 C202 1.268 . S
O218 Nd193 2.500 . S
O218 C203 1.258 . S
O219 Nd193 2.492 . S
O219 C203 1.239 . S
O220 Nd193 2.487 1_655 S
O220 C210 1.241 . S
O221 Nd192 2.414 1_556 S
O221 Nd193 2.682 1_655 S
O221 C210 1.273 . S
O222 Nd193 2.410 . S
O222 C211 1.251 1_556 S
O223 Nd192 2.424 1_455 S
O223 C211 1.268 . S
H224 C196 0.930 . S
H225 C197 0.929 . S
H226 C199 0.930 . S
H227 C200 0.929 . S
H228 C205 0.930 . S
H229 C206 0.929 . S
H230 C208 0.930 . S
H231 C209 0.929 . S
H232 C240 0.929 . S
H233 C242 0.930 . S
H234 C244 0.930 . S
H235 C247 0.929 . S
H236 C250 0.930 . S
H237 C252 0.960 . S
H238 C252 0.960 . S
H239 C252 0.960 . S
C240 H232 0.929 . S
C240 C241 1.377 . S
C240 C242 1.384 . S
C241 C240 1.377 . S
C241 C247 1.390 . S
C242 H233 0.930 . S
C242 C240 1.384 . S
C242 C243 1.372 . S
C243 C242 1.372 . S
C243 C244 1.400 . S
C243 C248 1.490 . S
C244 H234 0.930 . S
C244 C243 1.400 . S
C244 C247 1.386 . S
H245 C261 0.930 . S
H246 C262 0.931 . S
C247 H235 0.929 . S
C247 C241 1.390 . S
C247 C244 1.386 . S
C248 C243 1.490 . S
C248 C250 1.395 . S
C248 C251 1.403 . S
H249 C255 0.930 . S
C250 H236 0.930 . S
C250 C248 1.395 . S
C250 C253 1.403 . S
C251 C248 1.403 . S
C251 C252 1.524 . S
C251 C255 1.400 . S
C252 H237 0.960 . S
C252 H238 0.960 . S
C252 H239 0.960 . S
C252 C251 1.524 . S
C253 C250 1.403 . S
C253 C254 1.392 . S
C253 C257 1.495 . S
C254 C253 1.392 . S
C254 C255 1.385 . S
C254 C256 1.478 . S
C255 H249 0.930 . S
C255 C251 1.400 . S
C255 C254 1.385 . S
C256 C254 1.478 . S
C256 C258 1.381 . S
C256 C262 1.383 . S
C257 C253 1.495 . S
C257 H263 0.959 . S
C257 H264 0.961 . S
C257 H265 0.960 . S
C258 C256 1.381 . S
C258 C259 1.394 . S
C258 H266 0.930 . S
C259 C258 1.394 . S
C259 C260 1.383 . S
C259 H267 0.961 . S
C260 C259 1.383 . S
C260 C261 1.377 . S
C261 H245 0.930 . S
C261 C260 1.377 . S
C261 C262 1.379 . S
C262 H246 0.931 . S
C262 C256 1.383 . S
C262 C261 1.379 . S
H263 C257 0.959 . S
H264 C257 0.961 . S
H265 C257 0.960 . S
H266 C258 0.930 . S
H267 C259 0.961 . S
H268 C276 0.929 . S
H269 C278 0.930 . S
H270 C280 0.930 . S
H271 C283 0.929 . S
H272 C286 0.930 . S
H273 C288 0.960 . S
H274 C288 0.960 . S
H275 C288 0.960 . S
C276 H268 0.929 . S
C276 C277 1.377 . S
C276 C278 1.384 . S
C277 C276 1.377 . S
C277 C283 1.390 . S
C278 H269 0.930 . S
C278 C276 1.384 . S
C278 C279 1.372 . S
C279 C278 1.372 . S
C279 C280 1.400 . S
C279 C284 1.490 . S
C280 H270 0.930 . S
C280 C279 1.400 . S
C280 C283 1.386 . S
H281 C297 0.930 . S
H282 C298 0.931 . S
C283 H271 0.929 . S
C283 C277 1.390 . S
C283 C280 1.386 . S
C284 C279 1.490 . S
C284 C286 1.395 . S
C284 C287 1.403 . S
H285 C291 0.930 . S
C286 H272 0.930 . S
C286 C284 1.395 . S
C286 C289 1.403 . S
C287 C284 1.403 . S
C287 C288 1.524 . S
C287 C291 1.400 . S
C288 H273 0.960 . S
C288 H274 0.960 . S
C288 H275 0.960 . S
C288 C287 1.524 . S
C289 C286 1.403 . S
C289 C290 1.392 . S
C289 C293 1.495 . S
C290 C289 1.392 . S
C290 C291 1.385 . S
C290 C292 1.478 . S
C291 H285 0.930 . S
C291 C287 1.400 . S
C291 C290 1.385 . S
C292 C290 1.478 . S
C292 C294 1.381 . S
C292 C298 1.383 . S
C293 C289 1.495 . S
C293 H299 0.959 . S
C293 H300 0.961 . S
C293 H301 0.960 . S
C294 C292 1.381 . S
C294 C295 1.394 . S
C294 H302 0.930 . S
C295 C294 1.394 . S
C295 C296 1.383 . S
C295 H303 0.929 . S
C296 C295 1.383 . S
C296 C297 1.377 . S
C297 H281 0.930 . S
C297 C296 1.377 . S
C297 C298 1.379 . S
C298 H282 0.931 . S
C298 C292 1.383 . S
C298 C297 1.379 . S
H299 C293 0.959 . S
H300 C293 0.961 . S
H301 C293 0.960 . S
H302 C294 0.930 . S
H303 C295 0.929 . S
H304 C312 0.929 . S
H305 C314 0.930 . S
H306 C316 0.930 . S
H307 C319 0.929 . S
H308 C322 0.930 . S
H309 C324 0.960 . S
H310 C324 0.960 . S
H311 C324 0.960 . S
C312 H304 0.929 . S
C312 C313 1.377 . S
C312 C314 1.384 . S
C313 C312 1.377 . S
C313 C319 1.390 . S
C314 H305 0.930 . S
C314 C312 1.384 . S
C314 C315 1.372 . S
C315 C314 1.372 . S
C315 C316 1.400 . S
C315 C320 1.490 . S
C316 H306 0.930 . S
C316 C315 1.400 . S
C316 C319 1.386 . S
H317 C333 0.930 . S
H318 C334 0.931 . S
C319 H307 0.929 . S
C319 C313 1.390 . S
C319 C316 1.386 . S
C320 C315 1.490 . S
C320 C322 1.395 . S
C320 C323 1.403 . S
H321 C327 0.930 . S
C322 H308 0.930 . S
C322 C320 1.395 . S
C322 C325 1.403 . S
C323 C320 1.403 . S
C323 C324 1.524 . S
C323 C327 1.400 . S
C324 H309 0.960 . S
C324 H310 0.960 . S
C324 H311 0.960 . S
C324 C323 1.524 . S
C325 C322 1.403 . S
C325 C326 1.392 . S
C325 C329 1.495 . S
C326 C325 1.392 . S
C326 C327 1.385 . S
C326 C328 1.478 . S
C327 H321 0.930 . S
C327 C323 1.400 . S
C327 C326 1.385 . S
C328 C326 1.478 . S
C328 C330 1.381 . S
C328 C334 1.383 . S
C329 C325 1.495 . S
C329 H335 0.959 . S
C329 H336 0.961 . S
C329 H337 0.960 . S
C330 C328 1.381 . S
C330 C331 1.394 . S
C330 H338 0.930 . S
C331 C330 1.394 . S
C331 C332 1.383 . S
C331 H339 0.929 . S
C332 C331 1.383 . S
C332 C333 1.377 . S
C333 H317 0.930 . S
C333 C332 1.377 . S
C333 C334 1.379 . S
C334 H318 0.931 . S
C334 C328 1.383 . S
C334 C333 1.379 . S
H335 C329 0.959 . S
H336 C329 0.961 . S
H337 C329 0.960 . S
H338 C330 0.930 . S
H339 C331 0.929 . S
H340 C348 0.929 . S
H341 C350 0.930 . S
H342 C352 0.930 . S
H343 C355 0.929 . S
H344 C358 0.930 . S
H345 C360 0.960 . S
H346 C360 0.960 . S
H347 C360 0.960 . S
C348 H340 0.929 . S
C348 C349 1.377 . S
C348 C350 1.384 . S
C349 C348 1.377 . S
C349 C355 1.390 . S
C350 H341 0.930 . S
C350 C348 1.384 . S
C350 C351 1.372 . S
C351 C350 1.372 . S
C351 C352 1.400 . S
C351 C356 1.490 . S
C352 H342 0.930 . S
C352 C351 1.400 . S
C352 C355 1.386 . S
H353 C369 0.930 . S
H354 C370 0.931 . S
C355 H343 0.929 . S
C355 C349 1.390 . S
C355 C352 1.386 . S
C356 C351 1.490 . S
C356 C358 1.395 . S
C356 C359 1.403 . S
H357 C363 0.930 . S
C358 H344 0.930 . S
C358 C356 1.395 . S
C358 C361 1.403 . S
C359 C356 1.403 . S
C359 C360 1.524 . S
C359 C363 1.400 . S
C360 H345 0.960 . S
C360 H346 0.960 . S
C360 H347 0.960 . S
C360 C359 1.524 . S
C361 C358 1.403 . S
C361 C362 1.392 . S
C361 C365 1.495 . S
C362 C361 1.392 . S
C362 C363 1.385 . S
C362 C364 1.478 . S
C363 H357 0.930 . S
C363 C359 1.400 . S
C363 C362 1.385 . S
C364 C362 1.478 . S
C364 C366 1.381 . S
C364 C370 1.383 . S
C365 C361 1.495 . S
C365 H371 0.959 . S
C365 H372 0.961 . S
C365 H373 0.960 . S
C366 C364 1.381 . S
C366 C367 1.394 . S
C366 H374 0.930 . S
C367 C366 1.394 . S
C367 C368 1.383 . S
C367 H375 0.929 . S
C368 C367 1.383 . S
C368 C369 1.377 . S
C369 H353 0.930 . S
C369 C368 1.377 . S
C369 C370 1.379 . S
C370 H354 0.931 . S
C370 C364 1.383 . S
C370 C369 1.379 . S
H371 C365 0.959 . S
H372 C365 0.961 . S
H373 C365 0.960 . S
H374 C366 0.930 . S
H375 C367 0.929 . S
H376 C384 0.929 . S
H377 C386 0.930 . S
H378 C388 0.930 . S
H379 C391 0.929 . S
H380 C394 0.930 . S
H381 C396 0.960 . S
H382 C396 0.960 . S
H383 C396 0.960 . S
C384 H376 0.929 . S
C384 C385 1.377 . S
C384 C386 1.384 . S
C385 C384 1.377 . S
C385 C391 1.390 . S
C386 H377 0.930 . S
C386 C384 1.384 . S
C386 C387 1.372 . S
C387 C386 1.372 . S
C387 C388 1.400 . S
C387 C392 1.490 . S
C388 H378 0.930 . S
C388 C387 1.400 . S
C388 C391 1.386 . S
H389 C405 0.930 . S
H390 C406 0.931 . S
C391 H379 0.929 . S
C391 C385 1.390 . S
C391 C388 1.386 . S
C392 C387 1.490 . S
C392 C394 1.395 . S
C392 C395 1.403 . S
H393 C399 0.930 . S
C394 H380 0.930 . S
C394 C392 1.395 . S
C394 C397 1.403 . S
C395 C392 1.403 . S
C395 C396 1.524 . S
C395 C399 1.400 . S
C396 H381 0.960 . S
C396 H382 0.960 . S
C396 H383 0.960 . S
C396 C395 1.524 . S
C397 C394 1.403 . S
C397 C398 1.392 . S
C397 C401 1.495 . S
C398 C397 1.392 . S
C398 C399 1.385 . S
C398 C400 1.478 . S
C399 H393 0.930 . S
C399 C395 1.400 . S
C399 C398 1.385 . S
C400 C398 1.478 . S
C400 C402 1.381 . S
C400 C406 1.383 . S
C401 C397 1.495 . S
C401 H407 0.959 . S
C401 H408 0.961 . S
C401 H409 0.960 . S
C402 C400 1.381 . S
C402 C403 1.394 . S
C402 H410 0.930 . S
C403 C402 1.394 . S
C403 C404 1.383 . S
C403 H411 0.929 1_554 S
C404 C403 1.383 . S
C404 C405 1.377 . S
C405 H389 0.930 . S
C405 C404 1.377 . S
C405 C406 1.379 . S
C406 H390 0.931 . S
C406 C400 1.383 . S
C406 C405 1.379 . S
H407 C401 0.959 . S
H408 C401 0.961 . S
H409 C401 0.960 . S
H410 C402 0.930 . S
H411 C403 0.929 1_556 S
H412 C420 0.929 . S
H413 C422 0.930 . S
H414 C424 0.930 . S
H415 C427 0.929 . S
H416 C430 0.930 . S
H417 C432 0.960 . S
H418 C432 0.960 . S
H419 C432 0.960 . S
C420 H412 0.929 . S
C420 C421 1.377 . S
C420 C422 1.384 . S
C421 C420 1.377 . S
C421 C427 1.390 . S
C422 H413 0.930 . S
C422 C420 1.384 . S
C422 C423 1.372 . S
C423 C422 1.372 . S
C423 C424 1.400 . S
C423 C428 1.490 . S
C424 H414 0.930 . S
C424 C423 1.400 . S
C424 C427 1.386 . S
H425 C441 0.930 . S
H426 C442 0.931 . S
C427 H415 0.929 . S
C427 C421 1.390 . S
C427 C424 1.386 . S
C428 C423 1.490 . S
C428 C430 1.395 . S
C428 C431 1.403 . S
H429 C435 0.930 . S
C430 H416 0.930 . S
C430 C428 1.395 . S
C430 C433 1.403 . S
C431 C428 1.403 . S
C431 C432 1.524 . S
C431 C435 1.400 . S
C432 H417 0.960 . S
C432 H418 0.960 . S
C432 H419 0.960 . S
C432 C431 1.524 . S
C433 C430 1.403 . S
C433 C434 1.392 . S
C433 C437 1.495 . S
C434 C433 1.392 . S
C434 C435 1.385 . S
C434 C436 1.478 . S
C435 H429 0.930 . S
C435 C431 1.400 . S
C435 C434 1.385 . S
C436 C434 1.478 . S
C436 C438 1.381 . S
C436 C442 1.383 . S
C437 C433 1.495 . S
C437 H443 0.959 . S
C437 H444 0.961 . S
C437 H445 0.960 . S
C438 C436 1.381 . S
C438 C439 1.394 . S
C438 H446 0.930 . S
C439 C438 1.394 . S
C439 C440 1.383 . S
C439 H447 0.929 . S
C440 C439 1.383 . S
C440 C441 1.377 . S
C441 H425 0.930 . S
C441 C440 1.377 . S
C441 C442 1.379 . S
C442 H426 0.931 . S
C442 C436 1.383 . S
C442 C441 1.379 . S
H443 C437 0.959 . S
H444 C437 0.961 . S
H445 C437 0.960 . S
H446 C438 0.930 . S
H447 C439 0.929 . S
H448 C456 0.929 . S
H449 C458 0.930 . S
H450 C460 0.930 . S
H451 C463 0.929 . S
H452 C466 0.930 . S
H453 C468 0.960 . S
H454 C468 0.960 . S
H455 C468 0.960 . S
C456 H448 0.929 . S
C456 C457 1.377 . S
C456 C458 1.384 . S
C457 C456 1.377 . S
C457 C463 1.390 . S
C458 H449 0.930 . S
C458 C456 1.384 . S
C458 C459 1.372 . S
C459 C458 1.372 . S
C459 C460 1.400 . S
C459 C464 1.490 . S
C460 H450 0.930 . S
C460 C459 1.400 . S
C460 C463 1.386 . S
H461 C477 0.930 . S
H462 C478 0.931 . S
C463 H451 0.929 . S
C463 C457 1.390 . S
C463 C460 1.386 . S
C464 C459 1.490 . S
C464 C466 1.395 . S
C464 C467 1.403 . S
H465 C471 0.930 . S
C466 H452 0.930 . S
C466 C464 1.395 . S
C466 C469 1.403 . S
C467 C464 1.403 . S
C467 C468 1.524 . S
C467 C471 1.400 . S
C468 H453 0.960 . S
C468 H454 0.960 . S
C468 H455 0.960 . S
C468 C467 1.524 . S
C469 C466 1.403 . S
C469 C470 1.392 . S
C469 C473 1.495 . S
C470 C469 1.392 . S
C470 C471 1.385 . S
C470 C472 1.478 . S
C471 H465 0.930 . S
C471 C467 1.400 . S
C471 C470 1.385 . S
C472 C470 1.478 . S
C472 C474 1.381 . S
C472 C478 1.383 . S
C473 C469 1.495 . S
C473 H479 0.959 . S
C473 H480 0.961 . S
C473 H481 0.960 . S
C474 C472 1.381 . S
C474 C475 1.394 . S
C474 H482 0.930 . S
C475 C474 1.394 . S
C475 C476 1.383 . S
C475 H483 0.929 . S
C476 C475 1.383 . S
C476 C477 1.377 . S
C477 H461 0.930 . S
C477 C476 1.377 . S
C477 C478 1.379 . S
C478 H462 0.931 . S
C478 C472 1.383 . S
C478 C477 1.379 . S
H479 C473 0.959 . S
H480 C473 0.961 . S
H481 C473 0.960 . S
H482 C474 0.930 . S
H483 C475 0.929 . S
H484 C492 0.929 . S
H485 C494 0.930 . S
H486 C496 0.930 . S
H487 C499 0.929 . S
H488 C502 0.930 . S
H489 C504 0.960 . S
H490 C504 0.960 . S
H491 C504 0.960 . S
C492 H484 0.929 . S
C492 C493 1.377 . S
C492 C494 1.384 . S
C493 C492 1.377 . S
C493 C499 1.390 . S
C494 H485 0.930 . S
C494 C492 1.384 . S
C494 C495 1.372 . S
C495 C494 1.372 . S
C495 C496 1.400 . S
C495 C500 1.490 . S
C496 H486 0.930 . S
C496 C495 1.400 . S
C496 C499 1.386 . S
H497 C513 0.930 . S
H498 C514 0.931 . S
C499 H487 0.929 . S
C499 C493 1.390 . S
C499 C496 1.386 . S
C500 C495 1.490 . S
C500 C502 1.395 . S
C500 C503 1.403 . S
H501 C507 0.930 . S
C502 H488 0.930 . S
C502 C500 1.395 . S
C502 C505 1.403 . S
C503 C500 1.403 . S
C503 C504 1.524 . S
C503 C507 1.400 . S
C504 H489 0.960 . S
C504 H490 0.960 . S
C504 H491 0.960 . S
C504 C503 1.524 . S
C505 C502 1.403 . S
C505 C506 1.392 . S
C505 C509 1.495 . S
C506 C505 1.392 . S
C506 C507 1.385 . S
C506 C508 1.478 . S
C507 H501 0.930 . S
C507 C503 1.400 . S
C507 C506 1.385 . S
C508 C506 1.478 . S
C508 C510 1.381 . S
C508 C514 1.383 . S
C509 C505 1.495 . S
C509 H515 0.959 . S
C509 H516 0.961 . S
C509 H517 0.960 . S
C510 C508 1.381 . S
C510 C511 1.394 . S
C510 H518 0.930 . S
C511 C510 1.394 . S
C511 C512 1.383 . S
C511 H519 0.929 . S
C512 C511 1.383 . S
C512 C513 1.377 . S
C513 H497 0.930 . S
C513 C512 1.377 . S
C513 C514 1.379 . S
C514 H498 0.931 . S
C514 C508 1.383 . S
C514 C513 1.379 . S
H515 C509 0.959 . S
H516 C509 0.961 . S
H517 C509 0.960 . S
H518 C510 0.930 . S
H519 C511 0.929 . S
H520 C528 0.929 . S
H521 C530 0.930 . S
H522 C532 0.930 . S
H523 C535 0.929 . S
H524 C538 0.930 . S
H525 C540 0.960 . S
H526 C540 0.960 . S
H527 C540 0.960 . S
C528 H520 0.929 . S
C528 C529 1.377 . S
C528 C530 1.384 . S
C529 C528 1.377 . S
C529 C535 1.390 . S
C530 H521 0.930 . S
C530 C528 1.384 . S
C530 C531 1.372 . S
C531 C530 1.372 . S
C531 C532 1.400 . S
C531 C536 1.490 . S
C532 H522 0.930 . S
C532 C531 1.400 . S
C532 C535 1.386 . S
H533 C549 0.930 1_556 S
H534 C550 0.931 . S
C535 H523 0.929 . S
C535 C529 1.390 . S
C535 C532 1.386 . S
C536 C531 1.490 . S
C536 C538 1.395 . S
C536 C539 1.403 . S
H537 C543 0.930 . S
C538 H524 0.930 . S
C538 C536 1.395 . S
C538 C541 1.403 . S
C539 C536 1.403 . S
C539 C540 1.524 . S
C539 C543 1.400 . S
C540 H525 0.960 . S
C540 H526 0.960 . S
C540 H527 0.960 . S
C540 C539 1.524 . S
C541 C538 1.403 . S
C541 C542 1.392 . S
C541 C545 1.495 . S
C542 C541 1.392 . S
C542 C543 1.385 . S
C542 C544 1.478 . S
C543 H537 0.930 . S
C543 C539 1.400 . S
C543 C542 1.385 . S
C544 C542 1.478 . S
C544 C546 1.381 . S
C544 C550 1.383 . S
C545 C541 1.495 . S
C545 H551 0.959 . S
C545 H552 0.961 . S
C545 H553 0.960 . S
C546 C544 1.381 . S
C546 C547 1.394 . S
C546 H554 0.930 . S
C547 C546 1.394 . S
C547 C548 1.383 . S
C547 H555 0.929 . S
C548 C547 1.383 . S
C548 C549 1.377 . S
C549 H533 0.930 1_554 S
C549 C548 1.377 . S
C549 C550 1.379 . S
C550 H534 0.931 . S
C550 C544 1.383 . S
C550 C549 1.379 . S
H551 C545 0.959 . S
H552 C545 0.961 . S
H553 C545 0.960 . S
H554 C546 0.930 . S
H555 C547 0.929 . S
H556 C564 0.929 . S
H557 C566 0.930 . S
H558 C568 0.930 . S
H559 C571 0.929 . S
H560 C574 0.930 . S
H561 C576 0.960 . S
H562 C576 0.960 . S
H563 C576 0.960 . S
C564 H556 0.929 . S
C564 C565 1.377 . S
C564 C566 1.384 . S
C565 C564 1.377 . S
C565 C571 1.390 . S
C566 H557 0.930 . S
C566 C564 1.384 . S
C566 C567 1.372 . S
C567 C566 1.372 . S
C567 C568 1.400 . S
C567 C572 1.490 . S
C568 H558 0.930 . S
C568 C567 1.400 . S
C568 C571 1.386 . S
H569 C585 0.930 . S
H570 C586 0.931 . S
C571 H559 0.929 . S
C571 C565 1.390 . S
C571 C568 1.386 . S
C572 C567 1.490 . S
C572 C574 1.395 . S
C572 C575 1.403 . S
H573 C579 0.930 . S
C574 H560 0.930 . S
C574 C572 1.395 . S
C574 C577 1.403 . S
C575 C572 1.403 . S
C575 C576 1.524 . S
C575 C579 1.400 . S
C576 H561 0.960 . S
C576 H562 0.960 . S
C576 H563 0.960 . S
C576 C575 1.524 . S
C577 C574 1.403 . S
C577 C578 1.392 . S
C577 C581 1.495 . S
C578 C577 1.392 . S
C578 C579 1.385 . S
C578 C580 1.478 . S
C579 H573 0.930 . S
C579 C575 1.400 . S
C579 C578 1.385 . S
C580 C578 1.478 . S
C580 C582 1.381 . S
C580 C586 1.383 . S
C581 C577 1.495 . S
C581 H587 0.959 . S
C581 H588 0.961 . S
C581 H589 0.960 . S
C582 C580 1.381 . S
C582 C583 1.394 . S
C582 H590 0.930 . S
C583 C582 1.394 . S
C583 C584 1.383 . S
C583 H591 0.929 . S
C584 C583 1.383 . S
C584 C585 1.377 . S
C585 H569 0.930 . S
C585 C584 1.377 . S
C585 C586 1.379 . S
C586 H570 0.931 . S
C586 C580 1.383 . S
C586 C585 1.379 . S
H587 C581 0.959 . S
H588 C581 0.961 . S
H589 C581 0.960 . S
H590 C582 0.930 . S
H591 C583 0.929 . S
H592 C600 0.929 . S
H593 C602 0.930 . S
H594 C604 0.930 . S
H595 C607 0.929 . S
H596 C610 0.930 . S
H597 C612 0.960 . S
H598 C612 0.960 . S
H599 C612 0.960 . S
C600 H592 0.929 . S
C600 C601 1.377 . S
C600 C602 1.384 . S
C601 C600 1.377 . S
C601 C607 1.390 . S
C602 H593 0.930 . S
C602 C600 1.384 . S
C602 C603 1.372 . S
C603 C602 1.372 . S
C603 C604 1.400 . S
C603 C608 1.490 . S
C604 H594 0.930 . S
C604 C603 1.400 . S
C604 C607 1.386 . S
H605 C621 0.930 . S
H606 C622 0.931 . S
C607 H595 0.929 . S
C607 C601 1.390 . S
C607 C604 1.386 . S
C608 C603 1.490 . S
C608 C610 1.395 . S
C608 C611 1.403 . S
H609 C615 0.930 . S
C610 H596 0.930 . S
C610 C608 1.395 . S
C610 C613 1.403 . S
C611 C608 1.403 . S
C611 C612 1.524 . S
C611 C615 1.400 . S
C612 H597 0.960 . S
C612 H598 0.960 . S
C612 H599 0.960 . S
C612 C611 1.524 . S
C613 C610 1.403 . S
C613 C614 1.392 . S
C613 C617 1.495 . S
C614 C613 1.392 . S
C614 C615 1.385 . S
C614 C616 1.478 . S
C615 H609 0.930 . S
C615 C611 1.400 . S
C615 C614 1.385 . S
C616 C614 1.478 . S
C616 C618 1.381 . S
C616 C622 1.383 . S
C617 C613 1.495 . S
C617 H623 0.959 . S
C617 H624 0.961 . S
C617 H625 0.960 . S
C618 C616 1.381 . S
C618 C619 1.394 . S
C618 H626 0.930 . S
C619 C618 1.394 . S
C619 C620 1.383 . S
C619 H627 0.929 1_655 S
C620 C619 1.383 . S
C620 C621 1.377 . S
C621 H605 0.930 . S
C621 C620 1.377 . S
C621 C622 1.379 . S
C622 H606 0.931 . S
C622 C616 1.383 . S
C622 C621 1.379 . S
H623 C617 0.959 . S
H624 C617 0.961 . S
H625 C617 0.960 . S
H626 C618 0.930 . S
H627 C619 0.929 1_455 S
H628 C636 0.929 . S
H629 C638 0.930 . S
H630 C640 0.930 . S
H631 C643 0.929 . S
H632 C646 0.930 . S
H633 C648 0.960 . S
H634 C648 0.960 . S
H635 C648 0.960 . S
C636 H628 0.929 . S
C636 C637 1.377 . S
C636 C638 1.384 . S
C637 C636 1.377 . S
C637 C643 1.390 . S
C638 H629 0.930 . S
C638 C636 1.384 . S
C638 C639 1.372 . S
C639 C638 1.372 . S
C639 C640 1.400 . S
C639 C644 1.490 . S
C640 H630 0.930 . S
C640 C639 1.400 . S
C640 C643 1.386 . S
H641 C657 0.930 . S
H642 C658 0.931 . S
C643 H631 0.929 . S
C643 C637 1.390 . S
C643 C640 1.386 . S
C644 C639 1.490 . S
C644 C646 1.395 . S
C644 C647 1.403 . S
H645 C651 0.930 . S
C646 H632 0.930 . S
C646 C644 1.395 . S
C646 C649 1.403 . S
C647 C644 1.403 . S
C647 C648 1.524 . S
C647 C651 1.400 . S
C648 H633 0.960 . S
C648 H634 0.960 . S
C648 H635 0.960 . S
C648 C647 1.524 . S
C649 C646 1.403 . S
C649 C650 1.392 . S
C649 C653 1.495 . S
C650 C649 1.392 . S
C650 C651 1.385 . S
C650 C652 1.478 . S
C651 H645 0.930 . S
C651 C647 1.400 . S
C651 C650 1.385 . S
C652 C650 1.478 . S
C652 C654 1.381 . S
C652 C658 1.383 . S
C653 C649 1.495 . S
C653 H659 0.959 . S
C653 H660 0.961 . S
C653 H661 0.960 . S
C654 C652 1.381 . S
C654 C655 1.394 . S
C654 H662 0.930 . S
C655 C654 1.394 . S
C655 C656 1.383 . S
C655 H663 0.929 . S
C656 C655 1.383 . S
C656 C657 1.377 . S
C657 H641 0.930 . S
C657 C656 1.377 . S
C657 C658 1.379 . S
C658 H642 0.931 . S
C658 C652 1.383 . S
C658 C657 1.379 . S
H659 C653 0.959 . S
H660 C653 0.961 . S
H661 C653 0.960 . S
H662 C654 0.930 . S
H663 C655 0.929 . S
H664 C672 0.929 . S
H665 C674 0.930 . S
H666 C676 0.930 . S
H667 C679 0.929 . S
H668 C682 0.930 . S
H669 C684 0.960 . S
H670 C684 0.960 . S
H671 C684 0.960 . S
C672 H664 0.929 . S
C672 C673 1.377 . S
C672 C674 1.384 . S
C673 C672 1.377 . S
C673 C679 1.390 . S
C674 H665 0.930 . S
C674 C672 1.384 . S
C674 C675 1.372 . S
C675 C674 1.372 . S
C675 C676 1.400 . S
C675 C680 1.490 . S
C676 H666 0.930 . S
C676 C675 1.400 . S
C676 C679 1.386 . S
H677 C693 0.930 . S
H678 C694 0.931 . S
C679 H667 0.929 . S
C679 C673 1.390 . S
C679 C676 1.386 . S
C680 C675 1.490 . S
C680 C682 1.395 . S
C680 C683 1.403 . S
H681 C687 0.930 . S
C682 H668 0.930 . S
C682 C680 1.395 . S
C682 C685 1.403 . S
C683 C680 1.403 . S
C683 C684 1.524 . S
C683 C687 1.400 . S
C684 H669 0.960 . S
C684 H670 0.960 . S
C684 H671 0.960 . S
C684 C683 1.524 . S
C685 C682 1.403 . S
C685 C686 1.392 . S
C685 C689 1.495 . S
C686 C685 1.392 . S
C686 C687 1.385 . S
C686 C688 1.478 . S
C687 H681 0.930 . S
C687 C683 1.400 . S
C687 C686 1.385 . S
C688 C686 1.478 . S
C688 C690 1.381 . S
C688 C694 1.383 . S
C689 C685 1.495 . S
C689 H695 0.959 . S
C689 H696 0.961 . S
C689 H697 0.960 . S
C690 C688 1.381 . S
C690 C691 1.394 . S
C690 H698 0.930 . S
C691 C690 1.394 . S
C691 C692 1.383 . S
C691 H699 0.929 . S
C692 C691 1.383 . S
C692 C693 1.377 . S
C693 H677 0.930 . S
C693 C692 1.377 . S
C693 C694 1.379 . S
C694 H678 0.931 . S
C694 C688 1.383 . S
C694 C693 1.379 . S
H695 C689 0.959 . S
H696 C689 0.961 . S
H697 C689 0.960 . S
H698 C690 0.930 . S
H699 C691 0.929 . S
H700 C708 0.929 . S
H701 C710 0.930 . S
H702 C712 0.930 . S
H703 C715 0.929 . S
H704 C718 0.930 . S
H705 C720 0.960 . S
H706 C720 0.960 . S
H707 C720 0.960 . S
C708 H700 0.929 . S
C708 C709 1.377 . S
C708 C710 1.384 . S
C709 C708 1.377 . S
C709 C715 1.390 . S
C710 H701 0.930 . S
C710 C708 1.384 . S
C710 C711 1.372 . S
C711 C710 1.372 . S
C711 C712 1.400 . S
C711 C716 1.490 . S
C712 H702 0.930 . S
C712 C711 1.400 . S
C712 C715 1.386 . S
H713 C729 0.930 . S
H714 C730 0.931 . S
C715 H703 0.929 . S
C715 C709 1.390 . S
C715 C712 1.386 . S
C716 C711 1.490 . S
C716 C718 1.395 . S
C716 C719 1.403 . S
H717 C723 0.930 . S
C718 H704 0.930 . S
C718 C716 1.395 . S
C718 C721 1.403 . S
C719 C716 1.403 . S
C719 C720 1.524 . S
C719 C723 1.400 . S
C720 H705 0.960 . S
C720 H706 0.960 . S
C720 H707 0.960 . S
C720 C719 1.524 . S
C721 C718 1.403 . S
C721 C722 1.392 . S
C721 C725 1.495 . S
C722 C721 1.392 . S
C722 C723 1.385 . S
C722 C724 1.478 . S
C723 H717 0.930 . S
C723 C719 1.400 . S
C723 C722 1.385 . S
C724 C722 1.478 . S
C724 C726 1.381 . S
C724 C730 1.383 . S
C725 C721 1.495 . S
C725 H731 0.959 . S
C725 H732 0.961 . S
C725 H733 0.960 . S
C726 C724 1.381 . S
C726 C727 1.394 . S
C726 H734 0.930 . S
C727 C726 1.394 . S
C727 C728 1.383 . S
C727 H735 0.929 . S
C728 C727 1.383 . S
C728 C729 1.377 . S
C729 H713 0.930 . S
C729 C728 1.377 . S
C729 C730 1.379 . S
C730 H714 0.931 . S
C730 C724 1.383 . S
C730 C729 1.379 . S
H731 C725 0.959 . S
H732 C725 0.961 . S
H733 C725 0.960 . S
H734 C726 0.930 . S
H735 C727 0.929 . S
H736 C744 0.929 . S
H737 C746 0.930 . S
H738 C748 0.930 . S
H739 C751 0.929 . S
H740 C754 0.930 . S
H741 C756 0.960 . S
H742 C756 0.960 . S
H743 C756 0.960 . S
C744 H736 0.929 . S
C744 C745 1.377 . S
C744 C746 1.384 . S
C745 C744 1.377 . S
C745 C751 1.390 . S
C746 H737 0.930 . S
C746 C744 1.384 . S
C746 C747 1.372 . S
C747 C746 1.372 . S
C747 C748 1.400 . S
C747 C752 1.490 . S
C748 H738 0.930 . S
C748 C747 1.400 . S
C748 C751 1.386 . S
H749 C765 0.930 . S
H750 C766 0.931 . S
C751 H739 0.929 . S
C751 C745 1.390 . S
C751 C748 1.386 . S
C752 C747 1.490 . S
C752 C754 1.395 . S
C752 C755 1.403 . S
H753 C759 0.930 . S
C754 H740 0.930 . S
C754 C752 1.395 . S
C754 C757 1.403 . S
C755 C752 1.403 . S
C755 C756 1.524 . S
C755 C759 1.400 . S
C756 H741 0.960 . S
C756 H742 0.960 . S
C756 H743 0.960 . S
C756 C755 1.524 . S
C757 C754 1.403 . S
C757 C758 1.392 . S
C757 C761 1.495 . S
C758 C757 1.392 . S
C758 C759 1.385 . S
C758 C760 1.478 . S
C759 H753 0.930 . S
C759 C755 1.400 . S
C759 C758 1.385 . S
C760 C758 1.478 . S
C760 C762 1.381 . S
C760 C766 1.383 . S
C761 C757 1.495 . S
C761 H767 0.959 . S
C761 H768 0.961 . S
C761 H769 0.960 . S
C762 C760 1.381 . S
C762 C763 1.394 . S
C762 H770 0.930 . S
C763 C762 1.394 . S
C763 C764 1.383 . S
C763 H771 0.929 . S
C764 C763 1.383 . S
C764 C765 1.377 . S
C765 H749 0.930 . S
C765 C764 1.377 . S
C765 C766 1.379 . S
C766 H750 0.931 . S
C766 C760 1.383 . S
C766 C765 1.379 . S
H767 C761 0.959 . S
H768 C761 0.961 . S
H769 C761 0.960 . S
H770 C762 0.930 . S
H771 C763 0.929 . S
H772 C780 0.929 . S
H773 C782 0.930 . S
H774 C784 0.930 . S
H775 C787 0.929 . S
H776 C790 0.930 . S
H777 C792 0.960 . S
H778 C792 0.960 . S
H779 C792 0.960 . S
C780 H772 0.929 . S
C780 C781 1.377 . S
C780 C782 1.384 . S
C781 C780 1.377 . S
C781 C787 1.390 . S
C782 H773 0.930 . S
C782 C780 1.384 . S
C782 C783 1.372 . S
C783 C782 1.372 . S
C783 C784 1.400 . S
C783 C788 1.490 . S
C784 H774 0.930 . S
C784 C783 1.400 . S
C784 C787 1.386 . S
H785 C801 0.930 . S
H786 C802 0.931 . S
C787 H775 0.929 . S
C787 C781 1.390 . S
C787 C784 1.386 . S
C788 C783 1.490 . S
C788 C790 1.395 . S
C788 C791 1.403 . S
H789 C795 0.930 . S
C790 H776 0.930 . S
C790 C788 1.395 . S
C790 C793 1.403 . S
C791 C788 1.403 . S
C791 C792 1.524 . S
C791 C795 1.400 . S
C792 H777 0.960 . S
C792 H778 0.960 . S
C792 H779 0.960 . S
C792 C791 1.524 . S
C793 C790 1.403 . S
C793 C794 1.392 . S
C793 C797 1.495 . S
C794 C793 1.392 . S
C794 C795 1.385 . S
C794 C796 1.478 . S
C795 H789 0.930 . S
C795 C791 1.400 . S
C795 C794 1.385 . S
C796 C794 1.478 . S
C796 C798 1.381 . S
C796 C802 1.383 . S
C797 C793 1.495 . S
C797 H803 0.959 . S
C797 H804 0.961 . S
C797 H805 0.960 . S
C798 C796 1.381 . S
C798 C799 1.394 . S
C798 H806 0.930 . S
C799 C798 1.394 . S
C799 C800 1.383 . S
C799 H807 0.929 . S
C800 C799 1.383 . S
C800 C801 1.377 . S
C801 H785 0.930 . S
C801 C800 1.377 . S
C801 C802 1.379 . S
C802 H786 0.931 . S
C802 C796 1.383 . S
C802 C801 1.379 . S
H803 C797 0.959 . S
H804 C797 0.961 . S
H805 C797 0.960 . S
H806 C798 0.930 . S
H807 C799 0.929 . S
H808 C816 0.929 . S
H809 C818 0.930 . S
H810 C820 0.930 . S
H811 C823 0.929 . S
H812 C826 0.930 . S
H813 C828 0.960 . S
H814 C828 0.960 . S
H815 C828 0.960 . S
C816 H808 0.929 . S
C816 C817 1.377 . S
C816 C818 1.384 . S
C817 C816 1.377 . S
C817 C823 1.390 . S
C818 H809 0.930 . S
C818 C816 1.384 . S
C818 C819 1.372 . S
C819 C818 1.372 . S
C819 C820 1.400 . S
C819 C824 1.490 . S
C820 H810 0.930 . S
C820 C819 1.400 . S
C820 C823 1.386 . S
H821 C837 0.930 . S
H822 C838 0.931 . S
C823 H811 0.929 . S
C823 C817 1.390 . S
C823 C820 1.386 . S
C824 C819 1.490 . S
C824 C826 1.395 . S
C824 C827 1.403 . S
H825 C831 0.930 . S
C826 H812 0.930 . S
C826 C824 1.395 . S
C826 C829 1.403 . S
C827 C824 1.403 . S
C827 C828 1.524 . S
C827 C831 1.400 . S
C828 H813 0.960 . S
C828 H814 0.960 . S
C828 H815 0.960 . S
C828 C827 1.524 . S
C829 C826 1.403 . S
C829 C830 1.392 . S
C829 C833 1.495 . S
C830 C829 1.392 . S
C830 C831 1.385 . S
C830 C832 1.478 . S
C831 H825 0.930 . S
C831 C827 1.400 . S
C831 C830 1.385 . S
C832 C830 1.478 . S
C832 C834 1.381 . S
C832 C838 1.383 . S
C833 C829 1.495 . S
C833 H839 0.959 . S
C833 H840 0.961 . S
C833 H841 0.960 . S
C834 C832 1.381 . S
C834 C835 1.394 . S
C834 H842 0.930 1_556 S
C835 C834 1.394 . S
C835 C836 1.383 . S
C835 H843 0.929 1_556 S
C836 C835 1.383 . S
C836 C837 1.377 . S
C837 H821 0.930 . S
C837 C836 1.377 . S
C837 C838 1.379 . S
C838 H822 0.931 . S
C838 C832 1.383 . S
C838 C837 1.379 . S
H839 C833 0.959 . S
H840 C833 0.961 . S
H841 C833 0.960 . S
H842 C834 0.930 1_554 S
H843 C835 0.929 1_554 S
H844 C852 0.929 . S
H845 C854 0.930 . S
H846 C856 0.930 . S
H847 C859 0.929 . S
H848 C862 0.930 . S
H849 C864 0.960 . S
H850 C864 0.960 . S
H851 C864 0.960 . S
C852 H844 0.929 . S
C852 C853 1.377 . S
C852 C854 1.384 . S
C853 C852 1.377 . S
C853 C859 1.390 . S
C854 H845 0.930 . S
C854 C852 1.384 . S
C854 C855 1.372 . S
C855 C854 1.372 . S
C855 C856 1.400 . S
C855 C860 1.490 . S
C856 H846 0.930 . S
C856 C855 1.400 . S
C856 C859 1.386 . S
H857 C873 0.930 . S
H858 C874 0.931 . S
C859 H847 0.929 . S
C859 C853 1.390 . S
C859 C856 1.386 . S
C860 C855 1.490 . S
C860 C862 1.395 . S
C860 C863 1.403 . S
H861 C867 0.930 . S
C862 H848 0.930 . S
C862 C860 1.395 . S
C862 C865 1.403 . S
C863 C860 1.403 . S
C863 C864 1.524 . S
C863 C867 1.400 . S
C864 H849 0.960 . S
C864 H850 0.960 . S
C864 H851 0.960 . S
C864 C863 1.524 . S
C865 C862 1.403 . S
C865 C866 1.392 . S
C865 C869 1.495 . S
C866 C865 1.392 . S
C866 C867 1.385 . S
C866 C868 1.478 . S
C867 H861 0.930 . S
C867 C863 1.400 . S
C867 C866 1.385 . S
C868 C866 1.478 . S
C868 C870 1.381 . S
C868 C874 1.383 . S
C869 C865 1.495 . S
C869 H875 0.959 . S
C869 H876 0.961 . S
C869 H877 0.960 . S
C870 C868 1.381 . S
C870 C871 1.394 . S
C870 H878 0.930 . S
C871 C870 1.394 . S
C871 C872 1.383 . S
C871 H879 0.929 . S
C872 C871 1.383 . S
C872 C873 1.377 . S
C873 H857 0.930 . S
C873 C872 1.377 . S
C873 C874 1.379 . S
C874 H858 0.931 . S
C874 C868 1.383 . S
C874 C873 1.379 . S
H875 C869 0.959 . S
H876 C869 0.961 . S
H877 C869 0.960 . S
H878 C870 0.930 . S
H879 C871 0.929 . S
H880 C888 0.929 . S
H881 C890 0.930 . S
H882 C892 0.930 . S
H883 C895 0.929 . S
H884 C898 0.930 . S
H885 C900 0.960 . S
H886 C900 0.960 . S
H887 C900 0.960 . S
C888 H880 0.929 . S
C888 C889 1.377 . S
C888 C890 1.384 . S
C889 C888 1.377 . S
C889 C895 1.390 . S
C890 H881 0.930 . S
C890 C888 1.384 . S
C890 C891 1.372 . S
C891 C890 1.372 . S
C891 C892 1.400 . S
C891 C896 1.490 . S
C892 H882 0.930 . S
C892 C891 1.400 . S
C892 C895 1.386 . S
H893 C909 0.930 . S
H894 C910 0.931 . S
C895 H883 0.929 . S
C895 C889 1.390 . S
C895 C892 1.386 . S
C896 C891 1.490 . S
C896 C898 1.395 . S
C896 C899 1.403 . S
H897 C903 0.930 . S
C898 H884 0.930 . S
C898 C896 1.395 . S
C898 C901 1.403 . S
C899 C896 1.403 . S
C899 C900 1.524 . S
C899 C903 1.400 . S
C900 H885 0.960 . S
C900 H886 0.960 . S
C900 H887 0.960 . S
C900 C899 1.524 . S
C901 C898 1.403 . S
C901 C902 1.392 . S
C901 C905 1.495 . S
C902 C901 1.392 . S
C902 C903 1.385 . S
C902 C904 1.478 . S
C903 H897 0.930 . S
C903 C899 1.400 . S
C903 C902 1.385 . S
C904 C902 1.478 . S
C904 C906 1.381 . S
C904 C910 1.383 . S
C905 C901 1.495 . S
C905 H911 0.959 . S
C905 H912 0.961 . S
C905 H913 0.960 . S
C906 C904 1.381 . S
C906 C907 1.394 . S
C906 H914 0.930 . S
C907 C906 1.394 . S
C907 C908 1.383 . S
C907 H915 0.929 . S
C908 C907 1.383 . S
C908 C909 1.377 . S
C909 H893 0.930 . S
C909 C908 1.377 . S
C909 C910 1.379 . S
C910 H894 0.931 . S
C910 C904 1.383 . S
C910 C909 1.379 . S
H911 C905 0.959 . S
H912 C905 0.961 . S
H913 C905 0.960 . S
H914 C906 0.930 . S
H915 C907 0.929 . S
H916 C924 0.929 . S
H917 C926 0.930 . S
H918 C928 0.930 . S
H919 C931 0.929 . S
H920 C934 0.930 . S
H921 C936 0.960 . S
H922 C936 0.960 . S
H923 C936 0.960 . S
C924 H916 0.929 . S
C924 C925 1.377 . S
C924 C926 1.384 . S
C925 C924 1.377 . S
C925 C931 1.390 . S
C926 H917 0.930 . S
C926 C924 1.384 . S
C926 C927 1.372 . S
C927 C926 1.372 . S
C927 C928 1.400 . S
C927 C932 1.490 . S
C928 H918 0.930 . S
C928 C927 1.400 . S
C928 C931 1.386 . S
H929 C945 0.930 . S
H930 C946 0.931 . S
C931 H919 0.929 . S
C931 C925 1.390 . S
C931 C928 1.386 . S
C932 C927 1.490 . S
C932 C934 1.395 . S
C932 C935 1.403 . S
H933 C939 0.930 . S
C934 H920 0.930 . S
C934 C932 1.395 . S
C934 C937 1.403 . S
C935 C932 1.403 . S
C935 C936 1.524 . S
C935 C939 1.400 . S
C936 H921 0.960 . S
C936 H922 0.960 . S
C936 H923 0.960 . S
C936 C935 1.524 . S
C937 C934 1.403 . S
C937 C938 1.392 . S
C937 C941 1.495 . S
C938 C937 1.392 . S
C938 C939 1.385 . S
C938 C940 1.478 . S
C939 H933 0.930 . S
C939 C935 1.400 . S
C939 C938 1.385 . S
C940 C938 1.478 . S
C940 C942 1.381 . S
C940 C946 1.383 . S
C941 C937 1.495 . S
C941 H947 0.959 . S
C941 H948 0.961 . S
C941 H949 0.960 . S
C942 C940 1.381 . S
C942 C943 1.394 . S
C942 H950 0.930 . S
C943 C942 1.394 . S
C943 C944 1.383 . S
C943 H951 0.929 . S
C944 C943 1.383 . S
C944 C945 1.377 . S
C945 H929 0.930 . S
C945 C944 1.377 . S
C945 C946 1.379 . S
C946 H930 0.931 . S
C946 C940 1.383 . S
C946 C945 1.379 . S
H947 C941 0.959 . S
H948 C941 0.961 . S
H949 C941 0.960 . S
H950 C942 0.930 . S
H951 C943 0.929 . S
H952 C960 0.929 . S
H953 C962 0.930 . S
H954 C964 0.930 . S
H955 C967 0.929 . S
H956 C970 0.930 . S
H957 C972 0.960 . S
H958 C972 0.960 . S
H959 C972 0.960 . S
C960 H952 0.929 . S
C960 C961 1.377 . S
C960 C962 1.384 . S
C961 C960 1.377 . S
C961 C967 1.390 . S
C962 H953 0.930 . S
C962 C960 1.384 . S
C962 C963 1.372 . S
C963 C962 1.372 . S
C963 C964 1.400 . S
C963 C968 1.490 . S
C964 H954 0.930 . S
C964 C963 1.400 . S
C964 C967 1.386 . S
H965 C981 0.930 . S
H966 C982 0.931 . S
C967 H955 0.929 . S
C967 C961 1.390 . S
C967 C964 1.386 . S
C968 C963 1.490 . S
C968 C970 1.395 . S
C968 C971 1.403 . S
H969 C975 0.930 . S
C970 H956 0.930 . S
C970 C968 1.395 . S
C970 C973 1.403 . S
C971 C968 1.403 . S
C971 C972 1.524 . S
C971 C975 1.400 . S
C972 H957 0.960 . S
C972 H958 0.960 . S
C972 H959 0.960 . S
C972 C971 1.524 . S
C973 C970 1.403 . S
C973 C974 1.392 . S
C973 C977 1.495 . S
C974 C973 1.392 . S
C974 C975 1.385 . S
C974 C976 1.478 . S
C975 H969 0.930 . S
C975 C971 1.400 . S
C975 C974 1.385 . S
C976 C974 1.478 . S
C976 C978 1.381 . S
C976 C982 1.383 . S
C977 C973 1.495 . S
C977 H983 0.959 . S
C977 H984 0.961 . S
C977 H985 0.960 . S
C978 C976 1.381 . S
C978 C979 1.394 . S
C978 H986 0.930 . S
C979 C978 1.394 . S
C979 C980 1.383 . S
C979 H987 0.929 1_556 S
C980 C979 1.383 . S
C980 C981 1.377 . S
C981 H965 0.930 . S
C981 C980 1.377 . S
C981 C982 1.379 . S
C982 H966 0.931 . S
C982 C976 1.383 . S
C982 C981 1.379 . S
H983 C977 0.959 . S
H984 C977 0.961 . S
H985 C977 0.960 . S
H986 C978 0.930 . S
H987 C979 0.929 1_554 S
H988 C996 0.929 . S
H989 C998 0.930 . S
H990 C1000 0.930 . S
H991 C1003 0.929 . S
H992 C1006 0.930 . S
H993 C1008 0.960 . S
H994 C1008 0.960 . S
H995 C1008 0.960 . S
C996 H988 0.929 . S
C996 C997 1.377 . S
C996 C998 1.384 . S
C997 C996 1.377 . S
C997 C1003 1.390 . S
C998 H989 0.930 . S
C998 C996 1.384 . S
C998 C999 1.372 . S
C999 C998 1.372 . S
C999 C1000 1.400 . S
C999 C1004 1.490 . S
C1000 H990 0.930 . S
C1000 C999 1.400 . S
C1000 C1003 1.386 . S
H1001 C1017 0.930 . S
H1002 C1018 0.931 . S
C1003 H991 0.929 . S
C1003 C997 1.390 . S
C1003 C1000 1.386 . S
C1004 C999 1.490 . S
C1004 C1006 1.395 . S
C1004 C1007 1.403 . S
H1005 C1011 0.930 . S
C1006 H992 0.930 . S
C1006 C1004 1.395 . S
C1006 C1009 1.403 . S
C1007 C1004 1.403 . S
C1007 C1008 1.524 . S
C1007 C1011 1.400 . S
C1008 H993 0.960 . S
C1008 H994 0.960 . S
C1008 H995 0.960 . S
C1008 C1007 1.524 . S
C1009 C1006 1.403 . S
C1009 C1010 1.392 . S
C1009 C1013 1.495 . S
C1010 C1009 1.392 . S
C1010 C1011 1.385 . S
C1010 C1012 1.478 . S
C1011 H1005 0.930 . S
C1011 C1007 1.400 . S
C1011 C1010 1.385 . S
C1012 C1010 1.478 . S
C1012 C1014 1.381 . S
C1012 C1018 1.383 . S
C1013 C1009 1.495 . S
C1013 H1019 0.959 . S
C1013 H1020 0.961 . S
C1013 H1021 0.960 . S
C1014 C1012 1.381 . S
C1014 C1015 1.394 . S
C1014 H1022 0.930 . S
C1015 C1014 1.394 . S
C1015 C1016 1.383 . S
C1015 H1023 0.929 . S
C1016 C1015 1.383 . S
C1016 C1017 1.377 . S
C1017 H1001 0.930 . S
C1017 C1016 1.377 . S
C1017 C1018 1.379 . S
C1018 H1002 0.931 . S
C1018 C1012 1.383 . S
C1018 C1017 1.379 . S
H1019 C1013 0.959 . S
H1020 C1013 0.961 . S
H1021 C1013 0.960 . S
H1022 C1014 0.930 . S
H1023 C1015 0.929 . S
H1024 C1032 0.929 . S
H1025 C1034 0.930 . S
H1026 C1036 0.930 . S
H1027 C1039 0.929 . S
H1028 C1042 0.930 . S
H1029 C1044 0.960 . S
H1030 C1044 0.960 . S
H1031 C1044 0.960 . S
C1032 H1024 0.929 . S
C1032 C1033 1.377 . S
C1032 C1034 1.384 . S
C1033 C1032 1.377 . S
C1033 C1039 1.390 . S
C1034 H1025 0.930 . S
C1034 C1032 1.384 . S
C1034 C1035 1.372 . S
C1035 C1034 1.372 . S
C1035 C1036 1.400 . S
C1035 C1040 1.490 . S
C1036 H1026 0.930 . S
C1036 C1035 1.400 . S
C1036 C1039 1.386 . S
H1037 C1053 0.930 . S
H1038 C1054 0.931 . S
C1039 H1027 0.929 . S
C1039 C1033 1.390 . S
C1039 C1036 1.386 . S
C1040 C1035 1.490 . S
C1040 C1042 1.395 . S
C1040 C1043 1.403 . S
H1041 C1047 0.930 . S
C1042 H1028 0.930 . S
C1042 C1040 1.395 . S
C1042 C1045 1.403 . S
C1043 C1040 1.403 . S
C1043 C1044 1.524 . S
C1043 C1047 1.400 . S
C1044 H1029 0.960 . S
C1044 H1030 0.960 . S
C1044 H1031 0.960 . S
C1044 C1043 1.524 . S
C1045 C1042 1.403 . S
C1045 C1046 1.392 . S
C1045 C1049 1.495 . S
C1046 C1045 1.392 . S
C1046 C1047 1.385 . S
C1046 C1048 1.478 . S
C1047 H1041 0.930 . S
C1047 C1043 1.400 . S
C1047 C1046 1.385 . S
C1048 C1046 1.478 . S
C1048 C1050 1.381 . S
C1048 C1054 1.383 . S
C1049 C1045 1.495 . S
C1049 H1055 0.959 . S
C1049 H1056 0.961 . S
C1049 H1057 0.960 . S
C1050 C1048 1.381 . S
C1050 C1051 1.394 . S
C1050 H1058 0.930 . S
C1051 C1050 1.394 . S
C1051 C1052 1.383 . S
C1051 H1059 0.929 . S
C1052 C1051 1.383 . S
C1052 C1053 1.377 . S
C1053 H1037 0.930 . S
C1053 C1052 1.377 . S
C1053 C1054 1.379 . S
C1054 H1038 0.931 . S
C1054 C1048 1.383 . S
C1054 C1053 1.379 . S
H1055 C1049 0.959 . S
H1056 C1049 0.961 . S
H1057 C1049 0.960 . S
H1058 C1050 0.930 . S
H1059 C1051 0.929 . S
H1060 C1068 0.929 . S
H1061 C1070 0.930 . S
H1062 C1072 0.930 . S
H1063 C1075 0.929 . S
H1064 C1078 0.930 . S
H1065 C1080 0.960 . S
H1066 C1080 0.960 . S
H1067 C1080 0.960 . S
C1068 H1060 0.929 . S
C1068 C1069 1.377 . S
C1068 C1070 1.384 . S
C1069 C1068 1.377 . S
C1069 C1075 1.390 . S
C1070 H1061 0.930 . S
C1070 C1068 1.384 . S
C1070 C1071 1.372 . S
C1071 C1070 1.372 . S
C1071 C1072 1.400 . S
C1071 C1076 1.490 . S
C1072 H1062 0.930 . S
C1072 C1071 1.400 . S
C1072 C1075 1.386 . S
H1073 C1089 0.930 . S
H1074 C1090 0.931 . S
C1075 H1063 0.929 . S
C1075 C1069 1.390 . S
C1075 C1072 1.386 . S
C1076 C1071 1.490 . S
C1076 C1078 1.395 . S
C1076 C1079 1.403 . S
H1077 C1083 0.930 . S
C1078 H1064 0.930 . S
C1078 C1076 1.395 . S
C1078 C1081 1.403 . S
C1079 C1076 1.403 . S
C1079 C1080 1.524 . S
C1079 C1083 1.400 . S
C1080 H1065 0.960 . S
C1080 H1066 0.960 . S
C1080 H1067 0.960 . S
C1080 C1079 1.524 . S
C1081 C1078 1.403 . S
C1081 C1082 1.392 . S
C1081 C1085 1.495 . S
C1082 C1081 1.392 . S
C1082 C1083 1.385 . S
C1082 C1084 1.478 . S
C1083 H1077 0.930 . S
C1083 C1079 1.400 . S
C1083 C1082 1.385 . S
C1084 C1082 1.478 . S
C1084 C1086 1.381 . S
C1084 C1090 1.383 . S
C1085 C1081 1.495 . S
C1085 H1091 0.959 . S
C1085 H1092 0.961 . S
C1085 H1093 0.960 . S
C1086 C1084 1.381 . S
C1086 C1087 1.394 . S
C1086 H1094 0.930 . S
C1087 C1086 1.394 . S
C1087 C1088 1.383 . S
C1087 H1095 0.929 . S
C1088 C1087 1.383 . S
C1088 C1089 1.377 . S
C1089 H1073 0.930 . S
C1089 C1088 1.377 . S
C1089 C1090 1.379 . S
C1090 H1074 0.931 . S
C1090 C1084 1.383 . S
C1090 C1089 1.379 . S
H1091 C1085 0.959 . S
H1092 C1085 0.961 . S
H1093 C1085 0.960 . S
H1094 C1086 0.930 . S
H1095 C1087 0.929 . S
C241 C5 2.910 . S
C260 C91 2.878 . S
C277 C14 2.153 . S
C296 C122 2.197 . S
C332 C161 1.306 . S
C313 C25 1.326 . S
C349 C34 0.407 . S
C368 C198 0.482 . S
C404 C121 2.790 . S
C385 C7 2.879 . S
C440 C78 1.412 . S
C421 C13 1.420 . S
C476 C210 1.390 . S
C457 C23 1.420 . S
C512 C167 0.888 . S
C493 C31 0.925 . S
C529 C4 2.281 . S
C548 C211 2.272 . S
C584 C127 1.272 . S
C565 C22 1.278 . S
C601 C32 0.527 . S
C620 C90 0.575 . S
C637 C16 2.332 . S
C656 C162 2.341 . S
C692 C82 2.864 . S
C673 C41 2.894 . S
C709 C50 2.160 . S
C728 C131 2.195 . S
C745 C61 1.321 . S
C764 C170 1.267 . S
C781 C67 0.433 . S
C800 C207 0.493 . S
C817 C40 2.897 . S
C836 C130 2.793 . S
C872 C87 1.413 . S
C853 C52 1.397 . S
C908 C201 1.396 . S
C889 C59 1.422 . S
C944 C158 0.883 . S
C925 C70 0.915 . S
C961 C43 2.282 . S
C980 C202 2.277 . S
C1016 C118 1.273 . S
C997 C58 1.281 . S
C1052 C81 0.494 . S
C1033 C68 0.510 . S
C1069 C49 2.336 . S
C1088 C171 2.348 . S
