# Generated by pormake.
# Topology zzz, (3,6)-cn, num edge types: 1
# Building blocks:
#     Node 0, Type 0, BuildingBlock: QEWDON_clean_linker_0, # of connection points: 3
#     Node 1, Type 0, BuildingBlock: QEWDON_clean_linker_0, # of connection points: 3
#     Node 2, Type 0, BuildingBlock: QEWDON_clean_linker_0, # of connection points: 3
#     Node 3, Type 0, BuildingBlock: QEWDON_clean_linker_0, # of connection points: 3
#     Node 4, Type 0, BuildingBlock: QEWDON_clean_linker_0, # of connection points: 3
#     Node 5, Type 0, BuildingBlock: QEWDON_clean_linker_0, # of connection points: 3
#     Node 6, Type 0, BuildingBlock: QEWDON_clean_linker_0, # of connection points: 3
#     Node 7, Type 0, BuildingBlock: QEWDON_clean_linker_0, # of connection points: 3
#     Node 8, Type 1, BuildingBlock: BETFAJ_clean_sbu_0, # of connection points: 6
#     Node 9, Type 1, BuildingBlock: BETFAJ_clean_sbu_0, # of connection points: 6
#     Node 10, Type 1, BuildingBlock: BETFAJ_clean_sbu_0, # of connection points: 6
#     Node 11, Type 1, BuildingBlock: BETFAJ_clean_sbu_0, # of connection points: 6
#     Edge 12, Type (0, 1), BuildingBlock: EZIPEK_clean_linker_0, # of connection points: 2
#     Edge 13, Type (0, 1), BuildingBlock: EZIPEK_clean_linker_0, # of connection points: 2
#     Edge 14, Type (0, 1), BuildingBlock: EZIPEK_clean_linker_0, # of connection points: 2
#     Edge 15, Type (0, 1), BuildingBlock: EZIPEK_clean_linker_0, # of connection points: 2
#     Edge 16, Type (0, 1), BuildingBlock: EZIPEK_clean_linker_0, # of connection points: 2
#     Edge 17, Type (0, 1), BuildingBlock: EZIPEK_clean_linker_0, # of connection points: 2
#     Edge 18, Type (0, 1), BuildingBlock: EZIPEK_clean_linker_0, # of connection points: 2
#     Edge 19, Type (0, 1), BuildingBlock: EZIPEK_clean_linker_0, # of connection points: 2
#     Edge 20, Type (0, 1), BuildingBlock: EZIPEK_clean_linker_0, # of connection points: 2
#     Edge 21, Type (0, 1), BuildingBlock: EZIPEK_clean_linker_0, # of connection points: 2
#     Edge 22, Type (0, 1), BuildingBlock: EZIPEK_clean_linker_0, # of connection points: 2
#     Edge 23, Type (0, 1), BuildingBlock: EZIPEK_clean_linker_0, # of connection points: 2
#     Edge 24, Type (0, 1), BuildingBlock: EZIPEK_clean_linker_0, # of connection points: 2
#     Edge 25, Type (0, 1), BuildingBlock: EZIPEK_clean_linker_0, # of connection points: 2
#     Edge 26, Type (0, 1), BuildingBlock: EZIPEK_clean_linker_0, # of connection points: 2
#     Edge 27, Type (0, 1), BuildingBlock: EZIPEK_clean_linker_0, # of connection points: 2
#     Edge 28, Type (0, 1), BuildingBlock: EZIPEK_clean_linker_0, # of connection points: 2
#     Edge 29, Type (0, 1), BuildingBlock: EZIPEK_clean_linker_0, # of connection points: 2
#     Edge 30, Type (0, 1), BuildingBlock: EZIPEK_clean_linker_0, # of connection points: 2
#     Edge 31, Type (0, 1), BuildingBlock: EZIPEK_clean_linker_0, # of connection points: 2
#     Edge 32, Type (0, 1), BuildingBlock: EZIPEK_clean_linker_0, # of connection points: 2
#     Edge 33, Type (0, 1), BuildingBlock: EZIPEK_clean_linker_0, # of connection points: 2
#     Edge 34, Type (0, 1), BuildingBlock: EZIPEK_clean_linker_0, # of connection points: 2
#     Edge 35, Type (0, 1), BuildingBlock: EZIPEK_clean_linker_0, # of connection points: 2
# Relax obj value: 0.244
# Max RMSD: 0.191
# Mean RMSD: 0.124
data_MOF--net-zzz--node1-BETFAJ_clean_sbu_0--node2-QEWDON_clean_linker_0--edge1-EZIPEK_clean_linker_0
_symmetry_space_group_name_H-M    P1
_symmetry_Int_Tables_number       1
_symmetry_cell_setting            triclinic
loop_
_symmetry_equiv_pos_as_xyz
'x, y, z'
_cell_length_a     41.845369
_cell_length_b     42.11998
_cell_length_c     9.7136614
_cell_angle_alpha  89.812267
_cell_angle_beta   90.161279
_cell_angle_gamma 90.013291
loop_
_atom_site_label
_atom_site_type_symbol
_atom_site_fract_x
_atom_site_fract_y
_atom_site_fract_z
_atom_type_partial_charge
H0 H 0.75583 0.47461 0.26669 0.0
C1 C 0.77465 0.48372 0.33236 0.0
C2 C 0.80487 0.47006 0.32321 0.0
C3 C 0.76871 0.50858 0.42555 0.0
H4 H 0.85331 0.47031 0.3962 0.0
C5 C 0.82976 0.48077 0.40727 0.0
C6 C 0.82533 0.50468 0.50411 0.0
C7 C 0.7944 0.51877 0.51378 0.0
C8 C 0.73514 0.52183 0.43266 0.0
H9 H 0.79056 0.53744 0.58816 0.0
C10 C 0.71466 0.52305 0.3145 0.0
C11 C 0.68187 0.53134 0.32587 0.0
C12 C 0.72218 0.53053 0.56041 0.0
H13 H 0.73651 0.52949 0.65326 0.0
C14 C 0.69007 0.53931 0.57159 0.0
H15 H 0.72389 0.51711 0.2138 0.0
C16 C 0.67006 0.53943 0.45618 0.0
H17 H 0.64517 0.54584 0.46863 0.0
H18 H 0.68042 0.5455 0.67126 0.0
H19 H 0.06032 0.75206 0.26911 0.0
C20 C 0.05284 0.77027 0.34022 0.0
C21 C 0.07025 0.79855 0.34284 0.0
C22 C 0.02459 0.76677 0.41759 0.0
H23 H 0.07286 0.84612 0.4208 0.0
C24 C 0.06005 0.82375 0.42529 0.0
C25 C 0.03303 0.82171 0.50833 0.0
C26 C 1.01529 0.79272 0.50557 0.0
C27 C 1.00331 0.73814 0.38862 0.0
H28 H 0.99415 0.79088 0.56892 0.0
C29 C 1.01525 0.70886 0.33275 0.0
C30 C 0.99422 0.68503 0.28046 0.0
C31 C 0.96995 0.74143 0.39976 0.0
H32 H 0.95934 0.76305 0.43823 0.0
C33 C 0.94934 0.71764 0.35385 0.0
H34 H 0.0407 0.70477 0.32547 0.0
C35 C 0.96121 0.69017 0.29281 0.0
H36 H 0.94438 0.67279 0.25395 0.0
H37 H 0.92376 0.72101 0.3617 0.0
H38 H 0.78782 0.96483 0.23972 0.0
C39 C 0.76876 0.97301 0.30559 0.0
C40 C 0.73818 0.96109 0.28202 0.0
C41 C 0.77485 0.99473 0.41263 0.0
H42 H 0.68932 0.96128 0.3525 0.0
C43 C 0.71319 0.97 0.37005 0.0
C44 C 0.71737 0.99083 0.47952 0.0
C45 C 0.74864 1.00347 0.50112 0.0
C46 C 0.80893 1.00641 0.43192 0.0
H47 H 0.75228 1.01997 0.5848 0.0
C48 C 0.83157 1.00741 0.32097 0.0
C49 C 0.86435 1.01436 0.34455 0.0
C50 C 0.82003 1.01417 0.56441 0.0
H51 H 0.80428 1.01326 0.65248 0.0
C52 C 0.85208 0.02186 0.58703 0.0
H53 H 0.82413 1.00249 0.21647 0.0
C54 C 0.87399 0.02155 0.47896 0.0
H55 H 0.89869 0.02667 0.50058 0.0
H56 H 0.86021 0.02739 0.69012 0.0
H57 H 0.46869 0.79288 0.32333 0.0
C58 C 0.47819 0.77336 0.38315 0.0
C59 C 0.46314 0.74402 0.36925 0.0
C60 C 0.50723 0.77634 0.4552 0.0
H61 H 0.46079 0.69594 0.44661 0.0
C62 C 0.47272 0.7187 0.45501 0.0
C63 C 0.50066 0.72027 0.53416 0.0
C64 C 0.51831 0.74931 0.53268 0.0
C65 C 0.526 0.80711 0.43964 0.0
H66 H 0.54085 0.75022 0.58724 0.0
C67 C 0.52198 0.8278 0.32302 0.0
C68 C 0.53799 0.85739 0.31373 0.0
C69 C 0.54739 0.81681 0.54329 0.0
H70 H 0.55098 0.80257 0.63489 0.0
C71 C 0.56391 0.84561 0.53251 0.0
H72 H 0.5066 0.82134 0.23817 0.0
C73 C 0.55923 0.86573 0.41949 0.0
H74 H 0.57181 0.88821 0.41569 0.0
H75 H 0.5801 0.85269 0.61399 0.0
H76 H 0.29146 0.56384 0.33515 0.0
C77 C 0.2726 0.55468 0.26993 0.0
C78 C 0.2424 0.56841 0.27948 0.0
C79 C 0.27843 0.52977 0.17673 0.0
H80 H 0.19392 0.56824 0.20728 0.0
C81 C 0.21743 0.55774 0.19575 0.0
C82 C 0.22173 0.53398 0.09821 0.0
C83 C 0.25261 0.51975 0.08854 0.0
C84 C 0.31195 0.51615 0.16945 0.0
H85 H 0.25623 0.50103 0.0142 0.0
C86 C 0.33309 0.51582 0.28586 0.0
C87 C 0.36561 0.50653 0.27317 0.0
C88 C 0.32408 0.50568 0.04262 0.0
H89 H 0.3094 0.50602 0.95076 0.0
C90 C 0.35586 0.49588 0.03051 0.0
H91 H 0.32462 0.52305 0.38614 0.0
C92 C 0.37646 0.49654 0.14382 0.0
H93 H 0.40111 0.48936 0.13034 0.0
H94 H 0.36479 0.48825 0.93148 0.0
H95 H 0.98046 0.28887 0.3123 0.0
C96 C 0.98977 0.26999 0.24851 0.0
C97 C 0.97615 0.23993 0.26047 0.0
C98 C 1.01459 0.27577 0.15403 0.0
H99 H 0.9765 0.19153 0.19207 0.0
C100 C 0.987 0.21491 0.17878 0.0
C101 C 1.0109 0.21898 0.08088 0.0
C102 C 0.02491 0.24984 0.06806 0.0
C103 C 0.02723 0.30947 0.14158 0.0
H104 H 0.04353 0.25346 0.99255 0.0
C105 C 0.0278 0.33111 0.25561 0.0
C106 C 0.03558 0.36383 0.23767 0.0
C107 C 0.03593 0.32132 0.0116 0.0
H108 H 0.03532 0.30623 0.92165 0.0
C109 C 0.04414 0.35321 0.99393 0.0
H110 H 1.02186 0.32281 0.35797 0.0
C111 C 0.04371 0.37422 0.10481 0.0
H112 H 0.05 0.3988 0.08689 0.0
H113 H 0.05043 0.3619 0.89252 0.0
H114 H 0.25324 0.08115 0.32374 0.0
C115 C 0.27242 0.07229 0.26051 0.0
C116 C 0.30301 0.08434 0.28385 0.0
C117 C 0.26665 0.04897 0.15986 0.0
H118 H 0.35204 0.08388 0.21364 0.0
C119 C 0.32816 0.0749 0.19731 0.0
C120 C 0.32422 0.05244 0.09376 0.0
C121 C 0.29307 0.03929 0.07477 0.0
C122 C 0.23299 0.03556 0.14662 0.0
H123 H 0.28988 0.02133 0.99664 0.0
C124 C 0.21036 0.03629 0.2578 0.0
C125 C 0.17829 0.02587 0.24022 0.0
C126 C 0.22247 0.02326 0.01986 0.0
H127 H 0.23805 0.02274 0.93126 0.0
C128 C 0.19119 1.01231 1.00329 0.0
H129 H 0.21729 0.04466 0.35863 0.0
C130 C 0.16942 1.01375 0.11163 0.0
H131 H 0.14525 1.00593 0.0944 0.0
H132 H 0.18354 1.00315 0.90451 0.0
H133 H 0.57052 0.25901 0.35121 0.0
C134 C 0.56159 0.27652 0.27873 0.0
C135 C 0.57375 0.30722 0.28484 0.0
C136 C 0.53928 0.2681 0.17674 0.0
H137 H 0.57257 0.35439 0.20066 0.0
C138 C 0.56325 0.33044 0.19189 0.0
C139 C 0.54127 0.32373 0.08802 0.0
C140 C 0.52929 0.29202 0.07939 0.0
C141 C 0.53079 0.23337 0.16459 0.0
H142 H 0.51273 0.28606 0.99768 0.0
C143 C 0.52775 0.21293 0.28239 0.0
C144 C 0.52776 0.17919 0.26879 0.0
C145 C 0.53086 0.21948 0.03365 0.0
H146 H 0.53321 0.23392 0.9418 0.0
C147 C 0.53029 0.18661 0.01919 0.0
H148 H 0.52638 0.22319 0.38427 0.0
C149 C 0.53002 0.16679 0.13446 0.0
H150 H 0.53102 0.14139 0.11786 0.0
H151 H 0.53089 0.17636 0.91742 0.0
Sm152 Sm 0.04169 1.01608 0.90128 0.0
Sm153 Sm 1.00082 0.02522 0.6842 0.0
C154 C 0.0727 0.99532 0.1226 0.0
C155 C 0.09065 0.96609 0.15234 0.0
C156 C 0.11014 0.95231 0.05113 0.0
C157 C 0.12013 0.92086 0.06394 0.0
C158 C 0.1104 0.90285 0.1776 0.0
C159 C 0.09385 0.91752 0.2857 0.0
C160 C 0.08404 0.94907 0.27317 0.0
C161 C 0.07656 0.02911 0.66178 0.0
C162 C 1.02116 0.95249 0.71707 0.0
C163 C 0.96852 0.04459 0.46424 0.0
C164 C 0.94916 0.07294 0.43623 0.0
C165 C 0.95496 0.09036 0.31584 0.0
C166 C 0.94544 0.12203 0.30756 0.0
C167 C 0.93015 0.13637 0.41981 0.0
C168 C 0.92044 0.1178 0.53187 0.0
C169 C 0.93007 0.08616 0.54027 0.0
C170 C 0.96635 1.01217 0.9248 0.0
C171 C 1.02198 0.08925 0.86477 0.0
O172 O 0.04208 0.99124 0.10344 0.0
O173 O 0.08513 1.01489 0.03314 0.0
O174 O 0.05302 1.01018 0.67047 0.0
O175 O 0.08185 0.04184 0.78081 0.0
O176 O 0.02979 0.96294 0.84038 0.0
O177 O 1.01242 0.9735 0.62402 0.0
O178 O 0.99891 0.05023 0.48272 0.0
O179 O 0.95725 0.02437 0.55377 0.0
O180 O 0.98956 0.03146 0.91454 0.0
O181 O 0.96156 0.99861 0.80719 0.0
O182 O 1.01219 0.07856 0.74338 0.0
O183 O 0.03166 0.06848 0.95747 0.0
H184 H 0.11584 0.96508 0.95782 0.0
H185 H 0.13279 0.9098 0.97962 0.0
H186 H 0.08612 0.90382 0.37417 0.0
H187 H 0.06915 0.95931 0.35265 0.0
H188 H 0.96945 0.08049 0.23414 0.0
H189 H 0.95296 0.13612 0.21992 0.0
H190 H 0.90863 0.12861 0.61902 0.0
H191 H 0.92495 0.07298 0.63319 0.0
Sm192 Sm 0.53207 0.03438 0.90755 0.0
Sm193 Sm 0.50914 0.99968 0.67226 0.0
C194 C 0.56588 0.04249 0.13187 0.0
C195 C 0.59018 1.01836 0.16343 0.0
C196 C 0.58505 0.98791 0.10931 0.0
C197 C 0.61037 0.96756 0.08372 0.0
C198 C 0.64121 0.97608 0.12237 0.0
C199 C 0.64616 1.00539 0.18981 0.0
C200 C 0.62084 0.02672 0.20796 0.0
C201 C 0.52187 0.07712 0.69137 0.0
C202 C 0.58594 1.00416 0.68656 0.0
C203 C 0.47079 0.99164 0.46175 0.0
C204 C 0.44662 1.01665 0.44204 0.0
C205 C 0.45074 0.04471 0.51784 0.0
C206 C 0.42612 0.06625 0.53506 0.0
C207 C 0.39675 0.06079 0.4725 0.0
C208 C 0.39259 0.03343 0.39044 0.0
C209 C 0.41739 1.01125 0.37606 0.0
C210 C 0.52359 0.95725 0.88368 0.0
C211 C 0.45519 0.03085 0.89214 0.0
O212 O 0.53642 0.03224 0.13608 0.0
O213 O 0.57172 0.0586 0.01961 0.0
O214 O 0.53294 0.04903 0.68084 0.0
O215 O 0.51566 0.08304 0.82014 0.0
O216 O 0.57979 1.0148 0.81195 0.0
O217 O 0.56209 0.99715 0.6023 0.0
O218 O 0.50035 1.00058 0.44498 0.0
O219 O 0.46722 0.97558 0.57556 0.0
O220 O 0.51092 0.98459 0.89609 0.0
O221 O 0.52751 0.95127 0.75302 0.0
O222 O 0.46148 1.0164 0.7755 0.0
O223 O 0.47891 0.04087 0.97044 0.0
H224 H 0.56174 0.98117 0.07351 0.0
H225 H 0.60613 0.94593 0.02759 0.0
H226 H 0.66999 1.01268 0.21987 0.0
H227 H 0.62559 0.05026 0.24766 0.0
H228 H 0.47248 0.04883 0.57394 0.0
H229 H 0.42971 0.08656 0.60134 0.0
H230 H 0.36968 0.02854 0.34302 0.0
H231 H 0.41326 0.98946 0.31979 0.0
Sm232 Sm 0.50922 0.52306 0.90852 0.0
Sm233 Sm 0.54401 0.51666 0.6652 0.0
C234 C 0.49213 0.54376 0.15439 0.0
C235 C 0.49313 0.57691 0.19838 0.0
C236 C 0.51214 0.59769 0.12197 0.0
C237 C 0.503 0.62904 0.10529 0.0
C238 C 0.47853 0.64177 0.18623 0.0
C239 C 0.464 0.62194 0.28597 0.0
C240 C 0.47007 0.58928 0.28668 0.0
C241 C 0.46811 0.5095 0.69065 0.0
C242 C 0.52059 0.58756 0.71186 0.0
C243 C 0.57259 0.50091 0.43302 0.0
C244 C 0.59527 0.47531 0.4055 0.0
C245 C 0.58965 0.45554 0.29255 0.0
C246 C 0.60111 0.4245 0.29449 0.0
C247 C 0.61787 0.41317 0.41005 0.0
C248 C 0.62769 0.43433 0.51255 0.0
C249 C 0.61646 0.46548 0.51003 0.0
C250 C 0.58376 0.53009 0.88935 0.0
C251 C 0.52696 0.45034 0.84796 0.0
O252 O 0.52 0.53113 0.12986 0.0
O253 O 0.47158 0.53819 0.0558 0.0
O254 O 0.49132 0.52891 0.68605 0.0
O255 O 0.46614 0.49668 0.81233 0.0
O256 O 0.51813 0.57624 0.83846 0.0
O257 O 0.52601 0.56719 0.61248 0.0
O258 O 0.54395 0.49108 0.46604 0.0
O259 O 0.5828 0.52367 0.51258 0.0
O260 O 0.56145 0.50983 0.88645 0.0
O261 O 0.58508 0.54465 0.77207 0.0
O262 O 0.53697 0.46244 0.72864 0.0
O263 O 0.51586 0.46951 0.94299 0.0
H264 H 0.5321 0.58894 0.06379 0.0
H265 H 0.51448 0.6427 0.02499 0.0
H266 H 0.44603 0.63113 0.35521 0.0
H267 H 0.45579 0.57366 0.34982 0.0
H268 H 0.57353 0.46282 0.21081 0.0
H269 H 0.59356 0.40839 0.21401 0.0
H270 H 0.64053 0.42581 0.60236 0.0
H271 H 0.62126 0.48054 0.5978 0.0
Sm272 Sm 1.02008 0.49738 0.90327 0.0
Sm273 Sm 0.02731 0.53959 0.69442 0.0
C274 C 1.00236 0.46161 0.11513 0.0
C275 C 0.97333 0.44319 0.14329 0.0
C276 C 0.95983 0.4236 0.04138 0.0
C277 C 0.92778 0.41464 0.04989 0.0
C278 C 0.90924 0.42512 0.16055 0.0
C279 C 0.92379 0.4411 0.27061 0.0
C280 C 0.95571 0.45021 0.26176 0.0
C281 C 0.03441 0.46496 0.66006 0.0
C282 C 0.95484 0.51732 0.72693 0.0
C283 C 0.0454 0.57413 0.4791 0.0
C284 C 0.07402 0.5931 0.44834 0.0
C285 C 0.09224 0.58541 0.33238 0.0
C286 C 0.12401 0.59515 0.32437 0.0
C287 C 0.13773 0.61255 0.43248 0.0
C288 C 0.1184 0.62394 0.53873 0.0
C289 C 0.08651 0.61439 0.54602 0.0
C290 C 1.01226 0.57227 0.93654 0.0
C291 C 0.09233 0.5203 0.87424 0.0
O292 O 0.99811 0.49227 0.10991 0.0
O293 O 1.02071 0.45147 0.01647 0.0
O294 O 1.01403 0.48717 0.67154 0.0
O295 O 0.04911 0.46102 0.77614 0.0
O296 O 0.96599 0.50777 0.84805 0.0
O297 O 0.97533 0.52759 0.63473 0.0
O298 O 0.0503 0.54358 0.48915 0.0
O299 O 0.02662 0.58469 0.57549 0.0
O300 O 0.03264 0.54996 0.92675 0.0
O301 O 0.99875 0.57667 0.81805 0.0
O302 O 0.08136 0.53028 0.75349 0.0
O303 O 0.07183 0.50939 0.96486 0.0
H304 H 0.97304 0.41762 0.94943 0.0
H305 H 0.91674 0.4024 0.96414 0.0
H306 H 0.90968 0.44932 0.35682 0.0
H307 H 0.96576 0.4651 0.34176 0.0
H308 H 0.08289 0.56944 0.25477 0.0
H309 H 0.13867 0.58636 0.24103 0.0
H310 H 0.12869 0.63745 0.62258 0.0
H311 H 0.0726 0.62151 0.63389 0.0
C312 C 0.12745 0.04996 0.34176 0.0
C313 C 0.15317 0.0278 0.35314 0.0
C314 C 0.12723 1.00488 0.56039 0.0
C315 C 0.1022 0.02776 0.55172 0.0
N316 N 0.08027 0.07434 0.44373 0.0
N317 N 0.17853 0.98519 0.47778 0.0
C318 C 0.10281 0.05083 0.44455 0.0
C319 C 0.15329 1.00559 0.4641 0.0
N320 N 0.1264 0.07009 0.23108 0.0
N321 N 0.1257 0.98205 0.66028 0.0
H322 H 0.19695 0.98378 0.40607 0.0
H323 H 0.18236 0.97064 0.56287 0.0
H324 H 0.10792 0.98189 0.73486 0.0
H325 H 0.14074 0.96245 0.66651 0.0
H326 H 0.10655 0.08371 0.20462 0.0
H327 H 0.14506 0.07222 0.16073 0.0
H328 H 0.08092 0.09405 0.37897 0.0
H329 H 0.06158 0.07523 0.51449 0.0
C330 C 0.5056 0.12855 0.37433 0.0
C331 C 0.52545 0.15571 0.38933 0.0
C332 C 0.54408 0.13191 0.61098 0.0
C333 C 0.52664 0.1034 0.58357 0.0
N334 N 0.50883 0.07209 0.39218 0.0
N335 N 0.57035 0.17836 0.51219 0.0
C336 C 0.5123 0.10087 0.45217 0.0
C337 C 0.54647 0.15632 0.50608 0.0
N338 N 0.48066 0.12855 0.28367 0.0
N339 N 0.5602 0.13492 0.73249 0.0
H340 H 0.57448 0.19489 0.43442 0.0
H341 H 0.58823 0.17813 0.58695 0.0
H342 H 0.56246 0.11639 0.80317 0.0
H343 H 0.5708 0.15606 0.76407 0.0
H344 H 0.46533 0.10911 0.27402 0.0
H345 H 0.47353 0.14896 0.23064 0.0
H346 H 0.49954 0.06932 0.2931 0.0
H347 H 0.52008 0.05235 0.43418 0.0
C348 C 0.40344 0.47869 0.44018 0.0
C349 C 0.38923 0.5074 0.39207 0.0
C350 C 0.42352 0.53708 0.55488 0.0
C351 C 0.44068 0.50888 0.58861 0.0
N352 N 0.44884 0.45299 0.55068 0.0
N353 N 0.38898 0.56467 0.39233 0.0
C354 C 0.43098 0.47969 0.52826 0.0
C355 C 0.40007 0.53681 0.44694 0.0
N356 N 0.39001 0.45031 0.40444 0.0
N357 N 0.4287 0.56399 0.62969 0.0
H358 H 0.3721 0.56562 0.3133 0.0
H359 H 0.39837 0.58681 0.41735 0.0
H360 H 0.44459 0.56469 0.7122 0.0
H361 H 0.41498 0.58449 0.61958 0.0
H362 H 0.39706 0.42864 0.44654 0.0
H363 H 0.36964 0.44871 0.34265 0.0
H364 H 0.44529 0.4318 0.49788 0.0
H365 H 0.46906 0.45273 0.6137 0.0
C366 C 1.00674 0.39555 0.42634 0.0
C367 C 0.03536 0.38805 0.35422 0.0
C368 C 0.06191 0.4333 0.47159 0.0
C369 C 0.03407 0.43921 0.55092 0.0
N370 N 0.98303 0.41986 0.62796 0.0
N371 N 0.09227 0.3958 0.33463 0.0
C372 C 1.00732 0.41859 0.53489 0.0
C373 C 0.06353 0.40588 0.38452 0.0
N374 N 0.9786 0.38163 0.38827 0.0
N375 N 0.08676 0.45432 0.47699 0.0
H376 H 0.09467 0.37525 0.27589 0.0
H377 H 0.11406 0.40578 0.36326 0.0
H378 H 0.08659 0.47435 0.53998 0.0
H379 H 0.10623 0.45345 0.41051 0.0
H380 H 0.95654 0.38828 0.42834 0.0
H381 H 0.97677 0.36557 0.30724 0.0
H382 H 0.96427 0.40362 0.63052 0.0
H383 H 0.98373 0.43501 0.71227 0.0
C384 C 0.90968 0.98632 0.21839 0.0
C385 C 0.88945 1.01335 0.23193 0.0
C386 C 0.91877 0.03911 0.04103 0.0
C387 C 0.94066 1.01327 0.03475 0.0
N388 N 0.95906 0.96367 0.12915 0.0
N389 N 0.87865 0.0678 0.17168 0.0
C390 C 0.93662 0.98725 0.12685 0.0
C391 C 0.89517 0.04041 0.14763 0.0
N392 N 0.90268 0.9594 0.29124 0.0
N393 N 0.91944 0.06179 0.94058 0.0
H394 H 0.86074 0.06946 0.24584 0.0
H395 H 0.88441 0.08945 0.12593 0.0
H396 H 0.93559 0.06089 0.85956 0.0
H397 H 0.90225 0.07952 0.93012 0.0
H398 H 0.91421 0.93777 0.27684 0.0
H399 H 0.8835 0.95796 0.35932 0.0
H400 H 0.95982 0.94578 0.20324 0.0
H401 H 0.97858 0.96334 0.06252 0.0
C402 C 0.51134 0.90763 0.22339 0.0
C403 C 0.53145 0.8811 0.19909 0.0
C404 C 0.54818 0.90573 0.97996 0.0
C405 C 0.52623 0.93159 0.99703 0.0
N406 N 0.48311 0.95348 0.13604 0.0
N407 N 0.56418 0.85196 0.04118 0.0
C408 C 0.50683 0.93158 0.11918 0.0
C409 C 0.54804 0.87917 0.07264 0.0
N410 N 0.49675 0.91031 0.34862 0.0
N411 N 0.57136 0.90762 0.88179 0.0
H412 H 0.56563 0.83265 0.10838 0.0
H413 H 0.57355 0.84741 0.94396 0.0
H414 H 0.57557 0.9283 0.8267 0.0
H415 H 0.58963 0.89105 0.87078 0.0
H416 H 0.48537 0.93081 0.3818 0.0
H417 H 0.49745 0.89253 0.42357 0.0
H418 H 0.46495 0.95101 0.20835 0.0
H419 H 0.47973 0.97327 0.07464 0.0
C420 C 0.65066 0.50256 0.137 0.0
C421 C 0.65914 0.53137 0.20391 0.0
C422 C 0.61844 0.55957 0.06357 0.0
C423 C 0.6106 0.53088 0.99435 0.0
N424 N 0.62699 0.47796 0.9356 0.0
N425 N 0.656 0.58846 0.2081 0.0
C426 C 0.62891 0.50316 0.02298 0.0
C427 C 0.64436 0.56022 0.16049 0.0
N428 N 0.66253 0.47437 0.18478 0.0
N429 N 0.60068 0.58621 0.03881 0.0
H430 H 0.67532 0.58989 0.2759 0.0
H431 H 0.64866 0.61049 0.1709 0.0
H432 H 0.58294 0.58725 0.96338 0.0
H433 H 0.60216 0.60669 0.09823 0.0
H434 H 0.6551 0.45237 0.14805 0.0
H435 H 0.67781 0.47269 0.2694 0.0
H436 H 0.64166 0.45805 0.94255 0.0
H437 H 0.61349 0.47895 0.84555 0.0
C438 C 0.99398 0.62467 0.25373 0.0
C439 C 1.00529 0.6549 0.20756 0.0
C440 C 0.02949 0.62776 0.00754 0.0
C441 C 1.01355 0.59896 0.04118 0.0
N442 N 0.97858 0.57062 0.19414 0.0
N443 N 0.03049 0.68513 0.02577 0.0
C444 C 0.99545 0.59754 0.1646 0.0
C445 C 1.02261 0.65635 0.08149 0.0
N446 N 0.98194 0.62195 0.38382 0.0
N447 N 0.05148 0.62778 0.90425 0.0
H448 H 0.02513 0.70671 0.07218 0.0
H449 H 0.03976 0.68774 0.92696 0.0
H450 H 0.05689 0.6073 0.8493 0.0
H451 H 0.06647 0.64694 0.88333 0.0
H452 H 0.97476 0.60053 0.42763 0.0
H453 H 0.98193 0.64083 0.4531 0.0
H454 H 0.96206 0.56894 0.27375 0.0
H455 H 0.97953 0.55048 0.13226 0.0
C456 C 0.92251 0.22157 0.31778 0.0
C457 C 0.95238 0.23218 0.36709 0.0
C458 C 0.95918 0.18455 0.50191 0.0
C459 C 0.93226 0.17117 0.43306 0.0
N460 N 0.88418 0.17909 0.29955 0.0
N461 N 0.98831 0.23276 0.55776 0.0
C462 C 0.912 0.19072 0.35243 0.0
C463 C 0.96591 0.21711 0.48198 0.0
N464 N 0.9058 0.2392 0.22511 0.0
N465 N 0.98056 0.16568 0.57002 0.0
H466 H 0.99408 0.2564 0.53626 0.0
H467 H 0.99862 0.2233 0.64664 0.0
H468 H 0.97771 0.14124 0.58079 0.0
H469 H 1.00247 0.17398 0.60629 0.0
H470 H 0.91334 0.26172 0.19349 0.0
H471 H 0.91334 0.26172 0.19349 0.0
H472 H 0.86931 0.19272 0.23624 0.0
H473 H 0.87598 0.15629 0.32292 0.0
C474 C 0.33562 0.12336 0.40502 0.0
C475 C 0.31046 0.10136 0.41453 0.0
C476 C 0.34188 0.06814 0.56463 0.0
C477 C 0.36927 0.08177 0.50206 0.0
N478 N 0.39342 0.12842 0.39823 0.0
N479 N 0.28403 0.07164 0.59068 0.0
C480 C 0.36681 0.11237 0.4396 0.0
C481 C 0.31163 0.08069 0.52818 0.0
N482 N 0.32994 0.15191 0.34415 0.0
N483 N 0.34489 0.04228 0.64845 0.0
H484 H 0.26212 0.08118 0.55976 0.0
H485 H 0.28337 0.05716 0.67777 0.0
H486 H 0.36728 0.03345 0.67708 0.0
H487 H 0.32549 0.02969 0.68752 0.0
H488 H 0.34705 0.16974 0.33507 0.0
H489 H 0.3069 0.15785 0.31102 0.0
H490 H 0.39266 0.14923 0.34021 0.0
H491 H 0.41644 0.12062 0.42059 0.0
C492 C 0.62681 0.32648 0.34771 0.0
C493 C 0.59619 0.31725 0.39333 0.0
C494 C 0.58796 0.36717 0.50635 0.0
C495 C 0.61593 0.37896 0.44041 0.0
N496 N 0.66679 0.3685 0.3357 0.0
N497 N 0.55756 0.32046 0.57233 0.0
C498 C 0.63749 0.35784 0.37611 0.0
C499 C 0.58128 0.33444 0.49795 0.0
N500 N 0.64324 0.30642 0.26392 0.0
N501 N 0.56581 0.38744 0.55976 0.0
H502 H 0.55188 0.29652 0.55854 0.0
H503 H 0.54589 0.33173 0.65319 0.0
H504 H 0.56904 0.41194 0.56389 0.0
H505 H 0.54321 0.38004 0.59135 0.0
H506 H 0.66452 0.31226 0.21484 0.0
H507 H 0.63457 0.28364 0.24333 0.0
H508 H 0.68415 0.35406 0.29178 0.0
H509 H 0.6743 0.3917 0.35532 0.0
C510 C 0.21929 0.57851 0.50052 0.0
C511 C 0.23435 0.59201 0.38568 0.0
C512 C 0.19222 0.63167 0.36895 0.0
C513 C 0.17275 0.61142 0.44939 0.0
N514 N 0.16776 0.56429 0.59156 0.0
N515 N 0.24104 0.6383 0.2436 0.0
C516 C 0.18653 0.58513 0.52047 0.0
C517 C 0.22341 0.62157 0.3358 0.0
N518 N 0.23526 0.55652 0.57735 0.0
N519 N 0.18019 0.65907 0.3148 0.0
H520 H 0.26381 0.63103 0.21291 0.0
H521 H 0.26381 0.63103 0.21291 0.0
H522 H 0.15713 0.66694 0.33724 0.0
H523 H 0.19375 0.67393 0.25156 0.0
H524 H 0.2259 0.54642 0.66666 0.0
H525 H 0.25907 0.55089 0.55633 0.0
H526 H 0.17615 0.54261 0.6288 0.0
H527 H 0.14329 0.56755 0.60478 0.0
C528 C 0.082 0.81909 0.11882 0.0
C529 C 0.09503 0.80585 0.23898 0.0
C530 C 0.13229 0.85024 0.25404 0.0
C531 C 0.11071 0.86785 0.17074 0.0
N532 N 0.06332 0.86875 0.02627 0.0
N533 N 0.13964 0.80201 0.39084 0.0
C534 C 0.0857 0.85206 0.0989 0.0
C535 C 0.12373 0.81865 0.29164 0.0
N536 N 0.06273 0.80117 0.03692 0.0
N537 N 0.15947 0.86434 0.30198 0.0
H538 H 0.13219 0.77918 0.41862 0.0
H539 H 0.15923 0.81064 0.44528 0.0
H540 H 0.1655 0.88762 0.2754 0.0
H541 H 0.17675 0.85255 0.35994 0.0
H542 H 0.05276 0.80965 0.94554 0.0
H543 H 0.05955 0.77696 0.05553 0.0
H544 H 0.0427 0.85831 0.98639 0.0
H545 H 0.06379 0.89337 0.01642 0.0
C546 C 0.7079 0.91882 0.1723 0.0
C547 C 0.73061 0.94306 0.15432 0.0
C548 C 0.69404 0.97179 0.00838 0.0
C549 C 0.66903 0.95642 0.08141 0.0
N550 N 0.65125 0.90883 0.20152 0.0
N551 N 0.75168 0.97518 0.97324 0.0
C552 C 0.67533 0.92665 0.14687 0.0
C553 C 0.7259 0.96299 0.04002 0.0
N554 N 0.71725 0.89117 0.23273 0.0
N555 N 0.68718 0.99631 0.92127 0.0
H556 H 0.77483 0.96866 1.00215 0.0
H557 H 0.74998 0.9894 0.88562 0.0
H558 H 0.6636 1.00245 0.89766 0.0
H559 H 0.7045 1.01037 0.87434 0.0
H560 H 0.70213 0.87179 0.24669 0.0
H561 H 0.7412 0.88758 0.25945 0.0
H562 H 0.65518 0.88891 0.26299 0.0
H563 H 0.62721 0.91429 0.18843 0.0
C564 C 0.47443 0.73157 0.13712 0.0
C565 C 0.44958 0.73602 0.23172 0.0
C566 C 0.43379 0.68193 0.18267 0.0
C567 C 0.46699 0.67496 0.16455 0.0
N568 N 0.52048 0.69823 0.13405 0.0
N569 N 0.39691 0.71921 0.28956 0.0
C570 C 0.48802 0.70102 0.13652 0.0
C571 C 0.42549 0.71279 0.22972 0.0
N572 N 0.48864 0.75684 0.07527 0.0
N573 N 0.41105 0.65958 0.15641 0.0
H574 H 0.392 0.74193 0.32704 0.0
H575 H 0.37933 0.70208 0.3056 0.0
H576 H 0.41689 0.63758 0.11408 0.0
H577 H 0.38665 0.66426 0.16313 0.0
H578 H 0.50759 0.7541 0.00665 0.0
H579 H 0.47914 0.77965 0.085 0.0
H580 H 0.53535 0.71789 0.12067 0.0
H581 H 0.53265 0.67806 0.16672 0.0
C582 C 0.82372 0.41694 0.26362 0.0
C583 C 0.81308 0.4468 0.21582 0.0
C584 C 0.86074 0.4544 0.08228 0.0
C585 C 0.8742 0.42718 0.14731 0.0
N586 N 0.86633 0.37748 0.2649 0.0
N587 N 0.81214 0.48328 0.02755 0.0
C588 C 0.85461 0.40624 0.22413 0.0
C589 C 0.828 0.46076 0.10189 0.0
N590 N 0.80573 0.40133 0.35897 0.0
N591 N 0.87971 0.4762 0.01785 0.0
H592 H 0.78831 0.48877 0.04862 0.0
H593 H 0.82165 0.49395 0.93979 0.0
H594 H 0.90433 0.47348 0.00778 0.0
H595 H 0.87127 0.49818 0.98418 0.0
H596 H 0.813 0.38081 0.41009 0.0
H597 H 0.78328 0.40996 0.38732 0.0
H598 H 0.85289 0.36055 0.31727 0.0
H599 H 0.88918 0.36991 0.23714 0.0
C600 C 0.99273 0.1761 0.91683 0.0
C601 C 1.01825 0.18976 0.9937 0.0
C602 C 0.04874 0.13986 0.95798 0.0
C603 C 1.02131 0.12464 0.90002 0.0
N604 N 0.96514 0.12834 0.84544 0.0
N605 N 0.06982 0.18276 0.09936 0.0
C606 C 0.99286 0.14292 0.88405 0.0
C607 C 0.04622 0.1712 0.01622 0.0
N608 N 0.9679 0.19506 0.87639 0.0
N609 N 0.07756 0.12469 0.95455 0.0
H610 H 0.06923 0.20562 0.14017 0.0
H611 H 0.08889 0.16905 0.13467 0.0
H612 H 0.08055 0.10236 0.91035 0.0
H613 H 0.09899 0.13545 0.98296 0.0
H614 H 0.94955 0.18751 0.81171 0.0
H615 H 0.96747 0.2194 0.89641 0.0
H616 H 0.94283 0.13922 0.85007 0.0
H617 H 0.96408 0.1046 0.81749 0.0
C618 C 0.37182 0.06883 0.94762 0.0
C619 C 0.35449 0.04391 0.01397 0.0
C620 C 0.40159 1.00916 0.97834 0.0
C621 C 0.4204 0.0354 0.93286 0.0
N622 N 0.42328 0.09135 0.88385 0.0
N623 N 0.35537 0.9892 0.09401 0.0
C624 C 0.40539 0.06554 0.92004 0.0
C625 C 0.36987 1.0139 0.0288 0.0
N626 N 0.35572 0.09551 0.90735 0.0
N627 N 0.41406 0.97924 0.97694 0.0
H628 H 0.33263 0.9903 0.13741 0.0
H629 H 0.33263 0.9903 0.13741 0.0
H630 H 0.43629 0.97409 0.93456 0.0
H631 H 0.40133 0.95946 0.01152 0.0
H632 H 0.3658 0.11326 0.84648 0.0
H633 H 0.33116 0.09812 0.9222 0.0
H634 H 0.41475 0.11456 0.88758 0.0
H635 H 0.44745 0.08976 0.85874 0.0
C636 C 0.50445 0.36828 0.99989 0.0
C637 C 0.53364 0.35116 0.99044 0.0
C638 C 0.55798 0.39777 0.87446 0.0
C639 C 0.5286 0.41483 0.88045 0.0
N640 N 0.47176 0.41228 0.91792 0.0
N641 N 0.58524 0.34682 0.88454 0.0
C642 C 0.50119 0.39873 0.93348 0.0
C643 C 0.5593 0.36509 0.91571 0.0
N644 N 0.48027 0.35633 0.07858 0.0
N645 N 0.58528 0.41306 0.83607 0.0
H646 H 0.5866 0.32285 0.91174 0.0
H647 H 0.60354 0.35435 0.8197 0.0
H648 H 0.58529 0.43606 0.79744 0.0
H649 H 0.60803 0.40338 0.84799 0.0
H650 H 0.45998 0.3693 0.10453 0.0
H651 H 0.48142 0.33401 0.12498 0.0
H652 H 0.45052 0.40069 0.94223 0.0
H653 H 0.46842 0.43389 0.86726 0.0
C654 C 0.17502 0.49786 0.02591 0.0
C655 C 0.19264 0.52651 0.00927 0.0
C656 C 0.14475 0.55109 0.90241 0.0
C657 C 0.12765 0.52196 0.91127 0.0
N658 N 0.12984 0.46555 0.95353 0.0
N659 N 0.19635 0.57756 0.89866 0.0
C660 C 0.14388 0.49471 0.96433 0.0
C661 C 0.1781 0.55202 0.93552 0.0
N662 N 0.1871 0.47418 0.107 0.0
N663 N 0.12887 0.57849 0.87067 0.0
H664 H 0.22086 0.57857 0.91871 0.0
H665 H 0.18803 0.59597 0.83633 0.0
H666 H 0.10459 0.57911 0.84763 0.0
H667 H 0.1392 0.60092 0.87812 0.0
H668 H 0.17381 0.45447 0.13749 0.0
H669 H 0.20973 0.47529 0.15171 0.0
H670 H 0.14156 0.44445 0.97804 0.0
H671 H 0.10763 0.46219 0.90696 0.0
C672 C 0.99812 0.87104 0.55613 0.0
C673 C 0.02497 0.85162 0.59024 0.0
C674 C 0.0491 0.89797 0.70787 0.0
C675 C 1.0218 0.91721 0.68046 0.0
N676 N 0.96673 0.91828 0.60609 0.0
N677 N 0.07452 0.84767 0.72058 0.0
C678 C 0.99524 0.90255 0.6128 0.0
C679 C 0.04928 0.86523 0.67481 0.0
N680 N 0.97624 0.86043 0.46244 0.0
N681 N 0.07654 0.91017 0.76103 0.0
H682 H 0.07666 0.82323 0.7056 0.0
H683 H 0.07666 0.82323 0.7056 0.0
H684 H 0.07989 0.93408 0.78374 0.0
H685 H 0.07989 0.93408 0.78374 0.0
H686 H 0.95861 0.87489 0.41965 0.0
H687 H 0.97712 0.83783 0.41944 0.0
H688 H 0.94571 0.90785 0.57049 0.0
H689 H 0.96327 0.94061 0.64958 0.0
C690 C 0.67099 0.02709 0.5582 0.0
C691 C 0.68726 0.99738 0.56417 0.0
C692 C 0.63619 0.97209 0.63195 0.0
C693 C 0.62057 1.0019 0.63946 0.0
N694 N 0.62521 0.05893 0.62791 0.0
N695 N 0.68638 0.94356 0.64808 0.0
C696 C 0.63879 0.02978 0.60968 0.0
C697 C 0.67011 0.97067 0.61598 0.0
N698 N 0.6854 0.05238 0.49586 0.0
N699 N 0.61855 0.94489 0.63149 0.0
H700 H 0.71121 0.94206 0.63976 0.0
H701 H 0.67567 0.9242 0.69666 0.0
H702 H 0.59368 0.94529 0.62772 0.0
H703 H 0.62847 0.9225 0.61584 0.0
H704 H 0.67348 0.07344 0.47262 0.0
H705 H 0.70872 0.05151 0.45887 0.0
H706 H 0.6381 0.08005 0.62232 0.0
H707 H 0.60144 0.06189 0.65738 0.0
C708 C 0.53613 0.67038 0.54644 0.0
C709 C 0.51131 0.68941 0.60357 0.0
C710 C 0.4931 0.64236 0.73577 0.0
C711 C 0.51817 0.62314 0.68108 0.0
N712 N 0.56892 0.62282 0.56358 0.0
N713 N 0.46871 0.69263 0.77193 0.0
C714 C 0.54121 0.63836 0.59471 0.0
C715 C 0.49121 0.67527 0.70473 0.0
N716 N 0.55402 0.6822 0.44072 0.0
N717 N 0.46953 0.63019 0.81648 0.0
H718 H 0.46589 0.7171 0.7595 0.0
H719 H 0.46589 0.7171 0.7595 0.0
H720 H 0.46767 0.60637 0.84462 0.0
H721 H 0.46767 0.60637 0.84462 0.0
H722 H 0.56942 0.66832 0.38223 0.0
H723 H 0.55183 0.70543 0.40479 0.0
H724 H 0.58803 0.63357 0.51323 0.0
H725 H 0.57437 0.60028 0.60144 0.0
C726 C 0.86806 0.48718 0.67135 0.0
C727 C 0.8543 0.51233 0.59312 0.0
C728 C 0.90381 0.54334 0.63314 0.0
C729 C 0.91931 0.51624 0.69171 0.0
N730 N 0.91618 0.4604 0.7467 0.0
N731 N 0.86096 0.56366 0.4876 0.0
C732 C 0.9013 0.48772 0.70651 0.0
C733 C 0.87258 0.5404 0.57209 0.0
N734 N 0.84913 0.46234 0.71092 0.0
N735 N 0.9186 0.57222 0.63851 0.0
H736 H 0.83818 0.56274 0.4441 0.0
H737 H 0.87464 0.5828 0.45367 0.0
H738 H 0.94082 0.57551 0.6851 0.0
H739 H 0.9075 0.59335 0.60957 0.0
H740 H 0.85678 0.44425 0.77642 0.0
H741 H 0.82468 0.46165 0.68928 0.0
H742 H 0.90558 0.43807 0.74032 0.0
H743 H 0.9398 0.45973 0.7794 0.0
loop_
_geom_bond_atom_site_label_1
_geom_bond_atom_site_label_2
_geom_bond_distance
_geom_bond_site_symmetry_2
_ccdc_geom_bond_type
H0 C1 0.949 . S
C1 H0 0.949 . S
C1 C2 1.395 . S
C1 C3 1.391 . S
C2 C1 1.395 . S
C2 C5 1.390 . S
C3 C1 1.391 . S
C3 C7 1.387 . S
C3 C8 1.491 . S
H4 C5 0.950 . S
C5 C2 1.390 . S
C5 H4 0.950 . S
C5 C6 1.378 . S
C6 C5 1.378 . S
C6 C7 1.409 . S
C7 C3 1.387 . S
C7 C6 1.409 . S
C7 H9 0.951 . S
C8 C3 1.491 . S
C8 C10 1.382 . S
C8 C12 1.404 . S
H9 C7 0.951 . S
C10 C8 1.382 . S
C10 C11 1.390 . S
C10 H15 0.949 . S
C11 C10 1.390 . S
C11 C16 1.399 . S
C12 C8 1.404 . S
C12 H13 0.950 . S
C12 C14 1.375 . S
H13 C12 0.950 . S
C14 C12 1.375 . S
C14 C16 1.382 . S
C14 H18 0.950 . S
H15 C10 0.949 . S
C16 C11 1.399 . S
C16 C14 1.382 . S
C16 H17 0.952 . S
H17 C16 0.952 . S
H18 C14 0.950 . S
H19 C20 0.949 . S
C20 H19 0.949 . S
C20 C21 1.395 . S
C20 C22 1.391 . S
C21 C20 1.395 . S
C21 C24 1.390 1_655 S
C22 C20 1.391 . S
C22 C26 1.387 . S
C22 C27 1.491 . S
H23 C24 0.950 . S
C24 C21 1.390 1_455 S
C24 H23 0.950 . S
C24 C25 1.377 1_455 S
C25 C24 1.377 1_655 S
C25 C26 1.413 . S
C26 C22 1.387 . S
C26 C25 1.413 . S
C26 H28 0.951 . S
C27 C22 1.491 . S
C27 C29 1.382 . S
C27 C31 1.404 . S
H28 C26 0.951 . S
C29 C27 1.382 . S
C29 C30 1.390 . S
C29 H34 0.949 1_655 S
C30 C29 1.390 . S
C30 C35 1.399 . S
C31 C27 1.404 . S
C31 H32 0.950 . S
C31 C33 1.375 . S
H32 C31 0.950 . S
C33 C31 1.375 . S
C33 C35 1.382 . S
C33 H37 0.950 . S
H34 C29 0.949 1_455 S
C35 C30 1.399 . S
C35 C33 1.382 . S
C35 H36 0.952 . S
H36 C35 0.952 . S
H37 C33 0.950 . S
H38 C39 0.949 . S
C39 H38 0.949 . S
C39 C40 1.395 . S
C39 C41 1.391 . S
C40 C39 1.395 . S
C40 C43 1.390 1_565 S
C41 C39 1.391 . S
C41 C45 1.387 . S
C41 C46 1.491 . S
H42 C43 0.950 . S
C43 C40 1.390 1_545 S
C43 H42 0.950 . S
C43 C44 1.377 1_545 S
C44 C43 1.377 1_565 S
C44 C45 1.413 . S
C45 C41 1.387 . S
C45 C44 1.413 . S
C45 H47 0.951 . S
C46 C41 1.491 . S
C46 C48 1.382 . S
C46 C50 1.404 . S
H47 C45 0.951 . S
C48 C46 1.382 . S
C48 C49 1.390 . S
C48 H53 0.949 1_565 S
C49 C48 1.390 . S
C49 C54 1.399 . S
C50 C46 1.404 . S
C50 H51 0.950 . S
C50 C52 1.375 . S
H51 C50 0.950 . S
C52 C50 1.375 . S
C52 C54 1.382 . S
C52 H56 0.950 . S
H53 C48 0.949 1_545 S
C54 C49 1.399 . S
C54 C52 1.382 . S
C54 H55 0.952 . S
H55 C54 0.952 . S
H56 C52 0.950 . S
H57 C58 0.949 . S
C58 H57 0.949 . S
C58 C59 1.395 . S
C58 C60 1.391 . S
C59 C58 1.395 . S
C59 C62 1.390 . S
C60 C58 1.391 . S
C60 C64 1.387 . S
C60 C65 1.491 . S
H61 C62 0.950 . S
C62 C59 1.390 . S
C62 H61 0.950 . S
C62 C63 1.378 . S
C63 C62 1.378 . S
C63 C64 1.409 . S
C64 C60 1.387 . S
C64 C63 1.409 . S
C64 H66 0.951 . S
C65 C60 1.491 . S
C65 C67 1.382 . S
C65 C69 1.404 . S
H66 C64 0.951 . S
C67 C65 1.382 . S
C67 C68 1.390 . S
C67 H72 0.949 . S
C68 C67 1.390 . S
C68 C73 1.399 . S
C69 C65 1.404 . S
C69 H70 0.950 . S
C69 C71 1.375 . S
H70 C69 0.950 . S
C71 C69 1.375 . S
C71 C73 1.382 . S
C71 H75 0.950 . S
H72 C67 0.949 . S
C73 C68 1.399 . S
C73 C71 1.382 . S
C73 H74 0.952 . S
H74 C73 0.952 . S
H75 C71 0.950 . S
H76 C77 0.949 . S
C77 H76 0.949 . S
C77 C78 1.395 . S
C77 C79 1.391 1_554 S
C78 C77 1.395 . S
C78 C81 1.390 1_554 S
C79 C77 1.391 1_556 S
C79 C83 1.387 . S
C79 C84 1.491 . S
H80 C81 0.950 . S
C81 C78 1.390 1_556 S
C81 H80 0.950 . S
C81 C82 1.378 . S
C82 C81 1.378 . S
C82 C83 1.409 . S
C83 C79 1.387 . S
C83 C82 1.409 . S
C83 H85 0.951 . S
C84 C79 1.491 . S
C84 C86 1.382 1_556 S
C84 C88 1.404 . S
H85 C83 0.951 . S
C86 C84 1.382 1_554 S
C86 C87 1.390 . S
C86 H91 0.949 . S
C87 C86 1.390 . S
C87 C92 1.399 1_554 S
C88 C84 1.404 . S
C88 H89 0.950 . S
C88 C90 1.375 . S
H89 C88 0.950 . S
C90 C88 1.375 . S
C90 C92 1.382 . S
C90 H94 0.950 . S
H91 C86 0.949 . S
C92 C87 1.399 1_556 S
C92 C90 1.382 . S
C92 H93 0.952 . S
H93 C92 0.952 . S
H94 C90 0.950 . S
H95 C96 0.949 . S
C96 H95 0.949 . S
C96 C97 1.394 . S
C96 C98 1.391 1_554 S
C97 C96 1.394 . S
C97 C100 1.390 1_654 S
C98 C96 1.391 1_556 S
C98 C102 1.387 . S
C98 C103 1.491 . S
H99 C100 0.950 . S
C100 C97 1.390 1_456 S
C100 H99 0.950 . S
C100 C101 1.377 1_455 S
C101 C100 1.377 1_655 S
C101 C102 1.411 . S
C102 C98 1.387 . S
C102 C101 1.411 . S
C102 H104 0.951 . S
C103 C98 1.491 . S
C103 C105 1.382 1_556 S
C103 C107 1.404 . S
H104 C102 0.951 . S
C105 C103 1.382 1_554 S
C105 C106 1.390 . S
C105 H110 0.949 1_655 S
C106 C105 1.390 . S
C106 C111 1.399 1_554 S
C107 C103 1.404 . S
C107 H108 0.950 . S
C107 C109 1.375 . S
H108 C107 0.950 . S
C109 C107 1.375 . S
C109 C111 1.382 . S
C109 H113 0.950 . S
H110 C105 0.949 1_455 S
C111 C106 1.399 1_556 S
C111 C109 1.382 . S
C111 H112 0.952 . S
H112 C111 0.952 . S
H113 C109 0.950 . S
H114 C115 0.949 . S
C115 H114 0.949 . S
C115 C116 1.394 . S
C115 C117 1.391 1_554 S
C116 C115 1.394 . S
C116 C119 1.390 1_564 S
C117 C115 1.391 1_556 S
C117 C121 1.387 . S
C117 C122 1.491 . S
H118 C119 0.950 . S
C119 C116 1.390 1_546 S
C119 H118 0.950 . S
C119 C120 1.377 1_545 S
C120 C119 1.377 1_565 S
C120 C121 1.411 . S
C121 C117 1.387 . S
C121 C120 1.411 . S
C121 H123 0.951 . S
C122 C117 1.491 . S
C122 C124 1.382 1_556 S
C122 C126 1.404 . S
H123 C121 0.951 . S
C124 C122 1.382 1_554 S
C124 C125 1.390 . S
C124 H129 0.949 1_565 S
C125 C124 1.390 . S
C125 C130 1.399 1_554 S
C126 C122 1.404 . S
C126 H127 0.950 . S
C126 C128 1.375 . S
H127 C126 0.950 . S
C128 C126 1.375 . S
C128 C130 1.382 . S
C128 H132 0.950 . S
H129 C124 0.949 1_545 S
C130 C125 1.399 1_556 S
C130 C128 1.382 . S
C130 H131 0.952 . S
H131 C130 0.952 . S
H132 C128 0.950 . S
H133 C134 0.949 . S
C134 H133 0.949 . S
C134 C135 1.395 . S
C134 C136 1.391 1_554 S
C135 C134 1.395 . S
C135 C138 1.390 1_554 S
C136 C134 1.391 1_556 S
C136 C140 1.387 . S
C136 C141 1.491 . S
H137 C138 0.950 . S
C138 C135 1.390 1_556 S
C138 H137 0.950 . S
C138 C139 1.378 . S
C139 C138 1.378 . S
C139 C140 1.409 . S
C140 C136 1.387 . S
C140 C139 1.409 . S
C140 H142 0.951 . S
C141 C136 1.491 . S
C141 C143 1.382 1_556 S
C141 C145 1.404 . S
H142 C140 0.951 . S
C143 C141 1.382 1_554 S
C143 C144 1.390 . S
C143 H148 0.949 . S
C144 C143 1.390 . S
C144 C149 1.399 1_554 S
C145 C141 1.404 . S
C145 H146 0.950 . S
C145 C147 1.375 . S
H146 C145 0.950 . S
C147 C145 1.375 . S
C147 C149 1.382 . S
C147 H151 0.950 . S
H148 C143 0.949 . S
C149 C144 1.399 1_556 S
C149 C147 1.382 . S
C149 H150 0.952 . S
H150 C149 0.952 . S
H151 C147 0.950 . S
Sm152 C154 2.846 1_556 S
Sm152 O172 2.543 1_556 S
Sm152 O173 2.450 1_556 S
Sm152 O174 2.681 1_565 S
Sm152 O175 2.464 . S
Sm152 O176 2.396 . S
Sm152 O180 2.386 1_455 S
Sm152 O183 2.408 1_565 S
Sm153 C163 2.846 . S
Sm153 O174 2.386 1_655 S
Sm153 O177 2.408 1_545 S
Sm153 O178 2.543 . S
Sm153 O179 2.450 . S
Sm153 O180 2.681 1_545 S
Sm153 O181 2.464 . S
Sm153 O182 2.396 . S
C154 Sm152 2.846 1_554 S
C154 C155 1.506 . S
C154 O172 1.261 . S
C154 O173 1.242 . S
C155 C154 1.506 . S
C155 C156 1.358 . S
C155 C160 1.382 . S
C156 C155 1.358 . S
C156 C157 1.385 . S
C156 H184 0.930 1_455 S
C157 C156 1.385 . S
C157 C158 1.395 . S
C157 H185 0.929 1_455 S
C158 C157 1.395 . S
C158 C159 1.335 . S
C159 C158 1.335 . S
C159 C160 1.398 . S
C159 H186 0.930 . S
C160 C155 1.382 . S
C160 C159 1.398 . S
C160 H187 0.929 . S
C161 O174 1.271 1_565 S
C161 O175 1.251 . S
C162 O176 1.252 1_655 S
C162 O177 1.272 . S
C163 Sm153 2.846 . S
C163 C164 1.506 . S
C163 O178 1.261 . S
C163 O179 1.242 . S
C164 C163 1.506 . S
C164 C165 1.358 . S
C164 C169 1.382 . S
C165 C164 1.358 . S
C165 C166 1.385 . S
C165 H188 0.930 1_655 S
C166 C165 1.385 . S
C166 C167 1.395 . S
C166 H189 0.929 1_655 S
C167 C166 1.395 . S
C167 C168 1.335 . S
C168 C167 1.335 . S
C168 C169 1.398 . S
C168 H190 0.930 . S
C169 C164 1.382 . S
C169 C168 1.398 . S
C169 H191 0.929 . S
C170 O180 1.271 1_545 S
C170 O181 1.251 . S
C171 O182 1.252 1_455 S
C171 O183 1.272 . S
O172 Sm152 2.543 1_554 S
O172 C154 1.261 . S
O173 Sm152 2.450 1_554 S
O173 C154 1.242 . S
O174 Sm152 2.681 1_545 S
O174 Sm153 2.386 1_455 S
O174 C161 1.271 1_545 S
O175 Sm152 2.464 . S
O175 C161 1.251 . S
O176 Sm152 2.396 . S
O176 C162 1.252 1_455 S
O177 Sm153 2.408 1_565 S
O177 C162 1.272 . S
O178 Sm153 2.543 . S
O178 C163 1.261 . S
O179 Sm153 2.450 . S
O179 C163 1.242 . S
O180 Sm152 2.386 1_655 S
O180 Sm153 2.681 1_565 S
O180 C170 1.271 1_565 S
O181 Sm153 2.464 . S
O181 C170 1.251 . S
O182 Sm153 2.396 . S
O182 C171 1.252 1_655 S
O183 Sm152 2.408 1_545 S
O183 C171 1.272 . S
H184 C156 0.930 1_655 S
H185 C157 0.929 1_655 S
H186 C159 0.930 . S
H187 C160 0.929 . S
H188 C165 0.930 1_455 S
H189 C166 0.929 1_455 S
H190 C168 0.930 . S
H191 C169 0.929 . S
Sm192 C194 2.846 1_556 S
Sm192 O212 2.543 1_556 S
Sm192 O213 2.450 1_556 S
Sm192 O214 2.681 . S
Sm192 O215 2.464 . S
Sm192 O216 2.396 . S
Sm192 O220 2.386 1_545 S
Sm192 O223 2.408 . S
Sm193 C203 2.846 . S
Sm193 O214 2.386 1_565 S
Sm193 O217 2.408 . S
Sm193 O218 2.543 . S
Sm193 O219 2.450 . S
Sm193 O220 2.681 . S
Sm193 O221 2.464 . S
Sm193 O222 2.396 . S
C194 Sm192 2.846 1_554 S
C194 C195 1.506 . S
C194 O212 1.261 . S
C194 O213 1.242 . S
C195 C194 1.506 . S
C195 C196 1.358 . S
C195 C200 1.382 . S
C196 C195 1.358 . S
C196 C197 1.385 . S
C196 H224 0.930 1_545 S
C197 C196 1.385 . S
C197 C198 1.395 . S
C197 H225 0.929 1_545 S
C198 C197 1.395 . S
C198 C199 1.335 . S
C199 C198 1.335 . S
C199 C200 1.398 . S
C199 H226 0.930 . S
C200 C195 1.382 . S
C200 C199 1.398 . S
C200 H227 0.929 . S
C201 O214 1.271 . S
C201 O215 1.251 . S
C202 O216 1.252 1_565 S
C202 O217 1.272 . S
C203 Sm193 2.846 . S
C203 C204 1.506 . S
C203 O218 1.261 . S
C203 O219 1.242 . S
C204 C203 1.506 . S
C204 C205 1.358 . S
C204 C209 1.382 . S
C205 C204 1.358 . S
C205 C206 1.385 . S
C205 H228 0.930 1_565 S
C206 C205 1.385 . S
C206 C207 1.395 . S
C206 H229 0.929 1_565 S
C207 C206 1.395 . S
C207 C208 1.335 . S
C208 C207 1.335 . S
C208 C209 1.398 . S
C208 H230 0.930 . S
C209 C204 1.382 . S
C209 C208 1.398 . S
C209 H231 0.929 . S
C210 O220 1.271 . S
C210 O221 1.251 . S
C211 O222 1.252 1_545 S
C211 O223 1.272 . S
O212 Sm192 2.543 1_554 S
O212 C194 1.261 . S
O213 Sm192 2.450 1_554 S
O213 C194 1.242 . S
O214 Sm192 2.681 . S
O214 Sm193 2.386 1_545 S
O214 C201 1.271 . S
O215 Sm192 2.464 . S
O215 C201 1.251 . S
O216 Sm192 2.396 . S
O216 C202 1.252 1_545 S
O217 Sm193 2.408 . S
O217 C202 1.272 . S
O218 Sm193 2.543 . S
O218 C203 1.261 . S
O219 Sm193 2.450 . S
O219 C203 1.242 . S
O220 Sm192 2.386 1_565 S
O220 Sm193 2.681 . S
O220 C210 1.271 . S
O221 Sm193 2.464 . S
O221 C210 1.251 . S
O222 Sm193 2.396 . S
O222 C211 1.252 1_565 S
O223 Sm192 2.408 . S
O223 C211 1.272 . S
H224 C196 0.930 1_565 S
H225 C197 0.929 1_565 S
H226 C199 0.930 . S
H227 C200 0.929 . S
H228 C205 0.930 1_545 S
H229 C206 0.929 1_545 S
H230 C208 0.930 . S
H231 C209 0.929 . S
Sm232 C234 2.846 1_556 S
Sm232 O252 2.543 1_556 S
Sm232 O253 2.450 1_556 S
Sm232 O254 2.681 . S
Sm232 O255 2.464 . S
Sm232 O256 2.396 . S
Sm232 O260 2.386 . S
Sm232 O263 2.408 . S
Sm233 C243 2.846 . S
Sm233 O254 2.386 . S
Sm233 O257 2.408 . S
Sm233 O258 2.543 . S
Sm233 O259 2.450 . S
Sm233 O260 2.681 . S
Sm233 O261 2.464 . S
Sm233 O262 2.396 . S
C234 Sm232 2.846 1_554 S
C234 C235 1.506 . S
C234 O252 1.261 . S
C234 O253 1.242 . S
C235 C234 1.506 . S
C235 C236 1.358 . S
C235 C240 1.382 . S
C236 C235 1.358 . S
C236 C237 1.385 . S
C236 H264 0.930 . S
C237 C236 1.385 . S
C237 C238 1.395 . S
C237 H265 0.929 . S
C238 C237 1.395 . S
C238 C239 1.335 . S
C239 C238 1.335 . S
C239 C240 1.398 . S
C239 H266 0.930 . S
C240 C235 1.382 . S
C240 C239 1.398 . S
C240 H267 0.929 . S
C241 O254 1.271 . S
C241 O255 1.251 . S
C242 O256 1.252 . S
C242 O257 1.272 . S
C243 Sm233 2.846 . S
C243 C244 1.506 . S
C243 O258 1.261 . S
C243 O259 1.242 . S
C244 C243 1.506 . S
C244 C245 1.358 . S
C244 C249 1.382 . S
C245 C244 1.358 . S
C245 C246 1.385 . S
C245 H268 0.930 . S
C246 C245 1.385 . S
C246 C247 1.395 . S
C246 H269 0.929 . S
C247 C246 1.395 . S
C247 C248 1.335 . S
C248 C247 1.335 . S
C248 C249 1.398 . S
C248 H270 0.930 . S
C249 C244 1.382 . S
C249 C248 1.398 . S
C249 H271 0.929 . S
C250 O260 1.271 . S
C250 O261 1.251 . S
C251 O262 1.252 . S
C251 O263 1.272 . S
O252 Sm232 2.543 1_554 S
O252 C234 1.261 . S
O253 Sm232 2.450 1_554 S
O253 C234 1.242 . S
O254 Sm232 2.681 . S
O254 Sm233 2.386 . S
O254 C241 1.271 . S
O255 Sm232 2.464 . S
O255 C241 1.251 . S
O256 Sm232 2.396 . S
O256 C242 1.252 . S
O257 Sm233 2.408 . S
O257 C242 1.272 . S
O258 Sm233 2.543 . S
O258 C243 1.261 . S
O259 Sm233 2.450 . S
O259 C243 1.242 . S
O260 Sm232 2.386 . S
O260 Sm233 2.681 . S
O260 C250 1.271 . S
O261 Sm233 2.464 . S
O261 C250 1.251 . S
O262 Sm233 2.396 . S
O262 C251 1.252 . S
O263 Sm232 2.408 . S
O263 C251 1.272 . S
H264 C236 0.930 . S
H265 C237 0.929 . S
H266 C239 0.930 . S
H267 C240 0.929 . S
H268 C245 0.930 . S
H269 C246 0.929 . S
H270 C248 0.930 . S
H271 C249 0.929 . S
Sm272 C274 2.846 1_556 S
Sm272 O292 2.543 1_556 S
Sm272 O293 2.450 1_556 S
Sm272 O294 2.681 1_655 S
Sm272 O295 2.464 . S
Sm272 O296 2.396 . S
Sm272 O300 2.386 . S
Sm272 O303 2.408 1_655 S
Sm273 C283 2.846 . S
Sm273 O294 2.386 . S
Sm273 O297 2.408 1_455 S
Sm273 O298 2.543 . S
Sm273 O299 2.450 . S
Sm273 O300 2.681 1_455 S
Sm273 O301 2.464 . S
Sm273 O302 2.396 . S
C274 Sm272 2.846 1_554 S
C274 C275 1.506 . S
C274 O292 1.261 . S
C274 O293 1.242 . S
C275 C274 1.506 . S
C275 C276 1.358 . S
C275 C280 1.382 . S
C276 C275 1.358 . S
C276 C277 1.385 . S
C276 H304 0.930 . S
C277 C276 1.385 . S
C277 C278 1.395 . S
C277 H305 0.929 . S
C278 C277 1.395 . S
C278 C279 1.335 . S
C279 C278 1.335 . S
C279 C280 1.398 . S
C279 H306 0.930 . S
C280 C275 1.382 . S
C280 C279 1.398 . S
C280 H307 0.929 . S
C281 O294 1.263 1_655 S
C281 O295 1.266 . S
C282 O296 1.252 . S
C282 O297 1.272 . S
C283 Sm273 2.846 . S
C283 C284 1.506 . S
C283 O298 1.261 . S
C283 O299 1.242 . S
C284 C283 1.506 . S
C284 C285 1.358 . S
C284 C289 1.382 . S
C285 C284 1.358 . S
C285 C286 1.385 . S
C285 H308 0.930 . S
C286 C285 1.385 . S
C286 C287 1.395 . S
C286 H309 0.929 . S
C287 C286 1.395 . S
C287 C288 1.335 . S
C288 C287 1.335 . S
C288 C289 1.398 . S
C288 H310 0.930 . S
C289 C284 1.382 . S
C289 C288 1.398 . S
C289 H311 0.929 . S
C290 O300 1.271 1_455 S
C290 O301 1.251 . S
C291 O302 1.252 . S
C291 O303 1.272 . S
O292 Sm272 2.543 1_554 S
O292 C274 1.261 . S
O293 Sm272 2.450 1_554 S
O293 C274 1.242 . S
O294 Sm272 2.681 1_455 S
O294 Sm273 2.386 . S
O294 C281 1.263 1_455 S
O295 Sm272 2.464 . S
O295 C281 1.266 . S
O296 Sm272 2.396 . S
O296 C282 1.252 . S
O297 Sm273 2.408 1_655 S
O297 C282 1.272 . S
O298 Sm273 2.543 . S
O298 C283 1.261 . S
O299 Sm273 2.450 . S
O299 C283 1.242 . S
O300 Sm272 2.386 . S
O300 Sm273 2.681 1_655 S
O300 C290 1.271 1_655 S
O301 Sm273 2.464 . S
O301 C290 1.251 . S
O302 Sm273 2.396 . S
O302 C291 1.252 . S
O303 Sm272 2.408 1_455 S
O303 C291 1.272 . S
H304 C276 0.930 . S
H305 C277 0.929 . S
H306 C279 0.930 . S
H307 C280 0.929 . S
H308 C285 0.930 . S
H309 C286 0.929 . S
H310 C288 0.930 . S
H311 C289 0.929 . S
C312 C313 1.370 . S
C312 C318 1.379 . S
C312 N320 1.356 . S
C313 C312 1.370 . S
C313 C319 1.356 1_545 S
C314 C315 1.342 1_565 S
C314 C319 1.379 . S
C314 N321 1.356 . S
C315 C314 1.342 1_545 S
C315 C318 1.384 . S
N316 C318 1.356 . S
N316 H328 0.984 . S
N316 H329 0.985 . S
N317 C319 1.356 . S
N317 H322 0.984 . S
N317 H323 0.985 . S
C318 C312 1.379 . S
C318 C315 1.384 . S
C318 N316 1.356 . S
C319 C313 1.356 1_565 S
C319 C314 1.379 . S
C319 N317 1.356 . S
N320 C312 1.356 . S
N320 H326 0.984 . S
N320 H327 0.984 . S
N321 C314 1.356 . S
N321 H324 0.984 . S
N321 H325 0.985 . S
H322 N317 0.984 . S
H323 N317 0.985 . S
H324 N321 0.984 . S
H325 N321 0.985 . S
H326 N320 0.984 . S
H327 N320 0.984 . S
H328 N316 0.984 . S
H329 N316 0.985 . S
C330 C331 1.363 . S
C330 C336 1.379 . S
C330 N338 1.356 . S
C331 C330 1.363 . S
C331 C337 1.363 . S
C332 C333 1.363 . S
C332 C337 1.379 . S
C332 N339 1.356 . S
C333 C332 1.363 . S
C333 C336 1.363 . S
N334 C336 1.356 . S
N334 H346 0.984 . S
N334 H347 0.985 . S
N335 C337 1.356 . S
N335 H340 0.984 . S
N335 H341 0.985 . S
C336 C330 1.379 . S
C336 C333 1.363 . S
C336 N334 1.356 . S
C337 C331 1.363 . S
C337 C332 1.379 . S
C337 N335 1.356 . S
N338 C330 1.356 . S
N338 H344 0.984 . S
N338 H345 0.984 . S
N339 C332 1.356 . S
N339 H342 0.984 . S
N339 H343 0.985 . S
H340 N335 0.984 . S
H341 N335 0.985 . S
H342 N339 0.984 . S
H343 N339 0.985 . S
H344 N338 0.984 . S
H345 N338 0.984 . S
H346 N334 0.984 . S
H347 N334 0.985 . S
C348 C349 1.363 . S
C348 C354 1.379 . S
C348 N356 1.356 . S
C349 C348 1.363 . S
C349 C355 1.363 . S
C350 C351 1.363 . S
C350 C355 1.379 . S
C350 N357 1.356 . S
C351 C350 1.363 . S
C351 C354 1.363 . S
N352 C354 1.356 . S
N352 H364 0.984 . S
N352 H365 0.985 . S
N353 C355 1.356 . S
N353 H358 0.984 . S
N353 H359 0.985 . S
C354 C348 1.379 . S
C354 C351 1.363 . S
C354 N352 1.356 . S
C355 C349 1.363 . S
C355 C350 1.379 . S
C355 N353 1.356 . S
N356 C348 1.356 . S
N356 H362 0.984 . S
N356 H363 0.984 . S
N357 C350 1.356 . S
N357 H360 0.984 . S
N357 H361 0.985 . S
H358 N353 0.984 . S
H359 N353 0.985 . S
H360 N357 0.984 . S
H361 N357 0.985 . S
H362 N356 0.984 . S
H363 N356 0.984 . S
H364 N352 0.984 . S
H365 N352 0.985 . S
C366 C367 1.367 . S
C366 C372 1.379 . S
C366 N374 1.356 . S
C367 C366 1.367 . S
C367 C373 1.360 1_455 S
C368 C369 1.363 1_655 S
C368 C373 1.379 . S
C368 N375 1.356 . S
C369 C368 1.363 1_455 S
C369 C372 1.363 . S
N370 C372 1.356 . S
N370 H382 0.984 . S
N370 H383 0.985 . S
N371 C373 1.356 . S
N371 H376 0.984 . S
N371 H377 0.985 . S
C372 C366 1.379 . S
C372 C369 1.363 . S
C372 N370 1.356 . S
C373 C367 1.360 1_655 S
C373 C368 1.379 . S
C373 N371 1.356 . S
N374 C366 1.356 . S
N374 H380 0.984 . S
N374 H381 0.984 . S
N375 C368 1.356 . S
N375 H378 0.984 . S
N375 H379 0.985 . S
H376 N371 0.984 . S
H377 N371 0.985 . S
H378 N375 0.984 . S
H379 N375 0.985 . S
H380 N374 0.984 . S
H381 N374 0.984 . S
H382 N370 0.984 . S
H383 N370 0.985 . S
C384 C385 1.364 . S
C384 C390 1.379 . S
C384 N392 1.356 . S
C385 C384 1.364 . S
C385 C391 1.362 1_565 S
C386 C387 1.348 1_545 S
C386 C391 1.379 . S
C386 N393 1.356 1_554 S
C387 C386 1.348 1_565 S
C387 C390 1.378 . S
N388 C390 1.356 . S
N388 H400 0.984 . S
N388 H401 0.985 . S
N389 C391 1.356 . S
N389 H394 0.984 . S
N389 H395 0.985 . S
C390 C384 1.379 . S
C390 C387 1.378 . S
C390 N388 1.356 . S
C391 C385 1.362 1_545 S
C391 C386 1.379 . S
C391 N389 1.356 . S
N392 C384 1.356 . S
N392 H398 0.984 . S
N392 H399 0.984 . S
N393 C386 1.356 1_556 S
N393 H396 0.984 . S
N393 H397 0.985 . S
H394 N389 0.984 . S
H395 N389 0.985 . S
H396 N393 0.984 . S
H397 N393 0.985 . S
H398 N392 0.984 . S
H399 N392 0.984 . S
H400 N388 0.984 . S
H401 N388 0.985 . S
C402 C403 1.363 . S
C402 C408 1.379 . S
C402 N410 1.356 . S
C403 C402 1.363 . S
C403 C409 1.363 . S
C404 C405 1.363 . S
C404 C409 1.379 . S
C404 N411 1.356 1_554 S
C405 C404 1.363 . S
C405 C408 1.363 . S
N406 C408 1.356 . S
N406 H418 0.984 . S
N406 H419 0.985 . S
N407 C409 1.356 . S
N407 H412 0.984 . S
N407 H413 0.985 . S
C408 C402 1.379 . S
C408 C405 1.363 . S
C408 N406 1.356 . S
C409 C403 1.363 . S
C409 C404 1.379 . S
C409 N407 1.356 . S
N410 C402 1.356 . S
N410 H416 0.984 . S
N410 H417 0.984 . S
N411 C404 1.356 1_556 S
N411 H414 0.984 . S
N411 H415 0.985 . S
H412 N407 0.984 . S
H413 N407 0.985 . S
H414 N411 0.984 . S
H415 N411 0.985 . S
H416 N410 0.984 . S
H417 N410 0.984 . S
H418 N406 0.984 . S
H419 N406 0.985 . S
C420 C421 1.363 . S
C420 C426 1.379 . S
C420 N428 1.356 . S
C421 C420 1.363 . S
C421 C427 1.363 . S
C422 C423 1.363 . S
C422 C427 1.379 . S
C422 N429 1.356 . S
C423 C422 1.363 . S
C423 C426 1.363 . S
N424 C426 1.356 1_556 S
N424 H436 0.984 . S
N424 H437 0.985 . S
N425 C427 1.356 . S
N425 H430 0.984 . S
N425 H431 0.985 . S
C426 C420 1.379 . S
C426 C423 1.363 . S
C426 N424 1.356 1_554 S
C427 C421 1.363 . S
C427 C422 1.379 . S
C427 N425 1.356 . S
N428 C420 1.356 . S
N428 H434 0.984 . S
N428 H435 0.984 . S
N429 C422 1.356 . S
N429 H432 0.984 . S
N429 H433 0.985 . S
H430 N425 0.984 . S
H431 N425 0.985 . S
H432 N429 0.984 . S
H433 N429 0.985 . S
H434 N428 0.984 . S
H435 N428 0.984 . S
H436 N424 0.984 . S
H437 N424 0.985 . S
C438 C439 1.355 1_455 S
C438 C444 1.379 . S
C438 N446 1.356 . S
C439 C438 1.355 1_655 S
C439 C445 1.371 . S
C440 C441 1.363 . S
C440 C445 1.379 . S
C440 N447 1.356 1_554 S
C441 C440 1.363 . S
C441 C444 1.363 1_655 S
N442 C444 1.356 . S
N442 H454 0.984 . S
N442 H455 0.985 . S
N443 C445 1.356 . S
N443 H448 0.984 . S
N443 H449 0.985 . S
C444 C438 1.379 . S
C444 C441 1.363 1_455 S
C444 N442 1.356 . S
C445 C439 1.371 . S
C445 C440 1.379 . S
C445 N443 1.356 . S
N446 C438 1.356 . S
N446 H452 0.984 . S
N446 H453 0.984 . S
N447 C440 1.356 1_556 S
N447 H450 0.984 . S
N447 H451 0.985 . S
H448 N443 0.984 . S
H449 N443 0.985 . S
H450 N447 0.984 . S
H451 N447 0.985 . S
H452 N446 0.984 . S
H453 N446 0.984 . S
H454 N442 0.984 . S
H455 N442 0.985 . S
C456 C457 1.363 . S
C456 C462 1.379 . S
C456 N464 1.356 1_554 S
C457 C456 1.363 . S
C457 C463 1.363 1_655 S
C458 C459 1.363 . S
C458 C463 1.379 1_655 S
C458 N465 1.356 . S
C459 C458 1.363 . S
C459 C462 1.363 . S
N460 C462 1.356 . S
N460 H472 0.984 1_554 S
N460 H473 0.985 . S
N461 C463 1.356 . S
N461 H466 0.984 . S
N461 H467 0.985 . S
C462 C456 1.379 . S
C462 C459 1.363 . S
C462 N460 1.356 . S
C463 C457 1.363 1_455 S
C463 C458 1.379 1_455 S
C463 N461 1.356 . S
N464 C456 1.356 1_556 S
N464 H470 0.984 . S
N464 H471 0.984 . S
N465 C458 1.356 . S
N465 H468 0.984 . S
N465 H469 0.985 . S
H466 N461 0.984 . S
H467 N461 0.985 . S
H468 N465 0.984 . S
H469 N465 0.985 . S
H470 N464 0.984 . S
H471 N464 0.984 . S
H472 N460 0.984 1_556 S
H473 N460 0.985 . S
C474 C475 1.363 1_545 S
C474 C480 1.379 1_545 S
C474 N482 1.356 . S
C475 C474 1.363 1_565 S
C475 C481 1.363 . S
C476 C477 1.363 . S
C476 C481 1.379 . S
C476 N483 1.356 . S
C477 C476 1.363 . S
C477 C480 1.363 . S
N478 C480 1.356 . S
N478 H490 0.984 1_565 S
N478 H491 0.985 . S
N479 C481 1.356 . S
N479 H484 0.984 . S
N479 H485 0.985 . S
C480 C474 1.379 1_565 S
C480 C477 1.363 . S
C480 N478 1.356 . S
C481 C475 1.363 . S
C481 C476 1.379 . S
C481 N479 1.356 . S
N482 C474 1.356 . S
N482 H488 0.984 . S
N482 H489 0.984 . S
N483 C476 1.356 . S
N483 H486 0.984 . S
N483 H487 0.985 . S
H484 N479 0.984 . S
H485 N479 0.985 . S
H486 N483 0.984 . S
H487 N483 0.985 . S
H488 N482 0.984 . S
H489 N482 0.984 . S
H490 N478 0.984 1_545 S
H491 N478 0.985 . S
C492 C493 1.363 . S
C492 C498 1.379 . S
C492 N500 1.356 1_554 S
C493 C492 1.363 . S
C493 C499 1.363 . S
C494 C495 1.363 . S
C494 C499 1.379 . S
C494 N501 1.356 . S
C495 C494 1.363 . S
C495 C498 1.363 . S
N496 C498 1.356 . S
N496 H508 0.984 1_554 S
N496 H509 0.985 . S
N497 C499 1.356 . S
N497 H502 0.984 . S
N497 H503 0.985 . S
C498 C492 1.379 . S
C498 C495 1.363 . S
C498 N496 1.356 . S
C499 C493 1.363 . S
C499 C494 1.379 . S
C499 N497 1.356 . S
N500 C492 1.356 1_556 S
N500 H506 0.984 . S
N500 H507 0.984 . S
N501 C494 1.356 . S
N501 H504 0.984 . S
N501 H505 0.985 . S
H502 N497 0.984 . S
H503 N497 0.985 . S
H504 N501 0.984 . S
H505 N501 0.985 . S
H506 N500 0.984 . S
H507 N500 0.984 . S
H508 N496 0.984 1_556 S
H509 N496 0.985 . S
C510 C511 1.363 . S
C510 C516 1.379 . S
C510 N518 1.356 . S
C511 C510 1.363 . S
C511 C517 1.363 . S
C512 C513 1.363 . S
C512 C517 1.379 . S
C512 N519 1.356 . S
C513 C512 1.363 . S
C513 C516 1.363 . S
N514 C516 1.356 . S
N514 H526 0.984 . S
N514 H527 0.985 . S
N515 C517 1.356 . S
N515 H520 0.984 . S
N515 H521 0.985 1_554 S
C516 C510 1.379 . S
C516 C513 1.363 . S
C516 N514 1.356 . S
C517 C511 1.363 . S
C517 C512 1.379 . S
C517 N515 1.356 . S
N518 C510 1.356 . S
N518 H524 0.984 . S
N518 H525 0.984 . S
N519 C512 1.356 . S
N519 H522 0.984 . S
N519 H523 0.985 . S
H520 N515 0.984 . S
H521 N515 0.985 1_556 S
H522 N519 0.984 . S
H523 N519 0.985 . S
H524 N518 0.984 . S
H525 N518 0.984 . S
H526 N514 0.984 . S
H527 N514 0.985 . S
C528 C529 1.364 . S
C528 C534 1.398 . S
C528 N536 1.334 1_455 S
C529 C528 1.364 . S
C529 C535 1.363 . S
C530 C531 1.363 . S
C530 C535 1.379 . S
C530 N537 1.356 . S
C531 C530 1.363 . S
C531 C534 1.363 . S
N532 C534 1.356 . S
N532 H544 0.984 . S
N532 H545 0.985 . S
N533 C535 1.356 . S
N533 H538 0.992 . S
N533 H539 0.985 . S
C534 C528 1.398 . S
C534 C531 1.363 . S
C534 N532 1.356 . S
C535 C529 1.363 . S
C535 C530 1.379 . S
C535 N533 1.356 . S
N536 C528 1.334 1_655 S
N536 H542 0.984 . S
N536 H543 0.984 . S
N537 C530 1.356 . S
N537 H540 0.984 . S
N537 H541 0.985 . S
H538 N533 0.992 . S
H539 N533 0.985 . S
H540 N537 0.984 . S
H541 N537 0.985 . S
H542 N536 0.984 . S
H543 N536 0.984 . S
H544 N532 0.984 . S
H545 N532 0.985 . S
C546 C547 1.363 . S
C546 C552 1.379 . S
C546 N554 1.356 1_545 S
C547 C546 1.363 . S
C547 C553 1.363 . S
C548 C549 1.363 . S
C548 C553 1.379 . S
C548 N555 1.356 . S
C549 C548 1.363 . S
C549 C552 1.363 . S
N550 C552 1.356 . S
N550 H562 0.984 . S
N550 H563 0.985 . S
N551 C553 1.356 . S
N551 H556 0.984 1_545 S
N551 H557 0.985 . S
C552 C546 1.379 . S
C552 C549 1.363 . S
C552 N550 1.356 . S
C553 C547 1.363 . S
C553 C548 1.379 . S
C553 N551 1.356 . S
N554 C546 1.356 1_565 S
N554 H560 0.984 . S
N554 H561 0.984 . S
N555 C548 1.356 . S
N555 H558 0.984 . S
N555 H559 0.985 . S
H556 N551 0.984 1_565 S
H557 N551 0.985 . S
H558 N555 0.984 . S
H559 N555 0.985 . S
H560 N554 0.984 . S
H561 N554 0.984 . S
H562 N550 0.984 . S
H563 N550 0.985 . S
C564 C565 1.363 . S
C564 C570 1.379 . S
C564 N572 1.356 . S
C565 C564 1.363 . S
C565 C571 1.363 . S
C566 C567 1.363 . S
C566 C571 1.379 . S
C566 N573 1.356 . S
C567 C566 1.363 . S
C567 C570 1.363 . S
N568 C570 1.356 . S
N568 H580 0.984 . S
N568 H581 0.985 . S
N569 C571 1.356 . S
N569 H574 0.984 . S
N569 H575 0.985 . S
C570 C564 1.379 . S
C570 C567 1.363 . S
C570 N568 1.356 . S
C571 C565 1.363 . S
C571 C566 1.379 . S
C571 N569 1.356 . S
N572 C564 1.356 . S
N572 H578 0.984 . S
N572 H579 0.984 . S
N573 C566 1.356 . S
N573 H576 0.984 . S
N573 H577 0.985 . S
H574 N569 0.984 . S
H575 N569 0.985 . S
H576 N573 0.984 . S
H577 N573 0.985 . S
H578 N572 0.984 . S
H579 N572 0.984 . S
H580 N568 0.984 . S
H581 N568 0.985 . S
C582 C583 1.363 . S
C582 C588 1.379 . S
C582 N590 1.356 . S
C583 C582 1.363 . S
C583 C589 1.363 . S
C584 C585 1.363 . S
C584 C589 1.379 . S
C584 N591 1.356 . S
C585 C584 1.363 . S
C585 C588 1.363 . S
N586 C588 1.356 . S
N586 H598 0.984 . S
N586 H599 0.985 . S
N587 C589 1.356 . S
N587 H592 0.984 . S
N587 H593 0.985 . S
C588 C582 1.379 . S
C588 C585 1.363 . S
C588 N586 1.356 . S
C589 C583 1.363 . S
C589 C584 1.379 . S
C589 N587 1.356 . S
N590 C582 1.356 . S
N590 H596 0.984 . S
N590 H597 0.984 . S
N591 C584 1.356 . S
N591 H594 0.984 . S
N591 H595 0.985 . S
H592 N587 0.984 . S
H593 N587 0.985 . S
H594 N591 0.984 . S
H595 N591 0.985 . S
H596 N590 0.984 . S
H597 N590 0.984 . S
H598 N586 0.984 . S
H599 N586 0.985 . S
C600 C601 1.363 1_655 S
C600 C606 1.379 . S
C600 N608 1.356 . S
C601 C600 1.363 1_455 S
C601 C607 1.363 . S
C602 C603 1.363 . S
C602 C607 1.379 . S
C602 N609 1.357 . S
C603 C602 1.363 . S
C603 C606 1.363 1_455 S
N604 C606 1.356 . S
N604 H616 0.984 . S
N604 H617 0.985 . S
N605 C607 1.356 . S
N605 H610 0.984 . S
N605 H611 0.985 1_556 S
C606 C600 1.379 . S
C606 C603 1.363 1_655 S
C606 N604 1.356 . S
C607 C601 1.363 . S
C607 C602 1.379 . S
C607 N605 1.356 . S
N608 C600 1.356 . S
N608 H614 0.984 . S
N608 H615 0.984 . S
N609 C602 1.357 . S
N609 H612 0.985 . S
N609 H613 0.984 1_556 S
H610 N605 0.984 . S
H611 N605 0.985 1_554 S
H612 N609 0.985 . S
H613 N609 0.984 1_554 S
H614 N608 0.984 . S
H615 N608 0.984 . S
H616 N604 0.984 . S
H617 N604 0.985 . S
C618 C619 1.363 . S
C618 C624 1.379 . S
C618 N626 1.356 . S
C619 C618 1.363 . S
C619 C625 1.363 1_545 S
C620 C621 1.363 1_565 S
C620 C625 1.379 . S
C620 N627 1.356 1_556 S
C621 C620 1.363 1_545 S
C621 C624 1.363 . S
N622 C624 1.356 . S
N622 H634 0.984 . S
N622 H635 0.985 . S
N623 C625 1.356 . S
N623 H628 0.984 . S
N623 H629 0.985 1_556 S
C624 C618 1.379 . S
C624 C621 1.363 . S
C624 N622 1.356 . S
C625 C619 1.363 1_565 S
C625 C620 1.379 . S
C625 N623 1.356 . S
N626 C618 1.356 . S
N626 H632 0.984 . S
N626 H633 0.984 . S
N627 C620 1.356 1_554 S
N627 H630 0.984 . S
N627 H631 0.985 . S
H628 N623 0.984 . S
H629 N623 0.985 1_554 S
H630 N627 0.984 . S
H631 N627 0.985 . S
H632 N626 0.984 . S
H633 N626 0.984 . S
H634 N622 0.984 . S
H635 N622 0.985 . S
C636 C637 1.363 . S
C636 C642 1.379 . S
C636 N644 1.356 . S
C637 C636 1.363 . S
C637 C643 1.363 . S
C638 C639 1.363 . S
C638 C643 1.379 . S
C638 N645 1.356 . S
C639 C638 1.363 . S
C639 C642 1.363 . S
N640 C642 1.356 1_554 S
N640 H652 0.984 . S
N640 H653 0.985 1_554 S
N641 C643 1.356 . S
N641 H646 0.984 . S
N641 H647 0.985 . S
C642 C636 1.379 . S
C642 C639 1.363 . S
C642 N640 1.356 1_556 S
C643 C637 1.363 . S
C643 C638 1.379 . S
C643 N641 1.356 . S
N644 C636 1.356 . S
N644 H650 0.984 1_556 S
N644 H651 0.984 . S
N645 C638 1.356 . S
N645 H648 0.984 . S
N645 H649 0.985 . S
H646 N641 0.984 . S
H647 N641 0.985 . S
H648 N645 0.984 . S
H649 N645 0.985 . S
H650 N644 0.984 1_554 S
H651 N644 0.984 . S
H652 N640 0.984 . S
H653 N640 0.985 1_556 S
C654 C655 1.363 . S
C654 C660 1.379 . S
C654 N662 1.356 . S
C655 C654 1.363 . S
C655 C661 1.363 . S
C656 C657 1.363 . S
C656 C661 1.379 . S
C656 N663 1.356 . S
C657 C656 1.363 . S
C657 C660 1.363 . S
N658 C660 1.356 . S
N658 H670 0.984 . S
N658 H671 0.985 . S
N659 C661 1.356 . S
N659 H664 0.984 . S
N659 H665 0.985 . S
C660 C654 1.379 . S
C660 C657 1.363 . S
C660 N658 1.356 . S
C661 C655 1.363 . S
C661 C656 1.379 . S
C661 N659 1.356 . S
N662 C654 1.356 . S
N662 H668 0.984 . S
N662 H669 0.984 . S
N663 C656 1.356 . S
N663 H666 0.984 . S
N663 H667 0.985 . S
H664 N659 0.984 . S
H665 N659 0.985 . S
H666 N663 0.984 . S
H667 N663 0.985 . S
H668 N662 0.984 . S
H669 N662 0.984 . S
H670 N658 0.984 . S
H671 N658 0.985 . S
C672 C673 1.363 . S
C672 C678 1.379 . S
C672 N680 1.356 . S
C673 C672 1.363 . S
C673 C679 1.363 1_655 S
C674 C675 1.363 1_455 S
C674 C679 1.379 . S
C674 N681 1.356 . S
C675 C674 1.363 1_655 S
C675 C678 1.363 . S
N676 C678 1.356 . S
N676 H688 0.984 . S
N676 H689 0.985 . S
N677 C679 1.356 . S
N677 H682 0.984 . S
N677 H683 0.985 . S
C678 C672 1.379 . S
C678 C675 1.363 . S
C678 N676 1.356 . S
C679 C673 1.363 1_455 S
C679 C674 1.379 . S
C679 N677 1.356 . S
N680 C672 1.356 . S
N680 H686 0.984 1_556 S
N680 H687 0.984 . S
N681 C674 1.356 . S
N681 H684 0.984 . S
N681 H685 0.985 . S
H682 N677 0.984 . S
H683 N677 0.985 . S
H684 N681 0.984 . S
H685 N681 0.985 . S
H686 N680 0.984 1_554 S
H687 N680 0.984 . S
H688 N676 0.984 . S
H689 N676 0.985 . S
C690 C691 1.363 1_545 S
C690 C696 1.379 . S
C690 N698 1.356 . S
C691 C690 1.363 1_565 S
C691 C697 1.363 . S
C692 C693 1.363 . S
C692 C697 1.379 . S
C692 N699 1.356 . S
C693 C692 1.363 . S
C693 C696 1.363 1_565 S
N694 C696 1.356 . S
N694 H706 0.984 . S
N694 H707 0.985 . S
N695 C697 1.356 . S
N695 H700 0.984 . S
N695 H701 0.985 . S
C696 C690 1.379 . S
C696 C693 1.363 1_545 S
C696 N694 1.356 . S
C697 C691 1.363 . S
C697 C692 1.379 . S
C697 N695 1.356 . S
N698 C690 1.356 . S
N698 H704 0.984 . S
N698 H705 0.984 . S
N699 C692 1.356 . S
N699 H702 0.984 . S
N699 H703 0.985 . S
H700 N695 0.984 . S
H701 N695 0.985 . S
H702 N699 0.984 . S
H703 N699 0.985 . S
H704 N698 0.984 . S
H705 N698 0.984 . S
H706 N694 0.984 . S
H707 N694 0.985 . S
C708 C709 1.363 . S
C708 C714 1.379 . S
C708 N716 1.356 . S
C709 C708 1.363 . S
C709 C715 1.363 . S
C710 C711 1.363 . S
C710 C715 1.379 . S
C710 N717 1.356 . S
C711 C710 1.363 . S
C711 C714 1.363 . S
N712 C714 1.356 . S
N712 H724 0.984 . S
N712 H725 0.985 . S
N713 C715 1.356 . S
N713 H718 0.984 . S
N713 H719 0.985 . S
C714 C708 1.379 . S
C714 C711 1.363 . S
C714 N712 1.356 . S
C715 C709 1.363 . S
C715 C710 1.379 . S
C715 N713 1.356 . S
N716 C708 1.356 . S
N716 H722 0.984 1_556 S
N716 H723 0.984 . S
N717 C710 1.356 . S
N717 H720 0.984 . S
N717 H721 0.985 . S
H718 N713 0.984 . S
H719 N713 0.985 . S
H720 N717 0.984 . S
H721 N717 0.985 . S
H722 N716 0.984 1_554 S
H723 N716 0.984 . S
H724 N712 0.984 . S
H725 N712 0.985 . S
C726 C727 1.363 . S
C726 C732 1.379 . S
C726 N734 1.356 . S
C727 C726 1.363 . S
C727 C733 1.363 . S
C728 C729 1.363 . S
C728 C733 1.379 . S
C728 N735 1.356 . S
C729 C728 1.363 . S
C729 C732 1.363 . S
N730 C732 1.356 . S
N730 H742 0.984 . S
N730 H743 0.985 . S
N731 C733 1.356 . S
N731 H736 0.984 . S
N731 H737 0.985 . S
C732 C726 1.379 . S
C732 C729 1.363 . S
C732 N730 1.356 . S
C733 C727 1.363 . S
C733 C728 1.379 . S
C733 N731 1.356 . S
N734 C726 1.356 . S
N734 H740 0.984 . S
N734 H741 0.984 . S
N735 C728 1.356 . S
N735 H738 0.984 . S
N735 H739 0.985 . S
H736 N731 0.984 . S
H737 N731 0.985 . S
H738 N735 0.984 . S
H739 N735 0.985 . S
H740 N734 0.984 . S
H741 N734 0.984 . S
H742 N730 0.984 . S
H743 N730 0.985 . S
C313 C125 2.098 1_545 S
C315 C161 2.150 1_545 S
C333 C201 2.166 . S
C331 C144 2.125 . S
C351 C241 2.173 . S
C349 C87 2.138 . S
C369 C281 2.159 1_455 S
C367 C106 2.106 1_455 S
C387 C170 2.152 1_564 S
C385 C49 2.100 . S
C403 C68 2.097 . S
C405 C210 2.167 1_554 S
C421 C11 2.104 . S
C423 C250 2.173 1_554 S
C439 C30 2.106 . S
C441 C290 2.161 1_654 S
C459 C167 0.815 . S
C457 C97 0.808 . S
C477 C207 0.818 . S
C475 C116 0.813 . S
C495 C247 0.813 . S
C493 C135 0.809 . S
C511 C78 0.806 . S
C513 C287 0.806 . S
C529 C21 0.811 1_455 S
C531 C158 0.818 . S
C549 C198 0.818 . S
C547 C40 0.814 1_545 S
C567 C238 0.813 . S
C565 C59 0.810 . S
C583 C2 0.807 . S
C585 C278 0.813 . S
C601 C101 2.250 1_455 S
C603 C171 2.551 . S
C619 C120 2.221 1_545 S
C621 C211 2.526 . S
C639 C251 2.516 . S
C637 C139 2.214 . S
C657 C291 2.545 . S
C655 C82 2.238 . S
C673 C25 2.249 . S
C675 C162 2.560 . S
C693 C202 2.526 . S
C691 C44 2.220 . S
C711 C242 2.516 . S
C709 C63 2.209 . S
C727 C6 2.238 . S
C729 C282 2.549 . S
