# Generated by pormake.
# Topology zzz, (3,6)-cn, num edge types: 1
# Building blocks:
#     Node 0, Type 0, BuildingBlock: ESEHIV_clean_linker_0, # of connection points: 3
#     Node 1, Type 0, BuildingBlock: ESEHIV_clean_linker_0, # of connection points: 3
#     Node 2, Type 0, BuildingBlock: ESEHIV_clean_linker_0, # of connection points: 3
#     Node 3, Type 0, BuildingBlock: ESEHIV_clean_linker_0, # of connection points: 3
#     Node 4, Type 0, BuildingBlock: ESEHIV_clean_linker_0, # of connection points: 3
#     Node 5, Type 0, BuildingBlock: ESEHIV_clean_linker_0, # of connection points: 3
#     Node 6, Type 0, BuildingBlock: ESEHIV_clean_linker_0, # of connection points: 3
#     Node 7, Type 0, BuildingBlock: ESEHIV_clean_linker_0, # of connection points: 3
#     Node 8, Type 1, BuildingBlock: PAMTOO_clean_sbu_0, # of connection points: 6
#     Node 9, Type 1, BuildingBlock: PAMTOO_clean_sbu_0, # of connection points: 6
#     Node 10, Type 1, BuildingBlock: PAMTOO_clean_sbu_0, # of connection points: 6
#     Node 11, Type 1, BuildingBlock: PAMTOO_clean_sbu_0, # of connection points: 6
#     Edge 12, Type (0, 1), BuildingBlock: CIFDUS_clean_linker_0, # of connection points: 2
#     Edge 13, Type (0, 1), BuildingBlock: CIFDUS_clean_linker_0, # of connection points: 2
#     Edge 14, Type (0, 1), BuildingBlock: CIFDUS_clean_linker_0, # of connection points: 2
#     Edge 15, Type (0, 1), BuildingBlock: CIFDUS_clean_linker_0, # of connection points: 2
#     Edge 16, Type (0, 1), BuildingBlock: CIFDUS_clean_linker_0, # of connection points: 2
#     Edge 17, Type (0, 1), BuildingBlock: CIFDUS_clean_linker_0, # of connection points: 2
#     Edge 18, Type (0, 1), BuildingBlock: CIFDUS_clean_linker_0, # of connection points: 2
#     Edge 19, Type (0, 1), BuildingBlock: CIFDUS_clean_linker_0, # of connection points: 2
#     Edge 20, Type (0, 1), BuildingBlock: CIFDUS_clean_linker_0, # of connection points: 2
#     Edge 21, Type (0, 1), BuildingBlock: CIFDUS_clean_linker_0, # of connection points: 2
#     Edge 22, Type (0, 1), BuildingBlock: CIFDUS_clean_linker_0, # of connection points: 2
#     Edge 23, Type (0, 1), BuildingBlock: CIFDUS_clean_linker_0, # of connection points: 2
#     Edge 24, Type (0, 1), BuildingBlock: CIFDUS_clean_linker_0, # of connection points: 2
#     Edge 25, Type (0, 1), BuildingBlock: CIFDUS_clean_linker_0, # of connection points: 2
#     Edge 26, Type (0, 1), BuildingBlock: CIFDUS_clean_linker_0, # of connection points: 2
#     Edge 27, Type (0, 1), BuildingBlock: CIFDUS_clean_linker_0, # of connection points: 2
#     Edge 28, Type (0, 1), BuildingBlock: CIFDUS_clean_linker_0, # of connection points: 2
#     Edge 29, Type (0, 1), BuildingBlock: CIFDUS_clean_linker_0, # of connection points: 2
#     Edge 30, Type (0, 1), BuildingBlock: CIFDUS_clean_linker_0, # of connection points: 2
#     Edge 31, Type (0, 1), BuildingBlock: CIFDUS_clean_linker_0, # of connection points: 2
#     Edge 32, Type (0, 1), BuildingBlock: CIFDUS_clean_linker_0, # of connection points: 2
#     Edge 33, Type (0, 1), BuildingBlock: CIFDUS_clean_linker_0, # of connection points: 2
#     Edge 34, Type (0, 1), BuildingBlock: CIFDUS_clean_linker_0, # of connection points: 2
#     Edge 35, Type (0, 1), BuildingBlock: CIFDUS_clean_linker_0, # of connection points: 2
# Relax obj value: 0.421
# Max RMSD: 0.293
# Mean RMSD: 0.224
data_MOF--net-zzz--node1-PAMTOO_clean_sbu_0--node2-ESEHIV_clean_linker_0--edge1-CIFDUS_clean_linker_0
_symmetry_space_group_name_H-M    P1
_symmetry_Int_Tables_number       1
_symmetry_cell_setting            triclinic
loop_
_symmetry_equiv_pos_as_xyz
'x, y, z'
_cell_length_a     44.707211
_cell_length_b     36.819367
_cell_length_c     14.137396
_cell_angle_alpha  91.671325
_cell_angle_beta   77.578642
_cell_angle_gamma 84.361477
loop_
_atom_site_label
_atom_site_type_symbol
_atom_site_fract_x
_atom_site_fract_y
_atom_site_fract_z
_atom_type_partial_charge
H0 H 0.81924 0.62377 0.61533 0.0
H1 H 0.74768 0.61456 0.4593 0.0
H2 H 0.79279 0.51826 0.55392 0.0
C3 C 0.80429 0.60767 0.58506 0.0
C4 C 0.80859 0.56959 0.59137 0.0
C5 C 0.78569 0.6238 0.52566 0.0
C6 C 0.76416 0.60253 0.49846 0.0
C7 C 0.76633 0.56452 0.50806 0.0
C8 C 0.78913 0.54777 0.55332 0.0
H9 H 0.09335 0.78202 0.44614 0.0
H10 H 0.09455 0.69549 0.235 0.0
H11 H 1.01133 0.73064 0.4465 0.0
C12 C 0.0826 0.76006 0.41891 0.0
C13 C 0.05183 0.7561 0.46331 0.0
C14 C 0.09794 0.73973 0.33357 0.0
C15 C 0.08273 0.7126 0.29824 0.0
C16 C 0.05115 0.71048 0.33431 0.0
C17 C 0.03574 0.73181 0.41861 0.0
H18 H 0.72207 0.93977 0.37362 0.0
H19 H 0.81338 0.94769 0.21214 0.0
H20 H 0.78482 0.99484 0.50538 0.0
C21 C 0.74501 0.94747 0.37159 0.0
C22 C 0.75013 0.9678 0.45089 0.0
C23 C 0.76715 0.94153 0.28485 0.0
C24 C 0.79653 0.95184 0.28043 0.0
C25 C 0.80375 0.97011 0.35979 0.0
C26 C 0.78022 0.97871 0.44587 0.0
H27 H 0.45194 0.7071 0.50516 0.0
H28 H 0.50104 0.80177 0.46916 0.0
H29 H 0.47247 0.75207 0.22666 0.0
C30 C 0.46097 0.72862 0.45995 0.0
C31 C 0.46132 0.72609 0.36146 0.0
C32 C 0.47792 0.75317 0.49661 0.0
C33 C 0.48892 0.78194 0.43891 0.0
C34 C 0.48396 0.78438 0.34254 0.0
C35 C 0.4719 0.75452 0.3035 0.0
H36 H 0.22531 0.42019 0.99191 0.0
H37 H 0.29678 0.41433 0.15208 0.0
H38 H 0.2544 0.51885 0.09225 0.0
C39 C 0.24135 0.4332 0.0256 0.0
C40 C 0.23835 0.47146 0.03241 0.0
C41 C 0.25942 0.41252 0.07927 0.0
C42 C 0.28153 0.43021 0.11509 0.0
C43 C 0.28023 0.46866 0.1208 0.0
C44 C 0.25745 0.48933 0.08253 0.0
H45 H 0.93853 0.22717 0.27955 0.0
H46 H 0.92985 0.31315 0.49977 0.0
H47 H 0.01759 0.27855 0.31125 0.0
C48 C 0.9476 0.2488 0.31406 0.0
C49 C 0.97897 0.25281 0.28028 0.0
C50 C 0.92963 0.26842 0.39761 0.0
C51 C 0.94331 0.2956 0.44001 0.0
C52 C 0.97513 0.29847 0.41286 0.0
C53 C 0.99295 0.27721 0.33174 0.0
H54 H 0.32735 0.93794 0.303 0.0
H55 H 0.24119 0.93436 0.50517 0.0
H56 H 0.25032 0.01632 0.29125 0.0
C57 C 0.3032 0.94795 0.32844 0.0
C58 C 0.29107 0.97797 0.28493 0.0
C59 C 0.28555 0.9323 0.40798 0.0
C60 C 0.25465 0.94605 0.44246 0.0
C61 C 0.24144 0.97618 0.4014 0.0
C62 C 0.2599 0.99253 0.32227 0.0
H63 H 0.49523 0.34317 0.3231 0.0
H64 H 0.49252 0.22855 0.26393 0.0
H65 H 0.49576 0.27026 0.55189 0.0
C66 C 0.49447 0.31561 0.34835 0.0
C67 C 0.49539 0.30974 0.44437 0.0
C68 C 0.49314 0.28722 0.28276 0.0
C69 C 0.49313 0.25092 0.31465 0.0
C70 C 0.49493 0.24403 0.41257 0.0
C71 C 0.4956 0.27418 0.47634 0.0
Dy72 Dy 0.99738 0.00996 0.80557 0.0
Dy73 Dy 0.03828 0.99208 0.96753 0.0
C74 C 0.07156 0.99779 0.74235 0.0
O75 O 0.99903 0.94967 0.82433 0.0
O76 O 0.04416 0.94019 0.87523 0.0
O77 O 0.99024 0.03188 0.67153 0.0
O78 O 0.95586 1.00132 0.75687 0.0
O79 O 0.98865 0.98603 0.04233 0.0
O80 O 0.96487 0.02361 0.94884 0.0
O81 O 0.02016 0.05062 0.99742 0.0
O82 O 1.00832 0.0654 0.85206 0.0
O83 O 0.04865 0.96077 0.08524 0.0
O84 O 0.07349 0.00724 0.03982 0.0
C85 C 0.02313 0.92795 0.83407 0.0
O86 O 0.04534 0.99252 0.71885 0.0
O87 O 0.07281 0.00479 0.8333 0.0
C88 C 0.93821 0.04906 0.66929 0.0
C89 C 0.89567 0.1039 0.62386 0.0
C90 C 0.91659 0.11229 0.68122 0.0
C91 C 0.93743 0.08515 0.70419 0.0
C92 C 0.91624 0.03986 0.61788 0.0
C93 C 0.89498 0.06702 0.59582 0.0
C94 C 0.96268 0.02135 0.68239 0.0
C95 C 0.96386 0.00587 0.02852 0.0
C96 C 1.0138 0.07497 0.93686 0.0
C97 C 0.09907 0.9595 0.10992 0.0
C98 C 0.14593 0.90794 0.14345 0.0
C99 C 0.12644 0.92941 0.22096 0.0
C100 C 0.10321 0.95486 0.20416 0.0
C101 C 0.12042 0.94143 0.0313 0.0
C102 C 0.14401 0.91615 0.04793 0.0
C103 C 0.07062 0.98014 0.09716 0.0
H104 H 0.91861 0.14019 0.70311 0.0
H105 H 0.95396 0.09269 0.74522 0.0
H106 H 0.91626 0.0119 0.59178 0.0
H107 H 0.87898 0.0593 0.55312 0.0
H108 H 0.12678 0.92409 0.2956 0.0
H109 H 0.08706 0.96897 0.26558 0.0
H110 H 0.11772 0.94519 0.95773 0.0
H111 H 0.15905 0.90086 0.98633 0.0
Dy112 Dy 0.5011 0.98111 0.74878 0.0
Dy113 Dy 0.52445 0.02358 0.91876 0.0
C114 C 0.50572 0.06681 0.73401 0.0
O115 O 0.54968 0.99507 0.69127 0.0
O116 O 0.56679 0.99107 0.82942 0.0
O117 O 0.47472 0.97164 0.64151 0.0
O118 O 0.51446 0.93363 0.64977 0.0
O119 O 0.51988 0.96888 0.98158 0.0
O120 O 0.50184 0.93958 0.86285 0.0
O121 O 0.47272 0.03269 0.96776 0.0
O122 O 0.45723 0.99222 0.86451 0.0
O123 O 0.52874 0.03554 0.06586 0.0
O124 O 0.5521 0.06564 0.94841 0.0
C125 C 0.57282 0.99154 0.73503 0.0
O126 O 0.49268 0.03895 0.70725 0.0
O127 O 0.52006 0.06491 0.80639 0.0
C128 C 0.47407 0.91044 0.59119 0.0
C129 C 0.43046 0.86494 0.55474 0.0
C130 C 0.43435 0.87111 0.65003 0.0
C131 C 0.45584 0.89411 0.66827 0.0
C132 C 0.47296 0.90078 0.49581 0.0
C133 C 0.45135 0.87825 0.47757 0.0
C134 C 0.49131 0.94088 0.60815 0.0
C135 C 0.50932 0.94032 0.94811 0.0
C136 C 0.45123 0.01452 0.94284 0.0
C137 C 0.58138 0.04058 0.05125 0.0
C138 C 0.64287 0.01264 0.04294 0.0
C139 C 0.62198 0.99012 0.01753 0.0
C140 C 0.59154 0.00378 0.02324 0.0
C141 C 0.60197 0.06343 0.0763 0.0
C142 C 0.63244 0.04944 0.07344 0.0
C143 C 0.55125 0.05536 0.03614 0.0
H144 H 0.41906 0.86074 0.71098 0.0
H145 H 0.45676 0.90105 0.74253 0.0
H146 H 0.48712 0.91297 0.4355 0.0
H147 H 0.44905 0.87462 0.40331 0.0
H148 H 0.62912 0.96193 0.9921 0.0
H149 H 0.57612 0.98569 1.00251 0.0
H150 H 0.59467 0.09207 0.09627 0.0
H151 H 0.6477 0.06743 0.0957 0.0
Dy152 Dy 0.54091 0.52537 0.91026 0.0
Dy153 Dy 0.47575 0.51257 0.82361 0.0
C154 C 0.50445 0.45297 0.95998 0.0
O155 O 0.5524 0.47749 0.80349 0.0
O156 O 0.52083 0.50545 0.71862 0.0
O157 O 0.59005 0.52904 0.89768 0.0
O158 O 0.5574 0.54213 0.03519 0.0
O159 O 0.48604 0.57067 0.79505 0.0
O160 O 0.53795 0.56717 0.798 0.0
O161 O 0.4572 0.53399 0.97484 0.0
O162 O 0.50009 0.56232 0.98891 0.0
O163 O 0.43271 0.53123 0.78342 0.0
O164 O 0.4536 0.47569 0.74546 0.0
C165 C 0.54054 0.47769 0.72662 0.0
O166 O 0.52373 0.47545 0.98062 0.0
O167 O 0.4855 0.46109 0.90159 0.0
C168 C 0.61004 0.52749 0.04547 0.0
C169 C 0.65811 0.52011 0.15003 0.0
C170 C 0.62755 0.53199 0.19768 0.0
C171 C 0.60395 0.53567 0.14623 0.0
C172 C 0.64022 0.51383 0.99845 0.0
C173 C 0.66386 0.50995 0.0501 0.0
C174 C 0.58625 0.53918 0.98949 0.0
C175 C 0.5128 0.58448 0.77832 0.0
C176 C 0.47074 0.55779 0.01683 0.0
C177 C 0.41886 0.49965 0.64889 0.0
C178 C 0.39077 0.49602 0.48645 0.0
C179 C 0.39421 0.53001 0.52896 0.0
C180 C 0.40825 0.53183 0.60904 0.0
C181 C 0.41479 0.46588 0.60727 0.0
C182 C 0.4014 0.46405 0.52662 0.0
C183 C 0.43094 0.50009 0.7395 0.0
H184 H 0.62204 0.5406 0.27387 0.0
H185 H 0.58113 0.54687 0.18488 0.0
H186 H 0.64592 0.50755 0.92093 0.0
H187 H 0.68691 0.50005 1.01075 0.0
H188 H 0.38625 0.55515 0.49986 0.0
H189 H 0.41036 0.55838 0.64047 0.0
H190 H 0.42163 0.44062 0.6381 0.0
H191 H 0.39869 0.43741 0.49697 0.0
Dy192 Dy 0.0445 0.54443 0.69979 0.0
Dy193 Dy 1.01001 0.50728 0.89287 0.0
C194 C 0.03178 0.45892 0.69555 0.0
O195 O 0.99454 0.56399 0.71655 0.0
O196 O 0.9748 0.51665 0.80129 0.0
O197 O 0.04673 0.5589 0.5514 0.0
O198 O 0.08299 0.5709 0.62318 0.0
O199 O 0.99978 0.56769 0.91975 0.0
O200 O 0.04308 0.58467 0.82264 0.0
O201 O 0.0591 0.51046 0.90677 0.0
O202 O 0.08083 0.50726 0.74559 0.0
O203 O 1.00681 0.50101 0.04639 0.0
O204 O 0.97296 0.48021 0.97692 0.0
C205 C 0.97192 0.54365 0.74411 0.0
O206 O 0.03469 0.48961 0.65096 0.0
O207 O 0.02712 0.45804 0.79083 0.0
C208 C 0.09821 0.54035 0.46997 0.0
C209 C 0.14194 0.48041 0.39428 0.0
C210 C 0.11075 0.479 0.39338 0.0
C211 C 0.08912 0.50876 0.4304 0.0
C212 C 0.12971 0.54315 0.4615 0.0
C213 C 0.15136 0.51352 0.42381 0.0
C214 C 0.07548 0.56519 0.54014 0.0
C215 C 0.0206 0.59054 0.89987 0.0
C216 C 0.08368 0.50561 0.83575 0.0
C217 C 0.95543 0.52037 0.11466 0.0
C218 C 0.9196 0.58306 0.21371 0.0
C219 C 0.92307 0.5774 0.11323 0.0
C220 C 0.94051 0.54635 0.0646 0.0
C221 C 0.95231 0.52588 0.21489 0.0
C222 C 0.93429 0.55681 0.26426 0.0
C223 C 0.97873 0.49246 0.05801 0.0
H224 H 0.10275 0.45423 0.36945 0.0
H225 H 0.06501 0.50584 0.43451 0.0
H226 H 0.13741 0.56723 0.49065 0.0
H227 H 0.17544 0.51615 0.42121 0.0
H228 H 0.91252 0.59713 0.07165 0.0
H229 H 0.94318 0.54339 0.9867 0.0
H230 H 0.96426 0.50673 0.25448 0.0
H231 H 0.93161 0.55988 0.34214 0.0
H232 H 0.18775 0.94664 0.40206 0.0
H233 H 0.22393 0.03725 0.5217 0.0
H234 H 0.17484 0.05222 0.63934 0.0
H235 H 0.12268 0.03603 0.71825 0.0
H236 H 0.08591 0.94731 0.59118 0.0
H237 H 0.13376 0.93502 0.46798 0.0
C238 C 0.18448 0.97044 0.45171 0.0
C239 C 0.20938 0.99128 0.45149 0.0
C240 C 0.15613 0.97872 0.51972 0.0
C241 C 0.20498 0.02139 0.51832 0.0
C242 C 0.177 0.02959 0.58674 0.0
C243 C 0.1251 0.01418 0.66314 0.0
C244 C 0.10066 0.99241 0.66497 0.0
C245 C 0.1526 0.00788 0.58993 0.0
C246 C 0.10417 0.96454 0.59191 0.0
C247 C 0.13162 0.95747 0.52111 0.0
H248 H 0.52888 0.21734 0.53923 0.0
H249 H 0.46381 0.18511 0.37618 0.0
H250 H 0.46155 0.1272 0.45848 0.0
H251 H 0.476 0.08698 0.58575 0.0
H252 H 0.53847 0.12396 0.75348 0.0
H253 H 0.54276 0.17881 0.66305 0.0
C254 C 0.51385 0.19797 0.52183 0.0
C255 C 0.49613 0.20632 0.4521 0.0
C256 C 0.51179 0.16548 0.57195 0.0
C257 C 0.47782 0.17978 0.42892 0.0
C258 C 0.47628 0.1467 0.47699 0.0
C259 C 0.49046 0.10708 0.60276 0.0
C260 C 0.50668 0.10094 0.67778 0.0
C261 C 0.49275 0.13946 0.55021 0.0
C262 C 0.5254 0.12755 0.69757 0.0
C263 C 0.52806 0.15911 0.64527 0.0
H264 H 0.34087 0.44992 0.11948 0.0
H265 H 0.2626 0.5243 0.26241 0.0
H266 H 0.29096 0.54227 0.38341 0.0
H267 H 0.33603 0.53122 0.46025 0.0
H268 H 0.41257 0.45375 0.32021 0.0
H269 H 0.38692 0.44245 0.18795 0.0
C270 C 0.33011 0.47047 0.17633 0.0
C271 C 0.29949 0.48557 0.1815 0.0
C272 C 0.34618 0.47969 0.24765 0.0
C273 C 0.28617 0.51245 0.2554 0.0
C274 C 0.3023 0.52241 0.32558 0.0
C275 C 0.34727 0.51236 0.3999 0.0
C276 C 0.37615 0.4931 0.40092 0.0
C277 C 0.33202 0.50542 0.32421 0.0
C278 C 0.39025 0.46857 0.3222 0.0
C279 C 0.3756 0.46214 0.24627 0.0
H280 H 0.01678 0.34866 0.36393 0.0
H281 H 0.96525 0.29817 0.60946 0.0
H282 H 0.98099 0.34051 0.72052 0.0
H283 H 1.00445 0.39669 0.74825 0.0
H284 H 0.05604 0.44699 0.50287 0.0
H285 H 0.04589 0.40003 0.39287 0.0
C286 C 1.00951 0.34654 0.44168 0.0
C287 C 0.98925 0.32086 0.47798 0.0
C288 C 0.01853 0.37126 0.50582 0.0
C289 C 0.98021 0.31834 0.57929 0.0
C290 C 0.98927 0.3425 0.64314 0.0
C291 C 1.01407 0.39686 0.67103 0.0
C292 C 0.03066 0.42576 0.63404 0.0
C293 C 1.00768 0.36984 0.60739 0.0
C294 C 0.04285 0.42545 0.53343 0.0
C295 C 0.03699 0.39855 0.47013 0.0
H296 H 0.82406 0.02624 0.25413 0.0
H297 H 0.85503 0.93749 0.4125 0.0
H298 H 0.90861 0.94199 0.32886 0.0
H299 H 0.94588 0.96537 0.19144 0.0
H300 H 0.91269 0.05264 0.03032 0.0
H301 H 0.8615 0.05438 0.13295 0.0
C302 C 0.8427 0.00902 0.27362 0.0
C303 C 0.83544 0.98219 0.34166 0.0
C304 C 0.87328 0.01069 0.22174 0.0
C305 C 0.85988 0.95913 0.36297 0.0
C306 C 0.89056 0.96124 0.31341 0.0
C307 C 0.92758 0.98512 0.17966 0.0
C308 C 0.93352 0.00843 0.10127 0.0
C309 C 0.89747 0.98595 0.23952 0.0
C310 C 0.90919 0.03388 0.08832 0.0
C311 C 0.87966 0.03506 0.14755 0.0
H312 H 0.45895 0.80914 0.19149 0.0
H313 H 0.52793 0.83294 0.34998 0.0
H314 H 0.54115 0.88319 0.24548 0.0
H315 H 0.53421 0.91997 0.1045 0.0
H316 H 0.46904 0.8903 0.93807 0.0
H317 H 0.45459 0.84195 0.04734 0.0
C318 C 0.47757 0.82433 0.20257 0.0
C319 C 0.49255 0.81604 0.27931 0.0
C320 C 0.48614 0.85227 0.13929 0.0
C321 C 0.51555 0.83805 0.29307 0.0
C322 C 0.52343 0.86687 0.23228 0.0
C323 C 0.51702 0.90273 0.0917 0.0
C324 C 0.50288 0.90896 1.01218 0.0
C325 C 0.50905 0.87413 0.15449 0.0
C326 C 0.48065 0.88617 0.99736 0.0
C327 C 0.47216 0.85853 0.06048 0.0
H328 H 0.77305 0.55779 0.31446 0.0
H329 H 0.71693 0.52705 0.58101 0.0
H330 H 0.67917 0.50734 0.49217 0.0
H331 H 0.65952 0.50569 0.34055 0.0
H332 H 0.71551 0.54037 0.077 0.0
H333 H 0.75587 0.55098 0.16203 0.0
C334 C 0.75297 0.54571 0.35255 0.0
C335 C 0.74792 0.54347 0.45399 0.0
C336 C 0.73105 0.5356 0.30141 0.0
C337 C 0.72158 0.52844 0.50285 0.0
C338 C 0.69983 0.51764 0.45205 0.0
C339 C 0.68059 0.51537 0.30141 0.0
C340 C 0.68409 0.5222 0.20172 0.0
C341 C 0.70382 0.52223 0.35164 0.0
C342 C 0.71198 0.53423 0.15277 0.0
C343 C 0.73515 0.54068 0.20173 0.0
H344 H 0.05278 0.71962 0.14586 0.0
H345 H 1.01319 0.65563 0.38189 0.0
H346 H 0.99578 0.61523 0.26727 0.0
H347 H 0.99893 0.59341 0.09656 0.0
H348 H 0.04377 0.65533 0.86266 0.0
H349 H 0.05218 0.70122 0.97954 0.0
C350 C 0.04001 0.69704 0.17247 0.0
C351 C 0.0347 0.69022 0.27193 0.0
C352 C 0.03146 0.6733 0.10605 0.0
C353 C 0.01763 0.66136 0.30572 0.0
C354 C 1.00798 0.63812 0.23997 0.0
C355 C 1.00995 0.61737 0.07133 0.0
C356 C 0.02085 0.62093 0.97081 0.0
C357 C 1.01579 0.64307 0.13944 0.0
C358 C 0.03536 0.65188 0.93931 0.0
C359 C 0.04021 0.67808 1.00617 0.0
H360 H 0.89139 0.22132 0.33466 0.0
H361 H 0.89825 0.28334 0.59252 0.0
H362 H 0.87459 0.23789 0.6919 0.0
H363 H 0.87212 0.17215 0.70393 0.0
H364 H 0.88233 0.1044 0.44203 0.0
H365 H 0.87897 0.15841 0.34932 0.0
C366 C 0.88848 0.22492 0.41244 0.0
C367 C 0.90088 0.25387 0.4535 0.0
C368 C 0.87839 0.19624 0.47006 0.0
C369 C 0.89184 0.26032 0.55538 0.0
C370 C 0.87824 0.23387 0.61381 0.0
C371 C 0.87315 0.16914 0.62672 0.0
C372 C 0.87953 0.13414 0.5796 0.0
C373 C 0.87489 0.20014 0.57153 0.0
C374 C 0.87838 0.1308 0.48085 0.0
C375 C 0.87688 0.16189 0.42696 0.0
H376 H 0.32615 0.87223 0.33996 0.0
H377 H 0.28118 0.9353 0.60284 0.0
H378 H 0.3199 0.9088 0.68536 0.0
H379 H 0.37322 0.88347 0.66621 0.0
H380 H 0.42056 0.82318 0.40115 0.0
H381 H 0.37403 0.83214 0.33692 0.0
C382 C 0.32433 0.87914 0.41626 0.0
C383 C 0.30142 0.90645 0.46438 0.0
C384 C 0.34748 0.86495 0.46223 0.0
C385 C 0.29872 0.91458 0.5638 0.0
C386 C 0.3211 0.8997 0.61088 0.0
C387 C 0.37315 0.87062 0.5963 0.0
C388 C 0.40085 0.8542 0.53671 0.0
C389 C 0.34671 0.87706 0.55857 0.0
C390 C 0.39987 0.83722 0.44705 0.0
C391 C 0.37329 0.84253 0.41 0.0
H392 H 0.53455 0.3169 0.56704 0.0
H393 H 0.46082 0.37502 0.46023 0.0
H394 H 0.47311 0.43258 0.5217 0.0
H395 H 0.50409 0.46648 0.60317 0.0
H396 H 0.5723 0.41025 0.73684 0.0
H397 H 0.56291 0.35165 0.66706 0.0
C398 C 0.52047 0.34204 0.56069 0.0
C399 C 0.49728 0.34183 0.50732 0.0
C400 C 0.52672 0.37527 0.60013 0.0
C401 C 0.47917 0.37459 0.49949 0.0
C402 C 0.48607 0.40753 0.53471 0.0
C403 C 0.51693 0.44151 0.61789 0.0
C404 C 0.53878 0.44275 0.67531 0.0
C405 C 0.50997 0.4082 0.58381 0.0
C406 C 0.55541 0.41003 0.69226 0.0
C407 C 0.54977 0.37654 0.65348 0.0
H408 H 0.26476 0.38338 0.2591 0.0
H409 H 0.22285 0.3579 0.02626 0.0
H410 H 0.1717 0.37846 0.12589 0.0
H411 H 0.14511 0.42813 0.24893 0.0
H412 H 0.18946 0.45769 0.47896 0.0
H413 H 0.23408 0.41436 0.40921 0.0
C414 C 0.24428 0.38198 0.23036 0.0
C415 C 0.24686 0.37969 0.12919 0.0
C416 C 0.21589 0.39746 0.28681 0.0
C417 C 0.22107 0.36725 0.10081 0.0
C418 C 0.19175 0.37988 0.15681 0.0
C419 C 0.16394 0.42424 0.28603 0.0
C420 C 0.16476 0.44768 0.36582 0.0
C421 C 0.18966 0.39937 0.24548 0.0
C422 C 0.18912 0.44147 0.41411 0.0
C423 C 0.21446 0.41627 0.37529 0.0
H424 H 0.1443 0.776 0.38343 0.0
H425 H 0.11388 0.73571 0.13305 0.0
H426 H 0.13935 0.78073 0.03641 0.0
H427 H 0.15084 0.84336 0.04055 0.0
H428 H 0.17452 0.89029 0.29445 0.0
H429 H 0.17097 0.83176 0.37068 0.0
C430 C 0.1436 0.77663 0.30733 0.0
C431 C 0.12504 0.75383 0.26878 0.0
C432 C 0.15617 0.80497 0.2528 0.0
C433 C 0.1268 0.75325 0.16776 0.0
C434 C 0.14118 0.77962 0.11154 0.0
C435 C 0.1568 0.8407 0.11057 0.0
C436 C 0.1609 0.87191 0.16422 0.0
C437 C 0.15302 0.80767 0.15594 0.0
C438 C 0.16966 0.86711 0.25342 0.0
C439 C 0.16746 0.83364 0.29741 0.0
H440 H 0.77205 0.98546 0.13593 0.0
H441 H 0.73526 0.88635 0.23777 0.0
H442 H 0.69414 0.89738 0.14967 0.0
H443 H 0.66128 0.94428 0.09124 0.0
H444 H 0.69633 0.04557 0.9972 0.0
H445 H 0.74547 0.02492 0.03702 0.0
C446 C 0.75605 0.96523 0.13433 0.0
C447 C 0.75591 0.93577 0.19538 0.0
C448 C 0.73134 0.97318 0.08943 0.0
C449 C 0.73538 0.90949 0.19212 0.0
C450 C 0.71155 0.91623 0.1434 0.0
C451 C 0.67992 0.96143 0.07555 0.0
C452 C 0.67466 0.99706 0.04465 0.0
C453 C 0.70796 0.94952 0.09918 0.0
C454 C 0.6993 0.01867 0.02498 0.0
C455 C 0.72753 0.00673 0.04674 0.0
H456 H 0.43195 0.71084 0.21434 0.0
H457 H 0.48322 0.65975 0.41095 0.0
H458 H 0.4817 0.60037 0.33734 0.0
H459 H 0.47481 0.56412 0.20003 0.0
H460 H 0.42959 0.61353 0.98911 0.0
H461 H 0.419 0.67171 0.08559 0.0
C462 C 0.44239 0.68662 0.24149 0.0
C463 C 0.4573 0.69001 0.31884 0.0
C464 C 0.44248 0.652 0.19623 0.0
C465 C 0.47081 0.65823 0.35328 0.0
C466 C 0.47022 0.62402 0.31077 0.0
C467 C 0.46131 0.58723 0.17804 0.0
C468 C 0.45263 0.58486 0.08924 0.0
C469 C 0.45709 0.62073 0.23044 0.0
C470 C 0.43582 0.61485 0.05901 0.0
C471 C 0.43039 0.64825 0.11305 0.0
H472 H 0.82888 0.67436 0.54473 0.0
H473 H 0.76825 0.65358 0.35792 0.0
H474 H 0.81165 0.64151 0.2206 0.0
H475 H 0.86493 0.61138 0.17689 0.0
H476 H 0.92651 0.62574 0.36887 0.0
H477 H 0.88507 0.66265 0.48341 0.0
C478 C 0.82517 0.66697 0.47374 0.0
C479 C 0.7967 0.65515 0.46505 0.0
C480 C 0.85085 0.65658 0.398 0.0
C481 C 0.79107 0.6555 0.37049 0.0
C482 C 0.81598 0.64826 0.29124 0.0
C483 C 0.86988 0.62371 0.2416 0.0
C484 C 0.89832 0.61418 0.2669 0.0
C485 C 0.84594 0.64419 0.30763 0.0
C486 C 0.90425 0.6311 0.35052 0.0
C487 C 0.88069 0.6526 0.41538 0.0
H488 H 0.96638 0.23548 0.10497 0.0
H489 H 0.03073 0.20763 0.28563 0.0
H490 H 0.04992 0.15129 0.18615 0.0
H491 H 0.04225 0.10549 0.06567 0.0
H492 H 0.97703 0.13218 0.887 0.0
H493 H 0.96436 0.19336 0.9674 0.0
C494 C 0.98526 0.21756 0.12067 0.0
C495 C 0.99698 0.22571 0.20315 0.0
C496 C 0.99549 0.18459 0.06481 0.0
C497 C 0.02147 0.2023 0.22242 0.0
C498 C 0.03213 0.16975 0.16627 0.0
C499 C 0.02561 0.12491 0.04314 0.0
C500 C 1.01024 0.11405 0.97137 0.0
C501 C 0.01834 0.15989 0.09015 0.0
C502 C 0.98914 0.13974 0.94201 0.0
C503 C 0.98179 0.17468 0.98841 0.0
H504 H 0.33558 0.0221 0.29775 0.0
H505 H 0.29814 0.96346 0.09052 0.0
H506 H 0.34376 0.97086 0.96335 0.0
H507 H 0.39742 0.98782 0.91578 0.0
H508 H 0.43408 0.0469 0.12572 0.0
H509 H 0.38613 0.04565 0.24533 0.0
C510 C 0.33684 0.0123 0.22375 0.0
C511 C 0.31291 0.99312 0.20341 0.0
C512 C 0.36359 0.01598 0.15138 0.0
C513 C 0.31561 0.97933 0.10776 0.0
C514 C 0.34204 0.98305 0.03527 0.0
C515 C 0.39482 1.00093 0.98716 0.0
C516 C 0.4199 0.01725 1.01073 0.0
C517 C 0.36669 1.00035 0.0568 0.0
C518 C 0.41561 0.03409 0.10424 0.0
C519 C 0.38802 0.03336 0.17341 0.0
H520 H 0.54062 0.30677 0.15004 0.0
H521 H 0.443 0.30063 0.20217 0.0
H522 H 0.43749 0.35146 0.09678 0.0
H523 H 0.45933 0.40591 0.01674 0.0
H524 H 0.55645 0.41474 0.98597 0.0
H525 H 0.56313 0.35585 0.05633 0.0
C526 C 0.5184 0.31517 0.13373 0.0
C527 C 0.49237 0.29931 0.18321 0.0
C528 C 0.51509 0.34659 0.08043 0.0
C529 C 0.46357 0.3115 0.16357 0.0
C530 C 0.46032 0.34145 0.10538 0.0
C531 C 0.48196 0.39468 0.02449 0.0
C532 C 0.50723 0.41539 0.9976 0.0
C533 C 0.48566 0.36062 0.06797 0.0
C534 C 0.53641 0.40012 1.00797 0.0
C535 C 0.54037 0.36612 0.04756 0.0
H536 H 0.22382 0.46834 0.85537 0.0
H537 H 0.1895 0.51326 0.14764 0.0
H538 H 0.13818 0.52759 0.11398 0.0
H539 H 0.1018 0.52214 1.00485 0.0
H540 H 0.13695 0.47702 0.71225 0.0
H541 H 0.18877 0.46769 0.74273 0.0
C542 C 0.20532 0.4824 0.91064 0.0
C543 C 0.21074 0.49033 1.00341 0.0
C544 C 0.17567 0.48959 0.8914 0.0
C545 C 0.1863 0.5078 0.07493 0.0
C546 C 0.15675 0.51535 0.05612 0.0
C547 C 0.12079 0.51017 0.94784 0.0
C548 C 0.11518 0.49975 0.85667 0.0
C549 C 0.15092 0.50541 0.96538 0.0
C550 C 0.14032 0.485 0.78327 0.0
C551 C 0.1701 0.47978 0.80053 0.0
H552 H 0.0737 0.77411 0.62166 0.0
H553 H 0.99622 0.79843 0.48924 0.0
H554 H 0.97837 0.85199 0.60127 0.0
H555 H 0.98911 0.89669 0.72016 0.0
H556 H 0.06883 0.87393 0.84401 0.0
H557 H 0.08152 0.81535 0.75173 0.0
C558 C 0.05255 0.79075 0.61856 0.0
C559 C 0.03649 0.78233 0.5464 0.0
C560 C 0.04318 0.82232 0.68047 0.0
C561 C 1.00895 0.80397 0.5442 0.0
C562 C 0.99898 0.83495 0.60752 0.0
C563 C 1.009 0.87871 0.72836 0.0
C564 C 0.02814 0.89011 0.78865 0.0
C565 C 0.01656 0.84517 0.6734 0.0
C566 C 0.05377 0.86621 0.79797 0.0
C567 C 0.06108 0.83261 0.74503 0.0
H568 H 0.69705 0.004 0.42678 0.0
H569 H 0.73821 0.95614 0.6489 0.0
H570 H 0.68706 0.96099 0.76015 0.0
H571 H 0.62915 0.97258 0.78697 0.0
H572 H 0.59004 0.01398 0.55221 0.0
H573 H 0.64132 0.01688 0.45349 0.0
C574 C 0.69502 0.99524 0.50033 0.0
C575 C 0.72175 0.97985 0.52904 0.0
C576 C 0.66545 0.99589 0.56104 0.0
C577 C 0.71838 0.96859 0.62471 0.0
C578 C 0.68892 0.97078 0.68779 0.0
C579 C 0.63187 0.98229 0.71429 0.0
C580 C 0.60527 0.9927 0.67741 0.0
C581 C 0.66204 0.98325 0.65568 0.0
C582 C 0.60963 0.00529 0.58287 0.0
C583 C 0.63913 0.00722 0.52612 0.0
H584 H 0.53227 0.71545 0.50145 0.0
H585 H 0.44524 0.75816 0.68381 0.0
H586 H 0.44883 0.70842 0.79316 0.0
H587 H 0.47161 0.64594 0.81705 0.0
H588 H 0.55898 0.60348 0.63492 0.0
H589 H 0.56022 0.65929 0.54469 0.0
C590 C 0.51504 0.71516 0.56838 0.0
C591 C 0.48856 0.74077 0.58437 0.0
C592 C 0.51657 0.68526 0.62827 0.0
C593 C 0.4661 0.73936 0.67048 0.0
C594 C 0.46775 0.71019 0.73159 0.0
C595 C 0.49109 0.64916 0.75834 0.0
C596 C 0.51488 0.6202 0.73136 0.0
C597 C 0.49195 0.68181 0.70786 0.0
C598 C 0.54027 0.62513 0.65659 0.0
C599 C 0.541 0.65714 0.60504 0.0
H600 H 0.86624 0.58605 0.52105 0.0
H601 H 0.81546 0.51975 0.73109 0.0
H602 H 0.86185 0.5048 0.79633 0.0
H603 H 0.9162 0.51487 0.80053 0.0
H604 H 0.96383 0.58595 0.59534 0.0
H605 H 0.9191 0.59562 0.52402 0.0
C606 C 0.86526 0.56821 0.58112 0.0
C607 C 0.83724 0.55439 0.62185 0.0
C608 C 0.8914 0.56124 0.6205 0.0
C609 C 0.83665 0.53068 0.69816 0.0
C610 C 0.86313 0.52253 0.73609 0.0
C611 C 0.91676 0.53251 0.74023 0.0
C612 C 0.94355 0.54987 0.70419 0.0
C613 C 0.89049 0.53839 0.69927 0.0
C614 C 0.94369 0.57252 0.62575 0.0
C615 C 0.9181 0.57791 0.58412 0.0
loop_
_geom_bond_atom_site_label_1
_geom_bond_atom_site_label_2
_geom_bond_distance
_geom_bond_site_symmetry_2
_ccdc_geom_bond_type
H0 C3 0.931 . S
H1 C6 0.928 . S
H2 C8 0.930 . S
C3 H0 0.931 . S
C3 C4 1.413 . S
C3 C5 1.360 . S
C4 C3 1.413 . S
C4 C8 1.429 . S
C5 C3 1.360 . S
C5 C6 1.372 . S
C6 H1 0.928 . S
C6 C5 1.372 . S
C6 C7 1.404 . S
C7 C6 1.404 . S
C7 C8 1.391 . S
C8 H2 0.930 . S
C8 C4 1.429 . S
C8 C7 1.391 . S
H9 C12 0.931 . S
H10 C15 0.928 . S
H11 C17 0.928 . S
C12 H9 0.931 . S
C12 C13 1.413 . S
C12 C14 1.360 . S
C13 C12 1.413 . S
C13 C17 1.431 1_655 S
C14 C12 1.360 . S
C14 C15 1.376 . S
C15 H10 0.928 . S
C15 C14 1.376 . S
C15 C16 1.405 . S
C16 C15 1.405 . S
C16 C17 1.387 1_655 S
C17 H11 0.928 . S
C17 C13 1.431 1_455 S
C17 C16 1.387 1_455 S
H18 C21 0.930 . S
H19 C24 0.928 . S
H20 C26 0.929 . S
C21 H18 0.930 . S
C21 C22 1.413 . S
C21 C23 1.360 . S
C22 C21 1.413 . S
C22 C26 1.428 1_565 S
C23 C21 1.360 . S
C23 C24 1.370 . S
C24 H19 0.928 . S
C24 C23 1.370 . S
C24 C25 1.405 . S
C25 C24 1.405 . S
C25 C26 1.392 1_565 S
C26 H20 0.929 . S
C26 C22 1.428 1_545 S
C26 C25 1.392 1_545 S
H27 C30 0.931 . S
H28 C33 0.928 . S
H29 C35 0.930 . S
C30 H27 0.931 . S
C30 C31 1.413 . S
C30 C32 1.360 . S
C31 C30 1.413 . S
C31 C35 1.429 . S
C32 C30 1.360 . S
C32 C33 1.372 . S
C33 H28 0.928 . S
C33 C32 1.372 . S
C33 C34 1.404 . S
C34 C33 1.404 . S
C34 C35 1.391 . S
C35 H29 0.930 . S
C35 C31 1.429 . S
C35 C34 1.391 . S
H36 C39 0.931 . S
H37 C42 0.928 . S
H38 C44 0.930 . S
C39 H36 0.931 . S
C39 C40 1.413 . S
C39 C41 1.360 1_556 S
C40 C39 1.413 . S
C40 C44 1.429 . S
C41 C39 1.360 1_554 S
C41 C42 1.372 . S
C42 H37 0.928 . S
C42 C41 1.372 . S
C42 C43 1.404 . S
C43 C42 1.404 . S
C43 C44 1.391 1_554 S
C44 H38 0.930 . S
C44 C40 1.429 . S
C44 C43 1.391 1_556 S
H45 C48 0.930 . S
H46 C51 0.928 . S
H47 C53 0.931 . S
C48 H45 0.930 . S
C48 C49 1.414 . S
C48 C50 1.360 . S
C49 C48 1.414 . S
C49 C53 1.428 1_655 S
C50 C48 1.360 . S
C50 C51 1.370 . S
C51 H46 0.928 . S
C51 C50 1.370 . S
C51 C52 1.404 . S
C52 C51 1.404 . S
C52 C53 1.394 1_655 S
C53 H47 0.931 . S
C53 C49 1.428 1_455 S
C53 C52 1.394 1_455 S
H54 C57 0.931 . S
H55 C60 0.928 . S
H56 C62 0.930 . S
C57 H54 0.931 . S
C57 C58 1.413 . S
C57 C59 1.360 . S
C58 C57 1.413 . S
C58 C62 1.431 1_565 S
C59 C57 1.360 . S
C59 C60 1.374 . S
C60 H55 0.928 . S
C60 C59 1.374 . S
C60 C61 1.404 . S
C61 C60 1.404 . S
C61 C62 1.389 1_565 S
C62 H56 0.930 . S
C62 C58 1.431 1_545 S
C62 C61 1.389 1_545 S
H63 C66 0.931 . S
H64 C69 0.928 . S
H65 C71 0.930 . S
C66 H63 0.931 . S
C66 C67 1.413 . S
C66 C68 1.360 . S
C67 C66 1.413 . S
C67 C71 1.429 . S
C68 C66 1.360 . S
C68 C69 1.372 . S
C69 H64 0.928 . S
C69 C68 1.372 . S
C69 C70 1.404 . S
C70 C69 1.404 . S
C70 C71 1.391 . S
C71 H65 0.930 . S
C71 C67 1.429 . S
C71 C70 1.391 . S
Dy72 O75 2.307 1_545 S
Dy72 O77 2.388 1_655 S
Dy72 O78 2.379 . S
Dy72 O80 2.339 . S
Dy72 O82 2.298 . S
Dy72 O86 2.275 1_655 S
Dy72 C94 2.738 . S
Dy73 O76 2.298 . S
Dy73 O79 2.275 1_455 S
Dy73 O81 2.307 1_565 S
Dy73 O83 2.392 1_456 S
Dy73 O84 2.379 . S
Dy73 O87 2.339 . S
Dy73 C103 2.738 1_556 S
C74 O86 1.254 1_565 S
C74 O87 1.257 . S
O75 Dy72 2.307 1_565 S
O75 C85 1.266 . S
O76 Dy73 2.298 . S
O76 C85 1.236 1_455 S
O77 Dy72 2.388 1_455 S
O77 C94 1.240 1_455 S
O78 Dy72 2.379 . S
O78 C94 1.249 . S
O79 Dy73 2.275 1_655 S
O79 C95 1.254 1_565 S
O80 Dy72 2.339 . S
O80 C95 1.257 . S
O81 Dy73 2.307 1_545 S
O81 C96 1.266 . S
O82 Dy72 2.298 . S
O82 C96 1.236 1_655 S
O83 Dy73 2.392 1_654 S
O83 C103 1.248 1_655 S
O84 Dy73 2.379 . S
O84 C103 1.249 1_556 S
C85 O75 1.266 . S
C85 O76 1.236 1_655 S
O86 Dy72 2.275 1_455 S
O86 C74 1.254 1_545 S
O87 Dy73 2.339 . S
O87 C74 1.257 . S
C88 C91 1.344 . S
C88 C92 1.328 . S
C88 C94 1.516 . S
C89 C90 1.304 . S
C89 C93 1.323 . S
C90 C89 1.304 . S
C90 C91 1.371 . S
C90 H104 0.930 1_655 S
C91 C88 1.344 . S
C91 C90 1.371 . S
C91 H105 0.931 1_655 S
C92 C88 1.328 . S
C92 C93 1.433 . S
C92 H106 0.931 . S
C93 C89 1.323 . S
C93 C92 1.433 . S
C93 H107 0.933 . S
C94 Dy72 2.738 . S
C94 O77 1.240 1_655 S
C94 O78 1.249 . S
C94 C88 1.516 . S
C95 O79 1.254 1_545 S
C95 O80 1.257 . S
C96 O81 1.266 . S
C96 O82 1.236 1_455 S
C97 C100 1.344 . S
C97 C101 1.328 . S
C97 C103 1.516 . S
C98 C99 1.304 . S
C98 C102 1.323 . S
C99 C98 1.304 . S
C99 C100 1.371 . S
C99 H108 0.930 1_455 S
C100 C97 1.344 . S
C100 C99 1.371 . S
C100 H109 0.931 1_455 S
C101 C97 1.328 . S
C101 C102 1.433 . S
C101 H110 0.931 . S
C102 C98 1.323 . S
C102 C101 1.433 . S
C102 H111 0.933 . S
C103 Dy73 2.738 1_554 S
C103 O83 1.248 1_455 S
C103 O84 1.249 1_554 S
C103 C97 1.516 . S
H104 C90 0.930 1_455 S
H105 C91 0.931 1_455 S
H106 C92 0.931 . S
H107 C93 0.933 . S
H108 C99 0.930 1_655 S
H109 C100 0.931 1_655 S
H110 C101 0.931 . S
H111 C102 0.933 . S
Dy112 O115 2.307 . S
Dy112 O117 2.394 1_565 S
Dy112 O118 2.379 . S
Dy112 O120 2.339 . S
Dy112 O122 2.298 . S
Dy112 O126 2.275 1_565 S
Dy112 C134 2.738 . S
Dy113 O116 2.298 . S
Dy113 O119 2.275 1_545 S
Dy113 O121 2.307 . S
Dy113 O123 2.394 1_556 S
Dy113 O124 2.379 . S
Dy113 O127 2.339 . S
Dy113 C143 2.738 1_556 S
C114 O126 1.254 . S
C114 O127 1.257 . S
O115 Dy112 2.307 . S
O115 C125 1.266 . S
O116 Dy113 2.298 . S
O116 C125 1.236 1_545 S
O117 Dy112 2.394 1_545 S
O117 C134 1.253 1_545 S
O118 Dy112 2.379 . S
O118 C134 1.249 . S
O119 Dy113 2.275 1_565 S
O119 C135 1.254 . S
O120 Dy112 2.339 . S
O120 C135 1.257 . S
O121 Dy113 2.307 . S
O121 C136 1.266 . S
O122 Dy112 2.298 . S
O122 C136 1.236 1_565 S
O123 Dy113 2.394 1_554 S
O123 C143 1.253 . S
O124 Dy113 2.379 . S
O124 C143 1.249 1_556 S
C125 O115 1.266 . S
C125 O116 1.236 1_565 S
O126 Dy112 2.275 1_545 S
O126 C114 1.254 . S
O127 Dy113 2.339 . S
O127 C114 1.257 . S
C128 C131 1.344 . S
C128 C132 1.328 . S
C128 C134 1.516 . S
C129 C130 1.304 . S
C129 C133 1.323 . S
C130 C129 1.304 . S
C130 C131 1.371 . S
C130 H144 0.930 1_565 S
C131 C128 1.344 . S
C131 C130 1.371 . S
C131 H145 0.931 1_565 S
C132 C128 1.328 . S
C132 C133 1.433 . S
C132 H146 0.931 . S
C133 C129 1.323 . S
C133 C132 1.433 . S
C133 H147 0.933 . S
C134 Dy112 2.738 . S
C134 O117 1.253 1_565 S
C134 O118 1.249 . S
C134 C128 1.516 . S
C135 O119 1.254 . S
C135 O120 1.257 . S
C136 O121 1.266 . S
C136 O122 1.236 1_545 S
C137 C140 1.344 . S
C137 C141 1.328 . S
C137 C143 1.516 . S
C138 C139 1.304 . S
C138 C142 1.323 . S
C139 C138 1.304 . S
C139 C140 1.371 . S
C139 H148 0.930 1_545 S
C140 C137 1.344 . S
C140 C139 1.371 . S
C140 H149 0.931 1_545 S
C141 C137 1.328 . S
C141 C142 1.433 . S
C141 H150 0.931 . S
C142 C138 1.323 . S
C142 C141 1.433 . S
C142 H151 0.933 . S
C143 Dy113 2.738 1_554 S
C143 O123 1.253 . S
C143 O124 1.249 1_554 S
C143 C137 1.516 . S
H144 C130 0.930 1_545 S
H145 C131 0.931 1_545 S
H146 C132 0.931 . S
H147 C133 0.933 . S
H148 C139 0.930 1_565 S
H149 C140 0.931 1_565 S
H150 C141 0.931 . S
H151 C142 0.933 . S
Dy152 O155 2.307 . S
Dy152 O157 2.395 . S
Dy152 O158 2.379 . S
Dy152 O160 2.339 . S
Dy152 O162 2.298 . S
Dy152 O166 2.275 . S
Dy152 C174 2.738 . S
Dy153 O156 2.298 . S
Dy153 O159 2.275 . S
Dy153 O161 2.307 . S
Dy153 O163 2.395 . S
Dy153 O164 2.379 . S
Dy153 O167 2.339 . S
Dy153 C183 2.738 . S
C154 O166 1.254 . S
C154 O167 1.257 . S
O155 Dy152 2.307 . S
O155 C165 1.266 . S
O156 Dy153 2.298 . S
O156 C165 1.236 . S
O157 Dy152 2.395 . S
O157 C174 1.255 . S
O158 Dy152 2.379 . S
O158 C174 1.249 . S
O159 Dy153 2.275 . S
O159 C175 1.254 . S
O160 Dy152 2.339 . S
O160 C175 1.257 . S
O161 Dy153 2.307 . S
O161 C176 1.266 . S
O162 Dy152 2.298 . S
O162 C176 1.236 . S
O163 Dy153 2.395 . S
O163 C183 1.255 . S
O164 Dy153 2.379 . S
O164 C183 1.249 . S
C165 O155 1.266 . S
C165 O156 1.236 . S
O166 Dy152 2.275 . S
O166 C154 1.254 . S
O167 Dy153 2.339 . S
O167 C154 1.257 . S
C168 C171 1.344 . S
C168 C172 1.328 1_554 S
C168 C174 1.516 1_554 S
C169 C170 1.304 . S
C169 C173 1.323 . S
C170 C169 1.304 . S
C170 C171 1.371 . S
C170 H184 0.930 . S
C171 C168 1.344 . S
C171 C170 1.371 . S
C171 H185 0.931 . S
C172 C168 1.328 1_556 S
C172 C173 1.433 1_556 S
C172 H186 0.931 . S
C173 C169 1.323 . S
C173 C172 1.433 1_554 S
C173 H187 0.930 1_554 S
C174 Dy152 2.738 . S
C174 O157 1.255 . S
C174 O158 1.249 . S
C174 C168 1.516 1_556 S
C175 O159 1.254 . S
C175 O160 1.257 . S
C176 O161 1.266 . S
C176 O162 1.236 . S
C177 C180 1.344 . S
C177 C181 1.328 . S
C177 C183 1.516 . S
C178 C179 1.304 . S
C178 C182 1.323 . S
C179 C178 1.304 . S
C179 C180 1.371 . S
C179 H188 0.930 . S
C180 C177 1.344 . S
C180 C179 1.371 . S
C180 H189 0.931 . S
C181 C177 1.328 . S
C181 C182 1.433 . S
C181 H190 0.931 . S
C182 C178 1.323 . S
C182 C181 1.433 . S
C182 H191 0.933 . S
C183 Dy153 2.738 . S
C183 O163 1.255 . S
C183 O164 1.249 . S
C183 C177 1.516 . S
H184 C170 0.930 . S
H185 C171 0.931 . S
H186 C172 0.931 . S
H187 C173 0.930 1_556 S
H188 C179 0.930 . S
H189 C180 0.931 . S
H190 C181 0.931 . S
H191 C182 0.933 . S
Dy192 O195 2.307 1_455 S
Dy192 O197 2.395 . S
Dy192 O198 2.379 . S
Dy192 O200 2.339 . S
Dy192 O202 2.298 . S
Dy192 O206 2.275 . S
Dy192 C214 2.738 . S
Dy193 O196 2.298 . S
Dy193 O199 2.275 . S
Dy193 O201 2.307 1_655 S
Dy193 O203 2.395 1_556 S
Dy193 O204 2.379 . S
Dy193 O207 2.339 . S
Dy193 C223 2.738 1_556 S
C194 O206 1.254 1_655 S
C194 O207 1.257 . S
O195 Dy192 2.307 1_655 S
O195 C205 1.266 . S
O196 Dy193 2.298 . S
O196 C205 1.236 . S
O197 Dy192 2.395 . S
O197 C214 1.255 . S
O198 Dy192 2.379 . S
O198 C214 1.249 . S
O199 Dy193 2.275 . S
O199 C215 1.254 1_655 S
O200 Dy192 2.339 . S
O200 C215 1.257 . S
O201 Dy193 2.307 1_455 S
O201 C216 1.266 . S
O202 Dy192 2.298 . S
O202 C216 1.236 . S
O203 Dy193 2.395 1_554 S
O203 C223 1.255 . S
O204 Dy193 2.379 . S
O204 C223 1.249 1_556 S
C205 O195 1.266 . S
C205 O196 1.236 . S
O206 Dy192 2.275 . S
O206 C194 1.254 1_455 S
O207 Dy193 2.339 . S
O207 C194 1.257 . S
C208 C211 1.344 . S
C208 C212 1.328 . S
C208 C214 1.516 . S
C209 C210 1.304 . S
C209 C213 1.323 . S
C210 C209 1.304 . S
C210 C211 1.371 . S
C210 H224 0.930 . S
C211 C208 1.344 . S
C211 C210 1.371 . S
C211 H225 0.931 . S
C212 C208 1.328 . S
C212 C213 1.433 . S
C212 H226 0.931 . S
C213 C209 1.323 . S
C213 C212 1.433 . S
C213 H227 0.933 . S
C214 Dy192 2.738 . S
C214 O197 1.255 . S
C214 O198 1.249 . S
C214 C208 1.516 . S
C215 O199 1.254 1_455 S
C215 O200 1.257 . S
C216 O201 1.266 . S
C216 O202 1.236 . S
C217 C220 1.344 . S
C217 C221 1.328 . S
C217 C223 1.516 . S
C218 C219 1.304 . S
C218 C222 1.323 . S
C219 C218 1.304 . S
C219 C220 1.371 . S
C219 H228 0.930 . S
C220 C217 1.344 . S
C220 C219 1.371 . S
C220 H229 0.931 . S
C221 C217 1.328 . S
C221 C222 1.433 . S
C221 H230 0.931 . S
C222 C218 1.323 . S
C222 C221 1.433 . S
C222 H231 0.933 . S
C223 Dy193 2.738 1_554 S
C223 O203 1.255 . S
C223 O204 1.249 1_554 S
C223 C217 1.516 . S
H224 C210 0.930 . S
H225 C211 0.931 . S
H226 C212 0.931 . S
H227 C213 0.933 . S
H228 C219 0.930 . S
H229 C220 0.931 . S
H230 C221 0.931 . S
H231 C222 0.933 . S
H232 C238 0.930 . S
H233 C241 0.930 . S
H234 C242 0.930 . S
H235 C243 0.930 . S
H236 C246 0.930 . S
H237 C247 0.930 . S
C238 H232 0.930 . S
C238 C239 1.355 1_565 S
C238 C240 1.415 . S
C239 C238 1.355 1_545 S
C239 C241 1.419 . S
C240 C238 1.415 . S
C240 C245 1.425 1_565 S
C240 C247 1.409 . S
C241 H233 0.930 . S
C241 C239 1.419 . S
C241 C242 1.362 . S
C242 H234 0.930 . S
C242 C241 1.362 . S
C242 C245 1.409 . S
C243 H235 0.930 . S
C243 C244 1.355 1_545 S
C243 C245 1.415 . S
C244 C243 1.355 1_565 S
C244 C246 1.419 . S
C245 C240 1.425 1_545 S
C245 C242 1.409 . S
C245 C243 1.415 . S
C246 H236 0.930 . S
C246 C244 1.419 . S
C246 C247 1.362 . S
C247 H237 0.930 . S
C247 C240 1.409 . S
C247 C246 1.362 . S
H248 C254 0.930 . S
H249 C257 0.930 . S
H250 C258 0.930 . S
H251 C259 0.930 . S
H252 C262 0.930 . S
H253 C263 0.930 . S
C254 H248 0.930 . S
C254 C255 1.355 . S
C254 C256 1.415 . S
C255 C254 1.355 . S
C255 C257 1.419 . S
C256 C254 1.415 . S
C256 C261 1.425 . S
C256 C263 1.409 . S
C257 H249 0.930 . S
C257 C255 1.419 . S
C257 C258 1.362 . S
C258 H250 0.930 . S
C258 C257 1.362 . S
C258 C261 1.409 . S
C259 H251 0.930 . S
C259 C260 1.355 . S
C259 C261 1.415 . S
C260 C259 1.355 . S
C260 C262 1.419 . S
C261 C256 1.425 . S
C261 C258 1.409 . S
C261 C259 1.415 . S
C262 H252 0.930 . S
C262 C260 1.419 . S
C262 C263 1.362 . S
C263 H253 0.930 . S
C263 C256 1.409 . S
C263 C262 1.362 . S
H264 C270 0.930 . S
H265 C273 0.930 . S
H266 C274 0.930 . S
H267 C275 0.930 . S
H268 C278 0.930 . S
H269 C279 0.930 . S
C270 H264 0.930 . S
C270 C271 1.355 . S
C270 C272 1.415 . S
C271 C270 1.355 . S
C271 C273 1.419 . S
C272 C270 1.415 . S
C272 C277 1.425 . S
C272 C279 1.409 . S
C273 H265 0.930 . S
C273 C271 1.419 . S
C273 C274 1.362 . S
C274 H266 0.930 . S
C274 C273 1.362 . S
C274 C277 1.409 . S
C275 H267 0.930 . S
C275 C276 1.355 . S
C275 C277 1.415 . S
C276 C275 1.355 . S
C276 C278 1.419 . S
C277 C272 1.425 . S
C277 C274 1.409 . S
C277 C275 1.415 . S
C278 H268 0.930 . S
C278 C276 1.419 . S
C278 C279 1.362 . S
C279 H269 0.930 . S
C279 C272 1.409 . S
C279 C278 1.362 . S
H280 C286 0.930 . S
H281 C289 0.930 . S
H282 C290 0.930 . S
H283 C291 0.930 . S
H284 C294 0.930 . S
H285 C295 0.930 . S
C286 H280 0.930 . S
C286 C287 1.355 1_655 S
C286 C288 1.415 . S
C287 C286 1.355 1_455 S
C287 C289 1.419 . S
C288 C286 1.415 . S
C288 C293 1.425 1_655 S
C288 C295 1.409 . S
C289 H281 0.930 . S
C289 C287 1.419 . S
C289 C290 1.362 . S
C290 H282 0.930 . S
C290 C289 1.362 . S
C290 C293 1.409 . S
C291 H283 0.930 . S
C291 C292 1.349 1_455 S
C291 C293 1.415 . S
C292 C291 1.349 1_655 S
C292 C294 1.430 . S
C293 C288 1.425 1_455 S
C293 C290 1.409 . S
C293 C291 1.415 . S
C294 H284 0.930 . S
C294 C292 1.430 . S
C294 C295 1.362 . S
C295 H285 0.930 . S
C295 C288 1.409 . S
C295 C294 1.362 . S
H296 C302 0.930 . S
H297 C305 0.930 . S
H298 C306 0.930 . S
H299 C307 0.930 . S
H300 C310 0.930 1_556 S
H301 C311 0.930 . S
C302 H296 0.930 . S
C302 C303 1.355 1_545 S
C302 C304 1.415 . S
C303 C302 1.355 1_565 S
C303 C305 1.419 . S
C304 C302 1.415 . S
C304 C309 1.425 1_545 S
C304 C311 1.409 . S
C305 H297 0.930 . S
C305 C303 1.419 . S
C305 C306 1.362 . S
C306 H298 0.930 . S
C306 C305 1.362 . S
C306 C309 1.409 . S
C307 H299 0.930 . S
C307 C308 1.355 1_565 S
C307 C309 1.415 . S
C308 C307 1.355 1_545 S
C308 C310 1.419 . S
C309 C304 1.425 1_565 S
C309 C306 1.409 . S
C309 C307 1.415 . S
C310 H300 0.930 1_554 S
C310 C308 1.419 . S
C310 C311 1.362 . S
C311 H301 0.930 . S
C311 C304 1.409 . S
C311 C310 1.362 . S
H312 C318 0.930 . S
H313 C321 0.930 . S
H314 C322 0.930 . S
H315 C323 0.930 . S
H316 C326 0.930 . S
H317 C327 0.930 . S
C318 H312 0.930 . S
C318 C319 1.355 . S
C318 C320 1.415 . S
C319 C318 1.355 . S
C319 C321 1.419 . S
C320 C318 1.415 . S
C320 C325 1.425 . S
C320 C327 1.409 . S
C321 H313 0.930 . S
C321 C319 1.419 . S
C321 C322 1.362 1_554 S
C322 H314 0.930 . S
C322 C321 1.362 1_556 S
C322 C325 1.409 1_556 S
C323 H315 0.930 . S
C323 C324 1.355 . S
C323 C325 1.415 1_556 S
C324 C323 1.355 . S
C324 C326 1.419 1_556 S
C325 C320 1.425 . S
C325 C322 1.409 1_554 S
C325 C323 1.415 1_554 S
C326 H316 0.930 . S
C326 C324 1.419 1_554 S
C326 C327 1.362 . S
C327 H317 0.930 . S
C327 C320 1.409 . S
C327 C326 1.362 . S
H328 C334 0.930 . S
H329 C337 0.930 . S
H330 C338 0.930 . S
H331 C339 0.930 . S
H332 C342 0.930 . S
H333 C343 0.930 . S
C334 H328 0.930 . S
C334 C335 1.355 . S
C334 C336 1.415 . S
C335 C334 1.355 . S
C335 C337 1.419 . S
C336 C334 1.415 . S
C336 C341 1.425 . S
C336 C343 1.409 . S
C337 H329 0.930 . S
C337 C335 1.419 . S
C337 C338 1.362 . S
C338 H330 0.930 . S
C338 C337 1.362 . S
C338 C341 1.409 . S
C339 H331 0.930 . S
C339 C340 1.355 . S
C339 C341 1.415 . S
C340 C339 1.355 . S
C340 C342 1.419 . S
C341 C336 1.425 . S
C341 C338 1.409 . S
C341 C339 1.415 . S
C342 H332 0.930 . S
C342 C340 1.419 . S
C342 C343 1.362 . S
C343 H333 0.930 . S
C343 C336 1.409 . S
C343 C342 1.362 . S
H344 C350 0.930 . S
H345 C353 0.930 . S
H346 C354 0.930 . S
H347 C355 0.930 . S
H348 C358 0.930 . S
H349 C359 0.930 . S
C350 H344 0.930 . S
C350 C351 1.355 1_655 S
C350 C352 1.415 . S
C351 C350 1.355 1_455 S
C351 C353 1.419 . S
C352 C350 1.415 . S
C352 C357 1.425 1_655 S
C352 C359 1.409 . S
C353 H345 0.930 . S
C353 C351 1.419 . S
C353 C354 1.362 . S
C354 H346 0.930 . S
C354 C353 1.362 . S
C354 C357 1.409 . S
C355 H347 0.930 . S
C355 C356 1.355 1_455 S
C355 C357 1.415 . S
C356 C355 1.355 1_655 S
C356 C358 1.419 . S
C357 C352 1.425 1_455 S
C357 C354 1.409 . S
C357 C355 1.415 . S
C358 H348 0.930 . S
C358 C356 1.419 . S
C358 C359 1.362 . S
C359 H349 0.930 . S
C359 C352 1.409 . S
C359 C358 1.362 . S
H360 C366 0.930 1_455 S
H361 C369 0.930 . S
H362 C370 0.930 . S
H363 C371 0.930 . S
H364 C374 0.930 . S
H365 C375 0.930 . S
C366 H360 0.930 1_655 S
C366 C367 1.355 1_655 S
C366 C368 1.415 . S
C367 C366 1.355 1_455 S
C367 C369 1.419 1_455 S
C368 C366 1.415 . S
C368 C373 1.425 . S
C368 C375 1.409 . S
C369 H361 0.930 . S
C369 C367 1.419 1_655 S
C369 C370 1.362 . S
C370 H362 0.930 . S
C370 C369 1.362 . S
C370 C373 1.409 . S
C371 H363 0.930 . S
C371 C372 1.355 . S
C371 C373 1.415 . S
C372 C371 1.355 . S
C372 C374 1.419 . S
C373 C368 1.425 . S
C373 C370 1.409 . S
C373 C371 1.415 . S
C374 H364 0.930 . S
C374 C372 1.419 . S
C374 C375 1.362 . S
C375 H365 0.930 . S
C375 C368 1.409 . S
C375 C374 1.362 . S
H376 C382 0.930 . S
H377 C385 0.930 . S
H378 C386 0.930 . S
H379 C387 0.930 1_545 S
H380 C390 0.930 . S
H381 C391 0.930 . S
C382 H376 0.930 . S
C382 C383 1.355 1_565 S
C382 C384 1.415 . S
C383 C382 1.355 1_545 S
C383 C385 1.419 . S
C384 C382 1.415 . S
C384 C389 1.425 . S
C384 C391 1.409 . S
C385 H377 0.930 . S
C385 C383 1.419 . S
C385 C386 1.362 . S
C386 H378 0.930 . S
C386 C385 1.362 . S
C386 C389 1.409 1_545 S
C387 H379 0.930 1_565 S
C387 C388 1.355 . S
C387 C389 1.415 . S
C388 C387 1.355 . S
C388 C390 1.419 . S
C389 C384 1.425 . S
C389 C386 1.409 1_565 S
C389 C387 1.415 . S
C390 H380 0.930 . S
C390 C388 1.419 . S
C390 C391 1.362 . S
C391 H381 0.930 . S
C391 C384 1.409 . S
C391 C390 1.362 . S
H392 C398 0.930 . S
H393 C401 0.930 . S
H394 C402 0.930 . S
H395 C403 0.930 . S
H396 C406 0.930 . S
H397 C407 0.930 . S
C398 H392 0.930 . S
C398 C399 1.355 . S
C398 C400 1.415 . S
C399 C398 1.355 . S
C399 C401 1.419 . S
C400 C398 1.415 . S
C400 C405 1.425 . S
C400 C407 1.409 . S
C401 H393 0.930 . S
C401 C399 1.419 . S
C401 C402 1.362 . S
C402 H394 0.930 . S
C402 C401 1.362 . S
C402 C405 1.409 . S
C403 H395 0.930 . S
C403 C404 1.355 . S
C403 C405 1.415 . S
C404 C403 1.355 . S
C404 C406 1.419 . S
C405 C400 1.425 . S
C405 C402 1.409 . S
C405 C403 1.415 . S
C406 H396 0.930 . S
C406 C404 1.419 . S
C406 C407 1.362 . S
C407 H397 0.930 . S
C407 C400 1.409 . S
C407 C406 1.362 . S
H408 C414 0.930 . S
H409 C417 0.930 . S
H410 C418 0.930 . S
H411 C419 0.930 . S
H412 C422 0.930 . S
H413 C423 0.930 . S
C414 H408 0.930 . S
C414 C415 1.355 . S
C414 C416 1.415 . S
C415 C414 1.355 . S
C415 C417 1.419 . S
C416 C414 1.415 . S
C416 C421 1.425 . S
C416 C423 1.409 . S
C417 H409 0.930 . S
C417 C415 1.419 . S
C417 C418 1.362 . S
C418 H410 0.930 . S
C418 C417 1.362 . S
C418 C421 1.409 . S
C419 H411 0.930 . S
C419 C420 1.355 . S
C419 C421 1.415 . S
C420 C419 1.355 . S
C420 C422 1.419 . S
C421 C416 1.425 . S
C421 C418 1.409 . S
C421 C419 1.415 . S
C422 H412 0.930 . S
C422 C420 1.419 . S
C422 C423 1.362 . S
C423 H413 0.930 . S
C423 C416 1.409 . S
C423 C422 1.362 . S
H424 C430 0.930 . S
H425 C433 0.930 . S
H426 C434 0.930 . S
H427 C435 0.959 . S
H428 C438 0.930 . S
H429 C439 0.930 . S
C430 H424 0.930 . S
C430 C431 1.355 1_455 S
C430 C432 1.415 . S
C431 C430 1.355 1_655 S
C431 C433 1.419 . S
C432 C430 1.415 . S
C432 C437 1.425 . S
C432 C439 1.409 . S
C433 H425 0.930 . S
C433 C431 1.419 . S
C433 C434 1.362 . S
C434 H426 0.930 . S
C434 C433 1.362 . S
C434 C437 1.409 1_655 S
C435 H427 0.959 . S
C435 C436 1.355 . S
C435 C437 1.415 . S
C436 C435 1.355 . S
C436 C438 1.419 . S
C437 C432 1.425 . S
C437 C434 1.409 1_455 S
C437 C435 1.415 . S
C438 H428 0.930 . S
C438 C436 1.419 . S
C438 C439 1.362 . S
C439 H429 0.930 . S
C439 C432 1.409 . S
C439 C438 1.362 . S
H440 C446 0.930 . S
H441 C449 0.930 . S
H442 C450 0.930 . S
H443 C451 0.930 1_565 S
H444 C454 0.930 . S
H445 C455 0.930 . S
C446 H440 0.930 . S
C446 C447 1.355 1_545 S
C446 C448 1.415 . S
C447 C446 1.355 1_565 S
C447 C449 1.419 . S
C448 C446 1.415 . S
C448 C453 1.425 . S
C448 C455 1.409 . S
C449 H441 0.930 . S
C449 C447 1.419 . S
C449 C450 1.362 . S
C450 H442 0.930 . S
C450 C449 1.362 . S
C450 C453 1.409 1_565 S
C451 H443 0.930 1_545 S
C451 C452 1.355 . S
C451 C453 1.415 . S
C452 C451 1.355 . S
C452 C454 1.419 . S
C453 C448 1.425 . S
C453 C450 1.409 1_545 S
C453 C451 1.415 . S
C454 H444 0.930 . S
C454 C452 1.419 . S
C454 C455 1.362 . S
C455 H445 0.930 . S
C455 C448 1.409 . S
C455 C454 1.362 . S
H456 C462 0.930 . S
H457 C465 0.930 . S
H458 C466 0.930 . S
H459 C467 0.930 . S
H460 C470 0.930 . S
H461 C471 0.930 . S
C462 H456 0.930 . S
C462 C463 1.355 . S
C462 C464 1.415 . S
C463 C462 1.355 . S
C463 C465 1.419 . S
C464 C462 1.415 . S
C464 C469 1.425 . S
C464 C471 1.409 . S
C465 H457 0.930 . S
C465 C463 1.419 . S
C465 C466 1.362 . S
C466 H458 0.930 . S
C466 C465 1.362 . S
C466 C469 1.409 . S
C467 H459 0.930 . S
C467 C468 1.355 . S
C467 C469 1.415 . S
C468 C467 1.355 . S
C468 C470 1.419 . S
C469 C464 1.425 . S
C469 C466 1.409 . S
C469 C467 1.415 . S
C470 H460 0.930 . S
C470 C468 1.419 . S
C470 C471 1.362 . S
C471 H461 0.930 . S
C471 C464 1.409 . S
C471 C470 1.362 . S
H472 C478 0.930 . S
H473 C481 0.930 . S
H474 C482 0.930 . S
H475 C483 0.930 . S
H476 C486 0.930 . S
H477 C487 0.930 . S
C478 H472 0.930 . S
C478 C479 1.355 . S
C478 C480 1.415 . S
C479 C478 1.355 . S
C479 C481 1.419 . S
C480 C478 1.415 . S
C480 C485 1.425 . S
C480 C487 1.409 . S
C481 H473 0.930 . S
C481 C479 1.419 . S
C481 C482 1.362 . S
C482 H474 0.930 . S
C482 C481 1.362 . S
C482 C485 1.409 . S
C483 H475 0.930 . S
C483 C484 1.355 . S
C483 C485 1.415 . S
C484 C483 1.355 . S
C484 C486 1.419 . S
C485 C480 1.425 . S
C485 C482 1.409 . S
C485 C483 1.415 . S
C486 H476 0.930 . S
C486 C484 1.419 . S
C486 C487 1.362 . S
C487 H477 0.930 . S
C487 C480 1.409 . S
C487 C486 1.362 . S
H488 C494 0.930 . S
H489 C497 0.930 . S
H490 C498 0.930 . S
H491 C499 0.930 . S
H492 C502 0.930 . S
H493 C503 0.930 . S
C494 H488 0.930 . S
C494 C495 1.355 1_655 S
C494 C496 1.415 . S
C495 C494 1.355 1_455 S
C495 C497 1.419 1_554 S
C496 C494 1.415 . S
C496 C501 1.425 1_654 S
C496 C503 1.409 . S
C497 H489 0.930 . S
C497 C495 1.419 1_556 S
C497 C498 1.362 . S
C498 H490 0.930 . S
C498 C497 1.362 . S
C498 C501 1.409 . S
C499 H491 0.930 . S
C499 C500 1.355 . S
C499 C501 1.415 . S
C500 C499 1.355 . S
C500 C502 1.419 1_456 S
C501 C496 1.425 1_456 S
C501 C498 1.409 . S
C501 C499 1.415 . S
C502 H492 0.930 . S
C502 C500 1.419 1_654 S
C502 C503 1.362 . S
C503 H493 0.930 . S
C503 C496 1.409 . S
C503 C502 1.362 . S
H504 C510 0.930 . S
H505 C513 0.930 . S
H506 C514 0.930 . S
H507 C515 0.930 . S
H508 C518 0.930 . S
H509 C519 0.930 . S
C510 H504 0.930 . S
C510 C511 1.336 1_545 S
C510 C512 1.415 . S
C511 C510 1.336 1_565 S
C511 C513 1.437 . S
C512 C510 1.415 . S
C512 C517 1.425 1_545 S
C512 C519 1.409 1_554 S
C513 H505 0.930 . S
C513 C511 1.437 . S
C513 C514 1.362 . S
C514 H506 0.930 . S
C514 C513 1.362 . S
C514 C517 1.409 . S
C515 H507 0.930 . S
C515 C516 1.355 1_564 S
C515 C517 1.415 . S
C516 C515 1.355 1_546 S
C516 C518 1.419 . S
C517 C512 1.425 1_565 S
C517 C514 1.409 . S
C517 C515 1.415 . S
C518 H508 0.930 . S
C518 C516 1.419 . S
C518 C519 1.362 . S
C519 H509 0.930 . S
C519 C512 1.409 1_556 S
C519 C518 1.362 . S
H520 C526 0.930 . S
H521 C529 0.930 . S
H522 C530 0.930 . S
H523 C531 0.930 1_556 S
H524 C534 0.930 . S
H525 C535 0.930 . S
C526 H520 0.930 . S
C526 C527 1.355 . S
C526 C528 1.415 . S
C527 C526 1.355 . S
C527 C529 1.419 . S
C528 C526 1.415 . S
C528 C533 1.425 . S
C528 C535 1.409 . S
C529 H521 0.930 . S
C529 C527 1.419 . S
C529 C530 1.362 . S
C530 H522 0.930 . S
C530 C529 1.362 . S
C530 C533 1.409 . S
C531 H523 0.930 1_554 S
C531 C532 1.355 . S
C531 C533 1.415 . S
C532 C531 1.355 . S
C532 C534 1.419 . S
C533 C528 1.425 . S
C533 C530 1.409 . S
C533 C531 1.415 . S
C534 H524 0.930 . S
C534 C532 1.419 . S
C534 C535 1.362 . S
C535 H525 0.930 . S
C535 C528 1.409 . S
C535 C534 1.362 . S
H536 C542 0.930 . S
H537 C545 0.930 1_554 S
H538 C546 0.930 1_554 S
H539 C547 0.930 . S
H540 C550 0.930 . S
H541 C551 0.930 . S
C542 H536 0.930 . S
C542 C543 1.355 . S
C542 C544 1.415 . S
C543 C542 1.355 . S
C543 C545 1.419 . S
C544 C542 1.415 . S
C544 C549 1.425 . S
C544 C551 1.409 . S
C545 H537 0.930 1_556 S
C545 C543 1.419 . S
C545 C546 1.362 . S
C546 H538 0.930 1_556 S
C546 C545 1.362 . S
C546 C549 1.409 . S
C547 H539 0.930 . S
C547 C548 1.355 . S
C547 C549 1.415 . S
C548 C547 1.355 . S
C548 C550 1.419 . S
C549 C544 1.425 . S
C549 C546 1.409 . S
C549 C547 1.415 . S
C550 H540 0.930 . S
C550 C548 1.419 . S
C550 C551 1.362 . S
C551 H541 0.930 . S
C551 C544 1.409 . S
C551 C550 1.362 . S
H552 C558 0.930 . S
H553 C561 0.930 . S
H554 C562 0.930 . S
H555 C563 0.930 . S
H556 C566 0.930 . S
H557 C567 0.930 . S
C558 H552 0.930 . S
C558 C559 1.355 1_455 S
C558 C560 1.415 . S
C559 C558 1.355 1_655 S
C559 C561 1.419 . S
C560 C558 1.415 . S
C560 C565 1.425 1_455 S
C560 C567 1.409 . S
C561 H553 0.930 . S
C561 C559 1.419 . S
C561 C562 1.362 . S
C562 H554 0.930 . S
C562 C561 1.362 . S
C562 C565 1.409 . S
C563 H555 0.930 . S
C563 C564 1.355 . S
C563 C565 1.415 . S
C564 C563 1.355 . S
C564 C566 1.419 1_655 S
C565 C560 1.425 1_655 S
C565 C562 1.409 . S
C565 C563 1.415 . S
C566 H556 0.930 . S
C566 C564 1.419 1_455 S
C566 C567 1.362 . S
C567 H557 0.930 . S
C567 C560 1.409 . S
C567 C566 1.362 . S
H568 C574 0.930 . S
H569 C577 0.930 . S
H570 C578 0.930 . S
H571 C579 0.930 . S
H572 C582 0.930 1_545 S
H573 C583 0.930 . S
C574 H568 0.930 . S
C574 C575 1.355 1_545 S
C574 C576 1.415 1_545 S
C575 C574 1.355 1_565 S
C575 C577 1.419 . S
C576 C574 1.415 1_565 S
C576 C581 1.425 . S
C576 C583 1.409 1_565 S
C577 H569 0.930 . S
C577 C575 1.419 . S
C577 C578 1.362 . S
C578 H570 0.930 . S
C578 C577 1.362 . S
C578 C581 1.409 . S
C579 H571 0.930 . S
C579 C580 1.355 . S
C579 C581 1.415 . S
C580 C579 1.355 . S
C580 C582 1.419 . S
C581 C576 1.425 . S
C581 C578 1.409 . S
C581 C579 1.415 . S
C582 H572 0.930 1_565 S
C582 C580 1.419 . S
C582 C583 1.362 1_565 S
C583 H573 0.930 . S
C583 C576 1.409 1_545 S
C583 C582 1.362 1_545 S
H584 C590 0.930 . S
H585 C593 0.930 . S
H586 C594 0.930 . S
H587 C595 0.930 . S
H588 C598 0.930 . S
H589 C599 0.930 . S
C590 H584 0.930 . S
C590 C591 1.355 . S
C590 C592 1.415 . S
C591 C590 1.355 . S
C591 C593 1.419 . S
C592 C590 1.415 . S
C592 C597 1.425 . S
C592 C599 1.409 . S
C593 H585 0.930 . S
C593 C591 1.419 . S
C593 C594 1.362 . S
C594 H586 0.930 . S
C594 C593 1.362 . S
C594 C597 1.409 . S
C595 H587 0.930 . S
C595 C596 1.355 . S
C595 C597 1.415 . S
C596 C595 1.355 . S
C596 C598 1.419 . S
C597 C592 1.425 . S
C597 C594 1.409 . S
C597 C595 1.415 . S
C598 H588 0.930 . S
C598 C596 1.419 . S
C598 C599 1.362 . S
C599 H589 0.930 . S
C599 C592 1.409 . S
C599 C598 1.362 . S
H600 C606 0.930 . S
H601 C609 0.930 . S
H602 C610 0.930 . S
H603 C611 0.930 . S
H604 C614 0.930 . S
H605 C615 0.930 . S
C606 H600 0.930 . S
C606 C607 1.355 . S
C606 C608 1.415 . S
C607 C606 1.355 . S
C607 C609 1.419 . S
C608 C606 1.415 . S
C608 C613 1.425 . S
C608 C615 1.409 . S
C609 H601 0.930 . S
C609 C607 1.419 . S
C609 C610 1.362 . S
C610 H602 0.930 . S
C610 C609 1.362 . S
C610 C613 1.409 . S
C611 H603 0.930 . S
C611 C612 1.355 . S
C611 C613 1.415 . S
C612 C611 1.355 . S
C612 C614 1.419 . S
C613 C608 1.425 . S
C613 C610 1.409 . S
C613 C611 1.415 . S
C614 H604 0.930 . S
C614 C612 1.419 . S
C614 C615 1.362 . S
C615 H605 0.930 . S
C615 C608 1.409 . S
C615 C614 1.362 . S
C239 C61 1.950 1_545 S
C244 C74 2.052 . S
C260 C114 1.968 . S
C255 C70 1.951 . S
C276 C178 1.978 . S
C271 C43 1.865 . S
C292 C194 1.743 . S
C287 C52 1.546 1_455 S
C308 C95 2.053 1_554 S
C303 C25 1.995 . S
C319 C34 1.924 . S
C324 C135 1.981 . S
C335 C7 1.938 . S
C340 C169 2.030 . S
C351 C16 1.576 1_455 S
C356 C215 1.786 1_654 S
C372 C89 0.495 . S
C367 C50 0.474 1_455 S
C388 C129 0.804 . S
C383 C59 0.775 1_545 S
C404 C165 0.775 . S
C399 C67 0.759 . S
C415 C41 0.895 . S
C420 C209 0.895 . S
C431 C14 0.568 . S
C436 C98 0.651 . S
C452 C138 0.786 . S
C447 C23 0.740 . S
C468 C176 0.712 1_554 S
C463 C31 0.713 . S
C479 C5 0.733 . S
C484 C218 0.694 . S
C495 C49 1.863 1_455 S
C500 C96 2.085 . S
C511 C58 1.902 . S
C516 C136 2.126 . S
C532 C154 1.768 1_554 S
C527 C68 1.729 . S
C548 C216 2.415 . S
C543 C40 2.080 . S
C559 C13 1.869 . S
C564 C85 2.096 . S
C580 C125 2.116 . S
C575 C22 1.948 . S
C596 C175 1.741 . S
C591 C32 1.702 . S
C607 C4 2.170 . S
C612 C205 2.421 . S
