# Generated by pormake.
# Topology tbo, (3,4)-cn, num edge types: 1
# Building blocks:
#     Node 0, Type 0, BuildingBlock: WUSLED_clean_sbu_0, # of connection points: 3
#     Node 1, Type 0, BuildingBlock: WUSLED_clean_sbu_0, # of connection points: 3
#     Node 2, Type 0, BuildingBlock: WUSLED_clean_sbu_0, # of connection points: 3
#     Node 3, Type 0, BuildingBlock: WUSLED_clean_sbu_0, # of connection points: 3
#     Node 4, Type 0, BuildingBlock: WUSLED_clean_sbu_0, # of connection points: 3
#     Node 5, Type 0, BuildingBlock: WUSLED_clean_sbu_0, # of connection points: 3
#     Node 6, Type 0, BuildingBlock: WUSLED_clean_sbu_0, # of connection points: 3
#     Node 7, Type 0, BuildingBlock: WUSLED_clean_sbu_0, # of connection points: 3
#     Node 8, Type 0, BuildingBlock: WUSLED_clean_sbu_0, # of connection points: 3
#     Node 9, Type 0, BuildingBlock: WUSLED_clean_sbu_0, # of connection points: 3
#     Node 10, Type 0, BuildingBlock: WUSLED_clean_sbu_0, # of connection points: 3
#     Node 11, Type 0, BuildingBlock: WUSLED_clean_sbu_0, # of connection points: 3
#     Node 12, Type 0, BuildingBlock: WUSLED_clean_sbu_0, # of connection points: 3
#     Node 13, Type 0, BuildingBlock: WUSLED_clean_sbu_0, # of connection points: 3
#     Node 14, Type 0, BuildingBlock: WUSLED_clean_sbu_0, # of connection points: 3
#     Node 15, Type 0, BuildingBlock: WUSLED_clean_sbu_0, # of connection points: 3
#     Node 16, Type 0, BuildingBlock: WUSLED_clean_sbu_0, # of connection points: 3
#     Node 17, Type 0, BuildingBlock: WUSLED_clean_sbu_0, # of connection points: 3
#     Node 18, Type 0, BuildingBlock: WUSLED_clean_sbu_0, # of connection points: 3
#     Node 19, Type 0, BuildingBlock: WUSLED_clean_sbu_0, # of connection points: 3
#     Node 20, Type 0, BuildingBlock: WUSLED_clean_sbu_0, # of connection points: 3
#     Node 21, Type 0, BuildingBlock: WUSLED_clean_sbu_0, # of connection points: 3
#     Node 22, Type 0, BuildingBlock: WUSLED_clean_sbu_0, # of connection points: 3
#     Node 23, Type 0, BuildingBlock: WUSLED_clean_sbu_0, # of connection points: 3
#     Node 24, Type 0, BuildingBlock: WUSLED_clean_sbu_0, # of connection points: 3
#     Node 25, Type 0, BuildingBlock: WUSLED_clean_sbu_0, # of connection points: 3
#     Node 26, Type 0, BuildingBlock: WUSLED_clean_sbu_0, # of connection points: 3
#     Node 27, Type 0, BuildingBlock: WUSLED_clean_sbu_0, # of connection points: 3
#     Node 28, Type 0, BuildingBlock: WUSLED_clean_sbu_0, # of connection points: 3
#     Node 29, Type 0, BuildingBlock: WUSLED_clean_sbu_0, # of connection points: 3
#     Node 30, Type 0, BuildingBlock: WUSLED_clean_sbu_0, # of connection points: 3
#     Node 31, Type 0, BuildingBlock: WUSLED_clean_sbu_0, # of connection points: 3
#     Node 32, Type 1, BuildingBlock: NAWXER_clean_linker_0, # of connection points: 4
#     Node 33, Type 1, BuildingBlock: NAWXER_clean_linker_0, # of connection points: 4
#     Node 34, Type 1, BuildingBlock: NAWXER_clean_linker_0, # of connection points: 4
#     Node 35, Type 1, BuildingBlock: NAWXER_clean_linker_0, # of connection points: 4
#     Node 36, Type 1, BuildingBlock: NAWXER_clean_linker_0, # of connection points: 4
#     Node 37, Type 1, BuildingBlock: NAWXER_clean_linker_0, # of connection points: 4
#     Node 38, Type 1, BuildingBlock: NAWXER_clean_linker_0, # of connection points: 4
#     Node 39, Type 1, BuildingBlock: NAWXER_clean_linker_0, # of connection points: 4
#     Node 40, Type 1, BuildingBlock: NAWXER_clean_linker_0, # of connection points: 4
#     Node 41, Type 1, BuildingBlock: NAWXER_clean_linker_0, # of connection points: 4
#     Node 42, Type 1, BuildingBlock: NAWXER_clean_linker_0, # of connection points: 4
#     Node 43, Type 1, BuildingBlock: NAWXER_clean_linker_0, # of connection points: 4
#     Node 44, Type 1, BuildingBlock: NAWXER_clean_linker_0, # of connection points: 4
#     Node 45, Type 1, BuildingBlock: NAWXER_clean_linker_0, # of connection points: 4
#     Node 46, Type 1, BuildingBlock: NAWXER_clean_linker_0, # of connection points: 4
#     Node 47, Type 1, BuildingBlock: NAWXER_clean_linker_0, # of connection points: 4
#     Node 48, Type 1, BuildingBlock: NAWXER_clean_linker_0, # of connection points: 4
#     Node 49, Type 1, BuildingBlock: NAWXER_clean_linker_0, # of connection points: 4
#     Node 50, Type 1, BuildingBlock: NAWXER_clean_linker_0, # of connection points: 4
#     Node 51, Type 1, BuildingBlock: NAWXER_clean_linker_0, # of connection points: 4
#     Node 52, Type 1, BuildingBlock: NAWXER_clean_linker_0, # of connection points: 4
#     Node 53, Type 1, BuildingBlock: NAWXER_clean_linker_0, # of connection points: 4
#     Node 54, Type 1, BuildingBlock: NAWXER_clean_linker_0, # of connection points: 4
#     Node 55, Type 1, BuildingBlock: NAWXER_clean_linker_0, # of connection points: 4
#     Edge 56, Type (0, 1), BuildingBlock: OJICUG_clean_linker_0, # of connection points: 2
#     Edge 57, Type (0, 1), BuildingBlock: OJICUG_clean_linker_0, # of connection points: 2
#     Edge 58, Type (0, 1), BuildingBlock: OJICUG_clean_linker_0, # of connection points: 2
#     Edge 59, Type (0, 1), BuildingBlock: OJICUG_clean_linker_0, # of connection points: 2
#     Edge 60, Type (0, 1), BuildingBlock: OJICUG_clean_linker_0, # of connection points: 2
#     Edge 61, Type (0, 1), BuildingBlock: OJICUG_clean_linker_0, # of connection points: 2
#     Edge 62, Type (0, 1), BuildingBlock: OJICUG_clean_linker_0, # of connection points: 2
#     Edge 63, Type (0, 1), BuildingBlock: OJICUG_clean_linker_0, # of connection points: 2
#     Edge 64, Type (0, 1), BuildingBlock: OJICUG_clean_linker_0, # of connection points: 2
#     Edge 65, Type (0, 1), BuildingBlock: OJICUG_clean_linker_0, # of connection points: 2
#     Edge 66, Type (0, 1), BuildingBlock: OJICUG_clean_linker_0, # of connection points: 2
#     Edge 67, Type (0, 1), BuildingBlock: OJICUG_clean_linker_0, # of connection points: 2
#     Edge 68, Type (0, 1), BuildingBlock: OJICUG_clean_linker_0, # of connection points: 2
#     Edge 69, Type (0, 1), BuildingBlock: OJICUG_clean_linker_0, # of connection points: 2
#     Edge 70, Type (0, 1), BuildingBlock: OJICUG_clean_linker_0, # of connection points: 2
#     Edge 71, Type (0, 1), BuildingBlock: OJICUG_clean_linker_0, # of connection points: 2
#     Edge 72, Type (0, 1), BuildingBlock: OJICUG_clean_linker_0, # of connection points: 2
#     Edge 73, Type (0, 1), BuildingBlock: OJICUG_clean_linker_0, # of connection points: 2
#     Edge 74, Type (0, 1), BuildingBlock: OJICUG_clean_linker_0, # of connection points: 2
#     Edge 75, Type (0, 1), BuildingBlock: OJICUG_clean_linker_0, # of connection points: 2
#     Edge 76, Type (0, 1), BuildingBlock: OJICUG_clean_linker_0, # of connection points: 2
#     Edge 77, Type (0, 1), BuildingBlock: OJICUG_clean_linker_0, # of connection points: 2
#     Edge 78, Type (0, 1), BuildingBlock: OJICUG_clean_linker_0, # of connection points: 2
#     Edge 79, Type (0, 1), BuildingBlock: OJICUG_clean_linker_0, # of connection points: 2
#     Edge 80, Type (0, 1), BuildingBlock: OJICUG_clean_linker_0, # of connection points: 2
#     Edge 81, Type (0, 1), BuildingBlock: OJICUG_clean_linker_0, # of connection points: 2
#     Edge 82, Type (0, 1), BuildingBlock: OJICUG_clean_linker_0, # of connection points: 2
#     Edge 83, Type (0, 1), BuildingBlock: OJICUG_clean_linker_0, # of connection points: 2
#     Edge 84, Type (0, 1), BuildingBlock: OJICUG_clean_linker_0, # of connection points: 2
#     Edge 85, Type (0, 1), BuildingBlock: OJICUG_clean_linker_0, # of connection points: 2
#     Edge 86, Type (0, 1), BuildingBlock: OJICUG_clean_linker_0, # of connection points: 2
#     Edge 87, Type (0, 1), BuildingBlock: OJICUG_clean_linker_0, # of connection points: 2
#     Edge 88, Type (0, 1), BuildingBlock: OJICUG_clean_linker_0, # of connection points: 2
#     Edge 89, Type (0, 1), BuildingBlock: OJICUG_clean_linker_0, # of connection points: 2
#     Edge 90, Type (0, 1), BuildingBlock: OJICUG_clean_linker_0, # of connection points: 2
#     Edge 91, Type (0, 1), BuildingBlock: OJICUG_clean_linker_0, # of connection points: 2
#     Edge 92, Type (0, 1), BuildingBlock: OJICUG_clean_linker_0, # of connection points: 2
#     Edge 93, Type (0, 1), BuildingBlock: OJICUG_clean_linker_0, # of connection points: 2
#     Edge 94, Type (0, 1), BuildingBlock: OJICUG_clean_linker_0, # of connection points: 2
#     Edge 95, Type (0, 1), BuildingBlock: OJICUG_clean_linker_0, # of connection points: 2
#     Edge 96, Type (0, 1), BuildingBlock: OJICUG_clean_linker_0, # of connection points: 2
#     Edge 97, Type (0, 1), BuildingBlock: OJICUG_clean_linker_0, # of connection points: 2
#     Edge 98, Type (0, 1), BuildingBlock: OJICUG_clean_linker_0, # of connection points: 2
#     Edge 99, Type (0, 1), BuildingBlock: OJICUG_clean_linker_0, # of connection points: 2
#     Edge 100, Type (0, 1), BuildingBlock: OJICUG_clean_linker_0, # of connection points: 2
#     Edge 101, Type (0, 1), BuildingBlock: OJICUG_clean_linker_0, # of connection points: 2
#     Edge 102, Type (0, 1), BuildingBlock: OJICUG_clean_linker_0, # of connection points: 2
#     Edge 103, Type (0, 1), BuildingBlock: OJICUG_clean_linker_0, # of connection points: 2
#     Edge 104, Type (0, 1), BuildingBlock: OJICUG_clean_linker_0, # of connection points: 2
#     Edge 105, Type (0, 1), BuildingBlock: OJICUG_clean_linker_0, # of connection points: 2
#     Edge 106, Type (0, 1), BuildingBlock: OJICUG_clean_linker_0, # of connection points: 2
#     Edge 107, Type (0, 1), BuildingBlock: OJICUG_clean_linker_0, # of connection points: 2
#     Edge 108, Type (0, 1), BuildingBlock: OJICUG_clean_linker_0, # of connection points: 2
#     Edge 109, Type (0, 1), BuildingBlock: OJICUG_clean_linker_0, # of connection points: 2
#     Edge 110, Type (0, 1), BuildingBlock: OJICUG_clean_linker_0, # of connection points: 2
#     Edge 111, Type (0, 1), BuildingBlock: OJICUG_clean_linker_0, # of connection points: 2
#     Edge 112, Type (0, 1), BuildingBlock: OJICUG_clean_linker_0, # of connection points: 2
#     Edge 113, Type (0, 1), BuildingBlock: OJICUG_clean_linker_0, # of connection points: 2
#     Edge 114, Type (0, 1), BuildingBlock: OJICUG_clean_linker_0, # of connection points: 2
#     Edge 115, Type (0, 1), BuildingBlock: OJICUG_clean_linker_0, # of connection points: 2
#     Edge 116, Type (0, 1), BuildingBlock: OJICUG_clean_linker_0, # of connection points: 2
#     Edge 117, Type (0, 1), BuildingBlock: OJICUG_clean_linker_0, # of connection points: 2
#     Edge 118, Type (0, 1), BuildingBlock: OJICUG_clean_linker_0, # of connection points: 2
#     Edge 119, Type (0, 1), BuildingBlock: OJICUG_clean_linker_0, # of connection points: 2
#     Edge 120, Type (0, 1), BuildingBlock: OJICUG_clean_linker_0, # of connection points: 2
#     Edge 121, Type (0, 1), BuildingBlock: OJICUG_clean_linker_0, # of connection points: 2
#     Edge 122, Type (0, 1), BuildingBlock: OJICUG_clean_linker_0, # of connection points: 2
#     Edge 123, Type (0, 1), BuildingBlock: OJICUG_clean_linker_0, # of connection points: 2
#     Edge 124, Type (0, 1), BuildingBlock: OJICUG_clean_linker_0, # of connection points: 2
#     Edge 125, Type (0, 1), BuildingBlock: OJICUG_clean_linker_0, # of connection points: 2
#     Edge 126, Type (0, 1), BuildingBlock: OJICUG_clean_linker_0, # of connection points: 2
#     Edge 127, Type (0, 1), BuildingBlock: OJICUG_clean_linker_0, # of connection points: 2
#     Edge 128, Type (0, 1), BuildingBlock: OJICUG_clean_linker_0, # of connection points: 2
#     Edge 129, Type (0, 1), BuildingBlock: OJICUG_clean_linker_0, # of connection points: 2
#     Edge 130, Type (0, 1), BuildingBlock: OJICUG_clean_linker_0, # of connection points: 2
#     Edge 131, Type (0, 1), BuildingBlock: OJICUG_clean_linker_0, # of connection points: 2
#     Edge 132, Type (0, 1), BuildingBlock: OJICUG_clean_linker_0, # of connection points: 2
#     Edge 133, Type (0, 1), BuildingBlock: OJICUG_clean_linker_0, # of connection points: 2
#     Edge 134, Type (0, 1), BuildingBlock: OJICUG_clean_linker_0, # of connection points: 2
#     Edge 135, Type (0, 1), BuildingBlock: OJICUG_clean_linker_0, # of connection points: 2
#     Edge 136, Type (0, 1), BuildingBlock: OJICUG_clean_linker_0, # of connection points: 2
#     Edge 137, Type (0, 1), BuildingBlock: OJICUG_clean_linker_0, # of connection points: 2
#     Edge 138, Type (0, 1), BuildingBlock: OJICUG_clean_linker_0, # of connection points: 2
#     Edge 139, Type (0, 1), BuildingBlock: OJICUG_clean_linker_0, # of connection points: 2
#     Edge 140, Type (0, 1), BuildingBlock: OJICUG_clean_linker_0, # of connection points: 2
#     Edge 141, Type (0, 1), BuildingBlock: OJICUG_clean_linker_0, # of connection points: 2
#     Edge 142, Type (0, 1), BuildingBlock: OJICUG_clean_linker_0, # of connection points: 2
#     Edge 143, Type (0, 1), BuildingBlock: OJICUG_clean_linker_0, # of connection points: 2
#     Edge 144, Type (0, 1), BuildingBlock: OJICUG_clean_linker_0, # of connection points: 2
#     Edge 145, Type (0, 1), BuildingBlock: OJICUG_clean_linker_0, # of connection points: 2
#     Edge 146, Type (0, 1), BuildingBlock: OJICUG_clean_linker_0, # of connection points: 2
#     Edge 147, Type (0, 1), BuildingBlock: OJICUG_clean_linker_0, # of connection points: 2
#     Edge 148, Type (0, 1), BuildingBlock: OJICUG_clean_linker_0, # of connection points: 2
#     Edge 149, Type (0, 1), BuildingBlock: OJICUG_clean_linker_0, # of connection points: 2
#     Edge 150, Type (0, 1), BuildingBlock: OJICUG_clean_linker_0, # of connection points: 2
#     Edge 151, Type (0, 1), BuildingBlock: OJICUG_clean_linker_0, # of connection points: 2
# Relax obj value: 0.000
# Max RMSD: 0.011
# Mean RMSD: 0.006
data_MOF--net-tbo--node1-WUSLED_clean_sbu_0--node2-NAWXER_clean_linker_0--edge1-OJICUG_clean_linker_0
_symmetry_space_group_name_H-M    P1
_symmetry_Int_Tables_number       1
_symmetry_cell_setting            triclinic
loop_
_symmetry_equiv_pos_as_xyz
'x, y, z'
_cell_length_a     87.937962
_cell_length_b     87.917492
_cell_length_c     87.669471
_cell_angle_alpha  89.55355
_cell_angle_beta   90.34752
_cell_angle_gamma 90.524619
loop_
_atom_site_label
_atom_site_type_symbol
_atom_site_fract_x
_atom_site_fract_y
_atom_site_fract_z
_atom_type_partial_charge
C0 C 0.18834 0.1503 0.21237 0.0
C1 C 0.19529 0.14046 0.20203 0.0
C2 C 0.20396 0.12427 0.22304 0.0
C3 C 0.20298 0.12755 0.20731 0.0
C4 C 0.19722 0.13438 0.23333 0.0
C5 C 0.18947 0.14721 0.22804 0.0
U6 U 0.18117 0.18379 0.18491 0.0
O7 O 0.15956 0.19223 0.17537 0.0
O8 O 0.17371 0.20703 0.18978 0.0
C9 C 0.16066 0.20523 0.1826 0.0
C10 C 0.17961 0.16364 0.20714 0.0
C11 C 0.147 0.20991 0.19096 0.0
C12 C 0.13236 0.21175 0.21434 0.0
C13 C 0.14527 0.20677 0.20659 0.0
C14 C 0.12265 0.22277 0.19086 0.0
C15 C 0.12091 0.21984 0.20656 0.0
C16 C 0.13557 0.21787 0.18316 0.0
C17 C 0.20855 0.19111 0.15152 0.0
C18 C 0.20349 0.20607 0.1286 0.0
C19 C 0.22939 0.19958 0.13536 0.0
C20 C 0.22413 0.19186 0.14833 0.0
C21 C 0.21914 0.20669 0.12524 0.0
C22 C 0.19825 0.19839 0.14164 0.0
C23 C 0.2034 0.18252 0.16508 0.0
O24 O 0.18646 0.1769 0.20858 0.0
O25 O 0.17225 0.16219 0.19412 0.0
O26 O 0.19058 0.17483 0.16364 0.0
O27 O 0.2046 0.18968 0.17814 0.0
H28 H 0.19462 0.14264 0.18986 0.0
H29 H 0.20789 0.11998 0.19903 0.0
H30 H 0.19798 0.13242 0.24552 0.0
H31 H 0.18426 0.15471 0.23621 0.0
H32 H 0.13129 0.20915 0.22638 0.0
H33 H 0.15392 0.20054 0.21281 0.0
H34 H 0.11415 0.22912 0.18456 0.0
H35 H 0.13671 0.22042 0.17111 0.0
H36 H 0.19525 0.21128 0.12102 0.0
H37 H 0.24152 0.20004 0.13334 0.0
H38 H 0.23227 0.1864 0.15586 0.0
H39 H 0.18616 0.19801 0.14392 0.0
C40 C 0.81709 0.19173 0.1535 0.0
C41 C 0.82749 0.19946 0.14406 0.0
C42 C 0.80677 0.20776 0.12743 0.0
C43 C 0.82238 0.20736 0.13112 0.0
C44 C 0.79642 0.20023 0.13715 0.0
C45 C 0.80154 0.19227 0.15002 0.0
U46 U 0.84509 0.1843 0.18623 0.0
O47 O 0.84092 0.17708 0.20991 0.0
O48 O 0.85431 0.16264 0.19482 0.0
C49 C 0.84744 0.16382 0.20802 0.0
C50 C 0.82222 0.18292 0.1669 0.0
C51 C 0.83873 0.15025 0.21303 0.0
C52 C 0.81493 0.13752 0.21958 0.0
C53 C 0.82284 0.15052 0.21463 0.0
C54 C 0.83862 0.12373 0.22111 0.0
C55 C 0.82274 0.12398 0.22287 0.0
C56 C 0.84653 0.13675 0.2163 0.0
C57 C 0.87953 0.21072 0.19165 0.0
C58 C 0.89488 0.21228 0.21476 0.0
C59 C 0.904 0.22375 0.19128 0.0
C60 C 0.89079 0.21889 0.18375 0.0
C61 C 0.90617 0.22058 0.20689 0.0
C62 C 0.8817 0.20733 0.20718 0.0
C63 C 0.86559 0.20604 0.18352 0.0
O64 O 0.83487 0.17527 0.16521 0.0
O65 O 0.82146 0.18994 0.18005 0.0
O66 O 0.85281 0.20762 0.19103 0.0
O67 O 0.86634 0.19311 0.17615 0.0
H68 H 0.83956 0.19925 0.1466 0.0
H69 H 0.8307 0.21289 0.12384 0.0
H70 H 0.78431 0.20053 0.13486 0.0
H71 H 0.79335 0.18646 0.15724 0.0
H72 H 0.80268 0.13801 0.22067 0.0
H73 H 0.81651 0.16074 0.21205 0.0
H74 H 0.84497 0.11352 0.22371 0.0
H75 H 0.85878 0.1363 0.21516 0.0
H76 H 0.89631 0.2095 0.22674 0.0
H77 H 0.9124 0.23025 0.18493 0.0
H78 H 0.88931 0.22161 0.17176 0.0
H79 H 0.87318 0.20093 0.21346 0.0
C80 C 0.81988 0.84045 0.15019 0.0
C81 C 0.83064 0.83324 0.141 0.0
C82 C 0.81039 0.82352 0.1245 0.0
C83 C 0.82593 0.82491 0.12822 0.0
C84 C 0.79968 0.83066 0.13384 0.0
C85 C 0.80439 0.83906 0.14653 0.0
U86 U 0.84591 0.84846 0.18454 0.0
O87 O 0.85459 0.87016 0.19354 0.0
O88 O 0.83992 0.85561 0.20775 0.0
C89 C 0.84688 0.86883 0.20629 0.0
C90 C 0.82446 0.84948 0.1636 0.0
C91 C 0.83806 0.8822 0.21095 0.0
C92 C 0.82318 0.90472 0.20502 0.0
C93 C 0.83122 0.89195 0.2002 0.0
C94 C 0.82847 0.89797 0.23134 0.0
C95 C 0.82172 0.90789 0.22066 0.0
C96 C 0.83657 0.88529 0.22652 0.0
C97 C 0.87931 0.8216 0.19307 0.0
C98 C 0.90227 0.82684 0.20784 0.0
C99 C 0.89473 0.80081 0.20275 0.0
C100 C 0.88199 0.80598 0.19472 0.0
C101 C 0.90516 0.81115 0.20926 0.0
C102 C 0.88945 0.83202 0.19984 0.0
C103 C 0.86607 0.82661 0.18399 0.0
O104 O 0.82266 0.84271 0.17689 0.0
O105 O 0.83736 0.85708 0.16252 0.0
O106 O 0.86763 0.83949 0.17638 0.0
O107 O 0.85278 0.82513 0.19062 0.0
H108 H 0.84266 0.83405 0.14368 0.0
H109 H 0.83444 0.81942 0.12134 0.0
H110 H 0.78765 0.82997 0.1312 0.0
H111 H 0.79592 0.84453 0.15347 0.0
H112 H 0.81798 0.91204 0.19651 0.0
H113 H 0.83211 0.88972 0.1881 0.0
H114 H 0.82773 0.90017 0.24345 0.0
H115 H 0.84178 0.87792 0.23499 0.0
H116 H 0.9101 0.83515 0.21259 0.0
H117 H 0.89639 0.78866 0.20386 0.0
H118 H 0.87425 0.79775 0.18967 0.0
H119 H 0.88758 0.84414 0.19879 0.0
C120 C 0.1484 0.82029 0.19299 0.0
C121 C 0.14748 0.82214 0.20886 0.0
C122 C 0.12247 0.80983 0.20904 0.0
C123 C 0.13465 0.81693 0.21682 0.0
C124 C 0.1234 0.8083 0.1931 0.0
C125 C 0.13623 0.81344 0.18519 0.0
U126 U 0.18247 0.84704 0.18551 0.0
O127 O 0.20565 0.84176 0.17808 0.0
O128 O 0.19101 0.85598 0.16359 0.0
C129 C 0.20384 0.84851 0.16475 0.0
C130 C 0.16192 0.8252 0.18431 0.0
C131 C 0.20827 0.83977 0.15115 0.0
C132 C 0.2142 0.81594 0.13861 0.0
C133 C 0.20945 0.82383 0.15153 0.0
C134 C 0.2163 0.83972 0.12464 0.0
C135 C 0.21773 0.8238 0.12502 0.0
C136 C 0.21168 0.84761 0.13758 0.0
C137 C 0.18981 0.88107 0.21205 0.0
C138 C 0.21334 0.89568 0.21443 0.0
C139 C 0.19004 0.90532 0.22514 0.0
C140 C 0.18218 0.89246 0.21995 0.0
C141 C 0.20576 0.90705 0.2226 0.0
C142 C 0.20543 0.8828 0.20918 0.0
C143 C 0.18124 0.86743 0.2072 0.0
O144 O 0.16064 0.8381 0.17676 0.0
O145 O 0.17514 0.82371 0.19122 0.0
O146 O 0.18823 0.85435 0.20878 0.0
O147 O 0.17373 0.86868 0.19426 0.0
H148 H 0.15672 0.82748 0.21512 0.0
H149 H 0.1344 0.81821 0.22909 0.0
H150 H 0.11415 0.8032 0.18667 0.0
H151 H 0.13667 0.812 0.17294 0.0
H152 H 0.21502 0.80366 0.13923 0.0
H153 H 0.20679 0.81746 0.16181 0.0
H154 H 0.21908 0.84612 0.11441 0.0
H155 H 0.21089 0.85989 0.13702 0.0
H156 H 0.22544 0.89656 0.21235 0.0
H157 H 0.18375 0.91396 0.23109 0.0
H158 H 0.17011 0.89137 0.22218 0.0
H159 H 0.21153 0.87415 0.20304 0.0
C160 C 0.14864 0.81983 0.84296 0.0
C161 C 0.14679 0.82323 0.82739 0.0
C162 C 0.1226 0.80941 0.827 0.0
C163 C 0.1339 0.81803 0.81947 0.0
C164 C 0.12447 0.80626 0.84267 0.0
C165 C 0.13737 0.8114 0.85054 0.0
U166 U 0.18259 0.84674 0.84878 0.0
O167 O 0.19202 0.85649 0.86987 0.0
O168 O 0.20609 0.84166 0.85582 0.0
C169 C 0.20487 0.84907 0.86871 0.0
C170 C 0.16225 0.82486 0.85146 0.0
C171 C 0.20996 0.8408 0.88245 0.0
C172 C 0.20479 0.82518 0.90488 0.0
C173 C 0.19966 0.83278 0.89176 0.0
C174 C 0.2306 0.83328 0.89935 0.0
C175 C 0.22034 0.82538 0.90888 0.0
C176 C 0.22544 0.84092 0.8863 0.0
C177 C 0.18977 0.8797 0.8211 0.0
C178 C 0.20593 0.90159 0.82664 0.0
C179 C 0.19846 0.89627 0.80056 0.0
C180 C 0.19023 0.88351 0.80555 0.0
C181 C 0.20632 0.90552 0.81106 0.0
C182 C 0.19779 0.88875 0.83161 0.0
C183 C 0.18086 0.86633 0.82612 0.0
O184 O 0.1753 0.82318 0.84446 0.0
O185 O 0.1611 0.83799 0.85839 0.0
O186 O 0.17342 0.86785 0.83898 0.0
O187 O 0.18774 0.85318 0.82501 0.0
H188 H 0.15535 0.82979 0.82134 0.0
H189 H 0.13293 0.82056 0.8074 0.0
H190 H 0.11589 0.79992 0.84892 0.0
H191 H 0.13856 0.80876 0.86258 0.0
H192 H 0.19655 0.81936 0.91201 0.0
H193 H 0.18765 0.83248 0.88894 0.0
H194 H 0.24266 0.83344 0.90188 0.0
H195 H 0.23357 0.84695 0.87919 0.0
H196 H 0.21201 0.90838 0.83497 0.0
H197 H 0.19842 0.89907 0.78851 0.0
H198 H 0.18413 0.87665 0.79728 0.0
H199 H 0.19771 0.88592 0.84366 0.0
C200 C 0.14637 0.18941 0.82204 0.0
C201 C 0.1377 0.19743 0.83266 0.0
C202 C 0.12085 0.20631 0.81233 0.0
C203 C 0.12501 0.20575 0.82785 0.0
C204 C 0.12969 0.19839 0.80175 0.0
C205 C 0.1423 0.19 0.80657 0.0
U206 U 0.17988 0.18094 0.84889 0.0
O207 O 0.18816 0.15896 0.85772 0.0
O208 O 0.20304 0.17344 0.84364 0.0
C209 C 0.20115 0.16018 0.85045 0.0
C210 C 0.15959 0.18028 0.82679 0.0
C211 C 0.20576 0.14667 0.84179 0.0
C212 C 0.20918 0.13317 0.81793 0.0
C213 C 0.20423 0.14598 0.82585 0.0
C214 C 0.21692 0.12147 0.84182 0.0
C215 C 0.21562 0.12077 0.82583 0.0
C216 C 0.21207 0.1343 0.84969 0.0
C217 C 0.18742 0.2071 0.8832 0.0
C218 C 0.21122 0.21085 0.89705 0.0
C219 C 0.18751 0.21887 0.90819 0.0
C220 C 0.17961 0.21365 0.89534 0.0
C221 C 0.20344 0.21772 0.90915 0.0
C222 C 0.20329 0.20555 0.88421 0.0
C223 C 0.1788 0.20242 0.8695 0.0
O224 O 0.17292 0.18702 0.82545 0.0
O225 O 0.15813 0.17254 0.8396 0.0
O226 O 0.17111 0.18958 0.87065 0.0
O227 O 0.1858 0.20405 0.85637 0.0
H228 H 0.14072 0.19721 0.84466 0.0
H229 H 0.11854 0.21186 0.83626 0.0
H230 H 0.12671 0.19843 0.78974 0.0
H231 H 0.14884 0.18389 0.7982 0.0
H232 H 0.20787 0.13291 0.80565 0.0
H233 H 0.19929 0.15536 0.81951 0.0
H234 H 0.22198 0.11222 0.84824 0.0
H235 H 0.21337 0.13461 0.86198 0.0
H236 H 0.22349 0.20987 0.89733 0.0
H237 H 0.18108 0.2238 0.91739 0.0
H238 H 0.16737 0.21487 0.89483 0.0
H239 H 0.20956 0.20047 0.87499 0.0
C240 C 0.81761 0.15075 0.8428 0.0
C241 C 0.82801 0.14184 0.83479 0.0
C242 C 0.80752 0.12468 0.82681 0.0
C243 C 0.82301 0.12891 0.82689 0.0
C244 C 0.79715 0.13387 0.83463 0.0
C245 C 0.80216 0.14673 0.84255 0.0
U246 U 0.84496 0.18409 0.85093 0.0
O247 O 0.83999 0.2074 0.8582 0.0
O248 O 0.85371 0.19251 0.87293 0.0
C249 C 0.84668 0.20558 0.87154 0.0
C250 C 0.82259 0.16409 0.85168 0.0
C251 C 0.8381 0.21052 0.88501 0.0
C252 C 0.81436 0.21441 0.89853 0.0
C253 C 0.8222 0.20911 0.88577 0.0
C254 C 0.83826 0.22227 0.91001 0.0
C255 C 0.82229 0.22118 0.91077 0.0
C256 C 0.84604 0.21703 0.89726 0.0
C257 C 0.87959 0.19103 0.82508 0.0
C258 C 0.89358 0.21472 0.82099 0.0
C259 C 0.90491 0.19075 0.81413 0.0
C260 C 0.8919 0.18301 0.81918 0.0
C261 C 0.90587 0.20673 0.81478 0.0
C262 C 0.88058 0.20694 0.82613 0.0
C263 C 0.86575 0.18255 0.82962 0.0
O264 O 0.83528 0.16256 0.85953 0.0
O265 O 0.82155 0.17732 0.84469 0.0
O266 O 0.85276 0.18965 0.82776 0.0
O267 O 0.8666 0.17494 0.84256 0.0
H268 H 0.84 0.14479 0.83478 0.0
H269 H 0.83134 0.12206 0.82112 0.0
H270 H 0.78511 0.13117 0.83459 0.0
H271 H 0.79395 0.15352 0.84858 0.0
H272 H 0.80208 0.21349 0.89865 0.0
H273 H 0.81582 0.20405 0.87646 0.0
H274 H 0.84479 0.2271 0.91932 0.0
H275 H 0.85832 0.21813 0.89694 0.0
H276 H 0.89383 0.22702 0.82156 0.0
H277 H 0.91424 0.18418 0.80972 0.0
H278 H 0.89141 0.17073 0.81836 0.0
H279 H 0.87124 0.21339 0.83071 0.0
C280 C 0.83764 0.88172 0.82165 0.0
C281 C 0.83507 0.89364 0.8319 0.0
C282 C 0.82164 0.90795 0.81213 0.0
C283 C 0.8272 0.90664 0.82716 0.0
C284 C 0.82405 0.89591 0.80198 0.0
C285 C 0.83202 0.88298 0.80668 0.0
U286 U 0.8456 0.847 0.84741 0.0
O287 O 0.85256 0.82388 0.84107 0.0
O288 O 0.86725 0.83779 0.85585 0.0
C289 C 0.8658 0.82517 0.84799 0.0
C290 C 0.84651 0.86812 0.82607 0.0
C291 C 0.87916 0.82042 0.83914 0.0
C292 C 0.90294 0.82599 0.82605 0.0
C293 C 0.88998 0.83097 0.8337 0.0
C294 C 0.89422 0.79991 0.8288 0.0
C295 C 0.90531 0.81036 0.82363 0.0
C296 C 0.88134 0.8049 0.8365 0.0
C297 C 0.81929 0.83839 0.88137 0.0
C298 C 0.825 0.82234 0.90337 0.0
C299 C 0.79896 0.82933 0.89784 0.0
C300 C 0.80383 0.83763 0.88509 0.0
C301 C 0.80948 0.82164 0.9072 0.0
C302 C 0.82986 0.83058 0.89052 0.0
C303 C 0.82406 0.84756 0.86804 0.0
O304 O 0.85442 0.86891 0.83884 0.0
O305 O 0.83959 0.85493 0.82426 0.0
O306 O 0.82234 0.84103 0.8547 0.0
O307 O 0.837 0.85506 0.86939 0.0
H308 H 0.83921 0.893 0.84354 0.0
H309 H 0.82539 0.91565 0.83529 0.0
H310 H 0.82007 0.89663 0.79028 0.0
H311 H 0.83392 0.87399 0.79854 0.0
H312 H 0.91127 0.83436 0.82236 0.0
H313 H 0.88854 0.84304 0.83555 0.0
H314 H 0.89547 0.78784 0.82689 0.0
H315 H 0.8731 0.79657 0.84053 0.0
H316 H 0.83337 0.81641 0.91024 0.0
H317 H 0.78696 0.82919 0.90055 0.0
H318 H 0.7955 0.84359 0.87817 0.0
H319 H 0.84186 0.83092 0.88779 0.0
C320 C 0.18731 0.64879 0.71134 0.0
C321 C 0.20307 0.64764 0.70921 0.0
C322 C 0.20294 0.6225 0.72119 0.0
C323 C 0.21083 0.63464 0.71415 0.0
C324 C 0.18711 0.62364 0.72306 0.0
C325 C 0.1794 0.63667 0.71821 0.0
U326 U 0.18104 0.68372 0.68556 0.0
O327 O 0.15979 0.69345 0.67667 0.0
O328 O 0.17453 0.70701 0.69174 0.0
C329 C 0.16139 0.70603 0.68457 0.0
C330 C 0.17892 0.66258 0.7068 0.0
C331 C 0.14801 0.71104 0.69324 0.0
C332 C 0.12429 0.70586 0.70657 0.0
C333 C 0.13715 0.70066 0.6989 0.0
C334 C 0.13317 0.73183 0.70334 0.0
C335 C 0.12206 0.72154 0.70879 0.0
C336 C 0.14595 0.72663 0.69563 0.0
C337 C 0.20824 0.69166 0.65215 0.0
C338 C 0.20329 0.70667 0.62924 0.0
C339 C 0.2292 0.70077 0.63649 0.0
C340 C 0.22387 0.69283 0.64929 0.0
C341 C 0.21898 0.70766 0.62618 0.0
C342 C 0.19797 0.69878 0.64212 0.0
C343 C 0.20299 0.68264 0.66542 0.0
O344 O 0.18609 0.67561 0.7088 0.0
O345 O 0.17155 0.66186 0.69374 0.0
O346 O 0.18993 0.67541 0.66381 0.0
O347 O 0.2046 0.68913 0.67879 0.0
H348 H 0.2094 0.65683 0.70382 0.0
H349 H 0.22299 0.63404 0.71237 0.0
H350 H 0.18072 0.61458 0.72857 0.0
H351 H 0.16724 0.63734 0.71997 0.0
H352 H 0.11593 0.6976 0.71046 0.0
H353 H 0.13851 0.68855 0.69726 0.0
H354 H 0.13203 0.74394 0.70509 0.0
H355 H 0.15423 0.73483 0.69143 0.0
H356 H 0.19507 0.7117 0.62151 0.0
H357 H 0.24135 0.70153 0.6347 0.0
H358 H 0.23199 0.68749 0.65694 0.0
H359 H 0.18584 0.69809 0.64412 0.0
C360 C 0.81834 0.69072 0.65207 0.0
C361 C 0.82174 0.70627 0.65027 0.0
C362 C 0.80898 0.70648 0.6255 0.0
C363 C 0.81703 0.7141 0.63712 0.0
C364 C 0.80577 0.69086 0.62733 0.0
C365 C 0.81039 0.68308 0.6405 0.0
U366 U 0.84452 0.68476 0.68656 0.0
O367 O 0.83893 0.67785 0.71008 0.0
O368 O 0.85385 0.66366 0.69626 0.0
C369 C 0.84614 0.66488 0.70899 0.0
C370 C 0.82296 0.68228 0.66587 0.0
C371 C 0.83747 0.65129 0.71382 0.0
C372 C 0.8214 0.62938 0.70808 0.0
C373 C 0.82942 0.64236 0.70323 0.0
C374 C 0.82915 0.6343 0.73416 0.0
C375 C 0.82119 0.6252 0.7236 0.0
C376 C 0.83723 0.6472 0.72929 0.0
C377 C 0.87786 0.71229 0.69363 0.0
C378 C 0.90137 0.70719 0.70745 0.0
C379 C 0.89326 0.73317 0.70343 0.0
C380 C 0.88035 0.72791 0.69564 0.0
C381 C 0.90404 0.72289 0.7093 0.0
C382 C 0.88839 0.70194 0.69975 0.0
C383 C 0.86445 0.70711 0.68485 0.0
O384 O 0.83599 0.67514 0.66499 0.0
O385 O 0.82117 0.68937 0.67888 0.0
O386 O 0.85127 0.70841 0.69169 0.0
O387 O 0.86587 0.69422 0.67751 0.0
H388 H 0.82799 0.71235 0.65903 0.0
H389 H 0.81983 0.72607 0.63597 0.0
H390 H 0.79945 0.6847 0.61867 0.0
H391 H 0.80768 0.67109 0.64169 0.0
H392 H 0.81525 0.62271 0.6997 0.0
H393 H 0.82934 0.64541 0.69123 0.0
H394 H 0.82935 0.6313 0.74616 0.0
H395 H 0.84337 0.65396 0.73762 0.0
H396 H 0.90948 0.69894 0.71166 0.0
H397 H 0.89475 0.74531 0.70488 0.0
H398 H 0.87232 0.73608 0.69109 0.0
H399 H 0.88669 0.6898 0.69841 0.0
C400 C 0.81822 0.33944 0.65152 0.0
C401 C 0.82879 0.33352 0.64124 0.0
C402 C 0.80817 0.32319 0.62555 0.0
C403 C 0.82381 0.3255 0.62836 0.0
C404 C 0.79769 0.32886 0.63611 0.0
C405 C 0.80267 0.33692 0.64891 0.0
U406 U 0.84517 0.34851 0.68504 0.0
O407 O 0.85332 0.3706 0.69353 0.0
O408 O 0.83959 0.35573 0.70836 0.0
C409 C 0.846 0.36918 0.7065 0.0
C410 C 0.82301 0.34853 0.66482 0.0
C411 C 0.83681 0.38231 0.71115 0.0
C412 C 0.82144 0.40448 0.70514 0.0
C413 C 0.82962 0.39178 0.70038 0.0
C414 C 0.82722 0.39817 0.73147 0.0
C415 C 0.82017 0.40784 0.72075 0.0
C416 C 0.83547 0.38557 0.7267 0.0
C417 C 0.88017 0.32356 0.69256 0.0
C418 C 0.89419 0.32079 0.71644 0.0
C419 C 0.90548 0.31268 0.69276 0.0
C420 C 0.89245 0.31724 0.6848 0.0
C421 C 0.90648 0.3143 0.70869 0.0
C422 C 0.88117 0.32544 0.70844 0.0
C423 C 0.86638 0.32771 0.68388 0.0
O424 O 0.82197 0.34167 0.67815 0.0
O425 O 0.83555 0.35666 0.6633 0.0
O426 O 0.86711 0.34058 0.67617 0.0
O427 O 0.85334 0.32564 0.6909 0.0
H428 H 0.84088 0.33525 0.64304 0.0
H429 H 0.83222 0.32143 0.62042 0.0
H430 H 0.78558 0.32705 0.63452 0.0
H431 H 0.79433 0.3413 0.65675 0.0
H432 H 0.81601 0.4116 0.69661 0.0
H433 H 0.8304 0.38943 0.6883 0.0
H434 H 0.82663 0.40053 0.74356 0.0
H435 H 0.84095 0.37842 0.73519 0.0
H436 H 0.89467 0.32234 0.72868 0.0
H437 H 0.91465 0.30757 0.68646 0.0
H438 H 0.8919 0.31566 0.67256 0.0
H439 H 0.87186 0.33039 0.71466 0.0
C440 C 0.1484 0.32 0.69294 0.0
C441 C 0.14719 0.32195 0.70878 0.0
C442 C 0.1222 0.30961 0.70858 0.0
C443 C 0.13423 0.31676 0.71653 0.0
C444 C 0.1234 0.30799 0.69267 0.0
C445 C 0.13637 0.3131 0.68496 0.0
U446 U 0.18273 0.34654 0.68618 0.0
O447 O 0.20611 0.3409 0.67944 0.0
O448 O 0.19206 0.35543 0.66466 0.0
C449 C 0.20482 0.34787 0.66618 0.0
C450 C 0.16212 0.32479 0.68452 0.0
C451 C 0.20972 0.33916 0.65279 0.0
C452 C 0.20415 0.32444 0.62999 0.0
C453 C 0.19918 0.33208 0.64298 0.0
C454 C 0.23025 0.33051 0.63669 0.0
C455 C 0.21976 0.32367 0.6266 0.0
C456 C 0.22527 0.33819 0.6496 0.0
C457 C 0.18968 0.38072 0.71244 0.0
C458 C 0.2132 0.39541 0.71435 0.0
C459 C 0.18988 0.40541 0.7247 0.0
C460 C 0.18205 0.39234 0.72 0.0
C461 C 0.20556 0.40711 0.72196 0.0
C462 C 0.20531 0.38235 0.70956 0.0
C463 C 0.18107 0.36708 0.7077 0.0
O464 O 0.16109 0.33766 0.67687 0.0
O465 O 0.17517 0.32327 0.69177 0.0
O466 O 0.18794 0.35397 0.70955 0.0
O467 O 0.17381 0.36823 0.6946 0.0
H468 H 0.15632 0.32731 0.71517 0.0
H469 H 0.13377 0.31809 0.72879 0.0
H470 H 0.11427 0.30284 0.68611 0.0
H471 H 0.13704 0.31159 0.67273 0.0
H472 H 0.19573 0.31944 0.62244 0.0
H473 H 0.1871 0.33263 0.64526 0.0
H474 H 0.24236 0.32989 0.63465 0.0
H475 H 0.23359 0.34349 0.65708 0.0
H476 H 0.22523 0.39644 0.71194 0.0
H477 H 0.18369 0.41409 0.7307 0.0
H478 H 0.16999 0.39129 0.72233 0.0
H479 H 0.2114 0.37355 0.70363 0.0
C480 C 0.14837 0.31978 0.3427 0.0
C481 C 0.14667 0.32314 0.32711 0.0
C482 C 0.1226 0.3091 0.32648 0.0
C483 C 0.13391 0.31781 0.31906 0.0
C484 C 0.12434 0.30597 0.34216 0.0
C485 C 0.13711 0.31123 0.35017 0.0
U486 U 0.1818 0.34727 0.34906 0.0
O487 O 0.19037 0.35723 0.37049 0.0
O488 O 0.20517 0.34284 0.35674 0.0
C489 C 0.20339 0.35007 0.36967 0.0
C490 C 0.16174 0.3251 0.35141 0.0
C491 C 0.20815 0.34184 0.38359 0.0
C492 C 0.21198 0.31835 0.39788 0.0
C493 C 0.20681 0.32595 0.38479 0.0
C494 C 0.21948 0.34246 0.40893 0.0
C495 C 0.21849 0.3265 0.41009 0.0
C496 C 0.21441 0.35003 0.39579 0.0
C497 C 0.18912 0.38009 0.32114 0.0
C498 C 0.20515 0.40209 0.3266 0.0
C499 C 0.1977 0.39664 0.30054 0.0
C500 C 0.18954 0.38385 0.30559 0.0
C501 C 0.20553 0.40596 0.311 0.0
C502 C 0.19708 0.38922 0.33162 0.0
C503 C 0.18032 0.36666 0.32619 0.0
O504 O 0.17497 0.32358 0.34471 0.0
O505 O 0.16023 0.33826 0.35819 0.0
O506 O 0.1726 0.3682 0.33888 0.0
O507 O 0.18742 0.35361 0.32538 0.0
H508 H 0.15523 0.3298 0.32115 0.0
H509 H 0.13304 0.32033 0.30698 0.0
H510 H 0.11575 0.29956 0.34833 0.0
H511 H 0.13818 0.30864 0.36223 0.0
H512 H 0.21116 0.30606 0.39829 0.0
H513 H 0.20194 0.31939 0.37553 0.0
H514 H 0.22414 0.34915 0.41819 0.0
H515 H 0.21545 0.36231 0.39513 0.0
H516 H 0.21122 0.40894 0.3349 0.0
H517 H 0.19764 0.39939 0.28848 0.0
H518 H 0.18348 0.37692 0.29733 0.0
H519 H 0.19702 0.38643 0.34368 0.0
C520 C 0.14582 0.68843 0.32416 0.0
C521 C 0.14519 0.70434 0.32527 0.0
C522 C 0.11956 0.70422 0.3144 0.0
C523 C 0.13221 0.71216 0.32039 0.0
C524 C 0.12015 0.68824 0.3137 0.0
C525 C 0.13316 0.68046 0.31849 0.0
U526 U 0.18076 0.68131 0.3497 0.0
O527 O 0.19047 0.65978 0.35791 0.0
O528 O 0.20407 0.67502 0.34333 0.0
C529 C 0.2031 0.66167 0.35013 0.0
C530 C 0.15964 0.67993 0.32843 0.0
C531 C 0.20818 0.64855 0.34116 0.0
C532 C 0.20298 0.6258 0.32628 0.0
C533 C 0.19779 0.63858 0.3341 0.0
C534 C 0.22899 0.63306 0.33214 0.0
C535 C 0.21866 0.6228 0.32533 0.0
C536 C 0.22379 0.64576 0.33999 0.0
C537 C 0.18841 0.70703 0.38421 0.0
C538 C 0.21246 0.71016 0.39777 0.0
C539 C 0.189 0.71813 0.40951 0.0
C540 C 0.18086 0.7134 0.39662 0.0
C541 C 0.20491 0.71662 0.41024 0.0
C542 C 0.20427 0.70534 0.3849 0.0
C543 C 0.17947 0.70239 0.37071 0.0
O544 O 0.17268 0.68715 0.32664 0.0
O545 O 0.15893 0.67205 0.34121 0.0
O546 O 0.17236 0.68922 0.37186 0.0
O547 O 0.18594 0.70455 0.35737 0.0
H548 H 0.1548 0.71076 0.32968 0.0
H549 H 0.13224 0.72446 0.32098 0.0
H550 H 0.11055 0.6817 0.30946 0.0
H551 H 0.13337 0.66817 0.31763 0.0
H552 H 0.19469 0.6181 0.3213 0.0
H553 H 0.18567 0.64054 0.33481 0.0
H554 H 0.24113 0.63131 0.3314 0.0
H555 H 0.23199 0.65337 0.34527 0.0
H556 H 0.22467 0.7087 0.39805 0.0
H557 H 0.18285 0.72322 0.41881 0.0
H558 H 0.16863 0.71482 0.39631 0.0
H559 H 0.21033 0.70033 0.37548 0.0
C560 C 0.81754 0.65049 0.34199 0.0
C561 C 0.828 0.64177 0.33385 0.0
C562 C 0.80769 0.62428 0.32609 0.0
C563 C 0.82312 0.62876 0.32599 0.0
C564 C 0.79727 0.63327 0.33407 0.0
C565 C 0.80216 0.6462 0.34194 0.0
U566 U 0.8446 0.68412 0.34993 0.0
O567 O 0.83913 0.70758 0.35655 0.0
O568 O 0.85285 0.69321 0.37178 0.0
C569 C 0.84564 0.70615 0.37001 0.0
C570 C 0.82235 0.66399 0.3507 0.0
C571 C 0.83666 0.71126 0.38313 0.0
C572 C 0.82066 0.70609 0.40517 0.0
C573 C 0.82849 0.70095 0.39235 0.0
C574 C 0.82875 0.7319 0.39947 0.0
C575 C 0.82081 0.72163 0.40899 0.0
C576 C 0.8366 0.72676 0.38672 0.0
C577 C 0.87963 0.69079 0.32453 0.0
C578 C 0.89357 0.71449 0.32029 0.0
C579 C 0.90509 0.69047 0.31389 0.0
C580 C 0.89205 0.68275 0.31889 0.0
C581 C 0.90597 0.70646 0.31434 0.0
C582 C 0.88054 0.70673 0.32537 0.0
C583 C 0.86578 0.68231 0.32903 0.0
O584 O 0.83493 0.66267 0.35876 0.0
O585 O 0.82136 0.67707 0.34342 0.0
O586 O 0.85277 0.68927 0.3268 0.0
O587 O 0.86648 0.675 0.34215 0.0
H588 H 0.83993 0.64493 0.33368 0.0
H589 H 0.83148 0.62207 0.32008 0.0
H590 H 0.78528 0.63037 0.33416 0.0
H591 H 0.7939 0.65285 0.34806 0.0
H592 H 0.81479 0.69783 0.41228 0.0
H593 H 0.82834 0.68892 0.38976 0.0
H594 H 0.82888 0.74397 0.40185 0.0
H595 H 0.84276 0.7349 0.3797 0.0
H596 H 0.89377 0.72679 0.3207 0.0
H597 H 0.9145 0.68388 0.30969 0.0
H598 H 0.89162 0.67045 0.31823 0.0
H599 H 0.87111 0.71319 0.32975 0.0
C600 C 0.8398 0.38251 0.32113 0.0
C601 C 0.82425 0.38396 0.32432 0.0
C602 C 0.82395 0.40889 0.3119 0.0
C603 C 0.81638 0.397 0.31968 0.0
C604 C 0.83957 0.40743 0.30894 0.0
C605 C 0.8474 0.39437 0.31349 0.0
U606 U 0.8469 0.34776 0.34693 0.0
O607 O 0.85332 0.32443 0.34073 0.0
O608 O 0.86843 0.33817 0.35525 0.0
C609 C 0.86666 0.32552 0.3475 0.0
C610 C 0.84828 0.36871 0.32544 0.0
C611 C 0.87985 0.32052 0.33853 0.0
C612 C 0.90348 0.32574 0.32504 0.0
C613 C 0.89065 0.33092 0.33277 0.0
C614 C 0.89467 0.29975 0.32834 0.0
C615 C 0.90574 0.31006 0.32285 0.0
C616 C 0.88191 0.30494 0.33612 0.0
C617 C 0.82121 0.34046 0.38163 0.0
C618 C 0.8183 0.31664 0.3957 0.0
C619 C 0.80994 0.34021 0.40688 0.0
C620 C 0.81465 0.34816 0.39384 0.0
C621 C 0.81166 0.32435 0.40796 0.0
C622 C 0.82311 0.32464 0.38267 0.0
C623 C 0.82585 0.34921 0.36798 0.0
O624 O 0.85616 0.3695 0.33819 0.0
O625 O 0.84096 0.35571 0.32384 0.0
O626 O 0.82371 0.34255 0.35475 0.0
O627 O 0.83899 0.35637 0.36901 0.0
H628 H 0.81817 0.37498 0.33032 0.0
H629 H 0.80439 0.39784 0.3223 0.0
H630 H 0.84572 0.41628 0.30282 0.0
H631 H 0.85939 0.39346 0.31091 0.0
H632 H 0.9118 0.33401 0.32112 0.0
H633 H 0.88929 0.34303 0.33443 0.0
H634 H 0.89584 0.28764 0.32662 0.0
H635 H 0.87369 0.29673 0.3404 0.0
H636 H 0.81993 0.30445 0.39624 0.0
H637 H 0.8047 0.34648 0.41601 0.0
H638 H 0.81308 0.36037 0.39326 0.0
H639 H 0.82826 0.31847 0.37341 0.0
C640 C 0.68877 0.15011 0.71132 0.0
C641 C 0.69266 0.13857 0.70106 0.0
C642 C 0.70499 0.12428 0.72155 0.0
C643 C 0.70063 0.12576 0.70615 0.0
C644 C 0.70132 0.13597 0.73171 0.0
C645 C 0.69324 0.14871 0.72665 0.0
U646 U 0.68069 0.18401 0.68461 0.0
O647 O 0.65888 0.19232 0.67541 0.0
O648 O 0.67299 0.20707 0.68992 0.0
C649 C 0.6599 0.20523 0.68282 0.0
C650 C 0.67972 0.16342 0.70645 0.0
C651 C 0.64622 0.20977 0.69125 0.0
C652 C 0.6322 0.21272 0.71489 0.0
C653 C 0.64504 0.20764 0.7071 0.0
C654 C 0.62142 0.22176 0.69104 0.0
C655 C 0.62027 0.21999 0.70697 0.0
C656 C 0.63427 0.21674 0.6833 0.0
C657 C 0.70789 0.19216 0.65111 0.0
C658 C 0.70289 0.20564 0.62727 0.0
C659 C 0.72882 0.20223 0.63599 0.0
C660 C 0.72351 0.19449 0.64891 0.0
C661 C 0.7186 0.20777 0.62489 0.0
C662 C 0.69758 0.19794 0.64027 0.0
C663 C 0.70278 0.18337 0.66458 0.0
O664 O 0.68632 0.17679 0.70811 0.0
O665 O 0.67212 0.16216 0.69355 0.0
O666 O 0.69004 0.17555 0.66311 0.0
O667 O 0.704 0.19032 0.67776 0.0
H668 H 0.68946 0.13936 0.68913 0.0
H669 H 0.70344 0.11704 0.69801 0.0
H670 H 0.70437 0.13511 0.74368 0.0
H671 H 0.69033 0.15742 0.73478 0.0
H672 H 0.63179 0.21127 0.72715 0.0
H673 H 0.65412 0.20223 0.71348 0.0
H674 H 0.61236 0.22701 0.68451 0.0
H675 H 0.63492 0.21841 0.67106 0.0
H676 H 0.69468 0.20962 0.61892 0.0
H677 H 0.74096 0.2039 0.63473 0.0
H678 H 0.73165 0.1902 0.65718 0.0
H679 H 0.68544 0.19635 0.64174 0.0
C680 C 0.31763 0.1915 0.65322 0.0
C681 C 0.32827 0.19924 0.64405 0.0
C682 C 0.30793 0.20799 0.62724 0.0
C683 C 0.32346 0.20735 0.63112 0.0
C684 C 0.29733 0.20037 0.63658 0.0
C685 C 0.30215 0.19217 0.64942 0.0
U686 U 0.34463 0.18461 0.68681 0.0
O687 O 0.33956 0.17759 0.71043 0.0
O688 O 0.35395 0.16334 0.6961 0.0
C689 C 0.34656 0.16454 0.70903 0.0
C690 C 0.32242 0.18273 0.66677 0.0
C691 C 0.33781 0.15101 0.7139 0.0
C692 C 0.32159 0.1292 0.70821 0.0
C693 C 0.32963 0.14215 0.70335 0.0
C694 C 0.32951 0.13402 0.73426 0.0
C695 C 0.32146 0.12499 0.72373 0.0
C696 C 0.33764 0.14689 0.72937 0.0
C697 C 0.37832 0.21191 0.69312 0.0
C698 C 0.40112 0.20667 0.70803 0.0
C699 C 0.39473 0.23265 0.70144 0.0
C700 C 0.38172 0.22748 0.69377 0.0
C701 C 0.40468 0.22231 0.70857 0.0
C702 C 0.38803 0.20152 0.70043 0.0
C703 C 0.3647 0.20681 0.68467 0.0
O704 O 0.33524 0.17526 0.66554 0.0
O705 O 0.32111 0.18976 0.67986 0.0
O706 O 0.35172 0.20815 0.69187 0.0
O707 O 0.36587 0.19389 0.67731 0.0
H708 H 0.34028 0.199 0.64687 0.0
H709 H 0.33188 0.21325 0.62425 0.0
H710 H 0.28531 0.20053 0.63381 0.0
H711 H 0.29378 0.1863 0.65638 0.0
H712 H 0.31535 0.12257 0.69986 0.0
H713 H 0.3295 0.14522 0.69136 0.0
H714 H 0.32977 0.131 0.74626 0.0
H715 H 0.34387 0.1536 0.73768 0.0
H716 H 0.40857 0.19836 0.71325 0.0
H717 H 0.39693 0.24478 0.70185 0.0
H718 H 0.37431 0.23568 0.68829 0.0
H719 H 0.38558 0.18942 0.70014 0.0
C720 C 0.32009 0.84164 0.65002 0.0
C721 C 0.33063 0.83454 0.6405 0.0
C722 C 0.31005 0.82558 0.62393 0.0
C723 C 0.32566 0.82662 0.62755 0.0
C724 C 0.29957 0.8325 0.63371 0.0
C725 C 0.30455 0.84047 0.64657 0.0
U726 U 0.34666 0.84941 0.68414 0.0
O727 O 0.35526 0.87114 0.69317 0.0
O728 O 0.34083 0.85641 0.70745 0.0
C729 C 0.34763 0.86971 0.70596 0.0
C730 C 0.32493 0.85045 0.66348 0.0
C731 C 0.33864 0.88297 0.71063 0.0
C732 C 0.32326 0.90515 0.70467 0.0
C733 C 0.33149 0.89249 0.69988 0.0
C734 C 0.32899 0.89874 0.73099 0.0
C735 C 0.32192 0.90842 0.7203 0.0
C736 C 0.33728 0.88617 0.72619 0.0
C737 C 0.38037 0.82273 0.69207 0.0
C738 C 0.40269 0.82796 0.7078 0.0
C739 C 0.39668 0.80209 0.70045 0.0
C740 C 0.38386 0.80722 0.69252 0.0
C741 C 0.40637 0.8124 0.70808 0.0
C742 C 0.38979 0.83308 0.69989 0.0
C743 C 0.36699 0.82774 0.6832 0.0
O744 O 0.32337 0.84352 0.67672 0.0
O745 O 0.3378 0.8581 0.66228 0.0
O746 O 0.36839 0.8407 0.67572 0.0
O747 O 0.35379 0.82611 0.68999 0.0
H748 H 0.3427 0.83524 0.64298 0.0
H749 H 0.33407 0.82156 0.62024 0.0
H750 H 0.28746 0.8317 0.6315 0.0
H751 H 0.29623 0.84577 0.65383 0.0
H752 H 0.31782 0.91228 0.69616 0.0
H753 H 0.33228 0.89016 0.68779 0.0
H754 H 0.32834 0.90102 0.74309 0.0
H755 H 0.34272 0.87898 0.73466 0.0
H756 H 0.40994 0.83624 0.71344 0.0
H757 H 0.39895 0.79001 0.70066 0.0
H758 H 0.37668 0.79904 0.68665 0.0
H759 H 0.38727 0.84512 0.69974 0.0
C760 C 0.64769 0.82136 0.6927 0.0
C761 C 0.64688 0.82216 0.70867 0.0
C762 C 0.62112 0.81155 0.70812 0.0
C763 C 0.63374 0.81726 0.71631 0.0
C764 C 0.62191 0.81113 0.69209 0.0
C765 C 0.63506 0.81594 0.68449 0.0
U766 U 0.68274 0.84696 0.68595 0.0
O767 O 0.70611 0.84065 0.67979 0.0
O768 O 0.6927 0.85522 0.66446 0.0
C769 C 0.70525 0.84739 0.66639 0.0
C770 C 0.66164 0.82568 0.68436 0.0
C771 C 0.7103 0.83836 0.65325 0.0
C772 C 0.70513 0.82453 0.62979 0.0
C773 C 0.69992 0.83237 0.64257 0.0
C774 C 0.7311 0.82818 0.63843 0.0
C775 C 0.72082 0.82247 0.62747 0.0
C776 C 0.72589 0.83607 0.65114 0.0
C777 C 0.68977 0.8814 0.71204 0.0
C778 C 0.71342 0.89577 0.71463 0.0
C779 C 0.69006 0.90582 0.72482 0.0
C780 C 0.68215 0.89298 0.71967 0.0
C781 C 0.70584 0.90734 0.72251 0.0
C782 C 0.70545 0.88292 0.70942 0.0
C783 C 0.68109 0.86786 0.70712 0.0
O784 O 0.66103 0.83842 0.67645 0.0
O785 O 0.67458 0.82395 0.69175 0.0
O786 O 0.68767 0.85465 0.70929 0.0
O787 O 0.6742 0.86902 0.69383 0.0
H788 H 0.65646 0.82636 0.71528 0.0
H789 H 0.63364 0.81763 0.72865 0.0
H790 H 0.61234 0.80711 0.68537 0.0
H791 H 0.63541 0.81531 0.67216 0.0
H792 H 0.69688 0.82044 0.62155 0.0
H793 H 0.68781 0.83393 0.64398 0.0
H794 H 0.74323 0.82656 0.63722 0.0
H795 H 0.73408 0.84052 0.65928 0.0
H796 H 0.72556 0.8965 0.71273 0.0
H797 H 0.68377 0.91461 0.73055 0.0
H798 H 0.67003 0.89206 0.7217 0.0
H799 H 0.71155 0.87412 0.70349 0.0
C800 C 0.64782 0.82002 0.34312 0.0
C801 C 0.64596 0.82354 0.32758 0.0
C802 C 0.62196 0.80941 0.327 0.0
C803 C 0.63316 0.81825 0.31958 0.0
C804 C 0.62384 0.80612 0.34264 0.0
C805 C 0.63665 0.81136 0.35059 0.0
U806 U 0.68126 0.84747 0.34926 0.0
O807 O 0.69024 0.85726 0.37058 0.0
O808 O 0.70478 0.84296 0.35646 0.0
C809 C 0.70326 0.85014 0.36946 0.0
C810 C 0.66129 0.82523 0.35172 0.0
C811 C 0.70822 0.84183 0.38324 0.0
C812 C 0.71068 0.81844 0.39802 0.0
C813 C 0.70563 0.82612 0.38491 0.0
C814 C 0.72067 0.84214 0.40805 0.0
C815 C 0.71828 0.82638 0.40973 0.0
C816 C 0.71571 0.84977 0.39491 0.0
C817 C 0.68777 0.88076 0.32164 0.0
C818 C 0.71154 0.89475 0.31848 0.0
C819 C 0.68794 0.90562 0.30936 0.0
C820 C 0.68001 0.89273 0.31451 0.0
C821 C 0.70383 0.90676 0.31117 0.0
C822 C 0.70358 0.8819 0.32372 0.0
C823 C 0.67915 0.86722 0.32677 0.0
O824 O 0.67442 0.82381 0.3448 0.0
O825 O 0.65988 0.83831 0.3587 0.0
O826 O 0.67185 0.86866 0.3397 0.0
O827 O 0.68613 0.85412 0.32556 0.0
H828 H 0.65445 0.83029 0.32161 0.0
H829 H 0.63218 0.82088 0.30753 0.0
H830 H 0.61532 0.79961 0.34881 0.0
H831 H 0.63784 0.80863 0.36262 0.0
H832 H 0.70852 0.80633 0.39906 0.0
H833 H 0.69973 0.81979 0.37609 0.0
H834 H 0.72661 0.84854 0.41678 0.0
H835 H 0.7178 0.8619 0.39382 0.0
H836 H 0.72377 0.89513 0.31993 0.0
H837 H 0.68156 0.91475 0.30407 0.0
H838 H 0.6678 0.89212 0.31291 0.0
H839 H 0.7098 0.87281 0.32928 0.0
C840 C 0.64771 0.19006 0.32151 0.0
C841 C 0.63819 0.19708 0.33212 0.0
C842 C 0.62191 0.20642 0.3115 0.0
C843 C 0.62539 0.20515 0.32716 0.0
C844 C 0.63172 0.19964 0.30094 0.0
C845 C 0.64444 0.19153 0.30591 0.0
U846 U 0.68103 0.18129 0.34863 0.0
O847 O 0.68911 0.15919 0.35732 0.0
O848 O 0.70416 0.17367 0.34342 0.0
C849 C 0.70212 0.16036 0.3501 0.0
C850 C 0.66089 0.18094 0.32639 0.0
C851 C 0.70661 0.1469 0.34131 0.0
C852 C 0.70977 0.13355 0.31733 0.0
C853 C 0.70505 0.14637 0.32536 0.0
C854 C 0.71735 0.12153 0.3411 0.0
C855 C 0.716 0.12098 0.32511 0.0
C856 C 0.71273 0.13436 0.34909 0.0
C857 C 0.68867 0.20692 0.38327 0.0
C858 C 0.71257 0.21121 0.39681 0.0
C859 C 0.68874 0.21748 0.40882 0.0
C860 C 0.68082 0.21248 0.39589 0.0
C861 C 0.70474 0.21711 0.40938 0.0
C862 C 0.70462 0.20612 0.38389 0.0
C863 C 0.68001 0.20252 0.36949 0.0
O864 O 0.67425 0.18767 0.32521 0.0
O865 O 0.65931 0.17308 0.33911 0.0
O866 O 0.67219 0.18974 0.37045 0.0
O867 O 0.68702 0.20429 0.35638 0.0
H868 H 0.64054 0.19616 0.34424 0.0
H869 H 0.61805 0.21009 0.33563 0.0
H870 H 0.6296 0.20062 0.2888 0.0
H871 H 0.6517 0.18629 0.29754 0.0
H872 H 0.70843 0.13341 0.30504 0.0
H873 H 0.70024 0.15588 0.31911 0.0
H874 H 0.72226 0.11213 0.34743 0.0
H875 H 0.71404 0.13455 0.36139 0.0
H876 H 0.72487 0.21086 0.39676 0.0
H877 H 0.68229 0.22165 0.41838 0.0
H878 H 0.66852 0.21311 0.39568 0.0
H879 H 0.71095 0.2018 0.37432 0.0
C880 C 0.31675 0.15119 0.34192 0.0
C881 C 0.32713 0.14257 0.33357 0.0
C882 C 0.30684 0.12497 0.32607 0.0
C883 C 0.32223 0.12957 0.32574 0.0
C884 C 0.29648 0.13387 0.33422 0.0
C885 C 0.3014 0.14681 0.34208 0.0
U886 U 0.34351 0.1851 0.34941 0.0
O887 O 0.33831 0.20819 0.35712 0.0
O888 O 0.35289 0.19349 0.37118 0.0
C889 C 0.3455 0.20638 0.3702 0.0
C890 C 0.32167 0.16455 0.35079 0.0
C891 C 0.33721 0.21095 0.38399 0.0
C892 C 0.31375 0.21443 0.39809 0.0
C893 C 0.32135 0.20933 0.38511 0.0
C894 C 0.33781 0.22244 0.40911 0.0
C895 C 0.32188 0.22119 0.4102 0.0
C896 C 0.34537 0.21741 0.39613 0.0
C897 C 0.37679 0.19328 0.32223 0.0
C898 C 0.39982 0.20785 0.32774 0.0
C899 C 0.39266 0.2027 0.30155 0.0
C900 C 0.37974 0.19481 0.30661 0.0
C901 C 0.40298 0.20918 0.31204 0.0
C902 C 0.38683 0.20001 0.33278 0.0
C903 C 0.36336 0.18439 0.32717 0.0
O904 O 0.33468 0.16327 0.35815 0.0
O905 O 0.32004 0.17782 0.34399 0.0
O906 O 0.35024 0.19134 0.32599 0.0
O907 O 0.36484 0.17653 0.33992 0.0
H908 H 0.33905 0.14579 0.33325 0.0
H909 H 0.33056 0.12294 0.31971 0.0
H910 H 0.28451 0.13089 0.33449 0.0
H911 H 0.2932 0.15336 0.34837 0.0
H912 H 0.30148 0.21339 0.39846 0.0
H913 H 0.31482 0.20431 0.3759 0.0
H914 H 0.34449 0.22728 0.41831 0.0
H915 H 0.35762 0.21867 0.39553 0.0
H916 H 0.40756 0.21256 0.33615 0.0
H917 H 0.39453 0.20374 0.28939 0.0
H918 H 0.37208 0.1898 0.29828 0.0
H919 H 0.38474 0.19904 0.34492 0.0
C920 C 0.33966 0.88266 0.32225 0.0
C921 C 0.32402 0.88414 0.32499 0.0
C922 C 0.32403 0.90891 0.31218 0.0
C923 C 0.31628 0.89713 0.31998 0.0
C924 C 0.33977 0.90745 0.3098 0.0
C925 C 0.34747 0.89446 0.31475 0.0
U926 U 0.34644 0.84767 0.34799 0.0
O927 O 0.3528 0.82439 0.34154 0.0
O928 O 0.36793 0.83793 0.35623 0.0
C929 C 0.36613 0.82537 0.34834 0.0
C930 C 0.34799 0.86881 0.32669 0.0
C931 C 0.37931 0.82041 0.33934 0.0
C932 C 0.403 0.82566 0.32597 0.0
C933 C 0.39017 0.83082 0.33372 0.0
C934 C 0.39406 0.79968 0.32897 0.0
C935 C 0.4052 0.80999 0.32363 0.0
C936 C 0.38131 0.80484 0.33677 0.0
C937 C 0.32075 0.83969 0.38257 0.0
C938 C 0.31335 0.81575 0.39472 0.0
C939 C 0.31358 0.839 0.40934 0.0
C940 C 0.31839 0.84713 0.39645 0.0
C941 C 0.3109 0.82322 0.40862 0.0
C942 C 0.31829 0.82388 0.38184 0.0
C943 C 0.32538 0.84874 0.36905 0.0
O944 O 0.35573 0.86952 0.33953 0.0
O945 O 0.34064 0.85584 0.32495 0.0
O946 O 0.32318 0.84247 0.35563 0.0
O947 O 0.33848 0.85596 0.37019 0.0
H948 H 0.31776 0.87517 0.33081 0.0
H949 H 0.30415 0.89778 0.32191 0.0
H950 H 0.34619 0.91639 0.30413 0.0
H951 H 0.35955 0.89357 0.31261 0.0
H952 H 0.41138 0.83393 0.32216 0.0
H953 H 0.38887 0.84291 0.33551 0.0
H954 H 0.39518 0.78758 0.32713 0.0
H955 H 0.37303 0.79663 0.34095 0.0
H956 H 0.31154 0.80358 0.39384 0.0
H957 H 0.31164 0.84513 0.41981 0.0
H958 H 0.32015 0.85931 0.39728 0.0
H959 H 0.32009 0.8178 0.37132 0.0
C960 C 0.68673 0.64892 0.21145 0.0
C961 C 0.70248 0.64764 0.20934 0.0
C962 C 0.70223 0.62276 0.22193 0.0
C963 C 0.71017 0.63469 0.21457 0.0
C964 C 0.68639 0.62403 0.22369 0.0
C965 C 0.67875 0.63698 0.21853 0.0
U966 U 0.68073 0.68363 0.18527 0.0
O967 O 0.65954 0.69335 0.17619 0.0
O968 O 0.67425 0.70699 0.19121 0.0
C969 C 0.66113 0.70598 0.18401 0.0
C970 C 0.67843 0.66269 0.20669 0.0
C971 C 0.64774 0.71106 0.19262 0.0
C972 C 0.62398 0.70597 0.20591 0.0
C973 C 0.63683 0.70072 0.19826 0.0
C974 C 0.63296 0.7319 0.2027 0.0
C975 C 0.62182 0.72165 0.20814 0.0
C976 C 0.64574 0.72665 0.195 0.0
C977 C 0.70806 0.69125 0.15194 0.0
C978 C 0.70316 0.70647 0.12915 0.0
C979 C 0.72901 0.69998 0.13607 0.0
C980 C 0.72367 0.6921 0.1489 0.0
C981 C 0.71883 0.70715 0.12592 0.0
C982 C 0.69783 0.69864 0.14206 0.0
C983 C 0.70276 0.68233 0.16524 0.0
O984 O 0.68564 0.67571 0.2086 0.0
O985 O 0.67114 0.66186 0.19359 0.0
O986 O 0.68969 0.67512 0.16363 0.0
O987 O 0.70433 0.68892 0.17857 0.0
H988 H 0.70887 0.65671 0.20384 0.0
H989 H 0.72237 0.6342 0.21313 0.0
H990 H 0.67984 0.61497 0.22901 0.0
H991 H 0.66657 0.63772 0.22017 0.0
H992 H 0.6156 0.69774 0.20979 0.0
H993 H 0.63815 0.6886 0.19663 0.0
H994 H 0.63188 0.74402 0.20445 0.0
H995 H 0.65406 0.73482 0.19082 0.0
H996 H 0.69497 0.71172 0.12154 0.0
H997 H 0.74116 0.7005 0.13415 0.0
H998 H 0.73175 0.68655 0.15643 0.0
H999 H 0.68571 0.69819 0.1442 0.0
C1000 C 0.31844 0.68965 0.15219 0.0
C1001 C 0.32043 0.70548 0.15093 0.0
C1002 C 0.30829 0.70536 0.12583 0.0
C1003 C 0.31534 0.71326 0.13791 0.0
C1004 C 0.3066 0.68945 0.12708 0.0
C1005 C 0.31159 0.68171 0.14014 0.0
U1006 U 0.34523 0.68392 0.18623 0.0
O1007 O 0.34003 0.67741 0.20996 0.0
O1008 O 0.35463 0.66293 0.19609 0.0
C1009 C 0.34713 0.66437 0.20892 0.0
C1010 C 0.3233 0.68126 0.16596 0.0
C1011 C 0.3384 0.65088 0.21395 0.0
C1012 C 0.32206 0.62911 0.2085 0.0
C1013 C 0.33006 0.64204 0.20352 0.0
C1014 C 0.33036 0.63393 0.23443 0.0
C1015 C 0.32214 0.62489 0.22401 0.0
C1016 C 0.33844 0.64678 0.22943 0.0
C1017 C 0.3788 0.71145 0.19194 0.0
C1018 C 0.39382 0.71351 0.21522 0.0
C1019 C 0.40284 0.72525 0.19184 0.0
C1020 C 0.38988 0.71995 0.18417 0.0
C1021 C 0.40495 0.72218 0.20749 0.0
C1022 C 0.38087 0.70816 0.2075 0.0
C1023 C 0.36524 0.70611 0.18357 0.0
O1024 O 0.33628 0.67406 0.16491 0.0
O1025 O 0.32174 0.68841 0.17897 0.0
O1026 O 0.35216 0.70758 0.19059 0.0
O1027 O 0.36661 0.69297 0.1767 0.0
H1028 H 0.32577 0.71185 0.16007 0.0
H1029 H 0.3167 0.72551 0.13745 0.0
H1030 H 0.3015 0.68294 0.11792 0.0
H1031 H 0.31006 0.66948 0.14086 0.0
H1032 H 0.31569 0.6225 0.20023 0.0
H1033 H 0.32977 0.64511 0.19152 0.0
H1034 H 0.33077 0.6309 0.24643 0.0
H1035 H 0.34479 0.65348 0.23764 0.0
H1036 H 0.39499 0.71105 0.22729 0.0
H1037 H 0.41128 0.73162 0.18544 0.0
H1038 H 0.38852 0.7225 0.17213 0.0
H1039 H 0.37246 0.70153 0.21369 0.0
C1040 C 0.32208 0.34084 0.14796 0.0
C1041 C 0.32075 0.32491 0.14886 0.0
C1042 C 0.31284 0.32388 0.12217 0.0
C1043 C 0.31611 0.31653 0.1361 0.0
C1044 C 0.31446 0.33979 0.12125 0.0
C1045 C 0.31899 0.34817 0.13403 0.0
U1046 U 0.34703 0.34961 0.18304 0.0
O1047 O 0.3554 0.37174 0.1915 0.0
O1048 O 0.34066 0.35739 0.20586 0.0
C1049 C 0.34738 0.37071 0.20408 0.0
C1050 C 0.32626 0.3501 0.16139 0.0
C1051 C 0.33837 0.38424 0.20805 0.0
C1052 C 0.31431 0.39629 0.21401 0.0
C1053 C 0.32244 0.38356 0.2093 0.0
C1054 C 0.33781 0.41074 0.21585 0.0
C1055 C 0.32191 0.41001 0.21745 0.0
C1056 C 0.34594 0.39798 0.21126 0.0
C1057 C 0.38037 0.32284 0.19268 0.0
C1058 C 0.40273 0.32817 0.20833 0.0
C1059 C 0.39635 0.30219 0.20168 0.0
C1060 C 0.38362 0.30729 0.19359 0.0
C1061 C 0.4062 0.31256 0.209 0.0
C1062 C 0.38992 0.33327 0.20025 0.0
C1063 C 0.36726 0.3278 0.18339 0.0
O1064 O 0.32403 0.34381 0.17487 0.0
O1065 O 0.33919 0.35765 0.16046 0.0
O1066 O 0.36898 0.34056 0.17564 0.0
O1067 O 0.35386 0.32646 0.18984 0.0
H1068 H 0.32318 0.31893 0.15943 0.0
H1069 H 0.31513 0.30427 0.13713 0.0
H1070 H 0.31188 0.34582 0.11075 0.0
H1071 H 0.3199 0.36044 0.13307 0.0
H1072 H 0.30206 0.39541 0.21495 0.0
H1073 H 0.31626 0.37314 0.2068 0.0
H1074 H 0.34402 0.42108 0.21855 0.0
H1075 H 0.35821 0.39877 0.21044 0.0
H1076 H 0.4101 0.33648 0.21374 0.0
H1077 H 0.39846 0.29008 0.20219 0.0
H1078 H 0.37634 0.29906 0.18791 0.0
H1079 H 0.3876 0.34534 0.19974 0.0
C1080 C 0.64793 0.32002 0.19336 0.0
C1081 C 0.63907 0.33045 0.20138 0.0
C1082 C 0.62171 0.31004 0.2092 0.0
C1083 C 0.62606 0.32551 0.2092 0.0
C1084 C 0.63083 0.29965 0.20134 0.0
C1085 C 0.64377 0.30461 0.19349 0.0
U1086 U 0.68174 0.34699 0.18588 0.0
O1087 O 0.70513 0.34151 0.179 0.0
O1088 O 0.69082 0.35576 0.1642 0.0
C1089 C 0.70367 0.34834 0.16569 0.0
C1090 C 0.66145 0.32491 0.18467 0.0
C1091 C 0.70855 0.33956 0.15234 0.0
C1092 C 0.70297 0.32474 0.1296 0.0
C1093 C 0.69801 0.33245 0.14256 0.0
C1094 C 0.72908 0.33081 0.13627 0.0
C1095 C 0.71858 0.32393 0.12621 0.0
C1096 C 0.7241 0.33856 0.14915 0.0
C1097 C 0.68866 0.38122 0.21217 0.0
C1098 C 0.7122 0.39582 0.21449 0.0
C1099 C 0.68895 0.40546 0.2253 0.0
C1100 C 0.68107 0.39261 0.22011 0.0
C1101 C 0.70466 0.40718 0.22271 0.0
C1102 C 0.70427 0.38297 0.20925 0.0
C1103 C 0.6801 0.36757 0.20736 0.0
O1104 O 0.66022 0.3377 0.1769 0.0
O1105 O 0.67454 0.32363 0.19185 0.0
O1106 O 0.68706 0.3545 0.20918 0.0
O1107 O 0.6728 0.36869 0.19428 0.0
H1108 H 0.64213 0.34242 0.20147 0.0
H1109 H 0.61926 0.33386 0.215 0.0
H1110 H 0.62804 0.28763 0.20133 0.0
H1111 H 0.65053 0.29637 0.18746 0.0
H1112 H 0.69455 0.31971 0.12208 0.0
H1113 H 0.68593 0.33301 0.14483 0.0
H1114 H 0.74119 0.33017 0.13424 0.0
H1115 H 0.73243 0.34388 0.1566 0.0
H1116 H 0.7243 0.3967 0.21238 0.0
H1117 H 0.68268 0.41409 0.23129 0.0
H1118 H 0.669 0.39151 0.22239 0.0
H1119 H 0.71035 0.37432 0.20308 0.0
C1120 C 0.64778 0.32072 0.84367 0.0
C1121 C 0.64651 0.32296 0.82784 0.0
C1122 C 0.62167 0.31034 0.82778 0.0
C1123 C 0.6336 0.31776 0.81997 0.0
C1124 C 0.62295 0.3084 0.8437 0.0
C1125 C 0.63588 0.31351 0.85154 0.0
U1126 U 0.68188 0.34746 0.84943 0.0
O1127 O 0.6914 0.35719 0.87049 0.0
O1128 O 0.70537 0.34229 0.85642 0.0
C1129 C 0.70422 0.34971 0.86931 0.0
C1130 C 0.66142 0.32571 0.85217 0.0
C1131 C 0.70927 0.34139 0.88304 0.0
C1132 C 0.70406 0.32558 0.90531 0.0
C1133 C 0.69896 0.33326 0.89223 0.0
C1134 C 0.72985 0.33384 0.89997 0.0
C1135 C 0.71958 0.32582 0.90938 0.0
C1136 C 0.72473 0.34156 0.88696 0.0
C1137 C 0.68917 0.38034 0.82166 0.0
C1138 C 0.70543 0.40217 0.82713 0.0
C1139 C 0.69784 0.39686 0.80108 0.0
C1140 C 0.68958 0.38413 0.80611 0.0
C1141 C 0.70577 0.40608 0.81154 0.0
C1142 C 0.69727 0.38936 0.83214 0.0
C1143 C 0.68021 0.36702 0.82673 0.0
O1144 O 0.67448 0.32393 0.84521 0.0
O1145 O 0.66035 0.33886 0.85909 0.0
O1146 O 0.67281 0.3686 0.8396 0.0
O1147 O 0.68702 0.35383 0.82564 0.0
H1148 H 0.65554 0.32858 0.82155 0.0
H1149 H 0.6331 0.31933 0.80771 0.0
H1150 H 0.61389 0.30302 0.85015 0.0
H1151 H 0.63662 0.31179 0.86377 0.0
H1152 H 0.69581 0.31966 0.91235 0.0
H1153 H 0.68696 0.33292 0.88934 0.0
H1154 H 0.74191 0.33404 0.90256 0.0
H1155 H 0.73287 0.34768 0.87993 0.0
H1156 H 0.71158 0.40894 0.83543 0.0
H1157 H 0.69776 0.39965 0.78902 0.0
H1158 H 0.68342 0.37729 0.79786 0.0
H1159 H 0.69723 0.38654 0.84419 0.0
C1160 C 0.64791 0.69049 0.82153 0.0
C1161 C 0.63826 0.69741 0.83207 0.0
C1162 C 0.62209 0.70672 0.81134 0.0
C1163 C 0.62545 0.70542 0.82702 0.0
C1164 C 0.63203 0.70003 0.80085 0.0
C1165 C 0.64476 0.69198 0.8059 0.0
U1166 U 0.68115 0.68198 0.84882 0.0
O1167 O 0.68924 0.65997 0.85773 0.0
O1168 O 0.70432 0.67437 0.8438 0.0
C1169 C 0.70229 0.66111 0.85058 0.0
C1170 C 0.66111 0.68142 0.82649 0.0
C1171 C 0.70686 0.64759 0.84192 0.0
C1172 C 0.71004 0.634 0.81808 0.0
C1173 C 0.70521 0.64686 0.82599 0.0
C1174 C 0.7179 0.62234 0.84194 0.0
C1175 C 0.71646 0.62159 0.82597 0.0
C1176 C 0.71317 0.63522 0.84981 0.0
C1177 C 0.68844 0.70798 0.88326 0.0
C1178 C 0.71212 0.71133 0.89742 0.0
C1179 C 0.68841 0.71981 0.90822 0.0
C1180 C 0.68059 0.71471 0.89528 0.0
C1181 C 0.70431 0.71837 0.9094 0.0
C1182 C 0.70425 0.70616 0.88448 0.0
C1183 C 0.67992 0.70341 0.86947 0.0
O1184 O 0.67445 0.68816 0.82532 0.0
O1185 O 0.6595 0.67363 0.83926 0.0
O1186 O 0.67216 0.6906 0.87049 0.0
O1187 O 0.68707 0.70505 0.85642 0.0
H1188 H 0.6405 0.69648 0.8442 0.0
H1189 H 0.618 0.71028 0.83544 0.0
H1190 H 0.63001 0.70104 0.78869 0.0
H1191 H 0.65213 0.68681 0.79758 0.0
H1192 H 0.70862 0.63371 0.80581 0.0
H1193 H 0.70026 0.65624 0.81967 0.0
H1194 H 0.72295 0.61308 0.84835 0.0
H1195 H 0.71455 0.63556 0.8621 0.0
H1196 H 0.72436 0.71013 0.89786 0.0
H1197 H 0.68196 0.72487 0.91733 0.0
H1198 H 0.66837 0.71614 0.8946 0.0
H1199 H 0.71056 0.70094 0.87536 0.0
C1200 C 0.31712 0.65089 0.84182 0.0
C1201 C 0.32752 0.64213 0.83364 0.0
C1202 C 0.30714 0.62471 0.82595 0.0
C1203 C 0.32258 0.62914 0.8258 0.0
C1204 C 0.29677 0.63375 0.83393 0.0
C1205 C 0.30172 0.64667 0.84179 0.0
U1206 U 0.34428 0.68442 0.84961 0.0
O1207 O 0.33929 0.70769 0.85699 0.0
O1208 O 0.35331 0.69287 0.87149 0.0
C1209 C 0.34618 0.70589 0.87023 0.0
C1210 C 0.32207 0.66426 0.85066 0.0
C1211 C 0.33775 0.71073 0.88383 0.0
C1212 C 0.31415 0.71462 0.89761 0.0
C1213 C 0.32184 0.7094 0.88473 0.0
C1214 C 0.33819 0.72221 0.90897 0.0
C1215 C 0.32223 0.72121 0.90986 0.0
C1216 C 0.34583 0.71706 0.89609 0.0
C1217 C 0.37849 0.69147 0.82324 0.0
C1218 C 0.39278 0.7151 0.81991 0.0
C1219 C 0.40331 0.69137 0.8112 0.0
C1220 C 0.39037 0.68359 0.81636 0.0
C1221 C 0.40463 0.70725 0.81274 0.0
C1222 C 0.37984 0.70728 0.82514 0.0
C1223 C 0.36475 0.68297 0.82799 0.0
O1224 O 0.33486 0.66284 0.85836 0.0
O1225 O 0.32084 0.67749 0.84369 0.0
O1226 O 0.35174 0.69008 0.82635 0.0
O1227 O 0.36583 0.67537 0.84091 0.0
H1228 H 0.33947 0.64522 0.83346 0.0
H1229 H 0.33091 0.6224 0.8199 0.0
H1230 H 0.28476 0.6309 0.83406 0.0
H1231 H 0.29351 0.65335 0.84795 0.0
H1232 H 0.30187 0.71376 0.89782 0.0
H1233 H 0.31535 0.70448 0.87542 0.0
H1234 H 0.34483 0.72691 0.91827 0.0
H1235 H 0.35811 0.7181 0.89567 0.0
H1236 H 0.39333 0.72734 0.82119 0.0
H1237 H 0.41231 0.68488 0.80605 0.0
H1238 H 0.38959 0.67138 0.81488 0.0
H1239 H 0.37083 0.7136 0.83048 0.0
C1240 C 0.34031 0.38273 0.82205 0.0
C1241 C 0.32465 0.38398 0.82476 0.0
C1242 C 0.32428 0.40865 0.81176 0.0
C1243 C 0.3167 0.39681 0.81963 0.0
C1244 C 0.34003 0.40739 0.80933 0.0
C1245 C 0.34793 0.39456 0.8144 0.0
U1246 U 0.34701 0.34815 0.84829 0.0
O1247 O 0.35459 0.32513 0.84266 0.0
O1248 O 0.36857 0.33944 0.85774 0.0
C1249 C 0.36757 0.3267 0.85003 0.0
C1250 C 0.34892 0.36921 0.82693 0.0
C1251 C 0.38135 0.32223 0.84171 0.0
C1252 C 0.39561 0.3194 0.8182 0.0
C1253 C 0.3827 0.32446 0.82589 0.0
C1254 C 0.40614 0.31022 0.8421 0.0
C1255 C 0.40745 0.31208 0.82619 0.0
C1256 C 0.39323 0.31521 0.84974 0.0
C1257 C 0.31935 0.33953 0.88116 0.0
C1258 C 0.32432 0.32374 0.90354 0.0
C1259 C 0.2985 0.33091 0.89722 0.0
C1260 C 0.30378 0.33893 0.88445 0.0
C1261 C 0.3087 0.32333 0.90705 0.0
C1262 C 0.32959 0.33174 0.8907 0.0
C1263 C 0.32458 0.3486 0.86794 0.0
O1264 O 0.35594 0.37025 0.84016 0.0
O1265 O 0.34215 0.35597 0.82489 0.0
O1266 O 0.32352 0.34193 0.8546 0.0
O1267 O 0.33735 0.35627 0.86978 0.0
H1268 H 0.31855 0.37499 0.83071 0.0
H1269 H 0.30457 0.39731 0.8216 0.0
H1270 H 0.34632 0.41638 0.8036 0.0
H1271 H 0.36003 0.39385 0.8123 0.0
H1272 H 0.39614 0.32092 0.80594 0.0
H1273 H 0.37369 0.32991 0.81945 0.0
H1274 H 0.41513 0.30493 0.84869 0.0
H1275 H 0.39245 0.31347 0.86197 0.0
H1276 H 0.33253 0.31817 0.91089 0.0
H1277 H 0.28639 0.3306 0.89935 0.0
H1278 H 0.29569 0.34478 0.87717 0.0
H1279 H 0.34167 0.33201 0.88833 0.0
C1280 C 0.25741 0.23843 0.068 0.0
C1281 C 0.24168 0.23727 0.07067 0.0
C1282 C 0.26291 0.24555 0.05479 0.0
C1283 C 0.25279 0.25176 0.044 0.0
C1284 C 0.23158 0.2434 0.05979 0.0
C1285 C 0.23709 0.25046 0.04655 0.0
C1286 C 0.25846 0.25899 0.02974 0.0
C1287 C 0.27357 0.2893 0.06801 0.0
C1288 C 0.28938 0.29147 0.06944 0.0
C1289 C 0.26735 0.28232 0.0551 0.0
C1290 C 0.27681 0.27705 0.04343 0.0
C1291 C 0.29882 0.28645 0.05763 0.0
C1292 C 0.29259 0.27935 0.04476 0.0
C1293 C 0.27029 0.27003 0.02944 0.0
C1294 C 0.27041 0.29142 0.96417 0.0
C1295 C 0.28613 0.29211 0.96126 0.0
C1296 C 0.26489 0.28427 0.97735 0.0
C1297 C 0.27494 0.27754 0.98788 0.0
C1298 C 0.29617 0.28542 0.97186 0.0
C1299 C 0.29063 0.27832 0.98508 0.0
C1300 C 0.26925 0.2704 1.00216 0.0
C1301 C 0.25113 0.24169 0.96354 0.0
C1302 C 0.23516 0.2416 0.96235 0.0
C1303 C 0.25838 0.24754 0.97653 0.0
C1304 C 0.24981 0.25346 0.98856 0.0
C1305 C 0.22664 0.24732 0.97453 0.0
C1306 C 0.23389 0.25309 0.98752 0.0
C1307 C 0.25723 0.25959 1.00249 0.0
H1308 H 0.2655 0.2339 0.07618 0.0
H1309 H 0.27507 0.24608 0.05295 0.0
H1310 H 0.2194 0.24251 0.06139 0.0
H1311 H 0.22906 0.255 0.03831 0.0
H1312 H 0.26596 0.29334 0.07673 0.0
H1313 H 0.25511 0.28129 0.05414 0.0
H1314 H 0.31104 0.28791 0.0584 0.0
H1315 H 0.30013 0.27557 0.03585 0.0
H1316 H 0.26236 0.29637 0.95622 0.0
H1317 H 0.25276 0.28419 0.97941 0.0
H1318 H 0.30834 0.28594 0.97009 0.0
H1319 H 0.29862 0.27338 0.99313 0.0
H1320 H 0.25802 0.2374 0.95436 0.0
H1321 H 0.27068 0.24735 0.9772 0.0
H1322 H 0.21433 0.24719 0.9741 0.0
H1323 H 0.22703 0.25741 0.99672 0.0
N1324 N 0.25232 0.25435 0.01627 0.0
N1325 N 0.27531 0.27515 0.01565 0.0
C1326 C 0.7755 0.24433 0.96542 0.0
C1327 C 0.79145 0.24426 0.96424 0.0
C1328 C 0.7685 0.24996 0.9785 0.0
C1329 C 0.77731 0.25568 0.99064 0.0
C1330 C 0.80021 0.24975 0.97654 0.0
C1331 C 0.79321 0.2553 0.98962 0.0
C1332 C 0.77014 0.26166 1.00464 0.0
C1333 C 0.75742 0.2941 0.96677 0.0
C1334 C 0.74172 0.29457 0.96365 0.0
C1335 C 0.76288 0.28683 0.97991 0.0
C1336 C 0.75276 0.2798 0.99016 0.0
C1337 C 0.73161 0.28758 0.97397 0.0
C1338 C 0.73708 0.28038 0.98716 0.0
C1339 C 0.75838 0.27253 1.00438 0.0
C1340 C 0.75616 0.29212 0.06971 0.0
C1341 C 0.74042 0.29354 0.07196 0.0
C1342 C 0.76174 0.28503 0.0567 0.0
C1343 C 0.75171 0.2791 0.04567 0.0
C1344 C 0.73038 0.28765 0.06088 0.0
C1345 C 0.73598 0.28062 0.04779 0.0
C1346 C 0.75763 0.27201 0.03162 0.0
C1347 C 0.76958 0.24014 0.06994 0.0
C1348 C 0.78527 0.23889 0.07285 0.0
C1349 C 0.76432 0.24737 0.05669 0.0
C1350 C 0.77464 0.25356 0.04611 0.0
C1351 C 0.79557 0.24504 0.0622 0.0
C1352 C 0.7903 0.25219 0.0489 0.0
C1353 C 0.76915 0.2609 0.03186 0.0
H1354 H 0.76843 0.24021 0.95615 0.0
H1355 H 0.7562 0.24978 0.97915 0.0
H1356 H 0.81252 0.24962 0.97612 0.0
H1357 H 0.80026 0.25947 0.9989 0.0
H1358 H 0.76551 0.29932 0.95901 0.0
H1359 H 0.775 0.28686 0.98215 0.0
H1360 H 0.71945 0.28793 0.97199 0.0
H1361 H 0.72906 0.27519 0.99501 0.0
H1362 H 0.7642 0.29644 0.07806 0.0
H1363 H 0.77393 0.28436 0.05518 0.0
H1364 H 0.7182 0.28874 0.06217 0.0
H1365 H 0.72803 0.27631 0.03935 0.0
H1366 H 0.76136 0.23558 0.07795 0.0
H1367 H 0.75218 0.24796 0.05465 0.0
H1368 H 0.80772 0.24408 0.06402 0.0
H1369 H 0.79846 0.25674 0.04082 0.0
N1370 N 0.77507 0.25629 0.01838 0.0
N1371 N 0.75257 0.27727 0.01788 0.0
C1372 C 0.77266 0.79051 0.06823 0.0
C1373 C 0.78846 0.79168 0.07069 0.0
C1374 C 0.76684 0.7835 0.05516 0.0
C1375 C 0.77665 0.77738 0.04427 0.0
C1376 C 0.79828 0.78572 0.05964 0.0
C1377 C 0.79242 0.77874 0.04652 0.0
C1378 C 0.77048 0.77019 0.03025 0.0
C1379 C 0.7573 0.73906 0.06895 0.0
C1380 C 0.74155 0.73782 0.07149 0.0
C1381 C 0.76286 0.74611 0.05574 0.0
C1382 C 0.7528 0.75217 0.0448 0.0
C1383 C 0.73151 0.74384 0.0605 0.0
C1384 C 0.73708 0.75083 0.04724 0.0
C1385 C 0.75859 0.75924 0.03052 0.0
C1386 C 0.75172 0.74157 0.96435 0.0
C1387 C 0.73577 0.74177 0.96297 0.0
C1388 C 0.75892 0.74734 0.97741 0.0
C1389 C 0.75031 0.75347 0.9893 0.0
C1390 C 0.7272 0.74767 0.97502 0.0
C1391 C 0.73439 0.75336 0.98807 0.0
C1392 C 0.75766 0.7596 1.00327 0.0
C1393 C 0.77157 0.79066 0.96467 0.0
C1394 C 0.78731 0.79094 0.9618 0.0
C1395 C 0.76585 0.78394 0.97799 0.0
C1396 C 0.77571 0.77721 0.98869 0.0
C1397 C 0.79717 0.78435 0.97265 0.0
C1398 C 0.79142 0.77765 0.98599 0.0
C1399 C 0.76978 0.7703 1.00298 0.0
H1400 H 0.76475 0.79529 0.07626 0.0
H1401 H 0.75463 0.78306 0.05347 0.0
H1402 H 0.81049 0.78631 0.06119 0.0
H1403 H 0.80022 0.77423 0.03821 0.0
H1404 H 0.76534 0.73462 0.07722 0.0
H1405 H 0.77503 0.74665 0.05398 0.0
H1406 H 0.71932 0.74289 0.06201 0.0
H1407 H 0.7291 0.75526 0.0389 0.0
H1408 H 0.75865 0.73714 0.95527 0.0
H1409 H 0.7712 0.74696 0.97823 0.0
H1410 H 0.7149 0.74776 0.97443 0.0
H1411 H 0.7275 0.75785 0.99717 0.0
H1412 H 0.76366 0.79593 0.95677 0.0
H1413 H 0.75372 0.78419 0.98001 0.0
H1414 H 0.80932 0.78423 0.97079 0.0
H1415 H 0.79926 0.77264 0.99414 0.0
N1416 N 0.77573 0.77515 0.01649 0.0
N1417 N 0.75255 0.75451 0.01702 0.0
C1418 C 0.27589 0.74421 0.96492 0.0
C1419 C 0.29184 0.74402 0.9637 0.0
C1420 C 0.26896 0.74981 0.97805 0.0
C1421 C 0.27784 0.75538 0.9902 0.0
C1422 C 0.30067 0.74935 0.97602 0.0
C1423 C 0.29374 0.75487 0.98915 0.0
C1424 C 0.27075 0.76136 1.00424 0.0
C1425 C 0.25823 0.79394 0.96641 0.0
C1426 C 0.24252 0.79449 0.96334 0.0
C1427 C 0.26368 0.78669 0.97957 0.0
C1428 C 0.25355 0.77976 0.98988 0.0
C1429 C 0.2324 0.78762 0.97373 0.0
C1430 C 0.23787 0.78044 0.98693 0.0
C1431 C 0.25916 0.7724 1.00405 0.0
C1432 C 0.25613 0.79048 0.07015 0.0
C1433 C 0.24041 0.79285 0.07157 0.0
C1434 C 0.262 0.78364 0.05713 0.0
C1435 C 0.25226 0.77871 0.04535 0.0
C1436 C 0.2307 0.78819 0.05965 0.0
C1437 C 0.23657 0.78123 0.04667 0.0
C1438 C 0.25838 0.77171 0.03131 0.0
C1439 C 0.27034 0.73988 0.0698 0.0
C1440 C 0.286 0.73747 0.07202 0.0
C1441 C 0.265 0.74728 0.05668 0.0
C1442 C 0.27521 0.75274 0.04561 0.0
C1443 C 0.29617 0.74271 0.06077 0.0
C1444 C 0.29083 0.75021 0.04771 0.0
C1445 C 0.26972 0.76036 0.03147 0.0
H1446 H 0.26876 0.74021 0.95564 0.0
H1447 H 0.25667 0.74973 0.97872 0.0
H1448 H 0.31297 0.74912 0.97557 0.0
H1449 H 0.30083 0.75893 0.99844 0.0
H1450 H 0.26632 0.79905 0.9586 0.0
H1451 H 0.27582 0.78662 0.98176 0.0
H1452 H 0.22024 0.78804 0.97179 0.0
H1453 H 0.22984 0.77533 0.99482 0.0
H1454 H 0.26395 0.79424 0.07897 0.0
H1455 H 0.2742 0.7824 0.05619 0.0
H1456 H 0.21853 0.78979 0.06041 0.0
H1457 H 0.22883 0.7777 0.03768 0.0
H1458 H 0.26216 0.7361 0.07824 0.0
H1459 H 0.25285 0.74863 0.05516 0.0
H1460 H 0.30827 0.7408 0.06191 0.0
H1461 H 0.29893 0.7541 0.03923 0.0
N1462 N 0.27556 0.7558 0.01794 0.0
N1463 N 0.25343 0.77712 0.01758 0.0
C1464 C 0.96253 0.24224 0.25313 0.0
C1465 C 0.96036 0.24383 0.23728 0.0
C1466 C 0.97559 0.24813 0.2602 0.0
C1467 C 0.9867 0.25584 0.25158 0.0
C1468 C 0.97159 0.25146 0.2287 0.0
C1469 C 0.98466 0.2573 0.23576 0.0
C1470 C 1.00081 0.26176 0.25882 0.0
C1471 C 0.96219 0.28896 0.27748 0.0
C1472 C 0.96042 0.288 0.29341 0.0
C1473 C 0.97531 0.28348 0.27052 0.0
C1474 C 0.98687 0.27666 0.27929 0.0
C1475 C 0.97221 0.28153 0.30218 0.0
C1476 C 0.98528 0.27598 0.2952 0.0
C1477 C 1.0009 0.2708 0.27211 0.0
C1478 C 0.06686 0.28889 0.27877 0.0
C1479 C 0.06886 0.2868 0.29458 0.0
C1480 C 0.05368 0.28357 0.27147 0.0
C1481 C 0.04226 0.27601 0.27982 0.0
C1482 C 0.05732 0.27939 0.30292 0.0
C1483 C 0.04412 0.27416 0.29563 0.0
C1484 C 0.0281 0.27054 0.27233 0.0
C1485 C 0.06593 0.24211 0.25326 0.0
C1486 C 0.06787 0.24358 0.23739 0.0
C1487 C 0.05308 0.24806 0.26036 0.0
C1488 C 0.04197 0.25576 0.25176 0.0
C1489 C 0.05665 0.25122 0.22883 0.0
C1490 C 0.04382 0.25714 0.23592 0.0
C1491 C 0.02799 0.26162 0.25898 0.0
H1492 H 0.95427 0.23619 0.26006 0.0
H1493 H 0.97711 0.24646 0.27236 0.0
H1494 H 0.97023 0.25308 0.21651 0.0
H1495 H 0.99313 0.26311 0.22888 0.0
H1496 H 0.95336 0.29379 0.27033 0.0
H1497 H 0.97643 0.28465 0.25828 0.0
H1498 H 0.97143 0.28089 0.31449 0.0
H1499 H 0.99412 0.27102 0.30226 0.0
H1500 H 0.07555 0.29451 0.27202 0.0
H1501 H 0.05236 0.28548 0.25931 0.0
H1502 H 0.05839 0.27783 0.31514 0.0
H1503 H 0.03538 0.26853 0.30233 0.0
H1504 H 0.07417 0.23606 0.26018 0.0
H1505 H 0.05172 0.24641 0.27253 0.0
H1506 H 0.05783 0.25276 0.21662 0.0
H1507 H 0.03536 0.26293 0.22903 0.0
N1508 N 0.01434 0.25766 0.25273 0.0
N1509 N 0.01456 0.27471 0.2784 0.0
C1510 C 0.73883 0.96247 0.27295 0.0
C1511 C 0.73626 0.96028 0.28865 0.0
C1512 C 0.74606 0.97566 0.26757 0.0
C1513 C 0.75118 0.98686 0.27779 0.0
C1514 C 0.74125 0.9716 0.29883 0.0
C1515 C 0.74858 0.98475 0.29345 0.0
C1516 C 0.75843 1.00117 0.27224 0.0
C1517 C 0.78979 0.96365 0.25882 0.0
C1518 C 0.79114 0.96162 0.24297 0.0
C1519 C 0.78288 0.97662 0.26464 0.0
C1520 C 0.77704 0.98782 0.25477 0.0
C1521 C 0.7855 0.973 0.23312 0.0
C1522 C 0.77862 0.986 0.23897 0.0
C1523 C 0.76978 1.00165 0.26088 0.0
C1524 C 0.78951 0.06753 0.26057 0.0
C1525 C 0.79135 0.06985 0.2448 0.0
C1526 C 0.78255 0.05425 0.26612 0.0
C1527 C 0.77698 0.04316 0.256 0.0
C1528 C 0.78602 0.05862 0.23471 0.0
C1529 C 0.77894 0.04541 0.24026 0.0
C1530 C 0.76988 0.02884 0.26167 0.0
C1531 C 0.74 0.06683 0.27815 0.0
C1532 C 0.73929 0.06789 0.29415 0.0
C1533 C 0.74628 0.05403 0.27126 0.0
C1534 C 0.75212 0.0421 0.28022 0.0
C1535 C 0.745 0.0558 0.30305 0.0
C1536 C 0.75124 0.04303 0.29615 0.0
C1537 C 0.75869 0.02834 0.27321 0.0
H1538 H 0.73525 0.95397 0.26477 0.0
H1539 H 0.74744 0.97718 0.25539 0.0
H1540 H 0.73922 0.97047 0.31096 0.0
H1541 H 0.75222 0.99331 0.30155 0.0
H1542 H 0.79431 0.95534 0.26677 0.0
H1543 H 0.78223 0.97796 0.27689 0.0
H1544 H 0.78623 0.97178 0.22086 0.0
H1545 H 0.77432 0.99455 0.23113 0.0
H1546 H 0.79378 0.07582 0.26864 0.0
H1547 H 0.78175 0.05256 0.27833 0.0
H1548 H 0.78723 0.06011 0.2225 0.0
H1549 H 0.7749 0.03697 0.23222 0.0
H1550 H 0.73548 0.07578 0.27093 0.0
H1551 H 0.74645 0.05341 0.25892 0.0
H1552 H 0.74485 0.05628 0.31538 0.0
H1553 H 0.75559 0.03394 0.30331 0.0
N1554 N 0.75346 0.01453 0.27803 0.0
N1555 N 0.77493 0.01547 0.25594 0.0
C1556 C 0.06682 0.78763 0.256 0.0
C1557 C 0.06835 0.78744 0.24003 0.0
C1558 C 0.05353 0.78212 0.26291 0.0
C1559 C 0.04152 0.77628 0.25399 0.0
C1560 C 0.05618 0.78185 0.23115 0.0
C1561 C 0.04289 0.77644 0.23805 0.0
C1562 C 0.02734 0.77029 0.26101 0.0
C1563 C 0.06457 0.73831 0.2751 0.0
C1564 C 0.06683 0.73675 0.29094 0.0
C1565 C 0.05177 0.74574 0.26929 0.0
C1566 C 0.04106 0.75209 0.27916 0.0
C1567 C 0.05599 0.74296 0.3008 0.0
C1568 C 0.04322 0.75049 0.29497 0.0
C1569 C 0.02715 0.75952 0.27309 0.0
C1570 C 0.96165 0.73956 0.27482 0.0
C1571 C 0.95939 0.73816 0.29065 0.0
C1572 C 0.97473 0.74666 0.26906 0.0
C1573 C 0.98574 0.75281 0.27899 0.0
C1574 C 0.97053 0.74418 0.30056 0.0
C1575 C 0.98359 0.75136 0.29478 0.0
C1576 C 0.99992 0.75989 0.273 0.0
C1577 C 0.96107 0.78839 0.25559 0.0
C1578 C 0.95984 0.78904 0.23958 0.0
C1579 C 0.97417 0.7826 0.26263 0.0
C1580 C 0.98622 0.77713 0.2538 0.0
C1581 C 0.97214 0.78401 0.23082 0.0
C1582 C 0.98517 0.77817 0.23785 0.0
C1583 C 1.00014 0.77069 0.26093 0.0
H1584 H 0.07599 0.79184 0.26315 0.0
H1585 H 0.05262 0.78243 0.27522 0.0
H1586 H 0.05688 0.78179 0.21882 0.0
H1587 H 0.03373 0.77216 0.23091 0.0
H1588 H 0.0727 0.7338 0.26713 0.0
H1589 H 0.05017 0.74632 0.25704 0.0
H1590 H 0.05719 0.74176 0.31305 0.0
H1591 H 0.035 0.75505 0.30282 0.0
H1592 H 0.9533 0.73519 0.26682 0.0
H1593 H 0.9763 0.74717 0.25683 0.0
H1594 H 0.96934 0.74308 0.31281 0.0
H1595 H 0.99203 0.75578 0.30268 0.0
H1596 H 0.95183 0.79212 0.26271 0.0
H1597 H 0.97484 0.78237 0.27496 0.0
H1598 H 0.97177 0.78465 0.21848 0.0
H1599 H 0.99438 0.77426 0.23077 0.0
N1600 N 0.01384 0.77535 0.25539 0.0
N1601 N 0.01344 0.75485 0.27866 0.0
C1602 C 0.25227 0.96364 0.24393 0.0
C1603 C 0.23651 0.96118 0.24542 0.0
C1604 C 0.25911 0.97696 0.24947 0.0
C1605 C 0.25033 0.98807 0.25667 0.0
C1606 C 0.22775 0.97246 0.25239 0.0
C1607 C 0.23457 0.98577 0.25786 0.0
C1608 C 0.25726 1.00232 0.26257 0.0
C1609 C 0.27672 0.96403 0.29087 0.0
C1610 C 0.29257 0.96254 0.28949 0.0
C1611 C 0.26937 0.97701 0.28529 0.0
C1612 C 0.27771 0.98873 0.27812 0.0
C1613 C 0.30089 0.97441 0.28252 0.0
C1614 C 0.29355 0.9874 0.277 0.0
C1615 C 0.27014 1.00265 0.27231 0.0
C1616 C 0.2699 0.06678 0.29513 0.0
C1617 C 0.28552 0.07039 0.29519 0.0
C1618 C 0.2645 0.05367 0.2879 0.0
C1619 C 0.27457 0.04392 0.28045 0.0
C1620 C 0.2956 0.06056 0.28782 0.0
C1621 C 0.29019 0.04739 0.28064 0.0
C1622 C 0.26892 0.0298 0.2731 0.0
C1623 C 0.25021 0.0689 0.24588 0.0
C1624 C 0.23423 0.06975 0.24542 0.0
C1625 C 0.25741 0.05586 0.25148 0.0
C1626 C 0.24883 0.04345 0.25702 0.0
C1627 C 0.22568 0.05714 0.2506 0.0
C1628 C 0.2329 0.04414 0.25628 0.0
C1629 C 0.25629 0.02949 0.26301 0.0
H1630 H 0.25935 0.95517 0.23864 0.0
H1631 H 0.27124 0.97862 0.24807 0.0
H1632 H 0.21555 0.97106 0.25348 0.0
H1633 H 0.22753 0.99425 0.26319 0.0
H1634 H 0.26996 0.95508 0.29613 0.0
H1635 H 0.25719 0.97792 0.28666 0.0
H1636 H 0.31314 0.97376 0.2815 0.0
H1637 H 0.30024 0.99639 0.27171 0.0
H1638 H 0.26181 0.07414 0.30061 0.0
H1639 H 0.25244 0.05107 0.28825 0.0
H1640 H 0.30771 0.06291 0.28784 0.0
H1641 H 0.29819 0.03995 0.27514 0.0
H1642 H 0.25719 0.07838 0.24207 0.0
H1643 H 0.26971 0.05548 0.25141 0.0
H1644 H 0.21338 0.05722 0.25013 0.0
H1645 H 0.226 0.03465 0.26024 0.0
N1646 N 0.25087 0.01575 0.25832 0.0
N1647 N 0.27546 0.01638 0.27717 0.0
C1648 C 0.96122 0.74394 0.75486 0.0
C1649 C 0.95938 0.74477 0.73891 0.0
C1650 C 0.97455 0.74931 0.76183 0.0
C1651 C 0.98622 0.75593 0.75305 0.0
C1652 C 0.97129 0.751 0.73014 0.0
C1653 C 0.98456 0.75648 0.73713 0.0
C1654 C 1.00042 0.76177 0.76024 0.0
C1655 C 0.96216 0.78981 0.77855 0.0
C1656 C 0.96032 0.7888 0.79446 0.0
C1657 C 0.97527 0.78423 0.77163 0.0
C1658 C 0.98671 0.77728 0.78044 0.0
C1659 C 0.97203 0.78226 0.80327 0.0
C1660 C 0.98508 0.77662 0.79634 0.0
C1661 C 1.00064 0.77113 0.77331 0.0
C1662 C 0.06658 0.78915 0.77961 0.0
C1663 C 0.06865 0.78714 0.79542 0.0
C1664 C 0.05336 0.78379 0.77239 0.0
C1665 C 0.042 0.77625 0.78084 0.0
C1666 C 0.05715 0.77978 0.80385 0.0
C1667 C 0.04392 0.77449 0.79665 0.0
C1668 C 0.02783 0.77068 0.77347 0.0
C1669 C 0.06615 0.74299 0.75464 0.0
C1670 C 0.06779 0.74394 0.7387 0.0
C1671 C 0.05314 0.74859 0.76173 0.0
C1672 C 0.04158 0.75551 0.75306 0.0
C1673 C 0.05599 0.75052 0.73004 0.0
C1674 C 0.04304 0.75619 0.73713 0.0
C1675 C 0.02763 0.76145 0.76032 0.0
H1676 H 0.95229 0.73928 0.76201 0.0
H1677 H 0.97572 0.74827 0.7741 0.0
H1678 H 0.97045 0.75152 0.71782 0.0
H1679 H 0.9935 0.76128 0.73008 0.0
H1680 H 0.95339 0.79471 0.77138 0.0
H1681 H 0.97643 0.78534 0.75938 0.0
H1682 H 0.97119 0.7816 0.81558 0.0
H1683 H 0.99385 0.77156 0.80342 0.0
H1684 H 0.07524 0.79474 0.77279 0.0
H1685 H 0.05199 0.78559 0.76023 0.0
H1686 H 0.05828 0.77827 0.81608 0.0
H1687 H 0.03523 0.76889 0.80343 0.0
H1688 H 0.075 0.73806 0.76171 0.0
H1689 H 0.05212 0.74742 0.77398 0.0
H1690 H 0.05666 0.75116 0.71772 0.0
H1691 H 0.03417 0.76122 0.73015 0.0
N1692 N 0.01392 0.75744 0.75421 0.0
N1693 N 0.01434 0.77507 0.77946 0.0
C1694 C 0.23846 0.96291 0.77363 0.0
C1695 C 0.23758 0.95994 0.7894 0.0
C1696 C 0.24539 0.97624 0.76817 0.0
C1697 C 0.25166 0.98686 0.77836 0.0
C1698 C 0.24383 0.97066 0.79956 0.0
C1699 C 0.25069 0.98403 0.79409 0.0
C1700 C 0.25863 1.00123 0.77271 0.0
C1701 C 0.28967 0.96384 0.75853 0.0
C1702 C 0.29071 0.96177 0.74267 0.0
C1703 C 0.28279 0.97677 0.76446 0.0
C1704 C 0.27668 0.98791 0.75469 0.0
C1705 C 0.28478 0.97307 0.7329 0.0
C1706 C 0.27793 0.98605 0.73886 0.0
C1707 C 0.26957 1.00176 0.76096 0.0
C1708 C 0.29018 0.06702 0.76094 0.0
C1709 C 0.29054 0.07028 0.7452 0.0
C1710 C 0.28332 0.05366 0.76639 0.0
C1711 C 0.27658 0.04329 0.75623 0.0
C1712 C 0.28389 0.05978 0.73506 0.0
C1713 C 0.27708 0.04638 0.74052 0.0
C1714 C 0.26962 0.02892 0.76186 0.0
C1715 C 0.24019 0.06685 0.77901 0.0
C1716 C 0.23965 0.06789 0.79502 0.0
C1717 C 0.24645 0.05409 0.77203 0.0
C1718 C 0.25242 0.04215 0.78091 0.0
C1719 C 0.24553 0.05583 0.80384 0.0
C1720 C 0.25175 0.04308 0.79686 0.0
C1721 C 0.25883 0.02837 0.77376 0.0
H1722 H 0.23349 0.95511 0.76546 0.0
H1723 H 0.24562 0.97836 0.75599 0.0
H1724 H 0.24354 0.9687 0.81176 0.0
H1725 H 0.25538 0.99211 0.80216 0.0
H1726 H 0.29443 0.9556 0.76642 0.0
H1727 H 0.28244 0.97815 0.77672 0.0
H1728 H 0.28528 0.97183 0.72064 0.0
H1729 H 0.27342 0.99455 0.73109 0.0
H1730 H 0.29548 0.07465 0.76907 0.0
H1731 H 0.28347 0.05133 0.77854 0.0
H1732 H 0.28381 0.06196 0.72288 0.0
H1733 H 0.27205 0.03848 0.73247 0.0
H1734 H 0.23553 0.07577 0.77185 0.0
H1735 H 0.24642 0.05347 0.7597 0.0
H1736 H 0.24552 0.0563 0.81617 0.0
H1737 H 0.2562 0.03399 0.80395 0.0
N1738 N 0.2538 0.01454 0.77873 0.0
N1739 N 0.27454 0.0156 0.7559 0.0
C1740 C 0.06642 0.28734 0.75521 0.0
C1741 C 0.06796 0.28702 0.73925 0.0
C1742 C 0.05314 0.28185 0.76215 0.0
C1743 C 0.04116 0.2759 0.75328 0.0
C1744 C 0.05584 0.28127 0.7304 0.0
C1745 C 0.04256 0.27587 0.73734 0.0
C1746 C 0.02695 0.27006 0.76037 0.0
C1747 C 0.06399 0.23811 0.77458 0.0
C1748 C 0.06709 0.2379 0.79035 0.0
C1749 C 0.05094 0.24512 0.76883 0.0
C1750 C 0.04071 0.25221 0.77869 0.0
C1751 C 0.05667 0.24479 0.80022 0.0
C1752 C 0.04358 0.25179 0.79445 0.0
C1753 C 0.02676 0.25952 0.77263 0.0
C1754 C 0.96108 0.24014 0.77487 0.0
C1755 C 0.95904 0.23858 0.79072 0.0
C1756 C 0.97412 0.24718 0.769 0.0
C1757 C 0.98533 0.25315 0.77882 0.0
C1758 C 0.97035 0.24444 0.80053 0.0
C1759 C 0.98337 0.25158 0.79464 0.0
C1760 C 0.99955 0.26005 0.77269 0.0
C1761 C 0.96147 0.28997 0.75561 0.0
C1762 C 0.95993 0.29044 0.73962 0.0
C1763 C 0.97434 0.28353 0.76248 0.0
C1764 C 0.98588 0.27729 0.7535 0.0
C1765 C 0.97159 0.2843 0.7307 0.0
C1766 C 0.98444 0.2779 0.73756 0.0
C1767 C 0.99978 0.27067 0.76046 0.0
H1768 H 0.07555 0.29167 0.76234 0.0
H1769 H 0.05221 0.28232 0.77445 0.0
H1770 H 0.05655 0.2811 0.71808 0.0
H1771 H 0.03341 0.2715 0.73024 0.0
H1772 H 0.07152 0.2326 0.76665 0.0
H1773 H 0.04875 0.24484 0.75666 0.0
H1774 H 0.05872 0.24495 0.81241 0.0
H1775 H 0.03577 0.25706 0.80228 0.0
H1776 H 0.95259 0.23589 0.76694 0.0
H1777 H 0.97553 0.24774 0.75675 0.0
H1778 H 0.96932 0.24323 0.81279 0.0
H1779 H 0.99196 0.25585 0.80246 0.0
H1780 H 0.95285 0.29481 0.76283 0.0
H1781 H 0.97536 0.28359 0.7748 0.0
H1782 H 0.97072 0.28424 0.71837 0.0
H1783 H 0.9932 0.27323 0.73038 0.0
N1784 N 0.01347 0.27514 0.75475 0.0
N1785 N 0.01307 0.255 0.77836 0.0
C1786 C 0.75238 0.96402 0.74366 0.0
C1787 C 0.73658 0.96167 0.74492 0.0
C1788 C 0.7592 0.97736 0.74922 0.0
C1789 C 0.75036 0.98855 0.75621 0.0
C1790 C 0.72776 0.97306 0.75161 0.0
C1791 C 0.73457 0.98638 0.7571 0.0
C1792 C 0.75729 1.00271 0.76234 0.0
C1793 C 0.77548 0.96378 0.79045 0.0
C1794 C 0.79142 0.96252 0.79033 0.0
C1795 C 0.76844 0.97689 0.78478 0.0
C1796 C 0.77715 0.98888 0.77855 0.0
C1797 C 0.80013 0.9747 0.78447 0.0
C1798 C 0.79306 0.98774 0.77868 0.0
C1799 C 0.76988 1.00288 0.77248 0.0
C1800 C 0.77007 0.06714 0.79512 0.0
C1801 C 0.78575 0.07047 0.79555 0.0
C1802 C 0.7646 0.05409 0.78782 0.0
C1803 C 0.77467 0.04413 0.78065 0.0
C1804 C 0.79582 0.06042 0.78846 0.0
C1805 C 0.79033 0.04732 0.78119 0.0
C1806 C 0.76895 0.03006 0.77322 0.0
C1807 C 0.75114 0.06936 0.74556 0.0
C1808 C 0.7352 0.07019 0.74454 0.0
C1809 C 0.75814 0.05631 0.7514 0.0
C1810 C 0.74935 0.04391 0.75667 0.0
C1811 C 0.72644 0.05765 0.74948 0.0
C1812 C 0.73344 0.04466 0.75545 0.0
C1813 C 0.75657 0.0299 0.76282 0.0
H1814 H 0.7595 0.95547 0.73859 0.0
H1815 H 0.77137 0.97891 0.74808 0.0
H1816 H 0.71554 0.97175 0.7525 0.0
H1817 H 0.72749 0.99493 0.76226 0.0
H1818 H 0.76847 0.95473 0.79516 0.0
H1819 H 0.75617 0.97767 0.78539 0.0
H1820 H 0.81241 0.97406 0.78413 0.0
H1821 H 0.80005 0.9969 0.77412 0.0
H1822 H 0.762 0.07467 0.80038 0.0
H1823 H 0.7525 0.05172 0.7879 0.0
H1824 H 0.80797 0.06253 0.78877 0.0
H1825 H 0.79833 0.0397 0.77592 0.0
H1826 H 0.75822 0.07871 0.74158 0.0
H1827 H 0.77044 0.05586 0.75163 0.0
H1828 H 0.71414 0.05797 0.74895 0.0
H1829 H 0.72639 0.03523 0.75928 0.0
N1830 N 0.75115 0.01621 0.75796 0.0
N1831 N 0.77522 0.01657 0.77748 0.0
C1832 C 0.25737 0.73999 0.56936 0.0
C1833 C 0.24162 0.73844 0.57177 0.0
C1834 C 0.2629 0.74703 0.55612 0.0
C1835 C 0.25282 0.75277 0.54503 0.0
C1836 C 0.23155 0.74415 0.56063 0.0
C1837 C 0.2371 0.75113 0.54735 0.0
C1838 C 0.25858 0.75976 0.5307 0.0
C1839 C 0.27205 0.79201 0.56793 0.0
C1840 C 0.28782 0.79361 0.57028 0.0
C1841 C 0.26635 0.78453 0.55507 0.0
C1842 C 0.27629 0.77838 0.5443 0.0
C1843 C 0.29776 0.78748 0.55946 0.0
C1844 C 0.29203 0.78006 0.54653 0.0
C1845 C 0.27026 0.77091 0.53035 0.0
C1846 C 0.2719 0.79007 0.46418 0.0
C1847 C 0.28771 0.79161 0.4622 0.0
C1848 C 0.266 0.78325 0.47738 0.0
C1849 C 0.27578 0.77752 0.48875 0.0
C1850 C 0.29746 0.78607 0.4737 0.0
C1851 C 0.29156 0.77914 0.48684 0.0
C1852 C 0.26974 0.77068 0.50307 0.0
C1853 C 0.25245 0.74073 0.46489 0.0
C1854 C 0.23649 0.74022 0.46359 0.0
C1855 C 0.25948 0.74706 0.47778 0.0
C1856 C 0.2507 0.75316 0.48955 0.0
C1857 C 0.22777 0.74622 0.4755 0.0
C1858 C 0.23479 0.75251 0.48835 0.0
C1859 C 0.25783 0.75973 0.50343 0.0
H1860 H 0.26543 0.7358 0.57773 0.0
H1861 H 0.27508 0.74781 0.55447 0.0
H1862 H 0.21937 0.74295 0.56203 0.0
H1863 H 0.2291 0.75529 0.53889 0.0
H1864 H 0.26408 0.79651 0.57608 0.0
H1865 H 0.25415 0.78374 0.55345 0.0
H1866 H 0.30995 0.78869 0.56083 0.0
H1867 H 0.29992 0.77557 0.53828 0.0
H1868 H 0.26408 0.7945 0.4557 0.0
H1869 H 0.25379 0.7827 0.47878 0.0
H1870 H 0.30969 0.78701 0.4725 0.0
H1871 H 0.29934 0.77498 0.4955 0.0
H1872 H 0.25952 0.736 0.45608 0.0
H1873 H 0.27178 0.74705 0.47861 0.0
H1874 H 0.21547 0.74624 0.47482 0.0
H1875 H 0.22777 0.75707 0.49731 0.0
N1876 N 0.25274 0.75474 0.51723 0.0
N1877 N 0.27548 0.7758 0.51656 0.0
C1878 C 0.78847 0.75362 0.56935 0.0
C1879 C 0.78695 0.73776 0.57122 0.0
C1880 C 0.78269 0.76088 0.55633 0.0
C1881 C 0.77515 0.75246 0.54497 0.0
C1882 C 0.77957 0.72937 0.55969 0.0
C1883 C 0.77383 0.73664 0.54667 0.0
C1884 C 0.76912 0.75994 0.53102 0.0
C1885 C 0.74198 0.77738 0.57062 0.0
C1886 C 0.74272 0.79327 0.57248 0.0
C1887 C 0.74734 0.77065 0.55728 0.0
C1888 C 0.75379 0.77963 0.54561 0.0
C1889 C 0.74882 0.80222 0.56059 0.0
C1890 C 0.75424 0.79548 0.54732 0.0
C1891 C 0.75954 0.77279 0.53133 0.0
C1892 C 0.74086 0.7797 0.46538 0.0
C1893 C 0.7415 0.79564 0.46382 0.0
C1894 C 0.74678 0.77254 0.4784 0.0
C1895 C 0.75355 0.78114 0.49008 0.0
C1896 C 0.74817 0.80421 0.47564 0.0
C1897 C 0.75402 0.79704 0.48866 0.0
C1898 C 0.75962 0.77373 0.50406 0.0
C1899 C 0.79038 0.75961 0.46609 0.0
C1900 C 0.79039 0.74392 0.46307 0.0
C1901 C 0.78345 0.7652 0.47919 0.0
C1902 C 0.77622 0.75524 0.48953 0.0
C1903 C 0.78319 0.73396 0.47346 0.0
C1904 C 0.77629 0.73956 0.48661 0.0
C1905 C 0.7694 0.76106 0.50377 0.0
H1906 H 0.79434 0.76041 0.57783 0.0
H1907 H 0.78422 0.77307 0.55507 0.0
H1908 H 0.77802 0.71718 0.56081 0.0
H1909 H 0.76816 0.7299 0.538 0.0
H1910 H 0.73741 0.77011 0.57953 0.0
H1911 H 0.74638 0.75843 0.55609 0.0
H1912 H 0.74927 0.8145 0.56144 0.0
H1913 H 0.75892 0.8027 0.5384 0.0
H1914 H 0.73554 0.77275 0.45668 0.0
H1915 H 0.74588 0.76028 0.47941 0.0
H1916 H 0.74905 0.81648 0.47476 0.0
H1917 H 0.75912 0.80392 0.49757 0.0
H1918 H 0.79572 0.76762 0.4583 0.0
H1919 H 0.78394 0.7773 0.48135 0.0
H1920 H 0.78317 0.7218 0.47159 0.0
H1921 H 0.77098 0.73164 0.49451 0.0
N1922 N 0.77362 0.75457 0.51726 0.0
N1923 N 0.75522 0.77917 0.51781 0.0
C1924 C 0.78837 0.27735 0.4635 0.0
C1925 C 0.78848 0.2933 0.46194 0.0
C1926 C 0.78226 0.27035 0.47652 0.0
C1927 C 0.77599 0.27914 0.4882 0.0
C1928 C 0.78232 0.30204 0.47375 0.0
C1929 C 0.77625 0.29504 0.48675 0.0
C1930 C 0.76971 0.27197 0.50224 0.0
C1931 C 0.73876 0.25717 0.46401 0.0
C1932 C 0.73743 0.24135 0.46193 0.0
C1933 C 0.74601 0.26308 0.47693 0.0
C1934 C 0.75241 0.25333 0.48796 0.0
C1935 C 0.74376 0.23161 0.47306 0.0
C1936 C 0.7511 0.23755 0.48595 0.0
C1937 C 0.75946 0.25947 0.50211 0.0
C1938 C 0.74109 0.2534 0.56816 0.0
C1939 C 0.74148 0.23748 0.56991 0.0
C1940 C 0.74691 0.26043 0.55502 0.0
C1941 C 0.75347 0.25172 0.54345 0.0
C1942 C 0.74767 0.22878 0.55809 0.0
C1943 C 0.75354 0.23582 0.54501 0.0
C1944 C 0.75972 0.25892 0.52942 0.0
C1945 C 0.78744 0.277 0.56892 0.0
C1946 C 0.78695 0.29292 0.57044 0.0
C1947 C 0.78202 0.26998 0.55564 0.0
C1948 C 0.77576 0.27871 0.54369 0.0
C1949 C 0.78111 0.30162 0.55824 0.0
C1950 C 0.77562 0.2946 0.54503 0.0
C1951 C 0.76978 0.27159 0.52954 0.0
H1952 H 0.79325 0.27026 0.45478 0.0
H1953 H 0.7826 0.25807 0.47754 0.0
H1954 H 0.78201 0.31433 0.47287 0.0
H1955 H 0.77156 0.30208 0.49563 0.0
H1956 H 0.73416 0.26504 0.45566 0.0
H1957 H 0.74637 0.2753 0.4784 0.0
H1958 H 0.74273 0.21938 0.472 0.0
H1959 H 0.75571 0.22978 0.4944 0.0
H1960 H 0.73648 0.26048 0.57702 0.0
H1961 H 0.74625 0.27268 0.55392 0.0
H1962 H 0.74786 0.21649 0.55886 0.0
H1963 H 0.75829 0.22882 0.53613 0.0
H1964 H 0.79182 0.26992 0.57807 0.0
H1965 H 0.7827 0.25773 0.55473 0.0
H1966 H 0.78087 0.31392 0.55883 0.0
H1967 H 0.7711 0.30162 0.53589 0.0
N1968 N 0.77431 0.2776 0.51594 0.0
N1969 N 0.75503 0.25336 0.51571 0.0
C1970 C 0.25768 0.29339 0.46608 0.0
C1971 C 0.24192 0.29503 0.46382 0.0
C1972 C 0.26334 0.28619 0.47918 0.0
C1973 C 0.25336 0.28016 0.49018 0.0
C1974 C 0.23197 0.28918 0.47498 0.0
C1975 C 0.23764 0.28188 0.48803 0.0
C1976 C 0.25917 0.27287 0.50436 0.0
C1977 C 0.27575 0.24416 0.46546 0.0
C1978 C 0.29168 0.24411 0.4641 0.0
C1979 C 0.26888 0.24988 0.47857 0.0
C1980 C 0.27782 0.25571 0.49056 0.0
C1981 C 0.30058 0.24969 0.47625 0.0
C1982 C 0.29372 0.25532 0.48937 0.0
C1983 C 0.27084 0.26187 0.50455 0.0
C1984 C 0.27096 0.24062 0.56995 0.0
C1985 C 0.28668 0.23949 0.57279 0.0
C1986 C 0.26555 0.24772 0.5567 0.0
C1987 C 0.27574 0.25391 0.546 0.0
C1988 C 0.29685 0.2456 0.56196 0.0
C1989 C 0.29142 0.25263 0.54866 0.0
C1990 C 0.2701 0.2612 0.53178 0.0
C1991 C 0.25729 0.29231 0.5698 0.0
C1992 C 0.24155 0.29366 0.57213 0.0
C1993 C 0.26283 0.28531 0.55672 0.0
C1994 C 0.25277 0.2794 0.54571 0.0
C1995 C 0.23149 0.2878 0.56106 0.0
C1996 C 0.23705 0.28086 0.54791 0.0
C1997 C 0.25863 0.27236 0.53162 0.0
H1998 H 0.2657 0.29764 0.45771 0.0
H1999 H 0.27553 0.2855 0.48077 0.0
H2000 H 0.21979 0.29049 0.4738 0.0
H2001 H 0.22972 0.27755 0.49646 0.0
H2002 H 0.26857 0.23998 0.45629 0.0
H2003 H 0.25659 0.24973 0.47935 0.0
H2004 H 0.31287 0.24957 0.47569 0.0
H2005 H 0.30086 0.25958 0.49853 0.0
H2006 H 0.26279 0.23575 0.57784 0.0
H2007 H 0.2534 0.24817 0.55471 0.0
H2008 H 0.30902 0.2451 0.56381 0.0
H2009 H 0.29949 0.25725 0.54051 0.0
H2010 H 0.26536 0.29661 0.57813 0.0
H2011 H 0.27502 0.28468 0.55514 0.0
H2012 H 0.21931 0.28883 0.56242 0.0
H2013 H 0.22907 0.27655 0.53949 0.0
N2014 N 0.25352 0.27764 0.51791 0.0
N2015 N 0.27585 0.25651 0.51826 0.0
C2016 C 0.73788 0.46339 0.77394 0.0
C2017 C 0.73707 0.46042 0.78972 0.0
C2018 C 0.74483 0.47668 0.76845 0.0
C2019 C 0.7512 0.48728 0.7786 0.0
C2020 C 0.74341 0.47113 0.79985 0.0
C2021 C 0.75029 0.48447 0.79434 0.0
C2022 C 0.75824 0.5016 0.7729 0.0
C2023 C 0.7889 0.46392 0.7588 0.0
C2024 C 0.78979 0.46173 0.74294 0.0
C2025 C 0.78222 0.47697 0.76469 0.0
C2026 C 0.77615 0.4881 0.75489 0.0
C2027 C 0.78393 0.47304 0.73314 0.0
C2028 C 0.77726 0.48613 0.73906 0.0
C2029 C 0.76916 0.50203 0.76113 0.0
C2030 C 0.79007 0.56723 0.7609 0.0
C2031 C 0.7904 0.57046 0.74515 0.0
C2032 C 0.78321 0.55389 0.76639 0.0
C2033 C 0.77642 0.54351 0.75627 0.0
C2034 C 0.78372 0.55994 0.73504 0.0
C2035 C 0.7769 0.54656 0.74055 0.0
C2036 C 0.7694 0.52919 0.76196 0.0
C2037 C 0.74029 0.56735 0.77914 0.0
C2038 C 0.73986 0.56844 0.79514 0.0
C2039 C 0.74641 0.55452 0.77216 0.0
C2040 C 0.75236 0.54257 0.78103 0.0
C2041 C 0.74571 0.55636 0.80396 0.0
C2042 C 0.75178 0.54355 0.79698 0.0
C2043 C 0.75863 0.52874 0.77389 0.0
H2044 H 0.73284 0.45559 0.76581 0.0
H2045 H 0.74501 0.47879 0.75626 0.0
H2046 H 0.74317 0.46917 0.81205 0.0
H2047 H 0.75506 0.49253 0.80238 0.0
H2048 H 0.79363 0.45568 0.7667 0.0
H2049 H 0.78197 0.47843 0.77694 0.0
H2050 H 0.78431 0.4717 0.72088 0.0
H2051 H 0.77278 0.49463 0.73127 0.0
H2052 H 0.79539 0.57487 0.76901 0.0
H2053 H 0.78339 0.55158 0.77854 0.0
H2054 H 0.78362 0.56209 0.72287 0.0
H2055 H 0.77184 0.53865 0.73253 0.0
H2056 H 0.73564 0.57628 0.77198 0.0
H2057 H 0.7463 0.55387 0.75983 0.0
H2058 H 0.74577 0.55687 0.8163 0.0
H2059 H 0.75622 0.53445 0.80408 0.0
N2060 N 0.75352 0.51495 0.7789 0.0
N2061 N 0.77421 0.51582 0.75601 0.0
C2062 C 0.25198 0.46359 0.74378 0.0
C2063 C 0.23614 0.46131 0.74479 0.0
C2064 C 0.25883 0.47673 0.74973 0.0
C2065 C 0.25001 0.48778 0.75696 0.0
C2066 C 0.22738 0.47246 0.75197 0.0
C2067 C 0.23422 0.48557 0.75788 0.0
C2068 C 0.2569 0.50202 0.76295 0.0
C2069 C 0.2766 0.46369 0.79095 0.0
C2070 C 0.29245 0.46223 0.78948 0.0
C2071 C 0.26921 0.4767 0.78549 0.0
C2072 C 0.27749 0.48848 0.77835 0.0
C2073 C 0.30072 0.47418 0.78257 0.0
C2074 C 0.29333 0.48719 0.77717 0.0
C2075 C 0.26986 0.50239 0.77259 0.0
C2076 C 0.26987 0.56679 0.79487 0.0
C2077 C 0.28552 0.57025 0.79502 0.0
C2078 C 0.26439 0.55367 0.78772 0.0
C2079 C 0.2744 0.54376 0.78042 0.0
C2080 C 0.29555 0.56027 0.78777 0.0
C2081 C 0.29005 0.54709 0.78065 0.0
C2082 C 0.26866 0.52955 0.77327 0.0
C2083 C 0.24989 0.56792 0.74479 0.0
C2084 C 0.23393 0.56907 0.74494 0.0
C2085 C 0.25708 0.55505 0.75083 0.0
C2086 C 0.24849 0.54309 0.75726 0.0
C2087 C 0.22538 0.557 0.75128 0.0
C2088 C 0.23258 0.54413 0.75727 0.0
C2089 C 0.25592 0.52919 0.76333 0.0
H2090 H 0.25905 0.45537 0.73812 0.0
H2091 H 0.27098 0.47835 0.74848 0.0
H2092 H 0.2152 0.47101 0.75316 0.0
H2093 H 0.22717 0.49396 0.76333 0.0
H2094 H 0.26988 0.4547 0.79617 0.0
H2095 H 0.25702 0.47757 0.7869 0.0
H2096 H 0.31296 0.47355 0.78148 0.0
H2097 H 0.29999 0.49621 0.7719 0.0
H2098 H 0.26182 0.57426 0.80026 0.0
H2099 H 0.25231 0.55119 0.78807 0.0
H2100 H 0.30768 0.56249 0.78786 0.0
H2101 H 0.29801 0.53952 0.77528 0.0
H2102 H 0.25684 0.57683 0.73974 0.0
H2103 H 0.26935 0.55436 0.75025 0.0
H2104 H 0.2131 0.55755 0.75179 0.0
H2105 H 0.22569 0.53502 0.76207 0.0
N2106 N 0.25047 0.51544 0.75873 0.0
N2107 N 0.27523 0.51615 0.77735 0.0
C2108 C 0.23762 0.46335 0.27338 0.0
C2109 C 0.23678 0.46033 0.28915 0.0
C2110 C 0.24467 0.47663 0.26794 0.0
C2111 C 0.25111 0.48714 0.27815 0.0
C2112 C 0.24316 0.47097 0.29932 0.0
C2113 C 0.25015 0.48427 0.29387 0.0
C2114 C 0.2583 0.50142 0.27256 0.0
C2115 C 0.28828 0.46337 0.25737 0.0
C2116 C 0.29036 0.46231 0.24152 0.0
C2117 C 0.28144 0.47614 0.26368 0.0
C2118 C 0.2762 0.48803 0.25426 0.0
C2119 C 0.28536 0.47434 0.23213 0.0
C2120 C 0.27839 0.48707 0.23844 0.0
C2121 C 0.26932 0.50188 0.26085 0.0
C2122 C 0.2909 0.56685 0.2613 0.0
C2123 C 0.29121 0.57023 0.24558 0.0
C2124 C 0.2839 0.55353 0.26668 0.0
C2125 C 0.27697 0.54333 0.25647 0.0
C2126 C 0.28437 0.55989 0.23539 0.0
C2127 C 0.27743 0.54653 0.24078 0.0
C2128 C 0.26977 0.52905 0.26201 0.0
C2129 C 0.2417 0.56772 0.27935 0.0
C2130 C 0.24088 0.56853 0.29535 0.0
C2131 C 0.24742 0.55476 0.27228 0.0
C2132 C 0.25266 0.5424 0.28106 0.0
C2133 C 0.24574 0.55595 0.30407 0.0
C2134 C 0.2515 0.54304 0.297 0.0
C2135 C 0.25888 0.52858 0.27381 0.0
H2136 H 0.23255 0.45561 0.26522 0.0
H2137 H 0.24491 0.47878 0.25576 0.0
H2138 H 0.2429 0.46896 0.31152 0.0
H2139 H 0.25497 0.49226 0.30196 0.0
H2140 H 0.29231 0.45447 0.26495 0.0
H2141 H 0.28049 0.47681 0.27596 0.0
H2142 H 0.28673 0.47385 0.21987 0.0
H2143 H 0.27463 0.49615 0.23093 0.0
H2144 H 0.29633 0.57435 0.26946 0.0
H2145 H 0.28406 0.5511 0.27881 0.0
H2146 H 0.28424 0.56217 0.22324 0.0
H2147 H 0.27224 0.53877 0.23269 0.0
H2148 H 0.23812 0.57719 0.27226 0.0
H2149 H 0.24771 0.55441 0.25994 0.0
H2150 H 0.24498 0.55601 0.31639 0.0
H2151 H 0.25523 0.53357 0.30403 0.0
N2152 N 0.25363 0.51476 0.27865 0.0
N2153 N 0.2745 0.5157 0.25596 0.0
C2154 C 0.75151 0.46347 0.24407 0.0
C2155 C 0.73575 0.4611 0.24565 0.0
C2156 C 0.75845 0.47676 0.24959 0.0
C2157 C 0.74977 0.4879 0.25685 0.0
C2158 C 0.72709 0.47239 0.25272 0.0
C2159 C 0.73401 0.48567 0.25816 0.0
C2160 C 0.75679 0.50217 0.26261 0.0
C2161 C 0.7765 0.46412 0.29104 0.0
C2162 C 0.79235 0.4626 0.28965 0.0
C2163 C 0.76914 0.47703 0.28532 0.0
C2164 C 0.77744 0.48865 0.27795 0.0
C2165 C 0.80063 0.47436 0.28242 0.0
C2166 C 0.79327 0.48727 0.27674 0.0
C2167 C 0.76986 0.50255 0.2721 0.0
C2168 C 0.7702 0.56681 0.29454 0.0
C2169 C 0.78587 0.57021 0.29463 0.0
C2170 C 0.76462 0.55378 0.2873 0.0
C2171 C 0.77455 0.5439 0.27983 0.0
C2172 C 0.7958 0.56028 0.28719 0.0
C2173 C 0.7902 0.54719 0.27997 0.0
C2174 C 0.76872 0.52971 0.27271 0.0
C2175 C 0.74944 0.5682 0.2448 0.0
C2176 C 0.73351 0.56936 0.24539 0.0
C2177 C 0.75676 0.55527 0.25053 0.0
C2178 C 0.7483 0.54325 0.25704 0.0
C2179 C 0.72508 0.55722 0.25173 0.0
C2180 C 0.73239 0.54427 0.25739 0.0
C2181 C 0.75586 0.52934 0.26294 0.0
H2182 H 0.75851 0.45499 0.23872 0.0
H2183 H 0.77057 0.47836 0.24809 0.0
H2184 H 0.71489 0.47106 0.25388 0.0
H2185 H 0.72704 0.49417 0.26354 0.0
H2186 H 0.76978 0.45546 0.2968 0.0
H2187 H 0.75697 0.47802 0.28683 0.0
H2188 H 0.81282 0.47353 0.28097 0.0
H2189 H 0.79993 0.49614 0.27121 0.0
H2190 H 0.76222 0.57425 0.30007 0.0
H2191 H 0.75254 0.55132 0.28774 0.0
H2192 H 0.80795 0.56245 0.28721 0.0
H2193 H 0.79811 0.53964 0.27448 0.0
H2194 H 0.75628 0.57736 0.24004 0.0
H2195 H 0.76902 0.55462 0.24976 0.0
H2196 H 0.71278 0.55764 0.25215 0.0
H2197 H 0.7256 0.53508 0.26217 0.0
N2198 N 0.75032 0.51559 0.25843 0.0
N2199 N 0.77531 0.51631 0.27675 0.0
C2200 C 0.56592 0.25887 0.7415 0.0
C2201 C 0.56747 0.24319 0.73881 0.0
C2202 C 0.553 0.26446 0.74873 0.0
C2203 C 0.54143 0.25449 0.75368 0.0
C2204 C 0.55576 0.23327 0.7436 0.0
C2205 C 0.54287 0.23887 0.75089 0.0
C2206 C 0.52747 0.26028 0.76105 0.0
C2207 C 0.56623 0.27204 0.79269 0.0
C2208 C 0.5682 0.28769 0.79551 0.0
C2209 C 0.55312 0.26662 0.78535 0.0
C2210 C 0.54182 0.27673 0.78037 0.0
C2211 C 0.55673 0.29775 0.79071 0.0
C2212 C 0.54368 0.29232 0.78328 0.0
C2213 C 0.52767 0.27115 0.7729 0.0
C2214 C 0.46185 0.27307 0.79194 0.0
C2215 C 0.46037 0.28876 0.79463 0.0
C2216 C 0.4748 0.26741 0.78482 0.0
C2217 C 0.48647 0.27731 0.77997 0.0
C2218 C 0.47217 0.29862 0.78992 0.0
C2219 C 0.48509 0.29294 0.78274 0.0
C2220 C 0.50047 0.27142 0.77274 0.0
C2221 C 0.46217 0.25992 0.74047 0.0
C2222 C 0.45945 0.24421 0.73897 0.0
C2223 C 0.47539 0.26526 0.74766 0.0
C2224 C 0.48612 0.255 0.75355 0.0
C2225 C 0.47027 0.23397 0.74477 0.0
C2226 C 0.48354 0.23933 0.75187 0.0
C2227 C 0.50029 0.26052 0.76096 0.0
H2228 H 0.57473 0.26685 0.73808 0.0
H2229 H 0.55202 0.27661 0.75031 0.0
H2230 H 0.5564 0.22117 0.74148 0.0
H2231 H 0.53401 0.23096 0.75438 0.0
H2232 H 0.57484 0.26396 0.79612 0.0
H2233 H 0.55179 0.25449 0.78369 0.0
H2234 H 0.5577 0.30982 0.79294 0.0
H2235 H 0.53502 0.30033 0.77978 0.0
H2236 H 0.45298 0.26513 0.7953 0.0
H2237 H 0.47573 0.25525 0.78328 0.0
H2238 H 0.47158 0.31071 0.79204 0.0
H2239 H 0.49402 0.3008 0.77931 0.0
H2240 H 0.45403 0.2681 0.73618 0.0
H2241 H 0.47728 0.27742 0.74853 0.0
H2242 H 0.46859 0.22182 0.7436 0.0
H2243 H 0.49174 0.23122 0.75618 0.0
N2244 N 0.51377 0.25534 0.75565 0.0
N2245 N 0.51416 0.27634 0.77817 0.0
C2246 C 0.46239 0.77362 0.74023 0.0
C2247 C 0.45989 0.7894 0.7397 0.0
C2248 C 0.47526 0.76774 0.74754 0.0
C2249 C 0.48585 0.77748 0.75462 0.0
C2250 C 0.47054 0.79914 0.74677 0.0
C2251 C 0.48346 0.79324 0.75403 0.0
C2252 C 0.49985 0.77132 0.76181 0.0
C2253 C 0.46051 0.75397 0.79 0.0
C2254 C 0.45874 0.73805 0.78974 0.0
C2255 C 0.47378 0.7609 0.78438 0.0
C2256 C 0.4855 0.75204 0.77836 0.0
C2257 C 0.47061 0.72923 0.78393 0.0
C2258 C 0.48387 0.73615 0.77841 0.0
C2259 C 0.49969 0.75908 0.77237 0.0
C2260 C 0.56638 0.75323 0.78955 0.0
C2261 C 0.56734 0.73726 0.79006 0.0
C2262 C 0.55324 0.76034 0.78403 0.0
C2263 C 0.54086 0.75163 0.77866 0.0
C2264 C 0.55471 0.72861 0.78515 0.0
C2265 C 0.54164 0.73571 0.77955 0.0
C2266 C 0.52689 0.75886 0.77244 0.0
C2267 C 0.56478 0.77267 0.74089 0.0
C2268 C 0.56743 0.78844 0.73964 0.0
C2269 C 0.55174 0.767 0.74808 0.0
C2270 C 0.54117 0.77695 0.7545 0.0
C2271 C 0.5567 0.79839 0.74589 0.0
C2272 C 0.54369 0.79269 0.75317 0.0
C2273 C 0.52706 0.77105 0.76177 0.0
H2274 H 0.45438 0.76578 0.735 0.0
H2275 H 0.47702 0.75556 0.74746 0.0
H2276 H 0.46906 0.81135 0.74639 0.0
H2277 H 0.49158 0.80098 0.75923 0.0
H2278 H 0.45157 0.76109 0.79437 0.0
H2279 H 0.47489 0.77317 0.7848 0.0
H2280 H 0.46972 0.71694 0.7838 0.0
H2281 H 0.49282 0.72905 0.77399 0.0
H2282 H 0.57587 0.76027 0.7932 0.0
H2283 H 0.55279 0.77265 0.78391 0.0
H2284 H 0.55487 0.7163 0.78569 0.0
H2285 H 0.53217 0.72872 0.77572 0.0
H2286 H 0.57281 0.76464 0.73634 0.0
H2287 H 0.54986 0.75482 0.74848 0.0
H2288 H 0.5582 0.81059 0.7449 0.0
H2289 H 0.53558 0.80061 0.75779 0.0
N2290 N 0.51352 0.77687 0.757 0.0
N2291 N 0.5132 0.75333 0.77719 0.0
C2292 C 0.46167 0.789 0.27826 0.0
C2293 C 0.45986 0.78795 0.29418 0.0
C2294 C 0.47478 0.7835 0.2713 0.0
C2295 C 0.48628 0.77658 0.28005 0.0
C2296 C 0.47159 0.78138 0.30293 0.0
C2297 C 0.48466 0.77581 0.29595 0.0
C2298 C 0.5003 0.77071 0.27287 0.0
C2299 C 0.46164 0.74269 0.25385 0.0
C2300 C 0.45935 0.74471 0.23808 0.0
C2301 C 0.47488 0.74817 0.26091 0.0
C2302 C 0.48606 0.75585 0.25234 0.0
C2303 C 0.47068 0.75219 0.22951 0.0
C2304 C 0.48394 0.7576 0.23656 0.0
C2305 C 0.5002 0.76163 0.25962 0.0
C2306 C 0.56597 0.74314 0.25406 0.0
C2307 C 0.56764 0.74418 0.23812 0.0
C2308 C 0.55295 0.74868 0.26114 0.0
C2309 C 0.5414 0.75566 0.2525 0.0
C2310 C 0.55587 0.75084 0.22948 0.0
C2311 C 0.5429 0.75647 0.23658 0.0
C2312 C 0.52739 0.76147 0.25977 0.0
C2313 C 0.5661 0.78919 0.27942 0.0
C2314 C 0.56819 0.78701 0.29521 0.0
C2315 C 0.55292 0.7838 0.27215 0.0
C2316 C 0.54162 0.77609 0.28052 0.0
C2317 C 0.55675 0.77947 0.30356 0.0
C2318 C 0.54356 0.77417 0.29631 0.0
C2319 C 0.5275 0.77049 0.27307 0.0
H2320 H 0.45287 0.79392 0.27112 0.0
H2321 H 0.47593 0.78473 0.25906 0.0
H2322 H 0.47078 0.78067 0.31524 0.0
H2323 H 0.49346 0.77077 0.303 0.0
H2324 H 0.45311 0.73702 0.26078 0.0
H2325 H 0.47642 0.74636 0.27305 0.0
H2326 H 0.46937 0.7537 0.2173 0.0
H2327 H 0.4925 0.76331 0.22969 0.0
H2328 H 0.57479 0.73815 0.26111 0.0
H2329 H 0.55189 0.74741 0.27339 0.0
H2330 H 0.55657 0.75156 0.21717 0.0
H2331 H 0.53406 0.76154 0.22962 0.0
H2332 H 0.57472 0.79492 0.27266 0.0
H2333 H 0.55153 0.78573 0.26001 0.0
H2334 H 0.5579 0.77784 0.31577 0.0
H2335 H 0.53491 0.76842 0.30302 0.0
N2336 N 0.51396 0.77465 0.27913 0.0
N2337 N 0.51373 0.75749 0.25354 0.0
C2338 C 0.46237 0.27398 0.24116 0.0
C2339 C 0.45985 0.28975 0.24053 0.0
C2340 C 0.47526 0.26815 0.24846 0.0
C2341 C 0.48585 0.27795 0.25547 0.0
C2342 C 0.47052 0.29955 0.24748 0.0
C2343 C 0.48345 0.2937 0.25477 0.0
C2344 C 0.49981 0.27185 0.26277 0.0
C2345 C 0.46002 0.25477 0.29026 0.0
C2346 C 0.4585 0.23882 0.2908 0.0
C2347 C 0.47337 0.26164 0.2848 0.0
C2348 C 0.48542 0.25271 0.27955 0.0
C2349 C 0.47079 0.22994 0.28597 0.0
C2350 C 0.48407 0.23681 0.28045 0.0
C2351 C 0.49962 0.25968 0.27345 0.0
C2352 C 0.56647 0.25334 0.28999 0.0
C2353 C 0.56726 0.23735 0.29056 0.0
C2354 C 0.55334 0.26055 0.28459 0.0
C2355 C 0.5408 0.25195 0.27941 0.0
C2356 C 0.5545 0.22881 0.28581 0.0
C2357 C 0.54144 0.23602 0.28035 0.0
C2358 C 0.52682 0.2593 0.27338 0.0
C2359 C 0.56412 0.27263 0.24089 0.0
C2360 C 0.56746 0.28831 0.24049 0.0
C2361 C 0.55107 0.26714 0.24818 0.0
C2362 C 0.54111 0.27719 0.25537 0.0
C2363 C 0.55742 0.29836 0.24761 0.0
C2364 C 0.54431 0.29286 0.25486 0.0
C2365 C 0.527 0.27147 0.26271 0.0
H2366 H 0.45434 0.2661 0.23602 0.0
H2367 H 0.47702 0.25598 0.24848 0.0
H2368 H 0.46904 0.31176 0.24703 0.0
H2369 H 0.49158 0.30149 0.2599 0.0
H2370 H 0.4508 0.26198 0.29385 0.0
H2371 H 0.47426 0.27393 0.28469 0.0
H2372 H 0.47019 0.21765 0.28653 0.0
H2373 H 0.49327 0.22965 0.27669 0.0
H2374 H 0.57606 0.2603 0.2935 0.0
H2375 H 0.55302 0.27286 0.28446 0.0
H2376 H 0.55454 0.2165 0.2864 0.0
H2377 H 0.53186 0.22911 0.27665 0.0
H2378 H 0.57165 0.26456 0.2356 0.0
H2379 H 0.54868 0.25504 0.24809 0.0
H2380 H 0.55955 0.31051 0.24733 0.0
H2381 H 0.53668 0.30084 0.26014 0.0
N2382 N 0.5135 0.27732 0.25792 0.0
N2383 N 0.51313 0.25388 0.27823 0.0
C2384 C 0.23689 0.20842 0.10284 0.0
C2385 C 0.22479 0.21453 0.11118 0.0
H2386 H 0.25156 0.21067 0.08354 0.0
C2387 C 0.21823 0.22818 0.106 0.0
H2388 H 0.24203 0.19778 0.10627 0.0
C2389 C 0.22366 0.23554 0.09287 0.0
C2390 C 0.23583 0.22946 0.08462 0.0
H2391 H 0.20905 0.23335 0.11224 0.0
H2392 H 0.21849 0.24613 0.08931 0.0
C2393 C 0.24235 0.2158 0.08976 0.0
C2394 C 0.78933 0.20965 0.10465 0.0
C2395 C 0.80131 0.21581 0.11343 0.0
H2396 H 0.77501 0.21202 0.08496 0.0
C2397 C 0.80801 0.22964 0.10868 0.0
H2398 H 0.7841 0.19888 0.10776 0.0
C2399 C 0.80286 0.2371 0.0955 0.0
C2400 C 0.79083 0.23097 0.08682 0.0
H2401 H 0.81709 0.23483 0.11527 0.0
H2402 H 0.80813 0.24782 0.09224 0.0
C2403 C 0.78413 0.21716 0.09155 0.0
C2404 C 0.81285 0.81641 0.09686 0.0
C2405 C 0.80528 0.8148 0.11087 0.0
H2406 H 0.81337 0.81065 0.07318 0.0
C2407 C 0.7925 0.80511 0.11168 0.0
H2408 H 0.82263 0.82391 0.09582 0.0
C2409 C 0.78725 0.79742 0.09875 0.0
C2410 C 0.79458 0.79929 0.08463 0.0
H2411 H 0.78657 0.80341 0.12236 0.0
H2412 H 0.77744 0.78997 0.09985 0.0
C2413 C 0.80754 0.80878 0.08389 0.0
C2414 C 0.23408 0.804 0.11286 0.0
C2415 C 0.22314 0.8155 0.11138 0.0
H2416 H 0.24807 0.78784 0.1015 0.0
C2417 C 0.21768 0.81924 0.09672 0.0
H2418 H 0.2386 0.80093 0.12397 0.0
C2419 C 0.22312 0.81176 0.08385 0.0
C2420 C 0.23423 0.80044 0.08531 0.0
H2421 H 0.20916 0.82795 0.09521 0.0
H2422 H 0.21883 0.81506 0.07271 0.0
C2423 C 0.23961 0.7966 0.09998 0.0
C2424 C 0.2197 0.80333 0.92744 0.0
C2425 C 0.22587 0.81748 0.92293 0.0
H2426 H 0.2202 0.78493 0.94361 0.0
C2427 C 0.23747 0.82402 0.93193 0.0
H2428 H 0.21091 0.79785 0.92068 0.0
C2429 C 0.24286 0.81655 0.94499 0.0
C2430 C 0.23673 0.8024 0.94945 0.0
H2431 H 0.24229 0.83503 0.929 0.0
H2432 H 0.2517 0.82199 0.95173 0.0
C2433 C 0.22504 0.7959 0.94057 0.0
C2434 C 0.22445 0.21627 0.92887 0.0
C2435 C 0.21185 0.22392 0.92261 0.0
H2436 H 0.2416 0.21576 0.94636 0.0
C2437 C 0.20725 0.23759 0.92937 0.0
H2438 H 0.22821 0.20564 0.9241 0.0
C2439 C 0.21487 0.24332 0.94215 0.0
C2440 C 0.22735 0.2356 0.94851 0.0
H2441 H 0.19783 0.24398 0.92468 0.0
H2442 H 0.21107 0.25392 0.94699 0.0
C2443 C 0.23213 0.22207 0.94165 0.0
C2444 C 0.81897 0.24078 0.93124 0.0
C2445 C 0.81405 0.22724 0.92423 0.0
H2446 H 0.81565 0.25681 0.94914 0.0
C2447 C 0.80133 0.21952 0.93031 0.0
H2448 H 0.82849 0.24723 0.9267 0.0
C2449 C 0.79388 0.22511 0.94316 0.0
C2450 C 0.799 0.2385 0.95029 0.0
H2451 H 0.79732 0.20897 0.92534 0.0
H2452 H 0.78432 0.21874 0.94773 0.0
C2453 C 0.81158 0.24631 0.9441 0.0
C2454 C 0.81224 0.81436 0.9349 0.0
C2455 C 0.80423 0.81319 0.92102 0.0
H2456 H 0.81309 0.80855 0.95864 0.0
C2457 C 0.79089 0.80426 0.92056 0.0
H2458 H 0.82245 0.8213 0.93569 0.0
C2459 C 0.78555 0.79688 0.93369 0.0
C2460 C 0.79338 0.79829 0.94766 0.0
H2461 H 0.78458 0.80292 0.90999 0.0
H2462 H 0.7753 0.79001 0.93287 0.0
C2463 C 0.80687 0.80703 0.94806 0.0
C2464 C 0.09276 0.22441 0.20798 0.0
C2465 C 0.10727 0.22541 0.21475 0.0
H2466 H 0.06901 0.229 0.20988 0.0
C2467 C 0.10868 0.23211 0.22921 0.0
H2468 H 0.09123 0.21908 0.19697 0.0
C2469 C 0.09592 0.2379 0.2366 0.0
C2470 C 0.08143 0.23709 0.22973 0.0
H2471 H 0.11971 0.23324 0.23466 0.0
H2472 H 0.09749 0.24334 0.24755 0.0
C2473 C 0.08001 0.23014 0.21538 0.0
C2474 C 0.80321 0.11121 0.23954 0.0
C2475 C 0.8144 0.11017 0.22822 0.0
H2476 H 0.78717 0.09928 0.25366 0.0
C2477 C 0.81776 0.09582 0.22222 0.0
H2478 H 0.80046 0.1221 0.24446 0.0
C2479 C 0.81016 0.08278 0.22747 0.0
C2480 C 0.79912 0.08378 0.23894 0.0
H2481 H 0.82624 0.09467 0.2134 0.0
H2482 H 0.81312 0.07186 0.22273 0.0
C2483 C 0.79571 0.09814 0.2449 0.0
C2484 C 0.92705 0.79304 0.2114 0.0
C2485 C 0.91913 0.80555 0.21717 0.0
H2486 H 0.94578 0.7779 0.214 0.0
C2487 C 0.9247 0.8126 0.23046 0.0
H2488 H 0.92326 0.78743 0.20108 0.0
C2489 C 0.93785 0.80726 0.23777 0.0
C2490 C 0.94576 0.79475 0.23196 0.0
H2491 H 0.91883 0.82217 0.23532 0.0
H2492 H 0.94191 0.81308 0.24786 0.0
C2493 C 0.94014 0.78769 0.21871 0.0
C2494 C 0.21051 0.92654 0.24297 0.0
C2495 C 0.21412 0.92061 0.22859 0.0
H2496 H 0.21484 0.94377 0.25959 0.0
C2497 C 0.22557 0.92787 0.21998 0.0
H2498 H 0.20202 0.92107 0.25008 0.0
C2499 C 0.23301 0.94089 0.22551 0.0
C2500 C 0.22914 0.94698 0.23974 0.0
H2501 H 0.22854 0.92373 0.2088 0.0
H2502 H 0.24152 0.94642 0.21845 0.0
C2503 C 0.21789 0.93956 0.24845 0.0
C2504 C 0.10295 0.78907 0.82186 0.0
C2505 C 0.10897 0.80362 0.8186 0.0
H2506 H 0.08569 0.77244 0.81702 0.0
C2507 C 0.10177 0.81257 0.80736 0.0
H2508 H 0.10836 0.78172 0.8302 0.0
C2509 C 0.08881 0.80718 0.79971 0.0
C2510 C 0.08269 0.79274 0.80317 0.0
H2511 H 0.10595 0.8239 0.80468 0.0
H2512 H 0.08337 0.81447 0.79133 0.0
C2513 C 0.08997 0.78373 0.81428 0.0
C2514 C 0.21847 0.09247 0.82326 0.0
C2515 C 0.22118 0.10722 0.81751 0.0
H2516 H 0.22182 0.06858 0.82056 0.0
C2517 C 0.22962 0.10891 0.80402 0.0
H2518 H 0.2118 0.09074 0.83348 0.0
C2519 C 0.23548 0.09619 0.79664 0.0
C2520 C 0.23299 0.08144 0.80254 0.0
H2521 H 0.23207 0.12012 0.79939 0.0
H2522 H 0.2423 0.09795 0.78652 0.0
C2523 C 0.22426 0.07976 0.81586 0.0
C2524 C 0.92667 0.20993 0.79538 0.0
C2525 C 0.91949 0.21497 0.80869 0.0
H2526 H 0.94477 0.21314 0.77949 0.0
C2527 C 0.92541 0.22794 0.81603 0.0
H2528 H 0.92233 0.20014 0.78927 0.0
C2529 C 0.93818 0.23561 0.81023 0.0
C2530 C 0.94537 0.23051 0.79693 0.0
H2531 H 0.92028 0.23208 0.82638 0.0
H2532 H 0.94232 0.24563 0.81609 0.0
C2533 C 0.93944 0.21755 0.78962 0.0
C2534 C 0.81926 0.93642 0.81079 0.0
C2535 C 0.81362 0.92193 0.80692 0.0
H2536 H 0.81668 0.96056 0.80864 0.0
C2537 C 0.80047 0.9209 0.79777 0.0
H2538 H 0.82944 0.93761 0.81771 0.0
C2539 C 0.79317 0.93405 0.79255 0.0
C2540 C 0.79893 0.94854 0.79624 0.0
H2541 H 0.79577 0.90991 0.79469 0.0
H2542 H 0.78317 0.93286 0.78537 0.0
C2543 C 0.81204 0.94957 0.80547 0.0
C2544 C 0.2251 0.1051 0.22175 0.0
C2545 C 0.21177 0.1103 0.22872 0.0
H2546 H 0.24249 0.08822 0.22134 0.0
C2547 C 0.2059 0.10201 0.24119 0.0
H2548 H 0.23006 0.11125 0.21223 0.0
C2549 C 0.21319 0.08894 0.24659 0.0
C2550 C 0.22651 0.08372 0.23963 0.0
H2551 H 0.19555 0.10551 0.24673 0.0
H2552 H 0.20843 0.08302 0.25636 0.0
C2553 C 0.23236 0.09197 0.22712 0.0
C2554 C 0.2238 0.91889 0.79267 0.0
C2555 C 0.21469 0.91932 0.80577 0.0
H2556 H 0.23845 0.93119 0.77746 0.0
C2557 C 0.2134 0.93312 0.81363 0.0
H2558 H 0.22519 0.90838 0.78649 0.0
C2559 C 0.22088 0.94624 0.80839 0.0
C2560 C 0.22992 0.94587 0.7952 0.0
H2561 H 0.20631 0.93386 0.82365 0.0
H2562 H 0.21928 0.95675 0.81449 0.0
C2563 C 0.23137 0.93199 0.78748 0.0
C2564 C 0.10777 0.2238 0.79371 0.0
C2565 C 0.10725 0.21496 0.80713 0.0
H2566 H 0.09571 0.23821 0.77811 0.0
C2567 C 0.09355 0.21413 0.81529 0.0
H2568 H 0.11821 0.2249 0.78729 0.0
C2569 C 0.08059 0.22169 0.80998 0.0
C2570 C 0.08103 0.23033 0.7964 0.0
H2571 H 0.09272 0.20728 0.82558 0.0
H2572 H 0.07011 0.22043 0.81632 0.0
C2573 C 0.09484 0.23141 0.78843 0.0
C2574 C 0.79071 0.10141 0.82525 0.0
C2575 C 0.80215 0.11068 0.81881 0.0
H2576 H 0.77673 0.08147 0.82311 0.0
C2577 C 0.80833 0.10646 0.80471 0.0
H2578 H 0.7859 0.10408 0.83624 0.0
C2579 C 0.8031 0.09338 0.7972 0.0
C2580 C 0.79154 0.08424 0.80359 0.0
H2581 H 0.81701 0.1134 0.7993 0.0
H2582 H 0.80792 0.0906 0.78624 0.0
C2583 C 0.78545 0.0884 0.81773 0.0
C2584 C 0.92657 0.79157 0.82122 0.0
C2585 C 0.91939 0.80491 0.81607 0.0
H2586 H 0.94479 0.77593 0.81837 0.0
C2587 C 0.92583 0.81295 0.80372 0.0
H2588 H 0.9221 0.78517 0.83082 0.0
C2589 C 0.93907 0.80777 0.79672 0.0
C2590 C 0.94621 0.7944 0.80187 0.0
H2591 H 0.92056 0.82319 0.79934 0.0
H2592 H 0.9438 0.81436 0.78737 0.0
C2593 C 0.93975 0.78637 0.8142 0.0
C2594 C 0.80359 0.92056 0.23849 0.0
C2595 C 0.81338 0.92153 0.2259 0.0
H2596 H 0.78868 0.93225 0.25351 0.0
C2597 C 0.81544 0.93572 0.21864 0.0
H2598 H 0.80155 0.90976 0.24419 0.0
C2599 C 0.80813 0.94867 0.22406 0.0
C2600 C 0.79853 0.94775 0.23682 0.0
H2601 H 0.82304 0.93689 0.20902 0.0
H2602 H 0.81034 0.95948 0.21846 0.0
C2603 C 0.79623 0.93348 0.24386 0.0
C2604 C 0.10276 0.81194 0.22974 0.0
C2605 C 0.10891 0.80391 0.21742 0.0
H2606 H 0.0851 0.81312 0.24646 0.0
C2607 C 0.10185 0.79019 0.213 0.0
H2608 H 0.10777 0.82261 0.23337 0.0
C2609 C 0.08883 0.78483 0.22043 0.0
C2610 C 0.08254 0.79297 0.23256 0.0
H2611 H 0.10644 0.7835 0.20382 0.0
H2612 H 0.08372 0.77421 0.21673 0.0
C2613 C 0.08974 0.80651 0.23724 0.0
C2614 C 0.91914 0.23272 0.22941 0.0
C2615 C 0.92009 0.22609 0.21491 0.0
H2616 H 0.93098 0.24378 0.24769 0.0
C2617 C 0.93441 0.22505 0.20798 0.0
H2618 H 0.90825 0.23386 0.23497 0.0
C2619 C 0.94745 0.23065 0.21529 0.0
C2620 C 0.94649 0.23751 0.22969 0.0
H2621 H 0.93556 0.21979 0.19692 0.0
H2622 H 0.95831 0.22949 0.20968 0.0
C2623 C 0.93218 0.2384 0.2367 0.0
C2624 C 0.21787 0.72905 0.60681 0.0
C2625 C 0.22471 0.71561 0.61221 0.0
H2626 H 0.21792 0.74686 0.58996 0.0
C2627 C 0.23709 0.70975 0.6041 0.0
H2628 H 0.20846 0.73402 0.61286 0.0
C2629 C 0.24256 0.71718 0.59106 0.0
C2630 C 0.23576 0.73061 0.58569 0.0
H2631 H 0.24245 0.69927 0.60769 0.0
H2632 H 0.252 0.71223 0.58501 0.0
C2633 C 0.22331 0.73644 0.5937 0.0
C2634 C 0.8052 0.70811 0.59711 0.0
C2635 C 0.80381 0.71474 0.61157 0.0
H2636 H 0.80134 0.71026 0.57309 0.0
C2637 C 0.79716 0.72917 0.61263 0.0
H2638 H 0.8105 0.69712 0.59588 0.0
C2639 C 0.7918 0.73668 0.59957 0.0
C2640 C 0.79302 0.72997 0.58511 0.0
H2641 H 0.79576 0.73451 0.62362 0.0
H2642 H 0.78637 0.7476 0.60085 0.0
C2643 C 0.79992 0.71564 0.58405 0.0
C2644 C 0.81052 0.30264 0.60574 0.0
C2645 C 0.80274 0.31525 0.61151 0.0
H2646 H 0.81179 0.2858 0.58827 0.0
C2647 C 0.78971 0.32035 0.60369 0.0
H2648 H 0.82051 0.29829 0.61153 0.0
C2649 C 0.78458 0.31304 0.5905 0.0
C2650 C 0.79238 0.30048 0.58467 0.0
H2651 H 0.78353 0.33014 0.60764 0.0
H2652 H 0.7744 0.31721 0.58494 0.0
C2653 C 0.80541 0.29534 0.59249 0.0
C2654 C 0.21814 0.30253 0.60729 0.0
C2655 C 0.22514 0.316 0.61251 0.0
H2656 H 0.21789 0.28486 0.59055 0.0
C2657 C 0.23739 0.32213 0.60416 0.0
H2658 H 0.20881 0.29737 0.61351 0.0
C2659 C 0.24265 0.31491 0.59109 0.0
C2660 C 0.23574 0.3014 0.58594 0.0
H2661 H 0.24286 0.33265 0.60761 0.0
H2662 H 0.25202 0.32003 0.58489 0.0
C2663 C 0.22336 0.29534 0.59413 0.0
C2664 C 0.21684 0.30554 0.42985 0.0
C2665 C 0.22443 0.31841 0.42388 0.0
H2666 H 0.21647 0.28797 0.44687 0.0
C2667 C 0.23783 0.32347 0.43116 0.0
H2668 H 0.20641 0.3014 0.42466 0.0
C2669 C 0.24346 0.31592 0.44407 0.0
C2670 C 0.2359 0.30304 0.45002 0.0
H2671 H 0.24412 0.33319 0.42679 0.0
H2672 H 0.25367 0.32032 0.44948 0.0
C2673 C 0.22252 0.29794 0.44273 0.0
C2674 C 0.22714 0.7303 0.42234 0.0
C2675 C 0.2135 0.72197 0.4239 0.0
H2676 H 0.24495 0.7428 0.43354 0.0
C2677 C 0.20784 0.71919 0.43863 0.0
H2678 H 0.23172 0.73277 0.41114 0.0
C2679 C 0.21544 0.72485 0.45146 0.0
C2680 C 0.22888 0.73353 0.44992 0.0
H2681 H 0.19751 0.71258 0.44025 0.0
H2682 H 0.21077 0.7224 0.46263 0.0
C2683 C 0.23472 0.73603 0.43519 0.0
C2684 C 0.81969 0.73863 0.43192 0.0
C2685 C 0.813 0.72713 0.42295 0.0
H2686 H 0.81795 0.75274 0.45159 0.0
C2687 C 0.79885 0.72103 0.42744 0.0
H2688 H 0.83072 0.74337 0.42903 0.0
C2689 C 0.79154 0.72639 0.44048 0.0
C2690 C 0.79818 0.738 0.44931 0.0
H2691 H 0.79327 0.7123 0.42073 0.0
H2692 H 0.78055 0.72162 0.44348 0.0
C2693 C 0.81237 0.744 0.44489 0.0
C2694 C 0.80894 0.32196 0.43641 0.0
C2695 C 0.80635 0.31595 0.42179 0.0
H2696 H 0.80569 0.31942 0.46045 0.0
C2697 C 0.79829 0.30213 0.42051 0.0
H2698 H 0.81535 0.33244 0.43783 0.0
C2699 C 0.79264 0.29469 0.43351 0.0
C2700 C 0.79498 0.30086 0.44811 0.0
H2701 H 0.79595 0.29728 0.40941 0.0
H2702 H 0.7861 0.2843 0.43206 0.0
C2703 C 0.80337 0.3145 0.44939 0.0
C2704 C 0.10103 0.74058 0.71137 0.0
C2705 C 0.10815 0.72721 0.71651 0.0
H2706 H 0.08304 0.75645 0.71441 0.0
C2707 C 0.10185 0.71935 0.72905 0.0
H2708 H 0.1054 0.74685 0.70163 0.0
C2709 C 0.08879 0.72474 0.73623 0.0
C2710 C 0.08171 0.73814 0.7311 0.0
H2711 H 0.10708 0.70909 0.73343 0.0
H2712 H 0.08417 0.71828 0.74572 0.0
C2713 C 0.08804 0.74599 0.71858 0.0
C2714 C 0.81393 0.59766 0.72068 0.0
C2715 C 0.81287 0.61132 0.72881 0.0
H2716 H 0.80798 0.57403 0.71958 0.0
C2717 C 0.80407 0.61154 0.74213 0.0
H2718 H 0.82077 0.59707 0.71047 0.0
C2719 C 0.79664 0.59837 0.74731 0.0
C2720 C 0.79789 0.58462 0.73933 0.0
H2721 H 0.80284 0.62195 0.74852 0.0
H2722 H 0.78982 0.59901 0.75752 0.0
C2723 C 0.80656 0.58445 0.7259 0.0
C2724 C 0.93481 0.31158 0.71121 0.0
C2725 C 0.9202 0.30893 0.71712 0.0
H2726 H 0.95875 0.30819 0.7138 0.0
C2727 C 0.91878 0.30067 0.73085 0.0
H2728 H 0.93633 0.31813 0.70081 0.0
C2729 C 0.93165 0.29487 0.73828 0.0
C2730 C 0.94626 0.29724 0.73218 0.0
H2731 H 0.90767 0.29829 0.73563 0.0
H2732 H 0.9301 0.28816 0.74857 0.0
C2733 C 0.94767 0.30585 0.71866 0.0
C2734 C 0.20716 0.43542 0.72542 0.0
C2735 C 0.21381 0.42102 0.72715 0.0
H2736 H 0.20908 0.45935 0.72926 0.0
C2737 C 0.22816 0.42002 0.73423 0.0
H2738 H 0.19625 0.43663 0.71976 0.0
C2739 C 0.23551 0.43308 0.73979 0.0
C2740 C 0.2287 0.44745 0.73834 0.0
H2741 H 0.23353 0.40909 0.73588 0.0
H2742 H 0.24635 0.43185 0.74558 0.0
C2743 C 0.21452 0.44845 0.73091 0.0
C2744 C 0.10305 0.28872 0.32117 0.0
C2745 C 0.10905 0.30328 0.31797 0.0
H2746 H 0.08583 0.27208 0.31622 0.0
C2747 C 0.10188 0.31225 0.30672 0.0
H2748 H 0.10843 0.28136 0.32952 0.0
C2749 C 0.08896 0.30686 0.29901 0.0
C2750 C 0.08286 0.2924 0.30241 0.0
H2751 H 0.10605 0.32359 0.30409 0.0
H2752 H 0.08354 0.31416 0.29063 0.0
C2753 C 0.0901 0.28337 0.31352 0.0
C2754 C 0.23663 0.60076 0.32367 0.0
C2755 C 0.22427 0.60889 0.31757 0.0
H2756 H 0.25166 0.58195 0.32141 0.0
C2757 C 0.21737 0.6036 0.30407 0.0
H2758 H 0.24211 0.60434 0.33416 0.0
C2759 C 0.22272 0.59055 0.29686 0.0
C2760 C 0.23511 0.58245 0.30297 0.0
H2761 H 0.20792 0.60964 0.29896 0.0
H2762 H 0.21703 0.58672 0.28658 0.0
C2763 C 0.24199 0.58776 0.31646 0.0
C2764 C 0.92702 0.70949 0.29519 0.0
C2765 C 0.91964 0.71468 0.30833 0.0
H2766 H 0.94534 0.71256 0.27951 0.0
C2767 C 0.92543 0.72774 0.3156 0.0
H2768 H 0.92279 0.69961 0.28914 0.0
C2769 C 0.93826 0.73538 0.30988 0.0
C2770 C 0.94566 0.73014 0.29676 0.0
H2771 H 0.92015 0.732 0.32582 0.0
H2772 H 0.9423 0.74548 0.31568 0.0
C2773 C 0.93986 0.71707 0.28951 0.0
C2774 C 0.82221 0.43722 0.30813 0.0
C2775 C 0.81561 0.42267 0.30667 0.0
H2776 H 0.82 0.46115 0.30427 0.0
C2777 C 0.80114 0.42138 0.29986 0.0
H2778 H 0.83323 0.43864 0.31354 0.0
C2779 C 0.79357 0.4343 0.29443 0.0
C2780 C 0.80025 0.44885 0.29573 0.0
H2781 H 0.79581 0.41033 0.29838 0.0
H2782 H 0.78261 0.43283 0.2889 0.0
C2783 C 0.81462 0.45013 0.30277 0.0
C2784 C 0.20499 0.59416 0.72463 0.0
C2785 C 0.21116 0.6088 0.72681 0.0
H2786 H 0.20743 0.57022 0.72828 0.0
C2787 C 0.22505 0.61026 0.73472 0.0
H2788 H 0.19444 0.59262 0.71838 0.0
C2789 C 0.23246 0.59741 0.74052 0.0
C2790 C 0.22622 0.58276 0.73849 0.0
H2791 H 0.23001 0.62138 0.73677 0.0
H2792 H 0.24293 0.59901 0.7469 0.0
C2793 C 0.21244 0.58131 0.73035 0.0
C2794 C 0.21262 0.43357 0.31348 0.0
C2795 C 0.21386 0.41977 0.30563 0.0
H2796 H 0.21853 0.4572 0.3143 0.0
C2797 C 0.2229 0.41932 0.29247 0.0
H2798 H 0.20558 0.43433 0.32354 0.0
C2799 C 0.23044 0.43241 0.28723 0.0
C2800 C 0.22906 0.44629 0.29496 0.0
H2801 H 0.22425 0.4088 0.2863 0.0
H2802 H 0.23747 0.43159 0.27717 0.0
C2803 C 0.22008 0.44668 0.30818 0.0
C2804 C 0.09826 0.70754 0.29537 0.0
C2805 C 0.10596 0.71254 0.30855 0.0
H2806 H 0.07987 0.71096 0.2797 0.0
C2807 C 0.10062 0.72558 0.31594 0.0
H2808 H 0.10212 0.69767 0.28923 0.0
C2809 C 0.08796 0.73342 0.31028 0.0
C2810 C 0.08029 0.72841 0.29708 0.0
H2811 H 0.10614 0.7297 0.32621 0.0
H2812 H 0.08431 0.74353 0.31616 0.0
C2813 C 0.08559 0.71532 0.28976 0.0
C2814 C 0.8084 0.60623 0.30382 0.0
C2815 C 0.80243 0.61024 0.31809 0.0
H2816 H 0.80778 0.59058 0.28517 0.0
C2817 C 0.79121 0.60077 0.32465 0.0
H2818 H 0.81691 0.61333 0.29834 0.0
C2819 C 0.78594 0.58781 0.31707 0.0
C2820 C 0.79177 0.5839 0.30275 0.0
H2821 H 0.78658 0.60329 0.33575 0.0
H2822 H 0.77739 0.58074 0.32254 0.0
C2823 C 0.80315 0.5932 0.29626 0.0
C2824 C 0.92688 0.2911 0.32041 0.0
C2825 C 0.9197 0.30442 0.31519 0.0
H2826 H 0.94503 0.27538 0.31757 0.0
C2827 C 0.92605 0.3123 0.30269 0.0
H2828 H 0.92248 0.28483 0.33013 0.0
C2829 C 0.93921 0.30701 0.29564 0.0
C2830 C 0.94637 0.29368 0.30087 0.0
H2831 H 0.92078 0.32251 0.29824 0.0
H2832 H 0.94388 0.31349 0.28618 0.0
C2833 C 0.93998 0.28579 0.31333 0.0
C2834 C 0.80222 0.42064 0.73869 0.0
C2835 C 0.81178 0.4215 0.72591 0.0
H2836 H 0.78755 0.43247 0.75383 0.0
C2837 C 0.81362 0.43559 0.71841 0.0
H2838 H 0.80036 0.40991 0.74457 0.0
C2839 C 0.80635 0.44858 0.72379 0.0
C2840 C 0.79701 0.44779 0.73676 0.0
H2841 H 0.82104 0.43667 0.70864 0.0
H2842 H 0.8084 0.45933 0.71801 0.0
C2843 C 0.7949 0.4336 0.74402 0.0
C2844 C 0.10156 0.28993 0.71234 0.0
C2845 C 0.10852 0.30369 0.71678 0.0
H2846 H 0.0835 0.27385 0.71601 0.0
C2847 C 0.10221 0.31174 0.729 0.0
H2848 H 0.10626 0.28323 0.70322 0.0
C2849 C 0.08918 0.30627 0.73642 0.0
C2850 C 0.0821 0.29265 0.73176 0.0
H2851 H 0.10714 0.32246 0.73263 0.0
H2852 H 0.08444 0.31288 0.74558 0.0
C2853 C 0.08851 0.28452 0.71969 0.0
C2854 C 0.92567 0.74171 0.71168 0.0
C2855 C 0.91813 0.72855 0.71704 0.0
H2856 H 0.94428 0.75727 0.71447 0.0
C2857 C 0.92425 0.7208 0.72974 0.0
H2858 H 0.92144 0.74787 0.70182 0.0
C2859 C 0.93759 0.72603 0.73682 0.0
C2860 C 0.94512 0.73919 0.73144 0.0
H2861 H 0.91869 0.71073 0.7343 0.0
H2862 H 0.94209 0.71963 0.7464 0.0
C2863 C 0.93893 0.74698 0.71882 0.0
C2864 C 0.73755 0.21018 0.60357 0.0
C2865 C 0.72438 0.21545 0.6108 0.0
H2866 H 0.75337 0.21306 0.58533 0.0
C2867 C 0.71684 0.22806 0.60442 0.0
H2868 H 0.74355 0.20038 0.608 0.0
C2869 C 0.72235 0.23521 0.5912 0.0
C2870 C 0.73555 0.22994 0.58401 0.0
H2871 H 0.70676 0.23254 0.60973 0.0
H2872 H 0.71615 0.24477 0.58652 0.0
C2873 C 0.74307 0.21734 0.59041 0.0
C2874 C 0.31053 0.21497 0.59953 0.0
C2875 C 0.30279 0.21643 0.61341 0.0
H2876 H 0.31137 0.22078 0.57581 0.0
C2877 C 0.28992 0.22578 0.61393 0.0
H2878 H 0.32036 0.20771 0.59873 0.0
C2879 C 0.28483 0.23339 0.60083 0.0
C2880 C 0.29242 0.23177 0.58686 0.0
H2881 H 0.28385 0.2273 0.62451 0.0
H2882 H 0.275 0.24065 0.6017 0.0
C2883 C 0.30538 0.22251 0.5864 0.0
C2884 C 0.31154 0.80394 0.60523 0.0
C2885 C 0.30465 0.81748 0.60998 0.0
H2886 H 0.31157 0.78573 0.58909 0.0
C2887 C 0.2924 0.82321 0.60134 0.0
H2888 H 0.32086 0.79908 0.61168 0.0
C2889 C 0.28703 0.8155 0.58848 0.0
C2890 C 0.2938 0.80189 0.58383 0.0
H2891 H 0.28702 0.83377 0.60442 0.0
H2892 H 0.27765 0.82031 0.58206 0.0
C2893 C 0.3062 0.79626 0.59229 0.0
C2894 C 0.71871 0.80216 0.60732 0.0
C2895 C 0.72649 0.81476 0.61352 0.0
H2896 H 0.71757 0.78563 0.58952 0.0
C2897 C 0.7397 0.82009 0.60617 0.0
H2898 H 0.70859 0.79763 0.61273 0.0
C2899 C 0.74499 0.81305 0.593 0.0
C2900 C 0.73717 0.80053 0.58672 0.0
H2901 H 0.7459 0.82988 0.61045 0.0
H2902 H 0.7553 0.8174 0.58779 0.0
C2903 C 0.72398 0.79514 0.59409 0.0
C2904 C 0.72195 0.82462 0.43812 0.0
C2905 C 0.72383 0.81827 0.4236 0.0
H2906 H 0.72568 0.82236 0.46215 0.0
C2907 C 0.73131 0.80427 0.42241 0.0
H2908 H 0.71603 0.83528 0.43943 0.0
C2909 C 0.73698 0.7969 0.43543 0.0
C2910 C 0.73522 0.80332 0.44996 0.0
H2911 H 0.7331 0.79917 0.41137 0.0
H2912 H 0.74302 0.78633 0.43405 0.0
C2913 C 0.72753 0.81722 0.45114 0.0
C2914 C 0.72639 0.21611 0.42841 0.0
C2915 C 0.71316 0.22321 0.42288 0.0
H2916 H 0.74451 0.2163 0.44486 0.0
C2917 C 0.70806 0.23633 0.43029 0.0
H2918 H 0.73059 0.20591 0.4231 0.0
C2919 C 0.71589 0.24215 0.44291 0.0
C2920 C 0.72914 0.23508 0.44844 0.0
H2921 H 0.69805 0.24226 0.42626 0.0
H2922 H 0.71144 0.25213 0.44844 0.0
C2923 C 0.73428 0.22197 0.44102 0.0
C2924 C 0.30128 0.21935 0.43011 0.0
C2925 C 0.31384 0.22715 0.42383 0.0
H2926 H 0.28451 0.21849 0.44777 0.0
C2927 C 0.31878 0.24074 0.43075 0.0
H2928 H 0.29726 0.20877 0.42521 0.0
C2929 C 0.31153 0.24624 0.4437 0.0
C2930 C 0.29909 0.23836 0.45007 0.0
H2931 H 0.32818 0.24725 0.42606 0.0
H2932 H 0.31559 0.25678 0.44866 0.0
C2933 C 0.29397 0.22491 0.44305 0.0
C2934 C 0.29349 0.80392 0.42093 0.0
C2935 C 0.30532 0.8147 0.42226 0.0
H2936 H 0.27867 0.78816 0.43245 0.0
C2937 C 0.31153 0.81757 0.43678 0.0
H2938 H 0.28837 0.80153 0.40992 0.0
C2939 C 0.30596 0.80994 0.44968 0.0
C2940 C 0.29397 0.79933 0.44839 0.0
H2941 H 0.32075 0.82571 0.43818 0.0
H2942 H 0.31086 0.81258 0.46072 0.0
C2943 C 0.28783 0.79637 0.43385 0.0
C2944 C 0.6004 0.21779 0.72756 0.0
C2945 C 0.6068 0.22591 0.71525 0.0
H2946 H 0.5832 0.21689 0.74474 0.0
C2947 C 0.6002 0.23982 0.71087 0.0
H2948 H 0.60507 0.20699 0.73118 0.0
C2949 C 0.58752 0.24539 0.71849 0.0
C2950 C 0.58109 0.23726 0.73078 0.0
H2951 H 0.60492 0.24651 0.70159 0.0
H2952 H 0.58264 0.256 0.7146 0.0
C2953 C 0.58772 0.22339 0.73523 0.0
C2954 C 0.31414 0.09747 0.72078 0.0
C2955 C 0.31312 0.11111 0.72894 0.0
H2956 H 0.30813 0.07387 0.71963 0.0
C2957 C 0.30435 0.11133 0.74228 0.0
H2958 H 0.32096 0.09688 0.71056 0.0
C2959 C 0.29688 0.09817 0.74743 0.0
C2960 C 0.29807 0.08443 0.73942 0.0
H2961 H 0.30316 0.12173 0.74869 0.0
H2962 H 0.29007 0.09881 0.75765 0.0
C2963 C 0.30674 0.08428 0.72598 0.0
C2964 C 0.42495 0.81302 0.73017 0.0
C2965 C 0.4203 0.80685 0.7161 0.0
H2966 H 0.44096 0.81228 0.74871 0.0
C2967 C 0.42901 0.79515 0.70977 0.0
H2968 H 0.41845 0.82191 0.73547 0.0
C2969 C 0.44184 0.78959 0.71739 0.0
C2970 C 0.44637 0.79561 0.73153 0.0
H2971 H 0.42601 0.79035 0.69881 0.0
H2972 H 0.44831 0.78066 0.71211 0.0
C2973 C 0.43785 0.80748 0.73777 0.0
C2974 C 0.72585 0.92798 0.71988 0.0
C2975 C 0.71423 0.92092 0.72842 0.0
H2976 H 0.74193 0.94641 0.71828 0.0
C2977 C 0.71046 0.92711 0.74265 0.0
H2978 H 0.72896 0.92363 0.70881 0.0
C2979 C 0.71783 0.94018 0.74802 0.0
C2980 C 0.72923 0.9474 0.73936 0.0
H2981 H 0.70182 0.9218 0.74972 0.0
H2982 H 0.71463 0.94458 0.75904 0.0
C2983 C 0.73329 0.94105 0.7253 0.0
C2984 C 0.6025 0.78894 0.32163 0.0
C2985 C 0.60839 0.80357 0.31853 0.0
H2986 H 0.58538 0.77222 0.31663 0.0
C2987 C 0.6011 0.81259 0.3074 0.0
H2988 H 0.60798 0.78155 0.32989 0.0
C2989 C 0.58818 0.80717 0.2997 0.0
C2990 C 0.5822 0.79264 0.303 0.0
H2991 H 0.60518 0.82398 0.30484 0.0
H2992 H 0.58267 0.8145 0.29141 0.0
C2993 C 0.58956 0.78357 0.314 0.0
C2994 C 0.71826 0.09266 0.32231 0.0
C2995 C 0.72128 0.10739 0.31668 0.0
H2996 H 0.7212 0.06873 0.31949 0.0
C2997 C 0.72979 0.10902 0.30322 0.0
H2998 H 0.71152 0.09099 0.3325 0.0
C2999 C 0.73545 0.09623 0.29579 0.0
C3000 C 0.73269 0.0815 0.30161 0.0
H3001 H 0.73245 0.12021 0.29867 0.0
H3002 H 0.74235 0.09793 0.28572 0.0
C3003 C 0.72385 0.07989 0.31486 0.0
C3004 C 0.42521 0.21111 0.29417 0.0
C3005 C 0.41713 0.21694 0.3066 0.0
H3006 H 0.44428 0.21351 0.27932 0.0
C3007 C 0.42274 0.23013 0.31376 0.0
H3008 H 0.42138 0.20087 0.28848 0.0
C3009 C 0.4361 0.23727 0.30864 0.0
C3010 C 0.44418 0.2314 0.29623 0.0
H3011 H 0.41676 0.23505 0.32326 0.0
H3012 H 0.44019 0.24729 0.31456 0.0
C3013 C 0.43851 0.21826 0.28904 0.0
C3014 C 0.30411 0.9292 0.31488 0.0
C3015 C 0.31578 0.92255 0.30635 0.0
H3016 H 0.28776 0.94706 0.31636 0.0
C3017 C 0.31956 0.92909 0.29215 0.0
H3018 H 0.30101 0.92462 0.32594 0.0
C3019 C 0.31202 0.94198 0.2867 0.0
C3020 C 0.30043 0.94868 0.29527 0.0
H3021 H 0.32826 0.92412 0.2851 0.0
H3022 H 0.31515 0.9466 0.27566 0.0
C3023 C 0.29651 0.94208 0.30939 0.0
C3024 C 0.72541 0.11167 0.73728 0.0
C3025 C 0.71304 0.11045 0.7271 0.0
H3026 H 0.7421 0.09995 0.75074 0.0
C3027 C 0.7082 0.0959 0.7225 0.0
H3028 H 0.72949 0.12272 0.74094 0.0
C3029 C 0.71541 0.08287 0.72811 0.0
C3030 C 0.72772 0.08407 0.73836 0.0
H3031 H 0.69862 0.09456 0.71478 0.0
H3032 H 0.71139 0.07182 0.72436 0.0
C3033 C 0.73271 0.09864 0.74278 0.0
C3034 C 0.72464 0.92653 0.31358 0.0
C3035 C 0.71228 0.92038 0.30536 0.0
H3036 H 0.74202 0.94369 0.3147 0.0
C3037 C 0.70802 0.92738 0.29151 0.0
H3038 H 0.72816 0.92156 0.32436 0.0
C3039 C 0.71579 0.94025 0.28611 0.0
C3040 C 0.72812 0.94643 0.29435 0.0
H3041 H 0.69871 0.92285 0.28474 0.0
H3042 H 0.71197 0.94547 0.27556 0.0
C3043 C 0.73247 0.93937 0.30814 0.0
C3044 C 0.59937 0.20879 0.29384 0.0
C3045 C 0.60797 0.21448 0.30615 0.0
H3046 H 0.5801 0.21159 0.27914 0.0
C3047 C 0.60308 0.22785 0.31329 0.0
H3048 H 0.60263 0.19842 0.28818 0.0
C3049 C 0.58993 0.23529 0.30825 0.0
C3050 C 0.58134 0.22956 0.29594 0.0
H3051 H 0.60948 0.23266 0.3227 0.0
H3052 H 0.5864 0.24543 0.31415 0.0
C3053 C 0.58628 0.21624 0.28878 0.0
C3054 C 0.29056 0.10131 0.32489 0.0
C3055 C 0.3016 0.11087 0.31817 0.0
H3056 H 0.27701 0.08106 0.32305 0.0
C3057 C 0.3075 0.10684 0.30388 0.0
H3058 H 0.28599 0.10384 0.33602 0.0
C3059 C 0.3024 0.09367 0.29647 0.0
C3060 C 0.29122 0.08425 0.30314 0.0
H3061 H 0.31588 0.11401 0.29827 0.0
H3062 H 0.30699 0.09103 0.28538 0.0
C3063 C 0.28542 0.08821 0.31746 0.0
C3064 C 0.42626 0.79098 0.3211 0.0
C3065 C 0.41916 0.80437 0.31596 0.0
H3066 H 0.44435 0.7752 0.31818 0.0
C3067 C 0.42557 0.81233 0.30355 0.0
H3068 H 0.4218 0.78464 0.33075 0.0
C3069 C 0.43873 0.80703 0.29649 0.0
C3070 C 0.44581 0.79363 0.30163 0.0
H3071 H 0.42036 0.82259 0.29918 0.0
H3072 H 0.44345 0.81357 0.2871 0.0
C3073 C 0.43936 0.78566 0.31401 0.0
C3074 C 0.30373 0.92088 0.73823 0.0
C3075 C 0.31335 0.92194 0.72552 0.0
H3076 H 0.2888 0.93242 0.75336 0.0
C3077 C 0.31504 0.9361 0.71812 0.0
H3078 H 0.30196 0.91009 0.74403 0.0
C3079 C 0.30757 0.94896 0.72353 0.0
C3080 C 0.29816 0.94797 0.73644 0.0
H3081 H 0.3225 0.93734 0.70839 0.0
H3082 H 0.30951 0.95977 0.71784 0.0
C3083 C 0.2962 0.93371 0.7436 0.0
C3084 C 0.60191 0.81298 0.72936 0.0
C3085 C 0.60732 0.80574 0.71622 0.0
H3086 H 0.58531 0.81315 0.74714 0.0
C3087 C 0.59947 0.7928 0.71089 0.0
H3088 H 0.60755 0.82305 0.73373 0.0
C3089 C 0.58657 0.78727 0.71843 0.0
C3090 C 0.58117 0.79446 0.73159 0.0
H3091 H 0.60339 0.78678 0.70095 0.0
H3092 H 0.58073 0.77742 0.71381 0.0
C3093 C 0.58902 0.8074 0.73695 0.0
C3094 C 0.42385 0.22103 0.73004 0.0
C3095 C 0.41877 0.22784 0.71638 0.0
H3096 H 0.44058 0.22091 0.74793 0.0
C3097 C 0.42726 0.24004 0.71022 0.0
H3098 H 0.4175 0.21177 0.73525 0.0
C3099 C 0.44039 0.24536 0.71756 0.0
C3100 C 0.44545 0.23854 0.7312 0.0
H3101 H 0.42388 0.24539 0.69957 0.0
H3102 H 0.44674 0.25466 0.71242 0.0
C3103 C 0.43706 0.22629 0.73734 0.0
C3104 C 0.73672 0.70899 0.10365 0.0
C3105 C 0.72456 0.71506 0.11193 0.0
H3106 H 0.75147 0.71128 0.08442 0.0
C3107 C 0.71797 0.72868 0.10671 0.0
H3108 H 0.74189 0.69836 0.10711 0.0
C3109 C 0.72342 0.73604 0.09359 0.0
C3110 C 0.73565 0.73001 0.08541 0.0
H3111 H 0.70873 0.73381 0.1129 0.0
H3112 H 0.71823 0.74661 0.08999 0.0
C3113 C 0.74221 0.71638 0.0906 0.0
C3114 C 0.2889 0.70918 0.10493 0.0
C3115 C 0.30259 0.71364 0.11207 0.0
H3116 H 0.27311 0.71292 0.08668 0.0
C3117 C 0.31073 0.72609 0.10595 0.0
H3118 H 0.2822 0.69979 0.10942 0.0
C3119 C 0.30534 0.73385 0.09304 0.0
C3120 C 0.29169 0.72932 0.08587 0.0
H3121 H 0.32139 0.72977 0.11102 0.0
H3122 H 0.31182 0.74349 0.08878 0.0
C3123 C 0.28356 0.71687 0.09199 0.0
C3124 C 0.2962 0.30365 0.11045 0.0
C3125 C 0.30736 0.31509 0.10874 0.0
H3126 H 0.28183 0.28722 0.09943 0.0
C3127 C 0.31289 0.31836 0.09404 0.0
H3128 H 0.29161 0.30094 0.12159 0.0
C3129 C 0.30727 0.31051 0.08134 0.0
C3130 C 0.29589 0.2993 0.08302 0.0
H3131 H 0.32158 0.32702 0.09236 0.0
H3132 H 0.3116 0.31349 0.07016 0.0
C3133 C 0.29049 0.29589 0.09773 0.0
C3134 C 0.73624 0.32223 0.10381 0.0
C3135 C 0.72395 0.31618 0.11217 0.0
H3136 H 0.75091 0.31997 0.08458 0.0
C3137 C 0.71693 0.3027 0.10699 0.0
H3138 H 0.74173 0.33275 0.10721 0.0
C3139 C 0.72215 0.29542 0.09389 0.0
C3140 C 0.73457 0.30139 0.0857 0.0
H3141 H 0.70756 0.2976 0.11322 0.0
H3142 H 0.71666 0.28494 0.09035 0.0
C3143 C 0.7415 0.31491 0.09079 0.0
C3144 C 0.73661 0.32435 0.93251 0.0
C3145 C 0.72509 0.31783 0.9234 0.0
H3146 H 0.75076 0.32222 0.95234 0.0
C3147 C 0.71897 0.30361 0.92775 0.0
H3148 H 0.74138 0.33542 0.9297 0.0
C3149 C 0.7243 0.29609 0.94083 0.0
C3150 C 0.73592 0.30258 0.94982 0.0
H3151 H 0.71025 0.29814 0.92091 0.0
H3152 H 0.71951 0.28507 0.94376 0.0
C3153 C 0.74199 0.3168 0.94552 0.0
C3154 C 0.70821 0.7382 0.92963 0.0
C3155 C 0.71265 0.72444 0.92296 0.0
H3156 H 0.7121 0.75449 0.94728 0.0
C3157 C 0.72502 0.71657 0.92939 0.0
H3158 H 0.69897 0.74476 0.92482 0.0
C3159 C 0.73264 0.72224 0.94226 0.0
C3160 C 0.72802 0.73588 0.94903 0.0
H3161 H 0.72865 0.70586 0.92469 0.0
H3162 H 0.74194 0.71577 0.9471 0.0
C3163 C 0.71577 0.74382 0.94251 0.0
C3164 C 0.31919 0.74061 0.93055 0.0
C3165 C 0.31413 0.72718 0.92345 0.0
H3166 H 0.31607 0.7565 0.94862 0.0
C3167 C 0.3014 0.71949 0.92952 0.0
H3168 H 0.32873 0.74704 0.92603 0.0
C3169 C 0.29405 0.72501 0.94247 0.0
C3170 C 0.2993 0.73831 0.94968 0.0
H3171 H 0.29728 0.70902 0.92448 0.0
H3172 H 0.28447 0.71867 0.94703 0.0
C3173 C 0.31191 0.74608 0.94351 0.0
C3174 C 0.29122 0.32151 0.92964 0.0
C3175 C 0.30304 0.31529 0.92099 0.0
H3176 H 0.27678 0.31922 0.9491 0.0
C3177 C 0.30934 0.30138 0.92579 0.0
H3178 H 0.28629 0.33234 0.9265 0.0
C3179 C 0.30391 0.29388 0.93885 0.0
C3180 C 0.29201 0.30006 0.9474 0.0
H3181 H 0.31832 0.29614 0.91933 0.0
H3182 H 0.30887 0.28309 0.94211 0.0
C3183 C 0.28576 0.31398 0.94263 0.0
C3184 C 0.60088 0.74079 0.21079 0.0
C3185 C 0.60794 0.72737 0.21589 0.0
H3186 H 0.58296 0.75673 0.21388 0.0
C3187 C 0.60161 0.7195 0.2284 0.0
H3188 H 0.60527 0.74707 0.20107 0.0
C3189 C 0.58858 0.72492 0.2356 0.0
C3190 C 0.58155 0.73837 0.23051 0.0
H3191 H 0.6068 0.70921 0.23276 0.0
H3192 H 0.58392 0.71844 0.24506 0.0
C3193 C 0.58791 0.74624 0.21802 0.0
C3194 C 0.30529 0.61121 0.24278 0.0
C3195 C 0.31388 0.61101 0.22932 0.0
H3196 H 0.29113 0.59867 0.25826 0.0
C3197 C 0.31476 0.59739 0.2211 0.0
H3198 H 0.30421 0.62158 0.24925 0.0
C3199 C 0.30737 0.58421 0.22632 0.0
C3200 C 0.29884 0.58435 0.23985 0.0
H3201 H 0.32146 0.59682 0.21079 0.0
H3202 H 0.30863 0.57383 0.21991 0.0
C3203 C 0.29782 0.59805 0.24795 0.0
C3204 C 0.42493 0.3134 0.23094 0.0
C3205 C 0.42013 0.30704 0.21702 0.0
H3206 H 0.44109 0.31286 0.24937 0.0
C3207 C 0.42872 0.29519 0.2108 0.0
H3208 H 0.41852 0.32243 0.23615 0.0
C3209 C 0.44159 0.28969 0.21839 0.0
C3210 C 0.44628 0.2959 0.23239 0.0
H3211 H 0.42559 0.29024 0.19994 0.0
H3212 H 0.44797 0.28065 0.21317 0.0
C3213 C 0.43786 0.30791 0.23853 0.0
C3214 C 0.72452 0.42796 0.2201 0.0
C3215 C 0.71306 0.42072 0.22872 0.0
H3216 H 0.74056 0.44642 0.2186 0.0
C3217 C 0.70952 0.42662 0.24313 0.0
H3218 H 0.72744 0.42384 0.2089 0.0
C3219 C 0.71699 0.43958 0.24864 0.0
C3220 C 0.72826 0.44696 0.23994 0.0
H3221 H 0.70102 0.42116 0.25024 0.0
H3222 H 0.71399 0.44376 0.2598 0.0
C3223 C 0.73204 0.44092 0.22566 0.0
C3224 C 0.60119 0.2906 0.82362 0.0
C3225 C 0.60803 0.30453 0.81941 0.0
H3226 H 0.58323 0.27453 0.81964 0.0
C3227 C 0.60173 0.31281 0.80716 0.0
H3228 H 0.60583 0.2838 0.83285 0.0
C3229 C 0.5889 0.30733 0.79936 0.0
C3230 C 0.582 0.29345 0.80365 0.0
H3231 H 0.60658 0.32364 0.80368 0.0
H3232 H 0.58445 0.31394 0.78989 0.0
C3233 C 0.58833 0.28516 0.81588 0.0
C3234 C 0.71908 0.59327 0.82346 0.0
C3235 C 0.72187 0.60798 0.81765 0.0
H3236 H 0.7222 0.56935 0.8208 0.0
C3237 C 0.73022 0.60957 0.8041 0.0
H3238 H 0.71246 0.59163 0.83373 0.0
C3239 C 0.73592 0.59678 0.79671 0.0
C3240 C 0.73335 0.58207 0.80267 0.0
H3241 H 0.73272 0.62075 0.79941 0.0
H3242 H 0.74268 0.59846 0.78654 0.0
C3243 C 0.72471 0.58049 0.81605 0.0
C3244 C 0.42489 0.71109 0.79289 0.0
C3245 C 0.41825 0.71553 0.80671 0.0
H3246 H 0.44266 0.71479 0.77667 0.0
C3247 C 0.42482 0.72779 0.8147 0.0
H3248 H 0.41997 0.70194 0.78623 0.0
C3249 C 0.43782 0.73525 0.80912 0.0
C3250 C 0.44459 0.73058 0.79546 0.0
H3251 H 0.42013 0.73142 0.82545 0.0
H3252 H 0.44278 0.74444 0.81569 0.0
C3253 C 0.4379 0.71848 0.78737 0.0
C3254 C 0.30419 0.42876 0.81459 0.0
C3255 C 0.31586 0.42222 0.80598 0.0
H3256 H 0.28779 0.44655 0.81626 0.0
C3257 C 0.31954 0.42883 0.79179 0.0
H3258 H 0.30117 0.42411 0.82566 0.0
C3259 C 0.31192 0.44173 0.78645 0.0
C3260 C 0.30036 0.44834 0.79512 0.0
H3261 H 0.32823 0.42395 0.78468 0.0
H3262 H 0.31498 0.44644 0.77542 0.0
C3263 C 0.29652 0.44164 0.80922 0.0
C3264 C 0.72255 0.60278 0.21988 0.0
C3265 C 0.71041 0.60915 0.22796 0.0
H3266 H 0.73925 0.5852 0.21894 0.0
C3267 C 0.7061 0.60239 0.2419 0.0
H3268 H 0.72606 0.60753 0.20901 0.0
C3269 C 0.7136 0.58955 0.24753 0.0
C3270 C 0.72568 0.58315 0.23942 0.0
H3271 H 0.69703 0.60714 0.24862 0.0
H3272 H 0.71007 0.58474 0.25837 0.0
C3273 C 0.73011 0.58996 0.22556 0.0
C3274 C 0.72321 0.41941 0.79306 0.0
C3275 C 0.71416 0.41987 0.80621 0.0
H3276 H 0.73781 0.43166 0.77779 0.0
C3277 C 0.71294 0.43367 0.81407 0.0
H3278 H 0.72454 0.40889 0.78688 0.0
C3279 C 0.72043 0.44677 0.80879 0.0
C3280 C 0.7294 0.44637 0.79557 0.0
H3281 H 0.7059 0.43443 0.82413 0.0
H3282 H 0.71888 0.45729 0.8149 0.0
C3283 C 0.73078 0.43248 0.78784 0.0
C3284 C 0.60306 0.72798 0.81305 0.0
C3285 C 0.60813 0.71469 0.8059 0.0
H3286 H 0.58622 0.74541 0.81384 0.0
C3287 C 0.59968 0.70898 0.79349 0.0
H3288 H 0.60934 0.73281 0.82254 0.0
C3289 C 0.58657 0.71634 0.78835 0.0
C3290 C 0.58145 0.72958 0.79553 0.0
H3291 H 0.60308 0.69867 0.78781 0.0
H3292 H 0.58052 0.71167 0.77864 0.0
C3293 C 0.58988 0.73533 0.80793 0.0
C3294 C 0.30785 0.60648 0.80384 0.0
C3295 C 0.30184 0.61063 0.81804 0.0
H3296 H 0.30735 0.59061 0.78538 0.0
C3297 C 0.29062 0.60121 0.82467 0.0
H3298 H 0.31637 0.61353 0.7983 0.0
C3299 C 0.28541 0.58815 0.81723 0.0
C3300 C 0.29131 0.58407 0.80298 0.0
H3301 H 0.28595 0.60383 0.83573 0.0
H3302 H 0.27686 0.58111 0.82275 0.0
C3303 C 0.30267 0.59334 0.79641 0.0
C3304 C 0.42749 0.29221 0.82239 0.0
C3305 C 0.42098 0.30614 0.818 0.0
H3306 H 0.44502 0.27596 0.81872 0.0
C3307 C 0.42749 0.31428 0.80575 0.0
H3308 H 0.42269 0.2855 0.83161 0.0
C3309 C 0.4402 0.30865 0.79815 0.0
C3310 C 0.44674 0.29474 0.8026 0.0
H3311 H 0.42288 0.32511 0.80213 0.0
H3312 H 0.44481 0.31516 0.78869 0.0
C3313 C 0.44021 0.28661 0.81483 0.0
C3314 C 0.31677 0.43813 0.21778 0.0
C3315 C 0.31338 0.42336 0.22312 0.0
H3316 H 0.31218 0.46196 0.21937 0.0
C3317 C 0.30206 0.42149 0.23427 0.0
H3318 H 0.32534 0.43995 0.20912 0.0
C3319 C 0.29452 0.43409 0.24013 0.0
C3320 C 0.29802 0.44887 0.2349 0.0
H3321 H 0.29927 0.41029 0.23872 0.0
H3322 H 0.28592 0.43226 0.24875 0.0
C3323 C 0.30914 0.45072 0.22355 0.0
C3324 C 0.59834 0.29336 0.2107 0.0
C3325 C 0.60767 0.30472 0.21718 0.0
H3326 H 0.57836 0.27945 0.21284 0.0
C3327 C 0.60349 0.31083 0.23133 0.0
H3328 H 0.60099 0.28862 0.19968 0.0
C3329 C 0.59041 0.30561 0.23885 0.0
C3330 C 0.58123 0.29411 0.23243 0.0
H3331 H 0.61049 0.31945 0.23676 0.0
H3332 H 0.58766 0.31036 0.24984 0.0
C3333 C 0.58533 0.28811 0.21824 0.0
C3334 C 0.42614 0.71912 0.22673 0.0
C3335 C 0.4187 0.72805 0.21564 0.0
H3336 H 0.44486 0.71731 0.2424 0.0
C3337 C 0.4246 0.74261 0.21224 0.0
H3338 H 0.42205 0.70779 0.2295 0.0
C3339 C 0.43772 0.748 0.21956 0.0
C3340 C 0.44523 0.73903 0.23054 0.0
H3341 H 0.41901 0.74993 0.204 0.0
H3342 H 0.4419 0.7593 0.21673 0.0
C3343 C 0.43924 0.72457 0.23412 0.0
loop_
_geom_bond_atom_site_label_1
_geom_bond_atom_site_label_2
_geom_bond_distance
_geom_bond_site_symmetry_2
_ccdc_geom_bond_type
C0 C1 1.264 . S
C0 C5 1.479 . S
C0 C10 1.465 . S
C1 C0 1.264 . S
C1 C3 1.339 . S
C1 H28 0.931 . S
C2 C3 1.395 . S
C2 C4 1.320 . S
C3 C1 1.339 . S
C3 C2 1.395 . S
C3 H29 0.929 . S
C4 C2 1.320 . S
C4 C5 1.405 . S
C4 H30 0.930 . S
C5 C0 1.479 . S
C5 C4 1.405 . S
C5 H31 0.931 . S
U6 O7 2.454 . S
U6 O8 2.458 . S
U6 C9 2.984 . S
U6 C10 2.847 . S
U6 C23 2.882 . S
U6 O24 2.441 . S
U6 O25 2.420 . S
U6 O26 2.455 . S
U6 O27 2.449 . S
O7 U6 2.454 . S
O7 C9 1.353 . S
O8 U6 2.458 . S
O8 C9 1.286 . S
C9 U6 2.984 . S
C9 O7 1.353 . S
C9 O8 1.286 . S
C9 C11 1.363 . S
C10 C0 1.465 . S
C10 U6 2.847 . S
C10 O24 1.249 . S
C10 O25 1.202 . S
C11 C9 1.363 . S
C11 C13 1.408 . S
C11 C16 1.342 . S
C12 C13 1.310 . S
C12 C15 1.461 . S
C12 H32 0.932 . S
C13 C11 1.408 . S
C13 C12 1.310 . S
C13 H33 0.930 . S
C14 C15 1.474 . S
C14 C16 1.285 . S
C14 H34 0.929 . S
C15 C12 1.461 . S
C15 C14 1.474 . S
C16 C11 1.342 . S
C16 C14 1.285 . S
C16 H35 0.930 . S
C17 C20 1.424 . S
C17 C22 1.245 . S
C17 C23 1.428 . S
C18 C21 1.260 . S
C18 C22 1.477 . S
C18 H36 0.932 . S
C19 C20 1.384 . S
C19 C21 1.479 . S
C19 H37 0.929 . S
C20 C17 1.424 . S
C20 C19 1.384 . S
C20 H38 0.928 . S
C21 C18 1.260 . S
C21 C19 1.479 . S
C22 C17 1.245 . S
C22 C18 1.477 . S
C22 H39 0.932 . S
C23 U6 2.882 . S
C23 C17 1.428 . S
C23 O26 1.301 . S
C23 O27 1.282 . S
O24 U6 2.441 . S
O24 C10 1.249 . S
O25 U6 2.420 . S
O25 C10 1.202 . S
O26 U6 2.455 . S
O26 C23 1.301 . S
O27 U6 2.449 . S
O27 C23 1.282 . S
H28 C1 0.931 . S
H29 C3 0.929 . S
H30 C4 0.930 . S
H31 C5 0.931 . S
H32 C12 0.932 . S
H33 C13 0.930 . S
H34 C14 0.929 . S
H35 C16 0.930 . S
H36 C18 0.932 . S
H37 C19 0.929 . S
H38 C20 0.928 . S
H39 C22 0.932 . S
C40 C41 1.264 . S
C40 C45 1.479 . S
C40 C50 1.465 . S
C41 C40 1.264 . S
C41 C43 1.339 . S
C41 H68 0.931 . S
C42 C43 1.395 . S
C42 C44 1.320 . S
C43 C41 1.339 . S
C43 C42 1.395 . S
C43 H69 0.929 . S
C44 C42 1.320 . S
C44 C45 1.405 . S
C44 H70 0.930 . S
C45 C40 1.479 . S
C45 C44 1.405 . S
C45 H71 0.931 . S
U46 O47 2.454 . S
U46 O48 2.458 . S
U46 C49 2.984 . S
U46 C50 2.847 . S
U46 C63 2.882 . S
U46 O64 2.441 . S
U46 O65 2.420 . S
U46 O66 2.455 . S
U46 O67 2.449 . S
O47 U46 2.454 . S
O47 C49 1.353 . S
O48 U46 2.458 . S
O48 C49 1.286 . S
C49 U46 2.984 . S
C49 O47 1.353 . S
C49 O48 1.286 . S
C49 C51 1.363 . S
C50 C40 1.465 . S
C50 U46 2.847 . S
C50 O64 1.249 . S
C50 O65 1.202 . S
C51 C49 1.363 . S
C51 C53 1.408 . S
C51 C56 1.342 . S
C52 C53 1.310 . S
C52 C55 1.461 . S
C52 H72 0.932 . S
C53 C51 1.408 . S
C53 C52 1.310 . S
C53 H73 0.930 . S
C54 C55 1.474 . S
C54 C56 1.285 . S
C54 H74 0.929 . S
C55 C52 1.461 . S
C55 C54 1.474 . S
C56 C51 1.342 . S
C56 C54 1.285 . S
C56 H75 0.930 . S
C57 C60 1.424 . S
C57 C62 1.245 . S
C57 C63 1.428 . S
C58 C61 1.260 . S
C58 C62 1.477 . S
C58 H76 0.932 . S
C59 C60 1.384 . S
C59 C61 1.479 . S
C59 H77 0.929 . S
C60 C57 1.424 . S
C60 C59 1.384 . S
C60 H78 0.928 . S
C61 C58 1.260 . S
C61 C59 1.479 . S
C62 C57 1.245 . S
C62 C58 1.477 . S
C62 H79 0.932 . S
C63 U46 2.882 . S
C63 C57 1.428 . S
C63 O66 1.301 . S
C63 O67 1.282 . S
O64 U46 2.441 . S
O64 C50 1.249 . S
O65 U46 2.420 . S
O65 C50 1.202 . S
O66 U46 2.455 . S
O66 C63 1.301 . S
O67 U46 2.449 . S
O67 C63 1.282 . S
H68 C41 0.931 . S
H69 C43 0.929 . S
H70 C44 0.930 . S
H71 C45 0.931 . S
H72 C52 0.932 . S
H73 C53 0.930 . S
H74 C54 0.929 . S
H75 C56 0.930 . S
H76 C58 0.932 . S
H77 C59 0.929 . S
H78 C60 0.928 . S
H79 C62 0.932 . S
C80 C81 1.264 . S
C80 C85 1.479 . S
C80 C90 1.465 . S
C81 C80 1.264 . S
C81 C83 1.339 . S
C81 H108 0.931 . S
C82 C83 1.395 . S
C82 C84 1.320 . S
C83 C81 1.339 . S
C83 C82 1.395 . S
C83 H109 0.929 . S
C84 C82 1.320 . S
C84 C85 1.405 . S
C84 H110 0.930 . S
C85 C80 1.479 . S
C85 C84 1.405 . S
C85 H111 0.931 . S
U86 O87 2.454 . S
U86 O88 2.458 . S
U86 C89 2.984 . S
U86 C90 2.847 . S
U86 C103 2.882 . S
U86 O104 2.441 . S
U86 O105 2.420 . S
U86 O106 2.455 . S
U86 O107 2.449 . S
O87 U86 2.454 . S
O87 C89 1.353 . S
O88 U86 2.458 . S
O88 C89 1.286 . S
C89 U86 2.984 . S
C89 O87 1.353 . S
C89 O88 1.286 . S
C89 C91 1.363 . S
C90 C80 1.465 . S
C90 U86 2.847 . S
C90 O104 1.249 . S
C90 O105 1.202 . S
C91 C89 1.363 . S
C91 C93 1.408 . S
C91 C96 1.342 . S
C92 C93 1.310 . S
C92 C95 1.461 . S
C92 H112 0.932 . S
C93 C91 1.408 . S
C93 C92 1.310 . S
C93 H113 0.930 . S
C94 C95 1.474 . S
C94 C96 1.285 . S
C94 H114 0.929 . S
C95 C92 1.461 . S
C95 C94 1.474 . S
C96 C91 1.342 . S
C96 C94 1.285 . S
C96 H115 0.930 . S
C97 C100 1.424 . S
C97 C102 1.245 . S
C97 C103 1.428 . S
C98 C101 1.260 . S
C98 C102 1.477 . S
C98 H116 0.932 . S
C99 C100 1.384 . S
C99 C101 1.479 . S
C99 H117 0.929 . S
C100 C97 1.424 . S
C100 C99 1.384 . S
C100 H118 0.928 . S
C101 C98 1.260 . S
C101 C99 1.479 . S
C102 C97 1.245 . S
C102 C98 1.477 . S
C102 H119 0.932 . S
C103 U86 2.882 . S
C103 C97 1.428 . S
C103 O106 1.301 . S
C103 O107 1.282 . S
O104 U86 2.441 . S
O104 C90 1.249 . S
O105 U86 2.420 . S
O105 C90 1.202 . S
O106 U86 2.455 . S
O106 C103 1.301 . S
O107 U86 2.449 . S
O107 C103 1.282 . S
H108 C81 0.931 . S
H109 C83 0.929 . S
H110 C84 0.930 . S
H111 C85 0.931 . S
H112 C92 0.932 . S
H113 C93 0.930 . S
H114 C94 0.929 . S
H115 C96 0.930 . S
H116 C98 0.932 . S
H117 C99 0.929 . S
H118 C100 0.928 . S
H119 C102 0.932 . S
C120 C121 1.264 . S
C120 C125 1.479 . S
C120 C130 1.465 . S
C121 C120 1.264 . S
C121 C123 1.339 . S
C121 H148 0.931 . S
C122 C123 1.395 . S
C122 C124 1.320 . S
C123 C121 1.339 . S
C123 C122 1.395 . S
C123 H149 0.929 . S
C124 C122 1.320 . S
C124 C125 1.405 . S
C124 H150 0.930 . S
C125 C120 1.479 . S
C125 C124 1.405 . S
C125 H151 0.931 . S
U126 O127 2.454 . S
U126 O128 2.458 . S
U126 C129 2.984 . S
U126 C130 2.847 . S
U126 C143 2.882 . S
U126 O144 2.441 . S
U126 O145 2.420 . S
U126 O146 2.455 . S
U126 O147 2.449 . S
O127 U126 2.454 . S
O127 C129 1.353 . S
O128 U126 2.458 . S
O128 C129 1.286 . S
C129 U126 2.984 . S
C129 O127 1.353 . S
C129 O128 1.286 . S
C129 C131 1.363 . S
C130 C120 1.465 . S
C130 U126 2.847 . S
C130 O144 1.249 . S
C130 O145 1.202 . S
C131 C129 1.363 . S
C131 C133 1.408 . S
C131 C136 1.342 . S
C132 C133 1.310 . S
C132 C135 1.461 . S
C132 H152 0.932 . S
C133 C131 1.408 . S
C133 C132 1.310 . S
C133 H153 0.930 . S
C134 C135 1.474 . S
C134 C136 1.285 . S
C134 H154 0.929 . S
C135 C132 1.461 . S
C135 C134 1.474 . S
C136 C131 1.342 . S
C136 C134 1.285 . S
C136 H155 0.930 . S
C137 C140 1.424 . S
C137 C142 1.245 . S
C137 C143 1.428 . S
C138 C141 1.260 . S
C138 C142 1.477 . S
C138 H156 0.932 . S
C139 C140 1.384 . S
C139 C141 1.479 . S
C139 H157 0.929 . S
C140 C137 1.424 . S
C140 C139 1.384 . S
C140 H158 0.928 . S
C141 C138 1.260 . S
C141 C139 1.479 . S
C142 C137 1.245 . S
C142 C138 1.477 . S
C142 H159 0.932 . S
C143 U126 2.882 . S
C143 C137 1.428 . S
C143 O146 1.301 . S
C143 O147 1.282 . S
O144 U126 2.441 . S
O144 C130 1.249 . S
O145 U126 2.420 . S
O145 C130 1.202 . S
O146 U126 2.455 . S
O146 C143 1.301 . S
O147 U126 2.449 . S
O147 C143 1.282 . S
H148 C121 0.931 . S
H149 C123 0.929 . S
H150 C124 0.930 . S
H151 C125 0.931 . S
H152 C132 0.932 . S
H153 C133 0.930 . S
H154 C134 0.929 . S
H155 C136 0.930 . S
H156 C138 0.932 . S
H157 C139 0.929 . S
H158 C140 0.928 . S
H159 C142 0.932 . S
C160 C161 1.264 . S
C160 C165 1.479 . S
C160 C170 1.465 . S
C161 C160 1.264 . S
C161 C163 1.339 . S
C161 H188 0.931 . S
C162 C163 1.395 . S
C162 C164 1.320 . S
C163 C161 1.339 . S
C163 C162 1.395 . S
C163 H189 0.929 . S
C164 C162 1.320 . S
C164 C165 1.405 . S
C164 H190 0.930 . S
C165 C160 1.479 . S
C165 C164 1.405 . S
C165 H191 0.931 . S
U166 O167 2.454 . S
U166 O168 2.458 . S
U166 C169 2.984 . S
U166 C170 2.847 . S
U166 C183 2.882 . S
U166 O184 2.441 . S
U166 O185 2.420 . S
U166 O186 2.455 . S
U166 O187 2.449 . S
O167 U166 2.454 . S
O167 C169 1.353 . S
O168 U166 2.458 . S
O168 C169 1.286 . S
C169 U166 2.984 . S
C169 O167 1.353 . S
C169 O168 1.286 . S
C169 C171 1.363 . S
C170 C160 1.465 . S
C170 U166 2.847 . S
C170 O184 1.249 . S
C170 O185 1.202 . S
C171 C169 1.363 . S
C171 C173 1.408 . S
C171 C176 1.342 . S
C172 C173 1.310 . S
C172 C175 1.461 . S
C172 H192 0.932 . S
C173 C171 1.408 . S
C173 C172 1.310 . S
C173 H193 0.930 . S
C174 C175 1.474 . S
C174 C176 1.285 . S
C174 H194 0.929 . S
C175 C172 1.461 . S
C175 C174 1.474 . S
C176 C171 1.342 . S
C176 C174 1.285 . S
C176 H195 0.930 . S
C177 C180 1.424 . S
C177 C182 1.245 . S
C177 C183 1.428 . S
C178 C181 1.260 . S
C178 C182 1.477 . S
C178 H196 0.932 . S
C179 C180 1.384 . S
C179 C181 1.479 . S
C179 H197 0.929 . S
C180 C177 1.424 . S
C180 C179 1.384 . S
C180 H198 0.928 . S
C181 C178 1.260 . S
C181 C179 1.479 . S
C182 C177 1.245 . S
C182 C178 1.477 . S
C182 H199 0.932 . S
C183 U166 2.882 . S
C183 C177 1.428 . S
C183 O186 1.301 . S
C183 O187 1.282 . S
O184 U166 2.441 . S
O184 C170 1.249 . S
O185 U166 2.420 . S
O185 C170 1.202 . S
O186 U166 2.455 . S
O186 C183 1.301 . S
O187 U166 2.449 . S
O187 C183 1.282 . S
H188 C161 0.931 . S
H189 C163 0.929 . S
H190 C164 0.930 . S
H191 C165 0.931 . S
H192 C172 0.932 . S
H193 C173 0.930 . S
H194 C174 0.929 . S
H195 C176 0.930 . S
H196 C178 0.932 . S
H197 C179 0.929 . S
H198 C180 0.928 . S
H199 C182 0.932 . S
C200 C201 1.264 . S
C200 C205 1.479 . S
C200 C210 1.465 . S
C201 C200 1.264 . S
C201 C203 1.339 . S
C201 H228 0.931 . S
C202 C203 1.395 . S
C202 C204 1.320 . S
C203 C201 1.339 . S
C203 C202 1.395 . S
C203 H229 0.929 . S
C204 C202 1.320 . S
C204 C205 1.405 . S
C204 H230 0.930 . S
C205 C200 1.479 . S
C205 C204 1.405 . S
C205 H231 0.931 . S
U206 O207 2.454 . S
U206 O208 2.458 . S
U206 C209 2.984 . S
U206 C210 2.847 . S
U206 C223 2.882 . S
U206 O224 2.441 . S
U206 O225 2.420 . S
U206 O226 2.455 . S
U206 O227 2.449 . S
O207 U206 2.454 . S
O207 C209 1.353 . S
O208 U206 2.458 . S
O208 C209 1.286 . S
C209 U206 2.984 . S
C209 O207 1.353 . S
C209 O208 1.286 . S
C209 C211 1.363 . S
C210 C200 1.465 . S
C210 U206 2.847 . S
C210 O224 1.249 . S
C210 O225 1.202 . S
C211 C209 1.363 . S
C211 C213 1.408 . S
C211 C216 1.342 . S
C212 C213 1.310 . S
C212 C215 1.461 . S
C212 H232 0.932 . S
C213 C211 1.408 . S
C213 C212 1.310 . S
C213 H233 0.930 . S
C214 C215 1.474 . S
C214 C216 1.285 . S
C214 H234 0.929 . S
C215 C212 1.461 . S
C215 C214 1.474 . S
C216 C211 1.342 . S
C216 C214 1.285 . S
C216 H235 0.930 . S
C217 C220 1.424 . S
C217 C222 1.245 . S
C217 C223 1.428 . S
C218 C221 1.260 . S
C218 C222 1.477 . S
C218 H236 0.932 . S
C219 C220 1.384 . S
C219 C221 1.479 . S
C219 H237 0.929 . S
C220 C217 1.424 . S
C220 C219 1.384 . S
C220 H238 0.928 . S
C221 C218 1.260 . S
C221 C219 1.479 . S
C222 C217 1.245 . S
C222 C218 1.477 . S
C222 H239 0.932 . S
C223 U206 2.882 . S
C223 C217 1.428 . S
C223 O226 1.301 . S
C223 O227 1.282 . S
O224 U206 2.441 . S
O224 C210 1.249 . S
O225 U206 2.420 . S
O225 C210 1.202 . S
O226 U206 2.455 . S
O226 C223 1.301 . S
O227 U206 2.449 . S
O227 C223 1.282 . S
H228 C201 0.931 . S
H229 C203 0.929 . S
H230 C204 0.930 . S
H231 C205 0.931 . S
H232 C212 0.932 . S
H233 C213 0.930 . S
H234 C214 0.929 . S
H235 C216 0.930 . S
H236 C218 0.932 . S
H237 C219 0.929 . S
H238 C220 0.928 . S
H239 C222 0.932 . S
C240 C241 1.264 . S
C240 C245 1.479 . S
C240 C250 1.465 . S
C241 C240 1.264 . S
C241 C243 1.339 . S
C241 H268 0.931 . S
C242 C243 1.395 . S
C242 C244 1.320 . S
C243 C241 1.339 . S
C243 C242 1.395 . S
C243 H269 0.929 . S
C244 C242 1.320 . S
C244 C245 1.405 . S
C244 H270 0.930 . S
C245 C240 1.479 . S
C245 C244 1.405 . S
C245 H271 0.931 . S
U246 O247 2.454 . S
U246 O248 2.458 . S
U246 C249 2.984 . S
U246 C250 2.847 . S
U246 C263 2.882 . S
U246 O264 2.441 . S
U246 O265 2.420 . S
U246 O266 2.455 . S
U246 O267 2.449 . S
O247 U246 2.454 . S
O247 C249 1.353 . S
O248 U246 2.458 . S
O248 C249 1.286 . S
C249 U246 2.984 . S
C249 O247 1.353 . S
C249 O248 1.286 . S
C249 C251 1.363 . S
C250 C240 1.465 . S
C250 U246 2.847 . S
C250 O264 1.249 . S
C250 O265 1.202 . S
C251 C249 1.363 . S
C251 C253 1.408 . S
C251 C256 1.342 . S
C252 C253 1.310 . S
C252 C255 1.461 . S
C252 H272 0.932 . S
C253 C251 1.408 . S
C253 C252 1.310 . S
C253 H273 0.930 . S
C254 C255 1.474 . S
C254 C256 1.285 . S
C254 H274 0.929 . S
C255 C252 1.461 . S
C255 C254 1.474 . S
C256 C251 1.342 . S
C256 C254 1.285 . S
C256 H275 0.930 . S
C257 C260 1.424 . S
C257 C262 1.245 . S
C257 C263 1.428 . S
C258 C261 1.260 . S
C258 C262 1.477 . S
C258 H276 0.932 . S
C259 C260 1.384 . S
C259 C261 1.479 . S
C259 H277 0.929 . S
C260 C257 1.424 . S
C260 C259 1.384 . S
C260 H278 0.928 . S
C261 C258 1.260 . S
C261 C259 1.479 . S
C262 C257 1.245 . S
C262 C258 1.477 . S
C262 H279 0.932 . S
C263 U246 2.882 . S
C263 C257 1.428 . S
C263 O266 1.301 . S
C263 O267 1.282 . S
O264 U246 2.441 . S
O264 C250 1.249 . S
O265 U246 2.420 . S
O265 C250 1.202 . S
O266 U246 2.455 . S
O266 C263 1.301 . S
O267 U246 2.449 . S
O267 C263 1.282 . S
H268 C241 0.931 . S
H269 C243 0.929 . S
H270 C244 0.930 . S
H271 C245 0.931 . S
H272 C252 0.932 . S
H273 C253 0.930 . S
H274 C254 0.929 . S
H275 C256 0.930 . S
H276 C258 0.932 . S
H277 C259 0.929 . S
H278 C260 0.928 . S
H279 C262 0.932 . S
C280 C281 1.264 . S
C280 C285 1.479 . S
C280 C290 1.465 . S
C281 C280 1.264 . S
C281 C283 1.339 . S
C281 H308 0.931 . S
C282 C283 1.395 . S
C282 C284 1.320 . S
C283 C281 1.339 . S
C283 C282 1.395 . S
C283 H309 0.929 . S
C284 C282 1.320 . S
C284 C285 1.405 . S
C284 H310 0.930 . S
C285 C280 1.479 . S
C285 C284 1.405 . S
C285 H311 0.931 . S
U286 O287 2.454 . S
U286 O288 2.458 . S
U286 C289 2.984 . S
U286 C290 2.847 . S
U286 C303 2.882 . S
U286 O304 2.441 . S
U286 O305 2.420 . S
U286 O306 2.455 . S
U286 O307 2.449 . S
O287 U286 2.454 . S
O287 C289 1.353 . S
O288 U286 2.458 . S
O288 C289 1.286 . S
C289 U286 2.984 . S
C289 O287 1.353 . S
C289 O288 1.286 . S
C289 C291 1.363 . S
C290 C280 1.465 . S
C290 U286 2.847 . S
C290 O304 1.249 . S
C290 O305 1.202 . S
C291 C289 1.363 . S
C291 C293 1.408 . S
C291 C296 1.342 . S
C292 C293 1.310 . S
C292 C295 1.461 . S
C292 H312 0.932 . S
C293 C291 1.408 . S
C293 C292 1.310 . S
C293 H313 0.930 . S
C294 C295 1.474 . S
C294 C296 1.285 . S
C294 H314 0.929 . S
C295 C292 1.461 . S
C295 C294 1.474 . S
C296 C291 1.342 . S
C296 C294 1.285 . S
C296 H315 0.930 . S
C297 C300 1.424 . S
C297 C302 1.245 . S
C297 C303 1.428 . S
C298 C301 1.260 . S
C298 C302 1.477 . S
C298 H316 0.932 . S
C299 C300 1.384 . S
C299 C301 1.479 . S
C299 H317 0.929 . S
C300 C297 1.424 . S
C300 C299 1.384 . S
C300 H318 0.928 . S
C301 C298 1.260 . S
C301 C299 1.479 . S
C302 C297 1.245 . S
C302 C298 1.477 . S
C302 H319 0.932 . S
C303 U286 2.882 . S
C303 C297 1.428 . S
C303 O306 1.301 . S
C303 O307 1.282 . S
O304 U286 2.441 . S
O304 C290 1.249 . S
O305 U286 2.420 . S
O305 C290 1.202 . S
O306 U286 2.455 . S
O306 C303 1.301 . S
O307 U286 2.449 . S
O307 C303 1.282 . S
H308 C281 0.931 . S
H309 C283 0.929 . S
H310 C284 0.930 . S
H311 C285 0.931 . S
H312 C292 0.932 . S
H313 C293 0.930 . S
H314 C294 0.929 . S
H315 C296 0.930 . S
H316 C298 0.932 . S
H317 C299 0.929 . S
H318 C300 0.928 . S
H319 C302 0.932 . S
C320 C321 1.264 . S
C320 C325 1.479 . S
C320 C330 1.465 . S
C321 C320 1.264 . S
C321 C323 1.339 . S
C321 H348 0.931 . S
C322 C323 1.395 . S
C322 C324 1.320 . S
C323 C321 1.339 . S
C323 C322 1.395 . S
C323 H349 0.929 . S
C324 C322 1.320 . S
C324 C325 1.405 . S
C324 H350 0.930 . S
C325 C320 1.479 . S
C325 C324 1.405 . S
C325 H351 0.931 . S
U326 O327 2.454 . S
U326 O328 2.458 . S
U326 C329 2.984 . S
U326 C330 2.847 . S
U326 C343 2.882 . S
U326 O344 2.441 . S
U326 O345 2.420 . S
U326 O346 2.455 . S
U326 O347 2.449 . S
O327 U326 2.454 . S
O327 C329 1.353 . S
O328 U326 2.458 . S
O328 C329 1.286 . S
C329 U326 2.984 . S
C329 O327 1.353 . S
C329 O328 1.286 . S
C329 C331 1.363 . S
C330 C320 1.465 . S
C330 U326 2.847 . S
C330 O344 1.249 . S
C330 O345 1.202 . S
C331 C329 1.363 . S
C331 C333 1.408 . S
C331 C336 1.342 . S
C332 C333 1.310 . S
C332 C335 1.461 . S
C332 H352 0.932 . S
C333 C331 1.408 . S
C333 C332 1.310 . S
C333 H353 0.930 . S
C334 C335 1.474 . S
C334 C336 1.285 . S
C334 H354 0.929 . S
C335 C332 1.461 . S
C335 C334 1.474 . S
C336 C331 1.342 . S
C336 C334 1.285 . S
C336 H355 0.930 . S
C337 C340 1.424 . S
C337 C342 1.245 . S
C337 C343 1.428 . S
C338 C341 1.260 . S
C338 C342 1.477 . S
C338 H356 0.932 . S
C339 C340 1.384 . S
C339 C341 1.479 . S
C339 H357 0.929 . S
C340 C337 1.424 . S
C340 C339 1.384 . S
C340 H358 0.928 . S
C341 C338 1.260 . S
C341 C339 1.479 . S
C342 C337 1.245 . S
C342 C338 1.477 . S
C342 H359 0.932 . S
C343 U326 2.882 . S
C343 C337 1.428 . S
C343 O346 1.301 . S
C343 O347 1.282 . S
O344 U326 2.441 . S
O344 C330 1.249 . S
O345 U326 2.420 . S
O345 C330 1.202 . S
O346 U326 2.455 . S
O346 C343 1.301 . S
O347 U326 2.449 . S
O347 C343 1.282 . S
H348 C321 0.931 . S
H349 C323 0.929 . S
H350 C324 0.930 . S
H351 C325 0.931 . S
H352 C332 0.932 . S
H353 C333 0.930 . S
H354 C334 0.929 . S
H355 C336 0.930 . S
H356 C338 0.932 . S
H357 C339 0.929 . S
H358 C340 0.928 . S
H359 C342 0.932 . S
C360 C361 1.264 . S
C360 C365 1.479 . S
C360 C370 1.465 . S
C361 C360 1.264 . S
C361 C363 1.339 . S
C361 H388 0.931 . S
C362 C363 1.395 . S
C362 C364 1.320 . S
C363 C361 1.339 . S
C363 C362 1.395 . S
C363 H389 0.929 . S
C364 C362 1.320 . S
C364 C365 1.405 . S
C364 H390 0.930 . S
C365 C360 1.479 . S
C365 C364 1.405 . S
C365 H391 0.931 . S
U366 O367 2.454 . S
U366 O368 2.458 . S
U366 C369 2.984 . S
U366 C370 2.847 . S
U366 C383 2.882 . S
U366 O384 2.441 . S
U366 O385 2.420 . S
U366 O386 2.455 . S
U366 O387 2.449 . S
O367 U366 2.454 . S
O367 C369 1.353 . S
O368 U366 2.458 . S
O368 C369 1.286 . S
C369 U366 2.984 . S
C369 O367 1.353 . S
C369 O368 1.286 . S
C369 C371 1.363 . S
C370 C360 1.465 . S
C370 U366 2.847 . S
C370 O384 1.249 . S
C370 O385 1.202 . S
C371 C369 1.363 . S
C371 C373 1.408 . S
C371 C376 1.342 . S
C372 C373 1.310 . S
C372 C375 1.461 . S
C372 H392 0.932 . S
C373 C371 1.408 . S
C373 C372 1.310 . S
C373 H393 0.930 . S
C374 C375 1.474 . S
C374 C376 1.285 . S
C374 H394 0.929 . S
C375 C372 1.461 . S
C375 C374 1.474 . S
C376 C371 1.342 . S
C376 C374 1.285 . S
C376 H395 0.930 . S
C377 C380 1.424 . S
C377 C382 1.245 . S
C377 C383 1.428 . S
C378 C381 1.260 . S
C378 C382 1.477 . S
C378 H396 0.932 . S
C379 C380 1.384 . S
C379 C381 1.479 . S
C379 H397 0.929 . S
C380 C377 1.424 . S
C380 C379 1.384 . S
C380 H398 0.928 . S
C381 C378 1.260 . S
C381 C379 1.479 . S
C382 C377 1.245 . S
C382 C378 1.477 . S
C382 H399 0.932 . S
C383 U366 2.882 . S
C383 C377 1.428 . S
C383 O386 1.301 . S
C383 O387 1.282 . S
O384 U366 2.441 . S
O384 C370 1.249 . S
O385 U366 2.420 . S
O385 C370 1.202 . S
O386 U366 2.455 . S
O386 C383 1.301 . S
O387 U366 2.449 . S
O387 C383 1.282 . S
H388 C361 0.931 . S
H389 C363 0.929 . S
H390 C364 0.930 . S
H391 C365 0.931 . S
H392 C372 0.932 . S
H393 C373 0.930 . S
H394 C374 0.929 . S
H395 C376 0.930 . S
H396 C378 0.932 . S
H397 C379 0.929 . S
H398 C380 0.928 . S
H399 C382 0.932 . S
C400 C401 1.264 . S
C400 C405 1.479 . S
C400 C410 1.465 . S
C401 C400 1.264 . S
C401 C403 1.339 . S
C401 H428 0.931 . S
C402 C403 1.395 . S
C402 C404 1.320 . S
C403 C401 1.339 . S
C403 C402 1.395 . S
C403 H429 0.929 . S
C404 C402 1.320 . S
C404 C405 1.405 . S
C404 H430 0.930 . S
C405 C400 1.479 . S
C405 C404 1.405 . S
C405 H431 0.931 . S
U406 O407 2.454 . S
U406 O408 2.458 . S
U406 C409 2.984 . S
U406 C410 2.847 . S
U406 C423 2.882 . S
U406 O424 2.441 . S
U406 O425 2.420 . S
U406 O426 2.455 . S
U406 O427 2.449 . S
O407 U406 2.454 . S
O407 C409 1.353 . S
O408 U406 2.458 . S
O408 C409 1.286 . S
C409 U406 2.984 . S
C409 O407 1.353 . S
C409 O408 1.286 . S
C409 C411 1.363 . S
C410 C400 1.465 . S
C410 U406 2.847 . S
C410 O424 1.249 . S
C410 O425 1.202 . S
C411 C409 1.363 . S
C411 C413 1.408 . S
C411 C416 1.342 . S
C412 C413 1.310 . S
C412 C415 1.461 . S
C412 H432 0.932 . S
C413 C411 1.408 . S
C413 C412 1.310 . S
C413 H433 0.930 . S
C414 C415 1.474 . S
C414 C416 1.285 . S
C414 H434 0.929 . S
C415 C412 1.461 . S
C415 C414 1.474 . S
C416 C411 1.342 . S
C416 C414 1.285 . S
C416 H435 0.930 . S
C417 C420 1.424 . S
C417 C422 1.245 . S
C417 C423 1.428 . S
C418 C421 1.260 . S
C418 C422 1.477 . S
C418 H436 0.932 . S
C419 C420 1.384 . S
C419 C421 1.479 . S
C419 H437 0.929 . S
C420 C417 1.424 . S
C420 C419 1.384 . S
C420 H438 0.928 . S
C421 C418 1.260 . S
C421 C419 1.479 . S
C422 C417 1.245 . S
C422 C418 1.477 . S
C422 H439 0.932 . S
C423 U406 2.882 . S
C423 C417 1.428 . S
C423 O426 1.301 . S
C423 O427 1.282 . S
O424 U406 2.441 . S
O424 C410 1.249 . S
O425 U406 2.420 . S
O425 C410 1.202 . S
O426 U406 2.455 . S
O426 C423 1.301 . S
O427 U406 2.449 . S
O427 C423 1.282 . S
H428 C401 0.931 . S
H429 C403 0.929 . S
H430 C404 0.930 . S
H431 C405 0.931 . S
H432 C412 0.932 . S
H433 C413 0.930 . S
H434 C414 0.929 . S
H435 C416 0.930 . S
H436 C418 0.932 . S
H437 C419 0.929 . S
H438 C420 0.928 . S
H439 C422 0.932 . S
C440 C441 1.264 . S
C440 C445 1.479 . S
C440 C450 1.465 . S
C441 C440 1.264 . S
C441 C443 1.339 . S
C441 H468 0.931 . S
C442 C443 1.395 . S
C442 C444 1.320 . S
C443 C441 1.339 . S
C443 C442 1.395 . S
C443 H469 0.929 . S
C444 C442 1.320 . S
C444 C445 1.405 . S
C444 H470 0.930 . S
C445 C440 1.479 . S
C445 C444 1.405 . S
C445 H471 0.931 . S
U446 O447 2.454 . S
U446 O448 2.458 . S
U446 C449 2.984 . S
U446 C450 2.847 . S
U446 C463 2.882 . S
U446 O464 2.441 . S
U446 O465 2.420 . S
U446 O466 2.455 . S
U446 O467 2.449 . S
O447 U446 2.454 . S
O447 C449 1.353 . S
O448 U446 2.458 . S
O448 C449 1.286 . S
C449 U446 2.984 . S
C449 O447 1.353 . S
C449 O448 1.286 . S
C449 C451 1.363 . S
C450 C440 1.465 . S
C450 U446 2.847 . S
C450 O464 1.249 . S
C450 O465 1.202 . S
C451 C449 1.363 . S
C451 C453 1.408 . S
C451 C456 1.342 . S
C452 C453 1.310 . S
C452 C455 1.461 . S
C452 H472 0.932 . S
C453 C451 1.408 . S
C453 C452 1.310 . S
C453 H473 0.930 . S
C454 C455 1.474 . S
C454 C456 1.285 . S
C454 H474 0.929 . S
C455 C452 1.461 . S
C455 C454 1.474 . S
C456 C451 1.342 . S
C456 C454 1.285 . S
C456 H475 0.930 . S
C457 C460 1.424 . S
C457 C462 1.245 . S
C457 C463 1.428 . S
C458 C461 1.260 . S
C458 C462 1.477 . S
C458 H476 0.932 . S
C459 C460 1.384 . S
C459 C461 1.479 . S
C459 H477 0.929 . S
C460 C457 1.424 . S
C460 C459 1.384 . S
C460 H478 0.928 . S
C461 C458 1.260 . S
C461 C459 1.479 . S
C462 C457 1.245 . S
C462 C458 1.477 . S
C462 H479 0.932 . S
C463 U446 2.882 . S
C463 C457 1.428 . S
C463 O466 1.301 . S
C463 O467 1.282 . S
O464 U446 2.441 . S
O464 C450 1.249 . S
O465 U446 2.420 . S
O465 C450 1.202 . S
O466 U446 2.455 . S
O466 C463 1.301 . S
O467 U446 2.449 . S
O467 C463 1.282 . S
H468 C441 0.931 . S
H469 C443 0.929 . S
H470 C444 0.930 . S
H471 C445 0.931 . S
H472 C452 0.932 . S
H473 C453 0.930 . S
H474 C454 0.929 . S
H475 C456 0.930 . S
H476 C458 0.932 . S
H477 C459 0.929 . S
H478 C460 0.928 . S
H479 C462 0.932 . S
C480 C481 1.264 . S
C480 C485 1.479 . S
C480 C490 1.465 . S
C481 C480 1.264 . S
C481 C483 1.339 . S
C481 H508 0.931 . S
C482 C483 1.395 . S
C482 C484 1.320 . S
C483 C481 1.339 . S
C483 C482 1.395 . S
C483 H509 0.929 . S
C484 C482 1.320 . S
C484 C485 1.405 . S
C484 H510 0.930 . S
C485 C480 1.479 . S
C485 C484 1.405 . S
C485 H511 0.931 . S
U486 O487 2.454 . S
U486 O488 2.458 . S
U486 C489 2.984 . S
U486 C490 2.847 . S
U486 C503 2.882 . S
U486 O504 2.441 . S
U486 O505 2.420 . S
U486 O506 2.455 . S
U486 O507 2.449 . S
O487 U486 2.454 . S
O487 C489 1.353 . S
O488 U486 2.458 . S
O488 C489 1.286 . S
C489 U486 2.984 . S
C489 O487 1.353 . S
C489 O488 1.286 . S
C489 C491 1.363 . S
C490 C480 1.465 . S
C490 U486 2.847 . S
C490 O504 1.249 . S
C490 O505 1.202 . S
C491 C489 1.363 . S
C491 C493 1.408 . S
C491 C496 1.342 . S
C492 C493 1.310 . S
C492 C495 1.461 . S
C492 H512 0.932 . S
C493 C491 1.408 . S
C493 C492 1.310 . S
C493 H513 0.930 . S
C494 C495 1.474 . S
C494 C496 1.285 . S
C494 H514 0.929 . S
C495 C492 1.461 . S
C495 C494 1.474 . S
C496 C491 1.342 . S
C496 C494 1.285 . S
C496 H515 0.930 . S
C497 C500 1.424 . S
C497 C502 1.245 . S
C497 C503 1.428 . S
C498 C501 1.260 . S
C498 C502 1.477 . S
C498 H516 0.932 . S
C499 C500 1.384 . S
C499 C501 1.479 . S
C499 H517 0.929 . S
C500 C497 1.424 . S
C500 C499 1.384 . S
C500 H518 0.928 . S
C501 C498 1.260 . S
C501 C499 1.479 . S
C502 C497 1.245 . S
C502 C498 1.477 . S
C502 H519 0.932 . S
C503 U486 2.882 . S
C503 C497 1.428 . S
C503 O506 1.301 . S
C503 O507 1.282 . S
O504 U486 2.441 . S
O504 C490 1.249 . S
O505 U486 2.420 . S
O505 C490 1.202 . S
O506 U486 2.455 . S
O506 C503 1.301 . S
O507 U486 2.449 . S
O507 C503 1.282 . S
H508 C481 0.931 . S
H509 C483 0.929 . S
H510 C484 0.930 . S
H511 C485 0.931 . S
H512 C492 0.932 . S
H513 C493 0.930 . S
H514 C494 0.929 . S
H515 C496 0.930 . S
H516 C498 0.932 . S
H517 C499 0.929 . S
H518 C500 0.928 . S
H519 C502 0.932 . S
C520 C521 1.264 . S
C520 C525 1.479 . S
C520 C530 1.465 . S
C521 C520 1.264 . S
C521 C523 1.339 . S
C521 H548 0.931 . S
C522 C523 1.395 . S
C522 C524 1.320 . S
C523 C521 1.339 . S
C523 C522 1.395 . S
C523 H549 0.929 . S
C524 C522 1.320 . S
C524 C525 1.405 . S
C524 H550 0.930 . S
C525 C520 1.479 . S
C525 C524 1.405 . S
C525 H551 0.931 . S
U526 O527 2.454 . S
U526 O528 2.458 . S
U526 C529 2.984 . S
U526 C530 2.847 . S
U526 C543 2.882 . S
U526 O544 2.441 . S
U526 O545 2.420 . S
U526 O546 2.455 . S
U526 O547 2.449 . S
O527 U526 2.454 . S
O527 C529 1.353 . S
O528 U526 2.458 . S
O528 C529 1.286 . S
C529 U526 2.984 . S
C529 O527 1.353 . S
C529 O528 1.286 . S
C529 C531 1.363 . S
C530 C520 1.465 . S
C530 U526 2.847 . S
C530 O544 1.249 . S
C530 O545 1.202 . S
C531 C529 1.363 . S
C531 C533 1.408 . S
C531 C536 1.342 . S
C532 C533 1.310 . S
C532 C535 1.461 . S
C532 H552 0.932 . S
C533 C531 1.408 . S
C533 C532 1.310 . S
C533 H553 0.930 . S
C534 C535 1.474 . S
C534 C536 1.285 . S
C534 H554 0.929 . S
C535 C532 1.461 . S
C535 C534 1.474 . S
C536 C531 1.342 . S
C536 C534 1.285 . S
C536 H555 0.930 . S
C537 C540 1.424 . S
C537 C542 1.245 . S
C537 C543 1.428 . S
C538 C541 1.260 . S
C538 C542 1.477 . S
C538 H556 0.932 . S
C539 C540 1.384 . S
C539 C541 1.479 . S
C539 H557 0.929 . S
C540 C537 1.424 . S
C540 C539 1.384 . S
C540 H558 0.928 . S
C541 C538 1.260 . S
C541 C539 1.479 . S
C542 C537 1.245 . S
C542 C538 1.477 . S
C542 H559 0.932 . S
C543 U526 2.882 . S
C543 C537 1.428 . S
C543 O546 1.301 . S
C543 O547 1.282 . S
O544 U526 2.441 . S
O544 C530 1.249 . S
O545 U526 2.420 . S
O545 C530 1.202 . S
O546 U526 2.455 . S
O546 C543 1.301 . S
O547 U526 2.449 . S
O547 C543 1.282 . S
H548 C521 0.931 . S
H549 C523 0.929 . S
H550 C524 0.930 . S
H551 C525 0.931 . S
H552 C532 0.932 . S
H553 C533 0.930 . S
H554 C534 0.929 . S
H555 C536 0.930 . S
H556 C538 0.932 . S
H557 C539 0.929 . S
H558 C540 0.928 . S
H559 C542 0.932 . S
C560 C561 1.264 . S
C560 C565 1.479 . S
C560 C570 1.465 . S
C561 C560 1.264 . S
C561 C563 1.339 . S
C561 H588 0.931 . S
C562 C563 1.395 . S
C562 C564 1.320 . S
C563 C561 1.339 . S
C563 C562 1.395 . S
C563 H589 0.929 . S
C564 C562 1.320 . S
C564 C565 1.405 . S
C564 H590 0.930 . S
C565 C560 1.479 . S
C565 C564 1.405 . S
C565 H591 0.931 . S
U566 O567 2.454 . S
U566 O568 2.458 . S
U566 C569 2.984 . S
U566 C570 2.847 . S
U566 C583 2.882 . S
U566 O584 2.441 . S
U566 O585 2.420 . S
U566 O586 2.455 . S
U566 O587 2.449 . S
O567 U566 2.454 . S
O567 C569 1.353 . S
O568 U566 2.458 . S
O568 C569 1.286 . S
C569 U566 2.984 . S
C569 O567 1.353 . S
C569 O568 1.286 . S
C569 C571 1.363 . S
C570 C560 1.465 . S
C570 U566 2.847 . S
C570 O584 1.249 . S
C570 O585 1.202 . S
C571 C569 1.363 . S
C571 C573 1.408 . S
C571 C576 1.342 . S
C572 C573 1.310 . S
C572 C575 1.461 . S
C572 H592 0.932 . S
C573 C571 1.408 . S
C573 C572 1.310 . S
C573 H593 0.930 . S
C574 C575 1.474 . S
C574 C576 1.285 . S
C574 H594 0.929 . S
C575 C572 1.461 . S
C575 C574 1.474 . S
C576 C571 1.342 . S
C576 C574 1.285 . S
C576 H595 0.930 . S
C577 C580 1.424 . S
C577 C582 1.245 . S
C577 C583 1.428 . S
C578 C581 1.260 . S
C578 C582 1.477 . S
C578 H596 0.932 . S
C579 C580 1.384 . S
C579 C581 1.479 . S
C579 H597 0.929 . S
C580 C577 1.424 . S
C580 C579 1.384 . S
C580 H598 0.928 . S
C581 C578 1.260 . S
C581 C579 1.479 . S
C582 C577 1.245 . S
C582 C578 1.477 . S
C582 H599 0.932 . S
C583 U566 2.882 . S
C583 C577 1.428 . S
C583 O586 1.301 . S
C583 O587 1.282 . S
O584 U566 2.441 . S
O584 C570 1.249 . S
O585 U566 2.420 . S
O585 C570 1.202 . S
O586 U566 2.455 . S
O586 C583 1.301 . S
O587 U566 2.449 . S
O587 C583 1.282 . S
H588 C561 0.931 . S
H589 C563 0.929 . S
H590 C564 0.930 . S
H591 C565 0.931 . S
H592 C572 0.932 . S
H593 C573 0.930 . S
H594 C574 0.929 . S
H595 C576 0.930 . S
H596 C578 0.932 . S
H597 C579 0.929 . S
H598 C580 0.928 . S
H599 C582 0.932 . S
C600 C601 1.264 . S
C600 C605 1.479 . S
C600 C610 1.465 . S
C601 C600 1.264 . S
C601 C603 1.339 . S
C601 H628 0.931 . S
C602 C603 1.395 . S
C602 C604 1.320 . S
C603 C601 1.339 . S
C603 C602 1.395 . S
C603 H629 0.929 . S
C604 C602 1.320 . S
C604 C605 1.405 . S
C604 H630 0.930 . S
C605 C600 1.479 . S
C605 C604 1.405 . S
C605 H631 0.931 . S
U606 O607 2.454 . S
U606 O608 2.458 . S
U606 C609 2.984 . S
U606 C610 2.847 . S
U606 C623 2.882 . S
U606 O624 2.441 . S
U606 O625 2.420 . S
U606 O626 2.455 . S
U606 O627 2.449 . S
O607 U606 2.454 . S
O607 C609 1.353 . S
O608 U606 2.458 . S
O608 C609 1.286 . S
C609 U606 2.984 . S
C609 O607 1.353 . S
C609 O608 1.286 . S
C609 C611 1.363 . S
C610 C600 1.465 . S
C610 U606 2.847 . S
C610 O624 1.249 . S
C610 O625 1.202 . S
C611 C609 1.363 . S
C611 C613 1.408 . S
C611 C616 1.342 . S
C612 C613 1.310 . S
C612 C615 1.461 . S
C612 H632 0.932 . S
C613 C611 1.408 . S
C613 C612 1.310 . S
C613 H633 0.930 . S
C614 C615 1.474 . S
C614 C616 1.285 . S
C614 H634 0.929 . S
C615 C612 1.461 . S
C615 C614 1.474 . S
C616 C611 1.342 . S
C616 C614 1.285 . S
C616 H635 0.930 . S
C617 C620 1.424 . S
C617 C622 1.245 . S
C617 C623 1.428 . S
C618 C621 1.260 . S
C618 C622 1.477 . S
C618 H636 0.932 . S
C619 C620 1.384 . S
C619 C621 1.479 . S
C619 H637 0.929 . S
C620 C617 1.424 . S
C620 C619 1.384 . S
C620 H638 0.928 . S
C621 C618 1.260 . S
C621 C619 1.479 . S
C622 C617 1.245 . S
C622 C618 1.477 . S
C622 H639 0.932 . S
C623 U606 2.882 . S
C623 C617 1.428 . S
C623 O626 1.301 . S
C623 O627 1.282 . S
O624 U606 2.441 . S
O624 C610 1.249 . S
O625 U606 2.420 . S
O625 C610 1.202 . S
O626 U606 2.455 . S
O626 C623 1.301 . S
O627 U606 2.449 . S
O627 C623 1.282 . S
H628 C601 0.931 . S
H629 C603 0.929 . S
H630 C604 0.930 . S
H631 C605 0.931 . S
H632 C612 0.932 . S
H633 C613 0.930 . S
H634 C614 0.929 . S
H635 C616 0.930 . S
H636 C618 0.932 . S
H637 C619 0.929 . S
H638 C620 0.928 . S
H639 C622 0.932 . S
C640 C641 1.264 . S
C640 C645 1.479 . S
C640 C650 1.465 . S
C641 C640 1.264 . S
C641 C643 1.339 . S
C641 H668 0.931 . S
C642 C643 1.395 . S
C642 C644 1.320 . S
C643 C641 1.339 . S
C643 C642 1.395 . S
C643 H669 0.929 . S
C644 C642 1.320 . S
C644 C645 1.405 . S
C644 H670 0.930 . S
C645 C640 1.479 . S
C645 C644 1.405 . S
C645 H671 0.931 . S
U646 O647 2.454 . S
U646 O648 2.458 . S
U646 C649 2.984 . S
U646 C650 2.847 . S
U646 C663 2.882 . S
U646 O664 2.441 . S
U646 O665 2.420 . S
U646 O666 2.455 . S
U646 O667 2.449 . S
O647 U646 2.454 . S
O647 C649 1.353 . S
O648 U646 2.458 . S
O648 C649 1.286 . S
C649 U646 2.984 . S
C649 O647 1.353 . S
C649 O648 1.286 . S
C649 C651 1.363 . S
C650 C640 1.465 . S
C650 U646 2.847 . S
C650 O664 1.249 . S
C650 O665 1.202 . S
C651 C649 1.363 . S
C651 C653 1.408 . S
C651 C656 1.342 . S
C652 C653 1.310 . S
C652 C655 1.461 . S
C652 H672 0.932 . S
C653 C651 1.408 . S
C653 C652 1.310 . S
C653 H673 0.930 . S
C654 C655 1.474 . S
C654 C656 1.285 . S
C654 H674 0.929 . S
C655 C652 1.461 . S
C655 C654 1.474 . S
C656 C651 1.342 . S
C656 C654 1.285 . S
C656 H675 0.930 . S
C657 C660 1.424 . S
C657 C662 1.245 . S
C657 C663 1.428 . S
C658 C661 1.260 . S
C658 C662 1.477 . S
C658 H676 0.932 . S
C659 C660 1.384 . S
C659 C661 1.479 . S
C659 H677 0.929 . S
C660 C657 1.424 . S
C660 C659 1.384 . S
C660 H678 0.928 . S
C661 C658 1.260 . S
C661 C659 1.479 . S
C662 C657 1.245 . S
C662 C658 1.477 . S
C662 H679 0.932 . S
C663 U646 2.882 . S
C663 C657 1.428 . S
C663 O666 1.301 . S
C663 O667 1.282 . S
O664 U646 2.441 . S
O664 C650 1.249 . S
O665 U646 2.420 . S
O665 C650 1.202 . S
O666 U646 2.455 . S
O666 C663 1.301 . S
O667 U646 2.449 . S
O667 C663 1.282 . S
H668 C641 0.931 . S
H669 C643 0.929 . S
H670 C644 0.930 . S
H671 C645 0.931 . S
H672 C652 0.932 . S
H673 C653 0.930 . S
H674 C654 0.929 . S
H675 C656 0.930 . S
H676 C658 0.932 . S
H677 C659 0.929 . S
H678 C660 0.928 . S
H679 C662 0.932 . S
C680 C681 1.264 . S
C680 C685 1.479 . S
C680 C690 1.465 . S
C681 C680 1.264 . S
C681 C683 1.339 . S
C681 H708 0.931 . S
C682 C683 1.395 . S
C682 C684 1.320 . S
C683 C681 1.339 . S
C683 C682 1.395 . S
C683 H709 0.929 . S
C684 C682 1.320 . S
C684 C685 1.405 . S
C684 H710 0.930 . S
C685 C680 1.479 . S
C685 C684 1.405 . S
C685 H711 0.931 . S
U686 O687 2.454 . S
U686 O688 2.458 . S
U686 C689 2.984 . S
U686 C690 2.847 . S
U686 C703 2.882 . S
U686 O704 2.441 . S
U686 O705 2.420 . S
U686 O706 2.455 . S
U686 O707 2.449 . S
O687 U686 2.454 . S
O687 C689 1.353 . S
O688 U686 2.458 . S
O688 C689 1.286 . S
C689 U686 2.984 . S
C689 O687 1.353 . S
C689 O688 1.286 . S
C689 C691 1.363 . S
C690 C680 1.465 . S
C690 U686 2.847 . S
C690 O704 1.249 . S
C690 O705 1.202 . S
C691 C689 1.363 . S
C691 C693 1.408 . S
C691 C696 1.342 . S
C692 C693 1.310 . S
C692 C695 1.461 . S
C692 H712 0.932 . S
C693 C691 1.408 . S
C693 C692 1.310 . S
C693 H713 0.930 . S
C694 C695 1.474 . S
C694 C696 1.285 . S
C694 H714 0.929 . S
C695 C692 1.461 . S
C695 C694 1.474 . S
C696 C691 1.342 . S
C696 C694 1.285 . S
C696 H715 0.930 . S
C697 C700 1.424 . S
C697 C702 1.245 . S
C697 C703 1.428 . S
C698 C701 1.260 . S
C698 C702 1.477 . S
C698 H716 0.932 . S
C699 C700 1.384 . S
C699 C701 1.479 . S
C699 H717 0.929 . S
C700 C697 1.424 . S
C700 C699 1.384 . S
C700 H718 0.928 . S
C701 C698 1.260 . S
C701 C699 1.479 . S
C702 C697 1.245 . S
C702 C698 1.477 . S
C702 H719 0.932 . S
C703 U686 2.882 . S
C703 C697 1.428 . S
C703 O706 1.301 . S
C703 O707 1.282 . S
O704 U686 2.441 . S
O704 C690 1.249 . S
O705 U686 2.420 . S
O705 C690 1.202 . S
O706 U686 2.455 . S
O706 C703 1.301 . S
O707 U686 2.449 . S
O707 C703 1.282 . S
H708 C681 0.931 . S
H709 C683 0.929 . S
H710 C684 0.930 . S
H711 C685 0.931 . S
H712 C692 0.932 . S
H713 C693 0.930 . S
H714 C694 0.929 . S
H715 C696 0.930 . S
H716 C698 0.932 . S
H717 C699 0.929 . S
H718 C700 0.928 . S
H719 C702 0.932 . S
C720 C721 1.264 . S
C720 C725 1.479 . S
C720 C730 1.465 . S
C721 C720 1.264 . S
C721 C723 1.339 . S
C721 H748 0.931 . S
C722 C723 1.395 . S
C722 C724 1.320 . S
C723 C721 1.339 . S
C723 C722 1.395 . S
C723 H749 0.929 . S
C724 C722 1.320 . S
C724 C725 1.405 . S
C724 H750 0.930 . S
C725 C720 1.479 . S
C725 C724 1.405 . S
C725 H751 0.931 . S
U726 O727 2.454 . S
U726 O728 2.458 . S
U726 C729 2.984 . S
U726 C730 2.847 . S
U726 C743 2.882 . S
U726 O744 2.441 . S
U726 O745 2.420 . S
U726 O746 2.455 . S
U726 O747 2.449 . S
O727 U726 2.454 . S
O727 C729 1.353 . S
O728 U726 2.458 . S
O728 C729 1.286 . S
C729 U726 2.984 . S
C729 O727 1.353 . S
C729 O728 1.286 . S
C729 C731 1.363 . S
C730 C720 1.465 . S
C730 U726 2.847 . S
C730 O744 1.249 . S
C730 O745 1.202 . S
C731 C729 1.363 . S
C731 C733 1.408 . S
C731 C736 1.342 . S
C732 C733 1.310 . S
C732 C735 1.461 . S
C732 H752 0.932 . S
C733 C731 1.408 . S
C733 C732 1.310 . S
C733 H753 0.930 . S
C734 C735 1.474 . S
C734 C736 1.285 . S
C734 H754 0.929 . S
C735 C732 1.461 . S
C735 C734 1.474 . S
C736 C731 1.342 . S
C736 C734 1.285 . S
C736 H755 0.930 . S
C737 C740 1.424 . S
C737 C742 1.245 . S
C737 C743 1.428 . S
C738 C741 1.260 . S
C738 C742 1.477 . S
C738 H756 0.932 . S
C739 C740 1.384 . S
C739 C741 1.479 . S
C739 H757 0.929 . S
C740 C737 1.424 . S
C740 C739 1.384 . S
C740 H758 0.928 . S
C741 C738 1.260 . S
C741 C739 1.479 . S
C742 C737 1.245 . S
C742 C738 1.477 . S
C742 H759 0.932 . S
C743 U726 2.882 . S
C743 C737 1.428 . S
C743 O746 1.301 . S
C743 O747 1.282 . S
O744 U726 2.441 . S
O744 C730 1.249 . S
O745 U726 2.420 . S
O745 C730 1.202 . S
O746 U726 2.455 . S
O746 C743 1.301 . S
O747 U726 2.449 . S
O747 C743 1.282 . S
H748 C721 0.931 . S
H749 C723 0.929 . S
H750 C724 0.930 . S
H751 C725 0.931 . S
H752 C732 0.932 . S
H753 C733 0.930 . S
H754 C734 0.929 . S
H755 C736 0.930 . S
H756 C738 0.932 . S
H757 C739 0.929 . S
H758 C740 0.928 . S
H759 C742 0.932 . S
C760 C761 1.264 . S
C760 C765 1.479 . S
C760 C770 1.465 . S
C761 C760 1.264 . S
C761 C763 1.339 . S
C761 H788 0.931 . S
C762 C763 1.395 . S
C762 C764 1.320 . S
C763 C761 1.339 . S
C763 C762 1.395 . S
C763 H789 0.929 . S
C764 C762 1.320 . S
C764 C765 1.405 . S
C764 H790 0.930 . S
C765 C760 1.479 . S
C765 C764 1.405 . S
C765 H791 0.931 . S
U766 O767 2.454 . S
U766 O768 2.458 . S
U766 C769 2.984 . S
U766 C770 2.847 . S
U766 C783 2.882 . S
U766 O784 2.441 . S
U766 O785 2.420 . S
U766 O786 2.455 . S
U766 O787 2.449 . S
O767 U766 2.454 . S
O767 C769 1.353 . S
O768 U766 2.458 . S
O768 C769 1.286 . S
C769 U766 2.984 . S
C769 O767 1.353 . S
C769 O768 1.286 . S
C769 C771 1.363 . S
C770 C760 1.465 . S
C770 U766 2.847 . S
C770 O784 1.249 . S
C770 O785 1.202 . S
C771 C769 1.363 . S
C771 C773 1.408 . S
C771 C776 1.342 . S
C772 C773 1.310 . S
C772 C775 1.461 . S
C772 H792 0.932 . S
C773 C771 1.408 . S
C773 C772 1.310 . S
C773 H793 0.930 . S
C774 C775 1.474 . S
C774 C776 1.285 . S
C774 H794 0.929 . S
C775 C772 1.461 . S
C775 C774 1.474 . S
C776 C771 1.342 . S
C776 C774 1.285 . S
C776 H795 0.930 . S
C777 C780 1.424 . S
C777 C782 1.245 . S
C777 C783 1.428 . S
C778 C781 1.260 . S
C778 C782 1.477 . S
C778 H796 0.932 . S
C779 C780 1.384 . S
C779 C781 1.479 . S
C779 H797 0.929 . S
C780 C777 1.424 . S
C780 C779 1.384 . S
C780 H798 0.928 . S
C781 C778 1.260 . S
C781 C779 1.479 . S
C782 C777 1.245 . S
C782 C778 1.477 . S
C782 H799 0.932 . S
C783 U766 2.882 . S
C783 C777 1.428 . S
C783 O786 1.301 . S
C783 O787 1.282 . S
O784 U766 2.441 . S
O784 C770 1.249 . S
O785 U766 2.420 . S
O785 C770 1.202 . S
O786 U766 2.455 . S
O786 C783 1.301 . S
O787 U766 2.449 . S
O787 C783 1.282 . S
H788 C761 0.931 . S
H789 C763 0.929 . S
H790 C764 0.930 . S
H791 C765 0.931 . S
H792 C772 0.932 . S
H793 C773 0.930 . S
H794 C774 0.929 . S
H795 C776 0.930 . S
H796 C778 0.932 . S
H797 C779 0.929 . S
H798 C780 0.928 . S
H799 C782 0.932 . S
C800 C801 1.264 . S
C800 C805 1.479 . S
C800 C810 1.465 . S
C801 C800 1.264 . S
C801 C803 1.339 . S
C801 H828 0.931 . S
C802 C803 1.395 . S
C802 C804 1.320 . S
C803 C801 1.339 . S
C803 C802 1.395 . S
C803 H829 0.929 . S
C804 C802 1.320 . S
C804 C805 1.405 . S
C804 H830 0.930 . S
C805 C800 1.479 . S
C805 C804 1.405 . S
C805 H831 0.931 . S
U806 O807 2.454 . S
U806 O808 2.458 . S
U806 C809 2.984 . S
U806 C810 2.847 . S
U806 C823 2.882 . S
U806 O824 2.441 . S
U806 O825 2.420 . S
U806 O826 2.455 . S
U806 O827 2.449 . S
O807 U806 2.454 . S
O807 C809 1.353 . S
O808 U806 2.458 . S
O808 C809 1.286 . S
C809 U806 2.984 . S
C809 O807 1.353 . S
C809 O808 1.286 . S
C809 C811 1.363 . S
C810 C800 1.465 . S
C810 U806 2.847 . S
C810 O824 1.249 . S
C810 O825 1.202 . S
C811 C809 1.363 . S
C811 C813 1.408 . S
C811 C816 1.342 . S
C812 C813 1.310 . S
C812 C815 1.461 . S
C812 H832 0.932 . S
C813 C811 1.408 . S
C813 C812 1.310 . S
C813 H833 0.930 . S
C814 C815 1.474 . S
C814 C816 1.285 . S
C814 H834 0.929 . S
C815 C812 1.461 . S
C815 C814 1.474 . S
C816 C811 1.342 . S
C816 C814 1.285 . S
C816 H835 0.930 . S
C817 C820 1.424 . S
C817 C822 1.245 . S
C817 C823 1.428 . S
C818 C821 1.260 . S
C818 C822 1.477 . S
C818 H836 0.932 . S
C819 C820 1.384 . S
C819 C821 1.479 . S
C819 H837 0.929 . S
C820 C817 1.424 . S
C820 C819 1.384 . S
C820 H838 0.928 . S
C821 C818 1.260 . S
C821 C819 1.479 . S
C822 C817 1.245 . S
C822 C818 1.477 . S
C822 H839 0.932 . S
C823 U806 2.882 . S
C823 C817 1.428 . S
C823 O826 1.301 . S
C823 O827 1.282 . S
O824 U806 2.441 . S
O824 C810 1.249 . S
O825 U806 2.420 . S
O825 C810 1.202 . S
O826 U806 2.455 . S
O826 C823 1.301 . S
O827 U806 2.449 . S
O827 C823 1.282 . S
H828 C801 0.931 . S
H829 C803 0.929 . S
H830 C804 0.930 . S
H831 C805 0.931 . S
H832 C812 0.932 . S
H833 C813 0.930 . S
H834 C814 0.929 . S
H835 C816 0.930 . S
H836 C818 0.932 . S
H837 C819 0.929 . S
H838 C820 0.928 . S
H839 C822 0.932 . S
C840 C841 1.264 . S
C840 C845 1.479 . S
C840 C850 1.465 . S
C841 C840 1.264 . S
C841 C843 1.339 . S
C841 H868 0.931 . S
C842 C843 1.395 . S
C842 C844 1.320 . S
C843 C841 1.339 . S
C843 C842 1.395 . S
C843 H869 0.929 . S
C844 C842 1.320 . S
C844 C845 1.405 . S
C844 H870 0.930 . S
C845 C840 1.479 . S
C845 C844 1.405 . S
C845 H871 0.931 . S
U846 O847 2.454 . S
U846 O848 2.458 . S
U846 C849 2.984 . S
U846 C850 2.847 . S
U846 C863 2.882 . S
U846 O864 2.441 . S
U846 O865 2.420 . S
U846 O866 2.455 . S
U846 O867 2.449 . S
O847 U846 2.454 . S
O847 C849 1.353 . S
O848 U846 2.458 . S
O848 C849 1.286 . S
C849 U846 2.984 . S
C849 O847 1.353 . S
C849 O848 1.286 . S
C849 C851 1.363 . S
C850 C840 1.465 . S
C850 U846 2.847 . S
C850 O864 1.249 . S
C850 O865 1.202 . S
C851 C849 1.363 . S
C851 C853 1.408 . S
C851 C856 1.342 . S
C852 C853 1.310 . S
C852 C855 1.461 . S
C852 H872 0.932 . S
C853 C851 1.408 . S
C853 C852 1.310 . S
C853 H873 0.930 . S
C854 C855 1.474 . S
C854 C856 1.285 . S
C854 H874 0.929 . S
C855 C852 1.461 . S
C855 C854 1.474 . S
C856 C851 1.342 . S
C856 C854 1.285 . S
C856 H875 0.930 . S
C857 C860 1.424 . S
C857 C862 1.245 . S
C857 C863 1.428 . S
C858 C861 1.260 . S
C858 C862 1.477 . S
C858 H876 0.932 . S
C859 C860 1.384 . S
C859 C861 1.479 . S
C859 H877 0.929 . S
C860 C857 1.424 . S
C860 C859 1.384 . S
C860 H878 0.928 . S
C861 C858 1.260 . S
C861 C859 1.479 . S
C862 C857 1.245 . S
C862 C858 1.477 . S
C862 H879 0.932 . S
C863 U846 2.882 . S
C863 C857 1.428 . S
C863 O866 1.301 . S
C863 O867 1.282 . S
O864 U846 2.441 . S
O864 C850 1.249 . S
O865 U846 2.420 . S
O865 C850 1.202 . S
O866 U846 2.455 . S
O866 C863 1.301 . S
O867 U846 2.449 . S
O867 C863 1.282 . S
H868 C841 0.931 . S
H869 C843 0.929 . S
H870 C844 0.930 . S
H871 C845 0.931 . S
H872 C852 0.932 . S
H873 C853 0.930 . S
H874 C854 0.929 . S
H875 C856 0.930 . S
H876 C858 0.932 . S
H877 C859 0.929 . S
H878 C860 0.928 . S
H879 C862 0.932 . S
C880 C881 1.264 . S
C880 C885 1.479 . S
C880 C890 1.465 . S
C881 C880 1.264 . S
C881 C883 1.339 . S
C881 H908 0.931 . S
C882 C883 1.395 . S
C882 C884 1.320 . S
C883 C881 1.339 . S
C883 C882 1.395 . S
C883 H909 0.929 . S
C884 C882 1.320 . S
C884 C885 1.405 . S
C884 H910 0.930 . S
C885 C880 1.479 . S
C885 C884 1.405 . S
C885 H911 0.931 . S
U886 O887 2.454 . S
U886 O888 2.458 . S
U886 C889 2.984 . S
U886 C890 2.847 . S
U886 C903 2.882 . S
U886 O904 2.441 . S
U886 O905 2.420 . S
U886 O906 2.455 . S
U886 O907 2.449 . S
O887 U886 2.454 . S
O887 C889 1.353 . S
O888 U886 2.458 . S
O888 C889 1.286 . S
C889 U886 2.984 . S
C889 O887 1.353 . S
C889 O888 1.286 . S
C889 C891 1.363 . S
C890 C880 1.465 . S
C890 U886 2.847 . S
C890 O904 1.249 . S
C890 O905 1.202 . S
C891 C889 1.363 . S
C891 C893 1.408 . S
C891 C896 1.342 . S
C892 C893 1.310 . S
C892 C895 1.461 . S
C892 H912 0.932 . S
C893 C891 1.408 . S
C893 C892 1.310 . S
C893 H913 0.930 . S
C894 C895 1.474 . S
C894 C896 1.285 . S
C894 H914 0.929 . S
C895 C892 1.461 . S
C895 C894 1.474 . S
C896 C891 1.342 . S
C896 C894 1.285 . S
C896 H915 0.930 . S
C897 C900 1.424 . S
C897 C902 1.245 . S
C897 C903 1.428 . S
C898 C901 1.260 . S
C898 C902 1.477 . S
C898 H916 0.932 . S
C899 C900 1.384 . S
C899 C901 1.479 . S
C899 H917 0.929 . S
C900 C897 1.424 . S
C900 C899 1.384 . S
C900 H918 0.928 . S
C901 C898 1.260 . S
C901 C899 1.479 . S
C902 C897 1.245 . S
C902 C898 1.477 . S
C902 H919 0.932 . S
C903 U886 2.882 . S
C903 C897 1.428 . S
C903 O906 1.301 . S
C903 O907 1.282 . S
O904 U886 2.441 . S
O904 C890 1.249 . S
O905 U886 2.420 . S
O905 C890 1.202 . S
O906 U886 2.455 . S
O906 C903 1.301 . S
O907 U886 2.449 . S
O907 C903 1.282 . S
H908 C881 0.931 . S
H909 C883 0.929 . S
H910 C884 0.930 . S
H911 C885 0.931 . S
H912 C892 0.932 . S
H913 C893 0.930 . S
H914 C894 0.929 . S
H915 C896 0.930 . S
H916 C898 0.932 . S
H917 C899 0.929 . S
H918 C900 0.928 . S
H919 C902 0.932 . S
C920 C921 1.264 . S
C920 C925 1.479 . S
C920 C930 1.465 . S
C921 C920 1.264 . S
C921 C923 1.339 . S
C921 H948 0.931 . S
C922 C923 1.395 . S
C922 C924 1.320 . S
C923 C921 1.339 . S
C923 C922 1.395 . S
C923 H949 0.929 . S
C924 C922 1.320 . S
C924 C925 1.405 . S
C924 H950 0.930 . S
C925 C920 1.479 . S
C925 C924 1.405 . S
C925 H951 0.931 . S
U926 O927 2.454 . S
U926 O928 2.458 . S
U926 C929 2.984 . S
U926 C930 2.847 . S
U926 C943 2.882 . S
U926 O944 2.441 . S
U926 O945 2.420 . S
U926 O946 2.455 . S
U926 O947 2.449 . S
O927 U926 2.454 . S
O927 C929 1.353 . S
O928 U926 2.458 . S
O928 C929 1.286 . S
C929 U926 2.984 . S
C929 O927 1.353 . S
C929 O928 1.286 . S
C929 C931 1.363 . S
C930 C920 1.465 . S
C930 U926 2.847 . S
C930 O944 1.249 . S
C930 O945 1.202 . S
C931 C929 1.363 . S
C931 C933 1.408 . S
C931 C936 1.342 . S
C932 C933 1.310 . S
C932 C935 1.461 . S
C932 H952 0.932 . S
C933 C931 1.408 . S
C933 C932 1.310 . S
C933 H953 0.930 . S
C934 C935 1.474 . S
C934 C936 1.285 . S
C934 H954 0.929 . S
C935 C932 1.461 . S
C935 C934 1.474 . S
C936 C931 1.342 . S
C936 C934 1.285 . S
C936 H955 0.930 . S
C937 C940 1.424 . S
C937 C942 1.245 . S
C937 C943 1.428 . S
C938 C941 1.260 . S
C938 C942 1.477 . S
C938 H956 0.932 . S
C939 C940 1.384 . S
C939 C941 1.479 . S
C939 H957 0.929 . S
C940 C937 1.424 . S
C940 C939 1.384 . S
C940 H958 0.928 . S
C941 C938 1.260 . S
C941 C939 1.479 . S
C942 C937 1.245 . S
C942 C938 1.477 . S
C942 H959 0.932 . S
C943 U926 2.882 . S
C943 C937 1.428 . S
C943 O946 1.301 . S
C943 O947 1.282 . S
O944 U926 2.441 . S
O944 C930 1.249 . S
O945 U926 2.420 . S
O945 C930 1.202 . S
O946 U926 2.455 . S
O946 C943 1.301 . S
O947 U926 2.449 . S
O947 C943 1.282 . S
H948 C921 0.931 . S
H949 C923 0.929 . S
H950 C924 0.930 . S
H951 C925 0.931 . S
H952 C932 0.932 . S
H953 C933 0.930 . S
H954 C934 0.929 . S
H955 C936 0.930 . S
H956 C938 0.932 . S
H957 C939 0.929 . S
H958 C940 0.928 . S
H959 C942 0.932 . S
C960 C961 1.264 . S
C960 C965 1.479 . S
C960 C970 1.465 . S
C961 C960 1.264 . S
C961 C963 1.339 . S
C961 H988 0.931 . S
C962 C963 1.395 . S
C962 C964 1.320 . S
C963 C961 1.339 . S
C963 C962 1.395 . S
C963 H989 0.929 . S
C964 C962 1.320 . S
C964 C965 1.405 . S
C964 H990 0.930 . S
C965 C960 1.479 . S
C965 C964 1.405 . S
C965 H991 0.931 . S
U966 O967 2.454 . S
U966 O968 2.458 . S
U966 C969 2.984 . S
U966 C970 2.847 . S
U966 C983 2.882 . S
U966 O984 2.441 . S
U966 O985 2.420 . S
U966 O986 2.455 . S
U966 O987 2.449 . S
O967 U966 2.454 . S
O967 C969 1.353 . S
O968 U966 2.458 . S
O968 C969 1.286 . S
C969 U966 2.984 . S
C969 O967 1.353 . S
C969 O968 1.286 . S
C969 C971 1.363 . S
C970 C960 1.465 . S
C970 U966 2.847 . S
C970 O984 1.249 . S
C970 O985 1.202 . S
C971 C969 1.363 . S
C971 C973 1.408 . S
C971 C976 1.342 . S
C972 C973 1.310 . S
C972 C975 1.461 . S
C972 H992 0.932 . S
C973 C971 1.408 . S
C973 C972 1.310 . S
C973 H993 0.930 . S
C974 C975 1.474 . S
C974 C976 1.285 . S
C974 H994 0.929 . S
C975 C972 1.461 . S
C975 C974 1.474 . S
C976 C971 1.342 . S
C976 C974 1.285 . S
C976 H995 0.930 . S
C977 C980 1.424 . S
C977 C982 1.245 . S
C977 C983 1.428 . S
C978 C981 1.260 . S
C978 C982 1.477 . S
C978 H996 0.932 . S
C979 C980 1.384 . S
C979 C981 1.479 . S
C979 H997 0.929 . S
C980 C977 1.424 . S
C980 C979 1.384 . S
C980 H998 0.928 . S
C981 C978 1.260 . S
C981 C979 1.479 . S
C982 C977 1.245 . S
C982 C978 1.477 . S
C982 H999 0.932 . S
C983 U966 2.882 . S
C983 C977 1.428 . S
C983 O986 1.301 . S
C983 O987 1.282 . S
O984 U966 2.441 . S
O984 C970 1.249 . S
O985 U966 2.420 . S
O985 C970 1.202 . S
O986 U966 2.455 . S
O986 C983 1.301 . S
O987 U966 2.449 . S
O987 C983 1.282 . S
H988 C961 0.931 . S
H989 C963 0.929 . S
H990 C964 0.930 . S
H991 C965 0.931 . S
H992 C972 0.932 . S
H993 C973 0.930 . S
H994 C974 0.929 . S
H995 C976 0.930 . S
H996 C978 0.932 . S
H997 C979 0.929 . S
H998 C980 0.928 . S
H999 C982 0.932 . S
C1000 C1001 1.264 . S
C1000 C1005 1.479 . S
C1000 C1010 1.465 . S
C1001 C1000 1.264 . S
C1001 C1003 1.339 . S
C1001 H1028 0.931 . S
C1002 C1003 1.395 . S
C1002 C1004 1.320 . S
C1003 C1001 1.339 . S
C1003 C1002 1.395 . S
C1003 H1029 0.929 . S
C1004 C1002 1.320 . S
C1004 C1005 1.405 . S
C1004 H1030 0.930 . S
C1005 C1000 1.479 . S
C1005 C1004 1.405 . S
C1005 H1031 0.931 . S
U1006 O1007 2.454 . S
U1006 O1008 2.458 . S
U1006 C1009 2.984 . S
U1006 C1010 2.847 . S
U1006 C1023 2.882 . S
U1006 O1024 2.441 . S
U1006 O1025 2.420 . S
U1006 O1026 2.455 . S
U1006 O1027 2.449 . S
O1007 U1006 2.454 . S
O1007 C1009 1.353 . S
O1008 U1006 2.458 . S
O1008 C1009 1.286 . S
C1009 U1006 2.984 . S
C1009 O1007 1.353 . S
C1009 O1008 1.286 . S
C1009 C1011 1.363 . S
C1010 C1000 1.465 . S
C1010 U1006 2.847 . S
C1010 O1024 1.249 . S
C1010 O1025 1.202 . S
C1011 C1009 1.363 . S
C1011 C1013 1.408 . S
C1011 C1016 1.342 . S
C1012 C1013 1.310 . S
C1012 C1015 1.461 . S
C1012 H1032 0.932 . S
C1013 C1011 1.408 . S
C1013 C1012 1.310 . S
C1013 H1033 0.930 . S
C1014 C1015 1.474 . S
C1014 C1016 1.285 . S
C1014 H1034 0.929 . S
C1015 C1012 1.461 . S
C1015 C1014 1.474 . S
C1016 C1011 1.342 . S
C1016 C1014 1.285 . S
C1016 H1035 0.930 . S
C1017 C1020 1.424 . S
C1017 C1022 1.245 . S
C1017 C1023 1.428 . S
C1018 C1021 1.260 . S
C1018 C1022 1.477 . S
C1018 H1036 0.932 . S
C1019 C1020 1.384 . S
C1019 C1021 1.479 . S
C1019 H1037 0.929 . S
C1020 C1017 1.424 . S
C1020 C1019 1.384 . S
C1020 H1038 0.928 . S
C1021 C1018 1.260 . S
C1021 C1019 1.479 . S
C1022 C1017 1.245 . S
C1022 C1018 1.477 . S
C1022 H1039 0.932 . S
C1023 U1006 2.882 . S
C1023 C1017 1.428 . S
C1023 O1026 1.301 . S
C1023 O1027 1.282 . S
O1024 U1006 2.441 . S
O1024 C1010 1.249 . S
O1025 U1006 2.420 . S
O1025 C1010 1.202 . S
O1026 U1006 2.455 . S
O1026 C1023 1.301 . S
O1027 U1006 2.449 . S
O1027 C1023 1.282 . S
H1028 C1001 0.931 . S
H1029 C1003 0.929 . S
H1030 C1004 0.930 . S
H1031 C1005 0.931 . S
H1032 C1012 0.932 . S
H1033 C1013 0.930 . S
H1034 C1014 0.929 . S
H1035 C1016 0.930 . S
H1036 C1018 0.932 . S
H1037 C1019 0.929 . S
H1038 C1020 0.928 . S
H1039 C1022 0.932 . S
C1040 C1041 1.264 . S
C1040 C1045 1.479 . S
C1040 C1050 1.465 . S
C1041 C1040 1.264 . S
C1041 C1043 1.339 . S
C1041 H1068 0.931 . S
C1042 C1043 1.395 . S
C1042 C1044 1.320 . S
C1043 C1041 1.339 . S
C1043 C1042 1.395 . S
C1043 H1069 0.929 . S
C1044 C1042 1.320 . S
C1044 C1045 1.405 . S
C1044 H1070 0.930 . S
C1045 C1040 1.479 . S
C1045 C1044 1.405 . S
C1045 H1071 0.931 . S
U1046 O1047 2.454 . S
U1046 O1048 2.458 . S
U1046 C1049 2.984 . S
U1046 C1050 2.847 . S
U1046 C1063 2.882 . S
U1046 O1064 2.441 . S
U1046 O1065 2.420 . S
U1046 O1066 2.455 . S
U1046 O1067 2.449 . S
O1047 U1046 2.454 . S
O1047 C1049 1.353 . S
O1048 U1046 2.458 . S
O1048 C1049 1.286 . S
C1049 U1046 2.984 . S
C1049 O1047 1.353 . S
C1049 O1048 1.286 . S
C1049 C1051 1.363 . S
C1050 C1040 1.465 . S
C1050 U1046 2.847 . S
C1050 O1064 1.249 . S
C1050 O1065 1.202 . S
C1051 C1049 1.363 . S
C1051 C1053 1.408 . S
C1051 C1056 1.342 . S
C1052 C1053 1.310 . S
C1052 C1055 1.461 . S
C1052 H1072 0.932 . S
C1053 C1051 1.408 . S
C1053 C1052 1.310 . S
C1053 H1073 0.930 . S
C1054 C1055 1.474 . S
C1054 C1056 1.285 . S
C1054 H1074 0.929 . S
C1055 C1052 1.461 . S
C1055 C1054 1.474 . S
C1056 C1051 1.342 . S
C1056 C1054 1.285 . S
C1056 H1075 0.930 . S
C1057 C1060 1.424 . S
C1057 C1062 1.245 . S
C1057 C1063 1.428 . S
C1058 C1061 1.260 . S
C1058 C1062 1.477 . S
C1058 H1076 0.932 . S
C1059 C1060 1.384 . S
C1059 C1061 1.479 . S
C1059 H1077 0.929 . S
C1060 C1057 1.424 . S
C1060 C1059 1.384 . S
C1060 H1078 0.928 . S
C1061 C1058 1.260 . S
C1061 C1059 1.479 . S
C1062 C1057 1.245 . S
C1062 C1058 1.477 . S
C1062 H1079 0.932 . S
C1063 U1046 2.882 . S
C1063 C1057 1.428 . S
C1063 O1066 1.301 . S
C1063 O1067 1.282 . S
O1064 U1046 2.441 . S
O1064 C1050 1.249 . S
O1065 U1046 2.420 . S
O1065 C1050 1.202 . S
O1066 U1046 2.455 . S
O1066 C1063 1.301 . S
O1067 U1046 2.449 . S
O1067 C1063 1.282 . S
H1068 C1041 0.931 . S
H1069 C1043 0.929 . S
H1070 C1044 0.930 . S
H1071 C1045 0.931 . S
H1072 C1052 0.932 . S
H1073 C1053 0.930 . S
H1074 C1054 0.929 . S
H1075 C1056 0.930 . S
H1076 C1058 0.932 . S
H1077 C1059 0.929 . S
H1078 C1060 0.928 . S
H1079 C1062 0.932 . S
C1080 C1081 1.264 . S
C1080 C1085 1.479 . S
C1080 C1090 1.465 . S
C1081 C1080 1.264 . S
C1081 C1083 1.339 . S
C1081 H1108 0.931 . S
C1082 C1083 1.395 . S
C1082 C1084 1.320 . S
C1083 C1081 1.339 . S
C1083 C1082 1.395 . S
C1083 H1109 0.929 . S
C1084 C1082 1.320 . S
C1084 C1085 1.405 . S
C1084 H1110 0.930 . S
C1085 C1080 1.479 . S
C1085 C1084 1.405 . S
C1085 H1111 0.931 . S
U1086 O1087 2.454 . S
U1086 O1088 2.458 . S
U1086 C1089 2.984 . S
U1086 C1090 2.847 . S
U1086 C1103 2.882 . S
U1086 O1104 2.441 . S
U1086 O1105 2.420 . S
U1086 O1106 2.455 . S
U1086 O1107 2.449 . S
O1087 U1086 2.454 . S
O1087 C1089 1.353 . S
O1088 U1086 2.458 . S
O1088 C1089 1.286 . S
C1089 U1086 2.984 . S
C1089 O1087 1.353 . S
C1089 O1088 1.286 . S
C1089 C1091 1.363 . S
C1090 C1080 1.465 . S
C1090 U1086 2.847 . S
C1090 O1104 1.249 . S
C1090 O1105 1.202 . S
C1091 C1089 1.363 . S
C1091 C1093 1.408 . S
C1091 C1096 1.342 . S
C1092 C1093 1.310 . S
C1092 C1095 1.461 . S
C1092 H1112 0.932 . S
C1093 C1091 1.408 . S
C1093 C1092 1.310 . S
C1093 H1113 0.930 . S
C1094 C1095 1.474 . S
C1094 C1096 1.285 . S
C1094 H1114 0.929 . S
C1095 C1092 1.461 . S
C1095 C1094 1.474 . S
C1096 C1091 1.342 . S
C1096 C1094 1.285 . S
C1096 H1115 0.930 . S
C1097 C1100 1.424 . S
C1097 C1102 1.245 . S
C1097 C1103 1.428 . S
C1098 C1101 1.260 . S
C1098 C1102 1.477 . S
C1098 H1116 0.932 . S
C1099 C1100 1.384 . S
C1099 C1101 1.479 . S
C1099 H1117 0.929 . S
C1100 C1097 1.424 . S
C1100 C1099 1.384 . S
C1100 H1118 0.928 . S
C1101 C1098 1.260 . S
C1101 C1099 1.479 . S
C1102 C1097 1.245 . S
C1102 C1098 1.477 . S
C1102 H1119 0.932 . S
C1103 U1086 2.882 . S
C1103 C1097 1.428 . S
C1103 O1106 1.301 . S
C1103 O1107 1.282 . S
O1104 U1086 2.441 . S
O1104 C1090 1.249 . S
O1105 U1086 2.420 . S
O1105 C1090 1.202 . S
O1106 U1086 2.455 . S
O1106 C1103 1.301 . S
O1107 U1086 2.449 . S
O1107 C1103 1.282 . S
H1108 C1081 0.931 . S
H1109 C1083 0.929 . S
H1110 C1084 0.930 . S
H1111 C1085 0.931 . S
H1112 C1092 0.932 . S
H1113 C1093 0.930 . S
H1114 C1094 0.929 . S
H1115 C1096 0.930 . S
H1116 C1098 0.932 . S
H1117 C1099 0.929 . S
H1118 C1100 0.928 . S
H1119 C1102 0.932 . S
C1120 C1121 1.264 . S
C1120 C1125 1.479 . S
C1120 C1130 1.465 . S
C1121 C1120 1.264 . S
C1121 C1123 1.339 . S
C1121 H1148 0.931 . S
C1122 C1123 1.395 . S
C1122 C1124 1.320 . S
C1123 C1121 1.339 . S
C1123 C1122 1.395 . S
C1123 H1149 0.929 . S
C1124 C1122 1.320 . S
C1124 C1125 1.405 . S
C1124 H1150 0.930 . S
C1125 C1120 1.479 . S
C1125 C1124 1.405 . S
C1125 H1151 0.931 . S
U1126 O1127 2.454 . S
U1126 O1128 2.458 . S
U1126 C1129 2.984 . S
U1126 C1130 2.847 . S
U1126 C1143 2.882 . S
U1126 O1144 2.441 . S
U1126 O1145 2.420 . S
U1126 O1146 2.455 . S
U1126 O1147 2.449 . S
O1127 U1126 2.454 . S
O1127 C1129 1.353 . S
O1128 U1126 2.458 . S
O1128 C1129 1.286 . S
C1129 U1126 2.984 . S
C1129 O1127 1.353 . S
C1129 O1128 1.286 . S
C1129 C1131 1.363 . S
C1130 C1120 1.465 . S
C1130 U1126 2.847 . S
C1130 O1144 1.249 . S
C1130 O1145 1.202 . S
C1131 C1129 1.363 . S
C1131 C1133 1.408 . S
C1131 C1136 1.342 . S
C1132 C1133 1.310 . S
C1132 C1135 1.461 . S
C1132 H1152 0.932 . S
C1133 C1131 1.408 . S
C1133 C1132 1.310 . S
C1133 H1153 0.930 . S
C1134 C1135 1.474 . S
C1134 C1136 1.285 . S
C1134 H1154 0.929 . S
C1135 C1132 1.461 . S
C1135 C1134 1.474 . S
C1136 C1131 1.342 . S
C1136 C1134 1.285 . S
C1136 H1155 0.930 . S
C1137 C1140 1.424 . S
C1137 C1142 1.245 . S
C1137 C1143 1.428 . S
C1138 C1141 1.260 . S
C1138 C1142 1.477 . S
C1138 H1156 0.932 . S
C1139 C1140 1.384 . S
C1139 C1141 1.479 . S
C1139 H1157 0.929 . S
C1140 C1137 1.424 . S
C1140 C1139 1.384 . S
C1140 H1158 0.928 . S
C1141 C1138 1.260 . S
C1141 C1139 1.479 . S
C1142 C1137 1.245 . S
C1142 C1138 1.477 . S
C1142 H1159 0.932 . S
C1143 U1126 2.882 . S
C1143 C1137 1.428 . S
C1143 O1146 1.301 . S
C1143 O1147 1.282 . S
O1144 U1126 2.441 . S
O1144 C1130 1.249 . S
O1145 U1126 2.420 . S
O1145 C1130 1.202 . S
O1146 U1126 2.455 . S
O1146 C1143 1.301 . S
O1147 U1126 2.449 . S
O1147 C1143 1.282 . S
H1148 C1121 0.931 . S
H1149 C1123 0.929 . S
H1150 C1124 0.930 . S
H1151 C1125 0.931 . S
H1152 C1132 0.932 . S
H1153 C1133 0.930 . S
H1154 C1134 0.929 . S
H1155 C1136 0.930 . S
H1156 C1138 0.932 . S
H1157 C1139 0.929 . S
H1158 C1140 0.928 . S
H1159 C1142 0.932 . S
C1160 C1161 1.264 . S
C1160 C1165 1.479 . S
C1160 C1170 1.465 . S
C1161 C1160 1.264 . S
C1161 C1163 1.339 . S
C1161 H1188 0.931 . S
C1162 C1163 1.395 . S
C1162 C1164 1.320 . S
C1163 C1161 1.339 . S
C1163 C1162 1.395 . S
C1163 H1189 0.929 . S
C1164 C1162 1.320 . S
C1164 C1165 1.405 . S
C1164 H1190 0.930 . S
C1165 C1160 1.479 . S
C1165 C1164 1.405 . S
C1165 H1191 0.931 . S
U1166 O1167 2.454 . S
U1166 O1168 2.458 . S
U1166 C1169 2.984 . S
U1166 C1170 2.847 . S
U1166 C1183 2.882 . S
U1166 O1184 2.441 . S
U1166 O1185 2.420 . S
U1166 O1186 2.455 . S
U1166 O1187 2.449 . S
O1167 U1166 2.454 . S
O1167 C1169 1.353 . S
O1168 U1166 2.458 . S
O1168 C1169 1.286 . S
C1169 U1166 2.984 . S
C1169 O1167 1.353 . S
C1169 O1168 1.286 . S
C1169 C1171 1.363 . S
C1170 C1160 1.465 . S
C1170 U1166 2.847 . S
C1170 O1184 1.249 . S
C1170 O1185 1.202 . S
C1171 C1169 1.363 . S
C1171 C1173 1.408 . S
C1171 C1176 1.342 . S
C1172 C1173 1.310 . S
C1172 C1175 1.461 . S
C1172 H1192 0.932 . S
C1173 C1171 1.408 . S
C1173 C1172 1.310 . S
C1173 H1193 0.930 . S
C1174 C1175 1.474 . S
C1174 C1176 1.285 . S
C1174 H1194 0.929 . S
C1175 C1172 1.461 . S
C1175 C1174 1.474 . S
C1176 C1171 1.342 . S
C1176 C1174 1.285 . S
C1176 H1195 0.930 . S
C1177 C1180 1.424 . S
C1177 C1182 1.245 . S
C1177 C1183 1.428 . S
C1178 C1181 1.260 . S
C1178 C1182 1.477 . S
C1178 H1196 0.932 . S
C1179 C1180 1.384 . S
C1179 C1181 1.479 . S
C1179 H1197 0.929 . S
C1180 C1177 1.424 . S
C1180 C1179 1.384 . S
C1180 H1198 0.928 . S
C1181 C1178 1.260 . S
C1181 C1179 1.479 . S
C1182 C1177 1.245 . S
C1182 C1178 1.477 . S
C1182 H1199 0.932 . S
C1183 U1166 2.882 . S
C1183 C1177 1.428 . S
C1183 O1186 1.301 . S
C1183 O1187 1.282 . S
O1184 U1166 2.441 . S
O1184 C1170 1.249 . S
O1185 U1166 2.420 . S
O1185 C1170 1.202 . S
O1186 U1166 2.455 . S
O1186 C1183 1.301 . S
O1187 U1166 2.449 . S
O1187 C1183 1.282 . S
H1188 C1161 0.931 . S
H1189 C1163 0.929 . S
H1190 C1164 0.930 . S
H1191 C1165 0.931 . S
H1192 C1172 0.932 . S
H1193 C1173 0.930 . S
H1194 C1174 0.929 . S
H1195 C1176 0.930 . S
H1196 C1178 0.932 . S
H1197 C1179 0.929 . S
H1198 C1180 0.928 . S
H1199 C1182 0.932 . S
C1200 C1201 1.264 . S
C1200 C1205 1.479 . S
C1200 C1210 1.465 . S
C1201 C1200 1.264 . S
C1201 C1203 1.339 . S
C1201 H1228 0.931 . S
C1202 C1203 1.395 . S
C1202 C1204 1.320 . S
C1203 C1201 1.339 . S
C1203 C1202 1.395 . S
C1203 H1229 0.929 . S
C1204 C1202 1.320 . S
C1204 C1205 1.405 . S
C1204 H1230 0.930 . S
C1205 C1200 1.479 . S
C1205 C1204 1.405 . S
C1205 H1231 0.931 . S
U1206 O1207 2.454 . S
U1206 O1208 2.458 . S
U1206 C1209 2.984 . S
U1206 C1210 2.847 . S
U1206 C1223 2.882 . S
U1206 O1224 2.441 . S
U1206 O1225 2.420 . S
U1206 O1226 2.455 . S
U1206 O1227 2.449 . S
O1207 U1206 2.454 . S
O1207 C1209 1.353 . S
O1208 U1206 2.458 . S
O1208 C1209 1.286 . S
C1209 U1206 2.984 . S
C1209 O1207 1.353 . S
C1209 O1208 1.286 . S
C1209 C1211 1.363 . S
C1210 C1200 1.465 . S
C1210 U1206 2.847 . S
C1210 O1224 1.249 . S
C1210 O1225 1.202 . S
C1211 C1209 1.363 . S
C1211 C1213 1.408 . S
C1211 C1216 1.342 . S
C1212 C1213 1.310 . S
C1212 C1215 1.461 . S
C1212 H1232 0.932 . S
C1213 C1211 1.408 . S
C1213 C1212 1.310 . S
C1213 H1233 0.930 . S
C1214 C1215 1.474 . S
C1214 C1216 1.285 . S
C1214 H1234 0.929 . S
C1215 C1212 1.461 . S
C1215 C1214 1.474 . S
C1216 C1211 1.342 . S
C1216 C1214 1.285 . S
C1216 H1235 0.930 . S
C1217 C1220 1.424 . S
C1217 C1222 1.245 . S
C1217 C1223 1.428 . S
C1218 C1221 1.260 . S
C1218 C1222 1.477 . S
C1218 H1236 0.932 . S
C1219 C1220 1.384 . S
C1219 C1221 1.479 . S
C1219 H1237 0.929 . S
C1220 C1217 1.424 . S
C1220 C1219 1.384 . S
C1220 H1238 0.928 . S
C1221 C1218 1.260 . S
C1221 C1219 1.479 . S
C1222 C1217 1.245 . S
C1222 C1218 1.477 . S
C1222 H1239 0.932 . S
C1223 U1206 2.882 . S
C1223 C1217 1.428 . S
C1223 O1226 1.301 . S
C1223 O1227 1.282 . S
O1224 U1206 2.441 . S
O1224 C1210 1.249 . S
O1225 U1206 2.420 . S
O1225 C1210 1.202 . S
O1226 U1206 2.455 . S
O1226 C1223 1.301 . S
O1227 U1206 2.449 . S
O1227 C1223 1.282 . S
H1228 C1201 0.931 . S
H1229 C1203 0.929 . S
H1230 C1204 0.930 . S
H1231 C1205 0.931 . S
H1232 C1212 0.932 . S
H1233 C1213 0.930 . S
H1234 C1214 0.929 . S
H1235 C1216 0.930 . S
H1236 C1218 0.932 . S
H1237 C1219 0.929 . S
H1238 C1220 0.928 . S
H1239 C1222 0.932 . S
C1240 C1241 1.264 . S
C1240 C1245 1.479 . S
C1240 C1250 1.465 . S
C1241 C1240 1.264 . S
C1241 C1243 1.339 . S
C1241 H1268 0.931 . S
C1242 C1243 1.395 . S
C1242 C1244 1.320 . S
C1243 C1241 1.339 . S
C1243 C1242 1.395 . S
C1243 H1269 0.929 . S
C1244 C1242 1.320 . S
C1244 C1245 1.405 . S
C1244 H1270 0.930 . S
C1245 C1240 1.479 . S
C1245 C1244 1.405 . S
C1245 H1271 0.931 . S
U1246 O1247 2.454 . S
U1246 O1248 2.458 . S
U1246 C1249 2.984 . S
U1246 C1250 2.847 . S
U1246 C1263 2.882 . S
U1246 O1264 2.441 . S
U1246 O1265 2.420 . S
U1246 O1266 2.455 . S
U1246 O1267 2.449 . S
O1247 U1246 2.454 . S
O1247 C1249 1.353 . S
O1248 U1246 2.458 . S
O1248 C1249 1.286 . S
C1249 U1246 2.984 . S
C1249 O1247 1.353 . S
C1249 O1248 1.286 . S
C1249 C1251 1.363 . S
C1250 C1240 1.465 . S
C1250 U1246 2.847 . S
C1250 O1264 1.249 . S
C1250 O1265 1.202 . S
C1251 C1249 1.363 . S
C1251 C1253 1.408 . S
C1251 C1256 1.342 . S
C1252 C1253 1.310 . S
C1252 C1255 1.461 . S
C1252 H1272 0.932 . S
C1253 C1251 1.408 . S
C1253 C1252 1.310 . S
C1253 H1273 0.930 . S
C1254 C1255 1.474 . S
C1254 C1256 1.285 . S
C1254 H1274 0.929 . S
C1255 C1252 1.461 . S
C1255 C1254 1.474 . S
C1256 C1251 1.342 . S
C1256 C1254 1.285 . S
C1256 H1275 0.930 . S
C1257 C1260 1.424 . S
C1257 C1262 1.245 . S
C1257 C1263 1.428 . S
C1258 C1261 1.260 . S
C1258 C1262 1.477 . S
C1258 H1276 0.932 . S
C1259 C1260 1.384 . S
C1259 C1261 1.479 . S
C1259 H1277 0.929 . S
C1260 C1257 1.424 . S
C1260 C1259 1.384 . S
C1260 H1278 0.928 . S
C1261 C1258 1.260 . S
C1261 C1259 1.479 . S
C1262 C1257 1.245 . S
C1262 C1258 1.477 . S
C1262 H1279 0.932 . S
C1263 U1246 2.882 . S
C1263 C1257 1.428 . S
C1263 O1266 1.301 . S
C1263 O1267 1.282 . S
O1264 U1246 2.441 . S
O1264 C1250 1.249 . S
O1265 U1246 2.420 . S
O1265 C1250 1.202 . S
O1266 U1246 2.455 . S
O1266 C1263 1.301 . S
O1267 U1246 2.449 . S
O1267 C1263 1.282 . S
H1268 C1241 0.931 . S
H1269 C1243 0.929 . S
H1270 C1244 0.930 . S
H1271 C1245 0.931 . S
H1272 C1252 0.932 . S
H1273 C1253 0.930 . S
H1274 C1254 0.929 . S
H1275 C1256 0.930 . S
H1276 C1258 0.932 . S
H1277 C1259 0.929 . S
H1278 C1260 0.928 . S
H1279 C1262 0.932 . S
C1280 C1281 1.384 . S
C1280 C1282 1.384 . S
C1280 H1308 0.931 . S
C1281 C1280 1.384 . S
C1281 C1284 1.382 . S
C1282 C1280 1.384 . S
C1282 C1283 1.381 . S
C1282 H1309 0.930 . S
C1283 C1282 1.381 . S
C1283 C1285 1.381 . S
C1283 C1286 1.487 . S
C1284 C1281 1.382 . S
C1284 C1285 1.387 . S
C1284 H1310 0.930 . S
C1285 C1283 1.381 . S
C1285 C1284 1.387 . S
C1285 H1311 0.931 . S
C1286 C1283 1.487 . S
C1286 C1293 1.399 . S
C1286 N1324 1.343 . S
C1287 C1288 1.384 . S
C1287 C1289 1.384 . S
C1287 H1312 0.931 . S
C1288 C1287 1.384 . S
C1288 C1291 1.382 . S
C1289 C1287 1.384 . S
C1289 C1290 1.381 . S
C1289 H1313 0.930 . S
C1290 C1289 1.381 . S
C1290 C1292 1.381 . S
C1290 C1293 1.487 . S
C1291 C1288 1.382 . S
C1291 C1292 1.387 . S
C1291 H1314 0.930 . S
C1292 C1290 1.381 . S
C1292 C1291 1.387 . S
C1292 H1315 0.931 . S
C1293 C1286 1.399 . S
C1293 C1290 1.487 . S
C1293 N1325 1.343 . S
C1294 C1295 1.384 . S
C1294 C1296 1.384 . S
C1294 H1316 0.931 . S
C1295 C1294 1.384 . S
C1295 C1298 1.382 . S
C1296 C1294 1.384 . S
C1296 C1297 1.381 . S
C1296 H1317 0.930 . S
C1297 C1296 1.381 . S
C1297 C1299 1.381 . S
C1297 C1300 1.487 . S
C1298 C1295 1.382 . S
C1298 C1299 1.387 . S
C1298 H1318 0.930 . S
C1299 C1297 1.381 . S
C1299 C1298 1.387 . S
C1299 H1319 0.931 . S
C1300 C1297 1.487 . S
C1300 C1307 1.399 . S
C1300 N1325 1.343 1_556 S
C1301 C1302 1.384 . S
C1301 C1303 1.384 . S
C1301 H1320 0.931 . S
C1302 C1301 1.384 . S
C1302 C1305 1.382 . S
C1303 C1301 1.384 . S
C1303 C1304 1.381 . S
C1303 H1321 0.930 . S
C1304 C1303 1.381 . S
C1304 C1306 1.381 . S
C1304 C1307 1.487 . S
C1305 C1302 1.382 . S
C1305 C1306 1.387 . S
C1305 H1322 0.930 . S
C1306 C1304 1.381 . S
C1306 C1305 1.387 . S
C1306 H1323 0.931 . S
C1307 C1300 1.399 . S
C1307 C1304 1.487 . S
C1307 N1324 1.343 1_556 S
H1308 C1280 0.931 . S
H1309 C1282 0.930 . S
H1310 C1284 0.930 . S
H1311 C1285 0.931 . S
H1312 C1287 0.931 . S
H1313 C1289 0.930 . S
H1314 C1291 0.930 . S
H1315 C1292 0.931 . S
H1316 C1294 0.931 . S
H1317 C1296 0.930 . S
H1318 C1298 0.930 . S
H1319 C1299 0.931 . S
H1320 C1301 0.931 . S
H1321 C1303 0.930 . S
H1322 C1305 0.930 . S
H1323 C1306 0.931 . S
N1324 C1286 1.343 . S
N1324 C1307 1.343 1_554 S
N1325 C1293 1.343 . S
N1325 C1300 1.343 1_554 S
C1326 C1327 1.384 . S
C1326 C1328 1.384 . S
C1326 H1354 0.931 . S
C1327 C1326 1.384 . S
C1327 C1330 1.382 . S
C1328 C1326 1.384 . S
C1328 C1329 1.381 . S
C1328 H1355 0.930 . S
C1329 C1328 1.381 . S
C1329 C1331 1.381 . S
C1329 C1332 1.487 . S
C1330 C1327 1.382 . S
C1330 C1331 1.387 . S
C1330 H1356 0.930 . S
C1331 C1329 1.381 . S
C1331 C1330 1.387 . S
C1331 H1357 0.931 . S
C1332 C1329 1.487 . S
C1332 C1339 1.399 . S
C1332 N1370 1.343 1_556 S
C1333 C1334 1.384 . S
C1333 C1335 1.384 . S
C1333 H1358 0.931 . S
C1334 C1333 1.384 . S
C1334 C1337 1.382 . S
C1335 C1333 1.384 . S
C1335 C1336 1.381 . S
C1335 H1359 0.930 . S
C1336 C1335 1.381 . S
C1336 C1338 1.381 . S
C1336 C1339 1.487 . S
C1337 C1334 1.382 . S
C1337 C1338 1.387 . S
C1337 H1360 0.930 . S
C1338 C1336 1.381 . S
C1338 C1337 1.387 . S
C1338 H1361 0.931 . S
C1339 C1332 1.399 . S
C1339 C1336 1.487 . S
C1339 N1371 1.343 1_556 S
C1340 C1341 1.384 . S
C1340 C1342 1.384 . S
C1340 H1362 0.931 . S
C1341 C1340 1.384 . S
C1341 C1344 1.382 . S
C1342 C1340 1.384 . S
C1342 C1343 1.381 . S
C1342 H1363 0.930 . S
C1343 C1342 1.381 . S
C1343 C1345 1.381 . S
C1343 C1346 1.487 . S
C1344 C1341 1.382 . S
C1344 C1345 1.387 . S
C1344 H1364 0.930 . S
C1345 C1343 1.381 . S
C1345 C1344 1.387 . S
C1345 H1365 0.931 . S
C1346 C1343 1.487 . S
C1346 C1353 1.399 . S
C1346 N1371 1.343 . S
C1347 C1348 1.384 . S
C1347 C1349 1.384 . S
C1347 H1366 0.931 . S
C1348 C1347 1.384 . S
C1348 C1351 1.382 . S
C1349 C1347 1.384 . S
C1349 C1350 1.381 . S
C1349 H1367 0.930 . S
C1350 C1349 1.381 . S
C1350 C1352 1.381 . S
C1350 C1353 1.487 . S
C1351 C1348 1.382 . S
C1351 C1352 1.387 . S
C1351 H1368 0.930 . S
C1352 C1350 1.381 . S
C1352 C1351 1.387 . S
C1352 H1369 0.931 . S
C1353 C1346 1.399 . S
C1353 C1350 1.487 . S
C1353 N1370 1.343 . S
H1354 C1326 0.931 . S
H1355 C1328 0.930 . S
H1356 C1330 0.930 . S
H1357 C1331 0.931 . S
H1358 C1333 0.931 . S
H1359 C1335 0.930 . S
H1360 C1337 0.930 . S
H1361 C1338 0.931 . S
H1362 C1340 0.931 . S
H1363 C1342 0.930 . S
H1364 C1344 0.930 . S
H1365 C1345 0.931 . S
H1366 C1347 0.931 . S
H1367 C1349 0.930 . S
H1368 C1351 0.930 . S
H1369 C1352 0.931 . S
N1370 C1332 1.343 1_554 S
N1370 C1353 1.343 . S
N1371 C1339 1.343 1_554 S
N1371 C1346 1.343 . S
C1372 C1373 1.384 . S
C1372 C1374 1.384 . S
C1372 H1400 0.931 . S
C1373 C1372 1.384 . S
C1373 C1376 1.382 . S
C1374 C1372 1.384 . S
C1374 C1375 1.381 . S
C1374 H1401 0.930 . S
C1375 C1374 1.381 . S
C1375 C1377 1.381 . S
C1375 C1378 1.487 . S
C1376 C1373 1.382 . S
C1376 C1377 1.387 . S
C1376 H1402 0.930 . S
C1377 C1375 1.381 . S
C1377 C1376 1.387 . S
C1377 H1403 0.931 . S
C1378 C1375 1.487 . S
C1378 C1385 1.399 . S
C1378 N1416 1.343 . S
C1379 C1380 1.384 . S
C1379 C1381 1.384 . S
C1379 H1404 0.931 . S
C1380 C1379 1.384 . S
C1380 C1383 1.382 . S
C1381 C1379 1.384 . S
C1381 C1382 1.381 . S
C1381 H1405 0.930 . S
C1382 C1381 1.381 . S
C1382 C1384 1.381 . S
C1382 C1385 1.487 . S
C1383 C1380 1.382 . S
C1383 C1384 1.387 . S
C1383 H1406 0.930 . S
C1384 C1382 1.381 . S
C1384 C1383 1.387 . S
C1384 H1407 0.931 . S
C1385 C1378 1.399 . S
C1385 C1382 1.487 . S
C1385 N1417 1.343 . S
C1386 C1387 1.384 . S
C1386 C1388 1.384 . S
C1386 H1408 0.931 . S
C1387 C1386 1.384 . S
C1387 C1390 1.382 . S
C1388 C1386 1.384 . S
C1388 C1389 1.381 . S
C1388 H1409 0.930 . S
C1389 C1388 1.381 . S
C1389 C1391 1.381 . S
C1389 C1392 1.487 . S
C1390 C1387 1.382 . S
C1390 C1391 1.387 . S
C1390 H1410 0.930 . S
C1391 C1389 1.381 . S
C1391 C1390 1.387 . S
C1391 H1411 0.931 . S
C1392 C1389 1.487 . S
C1392 C1399 1.399 . S
C1392 N1417 1.343 1_556 S
C1393 C1394 1.384 . S
C1393 C1395 1.384 . S
C1393 H1412 0.931 . S
C1394 C1393 1.384 . S
C1394 C1397 1.382 . S
C1395 C1393 1.384 . S
C1395 C1396 1.381 . S
C1395 H1413 0.930 . S
C1396 C1395 1.381 . S
C1396 C1398 1.381 . S
C1396 C1399 1.487 . S
C1397 C1394 1.382 . S
C1397 C1398 1.387 . S
C1397 H1414 0.930 . S
C1398 C1396 1.381 . S
C1398 C1397 1.387 . S
C1398 H1415 0.931 . S
C1399 C1392 1.399 . S
C1399 C1396 1.487 . S
C1399 N1416 1.343 1_556 S
H1400 C1372 0.931 . S
H1401 C1374 0.930 . S
H1402 C1376 0.930 . S
H1403 C1377 0.931 . S
H1404 C1379 0.931 . S
H1405 C1381 0.930 . S
H1406 C1383 0.930 . S
H1407 C1384 0.931 . S
H1408 C1386 0.931 . S
H1409 C1388 0.930 . S
H1410 C1390 0.930 . S
H1411 C1391 0.931 . S
H1412 C1393 0.931 . S
H1413 C1395 0.930 . S
H1414 C1397 0.930 . S
H1415 C1398 0.931 . S
N1416 C1378 1.343 . S
N1416 C1399 1.343 1_554 S
N1417 C1385 1.343 . S
N1417 C1392 1.343 1_554 S
C1418 C1419 1.384 . S
C1418 C1420 1.384 . S
C1418 H1446 0.931 . S
C1419 C1418 1.384 . S
C1419 C1422 1.382 . S
C1420 C1418 1.384 . S
C1420 C1421 1.381 . S
C1420 H1447 0.930 . S
C1421 C1420 1.381 . S
C1421 C1423 1.381 . S
C1421 C1424 1.487 . S
C1422 C1419 1.382 . S
C1422 C1423 1.387 . S
C1422 H1448 0.930 . S
C1423 C1421 1.381 . S
C1423 C1422 1.387 . S
C1423 H1449 0.931 . S
C1424 C1421 1.487 . S
C1424 C1431 1.399 . S
C1424 N1462 1.343 1_556 S
C1425 C1426 1.384 . S
C1425 C1427 1.384 . S
C1425 H1450 0.931 . S
C1426 C1425 1.384 . S
C1426 C1429 1.382 . S
C1427 C1425 1.384 . S
C1427 C1428 1.381 . S
C1427 H1451 0.930 . S
C1428 C1427 1.381 . S
C1428 C1430 1.381 . S
C1428 C1431 1.487 . S
C1429 C1426 1.382 . S
C1429 C1430 1.387 . S
C1429 H1452 0.930 . S
C1430 C1428 1.381 . S
C1430 C1429 1.387 . S
C1430 H1453 0.931 . S
C1431 C1424 1.399 . S
C1431 C1428 1.487 . S
C1431 N1463 1.343 1_556 S
C1432 C1433 1.384 . S
C1432 C1434 1.384 . S
C1432 H1454 0.931 . S
C1433 C1432 1.384 . S
C1433 C1436 1.382 . S
C1434 C1432 1.384 . S
C1434 C1435 1.381 . S
C1434 H1455 0.930 . S
C1435 C1434 1.381 . S
C1435 C1437 1.381 . S
C1435 C1438 1.487 . S
C1436 C1433 1.382 . S
C1436 C1437 1.387 . S
C1436 H1456 0.930 . S
C1437 C1435 1.381 . S
C1437 C1436 1.387 . S
C1437 H1457 0.931 . S
C1438 C1435 1.487 . S
C1438 C1445 1.399 . S
C1438 N1463 1.343 . S
C1439 C1440 1.384 . S
C1439 C1441 1.384 . S
C1439 H1458 0.931 . S
C1440 C1439 1.384 . S
C1440 C1443 1.382 . S
C1441 C1439 1.384 . S
C1441 C1442 1.381 . S
C1441 H1459 0.930 . S
C1442 C1441 1.381 . S
C1442 C1444 1.381 . S
C1442 C1445 1.487 . S
C1443 C1440 1.382 . S
C1443 C1444 1.387 . S
C1443 H1460 0.930 . S
C1444 C1442 1.381 . S
C1444 C1443 1.387 . S
C1444 H1461 0.931 . S
C1445 C1438 1.399 . S
C1445 C1442 1.487 . S
C1445 N1462 1.343 . S
H1446 C1418 0.931 . S
H1447 C1420 0.930 . S
H1448 C1422 0.930 . S
H1449 C1423 0.931 . S
H1450 C1425 0.931 . S
H1451 C1427 0.930 . S
H1452 C1429 0.930 . S
H1453 C1430 0.931 . S
H1454 C1432 0.931 . S
H1455 C1434 0.930 . S
H1456 C1436 0.930 . S
H1457 C1437 0.931 . S
H1458 C1439 0.931 . S
H1459 C1441 0.930 . S
H1460 C1443 0.930 . S
H1461 C1444 0.931 . S
N1462 C1424 1.343 1_554 S
N1462 C1445 1.343 . S
N1463 C1431 1.343 1_554 S
N1463 C1438 1.343 . S
C1464 C1465 1.384 . S
C1464 C1466 1.384 . S
C1464 H1492 0.931 . S
C1465 C1464 1.384 . S
C1465 C1468 1.382 . S
C1466 C1464 1.384 . S
C1466 C1467 1.381 . S
C1466 H1493 0.930 . S
C1467 C1466 1.381 . S
C1467 C1469 1.381 . S
C1467 C1470 1.487 . S
C1468 C1465 1.382 . S
C1468 C1469 1.387 . S
C1468 H1494 0.930 . S
C1469 C1467 1.381 . S
C1469 C1468 1.387 . S
C1469 H1495 0.931 . S
C1470 C1467 1.487 . S
C1470 C1477 1.399 . S
C1470 N1508 1.343 1_655 S
C1471 C1472 1.384 . S
C1471 C1473 1.384 . S
C1471 H1496 0.931 . S
C1472 C1471 1.384 . S
C1472 C1475 1.382 . S
C1473 C1471 1.384 . S
C1473 C1474 1.381 . S
C1473 H1497 0.930 . S
C1474 C1473 1.381 . S
C1474 C1476 1.381 . S
C1474 C1477 1.487 . S
C1475 C1472 1.382 . S
C1475 C1476 1.387 . S
C1475 H1498 0.930 . S
C1476 C1474 1.381 . S
C1476 C1475 1.387 . S
C1476 H1499 0.931 . S
C1477 C1470 1.399 . S
C1477 C1474 1.487 . S
C1477 N1509 1.343 1_655 S
C1478 C1479 1.384 . S
C1478 C1480 1.384 . S
C1478 H1500 0.931 . S
C1479 C1478 1.384 . S
C1479 C1482 1.382 . S
C1480 C1478 1.384 . S
C1480 C1481 1.381 . S
C1480 H1501 0.930 . S
C1481 C1480 1.381 . S
C1481 C1483 1.381 . S
C1481 C1484 1.487 . S
C1482 C1479 1.382 . S
C1482 C1483 1.387 . S
C1482 H1502 0.930 . S
C1483 C1481 1.381 . S
C1483 C1482 1.387 . S
C1483 H1503 0.931 . S
C1484 C1481 1.487 . S
C1484 C1491 1.399 . S
C1484 N1509 1.343 . S
C1485 C1486 1.384 . S
C1485 C1487 1.384 . S
C1485 H1504 0.931 . S
C1486 C1485 1.384 . S
C1486 C1489 1.382 . S
C1487 C1485 1.384 . S
C1487 C1488 1.381 . S
C1487 H1505 0.930 . S
C1488 C1487 1.381 . S
C1488 C1490 1.381 . S
C1488 C1491 1.487 . S
C1489 C1486 1.382 . S
C1489 C1490 1.387 . S
C1489 H1506 0.930 . S
C1490 C1488 1.381 . S
C1490 C1489 1.387 . S
C1490 H1507 0.931 . S
C1491 C1484 1.399 . S
C1491 C1488 1.487 . S
C1491 N1508 1.343 . S
H1492 C1464 0.931 . S
H1493 C1466 0.930 . S
H1494 C1468 0.930 . S
H1495 C1469 0.931 . S
H1496 C1471 0.931 . S
H1497 C1473 0.930 . S
H1498 C1475 0.930 . S
H1499 C1476 0.931 . S
H1500 C1478 0.931 . S
H1501 C1480 0.930 . S
H1502 C1482 0.930 . S
H1503 C1483 0.931 . S
H1504 C1485 0.931 . S
H1505 C1487 0.930 . S
H1506 C1489 0.930 . S
H1507 C1490 0.931 . S
N1508 C1470 1.343 1_455 S
N1508 C1491 1.343 . S
N1509 C1477 1.343 1_455 S
N1509 C1484 1.343 . S
C1510 C1511 1.384 . S
C1510 C1512 1.384 . S
C1510 H1538 0.931 . S
C1511 C1510 1.384 . S
C1511 C1514 1.382 . S
C1512 C1510 1.384 . S
C1512 C1513 1.381 . S
C1512 H1539 0.930 . S
C1513 C1512 1.381 . S
C1513 C1515 1.381 . S
C1513 C1516 1.487 . S
C1514 C1511 1.382 . S
C1514 C1515 1.387 . S
C1514 H1540 0.930 . S
C1515 C1513 1.381 . S
C1515 C1514 1.387 . S
C1515 H1541 0.931 . S
C1516 C1513 1.487 . S
C1516 C1523 1.399 . S
C1516 N1554 1.305 1_565 S
C1517 C1518 1.384 . S
C1517 C1519 1.384 . S
C1517 H1542 0.931 . S
C1518 C1517 1.384 . S
C1518 C1521 1.382 . S
C1519 C1517 1.384 . S
C1519 C1520 1.381 . S
C1519 H1543 0.930 . S
C1520 C1519 1.381 . S
C1520 C1522 1.381 . S
C1520 C1523 1.487 . S
C1521 C1518 1.382 . S
C1521 C1522 1.387 . S
C1521 H1544 0.930 . S
C1522 C1520 1.381 . S
C1522 C1521 1.387 . S
C1522 H1545 0.931 . S
C1523 C1516 1.399 . S
C1523 C1520 1.487 . S
C1523 N1555 1.343 1_565 S
C1524 C1525 1.384 . S
C1524 C1526 1.384 . S
C1524 H1546 0.931 . S
C1525 C1524 1.384 . S
C1525 C1528 1.382 . S
C1526 C1524 1.384 . S
C1526 C1527 1.381 . S
C1526 H1547 0.930 . S
C1527 C1526 1.381 . S
C1527 C1529 1.381 . S
C1527 C1530 1.487 . S
C1528 C1525 1.382 . S
C1528 C1529 1.387 . S
C1528 H1548 0.930 . S
C1529 C1527 1.381 . S
C1529 C1528 1.387 . S
C1529 H1549 0.931 . S
C1530 C1527 1.487 . S
C1530 C1537 1.399 . S
C1530 N1555 1.343 . S
C1531 C1532 1.384 . S
C1531 C1533 1.384 . S
C1531 H1550 0.931 . S
C1532 C1531 1.384 . S
C1532 C1535 1.382 . S
C1533 C1531 1.384 . S
C1533 C1534 1.381 . S
C1533 H1551 0.930 . S
C1534 C1533 1.381 . S
C1534 C1536 1.381 . S
C1534 C1537 1.487 . S
C1535 C1532 1.382 . S
C1535 C1536 1.387 . S
C1535 H1552 0.930 . S
C1536 C1534 1.381 . S
C1536 C1535 1.387 . S
C1536 H1553 0.931 . S
C1537 C1530 1.399 . S
C1537 C1534 1.487 . S
C1537 N1554 1.382 . S
H1538 C1510 0.931 . S
H1539 C1512 0.930 . S
H1540 C1514 0.930 . S
H1541 C1515 0.931 . S
H1542 C1517 0.931 . S
H1543 C1519 0.930 . S
H1544 C1521 0.930 . S
H1545 C1522 0.931 . S
H1546 C1524 0.931 . S
H1547 C1526 0.930 . S
H1548 C1528 0.930 . S
H1549 C1529 0.931 . S
H1550 C1531 0.931 . S
H1551 C1533 0.930 . S
H1552 C1535 0.930 . S
H1553 C1536 0.931 . S
N1554 C1516 1.305 1_545 S
N1554 C1537 1.382 . S
N1555 C1523 1.343 1_545 S
N1555 C1530 1.343 . S
C1556 C1557 1.384 . S
C1556 C1558 1.384 . S
C1556 H1584 0.931 . S
C1557 C1556 1.384 . S
C1557 C1560 1.382 . S
C1558 C1556 1.384 . S
C1558 C1559 1.381 . S
C1558 H1585 0.930 . S
C1559 C1558 1.381 . S
C1559 C1561 1.381 . S
C1559 C1562 1.487 . S
C1560 C1557 1.382 . S
C1560 C1561 1.387 . S
C1560 H1586 0.930 . S
C1561 C1559 1.381 . S
C1561 C1560 1.387 . S
C1561 H1587 0.931 . S
C1562 C1559 1.487 . S
C1562 C1569 1.399 . S
C1562 N1600 1.343 . S
C1563 C1564 1.384 . S
C1563 C1565 1.384 . S
C1563 H1588 0.931 . S
C1564 C1563 1.384 . S
C1564 C1567 1.382 . S
C1565 C1563 1.384 . S
C1565 C1566 1.381 . S
C1565 H1589 0.930 . S
C1566 C1565 1.381 . S
C1566 C1568 1.381 . S
C1566 C1569 1.487 . S
C1567 C1564 1.382 . S
C1567 C1568 1.387 . S
C1567 H1590 0.930 . S
C1568 C1566 1.381 . S
C1568 C1567 1.387 . S
C1568 H1591 0.931 . S
C1569 C1562 1.399 . S
C1569 C1566 1.487 . S
C1569 N1601 1.403 . S
C1570 C1571 1.384 . S
C1570 C1572 1.384 . S
C1570 H1592 0.931 . S
C1571 C1570 1.384 . S
C1571 C1574 1.382 . S
C1572 C1570 1.384 . S
C1572 C1573 1.381 . S
C1572 H1593 0.930 . S
C1573 C1572 1.381 . S
C1573 C1575 1.381 . S
C1573 C1576 1.487 . S
C1574 C1571 1.382 . S
C1574 C1575 1.387 . S
C1574 H1594 0.930 . S
C1575 C1573 1.381 . S
C1575 C1574 1.387 . S
C1575 H1595 0.931 . S
C1576 C1573 1.487 . S
C1576 C1583 1.399 . S
C1576 N1601 1.284 1_655 S
C1577 C1578 1.384 . S
C1577 C1579 1.384 . S
C1577 H1596 0.931 . S
C1578 C1577 1.384 . S
C1578 C1581 1.382 . S
C1579 C1577 1.384 . S
C1579 C1580 1.381 . S
C1579 H1597 0.930 . S
C1580 C1579 1.381 . S
C1580 C1582 1.381 . S
C1580 C1583 1.487 . S
C1581 C1578 1.382 . S
C1581 C1582 1.387 . S
C1581 H1598 0.930 . S
C1582 C1580 1.381 . S
C1582 C1581 1.387 . S
C1582 H1599 0.931 . S
C1583 C1576 1.399 . S
C1583 C1580 1.487 . S
C1583 N1600 1.343 1_655 S
H1584 C1556 0.931 . S
H1585 C1558 0.930 . S
H1586 C1560 0.930 . S
H1587 C1561 0.931 . S
H1588 C1563 0.931 . S
H1589 C1565 0.930 . S
H1590 C1567 0.930 . S
H1591 C1568 0.931 . S
H1592 C1570 0.931 . S
H1593 C1572 0.930 . S
H1594 C1574 0.930 . S
H1595 C1575 0.931 . S
H1596 C1577 0.931 . S
H1597 C1579 0.930 . S
H1598 C1581 0.930 . S
H1599 C1582 0.931 . S
N1600 C1562 1.343 . S
N1600 C1583 1.343 1_455 S
N1601 C1569 1.403 . S
N1601 C1576 1.284 1_455 S
C1602 C1603 1.384 . S
C1602 C1604 1.384 . S
C1602 H1630 0.931 . S
C1603 C1602 1.384 . S
C1603 C1606 1.382 . S
C1604 C1602 1.384 . S
C1604 C1605 1.381 . S
C1604 H1631 0.930 . S
C1605 C1604 1.381 . S
C1605 C1607 1.381 . S
C1605 C1608 1.487 . S
C1606 C1603 1.382 . S
C1606 C1607 1.387 . S
C1606 H1632 0.930 . S
C1607 C1605 1.381 . S
C1607 C1606 1.387 . S
C1607 H1633 0.931 . S
C1608 C1605 1.487 . S
C1608 C1615 1.399 . S
C1608 N1646 1.343 1_565 S
C1609 C1610 1.384 . S
C1609 C1611 1.384 . S
C1609 H1634 0.931 . S
C1610 C1609 1.384 . S
C1610 C1613 1.382 . S
C1611 C1609 1.384 . S
C1611 C1612 1.381 . S
C1611 H1635 0.930 . S
C1612 C1611 1.381 . S
C1612 C1614 1.381 . S
C1612 C1615 1.487 . S
C1613 C1610 1.382 . S
C1613 C1614 1.387 . S
C1613 H1636 0.930 . S
C1614 C1612 1.381 . S
C1614 C1613 1.387 . S
C1614 H1637 0.931 . S
C1615 C1608 1.399 . S
C1615 C1612 1.487 . S
C1615 N1647 1.343 1_565 S
C1616 C1617 1.384 . S
C1616 C1618 1.384 . S
C1616 H1638 0.931 . S
C1617 C1616 1.384 . S
C1617 C1620 1.382 . S
C1618 C1616 1.384 . S
C1618 C1619 1.381 . S
C1618 H1639 0.930 . S
C1619 C1618 1.381 . S
C1619 C1621 1.381 . S
C1619 C1622 1.487 . S
C1620 C1617 1.382 . S
C1620 C1621 1.387 . S
C1620 H1640 0.930 . S
C1621 C1619 1.381 . S
C1621 C1620 1.387 . S
C1621 H1641 0.931 . S
C1622 C1619 1.487 . S
C1622 C1629 1.399 . S
C1622 N1647 1.343 . S
C1623 C1624 1.384 . S
C1623 C1625 1.384 . S
C1623 H1642 0.931 . S
C1624 C1623 1.384 . S
C1624 C1627 1.382 . S
C1625 C1623 1.384 . S
C1625 C1626 1.381 . S
C1625 H1643 0.930 . S
C1626 C1625 1.381 . S
C1626 C1628 1.381 . S
C1626 C1629 1.487 . S
C1627 C1624 1.382 . S
C1627 C1628 1.387 . S
C1627 H1644 0.930 . S
C1628 C1626 1.381 . S
C1628 C1627 1.387 . S
C1628 H1645 0.931 . S
C1629 C1622 1.399 . S
C1629 C1626 1.487 . S
C1629 N1646 1.343 . S
H1630 C1602 0.931 . S
H1631 C1604 0.930 . S
H1632 C1606 0.930 . S
H1633 C1607 0.931 . S
H1634 C1609 0.931 . S
H1635 C1611 0.930 . S
H1636 C1613 0.930 . S
H1637 C1614 0.931 . S
H1638 C1616 0.931 . S
H1639 C1618 0.930 . S
H1640 C1620 0.930 . S
H1641 C1621 0.931 . S
H1642 C1623 0.931 . S
H1643 C1625 0.930 . S
H1644 C1627 0.930 . S
H1645 C1628 0.931 . S
N1646 C1608 1.343 1_545 S
N1646 C1629 1.343 . S
N1647 C1615 1.343 1_545 S
N1647 C1622 1.343 . S
C1648 C1649 1.384 . S
C1648 C1650 1.384 . S
C1648 H1676 0.931 . S
C1649 C1648 1.384 . S
C1649 C1652 1.382 . S
C1650 C1648 1.384 . S
C1650 C1651 1.381 . S
C1650 H1677 0.930 . S
C1651 C1650 1.381 . S
C1651 C1653 1.381 . S
C1651 C1654 1.487 . S
C1652 C1649 1.382 . S
C1652 C1653 1.387 . S
C1652 H1678 0.930 . S
C1653 C1651 1.381 . S
C1653 C1652 1.387 . S
C1653 H1679 0.931 . S
C1654 C1651 1.487 . S
C1654 C1661 1.399 . S
C1654 N1692 1.343 1_655 S
C1655 C1656 1.384 . S
C1655 C1657 1.384 . S
C1655 H1680 0.931 . S
C1656 C1655 1.384 . S
C1656 C1659 1.382 . S
C1657 C1655 1.384 . S
C1657 C1658 1.381 . S
C1657 H1681 0.930 . S
C1658 C1657 1.381 . S
C1658 C1660 1.381 . S
C1658 C1661 1.487 . S
C1659 C1656 1.382 . S
C1659 C1660 1.387 . S
C1659 H1682 0.930 . S
C1660 C1658 1.381 . S
C1660 C1659 1.387 . S
C1660 H1683 0.931 . S
C1661 C1654 1.399 . S
C1661 C1658 1.487 . S
C1661 N1693 1.343 1_655 S
C1662 C1663 1.384 . S
C1662 C1664 1.384 . S
C1662 H1684 0.931 . S
C1663 C1662 1.384 . S
C1663 C1666 1.382 . S
C1664 C1662 1.384 . S
C1664 C1665 1.381 . S
C1664 H1685 0.930 . S
C1665 C1664 1.381 . S
C1665 C1667 1.381 . S
C1665 C1668 1.487 . S
C1666 C1663 1.382 . S
C1666 C1667 1.387 . S
C1666 H1686 0.930 . S
C1667 C1665 1.381 . S
C1667 C1666 1.387 . S
C1667 H1687 0.931 . S
C1668 C1665 1.487 . S
C1668 C1675 1.399 . S
C1668 N1693 1.343 . S
C1669 C1670 1.384 . S
C1669 C1671 1.384 . S
C1669 H1688 0.931 . S
C1670 C1669 1.384 . S
C1670 C1673 1.382 . S
C1671 C1669 1.384 . S
C1671 C1672 1.381 . S
C1671 H1689 0.930 . S
C1672 C1671 1.381 . S
C1672 C1674 1.381 . S
C1672 C1675 1.487 . S
C1673 C1670 1.382 . S
C1673 C1674 1.387 . S
C1673 H1690 0.930 . S
C1674 C1672 1.381 . S
C1674 C1673 1.387 . S
C1674 H1691 0.931 . S
C1675 C1668 1.399 . S
C1675 C1672 1.487 . S
C1675 N1692 1.343 . S
H1676 C1648 0.931 . S
H1677 C1650 0.930 . S
H1678 C1652 0.930 . S
H1679 C1653 0.931 . S
H1680 C1655 0.931 . S
H1681 C1657 0.930 . S
H1682 C1659 0.930 . S
H1683 C1660 0.931 . S
H1684 C1662 0.931 . S
H1685 C1664 0.930 . S
H1686 C1666 0.930 . S
H1687 C1667 0.931 . S
H1688 C1669 0.931 . S
H1689 C1671 0.930 . S
H1690 C1673 0.930 . S
H1691 C1674 0.931 . S
N1692 C1654 1.343 1_455 S
N1692 C1675 1.343 . S
N1693 C1661 1.343 1_455 S
N1693 C1668 1.343 . S
C1694 C1695 1.384 . S
C1694 C1696 1.384 . S
C1694 H1722 0.931 . S
C1695 C1694 1.384 . S
C1695 C1698 1.382 . S
C1696 C1694 1.384 . S
C1696 C1697 1.381 . S
C1696 H1723 0.930 . S
C1697 C1696 1.381 . S
C1697 C1699 1.381 . S
C1697 C1700 1.487 . S
C1698 C1695 1.382 . S
C1698 C1699 1.387 . S
C1698 H1724 0.930 . S
C1699 C1697 1.381 . S
C1699 C1698 1.387 . S
C1699 H1725 0.931 . S
C1700 C1697 1.487 . S
C1700 C1707 1.399 . S
C1700 N1738 1.305 1_565 S
C1701 C1702 1.384 . S
C1701 C1703 1.384 . S
C1701 H1726 0.931 . S
C1702 C1701 1.384 . S
C1702 C1705 1.382 . S
C1703 C1701 1.384 . S
C1703 C1704 1.381 . S
C1703 H1727 0.930 . S
C1704 C1703 1.381 . S
C1704 C1706 1.381 . S
C1704 C1707 1.487 . S
C1705 C1702 1.382 . S
C1705 C1706 1.387 . S
C1705 H1728 0.930 . S
C1706 C1704 1.381 . S
C1706 C1705 1.387 . S
C1706 H1729 0.931 . S
C1707 C1700 1.399 . S
C1707 C1704 1.487 . S
C1707 N1739 1.343 1_565 S
C1708 C1709 1.384 . S
C1708 C1710 1.384 . S
C1708 H1730 0.931 . S
C1709 C1708 1.384 . S
C1709 C1712 1.382 . S
C1710 C1708 1.384 . S
C1710 C1711 1.381 . S
C1710 H1731 0.930 . S
C1711 C1710 1.381 . S
C1711 C1713 1.381 . S
C1711 C1714 1.487 . S
C1712 C1709 1.382 . S
C1712 C1713 1.387 . S
C1712 H1732 0.930 . S
C1713 C1711 1.381 . S
C1713 C1712 1.387 . S
C1713 H1733 0.931 . S
C1714 C1711 1.487 . S
C1714 C1721 1.399 . S
C1714 N1739 1.343 . S
C1715 C1716 1.384 . S
C1715 C1717 1.384 . S
C1715 H1734 0.931 . S
C1716 C1715 1.384 . S
C1716 C1719 1.382 . S
C1717 C1715 1.384 . S
C1717 C1718 1.381 . S
C1717 H1735 0.930 . S
C1718 C1717 1.381 . S
C1718 C1720 1.381 . S
C1718 C1721 1.487 . S
C1719 C1716 1.382 . S
C1719 C1720 1.387 . S
C1719 H1736 0.930 . S
C1720 C1718 1.381 . S
C1720 C1719 1.387 . S
C1720 H1737 0.931 . S
C1721 C1714 1.399 . S
C1721 C1718 1.487 . S
C1721 N1738 1.382 . S
H1722 C1694 0.931 . S
H1723 C1696 0.930 . S
H1724 C1698 0.930 . S
H1725 C1699 0.931 . S
H1726 C1701 0.931 . S
H1727 C1703 0.930 . S
H1728 C1705 0.930 . S
H1729 C1706 0.931 . S
H1730 C1708 0.931 . S
H1731 C1710 0.930 . S
H1732 C1712 0.930 . S
H1733 C1713 0.931 . S
H1734 C1715 0.931 . S
H1735 C1717 0.930 . S
H1736 C1719 0.930 . S
H1737 C1720 0.931 . S
N1738 C1700 1.305 1_545 S
N1738 C1721 1.382 . S
N1739 C1707 1.343 1_545 S
N1739 C1714 1.343 . S
C1740 C1741 1.384 . S
C1740 C1742 1.384 . S
C1740 H1768 0.931 . S
C1741 C1740 1.384 . S
C1741 C1744 1.382 . S
C1742 C1740 1.384 . S
C1742 C1743 1.381 . S
C1742 H1769 0.930 . S
C1743 C1742 1.381 . S
C1743 C1745 1.381 . S
C1743 C1746 1.487 . S
C1744 C1741 1.382 . S
C1744 C1745 1.387 . S
C1744 H1770 0.930 . S
C1745 C1743 1.381 . S
C1745 C1744 1.387 . S
C1745 H1771 0.931 . S
C1746 C1743 1.487 . S
C1746 C1753 1.399 . S
C1746 N1784 1.343 . S
C1747 C1748 1.384 . S
C1747 C1749 1.384 . S
C1747 H1772 0.931 . S
C1748 C1747 1.384 . S
C1748 C1751 1.382 . S
C1749 C1747 1.384 . S
C1749 C1750 1.381 . S
C1749 H1773 0.930 . S
C1750 C1749 1.381 . S
C1750 C1752 1.381 . S
C1750 C1753 1.487 . S
C1751 C1748 1.382 . S
C1751 C1752 1.387 . S
C1751 H1774 0.930 . S
C1752 C1750 1.381 . S
C1752 C1751 1.387 . S
C1752 H1775 0.931 . S
C1753 C1746 1.399 . S
C1753 C1750 1.487 . S
C1753 N1785 1.404 . S
C1754 C1755 1.384 . S
C1754 C1756 1.384 . S
C1754 H1776 0.931 . S
C1755 C1754 1.384 . S
C1755 C1758 1.382 . S
C1756 C1754 1.384 . S
C1756 C1757 1.381 . S
C1756 H1777 0.930 . S
C1757 C1756 1.381 . S
C1757 C1759 1.381 . S
C1757 C1760 1.487 . S
C1758 C1755 1.382 . S
C1758 C1759 1.387 . S
C1758 H1778 0.930 . S
C1759 C1757 1.381 . S
C1759 C1758 1.387 . S
C1759 H1779 0.931 . S
C1760 C1757 1.487 . S
C1760 C1767 1.399 . S
C1760 N1785 1.283 1_655 S
C1761 C1762 1.384 . S
C1761 C1763 1.384 . S
C1761 H1780 0.931 . S
C1762 C1761 1.384 . S
C1762 C1765 1.382 . S
C1763 C1761 1.384 . S
C1763 C1764 1.381 . S
C1763 H1781 0.930 . S
C1764 C1763 1.381 . S
C1764 C1766 1.381 . S
C1764 C1767 1.487 . S
C1765 C1762 1.382 . S
C1765 C1766 1.387 . S
C1765 H1782 0.930 . S
C1766 C1764 1.381 . S
C1766 C1765 1.387 . S
C1766 H1783 0.931 . S
C1767 C1760 1.399 . S
C1767 C1764 1.487 . S
C1767 N1784 1.343 1_655 S
H1768 C1740 0.931 . S
H1769 C1742 0.930 . S
H1770 C1744 0.930 . S
H1771 C1745 0.931 . S
H1772 C1747 0.931 . S
H1773 C1749 0.930 . S
H1774 C1751 0.930 . S
H1775 C1752 0.931 . S
H1776 C1754 0.931 . S
H1777 C1756 0.930 . S
H1778 C1758 0.930 . S
H1779 C1759 0.931 . S
H1780 C1761 0.931 . S
H1781 C1763 0.930 . S
H1782 C1765 0.930 . S
H1783 C1766 0.931 . S
N1784 C1746 1.343 . S
N1784 C1767 1.343 1_455 S
N1785 C1753 1.404 . S
N1785 C1760 1.283 1_455 S
C1786 C1787 1.384 . S
C1786 C1788 1.384 . S
C1786 H1814 0.931 . S
C1787 C1786 1.384 . S
C1787 C1790 1.382 . S
C1788 C1786 1.384 . S
C1788 C1789 1.381 . S
C1788 H1815 0.930 . S
C1789 C1788 1.381 . S
C1789 C1791 1.381 . S
C1789 C1792 1.487 . S
C1790 C1787 1.382 . S
C1790 C1791 1.387 . S
C1790 H1816 0.930 . S
C1791 C1789 1.381 . S
C1791 C1790 1.387 . S
C1791 H1817 0.931 . S
C1792 C1789 1.487 . S
C1792 C1799 1.399 . S
C1792 N1830 1.343 1_565 S
C1793 C1794 1.384 . S
C1793 C1795 1.384 . S
C1793 H1818 0.931 . S
C1794 C1793 1.384 . S
C1794 C1797 1.382 . S
C1795 C1793 1.384 . S
C1795 C1796 1.381 . S
C1795 H1819 0.930 . S
C1796 C1795 1.381 . S
C1796 C1798 1.381 . S
C1796 C1799 1.487 . S
C1797 C1794 1.382 . S
C1797 C1798 1.387 . S
C1797 H1820 0.930 . S
C1798 C1796 1.381 . S
C1798 C1797 1.387 . S
C1798 H1821 0.931 . S
C1799 C1792 1.399 . S
C1799 C1796 1.487 . S
C1799 N1831 1.343 1_565 S
C1800 C1801 1.384 . S
C1800 C1802 1.384 . S
C1800 H1822 0.931 . S
C1801 C1800 1.384 . S
C1801 C1804 1.382 . S
C1802 C1800 1.384 . S
C1802 C1803 1.381 . S
C1802 H1823 0.930 . S
C1803 C1802 1.381 . S
C1803 C1805 1.381 . S
C1803 C1806 1.487 . S
C1804 C1801 1.382 . S
C1804 C1805 1.387 . S
C1804 H1824 0.930 . S
C1805 C1803 1.381 . S
C1805 C1804 1.387 . S
C1805 H1825 0.931 . S
C1806 C1803 1.487 . S
C1806 C1813 1.399 . S
C1806 N1831 1.343 . S
C1807 C1808 1.384 . S
C1807 C1809 1.384 . S
C1807 H1826 0.931 . S
C1808 C1807 1.384 . S
C1808 C1811 1.382 . S
C1809 C1807 1.384 . S
C1809 C1810 1.381 . S
C1809 H1827 0.930 . S
C1810 C1809 1.381 . S
C1810 C1812 1.381 . S
C1810 C1813 1.487 . S
C1811 C1808 1.382 . S
C1811 C1812 1.387 . S
C1811 H1828 0.930 . S
C1812 C1810 1.381 . S
C1812 C1811 1.387 . S
C1812 H1829 0.931 . S
C1813 C1806 1.399 . S
C1813 C1810 1.487 . S
C1813 N1830 1.343 . S
H1814 C1786 0.931 . S
H1815 C1788 0.930 . S
H1816 C1790 0.930 . S
H1817 C1791 0.931 . S
H1818 C1793 0.931 . S
H1819 C1795 0.930 . S
H1820 C1797 0.930 . S
H1821 C1798 0.931 . S
H1822 C1800 0.931 . S
H1823 C1802 0.930 . S
H1824 C1804 0.930 . S
H1825 C1805 0.931 . S
H1826 C1807 0.931 . S
H1827 C1809 0.930 . S
H1828 C1811 0.930 . S
H1829 C1812 0.931 . S
N1830 C1792 1.343 1_545 S
N1830 C1813 1.343 . S
N1831 C1799 1.343 1_545 S
N1831 C1806 1.343 . S
C1832 C1833 1.384 . S
C1832 C1834 1.384 . S
C1832 H1860 0.931 . S
C1833 C1832 1.384 . S
C1833 C1836 1.382 . S
C1834 C1832 1.384 . S
C1834 C1835 1.381 . S
C1834 H1861 0.930 . S
C1835 C1834 1.381 . S
C1835 C1837 1.381 . S
C1835 C1838 1.487 . S
C1836 C1833 1.382 . S
C1836 C1837 1.387 . S
C1836 H1862 0.930 . S
C1837 C1835 1.381 . S
C1837 C1836 1.387 . S
C1837 H1863 0.931 . S
C1838 C1835 1.487 . S
C1838 C1845 1.399 . S
C1838 N1876 1.343 . S
C1839 C1840 1.384 . S
C1839 C1841 1.384 . S
C1839 H1864 0.931 . S
C1840 C1839 1.384 . S
C1840 C1843 1.382 . S
C1841 C1839 1.384 . S
C1841 C1842 1.381 . S
C1841 H1865 0.930 . S
C1842 C1841 1.381 . S
C1842 C1844 1.381 . S
C1842 C1845 1.487 . S
C1843 C1840 1.382 . S
C1843 C1844 1.387 . S
C1843 H1866 0.930 . S
C1844 C1842 1.381 . S
C1844 C1843 1.387 . S
C1844 H1867 0.931 . S
C1845 C1838 1.399 . S
C1845 C1842 1.487 . S
C1845 N1877 1.343 . S
C1846 C1847 1.384 . S
C1846 C1848 1.384 . S
C1846 H1868 0.931 . S
C1847 C1846 1.384 . S
C1847 C1850 1.382 . S
C1848 C1846 1.384 . S
C1848 C1849 1.381 . S
C1848 H1869 0.930 . S
C1849 C1848 1.381 . S
C1849 C1851 1.381 . S
C1849 C1852 1.487 . S
C1850 C1847 1.382 . S
C1850 C1851 1.387 . S
C1850 H1870 0.930 . S
C1851 C1849 1.381 . S
C1851 C1850 1.387 . S
C1851 H1871 0.931 . S
C1852 C1849 1.487 . S
C1852 C1859 1.399 . S
C1852 N1877 1.343 . S
C1853 C1854 1.384 . S
C1853 C1855 1.384 . S
C1853 H1872 0.931 . S
C1854 C1853 1.384 . S
C1854 C1857 1.382 . S
C1855 C1853 1.384 . S
C1855 C1856 1.381 . S
C1855 H1873 0.930 . S
C1856 C1855 1.381 . S
C1856 C1858 1.381 . S
C1856 C1859 1.487 . S
C1857 C1854 1.382 . S
C1857 C1858 1.387 . S
C1857 H1874 0.930 . S
C1858 C1856 1.381 . S
C1858 C1857 1.387 . S
C1858 H1875 0.931 . S
C1859 C1852 1.399 . S
C1859 C1856 1.487 . S
C1859 N1876 1.343 . S
H1860 C1832 0.931 . S
H1861 C1834 0.930 . S
H1862 C1836 0.930 . S
H1863 C1837 0.931 . S
H1864 C1839 0.931 . S
H1865 C1841 0.930 . S
H1866 C1843 0.930 . S
H1867 C1844 0.931 . S
H1868 C1846 0.931 . S
H1869 C1848 0.930 . S
H1870 C1850 0.930 . S
H1871 C1851 0.931 . S
H1872 C1853 0.931 . S
H1873 C1855 0.930 . S
H1874 C1857 0.930 . S
H1875 C1858 0.931 . S
N1876 C1838 1.343 . S
N1876 C1859 1.343 . S
N1877 C1845 1.343 . S
N1877 C1852 1.343 . S
C1878 C1879 1.384 . S
C1878 C1880 1.384 . S
C1878 H1906 0.931 . S
C1879 C1878 1.384 . S
C1879 C1882 1.382 . S
C1880 C1878 1.384 . S
C1880 C1881 1.381 . S
C1880 H1907 0.930 . S
C1881 C1880 1.381 . S
C1881 C1883 1.381 . S
C1881 C1884 1.487 . S
C1882 C1879 1.382 . S
C1882 C1883 1.387 . S
C1882 H1908 0.930 . S
C1883 C1881 1.381 . S
C1883 C1882 1.387 . S
C1883 H1909 0.931 . S
C1884 C1881 1.487 . S
C1884 C1891 1.399 . S
C1884 N1922 1.343 . S
C1885 C1886 1.384 . S
C1885 C1887 1.384 . S
C1885 H1910 0.931 . S
C1886 C1885 1.384 . S
C1886 C1889 1.382 . S
C1887 C1885 1.384 . S
C1887 C1888 1.381 . S
C1887 H1911 0.930 . S
C1888 C1887 1.381 . S
C1888 C1890 1.381 . S
C1888 C1891 1.487 . S
C1889 C1886 1.382 . S
C1889 C1890 1.387 . S
C1889 H1912 0.930 . S
C1890 C1888 1.381 . S
C1890 C1889 1.387 . S
C1890 H1913 0.931 . S
C1891 C1884 1.399 . S
C1891 C1888 1.487 . S
C1891 N1923 1.343 . S
C1892 C1893 1.384 . S
C1892 C1894 1.384 . S
C1892 H1914 0.931 . S
C1893 C1892 1.384 . S
C1893 C1896 1.382 . S
C1894 C1892 1.384 . S
C1894 C1895 1.381 . S
C1894 H1915 0.930 . S
C1895 C1894 1.381 . S
C1895 C1897 1.381 . S
C1895 C1898 1.487 . S
C1896 C1893 1.382 . S
C1896 C1897 1.387 . S
C1896 H1916 0.930 . S
C1897 C1895 1.381 . S
C1897 C1896 1.387 . S
C1897 H1917 0.931 . S
C1898 C1895 1.487 . S
C1898 C1905 1.399 . S
C1898 N1923 1.343 . S
C1899 C1900 1.384 . S
C1899 C1901 1.384 . S
C1899 H1918 0.931 . S
C1900 C1899 1.384 . S
C1900 C1903 1.382 . S
C1901 C1899 1.384 . S
C1901 C1902 1.381 . S
C1901 H1919 0.930 . S
C1902 C1901 1.381 . S
C1902 C1904 1.381 . S
C1902 C1905 1.487 . S
C1903 C1900 1.382 . S
C1903 C1904 1.387 . S
C1903 H1920 0.930 . S
C1904 C1902 1.381 . S
C1904 C1903 1.387 . S
C1904 H1921 0.931 . S
C1905 C1898 1.399 . S
C1905 C1902 1.487 . S
C1905 N1922 1.343 . S
H1906 C1878 0.931 . S
H1907 C1880 0.930 . S
H1908 C1882 0.930 . S
H1909 C1883 0.931 . S
H1910 C1885 0.931 . S
H1911 C1887 0.930 . S
H1912 C1889 0.930 . S
H1913 C1890 0.931 . S
H1914 C1892 0.931 . S
H1915 C1894 0.930 . S
H1916 C1896 0.930 . S
H1917 C1897 0.931 . S
H1918 C1899 0.931 . S
H1919 C1901 0.930 . S
H1920 C1903 0.930 . S
H1921 C1904 0.931 . S
N1922 C1884 1.343 . S
N1922 C1905 1.343 . S
N1923 C1891 1.343 . S
N1923 C1898 1.343 . S
C1924 C1925 1.384 . S
C1924 C1926 1.384 . S
C1924 H1952 0.931 . S
C1925 C1924 1.384 . S
C1925 C1928 1.382 . S
C1926 C1924 1.384 . S
C1926 C1927 1.381 . S
C1926 H1953 0.930 . S
C1927 C1926 1.381 . S
C1927 C1929 1.381 . S
C1927 C1930 1.487 . S
C1928 C1925 1.382 . S
C1928 C1929 1.387 . S
C1928 H1954 0.930 . S
C1929 C1927 1.381 . S
C1929 C1928 1.387 . S
C1929 H1955 0.931 . S
C1930 C1927 1.487 . S
C1930 C1937 1.399 . S
C1930 N1968 1.343 . S
C1931 C1932 1.384 . S
C1931 C1933 1.384 . S
C1931 H1956 0.931 . S
C1932 C1931 1.384 . S
C1932 C1935 1.382 . S
C1933 C1931 1.384 . S
C1933 C1934 1.381 . S
C1933 H1957 0.930 . S
C1934 C1933 1.381 . S
C1934 C1936 1.381 . S
C1934 C1937 1.487 . S
C1935 C1932 1.382 . S
C1935 C1936 1.387 . S
C1935 H1958 0.930 . S
C1936 C1934 1.381 . S
C1936 C1935 1.387 . S
C1936 H1959 0.931 . S
C1937 C1930 1.399 . S
C1937 C1934 1.487 . S
C1937 N1969 1.343 . S
C1938 C1939 1.384 . S
C1938 C1940 1.384 . S
C1938 H1960 0.931 . S
C1939 C1938 1.384 . S
C1939 C1942 1.382 . S
C1940 C1938 1.384 . S
C1940 C1941 1.381 . S
C1940 H1961 0.930 . S
C1941 C1940 1.381 . S
C1941 C1943 1.381 . S
C1941 C1944 1.487 . S
C1942 C1939 1.382 . S
C1942 C1943 1.387 . S
C1942 H1962 0.930 . S
C1943 C1941 1.381 . S
C1943 C1942 1.387 . S
C1943 H1963 0.931 . S
C1944 C1941 1.487 . S
C1944 C1951 1.399 . S
C1944 N1969 1.343 . S
C1945 C1946 1.384 . S
C1945 C1947 1.384 . S
C1945 H1964 0.931 . S
C1946 C1945 1.384 . S
C1946 C1949 1.382 . S
C1947 C1945 1.384 . S
C1947 C1948 1.381 . S
C1947 H1965 0.930 . S
C1948 C1947 1.381 . S
C1948 C1950 1.381 . S
C1948 C1951 1.487 . S
C1949 C1946 1.382 . S
C1949 C1950 1.387 . S
C1949 H1966 0.930 . S
C1950 C1948 1.381 . S
C1950 C1949 1.387 . S
C1950 H1967 0.931 . S
C1951 C1944 1.399 . S
C1951 C1948 1.487 . S
C1951 N1968 1.343 . S
H1952 C1924 0.931 . S
H1953 C1926 0.930 . S
H1954 C1928 0.930 . S
H1955 C1929 0.931 . S
H1956 C1931 0.931 . S
H1957 C1933 0.930 . S
H1958 C1935 0.930 . S
H1959 C1936 0.931 . S
H1960 C1938 0.931 . S
H1961 C1940 0.930 . S
H1962 C1942 0.930 . S
H1963 C1943 0.931 . S
H1964 C1945 0.931 . S
H1965 C1947 0.930 . S
H1966 C1949 0.930 . S
H1967 C1950 0.931 . S
N1968 C1930 1.343 . S
N1968 C1951 1.343 . S
N1969 C1937 1.343 . S
N1969 C1944 1.343 . S
C1970 C1971 1.384 . S
C1970 C1972 1.384 . S
C1970 H1998 0.931 . S
C1971 C1970 1.384 . S
C1971 C1974 1.382 . S
C1972 C1970 1.384 . S
C1972 C1973 1.381 . S
C1972 H1999 0.930 . S
C1973 C1972 1.381 . S
C1973 C1975 1.381 . S
C1973 C1976 1.487 . S
C1974 C1971 1.382 . S
C1974 C1975 1.387 . S
C1974 H2000 0.930 . S
C1975 C1973 1.381 . S
C1975 C1974 1.387 . S
C1975 H2001 0.931 . S
C1976 C1973 1.487 . S
C1976 C1983 1.399 . S
C1976 N2014 1.343 . S
C1977 C1978 1.384 . S
C1977 C1979 1.384 . S
C1977 H2002 0.931 . S
C1978 C1977 1.384 . S
C1978 C1981 1.382 . S
C1979 C1977 1.384 . S
C1979 C1980 1.381 . S
C1979 H2003 0.930 . S
C1980 C1979 1.381 . S
C1980 C1982 1.381 . S
C1980 C1983 1.487 . S
C1981 C1978 1.382 . S
C1981 C1982 1.387 . S
C1981 H2004 0.930 . S
C1982 C1980 1.381 . S
C1982 C1981 1.387 . S
C1982 H2005 0.931 . S
C1983 C1976 1.399 . S
C1983 C1980 1.487 . S
C1983 N2015 1.343 . S
C1984 C1985 1.384 . S
C1984 C1986 1.384 . S
C1984 H2006 0.931 . S
C1985 C1984 1.384 . S
C1985 C1988 1.382 . S
C1986 C1984 1.384 . S
C1986 C1987 1.381 . S
C1986 H2007 0.930 . S
C1987 C1986 1.381 . S
C1987 C1989 1.381 . S
C1987 C1990 1.487 . S
C1988 C1985 1.382 . S
C1988 C1989 1.387 . S
C1988 H2008 0.930 . S
C1989 C1987 1.381 . S
C1989 C1988 1.387 . S
C1989 H2009 0.931 . S
C1990 C1987 1.487 . S
C1990 C1997 1.399 . S
C1990 N2015 1.343 . S
C1991 C1992 1.384 . S
C1991 C1993 1.384 . S
C1991 H2010 0.931 . S
C1992 C1991 1.384 . S
C1992 C1995 1.382 . S
C1993 C1991 1.384 . S
C1993 C1994 1.381 . S
C1993 H2011 0.930 . S
C1994 C1993 1.381 . S
C1994 C1996 1.381 . S
C1994 C1997 1.487 . S
C1995 C1992 1.382 . S
C1995 C1996 1.387 . S
C1995 H2012 0.930 . S
C1996 C1994 1.381 . S
C1996 C1995 1.387 . S
C1996 H2013 0.931 . S
C1997 C1990 1.399 . S
C1997 C1994 1.487 . S
C1997 N2014 1.343 . S
H1998 C1970 0.931 . S
H1999 C1972 0.930 . S
H2000 C1974 0.930 . S
H2001 C1975 0.931 . S
H2002 C1977 0.931 . S
H2003 C1979 0.930 . S
H2004 C1981 0.930 . S
H2005 C1982 0.931 . S
H2006 C1984 0.931 . S
H2007 C1986 0.930 . S
H2008 C1988 0.930 . S
H2009 C1989 0.931 . S
H2010 C1991 0.931 . S
H2011 C1993 0.930 . S
H2012 C1995 0.930 . S
H2013 C1996 0.931 . S
N2014 C1976 1.343 . S
N2014 C1997 1.343 . S
N2015 C1983 1.343 . S
N2015 C1990 1.343 . S
C2016 C2017 1.384 . S
C2016 C2018 1.384 . S
C2016 H2044 0.931 . S
C2017 C2016 1.384 . S
C2017 C2020 1.382 . S
C2018 C2016 1.384 . S
C2018 C2019 1.381 . S
C2018 H2045 0.930 . S
C2019 C2018 1.381 . S
C2019 C2021 1.381 . S
C2019 C2022 1.487 . S
C2020 C2017 1.382 . S
C2020 C2021 1.387 . S
C2020 H2046 0.930 . S
C2021 C2019 1.381 . S
C2021 C2020 1.387 . S
C2021 H2047 0.931 . S
C2022 C2019 1.487 . S
C2022 C2029 1.399 . S
C2022 N2060 1.343 . S
C2023 C2024 1.384 . S
C2023 C2025 1.384 . S
C2023 H2048 0.931 . S
C2024 C2023 1.384 . S
C2024 C2027 1.382 . S
C2025 C2023 1.384 . S
C2025 C2026 1.381 . S
C2025 H2049 0.930 . S
C2026 C2025 1.381 . S
C2026 C2028 1.381 . S
C2026 C2029 1.487 . S
C2027 C2024 1.382 . S
C2027 C2028 1.387 . S
C2027 H2050 0.930 . S
C2028 C2026 1.381 . S
C2028 C2027 1.387 . S
C2028 H2051 0.931 . S
C2029 C2022 1.399 . S
C2029 C2026 1.487 . S
C2029 N2061 1.343 . S
C2030 C2031 1.384 . S
C2030 C2032 1.384 . S
C2030 H2052 0.931 . S
C2031 C2030 1.384 . S
C2031 C2034 1.382 . S
C2032 C2030 1.384 . S
C2032 C2033 1.381 . S
C2032 H2053 0.930 . S
C2033 C2032 1.381 . S
C2033 C2035 1.381 . S
C2033 C2036 1.487 . S
C2034 C2031 1.382 . S
C2034 C2035 1.387 . S
C2034 H2054 0.930 . S
C2035 C2033 1.381 . S
C2035 C2034 1.387 . S
C2035 H2055 0.931 . S
C2036 C2033 1.487 . S
C2036 C2043 1.399 . S
C2036 N2061 1.343 . S
C2037 C2038 1.384 . S
C2037 C2039 1.384 . S
C2037 H2056 0.931 . S
C2038 C2037 1.384 . S
C2038 C2041 1.382 . S
C2039 C2037 1.384 . S
C2039 C2040 1.381 . S
C2039 H2057 0.930 . S
C2040 C2039 1.381 . S
C2040 C2042 1.381 . S
C2040 C2043 1.487 . S
C2041 C2038 1.382 . S
C2041 C2042 1.387 . S
C2041 H2058 0.930 . S
C2042 C2040 1.381 . S
C2042 C2041 1.387 . S
C2042 H2059 0.931 . S
C2043 C2036 1.399 . S
C2043 C2040 1.487 . S
C2043 N2060 1.343 . S
H2044 C2016 0.931 . S
H2045 C2018 0.930 . S
H2046 C2020 0.930 . S
H2047 C2021 0.931 . S
H2048 C2023 0.931 . S
H2049 C2025 0.930 . S
H2050 C2027 0.930 . S
H2051 C2028 0.931 . S
H2052 C2030 0.931 . S
H2053 C2032 0.930 . S
H2054 C2034 0.930 . S
H2055 C2035 0.931 . S
H2056 C2037 0.931 . S
H2057 C2039 0.930 . S
H2058 C2041 0.930 . S
H2059 C2042 0.931 . S
N2060 C2022 1.343 . S
N2060 C2043 1.343 . S
N2061 C2029 1.343 . S
N2061 C2036 1.343 . S
C2062 C2063 1.384 . S
C2062 C2064 1.384 . S
C2062 H2090 0.931 . S
C2063 C2062 1.384 . S
C2063 C2066 1.382 . S
C2064 C2062 1.384 . S
C2064 C2065 1.381 . S
C2064 H2091 0.930 . S
C2065 C2064 1.381 . S
C2065 C2067 1.381 . S
C2065 C2068 1.487 . S
C2066 C2063 1.382 . S
C2066 C2067 1.387 . S
C2066 H2092 0.930 . S
C2067 C2065 1.381 . S
C2067 C2066 1.387 . S
C2067 H2093 0.931 . S
C2068 C2065 1.487 . S
C2068 C2075 1.399 . S
C2068 N2106 1.343 . S
C2069 C2070 1.384 . S
C2069 C2071 1.384 . S
C2069 H2094 0.931 . S
C2070 C2069 1.384 . S
C2070 C2073 1.382 . S
C2071 C2069 1.384 . S
C2071 C2072 1.381 . S
C2071 H2095 0.930 . S
C2072 C2071 1.381 . S
C2072 C2074 1.381 . S
C2072 C2075 1.487 . S
C2073 C2070 1.382 . S
C2073 C2074 1.387 . S
C2073 H2096 0.930 . S
C2074 C2072 1.381 . S
C2074 C2073 1.387 . S
C2074 H2097 0.931 . S
C2075 C2068 1.399 . S
C2075 C2072 1.487 . S
C2075 N2107 1.343 . S
C2076 C2077 1.384 . S
C2076 C2078 1.384 . S
C2076 H2098 0.931 . S
C2077 C2076 1.384 . S
C2077 C2080 1.382 . S
C2078 C2076 1.384 . S
C2078 C2079 1.381 . S
C2078 H2099 0.930 . S
C2079 C2078 1.381 . S
C2079 C2081 1.381 . S
C2079 C2082 1.487 . S
C2080 C2077 1.382 . S
C2080 C2081 1.387 . S
C2080 H2100 0.930 . S
C2081 C2079 1.381 . S
C2081 C2080 1.387 . S
C2081 H2101 0.931 . S
C2082 C2079 1.487 . S
C2082 C2089 1.399 . S
C2082 N2107 1.343 . S
C2083 C2084 1.384 . S
C2083 C2085 1.384 . S
C2083 H2102 0.931 . S
C2084 C2083 1.384 . S
C2084 C2087 1.382 . S
C2085 C2083 1.384 . S
C2085 C2086 1.381 . S
C2085 H2103 0.930 . S
C2086 C2085 1.381 . S
C2086 C2088 1.381 . S
C2086 C2089 1.487 . S
C2087 C2084 1.382 . S
C2087 C2088 1.387 . S
C2087 H2104 0.930 . S
C2088 C2086 1.381 . S
C2088 C2087 1.387 . S
C2088 H2105 0.931 . S
C2089 C2082 1.399 . S
C2089 C2086 1.487 . S
C2089 N2106 1.343 . S
H2090 C2062 0.931 . S
H2091 C2064 0.930 . S
H2092 C2066 0.930 . S
H2093 C2067 0.931 . S
H2094 C2069 0.931 . S
H2095 C2071 0.930 . S
H2096 C2073 0.930 . S
H2097 C2074 0.931 . S
H2098 C2076 0.931 . S
H2099 C2078 0.930 . S
H2100 C2080 0.930 . S
H2101 C2081 0.931 . S
H2102 C2083 0.931 . S
H2103 C2085 0.930 . S
H2104 C2087 0.930 . S
H2105 C2088 0.931 . S
N2106 C2068 1.343 . S
N2106 C2089 1.343 . S
N2107 C2075 1.343 . S
N2107 C2082 1.343 . S
C2108 C2109 1.384 . S
C2108 C2110 1.384 . S
C2108 H2136 0.931 . S
C2109 C2108 1.384 . S
C2109 C2112 1.382 . S
C2110 C2108 1.384 . S
C2110 C2111 1.381 . S
C2110 H2137 0.930 . S
C2111 C2110 1.381 . S
C2111 C2113 1.381 . S
C2111 C2114 1.487 . S
C2112 C2109 1.382 . S
C2112 C2113 1.387 . S
C2112 H2138 0.930 . S
C2113 C2111 1.381 . S
C2113 C2112 1.387 . S
C2113 H2139 0.931 . S
C2114 C2111 1.487 . S
C2114 C2121 1.399 . S
C2114 N2152 1.343 . S
C2115 C2116 1.384 . S
C2115 C2117 1.384 . S
C2115 H2140 0.931 . S
C2116 C2115 1.384 . S
C2116 C2119 1.382 . S
C2117 C2115 1.384 . S
C2117 C2118 1.381 . S
C2117 H2141 0.930 . S
C2118 C2117 1.381 . S
C2118 C2120 1.381 . S
C2118 C2121 1.487 . S
C2119 C2116 1.382 . S
C2119 C2120 1.387 . S
C2119 H2142 0.930 . S
C2120 C2118 1.381 . S
C2120 C2119 1.387 . S
C2120 H2143 0.931 . S
C2121 C2114 1.399 . S
C2121 C2118 1.487 . S
C2121 N2153 1.343 . S
C2122 C2123 1.384 . S
C2122 C2124 1.384 . S
C2122 H2144 0.931 . S
C2123 C2122 1.384 . S
C2123 C2126 1.382 . S
C2124 C2122 1.384 . S
C2124 C2125 1.381 . S
C2124 H2145 0.930 . S
C2125 C2124 1.381 . S
C2125 C2127 1.381 . S
C2125 C2128 1.487 . S
C2126 C2123 1.382 . S
C2126 C2127 1.387 . S
C2126 H2146 0.930 . S
C2127 C2125 1.381 . S
C2127 C2126 1.387 . S
C2127 H2147 0.931 . S
C2128 C2125 1.487 . S
C2128 C2135 1.399 . S
C2128 N2153 1.343 . S
C2129 C2130 1.384 . S
C2129 C2131 1.384 . S
C2129 H2148 0.931 . S
C2130 C2129 1.384 . S
C2130 C2133 1.382 . S
C2131 C2129 1.384 . S
C2131 C2132 1.381 . S
C2131 H2149 0.930 . S
C2132 C2131 1.381 . S
C2132 C2134 1.381 . S
C2132 C2135 1.487 . S
C2133 C2130 1.382 . S
C2133 C2134 1.387 . S
C2133 H2150 0.930 . S
C2134 C2132 1.381 . S
C2134 C2133 1.387 . S
C2134 H2151 0.931 . S
C2135 C2128 1.399 . S
C2135 C2132 1.487 . S
C2135 N2152 1.343 . S
H2136 C2108 0.931 . S
H2137 C2110 0.930 . S
H2138 C2112 0.930 . S
H2139 C2113 0.931 . S
H2140 C2115 0.931 . S
H2141 C2117 0.930 . S
H2142 C2119 0.930 . S
H2143 C2120 0.931 . S
H2144 C2122 0.931 . S
H2145 C2124 0.930 . S
H2146 C2126 0.930 . S
H2147 C2127 0.931 . S
H2148 C2129 0.931 . S
H2149 C2131 0.930 . S
H2150 C2133 0.930 . S
H2151 C2134 0.931 . S
N2152 C2114 1.343 . S
N2152 C2135 1.343 . S
N2153 C2121 1.343 . S
N2153 C2128 1.343 . S
C2154 C2155 1.384 . S
C2154 C2156 1.384 . S
C2154 H2182 0.931 . S
C2155 C2154 1.384 . S
C2155 C2158 1.382 . S
C2156 C2154 1.384 . S
C2156 C2157 1.381 . S
C2156 H2183 0.930 . S
C2157 C2156 1.381 . S
C2157 C2159 1.381 . S
C2157 C2160 1.487 . S
C2158 C2155 1.382 . S
C2158 C2159 1.387 . S
C2158 H2184 0.930 . S
C2159 C2157 1.381 . S
C2159 C2158 1.387 . S
C2159 H2185 0.931 . S
C2160 C2157 1.487 . S
C2160 C2167 1.399 . S
C2160 N2198 1.343 . S
C2161 C2162 1.384 . S
C2161 C2163 1.384 . S
C2161 H2186 0.931 . S
C2162 C2161 1.384 . S
C2162 C2165 1.382 . S
C2163 C2161 1.384 . S
C2163 C2164 1.381 . S
C2163 H2187 0.930 . S
C2164 C2163 1.381 . S
C2164 C2166 1.381 . S
C2164 C2167 1.487 . S
C2165 C2162 1.382 . S
C2165 C2166 1.387 . S
C2165 H2188 0.930 . S
C2166 C2164 1.381 . S
C2166 C2165 1.387 . S
C2166 H2189 0.931 . S
C2167 C2160 1.399 . S
C2167 C2164 1.487 . S
C2167 N2199 1.343 . S
C2168 C2169 1.384 . S
C2168 C2170 1.384 . S
C2168 H2190 0.931 . S
C2169 C2168 1.384 . S
C2169 C2172 1.382 . S
C2170 C2168 1.384 . S
C2170 C2171 1.381 . S
C2170 H2191 0.930 . S
C2171 C2170 1.381 . S
C2171 C2173 1.381 . S
C2171 C2174 1.487 . S
C2172 C2169 1.382 . S
C2172 C2173 1.387 . S
C2172 H2192 0.930 . S
C2173 C2171 1.381 . S
C2173 C2172 1.387 . S
C2173 H2193 0.931 . S
C2174 C2171 1.487 . S
C2174 C2181 1.399 . S
C2174 N2199 1.343 . S
C2175 C2176 1.384 . S
C2175 C2177 1.384 . S
C2175 H2194 0.931 . S
C2176 C2175 1.384 . S
C2176 C2179 1.382 . S
C2177 C2175 1.384 . S
C2177 C2178 1.381 . S
C2177 H2195 0.930 . S
C2178 C2177 1.381 . S
C2178 C2180 1.381 . S
C2178 C2181 1.487 . S
C2179 C2176 1.382 . S
C2179 C2180 1.387 . S
C2179 H2196 0.930 . S
C2180 C2178 1.381 . S
C2180 C2179 1.387 . S
C2180 H2197 0.931 . S
C2181 C2174 1.399 . S
C2181 C2178 1.487 . S
C2181 N2198 1.343 . S
H2182 C2154 0.931 . S
H2183 C2156 0.930 . S
H2184 C2158 0.930 . S
H2185 C2159 0.931 . S
H2186 C2161 0.931 . S
H2187 C2163 0.930 . S
H2188 C2165 0.930 . S
H2189 C2166 0.931 . S
H2190 C2168 0.931 . S
H2191 C2170 0.930 . S
H2192 C2172 0.930 . S
H2193 C2173 0.931 . S
H2194 C2175 0.931 . S
H2195 C2177 0.930 . S
H2196 C2179 0.930 . S
H2197 C2180 0.931 . S
N2198 C2160 1.343 . S
N2198 C2181 1.343 . S
N2199 C2167 1.343 . S
N2199 C2174 1.343 . S
C2200 C2201 1.384 . S
C2200 C2202 1.384 . S
C2200 H2228 0.931 . S
C2201 C2200 1.384 . S
C2201 C2204 1.382 . S
C2202 C2200 1.384 . S
C2202 C2203 1.381 . S
C2202 H2229 0.930 . S
C2203 C2202 1.381 . S
C2203 C2205 1.381 . S
C2203 C2206 1.487 . S
C2204 C2201 1.382 . S
C2204 C2205 1.387 . S
C2204 H2230 0.930 . S
C2205 C2203 1.381 . S
C2205 C2204 1.387 . S
C2205 H2231 0.931 . S
C2206 C2203 1.487 . S
C2206 C2213 1.399 . S
C2206 N2244 1.343 . S
C2207 C2208 1.384 . S
C2207 C2209 1.384 . S
C2207 H2232 0.931 . S
C2208 C2207 1.384 . S
C2208 C2211 1.382 . S
C2209 C2207 1.384 . S
C2209 C2210 1.381 . S
C2209 H2233 0.930 . S
C2210 C2209 1.381 . S
C2210 C2212 1.381 . S
C2210 C2213 1.487 . S
C2211 C2208 1.382 . S
C2211 C2212 1.387 . S
C2211 H2234 0.930 . S
C2212 C2210 1.381 . S
C2212 C2211 1.387 . S
C2212 H2235 0.931 . S
C2213 C2206 1.399 . S
C2213 C2210 1.487 . S
C2213 N2245 1.343 . S
C2214 C2215 1.384 . S
C2214 C2216 1.384 . S
C2214 H2236 0.931 . S
C2215 C2214 1.384 . S
C2215 C2218 1.382 . S
C2216 C2214 1.384 . S
C2216 C2217 1.381 . S
C2216 H2237 0.930 . S
C2217 C2216 1.381 . S
C2217 C2219 1.381 . S
C2217 C2220 1.487 . S
C2218 C2215 1.382 . S
C2218 C2219 1.387 . S
C2218 H2238 0.930 . S
C2219 C2217 1.381 . S
C2219 C2218 1.387 . S
C2219 H2239 0.931 . S
C2220 C2217 1.487 . S
C2220 C2227 1.399 . S
C2220 N2245 1.343 . S
C2221 C2222 1.384 . S
C2221 C2223 1.384 . S
C2221 H2240 0.931 . S
C2222 C2221 1.384 . S
C2222 C2225 1.382 . S
C2223 C2221 1.384 . S
C2223 C2224 1.381 . S
C2223 H2241 0.930 . S
C2224 C2223 1.381 . S
C2224 C2226 1.381 . S
C2224 C2227 1.487 . S
C2225 C2222 1.382 . S
C2225 C2226 1.387 . S
C2225 H2242 0.930 . S
C2226 C2224 1.381 . S
C2226 C2225 1.387 . S
C2226 H2243 0.931 . S
C2227 C2220 1.399 . S
C2227 C2224 1.487 . S
C2227 N2244 1.343 . S
H2228 C2200 0.931 . S
H2229 C2202 0.930 . S
H2230 C2204 0.930 . S
H2231 C2205 0.931 . S
H2232 C2207 0.931 . S
H2233 C2209 0.930 . S
H2234 C2211 0.930 . S
H2235 C2212 0.931 . S
H2236 C2214 0.931 . S
H2237 C2216 0.930 . S
H2238 C2218 0.930 . S
H2239 C2219 0.931 . S
H2240 C2221 0.931 . S
H2241 C2223 0.930 . S
H2242 C2225 0.930 . S
H2243 C2226 0.931 . S
N2244 C2206 1.343 . S
N2244 C2227 1.343 . S
N2245 C2213 1.343 . S
N2245 C2220 1.343 . S
C2246 C2247 1.384 . S
C2246 C2248 1.384 . S
C2246 H2274 0.931 . S
C2247 C2246 1.384 . S
C2247 C2250 1.382 . S
C2248 C2246 1.384 . S
C2248 C2249 1.381 . S
C2248 H2275 0.930 . S
C2249 C2248 1.381 . S
C2249 C2251 1.381 . S
C2249 C2252 1.487 . S
C2250 C2247 1.382 . S
C2250 C2251 1.387 . S
C2250 H2276 0.930 . S
C2251 C2249 1.381 . S
C2251 C2250 1.387 . S
C2251 H2277 0.931 . S
C2252 C2249 1.487 . S
C2252 C2259 1.399 . S
C2252 N2290 1.343 . S
C2253 C2254 1.384 . S
C2253 C2255 1.384 . S
C2253 H2278 0.931 . S
C2254 C2253 1.384 . S
C2254 C2257 1.382 . S
C2255 C2253 1.384 . S
C2255 C2256 1.381 . S
C2255 H2279 0.930 . S
C2256 C2255 1.381 . S
C2256 C2258 1.381 . S
C2256 C2259 1.487 . S
C2257 C2254 1.382 . S
C2257 C2258 1.387 . S
C2257 H2280 0.930 . S
C2258 C2256 1.381 . S
C2258 C2257 1.387 . S
C2258 H2281 0.931 . S
C2259 C2252 1.399 . S
C2259 C2256 1.487 . S
C2259 N2291 1.343 . S
C2260 C2261 1.384 . S
C2260 C2262 1.384 . S
C2260 H2282 0.931 . S
C2261 C2260 1.384 . S
C2261 C2264 1.382 . S
C2262 C2260 1.384 . S
C2262 C2263 1.381 . S
C2262 H2283 0.930 . S
C2263 C2262 1.381 . S
C2263 C2265 1.381 . S
C2263 C2266 1.487 . S
C2264 C2261 1.382 . S
C2264 C2265 1.387 . S
C2264 H2284 0.930 . S
C2265 C2263 1.381 . S
C2265 C2264 1.387 . S
C2265 H2285 0.931 . S
C2266 C2263 1.487 . S
C2266 C2273 1.399 . S
C2266 N2291 1.343 . S
C2267 C2268 1.384 . S
C2267 C2269 1.384 . S
C2267 H2286 0.931 . S
C2268 C2267 1.384 . S
C2268 C2271 1.382 . S
C2269 C2267 1.384 . S
C2269 C2270 1.381 . S
C2269 H2287 0.930 . S
C2270 C2269 1.381 . S
C2270 C2272 1.381 . S
C2270 C2273 1.487 . S
C2271 C2268 1.382 . S
C2271 C2272 1.387 . S
C2271 H2288 0.930 . S
C2272 C2270 1.381 . S
C2272 C2271 1.387 . S
C2272 H2289 0.931 . S
C2273 C2266 1.399 . S
C2273 C2270 1.487 . S
C2273 N2290 1.343 . S
H2274 C2246 0.931 . S
H2275 C2248 0.930 . S
H2276 C2250 0.930 . S
H2277 C2251 0.931 . S
H2278 C2253 0.931 . S
H2279 C2255 0.930 . S
H2280 C2257 0.930 . S
H2281 C2258 0.931 . S
H2282 C2260 0.931 . S
H2283 C2262 0.930 . S
H2284 C2264 0.930 . S
H2285 C2265 0.931 . S
H2286 C2267 0.931 . S
H2287 C2269 0.930 . S
H2288 C2271 0.930 . S
H2289 C2272 0.931 . S
N2290 C2252 1.343 . S
N2290 C2273 1.343 . S
N2291 C2259 1.343 . S
N2291 C2266 1.343 . S
C2292 C2293 1.384 . S
C2292 C2294 1.384 . S
C2292 H2320 0.931 . S
C2293 C2292 1.384 . S
C2293 C2296 1.382 . S
C2294 C2292 1.384 . S
C2294 C2295 1.381 . S
C2294 H2321 0.930 . S
C2295 C2294 1.381 . S
C2295 C2297 1.381 . S
C2295 C2298 1.487 . S
C2296 C2293 1.382 . S
C2296 C2297 1.387 . S
C2296 H2322 0.930 . S
C2297 C2295 1.381 . S
C2297 C2296 1.387 . S
C2297 H2323 0.931 . S
C2298 C2295 1.487 . S
C2298 C2305 1.399 . S
C2298 N2336 1.343 . S
C2299 C2300 1.384 . S
C2299 C2301 1.384 . S
C2299 H2324 0.931 . S
C2300 C2299 1.384 . S
C2300 C2303 1.382 . S
C2301 C2299 1.384 . S
C2301 C2302 1.381 . S
C2301 H2325 0.930 . S
C2302 C2301 1.381 . S
C2302 C2304 1.381 . S
C2302 C2305 1.487 . S
C2303 C2300 1.382 . S
C2303 C2304 1.387 . S
C2303 H2326 0.930 . S
C2304 C2302 1.381 . S
C2304 C2303 1.387 . S
C2304 H2327 0.931 . S
C2305 C2298 1.399 . S
C2305 C2302 1.487 . S
C2305 N2337 1.343 . S
C2306 C2307 1.384 . S
C2306 C2308 1.384 . S
C2306 H2328 0.931 . S
C2307 C2306 1.384 . S
C2307 C2310 1.382 . S
C2308 C2306 1.384 . S
C2308 C2309 1.381 . S
C2308 H2329 0.930 . S
C2309 C2308 1.381 . S
C2309 C2311 1.381 . S
C2309 C2312 1.487 . S
C2310 C2307 1.382 . S
C2310 C2311 1.387 . S
C2310 H2330 0.930 . S
C2311 C2309 1.381 . S
C2311 C2310 1.387 . S
C2311 H2331 0.931 . S
C2312 C2309 1.487 . S
C2312 C2319 1.399 . S
C2312 N2337 1.343 . S
C2313 C2314 1.384 . S
C2313 C2315 1.384 . S
C2313 H2332 0.931 . S
C2314 C2313 1.384 . S
C2314 C2317 1.382 . S
C2315 C2313 1.384 . S
C2315 C2316 1.381 . S
C2315 H2333 0.930 . S
C2316 C2315 1.381 . S
C2316 C2318 1.381 . S
C2316 C2319 1.487 . S
C2317 C2314 1.382 . S
C2317 C2318 1.387 . S
C2317 H2334 0.930 . S
C2318 C2316 1.381 . S
C2318 C2317 1.387 . S
C2318 H2335 0.931 . S
C2319 C2312 1.399 . S
C2319 C2316 1.487 . S
C2319 N2336 1.343 . S
H2320 C2292 0.931 . S
H2321 C2294 0.930 . S
H2322 C2296 0.930 . S
H2323 C2297 0.931 . S
H2324 C2299 0.931 . S
H2325 C2301 0.930 . S
H2326 C2303 0.930 . S
H2327 C2304 0.931 . S
H2328 C2306 0.931 . S
H2329 C2308 0.930 . S
H2330 C2310 0.930 . S
H2331 C2311 0.931 . S
H2332 C2313 0.931 . S
H2333 C2315 0.930 . S
H2334 C2317 0.930 . S
H2335 C2318 0.931 . S
N2336 C2298 1.343 . S
N2336 C2319 1.343 . S
N2337 C2305 1.343 . S
N2337 C2312 1.343 . S
C2338 C2339 1.384 . S
C2338 C2340 1.384 . S
C2338 H2366 0.931 . S
C2339 C2338 1.384 . S
C2339 C2342 1.382 . S
C2340 C2338 1.384 . S
C2340 C2341 1.381 . S
C2340 H2367 0.930 . S
C2341 C2340 1.381 . S
C2341 C2343 1.381 . S
C2341 C2344 1.487 . S
C2342 C2339 1.382 . S
C2342 C2343 1.387 . S
C2342 H2368 0.930 . S
C2343 C2341 1.381 . S
C2343 C2342 1.387 . S
C2343 H2369 0.931 . S
C2344 C2341 1.487 . S
C2344 C2351 1.399 . S
C2344 N2382 1.343 . S
C2345 C2346 1.384 . S
C2345 C2347 1.384 . S
C2345 H2370 0.931 . S
C2346 C2345 1.384 . S
C2346 C2349 1.382 . S
C2347 C2345 1.384 . S
C2347 C2348 1.381 . S
C2347 H2371 0.930 . S
C2348 C2347 1.381 . S
C2348 C2350 1.381 . S
C2348 C2351 1.487 . S
C2349 C2346 1.382 . S
C2349 C2350 1.387 . S
C2349 H2372 0.930 . S
C2350 C2348 1.381 . S
C2350 C2349 1.387 . S
C2350 H2373 0.931 . S
C2351 C2344 1.399 . S
C2351 C2348 1.487 . S
C2351 N2383 1.343 . S
C2352 C2353 1.384 . S
C2352 C2354 1.384 . S
C2352 H2374 0.931 . S
C2353 C2352 1.384 . S
C2353 C2356 1.382 . S
C2354 C2352 1.384 . S
C2354 C2355 1.381 . S
C2354 H2375 0.930 . S
C2355 C2354 1.381 . S
C2355 C2357 1.381 . S
C2355 C2358 1.487 . S
C2356 C2353 1.382 . S
C2356 C2357 1.387 . S
C2356 H2376 0.930 . S
C2357 C2355 1.381 . S
C2357 C2356 1.387 . S
C2357 H2377 0.931 . S
C2358 C2355 1.487 . S
C2358 C2365 1.399 . S
C2358 N2383 1.343 . S
C2359 C2360 1.384 . S
C2359 C2361 1.384 . S
C2359 H2378 0.931 . S
C2360 C2359 1.384 . S
C2360 C2363 1.382 . S
C2361 C2359 1.384 . S
C2361 C2362 1.381 . S
C2361 H2379 0.930 . S
C2362 C2361 1.381 . S
C2362 C2364 1.381 . S
C2362 C2365 1.487 . S
C2363 C2360 1.382 . S
C2363 C2364 1.387 . S
C2363 H2380 0.930 . S
C2364 C2362 1.381 . S
C2364 C2363 1.387 . S
C2364 H2381 0.931 . S
C2365 C2358 1.399 . S
C2365 C2362 1.487 . S
C2365 N2382 1.343 . S
H2366 C2338 0.931 . S
H2367 C2340 0.930 . S
H2368 C2342 0.930 . S
H2369 C2343 0.931 . S
H2370 C2345 0.931 . S
H2371 C2347 0.930 . S
H2372 C2349 0.930 . S
H2373 C2350 0.931 . S
H2374 C2352 0.931 . S
H2375 C2354 0.930 . S
H2376 C2356 0.930 . S
H2377 C2357 0.931 . S
H2378 C2359 0.931 . S
H2379 C2361 0.930 . S
H2380 C2363 0.930 . S
H2381 C2364 0.931 . S
N2382 C2344 1.343 . S
N2382 C2365 1.343 . S
N2383 C2351 1.343 . S
N2383 C2358 1.343 . S
C2384 C2385 1.387 . S
C2384 H2388 0.950 . S
C2384 C2393 1.390 . S
C2385 C2384 1.387 . S
C2385 C2387 1.387 . S
H2386 C2393 0.950 . S
C2387 C2385 1.387 . S
C2387 C2389 1.390 . S
C2387 H2391 0.950 . S
H2388 C2384 0.950 . S
C2389 C2387 1.390 . S
C2389 C2390 1.387 . S
C2389 H2392 0.950 . S
C2390 C2389 1.387 . S
C2390 C2393 1.387 . S
H2391 C2387 0.950 . S
H2392 C2389 0.950 . S
C2393 C2384 1.390 . S
C2393 H2386 0.950 . S
C2393 C2390 1.387 . S
C2394 C2395 1.387 . S
C2394 H2398 0.950 . S
C2394 C2403 1.390 . S
C2395 C2394 1.387 . S
C2395 C2397 1.387 . S
H2396 C2403 0.950 . S
C2397 C2395 1.387 . S
C2397 C2399 1.390 . S
C2397 H2401 0.950 . S
H2398 C2394 0.950 . S
C2399 C2397 1.390 . S
C2399 C2400 1.387 . S
C2399 H2402 0.950 . S
C2400 C2399 1.387 . S
C2400 C2403 1.387 . S
H2401 C2397 0.950 . S
H2402 C2399 0.950 . S
C2403 C2394 1.390 . S
C2403 H2396 0.950 . S
C2403 C2400 1.387 . S
C2404 C2405 1.387 . S
C2404 H2408 0.950 . S
C2404 C2413 1.390 . S
C2405 C2404 1.387 . S
C2405 C2407 1.387 . S
H2406 C2413 0.950 . S
C2407 C2405 1.387 . S
C2407 C2409 1.390 . S
C2407 H2411 0.950 . S
H2408 C2404 0.950 . S
C2409 C2407 1.390 . S
C2409 C2410 1.387 . S
C2409 H2412 0.950 . S
C2410 C2409 1.387 . S
C2410 C2413 1.387 . S
H2411 C2407 0.950 . S
H2412 C2409 0.950 . S
C2413 C2404 1.390 . S
C2413 H2406 0.950 . S
C2413 C2410 1.387 . S
C2414 C2415 1.387 . S
C2414 H2418 0.950 . S
C2414 C2423 1.390 . S
C2415 C2414 1.387 . S
C2415 C2417 1.387 . S
H2416 C2423 0.950 . S
C2417 C2415 1.387 . S
C2417 C2419 1.390 . S
C2417 H2421 0.950 . S
H2418 C2414 0.950 . S
C2419 C2417 1.390 . S
C2419 C2420 1.387 . S
C2419 H2422 0.950 . S
C2420 C2419 1.387 . S
C2420 C2423 1.387 . S
H2421 C2417 0.950 . S
H2422 C2419 0.950 . S
C2423 C2414 1.390 . S
C2423 H2416 0.950 . S
C2423 C2420 1.387 . S
C2424 C2425 1.387 . S
C2424 H2428 0.950 . S
C2424 C2433 1.390 . S
C2425 C2424 1.387 . S
C2425 C2427 1.387 . S
H2426 C2433 0.950 . S
C2427 C2425 1.387 . S
C2427 C2429 1.390 . S
C2427 H2431 0.950 . S
H2428 C2424 0.950 . S
C2429 C2427 1.390 . S
C2429 C2430 1.387 . S
C2429 H2432 0.950 . S
C2430 C2429 1.387 . S
C2430 C2433 1.387 . S
H2431 C2427 0.950 . S
H2432 C2429 0.950 . S
C2433 C2424 1.390 . S
C2433 H2426 0.950 . S
C2433 C2430 1.387 . S
C2434 C2435 1.387 . S
C2434 H2438 0.950 . S
C2434 C2443 1.390 . S
C2435 C2434 1.387 . S
C2435 C2437 1.387 . S
H2436 C2443 0.950 . S
C2437 C2435 1.387 . S
C2437 C2439 1.390 . S
C2437 H2441 0.950 . S
H2438 C2434 0.950 . S
C2439 C2437 1.390 . S
C2439 C2440 1.387 . S
C2439 H2442 0.950 . S
C2440 C2439 1.387 . S
C2440 C2443 1.387 . S
H2441 C2437 0.950 . S
H2442 C2439 0.950 . S
C2443 C2434 1.390 . S
C2443 H2436 0.950 . S
C2443 C2440 1.387 . S
C2444 C2445 1.387 . S
C2444 H2448 0.950 . S
C2444 C2453 1.390 . S
C2445 C2444 1.387 . S
C2445 C2447 1.387 . S
H2446 C2453 0.950 . S
C2447 C2445 1.387 . S
C2447 C2449 1.390 . S
C2447 H2451 0.950 . S
H2448 C2444 0.950 . S
C2449 C2447 1.390 . S
C2449 C2450 1.387 . S
C2449 H2452 0.950 . S
C2450 C2449 1.387 . S
C2450 C2453 1.387 . S
H2451 C2447 0.950 . S
H2452 C2449 0.950 . S
C2453 C2444 1.390 . S
C2453 H2446 0.950 . S
C2453 C2450 1.387 . S
C2454 C2455 1.387 . S
C2454 H2458 0.950 . S
C2454 C2463 1.390 . S
C2455 C2454 1.387 . S
C2455 C2457 1.387 . S
H2456 C2463 0.950 . S
C2457 C2455 1.387 . S
C2457 C2459 1.390 . S
C2457 H2461 0.950 . S
H2458 C2454 0.950 . S
C2459 C2457 1.390 . S
C2459 C2460 1.387 . S
C2459 H2462 0.950 . S
C2460 C2459 1.387 . S
C2460 C2463 1.387 . S
H2461 C2457 0.950 . S
H2462 C2459 0.950 . S
C2463 C2454 1.390 . S
C2463 H2456 0.950 . S
C2463 C2460 1.387 . S
C2464 C2465 1.387 . S
C2464 H2468 0.950 . S
C2464 C2473 1.390 . S
C2465 C2464 1.387 . S
C2465 C2467 1.387 . S
H2466 C2473 0.950 . S
C2467 C2465 1.387 . S
C2467 C2469 1.390 . S
C2467 H2471 0.950 . S
H2468 C2464 0.950 . S
C2469 C2467 1.390 . S
C2469 C2470 1.387 . S
C2469 H2472 0.950 . S
C2470 C2469 1.387 . S
C2470 C2473 1.387 . S
H2471 C2467 0.950 . S
H2472 C2469 0.950 . S
C2473 C2464 1.390 . S
C2473 H2466 0.950 . S
C2473 C2470 1.387 . S
C2474 C2475 1.387 . S
C2474 H2478 0.950 . S
C2474 C2483 1.390 . S
C2475 C2474 1.387 . S
C2475 C2477 1.387 . S
H2476 C2483 0.950 . S
C2477 C2475 1.387 . S
C2477 C2479 1.390 . S
C2477 H2481 0.950 . S
H2478 C2474 0.950 . S
C2479 C2477 1.390 . S
C2479 C2480 1.387 . S
C2479 H2482 0.950 . S
C2480 C2479 1.387 . S
C2480 C2483 1.387 . S
H2481 C2477 0.950 . S
H2482 C2479 0.950 . S
C2483 C2474 1.390 . S
C2483 H2476 0.950 . S
C2483 C2480 1.387 . S
C2484 C2485 1.387 . S
C2484 H2488 0.950 . S
C2484 C2493 1.390 . S
C2485 C2484 1.387 . S
C2485 C2487 1.387 . S
H2486 C2493 0.950 . S
C2487 C2485 1.387 . S
C2487 C2489 1.390 . S
C2487 H2491 0.950 . S
H2488 C2484 0.950 . S
C2489 C2487 1.390 . S
C2489 C2490 1.387 . S
C2489 H2492 0.950 . S
C2490 C2489 1.387 . S
C2490 C2493 1.387 . S
H2491 C2487 0.950 . S
H2492 C2489 0.950 . S
C2493 C2484 1.390 . S
C2493 H2486 0.950 . S
C2493 C2490 1.387 . S
C2494 C2495 1.387 . S
C2494 H2498 0.950 . S
C2494 C2503 1.390 . S
C2495 C2494 1.387 . S
C2495 C2497 1.387 . S
H2496 C2503 0.950 . S
C2497 C2495 1.387 . S
C2497 C2499 1.390 . S
C2497 H2501 0.950 . S
H2498 C2494 0.950 . S
C2499 C2497 1.390 . S
C2499 C2500 1.387 . S
C2499 H2502 0.950 . S
C2500 C2499 1.387 . S
C2500 C2503 1.387 . S
H2501 C2497 0.950 . S
H2502 C2499 0.950 . S
C2503 C2494 1.390 . S
C2503 H2496 0.950 . S
C2503 C2500 1.387 . S
C2504 C2505 1.387 . S
C2504 H2508 0.950 . S
C2504 C2513 1.390 . S
C2505 C2504 1.387 . S
C2505 C2507 1.387 . S
H2506 C2513 0.950 . S
C2507 C2505 1.387 . S
C2507 C2509 1.390 . S
C2507 H2511 0.950 . S
H2508 C2504 0.950 . S
C2509 C2507 1.390 . S
C2509 C2510 1.387 . S
C2509 H2512 0.950 . S
C2510 C2509 1.387 . S
C2510 C2513 1.387 . S
H2511 C2507 0.950 . S
H2512 C2509 0.950 . S
C2513 C2504 1.390 . S
C2513 H2506 0.950 . S
C2513 C2510 1.387 . S
C2514 C2515 1.387 . S
C2514 H2518 0.950 . S
C2514 C2523 1.390 . S
C2515 C2514 1.387 . S
C2515 C2517 1.387 . S
H2516 C2523 0.950 . S
C2517 C2515 1.387 . S
C2517 C2519 1.390 . S
C2517 H2521 0.950 . S
H2518 C2514 0.950 . S
C2519 C2517 1.390 . S
C2519 C2520 1.387 . S
C2519 H2522 0.950 . S
C2520 C2519 1.387 . S
C2520 C2523 1.387 . S
H2521 C2517 0.950 . S
H2522 C2519 0.950 . S
C2523 C2514 1.390 . S
C2523 H2516 0.950 . S
C2523 C2520 1.387 . S
C2524 C2525 1.387 . S
C2524 H2528 0.950 . S
C2524 C2533 1.390 . S
C2525 C2524 1.387 . S
C2525 C2527 1.387 . S
H2526 C2533 0.950 . S
C2527 C2525 1.387 . S
C2527 C2529 1.390 . S
C2527 H2531 0.950 . S
H2528 C2524 0.950 . S
C2529 C2527 1.390 . S
C2529 C2530 1.387 . S
C2529 H2532 0.950 . S
C2530 C2529 1.387 . S
C2530 C2533 1.387 . S
H2531 C2527 0.950 . S
H2532 C2529 0.950 . S
C2533 C2524 1.390 . S
C2533 H2526 0.950 . S
C2533 C2530 1.387 . S
C2534 C2535 1.387 . S
C2534 H2538 0.950 . S
C2534 C2543 1.390 . S
C2535 C2534 1.387 . S
C2535 C2537 1.387 . S
H2536 C2543 0.950 . S
C2537 C2535 1.387 . S
C2537 C2539 1.390 . S
C2537 H2541 0.950 . S
H2538 C2534 0.950 . S
C2539 C2537 1.390 . S
C2539 C2540 1.387 . S
C2539 H2542 0.950 . S
C2540 C2539 1.387 . S
C2540 C2543 1.387 . S
H2541 C2537 0.950 . S
H2542 C2539 0.950 . S
C2543 C2534 1.390 . S
C2543 H2536 0.950 . S
C2543 C2540 1.387 . S
C2544 C2545 1.387 . S
C2544 H2548 0.950 . S
C2544 C2553 1.390 . S
C2545 C2544 1.387 . S
C2545 C2547 1.387 . S
H2546 C2553 0.950 . S
C2547 C2545 1.387 . S
C2547 C2549 1.390 . S
C2547 H2551 0.950 . S
H2548 C2544 0.950 . S
C2549 C2547 1.390 . S
C2549 C2550 1.387 . S
C2549 H2552 0.950 . S
C2550 C2549 1.387 . S
C2550 C2553 1.387 . S
H2551 C2547 0.950 . S
H2552 C2549 0.950 . S
C2553 C2544 1.390 . S
C2553 H2546 0.950 . S
C2553 C2550 1.387 . S
C2554 C2555 1.387 . S
C2554 H2558 0.950 . S
C2554 C2563 1.390 . S
C2555 C2554 1.387 . S
C2555 C2557 1.387 . S
H2556 C2563 0.950 . S
C2557 C2555 1.387 . S
C2557 C2559 1.390 . S
C2557 H2561 0.950 . S
H2558 C2554 0.950 . S
C2559 C2557 1.390 . S
C2559 C2560 1.387 . S
C2559 H2562 0.950 . S
C2560 C2559 1.387 . S
C2560 C2563 1.387 . S
H2561 C2557 0.950 . S
H2562 C2559 0.950 . S
C2563 C2554 1.390 . S
C2563 H2556 0.950 . S
C2563 C2560 1.387 . S
C2564 C2565 1.387 . S
C2564 H2568 0.950 . S
C2564 C2573 1.390 . S
C2565 C2564 1.387 . S
C2565 C2567 1.387 . S
H2566 C2573 0.950 . S
C2567 C2565 1.387 . S
C2567 C2569 1.390 . S
C2567 H2571 0.950 . S
H2568 C2564 0.950 . S
C2569 C2567 1.390 . S
C2569 C2570 1.387 . S
C2569 H2572 0.950 . S
C2570 C2569 1.387 . S
C2570 C2573 1.387 . S
H2571 C2567 0.950 . S
H2572 C2569 0.950 . S
C2573 C2564 1.390 . S
C2573 H2566 0.950 . S
C2573 C2570 1.387 . S
C2574 C2575 1.387 . S
C2574 H2578 0.950 . S
C2574 C2583 1.390 . S
C2575 C2574 1.387 . S
C2575 C2577 1.387 . S
H2576 C2583 0.950 . S
C2577 C2575 1.387 . S
C2577 C2579 1.390 . S
C2577 H2581 0.950 . S
H2578 C2574 0.950 . S
C2579 C2577 1.390 . S
C2579 C2580 1.387 . S
C2579 H2582 0.950 . S
C2580 C2579 1.387 . S
C2580 C2583 1.387 . S
H2581 C2577 0.950 . S
H2582 C2579 0.950 . S
C2583 C2574 1.390 . S
C2583 H2576 0.950 . S
C2583 C2580 1.387 . S
C2584 C2585 1.387 . S
C2584 H2588 0.950 . S
C2584 C2593 1.390 . S
C2585 C2584 1.387 . S
C2585 C2587 1.387 . S
H2586 C2593 0.950 . S
C2587 C2585 1.387 . S
C2587 C2589 1.390 . S
C2587 H2591 0.950 . S
H2588 C2584 0.950 . S
C2589 C2587 1.390 . S
C2589 C2590 1.387 . S
C2589 H2592 0.950 . S
C2590 C2589 1.387 . S
C2590 C2593 1.387 . S
H2591 C2587 0.950 . S
H2592 C2589 0.950 . S
C2593 C2584 1.390 . S
C2593 H2586 0.950 . S
C2593 C2590 1.387 . S
C2594 C2595 1.387 . S
C2594 H2598 0.950 . S
C2594 C2603 1.390 . S
C2595 C2594 1.387 . S
C2595 C2597 1.387 . S
H2596 C2603 0.950 . S
C2597 C2595 1.387 . S
C2597 C2599 1.390 . S
C2597 H2601 0.950 . S
H2598 C2594 0.950 . S
C2599 C2597 1.390 . S
C2599 C2600 1.387 . S
C2599 H2602 0.950 . S
C2600 C2599 1.387 . S
C2600 C2603 1.387 . S
H2601 C2597 0.950 . S
H2602 C2599 0.950 . S
C2603 C2594 1.390 . S
C2603 H2596 0.950 . S
C2603 C2600 1.387 . S
C2604 C2605 1.387 . S
C2604 H2608 0.950 . S
C2604 C2613 1.390 . S
C2605 C2604 1.387 . S
C2605 C2607 1.387 . S
H2606 C2613 0.950 . S
C2607 C2605 1.387 . S
C2607 C2609 1.390 . S
C2607 H2611 0.950 . S
H2608 C2604 0.950 . S
C2609 C2607 1.390 . S
C2609 C2610 1.387 . S
C2609 H2612 0.950 . S
C2610 C2609 1.387 . S
C2610 C2613 1.387 . S
H2611 C2607 0.950 . S
H2612 C2609 0.950 . S
C2613 C2604 1.390 . S
C2613 H2606 0.950 . S
C2613 C2610 1.387 . S
C2614 C2615 1.387 . S
C2614 H2618 0.950 . S
C2614 C2623 1.390 . S
C2615 C2614 1.387 . S
C2615 C2617 1.387 . S
H2616 C2623 0.950 . S
C2617 C2615 1.387 . S
C2617 C2619 1.390 . S
C2617 H2621 0.950 . S
H2618 C2614 0.950 . S
C2619 C2617 1.390 . S
C2619 C2620 1.387 . S
C2619 H2622 0.950 . S
C2620 C2619 1.387 . S
C2620 C2623 1.387 . S
H2621 C2617 0.950 . S
H2622 C2619 0.950 . S
C2623 C2614 1.390 . S
C2623 H2616 0.950 . S
C2623 C2620 1.387 . S
C2624 C2625 1.387 . S
C2624 H2628 0.950 . S
C2624 C2633 1.390 . S
C2625 C2624 1.387 . S
C2625 C2627 1.387 . S
H2626 C2633 0.950 . S
C2627 C2625 1.387 . S
C2627 C2629 1.390 . S
C2627 H2631 0.950 . S
H2628 C2624 0.950 . S
C2629 C2627 1.390 . S
C2629 C2630 1.387 . S
C2629 H2632 0.950 . S
C2630 C2629 1.387 . S
C2630 C2633 1.387 . S
H2631 C2627 0.950 . S
H2632 C2629 0.950 . S
C2633 C2624 1.390 . S
C2633 H2626 0.950 . S
C2633 C2630 1.387 . S
C2634 C2635 1.387 . S
C2634 H2638 0.950 . S
C2634 C2643 1.390 . S
C2635 C2634 1.387 . S
C2635 C2637 1.387 . S
H2636 C2643 0.950 . S
C2637 C2635 1.387 . S
C2637 C2639 1.390 . S
C2637 H2641 0.950 . S
H2638 C2634 0.950 . S
C2639 C2637 1.390 . S
C2639 C2640 1.387 . S
C2639 H2642 0.950 . S
C2640 C2639 1.387 . S
C2640 C2643 1.387 . S
H2641 C2637 0.950 . S
H2642 C2639 0.950 . S
C2643 C2634 1.390 . S
C2643 H2636 0.950 . S
C2643 C2640 1.387 . S
C2644 C2645 1.387 . S
C2644 H2648 0.950 . S
C2644 C2653 1.390 . S
C2645 C2644 1.387 . S
C2645 C2647 1.387 . S
H2646 C2653 0.950 . S
C2647 C2645 1.387 . S
C2647 C2649 1.390 . S
C2647 H2651 0.950 . S
H2648 C2644 0.950 . S
C2649 C2647 1.390 . S
C2649 C2650 1.387 . S
C2649 H2652 0.950 . S
C2650 C2649 1.387 . S
C2650 C2653 1.387 . S
H2651 C2647 0.950 . S
H2652 C2649 0.950 . S
C2653 C2644 1.390 . S
C2653 H2646 0.950 . S
C2653 C2650 1.387 . S
C2654 C2655 1.387 . S
C2654 H2658 0.950 . S
C2654 C2663 1.390 . S
C2655 C2654 1.387 . S
C2655 C2657 1.387 . S
H2656 C2663 0.950 . S
C2657 C2655 1.387 . S
C2657 C2659 1.390 . S
C2657 H2661 0.950 . S
H2658 C2654 0.950 . S
C2659 C2657 1.390 . S
C2659 C2660 1.387 . S
C2659 H2662 0.950 . S
C2660 C2659 1.387 . S
C2660 C2663 1.387 . S
H2661 C2657 0.950 . S
H2662 C2659 0.950 . S
C2663 C2654 1.390 . S
C2663 H2656 0.950 . S
C2663 C2660 1.387 . S
C2664 C2665 1.387 . S
C2664 H2668 0.950 . S
C2664 C2673 1.390 . S
C2665 C2664 1.387 . S
C2665 C2667 1.387 . S
H2666 C2673 0.950 . S
C2667 C2665 1.387 . S
C2667 C2669 1.390 . S
C2667 H2671 0.950 . S
H2668 C2664 0.950 . S
C2669 C2667 1.390 . S
C2669 C2670 1.387 . S
C2669 H2672 0.950 . S
C2670 C2669 1.387 . S
C2670 C2673 1.387 . S
H2671 C2667 0.950 . S
H2672 C2669 0.950 . S
C2673 C2664 1.390 . S
C2673 H2666 0.950 . S
C2673 C2670 1.387 . S
C2674 C2675 1.387 . S
C2674 H2678 0.950 . S
C2674 C2683 1.390 . S
C2675 C2674 1.387 . S
C2675 C2677 1.387 . S
H2676 C2683 0.950 . S
C2677 C2675 1.387 . S
C2677 C2679 1.390 . S
C2677 H2681 0.950 . S
H2678 C2674 0.950 . S
C2679 C2677 1.390 . S
C2679 C2680 1.387 . S
C2679 H2682 0.950 . S
C2680 C2679 1.387 . S
C2680 C2683 1.387 . S
H2681 C2677 0.950 . S
H2682 C2679 0.950 . S
C2683 C2674 1.390 . S
C2683 H2676 0.950 . S
C2683 C2680 1.387 . S
C2684 C2685 1.387 . S
C2684 H2688 0.950 . S
C2684 C2693 1.390 . S
C2685 C2684 1.387 . S
C2685 C2687 1.387 . S
H2686 C2693 0.950 . S
C2687 C2685 1.387 . S
C2687 C2689 1.390 . S
C2687 H2691 0.950 . S
H2688 C2684 0.950 . S
C2689 C2687 1.390 . S
C2689 C2690 1.387 . S
C2689 H2692 0.950 . S
C2690 C2689 1.387 . S
C2690 C2693 1.387 . S
H2691 C2687 0.950 . S
H2692 C2689 0.950 . S
C2693 C2684 1.390 . S
C2693 H2686 0.950 . S
C2693 C2690 1.387 . S
C2694 C2695 1.387 . S
C2694 H2698 0.950 . S
C2694 C2703 1.390 . S
C2695 C2694 1.387 . S
C2695 C2697 1.387 . S
H2696 C2703 0.950 . S
C2697 C2695 1.387 . S
C2697 C2699 1.390 . S
C2697 H2701 0.950 . S
H2698 C2694 0.950 . S
C2699 C2697 1.390 . S
C2699 C2700 1.387 . S
C2699 H2702 0.950 . S
C2700 C2699 1.387 . S
C2700 C2703 1.387 . S
H2701 C2697 0.950 . S
H2702 C2699 0.950 . S
C2703 C2694 1.390 . S
C2703 H2696 0.950 . S
C2703 C2700 1.387 . S
C2704 C2705 1.387 . S
C2704 H2708 0.950 . S
C2704 C2713 1.390 . S
C2705 C2704 1.387 . S
C2705 C2707 1.387 . S
H2706 C2713 0.950 . S
C2707 C2705 1.387 . S
C2707 C2709 1.390 . S
C2707 H2711 0.950 . S
H2708 C2704 0.950 . S
C2709 C2707 1.390 . S
C2709 C2710 1.387 . S
C2709 H2712 0.950 . S
C2710 C2709 1.387 . S
C2710 C2713 1.387 . S
H2711 C2707 0.950 . S
H2712 C2709 0.950 . S
C2713 C2704 1.390 . S
C2713 H2706 0.950 . S
C2713 C2710 1.387 . S
C2714 C2715 1.387 . S
C2714 H2718 0.950 . S
C2714 C2723 1.390 . S
C2715 C2714 1.387 . S
C2715 C2717 1.387 . S
H2716 C2723 0.950 . S
C2717 C2715 1.387 . S
C2717 C2719 1.390 . S
C2717 H2721 0.950 . S
H2718 C2714 0.950 . S
C2719 C2717 1.390 . S
C2719 C2720 1.387 . S
C2719 H2722 0.950 . S
C2720 C2719 1.387 . S
C2720 C2723 1.387 . S
H2721 C2717 0.950 . S
H2722 C2719 0.950 . S
C2723 C2714 1.390 . S
C2723 H2716 0.950 . S
C2723 C2720 1.387 . S
C2724 C2725 1.387 . S
C2724 H2728 0.950 . S
C2724 C2733 1.390 . S
C2725 C2724 1.387 . S
C2725 C2727 1.387 . S
H2726 C2733 0.950 . S
C2727 C2725 1.387 . S
C2727 C2729 1.390 . S
C2727 H2731 0.950 . S
H2728 C2724 0.950 . S
C2729 C2727 1.390 . S
C2729 C2730 1.387 . S
C2729 H2732 0.950 . S
C2730 C2729 1.387 . S
C2730 C2733 1.387 . S
H2731 C2727 0.950 . S
H2732 C2729 0.950 . S
C2733 C2724 1.390 . S
C2733 H2726 0.950 . S
C2733 C2730 1.387 . S
C2734 C2735 1.387 . S
C2734 H2738 0.950 . S
C2734 C2743 1.390 . S
C2735 C2734 1.387 . S
C2735 C2737 1.387 . S
H2736 C2743 0.950 . S
C2737 C2735 1.387 . S
C2737 C2739 1.390 . S
C2737 H2741 0.950 . S
H2738 C2734 0.950 . S
C2739 C2737 1.390 . S
C2739 C2740 1.387 . S
C2739 H2742 0.950 . S
C2740 C2739 1.387 . S
C2740 C2743 1.387 . S
H2741 C2737 0.950 . S
H2742 C2739 0.950 . S
C2743 C2734 1.390 . S
C2743 H2736 0.950 . S
C2743 C2740 1.387 . S
C2744 C2745 1.387 . S
C2744 H2748 0.950 . S
C2744 C2753 1.390 . S
C2745 C2744 1.387 . S
C2745 C2747 1.387 . S
H2746 C2753 0.950 . S
C2747 C2745 1.387 . S
C2747 C2749 1.390 . S
C2747 H2751 0.950 . S
H2748 C2744 0.950 . S
C2749 C2747 1.390 . S
C2749 C2750 1.387 . S
C2749 H2752 0.950 . S
C2750 C2749 1.387 . S
C2750 C2753 1.387 . S
H2751 C2747 0.950 . S
H2752 C2749 0.950 . S
C2753 C2744 1.390 . S
C2753 H2746 0.950 . S
C2753 C2750 1.387 . S
C2754 C2755 1.387 . S
C2754 H2758 0.950 . S
C2754 C2763 1.390 . S
C2755 C2754 1.387 . S
C2755 C2757 1.387 . S
H2756 C2763 0.950 . S
C2757 C2755 1.387 . S
C2757 C2759 1.390 . S
C2757 H2761 0.950 . S
H2758 C2754 0.950 . S
C2759 C2757 1.390 . S
C2759 C2760 1.387 . S
C2759 H2762 0.950 . S
C2760 C2759 1.387 . S
C2760 C2763 1.387 . S
H2761 C2757 0.950 . S
H2762 C2759 0.950 . S
C2763 C2754 1.390 . S
C2763 H2756 0.950 . S
C2763 C2760 1.387 . S
C2764 C2765 1.387 . S
C2764 H2768 0.950 . S
C2764 C2773 1.390 . S
C2765 C2764 1.387 . S
C2765 C2767 1.387 . S
H2766 C2773 0.950 . S
C2767 C2765 1.387 . S
C2767 C2769 1.390 . S
C2767 H2771 0.950 . S
H2768 C2764 0.950 . S
C2769 C2767 1.390 . S
C2769 C2770 1.387 . S
C2769 H2772 0.950 . S
C2770 C2769 1.387 . S
C2770 C2773 1.387 . S
H2771 C2767 0.950 . S
H2772 C2769 0.950 . S
C2773 C2764 1.390 . S
C2773 H2766 0.950 . S
C2773 C2770 1.387 . S
C2774 C2775 1.387 . S
C2774 H2778 0.950 . S
C2774 C2783 1.390 . S
C2775 C2774 1.387 . S
C2775 C2777 1.387 . S
H2776 C2783 0.950 . S
C2777 C2775 1.387 . S
C2777 C2779 1.390 . S
C2777 H2781 0.950 . S
H2778 C2774 0.950 . S
C2779 C2777 1.390 . S
C2779 C2780 1.387 . S
C2779 H2782 0.950 . S
C2780 C2779 1.387 . S
C2780 C2783 1.387 . S
H2781 C2777 0.950 . S
H2782 C2779 0.950 . S
C2783 C2774 1.390 . S
C2783 H2776 0.950 . S
C2783 C2780 1.387 . S
C2784 C2785 1.387 . S
C2784 H2788 0.950 . S
C2784 C2793 1.390 . S
C2785 C2784 1.387 . S
C2785 C2787 1.387 . S
H2786 C2793 0.950 . S
C2787 C2785 1.387 . S
C2787 C2789 1.390 . S
C2787 H2791 0.950 . S
H2788 C2784 0.950 . S
C2789 C2787 1.390 . S
C2789 C2790 1.387 . S
C2789 H2792 0.950 . S
C2790 C2789 1.387 . S
C2790 C2793 1.387 . S
H2791 C2787 0.950 . S
H2792 C2789 0.950 . S
C2793 C2784 1.390 . S
C2793 H2786 0.950 . S
C2793 C2790 1.387 . S
C2794 C2795 1.387 . S
C2794 H2798 0.950 . S
C2794 C2803 1.390 . S
C2795 C2794 1.387 . S
C2795 C2797 1.387 . S
H2796 C2803 0.950 . S
C2797 C2795 1.387 . S
C2797 C2799 1.390 . S
C2797 H2801 0.950 . S
H2798 C2794 0.950 . S
C2799 C2797 1.390 . S
C2799 C2800 1.387 . S
C2799 H2802 0.950 . S
C2800 C2799 1.387 . S
C2800 C2803 1.387 . S
H2801 C2797 0.950 . S
H2802 C2799 0.950 . S
C2803 C2794 1.390 . S
C2803 H2796 0.950 . S
C2803 C2800 1.387 . S
C2804 C2805 1.387 . S
C2804 H2808 0.950 . S
C2804 C2813 1.390 . S
C2805 C2804 1.387 . S
C2805 C2807 1.387 . S
H2806 C2813 0.950 . S
C2807 C2805 1.387 . S
C2807 C2809 1.390 . S
C2807 H2811 0.950 . S
H2808 C2804 0.950 . S
C2809 C2807 1.390 . S
C2809 C2810 1.387 . S
C2809 H2812 0.950 . S
C2810 C2809 1.387 . S
C2810 C2813 1.387 . S
H2811 C2807 0.950 . S
H2812 C2809 0.950 . S
C2813 C2804 1.390 . S
C2813 H2806 0.950 . S
C2813 C2810 1.387 . S
C2814 C2815 1.387 . S
C2814 H2818 0.950 . S
C2814 C2823 1.390 . S
C2815 C2814 1.387 . S
C2815 C2817 1.387 . S
H2816 C2823 0.950 . S
C2817 C2815 1.387 . S
C2817 C2819 1.390 . S
C2817 H2821 0.950 . S
H2818 C2814 0.950 . S
C2819 C2817 1.390 . S
C2819 C2820 1.387 . S
C2819 H2822 0.950 . S
C2820 C2819 1.387 . S
C2820 C2823 1.387 . S
H2821 C2817 0.950 . S
H2822 C2819 0.950 . S
C2823 C2814 1.390 . S
C2823 H2816 0.950 . S
C2823 C2820 1.387 . S
C2824 C2825 1.387 . S
C2824 H2828 0.950 . S
C2824 C2833 1.390 . S
C2825 C2824 1.387 . S
C2825 C2827 1.387 . S
H2826 C2833 0.950 . S
C2827 C2825 1.387 . S
C2827 C2829 1.390 . S
C2827 H2831 0.950 . S
H2828 C2824 0.950 . S
C2829 C2827 1.390 . S
C2829 C2830 1.387 . S
C2829 H2832 0.950 . S
C2830 C2829 1.387 . S
C2830 C2833 1.387 . S
H2831 C2827 0.950 . S
H2832 C2829 0.950 . S
C2833 C2824 1.390 . S
C2833 H2826 0.950 . S
C2833 C2830 1.387 . S
C2834 C2835 1.387 . S
C2834 H2838 0.950 . S
C2834 C2843 1.390 . S
C2835 C2834 1.387 . S
C2835 C2837 1.387 . S
H2836 C2843 0.950 . S
C2837 C2835 1.387 . S
C2837 C2839 1.390 . S
C2837 H2841 0.950 . S
H2838 C2834 0.950 . S
C2839 C2837 1.390 . S
C2839 C2840 1.387 . S
C2839 H2842 0.950 . S
C2840 C2839 1.387 . S
C2840 C2843 1.387 . S
H2841 C2837 0.950 . S
H2842 C2839 0.950 . S
C2843 C2834 1.390 . S
C2843 H2836 0.950 . S
C2843 C2840 1.387 . S
C2844 C2845 1.387 . S
C2844 H2848 0.950 . S
C2844 C2853 1.390 . S
C2845 C2844 1.387 . S
C2845 C2847 1.387 . S
H2846 C2853 0.950 . S
C2847 C2845 1.387 . S
C2847 C2849 1.390 . S
C2847 H2851 0.950 . S
H2848 C2844 0.950 . S
C2849 C2847 1.390 . S
C2849 C2850 1.387 . S
C2849 H2852 0.950 . S
C2850 C2849 1.387 . S
C2850 C2853 1.387 . S
H2851 C2847 0.950 . S
H2852 C2849 0.950 . S
C2853 C2844 1.390 . S
C2853 H2846 0.950 . S
C2853 C2850 1.387 . S
C2854 C2855 1.387 . S
C2854 H2858 0.950 . S
C2854 C2863 1.390 . S
C2855 C2854 1.387 . S
C2855 C2857 1.387 . S
H2856 C2863 0.950 . S
C2857 C2855 1.387 . S
C2857 C2859 1.390 . S
C2857 H2861 0.950 . S
H2858 C2854 0.950 . S
C2859 C2857 1.390 . S
C2859 C2860 1.387 . S
C2859 H2862 0.950 . S
C2860 C2859 1.387 . S
C2860 C2863 1.387 . S
H2861 C2857 0.950 . S
H2862 C2859 0.950 . S
C2863 C2854 1.390 . S
C2863 H2856 0.950 . S
C2863 C2860 1.387 . S
C2864 C2865 1.387 . S
C2864 H2868 0.950 . S
C2864 C2873 1.390 . S
C2865 C2864 1.387 . S
C2865 C2867 1.387 . S
H2866 C2873 0.950 . S
C2867 C2865 1.387 . S
C2867 C2869 1.390 . S
C2867 H2871 0.950 . S
H2868 C2864 0.950 . S
C2869 C2867 1.390 . S
C2869 C2870 1.387 . S
C2869 H2872 0.950 . S
C2870 C2869 1.387 . S
C2870 C2873 1.387 . S
H2871 C2867 0.950 . S
H2872 C2869 0.950 . S
C2873 C2864 1.390 . S
C2873 H2866 0.950 . S
C2873 C2870 1.387 . S
C2874 C2875 1.387 . S
C2874 H2878 0.950 . S
C2874 C2883 1.390 . S
C2875 C2874 1.387 . S
C2875 C2877 1.387 . S
H2876 C2883 0.950 . S
C2877 C2875 1.387 . S
C2877 C2879 1.390 . S
C2877 H2881 0.950 . S
H2878 C2874 0.950 . S
C2879 C2877 1.390 . S
C2879 C2880 1.387 . S
C2879 H2882 0.950 . S
C2880 C2879 1.387 . S
C2880 C2883 1.387 . S
H2881 C2877 0.950 . S
H2882 C2879 0.950 . S
C2883 C2874 1.390 . S
C2883 H2876 0.950 . S
C2883 C2880 1.387 . S
C2884 C2885 1.387 . S
C2884 H2888 0.950 . S
C2884 C2893 1.390 . S
C2885 C2884 1.387 . S
C2885 C2887 1.387 . S
H2886 C2893 0.950 . S
C2887 C2885 1.387 . S
C2887 C2889 1.390 . S
C2887 H2891 0.950 . S
H2888 C2884 0.950 . S
C2889 C2887 1.390 . S
C2889 C2890 1.387 . S
C2889 H2892 0.950 . S
C2890 C2889 1.387 . S
C2890 C2893 1.387 . S
H2891 C2887 0.950 . S
H2892 C2889 0.950 . S
C2893 C2884 1.390 . S
C2893 H2886 0.950 . S
C2893 C2890 1.387 . S
C2894 C2895 1.387 . S
C2894 H2898 0.950 . S
C2894 C2903 1.390 . S
C2895 C2894 1.387 . S
C2895 C2897 1.387 . S
H2896 C2903 0.950 . S
C2897 C2895 1.387 . S
C2897 C2899 1.390 . S
C2897 H2901 0.950 . S
H2898 C2894 0.950 . S
C2899 C2897 1.390 . S
C2899 C2900 1.387 . S
C2899 H2902 0.950 . S
C2900 C2899 1.387 . S
C2900 C2903 1.387 . S
H2901 C2897 0.950 . S
H2902 C2899 0.950 . S
C2903 C2894 1.390 . S
C2903 H2896 0.950 . S
C2903 C2900 1.387 . S
C2904 C2905 1.387 . S
C2904 H2908 0.950 . S
C2904 C2913 1.390 . S
C2905 C2904 1.387 . S
C2905 C2907 1.387 . S
H2906 C2913 0.950 . S
C2907 C2905 1.387 . S
C2907 C2909 1.390 . S
C2907 H2911 0.950 . S
H2908 C2904 0.950 . S
C2909 C2907 1.390 . S
C2909 C2910 1.387 . S
C2909 H2912 0.950 . S
C2910 C2909 1.387 . S
C2910 C2913 1.387 . S
H2911 C2907 0.950 . S
H2912 C2909 0.950 . S
C2913 C2904 1.390 . S
C2913 H2906 0.950 . S
C2913 C2910 1.387 . S
C2914 C2915 1.387 . S
C2914 H2918 0.950 . S
C2914 C2923 1.390 . S
C2915 C2914 1.387 . S
C2915 C2917 1.387 . S
H2916 C2923 0.950 . S
C2917 C2915 1.387 . S
C2917 C2919 1.390 . S
C2917 H2921 0.950 . S
H2918 C2914 0.950 . S
C2919 C2917 1.390 . S
C2919 C2920 1.387 . S
C2919 H2922 0.950 . S
C2920 C2919 1.387 . S
C2920 C2923 1.387 . S
H2921 C2917 0.950 . S
H2922 C2919 0.950 . S
C2923 C2914 1.390 . S
C2923 H2916 0.950 . S
C2923 C2920 1.387 . S
C2924 C2925 1.387 . S
C2924 H2928 0.950 . S
C2924 C2933 1.390 . S
C2925 C2924 1.387 . S
C2925 C2927 1.387 . S
H2926 C2933 0.950 . S
C2927 C2925 1.387 . S
C2927 C2929 1.390 . S
C2927 H2931 0.950 . S
H2928 C2924 0.950 . S
C2929 C2927 1.390 . S
C2929 C2930 1.387 . S
C2929 H2932 0.950 . S
C2930 C2929 1.387 . S
C2930 C2933 1.387 . S
H2931 C2927 0.950 . S
H2932 C2929 0.950 . S
C2933 C2924 1.390 . S
C2933 H2926 0.950 . S
C2933 C2930 1.387 . S
C2934 C2935 1.387 . S
C2934 H2938 0.950 . S
C2934 C2943 1.390 . S
C2935 C2934 1.387 . S
C2935 C2937 1.387 . S
H2936 C2943 0.950 . S
C2937 C2935 1.387 . S
C2937 C2939 1.390 . S
C2937 H2941 0.950 . S
H2938 C2934 0.950 . S
C2939 C2937 1.390 . S
C2939 C2940 1.387 . S
C2939 H2942 0.950 . S
C2940 C2939 1.387 . S
C2940 C2943 1.387 . S
H2941 C2937 0.950 . S
H2942 C2939 0.950 . S
C2943 C2934 1.390 . S
C2943 H2936 0.950 . S
C2943 C2940 1.387 . S
C2944 C2945 1.387 . S
C2944 H2948 0.950 . S
C2944 C2953 1.390 . S
C2945 C2944 1.387 . S
C2945 C2947 1.387 . S
H2946 C2953 0.950 . S
C2947 C2945 1.387 . S
C2947 C2949 1.390 . S
C2947 H2951 0.950 . S
H2948 C2944 0.950 . S
C2949 C2947 1.390 . S
C2949 C2950 1.387 . S
C2949 H2952 0.950 . S
C2950 C2949 1.387 . S
C2950 C2953 1.387 . S
H2951 C2947 0.950 . S
H2952 C2949 0.950 . S
C2953 C2944 1.390 . S
C2953 H2946 0.950 . S
C2953 C2950 1.387 . S
C2954 C2955 1.387 . S
C2954 H2958 0.950 . S
C2954 C2963 1.390 . S
C2955 C2954 1.387 . S
C2955 C2957 1.387 . S
H2956 C2963 0.950 . S
C2957 C2955 1.387 . S
C2957 C2959 1.390 . S
C2957 H2961 0.950 . S
H2958 C2954 0.950 . S
C2959 C2957 1.390 . S
C2959 C2960 1.387 . S
C2959 H2962 0.950 . S
C2960 C2959 1.387 . S
C2960 C2963 1.387 . S
H2961 C2957 0.950 . S
H2962 C2959 0.950 . S
C2963 C2954 1.390 . S
C2963 H2956 0.950 . S
C2963 C2960 1.387 . S
C2964 C2965 1.387 . S
C2964 H2968 0.950 . S
C2964 C2973 1.390 . S
C2965 C2964 1.387 . S
C2965 C2967 1.387 . S
H2966 C2973 0.950 . S
C2967 C2965 1.387 . S
C2967 C2969 1.390 . S
C2967 H2971 0.950 . S
H2968 C2964 0.950 . S
C2969 C2967 1.390 . S
C2969 C2970 1.387 . S
C2969 H2972 0.950 . S
C2970 C2969 1.387 . S
C2970 C2973 1.387 . S
H2971 C2967 0.950 . S
H2972 C2969 0.950 . S
C2973 C2964 1.390 . S
C2973 H2966 0.950 . S
C2973 C2970 1.387 . S
C2974 C2975 1.387 . S
C2974 H2978 0.950 . S
C2974 C2983 1.390 . S
C2975 C2974 1.387 . S
C2975 C2977 1.387 . S
H2976 C2983 0.950 . S
C2977 C2975 1.387 . S
C2977 C2979 1.390 . S
C2977 H2981 0.950 . S
H2978 C2974 0.950 . S
C2979 C2977 1.390 . S
C2979 C2980 1.387 . S
C2979 H2982 0.950 . S
C2980 C2979 1.387 . S
C2980 C2983 1.387 . S
H2981 C2977 0.950 . S
H2982 C2979 0.950 . S
C2983 C2974 1.390 . S
C2983 H2976 0.950 . S
C2983 C2980 1.387 . S
C2984 C2985 1.387 . S
C2984 H2988 0.950 . S
C2984 C2993 1.390 . S
C2985 C2984 1.387 . S
C2985 C2987 1.387 . S
H2986 C2993 0.950 . S
C2987 C2985 1.387 . S
C2987 C2989 1.390 . S
C2987 H2991 0.950 . S
H2988 C2984 0.950 . S
C2989 C2987 1.390 . S
C2989 C2990 1.387 . S
C2989 H2992 0.950 . S
C2990 C2989 1.387 . S
C2990 C2993 1.387 . S
H2991 C2987 0.950 . S
H2992 C2989 0.950 . S
C2993 C2984 1.390 . S
C2993 H2986 0.950 . S
C2993 C2990 1.387 . S
C2994 C2995 1.387 . S
C2994 H2998 0.950 . S
C2994 C3003 1.390 . S
C2995 C2994 1.387 . S
C2995 C2997 1.387 . S
H2996 C3003 0.950 . S
C2997 C2995 1.387 . S
C2997 C2999 1.390 . S
C2997 H3001 0.950 . S
H2998 C2994 0.950 . S
C2999 C2997 1.390 . S
C2999 C3000 1.387 . S
C2999 H3002 0.950 . S
C3000 C2999 1.387 . S
C3000 C3003 1.387 . S
H3001 C2997 0.950 . S
H3002 C2999 0.950 . S
C3003 C2994 1.390 . S
C3003 H2996 0.950 . S
C3003 C3000 1.387 . S
C3004 C3005 1.387 . S
C3004 H3008 0.950 . S
C3004 C3013 1.390 . S
C3005 C3004 1.387 . S
C3005 C3007 1.387 . S
H3006 C3013 0.950 . S
C3007 C3005 1.387 . S
C3007 C3009 1.390 . S
C3007 H3011 0.950 . S
H3008 C3004 0.950 . S
C3009 C3007 1.390 . S
C3009 C3010 1.387 . S
C3009 H3012 0.950 . S
C3010 C3009 1.387 . S
C3010 C3013 1.387 . S
H3011 C3007 0.950 . S
H3012 C3009 0.950 . S
C3013 C3004 1.390 . S
C3013 H3006 0.950 . S
C3013 C3010 1.387 . S
C3014 C3015 1.387 . S
C3014 H3018 0.950 . S
C3014 C3023 1.390 . S
C3015 C3014 1.387 . S
C3015 C3017 1.387 . S
H3016 C3023 0.950 . S
C3017 C3015 1.387 . S
C3017 C3019 1.390 . S
C3017 H3021 0.950 . S
H3018 C3014 0.950 . S
C3019 C3017 1.390 . S
C3019 C3020 1.387 . S
C3019 H3022 0.950 . S
C3020 C3019 1.387 . S
C3020 C3023 1.387 . S
H3021 C3017 0.950 . S
H3022 C3019 0.950 . S
C3023 C3014 1.390 . S
C3023 H3016 0.950 . S
C3023 C3020 1.387 . S
C3024 C3025 1.387 . S
C3024 H3028 0.950 . S
C3024 C3033 1.390 . S
C3025 C3024 1.387 . S
C3025 C3027 1.387 . S
H3026 C3033 0.950 . S
C3027 C3025 1.387 . S
C3027 C3029 1.390 . S
C3027 H3031 0.950 . S
H3028 C3024 0.950 . S
C3029 C3027 1.390 . S
C3029 C3030 1.387 . S
C3029 H3032 0.950 . S
C3030 C3029 1.387 . S
C3030 C3033 1.387 . S
H3031 C3027 0.950 . S
H3032 C3029 0.950 . S
C3033 C3024 1.390 . S
C3033 H3026 0.950 . S
C3033 C3030 1.387 . S
C3034 C3035 1.387 . S
C3034 H3038 0.950 . S
C3034 C3043 1.390 . S
C3035 C3034 1.387 . S
C3035 C3037 1.387 . S
H3036 C3043 0.950 . S
C3037 C3035 1.387 . S
C3037 C3039 1.390 . S
C3037 H3041 0.950 . S
H3038 C3034 0.950 . S
C3039 C3037 1.390 . S
C3039 C3040 1.387 . S
C3039 H3042 0.950 . S
C3040 C3039 1.387 . S
C3040 C3043 1.387 . S
H3041 C3037 0.950 . S
H3042 C3039 0.950 . S
C3043 C3034 1.390 . S
C3043 H3036 0.950 . S
C3043 C3040 1.387 . S
C3044 C3045 1.387 . S
C3044 H3048 0.950 . S
C3044 C3053 1.390 . S
C3045 C3044 1.387 . S
C3045 C3047 1.387 . S
H3046 C3053 0.950 . S
C3047 C3045 1.387 . S
C3047 C3049 1.390 . S
C3047 H3051 0.950 . S
H3048 C3044 0.950 . S
C3049 C3047 1.390 . S
C3049 C3050 1.387 . S
C3049 H3052 0.950 . S
C3050 C3049 1.387 . S
C3050 C3053 1.387 . S
H3051 C3047 0.950 . S
H3052 C3049 0.950 . S
C3053 C3044 1.390 . S
C3053 H3046 0.950 . S
C3053 C3050 1.387 . S
C3054 C3055 1.387 . S
C3054 H3058 0.950 . S
C3054 C3063 1.390 . S
C3055 C3054 1.387 . S
C3055 C3057 1.387 . S
H3056 C3063 0.950 . S
C3057 C3055 1.387 . S
C3057 C3059 1.390 . S
C3057 H3061 0.950 . S
H3058 C3054 0.950 . S
C3059 C3057 1.390 . S
C3059 C3060 1.387 . S
C3059 H3062 0.950 . S
C3060 C3059 1.387 . S
C3060 C3063 1.387 . S
H3061 C3057 0.950 . S
H3062 C3059 0.950 . S
C3063 C3054 1.390 . S
C3063 H3056 0.950 . S
C3063 C3060 1.387 . S
C3064 C3065 1.387 . S
C3064 H3068 0.950 . S
C3064 C3073 1.390 . S
C3065 C3064 1.387 . S
C3065 C3067 1.387 . S
H3066 C3073 0.950 . S
C3067 C3065 1.387 . S
C3067 C3069 1.390 . S
C3067 H3071 0.950 . S
H3068 C3064 0.950 . S
C3069 C3067 1.390 . S
C3069 C3070 1.387 . S
C3069 H3072 0.950 . S
C3070 C3069 1.387 . S
C3070 C3073 1.387 . S
H3071 C3067 0.950 . S
H3072 C3069 0.950 . S
C3073 C3064 1.390 . S
C3073 H3066 0.950 . S
C3073 C3070 1.387 . S
C3074 C3075 1.387 . S
C3074 H3078 0.950 . S
C3074 C3083 1.390 . S
C3075 C3074 1.387 . S
C3075 C3077 1.387 . S
H3076 C3083 0.950 . S
C3077 C3075 1.387 . S
C3077 C3079 1.390 . S
C3077 H3081 0.950 . S
H3078 C3074 0.950 . S
C3079 C3077 1.390 . S
C3079 C3080 1.387 . S
C3079 H3082 0.950 . S
C3080 C3079 1.387 . S
C3080 C3083 1.387 . S
H3081 C3077 0.950 . S
H3082 C3079 0.950 . S
C3083 C3074 1.390 . S
C3083 H3076 0.950 . S
C3083 C3080 1.387 . S
C3084 C3085 1.387 . S
C3084 H3088 0.950 . S
C3084 C3093 1.390 . S
C3085 C3084 1.387 . S
C3085 C3087 1.387 . S
H3086 C3093 0.950 . S
C3087 C3085 1.387 . S
C3087 C3089 1.390 . S
C3087 H3091 0.950 . S
H3088 C3084 0.950 . S
C3089 C3087 1.390 . S
C3089 C3090 1.387 . S
C3089 H3092 0.950 . S
C3090 C3089 1.387 . S
C3090 C3093 1.387 . S
H3091 C3087 0.950 . S
H3092 C3089 0.950 . S
C3093 C3084 1.390 . S
C3093 H3086 0.950 . S
C3093 C3090 1.387 . S
C3094 C3095 1.387 . S
C3094 H3098 0.950 . S
C3094 C3103 1.390 . S
C3095 C3094 1.387 . S
C3095 C3097 1.387 . S
H3096 C3103 0.950 . S
C3097 C3095 1.387 . S
C3097 C3099 1.390 . S
C3097 H3101 0.950 . S
H3098 C3094 0.950 . S
C3099 C3097 1.390 . S
C3099 C3100 1.387 . S
C3099 H3102 0.950 . S
C3100 C3099 1.387 . S
C3100 C3103 1.387 . S
H3101 C3097 0.950 . S
H3102 C3099 0.950 . S
C3103 C3094 1.390 . S
C3103 H3096 0.950 . S
C3103 C3100 1.387 . S
C3104 C3105 1.387 . S
C3104 H3108 0.950 . S
C3104 C3113 1.390 . S
C3105 C3104 1.387 . S
C3105 C3107 1.387 . S
H3106 C3113 0.950 . S
C3107 C3105 1.387 . S
C3107 C3109 1.390 . S
C3107 H3111 0.950 . S
H3108 C3104 0.950 . S
C3109 C3107 1.390 . S
C3109 C3110 1.387 . S
C3109 H3112 0.950 . S
C3110 C3109 1.387 . S
C3110 C3113 1.387 . S
H3111 C3107 0.950 . S
H3112 C3109 0.950 . S
C3113 C3104 1.390 . S
C3113 H3106 0.950 . S
C3113 C3110 1.387 . S
C3114 C3115 1.387 . S
C3114 H3118 0.950 . S
C3114 C3123 1.390 . S
C3115 C3114 1.387 . S
C3115 C3117 1.387 . S
H3116 C3123 0.950 . S
C3117 C3115 1.387 . S
C3117 C3119 1.390 . S
C3117 H3121 0.950 . S
H3118 C3114 0.950 . S
C3119 C3117 1.390 . S
C3119 C3120 1.387 . S
C3119 H3122 0.950 . S
C3120 C3119 1.387 . S
C3120 C3123 1.387 . S
H3121 C3117 0.950 . S
H3122 C3119 0.950 . S
C3123 C3114 1.390 . S
C3123 H3116 0.950 . S
C3123 C3120 1.387 . S
C3124 C3125 1.387 . S
C3124 H3128 0.950 . S
C3124 C3133 1.390 . S
C3125 C3124 1.387 . S
C3125 C3127 1.387 . S
H3126 C3133 0.950 . S
C3127 C3125 1.387 . S
C3127 C3129 1.390 . S
C3127 H3131 0.950 . S
H3128 C3124 0.950 . S
C3129 C3127 1.390 . S
C3129 C3130 1.387 . S
C3129 H3132 0.950 . S
C3130 C3129 1.387 . S
C3130 C3133 1.387 . S
H3131 C3127 0.950 . S
H3132 C3129 0.950 . S
C3133 C3124 1.390 . S
C3133 H3126 0.950 . S
C3133 C3130 1.387 . S
C3134 C3135 1.387 . S
C3134 H3138 0.950 . S
C3134 C3143 1.390 . S
C3135 C3134 1.387 . S
C3135 C3137 1.387 . S
H3136 C3143 0.950 . S
C3137 C3135 1.387 . S
C3137 C3139 1.390 . S
C3137 H3141 0.950 . S
H3138 C3134 0.950 . S
C3139 C3137 1.390 . S
C3139 C3140 1.387 . S
C3139 H3142 0.950 . S
C3140 C3139 1.387 . S
C3140 C3143 1.387 . S
H3141 C3137 0.950 . S
H3142 C3139 0.950 . S
C3143 C3134 1.390 . S
C3143 H3136 0.950 . S
C3143 C3140 1.387 . S
C3144 C3145 1.387 . S
C3144 H3148 0.950 . S
C3144 C3153 1.390 . S
C3145 C3144 1.387 . S
C3145 C3147 1.387 . S
H3146 C3153 0.950 . S
C3147 C3145 1.387 . S
C3147 C3149 1.390 . S
C3147 H3151 0.950 . S
H3148 C3144 0.950 . S
C3149 C3147 1.390 . S
C3149 C3150 1.387 . S
C3149 H3152 0.950 . S
C3150 C3149 1.387 . S
C3150 C3153 1.387 . S
H3151 C3147 0.950 . S
H3152 C3149 0.950 . S
C3153 C3144 1.390 . S
C3153 H3146 0.950 . S
C3153 C3150 1.387 . S
C3154 C3155 1.387 . S
C3154 H3158 0.950 . S
C3154 C3163 1.390 . S
C3155 C3154 1.387 . S
C3155 C3157 1.387 . S
H3156 C3163 0.950 . S
C3157 C3155 1.387 . S
C3157 C3159 1.390 . S
C3157 H3161 0.950 . S
H3158 C3154 0.950 . S
C3159 C3157 1.390 . S
C3159 C3160 1.387 . S
C3159 H3162 0.950 . S
C3160 C3159 1.387 . S
C3160 C3163 1.387 . S
H3161 C3157 0.950 . S
H3162 C3159 0.950 . S
C3163 C3154 1.390 . S
C3163 H3156 0.950 . S
C3163 C3160 1.387 . S
C3164 C3165 1.387 . S
C3164 H3168 0.950 . S
C3164 C3173 1.390 . S
C3165 C3164 1.387 . S
C3165 C3167 1.387 . S
H3166 C3173 0.950 . S
C3167 C3165 1.387 . S
C3167 C3169 1.390 . S
C3167 H3171 0.950 . S
H3168 C3164 0.950 . S
C3169 C3167 1.390 . S
C3169 C3170 1.387 . S
C3169 H3172 0.950 . S
C3170 C3169 1.387 . S
C3170 C3173 1.387 . S
H3171 C3167 0.950 . S
H3172 C3169 0.950 . S
C3173 C3164 1.390 . S
C3173 H3166 0.950 . S
C3173 C3170 1.387 . S
C3174 C3175 1.387 . S
C3174 H3178 0.950 . S
C3174 C3183 1.390 . S
C3175 C3174 1.387 . S
C3175 C3177 1.387 . S
H3176 C3183 0.950 . S
C3177 C3175 1.387 . S
C3177 C3179 1.390 . S
C3177 H3181 0.950 . S
H3178 C3174 0.950 . S
C3179 C3177 1.390 . S
C3179 C3180 1.387 . S
C3179 H3182 0.950 . S
C3180 C3179 1.387 . S
C3180 C3183 1.387 . S
H3181 C3177 0.950 . S
H3182 C3179 0.950 . S
C3183 C3174 1.390 . S
C3183 H3176 0.950 . S
C3183 C3180 1.387 . S
C3184 C3185 1.387 . S
C3184 H3188 0.950 . S
C3184 C3193 1.390 . S
C3185 C3184 1.387 . S
C3185 C3187 1.387 . S
H3186 C3193 0.950 . S
C3187 C3185 1.387 . S
C3187 C3189 1.390 . S
C3187 H3191 0.950 . S
H3188 C3184 0.950 . S
C3189 C3187 1.390 . S
C3189 C3190 1.387 . S
C3189 H3192 0.950 . S
C3190 C3189 1.387 . S
C3190 C3193 1.387 . S
H3191 C3187 0.950 . S
H3192 C3189 0.950 . S
C3193 C3184 1.390 . S
C3193 H3186 0.950 . S
C3193 C3190 1.387 . S
C3194 C3195 1.387 . S
C3194 H3198 0.950 . S
C3194 C3203 1.390 . S
C3195 C3194 1.387 . S
C3195 C3197 1.387 . S
H3196 C3203 0.950 . S
C3197 C3195 1.387 . S
C3197 C3199 1.390 . S
C3197 H3201 0.950 . S
H3198 C3194 0.950 . S
C3199 C3197 1.390 . S
C3199 C3200 1.387 . S
C3199 H3202 0.950 . S
C3200 C3199 1.387 . S
C3200 C3203 1.387 . S
H3201 C3197 0.950 . S
H3202 C3199 0.950 . S
C3203 C3194 1.390 . S
C3203 H3196 0.950 . S
C3203 C3200 1.387 . S
C3204 C3205 1.387 . S
C3204 H3208 0.950 . S
C3204 C3213 1.390 . S
C3205 C3204 1.387 . S
C3205 C3207 1.387 . S
H3206 C3213 0.950 . S
C3207 C3205 1.387 . S
C3207 C3209 1.390 . S
C3207 H3211 0.950 . S
H3208 C3204 0.950 . S
C3209 C3207 1.390 . S
C3209 C3210 1.387 . S
C3209 H3212 0.950 . S
C3210 C3209 1.387 . S
C3210 C3213 1.387 . S
H3211 C3207 0.950 . S
H3212 C3209 0.950 . S
C3213 C3204 1.390 . S
C3213 H3206 0.950 . S
C3213 C3210 1.387 . S
C3214 C3215 1.387 . S
C3214 H3218 0.950 . S
C3214 C3223 1.390 . S
C3215 C3214 1.387 . S
C3215 C3217 1.387 . S
H3216 C3223 0.950 . S
C3217 C3215 1.387 . S
C3217 C3219 1.390 . S
C3217 H3221 0.950 . S
H3218 C3214 0.950 . S
C3219 C3217 1.390 . S
C3219 C3220 1.387 . S
C3219 H3222 0.950 . S
C3220 C3219 1.387 . S
C3220 C3223 1.387 . S
H3221 C3217 0.950 . S
H3222 C3219 0.950 . S
C3223 C3214 1.390 . S
C3223 H3216 0.950 . S
C3223 C3220 1.387 . S
C3224 C3225 1.387 . S
C3224 H3228 0.950 . S
C3224 C3233 1.390 . S
C3225 C3224 1.387 . S
C3225 C3227 1.387 . S
H3226 C3233 0.950 . S
C3227 C3225 1.387 . S
C3227 C3229 1.390 . S
C3227 H3231 0.950 . S
H3228 C3224 0.950 . S
C3229 C3227 1.390 . S
C3229 C3230 1.387 . S
C3229 H3232 0.950 . S
C3230 C3229 1.387 . S
C3230 C3233 1.387 . S
H3231 C3227 0.950 . S
H3232 C3229 0.950 . S
C3233 C3224 1.390 . S
C3233 H3226 0.950 . S
C3233 C3230 1.387 . S
C3234 C3235 1.387 . S
C3234 H3238 0.950 . S
C3234 C3243 1.390 . S
C3235 C3234 1.387 . S
C3235 C3237 1.387 . S
H3236 C3243 0.950 . S
C3237 C3235 1.387 . S
C3237 C3239 1.390 . S
C3237 H3241 0.950 . S
H3238 C3234 0.950 . S
C3239 C3237 1.390 . S
C3239 C3240 1.387 . S
C3239 H3242 0.950 . S
C3240 C3239 1.387 . S
C3240 C3243 1.387 . S
H3241 C3237 0.950 . S
H3242 C3239 0.950 . S
C3243 C3234 1.390 . S
C3243 H3236 0.950 . S
C3243 C3240 1.387 . S
C3244 C3245 1.387 . S
C3244 H3248 0.950 . S
C3244 C3253 1.390 . S
C3245 C3244 1.387 . S
C3245 C3247 1.387 . S
H3246 C3253 0.950 . S
C3247 C3245 1.387 . S
C3247 C3249 1.390 . S
C3247 H3251 0.950 . S
H3248 C3244 0.950 . S
C3249 C3247 1.390 . S
C3249 C3250 1.387 . S
C3249 H3252 0.950 . S
C3250 C3249 1.387 . S
C3250 C3253 1.387 . S
H3251 C3247 0.950 . S
H3252 C3249 0.950 . S
C3253 C3244 1.390 . S
C3253 H3246 0.950 . S
C3253 C3250 1.387 . S
C3254 C3255 1.387 . S
C3254 H3258 0.950 . S
C3254 C3263 1.390 . S
C3255 C3254 1.387 . S
C3255 C3257 1.387 . S
H3256 C3263 0.950 . S
C3257 C3255 1.387 . S
C3257 C3259 1.390 . S
C3257 H3261 0.950 . S
H3258 C3254 0.950 . S
C3259 C3257 1.390 . S
C3259 C3260 1.387 . S
C3259 H3262 0.950 . S
C3260 C3259 1.387 . S
C3260 C3263 1.387 . S
H3261 C3257 0.950 . S
H3262 C3259 0.950 . S
C3263 C3254 1.390 . S
C3263 H3256 0.950 . S
C3263 C3260 1.387 . S
C3264 C3265 1.387 . S
C3264 H3268 0.950 . S
C3264 C3273 1.390 . S
C3265 C3264 1.387 . S
C3265 C3267 1.387 . S
H3266 C3273 0.950 . S
C3267 C3265 1.387 . S
C3267 C3269 1.390 . S
C3267 H3271 0.950 . S
H3268 C3264 0.950 . S
C3269 C3267 1.390 . S
C3269 C3270 1.387 . S
C3269 H3272 0.950 . S
C3270 C3269 1.387 . S
C3270 C3273 1.387 . S
H3271 C3267 0.950 . S
H3272 C3269 0.950 . S
C3273 C3264 1.390 . S
C3273 H3266 0.950 . S
C3273 C3270 1.387 . S
C3274 C3275 1.387 . S
C3274 H3278 0.950 . S
C3274 C3283 1.390 . S
C3275 C3274 1.387 . S
C3275 C3277 1.387 . S
H3276 C3283 0.950 . S
C3277 C3275 1.387 . S
C3277 C3279 1.390 . S
C3277 H3281 0.950 . S
H3278 C3274 0.950 . S
C3279 C3277 1.390 . S
C3279 C3280 1.387 . S
C3279 H3282 0.950 . S
C3280 C3279 1.387 . S
C3280 C3283 1.387 . S
H3281 C3277 0.950 . S
H3282 C3279 0.950 . S
C3283 C3274 1.390 . S
C3283 H3276 0.950 . S
C3283 C3280 1.387 . S
C3284 C3285 1.387 . S
C3284 H3288 0.950 . S
C3284 C3293 1.390 . S
C3285 C3284 1.387 . S
C3285 C3287 1.387 . S
H3286 C3293 0.950 . S
C3287 C3285 1.387 . S
C3287 C3289 1.390 . S
C3287 H3291 0.950 . S
H3288 C3284 0.950 . S
C3289 C3287 1.390 . S
C3289 C3290 1.387 . S
C3289 H3292 0.950 . S
C3290 C3289 1.387 . S
C3290 C3293 1.387 . S
H3291 C3287 0.950 . S
H3292 C3289 0.950 . S
C3293 C3284 1.390 . S
C3293 H3286 0.950 . S
C3293 C3290 1.387 . S
C3294 C3295 1.387 . S
C3294 H3298 0.950 . S
C3294 C3303 1.390 . S
C3295 C3294 1.387 . S
C3295 C3297 1.387 . S
H3296 C3303 0.950 . S
C3297 C3295 1.387 . S
C3297 C3299 1.390 . S
C3297 H3301 0.950 . S
H3298 C3294 0.950 . S
C3299 C3297 1.390 . S
C3299 C3300 1.387 . S
C3299 H3302 0.950 . S
C3300 C3299 1.387 . S
C3300 C3303 1.387 . S
H3301 C3297 0.950 . S
H3302 C3299 0.950 . S
C3303 C3294 1.390 . S
C3303 H3296 0.950 . S
C3303 C3300 1.387 . S
C3304 C3305 1.387 . S
C3304 H3308 0.950 . S
C3304 C3313 1.390 . S
C3305 C3304 1.387 . S
C3305 C3307 1.387 . S
H3306 C3313 0.950 . S
C3307 C3305 1.387 . S
C3307 C3309 1.390 . S
C3307 H3311 0.950 . S
H3308 C3304 0.950 . S
C3309 C3307 1.390 . S
C3309 C3310 1.387 . S
C3309 H3312 0.950 . S
C3310 C3309 1.387 . S
C3310 C3313 1.387 . S
H3311 C3307 0.950 . S
H3312 C3309 0.950 . S
C3313 C3304 1.390 . S
C3313 H3306 0.950 . S
C3313 C3310 1.387 . S
C3314 C3315 1.387 . S
C3314 H3318 0.950 . S
C3314 C3323 1.390 . S
C3315 C3314 1.387 . S
C3315 C3317 1.387 . S
H3316 C3323 0.950 . S
C3317 C3315 1.387 . S
C3317 C3319 1.390 . S
C3317 H3321 0.950 . S
H3318 C3314 0.950 . S
C3319 C3317 1.390 . S
C3319 C3320 1.387 . S
C3319 H3322 0.950 . S
C3320 C3319 1.387 . S
C3320 C3323 1.387 . S
H3321 C3317 0.950 . S
H3322 C3319 0.950 . S
C3323 C3314 1.390 . S
C3323 H3316 0.950 . S
C3323 C3320 1.387 . S
C3324 C3325 1.387 . S
C3324 H3328 0.950 . S
C3324 C3333 1.390 . S
C3325 C3324 1.387 . S
C3325 C3327 1.387 . S
H3326 C3333 0.950 . S
C3327 C3325 1.387 . S
C3327 C3329 1.390 . S
C3327 H3331 0.950 . S
H3328 C3324 0.950 . S
C3329 C3327 1.390 . S
C3329 C3330 1.387 . S
C3329 H3332 0.950 . S
C3330 C3329 1.387 . S
C3330 C3333 1.387 . S
H3331 C3327 0.950 . S
H3332 C3329 0.950 . S
C3333 C3324 1.390 . S
C3333 H3326 0.950 . S
C3333 C3330 1.387 . S
C3334 C3335 1.387 . S
C3334 H3338 0.950 . S
C3334 C3343 1.390 . S
C3335 C3334 1.387 . S
C3335 C3337 1.387 . S
H3336 C3343 0.950 . S
C3337 C3335 1.387 . S
C3337 C3339 1.390 . S
C3337 H3341 0.950 . S
H3338 C3334 0.950 . S
C3339 C3337 1.390 . S
C3339 C3340 1.387 . S
C3339 H3342 0.950 . S
C3340 C3339 1.387 . S
C3340 C3343 1.387 . S
H3341 C3337 0.950 . S
H3342 C3339 0.950 . S
C3343 C3334 1.390 . S
C3343 H3336 0.950 . S
C3343 C3340 1.387 . S
C2390 C1281 1.544 . S
C2385 C21 1.538 . S
C2400 C1348 1.442 . S
C2395 C42 1.430 . S
C2405 C82 1.517 . S
C2410 C1373 1.527 . S
C2420 C1433 1.494 . S
C2415 C135 1.495 . S
C2425 C175 1.433 . S
C2430 C1426 1.430 . S
C2435 C221 1.535 . S
C2440 C1302 1.540 . S
C2445 C255 1.485 . S
C2450 C1327 1.486 . S
C2460 C1394 1.557 . S
C2455 C301 1.538 . S
C2470 C1486 1.517 . S
C2465 C15 1.517 . S
C2475 C55 1.442 . S
C2480 C1525 1.441 . S
C2485 C101 1.543 . S
C2490 C1578 1.548 . S
C2500 C1603 1.502 . S
C2495 C141 1.489 . S
C2505 C162 1.451 . S
C2510 C1663 1.460 . S
C2520 C1716 1.516 . S
C2515 C215 1.516 . S
C2525 C261 1.491 . S
C2530 C1755 1.506 . S
C2540 C1794 1.523 . S
C2535 C282 1.503 . S
C2545 C2 1.518 . S
C2550 C1624 1.530 . S
C2555 C181 1.436 . S
C2560 C1695 1.445 . S
C2570 C1748 1.541 . S
C2565 C202 1.533 . S
C2575 C242 1.491 . S
C2580 C1801 1.508 . S
C2590 C1656 1.512 . S
C2585 C295 1.512 . S
C2600 C1518 1.520 . S
C2595 C95 1.520 . S
C2605 C122 1.482 . S
C2610 C1557 1.500 . S
C2620 C1465 1.455 . S
C2615 C61 1.442 . S
C2630 C1833 1.544 . S
C2625 C341 1.537 . S
C2635 C362 1.430 . S
C2640 C1879 1.441 . S
C2645 C402 1.518 . S
C2650 C1946 1.527 . S
C2660 C1992 1.494 . S
C2655 C455 1.495 . S
C2665 C495 1.433 . S
C2670 C1971 1.430 . S
C2675 C541 1.535 . S
C2680 C1854 1.539 . S
C2685 C575 1.486 . S
C2690 C1900 1.484 . S
C2695 C621 1.539 . S
C2700 C1925 1.555 . S
C2710 C1670 1.518 . S
C2705 C335 1.517 . S
C2715 C375 1.441 . S
C2720 C2031 1.441 . S
C2730 C1762 1.548 . S
C2725 C421 1.543 . S
C2735 C461 1.488 . S
C2740 C2063 1.502 . S
C2745 C482 1.452 . S
C2750 C1479 1.460 . S
C2760 C2130 1.516 . S
C2755 C535 1.515 . S
C2765 C581 1.490 . S
C2770 C1571 1.506 . S
C2780 C2162 1.523 . S
C2775 C602 1.504 . S
C2785 C322 1.518 . S
C2790 C2084 1.530 . S
C2800 C2109 1.445 . S
C2795 C501 1.436 . S
C2805 C522 1.533 . S
C2810 C1564 1.541 . S
C2820 C2169 1.508 . S
C2815 C562 1.490 . S
C2825 C615 1.512 . S
C2830 C1472 1.512 . S
C2835 C415 1.521 . S
C2840 C2024 1.520 . S
C2845 C442 1.483 . S
C2850 C1741 1.500 . S
C2855 C381 1.443 . S
C2860 C1649 1.454 . S
C2865 C661 1.538 . S
C2870 C1939 1.545 . S
C2880 C1985 1.442 . S
C2875 C682 1.429 . S
C2885 C722 1.518 . S
C2890 C1840 1.528 . S
C2895 C775 1.495 . S
C2900 C1886 1.496 . S
C2905 C815 1.433 . S
C2910 C1893 1.433 . S
C2915 C861 1.534 . S
C2920 C1932 1.541 . S
C2930 C1978 1.486 . S
C2925 C895 1.485 . S
C2935 C941 1.538 . S
C2940 C1847 1.557 . S
C2950 C2201 1.517 . S
C2945 C655 1.517 . S
C2955 C695 1.441 . S
C2960 C1709 1.441 . S
C2970 C2247 1.549 . S
C2965 C741 1.542 . S
C2975 C781 1.487 . S
C2980 C1787 1.502 . S
C2985 C802 1.452 . S
C2990 C2314 1.460 . S
C2995 C855 1.516 . S
C3000 C1532 1.516 . S
C3010 C2346 1.505 . S
C3005 C901 1.491 . S
C3015 C922 1.503 . S
C3020 C1610 1.523 . S
C3030 C1808 1.530 . S
C3025 C642 1.519 . S
C3040 C1511 1.445 . S
C3035 C821 1.435 . S
C3045 C842 1.533 . S
C3050 C2353 1.541 . S
C3055 C882 1.491 . S
C3060 C1617 1.508 . S
C3070 C2293 1.512 . S
C3065 C935 1.512 . S
C3080 C1702 1.520 . S
C3075 C735 1.520 . S
C3090 C2268 1.499 . S
C3085 C762 1.481 . S
C3100 C2222 1.453 . S
C3095 C701 1.441 . S
C3105 C981 1.538 . S
C3110 C1380 1.544 . S
C3115 C1002 1.430 . S
C3120 C1440 1.442 . S
C3130 C1288 1.527 . S
C3125 C1042 1.519 . S
C3140 C1341 1.495 . S
C3135 C1095 1.496 . S
C3150 C1334 1.431 . S
C3145 C1135 1.433 . S
C3160 C1387 1.540 . S
C3155 C1181 1.535 . S
C3170 C1419 1.486 . S
C3165 C1215 1.486 . S
C3175 C1261 1.539 . S
C3180 C1295 1.557 . S
C3185 C975 1.517 . S
C3190 C2307 1.518 . S
C3200 C2123 1.440 . S
C3195 C1015 1.441 . S
C3210 C2339 1.549 . S
C3205 C1061 1.542 . S
C3220 C2155 1.502 . S
C3215 C1101 1.487 . S
C3225 C1122 1.452 . S
C3230 C2208 1.461 . S
C3240 C2038 1.516 . S
C3235 C1175 1.516 . S
C3250 C2254 1.506 . S
C3245 C1221 1.490 . S
C3255 C1242 1.503 . S
C3260 C2070 1.523 . S
C3270 C2176 1.530 . S
C3265 C962 1.518 . S
C3280 C2017 1.445 . S
C3275 C1141 1.436 . S
C3290 C2261 1.541 . S
C3285 C1162 1.532 . S
C3295 C1202 1.489 . S
C3300 C2077 1.508 . S
C3305 C1255 1.512 . S
C3310 C2215 1.514 . S
C3315 C1055 1.521 . S
C3320 C2116 1.520 . S
C3325 C1082 1.483 . S
C3330 C2360 1.499 . S
C3340 C2300 1.454 . S
C3335 C1021 1.441 . S
