# Generated by pormake.
# Topology ctn, (3,4)-cn, num edge types: 1
# Building blocks:
#     Node 0, Type 0, BuildingBlock: BELTOD_clean_linker_0, # of connection points: 3
#     Node 1, Type 0, BuildingBlock: BELTOD_clean_linker_0, # of connection points: 3
#     Node 2, Type 0, BuildingBlock: BELTOD_clean_linker_0, # of connection points: 3
#     Node 3, Type 0, BuildingBlock: BELTOD_clean_linker_0, # of connection points: 3
#     Node 4, Type 0, BuildingBlock: BELTOD_clean_linker_0, # of connection points: 3
#     Node 5, Type 0, BuildingBlock: BELTOD_clean_linker_0, # of connection points: 3
#     Node 6, Type 0, BuildingBlock: BELTOD_clean_linker_0, # of connection points: 3
#     Node 7, Type 0, BuildingBlock: BELTOD_clean_linker_0, # of connection points: 3
#     Node 8, Type 0, BuildingBlock: BELTOD_clean_linker_0, # of connection points: 3
#     Node 9, Type 0, BuildingBlock: BELTOD_clean_linker_0, # of connection points: 3
#     Node 10, Type 0, BuildingBlock: BELTOD_clean_linker_0, # of connection points: 3
#     Node 11, Type 0, BuildingBlock: BELTOD_clean_linker_0, # of connection points: 3
#     Node 12, Type 0, BuildingBlock: BELTOD_clean_linker_0, # of connection points: 3
#     Node 13, Type 0, BuildingBlock: BELTOD_clean_linker_0, # of connection points: 3
#     Node 14, Type 0, BuildingBlock: BELTOD_clean_linker_0, # of connection points: 3
#     Node 15, Type 0, BuildingBlock: BELTOD_clean_linker_0, # of connection points: 3
#     Node 16, Type 1, BuildingBlock: AZAVOO_clean_sbu_0, # of connection points: 4
#     Node 17, Type 1, BuildingBlock: AZAVOO_clean_sbu_0, # of connection points: 4
#     Node 18, Type 1, BuildingBlock: AZAVOO_clean_sbu_0, # of connection points: 4
#     Node 19, Type 1, BuildingBlock: AZAVOO_clean_sbu_0, # of connection points: 4
#     Node 20, Type 1, BuildingBlock: AZAVOO_clean_sbu_0, # of connection points: 4
#     Node 21, Type 1, BuildingBlock: AZAVOO_clean_sbu_0, # of connection points: 4
#     Node 22, Type 1, BuildingBlock: AZAVOO_clean_sbu_0, # of connection points: 4
#     Node 23, Type 1, BuildingBlock: AZAVOO_clean_sbu_0, # of connection points: 4
#     Node 24, Type 1, BuildingBlock: AZAVOO_clean_sbu_0, # of connection points: 4
#     Node 25, Type 1, BuildingBlock: AZAVOO_clean_sbu_0, # of connection points: 4
#     Node 26, Type 1, BuildingBlock: AZAVOO_clean_sbu_0, # of connection points: 4
#     Node 27, Type 1, BuildingBlock: AZAVOO_clean_sbu_0, # of connection points: 4
#     Edge 28, Type (0, 1), BuildingBlock: UVAHIK_clean_linker_0, # of connection points: 2
#     Edge 29, Type (0, 1), BuildingBlock: UVAHIK_clean_linker_0, # of connection points: 2
#     Edge 30, Type (0, 1), BuildingBlock: UVAHIK_clean_linker_0, # of connection points: 2
#     Edge 31, Type (0, 1), BuildingBlock: UVAHIK_clean_linker_0, # of connection points: 2
#     Edge 32, Type (0, 1), BuildingBlock: UVAHIK_clean_linker_0, # of connection points: 2
#     Edge 33, Type (0, 1), BuildingBlock: UVAHIK_clean_linker_0, # of connection points: 2
#     Edge 34, Type (0, 1), BuildingBlock: UVAHIK_clean_linker_0, # of connection points: 2
#     Edge 35, Type (0, 1), BuildingBlock: UVAHIK_clean_linker_0, # of connection points: 2
#     Edge 36, Type (0, 1), BuildingBlock: UVAHIK_clean_linker_0, # of connection points: 2
#     Edge 37, Type (0, 1), BuildingBlock: UVAHIK_clean_linker_0, # of connection points: 2
#     Edge 38, Type (0, 1), BuildingBlock: UVAHIK_clean_linker_0, # of connection points: 2
#     Edge 39, Type (0, 1), BuildingBlock: UVAHIK_clean_linker_0, # of connection points: 2
#     Edge 40, Type (0, 1), BuildingBlock: UVAHIK_clean_linker_0, # of connection points: 2
#     Edge 41, Type (0, 1), BuildingBlock: UVAHIK_clean_linker_0, # of connection points: 2
#     Edge 42, Type (0, 1), BuildingBlock: UVAHIK_clean_linker_0, # of connection points: 2
#     Edge 43, Type (0, 1), BuildingBlock: UVAHIK_clean_linker_0, # of connection points: 2
#     Edge 44, Type (0, 1), BuildingBlock: UVAHIK_clean_linker_0, # of connection points: 2
#     Edge 45, Type (0, 1), BuildingBlock: UVAHIK_clean_linker_0, # of connection points: 2
#     Edge 46, Type (0, 1), BuildingBlock: UVAHIK_clean_linker_0, # of connection points: 2
#     Edge 47, Type (0, 1), BuildingBlock: UVAHIK_clean_linker_0, # of connection points: 2
#     Edge 48, Type (0, 1), BuildingBlock: UVAHIK_clean_linker_0, # of connection points: 2
#     Edge 49, Type (0, 1), BuildingBlock: UVAHIK_clean_linker_0, # of connection points: 2
#     Edge 50, Type (0, 1), BuildingBlock: UVAHIK_clean_linker_0, # of connection points: 2
#     Edge 51, Type (0, 1), BuildingBlock: UVAHIK_clean_linker_0, # of connection points: 2
#     Edge 52, Type (0, 1), BuildingBlock: UVAHIK_clean_linker_0, # of connection points: 2
#     Edge 53, Type (0, 1), BuildingBlock: UVAHIK_clean_linker_0, # of connection points: 2
#     Edge 54, Type (0, 1), BuildingBlock: UVAHIK_clean_linker_0, # of connection points: 2
#     Edge 55, Type (0, 1), BuildingBlock: UVAHIK_clean_linker_0, # of connection points: 2
#     Edge 56, Type (0, 1), BuildingBlock: UVAHIK_clean_linker_0, # of connection points: 2
#     Edge 57, Type (0, 1), BuildingBlock: UVAHIK_clean_linker_0, # of connection points: 2
#     Edge 58, Type (0, 1), BuildingBlock: UVAHIK_clean_linker_0, # of connection points: 2
#     Edge 59, Type (0, 1), BuildingBlock: UVAHIK_clean_linker_0, # of connection points: 2
#     Edge 60, Type (0, 1), BuildingBlock: UVAHIK_clean_linker_0, # of connection points: 2
#     Edge 61, Type (0, 1), BuildingBlock: UVAHIK_clean_linker_0, # of connection points: 2
#     Edge 62, Type (0, 1), BuildingBlock: UVAHIK_clean_linker_0, # of connection points: 2
#     Edge 63, Type (0, 1), BuildingBlock: UVAHIK_clean_linker_0, # of connection points: 2
#     Edge 64, Type (0, 1), BuildingBlock: UVAHIK_clean_linker_0, # of connection points: 2
#     Edge 65, Type (0, 1), BuildingBlock: UVAHIK_clean_linker_0, # of connection points: 2
#     Edge 66, Type (0, 1), BuildingBlock: UVAHIK_clean_linker_0, # of connection points: 2
#     Edge 67, Type (0, 1), BuildingBlock: UVAHIK_clean_linker_0, # of connection points: 2
#     Edge 68, Type (0, 1), BuildingBlock: UVAHIK_clean_linker_0, # of connection points: 2
#     Edge 69, Type (0, 1), BuildingBlock: UVAHIK_clean_linker_0, # of connection points: 2
#     Edge 70, Type (0, 1), BuildingBlock: UVAHIK_clean_linker_0, # of connection points: 2
#     Edge 71, Type (0, 1), BuildingBlock: UVAHIK_clean_linker_0, # of connection points: 2
#     Edge 72, Type (0, 1), BuildingBlock: UVAHIK_clean_linker_0, # of connection points: 2
#     Edge 73, Type (0, 1), BuildingBlock: UVAHIK_clean_linker_0, # of connection points: 2
#     Edge 74, Type (0, 1), BuildingBlock: UVAHIK_clean_linker_0, # of connection points: 2
#     Edge 75, Type (0, 1), BuildingBlock: UVAHIK_clean_linker_0, # of connection points: 2
# Relax obj value: 0.002
# Max RMSD: 0.044
# Mean RMSD: 0.026
data_MOF--net-ctn--node1-AZAVOO_clean_sbu_0--node2-BELTOD_clean_linker_0--edge1-UVAHIK_clean_linker_0
_symmetry_space_group_name_H-M    P1
_symmetry_Int_Tables_number       1
_symmetry_cell_setting            triclinic
loop_
_symmetry_equiv_pos_as_xyz
'x, y, z'
_cell_length_a     77.474677
_cell_length_b     79.12502
_cell_length_c     78.450016
_cell_angle_alpha  89.505415
_cell_angle_beta   92.610636
_cell_angle_gamma 93.538903
loop_
_atom_site_label
_atom_site_type_symbol
_atom_site_fract_x
_atom_site_fract_y
_atom_site_fract_z
_atom_type_partial_charge
P0 P 0.07258 0.03944 0.05785 0.0
H1 H 0.06919 0.02781 0.09296 0.0
H2 H 0.04421 0.01923 0.10941 0.0
H3 H 0.01096 0.0222 0.06381 0.0
H4 H 0.03612 0.03142 0.04754 0.0
H5 H 0.10851 0.03638 0.05001 0.0
H6 H 0.12339 0.0151 0.03513 0.0
H7 H 0.07442 0.98716 0.02427 0.0
H8 H 0.05969 0.00836 0.03978 0.0
H9 H 0.06424 0.07379 0.0648 0.0
H10 H 0.06469 0.04163 0.02074 0.0
O11 O 0.08702 0.04812 0.07217 0.0
H12 H 0.05483 0.097 0.04663 0.0
H13 H 0.05553 0.06493 0.00239 0.0
C14 C 0.05444 0.03057 0.06914 0.0
C15 C 0.05655 0.02648 0.08647 0.0
C16 C 0.04222 0.02141 0.09584 0.0
C17 C 0.02549 0.02013 0.08799 0.0
C18 C 0.02359 0.02337 0.07034 0.0
C19 C 0.03796 0.02855 0.061 0.0
C20 C 0.08307 0.02373 0.04634 0.0
C21 C 0.10098 0.02563 0.0445 0.0
C22 C 0.10945 0.01353 0.03578 0.0
C23 C 0.10013 -0.00064 0.02849 0.0
C24 C 0.08205 0.99775 0.02997 0.0
C25 C 0.07359 0.00987 0.03881 0.0
C26 C 0.06555 0.05616 0.04407 0.0
C27 C 0.06244 0.07179 0.05118 0.0
C28 C 0.0571 0.08504 0.04077 0.0
C29 C 0.05465 0.08287 0.02304 0.0
C30 C 0.05727 0.06698 0.016 0.0
C31 C 0.06266 0.0537 0.02646 0.0
P32 P 0.33944 0.69646 0.20079 0.0
H33 H 0.35425 0.71715 0.17361 0.0
H34 H 0.34375 0.74082 0.15687 0.0
H35 H 0.29851 0.74042 0.18724 0.0
H36 H 0.30894 0.71635 0.20363 0.0
H37 H 0.37147 0.68401 0.21563 0.0
H38 H 0.39018 0.69279 0.24028 0.0
H39 H 0.35525 0.73122 0.25169 0.0
H40 H 0.33656 0.72242 0.22687 0.0
H41 H 0.31878 0.67107 0.18112 0.0
H42 H 0.31927 0.69199 0.23174 0.0
O43 O 0.35138 0.68596 0.18774 0.0
H44 H 0.29369 0.65228 0.18756 0.0
H45 H 0.29422 0.6731 0.23833 0.0
C46 C 0.33216 0.71476 0.18955 0.0
C47 C 0.34208 0.72217 0.17667 0.0
C48 C 0.33613 0.73584 0.16723 0.0
C49 C 0.32021 0.74248 0.17064 0.0
C50 C 0.31066 0.73542 0.18408 0.0
C51 C 0.31662 0.72169 0.19348 0.0
C52 C 0.35278 0.70274 0.21929 0.0
C53 C 0.36785 0.69437 0.22337 0.0
C54 C 0.37856 0.69942 0.23743 0.0
C55 C 0.37424 0.71278 0.24781 0.0
C56 C 0.35887 0.72086 0.24393 0.0
C57 C 0.34825 0.71591 0.22973 0.0
C58 C 0.32114 0.68262 0.20607 0.0
C59 C 0.31358 0.67151 0.19368 0.0
C60 C 0.29925 0.66077 0.19738 0.0
C61 C 0.29208 0.66109 0.21351 0.0
C62 C 0.29942 0.6726 0.22578 0.0
C63 C 0.31385 0.6833 0.22207 0.0
P64 P 0.99572 0.5079 0.02666 0.0
H65 H 0.00554 0.49845 0.99255 0.0
H66 H 0.00529 0.47131 0.97796 0.0
H67 H 0.98549 0.44603 0.02276 0.0
H68 H 0.98531 0.47332 0.03705 0.0
H69 H 0.98073 0.52985 0.0511 0.0
H70 H 0.95181 0.5402 0.05304 0.0
H71 H 0.93419 0.51064 0.00885 0.0
H72 H 0.96316 0.50033 0.00698 0.0
H73 H 0.03165 0.51705 0.03705 0.0
H74 H 0.98617 0.49511 0.06049 0.0
O75 O 0.0056 0.52286 0.01481 0.0
H76 H 0.04816 0.51514 0.06412 0.0
H77 H 0.00276 0.49271 0.08765 0.0
C78 C 0.99566 0.48786 0.01597 0.0
C79 C 0.00118 0.48707 -0.00075 0.0
C80 C 0.00109 0.47151 0.99093 0.0
C81 C 0.99545 0.45645 -0.0008 0.0
C82 C 0.98975 0.45738 0.01593 0.0
C83 C 0.98979 0.47296 0.0242 0.0
C84 C 0.97397 0.51394 0.02921 0.0
C85 C 0.97055 0.52529 0.04206 0.0
C86 C 0.95402 0.53121 0.04315 0.0
C87 C 0.9407 0.52615 0.03116 0.0
C88 C 0.9442 0.51479 0.01825 0.0
C89 C 0.96072 0.50878 0.01726 0.0
C90 C 0.00762 0.5065 0.04684 0.0
C91 C 0.0252 0.51183 0.04805 0.0
C92 C 0.03468 0.51058 0.06353 0.0
C93 C 0.0268 0.50376 0.07809 0.0
C94 C 0.00917 0.49824 0.07676 0.0
C95 C 0.99969 0.49953 0.06123 0.0
P96 P 0.68321 0.84194 0.18903 0.0
H97 H 0.69903 0.87183 0.17239 0.0
H98 H 0.72363 0.89142 0.18051 0.0
H99 H 0.73231 0.86277 0.22691 0.0
H100 H 0.70765 0.84323 0.21872 0.0
H101 H 0.66592 0.81897 0.16404 0.0
H102 H 0.67462 0.7936 0.15008 0.0
H103 H 0.72377 0.79785 0.17859 0.0
H104 H 0.71511 0.82347 0.19215 0.0
H105 H 0.65657 0.85858 0.20638 0.0
H106 H 0.68414 0.81309 0.21283 0.0
O107 O 0.67017 0.85185 0.17526 0.0
H108 H 0.64057 0.85139 0.23189 0.0
H109 H 0.66801 0.80565 0.23815 0.0
C110 C 0.70137 0.85624 0.19507 0.0
C111 C 0.70616 0.86982 0.18435 0.0
C112 C 0.72018 0.88103 0.18902 0.0
C113 C 0.72982 0.87869 0.20439 0.0
C114 C 0.72516 0.86486 0.21496 0.0
C115 C 0.71102 0.85375 0.21035 0.0
C116 C 0.69001 0.82333 0.17882 0.0
C117 C 0.67862 0.81451 0.16718 0.0
C118 C 0.68355 0.79988 0.15935 0.0
C119 C 0.69993 0.79369 0.16317 0.0
C120 C 0.71119 0.80243 0.17513 0.0
C121 C 0.70624 0.81709 0.18292 0.0
C122 C 0.67125 0.8362 0.20754 0.0
C123 C 0.65903 0.84695 0.2132 0.0
C124 C 0.64987 0.8428 0.22774 0.0
C125 C 0.65293 0.82789 0.23699 0.0
C126 C 0.66542 0.81728 0.23138 0.0
C127 C 0.67455 0.82144 0.21681 0.0
P128 P 0.06407 0.9605 0.45571 0.0
H129 H 0.10146 0.96594 0.4543 0.0
H130 H 0.12227 0.98749 0.46626 0.0
H131 H 0.08084 0.01125 0.49014 0.0
H132 H 0.05998 0.98975 0.47766 0.0
H133 H 0.07201 0.92487 0.45684 0.0
H134 H 0.06593 0.90212 0.47716 0.0
H135 H 0.04194 0.93701 0.50948 0.0
H136 H 0.04778 0.95979 0.48872 0.0
H137 H 0.05628 0.99237 0.43882 0.0
H138 H 0.02812 0.94652 0.45437 0.0
O139 O 0.07286 0.95235 0.43882 0.0
H140 H 0.03015 0.00169 0.42383 0.0
H141 H 0.00191 0.9559 0.43978 0.0
C142 C 0.07916 0.97648 0.46481 0.0
C143 C 0.09683 0.97584 0.46203 0.0
C144 C 0.10875 0.98809 0.46904 0.0
C145 C 0.10324 0.00115 0.47916 0.0
C146 C 0.08549 0.00153 0.4822 0.0
C147 C 0.07356 0.98923 0.47513 0.0
C148 C 0.0603 0.944 0.47127 0.0
C149 C 0.06551 0.92769 0.46831 0.0
C150 C 0.06213 0.91468 0.48004 0.0
C151 C 0.05351 0.91774 0.49501 0.0
C152 C 0.04847 0.9342 0.49801 0.0
C153 C 0.05188 0.94724 0.48623 0.0
C154 C 0.04408 0.96892 0.44801 0.0
C155 C 0.04434 0.98456 0.43947 0.0
C156 C 0.02937 0.98988 0.43092 0.0
C157 C 0.01393 0.97952 0.43057 0.0
C158 C 0.01362 0.96411 0.43967 0.0
C159 C 0.02859 0.95881 0.44819 0.0
P160 P 0.21736 0.72538 0.74775 0.0
H161 H 0.24245 0.75008 0.76349 0.0
H162 H 0.24473 0.76378 0.79134 0.0
H163 H 0.19793 0.73575 0.80566 0.0
H164 H 0.19579 0.72195 0.77771 0.0
H165 H 0.2371 0.70788 0.72336 0.0
H166 H 0.25248 0.68183 0.725 0.0
H167 H 0.23627 0.67345 0.77651 0.0
H168 H 0.22085 0.69953 0.77477 0.0
H169 H 0.18544 0.74253 0.75323 0.0
H170 H 0.20139 0.70215 0.72202 0.0
O171 O 0.2278 0.73828 0.7342 0.0
H172 H 0.15653 0.7399 0.73926 0.0
H173 H 0.17268 0.70005 0.70755 0.0
C174 C 0.21868 0.73537 0.76836 0.0
C175 C 0.23261 0.74694 0.77256 0.0
C176 C 0.23397 0.75468 0.78853 0.0
C177 C 0.22143 0.75093 0.80062 0.0
C178 C 0.20761 0.73909 0.79648 0.0
C179 C 0.20638 0.73122 0.78053 0.0
C180 C 0.22809 0.70581 0.74903 0.0
C181 C 0.23684 0.70044 0.735 0.0
C182 C 0.24553 0.68548 0.73592 0.0
C183 C 0.24565 0.67562 0.75092 0.0
C184 C 0.23659 0.6809 0.76487 0.0
C185 C 0.22775 0.6958 0.76387 0.0
C186 C 0.19544 0.72208 0.73917 0.0
C187 C 0.18264 0.73278 0.74374 0.0
C188 C 0.16615 0.73137 0.73569 0.0
C189 C 0.16242 0.71969 0.72248 0.0
C190 C 0.17525 0.70907 0.71781 0.0
C191 C 0.19162 0.71022 0.72614 0.0
P192 P 0.98495 0.48917 0.48303 0.0
H193 H 0.00561 0.51599 0.46599 0.0
H194 H 0.01743 0.51819 0.43769 0.0
H195 H 0.99271 0.46927 0.42471 0.0
H196 H 0.9809 0.46715 0.45313 0.0
H197 H 0.99364 0.502 0.51735 0.0
H198 H 0.99018 0.52923 0.53086 0.0
H199 H 0.96597 0.54744 0.48409 0.0
H200 H 0.96955 0.52012 0.47063 0.0
H201 H 0.97325 0.46157 0.50542 0.0
H202 H 0.95204 0.49006 0.46321 0.0
O203 O 0.00032 0.47929 0.49405 0.0
H204 H 0.94569 0.44523 0.50748 0.0
H205 H 0.92433 0.47352 0.46498 0.0
C206 C 0.9919 0.49165 0.46149 0.0
C207 C 0.00236 0.50591 0.45694 0.0
C208 C 0.00914 0.50715 0.44074 0.0
C209 C 0.0059 0.49396 0.42891 0.0
C210 C 0.99545 0.47963 0.43355 0.0
C211 C 0.98857 0.47848 0.44973 0.0
C212 C 0.98226 0.50923 0.49287 0.0
C213 C 0.98766 0.51187 0.50997 0.0
C214 C 0.98554 0.5274 0.51773 0.0
C215 C 0.97791 0.54052 0.5085 0.0
C216 C 0.97215 0.53766 0.49144 0.0
C217 C 0.97416 0.52207 0.48374 0.0
C218 C 0.96477 0.47677 0.48394 0.0
C219 C 0.96271 0.46416 0.49644 0.0
C220 C 0.94693 0.45479 0.49758 0.0
C221 C 0.93284 0.45795 0.48629 0.0
C222 C 0.93489 0.47082 0.47392 0.0
C223 C 0.95074 0.48019 0.4728 0.0
P224 P 0.82387 0.80736 0.81057 0.0
H225 H 0.85022 0.82656 0.79182 0.0
H226 H 0.86566 0.82045 0.76629 0.0
H227 H 0.83658 0.77218 0.76167 0.0
H228 H 0.82107 0.77849 0.78709 0.0
H229 H 0.80556 0.83093 0.83024 0.0
H230 H 0.77928 0.84587 0.82438 0.0
H231 H 0.7726 0.82177 0.77506 0.0
H232 H 0.79921 0.80722 0.78089 0.0
H233 H 0.84289 0.7891 0.83704 0.0
H234 H 0.79351 0.78322 0.80942 0.0
O235 O 0.83725 0.81985 0.82292 0.0
H236 H 0.83526 0.76413 0.85428 0.0
H237 H 0.7859 0.75799 0.82632 0.0
C238 C 0.83477 0.80283 0.79152 0.0
C239 C 0.84721 0.81465 0.78533 0.0
C240 C 0.85606 0.81112 0.77077 0.0
C241 C 0.85246 0.79577 0.76204 0.0
C242 C 0.83961 0.78415 0.76805 0.0
C243 C 0.83082 0.78768 0.78266 0.0
C244 C 0.80455 0.81833 0.80584 0.0
C245 C 0.7985 0.82897 0.81811 0.0
C246 C 0.78334 0.83735 0.81481 0.0
C247 C 0.77381 0.83506 0.79921 0.0
C248 C 0.77977 0.82405 0.78708 0.0
C249 C 0.79498 0.81571 0.79039 0.0
C250 C 0.81859 0.78824 0.82228 0.0
C251 C 0.83043 0.78236 0.83463 0.0
C252 C 0.82611 0.76797 0.84436 0.0
C253 C 0.8099 0.75911 0.84178 0.0
C254 C 0.79835 0.76469 0.82886 0.0
C255 C 0.80269 0.77911 0.81916 0.0
P256 P 0.32137 0.30653 0.31295 0.0
H257 H 0.35729 0.31501 0.30446 0.0
H258 H 0.37388 0.30878 0.27981 0.0
H259 H 0.32905 0.28084 0.25708 0.0
H260 H 0.31241 0.28743 0.28174 0.0
H261 H 0.28859 0.30891 0.32961 0.0
H262 H 0.26244 0.32353 0.32199 0.0
H263 H 0.28533 0.34162 0.27549 0.0
H264 H 0.31118 0.32659 0.28298 0.0
H265 H 0.33918 0.29127 0.34223 0.0
H266 H 0.2943 0.27907 0.30908 0.0
O267 O 0.33302 0.32024 0.32554 0.0
H268 H 0.33243 0.26603 0.3594 0.0
H269 H 0.28747 0.25367 0.32619 0.0
C270 C 0.33359 0.3018 0.29482 0.0
C271 C 0.351 0.30758 0.29416 0.0
C272 C 0.36052 0.3039 0.2801 0.0
C273 C 0.35279 0.29432 0.26645 0.0
C274 C 0.33532 0.28844 0.26726 0.0
C275 C 0.32583 0.29211 0.28137 0.0
C276 C 0.30162 0.31621 0.30661 0.0
C277 C 0.28782 0.31573 0.3176 0.0
C278 C 0.27294 0.32425 0.31331 0.0
C279 C 0.2717 0.33366 0.29806 0.0
C280 C 0.28565 0.33416 0.28713 0.0
C281 C 0.30049 0.3256 0.29142 0.0
C282 C 0.31696 0.28725 0.32471 0.0
C283 C 0.32791 0.28311 0.33861 0.0
C284 C 0.32412 0.26858 0.34832 0.0
C285 C 0.30934 0.25792 0.34422 0.0
C286 C 0.2988 0.26178 0.3298 0.0
C287 C 0.30269 0.27626 0.32003 0.0
P288 P 0.49873 0.00778 0.52654 0.0
H289 H 0.49685 0.99789 0.49082 0.0
H290 H 0.49503 0.9704 0.47666 0.0
H291 H 0.49417 0.94536 0.52582 0.0
H292 H 0.49573 0.97291 0.53986 0.0
H293 H 0.48672 0.04177 0.52213 0.0
H294 H 0.45818 0.05313 0.52288 0.0
H295 H 0.43594 0.00345 0.53557 0.0
H296 H 0.46467 0.99209 0.53474 0.0
H297 H 0.53532 0.01037 0.53645 0.0
H298 H 0.48719 0.00156 0.56153 0.0
O299 O 0.5105 0.02092 0.51426 0.0
H300 H 0.55133 0.00811 0.56372 0.0
H301 H 0.50317 0.99875 0.58897 0.0
C302 C 0.4968 0.98742 0.51638 0.0
C303 C 0.4963 0.98647 0.49854 0.0
C304 C 0.49531 0.97076 0.49046 0.0
C305 C 0.49463 0.95569 0.50011 0.0
C306 C 0.4946 0.95672 0.51801 0.0
C307 C 0.49563 0.97247 0.52607 0.0
C308 C 0.47774 0.01604 0.52808 0.0
C309 C 0.47572 0.03329 0.52504 0.0
C310 C 0.45939 0.03976 0.52541 0.0
C311 C 0.4448 0.02913 0.52908 0.0
C312 C 0.44696 0.01193 0.53271 0.0
C313 C 0.46333 0.00543 0.53217 0.0
C314 C 0.51007 0.00646 0.547 0.0
C315 C 0.52818 0.00799 0.54787 0.0
C316 C 0.53733 0.0065 0.56349 0.0
C317 C 0.52855 0.00318 0.57858 0.0
C318 C 0.51033 0.00153 0.57764 0.0
C319 C 0.50117 0.0031 0.56195 0.0
P320 P 0.18585 0.33709 0.69291 0.0
H321 H 0.21997 0.34205 0.6783 0.0
H322 H 0.24507 0.36142 0.68514 0.0
H323 H 0.21784 0.38233 0.72615 0.0
H324 H 0.19272 0.36309 0.71905 0.0
H325 H 0.17065 0.31754 0.66398 0.0
H326 H 0.17814 0.29129 0.6508 0.0
H327 H 0.22043 0.28724 0.68818 0.0
H328 H 0.21288 0.31367 0.70126 0.0
H329 H 0.14875 0.33422 0.69855 0.0
H330 H 0.19633 0.32685 0.72754 0.0
O331 O 0.17351 0.34767 0.67905 0.0
H332 H 0.1322 0.32604 0.72338 0.0
H333 H 0.17993 0.31914 0.75265 0.0
C334 C 0.2047 0.35072 0.69855 0.0
C335 C 0.2195 0.35061 0.68893 0.0
C336 C 0.23385 0.36171 0.69285 0.0
C337 C 0.23352 0.37333 0.7063 0.0
C338 C 0.2185 0.37359 0.71569 0.0
C339 C 0.20419 0.36246 0.71176 0.0
C340 C 0.19149 0.31774 0.68331 0.0
C341 C 0.18158 0.31105 0.6693 0.0
C342 C 0.18577 0.29595 0.66188 0.0
C343 C 0.19992 0.28721 0.66841 0.0
C344 C 0.20961 0.2938 0.68272 0.0
C345 C 0.20531 0.30887 0.6902 0.0
C346 C 0.17375 0.33149 0.71136 0.0
C347 C 0.15564 0.33104 0.71034 0.0
C348 C 0.14619 0.32642 0.72459 0.0
C349 C 0.15472 0.32206 0.74008 0.0
C350 C 0.17293 0.32228 0.74091 0.0
C351 C 0.18234 0.32683 0.72662 0.0
P352 P 0.84473 0.19647 0.70284 0.0
H353 H 0.84707 0.20412 0.66654 0.0
H354 H 0.83358 0.22485 0.64794 0.0
H355 H 0.80988 0.24557 0.69133 0.0
H356 H 0.8238 0.22489 0.70999 0.0
H357 H 0.85073 0.18106 0.73634 0.0
H358 H 0.86769 0.19056 0.76184 0.0
H359 H 0.88059 0.23836 0.73704 0.0
H360 H 0.86368 0.22869 0.71147 0.0
H361 H 0.83084 0.16549 0.6861 0.0
H362 H 0.81806 0.19637 0.72817 0.0
O363 O 0.85913 0.1863 0.69227 0.0
H364 H 0.80567 0.14627 0.69102 0.0
H365 H 0.79307 0.17692 0.73355 0.0
C366 C 0.83658 0.21312 0.68965 0.0
C367 C 0.83923 0.2133 0.67212 0.0
C368 C 0.83138 0.22507 0.66147 0.0
C369 C 0.82057 0.23678 0.66815 0.0
C370 C 0.81828 0.23683 0.68583 0.0
C371 C 0.82617 0.22501 0.69649 0.0
C372 C 0.85552 0.20437 0.72221 0.0
C373 C 0.85689 0.19373 0.73651 0.0
C374 C 0.8666 0.19917 0.75109 0.0
C375 C 0.87539 0.21527 0.75151 0.0
C376 C 0.87401 0.22588 0.7371 0.0
C377 C 0.86421 0.22043 0.72254 0.0
C378 C 0.82657 0.18205 0.70708 0.0
C379 C 0.82274 0.16799 0.69657 0.0
C380 C 0.80835 0.15699 0.69942 0.0
C381 C 0.79744 0.15993 0.71281 0.0
C382 C 0.80114 0.17431 0.72309 0.0
C383 C 0.81552 0.18534 0.72015 0.0
P384 P 0.57116 0.5461 0.55291 0.0
H385 H 0.57117 0.53285 0.58755 0.0
H386 H 0.54804 0.52306 0.60597 0.0
H387 H 0.51049 0.52867 0.56413 0.0
H388 H 0.53378 0.53883 0.54587 0.0
H389 H 0.6078 0.54328 0.54749 0.0
H390 H 0.62389 0.52166 0.53457 0.0
H391 H 0.57588 0.49248 0.52246 0.0
H392 H 0.55995 0.51394 0.53625 0.0
H393 H 0.56297 0.58128 0.55512 0.0
H394 H 0.55979 0.54249 0.51664 0.0
O395 O 0.58502 0.55725 0.56602 0.0
H396 H 0.55186 0.60144 0.53431 0.0
H397 H 0.54824 0.56247 0.49579 0.0
C398 C 0.55413 0.53692 0.56551 0.0
C399 C 0.55797 0.53186 0.58232 0.0
C400 C 0.54472 0.52612 0.59279 0.0
C401 C 0.52736 0.5252 0.58657 0.0
C402 C 0.52368 0.52953 0.56941 0.0
C403 C 0.53698 0.53529 0.55894 0.0
C404 C 0.58273 0.53005 0.54308 0.0
C405 C 0.60074 0.53217 0.54216 0.0
C406 C 0.60992 0.51985 0.53455 0.0
C407 C 0.60123 0.50526 0.52741 0.0
C408 C 0.58306 0.50337 0.52808 0.0
C409 C 0.57391 0.51566 0.5359 0.0
C410 C 0.56261 0.56054 0.53733 0.0
C411 C 0.55986 0.5771 0.54217 0.0
C412 C 0.55331 0.58856 0.53029 0.0
C413 C 0.54919 0.58358 0.51334 0.0
C414 C 0.55154 0.56678 0.50866 0.0
C415 C 0.55814 0.55533 0.52058 0.0
P416 P 0.56394 0.46102 0.9611 0.0
H417 H 0.60032 0.46902 0.95415 0.0
H418 H 0.62151 0.49096 0.96465 0.0
H419 H 0.5831 0.51071 0.99607 0.0
H420 H 0.56179 0.48873 0.98522 0.0
H421 H 0.53216 0.43962 0.96472 0.0
H422 H 0.52356 0.4183 0.9859 0.0
H423 H 0.57095 0.43049 0.01559 0.0
H424 H 0.57948 0.45184 0.99436 0.0
H425 H 0.55857 0.46887 0.92506 0.0
H426 H 0.53154 0.4749 0.97125 0.0
O427 O 0.57353 0.44854 0.94786 0.0
H428 H 0.53466 0.4804 0.90841 0.0
H429 H 0.50745 0.48666 0.95461 0.0
C430 C 0.57949 0.47728 0.96891 0.0
C431 C 0.59642 0.47805 0.9633 0.0
C432 C 0.60859 0.49055 0.96941 0.0
C433 C 0.60404 0.50255 0.98126 0.0
C434 C 0.58698 0.50176 0.98683 0.0
C435 C 0.57481 0.48919 0.9807 0.0
C436 C 0.55624 0.44766 0.97818 0.0
C437 C 0.54046 0.4381 0.97604 0.0
C438 C 0.53555 0.42589 0.98816 0.0
C439 C 0.54654 0.42278 0.00245 0.0
C440 C 0.56222 0.43261 0.0047 0.0
C441 C 0.56704 0.4449 0.99263 0.0
C442 C 0.54661 0.47064 0.94931 0.0
C443 C 0.54748 0.47275 0.93163 0.0
C444 C 0.53385 0.4795 0.92213 0.0
C445 C 0.51909 0.48439 0.93017 0.0
C446 C 0.51852 0.48279 0.94802 0.0
C447 C 0.53228 0.47611 0.95754 0.0
P448 P 0.71952 0.23328 0.24873 0.0
H449 H 0.74101 0.26184 0.26324 0.0
H450 H 0.74204 0.27565 0.29111 0.0
H451 H 0.70055 0.24099 0.30709 0.0
H452 H 0.69934 0.2274 0.27905 0.0
H453 H 0.73583 0.21375 0.22339 0.0
H454 H 0.75129 0.18772 0.22494 0.0
H455 H 0.74219 0.18354 0.27878 0.0
H456 H 0.72689 0.20958 0.27717 0.0
H457 H 0.69083 0.25524 0.24781 0.0
H458 H 0.69972 0.20471 0.23149 0.0
O459 O 0.72982 0.24604 0.23495 0.0
H460 H 0.66143 0.25242 0.23514 0.0
H461 H 0.67052 0.20197 0.21836 0.0
C462 C 0.72005 0.24365 0.2691 0.0
C463 C 0.73202 0.25731 0.27267 0.0
C464 C 0.73257 0.26523 0.28856 0.0
C465 C 0.72135 0.25939 0.3012 0.0
C466 C 0.70938 0.24568 0.29757 0.0
C467 C 0.70866 0.23795 0.28159 0.0
C468 C 0.73042 0.21378 0.25018 0.0
C469 C 0.73718 0.20723 0.23553 0.0
C470 C 0.7459 0.19228 0.23641 0.0
C471 C 0.74802 0.18359 0.25201 0.0
C472 C 0.74098 0.19006 0.26663 0.0
C473 C 0.73216 0.20497 0.2657 0.0
C474 C 0.69741 0.23013 0.24078 0.0
C475 C 0.68639 0.24346 0.24164 0.0
C476 C 0.66963 0.24189 0.23426 0.0
C477 C 0.66362 0.22698 0.22567 0.0
C478 C 0.67464 0.21353 0.22507 0.0
C479 C 0.69141 0.21512 0.23252 0.0
P480 P 0.48549 0.99189 0.98136 0.0
H481 H 0.50903 0.0177 0.96638 0.0
H482 H 0.52186 0.02026 0.93853 0.0
H483 H 0.4933 0.97412 0.92235 0.0
H484 H 0.48046 0.97165 0.95027 0.0
H485 H 0.49263 0.00261 0.01661 0.0
H486 H 0.48971 0.02931 0.03127 0.0
H487 H 0.47079 0.05148 0.98399 0.0
H488 H 0.47338 0.02455 0.96953 0.0
H489 H 0.47271 0.9605 0.99776 0.0
H490 H 0.45233 0.99845 0.96399 0.0
O491 O 0.49977 0.98075 0.99252 0.0
H492 H 0.44437 0.94522 0.99736 0.0
H493 H 0.42382 0.98312 0.96344 0.0
C494 C 0.49338 0.99477 0.96022 0.0
C495 C 0.5052 0.00835 0.95672 0.0
C496 C 0.51256 0.00978 0.94079 0.0
C497 C 0.50851 0.99745 0.9282 0.0
C498 C 0.4967 0.98381 0.9318 0.0
C499 C 0.48924 0.98247 0.9477 0.0
C500 C 0.48359 0.01174 0.99192 0.0
C501 C 0.48795 0.01325 0.00938 0.0
C502 C 0.48632 0.02855 0.01774 0.0
C503 C 0.48016 0.0426 0.00879 0.0
C504 C 0.47546 0.04089 0.99131 0.0
C505 C 0.47707 0.02555 0.98298 0.0
C506 C 0.46462 0.98055 0.98082 0.0
C507 C 0.46215 0.96552 0.99019 0.0
C508 C 0.44594 0.95675 0.9899 0.0
C509 C 0.43186 0.96292 0.98031 0.0
C510 C 0.43437 0.97812 0.97106 0.0
C511 C 0.45065 0.98685 0.9713 0.0
Mg512 Mg 0.23693 0.84385 0.00172 0.0
O513 O 0.2634 0.85815 0.99758 0.0
O514 O 0.283 0.8385 -0.00098 0.0
Mg515 Mg 0.2698 0.81253 0.00394 0.0
C516 C 0.27902 0.85384 0.99698 0.0
C517 C 0.20591 0.86443 0.99499 0.0
O518 O 0.19972 0.84955 0.00027 0.0
O519 O 0.23651 0.83348 0.97463 0.0
O520 O 0.25628 0.81409 0.97734 0.0
O521 O 0.24071 0.8471 0.0299 0.0
O522 O 0.24911 0.82525 0.01581 0.0
C523 C 0.24505 0.82188 0.96839 0.0
C524 C 0.24865 0.83318 0.03004 0.0
O525 O 0.22212 0.86667 0.99324 0.0
Mg526 Mg 0.15013 0.50415 0.27049 0.0
O527 O 0.13567 0.50257 0.24396 0.0
O528 O 0.15619 0.50195 0.22487 0.0
Mg529 Mg 0.18287 0.50333 0.23822 0.0
C530 C 0.1403 0.50181 0.22855 0.0
C531 C 0.11405 0.50888 0.28549 0.0
O532 O 0.11665 0.52354 0.27773 0.0
O533 O 0.15615 0.47619 0.26928 0.0
O534 O 0.17653 0.47718 0.2499 0.0
O535 O 0.15251 0.53255 0.2688 0.0
O536 O 0.17186 0.5159 0.25966 0.0
C537 C 0.16702 0.469 0.26043 0.0
C538 C 0.16683 0.53098 0.26126 0.0
O539 O 0.12509 0.49777 0.2842 0.0
Mg540 Mg 0.77062 0.65489 0.02675 0.0
O541 O 0.74557 0.63778 0.02326 0.0
O542 O 0.72386 0.65476 0.01833 0.0
Mg543 Mg 0.73462 0.68227 0.01885 0.0
C544 C 0.72952 0.64001 0.02018 0.0
C545 C 0.79046 0.62274 0.03683 0.0
O546 O 0.78338 0.62557 0.05135 0.0
O547 O 0.77051 0.66003 0.99808 0.0
O548 O 0.74918 0.67768 0.99456 0.0
O549 O 0.76677 0.65732 0.05478 0.0
O550 O 0.75665 0.67465 0.03513 0.0
C551 C 0.76132 0.66956 0.98864 0.0
C552 C 0.75785 0.67023 0.05094 0.0
O553 O 0.7872 0.63224 0.02408 0.0
Mg554 Mg 0.89652 0.03083 0.25059 0.0
O555 O 0.87802 0.00727 0.24594 0.0
O556 O 0.89392 0.98504 0.24248 0.0
Mg557 Mg 0.92244 0.99423 0.24487 0.0
C558 C 0.87929 0.99151 0.24321 0.0
C559 C 0.86096 0.04648 0.24814 0.0
O560 O 0.86062 0.03751 0.2341 0.0
O561 O 0.90287 0.02206 0.27792 0.0
O562 O 0.91918 0.00037 0.2731 0.0
O563 O 0.89735 0.0355 0.22256 0.0
O564 O 0.91553 0.01981 0.23708 0.0
C565 C 0.9121 0.0101 0.28328 0.0
C566 C 0.9101 0.02568 0.22257 0.0
O567 O 0.87402 0.046 0.25852 0.0
Mg568 Mg 0.27008 0.15188 0.52908 0.0
O569 O 0.245 0.13491 0.52484 0.0
O570 O 0.22347 0.1522 0.52034 0.0
Mg571 Mg 0.23431 0.17964 0.52202 0.0
C572 C 0.229 0.13735 0.52171 0.0
C573 C 0.28976 0.11856 0.53674 0.0
O574 O 0.28201 0.1192 0.55125 0.0
O575 O 0.27014 0.15816 0.50066 0.0
O576 O 0.24891 0.17597 0.49754 0.0
O577 O 0.26603 0.15317 0.55719 0.0
O578 O 0.25613 0.17123 0.53812 0.0
C579 C 0.26108 0.16799 0.49146 0.0
C580 C 0.25717 0.16623 0.55375 0.0
O581 O 0.28683 0.12961 0.52529 0.0
Mg582 Mg 0.39859 0.52716 0.75184 0.0
O583 O 0.38087 0.50323 0.74635 0.0
O584 O 0.39757 0.48157 0.74313 0.0
Mg585 Mg 0.42582 0.4914 0.74674 0.0
C586 C 0.38268 0.48759 0.74342 0.0
C587 C 0.36267 0.54197 0.74818 0.0
O588 O 0.36323 0.53338 0.73398 0.0
O589 O 0.40418 0.51823 0.77928 0.0
O590 O 0.42153 0.4973 0.77481 0.0
O591 O 0.40053 0.53228 0.7239 0.0
O592 O 0.41851 0.51685 0.73898 0.0
C593 C 0.41378 0.50663 0.78485 0.0
C594 C 0.41359 0.52283 0.72435 0.0
O595 O 0.3753 0.54156 0.75908 0.0
Mg596 Mg 0.73385 0.3452 0.50544 0.0
O597 O 0.76161 0.35712 0.50346 0.0
O598 O 0.77916 0.33573 0.50582 0.0
Mg599 Mg 0.76324 0.31075 0.50939 0.0
C600 C 0.77674 0.35148 0.50387 0.0
C601 C 0.70532 0.36793 0.49687 0.0
O602 O 0.69798 0.35305 0.50072 0.0
O603 O 0.7345 0.33533 0.47814 0.0
O604 O 0.75121 0.31347 0.4823 0.0
O605 O 0.73608 0.34736 0.534 0.0
O606 O 0.74294 0.32511 0.51959 0.0
C607 C 0.7417 0.32247 0.47261 0.0
C608 C 0.74232 0.33256 0.53402 0.0
O609 O 0.72175 0.36949 0.49673 0.0
Mg610 Mg 0.65344 0.00475 0.76978 0.0
O611 O 0.63879 0.0026 0.74346 0.0
O612 O 0.65903 0.00087 0.72421 0.0
Mg613 Mg 0.6859 0.00264 0.73735 0.0
C614 C 0.64322 0.00113 0.72805 0.0
C615 C 0.61805 0.01075 0.7855 0.0
O616 O 0.6213 0.02547 0.77807 0.0
O617 O 0.65911 0.97663 0.76926 0.0
O618 O 0.67967 0.977 0.75013 0.0
O619 O 0.65621 0.03312 0.76715 0.0
O620 O 0.67522 0.01584 0.75853 0.0
C621 C 0.67011 0.96913 0.76083 0.0
C622 C 0.67046 0.03105 0.75965 0.0
O623 O 0.62843 -0.00089 0.78376 0.0
Mg624 Mg 0.03089 0.26226 0.91236 0.0
O625 O 0.00632 0.25584 0.89564 0.0
O626 O 0.98509 0.24771 0.9128 0.0
Mg627 Mg 0.996 0.249 0.94037 0.0
C628 C 0.99064 0.25068 0.89793 0.0
C629 C 0.05883 0.26943 0.8866 0.0
O630 O 0.06536 0.25797 0.89682 0.0
O631 O 0.02021 0.28708 0.92023 0.0
O632 O -0.00016 0.27806 0.93805 0.0
O633 O 0.03787 0.23542 0.91157 0.0
O634 O 0.02205 0.24565 0.93132 0.0
C635 C 0.00848 0.29001 0.93056 0.0
C636 C 0.02883 0.2328 0.92492 0.0
O637 O 0.04404 0.27458 0.88956 0.0
Mg638 Mg 0.5296 0.76456 0.40762 0.0
O639 O 0.50508 0.75831 0.39084 0.0
O640 O 0.48406 0.749 0.40778 0.0
Mg641 Mg 0.49535 0.74881 0.43526 0.0
C642 C 0.48949 0.75278 0.39302 0.0
C643 C 0.55853 0.77781 0.38514 0.0
O644 O 0.56668 0.77005 0.3977 0.0
O645 O 0.51832 0.78849 0.41703 0.0
O646 O 0.49861 0.77799 0.43486 0.0
O647 O 0.53727 0.73818 0.40498 0.0
O648 O 0.52138 0.74664 0.42561 0.0
C649 C 0.50681 0.79054 0.42786 0.0
C650 C 0.52831 0.73444 0.41818 0.0
O651 O 0.54219 0.77843 0.38542 0.0
Mg652 Mg 0.97454 0.7351 0.59559 0.0
O653 O 0.99876 0.72903 0.61212 0.0
O654 O 0.01776 0.71863 0.59494 0.0
Mg655 Mg 0.00671 0.71993 0.56753 0.0
C656 C 0.01328 0.72279 0.60972 0.0
C657 C 0.94693 0.74732 0.6179 0.0
O658 O 0.93826 0.7397 0.60507 0.0
O659 O 0.98867 0.75948 0.5865 0.0
O660 O 0.00778 0.74904 0.56948 0.0
O661 O 0.96398 0.70823 0.59765 0.0
O662 O 0.98056 0.7179 0.57714 0.0
C663 C 0.00109 0.76153 0.57637 0.0
C664 C 0.97237 0.70526 0.58421 0.0
O665 O 0.96337 0.7482 0.61801 0.0
Mg666 Mg 0.47441 0.23528 0.0995 0.0
O667 O 0.4995 0.2294 0.11477 0.0
O668 O 0.51821 0.22094 0.09621 0.0
Mg669 Mg 0.50573 0.22224 0.06937 0.0
C670 C 0.51425 0.22415 0.11142 0.0
C671 C 0.44896 0.25299 0.12099 0.0
O672 O 0.44092 0.25201 0.10588 0.0
O673 O 0.48728 0.26032 0.09049 0.0
O674 O 0.50585 0.25121 0.07209 0.0
O675 O 0.46477 0.20815 0.10125 0.0
O676 O 0.48015 0.21883 0.08026 0.0
C677 C 0.49907 0.26317 0.07978 0.0
C678 C 0.47271 0.20577 0.08738 0.0
O679 O 0.46401 0.2475 0.12282 0.0
C680 C 0.23887 0.76072 0.82671 0.0
C681 C 0.22289 0.7593 0.8175 0.0
C682 C 0.24044 0.76893 0.84243 0.0
C683 C 0.21482 0.78318 0.87781 0.0
H684 H 0.25752 0.80944 0.88977 0.0
C685 C 0.22652 0.82063 0.9412 0.0
C686 C 0.24196 0.81707 0.95027 0.0
C687 C 0.22344 0.81517 0.92434 0.0
C688 C 0.24553 0.80215 0.88659 0.0
H689 H 0.19602 0.76542 0.81747 0.0
H690 H 0.19878 0.78006 0.84485 0.0
H691 H 0.25339 0.79682 0.86155 0.0
H692 H 0.26648 0.80544 0.94858 0.0
H693 H 0.2612 0.79619 0.91922 0.0
H694 H 0.20703 0.78865 0.90296 0.0
C695 C 0.21006 0.77455 0.84008 0.0
C696 C 0.24318 0.79482 0.87046 0.0
C697 C 0.20846 0.76619 0.82439 0.0
C698 C 0.25441 0.80833 0.942 0.0
C699 C 0.25145 0.80312 0.92513 0.0
C700 C 0.21711 0.79068 0.89391 0.0
C701 C 0.2261 0.77608 0.84927 0.0
C702 C 0.22795 0.78494 0.86598 0.0
C703 C 0.23589 0.80634 0.91618 0.0
C704 C 0.23263 0.79994 0.89855 0.0
H705 H 0.25016 0.7553 0.82184 0.0
H706 H 0.2529 0.76948 0.84932 0.0
H707 H 0.203 0.77553 0.87488 0.0
H708 H 0.21666 0.82731 0.94724 0.0
H709 H 0.21136 0.81786 0.91767 0.0
C710 C 0.01472 0.50997 0.40259 0.0
C711 C 0.0141 0.49485 0.41213 0.0
C712 C 0.02339 0.51113 0.38734 0.0
C713 C 0.04238 0.48528 0.35425 0.0
H714 H 0.07058 0.52662 0.34664 0.0
C715 C 0.09744 0.49097 0.30651 0.0
C716 C 0.09971 0.50622 0.29731 0.0
C717 C 0.08513 0.48921 0.31902 0.0
C718 C 0.06258 0.51508 0.34842 0.0
H719 H 0.02197 0.46903 0.41306 0.0
H720 H 0.03729 0.47108 0.3866 0.0
H721 H 0.05265 0.52433 0.3713 0.0
H722 H 0.09024 0.53129 0.29351 0.0
H723 H 0.06878 0.52817 0.31527 0.0
H724 H 0.05277 0.47593 0.33153 0.0
C725 C 0.03079 0.48197 0.39069 0.0
C726 C 0.05225 0.51376 0.36257 0.0
C727 C 0.02202 0.4808 0.40589 0.0
C728 C 0.08892 0.5194 0.30042 0.0
C729 C 0.07668 0.51766 0.31297 0.0
C730 C 0.0528 0.48658 0.34012 0.0
C731 C 0.03177 0.49722 0.38132 0.0
C732 C 0.04209 0.49881 0.36575 0.0
C733 C 0.07487 0.50267 0.32264 0.0
C734 C 0.06309 0.50147 0.33711 0.0
H735 H 0.00852 0.52095 0.40695 0.0
H736 H 0.02358 0.52296 0.3803 0.0
H737 H 0.03453 0.47367 0.35615 0.0
H738 H 0.10551 0.48055 0.30442 0.0
H739 H 0.08414 0.47754 0.32632 0.0
C740 C 0.7879 0.74331 0.85934 0.0
C741 C 0.80469 0.74478 0.85322 0.0
C742 C 0.78338 0.73085 0.87132 0.0
C743 C 0.80309 0.70581 0.90556 0.0
H744 H 0.75682 0.6843 0.90692 0.0
C745 C 0.78126 0.66752 0.96441 0.0
C746 C 0.76553 0.67239 0.97055 0.0
C747 C 0.78614 0.67231 0.94801 0.0
C748 C 0.76981 0.69018 0.9067 0.0
H749 H 0.82965 0.73371 0.85424 0.0
H750 H 0.82176 0.71199 0.87528 0.0
H751 H 0.76535 0.70031 0.8816 0.0
H752 H 0.74214 0.68516 0.96384 0.0
H753 H 0.75067 0.69352 0.93545 0.0
H754 H 0.80736 0.69625 0.93088 0.0
C755 C 0.81217 0.72064 0.87094 0.0
C756 C 0.77469 0.69936 0.89222 0.0
C757 C 0.81669 0.7331 0.85892 0.0
C758 C 0.7544 0.68129 0.95959 0.0
C759 C 0.75923 0.68597 0.94322 0.0
C760 C 0.79822 0.69663 0.92004 0.0
C761 C 0.79554 0.71956 0.8775 0.0
C762 C 0.79122 0.70769 0.89168 0.0
C763 C 0.77534 0.68192 0.93738 0.0
C764 C 0.78135 0.68913 0.92098 0.0
H765 H 0.77841 0.75225 0.85545 0.0
H766 H 0.77055 0.73058 0.87631 0.0
H767 H 0.81586 0.71221 0.90565 0.0
H768 H 0.79012 0.66061 0.9725 0.0
H769 H 0.79856 0.66883 0.9438 0.0
C770 C 0.99385 0.00075 0.41806 0.0
C771 C 0.99878 0.98397 0.41947 0.0
C772 C 0.98053 0.00499 0.40643 0.0
C773 C 0.94459 0.98602 0.37794 0.0
H774 H 0.9544 0.02573 0.34988 0.0
C775 C 0.92078 0.99218 0.30816 0.0
C776 C 0.91595 0.00793 0.30179 0.0
C777 C 0.92689 0.99048 0.32505 0.0
C778 C 0.95125 0.01479 0.35781 0.0
H779 H 0.99345 0.95848 0.40981 0.0
H780 H 0.97049 0.96583 0.38958 0.0
H781 H 0.97293 0.02057 0.37508 0.0
H782 H 0.91301 0.03413 0.30835 0.0
H783 H 0.92406 0.0312 0.33797 0.0
H784 H 0.92347 0.97981 0.36005 0.0
C785 C 0.97655 0.9757 0.39769 0.0
C786 C 0.96187 0.01182 0.37229 0.0
C787 C 0.98979 0.97147 0.40931 0.0
C788 C 0.91659 0.02181 0.31292 0.0
C789 C 0.923 0.02017 0.32981 0.0
C790 C 0.93406 0.98893 0.3634 0.0
C791 C 0.97189 0.99255 0.39591 0.0
C792 C 0.959 0.99712 0.38223 0.0
C793 C 0.92854 0.00455 0.33593 0.0
C794 C 0.93759 0.00308 0.35291 0.0
H795 H 0.00041 0.01064 0.42584 0.0
H796 H 0.97713 0.01805 0.40555 0.0
H797 H 0.94174 0.97478 0.38553 0.0
H798 H 0.92035 0.98123 0.29991 0.0
H799 H 0.93121 0.97832 0.32932 0.0
C800 C 0.22219 0.26923 0.65681 0.0
C801 C 0.20479 0.27158 0.65995 0.0
C802 C 0.22664 0.25524 0.64755 0.0
C803 C 0.2078 0.2251 0.61536 0.0
H804 H 0.251 0.20348 0.62364 0.0
C805 C 0.25011 0.17017 0.58438 0.0
C806 C 0.24876 0.17535 0.5672 0.0
C807 C 0.24326 0.17972 0.59713 0.0
C808 C 0.23876 0.20919 0.62129 0.0
H809 H 0.17852 0.26062 0.65668 0.0
H810 H 0.18628 0.23614 0.64064 0.0
H811 H 0.24202 0.22385 0.64417 0.0
H812 H 0.23903 0.19455 0.55 0.0
H813 H 0.22716 0.21101 0.57205 0.0
H814 H 0.20456 0.21054 0.59247 0.0
C815 C 0.19646 0.24529 0.64501 0.0
C816 C 0.23372 0.22103 0.63295 0.0
C817 C 0.19201 0.25931 0.6542 0.0
C818 C 0.24012 0.19003 0.56303 0.0
C819 C 0.23324 0.19949 0.57571 0.0
C820 C 0.21283 0.21329 0.60374 0.0
C821 C 0.21379 0.24325 0.64128 0.0
C822 C 0.21835 0.22938 0.62994 0.0
C823 C 0.23487 0.19456 0.59293 0.0
C824 C 0.22855 0.20548 0.60636 0.0
H825 H 0.23232 0.27855 0.66092 0.0
H826 H 0.24009 0.25422 0.64472 0.0
H827 H 0.19596 0.23137 0.61253 0.0
H828 H 0.25672 0.15894 0.58801 0.0
H829 H 0.24462 0.17553 0.61028 0.0
C830 C 0.49816 0.52994 0.59772 0.0
C831 C 0.5132 0.52081 0.59833 0.0
C832 C 0.48578 0.52726 0.61004 0.0
C833 C 0.48296 0.51376 0.65448 0.0
H834 H 0.43336 0.51407 0.64542 0.0
C835 C 0.4365 0.50848 0.70941 0.0
C836 C 0.42274 0.51926 0.70874 0.0
C837 C 0.44615 0.50626 0.69508 0.0
C838 C 0.44718 0.51409 0.64817 0.0
H839 H 0.52641 0.5009 0.61171 0.0
H840 H 0.50489 0.49636 0.63331 0.0
H841 H 0.45268 0.51438 0.62161 0.0
H842 H 0.40803 0.53584 0.69231 0.0
H843 H 0.42518 0.53238 0.66743 0.0
H844 H 0.4777 0.51409 0.68093 0.0
C845 C 0.50282 0.50576 0.62343 0.0
C846 C 0.45823 0.51422 0.63453 0.0
C847 C 0.51516 0.50839 0.61108 0.0
C848 C 0.41853 0.52741 0.69324 0.0
C849 C 0.42831 0.52533 0.67893 0.0
C850 C 0.47197 0.51376 0.66808 0.0
C851 C 0.4882 0.51544 0.62327 0.0
C852 C 0.47625 0.51415 0.63756 0.0
C853 C 0.44245 0.51496 0.67976 0.0
C854 C 0.45394 0.51403 0.66513 0.0
H855 H 0.49632 0.53975 0.58821 0.0
H856 H 0.47474 0.53502 0.60967 0.0
H857 H 0.4968 0.51404 0.65725 0.0
H858 H 0.44013 0.502 0.72109 0.0
H859 H 0.45671 0.49791 0.6961 0.0
C860 C 0.80325 0.2419 0.64113 0.0
C861 C 0.81102 0.2482 0.65651 0.0
C862 C 0.79428 0.25243 0.63002 0.0
C863 C 0.79049 0.29694 0.61776 0.0
H864 H 0.74913 0.27849 0.5931 0.0
C865 C 0.75231 0.33378 0.56497 0.0
C866 C 0.74901 0.32451 0.54983 0.0
C867 C 0.75864 0.32582 0.57981 0.0
C868 C 0.76065 0.28382 0.59991 0.0
H869 H 0.81537 0.27052 0.67233 0.0
H870 H 0.79948 0.28901 0.65285 0.0
H871 H 0.76228 0.26207 0.61609 0.0
H872 H 0.74952 0.29968 0.53842 0.0
H873 H 0.76041 0.2859 0.56417 0.0
H874 H 0.78892 0.31861 0.60125 0.0
C875 C 0.80048 0.27589 0.64941 0.0
C876 C 0.76821 0.27442 0.61304 0.0
C877 C 0.80946 0.26529 0.6606 0.0
C878 C 0.75202 0.3072 0.54984 0.0
C879 C 0.75811 0.29925 0.56463 0.0
C880 C 0.78284 0.30642 0.60463 0.0
C881 C 0.79277 0.26954 0.634 0.0
C882 C 0.78352 0.28062 0.62176 0.0
C883 C 0.76146 0.30844 0.57978 0.0
C884 C 0.76815 0.29971 0.59526 0.0
H885 H 0.80399 0.22874 0.63771 0.0
H886 H 0.78873 0.24718 0.61815 0.0
H887 H 0.80232 0.30204 0.6242 0.0
H888 H 0.75011 0.34715 0.56532 0.0
H889 H 0.76111 0.33318 0.59134 0.0
C890 C 0.55415 0.99333 0.59583 0.0
C891 C 0.53851 0.00149 0.59514 0.0
C892 C 0.56425 0.99278 0.61099 0.0
C893 C 0.56401 0.99643 0.65761 0.0
H894 H 0.61282 0.00897 0.65346 0.0
C895 C 0.61299 0.00518 0.71607 0.0
C896 C 0.62978 -6e-05 0.71396 0.0
C897 C 0.6009 0.0051 0.70221 0.0
C898 C 0.59928 0.0052 0.65486 0.0
H899 H 0.52097 0.01496 0.61011 0.0
H900 H 0.53859 0.01374 0.63674 0.0
H901 H 0.5934 0.00893 0.62826 0.0
H902 H 0.6467 0.98966 0.69589 0.0
H903 H 0.62564 0.98909 0.67206 0.0
H904 H 0.57001 0.99244 0.68425 0.0
C905 C 0.54297 0.00782 0.62545 0.0
C906 C 0.58814 0.00523 0.64039 0.0
C907 C 0.53288 0.00848 0.61021 0.0
C908 C 0.63399 0.99405 0.69792 0.0
C909 C 0.62191 0.99382 0.68419 0.0
C910 C 0.57524 0.99625 0.67214 0.0
C911 C 0.55892 0.00025 0.62589 0.0
C912 C 0.57043 0.00068 0.64155 0.0
C913 C 0.60533 -0.00034 0.68602 0.0
C914 C 0.59306 0.00044 0.67089 0.0
H915 H 0.55868 0.98742 0.58461 0.0
H916 H 0.57632 0.98656 0.61103 0.0
H917 H 0.55041 0.99282 0.65886 0.0
H918 H 0.60936 0.0098 0.72828 0.0
H919 H 0.58827 0.00976 0.70406 0.0
C920 C 0.90305 0.22852 0.76468 0.0
C921 C 0.88652 0.22058 0.76666 0.0
C922 C 0.91394 0.23261 0.77893 0.0
C923 C 0.92124 0.22083 0.82421 0.0
H924 H 0.95054 0.26239 0.82605 0.0
C925 C 0.9614 0.24149 0.88496 0.0
C926 C 0.97851 0.24794 0.88289 0.0
C927 C 0.95001 0.23868 0.87082 0.0
C928 C 0.94255 0.25066 0.82565 0.0
H929 H 0.86821 0.21129 0.78516 0.0
H930 H 0.88715 0.21855 0.81005 0.0
H931 H 0.93071 0.25683 0.80138 0.0
H932 H 0.99697 0.2566 0.86421 0.0
H933 H 0.97707 0.2516 0.83953 0.0
H934 H 0.93307 0.21465 0.84846 0.0
C935 C 0.89184 0.2213 0.79747 0.0
C936 C 0.93119 0.24747 0.81152 0.0
C937 C 0.88098 0.21716 0.78322 0.0
C938 C 0.98389 0.25163 0.8663 0.0
C939 C 0.97246 0.24886 0.85215 0.0
C940 C 0.93256 0.22404 0.83834 0.0
C941 C 0.90853 0.2289 0.79549 0.0
C942 C 0.92041 0.2325 0.81062 0.0
C943 C 0.95541 0.24228 0.85425 0.0
C944 C 0.94335 0.23898 0.83922 0.0
H945 H 0.90779 0.2311 0.75209 0.0
H946 H 0.92679 0.23824 0.77694 0.0
H947 H 0.91338 0.20903 0.8238 0.0
H948 H 0.95676 0.23855 0.89753 0.0
H949 H 0.93689 0.23381 0.87288 0.0
C950 C 0.4836 0.92527 0.49711 0.0
C951 C 0.49435 0.93898 0.49155 0.0
C952 C 0.48371 0.90945 0.48932 0.0
C953 C 0.49661 0.88829 0.45025 0.0
H954 H 0.49592 0.84841 0.47932 0.0
C955 C 0.5132 0.82209 0.42707 0.0
C956 C 0.50346 0.80793 0.43325 0.0
C957 C 0.51094 0.8383 0.43326 0.0
C958 C 0.49588 0.85939 0.47099 0.0
H959 H 0.51371 0.94681 0.4735 0.0
H960 H 0.51398 0.91923 0.45998 0.0
H961 H 0.49414 0.87619 0.49195 0.0
H962 H 0.4832 0.79989 0.45033 0.0
H963 H 0.4792 0.8281 0.46095 0.0
H964 H 0.49859 0.87142 0.42931 0.0
C965 C 0.50523 0.92075 0.47015 0.0
C966 C 0.49485 0.87533 0.47823 0.0
C967 C 0.50509 0.93657 0.47792 0.0
C968 C 0.49104 0.81045 0.44536 0.0
C969 C 0.48879 0.82663 0.45154 0.0
C970 C 0.49767 0.87232 0.443 0.0
C971 C 0.49462 0.90697 0.47582 0.0
C972 C 0.49525 0.88999 0.46797 0.0
C973 C 0.4989 0.84071 0.44577 0.0
C974 C 0.49735 0.85769 0.4533 0.0
H975 H 0.47499 0.92678 0.50742 0.0
H976 H 0.47517 0.89918 0.49382 0.0
H977 H 0.49671 0.8993 0.44195 0.0
H978 H 0.52288 0.82063 0.41775 0.0
H979 H 0.51902 0.84887 0.42864 0.0
C980 C 0.14973 0.3041 0.7662 0.0
C981 C 0.14467 0.31728 0.75529 0.0
C982 C 0.14035 0.29967 0.78053 0.0
C983 C 0.09749 0.30199 0.79843 0.0
H984 H 0.12216 0.29302 0.84135 0.0
C985 C 0.06216 0.28863 0.86112 0.0
C986 C 0.06849 0.27583 0.87178 0.0
C987 C 0.07136 0.29444 0.84705 0.0
C988 C 0.11506 0.2953 0.82942 0.0
H989 H 0.12582 0.33623 0.75106 0.0
H990 H 0.10933 0.32832 0.77598 0.0
H991 H 0.13835 0.30151 0.81646 0.0
H992 H 0.0894 0.25902 0.87595 0.0
H993 H 0.10521 0.2689 0.85138 0.0
H994 H 0.0742 0.29554 0.81132 0.0
C995 C 0.12049 0.32135 0.77332 0.0
C996 C 0.12435 0.30019 0.81517 0.0
C997 C 0.12993 0.32585 0.75903 0.0
C998 C 0.08419 0.26897 0.86807 0.0
C999 C 0.09333 0.27472 0.85402 0.0
C1000 C 0.08818 0.29702 0.81268 0.0
C1001 C 0.12563 0.30824 0.78425 0.0
C1002 C 0.11568 0.30348 0.79949 0.0
C1003 C 0.08707 0.28754 0.84334 0.0
C1004 C 0.09687 0.2935 0.82833 0.0
H1005 H 0.16083 0.29703 0.76355 0.0
H1006 H 0.14447 0.28933 0.78856 0.0
H1007 H 0.09045 0.30427 0.78647 0.0
H1008 H 0.05012 0.2942 0.86365 0.0
H1009 H 0.06626 0.30446 0.8392 0.0
C1010 C 0.54946 0.59659 0.48403 0.0
C1011 C 0.54313 0.59613 0.50055 0.0
C1012 C 0.54514 0.60943 0.47256 0.0
C1013 C 0.51545 0.64428 0.46494 0.0
H1014 H 0.55433 0.66534 0.4416 0.0
C1015 C 0.51792 0.71311 0.43978 0.0
C1016 C 0.52636 0.71683 0.4246 0.0
C1017 C 0.51762 0.69678 0.44674 0.0
C1018 C 0.54323 0.65945 0.44775 0.0
H1019 H 0.52644 0.60821 0.51759 0.0
H1020 H 0.51933 0.63086 0.49781 0.0
H1021 H 0.55798 0.63945 0.45787 0.0
H1022 H 0.54042 0.70616 0.40438 0.0
H1023 H 0.53983 0.67766 0.4165 0.0
H1024 H 0.5009 0.66472 0.45521 0.0
C1025 C 0.52751 0.62124 0.49363 0.0
C1026 C 0.54532 0.64457 0.45708 0.0
C1027 C 0.53178 0.60837 0.50507 0.0
C1028 C 0.5339 0.70373 0.41616 0.0
C1029 C 0.53363 0.68742 0.42313 0.0
C1030 C 0.51337 0.65923 0.45562 0.0
C1031 C 0.53443 0.62213 0.47736 0.0
C1032 C 0.53155 0.63695 0.46603 0.0
C1033 C 0.5258 0.68384 0.43868 0.0
C1034 C 0.52733 0.66712 0.44715 0.0
H1035 H 0.55831 0.58742 0.48015 0.0
H1036 H 0.55049 0.60961 0.46004 0.0
H1037 H 0.5045 0.63859 0.47146 0.0
H1038 H 0.51204 0.72292 0.44663 0.0
H1039 H 0.51165 0.69449 0.45882 0.0
C1040 C 0.88027 0.79529 0.74685 0.0
C1041 C 0.86225 0.79178 0.74688 0.0
C1042 C 0.88957 0.79118 0.73276 0.0
C1043 C 0.88679 0.76333 0.695 0.0
H1044 H 0.9245 0.79332 0.67959 0.0
C1045 C 0.9194 0.75204 0.63209 0.0
C1046 C 0.93757 0.75383 0.63228 0.0
C1047 C 0.91043 0.75732 0.64593 0.0
C1048 C 0.91411 0.78475 0.68385 0.0
H1049 H 0.83983 0.7816 0.73194 0.0
H1050 H 0.85601 0.77453 0.70731 0.0
H1051 H 0.90827 0.80137 0.70392 0.0
H1052 H 0.96056 0.76294 0.64706 0.0
H1053 H 0.94484 0.77215 0.67132 0.0
H1054 H 0.89256 0.74675 0.67493 0.0
C1055 C 0.86301 0.78017 0.71831 0.0
C1056 C 0.90481 0.78934 0.6978 0.0
C1057 C 0.85373 0.78423 0.73242 0.0
C1058 C 0.94656 0.76138 0.64651 0.0
C1059 C 0.93756 0.76672 0.66038 0.0
C1060 C 0.89603 0.75877 0.68106 0.0
C1061 C 0.88107 0.78349 0.71834 0.0
C1062 C 0.891 0.7787 0.70351 0.0
C1063 C 0.91939 0.76455 0.66031 0.0
C1064 C 0.90976 0.76944 0.67528 0.0
H1065 H 0.88725 0.80089 0.75788 0.0
H1066 H 0.90348 0.7937 0.73333 0.0
H1067 H 0.87647 0.75467 0.69926 0.0
H1068 H 0.91204 0.74637 0.62131 0.0
H1069 H 0.89643 0.75573 0.64535 0.0
C1070 C 0.06143 0.89124 0.51051 0.0
C1071 C 0.04942 0.90358 0.50704 0.0
C1072 C 0.05699 0.87696 0.52031 0.0
C1073 C 0.02614 0.8585 0.55083 0.0
H1074 H 0.03655 0.81616 0.53024 0.0
C1075 C 0.9974 0.79276 0.57312 0.0
C1076 C 0.00771 0.77886 0.57179 0.0
C1077 C 0.00312 0.80874 0.56702 0.0
C1078 C 0.0338 0.82783 0.53639 0.0
H1079 H 0.02355 0.91089 0.51182 0.0
H1080 H 0.01587 0.88594 0.52913 0.0
H1081 H 0.0456 0.84276 0.51676 0.0
H1082 H 0.03254 0.77105 0.56414 0.0
H1083 H 0.04271 0.79886 0.5541 0.0
H1084 H 0.01435 0.84349 0.57053 0.0
C1085 C 0.02874 0.8874 0.52425 0.0
C1086 C 0.03896 0.8431 0.5286 0.0
C1087 C 0.03315 0.90169 0.51435 0.0
C1088 C 0.02417 0.78144 0.56508 0.0
C1089 C 0.02996 0.7974 0.55922 0.0
C1090 C 0.02107 0.84316 0.55875 0.0
C1091 C 0.04047 0.8747 0.52697 0.0
C1092 C 0.03521 0.85861 0.53571 0.0
C1093 C 0.01934 0.81116 0.55966 0.0
C1094 C 0.02487 0.82762 0.55162 0.0
H1095 H 0.0742 0.89249 0.50541 0.0
H1096 H 0.06642 0.86753 0.52247 0.0
H1097 H 0.02313 0.87028 0.55663 0.0
H1098 H 0.98464 0.79116 0.57822 0.0
H1099 H 0.99455 0.81901 0.56748 0.0
C1100 C 0.13 0.71653 0.72107 0.0
C1101 C 0.14561 0.71941 0.71278 0.0
C1102 C 0.11414 0.71653 0.71176 0.0
C1103 C 0.09287 0.73489 0.67521 0.0
H1104 H 0.0627 0.694 0.67086 0.0
C1105 C 0.02641 0.73242 0.63803 0.0
C1106 C 0.0258 0.72105 0.62432 0.0
C1107 C 0.03954 0.73192 0.65086 0.0
C1108 C 0.07093 0.70553 0.67214 0.0
H1109 H 0.15704 0.72481 0.68851 0.0
H1110 H 0.12927 0.72536 0.67231 0.0
H1111 H 0.08897 0.69412 0.68966 0.0
H1112 H 0.03785 0.69972 0.61371 0.0
H1113 H 0.06044 0.69853 0.63644 0.0
H1114 H 0.07493 0.74631 0.65769 0.0
C1115 C 0.12933 0.72284 0.68591 0.0
C1116 C 0.08587 0.70561 0.68288 0.0
C1117 C 0.14515 0.72245 0.69512 0.0
C1118 C 0.03805 0.70868 0.6241 0.0
C1119 C 0.0509 0.70794 0.63711 0.0
C1120 C 0.07775 0.73493 0.6648 0.0
C1121 C 0.11372 0.71984 0.69414 0.0
C1122 C 0.0971 0.72019 0.68421 0.0
C1123 C 0.05198 0.71977 0.65039 0.0
C1124 C 0.06684 0.72016 0.66293 0.0
H1125 H 0.13009 0.71417 0.7347 0.0
H1126 H 0.10221 0.7142 0.71833 0.0
H1127 H 0.10138 0.74627 0.67609 0.0
H1128 H 0.01719 0.74214 0.63848 0.0
H1129 H 0.04014 0.74118 0.661 0.0
C1130 C 0.98061 0.57225 0.50765 0.0
C1131 C 0.97627 0.55723 0.51656 0.0
C1132 C 0.97956 0.58799 0.51536 0.0
C1133 C 0.97816 0.60822 0.5577 0.0
H1134 H 0.96295 0.64621 0.53064 0.0
C1135 C 0.96626 0.67379 0.58636 0.0
C1136 C 0.97292 0.68796 0.57732 0.0
C1137 C 0.96634 0.65754 0.57944 0.0
C1138 C 0.96734 0.63574 0.53833 0.0
H1139 H 0.96709 0.54691 0.54041 0.0
H1140 H 0.965 0.57439 0.55382 0.0
H1141 H 0.96325 0.61843 0.51757 0.0
H1142 H 0.98488 0.69621 0.55394 0.0
H1143 H 0.98503 0.66796 0.54193 0.0
H1144 H 0.9821 0.62563 0.5785 0.0
C1145 C 0.96957 0.57402 0.54099 0.0
C1146 C 0.96756 0.61982 0.53083 0.0
C1147 C 0.97072 0.55828 0.5333 0.0
C1148 C 0.97973 0.68556 0.56128 0.0
C1149 C 0.97968 0.66938 0.55432 0.0
C1150 C 0.97783 0.62415 0.56523 0.0
C1151 C 0.97404 0.58908 0.53214 0.0
C1152 C 0.97314 0.60588 0.54036 0.0
C1153 C 0.97291 0.65521 0.56326 0.0
C1154 C 0.97259 0.63811 0.55557 0.0
H1155 H 0.98519 0.57185 0.49483 0.0
H1156 H 0.98343 0.59928 0.50826 0.0
H1157 H 0.98276 0.59783 0.56537 0.0
H1158 H 0.96091 0.67524 0.59875 0.0
H1159 H 0.96095 0.64685 0.58658 0.0
C1160 C 0.76043 0.88456 0.21558 0.0
C1161 C 0.74469 0.89063 0.20935 0.0
C1162 C 0.77452 0.89581 0.21999 0.0
C1163 C 0.79154 0.94012 0.21307 0.0
H1164 H 0.82256 0.93017 0.25154 0.0
C1165 C 0.84712 0.98724 0.23762 0.0
C1166 C 0.86331 0.98036 0.24054 0.0
C1167 C 0.83219 0.97665 0.23453 0.0
C1168 C 0.81405 0.93306 0.24071 0.0
H1169 H 0.73119 0.91324 0.20322 0.0
H1170 H 0.75562 0.93292 0.21121 0.0
H1171 H 0.79728 0.91107 0.2449 0.0
H1172 H 0.87641 0.95691 0.24285 0.0
H1173 H 0.85036 0.93851 0.23759 0.0
H1174 H 0.8083 0.96221 0.20904 0.0
C1175 C 0.75728 0.91946 0.21231 0.0
C1176 C 0.79959 0.92209 0.23685 0.0
C1177 C 0.74325 0.90819 0.20777 0.0
C1178 C 0.86417 0.96265 0.2406 0.0
C1179 C 0.84923 0.95208 0.23769 0.0
C1180 C 0.80591 0.95116 0.21704 0.0
C1181 C 0.77313 0.91342 0.2184 0.0
C1182 C 0.78822 0.9254 0.22288 0.0
C1183 C 0.83311 0.95896 0.2345 0.0
C1184 C 0.8174 0.94767 0.2308 0.0
H1185 H 0.76198 0.87108 0.21674 0.0
H1186 H 0.78659 0.89067 0.22433 0.0
H1187 H 0.78325 0.94295 0.20206 0.0
H1188 H 0.84599 0.00082 0.23748 0.0
H1189 H 0.8199 0.98229 0.23224 0.0
C1190 C 0.77001 0.16563 0.26655 0.0
C1191 C 0.75785 0.16803 0.25302 0.0
C1192 C 0.7799 0.15141 0.26702 0.0
C1193 C 0.79545 0.11919 0.23858 0.0
H1194 H 0.80777 0.09633 0.28094 0.0
C1195 C 0.83313 0.05895 0.23886 0.0
C1196 C 0.84723 0.05833 0.25074 0.0
C1197 C 0.82109 0.07126 0.24014 0.0
C1198 C 0.80452 0.10266 0.26903 0.0
H1199 H 0.74602 0.15704 0.22979 0.0
H1200 H 0.76311 0.13217 0.23068 0.0
H1201 H 0.78875 0.11984 0.28122 0.0
H1202 H 0.85929 0.06972 0.27372 0.0
H1203 H 0.83827 0.09129 0.27588 0.0
H1204 H 0.81125 0.10213 0.22639 0.0
C1205 C 0.76532 0.14145 0.24073 0.0
C1206 C 0.79364 0.11614 0.26918 0.0
C1207 C 0.7555 0.1557 0.24022 0.0
C1208 C 0.84859 0.06986 0.26435 0.0
C1209 C 0.83651 0.08219 0.26563 0.0
C1210 C 0.80625 0.10571 0.23842 0.0
C1211 C 0.77781 0.13923 0.25402 0.0
C1212 C 0.789 0.1246 0.25395 0.0
C1213 C 0.82283 0.08325 0.25331 0.0
C1214 C 0.81095 0.09729 0.25363 0.0
H1215 H 0.77226 0.17501 0.27651 0.0
H1216 H 0.78954 0.15024 0.27732 0.0
H1217 H 0.79247 0.12561 0.22666 0.0
H1218 H 0.83159 0.05018 0.22831 0.0
H1219 H 0.81052 0.07152 0.23064 0.0
C1220 C 0.41367 0.93566 0.97831 0.0
C1221 C 0.41473 0.95337 0.97988 0.0
C1222 C 0.39769 0.92651 0.97836 0.0
C1223 C 0.35338 0.92843 0.99272 0.0
H1224 H 0.34464 0.88961 0.96304 0.0
C1225 C 0.29032 0.88421 0.99336 0.0
C1226 C 0.29314 0.86681 0.9936 0.0
C1227 C 0.30392 0.89622 0.99027 0.0
C1228 C 0.3469 0.90039 0.97144 0.0
H1229 H 0.39979 0.97538 0.98267 0.0
H1230 H 0.37173 0.95934 0.98265 0.0
H1231 H 0.37071 0.90803 0.96004 0.0
H1232 H 0.31253 0.84846 0.99068 0.0
H1233 H 0.33599 0.86924 0.98538 0.0
H1234 H 0.32967 0.92051 0.00434 0.0
C1235 C 0.38334 0.95256 0.98146 0.0
C1236 C 0.36184 0.91093 0.96974 0.0
C1237 C 0.39938 0.96175 0.98132 0.0
C1238 C 0.30981 0.86172 0.9906 0.0
C1239 C 0.32328 0.87365 0.98741 0.0
C1240 C 0.33838 0.91786 0.99443 0.0
C1241 C 0.38234 0.93483 0.98001 0.0
C1242 C 0.36549 0.92483 0.98062 0.0
C1243 C 0.32053 0.89102 0.98718 0.0
C1244 C 0.33521 0.90348 0.98408 0.0
H1245 H 0.42524 0.92884 0.977 0.0
H1246 H 0.39741 0.91284 0.97744 0.0
H1247 H 0.35587 0.93898 0.00137 0.0
H1248 H 0.27765 0.88857 0.99564 0.0
H1249 H 0.30141 0.90954 0.99012 0.0
C1250 C 0.24976 0.34486 0.27695 0.0
C1251 C 0.25635 0.3436 0.29388 0.0
C1252 C 0.23642 0.35547 0.27277 0.0
C1253 C 0.20223 0.38003 0.2904 0.0
H1254 H 0.21242 0.41052 0.25277 0.0
C1255 C 0.17113 0.44428 0.27995 0.0
C1256 C 0.17018 0.451 0.26334 0.0
C1257 C 0.17818 0.4286 0.28302 0.0
C1258 C 0.20904 0.4019 0.26305 0.0
H1259 H 0.2536 0.35211 0.31979 0.0
H1260 H 0.23023 0.37052 0.31249 0.0
H1261 H 0.23113 0.38772 0.25934 0.0
H1262 H 0.1741 0.446 0.23675 0.0
H1263 H 0.18546 0.41832 0.24191 0.0
H1264 H 0.18018 0.39442 0.2942 0.0
C1265 C 0.23532 0.36318 0.30248 0.0
C1266 C 0.21987 0.38883 0.26686 0.0
C1267 C 0.24873 0.35263 0.30665 0.0
C1268 C 0.17491 0.44116 0.24971 0.0
C1269 C 0.18158 0.42538 0.25271 0.0
C1270 C 0.19123 0.39307 0.28648 0.0
C1271 C 0.2293 0.36501 0.28544 0.0
C1272 C 0.21674 0.37788 0.28069 0.0
C1273 C 0.18413 0.41927 0.26948 0.0
C1274 C 0.19463 0.40432 0.27287 0.0
H1275 H 0.25508 0.33782 0.26686 0.0
H1276 H 0.23186 0.35643 0.25956 0.0
H1277 H 0.19943 0.37169 0.30107 0.0
H1278 H 0.16767 0.45168 0.29069 0.0
H1279 H 0.17998 0.42437 0.29611 0.0
C1280 C 0.13253 0.01026 0.49229 0.0
C1281 C 0.11598 0.01445 0.48614 0.0
C1282 C 0.14487 0.02287 0.49788 0.0
C1283 C 0.15 0.06729 0.51241 0.0
H1284 H 0.19655 0.06556 0.49658 0.0
C1285 C 0.19881 0.1251 0.51533 0.0
C1286 C 0.21636 0.12258 0.51934 0.0
C1287 C 0.18686 0.11134 0.51272 0.0
C1288 C 0.1837 0.06611 0.50135 0.0
H1289 H 0.09942 0.03524 0.48124 0.0
H1290 H 0.1209 0.05722 0.49112 0.0
H1291 H 0.17503 0.04258 0.48962 0.0
H1292 H 0.23499 0.10349 0.52395 0.0
H1293 H 0.21401 0.07942 0.51955 0.0
H1294 H 0.1586 0.09087 0.52403 0.0
C1295 C 0.12427 0.04414 0.49176 0.0
C1296 C 0.17135 0.05294 0.49734 0.0
C1297 C 0.11195 0.03153 0.48611 0.0
C1298 C 0.2216 0.10591 0.52083 0.0
C1299 C 0.20959 0.09211 0.51823 0.0
C1300 C 0.16235 0.08043 0.51646 0.0
C1301 C 0.14094 0.03997 0.49753 0.0
C1302 C 0.1543 0.05348 0.50265 0.0
C1303 C 0.19208 0.09467 0.51409 0.0
C1304 C 0.17929 0.08012 0.51079 0.0
H1305 H 0.13598 0.9972 0.49278 0.0
H1306 H 0.1575 0.01922 0.50251 0.0
H1307 H 0.13705 0.06795 0.51693 0.0
H1308 H 0.19427 0.13774 0.51401 0.0
H1309 H 0.17354 0.11381 0.50928 0.0
C1310 C 0.76654 0.15373 0.72081 0.0
C1311 C 0.78244 0.14789 0.71613 0.0
C1312 C 0.75253 0.14229 0.72398 0.0
C1313 C 0.73589 0.09821 0.71563 0.0
H1314 H 0.71002 0.10323 0.75626 0.0
C1315 C 0.69687 0.04271 0.74547 0.0
C1316 C 0.68092 0.04546 0.75247 0.0
C1317 C 0.70731 0.05623 0.73943 0.0
C1318 C 0.7169 0.10181 0.7447 0.0
H1319 H 0.79613 0.12539 0.71147 0.0
H1320 H 0.77175 0.10552 0.71686 0.0
H1321 H 0.73207 0.12512 0.74878 0.0
H1322 H 0.66337 0.06464 0.75855 0.0
H1323 H 0.68175 0.0884 0.74795 0.0
H1324 H 0.72104 0.07477 0.71172 0.0
C1325 C 0.77 0.11895 0.71779 0.0
C1326 C 0.72955 0.11433 0.74043 0.0
C1327 C 0.78399 0.13036 0.7147 0.0
C1328 C 0.67558 0.0621 0.75318 0.0
C1329 C 0.68612 0.0757 0.74719 0.0
C1330 C 0.72327 0.08573 0.71988 0.0
C1331 C 0.75411 0.12477 0.72246 0.0
C1332 C 0.73946 0.11246 0.72606 0.0
C1333 C 0.70214 0.07289 0.7403 0.0
C1334 C 0.71392 0.08718 0.73468 0.0
H1335 H 0.76484 0.16717 0.72181 0.0
H1336 H 0.74041 0.14716 0.72742 0.0
H1337 H 0.74306 0.09658 0.70428 0.0
H1338 H 0.70156 0.03014 0.74498 0.0
H1339 H 0.71972 0.05364 0.73453 0.0
C1340 C 0.42224 0.0468 0.51545 0.0
C1341 C 0.42743 0.03606 0.52882 0.0
C1342 C 0.40628 0.05407 0.51549 0.0
C1343 C 0.36355 0.05134 0.53543 0.0
H1344 H 0.36309 0.09828 0.52089 0.0
C1345 C 0.30777 0.09506 0.54759 0.0
C1346 C 0.30331 0.10644 0.53447 0.0
C1347 C 0.32183 0.08496 0.54612 0.0
C1348 C 0.36292 0.0851 0.52478 0.0
H1349 H 0.41983 0.02424 0.55256 0.0
H1350 H 0.392 0.03722 0.55284 0.0
H1351 H 0.3897 0.08367 0.52001 0.0
H1352 H 0.3096 0.11547 0.50916 0.0
H1353 H 0.33402 0.09784 0.50662 0.0
H1354 H 0.33674 0.05305 0.54056 0.0
C1355 C 0.40016 0.03981 0.54216 0.0
C1356 C 0.37819 0.0767 0.52426 0.0
C1357 C 0.41611 0.03241 0.54204 0.0
C1358 C 0.31275 0.10695 0.51957 0.0
C1359 C 0.32681 0.09692 0.51814 0.0
C1360 C 0.34825 0.05982 0.53605 0.0
C1361 C 0.39515 0.05092 0.52898 0.0
C1362 C 0.37872 0.05969 0.52952 0.0
C1363 C 0.33175 0.08608 0.53154 0.0
C1364 C 0.34777 0.07679 0.53067 0.0
H1365 H 0.43055 0.04959 0.50492 0.0
H1366 H 0.40269 0.06222 0.50491 0.0
H1367 H 0.36344 0.0382 0.53941 0.0
H1368 H 0.30074 0.09432 0.55922 0.0
H1369 H 0.32536 0.07678 0.55669 0.0
C1370 C 0.62624 0.49629 0.51089 0.0
C1371 C 0.61119 0.49192 0.51976 0.0
C1372 C 0.63633 0.48375 0.50489 0.0
C1373 C 0.63571 0.43872 0.49366 0.0
H1374 H 0.68435 0.44216 0.50805 0.0
C1375 C 0.67677 0.38085 0.49722 0.0
C1376 C 0.69463 0.38274 0.49471 0.0
C1377 C 0.66675 0.39491 0.49698 0.0
C1378 C 0.67091 0.44112 0.50356 0.0
H1379 H 0.59483 0.47078 0.52887 0.0
H1380 H 0.61219 0.44897 0.51798 0.0
H1381 H 0.66628 0.46547 0.51352 0.0
H1382 H 0.71583 0.40083 0.48917 0.0
H1383 H 0.69821 0.42543 0.48834 0.0
H1384 H 0.64023 0.41439 0.48372 0.0
C1385 C 0.61613 0.46214 0.5157 0.0
C1386 C 0.66054 0.45448 0.50676 0.0
C1387 C 0.60616 0.47467 0.5219 0.0
C1388 C 0.70212 0.39897 0.49125 0.0
C1389 C 0.69203 0.41307 0.49089 0.0
C1390 C 0.64611 0.42545 0.49025 0.0
C1391 C 0.63146 0.46656 0.50738 0.0
C1392 C 0.64276 0.45323 0.50222 0.0
C1393 C 0.67426 0.41125 0.49408 0.0
C1394 C 0.66375 0.42628 0.49556 0.0
H1395 H 0.63033 0.50942 0.50865 0.0
H1396 H 0.64799 0.4875 0.49835 0.0
H1397 H 0.62209 0.43755 0.4898 0.0
H1398 H 0.67055 0.36855 0.49994 0.0
H1399 H 0.65321 0.39297 0.49978 0.0
C1400 C 0.72393 0.2569 0.33296 0.0
C1401 C 0.72259 0.26717 0.31834 0.0
C1402 C 0.72592 0.26416 0.34913 0.0
C1403 C 0.71782 0.30108 0.37404 0.0
H1404 H 0.7558 0.28679 0.40352 0.0
C1405 C 0.73332 0.32886 0.44192 0.0
C1406 C 0.73896 0.31745 0.45451 0.0
C1407 C 0.73143 0.32392 0.42478 0.0
C1408 C 0.74498 0.29077 0.39557 0.0
H1409 H 0.72182 0.29301 0.3091 0.0
H1410 H 0.72497 0.30576 0.33759 0.0
H1411 H 0.75181 0.27567 0.3747 0.0
H1412 H 0.74633 0.29172 0.45908 0.0
H1413 H 0.74248 0.28301 0.42961 0.0
H1414 H 0.71058 0.31573 0.39511 0.0
C1415 C 0.72461 0.29211 0.33644 0.0
C1416 C 0.74278 0.28445 0.37903 0.0
C1417 C 0.72292 0.28484 0.3202 0.0
C1418 C 0.74224 0.30093 0.44969 0.0
C1419 C 0.74014 0.29596 0.4327 0.0
C1420 C 0.71986 0.30725 0.39074 0.0
C1421 C 0.72636 0.28182 0.35102 0.0
C1422 C 0.72907 0.28937 0.36819 0.0
C1423 C 0.73496 0.30742 0.41995 0.0
C1424 C 0.73333 0.30195 0.4018 0.0
H1425 H 0.72383 0.24325 0.33185 0.0
H1426 H 0.72713 0.25597 0.3602 0.0
H1427 H 0.70712 0.30503 0.36589 0.0
H1428 H 0.73072 0.34168 0.44524 0.0
H1429 H 0.72752 0.33311 0.41529 0.0
C1430 C 0.52402 0.98405 0.9049 0.0
C1431 C 0.51718 0.99846 0.91169 0.0
C1432 C 0.53312 0.9852 0.8899 0.0
C1433 C 0.55734 0.01656 0.86336 0.0
H1434 H 0.55514 0.97992 0.83065 0.0
C1435 C 0.59389 0.02223 0.80115 0.0
C1436 C 0.60375 0.00851 0.79742 0.0
C1437 C 0.58171 0.02078 0.81376 0.0
C1438 C 0.55593 0.99022 0.83972 0.0
H1439 H 0.51394 0.02523 0.90772 0.0
H1440 H 0.52954 0.02722 0.8814 0.0
H1441 H 0.5367 0.97798 0.85513 0.0
H1442 H 0.60796 0.98224 0.8035 0.0
H1443 H 0.58664 0.97971 0.8255 0.0
H1444 H 0.57657 0.02878 0.84798 0.0
C1445 C 0.52826 0.01509 0.88786 0.0
C1446 C 0.54541 0.9891 0.85377 0.0
C1447 C 0.51927 0.01396 0.90293 0.0
C1448 C 0.60061 0.99306 0.80607 0.0
C1449 C 0.58834 0.99159 0.81864 0.0
C1450 C 0.56775 0.01772 0.84927 0.0
C1451 C 0.53551 0.00077 0.88127 0.0
C1452 C 0.54607 0.00221 0.86585 0.0
C1453 C 0.57902 0.00554 0.82287 0.0
C1454 C 0.56727 0.00452 0.83735 0.0
H1455 H 0.52282 0.97197 0.91148 0.0
H1456 H 0.53873 0.97396 0.88538 0.0
H1457 H 0.55848 0.02675 0.87254 0.0
H1458 H 0.5959 0.03429 0.79468 0.0
H1459 H 0.57454 0.03168 0.81655 0.0
C1460 C 0.28722 0.2409 0.36052 0.0
C1461 C 0.3044 0.24352 0.35562 0.0
C1462 C 0.28285 0.22862 0.37274 0.0
C1463 C 0.30276 0.20608 0.40905 0.0
H1464 H 0.25742 0.18246 0.40965 0.0
C1465 C 0.2814 0.16688 0.46748 0.0
C1466 C 0.26544 0.17126 0.47348 0.0
C1467 C 0.28635 0.17193 0.45118 0.0
C1468 C 0.27015 0.18894 0.40963 0.0
H1469 H 0.33026 0.23465 0.35889 0.0
H1470 H 0.32259 0.21301 0.38009 0.0
H1471 H 0.26597 0.19815 0.38413 0.0
H1472 H 0.24175 0.18348 0.46665 0.0
H1473 H 0.25038 0.19224 0.43834 0.0
H1474 H 0.30678 0.19721 0.43467 0.0
C1475 C 0.31257 0.22071 0.37478 0.0
C1476 C 0.27504 0.19796 0.39504 0.0
C1477 C 0.31696 0.23308 0.36262 0.0
C1478 C 0.25418 0.17999 0.46249 0.0
C1479 C 0.25906 0.1849 0.44618 0.0
C1480 C 0.29791 0.19698 0.42358 0.0
C1481 C 0.29553 0.21859 0.38027 0.0
C1482 C 0.29122 0.20703 0.39474 0.0
C1483 C 0.27537 0.1813 0.44051 0.0
C1484 C 0.28138 0.18869 0.42419 0.0
H1485 H 0.27729 0.24889 0.35552 0.0
H1486 H 0.26966 0.22755 0.37683 0.0
H1487 H 0.31523 0.21308 0.4094 0.0
H1488 H 0.29037 0.16012 0.47559 0.0
H1489 H 0.29893 0.16885 0.44708 0.0
C1490 C 0.48714 0.48428 0.92289 0.0
C1491 C 0.50414 0.49036 0.91972 0.0
C1492 C 0.47334 0.48815 0.9117 0.0
C1493 C 0.46107 0.51574 0.87479 0.0
H1494 H 0.43162 0.4765 0.86067 0.0
C1495 C 0.4154 0.518 0.81478 0.0
C1496 C 0.4175 0.50468 0.80344 0.0
C1497 C 0.42177 0.51708 0.83176 0.0
C1498 C 0.43964 0.48762 0.86453 0.0
H1499 H 0.51979 0.50623 0.90299 0.0
H1500 H 0.49589 0.51269 0.88333 0.0
H1501 H 0.45145 0.47447 0.88547 0.0
H1502 H 0.42674 0.47948 0.80136 0.0
H1503 H 0.43779 0.47792 0.83071 0.0
H1504 H 0.45005 0.52855 0.85317 0.0
C1505 C 0.49312 0.50502 0.89449 0.0
C1506 C 0.4509 0.48652 0.87888 0.0
C1507 C 0.50689 0.50114 0.90565 0.0
C1508 C 0.42502 0.49002 0.80972 0.0
C1509 C 0.43125 0.48906 0.82663 0.0
C1510 C 0.44982 0.51684 0.86042 0.0
C1511 C 0.47623 0.49824 0.89713 0.0
C1512 C 0.46218 0.50039 0.88384 0.0
C1513 C 0.43017 0.50276 0.83774 0.0
C1514 C 0.43942 0.5026 0.85478 0.0
H1515 H 0.4846 0.47588 0.93359 0.0
H1516 H 0.46046 0.48289 0.91422 0.0
H1517 H 0.46937 0.52675 0.87844 0.0
H1518 H 0.40964 0.52946 0.81035 0.0
H1519 H 0.42058 0.52777 0.84006 0.0
C1520 C 0.7223 0.77779 0.14885 0.0
C1521 C 0.70535 0.7784 0.15441 0.0
C1522 C 0.72713 0.76385 0.13976 0.0
C1523 C 0.70849 0.73003 0.11175 0.0
H1524 H 0.75398 0.71236 0.11782 0.0
C1525 C 0.75203 0.6758 0.08156 0.0
C1526 C 0.74956 0.6798 0.06415 0.0
C1527 C 0.74541 0.68584 0.09403 0.0
C1528 C 0.74114 0.71699 0.11611 0.0
H1529 H 0.6804 0.76445 0.15538 0.0
H1530 H 0.6888 0.74021 0.13934 0.0
H1531 H 0.74513 0.73355 0.13759 0.0
H1532 H 0.73796 0.69734 0.04626 0.0
H1533 H 0.7263 0.71458 0.06788 0.0
H1534 H 0.70461 0.71369 0.09012 0.0
C1535 C 0.69828 0.75063 0.14186 0.0
C1536 C 0.73615 0.72925 0.12732 0.0
C1537 C 0.69347 0.76454 0.15101 0.0
C1538 C 0.73995 0.69374 0.05949 0.0
C1539 C 0.73322 0.70364 0.07192 0.0
C1540 C 0.71352 0.71786 0.1005 0.0
C1541 C 0.71511 0.75022 0.13597 0.0
C1542 C 0.71987 0.73611 0.12509 0.0
C1543 C 0.73605 0.69995 0.08933 0.0
C1544 C 0.73001 0.71142 0.10238 0.0
H1545 H 0.73172 0.78833 0.15103 0.0
H1546 H 0.74012 0.76403 0.13519 0.0
H1547 H 0.69592 0.73514 0.10961 0.0
H1548 H 0.75942 0.66517 0.08557 0.0
H1549 H 0.74771 0.68264 0.10736 0.0
C1550 C 0.01077 0.00562 0.11258 0.0
C1551 C 0.0101 0.01672 0.09849 0.0
C1552 C 0.99722 0.0042 0.12378 0.0
C1553 C 0.96211 0.02916 0.13835 0.0
H1554 H 0.94992 0.98829 0.16385 0.0
C1555 C 0.91263 0.02867 0.19095 0.0
C1556 C 0.91827 0.02155 0.20656 0.0
C1557 C 0.92143 0.02614 0.1761 0.0
C1558 C 0.95321 -0.00021 0.15682 0.0
H1559 H 0.99414 0.03436 0.08471 0.0
H1560 H 0.97029 0.03137 0.10382 0.0
H1561 H 0.96944 0.98711 0.14034 0.0
H1562 H 0.93725 0.00574 0.21865 0.0
H1563 H 0.95249 0.00126 0.19276 0.0
H1564 H 0.9461 0.04188 0.15496 0.0
C1565 C 0.9815 0.02408 0.10647 0.0
C1566 C 0.96441 -0.00086 0.14338 0.0
C1567 C 0.9951 0.02561 0.09535 0.0
C1568 C 0.93248 0.01132 0.20685 0.0
C1569 C 0.9412 0.0087 0.19198 0.0
C1570 C 0.95083 0.02978 0.15168 0.0
C1571 C 0.9826 0.01373 0.1211 0.0
C1572 C 0.96926 0.01389 0.13418 0.0
C1573 C 0.93598 0.01636 0.17652 0.0
C1574 C 0.9465 0.01517 0.16126 0.0
H1575 H 0.02198 0.99834 0.11523 0.0
H1576 H 0.99861 0.99617 0.13494 0.0
H1577 H 0.96577 0.04085 0.1318 0.0
H1578 H 0.90169 0.03658 0.19027 0.0
H1579 H 0.917 0.03206 0.16433 0.0
C1580 C 0.29557 0.7552 0.15426 0.0
C1581 C 0.3132 0.75598 0.1595 0.0
C1582 C 0.2893 0.76674 0.14229 0.0
C1583 C 0.30406 0.79219 0.10628 0.0
H1584 H 0.25868 0.81025 0.10704 0.0
C1585 C 0.25671 0.83558 0.06131 0.0
C1586 C 0.25737 0.82688 0.04581 0.0
C1587 C 0.26447 0.82925 0.0763 0.0
C1588 C 0.27147 0.80547 0.10675 0.0
H1589 H 0.33783 0.77021 0.15706 0.0
H1590 H 0.32688 0.79022 0.13595 0.0
H1591 H 0.2703 0.79556 0.13222 0.0
H1592 H 0.2666 0.80465 0.034 0.0
H1593 H 0.28032 0.79383 0.05998 0.0
H1594 H 0.30507 0.8017 0.0807 0.0
C1595 C 0.31798 0.78053 0.14099 0.0
C1596 C 0.27805 0.79696 0.12109 0.0
C1597 C 0.32425 0.76904 0.15304 0.0
C1598 C 0.26607 0.81183 0.04561 0.0
C1599 C 0.27396 0.80562 0.06052 0.0
C1600 C 0.29743 0.80056 0.09192 0.0
C1601 C 0.30052 0.77927 0.13523 0.0
C1602 C 0.29429 0.78998 0.12089 0.0
C1603 C 0.27318 0.8142 0.07603 0.0
C1604 C 0.28093 0.807 0.09189 0.0
H1605 H 0.28674 0.74519 0.15878 0.0
H1606 H 0.27582 0.76532 0.13794 0.0
H1607 H 0.31655 0.78682 0.10567 0.0
H1608 H 0.25006 0.84719 0.06191 0.0
H1609 H 0.26372 0.83613 0.08809 0.0
C1610 C 0.05426 0.49779 0.09466 0.0
C1611 C 0.03703 0.50246 0.09452 0.0
C1612 C 0.06428 0.49749 0.10988 0.0
C1613 C 0.06249 0.49538 0.1567 0.0
H1614 H 0.1093 0.51553 0.15512 0.0
C1615 C 0.10969 0.50419 0.21667 0.0
C1616 C 0.12707 0.501 0.21424 0.0
C1617 C 0.09769 0.50433 0.20272 0.0
C1618 C 0.09633 0.50969 0.15577 0.0
H1619 H 0.01674 0.5101 0.11045 0.0
H1620 H 0.03428 0.5094 0.13715 0.0
H1621 H 0.09028 0.51556 0.12962 0.0
H1622 H 0.14522 0.49468 0.19531 0.0
H1623 H 0.12443 0.49466 0.17133 0.0
H1624 H 0.06872 0.48935 0.1829 0.0
C1625 C 0.03996 0.50594 0.12541 0.0
C1626 C 0.08542 0.50972 0.14113 0.0
C1627 C 0.02992 0.50631 0.11012 0.0
C1628 C 0.13202 0.49745 0.19768 0.0
C1629 C 0.12009 0.49752 0.18386 0.0
C1630 C 0.07348 0.49529 0.17139 0.0
C1631 C 0.05733 0.50178 0.1254 0.0
C1632 C 0.06847 0.50236 0.14134 0.0
C1633 C 0.10286 0.50125 0.18612 0.0
C1634 C 0.09063 0.50221 0.171 0.0
H1635 H 0.06004 0.49436 0.08296 0.0
H1636 H 0.07752 0.49388 0.10951 0.0
H1637 H 0.0495 0.48957 0.15722 0.0
H1638 H 0.10544 0.50696 0.22925 0.0
H1639 H 0.08451 0.50729 0.20488 0.0
C1640 C 0.4038 0.72054 0.26064 0.0
C1641 C 0.38586 0.71827 0.26252 0.0
C1642 C 0.41488 0.72529 0.27454 0.0
C1643 C 0.41559 0.74342 0.31817 0.0
H1644 H 0.45982 0.72301 0.32279 0.0
C1645 C 0.45963 0.74673 0.37988 0.0
C1646 C 0.47745 0.75024 0.3779 0.0
C1647 C 0.44837 0.74377 0.36564 0.0
C1648 C 0.44759 0.72895 0.32158 0.0
H1649 H 0.36543 0.71922 0.28037 0.0
H1650 H 0.38479 0.72715 0.3048 0.0
H1651 H 0.44026 0.7159 0.29839 0.0
H1652 H 0.49735 0.75356 0.35934 0.0
H1653 H 0.47767 0.74824 0.33454 0.0
H1654 H 0.42288 0.75614 0.34166 0.0
C1655 C 0.3903 0.72562 0.29251 0.0
C1656 C 0.43638 0.72492 0.30757 0.0
C1657 C 0.3792 0.72103 0.27854 0.0
C1658 C 0.48371 0.75089 0.36134 0.0
C1659 C 0.47247 0.74776 0.34713 0.0
C1660 C 0.42676 0.74733 0.33228 0.0
C1661 C 0.40831 0.72772 0.29071 0.0
C1662 C 0.42024 0.73212 0.30565 0.0
C1663 C 0.4547 0.74408 0.34914 0.0
C1664 C 0.44288 0.74015 0.3341 0.0
H1665 H 0.40926 0.71876 0.24837 0.0
H1666 H 0.42861 0.72714 0.27257 0.0
H1667 H 0.40339 0.74941 0.31698 0.0
H1668 H 0.45436 0.74618 0.39244 0.0
H1669 H 0.43475 0.74084 0.36758 0.0
C1670 C 0.00946 0.43623 0.98034 0.0
C1671 C 0.99564 0.43984 0.99048 0.0
C1672 C 0.00985 0.42046 0.97251 0.0
C1673 C 0.99307 0.37626 0.97669 0.0
H1674 H 0.00755 0.37195 0.93033 0.0
C1675 C 0.99108 0.31134 0.94431 0.0
C1676 C 0.00538 0.30776 0.93483 0.0
C1677 C 0.9889 0.32781 0.94972 0.0
C1678 C 0.00363 0.37293 0.94334 0.0
H1679 H 0.97114 0.42982 -0.00013 0.0
H1680 H 0.97194 0.40226 0.98637 0.0
H1681 H 0.00575 0.40007 0.94253 0.0
H1682 H 0.0283 0.31884 0.92314 0.0
H1683 H 0.02468 0.34754 0.93287 0.0
H1684 H 0.99126 0.34923 0.97773 0.0
C1685 C 0.98257 0.41158 0.98465 0.0
C1686 C 0.00258 0.38904 0.95031 0.0
C1687 C 0.98213 0.42736 0.99242 0.0
C1688 C 0.01713 0.32116 0.9304 0.0
C1689 C 0.01501 0.33764 0.93592 0.0
C1690 C 0.99419 0.3602 0.96977 0.0
C1691 C 0.99649 0.40791 0.9747 0.0
C1692 C 0.9973 0.39087 0.96708 0.0
C1693 C 0.00103 0.3411 0.94592 0.0
C1694 C 0.99948 0.35831 0.95301 0.0
H1695 H 0.0202 0.44545 0.97876 0.0
H1696 H 0.02087 0.41794 0.96511 0.0
H1697 H 0.98925 0.37724 0.98974 0.0
H1698 H 0.98165 0.30137 0.94779 0.0
H1699 H 0.97778 0.33008 0.95705 0.0
C1700 C 0.62531 0.8257 0.25266 0.0
C1701 C 0.64316 0.82344 0.25243 0.0
C1702 C 0.61609 0.82137 0.26714 0.0
C1703 C 0.61806 0.79491 0.30608 0.0
H1704 H 0.58309 0.82363 0.32134 0.0
C1705 C 0.58618 0.78345 0.37026 0.0
C1706 C 0.56816 0.7846 0.37045 0.0
C1707 C 0.59526 0.78886 0.35604 0.0
C1708 C 0.5927 0.8154 0.31714 0.0
H1709 H 0.66539 0.81524 0.26737 0.0
H1710 H 0.64933 0.80772 0.29263 0.0
H1711 H 0.59911 0.83171 0.29614 0.0
H1712 H 0.54558 0.79269 0.35596 0.0
H1713 H 0.56146 0.80206 0.33104 0.0
H1714 H 0.61167 0.77859 0.32704 0.0
C1715 C 0.64239 0.81256 0.28151 0.0
C1716 C 0.60187 0.82002 0.3027 0.0
C1717 C 0.6516 0.81686 0.26704 0.0
C1718 C 0.55946 0.79165 0.35623 0.0
C1719 C 0.56857 0.79708 0.34198 0.0
C1720 C 0.60892 0.79031 0.32051 0.0
C1721 C 0.62452 0.8147 0.28172 0.0
C1722 C 0.61469 0.80984 0.29703 0.0
C1723 C 0.58654 0.79555 0.34165 0.0
C1724 C 0.59616 0.80052 0.32624 0.0
H1725 H 0.61839 0.83052 0.24153 0.0
H1726 H 0.6023 0.82295 0.26678 0.0
H1727 H 0.62762 0.78661 0.30188 0.0
H1728 H 0.59331 0.77818 0.38103 0.0
H1729 H 0.60914 0.78779 0.35631 0.0
C1730 C 0.03721 0.09509 0.99856 0.0
C1731 C 0.04978 0.0973 0.01199 0.0
C1732 C 0.03252 0.10889 0.98845 0.0
C1733 C 0.03393 0.15574 0.98876 0.0
H1734 H 0.02788 0.15164 0.93961 0.0
C1735 C 0.03592 0.20239 0.92674 0.0
C1736 C 0.02694 0.21581 0.93289 0.0
C1737 C 0.03591 0.18692 0.93547 0.0
C1738 C 0.02954 0.15299 0.95332 0.0
H1739 H 0.06769 0.11559 0.02496 0.0
H1740 H 0.05963 0.13953 0.00736 0.0
H1741 H 0.03399 0.12671 0.9569 0.0
H1742 H 0.01013 0.22318 0.95253 0.0
H1743 H 0.00974 0.19611 0.9675 0.0
H1744 H 0.03029 0.18208 0.98524 0.0
C1745 C 0.05306 0.12726 0.00486 0.0
C1746 C 0.03287 0.13867 0.96324 0.0
C1747 C 0.0577 0.11353 0.01494 0.0
C1748 C 0.01724 0.21315 0.94747 0.0
C1749 C 0.01713 0.19765 0.95614 0.0
C1750 C 0.03066 0.17003 0.97887 0.0
C1751 C 0.04033 0.12515 0.99157 0.0
C1752 C 0.03541 0.13996 0.98105 0.0
C1753 C 0.02684 0.1845 0.95052 0.0
C1754 C 0.02868 0.1689 0.961 0.0
H1755 H 0.03078 0.08276 0.99606 0.0
H1756 H 0.02258 0.10687 0.97839 0.0
H1757 H 0.03553 0.15713 0.00247 0.0
H1758 H 0.04353 0.20402 0.91553 0.0
H1759 H 0.04368 0.17715 0.93085 0.0
C1760 C 0.35545 0.29149 0.23482 0.0
C1761 C 0.36292 0.29055 0.25144 0.0
C1762 C 0.36502 0.2881 0.2207 0.0
C1763 C 0.40993 0.2856 0.2071 0.0
H1764 H 0.3878 0.25931 0.16981 0.0
C1765 C 0.44779 0.25879 0.15235 0.0
C1766 C 0.43998 0.25911 0.13582 0.0
C1767 C 0.43873 0.26346 0.16642 0.0
C1768 C 0.39412 0.26685 0.18002 0.0
H1769 H 0.38624 0.28503 0.26625 0.0
H1770 H 0.40292 0.27905 0.24163 0.0
H1771 H 0.37127 0.26562 0.19439 0.0
H1772 H 0.41675 0.26512 0.12108 0.0
H1773 H 0.40108 0.2734 0.14556 0.0
H1774 H 0.43283 0.28672 0.19272 0.0
C1775 C 0.38975 0.2827 0.23949 0.0
C1776 C 0.38464 0.27047 0.19412 0.0
C1777 C 0.38018 0.28612 0.25361 0.0
C1778 C 0.42312 0.26462 0.13364 0.0
C1779 C 0.41407 0.26927 0.14769 0.0
C1780 C 0.41943 0.28197 0.19299 0.0
C1781 C 0.38229 0.28365 0.22286 0.0
C1782 C 0.39241 0.27989 0.20784 0.0
C1783 C 0.42167 0.26853 0.16428 0.0
C1784 C 0.41163 0.27256 0.17927 0.0
H1785 H 0.34227 0.29514 0.23269 0.0
H1786 H 0.35895 0.28919 0.20806 0.0
H1787 H 0.41624 0.29309 0.21735 0.0
H1788 H 0.46076 0.2546 0.15447 0.0
H1789 H 0.44491 0.26263 0.17904 0.0
C1790 C 0.52552 0.405 0.01961 0.0
C1791 C 0.54239 0.40829 0.01401 0.0
C1792 C 0.52134 0.39037 0.0291 0.0
C1793 C 0.53422 0.34718 0.03419 0.0
H1794 H 0.50753 0.34545 0.07486 0.0
C1795 C 0.52134 0.2843 0.06916 0.0
C1796 C 0.50486 0.2808 0.07554 0.0
C1797 C 0.52644 0.30057 0.06364 0.0
C1798 C 0.51482 0.34569 0.06341 0.0
H1799 H 0.56817 0.39902 0.01426 0.0
H1800 H 0.56084 0.37351 0.03074 0.0
H1801 H 0.51526 0.37281 0.06155 0.0
H1802 H 0.48096 0.29174 0.08168 0.0
H1803 H 0.48959 0.32012 0.07142 0.0
H1804 H 0.53335 0.32023 0.03545 0.0
C1805 C 0.55088 0.38225 0.02782 0.0
C1806 C 0.51929 0.36136 0.05585 0.0
C1807 C 0.5551 0.39693 0.01852 0.0
C1808 C 0.49377 0.29408 0.07684 0.0
C1809 C 0.49876 0.31037 0.07102 0.0
C1810 C 0.52959 0.33156 0.04157 0.0
C1811 C 0.5339 0.37868 0.03295 0.0
C1812 C 0.52913 0.36224 0.04122 0.0
C1813 C 0.51506 0.31373 0.06403 0.0
C1814 C 0.51993 0.33057 0.05635 0.0
H1815 H 0.51549 0.41359 0.0164 0.0
H1816 H 0.50813 0.38787 0.03283 0.0
H1817 H 0.54151 0.34745 0.02272 0.0
H1818 H 0.5303 0.27439 0.06827 0.0
H1819 H 0.53928 0.30276 0.05885 0.0
C1820 C 0.64038 0.23979 0.20736 0.0
C1821 C 0.64628 0.22583 0.21665 0.0
C1822 C 0.62447 0.2386 0.19822 0.0
C1823 C 0.59341 0.20743 0.17755 0.0
H1824 H 0.56419 0.2455 0.17413 0.0
C1825 C 0.52484 0.22781 0.14206 0.0
C1826 C 0.5275 0.22225 0.12545 0.0
C1827 C 0.53788 0.22692 0.15494 0.0
C1828 C 0.57206 0.23466 0.17512 0.0
H1829 H 0.6398 0.1998 0.22397 0.0
H1830 H 0.61198 0.1977 0.20792 0.0
H1831 H 0.58941 0.2467 0.19396 0.0
H1832 H 0.54586 0.21094 0.10955 0.0
H1833 H 0.5685 0.20953 0.13187 0.0
H1834 H 0.57612 0.19544 0.15863 0.0
C1835 C 0.6198 0.20951 0.20759 0.0
C1836 C 0.58663 0.23542 0.18634 0.0
C1837 C 0.63574 0.21071 0.21676 0.0
C1838 C 0.54333 0.21538 0.12216 0.0
C1839 C 0.5563 0.21444 0.13502 0.0
C1840 C 0.57886 0.20669 0.16631 0.0
C1841 C 0.61404 0.22341 0.1981 0.0
C1842 C 0.59765 0.22195 0.18745 0.0
C1843 C 0.55382 0.22036 0.1515 0.0
C1844 C 0.5682 0.22042 0.16472 0.0
H1845 H 0.64829 0.25153 0.20672 0.0
H1846 H 0.62059 0.24944 0.1908 0.0
H1847 H 0.60168 0.19688 0.178 0.0
H1848 H 0.5128 0.23314 0.14507 0.0
H1849 H 0.53552 0.23145 0.16756 0.0
C1850 C 0.46458 0.06889 0.01404 0.0
C1851 C 0.47877 0.05899 0.01762 0.0
C1852 C 0.46345 0.08442 0.02215 0.0
C1853 C 0.48001 0.10926 0.05977 0.0
H1854 H 0.466 0.14759 0.0325 0.0
C1855 C 0.48062 0.18668 0.06411 0.0
C1856 C 0.47366 0.18866 0.08015 0.0
C1857 C 0.48103 0.17064 0.05693 0.0
C1858 C 0.47002 0.13703 0.04028 0.0
H1859 H 0.50299 0.05775 0.03248 0.0
H1860 H 0.50097 0.08479 0.04667 0.0
H1861 H 0.46709 0.11999 0.01917 0.0
H1862 H 0.46177 0.17533 0.1013 0.0
H1863 H 0.46245 0.14724 0.0887 0.0
H1864 H 0.48322 0.12642 0.08082 0.0
C1865 C 0.49059 0.08043 0.03775 0.0
C1866 C 0.47046 0.12118 0.03268 0.0
C1867 C 0.49174 0.06493 0.02961 0.0
C1868 C 0.46725 0.17421 0.08893 0.0
C1869 C 0.46771 0.15813 0.08176 0.0
C1870 C 0.4795 0.12512 0.06739 0.0
C1871 C 0.47648 0.09039 0.03405 0.0
C1872 C 0.47555 0.10712 0.0423 0.0
C1873 C 0.47449 0.15619 0.06561 0.0
C1874 C 0.47461 0.13921 0.0577 0.0
H1875 H 0.45422 0.06457 0.00509 0.0
H1876 H 0.45229 0.09169 0.01921 0.0
H1877 H 0.48383 0.09864 0.06756 0.0
H1878 H 0.48558 0.19754 0.05696 0.0
H1879 H 0.48654 0.16955 0.04457 0.0
C1880 C 0.24643 0.40226 0.71428 0.0
C1881 C 0.24871 0.38526 0.71035 0.0
C1882 C 0.26072 0.41351 0.71796 0.0
C1883 C 0.30778 0.41948 0.71208 0.0
H1884 H 0.30657 0.452 0.74865 0.0
C1885 C 0.36876 0.45887 0.73649 0.0
C1886 C 0.36708 0.47608 0.74002 0.0
C1887 C 0.35416 0.44802 0.73296 0.0
C1888 C 0.30704 0.44312 0.73827 0.0
H1889 H 0.2678 0.36668 0.70753 0.0
H1890 H 0.29272 0.38627 0.71399 0.0
H1891 H 0.28143 0.43257 0.74236 0.0
H1892 H 0.34858 0.4953 0.7427 0.0
H1893 H 0.32308 0.47633 0.73643 0.0
H1894 H 0.33339 0.42997 0.70802 0.0
C1895 C 0.27989 0.39099 0.71394 0.0
C1896 C 0.29263 0.43199 0.73467 0.0
C1897 C 0.26561 0.37975 0.71025 0.0
C1898 C 0.35038 0.48213 0.74006 0.0
C1899 C 0.33574 0.47124 0.73655 0.0
C1900 C 0.32217 0.43059 0.7157 0.0
C1901 C 0.27762 0.40801 0.7178 0.0
C1902 C 0.29285 0.41999 0.72156 0.0
C1903 C 0.33748 0.45408 0.73288 0.0
C1904 C 0.32201 0.4425 0.72888 0.0
H1905 H 0.23359 0.40697 0.71422 0.0
H1906 H 0.25852 0.42659 0.72063 0.0
H1907 H 0.30827 0.41062 0.7017 0.0
H1908 H 0.38139 0.45373 0.7364 0.0
H1909 H 0.35593 0.43482 0.73044 0.0
C1910 C 0.26631 0.65697 0.76647 0.0
C1911 C 0.25553 0.66012 0.75204 0.0
C1912 C 0.27654 0.643 0.76699 0.0
C1913 C 0.29589 0.61346 0.73809 0.0
H1914 H 0.3053 0.5881 0.77966 0.0
C1915 C 0.33513 0.55429 0.73774 0.0
C1916 C 0.34844 0.55333 0.75044 0.0
C1917 C 0.32264 0.56617 0.73884 0.0
C1918 C 0.30286 0.59514 0.76798 0.0
H1919 H 0.24641 0.65066 0.72719 0.0
H1920 H 0.26401 0.62615 0.72818 0.0
H1921 H 0.28541 0.61092 0.77982 0.0
H1922 H 0.35859 0.56363 0.77466 0.0
H1923 H 0.33673 0.58446 0.77655 0.0
H1924 H 0.31331 0.59775 0.72625 0.0
C1925 C 0.26493 0.6347 0.73893 0.0
C1926 C 0.29149 0.60823 0.76807 0.0
C1927 C 0.25481 0.64872 0.73837 0.0
C1928 C 0.34853 0.56406 0.76465 0.0
C1929 C 0.33597 0.57595 0.76577 0.0
C1930 C 0.30715 0.60035 0.73799 0.0
C1931 C 0.27616 0.6318 0.75312 0.0
C1932 C 0.28789 0.61757 0.75311 0.0
C1933 C 0.32311 0.57738 0.75268 0.0
C1934 C 0.31079 0.59104 0.75292 0.0
H1935 H 0.26727 0.66564 0.77714 0.0
H1936 H 0.28517 0.6413 0.77804 0.0
H1937 H 0.29376 0.6206 0.72643 0.0
H1938 H 0.33456 0.54613 0.72669 0.0
H1939 H 0.31272 0.56675 0.7287 0.0
C1940 C 0.91599 0.43027 0.49063 0.0
C1941 C 0.91613 0.4478 0.48753 0.0
C1942 C 0.90041 0.42074 0.49247 0.0
C1943 C 0.85325 0.42061 0.48313 0.0
H1944 H 0.85182 0.38612 0.51855 0.0
C1945 C 0.79034 0.38086 0.49935 0.0
C1946 C 0.79211 0.36344 0.50213 0.0
C1947 C 0.80498 0.39198 0.49781 0.0
C1948 C 0.85203 0.3956 0.50851 0.0
H1949 H 0.89992 0.46903 0.48376 0.0
H1950 H 0.87263 0.45233 0.48695 0.0
H1951 H 0.87821 0.40393 0.51522 0.0
H1952 H 0.81076 0.34412 0.50532 0.0
H1953 H 0.83607 0.36341 0.50252 0.0
H1954 H 0.82703 0.41213 0.47639 0.0
C1955 C 0.88462 0.44596 0.48782 0.0
C1956 C 0.86717 0.40581 0.50659 0.0
C1957 C 0.90025 0.45552 0.48598 0.0
C1958 C 0.80884 0.35744 0.50326 0.0
C1959 C 0.82341 0.36853 0.50176 0.0
C1960 C 0.83806 0.41037 0.48506 0.0
C1961 C 0.88454 0.42848 0.49125 0.0
C1962 C 0.86806 0.41827 0.49373 0.0
C1963 C 0.82169 0.38594 0.49909 0.0
C1964 C 0.83737 0.39759 0.49763 0.0
H1965 H 0.92796 0.42386 0.49155 0.0
H1966 H 0.90079 0.40724 0.49473 0.0
H1967 H 0.85355 0.43001 0.47302 0.0
H1968 H 0.77766 0.38593 0.49841 0.0
H1969 H 0.80323 0.40535 0.49586 0.0
C1970 C 0.75499 0.85165 0.77918 0.0
C1971 C 0.7581 0.8446 0.79546 0.0
C1972 C 0.74098 0.86169 0.77597 0.0
C1973 C 0.71362 0.8897 0.79801 0.0
H1974 H 0.68841 0.89022 0.75418 0.0
C1975 C 0.66933 0.94353 0.78008 0.0
C1976 C 0.67317 0.95112 0.76432 0.0
C1977 C 0.67522 0.92756 0.78435 0.0
C1978 C 0.69529 0.8902 0.76651 0.0
H1979 H 0.74833 0.84192 0.8209 0.0
H1980 H 0.72397 0.85965 0.81531 0.0
H1981 H 0.70765 0.86755 0.7609 0.0
H1982 H 0.68493 0.94735 0.74017 0.0
H1983 H 0.69514 0.91977 0.74756 0.0
H1984 H 0.7019 0.91273 0.80334 0.0
C1985 C 0.73252 0.85753 0.8051 0.0
C1986 C 0.70633 0.87724 0.77034 0.0
C1987 C 0.74651 0.84742 0.8083 0.0
C1988 C 0.68188 0.94193 0.75248 0.0
C1989 C 0.68763 0.92601 0.75668 0.0
C1990 C 0.70261 0.90268 0.79416 0.0
C1991 C 0.72974 0.86498 0.78896 0.0
C1992 C 0.71603 0.87714 0.78592 0.0
C1993 C 0.68487 0.91885 0.77285 0.0
C1994 C 0.69375 0.90339 0.77815 0.0
H1995 H 0.76376 0.84996 0.76906 0.0
H1996 H 0.73938 0.86746 0.76347 0.0
H1997 H 0.72101 0.89007 0.81007 0.0
H1998 H 0.66263 0.95028 0.78946 0.0
H1999 H 0.67273 0.92229 0.79684 0.0
C2000 C 0.63425 0.51209 0.9915 0.0
C2001 C 0.61703 0.51594 0.98756 0.0
C2002 C 0.64666 0.5248 0.99668 0.0
C2003 C 0.65171 0.56841 0.01379 0.0
H2004 H 0.69673 0.56904 0.99403 0.0
C2005 C 0.69921 0.62734 0.01565 0.0
C2006 C 0.71701 0.62508 0.01835 0.0
C2007 C 0.68738 0.61342 0.01336 0.0
C2008 C 0.68433 0.56891 -0.00013 0.0
H2009 H 0.59936 0.53616 0.98608 0.0
H2010 H 0.62102 0.55834 0.9951 0.0
H2011 H 0.67532 0.54588 0.98737 0.0
H2012 H 0.73623 0.60629 0.02098 0.0
H2013 H 0.71549 0.58196 0.01704 0.0
H2014 H 0.66064 0.59157 0.02609 0.0
C2015 C 0.62488 0.54545 0.99441 0.0
C2016 C 0.67204 0.55564 0.99605 0.0
C2017 C 0.61245 0.53274 0.98923 0.0
C2018 C 0.72264 0.60851 0.0189 0.0
C2019 C 0.71077 0.59456 0.01655 0.0
C2020 C 0.66399 0.58168 0.0176 0.0
C2021 C 0.64216 0.54166 0.99806 0.0
C2022 C 0.65552 0.55532 0.00282 0.0
C2023 C 0.69301 0.59687 0.01368 0.0
C2024 C 0.68038 0.58219 0.01053 0.0
H2025 H 0.63813 0.49922 0.99063 0.0
H2026 H 0.65979 0.5214 -0.00034 0.0
H2027 H 0.63923 0.5684 0.01947 0.0
H2028 H 0.69437 0.63989 0.01513 0.0
H2029 H 0.67384 0.61567 0.01094 0.0
C2030 C 0.26319 0.65466 0.22633 0.0
C2031 C 0.27723 0.64919 0.21755 0.0
C2032 C 0.24922 0.64333 0.22997 0.0
C2033 C 0.22866 0.60136 0.21725 0.0
H2034 H 0.20917 0.60174 0.2619 0.0
C2035 C 0.19227 0.54354 0.24602 0.0
C2036 C 0.17703 0.54582 0.25455 0.0
C2037 C 0.20239 0.55743 0.2403 0.0
C2038 C 0.21429 0.60166 0.24928 0.0
H2039 H 0.28784 0.62749 0.20609 0.0
H2040 H 0.26372 0.60775 0.2126 0.0
H2041 H 0.23111 0.62371 0.25436 0.0
H2042 H 0.16051 0.56459 0.26381 0.0
H2043 H 0.17852 0.58901 0.25399 0.0
H2044 H 0.21232 0.57894 0.21244 0.0
C2045 C 0.26319 0.62086 0.21628 0.0
C2046 C 0.22685 0.61424 0.24494 0.0
C2047 C 0.27707 0.63217 0.2126 0.0
C2048 C 0.17214 0.56239 0.2572 0.0
C2049 C 0.18245 0.57636 0.25165 0.0
C2050 C 0.21623 0.58874 0.22163 0.0
C2051 C 0.24905 0.62629 0.22495 0.0
C2052 C 0.23447 0.61401 0.22901 0.0
C2053 C 0.19768 0.57398 0.24315 0.0
C2054 C 0.20919 0.58856 0.23781 0.0
H2055 H 0.26288 0.66775 0.23016 0.0
H2056 H 0.23848 0.64797 0.23652 0.0
H2057 H 0.23392 0.60103 0.20471 0.0
H2058 H 0.19664 0.53104 0.24401 0.0
H2059 H 0.21423 0.55522 0.23405 0.0
C2060 C 0.9152 0.53925 0.01669 0.0
C2061 C 0.92347 0.53333 0.0317 0.0
C2062 C 0.89951 0.547 0.01731 0.0
C2063 C 0.8734 0.56925 0.0473 0.0
H2064 H 0.83781 0.56411 0.01101 0.0
C2065 C 0.80873 0.60092 0.05057 0.0
C2066 C 0.80343 0.60981 0.03585 0.0
C2067 C 0.82212 0.58992 0.05008 0.0
C2068 C 0.84767 0.56571 0.0212 0.0
H2069 H 0.92145 0.53027 0.05902 0.0
H2070 H 0.89393 0.54355 0.06011 0.0
H2071 H 0.8635 0.54777 0.01028 0.0
H2072 H 0.80757 0.61355 0.00887 0.0
H2073 H 0.83096 0.59431 0.00803 0.0
H2074 H 0.85762 0.58722 0.05817 0.0
C2075 C 0.89975 0.54258 0.04789 0.0
C2076 C 0.86241 0.55639 0.02077 0.0
C2077 C 0.9155 0.53493 0.04728 0.0
C2078 C 0.81137 0.60693 0.02046 0.0
C2079 C 0.82471 0.59584 0.01995 0.0
C2080 C 0.85864 0.57848 0.04777 0.0
C2081 C 0.89167 0.54893 0.03295 0.0
C2082 C 0.87554 0.55815 0.03376 0.0
C2083 C 0.83046 0.58746 0.03483 0.0
C2084 C 0.84567 0.57692 0.03466 0.0
H2085 H 0.92114 0.5384 0.00452 0.0
H2086 H 0.89382 0.55197 0.00559 0.0
H2087 H 0.88336 0.57119 0.05735 0.0
H2088 H 0.80284 0.60277 0.06263 0.0
H2089 H 0.8261 0.58345 0.0617 0.0
C2090 C 0.10456 0.96881 0.02237 0.0
C2091 C 0.10944 0.98606 0.02001 0.0
C2092 C 0.11428 0.9563 0.01574 0.0
C2093 C 0.15846 0.94941 0.00467 0.0
H2094 H 0.138 0.90779 0.98469 0.0
C2095 C 0.20078 0.89488 0.98816 0.0
C2096 C 0.19437 0.87863 0.99301 0.0
C2097 C 0.19009 0.90852 0.98797 0.0
C2098 C 0.14393 0.9193 0.99033 0.0
H2099 H 0.12783 0.00362 0.00793 0.0
H2100 H 0.14497 0.98174 0.9967 0.0
H2101 H 0.11956 0.93068 0.99094 0.0
H2102 H 0.17151 0.86386 0.00085 0.0
H2103 H 0.15312 0.88755 0.00091 0.0
H2104 H 0.18269 0.93787 0.00482 0.0
C2105 C 0.13371 0.97795 0.00383 0.0
C2106 C 0.13335 0.93241 0.99387 0.0
C2107 C 0.12391 0.99047 0.01032 0.0
C2108 C 0.1769 0.8762 0.99705 0.0
C2109 C 0.16627 0.88981 0.99695 0.0
C2110 C 0.16901 0.93625 0.00128 0.0
C2111 C 0.12915 0.96075 0.0067 0.0
C2112 C 0.14047 0.94749 0.00134 0.0
C2113 C 0.17278 0.90621 0.99269 0.0
C2114 C 0.16184 0.92089 0.99438 0.0
H2115 H 0.09364 0.96493 0.02993 0.0
H2116 H 0.11056 0.94314 0.01833 0.0
H2117 H 0.1643 0.96081 0.01061 0.0
H2118 H 0.21416 0.89714 0.98487 0.0
H2119 H 0.19547 0.92093 0.98435 0.0
loop_
_geom_bond_atom_site_label_1
_geom_bond_atom_site_label_2
_geom_bond_distance
_geom_bond_site_symmetry_2
_ccdc_geom_bond_type
P0 O11 1.490 . S
P0 C14 1.812 . S
P0 C20 1.803 . S
P0 C26 1.819 . S
H1 C15 0.941 . S
H2 C16 0.939 . S
H3 C18 0.940 1_655 S
H4 C19 0.940 . S
H5 C21 0.939 . S
H6 C22 0.942 . S
H7 C24 0.940 1_565 S
H8 C25 0.939 . S
H9 C27 0.941 . S
H10 C31 0.939 . S
O11 P0 1.490 . S
H12 C28 0.939 . S
H13 C30 0.948 . S
C14 P0 1.812 . S
C14 C15 1.389 . S
C14 C19 1.391 . S
C15 H1 0.941 . S
C15 C14 1.389 . S
C15 C16 1.397 . S
C16 H2 0.939 . S
C16 C15 1.397 . S
C16 C17 1.378 . S
C17 C16 1.378 . S
C17 C18 1.378 . S
C18 H3 0.940 1_455 S
C18 C17 1.378 . S
C18 C19 1.396 . S
C19 H4 0.940 . S
C19 C14 1.391 . S
C19 C18 1.396 . S
C20 P0 1.803 . S
C20 C21 1.378 . S
C20 C25 1.400 . S
C21 H5 0.939 . S
C21 C20 1.378 . S
C21 C22 1.361 . S
C22 H6 0.942 . S
C22 C21 1.361 . S
C22 C23 1.369 . S
C23 C22 1.369 . S
C23 C24 1.404 . S
C24 H7 0.940 1_545 S
C24 C23 1.404 . S
C24 C25 1.389 . S
C25 H8 0.939 . S
C25 C20 1.400 . S
C25 C24 1.389 . S
C26 P0 1.819 . S
C26 C27 1.391 . S
C26 C31 1.391 . S
C27 H9 0.941 . S
C27 C26 1.391 . S
C27 C28 1.396 . S
C28 H12 0.939 . S
C28 C27 1.396 . S
C28 C29 1.397 . S
C29 C28 1.397 . S
C29 C30 1.383 1_554 S
C30 H13 0.948 . S
C30 C29 1.383 1_556 S
C30 C31 1.382 1_556 S
C31 H10 0.939 . S
C31 C26 1.391 . S
C31 C30 1.382 1_554 S
P32 O43 1.490 . S
P32 C46 1.812 . S
P32 C52 1.803 . S
P32 C58 1.819 . S
H33 C47 0.941 . S
H34 C48 0.939 . S
H35 C50 0.940 . S
H36 C51 0.940 . S
H37 C53 0.939 . S
H38 C54 0.942 . S
H39 C56 0.940 . S
H40 C57 0.939 . S
H41 C59 0.941 . S
H42 C63 0.939 . S
O43 P32 1.490 . S
H44 C60 0.939 . S
H45 C62 0.940 . S
C46 P32 1.812 . S
C46 C47 1.389 . S
C46 C51 1.391 . S
C47 H33 0.941 . S
C47 C46 1.389 . S
C47 C48 1.397 . S
C48 H34 0.939 . S
C48 C47 1.397 . S
C48 C49 1.378 . S
C49 C48 1.378 . S
C49 C50 1.378 . S
C50 H35 0.940 . S
C50 C49 1.378 . S
C50 C51 1.396 . S
C51 H36 0.940 . S
C51 C46 1.391 . S
C51 C50 1.396 . S
C52 P32 1.803 . S
C52 C53 1.378 . S
C52 C57 1.400 . S
C53 H37 0.939 . S
C53 C52 1.378 . S
C53 C54 1.361 . S
C54 H38 0.942 . S
C54 C53 1.361 . S
C54 C55 1.369 . S
C55 C54 1.369 . S
C55 C56 1.404 . S
C56 H39 0.940 . S
C56 C55 1.404 . S
C56 C57 1.389 . S
C57 H40 0.939 . S
C57 C52 1.400 . S
C57 C56 1.389 . S
C58 P32 1.819 . S
C58 C59 1.391 . S
C58 C63 1.391 . S
C59 H41 0.941 . S
C59 C58 1.391 . S
C59 C60 1.396 . S
C60 H44 0.939 . S
C60 C59 1.396 . S
C60 C61 1.397 . S
C61 C60 1.397 . S
C61 C62 1.385 . S
C62 H45 0.940 . S
C62 C61 1.385 . S
C62 C63 1.388 . S
C63 H42 0.939 . S
C63 C58 1.391 . S
C63 C62 1.388 . S
P64 O75 1.490 1_655 S
P64 C78 1.812 . S
P64 C84 1.803 . S
P64 C90 1.819 1_655 S
H65 C79 0.918 1_556 S
H66 C80 0.939 . S
H67 C82 0.940 . S
H68 C83 0.940 . S
H69 C85 0.939 . S
H70 C86 0.942 . S
H71 C88 0.940 . S
H72 C89 0.939 . S
H73 C91 0.941 . S
H74 C95 0.939 . S
O75 P64 1.490 1_455 S
H76 C92 0.939 . S
H77 C94 0.940 . S
C78 P64 1.812 . S
C78 C79 1.389 . S
C78 C83 1.391 . S
C79 H65 0.918 1_554 S
C79 C78 1.389 . S
C79 C80 1.397 1_554 S
C80 H66 0.939 . S
C80 C79 1.397 1_556 S
C80 C81 1.378 1_556 S
C81 C80 1.378 1_554 S
C81 C82 1.378 . S
C82 H67 0.940 . S
C82 C81 1.378 . S
C82 C83 1.396 . S
C83 H68 0.940 . S
C83 C78 1.391 . S
C83 C82 1.396 . S
C84 P64 1.803 . S
C84 C85 1.378 . S
C84 C89 1.400 . S
C85 H69 0.939 . S
C85 C84 1.378 . S
C85 C86 1.361 . S
C86 H70 0.942 . S
C86 C85 1.361 . S
C86 C87 1.369 . S
C87 C86 1.369 . S
C87 C88 1.404 . S
C88 H71 0.940 . S
C88 C87 1.404 . S
C88 C89 1.389 . S
C89 H72 0.939 . S
C89 C84 1.400 . S
C89 C88 1.389 . S
C90 P64 1.819 1_455 S
C90 C91 1.391 . S
C90 C95 1.391 1_455 S
C91 H73 0.941 . S
C91 C90 1.391 . S
C91 C92 1.396 . S
C92 H76 0.939 . S
C92 C91 1.396 . S
C92 C93 1.397 . S
C93 C92 1.397 . S
C93 C94 1.385 1_455 S
C94 H77 0.940 . S
C94 C93 1.385 1_655 S
C94 C95 1.388 . S
C95 H74 0.939 . S
C95 C90 1.391 1_655 S
C95 C94 1.388 . S
P96 O107 1.490 . S
P96 C110 1.812 . S
P96 C116 1.803 . S
P96 C122 1.819 . S
H97 C111 0.941 . S
H98 C112 0.939 . S
H99 C114 0.940 . S
H100 C115 0.940 . S
H101 C117 0.939 . S
H102 C118 0.942 . S
H103 C120 0.940 . S
H104 C121 0.939 . S
H105 C123 0.941 . S
H106 C127 0.939 . S
O107 P96 1.490 . S
H108 C124 0.939 . S
H109 C126 0.940 . S
C110 P96 1.812 . S
C110 C111 1.389 . S
C110 C115 1.391 . S
C111 H97 0.941 . S
C111 C110 1.389 . S
C111 C112 1.397 . S
C112 H98 0.939 . S
C112 C111 1.397 . S
C112 C113 1.378 . S
C113 C112 1.378 . S
C113 C114 1.378 . S
C114 H99 0.940 . S
C114 C113 1.378 . S
C114 C115 1.396 . S
C115 H100 0.940 . S
C115 C110 1.391 . S
C115 C114 1.396 . S
C116 P96 1.803 . S
C116 C117 1.378 . S
C116 C121 1.400 . S
C117 H101 0.939 . S
C117 C116 1.378 . S
C117 C118 1.361 . S
C118 H102 0.942 . S
C118 C117 1.361 . S
C118 C119 1.369 . S
C119 C118 1.369 . S
C119 C120 1.404 . S
C120 H103 0.940 . S
C120 C119 1.404 . S
C120 C121 1.389 . S
C121 H104 0.939 . S
C121 C116 1.400 . S
C121 C120 1.389 . S
C122 P96 1.819 . S
C122 C123 1.391 . S
C122 C127 1.391 . S
C123 H105 0.941 . S
C123 C122 1.391 . S
C123 C124 1.396 . S
C124 H108 0.939 . S
C124 C123 1.396 . S
C124 C125 1.397 . S
C125 C124 1.397 . S
C125 C126 1.385 . S
C126 H109 0.940 . S
C126 C125 1.385 . S
C126 C127 1.388 . S
C127 H106 0.939 . S
C127 C122 1.391 . S
C127 C126 1.388 . S
P128 O139 1.490 . S
P128 C142 1.812 . S
P128 C148 1.803 . S
P128 C154 1.819 . S
H129 C143 0.941 . S
H130 C144 0.939 . S
H131 C146 0.940 . S
H132 C147 0.940 . S
H133 C149 0.939 . S
H134 C150 0.942 . S
H135 C152 0.940 . S
H136 C153 0.939 . S
H137 C155 0.941 . S
H138 C159 0.939 . S
O139 P128 1.490 . S
H140 C156 0.939 . S
H141 C158 0.940 . S
C142 P128 1.812 . S
C142 C143 1.389 . S
C142 C147 1.391 . S
C143 H129 0.941 . S
C143 C142 1.389 . S
C143 C144 1.397 . S
C144 H130 0.939 . S
C144 C143 1.397 . S
C144 C145 1.378 1_565 S
C145 C144 1.378 1_545 S
C145 C146 1.378 . S
C146 H131 0.940 . S
C146 C145 1.378 . S
C146 C147 1.396 1_545 S
C147 H132 0.940 . S
C147 C142 1.391 . S
C147 C146 1.396 1_565 S
C148 P128 1.803 . S
C148 C149 1.378 . S
C148 C153 1.400 . S
C149 H133 0.939 . S
C149 C148 1.378 . S
C149 C150 1.361 . S
C150 H134 0.942 . S
C150 C149 1.361 . S
C150 C151 1.369 . S
C151 C150 1.369 . S
C151 C152 1.404 . S
C152 H135 0.940 . S
C152 C151 1.404 . S
C152 C153 1.389 . S
C153 H136 0.939 . S
C153 C148 1.400 . S
C153 C152 1.389 . S
C154 P128 1.819 . S
C154 C155 1.391 . S
C154 C159 1.391 . S
C155 H137 0.941 . S
C155 C154 1.391 . S
C155 C156 1.396 . S
C156 H140 0.939 . S
C156 C155 1.396 . S
C156 C157 1.397 . S
C157 C156 1.397 . S
C157 C158 1.385 . S
C158 H141 0.940 . S
C158 C157 1.385 . S
C158 C159 1.388 . S
C159 H138 0.939 . S
C159 C154 1.391 . S
C159 C158 1.388 . S
P160 O171 1.490 . S
P160 C174 1.812 . S
P160 C180 1.803 . S
P160 C186 1.819 . S
H161 C175 0.941 . S
H162 C176 0.939 . S
H163 C178 0.940 . S
H164 C179 0.940 . S
H165 C181 0.939 . S
H166 C182 0.942 . S
H167 C184 0.940 . S
H168 C185 0.939 . S
H169 C187 0.941 . S
H170 C191 0.939 . S
O171 P160 1.490 . S
H172 C188 0.939 . S
H173 C190 0.940 . S
C174 P160 1.812 . S
C174 C175 1.389 . S
C174 C179 1.391 . S
C175 H161 0.941 . S
C175 C174 1.389 . S
C175 C176 1.397 . S
C176 H162 0.939 . S
C176 C175 1.397 . S
C176 C177 1.378 . S
C177 C176 1.378 . S
C177 C178 1.378 . S
C178 H163 0.940 . S
C178 C177 1.378 . S
C178 C179 1.396 . S
C179 H164 0.940 . S
C179 C174 1.391 . S
C179 C178 1.396 . S
C180 P160 1.803 . S
C180 C181 1.378 . S
C180 C185 1.400 . S
C181 H165 0.939 . S
C181 C180 1.378 . S
C181 C182 1.361 . S
C182 H166 0.942 . S
C182 C181 1.361 . S
C182 C183 1.369 . S
C183 C182 1.369 . S
C183 C184 1.404 . S
C184 H167 0.940 . S
C184 C183 1.404 . S
C184 C185 1.389 . S
C185 H168 0.939 . S
C185 C180 1.400 . S
C185 C184 1.389 . S
C186 P160 1.819 . S
C186 C187 1.391 . S
C186 C191 1.391 . S
C187 H169 0.941 . S
C187 C186 1.391 . S
C187 C188 1.396 . S
C188 H172 0.939 . S
C188 C187 1.396 . S
C188 C189 1.397 . S
C189 C188 1.397 . S
C189 C190 1.385 . S
C190 H173 0.940 . S
C190 C189 1.385 . S
C190 C191 1.388 . S
C191 H170 0.939 . S
C191 C186 1.391 . S
C191 C190 1.388 . S
P192 O203 1.490 . S
P192 C206 1.812 . S
P192 C212 1.803 . S
P192 C218 1.819 . S
H193 C207 0.941 . S
H194 C208 0.939 . S
H195 C210 0.940 . S
H196 C211 0.940 . S
H197 C213 0.939 . S
H198 C214 0.942 . S
H199 C216 0.940 . S
H200 C217 0.939 . S
H201 C219 0.941 . S
H202 C223 0.939 . S
O203 P192 1.490 . S
H204 C220 0.939 . S
H205 C222 0.940 . S
C206 P192 1.812 . S
C206 C207 1.389 1_655 S
C206 C211 1.391 . S
C207 H193 0.941 . S
C207 C206 1.389 1_455 S
C207 C208 1.397 . S
C208 H194 0.939 . S
C208 C207 1.397 . S
C208 C209 1.378 . S
C209 C208 1.378 . S
C209 C210 1.378 1_455 S
C210 H195 0.940 . S
C210 C209 1.378 1_655 S
C210 C211 1.396 . S
C211 H196 0.940 . S
C211 C206 1.391 . S
C211 C210 1.396 . S
C212 P192 1.803 . S
C212 C213 1.378 . S
C212 C217 1.400 . S
C213 H197 0.939 . S
C213 C212 1.378 . S
C213 C214 1.361 . S
C214 H198 0.942 . S
C214 C213 1.361 . S
C214 C215 1.369 . S
C215 C214 1.369 . S
C215 C216 1.404 . S
C216 H199 0.940 . S
C216 C215 1.404 . S
C216 C217 1.389 . S
C217 H200 0.939 . S
C217 C212 1.400 . S
C217 C216 1.389 . S
C218 P192 1.819 . S
C218 C219 1.391 . S
C218 C223 1.391 . S
C219 H201 0.941 . S
C219 C218 1.391 . S
C219 C220 1.396 . S
C220 H204 0.939 . S
C220 C219 1.396 . S
C220 C221 1.397 . S
C221 C220 1.397 . S
C221 C222 1.385 . S
C222 H205 0.940 . S
C222 C221 1.385 . S
C222 C223 1.388 . S
C223 H202 0.939 . S
C223 C218 1.391 . S
C223 C222 1.388 . S
P224 O235 1.490 . S
P224 C238 1.812 . S
P224 C244 1.803 . S
P224 C250 1.819 . S
H225 C239 0.941 . S
H226 C240 0.939 . S
H227 C242 0.940 . S
H228 C243 0.940 . S
H229 C245 0.939 . S
H230 C246 0.942 . S
H231 C248 0.940 . S
H232 C249 0.939 . S
H233 C251 0.941 . S
H234 C255 0.939 . S
O235 P224 1.490 . S
H236 C252 0.939 . S
H237 C254 0.940 . S
C238 P224 1.812 . S
C238 C239 1.389 . S
C238 C243 1.391 . S
C239 H225 0.941 . S
C239 C238 1.389 . S
C239 C240 1.397 . S
C240 H226 0.939 . S
C240 C239 1.397 . S
C240 C241 1.378 . S
C241 C240 1.378 . S
C241 C242 1.378 . S
C242 H227 0.940 . S
C242 C241 1.378 . S
C242 C243 1.396 . S
C243 H228 0.940 . S
C243 C238 1.391 . S
C243 C242 1.396 . S
C244 P224 1.803 . S
C244 C245 1.378 . S
C244 C249 1.400 . S
C245 H229 0.939 . S
C245 C244 1.378 . S
C245 C246 1.361 . S
C246 H230 0.942 . S
C246 C245 1.361 . S
C246 C247 1.369 . S
C247 C246 1.369 . S
C247 C248 1.404 . S
C248 H231 0.940 . S
C248 C247 1.404 . S
C248 C249 1.389 . S
C249 H232 0.939 . S
C249 C244 1.400 . S
C249 C248 1.389 . S
C250 P224 1.819 . S
C250 C251 1.391 . S
C250 C255 1.391 . S
C251 H233 0.941 . S
C251 C250 1.391 . S
C251 C252 1.396 . S
C252 H236 0.939 . S
C252 C251 1.396 . S
C252 C253 1.397 . S
C253 C252 1.397 . S
C253 C254 1.385 . S
C254 H237 0.940 . S
C254 C253 1.385 . S
C254 C255 1.388 . S
C255 H234 0.939 . S
C255 C250 1.391 . S
C255 C254 1.388 . S
P256 O267 1.490 . S
P256 C270 1.812 . S
P256 C276 1.803 . S
P256 C282 1.819 . S
H257 C271 0.941 . S
H258 C272 0.939 . S
H259 C274 0.940 . S
H260 C275 0.940 . S
H261 C277 0.939 . S
H262 C278 0.942 . S
H263 C280 0.940 . S
H264 C281 0.939 . S
H265 C283 0.941 . S
H266 C287 0.939 . S
O267 P256 1.490 . S
H268 C284 0.939 . S
H269 C286 0.940 . S
C270 P256 1.812 . S
C270 C271 1.389 . S
C270 C275 1.391 . S
C271 H257 0.941 . S
C271 C270 1.389 . S
C271 C272 1.397 . S
C272 H258 0.939 . S
C272 C271 1.397 . S
C272 C273 1.378 . S
C273 C272 1.378 . S
C273 C274 1.378 . S
C274 H259 0.940 . S
C274 C273 1.378 . S
C274 C275 1.396 . S
C275 H260 0.940 . S
C275 C270 1.391 . S
C275 C274 1.396 . S
C276 P256 1.803 . S
C276 C277 1.378 . S
C276 C281 1.400 . S
C277 H261 0.939 . S
C277 C276 1.378 . S
C277 C278 1.361 . S
C278 H262 0.942 . S
C278 C277 1.361 . S
C278 C279 1.369 . S
C279 C278 1.369 . S
C279 C280 1.404 . S
C280 H263 0.940 . S
C280 C279 1.404 . S
C280 C281 1.389 . S
C281 H264 0.939 . S
C281 C276 1.400 . S
C281 C280 1.389 . S
C282 P256 1.819 . S
C282 C283 1.391 . S
C282 C287 1.391 . S
C283 H265 0.941 . S
C283 C282 1.391 . S
C283 C284 1.396 . S
C284 H268 0.939 . S
C284 C283 1.396 . S
C284 C285 1.397 . S
C285 C284 1.397 . S
C285 C286 1.385 . S
C286 H269 0.940 . S
C286 C285 1.385 . S
C286 C287 1.388 . S
C287 H266 0.939 . S
C287 C282 1.391 . S
C287 C286 1.388 . S
P288 O299 1.490 . S
P288 C302 1.812 . S
P288 C308 1.803 . S
P288 C314 1.819 . S
H289 C303 0.941 . S
H290 C304 0.939 . S
H291 C306 0.940 . S
H292 C307 0.940 . S
H293 C309 0.939 . S
H294 C310 0.942 . S
H295 C312 0.940 . S
H296 C313 0.939 . S
H297 C315 0.941 . S
H298 C319 0.939 . S
O299 P288 1.490 . S
H300 C316 0.939 . S
H301 C318 0.940 . S
C302 P288 1.812 . S
C302 C303 1.389 . S
C302 C307 1.391 . S
C303 H289 0.941 . S
C303 C302 1.389 . S
C303 C304 1.397 . S
C304 H290 0.939 . S
C304 C303 1.397 . S
C304 C305 1.378 . S
C305 C304 1.378 . S
C305 C306 1.378 . S
C306 H291 0.940 . S
C306 C305 1.378 . S
C306 C307 1.396 . S
C307 H292 0.940 . S
C307 C302 1.391 . S
C307 C306 1.396 . S
C308 P288 1.803 . S
C308 C309 1.378 1_565 S
C308 C313 1.400 . S
C309 H293 0.939 . S
C309 C308 1.378 1_545 S
C309 C310 1.361 . S
C310 H294 0.942 . S
C310 C309 1.361 . S
C310 C311 1.369 . S
C311 C310 1.369 . S
C311 C312 1.404 1_545 S
C312 H295 0.940 . S
C312 C311 1.404 1_565 S
C312 C313 1.389 . S
C313 H296 0.939 . S
C313 C308 1.400 . S
C313 C312 1.389 . S
C314 P288 1.819 . S
C314 C315 1.391 . S
C314 C319 1.391 . S
C315 H297 0.941 . S
C315 C314 1.391 . S
C315 C316 1.396 . S
C316 H300 0.939 . S
C316 C315 1.396 . S
C316 C317 1.397 . S
C317 C316 1.397 . S
C317 C318 1.385 . S
C318 H301 0.940 . S
C318 C317 1.385 . S
C318 C319 1.388 . S
C319 H298 0.939 . S
C319 C314 1.391 . S
C319 C318 1.388 . S
P320 O331 1.490 . S
P320 C334 1.812 . S
P320 C340 1.803 . S
P320 C346 1.819 . S
H321 C335 0.941 . S
H322 C336 0.939 . S
H323 C338 0.940 . S
H324 C339 0.940 . S
H325 C341 0.939 . S
H326 C342 0.942 . S
H327 C344 0.940 . S
H328 C345 0.939 . S
H329 C347 0.941 . S
H330 C351 0.939 . S
O331 P320 1.490 . S
H332 C348 0.939 . S
H333 C350 0.940 . S
C334 P320 1.812 . S
C334 C335 1.389 . S
C334 C339 1.391 . S
C335 H321 0.941 . S
C335 C334 1.389 . S
C335 C336 1.397 . S
C336 H322 0.939 . S
C336 C335 1.397 . S
C336 C337 1.378 . S
C337 C336 1.378 . S
C337 C338 1.378 . S
C338 H323 0.940 . S
C338 C337 1.378 . S
C338 C339 1.396 . S
C339 H324 0.940 . S
C339 C334 1.391 . S
C339 C338 1.396 . S
C340 P320 1.803 . S
C340 C341 1.378 . S
C340 C345 1.400 . S
C341 H325 0.939 . S
C341 C340 1.378 . S
C341 C342 1.361 . S
C342 H326 0.942 . S
C342 C341 1.361 . S
C342 C343 1.369 . S
C343 C342 1.369 . S
C343 C344 1.404 . S
C344 H327 0.940 . S
C344 C343 1.404 . S
C344 C345 1.389 . S
C345 H328 0.939 . S
C345 C340 1.400 . S
C345 C344 1.389 . S
C346 P320 1.819 . S
C346 C347 1.391 . S
C346 C351 1.391 . S
C347 H329 0.941 . S
C347 C346 1.391 . S
C347 C348 1.396 . S
C348 H332 0.939 . S
C348 C347 1.396 . S
C348 C349 1.397 . S
C349 C348 1.397 . S
C349 C350 1.385 . S
C350 H333 0.940 . S
C350 C349 1.385 . S
C350 C351 1.388 . S
C351 H330 0.939 . S
C351 C346 1.391 . S
C351 C350 1.388 . S
P352 O363 1.490 . S
P352 C366 1.812 . S
P352 C372 1.803 . S
P352 C378 1.819 . S
H353 C367 0.941 . S
H354 C368 0.939 . S
H355 C370 0.940 . S
H356 C371 0.940 . S
H357 C373 0.939 . S
H358 C374 0.942 . S
H359 C376 0.940 . S
H360 C377 0.939 . S
H361 C379 0.941 . S
H362 C383 0.939 . S
O363 P352 1.490 . S
H364 C380 0.939 . S
H365 C382 0.940 . S
C366 P352 1.812 . S
C366 C367 1.389 . S
C366 C371 1.391 . S
C367 H353 0.941 . S
C367 C366 1.389 . S
C367 C368 1.397 . S
C368 H354 0.939 . S
C368 C367 1.397 . S
C368 C369 1.378 . S
C369 C368 1.378 . S
C369 C370 1.378 . S
C370 H355 0.940 . S
C370 C369 1.378 . S
C370 C371 1.396 . S
C371 H356 0.940 . S
C371 C366 1.391 . S
C371 C370 1.396 . S
C372 P352 1.803 . S
C372 C373 1.378 . S
C372 C377 1.400 . S
C373 H357 0.939 . S
C373 C372 1.378 . S
C373 C374 1.361 . S
C374 H358 0.942 . S
C374 C373 1.361 . S
C374 C375 1.369 . S
C375 C374 1.369 . S
C375 C376 1.404 . S
C376 H359 0.940 . S
C376 C375 1.404 . S
C376 C377 1.389 . S
C377 H360 0.939 . S
C377 C372 1.400 . S
C377 C376 1.389 . S
C378 P352 1.819 . S
C378 C379 1.391 . S
C378 C383 1.391 . S
C379 H361 0.941 . S
C379 C378 1.391 . S
C379 C380 1.396 . S
C380 H364 0.939 . S
C380 C379 1.396 . S
C380 C381 1.397 . S
C381 C380 1.397 . S
C381 C382 1.385 . S
C382 H365 0.940 . S
C382 C381 1.385 . S
C382 C383 1.388 . S
C383 H362 0.939 . S
C383 C378 1.391 . S
C383 C382 1.388 . S
P384 O395 1.490 . S
P384 C398 1.812 . S
P384 C404 1.803 . S
P384 C410 1.819 . S
H385 C399 0.941 . S
H386 C400 0.939 . S
H387 C402 0.940 . S
H388 C403 0.940 . S
H389 C405 0.939 . S
H390 C406 0.942 . S
H391 C408 0.940 . S
H392 C409 0.939 . S
H393 C411 0.941 . S
H394 C415 0.939 . S
O395 P384 1.490 . S
H396 C412 0.939 . S
H397 C414 0.940 . S
C398 P384 1.812 . S
C398 C399 1.389 . S
C398 C403 1.391 . S
C399 H385 0.941 . S
C399 C398 1.389 . S
C399 C400 1.397 . S
C400 H386 0.939 . S
C400 C399 1.397 . S
C400 C401 1.378 . S
C401 C400 1.378 . S
C401 C402 1.378 . S
C402 H387 0.940 . S
C402 C401 1.378 . S
C402 C403 1.396 . S
C403 H388 0.940 . S
C403 C398 1.391 . S
C403 C402 1.396 . S
C404 P384 1.803 . S
C404 C405 1.378 . S
C404 C409 1.400 . S
C405 H389 0.939 . S
C405 C404 1.378 . S
C405 C406 1.361 . S
C406 H390 0.942 . S
C406 C405 1.361 . S
C406 C407 1.369 . S
C407 C406 1.369 . S
C407 C408 1.404 . S
C408 H391 0.940 . S
C408 C407 1.404 . S
C408 C409 1.389 . S
C409 H392 0.939 . S
C409 C404 1.400 . S
C409 C408 1.389 . S
C410 P384 1.819 . S
C410 C411 1.391 . S
C410 C415 1.391 . S
C411 H393 0.941 . S
C411 C410 1.391 . S
C411 C412 1.396 . S
C412 H396 0.939 . S
C412 C411 1.396 . S
C412 C413 1.397 . S
C413 C412 1.397 . S
C413 C414 1.385 . S
C414 H397 0.940 . S
C414 C413 1.385 . S
C414 C415 1.388 . S
C415 H394 0.939 . S
C415 C410 1.391 . S
C415 C414 1.388 . S
P416 O427 1.490 . S
P416 C430 1.812 . S
P416 C436 1.803 . S
P416 C442 1.819 . S
H417 C431 0.941 . S
H418 C432 0.939 . S
H419 C434 0.940 . S
H420 C435 0.940 . S
H421 C437 0.939 . S
H422 C438 0.942 . S
H423 C440 0.940 . S
H424 C441 0.939 . S
H425 C443 0.941 . S
H426 C447 0.939 . S
O427 P416 1.490 . S
H428 C444 0.939 . S
H429 C446 0.940 . S
C430 P416 1.812 . S
C430 C431 1.389 . S
C430 C435 1.391 . S
C431 H417 0.941 . S
C431 C430 1.389 . S
C431 C432 1.397 . S
C432 H418 0.939 . S
C432 C431 1.397 . S
C432 C433 1.378 . S
C433 C432 1.378 . S
C433 C434 1.378 . S
C434 H419 0.940 . S
C434 C433 1.378 . S
C434 C435 1.396 . S
C435 H420 0.940 . S
C435 C430 1.391 . S
C435 C434 1.396 . S
C436 P416 1.803 . S
C436 C437 1.378 . S
C436 C441 1.400 . S
C437 H421 0.939 . S
C437 C436 1.378 . S
C437 C438 1.361 . S
C438 H422 0.942 . S
C438 C437 1.361 . S
C438 C439 1.348 1_556 S
C439 C438 1.348 1_554 S
C439 C440 1.407 . S
C440 H423 0.940 . S
C440 C439 1.407 . S
C440 C441 1.389 1_554 S
C441 H424 0.939 . S
C441 C436 1.400 . S
C441 C440 1.389 1_556 S
C442 P416 1.819 . S
C442 C443 1.391 . S
C442 C447 1.391 . S
C443 H425 0.941 . S
C443 C442 1.391 . S
C443 C444 1.396 . S
C444 H428 0.939 . S
C444 C443 1.396 . S
C444 C445 1.397 . S
C445 C444 1.397 . S
C445 C446 1.385 . S
C446 H429 0.940 . S
C446 C445 1.385 . S
C446 C447 1.388 . S
C447 H426 0.939 . S
C447 C442 1.391 . S
C447 C446 1.388 . S
P448 O459 1.490 . S
P448 C462 1.812 . S
P448 C468 1.803 . S
P448 C474 1.819 . S
H449 C463 0.941 . S
H450 C464 0.939 . S
H451 C466 0.940 . S
H452 C467 0.940 . S
H453 C469 0.939 . S
H454 C470 0.942 . S
H455 C472 0.940 . S
H456 C473 0.939 . S
H457 C475 0.941 . S
H458 C479 0.939 . S
O459 P448 1.490 . S
H460 C476 0.939 . S
H461 C478 0.940 . S
C462 P448 1.812 . S
C462 C463 1.389 . S
C462 C467 1.391 . S
C463 H449 0.941 . S
C463 C462 1.389 . S
C463 C464 1.397 . S
C464 H450 0.939 . S
C464 C463 1.397 . S
C464 C465 1.378 . S
C465 C464 1.378 . S
C465 C466 1.378 . S
C466 H451 0.940 . S
C466 C465 1.378 . S
C466 C467 1.396 . S
C467 H452 0.940 . S
C467 C462 1.391 . S
C467 C466 1.396 . S
C468 P448 1.803 . S
C468 C469 1.378 . S
C468 C473 1.400 . S
C469 H453 0.939 . S
C469 C468 1.378 . S
C469 C470 1.361 . S
C470 H454 0.942 . S
C470 C469 1.361 . S
C470 C471 1.369 . S
C471 C470 1.369 . S
C471 C472 1.404 . S
C472 H455 0.940 . S
C472 C471 1.404 . S
C472 C473 1.389 . S
C473 H456 0.939 . S
C473 C468 1.400 . S
C473 C472 1.389 . S
C474 P448 1.819 . S
C474 C475 1.391 . S
C474 C479 1.391 . S
C475 H457 0.941 . S
C475 C474 1.391 . S
C475 C476 1.396 . S
C476 H460 0.939 . S
C476 C475 1.396 . S
C476 C477 1.397 . S
C477 C476 1.397 . S
C477 C478 1.385 . S
C478 H461 0.940 . S
C478 C477 1.385 . S
C478 C479 1.388 . S
C479 H458 0.939 . S
C479 C474 1.391 . S
C479 C478 1.388 . S
P480 O491 1.451 1_556 S
P480 C494 1.812 . S
P480 C500 1.803 . S
P480 C506 1.819 . S
H481 C495 0.941 . S
H482 C496 0.939 . S
H483 C498 0.940 . S
H484 C499 0.940 . S
H485 C501 0.939 . S
H486 C502 0.942 . S
H487 C504 0.940 . S
H488 C505 0.939 . S
H489 C507 0.941 . S
H490 C511 0.939 . S
O491 P480 1.451 1_554 S
H492 C508 0.939 . S
H493 C510 0.940 . S
C494 P480 1.812 . S
C494 C495 1.389 . S
C494 C499 1.391 . S
C495 H481 0.941 . S
C495 C494 1.389 . S
C495 C496 1.397 . S
C496 H482 0.939 . S
C496 C495 1.397 . S
C496 C497 1.378 . S
C497 C496 1.378 . S
C497 C498 1.378 . S
C498 H483 0.940 . S
C498 C497 1.378 . S
C498 C499 1.396 . S
C499 H484 0.940 . S
C499 C494 1.391 . S
C499 C498 1.396 . S
C500 P480 1.803 . S
C500 C501 1.378 1_556 S
C500 C505 1.400 . S
C501 H485 0.939 . S
C501 C500 1.378 1_554 S
C501 C502 1.361 . S
C502 H486 0.942 . S
C502 C501 1.361 . S
C502 C503 1.369 . S
C503 C502 1.369 . S
C503 C504 1.404 1_554 S
C504 H487 0.940 . S
C504 C503 1.404 1_556 S
C504 C505 1.389 . S
C505 H488 0.939 . S
C505 C500 1.400 . S
C505 C504 1.389 . S
C506 P480 1.819 . S
C506 C507 1.391 1_545 S
C506 C511 1.391 . S
C507 H489 0.941 . S
C507 C506 1.391 1_565 S
C507 C508 1.396 . S
C508 H492 0.939 . S
C508 C507 1.396 . S
C508 C509 1.397 . S
C509 C508 1.397 . S
C509 C510 1.385 1_565 S
C510 H493 0.940 . S
C510 C509 1.385 1_545 S
C510 C511 1.388 . S
C511 H490 0.939 . S
C511 C506 1.391 . S
C511 C510 1.388 . S
Mg512 O513 2.028 . S
Mg512 O519 1.986 1_554 S
Mg512 O521 2.114 . S
Mg512 O522 2.251 . S
Mg512 O525 2.010 . S
O513 Mg512 2.028 . S
O513 C516 1.250 1_554 S
O514 Mg515 2.028 . S
O514 C516 1.248 . S
Mg515 O514 2.028 . S
Mg515 O520 2.032 . S
Mg515 O522 2.079 1_556 S
C516 O513 1.250 1_556 S
C516 O514 1.248 . S
C517 O518 1.264 . S
C517 O525 1.249 . S
O518 C517 1.264 . S
O519 Mg512 1.986 1_556 S
O519 C523 1.246 . S
O520 Mg515 2.032 . S
O520 C523 1.259 . S
O521 Mg512 2.114 . S
O521 C524 1.252 . S
O522 Mg512 2.251 . S
O522 Mg515 2.079 1_554 S
O522 C524 1.273 . S
C523 O519 1.246 . S
C523 O520 1.259 . S
C524 O521 1.252 . S
C524 O522 1.273 . S
O525 Mg512 2.010 . S
O525 C517 1.249 . S
Mg526 O527 2.028 . S
Mg526 O533 1.986 . S
Mg526 O535 2.114 . S
Mg526 O536 2.251 . S
Mg526 O539 2.010 . S
O527 Mg526 2.028 . S
O527 C530 1.250 . S
O528 Mg529 2.028 . S
O528 C530 1.248 . S
Mg529 O528 2.028 . S
Mg529 O534 2.032 . S
Mg529 O536 2.079 . S
C530 O527 1.250 . S
C530 O528 1.248 . S
C531 O532 1.264 . S
C531 O539 1.249 . S
O532 C531 1.264 . S
O533 Mg526 1.986 . S
O533 C537 1.246 . S
O534 Mg529 2.032 . S
O534 C537 1.259 . S
O535 Mg526 2.114 . S
O535 C538 1.252 . S
O536 Mg526 2.251 . S
O536 Mg529 2.079 . S
O536 C538 1.273 . S
C537 O533 1.246 . S
C537 O534 1.259 . S
C538 O535 1.252 . S
C538 O536 1.273 . S
O539 Mg526 2.010 . S
O539 C531 1.249 . S
Mg540 O541 2.028 . S
Mg540 O547 1.986 1_554 S
Mg540 O549 2.114 . S
Mg540 O550 2.251 . S
Mg540 O553 2.010 . S
O541 Mg540 2.028 . S
O541 C544 1.250 . S
O542 Mg543 2.027 1_554 S
O542 C544 1.250 . S
Mg543 O542 2.027 1_556 S
Mg543 O548 2.071 . S
Mg543 O550 2.048 1_556 S
C544 O541 1.250 . S
C544 O542 1.250 . S
C545 O546 1.264 . S
C545 O553 1.249 . S
O546 C545 1.264 . S
O547 Mg540 1.986 1_556 S
O547 C551 1.246 . S
O548 Mg543 2.071 . S
O548 C551 1.259 . S
O549 Mg540 2.114 . S
O549 C552 1.252 . S
O550 Mg540 2.251 . S
O550 Mg543 2.048 1_554 S
O550 C552 1.273 . S
C551 O547 1.246 . S
C551 O548 1.259 . S
C552 O549 1.252 . S
C552 O550 1.273 . S
O553 Mg540 2.010 . S
O553 C545 1.249 . S
Mg554 O555 2.028 . S
Mg554 O561 1.986 . S
Mg554 O563 2.114 . S
Mg554 O564 2.251 . S
Mg554 O567 2.010 . S
O555 Mg554 2.028 . S
O555 C558 1.250 1_545 S
O556 Mg557 2.028 . S
O556 C558 1.248 . S
Mg557 O556 2.028 . S
Mg557 O562 2.032 . S
Mg557 O564 2.079 1_565 S
C558 O555 1.250 1_565 S
C558 O556 1.248 . S
C559 O560 1.264 . S
C559 O567 1.249 . S
O560 C559 1.264 . S
O561 Mg554 1.986 . S
O561 C565 1.246 . S
O562 Mg557 2.032 . S
O562 C565 1.259 1_565 S
O563 Mg554 2.114 . S
O563 C566 1.252 . S
O564 Mg554 2.251 . S
O564 Mg557 2.079 1_545 S
O564 C566 1.273 . S
C565 O561 1.246 . S
C565 O562 1.259 1_545 S
C566 O563 1.252 . S
C566 O564 1.273 . S
O567 Mg554 2.010 . S
O567 C559 1.249 . S
Mg568 O569 2.028 . S
Mg568 O575 1.986 . S
Mg568 O577 2.114 . S
Mg568 O578 2.251 . S
Mg568 O581 2.010 . S
O569 Mg568 2.028 . S
O569 C572 1.250 . S
O570 Mg571 2.028 . S
O570 C572 1.248 . S
Mg571 O570 2.028 . S
Mg571 O576 2.032 . S
Mg571 O578 2.079 . S
C572 O569 1.250 . S
C572 O570 1.248 . S
C573 O574 1.264 . S
C573 O581 1.249 . S
O574 C573 1.264 . S
O575 Mg568 1.986 . S
O575 C579 1.246 . S
O576 Mg571 2.032 . S
O576 C579 1.259 . S
O577 Mg568 2.114 . S
O577 C580 1.252 . S
O578 Mg568 2.251 . S
O578 Mg571 2.079 . S
O578 C580 1.273 . S
C579 O575 1.246 . S
C579 O576 1.259 . S
C580 O577 1.252 . S
C580 O578 1.273 . S
O581 Mg568 2.010 . S
O581 C573 1.249 . S
Mg582 O583 2.028 . S
Mg582 O589 1.986 . S
Mg582 O591 2.114 . S
Mg582 O592 2.251 . S
Mg582 O595 2.010 . S
O583 Mg582 2.028 . S
O583 C586 1.250 . S
O584 Mg585 2.028 . S
O584 C586 1.248 . S
Mg585 O584 2.028 . S
Mg585 O590 2.032 . S
Mg585 O592 2.079 . S
C586 O583 1.250 . S
C586 O584 1.248 . S
C587 O588 1.264 . S
C587 O595 1.249 . S
O588 C587 1.264 . S
O589 Mg582 1.986 . S
O589 C593 1.246 . S
O590 Mg585 2.032 . S
O590 C593 1.259 . S
O591 Mg582 2.114 . S
O591 C594 1.252 . S
O592 Mg582 2.251 . S
O592 Mg585 2.079 . S
O592 C594 1.273 . S
C593 O589 1.246 . S
C593 O590 1.259 . S
C594 O591 1.252 . S
C594 O592 1.273 . S
O595 Mg582 2.010 . S
O595 C587 1.249 . S
Mg596 O597 2.028 . S
Mg596 O603 1.986 . S
Mg596 O605 2.114 . S
Mg596 O606 2.251 . S
Mg596 O609 2.010 . S
O597 Mg596 2.028 . S
O597 C600 1.250 . S
O598 Mg599 2.028 . S
O598 C600 1.248 . S
Mg599 O598 2.028 . S
Mg599 O604 2.032 . S
Mg599 O606 2.079 . S
C600 O597 1.250 . S
C600 O598 1.248 . S
C601 O602 1.264 . S
C601 O609 1.249 . S
O602 C601 1.264 . S
O603 Mg596 1.986 . S
O603 C607 1.246 . S
O604 Mg599 2.032 . S
O604 C607 1.259 . S
O605 Mg596 2.114 . S
O605 C608 1.252 . S
O606 Mg596 2.251 . S
O606 Mg599 2.079 . S
O606 C608 1.273 . S
C607 O603 1.246 . S
C607 O604 1.259 . S
C608 O605 1.252 . S
C608 O606 1.273 . S
O609 Mg596 2.010 . S
O609 C601 1.249 . S
Mg610 O611 2.021 1_545 S
Mg610 O617 1.986 1_545 S
Mg610 O619 2.114 . S
Mg610 O620 2.251 . S
Mg610 O623 2.010 . S
O611 Mg610 2.021 1_565 S
O611 C614 1.262 . S
O612 Mg613 2.028 . S
O612 C614 1.248 . S
Mg613 O612 2.028 . S
Mg613 O618 2.032 . S
Mg613 O620 2.079 1_565 S
C614 O611 1.262 . S
C614 O612 1.248 . S
C615 O616 1.264 . S
C615 O623 1.249 . S
O616 C615 1.264 . S
O617 Mg610 1.986 1_565 S
O617 C621 1.246 . S
O618 Mg613 2.032 . S
O618 C621 1.259 . S
O619 Mg610 2.114 . S
O619 C622 1.252 . S
O620 Mg610 2.251 . S
O620 Mg613 2.079 1_545 S
O620 C622 1.273 . S
C621 O617 1.246 . S
C621 O618 1.259 . S
C622 O619 1.252 . S
C622 O620 1.273 . S
O623 Mg610 2.010 . S
O623 C615 1.249 . S
Mg624 O625 2.028 . S
Mg624 O631 1.986 . S
Mg624 O633 2.114 . S
Mg624 O634 2.251 . S
Mg624 O637 2.010 . S
O625 Mg624 2.028 . S
O625 C628 1.250 1_455 S
O626 Mg627 2.028 . S
O626 C628 1.248 . S
Mg627 O626 2.028 . S
Mg627 O632 2.017 1_655 S
Mg627 O634 2.079 1_655 S
C628 O625 1.250 1_655 S
C628 O626 1.248 . S
C629 O630 1.264 . S
C629 O637 1.249 . S
O630 C629 1.264 . S
O631 Mg624 1.986 . S
O631 C635 1.246 . S
O632 Mg627 2.017 1_455 S
O632 C635 1.300 . S
O633 Mg624 2.114 . S
O633 C636 1.252 . S
O634 Mg624 2.251 . S
O634 Mg627 2.079 1_455 S
O634 C636 1.273 . S
C635 O631 1.246 . S
C635 O632 1.300 . S
C636 O633 1.252 . S
C636 O634 1.273 . S
O637 Mg624 2.010 . S
O637 C629 1.249 . S
Mg638 O639 2.028 . S
Mg638 O645 1.986 . S
Mg638 O647 2.114 . S
Mg638 O648 2.251 . S
Mg638 O651 2.010 . S
O639 Mg638 2.028 . S
O639 C642 1.250 . S
O640 Mg641 2.028 . S
O640 C642 1.248 . S
Mg641 O640 2.028 . S
Mg641 O646 2.032 . S
Mg641 O648 2.079 . S
C642 O639 1.250 . S
C642 O640 1.248 . S
C643 O644 1.264 . S
C643 O651 1.249 . S
O644 C643 1.264 . S
O645 Mg638 1.986 . S
O645 C649 1.246 . S
O646 Mg641 2.032 . S
O646 C649 1.259 . S
O647 Mg638 2.114 . S
O647 C650 1.252 . S
O648 Mg638 2.251 . S
O648 Mg641 2.079 . S
O648 C650 1.273 . S
C649 O645 1.246 . S
C649 O646 1.259 . S
C650 O647 1.252 . S
C650 O648 1.273 . S
O651 Mg638 2.010 . S
O651 C643 1.249 . S
Mg652 O653 2.028 1_655 S
Mg652 O659 1.995 . S
Mg652 O661 2.114 . S
Mg652 O662 2.251 1_655 S
Mg652 O665 2.010 . S
O653 Mg652 2.028 1_455 S
O653 C656 1.250 . S
O654 Mg655 2.028 . S
O654 C656 1.248 . S
Mg655 O654 2.028 . S
Mg655 O660 2.032 . S
Mg655 O662 2.079 . S
C656 O653 1.250 . S
C656 O654 1.248 . S
C657 O658 1.264 . S
C657 O665 1.249 . S
O658 C657 1.264 . S
O659 Mg652 1.995 . S
O659 C663 1.220 1_655 S
O660 Mg655 2.032 . S
O660 C663 1.259 . S
O661 Mg652 2.114 . S
O661 C664 1.252 . S
O662 Mg652 2.251 1_455 S
O662 Mg655 2.079 . S
O662 C664 1.273 1_455 S
C663 O659 1.220 1_455 S
C663 O660 1.259 . S
C664 O661 1.252 . S
C664 O662 1.273 1_655 S
O665 Mg652 2.010 . S
O665 C657 1.249 . S
Mg666 O667 2.028 . S
Mg666 O673 1.986 . S
Mg666 O675 2.114 . S
Mg666 O676 2.251 . S
Mg666 O679 2.010 . S
O667 Mg666 2.028 . S
O667 C670 1.250 . S
O668 Mg669 2.028 . S
O668 C670 1.248 . S
Mg669 O668 2.028 . S
Mg669 O674 2.032 . S
Mg669 O676 2.079 . S
C670 O667 1.250 . S
C670 O668 1.248 . S
C671 O672 1.264 . S
C671 O679 1.249 . S
O672 C671 1.264 . S
O673 Mg666 1.986 . S
O673 C677 1.246 . S
O674 Mg669 2.032 . S
O674 C677 1.259 . S
O675 Mg666 2.114 . S
O675 C678 1.252 . S
O676 Mg666 2.251 . S
O676 Mg669 2.079 . S
O676 C678 1.273 . S
C677 O673 1.246 . S
C677 O674 1.259 . S
C678 O675 1.252 . S
C678 O676 1.273 . S
O679 Mg666 2.010 . S
O679 C671 1.249 . S
C680 C681 1.349 . S
C680 C682 1.327 . S
C680 H705 0.950 . S
C681 C680 1.349 . S
C681 C697 1.349 . S
C682 C680 1.327 . S
C682 C701 1.429 . S
C682 H706 0.950 . S
C683 C700 1.574 . S
C683 C702 1.368 . S
C683 H707 0.949 . S
H684 C688 0.949 . S
C685 C686 1.349 . S
C685 C687 1.327 . S
C685 H708 0.950 . S
C686 C685 1.349 . S
C686 C698 1.349 . S
C687 C685 1.327 . S
C687 C703 1.429 . S
C687 H709 0.950 . S
C688 H684 0.949 . S
C688 C696 1.574 . S
C688 C704 1.368 . S
H689 C697 0.950 . S
H690 C695 0.950 . S
H691 C696 0.949 . S
H692 C698 0.950 . S
H693 C699 0.950 . S
H694 C700 0.949 . S
C695 H690 0.950 . S
C695 C697 1.327 . S
C695 C701 1.429 . S
C696 C688 1.574 . S
C696 H691 0.949 . S
C696 C702 1.368 . S
C697 C681 1.349 . S
C697 H689 0.950 . S
C697 C695 1.327 . S
C698 C686 1.349 . S
C698 H692 0.950 . S
C698 C699 1.327 . S
C699 H693 0.950 . S
C699 C698 1.327 . S
C699 C703 1.429 . S
C700 C683 1.574 . S
C700 H694 0.949 . S
C700 C704 1.368 . S
C701 C682 1.429 . S
C701 C695 1.429 . S
C701 C702 1.523 . S
C702 C683 1.368 . S
C702 C696 1.368 . S
C702 C701 1.523 . S
C703 C687 1.429 . S
C703 C699 1.429 . S
C703 C704 1.523 . S
C704 C688 1.368 . S
C704 C700 1.368 . S
C704 C703 1.523 . S
H705 C680 0.950 . S
H706 C682 0.950 . S
H707 C683 0.949 . S
H708 C685 0.950 . S
H709 C687 0.950 . S
C710 C711 1.349 . S
C710 C712 1.327 . S
C710 H735 0.950 . S
C711 C710 1.349 . S
C711 C727 1.349 . S
C712 C710 1.327 . S
C712 C731 1.429 . S
C712 H736 0.950 . S
C713 C730 1.574 . S
C713 C732 1.368 . S
C713 H737 0.949 . S
H714 C718 0.949 . S
C715 C716 1.349 . S
C715 C717 1.327 . S
C715 H738 0.950 . S
C716 C715 1.349 . S
C716 C728 1.349 . S
C717 C715 1.327 . S
C717 C733 1.429 . S
C717 H739 0.950 . S
C718 H714 0.949 . S
C718 C726 1.574 . S
C718 C734 1.368 . S
H719 C727 0.950 . S
H720 C725 0.950 . S
H721 C726 0.949 . S
H722 C728 0.950 . S
H723 C729 0.950 . S
H724 C730 0.949 . S
C725 H720 0.950 . S
C725 C727 1.327 . S
C725 C731 1.429 . S
C726 C718 1.574 . S
C726 H721 0.949 . S
C726 C732 1.368 . S
C727 C711 1.349 . S
C727 H719 0.950 . S
C727 C725 1.327 . S
C728 C716 1.349 . S
C728 H722 0.950 . S
C728 C729 1.327 . S
C729 H723 0.950 . S
C729 C728 1.327 . S
C729 C733 1.429 . S
C730 C713 1.574 . S
C730 H724 0.949 . S
C730 C734 1.368 . S
C731 C712 1.429 . S
C731 C725 1.429 . S
C731 C732 1.523 . S
C732 C713 1.368 . S
C732 C726 1.368 . S
C732 C731 1.523 . S
C733 C717 1.429 . S
C733 C729 1.429 . S
C733 C734 1.523 . S
C734 C718 1.368 . S
C734 C730 1.368 . S
C734 C733 1.523 . S
H735 C710 0.950 . S
H736 C712 0.950 . S
H737 C713 0.949 . S
H738 C715 0.950 . S
H739 C717 0.950 . S
C740 C741 1.349 . S
C740 C742 1.327 . S
C740 H765 0.950 . S
C741 C740 1.349 . S
C741 C757 1.349 . S
C742 C740 1.327 . S
C742 C761 1.429 . S
C742 H766 0.950 . S
C743 C760 1.574 . S
C743 C762 1.368 . S
C743 H767 0.949 . S
H744 C748 0.949 . S
C745 C746 1.349 . S
C745 C747 1.327 . S
C745 H768 0.950 . S
C746 C745 1.349 . S
C746 C758 1.349 . S
C747 C745 1.327 . S
C747 C763 1.429 . S
C747 H769 0.950 . S
C748 H744 0.949 . S
C748 C756 1.574 . S
C748 C764 1.368 . S
H749 C757 0.950 . S
H750 C755 0.950 . S
H751 C756 0.949 . S
H752 C758 0.950 . S
H753 C759 0.950 . S
H754 C760 0.949 . S
C755 H750 0.950 . S
C755 C757 1.327 . S
C755 C761 1.429 . S
C756 C748 1.574 . S
C756 H751 0.949 . S
C756 C762 1.368 . S
C757 C741 1.349 . S
C757 H749 0.950 . S
C757 C755 1.327 . S
C758 C746 1.349 . S
C758 H752 0.950 . S
C758 C759 1.327 . S
C759 H753 0.950 . S
C759 C758 1.327 . S
C759 C763 1.429 . S
C760 C743 1.574 . S
C760 H754 0.949 . S
C760 C764 1.368 . S
C761 C742 1.429 . S
C761 C755 1.429 . S
C761 C762 1.523 . S
C762 C743 1.368 . S
C762 C756 1.368 . S
C762 C761 1.523 . S
C763 C747 1.429 . S
C763 C759 1.429 . S
C763 C764 1.523 . S
C764 C748 1.368 . S
C764 C760 1.368 . S
C764 C763 1.523 . S
H765 C740 0.950 . S
H766 C742 0.950 . S
H767 C743 0.949 . S
H768 C745 0.950 . S
H769 C747 0.950 . S
C770 C771 1.349 . S
C770 C772 1.326 . S
C770 H795 0.950 1_565 S
C771 C770 1.349 . S
C771 C787 1.349 1_455 S
C772 C770 1.326 . S
C772 C791 1.426 1_455 S
C772 H796 0.953 1_565 S
C773 C790 1.574 . S
C773 C792 1.368 . S
C773 H797 0.949 . S
H774 C778 0.949 . S
C775 C776 1.349 1_565 S
C775 C777 1.327 . S
C775 H798 0.950 . S
C776 C775 1.349 1_545 S
C776 C788 1.349 . S
C777 C775 1.327 . S
C777 C793 1.429 1_565 S
C777 H799 0.950 . S
C778 H774 0.949 . S
C778 C786 1.574 . S
C778 C794 1.368 1_545 S
H779 C787 0.950 . S
H780 C785 0.950 . S
H781 C786 0.949 . S
H782 C788 0.950 . S
H783 C789 0.950 . S
H784 C790 0.949 . S
C785 H780 0.950 . S
C785 C787 1.327 . S
C785 C791 1.429 . S
C786 C778 1.574 . S
C786 H781 0.949 . S
C786 C792 1.368 1_545 S
C787 C771 1.349 1_655 S
C787 H779 0.950 . S
C787 C785 1.327 . S
C788 C776 1.349 . S
C788 H782 0.950 . S
C788 C789 1.327 . S
C789 H783 0.950 . S
C789 C788 1.327 . S
C789 C793 1.429 . S
C790 C773 1.574 . S
C790 H784 0.949 . S
C790 C794 1.368 . S
C791 C772 1.426 1_655 S
C791 C785 1.429 . S
C791 C792 1.523 . S
C792 C773 1.368 . S
C792 C786 1.368 1_565 S
C792 C791 1.523 . S
C793 C777 1.429 1_545 S
C793 C789 1.429 . S
C793 C794 1.523 1_545 S
C794 C778 1.368 1_565 S
C794 C790 1.368 . S
C794 C793 1.523 1_565 S
H795 C770 0.950 1_545 S
H796 C772 0.953 1_545 S
H797 C773 0.949 . S
H798 C775 0.950 . S
H799 C777 0.950 . S
C800 C801 1.349 . S
C800 C802 1.327 . S
C800 H825 0.950 . S
C801 C800 1.349 . S
C801 C817 1.349 . S
C802 C800 1.327 . S
C802 C821 1.429 . S
C802 H826 0.950 . S
C803 C820 1.574 . S
C803 C822 1.368 . S
C803 H827 0.949 . S
H804 C808 0.949 . S
C805 C806 1.349 . S
C805 C807 1.327 . S
C805 H828 0.950 . S
C806 C805 1.349 . S
C806 C818 1.349 . S
C807 C805 1.327 . S
C807 C823 1.429 . S
C807 H829 0.950 . S
C808 H804 0.949 . S
C808 C816 1.574 . S
C808 C824 1.368 . S
H809 C817 0.950 . S
H810 C815 0.950 . S
H811 C816 0.949 . S
H812 C818 0.950 . S
H813 C819 0.950 . S
H814 C820 0.949 . S
C815 H810 0.950 . S
C815 C817 1.327 . S
C815 C821 1.429 . S
C816 C808 1.574 . S
C816 H811 0.949 . S
C816 C822 1.368 . S
C817 C801 1.349 . S
C817 H809 0.950 . S
C817 C815 1.327 . S
C818 C806 1.349 . S
C818 H812 0.950 . S
C818 C819 1.327 . S
C819 H813 0.950 . S
C819 C818 1.327 . S
C819 C823 1.429 . S
C820 C803 1.574 . S
C820 H814 0.949 . S
C820 C824 1.368 . S
C821 C802 1.429 . S
C821 C815 1.429 . S
C821 C822 1.523 . S
C822 C803 1.368 . S
C822 C816 1.368 . S
C822 C821 1.523 . S
C823 C807 1.429 . S
C823 C819 1.429 . S
C823 C824 1.523 . S
C824 C808 1.368 . S
C824 C820 1.368 . S
C824 C823 1.523 . S
H825 C800 0.950 . S
H826 C802 0.950 . S
H827 C803 0.949 . S
H828 C805 0.950 . S
H829 C807 0.950 . S
C830 C831 1.349 . S
C830 C832 1.327 . S
C830 H855 0.950 . S
C831 C830 1.349 . S
C831 C847 1.349 . S
C832 C830 1.327 . S
C832 C851 1.429 . S
C832 H856 0.950 . S
C833 C850 1.574 . S
C833 C852 1.368 . S
C833 H857 0.949 . S
H834 C838 0.949 . S
C835 C836 1.349 . S
C835 C837 1.327 . S
C835 H858 0.950 . S
C836 C835 1.349 . S
C836 C848 1.349 . S
C837 C835 1.327 . S
C837 C853 1.429 . S
C837 H859 0.950 . S
C838 H834 0.949 . S
C838 C846 1.574 . S
C838 C854 1.368 . S
H839 C847 0.950 . S
H840 C845 0.950 . S
H841 C846 0.949 . S
H842 C848 0.950 . S
H843 C849 0.950 . S
H844 C850 0.949 . S
C845 H840 0.950 . S
C845 C847 1.327 . S
C845 C851 1.429 . S
C846 C838 1.574 . S
C846 H841 0.949 . S
C846 C852 1.368 . S
C847 C831 1.349 . S
C847 H839 0.950 . S
C847 C845 1.327 . S
C848 C836 1.349 . S
C848 H842 0.950 . S
C848 C849 1.327 . S
C849 H843 0.950 . S
C849 C848 1.327 . S
C849 C853 1.429 . S
C850 C833 1.574 . S
C850 H844 0.949 . S
C850 C854 1.368 . S
C851 C832 1.429 . S
C851 C845 1.429 . S
C851 C852 1.523 . S
C852 C833 1.368 . S
C852 C846 1.368 . S
C852 C851 1.523 . S
C853 C837 1.429 . S
C853 C849 1.429 . S
C853 C854 1.523 . S
C854 C838 1.368 . S
C854 C850 1.368 . S
C854 C853 1.523 . S
H855 C830 0.950 . S
H856 C832 0.950 . S
H857 C833 0.949 . S
H858 C835 0.950 . S
H859 C837 0.950 . S
C860 C861 1.349 . S
C860 C862 1.327 . S
C860 H885 0.950 . S
C861 C860 1.349 . S
C861 C877 1.349 . S
C862 C860 1.327 . S
C862 C881 1.429 . S
C862 H886 0.950 . S
C863 C880 1.574 . S
C863 C882 1.368 . S
C863 H887 0.949 . S
H864 C868 0.949 . S
C865 C866 1.349 . S
C865 C867 1.327 . S
C865 H888 0.950 . S
C866 C865 1.349 . S
C866 C878 1.349 . S
C867 C865 1.327 . S
C867 C883 1.429 . S
C867 H889 0.950 . S
C868 H864 0.949 . S
C868 C876 1.574 . S
C868 C884 1.368 . S
H869 C877 0.950 . S
H870 C875 0.950 . S
H871 C876 0.949 . S
H872 C878 0.950 . S
H873 C879 0.950 . S
H874 C880 0.949 . S
C875 H870 0.950 . S
C875 C877 1.327 . S
C875 C881 1.429 . S
C876 C868 1.574 . S
C876 H871 0.949 . S
C876 C882 1.368 . S
C877 C861 1.349 . S
C877 H869 0.950 . S
C877 C875 1.327 . S
C878 C866 1.349 . S
C878 H872 0.950 . S
C878 C879 1.327 . S
C879 H873 0.950 . S
C879 C878 1.327 . S
C879 C883 1.429 . S
C880 C863 1.574 . S
C880 H874 0.949 . S
C880 C884 1.368 . S
C881 C862 1.429 . S
C881 C875 1.429 . S
C881 C882 1.523 . S
C882 C863 1.368 . S
C882 C876 1.368 . S
C882 C881 1.523 . S
C883 C867 1.429 . S
C883 C879 1.429 . S
C883 C884 1.523 . S
C884 C868 1.368 . S
C884 C880 1.368 . S
C884 C883 1.523 . S
H885 C860 0.950 . S
H886 C862 0.950 . S
H887 C863 0.949 . S
H888 C865 0.950 . S
H889 C867 0.950 . S
C890 C891 1.349 . S
C890 C892 1.327 . S
C890 H915 0.950 . S
C891 C890 1.349 . S
C891 C907 1.349 . S
C892 C890 1.327 . S
C892 C911 1.429 . S
C892 H916 0.950 . S
C893 C910 1.574 . S
C893 C912 1.368 . S
C893 H917 0.949 1_565 S
H894 C898 0.949 . S
C895 C896 1.349 1_545 S
C895 C897 1.327 . S
C895 H918 0.950 . S
C896 C895 1.349 1_565 S
C896 C908 1.349 . S
C897 C895 1.327 . S
C897 C913 1.429 1_545 S
C897 H919 0.950 . S
C898 H894 0.949 . S
C898 C906 1.574 . S
C898 C914 1.368 . S
H899 C907 0.950 . S
H900 C905 0.957 . S
H901 C906 0.949 . S
H902 C908 0.950 . S
H903 C909 0.950 . S
H904 C910 0.949 1_545 S
C905 H900 0.957 . S
C905 C907 1.327 . S
C905 C911 1.429 . S
C906 C898 1.574 . S
C906 H901 0.949 . S
C906 C912 1.368 . S
C907 C891 1.349 . S
C907 H899 0.950 . S
C907 C905 1.327 . S
C908 C896 1.349 . S
C908 H902 0.950 . S
C908 C909 1.327 . S
C909 H903 0.950 . S
C909 C908 1.327 . S
C909 C913 1.429 . S
C910 C893 1.574 . S
C910 H904 0.949 1_565 S
C910 C914 1.368 . S
C911 C892 1.429 . S
C911 C905 1.429 . S
C911 C912 1.523 . S
C912 C893 1.368 . S
C912 C906 1.368 . S
C912 C911 1.523 . S
C913 C897 1.429 1_565 S
C913 C909 1.429 . S
C913 C914 1.523 . S
C914 C898 1.368 . S
C914 C910 1.368 . S
C914 C913 1.523 . S
H915 C890 0.950 . S
H916 C892 0.950 . S
H917 C893 0.949 1_545 S
H918 C895 0.950 . S
H919 C897 0.950 . S
C920 C921 1.349 . S
C920 C922 1.327 . S
C920 H945 0.950 . S
C921 C920 1.349 . S
C921 C937 1.349 . S
C922 C920 1.327 . S
C922 C941 1.429 . S
C922 H946 0.950 . S
C923 C940 1.574 . S
C923 C942 1.368 . S
C923 H947 0.949 . S
H924 C928 0.949 . S
C925 C926 1.349 . S
C925 C927 1.327 . S
C925 H948 0.950 . S
C926 C925 1.349 . S
C926 C938 1.349 . S
C927 C925 1.327 . S
C927 C943 1.429 . S
C927 H949 0.950 . S
C928 H924 0.949 . S
C928 C936 1.574 . S
C928 C944 1.368 . S
H929 C937 0.950 . S
H930 C935 0.950 . S
H931 C936 0.949 . S
H932 C938 0.950 . S
H933 C939 0.950 . S
H934 C940 0.949 . S
C935 H930 0.950 . S
C935 C937 1.327 . S
C935 C941 1.429 . S
C936 C928 1.574 . S
C936 H931 0.949 . S
C936 C942 1.368 . S
C937 C921 1.349 . S
C937 H929 0.950 . S
C937 C935 1.327 . S
C938 C926 1.349 . S
C938 H932 0.950 . S
C938 C939 1.327 . S
C939 H933 0.950 . S
C939 C938 1.327 . S
C939 C943 1.429 . S
C940 C923 1.574 . S
C940 H934 0.949 . S
C940 C944 1.368 . S
C941 C922 1.429 . S
C941 C935 1.429 . S
C941 C942 1.523 . S
C942 C923 1.368 . S
C942 C936 1.368 . S
C942 C941 1.523 . S
C943 C927 1.429 . S
C943 C939 1.429 . S
C943 C944 1.523 . S
C944 C928 1.368 . S
C944 C940 1.368 . S
C944 C943 1.523 . S
H945 C920 0.950 . S
H946 C922 0.950 . S
H947 C923 0.949 . S
H948 C925 0.950 . S
H949 C927 0.950 . S
C950 C951 1.349 . S
C950 C952 1.327 . S
C950 H975 0.950 . S
C951 C950 1.349 . S
C951 C967 1.349 . S
C952 C950 1.327 . S
C952 C971 1.429 . S
C952 H976 0.950 . S
C953 C970 1.574 . S
C953 C972 1.368 . S
C953 H977 0.949 . S
H954 C958 0.949 . S
C955 C956 1.349 . S
C955 C957 1.327 . S
C955 H978 0.950 . S
C956 C955 1.349 . S
C956 C968 1.349 . S
C957 C955 1.327 . S
C957 C973 1.429 . S
C957 H979 0.950 . S
C958 H954 0.949 . S
C958 C966 1.574 . S
C958 C974 1.368 . S
H959 C967 0.950 . S
H960 C965 0.950 . S
H961 C966 0.949 . S
H962 C968 0.950 . S
H963 C969 0.950 . S
H964 C970 0.949 . S
C965 H960 0.950 . S
C965 C967 1.327 . S
C965 C971 1.429 . S
C966 C958 1.574 . S
C966 H961 0.949 . S
C966 C972 1.368 . S
C967 C951 1.349 . S
C967 H959 0.950 . S
C967 C965 1.327 . S
C968 C956 1.349 . S
C968 H962 0.950 . S
C968 C969 1.327 . S
C969 H963 0.950 . S
C969 C968 1.327 . S
C969 C973 1.429 . S
C970 C953 1.574 . S
C970 H964 0.949 . S
C970 C974 1.368 . S
C971 C952 1.429 . S
C971 C965 1.429 . S
C971 C972 1.523 . S
C972 C953 1.368 . S
C972 C966 1.368 . S
C972 C971 1.523 . S
C973 C957 1.429 . S
C973 C969 1.429 . S
C973 C974 1.523 . S
C974 C958 1.368 . S
C974 C970 1.368 . S
C974 C973 1.523 . S
H975 C950 0.950 . S
H976 C952 0.950 . S
H977 C953 0.949 . S
H978 C955 0.950 . S
H979 C957 0.950 . S
C980 C981 1.349 . S
C980 C982 1.327 . S
C980 H1005 0.950 . S
C981 C980 1.349 . S
C981 C997 1.349 . S
C982 C980 1.327 . S
C982 C1001 1.429 . S
C982 H1006 0.950 . S
C983 C1000 1.574 . S
C983 C1002 1.368 . S
C983 H1007 0.949 . S
H984 C988 0.949 . S
C985 C986 1.349 . S
C985 C987 1.327 . S
C985 H1008 0.950 . S
C986 C985 1.349 . S
C986 C998 1.349 . S
C987 C985 1.327 . S
C987 C1003 1.429 . S
C987 H1009 0.950 . S
C988 H984 0.949 . S
C988 C996 1.574 . S
C988 C1004 1.368 . S
H989 C997 0.950 . S
H990 C995 0.950 . S
H991 C996 0.949 . S
H992 C998 0.950 . S
H993 C999 0.950 . S
H994 C1000 0.949 . S
C995 H990 0.950 . S
C995 C997 1.327 . S
C995 C1001 1.429 . S
C996 C988 1.574 . S
C996 H991 0.949 . S
C996 C1002 1.368 . S
C997 C981 1.349 . S
C997 H989 0.950 . S
C997 C995 1.327 . S
C998 C986 1.349 . S
C998 H992 0.950 . S
C998 C999 1.327 . S
C999 H993 0.950 . S
C999 C998 1.327 . S
C999 C1003 1.429 . S
C1000 C983 1.574 . S
C1000 H994 0.949 . S
C1000 C1004 1.368 . S
C1001 C982 1.429 . S
C1001 C995 1.429 . S
C1001 C1002 1.523 . S
C1002 C983 1.368 . S
C1002 C996 1.368 . S
C1002 C1001 1.523 . S
C1003 C987 1.429 . S
C1003 C999 1.429 . S
C1003 C1004 1.523 . S
C1004 C988 1.368 . S
C1004 C1000 1.368 . S
C1004 C1003 1.523 . S
H1005 C980 0.950 . S
H1006 C982 0.950 . S
H1007 C983 0.949 . S
H1008 C985 0.950 . S
H1009 C987 0.950 . S
C1010 C1011 1.349 . S
C1010 C1012 1.327 . S
C1010 H1035 0.950 . S
C1011 C1010 1.349 . S
C1011 C1027 1.349 . S
C1012 C1010 1.327 . S
C1012 C1031 1.429 . S
C1012 H1036 0.950 . S
C1013 C1030 1.574 . S
C1013 C1032 1.368 . S
C1013 H1037 0.949 . S
H1014 C1018 0.949 . S
C1015 C1016 1.349 . S
C1015 C1017 1.327 . S
C1015 H1038 0.950 . S
C1016 C1015 1.349 . S
C1016 C1028 1.349 . S
C1017 C1015 1.327 . S
C1017 C1033 1.429 . S
C1017 H1039 0.950 . S
C1018 H1014 0.949 . S
C1018 C1026 1.574 . S
C1018 C1034 1.368 . S
H1019 C1027 0.950 . S
H1020 C1025 0.950 . S
H1021 C1026 0.949 . S
H1022 C1028 0.950 . S
H1023 C1029 0.950 . S
H1024 C1030 0.949 . S
C1025 H1020 0.950 . S
C1025 C1027 1.327 . S
C1025 C1031 1.429 . S
C1026 C1018 1.574 . S
C1026 H1021 0.949 . S
C1026 C1032 1.368 . S
C1027 C1011 1.349 . S
C1027 H1019 0.950 . S
C1027 C1025 1.327 . S
C1028 C1016 1.349 . S
C1028 H1022 0.950 . S
C1028 C1029 1.327 . S
C1029 H1023 0.950 . S
C1029 C1028 1.327 . S
C1029 C1033 1.429 . S
C1030 C1013 1.574 . S
C1030 H1024 0.949 . S
C1030 C1034 1.368 . S
C1031 C1012 1.429 . S
C1031 C1025 1.429 . S
C1031 C1032 1.523 . S
C1032 C1013 1.368 . S
C1032 C1026 1.368 . S
C1032 C1031 1.523 . S
C1033 C1017 1.429 . S
C1033 C1029 1.429 . S
C1033 C1034 1.523 . S
C1034 C1018 1.368 . S
C1034 C1030 1.368 . S
C1034 C1033 1.523 . S
H1035 C1010 0.950 . S
H1036 C1012 0.950 . S
H1037 C1013 0.949 . S
H1038 C1015 0.950 . S
H1039 C1017 0.950 . S
C1040 C1041 1.349 . S
C1040 C1042 1.327 . S
C1040 H1065 0.950 . S
C1041 C1040 1.349 . S
C1041 C1057 1.349 . S
C1042 C1040 1.327 . S
C1042 C1061 1.429 . S
C1042 H1066 0.950 . S
C1043 C1060 1.574 . S
C1043 C1062 1.368 . S
C1043 H1067 0.949 . S
H1044 C1048 0.949 . S
C1045 C1046 1.349 . S
C1045 C1047 1.327 . S
C1045 H1068 0.950 . S
C1046 C1045 1.349 . S
C1046 C1058 1.349 . S
C1047 C1045 1.327 . S
C1047 C1063 1.429 . S
C1047 H1069 0.950 . S
C1048 H1044 0.949 . S
C1048 C1056 1.574 . S
C1048 C1064 1.368 . S
H1049 C1057 0.950 . S
H1050 C1055 0.950 . S
H1051 C1056 0.949 . S
H1052 C1058 0.950 . S
H1053 C1059 0.950 . S
H1054 C1060 0.949 . S
C1055 H1050 0.950 . S
C1055 C1057 1.327 . S
C1055 C1061 1.429 . S
C1056 C1048 1.574 . S
C1056 H1051 0.949 . S
C1056 C1062 1.368 . S
C1057 C1041 1.349 . S
C1057 H1049 0.950 . S
C1057 C1055 1.327 . S
C1058 C1046 1.349 . S
C1058 H1052 0.950 . S
C1058 C1059 1.327 . S
C1059 H1053 0.950 . S
C1059 C1058 1.327 . S
C1059 C1063 1.429 . S
C1060 C1043 1.574 . S
C1060 H1054 0.949 . S
C1060 C1064 1.368 . S
C1061 C1042 1.429 . S
C1061 C1055 1.429 . S
C1061 C1062 1.523 . S
C1062 C1043 1.368 . S
C1062 C1056 1.368 . S
C1062 C1061 1.523 . S
C1063 C1047 1.429 . S
C1063 C1059 1.429 . S
C1063 C1064 1.523 . S
C1064 C1048 1.368 . S
C1064 C1060 1.368 . S
C1064 C1063 1.523 . S
H1065 C1040 0.950 . S
H1066 C1042 0.950 . S
H1067 C1043 0.949 . S
H1068 C1045 0.950 . S
H1069 C1047 0.950 . S
C1070 C1071 1.349 . S
C1070 C1072 1.327 . S
C1070 H1095 0.950 . S
C1071 C1070 1.349 . S
C1071 C1087 1.349 . S
C1072 C1070 1.327 . S
C1072 C1091 1.429 . S
C1072 H1096 0.950 . S
C1073 C1090 1.574 . S
C1073 C1092 1.368 . S
C1073 H1097 0.949 . S
H1074 C1078 0.949 . S
C1075 C1076 1.349 . S
C1075 C1077 1.327 . S
C1075 H1098 0.950 . S
C1076 C1075 1.349 . S
C1076 C1088 1.349 . S
C1077 C1075 1.327 . S
C1077 C1093 1.429 . S
C1077 H1099 0.950 . S
C1078 H1074 0.949 . S
C1078 C1086 1.574 . S
C1078 C1094 1.368 . S
H1079 C1087 0.950 . S
H1080 C1085 0.950 . S
H1081 C1086 0.949 . S
H1082 C1088 0.950 . S
H1083 C1089 0.950 . S
H1084 C1090 0.949 . S
C1085 H1080 0.950 . S
C1085 C1087 1.327 . S
C1085 C1091 1.429 . S
C1086 C1078 1.574 . S
C1086 H1081 0.949 . S
C1086 C1092 1.368 . S
C1087 C1071 1.349 . S
C1087 H1079 0.950 . S
C1087 C1085 1.327 . S
C1088 C1076 1.349 . S
C1088 H1082 0.950 . S
C1088 C1089 1.327 . S
C1089 H1083 0.950 . S
C1089 C1088 1.327 . S
C1089 C1093 1.429 . S
C1090 C1073 1.574 . S
C1090 H1084 0.949 . S
C1090 C1094 1.368 . S
C1091 C1072 1.429 . S
C1091 C1085 1.429 . S
C1091 C1092 1.523 . S
C1092 C1073 1.368 . S
C1092 C1086 1.368 . S
C1092 C1091 1.523 . S
C1093 C1077 1.429 . S
C1093 C1089 1.429 . S
C1093 C1094 1.523 . S
C1094 C1078 1.368 . S
C1094 C1090 1.368 . S
C1094 C1093 1.523 . S
H1095 C1070 0.950 . S
H1096 C1072 0.950 . S
H1097 C1073 0.949 . S
H1098 C1075 0.950 . S
H1099 C1077 0.950 . S
C1100 C1101 1.349 . S
C1100 C1102 1.327 . S
C1100 H1125 0.950 . S
C1101 C1100 1.349 . S
C1101 C1117 1.349 . S
C1102 C1100 1.327 . S
C1102 C1121 1.429 . S
C1102 H1126 0.950 . S
C1103 C1120 1.574 . S
C1103 C1122 1.368 . S
C1103 H1127 0.949 . S
H1104 C1108 0.949 . S
C1105 C1106 1.349 . S
C1105 C1107 1.327 . S
C1105 H1128 0.950 . S
C1106 C1105 1.349 . S
C1106 C1118 1.349 . S
C1107 C1105 1.327 . S
C1107 C1123 1.429 . S
C1107 H1129 0.950 . S
C1108 H1104 0.949 . S
C1108 C1116 1.574 . S
C1108 C1124 1.368 . S
H1109 C1117 0.950 . S
H1110 C1115 0.950 . S
H1111 C1116 0.949 . S
H1112 C1118 0.950 . S
H1113 C1119 0.950 . S
H1114 C1120 0.949 . S
C1115 H1110 0.950 . S
C1115 C1117 1.327 . S
C1115 C1121 1.429 . S
C1116 C1108 1.574 . S
C1116 H1111 0.949 . S
C1116 C1122 1.368 . S
C1117 C1101 1.349 . S
C1117 H1109 0.950 . S
C1117 C1115 1.327 . S
C1118 C1106 1.349 . S
C1118 H1112 0.950 . S
C1118 C1119 1.327 . S
C1119 H1113 0.950 . S
C1119 C1118 1.327 . S
C1119 C1123 1.429 . S
C1120 C1103 1.574 . S
C1120 H1114 0.949 . S
C1120 C1124 1.368 . S
C1121 C1102 1.429 . S
C1121 C1115 1.429 . S
C1121 C1122 1.523 . S
C1122 C1103 1.368 . S
C1122 C1116 1.368 . S
C1122 C1121 1.523 . S
C1123 C1107 1.429 . S
C1123 C1119 1.429 . S
C1123 C1124 1.523 . S
C1124 C1108 1.368 . S
C1124 C1120 1.368 . S
C1124 C1123 1.523 . S
H1125 C1100 0.950 . S
H1126 C1102 0.950 . S
H1127 C1103 0.949 . S
H1128 C1105 0.950 . S
H1129 C1107 0.950 . S
C1130 C1131 1.349 . S
C1130 C1132 1.327 . S
C1130 H1155 0.950 . S
C1131 C1130 1.349 . S
C1131 C1147 1.349 . S
C1132 C1130 1.327 . S
C1132 C1151 1.429 . S
C1132 H1156 0.950 . S
C1133 C1150 1.574 . S
C1133 C1152 1.368 . S
C1133 H1157 0.949 . S
H1134 C1138 0.949 . S
C1135 C1136 1.349 . S
C1135 C1137 1.327 . S
C1135 H1158 0.950 . S
C1136 C1135 1.349 . S
C1136 C1148 1.349 . S
C1137 C1135 1.327 . S
C1137 C1153 1.429 . S
C1137 H1159 0.950 . S
C1138 H1134 0.949 . S
C1138 C1146 1.574 . S
C1138 C1154 1.368 . S
H1139 C1147 0.950 . S
H1140 C1145 0.950 . S
H1141 C1146 0.949 . S
H1142 C1148 0.950 . S
H1143 C1149 0.950 . S
H1144 C1150 0.949 . S
C1145 H1140 0.950 . S
C1145 C1147 1.327 . S
C1145 C1151 1.429 . S
C1146 C1138 1.574 . S
C1146 H1141 0.949 . S
C1146 C1152 1.368 . S
C1147 C1131 1.349 . S
C1147 H1139 0.950 . S
C1147 C1145 1.327 . S
C1148 C1136 1.349 . S
C1148 H1142 0.950 . S
C1148 C1149 1.327 . S
C1149 H1143 0.950 . S
C1149 C1148 1.327 . S
C1149 C1153 1.429 . S
C1150 C1133 1.574 . S
C1150 H1144 0.949 . S
C1150 C1154 1.368 . S
C1151 C1132 1.429 . S
C1151 C1145 1.429 . S
C1151 C1152 1.523 . S
C1152 C1133 1.368 . S
C1152 C1146 1.368 . S
C1152 C1151 1.523 . S
C1153 C1137 1.429 . S
C1153 C1149 1.429 . S
C1153 C1154 1.523 . S
C1154 C1138 1.368 . S
C1154 C1150 1.368 . S
C1154 C1153 1.523 . S
H1155 C1130 0.950 . S
H1156 C1132 0.950 . S
H1157 C1133 0.949 . S
H1158 C1135 0.950 . S
H1159 C1137 0.950 . S
C1160 C1161 1.349 . S
C1160 C1162 1.327 . S
C1160 H1185 0.950 . S
C1161 C1160 1.349 . S
C1161 C1177 1.349 . S
C1162 C1160 1.327 . S
C1162 C1181 1.429 . S
C1162 H1186 0.950 . S
C1163 C1180 1.574 . S
C1163 C1182 1.368 . S
C1163 H1187 0.949 . S
H1164 C1168 0.949 . S
C1165 C1166 1.349 . S
C1165 C1167 1.327 . S
C1165 H1188 0.950 . S
C1166 C1165 1.349 . S
C1166 C1178 1.349 . S
C1167 C1165 1.327 . S
C1167 C1183 1.429 . S
C1167 H1189 0.950 . S
C1168 H1164 0.949 . S
C1168 C1176 1.574 . S
C1168 C1184 1.368 . S
H1169 C1177 0.950 . S
H1170 C1175 0.950 . S
H1171 C1176 0.949 . S
H1172 C1178 0.950 . S
H1173 C1179 0.950 . S
H1174 C1180 0.949 . S
C1175 H1170 0.950 . S
C1175 C1177 1.327 . S
C1175 C1181 1.429 . S
C1176 C1168 1.574 . S
C1176 H1171 0.949 . S
C1176 C1182 1.368 . S
C1177 C1161 1.349 . S
C1177 H1169 0.950 . S
C1177 C1175 1.327 . S
C1178 C1166 1.349 . S
C1178 H1172 0.950 . S
C1178 C1179 1.327 . S
C1179 H1173 0.950 . S
C1179 C1178 1.327 . S
C1179 C1183 1.429 . S
C1180 C1163 1.574 . S
C1180 H1174 0.949 . S
C1180 C1184 1.368 . S
C1181 C1162 1.429 . S
C1181 C1175 1.429 . S
C1181 C1182 1.523 . S
C1182 C1163 1.368 . S
C1182 C1176 1.368 . S
C1182 C1181 1.523 . S
C1183 C1167 1.429 . S
C1183 C1179 1.429 . S
C1183 C1184 1.523 . S
C1184 C1168 1.368 . S
C1184 C1180 1.368 . S
C1184 C1183 1.523 . S
H1185 C1160 0.950 . S
H1186 C1162 0.950 . S
H1187 C1163 0.949 . S
H1188 C1165 0.950 . S
H1189 C1167 0.950 . S
C1190 C1191 1.349 . S
C1190 C1192 1.327 . S
C1190 H1215 0.950 . S
C1191 C1190 1.349 . S
C1191 C1207 1.349 . S
C1192 C1190 1.327 . S
C1192 C1211 1.429 . S
C1192 H1216 0.950 . S
C1193 C1210 1.574 . S
C1193 C1212 1.368 . S
C1193 H1217 0.949 . S
H1194 C1198 0.949 . S
C1195 C1196 1.349 . S
C1195 C1197 1.327 . S
C1195 H1218 0.950 . S
C1196 C1195 1.349 . S
C1196 C1208 1.349 . S
C1197 C1195 1.327 . S
C1197 C1213 1.429 . S
C1197 H1219 0.950 . S
C1198 H1194 0.949 . S
C1198 C1206 1.574 . S
C1198 C1214 1.368 . S
H1199 C1207 0.950 . S
H1200 C1205 0.950 . S
H1201 C1206 0.949 . S
H1202 C1208 0.950 . S
H1203 C1209 0.950 . S
H1204 C1210 0.949 . S
C1205 H1200 0.950 . S
C1205 C1207 1.327 . S
C1205 C1211 1.429 . S
C1206 C1198 1.574 . S
C1206 H1201 0.949 . S
C1206 C1212 1.368 . S
C1207 C1191 1.349 . S
C1207 H1199 0.950 . S
C1207 C1205 1.327 . S
C1208 C1196 1.349 . S
C1208 H1202 0.950 . S
C1208 C1209 1.327 . S
C1209 H1203 0.950 . S
C1209 C1208 1.327 . S
C1209 C1213 1.429 . S
C1210 C1193 1.574 . S
C1210 H1204 0.949 . S
C1210 C1214 1.368 . S
C1211 C1192 1.429 . S
C1211 C1205 1.429 . S
C1211 C1212 1.523 . S
C1212 C1193 1.368 . S
C1212 C1206 1.368 . S
C1212 C1211 1.523 . S
C1213 C1197 1.429 . S
C1213 C1209 1.429 . S
C1213 C1214 1.523 . S
C1214 C1198 1.368 . S
C1214 C1210 1.368 . S
C1214 C1213 1.523 . S
H1215 C1190 0.950 . S
H1216 C1192 0.950 . S
H1217 C1193 0.949 . S
H1218 C1195 0.950 . S
H1219 C1197 0.950 . S
C1220 C1221 1.349 . S
C1220 C1222 1.327 . S
C1220 H1245 0.950 . S
C1221 C1220 1.349 . S
C1221 C1237 1.349 . S
C1222 C1220 1.327 . S
C1222 C1241 1.429 . S
C1222 H1246 0.950 . S
C1223 C1240 1.574 . S
C1223 C1242 1.368 1_554 S
C1223 H1247 0.949 . S
H1224 C1228 0.949 . S
C1225 C1226 1.349 1_554 S
C1225 C1227 1.327 . S
C1225 H1248 0.950 . S
C1226 C1225 1.349 1_556 S
C1226 C1238 1.349 . S
C1227 C1225 1.327 . S
C1227 C1243 1.429 1_554 S
C1227 H1249 0.950 . S
C1228 H1224 0.949 . S
C1228 C1236 1.574 . S
C1228 C1244 1.368 . S
H1229 C1237 0.950 1_554 S
H1230 C1235 0.950 1_554 S
H1231 C1236 0.949 . S
H1232 C1238 0.950 . S
H1233 C1239 0.950 . S
H1234 C1240 0.949 . S
C1235 H1230 0.950 1_556 S
C1235 C1237 1.327 . S
C1235 C1241 1.429 . S
C1236 C1228 1.574 . S
C1236 H1231 0.949 . S
C1236 C1242 1.368 . S
C1237 C1221 1.349 . S
C1237 H1229 0.950 1_556 S
C1237 C1235 1.327 . S
C1238 C1226 1.349 . S
C1238 H1232 0.950 . S
C1238 C1239 1.327 . S
C1239 H1233 0.950 . S
C1239 C1238 1.327 . S
C1239 C1243 1.429 . S
C1240 C1223 1.574 . S
C1240 H1234 0.949 . S
C1240 C1244 1.368 1_554 S
C1241 C1222 1.429 . S
C1241 C1235 1.429 . S
C1241 C1242 1.523 . S
C1242 C1223 1.368 1_556 S
C1242 C1236 1.368 . S
C1242 C1241 1.523 . S
C1243 C1227 1.429 1_556 S
C1243 C1239 1.429 . S
C1243 C1244 1.523 . S
C1244 C1228 1.368 . S
C1244 C1240 1.368 1_556 S
C1244 C1243 1.523 . S
H1245 C1220 0.950 . S
H1246 C1222 0.950 . S
H1247 C1223 0.949 . S
H1248 C1225 0.950 . S
H1249 C1227 0.950 . S
C1250 C1251 1.349 . S
C1250 C1252 1.327 . S
C1250 H1275 0.950 . S
C1251 C1250 1.349 . S
C1251 C1267 1.349 . S
C1252 C1250 1.327 . S
C1252 C1271 1.429 . S
C1252 H1276 0.950 . S
C1253 C1270 1.574 . S
C1253 C1272 1.368 . S
C1253 H1277 0.949 . S
H1254 C1258 0.949 . S
C1255 C1256 1.349 . S
C1255 C1257 1.327 . S
C1255 H1278 0.950 . S
C1256 C1255 1.349 . S
C1256 C1268 1.349 . S
C1257 C1255 1.327 . S
C1257 C1273 1.429 . S
C1257 H1279 0.950 . S
C1258 H1254 0.949 . S
C1258 C1266 1.574 . S
C1258 C1274 1.368 . S
H1259 C1267 0.950 . S
H1260 C1265 0.950 . S
H1261 C1266 0.949 . S
H1262 C1268 0.950 . S
H1263 C1269 0.950 . S
H1264 C1270 0.949 . S
C1265 H1260 0.950 . S
C1265 C1267 1.327 . S
C1265 C1271 1.429 . S
C1266 C1258 1.574 . S
C1266 H1261 0.949 . S
C1266 C1272 1.368 . S
C1267 C1251 1.349 . S
C1267 H1259 0.950 . S
C1267 C1265 1.327 . S
C1268 C1256 1.349 . S
C1268 H1262 0.950 . S
C1268 C1269 1.327 . S
C1269 H1263 0.950 . S
C1269 C1268 1.327 . S
C1269 C1273 1.429 . S
C1270 C1253 1.574 . S
C1270 H1264 0.949 . S
C1270 C1274 1.368 . S
C1271 C1252 1.429 . S
C1271 C1265 1.429 . S
C1271 C1272 1.523 . S
C1272 C1253 1.368 . S
C1272 C1266 1.368 . S
C1272 C1271 1.523 . S
C1273 C1257 1.429 . S
C1273 C1269 1.429 . S
C1273 C1274 1.523 . S
C1274 C1258 1.368 . S
C1274 C1270 1.368 . S
C1274 C1273 1.523 . S
H1275 C1250 0.950 . S
H1276 C1252 0.950 . S
H1277 C1253 0.949 . S
H1278 C1255 0.950 . S
H1279 C1257 0.950 . S
C1280 C1281 1.349 . S
C1280 C1282 1.327 . S
C1280 H1305 0.950 . S
C1281 C1280 1.349 . S
C1281 C1297 1.349 . S
C1282 C1280 1.327 . S
C1282 C1301 1.429 . S
C1282 H1306 0.950 . S
C1283 C1300 1.574 . S
C1283 C1302 1.368 . S
C1283 H1307 0.949 . S
H1284 C1288 0.949 . S
C1285 C1286 1.349 . S
C1285 C1287 1.327 . S
C1285 H1308 0.950 . S
C1286 C1285 1.349 . S
C1286 C1298 1.349 . S
C1287 C1285 1.327 . S
C1287 C1303 1.429 . S
C1287 H1309 0.950 . S
C1288 H1284 0.949 . S
C1288 C1296 1.574 . S
C1288 C1304 1.368 . S
H1289 C1297 0.950 . S
H1290 C1295 0.950 . S
H1291 C1296 0.949 . S
H1292 C1298 0.950 . S
H1293 C1299 0.950 . S
H1294 C1300 0.949 . S
C1295 H1290 0.950 . S
C1295 C1297 1.327 . S
C1295 C1301 1.429 . S
C1296 C1288 1.574 . S
C1296 H1291 0.949 . S
C1296 C1302 1.368 . S
C1297 C1281 1.349 . S
C1297 H1289 0.950 . S
C1297 C1295 1.327 . S
C1298 C1286 1.349 . S
C1298 H1292 0.950 . S
C1298 C1299 1.327 . S
C1299 H1293 0.950 . S
C1299 C1298 1.327 . S
C1299 C1303 1.429 . S
C1300 C1283 1.574 . S
C1300 H1294 0.949 . S
C1300 C1304 1.368 . S
C1301 C1282 1.429 . S
C1301 C1295 1.429 . S
C1301 C1302 1.523 . S
C1302 C1283 1.368 . S
C1302 C1296 1.368 . S
C1302 C1301 1.523 . S
C1303 C1287 1.429 . S
C1303 C1299 1.429 . S
C1303 C1304 1.523 . S
C1304 C1288 1.368 . S
C1304 C1300 1.368 . S
C1304 C1303 1.523 . S
H1305 C1280 0.950 . S
H1306 C1282 0.950 . S
H1307 C1283 0.949 . S
H1308 C1285 0.950 . S
H1309 C1287 0.950 . S
C1310 C1311 1.349 . S
C1310 C1312 1.327 . S
C1310 H1335 0.950 . S
C1311 C1310 1.349 . S
C1311 C1327 1.349 . S
C1312 C1310 1.327 . S
C1312 C1331 1.429 . S
C1312 H1336 0.950 . S
C1313 C1330 1.574 . S
C1313 C1332 1.368 . S
C1313 H1337 0.949 . S
H1314 C1318 0.949 . S
C1315 C1316 1.349 . S
C1315 C1317 1.327 . S
C1315 H1338 0.950 . S
C1316 C1315 1.349 . S
C1316 C1328 1.349 . S
C1317 C1315 1.327 . S
C1317 C1333 1.429 . S
C1317 H1339 0.950 . S
C1318 H1314 0.949 . S
C1318 C1326 1.574 . S
C1318 C1334 1.368 . S
H1319 C1327 0.950 . S
H1320 C1325 0.950 . S
H1321 C1326 0.949 . S
H1322 C1328 0.950 . S
H1323 C1329 0.950 . S
H1324 C1330 0.949 . S
C1325 H1320 0.950 . S
C1325 C1327 1.327 . S
C1325 C1331 1.429 . S
C1326 C1318 1.574 . S
C1326 H1321 0.949 . S
C1326 C1332 1.368 . S
C1327 C1311 1.349 . S
C1327 H1319 0.950 . S
C1327 C1325 1.327 . S
C1328 C1316 1.349 . S
C1328 H1322 0.950 . S
C1328 C1329 1.327 . S
C1329 H1323 0.950 . S
C1329 C1328 1.327 . S
C1329 C1333 1.429 . S
C1330 C1313 1.574 . S
C1330 H1324 0.949 . S
C1330 C1334 1.368 . S
C1331 C1312 1.429 . S
C1331 C1325 1.429 . S
C1331 C1332 1.523 . S
C1332 C1313 1.368 . S
C1332 C1326 1.368 . S
C1332 C1331 1.523 . S
C1333 C1317 1.429 . S
C1333 C1329 1.429 . S
C1333 C1334 1.523 . S
C1334 C1318 1.368 . S
C1334 C1330 1.368 . S
C1334 C1333 1.523 . S
H1335 C1310 0.950 . S
H1336 C1312 0.950 . S
H1337 C1313 0.949 . S
H1338 C1315 0.950 . S
H1339 C1317 0.950 . S
C1340 C1341 1.349 . S
C1340 C1342 1.327 . S
C1340 H1365 0.950 . S
C1341 C1340 1.349 . S
C1341 C1357 1.349 . S
C1342 C1340 1.327 . S
C1342 C1361 1.429 . S
C1342 H1366 0.950 . S
C1343 C1360 1.574 . S
C1343 C1362 1.368 . S
C1343 H1367 0.949 . S
H1344 C1348 0.949 . S
C1345 C1346 1.349 . S
C1345 C1347 1.327 . S
C1345 H1368 0.950 . S
C1346 C1345 1.349 . S
C1346 C1358 1.349 . S
C1347 C1345 1.327 . S
C1347 C1363 1.429 . S
C1347 H1369 0.950 . S
C1348 H1344 0.949 . S
C1348 C1356 1.574 . S
C1348 C1364 1.368 . S
H1349 C1357 0.950 1_565 S
H1350 C1355 0.950 . S
H1351 C1356 0.949 . S
H1352 C1358 0.950 . S
H1353 C1359 0.950 . S
H1354 C1360 0.949 . S
C1355 H1350 0.950 . S
C1355 C1357 1.327 . S
C1355 C1361 1.429 . S
C1356 C1348 1.574 . S
C1356 H1351 0.949 . S
C1356 C1362 1.368 . S
C1357 C1341 1.349 . S
C1357 H1349 0.950 1_545 S
C1357 C1355 1.327 . S
C1358 C1346 1.349 . S
C1358 H1352 0.950 . S
C1358 C1359 1.327 . S
C1359 H1353 0.950 . S
C1359 C1358 1.327 . S
C1359 C1363 1.429 . S
C1360 C1343 1.574 . S
C1360 H1354 0.949 . S
C1360 C1364 1.368 . S
C1361 C1342 1.429 . S
C1361 C1355 1.429 . S
C1361 C1362 1.523 . S
C1362 C1343 1.368 . S
C1362 C1356 1.368 . S
C1362 C1361 1.523 . S
C1363 C1347 1.429 . S
C1363 C1359 1.429 . S
C1363 C1364 1.523 . S
C1364 C1348 1.368 . S
C1364 C1360 1.368 . S
C1364 C1363 1.523 . S
H1365 C1340 0.950 . S
H1366 C1342 0.950 . S
H1367 C1343 0.949 . S
H1368 C1345 0.950 . S
H1369 C1347 0.950 . S
C1370 C1371 1.349 . S
C1370 C1372 1.327 . S
C1370 H1395 0.950 . S
C1371 C1370 1.349 . S
C1371 C1387 1.349 . S
C1372 C1370 1.327 . S
C1372 C1391 1.429 . S
C1372 H1396 0.950 . S
C1373 C1390 1.574 . S
C1373 C1392 1.368 . S
C1373 H1397 0.949 . S
H1374 C1378 0.949 . S
C1375 C1376 1.349 . S
C1375 C1377 1.327 . S
C1375 H1398 0.950 . S
C1376 C1375 1.349 . S
C1376 C1388 1.349 . S
C1377 C1375 1.327 . S
C1377 C1393 1.429 . S
C1377 H1399 0.950 . S
C1378 H1374 0.949 . S
C1378 C1386 1.574 . S
C1378 C1394 1.368 . S
H1379 C1387 0.950 . S
H1380 C1385 0.950 . S
H1381 C1386 0.949 . S
H1382 C1388 0.950 . S
H1383 C1389 0.950 . S
H1384 C1390 0.949 . S
C1385 H1380 0.950 . S
C1385 C1387 1.327 . S
C1385 C1391 1.429 . S
C1386 C1378 1.574 . S
C1386 H1381 0.949 . S
C1386 C1392 1.368 . S
C1387 C1371 1.349 . S
C1387 H1379 0.950 . S
C1387 C1385 1.327 . S
C1388 C1376 1.349 . S
C1388 H1382 0.950 . S
C1388 C1389 1.327 . S
C1389 H1383 0.950 . S
C1389 C1388 1.327 . S
C1389 C1393 1.429 . S
C1390 C1373 1.574 . S
C1390 H1384 0.949 . S
C1390 C1394 1.368 . S
C1391 C1372 1.429 . S
C1391 C1385 1.429 . S
C1391 C1392 1.523 . S
C1392 C1373 1.368 . S
C1392 C1386 1.368 . S
C1392 C1391 1.523 . S
C1393 C1377 1.429 . S
C1393 C1389 1.429 . S
C1393 C1394 1.523 . S
C1394 C1378 1.368 . S
C1394 C1390 1.368 . S
C1394 C1393 1.523 . S
H1395 C1370 0.950 . S
H1396 C1372 0.950 . S
H1397 C1373 0.949 . S
H1398 C1375 0.950 . S
H1399 C1377 0.950 . S
C1400 C1401 1.349 . S
C1400 C1402 1.327 . S
C1400 H1425 0.950 . S
C1401 C1400 1.349 . S
C1401 C1417 1.349 . S
C1402 C1400 1.327 . S
C1402 C1421 1.429 . S
C1402 H1426 0.950 . S
C1403 C1420 1.574 . S
C1403 C1422 1.368 . S
C1403 H1427 0.949 . S
H1404 C1408 0.949 . S
C1405 C1406 1.349 . S
C1405 C1407 1.327 . S
C1405 H1428 0.950 . S
C1406 C1405 1.349 . S
C1406 C1418 1.349 . S
C1407 C1405 1.327 . S
C1407 C1423 1.429 . S
C1407 H1429 0.950 . S
C1408 H1404 0.949 . S
C1408 C1416 1.574 . S
C1408 C1424 1.368 . S
H1409 C1417 0.950 . S
H1410 C1415 0.950 . S
H1411 C1416 0.949 . S
H1412 C1418 0.950 . S
H1413 C1419 0.950 . S
H1414 C1420 0.949 . S
C1415 H1410 0.950 . S
C1415 C1417 1.327 . S
C1415 C1421 1.429 . S
C1416 C1408 1.574 . S
C1416 H1411 0.949 . S
C1416 C1422 1.368 . S
C1417 C1401 1.349 . S
C1417 H1409 0.950 . S
C1417 C1415 1.327 . S
C1418 C1406 1.349 . S
C1418 H1412 0.950 . S
C1418 C1419 1.327 . S
C1419 H1413 0.950 . S
C1419 C1418 1.327 . S
C1419 C1423 1.429 . S
C1420 C1403 1.574 . S
C1420 H1414 0.949 . S
C1420 C1424 1.368 . S
C1421 C1402 1.429 . S
C1421 C1415 1.429 . S
C1421 C1422 1.523 . S
C1422 C1403 1.368 . S
C1422 C1416 1.368 . S
C1422 C1421 1.523 . S
C1423 C1407 1.429 . S
C1423 C1419 1.429 . S
C1423 C1424 1.523 . S
C1424 C1408 1.368 . S
C1424 C1420 1.368 . S
C1424 C1423 1.523 . S
H1425 C1400 0.950 . S
H1426 C1402 0.950 . S
H1427 C1403 0.949 . S
H1428 C1405 0.950 . S
H1429 C1407 0.950 . S
C1430 C1431 1.349 . S
C1430 C1432 1.327 . S
C1430 H1455 0.950 1_545 S
C1431 C1430 1.349 . S
C1431 C1447 1.349 . S
C1432 C1430 1.327 . S
C1432 C1451 1.429 . S
C1432 H1456 0.950 1_545 S
C1433 C1450 1.574 . S
C1433 C1452 1.368 . S
C1433 H1457 0.949 . S
H1434 C1438 0.949 . S
C1435 C1436 1.349 . S
C1435 C1437 1.327 . S
C1435 H1458 0.950 . S
C1436 C1435 1.349 . S
C1436 C1448 1.349 1_545 S
C1437 C1435 1.327 . S
C1437 C1453 1.429 . S
C1437 H1459 0.950 . S
C1438 H1434 0.949 . S
C1438 C1446 1.573 1_565 S
C1438 C1454 1.368 1_565 S
H1439 C1447 0.950 . S
H1440 C1445 0.950 . S
H1441 C1446 0.946 1_565 S
H1442 C1448 0.950 . S
H1443 C1449 0.950 . S
H1444 C1450 0.949 . S
C1445 H1440 0.950 . S
C1445 C1447 1.327 . S
C1445 C1451 1.429 . S
C1446 C1438 1.573 1_545 S
C1446 H1441 0.946 1_545 S
C1446 C1452 1.372 . S
C1447 C1431 1.349 . S
C1447 H1439 0.950 . S
C1447 C1445 1.327 . S
C1448 C1436 1.349 1_565 S
C1448 H1442 0.950 . S
C1448 C1449 1.327 . S
C1449 H1443 0.950 . S
C1449 C1448 1.327 . S
C1449 C1453 1.429 1_565 S
C1450 C1433 1.574 . S
C1450 H1444 0.949 . S
C1450 C1454 1.368 . S
C1451 C1432 1.429 . S
C1451 C1445 1.429 . S
C1451 C1452 1.523 . S
C1452 C1433 1.368 . S
C1452 C1446 1.372 . S
C1452 C1451 1.523 . S
C1453 C1437 1.429 . S
C1453 C1449 1.429 1_545 S
C1453 C1454 1.523 . S
C1454 C1438 1.368 1_545 S
C1454 C1450 1.368 . S
C1454 C1453 1.523 . S
H1455 C1430 0.950 1_565 S
H1456 C1432 0.950 1_565 S
H1457 C1433 0.949 . S
H1458 C1435 0.950 . S
H1459 C1437 0.950 . S
C1460 C1461 1.349 . S
C1460 C1462 1.327 . S
C1460 H1485 0.950 . S
C1461 C1460 1.349 . S
C1461 C1477 1.349 . S
C1462 C1460 1.327 . S
C1462 C1481 1.429 . S
C1462 H1486 0.950 . S
C1463 C1480 1.574 . S
C1463 C1482 1.368 . S
C1463 H1487 0.949 . S
H1464 C1468 0.949 . S
C1465 C1466 1.349 . S
C1465 C1467 1.327 . S
C1465 H1488 0.950 . S
C1466 C1465 1.349 . S
C1466 C1478 1.349 . S
C1467 C1465 1.327 . S
C1467 C1483 1.429 . S
C1467 H1489 0.950 . S
C1468 H1464 0.949 . S
C1468 C1476 1.574 . S
C1468 C1484 1.368 . S
H1469 C1477 0.950 . S
H1470 C1475 0.950 . S
H1471 C1476 0.949 . S
H1472 C1478 0.950 . S
H1473 C1479 0.950 . S
H1474 C1480 0.949 . S
C1475 H1470 0.950 . S
C1475 C1477 1.327 . S
C1475 C1481 1.429 . S
C1476 C1468 1.574 . S
C1476 H1471 0.949 . S
C1476 C1482 1.368 . S
C1477 C1461 1.349 . S
C1477 H1469 0.950 . S
C1477 C1475 1.327 . S
C1478 C1466 1.349 . S
C1478 H1472 0.950 . S
C1478 C1479 1.327 . S
C1479 H1473 0.950 . S
C1479 C1478 1.327 . S
C1479 C1483 1.429 . S
C1480 C1463 1.574 . S
C1480 H1474 0.949 . S
C1480 C1484 1.368 . S
C1481 C1462 1.429 . S
C1481 C1475 1.429 . S
C1481 C1482 1.523 . S
C1482 C1463 1.368 . S
C1482 C1476 1.368 . S
C1482 C1481 1.523 . S
C1483 C1467 1.429 . S
C1483 C1479 1.429 . S
C1483 C1484 1.523 . S
C1484 C1468 1.368 . S
C1484 C1480 1.368 . S
C1484 C1483 1.523 . S
H1485 C1460 0.950 . S
H1486 C1462 0.950 . S
H1487 C1463 0.949 . S
H1488 C1465 0.950 . S
H1489 C1467 0.950 . S
C1490 C1491 1.349 . S
C1490 C1492 1.327 . S
C1490 H1515 0.950 . S
C1491 C1490 1.349 . S
C1491 C1507 1.349 . S
C1492 C1490 1.327 . S
C1492 C1511 1.429 . S
C1492 H1516 0.950 . S
C1493 C1510 1.574 . S
C1493 C1512 1.368 . S
C1493 H1517 0.949 . S
H1494 C1498 0.949 . S
C1495 C1496 1.349 . S
C1495 C1497 1.327 . S
C1495 H1518 0.950 . S
C1496 C1495 1.349 . S
C1496 C1508 1.349 . S
C1497 C1495 1.327 . S
C1497 C1513 1.429 . S
C1497 H1519 0.950 . S
C1498 H1494 0.949 . S
C1498 C1506 1.574 . S
C1498 C1514 1.368 . S
H1499 C1507 0.950 . S
H1500 C1505 0.950 . S
H1501 C1506 0.949 . S
H1502 C1508 0.950 . S
H1503 C1509 0.950 . S
H1504 C1510 0.949 . S
C1505 H1500 0.950 . S
C1505 C1507 1.327 . S
C1505 C1511 1.429 . S
C1506 C1498 1.574 . S
C1506 H1501 0.949 . S
C1506 C1512 1.368 . S
C1507 C1491 1.349 . S
C1507 H1499 0.950 . S
C1507 C1505 1.327 . S
C1508 C1496 1.349 . S
C1508 H1502 0.950 . S
C1508 C1509 1.327 . S
C1509 H1503 0.950 . S
C1509 C1508 1.327 . S
C1509 C1513 1.429 . S
C1510 C1493 1.574 . S
C1510 H1504 0.949 . S
C1510 C1514 1.368 . S
C1511 C1492 1.429 . S
C1511 C1505 1.429 . S
C1511 C1512 1.523 . S
C1512 C1493 1.368 . S
C1512 C1506 1.368 . S
C1512 C1511 1.523 . S
C1513 C1497 1.429 . S
C1513 C1509 1.429 . S
C1513 C1514 1.523 . S
C1514 C1498 1.368 . S
C1514 C1510 1.368 . S
C1514 C1513 1.523 . S
H1515 C1490 0.950 . S
H1516 C1492 0.950 . S
H1517 C1493 0.949 . S
H1518 C1495 0.950 . S
H1519 C1497 0.950 . S
C1520 C1521 1.349 . S
C1520 C1522 1.327 . S
C1520 H1545 0.950 . S
C1521 C1520 1.349 . S
C1521 C1537 1.349 . S
C1522 C1520 1.327 . S
C1522 C1541 1.429 . S
C1522 H1546 0.950 . S
C1523 C1540 1.574 . S
C1523 C1542 1.368 . S
C1523 H1547 0.949 . S
H1524 C1528 0.949 . S
C1525 C1526 1.349 . S
C1525 C1527 1.327 . S
C1525 H1548 0.950 . S
C1526 C1525 1.349 . S
C1526 C1538 1.349 . S
C1527 C1525 1.327 . S
C1527 C1543 1.429 . S
C1527 H1549 0.950 . S
C1528 H1524 0.949 . S
C1528 C1536 1.574 . S
C1528 C1544 1.368 . S
H1529 C1537 0.950 . S
H1530 C1535 0.950 . S
H1531 C1536 0.949 . S
H1532 C1538 0.950 . S
H1533 C1539 0.950 . S
H1534 C1540 0.949 . S
C1535 H1530 0.950 . S
C1535 C1537 1.327 . S
C1535 C1541 1.429 . S
C1536 C1528 1.574 . S
C1536 H1531 0.949 . S
C1536 C1542 1.368 . S
C1537 C1521 1.349 . S
C1537 H1529 0.950 . S
C1537 C1535 1.327 . S
C1538 C1526 1.349 . S
C1538 H1532 0.950 . S
C1538 C1539 1.327 . S
C1539 H1533 0.950 . S
C1539 C1538 1.327 . S
C1539 C1543 1.429 . S
C1540 C1523 1.574 . S
C1540 H1534 0.949 . S
C1540 C1544 1.368 . S
C1541 C1522 1.429 . S
C1541 C1535 1.429 . S
C1541 C1542 1.523 . S
C1542 C1523 1.368 . S
C1542 C1536 1.368 . S
C1542 C1541 1.523 . S
C1543 C1527 1.429 . S
C1543 C1539 1.429 . S
C1543 C1544 1.523 . S
C1544 C1528 1.368 . S
C1544 C1540 1.368 . S
C1544 C1543 1.523 . S
H1545 C1520 0.950 . S
H1546 C1522 0.950 . S
H1547 C1523 0.949 . S
H1548 C1525 0.950 . S
H1549 C1527 0.950 . S
C1550 C1551 1.349 . S
C1550 C1552 1.327 . S
C1550 H1575 0.950 1_655 S
C1551 C1550 1.349 . S
C1551 C1567 1.349 . S
C1552 C1550 1.327 . S
C1552 C1571 1.429 . S
C1552 H1576 0.950 . S
C1553 C1570 1.574 . S
C1553 C1572 1.368 . S
C1553 H1577 0.949 . S
H1554 C1558 0.949 . S
C1555 C1556 1.349 . S
C1555 C1557 1.327 . S
C1555 H1578 0.950 . S
C1556 C1555 1.349 . S
C1556 C1568 1.349 . S
C1557 C1555 1.327 . S
C1557 C1573 1.429 . S
C1557 H1579 0.950 . S
C1558 H1554 0.949 . S
C1558 C1566 1.574 . S
C1558 C1574 1.368 . S
H1559 C1567 0.950 . S
H1560 C1565 0.950 . S
H1561 C1566 0.949 . S
H1562 C1568 0.950 1_565 S
H1563 C1569 0.948 1_565 S
H1564 C1570 0.949 . S
C1565 H1560 0.950 . S
C1565 C1567 1.327 . S
C1565 C1571 1.429 . S
C1566 C1558 1.574 . S
C1566 H1561 0.949 . S
C1566 C1572 1.368 . S
C1567 C1551 1.349 . S
C1567 H1559 0.950 . S
C1567 C1565 1.327 . S
C1568 C1556 1.349 . S
C1568 H1562 0.950 1_545 S
C1568 C1569 1.327 . S
C1569 H1563 0.948 1_545 S
C1569 C1568 1.327 . S
C1569 C1573 1.429 . S
C1570 C1553 1.574 . S
C1570 H1564 0.949 . S
C1570 C1574 1.368 . S
C1571 C1552 1.429 . S
C1571 C1565 1.429 . S
C1571 C1572 1.523 . S
C1572 C1553 1.368 . S
C1572 C1566 1.368 . S
C1572 C1571 1.523 . S
C1573 C1557 1.429 . S
C1573 C1569 1.429 . S
C1573 C1574 1.523 . S
C1574 C1558 1.368 . S
C1574 C1570 1.368 . S
C1574 C1573 1.523 . S
H1575 C1550 0.950 1_455 S
H1576 C1552 0.950 . S
H1577 C1553 0.949 . S
H1578 C1555 0.950 . S
H1579 C1557 0.950 . S
C1580 C1581 1.349 . S
C1580 C1582 1.327 . S
C1580 H1605 0.950 . S
C1581 C1580 1.349 . S
C1581 C1597 1.349 . S
C1582 C1580 1.327 . S
C1582 C1601 1.429 . S
C1582 H1606 0.950 . S
C1583 C1600 1.574 . S
C1583 C1602 1.368 . S
C1583 H1607 0.949 . S
H1584 C1588 0.949 . S
C1585 C1586 1.349 . S
C1585 C1587 1.327 . S
C1585 H1608 0.950 . S
C1586 C1585 1.349 . S
C1586 C1598 1.349 . S
C1587 C1585 1.327 . S
C1587 C1603 1.429 . S
C1587 H1609 0.950 . S
C1588 H1584 0.949 . S
C1588 C1596 1.574 . S
C1588 C1604 1.368 . S
H1589 C1597 0.950 . S
H1590 C1595 0.950 . S
H1591 C1596 0.949 . S
H1592 C1598 0.950 . S
H1593 C1599 0.950 . S
H1594 C1600 0.949 . S
C1595 H1590 0.950 . S
C1595 C1597 1.327 . S
C1595 C1601 1.429 . S
C1596 C1588 1.574 . S
C1596 H1591 0.949 . S
C1596 C1602 1.368 . S
C1597 C1581 1.349 . S
C1597 H1589 0.950 . S
C1597 C1595 1.327 . S
C1598 C1586 1.349 . S
C1598 H1592 0.950 . S
C1598 C1599 1.327 . S
C1599 H1593 0.950 . S
C1599 C1598 1.327 . S
C1599 C1603 1.429 . S
C1600 C1583 1.574 . S
C1600 H1594 0.949 . S
C1600 C1604 1.368 . S
C1601 C1582 1.429 . S
C1601 C1595 1.429 . S
C1601 C1602 1.523 . S
C1602 C1583 1.368 . S
C1602 C1596 1.368 . S
C1602 C1601 1.523 . S
C1603 C1587 1.429 . S
C1603 C1599 1.429 . S
C1603 C1604 1.523 . S
C1604 C1588 1.368 . S
C1604 C1600 1.368 . S
C1604 C1603 1.523 . S
H1605 C1580 0.950 . S
H1606 C1582 0.950 . S
H1607 C1583 0.949 . S
H1608 C1585 0.950 . S
H1609 C1587 0.950 . S
C1610 C1611 1.349 . S
C1610 C1612 1.327 . S
C1610 H1635 0.950 . S
C1611 C1610 1.349 . S
C1611 C1627 1.349 . S
C1612 C1610 1.327 . S
C1612 C1631 1.429 . S
C1612 H1636 0.950 . S
C1613 C1630 1.574 . S
C1613 C1632 1.368 . S
C1613 H1637 0.949 . S
H1614 C1618 0.949 . S
C1615 C1616 1.349 . S
C1615 C1617 1.327 . S
C1615 H1638 0.950 . S
C1616 C1615 1.349 . S
C1616 C1628 1.349 . S
C1617 C1615 1.327 . S
C1617 C1633 1.429 . S
C1617 H1639 0.950 . S
C1618 H1614 0.949 . S
C1618 C1626 1.574 . S
C1618 C1634 1.368 . S
H1619 C1627 0.950 . S
H1620 C1625 0.950 . S
H1621 C1626 0.949 . S
H1622 C1628 0.950 . S
H1623 C1629 0.950 . S
H1624 C1630 0.949 . S
C1625 H1620 0.950 . S
C1625 C1627 1.327 . S
C1625 C1631 1.429 . S
C1626 C1618 1.574 . S
C1626 H1621 0.949 . S
C1626 C1632 1.368 . S
C1627 C1611 1.349 . S
C1627 H1619 0.950 . S
C1627 C1625 1.327 . S
C1628 C1616 1.349 . S
C1628 H1622 0.950 . S
C1628 C1629 1.327 . S
C1629 H1623 0.950 . S
C1629 C1628 1.327 . S
C1629 C1633 1.429 . S
C1630 C1613 1.574 . S
C1630 H1624 0.949 . S
C1630 C1634 1.368 . S
C1631 C1612 1.429 . S
C1631 C1625 1.429 . S
C1631 C1632 1.523 . S
C1632 C1613 1.368 . S
C1632 C1626 1.368 . S
C1632 C1631 1.523 . S
C1633 C1617 1.429 . S
C1633 C1629 1.429 . S
C1633 C1634 1.523 . S
C1634 C1618 1.368 . S
C1634 C1630 1.368 . S
C1634 C1633 1.523 . S
H1635 C1610 0.950 . S
H1636 C1612 0.950 . S
H1637 C1613 0.949 . S
H1638 C1615 0.950 . S
H1639 C1617 0.950 . S
C1640 C1641 1.349 . S
C1640 C1642 1.327 . S
C1640 H1665 0.950 . S
C1641 C1640 1.349 . S
C1641 C1657 1.349 . S
C1642 C1640 1.327 . S
C1642 C1661 1.429 . S
C1642 H1666 0.950 . S
C1643 C1660 1.574 . S
C1643 C1662 1.368 . S
C1643 H1667 0.949 . S
H1644 C1648 0.949 . S
C1645 C1646 1.349 . S
C1645 C1647 1.327 . S
C1645 H1668 0.950 . S
C1646 C1645 1.349 . S
C1646 C1658 1.349 . S
C1647 C1645 1.327 . S
C1647 C1663 1.429 . S
C1647 H1669 0.950 . S
C1648 H1644 0.949 . S
C1648 C1656 1.574 . S
C1648 C1664 1.368 . S
H1649 C1657 0.950 . S
H1650 C1655 0.950 . S
H1651 C1656 0.949 . S
H1652 C1658 0.950 . S
H1653 C1659 0.950 . S
H1654 C1660 0.949 . S
C1655 H1650 0.950 . S
C1655 C1657 1.327 . S
C1655 C1661 1.429 . S
C1656 C1648 1.574 . S
C1656 H1651 0.949 . S
C1656 C1662 1.368 . S
C1657 C1641 1.349 . S
C1657 H1649 0.950 . S
C1657 C1655 1.327 . S
C1658 C1646 1.349 . S
C1658 H1652 0.950 . S
C1658 C1659 1.327 . S
C1659 H1653 0.950 . S
C1659 C1658 1.327 . S
C1659 C1663 1.429 . S
C1660 C1643 1.574 . S
C1660 H1654 0.949 . S
C1660 C1664 1.368 . S
C1661 C1642 1.429 . S
C1661 C1655 1.429 . S
C1661 C1662 1.523 . S
C1662 C1643 1.368 . S
C1662 C1656 1.368 . S
C1662 C1661 1.523 . S
C1663 C1647 1.429 . S
C1663 C1659 1.429 . S
C1663 C1664 1.523 . S
C1664 C1648 1.368 . S
C1664 C1660 1.368 . S
C1664 C1663 1.523 . S
H1665 C1640 0.950 . S
H1666 C1642 0.950 . S
H1667 C1643 0.949 . S
H1668 C1645 0.950 . S
H1669 C1647 0.950 . S
C1670 C1671 1.352 1_556 S
C1670 C1672 1.313 1_655 S
C1670 H1695 0.942 1_655 S
C1671 C1670 1.352 1_554 S
C1671 C1687 1.357 . S
C1672 C1670 1.313 1_455 S
C1672 C1691 1.429 1_455 S
C1672 H1696 0.950 . S
C1673 C1690 1.575 1_655 S
C1673 C1692 1.368 1_655 S
C1673 H1697 0.949 . S
H1674 C1678 0.949 . S
C1675 C1676 1.349 . S
C1675 C1677 1.327 . S
C1675 H1698 0.950 . S
C1676 C1675 1.349 . S
C1676 C1688 1.349 . S
C1677 C1675 1.327 . S
C1677 C1693 1.429 . S
C1677 H1699 0.950 . S
C1678 H1674 0.949 . S
C1678 C1686 1.574 . S
C1678 C1694 1.368 . S
H1679 C1687 0.950 . S
H1680 C1685 0.940 1_554 S
H1681 C1686 0.949 . S
H1682 C1688 0.950 . S
H1683 C1689 0.950 . S
H1684 C1690 0.950 1_655 S
C1685 H1680 0.940 1_556 S
C1685 C1687 1.327 1_556 S
C1685 C1691 1.429 . S
C1686 C1678 1.574 . S
C1686 H1681 0.949 . S
C1686 C1692 1.368 . S
C1687 C1671 1.357 . S
C1687 H1679 0.950 . S
C1687 C1685 1.327 1_554 S
C1688 C1676 1.349 . S
C1688 H1682 0.950 . S
C1688 C1689 1.327 . S
C1689 H1683 0.950 . S
C1689 C1688 1.327 . S
C1689 C1693 1.429 . S
C1690 C1673 1.575 1_455 S
C1690 H1684 0.950 1_455 S
C1690 C1694 1.366 . S
C1691 C1672 1.429 1_655 S
C1691 C1685 1.429 . S
C1691 C1692 1.523 1_655 S
C1692 C1673 1.368 1_455 S
C1692 C1686 1.368 . S
C1692 C1691 1.523 1_455 S
C1693 C1677 1.429 . S
C1693 C1689 1.429 . S
C1693 C1694 1.523 . S
C1694 C1678 1.368 . S
C1694 C1690 1.366 . S
C1694 C1693 1.523 . S
H1695 C1670 0.942 1_455 S
H1696 C1672 0.950 . S
H1697 C1673 0.949 . S
H1698 C1675 0.950 . S
H1699 C1677 0.950 . S
C1700 C1701 1.349 . S
C1700 C1702 1.327 . S
C1700 H1725 0.950 . S
C1701 C1700 1.349 . S
C1701 C1717 1.349 . S
C1702 C1700 1.327 . S
C1702 C1721 1.429 . S
C1702 H1726 0.950 . S
C1703 C1720 1.574 . S
C1703 C1722 1.368 . S
C1703 H1727 0.949 . S
H1704 C1708 0.949 . S
C1705 C1706 1.349 . S
C1705 C1707 1.327 . S
C1705 H1728 0.950 . S
C1706 C1705 1.349 . S
C1706 C1718 1.349 . S
C1707 C1705 1.327 . S
C1707 C1723 1.429 . S
C1707 H1729 0.950 . S
C1708 H1704 0.949 . S
C1708 C1716 1.574 . S
C1708 C1724 1.368 . S
H1709 C1717 0.950 . S
H1710 C1715 0.950 . S
H1711 C1716 0.949 . S
H1712 C1718 0.950 . S
H1713 C1719 0.950 . S
H1714 C1720 0.949 . S
C1715 H1710 0.950 . S
C1715 C1717 1.327 . S
C1715 C1721 1.429 . S
C1716 C1708 1.574 . S
C1716 H1711 0.949 . S
C1716 C1722 1.368 . S
C1717 C1701 1.349 . S
C1717 H1709 0.950 . S
C1717 C1715 1.327 . S
C1718 C1706 1.349 . S
C1718 H1712 0.950 . S
C1718 C1719 1.327 . S
C1719 H1713 0.950 . S
C1719 C1718 1.327 . S
C1719 C1723 1.429 . S
C1720 C1703 1.574 . S
C1720 H1714 0.949 . S
C1720 C1724 1.368 . S
C1721 C1702 1.429 . S
C1721 C1715 1.429 . S
C1721 C1722 1.523 . S
C1722 C1703 1.368 . S
C1722 C1716 1.368 . S
C1722 C1721 1.523 . S
C1723 C1707 1.429 . S
C1723 C1719 1.429 . S
C1723 C1724 1.523 . S
C1724 C1708 1.368 . S
C1724 C1720 1.368 . S
C1724 C1723 1.523 . S
H1725 C1700 0.950 . S
H1726 C1702 0.950 . S
H1727 C1703 0.949 . S
H1728 C1705 0.950 . S
H1729 C1707 0.950 . S
C1730 C1731 1.349 . S
C1730 C1732 1.327 . S
C1730 H1755 0.950 . S
C1731 C1730 1.349 . S
C1731 C1747 1.349 . S
C1732 C1730 1.327 . S
C1732 C1751 1.429 . S
C1732 H1756 0.950 . S
C1733 C1750 1.574 . S
C1733 C1752 1.368 . S
C1733 H1757 0.949 . S
H1734 C1738 0.949 . S
C1735 C1736 1.349 . S
C1735 C1737 1.327 . S
C1735 H1758 0.950 . S
C1736 C1735 1.349 . S
C1736 C1748 1.349 . S
C1737 C1735 1.327 . S
C1737 C1753 1.429 . S
C1737 H1759 0.950 . S
C1738 H1734 0.949 . S
C1738 C1746 1.574 . S
C1738 C1754 1.368 . S
H1739 C1747 0.950 1_554 S
H1740 C1745 0.950 . S
H1741 C1746 0.949 . S
H1742 C1748 0.950 . S
H1743 C1749 0.950 . S
H1744 C1750 0.949 . S
C1745 H1740 0.950 . S
C1745 C1747 1.327 . S
C1745 C1751 1.429 . S
C1746 C1738 1.574 . S
C1746 H1741 0.949 . S
C1746 C1752 1.368 . S
C1747 C1731 1.349 . S
C1747 H1739 0.950 1_556 S
C1747 C1745 1.327 . S
C1748 C1736 1.349 . S
C1748 H1742 0.950 . S
C1748 C1749 1.327 . S
C1749 H1743 0.950 . S
C1749 C1748 1.327 . S
C1749 C1753 1.429 . S
C1750 C1733 1.574 . S
C1750 H1744 0.949 . S
C1750 C1754 1.368 . S
C1751 C1732 1.429 . S
C1751 C1745 1.429 . S
C1751 C1752 1.523 . S
C1752 C1733 1.368 . S
C1752 C1746 1.368 . S
C1752 C1751 1.523 . S
C1753 C1737 1.429 . S
C1753 C1749 1.429 . S
C1753 C1754 1.523 . S
C1754 C1738 1.368 . S
C1754 C1750 1.368 . S
C1754 C1753 1.523 . S
H1755 C1730 0.950 . S
H1756 C1732 0.950 . S
H1757 C1733 0.949 . S
H1758 C1735 0.950 . S
H1759 C1737 0.950 . S
C1760 C1761 1.349 . S
C1760 C1762 1.327 . S
C1760 H1785 0.950 . S
C1761 C1760 1.349 . S
C1761 C1777 1.349 . S
C1762 C1760 1.327 . S
C1762 C1781 1.429 . S
C1762 H1786 0.950 . S
C1763 C1780 1.574 . S
C1763 C1782 1.368 . S
C1763 H1787 0.949 . S
H1764 C1768 0.949 . S
C1765 C1766 1.349 . S
C1765 C1767 1.327 . S
C1765 H1788 0.950 . S
C1766 C1765 1.349 . S
C1766 C1778 1.349 . S
C1767 C1765 1.327 . S
C1767 C1783 1.429 . S
C1767 H1789 0.950 . S
C1768 H1764 0.949 . S
C1768 C1776 1.574 . S
C1768 C1784 1.368 . S
H1769 C1777 0.950 . S
H1770 C1775 0.950 . S
H1771 C1776 0.949 . S
H1772 C1778 0.950 . S
H1773 C1779 0.950 . S
H1774 C1780 0.949 . S
C1775 H1770 0.950 . S
C1775 C1777 1.327 . S
C1775 C1781 1.429 . S
C1776 C1768 1.574 . S
C1776 H1771 0.949 . S
C1776 C1782 1.368 . S
C1777 C1761 1.349 . S
C1777 H1769 0.950 . S
C1777 C1775 1.327 . S
C1778 C1766 1.349 . S
C1778 H1772 0.950 . S
C1778 C1779 1.327 . S
C1779 H1773 0.950 . S
C1779 C1778 1.327 . S
C1779 C1783 1.429 . S
C1780 C1763 1.574 . S
C1780 H1774 0.949 . S
C1780 C1784 1.368 . S
C1781 C1762 1.429 . S
C1781 C1775 1.429 . S
C1781 C1782 1.523 . S
C1782 C1763 1.368 . S
C1782 C1776 1.368 . S
C1782 C1781 1.523 . S
C1783 C1767 1.429 . S
C1783 C1779 1.429 . S
C1783 C1784 1.523 . S
C1784 C1768 1.368 . S
C1784 C1780 1.368 . S
C1784 C1783 1.523 . S
H1785 C1760 0.950 . S
H1786 C1762 0.950 . S
H1787 C1763 0.949 . S
H1788 C1765 0.950 . S
H1789 C1767 0.950 . S
C1790 C1791 1.349 . S
C1790 C1792 1.327 . S
C1790 H1815 0.950 . S
C1791 C1790 1.349 . S
C1791 C1807 1.349 . S
C1792 C1790 1.327 . S
C1792 C1811 1.429 . S
C1792 H1816 0.950 . S
C1793 C1810 1.574 . S
C1793 C1812 1.368 . S
C1793 H1817 0.949 . S
H1794 C1798 0.949 . S
C1795 C1796 1.349 . S
C1795 C1797 1.327 . S
C1795 H1818 0.950 . S
C1796 C1795 1.349 . S
C1796 C1808 1.349 . S
C1797 C1795 1.327 . S
C1797 C1813 1.429 . S
C1797 H1819 0.950 . S
C1798 H1794 0.949 . S
C1798 C1806 1.574 . S
C1798 C1814 1.368 . S
H1799 C1807 0.950 . S
H1800 C1805 0.950 . S
H1801 C1806 0.949 . S
H1802 C1808 0.950 . S
H1803 C1809 0.950 . S
H1804 C1810 0.949 . S
C1805 H1800 0.950 . S
C1805 C1807 1.327 . S
C1805 C1811 1.429 . S
C1806 C1798 1.574 . S
C1806 H1801 0.949 . S
C1806 C1812 1.368 . S
C1807 C1791 1.349 . S
C1807 H1799 0.950 . S
C1807 C1805 1.327 . S
C1808 C1796 1.349 . S
C1808 H1802 0.950 . S
C1808 C1809 1.327 . S
C1809 H1803 0.950 . S
C1809 C1808 1.327 . S
C1809 C1813 1.429 . S
C1810 C1793 1.574 . S
C1810 H1804 0.949 . S
C1810 C1814 1.368 . S
C1811 C1792 1.429 . S
C1811 C1805 1.429 . S
C1811 C1812 1.523 . S
C1812 C1793 1.368 . S
C1812 C1806 1.368 . S
C1812 C1811 1.523 . S
C1813 C1797 1.429 . S
C1813 C1809 1.429 . S
C1813 C1814 1.523 . S
C1814 C1798 1.368 . S
C1814 C1810 1.368 . S
C1814 C1813 1.523 . S
H1815 C1790 0.950 . S
H1816 C1792 0.950 . S
H1817 C1793 0.949 . S
H1818 C1795 0.950 . S
H1819 C1797 0.950 . S
C1820 C1821 1.349 . S
C1820 C1822 1.327 . S
C1820 H1845 0.950 . S
C1821 C1820 1.349 . S
C1821 C1837 1.349 . S
C1822 C1820 1.327 . S
C1822 C1841 1.429 . S
C1822 H1846 0.950 . S
C1823 C1840 1.574 . S
C1823 C1842 1.368 . S
C1823 H1847 0.949 . S
H1824 C1828 0.949 . S
C1825 C1826 1.349 . S
C1825 C1827 1.327 . S
C1825 H1848 0.950 . S
C1826 C1825 1.349 . S
C1826 C1838 1.349 . S
C1827 C1825 1.327 . S
C1827 C1843 1.429 . S
C1827 H1849 0.950 . S
C1828 H1824 0.949 . S
C1828 C1836 1.574 . S
C1828 C1844 1.368 . S
H1829 C1837 0.950 . S
H1830 C1835 0.950 . S
H1831 C1836 0.949 . S
H1832 C1838 0.950 . S
H1833 C1839 0.950 . S
H1834 C1840 0.949 . S
C1835 H1830 0.950 . S
C1835 C1837 1.327 . S
C1835 C1841 1.429 . S
C1836 C1828 1.574 . S
C1836 H1831 0.949 . S
C1836 C1842 1.368 . S
C1837 C1821 1.349 . S
C1837 H1829 0.950 . S
C1837 C1835 1.327 . S
C1838 C1826 1.349 . S
C1838 H1832 0.950 . S
C1838 C1839 1.327 . S
C1839 H1833 0.950 . S
C1839 C1838 1.327 . S
C1839 C1843 1.429 . S
C1840 C1823 1.574 . S
C1840 H1834 0.949 . S
C1840 C1844 1.368 . S
C1841 C1822 1.429 . S
C1841 C1835 1.429 . S
C1841 C1842 1.523 . S
C1842 C1823 1.368 . S
C1842 C1836 1.368 . S
C1842 C1841 1.523 . S
C1843 C1827 1.429 . S
C1843 C1839 1.429 . S
C1843 C1844 1.523 . S
C1844 C1828 1.368 . S
C1844 C1840 1.368 . S
C1844 C1843 1.523 . S
H1845 C1820 0.950 . S
H1846 C1822 0.950 . S
H1847 C1823 0.949 . S
H1848 C1825 0.950 . S
H1849 C1827 0.950 . S
C1850 C1851 1.349 . S
C1850 C1852 1.327 . S
C1850 H1875 0.950 . S
C1851 C1850 1.349 . S
C1851 C1867 1.349 . S
C1852 C1850 1.327 . S
C1852 C1871 1.429 . S
C1852 H1876 0.950 . S
C1853 C1870 1.574 . S
C1853 C1872 1.368 . S
C1853 H1877 0.949 . S
H1854 C1858 0.949 . S
C1855 C1856 1.349 . S
C1855 C1857 1.327 . S
C1855 H1878 0.950 . S
C1856 C1855 1.349 . S
C1856 C1868 1.349 . S
C1857 C1855 1.327 . S
C1857 C1873 1.429 . S
C1857 H1879 0.950 . S
C1858 H1854 0.949 . S
C1858 C1866 1.574 . S
C1858 C1874 1.368 . S
H1859 C1867 0.950 . S
H1860 C1865 0.950 . S
H1861 C1866 0.949 . S
H1862 C1868 0.950 . S
H1863 C1869 0.950 . S
H1864 C1870 0.949 . S
C1865 H1860 0.950 . S
C1865 C1867 1.327 . S
C1865 C1871 1.429 . S
C1866 C1858 1.574 . S
C1866 H1861 0.949 . S
C1866 C1872 1.368 . S
C1867 C1851 1.349 . S
C1867 H1859 0.950 . S
C1867 C1865 1.327 . S
C1868 C1856 1.349 . S
C1868 H1862 0.950 . S
C1868 C1869 1.327 . S
C1869 H1863 0.950 . S
C1869 C1868 1.327 . S
C1869 C1873 1.429 . S
C1870 C1853 1.574 . S
C1870 H1864 0.949 . S
C1870 C1874 1.368 . S
C1871 C1852 1.429 . S
C1871 C1865 1.429 . S
C1871 C1872 1.523 . S
C1872 C1853 1.368 . S
C1872 C1866 1.368 . S
C1872 C1871 1.523 . S
C1873 C1857 1.429 . S
C1873 C1869 1.429 . S
C1873 C1874 1.523 . S
C1874 C1858 1.368 . S
C1874 C1870 1.368 . S
C1874 C1873 1.523 . S
H1875 C1850 0.950 . S
H1876 C1852 0.950 . S
H1877 C1853 0.949 . S
H1878 C1855 0.950 . S
H1879 C1857 0.950 . S
C1880 C1881 1.349 . S
C1880 C1882 1.327 . S
C1880 H1905 0.950 . S
C1881 C1880 1.349 . S
C1881 C1897 1.349 . S
C1882 C1880 1.327 . S
C1882 C1901 1.429 . S
C1882 H1906 0.950 . S
C1883 C1900 1.574 . S
C1883 C1902 1.368 . S
C1883 H1907 0.949 . S
H1884 C1888 0.949 . S
C1885 C1886 1.349 . S
C1885 C1887 1.327 . S
C1885 H1908 0.950 . S
C1886 C1885 1.349 . S
C1886 C1898 1.349 . S
C1887 C1885 1.327 . S
C1887 C1903 1.429 . S
C1887 H1909 0.950 . S
C1888 H1884 0.949 . S
C1888 C1896 1.574 . S
C1888 C1904 1.368 . S
H1889 C1897 0.950 . S
H1890 C1895 0.950 . S
H1891 C1896 0.949 . S
H1892 C1898 0.950 . S
H1893 C1899 0.950 . S
H1894 C1900 0.949 . S
C1895 H1890 0.950 . S
C1895 C1897 1.327 . S
C1895 C1901 1.429 . S
C1896 C1888 1.574 . S
C1896 H1891 0.949 . S
C1896 C1902 1.368 . S
C1897 C1881 1.349 . S
C1897 H1889 0.950 . S
C1897 C1895 1.327 . S
C1898 C1886 1.349 . S
C1898 H1892 0.950 . S
C1898 C1899 1.327 . S
C1899 H1893 0.950 . S
C1899 C1898 1.327 . S
C1899 C1903 1.429 . S
C1900 C1883 1.574 . S
C1900 H1894 0.949 . S
C1900 C1904 1.368 . S
C1901 C1882 1.429 . S
C1901 C1895 1.429 . S
C1901 C1902 1.523 . S
C1902 C1883 1.368 . S
C1902 C1896 1.368 . S
C1902 C1901 1.523 . S
C1903 C1887 1.429 . S
C1903 C1899 1.429 . S
C1903 C1904 1.523 . S
C1904 C1888 1.368 . S
C1904 C1900 1.368 . S
C1904 C1903 1.523 . S
H1905 C1880 0.950 . S
H1906 C1882 0.950 . S
H1907 C1883 0.949 . S
H1908 C1885 0.950 . S
H1909 C1887 0.950 . S
C1910 C1911 1.349 . S
C1910 C1912 1.327 . S
C1910 H1935 0.950 . S
C1911 C1910 1.349 . S
C1911 C1927 1.349 . S
C1912 C1910 1.327 . S
C1912 C1931 1.429 . S
C1912 H1936 0.950 . S
C1913 C1930 1.574 . S
C1913 C1932 1.368 . S
C1913 H1937 0.949 . S
H1914 C1918 0.949 . S
C1915 C1916 1.349 . S
C1915 C1917 1.327 . S
C1915 H1938 0.950 . S
C1916 C1915 1.349 . S
C1916 C1928 1.349 . S
C1917 C1915 1.327 . S
C1917 C1933 1.429 . S
C1917 H1939 0.950 . S
C1918 H1914 0.949 . S
C1918 C1926 1.574 . S
C1918 C1934 1.368 . S
H1919 C1927 0.950 . S
H1920 C1925 0.950 . S
H1921 C1926 0.949 . S
H1922 C1928 0.950 . S
H1923 C1929 0.950 . S
H1924 C1930 0.949 . S
C1925 H1920 0.950 . S
C1925 C1927 1.327 . S
C1925 C1931 1.429 . S
C1926 C1918 1.574 . S
C1926 H1921 0.949 . S
C1926 C1932 1.368 . S
C1927 C1911 1.349 . S
C1927 H1919 0.950 . S
C1927 C1925 1.327 . S
C1928 C1916 1.349 . S
C1928 H1922 0.950 . S
C1928 C1929 1.327 . S
C1929 H1923 0.950 . S
C1929 C1928 1.327 . S
C1929 C1933 1.429 . S
C1930 C1913 1.574 . S
C1930 H1924 0.949 . S
C1930 C1934 1.368 . S
C1931 C1912 1.429 . S
C1931 C1925 1.429 . S
C1931 C1932 1.523 . S
C1932 C1913 1.368 . S
C1932 C1926 1.368 . S
C1932 C1931 1.523 . S
C1933 C1917 1.429 . S
C1933 C1929 1.429 . S
C1933 C1934 1.523 . S
C1934 C1918 1.368 . S
C1934 C1930 1.368 . S
C1934 C1933 1.523 . S
H1935 C1910 0.950 . S
H1936 C1912 0.950 . S
H1937 C1913 0.949 . S
H1938 C1915 0.950 . S
H1939 C1917 0.950 . S
C1940 C1941 1.349 . S
C1940 C1942 1.327 . S
C1940 H1965 0.950 . S
C1941 C1940 1.349 . S
C1941 C1957 1.349 . S
C1942 C1940 1.327 . S
C1942 C1961 1.429 . S
C1942 H1966 0.950 . S
C1943 C1960 1.574 . S
C1943 C1962 1.368 . S
C1943 H1967 0.949 . S
H1944 C1948 0.949 . S
C1945 C1946 1.349 . S
C1945 C1947 1.327 . S
C1945 H1968 0.950 . S
C1946 C1945 1.349 . S
C1946 C1958 1.349 . S
C1947 C1945 1.327 . S
C1947 C1963 1.429 . S
C1947 H1969 0.950 . S
C1948 H1944 0.949 . S
C1948 C1956 1.574 . S
C1948 C1964 1.368 . S
H1949 C1957 0.950 . S
H1950 C1955 0.950 . S
H1951 C1956 0.949 . S
H1952 C1958 0.950 . S
H1953 C1959 0.950 . S
H1954 C1960 0.949 . S
C1955 H1950 0.950 . S
C1955 C1957 1.327 . S
C1955 C1961 1.429 . S
C1956 C1948 1.574 . S
C1956 H1951 0.949 . S
C1956 C1962 1.368 . S
C1957 C1941 1.349 . S
C1957 H1949 0.950 . S
C1957 C1955 1.327 . S
C1958 C1946 1.349 . S
C1958 H1952 0.950 . S
C1958 C1959 1.327 . S
C1959 H1953 0.950 . S
C1959 C1958 1.327 . S
C1959 C1963 1.429 . S
C1960 C1943 1.574 . S
C1960 H1954 0.949 . S
C1960 C1964 1.368 . S
C1961 C1942 1.429 . S
C1961 C1955 1.429 . S
C1961 C1962 1.523 . S
C1962 C1943 1.368 . S
C1962 C1956 1.368 . S
C1962 C1961 1.523 . S
C1963 C1947 1.429 . S
C1963 C1959 1.429 . S
C1963 C1964 1.523 . S
C1964 C1948 1.368 . S
C1964 C1960 1.368 . S
C1964 C1963 1.523 . S
H1965 C1940 0.950 . S
H1966 C1942 0.950 . S
H1967 C1943 0.949 . S
H1968 C1945 0.950 . S
H1969 C1947 0.950 . S
C1970 C1971 1.349 . S
C1970 C1972 1.327 . S
C1970 H1995 0.950 . S
C1971 C1970 1.349 . S
C1971 C1987 1.349 . S
C1972 C1970 1.327 . S
C1972 C1991 1.429 . S
C1972 H1996 0.950 . S
C1973 C1990 1.574 . S
C1973 C1992 1.368 . S
C1973 H1997 0.949 . S
H1974 C1978 0.949 . S
C1975 C1976 1.349 . S
C1975 C1977 1.327 . S
C1975 H1998 0.950 . S
C1976 C1975 1.349 . S
C1976 C1988 1.349 . S
C1977 C1975 1.327 . S
C1977 C1993 1.429 . S
C1977 H1999 0.950 . S
C1978 H1974 0.949 . S
C1978 C1986 1.574 . S
C1978 C1994 1.368 . S
H1979 C1987 0.950 . S
H1980 C1985 0.950 . S
H1981 C1986 0.949 . S
H1982 C1988 0.950 . S
H1983 C1989 0.950 . S
H1984 C1990 0.949 . S
C1985 H1980 0.950 . S
C1985 C1987 1.327 . S
C1985 C1991 1.429 . S
C1986 C1978 1.574 . S
C1986 H1981 0.949 . S
C1986 C1992 1.368 . S
C1987 C1971 1.349 . S
C1987 H1979 0.950 . S
C1987 C1985 1.327 . S
C1988 C1976 1.349 . S
C1988 H1982 0.950 . S
C1988 C1989 1.327 . S
C1989 H1983 0.950 . S
C1989 C1988 1.327 . S
C1989 C1993 1.429 . S
C1990 C1973 1.574 . S
C1990 H1984 0.949 . S
C1990 C1994 1.368 . S
C1991 C1972 1.429 . S
C1991 C1985 1.429 . S
C1991 C1992 1.523 . S
C1992 C1973 1.368 . S
C1992 C1986 1.368 . S
C1992 C1991 1.523 . S
C1993 C1977 1.429 . S
C1993 C1989 1.429 . S
C1993 C1994 1.523 . S
C1994 C1978 1.368 . S
C1994 C1990 1.368 . S
C1994 C1993 1.523 . S
H1995 C1970 0.950 . S
H1996 C1972 0.950 . S
H1997 C1973 0.949 . S
H1998 C1975 0.950 . S
H1999 C1977 0.950 . S
C2000 C2001 1.349 . S
C2000 C2002 1.327 . S
C2000 H2025 0.950 . S
C2001 C2000 1.349 . S
C2001 C2017 1.349 . S
C2002 C2000 1.327 . S
C2002 C2021 1.429 . S
C2002 H2026 0.939 1_556 S
C2003 C2020 1.574 . S
C2003 C2022 1.368 . S
C2003 H2027 0.949 . S
H2004 C2008 0.949 . S
C2005 C2006 1.340 1_556 S
C2005 C2007 1.327 . S
C2005 H2028 0.950 . S
C2006 C2005 1.340 1_554 S
C2006 C2018 1.356 . S
C2007 C2005 1.327 . S
C2007 C2023 1.429 . S
C2007 H2029 0.950 . S
C2008 H2004 0.949 . S
C2008 C2016 1.574 1_554 S
C2008 C2024 1.368 1_554 S
H2009 C2017 0.950 . S
H2010 C2015 0.950 . S
H2011 C2016 0.949 1_554 S
H2012 C2018 0.950 . S
H2013 C2019 0.950 . S
H2014 C2020 0.949 . S
C2015 H2010 0.950 . S
C2015 C2017 1.327 . S
C2015 C2021 1.429 . S
C2016 C2008 1.574 1_556 S
C2016 H2011 0.949 1_556 S
C2016 C2022 1.368 . S
C2017 C2001 1.349 . S
C2017 H2009 0.950 . S
C2017 C2015 1.327 . S
C2018 C2006 1.356 . S
C2018 H2012 0.950 . S
C2018 C2019 1.327 . S
C2019 H2013 0.950 . S
C2019 C2018 1.327 . S
C2019 C2023 1.429 1_554 S
C2020 C2003 1.574 . S
C2020 H2014 0.949 . S
C2020 C2024 1.368 . S
C2021 C2002 1.429 . S
C2021 C2015 1.429 . S
C2021 C2022 1.523 . S
C2022 C2003 1.368 . S
C2022 C2016 1.368 . S
C2022 C2021 1.523 . S
C2023 C2007 1.429 . S
C2023 C2019 1.429 1_556 S
C2023 C2024 1.523 . S
C2024 C2008 1.368 1_556 S
C2024 C2020 1.368 . S
C2024 C2023 1.523 . S
H2025 C2000 0.950 . S
H2026 C2002 0.939 1_554 S
H2027 C2003 0.949 . S
H2028 C2005 0.950 . S
H2029 C2007 0.950 . S
C2030 C2031 1.349 . S
C2030 C2032 1.327 . S
C2030 H2055 0.950 . S
C2031 C2030 1.349 . S
C2031 C2047 1.349 . S
C2032 C2030 1.327 . S
C2032 C2051 1.429 . S
C2032 H2056 0.950 . S
C2033 C2050 1.574 . S
C2033 C2052 1.368 . S
C2033 H2057 0.949 . S
H2034 C2038 0.949 . S
C2035 C2036 1.349 . S
C2035 C2037 1.327 . S
C2035 H2058 0.950 . S
C2036 C2035 1.349 . S
C2036 C2048 1.349 . S
C2037 C2035 1.327 . S
C2037 C2053 1.429 . S
C2037 H2059 0.950 . S
C2038 H2034 0.949 . S
C2038 C2046 1.574 . S
C2038 C2054 1.368 . S
H2039 C2047 0.950 . S
H2040 C2045 0.950 . S
H2041 C2046 0.949 . S
H2042 C2048 0.950 . S
H2043 C2049 0.950 . S
H2044 C2050 0.949 . S
C2045 H2040 0.950 . S
C2045 C2047 1.327 . S
C2045 C2051 1.429 . S
C2046 C2038 1.574 . S
C2046 H2041 0.949 . S
C2046 C2052 1.368 . S
C2047 C2031 1.349 . S
C2047 H2039 0.950 . S
C2047 C2045 1.327 . S
C2048 C2036 1.349 . S
C2048 H2042 0.950 . S
C2048 C2049 1.327 . S
C2049 H2043 0.950 . S
C2049 C2048 1.327 . S
C2049 C2053 1.429 . S
C2050 C2033 1.574 . S
C2050 H2044 0.949 . S
C2050 C2054 1.368 . S
C2051 C2032 1.429 . S
C2051 C2045 1.429 . S
C2051 C2052 1.523 . S
C2052 C2033 1.368 . S
C2052 C2046 1.368 . S
C2052 C2051 1.523 . S
C2053 C2037 1.429 . S
C2053 C2049 1.429 . S
C2053 C2054 1.523 . S
C2054 C2038 1.368 . S
C2054 C2050 1.368 . S
C2054 C2053 1.523 . S
H2055 C2030 0.950 . S
H2056 C2032 0.950 . S
H2057 C2033 0.949 . S
H2058 C2035 0.950 . S
H2059 C2037 0.950 . S
C2060 C2061 1.349 . S
C2060 C2062 1.327 . S
C2060 H2085 0.950 . S
C2061 C2060 1.349 . S
C2061 C2077 1.349 . S
C2062 C2060 1.327 . S
C2062 C2081 1.429 . S
C2062 H2086 0.950 . S
C2063 C2080 1.574 . S
C2063 C2082 1.368 . S
C2063 H2087 0.949 . S
H2064 C2068 0.949 . S
C2065 C2066 1.349 . S
C2065 C2067 1.327 . S
C2065 H2088 0.950 . S
C2066 C2065 1.349 . S
C2066 C2078 1.349 . S
C2067 C2065 1.327 . S
C2067 C2083 1.429 . S
C2067 H2089 0.950 . S
C2068 H2064 0.949 . S
C2068 C2076 1.574 . S
C2068 C2084 1.368 . S
H2069 C2077 0.950 . S
H2070 C2075 0.950 . S
H2071 C2076 0.949 . S
H2072 C2078 0.950 1_556 S
H2073 C2079 0.950 . S
H2074 C2080 0.949 . S
C2075 H2070 0.950 . S
C2075 C2077 1.327 . S
C2075 C2081 1.429 . S
C2076 C2068 1.574 . S
C2076 H2071 0.949 . S
C2076 C2082 1.368 . S
C2077 C2061 1.349 . S
C2077 H2069 0.950 . S
C2077 C2075 1.327 . S
C2078 C2066 1.349 . S
C2078 H2072 0.950 1_554 S
C2078 C2079 1.327 . S
C2079 H2073 0.950 . S
C2079 C2078 1.327 . S
C2079 C2083 1.429 . S
C2080 C2063 1.574 . S
C2080 H2074 0.949 . S
C2080 C2084 1.368 . S
C2081 C2062 1.429 . S
C2081 C2075 1.429 . S
C2081 C2082 1.523 . S
C2082 C2063 1.368 . S
C2082 C2076 1.368 . S
C2082 C2081 1.523 . S
C2083 C2067 1.429 . S
C2083 C2079 1.429 . S
C2083 C2084 1.523 . S
C2084 C2068 1.368 . S
C2084 C2080 1.368 . S
C2084 C2083 1.523 . S
H2085 C2060 0.950 . S
H2086 C2062 0.950 . S
H2087 C2063 0.949 . S
H2088 C2065 0.950 . S
H2089 C2067 0.950 . S
C2090 C2091 1.349 . S
C2090 C2092 1.327 . S
C2090 H2115 0.950 . S
C2091 C2090 1.349 . S
C2091 C2107 1.349 . S
C2092 C2090 1.327 . S
C2092 C2111 1.429 . S
C2092 H2116 0.950 . S
C2093 C2110 1.574 . S
C2093 C2112 1.368 . S
C2093 H2117 0.949 1_554 S
H2094 C2098 0.949 . S
C2095 C2096 1.349 1_556 S
C2095 C2097 1.332 . S
C2095 H2118 0.950 . S
C2096 C2095 1.349 1_554 S
C2096 C2108 1.349 . S
C2097 C2095 1.332 . S
C2097 C2113 1.404 1_556 S
C2097 H2119 0.971 . S
C2098 H2094 0.949 . S
C2098 C2106 1.574 . S
C2098 C2114 1.368 . S
H2099 C2107 0.950 1_545 S
H2100 C2105 0.912 1_556 S
H2101 C2106 0.949 . S
H2102 C2108 0.950 . S
H2103 C2109 0.950 . S
H2104 C2110 0.949 1_556 S
C2105 H2100 0.912 1_554 S
C2105 C2107 1.327 . S
C2105 C2111 1.429 . S
C2106 C2098 1.574 . S
C2106 H2101 0.949 . S
C2106 C2112 1.368 . S
C2107 C2091 1.349 . S
C2107 H2099 0.950 1_565 S
C2107 C2105 1.327 . S
C2108 C2096 1.349 . S
C2108 H2102 0.950 . S
C2108 C2109 1.327 . S
C2109 H2103 0.950 . S
C2109 C2108 1.327 . S
C2109 C2113 1.429 . S
C2110 C2093 1.574 . S
C2110 H2104 0.949 1_554 S
C2110 C2114 1.368 . S
C2111 C2092 1.429 . S
C2111 C2105 1.429 . S
C2111 C2112 1.523 . S
C2112 C2093 1.368 . S
C2112 C2106 1.368 . S
C2112 C2111 1.523 . S
C2113 C2097 1.404 1_554 S
C2113 C2109 1.429 . S
C2113 C2114 1.523 . S
C2114 C2098 1.368 . S
C2114 C2110 1.368 . S
C2114 C2113 1.523 . S
H2115 C2090 0.950 . S
H2116 C2092 0.950 . S
H2117 C2093 0.949 1_556 S
H2118 C2095 0.950 . S
H2119 C2097 0.971 . S
C686 C523 1.402 . S
C681 C177 1.405 . S
C716 C531 1.305 . S
C711 C209 1.550 . S
C741 C253 1.341 . S
C746 C551 1.362 . S
C776 C565 1.521 . S
C771 C157 1.506 . S
C806 C580 1.552 . S
C801 C343 1.522 . S
C836 C594 1.498 . S
C831 C401 1.457 . S
C861 C369 1.562 . S
C866 C608 1.592 . S
C896 C614 1.432 . S
C891 C317 1.448 . S
C921 C375 1.508 . S
C926 C628 1.500 . S
C956 C649 1.578 . S
C951 C305 1.583 . S
C981 C349 1.463 . S
C986 C629 1.264 . S
C1016 C650 1.541 . S
C1011 C413 1.490 . S
C1041 C241 1.417 . S
C1046 C657 1.203 . S
C1071 C151 1.452 . S
C1076 C663 1.465 . S
C1101 C189 1.487 . S
C1106 C656 1.468 . S
C1131 C215 1.454 . S
C1136 C664 1.471 . S
C1161 C113 1.460 . S
C1166 C558 1.446 . S
C1191 C471 1.455 . S
C1196 C559 1.241 . S
C1226 C516 1.531 . S
C1221 C509 1.551 . S
C1256 C537 1.428 . S
C1251 C279 1.414 . S
C1281 C145 1.416 . S
C1286 C572 1.406 . S
C1316 C622 1.585 . S
C1311 C381 1.547 . S
C1346 C573 1.226 . S
C1341 C311 1.442 . S
C1376 C601 1.282 . S
C1371 C407 1.495 . S
C1406 C607 1.401 . S
C1401 C465 1.405 . S
C1431 C497 1.551 . S
C1436 C615 1.305 . S
C1461 C285 1.341 . S
C1466 C579 1.362 . S
C1496 C593 1.521 . S
C1491 C445 1.506 . S
C1521 C119 1.522 . S
C1526 C552 1.552 . S
C1556 C566 1.498 . S
C1551 C17 1.458 1_655 S
C1586 C524 1.591 . S
C1581 C49 1.562 . S
C1616 C530 1.432 . S
C1611 C93 1.448 . S
C1641 C55 1.508 . S
C1646 C642 1.500 . S
C1671 C81 1.596 . S
C1676 C635 1.578 . S
C1701 C125 1.463 . S
C1706 C643 1.264 . S
C1731 C29 1.490 1_556 S
C1736 C636 1.541 . S
C1766 C671 1.203 . S
C1761 C273 1.417 . S
C1796 C677 1.466 . S
C1791 C439 1.469 . S
C1826 C670 1.468 . S
C1821 C477 1.487 . S
C1851 C503 1.453 . S
C1856 C678 1.470 . S
C1881 C337 1.460 . S
C1886 C586 1.446 . S
C1916 C587 1.241 . S
C1911 C183 1.455 . S
C1946 C600 1.531 . S
C1941 C221 1.551 . S
C1976 C621 1.428 . S
C1971 C247 1.414 . S
C2001 C433 1.416 . S
C2006 C544 1.408 . S
C2036 C538 1.585 . S
C2031 C61 1.547 . S
C2061 C87 1.441 . S
C2066 C545 1.225 . S
C2096 C517 1.282 . S
C2091 C23 1.495 1_565 S
