# Generated by pormake.
# Topology anh, (6,3)-cn, num edge types: 1
# Building blocks:
#     Node 0, Type 0, BuildingBlock: GEDQOX_clean_sbu_0, # of connection points: 6
#     Node 1, Type 0, BuildingBlock: GEDQOX_clean_sbu_0, # of connection points: 6
#     Node 2, Type 0, BuildingBlock: GEDQOX_clean_sbu_0, # of connection points: 6
#     Node 3, Type 1, BuildingBlock: BETDAH_clean_linker_0, # of connection points: 3
#     Node 4, Type 1, BuildingBlock: BETDAH_clean_linker_0, # of connection points: 3
#     Node 5, Type 1, BuildingBlock: BETDAH_clean_linker_0, # of connection points: 3
#     Node 6, Type 1, BuildingBlock: BETDAH_clean_linker_0, # of connection points: 3
#     Node 7, Type 1, BuildingBlock: BETDAH_clean_linker_0, # of connection points: 3
#     Node 8, Type 1, BuildingBlock: BETDAH_clean_linker_0, # of connection points: 3
#     Edge 9, Type (0, 1), BuildingBlock: MIFKUJ_clean_linker_0, # of connection points: 2
#     Edge 10, Type (0, 1), BuildingBlock: MIFKUJ_clean_linker_0, # of connection points: 2
#     Edge 11, Type (0, 1), BuildingBlock: MIFKUJ_clean_linker_0, # of connection points: 2
#     Edge 12, Type (0, 1), BuildingBlock: MIFKUJ_clean_linker_0, # of connection points: 2
#     Edge 13, Type (0, 1), BuildingBlock: MIFKUJ_clean_linker_0, # of connection points: 2
#     Edge 14, Type (0, 1), BuildingBlock: MIFKUJ_clean_linker_0, # of connection points: 2
#     Edge 15, Type (0, 1), BuildingBlock: MIFKUJ_clean_linker_0, # of connection points: 2
#     Edge 16, Type (0, 1), BuildingBlock: MIFKUJ_clean_linker_0, # of connection points: 2
#     Edge 17, Type (0, 1), BuildingBlock: MIFKUJ_clean_linker_0, # of connection points: 2
#     Edge 18, Type (0, 1), BuildingBlock: MIFKUJ_clean_linker_0, # of connection points: 2
#     Edge 19, Type (0, 1), BuildingBlock: MIFKUJ_clean_linker_0, # of connection points: 2
#     Edge 20, Type (0, 1), BuildingBlock: MIFKUJ_clean_linker_0, # of connection points: 2
#     Edge 21, Type (0, 1), BuildingBlock: MIFKUJ_clean_linker_0, # of connection points: 2
#     Edge 22, Type (0, 1), BuildingBlock: MIFKUJ_clean_linker_0, # of connection points: 2
#     Edge 23, Type (0, 1), BuildingBlock: MIFKUJ_clean_linker_0, # of connection points: 2
#     Edge 24, Type (0, 1), BuildingBlock: MIFKUJ_clean_linker_0, # of connection points: 2
#     Edge 25, Type (0, 1), BuildingBlock: MIFKUJ_clean_linker_0, # of connection points: 2
#     Edge 26, Type (0, 1), BuildingBlock: MIFKUJ_clean_linker_0, # of connection points: 2
# Relax obj value: 0.115
# Max RMSD: 0.171
# Mean RMSD: 0.104
data_MOF--net-anh--node1-GEDQOX_clean_sbu_0--node2-BETDAH_clean_linker_0--edge1-MIFKUJ_clean_linker_0
_symmetry_space_group_name_H-M    P1
_symmetry_Int_Tables_number       1
_symmetry_cell_setting            triclinic
loop_
_symmetry_equiv_pos_as_xyz
'x, y, z'
_cell_length_a     40.637792
_cell_length_b     39.044784
_cell_length_c     64.348326
_cell_angle_alpha  96.104847
_cell_angle_beta   92.538858
_cell_angle_gamma 107.37128
loop_
_atom_site_label
_atom_site_type_symbol
_atom_site_fract_x
_atom_site_fract_y
_atom_site_fract_z
_atom_type_partial_charge
Nd0 Nd 0.07915 0.57458 0.14498 0.0
Nd1 Nd 0.05885 0.49796 0.15514 0.0
C2 C 0.10808 0.63732 0.13134 0.0
C3 C 0.14131 0.66553 0.13755 0.0
C4 C 0.1568 0.68972 0.12363 0.0
C5 C 0.18846 0.71646 0.12969 0.0
C6 C 0.20493 0.71947 0.1498 0.0
C7 C 0.18943 0.69483 0.16357 0.0
C8 C 0.15804 0.66801 0.15746 0.0
C9 C 0.07649 0.56807 0.187 0.0
C10 C 0.1418 0.53448 0.14983 0.0
C11 C 1.03395 0.43756 0.1722 0.0
C12 C 1.0006 0.41304 0.17686 0.0
C13 C 0.97256 0.42575 0.1815 0.0
C14 C 0.94138 0.40189 0.18633 0.0
C15 C 0.93762 0.36486 0.18648 0.0
C16 C 0.96571 0.35231 0.18138 0.0
C17 C 0.99687 0.37619 0.1767 0.0
C18 C 0.0645 0.5039 0.11354 0.0
C19 C 0.99601 0.53653 0.14625 0.0
O20 O 0.11008 0.60662 0.12205 0.0
O21 O 0.08552 0.63295 0.14547 0.0
O22 O 0.06634 0.59191 0.17823 0.0
O23 O 0.08907 0.55013 0.17398 0.0
O24 O 0.13196 0.5613 0.14316 0.0
O25 O 0.11879 0.50772 0.15743 0.0
O26 O 1.04445 0.46975 0.18302 0.0
O27 O 1.03985 0.43802 0.15241 0.0
O28 O 0.07374 0.47999 0.1229 0.0
O29 O 0.05067 0.52211 0.12571 0.0
O30 O 1.00565 0.51157 0.15543 0.0
O31 O 1.01961 0.56174 0.13797 0.0
H32 H 0.14437 0.68801 0.10815 0.0
H33 H 0.19976 0.73515 0.11878 0.0
H34 H 0.20176 0.69609 0.17903 0.0
H35 H 0.14676 0.6492 0.16832 0.0
H36 H 0.9749 0.45415 0.18167 0.0
H37 H 0.92053 0.41267 0.19038 0.0
H38 H 0.96362 0.32392 0.18081 0.0
H39 H 1.01814 0.36585 0.17298 0.0
Nd40 Nd 0.54113 0.02352 0.51976 0.0
Nd41 Nd 0.61694 0.04367 0.51217 0.0
C42 C 0.47853 0.99488 0.5318 0.0
C43 C 0.45098 0.96061 0.52544 0.0
C44 C 0.4255 0.94738 0.53903 0.0
C45 C 0.39904 0.91495 0.53292 0.0
C46 C 0.39756 0.89526 0.51305 0.0
C47 C 0.42361 0.9085 0.49964 0.0
C48 C 0.45014 0.94076 0.50582 0.0
C49 C 0.55469 0.03205 0.47898 0.0
C50 C 0.57881 0.95878 0.51211 0.0
C51 C 0.67868 0.07082 0.49848 0.0
C52 C 0.69964 0.1049 0.49172 0.0
C53 C 0.68438 0.12711 0.48151 0.0
C54 C 0.70499 0.15989 0.4758 0.0
C55 C 0.74104 0.17107 0.48045 0.0
C56 C 0.7561 0.14865 0.49061 0.0
C57 C 0.73558 0.11583 0.49614 0.0
C58 C 0.60338 0.03445 0.55294 0.0
C59 C 0.57994 0.10751 0.52182 0.0
O60 O 0.50653 0.9923 0.54147 0.0
O61 O 0.48515 0.01741 0.51776 0.0
O62 O 0.53091 0.04239 0.48816 0.0
O63 O 0.56908 0.01616 0.49084 0.0
O64 O 0.55147 0.96822 0.5176 0.0
O65 O 0.60736 0.98258 0.50755 0.0
O66 O 0.65137 0.05174 0.4862 0.0
O67 O 0.67316 0.07189 0.51836 0.0
O68 O 0.62736 0.02449 0.54366 0.0
O69 O 0.58891 0.0505 0.54119 0.0
O70 O 0.603 0.09699 0.51108 0.0
O71 O 0.55599 0.08407 0.53069 0.0
H72 H 0.42601 0.96217 0.55433 0.0
H73 H 0.37983 0.90525 0.54381 0.0
H74 H 0.42315 0.89438 0.48416 0.0
H75 H 0.46983 0.95042 0.49518 0.0
H76 H 0.6566 0.11924 0.47807 0.0
H77 H 0.69272 0.1768 0.4681 0.0
H78 H 0.78384 0.15647 0.49422 0.0
H79 H 0.74778 0.09907 0.50403 0.0
Nd80 Nd 0.53484 0.53968 0.82859 0.0
Nd81 Nd 0.61704 0.57442 0.84922 0.0
C82 C 0.48235 0.5145 0.80012 0.0
C83 C 0.46919 0.52466 0.78081 0.0
C84 C 0.45362 0.49774 0.76414 0.0
C85 C 0.43439 0.50524 0.74766 0.0
C86 C 0.42989 0.53966 0.74783 0.0
C87 C 0.44931 0.56765 0.76326 0.0
C88 C 0.46877 0.56019 0.77962 0.0
C89 C 0.54097 0.5476 0.87211 0.0
C90 C 0.57136 0.62772 0.83838 0.0
C91 C 0.67504 0.59731 0.87339 0.0
C92 C 0.70893 0.59335 0.86929 0.0
C93 C 0.73813 0.61113 0.88304 0.0
C94 C 0.77043 0.60772 0.87844 0.0
C95 C 0.77382 0.58653 0.86 0.0
C96 C 0.7443 0.56882 0.84632 0.0
C97 C 0.71217 0.57216 0.85095 0.0
C98 C 0.61035 0.56597 0.8058 0.0
C99 C 0.58076 0.48523 0.83904 0.0
O100 O 0.51042 0.50454 0.79916 0.0
O101 O 0.48127 0.53446 0.81772 0.0
O102 O 0.51137 0.5334 0.86107 0.0
O103 O 0.56402 0.55648 0.85966 0.0
O104 O 0.54869 0.60064 0.82611 0.0
O105 O 0.59539 0.62286 0.85146 0.0
O106 O 0.65085 0.567 0.87513 0.0
O107 O 0.66472 0.61804 0.86152 0.0
O108 O 0.64033 0.57776 0.81646 0.0
O109 O 0.58769 0.5591 0.81852 0.0
O110 O 0.60795 0.51288 0.84696 0.0
O111 O 0.55146 0.48883 0.83104 0.0
H112 H 0.45438 0.47031 0.76455 0.0
H113 H 0.42069 0.48328 0.73575 0.0
H114 H 0.44695 0.59462 0.76399 0.0
H115 H 0.48139 0.58168 0.79209 0.0
H116 H 0.73597 0.62762 0.89725 0.0
H117 H 0.79264 0.62134 0.88941 0.0
H118 H 0.74608 0.55277 0.83185 0.0
H119 H 0.6898 0.55836 0.84012 0.0
H120 H 0.52173 0.97928 0.26014 0.0
H121 H 0.60491 0.07315 0.25067 0.0
H122 H 0.53467 0.01218 0.19847 0.0
C123 C 0.53581 0.9974 0.24967 0.0
C124 C 0.52454 0.99187 0.22827 0.0
C125 C 0.56466 0.02668 0.25783 0.0
C126 C 0.58281 0.05045 0.24435 0.0
C127 C 0.57223 0.04475 0.22279 0.0
C128 C 0.54315 0.01567 0.21498 0.0
N129 N 0.58956 0.0679 0.20846 0.0
C130 C 0.6202 0.09609 0.21327 0.0
H131 H 0.58255 0.47366 0.58722 0.0
H132 H 0.57325 0.57497 0.57178 0.0
H133 H 0.56872 0.48924 0.52261 0.0
C134 C 0.57921 0.49059 0.57548 0.0
C135 C 0.57544 0.47688 0.55416 0.0
C136 C 0.57847 0.52581 0.5819 0.0
C137 C 0.57395 0.54783 0.56677 0.0
C138 C 0.57086 0.53477 0.54527 0.0
C139 C 0.57167 0.49939 0.53915 0.0
N140 N 0.56665 0.55608 0.52932 0.0
C141 C 0.56658 0.59192 0.53265 0.0
H142 H 0.08371 0.55845 0.896 0.0
H143 H 0.17238 0.5195 0.89617 0.0
H144 H 0.1253 0.53499 0.83808 0.0
C145 C 0.10348 0.5504 0.8878 0.0
C146 C 0.1024 0.54879 0.86592 0.0
C147 C 0.1285 0.53984 0.89899 0.0
C148 C 0.15264 0.52752 0.88786 0.0
C149 C 0.15204 0.5262 0.86599 0.0
C150 C 0.12661 0.53662 0.85503 0.0
N151 N 0.1772 0.51421 0.85539 0.0
C152 C 0.18447 0.52087 0.83506 0.0
H153 H 0.11834 0.58783 0.40521 0.0
H154 H 1.01869 0.51418 0.41336 0.0
H155 H 0.08094 0.58207 0.46667 0.0
C156 C 0.09896 0.57562 0.41551 0.0
C157 C 0.10372 0.58806 0.43704 0.0
C158 C 0.06835 0.54916 0.40689 0.0
C159 C 1.0425 0.53426 0.42004 0.0
C160 C 1.04731 0.54604 0.44172 0.0
C161 C 0.07764 0.57304 0.44997 0.0
N162 N 1.02194 0.53243 0.45571 0.0
C163 C 0.99491 0.5003 0.45159 0.0
H164 H 0.58457 0.12504 0.77216 0.0
H165 H 0.58115 0.01785 0.78462 0.0
H166 H 0.58567 0.10062 0.83564 0.0
C167 C 0.5841 0.10578 0.7832 0.0
C168 C 0.58542 0.117 0.8047 0.0
C169 C 0.58227 0.07002 0.77583 0.0
C170 C 0.58236 0.04537 0.79028 0.0
C171 C 0.58341 0.05633 0.81196 0.0
C172 C 0.58476 0.0921 0.81898 0.0
N173 N 0.58327 0.03253 0.82725 0.0
C174 C 0.58037 0.99592 0.82319 0.0
H175 H 0.64229 0.54069 0.09197 0.0
H176 H 0.53778 0.53783 0.1025 0.0
H177 H 0.60878 0.53787 0.15454 0.0
C178 C 0.62244 0.53983 0.10279 0.0
C179 C 0.63068 0.53965 0.12424 0.0
C180 C 0.5893 0.53903 0.09485 0.0
C181 C 0.56322 0.53847 0.10866 0.0
C182 C 0.5695 0.53794 0.13025 0.0
C183 C 0.60347 0.53814 0.13794 0.0
N184 N 0.54254 0.53719 0.1444 0.0
C185 C 0.50796 0.5378 0.13997 0.0
H186 H 0.17367 0.48368 0.16045 0.0
H187 H 0.23405 0.48461 0.15802 0.0
H188 H 0.25717 0.58688 0.13353 0.0
H189 H 0.197 0.5862 0.13612 0.0
H190 H 0.3103 0.59109 0.15834 0.0
H191 H 0.28799 0.43649 0.14112 0.0
H192 H 0.2436 0.38215 0.12321 0.0
H193 H 0.20582 0.44803 0.08482 0.0
H194 H 0.25022 0.5026 0.10233 0.0
H195 H 0.47594 0.56212 0.17221 0.0
H196 H 0.41562 0.56188 0.17326 0.0
H197 H 0.3951 0.51481 0.10854 0.0
H198 H 0.45563 0.51445 0.10773 0.0
H199 H 0.34052 0.48459 0.12603 0.0
H200 H 0.40241 0.60933 0.12813 0.0
H201 H 0.44586 0.66814 0.14039 0.0
H202 H 0.4043 0.66839 0.20057 0.0
H203 H 0.36086 0.60933 0.18877 0.0
C204 C 0.19146 0.50648 0.15453 0.0
C205 C 0.17957 0.53485 0.14854 0.0
C206 C 0.22641 0.50692 0.153 0.0
C207 C 0.25126 0.5357 0.14536 0.0
C208 C 0.23941 0.56419 0.13955 0.0
C209 C 0.20448 0.5637 0.14101 0.0
C210 C 0.28918 0.53627 0.1435 0.0
C211 C 0.31663 0.56754 0.15139 0.0
C212 C 0.29874 0.50639 0.13388 0.0
C213 C 0.27216 0.47364 0.12321 0.0
C214 C 0.27026 0.43933 0.12882 0.0
C215 C 0.24509 0.4085 0.11875 0.0
C216 C 0.22182 0.41164 0.10295 0.0
C217 C 0.22375 0.44562 0.09713 0.0
C218 C 0.24887 0.4765 0.10714 0.0
C219 C 0.45871 0.55191 0.15811 0.0
C220 C 0.47127 0.53861 0.13983 0.0
C221 C 0.42382 0.55193 0.15866 0.0
C222 C 0.39971 0.53887 0.1409 0.0
C223 C 0.41232 0.52523 0.12263 0.0
C224 C 0.44734 0.52518 0.12209 0.0
C225 C 0.36176 0.53905 0.14152 0.0
C226 C 0.33427 0.508 0.13326 0.0
C227 C 0.35217 0.56951 0.15033 0.0
C228 C 0.37862 0.6047 0.15763 0.0
C229 C 0.40275 0.62175 0.14405 0.0
C230 C 0.42733 0.65517 0.1509 0.0
C231 C 0.4279 0.67195 0.17126 0.0
C232 C 0.40387 0.65534 0.18482 0.0
C233 C 0.37925 0.62189 0.17805 0.0
H234 H 0.4469 0.69787 0.17652 0.0
H235 H 0.20235 0.38774 0.09518 0.0
H236 H 0.74129 0.19886 0.44308 0.0
H237 H 0.77981 0.25633 0.43437 0.0
H238 H 0.82861 0.27988 0.49735 0.0
H239 H 0.7904 0.22273 0.50607 0.0
H240 H 0.81296 0.33881 0.48293 0.0
H241 H 0.86708 0.24778 0.45947 0.0
H242 H 0.86875 0.19152 0.43875 0.0
H243 H 0.8503 0.23349 0.38181 0.0
H244 H 0.84803 0.28984 0.40224 0.0
H245 H 0.97565 0.46573 0.48465 0.0
H246 H 0.92726 0.41089 0.4857 0.0
H247 H 0.9023 0.40603 0.41932 0.0
H248 H 0.95138 0.46116 0.4183 0.0
H249 H 0.89894 0.33946 0.43043 0.0
H250 H 0.85259 0.4337 0.45333 0.0
H251 H 0.85034 0.49 0.47369 0.0
H252 H 0.85226 0.44271 0.53082 0.0
H253 H 0.85508 0.38628 0.51084 0.0
C254 C 0.76009 0.21651 0.45507 0.0
C255 C 0.76304 0.20633 0.47521 0.0
C256 C 0.78212 0.24917 0.45006 0.0
C257 C 0.80716 0.27223 0.4652 0.0
C258 C 0.80949 0.26246 0.48544 0.0
C259 C 0.78781 0.22974 0.49037 0.0
C260 C 0.83163 0.30629 0.46007 0.0
C261 C 0.83186 0.339 0.47152 0.0
C262 C 0.85545 0.30658 0.44465 0.0
C263 C 0.85694 0.2728 0.43238 0.0
C264 C 0.86306 0.24487 0.44254 0.0
C265 C 0.86418 0.213 0.43085 0.0
C266 C 0.85951 0.20888 0.40898 0.0
C267 C 0.85383 0.23668 0.39875 0.0
C268 C 0.85263 0.26859 0.41038 0.0
C269 C 0.95982 0.45283 0.4703 0.0
C270 C 0.96686 0.46734 0.45143 0.0
C271 C 0.93211 0.42169 0.47091 0.0
C272 C 0.91078 0.40468 0.45265 0.0
C273 C 0.91831 0.41885 0.4336 0.0
C274 C 0.94618 0.4502 0.43301 0.0
C275 C 0.88098 0.37196 0.45376 0.0
C276 C 0.87968 0.33949 0.44157 0.0
C277 C 0.85597 0.37189 0.46843 0.0
C278 C 0.85429 0.4058 0.48057 0.0
C279 C 0.85281 0.43538 0.47025 0.0
C280 C 0.85139 0.46731 0.48172 0.0
C281 C 0.85122 0.46995 0.50354 0.0
C282 C 0.85241 0.44063 0.51392 0.0
C283 C 0.85388 0.40864 0.50252 0.0
H284 H 0.8501 0.49469 0.5124 0.0
H285 H 0.8604 0.18419 0.39995 0.0
H286 H 0.61242 0.69108 0.86079 0.0
H287 H 0.61226 0.7527 0.85715 0.0
H288 H 0.52937 0.71141 0.80821 0.0
H289 H 0.52889 0.64971 0.81196 0.0
H290 H 0.62526 0.79195 0.82568 0.0
H291 H 0.47835 0.76812 0.80936 0.0
H292 H 0.42281 0.72663 0.81742 0.0
H293 H 0.47207 0.70532 0.87288 0.0
H294 H 0.5277 0.74738 0.86547 0.0
H295 H 0.59945 0.95248 0.79326 0.0
H296 H 0.5963 0.8887 0.79435 0.0
H297 H 0.5519 0.89106 0.854 0.0
H298 H 0.55454 0.95428 0.85265 0.0
H299 H 0.51939 0.82972 0.83072 0.0
H300 H 0.63864 0.89846 0.85004 0.0
H301 H 0.69532 0.94143 0.84521 0.0
H302 H 0.70327 0.87479 0.78928 0.0
H303 H 0.64641 0.83164 0.79365 0.0
C304 C 0.59396 0.695 0.84933 0.0
C305 C 0.57055 0.66524 0.83676 0.0
C306 C 0.59404 0.73035 0.84719 0.0
C307 C 0.57068 0.73684 0.8325 0.0
C308 C 0.54735 0.7072 0.81987 0.0
C309 C 0.54716 0.67183 0.82204 0.0
C310 C 0.57089 0.7746 0.83038 0.0
C311 C 0.60205 0.80012 0.82672 0.0
C312 C 0.54073 0.78555 0.83189 0.0
C313 C 0.5073 0.76056 0.83669 0.0
C314 C 0.4773 0.75469 0.82332 0.0
C315 C 0.4458 0.73109 0.82778 0.0
C316 C 0.44396 0.71315 0.84556 0.0
C317 C 0.47357 0.71907 0.85904 0.0
C318 C 0.50509 0.74281 0.85473 0.0
C319 C 0.5888 0.93909 0.80645 0.0
C320 C 0.57716 0.95793 0.82286 0.0
C321 C 0.58715 0.9028 0.80715 0.0
C322 C 0.57414 0.88503 0.82438 0.0
C323 C 0.56195 0.90398 0.84054 0.0
C324 C 0.56352 0.94009 0.83979 0.0
C325 C 0.57373 0.84703 0.82596 0.0
C326 C 0.54252 0.82144 0.82949 0.0
C327 C 0.60395 0.83616 0.82469 0.0
C328 C 0.63812 0.86204 0.82205 0.0
C329 C 0.65236 0.89312 0.83663 0.0
C330 C 0.68454 0.91748 0.83399 0.0
C331 C 0.70284 0.9109 0.81691 0.0
C332 C 0.68904 0.87989 0.80248 0.0
C333 C 0.65686 0.85546 0.80504 0.0
H334 H 0.72775 0.92978 0.8149 0.0
H335 H 0.41957 0.69478 0.84893 0.0
H336 H 0.96554 0.58131 0.12704 0.0
H337 H 0.90531 0.58138 0.1253 0.0
H338 H 0.87873 0.49166 0.16146 0.0
H339 H 0.93903 0.49095 0.16275 0.0
H340 H 0.82666 0.48038 0.13454 0.0
H341 H 0.88643 0.58644 0.1812 0.0
H342 H 0.93095 0.64473 0.19301 0.0
H343 H 0.89652 0.69151 0.14205 0.0
H344 H 0.85207 0.63333 0.12977 0.0
H345 H 0.65589 0.49758 0.15004 0.0
H346 H 0.7159 0.49632 0.15599 0.0
H347 H 0.75083 0.58374 0.11878 0.0
H348 H 0.69157 0.58547 0.11325 0.0
H349 H 0.79833 0.59519 0.14849 0.0
H350 H 0.73944 0.48756 0.10144 0.0
H351 H 0.69472 0.42911 0.09033 0.0
H352 H 0.72719 0.38531 0.14323 0.0
H353 H 0.77184 0.44369 0.1548 0.0
C354 C 0.94707 0.56149 0.1347 0.0
C355 C 0.95808 0.53623 0.14514 0.0
C356 C 0.91215 0.56172 0.13383 0.0
C357 C 0.88638 0.53701 0.1436 0.0
C358 C 0.89726 0.51134 0.15376 0.0
C359 C 0.93224 0.51101 0.15456 0.0
C360 C 0.84856 0.53787 0.14309 0.0
C361 C 0.82075 0.5056 0.13793 0.0
C362 C 0.83949 0.57041 0.14713 0.0
C363 C 0.86614 0.60543 0.15446 0.0
C364 C 0.88851 0.60909 0.17243 0.0
C365 C 0.91371 0.64212 0.17922 0.0
C366 C 0.91662 0.67178 0.16825 0.0
C367 C 0.89427 0.66849 0.15051 0.0
C368 C 0.86905 0.63551 0.14364 0.0
C369 C 0.67637 0.517 0.14343 0.0
C370 C 0.66806 0.54158 0.13107 0.0
C371 C 0.71104 0.51595 0.14658 0.0
C372 C 0.73896 0.53946 0.13754 0.0
C373 C 0.73066 0.56494 0.12599 0.0
C374 C 0.69624 0.56587 0.12277 0.0
C375 C 0.77645 0.5378 0.1397 0.0
C376 C 0.80424 0.56996 0.14516 0.0
C377 C 0.78544 0.50515 0.13604 0.0
C378 C 0.7587 0.47009 0.12911 0.0
C379 C 0.73687 0.46554 0.11078 0.0
C380 C 0.71156 0.43242 0.10439 0.0
C381 C 0.70804 0.40355 0.1161 0.0
C382 C 0.7299 0.40772 0.1342 0.0
C383 C 0.75521 0.44081 0.14068 0.0
H384 H 0.68844 0.37793 0.11113 0.0
H385 H 0.93614 0.69732 0.17353 0.0
H386 H 0.32912 0.88133 0.52034 0.0
H387 H 0.28137 0.8267 0.50829 0.0
H388 H 0.35182 0.77881 0.47728 0.0
H389 H 0.40009 0.83293 0.48983 0.0
H390 H 0.29141 0.77266 0.45199 0.0
H391 H 0.32333 0.74949 0.52053 0.0
H392 H 0.33698 0.76362 0.55878 0.0
H393 H 0.23507 0.7718 0.56649 0.0
H394 H 0.22098 0.75828 0.52822 0.0
H395 H 0.17087 0.59689 0.42816 0.0
H396 H 0.22225 0.64706 0.44167 0.0
H397 H 0.1592 0.69648 0.47914 0.0
H398 H 0.10776 0.6465 0.46569 0.0
H399 H 0.21797 0.70024 0.50121 0.0
H400 H 0.18633 0.72682 0.43349 0.0
H401 H 0.17152 0.71407 0.39531 0.0
H402 H 0.27139 0.70133 0.38599 0.0
H403 H 0.28663 0.71351 0.42419 0.0
C404 C 0.33467 0.859 0.51127 0.0
C405 C 0.36856 0.8616 0.50612 0.0
C406 C 0.30727 0.82786 0.50428 0.0
C407 C 0.31311 0.7987 0.49196 0.0
C408 C 0.34678 0.80111 0.48671 0.0
C409 C 0.3743 0.83214 0.49384 0.0
C410 C 0.28388 0.76587 0.4844 0.0
C411 C 0.27567 0.75643 0.46272 0.0
C412 C 0.26291 0.74533 0.49844 0.0
C413 C 0.27121 0.75319 0.52148 0.0
C414 C 0.30392 0.75459 0.53036 0.0
C415 C 0.31172 0.76244 0.55205 0.0
C416 C 0.28693 0.76868 0.56505 0.0
C417 C 0.25426 0.76699 0.55639 0.0
C418 C 0.24634 0.75921 0.5347 0.0
C419 C 0.16794 0.61851 0.43923 0.0
C420 C 0.13521 0.61774 0.44581 0.0
C421 C 0.19733 0.64713 0.44695 0.0
C422 C 0.19451 0.67571 0.46126 0.0
C423 C 0.16199 0.67466 0.46816 0.0
C424 C 0.13263 0.64602 0.4605 0.0
C425 C 0.22532 0.70706 0.46877 0.0
C426 C 0.23382 0.71628 0.49045 0.0
C427 C 0.24638 0.72759 0.45472 0.0
C428 C 0.23748 0.72069 0.43172 0.0
C429 C 0.20505 0.72104 0.42331 0.0
C430 C 0.19658 0.71395 0.40167 0.0
C431 C 0.22045 0.70677 0.38823 0.0
C432 C 0.2529 0.70683 0.39642 0.0
C433 C 0.26148 0.71385 0.41807 0.0
H434 H 0.21383 0.70126 0.37148 0.0
H435 H 0.29302 0.77475 0.58184 0.0
H436 H 0.52799 0.42213 0.83822 0.0
H437 H 0.53196 0.36049 0.83613 0.0
H438 H 0.6429 0.40219 0.83646 0.0
H439 H 0.63926 0.46408 0.83904 0.0
H440 H 0.60853 0.34481 0.80287 0.0
H441 H 0.6154 0.37112 0.87777 0.0
H442 H 0.5976 0.3898 0.9122 0.0
H443 H 0.501 0.30477 0.90029 0.0
H444 H 0.51805 0.28579 0.86565 0.0
H445 H 0.64009 0.17703 0.80373 0.0
H446 H 0.64249 0.24028 0.81314 0.0
H447 H 0.53703 0.20536 0.83004 0.0
H448 H 0.53548 0.14201 0.82167 0.0
H449 H 0.57089 0.26095 0.85603 0.0
H450 H 0.56136 0.23543 0.78115 0.0
H451 H 0.57806 0.21451 0.74692 0.0
H452 H 0.67614 0.29765 0.75747 0.0
H453 H 0.66029 0.31855 0.79206 0.0
C454 C 0.55327 0.41824 0.838 0.0
C455 C 0.58332 0.44803 0.83874 0.0
C456 C 0.55549 0.383 0.8369 0.0
C457 C 0.58772 0.37678 0.8362 0.0
C458 C 0.61778 0.40643 0.83705 0.0
C459 C 0.61565 0.44176 0.83857 0.0
C460 C 0.58976 0.3392 0.83345 0.0
C461 C 0.60084 0.3266 0.81462 0.0
C462 C 0.57868 0.31518 0.84851 0.0
C463 C 0.56789 0.32725 0.86902 0.0
C464 C 0.59018 0.35667 0.88237 0.0
C465 C 0.58029 0.36721 0.90197 0.0
C466 C 0.54822 0.34844 0.90843 0.0
C467 C 0.52586 0.31924 0.89526 0.0
C468 C 0.53564 0.30856 0.87566 0.0
C469 C 0.61767 0.18303 0.80974 0.0
C470 C 0.5876 0.15491 0.81199 0.0
C471 C 0.6189 0.21913 0.81495 0.0
C472 C 0.58965 0.22784 0.82184 0.0
C473 C 0.55992 0.19952 0.82471 0.0
C474 C 0.55897 0.16336 0.8199 0.0
C475 C 0.58961 0.26629 0.82535 0.0
C476 C 0.57874 0.27909 0.84427 0.0
C477 C 0.60041 0.29042 0.81022 0.0
C478 C 0.60977 0.27832 0.78928 0.0
C479 C 0.58658 0.24912 0.77623 0.0
C480 C 0.59591 0.23726 0.75675 0.0
C481 C 0.62819 0.25473 0.75001 0.0
C482 C 0.65117 0.28412 0.76273 0.0
C483 C 0.64203 0.29597 0.78228 0.0
H484 H 0.63541 0.24556 0.73493 0.0
H485 H 0.54073 0.35646 0.92368 0.0
H486 H 0.52309 0.89856 0.50201 0.0
H487 H 0.52016 0.83569 0.50463 0.0
H488 H 0.6282 0.87033 0.52694 0.0
H489 H 0.63167 0.93285 0.5228 0.0
H490 H 0.61649 0.81129 0.50343 0.0
H491 H 0.55376 0.84889 0.55947 0.0
H492 H 0.50819 0.87306 0.57301 0.0
H493 H 0.43009 0.78381 0.53789 0.0
H494 H 0.47514 0.75957 0.52364 0.0
H495 H 0.61875 0.65262 0.54683 0.0
H496 H 0.61998 0.71526 0.54396 0.0
H497 H 0.5152 0.67671 0.51557 0.0
H498 H 0.51394 0.61423 0.51877 0.0
H499 H 0.52412 0.73682 0.54216 0.0
H500 H 0.58417 0.70003 0.48567 0.0
H501 H 0.62789 0.67596 0.46946 0.0
H502 H 0.70915 0.76284 0.50415 0.0
H503 H 0.66586 0.78716 0.52078 0.0
C504 C 0.54628 0.89261 0.50723 0.0
C505 C 0.57761 0.92055 0.51222 0.0
C506 C 0.54453 0.85668 0.50896 0.0
C507 C 0.57369 0.84808 0.51663 0.0
C508 C 0.60523 0.87603 0.52109 0.0
C509 C 0.60724 0.91182 0.51871 0.0
C510 C 0.57151 0.81024 0.52019 0.0
C511 C 0.59658 0.79534 0.51222 0.0
C512 C 0.54494 0.78866 0.5311 0.0
C513 C 0.51787 0.80255 0.54037 0.0
C514 C 0.52688 0.83444 0.5546 0.0
C515 C 0.50115 0.84817 0.56239 0.0
C516 C 0.46631 0.82995 0.55636 0.0
C517 C 0.45709 0.79789 0.54255 0.0
C518 C 0.48271 0.78416 0.5346 0.0
C519 C 0.5959 0.65774 0.54028 0.0
C520 C 0.56622 0.62893 0.53307 0.0
C521 C 0.59665 0.69343 0.5385 0.0
C522 C 0.56783 0.70077 0.52926 0.0
C523 C 0.53775 0.67183 0.52273 0.0
C524 C 0.53702 0.63619 0.52455 0.0
C525 C 0.5694 0.73835 0.52568 0.0
C526 C 0.54418 0.75304 0.53356 0.0
C527 C 0.5957 0.75973 0.51462 0.0
C528 C 0.62177 0.74519 0.50463 0.0
C529 C 0.61136 0.71384 0.48997 0.0
C530 C 0.63606 0.70018 0.48068 0.0
C531 C 0.67127 0.7178 0.48582 0.0
C532 C 0.68186 0.74918 0.50021 0.0
C533 C 0.65725 0.76293 0.50956 0.0
H534 H 0.69036 0.70719 0.47861 0.0
H535 H 0.44646 0.84069 0.56238 0.0
H536 H 0.83668 0.63905 0.86477 0.0
H537 H 0.89287 0.63216 0.85709 0.0
H538 H 0.84401 0.51899 0.83537 0.0
H539 H 0.78797 0.52532 0.84383 0.0
H540 H 0.89821 0.52738 0.86115 0.0
H541 H 0.87613 0.57969 0.80078 0.0
H542 H 0.86015 0.62332 0.78056 0.0
H543 H 0.94774 0.70863 0.81056 0.0
H544 H 0.96399 0.66561 0.83121 0.0
H545 H 0.05535 0.50485 0.83576 0.0
H546 H 0.99983 0.51235 0.82435 0.0
H547 H 1.02971 0.61855 0.85979 0.0
H548 H 0.085 0.61093 0.87144 0.0
H549 H 0.98333 0.60862 0.82106 0.0
H550 H 0.99795 0.55649 0.88521 0.0
H551 H 1.01618 0.51233 0.90369 0.0
H552 H 0.94044 0.42506 0.86535 0.0
H553 H 0.92294 0.46885 0.8459 0.0
C554 C 0.83793 0.61266 0.85846 0.0
C555 C 0.80789 0.58272 0.85495 0.0
C556 C 0.86998 0.60888 0.85378 0.0
C557 C 0.87252 0.57518 0.84534 0.0
C558 C 0.84256 0.5453 0.84172 0.0
C559 C 0.81055 0.54902 0.84646 0.0
C560 C 0.90677 0.57058 0.84178 0.0
C561 C 0.91645 0.54462 0.85196 0.0
C562 C 0.9308 0.59339 0.83003 0.0
C563 C 0.92113 0.61944 0.81767 0.0
C564 C 0.89184 0.60781 0.8032 0.0
C565 C 0.88275 0.63243 0.79163 0.0
C566 C 0.90287 0.66874 0.7943 0.0
C567 C 0.93216 0.6805 0.80852 0.0
C568 C 0.94135 0.65599 0.82014 0.0
C569 C 0.05055 0.53032 0.84039 0.0
C570 C 0.07398 0.55717 0.85465 0.0
C571 C 1.01896 0.5346 0.83385 0.0
C572 C 1.01074 0.56586 0.84142 0.0
C573 C 1.03575 0.59434 0.85375 0.0
C574 C 0.06711 0.58986 0.86052 0.0
C575 C 0.97441 0.56578 0.84053 0.0
C576 C 0.96457 0.59094 0.82976 0.0
C577 C 0.95004 0.54218 0.85165 0.0
C578 C 0.95949 0.51591 0.86391 0.0
C579 C 0.98541 0.52788 0.88058 0.0
C580 C 0.99562 0.50291 0.89123 0.0
C581 C 0.97942 0.46587 0.88575 0.0
C582 C 0.95301 0.45376 0.86956 0.0
C583 C 0.94304 0.47864 0.85864 0.0
H584 H 0.98731 0.44656 0.89405 0.0
H585 H 0.8958 0.68776 0.78532 0.0
H586 H 0.22204 0.76351 0.18704 0.0
H587 H 0.27702 0.80977 0.19885 0.0
H588 H 0.31763 0.78704 0.13992 0.0
H589 H 0.26258 0.74036 0.12804 0.0
H590 H 0.36304 0.79132 0.17454 0.0
H591 H 0.29566 0.8617 0.14851 0.0
H592 H 0.24473 0.88324 0.14503 0.0
H593 H 0.25854 0.92279 0.2107 0.0
H594 H 0.30928 0.901 0.21464 0.0
H595 H 0.51355 0.94638 0.19135 0.0
H596 H 0.46004 0.89979 0.17705 0.0
H597 H 0.41005 0.92335 0.23217 0.0
H598 H 0.46305 0.97067 0.24624 0.0
H599 H 0.36975 0.91872 0.19766 0.0
H600 H 0.43588 0.84758 0.22423 0.0
H601 H 0.48553 0.82427 0.22853 0.0
H602 H 0.47334 0.78466 0.16291 0.0
H603 H 0.42399 0.80835 0.15813 0.0
C604 C 0.2427 0.76831 0.17661 0.0
C605 C 0.23802 0.7483 0.15661 0.0
C606 C 0.27401 0.7949 0.18332 0.0
C607 C 0.30132 0.802 0.17021 0.0
C608 C 0.29683 0.78202 0.15026 0.0
C609 C 0.26534 0.75558 0.14344 0.0
C610 C 0.3347 0.82992 0.17757 0.0
C611 C 0.36471 0.81934 0.17927 0.0
C612 C 0.33657 0.86622 0.18423 0.0
C613 C 0.30609 0.87941 0.18191 0.0
C614 C 0.28766 0.87471 0.16225 0.0
C615 C 0.25886 0.88702 0.16019 0.0
C616 C 0.24835 0.90429 0.17764 0.0
C617 C 0.26668 0.90937 0.19719 0.0
C618 C 0.29549 0.89707 0.19935 0.0
C619 C 0.49113 0.9417 0.2004 0.0
C620 C 0.49262 0.96225 0.21996 0.0
C621 C 0.46064 0.91482 0.19229 0.0
C622 C 0.43107 0.90783 0.20361 0.0
C623 C 0.43255 0.92819 0.22317 0.0
C624 C 0.46299 0.95503 0.23128 0.0
C625 C 0.39823 0.88014 0.19483 0.0
C626 C 0.36825 0.89077 0.19285 0.0
C627 C 0.39639 0.84385 0.18801 0.0
C628 C 0.4265 0.83019 0.19077 0.0
C629 C 0.44404 0.83431 0.21066 0.0
C630 C 0.47209 0.82095 0.21319 0.0
C631 C 0.48266 0.80311 0.19599 0.0
C632 C 0.46519 0.79858 0.17621 0.0
C633 C 0.43719 0.81198 0.17358 0.0
H634 H 0.50433 0.79271 0.19799 0.0
H635 H 0.22605 0.91382 0.17601 0.0
H636 H 0.54086 0.14001 0.54562 0.0
H637 H 0.54097 0.20281 0.54815 0.0
H638 H 0.62002 0.22511 0.50452 0.0
H639 H 0.62066 0.16232 0.50227 0.0
H640 H 0.6341 0.27893 0.53525 0.0
H641 H 0.53452 0.21525 0.48939 0.0
H642 H 0.47959 0.16782 0.47749 0.0
H643 H 0.43161 0.20407 0.53 0.0
H644 H 0.48642 0.25142 0.5424 0.0
H645 H 0.6104 0.45135 0.52361 0.0
H646 H 0.61172 0.38895 0.51503 0.0
H647 H 0.54097 0.35456 0.56216 0.0
H648 H 0.53932 0.41652 0.57062 0.0
H649 H 0.52379 0.30757 0.52568 0.0
H650 H 0.6262 0.36893 0.57225 0.0
H651 H 0.68147 0.41655 0.58311 0.0
H652 H 0.72423 0.38477 0.5271 0.0
H653 H 0.669 0.33727 0.51576 0.0
C654 C 0.55832 0.1582 0.53655 0.0
C655 C 0.58063 0.14598 0.52366 0.0
C656 C 0.55821 0.19415 0.53792 0.0
C657 C 0.58004 0.21868 0.52623 0.0
C658 C 0.60281 0.20674 0.51363 0.0
C659 C 0.6031 0.17076 0.51234 0.0
C660 C 0.57916 0.25675 0.52737 0.0
C661 C 0.61004 0.28516 0.53278 0.0
C662 C 0.54777 0.26508 0.52435 0.0
C663 C 0.51469 0.23671 0.51692 0.0
C664 C 0.51234 0.21295 0.49849 0.0
C665 C 0.4812 0.1861 0.49164 0.0
C666 C 0.45215 0.18288 0.503 0.0
C667 C 0.45415 0.20657 0.52122 0.0
C668 C 0.48524 0.23345 0.52816 0.0
C669 C 0.59487 0.43037 0.53196 0.0
C670 C 0.57495 0.43889 0.5479 0.0
C671 C 0.59582 0.3948 0.52715 0.0
C672 C 0.5767 0.36712 0.5381 0.0
C673 C 0.556 0.37544 0.55355 0.0
C674 C 0.55526 0.41092 0.55846 0.0
C675 C 0.57857 0.32954 0.53392 0.0
C676 C 0.54786 0.30125 0.52792 0.0
C677 C 0.61013 0.32138 0.5362 0.0
C678 C 0.64335 0.34984 0.54304 0.0
C679 C 0.64729 0.3723 0.56216 0.0
C680 C 0.67863 0.39924 0.56842 0.0
C681 C 0.70631 0.40376 0.55577 0.0
C682 C 0.70274 0.38129 0.53686 0.0
C683 C 0.67143 0.35435 0.53051 0.0
H684 H 0.73056 0.42462 0.56064 0.0
H685 H 0.42807 0.16208 0.49767 0.0
H686 H 0.4231 0.60029 0.73132 0.0
H687 H 0.36824 0.61355 0.72705 0.0
H688 H 0.31295 0.5026 0.73307 0.0
H689 H 0.36656 0.48927 0.73756 0.0
H690 H 0.27038 0.53373 0.71443 0.0
H691 H 0.35114 0.56256 0.78123 0.0
H692 H 0.40838 0.59505 0.7997 0.0
H693 H 0.40301 0.69424 0.77876 0.0
H694 H 0.34554 0.66226 0.76037 0.0
H695 H 0.1958 0.47697 0.80297 0.0
H696 H 0.22254 0.49567 0.77103 0.0
H697 H 0.22196 0.60502 0.78979 0.0
H698 H 0.1954 0.5861 0.82194 0.0
H699 H 0.28477 0.60237 0.78536 0.0
H700 H 0.18264 0.56143 0.74121 0.0
H701 H 0.12534 0.5215 0.72649 0.0
H702 H 0.17006 0.43827 0.70602 0.0
H703 H 0.22754 0.47736 0.7209 0.0
C704 C 0.39921 0.57839 0.73095 0.0
C705 C 0.39949 0.54415 0.73586 0.0
C706 C 0.36782 0.586 0.72832 0.0
C707 C 0.3366 0.55944 0.73068 0.0
C708 C 0.33671 0.52375 0.73149 0.0
C709 C 0.36785 0.51614 0.73412 0.0
C710 C 0.30651 0.56931 0.73861 0.0
C711 C 0.27318 0.5494 0.72972 0.0
C712 C 0.31014 0.5907 0.75828 0.0
C713 C 0.34436 0.61011 0.76939 0.0
C714 C 0.36221 0.59133 0.78066 0.0
C715 C 0.39461 0.60963 0.79111 0.0
C716 C 0.40936 0.64667 0.79036 0.0
C717 C 0.39158 0.66554 0.77931 0.0
C718 C 0.35906 0.64739 0.76892 0.0
C719 C 0.20046 0.5047 0.79987 0.0
C720 C 0.19404 0.53029 0.81471 0.0
C721 C 0.21533 0.51535 0.78152 0.0
C722 C 0.22395 0.55175 0.77785 0.0
C723 C 0.21523 0.57679 0.79218 0.0
C724 C 0.20031 0.56606 0.81053 0.0
C725 C 0.24868 0.56436 0.76197 0.0
C726 C 0.28109 0.58861 0.76947 0.0
C727 C 0.24407 0.54634 0.74128 0.0
C728 C 0.20955 0.52252 0.73214 0.0
C729 C 0.18028 0.53456 0.73365 0.0
C730 C 0.14773 0.51205 0.72527 0.0
C731 C 0.14407 0.4774 0.7153 0.0
C732 C 0.17296 0.46517 0.71369 0.0
C733 C 0.20557 0.48756 0.72205 0.0
H734 H 0.11885 0.46 0.70883 0.0
H735 H 0.43456 0.66073 0.79835 0.0
H736 H 0.92954 0.30724 0.20887 0.0
H737 H 0.87569 0.26326 0.21597 0.0
H738 H 0.81713 0.32098 0.18456 0.0
H739 H 0.87088 0.36446 0.1766 0.0
H740 H 0.79199 0.29885 0.22357 0.0
H741 H 0.82436 0.24933 0.15874 0.0
H742 H 0.86383 0.22966 0.13563 0.0
H743 H 0.87239 0.15232 0.17663 0.0
H744 H 0.83335 0.17195 0.20017 0.0
H745 H 0.62818 0.16337 0.20397 0.0
H746 H 0.68296 0.21134 0.20306 0.0
H747 H 0.73863 0.14246 0.22568 0.0
H748 H 0.68365 0.09425 0.22623 0.0
H749 H 0.76652 0.17081 0.1927 0.0
H750 H 0.73222 0.21756 0.25683 0.0
H751 H 0.69347 0.2373 0.28048 0.0
H752 H 0.68909 0.31945 0.24201 0.0
H753 H 0.72745 0.29987 0.21794 0.0
C754 C 0.90528 0.31049 0.20324 0.0
C755 C 0.9047 0.33929 0.19191 0.0
C756 C 0.87451 0.28544 0.20748 0.0
C757 C 0.84247 0.28876 0.20068 0.0
C758 C 0.84163 0.31803 0.19 0.0
C759 C 0.87243 0.34293 0.18553 0.0
C760 C 0.8099 0.26089 0.20407 0.0
C761 C 0.78615 0.27091 0.21666 0.0
C762 C 0.80284 0.22431 0.19549 0.0
C763 C 0.82625 0.2124 0.18134 0.0
C764 C 0.83492 0.22837 0.16294 0.0
C765 C 0.85716 0.21718 0.14974 0.0
C766 C 0.87069 0.18983 0.15469 0.0
C767 C 0.86193 0.17355 0.17283 0.0
C768 C 0.83974 0.18468 0.1861 0.0
C769 C 0.65216 0.15888 0.2091 0.0
C770 C 0.65204 0.12554 0.21533 0.0
C771 C 0.6834 0.18625 0.20864 0.0
C772 C 0.71498 0.18068 0.21449 0.0
C773 C 0.71463 0.14742 0.22115 0.0
C774 C 0.68333 0.12002 0.22157 0.0
C775 C 0.74833 0.2086 0.21226 0.0
C776 C 0.7723 0.19864 0.1998 0.0
C777 C 0.7556 0.24517 0.22106 0.0
C778 C 0.73246 0.25701 0.23547 0.0
C779 C 0.72276 0.23963 0.2533 0.0
C780 C 0.70091 0.25083 0.26681 0.0
C781 C 0.68875 0.27955 0.26272 0.0
C782 C 0.69849 0.29718 0.24514 0.0
C783 C 0.72032 0.28606 0.23157 0.0
H784 H 0.67185 0.28819 0.2732 0.0
H785 H 0.88789 0.18119 0.14445 0.0
H786 H 0.09388 0.46634 0.08633 0.0
H787 H 0.10798 0.47755 0.05072 0.0
H788 H 0.06617 0.56727 0.05622 0.0
H789 H 0.05138 0.5557 0.09195 0.0
H790 H 1.04554 0.52516 0.01888 0.0
H791 H 0.15222 0.58328 0.05951 0.0
H792 H 0.19926 0.58781 0.0862 0.0
H793 H 0.22517 0.50192 0.05006 0.0
H794 H 0.17791 0.49648 0.02325 0.0
H795 H 0.11621 0.59136 0.92718 0.0
H796 H 0.10868 0.58906 0.96449 0.0
H797 H 0.13357 0.48884 0.96087 0.0
H798 H 0.13995 0.49011 0.92327 0.0
H799 H 0.16485 0.54131 -0.00212 0.0
H800 H 0.05329 0.47869 0.96031 0.0
H801 H 1.00403 0.47198 0.93478 0.0
H802 H 0.98802 0.56789 0.96595 0.0
H803 H 1.03717 0.57502 0.99175 0.0
C804 C 0.08757 0.48839 0.07993 0.0
C805 C 0.0716 0.51022 0.09183 0.0
C806 C 0.09584 0.4949 0.05965 0.0
C807 C 0.08864 0.52361 0.05098 0.0
C808 C 0.07208 0.54509 0.0627 0.0
C809 C 0.06367 0.53849 0.08304 0.0
C810 C 0.09807 0.5306 0.02955 0.0
C811 C 0.07176 0.52942 0.0144 0.0
C812 C 0.1322 0.53549 0.02366 0.0
C813 C 0.16137 0.53934 0.03941 0.0
C814 C 0.16785 0.56525 0.05727 0.0
C815 C 0.19455 0.56799 0.07243 0.0
C816 C 0.21518 0.54517 0.06982 0.0
C817 C 0.20919 0.51961 0.05203 0.0
C818 C 0.18247 0.51672 0.03683 0.0
C819 C 0.12006 0.56875 0.93427 0.0
C820 C 0.12822 0.54064 0.92214 0.0
C821 C 0.11599 0.56766 0.95561 0.0
C822 C 0.12034 0.53867 0.96531 0.0
C823 C 0.13023 0.51149 0.9536 0.0
C824 C 0.13397 0.51235 0.93214 0.0
C825 C 0.11223 0.53557 0.98732 0.0
C826 C 0.13877 0.53748 0.00251 0.0
C827 C 0.07837 0.53156 0.99334 0.0
C828 C 1.04906 0.52759 0.97779 0.0
C829 C 1.03941 0.49848 0.96161 0.0
C830 C 1.01144 0.49453 0.94715 0.0
C831 C 0.993 0.51959 0.94867 0.0
C832 C 1.00237 0.54854 0.96476 0.0
C833 C 1.03019 0.55248 0.97935 0.0
H834 H 0.9714 0.51654 0.93741 0.0
H835 H 0.23585 0.54739 0.08157 0.0
H836 H 0.58979 0.99678 0.45379 0.0
H837 H 0.59874 1.00167 0.41672 0.0
H838 H 0.54693 0.0836 0.41807 0.0
H839 H 0.53647 0.07733 0.45479 0.0
H840 H 0.5236 0.04014 0.3854 0.0
H841 H 0.6385 0.10255 0.41425 0.0
H842 H 0.6931 0.11293 0.43577 0.0
H843 H 0.7088 0.01909 0.40181 0.0
H844 H 0.65427 0.00814 0.38002 0.0
H845 H 0.56993 0.0873 0.28457 0.0
H846 H 0.57648 0.09418 0.32306 0.0
H847 H 0.58717 0.9873 0.32096 0.0
H848 H 0.57979 0.97999 0.28249 0.0
H849 H 0.63428 0.04791 0.35365 0.0
H850 H 0.51417 0.98663 0.32638 0.0
H851 H 0.46168 0.98272 0.30431 0.0
H852 H 0.45856 0.08373 0.3365 0.0
H853 H 0.51147 0.08854 0.3585 0.0
C854 C 0.58052 0.01594 0.44615 0.0
C855 C 0.56223 0.03649 0.45704 0.0
C856 C 0.58589 0.01898 0.425 0.0
C857 C 0.57388 0.04335 0.41454 0.0
C858 C 0.55636 0.06451 0.42568 0.0
C859 C 0.55041 0.06095 0.44668 0.0
C860 C 0.57758 0.04517 0.3917 0.0
C861 C 0.54804 0.0425 0.37864 0.0
C862 C 0.60929 0.04787 0.38261 0.0
C863 C 0.64214 0.05434 0.39563 0.0
C864 C 0.65348 0.08399 0.41146 0.0
C865 C 0.68443 0.09 0.4237 0.0
C866 C 0.70429 0.06656 0.42027 0.0
C867 C 0.69335 0.03719 0.40448 0.0
C868 C 0.66249 0.03113 0.39213 0.0
C869 C 0.57449 0.06567 0.29235 0.0
C870 C 0.57428 0.0331 0.28068 0.0
C871 C 0.57819 0.0696 0.31427 0.0
C872 C 0.58231 0.04123 0.32477 0.0
C873 C 0.58424 0.00954 0.3131 0.0
C874 C 0.57986 0.00534 0.29121 0.0
C875 C 0.58042 0.04283 0.34776 0.0
C876 C 0.61012 0.04596 0.36068 0.0
C877 C 0.5491 0.0414 0.35685 0.0
C878 C 0.51697 0.03814 0.3439 0.0
C879 C 0.50246 0.00816 0.32862 0.0
C880 C 0.47262 0.00575 0.31614 0.0
C881 C 0.45684 0.03301 0.31896 0.0
C882 C 0.47084 0.06267 0.33431 0.0
C883 C 0.50075 0.06524 0.34678 0.0
H884 H 0.43373 0.0311 0.30929 0.0
H885 H 0.72821 0.07125 0.4298 0.0
H886 H 0.55068 0.56102 0.7827 0.0
H887 H 0.5422 0.55874 0.74455 0.0
H888 H 0.64886 0.56292 0.73921 0.0
H889 H 0.65735 0.56576 0.77728 0.0
H890 H 0.63402 0.60696 0.71573 0.0
H891 H 0.57942 0.48526 0.72794 0.0
H892 H 0.53863 0.43452 0.74216 0.0
H893 H 0.45316 0.45685 0.71095 0.0
H894 H 0.49328 0.50897 0.69745 0.0
H895 H 0.63164 0.52989 0.61003 0.0
H896 H 0.63442 0.54336 0.64825 0.0
H897 H 0.5352 0.56216 0.64324 0.0
H898 H 0.53266 0.54927 0.6048 0.0
H899 H 0.54172 0.511 0.67154 0.0
H900 H 0.59997 0.63174 0.6578 0.0
H901 H 0.64336 0.67833 0.64206 0.0
H902 H 0.72515 0.65113 0.67427 0.0
H903 H 0.68224 0.60399 0.68997 0.0
C904 C 0.57206 0.56085 0.77329 0.0
C905 C 0.6045 0.56299 0.78282 0.0
C906 C 0.56728 0.55973 0.75152 0.0
C907 C 0.59484 0.56036 0.73893 0.0
C908 C 0.62723 0.56251 0.74855 0.0
C909 C 0.63204 0.56394 0.77028 0.0
C910 C 0.59037 0.55919 0.71576 0.0
C911 C 0.61393 0.58579 0.70611 0.0
C912 C 0.5637 0.53203 0.70314 0.0
C913 C 0.53941 0.50151 0.71196 0.0
C914 C 0.5519 0.47989 0.72447 0.0
C915 C 0.52887 0.45088 0.73243 0.0
C916 C 0.49329 0.44269 0.72763 0.0
C917 C 0.48069 0.46352 0.71488 0.0
C918 C 0.50355 0.49293 0.70717 0.0
C919 C 0.61077 0.53758 0.6171 0.0
C920 C 0.58201 0.53873 0.60458 0.0
C921 C 0.61236 0.54526 0.63888 0.0
C922 C 0.58503 0.55378 0.64853 0.0
C923 C 0.55656 0.55571 0.63604 0.0
C924 C 0.55523 0.54861 0.61417 0.0
C925 C 0.58554 0.5584 0.67171 0.0
C926 C 0.56136 0.53243 0.68131 0.0
C927 C 0.61196 0.58565 0.68427 0.0
C928 C 0.63785 0.61414 0.67494 0.0
C929 C 0.6272 0.63549 0.6614 0.0
C930 C 0.65172 0.66204 0.65251 0.0
C931 C 0.68699 0.66764 0.65713 0.0
C932 C 0.69782 0.64675 0.6707 0.0
C933 C 0.67341 0.62015 0.67962 0.0
H934 H 0.70593 0.6882 0.65023 0.0
H935 H 0.4755 0.42008 0.7337 0.0
H936 H 0.64176 0.01369 0.58207 0.0
H937 H 0.63501 0.01438 0.61966 0.0
H938 H 0.54539 0.05091 0.61195 0.0
H939 H 0.55288 0.0515 0.57443 0.0
H940 H 0.58593 0.08988 0.64351 0.0
H941 H 0.54037 0.96171 0.62225 0.0
H942 H 0.54108 0.90237 0.60519 0.0
H943 H 0.63165 0.90942 0.64442 0.0
H944 H 0.63166 0.96897 0.66166 0.0
H945 H 0.53591 0.077 0.74611 0.0
H946 H 0.53604 0.06524 0.70803 0.0
H947 H 0.62555 0.02854 0.71579 0.0
H948 H 0.62451 0.03898 0.75404 0.0
H949 H 0.58456 0.98848 0.68414 0.0
H950 H 0.63034 0.11698 0.70508 0.0
H951 H 0.63098 0.17746 0.72114 0.0
H952 H 0.54075 0.17048 0.68155 0.0
H953 H 0.5392 0.10973 0.66552 0.0
C954 C 0.62048 0.02163 0.58839 0.0
C955 C 0.59792 0.0327 0.57538 0.0
C956 C 0.61648 0.02175 0.60987 0.0
C957 C 0.58941 0.03226 0.61868 0.0
C958 C 0.56646 0.04267 0.60556 0.0
C959 C 0.57071 0.04296 0.58412 0.0
C960 C 0.58628 0.03464 0.64172 0.0
C961 C 0.58498 0.06745 0.65232 0.0
C962 C 0.58624 0.00582 0.65338 0.0
C963 C 0.58618 0.96994 0.64312 0.0
C964 C 0.56057 0.95072 0.62715 0.0
C965 C 0.56082 0.91703 0.61745 0.0
C966 C 0.58646 0.90219 0.62363 0.0
C967 C 0.61183 0.92096 0.63961 0.0
C968 C 0.61168 0.95465 0.64939 0.0
C969 C 0.55536 0.06604 0.73964 0.0
C970 C 0.58037 0.05913 0.75293 0.0
C971 C 0.55557 0.05954 0.7179 0.0
C972 C 0.58139 0.04693 0.70898 0.0
C973 C 0.60551 0.0385 0.72227 0.0
C974 C 0.60491 0.04442 0.74409 0.0
C975 C 0.58382 0.04365 0.68587 0.0
C976 C 0.58523 0.0108 0.67529 0.0
C977 C 0.58401 0.07248 0.67416 0.0
C978 C 0.58451 0.10867 0.68422 0.0
C979 C 0.61044 0.12819 0.69995 0.0
C980 C 0.61099 0.16255 0.70903 0.0
C981 C 0.58593 0.17779 0.70234 0.0
C982 C 0.56014 0.15864 0.6867 0.0
C983 C 0.55941 0.12425 0.67762 0.0
H984 H 0.58654 0.20452 0.70917 0.0
H985 H 0.5866 0.87611 0.61608 0.0
H986 H 0.60133 0.57649 0.89719 0.0
H987 H 0.60987 0.57566 0.93511 0.0
H988 H 0.50043 0.52373 0.93695 0.0
H989 H 0.49212 0.52348 0.89907 0.0
H990 H 0.58681 0.60375 0.96905 0.0
H991 H 0.48741 0.4629 0.97233 0.0
H992 H 0.46086 0.40618 0.94873 0.0
H993 H 0.54984 0.42879 0.91289 0.0
H994 H 0.57734 0.485 0.93661 0.0
H995 H 0.55517 0.5791 0.07512 0.0
H996 H 0.5467 0.58103 0.03735 0.0
H997 H 0.59996 0.50148 0.025 0.0
H998 H 0.60772 0.49878 0.0626 0.0
H999 H 0.54484 0.48685 -0.00207 0.0
H1000 H 0.64093 0.59052 0.02302 0.0
H1001 H 0.67201 0.64712 0.04562 0.0
H1002 H 0.59885 0.69755 0.0236 0.0
H1003 H 0.56702 0.64104 0.00108 0.0
C1004 C 0.57923 0.56472 0.9057 0.0
C1005 C 0.54622 0.54943 0.89514 0.0
C1006 C 0.58404 0.56453 0.92739 0.0
C1007 C 0.55588 0.5491 0.93888 0.0
C1008 C 0.52268 0.53515 0.92841 0.0
C1009 C 0.51794 0.53512 0.90675 0.0
C1010 C 0.56124 0.54655 0.96165 0.0
C1011 C 0.57755 0.5782 0.97536 0.0
C1012 C 0.54983 0.51311 0.9699 0.0
C1013 C 0.53425 0.4784 0.95613 0.0
C1014 C 0.50145 0.45558 0.95953 0.0
C1015 C 0.48624 0.4235 0.94613 0.0
C1016 C 0.50361 0.41392 0.92929 0.0
C1017 C 0.53639 0.43621 0.92594 0.0
C1018 C 0.55182 0.46816 0.93938 0.0
C1019 C 0.56468 0.5617 0.06434 0.0
C1020 C 0.58234 0.53898 0.0719 0.0
C1021 C 0.56011 0.56306 0.04276 0.0
C1022 C 0.5731 0.54175 0.0283 0.0
C1023 C 0.58983 0.51829 0.0358 0.0
C1024 C 0.59447 0.51698 0.05733 0.0
C1025 C 0.56976 0.54416 0.00539 0.0
C1026 C 0.55392 0.51243 0.99164 0.0
C1027 C 0.58228 0.57739 -0.00294 0.0
C1028 C 0.6014 0.61144 0.01053 0.0
C1029 C 0.63131 0.61359 0.02313 0.0
C1030 C 0.64909 0.64567 0.0359 0.0
C1031 C 0.63736 0.67589 0.03608 0.0
C1032 C 0.60787 0.67411 0.02346 0.0
C1033 C 0.58996 0.64207 0.01068 0.0
H1034 H 0.65117 0.7007 0.04598 0.0
H1035 H 0.49168 0.3892 0.91885 0.0
H1036 H 0.1013 0.52302 0.20838 0.0
H1037 H 0.09616 0.51416 0.24535 0.0
H1038 H 1.03968 0.5918 0.2527 0.0
H1039 H 1.04522 0.60109 0.21585 0.0
H1040 H 0.08629 0.6042 0.28439 0.0
H1041 H 0.99712 0.5005 0.25154 0.0
H1042 H 0.97059 0.4456 0.22666 0.0
H1043 H 1.04213 0.39549 0.25129 0.0
H1044 H 0.06898 0.45019 0.27651 0.0
H1045 H 1.01813 0.55901 0.38116 0.0
H1046 H 1.01604 0.55571 0.34278 0.0
H1047 H 0.10446 0.51627 0.34254 0.0
H1048 H 0.1073 0.52064 0.38101 0.0
H1049 H 1.04039 0.4828 0.30763 0.0
H1050 H 0.12967 0.59207 0.34062 0.0
H1051 H 0.14949 0.64666 0.36658 0.0
H1052 H 0.07074 0.68658 0.34099 0.0
H1053 H 0.05001 0.63179 0.31513 0.0
C1054 C 0.08772 0.5381 0.2179 0.0
C1055 C 0.07362 0.56271 0.20928 0.0
C1056 C 0.08463 0.53289 0.23898 0.0
C1057 C 0.06718 0.55201 0.25177 0.0
C1058 C 0.05324 0.57674 0.24316 0.0
C1059 C 0.0564 0.58201 0.2221 0.0
C1060 C 0.06428 0.54703 0.27427 0.0
C1061 C 0.07592 0.57765 0.28937 0.0
C1062 C 0.05103 0.5124 0.28092 0.0
C1063 C 1.03526 0.47954 0.26575 0.0
C1064 C 1.00736 0.47787 0.25154 0.0
C1065 C 0.99222 0.44675 0.2374 0.0
C1066 C 1.00481 0.41711 0.23726 0.0
C1067 C 1.03245 0.41849 0.25138 0.0
C1068 C 1.04756 0.44949 0.26566 0.0
C1069 C 1.03647 0.54869 0.37283 0.0
C1070 C 0.06281 0.53997 0.38389 0.0
C1071 C 1.03532 0.5469 0.35099 0.0
C1072 C 0.06011 0.53576 0.33994 0.0
C1073 C 0.08501 0.5247 0.35085 0.0
C1074 C 0.08664 0.52724 0.37273 0.0
C1075 C 0.06253 0.53988 0.31745 0.0
C1076 C 0.05084 0.5092 0.30247 0.0
C1077 C 0.07522 0.57447 0.31085 0.0
C1078 C 0.08804 0.60767 0.32613 0.0
C1079 C 0.11637 0.61232 0.34067 0.0
C1080 C 0.12781 0.64332 0.35534 0.0
C1081 C 0.11133 0.67004 0.35547 0.0
C1082 C 0.08344 0.66584 0.34089 0.0
C1083 C 0.07184 0.63482 0.32623 0.0
H1084 H 0.12021 0.69404 0.36682 0.0
H1085 H 0.99304 0.39303 0.2263 0.0
loop_
_geom_bond_atom_site_label_1
_geom_bond_atom_site_label_2
_geom_bond_distance
_geom_bond_site_symmetry_2
_ccdc_geom_bond_type
Nd0 C2 2.836 . S
Nd0 O20 2.500 . S
Nd0 O21 2.492 . S
Nd0 O22 2.487 . S
Nd0 O23 2.682 . S
Nd0 O24 2.410 . S
Nd0 O29 2.414 . S
Nd0 O31 2.424 1_455 S
Nd1 C11 2.836 1_455 S
Nd1 O23 2.414 . S
Nd1 O25 2.424 . S
Nd1 O26 2.500 1_455 S
Nd1 O27 2.492 1_455 S
Nd1 O28 2.487 . S
Nd1 O29 2.682 . S
Nd1 O30 2.410 1_455 S
C2 Nd0 2.836 . S
C2 C3 1.498 . S
C2 O20 1.258 . S
C2 O21 1.239 . S
C3 C2 1.498 . S
C3 C4 1.366 . S
C3 C8 1.407 . S
C4 C3 1.366 . S
C4 C5 1.392 . S
C4 H32 0.930 . S
C5 C4 1.392 . S
C5 C6 1.398 . S
C5 H33 0.929 . S
C6 C5 1.398 . S
C6 C7 1.352 . S
C7 C6 1.352 . S
C7 C8 1.384 . S
C7 H34 0.930 . S
C8 C3 1.407 . S
C8 C7 1.384 . S
C8 H35 0.929 . S
C9 O22 1.241 . S
C9 O23 1.273 . S
C10 O24 1.251 . S
C10 O25 1.268 . S
C11 Nd1 2.836 1_655 S
C11 C12 1.498 . S
C11 O26 1.258 . S
C11 O27 1.239 . S
C12 C11 1.498 . S
C12 C13 1.366 . S
C12 C17 1.407 . S
C13 C12 1.366 . S
C13 C14 1.392 . S
C13 H36 0.930 . S
C14 C13 1.392 . S
C14 C15 1.398 . S
C14 H37 0.929 . S
C15 C14 1.398 . S
C15 C16 1.352 . S
C16 C15 1.352 . S
C16 C17 1.384 . S
C16 H38 0.930 . S
C17 C12 1.407 . S
C17 C16 1.384 . S
C17 H39 0.929 . S
C18 O28 1.241 . S
C18 O29 1.273 . S
C19 O30 1.251 . S
C19 O31 1.268 . S
O20 Nd0 2.500 . S
O20 C2 1.258 . S
O21 Nd0 2.492 . S
O21 C2 1.239 . S
O22 Nd0 2.487 . S
O22 C9 1.241 . S
O23 Nd0 2.682 . S
O23 Nd1 2.414 . S
O23 C9 1.273 . S
O24 Nd0 2.410 . S
O24 C10 1.251 . S
O25 Nd1 2.424 . S
O25 C10 1.268 . S
O26 Nd1 2.500 1_655 S
O26 C11 1.258 . S
O27 Nd1 2.492 1_655 S
O27 C11 1.239 . S
O28 Nd1 2.487 . S
O28 C18 1.241 . S
O29 Nd0 2.414 . S
O29 Nd1 2.682 . S
O29 C18 1.273 . S
O30 Nd1 2.410 1_655 S
O30 C19 1.251 . S
O31 Nd0 2.424 1_655 S
O31 C19 1.268 . S
H32 C4 0.930 . S
H33 C5 0.929 . S
H34 C7 0.930 . S
H35 C8 0.929 . S
H36 C13 0.930 . S
H37 C14 0.929 . S
H38 C16 0.930 . S
H39 C17 0.929 . S
Nd40 C42 2.836 1_545 S
Nd40 O60 2.500 1_545 S
Nd40 O61 2.492 1_545 S
Nd40 O62 2.487 . S
Nd40 O63 2.682 . S
Nd40 O64 2.410 1_545 S
Nd40 O69 2.414 . S
Nd40 O71 2.424 . S
Nd41 C51 2.836 . S
Nd41 O63 2.414 . S
Nd41 O65 2.424 1_545 S
Nd41 O66 2.500 . S
Nd41 O67 2.492 . S
Nd41 O68 2.487 . S
Nd41 O69 2.682 . S
Nd41 O70 2.410 . S
C42 Nd40 2.836 1_565 S
C42 C43 1.498 . S
C42 O60 1.258 . S
C42 O61 1.239 . S
C43 C42 1.498 . S
C43 C44 1.366 . S
C43 C48 1.407 . S
C44 C43 1.366 . S
C44 C45 1.392 . S
C44 H72 0.930 . S
C45 C44 1.392 . S
C45 C46 1.398 . S
C45 H73 0.929 . S
C46 C45 1.398 . S
C46 C47 1.352 . S
C47 C46 1.352 . S
C47 C48 1.384 . S
C47 H74 0.930 . S
C48 C43 1.407 . S
C48 C47 1.384 . S
C48 H75 0.929 . S
C49 O62 1.241 . S
C49 O63 1.273 . S
C50 O64 1.251 . S
C50 O65 1.268 . S
C51 Nd41 2.836 . S
C51 C52 1.498 . S
C51 O66 1.258 . S
C51 O67 1.239 . S
C52 C51 1.498 . S
C52 C53 1.366 . S
C52 C57 1.407 . S
C53 C52 1.366 . S
C53 C54 1.392 . S
C53 H76 0.930 . S
C54 C53 1.392 . S
C54 C55 1.398 . S
C54 H77 0.929 . S
C55 C54 1.398 . S
C55 C56 1.352 . S
C56 C55 1.352 . S
C56 C57 1.384 . S
C56 H78 0.930 . S
C57 C52 1.407 . S
C57 C56 1.384 . S
C57 H79 0.929 . S
C58 O68 1.241 . S
C58 O69 1.273 . S
C59 O70 1.251 . S
C59 O71 1.268 . S
O60 Nd40 2.500 1_565 S
O60 C42 1.258 . S
O61 Nd40 2.492 1_565 S
O61 C42 1.239 . S
O62 Nd40 2.487 . S
O62 C49 1.241 . S
O63 Nd40 2.682 . S
O63 Nd41 2.414 . S
O63 C49 1.273 . S
O64 Nd40 2.410 1_565 S
O64 C50 1.251 . S
O65 Nd41 2.424 1_565 S
O65 C50 1.268 . S
O66 Nd41 2.500 . S
O66 C51 1.258 . S
O67 Nd41 2.492 . S
O67 C51 1.239 . S
O68 Nd41 2.487 . S
O68 C58 1.241 . S
O69 Nd40 2.414 . S
O69 Nd41 2.682 . S
O69 C58 1.273 . S
O70 Nd41 2.410 . S
O70 C59 1.251 . S
O71 Nd40 2.424 . S
O71 C59 1.268 . S
H72 C44 0.930 . S
H73 C45 0.929 . S
H74 C47 0.930 . S
H75 C48 0.929 . S
H76 C53 0.930 . S
H77 C54 0.929 . S
H78 C56 0.930 . S
H79 C57 0.929 . S
Nd80 C82 2.836 . S
Nd80 O100 2.500 . S
Nd80 O101 2.492 . S
Nd80 O102 2.487 . S
Nd80 O103 2.682 . S
Nd80 O104 2.410 . S
Nd80 O109 2.414 . S
Nd80 O111 2.424 . S
Nd81 C91 2.836 . S
Nd81 O103 2.414 . S
Nd81 O105 2.424 . S
Nd81 O106 2.500 . S
Nd81 O107 2.492 . S
Nd81 O108 2.487 . S
Nd81 O109 2.682 . S
Nd81 O110 2.410 . S
C82 Nd80 2.836 . S
C82 C83 1.498 . S
C82 O100 1.258 . S
C82 O101 1.239 . S
C83 C82 1.498 . S
C83 C84 1.366 . S
C83 C88 1.407 . S
C84 C83 1.366 . S
C84 C85 1.392 . S
C84 H112 0.930 . S
C85 C84 1.392 . S
C85 C86 1.398 . S
C85 H113 0.929 . S
C86 C85 1.398 . S
C86 C87 1.352 . S
C87 C86 1.352 . S
C87 C88 1.384 . S
C87 H114 0.930 . S
C88 C83 1.407 . S
C88 C87 1.384 . S
C88 H115 0.929 . S
C89 O102 1.241 . S
C89 O103 1.273 . S
C90 O104 1.251 . S
C90 O105 1.268 . S
C91 Nd81 2.836 . S
C91 C92 1.498 . S
C91 O106 1.258 . S
C91 O107 1.239 . S
C92 C91 1.498 . S
C92 C93 1.366 . S
C92 C97 1.407 . S
C93 C92 1.366 . S
C93 C94 1.392 . S
C93 H116 0.930 . S
C94 C93 1.392 . S
C94 C95 1.398 . S
C94 H117 0.929 . S
C95 C94 1.398 . S
C95 C96 1.352 . S
C96 C95 1.352 . S
C96 C97 1.384 . S
C96 H118 0.930 . S
C97 C92 1.407 . S
C97 C96 1.384 . S
C97 H119 0.929 . S
C98 O108 1.241 . S
C98 O109 1.273 . S
C99 O110 1.251 . S
C99 O111 1.268 . S
O100 Nd80 2.500 . S
O100 C82 1.258 . S
O101 Nd80 2.492 . S
O101 C82 1.239 . S
O102 Nd80 2.487 . S
O102 C89 1.241 . S
O103 Nd80 2.682 . S
O103 Nd81 2.414 . S
O103 C89 1.273 . S
O104 Nd80 2.410 . S
O104 C90 1.251 . S
O105 Nd81 2.424 . S
O105 C90 1.268 . S
O106 Nd81 2.500 . S
O106 C91 1.258 . S
O107 Nd81 2.492 . S
O107 C91 1.239 . S
O108 Nd81 2.487 . S
O108 C98 1.241 . S
O109 Nd80 2.414 . S
O109 Nd81 2.682 . S
O109 C98 1.273 . S
O110 Nd81 2.410 . S
O110 C99 1.251 . S
O111 Nd80 2.424 . S
O111 C99 1.268 . S
H112 C84 0.930 . S
H113 C85 0.929 . S
H114 C87 0.930 . S
H115 C88 0.929 . S
H116 C93 0.930 . S
H117 C94 0.929 . S
H118 C96 0.930 . S
H119 C97 0.929 . S
H120 C123 0.929 . S
H121 C126 0.929 . S
H122 C128 0.930 . S
C123 H120 0.929 . S
C123 C124 1.398 . S
C123 C125 1.396 . S
C124 C123 1.398 . S
C124 C128 1.407 . S
C125 C123 1.396 . S
C125 C126 1.394 . S
C126 H121 0.929 . S
C126 C125 1.394 . S
C126 C127 1.382 . S
C127 C126 1.382 . S
C127 C128 1.392 . S
C127 N129 1.420 . S
C128 H122 0.930 . S
C128 C124 1.407 . S
C128 C127 1.392 . S
N129 C127 1.420 . S
N129 C130 1.244 . S
C130 N129 1.244 . S
H131 C134 0.929 . S
H132 C137 0.929 . S
H133 C139 0.930 . S
C134 H131 0.929 . S
C134 C135 1.398 . S
C134 C136 1.396 . S
C135 C134 1.398 . S
C135 C139 1.407 . S
C136 C134 1.396 . S
C136 C137 1.394 . S
C137 H132 0.929 . S
C137 C136 1.394 . S
C137 C138 1.382 . S
C138 C137 1.382 . S
C138 C139 1.392 . S
C138 N140 1.420 . S
C139 H133 0.930 . S
C139 C135 1.407 . S
C139 C138 1.392 . S
N140 C138 1.420 . S
N140 C141 1.244 . S
C141 N140 1.244 . S
H142 C145 0.929 . S
H143 C148 0.929 . S
H144 C150 0.930 . S
C145 H142 0.929 . S
C145 C146 1.398 . S
C145 C147 1.396 . S
C146 C145 1.398 . S
C146 C150 1.407 . S
C147 C145 1.396 . S
C147 C148 1.394 . S
C148 H143 0.929 . S
C148 C147 1.394 . S
C148 C149 1.382 . S
C149 C148 1.382 . S
C149 C150 1.392 . S
C149 N151 1.420 . S
C150 H144 0.930 . S
C150 C146 1.407 . S
C150 C149 1.392 . S
N151 C149 1.420 . S
N151 C152 1.244 . S
C152 N151 1.244 . S
H153 C156 0.929 . S
H154 C159 0.929 . S
H155 C161 0.930 . S
C156 H153 0.929 . S
C156 C157 1.398 . S
C156 C158 1.396 . S
C157 C156 1.398 . S
C157 C161 1.407 . S
C158 C156 1.396 . S
C158 C159 1.394 1_455 S
C159 H154 0.929 . S
C159 C158 1.394 1_655 S
C159 C160 1.382 . S
C160 C159 1.382 . S
C160 C161 1.392 1_655 S
C160 N162 1.420 . S
C161 H155 0.930 . S
C161 C157 1.407 . S
C161 C160 1.392 1_455 S
N162 C160 1.420 . S
N162 C163 1.244 . S
C163 N162 1.244 . S
H164 C167 0.929 . S
H165 C170 0.929 1_565 S
H166 C172 0.930 . S
C167 H164 0.929 . S
C167 C168 1.398 . S
C167 C169 1.396 . S
C168 C167 1.398 . S
C168 C172 1.407 . S
C169 C167 1.396 . S
C169 C170 1.394 . S
C170 H165 0.929 1_545 S
C170 C169 1.394 . S
C170 C171 1.382 . S
C171 C170 1.382 . S
C171 C172 1.392 . S
C171 N173 1.420 1_545 S
C172 H166 0.930 . S
C172 C168 1.407 . S
C172 C171 1.392 . S
N173 C171 1.420 1_565 S
N173 C174 1.244 . S
C174 N173 1.244 . S
H175 C178 0.929 . S
H176 C181 0.929 . S
H177 C183 0.930 . S
C178 H175 0.929 . S
C178 C179 1.398 . S
C178 C180 1.396 . S
C179 C178 1.398 . S
C179 C183 1.407 . S
C180 C178 1.396 . S
C180 C181 1.394 . S
C181 H176 0.929 . S
C181 C180 1.394 . S
C181 C182 1.382 . S
C182 C181 1.382 . S
C182 C183 1.392 . S
C182 N184 1.420 . S
C183 H177 0.930 . S
C183 C179 1.407 . S
C183 C182 1.392 . S
N184 C182 1.420 . S
N184 C185 1.244 . S
C185 N184 1.244 . S
H186 C204 0.951 . S
H187 C206 0.951 . S
H188 C208 0.950 . S
H189 C209 0.950 . S
H190 C211 0.950 . S
H191 C214 0.950 . S
H192 C215 0.950 . S
H193 C217 0.950 . S
H194 C218 0.950 . S
H195 C219 0.951 . S
H196 C221 0.951 . S
H197 C223 0.950 . S
H198 C224 0.950 . S
H199 C226 0.950 . S
H200 C229 0.950 . S
H201 C230 0.950 . S
H202 C232 0.950 . S
H203 C233 0.950 . S
C204 H186 0.951 . S
C204 C205 1.366 . S
C204 C206 1.388 . S
C205 C204 1.366 . S
C205 C209 1.385 . S
C206 H187 0.951 . S
C206 C204 1.388 . S
C206 C207 1.366 . S
C207 C206 1.366 . S
C207 C208 1.414 . S
C207 C210 1.499 . S
C208 H188 0.950 . S
C208 C207 1.414 . S
C208 C209 1.374 . S
C209 H189 0.950 . S
C209 C205 1.385 . S
C209 C208 1.374 . S
C210 C207 1.499 . S
C210 C211 1.373 . S
C210 C212 1.389 . S
C211 H190 0.950 . S
C211 C210 1.373 . S
C211 C227 1.377 . S
C212 C210 1.389 . S
C212 C213 1.524 . S
C212 C226 1.377 . S
C213 C212 1.524 . S
C213 C214 1.397 . S
C213 C218 1.363 . S
C214 H191 0.950 . S
C214 C213 1.397 . S
C214 C215 1.334 . S
C215 H192 0.950 . S
C215 C214 1.334 . S
C215 C216 1.287 . S
C216 C215 1.287 . S
C216 C217 1.524 . S
C216 H235 0.913 . S
C217 H193 0.950 . S
C217 C216 1.524 . S
C217 C218 1.415 . S
C218 H194 0.950 . S
C218 C213 1.363 . S
C218 C217 1.415 . S
C219 H195 0.951 . S
C219 C220 1.366 . S
C219 C221 1.388 . S
C220 C219 1.366 . S
C220 C224 1.385 . S
C221 H196 0.951 . S
C221 C219 1.388 . S
C221 C222 1.366 . S
C222 C221 1.366 . S
C222 C223 1.414 . S
C222 C225 1.499 . S
C223 H197 0.950 . S
C223 C222 1.414 . S
C223 C224 1.374 . S
C224 H198 0.950 . S
C224 C220 1.385 . S
C224 C223 1.374 . S
C225 C222 1.499 . S
C225 C226 1.373 . S
C225 C227 1.389 . S
C226 H199 0.950 . S
C226 C212 1.377 . S
C226 C225 1.373 . S
C227 C211 1.377 . S
C227 C225 1.389 . S
C227 C228 1.524 . S
C228 C227 1.524 . S
C228 C229 1.397 . S
C228 C233 1.363 . S
C229 H200 0.950 . S
C229 C228 1.397 . S
C229 C230 1.334 . S
C230 H201 0.950 . S
C230 C229 1.334 . S
C230 C231 1.287 . S
C231 C230 1.287 . S
C231 C232 1.524 . S
C231 H234 0.999 . S
C232 H202 0.950 . S
C232 C231 1.524 . S
C232 C233 1.415 . S
C233 H203 0.950 . S
C233 C228 1.363 . S
C233 C232 1.415 . S
H234 C231 0.999 . S
H235 C216 0.913 . S
H236 C254 0.951 . S
H237 C256 0.951 . S
H238 C258 0.950 . S
H239 C259 0.950 . S
H240 C261 0.950 . S
H241 C264 0.950 . S
H242 C265 0.950 . S
H243 C267 0.950 . S
H244 C268 0.950 . S
H245 C269 0.951 . S
H246 C271 0.951 . S
H247 C273 0.950 . S
H248 C274 0.950 . S
H249 C276 0.950 . S
H250 C279 0.950 . S
H251 C280 0.950 . S
H252 C282 0.950 . S
H253 C283 0.950 . S
C254 H236 0.951 . S
C254 C255 1.366 . S
C254 C256 1.388 . S
C255 C254 1.366 . S
C255 C259 1.385 . S
C256 H237 0.951 . S
C256 C254 1.388 . S
C256 C257 1.366 . S
C257 C256 1.366 . S
C257 C258 1.414 . S
C257 C260 1.499 . S
C258 H238 0.950 . S
C258 C257 1.414 . S
C258 C259 1.374 . S
C259 H239 0.950 . S
C259 C255 1.385 . S
C259 C258 1.374 . S
C260 C257 1.499 . S
C260 C261 1.373 . S
C260 C262 1.389 . S
C261 H240 0.950 . S
C261 C260 1.373 . S
C261 C277 1.377 . S
C262 C260 1.389 . S
C262 C263 1.524 . S
C262 C276 1.377 . S
C263 C262 1.524 . S
C263 C264 1.397 . S
C263 C268 1.363 . S
C264 H241 0.950 . S
C264 C263 1.397 . S
C264 C265 1.334 . S
C265 H242 0.950 . S
C265 C264 1.334 . S
C265 C266 1.287 . S
C266 C265 1.287 . S
C266 C267 1.524 . S
C266 H285 0.913 . S
C267 H243 0.950 . S
C267 C266 1.524 . S
C267 C268 1.415 . S
C268 H244 0.950 . S
C268 C263 1.363 . S
C268 C267 1.415 . S
C269 H245 0.951 . S
C269 C270 1.366 . S
C269 C271 1.388 . S
C270 C269 1.366 . S
C270 C274 1.385 . S
C271 H246 0.951 . S
C271 C269 1.388 . S
C271 C272 1.366 . S
C272 C271 1.366 . S
C272 C273 1.414 . S
C272 C275 1.499 . S
C273 H247 0.950 . S
C273 C272 1.414 . S
C273 C274 1.374 . S
C274 H248 0.950 . S
C274 C270 1.385 . S
C274 C273 1.374 . S
C275 C272 1.499 . S
C275 C276 1.373 . S
C275 C277 1.389 . S
C276 H249 0.950 . S
C276 C262 1.377 . S
C276 C275 1.373 . S
C277 C261 1.377 . S
C277 C275 1.389 . S
C277 C278 1.524 . S
C278 C277 1.524 . S
C278 C279 1.397 . S
C278 C283 1.363 . S
C279 H250 0.950 . S
C279 C278 1.397 . S
C279 C280 1.334 . S
C280 H251 0.950 . S
C280 C279 1.334 . S
C280 C281 1.287 . S
C281 C280 1.287 . S
C281 C282 1.524 . S
C281 H284 0.999 . S
C282 H252 0.950 . S
C282 C281 1.524 . S
C282 C283 1.415 . S
C283 H253 0.950 . S
C283 C278 1.363 . S
C283 C282 1.415 . S
H284 C281 0.999 . S
H285 C266 0.913 . S
H286 C304 0.951 . S
H287 C306 0.951 . S
H288 C308 0.950 . S
H289 C309 0.950 . S
H290 C311 0.950 . S
H291 C314 0.950 . S
H292 C315 0.950 . S
H293 C317 0.950 . S
H294 C318 0.950 . S
H295 C319 0.951 . S
H296 C321 0.951 . S
H297 C323 0.950 . S
H298 C324 0.950 . S
H299 C326 0.950 . S
H300 C329 0.950 . S
H301 C330 0.950 . S
H302 C332 0.950 . S
H303 C333 0.950 . S
C304 H286 0.951 . S
C304 C305 1.366 . S
C304 C306 1.388 . S
C305 C304 1.366 . S
C305 C309 1.385 . S
C306 H287 0.951 . S
C306 C304 1.388 . S
C306 C307 1.366 . S
C307 C306 1.366 . S
C307 C308 1.414 . S
C307 C310 1.499 . S
C308 H288 0.950 . S
C308 C307 1.414 . S
C308 C309 1.374 . S
C309 H289 0.950 . S
C309 C305 1.385 . S
C309 C308 1.374 . S
C310 C307 1.499 . S
C310 C311 1.373 . S
C310 C312 1.389 . S
C311 H290 0.950 . S
C311 C310 1.373 . S
C311 C327 1.377 . S
C312 C310 1.389 . S
C312 C313 1.524 . S
C312 C326 1.377 . S
C313 C312 1.524 . S
C313 C314 1.397 . S
C313 C318 1.363 . S
C314 H291 0.950 . S
C314 C313 1.397 . S
C314 C315 1.334 . S
C315 H292 0.950 . S
C315 C314 1.334 . S
C315 C316 1.287 . S
C316 C315 1.287 . S
C316 C317 1.524 . S
C316 H335 0.913 . S
C317 H293 0.950 . S
C317 C316 1.524 . S
C317 C318 1.415 . S
C318 H294 0.950 . S
C318 C313 1.363 . S
C318 C317 1.415 . S
C319 H295 0.951 . S
C319 C320 1.366 . S
C319 C321 1.388 . S
C320 C319 1.366 . S
C320 C324 1.385 . S
C321 H296 0.951 . S
C321 C319 1.388 . S
C321 C322 1.366 . S
C322 C321 1.366 . S
C322 C323 1.414 . S
C322 C325 1.499 . S
C323 H297 0.950 . S
C323 C322 1.414 . S
C323 C324 1.374 . S
C324 H298 0.950 . S
C324 C320 1.385 . S
C324 C323 1.374 . S
C325 C322 1.499 . S
C325 C326 1.373 . S
C325 C327 1.389 . S
C326 H299 0.950 . S
C326 C312 1.377 . S
C326 C325 1.373 . S
C327 C311 1.377 . S
C327 C325 1.389 . S
C327 C328 1.524 . S
C328 C327 1.524 . S
C328 C329 1.397 . S
C328 C333 1.363 . S
C329 H300 0.950 . S
C329 C328 1.397 . S
C329 C330 1.334 . S
C330 H301 0.950 . S
C330 C329 1.334 . S
C330 C331 1.287 . S
C331 C330 1.287 . S
C331 C332 1.524 . S
C331 H334 0.999 . S
C332 H302 0.950 . S
C332 C331 1.524 . S
C332 C333 1.415 . S
C333 H303 0.950 . S
C333 C328 1.363 . S
C333 C332 1.415 . S
H334 C331 0.999 . S
H335 C316 0.913 . S
H336 C354 0.951 . S
H337 C356 0.951 . S
H338 C358 0.950 . S
H339 C359 0.950 . S
H340 C361 0.950 . S
H341 C364 0.950 . S
H342 C365 0.950 . S
H343 C367 0.950 . S
H344 C368 0.950 . S
H345 C369 0.951 . S
H346 C371 0.951 . S
H347 C373 0.950 . S
H348 C374 0.950 . S
H349 C376 0.950 . S
H350 C379 0.950 . S
H351 C380 0.950 . S
H352 C382 0.950 . S
H353 C383 0.950 . S
C354 H336 0.951 . S
C354 C355 1.366 . S
C354 C356 1.388 . S
C355 C354 1.366 . S
C355 C359 1.385 . S
C356 H337 0.951 . S
C356 C354 1.388 . S
C356 C357 1.366 . S
C357 C356 1.366 . S
C357 C358 1.414 . S
C357 C360 1.499 . S
C358 H338 0.950 . S
C358 C357 1.414 . S
C358 C359 1.374 . S
C359 H339 0.950 . S
C359 C355 1.385 . S
C359 C358 1.374 . S
C360 C357 1.499 . S
C360 C361 1.373 . S
C360 C362 1.389 . S
C361 H340 0.950 . S
C361 C360 1.373 . S
C361 C377 1.377 . S
C362 C360 1.389 . S
C362 C363 1.524 . S
C362 C376 1.377 . S
C363 C362 1.524 . S
C363 C364 1.397 . S
C363 C368 1.363 . S
C364 H341 0.950 . S
C364 C363 1.397 . S
C364 C365 1.334 . S
C365 H342 0.950 . S
C365 C364 1.334 . S
C365 C366 1.287 . S
C366 C365 1.287 . S
C366 C367 1.524 . S
C366 H385 0.913 . S
C367 H343 0.950 . S
C367 C366 1.524 . S
C367 C368 1.415 . S
C368 H344 0.950 . S
C368 C363 1.363 . S
C368 C367 1.415 . S
C369 H345 0.951 . S
C369 C370 1.366 . S
C369 C371 1.388 . S
C370 C369 1.366 . S
C370 C374 1.385 . S
C371 H346 0.951 . S
C371 C369 1.388 . S
C371 C372 1.366 . S
C372 C371 1.366 . S
C372 C373 1.414 . S
C372 C375 1.499 . S
C373 H347 0.950 . S
C373 C372 1.414 . S
C373 C374 1.374 . S
C374 H348 0.950 . S
C374 C370 1.385 . S
C374 C373 1.374 . S
C375 C372 1.499 . S
C375 C376 1.373 . S
C375 C377 1.389 . S
C376 H349 0.950 . S
C376 C362 1.377 . S
C376 C375 1.373 . S
C377 C361 1.377 . S
C377 C375 1.389 . S
C377 C378 1.524 . S
C378 C377 1.524 . S
C378 C379 1.397 . S
C378 C383 1.363 . S
C379 H350 0.950 . S
C379 C378 1.397 . S
C379 C380 1.334 . S
C380 H351 0.950 . S
C380 C379 1.334 . S
C380 C381 1.287 . S
C381 C380 1.287 . S
C381 C382 1.524 . S
C381 H384 0.999 . S
C382 H352 0.950 . S
C382 C381 1.524 . S
C382 C383 1.415 . S
C383 H353 0.950 . S
C383 C378 1.363 . S
C383 C382 1.415 . S
H384 C381 0.999 . S
H385 C366 0.913 . S
H386 C404 0.951 . S
H387 C406 0.951 . S
H388 C408 0.950 . S
H389 C409 0.950 . S
H390 C411 0.950 . S
H391 C414 0.950 . S
H392 C415 0.950 . S
H393 C417 0.950 . S
H394 C418 0.950 . S
H395 C419 0.951 . S
H396 C421 0.951 . S
H397 C423 0.950 . S
H398 C424 0.950 . S
H399 C426 0.950 . S
H400 C429 0.950 . S
H401 C430 0.950 . S
H402 C432 0.950 . S
H403 C433 0.950 . S
C404 H386 0.951 . S
C404 C405 1.366 . S
C404 C406 1.388 . S
C405 C404 1.366 . S
C405 C409 1.385 . S
C406 H387 0.951 . S
C406 C404 1.388 . S
C406 C407 1.366 . S
C407 C406 1.366 . S
C407 C408 1.414 . S
C407 C410 1.499 . S
C408 H388 0.950 . S
C408 C407 1.414 . S
C408 C409 1.374 . S
C409 H389 0.950 . S
C409 C405 1.385 . S
C409 C408 1.374 . S
C410 C407 1.499 . S
C410 C411 1.373 . S
C410 C412 1.389 . S
C411 H390 0.950 . S
C411 C410 1.373 . S
C411 C427 1.377 . S
C412 C410 1.389 . S
C412 C413 1.524 . S
C412 C426 1.377 . S
C413 C412 1.524 . S
C413 C414 1.397 . S
C413 C418 1.363 . S
C414 H391 0.950 . S
C414 C413 1.397 . S
C414 C415 1.334 . S
C415 H392 0.950 . S
C415 C414 1.334 . S
C415 C416 1.287 . S
C416 C415 1.287 . S
C416 C417 1.524 . S
C416 H435 0.913 . S
C417 H393 0.950 . S
C417 C416 1.524 . S
C417 C418 1.415 . S
C418 H394 0.950 . S
C418 C413 1.363 . S
C418 C417 1.415 . S
C419 H395 0.951 . S
C419 C420 1.366 . S
C419 C421 1.388 . S
C420 C419 1.366 . S
C420 C424 1.385 . S
C421 H396 0.951 . S
C421 C419 1.388 . S
C421 C422 1.366 . S
C422 C421 1.366 . S
C422 C423 1.414 . S
C422 C425 1.499 . S
C423 H397 0.950 . S
C423 C422 1.414 . S
C423 C424 1.374 . S
C424 H398 0.950 . S
C424 C420 1.385 . S
C424 C423 1.374 . S
C425 C422 1.499 . S
C425 C426 1.373 . S
C425 C427 1.389 . S
C426 H399 0.950 . S
C426 C412 1.377 . S
C426 C425 1.373 . S
C427 C411 1.377 . S
C427 C425 1.389 . S
C427 C428 1.524 . S
C428 C427 1.524 . S
C428 C429 1.397 . S
C428 C433 1.363 . S
C429 H400 0.950 . S
C429 C428 1.397 . S
C429 C430 1.334 . S
C430 H401 0.950 . S
C430 C429 1.334 . S
C430 C431 1.287 . S
C431 C430 1.287 . S
C431 C432 1.524 . S
C431 H434 0.999 . S
C432 H402 0.950 . S
C432 C431 1.524 . S
C432 C433 1.415 . S
C433 H403 0.950 . S
C433 C428 1.363 . S
C433 C432 1.415 . S
H434 C431 0.999 . S
H435 C416 0.913 . S
H436 C454 0.951 . S
H437 C456 0.951 . S
H438 C458 0.950 . S
H439 C459 0.950 . S
H440 C461 0.950 . S
H441 C464 0.950 . S
H442 C465 0.950 . S
H443 C467 0.950 . S
H444 C468 0.950 . S
H445 C469 0.951 . S
H446 C471 0.951 . S
H447 C473 0.950 . S
H448 C474 0.950 . S
H449 C476 0.950 . S
H450 C479 0.950 . S
H451 C480 0.950 . S
H452 C482 0.950 . S
H453 C483 0.950 . S
C454 H436 0.951 . S
C454 C455 1.366 . S
C454 C456 1.388 . S
C455 C454 1.366 . S
C455 C459 1.385 . S
C456 H437 0.951 . S
C456 C454 1.388 . S
C456 C457 1.366 . S
C457 C456 1.366 . S
C457 C458 1.414 . S
C457 C460 1.499 . S
C458 H438 0.950 . S
C458 C457 1.414 . S
C458 C459 1.374 . S
C459 H439 0.950 . S
C459 C455 1.385 . S
C459 C458 1.374 . S
C460 C457 1.499 . S
C460 C461 1.373 . S
C460 C462 1.389 . S
C461 H440 0.950 . S
C461 C460 1.373 . S
C461 C477 1.377 . S
C462 C460 1.389 . S
C462 C463 1.524 . S
C462 C476 1.377 . S
C463 C462 1.524 . S
C463 C464 1.397 . S
C463 C468 1.363 . S
C464 H441 0.950 . S
C464 C463 1.397 . S
C464 C465 1.334 . S
C465 H442 0.950 . S
C465 C464 1.334 . S
C465 C466 1.287 . S
C466 C465 1.287 . S
C466 C467 1.524 . S
C466 H485 0.913 . S
C467 H443 0.950 . S
C467 C466 1.524 . S
C467 C468 1.415 . S
C468 H444 0.950 . S
C468 C463 1.363 . S
C468 C467 1.415 . S
C469 H445 0.951 . S
C469 C470 1.366 . S
C469 C471 1.388 . S
C470 C469 1.366 . S
C470 C474 1.385 . S
C471 H446 0.951 . S
C471 C469 1.388 . S
C471 C472 1.366 . S
C472 C471 1.366 . S
C472 C473 1.414 . S
C472 C475 1.499 . S
C473 H447 0.950 . S
C473 C472 1.414 . S
C473 C474 1.374 . S
C474 H448 0.950 . S
C474 C470 1.385 . S
C474 C473 1.374 . S
C475 C472 1.499 . S
C475 C476 1.373 . S
C475 C477 1.389 . S
C476 H449 0.950 . S
C476 C462 1.377 . S
C476 C475 1.373 . S
C477 C461 1.377 . S
C477 C475 1.389 . S
C477 C478 1.524 . S
C478 C477 1.524 . S
C478 C479 1.397 . S
C478 C483 1.363 . S
C479 H450 0.950 . S
C479 C478 1.397 . S
C479 C480 1.334 . S
C480 H451 0.950 . S
C480 C479 1.334 . S
C480 C481 1.287 . S
C481 C480 1.287 . S
C481 C482 1.524 . S
C481 H484 0.999 . S
C482 H452 0.950 . S
C482 C481 1.524 . S
C482 C483 1.415 . S
C483 H453 0.950 . S
C483 C478 1.363 . S
C483 C482 1.415 . S
H484 C481 0.999 . S
H485 C466 0.913 . S
H486 C504 0.951 . S
H487 C506 0.951 . S
H488 C508 0.950 . S
H489 C509 0.950 . S
H490 C511 0.950 . S
H491 C514 0.950 . S
H492 C515 0.950 . S
H493 C517 0.950 . S
H494 C518 0.950 . S
H495 C519 0.951 . S
H496 C521 0.951 . S
H497 C523 0.950 . S
H498 C524 0.950 . S
H499 C526 0.950 . S
H500 C529 0.950 . S
H501 C530 0.950 . S
H502 C532 0.950 . S
H503 C533 0.950 . S
C504 H486 0.951 . S
C504 C505 1.366 . S
C504 C506 1.388 . S
C505 C504 1.366 . S
C505 C509 1.385 . S
C506 H487 0.951 . S
C506 C504 1.388 . S
C506 C507 1.366 . S
C507 C506 1.366 . S
C507 C508 1.414 . S
C507 C510 1.499 . S
C508 H488 0.950 . S
C508 C507 1.414 . S
C508 C509 1.374 . S
C509 H489 0.950 . S
C509 C505 1.385 . S
C509 C508 1.374 . S
C510 C507 1.499 . S
C510 C511 1.373 . S
C510 C512 1.389 . S
C511 H490 0.950 . S
C511 C510 1.373 . S
C511 C527 1.377 . S
C512 C510 1.389 . S
C512 C513 1.524 . S
C512 C526 1.377 . S
C513 C512 1.524 . S
C513 C514 1.397 . S
C513 C518 1.363 . S
C514 H491 0.950 . S
C514 C513 1.397 . S
C514 C515 1.334 . S
C515 H492 0.950 . S
C515 C514 1.334 . S
C515 C516 1.287 . S
C516 C515 1.287 . S
C516 C517 1.524 . S
C516 H535 0.913 . S
C517 H493 0.950 . S
C517 C516 1.524 . S
C517 C518 1.415 . S
C518 H494 0.950 . S
C518 C513 1.363 . S
C518 C517 1.415 . S
C519 H495 0.951 . S
C519 C520 1.366 . S
C519 C521 1.388 . S
C520 C519 1.366 . S
C520 C524 1.385 . S
C521 H496 0.951 . S
C521 C519 1.388 . S
C521 C522 1.366 . S
C522 C521 1.366 . S
C522 C523 1.414 . S
C522 C525 1.499 . S
C523 H497 0.950 . S
C523 C522 1.414 . S
C523 C524 1.374 . S
C524 H498 0.950 . S
C524 C520 1.385 . S
C524 C523 1.374 . S
C525 C522 1.499 . S
C525 C526 1.373 . S
C525 C527 1.389 . S
C526 H499 0.950 . S
C526 C512 1.377 . S
C526 C525 1.373 . S
C527 C511 1.377 . S
C527 C525 1.389 . S
C527 C528 1.524 . S
C528 C527 1.524 . S
C528 C529 1.397 . S
C528 C533 1.363 . S
C529 H500 0.950 . S
C529 C528 1.397 . S
C529 C530 1.334 . S
C530 H501 0.950 . S
C530 C529 1.334 . S
C530 C531 1.287 . S
C531 C530 1.287 . S
C531 C532 1.524 . S
C531 H534 0.999 . S
C532 H502 0.950 . S
C532 C531 1.524 . S
C532 C533 1.415 . S
C533 H503 0.950 . S
C533 C528 1.363 . S
C533 C532 1.415 . S
H534 C531 0.999 . S
H535 C516 0.913 . S
H536 C554 0.951 . S
H537 C556 0.951 . S
H538 C558 0.950 . S
H539 C559 0.950 . S
H540 C561 0.950 . S
H541 C564 0.950 . S
H542 C565 0.950 . S
H543 C567 0.950 . S
H544 C568 0.950 . S
H545 C569 0.951 1_455 S
H546 C571 0.951 . S
H547 C573 0.950 . S
H548 C574 0.950 1_455 S
H549 C576 0.950 . S
H550 C579 0.950 . S
H551 C580 0.950 . S
H552 C582 0.950 . S
H553 C583 0.950 . S
C554 H536 0.951 . S
C554 C555 1.366 . S
C554 C556 1.388 . S
C555 C554 1.366 . S
C555 C559 1.385 . S
C556 H537 0.951 . S
C556 C554 1.388 . S
C556 C557 1.366 . S
C557 C556 1.366 . S
C557 C558 1.414 . S
C557 C560 1.499 . S
C558 H538 0.950 . S
C558 C557 1.414 . S
C558 C559 1.374 . S
C559 H539 0.950 . S
C559 C555 1.385 . S
C559 C558 1.374 . S
C560 C557 1.499 . S
C560 C561 1.373 . S
C560 C562 1.389 . S
C561 H540 0.950 . S
C561 C560 1.373 . S
C561 C577 1.377 . S
C562 C560 1.389 . S
C562 C563 1.524 . S
C562 C576 1.377 . S
C563 C562 1.524 . S
C563 C564 1.397 . S
C563 C568 1.363 . S
C564 H541 0.950 . S
C564 C563 1.397 . S
C564 C565 1.334 . S
C565 H542 0.950 . S
C565 C564 1.334 . S
C565 C566 1.287 . S
C566 C565 1.287 . S
C566 C567 1.524 . S
C566 H585 0.913 . S
C567 H543 0.950 . S
C567 C566 1.524 . S
C567 C568 1.415 . S
C568 H544 0.950 . S
C568 C563 1.363 . S
C568 C567 1.415 . S
C569 H545 0.951 1_655 S
C569 C570 1.366 1_655 S
C569 C571 1.388 . S
C570 C569 1.366 1_455 S
C570 C574 1.385 1_455 S
C571 H546 0.951 . S
C571 C569 1.388 . S
C571 C572 1.366 . S
C572 C571 1.366 . S
C572 C573 1.414 . S
C572 C575 1.499 . S
C573 H547 0.950 . S
C573 C572 1.414 . S
C573 C574 1.374 . S
C574 H548 0.950 1_655 S
C574 C570 1.385 1_655 S
C574 C573 1.374 . S
C575 C572 1.499 . S
C575 C576 1.373 . S
C575 C577 1.389 . S
C576 H549 0.950 . S
C576 C562 1.377 . S
C576 C575 1.373 . S
C577 C561 1.377 . S
C577 C575 1.389 . S
C577 C578 1.524 . S
C578 C577 1.524 . S
C578 C579 1.397 . S
C578 C583 1.363 . S
C579 H550 0.950 . S
C579 C578 1.397 . S
C579 C580 1.334 . S
C580 H551 0.950 . S
C580 C579 1.334 . S
C580 C581 1.287 . S
C581 C580 1.287 . S
C581 C582 1.524 . S
C581 H584 0.999 . S
C582 H552 0.950 . S
C582 C581 1.524 . S
C582 C583 1.415 . S
C583 H553 0.950 . S
C583 C578 1.363 . S
C583 C582 1.415 . S
H584 C581 0.999 . S
H585 C566 0.913 . S
H586 C604 0.951 . S
H587 C606 0.951 . S
H588 C608 0.950 . S
H589 C609 0.950 . S
H590 C611 0.950 . S
H591 C614 0.950 . S
H592 C615 0.950 . S
H593 C617 0.950 . S
H594 C618 0.950 . S
H595 C619 0.951 . S
H596 C621 0.951 . S
H597 C623 0.950 . S
H598 C624 0.950 . S
H599 C626 0.950 . S
H600 C629 0.950 . S
H601 C630 0.950 . S
H602 C632 0.950 . S
H603 C633 0.950 . S
C604 H586 0.951 . S
C604 C605 1.366 . S
C604 C606 1.388 . S
C605 C604 1.366 . S
C605 C609 1.385 . S
C606 H587 0.951 . S
C606 C604 1.388 . S
C606 C607 1.366 . S
C607 C606 1.366 . S
C607 C608 1.414 . S
C607 C610 1.499 . S
C608 H588 0.950 . S
C608 C607 1.414 . S
C608 C609 1.374 . S
C609 H589 0.950 . S
C609 C605 1.385 . S
C609 C608 1.374 . S
C610 C607 1.499 . S
C610 C611 1.373 . S
C610 C612 1.389 . S
C611 H590 0.950 . S
C611 C610 1.373 . S
C611 C627 1.377 . S
C612 C610 1.389 . S
C612 C613 1.524 . S
C612 C626 1.377 . S
C613 C612 1.524 . S
C613 C614 1.397 . S
C613 C618 1.363 . S
C614 H591 0.950 . S
C614 C613 1.397 . S
C614 C615 1.334 . S
C615 H592 0.950 . S
C615 C614 1.334 . S
C615 C616 1.287 . S
C616 C615 1.287 . S
C616 C617 1.524 . S
C616 H635 0.913 . S
C617 H593 0.950 . S
C617 C616 1.524 . S
C617 C618 1.415 . S
C618 H594 0.950 . S
C618 C613 1.363 . S
C618 C617 1.415 . S
C619 H595 0.951 . S
C619 C620 1.366 . S
C619 C621 1.388 . S
C620 C619 1.366 . S
C620 C624 1.385 1_565 S
C621 H596 0.951 . S
C621 C619 1.388 . S
C621 C622 1.366 . S
C622 C621 1.366 . S
C622 C623 1.414 . S
C622 C625 1.499 . S
C623 H597 0.950 . S
C623 C622 1.414 . S
C623 C624 1.374 1_565 S
C624 H598 0.950 . S
C624 C620 1.385 1_545 S
C624 C623 1.374 1_545 S
C625 C622 1.499 . S
C625 C626 1.373 . S
C625 C627 1.389 . S
C626 H599 0.950 . S
C626 C612 1.377 . S
C626 C625 1.373 . S
C627 C611 1.377 . S
C627 C625 1.389 . S
C627 C628 1.524 . S
C628 C627 1.524 . S
C628 C629 1.397 . S
C628 C633 1.363 . S
C629 H600 0.950 . S
C629 C628 1.397 . S
C629 C630 1.334 . S
C630 H601 0.950 . S
C630 C629 1.334 . S
C630 C631 1.287 . S
C631 C630 1.287 . S
C631 C632 1.524 . S
C631 H634 0.999 . S
C632 H602 0.950 . S
C632 C631 1.524 . S
C632 C633 1.415 . S
C633 H603 0.950 . S
C633 C628 1.363 . S
C633 C632 1.415 . S
H634 C631 0.999 . S
H635 C616 0.913 . S
H636 C654 0.951 . S
H637 C656 0.951 . S
H638 C658 0.950 . S
H639 C659 0.950 . S
H640 C661 0.950 . S
H641 C664 0.950 . S
H642 C665 0.950 . S
H643 C667 0.950 . S
H644 C668 0.950 . S
H645 C669 0.951 . S
H646 C671 0.951 . S
H647 C673 0.950 . S
H648 C674 0.950 . S
H649 C676 0.950 . S
H650 C679 0.950 . S
H651 C680 0.950 . S
H652 C682 0.950 . S
H653 C683 0.950 . S
C654 H636 0.951 . S
C654 C655 1.366 . S
C654 C656 1.388 . S
C655 C654 1.366 . S
C655 C659 1.385 . S
C656 H637 0.951 . S
C656 C654 1.388 . S
C656 C657 1.366 . S
C657 C656 1.366 . S
C657 C658 1.414 . S
C657 C660 1.499 . S
C658 H638 0.950 . S
C658 C657 1.414 . S
C658 C659 1.374 . S
C659 H639 0.950 . S
C659 C655 1.385 . S
C659 C658 1.374 . S
C660 C657 1.499 . S
C660 C661 1.373 . S
C660 C662 1.389 . S
C661 H640 0.950 . S
C661 C660 1.373 . S
C661 C677 1.377 . S
C662 C660 1.389 . S
C662 C663 1.524 . S
C662 C676 1.377 . S
C663 C662 1.524 . S
C663 C664 1.397 . S
C663 C668 1.363 . S
C664 H641 0.950 . S
C664 C663 1.397 . S
C664 C665 1.334 . S
C665 H642 0.950 . S
C665 C664 1.334 . S
C665 C666 1.287 . S
C666 C665 1.287 . S
C666 C667 1.524 . S
C666 H685 0.913 . S
C667 H643 0.950 . S
C667 C666 1.524 . S
C667 C668 1.415 . S
C668 H644 0.950 . S
C668 C663 1.363 . S
C668 C667 1.415 . S
C669 H645 0.951 . S
C669 C670 1.366 . S
C669 C671 1.388 . S
C670 C669 1.366 . S
C670 C674 1.385 . S
C671 H646 0.951 . S
C671 C669 1.388 . S
C671 C672 1.366 . S
C672 C671 1.366 . S
C672 C673 1.414 . S
C672 C675 1.499 . S
C673 H647 0.950 . S
C673 C672 1.414 . S
C673 C674 1.374 . S
C674 H648 0.950 . S
C674 C670 1.385 . S
C674 C673 1.374 . S
C675 C672 1.499 . S
C675 C676 1.373 . S
C675 C677 1.389 . S
C676 H649 0.950 . S
C676 C662 1.377 . S
C676 C675 1.373 . S
C677 C661 1.377 . S
C677 C675 1.389 . S
C677 C678 1.524 . S
C678 C677 1.524 . S
C678 C679 1.397 . S
C678 C683 1.363 . S
C679 H650 0.950 . S
C679 C678 1.397 . S
C679 C680 1.334 . S
C680 H651 0.950 . S
C680 C679 1.334 . S
C680 C681 1.287 . S
C681 C680 1.287 . S
C681 C682 1.524 . S
C681 H684 0.999 . S
C682 H652 0.950 . S
C682 C681 1.524 . S
C682 C683 1.415 . S
C683 H653 0.950 . S
C683 C678 1.363 . S
C683 C682 1.415 . S
H684 C681 0.999 . S
H685 C666 0.913 . S
H686 C704 0.951 . S
H687 C706 0.951 . S
H688 C708 0.950 . S
H689 C709 0.950 . S
H690 C711 0.950 . S
H691 C714 0.950 . S
H692 C715 0.950 . S
H693 C717 0.950 . S
H694 C718 0.950 . S
H695 C719 0.951 . S
H696 C721 0.951 . S
H697 C723 0.950 . S
H698 C724 0.950 . S
H699 C726 0.950 . S
H700 C729 0.950 . S
H701 C730 0.950 . S
H702 C732 0.950 . S
H703 C733 0.950 . S
C704 H686 0.951 . S
C704 C705 1.366 . S
C704 C706 1.388 . S
C705 C704 1.366 . S
C705 C709 1.385 . S
C706 H687 0.951 . S
C706 C704 1.388 . S
C706 C707 1.366 . S
C707 C706 1.366 . S
C707 C708 1.414 . S
C707 C710 1.499 . S
C708 H688 0.950 . S
C708 C707 1.414 . S
C708 C709 1.374 . S
C709 H689 0.950 . S
C709 C705 1.385 . S
C709 C708 1.374 . S
C710 C707 1.499 . S
C710 C711 1.373 . S
C710 C712 1.389 . S
C711 H690 0.950 . S
C711 C710 1.373 . S
C711 C727 1.377 . S
C712 C710 1.389 . S
C712 C713 1.524 . S
C712 C726 1.377 . S
C713 C712 1.524 . S
C713 C714 1.397 . S
C713 C718 1.363 . S
C714 H691 0.950 . S
C714 C713 1.397 . S
C714 C715 1.334 . S
C715 H692 0.950 . S
C715 C714 1.334 . S
C715 C716 1.287 . S
C716 C715 1.287 . S
C716 C717 1.524 . S
C716 H735 0.913 . S
C717 H693 0.950 . S
C717 C716 1.524 . S
C717 C718 1.415 . S
C718 H694 0.950 . S
C718 C713 1.363 . S
C718 C717 1.415 . S
C719 H695 0.951 . S
C719 C720 1.366 . S
C719 C721 1.388 . S
C720 C719 1.366 . S
C720 C724 1.385 . S
C721 H696 0.951 . S
C721 C719 1.388 . S
C721 C722 1.366 . S
C722 C721 1.366 . S
C722 C723 1.414 . S
C722 C725 1.499 . S
C723 H697 0.950 . S
C723 C722 1.414 . S
C723 C724 1.374 . S
C724 H698 0.950 . S
C724 C720 1.385 . S
C724 C723 1.374 . S
C725 C722 1.499 . S
C725 C726 1.373 . S
C725 C727 1.389 . S
C726 H699 0.950 . S
C726 C712 1.377 . S
C726 C725 1.373 . S
C727 C711 1.377 . S
C727 C725 1.389 . S
C727 C728 1.524 . S
C728 C727 1.524 . S
C728 C729 1.397 . S
C728 C733 1.363 . S
C729 H700 0.950 . S
C729 C728 1.397 . S
C729 C730 1.334 . S
C730 H701 0.950 . S
C730 C729 1.334 . S
C730 C731 1.287 . S
C731 C730 1.287 . S
C731 C732 1.524 . S
C731 H734 0.999 . S
C732 H702 0.950 . S
C732 C731 1.524 . S
C732 C733 1.415 . S
C733 H703 0.950 . S
C733 C728 1.363 . S
C733 C732 1.415 . S
H734 C731 0.999 . S
H735 C716 0.913 . S
H736 C754 0.951 . S
H737 C756 0.951 . S
H738 C758 0.950 . S
H739 C759 0.950 . S
H740 C761 0.950 . S
H741 C764 0.950 . S
H742 C765 0.950 . S
H743 C767 0.950 . S
H744 C768 0.950 . S
H745 C769 0.951 . S
H746 C771 0.951 . S
H747 C773 0.950 . S
H748 C774 0.950 . S
H749 C776 0.950 . S
H750 C779 0.950 . S
H751 C780 0.950 . S
H752 C782 0.950 . S
H753 C783 0.950 . S
C754 H736 0.951 . S
C754 C755 1.366 . S
C754 C756 1.388 . S
C755 C754 1.366 . S
C755 C759 1.385 . S
C756 H737 0.951 . S
C756 C754 1.388 . S
C756 C757 1.366 . S
C757 C756 1.366 . S
C757 C758 1.414 . S
C757 C760 1.499 . S
C758 H738 0.950 . S
C758 C757 1.414 . S
C758 C759 1.374 . S
C759 H739 0.950 . S
C759 C755 1.385 . S
C759 C758 1.374 . S
C760 C757 1.499 . S
C760 C761 1.373 . S
C760 C762 1.389 . S
C761 H740 0.950 . S
C761 C760 1.373 . S
C761 C777 1.377 . S
C762 C760 1.389 . S
C762 C763 1.524 . S
C762 C776 1.377 . S
C763 C762 1.524 . S
C763 C764 1.397 . S
C763 C768 1.363 . S
C764 H741 0.950 . S
C764 C763 1.397 . S
C764 C765 1.334 . S
C765 H742 0.950 . S
C765 C764 1.334 . S
C765 C766 1.287 . S
C766 C765 1.287 . S
C766 C767 1.524 . S
C766 H785 0.913 . S
C767 H743 0.950 . S
C767 C766 1.524 . S
C767 C768 1.415 . S
C768 H744 0.950 . S
C768 C763 1.363 . S
C768 C767 1.415 . S
C769 H745 0.951 . S
C769 C770 1.366 . S
C769 C771 1.388 . S
C770 C769 1.366 . S
C770 C774 1.385 . S
C771 H746 0.951 . S
C771 C769 1.388 . S
C771 C772 1.366 . S
C772 C771 1.366 . S
C772 C773 1.414 . S
C772 C775 1.499 . S
C773 H747 0.950 . S
C773 C772 1.414 . S
C773 C774 1.374 . S
C774 H748 0.950 . S
C774 C770 1.385 . S
C774 C773 1.374 . S
C775 C772 1.499 . S
C775 C776 1.373 . S
C775 C777 1.389 . S
C776 H749 0.950 . S
C776 C762 1.377 . S
C776 C775 1.373 . S
C777 C761 1.377 . S
C777 C775 1.389 . S
C777 C778 1.524 . S
C778 C777 1.524 . S
C778 C779 1.397 . S
C778 C783 1.363 . S
C779 H750 0.950 . S
C779 C778 1.397 . S
C779 C780 1.334 . S
C780 H751 0.950 . S
C780 C779 1.334 . S
C780 C781 1.287 . S
C781 C780 1.287 . S
C781 C782 1.524 . S
C781 H784 0.999 . S
C782 H752 0.950 . S
C782 C781 1.524 . S
C782 C783 1.415 . S
C783 H753 0.950 . S
C783 C778 1.363 . S
C783 C782 1.415 . S
H784 C781 0.999 . S
H785 C766 0.913 . S
H786 C804 0.951 . S
H787 C806 0.951 . S
H788 C808 0.950 . S
H789 C809 0.950 . S
H790 C811 0.950 . S
H791 C814 0.950 . S
H792 C815 0.950 . S
H793 C817 0.950 . S
H794 C818 0.950 . S
H795 C819 0.951 . S
H796 C821 0.951 . S
H797 C823 0.950 . S
H798 C824 0.950 . S
H799 C826 0.955 . S
H800 C829 0.950 . S
H801 C830 0.950 . S
H802 C832 0.950 . S
H803 C833 0.950 1_554 S
C804 H786 0.951 . S
C804 C805 1.366 . S
C804 C806 1.388 . S
C805 C804 1.366 . S
C805 C809 1.385 . S
C806 H787 0.951 . S
C806 C804 1.388 . S
C806 C807 1.366 . S
C807 C806 1.366 . S
C807 C808 1.414 . S
C807 C810 1.499 . S
C808 H788 0.950 . S
C808 C807 1.414 . S
C808 C809 1.374 . S
C809 H789 0.950 . S
C809 C805 1.385 . S
C809 C808 1.374 . S
C810 C807 1.499 . S
C810 C811 1.373 . S
C810 C812 1.389 . S
C811 H790 0.950 . S
C811 C810 1.373 . S
C811 C827 1.377 . S
C812 C810 1.389 . S
C812 C813 1.524 . S
C812 C826 1.377 . S
C813 C812 1.524 . S
C813 C814 1.397 . S
C813 C818 1.363 . S
C814 H791 0.950 . S
C814 C813 1.397 . S
C814 C815 1.334 . S
C815 H792 0.950 . S
C815 C814 1.334 . S
C815 C816 1.287 . S
C816 C815 1.287 . S
C816 C817 1.524 . S
C816 H835 0.913 . S
C817 H793 0.950 . S
C817 C816 1.524 . S
C817 C818 1.415 . S
C818 H794 0.950 . S
C818 C813 1.363 . S
C818 C817 1.415 . S
C819 H795 0.951 . S
C819 C820 1.366 . S
C819 C821 1.388 . S
C820 C819 1.366 . S
C820 C824 1.385 . S
C821 H796 0.951 . S
C821 C819 1.388 . S
C821 C822 1.366 . S
C822 C821 1.366 . S
C822 C823 1.414 . S
C822 C825 1.499 . S
C823 H797 0.950 . S
C823 C822 1.414 . S
C823 C824 1.374 . S
C824 H798 0.950 . S
C824 C820 1.385 . S
C824 C823 1.374 . S
C825 C822 1.499 . S
C825 C826 1.373 1_556 S
C825 C827 1.389 1_556 S
C826 H799 0.955 . S
C826 C812 1.377 . S
C826 C825 1.373 1_554 S
C827 C811 1.377 . S
C827 C825 1.389 1_554 S
C827 C828 1.524 1_454 S
C828 C827 1.524 1_656 S
C828 C829 1.397 . S
C828 C833 1.363 . S
C829 H800 0.950 . S
C829 C828 1.397 . S
C829 C830 1.334 . S
C830 H801 0.950 . S
C830 C829 1.334 . S
C830 C831 1.287 . S
C831 C830 1.287 . S
C831 C832 1.524 . S
C831 H834 0.999 . S
C832 H802 0.950 . S
C832 C831 1.524 . S
C832 C833 1.415 . S
C833 H803 0.950 1_556 S
C833 C828 1.363 . S
C833 C832 1.415 . S
H834 C831 0.999 . S
H835 C816 0.913 . S
H836 C854 0.951 . S
H837 C856 0.951 . S
H838 C858 0.950 . S
H839 C859 0.950 . S
H840 C861 0.950 . S
H841 C864 0.950 1_545 S
H842 C865 0.950 . S
H843 C867 0.950 . S
H844 C868 0.950 . S
H845 C869 0.951 . S
H846 C871 0.951 . S
H847 C873 0.950 . S
H848 C874 0.950 . S
H849 C876 0.940 1_565 S
H850 C879 0.950 . S
H851 C880 0.950 . S
H852 C882 0.950 . S
H853 C883 0.950 . S
C854 H836 0.951 . S
C854 C855 1.366 . S
C854 C856 1.388 . S
C855 C854 1.366 . S
C855 C859 1.385 . S
C856 H837 0.951 . S
C856 C854 1.388 . S
C856 C857 1.366 . S
C857 C856 1.366 . S
C857 C858 1.414 . S
C857 C860 1.499 . S
C858 H838 0.950 . S
C858 C857 1.414 . S
C858 C859 1.374 . S
C859 H839 0.950 . S
C859 C855 1.385 . S
C859 C858 1.374 . S
C860 C857 1.499 . S
C860 C861 1.373 . S
C860 C862 1.389 . S
C861 H840 0.950 . S
C861 C860 1.373 . S
C861 C877 1.377 . S
C862 C860 1.389 . S
C862 C863 1.524 1_545 S
C862 C876 1.377 . S
C863 C862 1.524 1_565 S
C863 C864 1.397 . S
C863 C868 1.363 . S
C864 H841 0.950 1_565 S
C864 C863 1.397 . S
C864 C865 1.334 . S
C865 H842 0.950 . S
C865 C864 1.334 . S
C865 C866 1.287 . S
C866 C865 1.287 . S
C866 C867 1.524 . S
C866 H885 0.913 . S
C867 H843 0.950 . S
C867 C866 1.524 . S
C867 C868 1.415 . S
C868 H844 0.950 . S
C868 C863 1.363 . S
C868 C867 1.415 . S
C869 H845 0.951 . S
C869 C870 1.366 . S
C869 C871 1.388 . S
C870 C869 1.366 . S
C870 C874 1.385 . S
C871 H846 0.951 . S
C871 C869 1.388 . S
C871 C872 1.366 . S
C872 C871 1.366 . S
C872 C873 1.414 . S
C872 C875 1.499 . S
C873 H847 0.950 . S
C873 C872 1.414 . S
C873 C874 1.374 . S
C874 H848 0.950 . S
C874 C870 1.385 . S
C874 C873 1.374 . S
C875 C872 1.499 . S
C875 C876 1.373 . S
C875 C877 1.389 . S
C876 H849 0.940 1_545 S
C876 C862 1.377 . S
C876 C875 1.373 . S
C877 C861 1.377 . S
C877 C875 1.389 . S
C877 C878 1.524 . S
C878 C877 1.524 . S
C878 C879 1.397 . S
C878 C883 1.363 . S
C879 H850 0.950 . S
C879 C878 1.397 . S
C879 C880 1.334 . S
C880 H851 0.950 . S
C880 C879 1.334 . S
C880 C881 1.287 . S
C881 C880 1.287 . S
C881 C882 1.524 . S
C881 H884 0.999 . S
C882 H852 0.950 . S
C882 C881 1.524 . S
C882 C883 1.415 . S
C883 H853 0.950 . S
C883 C878 1.363 . S
C883 C882 1.415 . S
H884 C881 0.999 . S
H885 C866 0.913 . S
H886 C904 0.951 . S
H887 C906 0.951 . S
H888 C908 0.950 . S
H889 C909 0.950 . S
H890 C911 0.950 . S
H891 C914 0.950 . S
H892 C915 0.950 . S
H893 C917 0.950 . S
H894 C918 0.950 . S
H895 C919 0.951 . S
H896 C921 0.951 . S
H897 C923 0.950 . S
H898 C924 0.950 . S
H899 C926 0.950 . S
H900 C929 0.950 . S
H901 C930 0.950 . S
H902 C932 0.950 . S
H903 C933 0.950 . S
C904 H886 0.951 . S
C904 C905 1.366 . S
C904 C906 1.388 . S
C905 C904 1.366 . S
C905 C909 1.385 . S
C906 H887 0.951 . S
C906 C904 1.388 . S
C906 C907 1.366 . S
C907 C906 1.366 . S
C907 C908 1.414 . S
C907 C910 1.499 . S
C908 H888 0.950 . S
C908 C907 1.414 . S
C908 C909 1.374 . S
C909 H889 0.950 . S
C909 C905 1.385 . S
C909 C908 1.374 . S
C910 C907 1.499 . S
C910 C911 1.373 . S
C910 C912 1.389 . S
C911 H890 0.950 . S
C911 C910 1.373 . S
C911 C927 1.377 . S
C912 C910 1.389 . S
C912 C913 1.524 . S
C912 C926 1.377 . S
C913 C912 1.524 . S
C913 C914 1.397 . S
C913 C918 1.363 . S
C914 H891 0.950 . S
C914 C913 1.397 . S
C914 C915 1.334 . S
C915 H892 0.950 . S
C915 C914 1.334 . S
C915 C916 1.287 . S
C916 C915 1.287 . S
C916 C917 1.524 . S
C916 H935 0.913 . S
C917 H893 0.950 . S
C917 C916 1.524 . S
C917 C918 1.415 . S
C918 H894 0.950 . S
C918 C913 1.363 . S
C918 C917 1.415 . S
C919 H895 0.951 . S
C919 C920 1.366 . S
C919 C921 1.388 . S
C920 C919 1.366 . S
C920 C924 1.385 . S
C921 H896 0.951 . S
C921 C919 1.388 . S
C921 C922 1.366 . S
C922 C921 1.366 . S
C922 C923 1.414 . S
C922 C925 1.499 . S
C923 H897 0.950 . S
C923 C922 1.414 . S
C923 C924 1.374 . S
C924 H898 0.950 . S
C924 C920 1.385 . S
C924 C923 1.374 . S
C925 C922 1.499 . S
C925 C926 1.373 . S
C925 C927 1.389 . S
C926 H899 0.950 . S
C926 C912 1.377 . S
C926 C925 1.373 . S
C927 C911 1.377 . S
C927 C925 1.389 . S
C927 C928 1.524 . S
C928 C927 1.524 . S
C928 C929 1.397 . S
C928 C933 1.363 . S
C929 H900 0.950 . S
C929 C928 1.397 . S
C929 C930 1.334 . S
C930 H901 0.950 . S
C930 C929 1.334 . S
C930 C931 1.287 . S
C931 C930 1.287 . S
C931 C932 1.524 . S
C931 H934 0.999 . S
C932 H902 0.950 . S
C932 C931 1.524 . S
C932 C933 1.415 . S
C933 H903 0.950 . S
C933 C928 1.363 . S
C933 C932 1.415 . S
H934 C931 0.999 . S
H935 C916 0.913 . S
H936 C954 0.951 . S
H937 C956 0.951 . S
H938 C958 0.950 . S
H939 C959 0.950 . S
H940 C961 0.950 . S
H941 C964 0.950 . S
H942 C965 0.950 . S
H943 C967 0.950 . S
H944 C968 0.941 1_545 S
H945 C969 0.951 . S
H946 C971 0.951 . S
H947 C973 0.950 . S
H948 C974 0.950 . S
H949 C976 0.927 1_565 S
H950 C979 0.950 . S
H951 C980 0.950 . S
H952 C982 0.950 . S
H953 C983 0.950 . S
C954 H936 0.951 . S
C954 C955 1.366 . S
C954 C956 1.388 . S
C955 C954 1.366 . S
C955 C959 1.385 . S
C956 H937 0.951 . S
C956 C954 1.388 . S
C956 C957 1.366 . S
C957 C956 1.366 . S
C957 C958 1.414 . S
C957 C960 1.499 . S
C958 H938 0.950 . S
C958 C957 1.414 . S
C958 C959 1.374 . S
C959 H939 0.950 . S
C959 C955 1.385 . S
C959 C958 1.374 . S
C960 C957 1.499 . S
C960 C961 1.373 . S
C960 C962 1.389 . S
C961 H940 0.950 . S
C961 C960 1.373 . S
C961 C977 1.377 . S
C962 C960 1.389 . S
C962 C963 1.524 1_545 S
C962 C976 1.377 . S
C963 C962 1.524 1_565 S
C963 C964 1.397 . S
C963 C968 1.363 . S
C964 H941 0.950 . S
C964 C963 1.397 . S
C964 C965 1.334 . S
C965 H942 0.950 . S
C965 C964 1.334 . S
C965 C966 1.287 . S
C966 C965 1.287 . S
C966 C967 1.524 . S
C966 H985 0.913 . S
C967 H943 0.950 . S
C967 C966 1.524 . S
C967 C968 1.415 . S
C968 H944 0.941 1_565 S
C968 C963 1.363 . S
C968 C967 1.415 . S
C969 H945 0.951 . S
C969 C970 1.366 . S
C969 C971 1.388 . S
C970 C969 1.366 . S
C970 C974 1.385 . S
C971 H946 0.951 . S
C971 C969 1.388 . S
C971 C972 1.366 . S
C972 C971 1.366 . S
C972 C973 1.414 . S
C972 C975 1.499 . S
C973 H947 0.950 . S
C973 C972 1.414 . S
C973 C974 1.374 . S
C974 H948 0.950 . S
C974 C970 1.385 . S
C974 C973 1.374 . S
C975 C972 1.499 . S
C975 C976 1.373 . S
C975 C977 1.389 . S
C976 H949 0.927 1_545 S
C976 C962 1.377 . S
C976 C975 1.373 . S
C977 C961 1.377 . S
C977 C975 1.389 . S
C977 C978 1.524 . S
C978 C977 1.524 . S
C978 C979 1.397 . S
C978 C983 1.363 . S
C979 H950 0.950 . S
C979 C978 1.397 . S
C979 C980 1.334 . S
C980 H951 0.950 . S
C980 C979 1.334 . S
C980 C981 1.287 . S
C981 C980 1.287 . S
C981 C982 1.524 . S
C981 H984 0.999 . S
C982 H952 0.950 . S
C982 C981 1.524 . S
C982 C983 1.415 . S
C983 H953 0.950 . S
C983 C978 1.363 . S
C983 C982 1.415 . S
H984 C981 0.999 . S
H985 C966 0.913 . S
H986 C1004 0.951 . S
H987 C1006 0.951 . S
H988 C1008 0.950 . S
H989 C1009 0.950 . S
H990 C1011 0.950 . S
H991 C1014 0.950 . S
H992 C1015 0.950 . S
H993 C1017 0.950 . S
H994 C1018 0.950 . S
H995 C1019 0.951 . S
H996 C1021 0.951 . S
H997 C1023 0.950 . S
H998 C1024 0.950 . S
H999 C1026 0.950 . S
H1000 C1029 0.950 . S
H1001 C1030 0.950 . S
H1002 C1032 0.950 . S
H1003 C1033 0.950 1_556 S
C1004 H986 0.951 . S
C1004 C1005 1.366 . S
C1004 C1006 1.388 . S
C1005 C1004 1.366 . S
C1005 C1009 1.385 . S
C1006 H987 0.951 . S
C1006 C1004 1.388 . S
C1006 C1007 1.366 . S
C1007 C1006 1.366 . S
C1007 C1008 1.414 . S
C1007 C1010 1.499 . S
C1008 H988 0.950 . S
C1008 C1007 1.414 . S
C1008 C1009 1.374 . S
C1009 H989 0.950 . S
C1009 C1005 1.385 . S
C1009 C1008 1.374 . S
C1010 C1007 1.499 . S
C1010 C1011 1.373 . S
C1010 C1012 1.389 . S
C1011 H990 0.950 . S
C1011 C1010 1.373 . S
C1011 C1027 1.377 . S
C1012 C1010 1.389 . S
C1012 C1013 1.524 . S
C1012 C1026 1.377 . S
C1013 C1012 1.524 . S
C1013 C1014 1.397 . S
C1013 C1018 1.363 . S
C1014 H991 0.950 . S
C1014 C1013 1.397 . S
C1014 C1015 1.334 . S
C1015 H992 0.950 . S
C1015 C1014 1.334 . S
C1015 C1016 1.287 . S
C1016 C1015 1.287 . S
C1016 C1017 1.524 . S
C1016 H1035 0.913 . S
C1017 H993 0.950 . S
C1017 C1016 1.524 . S
C1017 C1018 1.415 . S
C1018 H994 0.950 . S
C1018 C1013 1.363 . S
C1018 C1017 1.415 . S
C1019 H995 0.951 . S
C1019 C1020 1.366 . S
C1019 C1021 1.388 . S
C1020 C1019 1.366 . S
C1020 C1024 1.385 . S
C1021 H996 0.951 . S
C1021 C1019 1.388 . S
C1021 C1022 1.366 . S
C1022 C1021 1.366 . S
C1022 C1023 1.414 . S
C1022 C1025 1.499 . S
C1023 H997 0.950 . S
C1023 C1022 1.414 . S
C1023 C1024 1.374 . S
C1024 H998 0.950 . S
C1024 C1020 1.385 . S
C1024 C1023 1.374 . S
C1025 C1022 1.499 . S
C1025 C1026 1.373 1_554 S
C1025 C1027 1.389 1_554 S
C1026 H999 0.950 . S
C1026 C1012 1.377 . S
C1026 C1025 1.373 1_556 S
C1027 C1011 1.377 . S
C1027 C1025 1.389 1_556 S
C1027 C1028 1.524 1_556 S
C1028 C1027 1.524 1_554 S
C1028 C1029 1.397 . S
C1028 C1033 1.363 . S
C1029 H1000 0.950 . S
C1029 C1028 1.397 . S
C1029 C1030 1.334 . S
C1030 H1001 0.950 . S
C1030 C1029 1.334 . S
C1030 C1031 1.287 . S
C1031 C1030 1.287 . S
C1031 C1032 1.524 . S
C1031 H1034 0.999 . S
C1032 H1002 0.950 . S
C1032 C1031 1.524 . S
C1032 C1033 1.415 . S
C1033 H1003 0.950 1_554 S
C1033 C1028 1.363 . S
C1033 C1032 1.415 . S
H1034 C1031 0.999 . S
H1035 C1016 0.913 . S
H1036 C1054 0.951 . S
H1037 C1056 0.951 . S
H1038 C1058 0.950 . S
H1039 C1059 0.950 . S
H1040 C1061 0.950 1_655 S
H1041 C1064 0.950 . S
H1042 C1065 0.950 . S
H1043 C1067 0.950 . S
H1044 C1068 0.950 . S
H1045 C1069 0.951 . S
H1046 C1071 0.951 . S
H1047 C1073 0.950 . S
H1048 C1074 0.950 . S
H1049 C1076 0.950 . S
H1050 C1079 0.954 . S
H1051 C1080 0.950 . S
H1052 C1082 0.950 . S
H1053 C1083 0.950 . S
C1054 H1036 0.951 . S
C1054 C1055 1.366 . S
C1054 C1056 1.388 . S
C1055 C1054 1.366 . S
C1055 C1059 1.385 1_455 S
C1056 H1037 0.951 . S
C1056 C1054 1.388 . S
C1056 C1057 1.366 . S
C1057 C1056 1.366 . S
C1057 C1058 1.414 1_455 S
C1057 C1060 1.499 . S
C1058 H1038 0.950 . S
C1058 C1057 1.414 1_655 S
C1058 C1059 1.374 . S
C1059 H1039 0.950 . S
C1059 C1055 1.385 1_655 S
C1059 C1058 1.374 . S
C1060 C1057 1.499 . S
C1060 C1061 1.373 . S
C1060 C1062 1.389 . S
C1061 H1040 0.950 1_455 S
C1061 C1060 1.373 . S
C1061 C1077 1.379 . S
C1062 C1060 1.389 . S
C1062 C1063 1.524 . S
C1062 C1076 1.377 . S
C1063 C1062 1.524 . S
C1063 C1064 1.397 . S
C1063 C1068 1.363 . S
C1064 H1041 0.950 . S
C1064 C1063 1.397 . S
C1064 C1065 1.334 . S
C1065 H1042 0.950 . S
C1065 C1064 1.334 . S
C1065 C1066 1.287 . S
C1066 C1065 1.287 . S
C1066 C1067 1.524 . S
C1066 H1085 0.913 . S
C1067 H1043 0.950 . S
C1067 C1066 1.524 . S
C1067 C1068 1.415 . S
C1068 H1044 0.950 . S
C1068 C1063 1.363 . S
C1068 C1067 1.415 . S
C1069 H1045 0.951 . S
C1069 C1070 1.366 1_655 S
C1069 C1071 1.388 . S
C1070 C1069 1.366 1_455 S
C1070 C1074 1.385 . S
C1071 H1046 0.951 . S
C1071 C1069 1.388 . S
C1071 C1072 1.366 1_655 S
C1072 C1071 1.366 1_455 S
C1072 C1073 1.414 . S
C1072 C1075 1.499 . S
C1073 H1047 0.950 . S
C1073 C1072 1.414 . S
C1073 C1074 1.374 . S
C1074 H1048 0.950 . S
C1074 C1070 1.385 . S
C1074 C1073 1.374 . S
C1075 C1072 1.499 . S
C1075 C1076 1.373 . S
C1075 C1077 1.407 . S
C1076 H1049 0.950 . S
C1076 C1062 1.377 . S
C1076 C1075 1.373 . S
C1077 C1061 1.379 . S
C1077 C1075 1.407 . S
C1077 C1078 1.505 1_455 S
C1078 C1077 1.505 1_655 S
C1078 C1079 1.395 1_655 S
C1078 C1083 1.363 . S
C1079 H1050 0.954 . S
C1079 C1078 1.395 1_455 S
C1079 C1080 1.331 1_455 S
C1080 H1051 0.950 . S
C1080 C1079 1.331 1_655 S
C1080 C1081 1.287 . S
C1081 C1080 1.287 . S
C1081 C1082 1.524 . S
C1081 H1084 0.999 . S
C1082 H1052 0.950 . S
C1082 C1081 1.524 . S
C1082 C1083 1.415 . S
C1083 H1053 0.950 . S
C1083 C1078 1.363 . S
C1083 C1082 1.415 . S
H1084 C1081 0.999 . S
H1085 C1066 0.913 . S
C205 C10 3.180 . S
C220 C185 3.112 . S
C255 C55 1.246 . S
C270 C163 1.238 . S
C305 C90 1.922 . S
C320 C174 1.885 . S
C355 C19 2.851 . S
C370 C179 2.833 . S
C420 C157 1.120 . S
C405 C46 1.123 . S
C470 C168 1.862 . S
C455 C99 1.871 . S
C505 C50 1.933 . S
C520 C141 1.889 . S
C555 C95 0.377 . S
C570 C146 0.361 . S
C605 C6 1.117 . S
C620 C124 1.108 1_565 S
C670 C135 1.820 . S
C655 C59 1.843 . S
C720 C152 0.340 . S
C705 C86 0.394 . S
C755 C15 1.247 . S
C770 C130 1.239 . S
C820 C147 1.266 . S
C805 C18 1.229 . S
C855 C49 1.518 . S
C870 C125 1.533 . S
C905 C98 1.440 . S
C920 C136 1.466 . S
C970 C169 1.478 . S
C955 C58 1.423 . S
C1020 C180 1.747 . S
C1005 C89 1.662 . S
C1055 C9 1.509 . S
C1070 C158 1.530 . S
