# Generated by pormake.
# Topology csq, (4,8)-cn, num edge types: 1
# Building blocks:
#     Node 0, Type 0, BuildingBlock: KUFVIS_clean_linker_0, # of connection points: 4
#     Node 1, Type 0, BuildingBlock: KUFVIS_clean_linker_0, # of connection points: 4
#     Node 2, Type 0, BuildingBlock: KUFVIS_clean_linker_0, # of connection points: 4
#     Node 3, Type 0, BuildingBlock: KUFVIS_clean_linker_0, # of connection points: 4
#     Node 4, Type 0, BuildingBlock: KUFVIS_clean_linker_0, # of connection points: 4
#     Node 5, Type 0, BuildingBlock: KUFVIS_clean_linker_0, # of connection points: 4
#     Node 6, Type 1, BuildingBlock: TAGTUT_clean_sbu_3, # of connection points: 8
#     Node 7, Type 1, BuildingBlock: TAGTUT_clean_sbu_3, # of connection points: 8
#     Node 8, Type 1, BuildingBlock: TAGTUT_clean_sbu_3, # of connection points: 8
#     Edge 9, Type (0, 1), BuildingBlock: CIFDUS_clean_linker_0, # of connection points: 2
#     Edge 10, Type (0, 1), BuildingBlock: CIFDUS_clean_linker_0, # of connection points: 2
#     Edge 11, Type (0, 1), BuildingBlock: CIFDUS_clean_linker_0, # of connection points: 2
#     Edge 12, Type (0, 1), BuildingBlock: CIFDUS_clean_linker_0, # of connection points: 2
#     Edge 13, Type (0, 1), BuildingBlock: CIFDUS_clean_linker_0, # of connection points: 2
#     Edge 14, Type (0, 1), BuildingBlock: CIFDUS_clean_linker_0, # of connection points: 2
#     Edge 15, Type (0, 1), BuildingBlock: CIFDUS_clean_linker_0, # of connection points: 2
#     Edge 16, Type (0, 1), BuildingBlock: CIFDUS_clean_linker_0, # of connection points: 2
#     Edge 17, Type (0, 1), BuildingBlock: CIFDUS_clean_linker_0, # of connection points: 2
#     Edge 18, Type (0, 1), BuildingBlock: CIFDUS_clean_linker_0, # of connection points: 2
#     Edge 19, Type (0, 1), BuildingBlock: CIFDUS_clean_linker_0, # of connection points: 2
#     Edge 20, Type (0, 1), BuildingBlock: CIFDUS_clean_linker_0, # of connection points: 2
#     Edge 21, Type (0, 1), BuildingBlock: CIFDUS_clean_linker_0, # of connection points: 2
#     Edge 22, Type (0, 1), BuildingBlock: CIFDUS_clean_linker_0, # of connection points: 2
#     Edge 23, Type (0, 1), BuildingBlock: CIFDUS_clean_linker_0, # of connection points: 2
#     Edge 24, Type (0, 1), BuildingBlock: CIFDUS_clean_linker_0, # of connection points: 2
#     Edge 25, Type (0, 1), BuildingBlock: CIFDUS_clean_linker_0, # of connection points: 2
#     Edge 26, Type (0, 1), BuildingBlock: CIFDUS_clean_linker_0, # of connection points: 2
#     Edge 27, Type (0, 1), BuildingBlock: CIFDUS_clean_linker_0, # of connection points: 2
#     Edge 28, Type (0, 1), BuildingBlock: CIFDUS_clean_linker_0, # of connection points: 2
#     Edge 29, Type (0, 1), BuildingBlock: CIFDUS_clean_linker_0, # of connection points: 2
#     Edge 30, Type (0, 1), BuildingBlock: CIFDUS_clean_linker_0, # of connection points: 2
#     Edge 31, Type (0, 1), BuildingBlock: CIFDUS_clean_linker_0, # of connection points: 2
#     Edge 32, Type (0, 1), BuildingBlock: CIFDUS_clean_linker_0, # of connection points: 2
# Relax obj value: 0.037
# Max RMSD: 0.111
# Mean RMSD: 0.086
data_MOF--net-csq--node1-TAGTUT_clean_sbu_3--node2-KUFVIS_clean_linker_0--edge1-CIFDUS_clean_linker_0
_symmetry_space_group_name_H-M    P1
_symmetry_Int_Tables_number       1
_symmetry_cell_setting            triclinic
loop_
_symmetry_equiv_pos_as_xyz
'x, y, z'
_cell_length_a     47.676316
_cell_length_b     47.405069
_cell_length_c     16.340546
_cell_angle_alpha  92.417693
_cell_angle_beta   92.848359
_cell_angle_gamma 119.47938
loop_
_atom_site_label
_atom_site_type_symbol
_atom_site_fract_x
_atom_site_fract_y
_atom_site_fract_z
_atom_type_partial_charge
H0 H 0.36785 0.52147 0.20553 0.0
H1 H 0.27798 0.49425 0.30524 0.0
H2 H 0.28289 0.48768 0.04149 0.0
H3 H 0.22868 0.45738 0.04444 0.0
H4 H 0.15119 0.4639 0.14996 0.0
H5 H 0.24492 0.51298 0.2772 0.0
C6 C 0.34221 0.51299 0.19579 0.0
C7 C 0.32716 0.50234 0.11646 0.0
C8 C 0.32449 0.509 0.2638 0.0
C9 C 0.29159 0.49863 0.25162 0.0
C10 C 0.27634 0.49323 0.17156 0.0
C11 C 0.29426 0.49396 0.10344 0.0
C12 C 0.24171 0.48579 0.16233 0.0
C13 C 0.22042 0.46669 0.09368 0.0
C14 C 0.18774 0.4587 0.08959 0.0
C15 C 0.17639 0.47005 0.15322 0.0
C16 C 0.19678 0.48912 0.22104 0.0
C17 C 0.22938 0.49733 0.22498 0.0
H18 H 0.67906 0.18776 0.10692 0.0
H19 H 0.76587 0.26667 0.22523 0.0
H20 H 0.76154 0.23693 0.96859 0.0
H21 H 0.78947 0.29202 0.96215 0.0
H22 H 0.88234 0.36411 0.071 0.0
H23 H 0.81947 0.28757 0.2144 0.0
C24 C 0.70385 0.20653 0.10339 0.0
C25 C 0.71804 0.20916 0.02938 0.0
C26 C 0.72147 0.22584 0.17474 0.0
C27 C 0.75299 0.25123 0.17009 0.0
C28 C 0.76743 0.25665 0.09493 0.0
C29 C 0.75003 0.23463 0.02526 0.0
C30 C 0.80003 0.2857 0.08897 0.0
C31 C 0.80706 0.30118 0.01489 0.0
C32 C 0.83651 0.3294 0.00895 0.0
C33 C 0.85936 0.34233 0.07657 0.0
C34 C 0.85354 0.32753 0.15066 0.0
C35 C 0.82371 0.2992 0.15719 0.0
H36 H 0.58577 0.893 0.04399 0.0
H37 H 0.58724 0.81679 0.17159 0.0
H38 H 0.55333 0.80053 0.91372 0.0
H39 H 0.57492 0.76804 0.91239 0.0
H40 H 0.55623 0.68369 0.03647 0.0
H41 H 0.55607 0.76333 0.17007 0.0
C42 C 0.58249 0.86864 0.04233 0.0
C43 C 0.57043 0.84858 0.96929 0.0
C44 C 0.58749 0.85674 0.11516 0.0
C45 C 0.58229 0.82498 0.11466 0.0
C46 C 0.5707 0.80421 0.04181 0.0
C47 C 0.56398 0.81623 0.96964 0.0
C48 C 0.56572 0.77032 0.04104 0.0
C49 C 0.56873 0.75535 0.96797 0.0
C50 C 0.56513 0.72424 0.96656 0.0
C51 C 0.55853 0.70766 0.03807 0.0
C52 C 0.55555 0.72168 0.11176 0.0
C53 C 0.55904 0.753 0.1131 0.0
H54 H 0.86327 0.48905 0.01326 0.0
H55 H 0.79458 0.49581 0.15865 0.0
H56 H 0.7904 0.50479 0.89566 0.0
H57 H 0.73623 0.47943 0.91141 0.0
H58 H 0.67655 0.50283 0.05348 0.0
H59 H 0.76992 0.52538 0.15896 0.0
C60 C 0.84128 0.49051 0.01641 0.0
C61 C 0.82753 0.49558 0.94557 0.0
C62 C 0.83025 0.49208 0.09271 0.0
C63 C 0.80285 0.49534 0.09839 0.0
C64 C 0.78696 0.49866 0.02747 0.0
C65 C 0.80032 0.49979 0.95059 0.0
C66 C 0.75692 0.50111 0.03491 0.0
C67 C 0.73286 0.48919 0.96883 0.0
C68 C 0.70402 0.48973 0.97624 0.0
C69 C 0.69881 0.50202 0.04929 0.0
C70 C 0.72249 0.5153 0.11484 0.0
C71 C 0.75152 0.51461 0.10816 0.0
H72 H 0.34095 0.88541 0.05027 0.0
H73 H 0.29419 0.80972 0.21175 0.0
H74 H 0.24264 0.8136 -0.01015 0.0
H75 H 0.21537 0.76127 -0.00942 0.0
H76 H 0.16185 0.69134 0.15934 0.0
H77 H 0.2469 0.77853 0.25121 0.0
C78 C 0.31949 0.86423 0.06752 0.0
C79 C 0.29154 0.85107 0.0143 0.0
C80 C 0.32033 0.85051 0.14101 0.0
C81 C 0.29299 0.82107 0.15687 0.0
C82 C 0.26447 0.80656 0.1024 0.0
C83 C 0.26402 0.82269 0.03183 0.0
C84 C 0.23555 0.77474 0.11842 0.0
C85 C 0.21249 0.75455 0.05323 0.0
C86 C 0.18512 0.72522 0.06831 0.0
C87 C 0.18207 0.71471 0.14761 0.0
C88 C 0.20479 0.73352 0.2123 0.0
C89 C 0.23077 0.76388 0.19873 0.0
H90 H 0.46077 0.33052 0.1454 0.0
H91 H 0.46607 0.26105 0.29369 0.0
H92 H 0.48014 0.26024 0.0326 0.0
H93 H 0.4776 0.21542 0.04303 0.0
H94 H 0.48913 0.15013 0.19363 0.0
H95 H 0.4847 0.22968 0.3099 0.0
C96 C 0.46355 0.30928 0.15079 0.0
C97 C 0.46864 0.29523 0.08054 0.0
C98 C 0.46374 0.29749 0.22786 0.0
C99 C 0.4678 0.2703 0.23396 0.0
C100 C 0.47405 0.2558 0.16508 0.0
C101 C 0.4748 0.26925 0.08787 0.0
C102 C 0.47941 0.22696 0.1745 0.0
C103 C 0.4803 0.20903 0.10419 0.0
C104 C 0.48504 0.18231 0.11113 0.0
C105 C 0.48681 0.17167 0.18841 0.0
C106 C 0.48614 0.1884 0.25952 0.0
C107 C 0.4835 0.21657 0.25312 0.0
C108 C 0.07334 0.50298 0.50316 0.0
C109 C 0.06314 0.45521 0.7817 0.0
C110 C 0.96712 0.45147 0.76354 0.0
Mg111 Mg 0.03997 0.54187 0.42578 0.0
Mg112 Mg 0.01965 0.58636 0.54476 0.0
O113 O 1.01483 0.54516 0.51713 0.0
Mg114 Mg 0.02753 0.52404 0.60083 0.0
O115 O 0.04122 0.50099 0.67771 0.0
Mg116 Mg 0.01755 0.45613 0.61987 0.0
Mg117 Mg 0.03781 0.5047 0.79014 0.0
C118 C 0.97975 0.54749 0.68985 0.0
O119 O 0.06446 0.5723 0.67506 0.0
O120 O 1.0091 0.55761 0.34857 0.0
O121 O 0.06232 0.55743 0.8052 0.0
O122 O 0.08083 0.59534 0.45327 0.0
O123 O 0.99496 0.58669 0.43279 0.0
O124 O 0.06955 0.62281 0.54778 0.0
O125 O 0.99145 0.47478 0.53311 0.0
O126 O 0.99959 0.48827 0.40375 0.0
C127 C 0.98512 0.46722 0.45562 0.0
C128 C 0.99336 0.57263 0.36274 0.0
O129 O 0.98769 0.5253 0.67829 0.0
O130 O 0.04774 0.44324 0.711 0.0
O131 O 0.9922 0.57376 0.65241 0.0
O132 O 0.97487 0.43927 0.70322 0.0
O133 O 0.06254 0.47853 0.82268 0.0
O134 O 0.98744 0.47813 0.80333 0.0
O135 O 0.0653 0.52471 0.51769 0.0
O136 O 0.0596 0.47584 0.53631 0.0
C137 C 0.08892 0.62109 0.49949 0.0
C138 C 0.07203 0.57911 0.75279 0.0
C139 C 0.5058 0.06206 0.4931 0.0
C140 C 0.60797 0.07655 0.38633 0.0
C141 C 0.57126 0.97268 0.43495 0.0
Mg142 Mg 0.46051 0.01577 0.62507 0.0
Mg143 Mg 0.4873 0.98738 0.77289 0.0
O144 O 0.48459 0.99274 0.66137 0.0
Mg145 Mg 0.52324 0.0142 0.59701 0.0
O146 O 0.55833 0.03534 0.52303 0.0
Mg147 Mg 0.53315 0.01701 0.41373 0.0
Mg148 Mg 0.59841 0.03703 0.53734 0.0
C149 C 0.53393 0.96235 0.70981 0.0
O150 O 0.56101 0.04984 0.70345 0.0
O151 O 0.41634 0.97739 0.68792 0.0
O152 O 0.60867 0.05633 0.66375 0.0
O153 O 0.47905 0.04984 0.74165 0.0
O154 O 0.43638 0.95642 0.77994 0.0
O155 O 0.50423 0.03456 0.83353 0.0
O156 O 0.49025 0.98141 0.48422 0.0
O157 O 0.44494 0.98235 0.50906 0.0
C158 C 0.4606 0.9729 0.46496 0.0
C159 C 0.41267 0.95702 0.74135 0.0
O160 O 0.53808 0.97632 0.64176 0.0
O161 O 0.5783 0.05735 0.36035 0.0
O162 O 0.51768 0.96555 0.76618 0.0
O163 O 0.5508 0.97975 0.40219 0.0
O164 O 0.62098 0.07259 0.45187 0.0
O165 O 0.59226 0.99081 0.49283 0.0
O166 O 0.50609 0.05053 0.56248 0.0
O167 O 0.51532 0.05348 0.42992 0.0
C168 C 0.49559 0.05465 0.80984 0.0
C169 C 0.59193 0.06159 0.71506 0.0
C170 C 0.55836 0.58094 0.72379 0.0
C171 C 0.45923 0.48995 0.85858 0.0
C172 C 0.49271 0.42526 0.76642 0.0
Mg173 Mg 0.58763 0.57727 0.55085 0.0
Mg174 Mg 0.54251 0.52227 0.40244 0.0
O175 O 0.5581 0.53036 0.51284 0.0
Mg176 Mg 0.52834 0.51532 0.60356 0.0
O177 O 0.50085 0.50212 0.69743 0.0
Mg178 Mg 0.53251 0.50844 0.78973 0.0
Mg179 Mg 0.46192 0.46207 0.68657 0.0
C180 C 0.49722 0.45293 0.46924 0.0
O181 O 0.48615 0.51563 0.53378 0.0
O182 O 0.62116 0.57712 0.44929 0.0
O183 O 0.44274 0.47093 0.57289 0.0
O184 O 0.56323 0.59746 0.45974 0.0
O185 O 0.58868 0.53617 0.35492 0.0
O186 O 0.52777 0.55688 0.37158 0.0
O187 O 0.56767 0.51333 0.68604 0.0
O188 O 0.60956 0.55656 0.63978 0.0
C189 C 0.59821 0.53279 0.68585 0.0
C190 C 0.61671 0.55893 0.38355 0.0
O191 O 0.50623 0.46309 0.54525 0.0
O192 O 0.49024 0.50281 0.87335 0.0
O193 O 0.50616 0.47166 0.40986 0.0
O194 O 0.51473 0.45363 0.7945 0.0
O195 O 0.44411 0.47363 0.7912 0.0
O196 O 0.4694 0.42143 0.7163 0.0
O197 O 0.55112 0.56893 0.64928 0.0
O198 O 0.55178 0.5629 0.78403 0.0
C199 C 0.54138 0.58655 0.39964 0.0
C200 C 0.45555 0.49581 0.53006 0.0
H201 H 0.16257 0.52112 0.21513 0.0
H202 H 0.19783 0.47478 0.37977 0.0
H203 H 0.16367 0.47663 0.4845 0.0
H204 H 0.11906 0.48544 0.52218 0.0
H205 H 0.0851 0.53375 0.3605 0.0
H206 H 0.12349 0.53727 0.26147 0.0
C207 C 0.16328 0.51218 0.27479 0.0
C208 C 0.18252 0.49769 0.28986 0.0
C209 C 0.14342 0.51317 0.33439 0.0
C210 C 0.1834 0.48624 0.36721 0.0
C211 C 0.16361 0.48697 0.42664 0.0
C212 C 0.12032 0.497 0.46551 0.0
C213 C 0.09892 0.50875 0.44769 0.0
C214 C 0.14275 0.49937 0.40978 0.0
C215 C 0.1012 0.52434 0.37516 0.0
C216 C 0.12308 0.52628 0.31855 0.0
H217 H 0.6613 0.2078 0.21871 0.0
H218 H 0.75172 0.21575 0.30693 0.0
H219 H 0.72318 0.16924 0.38827 0.0
H220 H 0.67258 0.11881 0.4046 0.0
H221 H 0.58263 0.10563 0.29146 0.0
H222 H 0.61077 0.15997 0.24358 0.0
C223 C 0.67471 0.19992 0.25816 0.0
C224 C 0.70826 0.21406 0.25404 0.0
C225 C 0.65804 0.17066 0.29495 0.0
C226 C 0.72574 0.20481 0.30769 0.0
C227 C 0.70935 0.17756 0.35219 0.0
C228 C 0.65918 0.12778 0.36913 0.0
C229 C 0.62573 0.10787 0.34976 0.0
C230 C 0.67555 0.15887 0.34062 0.0
C231 C 0.60857 0.12003 0.30493 0.0
C232 C 0.62451 0.15135 0.2789 0.0
H233 H 0.50922 0.65985 0.13164 0.0
H234 H 0.59231 0.74242 0.25852 0.0
H235 H 0.5929 0.70837 0.3668 0.0
H236 H 0.57469 0.65336 0.41329 0.0
H237 H 0.49199 0.57092 0.28289 0.0
H238 H 0.48619 0.60661 0.18907 0.0
C239 C 0.52697 0.67052 0.18412 0.0
C240 C 0.55084 0.70354 0.18682 0.0
C241 C 0.52754 0.65065 0.24496 0.0
C242 C 0.57359 0.71713 0.25528 0.0
C243 C 0.57411 0.69755 0.31672 0.0
C244 C 0.55497 0.64326 0.36551 0.0
C245 C 0.53423 0.60929 0.3545 0.0
C246 C 0.55196 0.66399 0.31053 0.0
C247 C 0.5087 0.5968 0.2923 0.0
C248 C 0.50533 0.61723 0.23834 0.0
H249 H 0.86466 0.5492 0.17803 0.0
H250 H 0.84865 0.45137 0.1575 0.0
H251 H 0.90067 0.46926 0.23481 0.0
H252 H 0.95236 0.51349 0.29488 0.0
H253 H 0.969 0.61162 0.31691 0.0
H254 H 0.91522 0.5932 0.24799 0.0
C255 C 0.87209 0.5317 0.19378 0.0
C256 C 0.85298 0.49903 0.16407 0.0
C257 C 0.9026 0.54252 0.2339 0.0
C258 C 0.8629 0.47647 0.18199 0.0
C259 C 0.89285 0.48684 0.2242 0.0
C260 C 0.94452 0.53098 0.28267 0.0
C261 C 0.96482 0.56401 0.30759 0.0
C262 C 0.91334 0.51998 0.24723 0.0
C263 C 0.95395 0.58625 0.29546 0.0
C264 C 0.92313 0.57563 0.25763 0.0
H265 H 0.35984 0.91596 0.16777 0.0
H266 H 0.34696 0.8253 0.25134 0.0
H267 H 0.3929 0.8555 0.35338 0.0
H268 H 0.43416 0.90825 0.42581 0.0
H269 H 0.44745 0.99751 0.33379 0.0
H270 H 0.4052 0.96698 0.22331 0.0
C271 C 0.36749 0.90237 0.20566 0.0
C272 C 0.34953 0.86812 0.20094 0.0
C273 C 0.39454 0.91973 0.26175 0.0
C274 C 0.3596 0.85158 0.25407 0.0
C275 C 0.38622 0.86885 0.31193 0.0
C276 C 0.42859 0.92081 0.3793 0.0
C277 C 0.44404 0.95495 0.38643 0.0
C278 C 0.4036 0.90299 0.31707 0.0
C279 C 0.43617 0.97123 0.32793 0.0
C280 C 0.41173 0.95379 0.26573 0.0
H281 H 0.42605 0.32483 0.25176 0.0
H282 H 0.50182 0.31282 0.37145 0.0
H283 H 0.51318 0.3564 0.47494 0.0
H284 H 0.51091 0.40626 0.5088 0.0
H285 H 0.44083 0.42278 0.37499 0.0
H286 H 0.41769 0.36935 0.3004 0.0
C287 C 0.44461 0.33137 0.30151 0.0
C288 C 0.46363 0.31629 0.30258 0.0
C289 C 0.45237 0.35775 0.35769 0.0
C290 C 0.48691 0.32419 0.36879 0.0
C291 C 0.4937 0.3494 0.42759 0.0
C292 C 0.48978 0.39745 0.46559 0.0
C293 C 0.47758 0.41809 0.44636 0.0
C294 C 0.47798 0.36763 0.41949 0.0
C295 C 0.45051 0.407 0.3899 0.0
C296 C 0.43748 0.37664 0.34702 0.0
H297 H 0.608 0.90405 0.89554 0.0
H298 H 0.51176 0.82148 0.88255 0.0
H299 H 0.49274 0.84782 0.7865 0.0
H300 H 0.50165 0.89816 0.72662 0.0
H301 H 0.59753 0.98099 0.73955 0.0
H302 H 0.61884 0.9507 0.81381 0.0
C303 C 0.58307 0.89154 0.86981 0.0
C304 C 0.56121 0.86099 0.89657 0.0
C305 C 0.57228 0.90702 0.81512 0.0
C306 C 0.52903 0.84489 0.86264 0.0
C307 C 0.51811 0.86009 0.80824 0.0
C308 C 0.52741 0.90903 0.74293 0.0
C309 C 0.54812 0.94157 0.72741 0.0
C310 C 0.53923 0.89164 0.78675 0.0
C311 C 0.58133 0.95577 0.74976 0.0
C312 C 0.59337 0.93858 0.79316 0.0
H313 H 0.71679 0.52776 0.85352 0.0
H314 H 0.64105 0.44208 0.94686 0.0
H315 H 0.60037 0.44693 0.86069 0.0
H316 H 0.5863 0.48051 0.77391 0.0
H317 H 0.66353 0.56966 0.69476 0.0
H318 H 0.7034 0.55888 0.76111 0.0
C319 C 0.69143 0.5094 0.8519 0.0
C320 C 0.68173 0.48436 0.90466 0.0
C321 C 0.6683 0.51373 0.80706 0.0
C322 C 0.64886 0.46115 0.90485 0.0
C323 C 0.62563 0.46434 0.85687 0.0
C324 C 0.61183 0.49753 0.77132 0.0
C325 C 0.62174 0.52597 0.73006 0.0
C326 C 0.635 0.49142 0.81063 0.0
C327 C 0.65501 0.54765 0.72657 0.0
C328 C 0.678 0.54146 0.76401 0.0
H329 H 0.19162 0.70605 0.91267 0.0
H330 H 0.12046 0.69785 0.07761 0.0
H331 H 0.07779 0.65397 -0.01275 0.0
H332 H 0.06219 0.61231 0.874 0.0
H333 H 0.13176 0.62056 0.70478 0.0
H334 H 0.17347 0.67044 0.78275 0.0
C335 C 0.16666 0.69528 0.92745 0.0
C336 C 0.15933 0.70452 0.00291 0.0
C337 C 0.14204 0.66986 0.8749 0.0
C338 C 0.12681 0.69051 0.02096 0.0
C339 C 0.10237 0.66544 0.96934 0.0
C340 C 0.0863 0.62562 0.85313 0.0
C341 C 0.09422 0.61286 0.78488 0.0
C342 C 0.10992 0.654 0.89817 0.0
C343 C 0.1253 0.63016 0.75744 0.0
C344 C 0.14914 0.65847 0.80238 0.0
H345 H 0.52806 0.1614 0.09446 0.0
H346 H 0.44816 0.16359 0.96442 0.0
H347 H 0.44788 0.12745 0.85296 0.0
H348 H 0.46535 0.08991 0.80268 0.0
H349 H 0.54122 0.08295 0.94005 0.0
H350 H 0.54781 0.12616 0.03978 0.0
C351 C 0.51062 0.15399 0.04157 0.0
C352 C 0.4878 0.16464 0.03812 0.0
C353 C 0.50961 0.1321 0.98001 0.0
C354 C 0.46598 0.15574 0.96834 0.0
C355 C 0.46562 0.13486 0.90508 0.0
C356 C 0.48368 0.09814 0.85375 0.0
C357 C 0.50253 0.08307 0.86474 0.0
C358 C 0.48659 0.12209 0.91178 0.0
C359 C 0.52615 0.09395 0.93112 0.0
C360 C 0.52994 0.11862 -0.01208 0.0
H361 H 0.36986 0.48038 0.13683 0.0
H362 H 0.32865 0.51468 0.95134 0.0
H363 H 0.3667 0.51436 0.85551 0.0
H364 H 0.41342 0.5067 0.82788 0.0
H365 H 0.45877 0.48048 0.02222 0.0
H366 H 0.41858 0.47773 0.11443 0.0
C367 C 0.36947 0.48865 0.07612 0.0
C368 C 0.34674 0.49844 0.05241 0.0
C369 C 0.39279 0.49075 0.0242 0.0
C370 C 0.34572 0.50711 0.97167 0.0
C371 C 0.36782 0.50737 0.91735 0.0
C372 C 0.41473 0.50088 0.89097 0.0
C373 C 0.43907 0.49391 0.91875 0.0
C374 C 0.39182 0.49983 0.94363 0.0
C375 C 0.44061 0.48637 0.00015 0.0
C376 C 0.41739 0.4844 0.05224 0.0
H377 H 0.85286 0.39097 0.98391 0.0
H378 H 0.84201 0.3032 0.86367 0.0
H379 H 0.87819 0.33461 0.76073 0.0
H380 H 0.92302 0.38743 0.72953 0.0
H381 H 0.93795 0.47501 0.86268 0.0
H382 H 0.88992 0.44359 0.93491 0.0
C383 C 0.85744 0.37876 0.93292 0.0
C384 C 0.84551 0.34516 0.93148 0.0
C385 C 0.87978 0.39711 0.87781 0.0
C386 C 0.85114 0.32917 0.86556 0.0
C387 C 0.87222 0.34719 0.80765 0.0
C388 C 0.91529 0.39968 0.77286 0.0
C389 C 0.9345 0.43332 0.79254 0.0
C390 C 0.88839 0.38128 0.8169 0.0
C391 C 0.92399 0.44899 0.84796 0.0
C392 C 0.89651 0.43106 0.88932 0.0
H393 H 0.8769 0.55234 0.91013 0.0
H394 H 0.82323 0.45087 0.82775 0.0
H395 H 0.86687 0.45732 0.74319 0.0
H396 H 0.92277 0.49133 0.70234 0.0
H397 H 0.97661 0.59248 0.79056 0.0
H398 H 0.93104 0.58662 0.86475 0.0
C399 C 0.87422 0.53202 0.87065 0.0
C400 C 0.84638 0.50146 0.87258 0.0
C401 C 0.90012 0.53562 0.82599 0.0
C402 C 0.84383 0.47489 0.8245 0.0
C403 C 0.86913 0.47847 0.77773 0.0
C404 C 0.92458 0.51191 0.73874 0.0
C405 C 0.95329 0.54218 0.74224 0.0
C406 C 0.89787 0.50852 0.78008 0.0
C407 C 0.95497 0.56886 0.78781 0.0
C408 C 0.92881 0.5656 0.82962 0.0
H409 H 0.30432 0.8338 0.86982 0.0
H410 H 0.28719 0.90526 -0.00739 0.0
H411 H 0.31995 0.94551 0.8988 0.0
H412 H 0.36576 0.96366 0.81159 0.0
H413 H 0.38804 0.89315 0.70461 0.0
H414 H 0.34115 0.84921 0.7608 0.0
C415 C 0.30627 0.85763 0.87248 0.0
C416 C 0.29371 0.86683 0.93754 0.0
C417 C 0.32723 0.88117 0.82284 0.0
C418 C 0.29658 0.89779 0.94214 0.0
C419 C 0.31589 0.92096 0.88965 0.0
C420 C 0.35943 0.93851 0.79832 0.0
C421 C 0.38013 0.93134 0.75529 0.0
C422 C 0.33332 0.91357 0.83424 0.0
C423 C 0.37228 0.89891 0.73845 0.0
C424 C 0.34559 0.87387 0.77065 0.0
H425 H 0.51954 0.33785 0.00012 0.0
H426 H 0.41559 0.28551 -0.01264 0.0
H427 H 0.41329 0.31808 0.87743 0.0
H428 H 0.44113 0.36706 0.80003 0.0
H429 H 0.54516 0.42094 0.81837 0.0
H430 H 0.54733 0.38226 0.90903 0.0
C431 C 0.49646 0.33291 0.97107 0.0
C432 C 0.46776 0.30903 0.00086 0.0
C433 C 0.49539 0.35247 0.90944 0.0
C434 C 0.43796 0.30343 0.96443 0.0
C435 C 0.43667 0.32227 0.90207 0.0
C436 C 0.46422 0.3697 0.82173 0.0
C437 C 0.49302 0.39706 0.80272 0.0
C438 C 0.46523 0.34766 0.87598 0.0
C439 C 0.52272 0.40028 0.83255 0.0
C440 C 0.52395 0.37819 0.88473 0.0
H441 H 0.19322 0.47608 0.93365 0.0
H442 H 0.12995 0.40295 0.08639 0.0
H443 H 0.08331 0.39049 -0.00797 0.0
H444 H 0.06003 0.41116 0.88766 0.0
H445 H 0.12348 0.48472 0.73611 0.0
H446 H 0.17052 0.48618 0.80729 0.0
C447 C 0.16946 0.45623 0.94368 0.0
C448 C 0.16477 0.44093 0.01731 0.0
C449 C 0.14264 0.45005 0.89062 0.0
C450 C 0.13392 0.41521 0.03007 0.0
C451 C 0.10719 0.40844 0.97684 0.0
C452 C 0.08409 0.42647 0.86848 0.0
C453 C 0.08864 0.44803 0.80788 0.0
C454 C 0.11106 0.42736 0.91024 0.0
C455 C 0.11973 0.468 0.78308 0.0
C456 C 0.1466 0.46894 0.82393 0.0
H457 H 0.67314 0.14464 0.03654 0.0
H458 H 0.71912 0.21704 0.86252 0.0
H459 H 0.68386 0.17749 0.75068 0.0
H460 H 0.63861 0.12296 0.7032 0.0
H461 H 0.58792 0.05406 0.87993 0.0
H462 H 0.62514 0.0928 -0.00832 0.0
C463 C 0.67509 0.1525 0.97475 0.0
C464 C 0.69867 0.18446 0.9591 0.0
C465 C 0.65335 0.13044 0.91164 0.0
C466 C 0.70159 0.19284 0.87719 0.0
C467 C 0.68108 0.17031 0.81318 0.0
C468 C 0.63554 0.1167 0.76651 0.0
C469 C 0.61068 0.08586 0.78397 0.0
C470 C 0.65663 0.13925 0.82993 0.0
C471 C 0.60672 0.07778 0.86561 0.0
C472 C 0.62817 0.0998 0.92904 0.0
H473 H 0.61011 0.70709 0.94256 0.0
H474 H 0.5259 0.70424 0.82476 0.0
H475 H 0.52095 0.66297 0.72038 0.0
H476 H 0.53334 0.61926 0.68477 0.0
H477 H 0.61461 0.61952 0.81304 0.0
H478 H 0.62884 0.67078 0.8895 0.0
C479 C 0.59144 0.69819 0.8921 0.0
C480 C 0.56819 0.70813 0.89115 0.0
C481 C 0.58815 0.67376 0.83476 0.0
C482 C 0.54401 0.69674 0.82611 0.0
C483 C 0.54104 0.67297 0.76707 0.0
C484 C 0.55496 0.63146 0.72678 0.0
C485 C 0.57297 0.61596 0.74388 0.0
C486 C 0.56191 0.66002 0.77365 0.0
C487 C 0.6006 0.63134 0.79926 0.0
C488 C 0.6085 0.6604 0.84346 0.0
H489 H 0.44246 0.13343 0.32252 0.0
H490 H 0.53965 0.21344 0.36673 0.0
H491 H 0.5533 0.18189 0.45935 0.0
H492 H 0.54055 0.12758 0.50191 0.0
H493 H 0.44411 0.04679 0.45065 0.0
H494 H 0.42686 0.08237 0.38779 0.0
C495 C 0.46613 0.14444 0.35582 0.0
C496 C 0.48996 0.17581 0.33856 0.0
C497 C 0.47405 0.12561 0.4063 0.0
C498 C 0.52079 0.18962 0.38028 0.0
C499 C 0.52871 0.17132 0.43214 0.0
C500 C 0.51545 0.11822 0.48016 0.0
C501 C 0.49344 0.0848 0.48177 0.0
C502 C 0.50602 0.13873 0.44206 0.0
C503 C 0.46121 0.07256 0.45138 0.0
C504 C 0.45149 0.09286 0.41467 0.0
H505 H 0.38318 0.55491 0.33202 0.0
H506 H 0.30116 0.46262 0.37388 0.0
H507 H 0.3353 0.4509 0.46628 0.0
H508 H 0.38983 0.46187 0.51088 0.0
H509 H 0.47269 0.55083 0.4507 0.0
H510 H 0.43717 0.56776 0.38467 0.0
C511 C 0.3727 0.53264 0.36341 0.0
C512 C 0.34002 0.50931 0.34463 0.0
C513 C 0.39297 0.52457 0.40888 0.0
C514 C 0.32633 0.48095 0.38703 0.0
C515 C 0.34601 0.47385 0.43813 0.0
C516 C 0.40018 0.48492 0.48315 0.0
C517 C 0.43393 0.50468 0.4843 0.0
C518 C 0.37963 0.49451 0.44489 0.0
C519 C 0.44684 0.53472 0.44908 0.0
C520 C 0.42655 0.54471 0.41239 0.0
H521 H 0.85166 0.3529 0.3029 0.0
H522 H 0.91472 0.33863 0.14743 0.0
H523 H 0.96195 0.37912 0.23385 0.0
H524 H 0.98545 0.42508 0.33923 0.0
H525 H 0.92337 0.43842 0.49993 0.0
H526 H 0.87577 0.39192 0.42686 0.0
C527 C 0.87567 0.35775 0.29011 0.0
C528 C 0.87972 0.34299 0.21847 0.0
C529 C 0.90296 0.38149 0.33997 0.0
C530 C 0.91104 0.34975 0.20213 0.0
C531 C 0.93809 0.37315 0.25106 0.0
C532 C 0.96153 0.41719 0.35945 0.0
C533 C 0.95779 0.43517 0.42419 0.0
C534 C 0.9344 0.39023 0.31783 0.0
C535 C 0.92678 0.42478 0.4503 0.0
C536 C 0.89955 0.39832 0.40819 0.0
H537 H 0.54312 0.84881 0.21869 0.0
H538 H 0.64365 0.90927 0.18015 0.0
H539 H 0.64902 0.9487 0.29085 0.0
H540 H 0.62254 0.96975 0.38172 0.0
H541 H 0.52017 0.91213 0.40447 0.0
H542 H 0.51786 0.86745 0.31833 0.0
C543 C 0.56637 0.87016 0.23673 0.0
C544 C 0.59308 0.87621 0.19293 0.0
C545 C 0.56869 0.89331 0.29692 0.0
C546 C 0.62299 0.90418 0.2144 0.0
C547 C 0.62592 0.92674 0.27701 0.0
C548 C 0.60003 0.94697 0.36964 0.0
C549 C 0.57159 0.94391 0.39927 0.0
C550 C 0.59862 0.92215 0.31645 0.0
C551 C 0.5423 0.91475 0.38216 0.0
C552 C 0.54097 0.88935 0.3327 0.0
H553 H 0.70847 0.56391 0.11776 0.0
H554 H 0.71841 0.4977 0.27311 0.0
H555 H 0.68979 0.50942 0.37841 0.0
H556 H 0.65353 0.53106 0.41413 0.0
H557 H 0.64059 0.59389 0.25243 0.0
H558 H 0.67868 0.59113 0.1616 0.0
C559 C 0.70529 0.55291 0.17596 0.0
C560 C 0.71548 0.52995 0.1878 0.0
C561 C 0.68764 0.55873 0.23419 0.0
C562 C 0.7111 0.51567 0.26302 0.0
C563 C 0.6943 0.52204 0.32262 0.0
C564 C 0.65992 0.54488 0.36022 0.0
C565 C 0.64466 0.56293 0.33996 0.0
C566 C 0.68121 0.5424 0.30721 0.0
C567 C 0.65242 0.58022 0.26936 0.0
C568 C 0.67403 0.57847 0.21735 0.0
H569 H 0.17812 0.74681 0.33974 0.0
H570 H 0.21866 0.68779 0.26008 0.0
H571 H 0.19016 0.64893 0.36086 0.0
H572 H 0.14344 0.62563 0.44357 0.0
H573 H 0.10114 0.68364 0.51979 0.0
H574 H 0.14109 0.72937 0.4508 0.0
C575 C 0.18194 0.72632 0.34779 0.0
C576 C 0.2002 0.71989 0.293 0.0
C577 C 0.1645 0.70349 0.40383 0.0
C578 C 0.20479 0.69312 0.30242 0.0
C579 C 0.18815 0.67071 0.35919 0.0
C580 C 0.1437 0.64867 0.4474 0.0
C581 C 0.11889 0.65099 0.48448 0.0
C582 C 0.16629 0.67461 0.40608 0.0
C583 C 0.1198 0.68111 0.4907 0.0
C584 C 0.1425 0.70723 0.45061 0.0
loop_
_geom_bond_atom_site_label_1
_geom_bond_atom_site_label_2
_geom_bond_distance
_geom_bond_site_symmetry_2
_ccdc_geom_bond_type
H0 C6 0.930 . S
H1 C9 0.931 . S
H2 C11 0.931 . S
H3 C13 0.930 . S
H4 C15 0.930 . S
H5 C17 0.931 . S
C6 H0 0.930 . S
C6 C7 1.380 . S
C6 C8 1.394 . S
C7 C6 1.380 . S
C7 C11 1.382 . S
C8 C6 1.394 . S
C8 C9 1.400 . S
C9 H1 0.931 . S
C9 C8 1.400 . S
C9 C10 1.375 . S
C10 C9 1.375 . S
C10 C11 1.415 . S
C10 C12 1.501 . S
C11 H2 0.931 . S
C11 C7 1.382 . S
C11 C10 1.415 . S
C12 C10 1.501 . S
C12 C13 1.384 . S
C12 C17 1.408 . S
C13 H3 0.930 . S
C13 C12 1.384 . S
C13 C14 1.389 . S
C14 C13 1.389 . S
C14 C15 1.405 . S
C15 H4 0.930 . S
C15 C14 1.405 . S
C15 C16 1.364 . S
C16 C15 1.364 . S
C16 C17 1.400 . S
C17 H5 0.931 . S
C17 C12 1.408 . S
C17 C16 1.400 . S
H18 C24 0.930 . S
H19 C27 0.931 . S
H20 C29 0.931 1_556 S
H21 C31 0.930 1_556 S
H22 C33 0.930 . S
H23 C35 0.931 . S
C24 H18 0.930 . S
C24 C25 1.380 . S
C24 C26 1.394 . S
C25 C24 1.380 . S
C25 C29 1.382 . S
C26 C24 1.394 . S
C26 C27 1.400 . S
C27 H19 0.931 . S
C27 C26 1.400 . S
C27 C28 1.375 . S
C28 C27 1.375 . S
C28 C29 1.415 . S
C28 C30 1.501 . S
C29 H20 0.931 1_554 S
C29 C25 1.382 . S
C29 C28 1.415 . S
C30 C28 1.501 . S
C30 C31 1.384 . S
C30 C35 1.408 . S
C31 H21 0.930 1_554 S
C31 C30 1.384 . S
C31 C32 1.389 . S
C32 C31 1.389 . S
C32 C33 1.405 . S
C33 H22 0.930 . S
C33 C32 1.405 . S
C33 C34 1.364 . S
C34 C33 1.364 . S
C34 C35 1.400 . S
C35 H23 0.931 . S
C35 C30 1.408 . S
C35 C34 1.400 . S
H36 C42 0.930 . S
H37 C45 0.931 . S
H38 C47 0.931 . S
H39 C49 0.930 . S
H40 C51 0.930 . S
H41 C53 0.931 . S
C42 H36 0.930 . S
C42 C43 1.380 1_554 S
C42 C44 1.394 . S
C43 C42 1.380 1_556 S
C43 C47 1.382 . S
C44 C42 1.394 . S
C44 C45 1.400 . S
C45 H37 0.931 . S
C45 C44 1.400 . S
C45 C46 1.375 . S
C46 C45 1.375 . S
C46 C47 1.415 1_554 S
C46 C48 1.501 . S
C47 H38 0.931 . S
C47 C43 1.382 . S
C47 C46 1.415 1_556 S
C48 C46 1.501 . S
C48 C49 1.384 1_554 S
C48 C53 1.408 . S
C49 H39 0.930 . S
C49 C48 1.384 1_556 S
C49 C50 1.389 . S
C50 C49 1.389 . S
C50 C51 1.405 1_556 S
C51 H40 0.930 . S
C51 C50 1.405 1_554 S
C51 C52 1.364 . S
C52 C51 1.364 . S
C52 C53 1.400 . S
C53 H41 0.931 . S
C53 C48 1.408 . S
C53 C52 1.400 . S
H54 C60 0.930 . S
H55 C63 0.931 . S
H56 C65 0.931 . S
H57 C67 0.930 . S
H58 C69 0.930 . S
H59 C71 0.931 . S
C60 H54 0.930 . S
C60 C61 1.380 1_554 S
C60 C62 1.394 . S
C61 C60 1.380 1_556 S
C61 C65 1.382 . S
C62 C60 1.394 . S
C62 C63 1.400 . S
C63 H55 0.931 . S
C63 C62 1.400 . S
C63 C64 1.375 . S
C64 C63 1.375 . S
C64 C65 1.415 1_554 S
C64 C66 1.501 . S
C65 H56 0.931 . S
C65 C61 1.382 . S
C65 C64 1.415 1_556 S
C66 C64 1.501 . S
C66 C67 1.384 1_554 S
C66 C71 1.408 . S
C67 H57 0.930 . S
C67 C66 1.384 1_556 S
C67 C68 1.389 . S
C68 C67 1.389 . S
C68 C69 1.405 1_556 S
C69 H58 0.930 . S
C69 C68 1.405 1_554 S
C69 C70 1.364 . S
C70 C69 1.364 . S
C70 C71 1.400 . S
C71 H59 0.931 . S
C71 C66 1.408 . S
C71 C70 1.400 . S
H72 C78 0.930 . S
H73 C81 0.931 . S
H74 C83 0.931 . S
H75 C85 0.930 1_556 S
H76 C87 0.930 . S
H77 C89 0.931 . S
C78 H72 0.930 . S
C78 C79 1.380 . S
C78 C80 1.394 . S
C79 C78 1.380 . S
C79 C83 1.382 . S
C80 C78 1.394 . S
C80 C81 1.400 . S
C81 H73 0.931 . S
C81 C80 1.400 . S
C81 C82 1.375 . S
C82 C81 1.375 . S
C82 C83 1.415 . S
C82 C84 1.501 . S
C83 H74 0.931 . S
C83 C79 1.382 . S
C83 C82 1.415 . S
C84 C82 1.501 . S
C84 C85 1.384 . S
C84 C89 1.408 . S
C85 H75 0.930 1_554 S
C85 C84 1.384 . S
C85 C86 1.389 . S
C86 C85 1.389 . S
C86 C87 1.405 . S
C87 H76 0.930 . S
C87 C86 1.405 . S
C87 C88 1.364 . S
C88 C87 1.364 . S
C88 C89 1.400 . S
C89 H77 0.931 . S
C89 C84 1.408 . S
C89 C88 1.400 . S
H90 C96 0.930 . S
H91 C99 0.931 . S
H92 C101 0.931 . S
H93 C103 0.930 . S
H94 C105 0.930 . S
H95 C107 0.931 . S
C96 H90 0.930 . S
C96 C97 1.380 . S
C96 C98 1.394 . S
C97 C96 1.380 . S
C97 C101 1.382 . S
C98 C96 1.394 . S
C98 C99 1.400 . S
C99 H91 0.931 . S
C99 C98 1.400 . S
C99 C100 1.375 . S
C100 C99 1.375 . S
C100 C101 1.415 . S
C100 C102 1.501 . S
C101 H92 0.931 . S
C101 C97 1.382 . S
C101 C100 1.415 . S
C102 C100 1.501 . S
C102 C103 1.384 . S
C102 C107 1.408 . S
C103 H93 0.930 . S
C103 C102 1.384 . S
C103 C104 1.389 . S
C104 C103 1.389 . S
C104 C105 1.405 . S
C105 H94 0.930 . S
C105 C104 1.405 . S
C105 C106 1.364 . S
C106 C105 1.364 . S
C106 C107 1.400 . S
C107 H95 0.931 . S
C107 C102 1.408 . S
C107 C106 1.400 . S
C108 O135 1.312 . S
C108 O136 1.208 . S
C109 O130 1.331 . S
C109 O133 1.244 . S
C110 O132 1.264 . S
C110 O134 1.273 . S
Mg111 O113 1.936 1_455 S
Mg111 O120 2.081 1_455 S
Mg111 O122 2.023 . S
Mg111 O126 2.031 1_455 S
Mg111 O135 2.291 . S
Mg112 O113 1.963 . S
Mg112 O123 1.942 . S
Mg112 O124 1.955 1_655 S
Mg112 O131 1.986 . S
O113 Mg111 1.936 1_655 S
O113 Mg112 1.963 . S
O113 Mg114 1.915 1_655 S
Mg114 O113 1.915 1_455 S
Mg114 O115 1.915 . S
Mg114 O119 2.013 . S
Mg114 O125 2.114 1_455 S
Mg114 O129 2.013 1_455 S
Mg114 O135 2.114 . S
O115 Mg114 1.915 . S
O115 Mg116 1.936 . S
O115 Mg117 1.963 . S
Mg116 O115 1.936 . S
Mg116 O125 2.291 1_455 S
Mg116 O130 2.081 . S
Mg116 O132 2.023 1_455 S
Mg116 O136 2.031 . S
Mg117 O115 1.963 . S
Mg117 O121 1.986 . S
Mg117 O133 1.942 . S
Mg117 O134 1.955 1_455 S
C118 O129 1.191 . S
C118 O131 1.307 . S
O119 Mg114 2.013 . S
O119 C138 1.191 . S
O120 Mg111 2.081 1_655 S
O120 C128 1.331 . S
O121 Mg117 1.986 . S
O121 C138 1.307 . S
O122 Mg111 2.023 . S
O122 C137 1.264 . S
O123 Mg112 1.942 . S
O123 C128 1.244 . S
O124 Mg112 1.955 1_455 S
O124 C137 1.273 . S
O125 Mg114 2.114 1_655 S
O125 Mg116 2.291 1_655 S
O125 C127 1.312 . S
O126 Mg111 2.031 1_655 S
O126 C127 1.208 . S
C127 O125 1.312 . S
C127 O126 1.208 . S
C128 O120 1.331 . S
C128 O123 1.244 . S
O129 Mg114 2.013 1_655 S
O129 C118 1.191 . S
O130 C109 1.331 . S
O130 Mg116 2.081 . S
O131 Mg112 1.986 . S
O131 C118 1.307 . S
O132 C110 1.264 . S
O132 Mg116 2.023 1_655 S
O133 C109 1.244 . S
O133 Mg117 1.942 . S
O134 C110 1.273 . S
O134 Mg117 1.955 1_655 S
O135 C108 1.312 . S
O135 Mg111 2.291 . S
O135 Mg114 2.114 . S
O136 C108 1.208 . S
O136 Mg116 2.031 . S
C137 O122 1.264 . S
C137 O124 1.273 . S
C138 O119 1.191 . S
C138 O121 1.307 . S
C139 O166 1.312 . S
C139 O167 1.208 . S
C140 O161 1.331 . S
C140 O164 1.244 . S
C141 O163 1.264 . S
C141 O165 1.273 . S
Mg142 O144 1.936 1_545 S
Mg142 O151 2.081 1_545 S
Mg142 O153 2.023 . S
Mg142 O157 2.031 1_545 S
Mg142 O166 2.291 . S
Mg143 O144 1.967 1_545 S
Mg143 O154 1.940 1_545 S
Mg143 O155 1.973 . S
Mg143 O162 1.969 1_545 S
O144 Mg142 1.936 1_565 S
O144 Mg143 1.967 1_565 S
O144 Mg145 1.915 1_565 S
Mg145 O144 1.915 1_545 S
Mg145 O146 1.915 . S
Mg145 O150 2.013 . S
Mg145 O156 2.114 1_545 S
Mg145 O160 2.013 1_545 S
Mg145 O166 2.114 . S
O146 Mg145 1.915 . S
O146 Mg147 1.936 . S
O146 Mg148 1.963 . S
Mg147 O146 1.936 . S
Mg147 O156 2.291 1_545 S
Mg147 O161 2.081 . S
Mg147 O163 2.023 1_545 S
Mg147 O167 2.031 . S
Mg148 O146 1.963 . S
Mg148 O152 1.986 . S
Mg148 O164 1.942 . S
Mg148 O165 1.955 1_545 S
C149 O160 1.191 . S
C149 O162 1.307 . S
O150 Mg145 2.013 . S
O150 C169 1.191 . S
O151 Mg142 2.081 1_565 S
O151 C159 1.331 . S
O152 Mg148 1.986 . S
O152 C169 1.307 . S
O153 Mg142 2.023 . S
O153 C168 1.264 . S
O154 Mg143 1.940 1_565 S
O154 C159 1.244 . S
O155 Mg143 1.973 . S
O155 C168 1.273 . S
O156 Mg145 2.114 1_565 S
O156 Mg147 2.291 1_565 S
O156 C158 1.312 . S
O157 Mg142 2.031 1_565 S
O157 C158 1.208 . S
C158 O156 1.312 . S
C158 O157 1.208 . S
C159 O151 1.331 . S
C159 O154 1.244 . S
O160 Mg145 2.013 1_565 S
O160 C149 1.191 . S
O161 C140 1.331 . S
O161 Mg147 2.081 . S
O162 Mg143 1.969 1_565 S
O162 C149 1.307 . S
O163 C141 1.264 . S
O163 Mg147 2.023 1_565 S
O164 C140 1.244 . S
O164 Mg148 1.942 . S
O165 C141 1.273 . S
O165 Mg148 1.955 1_565 S
O166 C139 1.312 . S
O166 Mg142 2.291 . S
O166 Mg145 2.114 . S
O167 C139 1.208 . S
O167 Mg147 2.031 . S
C168 O153 1.264 . S
C168 O155 1.273 . S
C169 O150 1.191 . S
C169 O152 1.307 . S
C170 O197 1.312 . S
C170 O198 1.208 . S
C171 O192 1.331 . S
C171 O195 1.244 . S
C172 O194 1.264 . S
C172 O196 1.273 . S
Mg173 O175 1.936 . S
Mg173 O182 2.081 . S
Mg173 O184 2.023 . S
Mg173 O188 2.031 . S
Mg173 O197 2.291 . S
Mg174 O175 1.963 . S
Mg174 O185 1.942 . S
Mg174 O186 1.955 . S
Mg174 O193 1.986 . S
O175 Mg173 1.936 . S
O175 Mg174 1.963 . S
O175 Mg176 1.915 . S
Mg176 O175 1.915 . S
Mg176 O177 1.915 . S
Mg176 O181 2.013 . S
Mg176 O187 2.114 . S
Mg176 O191 2.013 . S
Mg176 O197 2.114 . S
O177 Mg176 1.915 . S
O177 Mg178 1.936 . S
O177 Mg179 1.963 . S
Mg178 O177 1.936 . S
Mg178 O187 2.291 . S
Mg178 O192 2.081 . S
Mg178 O194 2.023 . S
Mg178 O198 2.031 . S
Mg179 O177 1.963 . S
Mg179 O183 1.986 . S
Mg179 O195 1.942 . S
Mg179 O196 1.955 . S
C180 O191 1.191 . S
C180 O193 1.307 . S
O181 Mg176 2.013 . S
O181 C200 1.191 . S
O182 Mg173 2.081 . S
O182 C190 1.331 . S
O183 Mg179 1.986 . S
O183 C200 1.307 . S
O184 Mg173 2.023 . S
O184 C199 1.264 . S
O185 Mg174 1.942 . S
O185 C190 1.244 . S
O186 Mg174 1.955 . S
O186 C199 1.273 . S
O187 Mg176 2.114 . S
O187 Mg178 2.291 . S
O187 C189 1.312 . S
O188 Mg173 2.031 . S
O188 C189 1.208 . S
C189 O187 1.312 . S
C189 O188 1.208 . S
C190 O182 1.331 . S
C190 O185 1.244 . S
O191 Mg176 2.013 . S
O191 C180 1.191 . S
O192 C171 1.331 . S
O192 Mg178 2.081 . S
O193 Mg174 1.986 . S
O193 C180 1.307 . S
O194 C172 1.264 . S
O194 Mg178 2.023 . S
O195 C171 1.244 . S
O195 Mg179 1.942 . S
O196 C172 1.273 . S
O196 Mg179 1.955 . S
O197 C170 1.312 . S
O197 Mg173 2.291 . S
O197 Mg176 2.114 . S
O198 C170 1.208 . S
O198 Mg178 2.031 . S
C199 O184 1.264 . S
C199 O186 1.273 . S
C200 O181 1.191 . S
C200 O183 1.307 . S
H201 C207 0.930 . S
H202 C210 0.930 . S
H203 C211 0.930 . S
H204 C212 0.930 . S
H205 C215 0.930 . S
H206 C216 0.930 . S
C207 H201 0.930 . S
C207 C208 1.355 . S
C207 C209 1.415 . S
C208 C207 1.355 . S
C208 C210 1.419 . S
C209 C207 1.415 . S
C209 C214 1.425 . S
C209 C216 1.409 . S
C210 H202 0.930 . S
C210 C208 1.419 . S
C210 C211 1.362 . S
C211 H203 0.930 . S
C211 C210 1.362 . S
C211 C214 1.409 . S
C212 H204 0.930 . S
C212 C213 1.355 . S
C212 C214 1.415 . S
C213 C212 1.355 . S
C213 C215 1.419 . S
C214 C209 1.425 . S
C214 C211 1.409 . S
C214 C212 1.415 . S
C215 H205 0.930 . S
C215 C213 1.419 . S
C215 C216 1.362 . S
C216 H206 0.930 . S
C216 C209 1.409 . S
C216 C215 1.362 . S
H217 C223 0.930 . S
H218 C226 0.930 . S
H219 C227 0.930 . S
H220 C228 0.930 . S
H221 C231 0.930 . S
H222 C232 0.930 . S
C223 H217 0.930 . S
C223 C224 1.355 . S
C223 C225 1.415 . S
C224 C223 1.355 . S
C224 C226 1.419 . S
C225 C223 1.415 . S
C225 C230 1.425 . S
C225 C232 1.409 . S
C226 H218 0.930 . S
C226 C224 1.419 . S
C226 C227 1.362 . S
C227 H219 0.930 . S
C227 C226 1.362 . S
C227 C230 1.409 . S
C228 H220 0.930 . S
C228 C229 1.355 . S
C228 C230 1.415 . S
C229 C228 1.355 . S
C229 C231 1.419 . S
C230 C225 1.425 . S
C230 C227 1.409 . S
C230 C228 1.415 . S
C231 H221 0.930 . S
C231 C229 1.419 . S
C231 C232 1.362 . S
C232 H222 0.930 . S
C232 C225 1.409 . S
C232 C231 1.362 . S
H233 C239 0.930 . S
H234 C242 0.930 . S
H235 C243 0.930 . S
H236 C244 0.930 . S
H237 C247 0.930 . S
H238 C248 0.930 . S
C239 H233 0.930 . S
C239 C240 1.355 . S
C239 C241 1.415 . S
C240 C239 1.355 . S
C240 C242 1.419 . S
C241 C239 1.415 . S
C241 C246 1.425 . S
C241 C248 1.409 . S
C242 H234 0.930 . S
C242 C240 1.419 . S
C242 C243 1.362 . S
C243 H235 0.930 . S
C243 C242 1.362 . S
C243 C246 1.409 . S
C244 H236 0.930 . S
C244 C245 1.355 . S
C244 C246 1.415 . S
C245 C244 1.355 . S
C245 C247 1.419 . S
C246 C241 1.425 . S
C246 C243 1.409 . S
C246 C244 1.415 . S
C247 H237 0.930 . S
C247 C245 1.419 . S
C247 C248 1.362 . S
C248 H238 0.930 . S
C248 C241 1.409 . S
C248 C247 1.362 . S
H249 C255 0.930 . S
H250 C258 0.930 . S
H251 C259 0.930 . S
H252 C260 0.930 . S
H253 C263 0.930 . S
H254 C264 0.930 . S
C255 H249 0.930 . S
C255 C256 1.355 . S
C255 C257 1.415 . S
C256 C255 1.355 . S
C256 C258 1.419 . S
C257 C255 1.415 . S
C257 C262 1.425 . S
C257 C264 1.409 . S
C258 H250 0.930 . S
C258 C256 1.419 . S
C258 C259 1.362 . S
C259 H251 0.930 . S
C259 C258 1.362 . S
C259 C262 1.409 . S
C260 H252 0.930 . S
C260 C261 1.355 . S
C260 C262 1.415 . S
C261 C260 1.355 . S
C261 C263 1.419 . S
C262 C257 1.425 . S
C262 C259 1.409 . S
C262 C260 1.415 . S
C263 H253 0.930 . S
C263 C261 1.419 . S
C263 C264 1.362 . S
C264 H254 0.930 . S
C264 C257 1.409 . S
C264 C263 1.362 . S
H265 C271 0.930 . S
H266 C274 0.930 . S
H267 C275 0.930 . S
H268 C276 0.930 . S
H269 C279 0.930 . S
H270 C280 0.930 . S
C271 H265 0.930 . S
C271 C272 1.355 . S
C271 C273 1.415 . S
C272 C271 1.355 . S
C272 C274 1.419 . S
C273 C271 1.415 . S
C273 C278 1.425 . S
C273 C280 1.409 . S
C274 H266 0.930 . S
C274 C272 1.419 . S
C274 C275 1.362 . S
C275 H267 0.930 . S
C275 C274 1.362 . S
C275 C278 1.409 . S
C276 H268 0.930 . S
C276 C277 1.355 . S
C276 C278 1.415 . S
C277 C276 1.355 . S
C277 C279 1.419 . S
C278 C273 1.425 . S
C278 C275 1.409 . S
C278 C276 1.415 . S
C279 H269 0.930 . S
C279 C277 1.419 . S
C279 C280 1.362 . S
C280 H270 0.930 . S
C280 C273 1.409 . S
C280 C279 1.362 . S
H281 C287 0.930 . S
H282 C290 0.930 . S
H283 C291 0.930 . S
H284 C292 0.930 . S
H285 C295 0.930 . S
H286 C296 0.930 . S
C287 H281 0.930 . S
C287 C288 1.355 . S
C287 C289 1.415 . S
C288 C287 1.355 . S
C288 C290 1.419 . S
C289 C287 1.415 . S
C289 C294 1.425 . S
C289 C296 1.409 . S
C290 H282 0.930 . S
C290 C288 1.419 . S
C290 C291 1.362 . S
C291 H283 0.930 . S
C291 C290 1.362 . S
C291 C294 1.409 . S
C292 H284 0.930 . S
C292 C293 1.355 . S
C292 C294 1.415 . S
C293 C292 1.355 . S
C293 C295 1.419 . S
C294 C289 1.425 . S
C294 C291 1.409 . S
C294 C292 1.415 . S
C295 H285 0.930 . S
C295 C293 1.419 . S
C295 C296 1.362 . S
C296 H286 0.930 . S
C296 C289 1.409 . S
C296 C295 1.362 . S
H297 C303 0.930 . S
H298 C306 0.930 . S
H299 C307 0.930 . S
H300 C308 0.930 . S
H301 C311 0.930 . S
H302 C312 0.930 . S
C303 H297 0.930 . S
C303 C304 1.355 . S
C303 C305 1.415 . S
C304 C303 1.355 . S
C304 C306 1.419 . S
C305 C303 1.415 . S
C305 C310 1.425 . S
C305 C312 1.409 . S
C306 H298 0.930 . S
C306 C304 1.419 . S
C306 C307 1.362 . S
C307 H299 0.930 . S
C307 C306 1.362 . S
C307 C310 1.409 . S
C308 H300 0.930 . S
C308 C309 1.355 . S
C308 C310 1.415 . S
C309 C308 1.355 . S
C309 C311 1.419 . S
C310 C305 1.425 . S
C310 C307 1.409 . S
C310 C308 1.415 . S
C311 H301 0.930 . S
C311 C309 1.419 . S
C311 C312 1.362 . S
C312 H302 0.930 . S
C312 C305 1.409 . S
C312 C311 1.362 . S
H313 C319 0.930 . S
H314 C322 0.930 . S
H315 C323 0.930 . S
H316 C324 0.930 . S
H317 C327 0.930 . S
H318 C328 0.930 . S
C319 H313 0.930 . S
C319 C320 1.355 . S
C319 C321 1.415 . S
C320 C319 1.355 . S
C320 C322 1.419 . S
C321 C319 1.415 . S
C321 C326 1.425 . S
C321 C328 1.409 . S
C322 H314 0.930 . S
C322 C320 1.419 . S
C322 C323 1.362 . S
C323 H315 0.930 . S
C323 C322 1.362 . S
C323 C326 1.409 . S
C324 H316 0.930 . S
C324 C325 1.355 . S
C324 C326 1.415 . S
C325 C324 1.355 . S
C325 C327 1.419 . S
C326 C321 1.425 . S
C326 C323 1.409 . S
C326 C324 1.415 . S
C327 H317 0.930 . S
C327 C325 1.419 . S
C327 C328 1.362 . S
C328 H318 0.930 . S
C328 C321 1.409 . S
C328 C327 1.362 . S
H329 C335 0.930 . S
H330 C338 0.930 1_554 S
H331 C339 0.930 . S
H332 C340 0.930 . S
H333 C343 0.930 . S
H334 C344 0.930 . S
C335 H329 0.930 . S
C335 C336 1.355 . S
C335 C337 1.415 . S
C336 C335 1.355 . S
C336 C338 1.419 . S
C337 C335 1.415 . S
C337 C342 1.425 . S
C337 C344 1.409 . S
C338 H330 0.930 1_556 S
C338 C336 1.419 . S
C338 C339 1.362 . S
C339 H331 0.930 . S
C339 C338 1.362 . S
C339 C342 1.409 . S
C340 H332 0.930 . S
C340 C341 1.355 . S
C340 C342 1.415 . S
C341 C340 1.355 . S
C341 C343 1.419 . S
C342 C337 1.425 . S
C342 C339 1.409 . S
C342 C340 1.415 . S
C343 H333 0.930 . S
C343 C341 1.419 . S
C343 C344 1.362 . S
C344 H334 0.930 . S
C344 C337 1.409 . S
C344 C343 1.362 . S
H345 C351 0.930 . S
H346 C354 0.930 . S
H347 C355 0.930 . S
H348 C356 0.930 . S
H349 C359 0.930 . S
H350 C360 0.930 . S
C351 H345 0.930 . S
C351 C352 1.355 1_556 S
C351 C353 1.415 . S
C352 C351 1.355 1_554 S
C352 C354 1.419 . S
C353 C351 1.415 . S
C353 C358 1.425 . S
C353 C360 1.409 . S
C354 H346 0.930 . S
C354 C352 1.419 . S
C354 C355 1.362 . S
C355 H347 0.930 . S
C355 C354 1.362 . S
C355 C358 1.409 1_554 S
C356 H348 0.930 . S
C356 C357 1.355 . S
C356 C358 1.415 . S
C357 C356 1.355 . S
C357 C359 1.419 . S
C358 C353 1.425 . S
C358 C355 1.409 1_556 S
C358 C356 1.415 . S
C359 H349 0.930 . S
C359 C357 1.419 . S
C359 C360 1.362 . S
C360 H350 0.930 . S
C360 C353 1.409 . S
C360 C359 1.362 . S
H361 C367 0.930 . S
H362 C370 0.930 . S
H363 C371 0.930 . S
H364 C372 0.930 . S
H365 C375 0.930 1_554 S
H366 C376 0.930 . S
C367 H361 0.930 . S
C367 C368 1.355 . S
C367 C369 1.415 . S
C368 C367 1.355 . S
C368 C370 1.419 1_554 S
C369 C367 1.415 . S
C369 C374 1.425 1_554 S
C369 C376 1.409 . S
C370 H362 0.930 . S
C370 C368 1.419 1_556 S
C370 C371 1.362 . S
C371 H363 0.930 . S
C371 C370 1.362 . S
C371 C374 1.409 . S
C372 H364 0.930 . S
C372 C373 1.355 . S
C372 C374 1.415 . S
C373 C372 1.355 . S
C373 C375 1.419 . S
C374 C369 1.425 1_556 S
C374 C371 1.409 . S
C374 C372 1.415 . S
C375 H365 0.930 1_556 S
C375 C373 1.419 . S
C375 C376 1.362 1_556 S
C376 H366 0.930 . S
C376 C369 1.409 . S
C376 C375 1.362 1_554 S
H377 C383 0.930 . S
H378 C386 0.930 . S
H379 C387 0.924 1_554 S
H380 C388 0.930 . S
H381 C391 0.930 . S
H382 C392 0.930 . S
C383 H377 0.930 . S
C383 C384 1.355 . S
C383 C385 1.415 . S
C384 C383 1.355 . S
C384 C386 1.419 1_556 S
C385 C383 1.415 . S
C385 C390 1.425 . S
C385 C392 1.409 . S
C386 H378 0.930 . S
C386 C384 1.419 1_554 S
C386 C387 1.357 1_554 S
C387 H379 0.924 1_556 S
C387 C386 1.357 1_556 S
C387 C390 1.420 . S
C388 H380 0.930 . S
C388 C389 1.355 . S
C388 C390 1.415 . S
C389 C388 1.355 . S
C389 C391 1.419 . S
C390 C385 1.425 . S
C390 C387 1.420 . S
C390 C388 1.415 . S
C391 H381 0.930 . S
C391 C389 1.419 . S
C391 C392 1.362 . S
C392 H382 0.930 . S
C392 C385 1.409 . S
C392 C391 1.362 . S
H393 C399 0.930 . S
H394 C402 0.930 . S
H395 C403 0.930 . S
H396 C404 0.930 . S
H397 C407 0.930 . S
H398 C408 0.930 . S
C399 H393 0.930 . S
C399 C400 1.355 . S
C399 C401 1.415 . S
C400 C399 1.355 . S
C400 C402 1.419 . S
C401 C399 1.415 . S
C401 C406 1.425 . S
C401 C408 1.409 . S
C402 H394 0.930 . S
C402 C400 1.419 . S
C402 C403 1.362 . S
C403 H395 0.930 . S
C403 C402 1.362 . S
C403 C406 1.409 . S
C404 H396 0.930 . S
C404 C405 1.355 . S
C404 C406 1.415 . S
C405 C404 1.355 . S
C405 C407 1.419 . S
C406 C401 1.425 . S
C406 C403 1.409 . S
C406 C404 1.415 . S
C407 H397 0.930 . S
C407 C405 1.419 . S
C407 C408 1.362 . S
C408 H398 0.930 . S
C408 C401 1.409 . S
C408 C407 1.362 . S
H409 C415 0.930 . S
H410 C418 0.930 . S
H411 C419 0.930 . S
H412 C420 0.930 . S
H413 C423 0.930 . S
H414 C424 0.930 . S
C415 H409 0.930 . S
C415 C416 1.355 . S
C415 C417 1.415 . S
C416 C415 1.355 . S
C416 C418 1.419 1_556 S
C417 C415 1.415 . S
C417 C422 1.425 . S
C417 C424 1.409 . S
C418 H410 0.930 . S
C418 C416 1.419 1_554 S
C418 C419 1.362 1_554 S
C419 H411 0.930 . S
C419 C418 1.362 1_556 S
C419 C422 1.409 . S
C420 H412 0.930 . S
C420 C421 1.355 . S
C420 C422 1.415 . S
C421 C420 1.355 . S
C421 C423 1.419 . S
C422 C417 1.425 . S
C422 C419 1.409 . S
C422 C420 1.415 . S
C423 H413 0.930 . S
C423 C421 1.419 . S
C423 C424 1.362 . S
C424 H414 0.930 . S
C424 C417 1.409 . S
C424 C423 1.362 . S
H425 C431 0.930 . S
H426 C434 0.930 . S
H427 C435 0.930 . S
H428 C436 0.930 . S
H429 C439 0.930 . S
H430 C440 0.930 1_554 S
C431 H425 0.930 . S
C431 C432 1.355 . S
C431 C433 1.415 1_554 S
C432 C431 1.355 . S
C432 C434 1.419 1_554 S
C433 C431 1.415 1_556 S
C433 C438 1.425 . S
C433 C440 1.409 . S
C434 H426 0.930 . S
C434 C432 1.419 1_556 S
C434 C435 1.362 . S
C435 H427 0.930 . S
C435 C434 1.362 . S
C435 C438 1.409 . S
C436 H428 0.930 . S
C436 C437 1.355 . S
C436 C438 1.415 . S
C437 C436 1.355 . S
C437 C439 1.419 . S
C438 C433 1.425 . S
C438 C435 1.409 . S
C438 C436 1.415 . S
C439 H429 0.930 . S
C439 C437 1.419 . S
C439 C440 1.362 . S
C440 H430 0.930 1_556 S
C440 C433 1.409 . S
C440 C439 1.362 . S
H441 C447 0.930 . S
H442 C450 0.930 . S
H443 C451 0.930 . S
H444 C452 0.930 . S
H445 C455 0.930 . S
H446 C456 0.930 . S
C447 H441 0.930 . S
C447 C448 1.355 1_556 S
C447 C449 1.415 . S
C448 C447 1.355 1_554 S
C448 C450 1.419 . S
C449 C447 1.415 . S
C449 C454 1.425 . S
C449 C456 1.409 . S
C450 H442 0.930 . S
C450 C448 1.419 . S
C450 C451 1.362 . S
C451 H443 0.930 . S
C451 C450 1.362 . S
C451 C454 1.409 1_554 S
C452 H444 0.930 . S
C452 C453 1.355 . S
C452 C454 1.415 . S
C453 C452 1.355 . S
C453 C455 1.419 . S
C454 C449 1.425 . S
C454 C451 1.409 1_556 S
C454 C452 1.415 . S
C455 H445 0.930 . S
C455 C453 1.419 . S
C455 C456 1.362 . S
C456 H446 0.930 . S
C456 C449 1.409 . S
C456 C455 1.362 . S
H457 C463 0.930 . S
H458 C466 0.930 1_554 S
H459 C467 0.930 . S
H460 C468 0.930 . S
H461 C471 0.930 . S
H462 C472 0.930 . S
C463 H457 0.930 . S
C463 C464 1.355 . S
C463 C465 1.415 . S
C464 C463 1.355 . S
C464 C466 1.419 . S
C465 C463 1.415 . S
C465 C470 1.425 . S
C465 C472 1.409 . S
C466 H458 0.930 1_556 S
C466 C464 1.419 . S
C466 C467 1.362 . S
C467 H459 0.930 . S
C467 C466 1.362 . S
C467 C470 1.409 . S
C468 H460 0.930 . S
C468 C469 1.355 . S
C468 C470 1.415 . S
C469 C468 1.355 . S
C469 C471 1.419 . S
C470 C465 1.425 . S
C470 C467 1.409 . S
C470 C468 1.415 . S
C471 H461 0.930 . S
C471 C469 1.419 . S
C471 C472 1.362 . S
C472 H462 0.930 . S
C472 C465 1.409 . S
C472 C471 1.362 . S
H473 C479 0.930 . S
H474 C482 0.930 . S
H475 C483 0.930 . S
H476 C484 0.930 . S
H477 C487 0.930 . S
H478 C488 0.930 . S
C479 H473 0.930 . S
C479 C480 1.355 . S
C479 C481 1.415 . S
C480 C479 1.355 . S
C480 C482 1.419 . S
C481 C479 1.415 . S
C481 C486 1.425 . S
C481 C488 1.409 . S
C482 H474 0.930 . S
C482 C480 1.419 . S
C482 C483 1.362 . S
C483 H475 0.930 . S
C483 C482 1.362 . S
C483 C486 1.409 . S
C484 H476 0.930 . S
C484 C485 1.355 . S
C484 C486 1.415 . S
C485 C484 1.355 . S
C485 C487 1.419 . S
C486 C481 1.425 . S
C486 C483 1.409 . S
C486 C484 1.415 . S
C487 H477 0.930 . S
C487 C485 1.419 . S
C487 C488 1.362 . S
C488 H478 0.930 . S
C488 C481 1.409 . S
C488 C487 1.362 . S
H489 C495 0.930 . S
H490 C498 0.930 . S
H491 C499 0.930 . S
H492 C500 0.930 . S
H493 C503 0.930 . S
H494 C504 0.930 . S
C495 H489 0.930 . S
C495 C496 1.355 . S
C495 C497 1.415 . S
C496 C495 1.355 . S
C496 C498 1.419 . S
C497 C495 1.415 . S
C497 C502 1.425 . S
C497 C504 1.409 . S
C498 H490 0.930 . S
C498 C496 1.419 . S
C498 C499 1.362 . S
C499 H491 0.930 . S
C499 C498 1.362 . S
C499 C502 1.409 . S
C500 H492 0.930 . S
C500 C501 1.355 . S
C500 C502 1.415 . S
C501 C500 1.355 . S
C501 C503 1.419 . S
C502 C497 1.425 . S
C502 C499 1.409 . S
C502 C500 1.415 . S
C503 H493 0.930 . S
C503 C501 1.419 . S
C503 C504 1.362 . S
C504 H494 0.930 . S
C504 C497 1.409 . S
C504 C503 1.362 . S
H505 C511 0.930 . S
H506 C514 0.930 . S
H507 C515 0.930 . S
H508 C516 0.930 . S
H509 C519 0.930 . S
H510 C520 0.930 . S
C511 H505 0.930 . S
C511 C512 1.355 . S
C511 C513 1.415 . S
C512 C511 1.355 . S
C512 C514 1.419 . S
C513 C511 1.415 . S
C513 C518 1.425 . S
C513 C520 1.409 . S
C514 H506 0.930 . S
C514 C512 1.419 . S
C514 C515 1.362 . S
C515 H507 0.930 . S
C515 C514 1.362 . S
C515 C518 1.409 . S
C516 H508 0.930 . S
C516 C517 1.355 . S
C516 C518 1.415 . S
C517 C516 1.355 . S
C517 C519 1.419 . S
C518 C513 1.425 . S
C518 C515 1.409 . S
C518 C516 1.415 . S
C519 H509 0.930 . S
C519 C517 1.419 . S
C519 C520 1.362 . S
C520 H510 0.930 . S
C520 C513 1.409 . S
C520 C519 1.362 . S
H521 C527 0.930 . S
H522 C530 0.930 . S
H523 C531 0.930 . S
H524 C532 0.930 . S
H525 C535 0.930 . S
H526 C536 0.930 . S
C527 H521 0.930 . S
C527 C528 1.355 . S
C527 C529 1.415 . S
C528 C527 1.355 . S
C528 C530 1.419 . S
C529 C527 1.415 . S
C529 C534 1.425 . S
C529 C536 1.409 . S
C530 H522 0.930 . S
C530 C528 1.419 . S
C530 C531 1.362 . S
C531 H523 0.930 . S
C531 C530 1.362 . S
C531 C534 1.409 . S
C532 H524 0.930 . S
C532 C533 1.355 . S
C532 C534 1.415 . S
C533 C532 1.355 . S
C533 C535 1.419 . S
C534 C529 1.425 . S
C534 C531 1.409 . S
C534 C532 1.415 . S
C535 H525 0.930 . S
C535 C533 1.419 . S
C535 C536 1.362 . S
C536 H526 0.930 . S
C536 C529 1.409 . S
C536 C535 1.362 . S
H537 C543 0.930 . S
H538 C546 0.930 . S
H539 C547 0.930 . S
H540 C548 0.930 . S
H541 C551 0.930 . S
H542 C552 0.930 . S
C543 H537 0.930 . S
C543 C544 1.355 . S
C543 C545 1.415 . S
C544 C543 1.355 . S
C544 C546 1.419 . S
C545 C543 1.415 . S
C545 C550 1.425 . S
C545 C552 1.409 . S
C546 H538 0.930 . S
C546 C544 1.419 . S
C546 C547 1.362 . S
C547 H539 0.930 . S
C547 C546 1.362 . S
C547 C550 1.409 . S
C548 H540 0.930 . S
C548 C549 1.355 . S
C548 C550 1.415 . S
C549 C548 1.355 . S
C549 C551 1.419 . S
C550 C545 1.425 . S
C550 C547 1.409 . S
C550 C548 1.415 . S
C551 H541 0.930 . S
C551 C549 1.419 . S
C551 C552 1.362 . S
C552 H542 0.930 . S
C552 C545 1.409 . S
C552 C551 1.362 . S
H553 C559 0.930 . S
H554 C562 0.930 . S
H555 C563 0.930 . S
H556 C564 0.930 . S
H557 C567 0.930 . S
H558 C568 0.930 . S
C559 H553 0.930 . S
C559 C560 1.355 . S
C559 C561 1.415 . S
C560 C559 1.355 . S
C560 C562 1.419 . S
C561 C559 1.415 . S
C561 C566 1.425 . S
C561 C568 1.409 . S
C562 H554 0.930 . S
C562 C560 1.419 . S
C562 C563 1.362 . S
C563 H555 0.930 . S
C563 C562 1.362 . S
C563 C566 1.409 . S
C564 H556 0.930 . S
C564 C565 1.355 . S
C564 C566 1.415 . S
C565 C564 1.355 . S
C565 C567 1.419 . S
C566 C561 1.425 . S
C566 C563 1.409 . S
C566 C564 1.415 . S
C567 H557 0.930 . S
C567 C565 1.419 . S
C567 C568 1.362 . S
C568 H558 0.930 . S
C568 C561 1.409 . S
C568 C567 1.362 . S
H569 C575 0.930 . S
H570 C578 0.930 . S
H571 C579 0.930 . S
H572 C580 0.930 . S
H573 C583 0.930 . S
H574 C584 0.930 . S
C575 H569 0.930 . S
C575 C576 1.355 . S
C575 C577 1.415 . S
C576 C575 1.355 . S
C576 C578 1.419 . S
C577 C575 1.415 . S
C577 C582 1.425 . S
C577 C584 1.409 . S
C578 H570 0.930 . S
C578 C576 1.419 . S
C578 C579 1.362 . S
C579 H571 0.930 . S
C579 C578 1.362 . S
C579 C582 1.409 . S
C580 H572 0.930 . S
C580 C581 1.355 . S
C580 C582 1.415 . S
C581 C580 1.355 . S
C581 C583 1.419 . S
C582 C577 1.425 . S
C582 C579 1.409 . S
C582 C580 1.415 . S
C583 H573 0.930 . S
C583 C581 1.419 . S
C583 C584 1.362 . S
C584 H574 0.930 . S
C584 C577 1.409 . S
C584 C583 1.362 . S
C208 C16 1.745 . S
C213 C108 1.783 . S
C224 C26 1.536 . S
C229 C140 1.537 . S
C245 C199 1.853 . S
C240 C52 1.861 . S
C261 C128 1.395 . S
C256 C62 1.383 . S
C272 C80 1.649 . S
C277 C158 1.588 . S
C293 C180 1.362 . S
C288 C98 1.243 . S
C309 C149 1.739 . S
C304 C43 1.680 . S
C320 C68 1.319 . S
C325 C189 1.337 . S
C341 C138 1.668 . S
C336 C86 1.640 1_556 S
C352 C104 1.503 . S
C357 C168 1.524 . S
C368 C7 1.781 . S
C373 C171 1.755 . S
C389 C110 1.632 . S
C384 C32 1.563 1_556 S
C405 C118 1.682 . S
C400 C61 1.691 . S
C421 C159 1.512 . S
C416 C79 1.446 1_556 S
C437 C172 1.835 . S
C432 C97 1.859 . S
C453 C109 1.437 . S
C448 C14 1.395 . S
C469 C169 1.530 . S
C464 C25 1.563 1_556 S
C480 C50 1.284 . S
C485 C170 1.264 . S
C501 C139 1.638 . S
C496 C106 1.674 . S
C517 C200 1.301 . S
C512 C8 1.243 . S
C533 C127 1.566 . S
C528 C34 1.620 . S
C549 C141 1.480 . S
C544 C44 1.522 . S
C560 C70 1.776 . S
C565 C190 1.708 . S
C576 C88 1.549 . S
C581 C137 1.569 . S
