# Generated by pormake.
# Topology hwx, (6,3)-cn, num edge types: 1
# Building blocks:
#     Node 0, Type 0, BuildingBlock: OJICUG_clean_sbu_0, # of connection points: 6
#     Node 1, Type 0, BuildingBlock: OJICUG_clean_sbu_0, # of connection points: 6
#     Node 2, Type 0, BuildingBlock: OJICUG_clean_sbu_0, # of connection points: 6
#     Node 3, Type 0, BuildingBlock: OJICUG_clean_sbu_0, # of connection points: 6
#     Node 4, Type 1, BuildingBlock: INOVEN_clean_linker_0, # of connection points: 3
#     Node 5, Type 1, BuildingBlock: INOVEN_clean_linker_0, # of connection points: 3
#     Node 6, Type 1, BuildingBlock: INOVEN_clean_linker_0, # of connection points: 3
#     Node 7, Type 1, BuildingBlock: INOVEN_clean_linker_0, # of connection points: 3
#     Node 8, Type 1, BuildingBlock: INOVEN_clean_linker_0, # of connection points: 3
#     Node 9, Type 1, BuildingBlock: INOVEN_clean_linker_0, # of connection points: 3
#     Node 10, Type 1, BuildingBlock: INOVEN_clean_linker_0, # of connection points: 3
#     Node 11, Type 1, BuildingBlock: INOVEN_clean_linker_0, # of connection points: 3
#     Edge 12, Type (0, 1), BuildingBlock: KIFKEQ_clean_linker_1, # of connection points: 2
#     Edge 13, Type (0, 1), BuildingBlock: KIFKEQ_clean_linker_1, # of connection points: 2
#     Edge 14, Type (0, 1), BuildingBlock: KIFKEQ_clean_linker_1, # of connection points: 2
#     Edge 15, Type (0, 1), BuildingBlock: KIFKEQ_clean_linker_1, # of connection points: 2
#     Edge 16, Type (0, 1), BuildingBlock: KIFKEQ_clean_linker_1, # of connection points: 2
#     Edge 17, Type (0, 1), BuildingBlock: KIFKEQ_clean_linker_1, # of connection points: 2
#     Edge 18, Type (0, 1), BuildingBlock: KIFKEQ_clean_linker_1, # of connection points: 2
#     Edge 19, Type (0, 1), BuildingBlock: KIFKEQ_clean_linker_1, # of connection points: 2
#     Edge 20, Type (0, 1), BuildingBlock: KIFKEQ_clean_linker_1, # of connection points: 2
#     Edge 21, Type (0, 1), BuildingBlock: KIFKEQ_clean_linker_1, # of connection points: 2
#     Edge 22, Type (0, 1), BuildingBlock: KIFKEQ_clean_linker_1, # of connection points: 2
#     Edge 23, Type (0, 1), BuildingBlock: KIFKEQ_clean_linker_1, # of connection points: 2
#     Edge 24, Type (0, 1), BuildingBlock: KIFKEQ_clean_linker_1, # of connection points: 2
#     Edge 25, Type (0, 1), BuildingBlock: KIFKEQ_clean_linker_1, # of connection points: 2
#     Edge 26, Type (0, 1), BuildingBlock: KIFKEQ_clean_linker_1, # of connection points: 2
#     Edge 27, Type (0, 1), BuildingBlock: KIFKEQ_clean_linker_1, # of connection points: 2
#     Edge 28, Type (0, 1), BuildingBlock: KIFKEQ_clean_linker_1, # of connection points: 2
#     Edge 29, Type (0, 1), BuildingBlock: KIFKEQ_clean_linker_1, # of connection points: 2
#     Edge 30, Type (0, 1), BuildingBlock: KIFKEQ_clean_linker_1, # of connection points: 2
#     Edge 31, Type (0, 1), BuildingBlock: KIFKEQ_clean_linker_1, # of connection points: 2
#     Edge 32, Type (0, 1), BuildingBlock: KIFKEQ_clean_linker_1, # of connection points: 2
#     Edge 33, Type (0, 1), BuildingBlock: KIFKEQ_clean_linker_1, # of connection points: 2
#     Edge 34, Type (0, 1), BuildingBlock: KIFKEQ_clean_linker_1, # of connection points: 2
#     Edge 35, Type (0, 1), BuildingBlock: KIFKEQ_clean_linker_1, # of connection points: 2
# Relax obj value: 0.009
# Max RMSD: 0.044
# Mean RMSD: 0.042
data_MOF--net-hwx--node1-OJICUG_clean_sbu_0--node2-INOVEN_clean_linker_0--edge1-KIFKEQ_clean_linker_1
_symmetry_space_group_name_H-M    P1
_symmetry_Int_Tables_number       1
_symmetry_cell_setting            triclinic
loop_
_symmetry_equiv_pos_as_xyz
'x, y, z'
_cell_length_a     53.632495
_cell_length_b     53.702635
_cell_length_c     20.734478
_cell_angle_alpha  92.030098
_cell_angle_beta   92.077168
_cell_angle_gamma 89.985005
loop_
_atom_site_label
_atom_site_type_symbol
_atom_site_fract_x
_atom_site_fract_y
_atom_site_fract_z
_atom_type_partial_charge
Sc0 Sc 0.22416 0.21955 0.07894 0.0
Sc1 Sc 0.18139 0.18222 0.98562 0.0
Sc2 Sc 0.22424 0.22034 0.90945 0.0
O3 O 0.20991 0.20736 0.99128 0.0
C4 C 0.22394 0.26943 0.00142 0.0
C5 C 0.16583 0.21712 0.10509 0.0
C6 C 0.16576 0.21987 0.87502 0.0
C7 C 0.21667 0.16152 0.09915 0.0
C8 C 0.27349 0.21361 -0.00289 0.0
C9 C 0.21436 0.16313 0.86919 0.0
O10 O 0.22237 0.25794 0.05363 0.0
O11 O 0.16048 0.20208 0.05792 0.0
O12 O 0.18775 0.22806 0.86849 0.0
O13 O 0.22729 0.18231 0.11253 0.0
O14 O 0.26219 0.21373 0.94215 0.0
O15 O 0.19874 0.15938 0.91243 0.0
O16 O 0.26225 0.21637 0.04985 0.0
O17 O 0.19936 0.15875 0.05585 0.0
O18 O 0.22454 0.18415 0.86201 0.0
O19 O 0.18797 0.22441 0.11898 0.0
O20 O 0.22565 0.25831 0.94661 0.0
O21 O 0.16068 0.2031 0.91443 0.0
Sc22 Sc 0.27427 0.72154 0.43051 0.0
Sc23 Sc 0.31689 0.68349 0.51528 0.0
Sc24 Sc 0.27439 0.72126 0.6002 0.0
O25 O 0.28853 0.70877 0.51534 0.0
C26 C 0.27509 0.77095 0.52024 0.0
C27 C 0.33256 0.71943 0.40421 0.0
C28 C 0.33292 0.71979 0.6348 0.0
C29 C 0.28198 0.6637 0.39654 0.0
C30 C 0.22497 0.71547 0.51043 0.0
C31 C 0.28298 0.66362 0.62592 0.0
O32 O 0.275 0.75968 0.4653 0.0
O33 O 0.33766 0.70349 0.44658 0.0
O34 O 0.31087 0.72741 0.64437 0.0
O35 O 0.27188 0.68472 0.38701 0.0
O36 O 0.23627 0.7164 0.56543 0.0
O37 O 0.2995 0.66049 0.58396 0.0
O38 O 0.23621 0.71728 0.45788 0.0
O39 O 0.29863 0.66036 0.44061 0.0
O40 O 0.27247 0.68446 0.637 0.0
O41 O 0.31058 0.72743 0.39302 0.0
O42 O 0.2748 0.7596 0.57297 0.0
O43 O 0.33804 0.70396 0.59015 0.0
Sc44 Sc 0.77577 0.77315 0.93402 0.0
Sc45 Sc 0.81078 0.81809 0.0265 0.0
Sc46 Sc 0.77636 0.77267 0.104 0.0
O47 O 0.78764 0.78794 0.02151 0.0
C48 C 0.72636 0.77184 0.01532 0.0
C49 C 0.77391 0.83173 0.90929 0.0
C50 C 0.77492 0.831 0.14202 0.0
C51 C 0.83291 0.7851 0.91063 0.0
C52 C 0.78327 0.72375 0.01391 0.0
C53 C 0.83381 0.78419 0.1376 0.0
O54 O 0.73752 0.77204 0.96218 0.0
O55 O 0.78891 0.83786 0.95595 0.0
O56 O 0.769 0.80844 0.15022 0.0
O57 O 0.81301 0.77267 0.89819 0.0
O58 O 0.78199 0.73484 0.06886 0.0
O59 O 0.8352 0.80167 0.09806 0.0
O60 O 0.7815 0.7352 0.96136 0.0
O61 O 0.83454 0.80235 0.95418 0.0
O62 O 0.81389 0.77188 0.14483 0.0
O63 O 0.76806 0.8092 0.89507 0.0
O64 O 0.73784 0.77207 0.07017 0.0
O65 O 0.78964 0.83735 0.09889 0.0
Sc66 Sc 0.72365 0.27269 0.59154 0.0
Sc67 Sc 0.68651 0.31585 0.50733 0.0
Sc68 Sc 0.72207 0.27139 0.42146 0.0
O69 O 0.71075 0.28663 0.50674 0.0
C70 C 0.77259 0.27248 0.50872 0.0
C71 C 0.72322 0.33138 0.6258 0.0
C72 C 0.72168 0.32962 0.39303 0.0
C73 C 0.66628 0.28222 0.61866 0.0
C74 C 0.71704 0.22271 0.50376 0.0
C75 C 0.66411 0.28109 0.39107 0.0
O76 O 0.76176 0.2737 0.56236 0.0
O77 O 0.70815 0.33686 0.57982 0.0
O78 O 0.7288 0.30734 0.38184 0.0
O79 O 0.68658 0.27037 0.62783 0.0
O80 O 0.71684 0.23363 0.45038 0.0
O81 O 0.66211 0.2982 0.43456 0.0
O82 O 0.7197 0.23438 0.55797 0.0
O83 O 0.66391 0.29956 0.57865 0.0
O84 O 0.68456 0.2699 0.38053 0.0
O85 O 0.72968 0.3091 0.63666 0.0
O86 O 0.76075 0.27105 0.45435 0.0
O87 O 0.70643 0.33544 0.43652 0.0
H88 H 0.24242 0.49969 0.89128 0.0
H89 H 0.24693 0.56691 0.01079 0.0
H90 H 0.23453 0.49697 0.09722 0.0
N91 N 0.23444 0.46913 0.98542 0.0
N92 N 0.23433 0.45564 0.03313 0.0
C93 C 0.24147 0.50919 0.93813 0.0
C94 C 0.24554 0.53501 0.94436 0.0
C95 C 0.23743 0.49531 0.9929 0.0
C96 C 0.23718 0.50745 0.05427 0.0
C97 C 0.24032 0.53326 0.06027 0.0
C98 C 0.24421 0.54691 0.00542 0.0
H99 H 0.99791 0.73889 0.64059 0.0
H100 H 0.93413 0.76383 0.52924 0.0
H101 H 0.99883 0.73703 0.43249 0.0
N102 N 0.02672 0.72949 0.5424 0.0
N103 N 0.03875 0.72307 0.49423 0.0
C104 C 0.98866 0.74198 0.59421 0.0
C105 C 0.96446 0.75183 0.59148 0.0
C106 C 0.00134 0.73684 0.53726 0.0
C107 C 0.98927 0.74085 0.47691 0.0
C108 C 0.96513 0.75088 0.47413 0.0
C109 C 0.95295 0.75641 0.53145 0.0
H110 H 0.77377 0.49329 0.13413 0.0
H111 H 0.77295 0.42487 0.02 0.0
H112 H 0.77708 0.4948 0.92679 0.0
N113 N 0.77791 0.52359 0.03745 0.0
N114 N 0.78355 0.53651 0.99128 0.0
C115 C 0.77447 0.48354 0.08756 0.0
C116 C 0.77367 0.4574 0.08374 0.0
C117 C 0.77645 0.49719 0.03145 0.0
C118 C 0.77649 0.48449 0.97069 0.0
C119 C 0.77539 0.45837 0.96658 0.0
C120 C 0.77449 0.44503 0.02326 0.0
H121 H 0.0023 0.26925 0.37465 0.0
H122 H 0.07165 0.26851 0.48538 0.0
H123 H 0.00236 0.26891 0.58256 0.0
N124 N 0.9727 0.27044 0.47369 0.0
N125 N 0.95986 0.268 0.52203 0.0
C126 C 0.01241 0.26951 0.4209 0.0
C127 C 0.03859 0.26919 0.4233 0.0
C128 C -0.00083 0.26982 0.47802 0.0
C129 C 0.01233 0.26925 0.53807 0.0
C130 C 0.03848 0.26918 0.54079 0.0
C131 C 0.05144 0.26953 0.48339 0.0
H132 H 0.71645 0.99364 0.63868 0.0
H133 H 0.72017 0.92395 0.53095 0.0
H134 H 0.71862 0.9926 0.43089 0.0
N135 N 0.71537 0.02272 0.5386 0.0
N136 N 0.71768 0.03548 0.49003 0.0
C137 C 0.71685 0.98333 0.59283 0.0
C138 C 0.7179 0.9572 0.59147 0.0
C139 C 0.71668 0.99628 0.53518 0.0
C140 C 0.71815 0.98285 0.47569 0.0
C141 C 0.71901 0.95671 0.47403 0.0
C142 C 0.7185 0.9441 0.53195 0.0
H143 H 0.50231 0.23172 0.87863 0.0
H144 H 0.56566 0.25575 -0.00233 0.0
H145 H 0.49987 0.22972 0.0862 0.0
N146 N 0.47258 0.22278 0.97365 0.0
N147 N 0.46001 0.21675 0.02011 0.0
C148 C 0.5113 0.23453 0.92599 0.0
C149 C 0.53564 0.24407 0.93174 0.0
C150 C 0.49812 0.22953 0.98133 0.0
C151 C 0.50983 0.23334 0.04296 0.0
C152 C 0.53412 0.24302 0.04872 0.0
C153 C 0.5468 0.24841 0.99312 0.0
H154 H 0.26755 0.99462 0.37052 0.0
H155 H 0.24951 0.06533 0.45932 0.0
H156 H 0.25579 0.00051 0.57504 0.0
N157 N 0.26757 0.96876 0.47608 0.0
N158 N 0.26451 0.957 0.52597 0.0
C159 C 0.26356 0.00583 0.41343 0.0
C160 C 0.25862 0.03125 0.40863 0.0
C161 C 0.26292 0.99468 0.47343 0.0
C162 C 0.25693 0.00915 0.52884 0.0
C163 C 0.25173 0.03468 0.5241 0.0
C164 C 0.25313 0.04558 0.46385 0.0
H165 H 0.49656 0.76692 0.14231 0.0
H166 H 0.42731 0.76926 0.03156 0.0
H167 H 0.49674 0.76931 0.9348 0.0
N168 N 0.52625 0.76876 0.04394 0.0
N169 N 0.53911 0.77272 0.99644 0.0
C170 C 0.4865 0.76804 0.09621 0.0
C171 C 0.46034 0.76859 0.0937 0.0
C172 C 0.49979 0.76899 0.03937 0.0
C173 C 0.48671 0.7695 0.97925 0.0
C174 C 0.46055 0.76977 0.97637 0.0
C175 C 0.44755 0.76985 0.03378 0.0
H176 H 0.11527 0.21428 0.0798 0.0
H177 H 0.17034 0.24192 0.22207 0.0
H178 H 0.08207 0.23042 0.14701 0.0
H179 H 0.13736 0.25718 0.28983 0.0
H180 H 0.077 0.29779 0.38605 0.0
H181 H 0.10599 0.28777 0.30093 0.0
H182 H 0.06256 0.2221 0.24558 0.0
H183 H 0.03311 0.23287 0.32913 0.0
C184 C 0.1203 0.22369 0.1255 0.0
C185 C 0.14549 0.22675 0.14557 0.0
C186 C 0.10126 0.23291 0.16408 0.0
C187 C 0.10697 0.24525 0.22376 0.0
C188 C 0.13219 0.24833 0.24354 0.0
C189 C 0.15117 0.23933 0.20485 0.0
C190 C 0.0734 0.28158 0.35445 0.0
C191 C 0.05296 0.26603 0.36407 0.0
C192 C 0.0901 0.27567 0.30617 0.0
C193 C 0.08695 0.25381 0.26723 0.0
C194 C 0.06553 0.23914 0.2743 0.0
C195 C 0.04863 0.24528 0.32213 0.0
H196 H 0.2939 0.61406 0.60474 0.0
H197 H 0.25643 0.66491 0.73569 0.0
H198 H 0.28447 0.57947 0.67426 0.0
H199 H 0.24747 0.6304 0.80455 0.0
H200 H 0.28262 0.56926 0.94185 0.0
H201 H 0.29057 0.59819 0.85699 0.0
H202 H 0.23287 0.56308 0.7354 0.0
H203 H 0.2242 0.53421 0.82158 0.0
C204 C 0.28354 0.61785 0.64788 0.0
C205 C 0.2761 0.6423 0.66496 0.0
C206 C 0.27804 0.59805 0.68714 0.0
C207 C 0.26524 0.60251 0.7441 0.0
C208 C 0.25727 0.62668 0.76042 0.0
C209 C 0.26248 0.64637 0.72104 0.0
C210 C 0.27163 0.56759 0.897 0.0
C211 C 0.25242 0.54983 0.88876 0.0
C212 C 0.27634 0.58401 0.8485 0.0
C213 C 0.26221 0.58276 0.79043 0.0
C214 C 0.24398 0.56417 0.78009 0.0
C215 C 0.23909 0.54773 0.82914 0.0
H216 H 0.84139 0.74379 0.21284 0.0
H217 H 0.87742 0.81066 0.15227 0.0
H218 H 0.8775 0.7351 0.28319 0.0
H219 H 0.91354 0.80179 0.22259 0.0
H220 H 0.95254 0.71754 0.37621 0.0
H221 H 0.92356 0.72461 0.28422 0.0
H222 H 0.91867 0.80237 0.3433 0.0
H223 H 0.94741 0.7952 0.43469 0.0
C224 C 0.85705 0.75654 0.21409 0.0
C225 C 0.85634 0.77809 0.17745 0.0
C226 C 0.87786 0.7514 0.25389 0.0
C227 C 0.89832 0.76777 0.25829 0.0
C228 C 0.89795 0.78893 0.22034 0.0
C229 C 0.87725 0.79397 0.18009 0.0
C230 C 0.94573 0.73622 0.36817 0.0
C231 C 0.95204 0.75585 0.41214 0.0
C232 C 0.92905 0.74023 0.31609 0.0
C233 C 0.91877 0.764 0.30694 0.0
C234 C 0.92644 0.78391 0.34877 0.0
C235 C 0.9428 0.77983 0.4011 0.0
H236 H 0.721 0.3818 0.60847 0.0
H237 H 0.74903 0.32713 0.74087 0.0
H238 H 0.73752 0.41511 0.68084 0.0
H239 H 0.76469 0.36025 0.81382 0.0
H240 H 0.73953 0.46408 0.87225 0.0
H241 H 0.72915 0.43471 0.78274 0.0
H242 H 0.79509 0.39184 0.8308 0.0
H243 H 0.80468 0.42073 0.9218 0.0
C244 C 0.73063 0.37687 0.65304 0.0
C245 C 0.7336 0.35175 0.66891 0.0
C246 C 0.74006 0.39599 0.6946 0.0
C247 C 0.75255 0.39045 0.75318 0.0
C248 C 0.7557 0.3653 0.76855 0.0
C249 C 0.74648 0.34623 0.72686 0.0
C250 C 0.75211 0.44874 0.86232 0.0
C251 C 0.7728 0.44451 0.90384 0.0
C252 C 0.74619 0.43187 0.8111 0.0
C253 C 0.76102 0.41058 0.8002 0.0
C254 C 0.78287 0.40761 0.83882 0.0
C255 C 0.78856 0.42428 0.89045 0.0
H256 H 0.65827 0.24089 0.30698 0.0
H257 H 0.6191 0.30517 0.3836 0.0
H258 H 0.62238 0.23072 0.23554 0.0
H259 H 0.58317 0.29481 0.31213 0.0
H260 H 0.54849 0.20967 0.13875 0.0
H261 H 0.57711 0.21765 0.23241 0.0
H262 H 0.5774 0.29602 0.19192 0.0
H263 H 0.54904 0.28791 0.09882 0.0
C264 C 0.64196 0.25275 0.30902 0.0
C265 C 0.64172 0.27404 0.35051 0.0
C266 C 0.62128 0.24674 0.26855 0.0
C267 C 0.59998 0.26197 0.26832 0.0
C268 C 0.59941 0.28282 0.31109 0.0
C269 C 0.62001 0.28873 0.35199 0.0
C270 C 0.55419 0.22863 0.15134 0.0
C271 C 0.54669 0.24822 0.11214 0.0
C272 C 0.57066 0.23318 0.20435 0.0
C273 C 0.57958 0.25743 0.21915 0.0
C274 C 0.57069 0.27719 0.18213 0.0
C275 C 0.55452 0.27259 0.12886 0.0
H276 H 0.23243 0.16679 0.74912 0.0
H277 H 0.20971 0.11287 0.88557 0.0
H278 H 0.24043 0.13315 0.67068 0.0
H279 H 0.21828 0.07905 0.80652 0.0
H280 H 0.2711 0.03451 0.64885 0.0
H281 H 0.26141 0.06376 0.73819 0.0
H282 H 0.20642 0.09939 0.61576 0.0
H283 H 0.21515 0.06984 0.52773 0.0
C284 C 0.22939 0.14775 0.76265 0.0
C285 C 0.22032 0.14248 0.82341 0.0
C286 C 0.23389 0.12856 0.71767 0.0
C287 C 0.22985 0.10368 0.73284 0.0
C288 C 0.22153 0.09818 0.79409 0.0
C289 C 0.21654 0.11748 0.83893 0.0
C290 C 0.25655 0.04821 0.64155 0.0
C291 C 0.24425 0.05019 0.58083 0.0
C292 C 0.25109 0.06492 0.69251 0.0
C293 C 0.23345 0.08388 0.68309 0.0
C294 C 0.22034 0.08508 0.62362 0.0
C295 C 0.2255 0.06827 0.57325 0.0
H296 H 0.38304 0.71512 0.42753 0.0
H297 H 0.32835 0.74554 0.29382 0.0
H298 H 0.41646 0.7305 0.36277 0.0
H299 H 0.36152 0.76004 0.22823 0.0
H300 H 0.42315 0.79835 0.13766 0.0
H301 H 0.39413 0.78923 0.2217 0.0
H302 H 0.43491 0.72168 0.26178 0.0
H303 H 0.46442 0.73155 0.17952 0.0
C304 C 0.37813 0.72501 0.38425 0.0
C305 C 0.353 0.72902 0.36577 0.0
C306 C 0.3973 0.73379 0.34705 0.0
C307 C 0.39175 0.7466 0.2903 0.0
C308 C 0.36659 0.75076 0.27232 0.0
C309 C 0.34749 0.74222 0.30973 0.0
C310 C 0.42615 0.78189 0.16569 0.0
C311 C 0.44586 0.76558 0.1522 0.0
C312 C 0.40944 0.77651 0.21334 0.0
C313 C 0.41185 0.75444 0.24769 0.0
C314 C 0.43254 0.73892 0.23672 0.0
C315 C 0.44947 0.74452 0.18959 0.0
H316 H 0.77425 0.88215 0.93565 0.0
H317 H 0.74842 0.82644 0.79308 0.0
H318 H 0.7567 0.91481 0.86907 0.0
H319 H 0.73172 0.85899 0.7258 0.0
H320 H 0.68988 0.91832 0.62838 0.0
H321 H 0.70033 0.88956 0.71378 0.0
H322 H 0.76472 0.93465 0.77107 0.0
H323 H 0.75352 0.96381 0.68722 0.0
C324 C 0.76489 0.87685 0.89004 0.0
C325 C 0.76285 0.85164 0.86961 0.0
C326 C 0.75487 0.89561 0.8518 0.0
C327 C 0.74271 0.88961 0.79202 0.0
C328 C 0.74045 0.86436 0.7721 0.0
C329 C 0.75027 0.84563 0.81051 0.0
C330 C 0.70586 0.92235 0.66054 0.0
C331 C 0.72095 0.94317 0.65132 0.0
C332 C 0.71203 0.90577 0.70897 0.0
C333 C 0.7337 0.90945 0.7485 0.0
C334 C 0.74783 0.93125 0.74192 0.0
C335 C 0.74144 0.94801 0.69392 0.0
H336 H 0.84091 0.74426 0.8313 0.0
H337 H 0.87537 0.81299 0.90382 0.0
H338 H 0.87671 0.73599 0.76453 0.0
H339 H 0.91111 0.80459 0.8369 0.0
H340 H 0.95291 0.71973 0.68477 0.0
H341 H 0.92356 0.72716 0.77157 0.0
H342 H 0.91507 0.8035 0.71551 0.0
H343 H 0.94417 0.79598 0.62905 0.0
C344 C 0.85615 0.75753 0.83333 0.0
C345 C 0.85514 0.77942 0.87244 0.0
C346 C 0.87677 0.75265 0.79559 0.0
C347 C 0.89667 0.76965 0.79569 0.0
C348 C 0.89595 0.79123 0.83579 0.0
C349 C 0.87548 0.796 0.87408 0.0
C350 C 0.94518 0.73821 0.6923 0.0
C351 C 0.95062 0.7573 0.65052 0.0
C352 C 0.9283 0.7424 0.7414 0.0
C353 C 0.91698 0.76586 0.7499 0.0
C354 C 0.92366 0.7853 0.71039 0.0
C355 C 0.9402 0.78101 0.66087 0.0
H356 H 0.71893 0.38009 0.41623 0.0
H357 H 0.74679 0.32468 0.2808 0.0
H358 H 0.73465 0.41304 0.35079 0.0
H359 H 0.76168 0.35751 0.21437 0.0
H360 H 0.73677 0.46202 0.17018 0.0
H361 H 0.72591 0.43214 0.25071 0.0
H362 H 0.79186 0.38927 0.20715 0.0
H363 H 0.80198 0.4187 0.12502 0.0
C364 C 0.72832 0.37492 0.37236 0.0
C365 C 0.73152 0.3497 0.3537 0.0
C366 C 0.73728 0.39384 0.33472 0.0
C367 C 0.7495 0.38802 0.27725 0.0
C368 C 0.75284 0.36277 0.25896 0.0
C369 C 0.7441 0.34387 0.29685 0.0
C370 C 0.74919 0.4465 0.17912 0.0
C371 C 0.77011 0.44252 0.14138 0.0
C372 C 0.74301 0.42934 0.22521 0.0
C373 C 0.75778 0.408 0.23478 0.0
C374 C 0.77968 0.40508 0.1999 0.0
C375 C 0.78565 0.42205 0.15337 0.0
H376 H 0.11527 0.21578 0.88949 0.0
H377 H 0.16995 0.24697 0.76717 0.0
H378 H 0.08185 0.23154 0.81914 0.0
H379 H 0.13682 0.26178 0.69592 0.0
H380 H 0.0755 0.29922 0.59172 0.0
H381 H 0.10423 0.29052 0.68209 0.0
H382 H 0.06337 0.22298 0.71516 0.0
H383 H 0.03408 0.23253 0.62671 0.0
C384 C 0.12017 0.22595 0.84756 0.0
C385 C 0.1453 0.23002 0.83384 0.0
C386 C 0.101 0.23494 0.80713 0.0
C387 C 0.10655 0.24799 0.75176 0.0
C388 C 0.13172 0.25232 0.73877 0.0
C389 C 0.15081 0.2436 0.77945 0.0
C390 C 0.07241 0.28288 0.61959 0.0
C391 C 0.05273 0.26648 0.60243 0.0
C392 C 0.08896 0.27772 0.67087 0.0
C393 C 0.08648 0.25575 0.70519 0.0
C394 C 0.06581 0.24015 0.6903 0.0
C395 C 0.04901 0.24556 0.63958 0.0
H396 H 0.28997 0.61395 0.41533 0.0
H397 H 0.255 0.66487 0.28287 0.0
H398 H 0.2759 0.5788 0.34538 0.0
H399 H 0.24179 0.63008 0.21245 0.0
H400 H 0.20721 0.56657 0.10779 0.0
H401 H 0.21434 0.59569 0.1998 0.0
H402 H 0.2851 0.56008 0.24261 0.0
H403 H 0.27711 0.53033 0.15242 0.0
C404 C 0.27939 0.61765 0.37123 0.0
C405 C 0.27368 0.64222 0.35457 0.0
C406 C 0.27132 0.59751 0.33118 0.0
C407 C 0.25754 0.60156 0.2735 0.0
C408 C 0.25179 0.62616 0.25725 0.0
C409 C 0.25962 0.64619 0.2974 0.0
C410 C 0.22381 0.56456 0.13855 0.0
C411 C 0.24162 0.54637 0.1237 0.0
C412 C 0.22809 0.58135 0.19062 0.0
C413 C 0.25057 0.5806 0.2277 0.0
C414 C 0.26753 0.56114 0.21542 0.0
C415 C 0.26302 0.54409 0.16386 0.0
H416 H 0.38337 0.71669 0.61792 0.0
H417 H 0.32886 0.74564 0.74954 0.0
H418 H 0.41688 0.73278 0.69058 0.0
H419 H 0.36211 0.7608 0.82277 0.0
H420 H 0.42304 0.79949 0.93215 0.0
H421 H 0.39414 0.79054 0.84064 0.0
H422 H 0.43608 0.72407 0.79243 0.0
H423 H 0.46548 0.73381 0.88226 0.0
C424 C 0.37853 0.72641 0.6624 0.0
C425 C 0.35342 0.72978 0.67801 0.0
C426 C 0.39774 0.7356 0.7041 0.0
C427 C 0.39226 0.74819 0.76254 0.0
C428 C 0.36712 0.75174 0.7776 0.0
C429 C 0.34797 0.74279 0.73576 0.0
C430 C 0.42635 0.78336 0.90076 0.0
C431 C 0.44633 0.76727 0.91412 0.0
C432 C 0.4097 0.77805 0.84879 0.0
C433 C 0.41243 0.75627 0.80991 0.0
C434 C 0.43344 0.74108 0.82094 0.0
C435 C 0.45031 0.74662 0.87242 0.0
H436 H 0.77548 0.88149 0.1268 0.0
H437 H 0.75009 0.82528 0.25344 0.0
H438 H 0.75846 0.91391 0.19766 0.0
H439 H 0.73389 0.85762 0.32519 0.0
H440 H 0.69164 0.91723 0.42561 0.0
H441 H 0.70247 0.88823 0.33779 0.0
H442 H 0.76685 0.93338 0.30118 0.0
H443 H 0.75532 0.96276 0.38753 0.0
C444 C 0.76635 0.87603 0.16987 0.0
C445 C 0.76426 0.85075 0.18454 0.0
C446 C 0.75664 0.89465 0.2106 0.0
C447 C 0.74474 0.88845 0.26719 0.0
C448 C 0.74246 0.86313 0.28141 0.0
C449 C 0.75197 0.84453 0.24047 0.0
C450 C 0.70776 0.92117 0.39761 0.0
C451 C 0.72271 0.94212 0.41327 0.0
C452 C 0.71413 0.90447 0.34778 0.0
C453 C 0.73583 0.90816 0.31315 0.0
C454 C 0.74993 0.92999 0.32641 0.0
C455 C 0.74335 0.94687 0.37585 0.0
H456 H 0.65986 0.24092 0.69008 0.0
H457 H 0.6231 0.30872 0.63246 0.0
H458 H 0.6246 0.23126 0.75607 0.0
H459 H 0.58793 0.29894 0.69853 0.0
H460 H 0.54848 0.21248 0.83261 0.0
H461 H 0.5779 0.22097 0.74795 0.0
H462 H 0.58442 0.29727 0.81976 0.0
H463 H 0.5553 0.28869 0.90408 0.0
C464 C 0.64424 0.25369 0.69117 0.0
C465 C 0.64444 0.27572 0.65646 0.0
C466 C 0.62394 0.24802 0.72844 0.0
C467 C 0.60356 0.26436 0.7323 0.0
C468 C 0.60348 0.28609 0.69659 0.0
C469 C 0.62363 0.29164 0.65876 0.0
C470 C 0.55584 0.23115 0.82907 0.0
C471 C 0.54978 0.24996 0.8745 0.0
C472 C 0.57276 0.23596 0.78119 0.0
C473 C 0.58348 0.25974 0.77759 0.0
C474 C 0.57629 0.27884 0.82105 0.0
C475 C 0.55972 0.27394 0.86933 0.0
H476 H 0.24739 0.16124 0.20679 0.0
H477 H 0.20542 0.11218 0.07332 0.0
H478 H 0.2607 0.12584 0.26831 0.0
H479 H 0.21948 0.0764 0.13432 0.0
H480 H 0.2197 0.02986 0.3225 0.0
H481 H 0.21173 0.05916 0.23684 0.0
H482 H 0.28597 0.08951 0.27022 0.0
H483 H 0.29326 0.06077 0.35783 0.0
C484 C 0.24121 0.14285 0.19006 0.0
C485 C 0.22514 0.13962 0.13538 0.0
C486 C 0.24912 0.12244 0.22502 0.0
C487 C 0.24136 0.09819 0.206 0.0
C488 C 0.22565 0.09485 0.15056 0.0
C489 C 0.21758 0.11536 0.11567 0.0
C490 C 0.23453 0.04225 0.30967 0.0
C491 C 0.25706 0.04319 0.34601 0.0
C492 C 0.23002 0.05905 0.26071 0.0
C493 C 0.24806 0.077 0.24741 0.0
C494 C 0.27148 0.0763 0.28028 0.0
C495 C 0.27583 0.0597 0.32972 0.0
H496 H 0.23978 0.30091 0.91069 0.0
H497 H 0.20822 0.30018 0.09948 0.0
H498 H 0.2414 0.34619 0.91781 0.0
H499 H 0.20888 0.34551 0.10557 0.0
H500 H 0.22112 0.42808 0.92445 0.0
H501 H 0.21677 0.38285 0.91657 0.0
H502 H 0.23751 0.3789 0.11956 0.0
H503 H 0.24073 0.4243 0.12734 0.0
C504 C 0.23291 0.31044 0.9534 0.0
C505 C 0.22401 0.29696 0.00468 0.0
C506 C 0.2337 0.33643 0.95734 0.0
C507 C 0.22531 0.34954 0.01232 0.0
C508 C 0.21595 0.33602 0.06305 0.0
C509 C 0.21545 0.31003 0.05945 0.0
C510 C 0.22465 0.41747 0.96727 0.0
C511 C 0.23139 0.42945 0.02671 0.0
C512 C 0.22231 0.39156 0.96277 0.0
C513 C 0.22688 0.37717 0.01737 0.0
C514 C 0.23345 0.38936 0.07675 0.0
C515 C 0.2355 0.41526 0.08129 0.0
H516 H 0.1929 0.72459 0.40861 0.0
H517 H 0.19474 0.70052 0.60543 0.0
H518 H 0.14761 0.72323 0.40584 0.0
H519 H 0.14935 0.69819 0.60186 0.0
H520 H 0.06994 0.73061 0.59946 0.0
H521 H 0.11502 0.72574 0.60246 0.0
H522 H 0.11141 0.69806 0.40386 0.0
H523 H 0.06612 0.70408 0.40063 0.0
C524 C 0.18365 0.71863 0.45101 0.0
C525 C 0.19746 0.71289 0.50745 0.0
C526 C 0.15761 0.71767 0.44928 0.0
C527 C 0.14472 0.71067 0.5037 0.0
C528 C 0.1586 0.70413 0.55946 0.0
C529 C 0.18465 0.70537 0.56144 0.0
C530 C 0.07875 0.7232 0.55672 0.0
C531 C 0.06465 0.71771 0.49949 0.0
C532 C 0.10463 0.72026 0.55849 0.0
C533 C 0.11697 0.71158 0.50331 0.0
C534 C 0.10262 0.70521 0.44691 0.0
C535 C 0.07673 0.70841 0.44504 0.0
H536 H 0.79515 0.6927 0.11268 0.0
H537 H 0.77659 0.69227 0.90806 0.0
H538 H 0.79694 0.64733 0.10809 0.0
H539 H 0.77747 0.64703 0.90393 0.0
H540 H 0.80084 0.56598 0.90361 0.0
H541 H 0.80328 0.6115 0.90927 0.0
H542 H 0.77025 0.6121 0.09655 0.0
H543 H 0.76886 0.56669 0.0914 0.0
C544 C 0.79142 0.68295 0.06671 0.0
C545 C 0.78569 0.69619 0.01077 0.0
C546 C 0.79228 0.65689 0.06415 0.0
C547 C 0.78722 0.64339 0.0057 0.0
C548 C 0.78186 0.6567 0.94963 0.0
C549 C 0.78122 0.68273 0.95206 0.0
C550 C 0.79428 0.57601 0.94593 0.0
C551 C 0.78478 0.56294 -0.00318 0.0
C552 C 0.79549 0.60204 0.94917 0.0
C553 C 0.7869 0.6156 0.00335 0.0
C554 C 0.77743 0.60235 0.05456 0.0
C555 C 0.77645 0.5763 0.05149 0.0
H556 H 0.80309 0.25916 0.41028 0.0
H557 H 0.80468 0.28592 0.60946 0.0
H558 H 0.84848 0.25806 0.41303 0.0
H559 H 0.85005 0.28572 0.61152 0.0
H560 H 0.93002 0.25706 0.61565 0.0
H561 H 0.88441 0.25804 0.61247 0.0
H562 H 0.88464 0.28357 0.41696 0.0
H563 H 0.93009 0.28153 0.41988 0.0
C564 C 0.81312 0.26505 0.45449 0.0
C565 C 0.80022 0.27252 0.50973 0.0
C566 C 0.83919 0.26455 0.45598 0.0
C567 C 0.853 0.27176 0.51254 0.0
C568 C 0.84006 0.27957 0.56749 0.0
C569 C 0.81401 0.27982 0.56621 0.0
C570 C 0.92014 0.26277 0.57215 0.0
C571 C 0.93341 0.26902 0.51821 0.0
C572 C 0.89409 0.26355 0.57031 0.0
C573 C 0.88077 0.27093 0.51443 0.0
C574 C 0.89421 0.2774 0.4604 0.0
C575 C 0.92027 0.27636 0.46212 0.0
H576 H 0.70224 0.19134 0.40241 0.0
H577 H 0.7275 0.19154 0.60272 0.0
H578 H 0.70062 0.14599 0.39981 0.0
H579 H 0.72681 0.14627 0.59949 0.0
H580 H 0.70322 0.0652 0.59124 0.0
H581 H 0.701 0.11058 0.594 0.0
H582 H 0.72727 0.11091 0.39923 0.0
H583 H 0.72841 0.06537 0.3962 0.0
C584 C 0.70752 0.18172 0.44587 0.0
C585 C 0.71504 0.19513 0.50274 0.0
C586 C 0.70674 0.15567 0.44428 0.0
C587 C 0.71372 0.14234 0.49933 0.0
C588 C 0.72093 0.15581 0.5564 0.0
C589 C 0.72146 0.18185 0.55818 0.0
C590 C 0.70846 0.07502 0.54907 0.0
C591 C 0.71614 0.0619 0.49333 0.0
C592 C 0.70732 0.10105 0.55069 0.0
C593 C 0.71404 0.11455 0.49692 0.0
C594 C 0.72157 0.10124 0.44121 0.0
C595 C 0.72244 0.0752 0.43946 0.0
H596 H 0.30549 0.2227 0.10084 0.0
H597 H 0.3038 0.19799 0.90007 0.0
H598 H 0.35073 0.2204 0.10441 0.0
H599 H 0.34915 0.19476 0.90428 0.0
H600 H 0.43151 0.19873 0.10924 0.0
H601 H 0.38607 0.19405 0.10334 0.0
H602 H 0.38445 0.2213 0.90942 0.0
H603 H 0.42969 0.22487 0.91491 0.0
C604 C 0.31475 0.21643 0.05764 0.0
C605 C 0.30099 0.21072 2e-05 0.0
C606 C 0.34076 0.21492 0.05982 0.0
C607 C 0.3537 0.20741 0.00461 0.0
C608 C 0.33987 0.20103 0.94743 0.0
C609 C 0.31384 0.20279 0.94507 0.0
C610 C 0.4213 0.20326 0.06519 0.0
C611 C 0.43399 0.21207 0.01282 0.0
C612 C 0.39532 0.20083 0.06184 0.0
C613 C 0.38149 0.2075 0.00606 0.0
C614 C 0.39442 0.21565 0.95281 0.0
C615 C 0.42039 0.21783 0.95603 0.0
H616 H 0.26646 0.80193 0.42033 0.0
H617 H 0.28404 0.80239 0.62555 0.0
H618 H 0.26561 0.84713 0.42413 0.0
H619 H 0.28399 0.84782 0.62892 0.0
H620 H 0.25182 0.92766 0.61935 0.0
H621 H 0.25568 0.88223 0.62041 0.0
H622 H 0.29194 0.8827 0.4375 0.0
H623 H 0.28715 0.92775 0.43581 0.0
C624 C 0.27041 0.81167 0.4662 0.0
C625 C 0.27526 0.79852 0.52266 0.0
C626 C 0.27009 0.83764 0.4683 0.0
C627 C 0.27485 0.85114 0.52679 0.0
C628 C 0.27993 0.838 0.58323 0.0
C629 C 0.28006 0.81196 0.58123 0.0
C630 C 0.2607 0.91787 0.5798 0.0
C631 C 0.26885 0.93099 0.52742 0.0
C632 C 0.26307 0.89196 0.58042 0.0
C633 C 0.27391 0.87878 0.52869 0.0
C634 C 0.28297 0.89218 0.47737 0.0
C635 C 0.28036 0.91801 0.47652 0.0
H636 H 0.69499 0.76049 0.91155 0.0
H637 H 0.69518 0.7826 0.11406 0.0
H638 H 0.64962 0.76003 0.9078 0.0
H639 H 0.64978 0.78304 0.10975 0.0
H640 H 0.56886 0.75738 0.09661 0.0
H641 H 0.61432 0.75653 0.10058 0.0
H642 H 0.61462 0.78697 0.91022 0.0
H643 H 0.56898 0.78677 0.90581 0.0
C644 C 0.68535 0.76542 0.9552 0.0
C645 C 0.69873 0.77154 0.01313 0.0
C646 C 0.65929 0.7653 0.95295 0.0
C647 C 0.64597 0.77156 0.00842 0.0
C648 C 0.65939 0.77772 0.06635 0.0
C649 C 0.68545 0.77759 0.06875 0.0
C650 C 0.57869 0.76387 0.05571 0.0
C651 C 0.56556 0.77225 0.00069 0.0
C652 C 0.60475 0.76353 0.05807 0.0
C653 C 0.61821 0.77174 0.00579 0.0
C654 C 0.60492 0.78014 0.95096 0.0
C655 C 0.57886 0.78023 0.94844 0.0
loop_
_geom_bond_atom_site_label_1
_geom_bond_atom_site_label_2
_geom_bond_distance
_geom_bond_site_symmetry_2
_ccdc_geom_bond_type
Sc0 O3 2.025 . S
Sc0 O10 2.105 . S
Sc0 O13 2.105 . S
Sc0 O16 2.105 . S
Sc0 O19 2.105 . S
Sc1 O3 2.025 . S
Sc1 O11 2.105 . S
Sc1 O15 2.105 1_554 S
Sc1 O17 2.105 . S
Sc1 O21 2.105 1_554 S
Sc2 O3 2.025 1_556 S
Sc2 O12 2.105 . S
Sc2 O14 2.105 . S
Sc2 O18 2.105 . S
Sc2 O20 2.105 . S
O3 Sc0 2.025 . S
O3 Sc1 2.025 . S
O3 Sc2 2.025 1_554 S
C4 O10 1.268 . S
C4 O20 1.268 1_554 S
C5 O11 1.268 . S
C5 O19 1.268 . S
C6 O12 1.268 . S
C6 O21 1.268 . S
C7 O13 1.268 . S
C7 O17 1.268 . S
C8 O14 1.268 1_554 S
C8 O16 1.268 . S
C9 O15 1.268 . S
C9 O18 1.268 . S
O10 Sc0 2.105 . S
O10 C4 1.268 . S
O11 Sc1 2.105 . S
O11 C5 1.268 . S
O12 Sc2 2.105 . S
O12 C6 1.268 . S
O13 Sc0 2.105 . S
O13 C7 1.268 . S
O14 Sc2 2.105 . S
O14 C8 1.268 1_556 S
O15 Sc1 2.105 1_556 S
O15 C9 1.268 . S
O16 Sc0 2.105 . S
O16 C8 1.268 . S
O17 Sc1 2.105 . S
O17 C7 1.268 . S
O18 Sc2 2.105 . S
O18 C9 1.268 . S
O19 Sc0 2.105 . S
O19 C5 1.268 . S
O20 Sc2 2.105 . S
O20 C4 1.268 1_556 S
O21 Sc1 2.105 1_556 S
O21 C6 1.268 . S
Sc22 O25 2.025 . S
Sc22 O32 2.105 . S
Sc22 O35 2.105 . S
Sc22 O38 2.105 . S
Sc22 O41 2.105 . S
Sc23 O25 2.025 . S
Sc23 O33 2.105 . S
Sc23 O37 2.105 . S
Sc23 O39 2.105 . S
Sc23 O43 2.105 . S
Sc24 O25 2.025 . S
Sc24 O34 2.105 . S
Sc24 O36 2.105 . S
Sc24 O40 2.105 . S
Sc24 O42 2.105 . S
O25 Sc22 2.025 . S
O25 Sc23 2.025 . S
O25 Sc24 2.025 . S
C26 O32 1.268 . S
C26 O42 1.268 . S
C27 O33 1.268 . S
C27 O41 1.268 . S
C28 O34 1.268 . S
C28 O43 1.268 . S
C29 O35 1.268 . S
C29 O39 1.268 . S
C30 O36 1.268 . S
C30 O38 1.268 . S
C31 O37 1.268 . S
C31 O40 1.268 . S
O32 Sc22 2.105 . S
O32 C26 1.268 . S
O33 Sc23 2.105 . S
O33 C27 1.268 . S
O34 Sc24 2.105 . S
O34 C28 1.268 . S
O35 Sc22 2.105 . S
O35 C29 1.268 . S
O36 Sc24 2.105 . S
O36 C30 1.268 . S
O37 Sc23 2.105 . S
O37 C31 1.268 . S
O38 Sc22 2.105 . S
O38 C30 1.268 . S
O39 Sc23 2.105 . S
O39 C29 1.268 . S
O40 Sc24 2.105 . S
O40 C31 1.268 . S
O41 Sc22 2.105 . S
O41 C27 1.268 . S
O42 Sc24 2.105 . S
O42 C26 1.268 . S
O43 Sc23 2.105 . S
O43 C28 1.268 . S
Sc44 O47 2.025 1_556 S
Sc44 O54 2.105 . S
Sc44 O57 2.105 . S
Sc44 O60 2.105 . S
Sc44 O63 2.105 . S
Sc45 O47 2.025 . S
Sc45 O55 2.105 1_554 S
Sc45 O59 2.105 . S
Sc45 O61 2.105 1_554 S
Sc45 O65 2.105 . S
Sc46 O47 2.025 . S
Sc46 O56 2.105 . S
Sc46 O58 2.105 . S
Sc46 O62 2.105 . S
Sc46 O64 2.105 . S
O47 Sc44 2.025 1_554 S
O47 Sc45 2.025 . S
O47 Sc46 2.025 . S
C48 O54 1.268 1_554 S
C48 O64 1.268 . S
C49 O55 1.268 . S
C49 O63 1.268 . S
C50 O56 1.268 . S
C50 O65 1.268 . S
C51 O57 1.268 . S
C51 O61 1.268 . S
C52 O58 1.268 . S
C52 O60 1.268 1_554 S
C53 O59 1.268 . S
C53 O62 1.268 . S
O54 Sc44 2.105 . S
O54 C48 1.268 1_556 S
O55 Sc45 2.105 1_556 S
O55 C49 1.268 . S
O56 Sc46 2.105 . S
O56 C50 1.268 . S
O57 Sc44 2.105 . S
O57 C51 1.268 . S
O58 Sc46 2.105 . S
O58 C52 1.268 . S
O59 Sc45 2.105 . S
O59 C53 1.268 . S
O60 Sc44 2.105 . S
O60 C52 1.268 1_556 S
O61 Sc45 2.105 1_556 S
O61 C51 1.268 . S
O62 Sc46 2.105 . S
O62 C53 1.268 . S
O63 Sc44 2.105 . S
O63 C49 1.268 . S
O64 Sc46 2.105 . S
O64 C48 1.268 . S
O65 Sc45 2.105 . S
O65 C50 1.268 . S
Sc66 O69 2.025 . S
Sc66 O76 2.105 . S
Sc66 O79 2.105 . S
Sc66 O82 2.105 . S
Sc66 O85 2.105 . S
Sc67 O69 2.025 . S
Sc67 O77 2.105 . S
Sc67 O81 2.105 . S
Sc67 O83 2.105 . S
Sc67 O87 2.105 . S
Sc68 O69 2.025 . S
Sc68 O78 2.105 . S
Sc68 O80 2.105 . S
Sc68 O84 2.105 . S
Sc68 O86 2.105 . S
O69 Sc66 2.025 . S
O69 Sc67 2.025 . S
O69 Sc68 2.025 . S
C70 O76 1.268 . S
C70 O86 1.268 . S
C71 O77 1.268 . S
C71 O85 1.268 . S
C72 O78 1.268 . S
C72 O87 1.268 . S
C73 O79 1.268 . S
C73 O83 1.268 . S
C74 O80 1.268 . S
C74 O82 1.268 . S
C75 O81 1.268 . S
C75 O84 1.268 . S
O76 Sc66 2.105 . S
O76 C70 1.268 . S
O77 Sc67 2.105 . S
O77 C71 1.268 . S
O78 Sc68 2.105 . S
O78 C72 1.268 . S
O79 Sc66 2.105 . S
O79 C73 1.268 . S
O80 Sc68 2.105 . S
O80 C74 1.268 . S
O81 Sc67 2.105 . S
O81 C75 1.268 . S
O82 Sc66 2.105 . S
O82 C74 1.268 . S
O83 Sc67 2.105 . S
O83 C73 1.268 . S
O84 Sc68 2.105 . S
O84 C75 1.268 . S
O85 Sc66 2.105 . S
O85 C71 1.268 . S
O86 Sc68 2.105 . S
O86 C70 1.268 . S
O87 Sc67 2.105 . S
O87 C72 1.268 . S
H88 C93 0.929 . S
H89 C98 0.931 . S
H90 C96 0.930 . S
N91 N92 1.234 1_556 S
N91 C95 1.453 . S
N92 N91 1.234 1_554 S
C93 H88 0.929 . S
C93 C94 1.373 . S
C93 C95 1.368 . S
C94 C93 1.373 . S
C94 C98 1.397 1_556 S
C95 N91 1.453 . S
C95 C93 1.368 . S
C95 C96 1.373 1_556 S
C96 H90 0.930 . S
C96 C95 1.373 1_554 S
C96 C97 1.371 . S
C97 C96 1.371 . S
C97 C98 1.383 . S
C98 H89 0.931 . S
C98 C94 1.397 1_554 S
C98 C97 1.383 . S
H99 C104 0.929 . S
H100 C109 0.931 . S
H101 C107 0.930 . S
N102 N103 1.234 . S
N102 C106 1.418 1_455 S
N103 N102 1.234 . S
C104 H99 0.929 . S
C104 C105 1.373 . S
C104 C106 1.390 . S
C105 C104 1.373 . S
C105 C109 1.397 . S
C106 N102 1.418 1_655 S
C106 C104 1.390 . S
C106 C107 1.387 . S
C107 H101 0.930 . S
C107 C106 1.387 . S
C107 C108 1.371 . S
C108 C107 1.371 . S
C108 C109 1.383 . S
C109 H100 0.931 . S
C109 C105 1.397 . S
C109 C108 1.383 . S
H110 C115 0.929 . S
H111 C120 0.931 . S
H112 C118 0.930 . S
N113 N114 1.234 . S
N113 C117 1.453 . S
N114 N113 1.234 . S
C115 H110 0.929 . S
C115 C116 1.373 . S
C115 C117 1.368 . S
C116 C115 1.373 . S
C116 C120 1.397 . S
C117 N113 1.453 . S
C117 C115 1.368 . S
C117 C118 1.373 1_554 S
C118 H112 0.930 . S
C118 C117 1.373 1_556 S
C118 C119 1.371 . S
C119 C118 1.371 . S
C119 C120 1.383 1_556 S
C120 H111 0.931 . S
C120 C116 1.397 . S
C120 C119 1.383 1_554 S
H121 C126 0.929 . S
H122 C131 0.931 . S
H123 C129 0.930 . S
N124 N125 1.234 . S
N124 C128 1.453 1_655 S
N125 N124 1.234 . S
C126 H121 0.929 . S
C126 C127 1.373 . S
C126 C128 1.368 . S
C127 C126 1.373 . S
C127 C131 1.397 . S
C128 N124 1.453 1_455 S
C128 C126 1.368 . S
C128 C129 1.373 . S
C129 H123 0.930 . S
C129 C128 1.373 . S
C129 C130 1.371 . S
C130 C129 1.371 . S
C130 C131 1.383 . S
C131 H122 0.931 . S
C131 C127 1.397 . S
C131 C130 1.383 . S
H132 C137 0.929 . S
H133 C142 0.931 . S
H134 C140 0.930 . S
N135 N136 1.234 . S
N135 C139 1.453 1_545 S
N136 N135 1.234 . S
C137 H132 0.929 . S
C137 C138 1.373 . S
C137 C139 1.368 . S
C138 C137 1.373 . S
C138 C142 1.397 . S
C139 N135 1.453 1_565 S
C139 C137 1.368 . S
C139 C140 1.373 . S
C140 H134 0.930 . S
C140 C139 1.373 . S
C140 C141 1.371 . S
C141 C140 1.371 . S
C141 C142 1.383 . S
C142 H133 0.931 . S
C142 C138 1.397 . S
C142 C141 1.383 . S
H143 C148 0.929 . S
H144 C153 0.931 . S
H145 C151 0.930 . S
N146 N147 1.234 1_556 S
N146 C150 1.453 . S
N147 N146 1.234 1_554 S
C148 H143 0.929 . S
C148 C149 1.373 . S
C148 C150 1.368 . S
C149 C148 1.373 . S
C149 C153 1.397 1_556 S
C150 N146 1.453 . S
C150 C148 1.368 . S
C150 C151 1.373 1_556 S
C151 H145 0.930 . S
C151 C150 1.373 1_554 S
C151 C152 1.371 . S
C152 C151 1.371 . S
C152 C153 1.383 . S
C153 H144 0.931 . S
C153 C149 1.397 1_554 S
C153 C152 1.383 . S
H154 C159 0.929 . S
H155 C164 0.931 . S
H156 C162 0.930 . S
N157 N158 1.234 . S
N157 C161 1.453 1_565 S
N158 N157 1.234 . S
C159 H154 0.929 . S
C159 C160 1.373 . S
C159 C161 1.368 . S
C160 C159 1.373 . S
C160 C164 1.397 . S
C161 N157 1.453 1_545 S
C161 C159 1.368 . S
C161 C162 1.373 . S
C162 H156 0.930 . S
C162 C161 1.373 . S
C162 C163 1.371 . S
C163 C162 1.371 . S
C163 C164 1.383 . S
C164 H155 0.931 . S
C164 C160 1.397 . S
C164 C163 1.383 . S
H165 C170 0.929 . S
H166 C175 0.931 . S
H167 C173 0.930 . S
N168 N169 1.234 . S
N168 C172 1.453 . S
N169 N168 1.234 . S
C170 H165 0.929 . S
C170 C171 1.373 . S
C170 C172 1.368 . S
C171 C170 1.373 . S
C171 C175 1.397 . S
C172 N168 1.453 . S
C172 C170 1.368 . S
C172 C173 1.373 1_554 S
C173 H167 0.930 . S
C173 C172 1.373 1_556 S
C173 C174 1.371 . S
C174 C173 1.371 . S
C174 C175 1.383 1_556 S
C175 H166 0.931 . S
C175 C171 1.397 . S
C175 C174 1.383 1_554 S
H176 C184 0.950 . S
H177 C189 0.950 . S
H178 C186 0.950 . S
H179 C188 0.950 . S
H180 C190 0.950 . S
H181 C192 0.950 . S
H182 C194 0.950 . S
H183 C195 0.950 . S
C184 H176 0.950 . S
C184 C185 1.386 . S
C184 C186 1.391 . S
C185 C184 1.386 . S
C185 C189 1.393 . S
C186 H178 0.950 . S
C186 C184 1.391 . S
C186 C187 1.400 . S
C187 C186 1.400 . S
C187 C188 1.398 . S
C187 C193 1.491 . S
C188 H179 0.950 . S
C188 C187 1.398 . S
C188 C189 1.391 . S
C189 H177 0.950 . S
C189 C185 1.393 . S
C189 C188 1.391 . S
C190 H180 0.950 . S
C190 C191 1.386 . S
C190 C192 1.391 . S
C191 C190 1.386 . S
C191 C195 1.393 . S
C192 H181 0.950 . S
C192 C190 1.391 . S
C192 C193 1.400 . S
C193 C187 1.491 . S
C193 C192 1.400 . S
C193 C194 1.398 . S
C194 H182 0.950 . S
C194 C193 1.398 . S
C194 C195 1.391 . S
C195 H183 0.950 . S
C195 C191 1.393 . S
C195 C194 1.391 . S
H196 C204 0.950 . S
H197 C209 0.950 . S
H198 C206 0.950 . S
H199 C208 0.950 . S
H200 C210 0.950 . S
H201 C212 0.950 . S
H202 C214 0.950 . S
H203 C215 0.950 . S
C204 H196 0.950 . S
C204 C205 1.386 . S
C204 C206 1.391 . S
C205 C204 1.386 . S
C205 C209 1.393 . S
C206 H198 0.950 . S
C206 C204 1.391 . S
C206 C207 1.400 . S
C207 C206 1.400 . S
C207 C208 1.398 . S
C207 C213 1.491 . S
C208 H199 0.950 . S
C208 C207 1.398 . S
C208 C209 1.391 . S
C209 H197 0.950 . S
C209 C205 1.393 . S
C209 C208 1.391 . S
C210 H200 0.950 . S
C210 C211 1.386 . S
C210 C212 1.391 . S
C211 C210 1.386 . S
C211 C215 1.393 . S
C212 H201 0.950 . S
C212 C210 1.391 . S
C212 C213 1.400 . S
C213 C207 1.491 . S
C213 C212 1.400 . S
C213 C214 1.398 . S
C214 H202 0.950 . S
C214 C213 1.398 . S
C214 C215 1.391 . S
C215 H203 0.950 . S
C215 C211 1.393 . S
C215 C214 1.391 . S
H216 C224 0.950 . S
H217 C229 0.950 . S
H218 C226 0.950 . S
H219 C228 0.950 . S
H220 C230 0.950 . S
H221 C232 0.950 . S
H222 C234 0.950 . S
H223 C235 0.950 . S
C224 H216 0.950 . S
C224 C225 1.386 . S
C224 C226 1.391 . S
C225 C224 1.386 . S
C225 C229 1.393 . S
C226 H218 0.950 . S
C226 C224 1.391 . S
C226 C227 1.400 . S
C227 C226 1.400 . S
C227 C228 1.398 . S
C227 C233 1.491 . S
C228 H219 0.950 . S
C228 C227 1.398 . S
C228 C229 1.391 . S
C229 H217 0.950 . S
C229 C225 1.393 . S
C229 C228 1.391 . S
C230 H220 0.950 . S
C230 C231 1.386 . S
C230 C232 1.391 . S
C231 C230 1.386 . S
C231 C235 1.393 . S
C232 H221 0.950 . S
C232 C230 1.391 . S
C232 C233 1.400 . S
C233 C227 1.491 . S
C233 C232 1.400 . S
C233 C234 1.398 . S
C234 H222 0.950 . S
C234 C233 1.398 . S
C234 C235 1.391 . S
C235 H223 0.950 . S
C235 C231 1.393 . S
C235 C234 1.391 . S
H236 C244 0.950 . S
H237 C249 0.950 . S
H238 C246 0.950 . S
H239 C248 0.950 . S
H240 C250 0.950 . S
H241 C252 0.950 . S
H242 C254 0.950 . S
H243 C255 0.950 . S
C244 H236 0.950 . S
C244 C245 1.386 . S
C244 C246 1.391 . S
C245 C244 1.386 . S
C245 C249 1.393 . S
C246 H238 0.950 . S
C246 C244 1.391 . S
C246 C247 1.400 . S
C247 C246 1.400 . S
C247 C248 1.398 . S
C247 C253 1.491 . S
C248 H239 0.950 . S
C248 C247 1.398 . S
C248 C249 1.391 . S
C249 H237 0.950 . S
C249 C245 1.393 . S
C249 C248 1.391 . S
C250 H240 0.950 . S
C250 C251 1.386 . S
C250 C252 1.391 . S
C251 C250 1.386 . S
C251 C255 1.393 . S
C252 H241 0.950 . S
C252 C250 1.391 . S
C252 C253 1.400 . S
C253 C247 1.491 . S
C253 C252 1.400 . S
C253 C254 1.398 . S
C254 H242 0.950 . S
C254 C253 1.398 . S
C254 C255 1.391 . S
C255 H243 0.950 . S
C255 C251 1.393 . S
C255 C254 1.391 . S
H256 C264 0.950 . S
H257 C269 0.950 . S
H258 C266 0.950 . S
H259 C268 0.950 . S
H260 C270 0.950 . S
H261 C272 0.950 . S
H262 C274 0.950 . S
H263 C275 0.950 . S
C264 H256 0.950 . S
C264 C265 1.386 . S
C264 C266 1.391 . S
C265 C264 1.386 . S
C265 C269 1.393 . S
C266 H258 0.950 . S
C266 C264 1.391 . S
C266 C267 1.400 . S
C267 C266 1.400 . S
C267 C268 1.398 . S
C267 C273 1.491 . S
C268 H259 0.950 . S
C268 C267 1.398 . S
C268 C269 1.391 . S
C269 H257 0.950 . S
C269 C265 1.393 . S
C269 C268 1.391 . S
C270 H260 0.950 . S
C270 C271 1.386 . S
C270 C272 1.391 . S
C271 C270 1.386 . S
C271 C275 1.393 . S
C272 H261 0.950 . S
C272 C270 1.391 . S
C272 C273 1.400 . S
C273 C267 1.491 . S
C273 C272 1.400 . S
C273 C274 1.398 . S
C274 H262 0.950 . S
C274 C273 1.398 . S
C274 C275 1.391 . S
C275 H263 0.950 . S
C275 C271 1.393 . S
C275 C274 1.391 . S
H276 C284 0.950 . S
H277 C289 0.950 . S
H278 C286 0.950 . S
H279 C288 0.950 . S
H280 C290 0.950 . S
H281 C292 0.950 . S
H282 C294 0.950 . S
H283 C295 0.950 . S
C284 H276 0.950 . S
C284 C285 1.386 . S
C284 C286 1.391 . S
C285 C284 1.386 . S
C285 C289 1.393 . S
C286 H278 0.950 . S
C286 C284 1.391 . S
C286 C287 1.400 . S
C287 C286 1.400 . S
C287 C288 1.398 . S
C287 C293 1.491 . S
C288 H279 0.950 . S
C288 C287 1.398 . S
C288 C289 1.391 . S
C289 H277 0.950 . S
C289 C285 1.393 . S
C289 C288 1.391 . S
C290 H280 0.950 . S
C290 C291 1.386 . S
C290 C292 1.391 . S
C291 C290 1.386 . S
C291 C295 1.393 . S
C292 H281 0.950 . S
C292 C290 1.391 . S
C292 C293 1.400 . S
C293 C287 1.491 . S
C293 C292 1.400 . S
C293 C294 1.398 . S
C294 H282 0.950 . S
C294 C293 1.398 . S
C294 C295 1.391 . S
C295 H283 0.950 . S
C295 C291 1.393 . S
C295 C294 1.391 . S
H296 C304 0.950 . S
H297 C309 0.950 . S
H298 C306 0.950 . S
H299 C308 0.950 . S
H300 C310 0.950 . S
H301 C312 0.950 . S
H302 C314 0.950 . S
H303 C315 0.950 . S
C304 H296 0.950 . S
C304 C305 1.386 . S
C304 C306 1.391 . S
C305 C304 1.386 . S
C305 C309 1.393 . S
C306 H298 0.950 . S
C306 C304 1.391 . S
C306 C307 1.400 . S
C307 C306 1.400 . S
C307 C308 1.398 . S
C307 C313 1.491 . S
C308 H299 0.950 . S
C308 C307 1.398 . S
C308 C309 1.391 . S
C309 H297 0.950 . S
C309 C305 1.393 . S
C309 C308 1.391 . S
C310 H300 0.950 . S
C310 C311 1.386 . S
C310 C312 1.391 . S
C311 C310 1.386 . S
C311 C315 1.393 . S
C312 H301 0.950 . S
C312 C310 1.391 . S
C312 C313 1.400 . S
C313 C307 1.491 . S
C313 C312 1.400 . S
C313 C314 1.398 . S
C314 H302 0.950 . S
C314 C313 1.398 . S
C314 C315 1.391 . S
C315 H303 0.950 . S
C315 C311 1.393 . S
C315 C314 1.391 . S
H316 C324 0.950 . S
H317 C329 0.950 . S
H318 C326 0.950 . S
H319 C328 0.950 . S
H320 C330 0.950 . S
H321 C332 0.950 . S
H322 C334 0.950 . S
H323 C335 0.950 . S
C324 H316 0.950 . S
C324 C325 1.386 . S
C324 C326 1.391 . S
C325 C324 1.386 . S
C325 C329 1.393 . S
C326 H318 0.950 . S
C326 C324 1.391 . S
C326 C327 1.400 . S
C327 C326 1.400 . S
C327 C328 1.398 . S
C327 C333 1.491 . S
C328 H319 0.950 . S
C328 C327 1.398 . S
C328 C329 1.391 . S
C329 H317 0.950 . S
C329 C325 1.393 . S
C329 C328 1.391 . S
C330 H320 0.950 . S
C330 C331 1.386 . S
C330 C332 1.391 . S
C331 C330 1.386 . S
C331 C335 1.393 . S
C332 H321 0.950 . S
C332 C330 1.391 . S
C332 C333 1.400 . S
C333 C327 1.491 . S
C333 C332 1.400 . S
C333 C334 1.398 . S
C334 H322 0.950 . S
C334 C333 1.398 . S
C334 C335 1.391 . S
C335 H323 0.950 . S
C335 C331 1.393 . S
C335 C334 1.391 . S
H336 C344 0.950 . S
H337 C349 0.950 . S
H338 C346 0.950 . S
H339 C348 0.950 . S
H340 C350 0.950 . S
H341 C352 0.950 . S
H342 C354 0.950 . S
H343 C355 0.950 . S
C344 H336 0.950 . S
C344 C345 1.386 . S
C344 C346 1.391 . S
C345 C344 1.386 . S
C345 C349 1.393 . S
C346 H338 0.950 . S
C346 C344 1.391 . S
C346 C347 1.400 . S
C347 C346 1.400 . S
C347 C348 1.398 . S
C347 C353 1.491 . S
C348 H339 0.950 . S
C348 C347 1.398 . S
C348 C349 1.391 . S
C349 H337 0.950 . S
C349 C345 1.393 . S
C349 C348 1.391 . S
C350 H340 0.950 . S
C350 C351 1.386 . S
C350 C352 1.391 . S
C351 C350 1.386 . S
C351 C355 1.393 . S
C352 H341 0.950 . S
C352 C350 1.391 . S
C352 C353 1.400 . S
C353 C347 1.491 . S
C353 C352 1.400 . S
C353 C354 1.398 . S
C354 H342 0.950 . S
C354 C353 1.398 . S
C354 C355 1.391 . S
C355 H343 0.950 . S
C355 C351 1.393 . S
C355 C354 1.391 . S
H356 C364 0.950 . S
H357 C369 0.950 . S
H358 C366 0.950 . S
H359 C368 0.950 . S
H360 C370 0.950 . S
H361 C372 0.950 . S
H362 C374 0.950 . S
H363 C375 0.950 . S
C364 H356 0.950 . S
C364 C365 1.386 . S
C364 C366 1.391 . S
C365 C364 1.386 . S
C365 C369 1.393 . S
C366 H358 0.950 . S
C366 C364 1.391 . S
C366 C367 1.400 . S
C367 C366 1.400 . S
C367 C368 1.398 . S
C367 C373 1.491 . S
C368 H359 0.950 . S
C368 C367 1.398 . S
C368 C369 1.391 . S
C369 H357 0.950 . S
C369 C365 1.393 . S
C369 C368 1.391 . S
C370 H360 0.950 . S
C370 C371 1.386 . S
C370 C372 1.391 . S
C371 C370 1.386 . S
C371 C375 1.393 . S
C372 H361 0.950 . S
C372 C370 1.391 . S
C372 C373 1.400 . S
C373 C367 1.491 . S
C373 C372 1.400 . S
C373 C374 1.398 . S
C374 H362 0.950 . S
C374 C373 1.398 . S
C374 C375 1.391 . S
C375 H363 0.950 . S
C375 C371 1.393 . S
C375 C374 1.391 . S
H376 C384 0.950 . S
H377 C389 0.950 . S
H378 C386 0.950 . S
H379 C388 0.950 . S
H380 C390 0.950 . S
H381 C392 0.950 . S
H382 C394 0.950 . S
H383 C395 0.950 . S
C384 H376 0.950 . S
C384 C385 1.386 . S
C384 C386 1.391 . S
C385 C384 1.386 . S
C385 C389 1.393 . S
C386 H378 0.950 . S
C386 C384 1.391 . S
C386 C387 1.400 . S
C387 C386 1.400 . S
C387 C388 1.398 . S
C387 C393 1.491 . S
C388 H379 0.950 . S
C388 C387 1.398 . S
C388 C389 1.391 . S
C389 H377 0.950 . S
C389 C385 1.393 . S
C389 C388 1.391 . S
C390 H380 0.950 . S
C390 C391 1.386 . S
C390 C392 1.391 . S
C391 C390 1.386 . S
C391 C395 1.393 . S
C392 H381 0.950 . S
C392 C390 1.391 . S
C392 C393 1.400 . S
C393 C387 1.491 . S
C393 C392 1.400 . S
C393 C394 1.398 . S
C394 H382 0.950 . S
C394 C393 1.398 . S
C394 C395 1.391 . S
C395 H383 0.950 . S
C395 C391 1.393 . S
C395 C394 1.391 . S
H396 C404 0.950 . S
H397 C409 0.950 . S
H398 C406 0.950 . S
H399 C408 0.950 . S
H400 C410 0.950 . S
H401 C412 0.950 . S
H402 C414 0.950 . S
H403 C415 0.950 . S
C404 H396 0.950 . S
C404 C405 1.386 . S
C404 C406 1.391 . S
C405 C404 1.386 . S
C405 C409 1.393 . S
C406 H398 0.950 . S
C406 C404 1.391 . S
C406 C407 1.400 . S
C407 C406 1.400 . S
C407 C408 1.398 . S
C407 C413 1.491 . S
C408 H399 0.950 . S
C408 C407 1.398 . S
C408 C409 1.391 . S
C409 H397 0.950 . S
C409 C405 1.393 . S
C409 C408 1.391 . S
C410 H400 0.950 . S
C410 C411 1.386 . S
C410 C412 1.391 . S
C411 C410 1.386 . S
C411 C415 1.393 . S
C412 H401 0.950 . S
C412 C410 1.391 . S
C412 C413 1.400 . S
C413 C407 1.491 . S
C413 C412 1.400 . S
C413 C414 1.398 . S
C414 H402 0.950 . S
C414 C413 1.398 . S
C414 C415 1.391 . S
C415 H403 0.950 . S
C415 C411 1.393 . S
C415 C414 1.391 . S
H416 C424 0.950 . S
H417 C429 0.950 . S
H418 C426 0.950 . S
H419 C428 0.950 . S
H420 C430 0.950 . S
H421 C432 0.950 . S
H422 C434 0.950 . S
H423 C435 0.950 . S
C424 H416 0.950 . S
C424 C425 1.386 . S
C424 C426 1.391 . S
C425 C424 1.386 . S
C425 C429 1.393 . S
C426 H418 0.950 . S
C426 C424 1.391 . S
C426 C427 1.400 . S
C427 C426 1.400 . S
C427 C428 1.398 . S
C427 C433 1.491 . S
C428 H419 0.950 . S
C428 C427 1.398 . S
C428 C429 1.391 . S
C429 H417 0.950 . S
C429 C425 1.393 . S
C429 C428 1.391 . S
C430 H420 0.950 . S
C430 C431 1.386 . S
C430 C432 1.391 . S
C431 C430 1.386 . S
C431 C435 1.393 . S
C432 H421 0.950 . S
C432 C430 1.391 . S
C432 C433 1.400 . S
C433 C427 1.491 . S
C433 C432 1.400 . S
C433 C434 1.398 . S
C434 H422 0.950 . S
C434 C433 1.398 . S
C434 C435 1.391 . S
C435 H423 0.950 . S
C435 C431 1.393 . S
C435 C434 1.391 . S
H436 C444 0.950 . S
H437 C449 0.950 . S
H438 C446 0.950 . S
H439 C448 0.950 . S
H440 C450 0.950 . S
H441 C452 0.950 . S
H442 C454 0.950 . S
H443 C455 0.950 . S
C444 H436 0.950 . S
C444 C445 1.386 . S
C444 C446 1.391 . S
C445 C444 1.386 . S
C445 C449 1.393 . S
C446 H438 0.950 . S
C446 C444 1.391 . S
C446 C447 1.400 . S
C447 C446 1.400 . S
C447 C448 1.398 . S
C447 C453 1.491 . S
C448 H439 0.950 . S
C448 C447 1.398 . S
C448 C449 1.391 . S
C449 H437 0.950 . S
C449 C445 1.393 . S
C449 C448 1.391 . S
C450 H440 0.950 . S
C450 C451 1.386 . S
C450 C452 1.391 . S
C451 C450 1.386 . S
C451 C455 1.393 . S
C452 H441 0.950 . S
C452 C450 1.391 . S
C452 C453 1.400 . S
C453 C447 1.491 . S
C453 C452 1.400 . S
C453 C454 1.398 . S
C454 H442 0.950 . S
C454 C453 1.398 . S
C454 C455 1.391 . S
C455 H443 0.950 . S
C455 C451 1.393 . S
C455 C454 1.391 . S
H456 C464 0.950 . S
H457 C469 0.950 . S
H458 C466 0.950 . S
H459 C468 0.950 . S
H460 C470 0.950 . S
H461 C472 0.950 . S
H462 C474 0.950 . S
H463 C475 0.950 . S
C464 H456 0.950 . S
C464 C465 1.386 . S
C464 C466 1.391 . S
C465 C464 1.386 . S
C465 C469 1.393 . S
C466 H458 0.950 . S
C466 C464 1.391 . S
C466 C467 1.400 . S
C467 C466 1.400 . S
C467 C468 1.398 . S
C467 C473 1.491 . S
C468 H459 0.950 . S
C468 C467 1.398 . S
C468 C469 1.391 . S
C469 H457 0.950 . S
C469 C465 1.393 . S
C469 C468 1.391 . S
C470 H460 0.950 . S
C470 C471 1.386 . S
C470 C472 1.391 . S
C471 C470 1.386 . S
C471 C475 1.393 . S
C472 H461 0.950 . S
C472 C470 1.391 . S
C472 C473 1.400 . S
C473 C467 1.491 . S
C473 C472 1.400 . S
C473 C474 1.398 . S
C474 H462 0.950 . S
C474 C473 1.398 . S
C474 C475 1.391 . S
C475 H463 0.950 . S
C475 C471 1.393 . S
C475 C474 1.391 . S
H476 C484 0.950 . S
H477 C489 0.950 . S
H478 C486 0.950 . S
H479 C488 0.950 . S
H480 C490 0.950 . S
H481 C492 0.950 . S
H482 C494 0.950 . S
H483 C495 0.950 . S
C484 H476 0.950 . S
C484 C485 1.386 . S
C484 C486 1.391 . S
C485 C484 1.386 . S
C485 C489 1.393 . S
C486 H478 0.950 . S
C486 C484 1.391 . S
C486 C487 1.400 . S
C487 C486 1.400 . S
C487 C488 1.398 . S
C487 C493 1.491 . S
C488 H479 0.950 . S
C488 C487 1.398 . S
C488 C489 1.391 . S
C489 H477 0.950 . S
C489 C485 1.393 . S
C489 C488 1.391 . S
C490 H480 0.950 . S
C490 C491 1.386 . S
C490 C492 1.391 . S
C491 C490 1.386 . S
C491 C495 1.393 . S
C492 H481 0.950 . S
C492 C490 1.391 . S
C492 C493 1.400 . S
C493 C487 1.491 . S
C493 C492 1.400 . S
C493 C494 1.398 . S
C494 H482 0.950 . S
C494 C493 1.398 . S
C494 C495 1.391 . S
C495 H483 0.950 . S
C495 C491 1.393 . S
C495 C494 1.391 . S
H496 C504 0.950 . S
H497 C509 0.950 . S
H498 C506 0.950 . S
H499 C508 0.950 . S
H500 C510 0.947 1_556 S
H501 C512 0.950 . S
H502 C514 0.950 . S
H503 C515 0.950 . S
C504 H496 0.950 . S
C504 C505 1.386 . S
C504 C506 1.391 . S
C505 C504 1.386 . S
C505 C509 1.393 1_554 S
C506 H498 0.950 . S
C506 C504 1.391 . S
C506 C507 1.400 . S
C507 C506 1.400 . S
C507 C508 1.398 1_554 S
C507 C513 1.491 . S
C508 H499 0.950 . S
C508 C507 1.398 1_556 S
C508 C509 1.391 . S
C509 H497 0.950 . S
C509 C505 1.393 1_556 S
C509 C508 1.391 . S
C510 H500 0.947 1_554 S
C510 C511 1.388 . S
C510 C512 1.392 1_554 S
C511 C510 1.388 . S
C511 C515 1.393 . S
C512 H501 0.950 . S
C512 C510 1.392 1_556 S
C512 C513 1.400 1_556 S
C513 C507 1.491 . S
C513 C512 1.400 1_554 S
C513 C514 1.398 . S
C514 H502 0.950 . S
C514 C513 1.398 . S
C514 C515 1.391 . S
C515 H503 0.950 . S
C515 C511 1.393 . S
C515 C514 1.391 . S
H516 C524 0.950 . S
H517 C529 0.950 . S
H518 C526 0.950 . S
H519 C528 0.950 . S
H520 C530 0.950 . S
H521 C532 0.950 . S
H522 C534 0.950 . S
H523 C535 0.950 . S
C524 H516 0.950 . S
C524 C525 1.386 . S
C524 C526 1.391 . S
C525 C524 1.386 . S
C525 C529 1.393 . S
C526 H518 0.950 . S
C526 C524 1.391 . S
C526 C527 1.400 . S
C527 C526 1.400 . S
C527 C528 1.398 . S
C527 C533 1.491 . S
C528 H519 0.950 . S
C528 C527 1.398 . S
C528 C529 1.391 . S
C529 H517 0.950 . S
C529 C525 1.393 . S
C529 C528 1.391 . S
C530 H520 0.950 . S
C530 C531 1.386 . S
C530 C532 1.391 . S
C531 C530 1.386 . S
C531 C535 1.393 . S
C532 H521 0.950 . S
C532 C530 1.391 . S
C532 C533 1.400 . S
C533 C527 1.491 . S
C533 C532 1.400 . S
C533 C534 1.398 . S
C534 H522 0.950 . S
C534 C533 1.398 . S
C534 C535 1.391 . S
C535 H523 0.950 . S
C535 C531 1.393 . S
C535 C534 1.391 . S
H536 C544 0.950 . S
H537 C549 0.950 . S
H538 C546 0.950 . S
H539 C548 0.950 . S
H540 C550 0.950 . S
H541 C552 0.950 . S
H542 C554 0.950 . S
H543 C555 0.950 . S
C544 H536 0.950 . S
C544 C545 1.386 . S
C544 C546 1.391 . S
C545 C544 1.386 . S
C545 C549 1.393 1_554 S
C546 H538 0.950 . S
C546 C544 1.391 . S
C546 C547 1.400 . S
C547 C546 1.400 . S
C547 C548 1.398 1_554 S
C547 C553 1.491 . S
C548 H539 0.950 . S
C548 C547 1.398 1_556 S
C548 C549 1.391 . S
C549 H537 0.950 . S
C549 C545 1.393 1_556 S
C549 C548 1.391 . S
C550 H540 0.950 . S
C550 C551 1.386 1_556 S
C550 C552 1.391 . S
C551 C550 1.386 1_554 S
C551 C555 1.393 . S
C552 H541 0.950 . S
C552 C550 1.391 . S
C552 C553 1.400 1_556 S
C553 C547 1.491 . S
C553 C552 1.400 1_554 S
C553 C554 1.398 . S
C554 H542 0.950 . S
C554 C553 1.398 . S
C554 C555 1.391 . S
C555 H543 0.950 . S
C555 C551 1.393 . S
C555 C554 1.391 . S
H556 C564 0.950 . S
H557 C569 0.950 . S
H558 C566 0.950 . S
H559 C568 0.950 . S
H560 C570 0.950 . S
H561 C572 0.950 . S
H562 C574 0.950 . S
H563 C575 0.950 . S
C564 H556 0.950 . S
C564 C565 1.386 . S
C564 C566 1.391 . S
C565 C564 1.386 . S
C565 C569 1.393 . S
C566 H558 0.950 . S
C566 C564 1.391 . S
C566 C567 1.400 . S
C567 C566 1.400 . S
C567 C568 1.398 . S
C567 C573 1.491 . S
C568 H559 0.950 . S
C568 C567 1.398 . S
C568 C569 1.391 . S
C569 H557 0.950 . S
C569 C565 1.393 . S
C569 C568 1.391 . S
C570 H560 0.950 . S
C570 C571 1.386 . S
C570 C572 1.391 . S
C571 C570 1.386 . S
C571 C575 1.393 . S
C572 H561 0.950 . S
C572 C570 1.391 . S
C572 C573 1.400 . S
C573 C567 1.491 . S
C573 C572 1.400 . S
C573 C574 1.398 . S
C574 H562 0.950 . S
C574 C573 1.398 . S
C574 C575 1.391 . S
C575 H563 0.950 . S
C575 C571 1.393 . S
C575 C574 1.391 . S
H576 C584 0.950 . S
H577 C589 0.950 . S
H578 C586 0.950 . S
H579 C588 0.950 . S
H580 C590 0.950 . S
H581 C592 0.950 . S
H582 C594 0.950 . S
H583 C595 0.950 . S
C584 H576 0.950 . S
C584 C585 1.386 . S
C584 C586 1.391 . S
C585 C584 1.386 . S
C585 C589 1.393 . S
C586 H578 0.950 . S
C586 C584 1.391 . S
C586 C587 1.400 . S
C587 C586 1.400 . S
C587 C588 1.398 . S
C587 C593 1.491 . S
C588 H579 0.950 . S
C588 C587 1.398 . S
C588 C589 1.391 . S
C589 H577 0.950 . S
C589 C585 1.393 . S
C589 C588 1.391 . S
C590 H580 0.950 . S
C590 C591 1.386 . S
C590 C592 1.391 . S
C591 C590 1.386 . S
C591 C595 1.393 . S
C592 H581 0.950 . S
C592 C590 1.391 . S
C592 C593 1.400 . S
C593 C587 1.491 . S
C593 C592 1.400 . S
C593 C594 1.398 . S
C594 H582 0.950 . S
C594 C593 1.398 . S
C594 C595 1.391 . S
C595 H583 0.950 . S
C595 C591 1.393 . S
C595 C594 1.391 . S
H596 C604 0.950 . S
H597 C609 0.950 . S
H598 C606 0.950 . S
H599 C608 0.950 . S
H600 C610 0.949 . S
H601 C612 0.949 1_556 S
H602 C614 0.950 . S
H603 C615 0.950 . S
C604 H596 0.950 . S
C604 C605 1.386 . S
C604 C606 1.391 . S
C605 C604 1.386 . S
C605 C609 1.393 . S
C606 H598 0.950 . S
C606 C604 1.391 . S
C606 C607 1.400 . S
C607 C606 1.400 . S
C607 C608 1.398 . S
C607 C613 1.491 . S
C608 H599 0.950 . S
C608 C607 1.398 . S
C608 C609 1.391 . S
C609 H597 0.950 . S
C609 C605 1.393 . S
C609 C608 1.391 . S
C610 H600 0.949 . S
C610 C611 1.386 1_556 S
C610 C612 1.391 1_556 S
C611 C610 1.386 1_554 S
C611 C615 1.393 . S
C612 H601 0.949 1_554 S
C612 C610 1.391 1_554 S
C612 C613 1.401 . S
C613 C607 1.491 . S
C613 C612 1.401 . S
C613 C614 1.398 . S
C614 H602 0.950 . S
C614 C613 1.398 . S
C614 C615 1.391 . S
C615 H603 0.950 . S
C615 C611 1.393 . S
C615 C614 1.391 . S
H616 C624 0.950 . S
H617 C629 0.950 . S
H618 C626 0.950 . S
H619 C628 0.950 . S
H620 C630 0.950 . S
H621 C632 0.950 . S
H622 C634 0.950 . S
H623 C635 0.950 . S
C624 H616 0.950 . S
C624 C625 1.386 . S
C624 C626 1.391 . S
C625 C624 1.386 . S
C625 C629 1.393 . S
C626 H618 0.950 . S
C626 C624 1.391 . S
C626 C627 1.400 . S
C627 C626 1.400 . S
C627 C628 1.398 . S
C627 C633 1.491 . S
C628 H619 0.950 . S
C628 C627 1.398 . S
C628 C629 1.391 . S
C629 H617 0.950 . S
C629 C625 1.393 . S
C629 C628 1.391 . S
C630 H620 0.950 . S
C630 C631 1.386 . S
C630 C632 1.391 . S
C631 C630 1.386 . S
C631 C635 1.393 . S
C632 H621 0.950 . S
C632 C630 1.391 . S
C632 C633 1.400 . S
C633 C627 1.491 . S
C633 C632 1.400 . S
C633 C634 1.398 . S
C634 H622 0.950 . S
C634 C633 1.398 . S
C634 C635 1.391 . S
C635 H623 0.950 . S
C635 C631 1.393 . S
C635 C634 1.391 . S
H636 C644 0.950 . S
H637 C649 0.950 . S
H638 C646 0.950 . S
H639 C648 0.950 . S
H640 C650 0.950 . S
H641 C652 0.950 . S
H642 C654 0.950 . S
H643 C655 0.950 . S
C644 H636 0.950 . S
C644 C645 1.386 1_556 S
C644 C646 1.391 . S
C645 C644 1.386 1_554 S
C645 C649 1.393 . S
C646 H638 0.950 . S
C646 C644 1.391 . S
C646 C647 1.400 1_556 S
C647 C646 1.400 1_554 S
C647 C648 1.398 . S
C647 C653 1.491 . S
C648 H639 0.950 . S
C648 C647 1.398 . S
C648 C649 1.391 . S
C649 H637 0.950 . S
C649 C645 1.393 . S
C649 C648 1.391 . S
C650 H640 0.950 . S
C650 C651 1.386 . S
C650 C652 1.391 . S
C651 C650 1.386 . S
C651 C655 1.393 1_554 S
C652 H641 0.950 . S
C652 C650 1.391 . S
C652 C653 1.400 . S
C653 C647 1.491 . S
C653 C652 1.400 . S
C653 C654 1.398 1_554 S
C654 H642 0.950 . S
C654 C653 1.398 1_556 S
C654 C655 1.391 . S
C655 H643 0.950 . S
C655 C651 1.393 1_556 S
C655 C654 1.391 . S
C185 C5 1.431 . S
C191 C127 1.460 . S
C205 C31 1.456 . S
C211 C94 1.469 . S
C231 C108 1.459 . S
C225 C53 1.490 . S
C245 C71 1.465 . S
C251 C119 1.452 . S
C271 C152 1.448 . S
C265 C75 1.472 . S
C291 C163 1.468 . S
C285 C9 1.484 . S
C311 C171 1.473 . S
C305 C27 1.449 . S
C331 C138 1.459 . S
C325 C49 1.435 . S
C345 C51 1.443 . S
C351 C105 1.447 . S
C365 C72 1.458 . S
C371 C116 1.460 . S
C385 C6 1.491 . S
C391 C130 1.462 . S
C411 C97 1.448 . S
C405 C29 1.475 . S
C425 C28 1.473 . S
C431 C174 1.453 . S
C451 C141 1.464 . S
C445 C50 1.490 . S
C471 C149 1.468 . S
C465 C73 1.452 . S
C485 C7 1.431 . S
C491 C160 1.455 . S
C511 N92 1.501 . S
C505 C4 1.500 . S
C531 N103 1.505 . S
C525 C30 1.502 . S
C545 C52 1.495 . S
C551 N114 1.512 . S
C565 C70 1.507 . S
C571 N125 1.499 . S
C591 N136 1.511 . S
C585 C74 1.496 . S
C605 C8 1.503 . S
C611 N147 1.513 . S
C625 C26 1.496 . S
C631 N158 1.507 . S
C645 C48 1.495 . S
C651 N169 1.507 . S
