# Generated by pormake.
# Topology pyr, (3,6)-cn, num edge types: 1
# Building blocks:
#     Node 0, Type 0, BuildingBlock: KAKCAD_clean_linker_0, # of connection points: 3
#     Node 1, Type 0, BuildingBlock: KAKCAD_clean_linker_0, # of connection points: 3
#     Node 2, Type 0, BuildingBlock: KAKCAD_clean_linker_0, # of connection points: 3
#     Node 3, Type 0, BuildingBlock: KAKCAD_clean_linker_0, # of connection points: 3
#     Node 4, Type 0, BuildingBlock: KAKCAD_clean_linker_0, # of connection points: 3
#     Node 5, Type 0, BuildingBlock: KAKCAD_clean_linker_0, # of connection points: 3
#     Node 6, Type 0, BuildingBlock: KAKCAD_clean_linker_0, # of connection points: 3
#     Node 7, Type 0, BuildingBlock: KAKCAD_clean_linker_0, # of connection points: 3
#     Node 8, Type 1, BuildingBlock: PAMTUU_clean_sbu_0, # of connection points: 6
#     Node 9, Type 1, BuildingBlock: PAMTUU_clean_sbu_0, # of connection points: 6
#     Node 10, Type 1, BuildingBlock: PAMTUU_clean_sbu_0, # of connection points: 6
#     Node 11, Type 1, BuildingBlock: PAMTUU_clean_sbu_0, # of connection points: 6
#     Edge 12, Type (0, 1), BuildingBlock: MIFKUJ_clean_linker_0, # of connection points: 2
#     Edge 13, Type (0, 1), BuildingBlock: MIFKUJ_clean_linker_0, # of connection points: 2
#     Edge 14, Type (0, 1), BuildingBlock: MIFKUJ_clean_linker_0, # of connection points: 2
#     Edge 15, Type (0, 1), BuildingBlock: MIFKUJ_clean_linker_0, # of connection points: 2
#     Edge 16, Type (0, 1), BuildingBlock: MIFKUJ_clean_linker_0, # of connection points: 2
#     Edge 17, Type (0, 1), BuildingBlock: MIFKUJ_clean_linker_0, # of connection points: 2
#     Edge 18, Type (0, 1), BuildingBlock: MIFKUJ_clean_linker_0, # of connection points: 2
#     Edge 19, Type (0, 1), BuildingBlock: MIFKUJ_clean_linker_0, # of connection points: 2
#     Edge 20, Type (0, 1), BuildingBlock: MIFKUJ_clean_linker_0, # of connection points: 2
#     Edge 21, Type (0, 1), BuildingBlock: MIFKUJ_clean_linker_0, # of connection points: 2
#     Edge 22, Type (0, 1), BuildingBlock: MIFKUJ_clean_linker_0, # of connection points: 2
#     Edge 23, Type (0, 1), BuildingBlock: MIFKUJ_clean_linker_0, # of connection points: 2
#     Edge 24, Type (0, 1), BuildingBlock: MIFKUJ_clean_linker_0, # of connection points: 2
#     Edge 25, Type (0, 1), BuildingBlock: MIFKUJ_clean_linker_0, # of connection points: 2
#     Edge 26, Type (0, 1), BuildingBlock: MIFKUJ_clean_linker_0, # of connection points: 2
#     Edge 27, Type (0, 1), BuildingBlock: MIFKUJ_clean_linker_0, # of connection points: 2
#     Edge 28, Type (0, 1), BuildingBlock: MIFKUJ_clean_linker_0, # of connection points: 2
#     Edge 29, Type (0, 1), BuildingBlock: MIFKUJ_clean_linker_0, # of connection points: 2
#     Edge 30, Type (0, 1), BuildingBlock: MIFKUJ_clean_linker_0, # of connection points: 2
#     Edge 31, Type (0, 1), BuildingBlock: MIFKUJ_clean_linker_0, # of connection points: 2
#     Edge 32, Type (0, 1), BuildingBlock: MIFKUJ_clean_linker_0, # of connection points: 2
#     Edge 33, Type (0, 1), BuildingBlock: MIFKUJ_clean_linker_0, # of connection points: 2
#     Edge 34, Type (0, 1), BuildingBlock: MIFKUJ_clean_linker_0, # of connection points: 2
#     Edge 35, Type (0, 1), BuildingBlock: MIFKUJ_clean_linker_0, # of connection points: 2
# Relax obj value: 0.062
# Max RMSD: 0.110
# Mean RMSD: 0.047
data_MOF--net-pyr--node1-PAMTUU_clean_sbu_0--node2-KAKCAD_clean_linker_0--edge1-MIFKUJ_clean_linker_0
_symmetry_space_group_name_H-M    P1
_symmetry_Int_Tables_number       1
_symmetry_cell_setting            triclinic
loop_
_symmetry_equiv_pos_as_xyz
'x, y, z'
_cell_length_a     58.114395
_cell_length_b     58.874333
_cell_length_c     57.461728
_cell_angle_alpha  90.582754
_cell_angle_beta   89.272268
_cell_angle_gamma 99.19026
loop_
_atom_site_label
_atom_site_type_symbol
_atom_site_fract_x
_atom_site_fract_y
_atom_site_fract_z
_atom_type_partial_charge
C0 C 0.24904 0.23509 0.27056 0.0
C1 C 0.26118 0.22755 0.2892 0.0
C2 C 0.26102 0.24574 0.25147 0.0
C3 C 0.28552 0.24937 0.25055 0.0
C4 C 0.29777 0.24244 0.2695 0.0
C5 C 0.28569 0.23168 0.28871 0.0
C6 C 0.29782 0.25905 0.22915 0.0
C7 C 0.28919 0.27631 0.21685 0.0
C8 C 0.29748 0.28257 0.19442 0.0
C9 C 0.31574 0.27243 0.1848 0.0
C10 C 0.32502 0.25549 0.19706 0.0
C11 C 0.3161 0.24904 0.21932 0.0
C12 C 0.34182 0.24239 0.18552 0.0
C13 C 0.33782 0.23411 0.16268 0.0
C14 C 0.36098 0.23677 0.19761 0.0
C15 C 0.37563 0.22284 0.18717 0.0
C16 C 0.37131 0.21412 0.16448 0.0
C17 C 0.28488 0.29725 0.18002 0.0
C18 C 0.26041 0.29286 0.17954 0.0
C19 C 0.29686 0.31496 0.16617 0.0
C20 C 0.2845 0.32814 0.15224 0.0
C21 C 0.26 0.32355 0.15172 0.0
C22 C 0.24814 0.30585 0.16559 0.0
C23 C 0.35233 0.22011 0.15232 0.0
H24 H 0.23016 0.23246 0.27058 0.0
H25 H 0.25096 0.25046 0.23706 0.0
H26 H 0.31664 0.2451 0.26935 0.0
H27 H 0.29551 0.22598 0.30281 0.0
H28 H 0.27519 0.28425 0.22435 0.0
H29 H 0.32218 0.23499 0.22818 0.0
H30 H 0.3219 0.27686 0.16729 0.0
H31 H 0.32291 0.23772 0.15308 0.0
H32 H 0.36452 0.24303 0.21521 0.0
H33 H 0.39026 0.2188 0.19692 0.0
H34 H 0.25069 0.27908 0.18971 0.0
H35 H 0.31573 0.31867 0.16622 0.0
H36 H 0.34814 0.21333 0.13503 0.0
H37 H 0.22927 0.30212 0.16582 0.0
H38 H 0.29406 0.34167 0.14166 0.0
C39 C 0.23187 0.81344 0.77927 0.0
C40 C 0.25637 0.81717 0.77828 0.0
C41 C 0.2189 0.80247 0.76079 0.0
C42 C 0.23021 0.7949 0.74107 0.0
C43 C 0.25471 0.79826 0.7404 0.0
C44 C 0.26759 0.80916 0.75878 0.0
C45 C 0.21683 0.78459 0.72061 0.0
C46 C 0.19835 0.79463 0.71188 0.0
C47 C 0.18783 0.78713 0.69061 0.0
C48 C 0.19599 0.7692 0.67822 0.0
C49 C 0.21442 0.75907 0.68672 0.0
C50 C 0.22432 0.76642 0.70815 0.0
C51 C 0.22581 0.74339 0.67184 0.0
C52 C 0.23064 0.72246 0.68053 0.0
C53 C 0.23453 0.75079 0.64981 0.0
C54 C 0.24894 0.73814 0.63726 0.0
C55 C 0.25443 0.71766 0.64632 0.0
C56 C 0.1701 0.7996 0.68026 0.0
C57 C 0.15354 0.80838 0.69437 0.0
C58 C 0.17046 0.80395 0.65622 0.0
C59 C 0.15516 0.81722 0.64666 0.0
C60 C 0.1393 0.82684 0.66089 0.0
C61 C 0.13837 0.8219 0.68481 0.0
C62 C 0.24468 0.70954 0.66772 0.0
H63 H 0.22273 0.81952 0.79404 0.0
H64 H 0.20004 0.80005 0.76185 0.0
H65 H 0.26403 0.79302 0.72535 0.0
H66 H 0.28644 0.81147 0.75761 0.0
H67 H 0.19326 0.80934 0.72087 0.0
H68 H 0.23884 0.75882 0.71446 0.0
H69 H 0.18843 0.76339 0.66163 0.0
H70 H 0.22419 0.71652 0.69754 0.0
H71 H 0.23131 0.76703 0.6429 0.0
H72 H 0.25643 0.7447 0.62082 0.0
H73 H 0.15254 0.80512 0.7129 0.0
H74 H 0.18312 0.79781 0.64478 0.0
H75 H 0.24891 0.69386 0.67505 0.0
H76 H 0.12648 0.82912 0.69632 0.0
H77 H 0.15609 0.82028 0.62809 0.0
C78 C 0.73804 0.41466 0.8675 0.0
C79 C 0.75353 0.40147 0.87762 0.0
C80 C 0.71741 0.40409 0.85657 0.0
C81 C 0.71147 0.37992 0.85526 0.0
C82 C 0.72718 0.36679 0.86501 0.0
C83 C 0.74765 0.37732 0.87606 0.0
C84 C 0.68879 0.36835 0.84458 0.0
C85 C 0.6789 0.37777 0.82517 0.0
C86 C 0.65747 0.36711 0.81548 0.0
C87 C 0.64586 0.34655 0.82582 0.0
C88 C 0.65557 0.33646 0.84486 0.0
C89 C 0.67684 0.34764 0.85402 0.0
C90 C 0.64405 0.31403 0.85532 0.0
C91 C 0.62059 0.31067 0.86283 0.0
C92 C 0.65699 0.29609 0.85899 0.0
C93 C 0.64689 0.27552 0.86987 0.0
C94 C 0.62361 0.27233 0.87794 0.0
C95 C 0.64748 0.37729 0.79438 0.0
C96 C 0.66198 0.38663 0.7758 0.0
C97 C 0.62338 0.37782 0.79252 0.0
C98 C 0.61419 0.38751 0.77299 0.0
C99 C 0.62869 0.39678 0.75437 0.0
C100 C 0.65276 0.39605 0.75615 0.0
C101 C 0.6106 0.29025 0.87422 0.0
H102 H 0.74184 0.43326 0.86786 0.0
H103 H 0.70588 0.41498 0.84954 0.0
H104 H 0.72374 0.34819 0.86414 0.0
H105 H 0.75867 0.36631 0.88376 0.0
H106 H 0.68793 0.39349 0.81754 0.0
H107 H 0.68378 0.3403 0.86911 0.0
H108 H 0.62965 0.3379 0.81855 0.0
H109 H 0.61012 0.32412 0.86046 0.0
H110 H 0.67507 0.298 0.85343 0.0
H111 H 0.65753 0.26227 0.87248 0.0
H112 H 0.68056 0.38643 0.77627 0.0
H113 H 0.61154 0.37101 0.80638 0.0
H114 H 0.5926 0.28841 0.88003 0.0
H115 H 0.66466 0.4031 0.74244 0.0
H116 H 0.59557 0.38746 0.77237 0.0
C117 C 0.86822 0.63037 0.26518 0.0
C118 C 0.89241 0.63337 0.26082 0.0
C119 C 0.85906 0.64055 0.28471 0.0
C120 C 0.87376 0.65395 0.30075 0.0
C121 C 0.89798 0.65701 0.29631 0.0
C122 C 0.90713 0.64697 0.27665 0.0
C123 C 0.86385 0.66441 0.32202 0.0
C124 C 0.84382 0.65267 0.33353 0.0
C125 C 0.83422 0.66212 0.35337 0.0
C126 C 0.84505 0.6837 0.36177 0.0
C127 C 0.865 0.69599 0.35079 0.0
C128 C 0.87427 0.6861 0.33095 0.0
C129 C 0.87586 0.71913 0.36026 0.0
C130 C 0.86179 0.73461 0.36934 0.0
C131 C 0.90024 0.72572 0.36115 0.0
C132 C 0.91018 0.74682 0.37132 0.0
C133 C 0.89603 0.76194 0.38097 0.0
C134 C 0.81278 0.64968 0.36536 0.0
C135 C 0.79383 0.63825 0.35252 0.0
C136 C 0.81076 0.64976 0.38982 0.0
C137 C 0.79034 0.63912 0.40107 0.0
C138 C 0.77122 0.62802 0.38824 0.0
C139 C 0.77336 0.62763 0.36378 0.0
C140 C 0.87169 0.75558 0.37956 0.0
H141 H 0.85624 0.6204 0.25325 0.0
H142 H 0.84031 0.63809 0.28703 0.0
H143 H 0.91003 0.66682 0.30828 0.0
H144 H 0.92586 0.6495 0.27411 0.0
H145 H 0.83595 0.63578 0.32743 0.0
H146 H 0.88923 0.69566 0.32205 0.0
H147 H 0.83781 0.69104 0.37702 0.0
H148 H 0.84297 0.73056 0.36852 0.0
H149 H 0.91171 0.71428 0.35457 0.0
H150 H 0.92898 0.75098 0.37218 0.0
H151 H 0.79459 0.63793 0.33368 0.0
H152 H 0.82502 0.65809 0.40039 0.0
H153 H 0.86017 0.76692 0.38625 0.0
H154 H 0.7592 0.61905 0.35325 0.0
H155 H 0.7894 0.64004 0.41987 0.0
C156 C 0.7566 0.79786 0.76275 0.0
C157 C 0.76533 0.82152 0.76324 0.0
C158 C 0.74459 0.78729 0.782 0.0
C159 C 0.74127 0.80013 0.80221 0.0
C160 C 0.74989 0.82386 0.80254 0.0
C161 C 0.76168 0.83444 0.78324 0.0
C162 C 0.72975 0.78875 0.82324 0.0
C163 C 0.73451 0.76719 0.83007 0.0
C164 C 0.72499 0.75687 0.85073 0.0
C165 C 0.71046 0.76846 0.86473 0.0
C166 C 0.70573 0.79018 0.85824 0.0
C167 C 0.71512 0.79998 0.83733 0.0
C168 C 0.69198 0.80341 0.87366 0.0
C169 C 0.67043 0.79323 0.88313 0.0
C170 C 0.70019 0.82674 0.87837 0.0
C171 C 0.6869 0.83982 0.89173 0.0
C172 C 0.66502 0.82991 0.90065 0.0
C173 C 0.73226 0.7351 0.85844 0.0
C174 C 0.73484 0.71765 0.84216 0.0
C175 C 0.73918 0.73271 0.88151 0.0
C176 C 0.74987 0.71405 0.88777 0.0
C177 C 0.75391 0.69749 0.87107 0.0
C178 C 0.74564 0.69909 0.84838 0.0
C179 C 0.65698 0.80642 0.8964 0.0
H180 H 0.75897 0.78756 0.74744 0.0
H181 H 0.7379 0.76905 0.78105 0.0
H182 H 0.7481 0.8342 0.81795 0.0
H183 H 0.76853 0.85264 0.78421 0.0
H184 H 0.74671 0.75895 0.81988 0.0
H185 H 0.71107 0.81652 0.83209 0.0
H186 H 0.7034 0.76092 0.88094 0.0
H187 H 0.6637 0.77529 0.87973 0.0
H188 H 0.71688 0.83495 0.87151 0.0
H189 H 0.69346 0.85791 0.89447 0.0
H190 H 0.72929 0.71881 0.82434 0.0
H191 H 0.73767 0.74594 0.89441 0.0
H192 H 0.64024 0.7983 0.9032 0.0
H193 H 0.74823 0.68638 0.83525 0.0
H194 H 0.75626 0.71338 0.90534 0.0
C195 C 0.78268 0.20273 0.25322 0.0
C196 C 0.77435 0.21601 0.23598 0.0
C197 C 0.79279 0.21301 0.27338 0.0
C198 C 0.79529 0.23697 0.27673 0.0
C199 C 0.78777 0.25041 0.2591 0.0
C200 C 0.77735 0.24004 0.23897 0.0
C201 C 0.8046 0.24753 0.29909 0.0
C202 C 0.82199 0.2384 0.31096 0.0
C203 C 0.82879 0.24614 0.3334 0.0
C204 C 0.81889 0.26414 0.34362 0.0
C205 C 0.80176 0.27385 0.33188 0.0
C206 C 0.79474 0.26539 0.30965 0.0
C207 C 0.78966 0.29143 0.3434 0.0
C208 C 0.78234 0.28897 0.36679 0.0
C209 C 0.78397 0.30999 0.33066 0.0
C210 C 0.77054 0.32521 0.34078 0.0
C211 C 0.7625 0.32226 0.3639 0.0
C212 C 0.8446 0.23387 0.34683 0.0
C213 C 0.84071 0.20969 0.34719 0.0
C214 C 0.8632 0.24591 0.35962 0.0
C215 C 0.87771 0.23392 0.3724 0.0
C216 C 0.87361 0.20973 0.37288 0.0
C217 C 0.855 0.19779 0.36007 0.0
C218 C 0.76892 0.30422 0.37693 0.0
H219 H 0.78113 0.18423 0.25133 0.0
H220 H 0.79799 0.20198 0.28663 0.0
H221 H 0.78968 0.26894 0.26093 0.0
H222 H 0.77106 0.2508 0.2261 0.0
H223 H 0.83002 0.22484 0.30293 0.0
H224 H 0.7806 0.27188 0.30116 0.0
H225 H 0.82397 0.27007 0.36101 0.0
H226 H 0.78612 0.27468 0.377 0.0
H227 H 0.78965 0.31255 0.31271 0.0
H228 H 0.76622 0.33917 0.33041 0.0
H229 H 0.82634 0.19994 0.33775 0.0
H230 H 0.86661 0.26454 0.35959 0.0
H231 H 0.76278 0.30131 0.39469 0.0
H232 H 0.85157 0.17915 0.3599 0.0
H233 H 0.89189 0.24355 0.3822 0.0
C234 C 0.26899 0.63321 0.17894 0.0
C235 C 0.26758 0.63192 0.15443 0.0
C236 C 0.28972 0.64328 0.19004 0.0
C237 C 0.30962 0.65267 0.17701 0.0
C238 C 0.30823 0.65116 0.15254 0.0
C239 C 0.28766 0.64093 0.14147 0.0
C240 C 0.33152 0.66474 0.18853 0.0
C241 C 0.34069 0.65584 0.20859 0.0
C242 C 0.36178 0.66681 0.21869 0.0
C243 C 0.37345 0.68739 0.2084 0.0
C244 C 0.36445 0.69696 0.18855 0.0
C245 C 0.34349 0.68535 0.17902 0.0
C246 C 0.37648 0.71904 0.17747 0.0
C247 C 0.38705 0.73795 0.19092 0.0
C248 C 0.37653 0.72179 0.15309 0.0
C249 C 0.38616 0.7427 0.14261 0.0
C250 C 0.39633 0.76181 0.156 0.0
C251 C 0.37171 0.6565 0.23971 0.0
C252 C 0.35728 0.64768 0.25853 0.0
C253 C 0.39566 0.65502 0.24108 0.0
C254 C 0.40475 0.64484 0.26037 0.0
C255 C 0.39033 0.63615 0.27926 0.0
C256 C 0.36644 0.6379 0.27801 0.0
C257 C 0.39674 0.75895 0.18039 0.0
H258 H 0.25408 0.62629 0.18961 0.0
H259 H 0.28996 0.64417 0.20887 0.0
H260 H 0.32316 0.65791 0.1418 0.0
H261 H 0.28739 0.64054 0.12264 0.0
H262 H 0.3318 0.63988 0.21589 0.0
H263 H 0.33602 0.69273 0.16427 0.0
H264 H 0.38958 0.69597 0.21587 0.0
H265 H 0.38734 0.73676 0.2097 0.0
H266 H 0.36899 0.7077 0.14192 0.0
H267 H 0.38512 0.74395 0.12388 0.0
H268 H 0.3388 0.64854 0.25833 0.0
H269 H 0.40739 0.66139 0.22698 0.0
H270 H 0.40465 0.77296 0.19146 0.0
H271 H 0.35465 0.63133 0.292 0.0
H272 H 0.42323 0.64404 0.2606 0.0
C273 C 0.14636 0.27646 0.66034 0.0
C274 C 0.12241 0.27203 0.65517 0.0
C275 C 0.15636 0.29713 0.67105 0.0
C276 C 0.14277 0.31407 0.67721 0.0
C277 C 0.11871 0.3095 0.67275 0.0
C278 C 0.1087 0.28884 0.66178 0.0
C279 C 0.15407 0.33665 0.68736 0.0
C280 C 0.17508 0.34796 0.67758 0.0
C281 C 0.18702 0.36864 0.68709 0.0
C282 C 0.17716 0.37819 0.70679 0.0
C283 C 0.15582 0.36753 0.71682 0.0
C284 C 0.1444 0.34676 0.70678 0.0
C285 C 0.1457 0.37795 0.73791 0.0
C286 C 0.16013 0.388 0.75602 0.0
C287 C 0.12154 0.3781 0.74014 0.0
C288 C 0.11218 0.38812 0.7597 0.0
C289 C 0.12663 0.39818 0.7778 0.0
C290 C 0.20971 0.37998 0.67628 0.0
C291 C 0.22518 0.36665 0.66581 0.0
C292 C 0.216 0.40411 0.67577 0.0
C293 C 0.23687 0.41448 0.66499 0.0
C294 C 0.25208 0.4011 0.65408 0.0
C295 C 0.24579 0.37698 0.65473 0.0
C296 C 0.15076 0.39789 0.77563 0.0
H297 H 0.15752 0.26387 0.65624 0.0
H298 H 0.17486 0.29984 0.67459 0.0
H299 H 0.10773 0.3222 0.67709 0.0
H300 H 0.09027 0.28635 0.65797 0.0
H301 H 0.1819 0.3407 0.66205 0.0
H302 H 0.12837 0.33801 0.71457 0.0
H303 H 0.18612 0.394 0.7144 0.0
H304 H 0.17876 0.38804 0.75521 0.0
H305 H 0.10982 0.37074 0.72656 0.0
H306 H 0.0935 0.38772 0.76073 0.0
H307 H 0.22147 0.34804 0.66614 0.0
H308 H 0.20463 0.41513 0.68336 0.0
H309 H 0.16257 0.40561 0.78898 0.0
H310 H 0.25656 0.36586 0.64634 0.0
H311 H 0.24105 0.43306 0.66536 0.0
Tb312 Tb 0.03156 0.02069 0.49865 0.0
Tb313 Tb 0.98458 0.01688 0.53173 0.0
C314 C 0.98971 0.97901 0.494 0.0
C315 C 0.08388 0.04287 0.4626 0.0
C316 C 0.11457 0.07871 0.44142 0.0
C317 C 0.11215 0.05617 0.43241 0.0
C318 C 0.09694 0.03841 0.44294 0.0
C319 C 0.0864 0.06527 0.47191 0.0
C320 C 0.10178 0.08307 0.46145 0.0
C321 C 0.06718 0.02411 0.47257 0.0
O322 O 0.01431 0.04914 0.48881 0.0
O323 O 0.97734 0.03281 0.49924 0.0
O324 O 1.00385 0.05125 0.53829 0.0
O325 O 0.04058 0.04581 0.52674 0.0
O326 O 0.94812 1.01014 0.53422 0.0
O327 O 0.96897 0.02164 0.56423 0.0
O328 O 1.00913 1.00074 0.55149 0.0
O329 O 0.03346 0.99235 0.52184 0.0
O330 O 1.00546 0.99394 0.48317 0.0
O331 O 0.98236 0.98318 0.51511 0.0
C332 C 0.9917 0.04835 0.48779 0.0
O333 O 0.06768 0.02173 0.49509 0.0
O334 O 0.04594 0.02225 0.46491 0.0
C335 C 0.02659 0.05774 0.53805 0.0
C336 C 0.93419 0.99605 0.57084 0.0
C337 C 0.90665 0.96259 0.59834 0.0
C338 C 0.90822 0.98615 0.60378 0.0
C339 C 0.92181 1.0027 0.5901 0.0
C340 C 0.9331 0.97259 0.56551 0.0
C341 C 0.91937 0.95598 0.5791 0.0
C342 C 0.94815 1.01384 0.55663 0.0
C343 C 0.02556 0.98983 0.5433 0.0
H344 H 0.122 0.05228 0.41716 0.0
H345 H 0.09516 0.02122 0.43556 0.0
H346 H 0.07628 0.06901 0.48704 0.0
H347 H 0.10319 0.10032 0.46863 0.0
H348 H 0.89908 0.99182 0.61875 0.0
H349 H 0.92266 0.02074 0.59457 0.0
H350 H 0.94272 0.96712 0.55075 0.0
H351 H 0.91841 0.93802 0.57432 0.0
Tb352 Tb 0.52604 0.02493 0.03974 0.0
Tb353 Tb 0.48632 0.01584 0.99961 0.0
C354 C 0.53156 0.9945 0.99621 0.0
C355 C 0.57983 0.04849 0.07316 0.0
C356 C 0.62163 0.07737 0.08492 0.0
C357 C 0.61894 0.05351 0.0887 0.0
C358 C 0.5982 0.03925 0.08297 0.0
C359 C 0.58294 0.07209 0.06797 0.0
C360 C 0.60367 0.08642 0.07384 0.0
C361 C 0.55718 0.03355 0.07022 0.0
O362 O 0.53034 0.05702 0.01994 0.0
O363 O 0.51324 0.04307 0.98579 0.0
O364 O 0.48007 0.04457 0.02138 0.0
O365 O 0.49312 0.03108 0.05465 0.0
O366 O 0.47724 1.01168 0.9644 0.0
O367 O 0.45101 1.01341 0.99116 0.0
O368 O 0.47496 0.98858 0.02529 0.0
O369 O 0.50814 0.9902 0.04733 0.0
O370 O 0.5417 1.01192 1.00879 0.0
O371 O 0.50886 0.99037 0.99407 0.0
C372 C 0.52642 0.05939 0.99764 0.0
O373 O 0.53887 0.04371 0.06921 0.0
O374 O 0.55634 0.01673 0.05518 0.0
C375 C 0.4804 0.04416 0.04412 0.0
C376 C 0.43949 0.99182 0.95727 0.0
C377 C 0.40946 0.95724 0.93347 0.0
C378 C 0.41371 0.97988 0.92506 0.0
C379 C 0.42859 0.99698 0.93686 0.0
C380 C 0.4353 0.96931 0.96592 0.0
C381 C 0.42029 0.95212 0.95412 0.0
C382 C 0.45505 1.01031 0.96906 0.0
C383 C 0.48719 0.97992 0.0413 0.0
H384 H 0.63263 0.04593 0.09674 0.0
H385 H 0.59622 0.02108 0.08693 0.0
H386 H 0.56907 0.07962 0.06019 0.0
H387 H 0.60513 0.10471 0.07076 0.0
H388 H 0.40536 0.98446 0.90943 0.0
H389 H 0.43158 1.01431 0.93003 0.0
H390 H 0.44366 0.96505 0.98169 0.0
H391 H 0.41747 0.93479 0.96092 0.0
Tb392 Tb 0.51045 0.49229 0.50215 0.0
Tb393 Tb 0.50778 0.53919 0.53181 0.0
C394 C 0.48646 0.53229 0.48062 0.0
C395 C 0.53709 0.44791 0.47188 0.0
C396 C 0.57806 0.43275 0.45561 0.0
C397 C 0.55596 0.42087 0.44943 0.0
C398 C 0.53564 0.42841 0.45751 0.0
C399 C 0.55906 0.45978 0.4782 0.0
C400 C 0.57938 0.45225 0.47017 0.0
C401 C 0.51581 0.45641 0.47959 0.0
O402 O 0.53931 0.51727 0.48947 0.0
O403 O 0.54428 0.5423 0.52043 0.0
O404 O 0.51774 0.51439 0.55658 0.0
O405 O 0.53478 0.49197 0.53113 0.0
O406 O 0.51367 0.57526 0.53475 0.0
O407 O 0.49925 0.55412 0.56343 0.0
O408 O 0.47215 0.52065 0.53139 0.0
O409 O 0.48013 0.4842 0.52525 0.0
O410 O 0.48703 0.50999 0.48161 0.0
O411 O 0.49582 0.54654 0.49701 0.0
C412 C 0.55192 0.5341 0.50091 0.0
O413 O 0.51229 0.4569 0.502 0.0
O414 O 0.51236 0.47546 0.46996 0.0
C415 C 0.5312 0.49877 0.55259 0.0
C416 C 0.48471 0.58839 0.55797 0.0
C417 C 0.44618 0.61121 0.56568 0.0
C418 C 0.46494 0.6141 0.58127 0.0
C419 C 0.48404 0.60277 0.57742 0.0
C420 C 0.46626 0.58569 0.54215 0.0
C421 C 0.4472 0.59708 0.54591 0.0
C422 C 0.50374 0.5749 0.55524 0.0
C423 C 0.46606 0.49823 0.53266 0.0
H424 H 0.55437 0.40563 0.43848 0.0
H425 H 0.51882 0.41911 0.45244 0.0
H426 H 0.56048 0.47501 0.48917 0.0
H427 H 0.5961 0.46192 0.47502 0.0
H428 H 0.46457 0.62456 0.59684 0.0
H429 H 0.49803 0.6048 0.58994 0.0
H430 H 0.46642 0.57445 0.52711 0.0
H431 H 0.43321 0.5947 0.53342 0.0
Tb432 Tb 1.00798 0.5421 1.00507 0.0
Tb433 Tb 1.00981 0.49378 0.03058 0.0
C434 C 0.03045 0.50289 0.98075 0.0
C435 C 0.98324 0.58553 0.97168 0.0
C436 C 0.9427 0.59455 0.9495 0.0
C437 C 0.9564 0.5795 0.93917 0.0
C438 C 0.97642 0.57483 0.95028 0.0
C439 C 0.97015 0.60146 0.98128 0.0
C440 C 0.95 0.60578 0.97042 0.0
C441 C 1.00246 0.57898 0.98539 0.0
O442 O 0.97262 0.52271 1.00178 0.0
O443 O 0.98058 0.48616 1.00652 0.0
O444 O 0.98497 0.51081 0.0506 0.0
O445 O 1.00285 0.54703 0.04236 0.0
O446 O 1.00967 0.45815 0.02825 0.0
O447 O 0.012 0.47557 0.0615 0.0
O448 O 0.03989 0.51715 0.0441 0.0
O449 O 0.044 0.5466 0.01754 0.0
O450 O 0.01617 0.51786 0.97817 0.0
O451 O 0.03475 0.49591 1.00164 0.0
C452 C 0.96677 0.50027 0.99933 0.0
O453 O 0.99723 0.57435 1.00708 0.0
O454 O 0.01454 0.5642 0.97625 0.0
C455 C 0.98901 0.53287 0.05579 0.0
C456 C 0.03545 0.44727 0.05535 0.0
C457 C 0.0767 0.43018 0.06557 0.0
C458 C 0.05489 0.41846 0.07314 0.0
C459 C 0.03439 0.42698 0.06807 0.0
C460 C 0.05711 0.45894 0.04765 0.0
C461 C 0.07755 0.45047 0.0527 0.0
C462 C 0.0142 0.45669 0.05028 0.0
C463 C 0.05193 0.536 0.03518 0.0
H464 H 0.95122 0.57077 0.92295 0.0
H465 H 0.98614 0.56244 0.94244 0.0
H466 H 0.97509 0.61002 0.99767 0.0
H467 H 0.93994 0.61776 0.97853 0.0
H468 H 0.05369 0.40294 0.08334 0.0
H469 H 0.01779 0.41785 0.0742 0.0
H470 H 0.05821 0.47465 0.03776 0.0
H471 H 0.094 0.45973 0.04635 0.0
H472 H 0.22403 0.19332 0.28541 0.0
H473 H 0.20064 0.17319 0.31657 0.0
H474 H 0.24516 0.21152 0.36769 0.0
H475 H 0.26878 0.23206 0.3363 0.0
H476 H 0.23388 0.16494 0.37807 0.0
H477 H 0.19349 0.22634 0.35951 0.0
H478 H 0.17591 0.25213 0.334 0.0
H479 H 0.12755 0.19472 0.30852 0.0
H480 H 0.14507 0.16851 0.33361 0.0
H481 H 0.1468 0.11265 0.46057 0.0
H482 H 0.17306 0.14287 0.43985 0.0
H483 H 0.143 0.1173 0.37454 0.0
H484 H 0.11673 0.08739 0.39504 0.0
H485 H 0.1484 0.16451 0.37817 0.0
H486 H 0.19352 0.10308 0.39152 0.0
H487 H 0.21152 0.07684 0.41616 0.0
H488 H 0.25095 0.13469 0.45142 0.0
H489 H 0.23292 0.16128 0.42716 0.0
C490 C 0.22878 0.19765 0.30327 0.0
C491 C 0.24802 0.21456 0.30842 0.0
C492 C 0.21541 0.18609 0.32106 0.0
C493 C 0.22089 0.19123 0.34442 0.0
C494 C 0.24057 0.20748 0.34974 0.0
C495 C 0.25405 0.21912 0.33183 0.0
C496 C 0.20576 0.17938 0.36298 0.0
C497 C 0.21526 0.16526 0.37852 0.0
C498 C 0.18146 0.17971 0.36339 0.0
C499 C 0.17068 0.19544 0.34839 0.0
C500 C 0.1792 0.21918 0.34837 0.0
C501 C 0.16923 0.23389 0.33399 0.0
C502 C 0.15064 0.22507 0.31963 0.0
C503 C 0.14195 0.20153 0.31966 0.0
C504 C 0.15187 0.18675 0.33399 0.0
C505 C 0.14571 0.11367 0.44182 0.0
C506 C 0.12989 0.09759 0.42936 0.0
C507 C 0.16076 0.13082 0.43003 0.0
C508 C 0.16004 0.13219 0.40568 0.0
C509 C 0.14383 0.11652 0.39334 0.0
C510 C 0.12898 0.09934 0.40504 0.0
C511 C 0.1764 0.14947 0.39263 0.0
C512 C 0.16709 0.16464 0.37814 0.0
C513 C 0.20083 0.15011 0.39322 0.0
C514 C 0.21165 0.13414 0.40776 0.0
C515 C 0.20587 0.11019 0.40468 0.0
C516 C 0.21611 0.09526 0.41854 0.0
C517 C 0.23231 0.10409 0.43541 0.0
C518 C 0.23835 0.12788 0.43839 0.0
C519 C 0.22814 0.14288 0.42459 0.0
H520 H 0.24022 0.09251 0.44611 0.0
H521 H 0.14295 0.23648 0.30851 0.0
H522 H 0.25001 0.81311 0.82565 0.0
H523 H 0.27472 0.83331 0.85618 0.0
H524 H 0.31904 0.87017 0.80362 0.0
H525 H 0.29449 0.85031 0.77324 0.0
H526 H 0.34414 0.85209 0.83584 0.0
H527 H 0.28007 0.89579 0.83499 0.0
H528 H 0.23881 0.90073 0.83845 0.0
H529 H 0.23601 0.87526 0.90836 0.0
H530 H 0.2772 0.86988 0.90519 0.0
H531 H 0.40846 0.94984 0.8866 0.0
H532 H 0.38139 0.92198 0.86466 0.0
H533 H 0.34835 0.89556 0.92867 0.0
H534 H 0.37518 0.92401 0.95084 0.0
H535 H 0.31647 0.90252 0.89621 0.0
H536 H 0.38227 0.86393 0.89875 0.0
H537 H 0.4237 0.85969 0.89534 0.0
H538 H 0.42343 0.87535 0.82254 0.0
H539 H 0.38208 0.88002 0.82556 0.0
C540 C 0.26489 0.8257 0.82067 0.0
C541 C 0.27044 0.82996 0.79704 0.0
C542 C 0.27901 0.83718 0.8381 0.0
C543 C 0.29875 0.85319 0.83215 0.0
C544 C 0.30403 0.85771 0.8086 0.0
C545 C 0.29001 0.84629 0.79125 0.0
C546 C 0.31437 0.86515 0.85018 0.0
C547 C 0.33812 0.86321 0.84898 0.0
C548 C 0.30635 0.87895 0.86786 0.0
C549 C 0.28161 0.88215 0.86974 0.0
C550 C 0.27059 0.89104 0.85102 0.0
C551 C 0.24723 0.89396 0.85295 0.0
C552 C 0.23477 0.88824 0.87358 0.0
C553 C 0.24567 0.87963 0.89236 0.0
C554 C 0.26902 0.87665 0.89051 0.0
C555 C 0.39542 0.93814 0.89604 0.0
C556 C 0.39389 0.93918 0.92045 0.0
C557 C 0.38009 0.92207 0.88349 0.0
C558 C 0.36301 0.90652 0.89504 0.0
C559 C 0.36149 0.90734 0.91943 0.0
C560 C 0.37691 0.92346 0.93206 0.0
C561 C 0.34637 0.89009 0.88131 0.0
C562 C 0.32245 0.8911 0.88336 0.0
C563 C 0.3542 0.87538 0.86438 0.0
C564 C 0.37907 0.87244 0.86242 0.0
C565 C 0.39108 0.86662 0.88204 0.0
C566 C 0.41455 0.86411 0.88017 0.0
C567 C 0.4262 0.86727 0.85875 0.0
C568 C 0.41438 0.8729 0.83913 0.0
C569 C 0.39091 0.87544 0.8409 0.0
H570 H 0.44438 0.86533 0.85734 0.0
H571 H 0.2167 0.89052 0.87505 0.0
H572 H 0.59405 0.42399 0.75275 0.0
H573 H 0.57838 0.44092 0.71892 0.0
H574 H 0.6248 0.40998 0.6739 0.0
H575 H 0.64096 0.39352 0.70782 0.0
H576 H 0.62346 0.44956 0.65737 0.0
H577 H 0.56207 0.38988 0.68035 0.0
H578 H 0.53337 0.36772 0.70684 0.0
H579 H 0.50068 0.42735 0.71856 0.0
H580 H 0.52939 0.44997 0.69237 0.0
H581 H 0.56289 0.46817 0.55212 0.0
H582 H 0.57958 0.45085 0.58533 0.0
H583 H 0.54074 0.48806 0.63256 0.0
H584 H 0.52399 0.50534 0.59953 0.0
H585 H 0.53822 0.44455 0.64709 0.0
H586 H 0.60081 0.50373 0.62288 0.0
H587 H 0.62892 0.5241 0.59466 0.0
H588 H 0.65872 0.46265 0.58333 0.0
H589 H 0.63058 0.44182 0.61128 0.0
C590 C 0.60086 0.42057 0.73566 0.0
C591 C 0.61882 0.40714 0.73331 0.0
C592 C 0.59176 0.43029 0.71612 0.0
C593 C 0.59988 0.42656 0.69336 0.0
C594 C 0.618 0.41332 0.69101 0.0
C595 C 0.62732 0.40384 0.71059 0.0
C596 C 0.58972 0.43654 0.67217 0.0
C597 C 0.60478 0.44808 0.6551 0.0
C598 C 0.56531 0.4352 0.66882 0.0
C599 C 0.54803 0.42167 0.68458 0.0
C600 C 0.54886 0.39831 0.68871 0.0
C601 C 0.53258 0.38566 0.70365 0.0
C602 C 0.51525 0.39614 0.71443 0.0
C603 C 0.51414 0.41927 0.71023 0.0
C604 C 0.5304 0.43201 0.69533 0.0
C605 C 0.55793 0.47279 0.56955 0.0
C606 C 0.54205 0.48837 0.57288 0.0
C607 C 0.56761 0.46287 0.58867 0.0
C608 C 0.56172 0.46814 0.61179 0.0
C609 C 0.54573 0.48355 0.6151 0.0
C610 C 0.53618 0.49357 0.59604 0.0
C611 C 0.57195 0.45759 0.63249 0.0
C612 C 0.55689 0.44595 0.64943 0.0
C613 C 0.59631 0.45858 0.63554 0.0
C614 C 0.61345 0.47116 0.619 0.0
C615 C 0.61327 0.49452 0.61426 0.0
C616 C 0.62921 0.50616 0.59833 0.0
C617 C 0.64555 0.49466 0.58716 0.0
C618 C 0.64603 0.47152 0.59197 0.0
C619 C 0.63011 0.4598 0.60788 0.0
H620 H 0.65786 0.50369 0.5748 0.0
H621 H 0.50266 0.38632 0.72598 0.0
H622 H 0.92841 0.65175 0.23152 0.0
H623 H 0.94398 0.63391 0.19733 0.0
H624 H 0.89416 0.5723 0.20811 0.0
H625 H 0.87868 0.58992 0.24251 0.0
H626 H 0.93733 0.5619 0.19727 0.0
H627 H 0.88611 0.60973 0.16556 0.0
H628 H 0.87056 0.64582 0.15971 0.0
H629 H 0.93689 0.67787 0.13256 0.0
H630 H 0.95294 0.64204 0.13855 0.0
H631 H 0.95609 0.51043 0.0864 0.0
H632 H 0.93897 0.52637 0.12092 0.0
H633 H 0.98146 0.59223 0.10844 0.0
H634 H 0.99803 0.57664 0.07373 0.0
H635 H 0.94063 0.59971 0.12031 0.0
H636 H 0.99264 0.55322 0.15284 0.0
H637 H 1.00923 0.51777 0.15917 0.0
H638 H 0.9431 0.48401 0.18525 0.0
H639 H 0.92604 0.51918 0.17879 0.0
C640 C 0.92083 0.63434 0.22676 0.0
C641 C 0.90216 0.62239 0.23989 0.0
C642 C 0.92967 0.62419 0.20702 0.0
C643 C 0.92017 0.60175 0.19984 0.0
C644 C 0.90181 0.58962 0.21312 0.0
C645 C 0.89283 0.59983 0.23276 0.0
C646 C 0.92929 0.59102 0.17846 0.0
C647 C 0.93775 0.57003 0.18038 0.0
C648 C 0.93041 0.60173 0.1564 0.0
C649 C 0.92079 0.62327 0.15272 0.0
C650 C 0.89743 0.62453 0.15851 0.0
C651 C 0.88852 0.64493 0.15514 0.0
C652 C 0.90275 0.66414 0.14583 0.0
C653 C 0.9259 0.66298 0.13981 0.0
C654 C 0.93491 0.64263 0.14317 0.0
C655 C 0.96182 0.5283 0.09102 0.0
C656 C 0.97854 0.54215 0.07716 0.0
C657 C 0.95208 0.53742 0.11092 0.0
C658 C 0.95902 0.56057 0.11772 0.0
C659 C 0.97564 0.57438 0.10378 0.0
C660 C 0.98522 0.56535 0.08385 0.0
C661 C 0.94894 0.57062 0.13906 0.0
C662 C 0.94024 0.5915 0.13716 0.0
C663 C 0.94779 0.55989 0.16116 0.0
C664 C 0.958 0.53875 0.1651 0.0
C665 C 0.98159 0.53818 0.15976 0.0
C666 C 0.99109 0.51815 0.1634 0.0
C667 C 0.97721 0.49863 0.17254 0.0
C668 C 0.95382 0.49913 0.17813 0.0
C669 C 0.94423 0.51911 0.1745 0.0
H670 H 0.98459 0.48314 0.17535 0.0
H671 H 0.89581 0.67992 0.14322 0.0
H672 H 0.38595 0.21223 0.11909 0.0
H673 H 0.40538 0.18276 0.10065 0.0
H674 H 0.40921 0.1502 0.16704 0.0
H675 H 0.38908 0.17919 0.18561 0.0
H676 H 0.45091 0.15318 0.13828 0.0
H677 H 0.36796 0.12783 0.13434 0.0
H678 H 0.32753 0.13221 0.12539 0.0
H679 H 0.34621 0.14261 0.0533 0.0
H680 H 0.38687 0.13866 0.0619 0.0
H681 H 0.47623 0.04745 0.09155 0.0
H682 H 0.45825 0.07577 0.1138 0.0
H683 H 0.44013 0.10597 0.04981 0.0
H684 H 0.4575 0.07747 0.0275 0.0
H685 H 0.4052 0.1032 0.07953 0.0
H686 H 0.48753 0.13014 0.08223 0.0
H687 H 0.52863 0.12732 0.08989 0.0
H688 H 0.51238 0.1158 0.16234 0.0
H689 H 0.47108 0.1182 0.15505 0.0
C690 C 0.39089 0.19881 0.12982 0.0
C691 C 0.38567 0.19793 0.1538 0.0
C692 C 0.40211 0.18208 0.11926 0.0
C693 C 0.40846 0.16422 0.13248 0.0
C694 C 0.40443 0.16389 0.15659 0.0
C695 C 0.39301 0.18054 0.16716 0.0
C696 C 0.41803 0.1452 0.12082 0.0
C697 C 0.44087 0.142 0.12568 0.0
C698 C 0.405 0.13101 0.10406 0.0
C699 C 0.3805 0.13316 0.09881 0.0
C700 C 0.36349 0.13123 0.11661 0.0
C701 C 0.34053 0.13361 0.1116 0.0
C702 C 0.33431 0.13774 0.0888 0.0
C703 C 0.35105 0.13944 0.07095 0.0
C704 C 0.37405 0.13711 0.07589 0.0
C705 C 0.46828 0.06003 0.08223 0.0
C706 C 0.46837 0.06026 0.05776 0.0
C707 C 0.45813 0.07628 0.09497 0.0
C708 C 0.44816 0.09321 0.08346 0.0
C709 C 0.44775 0.09309 0.05906 0.0
C710 C 0.45772 0.07678 0.04633 0.0
C711 C 0.43829 0.11122 0.09672 0.0
C712 C 0.41531 0.11424 0.0922 0.0
C713 C 0.45132 0.12539 0.11358 0.0
C714 C 0.47617 0.12409 0.11805 0.0
C715 C 0.49269 0.12682 0.09977 0.0
C716 C 0.51602 0.12533 0.10404 0.0
C717 C 0.5231 0.12132 0.12658 0.0
C718 C 0.50686 0.11886 0.14489 0.0
C719 C 0.48349 0.1203 0.1407 0.0
H720 H 0.54118 0.12017 0.12986 0.0
H721 H 0.31652 0.13958 0.08495 0.0
H722 H 0.15228 0.85954 0.62783 0.0
H723 H 0.12939 0.88664 0.61185 0.0
H724 H 0.07124 0.85936 0.65613 0.0
H725 H 0.09378 0.83111 0.67149 0.0
H726 H 0.05649 0.8678 0.61345 0.0
H727 H 0.10479 0.91029 0.66986 0.0
H728 H 0.14113 0.92456 0.69069 0.0
H729 H 0.17095 0.95742 0.62848 0.0
H730 H 0.1349 0.94306 0.60716 0.0
H731 H 1.0059 0.96845 0.58259 0.0
H732 H 0.02195 0.94065 0.60671 0.0
H733 H 0.08301 0.94716 0.56233 0.0
H734 H 0.06709 0.97457 0.53808 0.0
H735 H 0.09206 0.95023 0.61145 0.0
H736 H 0.04367 0.90299 0.55483 0.0
H737 H 1.00627 0.88944 0.53549 0.0
H738 H 0.97516 0.86658 0.60107 0.0
H739 H 0.01227 0.88039 0.62088 0.0
C740 C 0.1345 0.85893 0.63395 0.0
C741 C 0.12489 0.84304 0.65095 0.0
C742 C 0.12151 0.8747 0.625 0.0
C743 C 0.09876 0.87534 0.63312 0.0
C744 C 0.08885 0.85928 0.64975 0.0
C745 C 0.10182 0.84328 0.65865 0.0
C746 C 0.08564 0.89299 0.62411 0.0
C747 C 0.06404 0.88588 0.61344 0.0
C748 C 0.09546 0.91661 0.62409 0.0
C749 C 0.11716 0.92548 0.63687 0.0
C750 C 0.11914 0.92044 0.66057 0.0
C751 C 0.13969 0.92856 0.67248 0.0
C752 C 0.15835 0.94186 0.66091 0.0
C753 C 0.15648 0.94711 0.63742 0.0
C754 C 0.13597 0.93902 0.62542 0.0
C755 C 0.02279 0.96401 0.57807 0.0
C756 C 0.03524 0.97365 0.55843 0.0
C757 C 0.03187 0.94811 0.59179 0.0
C758 C 0.05361 0.94189 0.58621 0.0
C759 C 0.0662 0.9518 0.56689 0.0
C760 C 0.05703 0.96737 0.55301 0.0
C761 C 0.06343 0.92489 0.6002 0.0
C762 C 0.08437 0.93219 0.61186 0.0
C763 C 0.05284 0.90157 0.60138 0.0
C764 C 0.03066 0.89297 0.58938 0.0
C765 C 0.0288 0.89526 0.56516 0.0
C766 C 1.00767 0.8875 0.5541 0.0
C767 C 0.98835 0.87721 0.56705 0.0
C768 C 0.99013 0.87459 0.59107 0.0
C769 C 0.01121 0.88238 0.60222 0.0
H770 H 0.972 0.87122 0.55845 0.0
H771 H 0.17425 0.94812 0.67015 0.0
H772 H 0.79613 0.38615 0.88063 0.0
H773 H 0.83085 0.40327 0.90177 0.0
H774 H 0.79669 0.4599 0.9232 0.0
H775 H 0.76146 0.44255 0.90273 0.0
H776 H 0.84227 0.47504 0.90925 0.0
H777 H 0.80304 0.41796 0.96138 0.0
H778 H 0.78404 0.37916 0.97286 0.0
H779 H 0.84721 0.35248 0.95765 0.0
H780 H 0.86649 0.39108 0.94575 0.0
H781 H 0.9286 0.52145 0.99125 0.0
H782 H 0.89224 0.5056 0.97196 0.0
H783 H 0.91793 0.44159 0.96017 0.0
H784 H 0.95376 0.45699 0.98064 0.0
H785 H 0.87538 0.43078 0.96991 0.0
H786 H 0.91252 0.48454 0.9119 0.0
H787 H 0.9324 0.52239 0.89828 0.0
H788 H 0.87562 0.55413 0.92437 0.0
H789 H 0.85502 0.51638 0.93737 0.0
C790 C 0.79567 0.40209 0.89005 0.0
C791 C 0.77548 0.41266 0.88991 0.0
C792 C 0.81578 0.41198 0.90212 0.0
C793 C 0.81655 0.43287 0.91442 0.0
C794 C 0.79673 0.44381 0.9139 0.0
C795 C 0.7765 0.43383 0.90198 0.0
C796 C 0.8379 0.44309 0.92792 0.0
C797 C 0.84929 0.46541 0.92272 0.0
C798 C 0.84765 0.43058 0.94522 0.0
C799 C 0.83614 0.40738 0.95247 0.0
C800 C 0.81282 0.40379 0.96031 0.0
C801 C 0.80202 0.38183 0.96693 0.0
C802 C 0.81439 0.36335 0.96593 0.0
C803 C 0.83763 0.3668 0.95838 0.0
C804 C 0.84852 0.38872 0.95172 0.0
C805 C 0.92653 0.50398 0.9846 0.0
C806 C 0.9443 0.49058 0.9876 0.0
C807 C 0.90568 0.49492 0.97324 0.0
C808 C 0.90216 0.47239 0.96386 0.0
C809 C 0.91988 0.45898 0.96706 0.0
C810 C 0.94053 0.46786 0.97882 0.0
C811 C 0.88007 0.46267 0.95106 0.0
C812 C 0.86845 0.44043 0.95643 0.0
C813 C 0.87026 0.47512 0.93371 0.0
C814 C 0.88228 0.49772 0.92556 0.0
C815 C 0.90425 0.49961 0.91459 0.0
C816 C 0.91556 0.521 0.90688 0.0
C817 C 0.90513 0.5406 0.91022 0.0
C818 C 0.88348 0.53889 0.92147 0.0
C819 C 0.87188 0.51749 0.92882 0.0
H820 H 0.91378 0.55708 0.90403 0.0
H821 H 0.806 0.34637 0.97106 0.0
H822 H 0.72586 0.6278 0.37466 0.0
H823 H 0.6899 0.61142 0.39493 0.0
H824 H 0.73 0.58826 0.44996 0.0
H825 H 0.76609 0.60392 0.4294 0.0
H826 H 0.69367 0.55588 0.44058 0.0
H827 H 0.7043 0.63697 0.45632 0.0
H828 H 0.71077 0.6782 0.44651 0.0
H829 H 0.64718 0.66881 0.40781 0.0
H830 H 0.64049 0.62744 0.41714 0.0
H831 H 0.58329 0.57126 0.51659 0.0
H832 H 0.62139 0.58699 0.49946 0.0
H833 H 0.61129 0.53502 0.44553 0.0
H834 H 0.57372 0.51907 0.46259 0.0
H835 H 0.63418 0.60568 0.45793 0.0
H836 H 0.66053 0.51908 0.42927 0.0
H837 H 0.65365 0.47863 0.44225 0.0
H838 H 0.64546 0.50086 0.51278 0.0
H839 H 0.6522 0.54136 0.50029 0.0
C840 C 0.72713 0.61897 0.39092 0.0
C841 C 0.74907 0.61736 0.40035 0.0
C842 C 0.70645 0.60978 0.40265 0.0
C843 C 0.70707 0.59882 0.42423 0.0
C844 C 0.72892 0.59669 0.43343 0.0
C845 C 0.74962 0.60588 0.42171 0.0
C846 C 0.68502 0.58997 0.43735 0.0
C847 C 0.68071 0.56682 0.44433 0.0
C848 C 0.6681 0.60419 0.44279 0.0
C849 C 0.67201 0.62907 0.43726 0.0
C850 C 0.69178 0.64367 0.44559 0.0
C851 C 0.69548 0.66706 0.44013 0.0
C852 C 0.67943 0.67611 0.4265 0.0
C853 C 0.65961 0.66177 0.41835 0.0
C854 C 0.65585 0.63836 0.42373 0.0
C855 C 0.58924 0.56311 0.50116 0.0
C856 C 0.57532 0.54383 0.49108 0.0
C857 C 0.61102 0.57218 0.49131 0.0
C858 C 0.61946 0.56209 0.47128 0.0
C859 C 0.60549 0.54295 0.46117 0.0
C860 C 0.58383 0.5339 0.47096 0.0
C861 C 0.64267 0.57155 0.4607 0.0
C862 C 0.64718 0.59478 0.45418 0.0
C863 C 0.65992 0.55752 0.45606 0.0
C864 C 0.65681 0.53324 0.46381 0.0
C865 C 0.65745 0.51533 0.44756 0.0
C866 C 0.65351 0.4924 0.45482 0.0
C867 C 0.64919 0.4872 0.47829 0.0
C868 C 0.64879 0.50491 0.49459 0.0
C869 C 0.65261 0.52784 0.48743 0.0
H870 H 0.64615 0.46946 0.48385 0.0
H871 H 0.68232 0.69422 0.4223 0.0
H872 H 0.22324 0.30746 0.12398 0.0
H873 H 0.19738 0.32974 0.10449 0.0
H874 H 0.24028 0.39274 0.12663 0.0
H875 H 0.26598 0.37037 0.14686 0.0
H876 H 0.19579 0.39314 0.13736 0.0
H877 H 0.23693 0.37727 0.06879 0.0
H878 H 0.25504 0.35386 0.04022 0.0
H879 H 0.18824 0.31357 0.0263 0.0
H880 H 0.16975 0.33652 0.05504 0.0
H881 H 0.11814 0.45507 0.07954 0.0
H882 H 0.15395 0.44065 0.08932 0.0
H883 H 0.12035 0.37125 0.07495 0.0
H884 H 0.08469 0.38562 0.06437 0.0
H885 H 0.16478 0.37933 0.05753 0.0
H886 H 0.12539 0.39167 0.13033 0.0
H887 H 0.10725 0.41479 0.15918 0.0
H888 H 0.17152 0.46185 0.16489 0.0
H889 H 0.18997 0.43913 0.13583 0.0
C890 C 0.2273 0.32606 0.12451 0.0
C891 C 0.24649 0.33719 0.13713 0.0
C892 C 0.21265 0.33879 0.11314 0.0
C893 C 0.21698 0.36293 0.11394 0.0
C894 C 0.23668 0.37413 0.12574 0.0
C895 C 0.2514 0.36135 0.13715 0.0
C896 C 0.19959 0.37614 0.10445 0.0
C897 C 0.18943 0.39057 0.1197 0.0
C898 C 0.19094 0.37241 0.08157 0.0
C899 C 0.20197 0.35856 0.0642 0.0
C900 C 0.22612 0.36331 0.05977 0.0
C901 C 0.23645 0.35014 0.04352 0.0
C902 C 0.22281 0.33222 0.03148 0.0
C903 C 0.19879 0.32746 0.03564 0.0
C904 C 0.18837 0.34057 0.05189 0.0
C905 C 0.11846 0.43677 0.07816 0.0
C906 C 0.09853 0.42146 0.07127 0.0
C907 C 0.13889 0.42855 0.08391 0.0
C908 C 0.13972 0.40487 0.08306 0.0
C909 C 0.12005 0.3896 0.07573 0.0
C910 C 0.09962 0.3978 0.06995 0.0
C911 C 0.16077 0.39583 0.09061 0.0
C912 C 0.17153 0.38221 0.07501 0.0
C913 C 0.17001 0.40029 0.11316 0.0
C914 C 0.15897 0.41386 0.13072 0.0
C915 C 0.1356 0.40704 0.13761 0.0
C916 C 0.12527 0.42006 0.15402 0.0
C917 C 0.1382 0.43982 0.16381 0.0
C918 C 0.16151 0.44656 0.15726 0.0
C919 C 0.17192 0.43362 0.14083 0.0
H920 H 0.13017 0.44987 0.17651 0.0
H921 H 0.23084 0.32204 0.0189 0.0
H922 H 0.62587 0.22742 0.86549 0.0
H923 H 0.60949 0.192 0.886 0.0
H924 H 0.58198 0.23218 0.93953 0.0
H925 H 0.59791 0.26769 0.9188 0.0
H926 H 0.60651 0.19512 0.95645 0.0
H927 H 0.54521 0.20665 0.90389 0.0
H928 H 0.52909 0.21298 0.86544 0.0
H929 H 0.54884 0.14994 0.83999 0.0
H930 H 0.56539 0.1434 0.87823 0.0
H931 H 0.53726 0.10276 0.01654 0.0
H932 H 0.55284 0.1387 0.99698 0.0
H933 H 0.55604 0.10158 0.93216 0.0
H934 H 0.53872 0.06591 0.95147 0.0
H935 H 0.54453 0.13809 0.92098 0.0
H936 H 0.60635 0.12533 0.971 0.0
H937 H 0.6247 0.11791 1.00806 0.0
H938 H 0.60826 0.18118 0.03651 0.0
H939 H 0.58949 0.18882 0.99973 0.0
C940 C 0.61633 0.22877 0.88163 0.0
C941 C 0.61322 0.25055 0.89038 0.0
C942 C 0.60691 0.20843 0.89336 0.0
C943 C 0.59444 0.20923 0.91444 0.0
C944 C 0.59153 0.23096 0.92337 0.0
C945 C 0.60053 0.2513 0.91139 0.0
C946 C 0.58423 0.18744 0.92689 0.0
C947 C 0.59276 0.18275 0.94884 0.0
C948 C 0.56681 0.17081 0.91679 0.0
C949 C 0.55675 0.17466 0.89385 0.0
C950 C 0.5463 0.19424 0.89004 0.0
C951 C 0.53705 0.19785 0.86829 0.0
C952 C 0.538 0.1819 0.85026 0.0
C953 C 0.54815 0.16229 0.85396 0.0
C954 C 0.55745 0.15861 0.87567 0.0
C955 C 0.54133 0.10224 0.99812 0.0
C956 C 0.53679 0.08129 0.98567 0.0
C957 C 0.55053 0.12291 0.98687 0.0
C958 C 0.55643 0.12325 0.96295 0.0
C959 C 0.55183 0.10222 0.95055 0.0
C960 C 0.54195 0.08166 0.96166 0.0
C961 C 0.56684 0.14538 0.95076 0.0
C962 C 0.55835 0.15024 0.92876 0.0
C963 C 0.58473 0.16192 0.96064 0.0
C964 C 0.5963 0.15754 0.98267 0.0
C965 C 0.60654 0.13761 0.9852 0.0
C966 C 0.61701 0.13336 1.00615 0.0
C967 C 0.61758 0.14903 0.02464 0.0
C968 C 0.60776 0.16903 0.02218 0.0
C969 C 0.59722 0.17334 1.00128 0.0
H970 H 0.62567 0.1457 0.04086 0.0
H971 H 0.53082 0.18473 0.83344 0.0
H972 H 0.88106 0.78129 0.421 0.0
H973 H 0.89726 0.81759 0.43982 0.0
H974 H 0.95088 0.82941 0.38679 0.0
H975 H 0.93481 0.79289 0.36793 0.0
H976 H 0.96947 0.84155 0.42751 0.0
H977 H 0.90214 0.85814 0.38794 0.0
H978 H 0.86072 0.85267 0.37699 0.0
H979 H 0.84103 0.86225 0.44826 0.0
H980 H 0.88234 0.86747 0.45969 0.0
H981 H 1.00416 0.96136 0.45276 0.0
H982 H 0.9889 0.92465 0.43392 0.0
H983 H 0.93857 0.9092 0.48956 0.0
H984 H 0.9537 0.94587 0.50853 0.0
H985 H 0.91858 0.89924 0.44721 0.0
H986 H 0.98645 0.88298 0.48646 0.0
H987 H 0.02807 0.88903 0.49679 0.0
H988 H 0.04687 0.87956 0.42526 0.0
H989 H 1.00539 0.8738 0.41442 0.0
C990 C 0.89619 0.79166 0.41316 0.0
C991 C 0.90642 0.7841 0.39272 0.0
C992 C 0.90549 0.81252 0.424 0.0
C993 C 0.92514 0.82667 0.41461 0.0
C994 C 0.93571 0.81897 0.39447 0.0
C995 C 0.92649 0.79798 0.38368 0.0
C996 C 0.93459 0.84942 0.42577 0.0
C997 C 0.95835 0.85426 0.43148 0.0
C998 C 0.92017 0.86603 0.43152 0.0
C999 C 0.89532 0.86298 0.4247 0.0
C1000 C 0.88897 0.85891 0.4013 0.0
C1001 C 0.86551 0.85589 0.39501 0.0
C1002 C 0.84825 0.85706 0.41193 0.0
C1003 C 0.85442 0.86132 0.43518 0.0
C1004 C 0.87785 0.86434 0.44157 0.0
C1005 C 0.98982 0.9502 0.46103 0.0
C1006 C 0.98023 0.95672 0.48225 0.0
C1007 C 0.98117 0.92909 0.45025 0.0
C1008 C 0.96265 0.91392 0.46034 0.0
C1009 C 0.95285 0.9205 0.48136 0.0
C1010 C 0.9616 0.94153 0.49225 0.0
C1011 C 0.9534 0.89131 0.44894 0.0
C1012 C 0.92967 0.88651 0.4432 0.0
C1013 C 0.96787 0.87481 0.44308 0.0
C1014 C 0.99282 0.87818 0.44959 0.0
C1015 C 0.99947 0.88237 0.4729 0.0
C1016 C 0.02303 0.88572 0.47885 0.0
C1017 C 0.04009 0.88473 0.46169 0.0
C1018 C 0.03363 0.88035 0.43854 0.0
C1019 C 0.0101 0.87702 0.43247 0.0
H1020 H 0.05832 0.88732 0.46634 0.0
H1021 H 0.8301 0.85471 0.40702 0.0
H1022 H 0.24908 0.67468 0.62681 0.0
H1023 H 0.27953 0.65575 0.60854 0.0
H1024 H 0.33054 0.71583 0.62324 0.0
H1025 H 0.29988 0.73508 0.6401 0.0
H1026 H 0.33966 0.70091 0.58312 0.0
H1027 H 0.32166 0.66378 0.65753 0.0
H1028 H 0.29588 0.64217 0.68693 0.0
H1029 H 0.27859 0.5862 0.6385 0.0
H1030 H 0.30408 0.60759 0.60873 0.0
H1031 H 0.44469 0.65452 0.58298 0.0
H1032 H 0.41024 0.67161 0.59308 0.0
H1033 H 0.36593 0.61029 0.5689 0.0
H1034 H 0.40031 0.59267 0.55968 0.0
H1035 H 0.35126 0.62383 0.61009 0.0
H1036 H 0.37343 0.66042 0.53713 0.0
H1037 H 0.40048 0.68233 0.50898 0.0
H1038 H 0.41135 0.73993 0.55621 0.0
H1039 H 0.38461 0.71826 0.58478 0.0
C1040 C 0.26681 0.68376 0.62589 0.0
C1041 C 0.2723 0.70623 0.63475 0.0
C1042 C 0.28421 0.67295 0.61563 0.0
C1043 C 0.30749 0.68418 0.61487 0.0
C1044 C 0.31278 0.70679 0.62353 0.0
C1045 C 0.29532 0.71776 0.63323 0.0
C1046 C 0.32655 0.67247 0.60549 0.0
C1047 C 0.34228 0.68414 0.5892 0.0
C1048 C 0.32972 0.6503 0.61289 0.0
C1049 C 0.31457 0.63737 0.63085 0.0
C1050 C 0.31225 0.64691 0.65312 0.0
C1051 C 0.29771 0.6347 0.66985 0.0
C1052 C 0.28556 0.61285 0.66456 0.0
C1053 C 0.28799 0.60313 0.64256 0.0
C1054 C 0.30249 0.61528 0.62576 0.0
C1055 C 0.42763 0.64463 0.57987 0.0
C1056 C 0.42529 0.62222 0.57051 0.0
C1057 C 0.40794 0.65452 0.58541 0.0
C1058 C 0.3855 0.64234 0.58147 0.0
C1059 C 0.38308 0.62005 0.57198 0.0
C1060 C 0.40277 0.61009 0.56652 0.0
C1061 C 0.36458 0.65252 0.58817 0.0
C1062 C 0.34849 0.64052 0.60389 0.0
C1063 C 0.36123 0.67449 0.58045 0.0
C1064 C 0.37712 0.68765 0.56316 0.0
C1065 C 0.38169 0.67771 0.54157 0.0
C1066 C 0.39696 0.6901 0.52553 0.0
C1067 C 0.40766 0.71249 0.53081 0.0
C1068 C 0.40306 0.72258 0.55213 0.0
C1069 C 0.38782 0.71027 0.56824 0.0
H1070 H 0.41948 0.72205 0.51838 0.0
H1071 H 0.27429 0.60343 0.67753 0.0
H1072 H 0.76055 0.86208 0.74283 0.0
H1073 H 0.78438 0.88178 0.71144 0.0
H1074 H 0.82431 0.82606 0.70723 0.0
H1075 H 0.80061 0.80632 0.73884 0.0
H1076 H 0.85179 0.86916 0.70949 0.0
H1077 H 0.78772 0.83124 0.66503 0.0
H1078 H 0.74632 0.81941 0.65526 0.0
H1079 H 0.7385 0.89014 0.64672 0.0
H1080 H 0.77978 0.90242 0.65677 0.0
H1081 H 0.91565 0.92031 0.61191 0.0
H1082 H 0.89124 0.89216 0.63635 0.0
H1083 H 0.84004 0.93758 0.64247 0.0
H1084 H 0.86366 0.96517 0.61708 0.0
H1085 H 0.81905 0.89505 0.63686 0.0
H1086 H 0.88062 0.9334 0.68567 0.0
H1087 H 0.92146 0.94645 0.69687 0.0
H1088 H 0.93339 0.87637 0.69864 0.0
H1089 H 0.89267 0.86292 0.68715 0.0
C1090 C 0.77435 0.85401 0.73515 0.0
C1091 C 0.77876 0.8327 0.74325 0.0
C1092 C 0.78783 0.86518 0.71714 0.0
C1093 C 0.80597 0.85526 0.70693 0.0
C1094 C 0.81031 0.83391 0.71484 0.0
C1095 C 0.7967 0.82262 0.73276 0.0
C1096 C 0.82099 0.86782 0.68875 0.0
C1097 C 0.84477 0.87445 0.69337 0.0
C1098 C 0.81164 0.87509 0.66802 0.0
C1099 C 0.78682 0.86776 0.66182 0.0
C1100 C 0.77713 0.84429 0.66123 0.0
C1101 C 0.75369 0.8375 0.65562 0.0
C1102 C 0.73978 0.85402 0.65041 0.0
C1103 C 0.7493 0.87736 0.65076 0.0
C1104 C 0.77273 0.88425 0.65639 0.0
C1105 C 0.89903 0.92415 0.61816 0.0
C1106 C 0.89171 0.94511 0.61269 0.0
C1107 C 0.8852 0.90814 0.63232 0.0
C1108 C 0.86398 0.91292 0.64153 0.0
C1109 C 0.85639 0.93355 0.63564 0.0
C1110 C 0.87007 0.94945 0.62134 0.0
C1111 C 0.84981 0.89681 0.65778 0.0
C1112 C 0.82618 0.88951 0.65281 0.0
C1113 C 0.85924 0.88912 0.67832 0.0
C1114 C 0.88369 0.89717 0.68529 0.0
C1115 C 0.89201 0.92079 0.68827 0.0
C1116 C 0.91512 0.92825 0.6947 0.0
C1117 C 0.93003 0.91225 0.69839 0.0
C1118 C 0.92183 0.88874 0.69573 0.0
C1119 C 0.89874 0.88119 0.68927 0.0
H1120 H 0.94792 0.91806 0.70337 0.0
H1121 H 0.72163 0.84872 0.64607 0.0
H1122 H 0.74355 0.17584 0.23549 0.0
H1123 H 0.72388 0.15595 0.20223 0.0
H1124 H 0.75542 0.21045 0.157 0.0
H1125 H 0.77608 0.23033 0.19031 0.0
H1126 H 0.70522 0.1947 0.15085 0.0
H1127 H 0.77677 0.16516 0.15137 0.0
H1128 H 0.80928 0.14942 0.16897 0.0
H1129 H 0.76188 0.09021 0.19206 0.0
H1130 H 0.72901 0.10575 0.17493 0.0
H1131 H 0.64716 0.11603 0.06514 0.0
H1132 H 0.67883 0.14285 0.08311 0.0
H1133 H 0.67328 0.10065 0.14451 0.0
H1134 H 0.64184 0.07414 0.12694 0.0
H1135 H 0.71807 0.11498 0.13305 0.0
H1136 H 0.64668 0.14883 0.1409 0.0
H1137 H 0.61319 0.16412 0.1247 0.0
H1138 H 0.65986 0.21478 0.0866 0.0
H1139 H 0.69363 0.19958 0.10239 0.0
C1140 C 0.74669 0.18353 0.21847 0.0
C1141 C 0.76175 0.20454 0.21557 0.0
C1142 C 0.73527 0.17218 0.19949 0.0
C1143 C 0.73845 0.18161 0.17717 0.0
C1144 C 0.75285 0.2029 0.17413 0.0
C1145 C 0.76454 0.21424 0.19319 0.0
C1146 C 0.72656 0.16874 0.15731 0.0
C1147 C 0.7084 0.1775 0.14643 0.0
C1148 C 0.73065 0.14627 0.15175 0.0
C1149 C 0.7504 0.13669 0.16192 0.0
C1150 C 0.77325 0.14885 0.16033 0.0
C1151 C 0.79175 0.13996 0.17021 0.0
C1152 C 0.78765 0.11884 0.18164 0.0
C1153 C 0.76504 0.10656 0.18319 0.0
C1154 C 0.74647 0.11539 0.17336 0.0
C1155 C 0.6528 0.11248 0.08243 0.0
C1156 C 0.64203 0.09289 0.09457 0.0
C1157 C 0.6709 0.12776 0.09263 0.0
C1158 C 0.67835 0.12377 0.11518 0.0
C1159 C 0.66798 0.10397 0.12701 0.0
C1160 C 0.65002 0.08875 0.11688 0.0
C1161 C 0.69605 0.1405 0.12736 0.0
C1162 C 0.71533 0.13245 0.13684 0.0
C1163 C 0.69289 0.16354 0.13169 0.0
C1164 C 0.67263 0.17292 0.12259 0.0
C1165 C 0.64978 0.16316 0.12897 0.0
C1166 C 0.63075 0.1718 0.11988 0.0
C1167 C 0.63439 0.19036 0.10456 0.0
C1168 C 0.65707 0.20037 0.09841 0.0
C1169 C 0.67615 0.19176 0.10744 0.0
H1170 H 0.61964 0.19701 0.09751 0.0
H1171 H 0.802 0.11198 0.18929 0.0
H1172 H 0.42207 0.60577 0.27993 0.0
H1173 H 0.43753 0.588 0.31359 0.0
H1174 H 0.39662 0.62416 0.35969 0.0
H1175 H 0.38089 0.64178 0.32609 0.0
H1176 H 0.44332 0.62588 0.37489 0.0
H1177 H 0.37959 0.5683 0.34983 0.0
H1178 H 0.35764 0.54201 0.3213 0.0
H1179 H 0.41693 0.50778 0.31075 0.0
H1180 H 0.43935 0.5341 0.33899 0.0
H1181 H 0.46375 0.56985 0.47975 0.0
H1182 H 0.44651 0.58641 0.44667 0.0
H1183 H 0.46808 0.53457 0.40143 0.0
H1184 H 0.48367 0.51694 0.43503 0.0
H1185 H 0.43122 0.54126 0.38494 0.0
H1186 H 0.49619 0.5975 0.40694 0.0
H1187 H 0.52101 0.62411 0.43312 0.0
H1188 H 0.46435 0.66135 0.44639 0.0
H1189 H 0.4391 0.63479 0.42048 0.0
C1190 C 0.41637 0.61005 0.29721 0.0
C1191 C 0.40008 0.6253 0.30005 0.0
C1192 C 0.42518 0.59972 0.31655 0.0
C1193 C 0.41829 0.60451 0.33946 0.0
C1194 C 0.40232 0.62001 0.34236 0.0
C1195 C 0.39318 0.63003 0.32301 0.0
C1196 C 0.42765 0.59343 0.36028 0.0
C1197 C 0.44042 0.60738 0.37722 0.0
C1198 C 0.42473 0.56923 0.3632 0.0
C1199 C 0.41121 0.55332 0.34635 0.0
C1200 C 0.38801 0.55529 0.34129 0.0
C1201 C 0.37547 0.54036 0.3252 0.0
C1202 C 0.38591 0.52327 0.31418 0.0
C1203 C 0.40888 0.52104 0.31928 0.0
C1204 C 0.4215 0.53595 0.33534 0.0
C1205 C 0.46474 0.56188 0.46277 0.0
C1206 C 0.47525 0.54201 0.46022 0.0
C1207 C 0.45506 0.57161 0.44359 0.0
C1208 C 0.45642 0.56248 0.42086 0.0
C1209 C 0.46664 0.54233 0.41845 0.0
C1210 C 0.47567 0.53216 0.43779 0.0
C1211 C 0.44715 0.57367 0.39983 0.0
C1212 C 0.43432 0.55977 0.38277 0.0
C1213 C 0.45054 0.59795 0.39647 0.0
C1214 C 0.4657 0.61403 0.41195 0.0
C1215 C 0.48899 0.61129 0.41554 0.0
C1216 C 0.50314 0.62637 0.43032 0.0
C1217 C 0.49424 0.64437 0.44146 0.0
C1218 C 0.4712 0.64738 0.43778 0.0
C1219 C 0.45697 0.63233 0.42303 0.0
H1220 H 0.50522 0.65602 0.45291 0.0
H1221 H 0.37617 0.51173 0.30172 0.0
H1222 H 0.09104 0.42415 0.77963 0.0
H1223 H 0.07504 0.44176 0.81366 0.0
H1224 H 0.12367 0.41491 0.85769 0.0
H1225 H 0.13938 0.39676 0.82381 0.0
H1226 H 0.08136 0.4095 0.87811 0.0
H1227 H 0.13153 0.47227 0.84183 0.0
H1228 H 0.1465 0.49803 0.8096 0.0
H1229 H 0.07954 0.51931 0.80344 0.0
H1230 H 0.06408 0.49343 0.83545 0.0
H1231 H 0.0647 0.47557 0.97937 0.0
H1232 H 0.08128 0.45855 0.94535 0.0
H1233 H 0.03655 0.48994 0.90056 0.0
H1234 H 0.02046 0.50765 0.93451 0.0
H1235 H 0.0769 0.49292 0.88035 0.0
H1236 H 0.0263 0.43026 0.91596 0.0
H1237 H 0.01074 0.40445 0.94796 0.0
H1238 H 0.07735 0.38262 0.9549 0.0
H1239 H 0.09341 0.40853 0.92314 0.0
C1240 C 0.09826 0.42178 0.79654 0.0
C1241 C 0.11665 0.40898 0.79875 0.0
C1242 C 0.08919 0.43211 0.81606 0.0
C1243 C 0.09825 0.43001 0.83841 0.0
C1244 C 0.11636 0.41696 0.84073 0.0
C1245 C 0.1255 0.40671 0.82122 0.0
C1246 C 0.08885 0.44131 0.85932 0.0
C1247 C 0.08069 0.42781 0.87868 0.0
C1248 C 0.08732 0.46512 0.86008 0.0
C1249 C 0.09659 0.48074 0.84089 0.0
C1250 C 0.11995 0.48231 0.83349 0.0
C1251 C 0.12853 0.49695 0.81528 0.0
C1252 C 0.11396 0.51025 0.80444 0.0
C1253 C 0.0908 0.50897 0.81183 0.0
C1254 C 0.08212 0.49434 0.83002 0.0
C1255 C 0.0584 0.47894 0.96229 0.0
C1256 C 0.04111 0.493 0.95983 0.0
C1257 C 0.06783 0.46901 0.94275 0.0
C1258 C 0.05996 0.47245 0.92015 0.0
C1259 C 0.043 0.48684 0.91765 0.0
C1260 C 0.03373 0.49698 0.93718 0.0
C1261 C 0.06936 0.46112 0.89921 0.0
C1262 C 0.07753 0.47461 0.87982 0.0
C1263 C 0.07077 0.43725 0.89837 0.0
C1264 C 0.06111 0.4215 0.91732 0.0
C1265 C 0.03767 0.42006 0.92441 0.0
C1266 C 0.02876 0.4054 0.94249 0.0
C1267 C 0.04306 0.39195 0.9535 0.0
C1268 C 0.0663 0.39307 0.94638 0.0
C1269 C 0.07531 0.40772 0.92833 0.0
H1270 H 0.03614 0.38062 0.9675 0.0
H1271 H 0.12064 0.52157 0.79034 0.0
H1272 H 0.61852 0.83066 0.89513 0.0
H1273 H 0.59532 0.85772 0.91264 0.0
H1274 H 0.65515 0.88971 0.95136 0.0
H1275 H 0.67833 0.86239 0.93428 0.0
H1276 H 0.61478 0.88557 0.97752 0.0
H1277 H 0.64195 0.91345 0.90214 0.0
H1278 H 0.64773 0.91092 0.85966 0.0
H1279 H 0.57361 0.89847 0.85009 0.0
H1280 H 0.56739 0.9006 0.89257 0.0
H1281 H 0.57769 0.99239 1.00314 0.0
H1282 H 0.60005 0.96371 0.98749 0.0
H1283 H 0.53987 0.93144 0.94948 0.0
H1284 H 0.51739 0.96001 0.96495 0.0
H1285 H 0.58022 0.93552 0.92322 0.0
H1286 H 0.55301 0.90819 0.99862 0.0
H1287 H 0.54726 0.91107 0.04106 0.0
H1288 H 0.62138 0.92272 0.05065 0.0
H1289 H 0.62759 0.92027 1.00819 0.0
C1290 C 0.6266 0.84315 0.90774 0.0
C1291 C 0.65029 0.84452 0.91322 0.0
C1292 C 0.61338 0.85871 0.91757 0.0
C1293 C 0.62364 0.87593 0.93301 0.0
C1294 C 0.64695 0.87663 0.93939 0.0
C1295 C 0.6602 0.86112 0.92951 0.0
C1296 C 0.61041 0.89391 0.9416 0.0
C1297 C 0.60743 0.89667 0.96568 0.0
C1298 C 0.60052 0.90812 0.9261 0.0
C1299 C 0.60421 0.90694 0.90055 0.0
C1300 C 0.62689 0.90999 0.89099 0.0
C1301 C 0.63024 0.90866 0.86691 0.0
C1302 C 0.61105 0.90447 0.85219 0.0
C1303 C 0.58846 0.90167 0.86152 0.0
C1304 C 0.58501 0.90295 0.88559 0.0
C1305 C 0.56927 0.97933 0.99128 0.0
C1306 C 0.54573 0.97842 0.98536 0.0
C1307 C 0.58203 0.96289 0.98246 0.0
C1308 C 0.5715 0.94532 0.96757 0.0
C1309 C 0.54827 0.94483 0.96101 0.0
C1310 C 0.53546 0.96116 0.96992 0.0
C1311 C 0.58456 0.92716 0.95913 0.0
C1312 C 0.58753 0.9244 0.93507 0.0
C1313 C 0.59443 0.91298 0.97465 0.0
C1314 C 0.59076 0.91428 1.0002 0.0
C1315 C 0.56809 0.91155 1.00976 0.0
C1316 C 0.56474 0.91307 0.03382 0.0
C1317 C 0.58394 0.91713 0.04854 0.0
C1318 C 0.60653 0.91961 0.03922 0.0
C1319 C 0.60997 0.91814 1.01516 0.0
H1320 H 0.58132 0.9183 0.06717 0.0
H1321 H 0.61368 0.90346 0.83355 0.0
H1322 H 0.92131 0.21614 0.37487 0.0
H1323 H 0.94551 0.19241 0.39546 0.0
H1324 H 0.88346 0.15017 0.42216 0.0
H1325 H 0.85933 0.1739 0.40196 0.0
H1326 H 0.91714 0.15987 0.45538 0.0
H1327 H 0.91132 0.13319 0.3751 0.0
H1328 H 0.91605 0.13786 0.33262 0.0
H1329 H 0.98971 0.15931 0.34065 0.0
H1330 H 0.98534 0.15506 0.38324 0.0
H1331 H 0.94596 0.05294 0.48324 0.0
H1332 H 0.9302 0.08389 0.46433 0.0
H1333 H 0.99961 0.11551 0.44422 0.0
H1334 H 0.01567 0.08442 0.46305 0.0
H1335 H 0.96778 0.11581 0.40883 0.0
H1336 H 0.9746 0.13796 0.48852 0.0
H1337 H 0.97024 0.13273 0.53094 0.0
H1338 H 0.89574 0.12041 0.52446 0.0
H1339 H 0.89966 0.12519 0.48192 0.0
C1340 C 0.9129 0.20198 0.38541 0.0
C1341 C 0.88845 0.19672 0.38667 0.0
C1342 C 0.92671 0.18838 0.39702 0.0
C1343 C 0.91625 0.1694 0.41013 0.0
C1344 C 0.89188 0.1647 0.4121 0.0
C1345 C 0.87811 0.17816 0.40042 0.0
C1346 C 0.93043 0.15373 0.42113 0.0
C1347 C 0.92815 0.15017 0.44521 0.0
C1348 C 0.94534 0.1416 0.40794 0.0
C1349 C 0.94796 0.14409 0.38235 0.0
C1350 C 0.92849 0.13909 0.36782 0.0
C1351 C 0.93111 0.14163 0.34372 0.0
C1352 C 0.95316 0.14895 0.33394 0.0
C1353 C 0.97264 0.15369 0.34825 0.0
C1354 C 0.9701 0.15121 0.37236 0.0
C1355 C 0.95793 0.06636 0.47469 0.0
C1356 C 0.9821 0.06624 0.47478 0.0
C1357 C 0.94888 0.08411 0.46397 0.0
C1358 C 0.96377 0.10217 0.45321 0.0
C1359 C 0.98784 0.10177 0.45254 0.0
C1360 C 0.99696 0.084 0.46333 0.0
C1361 C 0.95398 0.12152 0.44297 0.0
C1362 C 0.9571 0.12578 0.41908 0.0
C1363 C 0.93992 0.13439 0.45635 0.0
C1364 C 0.93744 0.13178 0.48199 0.0
C1365 C 0.95728 0.13398 0.49611 0.0
C1366 C 0.95489 0.13112 0.52019 0.0
C1367 C 0.93272 0.12621 0.53038 0.0
C1368 C 0.9129 0.12421 0.51653 0.0
C1369 C 0.9152 0.12702 0.49243 0.0
H1370 H 0.93091 0.12399 0.54903 0.0
H1371 H 0.95515 0.15089 0.31528 0.0
H1372 H 0.22203 0.63579 0.16605 0.0
H1373 H 0.18626 0.6198 0.14572 0.0
H1374 H 0.22662 0.58822 0.09492 0.0
H1375 H 0.26243 0.60446 0.11498 0.0
H1376 H 0.19495 0.60396 0.07264 0.0
H1377 H 0.19232 0.55719 0.14028 0.0
H1378 H 0.19304 0.54865 0.18217 0.0
H1379 H 0.13267 0.58103 0.19377 0.0
H1380 H 0.13176 0.59001 0.15197 0.0
H1381 H 0.07764 0.515 0.06575 0.0
H1382 H 0.11406 0.53084 0.08481 0.0
H1383 H 0.11441 0.5953 0.04973 0.0
H1384 H 0.07825 0.57921 0.02996 0.0
H1385 H 0.12629 0.56206 0.11467 0.0
H1386 H 0.16923 0.62505 0.04392 0.0
H1387 H 0.17051 0.62843 1.00114 0.0
H1388 H 0.1537 0.55498 0.99418 0.0
H1389 H 0.15262 0.55114 0.0369 0.0
C1390 C 0.22335 0.62525 0.15069 0.0
C1391 C 0.24536 0.62149 0.14233 0.0
C1392 C 0.20274 0.61605 0.13899 0.0
C1393 C 0.20337 0.60242 0.11873 0.0
C1394 C 0.22535 0.59868 0.11036 0.0
C1395 C 0.24597 0.60804 0.12193 0.0
C1396 C 0.18131 0.59221 0.1062 0.0
C1397 C 0.17996 0.59487 0.08194 0.0
C1398 C 0.16162 0.57981 0.11791 0.0
C1399 C 0.16212 0.57448 0.14304 0.0
C1400 C 0.1793 0.56264 0.15179 0.0
C1401 C 0.17972 0.55769 0.17551 0.0
C1402 C 0.16295 0.56435 0.19063 0.0
C1403 C 0.14567 0.57592 0.18204 0.0
C1404 C 0.14518 0.58092 0.15834 0.0
C1405 C 0.08548 0.53253 0.0619 0.0
C1406 C 0.07483 0.54572 0.04612 0.0
C1407 C 0.10641 0.54166 0.07298 0.0
C1408 C 0.11746 0.56435 0.06879 0.0
C1409 C 0.10679 0.57762 0.05308 0.0
C1410 C 0.08593 0.56838 0.04177 0.0
C1411 C 0.13981 0.57403 0.08113 0.0
C1412 C 0.14122 0.57127 0.10537 0.0
C1413 C 0.15979 0.58575 0.0693 0.0
C1414 C 0.16059 0.58785 0.0436 0.0
C1415 C 0.16588 0.60962 0.03325 0.0
C1416 C 0.16656 0.61162 1.00902 0.0
C1417 C 0.16211 0.59194 0.99495 0.0
C1418 C 0.15705 0.57021 1.00509 0.0
C1419 C 0.15638 0.56812 0.02931 0.0
H1420 H 0.16263 0.59352 0.9762 0.0
H1421 H 0.1633 0.5605 0.20899 0.0
H1422 H 0.29386 0.38448 0.64914 0.0
H1423 H 0.32879 0.40118 0.62798 0.0
H1424 H 0.29703 0.46036 0.61162 0.0
H1425 H 0.26111 0.44279 0.63102 0.0
H1426 H 0.31948 0.45141 0.57577 0.0
H1427 H 0.34167 0.45958 0.65535 0.0
H1428 H 0.34685 0.44754 0.69567 0.0
H1429 H 0.39187 0.40094 0.67141 0.0
H1430 H 0.38672 0.41249 0.63089 0.0
H1431 H 0.42916 0.52052 0.54385 0.0
H1432 H 0.39266 0.50485 0.5639 0.0
H1433 H 0.41489 0.43856 0.56738 0.0
H1434 H 0.45127 0.45397 0.54715 0.0
H1435 H 0.39759 0.45283 0.61004 0.0
H1436 H 0.37418 0.44647 0.52954 0.0
H1437 H 0.36952 0.46143 0.49023 0.0
H1438 H 0.32726 0.50886 0.51836 0.0
H1439 H 0.33194 0.49439 0.55789 0.0
C1440 C 0.29396 0.40088 0.64079 0.0
C1441 C 0.27423 0.41208 0.64197 0.0
C1442 C 0.31433 0.4107 0.62896 0.0
C1443 C 0.31603 0.4324 0.61846 0.0
C1444 C 0.29644 0.44368 0.61959 0.0
C1445 C 0.27585 0.43366 0.63107 0.0
C1446 C 0.338 0.44305 0.606 0.0
C1447 C 0.33648 0.452 0.58353 0.0
C1448 C 0.36047 0.44374 0.61572 0.0
C1449 C 0.36363 0.43675 0.64006 0.0
C1450 C 0.35254 0.44665 0.6586 0.0
C1451 C 0.35549 0.43993 0.68149 0.0
C1452 C 0.36963 0.42344 0.68609 0.0
C1453 C 0.3809 0.41369 0.66781 0.0
C1454 C 0.37799 0.42033 0.64488 0.0
C1455 C 0.42624 0.50255 0.5487 0.0
C1456 C 0.44323 0.48852 0.54374 0.0
C1457 C 0.4053 0.4936 0.56017 0.0
C1458 C 0.40091 0.47046 0.56715 0.0
C1459 C 0.41782 0.45644 0.56221 0.0
C1460 C 0.43861 0.46529 0.5505 0.0
C1461 C 0.37893 0.46093 0.57995 0.0
C1462 C 0.38051 0.45225 0.60245 0.0
C1463 C 0.35656 0.46091 0.57046 0.0
C1464 C 0.35361 0.4695 0.54669 0.0
C1465 C 0.36405 0.46022 0.52736 0.0
C1466 C 0.36138 0.46858 0.50504 0.0
C1467 C 0.34816 0.48612 0.50181 0.0
C1468 C 0.33752 0.49529 0.52089 0.0
C1469 C 0.34017 0.487 0.54325 0.0
H1470 H 0.34611 0.49258 0.48451 0.0
H1471 H 0.37189 0.41826 0.70383 0.0
H1472 H 0.75205 0.67039 0.90974 0.0
H1473 H 0.78048 0.64612 0.92117 0.0
H1474 H 0.8185 0.66216 0.85688 0.0
H1475 H 0.78999 0.68602 0.84522 0.0
H1476 H 0.8199 0.61872 0.86858 0.0
H1477 H 0.83365 0.6927 0.90677 0.0
H1478 H 0.82319 0.72452 0.93085 0.0
H1479 H 0.80857 0.67904 0.98901 0.0
H1480 H 0.81863 0.64686 0.96514 0.0
H1481 H 0.93502 0.60685 0.90482 0.0
H1482 H 0.89908 0.61744 0.88936 0.0
H1483 H 0.86444 0.60094 0.95536 0.0
H1484 H 0.9004 0.59082 0.97089 0.0
H1485 H 0.85968 0.64233 0.94288 0.0
H1486 H 0.8441 0.5677 0.90315 0.0
H1487 H 0.85491 0.53641 0.87836 0.0
H1488 H 0.8747 0.58434 0.82306 0.0
H1489 H 0.86395 0.61583 0.84754 0.0
C1490 C 0.7663 0.66843 0.89793 0.0
C1491 C 0.76891 0.6802 0.87668 0.0
C1492 C 0.78252 0.6546 0.90446 0.0
C1493 C 0.80186 0.65269 0.89006 0.0
C1494 C 0.80373 0.66338 0.86826 0.0
C1495 C 0.7874 0.67699 0.86162 0.0
C1496 C 0.82115 0.6413 0.89846 0.0
C1497 C 0.82866 0.62393 0.88479 0.0
C1498 C 0.8325 0.64796 0.91967 0.0
C1499 C 0.82664 0.66733 0.9341 0.0
C1500 C 0.82805 0.68946 0.92465 0.0
C1501 C 0.82221 0.70756 0.93826 0.0
C1502 C 0.81516 0.70379 0.96143 0.0
C1503 C 0.814 0.68192 0.97105 0.0
C1504 C 0.81977 0.66375 0.95749 0.0
C1505 C 0.91957 0.60512 0.91581 0.0
C1506 C 0.92047 0.5983 0.93908 0.0
C1507 C 0.89899 0.61099 0.90695 0.0
C1508 C 0.87896 0.60987 0.92116 0.0
C1509 C 0.87966 0.60202 0.94409 0.0
C1510 C 0.9002 0.59633 0.95297 0.0
C1511 C 0.85829 0.61944 0.91323 0.0
C1512 C 0.85068 0.63677 0.92688 0.0
C1513 C 0.84703 0.61286 0.89196 0.0
C1514 C 0.85356 0.59408 0.87725 0.0
C1515 C 0.85098 0.57154 0.88578 0.0
C1516 C 0.857 0.55378 0.87177 0.0
C1517 C 0.86564 0.55842 0.84922 0.0
C1518 C 0.86808 0.58078 0.84056 0.0
C1519 C 0.86195 0.59856 0.85445 0.0
H1520 H 0.87035 0.54466 0.83843 0.0
H1521 H 0.81065 0.71782 0.97194 0.0
H1522 H 0.41851 0.76931 0.11311 0.0
H1523 H 0.43285 0.80571 0.09401 0.0
H1524 H 0.41184 0.84275 0.15361 0.0
H1525 H 0.39639 0.80632 0.17244 0.0
H1526 H 0.40177 0.86403 0.11666 0.0
H1527 H 0.47084 0.83688 0.141 0.0
H1528 H 0.49846 0.80937 0.14444 0.0
H1529 H 0.50741 0.8086 0.07016 0.0
H1530 H 0.4796 0.83588 0.06625 0.0
H1531 H 0.50686 0.95735 0.0757 0.0
H1532 H 0.49125 0.92134 0.09497 0.0
H1533 H 0.42973 0.91494 0.05275 0.0
H1534 H 0.44512 0.95136 0.03362 0.0
H1535 H 0.48139 0.87895 0.08229 0.0
H1536 H 0.3829 0.88446 0.08148 0.0
H1537 H 0.35713 0.91397 0.08214 0.0
H1538 H 0.41012 0.96139 0.11636 0.0
H1539 H 0.43607 0.93208 0.11618 0.0
C1540 C 0.41664 0.78511 0.12221 0.0
C1541 C 0.40611 0.78448 0.14454 0.0
C1542 C 0.4252 0.80611 0.11126 0.0
C1543 C 0.42385 0.82734 0.1223 0.0
C1544 C 0.41327 0.82681 0.14454 0.0
C1545 C 0.40462 0.80579 0.15549 0.0
C1546 C 0.43336 0.84995 0.11071 0.0
C1547 C 0.41918 0.86717 0.10911 0.0
C1548 C 0.45624 0.85464 0.10104 0.0
C1549 C 0.47297 0.83824 0.10332 0.0
C1550 C 0.47857 0.83071 0.12539 0.0
C1551 C 0.49428 0.81518 0.12742 0.0
C1552 C 0.50464 0.8072 0.10752 0.0
C1553 C 0.49935 0.81477 0.08555 0.0
C1554 C 0.48363 0.83028 0.08342 0.0
C1555 C 0.48994 0.94843 0.07047 0.0
C1556 C 0.47729 0.95762 0.05304 0.0
C1557 C 0.48101 0.92761 0.08153 0.0
C1558 C 0.45908 0.91518 0.07568 0.0
C1559 C 0.44648 0.92417 0.05809 0.0
C1560 C 0.45539 0.94509 0.04701 0.0
C1561 C 0.44969 0.8929 0.08792 0.0
C1562 C 0.46392 0.87575 0.08968 0.0
C1563 C 0.42704 0.88849 0.09816 0.0
C1564 C 0.4115 0.90615 0.09857 0.0
C1565 C 0.38901 0.90116 0.08921 0.0
C1566 C 0.37438 0.91786 0.08949 0.0
C1567 C 0.38201 0.93956 0.09921 0.0
C1568 C 0.40426 0.9446 0.10875 0.0
C1569 C 0.41894 0.92796 0.10854 0.0
H1570 H 0.37067 0.95247 0.09939 0.0
H1571 H 0.5168 0.79518 0.10914 0.0
H1572 H 0.07842 0.24631 0.66046 0.0
H1573 H 0.06196 0.21084 0.6403 0.0
H1574 H 0.12653 0.21165 0.60229 0.0
H1575 H 0.14261 0.24782 0.62126 0.0
H1576 H 0.0931 0.19855 0.57396 0.0
H1577 H 0.10911 0.17504 0.65082 0.0
H1578 H 0.10744 0.17508 0.69373 0.0
H1579 H 0.03296 0.15647 0.69203 0.0
H1580 H 0.03416 0.15661 0.64909 0.0
H1581 H 0.07174 0.0808 0.53665 0.0
H1582 H 0.08766 0.11691 0.55632 0.0
H1583 H 0.02016 0.12053 0.58677 0.0
H1584 H 1.00411 0.08446 0.56726 0.0
H1585 H 0.05492 0.13103 0.61878 0.0
H1586 H 0.04005 0.15408 0.54097 0.0
H1587 H 0.04313 0.15227 0.49817 0.0
H1588 H 0.11757 0.17026 0.50201 0.0
H1589 H 0.11495 0.17187 0.54489 0.0
C1590 C 0.0891 0.2392 0.64762 0.0
C1591 C 0.11205 0.25013 0.6428 0.0
C1592 C 0.07972 0.2186 0.63625 0.0
C1593 C 0.09306 0.20808 0.61997 0.0
C1594 C 0.11579 0.21916 0.61483 0.0
C1595 C 0.12512 0.23984 0.626 0.0
C1596 C 0.08344 0.18563 0.60828 0.0
C1597 C 0.08504 0.18375 0.58388 0.0
C1598 C 0.0725 0.16619 0.62094 0.0
C1599 C 0.07171 0.16607 0.64674 0.0
C1600 C 0.09236 0.17113 0.6596 0.0
C1601 C 0.0915 0.17109 0.68392 0.0
C1602 C 0.0701 0.16584 0.6956 0.0
C1603 C 0.04952 0.16056 0.68296 0.0
C1604 C 0.05028 0.1606 0.65863 0.0
C1605 C 0.06025 0.08921 0.54757 0.0
C1606 C 0.03657 0.0796 0.55028 0.0
C1607 C 0.06939 0.10997 0.55876 0.0
C1608 C 0.05512 0.12166 0.57296 0.0
C1609 C 0.03158 0.11193 0.57595 0.0
C1610 C 0.0224 0.09127 0.56467 0.0
C1611 C 0.06463 0.14406 0.5846 0.0
C1612 C 0.06299 0.14589 0.60894 0.0
C1613 C 0.07574 0.16336 0.57193 0.0
C1614 C 0.07731 0.1629 0.54615 0.0
C1615 C 0.05708 0.15753 0.53269 0.0
C1616 C 0.05874 0.15655 0.50842 0.0
C1617 C 0.08053 0.16109 0.49738 0.0
C1618 C 0.1007 0.16672 0.51059 0.0
C1619 C 0.09914 0.1677 0.53488 0.0
H1620 H 0.08179 0.16029 0.47859 0.0
H1621 H 0.06947 0.16582 0.71443 0.0
H1622 H 0.76288 0.34136 0.40769 0.0
H1623 H 0.73471 0.36379 0.42466 0.0
H1624 H 0.69739 0.35868 0.3599 0.0
H1625 H 0.72544 0.33639 0.34286 0.0
H1626 H 0.7004 0.40097 0.37764 0.0
H1627 H 0.67893 0.32365 0.40618 0.0
H1628 H 0.68539 0.28831 0.42604 0.0
H1629 H 0.70128 0.32666 0.48936 0.0
H1630 H 0.69521 0.36231 0.46976 0.0
H1631 H 0.58704 0.41798 0.41167 0.0
H1632 H 0.62176 0.4033 0.39764 0.0
H1633 H 0.65279 0.41538 0.46536 0.0
H1634 H 0.61777 0.42954 0.47971 0.0
H1635 H 0.656 0.37265 0.44872 0.0
H1636 H 0.67438 0.44969 0.42028 0.0
H1637 H 0.66719 0.48457 0.39991 0.0
H1638 H 0.65598 0.44609 0.33609 0.0
H1639 H 0.66295 0.41097 0.35609 0.0
C1640 C 0.74867 0.34504 0.39708 0.0
C1641 C 0.74637 0.33706 0.37394 0.0
C1642 C 0.7326 0.35787 0.40679 0.0
C1643 C 0.71379 0.3627 0.39363 0.0
C1644 C 0.71181 0.35523 0.37036 0.0
C1645 C 0.7279 0.34253 0.36063 0.0
C1646 C 0.69571 0.37496 0.40413 0.0
C1647 C 0.69058 0.39469 0.39309 0.0
C1648 C 0.68328 0.3671 0.42462 0.0
C1649 C 0.68689 0.34569 0.43643 0.0
C1650 C 0.68399 0.32458 0.42428 0.0
C1651 C 0.68755 0.30449 0.4355 0.0
C1652 C 0.69381 0.30525 0.45892 0.0
C1653 C 0.69647 0.3261 0.4712 0.0
C1654 C 0.69297 0.34626 0.46005 0.0
C1655 C 0.60123 0.41746 0.4236 0.0
C1656 C 0.59961 0.42483 0.44683 0.0
C1657 C 0.62117 0.40932 0.41549 0.0
C1658 C 0.63996 0.40846 0.43039 0.0
C1659 C 0.63852 0.416 0.45354 0.0
C1660 C 0.61857 0.4242 0.46167 0.0
C1661 C 0.66048 0.39847 0.42204 0.0
C1662 C 0.66603 0.37913 0.43346 0.0
C1663 C 0.67321 0.40661 0.40183 0.0
C1664 C 0.66898 0.42768 0.38974 0.0
C1665 C 0.67018 0.44865 0.40195 0.0
C1666 C 0.6662 0.46846 0.39046 0.0
C1667 C 0.66104 0.46751 0.36676 0.0
C1668 C 0.65995 0.44678 0.35446 0.0
C1669 C 0.66397 0.42693 0.36585 0.0
H1670 H 0.65794 0.48287 0.35791 0.0
H1671 H 0.69655 0.28968 0.46758 0.0
loop_
_geom_bond_atom_site_label_1
_geom_bond_atom_site_label_2
_geom_bond_distance
_geom_bond_site_symmetry_2
_ccdc_geom_bond_type
C0 C1 1.386 . S
C0 C2 1.397 . S
C0 H24 0.931 . S
C1 C0 1.386 . S
C1 C5 1.397 . S
C2 C0 1.397 . S
C2 C3 1.384 . S
C2 H25 0.930 . S
C3 C2 1.384 . S
C3 C4 1.377 . S
C3 C6 1.481 . S
C4 C3 1.377 . S
C4 C5 1.389 . S
C4 H26 0.929 . S
C5 C1 1.397 . S
C5 C4 1.389 . S
C5 H27 0.931 . S
C6 C3 1.481 . S
C6 C7 1.387 . S
C6 C11 1.390 . S
C7 C6 1.387 . S
C7 C8 1.401 . S
C7 H28 0.930 . S
C8 C7 1.401 . S
C8 C9 1.376 . S
C8 C17 1.511 . S
C9 C8 1.376 . S
C9 C10 1.392 . S
C9 H30 0.931 . S
C10 C9 1.392 . S
C10 C11 1.361 . S
C10 C12 1.500 . S
C11 C6 1.390 . S
C11 C10 1.361 . S
C11 H29 0.931 . S
C12 C10 1.500 . S
C12 C13 1.371 . S
C12 C14 1.365 . S
C13 C12 1.371 . S
C13 C23 1.386 . S
C13 H31 0.931 . S
C14 C12 1.365 . S
C14 C15 1.409 . S
C14 H32 0.929 . S
C15 C14 1.409 . S
C15 C16 1.380 . S
C15 H33 0.930 . S
C16 C15 1.380 . S
C16 C23 1.357 . S
C17 C8 1.511 . S
C17 C18 1.341 . S
C17 C19 1.371 . S
C18 C17 1.341 . S
C18 C22 1.394 . S
C18 H34 0.930 . S
C19 C17 1.371 . S
C19 C20 1.392 . S
C19 H35 0.931 . S
C20 C19 1.392 . S
C20 C21 1.331 . S
C20 H38 0.932 . S
C21 C20 1.331 . S
C21 C22 1.336 . S
C22 C18 1.394 . S
C22 C21 1.336 . S
C22 H37 0.929 . S
C23 C13 1.386 . S
C23 C16 1.357 . S
C23 H36 0.928 . S
H24 C0 0.931 . S
H25 C2 0.930 . S
H26 C4 0.929 . S
H27 C5 0.931 . S
H28 C7 0.930 . S
H29 C11 0.931 . S
H30 C9 0.931 . S
H31 C13 0.931 . S
H32 C14 0.929 . S
H33 C15 0.930 . S
H34 C18 0.930 . S
H35 C19 0.931 . S
H36 C23 0.928 . S
H37 C22 0.929 . S
H38 C20 0.932 . S
C39 C40 1.386 . S
C39 C41 1.397 . S
C39 H63 0.931 . S
C40 C39 1.386 . S
C40 C44 1.397 . S
C41 C39 1.397 . S
C41 C42 1.384 . S
C41 H64 0.930 . S
C42 C41 1.384 . S
C42 C43 1.377 . S
C42 C45 1.481 . S
C43 C42 1.377 . S
C43 C44 1.389 . S
C43 H65 0.929 . S
C44 C40 1.397 . S
C44 C43 1.389 . S
C44 H66 0.931 . S
C45 C42 1.481 . S
C45 C46 1.387 . S
C45 C50 1.390 . S
C46 C45 1.387 . S
C46 C47 1.401 . S
C46 H67 0.930 . S
C47 C46 1.401 . S
C47 C48 1.376 . S
C47 C56 1.511 . S
C48 C47 1.376 . S
C48 C49 1.392 . S
C48 H69 0.931 . S
C49 C48 1.392 . S
C49 C50 1.361 . S
C49 C51 1.500 . S
C50 C45 1.390 . S
C50 C49 1.361 . S
C50 H68 0.931 . S
C51 C49 1.500 . S
C51 C52 1.371 . S
C51 C53 1.365 . S
C52 C51 1.371 . S
C52 C62 1.386 . S
C52 H70 0.931 . S
C53 C51 1.365 . S
C53 C54 1.409 . S
C53 H71 0.929 . S
C54 C53 1.409 . S
C54 C55 1.380 . S
C54 H72 0.930 . S
C55 C54 1.380 . S
C55 C62 1.357 . S
C56 C47 1.511 . S
C56 C57 1.341 . S
C56 C58 1.371 . S
C57 C56 1.341 . S
C57 C61 1.394 . S
C57 H73 0.930 . S
C58 C56 1.371 . S
C58 C59 1.392 . S
C58 H74 0.931 . S
C59 C58 1.392 . S
C59 C60 1.331 . S
C59 H77 0.932 . S
C60 C59 1.331 . S
C60 C61 1.336 . S
C61 C57 1.394 . S
C61 C60 1.336 . S
C61 H76 0.929 . S
C62 C52 1.386 . S
C62 C55 1.357 . S
C62 H75 0.928 . S
H63 C39 0.931 . S
H64 C41 0.930 . S
H65 C43 0.929 . S
H66 C44 0.931 . S
H67 C46 0.930 . S
H68 C50 0.931 . S
H69 C48 0.931 . S
H70 C52 0.931 . S
H71 C53 0.929 . S
H72 C54 0.930 . S
H73 C57 0.930 . S
H74 C58 0.931 . S
H75 C62 0.928 . S
H76 C61 0.929 . S
H77 C59 0.932 . S
C78 C79 1.386 . S
C78 C80 1.397 . S
C78 H102 0.931 . S
C79 C78 1.386 . S
C79 C83 1.397 . S
C80 C78 1.397 . S
C80 C81 1.384 . S
C80 H103 0.930 . S
C81 C80 1.384 . S
C81 C82 1.377 . S
C81 C84 1.481 . S
C82 C81 1.377 . S
C82 C83 1.389 . S
C82 H104 0.929 . S
C83 C79 1.397 . S
C83 C82 1.389 . S
C83 H105 0.931 . S
C84 C81 1.481 . S
C84 C85 1.387 . S
C84 C89 1.390 . S
C85 C84 1.387 . S
C85 C86 1.401 . S
C85 H106 0.930 . S
C86 C85 1.401 . S
C86 C87 1.376 . S
C86 C95 1.511 . S
C87 C86 1.376 . S
C87 C88 1.392 . S
C87 H108 0.931 . S
C88 C87 1.392 . S
C88 C89 1.361 . S
C88 C90 1.500 . S
C89 C84 1.390 . S
C89 C88 1.361 . S
C89 H107 0.931 . S
C90 C88 1.500 . S
C90 C91 1.371 . S
C90 C92 1.365 . S
C91 C90 1.371 . S
C91 C101 1.386 . S
C91 H109 0.931 . S
C92 C90 1.365 . S
C92 C93 1.409 . S
C92 H110 0.929 . S
C93 C92 1.409 . S
C93 C94 1.380 . S
C93 H111 0.930 . S
C94 C93 1.380 . S
C94 C101 1.357 . S
C95 C86 1.511 . S
C95 C96 1.341 . S
C95 C97 1.371 . S
C96 C95 1.341 . S
C96 C100 1.394 . S
C96 H112 0.930 . S
C97 C95 1.371 . S
C97 C98 1.392 . S
C97 H113 0.931 . S
C98 C97 1.392 . S
C98 C99 1.331 . S
C98 H116 0.932 . S
C99 C98 1.331 . S
C99 C100 1.336 . S
C100 C96 1.394 . S
C100 C99 1.336 . S
C100 H115 0.929 . S
C101 C91 1.386 . S
C101 C94 1.357 . S
C101 H114 0.928 . S
H102 C78 0.931 . S
H103 C80 0.930 . S
H104 C82 0.929 . S
H105 C83 0.931 . S
H106 C85 0.930 . S
H107 C89 0.931 . S
H108 C87 0.931 . S
H109 C91 0.931 . S
H110 C92 0.929 . S
H111 C93 0.930 . S
H112 C96 0.930 . S
H113 C97 0.931 . S
H114 C101 0.928 . S
H115 C100 0.929 . S
H116 C98 0.932 . S
C117 C118 1.386 . S
C117 C119 1.397 . S
C117 H141 0.931 . S
C118 C117 1.386 . S
C118 C122 1.397 . S
C119 C117 1.397 . S
C119 C120 1.384 . S
C119 H142 0.930 . S
C120 C119 1.384 . S
C120 C121 1.377 . S
C120 C123 1.481 . S
C121 C120 1.377 . S
C121 C122 1.389 . S
C121 H143 0.929 . S
C122 C118 1.397 . S
C122 C121 1.389 . S
C122 H144 0.931 . S
C123 C120 1.481 . S
C123 C124 1.387 . S
C123 C128 1.390 . S
C124 C123 1.387 . S
C124 C125 1.401 . S
C124 H145 0.930 . S
C125 C124 1.401 . S
C125 C126 1.376 . S
C125 C134 1.511 . S
C126 C125 1.376 . S
C126 C127 1.392 . S
C126 H147 0.931 . S
C127 C126 1.392 . S
C127 C128 1.361 . S
C127 C129 1.500 . S
C128 C123 1.390 . S
C128 C127 1.361 . S
C128 H146 0.931 . S
C129 C127 1.500 . S
C129 C130 1.371 . S
C129 C131 1.365 . S
C130 C129 1.371 . S
C130 C140 1.386 . S
C130 H148 0.931 . S
C131 C129 1.365 . S
C131 C132 1.409 . S
C131 H149 0.929 . S
C132 C131 1.409 . S
C132 C133 1.380 . S
C132 H150 0.930 . S
C133 C132 1.380 . S
C133 C140 1.357 . S
C134 C125 1.511 . S
C134 C135 1.341 . S
C134 C136 1.371 . S
C135 C134 1.341 . S
C135 C139 1.394 . S
C135 H151 0.930 . S
C136 C134 1.371 . S
C136 C137 1.392 . S
C136 H152 0.931 . S
C137 C136 1.392 . S
C137 C138 1.331 . S
C137 H155 0.932 . S
C138 C137 1.331 . S
C138 C139 1.336 . S
C139 C135 1.394 . S
C139 C138 1.336 . S
C139 H154 0.929 . S
C140 C130 1.386 . S
C140 C133 1.357 . S
C140 H153 0.928 . S
H141 C117 0.931 . S
H142 C119 0.930 . S
H143 C121 0.929 . S
H144 C122 0.931 . S
H145 C124 0.930 . S
H146 C128 0.931 . S
H147 C126 0.931 . S
H148 C130 0.931 . S
H149 C131 0.929 . S
H150 C132 0.930 . S
H151 C135 0.930 . S
H152 C136 0.931 . S
H153 C140 0.928 . S
H154 C139 0.929 . S
H155 C137 0.932 . S
C156 C157 1.386 . S
C156 C158 1.397 . S
C156 H180 0.931 . S
C157 C156 1.386 . S
C157 C161 1.397 . S
C158 C156 1.397 . S
C158 C159 1.384 . S
C158 H181 0.930 . S
C159 C158 1.384 . S
C159 C160 1.377 . S
C159 C162 1.481 . S
C160 C159 1.377 . S
C160 C161 1.389 . S
C160 H182 0.929 . S
C161 C157 1.397 . S
C161 C160 1.389 . S
C161 H183 0.931 . S
C162 C159 1.481 . S
C162 C163 1.387 . S
C162 C167 1.390 . S
C163 C162 1.387 . S
C163 C164 1.401 . S
C163 H184 0.930 . S
C164 C163 1.401 . S
C164 C165 1.376 . S
C164 C173 1.511 . S
C165 C164 1.376 . S
C165 C166 1.392 . S
C165 H186 0.931 . S
C166 C165 1.392 . S
C166 C167 1.361 . S
C166 C168 1.500 . S
C167 C162 1.390 . S
C167 C166 1.361 . S
C167 H185 0.931 . S
C168 C166 1.500 . S
C168 C169 1.371 . S
C168 C170 1.365 . S
C169 C168 1.371 . S
C169 C179 1.386 . S
C169 H187 0.931 . S
C170 C168 1.365 . S
C170 C171 1.409 . S
C170 H188 0.929 . S
C171 C170 1.409 . S
C171 C172 1.380 . S
C171 H189 0.930 . S
C172 C171 1.380 . S
C172 C179 1.357 . S
C173 C164 1.511 . S
C173 C174 1.341 . S
C173 C175 1.371 . S
C174 C173 1.341 . S
C174 C178 1.394 . S
C174 H190 0.930 . S
C175 C173 1.371 . S
C175 C176 1.392 . S
C175 H191 0.931 . S
C176 C175 1.392 . S
C176 C177 1.331 . S
C176 H194 0.932 . S
C177 C176 1.331 . S
C177 C178 1.336 . S
C178 C174 1.394 . S
C178 C177 1.336 . S
C178 H193 0.929 . S
C179 C169 1.386 . S
C179 C172 1.357 . S
C179 H192 0.928 . S
H180 C156 0.931 . S
H181 C158 0.930 . S
H182 C160 0.929 . S
H183 C161 0.931 . S
H184 C163 0.930 . S
H185 C167 0.931 . S
H186 C165 0.931 . S
H187 C169 0.931 . S
H188 C170 0.929 . S
H189 C171 0.930 . S
H190 C174 0.930 . S
H191 C175 0.931 . S
H192 C179 0.928 . S
H193 C178 0.929 . S
H194 C176 0.932 . S
C195 C196 1.386 . S
C195 C197 1.397 . S
C195 H219 0.931 . S
C196 C195 1.386 . S
C196 C200 1.397 . S
C197 C195 1.397 . S
C197 C198 1.384 . S
C197 H220 0.930 . S
C198 C197 1.384 . S
C198 C199 1.377 . S
C198 C201 1.481 . S
C199 C198 1.377 . S
C199 C200 1.389 . S
C199 H221 0.929 . S
C200 C196 1.397 . S
C200 C199 1.389 . S
C200 H222 0.931 . S
C201 C198 1.481 . S
C201 C202 1.387 . S
C201 C206 1.390 . S
C202 C201 1.387 . S
C202 C203 1.401 . S
C202 H223 0.930 . S
C203 C202 1.401 . S
C203 C204 1.376 . S
C203 C212 1.511 . S
C204 C203 1.376 . S
C204 C205 1.392 . S
C204 H225 0.931 . S
C205 C204 1.392 . S
C205 C206 1.361 . S
C205 C207 1.500 . S
C206 C201 1.390 . S
C206 C205 1.361 . S
C206 H224 0.931 . S
C207 C205 1.500 . S
C207 C208 1.371 . S
C207 C209 1.365 . S
C208 C207 1.371 . S
C208 C218 1.386 . S
C208 H226 0.931 . S
C209 C207 1.365 . S
C209 C210 1.409 . S
C209 H227 0.929 . S
C210 C209 1.409 . S
C210 C211 1.380 . S
C210 H228 0.930 . S
C211 C210 1.380 . S
C211 C218 1.357 . S
C212 C203 1.511 . S
C212 C213 1.341 . S
C212 C214 1.371 . S
C213 C212 1.341 . S
C213 C217 1.394 . S
C213 H229 0.930 . S
C214 C212 1.371 . S
C214 C215 1.392 . S
C214 H230 0.931 . S
C215 C214 1.392 . S
C215 C216 1.331 . S
C215 H233 0.932 . S
C216 C215 1.331 . S
C216 C217 1.336 . S
C217 C213 1.394 . S
C217 C216 1.336 . S
C217 H232 0.929 . S
C218 C208 1.386 . S
C218 C211 1.357 . S
C218 H231 0.928 . S
H219 C195 0.931 . S
H220 C197 0.930 . S
H221 C199 0.929 . S
H222 C200 0.931 . S
H223 C202 0.930 . S
H224 C206 0.931 . S
H225 C204 0.931 . S
H226 C208 0.931 . S
H227 C209 0.929 . S
H228 C210 0.930 . S
H229 C213 0.930 . S
H230 C214 0.931 . S
H231 C218 0.928 . S
H232 C217 0.929 . S
H233 C215 0.932 . S
C234 C235 1.386 . S
C234 C236 1.397 . S
C234 H258 0.931 . S
C235 C234 1.386 . S
C235 C239 1.397 . S
C236 C234 1.397 . S
C236 C237 1.384 . S
C236 H259 0.930 . S
C237 C236 1.384 . S
C237 C238 1.377 . S
C237 C240 1.481 . S
C238 C237 1.377 . S
C238 C239 1.389 . S
C238 H260 0.929 . S
C239 C235 1.397 . S
C239 C238 1.389 . S
C239 H261 0.931 . S
C240 C237 1.481 . S
C240 C241 1.387 . S
C240 C245 1.390 . S
C241 C240 1.387 . S
C241 C242 1.401 . S
C241 H262 0.930 . S
C242 C241 1.401 . S
C242 C243 1.376 . S
C242 C251 1.511 . S
C243 C242 1.376 . S
C243 C244 1.392 . S
C243 H264 0.931 . S
C244 C243 1.392 . S
C244 C245 1.361 . S
C244 C246 1.500 . S
C245 C240 1.390 . S
C245 C244 1.361 . S
C245 H263 0.931 . S
C246 C244 1.500 . S
C246 C247 1.371 . S
C246 C248 1.365 . S
C247 C246 1.371 . S
C247 C257 1.386 . S
C247 H265 0.931 . S
C248 C246 1.365 . S
C248 C249 1.409 . S
C248 H266 0.929 . S
C249 C248 1.409 . S
C249 C250 1.380 . S
C249 H267 0.930 . S
C250 C249 1.380 . S
C250 C257 1.357 . S
C251 C242 1.511 . S
C251 C252 1.341 . S
C251 C253 1.371 . S
C252 C251 1.341 . S
C252 C256 1.394 . S
C252 H268 0.930 . S
C253 C251 1.371 . S
C253 C254 1.392 . S
C253 H269 0.931 . S
C254 C253 1.392 . S
C254 C255 1.331 . S
C254 H272 0.932 . S
C255 C254 1.331 . S
C255 C256 1.336 . S
C256 C252 1.394 . S
C256 C255 1.336 . S
C256 H271 0.929 . S
C257 C247 1.386 . S
C257 C250 1.357 . S
C257 H270 0.928 . S
H258 C234 0.931 . S
H259 C236 0.930 . S
H260 C238 0.929 . S
H261 C239 0.931 . S
H262 C241 0.930 . S
H263 C245 0.931 . S
H264 C243 0.931 . S
H265 C247 0.931 . S
H266 C248 0.929 . S
H267 C249 0.930 . S
H268 C252 0.930 . S
H269 C253 0.931 . S
H270 C257 0.928 . S
H271 C256 0.929 . S
H272 C254 0.932 . S
C273 C274 1.386 . S
C273 C275 1.397 . S
C273 H297 0.931 . S
C274 C273 1.386 . S
C274 C278 1.397 . S
C275 C273 1.397 . S
C275 C276 1.384 . S
C275 H298 0.930 . S
C276 C275 1.384 . S
C276 C277 1.377 . S
C276 C279 1.481 . S
C277 C276 1.377 . S
C277 C278 1.389 . S
C277 H299 0.929 . S
C278 C274 1.397 . S
C278 C277 1.389 . S
C278 H300 0.931 . S
C279 C276 1.481 . S
C279 C280 1.387 . S
C279 C284 1.390 . S
C280 C279 1.387 . S
C280 C281 1.401 . S
C280 H301 0.930 . S
C281 C280 1.401 . S
C281 C282 1.376 . S
C281 C290 1.511 . S
C282 C281 1.376 . S
C282 C283 1.392 . S
C282 H303 0.931 . S
C283 C282 1.392 . S
C283 C284 1.361 . S
C283 C285 1.500 . S
C284 C279 1.390 . S
C284 C283 1.361 . S
C284 H302 0.931 . S
C285 C283 1.500 . S
C285 C286 1.371 . S
C285 C287 1.365 . S
C286 C285 1.371 . S
C286 C296 1.386 . S
C286 H304 0.931 . S
C287 C285 1.365 . S
C287 C288 1.409 . S
C287 H305 0.929 . S
C288 C287 1.409 . S
C288 C289 1.380 . S
C288 H306 0.930 . S
C289 C288 1.380 . S
C289 C296 1.357 . S
C290 C281 1.511 . S
C290 C291 1.341 . S
C290 C292 1.371 . S
C291 C290 1.341 . S
C291 C295 1.394 . S
C291 H307 0.930 . S
C292 C290 1.371 . S
C292 C293 1.392 . S
C292 H308 0.931 . S
C293 C292 1.392 . S
C293 C294 1.331 . S
C293 H311 0.932 . S
C294 C293 1.331 . S
C294 C295 1.336 . S
C295 C291 1.394 . S
C295 C294 1.336 . S
C295 H310 0.929 . S
C296 C286 1.386 . S
C296 C289 1.357 . S
C296 H309 0.928 . S
H297 C273 0.931 . S
H298 C275 0.930 . S
H299 C277 0.929 . S
H300 C278 0.931 . S
H301 C280 0.930 . S
H302 C284 0.931 . S
H303 C282 0.931 . S
H304 C286 0.931 . S
H305 C287 0.929 . S
H306 C288 0.930 . S
H307 C291 0.930 . S
H308 C292 0.931 . S
H309 C296 0.928 . S
H310 C295 0.929 . S
H311 C293 0.932 . S
Tb312 C321 2.764 . S
Tb312 O322 2.325 1_455 S
Tb312 O325 2.303 . S
Tb312 O329 2.322 1_545 S
Tb312 O330 2.349 1_545 S
Tb312 O333 2.415 . S
Tb312 O334 2.399 . S
Tb313 O323 2.322 . S
Tb313 O324 2.349 . S
Tb313 O326 2.415 1_545 S
Tb313 O327 2.399 1_545 S
Tb313 O328 2.325 1_645 S
Tb313 O331 2.303 1_545 S
Tb313 C342 2.764 1_545 S
C314 O330 1.261 1_655 S
C314 O331 1.257 . S
C315 C318 1.358 . S
C315 C319 1.332 . S
C315 C321 1.504 . S
C316 C317 1.373 . S
C316 C320 1.308 . S
C317 C316 1.373 . S
C317 C318 1.429 . S
C317 H344 0.932 . S
C318 C315 1.358 . S
C318 C317 1.429 . S
C318 H345 0.930 . S
C319 C315 1.332 . S
C319 C320 1.394 . S
C319 H346 0.932 . S
C320 C316 1.308 . S
C320 C319 1.394 . S
C320 H347 0.929 . S
C321 Tb312 2.764 . S
C321 C315 1.504 . S
C321 O333 1.239 . S
C321 O334 1.263 . S
O322 Tb312 2.325 1_655 S
O322 C332 1.236 . S
O323 Tb313 2.322 . S
O323 C332 1.257 . S
O324 Tb313 2.349 . S
O324 C335 1.261 1_655 S
O325 Tb312 2.303 . S
O325 C335 1.257 . S
O326 Tb313 2.415 1_565 S
O326 C342 1.239 . S
O327 Tb313 2.399 1_565 S
O327 C342 1.263 . S
O328 Tb313 2.325 1_465 S
O328 C343 1.236 . S
O329 Tb312 2.322 1_565 S
O329 C343 1.257 . S
O330 Tb312 2.349 1_565 S
O330 C314 1.261 1_455 S
O331 Tb313 2.303 1_565 S
O331 C314 1.257 . S
C332 O322 1.236 . S
C332 O323 1.257 . S
O333 Tb312 2.415 . S
O333 C321 1.239 . S
O334 Tb312 2.399 . S
O334 C321 1.263 . S
C335 O324 1.261 1_455 S
C335 O325 1.257 . S
C336 C339 1.358 . S
C336 C340 1.332 . S
C336 C342 1.504 . S
C337 C338 1.373 . S
C337 C341 1.308 . S
C338 C337 1.373 . S
C338 C339 1.429 . S
C338 H348 0.932 . S
C339 C336 1.358 . S
C339 C338 1.429 . S
C339 H349 0.930 . S
C340 C336 1.332 . S
C340 C341 1.394 . S
C340 H350 0.932 . S
C341 C337 1.308 . S
C341 C340 1.394 . S
C341 H351 0.929 . S
C342 Tb313 2.764 1_565 S
C342 O326 1.239 . S
C342 O327 1.263 . S
C342 C336 1.504 . S
C343 O328 1.236 . S
C343 O329 1.257 . S
H344 C317 0.932 . S
H345 C318 0.930 . S
H346 C319 0.932 . S
H347 C320 0.929 . S
H348 C338 0.932 . S
H349 C339 0.930 . S
H350 C340 0.932 . S
H351 C341 0.929 . S
Tb352 C361 2.764 . S
Tb352 O362 2.325 1_554 S
Tb352 O365 2.303 . S
Tb352 O369 2.322 1_545 S
Tb352 O370 2.377 1_545 S
Tb352 O373 2.415 . S
Tb352 O374 2.399 . S
Tb353 O363 2.329 . S
Tb353 O364 2.337 1_556 S
Tb353 O366 2.408 1_545 S
Tb353 O367 2.397 1_545 S
Tb353 O368 2.319 1_546 S
Tb353 O371 2.300 1_545 S
Tb353 C382 2.759 1_545 S
C354 O370 1.225 1_556 S
C354 O371 1.257 . S
C355 C358 1.358 . S
C355 C359 1.332 . S
C355 C361 1.504 . S
C356 C357 1.373 . S
C356 C360 1.308 . S
C357 C356 1.373 . S
C357 C358 1.429 . S
C357 H384 0.932 . S
C358 C355 1.358 . S
C358 C357 1.429 . S
C358 H385 0.930 . S
C359 C355 1.332 . S
C359 C360 1.394 . S
C359 H386 0.932 . S
C360 C356 1.308 . S
C360 C359 1.394 . S
C360 H387 0.929 . S
C361 Tb352 2.764 . S
C361 C355 1.504 . S
C361 O373 1.239 . S
C361 O374 1.263 . S
O362 Tb352 2.325 1_556 S
O362 C372 1.236 . S
O363 Tb353 2.329 . S
O363 C372 1.257 . S
O364 Tb353 2.337 1_554 S
O364 C375 1.285 . S
O365 Tb352 2.303 . S
O365 C375 1.257 . S
O366 Tb353 2.408 1_565 S
O366 C382 1.239 . S
O367 Tb353 2.397 1_565 S
O367 C382 1.263 . S
O368 Tb353 2.319 1_564 S
O368 C383 1.236 . S
O369 Tb352 2.322 1_565 S
O369 C383 1.257 . S
O370 Tb352 2.377 1_565 S
O370 C354 1.225 1_554 S
O371 Tb353 2.300 1_565 S
O371 C354 1.257 . S
C372 O362 1.236 . S
C372 O363 1.257 . S
O373 Tb352 2.415 . S
O373 C361 1.239 . S
O374 Tb352 2.399 . S
O374 C361 1.263 . S
C375 O364 1.285 . S
C375 O365 1.257 . S
C376 C379 1.358 . S
C376 C380 1.332 . S
C376 C382 1.504 . S
C377 C378 1.373 . S
C377 C381 1.308 . S
C378 C377 1.373 . S
C378 C379 1.429 . S
C378 H388 0.932 . S
C379 C376 1.358 . S
C379 C378 1.429 . S
C379 H389 0.930 . S
C380 C376 1.332 . S
C380 C381 1.394 . S
C380 H390 0.932 . S
C381 C377 1.308 . S
C381 C380 1.394 . S
C381 H391 0.929 . S
C382 Tb353 2.759 1_565 S
C382 O366 1.239 . S
C382 O367 1.263 . S
C382 C376 1.504 . S
C383 O368 1.236 . S
C383 O369 1.257 . S
H384 C357 0.932 . S
H385 C358 0.930 . S
H386 C359 0.932 . S
H387 C360 0.929 . S
H388 C378 0.932 . S
H389 C379 0.930 . S
H390 C380 0.932 . S
H391 C381 0.929 . S
Tb392 C401 2.764 . S
Tb392 O402 2.325 . S
Tb392 O405 2.303 . S
Tb392 O409 2.322 . S
Tb392 O410 2.349 . S
Tb392 O413 2.415 . S
Tb392 O414 2.399 . S
Tb393 O403 2.322 . S
Tb393 O404 2.349 . S
Tb393 O406 2.415 . S
Tb393 O407 2.399 . S
Tb393 O408 2.325 . S
Tb393 O411 2.303 . S
Tb393 C422 2.764 . S
C394 O410 1.261 . S
C394 O411 1.257 . S
C395 C398 1.358 . S
C395 C399 1.332 . S
C395 C401 1.504 . S
C396 C397 1.373 . S
C396 C400 1.308 . S
C397 C396 1.373 . S
C397 C398 1.429 . S
C397 H424 0.932 . S
C398 C395 1.358 . S
C398 C397 1.429 . S
C398 H425 0.930 . S
C399 C395 1.332 . S
C399 C400 1.394 . S
C399 H426 0.932 . S
C400 C396 1.308 . S
C400 C399 1.394 . S
C400 H427 0.929 . S
C401 Tb392 2.764 . S
C401 C395 1.504 . S
C401 O413 1.239 . S
C401 O414 1.263 . S
O402 Tb392 2.325 . S
O402 C412 1.236 . S
O403 Tb393 2.322 . S
O403 C412 1.257 . S
O404 Tb393 2.349 . S
O404 C415 1.261 . S
O405 Tb392 2.303 . S
O405 C415 1.257 . S
O406 Tb393 2.415 . S
O406 C422 1.239 . S
O407 Tb393 2.399 . S
O407 C422 1.263 . S
O408 Tb393 2.325 . S
O408 C423 1.236 . S
O409 Tb392 2.322 . S
O409 C423 1.257 . S
O410 Tb392 2.349 . S
O410 C394 1.261 . S
O411 Tb393 2.303 . S
O411 C394 1.257 . S
C412 O402 1.236 . S
C412 O403 1.257 . S
O413 Tb392 2.415 . S
O413 C401 1.239 . S
O414 Tb392 2.399 . S
O414 C401 1.263 . S
C415 O404 1.261 . S
C415 O405 1.257 . S
C416 C419 1.358 . S
C416 C420 1.332 . S
C416 C422 1.504 . S
C417 C418 1.373 . S
C417 C421 1.308 . S
C418 C417 1.373 . S
C418 C419 1.429 . S
C418 H428 0.932 . S
C419 C416 1.358 . S
C419 C418 1.429 . S
C419 H429 0.930 . S
C420 C416 1.332 . S
C420 C421 1.394 . S
C420 H430 0.932 . S
C421 C417 1.308 . S
C421 C420 1.394 . S
C421 H431 0.929 . S
C422 Tb393 2.764 . S
C422 O406 1.239 . S
C422 O407 1.263 . S
C422 C416 1.504 . S
C423 O408 1.236 . S
C423 O409 1.257 . S
H424 C397 0.932 . S
H425 C398 0.930 . S
H426 C399 0.932 . S
H427 C400 0.929 . S
H428 C418 0.932 . S
H429 C419 0.930 . S
H430 C420 0.932 . S
H431 C421 0.929 . S
Tb432 C441 2.764 . S
Tb432 O442 2.325 . S
Tb432 O445 2.303 1_556 S
Tb432 O449 2.316 1_656 S
Tb432 O450 2.349 1_655 S
Tb432 O453 2.415 . S
Tb432 O454 2.399 . S
Tb433 O443 2.322 1_455 S
Tb433 O444 2.349 1_455 S
Tb433 O446 2.415 . S
Tb433 O447 2.399 . S
Tb433 O448 2.325 . S
Tb433 O451 2.303 1_554 S
Tb433 C462 2.764 . S
C434 O450 1.261 . S
C434 O451 1.257 . S
C435 C438 1.358 . S
C435 C439 1.332 . S
C435 C441 1.504 . S
C436 C437 1.373 . S
C436 C440 1.308 . S
C437 C436 1.373 . S
C437 C438 1.429 . S
C437 H464 0.932 . S
C438 C435 1.358 . S
C438 C437 1.429 . S
C438 H465 0.930 . S
C439 C435 1.332 . S
C439 C440 1.394 . S
C439 H466 0.932 . S
C440 C436 1.308 . S
C440 C439 1.394 . S
C440 H467 0.929 . S
C441 Tb432 2.764 . S
C441 C435 1.504 . S
C441 O453 1.239 . S
C441 O454 1.263 . S
O442 Tb432 2.325 . S
O442 C452 1.236 . S
O443 Tb433 2.322 1_655 S
O443 C452 1.257 1_554 S
O444 Tb433 2.349 1_655 S
O444 C455 1.261 . S
O445 Tb432 2.303 1_554 S
O445 C455 1.257 . S
O446 Tb433 2.415 . S
O446 C462 1.239 . S
O447 Tb433 2.399 . S
O447 C462 1.263 . S
O448 Tb433 2.325 . S
O448 C463 1.236 . S
O449 Tb432 2.316 1_454 S
O449 C463 1.268 . S
O450 Tb432 2.349 1_455 S
O450 C434 1.261 . S
O451 Tb433 2.303 1_556 S
O451 C434 1.257 . S
C452 O442 1.236 . S
C452 O443 1.257 1_556 S
O453 Tb432 2.415 . S
O453 C441 1.239 . S
O454 Tb432 2.399 . S
O454 C441 1.263 . S
C455 O444 1.261 . S
C455 O445 1.257 . S
C456 C459 1.358 . S
C456 C460 1.332 . S
C456 C462 1.504 . S
C457 C458 1.373 . S
C457 C461 1.308 . S
C458 C457 1.373 . S
C458 C459 1.429 . S
C458 H468 0.932 . S
C459 C456 1.358 . S
C459 C458 1.429 . S
C459 H469 0.930 . S
C460 C456 1.332 . S
C460 C461 1.394 . S
C460 H470 0.932 . S
C461 C457 1.308 . S
C461 C460 1.394 . S
C461 H471 0.929 . S
C462 Tb433 2.764 . S
C462 O446 1.239 . S
C462 O447 1.263 . S
C462 C456 1.504 . S
C463 O448 1.236 . S
C463 O449 1.268 . S
H464 C437 0.932 . S
H465 C438 0.930 . S
H466 C439 0.932 . S
H467 C440 0.929 . S
H468 C458 0.932 . S
H469 C459 0.930 . S
H470 C460 0.932 . S
H471 C461 0.929 . S
H472 C490 0.951 . S
H473 C492 0.951 . S
H474 C494 0.950 . S
H475 C495 0.950 . S
H476 C497 0.950 . S
H477 C500 0.950 . S
H478 C501 0.950 . S
H479 C503 0.950 . S
H480 C504 0.950 . S
H481 C505 0.951 . S
H482 C507 0.951 . S
H483 C509 0.950 . S
H484 C510 0.950 . S
H485 C512 0.950 . S
H486 C515 0.950 . S
H487 C516 0.950 . S
H488 C518 0.950 . S
H489 C519 0.950 . S
C490 H472 0.951 . S
C490 C491 1.366 . S
C490 C492 1.388 . S
C491 C490 1.366 . S
C491 C495 1.385 . S
C492 H473 0.951 . S
C492 C490 1.388 . S
C492 C493 1.366 . S
C493 C492 1.366 . S
C493 C494 1.414 . S
C493 C496 1.499 . S
C494 H474 0.950 . S
C494 C493 1.414 . S
C494 C495 1.374 . S
C495 H475 0.950 . S
C495 C491 1.385 . S
C495 C494 1.374 . S
C496 C493 1.499 . S
C496 C497 1.373 . S
C496 C498 1.389 . S
C497 H476 0.950 . S
C497 C496 1.373 . S
C497 C513 1.377 . S
C498 C496 1.389 . S
C498 C499 1.524 . S
C498 C512 1.377 . S
C499 C498 1.524 . S
C499 C500 1.397 . S
C499 C504 1.363 . S
C500 H477 0.950 . S
C500 C499 1.397 . S
C500 C501 1.334 . S
C501 H478 0.950 . S
C501 C500 1.334 . S
C501 C502 1.287 . S
C502 C501 1.287 . S
C502 C503 1.524 . S
C502 H521 0.913 . S
C503 H479 0.950 . S
C503 C502 1.524 . S
C503 C504 1.415 . S
C504 H480 0.950 . S
C504 C499 1.363 . S
C504 C503 1.415 . S
C505 H481 0.951 . S
C505 C506 1.366 . S
C505 C507 1.388 . S
C506 C505 1.366 . S
C506 C510 1.385 . S
C507 H482 0.951 . S
C507 C505 1.388 . S
C507 C508 1.366 . S
C508 C507 1.366 . S
C508 C509 1.414 . S
C508 C511 1.499 . S
C509 H483 0.950 . S
C509 C508 1.414 . S
C509 C510 1.374 . S
C510 H484 0.950 . S
C510 C506 1.385 . S
C510 C509 1.374 . S
C511 C508 1.499 . S
C511 C512 1.373 . S
C511 C513 1.389 . S
C512 H485 0.950 . S
C512 C498 1.377 . S
C512 C511 1.373 . S
C513 C497 1.377 . S
C513 C511 1.389 . S
C513 C514 1.524 . S
C514 C513 1.524 . S
C514 C515 1.397 . S
C514 C519 1.363 . S
C515 H486 0.950 . S
C515 C514 1.397 . S
C515 C516 1.334 . S
C516 H487 0.950 . S
C516 C515 1.334 . S
C516 C517 1.287 . S
C517 C516 1.287 . S
C517 C518 1.524 . S
C517 H520 0.999 . S
C518 H488 0.950 . S
C518 C517 1.524 . S
C518 C519 1.415 . S
C519 H489 0.950 . S
C519 C514 1.363 . S
C519 C518 1.415 . S
H520 C517 0.999 . S
H521 C502 0.913 . S
H522 C540 0.951 . S
H523 C542 0.951 . S
H524 C544 0.950 . S
H525 C545 0.950 . S
H526 C547 0.950 . S
H527 C550 0.950 . S
H528 C551 0.950 . S
H529 C553 0.950 . S
H530 C554 0.950 . S
H531 C555 0.951 . S
H532 C557 0.951 . S
H533 C559 0.950 . S
H534 C560 0.950 . S
H535 C562 0.950 . S
H536 C565 0.950 . S
H537 C566 0.950 . S
H538 C568 0.950 . S
H539 C569 0.950 . S
C540 H522 0.951 . S
C540 C541 1.366 . S
C540 C542 1.388 . S
C541 C540 1.366 . S
C541 C545 1.385 . S
C542 H523 0.951 . S
C542 C540 1.388 . S
C542 C543 1.366 . S
C543 C542 1.366 . S
C543 C544 1.414 . S
C543 C546 1.499 . S
C544 H524 0.950 . S
C544 C543 1.414 . S
C544 C545 1.374 . S
C545 H525 0.950 . S
C545 C541 1.385 . S
C545 C544 1.374 . S
C546 C543 1.499 . S
C546 C547 1.373 . S
C546 C548 1.389 . S
C547 H526 0.950 . S
C547 C546 1.373 . S
C547 C563 1.377 . S
C548 C546 1.389 . S
C548 C549 1.524 . S
C548 C562 1.377 . S
C549 C548 1.524 . S
C549 C550 1.397 . S
C549 C554 1.363 . S
C550 H527 0.950 . S
C550 C549 1.397 . S
C550 C551 1.334 . S
C551 H528 0.950 . S
C551 C550 1.334 . S
C551 C552 1.287 . S
C552 C551 1.287 . S
C552 C553 1.524 . S
C552 H571 0.913 . S
C553 H529 0.950 . S
C553 C552 1.524 . S
C553 C554 1.415 . S
C554 H530 0.950 . S
C554 C549 1.363 . S
C554 C553 1.415 . S
C555 H531 0.951 . S
C555 C556 1.366 . S
C555 C557 1.388 . S
C556 C555 1.366 . S
C556 C560 1.385 . S
C557 H532 0.951 . S
C557 C555 1.388 . S
C557 C558 1.366 . S
C558 C557 1.366 . S
C558 C559 1.414 . S
C558 C561 1.499 . S
C559 H533 0.950 . S
C559 C558 1.414 . S
C559 C560 1.374 . S
C560 H534 0.950 . S
C560 C556 1.385 . S
C560 C559 1.374 . S
C561 C558 1.499 . S
C561 C562 1.373 . S
C561 C563 1.389 . S
C562 H535 0.950 . S
C562 C548 1.377 . S
C562 C561 1.373 . S
C563 C547 1.377 . S
C563 C561 1.389 . S
C563 C564 1.524 . S
C564 C563 1.524 . S
C564 C565 1.397 . S
C564 C569 1.363 . S
C565 H536 0.950 . S
C565 C564 1.397 . S
C565 C566 1.334 . S
C566 H537 0.950 . S
C566 C565 1.334 . S
C566 C567 1.287 . S
C567 C566 1.287 . S
C567 C568 1.524 . S
C567 H570 0.999 . S
C568 H538 0.950 . S
C568 C567 1.524 . S
C568 C569 1.415 . S
C569 H539 0.950 . S
C569 C564 1.363 . S
C569 C568 1.415 . S
H570 C567 0.999 . S
H571 C552 0.913 . S
H572 C590 0.951 . S
H573 C592 0.951 . S
H574 C594 0.950 . S
H575 C595 0.950 . S
H576 C597 0.950 . S
H577 C600 0.950 . S
H578 C601 0.950 . S
H579 C603 0.950 . S
H580 C604 0.950 . S
H581 C605 0.951 . S
H582 C607 0.951 . S
H583 C609 0.950 . S
H584 C610 0.950 . S
H585 C612 0.950 . S
H586 C615 0.950 . S
H587 C616 0.950 . S
H588 C618 0.950 . S
H589 C619 0.950 . S
C590 H572 0.951 . S
C590 C591 1.366 . S
C590 C592 1.388 . S
C591 C590 1.366 . S
C591 C595 1.385 . S
C592 H573 0.951 . S
C592 C590 1.388 . S
C592 C593 1.366 . S
C593 C592 1.366 . S
C593 C594 1.414 . S
C593 C596 1.499 . S
C594 H574 0.950 . S
C594 C593 1.414 . S
C594 C595 1.374 . S
C595 H575 0.950 . S
C595 C591 1.385 . S
C595 C594 1.374 . S
C596 C593 1.499 . S
C596 C597 1.373 . S
C596 C598 1.389 . S
C597 H576 0.950 . S
C597 C596 1.373 . S
C597 C613 1.377 . S
C598 C596 1.389 . S
C598 C599 1.524 . S
C598 C612 1.377 . S
C599 C598 1.524 . S
C599 C600 1.397 . S
C599 C604 1.363 . S
C600 H577 0.950 . S
C600 C599 1.397 . S
C600 C601 1.334 . S
C601 H578 0.950 . S
C601 C600 1.334 . S
C601 C602 1.287 . S
C602 C601 1.287 . S
C602 C603 1.524 . S
C602 H621 0.913 . S
C603 H579 0.950 . S
C603 C602 1.524 . S
C603 C604 1.415 . S
C604 H580 0.950 . S
C604 C599 1.363 . S
C604 C603 1.415 . S
C605 H581 0.951 . S
C605 C606 1.366 . S
C605 C607 1.388 . S
C606 C605 1.366 . S
C606 C610 1.385 . S
C607 H582 0.951 . S
C607 C605 1.388 . S
C607 C608 1.366 . S
C608 C607 1.366 . S
C608 C609 1.414 . S
C608 C611 1.499 . S
C609 H583 0.950 . S
C609 C608 1.414 . S
C609 C610 1.374 . S
C610 H584 0.950 . S
C610 C606 1.385 . S
C610 C609 1.374 . S
C611 C608 1.499 . S
C611 C612 1.373 . S
C611 C613 1.389 . S
C612 H585 0.950 . S
C612 C598 1.377 . S
C612 C611 1.373 . S
C613 C597 1.377 . S
C613 C611 1.389 . S
C613 C614 1.524 . S
C614 C613 1.524 . S
C614 C615 1.397 . S
C614 C619 1.363 . S
C615 H586 0.950 . S
C615 C614 1.397 . S
C615 C616 1.334 . S
C616 H587 0.950 . S
C616 C615 1.334 . S
C616 C617 1.287 . S
C617 C616 1.287 . S
C617 C618 1.524 . S
C617 H620 0.999 . S
C618 H588 0.950 . S
C618 C617 1.524 . S
C618 C619 1.415 . S
C619 H589 0.950 . S
C619 C614 1.363 . S
C619 C618 1.415 . S
H620 C617 0.999 . S
H621 C602 0.913 . S
H622 C640 0.951 . S
H623 C642 0.951 . S
H624 C644 0.950 . S
H625 C645 0.950 . S
H626 C647 0.950 . S
H627 C650 0.950 . S
H628 C651 0.950 . S
H629 C653 0.950 . S
H630 C654 0.950 . S
H631 C655 0.951 . S
H632 C657 0.951 . S
H633 C659 0.950 . S
H634 C660 0.950 . S
H635 C662 0.950 . S
H636 C665 0.950 . S
H637 C666 0.950 1_455 S
H638 C668 0.950 . S
H639 C669 0.950 . S
C640 H622 0.951 . S
C640 C641 1.366 . S
C640 C642 1.388 . S
C641 C640 1.366 . S
C641 C645 1.385 . S
C642 H623 0.951 . S
C642 C640 1.388 . S
C642 C643 1.366 . S
C643 C642 1.366 . S
C643 C644 1.414 . S
C643 C646 1.499 . S
C644 H624 0.950 . S
C644 C643 1.414 . S
C644 C645 1.374 . S
C645 H625 0.950 . S
C645 C641 1.385 . S
C645 C644 1.374 . S
C646 C643 1.499 . S
C646 C647 1.373 . S
C646 C648 1.389 . S
C647 H626 0.950 . S
C647 C646 1.373 . S
C647 C663 1.377 . S
C648 C646 1.389 . S
C648 C649 1.524 . S
C648 C662 1.377 . S
C649 C648 1.524 . S
C649 C650 1.397 . S
C649 C654 1.363 . S
C650 H627 0.950 . S
C650 C649 1.397 . S
C650 C651 1.334 . S
C651 H628 0.950 . S
C651 C650 1.334 . S
C651 C652 1.287 . S
C652 C651 1.287 . S
C652 C653 1.524 . S
C652 H671 0.913 . S
C653 H629 0.950 . S
C653 C652 1.524 . S
C653 C654 1.415 . S
C654 H630 0.950 . S
C654 C649 1.363 . S
C654 C653 1.415 . S
C655 H631 0.951 . S
C655 C656 1.366 . S
C655 C657 1.388 . S
C656 C655 1.366 . S
C656 C660 1.385 . S
C657 H632 0.951 . S
C657 C655 1.388 . S
C657 C658 1.366 . S
C658 C657 1.366 . S
C658 C659 1.414 . S
C658 C661 1.499 . S
C659 H633 0.950 . S
C659 C658 1.414 . S
C659 C660 1.374 . S
C660 H634 0.950 . S
C660 C656 1.385 . S
C660 C659 1.374 . S
C661 C658 1.499 . S
C661 C662 1.373 . S
C661 C663 1.389 . S
C662 H635 0.950 . S
C662 C648 1.377 . S
C662 C661 1.373 . S
C663 C647 1.377 . S
C663 C661 1.389 . S
C663 C664 1.524 . S
C664 C663 1.524 . S
C664 C665 1.397 . S
C664 C669 1.363 . S
C665 H636 0.950 . S
C665 C664 1.397 . S
C665 C666 1.334 . S
C666 H637 0.950 1_655 S
C666 C665 1.334 . S
C666 C667 1.287 . S
C667 C666 1.287 . S
C667 C668 1.524 . S
C667 H670 0.999 . S
C668 H638 0.950 . S
C668 C667 1.524 . S
C668 C669 1.415 . S
C669 H639 0.950 . S
C669 C664 1.363 . S
C669 C668 1.415 . S
H670 C667 0.999 . S
H671 C652 0.913 . S
H672 C690 0.951 . S
H673 C692 0.951 . S
H674 C694 0.950 . S
H675 C695 0.950 . S
H676 C697 0.950 . S
H677 C700 0.950 . S
H678 C701 0.950 . S
H679 C703 0.950 . S
H680 C704 0.950 . S
H681 C705 0.951 . S
H682 C707 0.951 . S
H683 C709 0.950 . S
H684 C710 0.950 . S
H685 C712 0.950 . S
H686 C715 0.950 . S
H687 C716 0.950 . S
H688 C718 0.950 . S
H689 C719 0.950 . S
C690 H672 0.951 . S
C690 C691 1.366 . S
C690 C692 1.388 . S
C691 C690 1.366 . S
C691 C695 1.385 . S
C692 H673 0.951 . S
C692 C690 1.388 . S
C692 C693 1.366 . S
C693 C692 1.366 . S
C693 C694 1.414 . S
C693 C696 1.499 . S
C694 H674 0.950 . S
C694 C693 1.414 . S
C694 C695 1.374 . S
C695 H675 0.950 . S
C695 C691 1.385 . S
C695 C694 1.374 . S
C696 C693 1.499 . S
C696 C697 1.373 . S
C696 C698 1.389 . S
C697 H676 0.950 . S
C697 C696 1.373 . S
C697 C713 1.377 . S
C698 C696 1.389 . S
C698 C699 1.524 . S
C698 C712 1.377 . S
C699 C698 1.524 . S
C699 C700 1.397 . S
C699 C704 1.363 . S
C700 H677 0.950 . S
C700 C699 1.397 . S
C700 C701 1.334 . S
C701 H678 0.950 . S
C701 C700 1.334 . S
C701 C702 1.287 . S
C702 C701 1.287 . S
C702 C703 1.524 . S
C702 H721 0.913 . S
C703 H679 0.950 . S
C703 C702 1.524 . S
C703 C704 1.415 . S
C704 H680 0.950 . S
C704 C699 1.363 . S
C704 C703 1.415 . S
C705 H681 0.951 . S
C705 C706 1.366 . S
C705 C707 1.388 . S
C706 C705 1.366 . S
C706 C710 1.385 . S
C707 H682 0.951 . S
C707 C705 1.388 . S
C707 C708 1.366 . S
C708 C707 1.366 . S
C708 C709 1.414 . S
C708 C711 1.499 . S
C709 H683 0.950 . S
C709 C708 1.414 . S
C709 C710 1.374 . S
C710 H684 0.950 . S
C710 C706 1.385 . S
C710 C709 1.374 . S
C711 C708 1.499 . S
C711 C712 1.373 . S
C711 C713 1.389 . S
C712 H685 0.950 . S
C712 C698 1.377 . S
C712 C711 1.373 . S
C713 C697 1.377 . S
C713 C711 1.389 . S
C713 C714 1.524 . S
C714 C713 1.524 . S
C714 C715 1.397 . S
C714 C719 1.363 . S
C715 H686 0.950 . S
C715 C714 1.397 . S
C715 C716 1.334 . S
C716 H687 0.950 . S
C716 C715 1.334 . S
C716 C717 1.287 . S
C717 C716 1.287 . S
C717 C718 1.524 . S
C717 H720 0.999 . S
C718 H688 0.950 . S
C718 C717 1.524 . S
C718 C719 1.415 . S
C719 H689 0.950 . S
C719 C714 1.363 . S
C719 C718 1.415 . S
H720 C717 0.999 . S
H721 C702 0.913 . S
H722 C740 0.951 . S
H723 C742 0.951 . S
H724 C744 0.950 . S
H725 C745 0.950 . S
H726 C747 0.950 . S
H727 C750 0.950 . S
H728 C751 0.950 . S
H729 C753 0.950 . S
H730 C754 0.950 . S
H731 C755 0.951 . S
H732 C757 0.951 . S
H733 C759 0.950 . S
H734 C760 0.950 . S
H735 C762 0.950 . S
H736 C765 0.950 . S
H737 C766 0.950 . S
H738 C768 0.950 . S
H739 C769 0.950 . S
C740 H722 0.951 . S
C740 C741 1.366 . S
C740 C742 1.388 . S
C741 C740 1.366 . S
C741 C745 1.385 . S
C742 H723 0.951 . S
C742 C740 1.388 . S
C742 C743 1.366 . S
C743 C742 1.366 . S
C743 C744 1.414 . S
C743 C746 1.499 . S
C744 H724 0.950 . S
C744 C743 1.414 . S
C744 C745 1.374 . S
C745 H725 0.950 . S
C745 C741 1.385 . S
C745 C744 1.374 . S
C746 C743 1.499 . S
C746 C747 1.373 . S
C746 C748 1.389 . S
C747 H726 0.950 . S
C747 C746 1.373 . S
C747 C763 1.377 . S
C748 C746 1.389 . S
C748 C749 1.524 . S
C748 C762 1.377 . S
C749 C748 1.524 . S
C749 C750 1.397 . S
C749 C754 1.363 . S
C750 H727 0.950 . S
C750 C749 1.397 . S
C750 C751 1.334 . S
C751 H728 0.950 . S
C751 C750 1.334 . S
C751 C752 1.287 . S
C752 C751 1.287 . S
C752 C753 1.524 . S
C752 H771 0.913 . S
C753 H729 0.950 . S
C753 C752 1.524 . S
C753 C754 1.415 . S
C754 H730 0.950 . S
C754 C749 1.363 . S
C754 C753 1.415 . S
C755 H731 0.951 . S
C755 C756 1.366 . S
C755 C757 1.388 . S
C756 C755 1.366 . S
C756 C760 1.385 . S
C757 H732 0.951 . S
C757 C755 1.388 . S
C757 C758 1.366 . S
C758 C757 1.366 . S
C758 C759 1.414 . S
C758 C761 1.499 . S
C759 H733 0.950 . S
C759 C758 1.414 . S
C759 C760 1.374 . S
C760 H734 0.950 . S
C760 C756 1.385 . S
C760 C759 1.374 . S
C761 C758 1.499 . S
C761 C762 1.373 . S
C761 C763 1.389 . S
C762 H735 0.950 . S
C762 C748 1.377 . S
C762 C761 1.373 . S
C763 C747 1.377 . S
C763 C761 1.389 . S
C763 C764 1.524 . S
C764 C763 1.524 . S
C764 C765 1.397 . S
C764 C769 1.363 . S
C765 H736 0.950 . S
C765 C764 1.397 . S
C765 C766 1.334 . S
C766 H737 0.950 . S
C766 C765 1.334 . S
C766 C767 1.287 . S
C767 C766 1.287 . S
C767 C768 1.524 1_455 S
C767 H770 0.999 1_455 S
C768 H738 0.950 . S
C768 C767 1.524 1_655 S
C768 C769 1.415 1_655 S
C769 H739 0.950 . S
C769 C764 1.363 . S
C769 C768 1.415 1_455 S
H770 C767 0.999 1_655 S
H771 C752 0.913 . S
H772 C790 0.951 . S
H773 C792 0.951 . S
H774 C794 0.950 . S
H775 C795 0.950 . S
H776 C797 0.950 . S
H777 C800 0.950 . S
H778 C801 0.950 . S
H779 C803 0.950 . S
H780 C804 0.950 . S
H781 C805 0.951 . S
H782 C807 0.951 . S
H783 C809 0.950 . S
H784 C810 0.950 . S
H785 C812 0.950 . S
H786 C815 0.950 . S
H787 C816 0.950 . S
H788 C818 0.950 . S
H789 C819 0.950 . S
C790 H772 0.951 . S
C790 C791 1.366 . S
C790 C792 1.388 . S
C791 C790 1.366 . S
C791 C795 1.385 . S
C792 H773 0.951 . S
C792 C790 1.388 . S
C792 C793 1.366 . S
C793 C792 1.366 . S
C793 C794 1.414 . S
C793 C796 1.499 . S
C794 H774 0.950 . S
C794 C793 1.414 . S
C794 C795 1.374 . S
C795 H775 0.950 . S
C795 C791 1.385 . S
C795 C794 1.374 . S
C796 C793 1.499 . S
C796 C797 1.373 . S
C796 C798 1.389 . S
C797 H776 0.950 . S
C797 C796 1.373 . S
C797 C813 1.377 . S
C798 C796 1.389 . S
C798 C799 1.524 . S
C798 C812 1.377 . S
C799 C798 1.524 . S
C799 C800 1.397 . S
C799 C804 1.363 . S
C800 H777 0.950 . S
C800 C799 1.397 . S
C800 C801 1.334 . S
C801 H778 0.950 . S
C801 C800 1.334 . S
C801 C802 1.287 . S
C802 C801 1.287 . S
C802 C803 1.524 . S
C802 H821 0.913 . S
C803 H779 0.950 . S
C803 C802 1.524 . S
C803 C804 1.415 . S
C804 H780 0.950 . S
C804 C799 1.363 . S
C804 C803 1.415 . S
C805 H781 0.951 . S
C805 C806 1.366 . S
C805 C807 1.388 . S
C806 C805 1.366 . S
C806 C810 1.385 . S
C807 H782 0.951 . S
C807 C805 1.388 . S
C807 C808 1.366 . S
C808 C807 1.366 . S
C808 C809 1.414 . S
C808 C811 1.499 . S
C809 H783 0.950 . S
C809 C808 1.414 . S
C809 C810 1.374 . S
C810 H784 0.950 . S
C810 C806 1.385 . S
C810 C809 1.374 . S
C811 C808 1.499 . S
C811 C812 1.373 . S
C811 C813 1.389 . S
C812 H785 0.950 . S
C812 C798 1.377 . S
C812 C811 1.373 . S
C813 C797 1.377 . S
C813 C811 1.389 . S
C813 C814 1.524 . S
C814 C813 1.524 . S
C814 C815 1.397 . S
C814 C819 1.363 . S
C815 H786 0.950 . S
C815 C814 1.397 . S
C815 C816 1.334 . S
C816 H787 0.950 . S
C816 C815 1.334 . S
C816 C817 1.287 . S
C817 C816 1.287 . S
C817 C818 1.524 . S
C817 H820 0.999 . S
C818 H788 0.950 . S
C818 C817 1.524 . S
C818 C819 1.415 . S
C819 H789 0.950 . S
C819 C814 1.363 . S
C819 C818 1.415 . S
H820 C817 0.999 . S
H821 C802 0.913 . S
H822 C840 0.951 . S
H823 C842 0.951 . S
H824 C844 0.950 . S
H825 C845 0.950 . S
H826 C847 0.950 . S
H827 C850 0.950 . S
H828 C851 0.950 . S
H829 C853 0.950 . S
H830 C854 0.950 . S
H831 C855 0.951 . S
H832 C857 0.951 . S
H833 C859 0.950 . S
H834 C860 0.950 . S
H835 C862 0.950 . S
H836 C865 0.950 . S
H837 C866 0.950 . S
H838 C868 0.950 . S
H839 C869 0.950 . S
C840 H822 0.951 . S
C840 C841 1.366 . S
C840 C842 1.388 . S
C841 C840 1.366 . S
C841 C845 1.385 . S
C842 H823 0.951 . S
C842 C840 1.388 . S
C842 C843 1.366 . S
C843 C842 1.366 . S
C843 C844 1.414 . S
C843 C846 1.499 . S
C844 H824 0.950 . S
C844 C843 1.414 . S
C844 C845 1.374 . S
C845 H825 0.950 . S
C845 C841 1.385 . S
C845 C844 1.374 . S
C846 C843 1.499 . S
C846 C847 1.373 . S
C846 C848 1.389 . S
C847 H826 0.950 . S
C847 C846 1.373 . S
C847 C863 1.377 . S
C848 C846 1.389 . S
C848 C849 1.524 . S
C848 C862 1.377 . S
C849 C848 1.524 . S
C849 C850 1.397 . S
C849 C854 1.363 . S
C850 H827 0.950 . S
C850 C849 1.397 . S
C850 C851 1.334 . S
C851 H828 0.950 . S
C851 C850 1.334 . S
C851 C852 1.287 . S
C852 C851 1.287 . S
C852 C853 1.524 . S
C852 H871 0.913 . S
C853 H829 0.950 . S
C853 C852 1.524 . S
C853 C854 1.415 . S
C854 H830 0.950 . S
C854 C849 1.363 . S
C854 C853 1.415 . S
C855 H831 0.951 . S
C855 C856 1.366 . S
C855 C857 1.388 . S
C856 C855 1.366 . S
C856 C860 1.385 . S
C857 H832 0.951 . S
C857 C855 1.388 . S
C857 C858 1.366 . S
C858 C857 1.366 . S
C858 C859 1.414 . S
C858 C861 1.499 . S
C859 H833 0.950 . S
C859 C858 1.414 . S
C859 C860 1.374 . S
C860 H834 0.950 . S
C860 C856 1.385 . S
C860 C859 1.374 . S
C861 C858 1.499 . S
C861 C862 1.373 . S
C861 C863 1.389 . S
C862 H835 0.950 . S
C862 C848 1.377 . S
C862 C861 1.373 . S
C863 C847 1.377 . S
C863 C861 1.389 . S
C863 C864 1.524 . S
C864 C863 1.524 . S
C864 C865 1.397 . S
C864 C869 1.363 . S
C865 H836 0.950 . S
C865 C864 1.397 . S
C865 C866 1.334 . S
C866 H837 0.950 . S
C866 C865 1.334 . S
C866 C867 1.287 . S
C867 C866 1.287 . S
C867 C868 1.524 . S
C867 H870 0.999 . S
C868 H838 0.950 . S
C868 C867 1.524 . S
C868 C869 1.415 . S
C869 H839 0.950 . S
C869 C864 1.363 . S
C869 C868 1.415 . S
H870 C867 0.999 . S
H871 C852 0.913 . S
H872 C890 0.951 . S
H873 C892 0.951 . S
H874 C894 0.950 . S
H875 C895 0.950 . S
H876 C897 0.950 . S
H877 C900 0.950 . S
H878 C901 0.950 . S
H879 C903 0.950 . S
H880 C904 0.950 . S
H881 C905 0.951 . S
H882 C907 0.951 . S
H883 C909 0.950 . S
H884 C910 0.950 . S
H885 C912 0.950 . S
H886 C915 0.950 . S
H887 C916 0.950 . S
H888 C918 0.950 . S
H889 C919 0.950 . S
C890 H872 0.951 . S
C890 C891 1.366 . S
C890 C892 1.388 . S
C891 C890 1.366 . S
C891 C895 1.385 . S
C892 H873 0.951 . S
C892 C890 1.388 . S
C892 C893 1.366 . S
C893 C892 1.366 . S
C893 C894 1.414 . S
C893 C896 1.499 . S
C894 H874 0.950 . S
C894 C893 1.414 . S
C894 C895 1.374 . S
C895 H875 0.950 . S
C895 C891 1.385 . S
C895 C894 1.374 . S
C896 C893 1.499 . S
C896 C897 1.373 . S
C896 C898 1.389 . S
C897 H876 0.950 . S
C897 C896 1.373 . S
C897 C913 1.377 . S
C898 C896 1.389 . S
C898 C899 1.524 . S
C898 C912 1.377 . S
C899 C898 1.524 . S
C899 C900 1.397 . S
C899 C904 1.363 . S
C900 H877 0.950 . S
C900 C899 1.397 . S
C900 C901 1.334 . S
C901 H878 0.950 . S
C901 C900 1.334 . S
C901 C902 1.287 . S
C902 C901 1.287 . S
C902 C903 1.524 . S
C902 H921 0.913 . S
C903 H879 0.950 . S
C903 C902 1.524 . S
C903 C904 1.415 . S
C904 H880 0.950 . S
C904 C899 1.363 . S
C904 C903 1.415 . S
C905 H881 0.951 . S
C905 C906 1.366 . S
C905 C907 1.388 . S
C906 C905 1.366 . S
C906 C910 1.385 . S
C907 H882 0.951 . S
C907 C905 1.388 . S
C907 C908 1.366 . S
C908 C907 1.366 . S
C908 C909 1.414 . S
C908 C911 1.499 . S
C909 H883 0.950 . S
C909 C908 1.414 . S
C909 C910 1.374 . S
C910 H884 0.950 . S
C910 C906 1.385 . S
C910 C909 1.374 . S
C911 C908 1.499 . S
C911 C912 1.373 . S
C911 C913 1.389 . S
C912 H885 0.950 . S
C912 C898 1.377 . S
C912 C911 1.373 . S
C913 C897 1.377 . S
C913 C911 1.389 . S
C913 C914 1.524 . S
C914 C913 1.524 . S
C914 C915 1.397 . S
C914 C919 1.363 . S
C915 H886 0.950 . S
C915 C914 1.397 . S
C915 C916 1.334 . S
C916 H887 0.950 . S
C916 C915 1.334 . S
C916 C917 1.287 . S
C917 C916 1.287 . S
C917 C918 1.524 . S
C917 H920 0.999 . S
C918 H888 0.950 . S
C918 C917 1.524 . S
C918 C919 1.415 . S
C919 H889 0.950 . S
C919 C914 1.363 . S
C919 C918 1.415 . S
H920 C917 0.999 . S
H921 C902 0.913 . S
H922 C940 0.951 . S
H923 C942 0.951 . S
H924 C944 0.950 . S
H925 C945 0.950 . S
H926 C947 0.950 . S
H927 C950 0.950 . S
H928 C951 0.950 . S
H929 C953 0.950 . S
H930 C954 0.950 . S
H931 C955 0.951 . S
H932 C957 0.951 . S
H933 C959 0.950 . S
H934 C960 0.950 . S
H935 C962 0.950 . S
H936 C965 0.950 . S
H937 C966 0.950 . S
H938 C968 0.950 . S
H939 C969 0.965 . S
C940 H922 0.951 . S
C940 C941 1.366 . S
C940 C942 1.388 . S
C941 C940 1.366 . S
C941 C945 1.385 . S
C942 H923 0.951 . S
C942 C940 1.388 . S
C942 C943 1.366 . S
C943 C942 1.366 . S
C943 C944 1.414 . S
C943 C946 1.499 . S
C944 H924 0.950 . S
C944 C943 1.414 . S
C944 C945 1.374 . S
C945 H925 0.950 . S
C945 C941 1.385 . S
C945 C944 1.374 . S
C946 C943 1.499 . S
C946 C947 1.373 . S
C946 C948 1.389 . S
C947 H926 0.950 . S
C947 C946 1.373 . S
C947 C963 1.377 . S
C948 C946 1.389 . S
C948 C949 1.524 . S
C948 C962 1.377 . S
C949 C948 1.524 . S
C949 C950 1.397 . S
C949 C954 1.363 . S
C950 H927 0.950 . S
C950 C949 1.397 . S
C950 C951 1.334 . S
C951 H928 0.950 . S
C951 C950 1.334 . S
C951 C952 1.287 . S
C952 C951 1.287 . S
C952 C953 1.524 . S
C952 H971 0.913 . S
C953 H929 0.950 . S
C953 C952 1.524 . S
C953 C954 1.415 . S
C954 H930 0.950 . S
C954 C949 1.363 . S
C954 C953 1.415 . S
C955 H931 0.951 . S
C955 C956 1.366 . S
C955 C957 1.388 . S
C956 C955 1.366 . S
C956 C960 1.385 . S
C957 H932 0.951 . S
C957 C955 1.388 . S
C957 C958 1.366 . S
C958 C957 1.366 . S
C958 C959 1.414 . S
C958 C961 1.499 . S
C959 H933 0.950 . S
C959 C958 1.414 . S
C959 C960 1.374 . S
C960 H934 0.950 . S
C960 C956 1.385 . S
C960 C959 1.374 . S
C961 C958 1.499 . S
C961 C962 1.373 . S
C961 C963 1.389 . S
C962 H935 0.950 . S
C962 C948 1.377 . S
C962 C961 1.373 . S
C963 C947 1.377 . S
C963 C961 1.389 . S
C963 C964 1.524 . S
C964 C963 1.524 . S
C964 C965 1.397 . S
C964 C969 1.384 . S
C965 H936 0.950 . S
C965 C964 1.397 . S
C965 C966 1.334 1_556 S
C966 H937 0.950 . S
C966 C965 1.334 1_554 S
C966 C967 1.287 . S
C967 C966 1.287 . S
C967 C968 1.524 . S
C967 H970 0.999 . S
C968 H938 0.950 . S
C968 C967 1.524 . S
C968 C969 1.380 1_554 S
C969 H939 0.965 . S
C969 C964 1.384 . S
C969 C968 1.380 1_556 S
H970 C967 0.999 . S
H971 C952 0.913 . S
H972 C990 0.951 . S
H973 C992 0.951 . S
H974 C994 0.950 . S
H975 C995 0.950 . S
H976 C997 0.950 . S
H977 C1000 0.950 . S
H978 C1001 0.950 . S
H979 C1003 0.950 . S
H980 C1004 0.950 . S
H981 C1005 0.951 . S
H982 C1007 0.951 . S
H983 C1009 0.950 . S
H984 C1010 0.950 . S
H985 C1012 0.950 . S
H986 C1015 0.950 . S
H987 C1016 0.950 . S
H988 C1018 0.950 . S
H989 C1019 0.950 1_655 S
C990 H972 0.951 . S
C990 C991 1.366 . S
C990 C992 1.388 . S
C991 C990 1.366 . S
C991 C995 1.385 . S
C992 H973 0.951 . S
C992 C990 1.388 . S
C992 C993 1.366 . S
C993 C992 1.366 . S
C993 C994 1.414 . S
C993 C996 1.499 . S
C994 H974 0.950 . S
C994 C993 1.414 . S
C994 C995 1.374 . S
C995 H975 0.950 . S
C995 C991 1.385 . S
C995 C994 1.374 . S
C996 C993 1.499 . S
C996 C997 1.373 . S
C996 C998 1.389 . S
C997 H976 0.950 . S
C997 C996 1.373 . S
C997 C1013 1.377 . S
C998 C996 1.389 . S
C998 C999 1.524 . S
C998 C1012 1.377 . S
C999 C998 1.524 . S
C999 C1000 1.397 . S
C999 C1004 1.363 . S
C1000 H977 0.950 . S
C1000 C999 1.397 . S
C1000 C1001 1.334 . S
C1001 H978 0.950 . S
C1001 C1000 1.334 . S
C1001 C1002 1.287 . S
C1002 C1001 1.287 . S
C1002 C1003 1.524 . S
C1002 H1021 0.913 . S
C1003 H979 0.950 . S
C1003 C1002 1.524 . S
C1003 C1004 1.415 . S
C1004 H980 0.950 . S
C1004 C999 1.363 . S
C1004 C1003 1.415 . S
C1005 H981 0.951 . S
C1005 C1006 1.366 . S
C1005 C1007 1.388 . S
C1006 C1005 1.366 . S
C1006 C1010 1.385 . S
C1007 H982 0.951 . S
C1007 C1005 1.388 . S
C1007 C1008 1.366 . S
C1008 C1007 1.366 . S
C1008 C1009 1.414 . S
C1008 C1011 1.499 . S
C1009 H983 0.950 . S
C1009 C1008 1.414 . S
C1009 C1010 1.374 . S
C1010 H984 0.950 . S
C1010 C1006 1.385 . S
C1010 C1009 1.374 . S
C1011 C1008 1.499 . S
C1011 C1012 1.373 . S
C1011 C1013 1.389 . S
C1012 H985 0.950 . S
C1012 C998 1.377 . S
C1012 C1011 1.373 . S
C1013 C997 1.377 . S
C1013 C1011 1.389 . S
C1013 C1014 1.524 . S
C1014 C1013 1.524 . S
C1014 C1015 1.397 . S
C1014 C1019 1.363 1_655 S
C1015 H986 0.950 . S
C1015 C1014 1.397 . S
C1015 C1016 1.334 1_655 S
C1016 H987 0.950 . S
C1016 C1015 1.334 1_455 S
C1016 C1017 1.287 . S
C1017 C1016 1.287 . S
C1017 C1018 1.524 . S
C1017 H1020 0.999 . S
C1018 H988 0.950 . S
C1018 C1017 1.524 . S
C1018 C1019 1.415 . S
C1019 H989 0.950 1_455 S
C1019 C1014 1.363 1_455 S
C1019 C1018 1.415 . S
H1020 C1017 0.999 . S
H1021 C1002 0.913 . S
H1022 C1040 0.951 . S
H1023 C1042 0.951 . S
H1024 C1044 0.950 . S
H1025 C1045 0.950 . S
H1026 C1047 0.950 . S
H1027 C1050 0.950 . S
H1028 C1051 0.950 . S
H1029 C1053 0.950 . S
H1030 C1054 0.950 . S
H1031 C1055 0.951 . S
H1032 C1057 0.951 . S
H1033 C1059 0.950 . S
H1034 C1060 0.950 . S
H1035 C1062 0.950 . S
H1036 C1065 0.950 . S
H1037 C1066 0.950 . S
H1038 C1068 0.950 . S
H1039 C1069 0.950 . S
C1040 H1022 0.951 . S
C1040 C1041 1.366 . S
C1040 C1042 1.388 . S
C1041 C1040 1.366 . S
C1041 C1045 1.385 . S
C1042 H1023 0.951 . S
C1042 C1040 1.388 . S
C1042 C1043 1.366 . S
C1043 C1042 1.366 . S
C1043 C1044 1.414 . S
C1043 C1046 1.499 . S
C1044 H1024 0.950 . S
C1044 C1043 1.414 . S
C1044 C1045 1.374 . S
C1045 H1025 0.950 . S
C1045 C1041 1.385 . S
C1045 C1044 1.374 . S
C1046 C1043 1.499 . S
C1046 C1047 1.373 . S
C1046 C1048 1.389 . S
C1047 H1026 0.950 . S
C1047 C1046 1.373 . S
C1047 C1063 1.377 . S
C1048 C1046 1.389 . S
C1048 C1049 1.524 . S
C1048 C1062 1.377 . S
C1049 C1048 1.524 . S
C1049 C1050 1.397 . S
C1049 C1054 1.363 . S
C1050 H1027 0.950 . S
C1050 C1049 1.397 . S
C1050 C1051 1.334 . S
C1051 H1028 0.950 . S
C1051 C1050 1.334 . S
C1051 C1052 1.287 . S
C1052 C1051 1.287 . S
C1052 C1053 1.524 . S
C1052 H1071 0.913 . S
C1053 H1029 0.950 . S
C1053 C1052 1.524 . S
C1053 C1054 1.415 . S
C1054 H1030 0.950 . S
C1054 C1049 1.363 . S
C1054 C1053 1.415 . S
C1055 H1031 0.951 . S
C1055 C1056 1.366 . S
C1055 C1057 1.388 . S
C1056 C1055 1.366 . S
C1056 C1060 1.385 . S
C1057 H1032 0.951 . S
C1057 C1055 1.388 . S
C1057 C1058 1.366 . S
C1058 C1057 1.366 . S
C1058 C1059 1.414 . S
C1058 C1061 1.499 . S
C1059 H1033 0.950 . S
C1059 C1058 1.414 . S
C1059 C1060 1.374 . S
C1060 H1034 0.950 . S
C1060 C1056 1.385 . S
C1060 C1059 1.374 . S
C1061 C1058 1.499 . S
C1061 C1062 1.373 . S
C1061 C1063 1.389 . S
C1062 H1035 0.950 . S
C1062 C1048 1.377 . S
C1062 C1061 1.373 . S
C1063 C1047 1.377 . S
C1063 C1061 1.389 . S
C1063 C1064 1.524 . S
C1064 C1063 1.524 . S
C1064 C1065 1.397 . S
C1064 C1069 1.363 . S
C1065 H1036 0.950 . S
C1065 C1064 1.397 . S
C1065 C1066 1.334 . S
C1066 H1037 0.950 . S
C1066 C1065 1.334 . S
C1066 C1067 1.287 . S
C1067 C1066 1.287 . S
C1067 C1068 1.524 . S
C1067 H1070 0.999 . S
C1068 H1038 0.950 . S
C1068 C1067 1.524 . S
C1068 C1069 1.415 . S
C1069 H1039 0.950 . S
C1069 C1064 1.363 . S
C1069 C1068 1.415 . S
H1070 C1067 0.999 . S
H1071 C1052 0.913 . S
H1072 C1090 0.951 . S
H1073 C1092 0.951 . S
H1074 C1094 0.950 . S
H1075 C1095 0.950 . S
H1076 C1097 0.950 . S
H1077 C1100 0.950 . S
H1078 C1101 0.950 . S
H1079 C1103 0.950 . S
H1080 C1104 0.950 . S
H1081 C1105 0.951 . S
H1082 C1107 0.951 . S
H1083 C1109 0.950 . S
H1084 C1110 0.950 . S
H1085 C1112 0.950 . S
H1086 C1115 0.950 . S
H1087 C1116 0.950 . S
H1088 C1118 0.950 . S
H1089 C1119 0.950 . S
C1090 H1072 0.951 . S
C1090 C1091 1.366 . S
C1090 C1092 1.388 . S
C1091 C1090 1.366 . S
C1091 C1095 1.385 . S
C1092 H1073 0.951 . S
C1092 C1090 1.388 . S
C1092 C1093 1.366 . S
C1093 C1092 1.366 . S
C1093 C1094 1.414 . S
C1093 C1096 1.499 . S
C1094 H1074 0.950 . S
C1094 C1093 1.414 . S
C1094 C1095 1.374 . S
C1095 H1075 0.950 . S
C1095 C1091 1.385 . S
C1095 C1094 1.374 . S
C1096 C1093 1.499 . S
C1096 C1097 1.373 . S
C1096 C1098 1.389 . S
C1097 H1076 0.950 . S
C1097 C1096 1.373 . S
C1097 C1113 1.377 . S
C1098 C1096 1.389 . S
C1098 C1099 1.524 . S
C1098 C1112 1.377 . S
C1099 C1098 1.524 . S
C1099 C1100 1.397 . S
C1099 C1104 1.363 . S
C1100 H1077 0.950 . S
C1100 C1099 1.397 . S
C1100 C1101 1.334 . S
C1101 H1078 0.950 . S
C1101 C1100 1.334 . S
C1101 C1102 1.287 . S
C1102 C1101 1.287 . S
C1102 C1103 1.524 . S
C1102 H1121 0.913 . S
C1103 H1079 0.950 . S
C1103 C1102 1.524 . S
C1103 C1104 1.415 . S
C1104 H1080 0.950 . S
C1104 C1099 1.363 . S
C1104 C1103 1.415 . S
C1105 H1081 0.951 . S
C1105 C1106 1.366 . S
C1105 C1107 1.388 . S
C1106 C1105 1.366 . S
C1106 C1110 1.385 . S
C1107 H1082 0.951 . S
C1107 C1105 1.388 . S
C1107 C1108 1.366 . S
C1108 C1107 1.366 . S
C1108 C1109 1.414 . S
C1108 C1111 1.499 . S
C1109 H1083 0.950 . S
C1109 C1108 1.414 . S
C1109 C1110 1.374 . S
C1110 H1084 0.950 . S
C1110 C1106 1.385 . S
C1110 C1109 1.374 . S
C1111 C1108 1.499 . S
C1111 C1112 1.373 . S
C1111 C1113 1.389 . S
C1112 H1085 0.950 . S
C1112 C1098 1.377 . S
C1112 C1111 1.373 . S
C1113 C1097 1.377 . S
C1113 C1111 1.389 . S
C1113 C1114 1.524 . S
C1114 C1113 1.524 . S
C1114 C1115 1.397 . S
C1114 C1119 1.363 . S
C1115 H1086 0.950 . S
C1115 C1114 1.397 . S
C1115 C1116 1.334 . S
C1116 H1087 0.950 . S
C1116 C1115 1.334 . S
C1116 C1117 1.287 . S
C1117 C1116 1.287 . S
C1117 C1118 1.524 . S
C1117 H1120 0.999 . S
C1118 H1088 0.950 . S
C1118 C1117 1.524 . S
C1118 C1119 1.415 . S
C1119 H1089 0.950 . S
C1119 C1114 1.363 . S
C1119 C1118 1.415 . S
H1120 C1117 0.999 . S
H1121 C1102 0.913 . S
H1122 C1140 0.951 . S
H1123 C1142 0.951 . S
H1124 C1144 0.950 . S
H1125 C1145 0.950 . S
H1126 C1147 0.950 . S
H1127 C1150 0.950 . S
H1128 C1151 0.950 . S
H1129 C1153 0.950 . S
H1130 C1154 0.950 . S
H1131 C1155 0.951 . S
H1132 C1157 0.951 . S
H1133 C1159 0.950 . S
H1134 C1160 0.950 . S
H1135 C1162 0.950 . S
H1136 C1165 0.950 . S
H1137 C1166 0.950 . S
H1138 C1168 0.950 . S
H1139 C1169 0.950 . S
C1140 H1122 0.951 . S
C1140 C1141 1.366 . S
C1140 C1142 1.388 . S
C1141 C1140 1.366 . S
C1141 C1145 1.385 . S
C1142 H1123 0.951 . S
C1142 C1140 1.388 . S
C1142 C1143 1.366 . S
C1143 C1142 1.366 . S
C1143 C1144 1.414 . S
C1143 C1146 1.499 . S
C1144 H1124 0.950 . S
C1144 C1143 1.414 . S
C1144 C1145 1.374 . S
C1145 H1125 0.950 . S
C1145 C1141 1.385 . S
C1145 C1144 1.374 . S
C1146 C1143 1.499 . S
C1146 C1147 1.373 . S
C1146 C1148 1.389 . S
C1147 H1126 0.950 . S
C1147 C1146 1.373 . S
C1147 C1163 1.377 . S
C1148 C1146 1.389 . S
C1148 C1149 1.524 . S
C1148 C1162 1.377 . S
C1149 C1148 1.524 . S
C1149 C1150 1.397 . S
C1149 C1154 1.363 . S
C1150 H1127 0.950 . S
C1150 C1149 1.397 . S
C1150 C1151 1.334 . S
C1151 H1128 0.950 . S
C1151 C1150 1.334 . S
C1151 C1152 1.287 . S
C1152 C1151 1.287 . S
C1152 C1153 1.524 . S
C1152 H1171 0.913 . S
C1153 H1129 0.950 . S
C1153 C1152 1.524 . S
C1153 C1154 1.415 . S
C1154 H1130 0.950 . S
C1154 C1149 1.363 . S
C1154 C1153 1.415 . S
C1155 H1131 0.951 . S
C1155 C1156 1.366 . S
C1155 C1157 1.388 . S
C1156 C1155 1.366 . S
C1156 C1160 1.385 . S
C1157 H1132 0.951 . S
C1157 C1155 1.388 . S
C1157 C1158 1.366 . S
C1158 C1157 1.366 . S
C1158 C1159 1.414 . S
C1158 C1161 1.499 . S
C1159 H1133 0.950 . S
C1159 C1158 1.414 . S
C1159 C1160 1.374 . S
C1160 H1134 0.950 . S
C1160 C1156 1.385 . S
C1160 C1159 1.374 . S
C1161 C1158 1.499 . S
C1161 C1162 1.373 . S
C1161 C1163 1.389 . S
C1162 H1135 0.950 . S
C1162 C1148 1.377 . S
C1162 C1161 1.373 . S
C1163 C1147 1.377 . S
C1163 C1161 1.389 . S
C1163 C1164 1.524 . S
C1164 C1163 1.524 . S
C1164 C1165 1.397 . S
C1164 C1169 1.363 . S
C1165 H1136 0.950 . S
C1165 C1164 1.397 . S
C1165 C1166 1.334 . S
C1166 H1137 0.950 . S
C1166 C1165 1.334 . S
C1166 C1167 1.287 . S
C1167 C1166 1.287 . S
C1167 C1168 1.524 . S
C1167 H1170 0.999 . S
C1168 H1138 0.950 . S
C1168 C1167 1.524 . S
C1168 C1169 1.415 . S
C1169 H1139 0.950 . S
C1169 C1164 1.363 . S
C1169 C1168 1.415 . S
H1170 C1167 0.999 . S
H1171 C1152 0.913 . S
H1172 C1190 0.951 . S
H1173 C1192 0.951 . S
H1174 C1194 0.950 . S
H1175 C1195 0.950 . S
H1176 C1197 0.950 . S
H1177 C1200 0.950 . S
H1178 C1201 0.950 . S
H1179 C1203 0.950 . S
H1180 C1204 0.950 . S
H1181 C1205 0.951 . S
H1182 C1207 0.951 . S
H1183 C1209 0.950 . S
H1184 C1210 0.950 . S
H1185 C1212 0.950 . S
H1186 C1215 0.950 . S
H1187 C1216 0.950 . S
H1188 C1218 0.950 . S
H1189 C1219 0.950 . S
C1190 H1172 0.951 . S
C1190 C1191 1.366 . S
C1190 C1192 1.388 . S
C1191 C1190 1.366 . S
C1191 C1195 1.385 . S
C1192 H1173 0.951 . S
C1192 C1190 1.388 . S
C1192 C1193 1.366 . S
C1193 C1192 1.366 . S
C1193 C1194 1.414 . S
C1193 C1196 1.499 . S
C1194 H1174 0.950 . S
C1194 C1193 1.414 . S
C1194 C1195 1.374 . S
C1195 H1175 0.950 . S
C1195 C1191 1.385 . S
C1195 C1194 1.374 . S
C1196 C1193 1.499 . S
C1196 C1197 1.373 . S
C1196 C1198 1.389 . S
C1197 H1176 0.950 . S
C1197 C1196 1.373 . S
C1197 C1213 1.377 . S
C1198 C1196 1.389 . S
C1198 C1199 1.524 . S
C1198 C1212 1.377 . S
C1199 C1198 1.524 . S
C1199 C1200 1.397 . S
C1199 C1204 1.363 . S
C1200 H1177 0.950 . S
C1200 C1199 1.397 . S
C1200 C1201 1.334 . S
C1201 H1178 0.950 . S
C1201 C1200 1.334 . S
C1201 C1202 1.287 . S
C1202 C1201 1.287 . S
C1202 C1203 1.524 . S
C1202 H1221 0.913 . S
C1203 H1179 0.950 . S
C1203 C1202 1.524 . S
C1203 C1204 1.415 . S
C1204 H1180 0.950 . S
C1204 C1199 1.363 . S
C1204 C1203 1.415 . S
C1205 H1181 0.951 . S
C1205 C1206 1.366 . S
C1205 C1207 1.388 . S
C1206 C1205 1.366 . S
C1206 C1210 1.385 . S
C1207 H1182 0.951 . S
C1207 C1205 1.388 . S
C1207 C1208 1.366 . S
C1208 C1207 1.366 . S
C1208 C1209 1.414 . S
C1208 C1211 1.499 . S
C1209 H1183 0.950 . S
C1209 C1208 1.414 . S
C1209 C1210 1.374 . S
C1210 H1184 0.950 . S
C1210 C1206 1.385 . S
C1210 C1209 1.374 . S
C1211 C1208 1.499 . S
C1211 C1212 1.373 . S
C1211 C1213 1.389 . S
C1212 H1185 0.950 . S
C1212 C1198 1.377 . S
C1212 C1211 1.373 . S
C1213 C1197 1.377 . S
C1213 C1211 1.389 . S
C1213 C1214 1.524 . S
C1214 C1213 1.524 . S
C1214 C1215 1.397 . S
C1214 C1219 1.363 . S
C1215 H1186 0.950 . S
C1215 C1214 1.397 . S
C1215 C1216 1.334 . S
C1216 H1187 0.950 . S
C1216 C1215 1.334 . S
C1216 C1217 1.287 . S
C1217 C1216 1.287 . S
C1217 C1218 1.524 . S
C1217 H1220 0.999 . S
C1218 H1188 0.950 . S
C1218 C1217 1.524 . S
C1218 C1219 1.415 . S
C1219 H1189 0.950 . S
C1219 C1214 1.363 . S
C1219 C1218 1.415 . S
H1220 C1217 0.999 . S
H1221 C1202 0.913 . S
H1222 C1240 0.951 . S
H1223 C1242 0.951 . S
H1224 C1244 0.950 . S
H1225 C1245 0.950 . S
H1226 C1247 0.950 . S
H1227 C1250 0.950 . S
H1228 C1251 0.950 . S
H1229 C1253 0.950 . S
H1230 C1254 0.950 . S
H1231 C1255 0.951 . S
H1232 C1257 0.951 . S
H1233 C1259 0.950 . S
H1234 C1260 0.950 . S
H1235 C1262 0.950 . S
H1236 C1265 0.950 . S
H1237 C1266 0.950 . S
H1238 C1268 0.950 . S
H1239 C1269 0.950 . S
C1240 H1222 0.951 . S
C1240 C1241 1.366 . S
C1240 C1242 1.388 . S
C1241 C1240 1.366 . S
C1241 C1245 1.385 . S
C1242 H1223 0.951 . S
C1242 C1240 1.388 . S
C1242 C1243 1.366 . S
C1243 C1242 1.366 . S
C1243 C1244 1.414 . S
C1243 C1246 1.499 . S
C1244 H1224 0.950 . S
C1244 C1243 1.414 . S
C1244 C1245 1.374 . S
C1245 H1225 0.950 . S
C1245 C1241 1.385 . S
C1245 C1244 1.374 . S
C1246 C1243 1.499 . S
C1246 C1247 1.373 . S
C1246 C1248 1.389 . S
C1247 H1226 0.950 . S
C1247 C1246 1.373 . S
C1247 C1263 1.377 . S
C1248 C1246 1.389 . S
C1248 C1249 1.524 . S
C1248 C1262 1.377 . S
C1249 C1248 1.524 . S
C1249 C1250 1.397 . S
C1249 C1254 1.363 . S
C1250 H1227 0.950 . S
C1250 C1249 1.397 . S
C1250 C1251 1.334 . S
C1251 H1228 0.950 . S
C1251 C1250 1.334 . S
C1251 C1252 1.287 . S
C1252 C1251 1.287 . S
C1252 C1253 1.524 . S
C1252 H1271 0.913 . S
C1253 H1229 0.950 . S
C1253 C1252 1.524 . S
C1253 C1254 1.415 . S
C1254 H1230 0.950 . S
C1254 C1249 1.363 . S
C1254 C1253 1.415 . S
C1255 H1231 0.951 . S
C1255 C1256 1.366 . S
C1255 C1257 1.388 . S
C1256 C1255 1.366 . S
C1256 C1260 1.385 . S
C1257 H1232 0.951 . S
C1257 C1255 1.388 . S
C1257 C1258 1.366 . S
C1258 C1257 1.366 . S
C1258 C1259 1.414 . S
C1258 C1261 1.499 . S
C1259 H1233 0.950 . S
C1259 C1258 1.414 . S
C1259 C1260 1.374 . S
C1260 H1234 0.950 . S
C1260 C1256 1.385 . S
C1260 C1259 1.374 . S
C1261 C1258 1.499 . S
C1261 C1262 1.373 . S
C1261 C1263 1.389 . S
C1262 H1235 0.950 . S
C1262 C1248 1.377 . S
C1262 C1261 1.373 . S
C1263 C1247 1.377 . S
C1263 C1261 1.389 . S
C1263 C1264 1.524 . S
C1264 C1263 1.524 . S
C1264 C1265 1.397 . S
C1264 C1269 1.363 . S
C1265 H1236 0.950 . S
C1265 C1264 1.397 . S
C1265 C1266 1.334 . S
C1266 H1237 0.950 . S
C1266 C1265 1.334 . S
C1266 C1267 1.287 . S
C1267 C1266 1.287 . S
C1267 C1268 1.524 . S
C1267 H1270 0.999 . S
C1268 H1238 0.950 . S
C1268 C1267 1.524 . S
C1268 C1269 1.415 . S
C1269 H1239 0.950 . S
C1269 C1264 1.363 . S
C1269 C1268 1.415 . S
H1270 C1267 0.999 . S
H1271 C1252 0.913 . S
H1272 C1290 0.951 . S
H1273 C1292 0.951 . S
H1274 C1294 0.950 . S
H1275 C1295 0.950 . S
H1276 C1297 0.950 . S
H1277 C1300 0.950 . S
H1278 C1301 0.950 . S
H1279 C1303 0.950 . S
H1280 C1304 0.950 . S
H1281 C1305 0.951 . S
H1282 C1307 0.951 . S
H1283 C1309 0.950 . S
H1284 C1310 0.950 . S
H1285 C1312 0.950 . S
H1286 C1315 0.950 . S
H1287 C1316 0.952 . S
H1288 C1318 0.950 . S
H1289 C1319 0.950 . S
C1290 H1272 0.951 . S
C1290 C1291 1.366 . S
C1290 C1292 1.388 . S
C1291 C1290 1.366 . S
C1291 C1295 1.385 . S
C1292 H1273 0.951 . S
C1292 C1290 1.388 . S
C1292 C1293 1.366 . S
C1293 C1292 1.366 . S
C1293 C1294 1.414 . S
C1293 C1296 1.499 . S
C1294 H1274 0.950 . S
C1294 C1293 1.414 . S
C1294 C1295 1.374 . S
C1295 H1275 0.950 . S
C1295 C1291 1.385 . S
C1295 C1294 1.374 . S
C1296 C1293 1.499 . S
C1296 C1297 1.373 . S
C1296 C1298 1.389 . S
C1297 H1276 0.950 . S
C1297 C1296 1.373 . S
C1297 C1313 1.377 . S
C1298 C1296 1.389 . S
C1298 C1299 1.524 . S
C1298 C1312 1.377 . S
C1299 C1298 1.524 . S
C1299 C1300 1.397 . S
C1299 C1304 1.363 . S
C1300 H1277 0.950 . S
C1300 C1299 1.397 . S
C1300 C1301 1.334 . S
C1301 H1278 0.950 . S
C1301 C1300 1.334 . S
C1301 C1302 1.287 . S
C1302 C1301 1.287 . S
C1302 C1303 1.524 . S
C1302 H1321 0.913 . S
C1303 H1279 0.950 . S
C1303 C1302 1.524 . S
C1303 C1304 1.415 . S
C1304 H1280 0.950 . S
C1304 C1299 1.363 . S
C1304 C1303 1.415 . S
C1305 H1281 0.951 . S
C1305 C1306 1.366 . S
C1305 C1307 1.388 . S
C1306 C1305 1.366 . S
C1306 C1310 1.385 . S
C1307 H1282 0.951 . S
C1307 C1305 1.388 . S
C1307 C1308 1.366 . S
C1308 C1307 1.366 . S
C1308 C1309 1.414 . S
C1308 C1311 1.499 . S
C1309 H1283 0.950 . S
C1309 C1308 1.414 . S
C1309 C1310 1.374 . S
C1310 H1284 0.950 . S
C1310 C1306 1.385 . S
C1310 C1309 1.374 . S
C1311 C1308 1.499 . S
C1311 C1312 1.373 . S
C1311 C1313 1.389 . S
C1312 H1285 0.950 . S
C1312 C1298 1.377 . S
C1312 C1311 1.373 . S
C1313 C1297 1.377 . S
C1313 C1311 1.389 . S
C1313 C1314 1.524 . S
C1314 C1313 1.524 . S
C1314 C1315 1.397 . S
C1314 C1319 1.363 . S
C1315 H1286 0.950 . S
C1315 C1314 1.397 . S
C1315 C1316 1.334 . S
C1316 H1287 0.952 . S
C1316 C1315 1.334 . S
C1316 C1317 1.287 1_556 S
C1317 C1316 1.287 1_554 S
C1317 C1318 1.524 . S
C1317 H1320 0.999 . S
C1318 H1288 0.950 . S
C1318 C1317 1.524 . S
C1318 C1319 1.415 1_554 S
C1319 H1289 0.950 . S
C1319 C1314 1.363 . S
C1319 C1318 1.415 1_556 S
H1320 C1317 0.999 . S
H1321 C1302 0.913 . S
H1322 C1340 0.951 . S
H1323 C1342 0.951 . S
H1324 C1344 0.950 . S
H1325 C1345 0.950 . S
H1326 C1347 0.950 . S
H1327 C1350 0.950 . S
H1328 C1351 0.950 . S
H1329 C1353 0.950 1_455 S
H1330 C1354 0.950 . S
H1331 C1355 0.951 . S
H1332 C1357 0.951 . S
H1333 C1359 0.950 . S
H1334 C1360 0.950 . S
H1335 C1362 0.950 . S
H1336 C1365 0.950 . S
H1337 C1366 0.950 . S
H1338 C1368 0.950 . S
H1339 C1369 0.950 . S
C1340 H1322 0.951 . S
C1340 C1341 1.366 . S
C1340 C1342 1.388 . S
C1341 C1340 1.366 . S
C1341 C1345 1.385 . S
C1342 H1323 0.951 . S
C1342 C1340 1.388 . S
C1342 C1343 1.366 . S
C1343 C1342 1.366 . S
C1343 C1344 1.414 . S
C1343 C1346 1.499 . S
C1344 H1324 0.950 . S
C1344 C1343 1.414 . S
C1344 C1345 1.374 . S
C1345 H1325 0.950 . S
C1345 C1341 1.385 . S
C1345 C1344 1.374 . S
C1346 C1343 1.499 . S
C1346 C1347 1.373 . S
C1346 C1348 1.389 . S
C1347 H1326 0.950 . S
C1347 C1346 1.373 . S
C1347 C1363 1.377 . S
C1348 C1346 1.389 . S
C1348 C1349 1.524 . S
C1348 C1362 1.377 . S
C1349 C1348 1.524 . S
C1349 C1350 1.397 . S
C1349 C1354 1.363 . S
C1350 H1327 0.950 . S
C1350 C1349 1.397 . S
C1350 C1351 1.334 . S
C1351 H1328 0.950 . S
C1351 C1350 1.334 . S
C1351 C1352 1.287 . S
C1352 C1351 1.287 . S
C1352 C1353 1.524 . S
C1352 H1371 0.913 . S
C1353 H1329 0.950 1_655 S
C1353 C1352 1.524 . S
C1353 C1354 1.415 . S
C1354 H1330 0.950 . S
C1354 C1349 1.363 . S
C1354 C1353 1.415 . S
C1355 H1331 0.951 . S
C1355 C1356 1.366 . S
C1355 C1357 1.388 . S
C1356 C1355 1.366 . S
C1356 C1360 1.385 . S
C1357 H1332 0.951 . S
C1357 C1355 1.388 . S
C1357 C1358 1.366 . S
C1358 C1357 1.366 . S
C1358 C1359 1.414 . S
C1358 C1361 1.499 . S
C1359 H1333 0.950 . S
C1359 C1358 1.414 . S
C1359 C1360 1.374 . S
C1360 H1334 0.950 . S
C1360 C1356 1.385 . S
C1360 C1359 1.374 . S
C1361 C1358 1.499 . S
C1361 C1362 1.373 . S
C1361 C1363 1.389 . S
C1362 H1335 0.950 . S
C1362 C1348 1.377 . S
C1362 C1361 1.373 . S
C1363 C1347 1.377 . S
C1363 C1361 1.389 . S
C1363 C1364 1.524 . S
C1364 C1363 1.524 . S
C1364 C1365 1.397 . S
C1364 C1369 1.363 . S
C1365 H1336 0.950 . S
C1365 C1364 1.397 . S
C1365 C1366 1.334 . S
C1366 H1337 0.950 . S
C1366 C1365 1.334 . S
C1366 C1367 1.287 . S
C1367 C1366 1.287 . S
C1367 C1368 1.524 . S
C1367 H1370 0.999 . S
C1368 H1338 0.950 . S
C1368 C1367 1.524 . S
C1368 C1369 1.415 . S
C1369 H1339 0.950 . S
C1369 C1364 1.363 . S
C1369 C1368 1.415 . S
H1370 C1367 0.999 . S
H1371 C1352 0.913 . S
H1372 C1390 0.951 . S
H1373 C1392 0.951 . S
H1374 C1394 0.950 . S
H1375 C1395 0.950 . S
H1376 C1397 0.950 . S
H1377 C1400 0.950 . S
H1378 C1401 0.950 . S
H1379 C1403 0.950 . S
H1380 C1404 0.950 . S
H1381 C1405 0.951 . S
H1382 C1407 0.951 . S
H1383 C1409 0.950 . S
H1384 C1410 0.950 . S
H1385 C1412 0.950 . S
H1386 C1415 0.950 . S
H1387 C1416 0.950 . S
H1388 C1418 0.950 . S
H1389 C1419 0.950 . S
C1390 H1372 0.951 . S
C1390 C1391 1.366 . S
C1390 C1392 1.388 . S
C1391 C1390 1.366 . S
C1391 C1395 1.385 . S
C1392 H1373 0.951 . S
C1392 C1390 1.388 . S
C1392 C1393 1.366 . S
C1393 C1392 1.366 . S
C1393 C1394 1.414 . S
C1393 C1396 1.499 . S
C1394 H1374 0.950 . S
C1394 C1393 1.414 . S
C1394 C1395 1.374 . S
C1395 H1375 0.950 . S
C1395 C1391 1.385 . S
C1395 C1394 1.374 . S
C1396 C1393 1.499 . S
C1396 C1397 1.373 . S
C1396 C1398 1.389 . S
C1397 H1376 0.950 . S
C1397 C1396 1.373 . S
C1397 C1413 1.377 . S
C1398 C1396 1.389 . S
C1398 C1399 1.524 . S
C1398 C1412 1.377 . S
C1399 C1398 1.524 . S
C1399 C1400 1.397 . S
C1399 C1404 1.363 . S
C1400 H1377 0.950 . S
C1400 C1399 1.397 . S
C1400 C1401 1.334 . S
C1401 H1378 0.950 . S
C1401 C1400 1.334 . S
C1401 C1402 1.287 . S
C1402 C1401 1.287 . S
C1402 C1403 1.524 . S
C1402 H1421 0.913 . S
C1403 H1379 0.950 . S
C1403 C1402 1.524 . S
C1403 C1404 1.415 . S
C1404 H1380 0.950 . S
C1404 C1399 1.363 . S
C1404 C1403 1.415 . S
C1405 H1381 0.951 . S
C1405 C1406 1.366 . S
C1405 C1407 1.388 . S
C1406 C1405 1.366 . S
C1406 C1410 1.385 . S
C1407 H1382 0.951 . S
C1407 C1405 1.388 . S
C1407 C1408 1.366 . S
C1408 C1407 1.366 . S
C1408 C1409 1.414 . S
C1408 C1411 1.499 . S
C1409 H1383 0.950 . S
C1409 C1408 1.414 . S
C1409 C1410 1.374 . S
C1410 H1384 0.950 . S
C1410 C1406 1.385 . S
C1410 C1409 1.374 . S
C1411 C1408 1.499 . S
C1411 C1412 1.373 . S
C1411 C1413 1.389 . S
C1412 H1385 0.950 . S
C1412 C1398 1.377 . S
C1412 C1411 1.373 . S
C1413 C1397 1.377 . S
C1413 C1411 1.389 . S
C1413 C1414 1.524 . S
C1414 C1413 1.524 . S
C1414 C1415 1.397 . S
C1414 C1419 1.363 . S
C1415 H1386 0.950 . S
C1415 C1414 1.397 . S
C1415 C1416 1.334 1_554 S
C1416 H1387 0.950 . S
C1416 C1415 1.334 1_556 S
C1416 C1417 1.287 . S
C1417 C1416 1.287 . S
C1417 C1418 1.524 . S
C1417 H1420 0.999 . S
C1418 H1388 0.950 . S
C1418 C1417 1.524 . S
C1418 C1419 1.415 1_556 S
C1419 H1389 0.950 . S
C1419 C1414 1.363 . S
C1419 C1418 1.415 1_554 S
H1420 C1417 0.999 . S
H1421 C1402 0.913 . S
H1422 C1440 0.951 . S
H1423 C1442 0.951 . S
H1424 C1444 0.950 . S
H1425 C1445 0.950 . S
H1426 C1447 0.950 . S
H1427 C1450 0.950 . S
H1428 C1451 0.950 . S
H1429 C1453 0.950 . S
H1430 C1454 0.950 . S
H1431 C1455 0.951 . S
H1432 C1457 0.951 . S
H1433 C1459 0.950 . S
H1434 C1460 0.950 . S
H1435 C1462 0.950 . S
H1436 C1465 0.950 . S
H1437 C1466 0.950 . S
H1438 C1468 0.950 . S
H1439 C1469 0.950 . S
C1440 H1422 0.951 . S
C1440 C1441 1.366 . S
C1440 C1442 1.388 . S
C1441 C1440 1.366 . S
C1441 C1445 1.385 . S
C1442 H1423 0.951 . S
C1442 C1440 1.388 . S
C1442 C1443 1.366 . S
C1443 C1442 1.366 . S
C1443 C1444 1.414 . S
C1443 C1446 1.499 . S
C1444 H1424 0.950 . S
C1444 C1443 1.414 . S
C1444 C1445 1.374 . S
C1445 H1425 0.950 . S
C1445 C1441 1.385 . S
C1445 C1444 1.374 . S
C1446 C1443 1.499 . S
C1446 C1447 1.373 . S
C1446 C1448 1.389 . S
C1447 H1426 0.950 . S
C1447 C1446 1.373 . S
C1447 C1463 1.377 . S
C1448 C1446 1.389 . S
C1448 C1449 1.524 . S
C1448 C1462 1.377 . S
C1449 C1448 1.524 . S
C1449 C1450 1.397 . S
C1449 C1454 1.363 . S
C1450 H1427 0.950 . S
C1450 C1449 1.397 . S
C1450 C1451 1.334 . S
C1451 H1428 0.950 . S
C1451 C1450 1.334 . S
C1451 C1452 1.287 . S
C1452 C1451 1.287 . S
C1452 C1453 1.524 . S
C1452 H1471 0.913 . S
C1453 H1429 0.950 . S
C1453 C1452 1.524 . S
C1453 C1454 1.415 . S
C1454 H1430 0.950 . S
C1454 C1449 1.363 . S
C1454 C1453 1.415 . S
C1455 H1431 0.951 . S
C1455 C1456 1.366 . S
C1455 C1457 1.388 . S
C1456 C1455 1.366 . S
C1456 C1460 1.385 . S
C1457 H1432 0.951 . S
C1457 C1455 1.388 . S
C1457 C1458 1.366 . S
C1458 C1457 1.366 . S
C1458 C1459 1.414 . S
C1458 C1461 1.499 . S
C1459 H1433 0.950 . S
C1459 C1458 1.414 . S
C1459 C1460 1.374 . S
C1460 H1434 0.950 . S
C1460 C1456 1.385 . S
C1460 C1459 1.374 . S
C1461 C1458 1.499 . S
C1461 C1462 1.373 . S
C1461 C1463 1.389 . S
C1462 H1435 0.950 . S
C1462 C1448 1.377 . S
C1462 C1461 1.373 . S
C1463 C1447 1.377 . S
C1463 C1461 1.389 . S
C1463 C1464 1.524 . S
C1464 C1463 1.524 . S
C1464 C1465 1.397 . S
C1464 C1469 1.363 . S
C1465 H1436 0.950 . S
C1465 C1464 1.397 . S
C1465 C1466 1.334 . S
C1466 H1437 0.950 . S
C1466 C1465 1.334 . S
C1466 C1467 1.287 . S
C1467 C1466 1.287 . S
C1467 C1468 1.524 . S
C1467 H1470 0.999 . S
C1468 H1438 0.950 . S
C1468 C1467 1.524 . S
C1468 C1469 1.415 . S
C1469 H1439 0.950 . S
C1469 C1464 1.363 . S
C1469 C1468 1.415 . S
H1470 C1467 0.999 . S
H1471 C1452 0.913 . S
H1472 C1490 0.951 . S
H1473 C1492 0.951 . S
H1474 C1494 0.950 . S
H1475 C1495 0.950 . S
H1476 C1497 0.950 . S
H1477 C1500 0.950 . S
H1478 C1501 0.950 . S
H1479 C1503 0.950 . S
H1480 C1504 0.950 . S
H1481 C1505 0.951 . S
H1482 C1507 0.951 . S
H1483 C1509 0.950 . S
H1484 C1510 0.950 . S
H1485 C1512 0.950 . S
H1486 C1515 0.950 . S
H1487 C1516 0.950 . S
H1488 C1518 0.950 . S
H1489 C1519 0.950 . S
C1490 H1472 0.951 . S
C1490 C1491 1.366 . S
C1490 C1492 1.388 . S
C1491 C1490 1.366 . S
C1491 C1495 1.385 . S
C1492 H1473 0.951 . S
C1492 C1490 1.388 . S
C1492 C1493 1.366 . S
C1493 C1492 1.366 . S
C1493 C1494 1.414 . S
C1493 C1496 1.499 . S
C1494 H1474 0.950 . S
C1494 C1493 1.414 . S
C1494 C1495 1.374 . S
C1495 H1475 0.950 . S
C1495 C1491 1.385 . S
C1495 C1494 1.374 . S
C1496 C1493 1.499 . S
C1496 C1497 1.373 . S
C1496 C1498 1.389 . S
C1497 H1476 0.950 . S
C1497 C1496 1.373 . S
C1497 C1513 1.377 . S
C1498 C1496 1.389 . S
C1498 C1499 1.524 . S
C1498 C1512 1.377 . S
C1499 C1498 1.524 . S
C1499 C1500 1.397 . S
C1499 C1504 1.363 . S
C1500 H1477 0.950 . S
C1500 C1499 1.397 . S
C1500 C1501 1.334 . S
C1501 H1478 0.950 . S
C1501 C1500 1.334 . S
C1501 C1502 1.287 . S
C1502 C1501 1.287 . S
C1502 C1503 1.524 . S
C1502 H1521 0.913 . S
C1503 H1479 0.950 . S
C1503 C1502 1.524 . S
C1503 C1504 1.415 . S
C1504 H1480 0.950 . S
C1504 C1499 1.363 . S
C1504 C1503 1.415 . S
C1505 H1481 0.951 . S
C1505 C1506 1.366 . S
C1505 C1507 1.388 . S
C1506 C1505 1.366 . S
C1506 C1510 1.385 . S
C1507 H1482 0.951 . S
C1507 C1505 1.388 . S
C1507 C1508 1.366 . S
C1508 C1507 1.366 . S
C1508 C1509 1.414 . S
C1508 C1511 1.499 . S
C1509 H1483 0.950 . S
C1509 C1508 1.414 . S
C1509 C1510 1.374 . S
C1510 H1484 0.950 . S
C1510 C1506 1.385 . S
C1510 C1509 1.374 . S
C1511 C1508 1.499 . S
C1511 C1512 1.373 . S
C1511 C1513 1.389 . S
C1512 H1485 0.950 . S
C1512 C1498 1.377 . S
C1512 C1511 1.373 . S
C1513 C1497 1.377 . S
C1513 C1511 1.389 . S
C1513 C1514 1.524 . S
C1514 C1513 1.524 . S
C1514 C1515 1.397 . S
C1514 C1519 1.363 . S
C1515 H1486 0.950 . S
C1515 C1514 1.397 . S
C1515 C1516 1.334 . S
C1516 H1487 0.950 . S
C1516 C1515 1.334 . S
C1516 C1517 1.287 . S
C1517 C1516 1.287 . S
C1517 C1518 1.524 . S
C1517 H1520 0.999 . S
C1518 H1488 0.950 . S
C1518 C1517 1.524 . S
C1518 C1519 1.415 . S
C1519 H1489 0.950 . S
C1519 C1514 1.363 . S
C1519 C1518 1.415 . S
H1520 C1517 0.999 . S
H1521 C1502 0.913 . S
H1522 C1540 0.951 . S
H1523 C1542 0.951 . S
H1524 C1544 0.950 . S
H1525 C1545 0.950 . S
H1526 C1547 0.950 . S
H1527 C1550 0.950 . S
H1528 C1551 0.950 . S
H1529 C1553 0.950 . S
H1530 C1554 0.950 . S
H1531 C1555 0.951 . S
H1532 C1557 0.951 . S
H1533 C1559 0.950 . S
H1534 C1560 0.950 . S
H1535 C1562 0.950 . S
H1536 C1565 0.950 . S
H1537 C1566 0.950 . S
H1538 C1568 0.950 . S
H1539 C1569 0.950 . S
C1540 H1522 0.951 . S
C1540 C1541 1.366 . S
C1540 C1542 1.388 . S
C1541 C1540 1.366 . S
C1541 C1545 1.385 . S
C1542 H1523 0.951 . S
C1542 C1540 1.388 . S
C1542 C1543 1.366 . S
C1543 C1542 1.366 . S
C1543 C1544 1.414 . S
C1543 C1546 1.499 . S
C1544 H1524 0.950 . S
C1544 C1543 1.414 . S
C1544 C1545 1.374 . S
C1545 H1525 0.950 . S
C1545 C1541 1.385 . S
C1545 C1544 1.374 . S
C1546 C1543 1.499 . S
C1546 C1547 1.373 . S
C1546 C1548 1.389 . S
C1547 H1526 0.950 . S
C1547 C1546 1.373 . S
C1547 C1563 1.377 . S
C1548 C1546 1.389 . S
C1548 C1549 1.524 . S
C1548 C1562 1.377 . S
C1549 C1548 1.524 . S
C1549 C1550 1.397 . S
C1549 C1554 1.363 . S
C1550 H1527 0.950 . S
C1550 C1549 1.397 . S
C1550 C1551 1.334 . S
C1551 H1528 0.950 . S
C1551 C1550 1.334 . S
C1551 C1552 1.287 . S
C1552 C1551 1.287 . S
C1552 C1553 1.524 . S
C1552 H1571 0.913 . S
C1553 H1529 0.950 . S
C1553 C1552 1.524 . S
C1553 C1554 1.415 . S
C1554 H1530 0.950 . S
C1554 C1549 1.363 . S
C1554 C1553 1.415 . S
C1555 H1531 0.951 . S
C1555 C1556 1.366 . S
C1555 C1557 1.388 . S
C1556 C1555 1.366 . S
C1556 C1560 1.385 . S
C1557 H1532 0.951 . S
C1557 C1555 1.388 . S
C1557 C1558 1.366 . S
C1558 C1557 1.366 . S
C1558 C1559 1.414 . S
C1558 C1561 1.499 . S
C1559 H1533 0.950 . S
C1559 C1558 1.414 . S
C1559 C1560 1.374 . S
C1560 H1534 0.950 . S
C1560 C1556 1.385 . S
C1560 C1559 1.374 . S
C1561 C1558 1.499 . S
C1561 C1562 1.373 . S
C1561 C1563 1.389 . S
C1562 H1535 0.950 . S
C1562 C1548 1.377 . S
C1562 C1561 1.373 . S
C1563 C1547 1.377 . S
C1563 C1561 1.389 . S
C1563 C1564 1.524 . S
C1564 C1563 1.524 . S
C1564 C1565 1.397 . S
C1564 C1569 1.363 . S
C1565 H1536 0.950 . S
C1565 C1564 1.397 . S
C1565 C1566 1.334 . S
C1566 H1537 0.950 . S
C1566 C1565 1.334 . S
C1566 C1567 1.287 . S
C1567 C1566 1.287 . S
C1567 C1568 1.524 . S
C1567 H1570 0.999 . S
C1568 H1538 0.950 . S
C1568 C1567 1.524 . S
C1568 C1569 1.415 . S
C1569 H1539 0.950 . S
C1569 C1564 1.363 . S
C1569 C1568 1.415 . S
H1570 C1567 0.999 . S
H1571 C1552 0.913 . S
H1572 C1590 0.951 . S
H1573 C1592 0.951 . S
H1574 C1594 0.950 . S
H1575 C1595 0.950 . S
H1576 C1597 0.950 . S
H1577 C1600 0.950 . S
H1578 C1601 0.950 . S
H1579 C1603 0.950 . S
H1580 C1604 0.950 . S
H1581 C1605 0.951 . S
H1582 C1607 0.951 . S
H1583 C1609 0.950 . S
H1584 C1610 0.964 . S
H1585 C1612 0.950 . S
H1586 C1615 0.950 . S
H1587 C1616 0.950 . S
H1588 C1618 0.950 . S
H1589 C1619 0.950 . S
C1590 H1572 0.951 . S
C1590 C1591 1.366 . S
C1590 C1592 1.388 . S
C1591 C1590 1.366 . S
C1591 C1595 1.385 . S
C1592 H1573 0.951 . S
C1592 C1590 1.388 . S
C1592 C1593 1.366 . S
C1593 C1592 1.366 . S
C1593 C1594 1.414 . S
C1593 C1596 1.499 . S
C1594 H1574 0.950 . S
C1594 C1593 1.414 . S
C1594 C1595 1.374 . S
C1595 H1575 0.950 . S
C1595 C1591 1.385 . S
C1595 C1594 1.374 . S
C1596 C1593 1.499 . S
C1596 C1597 1.373 . S
C1596 C1598 1.389 . S
C1597 H1576 0.950 . S
C1597 C1596 1.373 . S
C1597 C1613 1.377 . S
C1598 C1596 1.389 . S
C1598 C1599 1.524 . S
C1598 C1612 1.377 . S
C1599 C1598 1.524 . S
C1599 C1600 1.397 . S
C1599 C1604 1.363 . S
C1600 H1577 0.950 . S
C1600 C1599 1.397 . S
C1600 C1601 1.334 . S
C1601 H1578 0.950 . S
C1601 C1600 1.334 . S
C1601 C1602 1.287 . S
C1602 C1601 1.287 . S
C1602 C1603 1.524 . S
C1602 H1621 0.913 . S
C1603 H1579 0.950 . S
C1603 C1602 1.524 . S
C1603 C1604 1.415 . S
C1604 H1580 0.950 . S
C1604 C1599 1.363 . S
C1604 C1603 1.415 . S
C1605 H1581 0.951 . S
C1605 C1606 1.366 . S
C1605 C1607 1.388 . S
C1606 C1605 1.366 . S
C1606 C1610 1.385 . S
C1607 H1582 0.951 . S
C1607 C1605 1.388 . S
C1607 C1608 1.366 . S
C1608 C1607 1.366 . S
C1608 C1609 1.414 . S
C1608 C1611 1.499 . S
C1609 H1583 0.950 . S
C1609 C1608 1.414 . S
C1609 C1610 1.374 . S
C1610 H1584 0.964 . S
C1610 C1606 1.385 . S
C1610 C1609 1.374 . S
C1611 C1608 1.499 . S
C1611 C1612 1.373 . S
C1611 C1613 1.389 . S
C1612 H1585 0.950 . S
C1612 C1598 1.377 . S
C1612 C1611 1.373 . S
C1613 C1597 1.377 . S
C1613 C1611 1.389 . S
C1613 C1614 1.524 . S
C1614 C1613 1.524 . S
C1614 C1615 1.397 . S
C1614 C1619 1.363 . S
C1615 H1586 0.950 . S
C1615 C1614 1.397 . S
C1615 C1616 1.334 . S
C1616 H1587 0.950 . S
C1616 C1615 1.334 . S
C1616 C1617 1.287 . S
C1617 C1616 1.287 . S
C1617 C1618 1.524 . S
C1617 H1620 0.999 . S
C1618 H1588 0.950 . S
C1618 C1617 1.524 . S
C1618 C1619 1.415 . S
C1619 H1589 0.950 . S
C1619 C1614 1.363 . S
C1619 C1618 1.415 . S
H1620 C1617 0.999 . S
H1621 C1602 0.913 . S
H1622 C1640 0.951 . S
H1623 C1642 0.951 . S
H1624 C1644 0.950 . S
H1625 C1645 0.950 . S
H1626 C1647 0.950 . S
H1627 C1650 0.950 . S
H1628 C1651 0.950 . S
H1629 C1653 0.950 . S
H1630 C1654 0.950 . S
H1631 C1655 0.951 . S
H1632 C1657 0.951 . S
H1633 C1659 0.950 . S
H1634 C1660 0.950 . S
H1635 C1662 0.950 . S
H1636 C1665 0.950 . S
H1637 C1666 0.950 . S
H1638 C1668 0.950 . S
H1639 C1669 0.950 . S
C1640 H1622 0.951 . S
C1640 C1641 1.366 . S
C1640 C1642 1.388 . S
C1641 C1640 1.366 . S
C1641 C1645 1.385 . S
C1642 H1623 0.951 . S
C1642 C1640 1.388 . S
C1642 C1643 1.366 . S
C1643 C1642 1.366 . S
C1643 C1644 1.414 . S
C1643 C1646 1.499 . S
C1644 H1624 0.950 . S
C1644 C1643 1.414 . S
C1644 C1645 1.374 . S
C1645 H1625 0.950 . S
C1645 C1641 1.385 . S
C1645 C1644 1.374 . S
C1646 C1643 1.499 . S
C1646 C1647 1.373 . S
C1646 C1648 1.389 . S
C1647 H1626 0.950 . S
C1647 C1646 1.373 . S
C1647 C1663 1.377 . S
C1648 C1646 1.389 . S
C1648 C1649 1.524 . S
C1648 C1662 1.377 . S
C1649 C1648 1.524 . S
C1649 C1650 1.397 . S
C1649 C1654 1.363 . S
C1650 H1627 0.950 . S
C1650 C1649 1.397 . S
C1650 C1651 1.334 . S
C1651 H1628 0.950 . S
C1651 C1650 1.334 . S
C1651 C1652 1.287 . S
C1652 C1651 1.287 . S
C1652 C1653 1.524 . S
C1652 H1671 0.913 . S
C1653 H1629 0.950 . S
C1653 C1652 1.524 . S
C1653 C1654 1.415 . S
C1654 H1630 0.950 . S
C1654 C1649 1.363 . S
C1654 C1653 1.415 . S
C1655 H1631 0.951 . S
C1655 C1656 1.366 . S
C1655 C1657 1.388 . S
C1656 C1655 1.366 . S
C1656 C1660 1.385 . S
C1657 H1632 0.951 . S
C1657 C1655 1.388 . S
C1657 C1658 1.366 . S
C1658 C1657 1.366 . S
C1658 C1659 1.414 . S
C1658 C1661 1.499 . S
C1659 H1633 0.950 . S
C1659 C1658 1.414 . S
C1659 C1660 1.374 . S
C1660 H1634 0.950 . S
C1660 C1656 1.385 . S
C1660 C1659 1.374 . S
C1661 C1658 1.499 . S
C1661 C1662 1.373 . S
C1661 C1663 1.389 . S
C1662 H1635 0.950 . S
C1662 C1648 1.377 . S
C1662 C1661 1.373 . S
C1663 C1647 1.377 . S
C1663 C1661 1.389 . S
C1663 C1664 1.524 . S
C1664 C1663 1.524 . S
C1664 C1665 1.397 . S
C1664 C1669 1.363 . S
C1665 H1636 0.950 . S
C1665 C1664 1.397 . S
C1665 C1666 1.334 . S
C1666 H1637 0.950 . S
C1666 C1665 1.334 . S
C1666 C1667 1.287 . S
C1667 C1666 1.287 . S
C1667 C1668 1.524 . S
C1667 H1670 0.999 . S
C1668 H1638 0.950 . S
C1668 C1667 1.524 . S
C1668 C1669 1.415 . S
C1669 H1639 0.950 . S
C1669 C1664 1.363 . S
C1669 C1668 1.415 . S
H1670 C1667 0.999 . S
H1671 C1652 0.913 . S
C491 C1 0.854 . S
C506 C316 0.858 . S
C541 C40 1.219 . S
C556 C377 1.246 . S
C606 C415 2.493 . S
C591 C99 2.559 . S
C641 C118 2.271 . S
C656 C455 2.224 . S
C706 C375 1.242 . S
C691 C16 1.242 . S
C756 C343 2.144 . S
C741 C60 2.087 . S
C806 C452 1.685 . S
C791 C79 1.696 . S
C856 C412 1.766 . S
C841 C138 1.775 . S
C891 C21 0.975 . S
C906 C457 0.984 . S
C956 C372 2.411 . S
C941 C94 2.410 . S
C991 C133 2.114 . S
C1006 C314 2.080 . S
C1041 C55 1.486 . S
C1056 C417 1.527 . S
C1106 C337 0.862 . S
C1091 C157 0.858 . S
C1141 C196 1.215 . S
C1156 C356 1.247 . S
C1191 C255 2.552 . S
C1206 C394 2.491 . S
C1241 C289 2.267 . S
C1256 C434 2.218 . S
C1291 C172 1.237 . S
C1306 C354 1.239 . S
C1356 C332 2.146 . S
C1341 C216 2.069 . S
C1406 C463 1.686 . S
C1391 C235 1.696 . S
C1456 C423 1.763 . S
C1441 C294 1.775 . S
C1491 C177 0.977 . S
C1506 C436 0.982 . S
C1556 C383 2.413 . S
C1541 C250 2.412 . S
C1606 C335 2.085 . S
C1591 C274 2.117 . S
C1641 C211 1.489 . S
C1656 C396 1.525 . S
