# Generated by pormake.
# Topology tbo, (3,4)-cn, num edge types: 1
# Building blocks:
#     Node 0, Type 0, BuildingBlock: VETTIZ_charged_linker_0, # of connection points: 3
#     Node 1, Type 0, BuildingBlock: VETTIZ_charged_linker_0, # of connection points: 3
#     Node 2, Type 0, BuildingBlock: VETTIZ_charged_linker_0, # of connection points: 3
#     Node 3, Type 0, BuildingBlock: VETTIZ_charged_linker_0, # of connection points: 3
#     Node 4, Type 0, BuildingBlock: VETTIZ_charged_linker_0, # of connection points: 3
#     Node 5, Type 0, BuildingBlock: VETTIZ_charged_linker_0, # of connection points: 3
#     Node 6, Type 0, BuildingBlock: VETTIZ_charged_linker_0, # of connection points: 3
#     Node 7, Type 0, BuildingBlock: VETTIZ_charged_linker_0, # of connection points: 3
#     Node 8, Type 0, BuildingBlock: VETTIZ_charged_linker_0, # of connection points: 3
#     Node 9, Type 0, BuildingBlock: VETTIZ_charged_linker_0, # of connection points: 3
#     Node 10, Type 0, BuildingBlock: VETTIZ_charged_linker_0, # of connection points: 3
#     Node 11, Type 0, BuildingBlock: VETTIZ_charged_linker_0, # of connection points: 3
#     Node 12, Type 0, BuildingBlock: VETTIZ_charged_linker_0, # of connection points: 3
#     Node 13, Type 0, BuildingBlock: VETTIZ_charged_linker_0, # of connection points: 3
#     Node 14, Type 0, BuildingBlock: VETTIZ_charged_linker_0, # of connection points: 3
#     Node 15, Type 0, BuildingBlock: VETTIZ_charged_linker_0, # of connection points: 3
#     Node 16, Type 0, BuildingBlock: VETTIZ_charged_linker_0, # of connection points: 3
#     Node 17, Type 0, BuildingBlock: VETTIZ_charged_linker_0, # of connection points: 3
#     Node 18, Type 0, BuildingBlock: VETTIZ_charged_linker_0, # of connection points: 3
#     Node 19, Type 0, BuildingBlock: VETTIZ_charged_linker_0, # of connection points: 3
#     Node 20, Type 0, BuildingBlock: VETTIZ_charged_linker_0, # of connection points: 3
#     Node 21, Type 0, BuildingBlock: VETTIZ_charged_linker_0, # of connection points: 3
#     Node 22, Type 0, BuildingBlock: VETTIZ_charged_linker_0, # of connection points: 3
#     Node 23, Type 0, BuildingBlock: VETTIZ_charged_linker_0, # of connection points: 3
#     Node 24, Type 0, BuildingBlock: VETTIZ_charged_linker_0, # of connection points: 3
#     Node 25, Type 0, BuildingBlock: VETTIZ_charged_linker_0, # of connection points: 3
#     Node 26, Type 0, BuildingBlock: VETTIZ_charged_linker_0, # of connection points: 3
#     Node 27, Type 0, BuildingBlock: VETTIZ_charged_linker_0, # of connection points: 3
#     Node 28, Type 0, BuildingBlock: VETTIZ_charged_linker_0, # of connection points: 3
#     Node 29, Type 0, BuildingBlock: VETTIZ_charged_linker_0, # of connection points: 3
#     Node 30, Type 0, BuildingBlock: VETTIZ_charged_linker_0, # of connection points: 3
#     Node 31, Type 0, BuildingBlock: VETTIZ_charged_linker_0, # of connection points: 3
#     Node 32, Type 1, BuildingBlock: ESEHIV_clean_sbu_0, # of connection points: 4
#     Node 33, Type 1, BuildingBlock: ESEHIV_clean_sbu_0, # of connection points: 4
#     Node 34, Type 1, BuildingBlock: ESEHIV_clean_sbu_0, # of connection points: 4
#     Node 35, Type 1, BuildingBlock: ESEHIV_clean_sbu_0, # of connection points: 4
#     Node 36, Type 1, BuildingBlock: ESEHIV_clean_sbu_0, # of connection points: 4
#     Node 37, Type 1, BuildingBlock: ESEHIV_clean_sbu_0, # of connection points: 4
#     Node 38, Type 1, BuildingBlock: ESEHIV_clean_sbu_0, # of connection points: 4
#     Node 39, Type 1, BuildingBlock: ESEHIV_clean_sbu_0, # of connection points: 4
#     Node 40, Type 1, BuildingBlock: ESEHIV_clean_sbu_0, # of connection points: 4
#     Node 41, Type 1, BuildingBlock: ESEHIV_clean_sbu_0, # of connection points: 4
#     Node 42, Type 1, BuildingBlock: ESEHIV_clean_sbu_0, # of connection points: 4
#     Node 43, Type 1, BuildingBlock: ESEHIV_clean_sbu_0, # of connection points: 4
#     Node 44, Type 1, BuildingBlock: ESEHIV_clean_sbu_0, # of connection points: 4
#     Node 45, Type 1, BuildingBlock: ESEHIV_clean_sbu_0, # of connection points: 4
#     Node 46, Type 1, BuildingBlock: ESEHIV_clean_sbu_0, # of connection points: 4
#     Node 47, Type 1, BuildingBlock: ESEHIV_clean_sbu_0, # of connection points: 4
#     Node 48, Type 1, BuildingBlock: ESEHIV_clean_sbu_0, # of connection points: 4
#     Node 49, Type 1, BuildingBlock: ESEHIV_clean_sbu_0, # of connection points: 4
#     Node 50, Type 1, BuildingBlock: ESEHIV_clean_sbu_0, # of connection points: 4
#     Node 51, Type 1, BuildingBlock: ESEHIV_clean_sbu_0, # of connection points: 4
#     Node 52, Type 1, BuildingBlock: ESEHIV_clean_sbu_0, # of connection points: 4
#     Node 53, Type 1, BuildingBlock: ESEHIV_clean_sbu_0, # of connection points: 4
#     Node 54, Type 1, BuildingBlock: ESEHIV_clean_sbu_0, # of connection points: 4
#     Node 55, Type 1, BuildingBlock: ESEHIV_clean_sbu_0, # of connection points: 4
#     Edge 56, Type (0, 1), BuildingBlock: TEMPAE_clean_linker_10, # of connection points: 2
#     Edge 57, Type (0, 1), BuildingBlock: TEMPAE_clean_linker_10, # of connection points: 2
#     Edge 58, Type (0, 1), BuildingBlock: TEMPAE_clean_linker_10, # of connection points: 2
#     Edge 59, Type (0, 1), BuildingBlock: TEMPAE_clean_linker_10, # of connection points: 2
#     Edge 60, Type (0, 1), BuildingBlock: TEMPAE_clean_linker_10, # of connection points: 2
#     Edge 61, Type (0, 1), BuildingBlock: TEMPAE_clean_linker_10, # of connection points: 2
#     Edge 62, Type (0, 1), BuildingBlock: TEMPAE_clean_linker_10, # of connection points: 2
#     Edge 63, Type (0, 1), BuildingBlock: TEMPAE_clean_linker_10, # of connection points: 2
#     Edge 64, Type (0, 1), BuildingBlock: TEMPAE_clean_linker_10, # of connection points: 2
#     Edge 65, Type (0, 1), BuildingBlock: TEMPAE_clean_linker_10, # of connection points: 2
#     Edge 66, Type (0, 1), BuildingBlock: TEMPAE_clean_linker_10, # of connection points: 2
#     Edge 67, Type (0, 1), BuildingBlock: TEMPAE_clean_linker_10, # of connection points: 2
#     Edge 68, Type (0, 1), BuildingBlock: TEMPAE_clean_linker_10, # of connection points: 2
#     Edge 69, Type (0, 1), BuildingBlock: TEMPAE_clean_linker_10, # of connection points: 2
#     Edge 70, Type (0, 1), BuildingBlock: TEMPAE_clean_linker_10, # of connection points: 2
#     Edge 71, Type (0, 1), BuildingBlock: TEMPAE_clean_linker_10, # of connection points: 2
#     Edge 72, Type (0, 1), BuildingBlock: TEMPAE_clean_linker_10, # of connection points: 2
#     Edge 73, Type (0, 1), BuildingBlock: TEMPAE_clean_linker_10, # of connection points: 2
#     Edge 74, Type (0, 1), BuildingBlock: TEMPAE_clean_linker_10, # of connection points: 2
#     Edge 75, Type (0, 1), BuildingBlock: TEMPAE_clean_linker_10, # of connection points: 2
#     Edge 76, Type (0, 1), BuildingBlock: TEMPAE_clean_linker_10, # of connection points: 2
#     Edge 77, Type (0, 1), BuildingBlock: TEMPAE_clean_linker_10, # of connection points: 2
#     Edge 78, Type (0, 1), BuildingBlock: TEMPAE_clean_linker_10, # of connection points: 2
#     Edge 79, Type (0, 1), BuildingBlock: TEMPAE_clean_linker_10, # of connection points: 2
#     Edge 80, Type (0, 1), BuildingBlock: TEMPAE_clean_linker_10, # of connection points: 2
#     Edge 81, Type (0, 1), BuildingBlock: TEMPAE_clean_linker_10, # of connection points: 2
#     Edge 82, Type (0, 1), BuildingBlock: TEMPAE_clean_linker_10, # of connection points: 2
#     Edge 83, Type (0, 1), BuildingBlock: TEMPAE_clean_linker_10, # of connection points: 2
#     Edge 84, Type (0, 1), BuildingBlock: TEMPAE_clean_linker_10, # of connection points: 2
#     Edge 85, Type (0, 1), BuildingBlock: TEMPAE_clean_linker_10, # of connection points: 2
#     Edge 86, Type (0, 1), BuildingBlock: TEMPAE_clean_linker_10, # of connection points: 2
#     Edge 87, Type (0, 1), BuildingBlock: TEMPAE_clean_linker_10, # of connection points: 2
#     Edge 88, Type (0, 1), BuildingBlock: TEMPAE_clean_linker_10, # of connection points: 2
#     Edge 89, Type (0, 1), BuildingBlock: TEMPAE_clean_linker_10, # of connection points: 2
#     Edge 90, Type (0, 1), BuildingBlock: TEMPAE_clean_linker_10, # of connection points: 2
#     Edge 91, Type (0, 1), BuildingBlock: TEMPAE_clean_linker_10, # of connection points: 2
#     Edge 92, Type (0, 1), BuildingBlock: TEMPAE_clean_linker_10, # of connection points: 2
#     Edge 93, Type (0, 1), BuildingBlock: TEMPAE_clean_linker_10, # of connection points: 2
#     Edge 94, Type (0, 1), BuildingBlock: TEMPAE_clean_linker_10, # of connection points: 2
#     Edge 95, Type (0, 1), BuildingBlock: TEMPAE_clean_linker_10, # of connection points: 2
#     Edge 96, Type (0, 1), BuildingBlock: TEMPAE_clean_linker_10, # of connection points: 2
#     Edge 97, Type (0, 1), BuildingBlock: TEMPAE_clean_linker_10, # of connection points: 2
#     Edge 98, Type (0, 1), BuildingBlock: TEMPAE_clean_linker_10, # of connection points: 2
#     Edge 99, Type (0, 1), BuildingBlock: TEMPAE_clean_linker_10, # of connection points: 2
#     Edge 100, Type (0, 1), BuildingBlock: TEMPAE_clean_linker_10, # of connection points: 2
#     Edge 101, Type (0, 1), BuildingBlock: TEMPAE_clean_linker_10, # of connection points: 2
#     Edge 102, Type (0, 1), BuildingBlock: TEMPAE_clean_linker_10, # of connection points: 2
#     Edge 103, Type (0, 1), BuildingBlock: TEMPAE_clean_linker_10, # of connection points: 2
#     Edge 104, Type (0, 1), BuildingBlock: TEMPAE_clean_linker_10, # of connection points: 2
#     Edge 105, Type (0, 1), BuildingBlock: TEMPAE_clean_linker_10, # of connection points: 2
#     Edge 106, Type (0, 1), BuildingBlock: TEMPAE_clean_linker_10, # of connection points: 2
#     Edge 107, Type (0, 1), BuildingBlock: TEMPAE_clean_linker_10, # of connection points: 2
#     Edge 108, Type (0, 1), BuildingBlock: TEMPAE_clean_linker_10, # of connection points: 2
#     Edge 109, Type (0, 1), BuildingBlock: TEMPAE_clean_linker_10, # of connection points: 2
#     Edge 110, Type (0, 1), BuildingBlock: TEMPAE_clean_linker_10, # of connection points: 2
#     Edge 111, Type (0, 1), BuildingBlock: TEMPAE_clean_linker_10, # of connection points: 2
#     Edge 112, Type (0, 1), BuildingBlock: TEMPAE_clean_linker_10, # of connection points: 2
#     Edge 113, Type (0, 1), BuildingBlock: TEMPAE_clean_linker_10, # of connection points: 2
#     Edge 114, Type (0, 1), BuildingBlock: TEMPAE_clean_linker_10, # of connection points: 2
#     Edge 115, Type (0, 1), BuildingBlock: TEMPAE_clean_linker_10, # of connection points: 2
#     Edge 116, Type (0, 1), BuildingBlock: TEMPAE_clean_linker_10, # of connection points: 2
#     Edge 117, Type (0, 1), BuildingBlock: TEMPAE_clean_linker_10, # of connection points: 2
#     Edge 118, Type (0, 1), BuildingBlock: TEMPAE_clean_linker_10, # of connection points: 2
#     Edge 119, Type (0, 1), BuildingBlock: TEMPAE_clean_linker_10, # of connection points: 2
#     Edge 120, Type (0, 1), BuildingBlock: TEMPAE_clean_linker_10, # of connection points: 2
#     Edge 121, Type (0, 1), BuildingBlock: TEMPAE_clean_linker_10, # of connection points: 2
#     Edge 122, Type (0, 1), BuildingBlock: TEMPAE_clean_linker_10, # of connection points: 2
#     Edge 123, Type (0, 1), BuildingBlock: TEMPAE_clean_linker_10, # of connection points: 2
#     Edge 124, Type (0, 1), BuildingBlock: TEMPAE_clean_linker_10, # of connection points: 2
#     Edge 125, Type (0, 1), BuildingBlock: TEMPAE_clean_linker_10, # of connection points: 2
#     Edge 126, Type (0, 1), BuildingBlock: TEMPAE_clean_linker_10, # of connection points: 2
#     Edge 127, Type (0, 1), BuildingBlock: TEMPAE_clean_linker_10, # of connection points: 2
#     Edge 128, Type (0, 1), BuildingBlock: TEMPAE_clean_linker_10, # of connection points: 2
#     Edge 129, Type (0, 1), BuildingBlock: TEMPAE_clean_linker_10, # of connection points: 2
#     Edge 130, Type (0, 1), BuildingBlock: TEMPAE_clean_linker_10, # of connection points: 2
#     Edge 131, Type (0, 1), BuildingBlock: TEMPAE_clean_linker_10, # of connection points: 2
#     Edge 132, Type (0, 1), BuildingBlock: TEMPAE_clean_linker_10, # of connection points: 2
#     Edge 133, Type (0, 1), BuildingBlock: TEMPAE_clean_linker_10, # of connection points: 2
#     Edge 134, Type (0, 1), BuildingBlock: TEMPAE_clean_linker_10, # of connection points: 2
#     Edge 135, Type (0, 1), BuildingBlock: TEMPAE_clean_linker_10, # of connection points: 2
#     Edge 136, Type (0, 1), BuildingBlock: TEMPAE_clean_linker_10, # of connection points: 2
#     Edge 137, Type (0, 1), BuildingBlock: TEMPAE_clean_linker_10, # of connection points: 2
#     Edge 138, Type (0, 1), BuildingBlock: TEMPAE_clean_linker_10, # of connection points: 2
#     Edge 139, Type (0, 1), BuildingBlock: TEMPAE_clean_linker_10, # of connection points: 2
#     Edge 140, Type (0, 1), BuildingBlock: TEMPAE_clean_linker_10, # of connection points: 2
#     Edge 141, Type (0, 1), BuildingBlock: TEMPAE_clean_linker_10, # of connection points: 2
#     Edge 142, Type (0, 1), BuildingBlock: TEMPAE_clean_linker_10, # of connection points: 2
#     Edge 143, Type (0, 1), BuildingBlock: TEMPAE_clean_linker_10, # of connection points: 2
#     Edge 144, Type (0, 1), BuildingBlock: TEMPAE_clean_linker_10, # of connection points: 2
#     Edge 145, Type (0, 1), BuildingBlock: TEMPAE_clean_linker_10, # of connection points: 2
#     Edge 146, Type (0, 1), BuildingBlock: TEMPAE_clean_linker_10, # of connection points: 2
#     Edge 147, Type (0, 1), BuildingBlock: TEMPAE_clean_linker_10, # of connection points: 2
#     Edge 148, Type (0, 1), BuildingBlock: TEMPAE_clean_linker_10, # of connection points: 2
#     Edge 149, Type (0, 1), BuildingBlock: TEMPAE_clean_linker_10, # of connection points: 2
#     Edge 150, Type (0, 1), BuildingBlock: TEMPAE_clean_linker_10, # of connection points: 2
#     Edge 151, Type (0, 1), BuildingBlock: TEMPAE_clean_linker_10, # of connection points: 2
# Relax obj value: 0.002
# Max RMSD: 0.117
# Mean RMSD: 0.047
data_MOF--net-tbo--node1-ESEHIV_clean_sbu_0--node2-VETTIZ_charged_linker_0--edge1-TEMPAE_clean_linker_10
_symmetry_space_group_name_H-M    P1
_symmetry_Int_Tables_number       1
_symmetry_cell_setting            triclinic
loop_
_symmetry_equiv_pos_as_xyz
'x, y, z'
_cell_length_a     91.368225
_cell_length_b     91.305164
_cell_length_c     91.336761
_cell_angle_alpha  90.044723
_cell_angle_beta   91.901973
_cell_angle_gamma 90.567167
loop_
_atom_site_label
_atom_site_type_symbol
_atom_site_fract_x
_atom_site_fract_y
_atom_site_fract_z
_atom_type_partial_charge
C0 C 0.18946 0.20587 0.13697 0.0
C1 C 0.2021 0.20284 0.1292 0.0
C2 C 0.21066 0.19066 0.13328 0.0
C3 C 0.19381 0.18455 0.15238 0.0
C4 C 0.18562 0.1967 0.14857 0.0
C5 C 0.1729 0.19875 0.15838 0.0
H6 H 0.13404 0.17538 0.21596 0.0
C7 C 0.18677 0.17725 0.16482 0.0
C8 C 0.17456 0.18562 0.16846 0.0
H9 H 0.12709 0.21434 0.18988 0.0
H10 H 0.1473 0.2079 0.17481 0.0
H11 H 0.13897 0.15435 0.1899 0.0
H12 H 0.16931 0.17804 0.21817 0.0
H13 H 0.1762 0.16027 0.21618 0.0
H14 H 0.15856 0.1627 0.22405 0.0
H15 H 0.14422 0.14769 0.20776 0.0
H16 H 0.15438 0.14312 0.19177 0.0
C17 C 0.15859 0.19785 0.14884 0.0
C18 C 0.17518 0.21343 0.16674 0.0
C19 C 0.20686 0.12919 0.18542 0.0
C20 C 0.20193 0.11972 0.19642 0.0
C21 C 0.18937 0.12349 0.20408 0.0
C22 C 0.18178 0.13636 0.20088 0.0
C23 C 0.18674 0.14569 0.18986 0.0
C24 C 0.19901 0.14204 0.18224 0.0
C25 C 0.20234 0.15326 0.17067 0.0
C26 C 0.19003 0.16414 0.17264 0.0
C27 C 0.18104 0.15965 0.184 0.0
C28 C 0.20117 0.14557 0.15555 0.0
C29 C 0.21756 0.16014 0.17443 0.0
C30 C 0.13695 0.18261 0.20709 0.0
C31 C 0.12899 0.19544 0.20419 0.0
C32 C 0.13297 0.20435 0.19231 0.0
C33 C 0.14478 0.20063 0.18363 0.0
C34 C 0.15274 0.18785 0.18682 0.0
C35 C 0.1487 0.17906 0.19833 0.0
C36 C 0.15824 0.16583 0.20007 0.0
C37 C 0.16892 0.16828 0.18791 0.0
C38 C 0.16567 0.18118 0.18017 0.0
C39 C 0.14854 0.15197 0.19736 0.0
C40 C 0.16597 0.16658 0.21543 0.0
H41 H 0.21346 0.17231 0.14729 0.0
H42 H 0.18284 0.21532 0.13423 0.0
H43 H 0.18703 0.21574 0.16897 0.0
H44 H 0.17034 0.21334 0.17765 0.0
H45 H 0.17065 0.22274 0.16029 0.0
H46 H 0.15931 0.1891 0.14041 0.0
H47 H 0.1565 0.20835 0.14304 0.0
H48 H 0.14891 0.19493 0.15517 0.0
H49 H 0.21647 0.12658 0.17934 0.0
H50 H 0.1855 0.11654 0.21279 0.0
H51 H 0.17237 0.13856 0.2072 0.0
H52 H 0.19165 0.13787 0.15501 0.0
H53 H 0.21117 0.13916 0.15352 0.0
H54 H 0.19928 0.15325 0.14638 0.0
H55 H 0.2195 0.16097 0.18649 0.0
H56 H 0.21865 0.17149 0.1704 0.0
H57 H 0.22647 0.15342 0.17 0.0
H58 H 0.22044 0.18814 0.12741 0.0
C59 C 0.20655 0.18146 0.14477 0.0
C60 C 0.8385 0.1434 0.20553 0.0
C61 C 0.82563 0.13603 0.20077 0.0
C62 C 0.81745 0.14165 0.18871 0.0
C63 C 0.83513 0.16147 0.18618 0.0
C64 C 0.84294 0.1561 0.19821 0.0
C65 C 0.85601 0.16555 0.20232 0.0
H66 H 0.8987 0.22479 0.18886 0.0
C67 C 0.84282 0.1748 0.18103 0.0
C68 C 0.855 0.17728 0.19057 0.0
H69 H 0.90298 0.19387 0.22454 0.0
H70 H 0.88171 0.18059 0.21529 0.0
H71 H 0.86383 0.22778 0.18987 0.0
H72 H 0.89171 0.20113 0.16411 0.0
H73 H 0.87698 0.20612 0.15243 0.0
H74 H 0.8889 0.22017 0.16025 0.0
H75 H 0.87457 0.23503 0.17541 0.0
H76 H 0.85637 0.22776 0.1719 0.0
C77 C 0.8538 0.1719 0.21784 0.0
C78 C 0.86994 0.15618 0.20098 0.0
C79 C 0.82475 0.2015 0.13484 0.0
C80 C 0.83027 0.21367 0.12722 0.0
C81 C 0.84298 0.22086 0.13282 0.0
C82 C 0.85014 0.21602 0.14567 0.0
C83 C 0.84461 0.20381 0.15311 0.0
C84 C 0.83214 0.19672 0.14768 0.0
C85 C 0.82808 0.18377 0.15703 0.0
C86 C 0.84019 0.1843 0.16888 0.0
C87 C 0.84978 0.19613 0.16651 0.0
C88 C 0.81284 0.18661 0.16334 0.0
C89 C 0.82882 0.16978 0.14752 0.0
C90 C 0.89508 0.21513 0.19463 0.0
C91 C 0.9025 0.21046 0.20751 0.0
C92 C 0.89734 0.19786 0.21474 0.0
C93 C 0.88501 0.1901 0.2093 0.0
C94 C 0.87767 0.19494 0.19647 0.0
C95 C 0.88272 0.20727 0.18938 0.0
C96 C 0.87346 0.21086 0.17597 0.0
C97 C 0.86194 0.19875 0.17628 0.0
C98 C 0.8645 0.18942 0.18826 0.0
C99 C 0.86673 0.22619 0.17824 0.0
C100 C 0.88319 0.20964 0.16243 0.0
H101 H 0.81552 0.15795 0.1722 0.0
H102 H 0.84485 0.13949 0.21494 0.0
H103 H 0.86906 0.14908 0.19108 0.0
H104 H 0.87997 0.16281 0.19966 0.0
H105 H 0.87153 0.14893 0.21066 0.0
H106 H 0.84198 0.17327 0.21999 0.0
H107 H 0.85847 0.16457 0.22646 0.0
H108 H 0.85858 0.183 0.21928 0.0
H109 H 0.81505 0.19569 0.13077 0.0
H110 H 0.84733 0.23038 0.12732 0.0
H111 H 0.85973 0.22202 0.14931 0.0
H112 H 0.81145 0.19844 0.16581 0.0
H113 H 0.80392 0.18329 0.15542 0.0
H114 H 0.81125 0.18097 0.17386 0.0
H115 H 0.83857 0.17018 0.14055 0.0
H116 H 0.83002 0.15969 0.15405 0.0
H117 H 0.81895 0.16867 0.14016 0.0
H118 H 0.8075 0.13614 0.18485 0.0
C119 C 0.82216 0.15427 0.18136 0.0
C120 C 0.87931 0.84508 0.1966 0.0
C121 C 0.88678 0.83215 0.19324 0.0
C122 C 0.88212 0.82401 0.18078 0.0
C123 C 0.86289 0.84156 0.17534 0.0
C124 C 0.86741 0.8495 0.1876 0.0
C125 C 0.85802 0.86272 0.18987 0.0
H126 H 0.79957 0.90394 0.16902 0.0
C127 C 0.8501 0.84905 0.16843 0.0
C128 C 0.84714 0.86142 0.17697 0.0
H129 H 0.83008 0.91085 0.20562 0.0
H130 H 0.84356 0.88952 0.1988 0.0
H131 H 0.79705 0.86837 0.17206 0.0
H132 H 0.82426 0.89621 0.14606 0.0
H133 H 0.81889 0.88116 0.13513 0.0
H134 H 0.80515 0.89338 0.14167 0.0
H135 H 0.78993 0.87894 0.15691 0.0
H136 H 0.79738 0.86096 0.15429 0.0
C137 C 0.85049 0.86092 0.20473 0.0
C138 C 0.86785 0.87658 0.18877 0.0
C139 C 0.82649 0.82895 0.12113 0.0
C140 C 0.81447 0.83343 0.11223 0.0
C141 C 0.8065 0.84579 0.11654 0.0
C142 C 0.81043 0.85357 0.12935 0.0
C143 C 0.82251 0.84903 0.13806 0.0
C144 C 0.83027 0.83685 0.13394 0.0
C145 C 0.84267 0.83351 0.14465 0.0
C146 C 0.84127 0.84586 0.15568 0.0
C147 C 0.82942 0.85493 0.15177 0.0
C148 C 0.83967 0.81831 0.15155 0.0
C149 C 0.85719 0.8346 0.13643 0.0
C150 C 0.80911 0.90078 0.17558 0.0
C151 C 0.81377 0.90914 0.18787 0.0
C152 C 0.82636 0.90473 0.19601 0.0
C153 C 0.83414 0.89226 0.19208 0.0
C154 C 0.82938 0.884 0.17981 0.0
C155 C 0.81714 0.88836 0.17169 0.0
C156 C 0.81406 0.87847 0.15871 0.0
C157 C 0.82629 0.86735 0.16054 0.0
C158 C 0.83517 0.87062 0.17299 0.0
C159 C 0.79877 0.87132 0.16042 0.0
C160 C 0.81554 0.8877 0.14459 0.0
H161 H 0.86732 0.82198 0.16249 0.0
H162 H 0.88249 0.85149 0.20619 0.0
H163 H 0.87653 0.87498 0.18067 0.0
H164 H 0.86178 0.88628 0.18479 0.0
H165 H 0.87337 0.87922 0.19948 0.0
H166 H 0.84738 0.84928 0.2066 0.0
H167 H 0.85792 0.86441 0.21398 0.0
H168 H 0.84014 0.86699 0.20527 0.0
H169 H 0.83276 0.81942 0.11827 0.0
H170 H 0.79731 0.84962 0.10984 0.0
H171 H 0.80394 0.86289 0.13194 0.0
H172 H 0.82771 0.81622 0.15239 0.0
H173 H 0.84419 0.80938 0.14485 0.0
H174 H 0.84409 0.81742 0.16292 0.0
H175 H 0.857 0.84408 0.12878 0.0
H176 H 0.86684 0.83651 0.14379 0.0
H177 H 0.85898 0.82456 0.12988 0.0
H178 H 0.88774 0.81409 0.17787 0.0
C179 C 0.87027 0.82865 0.17182 0.0
C180 C 0.1749 0.88696 0.20319 0.0
C181 C 0.16917 0.89133 0.21665 0.0
C182 C 0.15841 0.88228 0.22294 0.0
C183 C 0.1592 0.86531 0.2025 0.0
C184 C 0.17 0.8739 0.19653 0.0
C185 C 0.17588 0.86725 0.18289 0.0
H186 H 0.17583 0.81213 0.13337 0.0
C187 C 0.15659 0.85249 0.19275 0.0
C188 C 0.1665 0.85347 0.18138 0.0
H189 H 0.2048 0.84979 0.13704 0.0
H190 H 0.19174 0.85856 0.15763 0.0
H191 H 0.17465 0.80533 0.1683 0.0
H192 H 0.14579 0.83047 0.13987 0.0
H193 H 0.13505 0.82027 0.15188 0.0
H194 H 0.14627 0.81084 0.13907 0.0
H195 H 0.16342 0.79708 0.15397 0.0
H196 H 0.15634 0.8006 0.17177 0.0
C197 C 0.19231 0.86374 0.18588 0.0
C198 C 0.17289 0.87799 0.17003 0.0
C199 C 0.11512 0.81683 0.20286 0.0
C200 C 0.10941 0.80435 0.19554 0.0
C201 C 0.11619 0.79959 0.18274 0.0
C202 C 0.12841 0.80712 0.17736 0.0
C203 C 0.13391 0.81962 0.18481 0.0
C204 C 0.12724 0.82426 0.19734 0.0
C205 C 0.13434 0.83783 0.20378 0.0
C206 C 0.14626 0.84075 0.19296 0.0
C207 C 0.14607 0.83002 0.18188 0.0
C208 C 0.14076 0.83405 0.21923 0.0
C209 C 0.12279 0.85014 0.20362 0.0
C210 C 0.17927 0.82229 0.13861 0.0
C211 C 0.1915 0.83019 0.13368 0.0
C212 C 0.19562 0.84336 0.14079 0.0
C213 C 0.18799 0.84847 0.15276 0.0
C214 C 0.17607 0.84032 0.15782 0.0
C215 C 0.17178 0.82752 0.15075 0.0
C216 C 0.15883 0.82039 0.15785 0.0
C217 C 0.15643 0.8308 0.17057 0.0
C218 C 0.16654 0.84248 0.17037 0.0
C219 C 0.16341 0.80498 0.16322 0.0
C220 C 0.14576 0.82034 0.14663 0.0
H221 H 0.14514 0.86311 0.22127 0.0
H222 H 0.18305 0.89351 0.19781 0.0
H223 H 0.16181 0.88283 0.17073 0.0
H224 H 0.17296 0.87263 0.1592 0.0
H225 H 0.18101 0.88713 0.17025 0.0
H226 H 0.19488 0.86225 0.19778 0.0
H227 H 0.1995 0.87269 0.18196 0.0
H228 H 0.19556 0.85328 0.18085 0.0
H229 H 0.11007 0.82097 0.21258 0.0
H230 H 0.11211 0.78997 0.17692 0.0
H231 H 0.1331 0.80294 0.16761 0.0
H232 H 0.144 0.82235 0.21994 0.0
H233 H 0.13265 0.836 0.2278 0.0
H234 H 0.15094 0.84026 0.22203 0.0
H235 H 0.11634 0.85009 0.19307 0.0
H236 H 0.12766 0.86121 0.20455 0.0
H237 H 0.11501 0.84861 0.21259 0.0
H238 H 0.154 0.88495 0.23345 0.0
C239 C 0.15335 0.86942 0.21591 0.0
C240 C 0.20704 0.8262 0.89558 0.0
C241 C 0.20097 0.81341 0.90175 0.0
C242 C 0.18862 0.80686 0.89463 0.0
C243 C 0.18829 0.82584 0.87603 0.0
C244 C 0.20055 0.83219 0.88277 0.0
C245 C 0.20547 0.84578 0.87481 0.0
H246 H 0.19297 0.8945 0.81943 0.0
C247 C 0.18395 0.8349 0.8632 0.0
C248 C 0.19399 0.84665 0.86239 0.0
H249 H 0.22894 0.89524 0.85132 0.0
H250 H 0.21966 0.87292 0.86233 0.0
H251 H 0.16819 0.88591 0.84139 0.0
H252 H 0.19462 0.86107 0.81259 0.0
H253 H 0.17725 0.85274 0.81165 0.0
H254 H 0.17928 0.87159 0.80604 0.0
H255 H 0.16508 0.88567 0.82189 0.0
H256 H 0.15659 0.87238 0.83361 0.0
C257 C 0.20466 0.85896 0.88539 0.0
C258 C 0.22095 0.84306 0.86907 0.0
C259 C 0.13845 0.82122 0.83207 0.0
C260 C 0.13145 0.82791 0.81986 0.0
C261 C 0.13755 0.84085 0.81416 0.0
C262 C 0.15031 0.84707 0.82049 0.0
C263 C 0.15712 0.84035 0.83273 0.0
C264 C 0.1512 0.82764 0.83833 0.0
C265 C 0.15989 0.82219 0.85151 0.0
C266 C 0.17204 0.83369 0.85281 0.0
C267 C 0.1703 0.84425 0.84178 0.0
C268 C 0.14983 0.82246 0.86484 0.0
C269 C 0.16591 0.80687 0.84782 0.0
C270 C 0.19879 0.88998 0.8289 0.0
C271 C 0.21159 0.89675 0.83462 0.0
C272 C 0.21903 0.89023 0.84671 0.0
C273 C 0.2136 0.8773 0.85309 0.0
C274 C 0.20067 0.87073 0.84724 0.0
C275 C 0.19361 0.8771 0.83526 0.0
C276 C 0.1803 0.86863 0.83008 0.0
C277 C 0.18037 0.85611 0.84093 0.0
C278 C 0.19224 0.85733 0.85108 0.0
C279 C 0.16678 0.8786 0.83168 0.0
C280 C 0.18283 0.86327 0.81424 0.0
H281 H 0.17289 0.80743 0.87709 0.0
H282 H 0.21645 0.83161 0.90076 0.0
H283 H 0.22194 0.83158 0.86516 0.0
H284 H 0.22347 0.84994 0.85954 0.0
H285 H 0.22948 0.84491 0.87784 0.0
H286 H 0.19439 0.85845 0.89159 0.0
H287 H 0.21403 0.85899 0.89345 0.0
H288 H 0.20444 0.86959 0.87967 0.0
H289 H 0.13395 0.81136 0.83682 0.0
H290 H 0.13249 0.84611 0.80467 0.0
H291 H 0.15434 0.85691 0.81558 0.0
H292 H 0.14238 0.83203 0.86424 0.0
H293 H 0.1429 0.81241 0.86521 0.0
H294 H 0.15593 0.82373 0.8754 0.0
H295 H 0.16891 0.80627 0.83612 0.0
H296 H 0.17609 0.80425 0.85408 0.0
H297 H 0.15762 0.79816 0.84969 0.0
H298 H 0.18386 0.79689 0.89889 0.0
C299 C 0.18229 0.81297 0.88188 0.0
C300 C 0.16043 0.19386 0.83142 0.0
C301 C 0.15378 0.20622 0.83758 0.0
C302 C 0.1595 0.21181 0.85099 0.0
C303 C 0.17819 0.19315 0.85187 0.0
C304 C 0.17267 0.18757 0.83871 0.0
C305 C 0.18152 0.17472 0.83364 0.0
H306 H 0.23663 0.12662 0.84811 0.0
C307 C 0.19094 0.1843 0.85666 0.0
C308 C 0.19304 0.17344 0.84604 0.0
H309 H 0.20864 0.1289 0.80899 0.0
H310 H 0.19632 0.14971 0.81893 0.0
H311 H 0.24369 0.16013 0.84844 0.0
H312 H 0.21238 0.13464 0.872 0.0
H313 H 0.22152 0.14666 0.88443 0.0
H314 H 0.23186 0.13321 0.87488 0.0
H315 H 0.24897 0.14983 0.86444 0.0
H316 H 0.24254 0.16842 0.86568 0.0
C317 C 0.18843 0.17886 0.81895 0.0
C318 C 0.17132 0.16111 0.83272 0.0
C319 C 0.21801 0.19698 0.9046 0.0
C320 C 0.23054 0.1913 0.91182 0.0
C321 C 0.23758 0.17921 0.90564 0.0
C322 C 0.23217 0.17287 0.8925 0.0
C323 C 0.21969 0.17877 0.88533 0.0
C324 C 0.21287 0.19065 0.89141 0.0
C325 C 0.2001 0.19585 0.88208 0.0
C326 C 0.20035 0.18515 0.86935 0.0
C327 C 0.21176 0.17511 0.87136 0.0
C328 C 0.20339 0.2118 0.8772 0.0
C329 C 0.18608 0.19401 0.89104 0.0
C330 C 0.228 0.13161 0.84149 0.0
C331 C 0.22366 0.12579 0.8277 0.0
C332 C 0.21212 0.13276 0.81976 0.0
C333 C 0.20501 0.14499 0.8255 0.0
C334 C 0.20953 0.15058 0.83928 0.0
C335 C 0.221 0.14398 0.84691 0.0
C336 C 0.225 0.15182 0.86098 0.0
C337 C 0.21383 0.16401 0.86074 0.0
C338 C 0.20464 0.16321 0.84808 0.0
C339 C 0.24089 0.15782 0.85999 0.0
C340 C 0.22269 0.14108 0.87382 0.0
H341 H 0.1753 0.21021 0.86831 0.0
H342 H 0.15636 0.18937 0.82108 0.0
H343 H 0.1645 0.16042 0.84257 0.0
H344 H 0.17734 0.15072 0.83239 0.0
H345 H 0.16381 0.16168 0.82293 0.0
H346 H 0.1915 0.19068 0.81877 0.0
H347 H 0.18065 0.17676 0.80956 0.0
H348 H 0.19873 0.17302 0.81711 0.0
H349 H 0.21252 0.20643 0.90893 0.0
H350 H 0.24723 0.17464 0.91103 0.0
H351 H 0.23797 0.16365 0.88839 0.0
H352 H 0.21535 0.21366 0.87605 0.0
H353 H 0.19954 0.21985 0.88529 0.0
H354 H 0.19854 0.21441 0.86627 0.0
H355 H 0.18664 0.18393 0.89787 0.0
H356 H 0.17604 0.1926 0.88409 0.0
H357 H 0.18468 0.20346 0.89851 0.0
H358 H 0.15449 0.22115 0.85608 0.0
C359 C 0.17158 0.20537 0.85814 0.0
C360 C 0.83891 0.1407 0.82603 0.0
C361 C 0.84277 0.1327 0.81362 0.0
C362 C 0.85473 0.13764 0.80549 0.0
C363 C 0.85834 0.15842 0.82188 0.0
C364 C 0.84672 0.15345 0.82988 0.0
C365 C 0.8436 0.16332 0.84252 0.0
H366 H 0.85589 0.22652 0.87936 0.0
C367 C 0.8638 0.17226 0.82868 0.0
C368 C 0.85514 0.17518 0.84073 0.0
H369 H 0.82561 0.1912 0.88881 0.0
H370 H 0.83409 0.17755 0.86856 0.0
H371 H 0.85323 0.22519 0.84334 0.0
H372 H 0.88262 0.20459 0.87477 0.0
H373 H 0.89282 0.20912 0.85944 0.0
H374 H 0.88462 0.22351 0.86989 0.0
H375 H 0.86636 0.23522 0.85459 0.0
H376 H 0.87136 0.22713 0.83751 0.0
C377 C 0.82786 0.16927 0.84011 0.0
C378 C 0.84611 0.15453 0.85692 0.0
C379 C 0.90744 0.19916 0.80774 0.0
C380 C 0.91507 0.2121 0.81179 0.0
C381 C 0.90996 0.2204 0.82362 0.0
C382 C 0.89767 0.21587 0.8313 0.0
C383 C 0.89034 0.20282 0.82725 0.0
C384 C 0.89522 0.19473 0.8156 0.0
C385 C 0.88612 0.1811 0.81291 0.0
C386 C 0.87524 0.18216 0.82507 0.0
C387 C 0.8777 0.19496 0.83342 0.0
C388 C 0.87855 0.18232 0.79753 0.0
C389 C 0.89621 0.16766 0.81486 0.0
C390 C 0.85109 0.21584 0.87711 0.0
C391 C 0.83964 0.21026 0.88559 0.0
C392 C 0.83395 0.19617 0.88223 0.0
C393 C 0.83904 0.18809 0.87049 0.0
C394 C 0.85016 0.19393 0.86196 0.0
C395 C 0.85625 0.20743 0.86546 0.0
C396 C 0.86875 0.21125 0.85569 0.0
C397 C 0.86872 0.19802 0.84549 0.0
C398 C 0.85767 0.18804 0.84919 0.0
C399 C 0.86486 0.2255 0.84735 0.0
C400 C 0.88298 0.2123 0.86536 0.0
H401 H 0.87143 0.15367 0.80286 0.0
H402 H 0.82996 0.13712 0.83269 0.0
H403 H 0.85412 0.14557 0.85553 0.0
H404 H 0.85096 0.16132 0.86592 0.0
H405 H 0.83576 0.14944 0.86058 0.0
H406 H 0.82563 0.17186 0.82835 0.0
H407 H 0.81956 0.16107 0.84344 0.0
H408 H 0.82599 0.17962 0.84596 0.0
H409 H 0.9109 0.19257 0.79863 0.0
H410 H 0.91569 0.23027 0.82719 0.0
H411 H 0.89442 0.22264 0.84021 0.0
H412 H 0.87563 0.19387 0.79501 0.0
H413 H 0.88585 0.17849 0.78887 0.0
H414 H 0.86807 0.17622 0.79664 0.0
H415 H 0.90413 0.16935 0.82424 0.0
H416 H 0.89018 0.15751 0.81746 0.0
H417 H 0.9026 0.16579 0.80491 0.0
H418 H 0.85788 0.13176 0.7958 0.0
C419 C 0.86252 0.15043 0.80955 0.0
C420 C 0.83095 0.84005 0.87563 0.0
C421 C 0.81886 0.84778 0.8807 0.0
C422 C 0.81452 0.86069 0.87333 0.0
C423 C 0.83397 0.8578 0.85611 0.0
C424 C 0.83827 0.84521 0.86338 0.0
C425 C 0.85115 0.83813 0.8565 0.0
H426 H 0.90146 0.83772 0.80372 0.0
C427 C 0.84376 0.86 0.84368 0.0
C428 C 0.85383 0.84849 0.84385 0.0
H429 H 0.89586 0.80665 0.83886 0.0
H430 H 0.87543 0.82033 0.8474 0.0
H431 H 0.89579 0.8672 0.82341 0.0
H432 H 0.86734 0.84071 0.79536 0.0
H433 H 0.8627 0.85911 0.79242 0.0
H434 H 0.88077 0.85296 0.78812 0.0
H435 H 0.89745 0.8665 0.80388 0.0
H436 H 0.885 0.87889 0.81229 0.0
C437 C 0.8641 0.83825 0.8679 0.0
C438 C 0.84631 0.82266 0.8511 0.0
C439 C 0.83618 0.90351 0.80973 0.0
C440 C 0.84307 0.90828 0.79701 0.0
C441 C 0.85489 0.90016 0.79184 0.0
C442 C 0.85979 0.88755 0.79926 0.0
C443 C 0.85273 0.88292 0.81194 0.0
C444 C 0.84112 0.89088 0.81694 0.0
C445 C 0.83464 0.88419 0.83033 0.0
C446 C 0.84431 0.87093 0.83263 0.0
C447 C 0.85494 0.87023 0.82187 0.0
C448 C 0.83652 0.89533 0.84308 0.0
C449 C 0.81854 0.87978 0.8265 0.0
C450 C 0.89587 0.83395 0.81332 0.0
C451 C 0.90027 0.82105 0.8206 0.0
C452 C 0.89258 0.81642 0.83294 0.0
C453 C 0.88076 0.82444 0.83793 0.0
C454 C 0.87645 0.83726 0.83053 0.0
C455 C 0.88394 0.84182 0.81842 0.0
C456 C 0.8776 0.8556 0.81184 0.0
C457 C 0.86518 0.85859 0.82208 0.0
C458 C 0.86461 0.8478 0.83301 0.0
C459 C 0.88954 0.86774 0.81276 0.0
C460 C 0.87186 0.85206 0.79607 0.0
H461 H 0.81809 0.87557 0.85596 0.0
H462 H 0.83472 0.8302 0.88111 0.0
H463 H 0.83461 0.82256 0.8473 0.0
H464 H 0.85233 0.81894 0.84152 0.0
H465 H 0.84754 0.81444 0.86 0.0
H466 H 0.86411 0.84842 0.87462 0.0
H467 H 0.86337 0.8288 0.8755 0.0
H468 H 0.87491 0.83823 0.86284 0.0
H469 H 0.82688 0.90932 0.81384 0.0
H470 H 0.86041 0.90363 0.7821 0.0
H471 H 0.86886 0.88187 0.7948 0.0
H472 H 0.8472 0.90123 0.84257 0.0
H473 H 0.82773 0.90365 0.84259 0.0
H474 H 0.8367 0.89009 0.85398 0.0
H475 H 0.81727 0.87611 0.8149 0.0
H476 H 0.81467 0.87038 0.83297 0.0
H477 H 0.81106 0.88914 0.82797 0.0
H478 H 0.80515 0.86678 0.87685 0.0
C479 C 0.822 0.86573 0.86111 0.0
C480 C 0.21046 0.64264 0.68461 0.0
C481 C 0.22179 0.63632 0.67681 0.0
C482 C 0.22553 0.64242 0.66325 0.0
C483 C 0.20697 0.66107 0.66565 0.0
C484 C 0.20315 0.65485 0.67879 0.0
C485 C 0.19045 0.66246 0.68544 0.0
H486 H 0.13976 0.71596 0.68263 0.0
C487 C 0.1972 0.67369 0.66276 0.0
C488 C 0.18741 0.67443 0.67425 0.0
H489 H 0.14576 0.6819 0.71512 0.0
H490 H 0.16619 0.67257 0.70222 0.0
H491 H 0.14484 0.69517 0.65437 0.0
H492 H 0.17433 0.72333 0.67954 0.0
H493 H 0.178 0.72567 0.66092 0.0
H494 H 0.16025 0.73043 0.66744 0.0
H495 H 0.14368 0.71478 0.65373 0.0
H496 H 0.15575 0.7049 0.64212 0.0
C497 C 0.17755 0.65133 0.68619 0.0
C498 C 0.19574 0.66883 0.70045 0.0
C499 C 0.20489 0.70623 0.61843 0.0
C500 C 0.19782 0.71881 0.61296 0.0
C501 C 0.18567 0.72419 0.62037 0.0
C502 C 0.18082 0.71729 0.6331 0.0
C503 C 0.18814 0.70482 0.63851 0.0
C504 C 0.19991 0.69945 0.63112 0.0
C505 C 0.20625 0.68598 0.63828 0.0
C506 C 0.19654 0.68429 0.65135 0.0
C507 C 0.18593 0.69535 0.65146 0.0
C508 C 0.20433 0.67299 0.62741 0.0
C509 C 0.22235 0.6894 0.64301 0.0
C510 C 0.14543 0.70644 0.68689 0.0
C511 C 0.14114 0.69973 0.69999 0.0
C512 C 0.14895 0.68744 0.70521 0.0
C513 C 0.16078 0.68195 0.69763 0.0
C514 C 0.16494 0.68876 0.68461 0.0
C515 C 0.15734 0.7008 0.67943 0.0
C516 C 0.16347 0.70661 0.66542 0.0
C517 C 0.17585 0.69593 0.66299 0.0
C518 C 0.17663 0.68553 0.6743 0.0
C519 C 0.15135 0.70545 0.65321 0.0
C520 C 0.16926 0.72237 0.66833 0.0
H521 H 0.22166 0.659 0.64734 0.0
H522 H 0.20718 0.63802 0.69494 0.0
H523 H 0.20713 0.67317 0.69991 0.0
H524 H 0.18921 0.67822 0.70398 0.0
H525 H 0.19567 0.66029 0.70911 0.0
H526 H 0.17787 0.64314 0.67718 0.0
H527 H 0.17792 0.64522 0.6967 0.0
H528 H 0.16672 0.65652 0.6847 0.0
H529 H 0.21407 0.70162 0.61286 0.0
H530 H 0.18005 0.73388 0.61644 0.0
H531 H 0.17159 0.72196 0.63827 0.0
H532 H 0.1943 0.67427 0.62029 0.0
H533 H 0.21381 0.67222 0.62016 0.0
H534 H 0.20276 0.66238 0.633 0.0
H535 H 0.22334 0.70056 0.64788 0.0
H536 H 0.22669 0.68193 0.65154 0.0
H537 H 0.22958 0.68901 0.63348 0.0
H538 H 0.23424 0.63771 0.65706 0.0
C539 C 0.21824 0.65479 0.65766 0.0
C540 C 0.84992 0.64963 0.69858 0.0
C541 C 0.83806 0.64066 0.69391 0.0
C542 C 0.83004 0.64456 0.68103 0.0
C543 C 0.84549 0.66611 0.67802 0.0
C544 C 0.85339 0.6622 0.69057 0.0
C545 C 0.86564 0.67281 0.69423 0.0
H546 H 0.90348 0.73456 0.67854 0.0
C547 C 0.8519 0.67994 0.67244 0.0
C548 C 0.86369 0.68389 0.68197 0.0
H549 H 0.91172 0.70365 0.71368 0.0
H550 H 0.89076 0.68935 0.70571 0.0
H551 H 0.86923 0.73562 0.68125 0.0
H552 H 0.89617 0.70978 0.65366 0.0
H553 H 0.8814 0.71631 0.64278 0.0
H554 H 0.89393 0.72919 0.65155 0.0
H555 H 0.87696 0.74302 0.66501 0.0
H556 H 0.85943 0.73367 0.66451 0.0
C557 C 0.86279 0.67964 0.70941 0.0
C558 C 0.88032 0.66452 0.69337 0.0
C559 C 0.83068 0.70427 0.62624 0.0
C560 C 0.83395 0.71757 0.61919 0.0
C561 C 0.84531 0.72656 0.62501 0.0
C562 C 0.85342 0.72237 0.63757 0.0
C563 C 0.85007 0.70907 0.64452 0.0
C564 C 0.83877 0.70033 0.63895 0.0
C565 C 0.83634 0.68696 0.6483 0.0
C566 C 0.84823 0.68901 0.6602 0.0
C567 C 0.8563 0.70194 0.65782 0.0
C568 C 0.8208 0.6878 0.65449 0.0
C569 C 0.83893 0.6732 0.63887 0.0
C570 C 0.90079 0.72469 0.68448 0.0
C571 C 0.90926 0.72036 0.69686 0.0
C572 C 0.90526 0.70746 0.70431 0.0
C573 C 0.89312 0.69905 0.69957 0.0
C574 C 0.88483 0.70345 0.68716 0.0
C575 C 0.88868 0.71609 0.67985 0.0
C576 C 0.87864 0.71895 0.66679 0.0
C577 C 0.86825 0.70586 0.66742 0.0
C578 C 0.87193 0.69685 0.67939 0.0
C579 C 0.87067 0.7336 0.66936 0.0
C580 C 0.88792 0.71866 0.65291 0.0
H581 H 0.82713 0.65957 0.66343 0.0
H582 H 0.85652 0.64688 0.70825 0.0
H583 H 0.87958 0.65569 0.68497 0.0
H584 H 0.88945 0.67161 0.6899 0.0
H585 H 0.88339 0.65934 0.70402 0.0
H586 H 0.85088 0.68143 0.71076 0.0
H587 H 0.86668 0.67234 0.71842 0.0
H588 H 0.8679 0.69056 0.71094 0.0
H589 H 0.82183 0.69728 0.62213 0.0
H590 H 0.84801 0.73682 0.61973 0.0
H591 H 0.86196 0.72968 0.6414 0.0
H592 H 0.81796 0.69932 0.65707 0.0
H593 H 0.81241 0.68354 0.64646 0.0
H594 H 0.81981 0.68186 0.66494 0.0
H595 H 0.84859 0.67485 0.63193 0.0
H596 H 0.8414 0.66338 0.64549 0.0
H597 H 0.8293 0.67082 0.63148 0.0
H598 H 0.82078 0.63794 0.67721 0.0
C599 C 0.83368 0.65719 0.67309 0.0
C600 C 0.90418 0.34681 0.71022 0.0
C601 C 0.91239 0.33423 0.7073 0.0
C602 C 0.90809 0.32539 0.69518 0.0
C603 C 0.88782 0.3416 0.68924 0.0
C604 C 0.89204 0.35027 0.70109 0.0
C605 C 0.88228 0.36335 0.7026 0.0
H606 H 0.82337 0.4023 0.6786 0.0
C607 C 0.87473 0.34827 0.68199 0.0
C608 C 0.87146 0.36104 0.68978 0.0
H609 H 0.85332 0.41197 0.71505 0.0
H610 H 0.86712 0.39034 0.70989 0.0
H611 H 0.82105 0.36737 0.68466 0.0
H612 H 0.84793 0.39315 0.65647 0.0
H613 H 0.84281 0.37724 0.64671 0.0
H614 H 0.82886 0.38972 0.65234 0.0
H615 H 0.81389 0.37612 0.66839 0.0
H616 H 0.82173 0.35808 0.66784 0.0
C617 C 0.87475 0.36218 0.71751 0.0
C618 C 0.89172 0.37738 0.70074 0.0
C619 C 0.85026 0.32399 0.63705 0.0
C620 C 0.83789 0.32756 0.62817 0.0
C621 C 0.83003 0.34031 0.63148 0.0
C622 C 0.83432 0.34926 0.64337 0.0
C623 C 0.84664 0.34553 0.65215 0.0
C624 C 0.8544 0.33308 0.64893 0.0
C625 C 0.86718 0.33084 0.65953 0.0
C626 C 0.86583 0.34402 0.66958 0.0
C627 C 0.85376 0.35258 0.66518 0.0
C628 C 0.86471 0.31623 0.66772 0.0
C629 C 0.88143 0.33149 0.65081 0.0
C630 C 0.83286 0.39969 0.6855 0.0
C631 C 0.83728 0.40893 0.69721 0.0
C632 C 0.84979 0.40519 0.70583 0.0
C633 C 0.85776 0.39255 0.70287 0.0
C634 C 0.85325 0.38345 0.69113 0.0
C635 C 0.84102 0.38711 0.68263 0.0
C636 C 0.83804 0.37626 0.67045 0.0
C637 C 0.85044 0.36549 0.67308 0.0
C638 C 0.85928 0.36972 0.68526 0.0
C639 C 0.82286 0.36909 0.67279 0.0
C640 C 0.83935 0.38442 0.65567 0.0
H641 H 0.8932 0.32179 0.67718 0.0
H642 H 0.90725 0.35395 0.7193 0.0
H643 H 0.90059 0.37552 0.69291 0.0
H644 H 0.88543 0.38661 0.69602 0.0
H645 H 0.89697 0.38087 0.71134 0.0
H646 H 0.87174 0.35061 0.7199 0.0
H647 H 0.88215 0.36614 0.7266 0.0
H648 H 0.86436 0.36822 0.71776 0.0
H649 H 0.85648 0.31422 0.63493 0.0
H650 H 0.82061 0.34347 0.62475 0.0
H651 H 0.82786 0.35879 0.64524 0.0
H652 H 0.85292 0.31458 0.66998 0.0
H653 H 0.86825 0.30676 0.66112 0.0
H654 H 0.87037 0.31589 0.67858 0.0
H655 H 0.88059 0.33984 0.64197 0.0
H656 H 0.89111 0.33485 0.6576 0.0
H657 H 0.88361 0.32077 0.6456 0.0
H658 H 0.91407 0.31555 0.69275 0.0
C659 C 0.89589 0.32899 0.68618 0.0
C660 C 0.20304 0.41159 0.70477 0.0
C661 C 0.19752 0.417 0.71787 0.0
C662 C 0.18595 0.40934 0.72439 0.0
C663 C 0.18555 0.39135 0.70469 0.0
C664 C 0.19702 0.39883 0.69847 0.0
C665 C 0.20214 0.3915 0.68487 0.0
H666 H 0.19697 0.33575 0.6362 0.0
C667 C 0.18202 0.37838 0.69535 0.0
C668 C 0.1918 0.37842 0.68379 0.0
H669 H 0.22727 0.37248 0.63707 0.0
H670 H 0.21625 0.38188 0.65864 0.0
H671 H 0.19829 0.3296 0.67073 0.0
H672 H 0.16849 0.35491 0.6437 0.0
H673 H 0.15803 0.34556 0.65655 0.0
H674 H 0.1683 0.33526 0.64359 0.0
H675 H 0.18499 0.32127 0.65835 0.0
H676 H 0.18053 0.32618 0.6768 0.0
C677 C 0.21827 0.38681 0.68768 0.0
C678 C 0.19973 0.40221 0.67186 0.0
C679 C 0.1399 0.34391 0.7076 0.0
C680 C 0.13427 0.33098 0.70102 0.0
C681 C 0.14086 0.32564 0.68836 0.0
C682 C 0.15279 0.33301 0.68236 0.0
C683 C 0.1583 0.34589 0.68907 0.0
C684 C 0.15188 0.35113 0.7015 0.0
C685 C 0.15942 0.36482 0.7073 0.0
C686 C 0.17124 0.36705 0.69617 0.0
C687 C 0.17052 0.3559 0.68551 0.0
C688 C 0.166 0.3615 0.72277 0.0
C689 C 0.14819 0.37739 0.70688 0.0
C690 C 0.20115 0.34588 0.64098 0.0
C691 C 0.21312 0.35331 0.63493 0.0
C692 C 0.21826 0.36639 0.64161 0.0
C693 C 0.21177 0.37189 0.65412 0.0
C694 C 0.19995 0.3643 0.66013 0.0
C695 C 0.19477 0.35156 0.65353 0.0
C696 C 0.18205 0.34504 0.66145 0.0
C697 C 0.18057 0.3559 0.67394 0.0
C698 C 0.19109 0.36713 0.67308 0.0
C699 C 0.18655 0.32967 0.66709 0.0
C700 C 0.16847 0.34504 0.65083 0.0
H701 H 0.17105 0.39129 0.72327 0.0
H702 H 0.21214 0.41702 0.69964 0.0
H703 H 0.18959 0.40866 0.67314 0.0
H704 H 0.19811 0.39656 0.66122 0.0
H705 H 0.20902 0.41009 0.67115 0.0
H706 H 0.22034 0.38383 0.69937 0.0
H707 H 0.226 0.39582 0.68503 0.0
H708 H 0.22116 0.3769 0.68152 0.0
H709 H 0.13525 0.34818 0.71747 0.0
H710 H 0.13669 0.31579 0.68301 0.0
H711 H 0.15728 0.32837 0.67271 0.0
H712 H 0.16994 0.35002 0.72348 0.0
H713 H 0.15772 0.36293 0.73128 0.0
H714 H 0.17573 0.36832 0.72562 0.0
H715 H 0.14147 0.37704 0.69649 0.0
H716 H 0.15337 0.38835 0.70719 0.0
H717 H 0.14061 0.37646 0.7161 0.0
H718 H 0.18152 0.41328 0.7345 0.0
C719 C 0.17988 0.3966 0.71784 0.0
C720 C 0.19485 0.32839 0.40615 0.0
C721 C 0.18858 0.31564 0.41202 0.0
C722 C 0.1764 0.30912 0.4046 0.0
C723 C 0.17697 0.32802 0.38588 0.0
C724 C 0.18897 0.3343 0.39313 0.0
C725 C 0.19468 0.34755 0.38531 0.0
H726 H 0.19146 0.39313 0.32688 0.0
C727 C 0.17378 0.33678 0.37251 0.0
C728 C 0.1842 0.34817 0.37208 0.0
H729 H 0.22082 0.39537 0.36489 0.0
H730 H 0.2092 0.37401 0.37509 0.0
H731 H 0.16279 0.38683 0.3454 0.0
H732 H 0.19126 0.3576 0.32295 0.0
H733 H 0.17307 0.3519 0.31921 0.0
H734 H 0.17899 0.36981 0.31339 0.0
H735 H 0.16272 0.38555 0.32578 0.0
H736 H 0.15173 0.37344 0.3366 0.0
C737 C 0.19315 0.36104 0.39546 0.0
C738 C 0.21057 0.34439 0.38088 0.0
C739 C 0.13005 0.3236 0.33906 0.0
C740 C 0.12455 0.32935 0.32572 0.0
C741 C 0.13212 0.34104 0.31919 0.0
C742 C 0.1448 0.34709 0.32601 0.0
C743 C 0.15004 0.34134 0.33946 0.0
C744 C 0.14277 0.32967 0.34566 0.0
C745 C 0.1502 0.32458 0.35967 0.0
C746 C 0.16285 0.33544 0.36114 0.0
C747 C 0.16269 0.34527 0.34929 0.0
C748 C 0.13933 0.32625 0.3722 0.0
C749 C 0.15556 0.30871 0.35736 0.0
C750 C 0.19541 0.38889 0.33734 0.0
C751 C 0.20711 0.39583 0.34508 0.0
C752 C 0.2118 0.39021 0.35878 0.0
C753 C 0.20505 0.37779 0.36466 0.0
C754 C 0.19336 0.37095 0.35683 0.0
C755 C 0.18862 0.3766 0.34348 0.0
C756 C 0.17553 0.36833 0.33714 0.0
C757 C 0.17339 0.35666 0.34876 0.0
C758 C 0.18396 0.35819 0.36019 0.0
C759 C 0.16247 0.37902 0.33603 0.0
C760 C 0.17979 0.36159 0.32234 0.0
H761 H 0.16121 0.30984 0.38651 0.0
H762 H 0.20438 0.33352 0.41142 0.0
H763 H 0.21158 0.33286 0.37712 0.0
H764 H 0.21413 0.35113 0.37161 0.0
H765 H 0.21842 0.34605 0.3903 0.0
H766 H 0.18365 0.35973 0.40268 0.0
H767 H 0.20309 0.36264 0.40264 0.0
H768 H 0.19092 0.37125 0.38933 0.0
H769 H 0.12466 0.31439 0.34417 0.0
H770 H 0.12811 0.34563 0.30891 0.0
H771 H 0.15002 0.35603 0.32054 0.0
H772 H 0.13337 0.33679 0.37115 0.0
H773 H 0.13105 0.31725 0.3719 0.0
H774 H 0.14476 0.32654 0.38316 0.0
H775 H 0.15833 0.30679 0.34575 0.0
H776 H 0.16578 0.30633 0.36369 0.0
H777 H 0.14702 0.30056 0.36022 0.0
H778 H 0.17135 0.29932 0.40892 0.0
C779 C 0.17053 0.31527 0.39161 0.0
C780 C 0.19621 0.62215 0.3199 0.0
C781 C 0.18974 0.61623 0.30698 0.0
C782 C 0.17772 0.62352 0.3003 0.0
C783 C 0.17889 0.64221 0.31932 0.0
C784 C 0.19071 0.63508 0.32579 0.0
C785 C 0.19672 0.64293 0.3392 0.0
H786 H 0.19538 0.70123 0.38505 0.0
C787 C 0.17613 0.65553 0.32811 0.0
C788 C 0.18664 0.65601 0.33973 0.0
H789 H 0.22426 0.66405 0.3874 0.0
H790 H 0.21203 0.65346 0.36599 0.0
H791 H 0.16658 0.68247 0.37874 0.0
H792 H 0.1952 0.70524 0.34984 0.0
H793 H 0.17714 0.70863 0.34363 0.0
H794 H 0.18308 0.71453 0.36174 0.0
H795 H 0.16625 0.70201 0.3767 0.0
H796 H 0.15533 0.69006 0.36486 0.0
C797 C 0.19495 0.6327 0.35258 0.0
C798 C 0.21274 0.64757 0.33639 0.0
C799 C 0.13356 0.68927 0.31436 0.0
C800 C 0.12866 0.70249 0.32041 0.0
C801 C 0.13646 0.70853 0.33259 0.0
C802 C 0.14881 0.70157 0.3387 0.0
C803 C 0.15354 0.68837 0.33262 0.0
C804 C 0.14603 0.68246 0.32059 0.0
C805 C 0.15293 0.66849 0.31547 0.0
C806 C 0.16553 0.66683 0.32666 0.0
C807 C 0.1658 0.67854 0.33667 0.0
C808 C 0.14153 0.65593 0.31659 0.0
C809 C 0.15845 0.67104 0.29981 0.0
C810 C 0.19914 0.69087 0.38085 0.0
C811 C 0.21087 0.6835 0.38786 0.0
C812 C 0.21522 0.6699 0.38223 0.0
C813 C 0.20812 0.6638 0.36976 0.0
C814 C 0.19645 0.67131 0.36284 0.0
C815 C 0.19205 0.68454 0.36849 0.0
C816 C 0.17908 0.69069 0.36007 0.0
C817 C 0.17656 0.67909 0.34828 0.0
C818 C 0.18683 0.66783 0.34988 0.0
C819 C 0.1661 0.6915 0.37056 0.0
C820 C 0.18372 0.70561 0.35351 0.0
H821 H 0.16304 0.64141 0.30086 0.0
H822 H 0.20563 0.61701 0.32518 0.0
H823 H 0.21388 0.65121 0.32485 0.0
H824 H 0.21653 0.65701 0.34311 0.0
H825 H 0.22035 0.63831 0.33835 0.0
H826 H 0.18489 0.62578 0.35127 0.0
H827 H 0.20442 0.62524 0.35396 0.0
H828 H 0.19353 0.63877 0.3629 0.0
H829 H 0.12792 0.68442 0.30491 0.0
H830 H 0.13285 0.71857 0.33759 0.0
H831 H 0.15416 0.70674 0.348 0.0
H832 H 0.13556 0.6568 0.32697 0.0
H833 H 0.13331 0.65637 0.30736 0.0
H834 H 0.14652 0.64498 0.31682 0.0
H835 H 0.16237 0.68252 0.29845 0.0
H836 H 0.16797 0.66422 0.29733 0.0
H837 H 0.14958 0.669 0.29143 0.0
H838 H 0.1725 0.61918 0.29038 0.0
C839 C 0.17224 0.63642 0.30643 0.0
C840 C 0.81417 0.62815 0.32664 0.0
C841 C 0.81867 0.62113 0.31386 0.0
C842 C 0.83076 0.62695 0.3065 0.0
C843 C 0.83363 0.64633 0.32459 0.0
C844 C 0.82176 0.64065 0.33176 0.0
C845 C 0.81836 0.64932 0.34518 0.0
H846 H 0.83353 0.70578 0.39135 0.0
C847 C 0.83908 0.65936 0.33287 0.0
C848 C 0.83015 0.66116 0.34492 0.0
H849 H 0.79918 0.67294 0.39336 0.0
H850 H 0.80739 0.66181 0.37142 0.0
H851 H 0.83011 0.71095 0.35577 0.0
H852 H 0.8592 0.68325 0.38136 0.0
H853 H 0.86926 0.69227 0.36789 0.0
H854 H 0.86068 0.70288 0.3818 0.0
H855 H 0.84474 0.71832 0.36725 0.0
H856 H 0.84779 0.71233 0.3488 0.0
C857 C 0.80279 0.65574 0.34292 0.0
C858 C 0.82031 0.63912 0.35867 0.0
C859 C 0.88347 0.68756 0.31537 0.0
C860 C 0.89109 0.70009 0.32056 0.0
C861 C 0.88614 0.70717 0.3332 0.0
C862 C 0.87393 0.70182 0.34058 0.0
C863 C 0.86649 0.68924 0.33529 0.0
C864 C 0.87127 0.68239 0.32283 0.0
C865 C 0.86197 0.66927 0.31863 0.0
C866 C 0.85089 0.66928 0.33065 0.0
C867 C 0.85357 0.68097 0.34046 0.0
C868 C 0.85469 0.67218 0.30335 0.0
C869 C 0.8718 0.65554 0.31937 0.0
C870 C 0.82779 0.69622 0.387 0.0
C871 C 0.81578 0.69013 0.39429 0.0
C872 C 0.80864 0.67767 0.38823 0.0
C873 C 0.81338 0.67125 0.37536 0.0
C874 C 0.82543 0.67728 0.36829 0.0
C875 C 0.83246 0.68957 0.37405 0.0
C876 C 0.84512 0.6943 0.36485 0.0
C877 C 0.84447 0.6828 0.35272 0.0
C878 C 0.83286 0.67291 0.35487 0.0
C879 C 0.84193 0.70983 0.35888 0.0
C880 C 0.85937 0.69325 0.37441 0.0
H881 H 0.84737 0.64329 0.3057 0.0
H882 H 0.80485 0.62408 0.33249 0.0
H883 H 0.82917 0.63106 0.35703 0.0
H884 H 0.82375 0.64505 0.36877 0.0
H885 H 0.8101 0.63283 0.36067 0.0
H886 H 0.80045 0.6584 0.33119 0.0
H887 H 0.79427 0.64783 0.34638 0.0
H888 H 0.80139 0.66622 0.34875 0.0
H889 H 0.88683 0.68195 0.3056 0.0
H890 H 0.89186 0.71674 0.33755 0.0
H891 H 0.87078 0.70766 0.35016 0.0
H892 H 0.85201 0.68398 0.302 0.0
H893 H 0.86208 0.66915 0.29445 0.0
H894 H 0.84411 0.66637 0.30166 0.0
H895 H 0.87988 0.65633 0.32873 0.0
H896 H 0.86561 0.64532 0.32129 0.0
H897 H 0.87803 0.65434 0.3092 0.0
H898 H 0.83461 0.62166 0.29675 0.0
C899 C 0.83823 0.63948 0.31178 0.0
C900 C 0.82637 0.32654 0.39704 0.0
C901 C 0.81359 0.33301 0.40211 0.0
C902 C 0.80786 0.3453 0.39461 0.0
C903 C 0.82737 0.34416 0.37715 0.0
C904 C 0.83303 0.33225 0.38467 0.0
C905 C 0.84675 0.32661 0.37812 0.0
H906 H 0.89632 0.3294 0.3248 0.0
C907 C 0.83699 0.34724 0.36472 0.0
C908 C 0.84838 0.33698 0.36531 0.0
H909 H 0.89542 0.30039 0.36212 0.0
H910 H 0.87372 0.3122 0.37048 0.0
H911 H 0.88993 0.35786 0.34252 0.0
H912 H 0.86072 0.32945 0.31753 0.0
H913 H 0.85644 0.34771 0.31306 0.0
H914 H 0.87439 0.34087 0.30947 0.0
H915 H 0.88832 0.35894 0.32293 0.0
H916 H 0.87646 0.36914 0.33455 0.0
C917 C 0.85951 0.32836 0.38965 0.0
C918 C 0.84376 0.31064 0.37299 0.0
C919 C 0.82523 0.38879 0.32901 0.0
C920 C 0.83243 0.39431 0.31675 0.0
C921 C 0.84539 0.38753 0.31243 0.0
C922 C 0.85109 0.37547 0.32011 0.0
C923 C 0.84383 0.37011 0.33236 0.0
C924 C 0.83117 0.37678 0.33669 0.0
C925 C 0.82525 0.36981 0.35027 0.0
C926 C 0.8364 0.35784 0.35329 0.0
C927 C 0.84721 0.35802 0.34268 0.0
C928 C 0.82547 0.38147 0.36261 0.0
C929 C 0.80986 0.36342 0.34635 0.0
C930 C 0.89133 0.32556 0.3347 0.0
C931 C 0.89751 0.3139 0.34278 0.0
C932 C 0.89089 0.30939 0.35577 0.0
C933 C 0.87826 0.31624 0.36057 0.0
C934 C 0.87216 0.32784 0.35237 0.0
C935 C 0.87878 0.33242 0.33976 0.0
C936 C 0.87111 0.34535 0.33286 0.0
C937 C 0.85866 0.34757 0.34326 0.0
C938 C 0.85928 0.33719 0.35458 0.0
C939 C 0.88195 0.35854 0.33308 0.0
C940 C 0.8654 0.34075 0.31736 0.0
H941 H 0.80971 0.36017 0.37685 0.0
H942 H 0.83124 0.31728 0.40271 0.0
H943 H 0.83252 0.30949 0.36803 0.0
H944 H 0.8511 0.30706 0.36436 0.0
H945 H 0.84468 0.30289 0.38233 0.0
H946 H 0.85772 0.33784 0.39703 0.0
H947 H 0.8606 0.31844 0.39663 0.0
H948 H 0.87012 0.33076 0.38466 0.0
H949 H 0.81534 0.39386 0.3327 0.0
H950 H 0.85105 0.39148 0.30295 0.0
H951 H 0.86095 0.3708 0.3162 0.0
H952 H 0.83523 0.38878 0.3619 0.0
H953 H 0.81558 0.38843 0.36181 0.0
H954 H 0.82635 0.37663 0.37367 0.0
H955 H 0.8097 0.35814 0.33537 0.0
H956 H 0.80644 0.35476 0.35396 0.0
H957 H 0.80149 0.37217 0.34608 0.0
H958 H 0.79801 0.35048 0.39828 0.0
C959 C 0.81464 0.35087 0.38214 0.0
C960 C 0.69827 0.21019 0.62564 0.0
C961 C 0.71032 0.20657 0.61716 0.0
C962 C 0.71835 0.19388 0.62077 0.0
C963 C 0.70246 0.18867 0.64085 0.0
C964 C 0.69458 0.20113 0.63743 0.0
C965 C 0.6822 0.20335 0.6477 0.0
H966 H 0.64283 0.17832 0.70453 0.0
C967 C 0.6957 0.18147 0.65349 0.0
C968 C 0.68379 0.19 0.65758 0.0
H969 H 0.63687 0.21863 0.68042 0.0
H970 H 0.65742 0.21281 0.66548 0.0
H971 H 0.64949 0.15781 0.67688 0.0
H972 H 0.67744 0.18132 0.7078 0.0
H973 H 0.68578 0.16442 0.70471 0.0
H974 H 0.66793 0.1648 0.71255 0.0
H975 H 0.65223 0.15201 0.69554 0.0
H976 H 0.66431 0.14637 0.6814 0.0
C977 C 0.66763 0.20298 0.63856 0.0
C978 C 0.68508 0.21782 0.65622 0.0
C979 C 0.71699 0.13393 0.67376 0.0
C980 C 0.71277 0.12447 0.68506 0.0
C981 C 0.70023 0.12787 0.69295 0.0
C982 C 0.69208 0.14045 0.68973 0.0
C983 C 0.69646 0.14984 0.67848 0.0
C984 C 0.70866 0.14646 0.67063 0.0
C985 C 0.71146 0.15759 0.65887 0.0
C986 C 0.69909 0.1683 0.66114 0.0
C987 C 0.69038 0.16371 0.67267 0.0
C988 C 0.70995 0.14975 0.64382 0.0
C989 C 0.72667 0.16472 0.66218 0.0
C990 C 0.64588 0.18582 0.69593 0.0
C991 C 0.63817 0.1989 0.69358 0.0
C992 C 0.64268 0.20852 0.68248 0.0
C993 C 0.65458 0.20509 0.67379 0.0
C994 C 0.66218 0.19195 0.67628 0.0
C995 C 0.65784 0.18264 0.68729 0.0
C996 C 0.6675 0.16946 0.68881 0.0
C997 C 0.6783 0.1723 0.67683 0.0
C998 C 0.67509 0.18544 0.66942 0.0
C999 C 0.65798 0.15561 0.68561 0.0
C1000 C 0.67503 0.16985 0.70427 0.0
H1001 H 0.72106 0.17546 0.63459 0.0
H1002 H 0.69193 0.21991 0.62324 0.0
H1003 H 0.69703 0.2198 0.65816 0.0
H1004 H 0.68053 0.21767 0.66727 0.0
H1005 H 0.68062 0.22735 0.65004 0.0
H1006 H 0.66774 0.19407 0.63023 0.0
H1007 H 0.66587 0.21348 0.63267 0.0
H1008 H 0.65801 0.20065 0.64519 0.0
H1009 H 0.7265 0.13158 0.66741 0.0
H1010 H 0.69684 0.12092 0.70185 0.0
H1011 H 0.68272 0.14241 0.69621 0.0
H1012 H 0.70166 0.14075 0.64405 0.0
H1013 H 0.72049 0.14486 0.64072 0.0
H1014 H 0.70598 0.15704 0.63493 0.0
H1015 H 0.72858 0.16629 0.67418 0.0
H1016 H 0.72777 0.17578 0.65744 0.0
H1017 H 0.7356 0.15773 0.6582 0.0
H1018 H 0.72752 0.19066 0.6143 0.0
C1019 C 0.71451 0.18496 0.63252 0.0
C1020 C 0.34045 0.14241 0.70196 0.0
C1021 C 0.32631 0.13703 0.69786 0.0
C1022 C 0.31755 0.14548 0.68812 0.0
C1023 C 0.3372 0.16311 0.68548 0.0
C1024 C 0.34557 0.15557 0.69576 0.0
C1025 C 0.35997 0.16338 0.69918 0.0
H1026 H 0.40547 0.22131 0.68595 0.0
C1027 C 0.34573 0.17589 0.68054 0.0
C1028 C 0.35905 0.17635 0.68867 0.0
H1029 H 0.4115 0.18734 0.71846 0.0
H1030 H 0.38893 0.17558 0.71003 0.0
H1031 H 0.37048 0.22578 0.68981 0.0
H1032 H 0.39529 0.19976 0.66033 0.0
H1033 H 0.37971 0.20565 0.65034 0.0
H1034 H 0.39278 0.21902 0.65753 0.0
H1035 H 0.38181 0.23345 0.67601 0.0
H1036 H 0.36313 0.22807 0.67188 0.0
C1037 C 0.36008 0.16833 0.71539 0.0
C1038 C 0.37259 0.15299 0.69549 0.0
C1039 C 0.32584 0.2056 0.63745 0.0
C1040 C 0.33149 0.21738 0.62946 0.0
C1041 C 0.34524 0.22341 0.63384 0.0
C1042 C 0.35321 0.21776 0.64593 0.0
C1043 C 0.34745 0.20588 0.65374 0.0
C1044 C 0.33399 0.20001 0.64941 0.0
C1045 C 0.32965 0.18725 0.65874 0.0
C1046 C 0.34285 0.18624 0.66925 0.0
C1047 C 0.35319 0.19724 0.66637 0.0
C1048 C 0.31551 0.19132 0.66673 0.0
C1049 C 0.32809 0.17361 0.64866 0.0
C1050 C 0.40187 0.21142 0.69135 0.0
C1051 C 0.41028 0.20535 0.70297 0.0
C1052 C 0.40531 0.19224 0.70944 0.0
C1053 C 0.39211 0.18548 0.70463 0.0
C1054 C 0.38371 0.19184 0.69318 0.0
C1055 C 0.38874 0.20452 0.68664 0.0
C1056 C 0.37865 0.20953 0.67434 0.0
C1057 C 0.36642 0.19818 0.67498 0.0
C1058 C 0.3694 0.18778 0.68603 0.0
C1059 C 0.37323 0.22507 0.67806 0.0
C1060 C 0.38697 0.20858 0.65984 0.0
H1061 H 0.3157 0.16395 0.67438 0.0
H1062 H 0.34748 0.13647 0.70959 0.0
H1063 H 0.37021 0.14736 0.68486 0.0
H1064 H 0.38311 0.1588 0.69422 0.0
H1065 H 0.37407 0.14445 0.70405 0.0
H1066 H 0.34894 0.17164 0.7186 0.0
H1067 H 0.36368 0.15933 0.72281 0.0
H1068 H 0.36706 0.17807 0.71756 0.0
H1069 H 0.31539 0.20063 0.63431 0.0
H1070 H 0.34977 0.23262 0.62798 0.0
H1071 H 0.36355 0.22287 0.64874 0.0
H1072 H 0.31424 0.2034 0.66764 0.0
H1073 H 0.30558 0.18696 0.66082 0.0
H1074 H 0.31564 0.18739 0.6782 0.0
H1075 H 0.3372 0.17326 0.64088 0.0
H1076 H 0.32865 0.16314 0.65465 0.0
H1077 H 0.31764 0.17385 0.6421 0.0
H1078 H 0.30639 0.14222 0.68526 0.0
C1079 C 0.32292 0.15831 0.68187 0.0
C1080 C 0.39499 0.8386 0.69676 0.0
C1081 C 0.40144 0.82707 0.68908 0.0
C1082 C 0.39508 0.82256 0.67554 0.0
C1083 C 0.37609 0.84068 0.67755 0.0
C1084 C 0.38238 0.84528 0.69074 0.0
C1085 C 0.37415 0.85784 0.69721 0.0
H1086 H 0.31824 0.90614 0.69206 0.0
C1087 C 0.36292 0.84957 0.67448 0.0
C1088 C 0.36169 0.8597 0.68588 0.0
H1089 H 0.35269 0.90305 0.72558 0.0
H1090 H 0.36256 0.88224 0.71345 0.0
H1091 H 0.31225 0.87026 0.69059 0.0
H1092 H 0.33837 0.89842 0.66339 0.0
H1093 H 0.32646 0.8871 0.65258 0.0
H1094 H 0.31888 0.90038 0.66462 0.0
H1095 H 0.30395 0.8831 0.67803 0.0
H1096 H 0.30959 0.86523 0.67209 0.0
C1097 C 0.36846 0.85287 0.71222 0.0
C1098 C 0.38452 0.87138 0.69792 0.0
C1099 C 0.33217 0.83813 0.62887 0.0
C1100 C 0.31868 0.84307 0.6232 0.0
C1101 C 0.3113 0.85408 0.6308 0.0
C1102 C 0.31752 0.86025 0.64378 0.0
C1103 C 0.33112 0.85512 0.64933 0.0
C1104 C 0.33803 0.8441 0.64188 0.0
C1105 C 0.35181 0.83913 0.64958 0.0
C1106 C 0.35227 0.84906 0.66285 0.0
C1107 C 0.34028 0.85862 0.66269 0.0
C1108 C 0.34974 0.82277 0.65382 0.0
C1109 C 0.36475 0.84226 0.63941 0.0
C1110 C 0.32787 0.90094 0.69681 0.0
C1111 C 0.33482 0.90655 0.70972 0.0
C1112 C 0.34732 0.89933 0.71548 0.0
C1113 C 0.35302 0.88712 0.70846 0.0
C1114 C 0.34618 0.88185 0.69549 0.0
C1115 C 0.33373 0.88861 0.68989 0.0
C1116 C 0.32784 0.88111 0.67612 0.0
C1117 C 0.33914 0.86917 0.67413 0.0
C1118 C 0.34981 0.86967 0.68561 0.0
C1119 C 0.31255 0.87463 0.67923 0.0
C1120 C 0.32778 0.8923 0.66344 0.0
H1121 H 0.37823 0.82522 0.65945 0.0
H1122 H 0.39971 0.8424 0.70713 0.0
H1123 H 0.39231 0.87125 0.68881 0.0
H1124 H 0.37866 0.88184 0.69656 0.0
H1125 H 0.3911 0.87166 0.70837 0.0
H1126 H 0.36472 0.84124 0.71175 0.0
H1127 H 0.37721 0.85377 0.72092 0.0
H1128 H 0.35883 0.85906 0.71562 0.0
H1129 H 0.33791 0.82944 0.62344 0.0
H1130 H 0.30081 0.85797 0.62662 0.0
H1131 H 0.31152 0.86869 0.64905 0.0
H1132 H 0.33804 0.82011 0.65571 0.0
H1133 H 0.35342 0.81539 0.64503 0.0
H1134 H 0.35548 0.81988 0.66425 0.0
H1135 H 0.36289 0.85247 0.63299 0.0
H1136 H 0.37525 0.84419 0.64549 0.0
H1137 H 0.36609 0.83318 0.63148 0.0
H1138 H 0.39971 0.81359 0.66951 0.0
C1139 C 0.3825 0.82928 0.66976 0.0
C1140 C 0.69414 0.88717 0.69236 0.0
C1141 C 0.69028 0.89461 0.70518 0.0
C1142 C 0.67837 0.88932 0.71313 0.0
C1143 C 0.67447 0.86951 0.69576 0.0
C1144 C 0.68611 0.87464 0.68789 0.0
C1145 C 0.68872 0.86521 0.67467 0.0
H1146 H 0.66862 0.80638 0.63267 0.0
C1147 C 0.66831 0.85642 0.68823 0.0
C1148 C 0.67654 0.8538 0.67582 0.0
H1149 H 0.70513 0.83607 0.62696 0.0
H1150 H 0.69839 0.84979 0.64829 0.0
H1151 H 0.67296 0.80363 0.66796 0.0
H1152 H 0.64518 0.83109 0.64079 0.0
H1153 H 0.635 0.82535 0.65577 0.0
H1154 H 0.64147 0.8119 0.64307 0.0
H1155 H 0.65784 0.79652 0.65698 0.0
H1156 H 0.65532 0.80356 0.67512 0.0
C1157 C 0.7041 0.85834 0.6766 0.0
C1158 C 0.68669 0.8748 0.66081 0.0
C1159 C 0.62492 0.83022 0.70994 0.0
C1160 C 0.61609 0.81825 0.70538 0.0
C1161 C 0.61916 0.81125 0.69203 0.0
C1162 C 0.63085 0.81597 0.68355 0.0
C1163 C 0.6396 0.82789 0.68836 0.0
C1164 C 0.6364 0.83489 0.70127 0.0
C1165 C 0.64638 0.84773 0.70446 0.0
C1166 C 0.6563 0.84716 0.69148 0.0
C1167 C 0.6524 0.83545 0.68213 0.0
C1168 C 0.65489 0.84472 0.71911 0.0
C1169 C 0.63695 0.86179 0.70439 0.0
C1170 C 0.67507 0.81592 0.63594 0.0
C1171 C 0.68743 0.82013 0.6281 0.0
C1172 C 0.69566 0.8325 0.63288 0.0
C1173 C 0.69169 0.84049 0.64525 0.0
C1174 C 0.6794 0.83606 0.65304 0.0
C1175 C 0.67133 0.82394 0.64835 0.0
C1176 C 0.6588 0.82064 0.65817 0.0
C1177 C 0.66072 0.83271 0.66955 0.0
C1178 C 0.67278 0.84177 0.66645 0.0
C1179 C 0.6612 0.80526 0.6649 0.0
C1180 C 0.6443 0.82219 0.64905 0.0
H1181 H 0.66158 0.87347 0.7151 0.0
H1182 H 0.7033 0.89089 0.68607 0.0
H1183 H 0.67716 0.88219 0.66184 0.0
H1184 H 0.6843 0.86834 0.65078 0.0
H1185 H 0.69653 0.88176 0.65912 0.0
H1186 H 0.70676 0.85602 0.68834 0.0
H1187 H 0.71272 0.86584 0.67256 0.0
H1188 H 0.70492 0.84764 0.67107 0.0
H1189 H 0.62309 0.83583 0.72015 0.0
H1190 H 0.61241 0.80219 0.68803 0.0
H1191 H 0.63261 0.81016 0.67355 0.0
H1192 H 0.65775 0.83293 0.72007 0.0
H1193 H 0.64823 0.84757 0.72864 0.0
H1194 H 0.66548 0.85062 0.72007 0.0
H1195 H 0.62701 0.86054 0.6971 0.0
H1196 H 0.64274 0.87143 0.69997 0.0
H1197 H 0.63322 0.86439 0.71553 0.0
H1198 H 0.67499 0.89496 0.72287 0.0
C1199 C 0.6705 0.87686 0.70851 0.0
C1200 C 0.70351 0.83172 0.39498 0.0
C1201 C 0.69827 0.82041 0.40391 0.0
C1202 C 0.68473 0.81365 0.39999 0.0
C1203 C 0.6822 0.82916 0.37848 0.0
C1204 C 0.69533 0.83592 0.38246 0.0
C1205 C 0.69939 0.84785 0.372 0.0
H1206 H 0.68423 0.88783 0.31121 0.0
C1207 C 0.67666 0.83599 0.36467 0.0
C1208 C 0.68668 0.84698 0.3609 0.0
H1209 H 0.7207 0.89219 0.34239 0.0
H1210 H 0.71172 0.87184 0.3561 0.0
H1211 H 0.65884 0.88096 0.33577 0.0
H1212 H 0.68508 0.85271 0.30956 0.0
H1213 H 0.66762 0.84464 0.31061 0.0
H1214 H 0.66958 0.86224 0.30183 0.0
H1215 H 0.65721 0.8802 0.31612 0.0
H1216 H 0.64758 0.86737 0.3273 0.0
C1217 C 0.69975 0.86259 0.38051 0.0
C1218 C 0.71408 0.84369 0.36512 0.0
C1219 C 0.62941 0.81723 0.33984 0.0
C1220 C 0.62199 0.82056 0.32649 0.0
C1221 C 0.62799 0.83161 0.31756 0.0
C1222 C 0.64086 0.83922 0.32188 0.0
C1223 C 0.64806 0.83572 0.33523 0.0
C1224 C 0.6424 0.82476 0.34387 0.0
C1225 C 0.65188 0.82199 0.35736 0.0
C1226 C 0.66409 0.83315 0.35545 0.0
C1227 C 0.66175 0.84131 0.34253 0.0
C1228 C 0.64283 0.82533 0.37098 0.0
C1229 C 0.6575 0.80606 0.3566 0.0
C1230 C 0.69019 0.8844 0.32104 0.0
C1231 C 0.70328 0.89162 0.32565 0.0
C1232 C 0.71077 0.88671 0.33843 0.0
C1233 C 0.70545 0.87492 0.34648 0.0
C1234 C 0.69242 0.86782 0.34181 0.0
C1235 C 0.68501 0.87249 0.32926 0.0
C1236 C 0.67145 0.86329 0.32598 0.0
C1237 C 0.67182 0.85266 0.33885 0.0
C1238 C 0.68417 0.85543 0.34803 0.0
C1239 C 0.65799 0.87341 0.3262 0.0
C1240 C 0.67338 0.85534 0.31119 0.0
H1241 H 0.66649 0.81237 0.385 0.0
H1242 H 0.71391 0.8371 0.3975 0.0
H1243 H 0.71463 0.83166 0.36327 0.0
H1244 H 0.7155 0.84859 0.3542 0.0
H1245 H 0.72356 0.84688 0.3724 0.0
H1246 H 0.69197 0.86241 0.38963 0.0
H1247 H 0.71083 0.86494 0.38535 0.0
H1248 H 0.69619 0.87196 0.37366 0.0
H1249 H 0.62521 0.80898 0.34714 0.0
H1250 H 0.62286 0.83428 0.30706 0.0
H1251 H 0.64477 0.84748 0.3146 0.0
H1252 H 0.63562 0.83492 0.36895 0.0
H1253 H 0.63573 0.81586 0.37378 0.0
H1254 H 0.64972 0.82837 0.38069 0.0
H1255 H 0.65982 0.80296 0.34513 0.0
H1256 H 0.66796 0.80447 0.36276 0.0
H1257 H 0.64925 0.79817 0.36066 0.0
H1258 H 0.68025 0.80509 0.40676 0.0
C1259 C 0.67669 0.81795 0.38736 0.0
C1260 C 0.70044 0.13344 0.31357 0.0
C1261 C 0.69312 0.12718 0.30122 0.0
C1262 C 0.67991 0.13351 0.29603 0.0
C1263 C 0.68149 0.15181 0.31538 0.0
C1264 C 0.69445 0.14564 0.32045 0.0
C1265 C 0.70072 0.1534 0.33384 0.0
H1266 H 0.69449 0.20584 0.38592 0.0
C1267 C 0.67813 0.16422 0.32517 0.0
C1268 C 0.68935 0.16517 0.33604 0.0
H1269 H 0.72975 0.17522 0.38102 0.0
H1270 H 0.71762 0.16514 0.35931 0.0
H1271 H 0.66772 0.18326 0.37743 0.0
H1272 H 0.69205 0.21431 0.35215 0.0
H1273 H 0.67372 0.21518 0.34586 0.0
H1274 H 0.67842 0.21994 0.36462 0.0
H1275 H 0.66597 0.20271 0.3795 0.0
H1276 H 0.65519 0.19265 0.36593 0.0
C1277 C 0.70129 0.14231 0.34667 0.0
C1278 C 0.7158 0.16004 0.33003 0.0
C1279 C 0.63228 0.19443 0.31531 0.0
C1280 C 0.6261 0.20638 0.32257 0.0
C1281 C 0.63323 0.21182 0.33541 0.0
C1282 C 0.64629 0.20558 0.34086 0.0
C1283 C 0.65235 0.19369 0.33344 0.0
C1284 C 0.64532 0.18829 0.32091 0.0
C1285 C 0.65322 0.17546 0.31459 0.0
C1286 C 0.66629 0.17422 0.32523 0.0
C1287 C 0.66571 0.18492 0.33626 0.0
C1288 C 0.64299 0.16185 0.31516 0.0
C1289 C 0.65793 0.17967 0.299 0.0
C1290 C 0.69951 0.19688 0.38022 0.0
C1291 C 0.71305 0.19125 0.38523 0.0
C1292 C 0.71937 0.17978 0.37734 0.0
C1293 C 0.71227 0.17391 0.36476 0.0
C1294 C 0.69873 0.17962 0.35988 0.0
C1295 C 0.69264 0.19102 0.36751 0.0
C1296 C 0.67851 0.19612 0.36038 0.0
C1297 C 0.67699 0.18578 0.34735 0.0
C1298 C 0.68881 0.17606 0.34717 0.0
C1299 C 0.66613 0.1937 0.37133 0.0
C1300 C 0.68063 0.21225 0.35555 0.0
H1301 H 0.66403 0.15004 0.29849 0.0
H1302 H 0.71049 0.12876 0.31799 0.0
H1303 H 0.7159 0.16347 0.31834 0.0
H1304 H 0.71853 0.17011 0.33629 0.0
H1305 H 0.72469 0.15197 0.33183 0.0
H1306 H 0.69129 0.13524 0.34642 0.0
H1307 H 0.71092 0.13505 0.34597 0.0
H1308 H 0.70154 0.14761 0.35753 0.0
H1309 H 0.62698 0.18979 0.30556 0.0
H1310 H 0.62879 0.22107 0.34116 0.0
H1311 H 0.65117 0.21027 0.35064 0.0
H1312 H 0.63609 0.1622 0.32496 0.0
H1313 H 0.63552 0.16125 0.30533 0.0
H1314 H 0.64904 0.15147 0.31624 0.0
H1315 H 0.6617 0.19128 0.29868 0.0
H1316 H 0.66729 0.17325 0.29528 0.0
H1317 H 0.64866 0.17839 0.2909 0.0
H1318 H 0.67411 0.12904 0.28648 0.0
C1319 C 0.6741 0.14576 0.30301 0.0
C1320 C 0.31361 0.13276 0.35147 0.0
C1321 C 0.31636 0.12311 0.33987 0.0
C1322 C 0.32847 0.12591 0.33107 0.0
C1323 C 0.33462 0.14775 0.34518 0.0
C1324 C 0.32287 0.14493 0.35393 0.0
C1325 C 0.32153 0.15627 0.36578 0.0
H1326 H 0.34651 0.219 0.39811 0.0
C1327 C 0.34184 0.16144 0.3504 0.0
C1328 C 0.33423 0.16649 0.36251 0.0
H1329 H 0.31022 0.19154 0.41074 0.0
H1330 H 0.31471 0.17501 0.39081 0.0
H1331 H 0.33898 0.21806 0.36412 0.0
H1332 H 0.36853 0.1925 0.39111 0.0
H1333 H 0.37765 0.19726 0.37512 0.0
H1334 H 0.37163 0.21151 0.38711 0.0
H1335 H 0.35644 0.22512 0.37049 0.0
H1336 H 0.35437 0.21484 0.35364 0.0
C1337 C 0.30656 0.16389 0.36352 0.0
C1338 C 0.3237 0.14857 0.3808 0.0
C1339 C 0.3857 0.18194 0.3239 0.0
C1340 C 0.39409 0.19485 0.32571 0.0
C1341 C 0.39076 0.20466 0.33702 0.0
C1342 C 0.37932 0.20165 0.34643 0.0
C1343 C 0.37099 0.18872 0.34449 0.0
C1344 C 0.37418 0.17917 0.33331 0.0
C1345 C 0.3638 0.16626 0.33258 0.0
C1346 C 0.35399 0.16956 0.34526 0.0
C1347 C 0.35833 0.18268 0.35224 0.0
C1348 C 0.35531 0.1667 0.31761 0.0
C1349 C 0.3728 0.15217 0.33529 0.0
C1350 C 0.33946 0.20948 0.39653 0.0
C1351 C 0.32802 0.20658 0.40608 0.0
C1352 C 0.31924 0.19394 0.40369 0.0
C1353 C 0.32181 0.18438 0.39205 0.0
C1354 C 0.3333 0.18743 0.38262 0.0
C1355 C 0.3419 0.19981 0.38496 0.0
C1356 C 0.35363 0.2013 0.37388 0.0
C1357 C 0.35073 0.18773 0.36457 0.0
C1358 C 0.33879 0.17966 0.36971 0.0
C1359 C 0.35088 0.21559 0.36508 0.0
C1360 C 0.3687 0.20072 0.38213 0.0
H1361 H 0.34655 0.13967 0.3265 0.0
H1362 H 0.30451 0.13084 0.35854 0.0
H1363 H 0.33171 0.13951 0.38014 0.0
H1364 H 0.32835 0.15592 0.3894 0.0
H1365 H 0.31324 0.14379 0.38454 0.0
H1366 H 0.30397 0.1656 0.35166 0.0
H1367 H 0.29758 0.15716 0.36804 0.0
H1368 H 0.30634 0.17493 0.36844 0.0
H1369 H 0.38789 0.17429 0.31519 0.0
H1370 H 0.39716 0.21461 0.33868 0.0
H1371 H 0.3774 0.20952 0.35485 0.0
H1372 H 0.35331 0.17819 0.31408 0.0
H1373 H 0.36155 0.16127 0.30894 0.0
H1374 H 0.34429 0.16166 0.31797 0.0
H1375 H 0.38174 0.15414 0.34365 0.0
H1376 H 0.36625 0.14308 0.33972 0.0
H1377 H 0.37793 0.14847 0.32508 0.0
H1378 H 0.33075 0.11877 0.32196 0.0
C1379 C 0.33759 0.13813 0.33366 0.0
C1380 C 0.32664 0.83019 0.38864 0.0
C1381 C 0.3136 0.83501 0.39484 0.0
C1382 C 0.30631 0.84712 0.38857 0.0
C1383 C 0.3248 0.84936 0.37023 0.0
C1384 C 0.33196 0.83744 0.37629 0.0
C1385 C 0.34531 0.83345 0.36787 0.0
H1386 H 0.38941 0.84817 0.31098 0.0
C1387 C 0.33296 0.85433 0.35739 0.0
C1388 C 0.34499 0.84501 0.35586 0.0
H1389 H 0.39368 0.8128 0.34224 0.0
H1390 H 0.37227 0.82131 0.35452 0.0
H1391 H 0.3809 0.87313 0.33397 0.0
H1392 H 0.35586 0.84434 0.30533 0.0
H1393 H 0.34632 0.8609 0.30539 0.0
H1394 H 0.36469 0.86054 0.2987 0.0
H1395 H 0.38017 0.87506 0.31441 0.0
H1396 H 0.36685 0.88357 0.3257 0.0
C1397 C 0.35895 0.83515 0.37823 0.0
C1398 C 0.34298 0.81782 0.3616 0.0
C1399 C 0.31522 0.89863 0.32831 0.0
C1400 C 0.32013 0.90547 0.31556 0.0
C1401 C 0.33254 0.89996 0.30877 0.0
C1402 C 0.34003 0.88787 0.31464 0.0
C1403 C 0.33498 0.88111 0.32738 0.0
C1404 C 0.32272 0.88646 0.33395 0.0
C1405 C 0.31862 0.87754 0.34707 0.0
C1406 C 0.33056 0.86606 0.3474 0.0
C1407 C 0.34012 0.86827 0.33591 0.0
C1408 C 0.31969 0.88764 0.36071 0.0
C1409 C 0.30322 0.87069 0.34393 0.0
C1410 C 0.38571 0.8421 0.32036 0.0
C1411 C 0.3933 0.82972 0.32553 0.0
C1412 C 0.38817 0.82244 0.33805 0.0
C1413 C 0.37565 0.82734 0.34512 0.0
C1414 C 0.36811 0.83964 0.33963 0.0
C1415 C 0.37323 0.84676 0.32744 0.0
C1416 C 0.36387 0.85946 0.32285 0.0
C1417 C 0.35225 0.8589 0.3343 0.0
C1418 C 0.35473 0.84731 0.34419 0.0
C1419 C 0.37336 0.8736 0.32416 0.0
C1420 C 0.35737 0.85631 0.30723 0.0
H1421 H 0.30577 0.86349 0.37219 0.0
H1422 H 0.33238 0.8208 0.39311 0.0
H1423 H 0.33136 0.81605 0.35794 0.0
H1424 H 0.3494 0.81578 0.3518 0.0
H1425 H 0.34573 0.8094 0.37 0.0
H1426 H 0.35819 0.84524 0.38499 0.0
H1427 H 0.35995 0.82567 0.3858 0.0
H1428 H 0.36922 0.83636 0.37231 0.0
H1429 H 0.30555 0.90249 0.33362 0.0
H1430 H 0.33653 0.9051 0.29896 0.0
H1431 H 0.34944 0.88425 0.30898 0.0
H1432 H 0.32944 0.895 0.36024 0.0
H1433 H 0.30985 0.89464 0.36133 0.0
H1434 H 0.32113 0.88156 0.37109 0.0
H1435 H 0.30117 0.8688 0.332 0.0
H1436 H 0.30194 0.85974 0.34892 0.0
H1437 H 0.29445 0.87796 0.34777 0.0
H1438 H 0.29633 0.85109 0.3932 0.0
C1439 C 0.31185 0.85433 0.37638 0.0
C1440 C 0.69638 0.64315 0.19119 0.0
C1441 C 0.70881 0.63675 0.18515 0.0
C1442 C 0.71435 0.64278 0.17221 0.0
C1443 C 0.69528 0.66106 0.17149 0.0
C1444 C 0.68984 0.65529 0.18422 0.0
C1445 C 0.67667 0.66358 0.18917 0.0
H1446 H 0.62679 0.71717 0.17542 0.0
C1447 C 0.68592 0.67342 0.16679 0.0
C1448 C 0.67492 0.67498 0.1771 0.0
H1449 H 0.62965 0.68901 0.21334 0.0
H1450 H 0.65106 0.67726 0.2037 0.0
H1451 H 0.63396 0.69293 0.15142 0.0
H1452 H 0.65997 0.72473 0.1755 0.0
H1453 H 0.66734 0.72408 0.15805 0.0
H1454 H 0.64859 0.72962 0.15993 0.0
H1455 H 0.63337 0.71218 0.14755 0.0
H1456 H 0.64632 0.70035 0.13905 0.0
C1457 C 0.66347 0.65286 0.18936 0.0
C1458 C 0.68058 0.67069 0.2042 0.0
C1459 C 0.6969 0.70152 0.12007 0.0
C1460 C 0.6898 0.7132 0.11281 0.0
C1461 C 0.67699 0.71892 0.11871 0.0
C1462 C 0.67135 0.7132 0.13157 0.0
C1463 C 0.67857 0.7016 0.13875 0.0
C1464 C 0.69107 0.69588 0.13296 0.0
C1465 C 0.69709 0.68341 0.14207 0.0
C1466 C 0.68627 0.68282 0.15438 0.0
C1467 C 0.6755 0.69352 0.15234 0.0
C1468 C 0.69639 0.66936 0.13253 0.0
C1469 C 0.71269 0.68779 0.14776 0.0
C1470 C 0.63192 0.70836 0.18158 0.0
C1471 C 0.62645 0.70387 0.19504 0.0
C1472 C 0.63369 0.69263 0.20291 0.0
C1473 C 0.64608 0.68582 0.19729 0.0
C1474 C 0.6514 0.69045 0.18374 0.0
C1475 C 0.64436 0.70165 0.17624 0.0
C1476 C 0.65177 0.70575 0.16242 0.0
C1477 C 0.66438 0.69509 0.16267 0.0
C1478 C 0.66411 0.68601 0.17508 0.0
C1479 C 0.64085 0.70279 0.14936 0.0
C1480 C 0.65715 0.72189 0.16389 0.0
H1481 H 0.71244 0.6588 0.15555 0.0
H1482 H 0.69192 0.63889 0.20119 0.0
H1483 H 0.69226 0.67429 0.20482 0.0
H1484 H 0.6743 0.68073 0.20619 0.0
H1485 H 0.67888 0.66284 0.21329 0.0
H1486 H 0.66308 0.64592 0.17933 0.0
H1487 H 0.66429 0.64548 0.199 0.0
H1488 H 0.65285 0.65848 0.18943 0.0
H1489 H 0.7067 0.6968 0.11576 0.0
H1490 H 0.67143 0.72805 0.11349 0.0
H1491 H 0.66161 0.71813 0.13546 0.0
H1492 H 0.68672 0.66948 0.12479 0.0
H1493 H 0.70632 0.66834 0.12592 0.0
H1494 H 0.69497 0.65927 0.13902 0.0
H1495 H 0.71323 0.69963 0.15066 0.0
H1496 H 0.71608 0.68203 0.15792 0.0
H1497 H 0.7209 0.68581 0.1393 0.0
H1498 H 0.72374 0.63798 0.16718 0.0
C1499 C 0.70769 0.65483 0.16539 0.0
C1500 C 0.34124 0.63064 0.20024 0.0
C1501 C 0.32789 0.62381 0.19616 0.0
C1502 C 0.31908 0.63003 0.18488 0.0
C1503 C 0.337 0.64957 0.18192 0.0
C1504 C 0.34546 0.6435 0.19313 0.0
C1505 C 0.35889 0.65252 0.19688 0.0
H1506 H 0.39889 0.71429 0.18886 0.0
C1507 C 0.3445 0.66314 0.17712 0.0
C1508 C 0.35723 0.66497 0.18598 0.0
H1509 H 0.40678 0.67774 0.2182 0.0
H1510 H 0.38586 0.66516 0.20793 0.0
H1511 H 0.36289 0.71469 0.18954 0.0
H1512 H 0.39203 0.69278 0.16059 0.0
H1513 H 0.3769 0.69903 0.1501 0.0
H1514 H 0.3889 0.71212 0.15939 0.0
H1515 H 0.37474 0.72436 0.17747 0.0
H1516 H 0.35712 0.71755 0.17112 0.0
C1517 C 0.35776 0.65786 0.21294 0.0
C1518 C 0.37252 0.64308 0.19394 0.0
C1519 C 0.32345 0.69218 0.13394 0.0
C1520 C 0.32804 0.70494 0.1267 0.0
C1521 C 0.34079 0.71231 0.13209 0.0
C1522 C 0.34882 0.70705 0.14435 0.0
C1523 C 0.34416 0.6942 0.15136 0.0
C1524 C 0.33166 0.687 0.14611 0.0
C1525 C 0.32834 0.67348 0.15485 0.0
C1526 C 0.3411 0.67352 0.16595 0.0
C1527 C 0.35032 0.68577 0.16398 0.0
C1528 C 0.31349 0.67565 0.16225 0.0
C1529 C 0.32871 0.66008 0.14448 0.0
C1530 C 0.39613 0.70356 0.19305 0.0
C1531 C 0.40437 0.69731 0.20481 0.0
C1532 C 0.40041 0.68319 0.20965 0.0
C1533 C 0.38825 0.67576 0.20354 0.0
C1534 C 0.37985 0.68232 0.19226 0.0
C1535 C 0.38398 0.69582 0.18689 0.0
C1536 C 0.37409 0.70047 0.17414 0.0
C1537 C 0.363 0.68785 0.17334 0.0
C1538 C 0.36647 0.67736 0.1841 0.0
C1539 C 0.36683 0.71509 0.17815 0.0
C1540 C 0.38338 0.70127 0.16029 0.0
H1541 H 0.31647 0.64699 0.16912 0.0
H1542 H 0.34809 0.62627 0.20907 0.0
H1543 H 0.37027 0.63522 0.18481 0.0
H1544 H 0.38197 0.64968 0.19036 0.0
H1545 H 0.37588 0.63662 0.20376 0.0
H1546 H 0.34618 0.66008 0.21558 0.0
H1547 H 0.36194 0.64949 0.2208 0.0
H1548 H 0.36355 0.66833 0.21514 0.0
H1549 H 0.31379 0.68618 0.13009 0.0
H1550 H 0.34448 0.72229 0.12691 0.0
H1551 H 0.35834 0.71321 0.14794 0.0
H1552 H 0.31168 0.6874 0.16481 0.0
H1553 H 0.3042 0.67186 0.155 0.0
H1554 H 0.31295 0.67002 0.17293 0.0
H1555 H 0.33814 0.66098 0.13711 0.0
H1556 H 0.3302 0.64962 0.15034 0.0
H1557 H 0.31854 0.65934 0.1375 0.0
H1558 H 0.30873 0.62493 0.18159 0.0
C1559 C 0.3236 0.64281 0.17767 0.0
C1560 C 0.39304 0.33584 0.21834 0.0
C1561 C 0.40054 0.323 0.21467 0.0
C1562 C 0.39567 0.31494 0.20223 0.0
C1563 C 0.37605 0.33212 0.19754 0.0
C1564 C 0.38078 0.34012 0.20969 0.0
C1565 C 0.37118 0.35319 0.21216 0.0
H1566 H 0.31122 0.39279 0.1917 0.0
C1567 C 0.36296 0.33929 0.19098 0.0
C1568 C 0.35995 0.35163 0.19954 0.0
H1569 H 0.34186 0.4011 0.2279 0.0
H1570 H 0.35592 0.38002 0.22122 0.0
H1571 H 0.3093 0.35791 0.19582 0.0
H1572 H 0.33568 0.38521 0.16852 0.0
H1573 H 0.33012 0.36993 0.15799 0.0
H1574 H 0.31649 0.38215 0.16476 0.0
H1575 H 0.30187 0.36724 0.18 0.0
H1576 H 0.30991 0.34934 0.17863 0.0
C1577 C 0.36411 0.35136 0.22723 0.0
C1578 C 0.38068 0.36722 0.21074 0.0
C1579 C 0.33841 0.31794 0.14474 0.0
C1580 C 0.32591 0.32191 0.13631 0.0
C1581 C 0.31774 0.33409 0.14072 0.0
C1582 C 0.32195 0.3422 0.15322 0.0
C1583 C 0.33449 0.33815 0.1615 0.0
C1584 C 0.34243 0.32614 0.15727 0.0
C1585 C 0.35528 0.32329 0.16758 0.0
C1586 C 0.35388 0.33572 0.17853 0.0
C1587 C 0.34171 0.34441 0.17488 0.0
C1588 C 0.35297 0.30808 0.17474 0.0
C1589 C 0.36944 0.32475 0.1588 0.0
C1590 C 0.3209 0.39001 0.19824 0.0
C1591 C 0.3254 0.39866 0.21036 0.0
C1592 C 0.33822 0.39475 0.21843 0.0
C1593 C 0.34634 0.38243 0.21458 0.0
C1594 C 0.34166 0.37386 0.20249 0.0
C1595 C 0.32919 0.37778 0.19449 0.0
C1596 C 0.32604 0.3676 0.18179 0.0
C1597 C 0.33854 0.35684 0.18357 0.0
C1598 C 0.34765 0.3605 0.19577 0.0
C1599 C 0.31096 0.36015 0.18401 0.0
C1600 C 0.327 0.3766 0.16746 0.0
H1601 H 0.38047 0.31275 0.18439 0.0
H1602 H 0.39648 0.34226 0.22785 0.0
H1603 H 0.38881 0.36591 0.20204 0.0
H1604 H 0.37422 0.37689 0.2074 0.0
H1605 H 0.38683 0.3697 0.22116 0.0
H1606 H 0.36097 0.33972 0.2291 0.0
H1607 H 0.37186 0.35473 0.23628 0.0
H1608 H 0.35387 0.35754 0.22814 0.0
H1609 H 0.34484 0.30856 0.14175 0.0
H1610 H 0.30818 0.33751 0.13432 0.0
H1611 H 0.31529 0.35137 0.1559 0.0
H1612 H 0.34112 0.3054 0.1756 0.0
H1613 H 0.35794 0.29925 0.16823 0.0
H1614 H 0.35738 0.30758 0.18615 0.0
H1615 H 0.36858 0.33399 0.15089 0.0
H1616 H 0.37924 0.3273 0.16576 0.0
H1617 H 0.37144 0.31462 0.15246 0.0
H1618 H 0.40138 0.30518 0.19899 0.0
C1619 C 0.38354 0.31941 0.19369 0.0
C1620 C 0.70045 0.39296 0.19414 0.0
C1621 C 0.69441 0.39896 0.20678 0.0
C1622 C 0.68229 0.39185 0.2129 0.0
C1623 C 0.68234 0.37329 0.19386 0.0
C1624 C 0.69426 0.38021 0.18788 0.0
C1625 C 0.6992 0.37258 0.1743 0.0
H1626 H 0.68814 0.31858 0.12389 0.0
C1627 C 0.67838 0.36047 0.18457 0.0
C1628 C 0.6882 0.36003 0.17304 0.0
H1629 H 0.72283 0.35106 0.12541 0.0
H1630 H 0.71341 0.36113 0.14778 0.0
H1631 H 0.6911 0.31047 0.15674 0.0
H1632 H 0.66201 0.33972 0.13362 0.0
H1633 H 0.65148 0.32998 0.14617 0.0
H1634 H 0.66071 0.32015 0.13211 0.0
H1635 H 0.67519 0.30393 0.14663 0.0
H1636 H 0.67445 0.30919 0.16566 0.0
C1637 C 0.71499 0.36706 0.17727 0.0
C1638 C 0.69762 0.38336 0.16128 0.0
C1639 C 0.63558 0.32724 0.19768 0.0
C1640 C 0.62943 0.31458 0.19101 0.0
C1641 C 0.63531 0.30943 0.17792 0.0
C1642 C 0.64714 0.31661 0.17163 0.0
C1643 C 0.65326 0.32914 0.17846 0.0
C1644 C 0.64748 0.33429 0.19124 0.0
C1645 C 0.65546 0.34779 0.19687 0.0
C1646 C 0.66708 0.34971 0.18546 0.0
C1647 C 0.66566 0.33877 0.1747 0.0
C1648 C 0.6623 0.34427 0.21219 0.0
C1649 C 0.6445 0.36064 0.19668 0.0
C1650 C 0.6936 0.32799 0.12895 0.0
C1651 C 0.70609 0.33419 0.12281 0.0
C1652 C 0.71315 0.34615 0.12994 0.0
C1653 C 0.70764 0.35197 0.14289 0.0
C1654 C 0.69504 0.34566 0.14886 0.0
C1655 C 0.68837 0.33376 0.14194 0.0
C1656 C 0.67558 0.32792 0.1501 0.0
C1657 C 0.67544 0.33841 0.16296 0.0
C1658 C 0.68675 0.34888 0.16217 0.0
C1659 C 0.6791 0.31203 0.155 0.0
C1660 C 0.66167 0.32937 0.14004 0.0
H1661 H 0.66705 0.3742 0.21175 0.0
H1662 H 0.70964 0.39823 0.18903 0.0
H1663 H 0.68724 0.38958 0.16186 0.0
H1664 H 0.69705 0.37783 0.15054 0.0
H1665 H 0.70681 0.39142 0.16141 0.0
H1666 H 0.71662 0.36359 0.18888 0.0
H1667 H 0.72319 0.37579 0.17512 0.0
H1668 H 0.71752 0.35725 0.17077 0.0
H1669 H 0.63137 0.33145 0.20778 0.0
H1670 H 0.63063 0.29989 0.1724 0.0
H1671 H 0.65104 0.3121 0.16166 0.0
H1672 H 0.66661 0.33292 0.21251 0.0
H1673 H 0.65404 0.34516 0.2208 0.0
H1674 H 0.67179 0.35135 0.21519 0.0
H1675 H 0.63651 0.35963 0.18725 0.0
H1676 H 0.64984 0.37141 0.19519 0.0
H1677 H 0.63817 0.36084 0.20685 0.0
H1678 H 0.67752 0.39613 0.22271 0.0
C1679 C 0.67625 0.37907 0.20654 0.0
C1680 C 0.71077 0.33349 0.88865 0.0
C1681 C 0.70458 0.32127 0.89555 0.0
C1682 C 0.69135 0.31529 0.88962 0.0
C1683 C 0.69105 0.33342 0.87011 0.0
C1684 C 0.7039 0.33931 0.87607 0.0
C1685 C 0.70931 0.35219 0.86754 0.0
H1686 H 0.70223 0.39865 0.81034 0.0
C1687 C 0.68695 0.3421 0.85686 0.0
C1688 C 0.69765 0.3531 0.85538 0.0
H1689 H 0.7362 0.39739 0.84444 0.0
H1690 H 0.72437 0.37686 0.85556 0.0
H1691 H 0.67467 0.39214 0.83207 0.0
H1692 H 0.70029 0.36363 0.80554 0.0
H1693 H 0.68187 0.35802 0.80373 0.0
H1694 H 0.68713 0.37604 0.79763 0.0
H1695 H 0.67355 0.39246 0.81241 0.0
H1696 H 0.66277 0.37976 0.82275 0.0
C1697 C 0.70929 0.36583 0.87769 0.0
C1698 C 0.72451 0.34828 0.8616 0.0
C1699 C 0.64136 0.32867 0.82588 0.0
C1700 C 0.63502 0.3344 0.81285 0.0
C1701 C 0.64178 0.34664 0.80636 0.0
C1702 C 0.65455 0.35301 0.81267 0.0
C1703 C 0.66079 0.34708 0.82562 0.0
C1704 C 0.65417 0.33511 0.83202 0.0
C1705 C 0.66242 0.33012 0.84564 0.0
C1706 C 0.67508 0.34104 0.84639 0.0
C1707 C 0.67407 0.351 0.83463 0.0
C1708 C 0.65229 0.33176 0.85878 0.0
C1709 C 0.66772 0.31429 0.84308 0.0
C1710 C 0.70702 0.39396 0.82025 0.0
C1711 C 0.72026 0.3996 0.82645 0.0
C1712 C 0.72617 0.39312 0.8393 0.0
C1713 C 0.71922 0.38121 0.84581 0.0
C1714 C 0.70615 0.37555 0.83945 0.0
C1715 C 0.70021 0.38188 0.82689 0.0
C1716 C 0.68633 0.37411 0.82167 0.0
C1717 C 0.68495 0.36217 0.83322 0.0
C1718 C 0.69662 0.36316 0.84357 0.0
C1719 C 0.6736 0.38513 0.82212 0.0
C1720 C 0.68888 0.36765 0.80629 0.0
H1721 H 0.67459 0.31618 0.87292 0.0
H1722 H 0.72076 0.33856 0.89302 0.0
H1723 H 0.72522 0.33636 0.85921 0.0
H1724 H 0.72675 0.35366 0.85106 0.0
H1725 H 0.73346 0.35106 0.86968 0.0
H1726 H 0.70013 0.36521 0.88541 0.0
H1727 H 0.71966 0.36674 0.88435 0.0
H1728 H 0.70748 0.37617 0.87165 0.0
H1729 H 0.63663 0.31916 0.83107 0.0
H1730 H 0.63709 0.35137 0.79641 0.0
H1731 H 0.65912 0.3623 0.8072 0.0
H1732 H 0.64567 0.34188 0.85771 0.0
H1733 H 0.64458 0.32231 0.85943 0.0
H1734 H 0.6584 0.33291 0.86936 0.0
H1735 H 0.67126 0.31289 0.83162 0.0
H1736 H 0.67738 0.31142 0.85002 0.0
H1737 H 0.65882 0.30619 0.84494 0.0
H1738 H 0.68636 0.30582 0.89465 0.0
C1739 C 0.68457 0.32128 0.87695 0.0
C1740 C 0.64448 0.68435 0.81689 0.0
C1741 C 0.63639 0.69587 0.82269 0.0
C1742 C 0.64213 0.70336 0.83517 0.0
C1743 C 0.66349 0.68766 0.83587 0.0
C1744 C 0.65783 0.68043 0.82362 0.0
C1745 C 0.66749 0.66829 0.81877 0.0
H1746 H 0.72845 0.62785 0.82812 0.0
C1747 C 0.6776 0.68068 0.84014 0.0
C1748 C 0.67991 0.66932 0.83014 0.0
H1749 H 0.69401 0.6239 0.79466 0.0
H1750 H 0.68153 0.64425 0.80497 0.0
H1751 H 0.73019 0.66413 0.82753 0.0
H1752 H 0.70715 0.63379 0.85498 0.0
H1753 H 0.71469 0.64786 0.8661 0.0
H1754 H 0.72669 0.63605 0.85631 0.0
H1755 H 0.73952 0.65244 0.84052 0.0
H1756 H 0.73232 0.66988 0.84589 0.0
C1757 C 0.67266 0.67202 0.80318 0.0
C1758 C 0.65877 0.65367 0.81991 0.0
C1759 C 0.70761 0.69955 0.88424 0.0
C1760 C 0.7209 0.69519 0.89107 0.0
C1761 C 0.72832 0.68314 0.88524 0.0
C1762 C 0.72269 0.67568 0.87279 0.0
C1763 C 0.70941 0.68021 0.86607 0.0
C1764 C 0.70208 0.69194 0.87188 0.0
C1765 C 0.68797 0.69509 0.86355 0.0
C1766 C 0.68808 0.68344 0.8517 0.0
C1767 C 0.70069 0.67474 0.85317 0.0
C1768 C 0.68902 0.71073 0.85712 0.0
C1769 C 0.67517 0.69277 0.87404 0.0
C1770 C 0.71828 0.63149 0.82299 0.0
C1771 C 0.71216 0.62416 0.81059 0.0
C1772 C 0.69884 0.62917 0.80432 0.0
C1773 C 0.69162 0.64107 0.81031 0.0
C1774 C 0.69771 0.64816 0.82278 0.0
C1775 C 0.71085 0.64342 0.82891 0.0
C1776 C 0.71551 0.65237 0.84222 0.0
C1777 C 0.70298 0.6632 0.84299 0.0
C1778 C 0.69264 0.6606 0.83156 0.0
C1779 C 0.73021 0.66009 0.83902 0.0
C1780 C 0.71618 0.64205 0.85566 0.0
H1781 H 0.65937 0.70539 0.85128 0.0
H1782 H 0.64059 0.67852 0.80716 0.0
H1783 H 0.65113 0.65398 0.82914 0.0
H1784 H 0.66584 0.64417 0.82234 0.0
H1785 H 0.65214 0.65145 0.80972 0.0
H1786 H 0.67396 0.68406 0.80173 0.0
H1787 H 0.66464 0.66806 0.79463 0.0
H1788 H 0.68356 0.66756 0.80095 0.0
H1789 H 0.70148 0.70858 0.88857 0.0
H1790 H 0.73861 0.6796 0.89023 0.0
H1791 H 0.72889 0.66665 0.86886 0.0
H1792 H 0.70019 0.71294 0.85309 0.0
H1793 H 0.68674 0.71912 0.86553 0.0
H1794 H 0.68157 0.71241 0.84752 0.0
H1795 H 0.67746 0.68354 0.88169 0.0
H1796 H 0.66478 0.68972 0.86825 0.0
H1797 H 0.67342 0.70272 0.88074 0.0
H1798 H 0.63611 0.71223 0.83993 0.0
C1799 C 0.65562 0.69932 0.84179 0.0
C1800 C 0.32704 0.6404 0.84087 0.0
C1801 C 0.33245 0.63176 0.8295 0.0
C1802 C 0.34582 0.63587 0.8233 0.0
C1803 C 0.34805 0.65689 0.83947 0.0
C1804 C 0.33504 0.65283 0.84572 0.0
C1805 C 0.33107 0.66312 0.85786 0.0
H1806 H 0.3475 0.72418 0.89798 0.0
C1807 C 0.35353 0.67046 0.84673 0.0
C1808 C 0.34364 0.67418 0.85757 0.0
H1809 H 0.31085 0.69447 0.90291 0.0
H1810 H 0.31911 0.67974 0.8828 0.0
H1811 H 0.34515 0.72589 0.86379 0.0
H1812 H 0.37152 0.69949 0.89303 0.0
H1813 H 0.3829 0.70574 0.87916 0.0
H1814 H 0.37429 0.71883 0.89077 0.0
H1815 H 0.36151 0.73294 0.87273 0.0
H1816 H 0.36188 0.72377 0.85522 0.0
C1817 C 0.31621 0.6702 0.85364 0.0
C1818 C 0.33111 0.65437 0.87237 0.0
C1819 C 0.40026 0.69531 0.82977 0.0
C1820 C 0.4073 0.70857 0.83374 0.0
C1821 C 0.40143 0.71726 0.84479 0.0
C1822 C 0.38877 0.71281 0.85187 0.0
C1823 C 0.38178 0.69957 0.84777 0.0
C1824 C 0.38746 0.69111 0.83681 0.0
C1825 C 0.3781 0.67776 0.83345 0.0
C1826 C 0.36598 0.67954 0.84433 0.0
C1827 C 0.3683 0.69227 0.85274 0.0
C1828 C 0.37224 0.67892 0.81738 0.0
C1829 C 0.38742 0.66401 0.83675 0.0
C1830 C 0.34114 0.71459 0.89467 0.0
C1831 C 0.32848 0.71054 0.90207 0.0
C1832 C 0.32072 0.69779 0.8975 0.0
C1833 C 0.32551 0.68927 0.88579 0.0
C1834 C 0.33823 0.69349 0.87854 0.0
C1835 C 0.34577 0.70598 0.88305 0.0
C1836 C 0.35907 0.70887 0.87424 0.0
C1837 C 0.35843 0.69595 0.86379 0.0
C1838 C 0.34618 0.68696 0.86627 0.0
C1839 C 0.35695 0.72366 0.86611 0.0
C1840 C 0.37273 0.70833 0.88476 0.0
H1841 H 0.36365 0.65084 0.82293 0.0
H1842 H 0.31688 0.63749 0.84597 0.0
H1843 H 0.33984 0.64596 0.87259 0.0
H1844 H 0.33355 0.66127 0.88209 0.0
H1845 H 0.32047 0.64861 0.87375 0.0
H1846 H 0.31572 0.67313 0.84181 0.0
H1847 H 0.30697 0.66253 0.85565 0.0
H1848 H 0.31436 0.68053 0.85953 0.0
H1849 H 0.40443 0.68854 0.82113 0.0
H1850 H 0.40671 0.7275 0.84802 0.0
H1851 H 0.38491 0.7199 0.86024 0.0
H1852 H 0.37003 0.69052 0.81437 0.0
H1853 H 0.3803 0.67465 0.80964 0.0
H1854 H 0.36166 0.6732 0.81543 0.0
H1855 H 0.39473 0.66578 0.8466 0.0
H1856 H 0.38074 0.65427 0.83938 0.0
H1857 H 0.39445 0.66137 0.82743 0.0
H1858 H 0.35016 0.62956 0.8144 0.0
C1859 C 0.35361 0.64832 0.82819 0.0
C1860 C 0.34008 0.33256 0.89307 0.0
C1861 C 0.3275 0.33961 0.89795 0.0
C1862 C 0.32234 0.35204 0.89029 0.0
C1863 C 0.34211 0.35021 0.87331 0.0
C1864 C 0.34715 0.338 0.88078 0.0
C1865 C 0.36058 0.33175 0.87409 0.0
H1866 H 0.41093 0.3343 0.82128 0.0
C1867 C 0.35194 0.35304 0.86105 0.0
C1868 C 0.36278 0.34224 0.86143 0.0
H1869 H 0.40776 0.30337 0.85693 0.0
H1870 H 0.38648 0.31572 0.8654 0.0
H1871 H 0.40463 0.3628 0.84091 0.0
H1872 H 0.37625 0.33589 0.81325 0.0
H1873 H 0.37188 0.35432 0.8099 0.0
H1874 H 0.38994 0.34788 0.80606 0.0
H1875 H 0.40511 0.36346 0.82129 0.0
H1876 H 0.39257 0.37449 0.83131 0.0
C1877 C 0.37337 0.33267 0.88564 0.0
C1878 C 0.3568 0.31602 0.86869 0.0
C1879 C 0.34258 0.39661 0.8275 0.0
C1880 C 0.34982 0.40226 0.81532 0.0
C1881 C 0.36227 0.39491 0.81043 0.0
C1882 C 0.36744 0.38225 0.81754 0.0
C1883 C 0.36013 0.37682 0.82973 0.0
C1884 C 0.34791 0.38399 0.8345 0.0
C1885 C 0.34155 0.37673 0.84766 0.0
C1886 C 0.35199 0.36406 0.85007 0.0
C1887 C 0.36285 0.36413 0.83953 0.0
C1888 C 0.34241 0.38779 0.86055 0.0
C1889 C 0.32583 0.37136 0.84337 0.0
C1890 C 0.40574 0.33025 0.83098 0.0
C1891 C 0.41107 0.31773 0.83836 0.0
C1892 C 0.4038 0.31279 0.85086 0.0
C1893 C 0.39146 0.32005 0.85584 0.0
C1894 C 0.38625 0.33247 0.84831 0.0
C1895 C 0.3934 0.33741 0.83614 0.0
C1896 C 0.38638 0.3509 0.82964 0.0
C1897 C 0.37379 0.35314 0.83985 0.0
C1898 C 0.37376 0.34229 0.85075 0.0
C1899 C 0.39771 0.36363 0.83069 0.0
C1900 C 0.38087 0.3472 0.81384 0.0
H1901 H 0.32508 0.36688 0.87275 0.0
H1902 H 0.34425 0.32289 0.89859 0.0
H1903 H 0.34533 0.31535 0.86424 0.0
H1904 H 0.36357 0.31246 0.85958 0.0
H1905 H 0.35789 0.30799 0.87778 0.0
H1906 H 0.37258 0.34274 0.89244 0.0
H1907 H 0.37323 0.32311 0.89316 0.0
H1908 H 0.38421 0.33349 0.8807 0.0
H1909 H 0.33288 0.40181 0.83146 0.0
H1910 H 0.36818 0.39908 0.8012 0.0
H1911 H 0.37698 0.37723 0.81329 0.0
H1912 H 0.35259 0.39456 0.8602 0.0
H1913 H 0.33297 0.39537 0.86007 0.0
H1914 H 0.34296 0.38245 0.87138 0.0
H1915 H 0.32512 0.36768 0.83175 0.0
H1916 H 0.32236 0.36172 0.84973 0.0
H1917 H 0.31775 0.38024 0.84463 0.0
H1918 H 0.3128 0.3578 0.8939 0.0
C1919 C 0.32955 0.35736 0.87804 0.0
Cu1920 Cu 0.26684 0.27519 0.01821 0.0
N1921 N 0.26791 0.29176 1.00608 0.0
N1922 N 0.27514 0.30571 0.98746 0.0
C1923 C 0.2762 0.29258 0.99418 0.0
C1924 C 0.26582 0.31349 0.99549 0.0
C1925 C 0.26135 0.30486 0.00694 0.0
O1926 O 0.26733 0.25823 1.00527 0.0
C1927 C 0.28283 0.28845 0.04037 0.0
O1928 O 0.27308 0.29845 0.03696 0.0
H1929 H 0.28306 0.28373 0.99067 0.0
H1930 H 0.25402 0.30807 0.01538 0.0
N1931 N 0.24953 0.27375 0.02847 0.0
N1932 N 0.23436 0.26515 0.04519 0.0
C1933 C 0.24727 0.26346 0.0387 0.0
C1934 C 0.23753 0.28221 0.02835 0.0
C1935 C 0.22818 0.27698 0.03877 0.0
C1936 C 0.25783 0.25873 0.99473 0.0
O1937 O 0.24881 0.26985 0.99405 0.0
H1938 H 0.25518 0.25511 0.04163 0.0
H1939 H 0.23568 0.29153 0.02129 0.0
O1940 O 0.28259 0.27649 0.03315 0.0
H1941 H 0.26237 0.32459 0.99321 0.0
H1942 H 0.21766 0.28146 0.04139 0.0
Cu1943 Cu 0.76988 0.26275 0.0078 0.0
N1944 N 0.75261 0.26706 0.01906 0.0
N1945 N 0.73886 0.27681 0.03622 0.0
C1946 C 0.75096 0.27841 0.02826 0.0
C1947 C 0.73263 0.26403 0.03173 0.0
C1948 C 0.74116 0.25803 0.02113 0.0
O1949 O 0.77927 0.25334 0.02604 0.0
C1950 C 0.75755 0.28474 0.98744 0.0
O1951 O 0.7621 0.29415 0.99753 0.0
H1952 H 0.7589 0.28721 0.02971 0.0
H1953 H 0.73952 0.24753 0.0158 0.0
N1954 N 0.78738 0.25845 0.99668 0.0
N1955 N 0.80195 0.25179 0.97877 0.0
C1956 C 0.78811 0.2549 0.98237 0.0
C1957 C 0.80123 0.25767 1.00216 0.0
C1958 C 0.81021 0.25342 0.99116 0.0
C1959 C 0.7848 0.26074 0.0367 0.0
O1960 O 0.7851 0.2751 0.03583 0.0
H1961 H 0.7787 0.25417 0.97487 0.0
H1962 H 0.80458 0.2598 0.01342 0.0
O1963 O 0.75982 0.27116 0.98944 0.0
H1964 H 0.72284 0.25916 0.03608 0.0
H1965 H 0.8219 0.2516 0.99215 0.0
Cu1966 Cu 0.75709 0.77881 0.99726 0.0
N1967 N 0.75551 0.79383 0.9834 0.0
N1968 N 0.76152 0.80827 0.9647 0.0
C1969 C 0.76631 0.79845 0.97479 0.0
C1970 C 0.74711 0.80985 0.96711 0.0
C1971 C 0.74343 0.80087 0.97857 0.0
O1972 O 0.7573 0.7607 0.98582 0.0
C1973 C 0.77538 0.79554 0.01539 0.0
O1974 O 0.7667 0.80567 0.00991 0.0
H1975 H 0.77729 0.79412 0.9755 0.0
H1976 H 0.73259 0.79919 0.98268 0.0
N1977 N 0.74118 0.77833 0.00956 0.0
N1978 N 0.7272 0.77054 0.02767 0.0
C1979 C 0.73779 0.76705 0.01835 0.0
C1980 C 0.73252 0.78939 0.01348 0.0
C1981 C 0.72381 0.78459 0.02458 0.0
C1982 C 0.745 0.75672 0.98001 0.0
O1983 O 0.7333 0.76428 0.98296 0.0
H1984 H 0.74362 0.75679 0.01845 0.0
H1985 H 0.733 0.80038 0.00913 0.0
O1986 O 0.77393 0.78246 0.01058 0.0
H1987 H 0.73966 0.81678 0.96088 0.0
H1988 H 0.71589 0.79109 0.03019 0.0
Cu1989 Cu 0.26695 0.773 0.01937 0.0
N1990 N 0.26363 0.78929 0.03125 0.0
N1991 N 0.25339 0.80216 0.04899 0.0
C1992 C 0.25369 0.78927 0.04179 0.0
C1993 C 0.26357 0.81068 0.04268 0.0
C1994 C 0.26994 0.80268 0.03176 0.0
O1995 O 0.27018 0.75661 0.033 0.0
C1996 C 0.24934 0.78407 0.99768 0.0
O1997 O 0.25806 0.79509 1.00133 0.0
H1998 H 0.24673 0.77993 0.04404 0.0
H1999 H 0.27854 0.80634 0.02474 0.0
N2000 N 0.28352 0.77445 0.00805 0.0
N2001 N 0.29763 0.76881 0.98935 0.0
C2002 C 0.28446 0.76707 0.99538 0.0
C2003 C 0.29658 0.78118 0.01023 0.0
C2004 C 0.30536 0.77767 0.99868 0.0
C2005 C 0.27984 0.75968 0.04302 0.0
O2006 O 0.28647 0.77249 0.04261 0.0
H2007 H 0.27575 0.76009 0.99096 0.0
H2008 H 0.29962 0.78788 0.01963 0.0
O2009 O 0.25073 0.77205 1.00475 0.0
H2010 H 0.2664 0.8218 0.04588 0.0
H2011 H 0.31655 0.78127 0.99733 0.0
Cu2012 Cu 0.0156 0.25368 0.27806 0.0
N2013 N 0.02732 0.23709 0.27604 0.0
N2014 N 0.04525 0.22349 0.26719 0.0
C2015 C 0.03885 0.23675 0.26726 0.0
C2016 C 0.0374 0.21512 0.27631 0.0
C2017 C 0.02636 0.22355 0.28179 0.0
O2018 O 0.02918 0.2702 0.27998 0.0
C2019 C 0.99449 0.24216 0.25979 0.0
O2020 O 0.99697 0.23152 0.26919 0.0
H2021 H 0.04222 0.24601 0.26074 0.0
H2022 H 0.01807 0.21992 0.28916 0.0
N2023 N 1.00412 0.25348 0.29461 0.0
N2024 N 0.98607 0.26022 0.30903 0.0
C2025 C 0.99314 0.26293 0.29658 0.0
C2026 C 1.00411 0.24452 0.30631 0.0
C2027 C 0.99288 0.2486 0.31519 0.0
C2028 C 0.03896 0.26833 0.29007 0.0
O2029 O 0.0383 0.25643 0.29812 0.0
H2030 H 0.99018 0.27143 0.2888 0.0
H2031 H 0.01167 0.23566 0.30828 0.0
O2032 O 1.00182 0.25405 0.2613 0.0
H2033 H 0.03946 0.20373 0.27884 0.0
H2034 H 0.99004 0.24353 0.32543 0.0
Cu2035 Cu 0.76033 0.0146 0.25851 0.0
N2036 N 0.77722 0.02641 0.25899 0.0
N2037 N 0.79183 0.04504 0.25279 0.0
C2038 C 0.77917 0.03775 0.24982 0.0
C2039 C 0.79816 0.038 0.2643 0.0
C2040 C 0.78917 0.02642 0.26804 0.0
O2041 O 0.74404 0.02842 0.25832 0.0
C2042 C 0.77182 0.99166 0.24407 0.0
O2043 O 0.77988 0.99244 0.25623 0.0
H2044 H 0.77123 0.04082 0.24133 0.0
H2045 H 0.79123 0.01862 0.27674 0.0
N2046 N 0.75839 1.00252 0.27503 0.0
N2047 N 0.75027 0.98376 0.28846 0.0
C2048 C 0.74968 0.99052 0.2753 0.0
C2049 C 0.76473 1.00342 0.28852 0.0
C2050 C 0.75975 0.9919 0.29681 0.0
C2051 C 0.74352 0.03576 0.2702 0.0
O2052 O 0.75331 0.03312 0.28069 0.0
H2053 H 0.74292 0.98694 0.26599 0.0
H2054 H 0.77234 0.0119 0.29216 0.0
O2055 O 0.76184 1.00118 0.24189 0.0
H2056 H 0.80858 0.04093 0.26954 0.0
H2057 H 0.76302 0.98961 0.30807 0.0
Cu2058 Cu 1.00053 0.76398 0.26588 0.0
N2059 N 0.98854 0.78061 0.26571 0.0
N2060 N 0.97069 0.7955 0.25753 0.0
C2061 C 0.9797 0.7844 0.25425 0.0
C2062 C 0.97404 0.79884 0.27166 0.0
C2063 C 0.98497 0.78961 0.27668 0.0
O2064 O 0.98703 0.74755 0.26892 0.0
C2065 C 0.0179 0.77605 0.24526 0.0
O2066 O 0.01564 0.7872 0.25397 0.0
H2067 H 0.97934 0.77854 0.24393 0.0
H2068 H 0.9894 0.78913 0.28776 0.0
N2069 N 0.01541 0.76363 0.28062 0.0
N2070 N 0.03609 0.75614 0.29207 0.0
C2071 C 0.02699 0.7546 0.2802 0.0
C2072 C 0.01733 0.77126 0.29317 0.0
C2073 C 0.03002 0.7666 0.30028 0.0
C2074 C 0.98242 0.74642 0.28192 0.0
O2075 O 0.98781 0.75539 0.29202 0.0
H2076 H 0.02854 0.74686 0.27142 0.0
H2077 H 0.01006 0.77953 0.29705 0.0
O2078 O 0.01141 0.76391 0.24781 0.0
H2079 H 0.96874 0.80711 0.27805 0.0
H2080 H 0.03449 0.77071 0.31063 0.0
Cu2081 Cu 0.24104 0.01189 0.27229 0.0
N2082 N 0.24309 0.02223 0.28992 0.0
N2083 N 0.25192 0.03906 0.30573 0.0
C2084 C 0.25301 0.03301 0.29234 0.0
C2085 C 0.24095 0.03164 0.31207 0.0
C2086 C 0.23547 0.02127 0.30224 0.0
O2087 O 0.24257 0.02609 0.25641 0.0
C2088 C 0.25456 0.98728 0.28264 0.0
O2089 O 0.24331 0.98807 0.29119 0.0
H2090 H 0.26084 0.03637 0.28434 0.0
H2091 H 0.22648 0.01372 0.30387 0.0
N2092 N 0.22281 1.00241 0.27003 0.0
N2093 N 0.20631 0.98541 0.263 0.0
C2094 C 0.22062 0.98849 0.26548 0.0
C2095 C 0.20936 0.0083 0.27039 0.0
C2096 C 0.19914 0.99783 0.26594 0.0
C2097 C 0.23545 0.03789 0.25809 0.0
O2098 O 0.22785 0.03942 0.26994 0.0
H2099 H 0.22937 0.98096 0.26331 0.0
H2100 H 0.20715 0.01955 0.27317 0.0
O2101 O 0.25614 0.99704 0.27285 0.0
H2102 H 0.23693 0.0338 0.32287 0.0
H2103 H 0.18742 0.99927 0.26469 0.0
Cu2104 Cu 0.02203 0.75905 0.76526 0.0
N2105 N 0.03474 0.74316 0.76434 0.0
N2106 N 0.05363 0.73014 0.75667 0.0
C2107 C 0.04655 0.74304 0.75593 0.0
C2108 C 0.04594 0.72182 0.76598 0.0
C2109 C 0.03429 0.72989 0.77072 0.0
O2110 O 0.03459 0.77599 0.76932 0.0
C2111 C 1.00492 0.74802 0.74249 0.0
O2112 O 0.00883 0.73592 0.74926 0.0
H2113 H 0.0496 0.75215 0.74906 0.0
H2114 H 0.02594 0.7262 0.778 0.0
N2115 N 0.00827 0.75753 0.7799 0.0
N2116 N 0.98827 0.76336 0.79201 0.0
C2117 C 0.99603 0.7656 0.7799 0.0
C2118 C 0.00825 0.74978 0.79244 0.0
C2119 C 0.99593 0.75342 0.79998 0.0
C2120 C 0.04014 0.77663 0.78229 0.0
O2121 O 0.03637 0.76661 0.79179 0.0
H2122 H 0.99318 0.77339 0.77137 0.0
H2123 H 0.01679 0.74241 0.79611 0.0
O2124 O 0.01031 0.76015 0.74712 0.0
H2125 H 0.04851 0.7107 0.76915 0.0
H2126 H 0.99294 0.74919 0.81055 0.0
Cu2127 Cu 0.27301 0.01465 0.76419 0.0
N2128 N 0.27156 0.02563 0.747 0.0
N2129 N 0.27851 0.04371 0.7322 0.0
C2130 C 0.27567 0.03981 0.74606 0.0
C2131 C 0.27606 0.03155 0.72406 0.0
C2132 C 0.27175 0.02041 0.73322 0.0
O2133 O 0.27383 0.02945 0.77986 0.0
C2134 C 0.29352 0.99073 0.76722 0.0
O2135 O 0.28708 0.9871 0.77934 0.0
H2136 H 0.27821 0.04664 0.75551 0.0
H2137 H 0.27036 0.00898 0.73029 0.0
N2138 N 0.25716 1.00155 0.7659 0.0
N2139 N 0.24379 0.9829 0.77444 0.0
C2140 C 0.25485 0.9925 0.77728 0.0
C2141 C 0.24712 0.99759 0.7555 0.0
C2142 C 0.23886 0.98609 0.76072 0.0
C2143 C 0.26359 0.03127 0.78884 0.0
O2144 O 0.2531 0.02142 0.78957 0.0
H2145 H 0.26151 0.99262 0.78729 0.0
H2146 H 0.2462 1.00236 0.74468 0.0
O2147 O 0.29036 1.00283 0.76101 0.0
H2148 H 0.27827 0.03054 0.71253 0.0
H2149 H 0.23008 0.98038 0.75478 0.0
Cu2150 Cu 0.03198 0.27229 0.77309 0.0
N2151 N 0.02009 0.28883 0.77414 0.0
N2152 N 1.00115 0.30322 0.76794 0.0
C2153 C 0.00727 0.28992 0.76653 0.0
C2154 C 0.01056 0.31084 0.77685 0.0
C2155 C 0.02223 0.30192 0.78069 0.0
O2156 O 0.01798 0.25594 0.77196 0.0
C2157 C 0.05468 0.28519 0.75948 0.0
O2158 O 0.0546 0.29195 0.77217 0.0
H2159 H 1.00283 0.28124 0.75958 0.0
H2160 H 0.03174 0.3049 0.78745 0.0
N2161 N 0.04451 0.26925 0.78955 0.0
N2162 N 0.06324 0.25995 0.80288 0.0
C2163 C 0.05579 0.25983 0.78985 0.0
C2164 C 0.04483 0.27563 0.80284 0.0
C2165 C 0.05633 0.26986 0.81111 0.0
C2166 C 0.01125 0.25424 0.78388 0.0
O2167 O 0.01496 0.2627 0.79505 0.0
H2168 H 0.05842 0.25298 0.78064 0.0
H2169 H 0.03729 0.28393 0.80626 0.0
O2170 O 0.04487 0.27542 0.75667 0.0
H2171 H 0.00919 0.32209 0.78024 0.0
H2172 H 0.05952 0.27297 0.82221 0.0
Cu2173 Cu 0.76965 0.01611 0.75059 0.0
N2174 N 0.77354 0.02637 0.76799 0.0
N2175 N 0.7834 0.04375 0.78258 0.0
C2176 C 0.7826 0.03805 0.76895 0.0
C2177 C 0.77455 0.03518 0.79058 0.0
C2178 C 0.76846 0.02446 0.78152 0.0
O2179 O 0.7679 0.03077 0.73507 0.0
C2180 C 0.78392 0.99134 0.75865 0.0
O2181 O 0.77325 0.99192 0.76791 0.0
H2182 H 0.78853 0.04221 0.75975 0.0
H2183 H 0.76081 0.01596 0.78455 0.0
N2184 N 0.75192 1.00575 0.75055 0.0
N2185 N 0.73586 0.98787 0.74484 0.0
C2186 C 0.74922 0.99363 0.74249 0.0
C2187 C 0.7398 0.00789 0.75821 0.0
C2188 C 0.72983 0.99686 0.75468 0.0
C2189 C 0.75897 0.04091 0.7381 0.0
O2190 O 0.75214 0.04015 0.75052 0.0
H2191 H 0.75702 0.98912 0.73511 0.0
H2192 H 0.73839 0.01669 0.76595 0.0
O2193 O 0.78506 1.00155 0.7492 0.0
H2194 H 0.77241 0.03671 0.80206 0.0
H2195 H 0.71917 0.99537 0.75931 0.0
Cu2196 Cu 0.26603 0.76352 0.50404 0.0
N2197 N 0.28097 0.76733 0.51809 0.0
N2198 N 0.29195 0.77849 0.5374 0.0
C2199 C 0.27969 0.77732 0.52883 0.0
C2200 C 0.30138 0.76882 0.53183 0.0
C2201 C 0.29461 0.76203 0.51984 0.0
O2202 O 0.24816 0.76253 0.51524 0.0
C2203 C 0.27836 0.77719 0.481 0.0
O2204 O 0.28757 0.76656 0.48399 0.0
H2205 H 0.26987 0.78363 0.5303 0.0
H2206 H 0.29947 0.75408 0.51276 0.0
N2207 N 0.26748 0.74571 0.49383 0.0
N2208 N 0.26195 0.729 0.47652 0.0
C2209 C 0.25821 0.7418 0.48269 0.0
C2210 C 0.2774 0.73491 0.49483 0.0
C2211 C 0.27405 0.72462 0.4841 0.0
C2212 C 0.24662 0.75057 0.52229 0.0
O2213 O 0.25639 0.74026 0.52083 0.0
H2214 H 0.24912 0.74849 0.47892 0.0
H2215 H 0.28646 0.73452 0.50271 0.0
O2216 O 0.26731 0.77872 0.48905 0.0
H2217 H 0.3125 0.7671 0.53585 0.0
H2218 H 0.28001 0.71467 0.48207 0.0
Cu2219 Cu 0.75133 0.7566 0.51141 0.0
N2220 N 0.75148 0.74153 0.4975 0.0
N2221 N 0.75934 0.72832 0.47865 0.0
C2222 C 0.76312 0.73752 0.48979 0.0
C2223 C 0.74472 0.72629 0.47964 0.0
C2224 C 0.73992 0.7345 0.49117 0.0
O2225 O 0.74918 0.77482 0.50065 0.0
C2226 C 0.7683 0.74335 0.53237 0.0
O2227 O 0.7577 0.73373 0.53003 0.0
H2228 H 0.77398 0.74208 0.49175 0.0
H2229 H 0.72868 0.73588 0.49419 0.0
N2230 N 0.73511 0.75557 0.52339 0.0
N2231 N 0.72051 0.76209 0.54143 0.0
C2232 C 0.73152 0.76622 0.53279 0.0
C2233 C 0.72602 0.74427 0.52612 0.0
C2234 C 0.717 0.74826 0.53726 0.0
C2235 C 0.75601 0.7779 0.48912 0.0
O2236 O 0.76742 0.77008 0.48579 0.0
H2237 H 0.73742 0.77653 0.53377 0.0
H2238 H 0.72635 0.73367 0.52087 0.0
O2239 O 0.76848 0.7549 0.52454 0.0
H2240 H 0.73783 0.71972 0.47229 0.0
H2241 H 0.70873 0.74142 0.5421 0.0
Cu2242 Cu 0.77253 0.25892 0.50923 0.0
N2243 N 0.77312 0.24384 0.49528 0.0
N2244 N 0.76641 0.23012 0.47582 0.0
C2245 C 0.76289 0.24142 0.48454 0.0
C2246 C 0.7794 0.22528 0.48124 0.0
C2247 C 0.78358 0.23384 0.49314 0.0
O2248 O 0.77359 0.27696 0.49791 0.0
C2249 C 0.75205 0.2437 0.52498 0.0
O2250 O 0.75979 0.23281 0.52006 0.0
H2251 H 0.75306 0.24786 0.48316 0.0
H2252 H 0.7937 0.23302 0.49951 0.0
N2253 N 0.78811 0.25834 0.52313 0.0
N2254 N 0.80223 0.26534 0.54248 0.0
C2255 C 0.79263 0.26961 0.53176 0.0
C2256 C 0.79499 0.24651 0.52863 0.0
C2257 C 0.80378 0.25079 0.54046 0.0
C2258 C 0.7861 0.28016 0.49296 0.0
O2259 O 0.79733 0.272 0.49686 0.0
H2260 H 0.78821 0.28053 0.53075 0.0
H2261 H 0.7931 0.23539 0.52493 0.0
O2262 O 0.75506 0.25667 0.52077 0.0
H2263 H 0.78564 0.21647 0.47664 0.0
H2264 H 0.81042 0.24362 0.54731 0.0
Cu2265 Cu 0.27182 0.28127 0.51938 0.0
N2266 N 0.26976 0.29934 0.52864 0.0
N2267 N 0.26235 0.31509 0.54556 0.0
C2268 C 0.26191 0.30114 0.54069 0.0
C2269 C 0.27075 0.32242 0.53605 0.0
C2270 C 0.27534 0.31265 0.52562 0.0
O2271 O 0.27448 0.26682 0.53493 0.0
C2272 C 0.25516 0.28741 0.49512 0.0
O2273 O 0.26609 0.29681 0.49437 0.0
H2274 H 0.25595 0.29229 0.54575 0.0
H2275 H 0.28233 0.31504 0.51658 0.0
N2276 N 0.28829 0.28019 0.50784 0.0
N2277 N 0.30211 0.27207 0.48986 0.0
C2278 C 0.28916 0.27093 0.49646 0.0
C2279 C 0.30118 0.28744 0.50861 0.0
C2280 C 0.30978 0.2824 0.49752 0.0
C2281 C 0.28454 0.27045 0.54431 0.0
O2282 O 0.29179 0.28275 0.54237 0.0
H2283 H 0.28046 0.26336 0.49322 0.0
H2284 H 0.30413 0.29575 0.51665 0.0
O2285 O 0.25483 0.27875 0.50606 0.0
H2286 H 0.27363 0.33393 0.53674 0.0
H2287 H 0.32073 0.28617 0.49518 0.0
Cu2288 Cu 0.78447 0.518 0.76081 0.0
N2289 N 0.80063 0.53063 0.75966 0.0
N2290 N 0.81341 0.54998 0.75183 0.0
C2291 C 0.80043 0.54278 0.75134 0.0
C2292 C 0.82217 0.54195 0.76085 0.0
C2293 C 0.81424 0.53001 0.7657 0.0
O2294 O 0.76764 0.53086 0.76225 0.0
C2295 C 0.79548 0.49536 0.74597 0.0
O2296 O 0.80468 0.49708 0.75721 0.0
H2297 H 0.79095 0.54606 0.74476 0.0
H2298 H 0.81817 0.52146 0.77295 0.0
N2299 N 0.78435 0.50592 0.7774 0.0
N2300 N 0.77678 0.48735 0.7913 0.0
C2301 C 0.77504 0.49449 0.77845 0.0
C2302 C 0.79236 0.50608 0.79004 0.0
C2303 C 0.78765 0.49464 0.79869 0.0
C2304 C 0.76799 0.53789 0.77435 0.0
O2305 O 0.77895 0.53567 0.78372 0.0
H2306 H 0.76699 0.49161 0.76995 0.0
H2307 H 0.80092 0.51395 0.7928 0.0
O2308 O 0.78494 0.50435 0.74434 0.0
H2309 H 0.83347 0.54452 0.76382 0.0
H2310 H 0.792 0.49182 0.80947 0.0
Cu2311 Cu 0.28083 0.52329 0.75644 0.0
N2312 N 0.29802 0.51235 0.75868 0.0
N2313 N 0.31308 0.49438 0.76597 0.0
C2314 C 0.29932 0.49967 0.76612 0.0
C2315 C 0.32074 0.50423 0.75819 0.0
C2316 C 0.31144 0.5153 0.75374 0.0
O2317 O 0.26435 0.50953 0.75726 0.0
C2318 C 0.29066 0.5492 0.76888 0.0
O2319 O 0.29807 0.54884 0.75681 0.0
H2320 H 0.29034 0.49456 0.7717 0.0
H2321 H 0.31428 0.52483 0.74738 0.0
N2322 N 0.27947 0.53247 0.73811 0.0
N2323 N 0.27254 0.54865 0.72095 0.0
C2324 C 0.27018 0.54335 0.73447 0.0
C2325 C 0.28786 0.53069 0.72641 0.0
C2326 C 0.28367 0.54074 0.71583 0.0
C2327 C 0.2651 0.49883 0.74834 0.0
O2328 O 0.2763 0.4983 0.7397 0.0
H2329 H 0.26226 0.54769 0.74184 0.0
H2330 H 0.29659 0.52284 0.72571 0.0
O2331 O 0.28178 0.53868 0.77141 0.0
H2332 H 0.33221 0.50344 0.75573 0.0
H2333 H 0.28847 0.54218 0.70525 0.0
Cu2334 Cu 0.26737 0.50887 0.26941 0.0
N2335 N 0.26621 0.5001 0.28787 0.0
N2336 N 0.2589 0.48385 0.30443 0.0
C2337 C 0.25695 0.48899 0.29069 0.0
C2338 C 0.26979 0.4921 0.31058 0.0
C2339 C 0.2742 0.50223 0.30036 0.0
O2340 O 0.26841 0.49283 0.25525 0.0
C2341 C 0.25243 0.53334 0.27626 0.0
O2342 O 0.2642 0.53409 0.2849 0.0
H2343 H 0.24926 0.48441 0.2826 0.0
H2344 H 0.28271 0.51043 0.30192 0.0
N2345 N 0.28426 0.52026 0.26703 0.0
N2346 N 0.29836 0.53765 0.25741 0.0
C2347 C 0.28535 0.53056 0.25658 0.0
C2348 C 0.29713 0.5207 0.27466 0.0
C2349 C 0.30582 0.53154 0.2688 0.0
C2350 C 0.27826 0.48354 0.25878 0.0
O2351 O 0.28625 0.48577 0.27081 0.0
H2352 H 0.27659 0.53304 0.24874 0.0
H2353 H 0.30003 0.51366 0.28378 0.0
O2354 O 0.25086 0.52234 0.26768 0.0
H2355 H 0.2742 0.49088 0.32166 0.0
H2356 H 0.3168 0.53459 0.27252 0.0
Cu2357 Cu 0.76617 0.51095 0.24713 0.0
N2358 N 0.78157 0.49749 0.24724 0.0
N2359 N 0.7951 0.47867 0.25535 0.0
C2360 C 0.78367 0.48746 0.2579 0.0
C2361 C 0.80043 0.48336 0.24255 0.0
C2362 C 0.7921 0.49502 0.2376 0.0
O2363 O 0.74848 0.49881 0.24651 0.0
C2364 C 0.78176 0.52875 0.26608 0.0
O2365 O 0.79187 0.52466 0.25707 0.0
H2366 H 0.77672 0.48647 0.26722 0.0
H2367 H 0.79373 0.5012 0.22772 0.0
N2368 N 0.76551 0.52408 0.23129 0.0
N2369 N 0.75857 0.54392 0.21847 0.0
C2370 C 0.75801 0.53673 0.23137 0.0
C2371 C 0.77109 0.52325 0.21786 0.0
C2372 C 0.76682 0.53544 0.20994 0.0
C2373 C 0.74537 0.49288 0.23414 0.0
O2374 O 0.75341 0.49626 0.22295 0.0
H2375 H 0.75189 0.54033 0.24063 0.0
H2376 H 0.77741 0.51425 0.21386 0.0
O2377 O 0.76887 0.52343 0.26432 0.0
H2378 H 0.80978 0.47882 0.23724 0.0
H2379 H 0.76953 0.53782 0.19874 0.0
Cu2380 Cu 0.52559 0.25674 0.76798 0.0
N2381 N 0.5162 0.25794 0.78586 0.0
N2382 N 0.49926 0.26506 0.80146 0.0
C2383 C 0.50384 0.26556 0.78757 0.0
C2384 C 0.50928 0.25685 0.80884 0.0
C2385 C 0.51972 0.25247 0.79917 0.0
O2386 O 0.50978 0.25577 0.75291 0.0
C2387 C 0.55059 0.27137 0.77665 0.0
O2388 O 0.55106 0.25941 0.78462 0.0
H2389 H 0.49848 0.27159 0.77876 0.0
H2390 H 0.52924 0.24589 0.80173 0.0
N2391 N 0.53663 0.23976 0.76574 0.0
N2392 N 0.55381 0.22552 0.75646 0.0
C2393 C 0.54617 0.23802 0.75497 0.0
C2394 C 0.53815 0.22785 0.77432 0.0
C2395 C 0.54883 0.21907 0.76865 0.0
C2396 C 0.50055 0.24552 0.75538 0.0
O2397 O 0.50294 0.23703 0.7668 0.0
H2398 H 0.54792 0.24613 0.74655 0.0
H2399 H 0.53219 0.22585 0.78415 0.0
O2400 O 0.53963 0.27317 0.76777 0.0
H2401 H 0.50905 0.2541 0.82035 0.0
H2402 H 0.55272 0.20882 0.77319 0.0
Cu2403 Cu 0.51318 0.753 0.75796 0.0
N2404 N 0.52688 0.73807 0.75674 0.0
N2405 N 0.54627 0.72463 0.7636 0.0
C2406 C 0.53521 0.73307 0.76807 0.0
C2407 C 0.54458 0.72407 0.74885 0.0
C2408 C 0.53267 0.73242 0.74466 0.0
O2409 O 0.52386 0.77145 0.75784 0.0
C2410 C 0.49285 0.73791 0.77304 0.0
O2411 O 0.49471 0.72942 0.76165 0.0
H2412 H 0.53385 0.73659 0.77925 0.0
H2413 H 0.52911 0.73497 0.73356 0.0
N2414 N 0.50073 0.75389 0.74142 0.0
N2415 N 0.48328 0.76309 0.7265 0.0
C2416 C 0.49217 0.76545 0.73837 0.0
C2417 C 0.49721 0.74379 0.73113 0.0
C2418 C 0.48641 0.74944 0.72189 0.0
C2419 C 0.53618 0.77377 0.76437 0.0
O2420 O 0.54066 0.76479 0.77476 0.0
H2421 H 0.49207 0.77518 0.74513 0.0
H2422 H 0.50182 0.73295 0.73062 0.0
O2423 O 0.50073 0.74945 0.77448 0.0
H2424 H 0.55179 0.71857 0.74151 0.0
H2425 H 0.48117 0.74389 0.71261 0.0
Cu2426 Cu 0.5118 0.76778 0.26209 0.0
N2427 N 0.5013 0.785 0.26439 0.0
N2428 N 0.48332 0.79914 0.27237 0.0
C2429 C 0.48859 0.78543 0.2714 0.0
C2430 C 0.4932 0.8077 0.26561 0.0
C2431 C 0.50429 0.79893 0.2607 0.0
O2432 O 0.49662 0.75259 0.26024 0.0
C2433 C 0.527 0.77409 0.28945 0.0
O2434 O 0.51545 0.78166 0.29284 0.0
H2435 H 0.48363 0.77582 0.27617 0.0
H2436 H 0.51392 0.80248 0.25506 0.0
N2437 N 0.52292 0.76778 0.24532 0.0
N2438 N 0.54071 0.76068 0.23076 0.0
C2439 C 0.53409 0.75854 0.24355 0.0
C2440 C 0.5225 0.77627 0.23328 0.0
C2441 C 0.53355 0.77193 0.22425 0.0
C2442 C 0.49667 0.74171 0.25151 0.0
O2443 O 0.50882 0.73823 0.24512 0.0
H2444 H 0.53736 0.7504 0.2516 0.0
H2445 H 0.51476 0.78498 0.23121 0.0
O2446 O 0.52647 0.76606 0.27802 0.0
H2447 H 0.49252 0.81945 0.26429 0.0
H2448 H 0.53597 0.77649 0.21366 0.0
Cu2449 Cu 0.51112 0.25239 0.25695 0.0
N2450 N 0.49804 0.23649 0.25703 0.0
N2451 N 0.47941 0.22267 0.26451 0.0
C2452 C 0.48756 0.23488 0.26693 0.0
C2453 C 0.48496 0.21631 0.2526 0.0
C2454 C 0.49653 0.22483 0.24805 0.0
O2455 O 0.4989 0.26986 0.25709 0.0
C2456 C 0.53105 0.23775 0.27446 0.0
O2457 O 0.52667 0.22741 0.26526 0.0
H2458 H 0.48583 0.24268 0.27563 0.0
H2459 H 0.50343 0.22251 0.23898 0.0
N2460 N 0.52259 0.2531 0.24037 0.0
N2461 N 0.54098 0.26035 0.22644 0.0
C2462 C 0.53512 0.26092 0.23979 0.0
C2463 C 0.52043 0.24731 0.2269 0.0
C2464 C 0.53176 0.25177 0.21828 0.0
C2465 C 0.49144 0.27187 0.24521 0.0
O2466 O 0.49301 0.26263 0.23437 0.0
H2467 H 0.53954 0.26732 0.24892 0.0
H2468 H 0.51108 0.24071 0.22339 0.0
O2469 O 0.52512 0.25031 0.27342 0.0
H2470 H 0.4811 0.20613 0.2477 0.0
H2471 H 0.53303 0.24898 0.20688 0.0
C2472 C 0.2206 0.21824 0.1165 0.0
C2473 C 0.20639 0.21237 0.11689 0.0
C2474 C 0.22481 0.22726 0.10489 0.0
C2475 C 0.21465 0.2302 0.09323 0.0
C2476 C 0.20029 0.22425 0.09356 0.0
C2477 C 0.19628 0.21553 0.10547 0.0
C2478 C 0.24013 0.23362 0.1051 0.0
C2479 C 0.18924 0.22687 0.0812 0.0
C2480 C 0.22167 0.26295 0.06853 0.0
C2481 C 0.22878 0.25638 0.05689 0.0
C2482 C 0.21699 0.25457 0.08044 0.0
C2483 C 0.21919 0.23923 0.08053 0.0
C2484 C 0.22602 0.23251 0.06859 0.0
C2485 C 0.23087 0.2412 0.057 0.0
C2486 C 0.21003 0.26218 0.09309 0.0
C2487 C 0.22828 0.21616 0.06809 0.0
H2488 H 0.22837 0.2159 0.12541 0.0
H2489 H 0.18532 0.2109 0.10573 0.0
H2490 H 0.24609 0.22949 0.09558 0.0
H2491 H 0.23968 0.24572 0.10411 0.0
H2492 H 0.24648 0.23081 0.11528 0.0
H2493 H 0.17853 0.22148 0.08314 0.0
H2494 H 0.18747 0.23879 0.07975 0.0
H2495 H 0.1935 0.22265 0.07079 0.0
H2496 H 0.2202 0.27471 0.06851 0.0
H2497 H 0.23624 0.23611 0.04793 0.0
H2498 H 0.2167 0.26037 0.10329 0.0
H2499 H 0.19899 0.25748 0.09485 0.0
H2500 H 0.20898 0.27416 0.09128 0.0
H2501 H 0.23565 0.21277 0.07735 0.0
H2502 H 0.23312 0.21257 0.0577 0.0
H2503 H 0.21768 0.21033 0.06933 0.0
C2504 C 0.83133 0.22303 0.1015 0.0
C2505 C 0.82294 0.21906 0.11349 0.0
C2506 C 0.82482 0.22919 0.08884 0.0
C2507 C 0.80952 0.23149 0.08812 0.0
C2508 C 0.80091 0.22716 0.10003 0.0
C2509 C 0.80772 0.22094 0.11256 0.0
C2510 C 0.83438 0.23351 0.07634 0.0
C2511 C 0.78457 0.22946 0.0997 0.0
C2512 C 0.79596 0.26136 0.06215 0.0
C2513 C 0.79089 0.25322 0.04994 0.0
C2514 C 0.8018 0.2544 0.07473 0.0
C2515 C 0.80266 0.23893 0.07511 0.0
C2516 C 0.79746 0.23064 0.06287 0.0
C2517 C 0.79162 0.23787 0.05045 0.0
C2518 C 0.80719 0.26364 0.08757 0.0
C2519 C 0.79824 0.21412 0.06283 0.0
H2520 H 0.84307 0.22139 0.10206 0.0
H2521 H 0.8012 0.218 0.12183 0.0
H2522 H 0.8303 0.22822 0.06604 0.0
H2523 H 0.8339 0.24553 0.07465 0.0
H2524 H 0.846 0.23041 0.07837 0.0
H2525 H 0.77934 0.22485 0.10951 0.0
H2526 H 0.78222 0.24135 0.09912 0.0
H2527 H 0.77943 0.22431 0.08977 0.0
H2528 H 0.79538 0.2732 0.06191 0.0
H2529 H 0.78772 0.23147 0.04108 0.0
H2530 H 0.81909 0.26194 0.0896 0.0
H2531 H 0.80158 0.26025 0.09762 0.0
H2532 H 0.8053 0.27551 0.08574 0.0
H2533 H 0.80983 0.21066 0.06398 0.0
H2534 H 0.79336 0.20925 0.05262 0.0
H2535 H 0.79244 0.20958 0.07231 0.0
C2536 C 0.7955 0.82285 0.09458 0.0
C2537 C 0.8103 0.82549 0.09839 0.0
C2538 C 0.79128 0.81644 0.08109 0.0
C2539 C 0.8021 0.81255 0.07106 0.0
C2540 C 0.81709 0.81463 0.07507 0.0
C2541 C 0.82101 0.82106 0.08868 0.0
C2542 C 0.77517 0.81434 0.07734 0.0
C2543 C 0.82897 0.81064 0.06473 0.0
C2544 C 0.78844 0.78857 0.03906 0.0
C2545 C 0.78474 0.7992 0.02852 0.0
C2546 C 0.79478 0.79264 0.05278 0.0
C2547 C 0.79755 0.80765 0.05594 0.0
C2548 C 0.7947 0.81826 0.04495 0.0
C2549 C 0.78831 0.81392 0.03144 0.0
C2550 C 0.7977 0.78097 0.06416 0.0
C2551 C 0.79761 0.83435 0.04774 0.0
H2552 H 0.78717 0.82596 0.10213 0.0
H2553 H 0.83247 0.82312 0.09148 0.0
H2554 H 0.77195 0.82154 0.06802 0.0
H2555 H 0.77292 0.80287 0.07385 0.0
H2556 H 0.7682 0.81692 0.08671 0.0
H2557 H 0.84006 0.8114 0.07006 0.0
H2558 H 0.8272 0.79935 0.06049 0.0
H2559 H 0.82857 0.81813 0.05517 0.0
H2560 H 0.78563 0.77719 0.03693 0.0
H2561 H 0.78559 0.82219 0.02331 0.0
H2562 H 0.78966 0.78193 0.07294 0.0
H2563 H 0.80877 0.78246 0.06934 0.0
H2564 H 0.79681 0.76977 0.05944 0.0
H2565 H 0.79007 0.8384 0.05609 0.0
H2566 H 0.79604 0.84105 0.03767 0.0
H2567 H 0.80896 0.8361 0.05214 0.0
C2568 C 0.19333 0.82009 0.10818 0.0
C2569 C 0.2002 0.82484 0.12131 0.0
C2570 C 0.20161 0.81605 0.09612 0.0
C2571 C 0.21711 0.81663 0.0973 0.0
C2572 C 0.22408 0.82105 0.11068 0.0
C2573 C 0.21556 0.82512 0.12248 0.0
C2574 C 0.19377 0.81144 0.08203 0.0
C2575 C 0.24057 0.82164 0.11247 0.0
C2576 C 0.23968 0.7949 0.07074 0.0
C2577 C 0.24423 0.80581 0.06102 0.0
C2578 C 0.23072 0.79823 0.08247 0.0
C2579 C 0.22612 0.81282 0.08453 0.0
C2580 C 0.23058 0.82387 0.0747 0.0
C2581 C 0.23963 0.82025 0.06311 0.0
C2582 C 0.22637 0.78615 0.0928 0.0
C2583 C 0.22584 0.83955 0.07648 0.0
H2584 H 0.18147 0.81995 0.10719 0.0
H2585 H 0.22093 0.82858 0.13268 0.0
H2586 H 0.19662 0.81911 0.07312 0.0
H2587 H 0.19739 0.80039 0.07874 0.0
H2588 H 0.18168 0.81124 0.08298 0.0
H2589 H 0.24429 0.82491 0.12372 0.0
H2590 H 0.24524 0.81078 0.10999 0.0
H2591 H 0.24511 0.82959 0.1046 0.0
H2592 H 0.24336 0.78377 0.06934 0.0
H2593 H 0.24296 0.82869 0.05555 0.0
H2594 H 0.21427 0.78544 0.09328 0.0
H2595 H 0.23068 0.78864 0.10403 0.0
H2596 H 0.23055 0.7753 0.08946 0.0
H2597 H 0.21372 0.8401 0.07646 0.0
H2598 H 0.22986 0.84676 0.06764 0.0
H2599 H 0.23003 0.8439 0.08718 0.0
C2600 C 0.2224 0.80656 0.91838 0.0
C2601 C 0.20721 0.80705 0.91567 0.0
C2602 C 0.22834 0.80106 0.93167 0.0
C2603 C 0.21889 0.79591 0.94258 0.0
C2604 C 0.20356 0.79596 0.93974 0.0
C2605 C 0.19792 0.80155 0.92638 0.0
C2606 C 0.24475 0.80121 0.93422 0.0
C2607 C 0.19307 0.79062 0.95105 0.0
C2608 C 0.23656 0.77467 0.97459 0.0
C2609 C 0.23928 0.78595 0.98476 0.0
C2610 C 0.22947 0.77757 0.96093 0.0
C2611 C 0.22498 0.79205 0.95748 0.0
C2612 C 0.22702 0.80324 0.9681 0.0
C2613 C 0.23415 0.80006 0.98153 0.0
C2614 C 0.22747 0.76533 0.94992 0.0
C2615 C 0.22231 0.81879 0.96504 0.0
H2616 H 0.2297 0.81053 0.91012 0.0
H2617 H 0.18616 0.802 0.92452 0.0
H2618 H 0.24779 0.80899 0.94317 0.0
H2619 H 0.24856 0.79022 0.93771 0.0
H2620 H 0.25064 0.80449 0.92427 0.0
H2621 H 0.18161 0.78994 0.94662 0.0
H2622 H 0.19635 0.77966 0.95516 0.0
H2623 H 0.19344 0.7982 0.96056 0.0
H2624 H 0.24067 0.7638 0.97695 0.0
H2625 H 0.23619 0.80882 0.98938 0.0
H2626 H 0.23483 0.76723 0.94068 0.0
H2627 H 0.21608 0.76511 0.94533 0.0
H2628 H 0.23 0.75447 0.9548 0.0
H2629 H 0.22876 0.8234 0.95602 0.0
H2630 H 0.22386 0.82599 0.97478 0.0
H2631 H 0.21061 0.81901 0.96142 0.0
C2632 C 0.25128 0.20246 0.92682 0.0
C2633 C 0.23645 0.19839 0.92545 0.0
C2634 C 0.25657 0.21084 0.93883 0.0
C2635 C 0.24682 0.2151 0.94977 0.0
C2636 C 0.23205 0.21022 0.94885 0.0
C2637 C 0.22703 0.20202 0.93666 0.0
C2638 C 0.27235 0.21591 0.9393 0.0
C2639 C 0.22133 0.21435 0.96035 0.0
C2640 C 0.26003 0.23278 0.9858 0.0
C2641 C 0.25683 0.24752 0.98304 0.0
C2642 C 0.25725 0.22203 0.97494 0.0
C2643 C 0.2514 0.22624 0.96101 0.0
C2644 C 0.24893 0.24123 0.958 0.0
C2645 C 0.25156 0.25163 0.96907 0.0
C2646 C 0.25992 0.20615 0.97858 0.0
C2647 C 0.24298 0.24628 0.94324 0.0
H2648 H 0.25858 0.19973 0.91813 0.0
H2649 H 0.2156 0.19871 0.93572 0.0
H2650 H 0.27285 0.22782 0.93693 0.0
H2651 H 0.27741 0.21424 0.95037 0.0
H2652 H 0.27894 0.21009 0.93116 0.0
H2653 H 0.21079 0.20825 0.959 0.0
H2654 H 0.22605 0.21219 0.97148 0.0
H2655 H 0.21904 0.22624 0.95962 0.0
H2656 H 0.26407 0.22958 0.99662 0.0
H2657 H 0.24926 0.26306 0.96684 0.0
H2658 H 0.26633 0.20089 0.96995 0.0
H2659 H 0.24928 0.20022 0.97896 0.0
H2660 H 0.26583 0.2048 0.98931 0.0
H2661 H 0.24971 0.24189 0.93437 0.0
H2662 H 0.24277 0.25841 0.94233 0.0
H2663 H 0.23166 0.24201 0.94138 0.0
C2664 C 0.8189 0.21714 0.90162 0.0
C2665 C 0.83372 0.21866 0.89814 0.0
C2666 C 0.81346 0.22337 0.91435 0.0
C2667 C 0.82287 0.23191 0.92361 0.0
C2668 C 0.83757 0.23437 0.91969 0.0
C2669 C 0.84288 0.22755 0.90713 0.0
C2670 C 0.79779 0.22023 0.91824 0.0
C2671 C 0.84783 0.24379 0.92904 0.0
C2672 C 0.80451 0.2552 0.95225 0.0
C2673 C 0.80692 0.24681 0.9649 0.0
C2674 C 0.81 0.25073 0.93876 0.0
C2675 C 0.81759 0.2373 0.9379 0.0
C2676 C 0.81979 0.2287 0.95068 0.0
C2677 C 0.81464 0.23371 0.96407 0.0
C2678 C 0.80787 0.26044 0.92552 0.0
C2679 C 0.82737 0.2141 0.95018 0.0
H2680 H 0.81153 0.21077 0.89454 0.0
H2681 H 0.85434 0.22881 0.90469 0.0
H2682 H 0.79761 0.2141 0.92872 0.0
H2683 H 0.79185 0.2306 0.91987 0.0
H2684 H 0.79178 0.21369 0.90968 0.0
H2685 H 0.85824 0.2462 0.92353 0.0
H2686 H 0.84254 0.25429 0.93174 0.0
H2687 H 0.85046 0.23812 0.93952 0.0
H2688 H 0.79866 0.26542 0.95304 0.0
H2689 H 0.8164 0.22727 0.97393 0.0
H2690 H 0.80131 0.2546 0.91687 0.0
H2691 H 0.81864 0.26315 0.92088 0.0
H2692 H 0.80225 0.27081 0.92816 0.0
H2693 H 0.82157 0.20678 0.94216 0.0
H2694 H 0.82782 0.20858 0.96102 0.0
H2695 H 0.83872 0.2156 0.94646 0.0
C2696 C 0.80771 0.82725 0.89498 0.0
C2697 C 0.81066 0.84228 0.89345 0.0
C2698 C 0.79986 0.8219 0.90684 0.0
C2699 C 0.79476 0.8318 0.91742 0.0
C2700 C 0.79773 0.84697 0.91598 0.0
C2701 C 0.80566 0.85202 0.90403 0.0
C2702 C 0.79692 0.80564 0.90798 0.0
C2703 C 0.79248 0.85787 0.92704 0.0
C2704 C 0.76274 0.81915 0.93995 0.0
C2705 C 0.76979 0.81471 0.95307 0.0
C2706 C 0.7707 0.82492 0.92836 0.0
C2707 C 0.78613 0.82626 0.92987 0.0
C2708 C 0.79332 0.82198 0.94313 0.0
C2709 C 0.78507 0.81629 0.95457 0.0
C2710 C 0.76263 0.82936 0.91439 0.0
C2711 C 0.80975 0.82326 0.94518 0.0
H2712 H 0.81133 0.81966 0.88676 0.0
H2713 H 0.80805 0.86362 0.90306 0.0
H2714 H 0.80132 0.80145 0.91862 0.0
H2715 H 0.78494 0.80349 0.90762 0.0
H2716 H 0.80189 0.79937 0.89901 0.0
H2717 H 0.79578 0.86928 0.9244 0.0
H2718 H 0.78037 0.85731 0.92748 0.0
H2719 H 0.79695 0.85511 0.93812 0.0
H2720 H 0.75099 0.81781 0.93856 0.0
H2721 H 0.7906 0.81311 0.96472 0.0
H2722 H 0.76629 0.82258 0.90514 0.0
H2723 H 0.76518 0.84094 0.91176 0.0
H2724 H 0.75057 0.82809 0.91513 0.0
H2725 H 0.81513 0.81644 0.93691 0.0
H2726 H 0.81364 0.81974 0.95627 0.0
H2727 H 0.81333 0.83476 0.94344 0.0
C2728 C 0.10352 0.20474 0.20737 0.0
C2729 C 0.1167 0.19954 0.2136 0.0
C2730 C 0.0918 0.2085 0.21617 0.0
C2731 C 0.09333 0.2071 0.23159 0.0
C2732 C 0.10662 0.2019 0.23795 0.0
C2733 C 0.11813 0.19817 0.22889 0.0
C2734 C 0.07778 0.21395 0.20897 0.0
C2735 C 0.10872 0.20034 0.25434 0.0
C2736 C 0.06821 0.22959 0.25495 0.0
C2737 C 0.05754 0.21922 0.25868 0.0
C2738 C 0.07996 0.22578 0.24624 0.0
C2739 C 0.08106 0.21122 0.24108 0.0
C2740 C 0.07042 0.20064 0.24493 0.0
C2741 C 0.05881 0.20476 0.25372 0.0
C2742 C 0.09115 0.23735 0.24249 0.0
C2743 C 0.0712 0.18502 0.23961 0.0
H2744 H 0.10228 0.20566 0.19556 0.0
H2745 H 0.12836 0.19436 0.2338 0.0
H2746 H 0.06849 0.20674 0.21193 0.0
H2747 H 0.07537 0.22511 0.21302 0.0
H2748 H 0.07831 0.21432 0.19684 0.0
H2749 H 0.1197 0.19604 0.25755 0.0
H2750 H 0.10735 0.21112 0.25971 0.0
H2751 H 0.10026 0.19284 0.25863 0.0
H2752 H 0.06743 0.24072 0.25894 0.0
H2753 H 0.05053 0.19673 0.25642 0.0
H2754 H 0.09137 0.23875 0.23044 0.0
H2755 H 0.10223 0.23385 0.24627 0.0
H2756 H 0.08882 0.24812 0.24754 0.0
H2757 H 0.07068 0.18477 0.22746 0.0
H2758 H 0.06217 0.17807 0.24372 0.0
H2759 H 0.0818 0.18014 0.2432 0.0
C2760 C 0.80641 0.12126 0.21325 0.0
C2761 C 0.82076 0.12255 0.2084 0.0
C2762 C 0.80177 0.10869 0.22075 0.0
C2763 C 0.81163 0.09698 0.22317 0.0
C2764 C 0.8261 0.09818 0.21813 0.0
C2765 C 0.83052 0.11101 0.21095 0.0
C2766 C 0.78636 0.10798 0.22619 0.0
C2767 C 0.83685 0.08584 0.2202 0.0
C2768 C 0.80424 0.06921 0.25327 0.0
C2769 C 0.79716 0.05788 0.24538 0.0
C2770 C 0.80892 0.08204 0.24622 0.0
C2771 C 0.80677 0.08342 0.23084 0.0
C2772 C 0.79987 0.07186 0.22279 0.0
C2773 C 0.79501 0.05931 0.23018 0.0
C2774 C 0.81596 0.09421 0.25525 0.0
C2775 C 0.79764 0.07272 0.20636 0.0
H2776 H 0.79888 0.13023 0.21141 0.0
H2777 H 0.84159 0.11195 0.2071 0.0
H2778 H 0.78033 0.09862 0.22101 0.0
H2779 H 0.78662 0.10609 0.2382 0.0
H2780 H 0.78018 0.11816 0.2238 0.0
H2781 H 0.84761 0.0884 0.21543 0.0
H2782 H 0.83862 0.0835 0.23203 0.0
H2783 H 0.83234 0.07571 0.21498 0.0
H2784 H 0.80576 0.06819 0.26504 0.0
H2785 H 0.78968 0.05049 0.22404 0.0
H2786 H 0.80954 0.1044 0.25382 0.0
H2787 H 0.82714 0.09656 0.25143 0.0
H2788 H 0.81672 0.09149 0.2671 0.0
H2789 H 0.79055 0.08213 0.20343 0.0
H2790 H 0.79254 0.0626 0.20166 0.0
H2791 H 0.80831 0.07461 0.20118 0.0
C2792 C 0.91027 0.83694 0.20767 0.0
C2793 C 0.89931 0.82707 0.20274 0.0
C2794 C 0.9222 0.83223 0.21654 0.0
C2795 C 0.92313 0.81732 0.22071 0.0
C2796 C 0.91205 0.80733 0.21584 0.0
C2797 C 0.90032 0.8123 0.20687 0.0
C2798 C 0.93385 0.8432 0.22137 0.0
C2799 C 0.91252 0.79138 0.22017 0.0
C2800 C 0.95994 0.80137 0.23302 0.0
C2801 C 0.95901 0.80146 0.24833 0.0
C2802 C 0.94845 0.80667 0.22392 0.0
C2803 C 0.93565 0.81214 0.23024 0.0
C2804 C 0.9347 0.81239 0.24569 0.0
C2805 C 0.94637 0.80709 0.25452 0.0
C2806 C 0.94997 0.80632 0.20751 0.0
C2807 C 0.92122 0.81803 0.25289 0.0
H2808 H 0.90963 0.84833 0.2044 0.0
H2809 H 0.8918 0.80466 0.20326 0.0
H2810 H 0.93465 0.84371 0.23351 0.0
H2811 H 0.94467 0.8397 0.21755 0.0
H2812 H 0.93159 0.85437 0.21709 0.0
H2813 H 0.903 0.78504 0.21555 0.0
H2814 H 0.92272 0.78636 0.21635 0.0
H2815 H 0.91266 0.79038 0.23228 0.0
H2816 H 0.96971 0.79722 0.22814 0.0
H2817 H 0.94543 0.80703 0.2663 0.0
H2818 H 0.94857 0.81748 0.20292 0.0
H2819 H 0.94125 0.79926 0.20243 0.0
H2820 H 0.96078 0.8021 0.20432 0.0
H2821 H 0.91905 0.82945 0.24938 0.0
H2822 H 0.9223 0.81777 0.26503 0.0
H2823 H 0.91154 0.81131 0.24938 0.0
C2824 C 0.18889 0.91027 0.22241 0.0
C2825 C 0.17447 0.90515 0.22408 0.0
C2826 C 0.19384 0.92349 0.2288 0.0
C2827 C 0.18439 0.93157 0.23765 0.0
C2828 C 0.17 0.92631 0.2398 0.0
C2829 C 0.16513 0.91336 0.23278 0.0
C2830 C 0.20916 0.92889 0.22593 0.0
C2831 C 0.15971 0.93439 0.24951 0.0
C2832 C 0.20298 0.95871 0.26408 0.0
C2833 C 0.20025 0.97205 0.25702 0.0
C2834 C 0.19747 0.94549 0.25815 0.0
C2835 C 0.18955 0.9456 0.24454 0.0
C2836 C 0.18689 0.9591 0.23732 0.0
C2837 C 0.19206 0.97221 0.2438 0.0
C2838 C 0.20013 0.93141 0.26644 0.0
C2839 C 0.17898 0.95967 0.22256 0.0
H2840 H 0.19645 0.90396 0.21613 0.0
H2841 H 0.1539 0.90982 0.23402 0.0
H2842 H 0.20877 0.94014 0.22134 0.0
H2843 H 0.21573 0.92944 0.23634 0.0
H2844 H 0.21488 0.92172 0.21817 0.0
H2845 H 0.14924 0.92834 0.25087 0.0
H2846 H 0.16499 0.93621 0.26049 0.0
H2847 H 0.15723 0.94531 0.2448 0.0
H2848 H 0.20932 0.95872 0.27433 0.0
H2849 H 0.19017 0.98258 0.23833 0.0
H2850 H 0.20707 0.92406 0.26002 0.0
H2851 H 0.18959 0.92559 0.26805 0.0
H2852 H 0.20562 0.93333 0.27732 0.0
H2853 H 0.18494 0.95307 0.21453 0.0
H2854 H 0.17795 0.97103 0.21834 0.0
H2855 H 0.16785 0.95481 0.22328 0.0
C2856 C 0.11652 0.80647 0.81058 0.0
C2857 C 0.11779 0.82157 0.81312 0.0
C2858 C 0.1036 0.80032 0.8044 0.0
C2859 C 0.09159 0.8095 0.80077 0.0
C2860 C 0.09288 0.82479 0.80309 0.0
C2861 C 0.10597 0.83064 0.80922 0.0
C2862 C 0.10268 0.78396 0.80202 0.0
C2863 C 0.0803 0.8349 0.79949 0.0
C2864 C 0.06151 0.79266 0.77609 0.0
C2865 C 0.05198 0.7871 0.78649 0.0
C2866 C 0.07426 0.80048 0.78051 0.0
C2867 C 0.07738 0.80288 0.79564 0.0
C2868 C 0.0673 0.79803 0.80607 0.0
C2869 C 0.05479 0.79015 0.80137 0.0
C2870 C 0.08475 0.80547 0.76908 0.0
C2871 C 0.07009 0.80054 0.82228 0.0
H2872 H 0.1257 0.79944 0.81337 0.0
H2873 H 0.10683 0.84232 0.81129 0.0
H2874 H 0.09422 0.77916 0.80907 0.0
H2875 H 0.09932 0.78152 0.79049 0.0
H2876 H 0.11326 0.77849 0.80458 0.0
H2877 H 0.08341 0.84662 0.80096 0.0
H2878 H 0.07627 0.83319 0.78802 0.0
H2879 H 0.07105 0.83237 0.80668 0.0
H2880 H 0.05942 0.79024 0.76458 0.0
H2881 H 0.04737 0.78596 0.80944 0.0
H2882 H 0.09497 0.79902 0.77012 0.0
H2883 H 0.08781 0.81715 0.77078 0.0
H2884 H 0.08007 0.80408 0.75777 0.0
H2885 H 0.07978 0.7942 0.8261 0.0
H2886 H 0.0606 0.79716 0.82884 0.0
H2887 H 0.07254 0.81227 0.82448 0.0
C2888 C 0.22322 0.10235 0.81287 0.0
C2889 C 0.23105 0.11251 0.82176 0.0
C2890 C 0.22991 0.08969 0.80754 0.0
C2891 C 0.24472 0.08676 0.81152 0.0
C2892 C 0.25272 0.0969 0.82043 0.0
C2893 C 0.2459 0.10972 0.82522 0.0
C2894 C 0.22103 0.07933 0.7978 0.0
C2895 C 0.26843 0.09407 0.82518 0.0
C2896 C 0.25432 0.04636 0.80929 0.0
C2897 C 0.26143 0.04565 0.79595 0.0
C2898 C 0.24961 0.0598 0.8149 0.0
C2899 C 0.25158 0.07281 0.80672 0.0
C2900 C 0.25923 0.07222 0.79348 0.0
C2901 C 0.26426 0.05868 0.78837 0.0
C2902 C 0.24194 0.05995 0.82929 0.0
C2903 C 0.26126 0.08572 0.7842 0.0
H2904 H 0.21173 0.10409 0.81026 0.0
H2905 H 0.25229 0.11755 0.83172 0.0
H2906 H 0.22693 0.07709 0.78762 0.0
H2907 H 0.21954 0.06871 0.80349 0.0
H2908 H 0.21006 0.08373 0.79476 0.0
H2909 H 0.27315 0.10301 0.83217 0.0
H2910 H 0.26909 0.08365 0.8314 0.0
H2911 H 0.27526 0.09283 0.81546 0.0
H2912 H 0.25208 0.03631 0.81516 0.0
H2913 H 0.26953 0.05817 0.77793 0.0
H2914 H 0.23018 0.06241 0.82732 0.0
H2915 H 0.24664 0.06869 0.83654 0.0
H2916 H 0.24281 0.0493 0.8351 0.0
H2917 H 0.25043 0.08947 0.77991 0.0
H2918 H 0.26835 0.08367 0.77477 0.0
H2919 H 0.26614 0.09479 0.79087 0.0
C2920 C 0.93152 0.23161 0.80167 0.0
C2921 C 0.92859 0.21672 0.80418 0.0
C2922 C 0.94493 0.23629 0.79609 0.0
C2923 C 0.95568 0.22583 0.79277 0.0
C2924 C 0.95243 0.21073 0.79435 0.0
C2925 C 0.93898 0.20636 0.80011 0.0
C2926 C 0.94789 0.25251 0.79456 0.0
C2927 C 0.96349 0.19921 0.79076 0.0
C2928 C 0.9889 0.24111 0.77327 0.0
C2929 C 0.99834 0.24444 0.78526 0.0
C2930 C 0.97518 0.23432 0.77538 0.0
C2931 C 0.9709 0.23085 0.78978 0.0
C2932 C 0.98085 0.23337 0.80174 0.0
C2933 C 0.9944 0.24008 0.79932 0.0
C2934 C 0.96498 0.23163 0.76232 0.0
C2935 C 0.97685 0.22982 0.81728 0.0
H2936 H 0.92345 0.2397 0.8044 0.0
H2937 H 0.93691 0.19482 0.80203 0.0
H2938 H 0.95651 0.25596 0.80273 0.0
H2939 H 0.95202 0.25499 0.78354 0.0
H2940 H 0.93797 0.25915 0.79628 0.0
H2941 H 0.95852 0.18806 0.79029 0.0
H2942 H 0.96848 0.20161 0.78011 0.0
H2943 H 0.97244 0.19927 0.79927 0.0
H2944 H 0.99185 0.24453 0.76239 0.0
H2945 H 1.00171 0.2425 0.80862 0.0
H2946 H 0.95611 0.23985 0.76222 0.0
H2947 H 0.95975 0.22064 0.76297 0.0
H2948 H 0.97076 0.2325 0.75183 0.0
H2949 H 0.96765 0.23684 0.82052 0.0
H2950 H 0.98617 0.23159 0.82523 0.0
H2951 H 0.97311 0.21826 0.81808 0.0
C2952 C 0.83511 0.9212 0.77382 0.0
C2953 C 0.83756 0.92146 0.78907 0.0
C2954 C 0.82817 0.93292 0.76651 0.0
C2955 C 0.8236 0.94517 0.77465 0.0
C2956 C 0.8269 0.94586 0.7899 0.0
C2957 C 0.8338 0.934 0.79691 0.0
C2958 C 0.82489 0.93177 0.75024 0.0
C2959 C 0.82233 0.95874 0.79901 0.0
C2960 C 0.80922 0.98077 0.75799 0.0
C2961 C 0.79415 0.97893 0.75981 0.0
C2962 C 0.81905 0.96954 0.76203 0.0
C2963 C 0.81358 0.95623 0.76784 0.0
C2964 C 0.79827 0.95403 0.76863 0.0
C2965 C 0.78878 0.96542 0.76468 0.0
C2966 C 0.83528 0.97227 0.76096 0.0
C2967 C 0.79189 0.93999 0.77455 0.0
H2968 H 0.83796 0.91153 0.76769 0.0
H2969 H 0.83593 0.93438 0.80865 0.0
H2970 H 0.81303 0.92951 0.74828 0.0
H2971 H 0.82749 0.94223 0.7447 0.0
H2972 H 0.83115 0.92283 0.74515 0.0
H2973 H 0.82709 0.95835 0.81035 0.0
H2974 H 0.82574 0.96918 0.79386 0.0
H2975 H 0.81022 0.95883 0.79959 0.0
H2976 H 0.81338 0.99124 0.75428 0.0
H2977 H 0.7771 0.96392 0.76593 0.0
H2978 H 0.8407 0.96261 0.75626 0.0
H2979 H 0.84018 0.9741 0.77209 0.0
H2980 H 0.83767 0.98203 0.75414 0.0
H2981 H 0.79655 0.93038 0.76899 0.0
H2982 H 0.77977 0.93949 0.77312 0.0
H2983 H 0.79477 0.93905 0.78641 0.0
C2984 C 0.2019 0.09321 0.20304 0.0
C2985 C 0.20986 0.10611 0.20051 0.0
C2986 C 0.2085 0.08118 0.20999 0.0
C2987 C 0.22347 0.08203 0.21447 0.0
C2988 C 0.23192 0.09444 0.21057 0.0
C2989 C 0.22499 0.1064 0.20365 0.0
C2990 C 0.19906 0.06814 0.2138 0.0
C2991 C 0.24798 0.09563 0.21481 0.0
C2992 C 0.22991 0.0635 0.25101 0.0
C2993 C 0.23485 0.04964 0.24693 0.0
C2994 C 0.22705 0.07439 0.24058 0.0
C2995 C 0.22921 0.07143 0.2256 0.0
C2996 C 0.23518 0.05782 0.22146 0.0
C2997 C 0.23793 0.04702 0.23221 0.0
C2998 C 0.22081 0.08877 0.24557 0.0
C2999 C 0.2379 0.05435 0.20565 0.0
H3000 H 0.19026 0.09283 0.20031 0.0
H3001 H 0.23121 0.11632 0.20164 0.0
H3002 H 0.20461 0.05777 0.21114 0.0
H3003 H 0.19723 0.06815 0.22575 0.0
H3004 H 0.18823 0.06832 0.20791 0.0
H3005 H 0.2536 0.10416 0.20832 0.0
H3006 H 0.24921 0.09862 0.22657 0.0
H3007 H 0.25352 0.08501 0.2133 0.0
H3008 H 0.22778 0.06571 0.2624 0.0
H3009 H 0.24183 0.03635 0.229 0.0
H3010 H 0.20939 0.08984 0.24118 0.0
H3011 H 0.22725 0.09808 0.24128 0.0
H3012 H 0.22073 0.08969 0.2577 0.0
H3013 H 0.22735 0.05158 0.1999 0.0
H3014 H 0.24535 0.04489 0.20458 0.0
H3015 H 0.24267 0.06395 0.20002 0.0
C3016 C 0.23176 0.91185 0.8239 0.0
C3017 C 0.21706 0.9104 0.82766 0.0
C3018 C 0.23657 0.924 0.81581 0.0
C3019 C 0.22646 0.935 0.81149 0.0
C3020 C 0.21175 0.93385 0.81577 0.0
C3021 C 0.20723 0.92157 0.82376 0.0
C3022 C 0.25234 0.92481 0.81144 0.0
C3023 C 0.20065 0.94537 0.81155 0.0
C3024 C 0.24057 0.97222 0.79904 0.0
C3025 C 0.23918 0.97101 0.78373 0.0
C3026 C 0.23656 0.9606 0.80821 0.0
C3027 C 0.23106 0.94738 0.80194 0.0
C3028 C 0.22963 0.94608 0.7865 0.0
C3029 C 0.23366 0.95791 0.77759 0.0
C3030 C 0.23811 0.9625 0.82461 0.0
C3031 C 0.22389 0.93215 0.77936 0.0
H3032 H 0.23937 0.90321 0.82678 0.0
H3033 H 0.1959 0.9206 0.82681 0.0
H3034 H 0.25288 0.92414 0.79934 0.0
H3035 H 0.25732 0.93545 0.81486 0.0
H3036 H 0.259 0.91583 0.81634 0.0
H3037 H 0.18986 0.94329 0.81646 0.0
H3038 H 0.20469 0.95636 0.81508 0.0
H3039 H 0.19906 0.94567 0.79946 0.0
H3040 H 0.24467 0.98236 0.80387 0.0
H3041 H 0.23275 0.95678 0.7658 0.0
H3042 H 0.24533 0.95391 0.82935 0.0
H3043 H 0.22726 0.96117 0.82959 0.0
H3044 H 0.24271 0.9734 0.82776 0.0
H3045 H 0.23082 0.92278 0.78283 0.0
H3046 H 0.22365 0.9328 0.76721 0.0
H3047 H 0.21263 0.92978 0.78296 0.0
C3048 C 0.14047 0.22879 0.82936 0.0
C3049 C 0.1409 0.21346 0.83034 0.0
C3050 C 0.12788 0.23601 0.82403 0.0
C3051 C 0.1153 0.22774 0.81963 0.0
C3052 C 0.11581 0.21222 0.82013 0.0
C3053 C 0.12863 0.20526 0.82542 0.0
C3054 C 0.12792 0.25255 0.82351 0.0
C3055 C 0.10264 0.203 0.81558 0.0
C3056 C 0.07887 0.24755 0.82164 0.0
C3057 C 0.07605 0.2515 0.80698 0.0
C3058 C 0.09139 0.23953 0.82583 0.0
C3059 C 0.10147 0.23542 0.81513 0.0
C3060 C 0.09863 0.23925 0.80029 0.0
C3061 C 0.08596 0.24719 0.7964 0.0
C3062 C 0.09393 0.2356 0.84176 0.0
C3063 C 0.10913 0.23524 0.78855 0.0
H3064 H 0.14998 0.23519 0.83296 0.0
H3065 H 0.12886 0.19342 0.82624 0.0
H3066 H 0.12461 0.25636 0.81237 0.0
H3067 H 0.11982 0.25684 0.83117 0.0
H3068 H 0.13883 0.25734 0.82652 0.0
H3069 H 0.10505 0.19109 0.8158 0.0
H3070 H 0.09356 0.20513 0.82305 0.0
H3071 H 0.09872 0.20601 0.80437 0.0
H3072 H 0.0712 0.25063 0.82986 0.0
H3073 H 0.08399 0.25034 0.78508 0.0
H3074 H 0.10418 0.2409 0.84605 0.0
H3075 H 0.09532 0.22359 0.84292 0.0
H3076 H 0.08477 0.23906 0.84863 0.0
H3077 H 0.11987 0.2407 0.79081 0.0
H3078 H 0.10505 0.23847 0.77744 0.0
H3079 H 0.11104 0.22326 0.78863 0.0
C3080 C 0.81879 0.11942 0.80981 0.0
C3081 C 0.83412 0.11946 0.8091 0.0
C3082 C 0.81043 0.10699 0.80585 0.0
C3083 C 0.81753 0.09428 0.80094 0.0
C3084 C 0.83298 0.09424 0.80014 0.0
C3085 C 0.8411 0.10682 0.80423 0.0
C3086 C 0.79397 0.10751 0.80681 0.0
C3087 C 0.84094 0.08089 0.79492 0.0
C3088 C 0.79681 0.05794 0.80193 0.0
C3089 C 0.79178 0.05648 0.78732 0.0
C3090 C 0.80524 0.07017 0.80653 0.0
C3091 C 0.80872 0.08118 0.79627 0.0
C3092 C 0.80361 0.07981 0.78154 0.0
C3093 C 0.79518 0.06752 0.77727 0.0
C3094 C 0.81046 0.07128 0.82236 0.0
C3095 C 0.80701 0.09136 0.77028 0.0
H3096 H 0.81329 0.12922 0.81333 0.0
H3097 H 0.85294 0.10671 0.80381 0.0
H3098 H 0.78876 0.10576 0.79579 0.0
H3099 H 0.79009 0.09856 0.81396 0.0
H3100 H 0.79017 0.11811 0.81119 0.0
H3101 H 0.853 0.08257 0.79507 0.0
H3102 H 0.83839 0.07135 0.80193 0.0
H3103 H 0.83715 0.0781 0.78358 0.0
H3104 H 0.79435 0.04941 0.80973 0.0
H3105 H 0.79111 0.06666 0.76603 0.0
H3106 H 0.8063 0.08147 0.82729 0.0
H3107 H 0.82259 0.07191 0.82305 0.0
H3108 H 0.8068 0.0618 0.82897 0.0
H3109 H 0.80254 0.10206 0.77365 0.0
H3110 H 0.80235 0.08856 0.75922 0.0
H3111 H 0.81903 0.09277 0.76954 0.0
C3112 C 0.91191 0.79708 0.81477 0.0
C3113 C 0.91286 0.81241 0.81554 0.0
C3114 C 0.92389 0.7887 0.81062 0.0
C3115 C 0.9372 0.7958 0.80724 0.0
C3116 C 0.93818 0.81129 0.80782 0.0
C3117 C 0.92598 0.81941 0.81191 0.0
C3118 C 0.92235 0.77223 0.80998 0.0
C3119 C 0.95219 0.81927 0.80437 0.0
C3120 C 0.97248 0.77408 0.8106 0.0
C3121 C 0.97515 0.77089 0.79591 0.0
C3122 C 0.96016 0.78213 0.81444 0.0
C3123 C 0.95018 0.78702 0.80333 0.0
C3124 C 0.95266 0.78359 0.7885 0.0
C3125 C 0.96513 0.77562 0.78498 0.0
C3126 C 0.95795 0.78563 0.83037 0.0
C3127 C 0.94219 0.78843 0.77635 0.0
H3128 H 0.90173 0.79162 0.81737 0.0
H3129 H 0.92682 0.83125 0.81262 0.0
H3130 H 0.92498 0.76822 0.79891 0.0
H3131 H 0.93026 0.76715 0.81788 0.0
H3132 H 0.91114 0.76842 0.81254 0.0
H3133 H 0.95109 0.83136 0.80508 0.0
H3134 H 0.96111 0.81581 0.81211 0.0
H3135 H 0.95557 0.8164 0.79317 0.0
H3136 H 0.98026 0.77061 0.81907 0.0
H3137 H 0.96703 0.77302 0.77363 0.0
H3138 H 0.94717 0.78135 0.83374 0.0
H3139 H 0.95789 0.79768 0.83198 0.0
H3140 H 0.96663 0.78091 0.83769 0.0
H3141 H 0.931 0.78423 0.77836 0.0
H3142 H 0.9455 0.78455 0.76542 0.0
H3143 H 0.94163 0.80056 0.77614 0.0
C3144 C 0.81318 0.93514 0.19665 0.0
C3145 C 0.80556 0.92228 0.19256 0.0
C3146 C 0.80597 0.94698 0.20294 0.0
C3147 C 0.79075 0.94596 0.20534 0.0
C3148 C 0.78283 0.93336 0.20041 0.0
C3149 C 0.79033 0.92168 0.19403 0.0
C3150 C 0.81485 0.96024 0.20786 0.0
C3151 C 0.76663 0.93178 0.20276 0.0
C3152 C 0.78013 0.96635 0.23947 0.0
C3153 C 0.77447 0.97947 0.23378 0.0
C3154 C 0.78469 0.95512 0.23029 0.0
C3155 C 0.78378 0.95703 0.21491 0.0
C3156 C 0.77742 0.96997 0.20902 0.0
C3157 C 0.77273 0.98104 0.21855 0.0
C3158 C 0.79117 0.94146 0.23712 0.0
C3159 C 0.77626 0.97243 0.1927 0.0
H3160 H 0.82491 0.93577 0.1953 0.0
H3161 H 0.78438 0.91177 0.19091 0.0
H3162 H 0.80939 0.97044 0.20416 0.0
H3163 H 0.81566 0.96053 0.22001 0.0
H3164 H 0.82611 0.96013 0.20364 0.0
H3165 H 0.76168 0.92254 0.19634 0.0
H3166 H 0.76481 0.92977 0.21454 0.0
H3167 H 0.76083 0.942 0.19968 0.0
H3168 H 0.7813 0.96498 0.25125 0.0
H3169 H 0.7684 0.99118 0.21411 0.0
H3170 H 0.80299 0.94092 0.23479 0.0
H3171 H 0.78581 0.93154 0.23229 0.0
H3172 H 0.78998 0.94116 0.24918 0.0
H3173 H 0.78735 0.97432 0.18846 0.0
H3174 H 0.76937 0.98202 0.18981 0.0
H3175 H 0.77159 0.96259 0.18706 0.0
C3176 C 0.09471 0.79474 0.21627 0.0
C3177 C 0.09622 0.79669 0.20115 0.0
C3178 C 0.08167 0.78921 0.22194 0.0
C3179 C 0.06978 0.78544 0.21227 0.0
C3180 C 0.07153 0.78652 0.19695 0.0
C3181 C 0.08471 0.79216 0.19157 0.0
C3182 C 0.08036 0.78817 0.23835 0.0
C3183 C 0.0592 0.78248 0.18626 0.0
C3184 C 0.03815 0.76566 0.23045 0.0
C3185 C 0.02943 0.77754 0.23429 0.0
C3186 C 0.05098 0.76788 0.22252 0.0
C3187 C 0.05509 0.78227 0.21835 0.0
C3188 C 0.04573 0.79409 0.22135 0.0
C3189 C 0.03308 0.79158 0.22927 0.0
C3190 C 0.06057 0.75496 0.21944 0.0
C3191 C 0.04957 0.80961 0.21705 0.0
H3192 H 0.10366 0.79789 0.22375 0.0
H3193 H 0.08572 0.79364 0.17988 0.0
H3194 H 0.07233 0.79632 0.24204 0.0
H3195 H 0.07625 0.77717 0.24144 0.0
H3196 H 0.09098 0.79026 0.2443 0.0
H3197 H 0.06295 0.78181 0.17483 0.0
H3198 H 0.05421 0.77181 0.18925 0.0
H3199 H 0.0505 0.79085 0.18668 0.0
H3200 H 0.03545 0.7548 0.23439 0.0
H3201 H 0.02631 0.80079 0.2321 0.0
H3202 H 0.07035 0.75528 0.22696 0.0
H3203 H 0.06448 0.75542 0.20808 0.0
H3204 H 0.05473 0.74438 0.22103 0.0
H3205 H 0.05948 0.81333 0.22342 0.0
H3206 H 0.04056 0.81736 0.2191 0.0
H3207 H 0.05214 0.81012 0.20528 0.0
C3208 C 0.91752 0.22096 0.22848 0.0
C3209 C 0.91569 0.21846 0.21338 0.0
C3210 C 0.93053 0.2271 0.23444 0.0
C3211 C 0.94205 0.23084 0.22508 0.0
C3212 C 0.93995 0.22914 0.20974 0.0
C3213 C 0.92678 0.22296 0.20406 0.0
C3214 C 0.93225 0.22881 0.25086 0.0
C3215 C 0.95191 0.23304 0.19939 0.0
C3216 C 0.97376 0.25174 0.24384 0.0
C3217 C 0.98264 0.24012 0.24855 0.0
C3218 C 0.9608 0.24905 0.23541 0.0
C3219 C 0.95681 0.23445 0.23161 0.0
C3220 C 0.96635 0.22287 0.23547 0.0
C3221 C 0.97909 0.22585 0.24392 0.0
C3222 C 0.95096 0.2617 0.23141 0.0
C3223 C 0.96266 0.20715 0.23152 0.0
H3224 H 0.90886 0.2178 0.23571 0.0
H3225 H 0.92546 0.22104 0.19238 0.0
H3226 H 0.94047 0.22091 0.25518 0.0
H3227 H 0.93632 0.23997 0.25371 0.0
H3228 H 0.92181 0.22682 0.25646 0.0
H3229 H 0.94781 0.23331 0.1878 0.0
H3230 H 0.95686 0.24385 0.20225 0.0
H3231 H 0.96073 0.22479 0.20036 0.0
H3232 H 0.97646 0.26278 0.24746 0.0
H3233 H 0.98603 0.21685 0.24741 0.0
H3234 H 0.94126 0.26144 0.23839 0.0
H3235 H 0.94693 0.2608 0.21985 0.0
H3236 H 0.95664 0.27243 0.23299 0.0
H3237 H 0.95299 0.20348 0.23762 0.0
H3238 H 0.97186 0.19964 0.23417 0.0
H3239 H 0.95978 0.20619 0.21966 0.0
C3240 C 0.1933 0.73086 0.58842 0.0
C3241 C 0.20314 0.72621 0.59956 0.0
C3242 C 0.19836 0.73678 0.57527 0.0
C3243 C 0.21362 0.73811 0.57321 0.0
C3244 C 0.22356 0.73405 0.58471 0.0
C3245 C 0.21821 0.72816 0.5977 0.0
C3246 C 0.1874 0.74098 0.56331 0.0
C3247 C 0.23992 0.73535 0.58306 0.0
C3248 C 0.23048 0.73407 0.53616 0.0
C3249 C 0.23532 0.74837 0.53334 0.0
C3250 C 0.22249 0.73079 0.5486 0.0
C3251 C 0.21936 0.74209 0.55861 0.0
C3252 C 0.22332 0.75676 0.55529 0.0
C3253 C 0.23124 0.75976 0.54261 0.0
C3254 C 0.21836 0.71503 0.55154 0.0
C3255 C 0.22014 0.76913 0.56563 0.0
H3256 H 0.18164 0.72935 0.58975 0.0
H3257 H 0.22588 0.72488 0.60637 0.0
H3258 H 0.19011 0.75193 0.55883 0.0
H3259 H 0.18785 0.733 0.55417 0.0
H3260 H 0.17603 0.74112 0.56726 0.0
H3261 H 0.24612 0.73288 0.59341 0.0
H3262 H 0.24341 0.72763 0.57449 0.0
H3263 H 0.24291 0.74656 0.57948 0.0
H3264 H 0.23355 0.72525 0.52895 0.0
H3265 H 0.23508 0.77081 0.54053 0.0
H3266 H 0.2067 0.71415 0.55446 0.0
H3267 H 0.22505 0.71089 0.561 0.0
H3268 H 0.22016 0.70784 0.54196 0.0
H3269 H 0.20876 0.76828 0.56946 0.0
H3270 H 0.2217 0.78001 0.56044 0.0
H3271 H 0.22761 0.76844 0.57542 0.0
C3272 C 0.82354 0.71283 0.5939 0.0
C3273 C 0.8254 0.72225 0.60595 0.0
C3274 C 0.81536 0.71713 0.58135 0.0
C3275 C 0.8086 0.73103 0.581 0.0
C3276 C 0.81059 0.74064 0.5931 0.0
C3277 C 0.81909 0.73618 0.60537 0.0
C3278 C 0.81371 0.70666 0.56859 0.0
C3279 C 0.80328 0.75539 0.59334 0.0
C3280 C 0.79329 0.746 0.54462 0.0
C3281 C 0.77873 0.74108 0.54488 0.0
C3282 C 0.80323 0.74282 0.5563 0.0
C3283 C 0.79832 0.73491 0.56861 0.0
C3284 C 0.78349 0.73039 0.56906 0.0
C3285 C 0.77395 0.73337 0.55713 0.0
C3286 C 0.81903 0.74756 0.55532 0.0
C3287 C 0.77767 0.7223 0.5821 0.0
H3288 H 0.82856 0.70212 0.59428 0.0
H3289 H 0.82047 0.74344 0.61472 0.0
H3290 H 0.80215 0.70288 0.56739 0.0
H3291 H 0.81648 0.71228 0.55826 0.0
H3292 H 0.82079 0.6969 0.56999 0.0
H3293 H 0.80662 0.76191 0.60319 0.0
H3294 H 0.80594 0.76176 0.58343 0.0
H3295 H 0.79121 0.75385 0.59319 0.0
H3296 H 0.797 0.7519 0.53512 0.0
H3297 H 0.76264 0.72971 0.55745 0.0
H3298 H 0.82616 0.73779 0.55558 0.0
H3299 H 0.82232 0.75445 0.5649 0.0
H3300 H 0.82105 0.75383 0.54516 0.0
H3301 H 0.78322 0.7116 0.58335 0.0
H3302 H 0.76567 0.72026 0.58106 0.0
H3303 H 0.78004 0.72865 0.59228 0.0
C3304 C 0.81815 0.31513 0.61273 0.0
C3305 C 0.83309 0.31811 0.61553 0.0
C3306 C 0.81339 0.30652 0.6007 0.0
C3307 C 0.82379 0.30068 0.5912 0.0
C3308 C 0.83889 0.30356 0.59399 0.0
C3309 C 0.84336 0.31222 0.60612 0.0
C3310 C 0.79719 0.30365 0.59818 0.0
C3311 C 0.85033 0.29756 0.58412 0.0
C3312 C 0.8119 0.26767 0.56806 0.0
C3313 C 0.80819 0.27413 0.5545 0.0
C3314 C 0.81719 0.27614 0.58 0.0
C3315 C 0.81883 0.29148 0.5784 0.0
C3316 C 0.8153 0.29807 0.56471 0.0
C3317 C 0.81003 0.28933 0.55295 0.0
C3318 C 0.82076 0.26868 0.59441 0.0
C3319 C 0.81693 0.31439 0.56254 0.0
H3320 H 0.81015 0.31943 0.62005 0.0
H3321 H 0.8549 0.31459 0.60809 0.0
H3322 H 0.79361 0.3077 0.5872 0.0
H3323 H 0.79492 0.2917 0.59839 0.0
H3324 H 0.7905 0.30903 0.60655 0.0
H3325 H 0.86163 0.30075 0.58781 0.0
H3326 H 0.84955 0.28543 0.58375 0.0
H3327 H 0.84835 0.30159 0.57278 0.0
H3328 H 0.81034 0.256 0.5695 0.0
H3329 H 0.80738 0.29441 0.5425 0.0
H3330 H 0.81353 0.27287 0.60296 0.0
H3331 H 0.83221 0.27123 0.59804 0.0
H3332 H 0.81938 0.25659 0.59372 0.0
H3333 H 0.80971 0.32028 0.57004 0.0
H3334 H 0.81412 0.31777 0.55111 0.0
H3335 H 0.82835 0.31791 0.56529 0.0
C3336 C 0.23564 0.34794 0.62094 0.0
C3337 C 0.22033 0.34751 0.62175 0.0
C3338 C 0.24264 0.34282 0.60849 0.0
C3339 C 0.23413 0.33707 0.59656 0.0
C3340 C 0.21868 0.3365 0.59733 0.0
C3341 C 0.21196 0.34173 0.60991 0.0
C3342 C 0.25914 0.34355 0.60814 0.0
C3343 C 0.20923 0.33042 0.58484 0.0
C3344 C 0.25132 0.33545 0.55917 0.0
C3345 C 0.25546 0.32072 0.55839 0.0
C3346 C 0.24435 0.34093 0.5715 0.0
C3347 C 0.24145 0.33145 0.58335 0.0
C3348 C 0.24567 0.3166 0.58268 0.0
C3349 C 0.25264 0.31144 0.57025 0.0
C3350 C 0.24002 0.35684 0.57182 0.0
C3351 C 0.24286 0.30615 0.59511 0.0
H3352 H 0.24221 0.35216 0.63013 0.0
H3353 H 0.20012 0.3415 0.61037 0.0
H3354 H 0.26359 0.33238 0.60682 0.0
H3355 H 0.26255 0.3501 0.59859 0.0
H3356 H 0.26416 0.34849 0.61826 0.0
H3357 H 0.19738 0.33075 0.58714 0.0
H3358 H 0.21114 0.33675 0.5747 0.0
H3359 H 0.21226 0.3189 0.58264 0.0
H3360 H 0.25333 0.34266 0.55003 0.0
H3361 H 0.25604 0.30013 0.5699 0.0
H3362 H 0.24539 0.36237 0.58143 0.0
H3363 H 0.22802 0.3577 0.57305 0.0
H3364 H 0.24307 0.36278 0.56174 0.0
H3365 H 0.24848 0.31017 0.60531 0.0
H3366 H 0.24672 0.29491 0.59282 0.0
H3367 H 0.23097 0.30562 0.59718 0.0
C3368 C 0.19808 0.29403 0.42633 0.0
C3369 C 0.19511 0.30907 0.42559 0.0
C3370 C 0.20608 0.28812 0.43832 0.0
C3371 C 0.21117 0.29747 0.44982 0.0
C3372 C 0.20731 0.31246 0.44956 0.0
C3373 C 0.19937 0.31807 0.43745 0.0
C3374 C 0.20991 0.27208 0.43818 0.0
C3375 C 0.2124 0.32282 0.46163 0.0
C3376 C 0.22905 0.28448 0.48579 0.0
C3377 C 0.24383 0.28734 0.48319 0.0
C3378 C 0.21818 0.28699 0.47477 0.0
C3379 C 0.22231 0.29231 0.46089 0.0
C3380 C 0.23733 0.29419 0.45799 0.0
C3381 C 0.24786 0.29175 0.46918 0.0
C3382 C 0.20229 0.28478 0.47825 0.0
C3383 C 0.24229 0.29962 0.44332 0.0
H3384 H 0.19484 0.28702 0.41718 0.0
H3385 H 0.19685 0.32964 0.43706 0.0
H3386 H 0.2216 0.27089 0.43552 0.0
H3387 H 0.20843 0.26711 0.44911 0.0
H3388 H 0.20315 0.26586 0.42992 0.0
H3389 H 0.20709 0.33368 0.46066 0.0
H3390 H 0.21005 0.31812 0.47251 0.0
H3391 H 0.22443 0.32445 0.4612 0.0
H3392 H 0.22592 0.28109 0.49663 0.0
H3393 H 0.25932 0.29376 0.46706 0.0
H3394 H 0.19635 0.27893 0.46917 0.0
H3395 H 0.19706 0.2956 0.47947 0.0
H3396 H 0.20099 0.27851 0.48855 0.0
H3397 H 0.23719 0.29296 0.43432 0.0
H3398 H 0.25438 0.29924 0.44244 0.0
H3399 H 0.23874 0.31111 0.44167 0.0
C3400 C 0.22127 0.68142 0.41354 0.0
C3401 C 0.21853 0.68995 0.401 0.0
C3402 C 0.22838 0.68741 0.42609 0.0
C3403 C 0.23307 0.70225 0.42602 0.0
C3404 C 0.23046 0.71087 0.41333 0.0
C3405 C 0.22312 0.70466 0.40102 0.0
C3406 C 0.23071 0.67792 0.43947 0.0
C3407 C 0.23547 0.72666 0.41272 0.0
C3408 C 0.23946 0.72263 0.46209 0.0
C3409 C 0.25472 0.72189 0.46412 0.0
C3410 C 0.23226 0.71609 0.44989 0.0
C3411 C 0.24054 0.70882 0.43929 0.0
C3412 C 0.25596 0.70801 0.4413 0.0
C3413 C 0.26284 0.71444 0.45375 0.0
C3414 C 0.21579 0.71699 0.44832 0.0
C3415 C 0.26521 0.70057 0.43015 0.0
H3416 H 0.21762 0.67009 0.41362 0.0
H3417 H 0.22115 0.71125 0.3913 0.0
H3418 H 0.24257 0.67729 0.44241 0.0
H3419 H 0.22527 0.68286 0.44894 0.0
H3420 H 0.22635 0.66662 0.43778 0.0
H3421 H 0.23294 0.73176 0.4019 0.0
H3422 H 0.2301 0.73311 0.42129 0.0
H3423 H 0.24746 0.72741 0.415 0.0
H3424 H 0.23313 0.72823 0.47017 0.0
H3425 H 0.27464 0.71399 0.4552 0.0
H3426 H 0.21096 0.70582 0.44733 0.0
H3427 H 0.21266 0.723 0.43816 0.0
H3428 H 0.21092 0.72261 0.45775 0.0
H3429 H 0.26166 0.68899 0.42874 0.0
H3430 H 0.27705 0.70083 0.43334 0.0
H3431 H 0.26369 0.706 0.41936 0.0
C3432 C 0.80823 0.71177 0.40934 0.0
C3433 C 0.81027 0.69662 0.40803 0.0
C3434 C 0.80116 0.71766 0.42145 0.0
C3435 C 0.79598 0.70818 0.43247 0.0
C3436 C 0.79871 0.69298 0.43156 0.0
C3437 C 0.80586 0.68742 0.41941 0.0
C3438 C 0.79861 0.73395 0.4221 0.0
C3439 C 0.79344 0.68247 0.44305 0.0
C3440 C 0.78389 0.72283 0.46925 0.0
C3441 C 0.76859 0.72327 0.46712 0.0
C3442 C 0.79299 0.71826 0.458 0.0
C3443 C 0.78667 0.71388 0.44431 0.0
C3444 C 0.77127 0.71433 0.44207 0.0
C3445 C 0.76246 0.71905 0.45343 0.0
C3446 C 0.80936 0.718 0.46082 0.0
C3447 C 0.76406 0.70969 0.42766 0.0
H3448 H 0.81156 0.71895 0.40058 0.0
H3449 H 0.80767 0.67573 0.41864 0.0
H3450 H 0.78676 0.73615 0.42043 0.0
H3451 H 0.80201 0.73833 0.43304 0.0
H3452 H 0.80467 0.73998 0.41361 0.0
H3453 H 0.79737 0.67114 0.4413 0.0
H3454 H 0.79719 0.68616 0.45413 0.0
H3455 H 0.78129 0.68224 0.44282 0.0
H3456 H 0.7888 0.7259 0.47977 0.0
H3457 H 0.75074 0.71959 0.45146 0.0
H3458 H 0.81494 0.72449 0.45235 0.0
H3459 H 0.81334 0.7066 0.46006 0.0
H3460 H 0.81263 0.72245 0.47179 0.0
H3461 H 0.76841 0.71635 0.4186 0.0
H3462 H 0.75196 0.71086 0.42758 0.0
H3463 H 0.76663 0.69808 0.42536 0.0
C3464 C 0.80493 0.31171 0.41684 0.0
C3465 C 0.80651 0.32691 0.41526 0.0
C3466 C 0.79978 0.30557 0.42979 0.0
C3467 C 0.79612 0.31484 0.44153 0.0
C3468 C 0.79698 0.33024 0.43975 0.0
C3469 C 0.80215 0.3361 0.42661 0.0
C3470 C 0.79892 0.28909 0.43115 0.0
C3471 C 0.79315 0.3405 0.45197 0.0
C3472 C 0.77615 0.2955 0.47211 0.0
C3473 C 0.78795 0.29131 0.48135 0.0
C3474 C 0.77848 0.3039 0.45945 0.0
C3475 C 0.79292 0.30826 0.45605 0.0
C3476 C 0.80468 0.30489 0.46591 0.0
C3477 C 0.80206 0.29644 0.47838 0.0
C3478 C 0.76563 0.30732 0.44926 0.0
C3479 C 0.82023 0.30942 0.46284 0.0
H3480 H 0.80802 0.30456 0.408 0.0
H3481 H 0.80339 0.34786 0.42548 0.0
H3482 H 0.80714 0.28534 0.4395 0.0
H3483 H 0.78798 0.28566 0.43487 0.0
H3484 H 0.80101 0.28347 0.42064 0.0
H3485 H 0.79256 0.35206 0.44825 0.0
H3486 H 0.78249 0.33731 0.45657 0.0
H3487 H 0.80157 0.33976 0.46096 0.0
H3488 H 0.76522 0.29153 0.47431 0.0
H3489 H 0.81121 0.29337 0.48555 0.0
H3490 H 0.76616 0.30045 0.43927 0.0
H3491 H 0.76602 0.31894 0.44574 0.0
H3492 H 0.755 0.30514 0.45444 0.0
H3493 H 0.82401 0.30332 0.45317 0.0
H3494 H 0.82789 0.30721 0.47226 0.0
H3495 H 0.82079 0.32126 0.46019 0.0
C3496 C 0.11546 0.70924 0.70081 0.0
C3497 C 0.12852 0.70527 0.7082 0.0
C3498 C 0.10321 0.71366 0.70855 0.0
C3499 C 0.10405 0.71415 0.72407 0.0
C3500 C 0.1173 0.71043 0.73157 0.0
C3501 C 0.12935 0.70606 0.72356 0.0
C3502 C 0.08928 0.71755 0.70015 0.0
C3503 C 0.11868 0.7109 0.74809 0.0
C3504 C 0.0764 0.73682 0.74426 0.0
C3505 C 0.06638 0.72608 0.74871 0.0
C3506 C 0.08866 0.73311 0.7362 0.0
C3507 C 0.09101 0.71829 0.73249 0.0
C3508 C 0.08099 0.70738 0.73699 0.0
C3509 C 0.06882 0.7114 0.74504 0.0
C3510 C 0.09912 0.74507 0.73169 0.0
C3511 C 0.0831 0.69144 0.73324 0.0
H3512 H 0.11468 0.70852 0.68896 0.0
H3513 H 0.13948 0.70324 0.72935 0.0
H3514 H 0.08034 0.70992 0.70315 0.0
H3515 H 0.08583 0.72876 0.70312 0.0
H3516 H 0.09054 0.71705 0.68811 0.0
H3517 H 0.12984 0.70799 0.75225 0.0
H3518 H 0.11607 0.722 0.75211 0.0
H3519 H 0.11069 0.70316 0.75283 0.0
H3520 H 0.07475 0.74815 0.74723 0.0
H3521 H 0.06106 0.70305 0.74825 0.0
H3522 H 0.09993 0.74517 0.7196 0.0
H3523 H 0.11024 0.74291 0.73638 0.0
H3524 H 0.09567 0.75608 0.73533 0.0
H3525 H 0.08329 0.69006 0.72117 0.0
H3526 H 0.07431 0.6843 0.73752 0.0
H3527 H 0.0938 0.68766 0.73783 0.0
C3528 C 0.8346 0.62776 0.71788 0.0
C3529 C 0.83414 0.62736 0.7025 0.0
C3530 C 0.83132 0.61526 0.72617 0.0
C3531 C 0.82741 0.602 0.71895 0.0
C3532 C 0.8268 0.60153 0.70343 0.0
C3533 C 0.83016 0.6142 0.6954 0.0
C3534 C 0.83204 0.61627 0.74269 0.0
C3535 C 0.82266 0.58762 0.69531 0.0
C3536 C 0.83151 0.56614 0.74001 0.0
C3537 C 0.81705 0.5632 0.74395 0.0
C3538 C 0.83504 0.57871 0.73191 0.0
C3539 C 0.82387 0.58864 0.72764 0.0
C3540 C 0.80929 0.58583 0.73171 0.0
C3541 C 0.80608 0.57319 0.73982 0.0
C3542 C 0.85072 0.58132 0.7278 0.0
C3543 C 0.79706 0.59616 0.72747 0.0
H3544 H 0.83742 0.63792 0.72348 0.0
H3545 H 0.82994 0.61372 0.68354 0.0
H3546 H 0.8212 0.61347 0.74711 0.0
H3547 H 0.83999 0.60822 0.74724 0.0
H3548 H 0.83534 0.62737 0.74663 0.0
H3549 H 0.8226 0.58907 0.68323 0.0
H3550 H 0.83047 0.57882 0.69837 0.0
H3551 H 0.81162 0.58384 0.69846 0.0
H3552 H 0.84004 0.55845 0.743 0.0
H3553 H 0.79493 0.5712 0.74301 0.0
H3554 H 0.85467 0.59206 0.73214 0.0
H3555 H 0.85143 0.58173 0.71571 0.0
H3556 H 0.85816 0.57265 0.73208 0.0
H3557 H 0.79951 0.60724 0.73196 0.0
H3558 H 0.78631 0.59241 0.73151 0.0
H3559 H 0.79616 0.5972 0.71538 0.0
C3560 C 0.93825 0.32527 0.71053 0.0
C3561 C 0.92539 0.3303 0.71678 0.0
C3562 C 0.95051 0.3213 0.71931 0.0
C3563 C 0.94995 0.32231 0.73476 0.0
C3564 C 0.93705 0.32748 0.74115 0.0
C3565 C 0.92496 0.33143 0.7321 0.0
C3566 C 0.96405 0.31593 0.71202 0.0
C3567 C 0.93596 0.32864 0.75756 0.0
C3568 C 0.97658 0.29835 0.75671 0.0
C3569 C 0.98791 0.30828 0.76053 0.0
C3570 C 0.96405 0.30283 0.74865 0.0
C3571 C 0.96277 0.31763 0.74419 0.0
C3572 C 0.97399 0.3278 0.74829 0.0
C3573 C 0.98639 0.32302 0.75644 0.0
C3574 C 0.9523 0.29164 0.74465 0.0
C3575 C 0.97308 0.34366 0.74374 0.0
H3576 H 0.93878 0.32457 0.69872 0.0
H3577 H 0.91504 0.33515 0.73705 0.0
H3578 H 0.97363 0.32285 0.71539 0.0
H3579 H 0.96647 0.30458 0.7156 0.0
H3580 H 0.96286 0.31608 0.69988 0.0
H3581 H 0.92531 0.33318 0.76081 0.0
H3582 H 0.93728 0.31766 0.7626 0.0
H3583 H 0.94491 0.33573 0.76215 0.0
H3584 H 0.97754 0.287 0.76003 0.0
H3585 H 0.99512 0.33074 0.75922 0.0
H3586 H 0.95134 0.29043 0.73257 0.0
H3587 H 0.94153 0.29538 0.74841 0.0
H3588 H 0.95462 0.28073 0.74953 0.0
H3589 H 0.97306 0.34446 0.73162 0.0
H3590 H 0.98238 0.35032 0.74836 0.0
H3591 H 0.96269 0.34846 0.74735 0.0
C3592 C 0.20736 0.44259 0.71604 0.0
C3593 C 0.20426 0.43035 0.72472 0.0
C3594 C 0.21561 0.45447 0.72171 0.0
C3595 C 0.22102 0.4541 0.73642 0.0
C3596 C 0.21715 0.44219 0.74551 0.0
C3597 C 0.20878 0.43046 0.73955 0.0
C3598 C 0.21932 0.46699 0.71165 0.0
C3599 C 0.22268 0.44134 0.76123 0.0
C3600 C 0.25774 0.47341 0.7415 0.0
C3601 C 0.25385 0.48702 0.74726 0.0
C3602 C 0.24724 0.4624 0.73865 0.0
C3603 C 0.23235 0.46506 0.74147 0.0
C3604 C 0.22841 0.47854 0.7479 0.0
C3605 C 0.23925 0.48938 0.75081 0.0
C3606 C 0.25203 0.44814 0.73199 0.0
C3607 C 0.21267 0.48179 0.75107 0.0
H3608 H 0.20369 0.44267 0.70463 0.0
H3609 H 0.20645 0.42101 0.7463 0.0
H3610 H 0.21729 0.47764 0.71702 0.0
H3611 H 0.23113 0.46665 0.70921 0.0
H3612 H 0.21288 0.4665 0.70113 0.0
H3613 H 0.21692 0.43268 0.76742 0.0
H3614 H 0.23456 0.43886 0.76153 0.0
H3615 H 0.22134 0.45199 0.76686 0.0
H3616 H 0.26905 0.47143 0.73892 0.0
H3617 H 0.23619 0.49988 0.75525 0.0
H3618 H 0.2473 0.44709 0.72069 0.0
H3619 H 0.24792 0.43873 0.7384 0.0
H3620 H 0.26413 0.44737 0.73154 0.0
H3621 H 0.20634 0.48315 0.74059 0.0
H3622 H 0.21162 0.49193 0.75767 0.0
H3623 H 0.20764 0.47252 0.75699 0.0
C3624 C 0.11073 0.31903 0.30379 0.0
C3625 C 0.11107 0.32299 0.31863 0.0
C3626 C 0.09855 0.31161 0.29741 0.0
C3627 C 0.08639 0.30823 0.30606 0.0
C3628 C 0.08636 0.31296 0.32083 0.0
C3629 C 0.09873 0.3202 0.32696 0.0
C3630 C 0.09908 0.30664 0.28167 0.0
C3631 C 0.07357 0.30973 0.33041 0.0
C3632 C 0.0502 0.29363 0.28944 0.0
C3633 C 0.05135 0.27867 0.29266 0.0
C3634 C 0.06168 0.30345 0.29337 0.0
C3635 C 0.07461 0.29808 0.30042 0.0
C3636 C 0.07602 0.28288 0.30302 0.0
C3637 C 0.06436 0.27342 0.29921 0.0
C3638 C 0.05975 0.3196 0.29051 0.0
C3639 C 0.08968 0.27661 0.31027 0.0
H3640 H 0.12027 0.32112 0.29733 0.0
H3641 H 0.09887 0.32346 0.33838 0.0
H3642 H 0.10031 0.29457 0.28133 0.0
H3643 H 0.08872 0.3093 0.27562 0.0
H3644 H 0.10836 0.31174 0.27592 0.0
H3645 H 0.07452 0.31561 0.34106 0.0
H3646 H 0.06314 0.31285 0.32474 0.0
H3647 H 0.07298 0.29779 0.33263 0.0
H3648 H 0.04014 0.29772 0.28439 0.0
H3649 H 0.06541 0.26182 0.30152 0.0
H3650 H 0.06934 0.32412 0.28483 0.0
H3651 H 0.0591 0.3255 0.30109 0.0
H3652 H 0.04968 0.32188 0.28379 0.0
H3653 H 0.09952 0.28023 0.3044 0.0
H3654 H 0.08944 0.26445 0.31055 0.0
H3655 H 0.0909 0.28072 0.32169 0.0
C3656 C 0.1985 0.60205 0.28535 0.0
C3657 C 0.19589 0.60277 0.30039 0.0
C3658 C 0.20594 0.59012 0.27938 0.0
C3659 C 0.21086 0.57862 0.28866 0.0
C3660 C 0.20745 0.57889 0.30368 0.0
C3661 C 0.20007 0.59095 0.30936 0.0
C3662 C 0.20934 0.5903 0.26333 0.0
C3663 C 0.21236 0.56684 0.31398 0.0
C3664 C 0.22652 0.54272 0.27465 0.0
C3665 C 0.24156 0.54524 0.27709 0.0
C3666 C 0.21628 0.55368 0.27779 0.0
C3667 C 0.22128 0.56745 0.28331 0.0
C3668 C 0.23651 0.57024 0.28492 0.0
C3669 C 0.2464 0.55912 0.28186 0.0
C3670 C 0.20014 0.55029 0.2759 0.0
C3671 C 0.2424 0.58478 0.29057 0.0
H3672 H 0.19537 0.61115 0.27835 0.0
H3673 H 0.19785 0.5913 0.32094 0.0
H3674 H 0.22117 0.59267 0.2621 0.0
H3675 H 0.207 0.57944 0.25828 0.0
H3676 H 0.20296 0.59874 0.2572 0.0
H3677 H 0.20746 0.56782 0.32491 0.0
H3678 H 0.20938 0.55596 0.30929 0.0
H3679 H 0.22446 0.56725 0.31549 0.0
H3680 H 0.22272 0.53199 0.27102 0.0
H3681 H 0.25804 0.5612 0.28358 0.0
H3682 H 0.19443 0.55933 0.27005 0.0
H3683 H 0.19528 0.54927 0.28683 0.0
H3684 H 0.19805 0.53992 0.26977 0.0
H3685 H 0.23755 0.59391 0.28411 0.0
H3686 H 0.25452 0.58558 0.2901 0.0
H3687 H 0.2393 0.5863 0.30211 0.0
C3688 C 0.90635 0.72075 0.3108 0.0
C3689 C 0.90424 0.70567 0.31294 0.0
C3690 C 0.91899 0.72623 0.30425 0.0
C3691 C 0.92991 0.71641 0.29978 0.0
C3692 C 0.92767 0.70114 0.30151 0.0
C3693 C 0.91487 0.69597 0.30805 0.0
C3694 C 0.92087 0.74258 0.30253 0.0
C3695 C 0.93904 0.6903 0.29699 0.0
C3696 C 0.95923 0.73237 0.2753 0.0
C3697 C 0.97006 0.73661 0.28574 0.0
C3698 C 0.94627 0.72528 0.27959 0.0
C3699 C 0.9442 0.72227 0.29463 0.0
C3700 C 0.9555 0.72579 0.30504 0.0
C3701 C 0.96822 0.73294 0.30048 0.0
C3702 C 0.93449 0.72169 0.26814 0.0
C3703 C 0.9539 0.72264 0.32115 0.0
H3704 H 0.89809 0.72832 0.3143 0.0
H3705 H 0.91342 0.6843 0.30974 0.0
H3706 H 0.93022 0.74647 0.30961 0.0
H3707 H 0.92344 0.74529 0.29106 0.0
H3708 H 0.91094 0.74866 0.30553 0.0
H3709 H 0.93507 0.6788 0.29776 0.0
H3710 H 0.94226 0.69245 0.28558 0.0
H3711 H 0.94902 0.69159 0.30414 0.0
H3712 H 0.96054 0.73526 0.2639 0.0
H3713 H 0.97659 0.73608 0.30861 0.0
H3714 H 0.92494 0.72887 0.26968 0.0
H3715 H 0.93064 0.71021 0.26935 0.0
H3716 H 0.93836 0.72325 0.25684 0.0
H3717 H 0.945 0.72942 0.32548 0.0
H3718 H 0.96413 0.72502 0.32767 0.0
H3719 H 0.95081 0.71099 0.3228 0.0
C3720 C 0.83595 0.41861 0.30454 0.0
C3721 C 0.82658 0.4071 0.30842 0.0
C3722 C 0.83077 0.43052 0.2962 0.0
C3723 C 0.81586 0.43085 0.29143 0.0
C3724 C 0.80631 0.4193 0.29541 0.0
C3725 C 0.81176 0.40762 0.30395 0.0
C3726 C 0.84127 0.44271 0.29241 0.0
C3727 C 0.79039 0.41915 0.29042 0.0
C3728 C 0.79937 0.46733 0.27966 0.0
C3729 C 0.80033 0.46671 0.26437 0.0
C3730 C 0.80439 0.45577 0.28859 0.0
C3731 C 0.81035 0.44317 0.28209 0.0
C3732 C 0.81125 0.44244 0.26664 0.0
C3733 C 0.80633 0.45425 0.25799 0.0
C3734 C 0.80345 0.45711 0.30501 0.0
C3735 C 0.81735 0.42913 0.25925 0.0
H3736 H 0.84738 0.41834 0.30811 0.0
H3737 H 0.8045 0.39868 0.30682 0.0
H3738 H 0.84216 0.44344 0.28035 0.0
H3739 H 0.83707 0.45336 0.29623 0.0
H3740 H 0.85239 0.44106 0.29738 0.0
H3741 H 0.78437 0.40946 0.29457 0.0
H3742 H 0.78495 0.42921 0.29422 0.0
H3743 H 0.78952 0.41912 0.27827 0.0
H3744 H 0.79491 0.477 0.28466 0.0
H3745 H 0.80693 0.45364 0.24618 0.0
H3746 H 0.81456 0.45629 0.31023 0.0
H3747 H 0.79678 0.44796 0.30932 0.0
H3748 H 0.79854 0.46763 0.30836 0.0
H3749 H 0.82888 0.42746 0.26303 0.0
H3750 H 0.817 0.43013 0.24712 0.0
H3751 H 0.81105 0.41921 0.26231 0.0
C3752 C 0.2311 0.61074 0.67429 0.0
C3753 C 0.22962 0.62337 0.68283 0.0
C3754 C 0.23803 0.59823 0.68007 0.0
C3755 C 0.24388 0.59849 0.69463 0.0
C3756 C 0.24263 0.61133 0.7032 0.0
C3757 C 0.23538 0.62355 0.69724 0.0
C3758 C 0.23888 0.58467 0.67068 0.0
C3759 C 0.24896 0.61217 0.71866 0.0
C3760 C 0.25026 0.56297 0.71558 0.0
C3761 C 0.26528 0.56084 0.71393 0.0
C3762 C 0.24308 0.57498 0.70908 0.0
C3763 C 0.25121 0.5853 0.70099 0.0
C3764 C 0.2664 0.58319 0.69929 0.0
C3765 C 0.27321 0.57089 0.70565 0.0
C3766 C 0.22682 0.57666 0.71091 0.0
C3767 C 0.27552 0.59408 0.69102 0.0
H3768 H 0.22652 0.61054 0.66318 0.0
H3769 H 0.23433 0.63336 0.70381 0.0
H3770 H 0.25048 0.58158 0.66942 0.0
H3771 H 0.23335 0.57536 0.6761 0.0
H3772 H 0.23371 0.58622 0.65962 0.0
H3773 H 0.24751 0.62312 0.72368 0.0
H3774 H 0.24364 0.60383 0.7256 0.0
H3775 H 0.26083 0.60968 0.71876 0.0
H3776 H 0.24409 0.55512 0.72186 0.0
H3777 H 0.28486 0.56935 0.70451 0.0
H3778 H 0.22114 0.57754 0.70002 0.0
H3779 H 0.22468 0.58691 0.71697 0.0
H3780 H 0.22198 0.56733 0.71693 0.0
H3781 H 0.27106 0.59527 0.67965 0.0
H3782 H 0.28717 0.59079 0.69061 0.0
H3783 H 0.27501 0.605 0.69631 0.0
C3784 C 0.21597 0.42174 0.34752 0.0
C3785 C 0.21438 0.40898 0.33905 0.0
C3786 C 0.22304 0.43423 0.34208 0.0
C3787 C 0.22894 0.43383 0.32794 0.0
C3788 C 0.22741 0.42093 0.31936 0.0
C3789 C 0.22 0.4087 0.32496 0.0
C3790 C 0.22413 0.44786 0.35143 0.0
C3791 C 0.23379 0.41997 0.30436 0.0
C3792 C 0.23633 0.46945 0.3078 0.0
C3793 C 0.25135 0.47161 0.31077 0.0
C3794 C 0.22886 0.45733 0.31351 0.0
C3795 C 0.23667 0.44693 0.32211 0.0
C3796 C 0.25186 0.44905 0.32511 0.0
C3797 C 0.25898 0.46146 0.31953 0.0
C3798 C 0.2126 0.45567 0.31034 0.0
C3799 C 0.26064 0.43806 0.33397 0.0
H3800 H 0.21152 0.42198 0.35838 0.0
H3801 H 0.21886 0.39879 0.31846 0.0
H3802 H 0.2358 0.45076 0.35375 0.0
H3803 H 0.21911 0.45722 0.34545 0.0
H3804 H 0.21863 0.4465 0.36201 0.0
H3805 H 0.23191 0.40905 0.29921 0.0
H3806 H 0.22887 0.42842 0.29706 0.0
H3807 H 0.24575 0.4222 0.30514 0.0
H3808 H 0.23042 0.47737 0.30112 0.0
H3809 H 0.27063 0.46305 0.32166 0.0
H3810 H 0.20674 0.45488 0.32076 0.0
H3811 H 0.21032 0.44539 0.30416 0.0
H3812 H 0.20806 0.46498 0.30388 0.0
H3813 H 0.25613 0.43693 0.34504 0.0
H3814 H 0.27239 0.44123 0.33518 0.0
H3815 H 0.25981 0.42714 0.32865 0.0
C3816 C 0.11527 0.72525 0.3127 0.0
C3817 C 0.11534 0.70997 0.31437 0.0
C3818 C 0.10249 0.73266 0.30821 0.0
C3819 C 0.08936 0.72462 0.30537 0.0
C3820 C 0.08945 0.70914 0.30661 0.0
C3821 C 0.10244 0.702 0.31105 0.0
C3822 C 0.10295 0.74914 0.30686 0.0
C3823 C 0.07569 0.70017 0.30373 0.0
C3824 C 0.05367 0.74509 0.3099 0.0
C3825 C 0.04936 0.74813 0.29534 0.0
C3826 C 0.06652 0.73728 0.31328 0.0
C3827 C 0.07543 0.7325 0.30183 0.0
C3828 C 0.07115 0.73553 0.2871 0.0
C3829 C 0.05814 0.74324 0.28404 0.0
C3830 C 0.0706 0.73418 0.32912 0.0
C3831 C 0.0804 0.7308 0.27458 0.0
H3832 H 0.12525 0.73147 0.31503 0.0
H3833 H 0.10236 0.69021 0.31243 0.0
H3834 H 0.09871 0.75251 0.29586 0.0
H3835 H 0.09577 0.75408 0.31504 0.0
H3836 H 0.11419 0.75369 0.30861 0.0
H3837 H 0.07774 0.68821 0.30437 0.0
H3838 H 0.06743 0.70302 0.31187 0.0
H3839 H 0.07087 0.70273 0.29274 0.0
H3840 H 0.04685 0.74866 0.31867 0.0
H3841 H 0.05498 0.7457 0.27278 0.0
H3842 H 0.08135 0.73934 0.33205 0.0
H3843 H 0.07175 0.72221 0.33082 0.0
H3844 H 0.06234 0.73834 0.33671 0.0
H3845 H 0.09145 0.7359 0.27573 0.0
H3846 H 0.07547 0.73386 0.26374 0.0
H3847 H 0.08187 0.71876 0.27486 0.0
C3848 C 0.80814 0.6057 0.29328 0.0
C3849 C 0.81098 0.60767 0.30834 0.0
C3850 C 0.80176 0.59268 0.2878 0.0
C3851 C 0.7981 0.58131 0.29761 0.0
C3852 C 0.80039 0.58344 0.31287 0.0
C3853 C 0.80682 0.59658 0.31805 0.0
C3854 C 0.79945 0.59089 0.27144 0.0
C3855 C 0.79663 0.5716 0.32368 0.0
C3856 C 0.7745 0.55055 0.28089 0.0
C3857 C 0.78527 0.5408 0.27649 0.0
C3858 C 0.7784 0.56354 0.28845 0.0
C3859 C 0.79338 0.56673 0.2917 0.0
C3860 C 0.80415 0.55642 0.2881 0.0
C3861 C 0.79997 0.54363 0.28053 0.0
C3862 C 0.7666 0.57423 0.29218 0.0
C3863 C 0.82023 0.55927 0.29147 0.0
H3864 H 0.81104 0.61433 0.28573 0.0
H3865 H 0.80906 0.59796 0.3297 0.0
H3866 H 0.80669 0.58215 0.26747 0.0
H3867 H 0.78799 0.58745 0.26877 0.0
H3868 H 0.80184 0.60114 0.26539 0.0
H3869 H 0.79744 0.57557 0.33518 0.0
H3870 H 0.78537 0.56735 0.32139 0.0
H3871 H 0.80421 0.56229 0.32255 0.0
H3872 H 0.76313 0.54846 0.27772 0.0
H3873 H 0.80833 0.53605 0.27727 0.0
H3874 H 0.76727 0.58392 0.28491 0.0
H3875 H 0.76817 0.57817 0.30362 0.0
H3876 H 0.75547 0.56931 0.2908 0.0
H3877 H 0.82405 0.56864 0.28483 0.0
H3878 H 0.82707 0.54963 0.28907 0.0
H3879 H 0.82204 0.56228 0.30317 0.0
C3880 C 0.91142 0.30121 0.32337 0.0
C3881 C 0.91079 0.3064 0.33778 0.0
C3882 C 0.92369 0.29357 0.31868 0.0
C3883 C 0.93574 0.29131 0.32857 0.0
C3884 C 0.93525 0.29676 0.34306 0.0
C3885 C 0.92272 0.30412 0.34753 0.0
C3886 C 0.92369 0.28774 0.30321 0.0
C3887 C 0.94797 0.29485 0.35385 0.0
C3888 C 0.96235 0.26051 0.3212 0.0
C3889 C 0.97365 0.26802 0.3143 0.0
C3890 C 0.9499 0.26793 0.32582 0.0
C3891 C 0.94888 0.28327 0.32374 0.0
C3892 C 0.9604 0.29093 0.31701 0.0
C3893 C 0.97258 0.28319 0.31226 0.0
C3894 C 0.93774 0.25932 0.33272 0.0
C3895 C 0.95989 0.30732 0.31486 0.0
H3896 H 0.90214 0.30285 0.31586 0.0
H3897 H 0.92231 0.30824 0.35864 0.0
H3898 H 0.93303 0.29252 0.29731 0.0
H3899 H 0.92515 0.27569 0.30338 0.0
H3900 H 0.91339 0.29025 0.29694 0.0
H3901 H 0.946 0.30004 0.3646 0.0
H3902 H 0.95005 0.28303 0.35564 0.0
H3903 H 0.95805 0.29971 0.34936 0.0
H3904 H 0.96309 0.24876 0.32264 0.0
H3905 H 0.98139 0.28903 0.30707 0.0
H3906 H 0.92737 0.26076 0.32623 0.0
H3907 H 0.93592 0.2635 0.34391 0.0
H3908 H 0.94015 0.24743 0.33343 0.0
H3909 H 0.95027 0.31021 0.30775 0.0
H3910 H 0.96992 0.31169 0.30979 0.0
H3911 H 0.95859 0.31285 0.32555 0.0
C3912 C 0.81356 0.42188 0.70135 0.0
C3913 C 0.8289 0.42232 0.70073 0.0
C3914 C 0.80577 0.43398 0.70647 0.0
C3915 C 0.8135 0.4468 0.71105 0.0
C3916 C 0.82886 0.44761 0.7095 0.0
C3917 C 0.83635 0.43538 0.70439 0.0
C3918 C 0.7894 0.43267 0.70787 0.0
C3919 C 0.83756 0.46109 0.71414 0.0
C3920 C 0.79597 0.48305 0.72129 0.0
C3921 C 0.79715 0.48233 0.7366 0.0
C3922 C 0.80048 0.4712 0.71264 0.0
C3923 C 0.80612 0.45842 0.71955 0.0
C3924 C 0.80623 0.45734 0.73501 0.0
C3925 C 0.80184 0.46932 0.7433 0.0
C3926 C 0.80008 0.47272 0.6962 0.0
C3927 C 0.81192 0.4439 0.7429 0.0
H3928 H 0.80772 0.41182 0.69855 0.0
H3929 H 0.84816 0.43591 0.70362 0.0
H3930 H 0.78684 0.43117 0.71957 0.0
H3931 H 0.78391 0.44281 0.70402 0.0
H3932 H 0.78475 0.4232 0.70157 0.0
H3933 H 0.8491 0.46062 0.71072 0.0
H3934 H 0.83246 0.47107 0.70942 0.0
H3935 H 0.83756 0.46216 0.72624 0.0
H3936 H 0.79239 0.49313 0.7161 0.0
H3937 H 0.80257 0.46869 0.75516 0.0
H3938 H 0.79582 0.46253 0.69089 0.0
H3939 H 0.81136 0.47456 0.69242 0.0
H3940 H 0.79321 0.48206 0.69246 0.0
H3941 H 0.80663 0.43387 0.73826 0.0
H3942 H 0.80997 0.44427 0.75483 0.0
H3943 H 0.82388 0.44298 0.74138 0.0
C3944 C 0.1096 0.33059 0.71237 0.0
C3945 C 0.12174 0.32295 0.70745 0.0
C3946 C 0.09807 0.32326 0.71918 0.0
C3947 C 0.09872 0.30789 0.72126 0.0
C3948 C 0.1107 0.30004 0.71586 0.0
C3949 C 0.12204 0.30765 0.70899 0.0
C3950 C 0.08547 0.33206 0.72468 0.0
C3951 C 0.11191 0.2837 0.71797 0.0
C3952 C 0.07967 0.29462 0.75507 0.0
C3953 C 0.06633 0.2891 0.74924 0.0
C3954 C 0.09047 0.3002 0.74602 0.0
C3955 C 0.08786 0.30045 0.73067 0.0
C3956 C 0.07463 0.29436 0.72462 0.0
C3957 C 0.06402 0.28864 0.734 0.0
C3958 C 0.10446 0.30633 0.75298 0.0
C3959 C 0.07145 0.29446 0.70831 0.0
H3960 H 0.10917 0.34237 0.71099 0.0
H3961 H 0.13142 0.30166 0.70531 0.0
H3962 H 0.07488 0.32706 0.72092 0.0
H3963 H 0.08577 0.33198 0.73683 0.0
H3964 H 0.08584 0.34362 0.72092 0.0
H3965 H 0.12095 0.27898 0.7117 0.0
H3966 H 0.11394 0.28127 0.72976 0.0
H3967 H 0.10151 0.27813 0.71453 0.0
H3968 H 0.0816 0.29483 0.76685 0.0
H3969 H 0.0537 0.28443 0.72947 0.0
H3970 H 0.10512 0.3183 0.751 0.0
H3971 H 0.1141 0.30131 0.74796 0.0
H3972 H 0.1052 0.30441 0.76499 0.0
H3973 H 0.07008 0.30592 0.70451 0.0
H3974 H 0.06135 0.28816 0.70523 0.0
H3975 H 0.08077 0.28981 0.70243 0.0
C3976 C 0.92595 0.73043 0.7168 0.0
C3977 C 0.92259 0.72875 0.70179 0.0
C3978 C 0.93949 0.73624 0.72175 0.0
C3979 C 0.94988 0.74069 0.71144 0.0
C3980 C 0.94609 0.74019 0.69629 0.0
C3981 C 0.93251 0.73413 0.69163 0.0
C3982 C 0.94304 0.73663 0.73802 0.0
C3983 C 0.95671 0.74518 0.68498 0.0
C3984 C 0.98335 0.7594 0.7292 0.0
C3985 C 0.99247 0.74733 0.73172 0.0
C3986 C 0.96977 0.75771 0.7216 0.0
C3987 C 0.96528 0.74363 0.71655 0.0
C3988 C 0.975 0.73172 0.71807 0.0
C3989 C 0.98848 0.73374 0.72557 0.0
C3990 C 0.95987 0.77076 0.71991 0.0
C3991 C 0.97072 0.71651 0.71284 0.0
H3992 H 0.91818 0.7267 0.72473 0.0
H3993 H 0.93002 0.73291 0.68 0.0
H3994 H 0.95175 0.72859 0.74072 0.0
H3995 H 0.94727 0.7476 0.74134 0.0
H3996 H 0.93335 0.73397 0.7446 0.0
H3997 H 0.95122 0.74672 0.67406 0.0
H3998 H 0.96216 0.75561 0.68838 0.0
H3999 H 0.96537 0.73686 0.6839 0.0
H4000 H 0.98638 0.76994 0.73392 0.0
H4001 H 0.99557 0.72441 0.72731 0.0
H4002 H 0.95145 0.7703 0.72839 0.0
H4003 H 0.95407 0.77069 0.70904 0.0
H4004 H 0.96605 0.78124 0.72125 0.0
H4005 H 0.96162 0.71225 0.71944 0.0
H4006 H 0.97996 0.70873 0.71381 0.0
H4007 H 0.96674 0.7168 0.70125 0.0
C4008 C 0.70388 0.22046 0.59405 0.0
C4009 C 0.7145 0.2156 0.60434 0.0
C4010 C 0.70797 0.22724 0.58093 0.0
C4011 C 0.72301 0.22914 0.57804 0.0
C4012 C 0.73371 0.22507 0.58882 0.0
C4013 C 0.72933 0.21841 0.60181 0.0
C4014 C 0.69621 0.23158 0.56983 0.0
C4015 C 0.74987 0.22697 0.58627 0.0
C4016 C 0.73745 0.22637 0.53978 0.0
C4017 C 0.74195 0.24082 0.53707 0.0
C4018 C 0.73041 0.22262 0.55268 0.0
C4019 C 0.72777 0.2336 0.5632 0.0
C4020 C 0.7313 0.2484 0.56006 0.0
C4021 C 0.73837 0.25185 0.547 0.0
C4022 C 0.72676 0.20672 0.55548 0.0
C4023 C 0.72848 0.26045 0.57089 0.0
H4024 H 0.6924 0.21832 0.5959 0.0
H4025 H 0.73758 0.21499 0.60987 0.0
H4026 H 0.69856 0.2426 0.56531 0.0
H4027 H 0.696 0.22372 0.56056 0.0
H4028 H 0.68519 0.23163 0.57461 0.0
H4029 H 0.75673 0.22443 0.5962 0.0
H4030 H 0.75309 0.2196 0.57729 0.0
H4031 H 0.75231 0.23836 0.58283 0.0
H4032 H 0.74002 0.2178 0.53209 0.0
H4033 H 0.74181 0.26304 0.54499 0.0
H4034 H 0.71527 0.20553 0.5589 0.0
H4035 H 0.73394 0.20254 0.56456 0.0
H4036 H 0.72826 0.19976 0.54568 0.0
H4037 H 0.71743 0.25921 0.57544 0.0
H4038 H 0.72943 0.27147 0.56585 0.0
H4039 H 0.73659 0.25977 0.58018 0.0
C4040 C 0.33022 0.22674 0.60365 0.0
C4041 C 0.3231 0.22337 0.61661 0.0
C4042 C 0.32257 0.23293 0.59163 0.0
C4043 C 0.30745 0.23594 0.59261 0.0
C4044 C 0.3001 0.23213 0.60549 0.0
C4045 C 0.30801 0.22586 0.61733 0.0
C4046 C 0.33081 0.23674 0.57807 0.0
C4047 C 0.28403 0.23526 0.60703 0.0
C4048 C 0.295 0.26821 0.56958 0.0
C4049 C 0.28847 0.26137 0.55722 0.0
C4050 C 0.30062 0.26004 0.5814 0.0
C4051 C 0.29986 0.24457 0.58084 0.0
C4052 C 0.29271 0.23756 0.56867 0.0
C4053 C 0.28699 0.24608 0.557 0.0
C4054 C 0.30792 0.268 0.59423 0.0
C4055 C 0.29171 0.22109 0.56769 0.0
H4056 H 0.34182 0.22458 0.60294 0.0
H4057 H 0.30246 0.22335 0.62734 0.0
H4058 H 0.325 0.23221 0.56818 0.0
H4059 H 0.33132 0.24881 0.57678 0.0
H4060 H 0.34217 0.2325 0.57853 0.0
H4061 H 0.2796 0.23023 0.61705 0.0
H4062 H 0.2824 0.24727 0.60755 0.0
H4063 H 0.27761 0.23112 0.59734 0.0
H4064 H 0.29599 0.28006 0.56988 0.0
H4065 H 0.28198 0.24076 0.54744 0.0
H4066 H 0.31979 0.26551 0.59475 0.0
H4067 H 0.30327 0.26422 0.60465 0.0
H4068 H 0.30664 0.28007 0.59345 0.0
H4069 H 0.30282 0.21655 0.56643 0.0
H4070 H 0.2846 0.21737 0.55828 0.0
H4071 H 0.28737 0.21646 0.57793 0.0
C4072 C 0.29937 0.82809 0.60986 0.0
C4073 C 0.31249 0.83615 0.60964 0.0
C4074 C 0.2949 0.81919 0.59789 0.0
C4075 C 0.30367 0.81852 0.58539 0.0
C4076 C 0.3165 0.82731 0.58485 0.0
C4077 C 0.32081 0.8359 0.59703 0.0
C4078 C 0.28123 0.80989 0.59897 0.0
C4079 C 0.32604 0.82717 0.57166 0.0
C4080 C 0.30354 0.78423 0.56159 0.0
C4081 C 0.29456 0.78837 0.54959 0.0
C4082 C 0.30626 0.79379 0.57347 0.0
C4083 C 0.30004 0.80796 0.57326 0.0
C4084 C 0.29091 0.81218 0.56119 0.0
C4085 C 0.2882 0.80231 0.54956 0.0
C4086 C 0.31589 0.78876 0.5862 0.0
C4087 C 0.28428 0.82725 0.5604 0.0
H4088 H 0.29305 0.82813 0.61969 0.0
H4089 H 0.33099 0.84212 0.59689 0.0
H4090 H 0.27396 0.81141 0.58914 0.0
H4091 H 0.28425 0.79815 0.59939 0.0
H4092 H 0.27501 0.81252 0.60887 0.0
H4093 H 0.33486 0.83562 0.57241 0.0
H4094 H 0.33117 0.81627 0.57065 0.0
H4095 H 0.31932 0.82904 0.5615 0.0
H4096 H 0.30832 0.77342 0.56174 0.0
H4097 H 0.2814 0.80564 0.54024 0.0
H4098 H 0.31003 0.78991 0.59659 0.0
H4099 H 0.32587 0.79576 0.58713 0.0
H4100 H 0.31928 0.77718 0.58503 0.0
H4101 H 0.27783 0.82933 0.57026 0.0
H4102 H 0.27704 0.82868 0.55051 0.0
H4103 H 0.29312 0.83567 0.56026 0.0
C4104 C 0.70661 0.80793 0.61342 0.0
C4105 C 0.69188 0.81156 0.61512 0.0
C4106 C 0.71098 0.79976 0.60131 0.0
C4107 C 0.70039 0.79517 0.59054 0.0
C4108 C 0.6855 0.79884 0.59217 0.0
C4109 C 0.68142 0.80693 0.60447 0.0
C4110 C 0.72694 0.79595 0.60007 0.0
C4111 C 0.6739 0.7943 0.58086 0.0
C4112 C 0.7144 0.78566 0.55294 0.0
C4113 C 0.71477 0.77031 0.55344 0.0
C4114 C 0.70949 0.79387 0.5648 0.0
C4115 C 0.70494 0.78657 0.57757 0.0
C4116 C 0.7051 0.77106 0.57809 0.0
C4117 C 0.70995 0.76313 0.566 0.0
C4118 C 0.70932 0.81037 0.56372 0.0
C4119 C 0.70048 0.76286 0.59155 0.0
H4120 H 0.71472 0.81131 0.62171 0.0
H4121 H 0.67004 0.80982 0.60564 0.0
H4122 H 0.72817 0.78389 0.59956 0.0
H4123 H 0.73121 0.80053 0.58979 0.0
H4124 H 0.73379 0.80022 0.60944 0.0
H4125 H 0.66282 0.79807 0.5837 0.0
H4126 H 0.67659 0.79886 0.57001 0.0
H4127 H 0.67362 0.7822 0.57977 0.0
H4128 H 0.71794 0.79126 0.5432 0.0
H4129 H 0.71037 0.75129 0.56656 0.0
H4130 H 0.71686 0.81519 0.57224 0.0
H4131 H 0.69819 0.81448 0.56578 0.0
H4132 H 0.71267 0.81434 0.55283 0.0
H4133 H 0.70774 0.76596 0.60105 0.0
H4134 H 0.70089 0.7508 0.59008 0.0
H4135 H 0.68917 0.7659 0.59429 0.0
C4136 C 0.7079 0.80064 0.42065 0.0
C4137 C 0.70703 0.81555 0.41708 0.0
C4138 C 0.71634 0.79585 0.43282 0.0
C4139 C 0.72426 0.8062 0.44161 0.0
C4140 C 0.72345 0.82127 0.4381 0.0
C4141 C 0.71479 0.82577 0.42594 0.0
C4142 C 0.71684 0.77967 0.43623 0.0
C4143 C 0.73177 0.83263 0.44715 0.0
C4144 C 0.73487 0.79296 0.47988 0.0
C4145 C 0.74903 0.78759 0.47791 0.0
C4146 C 0.72691 0.79963 0.46833 0.0
C4147 C 0.73329 0.80113 0.4545 0.0
C4148 C 0.74793 0.79667 0.45271 0.0
C4149 C 0.7556 0.78991 0.46442 0.0
C4150 C 0.71133 0.80422 0.4707 0.0
C4151 C 0.75522 0.7983 0.4382 0.0
H4152 H 0.70217 0.79262 0.41377 0.0
H4153 H 0.71404 0.83734 0.42344 0.0
H4154 H 0.72827 0.77574 0.43576 0.0
H4155 H 0.71315 0.77769 0.44752 0.0
H4156 H 0.70985 0.77307 0.42849 0.0
H4157 H 0.73016 0.8439 0.44285 0.0
H4158 H 0.72819 0.83228 0.45864 0.0
H4159 H 0.74365 0.83019 0.44738 0.0
H4160 H 0.72967 0.79127 0.49025 0.0
H4161 H 0.76655 0.78589 0.46279 0.0
H4162 H 0.70371 0.79697 0.46427 0.0
H4163 H 0.70955 0.81557 0.46676 0.0
H4164 H 0.70846 0.80362 0.48241 0.0
H4165 H 0.74993 0.79074 0.43007 0.0
H4166 H 0.76709 0.79582 0.43905 0.0
H4167 H 0.75385 0.8096 0.43394 0.0
C4168 C 0.71303 0.19917 0.41156 0.0
C4169 C 0.72063 0.19733 0.39861 0.0
C4170 C 0.72016 0.20455 0.42438 0.0
C4171 C 0.73521 0.20845 0.42417 0.0
C4172 C 0.74287 0.20683 0.41104 0.0
C4173 C 0.73553 0.20117 0.39846 0.0
C4174 C 0.71165 0.20587 0.43819 0.0
C4175 C 0.75883 0.21109 0.41026 0.0
C4176 C 0.75072 0.23434 0.45369 0.0
C4177 C 0.75832 0.22468 0.46308 0.0
C4178 C 0.74318 0.22923 0.44099 0.0
C4179 C 0.743 0.21405 0.43772 0.0
C4180 C 0.75046 0.20423 0.4473 0.0
C4181 C 0.75814 0.20968 0.45977 0.0
C4182 C 0.73562 0.2401 0.43093 0.0
C4183 C 0.75032 0.18795 0.44439 0.0
H4184 H 0.70154 0.19609 0.41174 0.0
H4185 H 0.7414 0.19991 0.38843 0.0
H4186 H 0.71682 0.19909 0.44698 0.0
H4187 H 0.71192 0.21738 0.4421 0.0
H4188 H 0.70004 0.20234 0.43656 0.0
H4189 H 0.76309 0.20959 0.39911 0.0
H4190 H 0.7604 0.22272 0.41352 0.0
H4191 H 0.76548 0.2044 0.41806 0.0
H4192 H 0.75099 0.24595 0.45612 0.0
H4193 H 0.76387 0.20218 0.46709 0.0
H4194 H 0.72379 0.23736 0.42972 0.0
H4195 H 0.74024 0.23949 0.41987 0.0
H4196 H 0.7368 0.25153 0.43502 0.0
H4197 H 0.73886 0.18382 0.44344 0.0
H4198 H 0.75623 0.18173 0.45316 0.0
H4199 H 0.75548 0.18567 0.43381 0.0
C4200 C 0.32175 0.21115 0.43224 0.0
C4201 C 0.32517 0.21671 0.41843 0.0
C4202 C 0.31867 0.22056 0.44389 0.0
C4203 C 0.31902 0.23591 0.44171 0.0
C4204 C 0.3227 0.2416 0.42788 0.0
C4205 C 0.32572 0.23194 0.41642 0.0
C4206 C 0.31483 0.21404 0.45848 0.0
C4207 C 0.32315 0.2579 0.42512 0.0
C4208 C 0.29608 0.25864 0.46697 0.0
C4209 C 0.30658 0.26374 0.47736 0.0
C4210 C 0.30003 0.2498 0.4552 0.0
C4211 C 0.31488 0.24595 0.45373 0.0
C4212 C 0.32561 0.25134 0.46397 0.0
C4213 C 0.32133 0.26021 0.47566 0.0
C4214 C 0.28826 0.24438 0.44447 0.0
C4215 C 0.34155 0.24748 0.46277 0.0
H4216 H 0.32153 0.19941 0.43396 0.0
H4217 H 0.32821 0.23633 0.40575 0.0
H4218 H 0.32228 0.21848 0.46727 0.0
H4219 H 0.30352 0.21716 0.46119 0.0
H4220 H 0.31553 0.2019 0.45853 0.0
H4221 H 0.32689 0.26059 0.41397 0.0
H4222 H 0.31209 0.26254 0.42637 0.0
H4223 H 0.33059 0.26338 0.43331 0.0
H4224 H 0.28471 0.26157 0.46803 0.0
H4225 H 0.32948 0.26403 0.4837 0.0
H4226 H 0.28766 0.23224 0.44476 0.0
H4227 H 0.29097 0.24759 0.43316 0.0
H4228 H 0.27729 0.24876 0.44688 0.0
H4229 H 0.34289 0.23547 0.46397 0.0
H4230 H 0.34862 0.25306 0.47124 0.0
H4231 H 0.34544 0.25052 0.45179 0.0
C4232 C 0.31625 0.82425 0.42006 0.0
C4233 C 0.30739 0.8274 0.40766 0.0
C4234 C 0.31046 0.81713 0.43226 0.0
C4235 C 0.2955 0.81279 0.43195 0.0
C4236 C 0.28649 0.81605 0.41949 0.0
C4237 C 0.29251 0.82341 0.40756 0.0
C4238 C 0.32041 0.81402 0.44539 0.0
C4239 C 0.2706 0.81134 0.41856 0.0
C4240 C 0.28711 0.77993 0.45575 0.0
C4241 C 0.28091 0.7864 0.46799 0.0
C4242 C 0.29135 0.78834 0.44377 0.0
C4243 C 0.28969 0.80373 0.44411 0.0
C4244 C 0.28305 0.81033 0.45628 0.0
C4245 C 0.27857 0.80153 0.46805 0.0
C4246 C 0.29801 0.78077 0.4309 0.0
C4247 C 0.28127 0.82671 0.45714 0.0
H4248 H 0.32771 0.82748 0.42025 0.0
H4249 H 0.28565 0.82574 0.39795 0.0
H4250 H 0.31546 0.81812 0.45552 0.0
H4251 H 0.32178 0.80202 0.44665 0.0
H4252 H 0.33141 0.81915 0.44441 0.0
H4253 H 0.26485 0.81546 0.40849 0.0
H4254 H 0.26983 0.79921 0.41862 0.0
H4255 H 0.2648 0.81534 0.42824 0.0
H4256 H 0.28881 0.76819 0.45563 0.0
H4257 H 0.2739 0.80656 0.47756 0.0
H4258 H 0.30964 0.78418 0.4301 0.0
H4259 H 0.29225 0.78402 0.42054 0.0
H4260 H 0.29752 0.76865 0.43186 0.0
H4261 H 0.29222 0.83209 0.45767 0.0
H4262 H 0.27516 0.83007 0.46689 0.0
H4263 H 0.27542 0.83081 0.44715 0.0
C4264 C 0.6146 0.19206 0.70526 0.0
C4265 C 0.62557 0.20254 0.70277 0.0
C4266 C 0.60265 0.19531 0.71396 0.0
C4267 C 0.60176 0.20932 0.72054 0.0
C4268 C 0.61287 0.21991 0.71815 0.0
C4269 C 0.62457 0.21643 0.7092 0.0
C4270 C 0.59092 0.18381 0.71602 0.0
C4271 C 0.61244 0.23489 0.72512 0.0
C4272 C 0.56496 0.2236 0.73231 0.0
C4273 C 0.56552 0.22078 0.74741 0.0
C4274 C 0.57654 0.21968 0.7234 0.0
C4275 C 0.58912 0.21297 0.72978 0.0
C4276 C 0.5897 0.21 0.74502 0.0
C4277 C 0.57784 0.21383 0.75362 0.0
C4278 C 0.57534 0.22281 0.70718 0.0
C4279 C 0.603 0.20307 0.75228 0.0
H4280 H 0.61527 0.18135 0.7002 0.0
H4281 H 0.63311 0.2245 0.70744 0.0
H4282 H 0.59001 0.18127 0.72783 0.0
H4283 H 0.58015 0.18802 0.71207 0.0
H4284 H 0.59318 0.1735 0.71008 0.0
H4285 H 0.6221 0.24176 0.72245 0.0
H4286 H 0.60238 0.24067 0.72137 0.0
H4287 H 0.61205 0.23381 0.7372 0.0
H4288 H 0.55538 0.22883 0.72745 0.0
H4289 H 0.57838 0.21179 0.76531 0.0
H4290 H 0.5769 0.21258 0.70088 0.0
H4291 H 0.58412 0.23059 0.70411 0.0
H4292 H 0.56459 0.22755 0.70384 0.0
H4293 H 0.6052 0.19236 0.74709 0.0
H4294 H 0.60168 0.20132 0.7642 0.0
H4295 H 0.61277 0.21015 0.75075 0.0
C4296 C 0.32403 0.11769 0.71763 0.0
C4297 C 0.32046 0.12274 0.70344 0.0
C4298 C 0.31794 0.10456 0.72296 0.0
C4299 C 0.30773 0.09648 0.71406 0.0
C4300 C 0.30419 0.10144 0.69973 0.0
C4301 C 0.31082 0.11424 0.69451 0.0
C4302 C 0.32238 0.09937 0.73814 0.0
C4303 C 0.29318 0.09334 0.68993 0.0
C4304 C 0.29891 0.05617 0.72021 0.0
C4305 C 0.28588 0.05692 0.72783 0.0
C4306 C 0.3065 0.06896 0.71627 0.0
C4307 C 0.30064 0.08284 0.7196 0.0
C4308 C 0.28747 0.08361 0.72735 0.0
C4309 C 0.28039 0.07062 0.7316 0.0
C4310 C 0.32075 0.06761 0.70848 0.0
C4311 C 0.28061 0.09814 0.73074 0.0
H4312 H 0.33137 0.12409 0.72471 0.0
H4313 H 0.30833 0.1176 0.68335 0.0
H4314 H 0.31279 0.09953 0.74527 0.0
H4315 H 0.3262 0.08788 0.7377 0.0
H4316 H 0.33122 0.10628 0.74326 0.0
H4317 H 0.29111 0.09902 0.67932 0.0
H4318 H 0.29714 0.08216 0.68763 0.0
H4319 H 0.28264 0.09215 0.69552 0.0
H4320 H 0.30328 0.04553 0.71758 0.0
H4321 H 0.27035 0.07111 0.73756 0.0
H4322 H 0.32942 0.07428 0.71419 0.0
H4323 H 0.31945 0.07192 0.69717 0.0
H4324 H 0.32447 0.05609 0.70789 0.0
H4325 H 0.28851 0.1052 0.73703 0.0
H4326 H 0.27054 0.09687 0.73713 0.0
H4327 H 0.27776 0.10394 0.72037 0.0
C4328 C 0.41507 0.81458 0.70974 0.0
C4329 C 0.41452 0.81934 0.69515 0.0
C4330 C 0.42667 0.8059 0.71511 0.0
C4331 C 0.43799 0.80197 0.70567 0.0
C4332 C 0.43775 0.80721 0.69109 0.0
C4333 C 0.42601 0.81581 0.68601 0.0
C4334 C 0.42656 0.80053 0.73074 0.0
C4335 C 0.44968 0.8034 0.68073 0.0
C4336 C 0.47385 0.78805 0.7224 0.0
C4337 C 0.47216 0.77283 0.72078 0.0
C4338 C 0.46284 0.79767 0.71752 0.0
C4339 C 0.44981 0.79194 0.71086 0.0
C4340 C 0.44808 0.77661 0.70904 0.0
C4341 C 0.45929 0.76724 0.71399 0.0
C4342 C 0.46515 0.81396 0.71954 0.0
C4343 C 0.43432 0.77008 0.702 0.0
H4344 H 0.40615 0.81718 0.7168 0.0
H4345 H 0.42572 0.81965 0.67477 0.0
H4346 H 0.42559 0.78841 0.73085 0.0
H4347 H 0.43702 0.80349 0.73657 0.0
H4348 H 0.41737 0.80516 0.73687 0.0
H4349 H 0.44826 0.80896 0.66997 0.0
H4350 H 0.46055 0.80649 0.68561 0.0
H4351 H 0.44972 0.79139 0.67885 0.0
H4352 H 0.48385 0.79245 0.72744 0.0
H4353 H 0.45783 0.75551 0.71286 0.0
H4354 H 0.45641 0.81848 0.72633 0.0
H4355 H 0.46439 0.81955 0.70877 0.0
H4356 H 0.47595 0.81665 0.72488 0.0
H4357 H 0.42468 0.77322 0.70833 0.0
H4358 H 0.4347 0.75794 0.70136 0.0
H4359 H 0.43263 0.77449 0.69076 0.0
C4360 C 0.70197 0.91913 0.70059 0.0
C4361 C 0.69836 0.90794 0.71038 0.0
C4362 C 0.70851 0.93227 0.70565 0.0
C4363 C 0.71151 0.93424 0.72085 0.0
C4364 C 0.70826 0.92281 0.73072 0.0
C4365 C 0.70177 0.90981 0.72537 0.0
C4366 C 0.71188 0.94419 0.69479 0.0
C4367 C 0.71139 0.92442 0.74699 0.0
C4368 C 0.73892 0.96323 0.73422 0.0
C4369 C 0.72972 0.97455 0.73859 0.0
C4370 C 0.73316 0.95017 0.72819 0.0
C4371 C 0.71781 0.94832 0.72653 0.0
C4372 C 0.70844 0.9597 0.73085 0.0
C4373 C 0.71451 0.97267 0.73683 0.0
C4374 C 0.74352 0.93827 0.72382 0.0
C4375 C 0.692 0.95812 0.72926 0.0
H4376 H 0.69927 0.91779 0.68902 0.0
H4377 H 0.69923 0.9011 0.73296 0.0
H4378 H 0.70534 0.95405 0.69713 0.0
H4379 H 0.7236 0.94744 0.69588 0.0
H4380 H 0.70943 0.94073 0.6833 0.0
H4381 H 0.70855 0.91435 0.75315 0.0
H4382 H 0.72315 0.92701 0.74914 0.0
H4383 H 0.70503 0.93366 0.75131 0.0
H4384 H 0.75067 0.96445 0.73577 0.0
H4385 H 0.70734 0.9814 0.74003 0.0
H4386 H 0.74141 0.93522 0.71217 0.0
H4387 H 0.74163 0.9283 0.73046 0.0
H4388 H 0.75519 0.94164 0.72531 0.0
H4389 H 0.68875 0.95575 0.71768 0.0
H4390 H 0.68625 0.96813 0.73277 0.0
H4391 H 0.68823 0.94875 0.73592 0.0
C4392 C 0.60601 0.79774 0.32547 0.0
C4393 C 0.60816 0.81257 0.32186 0.0
C4394 C 0.59303 0.79019 0.32126 0.0
C4395 C 0.58201 0.79747 0.31289 0.0
C4396 C 0.58412 0.81237 0.30909 0.0
C4397 C 0.59702 0.81975 0.31377 0.0
C4398 C 0.59113 0.7744 0.32576 0.0
C4399 C 0.57275 0.82052 0.3 0.0
C4400 C 0.55435 0.77609 0.28893 0.0
C4401 C 0.54142 0.77775 0.29664 0.0
C4402 C 0.56773 0.78205 0.29431 0.0
C4403 C 0.56831 0.78957 0.30789 0.0
C4404 C 0.55549 0.79043 0.31617 0.0
C4405 C 0.54218 0.78468 0.31036 0.0
C4406 C 0.58104 0.78108 0.28499 0.0
C4407 C 0.5557 0.79797 0.33088 0.0
H4408 H 0.61455 0.7919 0.33147 0.0
H4409 H 0.59828 0.83125 0.31114 0.0
H4410 H 0.58081 0.77301 0.33172 0.0
H4411 H 0.59023 0.76731 0.3159 0.0
H4412 H 0.60038 0.7705 0.33288 0.0
H4413 H 0.57623 0.83193 0.29758 0.0
H4414 H 0.57052 0.8147 0.28948 0.0
H4415 H 0.56231 0.82087 0.30584 0.0
H4416 H 0.55388 0.77089 0.27825 0.0
H4417 H 0.53226 0.78597 0.3164 0.0
H4418 H 0.59049 0.77671 0.29148 0.0
H4419 H 0.58416 0.79221 0.28125 0.0
H4420 H 0.57906 0.77401 0.2752 0.0
H4421 H 0.56493 0.79393 0.33792 0.0
H4422 H 0.54533 0.79623 0.33668 0.0
H4423 H 0.5574 0.80992 0.32939 0.0
C4424 C 0.68982 0.10224 0.28966 0.0
C4425 C 0.6991 0.11393 0.294 0.0
C4426 C 0.69547 0.08926 0.28387 0.0
C4427 C 0.71078 0.0879 0.28236 0.0
C4428 C 0.72012 0.0999 0.28612 0.0
C4429 C 0.71418 0.11273 0.29191 0.0
C4430 C 0.68512 0.07674 0.28005 0.0
C4431 C 0.73649 0.09897 0.28464 0.0
C4432 C 0.72924 0.0511 0.28687 0.0
C4433 C 0.73297 0.04771 0.27249 0.0
C4434 C 0.72142 0.06377 0.29007 0.0
C4435 C 0.71726 0.07345 0.27861 0.0
C4436 C 0.7203 0.06972 0.26393 0.0
C4437 C 0.72809 0.05682 0.26102 0.0
C4438 C 0.71828 0.06714 0.30585 0.0
C4439 C 0.71602 0.07974 0.25142 0.0
H4440 H 0.67816 0.10301 0.29132 0.0
H4441 H 0.7214 0.12179 0.29496 0.0
H4442 H 0.68745 0.07224 0.2691 0.0
H4443 H 0.68674 0.06777 0.28811 0.0
H4444 H 0.67348 0.08012 0.28009 0.0
H4445 H 0.74209 0.10966 0.28673 0.0
H4446 H 0.74102 0.09085 0.29255 0.0
H4447 H 0.73911 0.09516 0.2735 0.0
H4448 H 0.73288 0.04403 0.29577 0.0
H4449 H 0.73104 0.0543 0.2499 0.0
H4450 H 0.7065 0.06957 0.30699 0.0
H4451 H 0.7246 0.07701 0.30946 0.0
H4452 H 0.72124 0.05795 0.31331 0.0
H4453 H 0.70443 0.08307 0.25216 0.0
H4454 H 0.71754 0.07451 0.24059 0.0
H4455 H 0.72284 0.08985 0.25207 0.0
C4456 C 0.40751 0.21207 0.30948 0.0
C4457 C 0.40628 0.19817 0.31586 0.0
C4458 C 0.41924 0.21557 0.30054 0.0
C4459 C 0.43012 0.20498 0.2981 0.0
C4460 C 0.42885 0.19087 0.30439 0.0
C4461 C 0.41687 0.1876 0.31312 0.0
C4462 C 0.42008 0.23066 0.29385 0.0
C4463 C 0.44033 0.17937 0.30222 0.0
C4464 C 0.45514 0.21077 0.26606 0.0
C4465 C 0.46731 0.21765 0.27294 0.0
C4466 C 0.44297 0.20648 0.27411 0.0
C4467 C 0.44311 0.20891 0.28944 0.0
C4468 C 0.45554 0.21553 0.29648 0.0
C4469 C 0.46743 0.21991 0.28813 0.0
C4470 C 0.42984 0.19965 0.26618 0.0
C4471 C 0.45623 0.21811 0.31282 0.0
H4472 H 0.39923 0.2202 0.31145 0.0
H4473 H 0.41599 0.17688 0.31814 0.0
H4474 H 0.43001 0.23651 0.29819 0.0
H4475 H 0.42104 0.2298 0.2818 0.0
H4476 H 0.41034 0.23736 0.29619 0.0
H4477 H 0.43751 0.1688 0.3075 0.0
H4478 H 0.44173 0.17742 0.29036 0.0
H4479 H 0.45104 0.18328 0.30688 0.0
H4480 H 0.45497 0.20914 0.25431 0.0
H4481 H 0.47691 0.22504 0.29349 0.0
H4482 H 0.42013 0.20667 0.2675 0.0
H4483 H 0.42727 0.18883 0.27101 0.0
H4484 H 0.4316 0.19818 0.2543 0.0
H4485 H 0.44747 0.22576 0.31586 0.0
H4486 H 0.46695 0.22277 0.31669 0.0
H4487 H 0.4543 0.20767 0.31869 0.0
C4488 C 0.3079 0.91831 0.29433 0.0
C4489 C 0.31215 0.91815 0.30922 0.0
C4490 C 0.29945 0.92978 0.28843 0.0
C4491 C 0.29535 0.94144 0.29762 0.0
C4492 C 0.30015 0.94161 0.31253 0.0
C4493 C 0.30839 0.92989 0.31818 0.0
C4494 C 0.29436 0.92908 0.27255 0.0
C4495 C 0.29618 0.95393 0.32265 0.0
C4496 C 0.27989 0.97697 0.28203 0.0
C4497 C 0.26497 0.97514 0.28471 0.0
C4498 C 0.28996 0.96593 0.28582 0.0
C4499 C 0.28488 0.95271 0.29213 0.0
C4500 C 0.26971 0.95057 0.29409 0.0
C4501 C 0.25998 0.96186 0.29051 0.0
C4502 C 0.30607 0.96865 0.28372 0.0
C4503 C 0.26379 0.93654 0.30048 0.0
H4504 H 0.31074 0.90918 0.28742 0.0
H4505 H 0.31183 0.92986 0.32966 0.0
H4506 H 0.28231 0.92745 0.27186 0.0
H4507 H 0.29682 0.93955 0.26695 0.0
H4508 H 0.29956 0.92001 0.26658 0.0
H4509 H 0.30191 0.95312 0.33354 0.0
H4510 H 0.29894 0.96466 0.3177 0.0
H4511 H 0.2842 0.95374 0.32429 0.0
H4512 H 0.28376 0.98727 0.27761 0.0
H4513 H 0.24842 0.96036 0.29243 0.0
H4514 H 0.3109 0.95939 0.27775 0.0
H4515 H 0.31186 0.9694 0.29457 0.0
H4516 H 0.30813 0.97894 0.27759 0.0
H4517 H 0.26786 0.92695 0.29443 0.0
H4518 H 0.25162 0.93614 0.30013 0.0
H4519 H 0.26771 0.93548 0.31205 0.0
C4520 C 0.73683 0.1122 0.6907 0.0
C4521 C 0.72152 0.11131 0.68907 0.0
C4522 C 0.74496 0.1004 0.69648 0.0
C4523 C 0.73758 0.08744 0.70073 0.0
C4524 C 0.72225 0.08614 0.69813 0.0
C4525 C 0.71443 0.09808 0.69235 0.0
C4526 C 0.76128 0.10221 0.69897 0.0
C4527 C 0.71394 0.07251 0.7024 0.0
C4528 C 0.7567 0.05228 0.71297 0.0
C4529 C 0.75579 0.05341 0.72822 0.0
C4530 C 0.75145 0.0636 0.70375 0.0
C4531 C 0.74528 0.07627 0.70999 0.0
C4532 C 0.74522 0.07775 0.72541 0.0
C4533 C 0.75043 0.06633 0.73428 0.0
C4534 C 0.75181 0.06167 0.68736 0.0
C4535 C 0.73893 0.0911 0.73259 0.0
H4536 H 0.7424 0.12239 0.6882 0.0
H4537 H 0.70263 0.0972 0.69081 0.0
H4538 H 0.76377 0.104 0.71082 0.0
H4539 H 0.76708 0.09217 0.69568 0.0
H4540 H 0.76568 0.11169 0.69282 0.0
H4541 H 0.70242 0.07254 0.69809 0.0
H4542 H 0.71939 0.06259 0.69831 0.0
H4543 H 0.71384 0.07172 0.71452 0.0
H4544 H 0.76083 0.04231 0.70824 0.0
H4545 H 0.74991 0.06737 0.74608 0.0
H4546 H 0.75584 0.07181 0.68209 0.0
H4547 H 0.74054 0.05952 0.68292 0.0
H4548 H 0.75885 0.05239 0.68426 0.0
H4549 H 0.74393 0.10124 0.72821 0.0
H4550 H 0.7407 0.09103 0.74469 0.0
H4551 H 0.72697 0.09158 0.73008 0.0
C4552 C 0.7001 0.91596 0.31307 0.0
C4553 C 0.70922 0.90442 0.31757 0.0
C4554 C 0.70599 0.9289 0.30717 0.0
C4555 C 0.72135 0.93031 0.30572 0.0
C4556 C 0.73049 0.91841 0.3096 0.0
C4557 C 0.72433 0.90563 0.31543 0.0
C4558 C 0.69586 0.9413 0.30308 0.0
C4559 C 0.74689 0.91937 0.30816 0.0
C4560 C 0.73797 0.96016 0.28212 0.0
C4561 C 0.74252 0.9706 0.29267 0.0
C4562 C 0.73074 0.94717 0.28613 0.0
C4563 C 0.72802 0.94448 0.30107 0.0
C4564 C 0.73238 0.95506 0.31174 0.0
C4565 C 0.73954 0.96797 0.30742 0.0
C4566 C 0.72629 0.93617 0.27442 0.0
C4567 C 0.7297 0.95265 0.32779 0.0
H4568 H 0.68844 0.91514 0.31476 0.0
H4569 H 0.73141 0.89665 0.31863 0.0
H4570 H 0.69794 0.95065 0.31065 0.0
H4571 H 0.69799 0.94522 0.29185 0.0
H4572 H 0.68414 0.93803 0.3036 0.0
H4573 H 0.75237 0.90884 0.31077 0.0
H4574 H 0.7496 0.92263 0.29686 0.0
H4575 H 0.75149 0.92792 0.31568 0.0
H4576 H 0.74035 0.96197 0.27073 0.0
H4577 H 0.74277 0.97603 0.31563 0.0
H4578 H 0.71448 0.9334 0.27509 0.0
H4579 H 0.73246 0.92589 0.27618 0.0
H4580 H 0.72837 0.94028 0.26323 0.0
H4581 H 0.71787 0.9506 0.32942 0.0
H4582 H 0.7333 0.96215 0.33466 0.0
H4583 H 0.73567 0.9428 0.33171 0.0
C4584 C 0.60995 0.21535 0.30174 0.0
C4585 C 0.61222 0.21302 0.31682 0.0
C4586 C 0.59665 0.22087 0.29604 0.0
C4587 C 0.58524 0.22411 0.30564 0.0
C4588 C 0.58762 0.22225 0.32092 0.0
C4589 C 0.60107 0.21674 0.32633 0.0
C4590 C 0.59463 0.22277 0.27968 0.0
C4591 C 0.57574 0.22552 0.33152 0.0
C4592 C 0.55339 0.24609 0.28919 0.0
C4593 C 0.54379 0.23484 0.28449 0.0
C4594 C 0.56674 0.24286 0.29662 0.0
C4595 C 0.57046 0.22806 0.29948 0.0
C4596 C 0.56038 0.21677 0.29547 0.0
C4597 C 0.54724 0.22029 0.28799 0.0
C4598 C 0.57719 0.25521 0.30072 0.0
C4599 C 0.56378 0.20086 0.29843 0.0
H4600 H 0.6186 0.21276 0.29434 0.0
H4601 H 0.60267 0.21489 0.33799 0.0
H4602 H 0.58611 0.21499 0.2754 0.0
H4603 H 0.59078 0.23399 0.2771 0.0
H4604 H 0.60489 0.22081 0.27382 0.0
H4605 H 0.57977 0.2249 0.34311 0.0
H4606 H 0.57124 0.23659 0.32945 0.0
H4607 H 0.5666 0.21754 0.32987 0.0
H4608 H 0.55083 0.25734 0.28642 0.0
H4609 H 0.53981 0.21155 0.28449 0.0
H4610 H 0.5869 0.2547 0.29377 0.0
H4611 H 0.58115 0.2541 0.31228 0.0
H4612 H 0.57206 0.26611 0.29925 0.0
H4613 H 0.57318 0.19749 0.29186 0.0
H4614 H 0.55432 0.19352 0.29564 0.0
H4615 H 0.56698 0.19928 0.31014 0.0
C4616 C 0.29122 0.11195 0.33663 0.0
C4617 C 0.30649 0.11037 0.33663 0.0
C4618 C 0.28179 0.10028 0.33257 0.0
C4619 C 0.28776 0.08668 0.32846 0.0
C4620 C 0.30314 0.08488 0.3289 0.0
C4621 C 0.31231 0.09674 0.33296 0.0
C4622 C 0.26546 0.10266 0.33219 0.0
C4623 C 0.30995 0.07054 0.32469 0.0
C4624 C 0.26358 0.05242 0.3267 0.0
C4625 C 0.26043 0.05124 0.31161 0.0
C4626 C 0.27235 0.06397 0.33241 0.0
C4627 C 0.278 0.07464 0.32279 0.0
C4628 C 0.2746 0.07365 0.30758 0.0
C4629 C 0.26588 0.06198 0.3022 0.0
C4630 C 0.27577 0.06463 0.34867 0.0
C4631 C 0.28028 0.08484 0.29696 0.0
H4632 H 0.28664 0.12248 0.33932 0.0
H4633 H 0.32409 0.09537 0.33316 0.0
H4634 H 0.2611 0.10187 0.32073 0.0
H4635 H 0.25992 0.09402 0.33857 0.0
H4636 H 0.26253 0.11353 0.33666 0.0
H4637 H 0.32203 0.07064 0.32648 0.0
H4638 H 0.30526 0.06143 0.33113 0.0
H4639 H 0.30739 0.06819 0.31295 0.0
H4640 H 0.25948 0.04411 0.33401 0.0
H4641 H 0.26325 0.06131 0.29057 0.0
H4642 H 0.27244 0.07536 0.35313 0.0
H4643 H 0.28776 0.06369 0.35077 0.0
H4644 H 0.27017 0.05578 0.35473 0.0
H4645 H 0.27683 0.09598 0.30016 0.0
H4646 H 0.27633 0.08271 0.28551 0.0
H4647 H 0.29243 0.08482 0.29729 0.0
C4648 C 0.40674 0.82518 0.30241 0.0
C4649 C 0.40642 0.82454 0.31777 0.0
C4650 C 0.41924 0.82112 0.2949 0.0
C4651 C 0.43172 0.81603 0.30288 0.0
C4652 C 0.4314 0.81503 0.31834 0.0
C4653 C 0.41879 0.81935 0.32561 0.0
C4654 C 0.41911 0.82238 0.27841 0.0
C4655 C 0.44442 0.80951 0.32723 0.0
C4656 C 0.45899 0.79333 0.28221 0.0
C4657 C 0.47025 0.80354 0.27971 0.0
C4658 C 0.44651 0.7972 0.28985 0.0
C4659 C 0.44506 0.81172 0.29498 0.0
C4660 C 0.45623 0.82216 0.29234 0.0
C4661 C 0.4687 0.81795 0.2848 0.0
C4662 C 0.43488 0.78571 0.29246 0.0
C4663 C 0.45502 0.83781 0.29749 0.0
H4664 H 0.39717 0.82885 0.29619 0.0
H4665 H 0.41875 0.81894 0.33746 0.0
H4666 H 0.42812 0.82975 0.27505 0.0
H4667 H 0.42102 0.8115 0.27345 0.0
H4668 H 0.40859 0.82669 0.27384 0.0
H4669 H 0.44231 0.80903 0.33913 0.0
H4670 H 0.44736 0.79839 0.32346 0.0
H4671 H 0.45405 0.81675 0.32558 0.0
H4672 H 0.45984 0.78226 0.27812 0.0
H4673 H 0.47732 0.82591 0.2831 0.0
H4674 H 0.42431 0.7891 0.28723 0.0
H4675 H 0.43313 0.78461 0.30437 0.0
H4676 H 0.4378 0.77482 0.28804 0.0
H4677 H 0.44492 0.84277 0.2927 0.0
H4678 H 0.46457 0.84464 0.29444 0.0
H4679 H 0.45415 0.83809 0.30957 0.0
C4680 C 0.33907 0.93002 0.72381 0.0
C4681 C 0.32922 0.91979 0.71735 0.0
C4682 C 0.33413 0.942 0.73189 0.0
C4683 C 0.31893 0.94402 0.73344 0.0
C4684 C 0.30889 0.93399 0.72662 0.0
C4685 C 0.31414 0.922 0.71871 0.0
C4686 C 0.34522 0.9524 0.73896 0.0
C4687 C 0.29257 0.93581 0.72789 0.0
C4688 C 0.30519 0.96599 0.76567 0.0
C4689 C 0.30179 0.9795 0.75912 0.0
C4690 C 0.31108 0.95449 0.75753 0.0
C4691 C 0.31353 0.95645 0.74242 0.0
C4692 C 0.31056 0.9702 0.73584 0.0
C4693 C 0.30481 0.98155 0.74427 0.0
C4694 C 0.3143 0.9401 0.76503 0.0
C4695 C 0.31294 0.97275 0.71976 0.0
H4696 H 0.35073 0.92865 0.72259 0.0
H4697 H 0.30642 0.91414 0.71391 0.0
H4698 H 0.34324 0.96373 0.73507 0.0
H4699 H 0.34403 0.95241 0.75101 0.0
H4700 H 0.35666 0.94942 0.73658 0.0
H4701 H 0.2862 0.92745 0.72146 0.0
H4702 H 0.28961 0.93493 0.73954 0.0
H4703 H 0.28927 0.94685 0.72403 0.0
H4704 H 0.30291 0.96426 0.77712 0.0
H4705 H 0.30215 0.99188 0.73904 0.0
H4706 H 0.32581 0.93692 0.76333 0.0
H4707 H 0.30716 0.93135 0.76015 0.0
H4708 H 0.31249 0.94056 0.77699 0.0
H4709 H 0.32438 0.97014 0.7171 0.0
H4710 H 0.31067 0.98423 0.71644 0.0
H4711 H 0.30567 0.96533 0.71312 0.0
C4712 C 0.60062 0.79808 0.71575 0.0
C4713 C 0.60387 0.81308 0.71458 0.0
C4714 C 0.58928 0.79305 0.72451 0.0
C4715 C 0.58112 0.80322 0.73256 0.0
C4716 C 0.5844 0.81835 0.73156 0.0
C4717 C 0.59559 0.82311 0.72247 0.0
C4718 C 0.586 0.77681 0.72513 0.0
C4719 C 0.57606 0.82951 0.7401 0.0
C4720 C 0.54371 0.7896 0.74354 0.0
C4721 C 0.54681 0.78387 0.75756 0.0
C4722 C 0.55464 0.79648 0.73551 0.0
C4723 C 0.56898 0.79793 0.74173 0.0
C4724 C 0.5719 0.79318 0.75629 0.0
C4725 C 0.56081 0.7861 0.764 0.0
C4726 C 0.55108 0.80126 0.71998 0.0
C4727 C 0.58696 0.79487 0.76344 0.0
H4728 H 0.60707 0.79019 0.70996 0.0
H4729 H 0.59778 0.83474 0.72148 0.0
H4730 H 0.58751 0.77281 0.73654 0.0
H4731 H 0.57441 0.77467 0.72169 0.0
H4732 H 0.59315 0.77037 0.71798 0.0
H4733 H 0.58037 0.84082 0.73863 0.0
H4734 H 0.56433 0.82925 0.73658 0.0
H4735 H 0.57666 0.8268 0.75195 0.0
H4736 H 0.53294 0.78796 0.73844 0.0
H4737 H 0.56329 0.7818 0.77484 0.0
H4738 H 0.55694 0.79419 0.71225 0.0
H4739 H 0.55486 0.81268 0.71821 0.0
H4740 H 0.53916 0.80055 0.71721 0.0
H4741 H 0.59465 0.78736 0.75813 0.0
H4742 H 0.58698 0.79234 0.77534 0.0
H4743 H 0.59118 0.80619 0.76197 0.0
C4744 C 0.43658 0.2046 0.71206 0.0
C4745 C 0.42402 0.21277 0.70855 0.0
C4746 C 0.4493 0.21132 0.71815 0.0
C4747 C 0.44949 0.2266 0.72096 0.0
C4748 C 0.43701 0.23499 0.71699 0.0
C4749 C 0.42447 0.22799 0.7108 0.0
C4750 C 0.46237 0.20195 0.72208 0.0
C4751 C 0.43666 0.25125 0.71991 0.0
C4752 C 0.47452 0.23768 0.75317 0.0
C4753 C 0.48701 0.24297 0.74629 0.0
C4754 C 0.46205 0.233 0.74504 0.0
C4755 C 0.46207 0.23336 0.72955 0.0
C4756 C 0.47442 0.23929 0.72251 0.0
C4757 C 0.48675 0.24415 0.73099 0.0
C4758 C 0.44908 0.22705 0.75308 0.0
C4759 C 0.4749 0.23984 0.70603 0.0
H4760 H 0.43643 0.19289 0.71013 0.0
H4761 H 0.41479 0.23439 0.70822 0.0
H4762 H 0.47244 0.20678 0.71754 0.0
H4763 H 0.46401 0.20158 0.73417 0.0
H4764 H 0.46102 0.19056 0.71795 0.0
H4765 H 0.42683 0.25647 0.71477 0.0
H4766 H 0.43661 0.25321 0.7319 0.0
H4767 H 0.4466 0.25669 0.71575 0.0
H4768 H 0.47461 0.23689 0.76502 0.0
H4769 H 0.49642 0.24814 0.72564 0.0
H4770 H 0.44773 0.21517 0.7508 0.0
H4771 H 0.43888 0.2325 0.74918 0.0
H4772 H 0.45034 0.22861 0.76512 0.0
H4773 H 0.47535 0.22852 0.70164 0.0
H4774 H 0.48458 0.24607 0.70225 0.0
H4775 H 0.46482 0.24491 0.70132 0.0
C4776 C 0.68631 0.72366 0.0876 0.0
C4777 C 0.69577 0.7198 0.09936 0.0
C4778 C 0.69151 0.73117 0.0754 0.0
C4779 C 0.70655 0.73491 0.07491 0.0
C4780 C 0.71627 0.73058 0.08648 0.0
C4781 C 0.71076 0.72306 0.09857 0.0
C4782 C 0.68081 0.73551 0.06325 0.0
C4783 C 0.73239 0.73435 0.08635 0.0
C4784 C 0.72187 0.74625 0.03833 0.0
C4785 C 0.7218 0.76159 0.03939 0.0
C4786 C 0.71701 0.73741 0.04981 0.0
C4787 C 0.71194 0.74406 0.06267 0.0
C4788 C 0.71181 0.75952 0.06381 0.0
C4789 C 0.71673 0.76808 0.05217 0.0
C4790 C 0.71726 0.72095 0.04817 0.0
C4791 C 0.70652 0.76704 0.07736 0.0
H4792 H 0.67475 0.72096 0.08804 0.0
H4793 H 0.71811 0.72021 0.10766 0.0
H4794 H 0.68017 0.74762 0.06265 0.0
H4795 H 0.68464 0.7316 0.05254 0.0
H4796 H 0.66963 0.73102 0.06488 0.0
H4797 H 0.73863 0.72935 0.09568 0.0
H4798 H 0.73711 0.7306 0.07597 0.0
H4799 H 0.7339 0.74641 0.0869 0.0
H4800 H 0.72561 0.74114 0.02844 0.0
H4801 H 0.71686 0.77989 0.05321 0.0
H4802 H 0.70602 0.7164 0.04901 0.0
H4803 H 0.72405 0.71608 0.05717 0.0
H4804 H 0.72168 0.71749 0.03754 0.0
H4805 H 0.69499 0.76381 0.07923 0.0
H4806 H 0.70716 0.77916 0.07654 0.0
H4807 H 0.71316 0.76353 0.0871 0.0
C4808 C 0.3269 0.71601 0.10147 0.0
C4809 C 0.31958 0.71065 0.11366 0.0
C4810 C 0.31917 0.7222 0.08947 0.0
C4811 C 0.3037 0.72317 0.08961 0.0
C4812 C 0.2962 0.71727 0.10162 0.0
C4813 C 0.30421 0.71107 0.11347 0.0
C4814 C 0.32765 0.72826 0.07687 0.0
C4815 C 0.27975 0.71813 0.10229 0.0
C4816 C 0.28862 0.7559 0.0687 0.0
C4817 C 0.28376 0.74969 0.05532 0.0
C4818 C 0.29448 0.74729 0.0801 0.0
C4819 C 0.29571 0.73198 0.07812 0.0
C4820 C 0.2902 0.7255 0.06488 0.0
C4821 C 0.28419 0.73444 0.05363 0.0
C4822 C 0.29997 0.75471 0.09405 0.0
C4823 C 0.2913 0.70923 0.06235 0.0
H4824 H 0.33874 0.71547 0.10136 0.0
H4825 H 0.29844 0.70703 0.12286 0.0
H4826 H 0.32298 0.72405 0.0663 0.0
H4827 H 0.32673 0.74037 0.07665 0.0
H4828 H 0.33944 0.72542 0.07773 0.0
H4829 H 0.27542 0.71152 0.11143 0.0
H4830 H 0.27652 0.7297 0.10385 0.0
H4831 H 0.27448 0.71429 0.09185 0.0
H4832 H 0.28816 0.76768 0.07015 0.0
H4833 H 0.28052 0.7296 0.04329 0.0
H4834 H 0.31205 0.75366 0.09518 0.0
H4835 H 0.2952 0.74934 0.10371 0.0
H4836 H 0.29724 0.76654 0.09427 0.0
H4837 H 0.30296 0.70626 0.0613 0.0
H4838 H 0.28513 0.70567 0.05226 0.0
H4839 H 0.2871 0.70308 0.07182 0.0
C4840 C 0.30667 0.31032 0.11978 0.0
C4841 C 0.32147 0.31371 0.12276 0.0
C4842 C 0.30202 0.30408 0.10635 0.0
C4843 C 0.31241 0.30118 0.09557 0.0
C4844 C 0.32748 0.30378 0.09884 0.0
C4845 C 0.33183 0.31 0.11241 0.0
C4846 C 0.28586 0.30136 0.1034 0.0
C4847 C 0.33891 0.30081 0.08769 0.0
C4848 C 0.29748 0.27965 0.06241 0.0
C4849 C 0.29283 0.29109 0.0532 0.0
C4850 C 0.30461 0.28267 0.07603 0.0
C4851 C 0.3072 0.29742 0.08036 0.0
C4852 C 0.3034 0.30889 0.07059 0.0
C4853 C 0.29622 0.30558 0.0572 0.0
C4854 C 0.30855 0.27014 0.08611 0.0
C4855 C 0.3061 0.32477 0.07463 0.0
H4856 H 0.29864 0.31287 0.12785 0.0
H4857 H 0.34329 0.31261 0.11463 0.0
H4858 H 0.2817 0.30916 0.09496 0.0
H4859 H 0.28393 0.29014 0.09905 0.0
H4860 H 0.2794 0.30274 0.11339 0.0
H4861 H 0.35018 0.30126 0.09262 0.0
H4862 H 0.33705 0.28992 0.08253 0.0
H4863 H 0.33808 0.30913 0.07885 0.0
H4864 H 0.29481 0.26844 0.05939 0.0
H4865 H 0.29278 0.31445 0.05002 0.0
H4866 H 0.30085 0.26981 0.09525 0.0
H4867 H 0.31974 0.27169 0.091 0.0
H4868 H 0.30796 0.25942 0.08034 0.0
H4869 H 0.29905 0.32781 0.08379 0.0
H4870 H 0.30371 0.33227 0.0653 0.0
H4871 H 0.31765 0.32649 0.07843 0.0
C4872 C 0.72644 0.32358 0.10856 0.0
C4873 C 0.71178 0.32785 0.10919 0.0
C4874 C 0.73148 0.31604 0.09631 0.0
C4875 C 0.72167 0.31291 0.08435 0.0
C4876 C 0.70703 0.31781 0.08468 0.0
C4877 C 0.70224 0.32512 0.09714 0.0
C4878 C 0.74712 0.31085 0.09646 0.0
C4879 C 0.69628 0.31492 0.07206 0.0
C4880 C 0.73681 0.30112 0.04784 0.0
C4881 C 0.73451 0.28592 0.0482 0.0
C4882 C 0.73271 0.31008 0.05952 0.0
C4883 C 0.72637 0.30364 0.07194 0.0
C4884 C 0.7242 0.28827 0.07242 0.0
C4885 C 0.7282 0.27962 0.06051 0.0
C4886 C 0.73501 0.32644 0.0585 0.0
C4887 C 0.71766 0.28093 0.08554 0.0
H4888 H 0.7338 0.32559 0.11792 0.0
H4889 H 0.69093 0.32854 0.09756 0.0
H4890 H 0.74727 0.2987 0.09661 0.0
H4891 H 0.75256 0.31444 0.08638 0.0
H4892 H 0.7536 0.31498 0.10613 0.0
H4893 H 0.68569 0.32053 0.07349 0.0
H4894 H 0.70096 0.31862 0.06162 0.0
H4895 H 0.69412 0.30298 0.07107 0.0
H4896 H 0.74161 0.30602 0.0383 0.0
H4897 H 0.72664 0.26786 0.06096 0.0
H4898 H 0.74204 0.33035 0.06786 0.0
H4899 H 0.72435 0.33206 0.05917 0.0
H4900 H 0.74018 0.32972 0.04815 0.0
H4901 H 0.72428 0.28367 0.09559 0.0
H4902 H 0.7171 0.26883 0.08438 0.0
H4903 H 0.70644 0.28505 0.0871 0.0
C4904 C 0.70395 0.31067 0.92098 0.0
C4905 C 0.712 0.31492 0.90884 0.0
C4906 C 0.711 0.30544 0.93384 0.0
C4907 C 0.72648 0.3044 0.93459 0.0
C4908 C 0.73463 0.30841 0.92228 0.0
C4909 C 0.72731 0.31358 0.90958 0.0
C4910 C 0.70192 0.30125 0.94672 0.0
C4911 C 0.75113 0.30739 0.92257 0.0
C4912 C 0.74649 0.30469 0.97186 0.0
C4913 C 0.74957 0.2898 0.97395 0.0
C4914 C 0.73887 0.30957 0.95918 0.0
C4915 C 0.73421 0.29932 0.9483 0.0
C4916 C 0.73724 0.28427 0.95036 0.0
C4917 C 0.74488 0.2797 0.96313 0.0
C4918 C 0.73589 0.32571 0.95738 0.0
C4919 C 0.73248 0.273 0.93902 0.0
H4920 H 0.69215 0.3118 0.92056 0.0
H4921 H 0.73361 0.31659 0.90017 0.0
H4922 H 0.70423 0.2898 0.95004 0.0
H4923 H 0.70491 0.30836 0.95624 0.0
H4924 H 0.68998 0.30227 0.94425 0.0
H4925 H 0.75584 0.31072 0.91201 0.0
H4926 H 0.7559 0.31451 0.93138 0.0
H4927 H 0.75452 0.29601 0.92508 0.0
H4928 H 0.75004 0.31258 0.98014 0.0
H4929 H 0.74719 0.26816 0.96462 0.0
H4930 H 0.72395 0.32752 0.95587 0.0
H4931 H 0.74117 0.32988 0.94742 0.0
H4932 H 0.74002 0.33224 0.96695 0.0
H4933 H 0.72045 0.27344 0.93704 0.0
H4934 H 0.73545 0.26169 0.94238 0.0
H4935 H 0.73764 0.27546 0.92846 0.0
C4936 C 0.72658 0.71851 0.90479 0.0
C4937 C 0.72685 0.70316 0.90428 0.0
C4938 C 0.73122 0.72621 0.91746 0.0
C4939 C 0.73619 0.71839 0.93004 0.0
C4940 C 0.73695 0.70291 0.92945 0.0
C4941 C 0.73231 0.69548 0.91657 0.0
C4942 C 0.73032 0.74271 0.91754 0.0
C4943 C 0.74209 0.69415 0.94262 0.0
C4944 C 0.75546 0.74144 0.95997 0.0
C4945 C 0.74368 0.74503 0.96872 0.0
C4946 C 0.75338 0.73224 0.94764 0.0
C4947 C 0.73924 0.72643 0.9441 0.0
C4948 C 0.72757 0.72933 0.95346 0.0
C4949 C 0.72992 0.73862 0.96557 0.0
C4950 C 0.76611 0.72942 0.93795 0.0
C4951 C 0.71236 0.72323 0.95027 0.0
H4952 H 0.72262 0.72453 0.89526 0.0
H4953 H 0.73247 0.68362 0.91631 0.0
H4954 H 0.72202 0.74622 0.92538 0.0
H4955 H 0.74098 0.74759 0.92126 0.0
H4956 H 0.72728 0.7472 0.90656 0.0
H4957 H 0.74344 0.68238 0.93997 0.0
H4958 H 0.75267 0.69858 0.9471 0.0
H4959 H 0.73402 0.69508 0.95138 0.0
H4960 H 0.76611 0.74641 0.96228 0.0
H4961 H 0.72079 0.74124 0.97236 0.0
H4962 H 0.76435 0.73523 0.92738 0.0
H4963 H 0.76689 0.71757 0.93546 0.0
H4964 H 0.77668 0.73324 0.94306 0.0
H4965 H 0.70773 0.72823 0.94009 0.0
H4966 H 0.70482 0.72543 0.9593 0.0
H4967 H 0.71277 0.71123 0.94846 0.0
C4968 C 0.31879 0.71283 0.9274 0.0
C4969 C 0.32359 0.71954 0.91458 0.0
C4970 C 0.31471 0.72122 0.93948 0.0
C4971 C 0.31543 0.73672 0.93874 0.0
C4972 C 0.32016 0.74355 0.9258 0.0
C4973 C 0.32415 0.7349 0.91389 0.0
C4974 C 0.30972 0.71351 0.95308 0.0
C4975 C 0.321 0.76003 0.92453 0.0
C4976 C 0.29218 0.75798 0.96499 0.0
C4977 C 0.3024 0.76173 0.97622 0.0
C4978 C 0.29631 0.75004 0.95266 0.0
C4979 C 0.31106 0.74575 0.95146 0.0
C4980 C 0.32154 0.74984 0.96254 0.0
C4981 C 0.31709 0.75781 0.97478 0.0
C4982 C 0.28481 0.74602 0.94104 0.0
C4983 C 0.33738 0.74551 0.96163 0.0
H4984 H 0.3185 0.70098 0.9281 0.0
H4985 H 0.32765 0.74018 0.90395 0.0
H4986 H 0.31697 0.71661 0.96259 0.0
H4987 H 0.29847 0.71699 0.9556 0.0
H4988 H 0.30975 0.7014 0.9519 0.0
H4989 H 0.32498 0.76364 0.91374 0.0
H4990 H 0.31003 0.76479 0.92609 0.0
H4991 H 0.32845 0.76456 0.93328 0.0
H4992 H 0.28087 0.7612 0.96589 0.0
H4993 H 0.32502 0.76057 0.98345 0.0
H4994 H 0.28376 0.73393 0.94023 0.0
H4995 H 0.28814 0.75008 0.9302 0.0
H4996 H 0.27391 0.75059 0.9434 0.0
H4997 H 0.33823 0.73339 0.96172 0.0
H4998 H 0.34427 0.75 0.97087 0.0
H4999 H 0.34188 0.74942 0.95119 0.0
C5000 C 0.30443 0.33348 0.91092 0.0
C5001 C 0.31979 0.33413 0.911 0.0
C5002 C 0.29698 0.32866 0.92326 0.0
C5003 C 0.30507 0.32439 0.93602 0.0
C5004 C 0.32058 0.32489 0.93613 0.0
C5005 C 0.32774 0.32974 0.92362 0.0
C5006 C 0.28045 0.32819 0.92267 0.0
C5007 C 0.32959 0.32047 0.94953 0.0
C5008 C 0.28603 0.32524 0.97243 0.0
C5009 C 0.28254 0.31041 0.97452 0.0
C5010 C 0.29338 0.32993 0.95997 0.0
C5011 C 0.2973 0.31955 0.9493 0.0
C5012 C 0.29376 0.30457 0.95131 0.0
C5013 C 0.28645 0.30018 0.96389 0.0
C5014 C 0.29701 0.346 0.95827 0.0
C5015 C 0.29767 0.29317 0.94014 0.0
H5016 H 0.29821 0.33665 0.90114 0.0
H5017 H 0.3396 0.33037 0.92382 0.0
H5018 H 0.2765 0.31691 0.92495 0.0
H5019 H 0.27616 0.33543 0.93125 0.0
H5020 H 0.27579 0.33169 0.91186 0.0
H5021 H 0.34155 0.32128 0.94777 0.0
H5022 H 0.32694 0.32757 0.95892 0.0
H5023 H 0.32687 0.30904 0.95262 0.0
H5024 H 0.28322 0.33318 0.98066 0.0
H5025 H 0.2836 0.28874 0.9653 0.0
H5026 H 0.29187 0.35022 0.94796 0.0
H5027 H 0.30902 0.34753 0.95751 0.0
H5028 H 0.2932 0.35267 0.96755 0.0
H5029 H 0.29245 0.29585 0.92934 0.0
H5030 H 0.29413 0.28197 0.94333 0.0
H5031 H 0.30968 0.29318 0.93874 0.0
C5032 C 0.61369 0.71713 0.21494 0.0
C5033 C 0.61338 0.71122 0.20077 0.0
C5034 C 0.60183 0.72523 0.21995 0.0
C5035 C 0.58929 0.72725 0.21063 0.0
C5036 C 0.5888 0.72095 0.19645 0.0
C5037 C 0.60089 0.71312 0.19166 0.0
C5038 C 0.60285 0.73191 0.23508 0.0
C5039 C 0.57554 0.72258 0.18629 0.0
C5040 C 0.55357 0.73727 0.22818 0.0
C5041 C 0.55269 0.75233 0.22532 0.0
C5042 C 0.56534 0.72897 0.22338 0.0
C5043 C 0.57666 0.73594 0.2157 0.0
C5044 C 0.57584 0.75116 0.21275 0.0
C5045 C 0.56378 0.75915 0.21748 0.0
C5046 C 0.56562 0.71273 0.22648 0.0
C5047 C 0.58778 0.75903 0.20476 0.0
H5048 H 0.62341 0.71581 0.22193 0.0
H5049 H 0.6006 0.70847 0.18072 0.0
H5050 H 0.60185 0.74399 0.23429 0.0
H5051 H 0.59367 0.72788 0.24168 0.0
H5052 H 0.61333 0.72931 0.24097 0.0
H5053 H 0.5767 0.71661 0.1758 0.0
H5054 H 0.56562 0.7184 0.19167 0.0
H5055 H 0.57372 0.73433 0.18382 0.0
H5056 H 0.5449 0.73193 0.23406 0.0
H5057 H 0.56318 0.77081 0.21538 0.0
H5058 H 0.57556 0.71 0.23319 0.0
H5059 H 0.56615 0.70653 0.21606 0.0
H5060 H 0.55584 0.70894 0.23238 0.0
H5061 H 0.59843 0.75766 0.21078 0.0
H5062 H 0.58561 0.77092 0.20351 0.0
H5063 H 0.5889 0.75418 0.19372 0.0
C5064 C 0.30937 0.60994 0.2104 0.0
C5065 C 0.32312 0.6105 0.20406 0.0
C5066 C 0.30524 0.59789 0.21895 0.0
C5067 C 0.31499 0.58602 0.22096 0.0
C5068 C 0.32871 0.58638 0.2142 0.0
C5069 C 0.33267 0.59868 0.20595 0.0
C5070 C 0.2906 0.59803 0.22615 0.0
C5071 C 0.33929 0.57383 0.21581 0.0
C5072 C 0.31111 0.56131 0.25417 0.0
C5073 C 0.30297 0.54953 0.24822 0.0
C5074 C 0.31503 0.5733 0.24544 0.0
C5075 C 0.31094 0.57336 0.23034 0.0
C5076 C 0.30296 0.56134 0.22422 0.0
C5077 C 0.29895 0.54964 0.23327 0.0
C5078 C 0.32332 0.58602 0.25243 0.0
C5079 C 0.29867 0.56083 0.20812 0.0
H5080 H 0.30205 0.61915 0.20906 0.0
H5081 H 0.34328 0.59909 0.20097 0.0
H5082 H 0.28401 0.58828 0.22271 0.0
H5083 H 0.29227 0.59744 0.23822 0.0
H5084 H 0.28424 0.60802 0.2234 0.0
H5085 H 0.34921 0.5755 0.20928 0.0
H5086 H 0.34276 0.57254 0.22748 0.0
H5087 H 0.33384 0.56344 0.21228 0.0
H5088 H 0.31407 0.5613 0.26575 0.0
H5089 H 0.29279 0.54046 0.22863 0.0
H5090 H 0.31697 0.59623 0.2509 0.0
H5091 H 0.33391 0.58767 0.24704 0.0
H5092 H 0.32554 0.58434 0.26435 0.0
H5093 H 0.29147 0.57017 0.20525 0.0
H5094 H 0.29285 0.55049 0.205 0.0
H5095 H 0.30857 0.5619 0.20147 0.0
C5096 C 0.42509 0.32747 0.22734 0.0
C5097 C 0.41353 0.31786 0.22343 0.0
C5098 C 0.43836 0.32216 0.23349 0.0
C5099 C 0.44006 0.3069 0.23573 0.0
C5100 C 0.42801 0.29734 0.23283 0.0
C5101 C 0.41492 0.30293 0.22674 0.0
C5102 C 0.45084 0.33275 0.23661 0.0
C5103 C 0.42924 0.28101 0.23514 0.0
C5104 C 0.47582 0.28778 0.22938 0.0
C5105 C 0.48012 0.28331 0.24355 0.0
C5106 C 0.46335 0.29633 0.22685 0.0
C5107 C 0.45485 0.30054 0.2388 0.0
C5108 C 0.45971 0.29698 0.25327 0.0
C5109 C 0.47235 0.28839 0.25549 0.0
C5110 C 0.45872 0.29995 0.21124 0.0
C5111 C 0.45107 0.30141 0.26632 0.0
H5112 H 0.42408 0.33903 0.22484 0.0
H5113 H 0.40591 0.2955 0.22405 0.0
H5114 H 0.45656 0.33011 0.24718 0.0
H5115 H 0.45895 0.33185 0.22789 0.0
H5116 H 0.44704 0.34426 0.23697 0.0
H5117 H 0.41847 0.27531 0.23387 0.0
H5118 H 0.43672 0.27639 0.22704 0.0
H5119 H 0.43397 0.27864 0.24621 0.0
H5120 H 0.4819 0.28405 0.22011 0.0
H5121 H 0.47561 0.28495 0.26647 0.0
H5122 H 0.45636 0.3118 0.21015 0.0
H5123 H 0.44851 0.29385 0.20818 0.0
H5124 H 0.46722 0.29705 0.20334 0.0
H5125 H 0.44726 0.31286 0.26519 0.0
H5126 H 0.45761 0.30036 0.27673 0.0
H5127 H 0.44123 0.29426 0.26697 0.0
C5128 C 0.71578 0.41495 0.21454 0.0
C5129 C 0.70058 0.41272 0.21335 0.0
C5130 C 0.72178 0.42826 0.21972 0.0
C5131 C 0.71236 0.43969 0.22382 0.0
C5132 C 0.69702 0.43731 0.22322 0.0
C5133 C 0.69131 0.42387 0.21799 0.0
C5134 C 0.73822 0.43029 0.22025 0.0
C5135 C 0.68661 0.4492 0.22749 0.0
C5136 C 0.73126 0.47152 0.24408 0.0
C5137 C 0.73454 0.48079 0.23237 0.0
C5138 C 0.72336 0.45836 0.24163 0.0
C5139 C 0.71861 0.45451 0.22718 0.0
C5140 C 0.72105 0.46436 0.21554 0.0
C5141 C 0.729 0.47733 0.21828 0.0
C5142 C 0.7209 0.44819 0.25434 0.0
C5143 C 0.71606 0.46081 0.19999 0.0
H5144 H 0.72303 0.4063 0.21124 0.0
H5145 H 0.67954 0.42229 0.21703 0.0
H5146 H 0.74136 0.43872 0.21215 0.0
H5147 H 0.74202 0.43427 0.23122 0.0
H5148 H 0.74404 0.42 0.21779 0.0
H5149 H 0.67516 0.44508 0.22809 0.0
H5150 H 0.69003 0.45398 0.23825 0.0
H5151 H 0.68687 0.45816 0.21931 0.0
H5152 H 0.73558 0.47411 0.25498 0.0
H5153 H 0.7314 0.48452 0.20921 0.0
H5154 H 0.72807 0.43852 0.25343 0.0
H5155 H 0.70941 0.44413 0.25414 0.0
H5156 H 0.72338 0.4536 0.26505 0.0
H5157 H 0.72233 0.45136 0.19595 0.0
H5158 H 0.71765 0.47018 0.19245 0.0
H5159 H 0.70431 0.45761 0.19956 0.0
C5160 C 0.62055 0.32502 0.79074 0.0
C5161 C 0.62163 0.32743 0.80594 0.0
C5162 C 0.60848 0.31745 0.78427 0.0
C5163 C 0.59718 0.31215 0.79317 0.0
C5164 C 0.59791 0.31513 0.80841 0.0
C5165 C 0.61011 0.32267 0.8146 0.0
C5166 C 0.60822 0.31447 0.768 0.0
C5167 C 0.58609 0.30978 0.81832 0.0
C5168 C 0.56061 0.29728 0.77734 0.0
C5169 C 0.56278 0.28214 0.77857 0.0
C5170 C 0.57187 0.30729 0.78158 0.0
C5171 C 0.58558 0.302 0.78699 0.0
C5172 C 0.58798 0.28672 0.78743 0.0
C5173 C 0.57658 0.27704 0.7833 0.0
C5174 C 0.56886 0.3235 0.78093 0.0
C5175 C 0.60243 0.28052 0.79289 0.0
H5176 H 0.62942 0.32856 0.78395 0.0
H5177 H 0.6107 0.3247 0.82629 0.0
H5178 H 0.61001 0.30263 0.76608 0.0
H5179 H 0.59737 0.31721 0.76297 0.0
H5180 H 0.61681 0.32079 0.76235 0.0
H5181 H 0.58752 0.31419 0.82963 0.0
H5182 H 0.57514 0.31298 0.81386 0.0
H5183 H 0.58625 0.29764 0.81888 0.0
H5184 H 0.54995 0.30128 0.77378 0.0
H5185 H 0.57839 0.26534 0.78413 0.0
H5186 H 0.57784 0.32937 0.77544 0.0
H5187 H 0.56844 0.32792 0.79223 0.0
H5188 H 0.55833 0.32591 0.77504 0.0
H5189 H 0.61159 0.28555 0.78693 0.0
H5190 H 0.60289 0.26844 0.79155 0.0
H5191 H 0.60422 0.28316 0.80468 0.0
C5192 C 0.73451 0.61133 0.80201 0.0
C5193 C 0.71939 0.61123 0.80417 0.0
C5194 C 0.74137 0.5992 0.79582 0.0
C5195 C 0.73294 0.58661 0.79182 0.0
C5196 C 0.71766 0.58652 0.79383 0.0
C5197 C 0.71107 0.59882 0.79996 0.0
C5198 C 0.75771 0.59975 0.79382 0.0
C5199 C 0.70831 0.57327 0.78991 0.0
C5200 C 0.75094 0.5584 0.76753 0.0
C5201 C 0.75702 0.54894 0.77809 0.0
C5202 C 0.74267 0.57057 0.77176 0.0
C5203 C 0.74036 0.57311 0.78684 0.0
C5204 C 0.74582 0.56306 0.7974 0.0
C5205 C 0.75414 0.55118 0.7929 0.0
C5206 C 0.73705 0.58107 0.76019 0.0
C5207 C 0.74342 0.56518 0.81355 0.0
H5208 H 0.74095 0.62096 0.80505 0.0
H5209 H 0.6994 0.59861 0.80175 0.0
H5210 H 0.76313 0.59146 0.80097 0.0
H5211 H 0.7602 0.597 0.78234 0.0
H5212 H 0.76252 0.61068 0.79652 0.0
H5213 H 0.69645 0.57534 0.79113 0.0
H5214 H 0.71011 0.56987 0.77845 0.0
H5215 H 0.71152 0.56396 0.79708 0.0
H5216 H 0.75329 0.55676 0.7561 0.0
H5217 H 0.75877 0.54381 0.80109 0.0
H5218 H 0.7429 0.59173 0.76146 0.0
H5219 H 0.72523 0.58316 0.76154 0.0
H5220 H 0.73864 0.57691 0.74893 0.0
H5221 H 0.7492 0.57526 0.81745 0.0
H5222 H 0.74747 0.5558 0.82023 0.0
H5223 H 0.7316 0.56662 0.81551 0.0
C5224 C 0.4326 0.7044 0.825 0.0
C5225 C 0.42052 0.7136 0.82613 0.0
C5226 C 0.44507 0.70898 0.81758 0.0
C5227 C 0.44528 0.72296 0.81084 0.0
C5228 C 0.43315 0.73235 0.81213 0.0
C5229 C 0.42097 0.72761 0.81989 0.0
C5230 C 0.45788 0.69875 0.81668 0.0
C5231 C 0.43277 0.74717 0.80479 0.0
C5232 C 0.4812 0.7391 0.7976 0.0
C5233 C 0.48077 0.73455 0.78293 0.0
C5234 C 0.46978 0.73532 0.80693 0.0
C5235 C 0.45755 0.72715 0.8013 0.0
C5236 C 0.45698 0.72287 0.7864 0.0
C5237 C 0.46865 0.72646 0.77748 0.0
C5238 C 0.47089 0.73982 0.82282 0.0
C5239 C 0.444 0.71449 0.77984 0.0
H5240 H 0.4323 0.69362 0.82997 0.0
H5241 H 0.41157 0.73469 0.8207 0.0
H5242 H 0.459 0.69508 0.8052 0.0
H5243 H 0.4682 0.70452 0.82004 0.0
H5244 H 0.45661 0.68892 0.8237 0.0
H5245 H 0.42289 0.75348 0.80754 0.0
H5246 H 0.44265 0.75369 0.80807 0.0
H5247 H 0.43286 0.74574 0.79273 0.0
H5248 H 0.49058 0.74531 0.80184 0.0
H5249 H 0.46818 0.72306 0.7661 0.0
H5250 H 0.47054 0.72996 0.8299 0.0
H5251 H 0.46141 0.74668 0.82555 0.0
H5252 H 0.48113 0.74606 0.82551 0.0
H5253 H 0.44288 0.70376 0.78541 0.0
H5254 H 0.44501 0.71249 0.76792 0.0
H5255 H 0.43377 0.72062 0.78154 0.0
C5256 C 0.3443 0.41694 0.79252 0.0
C5257 C 0.34446 0.41581 0.80786 0.0
C5258 C 0.33926 0.42965 0.78537 0.0
C5259 C 0.3342 0.44153 0.79374 0.0
C5260 C 0.33431 0.44046 0.80921 0.0
C5261 C 0.33946 0.42765 0.81607 0.0
C5262 C 0.33932 0.43035 0.76886 0.0
C5263 C 0.329 0.45287 0.81853 0.0
C5264 C 0.33328 0.47964 0.77686 0.0
C5265 C 0.31841 0.48106 0.77275 0.0
C5266 C 0.33857 0.46681 0.78358 0.0
C5267 C 0.32878 0.45509 0.78633 0.0
C5268 C 0.31379 0.45639 0.78215 0.0
C5269 C 0.3088 0.46932 0.7754 0.0
C5270 C 0.35464 0.46586 0.78787 0.0
C5271 C 0.303 0.44414 0.78486 0.0
H5272 H 0.34795 0.40779 0.78606 0.0
H5273 H 0.33974 0.42699 0.82792 0.0
H5274 H 0.32802 0.43204 0.76439 0.0
H5275 H 0.34604 0.43983 0.76537 0.0
H5276 H 0.34371 0.42024 0.76395 0.0
H5277 H 0.32969 0.45027 0.83041 0.0
H5278 H 0.33561 0.4629 0.81658 0.0
H5279 H 0.31746 0.45542 0.81542 0.0
H5280 H 0.34077 0.48866 0.77504 0.0
H5281 H 0.29737 0.47017 0.77206 0.0
H5282 H 0.35951 0.4562 0.78258 0.0
H5283 H 0.35599 0.46433 0.79988 0.0
H5284 H 0.36088 0.47581 0.78471 0.0
H5285 H 0.30647 0.434 0.77931 0.0
H5286 H 0.29172 0.44684 0.78087 0.0
H5287 H 0.30276 0.44174 0.79676 0.0
C5288 C 0.73127 0.62275 0.19293 0.0
C5289 C 0.71593 0.62367 0.19195 0.0
C5290 C 0.73822 0.61001 0.19809 0.0
C5291 C 0.72966 0.59783 0.20238 0.0
C5292 C 0.71418 0.59886 0.20188 0.0
C5293 C 0.70751 0.61177 0.1967 0.0
C5294 C 0.75474 0.60945 0.19856 0.0
C5295 C 0.70466 0.58613 0.20636 0.0
C5296 C 0.74711 0.56024 0.19985 0.0
C5297 C 0.75132 0.55743 0.21449 0.0
C5298 C 0.73995 0.57326 0.19582 0.0
C5299 C 0.73692 0.5838 0.20666 0.0
C5300 C 0.74111 0.58104 0.22147 0.0
C5301 C 0.74823 0.5679 0.2252 0.0
C5302 C 0.73563 0.57572 0.17991 0.0
C5303 C 0.73819 0.59203 0.23335 0.0
H5304 H 0.73786 0.63198 0.18951 0.0
H5305 H 0.69566 0.61235 0.19588 0.0
H5306 H 0.75885 0.60628 0.20967 0.0
H5307 H 0.75843 0.60099 0.19082 0.0
H5308 H 0.75981 0.62011 0.19563 0.0
H5309 H 0.69286 0.58897 0.20619 0.0
H5310 H 0.70617 0.57678 0.19881 0.0
H5311 H 0.70794 0.5824 0.21754 0.0
H5312 H 0.74922 0.55215 0.19153 0.0
H5313 H 0.75159 0.56593 0.2365 0.0
H5314 H 0.74111 0.58576 0.17586 0.0
H5315 H 0.72365 0.57746 0.17874 0.0
H5316 H 0.73858 0.56637 0.17284 0.0
H5317 H 0.74388 0.60253 0.23103 0.0
H5318 H 0.74191 0.58814 0.24437 0.0
H5319 H 0.7263 0.59435 0.23355 0.0
C5320 C 0.74334 0.41172 0.81842 0.0
C5321 C 0.72809 0.41217 0.81979 0.0
C5322 C 0.75119 0.42388 0.81337 0.0
C5323 C 0.74365 0.43688 0.80961 0.0
C5324 C 0.72821 0.4373 0.8106 0.0
C5325 C 0.7206 0.42491 0.81563 0.0
C5326 C 0.76761 0.42289 0.8123 0.0
C5327 C 0.71978 0.45097 0.80671 0.0
C5328 C 0.76593 0.47238 0.81081 0.0
C5329 C 0.76861 0.47466 0.79596 0.0
C5330 C 0.75766 0.46025 0.81539 0.0
C5331 C 0.75201 0.45007 0.80486 0.0
C5332 C 0.75475 0.45228 0.78986 0.0
C5333 C 0.76297 0.46454 0.7856 0.0
C5334 C 0.75494 0.45832 0.83149 0.0
C5335 C 0.74909 0.44161 0.7783 0.0
H5336 H 0.74916 0.40182 0.82143 0.0
H5337 H 0.70884 0.42535 0.81677 0.0
H5338 H 0.77089 0.42558 0.80102 0.0
H5339 H 0.77304 0.431 0.81977 0.0
H5340 H 0.77176 0.41182 0.81517 0.0
H5341 H 0.70777 0.44938 0.80764 0.0
H5342 H 0.72341 0.46007 0.81407 0.0
H5343 H 0.72204 0.45438 0.79535 0.0
H5344 H 0.7701 0.48023 0.81885 0.0
H5345 H 0.76519 0.46609 0.77412 0.0
H5346 H 0.75965 0.44782 0.8354 0.0
H5347 H 0.743 0.4578 0.83327 0.0
H5348 H 0.75981 0.46736 0.83825 0.0
H5349 H 0.75371 0.4306 0.78047 0.0
H5350 H 0.75196 0.44503 0.76708 0.0
H5351 H 0.73701 0.44056 0.77873 0.0
C5352 C 0.61853 0.71479 0.81343 0.0
C5353 C 0.62215 0.70003 0.81552 0.0
C5354 C 0.60566 0.71876 0.80562 0.0
C5355 C 0.59622 0.70769 0.7997 0.0
C5356 C 0.59959 0.69279 0.80214 0.0
C5357 C 0.61245 0.68914 0.81008 0.0
C5358 C 0.60239 0.73478 0.80333 0.0
C5359 C 0.58982 0.68066 0.79602 0.0
C5360 C 0.55728 0.71755 0.78767 0.0
C5361 C 0.55859 0.71958 0.77253 0.0
C5362 C 0.56941 0.7137 0.79666 0.0
C5363 C 0.58319 0.71168 0.79036 0.0
C5364 C 0.58455 0.71342 0.77506 0.0
C5365 C 0.57227 0.71738 0.76636 0.0
C5366 C 0.56753 0.71196 0.81293 0.0
C5367 C 0.59904 0.71127 0.7679 0.0
H5368 H 0.626 0.72327 0.81749 0.0
H5369 H 0.615 0.67771 0.81189 0.0
H5370 H 0.60277 0.73746 0.79151 0.0
H5371 H 0.59117 0.73724 0.80688 0.0
H5372 H 0.6103 0.74202 0.80944 0.0
H5373 H 0.59367 0.66963 0.79942 0.0
H5374 H 0.57846 0.68207 0.79966 0.0
H5375 H 0.58946 0.68117 0.78387 0.0
H5376 H 0.54675 0.719 0.79254 0.0
H5377 H 0.57354 0.71912 0.75475 0.0
H5378 H 0.57486 0.71977 0.81901 0.0
H5379 H 0.57071 0.70077 0.81642 0.0
H5380 H 0.55608 0.71389 0.81613 0.0
H5381 H 0.60725 0.71922 0.77245 0.0
H5382 H 0.59819 0.71271 0.75582 0.0
H5383 H 0.60322 0.70013 0.77031 0.0
C5384 C 0.30912 0.61943 0.82037 0.0
C5385 C 0.3242 0.61871 0.82371 0.0
C5386 C 0.30168 0.60781 0.8131 0.0
C5387 C 0.30949 0.59516 0.80911 0.0
C5388 C 0.32451 0.59403 0.8133 0.0
C5389 C 0.33166 0.6058 0.82051 0.0
C5390 C 0.28567 0.60946 0.80888 0.0
C5391 C 0.33327 0.58073 0.80939 0.0
C5392 C 0.29116 0.56007 0.79433 0.0
C5393 C 0.29343 0.5615 0.77928 0.0
C5394 C 0.29578 0.5712 0.80424 0.0
C5395 C 0.30269 0.58403 0.79891 0.0
C5396 C 0.30422 0.5858 0.78364 0.0
C5397 C 0.29963 0.57453 0.77407 0.0
C5398 C 0.29391 0.56892 0.82042 0.0
C5399 C 0.31134 0.59933 0.7774 0.0
H5400 H 0.30327 0.62937 0.82277 0.0
H5401 H 0.34325 0.60505 0.82331 0.0
H5402 H 0.28447 0.61132 0.7969 0.0
H5403 H 0.27948 0.59931 0.8114 0.0
H5404 H 0.28068 0.61882 0.81461 0.0
H5405 H 0.34436 0.58084 0.81478 0.0
H5406 H 0.32746 0.57056 0.81259 0.0
H5407 H 0.33453 0.58033 0.79735 0.0
H5408 H 0.28639 0.55003 0.79843 0.0
H5409 H 0.30125 0.57581 0.76243 0.0
H5410 H 0.28918 0.5788 0.82543 0.0
H5411 H 0.30478 0.56714 0.82587 0.0
H5412 H 0.28677 0.55933 0.82267 0.0
H5413 H 0.30604 0.60933 0.78151 0.0
H5414 H 0.31072 0.59948 0.76523 0.0
H5415 H 0.32305 0.59983 0.78104 0.0
C5416 C 0.42451 0.29443 0.83334 0.0
C5417 C 0.42411 0.30981 0.8331 0.0
C5418 C 0.43674 0.28681 0.82852 0.0
C5419 C 0.44887 0.29471 0.82322 0.0
C5420 C 0.44855 0.31022 0.82291 0.0
C5421 C 0.43621 0.31757 0.82788 0.0
C5422 C 0.43664 0.27028 0.82903 0.0
C5423 C 0.46124 0.31905 0.81729 0.0
C5424 C 0.48595 0.27606 0.82191 0.0
C5425 C 0.48648 0.27209 0.80708 0.0
C5426 C 0.47375 0.28333 0.82734 0.0
C5427 C 0.46179 0.28676 0.81772 0.0
C5428 C 0.46218 0.28264 0.8028 0.0
C5429 C 0.47447 0.27533 0.79769 0.0
C5430 C 0.47373 0.28748 0.84334 0.0
C5431 C 0.44965 0.28603 0.79218 0.0
H5432 H 0.41515 0.28831 0.83713 0.0
H5433 H 0.43611 0.32944 0.82783 0.0
H5434 H 0.43758 0.26579 0.81781 0.0
H5435 H 0.44623 0.26636 0.83563 0.0
H5436 H 0.42652 0.26577 0.83379 0.0
H5437 H 0.45931 0.33103 0.81781 0.0
H5438 H 0.47137 0.31654 0.82379 0.0
H5439 H 0.46319 0.31601 0.80576 0.0
H5440 H 0.4952 0.27375 0.82923 0.0
H5441 H 0.4746 0.27207 0.7863 0.0
H5442 H 0.464 0.28263 0.84852 0.0
H5443 H 0.47296 0.29955 0.84445 0.0
H5444 H 0.48373 0.28376 0.84945 0.0
H5445 H 0.43938 0.28093 0.79599 0.0
H5446 H 0.45162 0.28203 0.78093 0.0
H5447 H 0.4479 0.29803 0.79173 0.0
C5448 C 0.30141 0.41065 0.21545 0.0
C5449 C 0.31672 0.41158 0.21478 0.0
C5450 C 0.29325 0.42238 0.22082 0.0
C5451 C 0.30056 0.43537 0.22558 0.0
C5452 C 0.31593 0.43662 0.22423 0.0
C5453 C 0.32381 0.42471 0.2189 0.0
C5454 C 0.27691 0.42055 0.22213 0.0
C5455 C 0.32418 0.4503 0.22904 0.0
C5456 C 0.28082 0.47085 0.23449 0.0
C5457 C 0.28138 0.47047 0.24984 0.0
C5458 C 0.28647 0.4592 0.22629 0.0
C5459 C 0.2926 0.4469 0.23366 0.0
C5460 C 0.29225 0.44614 0.24912 0.0
C5461 C 0.28675 0.45794 0.25698 0.0
C5462 C 0.28663 0.46043 0.20983 0.0
C5463 C 0.29843 0.43319 0.25747 0.0
H5464 H 0.29585 0.40052 0.21234 0.0
H5465 H 0.3356 0.42562 0.21815 0.0
H5466 H 0.27427 0.41953 0.23386 0.0
H5467 H 0.27112 0.43031 0.21775 0.0
H5468 H 0.27264 0.41067 0.21624 0.0
H5469 H 0.33583 0.45012 0.22592 0.0
H5470 H 0.31893 0.46014 0.22415 0.0
H5471 H 0.32384 0.45142 0.24112 0.0
H5472 H 0.27677 0.48056 0.22895 0.0
H5473 H 0.28707 0.45755 0.26886 0.0
H5474 H 0.28263 0.45011 0.2046 0.0
H5475 H 0.29805 0.46226 0.20642 0.0
H5476 H 0.27981 0.46963 0.20566 0.0
H5477 H 0.29377 0.42281 0.25294 0.0
H5478 H 0.29615 0.43371 0.26933 0.0
H5479 H 0.31046 0.43284 0.25627 0.0
C5480 C 0.60499 0.31447 0.2028 0.0
C5481 C 0.61688 0.30672 0.19749 0.0
C5482 C 0.59268 0.30707 0.20808 0.0
C5483 C 0.59228 0.29156 0.20806 0.0
C5484 C 0.6044 0.28368 0.20305 0.0
C5485 C 0.61655 0.29135 0.19785 0.0
C5486 C 0.57997 0.31585 0.21336 0.0
C5487 C 0.60444 0.26714 0.20292 0.0
C5488 C 0.56526 0.27161 0.23195 0.0
C5489 C 0.55394 0.26798 0.22179 0.0
C5490 C 0.57777 0.27934 0.22767 0.0
C5491 C 0.57901 0.28353 0.21285 0.0
C5492 C 0.56767 0.27986 0.20251 0.0
C5493 C 0.55528 0.27213 0.20711 0.0
C5494 C 0.58966 0.28298 0.239 0.0
C5495 C 0.5686 0.28414 0.1866 0.0
H5496 H 0.60512 0.32634 0.20244 0.0
H5497 H 0.62581 0.28529 0.194 0.0
H5498 H 0.57009 0.31358 0.2063 0.0
H5499 H 0.57735 0.31254 0.22467 0.0
H5500 H 0.58224 0.32782 0.21325 0.0
H5501 H 0.61492 0.26267 0.19912 0.0
H5502 H 0.60251 0.26287 0.21407 0.0
H5503 H 0.5954 0.26297 0.19561 0.0
H5504 H 0.56442 0.26826 0.24327 0.0
H5505 H 0.54652 0.26957 0.19922 0.0
H5506 H 0.59151 0.295 0.23946 0.0
H5507 H 0.60011 0.27795 0.23589 0.0
H5508 H 0.58694 0.27907 0.25011 0.0
H5509 H 0.56969 0.29622 0.18565 0.0
H5510 H 0.55882 0.2805 0.17996 0.0
H5511 H 0.57848 0.27929 0.18188 0.0
C5512 C 0.42677 0.71382 0.20415 0.0
C5513 C 0.41712 0.70513 0.21215 0.0
C5514 C 0.43933 0.72027 0.21093 0.0
C5515 C 0.4425 0.71777 0.22602 0.0
C5516 C 0.43265 0.70931 0.23422 0.0
C5517 C 0.42002 0.70332 0.22727 0.0
C5518 C 0.44938 0.72952 0.20187 0.0
C5519 C 0.43563 0.70623 0.25029 0.0
C5520 C 0.48239 0.72126 0.23927 0.0
C5521 C 0.48259 0.73491 0.24633 0.0
C5522 C 0.46938 0.71545 0.23286 0.0
C5523 C 0.45629 0.72364 0.23319 0.0
C5524 C 0.45639 0.73737 0.24044 0.0
C5525 C 0.46949 0.74275 0.24707 0.0
C5526 C 0.46966 0.7006 0.22561 0.0
C5527 C 0.44278 0.74659 0.24081 0.0
H5528 H 0.42476 0.71528 0.19249 0.0
H5529 H 0.41246 0.69704 0.23373 0.0
H5530 H 0.45137 0.74032 0.2072 0.0
H5531 H 0.46014 0.7241 0.20113 0.0
H5532 H 0.44484 0.73134 0.19059 0.0
H5533 H 0.42686 0.69946 0.25513 0.0
H5534 H 0.44617 0.70039 0.25175 0.0
H5535 H 0.43669 0.71664 0.2565 0.0
H5536 H 0.49247 0.71516 0.23864 0.0
H5537 H 0.46957 0.7534 0.25232 0.0
H5538 H 0.46683 0.70167 0.21376 0.0
H5539 H 0.46133 0.69326 0.23039 0.0
H5540 H 0.48055 0.69534 0.22685 0.0
H5541 H 0.43905 0.74933 0.22947 0.0
H5542 H 0.44463 0.75694 0.24704 0.0
H5543 H 0.43378 0.74035 0.24586 0.0
loop_
_geom_bond_atom_site_label_1
_geom_bond_atom_site_label_2
_geom_bond_distance
_geom_bond_site_symmetry_2
_ccdc_geom_bond_type
C0 C1 1.391 . S
C0 C4 1.391 . S
C0 H42 0.948 . S
C1 C0 1.391 . S
C1 C2 1.391 . S
C2 C1 1.391 . S
C2 H58 0.947 . S
C2 C59 1.392 . S
C3 C4 1.391 . S
C3 C7 1.397 . S
C3 C59 1.419 . S
C4 C0 1.391 . S
C4 C3 1.391 . S
C4 C5 1.399 . S
C5 C4 1.399 . S
C5 C8 1.396 . S
C5 C17 1.453 . S
C5 C18 1.684 . S
H6 C30 0.948 . S
C7 C3 1.397 . S
C7 C8 1.394 . S
C7 C26 1.723 . S
C8 C5 1.396 . S
C8 C7 1.394 . S
C8 C38 1.723 . S
H9 C32 0.947 . S
H10 C33 0.948 . S
H11 C39 0.982 . S
H12 C40 0.979 . S
H13 C40 0.980 . S
H14 C40 0.983 . S
H15 C39 0.979 . S
H16 C39 0.977 . S
C17 C5 1.453 . S
C17 H46 0.982 . S
C17 H47 0.979 . S
C17 H48 0.977 . S
C18 C5 1.684 . S
C18 H43 0.979 . S
C18 H44 0.980 . S
C18 H45 0.983 . S
C19 C20 1.391 . S
C19 C24 1.391 . S
C19 H49 0.948 . S
C20 C19 1.391 . S
C20 C21 1.391 . S
C21 C20 1.391 . S
C21 C22 1.392 . S
C21 H50 0.947 . S
C22 C21 1.392 . S
C22 C23 1.419 . S
C22 H51 0.948 . S
C23 C22 1.419 . S
C23 C24 1.391 . S
C23 C27 1.397 . S
C24 C19 1.391 . S
C24 C23 1.391 . S
C24 C25 1.399 . S
C25 C24 1.399 . S
C25 C26 1.396 . S
C25 C28 1.453 . S
C25 C29 1.684 . S
C26 C7 1.723 . S
C26 C25 1.396 . S
C26 C27 1.394 . S
C27 C23 1.397 . S
C27 C26 1.394 . S
C27 C37 1.723 . S
C28 C25 1.453 . S
C28 H52 0.982 . S
C28 H53 0.979 . S
C28 H54 0.977 . S
C29 C25 1.684 . S
C29 H55 0.979 . S
C29 H56 0.980 . S
C29 H57 0.983 . S
C30 H6 0.948 . S
C30 C31 1.391 . S
C30 C35 1.391 . S
C31 C30 1.391 . S
C31 C32 1.391 . S
C32 H9 0.947 . S
C32 C31 1.391 . S
C32 C33 1.392 . S
C33 H10 0.948 . S
C33 C32 1.392 . S
C33 C34 1.419 . S
C34 C33 1.419 . S
C34 C35 1.391 . S
C34 C38 1.397 . S
C35 C30 1.391 . S
C35 C34 1.391 . S
C35 C36 1.399 . S
C36 C35 1.399 . S
C36 C37 1.396 . S
C36 C39 1.453 . S
C36 C40 1.684 . S
C37 C27 1.723 . S
C37 C36 1.396 . S
C37 C38 1.394 . S
C38 C8 1.723 . S
C38 C34 1.397 . S
C38 C37 1.394 . S
C39 H11 0.982 . S
C39 H15 0.979 . S
C39 H16 0.977 . S
C39 C36 1.453 . S
C40 H12 0.979 . S
C40 H13 0.980 . S
C40 H14 0.983 . S
C40 C36 1.684 . S
H41 C59 0.948 . S
H42 C0 0.948 . S
H43 C18 0.979 . S
H44 C18 0.980 . S
H45 C18 0.983 . S
H46 C17 0.982 . S
H47 C17 0.979 . S
H48 C17 0.977 . S
H49 C19 0.948 . S
H50 C21 0.947 . S
H51 C22 0.948 . S
H52 C28 0.982 . S
H53 C28 0.979 . S
H54 C28 0.977 . S
H55 C29 0.979 . S
H56 C29 0.980 . S
H57 C29 0.983 . S
H58 C2 0.947 . S
C59 C2 1.392 . S
C59 C3 1.419 . S
C59 H41 0.948 . S
C60 C61 1.391 . S
C60 C64 1.391 . S
C60 H102 0.948 . S
C61 C60 1.391 . S
C61 C62 1.391 . S
C62 C61 1.391 . S
C62 H118 0.947 . S
C62 C119 1.392 . S
C63 C64 1.391 . S
C63 C67 1.397 . S
C63 C119 1.419 . S
C64 C60 1.391 . S
C64 C63 1.391 . S
C64 C65 1.399 . S
C65 C64 1.399 . S
C65 C68 1.396 . S
C65 C77 1.453 . S
C65 C78 1.684 . S
H66 C90 0.948 . S
C67 C63 1.397 . S
C67 C68 1.394 . S
C67 C86 1.723 . S
C68 C65 1.396 . S
C68 C67 1.394 . S
C68 C98 1.723 . S
H69 C92 0.947 . S
H70 C93 0.948 . S
H71 C99 0.982 . S
H72 C100 0.979 . S
H73 C100 0.980 . S
H74 C100 0.983 . S
H75 C99 0.979 . S
H76 C99 0.977 . S
C77 C65 1.453 . S
C77 H106 0.982 . S
C77 H107 0.979 . S
C77 H108 0.977 . S
C78 C65 1.684 . S
C78 H103 0.979 . S
C78 H104 0.980 . S
C78 H105 0.983 . S
C79 C80 1.391 . S
C79 C84 1.391 . S
C79 H109 0.948 . S
C80 C79 1.391 . S
C80 C81 1.391 . S
C81 C80 1.391 . S
C81 C82 1.392 . S
C81 H110 0.947 . S
C82 C81 1.392 . S
C82 C83 1.419 . S
C82 H111 0.948 . S
C83 C82 1.419 . S
C83 C84 1.391 . S
C83 C87 1.397 . S
C84 C79 1.391 . S
C84 C83 1.391 . S
C84 C85 1.399 . S
C85 C84 1.399 . S
C85 C86 1.396 . S
C85 C88 1.453 . S
C85 C89 1.684 . S
C86 C67 1.723 . S
C86 C85 1.396 . S
C86 C87 1.394 . S
C87 C83 1.397 . S
C87 C86 1.394 . S
C87 C97 1.723 . S
C88 C85 1.453 . S
C88 H112 0.982 . S
C88 H113 0.979 . S
C88 H114 0.977 . S
C89 C85 1.684 . S
C89 H115 0.979 . S
C89 H116 0.980 . S
C89 H117 0.983 . S
C90 H66 0.948 . S
C90 C91 1.391 . S
C90 C95 1.391 . S
C91 C90 1.391 . S
C91 C92 1.391 . S
C92 H69 0.947 . S
C92 C91 1.391 . S
C92 C93 1.392 . S
C93 H70 0.948 . S
C93 C92 1.392 . S
C93 C94 1.419 . S
C94 C93 1.419 . S
C94 C95 1.391 . S
C94 C98 1.397 . S
C95 C90 1.391 . S
C95 C94 1.391 . S
C95 C96 1.399 . S
C96 C95 1.399 . S
C96 C97 1.396 . S
C96 C99 1.453 . S
C96 C100 1.684 . S
C97 C87 1.723 . S
C97 C96 1.396 . S
C97 C98 1.394 . S
C98 C68 1.723 . S
C98 C94 1.397 . S
C98 C97 1.394 . S
C99 H71 0.982 . S
C99 H75 0.979 . S
C99 H76 0.977 . S
C99 C96 1.453 . S
C100 H72 0.979 . S
C100 H73 0.980 . S
C100 H74 0.983 . S
C100 C96 1.684 . S
H101 C119 0.948 . S
H102 C60 0.948 . S
H103 C78 0.979 . S
H104 C78 0.980 . S
H105 C78 0.983 . S
H106 C77 0.982 . S
H107 C77 0.979 . S
H108 C77 0.977 . S
H109 C79 0.948 . S
H110 C81 0.947 . S
H111 C82 0.948 . S
H112 C88 0.982 . S
H113 C88 0.979 . S
H114 C88 0.977 . S
H115 C89 0.979 . S
H116 C89 0.980 . S
H117 C89 0.983 . S
H118 C62 0.947 . S
C119 C62 1.392 . S
C119 C63 1.419 . S
C119 H101 0.948 . S
C120 C121 1.391 . S
C120 C124 1.391 . S
C120 H162 0.948 . S
C121 C120 1.391 . S
C121 C122 1.391 . S
C122 C121 1.391 . S
C122 H178 0.947 . S
C122 C179 1.392 . S
C123 C124 1.391 . S
C123 C127 1.397 . S
C123 C179 1.419 . S
C124 C120 1.391 . S
C124 C123 1.391 . S
C124 C125 1.399 . S
C125 C124 1.399 . S
C125 C128 1.396 . S
C125 C137 1.453 . S
C125 C138 1.684 . S
H126 C150 0.948 . S
C127 C123 1.397 . S
C127 C128 1.394 . S
C127 C146 1.723 . S
C128 C125 1.396 . S
C128 C127 1.394 . S
C128 C158 1.723 . S
H129 C152 0.947 . S
H130 C153 0.948 . S
H131 C159 0.982 . S
H132 C160 0.979 . S
H133 C160 0.980 . S
H134 C160 0.983 . S
H135 C159 0.979 . S
H136 C159 0.977 . S
C137 C125 1.453 . S
C137 H166 0.982 . S
C137 H167 0.979 . S
C137 H168 0.977 . S
C138 C125 1.684 . S
C138 H163 0.979 . S
C138 H164 0.980 . S
C138 H165 0.983 . S
C139 C140 1.391 . S
C139 C144 1.391 . S
C139 H169 0.948 . S
C140 C139 1.391 . S
C140 C141 1.391 . S
C141 C140 1.391 . S
C141 C142 1.392 . S
C141 H170 0.947 . S
C142 C141 1.392 . S
C142 C143 1.419 . S
C142 H171 0.948 . S
C143 C142 1.419 . S
C143 C144 1.391 . S
C143 C147 1.397 . S
C144 C139 1.391 . S
C144 C143 1.391 . S
C144 C145 1.399 . S
C145 C144 1.399 . S
C145 C146 1.396 . S
C145 C148 1.453 . S
C145 C149 1.684 . S
C146 C127 1.723 . S
C146 C145 1.396 . S
C146 C147 1.394 . S
C147 C143 1.397 . S
C147 C146 1.394 . S
C147 C157 1.723 . S
C148 C145 1.453 . S
C148 H172 0.982 . S
C148 H173 0.979 . S
C148 H174 0.977 . S
C149 C145 1.684 . S
C149 H175 0.979 . S
C149 H176 0.980 . S
C149 H177 0.983 . S
C150 H126 0.948 . S
C150 C151 1.391 . S
C150 C155 1.391 . S
C151 C150 1.391 . S
C151 C152 1.391 . S
C152 H129 0.947 . S
C152 C151 1.391 . S
C152 C153 1.392 . S
C153 H130 0.948 . S
C153 C152 1.392 . S
C153 C154 1.419 . S
C154 C153 1.419 . S
C154 C155 1.391 . S
C154 C158 1.397 . S
C155 C150 1.391 . S
C155 C154 1.391 . S
C155 C156 1.399 . S
C156 C155 1.399 . S
C156 C157 1.396 . S
C156 C159 1.453 . S
C156 C160 1.684 . S
C157 C147 1.723 . S
C157 C156 1.396 . S
C157 C158 1.394 . S
C158 C128 1.723 . S
C158 C154 1.397 . S
C158 C157 1.394 . S
C159 H131 0.982 . S
C159 H135 0.979 . S
C159 H136 0.977 . S
C159 C156 1.453 . S
C160 H132 0.979 . S
C160 H133 0.980 . S
C160 H134 0.983 . S
C160 C156 1.684 . S
H161 C179 0.948 . S
H162 C120 0.948 . S
H163 C138 0.979 . S
H164 C138 0.980 . S
H165 C138 0.983 . S
H166 C137 0.982 . S
H167 C137 0.979 . S
H168 C137 0.977 . S
H169 C139 0.948 . S
H170 C141 0.947 . S
H171 C142 0.948 . S
H172 C148 0.982 . S
H173 C148 0.979 . S
H174 C148 0.977 . S
H175 C149 0.979 . S
H176 C149 0.980 . S
H177 C149 0.983 . S
H178 C122 0.947 . S
C179 C122 1.392 . S
C179 C123 1.419 . S
C179 H161 0.948 . S
C180 C181 1.391 . S
C180 C184 1.391 . S
C180 H222 0.948 . S
C181 C180 1.391 . S
C181 C182 1.391 . S
C182 C181 1.391 . S
C182 H238 0.947 . S
C182 C239 1.392 . S
C183 C184 1.391 . S
C183 C187 1.397 . S
C183 C239 1.419 . S
C184 C180 1.391 . S
C184 C183 1.391 . S
C184 C185 1.399 . S
C185 C184 1.399 . S
C185 C188 1.396 . S
C185 C197 1.453 . S
C185 C198 1.684 . S
H186 C210 0.948 . S
C187 C183 1.397 . S
C187 C188 1.394 . S
C187 C206 1.723 . S
C188 C185 1.396 . S
C188 C187 1.394 . S
C188 C218 1.723 . S
H189 C212 0.947 . S
H190 C213 0.948 . S
H191 C219 0.982 . S
H192 C220 0.979 . S
H193 C220 0.980 . S
H194 C220 0.983 . S
H195 C219 0.979 . S
H196 C219 0.977 . S
C197 C185 1.453 . S
C197 H226 0.982 . S
C197 H227 0.979 . S
C197 H228 0.977 . S
C198 C185 1.684 . S
C198 H223 0.979 . S
C198 H224 0.980 . S
C198 H225 0.983 . S
C199 C200 1.391 . S
C199 C204 1.391 . S
C199 H229 0.948 . S
C200 C199 1.391 . S
C200 C201 1.391 . S
C201 C200 1.391 . S
C201 C202 1.392 . S
C201 H230 0.947 . S
C202 C201 1.392 . S
C202 C203 1.419 . S
C202 H231 0.948 . S
C203 C202 1.419 . S
C203 C204 1.391 . S
C203 C207 1.397 . S
C204 C199 1.391 . S
C204 C203 1.391 . S
C204 C205 1.399 . S
C205 C204 1.399 . S
C205 C206 1.396 . S
C205 C208 1.453 . S
C205 C209 1.684 . S
C206 C187 1.723 . S
C206 C205 1.396 . S
C206 C207 1.394 . S
C207 C203 1.397 . S
C207 C206 1.394 . S
C207 C217 1.723 . S
C208 C205 1.453 . S
C208 H232 0.982 . S
C208 H233 0.979 . S
C208 H234 0.977 . S
C209 C205 1.684 . S
C209 H235 0.979 . S
C209 H236 0.980 . S
C209 H237 0.983 . S
C210 H186 0.948 . S
C210 C211 1.391 . S
C210 C215 1.391 . S
C211 C210 1.391 . S
C211 C212 1.391 . S
C212 H189 0.947 . S
C212 C211 1.391 . S
C212 C213 1.392 . S
C213 H190 0.948 . S
C213 C212 1.392 . S
C213 C214 1.419 . S
C214 C213 1.419 . S
C214 C215 1.391 . S
C214 C218 1.397 . S
C215 C210 1.391 . S
C215 C214 1.391 . S
C215 C216 1.399 . S
C216 C215 1.399 . S
C216 C217 1.396 . S
C216 C219 1.453 . S
C216 C220 1.684 . S
C217 C207 1.723 . S
C217 C216 1.396 . S
C217 C218 1.394 . S
C218 C188 1.723 . S
C218 C214 1.397 . S
C218 C217 1.394 . S
C219 H191 0.982 . S
C219 H195 0.979 . S
C219 H196 0.977 . S
C219 C216 1.453 . S
C220 H192 0.979 . S
C220 H193 0.980 . S
C220 H194 0.983 . S
C220 C216 1.684 . S
H221 C239 0.948 . S
H222 C180 0.948 . S
H223 C198 0.979 . S
H224 C198 0.980 . S
H225 C198 0.983 . S
H226 C197 0.982 . S
H227 C197 0.979 . S
H228 C197 0.977 . S
H229 C199 0.948 . S
H230 C201 0.947 . S
H231 C202 0.948 . S
H232 C208 0.982 . S
H233 C208 0.979 . S
H234 C208 0.977 . S
H235 C209 0.979 . S
H236 C209 0.980 . S
H237 C209 0.983 . S
H238 C182 0.947 . S
C239 C182 1.392 . S
C239 C183 1.419 . S
C239 H221 0.948 . S
C240 C241 1.391 . S
C240 C244 1.391 . S
C240 H282 0.948 . S
C241 C240 1.391 . S
C241 C242 1.391 . S
C242 C241 1.391 . S
C242 H298 0.947 . S
C242 C299 1.392 . S
C243 C244 1.391 . S
C243 C247 1.397 . S
C243 C299 1.419 . S
C244 C240 1.391 . S
C244 C243 1.391 . S
C244 C245 1.399 . S
C245 C244 1.399 . S
C245 C248 1.396 . S
C245 C257 1.453 . S
C245 C258 1.684 . S
H246 C270 0.948 . S
C247 C243 1.397 . S
C247 C248 1.394 . S
C247 C266 1.723 . S
C248 C245 1.396 . S
C248 C247 1.394 . S
C248 C278 1.723 . S
H249 C272 0.947 . S
H250 C273 0.948 . S
H251 C279 0.982 . S
H252 C280 0.979 . S
H253 C280 0.980 . S
H254 C280 0.983 . S
H255 C279 0.979 . S
H256 C279 0.977 . S
C257 C245 1.453 . S
C257 H286 0.982 . S
C257 H287 0.979 . S
C257 H288 0.977 . S
C258 C245 1.684 . S
C258 H283 0.979 . S
C258 H284 0.980 . S
C258 H285 0.983 . S
C259 C260 1.391 . S
C259 C264 1.391 . S
C259 H289 0.948 . S
C260 C259 1.391 . S
C260 C261 1.391 . S
C261 C260 1.391 . S
C261 C262 1.392 . S
C261 H290 0.947 . S
C262 C261 1.392 . S
C262 C263 1.419 . S
C262 H291 0.948 . S
C263 C262 1.419 . S
C263 C264 1.391 . S
C263 C267 1.397 . S
C264 C259 1.391 . S
C264 C263 1.391 . S
C264 C265 1.399 . S
C265 C264 1.399 . S
C265 C266 1.396 . S
C265 C268 1.453 . S
C265 C269 1.684 . S
C266 C247 1.723 . S
C266 C265 1.396 . S
C266 C267 1.394 . S
C267 C263 1.397 . S
C267 C266 1.394 . S
C267 C277 1.723 . S
C268 C265 1.453 . S
C268 H292 0.982 . S
C268 H293 0.979 . S
C268 H294 0.977 . S
C269 C265 1.684 . S
C269 H295 0.979 . S
C269 H296 0.980 . S
C269 H297 0.983 . S
C270 H246 0.948 . S
C270 C271 1.391 . S
C270 C275 1.391 . S
C271 C270 1.391 . S
C271 C272 1.391 . S
C272 H249 0.947 . S
C272 C271 1.391 . S
C272 C273 1.392 . S
C273 H250 0.948 . S
C273 C272 1.392 . S
C273 C274 1.419 . S
C274 C273 1.419 . S
C274 C275 1.391 . S
C274 C278 1.397 . S
C275 C270 1.391 . S
C275 C274 1.391 . S
C275 C276 1.399 . S
C276 C275 1.399 . S
C276 C277 1.396 . S
C276 C279 1.453 . S
C276 C280 1.684 . S
C277 C267 1.723 . S
C277 C276 1.396 . S
C277 C278 1.394 . S
C278 C248 1.723 . S
C278 C274 1.397 . S
C278 C277 1.394 . S
C279 H251 0.982 . S
C279 H255 0.979 . S
C279 H256 0.977 . S
C279 C276 1.453 . S
C280 H252 0.979 . S
C280 H253 0.980 . S
C280 H254 0.983 . S
C280 C276 1.684 . S
H281 C299 0.948 . S
H282 C240 0.948 . S
H283 C258 0.979 . S
H284 C258 0.980 . S
H285 C258 0.983 . S
H286 C257 0.982 . S
H287 C257 0.979 . S
H288 C257 0.977 . S
H289 C259 0.948 . S
H290 C261 0.947 . S
H291 C262 0.948 . S
H292 C268 0.982 . S
H293 C268 0.979 . S
H294 C268 0.977 . S
H295 C269 0.979 . S
H296 C269 0.980 . S
H297 C269 0.983 . S
H298 C242 0.947 . S
C299 C242 1.392 . S
C299 C243 1.419 . S
C299 H281 0.948 . S
C300 C301 1.391 . S
C300 C304 1.391 . S
C300 H342 0.948 . S
C301 C300 1.391 . S
C301 C302 1.391 . S
C302 C301 1.391 . S
C302 H358 0.947 . S
C302 C359 1.392 . S
C303 C304 1.391 . S
C303 C307 1.397 . S
C303 C359 1.419 . S
C304 C300 1.391 . S
C304 C303 1.391 . S
C304 C305 1.399 . S
C305 C304 1.399 . S
C305 C308 1.396 . S
C305 C317 1.453 . S
C305 C318 1.684 . S
H306 C330 0.948 . S
C307 C303 1.397 . S
C307 C308 1.394 . S
C307 C326 1.723 . S
C308 C305 1.396 . S
C308 C307 1.394 . S
C308 C338 1.723 . S
H309 C332 0.947 . S
H310 C333 0.948 . S
H311 C339 0.982 . S
H312 C340 0.979 . S
H313 C340 0.980 . S
H314 C340 0.983 . S
H315 C339 0.979 . S
H316 C339 0.977 . S
C317 C305 1.453 . S
C317 H346 0.982 . S
C317 H347 0.979 . S
C317 H348 0.977 . S
C318 C305 1.684 . S
C318 H343 0.979 . S
C318 H344 0.980 . S
C318 H345 0.983 . S
C319 C320 1.391 . S
C319 C324 1.391 . S
C319 H349 0.948 . S
C320 C319 1.391 . S
C320 C321 1.391 . S
C321 C320 1.391 . S
C321 C322 1.392 . S
C321 H350 0.947 . S
C322 C321 1.392 . S
C322 C323 1.419 . S
C322 H351 0.948 . S
C323 C322 1.419 . S
C323 C324 1.391 . S
C323 C327 1.397 . S
C324 C319 1.391 . S
C324 C323 1.391 . S
C324 C325 1.399 . S
C325 C324 1.399 . S
C325 C326 1.396 . S
C325 C328 1.453 . S
C325 C329 1.684 . S
C326 C307 1.723 . S
C326 C325 1.396 . S
C326 C327 1.394 . S
C327 C323 1.397 . S
C327 C326 1.394 . S
C327 C337 1.723 . S
C328 C325 1.453 . S
C328 H352 0.982 . S
C328 H353 0.979 . S
C328 H354 0.977 . S
C329 C325 1.684 . S
C329 H355 0.979 . S
C329 H356 0.980 . S
C329 H357 0.983 . S
C330 H306 0.948 . S
C330 C331 1.391 . S
C330 C335 1.391 . S
C331 C330 1.391 . S
C331 C332 1.391 . S
C332 H309 0.947 . S
C332 C331 1.391 . S
C332 C333 1.392 . S
C333 H310 0.948 . S
C333 C332 1.392 . S
C333 C334 1.419 . S
C334 C333 1.419 . S
C334 C335 1.391 . S
C334 C338 1.397 . S
C335 C330 1.391 . S
C335 C334 1.391 . S
C335 C336 1.399 . S
C336 C335 1.399 . S
C336 C337 1.396 . S
C336 C339 1.453 . S
C336 C340 1.684 . S
C337 C327 1.723 . S
C337 C336 1.396 . S
C337 C338 1.394 . S
C338 C308 1.723 . S
C338 C334 1.397 . S
C338 C337 1.394 . S
C339 H311 0.982 . S
C339 H315 0.979 . S
C339 H316 0.977 . S
C339 C336 1.453 . S
C340 H312 0.979 . S
C340 H313 0.980 . S
C340 H314 0.983 . S
C340 C336 1.684 . S
H341 C359 0.948 . S
H342 C300 0.948 . S
H343 C318 0.979 . S
H344 C318 0.980 . S
H345 C318 0.983 . S
H346 C317 0.982 . S
H347 C317 0.979 . S
H348 C317 0.977 . S
H349 C319 0.948 . S
H350 C321 0.947 . S
H351 C322 0.948 . S
H352 C328 0.982 . S
H353 C328 0.979 . S
H354 C328 0.977 . S
H355 C329 0.979 . S
H356 C329 0.980 . S
H357 C329 0.983 . S
H358 C302 0.947 . S
C359 C302 1.392 . S
C359 C303 1.419 . S
C359 H341 0.948 . S
C360 C361 1.391 . S
C360 C364 1.391 . S
C360 H402 0.948 . S
C361 C360 1.391 . S
C361 C362 1.391 . S
C362 C361 1.391 . S
C362 H418 0.947 . S
C362 C419 1.392 . S
C363 C364 1.391 . S
C363 C367 1.397 . S
C363 C419 1.419 . S
C364 C360 1.391 . S
C364 C363 1.391 . S
C364 C365 1.399 . S
C365 C364 1.399 . S
C365 C368 1.396 . S
C365 C377 1.453 . S
C365 C378 1.684 . S
H366 C390 0.948 . S
C367 C363 1.397 . S
C367 C368 1.394 . S
C367 C386 1.723 . S
C368 C365 1.396 . S
C368 C367 1.394 . S
C368 C398 1.723 . S
H369 C392 0.947 . S
H370 C393 0.948 . S
H371 C399 0.982 . S
H372 C400 0.979 . S
H373 C400 0.980 . S
H374 C400 0.983 . S
H375 C399 0.979 . S
H376 C399 0.977 . S
C377 C365 1.453 . S
C377 H406 0.982 . S
C377 H407 0.979 . S
C377 H408 0.977 . S
C378 C365 1.684 . S
C378 H403 0.979 . S
C378 H404 0.980 . S
C378 H405 0.983 . S
C379 C380 1.391 . S
C379 C384 1.391 . S
C379 H409 0.948 . S
C380 C379 1.391 . S
C380 C381 1.391 . S
C381 C380 1.391 . S
C381 C382 1.392 . S
C381 H410 0.947 . S
C382 C381 1.392 . S
C382 C383 1.419 . S
C382 H411 0.948 . S
C383 C382 1.419 . S
C383 C384 1.391 . S
C383 C387 1.397 . S
C384 C379 1.391 . S
C384 C383 1.391 . S
C384 C385 1.399 . S
C385 C384 1.399 . S
C385 C386 1.396 . S
C385 C388 1.453 . S
C385 C389 1.684 . S
C386 C367 1.723 . S
C386 C385 1.396 . S
C386 C387 1.394 . S
C387 C383 1.397 . S
C387 C386 1.394 . S
C387 C397 1.723 . S
C388 C385 1.453 . S
C388 H412 0.982 . S
C388 H413 0.979 . S
C388 H414 0.977 . S
C389 C385 1.684 . S
C389 H415 0.979 . S
C389 H416 0.980 . S
C389 H417 0.983 . S
C390 H366 0.948 . S
C390 C391 1.391 . S
C390 C395 1.391 . S
C391 C390 1.391 . S
C391 C392 1.391 . S
C392 H369 0.947 . S
C392 C391 1.391 . S
C392 C393 1.392 . S
C393 H370 0.948 . S
C393 C392 1.392 . S
C393 C394 1.419 . S
C394 C393 1.419 . S
C394 C395 1.391 . S
C394 C398 1.397 . S
C395 C390 1.391 . S
C395 C394 1.391 . S
C395 C396 1.399 . S
C396 C395 1.399 . S
C396 C397 1.396 . S
C396 C399 1.453 . S
C396 C400 1.684 . S
C397 C387 1.723 . S
C397 C396 1.396 . S
C397 C398 1.394 . S
C398 C368 1.723 . S
C398 C394 1.397 . S
C398 C397 1.394 . S
C399 H371 0.982 . S
C399 H375 0.979 . S
C399 H376 0.977 . S
C399 C396 1.453 . S
C400 H372 0.979 . S
C400 H373 0.980 . S
C400 H374 0.983 . S
C400 C396 1.684 . S
H401 C419 0.948 . S
H402 C360 0.948 . S
H403 C378 0.979 . S
H404 C378 0.980 . S
H405 C378 0.983 . S
H406 C377 0.982 . S
H407 C377 0.979 . S
H408 C377 0.977 . S
H409 C379 0.948 . S
H410 C381 0.947 . S
H411 C382 0.948 . S
H412 C388 0.982 . S
H413 C388 0.979 . S
H414 C388 0.977 . S
H415 C389 0.979 . S
H416 C389 0.980 . S
H417 C389 0.983 . S
H418 C362 0.947 . S
C419 C362 1.392 . S
C419 C363 1.419 . S
C419 H401 0.948 . S
C420 C421 1.391 . S
C420 C424 1.391 . S
C420 H462 0.948 . S
C421 C420 1.391 . S
C421 C422 1.391 . S
C422 C421 1.391 . S
C422 H478 0.947 . S
C422 C479 1.392 . S
C423 C424 1.391 . S
C423 C427 1.397 . S
C423 C479 1.419 . S
C424 C420 1.391 . S
C424 C423 1.391 . S
C424 C425 1.399 . S
C425 C424 1.399 . S
C425 C428 1.396 . S
C425 C437 1.453 . S
C425 C438 1.684 . S
H426 C450 0.948 . S
C427 C423 1.397 . S
C427 C428 1.394 . S
C427 C446 1.723 . S
C428 C425 1.396 . S
C428 C427 1.394 . S
C428 C458 1.723 . S
H429 C452 0.947 . S
H430 C453 0.948 . S
H431 C459 0.982 . S
H432 C460 0.979 . S
H433 C460 0.980 . S
H434 C460 0.983 . S
H435 C459 0.979 . S
H436 C459 0.977 . S
C437 C425 1.453 . S
C437 H466 0.982 . S
C437 H467 0.979 . S
C437 H468 0.977 . S
C438 C425 1.684 . S
C438 H463 0.979 . S
C438 H464 0.980 . S
C438 H465 0.983 . S
C439 C440 1.391 . S
C439 C444 1.391 . S
C439 H469 0.948 . S
C440 C439 1.391 . S
C440 C441 1.391 . S
C441 C440 1.391 . S
C441 C442 1.392 . S
C441 H470 0.947 . S
C442 C441 1.392 . S
C442 C443 1.419 . S
C442 H471 0.948 . S
C443 C442 1.419 . S
C443 C444 1.391 . S
C443 C447 1.397 . S
C444 C439 1.391 . S
C444 C443 1.391 . S
C444 C445 1.399 . S
C445 C444 1.399 . S
C445 C446 1.396 . S
C445 C448 1.453 . S
C445 C449 1.684 . S
C446 C427 1.723 . S
C446 C445 1.396 . S
C446 C447 1.394 . S
C447 C443 1.397 . S
C447 C446 1.394 . S
C447 C457 1.723 . S
C448 C445 1.453 . S
C448 H472 0.982 . S
C448 H473 0.979 . S
C448 H474 0.977 . S
C449 C445 1.684 . S
C449 H475 0.979 . S
C449 H476 0.980 . S
C449 H477 0.983 . S
C450 H426 0.948 . S
C450 C451 1.391 . S
C450 C455 1.391 . S
C451 C450 1.391 . S
C451 C452 1.391 . S
C452 H429 0.947 . S
C452 C451 1.391 . S
C452 C453 1.392 . S
C453 H430 0.948 . S
C453 C452 1.392 . S
C453 C454 1.419 . S
C454 C453 1.419 . S
C454 C455 1.391 . S
C454 C458 1.397 . S
C455 C450 1.391 . S
C455 C454 1.391 . S
C455 C456 1.399 . S
C456 C455 1.399 . S
C456 C457 1.396 . S
C456 C459 1.453 . S
C456 C460 1.684 . S
C457 C447 1.723 . S
C457 C456 1.396 . S
C457 C458 1.394 . S
C458 C428 1.723 . S
C458 C454 1.397 . S
C458 C457 1.394 . S
C459 H431 0.982 . S
C459 H435 0.979 . S
C459 H436 0.977 . S
C459 C456 1.453 . S
C460 H432 0.979 . S
C460 H433 0.980 . S
C460 H434 0.983 . S
C460 C456 1.684 . S
H461 C479 0.948 . S
H462 C420 0.948 . S
H463 C438 0.979 . S
H464 C438 0.980 . S
H465 C438 0.983 . S
H466 C437 0.982 . S
H467 C437 0.979 . S
H468 C437 0.977 . S
H469 C439 0.948 . S
H470 C441 0.947 . S
H471 C442 0.948 . S
H472 C448 0.982 . S
H473 C448 0.979 . S
H474 C448 0.977 . S
H475 C449 0.979 . S
H476 C449 0.980 . S
H477 C449 0.983 . S
H478 C422 0.947 . S
C479 C422 1.392 . S
C479 C423 1.419 . S
C479 H461 0.948 . S
C480 C481 1.391 . S
C480 C484 1.391 . S
C480 H522 0.948 . S
C481 C480 1.391 . S
C481 C482 1.391 . S
C482 C481 1.391 . S
C482 H538 0.947 . S
C482 C539 1.392 . S
C483 C484 1.391 . S
C483 C487 1.397 . S
C483 C539 1.419 . S
C484 C480 1.391 . S
C484 C483 1.391 . S
C484 C485 1.399 . S
C485 C484 1.399 . S
C485 C488 1.396 . S
C485 C497 1.453 . S
C485 C498 1.684 . S
H486 C510 0.948 . S
C487 C483 1.397 . S
C487 C488 1.394 . S
C487 C506 1.723 . S
C488 C485 1.396 . S
C488 C487 1.394 . S
C488 C518 1.723 . S
H489 C512 0.947 . S
H490 C513 0.948 . S
H491 C519 0.982 . S
H492 C520 0.979 . S
H493 C520 0.980 . S
H494 C520 0.983 . S
H495 C519 0.979 . S
H496 C519 0.977 . S
C497 C485 1.453 . S
C497 H526 0.982 . S
C497 H527 0.979 . S
C497 H528 0.977 . S
C498 C485 1.684 . S
C498 H523 0.979 . S
C498 H524 0.980 . S
C498 H525 0.983 . S
C499 C500 1.391 . S
C499 C504 1.391 . S
C499 H529 0.948 . S
C500 C499 1.391 . S
C500 C501 1.391 . S
C501 C500 1.391 . S
C501 C502 1.392 . S
C501 H530 0.947 . S
C502 C501 1.392 . S
C502 C503 1.419 . S
C502 H531 0.948 . S
C503 C502 1.419 . S
C503 C504 1.391 . S
C503 C507 1.397 . S
C504 C499 1.391 . S
C504 C503 1.391 . S
C504 C505 1.399 . S
C505 C504 1.399 . S
C505 C506 1.396 . S
C505 C508 1.453 . S
C505 C509 1.684 . S
C506 C487 1.723 . S
C506 C505 1.396 . S
C506 C507 1.394 . S
C507 C503 1.397 . S
C507 C506 1.394 . S
C507 C517 1.723 . S
C508 C505 1.453 . S
C508 H532 0.982 . S
C508 H533 0.979 . S
C508 H534 0.977 . S
C509 C505 1.684 . S
C509 H535 0.979 . S
C509 H536 0.980 . S
C509 H537 0.983 . S
C510 H486 0.948 . S
C510 C511 1.391 . S
C510 C515 1.391 . S
C511 C510 1.391 . S
C511 C512 1.391 . S
C512 H489 0.947 . S
C512 C511 1.391 . S
C512 C513 1.392 . S
C513 H490 0.948 . S
C513 C512 1.392 . S
C513 C514 1.419 . S
C514 C513 1.419 . S
C514 C515 1.391 . S
C514 C518 1.397 . S
C515 C510 1.391 . S
C515 C514 1.391 . S
C515 C516 1.399 . S
C516 C515 1.399 . S
C516 C517 1.396 . S
C516 C519 1.453 . S
C516 C520 1.684 . S
C517 C507 1.723 . S
C517 C516 1.396 . S
C517 C518 1.394 . S
C518 C488 1.723 . S
C518 C514 1.397 . S
C518 C517 1.394 . S
C519 H491 0.982 . S
C519 H495 0.979 . S
C519 H496 0.977 . S
C519 C516 1.453 . S
C520 H492 0.979 . S
C520 H493 0.980 . S
C520 H494 0.983 . S
C520 C516 1.684 . S
H521 C539 0.948 . S
H522 C480 0.948 . S
H523 C498 0.979 . S
H524 C498 0.980 . S
H525 C498 0.983 . S
H526 C497 0.982 . S
H527 C497 0.979 . S
H528 C497 0.977 . S
H529 C499 0.948 . S
H530 C501 0.947 . S
H531 C502 0.948 . S
H532 C508 0.982 . S
H533 C508 0.979 . S
H534 C508 0.977 . S
H535 C509 0.979 . S
H536 C509 0.980 . S
H537 C509 0.983 . S
H538 C482 0.947 . S
C539 C482 1.392 . S
C539 C483 1.419 . S
C539 H521 0.948 . S
C540 C541 1.391 . S
C540 C544 1.391 . S
C540 H582 0.948 . S
C541 C540 1.391 . S
C541 C542 1.391 . S
C542 C541 1.391 . S
C542 H598 0.947 . S
C542 C599 1.392 . S
C543 C544 1.391 . S
C543 C547 1.397 . S
C543 C599 1.419 . S
C544 C540 1.391 . S
C544 C543 1.391 . S
C544 C545 1.399 . S
C545 C544 1.399 . S
C545 C548 1.396 . S
C545 C557 1.453 . S
C545 C558 1.684 . S
H546 C570 0.948 . S
C547 C543 1.397 . S
C547 C548 1.394 . S
C547 C566 1.723 . S
C548 C545 1.396 . S
C548 C547 1.394 . S
C548 C578 1.723 . S
H549 C572 0.947 . S
H550 C573 0.948 . S
H551 C579 0.982 . S
H552 C580 0.979 . S
H553 C580 0.980 . S
H554 C580 0.983 . S
H555 C579 0.979 . S
H556 C579 0.977 . S
C557 C545 1.453 . S
C557 H586 0.982 . S
C557 H587 0.979 . S
C557 H588 0.977 . S
C558 C545 1.684 . S
C558 H583 0.979 . S
C558 H584 0.980 . S
C558 H585 0.983 . S
C559 C560 1.391 . S
C559 C564 1.391 . S
C559 H589 0.948 . S
C560 C559 1.391 . S
C560 C561 1.391 . S
C561 C560 1.391 . S
C561 C562 1.392 . S
C561 H590 0.947 . S
C562 C561 1.392 . S
C562 C563 1.419 . S
C562 H591 0.948 . S
C563 C562 1.419 . S
C563 C564 1.391 . S
C563 C567 1.397 . S
C564 C559 1.391 . S
C564 C563 1.391 . S
C564 C565 1.399 . S
C565 C564 1.399 . S
C565 C566 1.396 . S
C565 C568 1.453 . S
C565 C569 1.684 . S
C566 C547 1.723 . S
C566 C565 1.396 . S
C566 C567 1.394 . S
C567 C563 1.397 . S
C567 C566 1.394 . S
C567 C577 1.723 . S
C568 C565 1.453 . S
C568 H592 0.982 . S
C568 H593 0.979 . S
C568 H594 0.977 . S
C569 C565 1.684 . S
C569 H595 0.979 . S
C569 H596 0.980 . S
C569 H597 0.983 . S
C570 H546 0.948 . S
C570 C571 1.391 . S
C570 C575 1.391 . S
C571 C570 1.391 . S
C571 C572 1.391 . S
C572 H549 0.947 . S
C572 C571 1.391 . S
C572 C573 1.392 . S
C573 H550 0.948 . S
C573 C572 1.392 . S
C573 C574 1.419 . S
C574 C573 1.419 . S
C574 C575 1.391 . S
C574 C578 1.397 . S
C575 C570 1.391 . S
C575 C574 1.391 . S
C575 C576 1.399 . S
C576 C575 1.399 . S
C576 C577 1.396 . S
C576 C579 1.453 . S
C576 C580 1.684 . S
C577 C567 1.723 . S
C577 C576 1.396 . S
C577 C578 1.394 . S
C578 C548 1.723 . S
C578 C574 1.397 . S
C578 C577 1.394 . S
C579 H551 0.982 . S
C579 H555 0.979 . S
C579 H556 0.977 . S
C579 C576 1.453 . S
C580 H552 0.979 . S
C580 H553 0.980 . S
C580 H554 0.983 . S
C580 C576 1.684 . S
H581 C599 0.948 . S
H582 C540 0.948 . S
H583 C558 0.979 . S
H584 C558 0.980 . S
H585 C558 0.983 . S
H586 C557 0.982 . S
H587 C557 0.979 . S
H588 C557 0.977 . S
H589 C559 0.948 . S
H590 C561 0.947 . S
H591 C562 0.948 . S
H592 C568 0.982 . S
H593 C568 0.979 . S
H594 C568 0.977 . S
H595 C569 0.979 . S
H596 C569 0.980 . S
H597 C569 0.983 . S
H598 C542 0.947 . S
C599 C542 1.392 . S
C599 C543 1.419 . S
C599 H581 0.948 . S
C600 C601 1.391 . S
C600 C604 1.391 . S
C600 H642 0.948 . S
C601 C600 1.391 . S
C601 C602 1.391 . S
C602 C601 1.391 . S
C602 H658 0.947 . S
C602 C659 1.392 . S
C603 C604 1.391 . S
C603 C607 1.397 . S
C603 C659 1.419 . S
C604 C600 1.391 . S
C604 C603 1.391 . S
C604 C605 1.399 . S
C605 C604 1.399 . S
C605 C608 1.396 . S
C605 C617 1.453 . S
C605 C618 1.684 . S
H606 C630 0.948 . S
C607 C603 1.397 . S
C607 C608 1.394 . S
C607 C626 1.723 . S
C608 C605 1.396 . S
C608 C607 1.394 . S
C608 C638 1.723 . S
H609 C632 0.947 . S
H610 C633 0.948 . S
H611 C639 0.982 . S
H612 C640 0.979 . S
H613 C640 0.980 . S
H614 C640 0.983 . S
H615 C639 0.979 . S
H616 C639 0.977 . S
C617 C605 1.453 . S
C617 H646 0.982 . S
C617 H647 0.979 . S
C617 H648 0.977 . S
C618 C605 1.684 . S
C618 H643 0.979 . S
C618 H644 0.980 . S
C618 H645 0.983 . S
C619 C620 1.391 . S
C619 C624 1.391 . S
C619 H649 0.948 . S
C620 C619 1.391 . S
C620 C621 1.391 . S
C621 C620 1.391 . S
C621 C622 1.392 . S
C621 H650 0.947 . S
C622 C621 1.392 . S
C622 C623 1.419 . S
C622 H651 0.948 . S
C623 C622 1.419 . S
C623 C624 1.391 . S
C623 C627 1.397 . S
C624 C619 1.391 . S
C624 C623 1.391 . S
C624 C625 1.399 . S
C625 C624 1.399 . S
C625 C626 1.396 . S
C625 C628 1.453 . S
C625 C629 1.684 . S
C626 C607 1.723 . S
C626 C625 1.396 . S
C626 C627 1.394 . S
C627 C623 1.397 . S
C627 C626 1.394 . S
C627 C637 1.723 . S
C628 C625 1.453 . S
C628 H652 0.982 . S
C628 H653 0.979 . S
C628 H654 0.977 . S
C629 C625 1.684 . S
C629 H655 0.979 . S
C629 H656 0.980 . S
C629 H657 0.983 . S
C630 H606 0.948 . S
C630 C631 1.391 . S
C630 C635 1.391 . S
C631 C630 1.391 . S
C631 C632 1.391 . S
C632 H609 0.947 . S
C632 C631 1.391 . S
C632 C633 1.392 . S
C633 H610 0.948 . S
C633 C632 1.392 . S
C633 C634 1.419 . S
C634 C633 1.419 . S
C634 C635 1.391 . S
C634 C638 1.397 . S
C635 C630 1.391 . S
C635 C634 1.391 . S
C635 C636 1.399 . S
C636 C635 1.399 . S
C636 C637 1.396 . S
C636 C639 1.453 . S
C636 C640 1.684 . S
C637 C627 1.723 . S
C637 C636 1.396 . S
C637 C638 1.394 . S
C638 C608 1.723 . S
C638 C634 1.397 . S
C638 C637 1.394 . S
C639 H611 0.982 . S
C639 H615 0.979 . S
C639 H616 0.977 . S
C639 C636 1.453 . S
C640 H612 0.979 . S
C640 H613 0.980 . S
C640 H614 0.983 . S
C640 C636 1.684 . S
H641 C659 0.948 . S
H642 C600 0.948 . S
H643 C618 0.979 . S
H644 C618 0.980 . S
H645 C618 0.983 . S
H646 C617 0.982 . S
H647 C617 0.979 . S
H648 C617 0.977 . S
H649 C619 0.948 . S
H650 C621 0.947 . S
H651 C622 0.948 . S
H652 C628 0.982 . S
H653 C628 0.979 . S
H654 C628 0.977 . S
H655 C629 0.979 . S
H656 C629 0.980 . S
H657 C629 0.983 . S
H658 C602 0.947 . S
C659 C602 1.392 . S
C659 C603 1.419 . S
C659 H641 0.948 . S
C660 C661 1.391 . S
C660 C664 1.391 . S
C660 H702 0.948 . S
C661 C660 1.391 . S
C661 C662 1.391 . S
C662 C661 1.391 . S
C662 H718 0.947 . S
C662 C719 1.392 . S
C663 C664 1.391 . S
C663 C667 1.397 . S
C663 C719 1.419 . S
C664 C660 1.391 . S
C664 C663 1.391 . S
C664 C665 1.399 . S
C665 C664 1.399 . S
C665 C668 1.396 . S
C665 C677 1.453 . S
C665 C678 1.684 . S
H666 C690 0.948 . S
C667 C663 1.397 . S
C667 C668 1.394 . S
C667 C686 1.723 . S
C668 C665 1.396 . S
C668 C667 1.394 . S
C668 C698 1.723 . S
H669 C692 0.947 . S
H670 C693 0.948 . S
H671 C699 0.982 . S
H672 C700 0.979 . S
H673 C700 0.980 . S
H674 C700 0.983 . S
H675 C699 0.979 . S
H676 C699 0.977 . S
C677 C665 1.453 . S
C677 H706 0.982 . S
C677 H707 0.979 . S
C677 H708 0.977 . S
C678 C665 1.684 . S
C678 H703 0.979 . S
C678 H704 0.980 . S
C678 H705 0.983 . S
C679 C680 1.391 . S
C679 C684 1.391 . S
C679 H709 0.948 . S
C680 C679 1.391 . S
C680 C681 1.391 . S
C681 C680 1.391 . S
C681 C682 1.392 . S
C681 H710 0.947 . S
C682 C681 1.392 . S
C682 C683 1.419 . S
C682 H711 0.948 . S
C683 C682 1.419 . S
C683 C684 1.391 . S
C683 C687 1.397 . S
C684 C679 1.391 . S
C684 C683 1.391 . S
C684 C685 1.399 . S
C685 C684 1.399 . S
C685 C686 1.396 . S
C685 C688 1.453 . S
C685 C689 1.684 . S
C686 C667 1.723 . S
C686 C685 1.396 . S
C686 C687 1.394 . S
C687 C683 1.397 . S
C687 C686 1.394 . S
C687 C697 1.723 . S
C688 C685 1.453 . S
C688 H712 0.982 . S
C688 H713 0.979 . S
C688 H714 0.977 . S
C689 C685 1.684 . S
C689 H715 0.979 . S
C689 H716 0.980 . S
C689 H717 0.983 . S
C690 H666 0.948 . S
C690 C691 1.391 . S
C690 C695 1.391 . S
C691 C690 1.391 . S
C691 C692 1.391 . S
C692 H669 0.947 . S
C692 C691 1.391 . S
C692 C693 1.392 . S
C693 H670 0.948 . S
C693 C692 1.392 . S
C693 C694 1.419 . S
C694 C693 1.419 . S
C694 C695 1.391 . S
C694 C698 1.397 . S
C695 C690 1.391 . S
C695 C694 1.391 . S
C695 C696 1.399 . S
C696 C695 1.399 . S
C696 C697 1.396 . S
C696 C699 1.453 . S
C696 C700 1.684 . S
C697 C687 1.723 . S
C697 C696 1.396 . S
C697 C698 1.394 . S
C698 C668 1.723 . S
C698 C694 1.397 . S
C698 C697 1.394 . S
C699 H671 0.982 . S
C699 H675 0.979 . S
C699 H676 0.977 . S
C699 C696 1.453 . S
C700 H672 0.979 . S
C700 H673 0.980 . S
C700 H674 0.983 . S
C700 C696 1.684 . S
H701 C719 0.948 . S
H702 C660 0.948 . S
H703 C678 0.979 . S
H704 C678 0.980 . S
H705 C678 0.983 . S
H706 C677 0.982 . S
H707 C677 0.979 . S
H708 C677 0.977 . S
H709 C679 0.948 . S
H710 C681 0.947 . S
H711 C682 0.948 . S
H712 C688 0.982 . S
H713 C688 0.979 . S
H714 C688 0.977 . S
H715 C689 0.979 . S
H716 C689 0.980 . S
H717 C689 0.983 . S
H718 C662 0.947 . S
C719 C662 1.392 . S
C719 C663 1.419 . S
C719 H701 0.948 . S
C720 C721 1.391 . S
C720 C724 1.391 . S
C720 H762 0.948 . S
C721 C720 1.391 . S
C721 C722 1.391 . S
C722 C721 1.391 . S
C722 H778 0.947 . S
C722 C779 1.392 . S
C723 C724 1.391 . S
C723 C727 1.397 . S
C723 C779 1.419 . S
C724 C720 1.391 . S
C724 C723 1.391 . S
C724 C725 1.399 . S
C725 C724 1.399 . S
C725 C728 1.396 . S
C725 C737 1.453 . S
C725 C738 1.684 . S
H726 C750 0.948 . S
C727 C723 1.397 . S
C727 C728 1.394 . S
C727 C746 1.723 . S
C728 C725 1.396 . S
C728 C727 1.394 . S
C728 C758 1.723 . S
H729 C752 0.947 . S
H730 C753 0.948 . S
H731 C759 0.982 . S
H732 C760 0.979 . S
H733 C760 0.980 . S
H734 C760 0.983 . S
H735 C759 0.979 . S
H736 C759 0.977 . S
C737 C725 1.453 . S
C737 H766 0.982 . S
C737 H767 0.979 . S
C737 H768 0.977 . S
C738 C725 1.684 . S
C738 H763 0.979 . S
C738 H764 0.980 . S
C738 H765 0.983 . S
C739 C740 1.391 . S
C739 C744 1.391 . S
C739 H769 0.948 . S
C740 C739 1.391 . S
C740 C741 1.391 . S
C741 C740 1.391 . S
C741 C742 1.392 . S
C741 H770 0.947 . S
C742 C741 1.392 . S
C742 C743 1.419 . S
C742 H771 0.948 . S
C743 C742 1.419 . S
C743 C744 1.391 . S
C743 C747 1.397 . S
C744 C739 1.391 . S
C744 C743 1.391 . S
C744 C745 1.399 . S
C745 C744 1.399 . S
C745 C746 1.396 . S
C745 C748 1.453 . S
C745 C749 1.684 . S
C746 C727 1.723 . S
C746 C745 1.396 . S
C746 C747 1.394 . S
C747 C743 1.397 . S
C747 C746 1.394 . S
C747 C757 1.723 . S
C748 C745 1.453 . S
C748 H772 0.982 . S
C748 H773 0.979 . S
C748 H774 0.977 . S
C749 C745 1.684 . S
C749 H775 0.979 . S
C749 H776 0.980 . S
C749 H777 0.983 . S
C750 H726 0.948 . S
C750 C751 1.391 . S
C750 C755 1.391 . S
C751 C750 1.391 . S
C751 C752 1.391 . S
C752 H729 0.947 . S
C752 C751 1.391 . S
C752 C753 1.392 . S
C753 H730 0.948 . S
C753 C752 1.392 . S
C753 C754 1.419 . S
C754 C753 1.419 . S
C754 C755 1.391 . S
C754 C758 1.397 . S
C755 C750 1.391 . S
C755 C754 1.391 . S
C755 C756 1.399 . S
C756 C755 1.399 . S
C756 C757 1.396 . S
C756 C759 1.453 . S
C756 C760 1.684 . S
C757 C747 1.723 . S
C757 C756 1.396 . S
C757 C758 1.394 . S
C758 C728 1.723 . S
C758 C754 1.397 . S
C758 C757 1.394 . S
C759 H731 0.982 . S
C759 H735 0.979 . S
C759 H736 0.977 . S
C759 C756 1.453 . S
C760 H732 0.979 . S
C760 H733 0.980 . S
C760 H734 0.983 . S
C760 C756 1.684 . S
H761 C779 0.948 . S
H762 C720 0.948 . S
H763 C738 0.979 . S
H764 C738 0.980 . S
H765 C738 0.983 . S
H766 C737 0.982 . S
H767 C737 0.979 . S
H768 C737 0.977 . S
H769 C739 0.948 . S
H770 C741 0.947 . S
H771 C742 0.948 . S
H772 C748 0.982 . S
H773 C748 0.979 . S
H774 C748 0.977 . S
H775 C749 0.979 . S
H776 C749 0.980 . S
H777 C749 0.983 . S
H778 C722 0.947 . S
C779 C722 1.392 . S
C779 C723 1.419 . S
C779 H761 0.948 . S
C780 C781 1.391 . S
C780 C784 1.391 . S
C780 H822 0.948 . S
C781 C780 1.391 . S
C781 C782 1.391 . S
C782 C781 1.391 . S
C782 H838 0.947 . S
C782 C839 1.392 . S
C783 C784 1.391 . S
C783 C787 1.397 . S
C783 C839 1.419 . S
C784 C780 1.391 . S
C784 C783 1.391 . S
C784 C785 1.399 . S
C785 C784 1.399 . S
C785 C788 1.396 . S
C785 C797 1.453 . S
C785 C798 1.684 . S
H786 C810 0.948 . S
C787 C783 1.397 . S
C787 C788 1.394 . S
C787 C806 1.723 . S
C788 C785 1.396 . S
C788 C787 1.394 . S
C788 C818 1.723 . S
H789 C812 0.947 . S
H790 C813 0.948 . S
H791 C819 0.982 . S
H792 C820 0.979 . S
H793 C820 0.980 . S
H794 C820 0.983 . S
H795 C819 0.979 . S
H796 C819 0.977 . S
C797 C785 1.453 . S
C797 H826 0.982 . S
C797 H827 0.979 . S
C797 H828 0.977 . S
C798 C785 1.684 . S
C798 H823 0.979 . S
C798 H824 0.980 . S
C798 H825 0.983 . S
C799 C800 1.391 . S
C799 C804 1.391 . S
C799 H829 0.948 . S
C800 C799 1.391 . S
C800 C801 1.391 . S
C801 C800 1.391 . S
C801 C802 1.392 . S
C801 H830 0.947 . S
C802 C801 1.392 . S
C802 C803 1.419 . S
C802 H831 0.948 . S
C803 C802 1.419 . S
C803 C804 1.391 . S
C803 C807 1.397 . S
C804 C799 1.391 . S
C804 C803 1.391 . S
C804 C805 1.399 . S
C805 C804 1.399 . S
C805 C806 1.396 . S
C805 C808 1.453 . S
C805 C809 1.684 . S
C806 C787 1.723 . S
C806 C805 1.396 . S
C806 C807 1.394 . S
C807 C803 1.397 . S
C807 C806 1.394 . S
C807 C817 1.723 . S
C808 C805 1.453 . S
C808 H832 0.982 . S
C808 H833 0.979 . S
C808 H834 0.977 . S
C809 C805 1.684 . S
C809 H835 0.979 . S
C809 H836 0.980 . S
C809 H837 0.983 . S
C810 H786 0.948 . S
C810 C811 1.391 . S
C810 C815 1.391 . S
C811 C810 1.391 . S
C811 C812 1.391 . S
C812 H789 0.947 . S
C812 C811 1.391 . S
C812 C813 1.392 . S
C813 H790 0.948 . S
C813 C812 1.392 . S
C813 C814 1.419 . S
C814 C813 1.419 . S
C814 C815 1.391 . S
C814 C818 1.397 . S
C815 C810 1.391 . S
C815 C814 1.391 . S
C815 C816 1.399 . S
C816 C815 1.399 . S
C816 C817 1.396 . S
C816 C819 1.453 . S
C816 C820 1.684 . S
C817 C807 1.723 . S
C817 C816 1.396 . S
C817 C818 1.394 . S
C818 C788 1.723 . S
C818 C814 1.397 . S
C818 C817 1.394 . S
C819 H791 0.982 . S
C819 H795 0.979 . S
C819 H796 0.977 . S
C819 C816 1.453 . S
C820 H792 0.979 . S
C820 H793 0.980 . S
C820 H794 0.983 . S
C820 C816 1.684 . S
H821 C839 0.948 . S
H822 C780 0.948 . S
H823 C798 0.979 . S
H824 C798 0.980 . S
H825 C798 0.983 . S
H826 C797 0.982 . S
H827 C797 0.979 . S
H828 C797 0.977 . S
H829 C799 0.948 . S
H830 C801 0.947 . S
H831 C802 0.948 . S
H832 C808 0.982 . S
H833 C808 0.979 . S
H834 C808 0.977 . S
H835 C809 0.979 . S
H836 C809 0.980 . S
H837 C809 0.983 . S
H838 C782 0.947 . S
C839 C782 1.392 . S
C839 C783 1.419 . S
C839 H821 0.948 . S
C840 C841 1.391 . S
C840 C844 1.391 . S
C840 H882 0.948 . S
C841 C840 1.391 . S
C841 C842 1.391 . S
C842 C841 1.391 . S
C842 H898 0.947 . S
C842 C899 1.392 . S
C843 C844 1.391 . S
C843 C847 1.397 . S
C843 C899 1.419 . S
C844 C840 1.391 . S
C844 C843 1.391 . S
C844 C845 1.399 . S
C845 C844 1.399 . S
C845 C848 1.396 . S
C845 C857 1.453 . S
C845 C858 1.684 . S
H846 C870 0.948 . S
C847 C843 1.397 . S
C847 C848 1.394 . S
C847 C866 1.723 . S
C848 C845 1.396 . S
C848 C847 1.394 . S
C848 C878 1.723 . S
H849 C872 0.947 . S
H850 C873 0.948 . S
H851 C879 0.982 . S
H852 C880 0.979 . S
H853 C880 0.980 . S
H854 C880 0.983 . S
H855 C879 0.979 . S
H856 C879 0.977 . S
C857 C845 1.453 . S
C857 H886 0.982 . S
C857 H887 0.979 . S
C857 H888 0.977 . S
C858 C845 1.684 . S
C858 H883 0.979 . S
C858 H884 0.980 . S
C858 H885 0.983 . S
C859 C860 1.391 . S
C859 C864 1.391 . S
C859 H889 0.948 . S
C860 C859 1.391 . S
C860 C861 1.391 . S
C861 C860 1.391 . S
C861 C862 1.392 . S
C861 H890 0.947 . S
C862 C861 1.392 . S
C862 C863 1.419 . S
C862 H891 0.948 . S
C863 C862 1.419 . S
C863 C864 1.391 . S
C863 C867 1.397 . S
C864 C859 1.391 . S
C864 C863 1.391 . S
C864 C865 1.399 . S
C865 C864 1.399 . S
C865 C866 1.396 . S
C865 C868 1.453 . S
C865 C869 1.684 . S
C866 C847 1.723 . S
C866 C865 1.396 . S
C866 C867 1.394 . S
C867 C863 1.397 . S
C867 C866 1.394 . S
C867 C877 1.723 . S
C868 C865 1.453 . S
C868 H892 0.982 . S
C868 H893 0.979 . S
C868 H894 0.977 . S
C869 C865 1.684 . S
C869 H895 0.979 . S
C869 H896 0.980 . S
C869 H897 0.983 . S
C870 H846 0.948 . S
C870 C871 1.391 . S
C870 C875 1.391 . S
C871 C870 1.391 . S
C871 C872 1.391 . S
C872 H849 0.947 . S
C872 C871 1.391 . S
C872 C873 1.392 . S
C873 H850 0.948 . S
C873 C872 1.392 . S
C873 C874 1.419 . S
C874 C873 1.419 . S
C874 C875 1.391 . S
C874 C878 1.397 . S
C875 C870 1.391 . S
C875 C874 1.391 . S
C875 C876 1.399 . S
C876 C875 1.399 . S
C876 C877 1.396 . S
C876 C879 1.453 . S
C876 C880 1.684 . S
C877 C867 1.723 . S
C877 C876 1.396 . S
C877 C878 1.394 . S
C878 C848 1.723 . S
C878 C874 1.397 . S
C878 C877 1.394 . S
C879 H851 0.982 . S
C879 H855 0.979 . S
C879 H856 0.977 . S
C879 C876 1.453 . S
C880 H852 0.979 . S
C880 H853 0.980 . S
C880 H854 0.983 . S
C880 C876 1.684 . S
H881 C899 0.948 . S
H882 C840 0.948 . S
H883 C858 0.979 . S
H884 C858 0.980 . S
H885 C858 0.983 . S
H886 C857 0.982 . S
H887 C857 0.979 . S
H888 C857 0.977 . S
H889 C859 0.948 . S
H890 C861 0.947 . S
H891 C862 0.948 . S
H892 C868 0.982 . S
H893 C868 0.979 . S
H894 C868 0.977 . S
H895 C869 0.979 . S
H896 C869 0.980 . S
H897 C869 0.983 . S
H898 C842 0.947 . S
C899 C842 1.392 . S
C899 C843 1.419 . S
C899 H881 0.948 . S
C900 C901 1.391 . S
C900 C904 1.391 . S
C900 H942 0.948 . S
C901 C900 1.391 . S
C901 C902 1.391 . S
C902 C901 1.391 . S
C902 H958 0.947 . S
C902 C959 1.392 . S
C903 C904 1.391 . S
C903 C907 1.397 . S
C903 C959 1.419 . S
C904 C900 1.391 . S
C904 C903 1.391 . S
C904 C905 1.399 . S
C905 C904 1.399 . S
C905 C908 1.396 . S
C905 C917 1.453 . S
C905 C918 1.684 . S
H906 C930 0.948 . S
C907 C903 1.397 . S
C907 C908 1.394 . S
C907 C926 1.723 . S
C908 C905 1.396 . S
C908 C907 1.394 . S
C908 C938 1.723 . S
H909 C932 0.947 . S
H910 C933 0.948 . S
H911 C939 0.982 . S
H912 C940 0.979 . S
H913 C940 0.980 . S
H914 C940 0.983 . S
H915 C939 0.979 . S
H916 C939 0.977 . S
C917 C905 1.453 . S
C917 H946 0.982 . S
C917 H947 0.979 . S
C917 H948 0.977 . S
C918 C905 1.684 . S
C918 H943 0.979 . S
C918 H944 0.980 . S
C918 H945 0.983 . S
C919 C920 1.391 . S
C919 C924 1.391 . S
C919 H949 0.948 . S
C920 C919 1.391 . S
C920 C921 1.391 . S
C921 C920 1.391 . S
C921 C922 1.392 . S
C921 H950 0.947 . S
C922 C921 1.392 . S
C922 C923 1.419 . S
C922 H951 0.948 . S
C923 C922 1.419 . S
C923 C924 1.391 . S
C923 C927 1.397 . S
C924 C919 1.391 . S
C924 C923 1.391 . S
C924 C925 1.399 . S
C925 C924 1.399 . S
C925 C926 1.396 . S
C925 C928 1.453 . S
C925 C929 1.684 . S
C926 C907 1.723 . S
C926 C925 1.396 . S
C926 C927 1.394 . S
C927 C923 1.397 . S
C927 C926 1.394 . S
C927 C937 1.723 . S
C928 C925 1.453 . S
C928 H952 0.982 . S
C928 H953 0.979 . S
C928 H954 0.977 . S
C929 C925 1.684 . S
C929 H955 0.979 . S
C929 H956 0.980 . S
C929 H957 0.983 . S
C930 H906 0.948 . S
C930 C931 1.391 . S
C930 C935 1.391 . S
C931 C930 1.391 . S
C931 C932 1.391 . S
C932 H909 0.947 . S
C932 C931 1.391 . S
C932 C933 1.392 . S
C933 H910 0.948 . S
C933 C932 1.392 . S
C933 C934 1.419 . S
C934 C933 1.419 . S
C934 C935 1.391 . S
C934 C938 1.397 . S
C935 C930 1.391 . S
C935 C934 1.391 . S
C935 C936 1.399 . S
C936 C935 1.399 . S
C936 C937 1.396 . S
C936 C939 1.453 . S
C936 C940 1.684 . S
C937 C927 1.723 . S
C937 C936 1.396 . S
C937 C938 1.394 . S
C938 C908 1.723 . S
C938 C934 1.397 . S
C938 C937 1.394 . S
C939 H911 0.982 . S
C939 H915 0.979 . S
C939 H916 0.977 . S
C939 C936 1.453 . S
C940 H912 0.979 . S
C940 H913 0.980 . S
C940 H914 0.983 . S
C940 C936 1.684 . S
H941 C959 0.948 . S
H942 C900 0.948 . S
H943 C918 0.979 . S
H944 C918 0.980 . S
H945 C918 0.983 . S
H946 C917 0.982 . S
H947 C917 0.979 . S
H948 C917 0.977 . S
H949 C919 0.948 . S
H950 C921 0.947 . S
H951 C922 0.948 . S
H952 C928 0.982 . S
H953 C928 0.979 . S
H954 C928 0.977 . S
H955 C929 0.979 . S
H956 C929 0.980 . S
H957 C929 0.983 . S
H958 C902 0.947 . S
C959 C902 1.392 . S
C959 C903 1.419 . S
C959 H941 0.948 . S
C960 C961 1.391 . S
C960 C964 1.391 . S
C960 H1002 0.948 . S
C961 C960 1.391 . S
C961 C962 1.391 . S
C962 C961 1.391 . S
C962 H1018 0.947 . S
C962 C1019 1.392 . S
C963 C964 1.391 . S
C963 C967 1.397 . S
C963 C1019 1.419 . S
C964 C960 1.391 . S
C964 C963 1.391 . S
C964 C965 1.399 . S
C965 C964 1.399 . S
C965 C968 1.396 . S
C965 C977 1.453 . S
C965 C978 1.684 . S
H966 C990 0.948 . S
C967 C963 1.397 . S
C967 C968 1.394 . S
C967 C986 1.723 . S
C968 C965 1.396 . S
C968 C967 1.394 . S
C968 C998 1.723 . S
H969 C992 0.947 . S
H970 C993 0.948 . S
H971 C999 0.982 . S
H972 C1000 0.979 . S
H973 C1000 0.980 . S
H974 C1000 0.983 . S
H975 C999 0.979 . S
H976 C999 0.977 . S
C977 C965 1.453 . S
C977 H1006 0.982 . S
C977 H1007 0.979 . S
C977 H1008 0.977 . S
C978 C965 1.684 . S
C978 H1003 0.979 . S
C978 H1004 0.980 . S
C978 H1005 0.983 . S
C979 C980 1.391 . S
C979 C984 1.391 . S
C979 H1009 0.948 . S
C980 C979 1.391 . S
C980 C981 1.391 . S
C981 C980 1.391 . S
C981 C982 1.392 . S
C981 H1010 0.947 . S
C982 C981 1.392 . S
C982 C983 1.419 . S
C982 H1011 0.948 . S
C983 C982 1.419 . S
C983 C984 1.391 . S
C983 C987 1.397 . S
C984 C979 1.391 . S
C984 C983 1.391 . S
C984 C985 1.399 . S
C985 C984 1.399 . S
C985 C986 1.396 . S
C985 C988 1.453 . S
C985 C989 1.684 . S
C986 C967 1.723 . S
C986 C985 1.396 . S
C986 C987 1.394 . S
C987 C983 1.397 . S
C987 C986 1.394 . S
C987 C997 1.723 . S
C988 C985 1.453 . S
C988 H1012 0.982 . S
C988 H1013 0.979 . S
C988 H1014 0.977 . S
C989 C985 1.684 . S
C989 H1015 0.979 . S
C989 H1016 0.980 . S
C989 H1017 0.983 . S
C990 H966 0.948 . S
C990 C991 1.391 . S
C990 C995 1.391 . S
C991 C990 1.391 . S
C991 C992 1.391 . S
C992 H969 0.947 . S
C992 C991 1.391 . S
C992 C993 1.392 . S
C993 H970 0.948 . S
C993 C992 1.392 . S
C993 C994 1.419 . S
C994 C993 1.419 . S
C994 C995 1.391 . S
C994 C998 1.397 . S
C995 C990 1.391 . S
C995 C994 1.391 . S
C995 C996 1.399 . S
C996 C995 1.399 . S
C996 C997 1.396 . S
C996 C999 1.453 . S
C996 C1000 1.684 . S
C997 C987 1.723 . S
C997 C996 1.396 . S
C997 C998 1.394 . S
C998 C968 1.723 . S
C998 C994 1.397 . S
C998 C997 1.394 . S
C999 H971 0.982 . S
C999 H975 0.979 . S
C999 H976 0.977 . S
C999 C996 1.453 . S
C1000 H972 0.979 . S
C1000 H973 0.980 . S
C1000 H974 0.983 . S
C1000 C996 1.684 . S
H1001 C1019 0.948 . S
H1002 C960 0.948 . S
H1003 C978 0.979 . S
H1004 C978 0.980 . S
H1005 C978 0.983 . S
H1006 C977 0.982 . S
H1007 C977 0.979 . S
H1008 C977 0.977 . S
H1009 C979 0.948 . S
H1010 C981 0.947 . S
H1011 C982 0.948 . S
H1012 C988 0.982 . S
H1013 C988 0.979 . S
H1014 C988 0.977 . S
H1015 C989 0.979 . S
H1016 C989 0.980 . S
H1017 C989 0.983 . S
H1018 C962 0.947 . S
C1019 C962 1.392 . S
C1019 C963 1.419 . S
C1019 H1001 0.948 . S
C1020 C1021 1.391 . S
C1020 C1024 1.391 . S
C1020 H1062 0.948 . S
C1021 C1020 1.391 . S
C1021 C1022 1.391 . S
C1022 C1021 1.391 . S
C1022 H1078 0.947 . S
C1022 C1079 1.392 . S
C1023 C1024 1.391 . S
C1023 C1027 1.397 . S
C1023 C1079 1.419 . S
C1024 C1020 1.391 . S
C1024 C1023 1.391 . S
C1024 C1025 1.399 . S
C1025 C1024 1.399 . S
C1025 C1028 1.396 . S
C1025 C1037 1.453 . S
C1025 C1038 1.684 . S
H1026 C1050 0.948 . S
C1027 C1023 1.397 . S
C1027 C1028 1.394 . S
C1027 C1046 1.723 . S
C1028 C1025 1.396 . S
C1028 C1027 1.394 . S
C1028 C1058 1.723 . S
H1029 C1052 0.947 . S
H1030 C1053 0.948 . S
H1031 C1059 0.982 . S
H1032 C1060 0.979 . S
H1033 C1060 0.980 . S
H1034 C1060 0.983 . S
H1035 C1059 0.979 . S
H1036 C1059 0.977 . S
C1037 C1025 1.453 . S
C1037 H1066 0.982 . S
C1037 H1067 0.979 . S
C1037 H1068 0.977 . S
C1038 C1025 1.684 . S
C1038 H1063 0.979 . S
C1038 H1064 0.980 . S
C1038 H1065 0.983 . S
C1039 C1040 1.391 . S
C1039 C1044 1.391 . S
C1039 H1069 0.948 . S
C1040 C1039 1.391 . S
C1040 C1041 1.391 . S
C1041 C1040 1.391 . S
C1041 C1042 1.392 . S
C1041 H1070 0.947 . S
C1042 C1041 1.392 . S
C1042 C1043 1.419 . S
C1042 H1071 0.948 . S
C1043 C1042 1.419 . S
C1043 C1044 1.391 . S
C1043 C1047 1.397 . S
C1044 C1039 1.391 . S
C1044 C1043 1.391 . S
C1044 C1045 1.399 . S
C1045 C1044 1.399 . S
C1045 C1046 1.396 . S
C1045 C1048 1.453 . S
C1045 C1049 1.684 . S
C1046 C1027 1.723 . S
C1046 C1045 1.396 . S
C1046 C1047 1.394 . S
C1047 C1043 1.397 . S
C1047 C1046 1.394 . S
C1047 C1057 1.723 . S
C1048 C1045 1.453 . S
C1048 H1072 0.982 . S
C1048 H1073 0.979 . S
C1048 H1074 0.977 . S
C1049 C1045 1.684 . S
C1049 H1075 0.979 . S
C1049 H1076 0.980 . S
C1049 H1077 0.983 . S
C1050 H1026 0.948 . S
C1050 C1051 1.391 . S
C1050 C1055 1.391 . S
C1051 C1050 1.391 . S
C1051 C1052 1.391 . S
C1052 H1029 0.947 . S
C1052 C1051 1.391 . S
C1052 C1053 1.392 . S
C1053 H1030 0.948 . S
C1053 C1052 1.392 . S
C1053 C1054 1.419 . S
C1054 C1053 1.419 . S
C1054 C1055 1.391 . S
C1054 C1058 1.397 . S
C1055 C1050 1.391 . S
C1055 C1054 1.391 . S
C1055 C1056 1.399 . S
C1056 C1055 1.399 . S
C1056 C1057 1.396 . S
C1056 C1059 1.453 . S
C1056 C1060 1.684 . S
C1057 C1047 1.723 . S
C1057 C1056 1.396 . S
C1057 C1058 1.394 . S
C1058 C1028 1.723 . S
C1058 C1054 1.397 . S
C1058 C1057 1.394 . S
C1059 H1031 0.982 . S
C1059 H1035 0.979 . S
C1059 H1036 0.977 . S
C1059 C1056 1.453 . S
C1060 H1032 0.979 . S
C1060 H1033 0.980 . S
C1060 H1034 0.983 . S
C1060 C1056 1.684 . S
H1061 C1079 0.948 . S
H1062 C1020 0.948 . S
H1063 C1038 0.979 . S
H1064 C1038 0.980 . S
H1065 C1038 0.983 . S
H1066 C1037 0.982 . S
H1067 C1037 0.979 . S
H1068 C1037 0.977 . S
H1069 C1039 0.948 . S
H1070 C1041 0.947 . S
H1071 C1042 0.948 . S
H1072 C1048 0.982 . S
H1073 C1048 0.979 . S
H1074 C1048 0.977 . S
H1075 C1049 0.979 . S
H1076 C1049 0.980 . S
H1077 C1049 0.983 . S
H1078 C1022 0.947 . S
C1079 C1022 1.392 . S
C1079 C1023 1.419 . S
C1079 H1061 0.948 . S
C1080 C1081 1.391 . S
C1080 C1084 1.391 . S
C1080 H1122 0.948 . S
C1081 C1080 1.391 . S
C1081 C1082 1.391 . S
C1082 C1081 1.391 . S
C1082 H1138 0.947 . S
C1082 C1139 1.392 . S
C1083 C1084 1.391 . S
C1083 C1087 1.397 . S
C1083 C1139 1.419 . S
C1084 C1080 1.391 . S
C1084 C1083 1.391 . S
C1084 C1085 1.399 . S
C1085 C1084 1.399 . S
C1085 C1088 1.396 . S
C1085 C1097 1.453 . S
C1085 C1098 1.684 . S
H1086 C1110 0.948 . S
C1087 C1083 1.397 . S
C1087 C1088 1.394 . S
C1087 C1106 1.723 . S
C1088 C1085 1.396 . S
C1088 C1087 1.394 . S
C1088 C1118 1.723 . S
H1089 C1112 0.947 . S
H1090 C1113 0.948 . S
H1091 C1119 0.982 . S
H1092 C1120 0.979 . S
H1093 C1120 0.980 . S
H1094 C1120 0.983 . S
H1095 C1119 0.979 . S
H1096 C1119 0.977 . S
C1097 C1085 1.453 . S
C1097 H1126 0.982 . S
C1097 H1127 0.979 . S
C1097 H1128 0.977 . S
C1098 C1085 1.684 . S
C1098 H1123 0.979 . S
C1098 H1124 0.980 . S
C1098 H1125 0.983 . S
C1099 C1100 1.391 . S
C1099 C1104 1.391 . S
C1099 H1129 0.948 . S
C1100 C1099 1.391 . S
C1100 C1101 1.391 . S
C1101 C1100 1.391 . S
C1101 C1102 1.392 . S
C1101 H1130 0.947 . S
C1102 C1101 1.392 . S
C1102 C1103 1.419 . S
C1102 H1131 0.948 . S
C1103 C1102 1.419 . S
C1103 C1104 1.391 . S
C1103 C1107 1.397 . S
C1104 C1099 1.391 . S
C1104 C1103 1.391 . S
C1104 C1105 1.399 . S
C1105 C1104 1.399 . S
C1105 C1106 1.396 . S
C1105 C1108 1.453 . S
C1105 C1109 1.684 . S
C1106 C1087 1.723 . S
C1106 C1105 1.396 . S
C1106 C1107 1.394 . S
C1107 C1103 1.397 . S
C1107 C1106 1.394 . S
C1107 C1117 1.723 . S
C1108 C1105 1.453 . S
C1108 H1132 0.982 . S
C1108 H1133 0.979 . S
C1108 H1134 0.977 . S
C1109 C1105 1.684 . S
C1109 H1135 0.979 . S
C1109 H1136 0.980 . S
C1109 H1137 0.983 . S
C1110 H1086 0.948 . S
C1110 C1111 1.391 . S
C1110 C1115 1.391 . S
C1111 C1110 1.391 . S
C1111 C1112 1.391 . S
C1112 H1089 0.947 . S
C1112 C1111 1.391 . S
C1112 C1113 1.392 . S
C1113 H1090 0.948 . S
C1113 C1112 1.392 . S
C1113 C1114 1.419 . S
C1114 C1113 1.419 . S
C1114 C1115 1.391 . S
C1114 C1118 1.397 . S
C1115 C1110 1.391 . S
C1115 C1114 1.391 . S
C1115 C1116 1.399 . S
C1116 C1115 1.399 . S
C1116 C1117 1.396 . S
C1116 C1119 1.453 . S
C1116 C1120 1.684 . S
C1117 C1107 1.723 . S
C1117 C1116 1.396 . S
C1117 C1118 1.394 . S
C1118 C1088 1.723 . S
C1118 C1114 1.397 . S
C1118 C1117 1.394 . S
C1119 H1091 0.982 . S
C1119 H1095 0.979 . S
C1119 H1096 0.977 . S
C1119 C1116 1.453 . S
C1120 H1092 0.979 . S
C1120 H1093 0.980 . S
C1120 H1094 0.983 . S
C1120 C1116 1.684 . S
H1121 C1139 0.948 . S
H1122 C1080 0.948 . S
H1123 C1098 0.979 . S
H1124 C1098 0.980 . S
H1125 C1098 0.983 . S
H1126 C1097 0.982 . S
H1127 C1097 0.979 . S
H1128 C1097 0.977 . S
H1129 C1099 0.948 . S
H1130 C1101 0.947 . S
H1131 C1102 0.948 . S
H1132 C1108 0.982 . S
H1133 C1108 0.979 . S
H1134 C1108 0.977 . S
H1135 C1109 0.979 . S
H1136 C1109 0.980 . S
H1137 C1109 0.983 . S
H1138 C1082 0.947 . S
C1139 C1082 1.392 . S
C1139 C1083 1.419 . S
C1139 H1121 0.948 . S
C1140 C1141 1.391 . S
C1140 C1144 1.391 . S
C1140 H1182 0.948 . S
C1141 C1140 1.391 . S
C1141 C1142 1.391 . S
C1142 C1141 1.391 . S
C1142 H1198 0.947 . S
C1142 C1199 1.392 . S
C1143 C1144 1.391 . S
C1143 C1147 1.397 . S
C1143 C1199 1.419 . S
C1144 C1140 1.391 . S
C1144 C1143 1.391 . S
C1144 C1145 1.399 . S
C1145 C1144 1.399 . S
C1145 C1148 1.396 . S
C1145 C1157 1.453 . S
C1145 C1158 1.684 . S
H1146 C1170 0.948 . S
C1147 C1143 1.397 . S
C1147 C1148 1.394 . S
C1147 C1166 1.723 . S
C1148 C1145 1.396 . S
C1148 C1147 1.394 . S
C1148 C1178 1.723 . S
H1149 C1172 0.947 . S
H1150 C1173 0.948 . S
H1151 C1179 0.982 . S
H1152 C1180 0.979 . S
H1153 C1180 0.980 . S
H1154 C1180 0.983 . S
H1155 C1179 0.979 . S
H1156 C1179 0.977 . S
C1157 C1145 1.453 . S
C1157 H1186 0.982 . S
C1157 H1187 0.979 . S
C1157 H1188 0.977 . S
C1158 C1145 1.684 . S
C1158 H1183 0.979 . S
C1158 H1184 0.980 . S
C1158 H1185 0.983 . S
C1159 C1160 1.391 . S
C1159 C1164 1.391 . S
C1159 H1189 0.948 . S
C1160 C1159 1.391 . S
C1160 C1161 1.391 . S
C1161 C1160 1.391 . S
C1161 C1162 1.392 . S
C1161 H1190 0.947 . S
C1162 C1161 1.392 . S
C1162 C1163 1.419 . S
C1162 H1191 0.948 . S
C1163 C1162 1.419 . S
C1163 C1164 1.391 . S
C1163 C1167 1.397 . S
C1164 C1159 1.391 . S
C1164 C1163 1.391 . S
C1164 C1165 1.399 . S
C1165 C1164 1.399 . S
C1165 C1166 1.396 . S
C1165 C1168 1.453 . S
C1165 C1169 1.684 . S
C1166 C1147 1.723 . S
C1166 C1165 1.396 . S
C1166 C1167 1.394 . S
C1167 C1163 1.397 . S
C1167 C1166 1.394 . S
C1167 C1177 1.723 . S
C1168 C1165 1.453 . S
C1168 H1192 0.982 . S
C1168 H1193 0.979 . S
C1168 H1194 0.977 . S
C1169 C1165 1.684 . S
C1169 H1195 0.979 . S
C1169 H1196 0.980 . S
C1169 H1197 0.983 . S
C1170 H1146 0.948 . S
C1170 C1171 1.391 . S
C1170 C1175 1.391 . S
C1171 C1170 1.391 . S
C1171 C1172 1.391 . S
C1172 H1149 0.947 . S
C1172 C1171 1.391 . S
C1172 C1173 1.392 . S
C1173 H1150 0.948 . S
C1173 C1172 1.392 . S
C1173 C1174 1.419 . S
C1174 C1173 1.419 . S
C1174 C1175 1.391 . S
C1174 C1178 1.397 . S
C1175 C1170 1.391 . S
C1175 C1174 1.391 . S
C1175 C1176 1.399 . S
C1176 C1175 1.399 . S
C1176 C1177 1.396 . S
C1176 C1179 1.453 . S
C1176 C1180 1.684 . S
C1177 C1167 1.723 . S
C1177 C1176 1.396 . S
C1177 C1178 1.394 . S
C1178 C1148 1.723 . S
C1178 C1174 1.397 . S
C1178 C1177 1.394 . S
C1179 H1151 0.982 . S
C1179 H1155 0.979 . S
C1179 H1156 0.977 . S
C1179 C1176 1.453 . S
C1180 H1152 0.979 . S
C1180 H1153 0.980 . S
C1180 H1154 0.983 . S
C1180 C1176 1.684 . S
H1181 C1199 0.948 . S
H1182 C1140 0.948 . S
H1183 C1158 0.979 . S
H1184 C1158 0.980 . S
H1185 C1158 0.983 . S
H1186 C1157 0.982 . S
H1187 C1157 0.979 . S
H1188 C1157 0.977 . S
H1189 C1159 0.948 . S
H1190 C1161 0.947 . S
H1191 C1162 0.948 . S
H1192 C1168 0.982 . S
H1193 C1168 0.979 . S
H1194 C1168 0.977 . S
H1195 C1169 0.979 . S
H1196 C1169 0.980 . S
H1197 C1169 0.983 . S
H1198 C1142 0.947 . S
C1199 C1142 1.392 . S
C1199 C1143 1.419 . S
C1199 H1181 0.948 . S
C1200 C1201 1.391 . S
C1200 C1204 1.391 . S
C1200 H1242 0.948 . S
C1201 C1200 1.391 . S
C1201 C1202 1.391 . S
C1202 C1201 1.391 . S
C1202 H1258 0.947 . S
C1202 C1259 1.392 . S
C1203 C1204 1.391 . S
C1203 C1207 1.397 . S
C1203 C1259 1.419 . S
C1204 C1200 1.391 . S
C1204 C1203 1.391 . S
C1204 C1205 1.399 . S
C1205 C1204 1.399 . S
C1205 C1208 1.396 . S
C1205 C1217 1.453 . S
C1205 C1218 1.684 . S
H1206 C1230 0.948 . S
C1207 C1203 1.397 . S
C1207 C1208 1.394 . S
C1207 C1226 1.723 . S
C1208 C1205 1.396 . S
C1208 C1207 1.394 . S
C1208 C1238 1.723 . S
H1209 C1232 0.947 . S
H1210 C1233 0.948 . S
H1211 C1239 0.982 . S
H1212 C1240 0.979 . S
H1213 C1240 0.980 . S
H1214 C1240 0.983 . S
H1215 C1239 0.979 . S
H1216 C1239 0.977 . S
C1217 C1205 1.453 . S
C1217 H1246 0.982 . S
C1217 H1247 0.979 . S
C1217 H1248 0.977 . S
C1218 C1205 1.684 . S
C1218 H1243 0.979 . S
C1218 H1244 0.980 . S
C1218 H1245 0.983 . S
C1219 C1220 1.391 . S
C1219 C1224 1.391 . S
C1219 H1249 0.948 . S
C1220 C1219 1.391 . S
C1220 C1221 1.391 . S
C1221 C1220 1.391 . S
C1221 C1222 1.392 . S
C1221 H1250 0.947 . S
C1222 C1221 1.392 . S
C1222 C1223 1.419 . S
C1222 H1251 0.948 . S
C1223 C1222 1.419 . S
C1223 C1224 1.391 . S
C1223 C1227 1.397 . S
C1224 C1219 1.391 . S
C1224 C1223 1.391 . S
C1224 C1225 1.399 . S
C1225 C1224 1.399 . S
C1225 C1226 1.396 . S
C1225 C1228 1.453 . S
C1225 C1229 1.684 . S
C1226 C1207 1.723 . S
C1226 C1225 1.396 . S
C1226 C1227 1.394 . S
C1227 C1223 1.397 . S
C1227 C1226 1.394 . S
C1227 C1237 1.723 . S
C1228 C1225 1.453 . S
C1228 H1252 0.982 . S
C1228 H1253 0.979 . S
C1228 H1254 0.977 . S
C1229 C1225 1.684 . S
C1229 H1255 0.979 . S
C1229 H1256 0.980 . S
C1229 H1257 0.983 . S
C1230 H1206 0.948 . S
C1230 C1231 1.391 . S
C1230 C1235 1.391 . S
C1231 C1230 1.391 . S
C1231 C1232 1.391 . S
C1232 H1209 0.947 . S
C1232 C1231 1.391 . S
C1232 C1233 1.392 . S
C1233 H1210 0.948 . S
C1233 C1232 1.392 . S
C1233 C1234 1.419 . S
C1234 C1233 1.419 . S
C1234 C1235 1.391 . S
C1234 C1238 1.397 . S
C1235 C1230 1.391 . S
C1235 C1234 1.391 . S
C1235 C1236 1.399 . S
C1236 C1235 1.399 . S
C1236 C1237 1.396 . S
C1236 C1239 1.453 . S
C1236 C1240 1.684 . S
C1237 C1227 1.723 . S
C1237 C1236 1.396 . S
C1237 C1238 1.394 . S
C1238 C1208 1.723 . S
C1238 C1234 1.397 . S
C1238 C1237 1.394 . S
C1239 H1211 0.982 . S
C1239 H1215 0.979 . S
C1239 H1216 0.977 . S
C1239 C1236 1.453 . S
C1240 H1212 0.979 . S
C1240 H1213 0.980 . S
C1240 H1214 0.983 . S
C1240 C1236 1.684 . S
H1241 C1259 0.948 . S
H1242 C1200 0.948 . S
H1243 C1218 0.979 . S
H1244 C1218 0.980 . S
H1245 C1218 0.983 . S
H1246 C1217 0.982 . S
H1247 C1217 0.979 . S
H1248 C1217 0.977 . S
H1249 C1219 0.948 . S
H1250 C1221 0.947 . S
H1251 C1222 0.948 . S
H1252 C1228 0.982 . S
H1253 C1228 0.979 . S
H1254 C1228 0.977 . S
H1255 C1229 0.979 . S
H1256 C1229 0.980 . S
H1257 C1229 0.983 . S
H1258 C1202 0.947 . S
C1259 C1202 1.392 . S
C1259 C1203 1.419 . S
C1259 H1241 0.948 . S
C1260 C1261 1.391 . S
C1260 C1264 1.391 . S
C1260 H1302 0.948 . S
C1261 C1260 1.391 . S
C1261 C1262 1.391 . S
C1262 C1261 1.391 . S
C1262 H1318 0.947 . S
C1262 C1319 1.392 . S
C1263 C1264 1.391 . S
C1263 C1267 1.397 . S
C1263 C1319 1.419 . S
C1264 C1260 1.391 . S
C1264 C1263 1.391 . S
C1264 C1265 1.399 . S
C1265 C1264 1.399 . S
C1265 C1268 1.396 . S
C1265 C1277 1.453 . S
C1265 C1278 1.684 . S
H1266 C1290 0.948 . S
C1267 C1263 1.397 . S
C1267 C1268 1.394 . S
C1267 C1286 1.723 . S
C1268 C1265 1.396 . S
C1268 C1267 1.394 . S
C1268 C1298 1.723 . S
H1269 C1292 0.947 . S
H1270 C1293 0.948 . S
H1271 C1299 0.982 . S
H1272 C1300 0.979 . S
H1273 C1300 0.980 . S
H1274 C1300 0.983 . S
H1275 C1299 0.979 . S
H1276 C1299 0.977 . S
C1277 C1265 1.453 . S
C1277 H1306 0.982 . S
C1277 H1307 0.979 . S
C1277 H1308 0.977 . S
C1278 C1265 1.684 . S
C1278 H1303 0.979 . S
C1278 H1304 0.980 . S
C1278 H1305 0.983 . S
C1279 C1280 1.391 . S
C1279 C1284 1.391 . S
C1279 H1309 0.948 . S
C1280 C1279 1.391 . S
C1280 C1281 1.391 . S
C1281 C1280 1.391 . S
C1281 C1282 1.392 . S
C1281 H1310 0.947 . S
C1282 C1281 1.392 . S
C1282 C1283 1.419 . S
C1282 H1311 0.948 . S
C1283 C1282 1.419 . S
C1283 C1284 1.391 . S
C1283 C1287 1.397 . S
C1284 C1279 1.391 . S
C1284 C1283 1.391 . S
C1284 C1285 1.399 . S
C1285 C1284 1.399 . S
C1285 C1286 1.396 . S
C1285 C1288 1.453 . S
C1285 C1289 1.684 . S
C1286 C1267 1.723 . S
C1286 C1285 1.396 . S
C1286 C1287 1.394 . S
C1287 C1283 1.397 . S
C1287 C1286 1.394 . S
C1287 C1297 1.723 . S
C1288 C1285 1.453 . S
C1288 H1312 0.982 . S
C1288 H1313 0.979 . S
C1288 H1314 0.977 . S
C1289 C1285 1.684 . S
C1289 H1315 0.979 . S
C1289 H1316 0.980 . S
C1289 H1317 0.983 . S
C1290 H1266 0.948 . S
C1290 C1291 1.391 . S
C1290 C1295 1.391 . S
C1291 C1290 1.391 . S
C1291 C1292 1.391 . S
C1292 H1269 0.947 . S
C1292 C1291 1.391 . S
C1292 C1293 1.392 . S
C1293 H1270 0.948 . S
C1293 C1292 1.392 . S
C1293 C1294 1.419 . S
C1294 C1293 1.419 . S
C1294 C1295 1.391 . S
C1294 C1298 1.397 . S
C1295 C1290 1.391 . S
C1295 C1294 1.391 . S
C1295 C1296 1.399 . S
C1296 C1295 1.399 . S
C1296 C1297 1.396 . S
C1296 C1299 1.453 . S
C1296 C1300 1.684 . S
C1297 C1287 1.723 . S
C1297 C1296 1.396 . S
C1297 C1298 1.394 . S
C1298 C1268 1.723 . S
C1298 C1294 1.397 . S
C1298 C1297 1.394 . S
C1299 H1271 0.982 . S
C1299 H1275 0.979 . S
C1299 H1276 0.977 . S
C1299 C1296 1.453 . S
C1300 H1272 0.979 . S
C1300 H1273 0.980 . S
C1300 H1274 0.983 . S
C1300 C1296 1.684 . S
H1301 C1319 0.948 . S
H1302 C1260 0.948 . S
H1303 C1278 0.979 . S
H1304 C1278 0.980 . S
H1305 C1278 0.983 . S
H1306 C1277 0.982 . S
H1307 C1277 0.979 . S
H1308 C1277 0.977 . S
H1309 C1279 0.948 . S
H1310 C1281 0.947 . S
H1311 C1282 0.948 . S
H1312 C1288 0.982 . S
H1313 C1288 0.979 . S
H1314 C1288 0.977 . S
H1315 C1289 0.979 . S
H1316 C1289 0.980 . S
H1317 C1289 0.983 . S
H1318 C1262 0.947 . S
C1319 C1262 1.392 . S
C1319 C1263 1.419 . S
C1319 H1301 0.948 . S
C1320 C1321 1.391 . S
C1320 C1324 1.391 . S
C1320 H1362 0.948 . S
C1321 C1320 1.391 . S
C1321 C1322 1.391 . S
C1322 C1321 1.391 . S
C1322 H1378 0.947 . S
C1322 C1379 1.392 . S
C1323 C1324 1.391 . S
C1323 C1327 1.397 . S
C1323 C1379 1.419 . S
C1324 C1320 1.391 . S
C1324 C1323 1.391 . S
C1324 C1325 1.399 . S
C1325 C1324 1.399 . S
C1325 C1328 1.396 . S
C1325 C1337 1.453 . S
C1325 C1338 1.684 . S
H1326 C1350 0.948 . S
C1327 C1323 1.397 . S
C1327 C1328 1.394 . S
C1327 C1346 1.723 . S
C1328 C1325 1.396 . S
C1328 C1327 1.394 . S
C1328 C1358 1.723 . S
H1329 C1352 0.947 . S
H1330 C1353 0.948 . S
H1331 C1359 0.982 . S
H1332 C1360 0.979 . S
H1333 C1360 0.980 . S
H1334 C1360 0.983 . S
H1335 C1359 0.979 . S
H1336 C1359 0.977 . S
C1337 C1325 1.453 . S
C1337 H1366 0.982 . S
C1337 H1367 0.979 . S
C1337 H1368 0.977 . S
C1338 C1325 1.684 . S
C1338 H1363 0.979 . S
C1338 H1364 0.980 . S
C1338 H1365 0.983 . S
C1339 C1340 1.391 . S
C1339 C1344 1.391 . S
C1339 H1369 0.948 . S
C1340 C1339 1.391 . S
C1340 C1341 1.391 . S
C1341 C1340 1.391 . S
C1341 C1342 1.392 . S
C1341 H1370 0.947 . S
C1342 C1341 1.392 . S
C1342 C1343 1.419 . S
C1342 H1371 0.948 . S
C1343 C1342 1.419 . S
C1343 C1344 1.391 . S
C1343 C1347 1.397 . S
C1344 C1339 1.391 . S
C1344 C1343 1.391 . S
C1344 C1345 1.399 . S
C1345 C1344 1.399 . S
C1345 C1346 1.396 . S
C1345 C1348 1.453 . S
C1345 C1349 1.684 . S
C1346 C1327 1.723 . S
C1346 C1345 1.396 . S
C1346 C1347 1.394 . S
C1347 C1343 1.397 . S
C1347 C1346 1.394 . S
C1347 C1357 1.723 . S
C1348 C1345 1.453 . S
C1348 H1372 0.982 . S
C1348 H1373 0.979 . S
C1348 H1374 0.977 . S
C1349 C1345 1.684 . S
C1349 H1375 0.979 . S
C1349 H1376 0.980 . S
C1349 H1377 0.983 . S
C1350 H1326 0.948 . S
C1350 C1351 1.391 . S
C1350 C1355 1.391 . S
C1351 C1350 1.391 . S
C1351 C1352 1.391 . S
C1352 H1329 0.947 . S
C1352 C1351 1.391 . S
C1352 C1353 1.392 . S
C1353 H1330 0.948 . S
C1353 C1352 1.392 . S
C1353 C1354 1.419 . S
C1354 C1353 1.419 . S
C1354 C1355 1.391 . S
C1354 C1358 1.397 . S
C1355 C1350 1.391 . S
C1355 C1354 1.391 . S
C1355 C1356 1.399 . S
C1356 C1355 1.399 . S
C1356 C1357 1.396 . S
C1356 C1359 1.453 . S
C1356 C1360 1.684 . S
C1357 C1347 1.723 . S
C1357 C1356 1.396 . S
C1357 C1358 1.394 . S
C1358 C1328 1.723 . S
C1358 C1354 1.397 . S
C1358 C1357 1.394 . S
C1359 H1331 0.982 . S
C1359 H1335 0.979 . S
C1359 H1336 0.977 . S
C1359 C1356 1.453 . S
C1360 H1332 0.979 . S
C1360 H1333 0.980 . S
C1360 H1334 0.983 . S
C1360 C1356 1.684 . S
H1361 C1379 0.948 . S
H1362 C1320 0.948 . S
H1363 C1338 0.979 . S
H1364 C1338 0.980 . S
H1365 C1338 0.983 . S
H1366 C1337 0.982 . S
H1367 C1337 0.979 . S
H1368 C1337 0.977 . S
H1369 C1339 0.948 . S
H1370 C1341 0.947 . S
H1371 C1342 0.948 . S
H1372 C1348 0.982 . S
H1373 C1348 0.979 . S
H1374 C1348 0.977 . S
H1375 C1349 0.979 . S
H1376 C1349 0.980 . S
H1377 C1349 0.983 . S
H1378 C1322 0.947 . S
C1379 C1322 1.392 . S
C1379 C1323 1.419 . S
C1379 H1361 0.948 . S
C1380 C1381 1.391 . S
C1380 C1384 1.391 . S
C1380 H1422 0.948 . S
C1381 C1380 1.391 . S
C1381 C1382 1.391 . S
C1382 C1381 1.391 . S
C1382 H1438 0.947 . S
C1382 C1439 1.392 . S
C1383 C1384 1.391 . S
C1383 C1387 1.397 . S
C1383 C1439 1.419 . S
C1384 C1380 1.391 . S
C1384 C1383 1.391 . S
C1384 C1385 1.399 . S
C1385 C1384 1.399 . S
C1385 C1388 1.396 . S
C1385 C1397 1.453 . S
C1385 C1398 1.684 . S
H1386 C1410 0.948 . S
C1387 C1383 1.397 . S
C1387 C1388 1.394 . S
C1387 C1406 1.723 . S
C1388 C1385 1.396 . S
C1388 C1387 1.394 . S
C1388 C1418 1.723 . S
H1389 C1412 0.947 . S
H1390 C1413 0.948 . S
H1391 C1419 0.982 . S
H1392 C1420 0.979 . S
H1393 C1420 0.980 . S
H1394 C1420 0.983 . S
H1395 C1419 0.979 . S
H1396 C1419 0.977 . S
C1397 C1385 1.453 . S
C1397 H1426 0.982 . S
C1397 H1427 0.979 . S
C1397 H1428 0.977 . S
C1398 C1385 1.684 . S
C1398 H1423 0.979 . S
C1398 H1424 0.980 . S
C1398 H1425 0.983 . S
C1399 C1400 1.391 . S
C1399 C1404 1.391 . S
C1399 H1429 0.948 . S
C1400 C1399 1.391 . S
C1400 C1401 1.391 . S
C1401 C1400 1.391 . S
C1401 C1402 1.392 . S
C1401 H1430 0.947 . S
C1402 C1401 1.392 . S
C1402 C1403 1.419 . S
C1402 H1431 0.948 . S
C1403 C1402 1.419 . S
C1403 C1404 1.391 . S
C1403 C1407 1.397 . S
C1404 C1399 1.391 . S
C1404 C1403 1.391 . S
C1404 C1405 1.399 . S
C1405 C1404 1.399 . S
C1405 C1406 1.396 . S
C1405 C1408 1.453 . S
C1405 C1409 1.684 . S
C1406 C1387 1.723 . S
C1406 C1405 1.396 . S
C1406 C1407 1.394 . S
C1407 C1403 1.397 . S
C1407 C1406 1.394 . S
C1407 C1417 1.723 . S
C1408 C1405 1.453 . S
C1408 H1432 0.982 . S
C1408 H1433 0.979 . S
C1408 H1434 0.977 . S
C1409 C1405 1.684 . S
C1409 H1435 0.979 . S
C1409 H1436 0.980 . S
C1409 H1437 0.983 . S
C1410 H1386 0.948 . S
C1410 C1411 1.391 . S
C1410 C1415 1.391 . S
C1411 C1410 1.391 . S
C1411 C1412 1.391 . S
C1412 H1389 0.947 . S
C1412 C1411 1.391 . S
C1412 C1413 1.392 . S
C1413 H1390 0.948 . S
C1413 C1412 1.392 . S
C1413 C1414 1.419 . S
C1414 C1413 1.419 . S
C1414 C1415 1.391 . S
C1414 C1418 1.397 . S
C1415 C1410 1.391 . S
C1415 C1414 1.391 . S
C1415 C1416 1.399 . S
C1416 C1415 1.399 . S
C1416 C1417 1.396 . S
C1416 C1419 1.453 . S
C1416 C1420 1.684 . S
C1417 C1407 1.723 . S
C1417 C1416 1.396 . S
C1417 C1418 1.394 . S
C1418 C1388 1.723 . S
C1418 C1414 1.397 . S
C1418 C1417 1.394 . S
C1419 H1391 0.982 . S
C1419 H1395 0.979 . S
C1419 H1396 0.977 . S
C1419 C1416 1.453 . S
C1420 H1392 0.979 . S
C1420 H1393 0.980 . S
C1420 H1394 0.983 . S
C1420 C1416 1.684 . S
H1421 C1439 0.948 . S
H1422 C1380 0.948 . S
H1423 C1398 0.979 . S
H1424 C1398 0.980 . S
H1425 C1398 0.983 . S
H1426 C1397 0.982 . S
H1427 C1397 0.979 . S
H1428 C1397 0.977 . S
H1429 C1399 0.948 . S
H1430 C1401 0.947 . S
H1431 C1402 0.948 . S
H1432 C1408 0.982 . S
H1433 C1408 0.979 . S
H1434 C1408 0.977 . S
H1435 C1409 0.979 . S
H1436 C1409 0.980 . S
H1437 C1409 0.983 . S
H1438 C1382 0.947 . S
C1439 C1382 1.392 . S
C1439 C1383 1.419 . S
C1439 H1421 0.948 . S
C1440 C1441 1.391 . S
C1440 C1444 1.391 . S
C1440 H1482 0.948 . S
C1441 C1440 1.391 . S
C1441 C1442 1.391 . S
C1442 C1441 1.391 . S
C1442 H1498 0.947 . S
C1442 C1499 1.392 . S
C1443 C1444 1.391 . S
C1443 C1447 1.397 . S
C1443 C1499 1.419 . S
C1444 C1440 1.391 . S
C1444 C1443 1.391 . S
C1444 C1445 1.399 . S
C1445 C1444 1.399 . S
C1445 C1448 1.396 . S
C1445 C1457 1.453 . S
C1445 C1458 1.684 . S
H1446 C1470 0.948 . S
C1447 C1443 1.397 . S
C1447 C1448 1.394 . S
C1447 C1466 1.723 . S
C1448 C1445 1.396 . S
C1448 C1447 1.394 . S
C1448 C1478 1.723 . S
H1449 C1472 0.947 . S
H1450 C1473 0.948 . S
H1451 C1479 0.982 . S
H1452 C1480 0.979 . S
H1453 C1480 0.980 . S
H1454 C1480 0.983 . S
H1455 C1479 0.979 . S
H1456 C1479 0.977 . S
C1457 C1445 1.453 . S
C1457 H1486 0.982 . S
C1457 H1487 0.979 . S
C1457 H1488 0.977 . S
C1458 C1445 1.684 . S
C1458 H1483 0.979 . S
C1458 H1484 0.980 . S
C1458 H1485 0.983 . S
C1459 C1460 1.391 . S
C1459 C1464 1.391 . S
C1459 H1489 0.948 . S
C1460 C1459 1.391 . S
C1460 C1461 1.391 . S
C1461 C1460 1.391 . S
C1461 C1462 1.392 . S
C1461 H1490 0.947 . S
C1462 C1461 1.392 . S
C1462 C1463 1.419 . S
C1462 H1491 0.948 . S
C1463 C1462 1.419 . S
C1463 C1464 1.391 . S
C1463 C1467 1.397 . S
C1464 C1459 1.391 . S
C1464 C1463 1.391 . S
C1464 C1465 1.399 . S
C1465 C1464 1.399 . S
C1465 C1466 1.396 . S
C1465 C1468 1.453 . S
C1465 C1469 1.684 . S
C1466 C1447 1.723 . S
C1466 C1465 1.396 . S
C1466 C1467 1.394 . S
C1467 C1463 1.397 . S
C1467 C1466 1.394 . S
C1467 C1477 1.723 . S
C1468 C1465 1.453 . S
C1468 H1492 0.982 . S
C1468 H1493 0.979 . S
C1468 H1494 0.977 . S
C1469 C1465 1.684 . S
C1469 H1495 0.979 . S
C1469 H1496 0.980 . S
C1469 H1497 0.983 . S
C1470 H1446 0.948 . S
C1470 C1471 1.391 . S
C1470 C1475 1.391 . S
C1471 C1470 1.391 . S
C1471 C1472 1.391 . S
C1472 H1449 0.947 . S
C1472 C1471 1.391 . S
C1472 C1473 1.392 . S
C1473 H1450 0.948 . S
C1473 C1472 1.392 . S
C1473 C1474 1.419 . S
C1474 C1473 1.419 . S
C1474 C1475 1.391 . S
C1474 C1478 1.397 . S
C1475 C1470 1.391 . S
C1475 C1474 1.391 . S
C1475 C1476 1.399 . S
C1476 C1475 1.399 . S
C1476 C1477 1.396 . S
C1476 C1479 1.453 . S
C1476 C1480 1.684 . S
C1477 C1467 1.723 . S
C1477 C1476 1.396 . S
C1477 C1478 1.394 . S
C1478 C1448 1.723 . S
C1478 C1474 1.397 . S
C1478 C1477 1.394 . S
C1479 H1451 0.982 . S
C1479 H1455 0.979 . S
C1479 H1456 0.977 . S
C1479 C1476 1.453 . S
C1480 H1452 0.979 . S
C1480 H1453 0.980 . S
C1480 H1454 0.983 . S
C1480 C1476 1.684 . S
H1481 C1499 0.948 . S
H1482 C1440 0.948 . S
H1483 C1458 0.979 . S
H1484 C1458 0.980 . S
H1485 C1458 0.983 . S
H1486 C1457 0.982 . S
H1487 C1457 0.979 . S
H1488 C1457 0.977 . S
H1489 C1459 0.948 . S
H1490 C1461 0.947 . S
H1491 C1462 0.948 . S
H1492 C1468 0.982 . S
H1493 C1468 0.979 . S
H1494 C1468 0.977 . S
H1495 C1469 0.979 . S
H1496 C1469 0.980 . S
H1497 C1469 0.983 . S
H1498 C1442 0.947 . S
C1499 C1442 1.392 . S
C1499 C1443 1.419 . S
C1499 H1481 0.948 . S
C1500 C1501 1.391 . S
C1500 C1504 1.391 . S
C1500 H1542 0.948 . S
C1501 C1500 1.391 . S
C1501 C1502 1.391 . S
C1502 C1501 1.391 . S
C1502 H1558 0.947 . S
C1502 C1559 1.392 . S
C1503 C1504 1.391 . S
C1503 C1507 1.397 . S
C1503 C1559 1.419 . S
C1504 C1500 1.391 . S
C1504 C1503 1.391 . S
C1504 C1505 1.399 . S
C1505 C1504 1.399 . S
C1505 C1508 1.396 . S
C1505 C1517 1.453 . S
C1505 C1518 1.684 . S
H1506 C1530 0.948 . S
C1507 C1503 1.397 . S
C1507 C1508 1.394 . S
C1507 C1526 1.723 . S
C1508 C1505 1.396 . S
C1508 C1507 1.394 . S
C1508 C1538 1.723 . S
H1509 C1532 0.947 . S
H1510 C1533 0.948 . S
H1511 C1539 0.982 . S
H1512 C1540 0.979 . S
H1513 C1540 0.980 . S
H1514 C1540 0.983 . S
H1515 C1539 0.979 . S
H1516 C1539 0.977 . S
C1517 C1505 1.453 . S
C1517 H1546 0.982 . S
C1517 H1547 0.979 . S
C1517 H1548 0.977 . S
C1518 C1505 1.684 . S
C1518 H1543 0.979 . S
C1518 H1544 0.980 . S
C1518 H1545 0.983 . S
C1519 C1520 1.391 . S
C1519 C1524 1.391 . S
C1519 H1549 0.948 . S
C1520 C1519 1.391 . S
C1520 C1521 1.391 . S
C1521 C1520 1.391 . S
C1521 C1522 1.392 . S
C1521 H1550 0.947 . S
C1522 C1521 1.392 . S
C1522 C1523 1.419 . S
C1522 H1551 0.948 . S
C1523 C1522 1.419 . S
C1523 C1524 1.391 . S
C1523 C1527 1.397 . S
C1524 C1519 1.391 . S
C1524 C1523 1.391 . S
C1524 C1525 1.399 . S
C1525 C1524 1.399 . S
C1525 C1526 1.396 . S
C1525 C1528 1.453 . S
C1525 C1529 1.684 . S
C1526 C1507 1.723 . S
C1526 C1525 1.396 . S
C1526 C1527 1.394 . S
C1527 C1523 1.397 . S
C1527 C1526 1.394 . S
C1527 C1537 1.723 . S
C1528 C1525 1.453 . S
C1528 H1552 0.982 . S
C1528 H1553 0.979 . S
C1528 H1554 0.977 . S
C1529 C1525 1.684 . S
C1529 H1555 0.979 . S
C1529 H1556 0.980 . S
C1529 H1557 0.983 . S
C1530 H1506 0.948 . S
C1530 C1531 1.391 . S
C1530 C1535 1.391 . S
C1531 C1530 1.391 . S
C1531 C1532 1.391 . S
C1532 H1509 0.947 . S
C1532 C1531 1.391 . S
C1532 C1533 1.392 . S
C1533 H1510 0.948 . S
C1533 C1532 1.392 . S
C1533 C1534 1.419 . S
C1534 C1533 1.419 . S
C1534 C1535 1.391 . S
C1534 C1538 1.397 . S
C1535 C1530 1.391 . S
C1535 C1534 1.391 . S
C1535 C1536 1.399 . S
C1536 C1535 1.399 . S
C1536 C1537 1.396 . S
C1536 C1539 1.453 . S
C1536 C1540 1.684 . S
C1537 C1527 1.723 . S
C1537 C1536 1.396 . S
C1537 C1538 1.394 . S
C1538 C1508 1.723 . S
C1538 C1534 1.397 . S
C1538 C1537 1.394 . S
C1539 H1511 0.982 . S
C1539 H1515 0.979 . S
C1539 H1516 0.977 . S
C1539 C1536 1.453 . S
C1540 H1512 0.979 . S
C1540 H1513 0.980 . S
C1540 H1514 0.983 . S
C1540 C1536 1.684 . S
H1541 C1559 0.948 . S
H1542 C1500 0.948 . S
H1543 C1518 0.979 . S
H1544 C1518 0.980 . S
H1545 C1518 0.983 . S
H1546 C1517 0.982 . S
H1547 C1517 0.979 . S
H1548 C1517 0.977 . S
H1549 C1519 0.948 . S
H1550 C1521 0.947 . S
H1551 C1522 0.948 . S
H1552 C1528 0.982 . S
H1553 C1528 0.979 . S
H1554 C1528 0.977 . S
H1555 C1529 0.979 . S
H1556 C1529 0.980 . S
H1557 C1529 0.983 . S
H1558 C1502 0.947 . S
C1559 C1502 1.392 . S
C1559 C1503 1.419 . S
C1559 H1541 0.948 . S
C1560 C1561 1.391 . S
C1560 C1564 1.391 . S
C1560 H1602 0.948 . S
C1561 C1560 1.391 . S
C1561 C1562 1.391 . S
C1562 C1561 1.391 . S
C1562 H1618 0.947 . S
C1562 C1619 1.392 . S
C1563 C1564 1.391 . S
C1563 C1567 1.397 . S
C1563 C1619 1.419 . S
C1564 C1560 1.391 . S
C1564 C1563 1.391 . S
C1564 C1565 1.399 . S
C1565 C1564 1.399 . S
C1565 C1568 1.396 . S
C1565 C1577 1.453 . S
C1565 C1578 1.684 . S
H1566 C1590 0.948 . S
C1567 C1563 1.397 . S
C1567 C1568 1.394 . S
C1567 C1586 1.723 . S
C1568 C1565 1.396 . S
C1568 C1567 1.394 . S
C1568 C1598 1.723 . S
H1569 C1592 0.947 . S
H1570 C1593 0.948 . S
H1571 C1599 0.982 . S
H1572 C1600 0.979 . S
H1573 C1600 0.980 . S
H1574 C1600 0.983 . S
H1575 C1599 0.979 . S
H1576 C1599 0.977 . S
C1577 C1565 1.453 . S
C1577 H1606 0.982 . S
C1577 H1607 0.979 . S
C1577 H1608 0.977 . S
C1578 C1565 1.684 . S
C1578 H1603 0.979 . S
C1578 H1604 0.980 . S
C1578 H1605 0.983 . S
C1579 C1580 1.391 . S
C1579 C1584 1.391 . S
C1579 H1609 0.948 . S
C1580 C1579 1.391 . S
C1580 C1581 1.391 . S
C1581 C1580 1.391 . S
C1581 C1582 1.392 . S
C1581 H1610 0.947 . S
C1582 C1581 1.392 . S
C1582 C1583 1.419 . S
C1582 H1611 0.948 . S
C1583 C1582 1.419 . S
C1583 C1584 1.391 . S
C1583 C1587 1.397 . S
C1584 C1579 1.391 . S
C1584 C1583 1.391 . S
C1584 C1585 1.399 . S
C1585 C1584 1.399 . S
C1585 C1586 1.396 . S
C1585 C1588 1.453 . S
C1585 C1589 1.684 . S
C1586 C1567 1.723 . S
C1586 C1585 1.396 . S
C1586 C1587 1.394 . S
C1587 C1583 1.397 . S
C1587 C1586 1.394 . S
C1587 C1597 1.723 . S
C1588 C1585 1.453 . S
C1588 H1612 0.982 . S
C1588 H1613 0.979 . S
C1588 H1614 0.977 . S
C1589 C1585 1.684 . S
C1589 H1615 0.979 . S
C1589 H1616 0.980 . S
C1589 H1617 0.983 . S
C1590 H1566 0.948 . S
C1590 C1591 1.391 . S
C1590 C1595 1.391 . S
C1591 C1590 1.391 . S
C1591 C1592 1.391 . S
C1592 H1569 0.947 . S
C1592 C1591 1.391 . S
C1592 C1593 1.392 . S
C1593 H1570 0.948 . S
C1593 C1592 1.392 . S
C1593 C1594 1.419 . S
C1594 C1593 1.419 . S
C1594 C1595 1.391 . S
C1594 C1598 1.397 . S
C1595 C1590 1.391 . S
C1595 C1594 1.391 . S
C1595 C1596 1.399 . S
C1596 C1595 1.399 . S
C1596 C1597 1.396 . S
C1596 C1599 1.453 . S
C1596 C1600 1.684 . S
C1597 C1587 1.723 . S
C1597 C1596 1.396 . S
C1597 C1598 1.394 . S
C1598 C1568 1.723 . S
C1598 C1594 1.397 . S
C1598 C1597 1.394 . S
C1599 H1571 0.982 . S
C1599 H1575 0.979 . S
C1599 H1576 0.977 . S
C1599 C1596 1.453 . S
C1600 H1572 0.979 . S
C1600 H1573 0.980 . S
C1600 H1574 0.983 . S
C1600 C1596 1.684 . S
H1601 C1619 0.948 . S
H1602 C1560 0.948 . S
H1603 C1578 0.979 . S
H1604 C1578 0.980 . S
H1605 C1578 0.983 . S
H1606 C1577 0.982 . S
H1607 C1577 0.979 . S
H1608 C1577 0.977 . S
H1609 C1579 0.948 . S
H1610 C1581 0.947 . S
H1611 C1582 0.948 . S
H1612 C1588 0.982 . S
H1613 C1588 0.979 . S
H1614 C1588 0.977 . S
H1615 C1589 0.979 . S
H1616 C1589 0.980 . S
H1617 C1589 0.983 . S
H1618 C1562 0.947 . S
C1619 C1562 1.392 . S
C1619 C1563 1.419 . S
C1619 H1601 0.948 . S
C1620 C1621 1.391 . S
C1620 C1624 1.391 . S
C1620 H1662 0.948 . S
C1621 C1620 1.391 . S
C1621 C1622 1.391 . S
C1622 C1621 1.391 . S
C1622 H1678 0.947 . S
C1622 C1679 1.392 . S
C1623 C1624 1.391 . S
C1623 C1627 1.397 . S
C1623 C1679 1.419 . S
C1624 C1620 1.391 . S
C1624 C1623 1.391 . S
C1624 C1625 1.399 . S
C1625 C1624 1.399 . S
C1625 C1628 1.396 . S
C1625 C1637 1.453 . S
C1625 C1638 1.684 . S
H1626 C1650 0.948 . S
C1627 C1623 1.397 . S
C1627 C1628 1.394 . S
C1627 C1646 1.723 . S
C1628 C1625 1.396 . S
C1628 C1627 1.394 . S
C1628 C1658 1.723 . S
H1629 C1652 0.947 . S
H1630 C1653 0.948 . S
H1631 C1659 0.982 . S
H1632 C1660 0.979 . S
H1633 C1660 0.980 . S
H1634 C1660 0.983 . S
H1635 C1659 0.979 . S
H1636 C1659 0.977 . S
C1637 C1625 1.453 . S
C1637 H1666 0.982 . S
C1637 H1667 0.979 . S
C1637 H1668 0.977 . S
C1638 C1625 1.684 . S
C1638 H1663 0.979 . S
C1638 H1664 0.980 . S
C1638 H1665 0.983 . S
C1639 C1640 1.391 . S
C1639 C1644 1.391 . S
C1639 H1669 0.948 . S
C1640 C1639 1.391 . S
C1640 C1641 1.391 . S
C1641 C1640 1.391 . S
C1641 C1642 1.392 . S
C1641 H1670 0.947 . S
C1642 C1641 1.392 . S
C1642 C1643 1.419 . S
C1642 H1671 0.948 . S
C1643 C1642 1.419 . S
C1643 C1644 1.391 . S
C1643 C1647 1.397 . S
C1644 C1639 1.391 . S
C1644 C1643 1.391 . S
C1644 C1645 1.399 . S
C1645 C1644 1.399 . S
C1645 C1646 1.396 . S
C1645 C1648 1.453 . S
C1645 C1649 1.684 . S
C1646 C1627 1.723 . S
C1646 C1645 1.396 . S
C1646 C1647 1.394 . S
C1647 C1643 1.397 . S
C1647 C1646 1.394 . S
C1647 C1657 1.723 . S
C1648 C1645 1.453 . S
C1648 H1672 0.982 . S
C1648 H1673 0.979 . S
C1648 H1674 0.977 . S
C1649 C1645 1.684 . S
C1649 H1675 0.979 . S
C1649 H1676 0.980 . S
C1649 H1677 0.983 . S
C1650 H1626 0.948 . S
C1650 C1651 1.391 . S
C1650 C1655 1.391 . S
C1651 C1650 1.391 . S
C1651 C1652 1.391 . S
C1652 H1629 0.947 . S
C1652 C1651 1.391 . S
C1652 C1653 1.392 . S
C1653 H1630 0.948 . S
C1653 C1652 1.392 . S
C1653 C1654 1.419 . S
C1654 C1653 1.419 . S
C1654 C1655 1.391 . S
C1654 C1658 1.397 . S
C1655 C1650 1.391 . S
C1655 C1654 1.391 . S
C1655 C1656 1.399 . S
C1656 C1655 1.399 . S
C1656 C1657 1.396 . S
C1656 C1659 1.453 . S
C1656 C1660 1.684 . S
C1657 C1647 1.723 . S
C1657 C1656 1.396 . S
C1657 C1658 1.394 . S
C1658 C1628 1.723 . S
C1658 C1654 1.397 . S
C1658 C1657 1.394 . S
C1659 H1631 0.982 . S
C1659 H1635 0.979 . S
C1659 H1636 0.977 . S
C1659 C1656 1.453 . S
C1660 H1632 0.979 . S
C1660 H1633 0.980 . S
C1660 H1634 0.983 . S
C1660 C1656 1.684 . S
H1661 C1679 0.948 . S
H1662 C1620 0.948 . S
H1663 C1638 0.979 . S
H1664 C1638 0.980 . S
H1665 C1638 0.983 . S
H1666 C1637 0.982 . S
H1667 C1637 0.979 . S
H1668 C1637 0.977 . S
H1669 C1639 0.948 . S
H1670 C1641 0.947 . S
H1671 C1642 0.948 . S
H1672 C1648 0.982 . S
H1673 C1648 0.979 . S
H1674 C1648 0.977 . S
H1675 C1649 0.979 . S
H1676 C1649 0.980 . S
H1677 C1649 0.983 . S
H1678 C1622 0.947 . S
C1679 C1622 1.392 . S
C1679 C1623 1.419 . S
C1679 H1661 0.948 . S
C1680 C1681 1.391 . S
C1680 C1684 1.391 . S
C1680 H1722 0.948 . S
C1681 C1680 1.391 . S
C1681 C1682 1.391 . S
C1682 C1681 1.391 . S
C1682 H1738 0.947 . S
C1682 C1739 1.392 . S
C1683 C1684 1.391 . S
C1683 C1687 1.397 . S
C1683 C1739 1.419 . S
C1684 C1680 1.391 . S
C1684 C1683 1.391 . S
C1684 C1685 1.399 . S
C1685 C1684 1.399 . S
C1685 C1688 1.396 . S
C1685 C1697 1.453 . S
C1685 C1698 1.684 . S
H1686 C1710 0.948 . S
C1687 C1683 1.397 . S
C1687 C1688 1.394 . S
C1687 C1706 1.723 . S
C1688 C1685 1.396 . S
C1688 C1687 1.394 . S
C1688 C1718 1.723 . S
H1689 C1712 0.947 . S
H1690 C1713 0.948 . S
H1691 C1719 0.982 . S
H1692 C1720 0.979 . S
H1693 C1720 0.980 . S
H1694 C1720 0.983 . S
H1695 C1719 0.979 . S
H1696 C1719 0.977 . S
C1697 C1685 1.453 . S
C1697 H1726 0.982 . S
C1697 H1727 0.979 . S
C1697 H1728 0.977 . S
C1698 C1685 1.684 . S
C1698 H1723 0.979 . S
C1698 H1724 0.980 . S
C1698 H1725 0.983 . S
C1699 C1700 1.391 . S
C1699 C1704 1.391 . S
C1699 H1729 0.948 . S
C1700 C1699 1.391 . S
C1700 C1701 1.391 . S
C1701 C1700 1.391 . S
C1701 C1702 1.392 . S
C1701 H1730 0.947 . S
C1702 C1701 1.392 . S
C1702 C1703 1.419 . S
C1702 H1731 0.948 . S
C1703 C1702 1.419 . S
C1703 C1704 1.391 . S
C1703 C1707 1.397 . S
C1704 C1699 1.391 . S
C1704 C1703 1.391 . S
C1704 C1705 1.399 . S
C1705 C1704 1.399 . S
C1705 C1706 1.396 . S
C1705 C1708 1.453 . S
C1705 C1709 1.684 . S
C1706 C1687 1.723 . S
C1706 C1705 1.396 . S
C1706 C1707 1.394 . S
C1707 C1703 1.397 . S
C1707 C1706 1.394 . S
C1707 C1717 1.723 . S
C1708 C1705 1.453 . S
C1708 H1732 0.982 . S
C1708 H1733 0.979 . S
C1708 H1734 0.977 . S
C1709 C1705 1.684 . S
C1709 H1735 0.979 . S
C1709 H1736 0.980 . S
C1709 H1737 0.983 . S
C1710 H1686 0.948 . S
C1710 C1711 1.391 . S
C1710 C1715 1.391 . S
C1711 C1710 1.391 . S
C1711 C1712 1.391 . S
C1712 H1689 0.947 . S
C1712 C1711 1.391 . S
C1712 C1713 1.392 . S
C1713 H1690 0.948 . S
C1713 C1712 1.392 . S
C1713 C1714 1.419 . S
C1714 C1713 1.419 . S
C1714 C1715 1.391 . S
C1714 C1718 1.397 . S
C1715 C1710 1.391 . S
C1715 C1714 1.391 . S
C1715 C1716 1.399 . S
C1716 C1715 1.399 . S
C1716 C1717 1.396 . S
C1716 C1719 1.453 . S
C1716 C1720 1.684 . S
C1717 C1707 1.723 . S
C1717 C1716 1.396 . S
C1717 C1718 1.394 . S
C1718 C1688 1.723 . S
C1718 C1714 1.397 . S
C1718 C1717 1.394 . S
C1719 H1691 0.982 . S
C1719 H1695 0.979 . S
C1719 H1696 0.977 . S
C1719 C1716 1.453 . S
C1720 H1692 0.979 . S
C1720 H1693 0.980 . S
C1720 H1694 0.983 . S
C1720 C1716 1.684 . S
H1721 C1739 0.948 . S
H1722 C1680 0.948 . S
H1723 C1698 0.979 . S
H1724 C1698 0.980 . S
H1725 C1698 0.983 . S
H1726 C1697 0.982 . S
H1727 C1697 0.979 . S
H1728 C1697 0.977 . S
H1729 C1699 0.948 . S
H1730 C1701 0.947 . S
H1731 C1702 0.948 . S
H1732 C1708 0.982 . S
H1733 C1708 0.979 . S
H1734 C1708 0.977 . S
H1735 C1709 0.979 . S
H1736 C1709 0.980 . S
H1737 C1709 0.983 . S
H1738 C1682 0.947 . S
C1739 C1682 1.392 . S
C1739 C1683 1.419 . S
C1739 H1721 0.948 . S
C1740 C1741 1.391 . S
C1740 C1744 1.391 . S
C1740 H1782 0.948 . S
C1741 C1740 1.391 . S
C1741 C1742 1.391 . S
C1742 C1741 1.391 . S
C1742 H1798 0.947 . S
C1742 C1799 1.392 . S
C1743 C1744 1.391 . S
C1743 C1747 1.397 . S
C1743 C1799 1.419 . S
C1744 C1740 1.391 . S
C1744 C1743 1.391 . S
C1744 C1745 1.399 . S
C1745 C1744 1.399 . S
C1745 C1748 1.396 . S
C1745 C1757 1.453 . S
C1745 C1758 1.684 . S
H1746 C1770 0.948 . S
C1747 C1743 1.397 . S
C1747 C1748 1.394 . S
C1747 C1766 1.723 . S
C1748 C1745 1.396 . S
C1748 C1747 1.394 . S
C1748 C1778 1.723 . S
H1749 C1772 0.947 . S
H1750 C1773 0.948 . S
H1751 C1779 0.982 . S
H1752 C1780 0.979 . S
H1753 C1780 0.980 . S
H1754 C1780 0.983 . S
H1755 C1779 0.979 . S
H1756 C1779 0.977 . S
C1757 C1745 1.453 . S
C1757 H1786 0.982 . S
C1757 H1787 0.979 . S
C1757 H1788 0.977 . S
C1758 C1745 1.684 . S
C1758 H1783 0.979 . S
C1758 H1784 0.980 . S
C1758 H1785 0.983 . S
C1759 C1760 1.391 . S
C1759 C1764 1.391 . S
C1759 H1789 0.948 . S
C1760 C1759 1.391 . S
C1760 C1761 1.391 . S
C1761 C1760 1.391 . S
C1761 C1762 1.392 . S
C1761 H1790 0.947 . S
C1762 C1761 1.392 . S
C1762 C1763 1.419 . S
C1762 H1791 0.948 . S
C1763 C1762 1.419 . S
C1763 C1764 1.391 . S
C1763 C1767 1.397 . S
C1764 C1759 1.391 . S
C1764 C1763 1.391 . S
C1764 C1765 1.399 . S
C1765 C1764 1.399 . S
C1765 C1766 1.396 . S
C1765 C1768 1.453 . S
C1765 C1769 1.684 . S
C1766 C1747 1.723 . S
C1766 C1765 1.396 . S
C1766 C1767 1.394 . S
C1767 C1763 1.397 . S
C1767 C1766 1.394 . S
C1767 C1777 1.723 . S
C1768 C1765 1.453 . S
C1768 H1792 0.982 . S
C1768 H1793 0.979 . S
C1768 H1794 0.977 . S
C1769 C1765 1.684 . S
C1769 H1795 0.979 . S
C1769 H1796 0.980 . S
C1769 H1797 0.983 . S
C1770 H1746 0.948 . S
C1770 C1771 1.391 . S
C1770 C1775 1.391 . S
C1771 C1770 1.391 . S
C1771 C1772 1.391 . S
C1772 H1749 0.947 . S
C1772 C1771 1.391 . S
C1772 C1773 1.392 . S
C1773 H1750 0.948 . S
C1773 C1772 1.392 . S
C1773 C1774 1.419 . S
C1774 C1773 1.419 . S
C1774 C1775 1.391 . S
C1774 C1778 1.397 . S
C1775 C1770 1.391 . S
C1775 C1774 1.391 . S
C1775 C1776 1.399 . S
C1776 C1775 1.399 . S
C1776 C1777 1.396 . S
C1776 C1779 1.453 . S
C1776 C1780 1.684 . S
C1777 C1767 1.723 . S
C1777 C1776 1.396 . S
C1777 C1778 1.394 . S
C1778 C1748 1.723 . S
C1778 C1774 1.397 . S
C1778 C1777 1.394 . S
C1779 H1751 0.982 . S
C1779 H1755 0.979 . S
C1779 H1756 0.977 . S
C1779 C1776 1.453 . S
C1780 H1752 0.979 . S
C1780 H1753 0.980 . S
C1780 H1754 0.983 . S
C1780 C1776 1.684 . S
H1781 C1799 0.948 . S
H1782 C1740 0.948 . S
H1783 C1758 0.979 . S
H1784 C1758 0.980 . S
H1785 C1758 0.983 . S
H1786 C1757 0.982 . S
H1787 C1757 0.979 . S
H1788 C1757 0.977 . S
H1789 C1759 0.948 . S
H1790 C1761 0.947 . S
H1791 C1762 0.948 . S
H1792 C1768 0.982 . S
H1793 C1768 0.979 . S
H1794 C1768 0.977 . S
H1795 C1769 0.979 . S
H1796 C1769 0.980 . S
H1797 C1769 0.983 . S
H1798 C1742 0.947 . S
C1799 C1742 1.392 . S
C1799 C1743 1.419 . S
C1799 H1781 0.948 . S
C1800 C1801 1.391 . S
C1800 C1804 1.391 . S
C1800 H1842 0.948 . S
C1801 C1800 1.391 . S
C1801 C1802 1.391 . S
C1802 C1801 1.391 . S
C1802 H1858 0.947 . S
C1802 C1859 1.392 . S
C1803 C1804 1.391 . S
C1803 C1807 1.397 . S
C1803 C1859 1.419 . S
C1804 C1800 1.391 . S
C1804 C1803 1.391 . S
C1804 C1805 1.399 . S
C1805 C1804 1.399 . S
C1805 C1808 1.396 . S
C1805 C1817 1.453 . S
C1805 C1818 1.684 . S
H1806 C1830 0.948 . S
C1807 C1803 1.397 . S
C1807 C1808 1.394 . S
C1807 C1826 1.723 . S
C1808 C1805 1.396 . S
C1808 C1807 1.394 . S
C1808 C1838 1.723 . S
H1809 C1832 0.947 . S
H1810 C1833 0.948 . S
H1811 C1839 0.982 . S
H1812 C1840 0.979 . S
H1813 C1840 0.980 . S
H1814 C1840 0.983 . S
H1815 C1839 0.979 . S
H1816 C1839 0.977 . S
C1817 C1805 1.453 . S
C1817 H1846 0.982 . S
C1817 H1847 0.979 . S
C1817 H1848 0.977 . S
C1818 C1805 1.684 . S
C1818 H1843 0.979 . S
C1818 H1844 0.980 . S
C1818 H1845 0.983 . S
C1819 C1820 1.391 . S
C1819 C1824 1.391 . S
C1819 H1849 0.948 . S
C1820 C1819 1.391 . S
C1820 C1821 1.391 . S
C1821 C1820 1.391 . S
C1821 C1822 1.392 . S
C1821 H1850 0.947 . S
C1822 C1821 1.392 . S
C1822 C1823 1.419 . S
C1822 H1851 0.948 . S
C1823 C1822 1.419 . S
C1823 C1824 1.391 . S
C1823 C1827 1.397 . S
C1824 C1819 1.391 . S
C1824 C1823 1.391 . S
C1824 C1825 1.399 . S
C1825 C1824 1.399 . S
C1825 C1826 1.396 . S
C1825 C1828 1.453 . S
C1825 C1829 1.684 . S
C1826 C1807 1.723 . S
C1826 C1825 1.396 . S
C1826 C1827 1.394 . S
C1827 C1823 1.397 . S
C1827 C1826 1.394 . S
C1827 C1837 1.723 . S
C1828 C1825 1.453 . S
C1828 H1852 0.982 . S
C1828 H1853 0.979 . S
C1828 H1854 0.977 . S
C1829 C1825 1.684 . S
C1829 H1855 0.979 . S
C1829 H1856 0.980 . S
C1829 H1857 0.983 . S
C1830 H1806 0.948 . S
C1830 C1831 1.391 . S
C1830 C1835 1.391 . S
C1831 C1830 1.391 . S
C1831 C1832 1.391 . S
C1832 H1809 0.947 . S
C1832 C1831 1.391 . S
C1832 C1833 1.392 . S
C1833 H1810 0.948 . S
C1833 C1832 1.392 . S
C1833 C1834 1.419 . S
C1834 C1833 1.419 . S
C1834 C1835 1.391 . S
C1834 C1838 1.397 . S
C1835 C1830 1.391 . S
C1835 C1834 1.391 . S
C1835 C1836 1.399 . S
C1836 C1835 1.399 . S
C1836 C1837 1.396 . S
C1836 C1839 1.453 . S
C1836 C1840 1.684 . S
C1837 C1827 1.723 . S
C1837 C1836 1.396 . S
C1837 C1838 1.394 . S
C1838 C1808 1.723 . S
C1838 C1834 1.397 . S
C1838 C1837 1.394 . S
C1839 H1811 0.982 . S
C1839 H1815 0.979 . S
C1839 H1816 0.977 . S
C1839 C1836 1.453 . S
C1840 H1812 0.979 . S
C1840 H1813 0.980 . S
C1840 H1814 0.983 . S
C1840 C1836 1.684 . S
H1841 C1859 0.948 . S
H1842 C1800 0.948 . S
H1843 C1818 0.979 . S
H1844 C1818 0.980 . S
H1845 C1818 0.983 . S
H1846 C1817 0.982 . S
H1847 C1817 0.979 . S
H1848 C1817 0.977 . S
H1849 C1819 0.948 . S
H1850 C1821 0.947 . S
H1851 C1822 0.948 . S
H1852 C1828 0.982 . S
H1853 C1828 0.979 . S
H1854 C1828 0.977 . S
H1855 C1829 0.979 . S
H1856 C1829 0.980 . S
H1857 C1829 0.983 . S
H1858 C1802 0.947 . S
C1859 C1802 1.392 . S
C1859 C1803 1.419 . S
C1859 H1841 0.948 . S
C1860 C1861 1.391 . S
C1860 C1864 1.391 . S
C1860 H1902 0.948 . S
C1861 C1860 1.391 . S
C1861 C1862 1.391 . S
C1862 C1861 1.391 . S
C1862 H1918 0.947 . S
C1862 C1919 1.392 . S
C1863 C1864 1.391 . S
C1863 C1867 1.397 . S
C1863 C1919 1.419 . S
C1864 C1860 1.391 . S
C1864 C1863 1.391 . S
C1864 C1865 1.399 . S
C1865 C1864 1.399 . S
C1865 C1868 1.396 . S
C1865 C1877 1.453 . S
C1865 C1878 1.684 . S
H1866 C1890 0.948 . S
C1867 C1863 1.397 . S
C1867 C1868 1.394 . S
C1867 C1886 1.723 . S
C1868 C1865 1.396 . S
C1868 C1867 1.394 . S
C1868 C1898 1.723 . S
H1869 C1892 0.947 . S
H1870 C1893 0.948 . S
H1871 C1899 0.982 . S
H1872 C1900 0.979 . S
H1873 C1900 0.980 . S
H1874 C1900 0.983 . S
H1875 C1899 0.979 . S
H1876 C1899 0.977 . S
C1877 C1865 1.453 . S
C1877 H1906 0.982 . S
C1877 H1907 0.979 . S
C1877 H1908 0.977 . S
C1878 C1865 1.684 . S
C1878 H1903 0.979 . S
C1878 H1904 0.980 . S
C1878 H1905 0.983 . S
C1879 C1880 1.391 . S
C1879 C1884 1.391 . S
C1879 H1909 0.948 . S
C1880 C1879 1.391 . S
C1880 C1881 1.391 . S
C1881 C1880 1.391 . S
C1881 C1882 1.392 . S
C1881 H1910 0.947 . S
C1882 C1881 1.392 . S
C1882 C1883 1.419 . S
C1882 H1911 0.948 . S
C1883 C1882 1.419 . S
C1883 C1884 1.391 . S
C1883 C1887 1.397 . S
C1884 C1879 1.391 . S
C1884 C1883 1.391 . S
C1884 C1885 1.399 . S
C1885 C1884 1.399 . S
C1885 C1886 1.396 . S
C1885 C1888 1.453 . S
C1885 C1889 1.684 . S
C1886 C1867 1.723 . S
C1886 C1885 1.396 . S
C1886 C1887 1.394 . S
C1887 C1883 1.397 . S
C1887 C1886 1.394 . S
C1887 C1897 1.723 . S
C1888 C1885 1.453 . S
C1888 H1912 0.982 . S
C1888 H1913 0.979 . S
C1888 H1914 0.977 . S
C1889 C1885 1.684 . S
C1889 H1915 0.979 . S
C1889 H1916 0.980 . S
C1889 H1917 0.983 . S
C1890 H1866 0.948 . S
C1890 C1891 1.391 . S
C1890 C1895 1.391 . S
C1891 C1890 1.391 . S
C1891 C1892 1.391 . S
C1892 H1869 0.947 . S
C1892 C1891 1.391 . S
C1892 C1893 1.392 . S
C1893 H1870 0.948 . S
C1893 C1892 1.392 . S
C1893 C1894 1.419 . S
C1894 C1893 1.419 . S
C1894 C1895 1.391 . S
C1894 C1898 1.397 . S
C1895 C1890 1.391 . S
C1895 C1894 1.391 . S
C1895 C1896 1.399 . S
C1896 C1895 1.399 . S
C1896 C1897 1.396 . S
C1896 C1899 1.453 . S
C1896 C1900 1.684 . S
C1897 C1887 1.723 . S
C1897 C1896 1.396 . S
C1897 C1898 1.394 . S
C1898 C1868 1.723 . S
C1898 C1894 1.397 . S
C1898 C1897 1.394 . S
C1899 H1871 0.982 . S
C1899 H1875 0.979 . S
C1899 H1876 0.977 . S
C1899 C1896 1.453 . S
C1900 H1872 0.979 . S
C1900 H1873 0.980 . S
C1900 H1874 0.983 . S
C1900 C1896 1.684 . S
H1901 C1919 0.948 . S
H1902 C1860 0.948 . S
H1903 C1878 0.979 . S
H1904 C1878 0.980 . S
H1905 C1878 0.983 . S
H1906 C1877 0.982 . S
H1907 C1877 0.979 . S
H1908 C1877 0.977 . S
H1909 C1879 0.948 . S
H1910 C1881 0.947 . S
H1911 C1882 0.948 . S
H1912 C1888 0.982 . S
H1913 C1888 0.979 . S
H1914 C1888 0.977 . S
H1915 C1889 0.979 . S
H1916 C1889 0.980 . S
H1917 C1889 0.983 . S
H1918 C1862 0.947 . S
C1919 C1862 1.392 . S
C1919 C1863 1.419 . S
C1919 H1901 0.948 . S
Cu1920 N1921 1.999 . S
Cu1920 O1926 1.974 1_554 S
Cu1920 N1931 1.985 . S
Cu1920 O1940 1.959 . S
N1921 Cu1920 1.999 . S
N1921 C1923 1.263 1_554 S
N1921 C1925 1.389 . S
N1922 C1923 1.358 . S
N1922 C1924 1.400 . S
C1923 N1921 1.263 1_556 S
C1923 N1922 1.358 . S
C1923 H1929 0.930 . S
C1924 N1922 1.400 . S
C1924 C1925 1.351 1_556 S
C1924 H1941 0.930 . S
C1925 N1921 1.389 . S
C1925 C1924 1.351 1_554 S
C1925 H1930 0.930 . S
O1926 Cu1920 1.974 1_556 S
O1926 C1936 1.282 . S
C1927 O1928 1.261 . S
C1927 O1940 1.251 . S
O1928 C1927 1.261 . S
H1929 C1923 0.930 . S
H1930 C1925 0.930 . S
N1931 Cu1920 1.985 . S
N1931 C1933 1.335 . S
N1931 C1934 1.390 . S
N1932 C1933 1.345 . S
N1932 C1935 1.336 . S
C1933 N1931 1.335 . S
C1933 N1932 1.345 . S
C1933 H1938 0.930 . S
C1934 N1931 1.390 . S
C1934 C1935 1.346 . S
C1934 H1939 0.930 . S
C1935 N1932 1.336 . S
C1935 C1934 1.346 . S
C1935 H1942 0.929 . S
C1936 O1926 1.282 . S
C1936 O1937 1.216 . S
O1937 C1936 1.216 . S
H1938 C1933 0.930 . S
H1939 C1934 0.930 . S
O1940 Cu1920 1.959 . S
O1940 C1927 1.251 . S
H1941 C1924 0.930 . S
H1942 C1935 0.929 . S
Cu1943 N1944 1.999 . S
Cu1943 O1949 1.974 . S
Cu1943 N1954 1.985 1_554 S
Cu1943 O1963 1.959 1_554 S
N1944 Cu1943 1.999 . S
N1944 C1946 1.263 . S
N1944 C1948 1.389 . S
N1945 C1946 1.358 . S
N1945 C1947 1.400 . S
C1946 N1944 1.263 . S
C1946 N1945 1.358 . S
C1946 H1952 0.930 . S
C1947 N1945 1.400 . S
C1947 C1948 1.351 . S
C1947 H1964 0.930 . S
C1948 N1944 1.389 . S
C1948 C1947 1.351 . S
C1948 H1953 0.930 . S
O1949 Cu1943 1.974 . S
O1949 C1959 1.282 . S
C1950 O1951 1.261 . S
C1950 O1963 1.251 . S
O1951 C1950 1.261 . S
H1952 C1946 0.930 . S
H1953 C1948 0.930 . S
N1954 Cu1943 1.985 1_556 S
N1954 C1956 1.335 . S
N1954 C1957 1.390 . S
N1955 C1956 1.345 . S
N1955 C1958 1.336 . S
C1956 N1954 1.335 . S
C1956 N1955 1.345 . S
C1956 H1961 0.930 . S
C1957 N1954 1.390 . S
C1957 C1958 1.346 . S
C1957 H1962 0.930 1_556 S
C1958 N1955 1.336 . S
C1958 C1957 1.346 . S
C1958 H1965 0.929 . S
C1959 O1949 1.282 . S
C1959 O1960 1.216 . S
O1960 C1959 1.216 . S
H1961 C1956 0.930 . S
H1962 C1957 0.930 1_554 S
O1963 Cu1943 1.959 1_556 S
O1963 C1950 1.251 . S
H1964 C1947 0.930 . S
H1965 C1958 0.929 . S
Cu1966 N1967 1.960 1_554 S
Cu1966 O1972 1.926 1_554 S
Cu1966 N1977 2.023 . S
Cu1966 O1986 2.007 . S
N1967 Cu1966 1.960 1_556 S
N1967 C1969 1.263 . S
N1967 C1971 1.389 . S
N1968 C1969 1.358 . S
N1968 C1970 1.400 . S
C1969 N1967 1.263 . S
C1969 N1968 1.358 . S
C1969 H1975 0.930 . S
C1970 N1968 1.400 . S
C1970 C1971 1.351 . S
C1970 H1987 0.930 . S
C1971 N1967 1.389 . S
C1971 C1970 1.351 . S
C1971 H1976 0.930 . S
O1972 Cu1966 1.926 1_556 S
O1972 C1982 1.282 . S
C1973 O1974 1.261 . S
C1973 O1986 1.251 . S
O1974 C1973 1.261 . S
H1975 C1969 0.930 . S
H1976 C1971 0.930 . S
N1977 Cu1966 2.023 . S
N1977 C1979 1.335 . S
N1977 C1980 1.390 . S
N1978 C1979 1.345 . S
N1978 C1981 1.336 . S
C1979 N1977 1.335 . S
C1979 N1978 1.345 . S
C1979 H1984 0.930 . S
C1980 N1977 1.390 . S
C1980 C1981 1.346 . S
C1980 H1985 0.972 . S
C1981 N1978 1.336 . S
C1981 C1980 1.346 . S
C1981 H1988 0.929 . S
C1982 O1972 1.282 . S
C1982 O1983 1.216 . S
O1983 C1982 1.216 . S
H1984 C1979 0.930 . S
H1985 C1980 0.972 . S
O1986 Cu1966 2.007 . S
O1986 C1973 1.251 . S
H1987 C1970 0.930 . S
H1988 C1981 0.929 . S
Cu1989 N1990 2.040 . S
Cu1989 O1995 2.022 . S
Cu1989 N2000 1.947 1_554 S
Cu1989 O2009 1.912 1_554 S
N1990 Cu1989 2.040 . S
N1990 C1992 1.263 . S
N1990 C1994 1.389 . S
N1991 C1992 1.358 . S
N1991 C1993 1.400 . S
C1992 N1990 1.263 . S
C1992 N1991 1.358 . S
C1992 H1998 0.930 . S
C1993 N1991 1.400 . S
C1993 C1994 1.351 . S
C1993 H2010 0.930 . S
C1994 N1990 1.389 . S
C1994 C1993 1.351 . S
C1994 H1999 0.930 . S
O1995 Cu1989 2.022 . S
O1995 C2005 1.282 . S
C1996 O1997 1.261 . S
C1996 O2009 1.251 . S
O1997 C1996 1.261 . S
H1998 C1992 0.930 . S
H1999 C1994 0.930 . S
N2000 Cu1989 1.947 1_556 S
N2000 C2002 1.335 . S
N2000 C2003 1.390 . S
N2001 C2002 1.345 . S
N2001 C2004 1.336 . S
C2002 N2000 1.335 . S
C2002 N2001 1.345 . S
C2002 H2007 0.930 . S
C2003 N2000 1.390 . S
C2003 C2004 1.346 . S
C2003 H2008 0.872 1_556 S
C2004 N2001 1.336 . S
C2004 C2003 1.346 . S
C2004 H2011 0.929 . S
C2005 O1995 1.282 . S
C2005 O2006 1.216 . S
O2006 C2005 1.216 . S
H2007 C2002 0.930 . S
H2008 C2003 0.872 1_554 S
O2009 Cu1989 1.912 1_556 S
O2009 C1996 1.251 . S
H2010 C1993 0.930 . S
H2011 C2004 0.929 . S
Cu2012 N2013 1.999 . S
Cu2012 O2018 1.974 . S
Cu2012 N2023 1.985 1_455 S
Cu2012 O2032 1.959 1_455 S
N2013 Cu2012 1.999 . S
N2013 C2015 1.263 . S
N2013 C2017 1.389 . S
N2014 C2015 1.358 . S
N2014 C2016 1.400 . S
C2015 N2013 1.263 . S
C2015 N2014 1.358 . S
C2015 H2021 0.930 . S
C2016 N2014 1.400 . S
C2016 C2017 1.351 . S
C2016 H2033 0.930 . S
C2017 N2013 1.389 . S
C2017 C2016 1.351 . S
C2017 H2022 0.930 . S
O2018 Cu2012 1.974 . S
O2018 C2028 1.282 . S
C2019 O2020 1.261 . S
C2019 O2032 1.251 . S
O2020 C2019 1.261 . S
H2021 C2015 0.930 . S
H2022 C2017 0.930 . S
N2023 Cu2012 1.985 1_655 S
N2023 C2025 1.335 . S
N2023 C2026 1.390 1_655 S
N2024 C2025 1.345 . S
N2024 C2027 1.336 . S
C2025 N2023 1.335 . S
C2025 N2024 1.345 . S
C2025 H2030 0.930 . S
C2026 N2023 1.390 1_455 S
C2026 C2027 1.345 1_455 S
C2026 H2031 0.931 . S
C2027 N2024 1.336 . S
C2027 C2026 1.345 1_655 S
C2027 H2034 0.929 . S
C2028 O2018 1.282 . S
C2028 O2029 1.216 . S
O2029 C2028 1.216 . S
H2030 C2025 0.930 . S
H2031 C2026 0.931 . S
O2032 Cu2012 1.959 1_655 S
O2032 C2019 1.251 . S
H2033 C2016 0.930 . S
H2034 C2027 0.929 . S
Cu2035 N2036 1.999 . S
Cu2035 O2041 1.974 . S
Cu2035 N2046 1.985 1_545 S
Cu2035 O2055 1.959 1_545 S
N2036 Cu2035 1.999 . S
N2036 C2038 1.263 . S
N2036 C2040 1.389 . S
N2037 C2038 1.358 . S
N2037 C2039 1.400 . S
C2038 N2036 1.263 . S
C2038 N2037 1.358 . S
C2038 H2044 0.930 . S
C2039 N2037 1.400 . S
C2039 C2040 1.351 . S
C2039 H2056 0.930 . S
C2040 N2036 1.389 . S
C2040 C2039 1.351 . S
C2040 H2045 0.930 . S
O2041 Cu2035 1.974 . S
O2041 C2051 1.282 . S
C2042 O2043 1.261 . S
C2042 O2055 1.251 . S
O2043 C2042 1.261 . S
H2044 C2038 0.930 . S
H2045 C2040 0.930 . S
N2046 Cu2035 1.985 1_565 S
N2046 C2048 1.335 . S
N2046 C2049 1.390 . S
N2047 C2048 1.345 . S
N2047 C2050 1.336 . S
C2048 N2046 1.335 . S
C2048 N2047 1.345 . S
C2048 H2053 0.930 . S
C2049 N2046 1.390 . S
C2049 C2050 1.346 . S
C2049 H2054 0.930 1_565 S
C2050 N2047 1.336 . S
C2050 C2049 1.346 . S
C2050 H2057 0.929 . S
C2051 O2041 1.282 . S
C2051 O2052 1.216 . S
O2052 C2051 1.216 . S
H2053 C2048 0.930 . S
H2054 C2049 0.930 1_545 S
O2055 Cu2035 1.959 1_565 S
O2055 C2042 1.251 . S
H2056 C2039 0.930 . S
H2057 C2050 0.929 . S
Cu2058 N2059 2.002 1_455 S
Cu2058 O2064 1.977 1_455 S
Cu2058 N2069 1.982 . S
Cu2058 O2078 1.956 . S
N2059 Cu2058 2.002 1_655 S
N2059 C2061 1.263 . S
N2059 C2063 1.389 . S
N2060 C2061 1.358 . S
N2060 C2062 1.400 . S
C2061 N2059 1.263 . S
C2061 N2060 1.358 . S
C2061 H2067 0.930 . S
C2062 N2060 1.400 . S
C2062 C2063 1.351 . S
C2062 H2079 0.930 . S
C2063 N2059 1.389 . S
C2063 C2062 1.351 . S
C2063 H2068 0.930 . S
O2064 Cu2058 1.977 1_655 S
O2064 C2074 1.282 . S
C2065 O2066 1.261 . S
C2065 O2078 1.251 . S
O2066 C2065 1.261 . S
H2067 C2061 0.930 . S
H2068 C2063 0.930 . S
N2069 Cu2058 1.982 . S
N2069 C2071 1.335 . S
N2069 C2072 1.390 . S
N2070 C2071 1.345 . S
N2070 C2073 1.336 . S
C2071 N2069 1.335 . S
C2071 N2070 1.345 . S
C2071 H2076 0.930 . S
C2072 N2069 1.390 . S
C2072 C2073 1.346 . S
C2072 H2077 0.930 . S
C2073 N2070 1.336 . S
C2073 C2072 1.346 . S
C2073 H2080 0.929 . S
C2074 O2064 1.282 . S
C2074 O2075 1.216 . S
O2075 C2074 1.216 . S
H2076 C2071 0.930 . S
H2077 C2072 0.930 . S
O2078 Cu2058 1.956 . S
O2078 C2065 1.251 . S
H2079 C2062 0.930 . S
H2080 C2073 0.929 . S
Cu2081 N2082 1.987 1_565 S
Cu2081 O2087 1.958 1_565 S
Cu2081 N2092 1.997 . S
Cu2081 O2101 1.975 . S
N2082 Cu2081 1.987 1_545 S
N2082 C2084 1.263 . S
N2082 C2086 1.389 . S
N2083 C2084 1.358 . S
N2083 C2085 1.400 . S
C2084 N2082 1.263 . S
C2084 N2083 1.358 . S
C2084 H2090 0.930 . S
C2085 N2083 1.400 . S
C2085 C2086 1.351 . S
C2085 H2102 0.930 . S
C2086 N2082 1.389 . S
C2086 C2085 1.351 . S
C2086 H2091 0.930 . S
O2087 Cu2081 1.958 1_545 S
O2087 C2097 1.282 . S
C2088 O2089 1.261 . S
C2088 O2101 1.251 . S
O2089 C2088 1.261 . S
H2090 C2084 0.930 . S
H2091 C2086 0.930 . S
N2092 Cu2081 1.997 . S
N2092 C2094 1.335 . S
N2092 C2095 1.390 . S
N2093 C2094 1.345 . S
N2093 C2096 1.336 . S
C2094 N2092 1.335 . S
C2094 N2093 1.345 . S
C2094 H2099 0.930 . S
C2095 N2092 1.390 . S
C2095 C2096 1.346 . S
C2095 H2100 0.930 . S
C2096 N2093 1.336 . S
C2096 C2095 1.346 . S
C2096 H2103 0.929 . S
C2097 O2087 1.282 . S
C2097 O2098 1.216 . S
O2098 C2097 1.216 . S
H2099 C2094 0.930 . S
H2100 C2095 0.930 . S
O2101 Cu2081 1.975 . S
O2101 C2088 1.251 . S
H2102 C2085 0.930 . S
H2103 C2096 0.929 . S
Cu2104 N2105 1.999 . S
Cu2104 O2110 1.974 . S
Cu2104 N2115 1.985 1_455 S
Cu2104 O2124 1.959 1_455 S
N2105 Cu2104 1.999 . S
N2105 C2107 1.263 . S
N2105 C2109 1.389 . S
N2106 C2107 1.358 . S
N2106 C2108 1.400 . S
C2107 N2105 1.263 . S
C2107 N2106 1.358 . S
C2107 H2113 0.930 . S
C2108 N2106 1.400 . S
C2108 C2109 1.351 . S
C2108 H2125 0.930 . S
C2109 N2105 1.389 . S
C2109 C2108 1.351 . S
C2109 H2114 0.930 . S
O2110 Cu2104 1.974 . S
O2110 C2120 1.282 . S
C2111 O2112 1.261 . S
C2111 O2124 1.251 . S
O2112 C2111 1.261 . S
H2113 C2107 0.930 . S
H2114 C2109 0.930 . S
N2115 Cu2104 1.985 1_655 S
N2115 C2117 1.335 . S
N2115 C2118 1.399 . S
N2116 C2117 1.345 . S
N2116 C2119 1.336 . S
C2117 N2115 1.335 . S
C2117 N2116 1.345 . S
C2117 H2122 0.930 . S
C2118 N2115 1.399 . S
C2118 C2119 1.383 . S
C2118 H2123 0.893 1_655 S
C2119 N2116 1.336 . S
C2119 C2118 1.383 . S
C2119 H2126 0.929 . S
C2120 O2110 1.282 . S
C2120 O2121 1.216 . S
O2121 C2120 1.216 . S
H2122 C2117 0.930 . S
H2123 C2118 0.893 1_455 S
O2124 Cu2104 1.959 1_655 S
O2124 C2111 1.251 . S
H2125 C2108 0.930 . S
H2126 C2119 0.929 . S
Cu2127 N2128 1.999 . S
Cu2127 O2133 1.974 . S
Cu2127 N2138 1.985 1_545 S
Cu2127 O2147 1.959 1_545 S
N2128 Cu2127 1.999 . S
N2128 C2130 1.263 . S
N2128 C2132 1.389 . S
N2129 C2130 1.358 . S
N2129 C2131 1.400 . S
C2130 N2128 1.263 . S
C2130 N2129 1.358 . S
C2130 H2136 0.930 . S
C2131 N2129 1.400 . S
C2131 C2132 1.351 . S
C2131 H2148 0.930 . S
C2132 N2128 1.389 . S
C2132 C2131 1.351 . S
C2132 H2137 0.930 . S
O2133 Cu2127 1.974 . S
O2133 C2143 1.282 . S
C2134 O2135 1.261 . S
C2134 O2147 1.251 . S
O2135 C2134 1.261 . S
H2136 C2130 0.930 . S
H2137 C2132 0.930 . S
N2138 Cu2127 1.985 1_565 S
N2138 C2140 1.335 . S
N2138 C2141 1.378 1_565 S
N2139 C2140 1.345 . S
N2139 C2142 1.336 . S
C2140 N2138 1.335 . S
C2140 N2139 1.345 . S
C2140 H2145 0.930 . S
C2141 N2138 1.378 1_545 S
C2141 C2142 1.279 1_545 S
C2141 H2146 1.001 . S
C2142 N2139 1.336 . S
C2142 C2141 1.279 1_565 S
C2142 H2149 0.929 . S
C2143 O2133 1.282 . S
C2143 O2144 1.216 . S
O2144 C2143 1.216 . S
H2145 C2140 0.930 . S
H2146 C2141 1.001 . S
O2147 Cu2127 1.959 1_565 S
O2147 C2134 1.251 . S
H2148 C2131 0.930 . S
H2149 C2142 0.929 . S
Cu2150 N2151 1.999 . S
Cu2150 O2156 1.974 . S
Cu2150 N2161 1.985 . S
Cu2150 O2170 1.959 . S
N2151 Cu2150 1.999 . S
N2151 C2153 1.263 1_455 S
N2151 C2155 1.389 . S
N2152 C2153 1.358 . S
N2152 C2154 1.400 . S
C2153 N2151 1.263 1_655 S
C2153 N2152 1.358 . S
C2153 H2159 0.930 . S
C2154 N2152 1.400 . S
C2154 C2155 1.351 1_655 S
C2154 H2171 0.930 . S
C2155 N2151 1.389 . S
C2155 C2154 1.351 1_455 S
C2155 H2160 0.930 . S
O2156 Cu2150 1.974 . S
O2156 C2166 1.282 1_455 S
C2157 O2158 1.261 . S
C2157 O2170 1.251 . S
O2158 C2157 1.261 . S
H2159 C2153 0.930 . S
H2160 C2155 0.930 . S
N2161 Cu2150 1.985 . S
N2161 C2163 1.335 . S
N2161 C2164 1.390 . S
N2162 C2163 1.345 . S
N2162 C2165 1.336 . S
C2163 N2161 1.335 . S
C2163 N2162 1.345 . S
C2163 H2168 0.930 . S
C2164 N2161 1.390 . S
C2164 C2165 1.346 . S
C2164 H2169 0.930 . S
C2165 N2162 1.336 . S
C2165 C2164 1.346 . S
C2165 H2172 0.929 . S
C2166 O2156 1.282 1_655 S
C2166 O2167 1.216 1_655 S
O2167 C2166 1.216 1_455 S
H2168 C2163 0.930 . S
H2169 C2164 0.930 . S
O2170 Cu2150 1.959 . S
O2170 C2157 1.251 . S
H2171 C2154 0.930 . S
H2172 C2165 0.929 . S
Cu2173 N2174 1.999 . S
Cu2173 O2179 1.974 . S
Cu2173 N2184 2.028 . S
Cu2173 O2193 1.959 1_545 S
N2174 Cu2173 1.999 . S
N2174 C2176 1.263 . S
N2174 C2178 1.389 . S
N2175 C2176 1.358 . S
N2175 C2177 1.400 . S
C2176 N2174 1.263 . S
C2176 N2175 1.358 . S
C2176 H2182 0.930 . S
C2177 N2175 1.400 . S
C2177 C2178 1.351 . S
C2177 H2194 0.930 . S
C2178 N2174 1.389 . S
C2178 C2177 1.351 . S
C2178 H2183 0.930 . S
O2179 Cu2173 1.974 . S
O2179 C2189 1.282 . S
C2180 O2181 1.254 1_565 S
C2180 O2193 1.251 . S
O2181 C2180 1.254 1_545 S
H2182 C2176 0.930 . S
H2183 C2178 0.930 . S
N2184 Cu2173 2.028 . S
N2184 C2186 1.269 1_545 S
N2184 C2187 1.407 . S
N2185 C2186 1.345 . S
N2185 C2188 1.336 . S
C2186 N2184 1.269 1_565 S
C2186 N2185 1.345 . S
C2186 H2191 0.930 . S
C2187 N2184 1.407 . S
C2187 C2188 1.346 1_545 S
C2187 H2192 0.930 . S
C2188 N2185 1.336 . S
C2188 C2187 1.346 1_565 S
C2188 H2195 0.929 . S
C2189 O2179 1.282 . S
C2189 O2190 1.216 . S
O2190 C2189 1.216 . S
H2191 C2186 0.930 . S
H2192 C2187 0.930 . S
O2193 Cu2173 1.959 1_565 S
O2193 C2180 1.251 . S
H2194 C2177 0.930 . S
H2195 C2188 0.929 . S
Cu2196 N2197 1.999 . S
Cu2196 O2202 1.974 . S
Cu2196 N2207 1.985 . S
Cu2196 O2216 1.959 . S
N2197 Cu2196 1.999 . S
N2197 C2199 1.263 . S
N2197 C2201 1.389 . S
N2198 C2199 1.358 . S
N2198 C2200 1.400 . S
C2199 N2197 1.263 . S
C2199 N2198 1.358 . S
C2199 H2205 0.930 . S
C2200 N2198 1.400 . S
C2200 C2201 1.351 . S
C2200 H2217 0.930 . S
C2201 N2197 1.389 . S
C2201 C2200 1.351 . S
C2201 H2206 0.930 . S
O2202 Cu2196 1.974 . S
O2202 C2212 1.282 . S
C2203 O2204 1.261 . S
C2203 O2216 1.251 . S
O2204 C2203 1.261 . S
H2205 C2199 0.930 . S
H2206 C2201 0.930 . S
N2207 Cu2196 1.985 . S
N2207 C2209 1.335 . S
N2207 C2210 1.390 . S
N2208 C2209 1.345 . S
N2208 C2211 1.336 . S
C2209 N2207 1.335 . S
C2209 N2208 1.345 . S
C2209 H2214 0.930 . S
C2210 N2207 1.390 . S
C2210 C2211 1.346 . S
C2210 H2215 0.930 . S
C2211 N2208 1.336 . S
C2211 C2210 1.346 . S
C2211 H2218 0.929 . S
C2212 O2202 1.282 . S
C2212 O2213 1.216 . S
O2213 C2212 1.216 . S
H2214 C2209 0.930 . S
H2215 C2210 0.930 . S
O2216 Cu2196 1.959 . S
O2216 C2203 1.251 . S
H2217 C2200 0.930 . S
H2218 C2211 0.929 . S
Cu2219 N2220 1.999 . S
Cu2219 O2225 1.974 . S
Cu2219 N2230 1.985 . S
Cu2219 O2239 1.959 . S
N2220 Cu2219 1.999 . S
N2220 C2222 1.263 . S
N2220 C2224 1.389 . S
N2221 C2222 1.358 . S
N2221 C2223 1.400 . S
C2222 N2220 1.263 . S
C2222 N2221 1.358 . S
C2222 H2228 0.930 . S
C2223 N2221 1.400 . S
C2223 C2224 1.351 . S
C2223 H2240 0.930 . S
C2224 N2220 1.389 . S
C2224 C2223 1.351 . S
C2224 H2229 0.930 . S
O2225 Cu2219 1.974 . S
O2225 C2235 1.282 . S
C2226 O2227 1.261 . S
C2226 O2239 1.251 . S
O2227 C2226 1.261 . S
H2228 C2222 0.930 . S
H2229 C2224 0.930 . S
N2230 Cu2219 1.985 . S
N2230 C2232 1.335 . S
N2230 C2233 1.390 . S
N2231 C2232 1.345 . S
N2231 C2234 1.336 . S
C2232 N2230 1.335 . S
C2232 N2231 1.345 . S
C2232 H2237 0.930 . S
C2233 N2230 1.390 . S
C2233 C2234 1.346 . S
C2233 H2238 0.930 . S
C2234 N2231 1.336 . S
C2234 C2233 1.346 . S
C2234 H2241 0.929 . S
C2235 O2225 1.282 . S
C2235 O2236 1.216 . S
O2236 C2235 1.216 . S
H2237 C2232 0.930 . S
H2238 C2233 0.930 . S
O2239 Cu2219 1.959 . S
O2239 C2226 1.251 . S
H2240 C2223 0.930 . S
H2241 C2234 0.929 . S
Cu2242 N2243 1.999 . S
Cu2242 O2248 1.974 . S
Cu2242 N2253 1.985 . S
Cu2242 O2262 1.959 . S
N2243 Cu2242 1.999 . S
N2243 C2245 1.263 . S
N2243 C2247 1.389 . S
N2244 C2245 1.358 . S
N2244 C2246 1.400 . S
C2245 N2243 1.263 . S
C2245 N2244 1.358 . S
C2245 H2251 0.930 . S
C2246 N2244 1.400 . S
C2246 C2247 1.351 . S
C2246 H2263 0.930 . S
C2247 N2243 1.389 . S
C2247 C2246 1.351 . S
C2247 H2252 0.930 . S
O2248 Cu2242 1.974 . S
O2248 C2258 1.282 . S
C2249 O2250 1.261 . S
C2249 O2262 1.251 . S
O2250 C2249 1.261 . S
H2251 C2245 0.930 . S
H2252 C2247 0.930 . S
N2253 Cu2242 1.985 . S
N2253 C2255 1.335 . S
N2253 C2256 1.390 . S
N2254 C2255 1.345 . S
N2254 C2257 1.336 . S
C2255 N2253 1.335 . S
C2255 N2254 1.345 . S
C2255 H2260 0.930 . S
C2256 N2253 1.390 . S
C2256 C2257 1.346 . S
C2256 H2261 0.930 . S
C2257 N2254 1.336 . S
C2257 C2256 1.346 . S
C2257 H2264 0.929 . S
C2258 O2248 1.282 . S
C2258 O2259 1.216 . S
O2259 C2258 1.216 . S
H2260 C2255 0.930 . S
H2261 C2256 0.930 . S
O2262 Cu2242 1.959 . S
O2262 C2249 1.251 . S
H2263 C2246 0.930 . S
H2264 C2257 0.929 . S
Cu2265 N2266 1.999 . S
Cu2265 O2271 1.974 . S
Cu2265 N2276 1.985 . S
Cu2265 O2285 1.959 . S
N2266 Cu2265 1.999 . S
N2266 C2268 1.263 . S
N2266 C2270 1.389 . S
N2267 C2268 1.358 . S
N2267 C2269 1.400 . S
C2268 N2266 1.263 . S
C2268 N2267 1.358 . S
C2268 H2274 0.930 . S
C2269 N2267 1.400 . S
C2269 C2270 1.351 . S
C2269 H2286 0.930 . S
C2270 N2266 1.389 . S
C2270 C2269 1.351 . S
C2270 H2275 0.930 . S
O2271 Cu2265 1.974 . S
O2271 C2281 1.282 . S
C2272 O2273 1.261 . S
C2272 O2285 1.251 . S
O2273 C2272 1.261 . S
H2274 C2268 0.930 . S
H2275 C2270 0.930 . S
N2276 Cu2265 1.985 . S
N2276 C2278 1.335 . S
N2276 C2279 1.390 . S
N2277 C2278 1.345 . S
N2277 C2280 1.336 . S
C2278 N2276 1.335 . S
C2278 N2277 1.345 . S
C2278 H2283 0.930 . S
C2279 N2276 1.390 . S
C2279 C2280 1.346 . S
C2279 H2284 0.930 . S
C2280 N2277 1.336 . S
C2280 C2279 1.346 . S
C2280 H2287 0.929 . S
C2281 O2271 1.282 . S
C2281 O2282 1.216 . S
O2282 C2281 1.216 . S
H2283 C2278 0.930 . S
H2284 C2279 0.930 . S
O2285 Cu2265 1.959 . S
O2285 C2272 1.251 . S
H2286 C2269 0.930 . S
H2287 C2280 0.929 . S
Cu2288 N2289 1.999 . S
Cu2288 O2294 1.974 . S
Cu2288 N2299 1.985 . S
Cu2288 O2308 1.959 . S
N2289 Cu2288 1.999 . S
N2289 C2291 1.263 . S
N2289 C2293 1.389 . S
N2290 C2291 1.358 . S
N2290 C2292 1.400 . S
C2291 N2289 1.263 . S
C2291 N2290 1.358 . S
C2291 H2297 0.930 . S
C2292 N2290 1.400 . S
C2292 C2293 1.351 . S
C2292 H2309 0.930 . S
C2293 N2289 1.389 . S
C2293 C2292 1.351 . S
C2293 H2298 0.930 . S
O2294 Cu2288 1.974 . S
O2294 C2304 1.282 . S
C2295 O2296 1.261 . S
C2295 O2308 1.251 . S
O2296 C2295 1.261 . S
H2297 C2291 0.930 . S
H2298 C2293 0.930 . S
N2299 Cu2288 1.985 . S
N2299 C2301 1.335 . S
N2299 C2302 1.390 . S
N2300 C2301 1.345 . S
N2300 C2303 1.336 . S
C2301 N2299 1.335 . S
C2301 N2300 1.345 . S
C2301 H2306 0.930 . S
C2302 N2299 1.390 . S
C2302 C2303 1.346 . S
C2302 H2307 0.930 . S
C2303 N2300 1.336 . S
C2303 C2302 1.346 . S
C2303 H2310 0.929 . S
C2304 O2294 1.282 . S
C2304 O2305 1.216 . S
O2305 C2304 1.216 . S
H2306 C2301 0.930 . S
H2307 C2302 0.930 . S
O2308 Cu2288 1.959 . S
O2308 C2295 1.251 . S
H2309 C2292 0.930 . S
H2310 C2303 0.929 . S
Cu2311 N2312 1.999 . S
Cu2311 O2317 1.974 . S
Cu2311 N2322 1.985 . S
Cu2311 O2331 1.959 . S
N2312 Cu2311 1.999 . S
N2312 C2314 1.263 . S
N2312 C2316 1.389 . S
N2313 C2314 1.358 . S
N2313 C2315 1.400 . S
C2314 N2312 1.263 . S
C2314 N2313 1.358 . S
C2314 H2320 0.930 . S
C2315 N2313 1.400 . S
C2315 C2316 1.351 . S
C2315 H2332 0.930 . S
C2316 N2312 1.389 . S
C2316 C2315 1.351 . S
C2316 H2321 0.930 . S
O2317 Cu2311 1.974 . S
O2317 C2327 1.282 . S
C2318 O2319 1.261 . S
C2318 O2331 1.251 . S
O2319 C2318 1.261 . S
H2320 C2314 0.930 . S
H2321 C2316 0.930 . S
N2322 Cu2311 1.985 . S
N2322 C2324 1.335 . S
N2322 C2325 1.390 . S
N2323 C2324 1.345 . S
N2323 C2326 1.336 . S
C2324 N2322 1.335 . S
C2324 N2323 1.345 . S
C2324 H2329 0.930 . S
C2325 N2322 1.390 . S
C2325 C2326 1.346 . S
C2325 H2330 0.930 . S
C2326 N2323 1.336 . S
C2326 C2325 1.346 . S
C2326 H2333 0.929 . S
C2327 O2317 1.282 . S
C2327 O2328 1.216 . S
O2328 C2327 1.216 . S
H2329 C2324 0.930 . S
H2330 C2325 0.930 . S
O2331 Cu2311 1.959 . S
O2331 C2318 1.251 . S
H2332 C2315 0.930 . S
H2333 C2326 0.929 . S
Cu2334 N2335 1.999 . S
Cu2334 O2340 1.974 . S
Cu2334 N2345 1.985 . S
Cu2334 O2354 1.959 . S
N2335 Cu2334 1.999 . S
N2335 C2337 1.263 . S
N2335 C2339 1.389 . S
N2336 C2337 1.358 . S
N2336 C2338 1.400 . S
C2337 N2335 1.263 . S
C2337 N2336 1.358 . S
C2337 H2343 0.930 . S
C2338 N2336 1.400 . S
C2338 C2339 1.351 . S
C2338 H2355 0.930 . S
C2339 N2335 1.389 . S
C2339 C2338 1.351 . S
C2339 H2344 0.930 . S
O2340 Cu2334 1.974 . S
O2340 C2350 1.282 . S
C2341 O2342 1.261 . S
C2341 O2354 1.251 . S
O2342 C2341 1.261 . S
H2343 C2337 0.930 . S
H2344 C2339 0.930 . S
N2345 Cu2334 1.985 . S
N2345 C2347 1.335 . S
N2345 C2348 1.390 . S
N2346 C2347 1.345 . S
N2346 C2349 1.336 . S
C2347 N2345 1.335 . S
C2347 N2346 1.345 . S
C2347 H2352 0.930 . S
C2348 N2345 1.390 . S
C2348 C2349 1.346 . S
C2348 H2353 0.930 . S
C2349 N2346 1.336 . S
C2349 C2348 1.346 . S
C2349 H2356 0.929 . S
C2350 O2340 1.282 . S
C2350 O2351 1.216 . S
O2351 C2350 1.216 . S
H2352 C2347 0.930 . S
H2353 C2348 0.930 . S
O2354 Cu2334 1.959 . S
O2354 C2341 1.251 . S
H2355 C2338 0.930 . S
H2356 C2349 0.929 . S
Cu2357 N2358 1.999 . S
Cu2357 O2363 1.974 . S
Cu2357 N2368 1.985 . S
Cu2357 O2377 1.959 . S
N2358 Cu2357 1.999 . S
N2358 C2360 1.263 . S
N2358 C2362 1.389 . S
N2359 C2360 1.358 . S
N2359 C2361 1.400 . S
C2360 N2358 1.263 . S
C2360 N2359 1.358 . S
C2360 H2366 0.930 . S
C2361 N2359 1.400 . S
C2361 C2362 1.351 . S
C2361 H2378 0.930 . S
C2362 N2358 1.389 . S
C2362 C2361 1.351 . S
C2362 H2367 0.930 . S
O2363 Cu2357 1.974 . S
O2363 C2373 1.282 . S
C2364 O2365 1.261 . S
C2364 O2377 1.251 . S
O2365 C2364 1.261 . S
H2366 C2360 0.930 . S
H2367 C2362 0.930 . S
N2368 Cu2357 1.985 . S
N2368 C2370 1.335 . S
N2368 C2371 1.390 . S
N2369 C2370 1.345 . S
N2369 C2372 1.336 . S
C2370 N2368 1.335 . S
C2370 N2369 1.345 . S
C2370 H2375 0.930 . S
C2371 N2368 1.390 . S
C2371 C2372 1.346 . S
C2371 H2376 0.930 . S
C2372 N2369 1.336 . S
C2372 C2371 1.346 . S
C2372 H2379 0.929 . S
C2373 O2363 1.282 . S
C2373 O2374 1.216 . S
O2374 C2373 1.216 . S
H2375 C2370 0.930 . S
H2376 C2371 0.930 . S
O2377 Cu2357 1.959 . S
O2377 C2364 1.251 . S
H2378 C2361 0.930 . S
H2379 C2372 0.929 . S
Cu2380 N2381 1.999 . S
Cu2380 O2386 1.974 . S
Cu2380 N2391 1.985 . S
Cu2380 O2400 1.959 . S
N2381 Cu2380 1.999 . S
N2381 C2383 1.263 . S
N2381 C2385 1.389 . S
N2382 C2383 1.358 . S
N2382 C2384 1.400 . S
C2383 N2381 1.263 . S
C2383 N2382 1.358 . S
C2383 H2389 0.930 . S
C2384 N2382 1.400 . S
C2384 C2385 1.351 . S
C2384 H2401 0.930 . S
C2385 N2381 1.389 . S
C2385 C2384 1.351 . S
C2385 H2390 0.930 . S
O2386 Cu2380 1.974 . S
O2386 C2396 1.282 . S
C2387 O2388 1.261 . S
C2387 O2400 1.251 . S
O2388 C2387 1.261 . S
H2389 C2383 0.930 . S
H2390 C2385 0.930 . S
N2391 Cu2380 1.985 . S
N2391 C2393 1.335 . S
N2391 C2394 1.390 . S
N2392 C2393 1.345 . S
N2392 C2395 1.336 . S
C2393 N2391 1.335 . S
C2393 N2392 1.345 . S
C2393 H2398 0.930 . S
C2394 N2391 1.390 . S
C2394 C2395 1.346 . S
C2394 H2399 0.930 . S
C2395 N2392 1.336 . S
C2395 C2394 1.346 . S
C2395 H2402 0.929 . S
C2396 O2386 1.282 . S
C2396 O2397 1.216 . S
O2397 C2396 1.216 . S
H2398 C2393 0.930 . S
H2399 C2394 0.930 . S
O2400 Cu2380 1.959 . S
O2400 C2387 1.251 . S
H2401 C2384 0.930 . S
H2402 C2395 0.929 . S
Cu2403 N2404 1.999 . S
Cu2403 O2409 1.974 . S
Cu2403 N2414 1.985 . S
Cu2403 O2423 1.959 . S
N2404 Cu2403 1.999 . S
N2404 C2406 1.263 . S
N2404 C2408 1.389 . S
N2405 C2406 1.358 . S
N2405 C2407 1.400 . S
C2406 N2404 1.263 . S
C2406 N2405 1.358 . S
C2406 H2412 0.930 . S
C2407 N2405 1.400 . S
C2407 C2408 1.351 . S
C2407 H2424 0.930 . S
C2408 N2404 1.389 . S
C2408 C2407 1.351 . S
C2408 H2413 0.930 . S
O2409 Cu2403 1.974 . S
O2409 C2419 1.282 . S
C2410 O2411 1.261 . S
C2410 O2423 1.251 . S
O2411 C2410 1.261 . S
H2412 C2406 0.930 . S
H2413 C2408 0.930 . S
N2414 Cu2403 1.985 . S
N2414 C2416 1.335 . S
N2414 C2417 1.390 . S
N2415 C2416 1.345 . S
N2415 C2418 1.336 . S
C2416 N2414 1.335 . S
C2416 N2415 1.345 . S
C2416 H2421 0.930 . S
C2417 N2414 1.390 . S
C2417 C2418 1.346 . S
C2417 H2422 0.930 . S
C2418 N2415 1.336 . S
C2418 C2417 1.346 . S
C2418 H2425 0.929 . S
C2419 O2409 1.282 . S
C2419 O2420 1.216 . S
O2420 C2419 1.216 . S
H2421 C2416 0.930 . S
H2422 C2417 0.930 . S
O2423 Cu2403 1.959 . S
O2423 C2410 1.251 . S
H2424 C2407 0.930 . S
H2425 C2418 0.929 . S
Cu2426 N2427 1.999 . S
Cu2426 O2432 1.974 . S
Cu2426 N2437 1.985 . S
Cu2426 O2446 1.959 . S
N2427 Cu2426 1.999 . S
N2427 C2429 1.263 . S
N2427 C2431 1.389 . S
N2428 C2429 1.358 . S
N2428 C2430 1.400 . S
C2429 N2427 1.263 . S
C2429 N2428 1.358 . S
C2429 H2435 0.930 . S
C2430 N2428 1.400 . S
C2430 C2431 1.351 . S
C2430 H2447 0.930 . S
C2431 N2427 1.389 . S
C2431 C2430 1.351 . S
C2431 H2436 0.930 . S
O2432 Cu2426 1.974 . S
O2432 C2442 1.282 . S
C2433 O2434 1.261 . S
C2433 O2446 1.251 . S
O2434 C2433 1.261 . S
H2435 C2429 0.930 . S
H2436 C2431 0.930 . S
N2437 Cu2426 1.985 . S
N2437 C2439 1.335 . S
N2437 C2440 1.390 . S
N2438 C2439 1.345 . S
N2438 C2441 1.336 . S
C2439 N2437 1.335 . S
C2439 N2438 1.345 . S
C2439 H2444 0.930 . S
C2440 N2437 1.390 . S
C2440 C2441 1.346 . S
C2440 H2445 0.930 . S
C2441 N2438 1.336 . S
C2441 C2440 1.346 . S
C2441 H2448 0.929 . S
C2442 O2432 1.282 . S
C2442 O2443 1.216 . S
O2443 C2442 1.216 . S
H2444 C2439 0.930 . S
H2445 C2440 0.930 . S
O2446 Cu2426 1.959 . S
O2446 C2433 1.251 . S
H2447 C2430 0.930 . S
H2448 C2441 0.929 . S
Cu2449 N2450 1.999 . S
Cu2449 O2455 1.974 . S
Cu2449 N2460 1.985 . S
Cu2449 O2469 1.959 . S
N2450 Cu2449 1.999 . S
N2450 C2452 1.263 . S
N2450 C2454 1.389 . S
N2451 C2452 1.358 . S
N2451 C2453 1.400 . S
C2452 N2450 1.263 . S
C2452 N2451 1.358 . S
C2452 H2458 0.930 . S
C2453 N2451 1.400 . S
C2453 C2454 1.351 . S
C2453 H2470 0.930 . S
C2454 N2450 1.389 . S
C2454 C2453 1.351 . S
C2454 H2459 0.930 . S
O2455 Cu2449 1.974 . S
O2455 C2465 1.282 . S
C2456 O2457 1.261 . S
C2456 O2469 1.251 . S
O2457 C2456 1.261 . S
H2458 C2452 0.930 . S
H2459 C2454 0.930 . S
N2460 Cu2449 1.985 . S
N2460 C2462 1.335 . S
N2460 C2463 1.390 . S
N2461 C2462 1.345 . S
N2461 C2464 1.336 . S
C2462 N2460 1.335 . S
C2462 N2461 1.345 . S
C2462 H2467 0.930 . S
C2463 N2460 1.390 . S
C2463 C2464 1.346 . S
C2463 H2468 0.930 . S
C2464 N2461 1.336 . S
C2464 C2463 1.346 . S
C2464 H2471 0.929 . S
C2465 O2455 1.282 . S
C2465 O2466 1.216 . S
O2466 C2465 1.216 . S
H2467 C2462 0.930 . S
H2468 C2463 0.930 . S
O2469 Cu2449 1.959 . S
O2469 C2456 1.251 . S
H2470 C2453 0.930 . S
H2471 C2464 0.929 . S
C2472 C2473 1.391 . S
C2472 C2474 1.394 . S
C2472 H2488 0.931 . S
C2473 C2472 1.391 . S
C2473 C2477 1.376 . S
C2474 C2472 1.394 . S
C2474 C2475 1.369 . S
C2474 C2478 1.531 . S
C2475 C2474 1.369 . S
C2475 C2476 1.410 . S
C2475 C2483 1.503 . S
C2476 C2475 1.410 . S
C2476 C2477 1.392 . S
C2476 C2479 1.511 . S
C2477 C2473 1.376 . S
C2477 C2476 1.392 . S
C2477 H2489 0.929 . S
C2478 C2474 1.531 . S
C2478 H2490 0.960 . S
C2478 H2491 0.962 . S
C2478 H2492 0.960 . S
C2479 C2476 1.511 . S
C2479 H2493 0.961 . S
C2479 H2494 0.961 . S
C2479 H2495 0.961 . S
C2480 C2481 1.370 . S
C2480 C2482 1.363 . S
C2480 H2496 0.931 . S
C2481 C2480 1.370 . S
C2481 C2485 1.408 . S
C2482 C2480 1.363 . S
C2482 C2483 1.370 . S
C2482 C2486 1.524 . S
C2483 C2475 1.503 . S
C2483 C2482 1.370 . S
C2483 C2484 1.403 . S
C2484 C2483 1.403 . S
C2484 C2485 1.404 . S
C2484 C2487 1.539 . S
C2485 C2481 1.408 . S
C2485 C2484 1.404 . S
C2485 H2497 0.930 . S
C2486 C2482 1.524 . S
C2486 H2498 0.956 . S
C2486 H2499 0.961 . S
C2486 H2500 0.961 . S
C2487 C2484 1.539 . S
C2487 H2501 0.958 . S
C2487 H2502 0.961 . S
C2487 H2503 0.960 . S
H2488 C2472 0.931 . S
H2489 C2477 0.929 . S
H2490 C2478 0.960 . S
H2491 C2478 0.962 . S
H2492 C2478 0.960 . S
H2493 C2479 0.961 . S
H2494 C2479 0.961 . S
H2495 C2479 0.961 . S
H2496 C2480 0.931 . S
H2497 C2485 0.930 . S
H2498 C2486 0.956 . S
H2499 C2486 0.961 . S
H2500 C2486 0.961 . S
H2501 C2487 0.958 . S
H2502 C2487 0.961 . S
H2503 C2487 0.960 . S
C2504 C2505 1.391 . S
C2504 C2506 1.394 . S
C2504 H2520 0.931 . S
C2505 C2504 1.391 . S
C2505 C2509 1.376 . S
C2506 C2504 1.394 . S
C2506 C2507 1.369 . S
C2506 C2510 1.531 . S
C2507 C2506 1.369 . S
C2507 C2508 1.410 . S
C2507 C2515 1.503 . S
C2508 C2507 1.410 . S
C2508 C2509 1.392 . S
C2508 C2511 1.511 . S
C2509 C2505 1.376 . S
C2509 C2508 1.392 . S
C2509 H2521 0.929 . S
C2510 C2506 1.531 . S
C2510 H2522 0.960 . S
C2510 H2523 0.962 . S
C2510 H2524 0.960 . S
C2511 C2508 1.511 . S
C2511 H2525 0.961 . S
C2511 H2526 0.961 . S
C2511 H2527 0.961 . S
C2512 C2513 1.370 . S
C2512 C2514 1.363 . S
C2512 H2528 0.931 . S
C2513 C2512 1.370 . S
C2513 C2517 1.408 . S
C2514 C2512 1.363 . S
C2514 C2515 1.370 . S
C2514 C2518 1.524 . S
C2515 C2507 1.503 . S
C2515 C2514 1.370 . S
C2515 C2516 1.403 . S
C2516 C2515 1.403 . S
C2516 C2517 1.404 . S
C2516 C2519 1.539 . S
C2517 C2513 1.408 . S
C2517 C2516 1.404 . S
C2517 H2529 0.930 . S
C2518 C2514 1.524 . S
C2518 H2530 0.956 . S
C2518 H2531 0.961 . S
C2518 H2532 0.961 . S
C2519 C2516 1.539 . S
C2519 H2533 0.958 . S
C2519 H2534 0.961 . S
C2519 H2535 0.960 . S
H2520 C2504 0.931 . S
H2521 C2509 0.929 . S
H2522 C2510 0.960 . S
H2523 C2510 0.962 . S
H2524 C2510 0.960 . S
H2525 C2511 0.961 . S
H2526 C2511 0.961 . S
H2527 C2511 0.961 . S
H2528 C2512 0.931 . S
H2529 C2517 0.930 . S
H2530 C2518 0.956 . S
H2531 C2518 0.961 . S
H2532 C2518 0.961 . S
H2533 C2519 0.958 . S
H2534 C2519 0.961 . S
H2535 C2519 0.960 . S
C2536 C2537 1.391 . S
C2536 C2538 1.394 . S
C2536 H2552 0.931 . S
C2537 C2536 1.391 . S
C2537 C2541 1.376 . S
C2538 C2536 1.394 . S
C2538 C2539 1.369 . S
C2538 C2542 1.531 . S
C2539 C2538 1.369 . S
C2539 C2540 1.410 . S
C2539 C2547 1.503 . S
C2540 C2539 1.410 . S
C2540 C2541 1.392 . S
C2540 C2543 1.511 . S
C2541 C2537 1.376 . S
C2541 C2540 1.392 . S
C2541 H2553 0.929 . S
C2542 C2538 1.531 . S
C2542 H2554 0.960 . S
C2542 H2555 0.962 . S
C2542 H2556 0.960 . S
C2543 C2540 1.511 . S
C2543 H2557 0.961 . S
C2543 H2558 0.961 . S
C2543 H2559 0.961 . S
C2544 C2545 1.370 . S
C2544 C2546 1.363 . S
C2544 H2560 0.931 . S
C2545 C2544 1.370 . S
C2545 C2549 1.408 . S
C2546 C2544 1.363 . S
C2546 C2547 1.370 . S
C2546 C2550 1.524 . S
C2547 C2539 1.503 . S
C2547 C2546 1.370 . S
C2547 C2548 1.403 . S
C2548 C2547 1.403 . S
C2548 C2549 1.404 . S
C2548 C2551 1.539 . S
C2549 C2545 1.408 . S
C2549 C2548 1.404 . S
C2549 H2561 0.930 . S
C2550 C2546 1.524 . S
C2550 H2562 0.956 . S
C2550 H2563 0.961 . S
C2550 H2564 0.961 . S
C2551 C2548 1.539 . S
C2551 H2565 0.958 . S
C2551 H2566 0.961 . S
C2551 H2567 0.960 . S
H2552 C2536 0.931 . S
H2553 C2541 0.929 . S
H2554 C2542 0.960 . S
H2555 C2542 0.962 . S
H2556 C2542 0.960 . S
H2557 C2543 0.961 . S
H2558 C2543 0.961 . S
H2559 C2543 0.961 . S
H2560 C2544 0.931 . S
H2561 C2549 0.930 . S
H2562 C2550 0.956 . S
H2563 C2550 0.961 . S
H2564 C2550 0.961 . S
H2565 C2551 0.958 . S
H2566 C2551 0.961 . S
H2567 C2551 0.960 . S
C2568 C2569 1.391 . S
C2568 C2570 1.394 . S
C2568 H2584 0.931 . S
C2569 C2568 1.391 . S
C2569 C2573 1.376 . S
C2570 C2568 1.394 . S
C2570 C2571 1.369 . S
C2570 C2574 1.531 . S
C2571 C2570 1.369 . S
C2571 C2572 1.410 . S
C2571 C2579 1.503 . S
C2572 C2571 1.410 . S
C2572 C2573 1.392 . S
C2572 C2575 1.511 . S
C2573 C2569 1.376 . S
C2573 C2572 1.392 . S
C2573 H2585 0.929 . S
C2574 C2570 1.531 . S
C2574 H2586 0.960 . S
C2574 H2587 0.962 . S
C2574 H2588 0.960 . S
C2575 C2572 1.511 . S
C2575 H2589 0.961 . S
C2575 H2590 0.961 . S
C2575 H2591 0.961 . S
C2576 C2577 1.370 . S
C2576 C2578 1.363 . S
C2576 H2592 0.931 . S
C2577 C2576 1.370 . S
C2577 C2581 1.408 . S
C2578 C2576 1.363 . S
C2578 C2579 1.370 . S
C2578 C2582 1.524 . S
C2579 C2571 1.503 . S
C2579 C2578 1.370 . S
C2579 C2580 1.403 . S
C2580 C2579 1.403 . S
C2580 C2581 1.404 . S
C2580 C2583 1.539 . S
C2581 C2577 1.408 . S
C2581 C2580 1.404 . S
C2581 H2593 0.930 . S
C2582 C2578 1.524 . S
C2582 H2594 0.956 . S
C2582 H2595 0.961 . S
C2582 H2596 0.961 . S
C2583 C2580 1.539 . S
C2583 H2597 0.958 . S
C2583 H2598 0.961 . S
C2583 H2599 0.960 . S
H2584 C2568 0.931 . S
H2585 C2573 0.929 . S
H2586 C2574 0.960 . S
H2587 C2574 0.962 . S
H2588 C2574 0.960 . S
H2589 C2575 0.961 . S
H2590 C2575 0.961 . S
H2591 C2575 0.961 . S
H2592 C2576 0.931 . S
H2593 C2581 0.930 . S
H2594 C2582 0.956 . S
H2595 C2582 0.961 . S
H2596 C2582 0.961 . S
H2597 C2583 0.958 . S
H2598 C2583 0.961 . S
H2599 C2583 0.960 . S
C2600 C2601 1.391 . S
C2600 C2602 1.394 . S
C2600 H2616 0.931 . S
C2601 C2600 1.391 . S
C2601 C2605 1.376 . S
C2602 C2600 1.394 . S
C2602 C2603 1.369 . S
C2602 C2606 1.531 . S
C2603 C2602 1.369 . S
C2603 C2604 1.410 . S
C2603 C2611 1.503 . S
C2604 C2603 1.410 . S
C2604 C2605 1.392 . S
C2604 C2607 1.511 . S
C2605 C2601 1.376 . S
C2605 C2604 1.392 . S
C2605 H2617 0.929 . S
C2606 C2602 1.531 . S
C2606 H2618 0.960 . S
C2606 H2619 0.962 . S
C2606 H2620 0.960 . S
C2607 C2604 1.511 . S
C2607 H2621 0.961 . S
C2607 H2622 0.961 . S
C2607 H2623 0.961 . S
C2608 C2609 1.370 . S
C2608 C2610 1.363 . S
C2608 H2624 0.931 . S
C2609 C2608 1.370 . S
C2609 C2613 1.408 . S
C2610 C2608 1.363 . S
C2610 C2611 1.370 . S
C2610 C2614 1.524 . S
C2611 C2603 1.503 . S
C2611 C2610 1.370 . S
C2611 C2612 1.403 . S
C2612 C2611 1.403 . S
C2612 C2613 1.404 . S
C2612 C2615 1.539 . S
C2613 C2609 1.408 . S
C2613 C2612 1.404 . S
C2613 H2625 0.930 . S
C2614 C2610 1.524 . S
C2614 H2626 0.956 . S
C2614 H2627 0.961 . S
C2614 H2628 0.961 . S
C2615 C2612 1.539 . S
C2615 H2629 0.958 . S
C2615 H2630 0.961 . S
C2615 H2631 0.960 . S
H2616 C2600 0.931 . S
H2617 C2605 0.929 . S
H2618 C2606 0.960 . S
H2619 C2606 0.962 . S
H2620 C2606 0.960 . S
H2621 C2607 0.961 . S
H2622 C2607 0.961 . S
H2623 C2607 0.961 . S
H2624 C2608 0.931 . S
H2625 C2613 0.930 . S
H2626 C2614 0.956 . S
H2627 C2614 0.961 . S
H2628 C2614 0.961 . S
H2629 C2615 0.958 . S
H2630 C2615 0.961 . S
H2631 C2615 0.960 . S
C2632 C2633 1.391 . S
C2632 C2634 1.394 . S
C2632 H2648 0.931 . S
C2633 C2632 1.391 . S
C2633 C2637 1.376 . S
C2634 C2632 1.394 . S
C2634 C2635 1.369 . S
C2634 C2638 1.531 . S
C2635 C2634 1.369 . S
C2635 C2636 1.410 . S
C2635 C2643 1.503 . S
C2636 C2635 1.410 . S
C2636 C2637 1.392 . S
C2636 C2639 1.511 . S
C2637 C2633 1.376 . S
C2637 C2636 1.392 . S
C2637 H2649 0.929 . S
C2638 C2634 1.531 . S
C2638 H2650 0.960 . S
C2638 H2651 0.962 . S
C2638 H2652 0.960 . S
C2639 C2636 1.511 . S
C2639 H2653 0.961 . S
C2639 H2654 0.961 . S
C2639 H2655 0.961 . S
C2640 C2641 1.370 . S
C2640 C2642 1.363 . S
C2640 H2656 0.931 . S
C2641 C2640 1.370 . S
C2641 C2645 1.408 . S
C2642 C2640 1.363 . S
C2642 C2643 1.370 . S
C2642 C2646 1.524 . S
C2643 C2635 1.503 . S
C2643 C2642 1.370 . S
C2643 C2644 1.403 . S
C2644 C2643 1.403 . S
C2644 C2645 1.404 . S
C2644 C2647 1.539 . S
C2645 C2641 1.408 . S
C2645 C2644 1.404 . S
C2645 H2657 0.930 . S
C2646 C2642 1.524 . S
C2646 H2658 0.956 . S
C2646 H2659 0.961 . S
C2646 H2660 0.961 . S
C2647 C2644 1.539 . S
C2647 H2661 0.958 . S
C2647 H2662 0.961 . S
C2647 H2663 0.960 . S
H2648 C2632 0.931 . S
H2649 C2637 0.929 . S
H2650 C2638 0.960 . S
H2651 C2638 0.962 . S
H2652 C2638 0.960 . S
H2653 C2639 0.961 . S
H2654 C2639 0.961 . S
H2655 C2639 0.961 . S
H2656 C2640 0.931 . S
H2657 C2645 0.930 . S
H2658 C2646 0.956 . S
H2659 C2646 0.961 . S
H2660 C2646 0.961 . S
H2661 C2647 0.958 . S
H2662 C2647 0.961 . S
H2663 C2647 0.960 . S
C2664 C2665 1.391 . S
C2664 C2666 1.394 . S
C2664 H2680 0.931 . S
C2665 C2664 1.391 . S
C2665 C2669 1.376 . S
C2666 C2664 1.394 . S
C2666 C2667 1.369 . S
C2666 C2670 1.531 . S
C2667 C2666 1.369 . S
C2667 C2668 1.410 . S
C2667 C2675 1.503 . S
C2668 C2667 1.410 . S
C2668 C2669 1.392 . S
C2668 C2671 1.511 . S
C2669 C2665 1.376 . S
C2669 C2668 1.392 . S
C2669 H2681 0.929 . S
C2670 C2666 1.531 . S
C2670 H2682 0.960 . S
C2670 H2683 0.962 . S
C2670 H2684 0.960 . S
C2671 C2668 1.511 . S
C2671 H2685 0.961 . S
C2671 H2686 0.961 . S
C2671 H2687 0.961 . S
C2672 C2673 1.370 . S
C2672 C2674 1.363 . S
C2672 H2688 0.931 . S
C2673 C2672 1.370 . S
C2673 C2677 1.408 . S
C2674 C2672 1.363 . S
C2674 C2675 1.370 . S
C2674 C2678 1.524 . S
C2675 C2667 1.503 . S
C2675 C2674 1.370 . S
C2675 C2676 1.403 . S
C2676 C2675 1.403 . S
C2676 C2677 1.404 . S
C2676 C2679 1.539 . S
C2677 C2673 1.408 . S
C2677 C2676 1.404 . S
C2677 H2689 0.930 . S
C2678 C2674 1.524 . S
C2678 H2690 0.956 . S
C2678 H2691 0.961 . S
C2678 H2692 0.961 . S
C2679 C2676 1.539 . S
C2679 H2693 0.958 . S
C2679 H2694 0.961 . S
C2679 H2695 0.960 . S
H2680 C2664 0.931 . S
H2681 C2669 0.929 . S
H2682 C2670 0.960 . S
H2683 C2670 0.962 . S
H2684 C2670 0.960 . S
H2685 C2671 0.961 . S
H2686 C2671 0.961 . S
H2687 C2671 0.961 . S
H2688 C2672 0.931 . S
H2689 C2677 0.930 . S
H2690 C2678 0.956 . S
H2691 C2678 0.961 . S
H2692 C2678 0.961 . S
H2693 C2679 0.958 . S
H2694 C2679 0.961 . S
H2695 C2679 0.960 . S
C2696 C2697 1.391 . S
C2696 C2698 1.394 . S
C2696 H2712 0.931 . S
C2697 C2696 1.391 . S
C2697 C2701 1.376 . S
C2698 C2696 1.394 . S
C2698 C2699 1.369 . S
C2698 C2702 1.531 . S
C2699 C2698 1.369 . S
C2699 C2700 1.410 . S
C2699 C2707 1.503 . S
C2700 C2699 1.410 . S
C2700 C2701 1.392 . S
C2700 C2703 1.511 . S
C2701 C2697 1.376 . S
C2701 C2700 1.392 . S
C2701 H2713 0.929 . S
C2702 C2698 1.531 . S
C2702 H2714 0.960 . S
C2702 H2715 0.962 . S
C2702 H2716 0.960 . S
C2703 C2700 1.511 . S
C2703 H2717 0.961 . S
C2703 H2718 0.961 . S
C2703 H2719 0.961 . S
C2704 C2705 1.370 . S
C2704 C2706 1.363 . S
C2704 H2720 0.931 . S
C2705 C2704 1.370 . S
C2705 C2709 1.408 . S
C2706 C2704 1.363 . S
C2706 C2707 1.370 . S
C2706 C2710 1.524 . S
C2707 C2699 1.503 . S
C2707 C2706 1.370 . S
C2707 C2708 1.403 . S
C2708 C2707 1.403 . S
C2708 C2709 1.404 . S
C2708 C2711 1.539 . S
C2709 C2705 1.408 . S
C2709 C2708 1.404 . S
C2709 H2721 0.930 . S
C2710 C2706 1.524 . S
C2710 H2722 0.956 . S
C2710 H2723 0.961 . S
C2710 H2724 0.961 . S
C2711 C2708 1.539 . S
C2711 H2725 0.958 . S
C2711 H2726 0.961 . S
C2711 H2727 0.960 . S
H2712 C2696 0.931 . S
H2713 C2701 0.929 . S
H2714 C2702 0.960 . S
H2715 C2702 0.962 . S
H2716 C2702 0.960 . S
H2717 C2703 0.961 . S
H2718 C2703 0.961 . S
H2719 C2703 0.961 . S
H2720 C2704 0.931 . S
H2721 C2709 0.930 . S
H2722 C2710 0.956 . S
H2723 C2710 0.961 . S
H2724 C2710 0.961 . S
H2725 C2711 0.958 . S
H2726 C2711 0.961 . S
H2727 C2711 0.960 . S
C2728 C2729 1.391 . S
C2728 C2730 1.394 . S
C2728 H2744 0.931 . S
C2729 C2728 1.391 . S
C2729 C2733 1.376 . S
C2730 C2728 1.394 . S
C2730 C2731 1.369 . S
C2730 C2734 1.531 . S
C2731 C2730 1.369 . S
C2731 C2732 1.410 . S
C2731 C2739 1.503 . S
C2732 C2731 1.410 . S
C2732 C2733 1.392 . S
C2732 C2735 1.511 . S
C2733 C2729 1.376 . S
C2733 C2732 1.392 . S
C2733 H2745 0.929 . S
C2734 C2730 1.531 . S
C2734 H2746 0.960 . S
C2734 H2747 0.962 . S
C2734 H2748 0.960 . S
C2735 C2732 1.511 . S
C2735 H2749 0.961 . S
C2735 H2750 0.961 . S
C2735 H2751 0.961 . S
C2736 C2737 1.370 . S
C2736 C2738 1.363 . S
C2736 H2752 0.931 . S
C2737 C2736 1.370 . S
C2737 C2741 1.408 . S
C2738 C2736 1.363 . S
C2738 C2739 1.370 . S
C2738 C2742 1.524 . S
C2739 C2731 1.503 . S
C2739 C2738 1.370 . S
C2739 C2740 1.403 . S
C2740 C2739 1.403 . S
C2740 C2741 1.404 . S
C2740 C2743 1.539 . S
C2741 C2737 1.408 . S
C2741 C2740 1.404 . S
C2741 H2753 0.930 . S
C2742 C2738 1.524 . S
C2742 H2754 0.956 . S
C2742 H2755 0.961 . S
C2742 H2756 0.961 . S
C2743 C2740 1.539 . S
C2743 H2757 0.958 . S
C2743 H2758 0.961 . S
C2743 H2759 0.960 . S
H2744 C2728 0.931 . S
H2745 C2733 0.929 . S
H2746 C2734 0.960 . S
H2747 C2734 0.962 . S
H2748 C2734 0.960 . S
H2749 C2735 0.961 . S
H2750 C2735 0.961 . S
H2751 C2735 0.961 . S
H2752 C2736 0.931 . S
H2753 C2741 0.930 . S
H2754 C2742 0.956 . S
H2755 C2742 0.961 . S
H2756 C2742 0.961 . S
H2757 C2743 0.958 . S
H2758 C2743 0.961 . S
H2759 C2743 0.960 . S
C2760 C2761 1.391 . S
C2760 C2762 1.394 . S
C2760 H2776 0.931 . S
C2761 C2760 1.391 . S
C2761 C2765 1.376 . S
C2762 C2760 1.394 . S
C2762 C2763 1.369 . S
C2762 C2766 1.531 . S
C2763 C2762 1.369 . S
C2763 C2764 1.410 . S
C2763 C2771 1.503 . S
C2764 C2763 1.410 . S
C2764 C2765 1.392 . S
C2764 C2767 1.511 . S
C2765 C2761 1.376 . S
C2765 C2764 1.392 . S
C2765 H2777 0.929 . S
C2766 C2762 1.531 . S
C2766 H2778 0.960 . S
C2766 H2779 0.962 . S
C2766 H2780 0.960 . S
C2767 C2764 1.511 . S
C2767 H2781 0.961 . S
C2767 H2782 0.961 . S
C2767 H2783 0.961 . S
C2768 C2769 1.370 . S
C2768 C2770 1.363 . S
C2768 H2784 0.931 . S
C2769 C2768 1.370 . S
C2769 C2773 1.408 . S
C2770 C2768 1.363 . S
C2770 C2771 1.370 . S
C2770 C2774 1.524 . S
C2771 C2763 1.503 . S
C2771 C2770 1.370 . S
C2771 C2772 1.403 . S
C2772 C2771 1.403 . S
C2772 C2773 1.404 . S
C2772 C2775 1.539 . S
C2773 C2769 1.408 . S
C2773 C2772 1.404 . S
C2773 H2785 0.930 . S
C2774 C2770 1.524 . S
C2774 H2786 0.956 . S
C2774 H2787 0.961 . S
C2774 H2788 0.961 . S
C2775 C2772 1.539 . S
C2775 H2789 0.958 . S
C2775 H2790 0.961 . S
C2775 H2791 0.960 . S
H2776 C2760 0.931 . S
H2777 C2765 0.929 . S
H2778 C2766 0.960 . S
H2779 C2766 0.962 . S
H2780 C2766 0.960 . S
H2781 C2767 0.961 . S
H2782 C2767 0.961 . S
H2783 C2767 0.961 . S
H2784 C2768 0.931 . S
H2785 C2773 0.930 . S
H2786 C2774 0.956 . S
H2787 C2774 0.961 . S
H2788 C2774 0.961 . S
H2789 C2775 0.958 . S
H2790 C2775 0.961 . S
H2791 C2775 0.960 . S
C2792 C2793 1.391 . S
C2792 C2794 1.394 . S
C2792 H2808 0.931 . S
C2793 C2792 1.391 . S
C2793 C2797 1.376 . S
C2794 C2792 1.394 . S
C2794 C2795 1.369 . S
C2794 C2798 1.531 . S
C2795 C2794 1.369 . S
C2795 C2796 1.410 . S
C2795 C2803 1.503 . S
C2796 C2795 1.410 . S
C2796 C2797 1.392 . S
C2796 C2799 1.511 . S
C2797 C2793 1.376 . S
C2797 C2796 1.392 . S
C2797 H2809 0.929 . S
C2798 C2794 1.531 . S
C2798 H2810 0.960 . S
C2798 H2811 0.962 . S
C2798 H2812 0.960 . S
C2799 C2796 1.511 . S
C2799 H2813 0.961 . S
C2799 H2814 0.961 . S
C2799 H2815 0.961 . S
C2800 C2801 1.370 . S
C2800 C2802 1.363 . S
C2800 H2816 0.931 . S
C2801 C2800 1.370 . S
C2801 C2805 1.408 . S
C2802 C2800 1.363 . S
C2802 C2803 1.370 . S
C2802 C2806 1.524 . S
C2803 C2795 1.503 . S
C2803 C2802 1.370 . S
C2803 C2804 1.403 . S
C2804 C2803 1.403 . S
C2804 C2805 1.404 . S
C2804 C2807 1.539 . S
C2805 C2801 1.408 . S
C2805 C2804 1.404 . S
C2805 H2817 0.930 . S
C2806 C2802 1.524 . S
C2806 H2818 0.956 . S
C2806 H2819 0.961 . S
C2806 H2820 0.961 . S
C2807 C2804 1.539 . S
C2807 H2821 0.958 . S
C2807 H2822 0.961 . S
C2807 H2823 0.960 . S
H2808 C2792 0.931 . S
H2809 C2797 0.929 . S
H2810 C2798 0.960 . S
H2811 C2798 0.962 . S
H2812 C2798 0.960 . S
H2813 C2799 0.961 . S
H2814 C2799 0.961 . S
H2815 C2799 0.961 . S
H2816 C2800 0.931 . S
H2817 C2805 0.930 . S
H2818 C2806 0.956 . S
H2819 C2806 0.961 . S
H2820 C2806 0.961 . S
H2821 C2807 0.958 . S
H2822 C2807 0.961 . S
H2823 C2807 0.960 . S
C2824 C2825 1.391 . S
C2824 C2826 1.394 . S
C2824 H2840 0.931 . S
C2825 C2824 1.391 . S
C2825 C2829 1.376 . S
C2826 C2824 1.394 . S
C2826 C2827 1.369 . S
C2826 C2830 1.531 . S
C2827 C2826 1.369 . S
C2827 C2828 1.410 . S
C2827 C2835 1.503 . S
C2828 C2827 1.410 . S
C2828 C2829 1.392 . S
C2828 C2831 1.511 . S
C2829 C2825 1.376 . S
C2829 C2828 1.392 . S
C2829 H2841 0.929 . S
C2830 C2826 1.531 . S
C2830 H2842 0.960 . S
C2830 H2843 0.962 . S
C2830 H2844 0.960 . S
C2831 C2828 1.511 . S
C2831 H2845 0.961 . S
C2831 H2846 0.961 . S
C2831 H2847 0.961 . S
C2832 C2833 1.370 . S
C2832 C2834 1.363 . S
C2832 H2848 0.931 . S
C2833 C2832 1.370 . S
C2833 C2837 1.408 . S
C2834 C2832 1.363 . S
C2834 C2835 1.370 . S
C2834 C2838 1.524 . S
C2835 C2827 1.503 . S
C2835 C2834 1.370 . S
C2835 C2836 1.403 . S
C2836 C2835 1.403 . S
C2836 C2837 1.404 . S
C2836 C2839 1.539 . S
C2837 C2833 1.408 . S
C2837 C2836 1.404 . S
C2837 H2849 0.930 . S
C2838 C2834 1.524 . S
C2838 H2850 0.956 . S
C2838 H2851 0.961 . S
C2838 H2852 0.961 . S
C2839 C2836 1.539 . S
C2839 H2853 0.958 . S
C2839 H2854 0.961 . S
C2839 H2855 0.960 . S
H2840 C2824 0.931 . S
H2841 C2829 0.929 . S
H2842 C2830 0.960 . S
H2843 C2830 0.962 . S
H2844 C2830 0.960 . S
H2845 C2831 0.961 . S
H2846 C2831 0.961 . S
H2847 C2831 0.961 . S
H2848 C2832 0.931 . S
H2849 C2837 0.930 . S
H2850 C2838 0.956 . S
H2851 C2838 0.961 . S
H2852 C2838 0.961 . S
H2853 C2839 0.958 . S
H2854 C2839 0.961 . S
H2855 C2839 0.960 . S
C2856 C2857 1.391 . S
C2856 C2858 1.394 . S
C2856 H2872 0.931 . S
C2857 C2856 1.391 . S
C2857 C2861 1.376 . S
C2858 C2856 1.394 . S
C2858 C2859 1.369 . S
C2858 C2862 1.531 . S
C2859 C2858 1.369 . S
C2859 C2860 1.410 . S
C2859 C2867 1.503 . S
C2860 C2859 1.410 . S
C2860 C2861 1.392 . S
C2860 C2863 1.511 . S
C2861 C2857 1.376 . S
C2861 C2860 1.392 . S
C2861 H2873 0.929 . S
C2862 C2858 1.531 . S
C2862 H2874 0.960 . S
C2862 H2875 0.962 . S
C2862 H2876 0.960 . S
C2863 C2860 1.511 . S
C2863 H2877 0.961 . S
C2863 H2878 0.961 . S
C2863 H2879 0.961 . S
C2864 C2865 1.370 . S
C2864 C2866 1.363 . S
C2864 H2880 0.931 . S
C2865 C2864 1.370 . S
C2865 C2869 1.408 . S
C2866 C2864 1.363 . S
C2866 C2867 1.370 . S
C2866 C2870 1.524 . S
C2867 C2859 1.503 . S
C2867 C2866 1.370 . S
C2867 C2868 1.403 . S
C2868 C2867 1.403 . S
C2868 C2869 1.404 . S
C2868 C2871 1.539 . S
C2869 C2865 1.408 . S
C2869 C2868 1.404 . S
C2869 H2881 0.930 . S
C2870 C2866 1.524 . S
C2870 H2882 0.956 . S
C2870 H2883 0.961 . S
C2870 H2884 0.961 . S
C2871 C2868 1.539 . S
C2871 H2885 0.958 . S
C2871 H2886 0.961 . S
C2871 H2887 0.960 . S
H2872 C2856 0.931 . S
H2873 C2861 0.929 . S
H2874 C2862 0.960 . S
H2875 C2862 0.962 . S
H2876 C2862 0.960 . S
H2877 C2863 0.961 . S
H2878 C2863 0.961 . S
H2879 C2863 0.961 . S
H2880 C2864 0.931 . S
H2881 C2869 0.930 . S
H2882 C2870 0.956 . S
H2883 C2870 0.961 . S
H2884 C2870 0.961 . S
H2885 C2871 0.958 . S
H2886 C2871 0.961 . S
H2887 C2871 0.960 . S
C2888 C2889 1.391 . S
C2888 C2890 1.394 . S
C2888 H2904 0.931 . S
C2889 C2888 1.391 . S
C2889 C2893 1.376 . S
C2890 C2888 1.394 . S
C2890 C2891 1.369 . S
C2890 C2894 1.531 . S
C2891 C2890 1.369 . S
C2891 C2892 1.410 . S
C2891 C2899 1.503 . S
C2892 C2891 1.410 . S
C2892 C2893 1.392 . S
C2892 C2895 1.511 . S
C2893 C2889 1.376 . S
C2893 C2892 1.392 . S
C2893 H2905 0.929 . S
C2894 C2890 1.531 . S
C2894 H2906 0.960 . S
C2894 H2907 0.962 . S
C2894 H2908 0.960 . S
C2895 C2892 1.511 . S
C2895 H2909 0.961 . S
C2895 H2910 0.961 . S
C2895 H2911 0.961 . S
C2896 C2897 1.370 . S
C2896 C2898 1.363 . S
C2896 H2912 0.931 . S
C2897 C2896 1.370 . S
C2897 C2901 1.408 . S
C2898 C2896 1.363 . S
C2898 C2899 1.370 . S
C2898 C2902 1.524 . S
C2899 C2891 1.503 . S
C2899 C2898 1.370 . S
C2899 C2900 1.403 . S
C2900 C2899 1.403 . S
C2900 C2901 1.404 . S
C2900 C2903 1.539 . S
C2901 C2897 1.408 . S
C2901 C2900 1.404 . S
C2901 H2913 0.930 . S
C2902 C2898 1.524 . S
C2902 H2914 0.956 . S
C2902 H2915 0.961 . S
C2902 H2916 0.961 . S
C2903 C2900 1.539 . S
C2903 H2917 0.958 . S
C2903 H2918 0.961 . S
C2903 H2919 0.960 . S
H2904 C2888 0.931 . S
H2905 C2893 0.929 . S
H2906 C2894 0.960 . S
H2907 C2894 0.962 . S
H2908 C2894 0.960 . S
H2909 C2895 0.961 . S
H2910 C2895 0.961 . S
H2911 C2895 0.961 . S
H2912 C2896 0.931 . S
H2913 C2901 0.930 . S
H2914 C2902 0.956 . S
H2915 C2902 0.961 . S
H2916 C2902 0.961 . S
H2917 C2903 0.958 . S
H2918 C2903 0.961 . S
H2919 C2903 0.960 . S
C2920 C2921 1.391 . S
C2920 C2922 1.394 . S
C2920 H2936 0.931 . S
C2921 C2920 1.391 . S
C2921 C2925 1.376 . S
C2922 C2920 1.394 . S
C2922 C2923 1.369 . S
C2922 C2926 1.531 . S
C2923 C2922 1.369 . S
C2923 C2924 1.410 . S
C2923 C2931 1.503 . S
C2924 C2923 1.410 . S
C2924 C2925 1.392 . S
C2924 C2927 1.511 . S
C2925 C2921 1.376 . S
C2925 C2924 1.392 . S
C2925 H2937 0.929 . S
C2926 C2922 1.531 . S
C2926 H2938 0.960 . S
C2926 H2939 0.962 . S
C2926 H2940 0.960 . S
C2927 C2924 1.511 . S
C2927 H2941 0.961 . S
C2927 H2942 0.961 . S
C2927 H2943 0.961 . S
C2928 C2929 1.370 . S
C2928 C2930 1.363 . S
C2928 H2944 0.931 . S
C2929 C2928 1.370 . S
C2929 C2933 1.408 . S
C2930 C2928 1.363 . S
C2930 C2931 1.370 . S
C2930 C2934 1.524 . S
C2931 C2923 1.503 . S
C2931 C2930 1.370 . S
C2931 C2932 1.403 . S
C2932 C2931 1.403 . S
C2932 C2933 1.404 . S
C2932 C2935 1.539 . S
C2933 C2929 1.408 . S
C2933 C2932 1.404 . S
C2933 H2945 0.930 . S
C2934 C2930 1.524 . S
C2934 H2946 0.956 . S
C2934 H2947 0.961 . S
C2934 H2948 0.961 . S
C2935 C2932 1.539 . S
C2935 H2949 0.958 . S
C2935 H2950 0.961 . S
C2935 H2951 0.960 . S
H2936 C2920 0.931 . S
H2937 C2925 0.929 . S
H2938 C2926 0.960 . S
H2939 C2926 0.962 . S
H2940 C2926 0.960 . S
H2941 C2927 0.961 . S
H2942 C2927 0.961 . S
H2943 C2927 0.961 . S
H2944 C2928 0.931 . S
H2945 C2933 0.930 . S
H2946 C2934 0.956 . S
H2947 C2934 0.961 . S
H2948 C2934 0.961 . S
H2949 C2935 0.958 . S
H2950 C2935 0.961 . S
H2951 C2935 0.960 . S
C2952 C2953 1.391 . S
C2952 C2954 1.394 . S
C2952 H2968 0.931 . S
C2953 C2952 1.391 . S
C2953 C2957 1.376 . S
C2954 C2952 1.394 . S
C2954 C2955 1.369 . S
C2954 C2958 1.531 . S
C2955 C2954 1.369 . S
C2955 C2956 1.410 . S
C2955 C2963 1.503 . S
C2956 C2955 1.410 . S
C2956 C2957 1.392 . S
C2956 C2959 1.511 . S
C2957 C2953 1.376 . S
C2957 C2956 1.392 . S
C2957 H2969 0.929 . S
C2958 C2954 1.531 . S
C2958 H2970 0.960 . S
C2958 H2971 0.962 . S
C2958 H2972 0.960 . S
C2959 C2956 1.511 . S
C2959 H2973 0.961 . S
C2959 H2974 0.961 . S
C2959 H2975 0.961 . S
C2960 C2961 1.370 . S
C2960 C2962 1.363 . S
C2960 H2976 0.931 . S
C2961 C2960 1.370 . S
C2961 C2965 1.408 . S
C2962 C2960 1.363 . S
C2962 C2963 1.370 . S
C2962 C2966 1.524 . S
C2963 C2955 1.503 . S
C2963 C2962 1.370 . S
C2963 C2964 1.403 . S
C2964 C2963 1.403 . S
C2964 C2965 1.404 . S
C2964 C2967 1.539 . S
C2965 C2961 1.408 . S
C2965 C2964 1.404 . S
C2965 H2977 0.930 . S
C2966 C2962 1.524 . S
C2966 H2978 0.956 . S
C2966 H2979 0.961 . S
C2966 H2980 0.961 . S
C2967 C2964 1.539 . S
C2967 H2981 0.958 . S
C2967 H2982 0.961 . S
C2967 H2983 0.960 . S
H2968 C2952 0.931 . S
H2969 C2957 0.929 . S
H2970 C2958 0.960 . S
H2971 C2958 0.962 . S
H2972 C2958 0.960 . S
H2973 C2959 0.961 . S
H2974 C2959 0.961 . S
H2975 C2959 0.961 . S
H2976 C2960 0.931 . S
H2977 C2965 0.930 . S
H2978 C2966 0.956 . S
H2979 C2966 0.961 . S
H2980 C2966 0.961 . S
H2981 C2967 0.958 . S
H2982 C2967 0.961 . S
H2983 C2967 0.960 . S
C2984 C2985 1.391 . S
C2984 C2986 1.394 . S
C2984 H3000 0.931 . S
C2985 C2984 1.391 . S
C2985 C2989 1.376 . S
C2986 C2984 1.394 . S
C2986 C2987 1.369 . S
C2986 C2990 1.531 . S
C2987 C2986 1.369 . S
C2987 C2988 1.410 . S
C2987 C2995 1.503 . S
C2988 C2987 1.410 . S
C2988 C2989 1.392 . S
C2988 C2991 1.511 . S
C2989 C2985 1.376 . S
C2989 C2988 1.392 . S
C2989 H3001 0.929 . S
C2990 C2986 1.531 . S
C2990 H3002 0.960 . S
C2990 H3003 0.962 . S
C2990 H3004 0.960 . S
C2991 C2988 1.511 . S
C2991 H3005 0.961 . S
C2991 H3006 0.961 . S
C2991 H3007 0.961 . S
C2992 C2993 1.370 . S
C2992 C2994 1.363 . S
C2992 H3008 0.931 . S
C2993 C2992 1.370 . S
C2993 C2997 1.408 . S
C2994 C2992 1.363 . S
C2994 C2995 1.370 . S
C2994 C2998 1.524 . S
C2995 C2987 1.503 . S
C2995 C2994 1.370 . S
C2995 C2996 1.403 . S
C2996 C2995 1.403 . S
C2996 C2997 1.404 . S
C2996 C2999 1.539 . S
C2997 C2993 1.408 . S
C2997 C2996 1.404 . S
C2997 H3009 0.930 . S
C2998 C2994 1.524 . S
C2998 H3010 0.956 . S
C2998 H3011 0.961 . S
C2998 H3012 0.961 . S
C2999 C2996 1.539 . S
C2999 H3013 0.958 . S
C2999 H3014 0.961 . S
C2999 H3015 0.960 . S
H3000 C2984 0.931 . S
H3001 C2989 0.929 . S
H3002 C2990 0.960 . S
H3003 C2990 0.962 . S
H3004 C2990 0.960 . S
H3005 C2991 0.961 . S
H3006 C2991 0.961 . S
H3007 C2991 0.961 . S
H3008 C2992 0.931 . S
H3009 C2997 0.930 . S
H3010 C2998 0.956 . S
H3011 C2998 0.961 . S
H3012 C2998 0.961 . S
H3013 C2999 0.958 . S
H3014 C2999 0.961 . S
H3015 C2999 0.960 . S
C3016 C3017 1.391 . S
C3016 C3018 1.394 . S
C3016 H3032 0.931 . S
C3017 C3016 1.391 . S
C3017 C3021 1.376 . S
C3018 C3016 1.394 . S
C3018 C3019 1.369 . S
C3018 C3022 1.531 . S
C3019 C3018 1.369 . S
C3019 C3020 1.410 . S
C3019 C3027 1.503 . S
C3020 C3019 1.410 . S
C3020 C3021 1.392 . S
C3020 C3023 1.511 . S
C3021 C3017 1.376 . S
C3021 C3020 1.392 . S
C3021 H3033 0.929 . S
C3022 C3018 1.531 . S
C3022 H3034 0.960 . S
C3022 H3035 0.962 . S
C3022 H3036 0.960 . S
C3023 C3020 1.511 . S
C3023 H3037 0.961 . S
C3023 H3038 0.961 . S
C3023 H3039 0.961 . S
C3024 C3025 1.370 . S
C3024 C3026 1.363 . S
C3024 H3040 0.931 . S
C3025 C3024 1.370 . S
C3025 C3029 1.408 . S
C3026 C3024 1.363 . S
C3026 C3027 1.370 . S
C3026 C3030 1.524 . S
C3027 C3019 1.503 . S
C3027 C3026 1.370 . S
C3027 C3028 1.403 . S
C3028 C3027 1.403 . S
C3028 C3029 1.404 . S
C3028 C3031 1.539 . S
C3029 C3025 1.408 . S
C3029 C3028 1.404 . S
C3029 H3041 0.930 . S
C3030 C3026 1.524 . S
C3030 H3042 0.956 . S
C3030 H3043 0.961 . S
C3030 H3044 0.961 . S
C3031 C3028 1.539 . S
C3031 H3045 0.958 . S
C3031 H3046 0.961 . S
C3031 H3047 0.960 . S
H3032 C3016 0.931 . S
H3033 C3021 0.929 . S
H3034 C3022 0.960 . S
H3035 C3022 0.962 . S
H3036 C3022 0.960 . S
H3037 C3023 0.961 . S
H3038 C3023 0.961 . S
H3039 C3023 0.961 . S
H3040 C3024 0.931 . S
H3041 C3029 0.930 . S
H3042 C3030 0.956 . S
H3043 C3030 0.961 . S
H3044 C3030 0.961 . S
H3045 C3031 0.958 . S
H3046 C3031 0.961 . S
H3047 C3031 0.960 . S
C3048 C3049 1.391 . S
C3048 C3050 1.394 . S
C3048 H3064 0.931 . S
C3049 C3048 1.391 . S
C3049 C3053 1.376 . S
C3050 C3048 1.394 . S
C3050 C3051 1.369 . S
C3050 C3054 1.531 . S
C3051 C3050 1.369 . S
C3051 C3052 1.410 . S
C3051 C3059 1.503 . S
C3052 C3051 1.410 . S
C3052 C3053 1.392 . S
C3052 C3055 1.511 . S
C3053 C3049 1.376 . S
C3053 C3052 1.392 . S
C3053 H3065 0.929 . S
C3054 C3050 1.531 . S
C3054 H3066 0.960 . S
C3054 H3067 0.962 . S
C3054 H3068 0.960 . S
C3055 C3052 1.511 . S
C3055 H3069 0.961 . S
C3055 H3070 0.961 . S
C3055 H3071 0.961 . S
C3056 C3057 1.370 . S
C3056 C3058 1.363 . S
C3056 H3072 0.931 . S
C3057 C3056 1.370 . S
C3057 C3061 1.408 . S
C3058 C3056 1.363 . S
C3058 C3059 1.370 . S
C3058 C3062 1.524 . S
C3059 C3051 1.503 . S
C3059 C3058 1.370 . S
C3059 C3060 1.403 . S
C3060 C3059 1.403 . S
C3060 C3061 1.404 . S
C3060 C3063 1.539 . S
C3061 C3057 1.408 . S
C3061 C3060 1.404 . S
C3061 H3073 0.930 . S
C3062 C3058 1.524 . S
C3062 H3074 0.956 . S
C3062 H3075 0.961 . S
C3062 H3076 0.961 . S
C3063 C3060 1.539 . S
C3063 H3077 0.958 . S
C3063 H3078 0.961 . S
C3063 H3079 0.960 . S
H3064 C3048 0.931 . S
H3065 C3053 0.929 . S
H3066 C3054 0.960 . S
H3067 C3054 0.962 . S
H3068 C3054 0.960 . S
H3069 C3055 0.961 . S
H3070 C3055 0.961 . S
H3071 C3055 0.961 . S
H3072 C3056 0.931 . S
H3073 C3061 0.930 . S
H3074 C3062 0.956 . S
H3075 C3062 0.961 . S
H3076 C3062 0.961 . S
H3077 C3063 0.958 . S
H3078 C3063 0.961 . S
H3079 C3063 0.960 . S
C3080 C3081 1.391 . S
C3080 C3082 1.394 . S
C3080 H3096 0.931 . S
C3081 C3080 1.391 . S
C3081 C3085 1.376 . S
C3082 C3080 1.394 . S
C3082 C3083 1.369 . S
C3082 C3086 1.531 . S
C3083 C3082 1.369 . S
C3083 C3084 1.410 . S
C3083 C3091 1.503 . S
C3084 C3083 1.410 . S
C3084 C3085 1.392 . S
C3084 C3087 1.511 . S
C3085 C3081 1.376 . S
C3085 C3084 1.392 . S
C3085 H3097 0.929 . S
C3086 C3082 1.531 . S
C3086 H3098 0.960 . S
C3086 H3099 0.962 . S
C3086 H3100 0.960 . S
C3087 C3084 1.511 . S
C3087 H3101 0.961 . S
C3087 H3102 0.961 . S
C3087 H3103 0.961 . S
C3088 C3089 1.370 . S
C3088 C3090 1.363 . S
C3088 H3104 0.931 . S
C3089 C3088 1.370 . S
C3089 C3093 1.408 . S
C3090 C3088 1.363 . S
C3090 C3091 1.370 . S
C3090 C3094 1.524 . S
C3091 C3083 1.503 . S
C3091 C3090 1.370 . S
C3091 C3092 1.403 . S
C3092 C3091 1.403 . S
C3092 C3093 1.404 . S
C3092 C3095 1.539 . S
C3093 C3089 1.408 . S
C3093 C3092 1.404 . S
C3093 H3105 0.930 . S
C3094 C3090 1.524 . S
C3094 H3106 0.956 . S
C3094 H3107 0.961 . S
C3094 H3108 0.961 . S
C3095 C3092 1.539 . S
C3095 H3109 0.958 . S
C3095 H3110 0.961 . S
C3095 H3111 0.960 . S
H3096 C3080 0.931 . S
H3097 C3085 0.929 . S
H3098 C3086 0.960 . S
H3099 C3086 0.962 . S
H3100 C3086 0.960 . S
H3101 C3087 0.961 . S
H3102 C3087 0.961 . S
H3103 C3087 0.961 . S
H3104 C3088 0.931 . S
H3105 C3093 0.930 . S
H3106 C3094 0.956 . S
H3107 C3094 0.961 . S
H3108 C3094 0.961 . S
H3109 C3095 0.958 . S
H3110 C3095 0.961 . S
H3111 C3095 0.960 . S
C3112 C3113 1.391 . S
C3112 C3114 1.394 . S
C3112 H3128 0.931 . S
C3113 C3112 1.391 . S
C3113 C3117 1.376 . S
C3114 C3112 1.394 . S
C3114 C3115 1.369 . S
C3114 C3118 1.531 . S
C3115 C3114 1.369 . S
C3115 C3116 1.410 . S
C3115 C3123 1.503 . S
C3116 C3115 1.410 . S
C3116 C3117 1.392 . S
C3116 C3119 1.511 . S
C3117 C3113 1.376 . S
C3117 C3116 1.392 . S
C3117 H3129 0.929 . S
C3118 C3114 1.531 . S
C3118 H3130 0.960 . S
C3118 H3131 0.962 . S
C3118 H3132 0.960 . S
C3119 C3116 1.511 . S
C3119 H3133 0.961 . S
C3119 H3134 0.961 . S
C3119 H3135 0.961 . S
C3120 C3121 1.370 . S
C3120 C3122 1.363 . S
C3120 H3136 0.931 . S
C3121 C3120 1.370 . S
C3121 C3125 1.408 . S
C3122 C3120 1.363 . S
C3122 C3123 1.370 . S
C3122 C3126 1.524 . S
C3123 C3115 1.503 . S
C3123 C3122 1.370 . S
C3123 C3124 1.403 . S
C3124 C3123 1.403 . S
C3124 C3125 1.404 . S
C3124 C3127 1.539 . S
C3125 C3121 1.408 . S
C3125 C3124 1.404 . S
C3125 H3137 0.930 . S
C3126 C3122 1.524 . S
C3126 H3138 0.956 . S
C3126 H3139 0.961 . S
C3126 H3140 0.961 . S
C3127 C3124 1.539 . S
C3127 H3141 0.958 . S
C3127 H3142 0.961 . S
C3127 H3143 0.960 . S
H3128 C3112 0.931 . S
H3129 C3117 0.929 . S
H3130 C3118 0.960 . S
H3131 C3118 0.962 . S
H3132 C3118 0.960 . S
H3133 C3119 0.961 . S
H3134 C3119 0.961 . S
H3135 C3119 0.961 . S
H3136 C3120 0.931 . S
H3137 C3125 0.930 . S
H3138 C3126 0.956 . S
H3139 C3126 0.961 . S
H3140 C3126 0.961 . S
H3141 C3127 0.958 . S
H3142 C3127 0.961 . S
H3143 C3127 0.960 . S
C3144 C3145 1.391 . S
C3144 C3146 1.394 . S
C3144 H3160 0.931 . S
C3145 C3144 1.391 . S
C3145 C3149 1.376 . S
C3146 C3144 1.394 . S
C3146 C3147 1.369 . S
C3146 C3150 1.531 . S
C3147 C3146 1.369 . S
C3147 C3148 1.410 . S
C3147 C3155 1.503 . S
C3148 C3147 1.410 . S
C3148 C3149 1.392 . S
C3148 C3151 1.511 . S
C3149 C3145 1.376 . S
C3149 C3148 1.392 . S
C3149 H3161 0.929 . S
C3150 C3146 1.531 . S
C3150 H3162 0.960 . S
C3150 H3163 0.962 . S
C3150 H3164 0.960 . S
C3151 C3148 1.511 . S
C3151 H3165 0.961 . S
C3151 H3166 0.961 . S
C3151 H3167 0.961 . S
C3152 C3153 1.370 . S
C3152 C3154 1.363 . S
C3152 H3168 0.931 . S
C3153 C3152 1.370 . S
C3153 C3157 1.408 . S
C3154 C3152 1.363 . S
C3154 C3155 1.370 . S
C3154 C3158 1.524 . S
C3155 C3147 1.503 . S
C3155 C3154 1.370 . S
C3155 C3156 1.403 . S
C3156 C3155 1.403 . S
C3156 C3157 1.404 . S
C3156 C3159 1.539 . S
C3157 C3153 1.408 . S
C3157 C3156 1.404 . S
C3157 H3169 0.930 . S
C3158 C3154 1.524 . S
C3158 H3170 0.956 . S
C3158 H3171 0.961 . S
C3158 H3172 0.961 . S
C3159 C3156 1.539 . S
C3159 H3173 0.958 . S
C3159 H3174 0.961 . S
C3159 H3175 0.960 . S
H3160 C3144 0.931 . S
H3161 C3149 0.929 . S
H3162 C3150 0.960 . S
H3163 C3150 0.962 . S
H3164 C3150 0.960 . S
H3165 C3151 0.961 . S
H3166 C3151 0.961 . S
H3167 C3151 0.961 . S
H3168 C3152 0.931 . S
H3169 C3157 0.930 . S
H3170 C3158 0.956 . S
H3171 C3158 0.961 . S
H3172 C3158 0.961 . S
H3173 C3159 0.958 . S
H3174 C3159 0.961 . S
H3175 C3159 0.960 . S
C3176 C3177 1.391 . S
C3176 C3178 1.394 . S
C3176 H3192 0.931 . S
C3177 C3176 1.391 . S
C3177 C3181 1.376 . S
C3178 C3176 1.394 . S
C3178 C3179 1.369 . S
C3178 C3182 1.531 . S
C3179 C3178 1.369 . S
C3179 C3180 1.410 . S
C3179 C3187 1.503 . S
C3180 C3179 1.410 . S
C3180 C3181 1.392 . S
C3180 C3183 1.511 . S
C3181 C3177 1.376 . S
C3181 C3180 1.392 . S
C3181 H3193 0.929 . S
C3182 C3178 1.531 . S
C3182 H3194 0.960 . S
C3182 H3195 0.962 . S
C3182 H3196 0.960 . S
C3183 C3180 1.511 . S
C3183 H3197 0.961 . S
C3183 H3198 0.961 . S
C3183 H3199 0.961 . S
C3184 C3185 1.370 . S
C3184 C3186 1.363 . S
C3184 H3200 0.931 . S
C3185 C3184 1.370 . S
C3185 C3189 1.408 . S
C3186 C3184 1.363 . S
C3186 C3187 1.370 . S
C3186 C3190 1.524 . S
C3187 C3179 1.503 . S
C3187 C3186 1.370 . S
C3187 C3188 1.403 . S
C3188 C3187 1.403 . S
C3188 C3189 1.404 . S
C3188 C3191 1.539 . S
C3189 C3185 1.408 . S
C3189 C3188 1.404 . S
C3189 H3201 0.930 . S
C3190 C3186 1.524 . S
C3190 H3202 0.956 . S
C3190 H3203 0.961 . S
C3190 H3204 0.961 . S
C3191 C3188 1.539 . S
C3191 H3205 0.958 . S
C3191 H3206 0.961 . S
C3191 H3207 0.960 . S
H3192 C3176 0.931 . S
H3193 C3181 0.929 . S
H3194 C3182 0.960 . S
H3195 C3182 0.962 . S
H3196 C3182 0.960 . S
H3197 C3183 0.961 . S
H3198 C3183 0.961 . S
H3199 C3183 0.961 . S
H3200 C3184 0.931 . S
H3201 C3189 0.930 . S
H3202 C3190 0.956 . S
H3203 C3190 0.961 . S
H3204 C3190 0.961 . S
H3205 C3191 0.958 . S
H3206 C3191 0.961 . S
H3207 C3191 0.960 . S
C3208 C3209 1.391 . S
C3208 C3210 1.394 . S
C3208 H3224 0.931 . S
C3209 C3208 1.391 . S
C3209 C3213 1.376 . S
C3210 C3208 1.394 . S
C3210 C3211 1.369 . S
C3210 C3214 1.531 . S
C3211 C3210 1.369 . S
C3211 C3212 1.410 . S
C3211 C3219 1.503 . S
C3212 C3211 1.410 . S
C3212 C3213 1.392 . S
C3212 C3215 1.511 . S
C3213 C3209 1.376 . S
C3213 C3212 1.392 . S
C3213 H3225 0.929 . S
C3214 C3210 1.531 . S
C3214 H3226 0.960 . S
C3214 H3227 0.962 . S
C3214 H3228 0.960 . S
C3215 C3212 1.511 . S
C3215 H3229 0.961 . S
C3215 H3230 0.961 . S
C3215 H3231 0.961 . S
C3216 C3217 1.370 . S
C3216 C3218 1.363 . S
C3216 H3232 0.931 . S
C3217 C3216 1.370 . S
C3217 C3221 1.408 . S
C3218 C3216 1.363 . S
C3218 C3219 1.370 . S
C3218 C3222 1.524 . S
C3219 C3211 1.503 . S
C3219 C3218 1.370 . S
C3219 C3220 1.403 . S
C3220 C3219 1.403 . S
C3220 C3221 1.404 . S
C3220 C3223 1.539 . S
C3221 C3217 1.408 . S
C3221 C3220 1.404 . S
C3221 H3233 0.930 . S
C3222 C3218 1.524 . S
C3222 H3234 0.956 . S
C3222 H3235 0.961 . S
C3222 H3236 0.961 . S
C3223 C3220 1.539 . S
C3223 H3237 0.958 . S
C3223 H3238 0.961 . S
C3223 H3239 0.960 . S
H3224 C3208 0.931 . S
H3225 C3213 0.929 . S
H3226 C3214 0.960 . S
H3227 C3214 0.962 . S
H3228 C3214 0.960 . S
H3229 C3215 0.961 . S
H3230 C3215 0.961 . S
H3231 C3215 0.961 . S
H3232 C3216 0.931 . S
H3233 C3221 0.930 . S
H3234 C3222 0.956 . S
H3235 C3222 0.961 . S
H3236 C3222 0.961 . S
H3237 C3223 0.958 . S
H3238 C3223 0.961 . S
H3239 C3223 0.960 . S
C3240 C3241 1.391 . S
C3240 C3242 1.394 . S
C3240 H3256 0.931 . S
C3241 C3240 1.391 . S
C3241 C3245 1.376 . S
C3242 C3240 1.394 . S
C3242 C3243 1.369 . S
C3242 C3246 1.531 . S
C3243 C3242 1.369 . S
C3243 C3244 1.410 . S
C3243 C3251 1.503 . S
C3244 C3243 1.410 . S
C3244 C3245 1.392 . S
C3244 C3247 1.511 . S
C3245 C3241 1.376 . S
C3245 C3244 1.392 . S
C3245 H3257 0.929 . S
C3246 C3242 1.531 . S
C3246 H3258 0.960 . S
C3246 H3259 0.962 . S
C3246 H3260 0.960 . S
C3247 C3244 1.511 . S
C3247 H3261 0.961 . S
C3247 H3262 0.961 . S
C3247 H3263 0.961 . S
C3248 C3249 1.370 . S
C3248 C3250 1.363 . S
C3248 H3264 0.931 . S
C3249 C3248 1.370 . S
C3249 C3253 1.408 . S
C3250 C3248 1.363 . S
C3250 C3251 1.370 . S
C3250 C3254 1.524 . S
C3251 C3243 1.503 . S
C3251 C3250 1.370 . S
C3251 C3252 1.403 . S
C3252 C3251 1.403 . S
C3252 C3253 1.404 . S
C3252 C3255 1.539 . S
C3253 C3249 1.408 . S
C3253 C3252 1.404 . S
C3253 H3265 0.930 . S
C3254 C3250 1.524 . S
C3254 H3266 0.956 . S
C3254 H3267 0.961 . S
C3254 H3268 0.961 . S
C3255 C3252 1.539 . S
C3255 H3269 0.958 . S
C3255 H3270 0.961 . S
C3255 H3271 0.960 . S
H3256 C3240 0.931 . S
H3257 C3245 0.929 . S
H3258 C3246 0.960 . S
H3259 C3246 0.962 . S
H3260 C3246 0.960 . S
H3261 C3247 0.961 . S
H3262 C3247 0.961 . S
H3263 C3247 0.961 . S
H3264 C3248 0.931 . S
H3265 C3253 0.930 . S
H3266 C3254 0.956 . S
H3267 C3254 0.961 . S
H3268 C3254 0.961 . S
H3269 C3255 0.958 . S
H3270 C3255 0.961 . S
H3271 C3255 0.960 . S
C3272 C3273 1.391 . S
C3272 C3274 1.394 . S
C3272 H3288 0.931 . S
C3273 C3272 1.391 . S
C3273 C3277 1.376 . S
C3274 C3272 1.394 . S
C3274 C3275 1.369 . S
C3274 C3278 1.531 . S
C3275 C3274 1.369 . S
C3275 C3276 1.410 . S
C3275 C3283 1.503 . S
C3276 C3275 1.410 . S
C3276 C3277 1.392 . S
C3276 C3279 1.511 . S
C3277 C3273 1.376 . S
C3277 C3276 1.392 . S
C3277 H3289 0.929 . S
C3278 C3274 1.531 . S
C3278 H3290 0.960 . S
C3278 H3291 0.962 . S
C3278 H3292 0.960 . S
C3279 C3276 1.511 . S
C3279 H3293 0.961 . S
C3279 H3294 0.961 . S
C3279 H3295 0.961 . S
C3280 C3281 1.370 . S
C3280 C3282 1.363 . S
C3280 H3296 0.931 . S
C3281 C3280 1.370 . S
C3281 C3285 1.408 . S
C3282 C3280 1.363 . S
C3282 C3283 1.370 . S
C3282 C3286 1.524 . S
C3283 C3275 1.503 . S
C3283 C3282 1.370 . S
C3283 C3284 1.403 . S
C3284 C3283 1.403 . S
C3284 C3285 1.404 . S
C3284 C3287 1.539 . S
C3285 C3281 1.408 . S
C3285 C3284 1.404 . S
C3285 H3297 0.930 . S
C3286 C3282 1.524 . S
C3286 H3298 0.956 . S
C3286 H3299 0.961 . S
C3286 H3300 0.961 . S
C3287 C3284 1.539 . S
C3287 H3301 0.958 . S
C3287 H3302 0.961 . S
C3287 H3303 0.960 . S
H3288 C3272 0.931 . S
H3289 C3277 0.929 . S
H3290 C3278 0.960 . S
H3291 C3278 0.962 . S
H3292 C3278 0.960 . S
H3293 C3279 0.961 . S
H3294 C3279 0.961 . S
H3295 C3279 0.961 . S
H3296 C3280 0.931 . S
H3297 C3285 0.930 . S
H3298 C3286 0.956 . S
H3299 C3286 0.961 . S
H3300 C3286 0.961 . S
H3301 C3287 0.958 . S
H3302 C3287 0.961 . S
H3303 C3287 0.960 . S
C3304 C3305 1.391 . S
C3304 C3306 1.394 . S
C3304 H3320 0.931 . S
C3305 C3304 1.391 . S
C3305 C3309 1.376 . S
C3306 C3304 1.394 . S
C3306 C3307 1.369 . S
C3306 C3310 1.531 . S
C3307 C3306 1.369 . S
C3307 C3308 1.410 . S
C3307 C3315 1.503 . S
C3308 C3307 1.410 . S
C3308 C3309 1.392 . S
C3308 C3311 1.511 . S
C3309 C3305 1.376 . S
C3309 C3308 1.392 . S
C3309 H3321 0.929 . S
C3310 C3306 1.531 . S
C3310 H3322 0.960 . S
C3310 H3323 0.962 . S
C3310 H3324 0.960 . S
C3311 C3308 1.511 . S
C3311 H3325 0.961 . S
C3311 H3326 0.961 . S
C3311 H3327 0.961 . S
C3312 C3313 1.370 . S
C3312 C3314 1.363 . S
C3312 H3328 0.931 . S
C3313 C3312 1.370 . S
C3313 C3317 1.408 . S
C3314 C3312 1.363 . S
C3314 C3315 1.370 . S
C3314 C3318 1.524 . S
C3315 C3307 1.503 . S
C3315 C3314 1.370 . S
C3315 C3316 1.403 . S
C3316 C3315 1.403 . S
C3316 C3317 1.404 . S
C3316 C3319 1.539 . S
C3317 C3313 1.408 . S
C3317 C3316 1.404 . S
C3317 H3329 0.930 . S
C3318 C3314 1.524 . S
C3318 H3330 0.956 . S
C3318 H3331 0.961 . S
C3318 H3332 0.961 . S
C3319 C3316 1.539 . S
C3319 H3333 0.958 . S
C3319 H3334 0.961 . S
C3319 H3335 0.960 . S
H3320 C3304 0.931 . S
H3321 C3309 0.929 . S
H3322 C3310 0.960 . S
H3323 C3310 0.962 . S
H3324 C3310 0.960 . S
H3325 C3311 0.961 . S
H3326 C3311 0.961 . S
H3327 C3311 0.961 . S
H3328 C3312 0.931 . S
H3329 C3317 0.930 . S
H3330 C3318 0.956 . S
H3331 C3318 0.961 . S
H3332 C3318 0.961 . S
H3333 C3319 0.958 . S
H3334 C3319 0.961 . S
H3335 C3319 0.960 . S
C3336 C3337 1.391 . S
C3336 C3338 1.394 . S
C3336 H3352 0.931 . S
C3337 C3336 1.391 . S
C3337 C3341 1.376 . S
C3338 C3336 1.394 . S
C3338 C3339 1.369 . S
C3338 C3342 1.531 . S
C3339 C3338 1.369 . S
C3339 C3340 1.410 . S
C3339 C3347 1.503 . S
C3340 C3339 1.410 . S
C3340 C3341 1.392 . S
C3340 C3343 1.511 . S
C3341 C3337 1.376 . S
C3341 C3340 1.392 . S
C3341 H3353 0.929 . S
C3342 C3338 1.531 . S
C3342 H3354 0.960 . S
C3342 H3355 0.962 . S
C3342 H3356 0.960 . S
C3343 C3340 1.511 . S
C3343 H3357 0.961 . S
C3343 H3358 0.961 . S
C3343 H3359 0.961 . S
C3344 C3345 1.370 . S
C3344 C3346 1.363 . S
C3344 H3360 0.931 . S
C3345 C3344 1.370 . S
C3345 C3349 1.408 . S
C3346 C3344 1.363 . S
C3346 C3347 1.370 . S
C3346 C3350 1.524 . S
C3347 C3339 1.503 . S
C3347 C3346 1.370 . S
C3347 C3348 1.403 . S
C3348 C3347 1.403 . S
C3348 C3349 1.404 . S
C3348 C3351 1.539 . S
C3349 C3345 1.408 . S
C3349 C3348 1.404 . S
C3349 H3361 0.930 . S
C3350 C3346 1.524 . S
C3350 H3362 0.956 . S
C3350 H3363 0.961 . S
C3350 H3364 0.961 . S
C3351 C3348 1.539 . S
C3351 H3365 0.958 . S
C3351 H3366 0.961 . S
C3351 H3367 0.960 . S
H3352 C3336 0.931 . S
H3353 C3341 0.929 . S
H3354 C3342 0.960 . S
H3355 C3342 0.962 . S
H3356 C3342 0.960 . S
H3357 C3343 0.961 . S
H3358 C3343 0.961 . S
H3359 C3343 0.961 . S
H3360 C3344 0.931 . S
H3361 C3349 0.930 . S
H3362 C3350 0.956 . S
H3363 C3350 0.961 . S
H3364 C3350 0.961 . S
H3365 C3351 0.958 . S
H3366 C3351 0.961 . S
H3367 C3351 0.960 . S
C3368 C3369 1.391 . S
C3368 C3370 1.394 . S
C3368 H3384 0.931 . S
C3369 C3368 1.391 . S
C3369 C3373 1.376 . S
C3370 C3368 1.394 . S
C3370 C3371 1.369 . S
C3370 C3374 1.531 . S
C3371 C3370 1.369 . S
C3371 C3372 1.410 . S
C3371 C3379 1.503 . S
C3372 C3371 1.410 . S
C3372 C3373 1.392 . S
C3372 C3375 1.511 . S
C3373 C3369 1.376 . S
C3373 C3372 1.392 . S
C3373 H3385 0.929 . S
C3374 C3370 1.531 . S
C3374 H3386 0.960 . S
C3374 H3387 0.962 . S
C3374 H3388 0.960 . S
C3375 C3372 1.511 . S
C3375 H3389 0.961 . S
C3375 H3390 0.961 . S
C3375 H3391 0.961 . S
C3376 C3377 1.370 . S
C3376 C3378 1.363 . S
C3376 H3392 0.931 . S
C3377 C3376 1.370 . S
C3377 C3381 1.408 . S
C3378 C3376 1.363 . S
C3378 C3379 1.370 . S
C3378 C3382 1.524 . S
C3379 C3371 1.503 . S
C3379 C3378 1.370 . S
C3379 C3380 1.403 . S
C3380 C3379 1.403 . S
C3380 C3381 1.404 . S
C3380 C3383 1.539 . S
C3381 C3377 1.408 . S
C3381 C3380 1.404 . S
C3381 H3393 0.930 . S
C3382 C3378 1.524 . S
C3382 H3394 0.956 . S
C3382 H3395 0.961 . S
C3382 H3396 0.961 . S
C3383 C3380 1.539 . S
C3383 H3397 0.958 . S
C3383 H3398 0.961 . S
C3383 H3399 0.960 . S
H3384 C3368 0.931 . S
H3385 C3373 0.929 . S
H3386 C3374 0.960 . S
H3387 C3374 0.962 . S
H3388 C3374 0.960 . S
H3389 C3375 0.961 . S
H3390 C3375 0.961 . S
H3391 C3375 0.961 . S
H3392 C3376 0.931 . S
H3393 C3381 0.930 . S
H3394 C3382 0.956 . S
H3395 C3382 0.961 . S
H3396 C3382 0.961 . S
H3397 C3383 0.958 . S
H3398 C3383 0.961 . S
H3399 C3383 0.960 . S
C3400 C3401 1.391 . S
C3400 C3402 1.394 . S
C3400 H3416 0.931 . S
C3401 C3400 1.391 . S
C3401 C3405 1.376 . S
C3402 C3400 1.394 . S
C3402 C3403 1.369 . S
C3402 C3406 1.531 . S
C3403 C3402 1.369 . S
C3403 C3404 1.410 . S
C3403 C3411 1.503 . S
C3404 C3403 1.410 . S
C3404 C3405 1.392 . S
C3404 C3407 1.511 . S
C3405 C3401 1.376 . S
C3405 C3404 1.392 . S
C3405 H3417 0.929 . S
C3406 C3402 1.531 . S
C3406 H3418 0.960 . S
C3406 H3419 0.962 . S
C3406 H3420 0.960 . S
C3407 C3404 1.511 . S
C3407 H3421 0.961 . S
C3407 H3422 0.961 . S
C3407 H3423 0.961 . S
C3408 C3409 1.370 . S
C3408 C3410 1.363 . S
C3408 H3424 0.931 . S
C3409 C3408 1.370 . S
C3409 C3413 1.408 . S
C3410 C3408 1.363 . S
C3410 C3411 1.370 . S
C3410 C3414 1.524 . S
C3411 C3403 1.503 . S
C3411 C3410 1.370 . S
C3411 C3412 1.403 . S
C3412 C3411 1.403 . S
C3412 C3413 1.404 . S
C3412 C3415 1.539 . S
C3413 C3409 1.408 . S
C3413 C3412 1.404 . S
C3413 H3425 0.930 . S
C3414 C3410 1.524 . S
C3414 H3426 0.956 . S
C3414 H3427 0.961 . S
C3414 H3428 0.961 . S
C3415 C3412 1.539 . S
C3415 H3429 0.958 . S
C3415 H3430 0.961 . S
C3415 H3431 0.960 . S
H3416 C3400 0.931 . S
H3417 C3405 0.929 . S
H3418 C3406 0.960 . S
H3419 C3406 0.962 . S
H3420 C3406 0.960 . S
H3421 C3407 0.961 . S
H3422 C3407 0.961 . S
H3423 C3407 0.961 . S
H3424 C3408 0.931 . S
H3425 C3413 0.930 . S
H3426 C3414 0.956 . S
H3427 C3414 0.961 . S
H3428 C3414 0.961 . S
H3429 C3415 0.958 . S
H3430 C3415 0.961 . S
H3431 C3415 0.960 . S
C3432 C3433 1.391 . S
C3432 C3434 1.394 . S
C3432 H3448 0.931 . S
C3433 C3432 1.391 . S
C3433 C3437 1.376 . S
C3434 C3432 1.394 . S
C3434 C3435 1.369 . S
C3434 C3438 1.531 . S
C3435 C3434 1.369 . S
C3435 C3436 1.410 . S
C3435 C3443 1.503 . S
C3436 C3435 1.410 . S
C3436 C3437 1.392 . S
C3436 C3439 1.511 . S
C3437 C3433 1.376 . S
C3437 C3436 1.392 . S
C3437 H3449 0.929 . S
C3438 C3434 1.531 . S
C3438 H3450 0.960 . S
C3438 H3451 0.962 . S
C3438 H3452 0.960 . S
C3439 C3436 1.511 . S
C3439 H3453 0.961 . S
C3439 H3454 0.961 . S
C3439 H3455 0.961 . S
C3440 C3441 1.370 . S
C3440 C3442 1.363 . S
C3440 H3456 0.931 . S
C3441 C3440 1.370 . S
C3441 C3445 1.408 . S
C3442 C3440 1.363 . S
C3442 C3443 1.370 . S
C3442 C3446 1.524 . S
C3443 C3435 1.503 . S
C3443 C3442 1.370 . S
C3443 C3444 1.403 . S
C3444 C3443 1.403 . S
C3444 C3445 1.404 . S
C3444 C3447 1.539 . S
C3445 C3441 1.408 . S
C3445 C3444 1.404 . S
C3445 H3457 0.930 . S
C3446 C3442 1.524 . S
C3446 H3458 0.956 . S
C3446 H3459 0.961 . S
C3446 H3460 0.961 . S
C3447 C3444 1.539 . S
C3447 H3461 0.958 . S
C3447 H3462 0.961 . S
C3447 H3463 0.960 . S
H3448 C3432 0.931 . S
H3449 C3437 0.929 . S
H3450 C3438 0.960 . S
H3451 C3438 0.962 . S
H3452 C3438 0.960 . S
H3453 C3439 0.961 . S
H3454 C3439 0.961 . S
H3455 C3439 0.961 . S
H3456 C3440 0.931 . S
H3457 C3445 0.930 . S
H3458 C3446 0.956 . S
H3459 C3446 0.961 . S
H3460 C3446 0.961 . S
H3461 C3447 0.958 . S
H3462 C3447 0.961 . S
H3463 C3447 0.960 . S
C3464 C3465 1.391 . S
C3464 C3466 1.394 . S
C3464 H3480 0.931 . S
C3465 C3464 1.391 . S
C3465 C3469 1.376 . S
C3466 C3464 1.394 . S
C3466 C3467 1.369 . S
C3466 C3470 1.531 . S
C3467 C3466 1.369 . S
C3467 C3468 1.410 . S
C3467 C3475 1.503 . S
C3468 C3467 1.410 . S
C3468 C3469 1.392 . S
C3468 C3471 1.511 . S
C3469 C3465 1.376 . S
C3469 C3468 1.392 . S
C3469 H3481 0.929 . S
C3470 C3466 1.531 . S
C3470 H3482 0.960 . S
C3470 H3483 0.962 . S
C3470 H3484 0.960 . S
C3471 C3468 1.511 . S
C3471 H3485 0.961 . S
C3471 H3486 0.961 . S
C3471 H3487 0.961 . S
C3472 C3473 1.370 . S
C3472 C3474 1.363 . S
C3472 H3488 0.931 . S
C3473 C3472 1.370 . S
C3473 C3477 1.408 . S
C3474 C3472 1.363 . S
C3474 C3475 1.370 . S
C3474 C3478 1.524 . S
C3475 C3467 1.503 . S
C3475 C3474 1.370 . S
C3475 C3476 1.403 . S
C3476 C3475 1.403 . S
C3476 C3477 1.404 . S
C3476 C3479 1.539 . S
C3477 C3473 1.408 . S
C3477 C3476 1.404 . S
C3477 H3489 0.930 . S
C3478 C3474 1.524 . S
C3478 H3490 0.956 . S
C3478 H3491 0.961 . S
C3478 H3492 0.961 . S
C3479 C3476 1.539 . S
C3479 H3493 0.958 . S
C3479 H3494 0.961 . S
C3479 H3495 0.960 . S
H3480 C3464 0.931 . S
H3481 C3469 0.929 . S
H3482 C3470 0.960 . S
H3483 C3470 0.962 . S
H3484 C3470 0.960 . S
H3485 C3471 0.961 . S
H3486 C3471 0.961 . S
H3487 C3471 0.961 . S
H3488 C3472 0.931 . S
H3489 C3477 0.930 . S
H3490 C3478 0.956 . S
H3491 C3478 0.961 . S
H3492 C3478 0.961 . S
H3493 C3479 0.958 . S
H3494 C3479 0.961 . S
H3495 C3479 0.960 . S
C3496 C3497 1.391 . S
C3496 C3498 1.394 . S
C3496 H3512 0.931 . S
C3497 C3496 1.391 . S
C3497 C3501 1.376 . S
C3498 C3496 1.394 . S
C3498 C3499 1.369 . S
C3498 C3502 1.531 . S
C3499 C3498 1.369 . S
C3499 C3500 1.410 . S
C3499 C3507 1.503 . S
C3500 C3499 1.410 . S
C3500 C3501 1.392 . S
C3500 C3503 1.511 . S
C3501 C3497 1.376 . S
C3501 C3500 1.392 . S
C3501 H3513 0.929 . S
C3502 C3498 1.531 . S
C3502 H3514 0.960 . S
C3502 H3515 0.962 . S
C3502 H3516 0.960 . S
C3503 C3500 1.511 . S
C3503 H3517 0.961 . S
C3503 H3518 0.961 . S
C3503 H3519 0.961 . S
C3504 C3505 1.370 . S
C3504 C3506 1.363 . S
C3504 H3520 0.931 . S
C3505 C3504 1.370 . S
C3505 C3509 1.408 . S
C3506 C3504 1.363 . S
C3506 C3507 1.370 . S
C3506 C3510 1.524 . S
C3507 C3499 1.503 . S
C3507 C3506 1.370 . S
C3507 C3508 1.403 . S
C3508 C3507 1.403 . S
C3508 C3509 1.404 . S
C3508 C3511 1.539 . S
C3509 C3505 1.408 . S
C3509 C3508 1.404 . S
C3509 H3521 0.930 . S
C3510 C3506 1.524 . S
C3510 H3522 0.956 . S
C3510 H3523 0.961 . S
C3510 H3524 0.961 . S
C3511 C3508 1.539 . S
C3511 H3525 0.958 . S
C3511 H3526 0.961 . S
C3511 H3527 0.960 . S
H3512 C3496 0.931 . S
H3513 C3501 0.929 . S
H3514 C3502 0.960 . S
H3515 C3502 0.962 . S
H3516 C3502 0.960 . S
H3517 C3503 0.961 . S
H3518 C3503 0.961 . S
H3519 C3503 0.961 . S
H3520 C3504 0.931 . S
H3521 C3509 0.930 . S
H3522 C3510 0.956 . S
H3523 C3510 0.961 . S
H3524 C3510 0.961 . S
H3525 C3511 0.958 . S
H3526 C3511 0.961 . S
H3527 C3511 0.960 . S
C3528 C3529 1.391 . S
C3528 C3530 1.394 . S
C3528 H3544 0.931 . S
C3529 C3528 1.391 . S
C3529 C3533 1.376 . S
C3530 C3528 1.394 . S
C3530 C3531 1.369 . S
C3530 C3534 1.531 . S
C3531 C3530 1.369 . S
C3531 C3532 1.410 . S
C3531 C3539 1.503 . S
C3532 C3531 1.410 . S
C3532 C3533 1.392 . S
C3532 C3535 1.511 . S
C3533 C3529 1.376 . S
C3533 C3532 1.392 . S
C3533 H3545 0.929 . S
C3534 C3530 1.531 . S
C3534 H3546 0.960 . S
C3534 H3547 0.962 . S
C3534 H3548 0.960 . S
C3535 C3532 1.511 . S
C3535 H3549 0.961 . S
C3535 H3550 0.961 . S
C3535 H3551 0.961 . S
C3536 C3537 1.370 . S
C3536 C3538 1.363 . S
C3536 H3552 0.931 . S
C3537 C3536 1.370 . S
C3537 C3541 1.408 . S
C3538 C3536 1.363 . S
C3538 C3539 1.370 . S
C3538 C3542 1.524 . S
C3539 C3531 1.503 . S
C3539 C3538 1.370 . S
C3539 C3540 1.403 . S
C3540 C3539 1.403 . S
C3540 C3541 1.404 . S
C3540 C3543 1.539 . S
C3541 C3537 1.408 . S
C3541 C3540 1.404 . S
C3541 H3553 0.930 . S
C3542 C3538 1.524 . S
C3542 H3554 0.956 . S
C3542 H3555 0.961 . S
C3542 H3556 0.961 . S
C3543 C3540 1.539 . S
C3543 H3557 0.958 . S
C3543 H3558 0.961 . S
C3543 H3559 0.960 . S
H3544 C3528 0.931 . S
H3545 C3533 0.929 . S
H3546 C3534 0.960 . S
H3547 C3534 0.962 . S
H3548 C3534 0.960 . S
H3549 C3535 0.961 . S
H3550 C3535 0.961 . S
H3551 C3535 0.961 . S
H3552 C3536 0.931 . S
H3553 C3541 0.930 . S
H3554 C3542 0.956 . S
H3555 C3542 0.961 . S
H3556 C3542 0.961 . S
H3557 C3543 0.958 . S
H3558 C3543 0.961 . S
H3559 C3543 0.960 . S
C3560 C3561 1.391 . S
C3560 C3562 1.394 . S
C3560 H3576 0.931 . S
C3561 C3560 1.391 . S
C3561 C3565 1.376 . S
C3562 C3560 1.394 . S
C3562 C3563 1.369 . S
C3562 C3566 1.531 . S
C3563 C3562 1.369 . S
C3563 C3564 1.410 . S
C3563 C3571 1.503 . S
C3564 C3563 1.410 . S
C3564 C3565 1.392 . S
C3564 C3567 1.511 . S
C3565 C3561 1.376 . S
C3565 C3564 1.392 . S
C3565 H3577 0.929 . S
C3566 C3562 1.531 . S
C3566 H3578 0.960 . S
C3566 H3579 0.962 . S
C3566 H3580 0.960 . S
C3567 C3564 1.511 . S
C3567 H3581 0.961 . S
C3567 H3582 0.961 . S
C3567 H3583 0.961 . S
C3568 C3569 1.370 . S
C3568 C3570 1.363 . S
C3568 H3584 0.931 . S
C3569 C3568 1.370 . S
C3569 C3573 1.408 . S
C3570 C3568 1.363 . S
C3570 C3571 1.370 . S
C3570 C3574 1.524 . S
C3571 C3563 1.503 . S
C3571 C3570 1.370 . S
C3571 C3572 1.403 . S
C3572 C3571 1.403 . S
C3572 C3573 1.404 . S
C3572 C3575 1.539 . S
C3573 C3569 1.408 . S
C3573 C3572 1.404 . S
C3573 H3585 0.930 . S
C3574 C3570 1.524 . S
C3574 H3586 0.956 . S
C3574 H3587 0.961 . S
C3574 H3588 0.961 . S
C3575 C3572 1.539 . S
C3575 H3589 0.958 . S
C3575 H3590 0.961 . S
C3575 H3591 0.960 . S
H3576 C3560 0.931 . S
H3577 C3565 0.929 . S
H3578 C3566 0.960 . S
H3579 C3566 0.962 . S
H3580 C3566 0.960 . S
H3581 C3567 0.961 . S
H3582 C3567 0.961 . S
H3583 C3567 0.961 . S
H3584 C3568 0.931 . S
H3585 C3573 0.930 . S
H3586 C3574 0.956 . S
H3587 C3574 0.961 . S
H3588 C3574 0.961 . S
H3589 C3575 0.958 . S
H3590 C3575 0.961 . S
H3591 C3575 0.960 . S
C3592 C3593 1.391 . S
C3592 C3594 1.394 . S
C3592 H3608 0.931 . S
C3593 C3592 1.391 . S
C3593 C3597 1.376 . S
C3594 C3592 1.394 . S
C3594 C3595 1.369 . S
C3594 C3598 1.531 . S
C3595 C3594 1.369 . S
C3595 C3596 1.410 . S
C3595 C3603 1.503 . S
C3596 C3595 1.410 . S
C3596 C3597 1.392 . S
C3596 C3599 1.511 . S
C3597 C3593 1.376 . S
C3597 C3596 1.392 . S
C3597 H3609 0.929 . S
C3598 C3594 1.531 . S
C3598 H3610 0.960 . S
C3598 H3611 0.962 . S
C3598 H3612 0.960 . S
C3599 C3596 1.511 . S
C3599 H3613 0.961 . S
C3599 H3614 0.961 . S
C3599 H3615 0.961 . S
C3600 C3601 1.370 . S
C3600 C3602 1.363 . S
C3600 H3616 0.931 . S
C3601 C3600 1.370 . S
C3601 C3605 1.408 . S
C3602 C3600 1.363 . S
C3602 C3603 1.370 . S
C3602 C3606 1.524 . S
C3603 C3595 1.503 . S
C3603 C3602 1.370 . S
C3603 C3604 1.403 . S
C3604 C3603 1.403 . S
C3604 C3605 1.404 . S
C3604 C3607 1.539 . S
C3605 C3601 1.408 . S
C3605 C3604 1.404 . S
C3605 H3617 0.930 . S
C3606 C3602 1.524 . S
C3606 H3618 0.956 . S
C3606 H3619 0.961 . S
C3606 H3620 0.961 . S
C3607 C3604 1.539 . S
C3607 H3621 0.958 . S
C3607 H3622 0.961 . S
C3607 H3623 0.960 . S
H3608 C3592 0.931 . S
H3609 C3597 0.929 . S
H3610 C3598 0.960 . S
H3611 C3598 0.962 . S
H3612 C3598 0.960 . S
H3613 C3599 0.961 . S
H3614 C3599 0.961 . S
H3615 C3599 0.961 . S
H3616 C3600 0.931 . S
H3617 C3605 0.930 . S
H3618 C3606 0.956 . S
H3619 C3606 0.961 . S
H3620 C3606 0.961 . S
H3621 C3607 0.958 . S
H3622 C3607 0.961 . S
H3623 C3607 0.960 . S
C3624 C3625 1.391 . S
C3624 C3626 1.394 . S
C3624 H3640 0.931 . S
C3625 C3624 1.391 . S
C3625 C3629 1.376 . S
C3626 C3624 1.394 . S
C3626 C3627 1.369 . S
C3626 C3630 1.531 . S
C3627 C3626 1.369 . S
C3627 C3628 1.410 . S
C3627 C3635 1.503 . S
C3628 C3627 1.410 . S
C3628 C3629 1.392 . S
C3628 C3631 1.511 . S
C3629 C3625 1.376 . S
C3629 C3628 1.392 . S
C3629 H3641 0.929 . S
C3630 C3626 1.531 . S
C3630 H3642 0.960 . S
C3630 H3643 0.962 . S
C3630 H3644 0.960 . S
C3631 C3628 1.511 . S
C3631 H3645 0.961 . S
C3631 H3646 0.961 . S
C3631 H3647 0.961 . S
C3632 C3633 1.370 . S
C3632 C3634 1.363 . S
C3632 H3648 0.931 . S
C3633 C3632 1.370 . S
C3633 C3637 1.408 . S
C3634 C3632 1.363 . S
C3634 C3635 1.370 . S
C3634 C3638 1.524 . S
C3635 C3627 1.503 . S
C3635 C3634 1.370 . S
C3635 C3636 1.403 . S
C3636 C3635 1.403 . S
C3636 C3637 1.404 . S
C3636 C3639 1.539 . S
C3637 C3633 1.408 . S
C3637 C3636 1.404 . S
C3637 H3649 0.930 . S
C3638 C3634 1.524 . S
C3638 H3650 0.956 . S
C3638 H3651 0.961 . S
C3638 H3652 0.961 . S
C3639 C3636 1.539 . S
C3639 H3653 0.958 . S
C3639 H3654 0.961 . S
C3639 H3655 0.960 . S
H3640 C3624 0.931 . S
H3641 C3629 0.929 . S
H3642 C3630 0.960 . S
H3643 C3630 0.962 . S
H3644 C3630 0.960 . S
H3645 C3631 0.961 . S
H3646 C3631 0.961 . S
H3647 C3631 0.961 . S
H3648 C3632 0.931 . S
H3649 C3637 0.930 . S
H3650 C3638 0.956 . S
H3651 C3638 0.961 . S
H3652 C3638 0.961 . S
H3653 C3639 0.958 . S
H3654 C3639 0.961 . S
H3655 C3639 0.960 . S
C3656 C3657 1.391 . S
C3656 C3658 1.394 . S
C3656 H3672 0.931 . S
C3657 C3656 1.391 . S
C3657 C3661 1.376 . S
C3658 C3656 1.394 . S
C3658 C3659 1.369 . S
C3658 C3662 1.531 . S
C3659 C3658 1.369 . S
C3659 C3660 1.410 . S
C3659 C3667 1.503 . S
C3660 C3659 1.410 . S
C3660 C3661 1.392 . S
C3660 C3663 1.511 . S
C3661 C3657 1.376 . S
C3661 C3660 1.392 . S
C3661 H3673 0.929 . S
C3662 C3658 1.531 . S
C3662 H3674 0.960 . S
C3662 H3675 0.962 . S
C3662 H3676 0.960 . S
C3663 C3660 1.511 . S
C3663 H3677 0.961 . S
C3663 H3678 0.961 . S
C3663 H3679 0.961 . S
C3664 C3665 1.370 . S
C3664 C3666 1.363 . S
C3664 H3680 0.931 . S
C3665 C3664 1.370 . S
C3665 C3669 1.408 . S
C3666 C3664 1.363 . S
C3666 C3667 1.370 . S
C3666 C3670 1.524 . S
C3667 C3659 1.503 . S
C3667 C3666 1.370 . S
C3667 C3668 1.403 . S
C3668 C3667 1.403 . S
C3668 C3669 1.404 . S
C3668 C3671 1.539 . S
C3669 C3665 1.408 . S
C3669 C3668 1.404 . S
C3669 H3681 0.930 . S
C3670 C3666 1.524 . S
C3670 H3682 0.956 . S
C3670 H3683 0.961 . S
C3670 H3684 0.961 . S
C3671 C3668 1.539 . S
C3671 H3685 0.958 . S
C3671 H3686 0.961 . S
C3671 H3687 0.960 . S
H3672 C3656 0.931 . S
H3673 C3661 0.929 . S
H3674 C3662 0.960 . S
H3675 C3662 0.962 . S
H3676 C3662 0.960 . S
H3677 C3663 0.961 . S
H3678 C3663 0.961 . S
H3679 C3663 0.961 . S
H3680 C3664 0.931 . S
H3681 C3669 0.930 . S
H3682 C3670 0.956 . S
H3683 C3670 0.961 . S
H3684 C3670 0.961 . S
H3685 C3671 0.958 . S
H3686 C3671 0.961 . S
H3687 C3671 0.960 . S
C3688 C3689 1.391 . S
C3688 C3690 1.394 . S
C3688 H3704 0.931 . S
C3689 C3688 1.391 . S
C3689 C3693 1.376 . S
C3690 C3688 1.394 . S
C3690 C3691 1.369 . S
C3690 C3694 1.531 . S
C3691 C3690 1.369 . S
C3691 C3692 1.410 . S
C3691 C3699 1.503 . S
C3692 C3691 1.410 . S
C3692 C3693 1.392 . S
C3692 C3695 1.511 . S
C3693 C3689 1.376 . S
C3693 C3692 1.392 . S
C3693 H3705 0.929 . S
C3694 C3690 1.531 . S
C3694 H3706 0.960 . S
C3694 H3707 0.962 . S
C3694 H3708 0.960 . S
C3695 C3692 1.511 . S
C3695 H3709 0.961 . S
C3695 H3710 0.961 . S
C3695 H3711 0.961 . S
C3696 C3697 1.370 . S
C3696 C3698 1.363 . S
C3696 H3712 0.931 . S
C3697 C3696 1.370 . S
C3697 C3701 1.408 . S
C3698 C3696 1.363 . S
C3698 C3699 1.370 . S
C3698 C3702 1.524 . S
C3699 C3691 1.503 . S
C3699 C3698 1.370 . S
C3699 C3700 1.403 . S
C3700 C3699 1.403 . S
C3700 C3701 1.404 . S
C3700 C3703 1.539 . S
C3701 C3697 1.408 . S
C3701 C3700 1.404 . S
C3701 H3713 0.930 . S
C3702 C3698 1.524 . S
C3702 H3714 0.956 . S
C3702 H3715 0.961 . S
C3702 H3716 0.961 . S
C3703 C3700 1.539 . S
C3703 H3717 0.958 . S
C3703 H3718 0.961 . S
C3703 H3719 0.960 . S
H3704 C3688 0.931 . S
H3705 C3693 0.929 . S
H3706 C3694 0.960 . S
H3707 C3694 0.962 . S
H3708 C3694 0.960 . S
H3709 C3695 0.961 . S
H3710 C3695 0.961 . S
H3711 C3695 0.961 . S
H3712 C3696 0.931 . S
H3713 C3701 0.930 . S
H3714 C3702 0.956 . S
H3715 C3702 0.961 . S
H3716 C3702 0.961 . S
H3717 C3703 0.958 . S
H3718 C3703 0.961 . S
H3719 C3703 0.960 . S
C3720 C3721 1.391 . S
C3720 C3722 1.394 . S
C3720 H3736 0.931 . S
C3721 C3720 1.391 . S
C3721 C3725 1.376 . S
C3722 C3720 1.394 . S
C3722 C3723 1.369 . S
C3722 C3726 1.531 . S
C3723 C3722 1.369 . S
C3723 C3724 1.410 . S
C3723 C3731 1.503 . S
C3724 C3723 1.410 . S
C3724 C3725 1.392 . S
C3724 C3727 1.511 . S
C3725 C3721 1.376 . S
C3725 C3724 1.392 . S
C3725 H3737 0.929 . S
C3726 C3722 1.531 . S
C3726 H3738 0.960 . S
C3726 H3739 0.962 . S
C3726 H3740 0.960 . S
C3727 C3724 1.511 . S
C3727 H3741 0.961 . S
C3727 H3742 0.961 . S
C3727 H3743 0.961 . S
C3728 C3729 1.370 . S
C3728 C3730 1.363 . S
C3728 H3744 0.931 . S
C3729 C3728 1.370 . S
C3729 C3733 1.408 . S
C3730 C3728 1.363 . S
C3730 C3731 1.370 . S
C3730 C3734 1.524 . S
C3731 C3723 1.503 . S
C3731 C3730 1.370 . S
C3731 C3732 1.403 . S
C3732 C3731 1.403 . S
C3732 C3733 1.404 . S
C3732 C3735 1.539 . S
C3733 C3729 1.408 . S
C3733 C3732 1.404 . S
C3733 H3745 0.930 . S
C3734 C3730 1.524 . S
C3734 H3746 0.956 . S
C3734 H3747 0.961 . S
C3734 H3748 0.961 . S
C3735 C3732 1.539 . S
C3735 H3749 0.958 . S
C3735 H3750 0.961 . S
C3735 H3751 0.960 . S
H3736 C3720 0.931 . S
H3737 C3725 0.929 . S
H3738 C3726 0.960 . S
H3739 C3726 0.962 . S
H3740 C3726 0.960 . S
H3741 C3727 0.961 . S
H3742 C3727 0.961 . S
H3743 C3727 0.961 . S
H3744 C3728 0.931 . S
H3745 C3733 0.930 . S
H3746 C3734 0.956 . S
H3747 C3734 0.961 . S
H3748 C3734 0.961 . S
H3749 C3735 0.958 . S
H3750 C3735 0.961 . S
H3751 C3735 0.960 . S
C3752 C3753 1.391 . S
C3752 C3754 1.394 . S
C3752 H3768 0.931 . S
C3753 C3752 1.391 . S
C3753 C3757 1.376 . S
C3754 C3752 1.394 . S
C3754 C3755 1.369 . S
C3754 C3758 1.531 . S
C3755 C3754 1.369 . S
C3755 C3756 1.410 . S
C3755 C3763 1.503 . S
C3756 C3755 1.410 . S
C3756 C3757 1.392 . S
C3756 C3759 1.511 . S
C3757 C3753 1.376 . S
C3757 C3756 1.392 . S
C3757 H3769 0.929 . S
C3758 C3754 1.531 . S
C3758 H3770 0.960 . S
C3758 H3771 0.962 . S
C3758 H3772 0.960 . S
C3759 C3756 1.511 . S
C3759 H3773 0.961 . S
C3759 H3774 0.961 . S
C3759 H3775 0.961 . S
C3760 C3761 1.370 . S
C3760 C3762 1.363 . S
C3760 H3776 0.931 . S
C3761 C3760 1.370 . S
C3761 C3765 1.408 . S
C3762 C3760 1.363 . S
C3762 C3763 1.370 . S
C3762 C3766 1.524 . S
C3763 C3755 1.503 . S
C3763 C3762 1.370 . S
C3763 C3764 1.403 . S
C3764 C3763 1.403 . S
C3764 C3765 1.404 . S
C3764 C3767 1.539 . S
C3765 C3761 1.408 . S
C3765 C3764 1.404 . S
C3765 H3777 0.930 . S
C3766 C3762 1.524 . S
C3766 H3778 0.956 . S
C3766 H3779 0.961 . S
C3766 H3780 0.961 . S
C3767 C3764 1.539 . S
C3767 H3781 0.958 . S
C3767 H3782 0.961 . S
C3767 H3783 0.960 . S
H3768 C3752 0.931 . S
H3769 C3757 0.929 . S
H3770 C3758 0.960 . S
H3771 C3758 0.962 . S
H3772 C3758 0.960 . S
H3773 C3759 0.961 . S
H3774 C3759 0.961 . S
H3775 C3759 0.961 . S
H3776 C3760 0.931 . S
H3777 C3765 0.930 . S
H3778 C3766 0.956 . S
H3779 C3766 0.961 . S
H3780 C3766 0.961 . S
H3781 C3767 0.958 . S
H3782 C3767 0.961 . S
H3783 C3767 0.960 . S
C3784 C3785 1.391 . S
C3784 C3786 1.394 . S
C3784 H3800 0.931 . S
C3785 C3784 1.391 . S
C3785 C3789 1.376 . S
C3786 C3784 1.394 . S
C3786 C3787 1.369 . S
C3786 C3790 1.531 . S
C3787 C3786 1.369 . S
C3787 C3788 1.410 . S
C3787 C3795 1.503 . S
C3788 C3787 1.410 . S
C3788 C3789 1.392 . S
C3788 C3791 1.511 . S
C3789 C3785 1.376 . S
C3789 C3788 1.392 . S
C3789 H3801 0.929 . S
C3790 C3786 1.531 . S
C3790 H3802 0.960 . S
C3790 H3803 0.962 . S
C3790 H3804 0.960 . S
C3791 C3788 1.511 . S
C3791 H3805 0.961 . S
C3791 H3806 0.961 . S
C3791 H3807 0.961 . S
C3792 C3793 1.370 . S
C3792 C3794 1.363 . S
C3792 H3808 0.931 . S
C3793 C3792 1.370 . S
C3793 C3797 1.408 . S
C3794 C3792 1.363 . S
C3794 C3795 1.370 . S
C3794 C3798 1.524 . S
C3795 C3787 1.503 . S
C3795 C3794 1.370 . S
C3795 C3796 1.403 . S
C3796 C3795 1.403 . S
C3796 C3797 1.404 . S
C3796 C3799 1.539 . S
C3797 C3793 1.408 . S
C3797 C3796 1.404 . S
C3797 H3809 0.930 . S
C3798 C3794 1.524 . S
C3798 H3810 0.956 . S
C3798 H3811 0.961 . S
C3798 H3812 0.961 . S
C3799 C3796 1.539 . S
C3799 H3813 0.958 . S
C3799 H3814 0.961 . S
C3799 H3815 0.960 . S
H3800 C3784 0.931 . S
H3801 C3789 0.929 . S
H3802 C3790 0.960 . S
H3803 C3790 0.962 . S
H3804 C3790 0.960 . S
H3805 C3791 0.961 . S
H3806 C3791 0.961 . S
H3807 C3791 0.961 . S
H3808 C3792 0.931 . S
H3809 C3797 0.930 . S
H3810 C3798 0.956 . S
H3811 C3798 0.961 . S
H3812 C3798 0.961 . S
H3813 C3799 0.958 . S
H3814 C3799 0.961 . S
H3815 C3799 0.960 . S
C3816 C3817 1.391 . S
C3816 C3818 1.394 . S
C3816 H3832 0.931 . S
C3817 C3816 1.391 . S
C3817 C3821 1.376 . S
C3818 C3816 1.394 . S
C3818 C3819 1.369 . S
C3818 C3822 1.531 . S
C3819 C3818 1.369 . S
C3819 C3820 1.410 . S
C3819 C3827 1.503 . S
C3820 C3819 1.410 . S
C3820 C3821 1.392 . S
C3820 C3823 1.511 . S
C3821 C3817 1.376 . S
C3821 C3820 1.392 . S
C3821 H3833 0.929 . S
C3822 C3818 1.531 . S
C3822 H3834 0.960 . S
C3822 H3835 0.962 . S
C3822 H3836 0.960 . S
C3823 C3820 1.511 . S
C3823 H3837 0.961 . S
C3823 H3838 0.961 . S
C3823 H3839 0.961 . S
C3824 C3825 1.370 . S
C3824 C3826 1.363 . S
C3824 H3840 0.931 . S
C3825 C3824 1.370 . S
C3825 C3829 1.408 . S
C3826 C3824 1.363 . S
C3826 C3827 1.370 . S
C3826 C3830 1.524 . S
C3827 C3819 1.503 . S
C3827 C3826 1.370 . S
C3827 C3828 1.403 . S
C3828 C3827 1.403 . S
C3828 C3829 1.404 . S
C3828 C3831 1.539 . S
C3829 C3825 1.408 . S
C3829 C3828 1.404 . S
C3829 H3841 0.930 . S
C3830 C3826 1.524 . S
C3830 H3842 0.956 . S
C3830 H3843 0.961 . S
C3830 H3844 0.961 . S
C3831 C3828 1.539 . S
C3831 H3845 0.958 . S
C3831 H3846 0.961 . S
C3831 H3847 0.960 . S
H3832 C3816 0.931 . S
H3833 C3821 0.929 . S
H3834 C3822 0.960 . S
H3835 C3822 0.962 . S
H3836 C3822 0.960 . S
H3837 C3823 0.961 . S
H3838 C3823 0.961 . S
H3839 C3823 0.961 . S
H3840 C3824 0.931 . S
H3841 C3829 0.930 . S
H3842 C3830 0.956 . S
H3843 C3830 0.961 . S
H3844 C3830 0.961 . S
H3845 C3831 0.958 . S
H3846 C3831 0.961 . S
H3847 C3831 0.960 . S
C3848 C3849 1.391 . S
C3848 C3850 1.394 . S
C3848 H3864 0.931 . S
C3849 C3848 1.391 . S
C3849 C3853 1.376 . S
C3850 C3848 1.394 . S
C3850 C3851 1.369 . S
C3850 C3854 1.531 . S
C3851 C3850 1.369 . S
C3851 C3852 1.410 . S
C3851 C3859 1.503 . S
C3852 C3851 1.410 . S
C3852 C3853 1.392 . S
C3852 C3855 1.511 . S
C3853 C3849 1.376 . S
C3853 C3852 1.392 . S
C3853 H3865 0.929 . S
C3854 C3850 1.531 . S
C3854 H3866 0.960 . S
C3854 H3867 0.962 . S
C3854 H3868 0.960 . S
C3855 C3852 1.511 . S
C3855 H3869 0.961 . S
C3855 H3870 0.961 . S
C3855 H3871 0.961 . S
C3856 C3857 1.370 . S
C3856 C3858 1.363 . S
C3856 H3872 0.931 . S
C3857 C3856 1.370 . S
C3857 C3861 1.408 . S
C3858 C3856 1.363 . S
C3858 C3859 1.370 . S
C3858 C3862 1.524 . S
C3859 C3851 1.503 . S
C3859 C3858 1.370 . S
C3859 C3860 1.403 . S
C3860 C3859 1.403 . S
C3860 C3861 1.404 . S
C3860 C3863 1.539 . S
C3861 C3857 1.408 . S
C3861 C3860 1.404 . S
C3861 H3873 0.930 . S
C3862 C3858 1.524 . S
C3862 H3874 0.956 . S
C3862 H3875 0.961 . S
C3862 H3876 0.961 . S
C3863 C3860 1.539 . S
C3863 H3877 0.958 . S
C3863 H3878 0.961 . S
C3863 H3879 0.960 . S
H3864 C3848 0.931 . S
H3865 C3853 0.929 . S
H3866 C3854 0.960 . S
H3867 C3854 0.962 . S
H3868 C3854 0.960 . S
H3869 C3855 0.961 . S
H3870 C3855 0.961 . S
H3871 C3855 0.961 . S
H3872 C3856 0.931 . S
H3873 C3861 0.930 . S
H3874 C3862 0.956 . S
H3875 C3862 0.961 . S
H3876 C3862 0.961 . S
H3877 C3863 0.958 . S
H3878 C3863 0.961 . S
H3879 C3863 0.960 . S
C3880 C3881 1.391 . S
C3880 C3882 1.394 . S
C3880 H3896 0.931 . S
C3881 C3880 1.391 . S
C3881 C3885 1.376 . S
C3882 C3880 1.394 . S
C3882 C3883 1.369 . S
C3882 C3886 1.531 . S
C3883 C3882 1.369 . S
C3883 C3884 1.410 . S
C3883 C3891 1.503 . S
C3884 C3883 1.410 . S
C3884 C3885 1.392 . S
C3884 C3887 1.511 . S
C3885 C3881 1.376 . S
C3885 C3884 1.392 . S
C3885 H3897 0.929 . S
C3886 C3882 1.531 . S
C3886 H3898 0.960 . S
C3886 H3899 0.962 . S
C3886 H3900 0.960 . S
C3887 C3884 1.511 . S
C3887 H3901 0.961 . S
C3887 H3902 0.961 . S
C3887 H3903 0.961 . S
C3888 C3889 1.370 . S
C3888 C3890 1.363 . S
C3888 H3904 0.931 . S
C3889 C3888 1.370 . S
C3889 C3893 1.408 . S
C3890 C3888 1.363 . S
C3890 C3891 1.370 . S
C3890 C3894 1.524 . S
C3891 C3883 1.503 . S
C3891 C3890 1.370 . S
C3891 C3892 1.403 . S
C3892 C3891 1.403 . S
C3892 C3893 1.404 . S
C3892 C3895 1.539 . S
C3893 C3889 1.408 . S
C3893 C3892 1.404 . S
C3893 H3905 0.930 . S
C3894 C3890 1.524 . S
C3894 H3906 0.956 . S
C3894 H3907 0.961 . S
C3894 H3908 0.961 . S
C3895 C3892 1.539 . S
C3895 H3909 0.958 . S
C3895 H3910 0.961 . S
C3895 H3911 0.960 . S
H3896 C3880 0.931 . S
H3897 C3885 0.929 . S
H3898 C3886 0.960 . S
H3899 C3886 0.962 . S
H3900 C3886 0.960 . S
H3901 C3887 0.961 . S
H3902 C3887 0.961 . S
H3903 C3887 0.961 . S
H3904 C3888 0.931 . S
H3905 C3893 0.930 . S
H3906 C3894 0.956 . S
H3907 C3894 0.961 . S
H3908 C3894 0.961 . S
H3909 C3895 0.958 . S
H3910 C3895 0.961 . S
H3911 C3895 0.960 . S
C3912 C3913 1.391 . S
C3912 C3914 1.394 . S
C3912 H3928 0.931 . S
C3913 C3912 1.391 . S
C3913 C3917 1.376 . S
C3914 C3912 1.394 . S
C3914 C3915 1.369 . S
C3914 C3918 1.531 . S
C3915 C3914 1.369 . S
C3915 C3916 1.410 . S
C3915 C3923 1.503 . S
C3916 C3915 1.410 . S
C3916 C3917 1.392 . S
C3916 C3919 1.511 . S
C3917 C3913 1.376 . S
C3917 C3916 1.392 . S
C3917 H3929 0.929 . S
C3918 C3914 1.531 . S
C3918 H3930 0.960 . S
C3918 H3931 0.962 . S
C3918 H3932 0.960 . S
C3919 C3916 1.511 . S
C3919 H3933 0.961 . S
C3919 H3934 0.961 . S
C3919 H3935 0.961 . S
C3920 C3921 1.370 . S
C3920 C3922 1.363 . S
C3920 H3936 0.931 . S
C3921 C3920 1.370 . S
C3921 C3925 1.408 . S
C3922 C3920 1.363 . S
C3922 C3923 1.370 . S
C3922 C3926 1.524 . S
C3923 C3915 1.503 . S
C3923 C3922 1.370 . S
C3923 C3924 1.403 . S
C3924 C3923 1.403 . S
C3924 C3925 1.404 . S
C3924 C3927 1.539 . S
C3925 C3921 1.408 . S
C3925 C3924 1.404 . S
C3925 H3937 0.930 . S
C3926 C3922 1.524 . S
C3926 H3938 0.956 . S
C3926 H3939 0.961 . S
C3926 H3940 0.961 . S
C3927 C3924 1.539 . S
C3927 H3941 0.958 . S
C3927 H3942 0.961 . S
C3927 H3943 0.960 . S
H3928 C3912 0.931 . S
H3929 C3917 0.929 . S
H3930 C3918 0.960 . S
H3931 C3918 0.962 . S
H3932 C3918 0.960 . S
H3933 C3919 0.961 . S
H3934 C3919 0.961 . S
H3935 C3919 0.961 . S
H3936 C3920 0.931 . S
H3937 C3925 0.930 . S
H3938 C3926 0.956 . S
H3939 C3926 0.961 . S
H3940 C3926 0.961 . S
H3941 C3927 0.958 . S
H3942 C3927 0.961 . S
H3943 C3927 0.960 . S
C3944 C3945 1.391 . S
C3944 C3946 1.394 . S
C3944 H3960 0.931 . S
C3945 C3944 1.391 . S
C3945 C3949 1.376 . S
C3946 C3944 1.394 . S
C3946 C3947 1.369 . S
C3946 C3950 1.531 . S
C3947 C3946 1.369 . S
C3947 C3948 1.410 . S
C3947 C3955 1.503 . S
C3948 C3947 1.410 . S
C3948 C3949 1.392 . S
C3948 C3951 1.511 . S
C3949 C3945 1.376 . S
C3949 C3948 1.392 . S
C3949 H3961 0.929 . S
C3950 C3946 1.531 . S
C3950 H3962 0.960 . S
C3950 H3963 0.962 . S
C3950 H3964 0.960 . S
C3951 C3948 1.511 . S
C3951 H3965 0.961 . S
C3951 H3966 0.961 . S
C3951 H3967 0.961 . S
C3952 C3953 1.370 . S
C3952 C3954 1.363 . S
C3952 H3968 0.931 . S
C3953 C3952 1.370 . S
C3953 C3957 1.408 . S
C3954 C3952 1.363 . S
C3954 C3955 1.370 . S
C3954 C3958 1.524 . S
C3955 C3947 1.503 . S
C3955 C3954 1.370 . S
C3955 C3956 1.403 . S
C3956 C3955 1.403 . S
C3956 C3957 1.404 . S
C3956 C3959 1.539 . S
C3957 C3953 1.408 . S
C3957 C3956 1.404 . S
C3957 H3969 0.930 . S
C3958 C3954 1.524 . S
C3958 H3970 0.956 . S
C3958 H3971 0.961 . S
C3958 H3972 0.961 . S
C3959 C3956 1.539 . S
C3959 H3973 0.958 . S
C3959 H3974 0.961 . S
C3959 H3975 0.960 . S
H3960 C3944 0.931 . S
H3961 C3949 0.929 . S
H3962 C3950 0.960 . S
H3963 C3950 0.962 . S
H3964 C3950 0.960 . S
H3965 C3951 0.961 . S
H3966 C3951 0.961 . S
H3967 C3951 0.961 . S
H3968 C3952 0.931 . S
H3969 C3957 0.930 . S
H3970 C3958 0.956 . S
H3971 C3958 0.961 . S
H3972 C3958 0.961 . S
H3973 C3959 0.958 . S
H3974 C3959 0.961 . S
H3975 C3959 0.960 . S
C3976 C3977 1.391 . S
C3976 C3978 1.394 . S
C3976 H3992 0.931 . S
C3977 C3976 1.391 . S
C3977 C3981 1.376 . S
C3978 C3976 1.394 . S
C3978 C3979 1.369 . S
C3978 C3982 1.531 . S
C3979 C3978 1.369 . S
C3979 C3980 1.410 . S
C3979 C3987 1.503 . S
C3980 C3979 1.410 . S
C3980 C3981 1.392 . S
C3980 C3983 1.511 . S
C3981 C3977 1.376 . S
C3981 C3980 1.392 . S
C3981 H3993 0.929 . S
C3982 C3978 1.531 . S
C3982 H3994 0.960 . S
C3982 H3995 0.962 . S
C3982 H3996 0.960 . S
C3983 C3980 1.511 . S
C3983 H3997 0.961 . S
C3983 H3998 0.961 . S
C3983 H3999 0.961 . S
C3984 C3985 1.370 . S
C3984 C3986 1.363 . S
C3984 H4000 0.931 . S
C3985 C3984 1.370 . S
C3985 C3989 1.408 . S
C3986 C3984 1.363 . S
C3986 C3987 1.370 . S
C3986 C3990 1.524 . S
C3987 C3979 1.503 . S
C3987 C3986 1.370 . S
C3987 C3988 1.403 . S
C3988 C3987 1.403 . S
C3988 C3989 1.404 . S
C3988 C3991 1.539 . S
C3989 C3985 1.408 . S
C3989 C3988 1.404 . S
C3989 H4001 0.930 . S
C3990 C3986 1.524 . S
C3990 H4002 0.956 . S
C3990 H4003 0.961 . S
C3990 H4004 0.961 . S
C3991 C3988 1.539 . S
C3991 H4005 0.958 . S
C3991 H4006 0.961 . S
C3991 H4007 0.960 . S
H3992 C3976 0.931 . S
H3993 C3981 0.929 . S
H3994 C3982 0.960 . S
H3995 C3982 0.962 . S
H3996 C3982 0.960 . S
H3997 C3983 0.961 . S
H3998 C3983 0.961 . S
H3999 C3983 0.961 . S
H4000 C3984 0.931 . S
H4001 C3989 0.930 . S
H4002 C3990 0.956 . S
H4003 C3990 0.961 . S
H4004 C3990 0.961 . S
H4005 C3991 0.958 . S
H4006 C3991 0.961 . S
H4007 C3991 0.960 . S
C4008 C4009 1.391 . S
C4008 C4010 1.394 . S
C4008 H4024 0.931 . S
C4009 C4008 1.391 . S
C4009 C4013 1.376 . S
C4010 C4008 1.394 . S
C4010 C4011 1.369 . S
C4010 C4014 1.531 . S
C4011 C4010 1.369 . S
C4011 C4012 1.410 . S
C4011 C4019 1.503 . S
C4012 C4011 1.410 . S
C4012 C4013 1.392 . S
C4012 C4015 1.511 . S
C4013 C4009 1.376 . S
C4013 C4012 1.392 . S
C4013 H4025 0.929 . S
C4014 C4010 1.531 . S
C4014 H4026 0.960 . S
C4014 H4027 0.962 . S
C4014 H4028 0.960 . S
C4015 C4012 1.511 . S
C4015 H4029 0.961 . S
C4015 H4030 0.961 . S
C4015 H4031 0.961 . S
C4016 C4017 1.370 . S
C4016 C4018 1.363 . S
C4016 H4032 0.931 . S
C4017 C4016 1.370 . S
C4017 C4021 1.408 . S
C4018 C4016 1.363 . S
C4018 C4019 1.370 . S
C4018 C4022 1.524 . S
C4019 C4011 1.503 . S
C4019 C4018 1.370 . S
C4019 C4020 1.403 . S
C4020 C4019 1.403 . S
C4020 C4021 1.404 . S
C4020 C4023 1.539 . S
C4021 C4017 1.408 . S
C4021 C4020 1.404 . S
C4021 H4033 0.930 . S
C4022 C4018 1.524 . S
C4022 H4034 0.956 . S
C4022 H4035 0.961 . S
C4022 H4036 0.961 . S
C4023 C4020 1.539 . S
C4023 H4037 0.958 . S
C4023 H4038 0.961 . S
C4023 H4039 0.960 . S
H4024 C4008 0.931 . S
H4025 C4013 0.929 . S
H4026 C4014 0.960 . S
H4027 C4014 0.962 . S
H4028 C4014 0.960 . S
H4029 C4015 0.961 . S
H4030 C4015 0.961 . S
H4031 C4015 0.961 . S
H4032 C4016 0.931 . S
H4033 C4021 0.930 . S
H4034 C4022 0.956 . S
H4035 C4022 0.961 . S
H4036 C4022 0.961 . S
H4037 C4023 0.958 . S
H4038 C4023 0.961 . S
H4039 C4023 0.960 . S
C4040 C4041 1.391 . S
C4040 C4042 1.394 . S
C4040 H4056 0.931 . S
C4041 C4040 1.391 . S
C4041 C4045 1.376 . S
C4042 C4040 1.394 . S
C4042 C4043 1.369 . S
C4042 C4046 1.531 . S
C4043 C4042 1.369 . S
C4043 C4044 1.410 . S
C4043 C4051 1.503 . S
C4044 C4043 1.410 . S
C4044 C4045 1.392 . S
C4044 C4047 1.511 . S
C4045 C4041 1.376 . S
C4045 C4044 1.392 . S
C4045 H4057 0.929 . S
C4046 C4042 1.531 . S
C4046 H4058 0.960 . S
C4046 H4059 0.962 . S
C4046 H4060 0.960 . S
C4047 C4044 1.511 . S
C4047 H4061 0.961 . S
C4047 H4062 0.961 . S
C4047 H4063 0.961 . S
C4048 C4049 1.370 . S
C4048 C4050 1.363 . S
C4048 H4064 0.931 . S
C4049 C4048 1.370 . S
C4049 C4053 1.408 . S
C4050 C4048 1.363 . S
C4050 C4051 1.370 . S
C4050 C4054 1.524 . S
C4051 C4043 1.503 . S
C4051 C4050 1.370 . S
C4051 C4052 1.403 . S
C4052 C4051 1.403 . S
C4052 C4053 1.404 . S
C4052 C4055 1.539 . S
C4053 C4049 1.408 . S
C4053 C4052 1.404 . S
C4053 H4065 0.930 . S
C4054 C4050 1.524 . S
C4054 H4066 0.956 . S
C4054 H4067 0.961 . S
C4054 H4068 0.961 . S
C4055 C4052 1.539 . S
C4055 H4069 0.958 . S
C4055 H4070 0.961 . S
C4055 H4071 0.960 . S
H4056 C4040 0.931 . S
H4057 C4045 0.929 . S
H4058 C4046 0.960 . S
H4059 C4046 0.962 . S
H4060 C4046 0.960 . S
H4061 C4047 0.961 . S
H4062 C4047 0.961 . S
H4063 C4047 0.961 . S
H4064 C4048 0.931 . S
H4065 C4053 0.930 . S
H4066 C4054 0.956 . S
H4067 C4054 0.961 . S
H4068 C4054 0.961 . S
H4069 C4055 0.958 . S
H4070 C4055 0.961 . S
H4071 C4055 0.960 . S
C4072 C4073 1.391 . S
C4072 C4074 1.394 . S
C4072 H4088 0.931 . S
C4073 C4072 1.391 . S
C4073 C4077 1.376 . S
C4074 C4072 1.394 . S
C4074 C4075 1.369 . S
C4074 C4078 1.531 . S
C4075 C4074 1.369 . S
C4075 C4076 1.410 . S
C4075 C4083 1.503 . S
C4076 C4075 1.410 . S
C4076 C4077 1.392 . S
C4076 C4079 1.511 . S
C4077 C4073 1.376 . S
C4077 C4076 1.392 . S
C4077 H4089 0.929 . S
C4078 C4074 1.531 . S
C4078 H4090 0.960 . S
C4078 H4091 0.962 . S
C4078 H4092 0.960 . S
C4079 C4076 1.511 . S
C4079 H4093 0.961 . S
C4079 H4094 0.961 . S
C4079 H4095 0.961 . S
C4080 C4081 1.370 . S
C4080 C4082 1.363 . S
C4080 H4096 0.931 . S
C4081 C4080 1.370 . S
C4081 C4085 1.408 . S
C4082 C4080 1.363 . S
C4082 C4083 1.370 . S
C4082 C4086 1.524 . S
C4083 C4075 1.503 . S
C4083 C4082 1.370 . S
C4083 C4084 1.403 . S
C4084 C4083 1.403 . S
C4084 C4085 1.404 . S
C4084 C4087 1.539 . S
C4085 C4081 1.408 . S
C4085 C4084 1.404 . S
C4085 H4097 0.930 . S
C4086 C4082 1.524 . S
C4086 H4098 0.956 . S
C4086 H4099 0.961 . S
C4086 H4100 0.961 . S
C4087 C4084 1.539 . S
C4087 H4101 0.958 . S
C4087 H4102 0.961 . S
C4087 H4103 0.960 . S
H4088 C4072 0.931 . S
H4089 C4077 0.929 . S
H4090 C4078 0.960 . S
H4091 C4078 0.962 . S
H4092 C4078 0.960 . S
H4093 C4079 0.961 . S
H4094 C4079 0.961 . S
H4095 C4079 0.961 . S
H4096 C4080 0.931 . S
H4097 C4085 0.930 . S
H4098 C4086 0.956 . S
H4099 C4086 0.961 . S
H4100 C4086 0.961 . S
H4101 C4087 0.958 . S
H4102 C4087 0.961 . S
H4103 C4087 0.960 . S
C4104 C4105 1.391 . S
C4104 C4106 1.394 . S
C4104 H4120 0.931 . S
C4105 C4104 1.391 . S
C4105 C4109 1.376 . S
C4106 C4104 1.394 . S
C4106 C4107 1.369 . S
C4106 C4110 1.531 . S
C4107 C4106 1.369 . S
C4107 C4108 1.410 . S
C4107 C4115 1.503 . S
C4108 C4107 1.410 . S
C4108 C4109 1.392 . S
C4108 C4111 1.511 . S
C4109 C4105 1.376 . S
C4109 C4108 1.392 . S
C4109 H4121 0.929 . S
C4110 C4106 1.531 . S
C4110 H4122 0.960 . S
C4110 H4123 0.962 . S
C4110 H4124 0.960 . S
C4111 C4108 1.511 . S
C4111 H4125 0.961 . S
C4111 H4126 0.961 . S
C4111 H4127 0.961 . S
C4112 C4113 1.370 . S
C4112 C4114 1.363 . S
C4112 H4128 0.931 . S
C4113 C4112 1.370 . S
C4113 C4117 1.408 . S
C4114 C4112 1.363 . S
C4114 C4115 1.370 . S
C4114 C4118 1.524 . S
C4115 C4107 1.503 . S
C4115 C4114 1.370 . S
C4115 C4116 1.403 . S
C4116 C4115 1.403 . S
C4116 C4117 1.404 . S
C4116 C4119 1.539 . S
C4117 C4113 1.408 . S
C4117 C4116 1.404 . S
C4117 H4129 0.930 . S
C4118 C4114 1.524 . S
C4118 H4130 0.956 . S
C4118 H4131 0.961 . S
C4118 H4132 0.961 . S
C4119 C4116 1.539 . S
C4119 H4133 0.958 . S
C4119 H4134 0.961 . S
C4119 H4135 0.960 . S
H4120 C4104 0.931 . S
H4121 C4109 0.929 . S
H4122 C4110 0.960 . S
H4123 C4110 0.962 . S
H4124 C4110 0.960 . S
H4125 C4111 0.961 . S
H4126 C4111 0.961 . S
H4127 C4111 0.961 . S
H4128 C4112 0.931 . S
H4129 C4117 0.930 . S
H4130 C4118 0.956 . S
H4131 C4118 0.961 . S
H4132 C4118 0.961 . S
H4133 C4119 0.958 . S
H4134 C4119 0.961 . S
H4135 C4119 0.960 . S
C4136 C4137 1.391 . S
C4136 C4138 1.394 . S
C4136 H4152 0.931 . S
C4137 C4136 1.391 . S
C4137 C4141 1.376 . S
C4138 C4136 1.394 . S
C4138 C4139 1.369 . S
C4138 C4142 1.531 . S
C4139 C4138 1.369 . S
C4139 C4140 1.410 . S
C4139 C4147 1.503 . S
C4140 C4139 1.410 . S
C4140 C4141 1.392 . S
C4140 C4143 1.511 . S
C4141 C4137 1.376 . S
C4141 C4140 1.392 . S
C4141 H4153 0.929 . S
C4142 C4138 1.531 . S
C4142 H4154 0.960 . S
C4142 H4155 0.962 . S
C4142 H4156 0.960 . S
C4143 C4140 1.511 . S
C4143 H4157 0.961 . S
C4143 H4158 0.961 . S
C4143 H4159 0.961 . S
C4144 C4145 1.370 . S
C4144 C4146 1.363 . S
C4144 H4160 0.931 . S
C4145 C4144 1.370 . S
C4145 C4149 1.408 . S
C4146 C4144 1.363 . S
C4146 C4147 1.370 . S
C4146 C4150 1.524 . S
C4147 C4139 1.503 . S
C4147 C4146 1.370 . S
C4147 C4148 1.403 . S
C4148 C4147 1.403 . S
C4148 C4149 1.404 . S
C4148 C4151 1.539 . S
C4149 C4145 1.408 . S
C4149 C4148 1.404 . S
C4149 H4161 0.930 . S
C4150 C4146 1.524 . S
C4150 H4162 0.956 . S
C4150 H4163 0.961 . S
C4150 H4164 0.961 . S
C4151 C4148 1.539 . S
C4151 H4165 0.958 . S
C4151 H4166 0.961 . S
C4151 H4167 0.960 . S
H4152 C4136 0.931 . S
H4153 C4141 0.929 . S
H4154 C4142 0.960 . S
H4155 C4142 0.962 . S
H4156 C4142 0.960 . S
H4157 C4143 0.961 . S
H4158 C4143 0.961 . S
H4159 C4143 0.961 . S
H4160 C4144 0.931 . S
H4161 C4149 0.930 . S
H4162 C4150 0.956 . S
H4163 C4150 0.961 . S
H4164 C4150 0.961 . S
H4165 C4151 0.958 . S
H4166 C4151 0.961 . S
H4167 C4151 0.960 . S
C4168 C4169 1.391 . S
C4168 C4170 1.394 . S
C4168 H4184 0.931 . S
C4169 C4168 1.391 . S
C4169 C4173 1.376 . S
C4170 C4168 1.394 . S
C4170 C4171 1.369 . S
C4170 C4174 1.531 . S
C4171 C4170 1.369 . S
C4171 C4172 1.410 . S
C4171 C4179 1.503 . S
C4172 C4171 1.410 . S
C4172 C4173 1.392 . S
C4172 C4175 1.511 . S
C4173 C4169 1.376 . S
C4173 C4172 1.392 . S
C4173 H4185 0.929 . S
C4174 C4170 1.531 . S
C4174 H4186 0.960 . S
C4174 H4187 0.962 . S
C4174 H4188 0.960 . S
C4175 C4172 1.511 . S
C4175 H4189 0.961 . S
C4175 H4190 0.961 . S
C4175 H4191 0.961 . S
C4176 C4177 1.370 . S
C4176 C4178 1.363 . S
C4176 H4192 0.931 . S
C4177 C4176 1.370 . S
C4177 C4181 1.408 . S
C4178 C4176 1.363 . S
C4178 C4179 1.370 . S
C4178 C4182 1.524 . S
C4179 C4171 1.503 . S
C4179 C4178 1.370 . S
C4179 C4180 1.403 . S
C4180 C4179 1.403 . S
C4180 C4181 1.404 . S
C4180 C4183 1.539 . S
C4181 C4177 1.408 . S
C4181 C4180 1.404 . S
C4181 H4193 0.930 . S
C4182 C4178 1.524 . S
C4182 H4194 0.956 . S
C4182 H4195 0.961 . S
C4182 H4196 0.961 . S
C4183 C4180 1.539 . S
C4183 H4197 0.958 . S
C4183 H4198 0.961 . S
C4183 H4199 0.960 . S
H4184 C4168 0.931 . S
H4185 C4173 0.929 . S
H4186 C4174 0.960 . S
H4187 C4174 0.962 . S
H4188 C4174 0.960 . S
H4189 C4175 0.961 . S
H4190 C4175 0.961 . S
H4191 C4175 0.961 . S
H4192 C4176 0.931 . S
H4193 C4181 0.930 . S
H4194 C4182 0.956 . S
H4195 C4182 0.961 . S
H4196 C4182 0.961 . S
H4197 C4183 0.958 . S
H4198 C4183 0.961 . S
H4199 C4183 0.960 . S
C4200 C4201 1.391 . S
C4200 C4202 1.394 . S
C4200 H4216 0.931 . S
C4201 C4200 1.391 . S
C4201 C4205 1.376 . S
C4202 C4200 1.394 . S
C4202 C4203 1.369 . S
C4202 C4206 1.531 . S
C4203 C4202 1.369 . S
C4203 C4204 1.410 . S
C4203 C4211 1.503 . S
C4204 C4203 1.410 . S
C4204 C4205 1.392 . S
C4204 C4207 1.511 . S
C4205 C4201 1.376 . S
C4205 C4204 1.392 . S
C4205 H4217 0.929 . S
C4206 C4202 1.531 . S
C4206 H4218 0.960 . S
C4206 H4219 0.962 . S
C4206 H4220 0.960 . S
C4207 C4204 1.511 . S
C4207 H4221 0.961 . S
C4207 H4222 0.961 . S
C4207 H4223 0.961 . S
C4208 C4209 1.370 . S
C4208 C4210 1.363 . S
C4208 H4224 0.931 . S
C4209 C4208 1.370 . S
C4209 C4213 1.408 . S
C4210 C4208 1.363 . S
C4210 C4211 1.370 . S
C4210 C4214 1.524 . S
C4211 C4203 1.503 . S
C4211 C4210 1.370 . S
C4211 C4212 1.403 . S
C4212 C4211 1.403 . S
C4212 C4213 1.404 . S
C4212 C4215 1.539 . S
C4213 C4209 1.408 . S
C4213 C4212 1.404 . S
C4213 H4225 0.930 . S
C4214 C4210 1.524 . S
C4214 H4226 0.956 . S
C4214 H4227 0.961 . S
C4214 H4228 0.961 . S
C4215 C4212 1.539 . S
C4215 H4229 0.958 . S
C4215 H4230 0.961 . S
C4215 H4231 0.960 . S
H4216 C4200 0.931 . S
H4217 C4205 0.929 . S
H4218 C4206 0.960 . S
H4219 C4206 0.962 . S
H4220 C4206 0.960 . S
H4221 C4207 0.961 . S
H4222 C4207 0.961 . S
H4223 C4207 0.961 . S
H4224 C4208 0.931 . S
H4225 C4213 0.930 . S
H4226 C4214 0.956 . S
H4227 C4214 0.961 . S
H4228 C4214 0.961 . S
H4229 C4215 0.958 . S
H4230 C4215 0.961 . S
H4231 C4215 0.960 . S
C4232 C4233 1.391 . S
C4232 C4234 1.394 . S
C4232 H4248 0.931 . S
C4233 C4232 1.391 . S
C4233 C4237 1.376 . S
C4234 C4232 1.394 . S
C4234 C4235 1.369 . S
C4234 C4238 1.531 . S
C4235 C4234 1.369 . S
C4235 C4236 1.410 . S
C4235 C4243 1.503 . S
C4236 C4235 1.410 . S
C4236 C4237 1.392 . S
C4236 C4239 1.511 . S
C4237 C4233 1.376 . S
C4237 C4236 1.392 . S
C4237 H4249 0.929 . S
C4238 C4234 1.531 . S
C4238 H4250 0.960 . S
C4238 H4251 0.962 . S
C4238 H4252 0.960 . S
C4239 C4236 1.511 . S
C4239 H4253 0.961 . S
C4239 H4254 0.961 . S
C4239 H4255 0.961 . S
C4240 C4241 1.370 . S
C4240 C4242 1.363 . S
C4240 H4256 0.931 . S
C4241 C4240 1.370 . S
C4241 C4245 1.408 . S
C4242 C4240 1.363 . S
C4242 C4243 1.370 . S
C4242 C4246 1.524 . S
C4243 C4235 1.503 . S
C4243 C4242 1.370 . S
C4243 C4244 1.403 . S
C4244 C4243 1.403 . S
C4244 C4245 1.404 . S
C4244 C4247 1.539 . S
C4245 C4241 1.408 . S
C4245 C4244 1.404 . S
C4245 H4257 0.930 . S
C4246 C4242 1.524 . S
C4246 H4258 0.956 . S
C4246 H4259 0.961 . S
C4246 H4260 0.961 . S
C4247 C4244 1.539 . S
C4247 H4261 0.958 . S
C4247 H4262 0.961 . S
C4247 H4263 0.960 . S
H4248 C4232 0.931 . S
H4249 C4237 0.929 . S
H4250 C4238 0.960 . S
H4251 C4238 0.962 . S
H4252 C4238 0.960 . S
H4253 C4239 0.961 . S
H4254 C4239 0.961 . S
H4255 C4239 0.961 . S
H4256 C4240 0.931 . S
H4257 C4245 0.930 . S
H4258 C4246 0.956 . S
H4259 C4246 0.961 . S
H4260 C4246 0.961 . S
H4261 C4247 0.958 . S
H4262 C4247 0.961 . S
H4263 C4247 0.960 . S
C4264 C4265 1.391 . S
C4264 C4266 1.394 . S
C4264 H4280 0.931 . S
C4265 C4264 1.391 . S
C4265 C4269 1.376 . S
C4266 C4264 1.394 . S
C4266 C4267 1.369 . S
C4266 C4270 1.531 . S
C4267 C4266 1.369 . S
C4267 C4268 1.410 . S
C4267 C4275 1.503 . S
C4268 C4267 1.410 . S
C4268 C4269 1.392 . S
C4268 C4271 1.511 . S
C4269 C4265 1.376 . S
C4269 C4268 1.392 . S
C4269 H4281 0.929 . S
C4270 C4266 1.531 . S
C4270 H4282 0.960 . S
C4270 H4283 0.962 . S
C4270 H4284 0.960 . S
C4271 C4268 1.511 . S
C4271 H4285 0.961 . S
C4271 H4286 0.961 . S
C4271 H4287 0.961 . S
C4272 C4273 1.370 . S
C4272 C4274 1.363 . S
C4272 H4288 0.931 . S
C4273 C4272 1.370 . S
C4273 C4277 1.408 . S
C4274 C4272 1.363 . S
C4274 C4275 1.370 . S
C4274 C4278 1.524 . S
C4275 C4267 1.503 . S
C4275 C4274 1.370 . S
C4275 C4276 1.403 . S
C4276 C4275 1.403 . S
C4276 C4277 1.404 . S
C4276 C4279 1.539 . S
C4277 C4273 1.408 . S
C4277 C4276 1.404 . S
C4277 H4289 0.930 . S
C4278 C4274 1.524 . S
C4278 H4290 0.956 . S
C4278 H4291 0.961 . S
C4278 H4292 0.961 . S
C4279 C4276 1.539 . S
C4279 H4293 0.958 . S
C4279 H4294 0.961 . S
C4279 H4295 0.960 . S
H4280 C4264 0.931 . S
H4281 C4269 0.929 . S
H4282 C4270 0.960 . S
H4283 C4270 0.962 . S
H4284 C4270 0.960 . S
H4285 C4271 0.961 . S
H4286 C4271 0.961 . S
H4287 C4271 0.961 . S
H4288 C4272 0.931 . S
H4289 C4277 0.930 . S
H4290 C4278 0.956 . S
H4291 C4278 0.961 . S
H4292 C4278 0.961 . S
H4293 C4279 0.958 . S
H4294 C4279 0.961 . S
H4295 C4279 0.960 . S
C4296 C4297 1.391 . S
C4296 C4298 1.394 . S
C4296 H4312 0.931 . S
C4297 C4296 1.391 . S
C4297 C4301 1.376 . S
C4298 C4296 1.394 . S
C4298 C4299 1.369 . S
C4298 C4302 1.531 . S
C4299 C4298 1.369 . S
C4299 C4300 1.410 . S
C4299 C4307 1.503 . S
C4300 C4299 1.410 . S
C4300 C4301 1.392 . S
C4300 C4303 1.511 . S
C4301 C4297 1.376 . S
C4301 C4300 1.392 . S
C4301 H4313 0.929 . S
C4302 C4298 1.531 . S
C4302 H4314 0.960 . S
C4302 H4315 0.962 . S
C4302 H4316 0.960 . S
C4303 C4300 1.511 . S
C4303 H4317 0.961 . S
C4303 H4318 0.961 . S
C4303 H4319 0.961 . S
C4304 C4305 1.370 . S
C4304 C4306 1.363 . S
C4304 H4320 0.931 . S
C4305 C4304 1.370 . S
C4305 C4309 1.408 . S
C4306 C4304 1.363 . S
C4306 C4307 1.370 . S
C4306 C4310 1.524 . S
C4307 C4299 1.503 . S
C4307 C4306 1.370 . S
C4307 C4308 1.403 . S
C4308 C4307 1.403 . S
C4308 C4309 1.404 . S
C4308 C4311 1.539 . S
C4309 C4305 1.408 . S
C4309 C4308 1.404 . S
C4309 H4321 0.930 . S
C4310 C4306 1.524 . S
C4310 H4322 0.956 . S
C4310 H4323 0.961 . S
C4310 H4324 0.961 . S
C4311 C4308 1.539 . S
C4311 H4325 0.958 . S
C4311 H4326 0.961 . S
C4311 H4327 0.960 . S
H4312 C4296 0.931 . S
H4313 C4301 0.929 . S
H4314 C4302 0.960 . S
H4315 C4302 0.962 . S
H4316 C4302 0.960 . S
H4317 C4303 0.961 . S
H4318 C4303 0.961 . S
H4319 C4303 0.961 . S
H4320 C4304 0.931 . S
H4321 C4309 0.930 . S
H4322 C4310 0.956 . S
H4323 C4310 0.961 . S
H4324 C4310 0.961 . S
H4325 C4311 0.958 . S
H4326 C4311 0.961 . S
H4327 C4311 0.960 . S
C4328 C4329 1.391 . S
C4328 C4330 1.394 . S
C4328 H4344 0.931 . S
C4329 C4328 1.391 . S
C4329 C4333 1.376 . S
C4330 C4328 1.394 . S
C4330 C4331 1.369 . S
C4330 C4334 1.531 . S
C4331 C4330 1.369 . S
C4331 C4332 1.410 . S
C4331 C4339 1.503 . S
C4332 C4331 1.410 . S
C4332 C4333 1.392 . S
C4332 C4335 1.511 . S
C4333 C4329 1.376 . S
C4333 C4332 1.392 . S
C4333 H4345 0.929 . S
C4334 C4330 1.531 . S
C4334 H4346 0.960 . S
C4334 H4347 0.962 . S
C4334 H4348 0.960 . S
C4335 C4332 1.511 . S
C4335 H4349 0.961 . S
C4335 H4350 0.961 . S
C4335 H4351 0.961 . S
C4336 C4337 1.370 . S
C4336 C4338 1.363 . S
C4336 H4352 0.931 . S
C4337 C4336 1.370 . S
C4337 C4341 1.408 . S
C4338 C4336 1.363 . S
C4338 C4339 1.370 . S
C4338 C4342 1.524 . S
C4339 C4331 1.503 . S
C4339 C4338 1.370 . S
C4339 C4340 1.403 . S
C4340 C4339 1.403 . S
C4340 C4341 1.404 . S
C4340 C4343 1.539 . S
C4341 C4337 1.408 . S
C4341 C4340 1.404 . S
C4341 H4353 0.930 . S
C4342 C4338 1.524 . S
C4342 H4354 0.956 . S
C4342 H4355 0.961 . S
C4342 H4356 0.961 . S
C4343 C4340 1.539 . S
C4343 H4357 0.958 . S
C4343 H4358 0.961 . S
C4343 H4359 0.960 . S
H4344 C4328 0.931 . S
H4345 C4333 0.929 . S
H4346 C4334 0.960 . S
H4347 C4334 0.962 . S
H4348 C4334 0.960 . S
H4349 C4335 0.961 . S
H4350 C4335 0.961 . S
H4351 C4335 0.961 . S
H4352 C4336 0.931 . S
H4353 C4341 0.930 . S
H4354 C4342 0.956 . S
H4355 C4342 0.961 . S
H4356 C4342 0.961 . S
H4357 C4343 0.958 . S
H4358 C4343 0.961 . S
H4359 C4343 0.960 . S
C4360 C4361 1.391 . S
C4360 C4362 1.394 . S
C4360 H4376 0.931 . S
C4361 C4360 1.391 . S
C4361 C4365 1.376 . S
C4362 C4360 1.394 . S
C4362 C4363 1.369 . S
C4362 C4366 1.531 . S
C4363 C4362 1.369 . S
C4363 C4364 1.410 . S
C4363 C4371 1.503 . S
C4364 C4363 1.410 . S
C4364 C4365 1.392 . S
C4364 C4367 1.511 . S
C4365 C4361 1.376 . S
C4365 C4364 1.392 . S
C4365 H4377 0.929 . S
C4366 C4362 1.531 . S
C4366 H4378 0.960 . S
C4366 H4379 0.962 . S
C4366 H4380 0.960 . S
C4367 C4364 1.511 . S
C4367 H4381 0.961 . S
C4367 H4382 0.961 . S
C4367 H4383 0.961 . S
C4368 C4369 1.370 . S
C4368 C4370 1.363 . S
C4368 H4384 0.931 . S
C4369 C4368 1.370 . S
C4369 C4373 1.408 . S
C4370 C4368 1.363 . S
C4370 C4371 1.370 . S
C4370 C4374 1.524 . S
C4371 C4363 1.503 . S
C4371 C4370 1.370 . S
C4371 C4372 1.403 . S
C4372 C4371 1.403 . S
C4372 C4373 1.404 . S
C4372 C4375 1.539 . S
C4373 C4369 1.408 . S
C4373 C4372 1.404 . S
C4373 H4385 0.930 . S
C4374 C4370 1.524 . S
C4374 H4386 0.956 . S
C4374 H4387 0.961 . S
C4374 H4388 0.961 . S
C4375 C4372 1.539 . S
C4375 H4389 0.958 . S
C4375 H4390 0.961 . S
C4375 H4391 0.960 . S
H4376 C4360 0.931 . S
H4377 C4365 0.929 . S
H4378 C4366 0.960 . S
H4379 C4366 0.962 . S
H4380 C4366 0.960 . S
H4381 C4367 0.961 . S
H4382 C4367 0.961 . S
H4383 C4367 0.961 . S
H4384 C4368 0.931 . S
H4385 C4373 0.930 . S
H4386 C4374 0.956 . S
H4387 C4374 0.961 . S
H4388 C4374 0.961 . S
H4389 C4375 0.958 . S
H4390 C4375 0.961 . S
H4391 C4375 0.960 . S
C4392 C4393 1.391 . S
C4392 C4394 1.394 . S
C4392 H4408 0.931 . S
C4393 C4392 1.391 . S
C4393 C4397 1.376 . S
C4394 C4392 1.394 . S
C4394 C4395 1.369 . S
C4394 C4398 1.531 . S
C4395 C4394 1.369 . S
C4395 C4396 1.410 . S
C4395 C4403 1.503 . S
C4396 C4395 1.410 . S
C4396 C4397 1.392 . S
C4396 C4399 1.511 . S
C4397 C4393 1.376 . S
C4397 C4396 1.392 . S
C4397 H4409 0.929 . S
C4398 C4394 1.531 . S
C4398 H4410 0.960 . S
C4398 H4411 0.962 . S
C4398 H4412 0.960 . S
C4399 C4396 1.511 . S
C4399 H4413 0.961 . S
C4399 H4414 0.961 . S
C4399 H4415 0.961 . S
C4400 C4401 1.370 . S
C4400 C4402 1.363 . S
C4400 H4416 0.931 . S
C4401 C4400 1.370 . S
C4401 C4405 1.408 . S
C4402 C4400 1.363 . S
C4402 C4403 1.370 . S
C4402 C4406 1.524 . S
C4403 C4395 1.503 . S
C4403 C4402 1.370 . S
C4403 C4404 1.403 . S
C4404 C4403 1.403 . S
C4404 C4405 1.404 . S
C4404 C4407 1.539 . S
C4405 C4401 1.408 . S
C4405 C4404 1.404 . S
C4405 H4417 0.930 . S
C4406 C4402 1.524 . S
C4406 H4418 0.956 . S
C4406 H4419 0.961 . S
C4406 H4420 0.961 . S
C4407 C4404 1.539 . S
C4407 H4421 0.958 . S
C4407 H4422 0.961 . S
C4407 H4423 0.960 . S
H4408 C4392 0.931 . S
H4409 C4397 0.929 . S
H4410 C4398 0.960 . S
H4411 C4398 0.962 . S
H4412 C4398 0.960 . S
H4413 C4399 0.961 . S
H4414 C4399 0.961 . S
H4415 C4399 0.961 . S
H4416 C4400 0.931 . S
H4417 C4405 0.930 . S
H4418 C4406 0.956 . S
H4419 C4406 0.961 . S
H4420 C4406 0.961 . S
H4421 C4407 0.958 . S
H4422 C4407 0.961 . S
H4423 C4407 0.960 . S
C4424 C4425 1.391 . S
C4424 C4426 1.394 . S
C4424 H4440 0.931 . S
C4425 C4424 1.391 . S
C4425 C4429 1.376 . S
C4426 C4424 1.394 . S
C4426 C4427 1.369 . S
C4426 C4430 1.531 . S
C4427 C4426 1.369 . S
C4427 C4428 1.410 . S
C4427 C4435 1.503 . S
C4428 C4427 1.410 . S
C4428 C4429 1.392 . S
C4428 C4431 1.511 . S
C4429 C4425 1.376 . S
C4429 C4428 1.392 . S
C4429 H4441 0.929 . S
C4430 C4426 1.531 . S
C4430 H4442 0.960 . S
C4430 H4443 0.962 . S
C4430 H4444 0.960 . S
C4431 C4428 1.511 . S
C4431 H4445 0.961 . S
C4431 H4446 0.961 . S
C4431 H4447 0.961 . S
C4432 C4433 1.370 . S
C4432 C4434 1.363 . S
C4432 H4448 0.931 . S
C4433 C4432 1.370 . S
C4433 C4437 1.408 . S
C4434 C4432 1.363 . S
C4434 C4435 1.370 . S
C4434 C4438 1.524 . S
C4435 C4427 1.503 . S
C4435 C4434 1.370 . S
C4435 C4436 1.403 . S
C4436 C4435 1.403 . S
C4436 C4437 1.404 . S
C4436 C4439 1.539 . S
C4437 C4433 1.408 . S
C4437 C4436 1.404 . S
C4437 H4449 0.930 . S
C4438 C4434 1.524 . S
C4438 H4450 0.956 . S
C4438 H4451 0.961 . S
C4438 H4452 0.961 . S
C4439 C4436 1.539 . S
C4439 H4453 0.958 . S
C4439 H4454 0.961 . S
C4439 H4455 0.960 . S
H4440 C4424 0.931 . S
H4441 C4429 0.929 . S
H4442 C4430 0.960 . S
H4443 C4430 0.962 . S
H4444 C4430 0.960 . S
H4445 C4431 0.961 . S
H4446 C4431 0.961 . S
H4447 C4431 0.961 . S
H4448 C4432 0.931 . S
H4449 C4437 0.930 . S
H4450 C4438 0.956 . S
H4451 C4438 0.961 . S
H4452 C4438 0.961 . S
H4453 C4439 0.958 . S
H4454 C4439 0.961 . S
H4455 C4439 0.960 . S
C4456 C4457 1.391 . S
C4456 C4458 1.394 . S
C4456 H4472 0.931 . S
C4457 C4456 1.391 . S
C4457 C4461 1.376 . S
C4458 C4456 1.394 . S
C4458 C4459 1.369 . S
C4458 C4462 1.531 . S
C4459 C4458 1.369 . S
C4459 C4460 1.410 . S
C4459 C4467 1.503 . S
C4460 C4459 1.410 . S
C4460 C4461 1.392 . S
C4460 C4463 1.511 . S
C4461 C4457 1.376 . S
C4461 C4460 1.392 . S
C4461 H4473 0.929 . S
C4462 C4458 1.531 . S
C4462 H4474 0.960 . S
C4462 H4475 0.962 . S
C4462 H4476 0.960 . S
C4463 C4460 1.511 . S
C4463 H4477 0.961 . S
C4463 H4478 0.961 . S
C4463 H4479 0.961 . S
C4464 C4465 1.370 . S
C4464 C4466 1.363 . S
C4464 H4480 0.931 . S
C4465 C4464 1.370 . S
C4465 C4469 1.408 . S
C4466 C4464 1.363 . S
C4466 C4467 1.370 . S
C4466 C4470 1.524 . S
C4467 C4459 1.503 . S
C4467 C4466 1.370 . S
C4467 C4468 1.403 . S
C4468 C4467 1.403 . S
C4468 C4469 1.404 . S
C4468 C4471 1.539 . S
C4469 C4465 1.408 . S
C4469 C4468 1.404 . S
C4469 H4481 0.930 . S
C4470 C4466 1.524 . S
C4470 H4482 0.956 . S
C4470 H4483 0.961 . S
C4470 H4484 0.961 . S
C4471 C4468 1.539 . S
C4471 H4485 0.958 . S
C4471 H4486 0.961 . S
C4471 H4487 0.960 . S
H4472 C4456 0.931 . S
H4473 C4461 0.929 . S
H4474 C4462 0.960 . S
H4475 C4462 0.962 . S
H4476 C4462 0.960 . S
H4477 C4463 0.961 . S
H4478 C4463 0.961 . S
H4479 C4463 0.961 . S
H4480 C4464 0.931 . S
H4481 C4469 0.930 . S
H4482 C4470 0.956 . S
H4483 C4470 0.961 . S
H4484 C4470 0.961 . S
H4485 C4471 0.958 . S
H4486 C4471 0.961 . S
H4487 C4471 0.960 . S
C4488 C4489 1.391 . S
C4488 C4490 1.394 . S
C4488 H4504 0.931 . S
C4489 C4488 1.391 . S
C4489 C4493 1.376 . S
C4490 C4488 1.394 . S
C4490 C4491 1.369 . S
C4490 C4494 1.531 . S
C4491 C4490 1.369 . S
C4491 C4492 1.410 . S
C4491 C4499 1.503 . S
C4492 C4491 1.410 . S
C4492 C4493 1.392 . S
C4492 C4495 1.511 . S
C4493 C4489 1.376 . S
C4493 C4492 1.392 . S
C4493 H4505 0.929 . S
C4494 C4490 1.531 . S
C4494 H4506 0.960 . S
C4494 H4507 0.962 . S
C4494 H4508 0.960 . S
C4495 C4492 1.511 . S
C4495 H4509 0.961 . S
C4495 H4510 0.961 . S
C4495 H4511 0.961 . S
C4496 C4497 1.370 . S
C4496 C4498 1.363 . S
C4496 H4512 0.931 . S
C4497 C4496 1.370 . S
C4497 C4501 1.408 . S
C4498 C4496 1.363 . S
C4498 C4499 1.370 . S
C4498 C4502 1.524 . S
C4499 C4491 1.503 . S
C4499 C4498 1.370 . S
C4499 C4500 1.403 . S
C4500 C4499 1.403 . S
C4500 C4501 1.404 . S
C4500 C4503 1.539 . S
C4501 C4497 1.408 . S
C4501 C4500 1.404 . S
C4501 H4513 0.930 . S
C4502 C4498 1.524 . S
C4502 H4514 0.956 . S
C4502 H4515 0.961 . S
C4502 H4516 0.961 . S
C4503 C4500 1.539 . S
C4503 H4517 0.958 . S
C4503 H4518 0.961 . S
C4503 H4519 0.960 . S
H4504 C4488 0.931 . S
H4505 C4493 0.929 . S
H4506 C4494 0.960 . S
H4507 C4494 0.962 . S
H4508 C4494 0.960 . S
H4509 C4495 0.961 . S
H4510 C4495 0.961 . S
H4511 C4495 0.961 . S
H4512 C4496 0.931 . S
H4513 C4501 0.930 . S
H4514 C4502 0.956 . S
H4515 C4502 0.961 . S
H4516 C4502 0.961 . S
H4517 C4503 0.958 . S
H4518 C4503 0.961 . S
H4519 C4503 0.960 . S
C4520 C4521 1.391 . S
C4520 C4522 1.394 . S
C4520 H4536 0.931 . S
C4521 C4520 1.391 . S
C4521 C4525 1.376 . S
C4522 C4520 1.394 . S
C4522 C4523 1.369 . S
C4522 C4526 1.531 . S
C4523 C4522 1.369 . S
C4523 C4524 1.410 . S
C4523 C4531 1.503 . S
C4524 C4523 1.410 . S
C4524 C4525 1.392 . S
C4524 C4527 1.511 . S
C4525 C4521 1.376 . S
C4525 C4524 1.392 . S
C4525 H4537 0.929 . S
C4526 C4522 1.531 . S
C4526 H4538 0.960 . S
C4526 H4539 0.962 . S
C4526 H4540 0.960 . S
C4527 C4524 1.511 . S
C4527 H4541 0.961 . S
C4527 H4542 0.961 . S
C4527 H4543 0.961 . S
C4528 C4529 1.370 . S
C4528 C4530 1.363 . S
C4528 H4544 0.931 . S
C4529 C4528 1.370 . S
C4529 C4533 1.408 . S
C4530 C4528 1.363 . S
C4530 C4531 1.370 . S
C4530 C4534 1.524 . S
C4531 C4523 1.503 . S
C4531 C4530 1.370 . S
C4531 C4532 1.403 . S
C4532 C4531 1.403 . S
C4532 C4533 1.404 . S
C4532 C4535 1.539 . S
C4533 C4529 1.408 . S
C4533 C4532 1.404 . S
C4533 H4545 0.930 . S
C4534 C4530 1.524 . S
C4534 H4546 0.956 . S
C4534 H4547 0.961 . S
C4534 H4548 0.961 . S
C4535 C4532 1.539 . S
C4535 H4549 0.958 . S
C4535 H4550 0.961 . S
C4535 H4551 0.960 . S
H4536 C4520 0.931 . S
H4537 C4525 0.929 . S
H4538 C4526 0.960 . S
H4539 C4526 0.962 . S
H4540 C4526 0.960 . S
H4541 C4527 0.961 . S
H4542 C4527 0.961 . S
H4543 C4527 0.961 . S
H4544 C4528 0.931 . S
H4545 C4533 0.930 . S
H4546 C4534 0.956 . S
H4547 C4534 0.961 . S
H4548 C4534 0.961 . S
H4549 C4535 0.958 . S
H4550 C4535 0.961 . S
H4551 C4535 0.960 . S
C4552 C4553 1.391 . S
C4552 C4554 1.394 . S
C4552 H4568 0.931 . S
C4553 C4552 1.391 . S
C4553 C4557 1.376 . S
C4554 C4552 1.394 . S
C4554 C4555 1.369 . S
C4554 C4558 1.531 . S
C4555 C4554 1.369 . S
C4555 C4556 1.410 . S
C4555 C4563 1.503 . S
C4556 C4555 1.410 . S
C4556 C4557 1.392 . S
C4556 C4559 1.511 . S
C4557 C4553 1.376 . S
C4557 C4556 1.392 . S
C4557 H4569 0.929 . S
C4558 C4554 1.531 . S
C4558 H4570 0.960 . S
C4558 H4571 0.962 . S
C4558 H4572 0.960 . S
C4559 C4556 1.511 . S
C4559 H4573 0.961 . S
C4559 H4574 0.961 . S
C4559 H4575 0.961 . S
C4560 C4561 1.370 . S
C4560 C4562 1.363 . S
C4560 H4576 0.931 . S
C4561 C4560 1.370 . S
C4561 C4565 1.408 . S
C4562 C4560 1.363 . S
C4562 C4563 1.370 . S
C4562 C4566 1.524 . S
C4563 C4555 1.503 . S
C4563 C4562 1.370 . S
C4563 C4564 1.403 . S
C4564 C4563 1.403 . S
C4564 C4565 1.404 . S
C4564 C4567 1.539 . S
C4565 C4561 1.408 . S
C4565 C4564 1.404 . S
C4565 H4577 0.930 . S
C4566 C4562 1.524 . S
C4566 H4578 0.956 . S
C4566 H4579 0.961 . S
C4566 H4580 0.961 . S
C4567 C4564 1.539 . S
C4567 H4581 0.958 . S
C4567 H4582 0.961 . S
C4567 H4583 0.960 . S
H4568 C4552 0.931 . S
H4569 C4557 0.929 . S
H4570 C4558 0.960 . S
H4571 C4558 0.962 . S
H4572 C4558 0.960 . S
H4573 C4559 0.961 . S
H4574 C4559 0.961 . S
H4575 C4559 0.961 . S
H4576 C4560 0.931 . S
H4577 C4565 0.930 . S
H4578 C4566 0.956 . S
H4579 C4566 0.961 . S
H4580 C4566 0.961 . S
H4581 C4567 0.958 . S
H4582 C4567 0.961 . S
H4583 C4567 0.960 . S
C4584 C4585 1.391 . S
C4584 C4586 1.394 . S
C4584 H4600 0.931 . S
C4585 C4584 1.391 . S
C4585 C4589 1.376 . S
C4586 C4584 1.394 . S
C4586 C4587 1.369 . S
C4586 C4590 1.531 . S
C4587 C4586 1.369 . S
C4587 C4588 1.410 . S
C4587 C4595 1.503 . S
C4588 C4587 1.410 . S
C4588 C4589 1.392 . S
C4588 C4591 1.511 . S
C4589 C4585 1.376 . S
C4589 C4588 1.392 . S
C4589 H4601 0.929 . S
C4590 C4586 1.531 . S
C4590 H4602 0.960 . S
C4590 H4603 0.962 . S
C4590 H4604 0.960 . S
C4591 C4588 1.511 . S
C4591 H4605 0.961 . S
C4591 H4606 0.961 . S
C4591 H4607 0.961 . S
C4592 C4593 1.370 . S
C4592 C4594 1.363 . S
C4592 H4608 0.931 . S
C4593 C4592 1.370 . S
C4593 C4597 1.408 . S
C4594 C4592 1.363 . S
C4594 C4595 1.370 . S
C4594 C4598 1.524 . S
C4595 C4587 1.503 . S
C4595 C4594 1.370 . S
C4595 C4596 1.403 . S
C4596 C4595 1.403 . S
C4596 C4597 1.404 . S
C4596 C4599 1.539 . S
C4597 C4593 1.408 . S
C4597 C4596 1.404 . S
C4597 H4609 0.930 . S
C4598 C4594 1.524 . S
C4598 H4610 0.956 . S
C4598 H4611 0.961 . S
C4598 H4612 0.961 . S
C4599 C4596 1.539 . S
C4599 H4613 0.958 . S
C4599 H4614 0.961 . S
C4599 H4615 0.960 . S
H4600 C4584 0.931 . S
H4601 C4589 0.929 . S
H4602 C4590 0.960 . S
H4603 C4590 0.962 . S
H4604 C4590 0.960 . S
H4605 C4591 0.961 . S
H4606 C4591 0.961 . S
H4607 C4591 0.961 . S
H4608 C4592 0.931 . S
H4609 C4597 0.930 . S
H4610 C4598 0.956 . S
H4611 C4598 0.961 . S
H4612 C4598 0.961 . S
H4613 C4599 0.958 . S
H4614 C4599 0.961 . S
H4615 C4599 0.960 . S
C4616 C4617 1.391 . S
C4616 C4618 1.394 . S
C4616 H4632 0.931 . S
C4617 C4616 1.391 . S
C4617 C4621 1.376 . S
C4618 C4616 1.394 . S
C4618 C4619 1.369 . S
C4618 C4622 1.531 . S
C4619 C4618 1.369 . S
C4619 C4620 1.410 . S
C4619 C4627 1.503 . S
C4620 C4619 1.410 . S
C4620 C4621 1.392 . S
C4620 C4623 1.511 . S
C4621 C4617 1.376 . S
C4621 C4620 1.392 . S
C4621 H4633 0.929 . S
C4622 C4618 1.531 . S
C4622 H4634 0.960 . S
C4622 H4635 0.962 . S
C4622 H4636 0.960 . S
C4623 C4620 1.511 . S
C4623 H4637 0.961 . S
C4623 H4638 0.961 . S
C4623 H4639 0.961 . S
C4624 C4625 1.370 . S
C4624 C4626 1.363 . S
C4624 H4640 0.931 . S
C4625 C4624 1.370 . S
C4625 C4629 1.408 . S
C4626 C4624 1.363 . S
C4626 C4627 1.370 . S
C4626 C4630 1.524 . S
C4627 C4619 1.503 . S
C4627 C4626 1.370 . S
C4627 C4628 1.403 . S
C4628 C4627 1.403 . S
C4628 C4629 1.404 . S
C4628 C4631 1.539 . S
C4629 C4625 1.408 . S
C4629 C4628 1.404 . S
C4629 H4641 0.930 . S
C4630 C4626 1.524 . S
C4630 H4642 0.956 . S
C4630 H4643 0.961 . S
C4630 H4644 0.961 . S
C4631 C4628 1.539 . S
C4631 H4645 0.958 . S
C4631 H4646 0.961 . S
C4631 H4647 0.960 . S
H4632 C4616 0.931 . S
H4633 C4621 0.929 . S
H4634 C4622 0.960 . S
H4635 C4622 0.962 . S
H4636 C4622 0.960 . S
H4637 C4623 0.961 . S
H4638 C4623 0.961 . S
H4639 C4623 0.961 . S
H4640 C4624 0.931 . S
H4641 C4629 0.930 . S
H4642 C4630 0.956 . S
H4643 C4630 0.961 . S
H4644 C4630 0.961 . S
H4645 C4631 0.958 . S
H4646 C4631 0.961 . S
H4647 C4631 0.960 . S
C4648 C4649 1.391 . S
C4648 C4650 1.394 . S
C4648 H4664 0.931 . S
C4649 C4648 1.391 . S
C4649 C4653 1.376 . S
C4650 C4648 1.394 . S
C4650 C4651 1.369 . S
C4650 C4654 1.531 . S
C4651 C4650 1.369 . S
C4651 C4652 1.410 . S
C4651 C4659 1.503 . S
C4652 C4651 1.410 . S
C4652 C4653 1.392 . S
C4652 C4655 1.511 . S
C4653 C4649 1.376 . S
C4653 C4652 1.392 . S
C4653 H4665 0.929 . S
C4654 C4650 1.531 . S
C4654 H4666 0.960 . S
C4654 H4667 0.962 . S
C4654 H4668 0.960 . S
C4655 C4652 1.511 . S
C4655 H4669 0.961 . S
C4655 H4670 0.961 . S
C4655 H4671 0.961 . S
C4656 C4657 1.370 . S
C4656 C4658 1.363 . S
C4656 H4672 0.931 . S
C4657 C4656 1.370 . S
C4657 C4661 1.408 . S
C4658 C4656 1.363 . S
C4658 C4659 1.370 . S
C4658 C4662 1.524 . S
C4659 C4651 1.503 . S
C4659 C4658 1.370 . S
C4659 C4660 1.403 . S
C4660 C4659 1.403 . S
C4660 C4661 1.404 . S
C4660 C4663 1.539 . S
C4661 C4657 1.408 . S
C4661 C4660 1.404 . S
C4661 H4673 0.930 . S
C4662 C4658 1.524 . S
C4662 H4674 0.956 . S
C4662 H4675 0.961 . S
C4662 H4676 0.961 . S
C4663 C4660 1.539 . S
C4663 H4677 0.958 . S
C4663 H4678 0.961 . S
C4663 H4679 0.960 . S
H4664 C4648 0.931 . S
H4665 C4653 0.929 . S
H4666 C4654 0.960 . S
H4667 C4654 0.962 . S
H4668 C4654 0.960 . S
H4669 C4655 0.961 . S
H4670 C4655 0.961 . S
H4671 C4655 0.961 . S
H4672 C4656 0.931 . S
H4673 C4661 0.930 . S
H4674 C4662 0.956 . S
H4675 C4662 0.961 . S
H4676 C4662 0.961 . S
H4677 C4663 0.958 . S
H4678 C4663 0.961 . S
H4679 C4663 0.960 . S
C4680 C4681 1.391 . S
C4680 C4682 1.394 . S
C4680 H4696 0.931 . S
C4681 C4680 1.391 . S
C4681 C4685 1.376 . S
C4682 C4680 1.394 . S
C4682 C4683 1.369 . S
C4682 C4686 1.531 . S
C4683 C4682 1.369 . S
C4683 C4684 1.410 . S
C4683 C4691 1.503 . S
C4684 C4683 1.410 . S
C4684 C4685 1.392 . S
C4684 C4687 1.511 . S
C4685 C4681 1.376 . S
C4685 C4684 1.392 . S
C4685 H4697 0.929 . S
C4686 C4682 1.531 . S
C4686 H4698 0.960 . S
C4686 H4699 0.962 . S
C4686 H4700 0.960 . S
C4687 C4684 1.511 . S
C4687 H4701 0.961 . S
C4687 H4702 0.961 . S
C4687 H4703 0.961 . S
C4688 C4689 1.370 . S
C4688 C4690 1.363 . S
C4688 H4704 0.931 . S
C4689 C4688 1.370 . S
C4689 C4693 1.408 . S
C4690 C4688 1.363 . S
C4690 C4691 1.370 . S
C4690 C4694 1.524 . S
C4691 C4683 1.503 . S
C4691 C4690 1.370 . S
C4691 C4692 1.403 . S
C4692 C4691 1.403 . S
C4692 C4693 1.404 . S
C4692 C4695 1.539 . S
C4693 C4689 1.408 . S
C4693 C4692 1.404 . S
C4693 H4705 0.930 . S
C4694 C4690 1.524 . S
C4694 H4706 0.956 . S
C4694 H4707 0.961 . S
C4694 H4708 0.961 . S
C4695 C4692 1.539 . S
C4695 H4709 0.958 . S
C4695 H4710 0.961 . S
C4695 H4711 0.960 . S
H4696 C4680 0.931 . S
H4697 C4685 0.929 . S
H4698 C4686 0.960 . S
H4699 C4686 0.962 . S
H4700 C4686 0.960 . S
H4701 C4687 0.961 . S
H4702 C4687 0.961 . S
H4703 C4687 0.961 . S
H4704 C4688 0.931 . S
H4705 C4693 0.930 . S
H4706 C4694 0.956 . S
H4707 C4694 0.961 . S
H4708 C4694 0.961 . S
H4709 C4695 0.958 . S
H4710 C4695 0.961 . S
H4711 C4695 0.960 . S
C4712 C4713 1.391 . S
C4712 C4714 1.394 . S
C4712 H4728 0.931 . S
C4713 C4712 1.391 . S
C4713 C4717 1.376 . S
C4714 C4712 1.394 . S
C4714 C4715 1.369 . S
C4714 C4718 1.531 . S
C4715 C4714 1.369 . S
C4715 C4716 1.410 . S
C4715 C4723 1.503 . S
C4716 C4715 1.410 . S
C4716 C4717 1.392 . S
C4716 C4719 1.511 . S
C4717 C4713 1.376 . S
C4717 C4716 1.392 . S
C4717 H4729 0.929 . S
C4718 C4714 1.531 . S
C4718 H4730 0.960 . S
C4718 H4731 0.962 . S
C4718 H4732 0.960 . S
C4719 C4716 1.511 . S
C4719 H4733 0.961 . S
C4719 H4734 0.961 . S
C4719 H4735 0.961 . S
C4720 C4721 1.370 . S
C4720 C4722 1.363 . S
C4720 H4736 0.931 . S
C4721 C4720 1.370 . S
C4721 C4725 1.408 . S
C4722 C4720 1.363 . S
C4722 C4723 1.370 . S
C4722 C4726 1.524 . S
C4723 C4715 1.503 . S
C4723 C4722 1.370 . S
C4723 C4724 1.403 . S
C4724 C4723 1.403 . S
C4724 C4725 1.404 . S
C4724 C4727 1.539 . S
C4725 C4721 1.408 . S
C4725 C4724 1.404 . S
C4725 H4737 0.930 . S
C4726 C4722 1.524 . S
C4726 H4738 0.956 . S
C4726 H4739 0.961 . S
C4726 H4740 0.961 . S
C4727 C4724 1.539 . S
C4727 H4741 0.958 . S
C4727 H4742 0.961 . S
C4727 H4743 0.960 . S
H4728 C4712 0.931 . S
H4729 C4717 0.929 . S
H4730 C4718 0.960 . S
H4731 C4718 0.962 . S
H4732 C4718 0.960 . S
H4733 C4719 0.961 . S
H4734 C4719 0.961 . S
H4735 C4719 0.961 . S
H4736 C4720 0.931 . S
H4737 C4725 0.930 . S
H4738 C4726 0.956 . S
H4739 C4726 0.961 . S
H4740 C4726 0.961 . S
H4741 C4727 0.958 . S
H4742 C4727 0.961 . S
H4743 C4727 0.960 . S
C4744 C4745 1.391 . S
C4744 C4746 1.394 . S
C4744 H4760 0.931 . S
C4745 C4744 1.391 . S
C4745 C4749 1.376 . S
C4746 C4744 1.394 . S
C4746 C4747 1.369 . S
C4746 C4750 1.531 . S
C4747 C4746 1.369 . S
C4747 C4748 1.410 . S
C4747 C4755 1.503 . S
C4748 C4747 1.410 . S
C4748 C4749 1.392 . S
C4748 C4751 1.511 . S
C4749 C4745 1.376 . S
C4749 C4748 1.392 . S
C4749 H4761 0.929 . S
C4750 C4746 1.531 . S
C4750 H4762 0.960 . S
C4750 H4763 0.962 . S
C4750 H4764 0.960 . S
C4751 C4748 1.511 . S
C4751 H4765 0.961 . S
C4751 H4766 0.961 . S
C4751 H4767 0.961 . S
C4752 C4753 1.370 . S
C4752 C4754 1.363 . S
C4752 H4768 0.931 . S
C4753 C4752 1.370 . S
C4753 C4757 1.408 . S
C4754 C4752 1.363 . S
C4754 C4755 1.370 . S
C4754 C4758 1.524 . S
C4755 C4747 1.503 . S
C4755 C4754 1.370 . S
C4755 C4756 1.403 . S
C4756 C4755 1.403 . S
C4756 C4757 1.404 . S
C4756 C4759 1.539 . S
C4757 C4753 1.408 . S
C4757 C4756 1.404 . S
C4757 H4769 0.930 . S
C4758 C4754 1.524 . S
C4758 H4770 0.956 . S
C4758 H4771 0.961 . S
C4758 H4772 0.961 . S
C4759 C4756 1.539 . S
C4759 H4773 0.958 . S
C4759 H4774 0.961 . S
C4759 H4775 0.960 . S
H4760 C4744 0.931 . S
H4761 C4749 0.929 . S
H4762 C4750 0.960 . S
H4763 C4750 0.962 . S
H4764 C4750 0.960 . S
H4765 C4751 0.961 . S
H4766 C4751 0.961 . S
H4767 C4751 0.961 . S
H4768 C4752 0.931 . S
H4769 C4757 0.930 . S
H4770 C4758 0.956 . S
H4771 C4758 0.961 . S
H4772 C4758 0.961 . S
H4773 C4759 0.958 . S
H4774 C4759 0.961 . S
H4775 C4759 0.960 . S
C4776 C4777 1.391 . S
C4776 C4778 1.394 . S
C4776 H4792 0.931 . S
C4777 C4776 1.391 . S
C4777 C4781 1.376 . S
C4778 C4776 1.394 . S
C4778 C4779 1.369 . S
C4778 C4782 1.531 . S
C4779 C4778 1.369 . S
C4779 C4780 1.410 . S
C4779 C4787 1.503 . S
C4780 C4779 1.410 . S
C4780 C4781 1.392 . S
C4780 C4783 1.511 . S
C4781 C4777 1.376 . S
C4781 C4780 1.392 . S
C4781 H4793 0.929 . S
C4782 C4778 1.531 . S
C4782 H4794 0.960 . S
C4782 H4795 0.962 . S
C4782 H4796 0.960 . S
C4783 C4780 1.511 . S
C4783 H4797 0.961 . S
C4783 H4798 0.961 . S
C4783 H4799 0.961 . S
C4784 C4785 1.370 . S
C4784 C4786 1.363 . S
C4784 H4800 0.931 . S
C4785 C4784 1.370 . S
C4785 C4789 1.408 . S
C4786 C4784 1.363 . S
C4786 C4787 1.370 . S
C4786 C4790 1.524 . S
C4787 C4779 1.503 . S
C4787 C4786 1.370 . S
C4787 C4788 1.403 . S
C4788 C4787 1.403 . S
C4788 C4789 1.404 . S
C4788 C4791 1.539 . S
C4789 C4785 1.408 . S
C4789 C4788 1.404 . S
C4789 H4801 0.930 . S
C4790 C4786 1.524 . S
C4790 H4802 0.956 . S
C4790 H4803 0.961 . S
C4790 H4804 0.961 . S
C4791 C4788 1.539 . S
C4791 H4805 0.958 . S
C4791 H4806 0.961 . S
C4791 H4807 0.960 . S
H4792 C4776 0.931 . S
H4793 C4781 0.929 . S
H4794 C4782 0.960 . S
H4795 C4782 0.962 . S
H4796 C4782 0.960 . S
H4797 C4783 0.961 . S
H4798 C4783 0.961 . S
H4799 C4783 0.961 . S
H4800 C4784 0.931 . S
H4801 C4789 0.930 . S
H4802 C4790 0.956 . S
H4803 C4790 0.961 . S
H4804 C4790 0.961 . S
H4805 C4791 0.958 . S
H4806 C4791 0.961 . S
H4807 C4791 0.960 . S
C4808 C4809 1.391 . S
C4808 C4810 1.394 . S
C4808 H4824 0.931 . S
C4809 C4808 1.391 . S
C4809 C4813 1.376 . S
C4810 C4808 1.394 . S
C4810 C4811 1.369 . S
C4810 C4814 1.531 . S
C4811 C4810 1.369 . S
C4811 C4812 1.410 . S
C4811 C4819 1.503 . S
C4812 C4811 1.410 . S
C4812 C4813 1.392 . S
C4812 C4815 1.511 . S
C4813 C4809 1.376 . S
C4813 C4812 1.392 . S
C4813 H4825 0.929 . S
C4814 C4810 1.531 . S
C4814 H4826 0.960 . S
C4814 H4827 0.962 . S
C4814 H4828 0.960 . S
C4815 C4812 1.511 . S
C4815 H4829 0.961 . S
C4815 H4830 0.961 . S
C4815 H4831 0.961 . S
C4816 C4817 1.370 . S
C4816 C4818 1.363 . S
C4816 H4832 0.931 . S
C4817 C4816 1.370 . S
C4817 C4821 1.408 . S
C4818 C4816 1.363 . S
C4818 C4819 1.370 . S
C4818 C4822 1.524 . S
C4819 C4811 1.503 . S
C4819 C4818 1.370 . S
C4819 C4820 1.403 . S
C4820 C4819 1.403 . S
C4820 C4821 1.404 . S
C4820 C4823 1.539 . S
C4821 C4817 1.408 . S
C4821 C4820 1.404 . S
C4821 H4833 0.930 . S
C4822 C4818 1.524 . S
C4822 H4834 0.956 . S
C4822 H4835 0.961 . S
C4822 H4836 0.961 . S
C4823 C4820 1.539 . S
C4823 H4837 0.958 . S
C4823 H4838 0.961 . S
C4823 H4839 0.960 . S
H4824 C4808 0.931 . S
H4825 C4813 0.929 . S
H4826 C4814 0.960 . S
H4827 C4814 0.962 . S
H4828 C4814 0.960 . S
H4829 C4815 0.961 . S
H4830 C4815 0.961 . S
H4831 C4815 0.961 . S
H4832 C4816 0.931 . S
H4833 C4821 0.930 . S
H4834 C4822 0.956 . S
H4835 C4822 0.961 . S
H4836 C4822 0.961 . S
H4837 C4823 0.958 . S
H4838 C4823 0.961 . S
H4839 C4823 0.960 . S
C4840 C4841 1.391 . S
C4840 C4842 1.394 . S
C4840 H4856 0.931 . S
C4841 C4840 1.391 . S
C4841 C4845 1.376 . S
C4842 C4840 1.394 . S
C4842 C4843 1.369 . S
C4842 C4846 1.531 . S
C4843 C4842 1.369 . S
C4843 C4844 1.410 . S
C4843 C4851 1.503 . S
C4844 C4843 1.410 . S
C4844 C4845 1.392 . S
C4844 C4847 1.511 . S
C4845 C4841 1.376 . S
C4845 C4844 1.392 . S
C4845 H4857 0.929 . S
C4846 C4842 1.531 . S
C4846 H4858 0.960 . S
C4846 H4859 0.962 . S
C4846 H4860 0.960 . S
C4847 C4844 1.511 . S
C4847 H4861 0.961 . S
C4847 H4862 0.961 . S
C4847 H4863 0.961 . S
C4848 C4849 1.370 . S
C4848 C4850 1.363 . S
C4848 H4864 0.931 . S
C4849 C4848 1.370 . S
C4849 C4853 1.408 . S
C4850 C4848 1.363 . S
C4850 C4851 1.370 . S
C4850 C4854 1.524 . S
C4851 C4843 1.503 . S
C4851 C4850 1.370 . S
C4851 C4852 1.403 . S
C4852 C4851 1.403 . S
C4852 C4853 1.404 . S
C4852 C4855 1.539 . S
C4853 C4849 1.408 . S
C4853 C4852 1.404 . S
C4853 H4865 0.930 . S
C4854 C4850 1.524 . S
C4854 H4866 0.956 . S
C4854 H4867 0.961 . S
C4854 H4868 0.961 . S
C4855 C4852 1.539 . S
C4855 H4869 0.958 . S
C4855 H4870 0.961 . S
C4855 H4871 0.960 . S
H4856 C4840 0.931 . S
H4857 C4845 0.929 . S
H4858 C4846 0.960 . S
H4859 C4846 0.962 . S
H4860 C4846 0.960 . S
H4861 C4847 0.961 . S
H4862 C4847 0.961 . S
H4863 C4847 0.961 . S
H4864 C4848 0.931 . S
H4865 C4853 0.930 . S
H4866 C4854 0.956 . S
H4867 C4854 0.961 . S
H4868 C4854 0.961 . S
H4869 C4855 0.958 . S
H4870 C4855 0.961 . S
H4871 C4855 0.960 . S
C4872 C4873 1.391 . S
C4872 C4874 1.394 . S
C4872 H4888 0.931 . S
C4873 C4872 1.391 . S
C4873 C4877 1.376 . S
C4874 C4872 1.394 . S
C4874 C4875 1.369 . S
C4874 C4878 1.531 . S
C4875 C4874 1.369 . S
C4875 C4876 1.410 . S
C4875 C4883 1.503 . S
C4876 C4875 1.410 . S
C4876 C4877 1.392 . S
C4876 C4879 1.511 . S
C4877 C4873 1.376 . S
C4877 C4876 1.392 . S
C4877 H4889 0.929 . S
C4878 C4874 1.531 . S
C4878 H4890 0.960 . S
C4878 H4891 0.962 . S
C4878 H4892 0.960 . S
C4879 C4876 1.511 . S
C4879 H4893 0.961 . S
C4879 H4894 0.961 . S
C4879 H4895 0.961 . S
C4880 C4881 1.370 . S
C4880 C4882 1.363 . S
C4880 H4896 0.931 . S
C4881 C4880 1.370 . S
C4881 C4885 1.408 . S
C4882 C4880 1.363 . S
C4882 C4883 1.370 . S
C4882 C4886 1.524 . S
C4883 C4875 1.503 . S
C4883 C4882 1.370 . S
C4883 C4884 1.403 . S
C4884 C4883 1.403 . S
C4884 C4885 1.404 . S
C4884 C4887 1.539 . S
C4885 C4881 1.408 . S
C4885 C4884 1.404 . S
C4885 H4897 0.930 . S
C4886 C4882 1.524 . S
C4886 H4898 0.956 . S
C4886 H4899 0.961 . S
C4886 H4900 0.961 . S
C4887 C4884 1.539 . S
C4887 H4901 0.958 . S
C4887 H4902 0.961 . S
C4887 H4903 0.960 . S
H4888 C4872 0.931 . S
H4889 C4877 0.929 . S
H4890 C4878 0.960 . S
H4891 C4878 0.962 . S
H4892 C4878 0.960 . S
H4893 C4879 0.961 . S
H4894 C4879 0.961 . S
H4895 C4879 0.961 . S
H4896 C4880 0.931 . S
H4897 C4885 0.930 . S
H4898 C4886 0.956 . S
H4899 C4886 0.961 . S
H4900 C4886 0.961 . S
H4901 C4887 0.958 . S
H4902 C4887 0.961 . S
H4903 C4887 0.960 . S
C4904 C4905 1.391 . S
C4904 C4906 1.394 . S
C4904 H4920 0.931 . S
C4905 C4904 1.391 . S
C4905 C4909 1.376 . S
C4906 C4904 1.394 . S
C4906 C4907 1.369 . S
C4906 C4910 1.531 . S
C4907 C4906 1.369 . S
C4907 C4908 1.410 . S
C4907 C4915 1.503 . S
C4908 C4907 1.410 . S
C4908 C4909 1.392 . S
C4908 C4911 1.511 . S
C4909 C4905 1.376 . S
C4909 C4908 1.392 . S
C4909 H4921 0.929 . S
C4910 C4906 1.531 . S
C4910 H4922 0.960 . S
C4910 H4923 0.962 . S
C4910 H4924 0.960 . S
C4911 C4908 1.511 . S
C4911 H4925 0.961 . S
C4911 H4926 0.961 . S
C4911 H4927 0.961 . S
C4912 C4913 1.370 . S
C4912 C4914 1.363 . S
C4912 H4928 0.931 . S
C4913 C4912 1.370 . S
C4913 C4917 1.408 . S
C4914 C4912 1.363 . S
C4914 C4915 1.370 . S
C4914 C4918 1.524 . S
C4915 C4907 1.503 . S
C4915 C4914 1.370 . S
C4915 C4916 1.403 . S
C4916 C4915 1.403 . S
C4916 C4917 1.404 . S
C4916 C4919 1.539 . S
C4917 C4913 1.408 . S
C4917 C4916 1.404 . S
C4917 H4929 0.930 . S
C4918 C4914 1.524 . S
C4918 H4930 0.956 . S
C4918 H4931 0.961 . S
C4918 H4932 0.961 . S
C4919 C4916 1.539 . S
C4919 H4933 0.958 . S
C4919 H4934 0.961 . S
C4919 H4935 0.960 . S
H4920 C4904 0.931 . S
H4921 C4909 0.929 . S
H4922 C4910 0.960 . S
H4923 C4910 0.962 . S
H4924 C4910 0.960 . S
H4925 C4911 0.961 . S
H4926 C4911 0.961 . S
H4927 C4911 0.961 . S
H4928 C4912 0.931 . S
H4929 C4917 0.930 . S
H4930 C4918 0.956 . S
H4931 C4918 0.961 . S
H4932 C4918 0.961 . S
H4933 C4919 0.958 . S
H4934 C4919 0.961 . S
H4935 C4919 0.960 . S
C4936 C4937 1.391 . S
C4936 C4938 1.394 . S
C4936 H4952 0.931 . S
C4937 C4936 1.391 . S
C4937 C4941 1.376 . S
C4938 C4936 1.394 . S
C4938 C4939 1.369 . S
C4938 C4942 1.531 . S
C4939 C4938 1.369 . S
C4939 C4940 1.410 . S
C4939 C4947 1.503 . S
C4940 C4939 1.410 . S
C4940 C4941 1.392 . S
C4940 C4943 1.511 . S
C4941 C4937 1.376 . S
C4941 C4940 1.392 . S
C4941 H4953 0.929 . S
C4942 C4938 1.531 . S
C4942 H4954 0.960 . S
C4942 H4955 0.962 . S
C4942 H4956 0.960 . S
C4943 C4940 1.511 . S
C4943 H4957 0.961 . S
C4943 H4958 0.961 . S
C4943 H4959 0.961 . S
C4944 C4945 1.370 . S
C4944 C4946 1.363 . S
C4944 H4960 0.931 . S
C4945 C4944 1.370 . S
C4945 C4949 1.408 . S
C4946 C4944 1.363 . S
C4946 C4947 1.370 . S
C4946 C4950 1.524 . S
C4947 C4939 1.503 . S
C4947 C4946 1.370 . S
C4947 C4948 1.403 . S
C4948 C4947 1.403 . S
C4948 C4949 1.404 . S
C4948 C4951 1.539 . S
C4949 C4945 1.408 . S
C4949 C4948 1.404 . S
C4949 H4961 0.930 . S
C4950 C4946 1.524 . S
C4950 H4962 0.956 . S
C4950 H4963 0.961 . S
C4950 H4964 0.961 . S
C4951 C4948 1.539 . S
C4951 H4965 0.958 . S
C4951 H4966 0.961 . S
C4951 H4967 0.960 . S
H4952 C4936 0.931 . S
H4953 C4941 0.929 . S
H4954 C4942 0.960 . S
H4955 C4942 0.962 . S
H4956 C4942 0.960 . S
H4957 C4943 0.961 . S
H4958 C4943 0.961 . S
H4959 C4943 0.961 . S
H4960 C4944 0.931 . S
H4961 C4949 0.930 . S
H4962 C4950 0.956 . S
H4963 C4950 0.961 . S
H4964 C4950 0.961 . S
H4965 C4951 0.958 . S
H4966 C4951 0.961 . S
H4967 C4951 0.960 . S
C4968 C4969 1.391 . S
C4968 C4970 1.394 . S
C4968 H4984 0.931 . S
C4969 C4968 1.391 . S
C4969 C4973 1.376 . S
C4970 C4968 1.394 . S
C4970 C4971 1.369 . S
C4970 C4974 1.531 . S
C4971 C4970 1.369 . S
C4971 C4972 1.410 . S
C4971 C4979 1.503 . S
C4972 C4971 1.410 . S
C4972 C4973 1.392 . S
C4972 C4975 1.511 . S
C4973 C4969 1.376 . S
C4973 C4972 1.392 . S
C4973 H4985 0.929 . S
C4974 C4970 1.531 . S
C4974 H4986 0.960 . S
C4974 H4987 0.962 . S
C4974 H4988 0.960 . S
C4975 C4972 1.511 . S
C4975 H4989 0.961 . S
C4975 H4990 0.961 . S
C4975 H4991 0.961 . S
C4976 C4977 1.370 . S
C4976 C4978 1.363 . S
C4976 H4992 0.931 . S
C4977 C4976 1.370 . S
C4977 C4981 1.408 . S
C4978 C4976 1.363 . S
C4978 C4979 1.370 . S
C4978 C4982 1.524 . S
C4979 C4971 1.503 . S
C4979 C4978 1.370 . S
C4979 C4980 1.403 . S
C4980 C4979 1.403 . S
C4980 C4981 1.404 . S
C4980 C4983 1.539 . S
C4981 C4977 1.408 . S
C4981 C4980 1.404 . S
C4981 H4993 0.930 . S
C4982 C4978 1.524 . S
C4982 H4994 0.956 . S
C4982 H4995 0.961 . S
C4982 H4996 0.961 . S
C4983 C4980 1.539 . S
C4983 H4997 0.958 . S
C4983 H4998 0.961 . S
C4983 H4999 0.960 . S
H4984 C4968 0.931 . S
H4985 C4973 0.929 . S
H4986 C4974 0.960 . S
H4987 C4974 0.962 . S
H4988 C4974 0.960 . S
H4989 C4975 0.961 . S
H4990 C4975 0.961 . S
H4991 C4975 0.961 . S
H4992 C4976 0.931 . S
H4993 C4981 0.930 . S
H4994 C4982 0.956 . S
H4995 C4982 0.961 . S
H4996 C4982 0.961 . S
H4997 C4983 0.958 . S
H4998 C4983 0.961 . S
H4999 C4983 0.960 . S
C5000 C5001 1.391 . S
C5000 C5002 1.394 . S
C5000 H5016 0.931 . S
C5001 C5000 1.391 . S
C5001 C5005 1.376 . S
C5002 C5000 1.394 . S
C5002 C5003 1.369 . S
C5002 C5006 1.531 . S
C5003 C5002 1.369 . S
C5003 C5004 1.410 . S
C5003 C5011 1.503 . S
C5004 C5003 1.410 . S
C5004 C5005 1.392 . S
C5004 C5007 1.511 . S
C5005 C5001 1.376 . S
C5005 C5004 1.392 . S
C5005 H5017 0.929 . S
C5006 C5002 1.531 . S
C5006 H5018 0.960 . S
C5006 H5019 0.962 . S
C5006 H5020 0.960 . S
C5007 C5004 1.511 . S
C5007 H5021 0.961 . S
C5007 H5022 0.961 . S
C5007 H5023 0.961 . S
C5008 C5009 1.370 . S
C5008 C5010 1.363 . S
C5008 H5024 0.931 . S
C5009 C5008 1.370 . S
C5009 C5013 1.408 . S
C5010 C5008 1.363 . S
C5010 C5011 1.370 . S
C5010 C5014 1.524 . S
C5011 C5003 1.503 . S
C5011 C5010 1.370 . S
C5011 C5012 1.403 . S
C5012 C5011 1.403 . S
C5012 C5013 1.404 . S
C5012 C5015 1.539 . S
C5013 C5009 1.408 . S
C5013 C5012 1.404 . S
C5013 H5025 0.930 . S
C5014 C5010 1.524 . S
C5014 H5026 0.956 . S
C5014 H5027 0.961 . S
C5014 H5028 0.961 . S
C5015 C5012 1.539 . S
C5015 H5029 0.958 . S
C5015 H5030 0.961 . S
C5015 H5031 0.960 . S
H5016 C5000 0.931 . S
H5017 C5005 0.929 . S
H5018 C5006 0.960 . S
H5019 C5006 0.962 . S
H5020 C5006 0.960 . S
H5021 C5007 0.961 . S
H5022 C5007 0.961 . S
H5023 C5007 0.961 . S
H5024 C5008 0.931 . S
H5025 C5013 0.930 . S
H5026 C5014 0.956 . S
H5027 C5014 0.961 . S
H5028 C5014 0.961 . S
H5029 C5015 0.958 . S
H5030 C5015 0.961 . S
H5031 C5015 0.960 . S
C5032 C5033 1.391 . S
C5032 C5034 1.394 . S
C5032 H5048 0.931 . S
C5033 C5032 1.391 . S
C5033 C5037 1.376 . S
C5034 C5032 1.394 . S
C5034 C5035 1.369 . S
C5034 C5038 1.531 . S
C5035 C5034 1.369 . S
C5035 C5036 1.410 . S
C5035 C5043 1.503 . S
C5036 C5035 1.410 . S
C5036 C5037 1.392 . S
C5036 C5039 1.511 . S
C5037 C5033 1.376 . S
C5037 C5036 1.392 . S
C5037 H5049 0.929 . S
C5038 C5034 1.531 . S
C5038 H5050 0.960 . S
C5038 H5051 0.962 . S
C5038 H5052 0.960 . S
C5039 C5036 1.511 . S
C5039 H5053 0.961 . S
C5039 H5054 0.961 . S
C5039 H5055 0.961 . S
C5040 C5041 1.370 . S
C5040 C5042 1.363 . S
C5040 H5056 0.931 . S
C5041 C5040 1.370 . S
C5041 C5045 1.408 . S
C5042 C5040 1.363 . S
C5042 C5043 1.370 . S
C5042 C5046 1.524 . S
C5043 C5035 1.503 . S
C5043 C5042 1.370 . S
C5043 C5044 1.403 . S
C5044 C5043 1.403 . S
C5044 C5045 1.404 . S
C5044 C5047 1.539 . S
C5045 C5041 1.408 . S
C5045 C5044 1.404 . S
C5045 H5057 0.930 . S
C5046 C5042 1.524 . S
C5046 H5058 0.956 . S
C5046 H5059 0.961 . S
C5046 H5060 0.961 . S
C5047 C5044 1.539 . S
C5047 H5061 0.958 . S
C5047 H5062 0.961 . S
C5047 H5063 0.960 . S
H5048 C5032 0.931 . S
H5049 C5037 0.929 . S
H5050 C5038 0.960 . S
H5051 C5038 0.962 . S
H5052 C5038 0.960 . S
H5053 C5039 0.961 . S
H5054 C5039 0.961 . S
H5055 C5039 0.961 . S
H5056 C5040 0.931 . S
H5057 C5045 0.930 . S
H5058 C5046 0.956 . S
H5059 C5046 0.961 . S
H5060 C5046 0.961 . S
H5061 C5047 0.958 . S
H5062 C5047 0.961 . S
H5063 C5047 0.960 . S
C5064 C5065 1.391 . S
C5064 C5066 1.394 . S
C5064 H5080 0.931 . S
C5065 C5064 1.391 . S
C5065 C5069 1.376 . S
C5066 C5064 1.394 . S
C5066 C5067 1.369 . S
C5066 C5070 1.531 . S
C5067 C5066 1.369 . S
C5067 C5068 1.410 . S
C5067 C5075 1.503 . S
C5068 C5067 1.410 . S
C5068 C5069 1.392 . S
C5068 C5071 1.511 . S
C5069 C5065 1.376 . S
C5069 C5068 1.392 . S
C5069 H5081 0.929 . S
C5070 C5066 1.531 . S
C5070 H5082 0.960 . S
C5070 H5083 0.962 . S
C5070 H5084 0.960 . S
C5071 C5068 1.511 . S
C5071 H5085 0.961 . S
C5071 H5086 0.961 . S
C5071 H5087 0.961 . S
C5072 C5073 1.370 . S
C5072 C5074 1.363 . S
C5072 H5088 0.931 . S
C5073 C5072 1.370 . S
C5073 C5077 1.408 . S
C5074 C5072 1.363 . S
C5074 C5075 1.370 . S
C5074 C5078 1.524 . S
C5075 C5067 1.503 . S
C5075 C5074 1.370 . S
C5075 C5076 1.403 . S
C5076 C5075 1.403 . S
C5076 C5077 1.404 . S
C5076 C5079 1.539 . S
C5077 C5073 1.408 . S
C5077 C5076 1.404 . S
C5077 H5089 0.930 . S
C5078 C5074 1.524 . S
C5078 H5090 0.956 . S
C5078 H5091 0.961 . S
C5078 H5092 0.961 . S
C5079 C5076 1.539 . S
C5079 H5093 0.958 . S
C5079 H5094 0.961 . S
C5079 H5095 0.960 . S
H5080 C5064 0.931 . S
H5081 C5069 0.929 . S
H5082 C5070 0.960 . S
H5083 C5070 0.962 . S
H5084 C5070 0.960 . S
H5085 C5071 0.961 . S
H5086 C5071 0.961 . S
H5087 C5071 0.961 . S
H5088 C5072 0.931 . S
H5089 C5077 0.930 . S
H5090 C5078 0.956 . S
H5091 C5078 0.961 . S
H5092 C5078 0.961 . S
H5093 C5079 0.958 . S
H5094 C5079 0.961 . S
H5095 C5079 0.960 . S
C5096 C5097 1.391 . S
C5096 C5098 1.394 . S
C5096 H5112 0.931 . S
C5097 C5096 1.391 . S
C5097 C5101 1.376 . S
C5098 C5096 1.394 . S
C5098 C5099 1.369 . S
C5098 C5102 1.531 . S
C5099 C5098 1.369 . S
C5099 C5100 1.410 . S
C5099 C5107 1.503 . S
C5100 C5099 1.410 . S
C5100 C5101 1.392 . S
C5100 C5103 1.511 . S
C5101 C5097 1.376 . S
C5101 C5100 1.392 . S
C5101 H5113 0.929 . S
C5102 C5098 1.531 . S
C5102 H5114 0.960 . S
C5102 H5115 0.962 . S
C5102 H5116 0.960 . S
C5103 C5100 1.511 . S
C5103 H5117 0.961 . S
C5103 H5118 0.961 . S
C5103 H5119 0.961 . S
C5104 C5105 1.370 . S
C5104 C5106 1.363 . S
C5104 H5120 0.931 . S
C5105 C5104 1.370 . S
C5105 C5109 1.408 . S
C5106 C5104 1.363 . S
C5106 C5107 1.370 . S
C5106 C5110 1.524 . S
C5107 C5099 1.503 . S
C5107 C5106 1.370 . S
C5107 C5108 1.403 . S
C5108 C5107 1.403 . S
C5108 C5109 1.404 . S
C5108 C5111 1.539 . S
C5109 C5105 1.408 . S
C5109 C5108 1.404 . S
C5109 H5121 0.930 . S
C5110 C5106 1.524 . S
C5110 H5122 0.956 . S
C5110 H5123 0.961 . S
C5110 H5124 0.961 . S
C5111 C5108 1.539 . S
C5111 H5125 0.958 . S
C5111 H5126 0.961 . S
C5111 H5127 0.960 . S
H5112 C5096 0.931 . S
H5113 C5101 0.929 . S
H5114 C5102 0.960 . S
H5115 C5102 0.962 . S
H5116 C5102 0.960 . S
H5117 C5103 0.961 . S
H5118 C5103 0.961 . S
H5119 C5103 0.961 . S
H5120 C5104 0.931 . S
H5121 C5109 0.930 . S
H5122 C5110 0.956 . S
H5123 C5110 0.961 . S
H5124 C5110 0.961 . S
H5125 C5111 0.958 . S
H5126 C5111 0.961 . S
H5127 C5111 0.960 . S
C5128 C5129 1.391 . S
C5128 C5130 1.394 . S
C5128 H5144 0.931 . S
C5129 C5128 1.391 . S
C5129 C5133 1.376 . S
C5130 C5128 1.394 . S
C5130 C5131 1.369 . S
C5130 C5134 1.531 . S
C5131 C5130 1.369 . S
C5131 C5132 1.410 . S
C5131 C5139 1.503 . S
C5132 C5131 1.410 . S
C5132 C5133 1.392 . S
C5132 C5135 1.511 . S
C5133 C5129 1.376 . S
C5133 C5132 1.392 . S
C5133 H5145 0.929 . S
C5134 C5130 1.531 . S
C5134 H5146 0.960 . S
C5134 H5147 0.962 . S
C5134 H5148 0.960 . S
C5135 C5132 1.511 . S
C5135 H5149 0.961 . S
C5135 H5150 0.961 . S
C5135 H5151 0.961 . S
C5136 C5137 1.370 . S
C5136 C5138 1.363 . S
C5136 H5152 0.931 . S
C5137 C5136 1.370 . S
C5137 C5141 1.408 . S
C5138 C5136 1.363 . S
C5138 C5139 1.370 . S
C5138 C5142 1.524 . S
C5139 C5131 1.503 . S
C5139 C5138 1.370 . S
C5139 C5140 1.403 . S
C5140 C5139 1.403 . S
C5140 C5141 1.404 . S
C5140 C5143 1.539 . S
C5141 C5137 1.408 . S
C5141 C5140 1.404 . S
C5141 H5153 0.930 . S
C5142 C5138 1.524 . S
C5142 H5154 0.956 . S
C5142 H5155 0.961 . S
C5142 H5156 0.961 . S
C5143 C5140 1.539 . S
C5143 H5157 0.958 . S
C5143 H5158 0.961 . S
C5143 H5159 0.960 . S
H5144 C5128 0.931 . S
H5145 C5133 0.929 . S
H5146 C5134 0.960 . S
H5147 C5134 0.962 . S
H5148 C5134 0.960 . S
H5149 C5135 0.961 . S
H5150 C5135 0.961 . S
H5151 C5135 0.961 . S
H5152 C5136 0.931 . S
H5153 C5141 0.930 . S
H5154 C5142 0.956 . S
H5155 C5142 0.961 . S
H5156 C5142 0.961 . S
H5157 C5143 0.958 . S
H5158 C5143 0.961 . S
H5159 C5143 0.960 . S
C5160 C5161 1.391 . S
C5160 C5162 1.394 . S
C5160 H5176 0.931 . S
C5161 C5160 1.391 . S
C5161 C5165 1.376 . S
C5162 C5160 1.394 . S
C5162 C5163 1.369 . S
C5162 C5166 1.531 . S
C5163 C5162 1.369 . S
C5163 C5164 1.410 . S
C5163 C5171 1.503 . S
C5164 C5163 1.410 . S
C5164 C5165 1.392 . S
C5164 C5167 1.511 . S
C5165 C5161 1.376 . S
C5165 C5164 1.392 . S
C5165 H5177 0.929 . S
C5166 C5162 1.531 . S
C5166 H5178 0.960 . S
C5166 H5179 0.962 . S
C5166 H5180 0.960 . S
C5167 C5164 1.511 . S
C5167 H5181 0.961 . S
C5167 H5182 0.961 . S
C5167 H5183 0.961 . S
C5168 C5169 1.370 . S
C5168 C5170 1.363 . S
C5168 H5184 0.931 . S
C5169 C5168 1.370 . S
C5169 C5173 1.408 . S
C5170 C5168 1.363 . S
C5170 C5171 1.370 . S
C5170 C5174 1.524 . S
C5171 C5163 1.503 . S
C5171 C5170 1.370 . S
C5171 C5172 1.403 . S
C5172 C5171 1.403 . S
C5172 C5173 1.404 . S
C5172 C5175 1.539 . S
C5173 C5169 1.408 . S
C5173 C5172 1.404 . S
C5173 H5185 0.930 . S
C5174 C5170 1.524 . S
C5174 H5186 0.956 . S
C5174 H5187 0.961 . S
C5174 H5188 0.961 . S
C5175 C5172 1.539 . S
C5175 H5189 0.958 . S
C5175 H5190 0.961 . S
C5175 H5191 0.960 . S
H5176 C5160 0.931 . S
H5177 C5165 0.929 . S
H5178 C5166 0.960 . S
H5179 C5166 0.962 . S
H5180 C5166 0.960 . S
H5181 C5167 0.961 . S
H5182 C5167 0.961 . S
H5183 C5167 0.961 . S
H5184 C5168 0.931 . S
H5185 C5173 0.930 . S
H5186 C5174 0.956 . S
H5187 C5174 0.961 . S
H5188 C5174 0.961 . S
H5189 C5175 0.958 . S
H5190 C5175 0.961 . S
H5191 C5175 0.960 . S
C5192 C5193 1.391 . S
C5192 C5194 1.394 . S
C5192 H5208 0.931 . S
C5193 C5192 1.391 . S
C5193 C5197 1.376 . S
C5194 C5192 1.394 . S
C5194 C5195 1.369 . S
C5194 C5198 1.531 . S
C5195 C5194 1.369 . S
C5195 C5196 1.410 . S
C5195 C5203 1.503 . S
C5196 C5195 1.410 . S
C5196 C5197 1.392 . S
C5196 C5199 1.511 . S
C5197 C5193 1.376 . S
C5197 C5196 1.392 . S
C5197 H5209 0.929 . S
C5198 C5194 1.531 . S
C5198 H5210 0.960 . S
C5198 H5211 0.962 . S
C5198 H5212 0.960 . S
C5199 C5196 1.511 . S
C5199 H5213 0.961 . S
C5199 H5214 0.961 . S
C5199 H5215 0.961 . S
C5200 C5201 1.370 . S
C5200 C5202 1.363 . S
C5200 H5216 0.931 . S
C5201 C5200 1.370 . S
C5201 C5205 1.408 . S
C5202 C5200 1.363 . S
C5202 C5203 1.370 . S
C5202 C5206 1.524 . S
C5203 C5195 1.503 . S
C5203 C5202 1.370 . S
C5203 C5204 1.403 . S
C5204 C5203 1.403 . S
C5204 C5205 1.404 . S
C5204 C5207 1.539 . S
C5205 C5201 1.408 . S
C5205 C5204 1.404 . S
C5205 H5217 0.930 . S
C5206 C5202 1.524 . S
C5206 H5218 0.956 . S
C5206 H5219 0.961 . S
C5206 H5220 0.961 . S
C5207 C5204 1.539 . S
C5207 H5221 0.958 . S
C5207 H5222 0.961 . S
C5207 H5223 0.960 . S
H5208 C5192 0.931 . S
H5209 C5197 0.929 . S
H5210 C5198 0.960 . S
H5211 C5198 0.962 . S
H5212 C5198 0.960 . S
H5213 C5199 0.961 . S
H5214 C5199 0.961 . S
H5215 C5199 0.961 . S
H5216 C5200 0.931 . S
H5217 C5205 0.930 . S
H5218 C5206 0.956 . S
H5219 C5206 0.961 . S
H5220 C5206 0.961 . S
H5221 C5207 0.958 . S
H5222 C5207 0.961 . S
H5223 C5207 0.960 . S
C5224 C5225 1.391 . S
C5224 C5226 1.394 . S
C5224 H5240 0.931 . S
C5225 C5224 1.391 . S
C5225 C5229 1.376 . S
C5226 C5224 1.394 . S
C5226 C5227 1.369 . S
C5226 C5230 1.531 . S
C5227 C5226 1.369 . S
C5227 C5228 1.410 . S
C5227 C5235 1.503 . S
C5228 C5227 1.410 . S
C5228 C5229 1.392 . S
C5228 C5231 1.511 . S
C5229 C5225 1.376 . S
C5229 C5228 1.392 . S
C5229 H5241 0.929 . S
C5230 C5226 1.531 . S
C5230 H5242 0.960 . S
C5230 H5243 0.962 . S
C5230 H5244 0.960 . S
C5231 C5228 1.511 . S
C5231 H5245 0.961 . S
C5231 H5246 0.961 . S
C5231 H5247 0.961 . S
C5232 C5233 1.370 . S
C5232 C5234 1.363 . S
C5232 H5248 0.931 . S
C5233 C5232 1.370 . S
C5233 C5237 1.408 . S
C5234 C5232 1.363 . S
C5234 C5235 1.370 . S
C5234 C5238 1.524 . S
C5235 C5227 1.503 . S
C5235 C5234 1.370 . S
C5235 C5236 1.403 . S
C5236 C5235 1.403 . S
C5236 C5237 1.404 . S
C5236 C5239 1.539 . S
C5237 C5233 1.408 . S
C5237 C5236 1.404 . S
C5237 H5249 0.930 . S
C5238 C5234 1.524 . S
C5238 H5250 0.956 . S
C5238 H5251 0.961 . S
C5238 H5252 0.961 . S
C5239 C5236 1.539 . S
C5239 H5253 0.958 . S
C5239 H5254 0.961 . S
C5239 H5255 0.960 . S
H5240 C5224 0.931 . S
H5241 C5229 0.929 . S
H5242 C5230 0.960 . S
H5243 C5230 0.962 . S
H5244 C5230 0.960 . S
H5245 C5231 0.961 . S
H5246 C5231 0.961 . S
H5247 C5231 0.961 . S
H5248 C5232 0.931 . S
H5249 C5237 0.930 . S
H5250 C5238 0.956 . S
H5251 C5238 0.961 . S
H5252 C5238 0.961 . S
H5253 C5239 0.958 . S
H5254 C5239 0.961 . S
H5255 C5239 0.960 . S
C5256 C5257 1.391 . S
C5256 C5258 1.394 . S
C5256 H5272 0.931 . S
C5257 C5256 1.391 . S
C5257 C5261 1.376 . S
C5258 C5256 1.394 . S
C5258 C5259 1.369 . S
C5258 C5262 1.531 . S
C5259 C5258 1.369 . S
C5259 C5260 1.410 . S
C5259 C5267 1.503 . S
C5260 C5259 1.410 . S
C5260 C5261 1.392 . S
C5260 C5263 1.511 . S
C5261 C5257 1.376 . S
C5261 C5260 1.392 . S
C5261 H5273 0.929 . S
C5262 C5258 1.531 . S
C5262 H5274 0.960 . S
C5262 H5275 0.962 . S
C5262 H5276 0.960 . S
C5263 C5260 1.511 . S
C5263 H5277 0.961 . S
C5263 H5278 0.961 . S
C5263 H5279 0.961 . S
C5264 C5265 1.370 . S
C5264 C5266 1.363 . S
C5264 H5280 0.931 . S
C5265 C5264 1.370 . S
C5265 C5269 1.408 . S
C5266 C5264 1.363 . S
C5266 C5267 1.370 . S
C5266 C5270 1.524 . S
C5267 C5259 1.503 . S
C5267 C5266 1.370 . S
C5267 C5268 1.403 . S
C5268 C5267 1.403 . S
C5268 C5269 1.404 . S
C5268 C5271 1.539 . S
C5269 C5265 1.408 . S
C5269 C5268 1.404 . S
C5269 H5281 0.930 . S
C5270 C5266 1.524 . S
C5270 H5282 0.956 . S
C5270 H5283 0.961 . S
C5270 H5284 0.961 . S
C5271 C5268 1.539 . S
C5271 H5285 0.958 . S
C5271 H5286 0.961 . S
C5271 H5287 0.960 . S
H5272 C5256 0.931 . S
H5273 C5261 0.929 . S
H5274 C5262 0.960 . S
H5275 C5262 0.962 . S
H5276 C5262 0.960 . S
H5277 C5263 0.961 . S
H5278 C5263 0.961 . S
H5279 C5263 0.961 . S
H5280 C5264 0.931 . S
H5281 C5269 0.930 . S
H5282 C5270 0.956 . S
H5283 C5270 0.961 . S
H5284 C5270 0.961 . S
H5285 C5271 0.958 . S
H5286 C5271 0.961 . S
H5287 C5271 0.960 . S
C5288 C5289 1.391 . S
C5288 C5290 1.394 . S
C5288 H5304 0.931 . S
C5289 C5288 1.391 . S
C5289 C5293 1.376 . S
C5290 C5288 1.394 . S
C5290 C5291 1.369 . S
C5290 C5294 1.531 . S
C5291 C5290 1.369 . S
C5291 C5292 1.410 . S
C5291 C5299 1.503 . S
C5292 C5291 1.410 . S
C5292 C5293 1.392 . S
C5292 C5295 1.511 . S
C5293 C5289 1.376 . S
C5293 C5292 1.392 . S
C5293 H5305 0.929 . S
C5294 C5290 1.531 . S
C5294 H5306 0.960 . S
C5294 H5307 0.962 . S
C5294 H5308 0.960 . S
C5295 C5292 1.511 . S
C5295 H5309 0.961 . S
C5295 H5310 0.961 . S
C5295 H5311 0.961 . S
C5296 C5297 1.370 . S
C5296 C5298 1.363 . S
C5296 H5312 0.931 . S
C5297 C5296 1.370 . S
C5297 C5301 1.408 . S
C5298 C5296 1.363 . S
C5298 C5299 1.370 . S
C5298 C5302 1.524 . S
C5299 C5291 1.503 . S
C5299 C5298 1.370 . S
C5299 C5300 1.403 . S
C5300 C5299 1.403 . S
C5300 C5301 1.404 . S
C5300 C5303 1.539 . S
C5301 C5297 1.408 . S
C5301 C5300 1.404 . S
C5301 H5313 0.930 . S
C5302 C5298 1.524 . S
C5302 H5314 0.956 . S
C5302 H5315 0.961 . S
C5302 H5316 0.961 . S
C5303 C5300 1.539 . S
C5303 H5317 0.958 . S
C5303 H5318 0.961 . S
C5303 H5319 0.960 . S
H5304 C5288 0.931 . S
H5305 C5293 0.929 . S
H5306 C5294 0.960 . S
H5307 C5294 0.962 . S
H5308 C5294 0.960 . S
H5309 C5295 0.961 . S
H5310 C5295 0.961 . S
H5311 C5295 0.961 . S
H5312 C5296 0.931 . S
H5313 C5301 0.930 . S
H5314 C5302 0.956 . S
H5315 C5302 0.961 . S
H5316 C5302 0.961 . S
H5317 C5303 0.958 . S
H5318 C5303 0.961 . S
H5319 C5303 0.960 . S
C5320 C5321 1.391 . S
C5320 C5322 1.394 . S
C5320 H5336 0.931 . S
C5321 C5320 1.391 . S
C5321 C5325 1.376 . S
C5322 C5320 1.394 . S
C5322 C5323 1.369 . S
C5322 C5326 1.531 . S
C5323 C5322 1.369 . S
C5323 C5324 1.410 . S
C5323 C5331 1.503 . S
C5324 C5323 1.410 . S
C5324 C5325 1.392 . S
C5324 C5327 1.511 . S
C5325 C5321 1.376 . S
C5325 C5324 1.392 . S
C5325 H5337 0.929 . S
C5326 C5322 1.531 . S
C5326 H5338 0.960 . S
C5326 H5339 0.962 . S
C5326 H5340 0.960 . S
C5327 C5324 1.511 . S
C5327 H5341 0.961 . S
C5327 H5342 0.961 . S
C5327 H5343 0.961 . S
C5328 C5329 1.370 . S
C5328 C5330 1.363 . S
C5328 H5344 0.931 . S
C5329 C5328 1.370 . S
C5329 C5333 1.408 . S
C5330 C5328 1.363 . S
C5330 C5331 1.370 . S
C5330 C5334 1.524 . S
C5331 C5323 1.503 . S
C5331 C5330 1.370 . S
C5331 C5332 1.403 . S
C5332 C5331 1.403 . S
C5332 C5333 1.404 . S
C5332 C5335 1.539 . S
C5333 C5329 1.408 . S
C5333 C5332 1.404 . S
C5333 H5345 0.930 . S
C5334 C5330 1.524 . S
C5334 H5346 0.956 . S
C5334 H5347 0.961 . S
C5334 H5348 0.961 . S
C5335 C5332 1.539 . S
C5335 H5349 0.958 . S
C5335 H5350 0.961 . S
C5335 H5351 0.960 . S
H5336 C5320 0.931 . S
H5337 C5325 0.929 . S
H5338 C5326 0.960 . S
H5339 C5326 0.962 . S
H5340 C5326 0.960 . S
H5341 C5327 0.961 . S
H5342 C5327 0.961 . S
H5343 C5327 0.961 . S
H5344 C5328 0.931 . S
H5345 C5333 0.930 . S
H5346 C5334 0.956 . S
H5347 C5334 0.961 . S
H5348 C5334 0.961 . S
H5349 C5335 0.958 . S
H5350 C5335 0.961 . S
H5351 C5335 0.960 . S
C5352 C5353 1.391 . S
C5352 C5354 1.394 . S
C5352 H5368 0.931 . S
C5353 C5352 1.391 . S
C5353 C5357 1.376 . S
C5354 C5352 1.394 . S
C5354 C5355 1.369 . S
C5354 C5358 1.531 . S
C5355 C5354 1.369 . S
C5355 C5356 1.410 . S
C5355 C5363 1.503 . S
C5356 C5355 1.410 . S
C5356 C5357 1.392 . S
C5356 C5359 1.511 . S
C5357 C5353 1.376 . S
C5357 C5356 1.392 . S
C5357 H5369 0.929 . S
C5358 C5354 1.531 . S
C5358 H5370 0.960 . S
C5358 H5371 0.962 . S
C5358 H5372 0.960 . S
C5359 C5356 1.511 . S
C5359 H5373 0.961 . S
C5359 H5374 0.961 . S
C5359 H5375 0.961 . S
C5360 C5361 1.370 . S
C5360 C5362 1.363 . S
C5360 H5376 0.931 . S
C5361 C5360 1.370 . S
C5361 C5365 1.408 . S
C5362 C5360 1.363 . S
C5362 C5363 1.370 . S
C5362 C5366 1.524 . S
C5363 C5355 1.503 . S
C5363 C5362 1.370 . S
C5363 C5364 1.403 . S
C5364 C5363 1.403 . S
C5364 C5365 1.404 . S
C5364 C5367 1.539 . S
C5365 C5361 1.408 . S
C5365 C5364 1.404 . S
C5365 H5377 0.930 . S
C5366 C5362 1.524 . S
C5366 H5378 0.956 . S
C5366 H5379 0.961 . S
C5366 H5380 0.961 . S
C5367 C5364 1.539 . S
C5367 H5381 0.958 . S
C5367 H5382 0.961 . S
C5367 H5383 0.960 . S
H5368 C5352 0.931 . S
H5369 C5357 0.929 . S
H5370 C5358 0.960 . S
H5371 C5358 0.962 . S
H5372 C5358 0.960 . S
H5373 C5359 0.961 . S
H5374 C5359 0.961 . S
H5375 C5359 0.961 . S
H5376 C5360 0.931 . S
H5377 C5365 0.930 . S
H5378 C5366 0.956 . S
H5379 C5366 0.961 . S
H5380 C5366 0.961 . S
H5381 C5367 0.958 . S
H5382 C5367 0.961 . S
H5383 C5367 0.960 . S
C5384 C5385 1.391 . S
C5384 C5386 1.394 . S
C5384 H5400 0.931 . S
C5385 C5384 1.391 . S
C5385 C5389 1.376 . S
C5386 C5384 1.394 . S
C5386 C5387 1.369 . S
C5386 C5390 1.531 . S
C5387 C5386 1.369 . S
C5387 C5388 1.410 . S
C5387 C5395 1.503 . S
C5388 C5387 1.410 . S
C5388 C5389 1.392 . S
C5388 C5391 1.511 . S
C5389 C5385 1.376 . S
C5389 C5388 1.392 . S
C5389 H5401 0.929 . S
C5390 C5386 1.531 . S
C5390 H5402 0.960 . S
C5390 H5403 0.962 . S
C5390 H5404 0.960 . S
C5391 C5388 1.511 . S
C5391 H5405 0.961 . S
C5391 H5406 0.961 . S
C5391 H5407 0.961 . S
C5392 C5393 1.370 . S
C5392 C5394 1.363 . S
C5392 H5408 0.931 . S
C5393 C5392 1.370 . S
C5393 C5397 1.408 . S
C5394 C5392 1.363 . S
C5394 C5395 1.370 . S
C5394 C5398 1.524 . S
C5395 C5387 1.503 . S
C5395 C5394 1.370 . S
C5395 C5396 1.403 . S
C5396 C5395 1.403 . S
C5396 C5397 1.404 . S
C5396 C5399 1.539 . S
C5397 C5393 1.408 . S
C5397 C5396 1.404 . S
C5397 H5409 0.930 . S
C5398 C5394 1.524 . S
C5398 H5410 0.956 . S
C5398 H5411 0.961 . S
C5398 H5412 0.961 . S
C5399 C5396 1.539 . S
C5399 H5413 0.958 . S
C5399 H5414 0.961 . S
C5399 H5415 0.960 . S
H5400 C5384 0.931 . S
H5401 C5389 0.929 . S
H5402 C5390 0.960 . S
H5403 C5390 0.962 . S
H5404 C5390 0.960 . S
H5405 C5391 0.961 . S
H5406 C5391 0.961 . S
H5407 C5391 0.961 . S
H5408 C5392 0.931 . S
H5409 C5397 0.930 . S
H5410 C5398 0.956 . S
H5411 C5398 0.961 . S
H5412 C5398 0.961 . S
H5413 C5399 0.958 . S
H5414 C5399 0.961 . S
H5415 C5399 0.960 . S
C5416 C5417 1.391 . S
C5416 C5418 1.394 . S
C5416 H5432 0.931 . S
C5417 C5416 1.391 . S
C5417 C5421 1.376 . S
C5418 C5416 1.394 . S
C5418 C5419 1.369 . S
C5418 C5422 1.531 . S
C5419 C5418 1.369 . S
C5419 C5420 1.410 . S
C5419 C5427 1.503 . S
C5420 C5419 1.410 . S
C5420 C5421 1.392 . S
C5420 C5423 1.511 . S
C5421 C5417 1.376 . S
C5421 C5420 1.392 . S
C5421 H5433 0.929 . S
C5422 C5418 1.531 . S
C5422 H5434 0.960 . S
C5422 H5435 0.962 . S
C5422 H5436 0.960 . S
C5423 C5420 1.511 . S
C5423 H5437 0.961 . S
C5423 H5438 0.961 . S
C5423 H5439 0.961 . S
C5424 C5425 1.370 . S
C5424 C5426 1.363 . S
C5424 H5440 0.931 . S
C5425 C5424 1.370 . S
C5425 C5429 1.408 . S
C5426 C5424 1.363 . S
C5426 C5427 1.370 . S
C5426 C5430 1.524 . S
C5427 C5419 1.503 . S
C5427 C5426 1.370 . S
C5427 C5428 1.403 . S
C5428 C5427 1.403 . S
C5428 C5429 1.404 . S
C5428 C5431 1.539 . S
C5429 C5425 1.408 . S
C5429 C5428 1.404 . S
C5429 H5441 0.930 . S
C5430 C5426 1.524 . S
C5430 H5442 0.956 . S
C5430 H5443 0.961 . S
C5430 H5444 0.961 . S
C5431 C5428 1.539 . S
C5431 H5445 0.958 . S
C5431 H5446 0.961 . S
C5431 H5447 0.960 . S
H5432 C5416 0.931 . S
H5433 C5421 0.929 . S
H5434 C5422 0.960 . S
H5435 C5422 0.962 . S
H5436 C5422 0.960 . S
H5437 C5423 0.961 . S
H5438 C5423 0.961 . S
H5439 C5423 0.961 . S
H5440 C5424 0.931 . S
H5441 C5429 0.930 . S
H5442 C5430 0.956 . S
H5443 C5430 0.961 . S
H5444 C5430 0.961 . S
H5445 C5431 0.958 . S
H5446 C5431 0.961 . S
H5447 C5431 0.960 . S
C5448 C5449 1.391 . S
C5448 C5450 1.394 . S
C5448 H5464 0.931 . S
C5449 C5448 1.391 . S
C5449 C5453 1.376 . S
C5450 C5448 1.394 . S
C5450 C5451 1.369 . S
C5450 C5454 1.531 . S
C5451 C5450 1.369 . S
C5451 C5452 1.410 . S
C5451 C5459 1.503 . S
C5452 C5451 1.410 . S
C5452 C5453 1.392 . S
C5452 C5455 1.511 . S
C5453 C5449 1.376 . S
C5453 C5452 1.392 . S
C5453 H5465 0.929 . S
C5454 C5450 1.531 . S
C5454 H5466 0.960 . S
C5454 H5467 0.962 . S
C5454 H5468 0.960 . S
C5455 C5452 1.511 . S
C5455 H5469 0.961 . S
C5455 H5470 0.961 . S
C5455 H5471 0.961 . S
C5456 C5457 1.370 . S
C5456 C5458 1.363 . S
C5456 H5472 0.931 . S
C5457 C5456 1.370 . S
C5457 C5461 1.408 . S
C5458 C5456 1.363 . S
C5458 C5459 1.370 . S
C5458 C5462 1.524 . S
C5459 C5451 1.503 . S
C5459 C5458 1.370 . S
C5459 C5460 1.403 . S
C5460 C5459 1.403 . S
C5460 C5461 1.404 . S
C5460 C5463 1.539 . S
C5461 C5457 1.408 . S
C5461 C5460 1.404 . S
C5461 H5473 0.930 . S
C5462 C5458 1.524 . S
C5462 H5474 0.956 . S
C5462 H5475 0.961 . S
C5462 H5476 0.961 . S
C5463 C5460 1.539 . S
C5463 H5477 0.958 . S
C5463 H5478 0.961 . S
C5463 H5479 0.960 . S
H5464 C5448 0.931 . S
H5465 C5453 0.929 . S
H5466 C5454 0.960 . S
H5467 C5454 0.962 . S
H5468 C5454 0.960 . S
H5469 C5455 0.961 . S
H5470 C5455 0.961 . S
H5471 C5455 0.961 . S
H5472 C5456 0.931 . S
H5473 C5461 0.930 . S
H5474 C5462 0.956 . S
H5475 C5462 0.961 . S
H5476 C5462 0.961 . S
H5477 C5463 0.958 . S
H5478 C5463 0.961 . S
H5479 C5463 0.960 . S
C5480 C5481 1.391 . S
C5480 C5482 1.394 . S
C5480 H5496 0.931 . S
C5481 C5480 1.391 . S
C5481 C5485 1.376 . S
C5482 C5480 1.394 . S
C5482 C5483 1.369 . S
C5482 C5486 1.531 . S
C5483 C5482 1.369 . S
C5483 C5484 1.410 . S
C5483 C5491 1.503 . S
C5484 C5483 1.410 . S
C5484 C5485 1.392 . S
C5484 C5487 1.511 . S
C5485 C5481 1.376 . S
C5485 C5484 1.392 . S
C5485 H5497 0.929 . S
C5486 C5482 1.531 . S
C5486 H5498 0.960 . S
C5486 H5499 0.962 . S
C5486 H5500 0.960 . S
C5487 C5484 1.511 . S
C5487 H5501 0.961 . S
C5487 H5502 0.961 . S
C5487 H5503 0.961 . S
C5488 C5489 1.370 . S
C5488 C5490 1.363 . S
C5488 H5504 0.931 . S
C5489 C5488 1.370 . S
C5489 C5493 1.408 . S
C5490 C5488 1.363 . S
C5490 C5491 1.370 . S
C5490 C5494 1.524 . S
C5491 C5483 1.503 . S
C5491 C5490 1.370 . S
C5491 C5492 1.403 . S
C5492 C5491 1.403 . S
C5492 C5493 1.404 . S
C5492 C5495 1.539 . S
C5493 C5489 1.408 . S
C5493 C5492 1.404 . S
C5493 H5505 0.930 . S
C5494 C5490 1.524 . S
C5494 H5506 0.956 . S
C5494 H5507 0.961 . S
C5494 H5508 0.961 . S
C5495 C5492 1.539 . S
C5495 H5509 0.958 . S
C5495 H5510 0.961 . S
C5495 H5511 0.960 . S
H5496 C5480 0.931 . S
H5497 C5485 0.929 . S
H5498 C5486 0.960 . S
H5499 C5486 0.962 . S
H5500 C5486 0.960 . S
H5501 C5487 0.961 . S
H5502 C5487 0.961 . S
H5503 C5487 0.961 . S
H5504 C5488 0.931 . S
H5505 C5493 0.930 . S
H5506 C5494 0.956 . S
H5507 C5494 0.961 . S
H5508 C5494 0.961 . S
H5509 C5495 0.958 . S
H5510 C5495 0.961 . S
H5511 C5495 0.960 . S
C5512 C5513 1.391 . S
C5512 C5514 1.394 . S
C5512 H5528 0.931 . S
C5513 C5512 1.391 . S
C5513 C5517 1.376 . S
C5514 C5512 1.394 . S
C5514 C5515 1.369 . S
C5514 C5518 1.531 . S
C5515 C5514 1.369 . S
C5515 C5516 1.410 . S
C5515 C5523 1.503 . S
C5516 C5515 1.410 . S
C5516 C5517 1.392 . S
C5516 C5519 1.511 . S
C5517 C5513 1.376 . S
C5517 C5516 1.392 . S
C5517 H5529 0.929 . S
C5518 C5514 1.531 . S
C5518 H5530 0.960 . S
C5518 H5531 0.962 . S
C5518 H5532 0.960 . S
C5519 C5516 1.511 . S
C5519 H5533 0.961 . S
C5519 H5534 0.961 . S
C5519 H5535 0.961 . S
C5520 C5521 1.370 . S
C5520 C5522 1.363 . S
C5520 H5536 0.931 . S
C5521 C5520 1.370 . S
C5521 C5525 1.408 . S
C5522 C5520 1.363 . S
C5522 C5523 1.370 . S
C5522 C5526 1.524 . S
C5523 C5515 1.503 . S
C5523 C5522 1.370 . S
C5523 C5524 1.403 . S
C5524 C5523 1.403 . S
C5524 C5525 1.404 . S
C5524 C5527 1.539 . S
C5525 C5521 1.408 . S
C5525 C5524 1.404 . S
C5525 H5537 0.930 . S
C5526 C5522 1.524 . S
C5526 H5538 0.956 . S
C5526 H5539 0.961 . S
C5526 H5540 0.961 . S
C5527 C5524 1.539 . S
C5527 H5541 0.958 . S
C5527 H5542 0.961 . S
C5527 H5543 0.960 . S
H5528 C5512 0.931 . S
H5529 C5517 0.929 . S
H5530 C5518 0.960 . S
H5531 C5518 0.962 . S
H5532 C5518 0.960 . S
H5533 C5519 0.961 . S
H5534 C5519 0.961 . S
H5535 C5519 0.961 . S
H5536 C5520 0.931 . S
H5537 C5525 0.930 . S
H5538 C5526 0.956 . S
H5539 C5526 0.961 . S
H5540 C5526 0.961 . S
H5541 C5527 0.958 . S
H5542 C5527 0.961 . S
H5543 C5527 0.960 . S
C2481 N1932 1.442 . S
C2473 C1 1.462 . S
C2513 C1959 1.594 . S
C2505 C80 1.587 . S
C2537 C140 1.482 . S
C2545 C1973 1.499 . S
C2577 N1991 1.448 . S
C2569 C211 1.448 . S
C2601 C241 1.572 . S
C2609 C1996 1.575 . S
C2633 C320 1.501 . S
C2641 C1936 1.494 . S
C2665 C391 1.392 . S
C2673 N1955 1.382 . S
C2705 N1968 1.435 . S
C2697 C421 1.484 . S
C2737 N2014 1.410 . S
C2729 C31 1.430 . S
C2761 C61 1.488 . S
C2769 N2037 1.495 . S
C2793 C121 1.545 . S
C2801 N2060 1.546 . S
C2833 N2093 1.409 . S
C2825 C181 1.448 . S
C2857 C260 1.536 . S
C2865 C2120 1.531 . S
C2897 C2143 1.561 . S
C2889 C331 1.542 . S
C2921 C380 1.445 . S
C2929 C2166 1.493 . S
C2961 C2180 1.436 . S
C2953 C440 1.401 . S
C2985 C20 1.420 . S
C2993 C2097 1.425 . S
C3017 C271 1.477 . S
C3025 N2139 1.464 . S
C3057 N2162 1.448 . S
C3049 C301 1.461 . S
C3081 C361 1.440 . S
C3089 N2175 1.436 . S
C3121 N2116 1.422 . S
C3113 C451 1.422 . S
C3153 C2042 1.658 . S
C3145 C151 1.649 . S
C3177 C200 1.511 . S
C3185 C2065 1.508 . S
C3217 C2019 1.592 . S
C3209 C91 1.543 . S
C3249 C2212 1.451 . S
C3241 C500 1.402 . S
C3273 C560 1.603 . S
C3281 C2226 1.609 . S
C3305 C620 1.471 . S
C3313 N2254 1.449 . S
C3345 N2267 1.430 . S
C3337 C691 1.472 . S
C3369 C721 1.552 . S
C3377 C2272 1.591 . S
C3401 C811 1.460 . S
C3409 N2208 1.443 . S
C3433 C871 1.472 . S
C3441 N2221 1.486 . S
C3465 C901 1.435 . S
C3473 C2258 1.432 . S
C3505 N2106 1.412 . S
C3497 C511 1.404 . S
C3529 C541 1.493 . S
C3537 N2290 1.480 . S
C3569 N2152 1.452 . S
C3561 C601 1.468 . S
C3593 C661 1.490 . S
C3601 C2327 1.512 . S
C3625 C740 1.536 . S
C3633 C2028 1.578 . S
C3665 C2341 1.590 . S
C3657 C781 1.559 . S
C3689 C860 1.506 . S
C3697 C2074 1.536 . S
C3729 N2359 1.406 . S
C3721 C920 1.378 . S
C3753 C481 1.415 . S
C3761 N2323 1.427 . S
C3793 N2336 1.499 . S
C3785 C751 1.483 . S
C3817 C800 1.458 . S
C3825 N2070 1.432 . S
C3857 C2364 1.440 . S
C3849 C841 1.397 . S
C3881 C931 1.427 . S
C3889 N2024 1.387 . S
C3913 C631 1.518 . S
C3921 C2295 1.564 . S
C3945 C680 1.524 . S
C3953 C2157 1.555 . S
C3977 C571 1.541 . S
C3985 C2111 1.598 . S
C4009 C961 1.496 . S
C4017 C2249 1.516 . S
C4049 C2281 1.545 . S
C4041 C1040 1.540 . S
C4073 C1100 1.438 . S
C4081 N2198 1.426 . S
C4105 C1171 1.454 . S
C4113 N2231 1.426 . S
C4137 C1201 1.552 . S
C4145 C2235 1.587 . S
C4169 C1291 1.523 . S
C4177 N2244 1.521 . S
C4209 N2277 1.360 . S
C4201 C1351 1.400 . S
C4233 C1381 1.454 . S
C4241 C2203 1.490 . S
C4273 N2392 1.430 . S
C4265 C991 1.447 . S
C4297 C1021 1.452 . S
C4305 N2129 1.444 . S
C4337 N2415 1.391 . S
C4329 C1081 1.375 . S
C4361 C1141 1.465 . S
C4369 N2185 1.434 . S
C4393 C1220 1.543 . S
C4401 C2433 1.554 . S
C4425 C1261 1.611 . S
C4433 C2051 1.651 . S
C4465 N2451 1.377 . S
C4457 C1340 1.386 . S
C4489 C1400 1.448 . S
C4497 C2088 1.488 . S
C4529 C2189 1.483 . S
C4521 C980 1.423 . S
C4561 N2047 1.481 . S
C4553 C1231 1.523 . S
C4585 C1280 1.558 . S
C4593 C2456 1.569 . S
C4617 C1321 1.363 . S
C4625 N2083 1.349 . S
C4657 N2428 1.453 . S
C4649 C1411 1.490 . S
C4689 C2134 1.558 . S
C4681 C1111 1.546 . S
C4721 C2419 1.554 . S
C4713 C1160 1.555 . S
C4753 C2396 1.560 . S
C4745 C1051 1.528 . S
C4777 C1460 1.356 . S
C4785 N1978 1.368 . S
C4809 C1520 1.539 . S
C4817 C2005 1.559 . S
C4849 C1927 1.536 . S
C4841 C1580 1.507 . S
C4881 N1945 1.383 . S
C4873 C1651 1.422 . S
C4913 C1950 1.588 . S
C4905 C1681 1.552 . S
C4945 C1982 1.497 . S
C4937 C1760 1.497 . S
C4977 N2001 1.477 . S
C4969 C1831 1.501 . S
C5001 C1861 1.488 . S
C5009 N1922 1.468 . S
C5033 C1471 1.360 . S
C5041 N2438 1.350 . S
C5073 N2346 1.454 . S
C5065 C1501 1.463 . S
C5105 C2465 1.583 . S
C5097 C1561 1.566 . S
C5137 C2373 1.382 . S
C5129 C1621 1.386 . S
C5161 C1700 1.560 . S
C5169 C2387 1.581 . S
C5201 C2304 1.572 . S
C5193 C1771 1.559 . S
C5233 C2410 1.636 . S
C5225 C1820 1.627 . S
C5257 C1880 1.439 . S
C5265 N2313 1.441 . S
C5297 N2369 1.362 . S
C5289 C1441 1.349 . S
C5329 N2300 1.474 . S
C5321 C1711 1.464 . S
C5361 N2405 1.390 . S
C5353 C1741 1.423 . S
C5385 C1801 1.486 . S
C5393 C2318 1.512 . S
C5417 C1891 1.415 . S
C5425 N2382 1.400 . S
C5449 C1591 1.617 . S
C5457 C2350 1.651 . S
C5481 C1640 1.405 . S
C5489 N2461 1.395 . S
C5521 C2442 1.544 . S
C5513 C1531 1.533 . S
