# Generated by pormake.
# Topology eea, (3,6)-cn, num edge types: 1
# Building blocks:
#     Node 0, Type 0, BuildingBlock: BELTOD_clean_linker_0, # of connection points: 3
#     Node 1, Type 0, BuildingBlock: BELTOD_clean_linker_0, # of connection points: 3
#     Node 2, Type 0, BuildingBlock: BELTOD_clean_linker_0, # of connection points: 3
#     Node 3, Type 0, BuildingBlock: BELTOD_clean_linker_0, # of connection points: 3
#     Node 4, Type 0, BuildingBlock: BELTOD_clean_linker_0, # of connection points: 3
#     Node 5, Type 0, BuildingBlock: BELTOD_clean_linker_0, # of connection points: 3
#     Node 6, Type 0, BuildingBlock: BELTOD_clean_linker_0, # of connection points: 3
#     Node 7, Type 0, BuildingBlock: BELTOD_clean_linker_0, # of connection points: 3
#     Node 8, Type 0, BuildingBlock: BELTOD_clean_linker_0, # of connection points: 3
#     Node 9, Type 0, BuildingBlock: BELTOD_clean_linker_0, # of connection points: 3
#     Node 10, Type 0, BuildingBlock: BELTOD_clean_linker_0, # of connection points: 3
#     Node 11, Type 0, BuildingBlock: BELTOD_clean_linker_0, # of connection points: 3
#     Node 12, Type 0, BuildingBlock: BELTOD_clean_linker_0, # of connection points: 3
#     Node 13, Type 0, BuildingBlock: BELTOD_clean_linker_0, # of connection points: 3
#     Node 14, Type 0, BuildingBlock: BELTOD_clean_linker_0, # of connection points: 3
#     Node 15, Type 0, BuildingBlock: BELTOD_clean_linker_0, # of connection points: 3
#     Node 16, Type 0, BuildingBlock: BELTOD_clean_linker_0, # of connection points: 3
#     Node 17, Type 0, BuildingBlock: BELTOD_clean_linker_0, # of connection points: 3
#     Node 18, Type 1, BuildingBlock: KUMBOL_clean_sbu_0, # of connection points: 6
#     Node 19, Type 1, BuildingBlock: KUMBOL_clean_sbu_0, # of connection points: 6
#     Node 20, Type 1, BuildingBlock: KUMBOL_clean_sbu_0, # of connection points: 6
#     Node 21, Type 1, BuildingBlock: KUMBOL_clean_sbu_0, # of connection points: 6
#     Node 22, Type 1, BuildingBlock: KUMBOL_clean_sbu_0, # of connection points: 6
#     Node 23, Type 1, BuildingBlock: KUMBOL_clean_sbu_0, # of connection points: 6
#     Node 24, Type 1, BuildingBlock: KUMBOL_clean_sbu_0, # of connection points: 6
#     Node 25, Type 1, BuildingBlock: KUMBOL_clean_sbu_0, # of connection points: 6
#     Node 26, Type 1, BuildingBlock: KUMBOL_clean_sbu_0, # of connection points: 6
#     Edge 27, Type (0, 1), BuildingBlock: CIFDUS_clean_linker_0, # of connection points: 2
#     Edge 28, Type (0, 1), BuildingBlock: CIFDUS_clean_linker_0, # of connection points: 2
#     Edge 29, Type (0, 1), BuildingBlock: CIFDUS_clean_linker_0, # of connection points: 2
#     Edge 30, Type (0, 1), BuildingBlock: CIFDUS_clean_linker_0, # of connection points: 2
#     Edge 31, Type (0, 1), BuildingBlock: CIFDUS_clean_linker_0, # of connection points: 2
#     Edge 32, Type (0, 1), BuildingBlock: CIFDUS_clean_linker_0, # of connection points: 2
#     Edge 33, Type (0, 1), BuildingBlock: CIFDUS_clean_linker_0, # of connection points: 2
#     Edge 34, Type (0, 1), BuildingBlock: CIFDUS_clean_linker_0, # of connection points: 2
#     Edge 35, Type (0, 1), BuildingBlock: CIFDUS_clean_linker_0, # of connection points: 2
#     Edge 36, Type (0, 1), BuildingBlock: CIFDUS_clean_linker_0, # of connection points: 2
#     Edge 37, Type (0, 1), BuildingBlock: CIFDUS_clean_linker_0, # of connection points: 2
#     Edge 38, Type (0, 1), BuildingBlock: CIFDUS_clean_linker_0, # of connection points: 2
#     Edge 39, Type (0, 1), BuildingBlock: CIFDUS_clean_linker_0, # of connection points: 2
#     Edge 40, Type (0, 1), BuildingBlock: CIFDUS_clean_linker_0, # of connection points: 2
#     Edge 41, Type (0, 1), BuildingBlock: CIFDUS_clean_linker_0, # of connection points: 2
#     Edge 42, Type (0, 1), BuildingBlock: CIFDUS_clean_linker_0, # of connection points: 2
#     Edge 43, Type (0, 1), BuildingBlock: CIFDUS_clean_linker_0, # of connection points: 2
#     Edge 44, Type (0, 1), BuildingBlock: CIFDUS_clean_linker_0, # of connection points: 2
#     Edge 45, Type (0, 1), BuildingBlock: CIFDUS_clean_linker_0, # of connection points: 2
#     Edge 46, Type (0, 1), BuildingBlock: CIFDUS_clean_linker_0, # of connection points: 2
#     Edge 47, Type (0, 1), BuildingBlock: CIFDUS_clean_linker_0, # of connection points: 2
#     Edge 48, Type (0, 1), BuildingBlock: CIFDUS_clean_linker_0, # of connection points: 2
#     Edge 49, Type (0, 1), BuildingBlock: CIFDUS_clean_linker_0, # of connection points: 2
#     Edge 50, Type (0, 1), BuildingBlock: CIFDUS_clean_linker_0, # of connection points: 2
#     Edge 51, Type (0, 1), BuildingBlock: CIFDUS_clean_linker_0, # of connection points: 2
#     Edge 52, Type (0, 1), BuildingBlock: CIFDUS_clean_linker_0, # of connection points: 2
#     Edge 53, Type (0, 1), BuildingBlock: CIFDUS_clean_linker_0, # of connection points: 2
#     Edge 54, Type (0, 1), BuildingBlock: CIFDUS_clean_linker_0, # of connection points: 2
#     Edge 55, Type (0, 1), BuildingBlock: CIFDUS_clean_linker_0, # of connection points: 2
#     Edge 56, Type (0, 1), BuildingBlock: CIFDUS_clean_linker_0, # of connection points: 2
#     Edge 57, Type (0, 1), BuildingBlock: CIFDUS_clean_linker_0, # of connection points: 2
#     Edge 58, Type (0, 1), BuildingBlock: CIFDUS_clean_linker_0, # of connection points: 2
#     Edge 59, Type (0, 1), BuildingBlock: CIFDUS_clean_linker_0, # of connection points: 2
#     Edge 60, Type (0, 1), BuildingBlock: CIFDUS_clean_linker_0, # of connection points: 2
#     Edge 61, Type (0, 1), BuildingBlock: CIFDUS_clean_linker_0, # of connection points: 2
#     Edge 62, Type (0, 1), BuildingBlock: CIFDUS_clean_linker_0, # of connection points: 2
#     Edge 63, Type (0, 1), BuildingBlock: CIFDUS_clean_linker_0, # of connection points: 2
#     Edge 64, Type (0, 1), BuildingBlock: CIFDUS_clean_linker_0, # of connection points: 2
#     Edge 65, Type (0, 1), BuildingBlock: CIFDUS_clean_linker_0, # of connection points: 2
#     Edge 66, Type (0, 1), BuildingBlock: CIFDUS_clean_linker_0, # of connection points: 2
#     Edge 67, Type (0, 1), BuildingBlock: CIFDUS_clean_linker_0, # of connection points: 2
#     Edge 68, Type (0, 1), BuildingBlock: CIFDUS_clean_linker_0, # of connection points: 2
#     Edge 69, Type (0, 1), BuildingBlock: CIFDUS_clean_linker_0, # of connection points: 2
#     Edge 70, Type (0, 1), BuildingBlock: CIFDUS_clean_linker_0, # of connection points: 2
#     Edge 71, Type (0, 1), BuildingBlock: CIFDUS_clean_linker_0, # of connection points: 2
#     Edge 72, Type (0, 1), BuildingBlock: CIFDUS_clean_linker_0, # of connection points: 2
#     Edge 73, Type (0, 1), BuildingBlock: CIFDUS_clean_linker_0, # of connection points: 2
#     Edge 74, Type (0, 1), BuildingBlock: CIFDUS_clean_linker_0, # of connection points: 2
#     Edge 75, Type (0, 1), BuildingBlock: CIFDUS_clean_linker_0, # of connection points: 2
#     Edge 76, Type (0, 1), BuildingBlock: CIFDUS_clean_linker_0, # of connection points: 2
#     Edge 77, Type (0, 1), BuildingBlock: CIFDUS_clean_linker_0, # of connection points: 2
#     Edge 78, Type (0, 1), BuildingBlock: CIFDUS_clean_linker_0, # of connection points: 2
#     Edge 79, Type (0, 1), BuildingBlock: CIFDUS_clean_linker_0, # of connection points: 2
#     Edge 80, Type (0, 1), BuildingBlock: CIFDUS_clean_linker_0, # of connection points: 2
# Relax obj value: 0.007
# Max RMSD: 0.084
# Mean RMSD: 0.072
data_MOF--net-eea--node1-KUMBOL_clean_sbu_0--node2-BELTOD_clean_linker_0--edge1-CIFDUS_clean_linker_0
_symmetry_space_group_name_H-M    P1
_symmetry_Int_Tables_number       1
_symmetry_cell_setting            triclinic
loop_
_symmetry_equiv_pos_as_xyz
'x, y, z'
_cell_length_a     52.195543
_cell_length_b     53.145593
_cell_length_c     74.816345
_cell_angle_alpha  90.659138
_cell_angle_beta   90.050544
_cell_angle_gamma 120.11288
loop_
_atom_site_label
_atom_site_type_symbol
_atom_site_fract_x
_atom_site_fract_y
_atom_site_fract_z
_atom_type_partial_charge
P0 P 0.28449 0.14049 0.40815 0.0
H1 H 0.29216 0.11936 0.37392 0.0
H2 H 0.27187 0.07052 0.36095 0.0
H3 H 0.21719 0.0342 0.40753 0.0
H4 H 0.23741 0.08325 0.42038 0.0
H5 H 0.31246 0.20151 0.39898 0.0
H6 H 0.29282 0.23193 0.38878 0.0
H7 H 0.20455 0.15695 0.38754 0.0
H8 H 0.2246 0.12639 0.39751 0.0
H9 H 0.30118 0.11296 0.43545 0.0
H10 H 0.26165 0.16736 0.43357 0.0
O11 O 0.32053 0.15645 0.40352 0.0
H12 H 0.30493 0.11831 0.468 0.0
H13 H 0.26513 0.17256 0.46602 0.0
C14 C 0.26685 0.10473 0.39827 0.0
C15 C 0.27568 0.10088 0.38129 0.0
C16 C 0.26412 0.07303 0.37391 0.0
C17 C 0.24328 0.0486 0.38335 0.0
C18 C 0.23321 0.05268 0.39996 0.0
C19 C 0.24491 0.08063 0.40738 0.0
C20 C 0.27004 0.16167 0.39862 0.0
C21 C 0.28897 0.19149 0.39619 0.0
C22 C 0.27766 0.2089 0.39054 0.0
C23 C 0.24712 0.19683 0.38744 0.0
C24 C 0.22821 0.16677 0.38963 0.0
C25 C 0.23961 0.14932 0.39531 0.0
C26 C 0.28128 0.1398 0.43208 0.0
C27 C 0.29264 0.12544 0.44208 0.0
C28 C 0.29461 0.1284 0.46067 0.0
C29 C 0.28543 0.14598 0.46952 0.0
C30 C 0.27261 0.1591 0.45952 0.0
C31 C 0.27057 0.15605 0.44093 0.0
P32 P 0.91279 0.10664 0.42854 0.0
H33 H 0.9151 0.06459 0.40468 0.0
H34 H 0.87805 0.02476 0.38628 0.0
H35 H 0.813 0.04847 0.40167 0.0
H36 H 0.85023 0.08787 0.42053 0.0
H37 H 0.97713 0.14177 0.42704 0.0
H38 H 0.01076 0.18243 0.40849 0.0
H39 H 0.93613 0.18102 0.38255 0.0
H40 H 0.90222 0.13945 0.40093 0.0
H41 H 0.89783 0.08574 0.46497 0.0
H42 H 0.89203 0.14893 0.43214 0.0
O43 O 0.93269 0.09318 0.43742 0.0
H44 H 0.87753 0.0995 0.4902 0.0
H45 H 0.87172 0.1628 0.45737 0.0
C46 C 0.8852 0.07867 0.41429 0.0
C47 C 0.89283 0.06116 0.40411 0.0
C48 C 0.87164 0.03855 0.39343 0.0
C49 C 0.84239 0.03319 0.39254 0.0
C50 C 0.83514 0.05158 0.4023 0.0
C51 C 0.85642 0.0742 0.41306 0.0
C52 C 0.93718 0.13747 0.41528 0.0
C53 C 0.96788 0.15 0.41733 0.0
C54 C 0.9871 0.17319 0.40668 0.0
C55 C 0.97597 0.18458 0.39398 0.0
C56 C 0.94519 0.17252 0.39222 0.0
C57 C 0.92589 0.14889 0.40271 0.0
C58 C 0.89695 0.11665 0.44674 0.0
C59 C 0.89232 0.10268 0.46319 0.0
C60 C 0.8808 0.1106 0.47763 0.0
C61 C 0.87327 0.13238 0.4758 0.0
C62 C 0.87724 0.14586 0.45915 0.0
C63 C 0.88901 0.13806 0.44474 0.0
P64 P 0.87331 0.74805 0.41059 0.0
H65 H 0.85015 0.74276 0.37476 0.0
H66 H 0.81371 0.75365 0.36185 0.0
H67 H 0.81251 0.79578 0.41117 0.0
H68 H 0.84897 0.78463 0.42422 0.0
H69 H 0.91573 0.72815 0.41058 0.0
H70 H 0.96371 0.74561 0.39664 0.0
H71 H 0.95957 0.81885 0.37547 0.0
H72 H 0.91166 0.80159 0.39017 0.0
H73 H 0.8257 0.72856 0.4365 0.0
H74 H 0.92055 0.76584 0.43798 0.0
O75 O 0.85592 0.71291 0.40471 0.0
H76 H 0.82332 0.71785 0.46836 0.0
H77 H 0.91818 0.75462 0.46971 0.0
C78 C 0.85189 0.76241 0.40053 0.0
C79 C 0.84253 0.75484 0.38271 0.0
C80 C 0.82178 0.76109 0.37533 0.0
C81 C 0.81037 0.77546 0.38554 0.0
C82 C 0.82119 0.78482 0.40302 0.0
C83 C 0.84188 0.77833 0.41049 0.0
C84 C 0.91 0.7634 0.40131 0.0
C85 C 0.92521 0.74808 0.40304 0.0
C86 C 0.95258 0.75798 0.39487 0.0
C87 C 0.96534 0.78335 0.38455 0.0
C88 C 0.95042 0.79923 0.38328 0.0
C89 C 0.92297 0.78933 0.39163 0.0
C90 C 0.87328 0.74822 0.43478 0.0
C91 C 0.84613 0.7353 0.44378 0.0
C92 C 0.84478 0.72911 0.46201 0.0
C93 C 0.87055 0.73523 0.47153 0.0
C94 C 0.89792 0.74945 0.46269 0.0
C95 C 0.89928 0.75596 0.44451 0.0
P96 P 0.12799 0.2562 0.60347 0.0
H97 H 0.10397 0.27155 0.63399 0.0
H98 H 0.05425 0.25104 0.64627 0.0
H99 H 0.02102 0.18368 0.60542 0.0
H100 H 0.0712 0.20437 0.59325 0.0
H101 H 0.17488 0.28046 0.63054 0.0
H102 H 0.20472 0.2628 0.64454 0.0
H103 H 0.15711 0.18221 0.61436 0.0
H104 H 0.12627 0.19988 0.60088 0.0
H105 H 0.09539 0.26682 0.57566 0.0
H106 H 0.1641 0.24448 0.5782 0.0
O107 O 0.14459 0.29168 0.60842 0.0
H108 H 0.10531 0.27746 0.54385 0.0
H109 H 0.17323 0.2538 0.54644 0.0
C110 C 0.09113 0.23983 0.61249 0.0
C111 C 0.08599 0.25241 0.62762 0.0
C112 C 0.05751 0.24071 0.63462 0.0
C113 C 0.03357 0.2159 0.62674 0.0
C114 C 0.03899 0.20275 0.61186 0.0
C115 C 0.06759 0.21462 0.60481 0.0
C116 C 0.14872 0.24174 0.61436 0.0
C117 C 0.1707 0.25893 0.62693 0.0
C118 C 0.18797 0.2488 0.63489 0.0
C119 C 0.18386 0.2212 0.63041 0.0
C120 C 0.16094 0.20352 0.61825 0.0
C121 C 0.1434 0.21365 0.6104 0.0
C122 C 0.12866 0.25443 0.57935 0.0
C123 C 0.11175 0.26302 0.56923 0.0
C124 C 0.11746 0.2691 0.551 0.0
C125 C 0.14036 0.26686 0.54259 0.0
C126 C 0.15578 0.25626 0.55254 0.0
C127 C 0.15026 0.25048 0.57075 0.0
P128 P 0.8006 0.90214 0.58456 0.0
H129 H 0.8215 0.9253 0.62019 0.0
H130 H 0.81529 0.95925 0.63929 0.0
H131 H 0.75726 0.96329 0.59951 0.0
H132 H 0.76163 0.92769 0.58134 0.0
H133 H 0.8431 0.88236 0.58995 0.0
H134 H 0.84115 0.84295 0.60748 0.0
H135 H 0.75317 0.81914 0.62515 0.0
H136 H 0.75543 0.85912 0.60776 0.0
H137 H 0.79015 0.92983 0.55447 0.0
H138 H 0.75748 0.84213 0.57248 0.0
O139 O 0.83482 0.92309 0.57684 0.0
H140 H 0.75576 0.91127 0.52932 0.0
H141 H 0.72462 0.82326 0.54673 0.0
C142 C 0.79239 0.92417 0.59921 0.0
C143 C 0.80695 0.93305 0.61577 0.0
C144 C 0.80359 0.95272 0.62661 0.0
C145 C 0.78618 0.96451 0.62085 0.0
C146 C 0.77066 0.95458 0.60452 0.0
C147 C 0.77357 0.93443 0.59388 0.0
C148 C 0.79943 0.87356 0.59764 0.0
C149 C 0.8235 0.86886 0.59769 0.0
C150 C 0.82241 0.84645 0.60774 0.0
C151 C 0.79706 0.82823 0.61767 0.0
C152 C 0.7729 0.83293 0.61756 0.0
C153 C 0.77421 0.85569 0.60771 0.0
C154 C 0.77586 0.88755 0.56566 0.0
C155 C 0.77562 0.90655 0.55298 0.0
C156 C 0.75615 0.89582 0.53845 0.0
C157 C 0.73727 0.86567 0.53594 0.0
C158 C 0.73825 0.8466 0.54844 0.0
C159 C 0.75728 0.85746 0.56321 0.0
P160 P 0.12926 0.85925 0.60017 0.0
H161 H 0.17993 0.88519 0.6245 0.0
H162 H 0.21176 0.93469 0.6356 0.0
H163 H 0.1548 0.96136 0.61055 0.0
H164 H 0.12275 0.91127 0.59926 0.0
H165 H 0.11456 0.81576 0.62746 0.0
H166 H 0.06826 0.78073 0.64138 0.0
H167 H 0.02225 0.81628 0.61246 0.0
H168 H 0.06919 0.85172 0.59847 0.0
H169 H 0.1646 0.90373 0.57417 0.0
H170 H 0.08602 0.8189 0.57382 0.0
O171 O 0.15031 0.84389 0.60167 0.0
H172 H 0.16604 0.90236 0.54165 0.0
H173 H 0.08764 0.81714 0.54121 0.0
C174 C 0.14931 0.89469 0.61074 0.0
C175 C 0.17402 0.90151 0.62147 0.0
C176 C 0.19229 0.92988 0.6278 0.0
C177 C 0.18605 0.95199 0.62368 0.0
C178 C 0.16016 0.94474 0.61389 0.0
C179 C 0.1419 0.91621 0.60743 0.0
C180 C 0.09517 0.83589 0.61161 0.0
C181 C 0.09461 0.8162 0.62411 0.0
C182 C 0.06808 0.79612 0.63208 0.0
C183 C 0.04153 0.79546 0.62784 0.0
C184 C 0.04238 0.81629 0.616 0.0
C185 C 0.06909 0.83642 0.60794 0.0
C186 C 0.12474 0.86176 0.57649 0.0
C187 C 0.14698 0.88525 0.5671 0.0
C188 C 0.14801 0.88428 0.54846 0.0
C189 C 0.12708 0.85955 0.53881 0.0
C190 C 0.10387 0.83668 0.54819 0.0
C191 C 0.10288 0.83769 0.56688 0.0
P192 P 0.95077 0.47947 0.74166 0.0
H193 H 0.97448 0.45826 0.71399 0.0
H194 H 0.95748 0.41001 0.701 0.0
H195 H 0.87887 0.37487 0.73345 0.0
H196 H 0.89622 0.42345 0.74661 0.0
H197 H 0.9724 0.54115 0.73987 0.0
H198 H 0.95407 0.56977 0.72532 0.0
H199 H 0.87929 0.4908 0.70432 0.0
H200 H 0.8972 0.4622 0.71973 0.0
H201 H 0.95723 0.44494 0.7691 0.0
H202 H 0.93079 0.50982 0.76634 0.0
O203 O 0.9875 0.49785 0.73934 0.0
H204 H 0.95976 0.44952 0.80161 0.0
H205 H 0.93329 0.51446 0.79883 0.0
C206 C 0.93691 0.44417 0.73153 0.0
C207 C 0.9536 0.44021 0.71834 0.0
C208 C 0.94387 0.41269 0.7109 0.0
C209 C 0.91702 0.38877 0.71635 0.0
C210 C 0.89962 0.39302 0.72901 0.0
C211 C 0.90958 0.42062 0.7366 0.0
C212 C 0.93644 0.49966 0.73063 0.0
C213 C 0.95211 0.53001 0.73208 0.0
C214 C 0.94167 0.54634 0.72363 0.0
C215 C 0.91547 0.53263 0.71334 0.0
C216 C 0.8995 0.50205 0.71215 0.0
C217 C 0.90984 0.48567 0.72085 0.0
C218 C 0.94386 0.477 0.76527 0.0
C219 C 0.95099 0.45944 0.77551 0.0
C220 C 0.95235 0.46204 0.79411 0.0
C221 C 0.94692 0.48253 0.80274 0.0
C222 C 0.93786 0.49871 0.7925 0.0
C223 C 0.93638 0.49599 0.77388 0.0
P224 P 0.58351 0.43793 0.7594 0.0
H225 H 0.5853 0.40584 0.72848 0.0
H226 H 0.54696 0.36803 0.70954 0.0
H227 H 0.48047 0.37858 0.73761 0.0
H228 H 0.51895 0.41562 0.75693 0.0
H229 H 0.6479 0.46757 0.75999 0.0
H230 H 0.68563 0.50485 0.74117 0.0
H231 H 0.61801 0.51278 0.71277 0.0
H232 H 0.57996 0.47485 0.73164 0.0
H233 H 0.57573 0.42229 0.79703 0.0
H234 H 0.56013 0.47805 0.76276 0.0
O235 O 0.59932 0.4198 0.76749 0.0
H236 H 0.556 0.43618 0.82237 0.0
H237 H 0.54016 0.49208 0.78827 0.0
C238 C 0.55495 0.41328 0.74421 0.0
C239 C 0.56246 0.40016 0.73043 0.0
C240 C 0.54049 0.37868 0.71951 0.0
C241 C 0.51051 0.37 0.72211 0.0
C242 C 0.50326 0.38429 0.73545 0.0
C243 C 0.5253 0.40567 0.74646 0.0
C244 C 0.61113 0.4682 0.74704 0.0
C245 C 0.64109 0.4773 0.74976 0.0
C246 C 0.66264 0.49848 0.73892 0.0
C247 C 0.65464 0.51123 0.72528 0.0
C248 C 0.6247 0.50311 0.72311 0.0
C249 C 0.60303 0.48158 0.73389 0.0
C250 C 0.5697 0.44937 0.77802 0.0
C251 C 0.56831 0.43776 0.79496 0.0
C252 C 0.5571 0.44578 0.80949 0.0
C253 C 0.54669 0.46534 0.80734 0.0
C254 C 0.54793 0.47687 0.7903 0.0
C255 C 0.55947 0.46901 0.77576 0.0
P256 P 0.53265 0.07447 0.74236 0.0
H257 H 0.52143 0.08565 0.7061 0.0
H258 H 0.48649 0.09976 0.69453 0.0
H259 H 0.47397 0.12278 0.7479 0.0
H260 H 0.50929 0.10934 0.75946 0.0
H261 H 0.55607 0.03996 0.72683 0.0
H262 H 0.60411 0.05106 0.71599 0.0
H263 H 0.63947 0.14162 0.73036 0.0
H264 H 0.5899 0.13028 0.74054 0.0
H265 H 0.48076 0.04885 0.76446 0.0
H266 H 0.57516 0.09027 0.77287 0.0
O267 O 0.5098 0.04115 0.73417 0.0
H268 H 0.47248 0.03579 0.7959 0.0
H269 H 0.56686 0.07698 0.80465 0.0
C270 C 0.51784 0.09615 0.73366 0.0
C271 C 0.51224 0.09498 0.71523 0.0
C272 C 0.49218 0.10288 0.70862 0.0
C273 C 0.47756 0.11214 0.72038 0.0
C274 C 0.4851 0.11574 0.73861 0.0
C275 C 0.50529 0.108 0.7452 0.0
C276 C 0.56919 0.0843 0.7344 0.0
C277 C 0.57391 0.06233 0.72754 0.0
C278 C 0.60171 0.06871 0.72148 0.0
C279 C 0.62599 0.09722 0.72247 0.0
C280 C 0.62127 0.11945 0.72925 0.0
C281 C 0.59303 0.113 0.73519 0.0
C282 C 0.52852 0.07039 0.76629 0.0
C283 C 0.49976 0.05562 0.77317 0.0
C284 C 0.49504 0.04813 0.79114 0.0
C285 C 0.519 0.05518 0.80266 0.0
C286 C 0.54801 0.07145 0.79605 0.0
C287 C 0.55275 0.07892 0.77789 0.0
P288 P 0.79732 0.58891 0.9362 0.0
H289 H 0.77552 0.62451 0.95221 0.0
H290 H 0.72981 0.6141 0.96609 0.0
H291 H 0.6969 0.52174 0.95923 0.0
H292 H 0.74197 0.53302 0.94311 0.0
H293 H 0.85551 0.59776 0.9286 0.0
H294 H 0.88517 0.5786 0.94153 0.0
H295 H 0.81063 0.51921 0.97327 0.0
H296 H 0.78135 0.53914 0.96089 0.0
H297 H 0.77231 0.61623 0.91472 0.0
H298 H 0.81209 0.56327 0.90501 0.0
O299 O 0.82113 0.62353 0.94169 0.0
H300 H 0.77231 0.62462 0.8829 0.0
H301 H 0.81156 0.57099 0.87284 0.0
C302 C 0.76295 0.57953 0.94737 0.0
C303 C 0.75863 0.60195 0.95379 0.0
C304 C 0.73223 0.59581 0.96205 0.0
C305 C 0.7094 0.56689 0.96463 0.0
C306 C 0.7136 0.54435 0.95772 0.0
C307 C 0.73978 0.55069 0.94877 0.0
C308 C 0.81587 0.5696 0.94338 0.0
C309 C 0.84527 0.58022 0.93808 0.0
C310 C 0.86231 0.56944 0.94559 0.0
C311 C 0.85023 0.54751 0.95847 0.0
C312 C 0.82042 0.53599 0.96328 0.0
C313 C 0.80352 0.54726 0.95601 0.0
C314 C 0.79211 0.58908 0.91233 0.0
C315 C 0.78036 0.60574 0.90567 0.0
C316 C 0.7803 0.61046 0.88735 0.0
C317 C 0.79199 0.59856 0.87513 0.0
C318 C 0.80276 0.58087 0.88182 0.0
C319 C 0.80288 0.57623 0.90026 0.0
P320 P 0.47001 0.2341 0.91687 0.0
H321 H 0.4841 0.25363 0.95409 0.0
H322 H 0.48194 0.29246 0.97077 0.0
H323 H 0.43682 0.30452 0.92626 0.0
H324 H 0.43861 0.26556 0.90967 0.0
H325 H 0.51228 0.21372 0.91887 0.0
H326 H 0.51674 0.18009 0.93879 0.0
H327 H 0.43402 0.15976 0.96367 0.0
H328 H 0.42978 0.19392 0.94373 0.0
H329 H 0.47784 0.24588 0.87871 0.0
H330 H 0.40707 0.18933 0.91372 0.0
O331 O 0.50409 0.25597 0.9092 0.0
H332 H 0.44434 0.22681 0.85317 0.0
H333 H 0.37294 0.17048 0.88813 0.0
C334 C 0.46108 0.25638 0.93074 0.0
C335 C 0.47259 0.26374 0.9482 0.0
C336 C 0.47132 0.28584 0.95776 0.0
C337 C 0.45902 0.30114 0.94978 0.0
C338 C 0.44608 0.29268 0.9327 0.0
C339 C 0.44714 0.27047 0.92323 0.0
C340 C 0.47087 0.20649 0.92999 0.0
C341 C 0.49504 0.20203 0.92856 0.0
C342 C 0.49769 0.18299 0.94002 0.0
C343 C 0.47601 0.16785 0.95296 0.0
C344 C 0.45109 0.17135 0.95386 0.0
C345 C 0.4486 0.19068 0.94245 0.0
C346 C 0.44505 0.21875 0.8981 0.0
C347 C 0.45507 0.22924 0.88092 0.0
C348 C 0.43575 0.21849 0.8663 0.0
C349 C 0.40586 0.19718 0.86857 0.0
C350 C 0.39589 0.18663 0.88586 0.0
C351 C 0.41534 0.19741 0.90052 0.0
P352 P 0.79466 0.19543 0.93863 0.0
H353 H 0.81058 0.21773 0.975 0.0
H354 H 0.83446 0.26694 0.98762 0.0
H355 H 0.82783 0.29959 0.93612 0.0
H356 H 0.80194 0.25021 0.92417 0.0
H357 H 0.77584 0.14306 0.95935 0.0
H358 H 0.72833 0.10602 0.97054 0.0
H359 H 0.68615 0.14939 0.9461 0.0
H360 H 0.73467 0.18741 0.93524 0.0
H361 H 0.8429 0.23505 0.9164 0.0
H362 H 0.75669 0.15919 0.90829 0.0
O363 O 0.8195 0.18679 0.94586 0.0
H364 H 0.85371 0.2347 0.88484 0.0
H365 H 0.76789 0.1582 0.87646 0.0
C366 C 0.80531 0.23042 0.94853 0.0
C367 C 0.81365 0.23548 0.96659 0.0
C368 C 0.8277 0.26375 0.97371 0.0
C369 C 0.83406 0.28761 0.9628 0.0
C370 C 0.82348 0.282 0.94502 0.0
C371 C 0.80888 0.25363 0.93804 0.0
C372 C 0.7588 0.16794 0.94634 0.0
C373 C 0.7565 0.14478 0.95634 0.0
C374 C 0.72915 0.12341 0.9627 0.0
C375 C 0.70329 0.1245 0.9591 0.0
C376 C 0.70566 0.148 0.94922 0.0
C377 C 0.73327 0.16959 0.94289 0.0
C378 C 0.79881 0.19751 0.91468 0.0
C379 C 0.82593 0.21874 0.90772 0.0
C380 C 0.83221 0.21838 0.88968 0.0
C381 C 0.81176 0.19628 0.87821 0.0
C382 C 0.78395 0.17566 0.88497 0.0
C383 C 0.77757 0.17616 0.90316 0.0
P384 P 0.61662 0.81165 0.07495 0.0
H385 H 0.62386 0.78289 0.04355 0.0
H386 H 0.60234 0.73179 0.03493 0.0
H387 H 0.54869 0.70684 0.08257 0.0
H388 H 0.57106 0.75806 0.09134 0.0
H389 H 0.63282 0.87104 0.06707 0.0
H390 H 0.60459 0.89311 0.05624 0.0
H391 H 0.5245 0.80913 0.05683 0.0
H392 H 0.55288 0.78724 0.06796 0.0
H393 H 0.65656 0.80277 0.09689 0.0
H394 H 0.58747 0.82363 0.1051 0.0
O395 O 0.64991 0.82978 0.06549 0.0
H396 H 0.6629 0.80204 0.12911 0.0
H397 H 0.59363 0.82279 0.1376 0.0
C398 C 0.59943 0.77412 0.06821 0.0
C399 C 0.6075 0.7664 0.05214 0.0
C400 C 0.59497 0.73716 0.04716 0.0
C401 C 0.57386 0.71518 0.05811 0.0
C402 C 0.56527 0.72318 0.07401 0.0
C403 C 0.57794 0.75244 0.079 0.0
C404 C 0.59506 0.82747 0.06787 0.0
C405 C 0.6092 0.85738 0.06483 0.0
C406 C 0.59307 0.86991 0.05857 0.0
C407 C 0.56244 0.85271 0.05537 0.0
C408 C 0.5481 0.82286 0.05912 0.0
C409 C 0.56433 0.81032 0.06537 0.0
C410 C 0.62195 0.81369 0.09868 0.0
C411 C 0.64291 0.8074 0.10568 0.0
C412 C 0.64625 0.80665 0.12407 0.0
C413 C 0.62852 0.81205 0.13583 0.0
C414 C 0.6076 0.81862 0.1288 0.0
C415 C 0.60415 0.81919 0.11028 0.0
P416 P 0.24496 0.77051 0.09702 0.0
H417 H 0.23823 0.73157 0.06777 0.0
H418 H 0.1951 0.69279 0.05229 0.0
H419 H 0.13855 0.71659 0.08123 0.0
H420 H 0.18192 0.75493 0.09704 0.0
H421 H 0.30843 0.8073 0.10115 0.0
H422 H 0.34694 0.84242 0.08157 0.0
H423 H 0.28002 0.8344 0.0443 0.0
H424 H 0.24125 0.79862 0.06391 0.0
H425 H 0.23593 0.74934 0.13344 0.0
H426 H 0.23081 0.81683 0.10503 0.0
O427 O 0.261 0.75158 0.10326 0.0
H428 H 0.22259 0.76436 0.16113 0.0
H429 H 0.21695 0.83189 0.13296 0.0
C430 C 0.21323 0.74577 0.08374 0.0
C431 C 0.21657 0.72867 0.07061 0.0
C432 C 0.19185 0.70661 0.06166 0.0
C433 C 0.16324 0.70134 0.0656 0.0
C434 C 0.16019 0.7197 0.0781 0.0
C435 C 0.18501 0.74175 0.0871 0.0
C436 C 0.27206 0.80006 0.08387 0.0
C437 C 0.30196 0.81318 0.08884 0.0
C438 C 0.32394 0.83304 0.07759 0.0
C439 C 0.3164 0.84056 0.06128 0.0
C440 C 0.28633 0.82867 0.05674 0.0
C441 C 0.26425 0.80838 0.06794 0.0
C442 C 0.23498 0.78236 0.11723 0.0
C443 C 0.23214 0.76758 0.13316 0.0
C444 C 0.22451 0.77617 0.14903 0.0
C445 C 0.21903 0.79948 0.14927 0.0
C446 C 0.22107 0.81384 0.13317 0.0
C447 C 0.22912 0.80539 0.11725 0.0
P448 P 0.20237 0.40713 0.07665 0.0
H449 H 0.16434 0.39366 0.0453 0.0
H450 H 0.13857 0.41671 0.03211 0.0
H451 H 0.17839 0.48581 0.07172 0.0
H452 H 0.20436 0.46254 0.08482 0.0
H453 H 0.22434 0.37736 0.05378 0.0
H454 H 0.27247 0.39152 0.04118 0.0
H455 H 0.30862 0.4765 0.06609 0.0
H456 H 0.25957 0.46219 0.07842 0.0
H457 H 0.15734 0.40138 0.10163 0.0
H458 H 0.24602 0.4154 0.10472 0.0
O459 O 0.18061 0.37182 0.07184 0.0
H460 H 0.15222 0.39461 0.13381 0.0
H461 H 0.24164 0.40989 0.13716 0.0
C462 C 0.18575 0.42606 0.06628 0.0
C463 C 0.16761 0.41381 0.05114 0.0
C464 C 0.15279 0.42697 0.04363 0.0
C465 C 0.15609 0.45292 0.05098 0.0
C466 C 0.17542 0.46588 0.06569 0.0
C467 C 0.19015 0.45255 0.07327 0.0
C468 C 0.2384 0.41859 0.06726 0.0
C469 C 0.2425 0.39908 0.05658 0.0
C470 C 0.27021 0.40719 0.0494 0.0
C471 C 0.29462 0.43507 0.05274 0.0
C472 C 0.29029 0.45492 0.06313 0.0
C473 C 0.26235 0.44673 0.0703 0.0
C474 C 0.20226 0.40954 0.10076 0.0
C475 C 0.17614 0.40404 0.10934 0.0
C476 C 0.17327 0.4002 0.12784 0.0
C477 C 0.19652 0.40172 0.13825 0.0
C478 C 0.22312 0.40823 0.12962 0.0
C479 C 0.22584 0.41182 0.11104 0.0
P480 P 0.45966 0.92411 0.2687 0.0
H481 H 0.44557 0.93983 0.30299 0.0
H482 H 0.3988 0.92846 0.31696 0.0
H483 H 0.35087 0.86461 0.2755 0.0
H484 H 0.39813 0.87635 0.26133 0.0
H485 H 0.52201 0.94626 0.2631 0.0
H486 H 0.55786 0.93523 0.27591 0.0
H487 H 0.48834 0.86514 0.30578 0.0
H488 H 0.45188 0.87561 0.292 0.0
H489 H 0.41834 0.9313 0.24614 0.0
H490 H 0.49105 0.9157 0.23819 0.0
O491 O 0.47766 0.9597 0.2734 0.0
H492 H 0.42 0.94346 0.21475 0.0
H493 H 0.49436 0.93001 0.20716 0.0
C494 C 0.42532 0.90948 0.28089 0.0
C495 C 0.42508 0.92299 0.29703 0.0
C496 C 0.39834 0.91652 0.30501 0.0
C497 C 0.37123 0.89601 0.29716 0.0
C498 C 0.37148 0.88056 0.28181 0.0
C499 C 0.39843 0.88729 0.2737 0.0
C500 C 0.48421 0.91167 0.27643 0.0
C501 C 0.51423 0.92802 0.27205 0.0
C502 C 0.53486 0.92194 0.27966 0.0
C503 C 0.52621 0.89973 0.29227 0.0
C504 C 0.49582 0.88244 0.29615 0.0
C505 C 0.47495 0.88842 0.2883 0.0
C506 C 0.4545 0.92248 0.2447 0.0
C507 C 0.43416 0.92966 0.23758 0.0
C508 C 0.43552 0.93719 0.21961 0.0
C509 C 0.45786 0.93855 0.20844 0.0
C510 C 0.47681 0.92922 0.21527 0.0
C511 C 0.47506 0.92118 0.2332 0.0
P512 P 0.13151 0.56345 0.24869 0.0
H513 H 0.17322 0.59996 0.27599 0.0
H514 H 0.17467 0.63672 0.29647 0.0
H515 H 0.08757 0.61612 0.27816 0.0
H516 H 0.0867 0.57991 0.25735 0.0
H517 H 0.16421 0.53243 0.2461 0.0
H518 H 0.16137 0.4918 0.26278 0.0
H519 H 0.08743 0.48473 0.29267 0.0
H520 H 0.09097 0.52629 0.27639 0.0
H521 H 0.13323 0.58642 0.21334 0.0
H522 H 0.06849 0.518 0.24632 0.0
O523 O 0.16478 0.58071 0.23913 0.0
H524 H 0.09707 0.57065 0.18893 0.0
H525 H 0.03226 0.50216 0.22191 0.0
C526 C 0.13027 0.58792 0.26486 0.0
C527 C 0.15439 0.60331 0.27647 0.0
C528 C 0.15503 0.62407 0.28832 0.0
C529 C 0.13137 0.62959 0.2888 0.0
C530 C 0.1064 0.61277 0.27784 0.0
C531 C 0.10586 0.59206 0.26594 0.0
C532 C 0.1279 0.53239 0.26011 0.0
C533 C 0.14739 0.52222 0.25622 0.0
C534 C 0.14576 0.49907 0.26571 0.0
C535 C 0.12424 0.48544 0.27892 0.0
C536 C 0.10411 0.495 0.28245 0.0
C537 C 0.10614 0.51861 0.27319 0.0
C538 C 0.10382 0.55289 0.23146 0.0
C539 C 0.11125 0.56803 0.21535 0.0
C540 C 0.0906 0.55906 0.20143 0.0
C541 C 0.06203 0.53502 0.20351 0.0
C542 C 0.05414 0.52079 0.22 0.0
C543 C 0.07493 0.52967 0.23389 0.0
P544 P 0.46177 0.5262 0.26788 0.0
H545 H 0.48683 0.54743 0.30322 0.0
H546 H 0.51136 0.5958 0.3172 0.0
H547 H 0.49421 0.63094 0.26985 0.0
H548 H 0.46938 0.58228 0.25596 0.0
H549 H 0.4222 0.46443 0.26174 0.0
H550 H 0.37586 0.429 0.27538 0.0
H551 H 0.37576 0.4977 0.30691 0.0
H552 H 0.42111 0.53325 0.29222 0.0
H553 H 0.51166 0.56259 0.24553 0.0
H554 H 0.42048 0.49591 0.23737 0.0
O555 O 0.48274 0.51241 0.27439 0.0
H556 H 0.52102 0.56121 0.21372 0.0
H557 H 0.43005 0.49346 0.20562 0.0
C558 C 0.47702 0.56148 0.27842 0.0
C559 C 0.48818 0.56551 0.29589 0.0
C560 C 0.50199 0.5931 0.30391 0.0
C561 C 0.50493 0.61717 0.29454 0.0
C562 C 0.49262 0.61283 0.27727 0.0
C563 C 0.47847 0.58508 0.26933 0.0
C564 C 0.42501 0.50151 0.27577 0.0
C565 C 0.41176 0.47197 0.27122 0.0
C566 C 0.38549 0.45164 0.27933 0.0
C567 C 0.37227 0.46031 0.2926 0.0
C568 C 0.38514 0.49016 0.29672 0.0
C569 C 0.41124 0.51058 0.28833 0.0
C570 C 0.46548 0.52923 0.24391 0.0
C571 C 0.49348 0.54802 0.23684 0.0
C572 C 0.49887 0.54705 0.21865 0.0
C573 C 0.47643 0.52688 0.20717 0.0
C574 C 0.44781 0.50934 0.21408 0.0
C575 C 0.44237 0.51052 0.23232 0.0
Gd576 Gd 0.5105 0.01621 0.02816 0.0
Gd577 Gd 0.48097 0.97794 0.98467 0.0
C578 C 0.39119 0.89527 0.98037 0.0
C579 C 0.40477 0.85863 0.97384 0.0
C580 C 0.44302 0.90954 0.97711 0.0
C581 C 0.42144 0.91693 0.98075 0.0
C582 C 0.43475 0.88032 0.97334 0.0
C583 C 0.38306 0.86608 0.97734 0.0
C584 C 0.36988 0.90367 0.98245 0.0
C585 C 0.37884 0.93312 0.98406 0.0
N586 N 0.42977 0.94536 0.98364 0.0
C587 C 0.40903 0.95383 0.98433 0.0
H588 H 0.41545 0.97643 0.98551 0.0
C589 C 0.4934 0.92468 0.97154 0.0
N590 N 0.47195 0.93096 0.97666 0.0
C591 C 0.48616 0.89606 0.96775 0.0
C592 C 0.45677 0.87375 0.96882 0.0
H593 H 0.51635 0.94157 0.97102 0.0
H594 H 0.35996 0.84916 0.97721 0.0
H595 H 0.57228 0.01042 0.02683 0.0
H596 H 0.34646 0.88768 0.98225 0.0
H597 H 0.36251 0.9399 0.98515 0.0
H598 H 0.39808 0.83607 0.97114 0.0
H599 H 0.48258 0.05761 0.04124 0.0
H600 H 0.64778 0.09565 0.03081 0.0
H601 H 0.62611 0.04247 0.0273 0.0
H602 H 0.60567 0.15637 0.04157 0.0
H603 H 0.5033 0.89122 0.96409 0.0
H604 H 0.45124 0.85157 0.96586 0.0
H605 H 0.63993 0.13806 0.03596 0.0
H606 H 0.50008 0.10949 0.04805 0.0
N607 N 0.56269 0.0449 0.02952 0.0
C608 C 0.62393 0.08163 0.03061 0.0
C609 C 0.61179 0.05164 0.02867 0.0
C610 C 0.60514 0.0931 0.03274 0.0
C611 C 0.57423 0.0739 0.03223 0.0
C612 C 0.58102 0.03347 0.02841 0.0
N613 N 0.52556 0.06492 0.03527 0.0
C614 C 0.55504 0.08425 0.03517 0.0
C615 C 0.51576 0.10271 0.04433 0.0
C616 C 0.54593 0.12317 0.04332 0.0
C617 C 0.50594 0.07342 0.04051 0.0
C618 C 0.56606 0.11399 0.03898 0.0
H619 H 0.55351 0.14583 0.04635 0.0
O620 O 0.48765 0.00849 0.05343 0.0
O621 O 0.47266 0.97991 0.01359 0.0
O622 O 0.46611 0.01048 0.99114 0.0
O623 O 0.50367 0.04532 0.00953 0.0
O624 O 0.4621 0.00172 0.03248 0.0
O625 O 0.52561 0.00253 0.05129 0.0
O626 O 0.50318 0.0103 0.96394 0.0
O627 O 0.51903 0.01311 0.99935 0.0
O628 O 0.52068 0.97983 0.02409 0.0
O629 O 0.48921 0.94821 1.00173 0.0
O630 O 0.52865 0.99034 0.98043 0.0
O631 O 0.46185 0.97181 0.95796 0.0
C632 C 0.45132 0.98023 0.02121 0.0
C633 C 0.59677 0.13339 0.03885 0.0
C634 C 0.61627 0.12296 0.03569 0.0
C635 C 0.50556 0.00226 0.06181 0.0
C636 C 0.51521 0.01555 0.07968 0.0
C637 C 0.53308 0.04576 0.08183 0.0
C638 C 0.50471 0.9979 0.09485 0.0
C639 C 0.51159 0.01036 0.11215 0.0
C640 C 0.54012 0.05825 0.09893 0.0
C641 C 0.52938 0.04076 0.114 0.0
C642 C 0.48148 0.03715 0.99804 0.0
C643 C 0.54002 0.01169 0.99191 0.0
C644 C 0.4841 0.99517 0.95153 0.0
C645 C 0.4965 0.99164 0.9346 0.0
C646 C 0.50689 0.97196 0.93361 0.0
C647 C 0.49803 0.00769 0.91935 0.0
C648 C 0.5091 0.00317 0.90317 0.0
C649 C 0.51793 0.96755 0.91769 0.0
C650 C 0.51889 0.9829 0.90253 0.0
C651 C 0.50811 0.95487 0.01509 0.0
H652 H 0.54127 0.05967 0.07032 0.0
H653 H 0.49054 0.97457 0.09317 0.0
H654 H 0.55382 0.08161 0.10052 0.0
H655 H 0.53526 0.05099 0.12713 0.0
H656 H 0.50642 0.95997 0.94516 0.0
H657 H 0.49018 0.02309 0.91997 0.0
H658 H 0.5257 0.95212 0.9171 0.0
H659 H 0.52752 0.97911 0.89025 0.0
Gd660 Gd 0.98391 0.49397 0.02866 0.0
Gd661 Gd 0.01459 0.50353 0.98428 0.0
C662 C 0.08979 0.48344 0.98118 0.0
C663 C 0.13169 0.5304 0.97346 0.0
C664 C 0.0828 0.52473 0.97711 0.0
C665 C 0.07141 0.49583 0.9813 0.0
C666 C 0.1128 0.54203 0.97237 0.0
C667 C 0.1202 0.50114 0.97791 0.0
C668 C 0.0768 0.4534 0.98353 0.0
C669 C 0.04608 0.43642 0.98515 0.0
N670 N 0.04186 0.4793 0.98406 0.0
C671 C 0.02882 0.4498 0.98527 0.0
H672 H 0.00517 0.43653 0.98653 0.0
C673 C 0.07244 0.56109 0.96787 0.0
N674 N 0.0638 0.53501 0.9758 0.0
C675 C 0.10201 0.57915 0.96303 0.0
C676 C 0.12245 0.56986 0.9657 0.0
H677 H 0.05661 0.56829 0.96588 0.0
H678 H 0.13477 0.49212 0.97802 0.0
H679 H 0.99913 0.56067 0.04486 0.0
H680 H 0.09012 0.44302 0.9835 0.0
H681 H 0.0357 0.41308 0.98649 0.0
H682 H 0.15493 0.54348 0.97015 0.0
H683 H 0.92591 0.42387 0.03101 0.0
H684 H 0.92298 0.56904 0.03691 0.0
H685 H 0.97544 0.59029 0.04594 0.0
H686 H 0.84745 0.47241 0.02117 0.0
H687 H 0.109 0.6002 0.95729 0.0
H688 H 0.14531 0.58381 0.96184 0.0
H689 H 0.87547 0.52507 0.02728 0.0
H690 H 0.87258 0.39757 0.02528 0.0
N691 N 0.96184 0.52331 0.03331 0.0
C692 C 0.93353 0.55596 0.03604 0.0
C693 C 0.96314 0.56804 0.04106 0.0
C694 C 0.91751 0.5267 0.03082 0.0
C695 C 0.93235 0.51061 0.02989 0.0
C696 C 0.97678 0.55119 0.03998 0.0
N697 N 0.93128 0.46609 0.02701 0.0
C698 C 0.91665 0.48112 0.02636 0.0
C699 C 0.88472 0.42112 0.02517 0.0
C700 C 0.86987 0.43642 0.02253 0.0
C701 C 0.91535 0.43634 0.028 0.0
C702 C 0.88562 0.46677 0.02379 0.0
H703 H 0.84607 0.4246 0.02054 0.0
O704 O 0.9733 0.46113 0.04874 0.0
O705 O 0.01394 0.48586 0.01124 0.0
O706 O 0.97089 0.46147 0.986 0.0
O707 O 0.97067 0.45035 0.01566 0.0
O708 O 0.03089 0.50687 0.03554 0.0
O709 O 0.99267 0.50661 0.05664 0.0
O710 O 0.0045 0.51657 0.95906 0.0
O711 O 0.97848 0.50325 1.00041 0.0
O712 O 0.02015 0.54121 0.02596 0.0
O713 O 0.04661 0.5444 1.00002 0.0
O714 O 0.00338 0.53897 0.98409 0.0
O715 O 0.00186 0.47486 0.96102 0.0
C716 C 0.03632 0.49598 0.02159 0.0
C717 C 0.87114 0.48299 0.02345 0.0
C718 C 0.88707 0.51293 0.02699 0.0
C719 C 0.98283 0.48006 0.06183 0.0
C720 C 0.96767 0.47167 0.07901 0.0
C721 C 0.93758 0.45088 0.08054 0.0
C722 C 0.98506 0.48346 0.0944 0.0
C723 C 0.97325 0.47381 0.11145 0.0
C724 C 0.92528 0.44177 0.09748 0.0
C725 C 0.94299 0.45294 0.11286 0.0
C726 C 0.96106 0.44267 0.99908 0.0
C727 C 0.9813 0.52701 0.99491 0.0
C728 C 0.99992 0.4932 0.95057 0.0
C729 C 0.01381 0.49752 0.93305 0.0
C730 C 0.04441 0.5088 0.93141 0.0
C731 C 0.99612 0.49085 0.91768 0.0
C732 C 0.00909 0.49624 0.90074 0.0
C733 C 0.05739 0.51435 0.91455 0.0
C734 C 0.03986 0.50834 0.89924 0.0
C735 C 0.04305 0.55554 0.01518 0.0
H736 H 0.92384 0.44145 0.06874 0.0
H737 H 0.0082 0.49988 0.09296 0.0
H738 H 0.90209 0.42553 0.09868 0.0
H739 H 0.93314 0.4447 0.12576 0.0
H740 H 0.05827 0.51333 0.94307 0.0
H741 H 0.9724 0.48189 0.91888 0.0
H742 H 0.08105 0.52329 0.91335 0.0
H743 H 0.05019 0.51265 0.88622 0.0
Gd744 Gd 0.48942 0.50642 0.984 0.0
Gd745 Gd 0.51018 0.49456 0.0284 0.0
C746 C 0.61131 0.53663 0.03445 0.0
C747 C 0.61998 0.49863 0.02306 0.0
C748 C 0.56975 0.49042 0.02502 0.0
C749 C 0.58058 0.51835 0.03144 0.0
C750 C 0.58931 0.4799 0.02132 0.0
C751 C 0.63098 0.52695 0.02969 0.0
C752 C 0.62132 0.5638 0.04258 0.0
C753 C 0.60074 0.57137 0.04849 0.0
N754 N 0.56094 0.52705 0.03577 0.0
C755 C 0.57054 0.5523 0.04544 0.0
H756 H 0.555 0.55788 0.05105 0.0
C757 C 0.52859 0.44346 0.0216 0.0
N758 N 0.53999 0.47281 0.02375 0.0
C759 C 0.54689 0.43205 0.01747 0.0
C760 C 0.57742 0.45053 0.01681 0.0
H761 H 0.5055 0.42825 0.0236 0.0
H762 H 0.65465 0.5409 0.03155 0.0
H763 H 0.42805 0.4417 0.9893 0.0
H764 H 0.64471 0.5785 0.04504 0.0
H765 H 0.60807 0.59169 0.05564 0.0
H766 H 0.6353 0.49107 0.01998 0.0
H767 H 0.51741 0.5715 0.96561 0.0
H768 H 0.35279 0.45277 0.98364 0.0
H769 H 0.37395 0.42108 0.98936 0.0
H770 H 0.39571 0.55256 0.96671 0.0
H771 H 0.53743 0.40889 0.01525 0.0
H772 H 0.59163 0.44161 0.01388 0.0
H773 H 0.36117 0.50213 0.97551 0.0
H774 H 0.50048 0.60534 0.95608 0.0
N775 N 0.43761 0.48479 0.98415 0.0
C776 C 0.37659 0.46195 0.98364 0.0
C777 C 0.38845 0.44398 0.98683 0.0
C778 C 0.39559 0.49138 0.97997 0.0
C779 C 0.4264 0.50225 0.98024 0.0
C780 C 0.41918 0.45577 0.98685 0.0
N781 N 0.4751 0.53971 0.97497 0.0
C782 C 0.4458 0.53069 0.97559 0.0
C783 C 0.48491 0.58455 0.96174 0.0
C784 C 0.45513 0.57649 0.96354 0.0
C785 C 0.49443 0.56546 0.96716 0.0
C786 C 0.435 0.54898 0.97013 0.0
H787 H 0.44772 0.59118 0.95918 0.0
O788 O 0.5144 0.51785 0.95929 0.0
O789 O 0.52336 0.50248 0.99997 0.0
O790 O 0.52313 0.54227 0.02582 0.0
O791 O 0.5019 0.54765 0.9995 0.0
O792 O 0.5381 0.53897 0.98411 0.0
O793 O 0.47119 0.47937 0.9601 0.0
O794 O 0.48905 0.45747 0.04614 0.0
O795 O 0.47266 0.48944 0.01125 0.0
O796 O 0.48518 0.46257 0.98538 0.0
O797 O 0.4789 0.45068 0.01535 0.0
O798 O 0.47776 0.50857 0.03636 0.0
O799 O 0.51168 0.5018 0.05724 0.0
C800 C 0.54624 0.52507 0.9946 0.0
C801 C 0.40443 0.53873 0.97065 0.0
C802 C 0.38475 0.50999 0.97561 0.0
C803 C 0.49382 0.49607 0.95024 0.0
C804 C 0.48767 0.50255 0.93224 0.0
C805 C 0.47032 0.51551 0.92964 0.0
C806 C 0.50025 0.49641 0.91744 0.0
C807 C 0.49628 0.50383 0.90002 0.0
C808 C 0.46631 0.52305 0.9125 0.0
C809 C 0.47935 0.51753 0.89781 0.0
C810 C 0.51659 0.55772 0.01479 0.0
C811 C 0.46182 0.50021 0.02202 0.0
C812 C 0.49659 0.47408 0.06035 0.0
C813 C 0.48885 0.46235 0.07852 0.0
C814 C 0.48341 0.43415 0.08182 0.0
C815 C 0.48733 0.47922 0.09272 0.0
C816 C 0.48087 0.46797 0.11009 0.0
C817 C 0.47706 0.42305 0.09907 0.0
C818 C 0.47595 0.43988 0.11315 0.0
C819 C 0.47798 0.44361 0.99825 0.0
H820 H 0.45999 0.51991 0.9408 0.0
H821 H 0.51296 0.48567 0.9196 0.0
H822 H 0.45321 0.53343 0.9106 0.0
H823 H 0.47637 0.52433 0.88477 0.0
H824 H 0.48447 0.42082 0.07111 0.0
H825 H 0.49134 0.50099 0.09033 0.0
H826 H 0.4731 0.40136 0.10154 0.0
H827 H 0.47099 0.4309 0.12647 0.0
Gd828 Gd 0.17703 0.34842 0.36177 0.0
Gd829 Gd 0.15497 0.3142 0.31652 0.0
C830 C 0.06354 0.23427 0.30719 0.0
C831 C 0.07592 0.19731 0.29891 0.0
C832 C 0.1149 0.24683 0.30557 0.0
C833 C 0.09397 0.2548 0.309 0.0
C834 C 0.10619 0.21821 0.29998 0.0
C835 C 0.05461 0.20532 0.30255 0.0
C836 C 0.04306 0.24366 0.30957 0.0
C837 C 0.05318 0.27307 0.31295 0.0
N838 N 0.10344 0.28305 0.31316 0.0
C839 C 0.08361 0.29264 0.31442 0.0
H840 H 0.091 0.31524 0.31708 0.0
C841 C 0.1653 0.26196 0.30072 0.0
N842 N 0.14387 0.26766 0.30652 0.0
C843 C 0.15781 0.23385 0.29514 0.0
C844 C 0.12814 0.21175 0.29503 0.0
H845 H 0.18827 0.27896 0.30087 0.0
H846 H 0.03133 0.18917 0.30124 0.0
H847 H 0.2401 0.34575 0.36404 0.0
H848 H 0.01948 0.22857 0.30835 0.0
H849 H 0.03757 0.28069 0.31444 0.0
H850 H 0.06876 0.17511 0.29481 0.0
H851 H 0.14396 0.38597 0.37346 0.0
H852 H 0.31231 0.43212 0.37255 0.0
H853 H 0.29351 0.37956 0.36781 0.0
H854 H 0.26437 0.48817 0.38104 0.0
H855 H 0.1749 0.22925 0.29097 0.0
H856 H 0.12237 0.19003 0.29063 0.0
H857 H 0.30124 0.4726 0.37729 0.0
H858 H 0.15797 0.43669 0.38132 0.0
N859 N 0.22841 0.37873 0.36616 0.0
C860 C 0.28874 0.41734 0.37088 0.0
C861 C 0.27821 0.38768 0.36828 0.0
C862 C 0.26864 0.42743 0.37187 0.0
C863 C 0.2382 0.40729 0.36953 0.0
C864 C 0.24779 0.36853 0.36617 0.0
N865 N 0.18844 0.39573 0.37013 0.0
C866 C 0.21755 0.41607 0.3716 0.0
C867 C 0.17495 0.43121 0.37855 0.0
C868 C 0.20483 0.45271 0.37932 0.0
C869 C 0.16709 0.40255 0.37417 0.0
C870 C 0.22659 0.4452 0.37611 0.0
H871 H 0.21087 0.47487 0.3828 0.0
O872 O 0.15176 0.33933 0.38628 0.0
O873 O 0.14261 0.31337 0.34488 0.0
O874 O 0.14287 0.34939 0.32165 0.0
O875 O 0.17608 0.38071 0.3433 0.0
O876 O 0.12794 0.33288 0.36269 0.0
O877 O 0.18848 0.33128 0.38473 0.0
O878 O 0.18147 0.32794 0.29237 0.0
O879 O 0.18987 0.34869 0.33357 0.0
O880 O 0.18852 0.31285 0.35751 0.0
O881 O 0.16055 0.28257 0.33356 0.0
O882 O 0.20363 0.32862 0.31541 0.0
O883 O 0.1412 0.32986 0.29376 0.0
C884 C 0.1196 0.31208 0.35106 0.0
C885 C 0.25694 0.46562 0.37773 0.0
C886 C 0.27793 0.45676 0.3756 0.0
C887 C 0.16824 0.33142 0.39489 0.0
C888 C 0.1777 0.34378 0.413 0.0
C889 C 0.19892 0.37325 0.41539 0.0
C890 C 0.16553 0.32604 0.42805 0.0
C891 C 0.17493 0.33767 0.44542 0.0
C892 C 0.20801 0.38495 0.43254 0.0
C893 C 0.19621 0.36734 0.44745 0.0
C894 C 0.15747 0.3751 0.32988 0.0
C895 C 0.21241 0.34874 0.32754 0.0
C896 C 0.16301 0.33311 0.28371 0.0
C897 C 0.15529 0.32076 0.26546 0.0
C898 C 0.13528 0.29099 0.26287 0.0
C899 C 0.16886 0.33843 0.25053 0.0
C900 C 0.16281 0.32608 0.2332 0.0
C901 C 0.12922 0.27878 0.2457 0.0
C902 C 0.14301 0.29614 0.23096 0.0
C903 C 0.1774 0.28825 0.34802 0.0
H904 H 0.20849 0.38718 0.40402 0.0
H905 H 0.14924 0.30319 0.42622 0.0
H906 H 0.22434 0.40775 0.43429 0.0
H907 H 0.20358 0.37701 0.46064 0.0
H908 H 0.12447 0.27714 0.2741 0.0
H909 H 0.18445 0.36145 0.25241 0.0
H910 H 0.11389 0.25574 0.24384 0.0
H911 H 0.13811 0.28623 0.21773 0.0
Gd912 Gd 0.64312 0.82278 0.36027 0.0
Gd913 Gd 0.68531 0.84262 0.31834 0.0
C914 C 0.76567 0.83057 0.31234 0.0
C915 C 0.80546 0.88023 0.30801 0.0
C916 C 0.7549 0.86989 0.31212 0.0
C917 C 0.74534 0.84063 0.31374 0.0
C918 C 0.78491 0.88993 0.30868 0.0
C919 C 0.79586 0.8506 0.30989 0.0
C920 C 0.75495 0.80062 0.31291 0.0
C921 C 0.72455 0.78149 0.31415 0.0
N922 N 0.71593 0.82183 0.31572 0.0
C923 C 0.70522 0.79247 0.31526 0.0
H924 H 0.68187 0.7772 0.31628 0.0
C925 C 0.74196 0.90621 0.30818 0.0
N926 N 0.73443 0.87844 0.31254 0.0
C927 C 0.77147 0.92694 0.30477 0.0
C928 C 0.79314 0.91887 0.30531 0.0
H929 H 0.72521 0.91248 0.30786 0.0
H930 H 0.81183 0.84331 0.30891 0.0
H931 H 0.64838 0.88914 0.36374 0.0
H932 H 0.76986 0.79204 0.31197 0.0
H933 H 0.71595 0.75824 0.31428 0.0
H934 H 0.82867 0.89532 0.30554 0.0
H935 H 0.60184 0.75367 0.3719 0.0
H936 H 0.56108 0.87642 0.36613 0.0
H937 H 0.61533 0.90922 0.36544 0.0
H938 H 0.49985 0.77318 0.37125 0.0
H939 H 0.77749 0.9491 0.30178 0.0
H940 H 0.81597 0.93492 0.30258 0.0
H941 H 0.51802 0.82548 0.36792 0.0
H942 H 0.54913 0.71793 0.37753 0.0
N943 N 0.61351 0.84476 0.36299 0.0
C944 C 0.57555 0.86732 0.36538 0.0
C945 C 0.60614 0.88589 0.36507 0.0
C946 C 0.56407 0.83723 0.36545 0.0
C947 C 0.58389 0.82651 0.36437 0.0
C948 C 0.6249 0.87422 0.36412 0.0
N949 N 0.59363 0.78805 0.36613 0.0
C950 C 0.57361 0.79715 0.366 0.0
C951 C 0.55566 0.7401 0.37418 0.0
C952 C 0.53441 0.74862 0.37282 0.0
C953 C 0.58544 0.76036 0.37106 0.0
C954 C 0.54334 0.77762 0.36908 0.0
H955 H 0.51136 0.73293 0.37529 0.0
O956 O 0.64741 0.80323 0.38453 0.0
O957 O 0.68252 0.82779 0.34609 0.0
O958 O 0.6488 0.79514 0.31793 0.0
O959 O 0.61454 0.78731 0.34043 0.0
O960 O 0.65989 0.7909 0.36108 0.0
O961 O 0.65789 0.84829 0.38476 0.0
O962 O 0.67893 0.86131 0.2943 0.0
O963 O 0.64574 0.83738 0.33249 0.0
O964 O 0.68001 0.87025 0.36051 0.0
O965 O 0.71446 0.87717 0.33841 0.0
O966 O 0.66906 0.87486 0.31798 0.0
O967 O 0.67272 0.81778 0.29354 0.0
C968 C 0.68316 0.80574 0.35151 0.0
C969 C 0.52326 0.7879 0.36914 0.0
C970 C 0.53361 0.81768 0.36727 0.0
C971 C 0.65525 0.82659 0.39412 0.0
C972 C 0.64122 0.82255 0.41152 0.0
C973 C 0.61068 0.81139 0.41324 0.0
C974 C 0.65928 0.83078 0.4267 0.0
C975 C 0.64734 0.8287 0.44378 0.0
C976 C 0.59842 0.80857 0.4302 0.0
C977 C 0.6166 0.81726 0.44542 0.0
C978 C 0.62268 0.77929 0.32564 0.0
C979 C 0.64567 0.85987 0.32743 0.0
C980 C 0.67345 0.83885 0.28438 0.0
C981 C 0.68891 0.8452 0.26732 0.0
C982 C 0.71904 0.85371 0.26654 0.0
C983 C 0.67316 0.84238 0.25156 0.0
C984 C 0.6874 0.84767 0.23506 0.0
C985 C 0.73332 0.85936 0.25009 0.0
C986 C 0.71754 0.8562 0.23435 0.0
C987 C 0.70641 0.88565 0.35301 0.0
H988 H 0.59645 0.80506 0.40158 0.0
H989 H 0.6828 0.83891 0.42514 0.0
H990 H 0.57483 0.79998 0.43154 0.0
H991 H 0.6067 0.81558 0.45839 0.0
H992 H 0.7314 0.85572 0.27854 0.0
H993 H 0.64977 0.8355 0.2521 0.0
H994 H 0.75656 0.86587 0.24952 0.0
H995 H 0.72873 0.86017 0.22163 0.0
Gd996 Gd 0.1524 0.842 0.318 0.0
Gd997 Gd 0.17448 0.82319 0.36069 0.0
C998 C 0.26733 0.83607 0.36834 0.0
C999 C 0.25672 0.78658 0.37296 0.0
C1000 C 0.21656 0.79645 0.36797 0.0
C1001 C 0.23672 0.82571 0.36646 0.0
C1002 C 0.22623 0.77662 0.3718 0.0
C1003 C 0.27725 0.81626 0.37117 0.0
C1004 C 0.28698 0.86607 0.3679 0.0
C1005 C 0.27585 0.88495 0.36635 0.0
N1006 N 0.22628 0.84423 0.36412 0.0
C1007 C 0.2453 0.87364 0.36477 0.0
H1008 H 0.2373 0.88869 0.36362 0.0
C1009 C 0.16651 0.75983 0.37121 0.0
N1010 N 0.18734 0.78769 0.36701 0.0
C1011 C 0.17497 0.7393 0.37504 0.0
C1012 C 0.20495 0.74762 0.37504 0.0
H1013 H 0.1433 0.75332 0.37119 0.0
H1014 H 0.30068 0.82378 0.37252 0.0
H1015 H 0.08924 0.77835 0.31131 0.0
H1016 H 0.31066 0.87489 0.36922 0.0
H1017 H 0.29079 0.90824 0.36637 0.0
H1018 H 0.26461 0.77164 0.37572 0.0
H1019 H 0.18693 0.91408 0.31275 0.0
H1020 H 0.01815 0.79586 0.3061 0.0
H1021 H 0.03615 0.76081 0.3071 0.0
H1022 H 0.06747 0.90002 0.30628 0.0
H1023 H 0.15837 0.7171 0.37795 0.0
H1024 H 0.21147 0.73172 0.37807 0.0
H1025 H 0.03004 0.8479 0.30596 0.0
H1026 H 0.17381 0.95245 0.30888 0.0
N1027 N 0.1014 0.823 0.31328 0.0
C1028 C 0.04156 0.80374 0.30801 0.0
C1029 C 0.05164 0.78389 0.30851 0.0
C1030 C 0.06194 0.83356 0.30938 0.0
C1031 C 0.09216 0.84265 0.31191 0.0
C1032 C 0.08184 0.79398 0.31092 0.0
N1033 N 0.14213 0.8798 0.31376 0.0
C1034 C 0.11317 0.87195 0.31211 0.0
C1035 C 0.15654 0.92991 0.30984 0.0
C1036 C 0.12678 0.92234 0.30892 0.0
C1037 C 0.1639 0.90818 0.31197 0.0
C1038 C 0.10465 0.89303 0.30978 0.0
H1039 H 0.12114 0.93919 0.30716 0.0
O1040 O 0.17928 0.86069 0.2945 0.0
O1041 O 0.18691 0.83812 0.33291 0.0
O1042 O 0.18625 0.87067 0.35888 0.0
O1043 O 0.15162 0.87128 0.33957 0.0
O1044 O 0.2016 0.8749 0.31788 0.0
O1045 O 0.13951 0.81837 0.29255 0.0
O1046 O 0.14812 0.80634 0.38466 0.0
O1047 O 0.13911 0.82491 0.34534 0.0
O1048 O 0.14052 0.79467 0.31834 0.0
O1049 O 0.16897 0.78885 0.34046 0.0
O1050 O 0.12605 0.78879 0.36098 0.0
O1051 O 0.1867 0.84931 0.3852 0.0
C1052 C 0.20991 0.86047 0.32773 0.0
C1053 C 0.07449 0.88415 0.30795 0.0
C1054 C 0.05317 0.85447 0.30777 0.0
C1055 C 0.16161 0.83917 0.28397 0.0
C1056 C 0.15501 0.84738 0.26658 0.0
C1057 C 0.14373 0.86634 0.2657 0.0
C1058 C 0.16165 0.83749 0.25067 0.0
C1059 C 0.15746 0.84683 0.23387 0.0
C1060 C 0.13958 0.87574 0.24921 0.0
C1061 C 0.14655 0.86629 0.23344 0.0
C1062 C 0.17124 0.88278 0.35265 0.0
C1063 C 0.11692 0.80149 0.35026 0.0
C1064 C 0.1655 0.82893 0.3945 0.0
C1065 C 0.17385 0.82277 0.41202 0.0
C1066 C 0.18721 0.80559 0.41311 0.0
C1067 C 0.16824 0.83381 0.42781 0.0
C1068 C 0.17639 0.82795 0.44454 0.0
C1069 C 0.19472 0.79925 0.42965 0.0
C1070 C 0.18943 0.81038 0.44527 0.0
C1071 C 0.15193 0.77994 0.32589 0.0
H1072 H 0.13857 0.87425 0.27775 0.0
H1073 H 0.17003 0.82256 0.25145 0.0
H1074 H 0.13124 0.89071 0.24865 0.0
H1075 H 0.14379 0.87465 0.2209 0.0
H1076 H 0.19183 0.79698 0.40124 0.0
H1077 H 0.15813 0.84729 0.42707 0.0
H1078 H 0.20482 0.78579 0.43036 0.0
H1079 H 0.19554 0.80525 0.45799 0.0
Gd1080 Gd 0.84724 0.68481 0.69608 0.0
Gd1081 Gd 0.81972 0.65045 0.6513 0.0
C1082 C 0.72638 0.57309 0.64376 0.0
C1083 C 0.73603 0.53398 0.6363 0.0
C1084 C 0.77693 0.58307 0.64167 0.0
C1085 C 0.75714 0.59261 0.64501 0.0
C1086 C 0.76664 0.55379 0.63688 0.0
C1087 C 0.71594 0.54361 0.63977 0.0
C1088 C 0.70709 0.58394 0.64611 0.0
C1089 C 0.71865 0.61372 0.64897 0.0
N1090 N 0.76798 0.62127 0.6487 0.0
C1091 C 0.74934 0.63224 0.64998 0.0
H1092 H 0.75798 0.65519 0.6523 0.0
C1093 C 0.82663 0.59521 0.63698 0.0
N1094 N 0.80632 0.6028 0.64231 0.0
C1095 C 0.81751 0.56639 0.6322 0.0
C1096 C 0.78741 0.5455 0.63236 0.0
H1097 H 0.84994 0.61125 0.6369 0.0
H1098 H 0.69238 0.52822 0.63891 0.0
H1099 H 0.90824 0.67828 0.69513 0.0
H1100 H 0.68331 0.56965 0.64531 0.0
H1101 H 0.70394 0.62243 0.65046 0.0
H1102 H 0.72768 0.51132 0.63281 0.0
H1103 H 0.81868 0.72536 0.71033 0.0
H1104 H 0.98411 0.76254 0.70315 0.0
H1105 H 0.96223 0.70977 0.69731 0.0
H1106 H 0.94209 0.82282 0.716 0.0
H1107 H 0.8337 0.56031 0.62839 0.0
H1108 H 0.78039 0.52321 0.62859 0.0
H1109 H 0.97638 0.80466 0.70999 0.0
H1110 H 0.8361 0.77641 0.71922 0.0
N1111 N 0.89916 0.71281 0.69913 0.0
C1112 C 0.96027 0.74878 0.70218 0.0
C1113 C 0.94801 0.71901 0.69892 0.0
C1114 C 0.94158 0.7603 0.70463 0.0
C1115 C 0.91071 0.74146 0.7031 0.0
C1116 C 0.91725 0.70118 0.69769 0.0
N1117 N 0.86199 0.73264 0.70538 0.0
C1118 C 0.89151 0.75172 0.70634 0.0
C1119 C 0.85192 0.76979 0.71554 0.0
C1120 C 0.88222 0.79004 0.71575 0.0
C1121 C 0.84214 0.74091 0.71054 0.0
C1122 C 0.90248 0.78103 0.71138 0.0
H1123 H 0.88975 0.81237 0.71969 0.0
O1124 O 0.82149 0.67262 0.72045 0.0
O1125 O 0.80969 0.65154 0.67994 0.0
O1126 O 0.81141 0.68807 0.65696 0.0
O1127 O 0.84624 0.71809 0.67853 0.0
O1128 O 0.79965 0.67407 0.69849 0.0
O1129 O 0.86047 0.66839 0.71877 0.0
O1130 O 0.84527 0.66378 0.62689 0.0
O1131 O 0.85715 0.68408 0.66736 0.0
O1132 O 0.85616 0.64789 0.68995 0.0
O1133 O 0.82111 0.61706 0.66876 0.0
O1134 O 0.86762 0.66236 0.64842 0.0
O1135 O 0.80401 0.66394 0.6283 0.0
C1136 C 0.78857 0.65335 0.68671 0.0
C1137 C 0.93321 0.80015 0.71231 0.0
C1138 C 0.95273 0.78981 0.7089 0.0
C1139 C 0.83913 0.66611 0.72892 0.0
C1140 C 0.84704 0.67771 0.74731 0.0
C1141 C 0.8627 0.70785 0.75051 0.0
C1142 C 0.83767 0.65861 0.76188 0.0
C1143 C 0.8439 0.66975 0.7795 0.0
C1144 C 0.86872 0.71887 0.76798 0.0
C1145 C 0.85936 0.69996 0.78241 0.0
C1146 C 0.82719 0.71344 0.6655 0.0
C1147 C 0.87848 0.68298 0.6603 0.0
C1148 C 0.82612 0.66795 0.61825 0.0
C1149 C 0.81918 0.65584 0.59994 0.0
C1150 C 0.8055 0.62571 0.59696 0.0
C1151 C 0.82838 0.67463 0.58523 0.0
C1152 C 0.82465 0.66335 0.56769 0.0
C1153 C 0.80166 0.61447 0.5796 0.0
C1154 C 0.81138 0.63314 0.56505 0.0
C1155 C 0.84077 0.62247 0.68152 0.0
H1156 H 0.87008 0.72286 0.73955 0.0
H1157 H 0.82555 0.63529 0.75955 0.0
H1158 H 0.88067 0.74215 0.77034 0.0
H1159 H 0.86431 0.70889 0.79589 0.0
H1160 H 0.79816 0.61091 0.60803 0.0
H1161 H 0.83909 0.69796 0.58744 0.0
H1162 H 0.7913 0.59121 0.57742 0.0
H1163 H 0.80819 0.62396 0.55167 0.0
Gd1164 Gd 0.31032 0.16036 0.69369 0.0
Gd1165 Gd 0.35204 0.17367 0.65173 0.0
C1166 C 0.42921 0.15629 0.6462 0.0
C1167 C 0.4702 0.20435 0.63949 0.0
C1168 C 0.42085 0.19704 0.64431 0.0
C1169 C 0.41011 0.16787 0.64719 0.0
C1170 C 0.45086 0.21551 0.63994 0.0
C1171 C 0.4594 0.17479 0.64267 0.0
C1172 C 0.41728 0.12638 0.64841 0.0
C1173 C 0.3869 0.10871 0.65097 0.0
N1174 N 0.38077 0.15062 0.65035 0.0
C1175 C 0.36884 0.12117 0.65165 0.0
H1176 H 0.34552 0.10702 0.65375 0.0
C1177 C 0.41013 0.23461 0.6393 0.0
N1178 N 0.4015 0.20698 0.64461 0.0
C1179 C 0.43969 0.25384 0.63498 0.0
C1180 C 0.46026 0.24437 0.63554 0.0
H1181 H 0.39428 0.24201 0.63881 0.0
H1182 H 0.47442 0.16632 0.64195 0.0
H1183 H 0.31393 0.22545 0.69588 0.0
H1184 H 0.43121 0.11666 0.64783 0.0
H1185 H 0.37735 0.08547 0.65245 0.0
H1186 H 0.49337 0.21823 0.6363 0.0
H1187 H 0.27028 0.0898 0.70317 0.0
H1188 H 0.22568 0.21052 0.69956 0.0
H1189 H 0.27965 0.24446 0.69767 0.0
H1190 H 0.16685 0.10706 0.70536 0.0
H1191 H 0.44657 0.27593 0.6312 0.0
H1192 H 0.48311 0.25925 0.63209 0.0
H1193 H 0.18368 0.15913 0.70226 0.0
H1194 H 0.21783 0.053 0.70856 0.0
N1195 N 0.27975 0.18097 0.69608 0.0
C1196 C 0.24064 0.202 0.69873 0.0
C1197 C 0.27109 0.22122 0.69771 0.0
C1198 C 0.22995 0.17203 0.69922 0.0
C1199 C 0.25035 0.16206 0.69797 0.0
C1200 C 0.29047 0.2103 0.69669 0.0
N1201 N 0.26127 0.12414 0.6991 0.0
C1202 C 0.24082 0.13275 0.69959 0.0
C1203 C 0.22398 0.07532 0.70596 0.0
C1204 C 0.20238 0.0835 0.70558 0.0
C1205 C 0.25359 0.09614 0.70295 0.0
C1206 C 0.21072 0.11259 0.70265 0.0
H1207 H 0.17946 0.06734 0.70799 0.0
O1208 O 0.31788 0.14433 0.71842 0.0
O1209 O 0.34865 0.16199 0.68009 0.0
O1210 O 0.31402 0.12679 0.65436 0.0
O1211 O 0.27932 0.12777 0.67338 0.0
O1212 O 0.32564 0.12739 0.69668 0.0
O1213 O 0.32103 0.18664 0.71802 0.0
O1214 O 0.34345 0.18846 0.62676 0.0
O1215 O 0.31474 0.17445 0.66548 0.0
O1216 O 0.34781 0.20724 0.69216 0.0
O1217 O 0.38214 0.21005 0.67091 0.0
O1218 O 0.34091 0.20921 0.64917 0.0
O1219 O 0.33742 0.14518 0.62829 0.0
C1220 C 0.34881 0.14048 0.68678 0.0
C1221 C 0.19013 0.12225 0.70318 0.0
C1222 C 0.19972 0.1519 0.70143 0.0
C1223 C 0.32216 0.16698 0.72774 0.0
C1224 C 0.30781 0.16089 0.74523 0.0
C1225 C 0.27706 0.14309 0.74686 0.0
C1226 C 0.32558 0.17141 0.76063 0.0
C1227 C 0.31289 0.16378 0.77768 0.0
C1228 C 0.26429 0.13551 0.76377 0.0
C1229 C 0.28208 0.14559 0.77912 0.0
C1230 C 0.28671 0.11518 0.66068 0.0
C1231 C 0.31798 0.19796 0.65934 0.0
C1232 C 0.33725 0.16474 0.61804 0.0
C1233 C 0.35132 0.16887 0.60057 0.0
C1234 C 0.38226 0.18341 0.59905 0.0
C1235 C 0.33358 0.15958 0.58513 0.0
C1236 C 0.34676 0.16557 0.56823 0.0
C1237 C 0.39539 0.1893 0.58224 0.0
C1238 C 0.37774 0.18065 0.56685 0.0
C1239 C 0.37457 0.2205 0.68491 0.0
H1240 H 0.26302 0.13472 0.73513 0.0
H1241 H 0.34941 0.18485 0.75932 0.0
H1242 H 0.24056 0.12159 0.76497 0.0
H1243 H 0.27176 0.13944 0.79212 0.0
H1244 H 0.39626 0.19051 0.61077 0.0
H1245 H 0.30964 0.14837 0.58622 0.0
H1246 H 0.41928 0.20076 0.58114 0.0
H1247 H 0.38822 0.18549 0.55387 0.0
Gd1248 Gd 0.81637 0.17093 0.65161 0.0
Gd1249 Gd 0.84899 0.16843 0.69491 0.0
C1250 C 0.93799 0.17135 0.69687 0.0
C1251 C 0.92332 0.12125 0.70341 0.0
C1252 C 0.88621 0.13598 0.70122 0.0
C1253 C 0.908 0.16398 0.6973 0.0
C1254 C 0.8937 0.11446 0.70481 0.0
C1255 C 0.94544 0.14966 0.69943 0.0
C1256 C 0.95968 0.20048 0.69451 0.0
C1257 C 0.95128 0.22154 0.69337 0.0
N1258 N 0.90005 0.18444 0.69503 0.0
C1259 C 0.92124 0.21312 0.69381 0.0
H1260 H 0.91512 0.22964 0.69281 0.0
C1261 C 0.83631 0.1041 0.70903 0.0
N1262 N 0.85779 0.1302 0.70245 0.0
C1263 C 0.84265 0.08202 0.71264 0.0
C1264 C 0.87135 0.08704 0.71022 0.0
H1265 H 0.81405 0.0999 0.71099 0.0
H1266 H 0.96832 0.15483 0.69892 0.0
H1267 H 0.75611 0.10129 0.65551 0.0
H1268 H 0.98295 0.20703 0.69408 0.0
H1269 H 0.9679 0.24423 0.69198 0.0
H1270 H 0.92947 0.10492 0.7059 0.0
H1271 H 0.84005 0.2404 0.63934 0.0
H1272 H 0.67833 0.10628 0.64779 0.0
H1273 H 0.70268 0.07775 0.65393 0.0
H1274 H 0.7138 0.2061 0.63529 0.0
H1275 H 0.82539 0.06114 0.71731 0.0
H1276 H 0.8762 0.06992 0.71309 0.0
H1277 H 0.68269 0.15395 0.64098 0.0
H1278 H 0.81828 0.27075 0.63176 0.0
N1279 N 0.76393 0.1442 0.65046 0.0
C1280 C 0.70229 0.11713 0.64842 0.0
C1281 C 0.71594 0.10095 0.65186 0.0
C1282 C 0.71964 0.14701 0.64565 0.0
C1283 C 0.75085 0.16025 0.64672 0.0
C1284 C 0.74679 0.11474 0.65267 0.0
N1285 N 0.79843 0.20257 0.6447 0.0
C1286 C 0.76847 0.19005 0.64382 0.0
C1287 C 0.80404 0.2482 0.63526 0.0
C1288 C 0.7734 0.23616 0.63536 0.0
C1289 C 0.81623 0.2309 0.63958 0.0
C1290 C 0.75521 0.20674 0.63936 0.0
H1291 H 0.76398 0.24958 0.63189 0.0
O1292 O 0.84179 0.19539 0.62876 0.0
O1293 O 0.85861 0.18552 0.66727 0.0
O1294 O 0.8636 0.21484 0.68757 0.0
O1295 O 0.82686 0.21107 0.66839 0.0
O1296 O 0.85479 0.16594 0.64268 0.0
O1297 O 0.80357 0.15136 0.62514 0.0
O1298 O 0.82536 0.16734 0.71918 0.0
O1299 O 0.81002 0.16547 0.68072 0.0
O1300 O 0.80608 0.12488 0.657 0.0
O1301 O 0.84214 0.1304 0.6778 0.0
O1302 O 0.80116 0.13491 0.69998 0.0
O1303 O 0.87246 0.19487 0.71828 0.0
C1304 C 0.87189 0.17826 0.6561 0.0
C1305 C 0.72427 0.19355 0.63859 0.0
C1306 C 0.70656 0.16383 0.64178 0.0
C1307 C 0.82555 0.17406 0.61757 0.0
C1308 C 0.82094 0.18158 0.59949 0.0
C1309 C 0.80737 0.19815 0.59645 0.0
C1310 C 0.83156 0.17259 0.58497 0.0
C1311 C 0.82966 0.18082 0.5674 0.0
C1312 C 0.80545 0.20656 0.57913 0.0
C1313 C 0.81672 0.19825 0.56472 0.0
C1314 C 0.84835 0.22578 0.68018 0.0
C1315 C 0.78932 0.14425 0.68866 0.0
C1316 C 0.84914 0.18401 0.7283 0.0
C1317 C 0.85145 0.17249 0.74563 0.0
C1318 C 0.86389 0.15447 0.74661 0.0
C1319 C 0.8402 0.17847 0.76118 0.0
C1320 C 0.84161 0.16657 0.77764 0.0
C1321 C 0.86448 0.14195 0.76272 0.0
C1322 C 0.85337 0.14785 0.77813 0.0
C1323 C 0.82176 0.11528 0.6655 0.0
H1324 H 0.79838 0.20467 0.60735 0.0
H1325 H 0.8412 0.15904 0.58747 0.0
H1326 H 0.79537 0.21977 0.57686 0.0
H1327 H 0.81551 0.20578 0.55154 0.0
H1328 H 0.87317 0.15006 0.73495 0.0
H1329 H 0.83098 0.19273 0.76053 0.0
H1330 H 0.87376 0.12776 0.7633 0.0
H1331 H 0.85414 0.13787 0.79051 0.0
H1332 H 0.32434 0.89137 0.04825 0.0
H1333 H 0.36216 0.83558 0.04803 0.0
H1334 H 0.40596 0.87267 0.03252 0.0
H1335 H 0.43639 0.92353 0.02305 0.0
H1336 H 0.40051 0.98086 0.02617 0.0
H1337 H 0.35299 0.94074 0.03619 0.0
C1338 C 0.34193 0.8872 0.04443 0.0
C1339 C 0.34027 0.86102 0.04935 0.0
C1340 C 0.36751 0.90906 0.03616 0.0
C1341 C 0.36322 0.8558 0.04449 0.0
C1342 C 0.38824 0.87698 0.03566 0.0
C1343 C 0.41787 0.92694 0.02551 0.0
C1344 C 0.42165 0.95489 0.0238 0.0
C1345 C 0.39111 0.90409 0.03202 0.0
C1346 C 0.39786 0.95938 0.02739 0.0
C1347 C 0.37079 0.93651 0.03316 0.0
H1348 H 0.09778 0.42418 0.0416 0.0
H1349 H 0.17457 0.51021 0.04435 0.0
H1350 H 0.14477 0.53102 0.03388 0.0
H1351 H 0.09596 0.52491 0.02554 0.0
H1352 H 0.01917 0.43903 0.02445 0.0
H1353 H 0.04982 0.41792 0.03238 0.0
C1354 C 0.10814 0.44745 0.03966 0.0
C1355 C 0.1384 0.46559 0.04378 0.0
C1356 C 0.09081 0.45926 0.03385 0.0
C1357 C 0.15127 0.49577 0.04148 0.0
C1358 C 0.13427 0.50767 0.03541 0.0
C1359 C 0.08621 0.50155 0.0267 0.0
C1360 C 0.05564 0.48336 0.02374 0.0
C1361 C 0.10392 0.48967 0.03177 0.0
C1362 C 0.04286 0.45326 0.026 0.0
C1363 C 0.06033 0.44125 0.03071 0.0
H1364 H 0.55727 0.69054 0.02497 0.0
H1365 H 0.56258 0.6699 0.08 0.0
H1366 H 0.54395 0.61909 0.07156 0.0
H1367 H 0.52733 0.58086 0.04844 0.0
H1368 H 0.52637 0.60277 0.99323 0.0
H1369 H 0.54169 0.65261 1.00187 0.0
C1370 C 0.55459 0.675 0.03512 0.0
C1371 C 0.5614 0.68408 0.05308 0.0
C1372 C 0.54452 0.646 0.03014 0.0
C1373 C 0.55716 0.66347 0.0661 0.0
C1374 C 0.54672 0.63444 0.06127 0.0
C1375 C 0.53095 0.59661 0.03826 0.0
C1376 C 0.52578 0.58797 0.02016 0.0
C1377 C 0.5406 0.62553 0.04331 0.0
C1378 C 0.52966 0.60854 0.00724 0.0
C1379 C 0.53873 0.63721 0.01217 0.0
H1380 H 0.88092 0.30777 0.98613 0.0
H1381 H 0.83157 0.33668 0.95438 0.0
H1382 H 0.86698 0.38705 0.96242 0.0
H1383 H 0.91304 0.42318 0.97764 0.0
H1384 H 0.95955 0.39409 0.01154 0.0
H1385 H 0.92374 0.34332 0.00376 0.0
C1386 C 0.87732 0.32488 0.98125 0.0
C1387 C 0.85358 0.31813 0.96942 0.0
C1388 C 0.89741 0.35383 0.98624 0.0
C1389 C 0.84992 0.34101 0.96311 0.0
C1390 C 0.8701 0.36991 0.96779 0.0
C1391 C 0.91525 0.40563 0.98327 0.0
C1392 C 0.939 0.41214 0.99489 0.0
C1393 C 0.89419 0.37659 0.9791 0.0
C1394 C 0.94143 0.38942 1.00249 0.0
C1395 C 0.921 0.36048 0.99804 0.0
H1396 H 0.65295 0.51875 0.96128 0.0
H1397 H 0.70186 0.60071 0.99009 0.0
H1398 H 0.65601 0.59532 1.00146 0.0
H1399 H 0.60143 0.56916 1.00162 0.0
H1400 H 0.55328 0.48347 0.97788 0.0
H1401 H 0.59955 0.48821 0.96655 0.0
C1402 C 0.65404 0.53528 0.97035 0.0
C1403 C 0.68134 0.56089 0.9739 0.0
C1404 C 0.62754 0.5314 0.9778 0.0
C1405 C 0.68144 0.58158 0.98597 0.0
C1406 C 0.65511 0.57841 0.99278 0.0
C1407 C 0.60128 0.55139 0.99424 0.0
C1408 C 0.57428 0.52599 0.99065 0.0
C1409 C 0.62799 0.55381 0.98839 0.0
C1410 C 0.57404 0.50306 0.98101 0.0
C1411 C 0.60043 0.50584 0.97446 0.0
H1412 H 0.43552 0.11202 0.96039 0.0
H1413 H 0.52465 0.17989 0.97276 0.0
H1414 H 0.53307 0.14581 0.98994 0.0
H1415 H 0.51689 0.09569 0.99848 0.0
H1416 H 0.42863 0.02723 0.98459 0.0
H1417 H 0.41785 0.06259 0.97125 0.0
C1418 C 0.45655 0.11939 0.96715 0.0
C1419 C 0.47954 0.1482 0.96521 0.0
C1420 C 0.46146 0.09953 0.97659 0.0
C1421 C 0.5068 0.1576 0.9739 0.0
C1422 C 0.5116 0.13818 0.98372 0.0
C1423 C 0.49516 0.08859 0.99277 0.0
C1424 C 0.47376 0.05889 0.99222 0.0
C1425 C 0.48938 0.10891 0.9847 0.0
C1426 C 0.44567 0.04995 0.98484 0.0
C1427 C 0.43946 0.07015 0.97724 0.0
H1428 H 0.65692 0.1285 0.9733 0.0
H1429 H 0.68389 0.06641 0.95864 0.0
H1430 H 0.63709 0.02678 0.96923 0.0
H1431 H 0.58771 0.00918 0.98156 0.0
H1432 H 0.55833 0.06992 0.99402 0.0
H1433 H 0.60673 0.11057 0.98562 0.0
C1434 C 0.65246 0.10629 0.97232 0.0
C1435 C 0.67411 0.10058 0.96528 0.0
C1436 C 0.62512 0.08333 0.9782 0.0
C1437 C 0.66798 0.07161 0.96428 0.0
C1438 C 0.64111 0.04884 0.97025 0.0
C1439 C 0.59211 0.03138 0.98262 0.0
C1440 C 0.56991 0.03666 0.98887 0.0
C1441 C 0.61952 0.05441 0.97717 0.0
C1442 C 0.57546 0.06541 0.98978 0.0
C1443 C 0.60301 0.08861 0.98477 0.0
H1444 H 0.90334 0.58147 0.9745 0.0
H1445 H 0.8396 0.49187 0.96244 0.0
H1446 H 0.87338 0.47672 0.97465 0.0
H1447 H 0.92339 0.48985 0.98599 0.0
H1448 H 0.98654 0.57971 0.99788 0.0
H1449 H 0.95071 0.59394 0.98865 0.0
C1450 C 0.89683 0.55861 0.97463 0.0
C1451 C 0.86929 0.53785 0.96731 0.0
C1452 C 0.91629 0.55016 0.98165 0.0
C1453 C 0.86079 0.50825 0.9679 0.0
C1454 C 0.88013 0.49962 0.97482 0.0
C1455 C 0.92887 0.51239 0.987 0.0
C1456 C 0.9573 0.53374 0.9929 0.0
C1457 C 0.90823 0.52046 0.98138 0.0
C1458 C 0.96459 0.56297 0.99363 0.0
C1459 C 0.9442 0.57111 0.98826 0.0
H1460 H 0.4395 0.31189 0.98147 0.0
H1461 H 0.49277 0.35316 0.93518 0.0
H1462 H 0.50391 0.40071 0.94659 0.0
H1463 H 0.49776 0.4302 0.9689 0.0
H1464 H 0.44407 0.39118 0.01537 0.0
H1465 H 0.43372 0.34287 0.00478 0.0
C1466 C 0.45345 0.33141 0.97398 0.0
C1467 C 0.465 0.32925 0.95741 0.0
C1468 C 0.45951 0.35883 0.98057 0.0
C1469 C 0.48329 0.35447 0.9478 0.0
C1470 C 0.48973 0.38159 0.95433 0.0
C1471 C 0.48349 0.41115 0.9767 0.0
C1472 C 0.47127 0.41413 0.99273 0.0
C1473 C 0.4777 0.38394 0.97054 0.0
C1474 C 0.45356 0.38932 1.0029 0.0
C1475 C 0.44767 0.3618 0.99684 0.0
H1476 H 0.15513 0.67936 0.03145 0.0
H1477 H 0.11189 0.66415 0.08259 0.0
H1478 H 0.07062 0.61863 0.07125 0.0
H1479 H 0.04892 0.58135 0.04783 0.0
H1480 H 0.09159 0.59601 0.99664 0.0
H1481 H 0.13146 0.64296 0.0072 0.0
C1482 C 0.13665 0.66612 0.04011 0.0
C1483 C 0.13677 0.67526 0.05789 0.0
C1484 C 0.11309 0.63961 0.03359 0.0
C1485 C 0.11234 0.65798 0.0688 0.0
C1486 C 0.08881 0.63173 0.06238 0.0
C1487 C 0.0664 0.59496 0.03873 0.0
C1488 C 0.06676 0.58495 0.02125 0.0
C1489 C 0.0892 0.62211 0.04491 0.0
C1490 C 0.09045 0.60286 0.01006 0.0
C1491 C 0.11335 0.62987 0.01612 0.0
H1492 H 0.33745 0.48668 0.03863 0.0
H1493 H 0.3193 0.40038 0.0518 0.0
H1494 H 0.36798 0.41192 0.04117 0.0
H1495 H 0.41715 0.44736 0.03005 0.0
H1496 H 0.43744 0.53466 0.0189 0.0
H1497 H 0.38667 0.52205 0.02668 0.0
C1498 C 0.34418 0.47044 0.03922 0.0
C1499 C 0.32452 0.44263 0.04597 0.0
C1500 C 0.3726 0.47738 0.03333 0.0
C1501 C 0.33363 0.42179 0.04643 0.0
C1502 C 0.3616 0.4284 0.04044 0.0
C1503 C 0.41009 0.46333 0.02893 0.0
C1504 C 0.43038 0.49154 0.02335 0.0
C1505 C 0.38135 0.45615 0.03402 0.0
C1506 C 0.4217 0.51257 0.02268 0.0
C1507 C 0.39283 0.5054 0.02728 0.0
H1508 H 0.57878 0.89052 0.02814 0.0
H1509 H 0.50875 0.84471 0.06611 0.0
H1510 H 0.48385 0.87054 0.05569 0.0
H1511 H 0.48462 0.90962 0.03762 0.0
H1512 H 0.55591 0.95652 1.00073 0.0
H1513 H 0.57793 0.92692 0.00886 0.0
C1514 C 0.55808 0.88622 0.03414 0.0
C1515 C 0.54584 0.86615 0.04805 0.0
C1516 C 0.54427 0.90145 0.02832 0.0
C1517 C 0.5186 0.86014 0.05538 0.0
C1518 C 0.50446 0.87499 0.04951 0.0
C1519 C 0.50476 0.91292 0.03129 0.0
C1520 C 0.5189 0.93495 0.01872 0.0
C1521 C 0.51745 0.89617 0.03627 0.0
C1522 C 0.54492 0.93948 0.01048 0.0
C1523 C 0.55746 0.92268 0.01514 0.0
H1524 H 0.02089 0.18814 0.37425 0.0
H1525 H 0.97781 0.2363 0.38917 0.0
H1526 H 0.01717 0.27979 0.37483 0.0
H1527 H 0.06703 0.30542 0.36149 0.0
H1528 H 0.11024 0.25685 0.34777 0.0
H1529 H 0.06754 0.2122 0.35777 0.0
C1530 C 0.01999 0.2081 0.37413 0.0
C1531 C 0.99686 0.20929 0.38293 0.0
C1532 C 0.04276 0.23293 0.36608 0.0
C1533 C 0.99551 0.23501 0.38248 0.0
C1534 C 0.01807 0.25986 0.37438 0.0
C1535 C 0.06674 0.28491 0.3604 0.0
C1536 C 0.09172 0.28447 0.35383 0.0
C1537 C 0.04227 0.2593 0.36664 0.0
C1538 C 0.09126 0.25784 0.35254 0.0
C1539 C 0.06687 0.23225 0.35842 0.0
H1540 H 0.80815 0.82335 0.37464 0.0
H1541 H 0.75484 0.73065 0.38112 0.0
H1542 H 0.71107 0.7315 0.37024 0.0
H1543 H 0.68754 0.75876 0.35971 0.0
H1544 H 0.74042 0.85149 0.35313 0.0
H1545 H 0.78469 0.85053 0.36268 0.0
C1546 C 0.78689 0.80345 0.37362 0.0
C1547 C 0.78451 0.77698 0.37875 0.0
C1548 C 0.76182 0.80408 0.36713 0.0
C1549 C 0.75703 0.75122 0.37725 0.0
C1550 C 0.73206 0.75171 0.37103 0.0
C1551 C 0.70884 0.77869 0.36022 0.0
C1552 C 0.7107 0.80505 0.35545 0.0
C1553 C 0.73413 0.77801 0.36601 0.0
C1554 C 0.73838 0.8308 0.35638 0.0
C1555 C 0.76373 0.8303 0.36201 0.0
H1556 H 0.18715 0.0022 0.38062 0.0
H1557 H 0.27865 0.02875 0.37074 0.0
H1558 H 0.26438 0.97959 0.36067 0.0
H1559 H 0.22614 0.92876 0.35537 0.0
H1560 H 0.13432 0.90227 0.36311 0.0
H1561 H 0.14831 0.95155 0.37353 0.0
C1562 C 0.20388 0.99711 0.37627 0.0
C1563 C 0.23389 0.01896 0.37649 0.0
C1564 C 0.19547 0.96881 0.3703 0.0
C1565 C 0.25538 0.0123 0.37058 0.0
C1566 C 0.24728 0.98418 0.36492 0.0
C1567 C 0.20931 0.93384 0.35951 0.0
C1568 C 0.17941 0.9121 0.35895 0.0
C1569 C 0.21747 0.96224 0.36489 0.0
C1570 C 0.15753 0.91885 0.3637 0.0
C1571 C 0.16552 0.94693 0.3696 0.0
H1572 H 0.54813 0.66544 0.27867 0.0
H1573 H 0.50112 0.63506 0.32831 0.0
H1574 H 0.53263 0.68296 0.34212 0.0
H1575 H 0.57479 0.73256 0.34031 0.0
H1576 H 0.62314 0.76235 0.2911 0.0
H1577 H 0.58971 0.71563 0.27681 0.0
C1578 C 0.54451 0.66948 0.29243 0.0
C1579 C 0.5223 0.64682 0.30245 0.0
C1580 C 0.56305 0.69686 0.30036 0.0
C1581 C 0.51818 0.65216 0.32036 0.0
C1582 C 0.53616 0.67951 0.32825 0.0
C1583 C 0.57797 0.72903 0.32649 0.0
C1584 C 0.60162 0.75106 0.31694 0.0
C1585 C 0.5589 0.7019 0.31843 0.0
C1586 C 0.60536 0.74578 0.29892 0.0
C1587 C 0.58617 0.71905 0.29068 0.0
H1588 H 0.31989 0.84687 0.30671 0.0
H1589 H 0.36002 0.93994 0.30249 0.0
H1590 H 0.31433 0.93736 0.31256 0.0
H1591 H 0.26224 0.90861 0.32139 0.0
H1592 H 0.22171 0.81566 0.32605 0.0
H1593 H 0.26809 0.81818 0.31741 0.0
C1594 C 0.31853 0.86651 0.30807 0.0
C1595 C 0.34327 0.89355 0.30386 0.0
C1596 C 0.29214 0.86492 0.31407 0.0
C1597 C 0.34134 0.9189 0.30578 0.0
C1598 C 0.3152 0.91745 0.31149 0.0
C1599 C 0.26372 0.88898 0.32067 0.0
C1600 C 0.2387 0.86208 0.32453 0.0
C1601 C 0.2904 0.89059 0.31554 0.0
C1602 C 0.24077 0.83672 0.32343 0.0
C1603 C 0.26727 0.83813 0.31834 0.0
H1604 H 0.16703 0.48987 0.3008 0.0
H1605 H 0.08038 0.42884 0.28002 0.0
H1606 H 0.08233 0.38876 0.29474 0.0
H1607 H 0.1105 0.37111 0.31172 0.0
H1608 H 0.19646 0.43297 0.33346 0.0
H1609 H 0.19295 0.47288 0.32029 0.0
C1610 C 0.14853 0.46777 0.2997 0.0
C1611 C 0.12376 0.46194 0.28931 0.0
C1612 C 0.14979 0.44514 0.30825 0.0
C1613 C 0.09964 0.43352 0.288 0.0
C1614 C 0.10084 0.41072 0.29633 0.0
C1615 C 0.12835 0.39335 0.31363 0.0
C1616 C 0.15385 0.39909 0.32329 0.0
C1617 C 0.12607 0.41624 0.30619 0.0
C1618 C 0.17663 0.42801 0.326 0.0
C1619 C 0.1747 0.45084 0.31844 0.0
H1620 H 0.32461 0.46415 0.3047 0.0
H1621 H 0.36039 0.40637 0.30296 0.0
H1622 H 0.31494 0.36765 0.3156 0.0
H1623 H 0.26321 0.34856 0.32412 0.0
H1624 H 0.22763 0.40612 0.32705 0.0
H1625 H 0.27521 0.44687 0.31773 0.0
C1626 C 0.32279 0.44332 0.3074 0.0
C1627 C 0.34569 0.43804 0.30228 0.0
C1628 C 0.29666 0.42112 0.31502 0.0
C1629 C 0.34276 0.41082 0.30603 0.0
C1630 C 0.31687 0.38867 0.31345 0.0
C1631 C 0.2662 0.37022 0.3231 0.0
C1632 C 0.24217 0.37445 0.32628 0.0
C1633 C 0.29339 0.39333 0.3175 0.0
C1634 C 0.246 0.40247 0.3249 0.0
C1635 C 0.27312 0.42569 0.31937 0.0
H1636 H 0.52512 0.84903 0.30164 0.0
H1637 H 0.57959 0.9426 0.30476 0.0
H1638 H 0.62053 0.93834 0.31667 0.0
H1639 H 0.6426 0.90848 0.32387 0.0
H1640 H 0.58856 0.8151 0.32253 0.0
H1641 H 0.54578 0.81878 0.31261 0.0
C1642 C 0.54578 0.86846 0.30517 0.0
C1643 C 0.54943 0.89612 0.3017 0.0
C1644 C 0.56944 0.86592 0.31231 0.0
C1645 C 0.57638 0.92102 0.30659 0.0
C1646 C 0.59984 0.91866 0.31355 0.0
C1647 C 0.62132 0.88898 0.32161 0.0
C1648 C 0.61869 0.86164 0.32395 0.0
C1649 C 0.59691 0.89129 0.31601 0.0
C1650 C 0.59105 0.83644 0.32099 0.0
C1651 C 0.56663 0.83856 0.31522 0.0
H1652 H 0.11529 0.66829 0.27839 0.0
H1653 H 0.1545 0.64775 0.32258 0.0
H1654 H 0.16471 0.69275 0.33798 0.0
H1655 H 0.16496 0.7391 0.33785 0.0
H1656 H 0.12307 0.75768 0.2942 0.0
H1657 H 0.11175 0.71226 0.27952 0.0
C1658 C 0.12543 0.67323 0.29158 0.0
C1659 C 0.13419 0.65472 0.29928 0.0
C1660 C 0.13114 0.69897 0.30033 0.0
C1661 C 0.14788 0.66184 0.31624 0.0
C1662 C 0.1537 0.68753 0.32505 0.0
C1663 C 0.15288 0.73305 0.32535 0.0
C1664 C 0.14471 0.75184 0.31735 0.0
C1665 C 0.14586 0.7065 0.31706 0.0
C1666 C 0.12959 0.74373 0.30082 0.0
C1667 C 0.12303 0.71767 0.29236 0.0
H1668 H 0.78486 0.99647 0.40157 0.0
H1669 H 0.84832 0.01243 0.35997 0.0
H1670 H 0.8121 0.96827 0.34417 0.0
H1671 H 0.76318 0.92409 0.34289 0.0
H1672 H 0.69885 0.90985 0.3836 0.0
H1673 H 0.73474 0.95434 0.399 0.0
C1674 C 0.79066 0.99066 0.38888 0.0
C1675 C 0.81944 0.00775 0.38209 0.0
C1676 C 0.76964 0.96538 0.37975 0.0
C1677 C 0.82657 -0.00053 0.36573 0.0
C1678 C 0.80581 0.97426 0.35662 0.0
C1679 C 0.75672 0.9309 0.3549 0.0
C1680 C 0.72812 0.91353 0.36188 0.0
C1681 C 0.77738 0.95686 0.36362 0.0
C1682 C 0.72058 0.92262 0.37779 0.0
C1683 C 0.74113 0.94817 0.38666 0.0
H1684 H 0.98287 0.74904 0.36762 0.0
H1685 H 0.01236 0.83895 0.38029 0.0
H1686 H 0.061 0.85336 0.36769 0.0
H1687 H 0.09712 0.83953 0.35665 0.0
H1688 H 0.06816 0.74895 0.34728 0.0
H1689 H 0.01747 0.73564 0.355 0.0
C1690 C 0.99991 0.77182 0.36771 0.0
C1691 C 0.994 0.79277 0.37523 0.0
C1692 C 0.02805 0.77981 0.36101 0.0
C1693 C 0.01617 0.82228 0.37463 0.0
C1694 C 0.0441 0.83054 0.36751 0.0
C1695 C 0.07947 0.81702 0.35584 0.0
C1696 C 0.08609 0.79519 0.35117 0.0
C1697 C 0.05057 0.8094 0.36111 0.0
C1698 C 0.06334 0.76602 0.35068 0.0
C1699 C 0.03446 0.75842 0.35518 0.0
H1700 H 0.20562 0.18741 0.36195 0.0
H1701 H 0.26175 0.24912 0.40247 0.0
H1702 H 0.24457 0.2823 0.394 0.0
H1703 H 0.21509 0.29441 0.3748 0.0
H1704 H 0.15761 0.23303 0.33455 0.0
H1705 H 0.17374 0.19895 0.34332 0.0
C1706 C 0.21382 0.208 0.36901 0.0
C1707 C 0.2352 0.21597 0.38266 0.0
C1708 C 0.20379 0.22705 0.36409 0.0
C1709 C 0.24575 0.24276 0.39167 0.0
C1710 C 0.23583 0.26167 0.38691 0.0
C1711 C 0.20595 0.27362 0.36787 0.0
C1712 C 0.18563 0.26665 0.35373 0.0
C1713 C 0.21514 0.25417 0.37304 0.0
C1714 C 0.17384 0.23933 0.34518 0.0
C1715 C 0.18291 0.21973 0.35027 0.0
H1716 H 0.66374 0.56463 0.71654 0.0
H1717 H 0.69765 0.50637 0.70786 0.0
H1718 H 0.74053 0.54451 0.69235 0.0
H1719 H 0.77152 0.596 0.68533 0.0
H1720 H 0.7392 0.6552 0.69515 0.0
H1721 H 0.69231 0.61508 0.70596 0.0
C1722 C 0.68023 0.56018 0.7109 0.0
C1723 C 0.67788 0.53297 0.71356 0.0
C1724 C 0.70517 0.58242 0.70236 0.0
C1725 C 0.69937 0.5274 0.70624 0.0
C1726 C 0.72383 0.54914 0.69737 0.0
C1727 C 0.75391 0.59997 0.68931 0.0
C1728 C 0.75863 0.6284 0.68938 0.0
C1729 C 0.72747 0.57701 0.69593 0.0
C1730 C 0.73586 0.63336 0.69496 0.0
C1731 C 0.70917 0.61049 0.7012 0.0
H1732 H 0.4753 0.15737 0.70508 0.0
H1733 H 0.42091 0.06891 0.72212 0.0
H1734 H 0.37621 0.06916 0.7124 0.0
H1735 H 0.35246 0.09491 0.69956 0.0
H1736 H 0.40661 0.18455 0.68458 0.0
H1737 H 0.45127 0.18346 0.69257 0.0
C1738 C 0.4536 0.13823 0.70658 0.0
C1739 C 0.45117 0.11315 0.71424 0.0
C1740 C 0.42796 0.13869 0.70117 0.0
C1741 C 0.42309 0.08842 0.71622 0.0
C1742 C 0.3976 0.08856 0.71067 0.0
C1743 C 0.37407 0.11413 0.69797 0.0
C1744 C 0.37614 0.13949 0.69096 0.0
C1745 C 0.39972 0.11361 0.70318 0.0
C1746 C 0.40428 0.16444 0.68939 0.0
C1747 C 0.42993 0.16393 0.69413 0.0
H1748 H 0.86407 0.34816 0.70174 0.0
H1749 H 0.95091 0.36355 0.71604 0.0
H1750 H 0.93753 0.31481 0.70556 0.0
H1751 H 0.90114 0.26774 0.69303 0.0
H1752 H 0.81433 0.25157 0.67793 0.0
H1753 H 0.82776 0.30085 0.6878 0.0
C1754 C 0.87994 0.3407 0.70254 0.0
C1755 C 0.90839 0.35928 0.70964 0.0
C1756 C 0.87217 0.31268 0.6963 0.0
C1757 C 0.92896 0.34964 0.71049 0.0
C1758 C 0.92131 0.32179 0.70456 0.0
C1759 C 0.88512 0.27495 0.69187 0.0
C1760 C 0.85676 0.25602 0.68486 0.0
C1761 C 0.89299 0.30313 0.69752 0.0
C1762 C 0.8364 0.26584 0.6832 0.0
C1763 C 0.844 0.29393 0.68894 0.0
H1764 H 0.17587 0.99228 0.64042 0.0
H1765 H 0.2452 0.98046 0.61788 0.0
H1766 H 0.28215 0.03002 0.62666 0.0
H1767 H 0.29513 0.07619 0.64142 0.0
H1768 H 0.22651 0.08835 0.66484 0.0
H1769 H 0.18908 0.03942 0.65505 0.0
C1770 C 0.19905 0.00071 0.63735 0.0
C1771 C 0.20781 0.98266 0.62862 0.0
C1772 C 0.22036 0.02926 0.64267 0.0
C1773 C 0.23795 0.99379 0.6248 0.0
C1774 C 0.25909 0.02216 0.62976 0.0
C1775 C 0.27201 0.06827 0.64435 0.0
C1776 C 0.2638 0.08595 0.65402 0.0
C1777 C 0.25062 0.04002 0.63883 0.0
C1778 C 0.23361 0.07515 0.65762 0.0
C1779 C 0.21212 0.04715 0.65197 0.0
H1780 H 0.00704 0.24656 0.6372 0.0
H1781 H 0.99147 0.15901 0.63219 0.0
H1782 H 0.94069 0.13978 0.64263 0.0
H1783 H 0.89971 0.14774 0.65138 0.0
H1784 H 0.91477 0.235 0.65539 0.0
H1785 H 0.96688 0.25461 0.64736 0.0
C1786 C 0.99268 0.22329 0.63863 0.0
C1787 C 0.00305 0.20425 0.63382 0.0
C1788 C 0.96345 0.21238 0.6445 0.0
C1789 C 0.98395 0.17412 0.63552 0.0
C1790 C 0.95496 0.16312 0.64159 0.0
C1791 C 0.91471 0.17105 0.65088 0.0
C1792 C 0.90396 0.19004 0.65455 0.0
C1793 C 0.94436 0.18201 0.64588 0.0
C1794 C 0.92302 0.22014 0.65318 0.0
C1795 C 0.95265 0.23127 0.64843 0.0
H1796 H 0.83747 0.83088 0.64124 0.0
H1797 H 0.75382 0.77131 0.61617 0.0
H1798 H 0.75479 0.73013 0.6298 0.0
H1799 H 0.7816 0.71116 0.64671 0.0
H1800 H 0.86533 0.77106 0.67185 0.0
H1801 H 0.86208 0.81212 0.66041 0.0
C1802 C 0.8194 0.80885 0.63891 0.0
C1803 C 0.7958 0.80391 0.62763 0.0
C1804 C 0.82022 0.78545 0.64668 0.0
C1805 C 0.77218 0.77547 0.62487 0.0
C1806 C 0.77283 0.75199 0.63255 0.0
C1807 C 0.79906 0.7332 0.64975 0.0
C1808 C 0.82382 0.73807 0.65989 0.0
C1809 C 0.79709 0.75671 0.64313 0.0
C1810 C 0.84604 0.76673 0.66402 0.0
C1811 C 0.84428 0.79024 0.65744 0.0
H1812 H 0.99565 0.79969 0.64242 0.0
H1813 H 0.02341 0.73787 0.62885 0.0
H1814 H 0.97658 0.69814 0.63951 0.0
H1815 H 0.9266 0.68039 0.651 0.0
H1816 H 0.89747 0.74131 0.66359 0.0
H1817 H 0.94592 0.78186 0.65545 0.0
C1818 C 0.99138 0.77751 0.64183 0.0
C1819 C 0.01302 0.77178 0.63486 0.0
C1820 C 0.96423 0.7546 0.64797 0.0
C1821 C 0.0073 0.74294 0.63433 0.0
C1822 C 0.98047 0.72016 0.64036 0.0
C1823 C 0.93108 0.70262 0.65219 0.0
C1824 C 0.90872 0.70789 0.65816 0.0
C1825 C 0.95869 0.72568 0.64703 0.0
C1826 C 0.91453 0.7367 0.65944 0.0
C1827 C 0.94216 0.75989 0.65457 0.0
H1828 H 0.24309 0.25476 0.63684 0.0
H1829 H 0.17106 0.16625 0.64055 0.0
H1830 H 0.20557 0.15105 0.65115 0.0
H1831 H 0.25726 0.1627 0.6576 0.0
H1832 H 0.32788 0.2519 0.6548 0.0
H1833 H 0.29275 0.26704 0.64596 0.0
C1834 C 0.23462 0.2322 0.6403 0.0
C1835 C 0.20436 0.21175 0.63778 0.0
C1836 C 0.25445 0.22369 0.64658 0.0
C1837 C 0.19426 0.18248 0.642 0.0
C1838 C 0.21398 0.17377 0.64819 0.0
C1839 C 0.26471 0.18549 0.65548 0.0
C1840 C 0.29507 0.20625 0.65706 0.0
C1841 C 0.24426 0.19413 0.65029 0.0
C1842 C 0.30459 0.23561 0.65382 0.0
C1843 C 0.28454 0.24427 0.6487 0.0
H1844 H 0.83245 0.0087 0.63887 0.0
H1845 H 0.74042 0.97559 0.62532 0.0
H1846 H 0.7431 0.01922 0.63825 0.0
H1847 H 0.77253 0.06804 0.65177 0.0
H1848 H 0.86355 0.09926 0.6668 0.0
H1849 H 0.85994 0.0545 0.65539 0.0
C1850 C 0.81266 0.01048 0.63913 0.0
C1851 C 0.78637 0.98891 0.6309 0.0
C1852 C 0.81418 0.03534 0.64682 0.0
C1853 C 0.76118 0.99211 0.63117 0.0
C1854 C 0.76263 0.017 0.63865 0.0
C1855 C 0.79149 0.06498 0.65261 0.0
C1856 C 0.81832 0.08706 0.65993 0.0
C1857 C 0.78921 0.03903 0.64616 0.0
C1858 C 0.8426 0.08258 0.66124 0.0
C1859 C 0.84061 0.05703 0.65465 0.0
H1860 H 0.45782 0.32737 0.73462 0.0
H1861 H 0.5103 0.35528 0.68669 0.0
H1862 H 0.47328 0.31137 0.67091 0.0
H1863 H 0.42638 0.26438 0.67107 0.0
H1864 H 0.37352 0.23841 0.7189 0.0
H1865 H 0.41016 0.2824 0.73424 0.0
C1866 C 0.46098 0.32427 0.72062 0.0
C1867 C 0.4869 0.34469 0.71192 0.0
C1868 C 0.43954 0.29918 0.71159 0.0
C1869 C 0.49077 0.33978 0.69384 0.0
C1870 C 0.46955 0.3147 0.68477 0.0
C1871 C 0.42281 0.26836 0.68478 0.0
C1872 C 0.39709 0.24798 0.6937 0.0
C1873 C 0.44395 0.29408 0.69358 0.0
C1874 C 0.3929 0.2537 0.71155 0.0
C1875 C 0.41393 0.27889 0.72042 0.0
H1876 H 0.67024 0.14453 0.70483 0.0
H1877 H 0.64979 0.0626 0.72824 0.0
H1878 H 0.69663 0.06877 0.718 0.0
H1879 H 0.74386 0.09727 0.703 0.0
H1880 H 0.76853 0.18204 0.683 0.0
H1881 H 0.71967 0.1748 0.69094 0.0
C1882 C 0.67613 0.12816 0.70782 0.0
C1883 C 0.65596 0.10281 0.71702 0.0
C1884 C 0.70378 0.13215 0.70226 0.0
C1885 C 0.66422 0.0819 0.72074 0.0
C1886 C 0.69119 0.08545 0.71499 0.0
C1887 C 0.73841 0.11405 0.70023 0.0
C1888 C 0.75928 0.13965 0.69182 0.0
C1889 C 0.71105 0.11036 0.7057 0.0
C1890 C 0.75233 0.16161 0.6888 0.0
C1891 C 0.72456 0.15763 0.6936 0.0
H1892 H 0.8585 0.52135 0.70929 0.0
H1893 H 0.94911 0.58398 0.69631 0.0
H1894 H 0.9335 0.61672 0.68463 0.0
H1895 H 0.89488 0.62928 0.68024 0.0
H1896 H 0.80389 0.56628 0.69106 0.0
H1897 H 0.8187 0.53146 0.70107 0.0
C1898 C 0.87476 0.54188 0.70358 0.0
C1899 C 0.90505 0.55049 0.70413 0.0
C1900 C 0.86558 0.56052 0.69657 0.0
C1901 C 0.92578 0.5772 0.69663 0.0
C1902 C 0.91689 0.59589 0.68982 0.0
C1903 C 0.87837 0.6078 0.6847 0.0
C1904 C 0.84858 0.60026 0.68535 0.0
C1905 C 0.88701 0.58808 0.69015 0.0
C1906 C 0.82703 0.57233 0.69065 0.0
C1907 C 0.83552 0.55259 0.69639 0.0
H1908 H 0.47619 0.92435 0.17732 0.0
H1909 H 0.45313 0.98576 0.19948 0.0
H1910 H 0.46585 0.01194 0.17153 0.0
H1911 H 0.48635 0.01954 0.14136 0.0
H1912 H 0.51119 0.95969 0.11913 0.0
H1913 H 0.49521 0.93105 0.14648 0.0
C1914 C 0.47394 0.94345 0.17606 0.0
C1915 C 0.46351 0.95281 0.19062 0.0
C1916 C 0.48188 0.95894 0.15993 0.0
C1917 C 0.46045 0.97749 0.18853 0.0
C1918 C 0.46806 0.99279 0.17255 0.0
C1919 C 0.48831 0.00024 0.14252 0.0
C1920 C 0.5002 0.99192 0.1283 0.0
C1921 C 0.47921 0.98399 0.15827 0.0
C1922 C 0.50202 0.96652 0.12986 0.0
C1923 C 0.49301 0.95021 0.14553 0.0
H1924 H 0.07395 0.52362 0.17041 0.0
H1925 H 0.00374 0.52044 0.20235 0.0
H1926 H 0.96978 0.50115 0.17664 0.0
H1927 H 0.96059 0.48592 0.14491 0.0
H1928 H 0.03069 0.48615 0.11406 0.0
H1929 H 0.06431 0.50657 0.1394 0.0
C1930 C 0.05127 0.51894 0.17168 0.0
C1931 C 0.04136 0.52369 0.18811 0.0
C1932 C 0.03193 0.50752 0.15701 0.0
C1933 C 0.01178 0.51694 0.18976 0.0
C1934 C 0.99244 0.50598 0.17508 0.0
C1935 C 0.98308 0.49007 0.14378 0.0
C1936 C 0.99306 0.48487 0.12743 0.0
C1937 C 0.00229 0.50116 0.15863 0.0
C1938 C 0.02247 0.49065 0.12625 0.0
C1939 C 0.04175 0.50212 0.14081 0.0
H1940 H 0.44469 0.51744 0.17606 0.0
H1941 H 0.52479 0.52378 0.19716 0.0
H1942 H 0.53506 0.50959 0.16824 0.0
H1943 H 0.5186 0.48994 0.13795 0.0
H1944 H 0.43882 0.48298 0.11634 0.0
H1945 H 0.43107 0.50285 0.14431 0.0
C1946 C 0.46449 0.51594 0.17425 0.0
C1947 C 0.48384 0.52158 0.18882 0.0
C1948 C 0.47022 0.50744 0.15751 0.0
C1949 C 0.50963 0.5199 0.18618 0.0
C1950 C 0.51546 0.51154 0.16966 0.0
C1951 C 0.49989 0.49339 0.13931 0.0
C1952 C 0.47923 0.48503 0.1253 0.0
C1953 C 0.49557 0.50456 0.15538 0.0
C1954 C 0.45502 0.48948 0.12704 0.0
C1955 C 0.45051 0.50061 0.14304 0.0
H1956 H 0.934 0.44519 0.8304 0.0
H1957 H 0.97874 0.53647 0.81773 0.0
H1958 H 1.00001 0.54899 0.84773 0.0
H1959 H 0.01081 0.53372 0.87627 0.0
H1960 H 0.96638 0.4428 0.88926 0.0
H1961 H 0.94014 0.43025 0.86043 0.0
C1962 C 0.94809 0.46781 0.83433 0.0
C1963 C 0.95497 0.48983 0.82184 0.0
C1964 C 0.96063 0.47486 0.85154 0.0
C1965 C 0.9729 0.5191 0.82714 0.0
C1966 C 0.98535 0.5263 0.84424 0.0
C1967 C 0.99508 0.51124 0.87278 0.0
C1968 C 0.99066 0.48911 0.88453 0.0
C1969 C 0.98012 0.50433 0.85632 0.0
C1970 C 0.97005 0.46005 0.88022 0.0
C1971 C 0.95517 0.45293 0.86378 0.0
H1972 H 0.56937 0.48051 0.84103 0.0
H1973 H 0.49535 0.46711 0.80833 0.0
H1974 H 0.47308 0.47735 0.8341 0.0
H1975 H 0.47389 0.48849 0.86601 0.0
H1976 H 0.54956 0.50496 0.89834 0.0
H1977 H 0.57127 0.49398 0.87277 0.0
C1978 C 0.54833 0.47979 0.83958 0.0
C1979 C 0.53399 0.473 0.82281 0.0
C1980 C 0.53573 0.48582 0.85443 0.0
C1981 C 0.50695 0.47253 0.82105 0.0
C1982 C 0.49412 0.47819 0.83581 0.0
C1983 C 0.49537 0.49023 0.86749 0.0
C1984 C 0.50985 0.4975 0.88426 0.0
C1985 C 0.50826 0.48475 0.85257 0.0
C1986 C 0.53742 0.49886 0.88581 0.0
C1987 C 0.55009 0.49287 0.8711 0.0
H1988 H 0.54109 0.08258 0.8351 0.0
H1989 H 0.48368 0.99866 0.81063 0.0
H1990 H 0.47343 0.97574 0.83976 0.0
H1991 H 0.48253 0.97881 0.87191 0.0
H1992 H 0.53903 0.06188 0.89729 0.0
H1993 H 0.54749 0.08604 0.86827 0.0
C1994 C 0.52633 0.05932 0.83625 0.0
C1995 C 0.51316 0.04231 0.82075 0.0
C1996 C 0.52022 0.04619 0.85319 0.0
C1997 C 0.4939 0.01222 0.82237 0.0
C1998 C 0.48804 -0.00093 0.83901 0.0
C1999 C 0.49634 0.00227 0.87108 0.0
C2000 C 0.5102 0.0186 0.88658 0.0
C2001 C 0.50122 0.01576 0.85446 0.0
C2002 C 0.52797 0.04897 0.88547 0.0
C2003 C 0.53301 0.06268 0.86888 0.0
H2004 H 0.10709 0.26238 0.51278 0.0
H2005 H 0.19733 0.29952 0.5316 0.0
H2006 H 0.21559 0.3226 0.50296 0.0
H2007 H 0.20647 0.33488 0.47321 0.0
H2008 H 0.11697 0.29923 0.45381 0.0
H2009 H 0.09796 0.27289 0.48187 0.0
C2010 C 0.13073 0.27544 0.51057 0.0
C2011 C 0.15073 0.27894 0.5244 0.0
C2012 C 0.14128 0.28907 0.49396 0.0
C2013 C 0.18133 0.29584 0.52119 0.0
C2014 C 0.19188 0.30934 0.50483 0.0
C2015 C 0.18279 0.32129 0.47511 0.0
C2016 C 0.16316 0.31928 0.46156 0.0
C2017 C 0.17212 0.30644 0.49123 0.0
C2018 C 0.13255 0.30111 0.46405 0.0
C2019 C 0.12168 0.28619 0.48013 0.0
H2020 H 0.74766 0.88728 0.50231 0.0
H2021 H 0.68101 0.81819 0.53417 0.0
H2022 H 0.64775 0.80002 0.50834 0.0
H2023 H 0.63726 0.80439 0.47683 0.0
H2024 H 0.70239 0.87683 0.44632 0.0
H2025 H 0.73635 0.89323 0.47167 0.0
C2026 C 0.72569 0.86855 0.50379 0.0
C2027 C 0.71694 0.85428 0.52025 0.0
C2028 C 0.70632 0.8588 0.48911 0.0
C2029 C 0.68862 0.82946 0.52162 0.0
C2030 C 0.66943 0.81917 0.5069 0.0
C2031 C 0.65871 0.82397 0.4758 0.0
C2032 C 0.66728 0.83913 0.45962 0.0
C2033 C 0.67798 0.8338 0.4906 0.0
C2034 C 0.69538 0.8643 0.45846 0.0
C2035 C 0.7148 0.87386 0.473 0.0
H2036 H 0.17871 0.87323 0.52263 0.0
H2037 H 0.08554 0.83715 0.51169 0.0
H2038 H 0.0929 0.82663 0.48074 0.0
H2039 H 0.12555 0.82412 0.45748 0.0
H2040 H 0.21825 0.85923 0.46946 0.0
H2041 H 0.2115 0.87427 0.49917 0.0
C2042 C 0.16007 0.86371 0.5134 0.0
C2043 C 0.13162 0.85605 0.51949 0.0
C2044 C 0.16441 0.85742 0.49579 0.0
C2045 C 0.10764 0.84306 0.50739 0.0
C2046 C 0.11186 0.83709 0.48968 0.0
C2047 C 0.14428 0.83555 0.46653 0.0
C2048 C 0.17233 0.84042 0.46139 0.0
C2049 C 0.14008 0.84364 0.48382 0.0
C2050 C 0.19643 0.85505 0.47323 0.0
C2051 C 0.19258 0.86362 0.49021 0.0
H2052 H 0.63348 0.85167 0.16098 0.0
H2053 H 0.63317 0.77077 0.15425 0.0
H2054 H 0.64895 0.7735 0.18525 0.0
H2055 H 0.66852 0.80176 0.21303 0.0
H2056 H 0.66921 0.88257 0.22017 0.0
H2057 H 0.64715 0.87697 0.19031 0.0
C2058 C 0.63621 0.83435 0.16646 0.0
C2059 C 0.63275 0.81135 0.15532 0.0
C2060 C 0.64563 0.83623 0.18425 0.0
C2061 C 0.63635 0.789 0.16252 0.0
C2062 C 0.64533 0.79052 0.18022 0.0
C2063 C 0.66337 0.81783 0.20804 0.0
C2064 C 0.67061 0.84264 0.21839 0.0
C2065 C 0.651 0.8145 0.19098 0.0
C2066 C 0.66382 0.8634 0.21216 0.0
C2067 C 0.65133 0.86021 0.19516 0.0
H2068 H 0.17379 0.80997 0.15561 0.0
H2069 H 0.24717 0.80906 0.18144 0.0
H2070 H 0.23448 0.82297 0.2099 0.0
H2071 H 0.20313 0.83641 0.22734 0.0
H2072 H 0.1279 0.83445 0.20178 0.0
H2073 H 0.14104 0.82123 0.17341 0.0
C2074 C 0.1871 0.81305 0.16745 0.0
C2075 C 0.21147 0.80866 0.16639 0.0
C2076 C 0.17943 0.82067 0.18386 0.0
C2077 C 0.22823 0.81223 0.18192 0.0
C2078 C 0.22102 0.82022 0.1982 0.0
C2079 C 0.1893 0.83269 0.21567 0.0
C2080 C 0.16471 0.83685 0.21682 0.0
C2081 C 0.19664 0.82451 0.19934 0.0
C2082 C 0.14737 0.83217 0.20135 0.0
C2083 C 0.15474 0.82438 0.18507 0.0
H2084 H 0.21665 0.37159 0.15752 0.0
H2085 H 0.16581 0.41499 0.16286 0.0
H2086 H 0.15317 0.39777 0.19345 0.0
H2087 H 0.15309 0.36679 0.21797 0.0
H2088 H 0.20349 0.32325 0.21226 0.0
H2089 H 0.22069 0.34498 0.18288 0.0
C2090 C 0.20343 0.37798 0.16546 0.0
C2091 C 0.19202 0.3944 0.15768 0.0
C2092 C 0.19622 0.368 0.1831 0.0
C2093 C 0.17447 0.4019 0.16826 0.0
C2094 C 0.16734 0.39219 0.18585 0.0
C2095 C 0.16839 0.36271 0.2104 0.0
C2096 C 0.17717 0.34361 0.21718 0.0
C2097 C 0.17756 0.37471 0.1933 0.0
C2098 C 0.1966 0.33801 0.20724 0.0
C2099 C 0.20626 0.35028 0.19042 0.0
H2100 H 0.83711 0.60917 0.8522 0.0
H2101 H 0.75281 0.60589 0.85436 0.0
H2102 H 0.7603 0.6255 0.8243 0.0
H2103 H 0.79292 0.64777 0.7983 0.0
H2104 H 0.8765 0.65014 0.79596 0.0
H2105 H 0.86683 0.62593 0.82489 0.0
C2106 C 0.81997 0.612 0.84599 0.0
C2107 C 0.79462 0.60639 0.85579 0.0
C2108 C 0.82431 0.62316 0.82858 0.0
C2109 C 0.77291 0.61063 0.84741 0.0
C2110 C 0.77707 0.62172 0.83013 0.0
C2111 C 0.80859 0.64229 0.80401 0.0
C2112 C 0.83527 0.65045 0.79511 0.0
C2113 C 0.803 0.62871 0.82074 0.0
C2114 C 0.85572 0.64374 0.80261 0.0
C2115 C 0.85026 0.6301 0.81917 0.0
H2116 H 0.40335 0.2286 0.84085 0.0
H2117 H 0.36216 0.14119 0.86106 0.0
H2118 H 0.32917 0.12331 0.83503 0.0
H2119 H 0.31285 0.13235 0.80608 0.0
H2120 H 0.35576 0.21941 0.78539 0.0
H2121 H 0.38772 0.23751 0.81189 0.0
C2122 C 0.38738 0.20557 0.8395 0.0
C2123 C 0.38532 0.18629 0.85292 0.0
C2124 C 0.36887 0.19537 0.82437 0.0
C2125 C 0.36401 0.15661 0.85108 0.0
C2126 C 0.34526 0.14632 0.83613 0.0
C2127 C 0.32907 0.1553 0.80749 0.0
C2128 C 0.33192 0.17457 0.79388 0.0
C2129 C 0.34755 0.16549 0.82267 0.0
C2130 C 0.3533 0.20418 0.79567 0.0
C2131 C 0.37149 0.21453 0.81082 0.0
H2132 H 0.78178 0.18583 0.84621 0.0
H2133 H 0.86316 0.19866 0.86969 0.0
H2134 H 0.88006 0.19266 0.84057 0.0
H2135 H 0.87157 0.18234 0.80879 0.0
H2136 H 0.79052 0.16819 0.78435 0.0
H2137 H 0.77389 0.17676 0.81333 0.0
C2138 C 0.80317 0.1873 0.84487 0.0
C2139 C 0.82128 0.19292 0.86009 0.0
C2140 C 0.81287 0.18373 0.82793 0.0
C2141 C 0.84902 0.19488 0.85817 0.0
C2142 C 0.85867 0.1913 0.84153 0.0
C2143 C 0.85018 0.181 0.8098 0.0
C2144 C 0.8321 0.17418 0.79456 0.0
C2145 C 0.84076 0.18555 0.82639 0.0
C2146 C 0.80483 0.17336 0.79594 0.0
C2147 C 0.79525 0.17806 0.81252 0.0
H2148 H 0.27764 0.10922 0.49675 0.0
H2149 H 0.30993 0.19958 0.48518 0.0
H2150 H 0.32937 0.2134 0.51554 0.0
H2151 H 0.34251 0.20044 0.54416 0.0
H2152 H 0.31053 0.11046 0.55604 0.0
H2153 H 0.28568 0.09571 0.52678 0.0
C2154 C 0.28864 0.13188 0.50098 0.0
C2155 C 0.29259 0.15335 0.48871 0.0
C2156 C 0.30012 0.13973 0.51841 0.0
C2157 C 0.30645 0.1826 0.4944 0.0
C2158 C 0.31782 0.19058 0.51172 0.0
C2159 C 0.3297 0.17762 0.54035 0.0
C2160 C 0.32846 0.15649 0.55191 0.0
C2161 C 0.31558 0.16944 0.52363 0.0
C2162 C 0.31169 0.12695 0.54715 0.0
C2163 C 0.29763 0.11859 0.53047 0.0
H2164 H 0.89412 0.14354 0.50999 0.0
H2165 H 0.82572 0.14065 0.47615 0.0
H2166 H 0.80592 0.15475 0.50151 0.0
H2167 H 0.80764 0.1672 0.53325 0.0
H2168 H 0.87817 0.17331 0.56668 0.0
H2169 H 0.89674 0.15755 0.54168 0.0
C2170 C 0.87475 0.14582 0.50821 0.0
C2171 C 0.86136 0.141 0.49123 0.0
C2172 C 0.86366 0.15419 0.52281 0.0
C2173 C 0.83656 0.14446 0.48906 0.0
C2174 C 0.82516 0.15239 0.50356 0.0
C2175 C 0.82737 0.1656 0.53509 0.0
C2176 C 0.84129 0.17147 0.55199 0.0
C2177 C 0.83856 0.15736 0.52049 0.0
C2178 C 0.86647 0.16846 0.55403 0.0
C2179 C 0.87736 0.15969 0.53965 0.0
H2180 H 0.83969 0.7392 0.49994 0.0
H2181 H 0.89618 0.7053 0.48424 0.0
H2182 H 0.88867 0.68175 0.5131 0.0
H2183 H 0.86281 0.6674 0.54189 0.0
H2184 H 0.80742 0.70207 0.55824 0.0
H2185 H 0.81778 0.72882 0.53018 0.0
C2186 C 0.85053 0.72686 0.50293 0.0
C2187 C 0.86837 0.72393 0.48991 0.0
C2188 C 0.84617 0.71338 0.51964 0.0
C2189 C 0.88254 0.70812 0.49405 0.0
C2190 C 0.8781 0.69446 0.51052 0.0
C2191 C 0.85333 0.68112 0.53935 0.0
C2192 C 0.8342 0.68264 0.55196 0.0
C2193 C 0.85952 0.69647 0.52327 0.0
C2194 C 0.82226 0.70067 0.54869 0.0
C2195 C 0.82805 0.7158 0.53262 0.0
loop_
_geom_bond_atom_site_label_1
_geom_bond_atom_site_label_2
_geom_bond_distance
_geom_bond_site_symmetry_2
_ccdc_geom_bond_type
P0 O11 1.490 . S
P0 C14 1.812 . S
P0 C20 1.803 . S
P0 C26 1.819 . S
H1 C15 0.941 . S
H2 C16 0.939 . S
H3 C18 0.940 . S
H4 C19 0.940 . S
H5 C21 0.939 . S
H6 C22 0.942 . S
H7 C24 0.940 . S
H8 C25 0.939 . S
H9 C27 0.941 . S
H10 C31 0.939 . S
O11 P0 1.490 . S
H12 C28 0.939 . S
H13 C30 0.940 . S
C14 P0 1.812 . S
C14 C15 1.389 . S
C14 C19 1.391 . S
C15 H1 0.941 . S
C15 C14 1.389 . S
C15 C16 1.397 . S
C16 H2 0.939 . S
C16 C15 1.397 . S
C16 C17 1.378 . S
C17 C16 1.378 . S
C17 C18 1.378 . S
C18 H3 0.940 . S
C18 C17 1.378 . S
C18 C19 1.396 . S
C19 H4 0.940 . S
C19 C14 1.391 . S
C19 C18 1.396 . S
C20 P0 1.803 . S
C20 C21 1.378 . S
C20 C25 1.400 . S
C21 H5 0.939 . S
C21 C20 1.378 . S
C21 C22 1.361 . S
C22 H6 0.942 . S
C22 C21 1.361 . S
C22 C23 1.369 . S
C23 C22 1.369 . S
C23 C24 1.404 . S
C24 H7 0.940 . S
C24 C23 1.404 . S
C24 C25 1.389 . S
C25 H8 0.939 . S
C25 C20 1.400 . S
C25 C24 1.389 . S
C26 P0 1.819 . S
C26 C27 1.391 . S
C26 C31 1.391 . S
C27 H9 0.941 . S
C27 C26 1.391 . S
C27 C28 1.396 . S
C28 H12 0.939 . S
C28 C27 1.396 . S
C28 C29 1.397 . S
C29 C28 1.397 . S
C29 C30 1.385 . S
C30 H13 0.940 . S
C30 C29 1.385 . S
C30 C31 1.388 . S
C31 H10 0.939 . S
C31 C26 1.391 . S
C31 C30 1.388 . S
P32 O43 1.490 . S
P32 C46 1.812 . S
P32 C52 1.803 . S
P32 C58 1.819 . S
H33 C47 0.941 . S
H34 C48 0.939 . S
H35 C50 0.940 . S
H36 C51 0.940 . S
H37 C53 0.939 . S
H38 C54 0.924 1_455 S
H39 C56 0.940 . S
H40 C57 0.939 . S
H41 C59 0.941 . S
H42 C63 0.939 . S
O43 P32 1.490 . S
H44 C60 0.939 . S
H45 C62 0.940 . S
C46 P32 1.812 . S
C46 C47 1.389 . S
C46 C51 1.391 . S
C47 H33 0.941 . S
C47 C46 1.389 . S
C47 C48 1.397 . S
C48 H34 0.939 . S
C48 C47 1.397 . S
C48 C49 1.378 . S
C49 C48 1.378 . S
C49 C50 1.378 . S
C50 H35 0.940 . S
C50 C49 1.378 . S
C50 C51 1.396 . S
C51 H36 0.940 . S
C51 C46 1.391 . S
C51 C50 1.396 . S
C52 P32 1.803 . S
C52 C53 1.378 . S
C52 C57 1.400 . S
C53 H37 0.939 . S
C53 C52 1.378 . S
C53 C54 1.361 . S
C54 H38 0.924 1_655 S
C54 C53 1.361 . S
C54 C55 1.369 . S
C55 C54 1.369 . S
C55 C56 1.404 . S
C56 H39 0.940 . S
C56 C55 1.404 . S
C56 C57 1.389 . S
C57 H40 0.939 . S
C57 C52 1.400 . S
C57 C56 1.389 . S
C58 P32 1.819 . S
C58 C59 1.391 . S
C58 C63 1.391 . S
C59 H41 0.941 . S
C59 C58 1.391 . S
C59 C60 1.396 . S
C60 H44 0.939 . S
C60 C59 1.396 . S
C60 C61 1.397 . S
C61 C60 1.397 . S
C61 C62 1.385 . S
C62 H45 0.940 . S
C62 C61 1.385 . S
C62 C63 1.388 . S
C63 H42 0.939 . S
C63 C58 1.391 . S
C63 C62 1.388 . S
P64 O75 1.490 . S
P64 C78 1.812 . S
P64 C84 1.803 . S
P64 C90 1.819 . S
H65 C79 0.941 . S
H66 C80 0.939 . S
H67 C82 0.940 . S
H68 C83 0.940 . S
H69 C85 0.939 . S
H70 C86 0.942 . S
H71 C88 0.940 . S
H72 C89 0.939 . S
H73 C91 0.941 . S
H74 C95 0.939 . S
O75 P64 1.490 . S
H76 C92 0.939 . S
H77 C94 0.940 . S
C78 P64 1.812 . S
C78 C79 1.389 . S
C78 C83 1.391 . S
C79 H65 0.941 . S
C79 C78 1.389 . S
C79 C80 1.397 . S
C80 H66 0.939 . S
C80 C79 1.397 . S
C80 C81 1.378 . S
C81 C80 1.378 . S
C81 C82 1.378 . S
C82 H67 0.940 . S
C82 C81 1.378 . S
C82 C83 1.396 . S
C83 H68 0.940 . S
C83 C78 1.391 . S
C83 C82 1.396 . S
C84 P64 1.803 . S
C84 C85 1.378 . S
C84 C89 1.400 . S
C85 H69 0.939 . S
C85 C84 1.378 . S
C85 C86 1.361 . S
C86 H70 0.942 . S
C86 C85 1.361 . S
C86 C87 1.369 . S
C87 C86 1.369 . S
C87 C88 1.404 . S
C88 H71 0.940 . S
C88 C87 1.404 . S
C88 C89 1.389 . S
C89 H72 0.939 . S
C89 C84 1.400 . S
C89 C88 1.389 . S
C90 P64 1.819 . S
C90 C91 1.391 . S
C90 C95 1.391 . S
C91 H73 0.941 . S
C91 C90 1.391 . S
C91 C92 1.396 . S
C92 H76 0.939 . S
C92 C91 1.396 . S
C92 C93 1.397 . S
C93 C92 1.397 . S
C93 C94 1.385 . S
C94 H77 0.940 . S
C94 C93 1.385 . S
C94 C95 1.388 . S
C95 H74 0.939 . S
C95 C90 1.391 . S
C95 C94 1.388 . S
P96 O107 1.490 . S
P96 C110 1.812 . S
P96 C116 1.803 . S
P96 C122 1.819 . S
H97 C111 0.941 . S
H98 C112 0.939 . S
H99 C114 0.940 . S
H100 C115 0.940 . S
H101 C117 0.939 . S
H102 C118 0.942 . S
H103 C120 0.940 . S
H104 C121 0.939 . S
H105 C123 0.941 . S
H106 C127 0.939 . S
O107 P96 1.490 . S
H108 C124 0.939 . S
H109 C126 0.940 . S
C110 P96 1.812 . S
C110 C111 1.389 . S
C110 C115 1.391 . S
C111 H97 0.941 . S
C111 C110 1.389 . S
C111 C112 1.397 . S
C112 H98 0.939 . S
C112 C111 1.397 . S
C112 C113 1.378 . S
C113 C112 1.378 . S
C113 C114 1.378 . S
C114 H99 0.940 . S
C114 C113 1.378 . S
C114 C115 1.396 . S
C115 H100 0.940 . S
C115 C110 1.391 . S
C115 C114 1.396 . S
C116 P96 1.803 . S
C116 C117 1.378 . S
C116 C121 1.400 . S
C117 H101 0.939 . S
C117 C116 1.378 . S
C117 C118 1.361 . S
C118 H102 0.942 . S
C118 C117 1.361 . S
C118 C119 1.369 . S
C119 C118 1.369 . S
C119 C120 1.404 . S
C120 H103 0.940 . S
C120 C119 1.404 . S
C120 C121 1.389 . S
C121 H104 0.939 . S
C121 C116 1.400 . S
C121 C120 1.389 . S
C122 P96 1.819 . S
C122 C123 1.391 . S
C122 C127 1.391 . S
C123 H105 0.941 . S
C123 C122 1.391 . S
C123 C124 1.396 . S
C124 H108 0.939 . S
C124 C123 1.396 . S
C124 C125 1.397 . S
C125 C124 1.397 . S
C125 C126 1.385 . S
C126 H109 0.940 . S
C126 C125 1.385 . S
C126 C127 1.388 . S
C127 H106 0.939 . S
C127 C122 1.391 . S
C127 C126 1.388 . S
P128 O139 1.490 . S
P128 C142 1.812 . S
P128 C148 1.803 . S
P128 C154 1.819 . S
H129 C143 0.941 . S
H130 C144 0.939 . S
H131 C146 0.940 . S
H132 C147 0.940 . S
H133 C149 0.939 . S
H134 C150 0.942 . S
H135 C152 0.940 . S
H136 C153 0.939 . S
H137 C155 0.941 . S
H138 C159 0.939 . S
O139 P128 1.490 . S
H140 C156 0.939 . S
H141 C158 0.940 . S
C142 P128 1.812 . S
C142 C143 1.389 . S
C142 C147 1.391 . S
C143 H129 0.941 . S
C143 C142 1.389 . S
C143 C144 1.397 . S
C144 H130 0.939 . S
C144 C143 1.397 . S
C144 C145 1.378 . S
C145 C144 1.378 . S
C145 C146 1.378 . S
C146 H131 0.940 . S
C146 C145 1.378 . S
C146 C147 1.396 . S
C147 H132 0.940 . S
C147 C142 1.391 . S
C147 C146 1.396 . S
C148 P128 1.803 . S
C148 C149 1.378 . S
C148 C153 1.400 . S
C149 H133 0.939 . S
C149 C148 1.378 . S
C149 C150 1.361 . S
C150 H134 0.942 . S
C150 C149 1.361 . S
C150 C151 1.369 . S
C151 C150 1.369 . S
C151 C152 1.404 . S
C152 H135 0.940 . S
C152 C151 1.404 . S
C152 C153 1.389 . S
C153 H136 0.939 . S
C153 C148 1.400 . S
C153 C152 1.389 . S
C154 P128 1.819 . S
C154 C155 1.391 . S
C154 C159 1.391 . S
C155 H137 0.941 . S
C155 C154 1.391 . S
C155 C156 1.396 . S
C156 H140 0.939 . S
C156 C155 1.396 . S
C156 C157 1.397 . S
C157 C156 1.397 . S
C157 C158 1.385 . S
C158 H141 0.940 . S
C158 C157 1.385 . S
C158 C159 1.388 . S
C159 H138 0.939 . S
C159 C154 1.391 . S
C159 C158 1.388 . S
P160 O171 1.490 . S
P160 C174 1.812 . S
P160 C180 1.803 . S
P160 C186 1.819 . S
H161 C175 0.941 . S
H162 C176 0.939 . S
H163 C178 0.940 . S
H164 C179 0.940 . S
H165 C181 0.939 . S
H166 C182 0.942 . S
H167 C184 0.940 . S
H168 C185 0.939 . S
H169 C187 0.941 . S
H170 C191 0.939 . S
O171 P160 1.490 . S
H172 C188 0.939 . S
H173 C190 0.940 . S
C174 P160 1.812 . S
C174 C175 1.389 . S
C174 C179 1.391 . S
C175 H161 0.941 . S
C175 C174 1.389 . S
C175 C176 1.397 . S
C176 H162 0.939 . S
C176 C175 1.397 . S
C176 C177 1.378 . S
C177 C176 1.378 . S
C177 C178 1.378 . S
C178 H163 0.940 . S
C178 C177 1.378 . S
C178 C179 1.396 . S
C179 H164 0.940 . S
C179 C174 1.391 . S
C179 C178 1.396 . S
C180 P160 1.803 . S
C180 C181 1.378 . S
C180 C185 1.400 . S
C181 H165 0.939 . S
C181 C180 1.378 . S
C181 C182 1.361 . S
C182 H166 0.942 . S
C182 C181 1.361 . S
C182 C183 1.369 . S
C183 C182 1.369 . S
C183 C184 1.404 . S
C184 H167 0.940 . S
C184 C183 1.404 . S
C184 C185 1.389 . S
C185 H168 0.939 . S
C185 C180 1.400 . S
C185 C184 1.389 . S
C186 P160 1.819 . S
C186 C187 1.391 . S
C186 C191 1.391 . S
C187 H169 0.941 . S
C187 C186 1.391 . S
C187 C188 1.396 . S
C188 H172 0.939 . S
C188 C187 1.396 . S
C188 C189 1.397 . S
C189 C188 1.397 . S
C189 C190 1.385 . S
C190 H173 0.940 . S
C190 C189 1.385 . S
C190 C191 1.388 . S
C191 H170 0.939 . S
C191 C186 1.391 . S
C191 C190 1.388 . S
P192 O203 1.490 . S
P192 C206 1.812 . S
P192 C212 1.803 . S
P192 C218 1.819 . S
H193 C207 0.941 . S
H194 C208 0.939 . S
H195 C210 0.940 . S
H196 C211 0.940 . S
H197 C213 0.939 . S
H198 C214 0.942 . S
H199 C216 0.940 . S
H200 C217 0.939 . S
H201 C219 0.941 . S
H202 C223 0.939 . S
O203 P192 1.490 . S
H204 C220 0.939 . S
H205 C222 0.940 . S
C206 P192 1.812 . S
C206 C207 1.389 . S
C206 C211 1.391 . S
C207 H193 0.941 . S
C207 C206 1.389 . S
C207 C208 1.397 . S
C208 H194 0.939 . S
C208 C207 1.397 . S
C208 C209 1.378 . S
C209 C208 1.378 . S
C209 C210 1.378 . S
C210 H195 0.940 . S
C210 C209 1.378 . S
C210 C211 1.396 . S
C211 H196 0.940 . S
C211 C206 1.391 . S
C211 C210 1.396 . S
C212 P192 1.803 . S
C212 C213 1.378 . S
C212 C217 1.400 . S
C213 H197 0.939 . S
C213 C212 1.378 . S
C213 C214 1.361 . S
C214 H198 0.942 . S
C214 C213 1.361 . S
C214 C215 1.369 . S
C215 C214 1.369 . S
C215 C216 1.404 . S
C216 H199 0.940 . S
C216 C215 1.404 . S
C216 C217 1.389 . S
C217 H200 0.939 . S
C217 C212 1.400 . S
C217 C216 1.389 . S
C218 P192 1.819 . S
C218 C219 1.391 . S
C218 C223 1.391 . S
C219 H201 0.941 . S
C219 C218 1.391 . S
C219 C220 1.396 . S
C220 H204 0.939 . S
C220 C219 1.396 . S
C220 C221 1.397 . S
C221 C220 1.397 . S
C221 C222 1.385 . S
C222 H205 0.940 . S
C222 C221 1.385 . S
C222 C223 1.388 . S
C223 H202 0.939 . S
C223 C218 1.391 . S
C223 C222 1.388 . S
P224 O235 1.490 . S
P224 C238 1.812 . S
P224 C244 1.803 . S
P224 C250 1.819 . S
H225 C239 0.941 . S
H226 C240 0.939 . S
H227 C242 0.940 . S
H228 C243 0.940 . S
H229 C245 0.939 . S
H230 C246 0.942 . S
H231 C248 0.940 . S
H232 C249 0.939 . S
H233 C251 0.941 . S
H234 C255 0.939 . S
O235 P224 1.490 . S
H236 C252 0.939 . S
H237 C254 0.940 . S
C238 P224 1.812 . S
C238 C239 1.389 . S
C238 C243 1.391 . S
C239 H225 0.941 . S
C239 C238 1.389 . S
C239 C240 1.397 . S
C240 H226 0.939 . S
C240 C239 1.397 . S
C240 C241 1.378 . S
C241 C240 1.378 . S
C241 C242 1.378 . S
C242 H227 0.940 . S
C242 C241 1.378 . S
C242 C243 1.396 . S
C243 H228 0.940 . S
C243 C238 1.391 . S
C243 C242 1.396 . S
C244 P224 1.803 . S
C244 C245 1.378 . S
C244 C249 1.400 . S
C245 H229 0.939 . S
C245 C244 1.378 . S
C245 C246 1.361 . S
C246 H230 0.942 . S
C246 C245 1.361 . S
C246 C247 1.369 . S
C247 C246 1.369 . S
C247 C248 1.404 . S
C248 H231 0.940 . S
C248 C247 1.404 . S
C248 C249 1.389 . S
C249 H232 0.939 . S
C249 C244 1.400 . S
C249 C248 1.389 . S
C250 P224 1.819 . S
C250 C251 1.391 . S
C250 C255 1.391 . S
C251 H233 0.941 . S
C251 C250 1.391 . S
C251 C252 1.396 . S
C252 H236 0.939 . S
C252 C251 1.396 . S
C252 C253 1.397 . S
C253 C252 1.397 . S
C253 C254 1.385 . S
C254 H237 0.940 . S
C254 C253 1.385 . S
C254 C255 1.388 . S
C255 H234 0.939 . S
C255 C250 1.391 . S
C255 C254 1.388 . S
P256 O267 1.490 . S
P256 C270 1.812 . S
P256 C276 1.803 . S
P256 C282 1.819 . S
H257 C271 0.941 . S
H258 C272 0.939 . S
H259 C274 0.940 . S
H260 C275 0.940 . S
H261 C277 0.939 . S
H262 C278 0.942 . S
H263 C280 0.940 . S
H264 C281 0.939 . S
H265 C283 0.941 . S
H266 C287 0.939 . S
O267 P256 1.490 . S
H268 C284 0.939 . S
H269 C286 0.940 . S
C270 P256 1.812 . S
C270 C271 1.389 . S
C270 C275 1.391 . S
C271 H257 0.941 . S
C271 C270 1.389 . S
C271 C272 1.397 . S
C272 H258 0.939 . S
C272 C271 1.397 . S
C272 C273 1.378 . S
C273 C272 1.378 . S
C273 C274 1.378 . S
C274 H259 0.940 . S
C274 C273 1.378 . S
C274 C275 1.396 . S
C275 H260 0.940 . S
C275 C270 1.391 . S
C275 C274 1.396 . S
C276 P256 1.803 . S
C276 C277 1.378 . S
C276 C281 1.400 . S
C277 H261 0.939 . S
C277 C276 1.378 . S
C277 C278 1.361 . S
C278 H262 0.942 . S
C278 C277 1.361 . S
C278 C279 1.369 . S
C279 C278 1.369 . S
C279 C280 1.404 . S
C280 H263 0.940 . S
C280 C279 1.404 . S
C280 C281 1.389 . S
C281 H264 0.939 . S
C281 C276 1.400 . S
C281 C280 1.389 . S
C282 P256 1.819 . S
C282 C283 1.391 . S
C282 C287 1.391 . S
C283 H265 0.941 . S
C283 C282 1.391 . S
C283 C284 1.396 . S
C284 H268 0.939 . S
C284 C283 1.396 . S
C284 C285 1.397 . S
C285 C284 1.397 . S
C285 C286 1.385 . S
C286 H269 0.940 . S
C286 C285 1.385 . S
C286 C287 1.388 . S
C287 H266 0.939 . S
C287 C282 1.391 . S
C287 C286 1.388 . S
P288 O299 1.490 . S
P288 C302 1.812 . S
P288 C308 1.803 . S
P288 C314 1.819 . S
H289 C303 0.941 . S
H290 C304 0.939 . S
H291 C306 0.940 . S
H292 C307 0.940 . S
H293 C309 0.939 . S
H294 C310 0.942 . S
H295 C312 0.940 . S
H296 C313 0.939 . S
H297 C315 0.941 . S
H298 C319 0.939 . S
O299 P288 1.490 . S
H300 C316 0.939 . S
H301 C318 0.940 . S
C302 P288 1.812 . S
C302 C303 1.389 . S
C302 C307 1.391 . S
C303 H289 0.941 . S
C303 C302 1.389 . S
C303 C304 1.397 . S
C304 H290 0.939 . S
C304 C303 1.397 . S
C304 C305 1.378 . S
C305 C304 1.378 . S
C305 C306 1.378 . S
C306 H291 0.940 . S
C306 C305 1.378 . S
C306 C307 1.396 . S
C307 H292 0.940 . S
C307 C302 1.391 . S
C307 C306 1.396 . S
C308 P288 1.803 . S
C308 C309 1.378 . S
C308 C313 1.400 . S
C309 H293 0.939 . S
C309 C308 1.378 . S
C309 C310 1.361 . S
C310 H294 0.942 . S
C310 C309 1.361 . S
C310 C311 1.369 . S
C311 C310 1.369 . S
C311 C312 1.404 . S
C312 H295 0.940 . S
C312 C311 1.404 . S
C312 C313 1.389 . S
C313 H296 0.939 . S
C313 C308 1.400 . S
C313 C312 1.389 . S
C314 P288 1.819 . S
C314 C315 1.391 . S
C314 C319 1.391 . S
C315 H297 0.941 . S
C315 C314 1.391 . S
C315 C316 1.396 . S
C316 H300 0.939 . S
C316 C315 1.396 . S
C316 C317 1.397 . S
C317 C316 1.397 . S
C317 C318 1.385 . S
C318 H301 0.940 . S
C318 C317 1.385 . S
C318 C319 1.388 . S
C319 H298 0.939 . S
C319 C314 1.391 . S
C319 C318 1.388 . S
P320 O331 1.490 . S
P320 C334 1.812 . S
P320 C340 1.803 . S
P320 C346 1.819 . S
H321 C335 0.941 . S
H322 C336 0.939 . S
H323 C338 0.940 . S
H324 C339 0.940 . S
H325 C341 0.939 . S
H326 C342 0.942 . S
H327 C344 0.940 . S
H328 C345 0.939 . S
H329 C347 0.941 . S
H330 C351 0.939 . S
O331 P320 1.490 . S
H332 C348 0.939 . S
H333 C350 0.940 . S
C334 P320 1.812 . S
C334 C335 1.389 . S
C334 C339 1.391 . S
C335 H321 0.941 . S
C335 C334 1.389 . S
C335 C336 1.397 . S
C336 H322 0.939 . S
C336 C335 1.397 . S
C336 C337 1.378 . S
C337 C336 1.378 . S
C337 C338 1.378 . S
C338 H323 0.940 . S
C338 C337 1.378 . S
C338 C339 1.396 . S
C339 H324 0.940 . S
C339 C334 1.391 . S
C339 C338 1.396 . S
C340 P320 1.803 . S
C340 C341 1.378 . S
C340 C345 1.400 . S
C341 H325 0.939 . S
C341 C340 1.378 . S
C341 C342 1.361 . S
C342 H326 0.942 . S
C342 C341 1.361 . S
C342 C343 1.369 . S
C343 C342 1.369 . S
C343 C344 1.404 . S
C344 H327 0.940 . S
C344 C343 1.404 . S
C344 C345 1.389 . S
C345 H328 0.939 . S
C345 C340 1.400 . S
C345 C344 1.389 . S
C346 P320 1.819 . S
C346 C347 1.391 . S
C346 C351 1.391 . S
C347 H329 0.941 . S
C347 C346 1.391 . S
C347 C348 1.396 . S
C348 H332 0.939 . S
C348 C347 1.396 . S
C348 C349 1.397 . S
C349 C348 1.397 . S
C349 C350 1.385 . S
C350 H333 0.940 . S
C350 C349 1.385 . S
C350 C351 1.388 . S
C351 H330 0.939 . S
C351 C346 1.391 . S
C351 C350 1.388 . S
P352 O363 1.490 . S
P352 C366 1.812 . S
P352 C372 1.803 . S
P352 C378 1.819 . S
H353 C367 0.941 . S
H354 C368 0.939 . S
H355 C370 0.940 . S
H356 C371 0.940 . S
H357 C373 0.939 . S
H358 C374 0.942 . S
H359 C376 0.940 . S
H360 C377 0.939 . S
H361 C379 0.941 . S
H362 C383 0.939 . S
O363 P352 1.490 . S
H364 C380 0.939 . S
H365 C382 0.940 . S
C366 P352 1.812 . S
C366 C367 1.389 . S
C366 C371 1.391 . S
C367 H353 0.941 . S
C367 C366 1.389 . S
C367 C368 1.397 . S
C368 H354 0.939 . S
C368 C367 1.397 . S
C368 C369 1.378 . S
C369 C368 1.378 . S
C369 C370 1.378 . S
C370 H355 0.940 . S
C370 C369 1.378 . S
C370 C371 1.396 . S
C371 H356 0.940 . S
C371 C366 1.391 . S
C371 C370 1.396 . S
C372 P352 1.803 . S
C372 C373 1.378 . S
C372 C377 1.400 . S
C373 H357 0.939 . S
C373 C372 1.378 . S
C373 C374 1.361 . S
C374 H358 0.942 . S
C374 C373 1.361 . S
C374 C375 1.369 . S
C375 C374 1.369 . S
C375 C376 1.404 . S
C376 H359 0.940 . S
C376 C375 1.404 . S
C376 C377 1.389 . S
C377 H360 0.939 . S
C377 C372 1.400 . S
C377 C376 1.389 . S
C378 P352 1.819 . S
C378 C379 1.391 . S
C378 C383 1.391 . S
C379 H361 0.941 . S
C379 C378 1.391 . S
C379 C380 1.396 . S
C380 H364 0.939 . S
C380 C379 1.396 . S
C380 C381 1.397 . S
C381 C380 1.397 . S
C381 C382 1.385 . S
C382 H365 0.940 . S
C382 C381 1.385 . S
C382 C383 1.388 . S
C383 H362 0.939 . S
C383 C378 1.391 . S
C383 C382 1.388 . S
P384 O395 1.490 . S
P384 C398 1.812 . S
P384 C404 1.803 . S
P384 C410 1.819 . S
H385 C399 0.941 . S
H386 C400 0.939 . S
H387 C402 0.940 . S
H388 C403 0.940 . S
H389 C405 0.939 . S
H390 C406 0.942 . S
H391 C408 0.940 . S
H392 C409 0.939 . S
H393 C411 0.941 . S
H394 C415 0.939 . S
O395 P384 1.490 . S
H396 C412 0.939 . S
H397 C414 0.940 . S
C398 P384 1.812 . S
C398 C399 1.389 . S
C398 C403 1.391 . S
C399 H385 0.941 . S
C399 C398 1.389 . S
C399 C400 1.397 . S
C400 H386 0.939 . S
C400 C399 1.397 . S
C400 C401 1.378 . S
C401 C400 1.378 . S
C401 C402 1.378 . S
C402 H387 0.940 . S
C402 C401 1.378 . S
C402 C403 1.396 . S
C403 H388 0.940 . S
C403 C398 1.391 . S
C403 C402 1.396 . S
C404 P384 1.803 . S
C404 C405 1.378 . S
C404 C409 1.400 . S
C405 H389 0.939 . S
C405 C404 1.378 . S
C405 C406 1.361 . S
C406 H390 0.942 . S
C406 C405 1.361 . S
C406 C407 1.369 . S
C407 C406 1.369 . S
C407 C408 1.404 . S
C408 H391 0.940 . S
C408 C407 1.404 . S
C408 C409 1.389 . S
C409 H392 0.939 . S
C409 C404 1.400 . S
C409 C408 1.389 . S
C410 P384 1.819 . S
C410 C411 1.391 . S
C410 C415 1.391 . S
C411 H393 0.941 . S
C411 C410 1.391 . S
C411 C412 1.396 . S
C412 H396 0.939 . S
C412 C411 1.396 . S
C412 C413 1.397 . S
C413 C412 1.397 . S
C413 C414 1.385 . S
C414 H397 0.940 . S
C414 C413 1.385 . S
C414 C415 1.388 . S
C415 H394 0.939 . S
C415 C410 1.391 . S
C415 C414 1.388 . S
P416 O427 1.490 . S
P416 C430 1.812 . S
P416 C436 1.803 . S
P416 C442 1.819 . S
H417 C431 0.941 . S
H418 C432 0.939 . S
H419 C434 0.940 . S
H420 C435 0.940 . S
H421 C437 0.939 . S
H422 C438 0.942 . S
H423 C440 0.940 . S
H424 C441 0.939 . S
H425 C443 0.941 . S
H426 C447 0.939 . S
O427 P416 1.490 . S
H428 C444 0.939 . S
H429 C446 0.940 . S
C430 P416 1.812 . S
C430 C431 1.389 . S
C430 C435 1.391 . S
C431 H417 0.941 . S
C431 C430 1.389 . S
C431 C432 1.397 . S
C432 H418 0.939 . S
C432 C431 1.397 . S
C432 C433 1.378 . S
C433 C432 1.378 . S
C433 C434 1.378 . S
C434 H419 0.940 . S
C434 C433 1.378 . S
C434 C435 1.396 . S
C435 H420 0.940 . S
C435 C430 1.391 . S
C435 C434 1.396 . S
C436 P416 1.803 . S
C436 C437 1.378 . S
C436 C441 1.400 . S
C437 H421 0.939 . S
C437 C436 1.378 . S
C437 C438 1.361 . S
C438 H422 0.942 . S
C438 C437 1.361 . S
C438 C439 1.369 . S
C439 C438 1.369 . S
C439 C440 1.404 . S
C440 H423 0.940 . S
C440 C439 1.404 . S
C440 C441 1.389 . S
C441 H424 0.939 . S
C441 C436 1.400 . S
C441 C440 1.389 . S
C442 P416 1.819 . S
C442 C443 1.391 . S
C442 C447 1.391 . S
C443 H425 0.941 . S
C443 C442 1.391 . S
C443 C444 1.396 . S
C444 H428 0.939 . S
C444 C443 1.396 . S
C444 C445 1.397 . S
C445 C444 1.397 . S
C445 C446 1.385 . S
C446 H429 0.940 . S
C446 C445 1.385 . S
C446 C447 1.388 . S
C447 H426 0.939 . S
C447 C442 1.391 . S
C447 C446 1.388 . S
P448 O459 1.490 . S
P448 C462 1.812 . S
P448 C468 1.803 . S
P448 C474 1.819 . S
H449 C463 0.941 . S
H450 C464 0.939 . S
H451 C466 0.940 . S
H452 C467 0.940 . S
H453 C469 0.939 . S
H454 C470 0.942 . S
H455 C472 0.940 . S
H456 C473 0.939 . S
H457 C475 0.941 . S
H458 C479 0.939 . S
O459 P448 1.490 . S
H460 C476 0.939 . S
H461 C478 0.940 . S
C462 P448 1.812 . S
C462 C463 1.389 . S
C462 C467 1.391 . S
C463 H449 0.941 . S
C463 C462 1.389 . S
C463 C464 1.397 . S
C464 H450 0.939 . S
C464 C463 1.397 . S
C464 C465 1.378 . S
C465 C464 1.378 . S
C465 C466 1.378 . S
C466 H451 0.940 . S
C466 C465 1.378 . S
C466 C467 1.396 . S
C467 H452 0.940 . S
C467 C462 1.391 . S
C467 C466 1.396 . S
C468 P448 1.803 . S
C468 C469 1.378 . S
C468 C473 1.400 . S
C469 H453 0.939 . S
C469 C468 1.378 . S
C469 C470 1.361 . S
C470 H454 0.942 . S
C470 C469 1.361 . S
C470 C471 1.369 . S
C471 C470 1.369 . S
C471 C472 1.404 . S
C472 H455 0.940 . S
C472 C471 1.404 . S
C472 C473 1.389 . S
C473 H456 0.939 . S
C473 C468 1.400 . S
C473 C472 1.389 . S
C474 P448 1.819 . S
C474 C475 1.391 . S
C474 C479 1.391 . S
C475 H457 0.941 . S
C475 C474 1.391 . S
C475 C476 1.396 . S
C476 H460 0.939 . S
C476 C475 1.396 . S
C476 C477 1.397 . S
C477 C476 1.397 . S
C477 C478 1.385 . S
C478 H461 0.940 . S
C478 C477 1.385 . S
C478 C479 1.388 . S
C479 H458 0.939 . S
C479 C474 1.391 . S
C479 C478 1.388 . S
P480 O491 1.490 . S
P480 C494 1.812 . S
P480 C500 1.803 . S
P480 C506 1.819 . S
H481 C495 0.941 . S
H482 C496 0.939 . S
H483 C498 0.940 . S
H484 C499 0.940 . S
H485 C501 0.939 . S
H486 C502 0.942 . S
H487 C504 0.940 . S
H488 C505 0.939 . S
H489 C507 0.941 . S
H490 C511 0.939 . S
O491 P480 1.490 . S
H492 C508 0.939 . S
H493 C510 0.940 . S
C494 P480 1.812 . S
C494 C495 1.389 . S
C494 C499 1.391 . S
C495 H481 0.941 . S
C495 C494 1.389 . S
C495 C496 1.397 . S
C496 H482 0.939 . S
C496 C495 1.397 . S
C496 C497 1.378 . S
C497 C496 1.378 . S
C497 C498 1.378 . S
C498 H483 0.940 . S
C498 C497 1.378 . S
C498 C499 1.396 . S
C499 H484 0.940 . S
C499 C494 1.391 . S
C499 C498 1.396 . S
C500 P480 1.803 . S
C500 C501 1.378 . S
C500 C505 1.400 . S
C501 H485 0.939 . S
C501 C500 1.378 . S
C501 C502 1.361 . S
C502 H486 0.942 . S
C502 C501 1.361 . S
C502 C503 1.369 . S
C503 C502 1.369 . S
C503 C504 1.404 . S
C504 H487 0.940 . S
C504 C503 1.404 . S
C504 C505 1.389 . S
C505 H488 0.939 . S
C505 C500 1.400 . S
C505 C504 1.389 . S
C506 P480 1.819 . S
C506 C507 1.391 . S
C506 C511 1.391 . S
C507 H489 0.941 . S
C507 C506 1.391 . S
C507 C508 1.396 . S
C508 H492 0.939 . S
C508 C507 1.396 . S
C508 C509 1.397 . S
C509 C508 1.397 . S
C509 C510 1.385 . S
C510 H493 0.940 . S
C510 C509 1.385 . S
C510 C511 1.388 . S
C511 H490 0.939 . S
C511 C506 1.391 . S
C511 C510 1.388 . S
P512 O523 1.490 . S
P512 C526 1.812 . S
P512 C532 1.803 . S
P512 C538 1.819 . S
H513 C527 0.941 . S
H514 C528 0.939 . S
H515 C530 0.940 . S
H516 C531 0.940 . S
H517 C533 0.939 . S
H518 C534 0.942 . S
H519 C536 0.940 . S
H520 C537 0.939 . S
H521 C539 0.941 . S
H522 C543 0.939 . S
O523 P512 1.490 . S
H524 C540 0.939 . S
H525 C542 0.940 . S
C526 P512 1.812 . S
C526 C527 1.389 . S
C526 C531 1.391 . S
C527 H513 0.941 . S
C527 C526 1.389 . S
C527 C528 1.397 . S
C528 H514 0.939 . S
C528 C527 1.397 . S
C528 C529 1.378 . S
C529 C528 1.378 . S
C529 C530 1.378 . S
C530 H515 0.940 . S
C530 C529 1.378 . S
C530 C531 1.396 . S
C531 H516 0.940 . S
C531 C526 1.391 . S
C531 C530 1.396 . S
C532 P512 1.803 . S
C532 C533 1.378 . S
C532 C537 1.400 . S
C533 H517 0.939 . S
C533 C532 1.378 . S
C533 C534 1.361 . S
C534 H518 0.942 . S
C534 C533 1.361 . S
C534 C535 1.369 . S
C535 C534 1.369 . S
C535 C536 1.404 . S
C536 H519 0.940 . S
C536 C535 1.404 . S
C536 C537 1.389 . S
C537 H520 0.939 . S
C537 C532 1.400 . S
C537 C536 1.389 . S
C538 P512 1.819 . S
C538 C539 1.391 . S
C538 C543 1.391 . S
C539 H521 0.941 . S
C539 C538 1.391 . S
C539 C540 1.396 . S
C540 H524 0.939 . S
C540 C539 1.396 . S
C540 C541 1.397 . S
C541 C540 1.397 . S
C541 C542 1.385 . S
C542 H525 0.940 . S
C542 C541 1.385 . S
C542 C543 1.388 . S
C543 H522 0.939 . S
C543 C538 1.391 . S
C543 C542 1.388 . S
P544 O555 1.490 . S
P544 C558 1.812 . S
P544 C564 1.803 . S
P544 C570 1.819 . S
H545 C559 0.941 . S
H546 C560 0.939 . S
H547 C562 0.940 . S
H548 C563 0.940 . S
H549 C565 0.939 . S
H550 C566 0.942 . S
H551 C568 0.940 . S
H552 C569 0.939 . S
H553 C571 0.941 . S
H554 C575 0.939 . S
O555 P544 1.490 . S
H556 C572 0.939 . S
H557 C574 0.940 . S
C558 P544 1.812 . S
C558 C559 1.389 . S
C558 C563 1.391 . S
C559 H545 0.941 . S
C559 C558 1.389 . S
C559 C560 1.397 . S
C560 H546 0.939 . S
C560 C559 1.397 . S
C560 C561 1.378 . S
C561 C560 1.378 . S
C561 C562 1.378 . S
C562 H547 0.940 . S
C562 C561 1.378 . S
C562 C563 1.396 . S
C563 H548 0.940 . S
C563 C558 1.391 . S
C563 C562 1.396 . S
C564 P544 1.803 . S
C564 C565 1.378 . S
C564 C569 1.400 . S
C565 H549 0.939 . S
C565 C564 1.378 . S
C565 C566 1.361 . S
C566 H550 0.942 . S
C566 C565 1.361 . S
C566 C567 1.369 . S
C567 C566 1.369 . S
C567 C568 1.404 . S
C568 H551 0.940 . S
C568 C567 1.404 . S
C568 C569 1.389 . S
C569 H552 0.939 . S
C569 C564 1.400 . S
C569 C568 1.389 . S
C570 P544 1.819 . S
C570 C571 1.391 . S
C570 C575 1.391 . S
C571 H553 0.941 . S
C571 C570 1.391 . S
C571 C572 1.396 . S
C572 H556 0.939 . S
C572 C571 1.396 . S
C572 C573 1.397 . S
C573 C572 1.397 . S
C573 C574 1.385 . S
C574 H557 0.940 . S
C574 C573 1.385 . S
C574 C575 1.388 . S
C575 H554 0.939 . S
C575 C570 1.391 . S
C575 C574 1.388 . S
Gd576 N607 2.661 . S
Gd576 N613 2.601 . S
Gd576 O620 2.545 . S
Gd576 O621 2.606 1_545 S
Gd576 O623 2.429 . S
Gd576 O624 2.545 1_545 S
Gd576 O625 2.412 . S
Gd576 O627 2.362 1_554 S
Gd576 O628 2.324 1_545 S
Gd576 C635 2.828 . S
Gd577 N586 2.661 . S
Gd577 N590 2.601 . S
Gd577 O621 2.362 1_556 S
Gd577 O622 2.324 1_565 S
Gd577 O626 2.545 . S
Gd577 O627 2.606 1_565 S
Gd577 O629 2.429 . S
Gd577 O630 2.545 1_565 S
Gd577 O631 2.412 . S
Gd577 C644 2.828 . S
C578 C581 1.417 . S
C578 C583 1.431 . S
C578 C584 1.412 . S
C579 C582 1.437 . S
C579 C583 1.317 . S
C579 H598 0.929 . S
C580 C581 1.426 . S
C580 C582 1.413 . S
C580 N590 1.359 . S
C581 C578 1.417 . S
C581 C580 1.426 . S
C581 N586 1.350 . S
C582 C579 1.437 . S
C582 C580 1.413 . S
C582 C592 1.391 . S
C583 C578 1.431 . S
C583 C579 1.317 . S
C583 H594 0.930 . S
C584 C578 1.412 . S
C584 C585 1.355 . S
C584 H596 0.930 . S
C585 C584 1.355 . S
C585 C587 1.402 . S
C585 H597 0.930 . S
N586 Gd577 2.661 . S
N586 C581 1.350 . S
N586 C587 1.307 . S
C587 C585 1.402 . S
C587 N586 1.307 . S
C587 H588 0.930 . S
H588 C587 0.930 . S
C589 N590 1.334 . S
C589 C591 1.394 . S
C589 H593 0.930 . S
N590 Gd577 2.601 . S
N590 C580 1.359 . S
N590 C589 1.334 . S
C591 C589 1.394 . S
C591 C592 1.359 . S
C591 H603 0.930 . S
C592 C582 1.391 . S
C592 C591 1.359 . S
C592 H604 0.929 . S
H593 C589 0.930 . S
H594 C583 0.930 . S
H595 C612 0.930 . S
H596 C584 0.930 . S
H597 C585 0.930 . S
H598 C579 0.929 . S
H599 C617 0.930 . S
H600 C608 0.930 . S
H601 C609 0.930 . S
H602 C633 0.929 . S
H603 C591 0.930 . S
H604 C592 0.929 . S
H605 C634 0.930 . S
H606 C615 0.930 . S
N607 Gd576 2.661 . S
N607 C611 1.350 . S
N607 C612 1.307 . S
C608 H600 0.930 . S
C608 C609 1.355 . S
C608 C610 1.412 . S
C609 H601 0.930 . S
C609 C608 1.355 . S
C609 C612 1.402 . S
C610 C608 1.412 . S
C610 C611 1.417 . S
C610 C634 1.431 . S
C611 N607 1.350 . S
C611 C610 1.417 . S
C611 C614 1.426 . S
C612 H595 0.930 . S
C612 N607 1.307 . S
C612 C609 1.402 . S
N613 Gd576 2.601 . S
N613 C614 1.359 . S
N613 C617 1.334 . S
C614 C611 1.426 . S
C614 N613 1.359 . S
C614 C618 1.413 . S
C615 H606 0.930 . S
C615 C616 1.359 . S
C615 C617 1.394 . S
C616 C615 1.359 . S
C616 C618 1.391 . S
C616 H619 0.929 . S
C617 H599 0.930 . S
C617 N613 1.334 . S
C617 C615 1.394 . S
C618 C614 1.413 . S
C618 C616 1.391 . S
C618 C633 1.437 . S
H619 C616 0.929 . S
O620 Gd576 2.545 . S
O620 C635 1.258 . S
O621 Gd576 2.606 1_565 S
O621 Gd577 2.362 1_554 S
O621 C632 1.284 . S
O622 Gd577 2.324 1_545 S
O622 C642 1.254 . S
O623 Gd576 2.429 . S
O623 C642 1.268 1_554 S
O624 Gd576 2.545 1_565 S
O624 C632 1.250 . S
O625 Gd576 2.412 . S
O625 C635 1.252 . S
O626 Gd577 2.545 . S
O626 C644 1.258 . S
O627 Gd576 2.362 1_556 S
O627 Gd577 2.606 1_545 S
O627 C643 1.284 . S
O628 Gd576 2.324 1_565 S
O628 C651 1.254 . S
O629 Gd577 2.429 . S
O629 C651 1.268 1_556 S
O630 Gd577 2.545 1_545 S
O630 C643 1.250 . S
O631 Gd577 2.412 . S
O631 C644 1.252 . S
C632 O621 1.284 . S
C632 O624 1.250 . S
C633 H602 0.929 . S
C633 C618 1.437 . S
C633 C634 1.317 . S
C634 H605 0.930 . S
C634 C610 1.431 . S
C634 C633 1.317 . S
C635 Gd576 2.828 . S
C635 O620 1.258 . S
C635 O625 1.252 . S
C635 C636 1.497 . S
C636 C635 1.497 . S
C636 C637 1.395 . S
C636 C638 1.380 1_545 S
C637 C636 1.395 . S
C637 C640 1.398 . S
C637 H652 0.930 . S
C638 C636 1.380 1_565 S
C638 C639 1.391 . S
C638 H653 0.930 . S
C639 C638 1.391 . S
C639 C641 1.387 1_565 S
C640 C637 1.398 . S
C640 C641 1.380 . S
C640 H654 0.930 . S
C641 C639 1.387 1_545 S
C641 C640 1.380 . S
C641 H655 0.930 . S
C642 O622 1.254 . S
C642 O623 1.268 1_556 S
C643 O627 1.284 . S
C643 O630 1.250 . S
C644 Gd577 2.828 . S
C644 O626 1.258 . S
C644 O631 1.252 . S
C644 C645 1.497 . S
C645 C644 1.497 . S
C645 C646 1.395 . S
C645 C647 1.380 1_565 S
C646 C645 1.395 . S
C646 C649 1.398 . S
C646 H656 0.930 . S
C647 C645 1.380 1_545 S
C647 C648 1.391 . S
C647 H657 0.930 . S
C648 C647 1.391 . S
C648 C650 1.387 1_545 S
C649 C646 1.398 . S
C649 C650 1.380 . S
C649 H658 0.930 . S
C650 C648 1.387 1_565 S
C650 C649 1.380 . S
C650 H659 0.930 . S
C651 O628 1.254 . S
C651 O629 1.268 1_554 S
H652 C637 0.930 . S
H653 C638 0.930 . S
H654 C640 0.930 . S
H655 C641 0.930 . S
H656 C646 0.930 . S
H657 C647 0.930 . S
H658 C649 0.930 . S
H659 C650 0.930 . S
Gd660 N691 2.661 . S
Gd660 N697 2.601 . S
Gd660 O704 2.545 . S
Gd660 O705 2.606 1_655 S
Gd660 O707 2.429 . S
Gd660 O708 2.545 1_655 S
Gd660 O709 2.412 . S
Gd660 O711 2.362 1_554 S
Gd660 O712 2.324 1_655 S
Gd660 C719 2.828 . S
Gd661 N670 2.661 . S
Gd661 N674 2.601 . S
Gd661 O705 2.362 1_556 S
Gd661 O706 2.324 1_455 S
Gd661 O710 2.545 . S
Gd661 O711 2.606 1_455 S
Gd661 O713 2.429 . S
Gd661 O714 2.545 1_455 S
Gd661 O715 2.412 . S
Gd661 C728 2.828 . S
C662 C665 1.417 . S
C662 C667 1.431 . S
C662 C668 1.412 . S
C663 C666 1.437 . S
C663 C667 1.317 . S
C663 H682 0.929 . S
C664 C665 1.426 . S
C664 C666 1.413 . S
C664 N674 1.359 . S
C665 C662 1.417 . S
C665 C664 1.426 . S
C665 N670 1.350 . S
C666 C663 1.437 . S
C666 C664 1.413 . S
C666 C676 1.391 . S
C667 C662 1.431 . S
C667 C663 1.317 . S
C667 H678 0.930 . S
C668 C662 1.412 . S
C668 C669 1.355 . S
C668 H680 0.930 . S
C669 C668 1.355 . S
C669 C671 1.402 . S
C669 H681 0.930 . S
N670 Gd661 2.661 . S
N670 C665 1.350 . S
N670 C671 1.307 . S
C671 C669 1.402 . S
C671 N670 1.307 . S
C671 H672 0.930 . S
H672 C671 0.930 . S
C673 N674 1.334 . S
C673 C675 1.394 . S
C673 H677 0.930 . S
N674 Gd661 2.601 . S
N674 C664 1.359 . S
N674 C673 1.334 . S
C675 C673 1.394 . S
C675 C676 1.359 . S
C675 H687 0.930 . S
C676 C666 1.391 . S
C676 C675 1.359 . S
C676 H688 0.929 . S
H677 C673 0.930 . S
H678 C667 0.930 . S
H679 C696 0.930 . S
H680 C668 0.930 . S
H681 C669 0.930 . S
H682 C663 0.929 . S
H683 C701 0.930 . S
H684 C692 0.930 . S
H685 C693 0.930 . S
H686 C717 0.929 . S
H687 C675 0.930 . S
H688 C676 0.929 . S
H689 C718 0.930 . S
H690 C699 0.930 . S
N691 Gd660 2.661 . S
N691 C695 1.350 . S
N691 C696 1.307 . S
C692 H684 0.930 . S
C692 C693 1.355 . S
C692 C694 1.412 . S
C693 H685 0.930 . S
C693 C692 1.355 . S
C693 C696 1.402 . S
C694 C692 1.412 . S
C694 C695 1.417 . S
C694 C718 1.431 . S
C695 N691 1.350 . S
C695 C694 1.417 . S
C695 C698 1.426 . S
C696 H679 0.930 . S
C696 N691 1.307 . S
C696 C693 1.402 . S
N697 Gd660 2.601 . S
N697 C698 1.359 . S
N697 C701 1.334 . S
C698 C695 1.426 . S
C698 N697 1.359 . S
C698 C702 1.413 . S
C699 H690 0.930 . S
C699 C700 1.359 . S
C699 C701 1.394 . S
C700 C699 1.359 . S
C700 C702 1.391 . S
C700 H703 0.929 . S
C701 H683 0.930 . S
C701 N697 1.334 . S
C701 C699 1.394 . S
C702 C698 1.413 . S
C702 C700 1.391 . S
C702 C717 1.437 . S
H703 C700 0.929 . S
O704 Gd660 2.545 . S
O704 C719 1.258 . S
O705 Gd660 2.606 1_455 S
O705 Gd661 2.362 1_554 S
O705 C716 1.284 . S
O706 Gd661 2.324 1_655 S
O706 C726 1.254 . S
O707 Gd660 2.429 . S
O707 C726 1.268 1_554 S
O708 Gd660 2.545 1_455 S
O708 C716 1.250 . S
O709 Gd660 2.412 . S
O709 C719 1.252 . S
O710 Gd661 2.545 . S
O710 C728 1.258 . S
O711 Gd660 2.362 1_556 S
O711 Gd661 2.606 1_655 S
O711 C727 1.284 . S
O712 Gd660 2.324 1_455 S
O712 C735 1.254 . S
O713 Gd661 2.429 . S
O713 C735 1.268 1_556 S
O714 Gd661 2.545 1_655 S
O714 C727 1.250 . S
O715 Gd661 2.412 . S
O715 C728 1.252 . S
C716 O705 1.284 . S
C716 O708 1.250 . S
C717 H686 0.929 . S
C717 C702 1.437 . S
C717 C718 1.317 . S
C718 H689 0.930 . S
C718 C694 1.431 . S
C718 C717 1.317 . S
C719 Gd660 2.828 . S
C719 O704 1.258 . S
C719 O709 1.252 . S
C719 C720 1.497 . S
C720 C719 1.497 . S
C720 C721 1.395 . S
C720 C722 1.380 1_655 S
C721 C720 1.395 . S
C721 C724 1.398 . S
C721 H736 0.930 . S
C722 C720 1.380 1_455 S
C722 C723 1.391 . S
C722 H737 0.930 . S
C723 C722 1.391 . S
C723 C725 1.387 1_455 S
C724 C721 1.398 . S
C724 C725 1.380 . S
C724 H738 0.930 . S
C725 C723 1.387 1_655 S
C725 C724 1.380 . S
C725 H739 0.930 . S
C726 O706 1.254 . S
C726 O707 1.268 1_556 S
C727 O711 1.284 . S
C727 O714 1.250 . S
C728 Gd661 2.828 . S
C728 O710 1.258 . S
C728 O715 1.252 . S
C728 C729 1.497 . S
C729 C728 1.497 . S
C729 C730 1.395 . S
C729 C731 1.380 1_455 S
C730 C729 1.395 . S
C730 C733 1.398 . S
C730 H740 0.930 . S
C731 C729 1.380 1_655 S
C731 C732 1.391 . S
C731 H741 0.930 . S
C732 C731 1.391 . S
C732 C734 1.387 1_655 S
C733 C730 1.398 . S
C733 C734 1.380 . S
C733 H742 0.930 . S
C734 C732 1.387 1_455 S
C734 C733 1.380 . S
C734 H743 0.930 . S
C735 O712 1.254 . S
C735 O713 1.268 1_554 S
H736 C721 0.930 . S
H737 C722 0.930 . S
H738 C724 0.930 . S
H739 C725 0.930 . S
H740 C730 0.930 . S
H741 C731 0.930 . S
H742 C733 0.930 . S
H743 C734 0.930 . S
Gd744 N775 2.661 . S
Gd744 N781 2.601 . S
Gd744 O788 2.545 . S
Gd744 O789 2.606 . S
Gd744 O791 2.429 . S
Gd744 O792 2.545 . S
Gd744 O793 2.412 . S
Gd744 O795 2.362 1_556 S
Gd744 O796 2.324 . S
Gd744 C803 2.828 . S
Gd745 N754 2.661 . S
Gd745 N758 2.601 . S
Gd745 O789 2.362 1_554 S
Gd745 O790 2.324 . S
Gd745 O794 2.545 . S
Gd745 O795 2.606 . S
Gd745 O797 2.429 . S
Gd745 O798 2.545 . S
Gd745 O799 2.412 . S
Gd745 C812 2.828 . S
C746 C749 1.417 . S
C746 C751 1.431 . S
C746 C752 1.412 . S
C747 C750 1.437 . S
C747 C751 1.317 . S
C747 H766 0.929 . S
C748 C749 1.426 . S
C748 C750 1.413 . S
C748 N758 1.359 . S
C749 C746 1.417 . S
C749 C748 1.426 . S
C749 N754 1.350 . S
C750 C747 1.437 . S
C750 C748 1.413 . S
C750 C760 1.391 . S
C751 C746 1.431 . S
C751 C747 1.317 . S
C751 H762 0.930 . S
C752 C746 1.412 . S
C752 C753 1.355 . S
C752 H764 0.930 . S
C753 C752 1.355 . S
C753 C755 1.402 . S
C753 H765 0.930 . S
N754 Gd745 2.661 . S
N754 C749 1.350 . S
N754 C755 1.307 . S
C755 C753 1.402 . S
C755 N754 1.307 . S
C755 H756 0.930 . S
H756 C755 0.930 . S
C757 N758 1.334 . S
C757 C759 1.394 . S
C757 H761 0.930 . S
N758 Gd745 2.601 . S
N758 C748 1.359 . S
N758 C757 1.334 . S
C759 C757 1.394 . S
C759 C760 1.359 . S
C759 H771 0.930 . S
C760 C750 1.391 . S
C760 C759 1.359 . S
C760 H772 0.929 . S
H761 C757 0.930 . S
H762 C751 0.930 . S
H763 C780 0.930 . S
H764 C752 0.930 . S
H765 C753 0.930 . S
H766 C747 0.929 . S
H767 C785 0.930 . S
H768 C776 0.930 . S
H769 C777 0.930 . S
H770 C801 0.929 . S
H771 C759 0.930 . S
H772 C760 0.929 . S
H773 C802 0.930 . S
H774 C783 0.930 . S
N775 Gd744 2.661 . S
N775 C779 1.350 . S
N775 C780 1.307 . S
C776 H768 0.930 . S
C776 C777 1.355 . S
C776 C778 1.412 . S
C777 H769 0.930 . S
C777 C776 1.355 . S
C777 C780 1.402 . S
C778 C776 1.412 . S
C778 C779 1.417 . S
C778 C802 1.431 . S
C779 N775 1.350 . S
C779 C778 1.417 . S
C779 C782 1.426 . S
C780 H763 0.930 . S
C780 N775 1.307 . S
C780 C777 1.402 . S
N781 Gd744 2.601 . S
N781 C782 1.359 . S
N781 C785 1.334 . S
C782 C779 1.426 . S
C782 N781 1.359 . S
C782 C786 1.413 . S
C783 H774 0.930 . S
C783 C784 1.359 . S
C783 C785 1.394 . S
C784 C783 1.359 . S
C784 C786 1.391 . S
C784 H787 0.929 . S
C785 H767 0.930 . S
C785 N781 1.334 . S
C785 C783 1.394 . S
C786 C782 1.413 . S
C786 C784 1.391 . S
C786 C801 1.437 . S
H787 C784 0.929 . S
O788 Gd744 2.545 . S
O788 C803 1.258 . S
O789 Gd744 2.606 . S
O789 Gd745 2.362 1_556 S
O789 C800 1.284 . S
O790 Gd745 2.324 . S
O790 C810 1.254 . S
O791 Gd744 2.429 . S
O791 C810 1.268 1_556 S
O792 Gd744 2.545 . S
O792 C800 1.250 . S
O793 Gd744 2.412 . S
O793 C803 1.252 . S
O794 Gd745 2.545 . S
O794 C812 1.258 . S
O795 Gd744 2.362 1_554 S
O795 Gd745 2.606 . S
O795 C811 1.284 . S
O796 Gd744 2.324 . S
O796 C819 1.254 . S
O797 Gd745 2.429 . S
O797 C819 1.268 1_554 S
O798 Gd745 2.545 . S
O798 C811 1.250 . S
O799 Gd745 2.412 . S
O799 C812 1.252 . S
C800 O789 1.284 . S
C800 O792 1.250 . S
C801 H770 0.929 . S
C801 C786 1.437 . S
C801 C802 1.317 . S
C802 H773 0.930 . S
C802 C778 1.431 . S
C802 C801 1.317 . S
C803 Gd744 2.828 . S
C803 O788 1.258 . S
C803 O793 1.252 . S
C803 C804 1.497 . S
C804 C803 1.497 . S
C804 C805 1.395 . S
C804 C806 1.380 . S
C805 C804 1.395 . S
C805 C808 1.398 . S
C805 H820 0.930 . S
C806 C804 1.380 . S
C806 C807 1.391 . S
C806 H821 0.930 . S
C807 C806 1.391 . S
C807 C809 1.387 . S
C808 C805 1.398 . S
C808 C809 1.380 . S
C808 H822 0.930 . S
C809 C807 1.387 . S
C809 C808 1.380 . S
C809 H823 0.930 . S
C810 O790 1.254 . S
C810 O791 1.268 1_554 S
C811 O795 1.284 . S
C811 O798 1.250 . S
C812 Gd745 2.828 . S
C812 O794 1.258 . S
C812 O799 1.252 . S
C812 C813 1.497 . S
C813 C812 1.497 . S
C813 C814 1.395 . S
C813 C815 1.380 . S
C814 C813 1.395 . S
C814 C817 1.398 . S
C814 H824 0.930 . S
C815 C813 1.380 . S
C815 C816 1.391 . S
C815 H825 0.930 . S
C816 C815 1.391 . S
C816 C818 1.387 . S
C817 C814 1.398 . S
C817 C818 1.380 . S
C817 H826 0.930 . S
C818 C816 1.387 . S
C818 C817 1.380 . S
C818 H827 0.930 . S
C819 O796 1.254 . S
C819 O797 1.268 1_556 S
H820 C805 0.930 . S
H821 C806 0.930 . S
H822 C808 0.930 . S
H823 C809 0.930 . S
H824 C814 0.930 . S
H825 C815 0.930 . S
H826 C817 0.930 . S
H827 C818 0.930 . S
Gd828 N859 2.661 . S
Gd828 N865 2.601 . S
Gd828 O872 2.545 . S
Gd828 O873 2.606 . S
Gd828 O875 2.429 . S
Gd828 O876 2.545 . S
Gd828 O877 2.412 . S
Gd828 O879 2.362 . S
Gd828 O880 2.324 . S
Gd828 C887 2.828 . S
Gd829 N838 2.661 . S
Gd829 N842 2.601 . S
Gd829 O873 2.362 . S
Gd829 O874 2.324 . S
Gd829 O878 2.545 . S
Gd829 O879 2.606 . S
Gd829 O881 2.429 . S
Gd829 O882 2.545 . S
Gd829 O883 2.412 . S
Gd829 C896 2.828 . S
C830 C833 1.417 . S
C830 C835 1.431 . S
C830 C836 1.412 . S
C831 C834 1.437 . S
C831 C835 1.317 . S
C831 H850 0.929 . S
C832 C833 1.426 . S
C832 C834 1.413 . S
C832 N842 1.359 . S
C833 C830 1.417 . S
C833 C832 1.426 . S
C833 N838 1.350 . S
C834 C831 1.437 . S
C834 C832 1.413 . S
C834 C844 1.391 . S
C835 C830 1.431 . S
C835 C831 1.317 . S
C835 H846 0.930 . S
C836 C830 1.412 . S
C836 C837 1.355 . S
C836 H848 0.930 . S
C837 C836 1.355 . S
C837 C839 1.402 . S
C837 H849 0.930 . S
N838 Gd829 2.661 . S
N838 C833 1.350 . S
N838 C839 1.307 . S
C839 C837 1.402 . S
C839 N838 1.307 . S
C839 H840 0.930 . S
H840 C839 0.930 . S
C841 N842 1.334 . S
C841 C843 1.394 . S
C841 H845 0.930 . S
N842 Gd829 2.601 . S
N842 C832 1.359 . S
N842 C841 1.334 . S
C843 C841 1.394 . S
C843 C844 1.359 . S
C843 H855 0.930 . S
C844 C834 1.391 . S
C844 C843 1.359 . S
C844 H856 0.929 . S
H845 C841 0.930 . S
H846 C835 0.930 . S
H847 C864 0.930 . S
H848 C836 0.930 . S
H849 C837 0.930 . S
H850 C831 0.929 . S
H851 C869 0.930 . S
H852 C860 0.930 . S
H853 C861 0.930 . S
H854 C885 0.929 . S
H855 C843 0.930 . S
H856 C844 0.929 . S
H857 C886 0.930 . S
H858 C867 0.930 . S
N859 Gd828 2.661 . S
N859 C863 1.350 . S
N859 C864 1.307 . S
C860 H852 0.930 . S
C860 C861 1.355 . S
C860 C862 1.412 . S
C861 H853 0.930 . S
C861 C860 1.355 . S
C861 C864 1.402 . S
C862 C860 1.412 . S
C862 C863 1.417 . S
C862 C886 1.431 . S
C863 N859 1.350 . S
C863 C862 1.417 . S
C863 C866 1.426 . S
C864 H847 0.930 . S
C864 N859 1.307 . S
C864 C861 1.402 . S
N865 Gd828 2.601 . S
N865 C866 1.359 . S
N865 C869 1.334 . S
C866 C863 1.426 . S
C866 N865 1.359 . S
C866 C870 1.413 . S
C867 H858 0.930 . S
C867 C868 1.359 . S
C867 C869 1.394 . S
C868 C867 1.359 . S
C868 C870 1.391 . S
C868 H871 0.929 . S
C869 H851 0.930 . S
C869 N865 1.334 . S
C869 C867 1.394 . S
C870 C866 1.413 . S
C870 C868 1.391 . S
C870 C885 1.437 . S
H871 C868 0.929 . S
O872 Gd828 2.545 . S
O872 C887 1.258 . S
O873 Gd828 2.606 . S
O873 Gd829 2.362 . S
O873 C884 1.284 . S
O874 Gd829 2.324 . S
O874 C894 1.254 . S
O875 Gd828 2.429 . S
O875 C894 1.268 . S
O876 Gd828 2.545 . S
O876 C884 1.250 . S
O877 Gd828 2.412 . S
O877 C887 1.252 . S
O878 Gd829 2.545 . S
O878 C896 1.258 . S
O879 Gd828 2.362 . S
O879 Gd829 2.606 . S
O879 C895 1.284 . S
O880 Gd828 2.324 . S
O880 C903 1.254 . S
O881 Gd829 2.429 . S
O881 C903 1.268 . S
O882 Gd829 2.545 . S
O882 C895 1.250 . S
O883 Gd829 2.412 . S
O883 C896 1.252 . S
C884 O873 1.284 . S
C884 O876 1.250 . S
C885 H854 0.929 . S
C885 C870 1.437 . S
C885 C886 1.317 . S
C886 H857 0.930 . S
C886 C862 1.431 . S
C886 C885 1.317 . S
C887 Gd828 2.828 . S
C887 O872 1.258 . S
C887 O877 1.252 . S
C887 C888 1.497 . S
C888 C887 1.497 . S
C888 C889 1.395 . S
C888 C890 1.380 . S
C889 C888 1.395 . S
C889 C892 1.398 . S
C889 H904 0.930 . S
C890 C888 1.380 . S
C890 C891 1.391 . S
C890 H905 0.930 . S
C891 C890 1.391 . S
C891 C893 1.387 . S
C892 C889 1.398 . S
C892 C893 1.380 . S
C892 H906 0.930 . S
C893 C891 1.387 . S
C893 C892 1.380 . S
C893 H907 0.930 . S
C894 O874 1.254 . S
C894 O875 1.268 . S
C895 O879 1.284 . S
C895 O882 1.250 . S
C896 Gd829 2.828 . S
C896 O878 1.258 . S
C896 O883 1.252 . S
C896 C897 1.497 . S
C897 C896 1.497 . S
C897 C898 1.395 . S
C897 C899 1.380 . S
C898 C897 1.395 . S
C898 C901 1.398 . S
C898 H908 0.930 . S
C899 C897 1.380 . S
C899 C900 1.391 . S
C899 H909 0.930 . S
C900 C899 1.391 . S
C900 C902 1.387 . S
C901 C898 1.398 . S
C901 C902 1.380 . S
C901 H910 0.930 . S
C902 C900 1.387 . S
C902 C901 1.380 . S
C902 H911 0.930 . S
C903 O880 1.254 . S
C903 O881 1.268 . S
H904 C889 0.930 . S
H905 C890 0.930 . S
H906 C892 0.930 . S
H907 C893 0.930 . S
H908 C898 0.930 . S
H909 C899 0.930 . S
H910 C901 0.930 . S
H911 C902 0.930 . S
Gd912 N943 2.661 . S
Gd912 N949 2.601 . S
Gd912 O956 2.545 . S
Gd912 O957 2.606 . S
Gd912 O959 2.429 . S
Gd912 O960 2.545 . S
Gd912 O961 2.412 . S
Gd912 O963 2.362 . S
Gd912 O964 2.324 . S
Gd912 C971 2.828 . S
Gd913 N922 2.661 . S
Gd913 N926 2.601 . S
Gd913 O957 2.362 . S
Gd913 O958 2.324 . S
Gd913 O962 2.545 . S
Gd913 O963 2.606 . S
Gd913 O965 2.429 . S
Gd913 O966 2.545 . S
Gd913 O967 2.412 . S
Gd913 C980 2.828 . S
C914 C917 1.417 . S
C914 C919 1.431 . S
C914 C920 1.412 . S
C915 C918 1.437 . S
C915 C919 1.317 . S
C915 H934 0.929 . S
C916 C917 1.426 . S
C916 C918 1.413 . S
C916 N926 1.359 . S
C917 C914 1.417 . S
C917 C916 1.426 . S
C917 N922 1.350 . S
C918 C915 1.437 . S
C918 C916 1.413 . S
C918 C928 1.391 . S
C919 C914 1.431 . S
C919 C915 1.317 . S
C919 H930 0.930 . S
C920 C914 1.412 . S
C920 C921 1.355 . S
C920 H932 0.930 . S
C921 C920 1.355 . S
C921 C923 1.402 . S
C921 H933 0.930 . S
N922 Gd913 2.661 . S
N922 C917 1.350 . S
N922 C923 1.307 . S
C923 C921 1.402 . S
C923 N922 1.307 . S
C923 H924 0.930 . S
H924 C923 0.930 . S
C925 N926 1.334 . S
C925 C927 1.394 . S
C925 H929 0.930 . S
N926 Gd913 2.601 . S
N926 C916 1.359 . S
N926 C925 1.334 . S
C927 C925 1.394 . S
C927 C928 1.359 . S
C927 H939 0.930 . S
C928 C918 1.391 . S
C928 C927 1.359 . S
C928 H940 0.929 . S
H929 C925 0.930 . S
H930 C919 0.930 . S
H931 C948 0.930 . S
H932 C920 0.930 . S
H933 C921 0.930 . S
H934 C915 0.929 . S
H935 C953 0.930 . S
H936 C944 0.930 . S
H937 C945 0.930 . S
H938 C969 0.929 . S
H939 C927 0.930 . S
H940 C928 0.929 . S
H941 C970 0.930 . S
H942 C951 0.930 . S
N943 Gd912 2.661 . S
N943 C947 1.350 . S
N943 C948 1.307 . S
C944 H936 0.930 . S
C944 C945 1.355 . S
C944 C946 1.412 . S
C945 H937 0.930 . S
C945 C944 1.355 . S
C945 C948 1.402 . S
C946 C944 1.412 . S
C946 C947 1.417 . S
C946 C970 1.431 . S
C947 N943 1.350 . S
C947 C946 1.417 . S
C947 C950 1.426 . S
C948 H931 0.930 . S
C948 N943 1.307 . S
C948 C945 1.402 . S
N949 Gd912 2.601 . S
N949 C950 1.359 . S
N949 C953 1.334 . S
C950 C947 1.426 . S
C950 N949 1.359 . S
C950 C954 1.413 . S
C951 H942 0.930 . S
C951 C952 1.359 . S
C951 C953 1.394 . S
C952 C951 1.359 . S
C952 C954 1.391 . S
C952 H955 0.929 . S
C953 H935 0.930 . S
C953 N949 1.334 . S
C953 C951 1.394 . S
C954 C950 1.413 . S
C954 C952 1.391 . S
C954 C969 1.437 . S
H955 C952 0.929 . S
O956 Gd912 2.545 . S
O956 C971 1.258 . S
O957 Gd912 2.606 . S
O957 Gd913 2.362 . S
O957 C968 1.284 . S
O958 Gd913 2.324 . S
O958 C978 1.254 . S
O959 Gd912 2.429 . S
O959 C978 1.268 . S
O960 Gd912 2.545 . S
O960 C968 1.250 . S
O961 Gd912 2.412 . S
O961 C971 1.252 . S
O962 Gd913 2.545 . S
O962 C980 1.258 . S
O963 Gd912 2.362 . S
O963 Gd913 2.606 . S
O963 C979 1.284 . S
O964 Gd912 2.324 . S
O964 C987 1.254 . S
O965 Gd913 2.429 . S
O965 C987 1.268 . S
O966 Gd913 2.545 . S
O966 C979 1.250 . S
O967 Gd913 2.412 . S
O967 C980 1.252 . S
C968 O957 1.284 . S
C968 O960 1.250 . S
C969 H938 0.929 . S
C969 C954 1.437 . S
C969 C970 1.317 . S
C970 H941 0.930 . S
C970 C946 1.431 . S
C970 C969 1.317 . S
C971 Gd912 2.828 . S
C971 O956 1.258 . S
C971 O961 1.252 . S
C971 C972 1.497 . S
C972 C971 1.497 . S
C972 C973 1.395 . S
C972 C974 1.380 . S
C973 C972 1.395 . S
C973 C976 1.398 . S
C973 H988 0.930 . S
C974 C972 1.380 . S
C974 C975 1.391 . S
C974 H989 0.930 . S
C975 C974 1.391 . S
C975 C977 1.387 . S
C976 C973 1.398 . S
C976 C977 1.380 . S
C976 H990 0.930 . S
C977 C975 1.387 . S
C977 C976 1.380 . S
C977 H991 0.930 . S
C978 O958 1.254 . S
C978 O959 1.268 . S
C979 O963 1.284 . S
C979 O966 1.250 . S
C980 Gd913 2.828 . S
C980 O962 1.258 . S
C980 O967 1.252 . S
C980 C981 1.497 . S
C981 C980 1.497 . S
C981 C982 1.395 . S
C981 C983 1.380 . S
C982 C981 1.395 . S
C982 C985 1.398 . S
C982 H992 0.930 . S
C983 C981 1.380 . S
C983 C984 1.391 . S
C983 H993 0.930 . S
C984 C983 1.391 . S
C984 C986 1.387 . S
C985 C982 1.398 . S
C985 C986 1.380 . S
C985 H994 0.930 . S
C986 C984 1.387 . S
C986 C985 1.380 . S
C986 H995 0.930 . S
C987 O964 1.254 . S
C987 O965 1.268 . S
H988 C973 0.930 . S
H989 C974 0.930 . S
H990 C976 0.930 . S
H991 C977 0.930 . S
H992 C982 0.930 . S
H993 C983 0.930 . S
H994 C985 0.930 . S
H995 C986 0.930 . S
Gd996 N1027 2.661 . S
Gd996 N1033 2.601 . S
Gd996 O1040 2.545 . S
Gd996 O1041 2.606 . S
Gd996 O1043 2.429 . S
Gd996 O1044 2.545 . S
Gd996 O1045 2.412 . S
Gd996 O1047 2.362 . S
Gd996 O1048 2.324 . S
Gd996 C1055 2.828 . S
Gd997 N1006 2.661 . S
Gd997 N1010 2.601 . S
Gd997 O1041 2.362 . S
Gd997 O1042 2.324 . S
Gd997 O1046 2.545 . S
Gd997 O1047 2.606 . S
Gd997 O1049 2.429 . S
Gd997 O1050 2.545 . S
Gd997 O1051 2.412 . S
Gd997 C1064 2.828 . S
C998 C1001 1.417 . S
C998 C1003 1.431 . S
C998 C1004 1.412 . S
C999 C1002 1.437 . S
C999 C1003 1.317 . S
C999 H1018 0.929 . S
C1000 C1001 1.426 . S
C1000 C1002 1.413 . S
C1000 N1010 1.359 . S
C1001 C998 1.417 . S
C1001 C1000 1.426 . S
C1001 N1006 1.350 . S
C1002 C999 1.437 . S
C1002 C1000 1.413 . S
C1002 C1012 1.391 . S
C1003 C998 1.431 . S
C1003 C999 1.317 . S
C1003 H1014 0.930 . S
C1004 C998 1.412 . S
C1004 C1005 1.355 . S
C1004 H1016 0.930 . S
C1005 C1004 1.355 . S
C1005 C1007 1.402 . S
C1005 H1017 0.930 . S
N1006 Gd997 2.661 . S
N1006 C1001 1.350 . S
N1006 C1007 1.307 . S
C1007 C1005 1.402 . S
C1007 N1006 1.307 . S
C1007 H1008 0.930 . S
H1008 C1007 0.930 . S
C1009 N1010 1.334 . S
C1009 C1011 1.394 . S
C1009 H1013 0.930 . S
N1010 Gd997 2.601 . S
N1010 C1000 1.359 . S
N1010 C1009 1.334 . S
C1011 C1009 1.394 . S
C1011 C1012 1.359 . S
C1011 H1023 0.930 . S
C1012 C1002 1.391 . S
C1012 C1011 1.359 . S
C1012 H1024 0.929 . S
H1013 C1009 0.930 . S
H1014 C1003 0.930 . S
H1015 C1032 0.930 . S
H1016 C1004 0.930 . S
H1017 C1005 0.930 . S
H1018 C999 0.929 . S
H1019 C1037 0.930 . S
H1020 C1028 0.930 . S
H1021 C1029 0.930 . S
H1022 C1053 0.929 . S
H1023 C1011 0.930 . S
H1024 C1012 0.929 . S
H1025 C1054 0.930 . S
H1026 C1035 0.930 . S
N1027 Gd996 2.661 . S
N1027 C1031 1.350 . S
N1027 C1032 1.307 . S
C1028 H1020 0.930 . S
C1028 C1029 1.355 . S
C1028 C1030 1.412 . S
C1029 H1021 0.930 . S
C1029 C1028 1.355 . S
C1029 C1032 1.402 . S
C1030 C1028 1.412 . S
C1030 C1031 1.417 . S
C1030 C1054 1.431 . S
C1031 N1027 1.350 . S
C1031 C1030 1.417 . S
C1031 C1034 1.426 . S
C1032 H1015 0.930 . S
C1032 N1027 1.307 . S
C1032 C1029 1.402 . S
N1033 Gd996 2.601 . S
N1033 C1034 1.359 . S
N1033 C1037 1.334 . S
C1034 C1031 1.426 . S
C1034 N1033 1.359 . S
C1034 C1038 1.413 . S
C1035 H1026 0.930 . S
C1035 C1036 1.359 . S
C1035 C1037 1.394 . S
C1036 C1035 1.359 . S
C1036 C1038 1.391 . S
C1036 H1039 0.929 . S
C1037 H1019 0.930 . S
C1037 N1033 1.334 . S
C1037 C1035 1.394 . S
C1038 C1034 1.413 . S
C1038 C1036 1.391 . S
C1038 C1053 1.437 . S
H1039 C1036 0.929 . S
O1040 Gd996 2.545 . S
O1040 C1055 1.258 . S
O1041 Gd996 2.606 . S
O1041 Gd997 2.362 . S
O1041 C1052 1.284 . S
O1042 Gd997 2.324 . S
O1042 C1062 1.254 . S
O1043 Gd996 2.429 . S
O1043 C1062 1.268 . S
O1044 Gd996 2.545 . S
O1044 C1052 1.250 . S
O1045 Gd996 2.412 . S
O1045 C1055 1.252 . S
O1046 Gd997 2.545 . S
O1046 C1064 1.258 . S
O1047 Gd996 2.362 . S
O1047 Gd997 2.606 . S
O1047 C1063 1.284 . S
O1048 Gd996 2.324 . S
O1048 C1071 1.254 . S
O1049 Gd997 2.429 . S
O1049 C1071 1.268 . S
O1050 Gd997 2.545 . S
O1050 C1063 1.250 . S
O1051 Gd997 2.412 . S
O1051 C1064 1.252 . S
C1052 O1041 1.284 . S
C1052 O1044 1.250 . S
C1053 H1022 0.929 . S
C1053 C1038 1.437 . S
C1053 C1054 1.317 . S
C1054 H1025 0.930 . S
C1054 C1030 1.431 . S
C1054 C1053 1.317 . S
C1055 Gd996 2.828 . S
C1055 O1040 1.258 . S
C1055 O1045 1.252 . S
C1055 C1056 1.497 . S
C1056 C1055 1.497 . S
C1056 C1057 1.395 . S
C1056 C1058 1.380 . S
C1057 C1056 1.395 . S
C1057 C1060 1.398 . S
C1057 H1072 0.930 . S
C1058 C1056 1.380 . S
C1058 C1059 1.391 . S
C1058 H1073 0.930 . S
C1059 C1058 1.391 . S
C1059 C1061 1.387 . S
C1060 C1057 1.398 . S
C1060 C1061 1.380 . S
C1060 H1074 0.930 . S
C1061 C1059 1.387 . S
C1061 C1060 1.380 . S
C1061 H1075 0.930 . S
C1062 O1042 1.254 . S
C1062 O1043 1.268 . S
C1063 O1047 1.284 . S
C1063 O1050 1.250 . S
C1064 Gd997 2.828 . S
C1064 O1046 1.258 . S
C1064 O1051 1.252 . S
C1064 C1065 1.497 . S
C1065 C1064 1.497 . S
C1065 C1066 1.395 . S
C1065 C1067 1.380 . S
C1066 C1065 1.395 . S
C1066 C1069 1.398 . S
C1066 H1076 0.930 . S
C1067 C1065 1.380 . S
C1067 C1068 1.391 . S
C1067 H1077 0.930 . S
C1068 C1067 1.391 . S
C1068 C1070 1.387 . S
C1069 C1066 1.398 . S
C1069 C1070 1.380 . S
C1069 H1078 0.930 . S
C1070 C1068 1.387 . S
C1070 C1069 1.380 . S
C1070 H1079 0.930 . S
C1071 O1048 1.254 . S
C1071 O1049 1.268 . S
H1072 C1057 0.930 . S
H1073 C1058 0.930 . S
H1074 C1060 0.930 . S
H1075 C1061 0.930 . S
H1076 C1066 0.930 . S
H1077 C1067 0.930 . S
H1078 C1069 0.930 . S
H1079 C1070 0.930 . S
Gd1080 N1111 2.661 . S
Gd1080 N1117 2.601 . S
Gd1080 O1124 2.545 . S
Gd1080 O1125 2.606 . S
Gd1080 O1127 2.429 . S
Gd1080 O1128 2.545 . S
Gd1080 O1129 2.412 . S
Gd1080 O1131 2.362 . S
Gd1080 O1132 2.324 . S
Gd1080 C1139 2.828 . S
Gd1081 N1090 2.661 . S
Gd1081 N1094 2.601 . S
Gd1081 O1125 2.362 . S
Gd1081 O1126 2.324 . S
Gd1081 O1130 2.545 . S
Gd1081 O1131 2.606 . S
Gd1081 O1133 2.429 . S
Gd1081 O1134 2.545 . S
Gd1081 O1135 2.412 . S
Gd1081 C1148 2.828 . S
C1082 C1085 1.417 . S
C1082 C1087 1.431 . S
C1082 C1088 1.412 . S
C1083 C1086 1.437 . S
C1083 C1087 1.317 . S
C1083 H1102 0.929 . S
C1084 C1085 1.426 . S
C1084 C1086 1.413 . S
C1084 N1094 1.359 . S
C1085 C1082 1.417 . S
C1085 C1084 1.426 . S
C1085 N1090 1.350 . S
C1086 C1083 1.437 . S
C1086 C1084 1.413 . S
C1086 C1096 1.391 . S
C1087 C1082 1.431 . S
C1087 C1083 1.317 . S
C1087 H1098 0.930 . S
C1088 C1082 1.412 . S
C1088 C1089 1.355 . S
C1088 H1100 0.930 . S
C1089 C1088 1.355 . S
C1089 C1091 1.402 . S
C1089 H1101 0.930 . S
N1090 Gd1081 2.661 . S
N1090 C1085 1.350 . S
N1090 C1091 1.307 . S
C1091 C1089 1.402 . S
C1091 N1090 1.307 . S
C1091 H1092 0.930 . S
H1092 C1091 0.930 . S
C1093 N1094 1.334 . S
C1093 C1095 1.394 . S
C1093 H1097 0.930 . S
N1094 Gd1081 2.601 . S
N1094 C1084 1.359 . S
N1094 C1093 1.334 . S
C1095 C1093 1.394 . S
C1095 C1096 1.359 . S
C1095 H1107 0.930 . S
C1096 C1086 1.391 . S
C1096 C1095 1.359 . S
C1096 H1108 0.929 . S
H1097 C1093 0.930 . S
H1098 C1087 0.930 . S
H1099 C1116 0.930 . S
H1100 C1088 0.930 . S
H1101 C1089 0.930 . S
H1102 C1083 0.929 . S
H1103 C1121 0.930 . S
H1104 C1112 0.930 . S
H1105 C1113 0.930 . S
H1106 C1137 0.929 . S
H1107 C1095 0.930 . S
H1108 C1096 0.929 . S
H1109 C1138 0.930 . S
H1110 C1119 0.930 . S
N1111 Gd1080 2.661 . S
N1111 C1115 1.350 . S
N1111 C1116 1.307 . S
C1112 H1104 0.930 . S
C1112 C1113 1.355 . S
C1112 C1114 1.412 . S
C1113 H1105 0.930 . S
C1113 C1112 1.355 . S
C1113 C1116 1.402 . S
C1114 C1112 1.412 . S
C1114 C1115 1.417 . S
C1114 C1138 1.431 . S
C1115 N1111 1.350 . S
C1115 C1114 1.417 . S
C1115 C1118 1.426 . S
C1116 H1099 0.930 . S
C1116 N1111 1.307 . S
C1116 C1113 1.402 . S
N1117 Gd1080 2.601 . S
N1117 C1118 1.359 . S
N1117 C1121 1.334 . S
C1118 C1115 1.426 . S
C1118 N1117 1.359 . S
C1118 C1122 1.413 . S
C1119 H1110 0.930 . S
C1119 C1120 1.359 . S
C1119 C1121 1.394 . S
C1120 C1119 1.359 . S
C1120 C1122 1.391 . S
C1120 H1123 0.929 . S
C1121 H1103 0.930 . S
C1121 N1117 1.334 . S
C1121 C1119 1.394 . S
C1122 C1118 1.413 . S
C1122 C1120 1.391 . S
C1122 C1137 1.437 . S
H1123 C1120 0.929 . S
O1124 Gd1080 2.545 . S
O1124 C1139 1.258 . S
O1125 Gd1080 2.606 . S
O1125 Gd1081 2.362 . S
O1125 C1136 1.284 . S
O1126 Gd1081 2.324 . S
O1126 C1146 1.254 . S
O1127 Gd1080 2.429 . S
O1127 C1146 1.268 . S
O1128 Gd1080 2.545 . S
O1128 C1136 1.250 . S
O1129 Gd1080 2.412 . S
O1129 C1139 1.252 . S
O1130 Gd1081 2.545 . S
O1130 C1148 1.258 . S
O1131 Gd1080 2.362 . S
O1131 Gd1081 2.606 . S
O1131 C1147 1.284 . S
O1132 Gd1080 2.324 . S
O1132 C1155 1.254 . S
O1133 Gd1081 2.429 . S
O1133 C1155 1.268 . S
O1134 Gd1081 2.545 . S
O1134 C1147 1.250 . S
O1135 Gd1081 2.412 . S
O1135 C1148 1.252 . S
C1136 O1125 1.284 . S
C1136 O1128 1.250 . S
C1137 H1106 0.929 . S
C1137 C1122 1.437 . S
C1137 C1138 1.317 . S
C1138 H1109 0.930 . S
C1138 C1114 1.431 . S
C1138 C1137 1.317 . S
C1139 Gd1080 2.828 . S
C1139 O1124 1.258 . S
C1139 O1129 1.252 . S
C1139 C1140 1.497 . S
C1140 C1139 1.497 . S
C1140 C1141 1.395 . S
C1140 C1142 1.380 . S
C1141 C1140 1.395 . S
C1141 C1144 1.398 . S
C1141 H1156 0.930 . S
C1142 C1140 1.380 . S
C1142 C1143 1.391 . S
C1142 H1157 0.930 . S
C1143 C1142 1.391 . S
C1143 C1145 1.387 . S
C1144 C1141 1.398 . S
C1144 C1145 1.380 . S
C1144 H1158 0.930 . S
C1145 C1143 1.387 . S
C1145 C1144 1.380 . S
C1145 H1159 0.930 . S
C1146 O1126 1.254 . S
C1146 O1127 1.268 . S
C1147 O1131 1.284 . S
C1147 O1134 1.250 . S
C1148 Gd1081 2.828 . S
C1148 O1130 1.258 . S
C1148 O1135 1.252 . S
C1148 C1149 1.497 . S
C1149 C1148 1.497 . S
C1149 C1150 1.395 . S
C1149 C1151 1.380 . S
C1150 C1149 1.395 . S
C1150 C1153 1.398 . S
C1150 H1160 0.930 . S
C1151 C1149 1.380 . S
C1151 C1152 1.391 . S
C1151 H1161 0.930 . S
C1152 C1151 1.391 . S
C1152 C1154 1.387 . S
C1153 C1150 1.398 . S
C1153 C1154 1.380 . S
C1153 H1162 0.930 . S
C1154 C1152 1.387 . S
C1154 C1153 1.380 . S
C1154 H1163 0.930 . S
C1155 O1132 1.254 . S
C1155 O1133 1.268 . S
H1156 C1141 0.930 . S
H1157 C1142 0.930 . S
H1158 C1144 0.930 . S
H1159 C1145 0.930 . S
H1160 C1150 0.930 . S
H1161 C1151 0.930 . S
H1162 C1153 0.930 . S
H1163 C1154 0.930 . S
Gd1164 N1195 2.661 . S
Gd1164 N1201 2.601 . S
Gd1164 O1208 2.545 . S
Gd1164 O1209 2.606 . S
Gd1164 O1211 2.429 . S
Gd1164 O1212 2.545 . S
Gd1164 O1213 2.412 . S
Gd1164 O1215 2.362 . S
Gd1164 O1216 2.324 . S
Gd1164 C1223 2.828 . S
Gd1165 N1174 2.661 . S
Gd1165 N1178 2.601 . S
Gd1165 O1209 2.362 . S
Gd1165 O1210 2.324 . S
Gd1165 O1214 2.545 . S
Gd1165 O1215 2.606 . S
Gd1165 O1217 2.429 . S
Gd1165 O1218 2.545 . S
Gd1165 O1219 2.412 . S
Gd1165 C1232 2.828 . S
C1166 C1169 1.417 . S
C1166 C1171 1.431 . S
C1166 C1172 1.412 . S
C1167 C1170 1.437 . S
C1167 C1171 1.317 . S
C1167 H1186 0.929 . S
C1168 C1169 1.426 . S
C1168 C1170 1.413 . S
C1168 N1178 1.359 . S
C1169 C1166 1.417 . S
C1169 C1168 1.426 . S
C1169 N1174 1.350 . S
C1170 C1167 1.437 . S
C1170 C1168 1.413 . S
C1170 C1180 1.391 . S
C1171 C1166 1.431 . S
C1171 C1167 1.317 . S
C1171 H1182 0.930 . S
C1172 C1166 1.412 . S
C1172 C1173 1.355 . S
C1172 H1184 0.930 . S
C1173 C1172 1.355 . S
C1173 C1175 1.402 . S
C1173 H1185 0.930 . S
N1174 Gd1165 2.661 . S
N1174 C1169 1.350 . S
N1174 C1175 1.307 . S
C1175 C1173 1.402 . S
C1175 N1174 1.307 . S
C1175 H1176 0.930 . S
H1176 C1175 0.930 . S
C1177 N1178 1.334 . S
C1177 C1179 1.394 . S
C1177 H1181 0.930 . S
N1178 Gd1165 2.601 . S
N1178 C1168 1.359 . S
N1178 C1177 1.334 . S
C1179 C1177 1.394 . S
C1179 C1180 1.359 . S
C1179 H1191 0.930 . S
C1180 C1170 1.391 . S
C1180 C1179 1.359 . S
C1180 H1192 0.929 . S
H1181 C1177 0.930 . S
H1182 C1171 0.930 . S
H1183 C1200 0.930 . S
H1184 C1172 0.930 . S
H1185 C1173 0.930 . S
H1186 C1167 0.929 . S
H1187 C1205 0.930 . S
H1188 C1196 0.930 . S
H1189 C1197 0.930 . S
H1190 C1221 0.929 . S
H1191 C1179 0.930 . S
H1192 C1180 0.929 . S
H1193 C1222 0.930 . S
H1194 C1203 0.930 . S
N1195 Gd1164 2.661 . S
N1195 C1199 1.350 . S
N1195 C1200 1.307 . S
C1196 H1188 0.930 . S
C1196 C1197 1.355 . S
C1196 C1198 1.412 . S
C1197 H1189 0.930 . S
C1197 C1196 1.355 . S
C1197 C1200 1.402 . S
C1198 C1196 1.412 . S
C1198 C1199 1.417 . S
C1198 C1222 1.431 . S
C1199 N1195 1.350 . S
C1199 C1198 1.417 . S
C1199 C1202 1.426 . S
C1200 H1183 0.930 . S
C1200 N1195 1.307 . S
C1200 C1197 1.402 . S
N1201 Gd1164 2.601 . S
N1201 C1202 1.359 . S
N1201 C1205 1.334 . S
C1202 C1199 1.426 . S
C1202 N1201 1.359 . S
C1202 C1206 1.413 . S
C1203 H1194 0.930 . S
C1203 C1204 1.359 . S
C1203 C1205 1.394 . S
C1204 C1203 1.359 . S
C1204 C1206 1.391 . S
C1204 H1207 0.929 . S
C1205 H1187 0.930 . S
C1205 N1201 1.334 . S
C1205 C1203 1.394 . S
C1206 C1202 1.413 . S
C1206 C1204 1.391 . S
C1206 C1221 1.437 . S
H1207 C1204 0.929 . S
O1208 Gd1164 2.545 . S
O1208 C1223 1.258 . S
O1209 Gd1164 2.606 . S
O1209 Gd1165 2.362 . S
O1209 C1220 1.284 . S
O1210 Gd1165 2.324 . S
O1210 C1230 1.254 . S
O1211 Gd1164 2.429 . S
O1211 C1230 1.268 . S
O1212 Gd1164 2.545 . S
O1212 C1220 1.250 . S
O1213 Gd1164 2.412 . S
O1213 C1223 1.252 . S
O1214 Gd1165 2.545 . S
O1214 C1232 1.258 . S
O1215 Gd1164 2.362 . S
O1215 Gd1165 2.606 . S
O1215 C1231 1.284 . S
O1216 Gd1164 2.324 . S
O1216 C1239 1.254 . S
O1217 Gd1165 2.429 . S
O1217 C1239 1.268 . S
O1218 Gd1165 2.545 . S
O1218 C1231 1.250 . S
O1219 Gd1165 2.412 . S
O1219 C1232 1.252 . S
C1220 O1209 1.284 . S
C1220 O1212 1.250 . S
C1221 H1190 0.929 . S
C1221 C1206 1.437 . S
C1221 C1222 1.317 . S
C1222 H1193 0.930 . S
C1222 C1198 1.431 . S
C1222 C1221 1.317 . S
C1223 Gd1164 2.828 . S
C1223 O1208 1.258 . S
C1223 O1213 1.252 . S
C1223 C1224 1.497 . S
C1224 C1223 1.497 . S
C1224 C1225 1.395 . S
C1224 C1226 1.380 . S
C1225 C1224 1.395 . S
C1225 C1228 1.398 . S
C1225 H1240 0.930 . S
C1226 C1224 1.380 . S
C1226 C1227 1.391 . S
C1226 H1241 0.930 . S
C1227 C1226 1.391 . S
C1227 C1229 1.387 . S
C1228 C1225 1.398 . S
C1228 C1229 1.380 . S
C1228 H1242 0.930 . S
C1229 C1227 1.387 . S
C1229 C1228 1.380 . S
C1229 H1243 0.930 . S
C1230 O1210 1.254 . S
C1230 O1211 1.268 . S
C1231 O1215 1.284 . S
C1231 O1218 1.250 . S
C1232 Gd1165 2.828 . S
C1232 O1214 1.258 . S
C1232 O1219 1.252 . S
C1232 C1233 1.497 . S
C1233 C1232 1.497 . S
C1233 C1234 1.395 . S
C1233 C1235 1.380 . S
C1234 C1233 1.395 . S
C1234 C1237 1.398 . S
C1234 H1244 0.930 . S
C1235 C1233 1.380 . S
C1235 C1236 1.391 . S
C1235 H1245 0.930 . S
C1236 C1235 1.391 . S
C1236 C1238 1.387 . S
C1237 C1234 1.398 . S
C1237 C1238 1.380 . S
C1237 H1246 0.930 . S
C1238 C1236 1.387 . S
C1238 C1237 1.380 . S
C1238 H1247 0.930 . S
C1239 O1216 1.254 . S
C1239 O1217 1.268 . S
H1240 C1225 0.930 . S
H1241 C1226 0.930 . S
H1242 C1228 0.930 . S
H1243 C1229 0.930 . S
H1244 C1234 0.930 . S
H1245 C1235 0.930 . S
H1246 C1237 0.930 . S
H1247 C1238 0.930 . S
Gd1248 N1279 2.661 . S
Gd1248 N1285 2.601 . S
Gd1248 O1292 2.545 . S
Gd1248 O1293 2.606 . S
Gd1248 O1295 2.429 . S
Gd1248 O1296 2.545 . S
Gd1248 O1297 2.412 . S
Gd1248 O1299 2.362 . S
Gd1248 O1300 2.324 . S
Gd1248 C1307 2.828 . S
Gd1249 N1258 2.661 . S
Gd1249 N1262 2.601 . S
Gd1249 O1293 2.362 . S
Gd1249 O1294 2.324 . S
Gd1249 O1298 2.545 . S
Gd1249 O1299 2.606 . S
Gd1249 O1301 2.429 . S
Gd1249 O1302 2.545 . S
Gd1249 O1303 2.412 . S
Gd1249 C1316 2.828 . S
C1250 C1253 1.417 . S
C1250 C1255 1.431 . S
C1250 C1256 1.412 . S
C1251 C1254 1.437 . S
C1251 C1255 1.317 . S
C1251 H1270 0.929 . S
C1252 C1253 1.426 . S
C1252 C1254 1.413 . S
C1252 N1262 1.359 . S
C1253 C1250 1.417 . S
C1253 C1252 1.426 . S
C1253 N1258 1.350 . S
C1254 C1251 1.437 . S
C1254 C1252 1.413 . S
C1254 C1264 1.391 . S
C1255 C1250 1.431 . S
C1255 C1251 1.317 . S
C1255 H1266 0.930 . S
C1256 C1250 1.412 . S
C1256 C1257 1.355 . S
C1256 H1268 0.930 . S
C1257 C1256 1.355 . S
C1257 C1259 1.402 . S
C1257 H1269 0.930 . S
N1258 Gd1249 2.661 . S
N1258 C1253 1.350 . S
N1258 C1259 1.307 . S
C1259 C1257 1.402 . S
C1259 N1258 1.307 . S
C1259 H1260 0.930 . S
H1260 C1259 0.930 . S
C1261 N1262 1.334 . S
C1261 C1263 1.394 . S
C1261 H1265 0.930 . S
N1262 Gd1249 2.601 . S
N1262 C1252 1.359 . S
N1262 C1261 1.334 . S
C1263 C1261 1.394 . S
C1263 C1264 1.359 . S
C1263 H1275 0.930 . S
C1264 C1254 1.391 . S
C1264 C1263 1.359 . S
C1264 H1276 0.929 . S
H1265 C1261 0.930 . S
H1266 C1255 0.930 . S
H1267 C1284 0.930 . S
H1268 C1256 0.930 . S
H1269 C1257 0.930 . S
H1270 C1251 0.929 . S
H1271 C1289 0.930 . S
H1272 C1280 0.930 . S
H1273 C1281 0.930 . S
H1274 C1305 0.929 . S
H1275 C1263 0.930 . S
H1276 C1264 0.929 . S
H1277 C1306 0.930 . S
H1278 C1287 0.930 . S
N1279 Gd1248 2.661 . S
N1279 C1283 1.350 . S
N1279 C1284 1.307 . S
C1280 H1272 0.930 . S
C1280 C1281 1.355 . S
C1280 C1282 1.412 . S
C1281 H1273 0.930 . S
C1281 C1280 1.355 . S
C1281 C1284 1.402 . S
C1282 C1280 1.412 . S
C1282 C1283 1.417 . S
C1282 C1306 1.431 . S
C1283 N1279 1.350 . S
C1283 C1282 1.417 . S
C1283 C1286 1.426 . S
C1284 H1267 0.930 . S
C1284 N1279 1.307 . S
C1284 C1281 1.402 . S
N1285 Gd1248 2.601 . S
N1285 C1286 1.359 . S
N1285 C1289 1.334 . S
C1286 C1283 1.426 . S
C1286 N1285 1.359 . S
C1286 C1290 1.413 . S
C1287 H1278 0.930 . S
C1287 C1288 1.359 . S
C1287 C1289 1.394 . S
C1288 C1287 1.359 . S
C1288 C1290 1.391 . S
C1288 H1291 0.929 . S
C1289 H1271 0.930 . S
C1289 N1285 1.334 . S
C1289 C1287 1.394 . S
C1290 C1286 1.413 . S
C1290 C1288 1.391 . S
C1290 C1305 1.437 . S
H1291 C1288 0.929 . S
O1292 Gd1248 2.545 . S
O1292 C1307 1.258 . S
O1293 Gd1248 2.606 . S
O1293 Gd1249 2.362 . S
O1293 C1304 1.284 . S
O1294 Gd1249 2.324 . S
O1294 C1314 1.254 . S
O1295 Gd1248 2.429 . S
O1295 C1314 1.268 . S
O1296 Gd1248 2.545 . S
O1296 C1304 1.250 . S
O1297 Gd1248 2.412 . S
O1297 C1307 1.252 . S
O1298 Gd1249 2.545 . S
O1298 C1316 1.258 . S
O1299 Gd1248 2.362 . S
O1299 Gd1249 2.606 . S
O1299 C1315 1.284 . S
O1300 Gd1248 2.324 . S
O1300 C1323 1.254 . S
O1301 Gd1249 2.429 . S
O1301 C1323 1.268 . S
O1302 Gd1249 2.545 . S
O1302 C1315 1.250 . S
O1303 Gd1249 2.412 . S
O1303 C1316 1.252 . S
C1304 O1293 1.284 . S
C1304 O1296 1.250 . S
C1305 H1274 0.929 . S
C1305 C1290 1.437 . S
C1305 C1306 1.317 . S
C1306 H1277 0.930 . S
C1306 C1282 1.431 . S
C1306 C1305 1.317 . S
C1307 Gd1248 2.828 . S
C1307 O1292 1.258 . S
C1307 O1297 1.252 . S
C1307 C1308 1.497 . S
C1308 C1307 1.497 . S
C1308 C1309 1.395 . S
C1308 C1310 1.380 . S
C1309 C1308 1.395 . S
C1309 C1312 1.398 . S
C1309 H1324 0.930 . S
C1310 C1308 1.380 . S
C1310 C1311 1.391 . S
C1310 H1325 0.930 . S
C1311 C1310 1.391 . S
C1311 C1313 1.387 . S
C1312 C1309 1.398 . S
C1312 C1313 1.380 . S
C1312 H1326 0.930 . S
C1313 C1311 1.387 . S
C1313 C1312 1.380 . S
C1313 H1327 0.930 . S
C1314 O1294 1.254 . S
C1314 O1295 1.268 . S
C1315 O1299 1.284 . S
C1315 O1302 1.250 . S
C1316 Gd1249 2.828 . S
C1316 O1298 1.258 . S
C1316 O1303 1.252 . S
C1316 C1317 1.497 . S
C1317 C1316 1.497 . S
C1317 C1318 1.395 . S
C1317 C1319 1.380 . S
C1318 C1317 1.395 . S
C1318 C1321 1.398 . S
C1318 H1328 0.930 . S
C1319 C1317 1.380 . S
C1319 C1320 1.391 . S
C1319 H1329 0.930 . S
C1320 C1319 1.391 . S
C1320 C1322 1.387 . S
C1321 C1318 1.398 . S
C1321 C1322 1.380 . S
C1321 H1330 0.930 . S
C1322 C1320 1.387 . S
C1322 C1321 1.380 . S
C1322 H1331 0.930 . S
C1323 O1300 1.254 . S
C1323 O1301 1.268 . S
H1324 C1309 0.930 . S
H1325 C1310 0.930 . S
H1326 C1312 0.930 . S
H1327 C1313 0.930 . S
H1328 C1318 0.930 . S
H1329 C1319 0.930 . S
H1330 C1321 0.930 . S
H1331 C1322 0.930 . S
H1332 C1338 0.930 . S
H1333 C1341 0.930 . S
H1334 C1342 0.930 . S
H1335 C1343 0.930 . S
H1336 C1346 0.930 . S
H1337 C1347 0.930 . S
C1338 H1332 0.930 . S
C1338 C1339 1.355 . S
C1338 C1340 1.415 . S
C1339 C1338 1.355 . S
C1339 C1341 1.419 . S
C1340 C1338 1.415 . S
C1340 C1345 1.425 . S
C1340 C1347 1.409 . S
C1341 H1333 0.930 . S
C1341 C1339 1.419 . S
C1341 C1342 1.362 . S
C1342 H1334 0.930 . S
C1342 C1341 1.362 . S
C1342 C1345 1.409 . S
C1343 H1335 0.930 . S
C1343 C1344 1.355 . S
C1343 C1345 1.415 . S
C1344 C1343 1.355 . S
C1344 C1346 1.419 . S
C1345 C1340 1.425 . S
C1345 C1342 1.409 . S
C1345 C1343 1.415 . S
C1346 H1336 0.930 . S
C1346 C1344 1.419 . S
C1346 C1347 1.362 . S
C1347 H1337 0.930 . S
C1347 C1340 1.409 . S
C1347 C1346 1.362 . S
H1348 C1354 0.930 . S
H1349 C1357 0.930 . S
H1350 C1358 0.930 . S
H1351 C1359 0.930 . S
H1352 C1362 0.930 . S
H1353 C1363 0.930 . S
C1354 H1348 0.930 . S
C1354 C1355 1.355 . S
C1354 C1356 1.415 . S
C1355 C1354 1.355 . S
C1355 C1357 1.419 . S
C1356 C1354 1.415 . S
C1356 C1361 1.425 . S
C1356 C1363 1.409 . S
C1357 H1349 0.930 . S
C1357 C1355 1.419 . S
C1357 C1358 1.362 . S
C1358 H1350 0.930 . S
C1358 C1357 1.362 . S
C1358 C1361 1.409 . S
C1359 H1351 0.930 . S
C1359 C1360 1.355 . S
C1359 C1361 1.415 . S
C1360 C1359 1.355 . S
C1360 C1362 1.419 . S
C1361 C1356 1.425 . S
C1361 C1358 1.409 . S
C1361 C1359 1.415 . S
C1362 H1352 0.930 . S
C1362 C1360 1.419 . S
C1362 C1363 1.362 . S
C1363 H1353 0.930 . S
C1363 C1356 1.409 . S
C1363 C1362 1.362 . S
H1364 C1370 0.930 . S
H1365 C1373 0.930 . S
H1366 C1374 0.930 . S
H1367 C1375 0.930 . S
H1368 C1378 0.930 1_556 S
H1369 C1379 0.930 . S
C1370 H1364 0.930 . S
C1370 C1371 1.355 . S
C1370 C1372 1.415 . S
C1371 C1370 1.355 . S
C1371 C1373 1.419 . S
C1372 C1370 1.415 . S
C1372 C1377 1.425 . S
C1372 C1379 1.409 . S
C1373 H1365 0.930 . S
C1373 C1371 1.419 . S
C1373 C1374 1.362 . S
C1374 H1366 0.930 . S
C1374 C1373 1.362 . S
C1374 C1377 1.409 . S
C1375 H1367 0.930 . S
C1375 C1376 1.355 . S
C1375 C1377 1.415 . S
C1376 C1375 1.355 . S
C1376 C1378 1.419 . S
C1377 C1372 1.425 . S
C1377 C1374 1.409 . S
C1377 C1375 1.415 . S
C1378 H1368 0.930 1_554 S
C1378 C1376 1.419 . S
C1378 C1379 1.362 . S
C1379 H1369 0.930 . S
C1379 C1372 1.409 . S
C1379 C1378 1.362 . S
H1380 C1386 0.930 . S
H1381 C1389 0.930 . S
H1382 C1390 0.930 . S
H1383 C1391 0.930 . S
H1384 C1394 0.930 . S
H1385 C1395 0.930 . S
C1386 H1380 0.930 . S
C1386 C1387 1.355 . S
C1386 C1388 1.415 . S
C1387 C1386 1.355 . S
C1387 C1389 1.419 . S
C1388 C1386 1.415 . S
C1388 C1393 1.425 . S
C1388 C1395 1.409 . S
C1389 H1381 0.930 . S
C1389 C1387 1.419 . S
C1389 C1390 1.362 . S
C1390 H1382 0.930 . S
C1390 C1389 1.362 . S
C1390 C1393 1.409 . S
C1391 H1383 0.930 . S
C1391 C1392 1.355 . S
C1391 C1393 1.415 . S
C1392 C1391 1.355 . S
C1392 C1394 1.419 . S
C1393 C1388 1.425 . S
C1393 C1390 1.409 . S
C1393 C1391 1.415 . S
C1394 H1384 0.930 . S
C1394 C1392 1.419 . S
C1394 C1395 1.362 . S
C1395 H1385 0.930 . S
C1395 C1388 1.409 . S
C1395 C1394 1.362 . S
H1396 C1402 0.930 . S
H1397 C1405 0.930 . S
H1398 C1406 0.930 . S
H1399 C1407 0.930 1_554 S
H1400 C1410 0.930 . S
H1401 C1411 0.930 . S
C1402 H1396 0.930 . S
C1402 C1403 1.355 . S
C1402 C1404 1.415 . S
C1403 C1402 1.355 . S
C1403 C1405 1.419 . S
C1404 C1402 1.415 . S
C1404 C1409 1.425 . S
C1404 C1411 1.409 . S
C1405 H1397 0.930 . S
C1405 C1403 1.419 . S
C1405 C1406 1.362 . S
C1406 H1398 0.930 . S
C1406 C1405 1.362 . S
C1406 C1409 1.409 . S
C1407 H1399 0.930 1_556 S
C1407 C1408 1.355 . S
C1407 C1409 1.415 . S
C1408 C1407 1.355 . S
C1408 C1410 1.419 . S
C1409 C1404 1.425 . S
C1409 C1406 1.409 . S
C1409 C1407 1.415 . S
C1410 H1400 0.930 . S
C1410 C1408 1.419 . S
C1410 C1411 1.362 . S
C1411 H1401 0.930 . S
C1411 C1404 1.409 . S
C1411 C1410 1.362 . S
H1412 C1418 0.930 . S
H1413 C1421 0.930 . S
H1414 C1422 0.930 . S
H1415 C1423 0.930 . S
H1416 C1426 0.930 . S
H1417 C1427 0.930 . S
C1418 H1412 0.930 . S
C1418 C1419 1.355 . S
C1418 C1420 1.415 . S
C1419 C1418 1.355 . S
C1419 C1421 1.419 . S
C1420 C1418 1.415 . S
C1420 C1425 1.425 . S
C1420 C1427 1.409 . S
C1421 H1413 0.930 . S
C1421 C1419 1.419 . S
C1421 C1422 1.362 . S
C1422 H1414 0.930 . S
C1422 C1421 1.362 . S
C1422 C1425 1.409 . S
C1423 H1415 0.930 . S
C1423 C1424 1.355 . S
C1423 C1425 1.415 . S
C1424 C1423 1.355 . S
C1424 C1426 1.419 . S
C1425 C1420 1.425 . S
C1425 C1422 1.409 . S
C1425 C1423 1.415 . S
C1426 H1416 0.930 . S
C1426 C1424 1.419 . S
C1426 C1427 1.362 . S
C1427 H1417 0.930 . S
C1427 C1420 1.409 . S
C1427 C1426 1.362 . S
H1428 C1434 0.930 . S
H1429 C1437 0.930 . S
H1430 C1438 0.930 . S
H1431 C1439 0.930 . S
H1432 C1442 0.930 . S
H1433 C1443 0.930 . S
C1434 H1428 0.930 . S
C1434 C1435 1.355 . S
C1434 C1436 1.415 . S
C1435 C1434 1.355 . S
C1435 C1437 1.419 . S
C1436 C1434 1.415 . S
C1436 C1441 1.425 . S
C1436 C1443 1.409 . S
C1437 H1429 0.930 . S
C1437 C1435 1.419 . S
C1437 C1438 1.362 . S
C1438 H1430 0.930 . S
C1438 C1437 1.362 . S
C1438 C1441 1.409 . S
C1439 H1431 0.930 . S
C1439 C1440 1.355 . S
C1439 C1441 1.415 . S
C1440 C1439 1.355 . S
C1440 C1442 1.419 . S
C1441 C1436 1.425 . S
C1441 C1438 1.409 . S
C1441 C1439 1.415 . S
C1442 H1432 0.930 . S
C1442 C1440 1.419 . S
C1442 C1443 1.362 . S
C1443 H1433 0.930 . S
C1443 C1436 1.409 . S
C1443 C1442 1.362 . S
H1444 C1450 0.930 . S
H1445 C1453 0.930 . S
H1446 C1454 0.930 . S
H1447 C1455 0.930 . S
H1448 C1458 0.930 1_554 S
H1449 C1459 0.930 1_554 S
C1450 H1444 0.930 . S
C1450 C1451 1.355 . S
C1450 C1452 1.415 . S
C1451 C1450 1.355 . S
C1451 C1453 1.419 . S
C1452 C1450 1.415 . S
C1452 C1457 1.425 . S
C1452 C1459 1.409 . S
C1453 H1445 0.930 . S
C1453 C1451 1.419 . S
C1453 C1454 1.362 . S
C1454 H1446 0.930 . S
C1454 C1453 1.362 . S
C1454 C1457 1.409 . S
C1455 H1447 0.930 . S
C1455 C1456 1.355 . S
C1455 C1457 1.415 . S
C1456 C1455 1.355 . S
C1456 C1458 1.419 . S
C1457 C1452 1.425 . S
C1457 C1454 1.409 . S
C1457 C1455 1.415 . S
C1458 H1448 0.930 1_556 S
C1458 C1456 1.419 . S
C1458 C1459 1.362 . S
C1459 H1449 0.930 1_556 S
C1459 C1452 1.409 . S
C1459 C1458 1.362 . S
H1460 C1466 0.930 . S
H1461 C1469 0.930 . S
H1462 C1470 0.930 . S
H1463 C1471 0.930 . S
H1464 C1474 0.930 . S
H1465 C1475 0.930 . S
C1466 H1460 0.930 . S
C1466 C1467 1.355 . S
C1466 C1468 1.415 . S
C1467 C1466 1.355 . S
C1467 C1469 1.419 . S
C1468 C1466 1.415 . S
C1468 C1473 1.425 . S
C1468 C1475 1.409 . S
C1469 H1461 0.930 . S
C1469 C1467 1.419 . S
C1469 C1470 1.362 . S
C1470 H1462 0.930 . S
C1470 C1469 1.362 . S
C1470 C1473 1.409 . S
C1471 H1463 0.930 . S
C1471 C1472 1.355 . S
C1471 C1473 1.415 . S
C1472 C1471 1.355 . S
C1472 C1474 1.419 . S
C1473 C1468 1.425 . S
C1473 C1470 1.409 . S
C1473 C1471 1.415 . S
C1474 H1464 0.930 . S
C1474 C1472 1.419 . S
C1474 C1475 1.362 . S
C1475 H1465 0.930 . S
C1475 C1468 1.409 . S
C1475 C1474 1.362 . S
H1476 C1482 0.930 . S
H1477 C1485 0.930 . S
H1478 C1486 0.930 . S
H1479 C1487 0.930 . S
H1480 C1490 0.930 1_556 S
H1481 C1491 0.930 . S
C1482 H1476 0.930 . S
C1482 C1483 1.355 . S
C1482 C1484 1.415 . S
C1483 C1482 1.355 . S
C1483 C1485 1.419 . S
C1484 C1482 1.415 . S
C1484 C1489 1.425 . S
C1484 C1491 1.409 . S
C1485 H1477 0.930 . S
C1485 C1483 1.419 . S
C1485 C1486 1.362 . S
C1486 H1478 0.930 . S
C1486 C1485 1.362 . S
C1486 C1489 1.409 . S
C1487 H1479 0.930 . S
C1487 C1488 1.355 . S
C1487 C1489 1.415 . S
C1488 C1487 1.355 . S
C1488 C1490 1.419 . S
C1489 C1484 1.425 . S
C1489 C1486 1.409 . S
C1489 C1487 1.415 . S
C1490 H1480 0.930 1_554 S
C1490 C1488 1.419 . S
C1490 C1491 1.362 . S
C1491 H1481 0.930 . S
C1491 C1484 1.409 . S
C1491 C1490 1.362 . S
H1492 C1498 0.930 . S
H1493 C1501 0.930 . S
H1494 C1502 0.930 . S
H1495 C1503 0.930 . S
H1496 C1506 0.930 . S
H1497 C1507 0.930 . S
C1498 H1492 0.930 . S
C1498 C1499 1.355 . S
C1498 C1500 1.415 . S
C1499 C1498 1.355 . S
C1499 C1501 1.419 . S
C1500 C1498 1.415 . S
C1500 C1505 1.425 . S
C1500 C1507 1.409 . S
C1501 H1493 0.930 . S
C1501 C1499 1.419 . S
C1501 C1502 1.362 . S
C1502 H1494 0.930 . S
C1502 C1501 1.362 . S
C1502 C1505 1.409 . S
C1503 H1495 0.930 . S
C1503 C1504 1.355 . S
C1503 C1505 1.415 . S
C1504 C1503 1.355 . S
C1504 C1506 1.419 . S
C1505 C1500 1.425 . S
C1505 C1502 1.409 . S
C1505 C1503 1.415 . S
C1506 H1496 0.930 . S
C1506 C1504 1.419 . S
C1506 C1507 1.362 . S
C1507 H1497 0.930 . S
C1507 C1500 1.409 . S
C1507 C1506 1.362 . S
H1508 C1514 0.930 . S
H1509 C1517 0.930 . S
H1510 C1518 0.930 . S
H1511 C1519 0.930 . S
H1512 C1522 0.930 . S
H1513 C1523 0.930 . S
C1514 H1508 0.930 . S
C1514 C1515 1.355 . S
C1514 C1516 1.415 . S
C1515 C1514 1.355 . S
C1515 C1517 1.419 . S
C1516 C1514 1.415 . S
C1516 C1521 1.425 . S
C1516 C1523 1.409 . S
C1517 H1509 0.930 . S
C1517 C1515 1.419 . S
C1517 C1518 1.362 . S
C1518 H1510 0.930 . S
C1518 C1517 1.362 . S
C1518 C1521 1.409 . S
C1519 H1511 0.930 . S
C1519 C1520 1.355 . S
C1519 C1521 1.415 . S
C1520 C1519 1.355 . S
C1520 C1522 1.419 . S
C1521 C1516 1.425 . S
C1521 C1518 1.409 . S
C1521 C1519 1.415 . S
C1522 H1512 0.930 . S
C1522 C1520 1.419 . S
C1522 C1523 1.362 . S
C1523 H1513 0.930 . S
C1523 C1516 1.409 . S
C1523 C1522 1.362 . S
H1524 C1530 0.930 . S
H1525 C1533 0.930 . S
H1526 C1534 0.930 . S
H1527 C1535 0.930 . S
H1528 C1538 0.930 . S
H1529 C1539 0.930 . S
C1530 H1524 0.930 . S
C1530 C1531 1.355 1_455 S
C1530 C1532 1.415 . S
C1531 C1530 1.355 1_655 S
C1531 C1533 1.419 . S
C1532 C1530 1.415 . S
C1532 C1537 1.425 . S
C1532 C1539 1.409 . S
C1533 H1525 0.930 . S
C1533 C1531 1.419 . S
C1533 C1534 1.362 1_655 S
C1534 H1526 0.930 . S
C1534 C1533 1.362 1_455 S
C1534 C1537 1.409 . S
C1535 H1527 0.930 . S
C1535 C1536 1.355 . S
C1535 C1537 1.415 . S
C1536 C1535 1.355 . S
C1536 C1538 1.419 . S
C1537 C1532 1.425 . S
C1537 C1534 1.409 . S
C1537 C1535 1.415 . S
C1538 H1528 0.930 . S
C1538 C1536 1.419 . S
C1538 C1539 1.362 . S
C1539 H1529 0.930 . S
C1539 C1532 1.409 . S
C1539 C1538 1.362 . S
H1540 C1546 0.930 . S
H1541 C1549 0.930 . S
H1542 C1550 0.930 . S
H1543 C1551 0.930 . S
H1544 C1554 0.930 . S
H1545 C1555 0.930 . S
C1546 H1540 0.930 . S
C1546 C1547 1.355 . S
C1546 C1548 1.415 . S
C1547 C1546 1.355 . S
C1547 C1549 1.419 . S
C1548 C1546 1.415 . S
C1548 C1553 1.425 . S
C1548 C1555 1.409 . S
C1549 H1541 0.930 . S
C1549 C1547 1.419 . S
C1549 C1550 1.362 . S
C1550 H1542 0.930 . S
C1550 C1549 1.362 . S
C1550 C1553 1.409 . S
C1551 H1543 0.930 . S
C1551 C1552 1.355 . S
C1551 C1553 1.415 . S
C1552 C1551 1.355 . S
C1552 C1554 1.419 . S
C1553 C1548 1.425 . S
C1553 C1550 1.409 . S
C1553 C1551 1.415 . S
C1554 H1544 0.930 . S
C1554 C1552 1.419 . S
C1554 C1555 1.362 . S
C1555 H1545 0.930 . S
C1555 C1548 1.409 . S
C1555 C1554 1.362 . S
H1556 C1562 0.930 . S
H1557 C1565 0.930 . S
H1558 C1566 0.930 . S
H1559 C1567 0.930 . S
H1560 C1570 0.930 . S
H1561 C1571 0.930 . S
C1562 H1556 0.930 . S
C1562 C1563 1.355 1_565 S
C1562 C1564 1.415 . S
C1563 C1562 1.355 1_545 S
C1563 C1565 1.419 . S
C1564 C1562 1.415 . S
C1564 C1569 1.425 . S
C1564 C1571 1.409 . S
C1565 H1557 0.930 . S
C1565 C1563 1.419 . S
C1565 C1566 1.362 1_545 S
C1566 H1558 0.930 . S
C1566 C1565 1.362 1_565 S
C1566 C1569 1.409 . S
C1567 H1559 0.930 . S
C1567 C1568 1.355 . S
C1567 C1569 1.415 . S
C1568 C1567 1.355 . S
C1568 C1570 1.419 . S
C1569 C1564 1.425 . S
C1569 C1566 1.409 . S
C1569 C1567 1.415 . S
C1570 H1560 0.930 . S
C1570 C1568 1.419 . S
C1570 C1571 1.362 . S
C1571 H1561 0.930 . S
C1571 C1564 1.409 . S
C1571 C1570 1.362 . S
H1572 C1578 0.930 . S
H1573 C1581 0.930 . S
H1574 C1582 0.930 . S
H1575 C1583 0.930 . S
H1576 C1586 0.930 . S
H1577 C1587 0.930 . S
C1578 H1572 0.930 . S
C1578 C1579 1.355 . S
C1578 C1580 1.415 . S
C1579 C1578 1.355 . S
C1579 C1581 1.419 . S
C1580 C1578 1.415 . S
C1580 C1585 1.425 . S
C1580 C1587 1.409 . S
C1581 H1573 0.930 . S
C1581 C1579 1.419 . S
C1581 C1582 1.362 . S
C1582 H1574 0.930 . S
C1582 C1581 1.362 . S
C1582 C1585 1.409 . S
C1583 H1575 0.930 . S
C1583 C1584 1.355 . S
C1583 C1585 1.415 . S
C1584 C1583 1.355 . S
C1584 C1586 1.419 . S
C1585 C1580 1.425 . S
C1585 C1582 1.409 . S
C1585 C1583 1.415 . S
C1586 H1576 0.930 . S
C1586 C1584 1.419 . S
C1586 C1587 1.362 . S
C1587 H1577 0.930 . S
C1587 C1580 1.409 . S
C1587 C1586 1.362 . S
H1588 C1594 0.930 . S
H1589 C1597 0.930 . S
H1590 C1598 0.930 . S
H1591 C1599 0.930 . S
H1592 C1602 0.930 . S
H1593 C1603 0.930 . S
C1594 H1588 0.930 . S
C1594 C1595 1.355 . S
C1594 C1596 1.415 . S
C1595 C1594 1.355 . S
C1595 C1597 1.419 . S
C1596 C1594 1.415 . S
C1596 C1601 1.425 . S
C1596 C1603 1.409 . S
C1597 H1589 0.930 . S
C1597 C1595 1.419 . S
C1597 C1598 1.362 . S
C1598 H1590 0.930 . S
C1598 C1597 1.362 . S
C1598 C1601 1.409 . S
C1599 H1591 0.930 . S
C1599 C1600 1.355 . S
C1599 C1601 1.415 . S
C1600 C1599 1.355 . S
C1600 C1602 1.419 . S
C1601 C1596 1.425 . S
C1601 C1598 1.409 . S
C1601 C1599 1.415 . S
C1602 H1592 0.930 . S
C1602 C1600 1.419 . S
C1602 C1603 1.362 . S
C1603 H1593 0.930 . S
C1603 C1596 1.409 . S
C1603 C1602 1.362 . S
H1604 C1610 0.930 . S
H1605 C1613 0.930 . S
H1606 C1614 0.930 . S
H1607 C1615 0.930 . S
H1608 C1618 0.930 . S
H1609 C1619 0.930 . S
C1610 H1604 0.930 . S
C1610 C1611 1.355 . S
C1610 C1612 1.415 . S
C1611 C1610 1.355 . S
C1611 C1613 1.419 . S
C1612 C1610 1.415 . S
C1612 C1617 1.425 . S
C1612 C1619 1.409 . S
C1613 H1605 0.930 . S
C1613 C1611 1.419 . S
C1613 C1614 1.362 . S
C1614 H1606 0.930 . S
C1614 C1613 1.362 . S
C1614 C1617 1.409 . S
C1615 H1607 0.930 . S
C1615 C1616 1.355 . S
C1615 C1617 1.415 . S
C1616 C1615 1.355 . S
C1616 C1618 1.419 . S
C1617 C1612 1.425 . S
C1617 C1614 1.409 . S
C1617 C1615 1.415 . S
C1618 H1608 0.930 . S
C1618 C1616 1.419 . S
C1618 C1619 1.362 . S
C1619 H1609 0.930 . S
C1619 C1612 1.409 . S
C1619 C1618 1.362 . S
H1620 C1626 0.930 . S
H1621 C1629 0.930 . S
H1622 C1630 0.930 . S
H1623 C1631 0.930 . S
H1624 C1634 0.930 . S
H1625 C1635 0.930 . S
C1626 H1620 0.930 . S
C1626 C1627 1.355 . S
C1626 C1628 1.415 . S
C1627 C1626 1.355 . S
C1627 C1629 1.419 . S
C1628 C1626 1.415 . S
C1628 C1633 1.425 . S
C1628 C1635 1.409 . S
C1629 H1621 0.930 . S
C1629 C1627 1.419 . S
C1629 C1630 1.362 . S
C1630 H1622 0.930 . S
C1630 C1629 1.362 . S
C1630 C1633 1.409 . S
C1631 H1623 0.930 . S
C1631 C1632 1.355 . S
C1631 C1633 1.415 . S
C1632 C1631 1.355 . S
C1632 C1634 1.419 . S
C1633 C1628 1.425 . S
C1633 C1630 1.409 . S
C1633 C1631 1.415 . S
C1634 H1624 0.930 . S
C1634 C1632 1.419 . S
C1634 C1635 1.362 . S
C1635 H1625 0.930 . S
C1635 C1628 1.409 . S
C1635 C1634 1.362 . S
H1636 C1642 0.930 . S
H1637 C1645 0.930 . S
H1638 C1646 0.930 . S
H1639 C1647 0.930 . S
H1640 C1650 0.930 . S
H1641 C1651 0.930 . S
C1642 H1636 0.930 . S
C1642 C1643 1.355 . S
C1642 C1644 1.415 . S
C1643 C1642 1.355 . S
C1643 C1645 1.419 . S
C1644 C1642 1.415 . S
C1644 C1649 1.425 . S
C1644 C1651 1.409 . S
C1645 H1637 0.930 . S
C1645 C1643 1.419 . S
C1645 C1646 1.362 . S
C1646 H1638 0.930 . S
C1646 C1645 1.362 . S
C1646 C1649 1.409 . S
C1647 H1639 0.930 . S
C1647 C1648 1.355 . S
C1647 C1649 1.415 . S
C1648 C1647 1.355 . S
C1648 C1650 1.419 . S
C1649 C1644 1.425 . S
C1649 C1646 1.409 . S
C1649 C1647 1.415 . S
C1650 H1640 0.930 . S
C1650 C1648 1.419 . S
C1650 C1651 1.362 . S
C1651 H1641 0.930 . S
C1651 C1644 1.409 . S
C1651 C1650 1.362 . S
H1652 C1658 0.930 . S
H1653 C1661 0.930 . S
H1654 C1662 0.930 . S
H1655 C1663 0.930 . S
H1656 C1666 0.930 . S
H1657 C1667 0.930 . S
C1658 H1652 0.930 . S
C1658 C1659 1.355 . S
C1658 C1660 1.415 . S
C1659 C1658 1.355 . S
C1659 C1661 1.419 . S
C1660 C1658 1.415 . S
C1660 C1665 1.425 . S
C1660 C1667 1.409 . S
C1661 H1653 0.930 . S
C1661 C1659 1.419 . S
C1661 C1662 1.362 . S
C1662 H1654 0.930 . S
C1662 C1661 1.362 . S
C1662 C1665 1.409 . S
C1663 H1655 0.930 . S
C1663 C1664 1.355 . S
C1663 C1665 1.415 . S
C1664 C1663 1.355 . S
C1664 C1666 1.419 . S
C1665 C1660 1.425 . S
C1665 C1662 1.409 . S
C1665 C1663 1.415 . S
C1666 H1656 0.930 . S
C1666 C1664 1.419 . S
C1666 C1667 1.362 . S
C1667 H1657 0.930 . S
C1667 C1660 1.409 . S
C1667 C1666 1.362 . S
H1668 C1674 0.922 1_545 S
H1669 C1677 0.930 . S
H1670 C1678 0.930 . S
H1671 C1679 0.930 . S
H1672 C1682 0.930 . S
H1673 C1683 0.930 . S
C1674 H1668 0.922 1_565 S
C1674 C1675 1.355 1_565 S
C1674 C1676 1.415 . S
C1675 C1674 1.355 1_545 S
C1675 C1677 1.419 . S
C1676 C1674 1.415 . S
C1676 C1681 1.425 . S
C1676 C1683 1.409 . S
C1677 H1669 0.930 . S
C1677 C1675 1.419 . S
C1677 C1678 1.362 1_545 S
C1678 H1670 0.930 . S
C1678 C1677 1.362 1_565 S
C1678 C1681 1.409 . S
C1679 H1671 0.930 . S
C1679 C1680 1.355 . S
C1679 C1681 1.415 . S
C1680 C1679 1.355 . S
C1680 C1682 1.419 . S
C1681 C1676 1.425 . S
C1681 C1678 1.409 . S
C1681 C1679 1.415 . S
C1682 H1672 0.930 . S
C1682 C1680 1.419 . S
C1682 C1683 1.362 . S
C1683 H1673 0.930 . S
C1683 C1676 1.409 . S
C1683 C1682 1.362 . S
H1684 C1690 0.930 1_655 S
H1685 C1693 0.930 . S
H1686 C1694 0.930 . S
H1687 C1695 0.930 . S
H1688 C1698 0.930 . S
H1689 C1699 0.930 . S
C1690 H1684 0.930 1_455 S
C1690 C1691 1.355 1_455 S
C1690 C1692 1.415 . S
C1691 C1690 1.355 1_655 S
C1691 C1693 1.419 1_655 S
C1692 C1690 1.415 . S
C1692 C1697 1.425 . S
C1692 C1699 1.409 . S
C1693 H1685 0.930 . S
C1693 C1691 1.419 1_455 S
C1693 C1694 1.362 . S
C1694 H1686 0.930 . S
C1694 C1693 1.362 . S
C1694 C1697 1.409 . S
C1695 H1687 0.930 . S
C1695 C1696 1.355 . S
C1695 C1697 1.415 . S
C1696 C1695 1.355 . S
C1696 C1698 1.419 . S
C1697 C1692 1.425 . S
C1697 C1694 1.409 . S
C1697 C1695 1.415 . S
C1698 H1688 0.930 . S
C1698 C1696 1.419 . S
C1698 C1699 1.362 . S
C1699 H1689 0.930 . S
C1699 C1692 1.409 . S
C1699 C1698 1.362 . S
H1700 C1706 0.930 . S
H1701 C1709 0.930 . S
H1702 C1710 0.930 . S
H1703 C1711 0.930 . S
H1704 C1714 0.930 . S
H1705 C1715 0.930 . S
C1706 H1700 0.930 . S
C1706 C1707 1.355 . S
C1706 C1708 1.415 . S
C1707 C1706 1.355 . S
C1707 C1709 1.419 . S
C1708 C1706 1.415 . S
C1708 C1713 1.425 . S
C1708 C1715 1.409 . S
C1709 H1701 0.930 . S
C1709 C1707 1.419 . S
C1709 C1710 1.362 . S
C1710 H1702 0.930 . S
C1710 C1709 1.362 . S
C1710 C1713 1.409 . S
C1711 H1703 0.930 . S
C1711 C1712 1.355 . S
C1711 C1713 1.415 . S
C1712 C1711 1.355 . S
C1712 C1714 1.419 . S
C1713 C1708 1.425 . S
C1713 C1710 1.409 . S
C1713 C1711 1.415 . S
C1714 H1704 0.930 . S
C1714 C1712 1.419 . S
C1714 C1715 1.362 . S
C1715 H1705 0.930 . S
C1715 C1708 1.409 . S
C1715 C1714 1.362 . S
H1716 C1722 0.930 . S
H1717 C1725 0.930 . S
H1718 C1726 0.930 . S
H1719 C1727 0.930 . S
H1720 C1730 0.930 . S
H1721 C1731 0.930 . S
C1722 H1716 0.930 . S
C1722 C1723 1.355 . S
C1722 C1724 1.415 . S
C1723 C1722 1.355 . S
C1723 C1725 1.419 . S
C1724 C1722 1.415 . S
C1724 C1729 1.425 . S
C1724 C1731 1.409 . S
C1725 H1717 0.930 . S
C1725 C1723 1.419 . S
C1725 C1726 1.362 . S
C1726 H1718 0.930 . S
C1726 C1725 1.362 . S
C1726 C1729 1.409 . S
C1727 H1719 0.930 . S
C1727 C1728 1.355 . S
C1727 C1729 1.415 . S
C1728 C1727 1.355 . S
C1728 C1730 1.419 . S
C1729 C1724 1.425 . S
C1729 C1726 1.409 . S
C1729 C1727 1.415 . S
C1730 H1720 0.930 . S
C1730 C1728 1.419 . S
C1730 C1731 1.362 . S
C1731 H1721 0.930 . S
C1731 C1724 1.409 . S
C1731 C1730 1.362 . S
H1732 C1738 0.930 . S
H1733 C1741 0.930 . S
H1734 C1742 0.930 . S
H1735 C1743 0.930 . S
H1736 C1746 0.930 . S
H1737 C1747 0.930 . S
C1738 H1732 0.930 . S
C1738 C1739 1.355 . S
C1738 C1740 1.415 . S
C1739 C1738 1.355 . S
C1739 C1741 1.419 . S
C1740 C1738 1.415 . S
C1740 C1745 1.425 . S
C1740 C1747 1.409 . S
C1741 H1733 0.930 . S
C1741 C1739 1.419 . S
C1741 C1742 1.362 . S
C1742 H1734 0.930 . S
C1742 C1741 1.362 . S
C1742 C1745 1.409 . S
C1743 H1735 0.930 . S
C1743 C1744 1.355 . S
C1743 C1745 1.415 . S
C1744 C1743 1.355 . S
C1744 C1746 1.419 . S
C1745 C1740 1.425 . S
C1745 C1742 1.409 . S
C1745 C1743 1.415 . S
C1746 H1736 0.930 . S
C1746 C1744 1.419 . S
C1746 C1747 1.362 . S
C1747 H1737 0.930 . S
C1747 C1740 1.409 . S
C1747 C1746 1.362 . S
H1748 C1754 0.930 . S
H1749 C1757 0.930 . S
H1750 C1758 0.930 . S
H1751 C1759 0.930 . S
H1752 C1762 0.930 . S
H1753 C1763 0.930 . S
C1754 H1748 0.930 . S
C1754 C1755 1.355 . S
C1754 C1756 1.415 . S
C1755 C1754 1.355 . S
C1755 C1757 1.419 . S
C1756 C1754 1.415 . S
C1756 C1761 1.425 . S
C1756 C1763 1.409 . S
C1757 H1749 0.930 . S
C1757 C1755 1.419 . S
C1757 C1758 1.362 . S
C1758 H1750 0.930 . S
C1758 C1757 1.362 . S
C1758 C1761 1.409 . S
C1759 H1751 0.930 . S
C1759 C1760 1.355 . S
C1759 C1761 1.415 . S
C1760 C1759 1.355 . S
C1760 C1762 1.419 . S
C1761 C1756 1.425 . S
C1761 C1758 1.409 . S
C1761 C1759 1.415 . S
C1762 H1752 0.930 . S
C1762 C1760 1.419 . S
C1762 C1763 1.362 . S
C1763 H1753 0.930 . S
C1763 C1756 1.409 . S
C1763 C1762 1.362 . S
H1764 C1770 0.928 1_565 S
H1765 C1773 0.930 . S
H1766 C1774 0.930 . S
H1767 C1775 0.930 . S
H1768 C1778 0.930 . S
H1769 C1779 0.930 . S
C1770 H1764 0.928 1_545 S
C1770 C1771 1.355 1_545 S
C1770 C1772 1.415 . S
C1771 C1770 1.355 1_565 S
C1771 C1773 1.419 . S
C1772 C1770 1.415 . S
C1772 C1777 1.425 . S
C1772 C1779 1.409 . S
C1773 H1765 0.930 . S
C1773 C1771 1.419 . S
C1773 C1774 1.362 1_565 S
C1774 H1766 0.930 . S
C1774 C1773 1.362 1_545 S
C1774 C1777 1.409 . S
C1775 H1767 0.930 . S
C1775 C1776 1.355 . S
C1775 C1777 1.415 . S
C1776 C1775 1.355 . S
C1776 C1778 1.419 . S
C1777 C1772 1.425 . S
C1777 C1774 1.409 . S
C1777 C1775 1.415 . S
C1778 H1768 0.930 . S
C1778 C1776 1.419 . S
C1778 C1779 1.362 . S
C1779 H1769 0.930 . S
C1779 C1772 1.409 . S
C1779 C1778 1.362 . S
H1780 C1786 0.930 . S
H1781 C1789 0.930 . S
H1782 C1790 0.930 . S
H1783 C1791 0.930 . S
H1784 C1794 0.930 . S
H1785 C1795 0.930 . S
C1786 H1780 0.930 . S
C1786 C1787 1.355 1_655 S
C1786 C1788 1.415 . S
C1787 C1786 1.355 1_455 S
C1787 C1789 1.419 . S
C1788 C1786 1.415 . S
C1788 C1793 1.425 . S
C1788 C1795 1.409 . S
C1789 H1781 0.930 . S
C1789 C1787 1.419 . S
C1789 C1790 1.362 1_455 S
C1790 H1782 0.930 . S
C1790 C1789 1.362 1_655 S
C1790 C1793 1.409 . S
C1791 H1783 0.930 . S
C1791 C1792 1.355 . S
C1791 C1793 1.415 . S
C1792 C1791 1.355 . S
C1792 C1794 1.419 . S
C1793 C1788 1.425 . S
C1793 C1790 1.409 . S
C1793 C1791 1.415 . S
C1794 H1784 0.930 . S
C1794 C1792 1.419 . S
C1794 C1795 1.362 . S
C1795 H1785 0.930 . S
C1795 C1788 1.409 . S
C1795 C1794 1.362 . S
H1796 C1802 0.930 . S
H1797 C1805 0.930 . S
H1798 C1806 0.930 . S
H1799 C1807 0.930 . S
H1800 C1810 0.930 . S
H1801 C1811 0.930 . S
C1802 H1796 0.930 . S
C1802 C1803 1.355 . S
C1802 C1804 1.415 . S
C1803 C1802 1.355 . S
C1803 C1805 1.419 . S
C1804 C1802 1.415 . S
C1804 C1809 1.425 . S
C1804 C1811 1.409 . S
C1805 H1797 0.930 . S
C1805 C1803 1.419 . S
C1805 C1806 1.362 . S
C1806 H1798 0.930 . S
C1806 C1805 1.362 . S
C1806 C1809 1.409 . S
C1807 H1799 0.930 . S
C1807 C1808 1.355 . S
C1807 C1809 1.415 . S
C1808 C1807 1.355 . S
C1808 C1810 1.419 . S
C1809 C1804 1.425 . S
C1809 C1806 1.409 . S
C1809 C1807 1.415 . S
C1810 H1800 0.930 . S
C1810 C1808 1.419 . S
C1810 C1811 1.362 . S
C1811 H1801 0.930 . S
C1811 C1804 1.409 . S
C1811 C1810 1.362 . S
H1812 C1818 0.930 . S
H1813 C1821 0.956 . S
H1814 C1822 0.930 . S
H1815 C1823 0.930 . S
H1816 C1826 0.930 . S
H1817 C1827 0.930 . S
C1818 H1812 0.930 . S
C1818 C1819 1.355 1_655 S
C1818 C1820 1.415 . S
C1819 C1818 1.355 1_455 S
C1819 C1821 1.412 . S
C1820 C1818 1.415 . S
C1820 C1825 1.425 . S
C1820 C1827 1.409 . S
C1821 H1813 0.956 . S
C1821 C1819 1.412 . S
C1821 C1822 1.344 1_455 S
C1822 H1814 0.930 . S
C1822 C1821 1.344 1_655 S
C1822 C1825 1.409 . S
C1823 H1815 0.930 . S
C1823 C1824 1.355 . S
C1823 C1825 1.415 . S
C1824 C1823 1.355 . S
C1824 C1826 1.419 . S
C1825 C1820 1.425 . S
C1825 C1822 1.409 . S
C1825 C1823 1.415 . S
C1826 H1816 0.930 . S
C1826 C1824 1.419 . S
C1826 C1827 1.362 . S
C1827 H1817 0.930 . S
C1827 C1820 1.409 . S
C1827 C1826 1.362 . S
H1828 C1834 0.930 . S
H1829 C1837 0.930 . S
H1830 C1838 0.930 . S
H1831 C1839 0.930 . S
H1832 C1842 0.930 . S
H1833 C1843 0.930 . S
C1834 H1828 0.930 . S
C1834 C1835 1.355 . S
C1834 C1836 1.415 . S
C1835 C1834 1.355 . S
C1835 C1837 1.419 . S
C1836 C1834 1.415 . S
C1836 C1841 1.425 . S
C1836 C1843 1.409 . S
C1837 H1829 0.930 . S
C1837 C1835 1.419 . S
C1837 C1838 1.362 . S
C1838 H1830 0.930 . S
C1838 C1837 1.362 . S
C1838 C1841 1.409 . S
C1839 H1831 0.930 . S
C1839 C1840 1.355 . S
C1839 C1841 1.415 . S
C1840 C1839 1.355 . S
C1840 C1842 1.419 . S
C1841 C1836 1.425 . S
C1841 C1838 1.409 . S
C1841 C1839 1.415 . S
C1842 H1832 0.930 . S
C1842 C1840 1.419 . S
C1842 C1843 1.362 . S
C1843 H1833 0.930 . S
C1843 C1836 1.409 . S
C1843 C1842 1.362 . S
H1844 C1850 0.962 . S
H1845 C1853 0.930 . S
H1846 C1854 0.930 . S
H1847 C1855 0.930 . S
H1848 C1858 0.930 . S
H1849 C1859 0.930 . S
C1850 H1844 0.962 . S
C1850 C1851 1.355 1_545 S
C1850 C1852 1.415 . S
C1851 C1850 1.355 1_565 S
C1851 C1853 1.419 . S
C1852 C1850 1.415 . S
C1852 C1857 1.425 . S
C1852 C1859 1.409 . S
C1853 H1845 0.930 . S
C1853 C1851 1.419 . S
C1853 C1854 1.362 1_565 S
C1854 H1846 0.930 . S
C1854 C1853 1.362 1_545 S
C1854 C1857 1.409 . S
C1855 H1847 0.930 . S
C1855 C1856 1.355 . S
C1855 C1857 1.415 . S
C1856 C1855 1.355 . S
C1856 C1858 1.419 . S
C1857 C1852 1.425 . S
C1857 C1854 1.409 . S
C1857 C1855 1.415 . S
C1858 H1848 0.930 . S
C1858 C1856 1.419 . S
C1858 C1859 1.362 . S
C1859 H1849 0.930 . S
C1859 C1852 1.409 . S
C1859 C1858 1.362 . S
H1860 C1866 0.930 . S
H1861 C1869 0.930 . S
H1862 C1870 0.930 . S
H1863 C1871 0.930 . S
H1864 C1874 0.930 . S
H1865 C1875 0.930 . S
C1866 H1860 0.930 . S
C1866 C1867 1.355 . S
C1866 C1868 1.415 . S
C1867 C1866 1.355 . S
C1867 C1869 1.419 . S
C1868 C1866 1.415 . S
C1868 C1873 1.425 . S
C1868 C1875 1.409 . S
C1869 H1861 0.930 . S
C1869 C1867 1.419 . S
C1869 C1870 1.362 . S
C1870 H1862 0.930 . S
C1870 C1869 1.362 . S
C1870 C1873 1.409 . S
C1871 H1863 0.930 . S
C1871 C1872 1.355 . S
C1871 C1873 1.415 . S
C1872 C1871 1.355 . S
C1872 C1874 1.419 . S
C1873 C1868 1.425 . S
C1873 C1870 1.409 . S
C1873 C1871 1.415 . S
C1874 H1864 0.930 . S
C1874 C1872 1.419 . S
C1874 C1875 1.362 . S
C1875 H1865 0.930 . S
C1875 C1868 1.409 . S
C1875 C1874 1.362 . S
H1876 C1882 0.930 . S
H1877 C1885 0.930 . S
H1878 C1886 0.930 . S
H1879 C1887 0.930 . S
H1880 C1890 0.930 . S
H1881 C1891 0.930 . S
C1882 H1876 0.930 . S
C1882 C1883 1.355 . S
C1882 C1884 1.415 . S
C1883 C1882 1.355 . S
C1883 C1885 1.419 . S
C1884 C1882 1.415 . S
C1884 C1889 1.425 . S
C1884 C1891 1.409 . S
C1885 H1877 0.930 . S
C1885 C1883 1.419 . S
C1885 C1886 1.362 . S
C1886 H1878 0.930 . S
C1886 C1885 1.362 . S
C1886 C1889 1.409 . S
C1887 H1879 0.930 . S
C1887 C1888 1.355 . S
C1887 C1889 1.415 . S
C1888 C1887 1.355 . S
C1888 C1890 1.419 . S
C1889 C1884 1.425 . S
C1889 C1886 1.409 . S
C1889 C1887 1.415 . S
C1890 H1880 0.930 . S
C1890 C1888 1.419 . S
C1890 C1891 1.362 . S
C1891 H1881 0.930 . S
C1891 C1884 1.409 . S
C1891 C1890 1.362 . S
H1892 C1898 0.930 . S
H1893 C1901 0.930 . S
H1894 C1902 0.930 . S
H1895 C1903 0.930 . S
H1896 C1906 0.930 . S
H1897 C1907 0.930 . S
C1898 H1892 0.930 . S
C1898 C1899 1.355 . S
C1898 C1900 1.415 . S
C1899 C1898 1.355 . S
C1899 C1901 1.419 . S
C1900 C1898 1.415 . S
C1900 C1905 1.425 . S
C1900 C1907 1.409 . S
C1901 H1893 0.930 . S
C1901 C1899 1.419 . S
C1901 C1902 1.362 . S
C1902 H1894 0.930 . S
C1902 C1901 1.362 . S
C1902 C1905 1.409 . S
C1903 H1895 0.930 . S
C1903 C1904 1.355 . S
C1903 C1905 1.415 . S
C1904 C1903 1.355 . S
C1904 C1906 1.419 . S
C1905 C1900 1.425 . S
C1905 C1902 1.409 . S
C1905 C1903 1.415 . S
C1906 H1896 0.930 . S
C1906 C1904 1.419 . S
C1906 C1907 1.362 . S
C1907 H1897 0.930 . S
C1907 C1900 1.409 . S
C1907 C1906 1.362 . S
H1908 C1914 0.930 . S
H1909 C1917 0.930 . S
H1910 C1918 0.930 . S
H1911 C1919 0.930 . S
H1912 C1922 0.930 . S
H1913 C1923 0.930 . S
C1914 H1908 0.930 . S
C1914 C1915 1.355 . S
C1914 C1916 1.415 . S
C1915 C1914 1.355 . S
C1915 C1917 1.419 . S
C1916 C1914 1.415 . S
C1916 C1921 1.425 . S
C1916 C1923 1.409 . S
C1917 H1909 0.930 . S
C1917 C1915 1.419 . S
C1917 C1918 1.362 . S
C1918 H1910 0.930 . S
C1918 C1917 1.362 . S
C1918 C1921 1.409 . S
C1919 H1911 0.930 . S
C1919 C1920 1.355 . S
C1919 C1921 1.415 . S
C1920 C1919 1.355 . S
C1920 C1922 1.419 . S
C1921 C1916 1.425 . S
C1921 C1918 1.409 . S
C1921 C1919 1.415 . S
C1922 H1912 0.930 . S
C1922 C1920 1.419 . S
C1922 C1923 1.362 . S
C1923 H1913 0.930 . S
C1923 C1916 1.409 . S
C1923 C1922 1.362 . S
H1924 C1930 0.930 . S
H1925 C1933 0.930 . S
H1926 C1934 0.930 1_655 S
H1927 C1935 0.930 1_655 S
H1928 C1938 0.930 . S
H1929 C1939 0.930 . S
C1930 H1924 0.930 . S
C1930 C1931 1.355 . S
C1930 C1932 1.415 . S
C1931 C1930 1.355 . S
C1931 C1933 1.419 . S
C1932 C1930 1.415 . S
C1932 C1937 1.425 . S
C1932 C1939 1.409 . S
C1933 H1925 0.930 . S
C1933 C1931 1.419 . S
C1933 C1934 1.362 . S
C1934 H1926 0.930 1_455 S
C1934 C1933 1.362 . S
C1934 C1937 1.409 . S
C1935 H1927 0.930 1_455 S
C1935 C1936 1.355 . S
C1935 C1937 1.415 . S
C1936 C1935 1.355 . S
C1936 C1938 1.419 . S
C1937 C1932 1.425 . S
C1937 C1934 1.409 . S
C1937 C1935 1.415 . S
C1938 H1928 0.930 . S
C1938 C1936 1.419 . S
C1938 C1939 1.362 . S
C1939 H1929 0.930 . S
C1939 C1932 1.409 . S
C1939 C1938 1.362 . S
H1940 C1946 0.930 . S
H1941 C1949 0.930 . S
H1942 C1950 0.930 . S
H1943 C1951 0.930 . S
H1944 C1954 0.930 . S
H1945 C1955 0.930 . S
C1946 H1940 0.930 . S
C1946 C1947 1.355 . S
C1946 C1948 1.415 . S
C1947 C1946 1.355 . S
C1947 C1949 1.419 . S
C1948 C1946 1.415 . S
C1948 C1953 1.425 . S
C1948 C1955 1.409 . S
C1949 H1941 0.930 . S
C1949 C1947 1.419 . S
C1949 C1950 1.362 . S
C1950 H1942 0.930 . S
C1950 C1949 1.362 . S
C1950 C1953 1.409 . S
C1951 H1943 0.930 . S
C1951 C1952 1.355 . S
C1951 C1953 1.415 . S
C1952 C1951 1.355 . S
C1952 C1954 1.419 . S
C1953 C1948 1.425 . S
C1953 C1950 1.409 . S
C1953 C1951 1.415 . S
C1954 H1944 0.930 . S
C1954 C1952 1.419 . S
C1954 C1955 1.362 . S
C1955 H1945 0.930 . S
C1955 C1948 1.409 . S
C1955 C1954 1.362 . S
H1956 C1962 0.930 . S
H1957 C1965 0.930 . S
H1958 C1966 0.930 . S
H1959 C1967 0.930 . S
H1960 C1970 0.930 . S
H1961 C1971 0.930 . S
C1962 H1956 0.930 . S
C1962 C1963 1.355 . S
C1962 C1964 1.415 . S
C1963 C1962 1.355 . S
C1963 C1965 1.419 . S
C1964 C1962 1.415 . S
C1964 C1969 1.425 . S
C1964 C1971 1.409 . S
C1965 H1957 0.930 . S
C1965 C1963 1.419 . S
C1965 C1966 1.362 . S
C1966 H1958 0.930 . S
C1966 C1965 1.362 . S
C1966 C1969 1.409 . S
C1967 H1959 0.930 . S
C1967 C1968 1.355 . S
C1967 C1969 1.415 . S
C1968 C1967 1.355 . S
C1968 C1970 1.419 . S
C1969 C1964 1.425 . S
C1969 C1966 1.409 . S
C1969 C1967 1.415 . S
C1970 H1960 0.930 . S
C1970 C1968 1.419 . S
C1970 C1971 1.362 . S
C1971 H1961 0.930 . S
C1971 C1964 1.409 . S
C1971 C1970 1.362 . S
H1972 C1978 0.930 . S
H1973 C1981 0.930 . S
H1974 C1982 0.930 . S
H1975 C1983 0.930 . S
H1976 C1986 0.930 . S
H1977 C1987 0.930 . S
C1978 H1972 0.930 . S
C1978 C1979 1.355 . S
C1978 C1980 1.415 . S
C1979 C1978 1.355 . S
C1979 C1981 1.419 . S
C1980 C1978 1.415 . S
C1980 C1985 1.425 . S
C1980 C1987 1.409 . S
C1981 H1973 0.930 . S
C1981 C1979 1.419 . S
C1981 C1982 1.362 . S
C1982 H1974 0.930 . S
C1982 C1981 1.362 . S
C1982 C1985 1.409 . S
C1983 H1975 0.930 . S
C1983 C1984 1.355 . S
C1983 C1985 1.415 . S
C1984 C1983 1.355 . S
C1984 C1986 1.419 . S
C1985 C1980 1.425 . S
C1985 C1982 1.409 . S
C1985 C1983 1.415 . S
C1986 H1976 0.930 . S
C1986 C1984 1.419 . S
C1986 C1987 1.362 . S
C1987 H1977 0.930 . S
C1987 C1980 1.409 . S
C1987 C1986 1.362 . S
H1988 C1994 0.930 . S
H1989 C1997 0.930 . S
H1990 C1998 0.945 . S
H1991 C1999 0.930 . S
H1992 C2002 0.930 . S
H1993 C2003 0.930 . S
C1994 H1988 0.930 . S
C1994 C1995 1.355 . S
C1994 C1996 1.415 . S
C1995 C1994 1.355 . S
C1995 C1997 1.419 . S
C1996 C1994 1.415 . S
C1996 C2001 1.425 . S
C1996 C2003 1.409 . S
C1997 H1989 0.930 . S
C1997 C1995 1.419 . S
C1997 C1998 1.362 . S
C1998 H1990 0.945 . S
C1998 C1997 1.362 . S
C1998 C2001 1.409 . S
C1999 H1991 0.930 . S
C1999 C2000 1.355 . S
C1999 C2001 1.415 . S
C2000 C1999 1.355 . S
C2000 C2002 1.419 . S
C2001 C1996 1.425 . S
C2001 C1998 1.409 . S
C2001 C1999 1.415 . S
C2002 H1992 0.930 . S
C2002 C2000 1.419 . S
C2002 C2003 1.362 . S
C2003 H1993 0.930 . S
C2003 C1996 1.409 . S
C2003 C2002 1.362 . S
H2004 C2010 0.930 . S
H2005 C2013 0.930 . S
H2006 C2014 0.930 . S
H2007 C2015 0.930 . S
H2008 C2018 0.930 . S
H2009 C2019 0.930 . S
C2010 H2004 0.930 . S
C2010 C2011 1.355 . S
C2010 C2012 1.415 . S
C2011 C2010 1.355 . S
C2011 C2013 1.419 . S
C2012 C2010 1.415 . S
C2012 C2017 1.425 . S
C2012 C2019 1.409 . S
C2013 H2005 0.930 . S
C2013 C2011 1.419 . S
C2013 C2014 1.362 . S
C2014 H2006 0.930 . S
C2014 C2013 1.362 . S
C2014 C2017 1.409 . S
C2015 H2007 0.930 . S
C2015 C2016 1.355 . S
C2015 C2017 1.415 . S
C2016 C2015 1.355 . S
C2016 C2018 1.419 . S
C2017 C2012 1.425 . S
C2017 C2014 1.409 . S
C2017 C2015 1.415 . S
C2018 H2008 0.930 . S
C2018 C2016 1.419 . S
C2018 C2019 1.362 . S
C2019 H2009 0.930 . S
C2019 C2012 1.409 . S
C2019 C2018 1.362 . S
H2020 C2026 0.930 . S
H2021 C2029 0.930 . S
H2022 C2030 0.930 . S
H2023 C2031 0.930 . S
H2024 C2034 0.930 . S
H2025 C2035 0.930 . S
C2026 H2020 0.930 . S
C2026 C2027 1.355 . S
C2026 C2028 1.415 . S
C2027 C2026 1.355 . S
C2027 C2029 1.419 . S
C2028 C2026 1.415 . S
C2028 C2033 1.425 . S
C2028 C2035 1.409 . S
C2029 H2021 0.930 . S
C2029 C2027 1.419 . S
C2029 C2030 1.362 . S
C2030 H2022 0.930 . S
C2030 C2029 1.362 . S
C2030 C2033 1.409 . S
C2031 H2023 0.930 . S
C2031 C2032 1.355 . S
C2031 C2033 1.415 . S
C2032 C2031 1.355 . S
C2032 C2034 1.419 . S
C2033 C2028 1.425 . S
C2033 C2030 1.409 . S
C2033 C2031 1.415 . S
C2034 H2024 0.930 . S
C2034 C2032 1.419 . S
C2034 C2035 1.362 . S
C2035 H2025 0.930 . S
C2035 C2028 1.409 . S
C2035 C2034 1.362 . S
H2036 C2042 0.930 . S
H2037 C2045 0.930 . S
H2038 C2046 0.930 . S
H2039 C2047 0.930 . S
H2040 C2050 0.930 . S
H2041 C2051 0.930 . S
C2042 H2036 0.930 . S
C2042 C2043 1.355 . S
C2042 C2044 1.415 . S
C2043 C2042 1.355 . S
C2043 C2045 1.419 . S
C2044 C2042 1.415 . S
C2044 C2049 1.425 . S
C2044 C2051 1.409 . S
C2045 H2037 0.930 . S
C2045 C2043 1.419 . S
C2045 C2046 1.362 . S
C2046 H2038 0.930 . S
C2046 C2045 1.362 . S
C2046 C2049 1.409 . S
C2047 H2039 0.930 . S
C2047 C2048 1.355 . S
C2047 C2049 1.415 . S
C2048 C2047 1.355 . S
C2048 C2050 1.419 . S
C2049 C2044 1.425 . S
C2049 C2046 1.409 . S
C2049 C2047 1.415 . S
C2050 H2040 0.930 . S
C2050 C2048 1.419 . S
C2050 C2051 1.362 . S
C2051 H2041 0.930 . S
C2051 C2044 1.409 . S
C2051 C2050 1.362 . S
H2052 C2058 0.930 . S
H2053 C2061 0.930 . S
H2054 C2062 0.930 . S
H2055 C2063 0.930 . S
H2056 C2066 0.930 . S
H2057 C2067 0.930 . S
C2058 H2052 0.930 . S
C2058 C2059 1.355 . S
C2058 C2060 1.415 . S
C2059 C2058 1.355 . S
C2059 C2061 1.419 . S
C2060 C2058 1.415 . S
C2060 C2065 1.425 . S
C2060 C2067 1.409 . S
C2061 H2053 0.930 . S
C2061 C2059 1.419 . S
C2061 C2062 1.362 . S
C2062 H2054 0.930 . S
C2062 C2061 1.362 . S
C2062 C2065 1.409 . S
C2063 H2055 0.930 . S
C2063 C2064 1.355 . S
C2063 C2065 1.415 . S
C2064 C2063 1.355 . S
C2064 C2066 1.419 . S
C2065 C2060 1.425 . S
C2065 C2062 1.409 . S
C2065 C2063 1.415 . S
C2066 H2056 0.930 . S
C2066 C2064 1.419 . S
C2066 C2067 1.362 . S
C2067 H2057 0.930 . S
C2067 C2060 1.409 . S
C2067 C2066 1.362 . S
H2068 C2074 0.930 . S
H2069 C2077 0.930 . S
H2070 C2078 0.930 . S
H2071 C2079 0.930 . S
H2072 C2082 0.930 . S
H2073 C2083 0.930 . S
C2074 H2068 0.930 . S
C2074 C2075 1.355 . S
C2074 C2076 1.415 . S
C2075 C2074 1.355 . S
C2075 C2077 1.419 . S
C2076 C2074 1.415 . S
C2076 C2081 1.425 . S
C2076 C2083 1.409 . S
C2077 H2069 0.930 . S
C2077 C2075 1.419 . S
C2077 C2078 1.362 . S
C2078 H2070 0.930 . S
C2078 C2077 1.362 . S
C2078 C2081 1.409 . S
C2079 H2071 0.930 . S
C2079 C2080 1.355 . S
C2079 C2081 1.415 . S
C2080 C2079 1.355 . S
C2080 C2082 1.419 . S
C2081 C2076 1.425 . S
C2081 C2078 1.409 . S
C2081 C2079 1.415 . S
C2082 H2072 0.930 . S
C2082 C2080 1.419 . S
C2082 C2083 1.362 . S
C2083 H2073 0.930 . S
C2083 C2076 1.409 . S
C2083 C2082 1.362 . S
H2084 C2090 0.930 . S
H2085 C2093 0.930 . S
H2086 C2094 0.930 . S
H2087 C2095 0.930 . S
H2088 C2098 0.930 . S
H2089 C2099 0.930 . S
C2090 H2084 0.930 . S
C2090 C2091 1.355 . S
C2090 C2092 1.415 . S
C2091 C2090 1.355 . S
C2091 C2093 1.419 . S
C2092 C2090 1.415 . S
C2092 C2097 1.425 . S
C2092 C2099 1.409 . S
C2093 H2085 0.930 . S
C2093 C2091 1.419 . S
C2093 C2094 1.362 . S
C2094 H2086 0.930 . S
C2094 C2093 1.362 . S
C2094 C2097 1.409 . S
C2095 H2087 0.930 . S
C2095 C2096 1.355 . S
C2095 C2097 1.415 . S
C2096 C2095 1.355 . S
C2096 C2098 1.419 . S
C2097 C2092 1.425 . S
C2097 C2094 1.409 . S
C2097 C2095 1.415 . S
C2098 H2088 0.930 . S
C2098 C2096 1.419 . S
C2098 C2099 1.362 . S
C2099 H2089 0.930 . S
C2099 C2092 1.409 . S
C2099 C2098 1.362 . S
H2100 C2106 0.930 . S
H2101 C2109 0.930 . S
H2102 C2110 0.930 . S
H2103 C2111 0.930 . S
H2104 C2114 0.930 . S
H2105 C2115 0.930 . S
C2106 H2100 0.930 . S
C2106 C2107 1.355 . S
C2106 C2108 1.415 . S
C2107 C2106 1.355 . S
C2107 C2109 1.419 . S
C2108 C2106 1.415 . S
C2108 C2113 1.425 . S
C2108 C2115 1.409 . S
C2109 H2101 0.930 . S
C2109 C2107 1.419 . S
C2109 C2110 1.362 . S
C2110 H2102 0.930 . S
C2110 C2109 1.362 . S
C2110 C2113 1.409 . S
C2111 H2103 0.930 . S
C2111 C2112 1.355 . S
C2111 C2113 1.415 . S
C2112 C2111 1.355 . S
C2112 C2114 1.419 . S
C2113 C2108 1.425 . S
C2113 C2110 1.409 . S
C2113 C2111 1.415 . S
C2114 H2104 0.930 . S
C2114 C2112 1.419 . S
C2114 C2115 1.362 . S
C2115 H2105 0.930 . S
C2115 C2108 1.409 . S
C2115 C2114 1.362 . S
H2116 C2122 0.930 . S
H2117 C2125 0.930 . S
H2118 C2126 0.930 . S
H2119 C2127 0.930 . S
H2120 C2130 0.930 . S
H2121 C2131 0.930 . S
C2122 H2116 0.930 . S
C2122 C2123 1.355 . S
C2122 C2124 1.415 . S
C2123 C2122 1.355 . S
C2123 C2125 1.419 . S
C2124 C2122 1.415 . S
C2124 C2129 1.425 . S
C2124 C2131 1.409 . S
C2125 H2117 0.930 . S
C2125 C2123 1.419 . S
C2125 C2126 1.362 . S
C2126 H2118 0.930 . S
C2126 C2125 1.362 . S
C2126 C2129 1.409 . S
C2127 H2119 0.930 . S
C2127 C2128 1.355 . S
C2127 C2129 1.415 . S
C2128 C2127 1.355 . S
C2128 C2130 1.419 . S
C2129 C2124 1.425 . S
C2129 C2126 1.409 . S
C2129 C2127 1.415 . S
C2130 H2120 0.930 . S
C2130 C2128 1.419 . S
C2130 C2131 1.362 . S
C2131 H2121 0.930 . S
C2131 C2124 1.409 . S
C2131 C2130 1.362 . S
H2132 C2138 0.930 . S
H2133 C2141 0.930 . S
H2134 C2142 0.930 . S
H2135 C2143 0.930 . S
H2136 C2146 0.930 . S
H2137 C2147 0.930 . S
C2138 H2132 0.930 . S
C2138 C2139 1.355 . S
C2138 C2140 1.415 . S
C2139 C2138 1.355 . S
C2139 C2141 1.419 . S
C2140 C2138 1.415 . S
C2140 C2145 1.425 . S
C2140 C2147 1.409 . S
C2141 H2133 0.930 . S
C2141 C2139 1.419 . S
C2141 C2142 1.362 . S
C2142 H2134 0.930 . S
C2142 C2141 1.362 . S
C2142 C2145 1.409 . S
C2143 H2135 0.930 . S
C2143 C2144 1.355 . S
C2143 C2145 1.415 . S
C2144 C2143 1.355 . S
C2144 C2146 1.419 . S
C2145 C2140 1.425 . S
C2145 C2142 1.409 . S
C2145 C2143 1.415 . S
C2146 H2136 0.930 . S
C2146 C2144 1.419 . S
C2146 C2147 1.362 . S
C2147 H2137 0.930 . S
C2147 C2140 1.409 . S
C2147 C2146 1.362 . S
H2148 C2154 0.930 . S
H2149 C2157 0.930 . S
H2150 C2158 0.930 . S
H2151 C2159 0.930 . S
H2152 C2162 0.930 . S
H2153 C2163 0.930 . S
C2154 H2148 0.930 . S
C2154 C2155 1.355 . S
C2154 C2156 1.415 . S
C2155 C2154 1.355 . S
C2155 C2157 1.419 . S
C2156 C2154 1.415 . S
C2156 C2161 1.425 . S
C2156 C2163 1.409 . S
C2157 H2149 0.930 . S
C2157 C2155 1.419 . S
C2157 C2158 1.362 . S
C2158 H2150 0.930 . S
C2158 C2157 1.362 . S
C2158 C2161 1.409 . S
C2159 H2151 0.930 . S
C2159 C2160 1.355 . S
C2159 C2161 1.415 . S
C2160 C2159 1.355 . S
C2160 C2162 1.419 . S
C2161 C2156 1.425 . S
C2161 C2158 1.409 . S
C2161 C2159 1.415 . S
C2162 H2152 0.930 . S
C2162 C2160 1.419 . S
C2162 C2163 1.362 . S
C2163 H2153 0.930 . S
C2163 C2156 1.409 . S
C2163 C2162 1.362 . S
H2164 C2170 0.930 . S
H2165 C2173 0.930 . S
H2166 C2174 0.930 . S
H2167 C2175 0.930 . S
H2168 C2178 0.930 . S
H2169 C2179 0.930 . S
C2170 H2164 0.930 . S
C2170 C2171 1.355 . S
C2170 C2172 1.415 . S
C2171 C2170 1.355 . S
C2171 C2173 1.419 . S
C2172 C2170 1.415 . S
C2172 C2177 1.425 . S
C2172 C2179 1.409 . S
C2173 H2165 0.930 . S
C2173 C2171 1.419 . S
C2173 C2174 1.362 . S
C2174 H2166 0.930 . S
C2174 C2173 1.362 . S
C2174 C2177 1.409 . S
C2175 H2167 0.930 . S
C2175 C2176 1.355 . S
C2175 C2177 1.415 . S
C2176 C2175 1.355 . S
C2176 C2178 1.419 . S
C2177 C2172 1.425 . S
C2177 C2174 1.409 . S
C2177 C2175 1.415 . S
C2178 H2168 0.930 . S
C2178 C2176 1.419 . S
C2178 C2179 1.362 . S
C2179 H2169 0.930 . S
C2179 C2172 1.409 . S
C2179 C2178 1.362 . S
H2180 C2186 0.930 . S
H2181 C2189 0.930 . S
H2182 C2190 0.930 . S
H2183 C2191 0.930 . S
H2184 C2194 0.930 . S
H2185 C2195 0.930 . S
C2186 H2180 0.930 . S
C2186 C2187 1.355 . S
C2186 C2188 1.415 . S
C2187 C2186 1.355 . S
C2187 C2189 1.419 . S
C2188 C2186 1.415 . S
C2188 C2193 1.425 . S
C2188 C2195 1.409 . S
C2189 H2181 0.930 . S
C2189 C2187 1.419 . S
C2189 C2190 1.362 . S
C2190 H2182 0.930 . S
C2190 C2189 1.362 . S
C2190 C2193 1.409 . S
C2191 H2183 0.930 . S
C2191 C2192 1.355 . S
C2191 C2193 1.415 . S
C2192 C2191 1.355 . S
C2192 C2194 1.419 . S
C2193 C2188 1.425 . S
C2193 C2190 1.409 . S
C2193 C2191 1.415 . S
C2194 H2184 0.930 . S
C2194 C2192 1.419 . S
C2194 C2195 1.362 . S
C2195 H2185 0.930 . S
C2195 C2188 1.409 . S
C2195 C2194 1.362 . S
C1339 C439 1.336 . S
C1344 C632 1.298 . S
C1355 C465 1.505 . S
C1360 C716 1.403 . S
C1371 C401 1.483 . S
C1376 C810 1.424 . S
C1387 C369 1.449 . S
C1392 C726 1.367 . S
C1408 C800 1.373 . S
C1403 C305 1.445 . S
C1419 C343 1.304 . S
C1424 C642 1.320 . S
C1440 C643 1.400 . S
C1435 C375 1.435 . S
C1456 C727 1.444 . S
C1451 C311 1.490 . S
C1467 C337 1.386 . S
C1472 C819 1.393 . S
C1483 C433 1.412 . S
C1488 C735 1.410 . S
C1499 C471 1.417 . S
C1504 C811 1.394 . S
C1520 C651 1.344 . S
C1515 C407 1.438 . S
C1536 C884 1.370 . S
C1531 C55 1.399 . S
C1547 C81 1.516 . S
C1552 C968 1.481 . S
C1563 C17 1.472 . S
C1568 C1062 1.467 . S
C1579 C561 1.431 . S
C1584 C978 1.414 . S
C1595 C497 1.466 . S
C1600 C1052 1.429 . S
C1611 C535 1.376 . S
C1616 C894 1.384 . S
C1627 C567 1.437 . S
C1632 C895 1.348 . S
C1643 C503 1.477 . S
C1648 C979 1.379 . S
C1664 C1071 1.421 . S
C1659 C529 1.410 . S
C1675 C49 1.367 . S
C1680 C987 1.373 . S
C1696 C1063 1.382 . S
C1691 C87 1.442 . S
C1707 C23 1.419 . S
C1712 C903 1.415 . S
C1728 C1136 1.298 . S
C1723 C247 1.335 . S
C1739 C273 1.522 . S
C1744 C1220 1.469 . S
C1760 C1314 1.453 . S
C1755 C209 1.477 . S
C1776 C1230 1.412 . S
C1771 C177 1.436 . S
C1792 C1304 1.345 . S
C1787 C113 1.452 . S
C1803 C151 1.357 . S
C1808 C1146 1.368 . S
C1819 C183 1.436 . S
C1824 C1147 1.404 . S
C1835 C119 1.483 . S
C1840 C1231 1.372 . S
C1856 C1323 1.465 . S
C1851 C145 1.461 . S
C1867 C241 1.386 . S
C1872 C1239 1.393 . S
C1883 C279 1.423 . S
C1888 C1315 1.403 . S
C1899 C215 1.419 . S
C1904 C1155 1.415 . S
C1915 C509 1.425 . S
C1920 C639 1.423 . S
C1936 C723 1.397 . S
C1931 C541 1.477 . S
C1947 C573 1.431 . S
C1952 C816 1.400 . S
C1963 C221 1.470 . S
C1968 C732 1.408 . S
C1979 C253 1.451 . S
C1984 C807 1.345 . S
C2000 C648 1.423 . S
C1995 C285 1.418 . S
C2011 C125 1.438 . S
C2016 C891 1.363 . S
C2027 C157 1.471 . S
C2032 C975 1.403 . S
C2043 C189 1.484 . S
C2048 C1068 1.297 . S
C2059 C413 1.484 . S
C2064 C984 1.367 . S
C2080 C1059 1.292 . S
C2075 C445 1.401 . S
C2091 C477 1.456 . S
C2096 C900 1.353 . S
C2107 C317 1.432 . S
C2112 C1143 1.421 . S
C2123 C349 1.463 . S
C2128 C1227 1.399 . S
C2144 C1320 1.403 . S
C2139 C381 1.430 . S
C2155 C29 1.474 . S
C2160 C1236 1.400 . S
C2171 C61 1.455 . S
C2176 C1311 1.356 . S
C2187 C93 1.433 . S
C2192 C1152 1.405 . S
