# Generated by pormake.
# Topology zzz, (3,6)-cn, num edge types: 1
# Building blocks:
#     Node 0, Type 0, BuildingBlock: VETTIZ_charged_linker_0, # of connection points: 3
#     Node 1, Type 0, BuildingBlock: VETTIZ_charged_linker_0, # of connection points: 3
#     Node 2, Type 0, BuildingBlock: VETTIZ_charged_linker_0, # of connection points: 3
#     Node 3, Type 0, BuildingBlock: VETTIZ_charged_linker_0, # of connection points: 3
#     Node 4, Type 0, BuildingBlock: VETTIZ_charged_linker_0, # of connection points: 3
#     Node 5, Type 0, BuildingBlock: VETTIZ_charged_linker_0, # of connection points: 3
#     Node 6, Type 0, BuildingBlock: VETTIZ_charged_linker_0, # of connection points: 3
#     Node 7, Type 0, BuildingBlock: VETTIZ_charged_linker_0, # of connection points: 3
#     Node 8, Type 1, BuildingBlock: BETGAK_clean_sbu_0, # of connection points: 6
#     Node 9, Type 1, BuildingBlock: BETGAK_clean_sbu_0, # of connection points: 6
#     Node 10, Type 1, BuildingBlock: BETGAK_clean_sbu_0, # of connection points: 6
#     Node 11, Type 1, BuildingBlock: BETGAK_clean_sbu_0, # of connection points: 6
#     Edge 12, Type (0, 1), BuildingBlock: EZIPEK_clean_linker_0, # of connection points: 2
#     Edge 13, Type (0, 1), BuildingBlock: EZIPEK_clean_linker_0, # of connection points: 2
#     Edge 14, Type (0, 1), BuildingBlock: EZIPEK_clean_linker_0, # of connection points: 2
#     Edge 15, Type (0, 1), BuildingBlock: EZIPEK_clean_linker_0, # of connection points: 2
#     Edge 16, Type (0, 1), BuildingBlock: EZIPEK_clean_linker_0, # of connection points: 2
#     Edge 17, Type (0, 1), BuildingBlock: EZIPEK_clean_linker_0, # of connection points: 2
#     Edge 18, Type (0, 1), BuildingBlock: EZIPEK_clean_linker_0, # of connection points: 2
#     Edge 19, Type (0, 1), BuildingBlock: EZIPEK_clean_linker_0, # of connection points: 2
#     Edge 20, Type (0, 1), BuildingBlock: EZIPEK_clean_linker_0, # of connection points: 2
#     Edge 21, Type (0, 1), BuildingBlock: EZIPEK_clean_linker_0, # of connection points: 2
#     Edge 22, Type (0, 1), BuildingBlock: EZIPEK_clean_linker_0, # of connection points: 2
#     Edge 23, Type (0, 1), BuildingBlock: EZIPEK_clean_linker_0, # of connection points: 2
#     Edge 24, Type (0, 1), BuildingBlock: EZIPEK_clean_linker_0, # of connection points: 2
#     Edge 25, Type (0, 1), BuildingBlock: EZIPEK_clean_linker_0, # of connection points: 2
#     Edge 26, Type (0, 1), BuildingBlock: EZIPEK_clean_linker_0, # of connection points: 2
#     Edge 27, Type (0, 1), BuildingBlock: EZIPEK_clean_linker_0, # of connection points: 2
#     Edge 28, Type (0, 1), BuildingBlock: EZIPEK_clean_linker_0, # of connection points: 2
#     Edge 29, Type (0, 1), BuildingBlock: EZIPEK_clean_linker_0, # of connection points: 2
#     Edge 30, Type (0, 1), BuildingBlock: EZIPEK_clean_linker_0, # of connection points: 2
#     Edge 31, Type (0, 1), BuildingBlock: EZIPEK_clean_linker_0, # of connection points: 2
#     Edge 32, Type (0, 1), BuildingBlock: EZIPEK_clean_linker_0, # of connection points: 2
#     Edge 33, Type (0, 1), BuildingBlock: EZIPEK_clean_linker_0, # of connection points: 2
#     Edge 34, Type (0, 1), BuildingBlock: EZIPEK_clean_linker_0, # of connection points: 2
#     Edge 35, Type (0, 1), BuildingBlock: EZIPEK_clean_linker_0, # of connection points: 2
# Relax obj value: 0.519
# Max RMSD: 0.266
# Mean RMSD: 0.257
data_MOF--net-zzz--node1-BETGAK_clean_sbu_0--node2-VETTIZ_charged_linker_0--edge1-EZIPEK_clean_linker_0
_symmetry_space_group_name_H-M    P1
_symmetry_Int_Tables_number       1
_symmetry_cell_setting            triclinic
loop_
_symmetry_equiv_pos_as_xyz
'x, y, z'
_cell_length_a     44.472656
_cell_length_b     44.639305
_cell_length_c     14.323369
_cell_angle_alpha  89.630524
_cell_angle_beta   90.111863
_cell_angle_gamma 90.027601
loop_
_atom_site_label
_atom_site_type_symbol
_atom_site_fract_x
_atom_site_fract_y
_atom_site_fract_z
_atom_type_partial_charge
C0 C 0.80858 0.54814 0.63237 0.0
C1 C 0.83224 0.52657 0.65231 0.0
C2 C 0.82469 0.49606 0.63774 0.0
C3 C 0.7792 0.50987 0.55611 0.0
C4 C 0.78125 0.53862 0.58621 0.0
C5 C 0.75317 0.55539 0.54771 0.0
H6 H 0.66124 0.55649 0.14467 0.0
C7 C 0.75923 0.50913 0.4745 0.0
C8 C 0.73801 0.53277 0.47868 0.0
H9 H 0.61368 0.53234 0.3941 0.0
H10 H 0.66204 0.53516 0.48589 0.0
H11 H 0.7158 0.59446 0.20684 0.0
H12 H 0.70866 0.49754 0.18686 0.0
H13 H 0.73279 0.51602 0.10436 0.0
H14 H 0.69493 0.52348 0.10084 0.0
H15 H 0.72524 0.57484 0.10215 0.0
H16 H 0.75224 0.57936 0.19544 0.0
C17 C 0.76262 0.58457 0.49815 0.0
C18 C 0.73144 0.562 0.6282 0.0
C19 C 0.81703 0.4708 0.19929 0.0
C20 C 0.8254 0.48676 0.11968 0.0
C21 C 0.80917 0.51183 0.08902 0.0
C22 C 0.78598 0.5226 0.14442 0.0
C23 C 0.77879 0.50726 0.22725 0.0
C24 C 0.79568 0.48322 0.2569 0.0
C25 C 0.79737 0.48167 0.36135 0.0
C26 C 0.77093 0.50175 0.38576 0.0
C27 C 0.76137 0.51722 0.30608 0.0
C28 C 0.82817 0.49609 0.38782 0.0
C29 C 0.79397 0.44895 0.39653 0.0
C30 C 0.66084 0.55196 0.21907 0.0
C31 C 0.63379 0.544 0.26085 0.0
C32 C 0.63434 0.53842 0.35913 0.0
C33 C 0.66196 0.53998 0.41187 0.0
C34 C 0.68938 0.5457 0.36532 0.0
C35 C 0.68793 0.54987 0.269 0.0
C36 C 0.71744 0.54493 0.22313 0.0
C37 C 0.73626 0.53587 0.3074 0.0
C38 C 0.7221 0.54104 0.39288 0.0
C39 C 0.72828 0.57483 0.17914 0.0
C40 C 0.7135 0.51914 0.15074 0.0
H41 H 0.79429 0.46438 0.57623 0.0
H42 H 0.81189 0.57157 0.64816 0.0
H43 H 0.72485 0.5409 0.66446 0.0
H44 H 0.71069 0.57295 0.60133 0.0
H45 H 0.74218 0.57701 0.68015 0.0
H46 H 0.77838 0.57966 0.44009 0.0
H47 H 0.77396 0.59993 0.54778 0.0
H48 H 0.74264 0.59629 0.46889 0.0
H49 H 0.8314 0.45309 0.2263 0.0
H50 H 0.81672 0.52484 0.02937 0.0
H51 H 0.77577 0.54349 0.12504 0.0
H52 H 0.82892 0.52009 0.3665 0.0
H53 H 0.84716 0.4844 0.35349 0.0
H54 H 0.83374 0.49487 0.4618 0.0
H55 H 0.79372 0.43254 0.33851 0.0
H56 H 0.77263 0.44573 0.4355 0.0
H57 H 0.81296 0.44245 0.44287 0.0
H58 H 0.84066 0.47847 0.65401 0.0
C59 C 0.79817 0.48767 0.59148 0.0
C60 C 0.0353 0.79304 0.06175 0.0
C61 C 1.02368 0.82239 0.05611 0.0
C62 C 0.99972 0.82924 0.11929 0.0
C63 C 1.01106 0.7863 0.21029 0.0
C64 C 1.0302 0.77624 0.14271 0.0
C65 C 0.0446 0.74727 0.17127 0.0
H66 H 1.00034 0.64231 0.32974 0.0
C67 C 1.01671 0.76986 0.29607 0.0
C68 C 0.03781 0.74765 0.27606 0.0
H69 H 0.08073 0.64973 0.15934 0.0
H70 H 0.09369 0.69621 0.24013 0.0
H71 H 0.04795 0.68093 0.54475 0.0
H72 H 0.97795 0.71357 0.35746 0.0
H73 H 0.97292 0.71685 0.48189 0.0
H74 H 0.97128 0.6806 0.42778 0.0
H75 H 1.01241 0.66155 0.53836 0.0
H76 H 1.0147 0.69781 0.59292 0.0
C77 C 0.0788 0.74699 0.14934 0.0
C78 C 1.02691 0.72251 0.11957 0.0
C79 C 1.00843 0.83221 0.58022 0.0
C80 C 1.0277 0.83426 0.65689 0.0
C81 C 0.04394 0.80753 0.68092 0.0
C82 C 0.04166 0.78057 0.62568 0.0
C83 C 1.0235 0.78025 0.54427 0.0
C84 C 1.00859 0.80676 0.52236 0.0
C85 C 0.99803 0.8074 0.42377 0.0
C86 C 1.00995 0.77745 0.38891 0.0
C87 C 1.02073 0.75898 0.461 0.0
C88 C 1.01249 0.83536 0.37399 0.0
C89 C 0.96325 0.80771 0.42503 0.0
C90 C 1.02109 0.65343 0.31075 0.0
C91 C 0.0384 0.64301 0.23136 0.0
C92 C 0.06616 0.65746 0.2147 0.0
C93 C 0.07352 0.68433 0.25963 0.0
C94 C 0.05331 0.69656 0.32336 0.0
C95 C 1.03049 0.68006 0.35995 0.0
C96 C 1.01684 0.69906 0.44039 0.0
C97 C 0.03375 0.73003 0.43525 0.0
C98 C 0.04809 0.72794 0.34724 0.0
C99 C 1.02334 0.68391 0.53475 0.0
C100 C 0.98271 0.70274 0.426 0.0
H101 H 0.97448 0.81666 0.23831 0.0
H102 H 0.04915 0.78331 1.00934 0.0
H103 H 1.00318 0.7215 0.14398 0.0
H104 H 0.03677 0.70018 0.12884 0.0
H105 H 1.0267 0.72693 0.04309 0.0
H106 H 0.0861 0.76571 0.10356 0.0
H107 H 0.08537 0.72615 0.11279 0.0
H108 H 0.09244 0.74895 0.21405 0.0
H109 H 0.99578 0.85183 0.5586 0.0
H110 H 0.05905 0.8078 0.74023 0.0
H111 H 0.05511 0.76118 0.6437 0.0
H112 H 1.02385 0.85129 0.42157 0.0
H113 H 0.99546 0.84912 0.33683 0.0
H114 H 1.03074 0.82899 0.32542 0.0
H115 H 0.95437 0.79267 0.48082 0.0
H116 H 0.95338 0.79925 0.35941 0.0
H117 H 0.95464 0.83065 0.43833 0.0
H118 H 0.9881 0.85034 0.12145 0.0
C119 C 0.9923 0.81028 0.19245 0.0
C120 C 0.90986 1.02351 0.32229 0.0
C121 C 0.91833 1.00869 0.23678 0.0
C122 C 0.90144 0.98309 0.21173 0.0
C123 C 0.8647 0.9935 0.33069 0.0
C124 C 0.88306 1.01415 0.37102 0.0
C125 C 0.86577 1.02688 0.45541 0.0
H126 H 0.70973 0.05316 0.54107 0.0
C127 C 0.83365 1.00036 0.35657 0.0
C128 C 0.8333 1.01302 0.44751 0.0
H129 H 0.74527 0.98319 0.71663 0.0
H130 H 0.79482 0.98713 0.63432 0.0
H131 H 0.78078 0.09515 0.5193 0.0
H132 H 0.71414 0.05367 0.38894 0.0
H133 H 0.74026 0.03241 0.32251 0.0
H134 H 0.73563 0.07259 0.30735 0.0
H135 H 0.74144 0.09942 0.49196 0.0
H136 H 0.76928 0.10735 0.40531 0.0
C137 C 0.86581 0.06145 0.45156 0.0
C138 C 0.88047 1.01601 0.54656 0.0
C139 C 0.77143 0.03871 0.08422 0.0
C140 C 0.75392 0.06485 0.08184 0.0
C141 C 0.76156 0.08948 0.13844 0.0
C142 C 0.78121 0.08533 0.21288 0.0
C143 C 0.79162 0.05646 0.22855 0.0
C144 C 0.7905 0.03493 0.16069 0.0
C145 C 0.80958 1.00838 0.18653 0.0
C146 C 0.81675 1.01623 0.28827 0.0
C147 C 0.80335 0.04341 0.31223 0.0
C148 C 0.83667 1.00867 0.11897 0.0
C149 C 0.79172 0.97891 0.18122 0.0
C150 C 0.7278 0.03829 0.56178 0.0
C151 C 0.72263 1.01749 0.63382 0.0
C152 C 0.74777 0.99924 0.6602 0.0
C153 C 0.7764 1.00153 0.61345 0.0
C154 C 0.78035 1.02241 0.53981 0.0
C155 C 0.75579 0.04004 0.5156 0.0
C156 C 0.76214 0.05928 0.43229 0.0
C157 C 0.79331 0.04767 0.40441 0.0
C158 C 0.80632 1.02946 0.47374 0.0
C159 C 0.76352 0.09218 0.46377 0.0
C160 C 0.73699 0.05412 0.35851 0.0
H161 H 0.8607 0.95762 0.23208 0.0
H162 H 0.92275 0.04241 0.34711 0.0
H163 H 0.88098 0.99112 0.54967 0.0
H164 H 0.86768 1.02425 0.60785 0.0
H165 H 0.90392 1.02433 0.55166 0.0
H166 H 0.85638 0.06969 0.38431 0.0
H167 H 0.88907 0.07031 0.45804 0.0
H168 H 0.85228 0.07083 0.5096 0.0
H169 H 0.76695 1.02032 0.03725 0.0
H170 H 0.7491 0.1103 0.13372 0.0
H171 H 0.78522 0.1031 0.26192 0.0
H172 H 0.85458 1.02407 0.14386 0.0
H173 H 0.82999 1.01638 0.0479 0.0
H174 H 0.84577 0.98594 0.10744 0.0
H175 H 0.77088 0.98026 0.2238 0.0
H176 H 0.80549 0.96003 0.20853 0.0
H177 H 0.78538 0.97379 0.10799 0.0
H178 H 0.90747 0.97035 0.15044 0.0
C179 C 0.87476 0.97546 0.25837 0.0
C180 C 0.54633 0.74903 0.63272 0.0
C181 C 0.52607 0.72421 0.64992 0.0
C182 C 0.49546 0.72893 0.629 0.0
C183 C 0.50718 0.77536 0.54832 0.0
C184 C 0.53547 0.77556 0.58507 0.0
C185 C 0.55082 0.80488 0.55139 0.0
H186 H 0.56249 0.89568 0.15394 0.0
C187 C 0.50638 0.7959 0.46726 0.0
C188 C 0.52859 0.8185 0.47757 0.0
H189 H 0.51514 0.93982 0.37382 0.0
H190 H 0.51884 0.89342 0.47315 0.0
H191 H 0.5989 0.83978 0.24421 0.0
H192 H 0.50375 0.84666 0.17125 0.0
H193 H 0.52601 0.82275 0.09923 0.0
H194 H 0.53304 0.86048 0.0965 0.0
H195 H 0.58601 0.83598 0.12596 0.0
H196 H 0.58469 0.80497 0.20777 0.0
C197 C 0.58183 0.79805 0.50899 0.0
C198 C 0.55393 0.82658 0.63367 0.0
C199 C 0.47864 0.73731 0.1801 0.0
C200 C 0.49631 0.73078 0.10226 0.0
C201 C 0.52194 0.74771 0.08118 0.0
C202 C 0.53099 0.77007 0.14234 0.0
C203 C 0.5134 0.77598 0.22126 0.0
C204 C 0.4891 0.75827 0.24274 0.0
C205 C 0.48197 0.75848 0.34506 0.0
C206 C 0.50159 0.78456 0.37611 0.0
C207 C 0.5197 0.79428 0.3019 0.0
C208 C 0.49217 0.72781 0.3873 0.0
C209 C 0.44818 0.76465 0.35886 0.0
C210 C 0.55378 0.89601 0.22452 0.0
C211 C 0.5391 0.92166 0.25556 0.0
C212 C 0.52724 0.92065 0.34806 0.0
C213 C 0.52936 0.89403 0.40514 0.0
C214 C 0.54196 0.86762 0.36769 0.0
C215 C 0.55147 0.86904 0.27519 0.0
C216 C 0.5494 0.83922 0.2288 0.0
C217 C 0.53723 0.82019 0.30878 0.0
C218 C 0.53798 0.83491 0.39424 0.0
C219 C 0.58132 0.8294 0.19943 0.0
C220 C 0.52686 0.84216 0.14534 0.0
H221 H 0.46273 0.75589 0.55771 0.0
H222 H 0.56984 0.74712 0.65136 0.0
H223 H 0.53156 0.83128 0.6649 0.0
H224 H 0.5638 0.84819 0.60986 0.0
H225 H 0.56862 0.81685 0.68891 0.0
H226 H 0.57952 0.78226 0.44971 0.0
H227 H 0.59696 0.78782 0.56212 0.0
H228 H 0.5926 0.81895 0.4829 0.0
H229 H 0.46038 0.72253 0.20049 0.0
H230 H 0.53644 0.74157 0.02372 0.0
H231 H 0.55203 0.781 0.12918 0.0
H232 H 0.5154 0.72911 0.41559 0.0
H233 H 0.49242 0.70942 0.33552 0.0
H234 H 0.47656 0.71962 0.44179 0.0
H235 H 0.44339 0.77329 0.42941 0.0
H236 H 0.43484 0.74389 0.34811 0.0
H237 H 0.44005 0.78192 0.30856 0.0
H238 H 0.47914 0.71156 0.64431 0.0
C239 C 0.48594 0.75435 0.57873 0.0
C240 C 0.40708 0.51336 0.20744 0.0
C241 C 0.42119 0.53125 0.27941 0.0
C242 C 0.41005 0.56065 0.29073 0.0
C243 C 0.36784 0.55042 0.19025 0.0
C244 C 0.38036 0.52427 0.1609 0.0
C245 C 0.35797 0.50995 0.09098 0.0
H246 H 0.19945 0.51334 1.01317 0.0
C247 C 0.33545 0.54942 0.17248 0.0
C248 C 0.32939 0.53038 0.09551 0.0
H249 H 0.25338 0.54026 0.7788 0.0
H250 H 0.29997 0.53581 0.87739 0.0
H251 H 0.22175 0.47182 0.11142 0.0
H252 H 0.20494 0.5406 0.14741 0.0
H253 H 0.23881 0.56246 0.15532 0.0
H254 H 0.22515 0.54097 0.25184 0.0
H255 H 0.21682 0.48557 0.22586 0.0
H256 H 0.25165 0.46752 0.19334 0.0
C257 C 0.35103 0.47743 0.12008 0.0
C258 C 0.37107 0.51096 0.99198 0.0
C259 C 0.2682 0.56675 0.44796 0.0
C260 C 0.2392 0.55474 0.45835 0.0
C261 C 0.23341 0.525 0.43008 0.0
C262 C 0.25371 0.51065 0.37166 0.0
C263 C 0.27768 0.52757 0.33851 0.0
C264 C 0.28733 0.55272 0.38451 0.0
C265 C 0.31558 0.56501 0.34122 0.0
C266 C 0.31578 0.54732 0.24994 0.0
C267 C 0.29241 0.52649 0.24899 0.0
C268 C 0.34186 0.55704 0.4082 0.0
C269 C 0.31269 0.59904 0.32332 0.0
C270 C 0.22113 0.51785 0.98162 0.0
C271 C 0.22224 0.52693 0.88839 0.0
C272 C 0.25141 0.53307 0.85081 0.0
C273 C 0.27826 0.53044 0.9071 0.0
C274 C 0.27609 0.52176 1.00207 0.0
C275 C 0.24742 0.51634 0.03669 0.0
C276 C 0.24703 0.51392 0.14034 0.0
C277 C 0.28052 0.51713 0.16296 0.0
C278 C 0.29849 0.52007 0.08281 0.0
C279 C 0.23373 0.48315 0.16954 0.0
C280 C 0.22815 0.54087 0.17597 0.0
H281 H 0.3755 0.59236 0.26057 0.0
H282 H 0.41565 0.49129 0.19171 0.0
H283 H 0.37486 0.53449 0.96965 0.0
H284 H 0.35525 0.50059 0.94147 0.0
H285 H 0.39288 0.49883 0.98918 0.0
H286 H 0.34175 0.47665 0.19204 0.0
H287 H 0.37175 0.46354 0.1183 0.0
H288 H 0.33432 0.46732 0.07185 0.0
H289 H 0.27344 0.58881 0.47438 0.0
H290 H 0.21181 0.51452 0.44283 0.0
H291 H 0.24883 0.48869 0.34524 0.0
H292 H 0.35188 0.53494 0.39087 0.0
H293 H 0.33429 0.55579 0.48213 0.0
H294 H 0.35957 0.57445 0.40798 0.0
H295 H 0.29108 0.6044 0.28827 0.0
H296 H 0.33044 0.60759 0.27659 0.0
H297 H 0.31397 0.61163 0.38988 0.0
H298 H 0.42028 0.57572 0.34053 0.0
C299 C 0.38394 0.57035 0.24556 0.0
C300 C 0.03737 0.25874 0.45631 0.0
C301 C 0.03929 0.22733 0.4572 0.0
C302 C 0.06219 0.21289 0.40576 0.0
C303 C 0.06992 0.25853 0.32363 0.0
C304 C 0.05432 0.27417 0.38947 0.0
C305 C 0.05461 0.3069 0.36607 0.0
H306 H 1.01152 0.41143 0.17877 0.0
C307 C 0.07138 0.2765 0.23974 0.0
C308 C 0.06927 0.30595 0.2684 0.0
H309 H 0.08468 0.41175 0.38078 0.0
H310 H 0.10161 0.36354 0.32082 0.0
H311 H 0.07105 0.36322 0.99766 0.0
H312 H 0.98815 0.36822 0.07338 0.0
H313 H 0.9917 0.33812 0.15705 0.0
H314 H 0.99376 0.33038 0.03387 0.0
H315 H 0.03903 0.38685 0.98585 0.0
H316 H 0.03795 0.34943 0.93925 0.0
C317 C 0.07369 0.32294 0.44056 0.0
C318 C 1.02213 0.31926 0.36311 0.0
C319 C 1.02293 0.21913 0.98157 0.0
C320 C 1.02744 0.22085 0.88594 0.0
C321 C 0.03484 0.24978 0.84865 0.0
C322 C 0.03824 0.2756 0.90851 0.0
C323 C 0.03596 0.27225 1.00689 0.0
C324 C 1.03123 0.24312 0.03894 0.0
C325 C 0.04366 0.23806 0.13376 0.0
C326 C 0.05752 0.2685 0.1542 0.0
C327 C 0.04896 0.29047 0.08754 0.0
C328 C 0.06777 0.21264 0.13211 0.0
C329 C 1.01652 0.23078 0.19738 0.0
C330 C 1.03141 0.4014 0.209 0.0
C331 C 0.04582 0.41506 0.28977 0.0
C332 C 0.07244 0.40178 0.32327 0.0
C333 C 0.08215 0.37425 0.28992 0.0
C334 C 0.06515 0.35963 0.22266 0.0
C335 C 0.04303 0.37346 0.17268 0.0
C336 C 0.03402 0.35152 0.09166 0.0
C337 C 0.05089 0.32192 0.11711 0.0
C338 C 0.06622 0.32825 0.20039 0.0
C339 C 0.04605 0.36343 0.99802 0.0
C340 C 0.99986 0.3468 0.08875 0.0
H341 H 0.09449 0.21778 0.29558 0.0
H342 H 1.02131 0.27026 0.4999 0.0
H343 H 1.00834 0.30695 0.31105 0.0
H344 H 1.02187 0.34338 0.34436 0.0
H345 H 1.01117 0.31719 0.43244 0.0
H346 H 0.06851 0.31417 0.51157 0.0
H347 H 0.06865 0.34719 0.44331 0.0
H348 H 0.0981 0.31954 0.42774 0.0
H349 H 1.0187 0.19737 1.01307 0.0
H350 H 0.03924 0.25213 0.77466 0.0
H351 H 0.04534 0.29678 0.87882 0.0
H352 H 0.06877 0.19992 0.06602 0.0
H353 H 0.06349 0.1956 0.18722 0.0
H354 H 0.09083 0.22185 0.14004 0.0
H355 H 1.00301 0.21195 0.169 0.0
H356 H 1.00152 0.25058 0.20411 0.0
H357 H 1.02347 0.22368 0.26758 0.0
H358 H 0.0652 0.18883 0.40941 0.0
C359 C 0.0781 0.22889 0.33851 0.0
C360 C 0.30842 0.03792 0.89921 0.0
C361 C 0.33671 0.0544 0.89648 0.0
C362 C 0.33753 0.08202 0.94425 0.0
C363 C 0.29027 0.0711 1.01831 0.0
C364 C 0.28443 0.04785 0.95984 0.0
C365 C 0.25318 0.03477 0.98936 0.0
H366 H 0.16133 1.01324 0.38004 0.0
C367 C 0.27187 0.06812 0.10153 0.0
C368 C 0.24536 0.05218 0.08073 0.0
H369 H 0.11796 0.0548 0.14488 0.0
H370 H 0.16716 0.05635 0.05971 0.0
H371 H 0.21455 0.98044 0.32612 0.0
H372 H 0.19182 0.07023 0.37285 0.0
H373 H 0.22862 0.06909 0.41371 0.0
H374 H 0.2012 0.04338 0.46198 0.0
H375 H 0.22481 0.99726 0.43368 0.0
H376 H 0.25119 0.99457 0.33808 0.0
C377 C 0.25567 1.00093 1.00842 0.0
C378 C 0.22965 0.04121 0.91335 0.0
C379 C 0.33804 0.03278 0.36117 0.0
C380 C 0.32985 1.01516 0.43763 0.0
C381 C 0.30151 1.01796 0.47806 0.0
C382 C 0.27983 0.03515 0.43317 0.0
C383 C 0.2864 0.04746 0.34478 0.0
C384 C 0.31561 0.04831 0.31333 0.0
C385 C 0.31806 0.05995 0.21528 0.0
C386 C 0.28466 0.06479 0.19163 0.0
C387 C 0.26687 0.0547 0.2655 0.0
C388 C 0.33285 0.03506 0.15536 0.0
C389 C 0.33675 0.08914 0.216 0.0
C390 C 0.16156 1.02087 0.30795 0.0
C391 C 0.13547 0.03278 0.26964 0.0
C392 C 0.1376 0.0447 0.1768 0.0
C393 C 0.16589 0.04551 0.12736 0.0
C394 C 0.19254 0.03559 0.17226 0.0
C395 C 0.1893 1.02565 0.26405 0.0
C396 C 0.21683 0.03056 0.32023 0.0
C397 C 0.23763 0.04404 0.24848 0.0
C398 C 0.22542 0.04413 0.15802 0.0
C399 C 0.2275 0.99933 0.3569 0.0
C400 C 0.20943 0.05424 0.3969 0.0
H401 H 0.31641 0.11067 0.04515 0.0
H402 H 0.30591 1.01742 0.86004 0.0
H403 H 0.22792 0.0657 0.89984 0.0
H404 H 0.20719 0.03284 0.93533 0.0
H405 H 0.23597 0.03005 0.84706 0.0
H406 H 0.27274 0.99638 0.06345 0.0
H407 H 0.26239 0.98888 0.94409 0.0
H408 H 0.23374 0.99178 0.03241 0.0
H409 H 0.3607 0.03159 0.33394 0.0
H410 H 0.29572 1.00544 0.54054 0.0
H411 H 0.2583 0.03572 0.46568 0.0
H412 H 0.31888 1.01439 0.15575 0.0
H413 H 0.35569 1.02927 0.18067 0.0
H414 H 0.33644 0.04186 0.08282 0.0
H415 H 0.32215 0.10902 0.22672 0.0
H416 H 0.34976 0.09212 0.15079 0.0
H417 H 0.35388 0.08888 0.27265 0.0
H418 H 0.35743 0.09599 0.9415 0.0
C419 C 0.31433 0.09051 1.00419 0.0
C420 C 0.51515 0.30709 0.8903 0.0
C421 C 0.53593 0.3321 0.87882 0.0
C422 C 0.56614 0.32643 0.9056 0.0
C423 C 0.55263 0.27937 0.97754 0.0
C424 C 0.52483 0.27995 0.93811 0.0
C425 C 0.50854 0.25103 0.97312 0.0
H426 H 0.50002 0.16133 0.38116 0.0
C427 C 0.55122 0.26046 0.06137 0.0
C428 C 0.52995 0.23722 0.04983 0.0
H429 H 0.53875 0.11427 0.1502 0.0
H430 H 0.53625 0.1612 0.05283 0.0
H431 H 0.55258 0.20142 0.36186 0.0
H432 H 0.46019 0.21583 0.28267 0.0
H433 H 0.47345 0.25055 0.32245 0.0
H434 H 0.4724 0.21882 0.40175 0.0
H435 H 0.52239 0.20412 0.4446 0.0
H436 H 0.5423 0.23615 0.40602 0.0
C437 C 0.50538 0.22889 0.89207 0.0
C438 C 0.4775 0.2589 1.01324 0.0
C439 C 0.56576 0.32921 0.33138 0.0
C440 C 0.55095 0.33217 0.4161 0.0
C441 C 0.52933 0.31131 0.44513 0.0
C442 C 0.52246 0.28727 0.38687 0.0
C443 C 0.53807 0.28441 0.30183 0.0
C444 C 0.55832 0.30586 0.2743 0.0
C445 C 0.56619 0.30457 0.17364 0.0
C446 C 0.55251 0.27435 0.14986 0.0
C447 C 0.53536 0.26357 0.2246 0.0
C448 C 0.60097 0.30511 0.16178 0.0
C449 C 0.5495 0.33145 0.12514 0.0
C450 C 0.50681 0.16041 0.30861 0.0
C451 C 0.51867 0.1338 0.27415 0.0
C452 C 0.52883 0.13426 0.17939 0.0
C453 C 0.52737 0.16116 0.12303 0.0
C454 C 0.51672 0.18816 0.16227 0.0
C455 C 0.50826 0.18706 0.25585 0.0
C456 C 0.50959 0.21713 0.30006 0.0
C457 C 0.52068 0.236 0.21902 0.0
C458 C 0.52026 0.22094 0.13366 0.0
C459 C 0.53266 0.21496 0.38241 0.0
C460 C 0.47735 0.22614 0.32916 0.0
H461 H 0.59735 0.29794 0.97771 0.0
H462 H 0.49213 0.30916 0.86665 0.0
H463 H 0.47987 0.27504 0.07158 0.0
H464 H 0.46608 0.23845 0.0401 0.0
H465 H 0.46296 0.26917 0.95859 0.0
H466 H 0.52783 0.22343 0.8626 0.0
H467 H 0.49131 0.23863 0.83533 0.0
H468 H 0.49482 0.20769 0.91658 0.0
H469 H 0.58108 0.34642 0.30625 0.0
H470 H 0.5174 0.31418 0.51031 0.0
H471 H 0.50565 0.27173 0.41008 0.0
H472 H 0.61312 0.30658 0.22949 0.0
H473 H 0.6086 0.32451 0.11914 0.0
H474 H 0.60926 0.28433 0.12827 0.0
H475 H 0.52917 0.32396 0.08674 0.0
H476 H 0.56431 0.3443 0.07771 0.0
H477 H 0.54109 0.34855 0.17476 0.0
H478 H 0.58322 0.34353 0.89741 0.0
C479 C 0.57453 0.30031 0.95331 0.0
La480 La 0.06071 1.02827 0.8015 0.0
La481 La 1.00278 1.02931 0.71123 0.0
C482 C 0.10464 1.0161 0.9058 0.0
C483 C 0.10106 0.99223 0.97512 0.0
C484 C 0.12353 0.9708 0.99356 0.0
C485 C 0.11522 0.94156 0.02159 0.0
C486 C 0.08464 0.93298 1.01837 0.0
C487 C 0.06328 0.95547 1.00281 0.0
C488 C 0.07116 0.98491 0.99255 0.0
C489 C 0.06497 0.03947 0.61626 0.0
C490 C 1.02895 0.96459 0.74891 0.0
C491 C 0.96567 0.03827 0.58079 0.0
C492 C 0.957 0.06709 0.53762 0.0
C493 C 0.94194 0.08879 0.59085 0.0
C494 C 0.9456 0.11909 0.56985 0.0
C495 C 0.96412 0.12771 0.49558 0.0
C496 C 0.97441 0.10612 0.43252 0.0
C497 C 0.97077 0.07579 0.45342 0.0
C498 C 0.989 1.02641 0.894 0.0
C499 C 1.03048 0.09157 0.78673 0.0
O500 O 0.10222 1.00636 0.82042 0.0
O501 O 0.08723 0.0393 0.91883 0.0
O502 O 0.08049 0.05219 0.68148 0.0
O503 O 0.04762 1.0212 0.65841 0.0
O504 O 0.05032 0.97904 0.79602 0.0
O505 O 1.00726 0.98008 0.70734 0.0
O506 O 0.95782 0.03407 0.66766 0.0
O507 O 0.99367 0.0307 0.5676 0.0
O508 O 0.97023 1.02626 0.82528 0.0
O509 O 1.01575 1.0271 0.85957 0.0
O510 O 1.0131 0.07821 0.72375 0.0
O511 O 0.04931 0.07489 0.83594 0.0
H512 H 0.14694 0.97599 0.98056 0.0
H513 H 0.13258 0.92528 0.03705 0.0
H514 H 0.04012 0.95005 0.99225 0.0
H515 H 0.05316 1.00074 0.97936 0.0
H516 H 0.93045 0.08276 0.65486 0.0
H517 H 0.93717 0.13568 0.61805 0.0
H518 H 0.98876 0.11257 0.3747 0.0
H519 H 0.98213 0.05944 0.41039 0.0
La520 La 0.53053 0.05601 0.80144 0.0
La521 La 0.52594 1.00004 0.72903 0.0
C522 C 0.54647 0.09941 0.90082 0.0
C523 C 0.57334 0.09817 0.95872 0.0
C524 C 0.59 0.12378 0.98104 0.0
C525 C 0.61945 0.12054 1.01433 0.0
C526 C 0.63256 0.09188 1.01764 0.0
C527 C 0.61508 0.06656 1.00082 0.0
C528 C 0.58559 0.06974 0.97468 0.0
C529 C 0.51854 0.06058 0.61703 0.0
C530 C 0.59222 1.02177 0.74235 0.0
C531 C 0.51474 0.95429 0.63164 0.0
C532 C 0.48972 0.94748 0.56918 0.0
C533 C 0.47068 0.92332 0.59078 0.0
C534 C 0.44148 0.92284 0.55535 0.0
C535 C 0.43168 0.94658 0.49881 0.0
C536 C 0.45219 0.96777 0.46489 0.0
C537 C 0.48105 0.96853 0.50103 0.0
C538 C 0.53652 0.9962 0.91635 0.0
C539 C 0.46437 0.0346 0.78615 0.0
O540 O 0.5521 0.0978 0.81171 0.0
O541 O 0.52562 0.08043 0.92543 0.0
O542 O 0.50751 0.07714 0.68229 0.0
O543 O 0.53607 0.0419 0.65736 0.0
O544 O 0.57926 0.04201 0.79632 0.0
O545 O 0.57439 1.00271 0.70007 0.0
O546 O 0.50733 0.95693 0.71891 0.0
O547 O 0.53237 0.97603 0.60531 0.0
O548 O 0.5491 0.98052 0.85148 0.0
O549 O 0.5192 1.01433 0.87299 0.0
O550 O 0.47678 1.01306 0.73453 0.0
O551 O 0.48205 0.05445 0.82562 0.0
H552 H 0.58102 0.14594 0.96792 0.0
H553 H 0.63272 0.14027 0.02955 0.0
H554 H 0.6246 0.0442 1.00419 0.0
H555 H 0.57338 0.04968 0.95795 0.0
H556 H 0.47714 0.90689 0.64308 0.0
H557 H 0.42559 0.90652 0.58208 0.0
H558 H 0.4447 0.98616 0.42077 0.0
H559 H 0.49539 0.98722 0.48213 0.0
La560 La 0.50215 0.5289 0.79902 0.0
La561 La 0.55706 0.52801 0.73666 0.0
C562 C 0.4536 0.53726 0.88576 0.0
C563 C 0.45021 0.55631 0.96649 0.0
C564 C 0.42648 0.57693 0.96808 0.0
C565 C 0.43083 0.60473 1.0095 0.0
C566 C 0.45952 0.6122 0.04279 0.0
C567 C 0.48141 0.58991 0.0536 0.0
C568 C 0.47636 0.5617 1.0185 0.0
C569 C 0.49782 0.51539 0.61586 0.0
C570 C 0.53231 0.59281 0.74091 0.0
C571 C 0.60465 0.51861 0.64728 0.0
C572 C 0.60395 0.50064 0.56374 0.0
C573 C 0.62841 0.48317 0.53575 0.0
C574 C 0.62309 0.4576 0.48228 0.0
C575 C 0.59332 0.44744 0.47196 0.0
C576 C 0.56953 0.4672 0.49016 0.0
C577 C 0.57517 0.49443 0.52991 0.0
C578 C 0.55984 0.54043 0.92203 0.0
C579 C 0.52806 0.46459 0.78948 0.0
O580 O 0.46128 0.55202 0.8109 0.0
O581 O 0.47069 0.514 0.89843 0.0
O582 O 0.48367 0.50282 0.68376 0.0
O583 O 0.51592 0.53418 0.65304 0.0
O584 O 0.51183 0.57904 0.7944 0.0
O585 O 0.55272 0.57558 0.70337 0.0
O586 O 0.59719 0.50359 0.72215 0.0
O587 O 0.58918 0.54322 0.63981 0.0
O588 O 0.57523 0.55281 0.85657 0.0
O589 O 0.54264 0.52177 0.88182 0.0
O590 O 0.54511 0.47886 0.72729 0.0
O591 O 0.51102 0.48199 0.84072 0.0
H592 H 0.40649 0.5734 0.92641 0.0
H593 H 0.41352 0.62169 1.00298 0.0
H594 H 0.5035 0.59501 0.08112 0.0
H595 H 0.495 0.54605 1.01873 0.0
H596 H 0.65087 0.48778 0.56112 0.0
H597 H 0.64185 0.44349 0.46294 0.0
H598 H 0.54617 0.46075 0.48219 0.0
H599 H 0.5561 0.50813 0.54846 0.0
La600 La 1.02984 0.5078 0.78653 0.0
La601 La 1.02978 0.55961 0.70191 0.0
C602 C 1.0222 0.4631 0.89182 0.0
C603 C 1.00176 0.46207 0.96944 0.0
C604 C 0.98957 0.4349 1.00004 0.0
C605 C 0.96301 0.43494 0.05109 0.0
C606 C 0.94735 0.46191 0.06062 0.0
C607 C 0.96116 0.4892 0.03819 0.0
C608 C 0.98873 0.48927 0.99532 0.0
C609 C 0.03892 0.49847 0.60076 0.0
C610 C 0.96549 0.53525 0.72978 0.0
C611 C 0.03917 0.60456 0.59761 0.0
C612 C 0.0673 0.61592 0.55694 0.0
C613 C 0.08888 0.63002 0.61356 0.0
C614 C 0.11895 0.63007 0.58686 0.0
C615 C 0.1274 0.61615 0.50367 0.0
C616 C 0.10543 0.60656 0.44046 0.0
C617 C 0.07536 0.60664 0.46696 0.0
C618 C 1.01968 0.56939 0.88603 0.0
C619 C 0.09407 0.53284 0.76953 0.0
O620 O 1.00863 0.46659 0.81198 0.0
O621 O 0.044 0.48217 0.90174 0.0
O622 O 0.0532 0.4861 0.66909 0.0
O623 O 1.02051 0.5164 0.63884 0.0
O624 O 0.98048 0.52009 0.79552 0.0
O625 O 0.98214 0.5509 0.67163 0.0
O626 O 0.03664 0.60609 0.68797 0.0
O627 O 1.03092 0.57832 0.56765 0.0
O628 O 1.00343 0.57889 0.81701 0.0
O629 O 0.03883 0.55152 0.84986 0.0
O630 O 0.07997 0.55152 0.71126 0.0
O631 O 0.07762 0.51341 0.81493 0.0
H632 H 0.99862 0.41388 0.97686 0.0
H633 H 0.95267 0.41387 0.07088 0.0
H634 H 0.94959 0.51038 0.04681 0.0
H635 H 0.99771 0.51049 0.97139 0.0
H636 H 0.08319 0.63796 0.68259 0.0
H637 H 0.13588 0.6375 0.63608 0.0
H638 H 0.11185 0.59552 0.37637 0.0
H639 H 0.05895 0.59597 0.42225 0.0
C640 C 0.10892 0.06377 0.39442 0.0
C641 C 0.10954 0.03751 0.33871 0.0
C642 C 0.07546 1.01292 0.45495 0.0
C643 C 0.07603 0.03899 0.51347 0.0
N644 N 0.08561 0.0921 0.51866 0.0
N645 N 0.08787 0.98977 0.30496 0.0
C646 C 0.0904 0.06519 0.4765 0.0
C647 C 0.09096 1.01299 0.36589 0.0
N648 N 0.12738 0.08717 0.37159 0.0
N649 N 0.06113 0.98758 0.4848 0.0
H650 H 0.0988 0.98957 0.24048 0.0
H651 H 0.07262 0.97229 0.31357 0.0
H652 H 0.04678 0.9869 0.54174 0.0
H653 H 0.06385 0.96673 0.45389 0.0
H654 H 0.13166 0.10507 0.41597 0.0
H655 H 0.13982 0.0879 0.31001 0.0
H656 H 0.09222 0.11258 0.49014 0.0
H657 H 0.07216 0.09422 0.57742 0.0
C658 C 0.50034 0.08694 0.3626 0.0
C659 C 0.52347 0.10833 0.34563 0.0
C660 C 0.54788 0.09164 0.49434 0.0
C661 C 0.52246 0.07351 0.51788 0.0
N662 N 0.47439 0.05372 0.47235 0.0
N663 N 0.56996 0.13058 0.39526 0.0
C664 C 0.49886 0.0709 0.45061 0.0
C665 C 0.54766 0.11009 0.41105 0.0
N666 N 0.47978 0.08189 0.29358 0.0
N667 N 0.57238 0.09134 0.55198 0.0
H668 H 0.5715 0.14284 0.33317 0.0
H669 H 0.58621 0.13638 0.44426 0.0
H670 H 0.57299 0.07919 0.61412 0.0
H671 H 0.5929 0.10122 0.53553 0.0
H672 H 0.46378 0.06489 0.29589 0.0
H673 H 0.48057 0.09322 0.22966 0.0
H674 H 0.45479 0.05313 0.43265 0.0
H675 H 0.47319 0.04081 0.53323 0.0
C676 C 0.44344 0.49659 0.41089 0.0
C677 C 0.44627 0.52148 0.34838 0.0
C678 C 0.48383 0.54268 0.45819 0.0
C679 C 0.48295 0.51692 0.51781 0.0
N680 N 0.46846 0.46476 0.52548 0.0
N681 N 0.47948 0.56105 0.29905 0.0
C682 C 0.46492 0.4924 0.48575 0.0
C683 C 0.47023 0.54179 0.3673 0.0
N684 N 0.41951 0.47764 0.40342 0.0
N685 N 0.49445 0.56929 0.4902 0.0
H686 H 0.47031 0.56043 0.23195 0.0
H687 H 0.49825 0.57485 0.30695 0.0
H688 H 0.49904 0.57283 0.56029 0.0
H689 H 0.49366 0.58892 0.45034 0.0
H690 H 0.41485 0.46117 0.45325 0.0
H691 H 0.40299 0.47992 0.35238 0.0
H692 H 0.4577 0.44572 0.50003 0.0
H693 H 0.48491 0.46026 0.5757 0.0
C694 C 1.01583 0.43485 0.42826 0.0
C695 C 0.03441 0.44123 0.34964 0.0
C696 C 0.04831 0.48975 0.4251 0.0
C697 C 0.03342 0.4812 0.50925 0.0
N698 N 0.99964 0.44719 0.58651 0.0
N699 N 0.06636 0.47607 0.26953 0.0
C700 C 1.0159 0.45432 0.50871 0.0
C701 C 0.0496 0.46942 0.34672 0.0
N702 N 0.99819 0.4098 0.42563 0.0
N703 N 0.06121 0.5175 0.42036 0.0
H704 H 0.06619 0.46244 0.21054 0.0
H705 H 0.08065 0.49443 0.26381 0.0
H706 H 0.06079 0.53235 0.47631 0.0
H707 H 0.07049 0.52674 0.36014 0.0
H708 H 0.98275 0.40375 0.47672 0.0
H709 H 0.99755 0.39578 0.36768 0.0
H710 H 0.98897 0.42677 0.59783 0.0
H711 H 0.99683 0.46217 0.64118 0.0
C712 C 0.94095 0.04515 0.11212 0.0
C713 C 0.94321 1.01852 0.16777 0.0
C714 C 0.97903 0.99879 0.05023 0.0
C715 C 0.97819 1.02562 0.99642 0.0
N716 N 0.96254 0.07705 0.98999 0.0
N717 N 0.97271 0.97475 0.20157 0.0
C718 C 0.96058 0.04969 0.03246 0.0
C719 C 0.96523 0.99717 0.14077 0.0
N720 N 0.91888 0.06541 0.13127 0.0
N721 N 0.99032 0.97357 1.01128 0.0
H722 H 0.9633 0.97315 0.26816 0.0
H723 H 0.9905 0.96013 0.18939 0.0
H724 H 0.99969 0.97366 0.94474 0.0
H725 H 0.98781 0.95251 0.04188 0.0
H726 H 0.91358 0.08333 0.08735 0.0
H727 H 0.90449 0.06321 0.18819 0.0
H728 H 0.95257 0.09633 1.01633 0.0
H729 H 0.97681 0.08089 0.93344 0.0
C730 C 0.51273 0.9372 0.10459 0.0
C731 C 0.53153 0.94541 0.18103 0.0
C732 C 0.54146 0.99317 0.09689 0.0
C733 C 0.52958 0.98152 1.01208 0.0
N734 N 0.49918 0.94337 0.94114 0.0
N735 N 0.56371 0.98266 0.24929 0.0
C736 C 0.51373 0.95379 1.01812 0.0
C737 C 0.54574 0.97394 0.17719 0.0
N738 N 0.49306 0.91397 0.11611 0.0
N739 N 0.54614 1.02316 0.1034 0.0
H740 H 0.56642 0.96967 0.30955 0.0
H741 H 0.57705 1.00185 0.24649 0.0
H742 H 0.53765 0.03757 0.05235 0.0
H743 H 0.55325 0.03366 0.16435 0.0
H744 H 0.47673 0.90819 0.06725 0.0
H745 H 0.49103 0.90239 0.17933 0.0
H746 H 0.49089 0.92164 0.93525 0.0
H747 H 0.49569 0.95683 0.88269 0.0
C748 C 0.5892 0.5639 0.16788 0.0
C749 C 0.60715 0.53911 0.19465 0.0
C750 C 0.58707 0.51159 0.05639 0.0
C751 C 0.57286 0.53824 0.02172 0.0
N752 N 0.56337 0.5908 0.04412 0.0
N753 N 0.62315 0.48877 0.16457 0.0
C754 C 0.57453 0.56451 0.07827 0.0
C755 C 0.60557 0.51261 0.13955 0.0
N756 N 0.58625 0.58713 0.22867 0.0
N757 N 0.5836 0.4853 1.00922 0.0
H758 H 0.6353 0.4882 0.22699 0.0
H759 H 0.62676 0.47018 0.12257 0.0
H760 H 0.57239 0.48364 0.94573 0.0
H761 H 0.59021 0.46456 0.03564 0.0
H762 H 0.57111 0.60467 0.21892 0.0
H763 H 0.59679 0.58709 0.29387 0.0
H764 H 0.5667 0.61151 0.07558 0.0
H765 H 0.55239 0.59204 0.98028 0.0
C766 C 0.04401 0.59276 0.14178 0.0
C767 C 1.02821 0.62025 0.15629 0.0
C768 C 1.01011 0.6162 0.99238 0.0
C769 C 1.023 0.58685 0.98012 0.0
N770 N 0.04787 0.54556 0.05891 0.0
N771 N 0.9893 0.65293 0.09901 0.0
C772 C 0.03855 0.57467 0.0597 0.0
C773 C 1.00868 0.62982 0.08335 0.0
N774 N 0.06512 0.58409 0.20559 0.0
N775 N 1.002 0.63315 0.91666 0.0
H776 H 0.98793 0.66383 0.16293 0.0
H777 H 0.97244 0.65894 0.05179 0.0
H778 H 1.00768 0.62787 0.84849 0.0
H779 H 0.99451 0.65519 0.92207 0.0
H780 H 0.08009 0.56651 0.19477 0.0
H781 H 0.06896 0.59602 0.26658 0.0
H782 H 0.05608 0.53451 0.11798 0.0
H783 H 0.04488 0.53153 1.00213 0.0
C784 C 0.98677 0.20841 0.45157 0.0
C785 C 1.01518 0.20848 0.49631 0.0
C786 C 1.00824 0.15739 0.54902 0.0
C787 C 0.98014 0.15656 0.50137 0.0
N788 N 0.93945 0.18221 0.42433 0.0
N789 N 0.04953 0.18797 0.60708 0.0
C790 C 0.96811 0.1826 0.45886 0.0
C791 C 1.02425 0.18465 0.55374 0.0
N792 N 0.97965 0.23236 0.39646 0.0
N793 N 1.02035 0.13177 0.58507 0.0
H794 H 0.06057 0.20856 0.61261 0.0
H795 H 0.05883 0.17136 0.64881 0.0
H796 H 1.00961 0.11109 0.58319 0.0
H797 H 0.04185 0.13065 0.61278 0.0
H798 H 0.9607 0.23375 0.3537 0.0
H799 H 0.9607 0.23375 0.3537 0.0
H800 H 0.9282 0.20112 0.3998 0.0
H801 H 0.92597 0.16307 0.42647 0.0
C802 C 0.35449 0.9662 0.41279 0.0
C803 C 0.35037 0.99191 0.46904 0.0
C804 C 0.39215 0.97756 0.56709 0.0
C805 C 0.40014 0.95571 0.50042 0.0
N806 N 0.38944 0.92798 0.36115 0.0
N807 N 0.36653 1.02416 0.59252 0.0
C808 C 0.38113 0.94919 0.42429 0.0
C809 C 0.369 0.9978 0.54565 0.0
N810 N 0.33329 0.95871 0.34784 0.0
N811 N 0.40719 0.97953 0.64988 0.0
H812 H 0.34917 0.03955 0.58214 0.0
H813 H 0.38385 0.03184 0.6343 0.0
H814 H 0.42521 0.96577 0.668 0.0
H815 H 0.3993 0.99269 0.70418 0.0
H816 H 0.33397 0.93904 0.30923 0.0
H817 H 0.31361 0.97111 0.33817 0.0
H818 H 0.3783 0.92445 0.29819 0.0
H819 H 0.40845 0.91459 0.37089 0.0
C820 C 0.58551 0.36303 0.50404 0.0
C821 C 0.55674 0.36001 0.4635 0.0
C822 C 0.55936 0.41015 0.40249 0.0
C823 C 0.58544 0.41568 0.45666 0.0
N824 N 0.62112 0.39672 0.57351 0.0
N825 N 0.51271 0.38283 0.39625 0.0
C826 C 0.59828 0.39194 0.51131 0.0
C827 C 0.54212 0.38473 0.42279 0.0
N828 N 0.60063 0.33807 0.53394 0.0
N829 N 0.55146 0.42902 0.33115 0.0
H830 H 0.49983 0.36372 0.40961 0.0
H831 H 0.50079 0.40117 0.37003 0.0
H832 H 0.56491 0.44719 0.31159 0.0
H833 H 0.53345 0.42472 0.28644 0.0
H834 H 0.62331 0.33817 0.55223 0.0
H835 H 0.59054 0.31693 0.53587 0.0
H836 H 0.63065 0.37977 0.61418 0.0
H837 H 0.62825 0.41765 0.59521 0.0
C838 C 0.19293 0.56482 0.54813 0.0
C839 C 0.2134 0.57428 0.47893 0.0
C840 C 0.17877 0.61477 0.43362 0.0
C841 C 0.1576 0.60317 0.49708 0.0
N842 N 0.14141 0.56085 0.59027 0.0
N843 N 0.22123 0.60562 0.3393 0.0
C844 C 0.1638 0.57657 0.54778 0.0
C845 C 0.20548 0.59861 0.41782 0.0
N846 N 0.20016 0.5438 0.61378 0.0
N847 N 0.1726 0.64005 0.38294 0.0
H848 H 0.23944 0.59349 0.31412 0.0
H849 H 0.23944 0.59349 0.31412 0.0
H850 H 0.15282 0.65231 0.39141 0.0
H851 H 0.18772 0.64899 0.33453 0.0
H852 H 0.22158 0.53451 0.62152 0.0
H853 H 0.22158 0.53451 0.62152 0.0
H854 H 0.14499 0.53894 0.613 0.0
H855 H 0.11912 0.56793 0.59199 0.0
C856 C 0.07095 0.84813 0.98203 0.0
C857 C 0.03936 0.84762 1.00374 0.0
C858 C 0.04309 0.89772 0.05585 0.0
C859 C 0.07299 0.90142 0.02443 0.0
N860 N 0.11104 0.87967 0.9231 0.0
N861 N 0.9967 0.88058 0.99001 0.0
C862 C 0.08629 0.87641 0.9784 0.0
C863 C 1.0259 0.8757 1.01347 0.0
N864 N 0.08593 0.82299 0.95668 0.0
N865 N 1.03105 0.9149 0.12443 0.0
H866 H 0.98378 0.86377 0.9591 0.0
H867 H 0.98653 0.90138 0.99964 0.0
H868 H 0.04396 0.9304 0.16139 0.0
H869 H 1.00914 0.91126 0.14808 0.0
H870 H 0.10934 0.82155 0.96056 0.0
H871 H 0.07537 0.80629 0.91844 0.0
H872 H 0.11986 0.86209 0.88412 0.0
H873 H 0.12027 0.90033 0.90562 0.0
C874 C 0.70076 0.05268 0.1053 0.0
C875 C 0.72323 0.06447 0.04549 0.0
C876 C 0.6864 0.09639 0.96744 0.0
C877 C 0.66473 0.08678 0.03426 0.0
N878 N 0.65302 0.0617 0.17943 0.0
N879 N 0.73803 0.09274 0.91128 0.0
C880 C 0.6725 0.06665 0.10706 0.0
C881 C 0.71614 0.08505 0.97392 0.0
N882 N 0.70623 1.02796 0.15957 0.0
N883 N 0.67873 0.11664 0.89956 0.0
H884 H 0.75949 0.08327 0.91415 0.0
H885 H 0.73491 0.10682 0.85404 0.0
H886 H 0.6567 0.12272 0.88428 0.0
H887 H 0.6942 0.12794 0.85799 0.0
H888 H 0.68958 1.01699 0.19777 0.0
H889 H 0.72636 1.01617 0.15838 0.0
H890 H 0.65866 0.04945 0.23909 0.0
H891 H 0.63231 0.07258 0.18441 0.0
C892 C 0.50267 0.67768 0.13068 0.0
C893 C 0.49358 0.70048 0.06809 0.0
C894 C 0.46564 0.6644 0.97772 0.0
C895 C 0.46886 0.64353 0.05315 0.0
N896 N 0.48474 0.63416 0.21227 0.0
N897 N 0.46506 0.71691 0.93452 0.0
C898 C 0.48585 0.65125 0.13298 0.0
C899 C 0.47448 0.69434 0.99228 0.0
N900 N 0.52607 0.68203 0.19098 0.0
N901 N 0.45675 0.65544 0.89093 0.0
H902 H 0.47282 0.73888 0.94113 0.0
H903 H 0.44865 0.71386 0.88337 0.0
H904 H 0.45328 0.63311 0.8734 0.0
H905 H 0.45677 0.66981 0.83324 0.0
H906 H 0.53454 0.66496 0.23357 0.0
H907 H 0.53874 0.7017 0.19124 0.0
H908 H 0.49547 0.6402 0.27416 0.0
H909 H 0.47014 0.61599 0.21886 0.0
C910 C 0.86337 0.45948 0.03116 0.0
C911 C 0.85635 0.48278 0.09266 0.0
C912 C 0.90706 0.48298 0.15444 0.0
C913 C 0.91543 0.46285 0.08347 0.0
N914 N 0.90026 0.43269 0.94834 0.0
N915 N 0.87215 0.52124 0.20082 0.0
C916 C 0.89348 0.45101 0.02091 0.0
C917 C 0.87848 0.49612 0.15032 0.0
N918 N 0.84138 0.44621 0.97888 0.0
N919 N 0.92668 0.48948 0.22511 0.0
H920 H 0.8512 0.53165 0.19987 0.0
H921 H 0.8885 0.53332 0.23676 0.0
H922 H 0.9478 0.47938 0.23028 0.0
H923 H 0.92086 0.5023 0.28287 0.0
H924 H 0.84585 0.42868 0.93306 0.0
H925 H 0.81892 0.45297 0.98097 0.0
H926 H 0.92181 0.42594 0.92966 0.0
H927 H 0.92181 0.42594 0.92966 0.0
C928 C 1.00283 0.17497 0.80982 0.0
C929 C 1.02949 0.19056 0.83563 0.0
C930 C 0.05734 0.14245 0.81439 0.0
C931 C 1.02997 0.12601 0.80066 0.0
N932 N 0.97562 0.12889 0.78692 0.0
N933 N 0.08241 0.18769 0.86901 0.0
C934 C 1.00261 0.143 0.79815 0.0
C935 C 0.05676 0.17376 0.83955 0.0
N936 N 0.97656 0.19016 0.79835 0.0
N937 N 0.08422 0.12893 0.79581 0.0
H938 H 0.08349 0.21069 0.88112 0.0
H939 H 0.10205 0.17625 0.88642 0.0
H940 H 0.08591 0.10737 0.76913 0.0
H941 H 0.10469 0.14026 0.79528 0.0
H942 H 0.97477 0.21341 0.80355 0.0
H943 H 0.97477 0.21341 0.80355 0.0
H944 H 0.95527 0.14051 0.78474 0.0
H945 H 0.97318 0.10575 0.78425 0.0
C946 C 0.38389 1.02001 0.88863 0.0
C947 C 0.36685 0.04456 0.85152 0.0
C948 C 0.4129 0.06013 0.76205 0.0
C949 C 0.43024 0.03669 0.80358 0.0
N950 N 0.43276 0.99616 0.91438 0.0
N951 N 0.365 0.08678 0.7468 0.0
C952 C 0.41569 1.01702 0.86836 0.0
C953 C 0.38156 0.06425 0.78664 0.0
N954 N 0.36973 0.99935 0.94389 0.0
N955 N 0.42616 0.07765 0.69512 0.0
H956 H 0.34171 0.08817 0.75443 0.0
H957 H 0.37382 0.10413 0.70667 0.0
H958 H 0.44834 0.0746 0.67387 0.0
H959 H 0.41523 0.09408 0.65624 0.0
H960 H 0.37932 0.97912 0.96462 0.0
H961 H 0.34736 1.00121 0.96391 0.0
H962 H 0.4252 0.9833 0.9704 0.0
H963 H 0.45553 0.99301 0.90048 0.0
C964 C 0.55024 0.37892 0.78239 0.0
C965 C 0.52895 0.36449 0.84194 0.0
C966 C 0.50279 0.41413 0.84536 0.0
C967 C 0.5278 0.42968 0.80321 0.0
N968 N 0.57977 0.42374 0.756 0.0
N969 N 0.48687 0.37263 0.94491 0.0
C970 C 0.55272 0.41115 0.77798 0.0
C971 C 0.50567 0.3833 0.8774 0.0
N972 N 0.56865 0.36159 0.72968 0.0
N973 N 0.47553 0.42796 0.85132 0.0
H974 H 0.48853 0.35106 0.9724 0.0
H975 H 0.4716 0.3863 0.97969 0.0
H976 H 0.47108 0.44863 0.82016 0.0
H977 H 0.4563 0.41697 0.87515 0.0
H978 H 0.58499 0.3706 0.68683 0.0
H979 H 0.56575 0.33847 0.72361 0.0
H980 H 0.59923 0.41106 0.74788 0.0
H981 H 0.58409 0.44655 0.76016 0.0
C982 C 0.17544 0.55767 0.84032 0.0
C983 C 0.19197 0.53026 0.83663 0.0
C984 C 0.14557 0.50599 0.77365 0.0
C985 C 0.12837 0.53281 0.78612 0.0
N986 N 0.12866 0.58507 0.82844 0.0
N987 N 0.19193 0.47782 0.80084 0.0
C988 C 0.14394 0.55882 0.8176 0.0
C989 C 0.17671 0.50439 0.80279 0.0
N990 N 0.18903 0.5834 0.86839 0.0
N991 N 0.13256 0.48244 0.72838 0.0
H992 H 0.21491 0.4763 0.81506 0.0
H993 H 0.18178 0.45717 0.78928 0.0
H994 H 0.1106 0.48313 0.70313 0.0
H995 H 0.14414 0.4634 0.70752 0.0
H996 H 0.2118 0.58493 0.88557 0.0
H997 H 0.2118 0.58493 0.88557 0.0
H998 H 0.13908 0.60468 0.85119 0.0
H999 H 0.10567 0.58718 0.81585 0.0
C1000 C 1.00595 0.87949 0.74588 0.0
C1001 C 1.03116 0.86564 0.70179 0.0
C1002 C 0.05562 0.91612 0.69451 0.0
C1003 C 1.03029 0.93011 0.73768 0.0
N1004 N 0.98214 0.9241 0.81145 0.0
N1005 N 0.08226 0.87065 0.64963 0.0
C1006 C 1.00574 0.91136 0.76543 0.0
C1007 C 0.0567 0.88397 0.68179 0.0
N1008 N 0.9818 0.86186 0.76779 0.0
N1009 N 0.07788 0.93386 0.65843 0.0
H1010 H 0.08362 0.84786 0.63525 0.0
H1011 H 0.10289 0.88153 0.64452 0.0
H1012 H 0.07814 0.95709 0.66479 0.0
H1013 H 0.09487 0.92604 0.6151 0.0
H1014 H 0.96118 0.8698 0.79089 0.0
H1015 H 0.98238 0.83857 0.76195 0.0
H1016 H 0.96426 0.91231 0.84037 0.0
H1017 H 0.98076 0.94698 0.82411 0.0
C1018 C 0.67747 0.04406 0.70901 0.0
C1019 C 0.69086 1.01674 0.67881 0.0
C1020 C 0.64177 0.99206 0.71474 0.0
C1021 C 0.62689 1.02024 0.72789 0.0
N1022 N 0.6324 0.07431 0.7235 0.0
N1023 N 0.6827 0.96481 0.64122 0.0
C1024 C 0.64534 0.04657 0.7219 0.0
C1025 C 0.67218 0.99074 0.67907 0.0
N1026 N 0.69581 0.06793 0.72619 0.0
N1027 N 0.62749 0.96623 0.74045 0.0
H1028 H 0.70423 0.96281 0.61345 0.0
H1029 H 0.66911 0.94617 0.6298 0.0
H1030 H 0.60658 0.96606 0.77313 0.0
H1031 H 0.63802 0.94538 0.74058 0.0
H1032 H 0.68815 0.08846 0.74959 0.0
H1033 H 0.71921 0.06635 0.72462 0.0
H1034 H 0.64401 0.09395 0.70782 0.0
H1035 H 0.60952 0.07798 0.73089 0.0
C1036 C 0.53182 0.68138 0.77191 0.0
C1037 C 0.53497 0.69192 0.67851 0.0
C1038 C 0.53921 0.63871 0.62748 0.0
C1039 C 0.53321 0.62742 0.72042 0.0
N1040 N 0.52603 0.63983 0.88242 0.0
N1041 N 0.55058 0.68079 0.5231 0.0
C1042 C 0.53037 0.64943 0.79293 0.0
C1043 C 0.54124 0.67051 0.6084 0.0
N1044 N 0.53086 0.70234 0.84087 0.0
N1045 N 0.54159 0.61923 0.55469 0.0
H1046 H 0.5528 0.70355 0.5078 0.0
H1047 H 0.5593 0.66725 0.47089 0.0
H1048 H 0.54304 0.59619 0.56179 0.0
H1049 H 0.54033 0.6257 0.48488 0.0
H1050 H 0.53163 0.69754 0.91173 0.0
H1051 H 0.53177 0.72528 0.82659 0.0
H1052 H 0.52639 0.65342 0.94087 0.0
H1053 H 0.521 0.61779 0.89901 0.0
C1054 C 0.88412 0.55519 0.64019 0.0
C1055 C 0.86513 0.53348 0.68427 0.0
C1056 C 0.91187 0.51179 0.75464 0.0
C1057 C 0.93049 0.53544 0.71995 0.0
N1058 N 0.9287 0.58603 0.65706 0.0
N1059 N 0.86253 0.4988 0.81346 0.0
C1060 C 0.91493 0.55906 0.67094 0.0
C1061 C 0.87958 0.51438 0.75106 0.0
N1062 N 0.87377 0.57138 0.56577 0.0
N1063 N 0.92426 0.48561 0.7856 0.0
H1064 H 0.83924 0.50138 0.81787 0.0
H1065 H 0.87224 0.48639 0.86716 0.0
H1066 H 0.94711 0.48089 0.78286 0.0
H1067 H 0.91109 0.46694 0.80112 0.0
H1068 H 0.88768 0.58543 0.52658 0.0
H1069 H 0.8525 0.56837 0.53696 0.0
H1070 H 0.91757 0.60438 0.6277 0.0
H1071 H 0.94932 0.59144 0.6872 0.0
loop_
_geom_bond_atom_site_label_1
_geom_bond_atom_site_label_2
_geom_bond_distance
_geom_bond_site_symmetry_2
_ccdc_geom_bond_type
C0 C1 1.391 . S
C0 C4 1.391 . S
C0 H42 0.948 . S
C1 C0 1.391 . S
C1 C2 1.391 . S
C2 C1 1.391 . S
C2 H58 0.947 . S
C2 C59 1.392 . S
C3 C4 1.391 . S
C3 C7 1.397 . S
C3 C59 1.419 . S
C4 C0 1.391 . S
C4 C3 1.391 . S
C4 C5 1.399 . S
C5 C4 1.399 . S
C5 C8 1.396 . S
C5 C17 1.453 . S
C5 C18 1.684 . S
H6 C30 0.948 . S
C7 C3 1.397 . S
C7 C8 1.394 . S
C7 C26 1.723 . S
C8 C5 1.396 . S
C8 C7 1.394 . S
C8 C38 1.723 . S
H9 C32 0.947 . S
H10 C33 0.948 . S
H11 C39 0.982 . S
H12 C40 0.979 . S
H13 C40 0.980 . S
H14 C40 0.983 . S
H15 C39 0.979 . S
H16 C39 0.977 . S
C17 C5 1.453 . S
C17 H46 0.982 . S
C17 H47 0.979 . S
C17 H48 0.977 . S
C18 C5 1.684 . S
C18 H43 0.979 . S
C18 H44 0.980 . S
C18 H45 0.983 . S
C19 C20 1.391 . S
C19 C24 1.391 . S
C19 H49 0.948 . S
C20 C19 1.391 . S
C20 C21 1.391 . S
C21 C20 1.391 . S
C21 C22 1.392 . S
C21 H50 0.947 . S
C22 C21 1.392 . S
C22 C23 1.419 . S
C22 H51 0.948 . S
C23 C22 1.419 . S
C23 C24 1.391 . S
C23 C27 1.397 . S
C24 C19 1.391 . S
C24 C23 1.391 . S
C24 C25 1.399 . S
C25 C24 1.399 . S
C25 C26 1.396 . S
C25 C28 1.453 . S
C25 C29 1.684 . S
C26 C7 1.723 . S
C26 C25 1.396 . S
C26 C27 1.394 . S
C27 C23 1.397 . S
C27 C26 1.394 . S
C27 C37 1.723 . S
C28 C25 1.453 . S
C28 H52 0.982 . S
C28 H53 0.979 . S
C28 H54 0.977 . S
C29 C25 1.684 . S
C29 H55 0.979 . S
C29 H56 0.980 . S
C29 H57 0.983 . S
C30 H6 0.948 . S
C30 C31 1.391 . S
C30 C35 1.391 . S
C31 C30 1.391 . S
C31 C32 1.391 . S
C32 H9 0.947 . S
C32 C31 1.391 . S
C32 C33 1.392 . S
C33 H10 0.948 . S
C33 C32 1.392 . S
C33 C34 1.419 . S
C34 C33 1.419 . S
C34 C35 1.391 . S
C34 C38 1.397 . S
C35 C30 1.391 . S
C35 C34 1.391 . S
C35 C36 1.399 . S
C36 C35 1.399 . S
C36 C37 1.396 . S
C36 C39 1.453 . S
C36 C40 1.684 . S
C37 C27 1.723 . S
C37 C36 1.396 . S
C37 C38 1.394 . S
C38 C8 1.723 . S
C38 C34 1.397 . S
C38 C37 1.394 . S
C39 H11 0.982 . S
C39 H15 0.979 . S
C39 H16 0.977 . S
C39 C36 1.453 . S
C40 H12 0.979 . S
C40 H13 0.980 . S
C40 H14 0.983 . S
C40 C36 1.684 . S
H41 C59 0.948 . S
H42 C0 0.948 . S
H43 C18 0.979 . S
H44 C18 0.980 . S
H45 C18 0.983 . S
H46 C17 0.982 . S
H47 C17 0.979 . S
H48 C17 0.977 . S
H49 C19 0.948 . S
H50 C21 0.947 . S
H51 C22 0.948 . S
H52 C28 0.982 . S
H53 C28 0.979 . S
H54 C28 0.977 . S
H55 C29 0.979 . S
H56 C29 0.980 . S
H57 C29 0.983 . S
H58 C2 0.947 . S
C59 C2 1.392 . S
C59 C3 1.419 . S
C59 H41 0.948 . S
C60 C61 1.391 . S
C60 C64 1.391 . S
C60 H102 0.948 . S
C61 C60 1.391 . S
C61 C62 1.391 . S
C62 C61 1.391 . S
C62 H118 0.947 . S
C62 C119 1.392 . S
C63 C64 1.391 . S
C63 C67 1.397 1_655 S
C63 C119 1.419 . S
C64 C60 1.391 . S
C64 C63 1.391 . S
C64 C65 1.399 . S
C65 C64 1.399 . S
C65 C68 1.396 1_655 S
C65 C77 1.453 1_655 S
C65 C78 1.684 . S
H66 C90 0.948 . S
C67 C63 1.397 1_455 S
C67 C68 1.394 . S
C67 C86 1.723 . S
C68 C65 1.396 1_455 S
C68 C67 1.394 . S
C68 C98 1.723 . S
H69 C92 0.947 . S
H70 C93 0.948 . S
H71 C99 0.982 . S
H72 C100 0.979 . S
H73 C100 0.980 . S
H74 C100 0.983 . S
H75 C99 0.979 . S
H76 C99 0.977 . S
C77 C65 1.453 1_455 S
C77 H106 0.982 . S
C77 H107 0.979 . S
C77 H108 0.977 . S
C78 C65 1.684 . S
C78 H103 0.979 . S
C78 H104 0.980 . S
C78 H105 0.983 . S
C79 C80 1.391 . S
C79 C84 1.391 . S
C79 H109 0.948 . S
C80 C79 1.391 . S
C80 C81 1.391 . S
C81 C80 1.391 . S
C81 C82 1.392 . S
C81 H110 0.947 . S
C82 C81 1.392 . S
C82 C83 1.419 . S
C82 H111 0.948 . S
C83 C82 1.419 . S
C83 C84 1.391 . S
C83 C87 1.397 1_655 S
C84 C79 1.391 . S
C84 C83 1.391 . S
C84 C85 1.399 . S
C85 C84 1.399 . S
C85 C86 1.396 1_655 S
C85 C88 1.453 1_655 S
C85 C89 1.684 . S
C86 C67 1.723 . S
C86 C85 1.396 1_455 S
C86 C87 1.394 . S
C87 C83 1.397 1_455 S
C87 C86 1.394 . S
C87 C97 1.723 . S
C88 C85 1.453 1_455 S
C88 H112 0.982 . S
C88 H113 0.979 . S
C88 H114 0.977 . S
C89 C85 1.684 . S
C89 H115 0.979 . S
C89 H116 0.980 . S
C89 H117 0.983 . S
C90 H66 0.948 . S
C90 C91 1.391 . S
C90 C95 1.391 . S
C91 C90 1.391 . S
C91 C92 1.391 . S
C92 H69 0.947 . S
C92 C91 1.391 . S
C92 C93 1.392 . S
C93 H70 0.948 . S
C93 C92 1.392 . S
C93 C94 1.419 . S
C94 C93 1.419 . S
C94 C95 1.391 . S
C94 C98 1.397 1_655 S
C95 C90 1.391 . S
C95 C94 1.391 . S
C95 C96 1.399 . S
C96 C95 1.399 . S
C96 C97 1.396 1_655 S
C96 C99 1.453 1_655 S
C96 C100 1.684 . S
C97 C87 1.723 . S
C97 C96 1.396 1_455 S
C97 C98 1.394 . S
C98 C68 1.723 . S
C98 C94 1.397 1_455 S
C98 C97 1.394 . S
C99 H71 0.982 . S
C99 H75 0.979 . S
C99 H76 0.977 . S
C99 C96 1.453 1_455 S
C100 H72 0.979 . S
C100 H73 0.980 . S
C100 H74 0.983 . S
C100 C96 1.684 . S
H101 C119 0.948 . S
H102 C60 0.948 . S
H103 C78 0.979 . S
H104 C78 0.980 . S
H105 C78 0.983 . S
H106 C77 0.982 . S
H107 C77 0.979 . S
H108 C77 0.977 . S
H109 C79 0.948 . S
H110 C81 0.947 . S
H111 C82 0.948 . S
H112 C88 0.982 . S
H113 C88 0.979 . S
H114 C88 0.977 . S
H115 C89 0.979 . S
H116 C89 0.980 . S
H117 C89 0.983 . S
H118 C62 0.947 . S
C119 C62 1.392 . S
C119 C63 1.419 . S
C119 H101 0.948 . S
C120 C121 1.391 . S
C120 C124 1.391 . S
C120 H162 0.948 . S
C121 C120 1.391 . S
C121 C122 1.391 . S
C122 C121 1.391 . S
C122 H178 0.947 . S
C122 C179 1.392 . S
C123 C124 1.391 . S
C123 C127 1.397 1_565 S
C123 C179 1.419 . S
C124 C120 1.391 . S
C124 C123 1.391 . S
C124 C125 1.399 . S
C125 C124 1.399 . S
C125 C128 1.396 1_565 S
C125 C137 1.453 1_565 S
C125 C138 1.684 . S
H126 C150 0.948 . S
C127 C123 1.397 1_545 S
C127 C128 1.394 . S
C127 C146 1.723 . S
C128 C125 1.396 1_545 S
C128 C127 1.394 . S
C128 C158 1.723 . S
H129 C152 0.947 . S
H130 C153 0.948 . S
H131 C159 0.982 . S
H132 C160 0.979 . S
H133 C160 0.980 . S
H134 C160 0.983 . S
H135 C159 0.979 . S
H136 C159 0.977 . S
C137 C125 1.453 1_545 S
C137 H166 0.982 . S
C137 H167 0.979 . S
C137 H168 0.977 . S
C138 C125 1.684 . S
C138 H163 0.979 . S
C138 H164 0.980 . S
C138 H165 0.983 . S
C139 C140 1.391 . S
C139 C144 1.391 . S
C139 H169 0.948 . S
C140 C139 1.391 . S
C140 C141 1.391 . S
C141 C140 1.391 . S
C141 C142 1.392 . S
C141 H170 0.947 . S
C142 C141 1.392 . S
C142 C143 1.419 . S
C142 H171 0.948 . S
C143 C142 1.419 . S
C143 C144 1.391 . S
C143 C147 1.397 1_565 S
C144 C139 1.391 . S
C144 C143 1.391 . S
C144 C145 1.399 . S
C145 C144 1.399 . S
C145 C146 1.396 1_565 S
C145 C148 1.453 1_565 S
C145 C149 1.684 . S
C146 C127 1.723 . S
C146 C145 1.396 1_545 S
C146 C147 1.394 . S
C147 C143 1.397 1_545 S
C147 C146 1.394 . S
C147 C157 1.723 . S
C148 C145 1.453 1_545 S
C148 H172 0.982 . S
C148 H173 0.979 . S
C148 H174 0.977 . S
C149 C145 1.684 . S
C149 H175 0.979 . S
C149 H176 0.980 . S
C149 H177 0.983 . S
C150 H126 0.948 . S
C150 C151 1.391 . S
C150 C155 1.391 . S
C151 C150 1.391 . S
C151 C152 1.391 . S
C152 H129 0.947 . S
C152 C151 1.391 . S
C152 C153 1.392 . S
C153 H130 0.948 . S
C153 C152 1.392 . S
C153 C154 1.419 . S
C154 C153 1.419 . S
C154 C155 1.391 . S
C154 C158 1.397 1_565 S
C155 C150 1.391 . S
C155 C154 1.391 . S
C155 C156 1.399 . S
C156 C155 1.399 . S
C156 C157 1.396 1_565 S
C156 C159 1.453 1_565 S
C156 C160 1.684 . S
C157 C147 1.723 . S
C157 C156 1.396 1_545 S
C157 C158 1.394 . S
C158 C128 1.723 . S
C158 C154 1.397 1_545 S
C158 C157 1.394 . S
C159 H131 0.982 . S
C159 H135 0.979 . S
C159 H136 0.977 . S
C159 C156 1.453 1_545 S
C160 H132 0.979 . S
C160 H133 0.980 . S
C160 H134 0.983 . S
C160 C156 1.684 . S
H161 C179 0.948 . S
H162 C120 0.948 . S
H163 C138 0.979 . S
H164 C138 0.980 . S
H165 C138 0.983 . S
H166 C137 0.982 . S
H167 C137 0.979 . S
H168 C137 0.977 . S
H169 C139 0.948 . S
H170 C141 0.947 . S
H171 C142 0.948 . S
H172 C148 0.982 . S
H173 C148 0.979 . S
H174 C148 0.977 . S
H175 C149 0.979 . S
H176 C149 0.980 . S
H177 C149 0.983 . S
H178 C122 0.947 . S
C179 C122 1.392 . S
C179 C123 1.419 . S
C179 H161 0.948 . S
C180 C181 1.391 . S
C180 C184 1.391 . S
C180 H222 0.948 . S
C181 C180 1.391 . S
C181 C182 1.391 . S
C182 C181 1.391 . S
C182 H238 0.947 . S
C182 C239 1.392 . S
C183 C184 1.391 . S
C183 C187 1.397 . S
C183 C239 1.419 . S
C184 C180 1.391 . S
C184 C183 1.391 . S
C184 C185 1.399 . S
C185 C184 1.399 . S
C185 C188 1.396 . S
C185 C197 1.453 . S
C185 C198 1.684 . S
H186 C210 0.948 . S
C187 C183 1.397 . S
C187 C188 1.394 . S
C187 C206 1.723 . S
C188 C185 1.396 . S
C188 C187 1.394 . S
C188 C218 1.723 . S
H189 C212 0.947 . S
H190 C213 0.948 . S
H191 C219 0.982 . S
H192 C220 0.979 . S
H193 C220 0.980 . S
H194 C220 0.983 . S
H195 C219 0.979 . S
H196 C219 0.977 . S
C197 C185 1.453 . S
C197 H226 0.982 . S
C197 H227 0.979 . S
C197 H228 0.977 . S
C198 C185 1.684 . S
C198 H223 0.979 . S
C198 H224 0.980 . S
C198 H225 0.983 . S
C199 C200 1.391 . S
C199 C204 1.391 . S
C199 H229 0.948 . S
C200 C199 1.391 . S
C200 C201 1.391 . S
C201 C200 1.391 . S
C201 C202 1.392 . S
C201 H230 0.947 . S
C202 C201 1.392 . S
C202 C203 1.419 . S
C202 H231 0.948 . S
C203 C202 1.419 . S
C203 C204 1.391 . S
C203 C207 1.397 . S
C204 C199 1.391 . S
C204 C203 1.391 . S
C204 C205 1.399 . S
C205 C204 1.399 . S
C205 C206 1.396 . S
C205 C208 1.453 . S
C205 C209 1.684 . S
C206 C187 1.723 . S
C206 C205 1.396 . S
C206 C207 1.394 . S
C207 C203 1.397 . S
C207 C206 1.394 . S
C207 C217 1.723 . S
C208 C205 1.453 . S
C208 H232 0.982 . S
C208 H233 0.979 . S
C208 H234 0.977 . S
C209 C205 1.684 . S
C209 H235 0.979 . S
C209 H236 0.980 . S
C209 H237 0.983 . S
C210 H186 0.948 . S
C210 C211 1.391 . S
C210 C215 1.391 . S
C211 C210 1.391 . S
C211 C212 1.391 . S
C212 H189 0.947 . S
C212 C211 1.391 . S
C212 C213 1.392 . S
C213 H190 0.948 . S
C213 C212 1.392 . S
C213 C214 1.419 . S
C214 C213 1.419 . S
C214 C215 1.391 . S
C214 C218 1.397 . S
C215 C210 1.391 . S
C215 C214 1.391 . S
C215 C216 1.399 . S
C216 C215 1.399 . S
C216 C217 1.396 . S
C216 C219 1.453 . S
C216 C220 1.684 . S
C217 C207 1.723 . S
C217 C216 1.396 . S
C217 C218 1.394 . S
C218 C188 1.723 . S
C218 C214 1.397 . S
C218 C217 1.394 . S
C219 H191 0.982 . S
C219 H195 0.979 . S
C219 H196 0.977 . S
C219 C216 1.453 . S
C220 H192 0.979 . S
C220 H193 0.980 . S
C220 H194 0.983 . S
C220 C216 1.684 . S
H221 C239 0.948 . S
H222 C180 0.948 . S
H223 C198 0.979 . S
H224 C198 0.980 . S
H225 C198 0.983 . S
H226 C197 0.982 . S
H227 C197 0.979 . S
H228 C197 0.977 . S
H229 C199 0.948 . S
H230 C201 0.947 . S
H231 C202 0.948 . S
H232 C208 0.982 . S
H233 C208 0.979 . S
H234 C208 0.977 . S
H235 C209 0.979 . S
H236 C209 0.980 . S
H237 C209 0.983 . S
H238 C182 0.947 . S
C239 C182 1.392 . S
C239 C183 1.419 . S
C239 H221 0.948 . S
C240 C241 1.391 . S
C240 C244 1.391 . S
C240 H282 0.948 . S
C241 C240 1.391 . S
C241 C242 1.391 . S
C242 C241 1.391 . S
C242 H298 0.947 . S
C242 C299 1.392 . S
C243 C244 1.391 . S
C243 C247 1.397 . S
C243 C299 1.419 . S
C244 C240 1.391 . S
C244 C243 1.391 . S
C244 C245 1.399 1_554 S
C245 C244 1.399 1_556 S
C245 C248 1.396 . S
C245 C257 1.453 . S
C245 C258 1.684 . S
H246 C270 0.948 . S
C247 C243 1.397 . S
C247 C248 1.394 1_554 S
C247 C266 1.723 . S
C248 C245 1.396 . S
C248 C247 1.394 1_556 S
C248 C278 1.723 . S
H249 C272 0.947 . S
H250 C273 0.948 . S
H251 C279 0.982 . S
H252 C280 0.979 . S
H253 C280 0.980 1_554 S
H254 C280 0.983 . S
H255 C279 0.979 . S
H256 C279 0.977 1_554 S
C257 C245 1.453 . S
C257 H286 0.982 . S
C257 H287 0.979 . S
C257 H288 0.977 . S
C258 C245 1.684 . S
C258 H283 0.979 . S
C258 H284 0.980 . S
C258 H285 0.983 . S
C259 C260 1.391 . S
C259 C264 1.391 . S
C259 H289 0.948 . S
C260 C259 1.391 . S
C260 C261 1.391 . S
C261 C260 1.391 . S
C261 C262 1.392 . S
C261 H290 0.947 . S
C262 C261 1.392 . S
C262 C263 1.419 . S
C262 H291 0.948 . S
C263 C262 1.419 . S
C263 C264 1.391 . S
C263 C267 1.397 . S
C264 C259 1.391 . S
C264 C263 1.391 . S
C264 C265 1.399 . S
C265 C264 1.399 . S
C265 C266 1.396 . S
C265 C268 1.453 . S
C265 C269 1.684 . S
C266 C247 1.723 . S
C266 C265 1.396 . S
C266 C267 1.394 . S
C267 C263 1.397 . S
C267 C266 1.394 . S
C267 C277 1.723 1_554 S
C268 C265 1.453 . S
C268 H292 0.982 . S
C268 H293 0.979 . S
C268 H294 0.977 . S
C269 C265 1.684 . S
C269 H295 0.979 . S
C269 H296 0.980 . S
C269 H297 0.983 . S
C270 H246 0.948 . S
C270 C271 1.391 . S
C270 C275 1.391 . S
C271 C270 1.391 . S
C271 C272 1.391 . S
C272 H249 0.947 . S
C272 C271 1.391 . S
C272 C273 1.392 . S
C273 H250 0.948 . S
C273 C272 1.392 . S
C273 C274 1.419 . S
C274 C273 1.419 . S
C274 C275 1.391 . S
C274 C278 1.397 . S
C275 C270 1.391 . S
C275 C274 1.391 . S
C275 C276 1.399 . S
C276 C275 1.399 . S
C276 C277 1.396 . S
C276 C279 1.453 . S
C276 C280 1.684 . S
C277 C267 1.723 1_556 S
C277 C276 1.396 . S
C277 C278 1.394 . S
C278 C248 1.723 . S
C278 C274 1.397 . S
C278 C277 1.394 . S
C279 H251 0.982 . S
C279 H255 0.979 . S
C279 H256 0.977 1_556 S
C279 C276 1.453 . S
C280 H252 0.979 . S
C280 H253 0.980 1_556 S
C280 H254 0.983 . S
C280 C276 1.684 . S
H281 C299 0.948 . S
H282 C240 0.948 . S
H283 C258 0.979 . S
H284 C258 0.980 . S
H285 C258 0.983 . S
H286 C257 0.982 . S
H287 C257 0.979 . S
H288 C257 0.977 . S
H289 C259 0.948 . S
H290 C261 0.947 . S
H291 C262 0.948 . S
H292 C268 0.982 . S
H293 C268 0.979 . S
H294 C268 0.977 . S
H295 C269 0.979 . S
H296 C269 0.980 . S
H297 C269 0.983 . S
H298 C242 0.947 . S
C299 C242 1.392 . S
C299 C243 1.419 . S
C299 H281 0.948 . S
C300 C301 1.391 . S
C300 C304 1.391 . S
C300 H342 0.948 . S
C301 C300 1.391 . S
C301 C302 1.391 . S
C302 C301 1.391 . S
C302 H358 0.947 . S
C302 C359 1.392 . S
C303 C304 1.391 . S
C303 C307 1.396 1_655 S
C303 C359 1.419 . S
C304 C300 1.391 . S
C304 C303 1.391 . S
C304 C305 1.399 . S
C305 C304 1.399 . S
C305 C308 1.396 1_655 S
C305 C317 1.453 1_655 S
C305 C318 1.684 . S
H306 C330 0.948 . S
C307 C303 1.396 1_455 S
C307 C308 1.395 . S
C307 C326 1.723 . S
C308 C305 1.396 1_455 S
C308 C307 1.395 . S
C308 C338 1.723 . S
H309 C332 0.947 . S
H310 C333 0.948 . S
H311 C339 0.982 . S
H312 C340 0.979 . S
H313 C340 0.980 . S
H314 C340 0.983 . S
H315 C339 0.979 . S
H316 C339 0.977 . S
C317 C305 1.453 1_455 S
C317 H346 0.982 . S
C317 H347 0.979 . S
C317 H348 0.977 . S
C318 C305 1.684 . S
C318 H343 0.979 . S
C318 H344 0.980 . S
C318 H345 0.983 . S
C319 C320 1.391 . S
C319 C324 1.391 . S
C319 H349 0.948 . S
C320 C319 1.391 . S
C320 C321 1.391 . S
C321 C320 1.391 . S
C321 C322 1.392 . S
C321 H350 0.947 . S
C322 C321 1.392 . S
C322 C323 1.419 . S
C322 H351 0.948 . S
C323 C322 1.419 . S
C323 C324 1.391 . S
C323 C327 1.396 1_655 S
C324 C319 1.391 . S
C324 C323 1.391 . S
C324 C325 1.399 . S
C325 C324 1.399 . S
C325 C326 1.396 1_656 S
C325 C328 1.453 1_655 S
C325 C329 1.684 . S
C326 C307 1.723 . S
C326 C325 1.396 1_454 S
C326 C327 1.395 1_554 S
C327 C323 1.396 1_455 S
C327 C326 1.395 1_556 S
C327 C337 1.723 1_556 S
C328 C325 1.453 1_455 S
C328 H352 0.982 . S
C328 H353 0.979 . S
C328 H354 0.977 1_556 S
C329 C325 1.684 . S
C329 H355 0.979 . S
C329 H356 0.980 1_556 S
C329 H357 0.983 . S
C330 H306 0.948 . S
C330 C331 1.391 . S
C330 C335 1.391 . S
C331 C330 1.391 . S
C331 C332 1.391 . S
C332 H309 0.947 . S
C332 C331 1.391 . S
C332 C333 1.392 . S
C333 H310 0.948 . S
C333 C332 1.392 . S
C333 C334 1.419 . S
C334 C333 1.419 . S
C334 C335 1.391 . S
C334 C338 1.396 1_655 S
C335 C330 1.391 . S
C335 C334 1.391 . S
C335 C336 1.399 1_554 S
C336 C335 1.399 1_556 S
C336 C337 1.396 1_656 S
C336 C339 1.453 1_655 S
C336 C340 1.684 . S
C337 C327 1.723 1_554 S
C337 C336 1.396 1_454 S
C337 C338 1.395 . S
C338 C308 1.723 . S
C338 C334 1.396 1_455 S
C338 C337 1.395 . S
C339 H311 0.982 . S
C339 H315 0.979 . S
C339 H316 0.977 . S
C339 C336 1.453 1_455 S
C340 H312 0.979 . S
C340 H313 0.980 . S
C340 H314 0.983 . S
C340 C336 1.684 . S
H341 C359 0.948 . S
H342 C300 0.948 . S
H343 C318 0.979 . S
H344 C318 0.980 . S
H345 C318 0.983 . S
H346 C317 0.982 . S
H347 C317 0.979 . S
H348 C317 0.977 . S
H349 C319 0.948 . S
H350 C321 0.947 . S
H351 C322 0.948 . S
H352 C328 0.982 . S
H353 C328 0.979 . S
H354 C328 0.977 1_554 S
H355 C329 0.979 . S
H356 C329 0.980 1_554 S
H357 C329 0.983 . S
H358 C302 0.947 . S
C359 C302 1.392 . S
C359 C303 1.419 . S
C359 H341 0.948 . S
C360 C361 1.391 . S
C360 C364 1.391 . S
C360 H402 0.948 . S
C361 C360 1.391 . S
C361 C362 1.391 . S
C362 C361 1.391 . S
C362 H418 0.947 . S
C362 C419 1.392 . S
C363 C364 1.391 . S
C363 C367 1.397 1_545 S
C363 C419 1.419 . S
C364 C360 1.391 . S
C364 C363 1.391 . S
C364 C365 1.399 . S
C365 C364 1.399 . S
C365 C368 1.396 1_545 S
C365 C377 1.453 1_545 S
C365 C378 1.684 . S
H366 C390 0.948 . S
C367 C363 1.397 1_565 S
C367 C368 1.394 . S
C367 C386 1.723 1_556 S
C368 C365 1.396 1_565 S
C368 C367 1.394 . S
C368 C398 1.723 1_556 S
H369 C392 0.947 1_556 S
H370 C393 0.948 1_556 S
H371 C399 0.982 . S
H372 C400 0.979 . S
H373 C400 0.980 . S
H374 C400 0.983 . S
H375 C399 0.979 . S
H376 C399 0.977 . S
C377 C365 1.453 1_565 S
C377 H406 0.982 . S
C377 H407 0.979 . S
C377 H408 0.977 . S
C378 C365 1.684 . S
C378 H403 0.979 . S
C378 H404 0.980 . S
C378 H405 0.983 . S
C379 C380 1.391 . S
C379 C384 1.391 . S
C379 H409 0.948 . S
C380 C379 1.391 . S
C380 C381 1.391 . S
C381 C380 1.391 . S
C381 C382 1.392 . S
C381 H410 0.947 . S
C382 C381 1.392 . S
C382 C383 1.419 . S
C382 H411 0.948 . S
C383 C382 1.419 . S
C383 C384 1.391 . S
C383 C387 1.397 1_545 S
C384 C379 1.391 . S
C384 C383 1.391 . S
C384 C385 1.399 . S
C385 C384 1.399 . S
C385 C386 1.396 1_545 S
C385 C388 1.453 1_545 S
C385 C389 1.684 . S
C386 C367 1.723 1_554 S
C386 C385 1.396 1_565 S
C386 C387 1.394 . S
C387 C383 1.397 1_565 S
C387 C386 1.394 . S
C387 C397 1.723 . S
C388 C385 1.453 1_565 S
C388 H412 0.982 . S
C388 H413 0.979 . S
C388 H414 0.977 1_554 S
C389 C385 1.684 . S
C389 H415 0.979 . S
C389 H416 0.980 1_554 S
C389 H417 0.983 . S
C390 H366 0.948 . S
C390 C391 1.391 . S
C390 C395 1.391 . S
C391 C390 1.391 . S
C391 C392 1.391 . S
C392 H369 0.947 1_554 S
C392 C391 1.391 . S
C392 C393 1.392 . S
C393 H370 0.948 1_554 S
C393 C392 1.392 . S
C393 C394 1.419 . S
C394 C393 1.419 . S
C394 C395 1.391 . S
C394 C398 1.397 1_545 S
C395 C390 1.391 . S
C395 C394 1.391 . S
C395 C396 1.399 . S
C396 C395 1.399 . S
C396 C397 1.396 1_545 S
C396 C399 1.453 1_545 S
C396 C400 1.684 . S
C397 C387 1.723 . S
C397 C396 1.396 1_565 S
C397 C398 1.394 . S
C398 C368 1.723 1_554 S
C398 C394 1.397 1_565 S
C398 C397 1.394 . S
C399 H371 0.982 . S
C399 H375 0.979 . S
C399 H376 0.977 . S
C399 C396 1.453 1_565 S
C400 H372 0.979 . S
C400 H373 0.980 . S
C400 H374 0.983 . S
C400 C396 1.684 . S
H401 C419 0.948 . S
H402 C360 0.948 . S
H403 C378 0.979 . S
H404 C378 0.980 . S
H405 C378 0.983 . S
H406 C377 0.982 . S
H407 C377 0.979 . S
H408 C377 0.977 . S
H409 C379 0.948 . S
H410 C381 0.947 . S
H411 C382 0.948 . S
H412 C388 0.982 . S
H413 C388 0.979 . S
H414 C388 0.977 1_556 S
H415 C389 0.979 . S
H416 C389 0.980 1_556 S
H417 C389 0.983 . S
H418 C362 0.947 . S
C419 C362 1.392 . S
C419 C363 1.419 . S
C419 H401 0.948 . S
C420 C421 1.391 . S
C420 C424 1.391 . S
C420 H462 0.948 . S
C421 C420 1.391 . S
C421 C422 1.391 . S
C422 C421 1.391 . S
C422 H478 0.947 . S
C422 C479 1.392 . S
C423 C424 1.391 . S
C423 C427 1.397 . S
C423 C479 1.419 . S
C424 C420 1.391 . S
C424 C423 1.391 . S
C424 C425 1.399 . S
C425 C424 1.399 . S
C425 C428 1.396 . S
C425 C437 1.453 . S
C425 C438 1.684 . S
H426 C450 0.948 . S
C427 C423 1.397 . S
C427 C428 1.394 . S
C427 C446 1.723 1_556 S
C428 C425 1.396 . S
C428 C427 1.394 . S
C428 C458 1.723 1_556 S
H429 C452 0.947 1_556 S
H430 C453 0.948 . S
H431 C459 0.982 . S
H432 C460 0.979 . S
H433 C460 0.980 . S
H434 C460 0.983 . S
H435 C459 0.979 . S
H436 C459 0.977 . S
C437 C425 1.453 . S
C437 H466 0.982 . S
C437 H467 0.979 . S
C437 H468 0.977 . S
C438 C425 1.684 . S
C438 H463 0.979 . S
C438 H464 0.980 . S
C438 H465 0.983 . S
C439 C440 1.391 . S
C439 C444 1.391 . S
C439 H469 0.948 . S
C440 C439 1.391 . S
C440 C441 1.391 . S
C441 C440 1.391 . S
C441 C442 1.392 . S
C441 H470 0.947 . S
C442 C441 1.392 . S
C442 C443 1.419 . S
C442 H471 0.948 . S
C443 C442 1.419 . S
C443 C444 1.391 . S
C443 C447 1.397 . S
C444 C439 1.391 . S
C444 C443 1.391 . S
C444 C445 1.399 . S
C445 C444 1.399 . S
C445 C446 1.396 . S
C445 C448 1.453 . S
C445 C449 1.684 . S
C446 C427 1.723 1_554 S
C446 C445 1.396 . S
C446 C447 1.394 . S
C447 C443 1.397 . S
C447 C446 1.394 . S
C447 C457 1.723 . S
C448 C445 1.453 . S
C448 H472 0.982 . S
C448 H473 0.979 . S
C448 H474 0.977 1_554 S
C449 C445 1.684 . S
C449 H475 0.979 . S
C449 H476 0.980 1_554 S
C449 H477 0.983 . S
C450 H426 0.948 . S
C450 C451 1.391 . S
C450 C455 1.391 . S
C451 C450 1.391 . S
C451 C452 1.391 . S
C452 H429 0.947 1_554 S
C452 C451 1.391 . S
C452 C453 1.392 1_554 S
C453 H430 0.948 . S
C453 C452 1.392 1_556 S
C453 C454 1.419 1_556 S
C454 C453 1.419 1_554 S
C454 C455 1.391 . S
C454 C458 1.397 . S
C455 C450 1.391 . S
C455 C454 1.391 . S
C455 C456 1.399 . S
C456 C455 1.399 . S
C456 C457 1.396 . S
C456 C459 1.453 . S
C456 C460 1.684 . S
C457 C447 1.723 . S
C457 C456 1.396 . S
C457 C458 1.394 . S
C458 C428 1.723 1_554 S
C458 C454 1.397 . S
C458 C457 1.394 . S
C459 H431 0.982 . S
C459 H435 0.979 . S
C459 H436 0.977 . S
C459 C456 1.453 . S
C460 H432 0.979 . S
C460 H433 0.980 . S
C460 H434 0.983 . S
C460 C456 1.684 . S
H461 C479 0.948 . S
H462 C420 0.948 . S
H463 C438 0.979 . S
H464 C438 0.980 . S
H465 C438 0.983 . S
H466 C437 0.982 . S
H467 C437 0.979 . S
H468 C437 0.977 . S
H469 C439 0.948 . S
H470 C441 0.947 . S
H471 C442 0.948 . S
H472 C448 0.982 . S
H473 C448 0.979 . S
H474 C448 0.977 1_556 S
H475 C449 0.979 . S
H476 C449 0.980 1_556 S
H477 C449 0.983 . S
H478 C422 0.947 . S
C479 C422 1.392 . S
C479 C423 1.419 . S
C479 H461 0.948 . S
La480 C482 2.928 . S
La480 O500 2.521 . S
La480 O501 2.628 . S
La480 O502 2.554 . S
La480 O503 2.757 1_565 S
La480 O504 2.470 . S
La480 O509 2.482 1_455 S
La480 O511 2.503 1_565 S
La481 C491 2.928 . S
La481 O503 2.482 1_655 S
La481 O505 2.503 1_545 S
La481 O506 2.521 . S
La481 O507 2.628 . S
La481 O508 2.554 . S
La481 O509 2.757 1_545 S
La481 O510 2.470 . S
C482 La480 2.928 . S
C482 C483 1.503 . S
C482 O500 1.261 . S
C482 O501 1.243 . S
C483 C482 1.503 . S
C483 C484 1.394 . S
C483 C488 1.373 1_556 S
C484 C483 1.394 . S
C484 C485 1.380 1_556 S
C484 H512 0.930 . S
C485 C484 1.380 1_554 S
C485 C486 1.376 . S
C485 H513 0.930 . S
C486 C485 1.376 . S
C486 C487 1.370 . S
C487 C486 1.370 . S
C487 C488 1.396 . S
C487 H514 0.929 . S
C488 C483 1.373 1_554 S
C488 C487 1.396 . S
C488 H515 0.929 1_455 S
C489 O502 1.240 . S
C489 O503 1.289 1_565 S
C490 O504 1.258 1_655 S
C490 O505 1.256 . S
C491 La481 2.928 . S
C491 C492 1.503 . S
C491 O506 1.261 . S
C491 O507 1.243 . S
C492 C491 1.503 . S
C492 C493 1.394 . S
C492 C497 1.373 . S
C493 C492 1.394 . S
C493 C494 1.380 . S
C493 H516 0.930 . S
C494 C493 1.380 . S
C494 C495 1.376 . S
C494 H517 0.930 . S
C495 C494 1.376 . S
C495 C496 1.370 . S
C496 C495 1.370 . S
C496 C497 1.396 . S
C496 H518 0.929 . S
C497 C492 1.373 . S
C497 C496 1.396 . S
C497 H519 0.929 1_655 S
C498 O508 1.240 . S
C498 O509 1.289 1_545 S
C499 O510 1.258 1_455 S
C499 O511 1.256 . S
O500 La480 2.521 . S
O500 C482 1.261 . S
O501 La480 2.628 . S
O501 C482 1.243 . S
O502 La480 2.554 . S
O502 C489 1.240 . S
O503 La480 2.757 1_545 S
O503 La481 2.482 1_455 S
O503 C489 1.289 1_545 S
O504 La480 2.470 . S
O504 C490 1.258 1_455 S
O505 La481 2.503 1_565 S
O505 C490 1.256 . S
O506 La481 2.521 . S
O506 C491 1.261 . S
O507 La481 2.628 . S
O507 C491 1.243 . S
O508 La481 2.554 . S
O508 C498 1.240 . S
O509 La480 2.482 1_655 S
O509 La481 2.757 1_565 S
O509 C498 1.289 1_565 S
O510 La481 2.470 . S
O510 C499 1.258 1_655 S
O511 La480 2.503 1_545 S
O511 C499 1.256 . S
H512 C484 0.930 . S
H513 C485 0.930 . S
H514 C487 0.929 . S
H515 C488 0.929 1_655 S
H516 C493 0.930 . S
H517 C494 0.930 . S
H518 C496 0.929 . S
H519 C497 0.929 1_455 S
La520 C522 2.928 . S
La520 O540 2.521 . S
La520 O541 2.628 . S
La520 O542 2.554 . S
La520 O543 2.757 . S
La520 O544 2.470 . S
La520 O549 2.482 1_545 S
La520 O551 2.503 . S
La521 C531 2.928 . S
La521 O543 2.482 1_565 S
La521 O545 2.503 . S
La521 O546 2.521 . S
La521 O547 2.628 . S
La521 O548 2.554 . S
La521 O549 2.757 . S
La521 O550 2.470 . S
C522 La520 2.928 . S
C522 C523 1.503 . S
C522 O540 1.261 . S
C522 O541 1.243 . S
C523 C522 1.503 . S
C523 C524 1.394 . S
C523 C528 1.373 1_556 S
C524 C523 1.394 . S
C524 C525 1.380 1_556 S
C524 H552 0.930 . S
C525 C524 1.380 1_554 S
C525 C526 1.376 . S
C525 H553 0.930 . S
C526 C525 1.376 . S
C526 C527 1.370 . S
C527 C526 1.370 . S
C527 C528 1.396 . S
C527 H554 0.929 . S
C528 C523 1.373 1_554 S
C528 C527 1.396 . S
C528 H555 0.929 1_545 S
C529 O542 1.240 . S
C529 O543 1.289 . S
C530 O544 1.258 1_565 S
C530 O545 1.256 . S
C531 La521 2.928 . S
C531 C532 1.503 . S
C531 O546 1.261 . S
C531 O547 1.243 . S
C532 C531 1.503 . S
C532 C533 1.394 . S
C532 C537 1.373 . S
C533 C532 1.394 . S
C533 C534 1.380 . S
C533 H556 0.930 . S
C534 C533 1.380 . S
C534 C535 1.376 . S
C534 H557 0.930 . S
C535 C534 1.376 . S
C535 C536 1.370 . S
C536 C535 1.370 . S
C536 C537 1.396 . S
C536 H558 0.929 . S
C537 C532 1.373 . S
C537 C536 1.396 . S
C537 H559 0.929 1_565 S
C538 O548 1.240 . S
C538 O549 1.289 . S
C539 O550 1.258 1_545 S
C539 O551 1.256 . S
O540 La520 2.521 . S
O540 C522 1.261 . S
O541 La520 2.628 . S
O541 C522 1.243 . S
O542 La520 2.554 . S
O542 C529 1.240 . S
O543 La520 2.757 . S
O543 La521 2.482 1_545 S
O543 C529 1.289 . S
O544 La520 2.470 . S
O544 C530 1.258 1_545 S
O545 La521 2.503 . S
O545 C530 1.256 . S
O546 La521 2.521 . S
O546 C531 1.261 . S
O547 La521 2.628 . S
O547 C531 1.243 . S
O548 La521 2.554 . S
O548 C538 1.240 . S
O549 La520 2.482 1_565 S
O549 La521 2.757 . S
O549 C538 1.289 . S
O550 La521 2.470 . S
O550 C539 1.258 1_565 S
O551 La520 2.503 . S
O551 C539 1.256 . S
H552 C524 0.930 . S
H553 C525 0.930 . S
H554 C527 0.929 . S
H555 C528 0.929 1_565 S
H556 C533 0.930 . S
H557 C534 0.930 . S
H558 C536 0.929 . S
H559 C537 0.929 1_545 S
La560 C562 2.928 . S
La560 O580 2.521 . S
La560 O581 2.628 . S
La560 O582 2.554 . S
La560 O583 2.757 . S
La560 O584 2.470 . S
La560 O589 2.482 . S
La560 O591 2.503 . S
La561 C571 2.928 . S
La561 O583 2.482 . S
La561 O585 2.503 . S
La561 O586 2.521 . S
La561 O587 2.628 . S
La561 O588 2.554 . S
La561 O589 2.757 . S
La561 O590 2.470 . S
C562 La560 2.928 . S
C562 C563 1.503 . S
C562 O580 1.261 . S
C562 O581 1.243 . S
C563 C562 1.503 . S
C563 C564 1.394 . S
C563 C568 1.373 1_556 S
C564 C563 1.394 . S
C564 C565 1.380 1_556 S
C564 H592 0.930 . S
C565 C564 1.380 1_554 S
C565 C566 1.376 . S
C565 H593 0.930 . S
C566 C565 1.376 . S
C566 C567 1.370 . S
C567 C566 1.370 . S
C567 C568 1.396 . S
C567 H594 0.929 . S
C568 C563 1.373 1_554 S
C568 C567 1.396 . S
C568 H595 0.929 . S
C569 O582 1.240 . S
C569 O583 1.289 . S
C570 O584 1.258 . S
C570 O585 1.256 . S
C571 La561 2.928 . S
C571 C572 1.503 . S
C571 O586 1.261 . S
C571 O587 1.243 . S
C572 C571 1.503 . S
C572 C573 1.394 . S
C572 C577 1.373 . S
C573 C572 1.394 . S
C573 C574 1.380 . S
C573 H596 0.930 . S
C574 C573 1.380 . S
C574 C575 1.376 . S
C574 H597 0.930 . S
C575 C574 1.376 . S
C575 C576 1.370 . S
C576 C575 1.370 . S
C576 C577 1.396 . S
C576 H598 0.929 . S
C577 C572 1.373 . S
C577 C576 1.396 . S
C577 H599 0.929 . S
C578 O588 1.240 . S
C578 O589 1.289 . S
C579 O590 1.258 . S
C579 O591 1.256 . S
O580 La560 2.521 . S
O580 C562 1.261 . S
O581 La560 2.628 . S
O581 C562 1.243 . S
O582 La560 2.554 . S
O582 C569 1.240 . S
O583 La560 2.757 . S
O583 La561 2.482 . S
O583 C569 1.289 . S
O584 La560 2.470 . S
O584 C570 1.258 . S
O585 La561 2.503 . S
O585 C570 1.256 . S
O586 La561 2.521 . S
O586 C571 1.261 . S
O587 La561 2.628 . S
O587 C571 1.243 . S
O588 La561 2.554 . S
O588 C578 1.240 . S
O589 La560 2.482 . S
O589 La561 2.757 . S
O589 C578 1.289 . S
O590 La561 2.470 . S
O590 C579 1.258 . S
O591 La560 2.503 . S
O591 C579 1.256 . S
H592 C564 0.930 . S
H593 C565 0.930 . S
H594 C567 0.929 . S
H595 C568 0.929 . S
H596 C573 0.930 . S
H597 C574 0.930 . S
H598 C576 0.929 . S
H599 C577 0.929 . S
La600 C602 2.928 . S
La600 O620 2.521 . S
La600 O621 2.628 . S
La600 O622 2.554 . S
La600 O623 2.757 1_655 S
La600 O624 2.470 . S
La600 O629 2.482 . S
La600 O631 2.503 1_655 S
La601 C611 2.928 . S
La601 O623 2.482 . S
La601 O625 2.503 1_455 S
La601 O626 2.521 . S
La601 O627 2.628 . S
La601 O628 2.554 . S
La601 O629 2.757 1_455 S
La601 O630 2.470 . S
C602 La600 2.928 . S
C602 C603 1.503 . S
C602 O620 1.261 . S
C602 O621 1.243 . S
C603 C602 1.503 . S
C603 C604 1.394 . S
C603 C608 1.373 1_556 S
C604 C603 1.394 . S
C604 C605 1.380 1_556 S
C604 H632 0.930 . S
C605 C604 1.380 1_554 S
C605 C606 1.376 . S
C605 H633 0.930 . S
C606 C605 1.376 . S
C606 C607 1.370 . S
C607 C606 1.370 . S
C607 C608 1.396 . S
C607 H634 0.929 . S
C608 C603 1.373 1_554 S
C608 C607 1.396 . S
C608 H635 0.929 . S
C609 O622 1.245 . S
C609 O623 1.286 1_655 S
C610 O624 1.258 . S
C610 O625 1.256 . S
C611 La601 2.928 . S
C611 C612 1.503 . S
C611 O626 1.261 . S
C611 O627 1.243 . S
C612 C611 1.503 . S
C612 C613 1.394 . S
C612 C617 1.373 . S
C613 C612 1.394 . S
C613 C614 1.380 . S
C613 H636 0.930 . S
C614 C613 1.380 . S
C614 C615 1.376 . S
C614 H637 0.930 . S
C615 C614 1.376 . S
C615 C616 1.370 . S
C616 C615 1.370 . S
C616 C617 1.396 . S
C616 H638 0.929 . S
C617 C612 1.373 . S
C617 C616 1.396 . S
C617 H639 0.929 . S
C618 O628 1.250 . S
C618 O629 1.283 1_455 S
C619 O630 1.258 . S
C619 O631 1.256 . S
O620 La600 2.521 . S
O620 C602 1.261 . S
O621 La600 2.628 . S
O621 C602 1.243 . S
O622 La600 2.554 . S
O622 C609 1.245 . S
O623 La600 2.757 1_455 S
O623 La601 2.482 . S
O623 C609 1.286 1_455 S
O624 La600 2.470 . S
O624 C610 1.258 . S
O625 La601 2.503 1_655 S
O625 C610 1.256 . S
O626 La601 2.521 . S
O626 C611 1.261 . S
O627 La601 2.628 . S
O627 C611 1.243 . S
O628 La601 2.554 . S
O628 C618 1.250 . S
O629 La600 2.482 . S
O629 La601 2.757 1_655 S
O629 C618 1.283 1_655 S
O630 La601 2.470 . S
O630 C619 1.258 . S
O631 La600 2.503 1_455 S
O631 C619 1.256 . S
H632 C604 0.930 . S
H633 C605 0.930 . S
H634 C607 0.929 . S
H635 C608 0.929 . S
H636 C613 0.930 . S
H637 C614 0.930 . S
H638 C616 0.929 . S
H639 C617 0.929 . S
C640 C641 1.374 . S
C640 C646 1.379 . S
C640 N648 1.356 . S
C641 C640 1.374 . S
C641 C647 1.352 1_545 S
C642 C643 1.338 1_565 S
C642 C647 1.379 . S
C642 N649 1.356 . S
C643 C642 1.338 1_545 S
C643 C646 1.388 . S
N644 C646 1.356 . S
N644 H656 0.984 . S
N644 H657 0.985 . S
N645 C647 1.356 . S
N645 H650 0.984 . S
N645 H651 0.985 . S
C646 C640 1.379 . S
C646 C643 1.388 . S
C646 N644 1.356 . S
C647 C641 1.352 1_565 S
C647 C642 1.379 . S
C647 N645 1.356 . S
N648 C640 1.356 . S
N648 H654 0.984 . S
N648 H655 0.984 . S
N649 C642 1.356 . S
N649 H652 0.984 . S
N649 H653 0.985 . S
H650 N645 0.984 . S
H651 N645 0.985 . S
H652 N649 0.984 . S
H653 N649 0.985 . S
H654 N648 0.984 . S
H655 N648 0.984 . S
H656 N644 0.984 . S
H657 N644 0.985 . S
C658 C659 1.363 . S
C658 C664 1.379 . S
C658 N666 1.356 . S
C659 C658 1.363 . S
C659 C665 1.363 . S
C660 C661 1.363 . S
C660 C665 1.379 . S
C660 N667 1.356 . S
C661 C660 1.363 . S
C661 C664 1.363 . S
N662 C664 1.356 . S
N662 H674 0.984 . S
N662 H675 0.985 . S
N663 C665 1.356 . S
N663 H668 0.984 . S
N663 H669 0.985 . S
C664 C658 1.379 . S
C664 C661 1.363 . S
C664 N662 1.356 . S
C665 C659 1.363 . S
C665 C660 1.379 . S
C665 N663 1.356 . S
N666 C658 1.356 . S
N666 H672 0.984 . S
N666 H673 0.984 . S
N667 C660 1.356 . S
N667 H670 0.984 . S
N667 H671 0.985 . S
H668 N663 0.984 . S
H669 N663 0.985 . S
H670 N667 0.984 . S
H671 N667 0.985 . S
H672 N666 0.984 . S
H673 N666 0.984 . S
H674 N662 0.984 . S
H675 N662 0.985 . S
C676 C677 1.363 . S
C676 C682 1.379 . S
C676 N684 1.356 . S
C677 C676 1.363 . S
C677 C683 1.363 . S
C678 C679 1.363 . S
C678 C683 1.379 . S
C678 N685 1.356 . S
C679 C678 1.363 . S
C679 C682 1.363 . S
N680 C682 1.356 . S
N680 H692 0.984 . S
N680 H693 0.985 . S
N681 C683 1.356 . S
N681 H686 0.984 . S
N681 H687 0.985 . S
C682 C676 1.379 . S
C682 C679 1.363 . S
C682 N680 1.356 . S
C683 C677 1.363 . S
C683 C678 1.379 . S
C683 N681 1.356 . S
N684 C676 1.356 . S
N684 H690 0.984 . S
N684 H691 0.984 . S
N685 C678 1.356 . S
N685 H688 0.984 . S
N685 H689 0.985 . S
H686 N681 0.984 . S
H687 N681 0.985 . S
H688 N685 0.984 . S
H689 N685 0.985 . S
H690 N684 0.984 . S
H691 N684 0.984 . S
H692 N680 0.984 . S
H693 N680 0.985 . S
C694 C695 1.347 1_655 S
C694 C700 1.379 . S
C694 N702 1.356 . S
C695 C694 1.347 1_455 S
C695 C701 1.380 . S
C696 C697 1.363 . S
C696 C701 1.379 . S
C696 N703 1.356 . S
C697 C696 1.363 . S
C697 C700 1.363 1_455 S
N698 C700 1.356 . S
N698 H710 0.984 . S
N698 H711 0.985 . S
N699 C701 1.356 . S
N699 H704 0.984 . S
N699 H705 0.985 . S
C700 C694 1.379 . S
C700 C697 1.363 1_655 S
C700 N698 1.356 . S
C701 C695 1.380 . S
C701 C696 1.379 . S
C701 N699 1.356 . S
N702 C694 1.356 . S
N702 H708 0.984 . S
N702 H709 0.984 . S
N703 C696 1.356 . S
N703 H706 0.984 . S
N703 H707 0.985 . S
H704 N699 0.984 . S
H705 N699 0.985 . S
H706 N703 0.984 . S
H707 N703 0.985 . S
H708 N702 0.984 . S
H709 N702 0.984 . S
H710 N698 0.984 . S
H711 N698 0.985 . S
C712 C713 1.359 1_545 S
C712 C718 1.379 . S
C712 N720 1.356 . S
C713 C712 1.359 1_565 S
C713 C719 1.367 . S
C714 C715 1.381 . S
C714 C719 1.379 . S
C714 N721 1.356 . S
C715 C714 1.381 . S
C715 C718 1.345 1_565 S
N716 C718 1.356 1_556 S
N716 H728 0.984 . S
N716 H729 0.985 . S
N717 C719 1.356 . S
N717 H722 0.984 . S
N717 H723 0.985 . S
C718 C712 1.379 . S
C718 C715 1.345 1_545 S
C718 N716 1.356 1_554 S
C719 C713 1.367 . S
C719 C714 1.379 . S
C719 N717 1.356 . S
N720 C712 1.356 . S
N720 H726 0.984 . S
N720 H727 0.984 . S
N721 C714 1.356 . S
N721 H724 0.984 1_554 S
N721 H725 0.985 . S
H722 N717 0.984 . S
H723 N717 0.985 . S
H724 N721 0.984 1_556 S
H725 N721 0.985 . S
H726 N720 0.984 . S
H727 N720 0.984 . S
H728 N716 0.984 . S
H729 N716 0.985 . S
C730 C731 1.363 . S
C730 C736 1.379 . S
C730 N738 1.356 . S
C731 C730 1.363 . S
C731 C737 1.363 . S
C732 C733 1.363 . S
C732 C737 1.379 . S
C732 N739 1.356 . S
C733 C732 1.363 . S
C733 C736 1.363 . S
N734 C736 1.356 1_556 S
N734 H746 0.984 . S
N734 H747 0.985 . S
N735 C737 1.356 . S
N735 H740 0.984 . S
N735 H741 0.985 . S
C736 C730 1.379 . S
C736 C733 1.363 . S
C736 N734 1.356 1_554 S
C737 C731 1.363 . S
C737 C732 1.379 . S
C737 N735 1.356 . S
N738 C730 1.356 . S
N738 H744 0.984 . S
N738 H745 0.984 . S
N739 C732 1.356 . S
N739 H742 0.984 1_554 S
N739 H743 0.985 . S
H740 N735 0.984 . S
H741 N735 0.985 . S
H742 N739 0.984 1_556 S
H743 N739 0.985 . S
H744 N738 0.984 . S
H745 N738 0.984 . S
H746 N734 0.984 . S
H747 N734 0.985 . S
C748 C749 1.363 . S
C748 C754 1.379 . S
C748 N756 1.356 . S
C749 C748 1.363 . S
C749 C755 1.363 . S
C750 C751 1.363 . S
C750 C755 1.379 . S
C750 N757 1.356 1_554 S
C751 C750 1.363 . S
C751 C754 1.363 . S
N752 C754 1.356 . S
N752 H764 0.984 . S
N752 H765 0.985 1_554 S
N753 C755 1.356 . S
N753 H758 0.984 . S
N753 H759 0.985 . S
C754 C748 1.379 . S
C754 C751 1.363 . S
C754 N752 1.356 . S
C755 C749 1.363 . S
C755 C750 1.379 . S
C755 N753 1.356 . S
N756 C748 1.356 . S
N756 H762 0.984 . S
N756 H763 0.984 . S
N757 C750 1.356 1_556 S
N757 H760 0.984 . S
N757 H761 0.985 . S
H758 N753 0.984 . S
H759 N753 0.985 . S
H760 N757 0.984 . S
H761 N757 0.985 . S
H762 N756 0.984 . S
H763 N756 0.984 . S
H764 N752 0.984 . S
H765 N752 0.985 1_556 S
C766 C767 1.349 1_455 S
C766 C772 1.379 . S
C766 N774 1.356 . S
C767 C766 1.349 1_655 S
C767 C773 1.379 . S
C768 C769 1.363 . S
C768 C773 1.379 . S
C768 N775 1.356 1_554 S
C769 C768 1.363 . S
C769 C772 1.363 1_655 S
N770 C772 1.356 . S
N770 H782 0.984 . S
N770 H783 0.985 1_554 S
N771 C773 1.356 . S
N771 H776 0.984 . S
N771 H777 0.985 . S
C772 C766 1.379 . S
C772 C769 1.363 1_455 S
C772 N770 1.356 . S
C773 C767 1.379 . S
C773 C768 1.379 . S
C773 N771 1.356 . S
N774 C766 1.356 . S
N774 H780 0.984 . S
N774 H781 0.984 . S
N775 C768 1.356 1_556 S
N775 H778 0.984 . S
N775 H779 0.985 . S
H776 N771 0.984 . S
H777 N771 0.985 . S
H778 N775 0.984 . S
H779 N775 0.985 . S
H780 N774 0.984 . S
H781 N774 0.984 . S
H782 N770 0.984 . S
H783 N770 0.985 1_556 S
C784 C785 1.363 . S
C784 C790 1.379 . S
C784 N792 1.356 . S
C785 C784 1.363 . S
C785 C791 1.363 . S
C786 C787 1.363 . S
C786 C791 1.379 . S
C786 N793 1.356 . S
C787 C786 1.363 . S
C787 C790 1.363 . S
N788 C790 1.356 . S
N788 H800 0.984 . S
N788 H801 0.985 . S
N789 C791 1.356 1_455 S
N789 H794 0.984 . S
N789 H795 0.985 . S
C790 C784 1.379 . S
C790 C787 1.363 . S
C790 N788 1.356 . S
C791 C785 1.363 . S
C791 C786 1.379 . S
C791 N789 1.356 1_655 S
N792 C784 1.356 . S
N792 H798 0.984 . S
N792 H799 0.999 . S
N793 C786 1.356 . S
N793 H796 0.984 . S
N793 H797 0.985 . S
H794 N789 0.984 . S
H795 N789 0.985 . S
H796 N793 0.984 . S
H797 N793 0.985 . S
H798 N792 0.984 . S
H799 N792 0.999 . S
H800 N788 0.984 . S
H801 N788 0.985 . S
C802 C803 1.363 . S
C802 C808 1.379 . S
C802 N810 1.356 . S
C803 C802 1.363 . S
C803 C809 1.363 . S
C804 C805 1.363 . S
C804 C809 1.379 . S
C804 N811 1.356 . S
C805 C804 1.363 . S
C805 C808 1.363 . S
N806 C808 1.356 . S
N806 H818 0.984 . S
N806 H819 0.985 . S
N807 C809 1.356 1_545 S
N807 H812 0.984 . S
N807 H813 0.985 . S
C808 C802 1.379 . S
C808 C805 1.363 . S
C808 N806 1.356 . S
C809 C803 1.363 . S
C809 C804 1.379 . S
C809 N807 1.356 1_565 S
N810 C802 1.356 . S
N810 H816 0.984 . S
N810 H817 0.983 . S
N811 C804 1.356 . S
N811 H814 0.984 . S
N811 H815 0.985 . S
H812 N807 0.984 . S
H813 N807 0.985 . S
H814 N811 0.984 . S
H815 N811 0.985 . S
H816 N810 0.984 . S
H817 N810 0.983 . S
H818 N806 0.984 . S
H819 N806 0.985 . S
C820 C821 1.363 . S
C820 C826 1.379 . S
C820 N828 1.356 . S
C821 C820 1.363 . S
C821 C827 1.363 . S
C822 C823 1.363 . S
C822 C827 1.379 . S
C822 N829 1.356 . S
C823 C822 1.363 . S
C823 C826 1.363 . S
N824 C826 1.356 . S
N824 H836 0.984 . S
N824 H837 0.985 . S
N825 C827 1.356 . S
N825 H830 0.984 . S
N825 H831 0.985 . S
C826 C820 1.379 . S
C826 C823 1.363 . S
C826 N824 1.356 . S
C827 C821 1.363 . S
C827 C822 1.379 . S
C827 N825 1.356 . S
N828 C820 1.356 . S
N828 H834 0.984 . S
N828 H835 0.984 . S
N829 C822 1.356 . S
N829 H832 0.984 . S
N829 H833 0.985 . S
H830 N825 0.984 . S
H831 N825 0.985 . S
H832 N829 0.984 . S
H833 N829 0.985 . S
H834 N828 0.984 . S
H835 N828 0.984 . S
H836 N824 0.984 . S
H837 N824 0.985 . S
C838 C839 1.363 . S
C838 C844 1.379 . S
C838 N846 1.356 . S
C839 C838 1.363 . S
C839 C845 1.363 . S
C840 C841 1.363 . S
C840 C845 1.379 . S
C840 N847 1.356 . S
C841 C840 1.363 . S
C841 C844 1.363 . S
N842 C844 1.356 . S
N842 H854 0.984 . S
N842 H855 0.985 . S
N843 C845 1.356 . S
N843 H848 0.984 . S
N843 H849 0.985 . S
C844 C838 1.379 . S
C844 C841 1.363 . S
C844 N842 1.356 . S
C845 C839 1.363 . S
C845 C840 1.379 . S
C845 N843 1.356 . S
N846 C838 1.356 . S
N846 H852 0.984 . S
N846 H853 0.984 . S
N847 C840 1.356 . S
N847 H850 0.984 . S
N847 H851 0.985 . S
H848 N843 0.984 . S
H849 N843 0.985 . S
H850 N847 0.984 . S
H851 N847 0.985 . S
H852 N846 0.984 . S
H853 N846 0.984 . S
H854 N842 0.984 . S
H855 N842 0.985 . S
C856 C857 1.363 . S
C856 C862 1.379 . S
C856 N864 1.356 . S
C857 C856 1.363 . S
C857 C863 1.361 1_455 S
C858 C859 1.363 . S
C858 C863 1.361 1_455 S
C858 N865 1.356 . S
C859 C858 1.363 . S
C859 C862 1.363 . S
N860 C862 1.356 . S
N860 H872 0.984 . S
N860 H873 0.985 . S
N861 C863 1.379 . S
N861 H866 0.984 . S
N861 H867 0.985 . S
C862 C856 1.379 . S
C862 C859 1.363 . S
C862 N860 1.356 . S
C863 C857 1.361 1_655 S
C863 C858 1.361 1_655 S
C863 N861 1.379 . S
N864 C856 1.356 . S
N864 H870 0.984 . S
N864 H871 0.984 . S
N865 C858 1.356 . S
N865 H868 0.984 . S
N865 H869 0.985 . S
H866 N861 0.984 . S
H867 N861 0.985 . S
H868 N865 0.984 . S
H869 N865 0.985 . S
H870 N864 0.984 . S
H871 N864 0.984 . S
H872 N860 0.984 . S
H873 N860 0.985 . S
C874 C875 1.363 . S
C874 C880 1.379 . S
C874 N882 1.356 1_545 S
C875 C874 1.363 . S
C875 C881 1.363 . S
C876 C877 1.363 . S
C876 C881 1.379 . S
C876 N883 1.356 1_554 S
C877 C876 1.363 . S
C877 C880 1.363 . S
N878 C880 1.356 . S
N878 H890 0.984 . S
N878 H891 0.985 . S
N879 C881 1.354 1_566 S
N879 H884 0.988 1_556 S
N879 H885 0.983 1_565 S
C880 C874 1.379 . S
C880 C877 1.363 . S
C880 N878 1.356 . S
C881 C875 1.363 . S
C881 C876 1.379 . S
C881 N879 1.354 1_544 S
N882 C874 1.356 1_565 S
N882 H888 0.984 . S
N882 H889 0.984 . S
N883 C876 1.356 1_556 S
N883 H886 0.984 . S
N883 H887 0.985 . S
H884 N879 0.988 1_554 S
H885 N879 0.983 1_545 S
H886 N883 0.984 . S
H887 N883 0.985 . S
H888 N882 0.984 . S
H889 N882 0.984 . S
H890 N878 0.984 . S
H891 N878 0.985 . S
C892 C893 1.363 . S
C892 C898 1.379 . S
C892 N900 1.356 . S
C893 C892 1.363 . S
C893 C899 1.363 . S
C894 C895 1.363 . S
C894 C899 1.379 . S
C894 N901 1.356 . S
C895 C894 1.363 . S
C895 C898 1.363 . S
N896 C898 1.356 . S
N896 H908 0.984 . S
N896 H909 0.985 . S
N897 C899 1.356 . S
N897 H902 0.984 . S
N897 H903 0.985 . S
C898 C892 1.379 . S
C898 C895 1.363 . S
C898 N896 1.356 . S
C899 C893 1.363 . S
C899 C894 1.379 . S
C899 N897 1.356 . S
N900 C892 1.356 . S
N900 H906 0.984 . S
N900 H907 0.984 . S
N901 C894 1.356 . S
N901 H904 0.984 . S
N901 H905 0.985 1_554 S
H902 N897 0.984 . S
H903 N897 0.985 . S
H904 N901 0.984 . S
H905 N901 0.985 1_556 S
H906 N900 0.984 . S
H907 N900 0.984 . S
H908 N896 0.984 . S
H909 N896 0.985 . S
C910 C911 1.363 . S
C910 C916 1.379 . S
C910 N918 1.356 1_554 S
C911 C910 1.363 . S
C911 C917 1.363 . S
C912 C913 1.363 . S
C912 C917 1.379 . S
C912 N919 1.356 . S
C913 C912 1.363 . S
C913 C916 1.363 . S
N914 C916 1.356 1_556 S
N914 H926 0.984 . S
N914 H927 0.985 . S
N915 C917 1.356 . S
N915 H920 0.984 . S
N915 H921 0.985 . S
C916 C910 1.379 . S
C916 C913 1.363 . S
C916 N914 1.356 1_554 S
C917 C911 1.363 . S
C917 C912 1.379 . S
C917 N915 1.356 . S
N918 C910 1.356 1_556 S
N918 H924 0.984 . S
N918 H925 0.984 1_556 S
N919 C912 1.356 . S
N919 H922 0.984 . S
N919 H923 0.985 . S
H920 N915 0.984 . S
H921 N915 0.985 . S
H922 N919 0.984 . S
H923 N919 0.985 . S
H924 N918 0.984 . S
H925 N918 0.984 1_554 S
H926 N914 0.984 . S
H927 N914 0.985 . S
C928 C929 1.363 1_655 S
C928 C934 1.380 . S
C928 N936 1.356 . S
C929 C928 1.363 1_455 S
C929 C935 1.363 . S
C930 C931 1.363 . S
C930 C935 1.379 . S
C930 N937 1.356 . S
C931 C930 1.363 . S
C931 C934 1.356 1_455 S
N932 C934 1.360 . S
N932 H944 0.984 . S
N932 H945 0.985 . S
N933 C935 1.356 . S
N933 H938 0.984 . S
N933 H939 0.985 . S
C934 C928 1.380 . S
C934 C931 1.356 1_655 S
C934 N932 1.360 . S
C935 C929 1.363 . S
C935 C930 1.379 . S
C935 N933 1.356 . S
N936 C928 1.356 . S
N936 H942 0.984 . S
N936 H943 0.984 . S
N937 C930 1.356 . S
N937 H940 0.984 . S
N937 H941 0.985 . S
H938 N933 0.984 . S
H939 N933 0.985 . S
H940 N937 0.984 . S
H941 N937 0.985 . S
H942 N936 0.984 . S
H943 N936 0.984 . S
H944 N932 0.984 . S
H945 N932 0.985 . S
C946 C947 1.363 1_565 S
C946 C952 1.379 . S
C946 N954 1.356 . S
C947 C946 1.363 1_545 S
C947 C953 1.363 . S
C948 C949 1.363 . S
C948 C953 1.379 . S
C948 N955 1.356 . S
C949 C948 1.363 . S
C949 C952 1.363 1_545 S
N950 C952 1.356 . S
N950 H962 0.984 . S
N950 H963 0.985 . S
N951 C953 1.356 . S
N951 H956 0.984 . S
N951 H957 0.985 . S
C952 C946 1.379 . S
C952 C949 1.363 1_565 S
C952 N950 1.356 . S
C953 C947 1.363 . S
C953 C948 1.379 . S
C953 N951 1.356 . S
N954 C946 1.356 . S
N954 H960 0.984 . S
N954 H961 0.984 . S
N955 C948 1.356 . S
N955 H958 0.984 . S
N955 H959 0.985 . S
H956 N951 0.984 . S
H957 N951 0.985 . S
H958 N955 0.984 . S
H959 N955 0.985 . S
H960 N954 0.984 . S
H961 N954 0.984 . S
H962 N950 0.984 . S
H963 N950 0.985 . S
C964 C965 1.363 . S
C964 C970 1.379 . S
C964 N972 1.356 . S
C965 C964 1.363 . S
C965 C971 1.363 . S
C966 C967 1.363 . S
C966 C971 1.379 . S
C966 N973 1.356 . S
C967 C966 1.363 . S
C967 C970 1.363 . S
N968 C970 1.356 . S
N968 H980 0.984 . S
N968 H981 0.985 . S
N969 C971 1.356 . S
N969 H974 0.984 . S
N969 H975 0.985 . S
C970 C964 1.379 . S
C970 C967 1.363 . S
C970 N968 1.356 . S
C971 C965 1.363 . S
C971 C966 1.379 . S
C971 N969 1.356 . S
N972 C964 1.356 . S
N972 H978 0.984 . S
N972 H979 0.984 . S
N973 C966 1.356 . S
N973 H976 0.984 . S
N973 H977 0.985 . S
H974 N969 0.984 . S
H975 N969 0.985 . S
H976 N973 0.984 . S
H977 N973 0.985 . S
H978 N972 0.984 . S
H979 N972 0.984 . S
H980 N968 0.984 . S
H981 N968 0.985 . S
C982 C983 1.363 . S
C982 C988 1.379 . S
C982 N990 1.356 . S
C983 C982 1.363 . S
C983 C989 1.363 . S
C984 C985 1.363 . S
C984 C989 1.379 . S
C984 N991 1.356 . S
C985 C984 1.363 . S
C985 C988 1.363 . S
N986 C988 1.356 . S
N986 H998 0.984 . S
N986 H999 0.985 . S
N987 C989 1.356 . S
N987 H992 0.984 . S
N987 H993 0.985 . S
C988 C982 1.379 . S
C988 C985 1.363 . S
C988 N986 1.356 . S
C989 C983 1.363 . S
C989 C984 1.379 . S
C989 N987 1.356 . S
N990 C982 1.356 . S
N990 H996 0.984 . S
N990 H997 0.984 . S
N991 C984 1.356 . S
N991 H994 0.984 . S
N991 H995 0.985 . S
H992 N987 0.984 . S
H993 N987 0.985 . S
H994 N991 0.984 . S
H995 N991 0.985 . S
H996 N990 0.984 . S
H997 N990 0.984 . S
H998 N986 0.984 . S
H999 N986 0.985 . S
C1000 C1001 1.363 . S
C1000 C1006 1.379 . S
C1000 N1008 1.356 . S
C1001 C1000 1.363 . S
C1001 C1007 1.363 1_655 S
C1002 C1003 1.363 1_455 S
C1002 C1007 1.379 . S
C1002 N1009 1.356 . S
C1003 C1002 1.363 1_655 S
C1003 C1006 1.363 . S
N1004 C1006 1.356 . S
N1004 H1016 0.984 . S
N1004 H1017 0.985 . S
N1005 C1007 1.356 . S
N1005 H1010 0.984 . S
N1005 H1011 0.985 . S
C1006 C1000 1.379 . S
C1006 C1003 1.363 . S
C1006 N1004 1.356 . S
C1007 C1001 1.363 1_455 S
C1007 C1002 1.379 . S
C1007 N1005 1.356 . S
N1008 C1000 1.356 . S
N1008 H1014 0.984 . S
N1008 H1015 0.984 . S
N1009 C1002 1.356 . S
N1009 H1012 0.984 . S
N1009 H1013 0.985 . S
H1010 N1005 0.984 . S
H1011 N1005 0.985 . S
H1012 N1009 0.984 . S
H1013 N1009 0.985 . S
H1014 N1008 0.984 . S
H1015 N1008 0.984 . S
H1016 N1004 0.984 . S
H1017 N1004 0.985 . S
C1018 C1019 1.363 1_545 S
C1018 C1024 1.379 . S
C1018 N1026 1.356 . S
C1019 C1018 1.363 1_565 S
C1019 C1025 1.363 . S
C1020 C1021 1.363 . S
C1020 C1025 1.379 . S
C1020 N1027 1.356 . S
C1021 C1020 1.363 . S
C1021 C1024 1.363 1_565 S
N1022 C1024 1.356 . S
N1022 H1034 0.984 . S
N1022 H1035 0.985 . S
N1023 C1025 1.356 . S
N1023 H1028 0.984 . S
N1023 H1029 0.985 . S
C1024 C1018 1.379 . S
C1024 C1021 1.363 1_545 S
C1024 N1022 1.356 . S
C1025 C1019 1.363 . S
C1025 C1020 1.379 . S
C1025 N1023 1.356 . S
N1026 C1018 1.356 . S
N1026 H1032 0.984 . S
N1026 H1033 0.984 . S
N1027 C1020 1.356 . S
N1027 H1030 0.984 . S
N1027 H1031 0.985 . S
H1028 N1023 0.984 . S
H1029 N1023 0.985 . S
H1030 N1027 0.984 . S
H1031 N1027 0.985 . S
H1032 N1026 0.984 . S
H1033 N1026 0.984 . S
H1034 N1022 0.984 . S
H1035 N1022 0.985 . S
C1036 C1037 1.363 . S
C1036 C1042 1.379 . S
C1036 N1044 1.356 . S
C1037 C1036 1.363 . S
C1037 C1043 1.363 . S
C1038 C1039 1.363 . S
C1038 C1043 1.379 . S
C1038 N1045 1.356 . S
C1039 C1038 1.363 . S
C1039 C1042 1.363 . S
N1040 C1042 1.356 . S
N1040 H1052 0.984 . S
N1040 H1053 0.985 . S
N1041 C1043 1.356 . S
N1041 H1046 0.984 . S
N1041 H1047 0.985 . S
C1042 C1036 1.379 . S
C1042 C1039 1.363 . S
C1042 N1040 1.356 . S
C1043 C1037 1.363 . S
C1043 C1038 1.379 . S
C1043 N1041 1.356 . S
N1044 C1036 1.356 . S
N1044 H1050 0.984 . S
N1044 H1051 0.984 . S
N1045 C1038 1.356 . S
N1045 H1048 0.984 . S
N1045 H1049 0.985 . S
H1046 N1041 0.984 . S
H1047 N1041 0.985 . S
H1048 N1045 0.984 . S
H1049 N1045 0.985 . S
H1050 N1044 0.984 . S
H1051 N1044 0.984 . S
H1052 N1040 0.984 . S
H1053 N1040 0.985 . S
C1054 C1055 1.363 . S
C1054 C1060 1.379 . S
C1054 N1062 1.356 . S
C1055 C1054 1.363 . S
C1055 C1061 1.363 . S
C1056 C1057 1.363 . S
C1056 C1061 1.379 . S
C1056 N1063 1.356 . S
C1057 C1056 1.363 . S
C1057 C1060 1.363 . S
N1058 C1060 1.356 . S
N1058 H1070 0.984 . S
N1058 H1071 0.985 . S
N1059 C1061 1.356 . S
N1059 H1064 0.984 . S
N1059 H1065 0.985 . S
C1060 C1054 1.379 . S
C1060 C1057 1.363 . S
C1060 N1058 1.356 . S
C1061 C1055 1.363 . S
C1061 C1056 1.379 . S
C1061 N1059 1.356 . S
N1062 C1054 1.356 . S
N1062 H1068 0.984 . S
N1062 H1069 0.984 . S
N1063 C1056 1.356 . S
N1063 H1066 0.984 . S
N1063 H1067 0.985 . S
H1064 N1059 0.984 . S
H1065 N1059 0.985 . S
H1066 N1063 0.984 . S
H1067 N1063 0.985 . S
H1068 N1062 0.984 . S
H1069 N1062 0.984 . S
H1070 N1058 0.984 . S
H1071 N1058 0.985 . S
C641 C391 2.682 . S
C643 C489 2.872 1_545 S
C661 C529 2.891 . S
C659 C451 2.693 . S
C679 C569 2.896 . S
C677 C241 2.353 . S
C697 C609 2.878 1_455 S
C695 C331 2.320 1_455 S
C715 C498 2.873 1_564 S
C713 C121 2.315 . S
C731 C211 2.713 . S
C733 C538 2.892 1_554 S
C749 C31 2.720 . S
C751 C578 2.896 1_554 S
C767 C91 2.319 . S
C769 C618 2.877 1_654 S
C787 C495 0.813 . S
C785 C301 0.791 . S
C805 C535 0.808 . S
C803 C380 0.839 1_565 S
C823 C575 0.777 . S
C821 C440 0.792 . S
C839 C260 0.771 . S
C841 C615 0.777 . S
C857 C61 0.827 1_455 S
C859 C486 0.816 . S
C877 C526 0.808 . S
C875 C140 0.821 1_545 S
C895 C566 0.777 . S
C893 C200 0.780 . S
C911 C20 0.784 . S
C913 C606 0.785 . S
C929 C320 3.442 1_455 S
C931 C499 3.756 . S
C947 C361 2.954 . S
C949 C539 3.727 . S
C967 C579 3.718 . S
C965 C421 2.940 . S
C985 C619 3.752 . S
C983 C271 3.435 . S
C1001 C80 3.420 . S
C1003 C490 3.764 . S
C1021 C530 3.727 . S
C1019 C151 3.386 . S
C1039 C570 3.719 . S
C1037 C181 2.981 . S
C1055 C1 3.014 . S
C1057 C610 3.756 . S
