# Generated by pormake.
# Topology nom, (4,4)-cn, num edge types: 1
# Building blocks:
#     Node 0, Type 0, BuildingBlock: AZAVOO_clean_linker_0, # of connection points: 4
#     Node 1, Type 0, BuildingBlock: AZAVOO_clean_linker_0, # of connection points: 4
#     Node 2, Type 0, BuildingBlock: AZAVOO_clean_linker_0, # of connection points: 4
#     Node 3, Type 0, BuildingBlock: AZAVOO_clean_linker_0, # of connection points: 4
#     Node 4, Type 0, BuildingBlock: AZAVOO_clean_linker_0, # of connection points: 4
#     Node 5, Type 0, BuildingBlock: AZAVOO_clean_linker_0, # of connection points: 4
#     Node 6, Type 1, BuildingBlock: GALJAG_clean_sbu_0, # of connection points: 4
#     Node 7, Type 1, BuildingBlock: GALJAG_clean_sbu_0, # of connection points: 4
#     Node 8, Type 1, BuildingBlock: GALJAG_clean_sbu_0, # of connection points: 4
#     Node 9, Type 1, BuildingBlock: GALJAG_clean_sbu_0, # of connection points: 4
#     Node 10, Type 1, BuildingBlock: GALJAG_clean_sbu_0, # of connection points: 4
#     Node 11, Type 1, BuildingBlock: GALJAG_clean_sbu_0, # of connection points: 4
#     Edge 12, Type (0, 1), BuildingBlock: OJICUG_clean_linker_0, # of connection points: 2
#     Edge 13, Type (0, 1), BuildingBlock: OJICUG_clean_linker_0, # of connection points: 2
#     Edge 14, Type (0, 1), BuildingBlock: OJICUG_clean_linker_0, # of connection points: 2
#     Edge 15, Type (0, 1), BuildingBlock: OJICUG_clean_linker_0, # of connection points: 2
#     Edge 16, Type (0, 1), BuildingBlock: OJICUG_clean_linker_0, # of connection points: 2
#     Edge 17, Type (0, 1), BuildingBlock: OJICUG_clean_linker_0, # of connection points: 2
#     Edge 18, Type (0, 1), BuildingBlock: OJICUG_clean_linker_0, # of connection points: 2
#     Edge 19, Type (0, 1), BuildingBlock: OJICUG_clean_linker_0, # of connection points: 2
#     Edge 20, Type (0, 1), BuildingBlock: OJICUG_clean_linker_0, # of connection points: 2
#     Edge 21, Type (0, 1), BuildingBlock: OJICUG_clean_linker_0, # of connection points: 2
#     Edge 22, Type (0, 1), BuildingBlock: OJICUG_clean_linker_0, # of connection points: 2
#     Edge 23, Type (0, 1), BuildingBlock: OJICUG_clean_linker_0, # of connection points: 2
#     Edge 24, Type (0, 1), BuildingBlock: OJICUG_clean_linker_0, # of connection points: 2
#     Edge 25, Type (0, 1), BuildingBlock: OJICUG_clean_linker_0, # of connection points: 2
#     Edge 26, Type (0, 1), BuildingBlock: OJICUG_clean_linker_0, # of connection points: 2
#     Edge 27, Type (0, 1), BuildingBlock: OJICUG_clean_linker_0, # of connection points: 2
#     Edge 28, Type (0, 1), BuildingBlock: OJICUG_clean_linker_0, # of connection points: 2
#     Edge 29, Type (0, 1), BuildingBlock: OJICUG_clean_linker_0, # of connection points: 2
#     Edge 30, Type (0, 1), BuildingBlock: OJICUG_clean_linker_0, # of connection points: 2
#     Edge 31, Type (0, 1), BuildingBlock: OJICUG_clean_linker_0, # of connection points: 2
#     Edge 32, Type (0, 1), BuildingBlock: OJICUG_clean_linker_0, # of connection points: 2
#     Edge 33, Type (0, 1), BuildingBlock: OJICUG_clean_linker_0, # of connection points: 2
#     Edge 34, Type (0, 1), BuildingBlock: OJICUG_clean_linker_0, # of connection points: 2
#     Edge 35, Type (0, 1), BuildingBlock: OJICUG_clean_linker_0, # of connection points: 2
# Relax obj value: 0.125
# Max RMSD: 0.221
# Mean RMSD: 0.143
data_MOF--net-nom--node1-GALJAG_clean_sbu_0--node2-AZAVOO_clean_linker_0--edge1-OJICUG_clean_linker_0
_symmetry_space_group_name_H-M    P1
_symmetry_Int_Tables_number       1
_symmetry_cell_setting            triclinic
loop_
_symmetry_equiv_pos_as_xyz
'x, y, z'
_cell_length_a     37.517434
_cell_length_b     38.207083
_cell_length_c     47.148234
_cell_angle_alpha  90.141396
_cell_angle_beta   89.992734
_cell_angle_gamma 122.35123
loop_
_atom_site_label
_atom_site_type_symbol
_atom_site_fract_x
_atom_site_fract_y
_atom_site_fract_z
_atom_type_partial_charge
H0 H 0.09877 0.61642 0.11438 0.0
H1 H 0.28094 0.77645 0.42926 0.0
H2 H 0.99379 0.53982 0.27647 0.0
H3 H 0.9498 0.50148 0.23587 0.0
H4 H 0.96979 0.61549 0.20134 0.0
H5 H 0.01081 0.65272 0.2432 0.0
H6 H 0.07275 0.58452 0.23622 0.0
H7 H 0.08078 0.58598 0.18467 0.0
H8 H 0.11655 0.71402 0.1839 0.0
H9 H 0.10776 0.71191 0.23546 0.0
H10 H 0.16141 0.63597 0.26556 0.0
H11 H 0.23492 0.6742 0.24961 0.0
H12 H 0.24531 0.78965 0.27006 0.0
H13 H 0.17149 0.75105 0.28572 0.0
H14 H 0.16262 0.63361 0.33176 0.0
H15 H 0.21975 0.6616 0.36675 0.0
H16 H 0.20321 0.76353 0.38292 0.0
H17 H 0.14625 0.73522 0.34782 0.0
H18 H 0.0715 0.57339 0.35171 0.0
H19 H 0.09584 0.57025 0.39877 0.0
H20 H 0.09153 0.67693 0.42391 0.0
H21 H 0.06903 0.68079 0.37591 0.0
H22 H 0.98078 0.54037 0.32863 0.0
H23 H 0.91027 0.51213 0.3491 0.0
H24 H 0.92837 0.63361 0.3454 0.0
H25 H -0.00164 0.66132 0.32466 0.0
O26 O 0.09598 0.6166 0.13479 0.0
O27 O 0.11486 0.68258 0.13558 0.0
O28 O 0.26749 0.71307 0.405 0.0
O29 O 0.25944 0.76545 0.41464 0.0
C30 C 0.04187 0.62328 0.28236 0.0
C31 C 0.08304 0.6465 0.27069 0.0
C32 C 0.11837 0.66746 0.28872 0.0
C33 C 0.11306 0.66317 0.3183 0.0
C34 C 0.07224 0.63857 0.32999 0.0
C35 C 0.03654 0.62041 0.31215 0.0
C36 C 0.00544 0.59908 0.26291 0.0
C37 C 0.98682 0.55611 0.26087 0.0
C38 C 0.96257 0.53442 0.23717 0.0
C39 C 0.95715 0.55545 0.21475 0.0
C40 C 0.97298 0.598 0.21807 0.0
C41 C 0.99645 0.61947 0.24209 0.0
C42 C 0.08943 0.64802 0.2395 0.0
C43 C 0.08224 0.61281 0.22485 0.0
C44 C 0.08691 0.61377 0.19542 0.0
C45 C 0.09923 0.6501 0.18014 0.0
C46 C 0.10696 0.68552 0.19501 0.0
C47 C 0.1021 0.68446 0.22444 0.0
C48 C 0.16142 0.69087 0.27676 0.0
C49 C 0.17944 0.66953 0.26615 0.0
C50 C 0.22133 0.69134 0.25719 0.0
C51 C 0.24574 0.73483 0.25871 0.0
C52 C 0.22704 0.75617 0.2684 0.0
C53 C 0.18513 0.73427 0.27748 0.0
C54 C 0.15047 0.68247 0.3373 0.0
C55 C 0.17184 0.66229 0.34262 0.0
C56 C 0.20427 0.67823 0.36271 0.0
C57 C 0.21589 0.71471 0.37776 0.0
C58 C 0.195 0.73535 0.37179 0.0
C59 C 0.1626 0.71938 0.35167 0.0
C60 C 0.06866 0.62738 0.36038 0.0
C61 C 0.07393 0.59492 0.36777 0.0
C62 C 0.08817 0.59337 0.39479 0.0
C63 C 0.0968 0.624 0.41511 0.0
C64 C 0.08648 0.65356 0.40857 0.0
C65 C 0.0727 0.65535 0.38133 0.0
C66 C 0.99421 0.60267 0.32477 0.0
C67 C 0.96931 0.5607 0.3321 0.0
C68 C 0.92923 0.54474 0.34384 0.0
C69 C 0.91388 0.57073 0.34883 0.0
C70 C 0.9395 0.61297 0.34205 0.0
C71 C 0.97926 0.62873 0.33002 0.0
C72 C 0.10389 0.65091 0.14885 0.0
C73 C 0.24923 0.73093 0.39988 0.0
H74 H 0.60179 0.11249 0.3079 0.0
H75 H 0.5581 0.27744 0.5976 0.0
H76 H 0.57648 0.02054 0.45797 0.0
H77 H 0.57705 0.98389 0.41553 0.0
H78 H 0.44854 0.94679 0.39758 0.0
H79 H 0.4481 0.98323 0.44036 0.0
H80 H 0.60602 0.10684 0.43183 0.0
H81 H 0.61708 0.11447 0.38044 0.0
H82 H 0.48493 0.06918 0.36841 0.0
H83 H 0.47446 0.06191 0.41982 0.0
H84 H 0.62178 0.17622 0.4805 0.0
H85 H 0.64865 0.24609 0.46245 0.0
H86 H 0.52369 0.2065 0.43222 0.0
H87 H 0.49738 0.13661 0.45 0.0
H88 H 0.60393 0.14449 0.54336 0.0
H89 H 0.62091 0.20128 0.57603 0.0
H90 H 0.51046 0.19948 0.54728 0.0
H91 H 0.49338 0.14211 0.51517 0.0
H92 H 0.57222 0.04974 0.54995 0.0
H93 H 0.58997 0.06731 0.60001 0.0
H94 H 0.48748 0.08734 0.60826 0.0
H95 H 0.46946 0.06891 0.55833 0.0
H96 H 0.53273 0.97279 0.50365 0.0
H97 H 0.48864 0.89999 0.51818 0.0
H98 H 0.38719 0.91818 0.53809 0.0
H99 H 0.43111 0.99037 0.52337 0.0
O100 O 0.5969 0.10991 0.32817 0.0
O101 O 0.52871 0.08634 0.32316 0.0
O102 O 0.6077 0.25366 0.59972 0.0
O103 O 0.55217 0.25501 0.58489 0.0
C104 C 0.51715 0.03699 0.47169 0.0
C105 C 0.53236 0.07679 0.46039 0.0
C106 C 0.54128 0.10985 0.47846 0.0
C107 C 0.53611 0.10355 0.50798 0.0
C108 C 0.5202 0.0635 0.51931 0.0
C109 C 0.50929 0.02981 0.50106 0.0
C110 C 0.51215 0.00424 0.45225 0.0
C111 C 0.54782 0.00286 0.44559 0.0
C112 C 0.5482 0.98216 0.42128 0.0
C113 C 0.51305 0.96308 0.40315 0.0
C114 C 0.47617 0.96168 0.41113 0.0
C115 C 0.47566 0.98197 0.43566 0.0
C116 C 0.53949 0.08384 0.42941 0.0
C117 C 0.57964 0.09894 0.41802 0.0
C118 C 0.58579 0.10311 0.38868 0.0
C119 C 0.55184 0.09229 0.3703 0.0
C120 C 0.51173 0.07773 0.38194 0.0
C121 C 0.50567 0.07363 0.41127 0.0
C122 C 0.55771 0.15158 0.46654 0.0
C123 C 0.60037 0.18272 0.46983 0.0
C124 C 0.61555 0.22255 0.45964 0.0
C125 C 0.58825 0.23183 0.44597 0.0
C126 C 0.54561 0.20021 0.44231 0.0
C127 C 0.53048 0.16039 0.45254 0.0
C128 C 0.54733 0.13909 0.52703 0.0
C129 C 0.58342 0.15636 0.54421 0.0
C130 C 0.59306 0.18883 0.5628 0.0
C131 C 0.567 0.20491 0.56428 0.0
C132 C 0.53116 0.18782 0.54671 0.0
C133 C 0.5214 0.15515 0.52828 0.0
C134 C 0.51995 0.05863 0.55049 0.0
C135 C 0.55236 0.05597 0.56291 0.0
C136 C 0.56279 0.06654 0.59139 0.0
C137 C 0.54076 0.07967 0.60781 0.0
C138 C 0.50504 0.07735 0.59616 0.0
C139 C 0.49461 0.06675 0.56765 0.0
C140 C 0.48499 0.98681 0.51216 0.0
C141 C 0.501 0.96099 0.51116 0.0
C142 C 0.4758 0.91947 0.51947 0.0
C143 C 0.43437 0.90328 0.52923 0.0
C144 C 0.41909 0.92973 0.53104 0.0
C145 C 0.44412 0.97099 0.52255 0.0
C146 C 0.55828 0.09597 0.33912 0.0
C147 C 0.57699 0.23931 0.58406 0.0
H148 H 0.47552 0.44515 0.82499 0.0
H149 H 0.50547 0.29352 0.51778 0.0
H150 H 0.47877 0.52937 0.67372 0.0
H151 H 0.47565 0.55757 0.71928 0.0
H152 H 0.35207 0.44832 0.73399 0.0
H153 H 0.3544 0.42181 0.68729 0.0
H154 H 0.50401 0.47298 0.70297 0.0
H155 H 0.50483 0.47018 0.75481 0.0
H156 H 0.37764 0.36234 0.75351 0.0
H157 H 0.37717 0.36583 0.70165 0.0
H158 H 0.53617 0.42945 0.65116 0.0
H159 H 0.56648 0.3944 0.67413 0.0
H160 H 0.44171 0.29647 0.70061 0.0
H161 H 0.41145 0.33019 0.67498 0.0
H162 H 0.53785 0.45218 0.59798 0.0
H163 H 0.56411 0.42319 0.56362 0.0
H164 H 0.44287 0.30756 0.56448 0.0
H165 H 0.41674 0.33731 0.59844 0.0
H166 H 0.5165 0.51632 0.5957 0.0
H167 H 0.55595 0.5309 0.55187 0.0
H168 H 0.44919 0.42204 0.51359 0.0
H169 H 0.41118 0.40634 0.5585 0.0
H170 H 0.46822 0.54366 0.62512 0.0
H171 H 0.43736 0.58265 0.60856 0.0
H172 H 0.32284 0.46777 0.58585 0.0
H173 H 0.35379 0.42914 0.60274 0.0
O174 O 0.47497 0.44493 0.80445 0.0
O175 O 0.41054 0.38811 0.80264 0.0
O176 O 0.55682 0.36657 0.53057 0.0
O177 O 0.49593 0.30567 0.53145 0.0
C178 C 0.42649 0.45053 0.65662 0.0
C179 C 0.439 0.42415 0.66747 0.0
C180 C 0.4542 0.40594 0.64906 0.0
C181 C 0.45839 0.41538 0.61988 0.0
C182 C 0.44734 0.44302 0.60921 0.0
C183 C 0.42983 0.45931 0.62736 0.0
C184 C 0.41675 0.47362 0.67715 0.0
C185 C 0.44991 0.51276 0.68594 0.0
C186 C 0.44855 0.52825 0.71241 0.0
C187 C 0.41432 0.50445 0.73074 0.0
C188 C 0.37902 0.4674 0.7205 0.0
C189 C 0.3801 0.4523 0.69368 0.0
C190 C 0.4406 0.41954 0.69866 0.0
C191 C 0.47658 0.44851 0.71395 0.0
C192 C 0.47687 0.44693 0.74354 0.0
C193 C 0.44124 0.41612 0.75831 0.0
C194 C 0.40559 0.38649 0.74279 0.0
C195 C 0.40529 0.38825 0.7132 0.0
C196 C 0.47159 0.38224 0.66115 0.0
C197 C 0.51529 0.39984 0.66123 0.0
C198 C 0.53261 0.3801 0.67501 0.0
C199 C 0.50673 0.34286 0.68988 0.0
C200 C 0.46272 0.32488 0.68929 0.0
C201 C 0.44532 0.34423 0.67482 0.0
C202 C 0.47528 0.39695 0.60047 0.0
C203 C 0.51699 0.42064 0.59066 0.0
C204 C 0.53193 0.40397 0.57109 0.0
C205 C 0.50553 0.36306 0.56122 0.0
C206 C 0.464 0.33917 0.57158 0.0
C207 C 0.44902 0.35601 0.59104 0.0
C208 C 0.46134 0.45995 0.58035 0.0
C209 C 0.50097 0.49665 0.57744 0.0
C210 C 0.52361 0.50484 0.55225 0.0
C211 C 0.50647 0.47678 0.52941 0.0
C212 C 0.4641 0.44339 0.53115 0.0
C213 C 0.44186 0.43473 0.55659 0.0
C214 C 0.41296 0.48357 0.61555 0.0
C215 C 0.43646 0.52698 0.61665 0.0
C216 C 0.4188 0.54915 0.60715 0.0
C217 C 0.37756 0.52826 0.59603 0.0
C218 C 0.35476 0.48479 0.59408 0.0
C219 C 0.37229 0.46267 0.60383 0.0
C220 C 0.44119 0.41535 0.78978 0.0
C221 C 0.52113 0.34537 0.54018 0.0
H222 H 0.08757 0.58865 0.99735 0.0
H223 H 0.27018 0.60467 0.69489 0.0
H224 H 0.99496 0.5712 0.855 0.0
H225 H 0.95555 0.55279 0.89939 0.0
H226 H 0.92845 0.42808 0.89182 0.0
H227 H 0.96839 0.44703 0.84735 0.0
H228 H 0.08949 0.61197 0.87456 0.0
H229 H 0.09397 0.61482 0.92645 0.0
H230 H 0.04906 0.48435 0.92831 0.0
H231 H 0.04529 0.48215 0.87649 0.0
H232 H 0.16674 0.63849 0.82676 0.0
H233 H 0.23578 0.65906 0.84704 0.0
H234 H 0.18779 0.53084 0.8669 0.0
H235 H 0.11966 0.51086 0.84671 0.0
H236 H 0.13095 0.63086 0.76427 0.0
H237 H 0.18872 0.65604 0.73011 0.0
H238 H 0.19511 0.54815 0.7463 0.0
H239 H 0.13702 0.52316 0.78018 0.0
H240 H 0.04032 0.58924 0.74754 0.0
H241 H 0.06414 0.60603 0.69832 0.0
H242 H 0.08256 0.50367 0.69609 0.0
H243 H 0.05807 0.48682 0.74498 0.0
H244 H 0.95009 0.53364 0.798 0.0
H245 H 0.87699 0.48366 0.78359 0.0
H246 H 0.91222 0.39708 0.75905 0.0
H247 H 0.98481 0.44706 0.77335 0.0
O248 O 0.08637 0.58707 0.97685 0.0
O249 O 0.06248 0.51979 0.9766 0.0
O250 O 0.24268 0.65031 0.70076 0.0
O251 O 0.24803 0.59596 0.70881 0.0
C252 C 0.02077 0.52587 0.82851 0.0
C253 C 0.06151 0.54459 0.84053 0.0
C254 C 0.097 0.55986 0.82289 0.0
C255 C 0.09222 0.55819 0.79325 0.0
C256 C 0.05137 0.53844 0.78113 0.0
C257 C 0.01544 0.52114 0.79877 0.0
C258 C 0.98449 0.51045 0.84803 0.0
C259 C 0.97882 0.5394 0.86224 0.0
C260 C 0.95659 0.5289 0.88773 0.0
C261 C 0.93973 0.48925 0.89936 0.0
C262 C 0.94185 0.4591 0.88358 0.0
C263 C 0.96394 0.46961 0.85795 0.0
C264 C 0.06678 0.54682 0.87187 0.0
C265 C 0.08099 0.58418 0.88625 0.0
C266 C 0.08336 0.58564 0.91586 0.0
C267 C 0.07163 0.54975 0.93154 0.0
C268 C 0.05818 0.51253 0.91692 0.0
C269 C 0.05598 0.51117 0.88734 0.0
C270 C 0.1384 0.57329 0.83554 0.0
C271 C 0.17133 0.61508 0.83569 0.0
C272 C 0.21052 0.6267 0.84722 0.0
C273 C 0.21686 0.59659 0.85886 0.0
C274 C 0.18353 0.55484 0.85872 0.0
C275 C 0.14471 0.54332 0.84708 0.0
C276 C 0.12988 0.57523 0.77464 0.0
C277 C 0.14514 0.61292 0.76056 0.0
C278 C 0.17804 0.62715 0.74102 0.0
C279 C 0.19639 0.60398 0.73536 0.0
C280 C 0.18163 0.56669 0.75009 0.0
C281 C 0.14864 0.55245 0.76957 0.0
C282 C 0.04769 0.53697 0.74981 0.0
C283 C 0.04729 0.56911 0.73589 0.0
C284 C 0.06157 0.57906 0.70794 0.0
C285 C 0.07621 0.5568 0.69359 0.0
C286 C 0.07145 0.52139 0.70649 0.0
C287 C 0.05718 0.5115 0.73442 0.0
C288 C 0.97272 0.49399 0.78663 0.0
C289 C 0.94203 0.50413 0.78907 0.0
C290 C 0.90034 0.47549 0.78097 0.0
C291 C 0.8888 0.43635 0.77027 0.0
C292 C 0.92013 0.42712 0.7668 0.0
C293 C 0.96165 0.45565 0.77498 0.0
C294 C 0.0732 0.55113 0.963 0.0
C295 C 0.23045 0.61831 0.71396 0.0
H296 H 0.58568 0.96415 0.79681 0.0
H297 H 0.63888 0.80805 0.08342 0.0
H298 H 0.60373 0.05753 0.95188 0.0
H299 H 0.59834 0.09833 0.91423 0.0
H300 H 0.7265 0.14271 0.88903 0.0
H301 H 0.73133 0.10133 0.92674 0.0
H302 H 0.58267 0.97564 0.92048 0.0
H303 H 0.57118 0.96579 0.86918 0.0
H304 H 0.70374 0.01288 0.85729 0.0
H305 H 0.71466 0.02251 0.90866 0.0
H306 H 0.56883 0.91095 0.97099 0.0
H307 H 0.53838 0.83971 0.95479 0.0
H308 H 0.65873 0.87251 0.91967 0.0
H309 H 0.68959 0.94431 0.93664 0.0
H310 H 0.58313 0.93332 0.02943 0.0
H311 H 0.56783 0.87573 0.0605 0.0
H312 H 0.68628 0.89024 0.03645 0.0
H313 H 0.70145 0.94825 0.00576 0.0
H314 H 0.59949 0.01704 0.03493 0.0
H315 H 0.58276 0.00663 0.08502 0.0
H316 H 0.70234 0.01859 0.10178 0.0
H317 H 0.71738 0.02648 0.05082 0.0
H318 H 0.62718 0.08644 0.00433 0.0
H319 H 0.65498 0.15598 0.02379 0.0
H320 H 0.78097 0.17869 0.02224 0.0
H321 H 0.75265 0.10892 0.00343 0.0
O322 O 0.59084 0.96797 0.81705 0.0
O323 O 0.65918 0.99217 0.81209 0.0
O324 O 0.58406 0.8252 0.08343 0.0
O325 O 0.64429 0.83091 0.07144 0.0
C326 C 0.6673 0.04538 0.96075 0.0
C327 C 0.65644 0.00686 0.9491 0.0
C328 C 0.64938 0.97439 0.96708 0.0
C329 C 0.65293 0.98024 0.99677 0.0
C330 C 0.66368 0.01878 0.00839 0.0
C331 C 0.67203 0.0516 0.99031 0.0
C332 C 0.668 0.07678 0.94207 0.0
C333 C 0.63104 0.0771 0.93876 0.0
C334 C 0.62801 0.10035 0.91722 0.0
C335 C 0.66186 0.12344 0.8985 0.0
C336 C 0.69969 0.12476 0.90289 0.0
C337 C 0.70272 0.10155 0.92453 0.0
C338 C 0.64943 -0.00033 0.91813 0.0
C339 C 0.60908 0.98359 0.90671 0.0
C340 C 0.60266 0.9781 0.87743 0.0
C341 C 0.63656 0.98859 0.85912 0.0
C342 C 0.67696 0.00449 0.87078 0.0
C343 C 0.6833 0.00996 0.90007 0.0
C344 C 0.63143 0.93236 0.95533 0.0
C345 C 0.58866 0.90279 0.95984 0.0
C346 C 0.57139 0.8623 0.9506 0.0
C347 C 0.5965 0.85088 0.93635 0.0
C348 C 0.63898 0.88086 0.9307 0.0
C349 C 0.65651 0.92155 0.94035 0.0
C350 C 0.64367 0.94529 0.01568 0.0
C351 C 0.60593 0.9243 0.03115 0.0
C352 C 0.59718 0.89128 0.04876 0.0
C353 C 0.62591 0.87844 0.05102 0.0
C354 C 0.66354 0.89939 0.03527 0.0
C355 C 0.67231 0.93252 0.01773 0.0
C356 C 0.65953 0.02239 0.03932 0.0
C357 C 0.62258 0.01855 0.04955 0.0
C358 C 0.6132 0.01276 0.07838 0.0
C359 C 0.64098 0.01135 0.09775 0.0
C360 C 0.67969 0.0185 0.08753 0.0
C361 C 0.68867 0.02355 0.05848 0.0
C362 C 0.68808 0.09309 0.00232 0.0
C363 C 0.66072 0.10653 0.0083 0.0
C364 C 0.67667 0.14616 0.01935 0.0
C365 C 0.72019 0.17281 0.02451 0.0
C366 C 0.74727 0.15872 0.01889 0.0
C367 C 0.73127 0.11912 0.00791 0.0
C368 C 0.62971 0.98306 0.828 0.0
C369 C 0.61667 0.84326 0.06963 0.0
H370 H 0.49924 0.44187 0.9766 0.0
H371 H 0.72238 0.50951 0.27185 0.0
H372 H 0.46494 0.51391 0.11744 0.0
H373 H 0.43497 0.51169 0.07102 0.0
H374 H 0.54719 0.62929 0.05005 0.0
H375 H 0.57712 0.63096 0.09654 0.0
H376 H 0.50454 0.46384 0.09976 0.0
H377 H 0.49294 0.44252 0.04984 0.0
H378 H 0.59832 0.5635 0.02618 0.0
H379 H 0.60952 0.58429 0.07612 0.0
H380 H 0.56183 0.44835 0.14858 0.0
H381 H 0.59937 0.41604 0.13081 0.0
H382 H 0.69199 0.53195 0.09149 0.0
H383 H 0.6548 0.56372 0.10939 0.0
H384 H 0.54891 0.47831 0.20791 0.0
H385 H 0.58171 0.45919 0.24449 0.0
H386 H 0.70504 0.55339 0.21349 0.0
H387 H 0.67177 0.57203 0.17691 0.0
H388 H 0.5106 0.53297 0.21674 0.0
H389 H 0.52029 0.52658 0.2673 0.0
H390 H 0.65441 0.61391 0.25799 0.0
H391 H 0.64412 0.62101 0.20782 0.0
H392 H 0.47971 0.57512 0.16421 0.0
H393 H 0.47009 0.63093 0.17994 0.0
H394 H 0.60529 0.71348 0.18749 0.0
H395 H 0.61456 0.65794 0.17174 0.0
O396 O 0.5049 0.45058 0.99623 0.0
O397 O 0.55912 0.51336 0.98523 0.0
O398 O 0.64444 0.46775 0.27221 0.0
O399 O 0.70862 0.51556 0.25702 0.0
C400 C 0.54721 0.56384 0.13073 0.0
C401 C 0.56286 0.53931 0.1215 0.0
C402 C 0.58413 0.5285 0.14061 0.0
C403 C 0.58795 0.54024 0.16925 0.0
C404 C 0.57361 0.56599 0.17825 0.0
C405 C 0.5547 0.57918 0.15874 0.0
C406 C 0.5232 0.57251 0.11021 0.0
C407 C 0.48204 0.54026 0.10341 0.0
C408 C 0.4652 0.53878 0.07675 0.0
C409 C 0.48936 0.56969 0.05669 0.0
C410 C 0.5284 0.60455 0.06494 0.0
C411 C 0.54517 0.60604 0.09167 0.0
C412 C 0.55767 0.52561 0.09144 0.0
C413 C 0.52523 0.48551 0.08374 0.0
C414 C 0.51863 0.47351 0.05523 0.0
C415 C 0.54456 0.5014 0.034 0.0
C416 C 0.57768 0.54131 0.04196 0.0
C417 C 0.58418 0.55325 0.07045 0.0
C418 C 0.6056 0.50815 0.12999 0.0
C419 C 0.59017 0.4665 0.13605 0.0
C420 C 0.61152 0.44822 0.12594 0.0
C421 C 0.64815 0.47141 0.10948 0.0
C422 C 0.6633 0.51311 0.10357 0.0
C423 C 0.64228 0.53134 0.11385 0.0
C424 C 0.608 0.52652 0.18983 0.0
C425 C 0.58299 0.49449 0.20891 0.0
C426 C 0.60181 0.48377 0.22984 0.0
C427 C 0.64602 0.50503 0.23208 0.0
C428 C 0.67094 0.53651 0.21244 0.0
C429 C 0.65205 0.5471 0.19145 0.0
C430 C 0.5768 0.57675 0.20867 0.0
C431 C 0.54167 0.55251 0.22601 0.0
C432 C 0.54736 0.54852 0.25478 0.0
C433 C 0.58826 0.56867 0.26633 0.0
C434 C 0.62252 0.59786 0.24974 0.0
C435 C 0.61673 0.60204 0.22102 0.0
C436 C 0.5478 0.61251 0.16695 0.0
C437 C 0.50715 0.60537 0.16905 0.0
C438 C 0.50176 0.63721 0.17802 0.0
C439 C 0.53697 0.67642 0.18517 0.0
C440 C 0.57758 0.68343 0.18262 0.0
C441 C 0.58291 0.65181 0.17351 0.0
C442 C 0.53682 0.48896 0.00368 0.0
C443 C 0.66614 0.49482 0.25497 0.0
In444 In 0.66177 0.47491 0.40015 0.0
O445 O 0.73289 0.51865 0.40846 0.0
O446 O 0.71251 0.48013 0.37163 0.0
C447 C 0.6168 0.47976 0.44247 0.0
C448 C 0.63598 0.50495 0.3592 0.0
C449 C 0.64311 0.39846 0.41205 0.0
O450 O 0.65574 0.50702 0.43964 0.0
O451 O 0.60168 0.45101 0.42436 0.0
O452 O 0.62985 0.40642 0.38979 0.0
O453 O 0.66621 0.42926 0.42792 0.0
C454 C 0.74309 0.50701 0.38638 0.0
O455 O 0.62358 0.46703 0.36061 0.0
O456 O 0.662 0.52769 0.37812 0.0
In457 In 0.24934 0.65022 0.55693 0.0
O458 O 0.27405 0.60885 0.54399 0.0
O459 O 0.28986 0.63641 0.58489 0.0
C460 C 0.2004 0.64092 0.51174 0.0
C461 C 0.19077 0.62157 0.59859 0.0
C462 C 0.31354 0.72971 0.55103 0.0
O463 O 0.2072 0.61322 0.51905 0.0
O464 O 0.21864 0.67314 0.52685 0.0
O465 O 0.28698 0.71778 0.57094 0.0
O466 O 0.30797 0.70138 0.53421 0.0
C467 C 0.29291 0.61338 0.5672 0.0
O468 O 0.22117 0.6588 0.59739 0.0
O469 O 0.19002 0.59886 0.57888 0.0
In470 In 0.63669 0.23542 0.75147 0.0
O471 O 0.70391 0.27567 0.7348 0.0
O472 O 0.68795 0.29375 0.77325 0.0
C473 C 0.60856 0.18055 0.70831 0.0
C474 C 0.63861 0.19605 0.7983 0.0
C475 C 0.59111 0.26972 0.7411 0.0
O476 O 0.64561 0.2122 0.70905 0.0
O477 O 0.58607 0.17643 0.72945 0.0
O478 O 0.57506 0.23487 0.75296 0.0
O479 O 0.62968 0.28718 0.73529 0.0
C480 C 0.71596 0.30143 0.75504 0.0
O481 O 0.62068 0.21618 0.79814 0.0
O482 O 0.65408 0.19496 0.77486 0.0
In483 In 0.43642 0.6012 0.89427 0.0
O484 O 0.37133 0.58639 0.90588 0.0
O485 O 0.40566 0.63319 0.87491 0.0
C486 C 0.44327 0.56361 0.94009 0.0
C487 C 0.42954 0.55841 0.84691 0.0
C488 C 0.49765 0.6797 0.90627 0.0
O489 O 0.41025 0.56324 0.93436 0.0
O490 O 0.4714 0.57952 0.92117 0.0
O491 O 0.4935 0.66481 0.88166 0.0
O492 O 0.47104 0.65521 0.92409 0.0
C493 C 0.37212 0.61244 0.88908 0.0
O494 O 0.46481 0.58641 0.85674 0.0
O495 O 0.39829 0.55049 0.86184 0.0
In496 In 0.83465 0.42665 0.06356 0.0
O497 O 0.87583 0.43641 0.10245 0.0
O498 O 0.86799 0.48537 0.09044 0.0
C499 C 0.79604 0.34453 0.05515 0.0
C500 C 0.76572 0.42806 0.07539 0.0
C501 C 0.87816 0.45666 0.01464 0.0
O502 O 0.82683 0.36386 0.07202 0.0
O503 O 0.78509 0.36658 0.04293 0.0
O504 O 0.85117 0.46433 0.023 0.0
O505 O 0.8852 0.43573 0.03177 0.0
C506 C 0.8831 0.47198 0.10806 0.0
O507 O 0.78749 0.44417 0.05332 0.0
O508 O 0.7786 0.41077 0.09157 0.0
In509 In 0.51025 0.87222 0.23987 0.0
O510 O 0.53809 0.83218 0.24482 0.0
O511 O 0.49744 0.82066 0.20962 0.0
C512 C 0.52431 0.90949 0.29087 0.0
C513 C 0.56156 0.93067 0.20228 0.0
C514 C 0.42565 0.82752 0.242 0.0
O515 O 0.5327 0.88211 0.28612 0.0
O516 O 0.51129 0.91937 0.2696 0.0
O517 O 0.44554 0.85781 0.22527 0.0
O518 O 0.44846 0.82006 0.2572 0.0
C519 C 0.51989 0.81067 0.22292 0.0
O520 O 0.52331 0.91905 0.20517 0.0
O521 O 0.57421 0.91368 0.21887 0.0
C522 C 0.311 0.79402 0.23633 0.0
C523 C 0.29142 0.75755 0.25256 0.0
H524 H 0.36921 0.84473 0.21985 0.0
C525 C 0.3161 0.74366 0.26421 0.0
H526 H 0.29256 0.80525 0.22704 0.0
C527 C 0.35962 0.76618 0.26028 0.0
C528 C 0.37936 0.80293 0.24444 0.0
H529 H 0.30192 0.71597 0.27713 0.0
H530 H 0.37786 0.75501 0.26998 0.0
C531 C 0.35469 0.81644 0.23214 0.0
C532 C 0.59071 0.28196 0.41043 0.0
C533 C 0.60385 0.27466 0.43648 0.0
H534 H 0.59311 0.32697 0.38215 0.0
C535 C 0.63114 0.30858 0.45387 0.0
H536 H 0.57007 0.25649 0.39643 0.0
C537 C 0.64452 0.34884 0.44561 0.0
C538 C 0.63084 0.35606 0.41982 0.0
H539 H 0.64135 0.30396 0.47423 0.0
H540 H 0.66501 0.37425 0.45971 0.0
C541 C 0.60409 0.3223 0.40218 0.0
C542 C 0.33365 0.5415 0.56261 0.0
C543 C 0.3576 0.55146 0.58767 0.0
H544 H 0.29478 0.55358 0.53627 0.0
C545 C 0.36104 0.58277 0.60538 0.0
H546 H 0.33067 0.51771 0.54843 0.0
C547 C 0.34035 0.60307 0.59851 0.0
C548 C 0.31603 0.59281 0.57364 0.0
H549 H 0.37883 0.59084 0.62498 0.0
H550 H 0.34312 0.62659 0.61286 0.0
C551 C 0.31326 0.56213 0.55558 0.0
C552 C 0.83229 0.37721 0.74132 0.0
C553 C 0.8439 0.40395 0.76482 0.0
H554 H 0.7826 0.32383 0.71971 0.0
C555 C 0.81264 0.3977 0.78427 0.0
H556 H 0.8556 0.38148 0.72582 0.0
C557 C 0.77096 0.36482 0.78075 0.0
C558 C 0.7596 0.33746 0.75769 0.0
H559 H 0.82063 0.41734 0.80281 0.0
H560 H 0.7478 0.36036 0.79643 0.0
C561 C 0.79052 0.34429 0.73778 0.0
C562 C 0.55734 0.7769 0.94966 0.0
C563 C 0.57785 0.80714 0.92865 0.0
H564 H 0.51634 0.71273 0.95893 0.0
C565 C 0.57624 0.79504 0.9003 0.0
H566 H 0.55868 0.78567 0.9717 0.0
C567 C 0.55172 0.75305 0.89286 0.0
C568 C 0.52884 0.72305 0.91377 0.0
H569 H 0.5919 0.81808 0.88382 0.0
H570 H 0.54903 0.74431 0.87072 0.0
C571 C 0.53312 0.73524 0.9423 0.0
C572 C 0.6881 0.46138 0.0716 0.0
C573 C 0.67216 0.45342 0.09936 0.0
H574 H 0.73013 0.45918 0.04219 0.0
C575 C 0.68318 0.43225 0.11814 0.0
H576 H 0.67947 0.47708 0.05661 0.0
C577 C 0.71212 0.42184 0.10985 0.0
C578 C 0.73031 0.43253 0.08273 0.0
H579 H 0.6714 0.42593 0.13969 0.0
H580 H 0.7218 0.40736 0.12513 0.0
C581 C 0.71698 0.45108 0.06336 0.0
C582 C 0.4042 0.82799 0.51858 0.0
C583 C 0.40625 0.85864 0.53634 0.0
H584 H 0.37321 0.76316 0.50925 0.0
C585 C 0.37927 0.84628 0.55995 0.0
H586 H 0.42425 0.83649 0.50006 0.0
C587 C 0.34998 0.80433 0.56516 0.0
C588 C 0.34694 0.77379 0.54683 0.0
H589 H 0.38045 0.86911 0.57425 0.0
H590 H 0.32911 0.7959 0.58321 0.0
C591 C 0.3748 0.786 0.52374 0.0
C592 C 0.56597 0.34846 0.71866 0.0
C593 C 0.526 0.32345 0.70599 0.0
H594 H 0.61788 0.35083 0.73956 0.0
C595 C 0.50566 0.28006 0.70803 0.0
H596 H 0.5821 0.38191 0.71855 0.0
C597 C 0.52569 0.26231 0.72126 0.0
C598 C 0.56668 0.28761 0.73209 0.0
H599 H 0.47506 0.2597 0.69841 0.0
H600 H 0.51016 0.22889 0.72152 0.0
C601 C 0.58633 0.33074 0.73112 0.0
C602 C 0.29507 0.63272 0.85344 0.0
C603 C 0.25858 0.60754 0.86958 0.0
H604 H 0.36019 0.65426 0.84715 0.0
C605 C 0.26143 0.5888 0.89434 0.0
H606 H 0.29367 0.64736 0.83419 0.0
C607 C 0.29923 0.59239 0.90158 0.0
C608 C 0.33488 0.61499 0.88427 0.0
H609 H 0.2339 0.56984 0.90743 0.0
H610 H 0.29999 0.57597 0.92004 0.0
C611 C 0.33303 0.63649 0.86078 0.0
C612 C 0.77056 0.23445 0.0543 0.0
C613 C 0.73773 0.21593 0.0342 0.0
H614 H 0.8148 0.28986 0.07687 0.0
C615 C 0.72313 0.2396 0.02221 0.0
H616 H 0.78212 0.21679 0.06414 0.0
C617 C 0.74159 0.28113 0.02959 0.0
C618 C 0.77512 0.29993 0.04908 0.0
H619 H 0.69831 0.22643 0.00639 0.0
H620 H 0.73012 0.29872 0.01953 0.0
C621 C 0.78912 0.27614 0.06168 0.0
C622 C 0.50393 0.71845 0.18145 0.0
C623 C 0.53173 0.71014 0.1953 0.0
H624 H 0.47872 0.75707 0.17921 0.0
C625 C 0.55532 0.73491 0.21854 0.0
H626 H 0.48568 0.70014 0.16333 0.0
C627 C 0.5514 0.76751 0.22764 0.0
C628 C 0.52397 0.7761 0.21357 0.0
H629 H 0.57667 0.72891 0.22981 0.0
H630 H 0.56998 0.78608 0.24559 0.0
C631 C 0.5002 0.75121 0.19044 0.0
C632 C 0.83653 0.51751 0.34766 0.0
C633 C 0.87054 0.55359 0.35978 0.0
H634 H 0.76977 0.47487 0.34646 0.0
C635 C 0.86252 0.57392 0.38143 0.0
H636 H 0.84168 0.50146 0.33074 0.0
C637 C 0.82118 0.55852 0.39062 0.0
C638 C 0.78717 0.52291 0.378 0.0
H639 H 0.88823 0.60172 0.39123 0.0
H640 H 0.81579 0.57484 0.4072 0.0
C641 C 0.79533 0.50248 0.35655 0.0
C642 C 0.15204 0.66733 0.4517 0.0
C643 C 0.121 0.62791 0.44133 0.0
H644 H 0.20121 0.70219 0.48204 0.0
C645 C 0.11605 0.59267 0.45478 0.0
H646 H 0.15781 0.69527 0.44152 0.0
C647 C 0.14208 0.59681 0.4775 0.0
C648 C 0.17303 0.63622 0.48763 0.0
H649 H 0.09222 0.5618 0.4477 0.0
H650 H 0.13775 0.56917 0.48729 0.0
C651 C 0.1774 0.67139 0.47475 0.0
C652 C 0.53253 0.09523 0.65835 0.0
C653 C 0.55866 0.1017 0.63503 0.0
H654 H 0.52803 0.1149 0.70004 0.0
C655 C 0.60183 0.13267 0.63676 0.0
H656 H 0.49918 0.07158 0.65759 0.0
C657 C 0.61829 0.15751 0.66092 0.0
C658 C 0.59196 0.15187 0.68388 0.0
H659 H 0.62262 0.13899 0.61892 0.0
H660 H 0.65143 0.18187 0.66127 0.0
C661 C 0.54908 0.11998 0.68261 0.0
C662 C 0.38204 0.51019 0.7759 0.0
C663 C 0.41742 0.51633 0.76107 0.0
H664 H 0.35809 0.5181 0.81496 0.0
C665 C 0.45605 0.53323 0.77563 0.0
H666 H 0.35187 0.49728 0.76537 0.0
C667 C 0.45973 0.54564 0.80389 0.0
C668 C 0.42468 0.54064 0.81837 0.0
H669 H 0.48361 0.53701 0.76518 0.0
H670 H 0.49014 0.55964 0.8143 0.0
C671 C 0.3856 0.52203 0.80433 0.0
C672 C 0.93621 0.46087 0.94784 0.0
C673 C 0.92378 0.48082 0.92891 0.0
H674 H 0.93211 0.4382 0.99 0.0
C675 C 0.89798 0.49452 0.93883 0.0
H676 H 0.95694 0.45087 0.94097 0.0
C677 C 0.88423 0.48774 0.96697 0.0
C678 C 0.89612 0.46724 0.98577 0.0
H679 H 0.88796 0.51002 0.92474 0.0
H680 H 0.86369 0.49797 0.97384 0.0
C681 C 0.9225 0.45414 0.97601 0.0
C682 C 0.59853 0.00539 0.14103 0.0
C683 C 0.62701 0.99746 0.12748 0.0
H684 H 0.55494 0.98991 0.17528 0.0
C685 C 0.63784 0.9717 0.14122 0.0
H686 H 0.59032 0.02601 0.13167 0.0
C687 C 0.61869 0.95236 0.16677 0.0
C688 C 0.58758 0.95752 0.17878 0.0
H689 H 0.65907 0.9642 0.13147 0.0
H690 H 0.62611 0.93109 0.17606 0.0
C691 C 0.57848 0.98506 0.16617 0.0
C692 C 0.57656 0.51005 0.29656 0.0
C693 C 0.59631 0.55304 0.29271 0.0
H694 H 0.57406 0.46122 0.32032 0.0
C695 C 0.62764 0.58013 0.31198 0.0
H696 H 0.55284 0.4883 0.28179 0.0
C697 C 0.6399 0.56448 0.33409 0.0
C698 C 0.62134 0.52152 0.33707 0.0
H699 H 0.64337 0.61337 0.30952 0.0
H700 H 0.66471 0.58604 0.34834 0.0
C701 C 0.58906 0.49447 0.31843 0.0
C702 C 0.53347 0.92447 0.3706 0.0
C703 C 0.51663 0.9493 0.37454 0.0
H704 H 0.54922 0.89227 0.34082 0.0
C705 C 0.50486 0.96284 0.35074 0.0
H706 H 0.54307 0.91394 0.38866 0.0
C707 C 0.50892 0.95106 0.32353 0.0
C708 C 0.52461 0.92526 0.31953 0.0
H709 H 0.4928 0.98289 0.35315 0.0
H710 H 0.49898 0.96159 0.30565 0.0
C711 C 0.53717 0.9123 0.34329 0.0
C712 C 0.56908 0.5166 0.49651 0.0
C713 C 0.53426 0.47862 0.50609 0.0
H714 H 0.62334 0.54686 0.46918 0.0
C715 C 0.52811 0.44159 0.4949 0.0
H716 H 0.5748 0.54577 0.50448 0.0
C717 C 0.55527 0.44241 0.47444 0.0
C718 C 0.59 0.48018 0.46508 0.0
H719 H 0.50286 0.41166 0.50238 0.0
H720 H 0.54941 0.41327 0.46621 0.0
C721 C 0.59698 0.51734 0.47637 0.0
C722 C 0.09862 0.54767 0.64527 0.0
C723 C 0.10215 0.57385 0.66755 0.0
H724 H 0.12378 0.54233 0.60586 0.0
C725 C 0.13389 0.61622 0.66622 0.0
H726 H 0.07447 0.51494 0.64568 0.0
C727 C 0.16215 0.63185 0.64354 0.0
C728 C 0.15929 0.60549 0.62167 0.0
H729 H 0.13806 0.63708 0.68332 0.0
H730 H 0.18685 0.66443 0.6435 0.0
C731 C 0.12685 0.56337 0.62251 0.0
C732 C 0.63508 0.16407 0.87483 0.0
C733 C 0.65641 0.14305 0.87313 0.0
H734 H 0.61257 0.19737 0.85241 0.0
C735 C 0.67095 0.13905 0.84661 0.0
H736 H 0.6236 0.16772 0.89501 0.0
C737 C 0.66458 0.15585 0.82237 0.0
C738 C 0.64348 0.17703 0.82404 0.0
H739 H 0.68665 0.12224 0.84446 0.0
H740 H 0.67629 0.15224 0.80227 0.0
C741 C 0.62873 0.18099 0.85049 0.0
C742 C 0.43411 0.54956 0.01927 0.0
C743 C 0.47596 0.56369 0.02664 0.0
H744 H 0.39053 0.53743 0.98572 0.0
C745 C 0.50517 0.57156 0.00505 0.0
H746 H 0.41087 0.54286 0.0355 0.0
C747 C 0.49347 0.56797 0.9766 0.0
C748 C 0.45239 0.55664 0.96921 0.0
H749 H 0.53735 0.5813 0.01015 0.0
H750 H 0.51725 0.57622 0.96046 0.0
C751 C 0.42243 0.54614 0.99078 0.0
C752 C 0.91425 0.54482 0.17068 0.0
C753 C 0.93795 0.53389 0.18732 0.0
H754 H 0.8791 0.53436 0.13244 0.0
C755 C 0.94453 0.50311 0.17699 0.0
H756 H 0.90794 0.56788 0.17796 0.0
C757 C 0.9272 0.48329 0.15109 0.0
C758 C 0.90367 0.49439 0.13461 0.0
H759 H 0.96355 0.49455 0.1887 0.0
H760 H 0.93238 0.45941 0.14391 0.0
C761 C 0.89764 0.52555 0.14454 0.0
loop_
_geom_bond_atom_site_label_1
_geom_bond_atom_site_label_2
_geom_bond_distance
_geom_bond_site_symmetry_2
_ccdc_geom_bond_type
H0 O26 0.856 . S
H1 O29 0.854 . S
H2 C37 0.930 . S
H3 C38 0.930 . S
H4 C40 0.930 . S
H5 C41 0.930 . S
H6 C43 0.931 . S
H7 C44 0.930 . S
H8 C46 0.930 . S
H9 C47 0.929 . S
H10 C49 0.930 . S
H11 C50 0.931 . S
H12 C52 0.930 . S
H13 C53 0.929 . S
H14 C55 0.931 . S
H15 C56 0.930 . S
H16 C58 0.930 . S
H17 C59 0.932 . S
H18 C61 0.930 . S
H19 C62 0.929 . S
H20 C64 0.931 . S
H21 C65 0.930 . S
H22 C67 0.929 . S
H23 C68 0.931 . S
H24 C70 0.930 . S
H25 C71 0.929 1_455 S
O26 H0 0.856 . S
O26 C72 1.300 . S
O27 C72 1.209 . S
O28 C73 1.199 . S
O29 H1 0.854 . S
O29 C73 1.297 . S
C30 C31 1.404 . S
C30 C35 1.397 . S
C30 C36 1.492 . S
C31 C30 1.404 . S
C31 C32 1.396 . S
C31 C42 1.492 . S
C32 C31 1.396 . S
C32 C33 1.397 . S
C32 C48 1.509 . S
C33 C32 1.397 . S
C33 C34 1.412 . S
C33 C54 1.485 . S
C34 C33 1.412 . S
C34 C35 1.388 . S
C34 C60 1.490 . S
C35 C30 1.397 . S
C35 C34 1.388 . S
C35 C66 1.519 . S
C36 C30 1.492 . S
C36 C37 1.363 . S
C36 C41 1.390 1_455 S
C37 H2 0.930 . S
C37 C36 1.363 . S
C37 C38 1.372 1_455 S
C38 H3 0.930 . S
C38 C37 1.372 1_655 S
C38 C39 1.383 . S
C39 C38 1.383 . S
C39 C40 1.395 . S
C40 H4 0.930 . S
C40 C39 1.395 . S
C40 C41 1.362 . S
C41 H5 0.930 . S
C41 C36 1.390 1_655 S
C41 C40 1.362 . S
C42 C31 1.492 . S
C42 C43 1.377 . S
C42 C47 1.397 . S
C43 H6 0.931 . S
C43 C42 1.377 . S
C43 C44 1.376 . S
C44 H7 0.930 . S
C44 C43 1.376 . S
C44 C45 1.376 . S
C45 C44 1.376 . S
C45 C46 1.378 . S
C45 C72 1.486 . S
C46 H8 0.930 . S
C46 C45 1.378 . S
C46 C47 1.376 . S
C47 H9 0.929 . S
C47 C42 1.397 . S
C47 C46 1.376 . S
C48 C32 1.509 . S
C48 C49 1.391 . S
C48 C53 1.386 . S
C49 H10 0.930 . S
C49 C48 1.391 . S
C49 C50 1.375 . S
C50 H11 0.931 . S
C50 C49 1.375 . S
C50 C51 1.375 . S
C51 C50 1.375 . S
C51 C52 1.361 . S
C52 H12 0.930 . S
C52 C51 1.361 . S
C52 C53 1.399 . S
C53 H13 0.929 . S
C53 C48 1.386 . S
C53 C52 1.399 . S
C54 C33 1.485 . S
C54 C55 1.394 . S
C54 C59 1.360 . S
C55 H14 0.931 . S
C55 C54 1.394 . S
C55 C56 1.372 . S
C56 H15 0.930 . S
C56 C55 1.372 . S
C56 C57 1.397 . S
C57 C56 1.397 . S
C57 C58 1.390 . S
C57 C73 1.476 . S
C58 H16 0.930 . S
C58 C57 1.390 . S
C58 C59 1.366 . S
C59 H17 0.932 . S
C59 C54 1.360 . S
C59 C58 1.366 . S
C60 C34 1.490 . S
C60 C61 1.380 . S
C60 C65 1.386 . S
C61 H18 0.930 . S
C61 C60 1.380 . S
C61 C62 1.381 . S
C62 H19 0.929 . S
C62 C61 1.381 . S
C62 C63 1.371 . S
C63 C62 1.371 . S
C63 C64 1.380 . S
C64 H20 0.931 . S
C64 C63 1.380 . S
C64 C65 1.387 . S
C65 H21 0.930 . S
C65 C60 1.386 . S
C65 C64 1.387 . S
C66 C35 1.519 . S
C66 C67 1.377 1_455 S
C66 C71 1.361 1_455 S
C67 H22 0.929 . S
C67 C66 1.377 1_655 S
C67 C68 1.386 . S
C68 H23 0.931 . S
C68 C67 1.386 . S
C68 C69 1.363 . S
C69 C68 1.363 . S
C69 C70 1.385 . S
C70 H24 0.930 . S
C70 C69 1.385 . S
C70 C71 1.396 . S
C71 H25 0.929 1_655 S
C71 C66 1.361 1_655 S
C71 C70 1.396 . S
C72 O26 1.300 . S
C72 O27 1.209 . S
C72 C45 1.486 . S
C73 O28 1.199 . S
C73 O29 1.297 . S
C73 C57 1.476 . S
H74 O100 0.856 . S
H75 O103 0.854 . S
H76 C111 0.930 . S
H77 C112 0.930 . S
H78 C114 0.930 . S
H79 C115 0.930 . S
H80 C117 0.931 . S
H81 C118 0.930 . S
H82 C120 0.930 . S
H83 C121 0.929 . S
H84 C123 0.930 . S
H85 C124 0.931 . S
H86 C126 0.930 . S
H87 C127 0.929 . S
H88 C129 0.931 . S
H89 C130 0.930 . S
H90 C132 0.930 . S
H91 C133 0.932 . S
H92 C135 0.930 . S
H93 C136 0.929 . S
H94 C138 0.931 . S
H95 C139 0.930 . S
H96 C141 0.928 . S
H97 C142 0.931 . S
H98 C144 0.930 . S
H99 C145 0.929 1_545 S
O100 H74 0.856 . S
O100 C146 1.300 . S
O101 C146 1.209 . S
O102 C147 1.199 . S
O103 H75 0.854 . S
O103 C147 1.297 . S
C104 C105 1.404 . S
C104 C109 1.397 . S
C104 C110 1.492 . S
C105 C104 1.404 . S
C105 C106 1.396 . S
C105 C116 1.492 . S
C106 C105 1.396 . S
C106 C107 1.397 . S
C106 C122 1.509 . S
C107 C106 1.397 . S
C107 C108 1.412 . S
C107 C128 1.485 . S
C108 C107 1.412 . S
C108 C109 1.388 . S
C108 C134 1.490 . S
C109 C104 1.397 . S
C109 C108 1.388 . S
C109 C140 1.519 . S
C110 C104 1.492 . S
C110 C111 1.363 . S
C110 C115 1.390 1_545 S
C111 H76 0.930 . S
C111 C110 1.363 . S
C111 C112 1.372 1_545 S
C112 H77 0.930 . S
C112 C111 1.372 1_565 S
C112 C113 1.383 . S
C113 C112 1.383 . S
C113 C114 1.395 . S
C114 H78 0.930 . S
C114 C113 1.395 . S
C114 C115 1.362 . S
C115 H79 0.930 . S
C115 C110 1.390 1_565 S
C115 C114 1.362 . S
C116 C105 1.492 . S
C116 C117 1.377 . S
C116 C121 1.397 . S
C117 H80 0.931 . S
C117 C116 1.377 . S
C117 C118 1.376 . S
C118 H81 0.930 . S
C118 C117 1.376 . S
C118 C119 1.376 . S
C119 C118 1.376 . S
C119 C120 1.378 . S
C119 C146 1.486 . S
C120 H82 0.930 . S
C120 C119 1.378 . S
C120 C121 1.376 . S
C121 H83 0.929 . S
C121 C116 1.397 . S
C121 C120 1.376 . S
C122 C106 1.509 . S
C122 C123 1.391 . S
C122 C127 1.386 . S
C123 H84 0.930 . S
C123 C122 1.391 . S
C123 C124 1.375 . S
C124 H85 0.931 . S
C124 C123 1.375 . S
C124 C125 1.375 . S
C125 C124 1.375 . S
C125 C126 1.361 . S
C126 H86 0.930 . S
C126 C125 1.361 . S
C126 C127 1.399 . S
C127 H87 0.929 . S
C127 C122 1.386 . S
C127 C126 1.399 . S
C128 C107 1.485 . S
C128 C129 1.394 . S
C128 C133 1.360 . S
C129 H88 0.931 . S
C129 C128 1.394 . S
C129 C130 1.372 . S
C130 H89 0.930 . S
C130 C129 1.372 . S
C130 C131 1.397 . S
C131 C130 1.397 . S
C131 C132 1.390 . S
C131 C147 1.476 . S
C132 H90 0.930 . S
C132 C131 1.390 . S
C132 C133 1.366 . S
C133 H91 0.932 . S
C133 C128 1.360 . S
C133 C132 1.366 . S
C134 C108 1.490 . S
C134 C135 1.380 . S
C134 C139 1.386 . S
C135 H92 0.930 . S
C135 C134 1.380 . S
C135 C136 1.381 . S
C136 H93 0.929 . S
C136 C135 1.381 . S
C136 C137 1.371 . S
C137 C136 1.371 . S
C137 C138 1.380 . S
C138 H94 0.931 . S
C138 C137 1.380 . S
C138 C139 1.387 . S
C139 H95 0.930 . S
C139 C134 1.386 . S
C139 C138 1.387 . S
C140 C109 1.519 . S
C140 C141 1.377 1_545 S
C140 C145 1.361 1_545 S
C141 H96 0.928 . S
C141 C140 1.377 1_565 S
C141 C142 1.386 . S
C142 H97 0.931 . S
C142 C141 1.386 . S
C142 C143 1.363 . S
C143 C142 1.363 . S
C143 C144 1.385 . S
C144 H98 0.930 . S
C144 C143 1.385 . S
C144 C145 1.396 . S
C145 H99 0.929 1_565 S
C145 C140 1.361 1_565 S
C145 C144 1.396 . S
C146 O100 1.300 . S
C146 O101 1.209 . S
C146 C119 1.486 . S
C147 O102 1.199 . S
C147 O103 1.297 . S
C147 C131 1.476 . S
H148 O174 0.856 . S
H149 O177 0.854 . S
H150 C185 0.930 . S
H151 C186 0.930 . S
H152 C188 0.930 . S
H153 C189 0.930 . S
H154 C191 0.931 . S
H155 C192 0.930 . S
H156 C194 0.930 . S
H157 C195 0.929 . S
H158 C197 0.930 . S
H159 C198 0.931 . S
H160 C200 0.930 . S
H161 C201 0.929 . S
H162 C203 0.931 . S
H163 C204 0.930 . S
H164 C206 0.930 . S
H165 C207 0.932 . S
H166 C209 0.930 . S
H167 C210 0.929 . S
H168 C212 0.931 . S
H169 C213 0.930 . S
H170 C215 0.929 . S
H171 C216 0.931 . S
H172 C218 0.930 . S
H173 C219 0.929 . S
O174 H148 0.856 . S
O174 C220 1.300 . S
O175 C220 1.209 . S
O176 C221 1.199 . S
O177 H149 0.854 . S
O177 C221 1.297 . S
C178 C179 1.404 . S
C178 C183 1.397 . S
C178 C184 1.492 . S
C179 C178 1.404 . S
C179 C180 1.396 . S
C179 C190 1.492 . S
C180 C179 1.396 . S
C180 C181 1.397 . S
C180 C196 1.509 . S
C181 C180 1.397 . S
C181 C182 1.412 . S
C181 C202 1.485 . S
C182 C181 1.412 . S
C182 C183 1.388 . S
C182 C208 1.490 . S
C183 C178 1.397 . S
C183 C182 1.388 . S
C183 C214 1.519 . S
C184 C178 1.492 . S
C184 C185 1.363 . S
C184 C189 1.390 . S
C185 H150 0.930 . S
C185 C184 1.363 . S
C185 C186 1.372 . S
C186 H151 0.930 . S
C186 C185 1.372 . S
C186 C187 1.383 . S
C187 C186 1.383 . S
C187 C188 1.395 . S
C188 H152 0.930 . S
C188 C187 1.395 . S
C188 C189 1.362 . S
C189 H153 0.930 . S
C189 C184 1.390 . S
C189 C188 1.362 . S
C190 C179 1.492 . S
C190 C191 1.377 . S
C190 C195 1.397 . S
C191 H154 0.931 . S
C191 C190 1.377 . S
C191 C192 1.376 . S
C192 H155 0.930 . S
C192 C191 1.376 . S
C192 C193 1.376 . S
C193 C192 1.376 . S
C193 C194 1.378 . S
C193 C220 1.486 . S
C194 H156 0.930 . S
C194 C193 1.378 . S
C194 C195 1.376 . S
C195 H157 0.929 . S
C195 C190 1.397 . S
C195 C194 1.376 . S
C196 C180 1.509 . S
C196 C197 1.391 . S
C196 C201 1.386 . S
C197 H158 0.930 . S
C197 C196 1.391 . S
C197 C198 1.375 . S
C198 H159 0.931 . S
C198 C197 1.375 . S
C198 C199 1.375 . S
C199 C198 1.375 . S
C199 C200 1.361 . S
C200 H160 0.930 . S
C200 C199 1.361 . S
C200 C201 1.399 . S
C201 H161 0.929 . S
C201 C196 1.386 . S
C201 C200 1.399 . S
C202 C181 1.485 . S
C202 C203 1.394 . S
C202 C207 1.360 . S
C203 H162 0.931 . S
C203 C202 1.394 . S
C203 C204 1.372 . S
C204 H163 0.930 . S
C204 C203 1.372 . S
C204 C205 1.397 . S
C205 C204 1.397 . S
C205 C206 1.390 . S
C205 C221 1.476 . S
C206 H164 0.930 . S
C206 C205 1.390 . S
C206 C207 1.366 . S
C207 H165 0.932 . S
C207 C202 1.360 . S
C207 C206 1.366 . S
C208 C182 1.490 . S
C208 C209 1.380 . S
C208 C213 1.386 . S
C209 H166 0.930 . S
C209 C208 1.380 . S
C209 C210 1.381 . S
C210 H167 0.929 . S
C210 C209 1.381 . S
C210 C211 1.371 . S
C211 C210 1.371 . S
C211 C212 1.380 . S
C212 H168 0.931 . S
C212 C211 1.380 . S
C212 C213 1.387 . S
C213 H169 0.930 . S
C213 C208 1.386 . S
C213 C212 1.387 . S
C214 C183 1.519 . S
C214 C215 1.377 . S
C214 C219 1.361 . S
C215 H170 0.929 . S
C215 C214 1.377 . S
C215 C216 1.386 . S
C216 H171 0.931 . S
C216 C215 1.386 . S
C216 C217 1.363 . S
C217 C216 1.363 . S
C217 C218 1.385 . S
C218 H172 0.930 . S
C218 C217 1.385 . S
C218 C219 1.396 . S
C219 H173 0.929 . S
C219 C214 1.361 . S
C219 C218 1.396 . S
C220 O174 1.300 . S
C220 O175 1.209 . S
C220 C193 1.486 . S
C221 O176 1.199 . S
C221 O177 1.297 . S
C221 C205 1.476 . S
H222 O248 0.856 1_554 S
H223 O251 0.854 . S
H224 C259 0.930 1_455 S
H225 C260 0.930 . S
H226 C262 0.930 . S
H227 C263 0.930 . S
H228 C265 0.931 . S
H229 C266 0.930 . S
H230 C268 0.930 . S
H231 C269 0.929 . S
H232 C271 0.930 . S
H233 C272 0.931 . S
H234 C274 0.930 . S
H235 C275 0.929 . S
H236 C277 0.931 . S
H237 C278 0.930 . S
H238 C280 0.930 . S
H239 C281 0.932 . S
H240 C283 0.930 . S
H241 C284 0.929 . S
H242 C286 0.931 . S
H243 C287 0.930 . S
H244 C289 0.929 . S
H245 C290 0.931 . S
H246 C292 0.930 . S
H247 C293 0.929 . S
O248 H222 0.856 1_556 S
O248 C294 1.300 . S
O249 C294 1.209 . S
O250 C295 1.199 . S
O251 H223 0.854 . S
O251 C295 1.297 . S
C252 C253 1.404 . S
C252 C257 1.397 . S
C252 C258 1.492 . S
C253 C252 1.404 . S
C253 C254 1.396 . S
C253 C264 1.492 . S
C254 C253 1.396 . S
C254 C255 1.397 . S
C254 C270 1.509 . S
C255 C254 1.397 . S
C255 C256 1.412 . S
C255 C276 1.485 . S
C256 C255 1.412 . S
C256 C257 1.388 . S
C256 C282 1.490 . S
C257 C252 1.397 . S
C257 C256 1.388 . S
C257 C288 1.519 1_455 S
C258 C252 1.492 . S
C258 C259 1.363 1_455 S
C258 C263 1.390 1_455 S
C259 H224 0.930 1_655 S
C259 C258 1.363 1_655 S
C259 C260 1.372 . S
C260 H225 0.930 . S
C260 C259 1.372 . S
C260 C261 1.383 . S
C261 C260 1.383 . S
C261 C262 1.395 . S
C262 H226 0.930 . S
C262 C261 1.395 . S
C262 C263 1.362 . S
C263 H227 0.930 . S
C263 C258 1.390 1_655 S
C263 C262 1.362 . S
C264 C253 1.492 . S
C264 C265 1.377 . S
C264 C269 1.397 . S
C265 H228 0.931 . S
C265 C264 1.377 . S
C265 C266 1.376 . S
C266 H229 0.930 . S
C266 C265 1.376 . S
C266 C267 1.376 . S
C267 C266 1.376 . S
C267 C268 1.378 . S
C267 C294 1.486 . S
C268 H230 0.930 . S
C268 C267 1.378 . S
C268 C269 1.376 . S
C269 H231 0.929 . S
C269 C264 1.397 . S
C269 C268 1.376 . S
C270 C254 1.509 . S
C270 C271 1.391 . S
C270 C275 1.386 . S
C271 H232 0.930 . S
C271 C270 1.391 . S
C271 C272 1.375 . S
C272 H233 0.931 . S
C272 C271 1.375 . S
C272 C273 1.375 . S
C273 C272 1.375 . S
C273 C274 1.361 . S
C274 H234 0.930 . S
C274 C273 1.361 . S
C274 C275 1.399 . S
C275 H235 0.929 . S
C275 C270 1.386 . S
C275 C274 1.399 . S
C276 C255 1.485 . S
C276 C277 1.394 . S
C276 C281 1.360 . S
C277 H236 0.931 . S
C277 C276 1.394 . S
C277 C278 1.372 . S
C278 H237 0.930 . S
C278 C277 1.372 . S
C278 C279 1.397 . S
C279 C278 1.397 . S
C279 C280 1.390 . S
C279 C295 1.476 . S
C280 H238 0.930 . S
C280 C279 1.390 . S
C280 C281 1.366 . S
C281 H239 0.932 . S
C281 C276 1.360 . S
C281 C280 1.366 . S
C282 C256 1.490 . S
C282 C283 1.380 . S
C282 C287 1.386 . S
C283 H240 0.930 . S
C283 C282 1.380 . S
C283 C284 1.381 . S
C284 H241 0.929 . S
C284 C283 1.381 . S
C284 C285 1.371 . S
C285 C284 1.371 . S
C285 C286 1.380 . S
C286 H242 0.931 . S
C286 C285 1.380 . S
C286 C287 1.387 . S
C287 H243 0.930 . S
C287 C282 1.386 . S
C287 C286 1.387 . S
C288 C257 1.519 1_655 S
C288 C289 1.377 . S
C288 C293 1.361 . S
C289 H244 0.929 . S
C289 C288 1.377 . S
C289 C290 1.386 . S
C290 H245 0.931 . S
C290 C289 1.386 . S
C290 C291 1.363 . S
C291 C290 1.363 . S
C291 C292 1.385 . S
C292 H246 0.930 . S
C292 C291 1.385 . S
C292 C293 1.396 . S
C293 H247 0.929 . S
C293 C288 1.361 . S
C293 C292 1.396 . S
C294 O248 1.300 . S
C294 O249 1.209 . S
C294 C267 1.486 . S
C295 O250 1.199 . S
C295 O251 1.297 . S
C295 C279 1.476 . S
H296 O322 0.856 . S
H297 O325 0.854 . S
H298 C333 0.930 . S
H299 C334 0.930 . S
H300 C336 0.930 . S
H301 C337 0.930 . S
H302 C339 0.931 . S
H303 C340 0.930 . S
H304 C342 0.930 . S
H305 C343 0.929 . S
H306 C345 0.930 . S
H307 C346 0.931 . S
H308 C348 0.930 . S
H309 C349 0.929 . S
H310 C351 0.931 . S
H311 C352 0.930 . S
H312 C354 0.930 . S
H313 C355 0.932 . S
H314 C357 0.930 . S
H315 C358 0.929 . S
H316 C360 0.931 . S
H317 C361 0.930 . S
H318 C363 0.935 . S
H319 C364 0.931 . S
H320 C366 0.930 . S
H321 C367 0.929 . S
O322 H296 0.856 . S
O322 C368 1.300 . S
O323 C368 1.209 . S
O324 C369 1.199 . S
O325 H297 0.854 . S
O325 C369 1.297 . S
C326 C327 1.404 1_545 S
C326 C331 1.397 . S
C326 C332 1.492 . S
C327 C326 1.404 1_565 S
C327 C328 1.396 . S
C327 C338 1.492 . S
C328 C327 1.396 . S
C328 C329 1.397 . S
C328 C344 1.509 . S
C329 C328 1.397 . S
C329 C330 1.412 1_566 S
C329 C350 1.485 1_556 S
C330 C329 1.412 1_544 S
C330 C331 1.388 1_554 S
C330 C356 1.490 . S
C331 C326 1.397 . S
C331 C330 1.388 1_556 S
C331 C362 1.519 1_556 S
C332 C326 1.492 . S
C332 C333 1.363 . S
C332 C337 1.390 . S
C333 H298 0.930 . S
C333 C332 1.363 . S
C333 C334 1.372 . S
C334 H299 0.930 . S
C334 C333 1.372 . S
C334 C335 1.383 . S
C335 C334 1.383 . S
C335 C336 1.395 . S
C336 H300 0.930 . S
C336 C335 1.395 . S
C336 C337 1.362 . S
C337 H301 0.930 . S
C337 C332 1.390 . S
C337 C336 1.362 . S
C338 C327 1.492 . S
C338 C339 1.377 . S
C338 C343 1.397 1_565 S
C339 H302 0.931 . S
C339 C338 1.377 . S
C339 C340 1.376 . S
C340 H303 0.930 . S
C340 C339 1.376 . S
C340 C341 1.376 . S
C341 C340 1.376 . S
C341 C342 1.378 1_565 S
C341 C368 1.486 . S
C342 H304 0.930 . S
C342 C341 1.378 1_545 S
C342 C343 1.376 . S
C343 H305 0.929 . S
C343 C338 1.397 1_545 S
C343 C342 1.376 . S
C344 C328 1.509 . S
C344 C345 1.391 . S
C344 C349 1.386 . S
C345 H306 0.930 . S
C345 C344 1.391 . S
C345 C346 1.375 . S
C346 H307 0.931 . S
C346 C345 1.375 . S
C346 C347 1.375 . S
C347 C346 1.375 . S
C347 C348 1.361 . S
C348 H308 0.930 . S
C348 C347 1.361 . S
C348 C349 1.399 . S
C349 H309 0.929 . S
C349 C344 1.386 . S
C349 C348 1.399 . S
C350 C329 1.485 1_554 S
C350 C351 1.394 . S
C350 C355 1.360 . S
C351 H310 0.931 . S
C351 C350 1.394 . S
C351 C352 1.372 . S
C352 H311 0.930 . S
C352 C351 1.372 . S
C352 C353 1.397 . S
C353 C352 1.397 . S
C353 C354 1.390 . S
C353 C369 1.476 . S
C354 H312 0.930 . S
C354 C353 1.390 . S
C354 C355 1.366 . S
C355 H313 0.932 . S
C355 C350 1.360 . S
C355 C354 1.366 . S
C356 C330 1.490 . S
C356 C357 1.380 . S
C356 C361 1.386 . S
C357 H314 0.930 . S
C357 C356 1.380 . S
C357 C358 1.381 . S
C358 H315 0.929 . S
C358 C357 1.381 . S
C358 C359 1.371 . S
C359 C358 1.371 . S
C359 C360 1.380 . S
C360 H316 0.931 . S
C360 C359 1.380 . S
C360 C361 1.387 . S
C361 H317 0.930 . S
C361 C356 1.386 . S
C361 C360 1.387 . S
C362 C331 1.519 1_554 S
C362 C363 1.376 1_554 S
C362 C367 1.361 . S
C363 H318 0.935 . S
C363 C362 1.376 1_556 S
C363 C364 1.381 1_556 S
C364 H319 0.931 . S
C364 C363 1.381 1_554 S
C364 C365 1.363 . S
C365 C364 1.363 . S
C365 C366 1.385 . S
C366 H320 0.930 . S
C366 C365 1.385 . S
C366 C367 1.396 . S
C367 H321 0.929 . S
C367 C362 1.361 . S
C367 C366 1.396 . S
C368 O322 1.300 . S
C368 O323 1.209 . S
C368 C341 1.486 . S
C369 O324 1.199 . S
C369 O325 1.297 . S
C369 C353 1.476 . S
H370 O396 0.856 . S
H371 O399 0.854 . S
H372 C407 0.930 . S
H373 C408 0.930 . S
H374 C410 0.930 . S
H375 C411 0.930 . S
H376 C413 0.931 . S
H377 C414 0.930 . S
H378 C416 0.930 . S
H379 C417 0.929 . S
H380 C419 0.930 . S
H381 C420 0.931 . S
H382 C422 0.930 . S
H383 C423 0.929 . S
H384 C425 0.931 . S
H385 C426 0.930 . S
H386 C428 0.930 . S
H387 C429 0.932 . S
H388 C431 0.930 . S
H389 C432 0.929 . S
H390 C434 0.931 . S
H391 C435 0.930 . S
H392 C437 0.929 . S
H393 C438 0.931 . S
H394 C440 0.930 . S
H395 C441 0.929 . S
O396 H370 0.856 . S
O396 C442 1.300 . S
O397 C442 1.209 . S
O398 C443 1.199 . S
O399 H371 0.854 . S
O399 C443 1.297 . S
C400 C401 1.404 . S
C400 C405 1.397 . S
C400 C406 1.492 . S
C401 C400 1.404 . S
C401 C402 1.396 . S
C401 C412 1.492 . S
C402 C401 1.396 . S
C402 C403 1.397 . S
C402 C418 1.509 . S
C403 C402 1.397 . S
C403 C404 1.412 . S
C403 C424 1.485 . S
C404 C403 1.412 . S
C404 C405 1.388 . S
C404 C430 1.490 . S
C405 C400 1.397 . S
C405 C404 1.388 . S
C405 C436 1.519 . S
C406 C400 1.492 . S
C406 C407 1.363 . S
C406 C411 1.390 . S
C407 H372 0.930 . S
C407 C406 1.363 . S
C407 C408 1.372 . S
C408 H373 0.930 . S
C408 C407 1.372 . S
C408 C409 1.383 . S
C409 C408 1.383 . S
C409 C410 1.395 . S
C410 H374 0.930 . S
C410 C409 1.395 . S
C410 C411 1.362 . S
C411 H375 0.930 . S
C411 C406 1.390 . S
C411 C410 1.362 . S
C412 C401 1.492 . S
C412 C413 1.377 . S
C412 C417 1.397 . S
C413 H376 0.931 . S
C413 C412 1.377 . S
C413 C414 1.376 . S
C414 H377 0.930 . S
C414 C413 1.376 . S
C414 C415 1.376 . S
C415 C414 1.376 . S
C415 C416 1.378 . S
C415 C442 1.486 1_554 S
C416 H378 0.930 . S
C416 C415 1.378 . S
C416 C417 1.376 . S
C417 H379 0.929 . S
C417 C412 1.397 . S
C417 C416 1.376 . S
C418 C402 1.509 . S
C418 C419 1.391 . S
C418 C423 1.386 . S
C419 H380 0.930 . S
C419 C418 1.391 . S
C419 C420 1.375 . S
C420 H381 0.931 . S
C420 C419 1.375 . S
C420 C421 1.375 . S
C421 C420 1.375 . S
C421 C422 1.361 . S
C422 H382 0.930 . S
C422 C421 1.361 . S
C422 C423 1.399 . S
C423 H383 0.929 . S
C423 C418 1.386 . S
C423 C422 1.399 . S
C424 C403 1.485 . S
C424 C425 1.394 . S
C424 C429 1.360 . S
C425 H384 0.931 . S
C425 C424 1.394 . S
C425 C426 1.372 . S
C426 H385 0.930 . S
C426 C425 1.372 . S
C426 C427 1.397 . S
C427 C426 1.397 . S
C427 C428 1.390 . S
C427 C443 1.476 . S
C428 H386 0.930 . S
C428 C427 1.390 . S
C428 C429 1.366 . S
C429 H387 0.932 . S
C429 C424 1.360 . S
C429 C428 1.366 . S
C430 C404 1.490 . S
C430 C431 1.380 . S
C430 C435 1.386 . S
C431 H388 0.930 . S
C431 C430 1.380 . S
C431 C432 1.381 . S
C432 H389 0.929 . S
C432 C431 1.381 . S
C432 C433 1.371 . S
C433 C432 1.371 . S
C433 C434 1.380 . S
C434 H390 0.931 . S
C434 C433 1.380 . S
C434 C435 1.387 . S
C435 H391 0.930 . S
C435 C430 1.386 . S
C435 C434 1.387 . S
C436 C405 1.519 . S
C436 C437 1.377 . S
C436 C441 1.361 . S
C437 H392 0.929 . S
C437 C436 1.377 . S
C437 C438 1.386 . S
C438 H393 0.931 . S
C438 C437 1.386 . S
C438 C439 1.363 . S
C439 C438 1.363 . S
C439 C440 1.385 . S
C440 H394 0.930 . S
C440 C439 1.385 . S
C440 C441 1.396 . S
C441 H395 0.929 . S
C441 C436 1.361 . S
C441 C440 1.396 . S
C442 O396 1.300 . S
C442 O397 1.209 . S
C442 C415 1.486 1_556 S
C443 O398 1.199 . S
C443 O399 1.297 . S
C443 C427 1.476 . S
In444 O445 2.294 . S
In444 O446 2.326 . S
In444 O450 2.266 . S
In444 O451 2.326 . S
In444 O452 2.266 . S
In444 O453 2.326 . S
In444 O455 2.294 . S
In444 O456 2.326 . S
O445 In444 2.294 . S
O445 C454 1.240 . S
O446 In444 2.326 . S
O446 C454 1.252 . S
C447 O450 1.252 . S
C447 O451 1.260 . S
C448 O455 1.240 . S
C448 O456 1.252 . S
C449 O452 1.252 . S
C449 O453 1.260 . S
O450 In444 2.266 . S
O450 C447 1.252 . S
O451 In444 2.326 . S
O451 C447 1.260 . S
O452 In444 2.266 . S
O452 C449 1.252 . S
O453 In444 2.326 . S
O453 C449 1.260 . S
C454 O445 1.240 . S
C454 O446 1.252 . S
O455 In444 2.294 . S
O455 C448 1.240 . S
O456 In444 2.326 . S
O456 C448 1.252 . S
In457 O458 2.294 . S
In457 O459 2.326 . S
In457 O463 2.266 . S
In457 O464 2.326 . S
In457 O465 2.266 . S
In457 O466 2.326 . S
In457 O468 2.294 . S
In457 O469 2.326 . S
O458 In457 2.294 . S
O458 C467 1.240 . S
O459 In457 2.326 . S
O459 C467 1.252 . S
C460 O463 1.252 . S
C460 O464 1.260 . S
C461 O468 1.240 . S
C461 O469 1.252 . S
C462 O465 1.252 . S
C462 O466 1.260 . S
O463 In457 2.266 . S
O463 C460 1.252 . S
O464 In457 2.326 . S
O464 C460 1.260 . S
O465 In457 2.266 . S
O465 C462 1.252 . S
O466 In457 2.326 . S
O466 C462 1.260 . S
C467 O458 1.240 . S
C467 O459 1.252 . S
O468 In457 2.294 . S
O468 C461 1.240 . S
O469 In457 2.326 . S
O469 C461 1.252 . S
In470 O471 2.294 . S
In470 O472 2.326 . S
In470 O476 2.266 . S
In470 O477 2.326 . S
In470 O478 2.266 . S
In470 O479 2.326 . S
In470 O481 2.294 . S
In470 O482 2.326 . S
O471 In470 2.294 . S
O471 C480 1.240 . S
O472 In470 2.326 . S
O472 C480 1.252 . S
C473 O476 1.252 . S
C473 O477 1.260 . S
C474 O481 1.240 . S
C474 O482 1.252 . S
C475 O478 1.252 . S
C475 O479 1.260 . S
O476 In470 2.266 . S
O476 C473 1.252 . S
O477 In470 2.326 . S
O477 C473 1.260 . S
O478 In470 2.266 . S
O478 C475 1.252 . S
O479 In470 2.326 . S
O479 C475 1.260 . S
C480 O471 1.240 . S
C480 O472 1.252 . S
O481 In470 2.294 . S
O481 C474 1.240 . S
O482 In470 2.326 . S
O482 C474 1.252 . S
In483 O484 2.294 . S
In483 O485 2.326 . S
In483 O489 2.266 . S
In483 O490 2.326 . S
In483 O491 2.266 . S
In483 O492 2.326 . S
In483 O494 2.294 . S
In483 O495 2.326 . S
O484 In483 2.294 . S
O484 C493 1.240 . S
O485 In483 2.326 . S
O485 C493 1.252 . S
C486 O489 1.252 . S
C486 O490 1.260 . S
C487 O494 1.240 . S
C487 O495 1.252 . S
C488 O491 1.252 . S
C488 O492 1.260 . S
O489 In483 2.266 . S
O489 C486 1.252 . S
O490 In483 2.326 . S
O490 C486 1.260 . S
O491 In483 2.266 . S
O491 C488 1.252 . S
O492 In483 2.326 . S
O492 C488 1.260 . S
C493 O484 1.240 . S
C493 O485 1.252 . S
O494 In483 2.294 . S
O494 C487 1.240 . S
O495 In483 2.326 . S
O495 C487 1.252 . S
In496 O497 2.294 . S
In496 O498 2.326 . S
In496 O502 2.266 . S
In496 O503 2.326 . S
In496 O504 2.266 . S
In496 O505 2.326 . S
In496 O507 2.294 . S
In496 O508 2.326 . S
O497 In496 2.294 . S
O497 C506 1.240 . S
O498 In496 2.326 . S
O498 C506 1.252 . S
C499 O502 1.252 . S
C499 O503 1.260 . S
C500 O507 1.240 . S
C500 O508 1.252 . S
C501 O504 1.252 . S
C501 O505 1.260 . S
O502 In496 2.266 . S
O502 C499 1.252 . S
O503 In496 2.326 . S
O503 C499 1.260 . S
O504 In496 2.266 . S
O504 C501 1.252 . S
O505 In496 2.326 . S
O505 C501 1.260 . S
C506 O497 1.240 . S
C506 O498 1.252 . S
O507 In496 2.294 . S
O507 C500 1.240 . S
O508 In496 2.326 . S
O508 C500 1.252 . S
In509 O510 2.294 . S
In509 O511 2.326 . S
In509 O515 2.266 . S
In509 O516 2.326 . S
In509 O517 2.266 . S
In509 O518 2.326 . S
In509 O520 2.294 . S
In509 O521 2.326 . S
O510 In509 2.294 . S
O510 C519 1.240 . S
O511 In509 2.326 . S
O511 C519 1.252 . S
C512 O515 1.252 . S
C512 O516 1.260 . S
C513 O520 1.240 . S
C513 O521 1.252 . S
C514 O517 1.252 . S
C514 O518 1.260 . S
O515 In509 2.266 . S
O515 C512 1.252 . S
O516 In509 2.326 . S
O516 C512 1.260 . S
O517 In509 2.266 . S
O517 C514 1.252 . S
O518 In509 2.326 . S
O518 C514 1.260 . S
C519 O510 1.240 . S
C519 O511 1.252 . S
O520 In509 2.294 . S
O520 C513 1.240 . S
O521 In509 2.326 . S
O521 C513 1.252 . S
C522 C523 1.387 . S
C522 H526 0.950 . S
C522 C531 1.390 . S
C523 C522 1.387 . S
C523 C525 1.387 . S
H524 C531 0.950 . S
C525 C523 1.387 . S
C525 C527 1.390 . S
C525 H529 0.950 . S
H526 C522 0.950 . S
C527 C525 1.390 . S
C527 C528 1.387 . S
C527 H530 0.950 . S
C528 C527 1.387 . S
C528 C531 1.387 . S
H529 C525 0.950 . S
H530 C527 0.950 . S
C531 C522 1.390 . S
C531 H524 0.950 . S
C531 C528 1.387 . S
C532 C533 1.387 . S
C532 H536 0.950 . S
C532 C541 1.390 . S
C533 C532 1.387 . S
C533 C535 1.387 . S
H534 C541 0.950 . S
C535 C533 1.387 . S
C535 C537 1.390 . S
C535 H539 0.950 . S
H536 C532 0.950 . S
C537 C535 1.390 . S
C537 C538 1.387 . S
C537 H540 0.950 . S
C538 C537 1.387 . S
C538 C541 1.387 . S
H539 C535 0.950 . S
H540 C537 0.950 . S
C541 C532 1.390 . S
C541 H534 0.950 . S
C541 C538 1.387 . S
C542 C543 1.387 . S
C542 H546 0.950 . S
C542 C551 1.390 . S
C543 C542 1.387 . S
C543 C545 1.387 . S
H544 C551 0.950 . S
C545 C543 1.387 . S
C545 C547 1.390 . S
C545 H549 0.950 . S
H546 C542 0.950 . S
C547 C545 1.390 . S
C547 C548 1.387 . S
C547 H550 0.950 . S
C548 C547 1.387 . S
C548 C551 1.387 . S
H549 C545 0.950 . S
H550 C547 0.950 . S
C551 C542 1.390 . S
C551 H544 0.950 . S
C551 C548 1.387 . S
C552 C553 1.387 . S
C552 H556 0.950 . S
C552 C561 1.390 . S
C553 C552 1.387 . S
C553 C555 1.387 . S
H554 C561 0.950 . S
C555 C553 1.387 . S
C555 C557 1.390 . S
C555 H559 0.950 . S
H556 C552 0.950 . S
C557 C555 1.390 . S
C557 C558 1.387 . S
C557 H560 0.950 . S
C558 C557 1.387 . S
C558 C561 1.387 . S
H559 C555 0.950 . S
H560 C557 0.950 . S
C561 C552 1.390 . S
C561 H554 0.950 . S
C561 C558 1.387 . S
C562 C563 1.387 . S
C562 H566 0.950 . S
C562 C571 1.390 . S
C563 C562 1.387 . S
C563 C565 1.387 . S
H564 C571 0.950 . S
C565 C563 1.387 . S
C565 C567 1.390 . S
C565 H569 0.950 . S
H566 C562 0.950 . S
C567 C565 1.390 . S
C567 C568 1.387 . S
C567 H570 0.950 . S
C568 C567 1.387 . S
C568 C571 1.387 . S
H569 C565 0.950 . S
H570 C567 0.950 . S
C571 C562 1.390 . S
C571 H564 0.950 . S
C571 C568 1.387 . S
C572 C573 1.387 . S
C572 H576 0.950 . S
C572 C581 1.390 . S
C573 C572 1.387 . S
C573 C575 1.387 . S
H574 C581 0.950 . S
C575 C573 1.387 . S
C575 C577 1.390 . S
C575 H579 0.950 . S
H576 C572 0.950 . S
C577 C575 1.390 . S
C577 C578 1.387 . S
C577 H580 0.950 . S
C578 C577 1.387 . S
C578 C581 1.387 . S
H579 C575 0.950 . S
H580 C577 0.950 . S
C581 C572 1.390 . S
C581 H574 0.950 . S
C581 C578 1.387 . S
C582 C583 1.387 . S
C582 H586 0.950 . S
C582 C591 1.390 . S
C583 C582 1.387 . S
C583 C585 1.387 . S
H584 C591 0.950 . S
C585 C583 1.387 . S
C585 C587 1.390 . S
C585 H589 0.950 . S
H586 C582 0.950 . S
C587 C585 1.390 . S
C587 C588 1.387 . S
C587 H590 0.950 . S
C588 C587 1.387 . S
C588 C591 1.387 . S
H589 C585 0.950 . S
H590 C587 0.950 . S
C591 C582 1.390 . S
C591 H584 0.950 . S
C591 C588 1.387 . S
C592 C593 1.387 . S
C592 H596 0.950 . S
C592 C601 1.390 . S
C593 C592 1.387 . S
C593 C595 1.387 . S
H594 C601 0.950 . S
C595 C593 1.387 . S
C595 C597 1.390 . S
C595 H599 0.950 . S
H596 C592 0.950 . S
C597 C595 1.390 . S
C597 C598 1.387 . S
C597 H600 0.950 . S
C598 C597 1.387 . S
C598 C601 1.387 . S
H599 C595 0.950 . S
H600 C597 0.950 . S
C601 C592 1.390 . S
C601 H594 0.950 . S
C601 C598 1.387 . S
C602 C603 1.387 . S
C602 H606 0.950 . S
C602 C611 1.390 . S
C603 C602 1.387 . S
C603 C605 1.387 . S
H604 C611 0.950 . S
C605 C603 1.387 . S
C605 C607 1.390 . S
C605 H609 0.950 . S
H606 C602 0.950 . S
C607 C605 1.390 . S
C607 C608 1.387 . S
C607 H610 0.950 . S
C608 C607 1.387 . S
C608 C611 1.387 . S
H609 C605 0.950 . S
H610 C607 0.950 . S
C611 C602 1.390 . S
C611 H604 0.950 . S
C611 C608 1.387 . S
C612 C613 1.387 . S
C612 H616 0.950 . S
C612 C621 1.390 . S
C613 C612 1.387 . S
C613 C615 1.387 . S
H614 C621 0.950 . S
C615 C613 1.387 . S
C615 C617 1.390 . S
C615 H619 0.950 1_554 S
H616 C612 0.950 . S
C617 C615 1.390 . S
C617 C618 1.387 . S
C617 H620 0.950 . S
C618 C617 1.387 . S
C618 C621 1.387 . S
H619 C615 0.950 1_556 S
H620 C617 0.950 . S
C621 C612 1.390 . S
C621 H614 0.950 . S
C621 C618 1.387 . S
C622 C623 1.387 . S
C622 H626 0.950 . S
C622 C631 1.390 . S
C623 C622 1.387 . S
C623 C625 1.387 . S
H624 C631 0.950 . S
C625 C623 1.387 . S
C625 C627 1.390 . S
C625 H629 0.950 . S
H626 C622 0.950 . S
C627 C625 1.390 . S
C627 C628 1.387 . S
C627 H630 0.950 . S
C628 C627 1.387 . S
C628 C631 1.387 . S
H629 C625 0.950 . S
H630 C627 0.950 . S
C631 C622 1.390 . S
C631 H624 0.950 . S
C631 C628 1.387 . S
C632 C633 1.387 . S
C632 H636 0.950 . S
C632 C641 1.390 . S
C633 C632 1.387 . S
C633 C635 1.387 . S
H634 C641 0.950 . S
C635 C633 1.387 . S
C635 C637 1.390 . S
C635 H639 0.950 . S
H636 C632 0.950 . S
C637 C635 1.390 . S
C637 C638 1.387 . S
C637 H640 0.950 . S
C638 C637 1.387 . S
C638 C641 1.387 . S
H639 C635 0.950 . S
H640 C637 0.950 . S
C641 C632 1.390 . S
C641 H634 0.950 . S
C641 C638 1.387 . S
C642 C643 1.387 . S
C642 H646 0.950 . S
C642 C651 1.390 . S
C643 C642 1.387 . S
C643 C645 1.387 . S
H644 C651 0.950 . S
C645 C643 1.387 . S
C645 C647 1.390 . S
C645 H649 0.950 . S
H646 C642 0.950 . S
C647 C645 1.390 . S
C647 C648 1.387 . S
C647 H650 0.950 . S
C648 C647 1.387 . S
C648 C651 1.387 . S
H649 C645 0.950 . S
H650 C647 0.950 . S
C651 C642 1.390 . S
C651 H644 0.950 . S
C651 C648 1.387 . S
C652 C653 1.387 . S
C652 H656 0.950 . S
C652 C661 1.390 . S
C653 C652 1.387 . S
C653 C655 1.387 . S
H654 C661 0.950 . S
C655 C653 1.387 . S
C655 C657 1.390 . S
C655 H659 0.950 . S
H656 C652 0.950 . S
C657 C655 1.390 . S
C657 C658 1.387 . S
C657 H660 0.950 . S
C658 C657 1.387 . S
C658 C661 1.387 . S
H659 C655 0.950 . S
H660 C657 0.950 . S
C661 C652 1.390 . S
C661 H654 0.950 . S
C661 C658 1.387 . S
C662 C663 1.387 . S
C662 H666 0.950 . S
C662 C671 1.390 . S
C663 C662 1.387 . S
C663 C665 1.387 . S
H664 C671 0.950 . S
C665 C663 1.387 . S
C665 C667 1.390 . S
C665 H669 0.950 . S
H666 C662 0.950 . S
C667 C665 1.390 . S
C667 C668 1.387 . S
C667 H670 0.950 . S
C668 C667 1.387 . S
C668 C671 1.387 . S
H669 C665 0.950 . S
H670 C667 0.950 . S
C671 C662 1.390 . S
C671 H664 0.950 . S
C671 C668 1.387 . S
C672 C673 1.387 . S
C672 H676 0.950 . S
C672 C681 1.390 . S
C673 C672 1.387 . S
C673 C675 1.387 . S
H674 C681 0.950 . S
C675 C673 1.387 . S
C675 C677 1.390 . S
C675 H679 0.950 . S
H676 C672 0.950 . S
C677 C675 1.390 . S
C677 C678 1.387 . S
C677 H680 0.950 . S
C678 C677 1.387 . S
C678 C681 1.387 . S
H679 C675 0.950 . S
H680 C677 0.950 . S
C681 C672 1.390 . S
C681 H674 0.950 . S
C681 C678 1.387 . S
C682 C683 1.387 . S
C682 H686 0.950 . S
C682 C691 1.390 1_545 S
C683 C682 1.387 . S
C683 C685 1.387 1_545 S
H684 C691 0.950 . S
C685 C683 1.387 1_565 S
C685 C687 1.390 . S
C685 H689 0.950 . S
H686 C682 0.950 . S
C687 C685 1.390 . S
C687 C688 1.387 . S
C687 H690 0.950 . S
C688 C687 1.387 . S
C688 C691 1.387 . S
H689 C685 0.950 . S
H690 C687 0.950 . S
C691 C682 1.390 1_565 S
C691 H684 0.950 . S
C691 C688 1.387 . S
C692 C693 1.387 . S
C692 H696 0.950 . S
C692 C701 1.390 . S
C693 C692 1.387 . S
C693 C695 1.387 . S
H694 C701 0.950 . S
C695 C693 1.387 . S
C695 C697 1.390 . S
C695 H699 0.950 . S
H696 C692 0.950 . S
C697 C695 1.390 . S
C697 C698 1.387 . S
C697 H700 0.950 . S
C698 C697 1.387 . S
C698 C701 1.387 . S
H699 C695 0.950 . S
H700 C697 0.950 . S
C701 C692 1.390 . S
C701 H694 0.950 . S
C701 C698 1.387 . S
C702 C703 1.387 . S
C702 H706 0.950 . S
C702 C711 1.390 . S
C703 C702 1.387 . S
C703 C705 1.387 . S
H704 C711 0.950 . S
C705 C703 1.387 . S
C705 C707 1.390 . S
C705 H709 0.950 1_565 S
H706 C702 0.950 . S
C707 C705 1.390 . S
C707 C708 1.387 . S
C707 H710 0.950 1_565 S
C708 C707 1.387 . S
C708 C711 1.387 . S
H709 C705 0.950 1_545 S
H710 C707 0.950 1_545 S
C711 C702 1.390 . S
C711 H704 0.950 . S
C711 C708 1.387 . S
C712 C713 1.387 . S
C712 H716 0.950 . S
C712 C721 1.390 . S
C713 C712 1.387 . S
C713 C715 1.387 . S
H714 C721 0.950 . S
C715 C713 1.387 . S
C715 C717 1.390 . S
C715 H719 0.950 . S
H716 C712 0.950 . S
C717 C715 1.390 . S
C717 C718 1.387 . S
C717 H720 0.950 . S
C718 C717 1.387 . S
C718 C721 1.387 . S
H719 C715 0.950 . S
H720 C717 0.950 . S
C721 C712 1.390 . S
C721 H714 0.950 . S
C721 C718 1.387 . S
C722 C723 1.387 . S
C722 H726 0.950 . S
C722 C731 1.390 . S
C723 C722 1.387 . S
C723 C725 1.387 . S
H724 C731 0.950 . S
C725 C723 1.387 . S
C725 C727 1.390 . S
C725 H729 0.950 . S
H726 C722 0.950 . S
C727 C725 1.390 . S
C727 C728 1.387 . S
C727 H730 0.950 . S
C728 C727 1.387 . S
C728 C731 1.387 . S
H729 C725 0.950 . S
H730 C727 0.950 . S
C731 C722 1.390 . S
C731 H724 0.950 . S
C731 C728 1.387 . S
C732 C733 1.387 . S
C732 H736 0.950 . S
C732 C741 1.390 . S
C733 C732 1.387 . S
C733 C735 1.387 . S
H734 C741 0.950 . S
C735 C733 1.387 . S
C735 C737 1.390 . S
C735 H739 0.950 . S
H736 C732 0.950 . S
C737 C735 1.390 . S
C737 C738 1.387 . S
C737 H740 0.950 . S
C738 C737 1.387 . S
C738 C741 1.387 . S
H739 C735 0.950 . S
H740 C737 0.950 . S
C741 C732 1.390 . S
C741 H734 0.950 . S
C741 C738 1.387 . S
C742 C743 1.387 . S
C742 H746 0.950 . S
C742 C751 1.390 1_554 S
C743 C742 1.387 . S
C743 C745 1.387 . S
H744 C751 0.950 . S
C745 C743 1.387 . S
C745 C747 1.390 1_554 S
C745 H749 0.950 . S
H746 C742 0.950 . S
C747 C745 1.390 1_556 S
C747 C748 1.387 . S
C747 H750 0.950 . S
C748 C747 1.387 . S
C748 C751 1.387 . S
H749 C745 0.950 . S
H750 C747 0.950 . S
C751 C742 1.390 1_556 S
C751 H744 0.950 . S
C751 C748 1.387 . S
C752 C753 1.387 . S
C752 H756 0.950 . S
C752 C761 1.390 . S
C753 C752 1.387 . S
C753 C755 1.387 . S
H754 C761 0.950 . S
C755 C753 1.387 . S
C755 C757 1.390 . S
C755 H759 0.950 . S
H756 C752 0.950 . S
C757 C755 1.390 . S
C757 C758 1.387 . S
C757 H760 0.950 . S
C758 C757 1.387 . S
C758 C761 1.387 . S
H759 C755 0.950 . S
H760 C757 0.950 . S
C761 C752 1.390 . S
C761 H754 0.950 . S
C761 C758 1.387 . S
C528 C514 1.273 . S
C523 C51 1.253 . S
C533 C125 1.616 . S
C538 C449 1.626 . S
C543 C217 2.290 . S
C548 C467 2.292 . S
C553 C291 1.791 . S
C558 C480 1.816 . S
C568 C488 0.889 . S
C563 C347 0.881 . S
C573 C421 1.078 . S
C578 C500 1.086 . S
C583 C143 2.373 . S
C588 C462 2.396 . S
C593 C199 1.337 . S
C598 C475 1.341 . S
C603 C273 0.916 . S
C608 C493 0.926 . S
C618 C499 1.412 . S
C613 C365 1.408 . S
C628 C519 1.986 . S
C623 C439 1.976 . S
C638 C454 2.104 . S
C633 C69 2.113 . S
C643 C63 1.645 . S
C648 C460 1.795 . S
C653 C137 1.530 . S
C658 C473 1.647 . S
C668 C487 1.649 . S
C663 C187 1.588 . S
C673 C261 1.531 . S
C678 C501 1.596 1_556 S
C688 C513 1.597 . S
C683 C359 1.461 . S
C698 C448 1.359 . S
C693 C433 1.255 . S
C708 C512 1.703 . S
C703 C113 1.655 . S
C713 C211 1.581 . S
C718 C447 1.681 . S
C728 C461 1.644 . S
C723 C285 1.482 . S
C733 C335 1.520 . S
C738 C474 1.571 . S
C743 C409 1.468 . S
C748 C486 1.544 . S
C753 C39 1.818 . S
C758 C506 1.874 . S
