# Generated by pormake.
# Topology zzz, (3,6)-cn, num edge types: 1
# Building blocks:
#     Node 0, Type 0, BuildingBlock: BETDIP_clean_linker_0, # of connection points: 3
#     Node 1, Type 0, BuildingBlock: BETDIP_clean_linker_0, # of connection points: 3
#     Node 2, Type 0, BuildingBlock: BETDIP_clean_linker_0, # of connection points: 3
#     Node 3, Type 0, BuildingBlock: BETDIP_clean_linker_0, # of connection points: 3
#     Node 4, Type 0, BuildingBlock: BETDIP_clean_linker_0, # of connection points: 3
#     Node 5, Type 0, BuildingBlock: BETDIP_clean_linker_0, # of connection points: 3
#     Node 6, Type 0, BuildingBlock: BETDIP_clean_linker_0, # of connection points: 3
#     Node 7, Type 0, BuildingBlock: BETDIP_clean_linker_0, # of connection points: 3
#     Node 8, Type 1, BuildingBlock: KUMJIN_clean_sbu_1, # of connection points: 6
#     Node 9, Type 1, BuildingBlock: KUMJIN_clean_sbu_1, # of connection points: 6
#     Node 10, Type 1, BuildingBlock: KUMJIN_clean_sbu_1, # of connection points: 6
#     Node 11, Type 1, BuildingBlock: KUMJIN_clean_sbu_1, # of connection points: 6
#     Edge 12, Type (0, 1), BuildingBlock: TEMPAE_clean_linker_10, # of connection points: 2
#     Edge 13, Type (0, 1), BuildingBlock: TEMPAE_clean_linker_10, # of connection points: 2
#     Edge 14, Type (0, 1), BuildingBlock: TEMPAE_clean_linker_10, # of connection points: 2
#     Edge 15, Type (0, 1), BuildingBlock: TEMPAE_clean_linker_10, # of connection points: 2
#     Edge 16, Type (0, 1), BuildingBlock: TEMPAE_clean_linker_10, # of connection points: 2
#     Edge 17, Type (0, 1), BuildingBlock: TEMPAE_clean_linker_10, # of connection points: 2
#     Edge 18, Type (0, 1), BuildingBlock: TEMPAE_clean_linker_10, # of connection points: 2
#     Edge 19, Type (0, 1), BuildingBlock: TEMPAE_clean_linker_10, # of connection points: 2
#     Edge 20, Type (0, 1), BuildingBlock: TEMPAE_clean_linker_10, # of connection points: 2
#     Edge 21, Type (0, 1), BuildingBlock: TEMPAE_clean_linker_10, # of connection points: 2
#     Edge 22, Type (0, 1), BuildingBlock: TEMPAE_clean_linker_10, # of connection points: 2
#     Edge 23, Type (0, 1), BuildingBlock: TEMPAE_clean_linker_10, # of connection points: 2
#     Edge 24, Type (0, 1), BuildingBlock: TEMPAE_clean_linker_10, # of connection points: 2
#     Edge 25, Type (0, 1), BuildingBlock: TEMPAE_clean_linker_10, # of connection points: 2
#     Edge 26, Type (0, 1), BuildingBlock: TEMPAE_clean_linker_10, # of connection points: 2
#     Edge 27, Type (0, 1), BuildingBlock: TEMPAE_clean_linker_10, # of connection points: 2
#     Edge 28, Type (0, 1), BuildingBlock: TEMPAE_clean_linker_10, # of connection points: 2
#     Edge 29, Type (0, 1), BuildingBlock: TEMPAE_clean_linker_10, # of connection points: 2
#     Edge 30, Type (0, 1), BuildingBlock: TEMPAE_clean_linker_10, # of connection points: 2
#     Edge 31, Type (0, 1), BuildingBlock: TEMPAE_clean_linker_10, # of connection points: 2
#     Edge 32, Type (0, 1), BuildingBlock: TEMPAE_clean_linker_10, # of connection points: 2
#     Edge 33, Type (0, 1), BuildingBlock: TEMPAE_clean_linker_10, # of connection points: 2
#     Edge 34, Type (0, 1), BuildingBlock: TEMPAE_clean_linker_10, # of connection points: 2
#     Edge 35, Type (0, 1), BuildingBlock: TEMPAE_clean_linker_10, # of connection points: 2
# Relax obj value: 0.180
# Max RMSD: 0.102
# Mean RMSD: 0.079
data_MOF--net-zzz--node1-KUMJIN_clean_sbu_1--node2-BETDIP_clean_linker_0--edge1-TEMPAE_clean_linker_10
_symmetry_space_group_name_H-M    P1
_symmetry_Int_Tables_number       1
_symmetry_cell_setting            triclinic
loop_
_symmetry_equiv_pos_as_xyz
'x, y, z'
_cell_length_a     50.939512
_cell_length_b     50.960065
_cell_length_c     15.962385
_cell_angle_alpha  90.048921
_cell_angle_beta   89.939098
_cell_angle_gamma 90.220732
loop_
_atom_site_label
_atom_site_type_symbol
_atom_site_fract_x
_atom_site_fract_y
_atom_site_fract_z
_atom_type_partial_charge
H0 H 0.76335 0.54603 0.39484 0.0
H1 H 0.74493 0.56146 0.13559 0.0
H2 H 0.82501 0.55606 0.21211 0.0
H3 H 0.71066 0.58612 0.21579 0.0
C4 C 0.70399 0.56671 0.23458 0.0
C5 C 0.76969 0.55009 0.3314 0.0
C6 C 0.79718 0.5525 0.31303 0.0
C7 C 0.75047 0.55382 0.26678 0.0
C8 C 0.75914 0.55912 0.18532 0.0
C9 C 0.78575 0.55974 0.16531 0.0
C10 C 0.8044 0.55659 0.22896 0.0
N11 N 0.7226 0.55096 0.2802 0.0
H12 H 0.01597 0.76493 0.37451 0.0
H13 H 0.97398 0.75933 0.14034 0.0
H14 H 0.9828 0.83381 0.26292 0.0
H15 H 0.96443 0.71812 0.19698 0.0
C16 C 0.98509 0.71301 0.20141 0.0
C17 C 1.00447 0.77392 0.32539 0.0
C18 C 0.99882 0.80135 0.3291 0.0
C19 C 0.99513 0.75828 0.25694 0.0
C20 C 0.98066 0.77072 0.19339 0.0
C21 C 0.97663 0.79792 0.1932 0.0
C22 C 0.98515 0.81269 0.26248 0.0
N23 N 1.00182 0.73089 0.24703 0.0
H24 H 0.77578 1.01395 0.36604 0.0
H25 H 0.77852 0.97924 0.11885 0.0
H26 H 0.70855 0.97327 0.26642 0.0
H27 H 0.8256 0.96624 0.21731 0.0
C28 C 0.82761 0.98685 0.20094 0.0
C29 C 0.76655 1.00259 0.3168 0.0
C30 C 0.74021 0.99346 0.32719 0.0
C31 C 0.78109 0.99618 0.24272 0.0
C32 C 0.76838 0.98253 0.17764 0.0
C33 C 0.74226 0.9744 0.18619 0.0
C34 C 0.72894 0.97917 0.26139 0.0
N35 N 0.80777 1.00462 0.23015 0.0
H36 H 0.52345 0.78596 0.39368 0.0
H37 H 0.56709 0.79153 0.16249 0.0
H38 H 0.5585 0.71721 0.28702 0.0
H39 H 0.57724 0.83443 0.23955 0.0
C40 C 0.55644 0.83827 0.23074 0.0
C41 C 0.53541 0.77694 0.34564 0.0
C42 C 0.54161 0.74968 0.35104 0.0
C43 C 0.54516 0.79244 0.27755 0.0
C44 C 0.56025 0.78009 0.21533 0.0
C45 C 0.56451 0.75291 0.21613 0.0
C46 C 0.55587 0.7383 0.28565 0.0
N47 N 0.53826 0.81966 0.26642 0.0
H48 H 0.27339 0.52067 0.02044 0.0
H49 H 0.28609 0.4759 0.24559 0.0
H50 H 0.20871 0.48174 0.14232 0.0
H51 H 0.3035 0.52242 0.27133 0.0
C52 C 0.31861 0.51707 0.22622 0.0
C53 C 0.26595 0.50787 0.06915 0.0
C54 C 0.23868 0.501 0.07075 0.0
C55 C 0.28307 0.4994 0.13478 0.0
C56 C 0.27292 0.483 0.19755 0.0
C57 C 0.24601 0.47787 0.20428 0.0
C58 C 0.22951 0.48586 0.13853 0.0
N59 N 0.3096 0.50895 0.14455 0.0
H60 H 0.0317 0.27945 0.97827 0.0
H61 H 0.07486 0.30419 0.19688 0.0
H62 H 0.074 0.22325 0.12594 0.0
H63 H 0.02054 0.31347 0.21107 0.0
C64 C 0.0283 0.32892 0.17091 0.0
C65 C 0.04494 0.27494 0.02919 0.0
C66 C 0.05488 0.24879 0.0387 0.0
C67 C 0.05185 0.295 0.08856 0.0
C68 C 0.06934 0.28891 0.1529 0.0
C69 C 0.07599 0.26301 0.17018 0.0
C70 C 0.06959 0.24349 0.11133 0.0
N71 N 0.03948 0.32033 0.09254 0.0
H72 H 0.26222 0.01937 1.00721 0.0
H73 H 0.24737 0.07953 0.19179 0.0
H74 H 0.31825 0.08137 0.04755 0.0
H75 H 0.23747 0.03685 0.25925 0.0
C76 C 0.22108 0.03478 0.21605 0.0
C77 C 0.26766 0.03765 0.03725 0.0
C78 C 0.29194 0.05011 0.01625 0.0
C79 C 0.25096 0.04865 0.10006 0.0
C80 C 0.25924 0.07157 0.14152 0.0
C81 C 0.28406 0.0825 0.12681 0.0
C82 C 0.29901 0.07302 0.05945 0.0
N83 N 0.2272 0.03593 0.12807 0.0
H84 H 0.48223 0.26977 0.01226 0.0
H85 H 0.52404 0.25688 0.24483 0.0
H86 H 0.52213 0.33355 0.13743 0.0
H87 H 0.53517 0.21822 0.15185 0.0
C88 C 0.51459 0.21299 0.15968 0.0
C89 C 0.49388 0.27713 0.0639 0.0
C90 C 0.50109 0.30436 0.06676 0.0
C91 C 0.50234 0.25951 0.12873 0.0
C92 C 0.51756 0.26961 0.19461 0.0
C93 C 0.52426 0.29605 0.19764 0.0
C94 C 0.51607 0.31311 0.13462 0.0
N95 N 0.49579 0.23195 0.1303 0.0
Eu96 Eu 0.99249 0.03702 0.62103 0.0
C97 C 0.07382 0.05843 0.87674 0.0
N98 N 0.07591 0.04723 0.79961 0.0
C99 C 0.11241 0.07512 0.7662 0.0
C100 C 0.09053 0.07929 0.90019 0.0
C101 C 0.09556 0.05437 0.74584 0.0
C102 C 0.10971 0.08782 0.84335 0.0
C103 C 0.05283 0.05994 0.0133 0.0
C104 C 0.05506 0.04879 0.93258 0.0
C105 C 0.06906 0.08112 0.03604 0.0
C106 C 0.08796 0.09061 0.97991 0.0
Eu107 Eu 0.04728 1.01186 0.77191 0.0
N108 N 0.03987 0.02791 0.9096 0.0
C109 C 0.03492 0.04897 0.0699 0.0
C110 C 0.02402 0.01587 0.96721 0.0
C111 C 0.02077 0.0266 0.04716 0.0
H112 H 0.09782 0.0443 0.68668 0.0
H113 H 1.0077 0.0173 0.09177 0.0
H114 H 0.93622 0.03515 0.7373 0.0
H115 H 1.00682 1.00441 0.2995 0.0
H116 H 0.01421 0.99763 0.95299 0.0
H117 H 0.0326 0.05703 0.13231 0.0
H118 H 0.01765 0.02799 0.43056 0.0
H119 H 0.12756 0.0812 0.72269 0.0
H120 H 0.06757 0.0899 0.09771 0.0
H121 H 0.1009 0.10636 0.99941 0.0
H122 H 0.89451 1.01089 0.73898 0.0
H123 H 0.12286 0.10384 0.85908 0.0
H124 H 0.96587 0.9783 0.29017 0.0
N125 N 0.9504 0.01669 0.6261 0.0
C126 C 0.94375 1.00183 0.55851 0.0
C127 C 0.90834 1.00783 0.6884 0.0
C128 C 0.9194 0.98856 0.55487 0.0
C129 C 0.93242 0.02109 0.68817 0.0
C130 C 0.90197 0.99113 0.62214 0.0
N131 N 0.98366 0.01458 0.49502 0.0
C132 C 0.99989 0.01642 0.42717 0.0
C133 C 0.95352 0.98762 0.41664 0.0
C134 C 0.96058 1.00126 0.49027 0.0
C135 C 0.97055 0.98857 0.34773 0.0
C136 C 0.99373 1.00322 0.35285 0.0
H137 H 0.88313 0.98118 0.6219 0.0
H138 H 0.89428 0.96348 0.47961 0.0
H139 H 0.92418 0.96264 0.35864 0.0
O140 O 1.0018 0.07493 0.56504 0.0
O141 O 1.00837 0.99566 0.59033 0.0
O142 O 0.02223 0.97865 0.7165 0.0
O143 O 0.9608 0.06164 0.57243 0.0
O144 O 0.03494 0.04313 0.57265 0.0
O145 O 0.05952 1.01067 0.63548 0.0
O146 O 0.06875 0.99082 0.86845 0.0
O147 O 0.04232 0.05547 0.73632 0.0
O148 O 0.99865 0.06041 0.74139 0.0
O149 O 0.08196 0.98865 0.74035 0.0
O150 O 1.00572 0.99757 0.80695 0.0
O151 O 0.98209 0.03264 0.75949 0.0
C152 C 0.015 0.97541 0.63762 0.0
C153 C 0.96872 0.10472 0.51162 0.0
C154 C 0.97919 0.1489 0.46438 0.0
C155 C 0.95292 0.15226 0.43983 0.0
C156 C 0.9425 0.10834 0.48729 0.0
C157 C 0.93468 0.13207 0.45162 0.0
C158 C 0.9869 0.12514 0.50056 0.0
C159 C 0.05564 0.0275 0.57444 0.0
C160 C 0.97714 0.08016 0.55113 0.0
C161 C 0.9128 0.97396 0.48315 0.0
C162 C 0.92977 0.97357 0.41409 0.0
C163 C 0.02198 0.06936 0.7602 0.0
C164 C 0.08701 0.95115 0.82329 0.0
C165 C 0.06753 0.909 0.85793 0.0
C166 C 0.09172 0.89679 0.8421 0.0
C167 C 0.11102 0.93884 0.80667 0.0
C168 C 0.06522 0.93611 0.8476 0.0
C169 C 0.11329 0.91168 0.81575 0.0
C170 C 0.98412 1.01179 0.80724 0.0
C171 C 0.08471 0.97964 0.81593 0.0
H172 H 0.94657 0.17045 0.41139 0.0
H173 H 0.92808 0.09289 0.49581 0.0
H174 H 0.91447 0.13477 0.43272 0.0
H175 H 1.00723 0.12241 0.51862 0.0
H176 H 0.09386 0.8758 0.8501 0.0
H177 H 0.12796 0.95024 0.78725 0.0
H178 H 0.04661 0.94557 0.86057 0.0
H179 H 0.13187 0.90219 0.80327 0.0
Eu180 Eu 0.53125 0.053 0.77035 0.0
C181 C 0.5418 0.94428 0.55941 0.0
N182 N 0.5413 0.96967 0.53389 0.0
C183 C 0.57385 0.96064 0.42936 0.0
C184 C 0.55907 0.92611 0.52218 0.0
C185 C 0.55609 0.97779 0.46746 0.0
C186 C 0.57563 0.93476 0.45765 0.0
C187 C 0.52252 0.90947 0.64318 0.0
C188 C 0.52376 0.93606 0.61903 0.0
C189 C 0.54045 0.89152 0.60899 0.0
C190 C 0.55869 0.89982 0.54863 0.0
Eu191 Eu 0.51236 0.99784 0.60611 0.0
N192 N 0.50673 0.9539 0.65112 0.0
C193 C 0.50296 0.90165 0.69975 0.0
C194 C 0.4866 0.94611 0.70225 0.0
C195 C 0.48473 0.91999 0.72855 0.0
H196 H 0.55392 0.99746 0.44344 0.0
H197 H 0.46926 0.91403 0.77105 0.0
H198 H 0.47605 0.08649 0.80719 0.0
H199 H 0.62606 0.08965 0.65348 0.0
H200 H 0.47249 0.9602 0.72483 0.0
H201 H 0.50145 0.88144 0.72021 0.0
H202 H 0.59679 0.0596 0.72944 0.0
H203 H 0.58594 0.9673 0.37769 0.0
H204 H 0.53998 0.87106 0.62743 0.0
H205 H 0.57196 0.88561 0.52128 0.0
H206 H 0.45795 0.13057 0.78079 0.0
H207 H 0.58921 0.92143 0.42749 0.0
H208 H 0.609 0.13186 0.60075 0.0
N209 N 0.51221 0.09437 0.74519 0.0
C210 C 0.52749 0.11249 0.706 0.0
C211 C 0.47747 0.12571 0.75908 0.0
C212 C 0.51795 0.13796 0.69001 0.0
C213 C 0.48773 0.10072 0.77357 0.0
C214 C 0.49258 0.14437 0.71668 0.0
N215 N 0.56219 0.08163 0.70539 0.0
C216 C 0.58848 0.07663 0.70004 0.0
C217 C 0.56948 0.12451 0.64525 0.0
C218 C 0.55296 0.10574 0.68378 0.0
C219 C 0.59573 0.11803 0.63044 0.0
C220 C 0.6054 0.09419 0.65968 0.0
H221 H 0.48457 0.16372 0.7055 0.0
H222 H 0.52698 0.17585 0.63555 0.0
H223 H 0.57214 0.16412 0.59661 0.0
O224 O 0.55892 0.06871 0.86227 0.0
O225 O 0.50615 0.06325 0.6546 0.0
O226 O 0.52504 0.03781 0.55511 0.0
O227 O 0.51823 0.06438 0.89568 0.0
O228 O 0.56437 0.02584 0.7207 0.0
O229 O 0.55068 0.01976 0.58637 0.0
O230 O 0.47514 1.01065 0.55324 0.0
O231 O 0.52672 0.98046 0.72981 0.0
O232 O 0.52956 1.01265 0.83212 0.0
O233 O 0.49792 0.97946 0.49111 0.0
O234 O 0.47821 1.00817 0.69435 0.0
O235 O 0.48947 0.03957 0.7938 0.0
C236 C 0.51357 0.05991 0.57624 0.0
C237 C 0.54893 0.05217 0.99705 0.0
C238 C 0.57527 0.01776 0.06128 0.0
C239 C 0.55985 0.01957 0.13414 0.0
C240 C 0.53377 0.0538 0.07031 0.0
C241 C 0.53913 0.03742 0.13828 0.0
C242 C 0.56946 0.03388 0.99272 0.0
C243 C 0.56981 0.02092 0.64116 0.0
C244 C 0.54193 0.06797 0.92317 0.0
C245 C 0.53406 0.15628 0.64901 0.0
C246 C 0.55973 0.14955 0.62649 0.0
C247 C 0.52963 0.98789 0.80837 0.0
C248 C 0.45701 0.99214 0.4261 0.0
C249 C 0.42191 1.01277 0.34705 0.0
C250 C 0.41579 0.98802 0.31194 0.0
C251 C 0.45123 0.96792 0.38879 0.0
C252 C 0.44286 1.01453 0.40373 0.0
C253 C 0.43065 0.96593 0.33176 0.0
C254 C 0.47245 0.02342 0.75891 0.0
C255 C 0.47702 0.99407 0.49107 0.0
H256 H 0.56399 1.00736 0.18802 0.0
H257 H 0.51759 0.06748 0.07448 0.0
H258 H 0.5273 0.03867 0.19451 0.0
H259 H 0.5814 0.03256 0.93662 0.0
H260 H 0.39922 0.98542 0.27036 0.0
H261 H 0.46215 0.95048 0.40536 0.0
H262 H 0.44836 0.03325 0.43078 0.0
H263 H 0.42582 0.94711 0.30418 0.0
Eu264 Eu 0.5458 0.51542 0.63618 0.0
C265 C 0.46088 0.49259 0.88831 0.0
N266 N 0.45892 0.50446 0.8123 0.0
C267 C 0.42148 0.47798 0.77791 0.0
C268 C 0.4436 0.47206 0.91062 0.0
C269 C 0.43889 0.49838 0.75872 0.0
C270 C 0.42403 0.46455 0.85375 0.0
C271 C 0.48162 0.48994 0.02481 0.0
C272 C 0.47982 0.50145 0.94454 0.0
C273 C 0.46502 0.46892 0.04612 0.0
C274 C 0.44597 0.46013 0.9894 0.0
Eu275 Eu 0.48899 0.53867 0.78498 0.0
N276 N 0.49516 0.52239 0.92321 0.0
C277 C 0.49921 0.50069 0.08281 0.0
C278 C 0.51027 0.53445 0.98272 0.0
C279 C 0.51321 0.52335 0.06218 0.0
H280 H 0.43682 0.50894 0.70043 0.0
H281 H 0.5258 0.53264 0.10816 0.0
H282 H 0.59802 0.53371 0.75785 0.0
H283 H 0.52856 0.53742 0.30742 0.0
H284 H 0.5197 0.55304 0.97034 0.0
H285 H 0.50117 0.4924 0.14499 0.0
H286 H 0.52102 0.51533 0.44312 0.0
H287 H 0.40605 0.4727 0.73443 0.0
H288 H 0.46619 0.45985 0.10738 0.0
H289 H 0.43272 0.44449 0.00788 0.0
H290 H 0.63288 0.56684 0.75775 0.0
H291 H 0.41046 0.4488 0.86856 0.0
H292 H 0.56371 0.57078 0.29416 0.0
N293 N 0.58133 0.5459 0.64211 0.0
C294 C 0.58604 0.55961 0.57033 0.0
C295 C 0.61945 0.56552 0.70537 0.0
C296 C 0.60703 0.57774 0.56505 0.0
C297 C 0.59883 0.54736 0.70678 0.0
C298 C 0.62328 0.58115 0.63478 0.0
N299 N 0.5509 0.53673 0.50637 0.0
C300 C 0.5361 0.53019 0.43827 0.0
C301 C 0.57606 0.56724 0.42344 0.0
C302 C 0.57082 0.55442 0.50004 0.0
C303 C 0.56044 0.56119 0.35385 0.0
C304 C 0.54048 0.54248 0.3612 0.0
H305 H 0.63958 0.59487 0.63324 0.0
H306 H 0.62775 0.60516 0.48471 0.0
H307 H 0.60059 0.59598 0.36078 0.0
O308 O 0.549 0.48045 0.55624 0.0
O309 O 0.52703 0.55544 0.60574 0.0
O310 O 0.51518 0.57174 0.734 0.0
O311 O 0.58328 0.49623 0.61925 0.0
O312 O 0.50409 0.5051 0.58775 0.0
O313 O 0.47811 0.53746 0.64674 0.0
O314 O 0.46594 0.55918 0.87921 0.0
O315 O 0.49192 0.49506 0.74683 0.0
O316 O 0.53567 0.48831 0.74605 0.0
O317 O 0.45695 0.56481 0.74871 0.0
O318 O 0.53059 0.5509 0.82609 0.0
O319 O 0.55456 0.51629 0.77672 0.0
C320 C 0.52089 0.57552 0.65419 0.0
C321 C 0.59103 0.47297 0.49498 0.0
C322 C 0.61243 0.43953 0.41089 0.0
C323 C 0.62578 0.45915 0.36593 0.0
C324 C 0.60485 0.49252 0.45111 0.0
C325 C 0.62205 0.48557 0.38646 0.0
C326 C 0.59492 0.4467 0.47465 0.0
C327 C 0.48278 0.52007 0.58733 0.0
C328 C 0.57432 0.47877 0.56735 0.0
C329 C 0.6118 0.5911 0.48958 0.0
C330 C 0.59643 0.58579 0.41888 0.0
C331 C 0.51198 0.47986 0.76357 0.0
C332 C 0.45173 0.60085 0.8386 0.0
C333 C 0.47299 0.64107 0.88496 0.0
C334 C 0.44969 0.65488 0.8689 0.0
C335 C 0.42866 0.6148 0.82214 0.0
C336 C 0.47396 0.61409 0.86906 0.0
C337 C 0.42771 0.64179 0.83705 0.0
C338 C 0.55105 0.53521 0.83166 0.0
C339 C 0.45244 0.57247 0.82502 0.0
H340 H 0.63901 0.45404 0.31537 0.0
H341 H 0.60274 0.51295 0.46746 0.0
H342 H 0.63264 0.50065 0.35259 0.0
H343 H 0.584 0.43173 0.50841 0.0
H344 H 0.44857 0.67579 0.88057 0.0
H345 H 0.41141 0.60481 0.79827 0.0
H346 H 0.49185 0.60334 0.88188 0.0
H347 H 0.40987 0.65254 0.82449 0.0
Eu348 Eu 0.03207 0.55308 0.59165 0.0
C349 C 0.04724 0.45084 0.81071 0.0
N350 N 0.03158 0.45593 0.74362 0.0
C351 C 0.04042 0.41321 0.68723 0.0
C352 C 0.06045 0.42664 0.81767 0.0
C353 C 0.02758 0.43736 0.68316 0.0
C354 C 0.05703 0.40787 0.75452 0.0
C355 C 0.06656 0.46514 0.94234 0.0
C356 C 0.05023 0.46994 0.87257 0.0
C357 C 0.07961 0.44103 0.94936 0.0
C358 C 0.0766 0.42188 0.8872 0.0
Eu359 Eu 1.01086 0.49738 0.74282 0.0
N360 N 0.03785 0.49344 0.86333 0.0
C361 C 0.06949 0.48479 1.00283 0.0
C362 C 0.04003 0.51229 0.92378 0.0
C363 C 0.05606 0.5084 0.99367 0.0
H364 H 0.01392 0.44075 0.63283 0.0
H365 H 0.05788 0.52357 0.04084 0.0
H366 H 1.00649 0.60604 0.68547 0.0
H367 H 1.01218 0.51274 0.2787 0.0
H368 H 0.02931 0.5303 0.91975 0.0
H369 H 0.08191 0.48187 0.05708 0.0
H370 H 0.03658 0.51791 0.40977 0.0
H371 H 0.03727 0.39862 0.63892 0.0
H372 H 0.09221 0.43707 1.00248 0.0
H373 H 0.08689 0.40341 0.89348 0.0
H374 H 0.97201 0.63895 0.65932 0.0
H375 H 0.06687 0.38908 0.75763 0.0
H376 H 0.97483 0.54193 0.24769 0.0
N377 N 0.99923 0.58505 0.57282 0.0
C378 C 0.98567 0.58394 0.49951 0.0
C379 C 0.97557 0.62352 0.6141 0.0
C380 C 0.96614 0.60264 0.48136 0.0
C381 C 0.99495 0.60478 0.62906 0.0
C382 C 0.96101 0.62239 0.5401 0.0
N383 N 1.01061 0.54643 0.46109 0.0
C384 C 0.01899 0.52919 0.40121 0.0
C385 C 0.97778 0.56279 0.36556 0.0
C386 C 0.99128 0.56395 0.44274 0.0
C387 C 0.98476 0.54346 0.30753 0.0
C388 C 1.00571 0.52685 0.32498 0.0
H389 H 0.94609 0.63704 0.52846 0.0
H390 H 0.93771 0.61562 0.38971 0.0
H391 H 0.948 0.58088 0.28815 0.0
O392 O 0.06013 0.562 0.49247 0.0
O393 O 0.98847 0.54956 0.63076 0.0
O394 O 0.98376 0.50555 0.6313 0.0
O395 O 0.05106 0.5916 0.58407 0.0
O396 O 0.04456 0.5107 0.55555 0.0
O397 O 1.0094 0.48754 0.60433 0.0
O398 O 0.97589 0.50198 0.82054 0.0
O399 O 0.0557 0.5014 0.73076 0.0
O400 O 0.06395 0.54373 0.6879 0.0
O401 O 0.98898 0.46313 0.78589 0.0
O402 O 1.00498 0.53952 0.79493 0.0
O403 O 0.03491 0.56613 0.72697 0.0
C404 C 0.97376 0.52879 0.61675 0.0
C405 C 0.09552 0.58626 0.54894 0.0
C406 C 0.1387 0.56628 0.55944 0.0
C407 C 0.14807 0.58839 0.60227 0.0
C408 C 0.10502 0.60833 0.5924 0.0
C409 C 0.13117 0.6093 0.61914 0.0
C410 C 0.1126 0.56527 0.53304 0.0
C411 C 0.02912 0.48981 0.55193 0.0
C412 C 0.06748 0.58401 0.52678 0.0
C413 C 0.9526 0.60128 0.40503 0.0
C414 C 0.95842 0.58144 0.34729 0.0
C415 C 0.07154 0.5218 0.72387 0.0
C416 C 0.94391 0.47201 0.77429 0.0
C417 C 0.89762 0.48262 0.76574 0.0
C418 C 0.89545 0.46813 0.69144 0.0
C419 C 0.94171 0.45771 0.69896 0.0
C420 C 0.92176 0.48423 0.8073 0.0
C421 C 0.91751 0.45569 0.65821 0.0
C422 C 0.01883 0.56158 0.78983 0.0
C423 C 0.96957 0.47723 0.81308 0.0
H424 H 0.16843 0.58959 0.62147 0.0
H425 H 0.09217 0.62464 0.60652 0.0
H426 H 0.13837 0.62634 0.6526 0.0
H427 H 0.10583 0.54807 0.49917 0.0
H428 H 0.87674 0.46618 0.66006 0.0
H429 H 0.95869 0.44855 0.67058 0.0
H430 H 0.92349 0.49584 0.8641 0.0
H431 H 0.91591 0.44469 0.6004 0.0
C432 C 0.19231 0.04051 0.34113 0.0
C433 C 0.19411 0.03482 0.25511 0.0
C434 C 0.16816 0.04035 0.38427 0.0
C435 C 0.14466 0.03389 0.34141 0.0
C436 C 0.14615 0.02838 0.25393 0.0
C437 C 0.1708 0.02908 0.21167 0.0
C438 C 0.16797 0.04672 0.47674 0.0
C439 C 0.12179 0.02114 0.20544 0.0
C440 C 0.09216 1.00681 0.49086 0.0
C441 C 0.07621 0.02876 0.50662 0.0
C442 C 0.11321 1.00777 0.43327 0.0
C443 C 0.11922 0.03146 0.39056 0.0
C444 C 0.10261 0.05348 0.40385 0.0
C445 C 0.08124 0.0518 0.46085 0.0
C446 C 0.12976 0.98356 0.4209 0.0
C447 C 0.1082 0.07927 0.36108 0.0
H448 H 0.21009 0.04512 0.3755 0.0
H449 H 0.17184 0.02462 0.14537 0.0
H450 H 0.15362 0.06252 0.48994 0.0
H451 H 0.16172 0.02919 0.51293 0.0
H452 H 0.18755 0.05308 0.49983 0.0
H453 H 0.12584 0.01844 0.13759 0.0
H454 H 0.11337 1.00266 0.23073 0.0
H455 H 0.10667 0.03657 0.21298 0.0
H456 H 0.0884 0.98874 0.52468 0.0
H457 H 0.06918 0.06892 0.47224 0.0
H458 H 0.14941 0.98673 0.44914 0.0
H459 H 0.13271 0.97969 0.35314 0.0
H460 H 0.12076 0.9659 0.45013 0.0
H461 H 0.12673 0.08771 0.38604 0.0
H462 H 0.0922 0.09371 0.3709 0.0
H463 H 0.11099 0.07627 0.29282 0.0
C464 C 0.52806 0.18758 0.28626 0.0
C465 C 0.50937 0.19155 0.22286 0.0
C466 C 0.52652 0.16624 0.34235 0.0
C467 C 0.50602 0.14746 0.33494 0.0
C468 C 0.48679 0.15142 0.27131 0.0
C469 C 0.48852 0.1735 0.2167 0.0
C470 C 0.54691 0.16396 0.41033 0.0
C471 C 0.46486 0.13183 0.25917 0.0
C472 C 0.52265 0.08037 0.43358 0.0
C473 C 0.50985 0.08139 0.51175 0.0
C474 C 0.52051 0.10098 0.37429 0.0
C475 C 0.50544 0.12369 0.39291 0.0
C476 C 0.49178 0.1244 0.47057 0.0
C477 C 0.49383 0.10325 0.52787 0.0
C478 C 0.535 0.09869 0.29212 0.0
C479 C 0.47573 0.14802 0.49498 0.0
H480 H 0.54426 0.20135 0.29182 0.0
H481 H 0.4742 0.17599 0.1672 0.0
H482 H 0.53714 0.16629 0.47186 0.0
H483 H 0.55616 0.14429 0.40925 0.0
H484 H 0.56256 0.1791 0.40488 0.0
H485 H 0.45083 0.13805 0.20986 0.0
H486 H 0.47321 0.11253 0.24133 0.0
H487 H 0.45395 0.12895 0.31867 0.0
H488 H 0.53482 0.06357 0.41902 0.0
H489 H 0.48303 0.10403 0.58618 0.0
H490 H 0.55006 0.11441 0.28746 0.0
H491 H 0.52115 0.10136 0.23921 0.0
H492 H 0.54488 0.07942 0.28499 0.0
H493 H 0.48914 0.16459 0.5099 0.0
H494 H 0.46319 0.14412 0.55059 0.0
H495 H 0.46303 0.15435 0.44244 0.0
C496 C 0.36911 0.51713 0.22013 0.0
C497 C 0.34546 0.51257 0.26327 0.0
C498 C 0.39369 0.51675 0.26278 0.0
C499 C 0.39478 0.5113 0.35037 0.0
C500 C 0.37095 0.50537 0.3924 0.0
C501 C 0.34688 0.50639 0.34898 0.0
C502 C 0.41834 0.52348 0.21493 0.0
C503 C 0.37066 0.49895 0.48477 0.0
C504 C 0.45795 0.49461 0.47379 0.0
C505 C 0.46259 0.51799 0.51838 0.0
C506 C 0.4368 0.49237 0.41605 0.0
C507 C 0.41998 0.51412 0.40086 0.0
C508 C 0.4256 0.5381 0.44248 0.0
C509 C 0.44644 0.53964 0.50061 0.0
C510 C 0.43168 0.46631 0.37434 0.0
C511 C 0.40887 0.56208 0.42825 0.0
H512 H 0.36834 0.52226 0.15432 0.0
H513 H 0.32879 0.50283 0.38313 0.0
H514 H 0.42583 0.54286 0.23613 0.0
H515 H 0.43391 0.50887 0.22768 0.0
H516 H 0.41489 0.52436 0.14628 0.0
H517 H 0.35105 0.49218 0.50646 0.0
H518 H 0.38525 0.48345 0.49888 0.0
H519 H 0.37625 0.51661 0.52141 0.0
H520 H 0.47014 0.4777 0.48662 0.0
H521 H 0.44987 0.55798 0.53337 0.0
H522 H 0.42915 0.46892 0.30584 0.0
H523 H 0.41314 0.45779 0.39903 0.0
H524 H 0.44781 0.45212 0.38543 0.0
H525 H 0.40635 0.56565 0.36018 0.0
H526 H 0.41745 0.57995 0.45742 0.0
H527 H 0.38906 0.5588 0.45533 0.0
C528 C 0.03416 0.37915 0.17488 0.0
C529 C 0.03384 0.35462 0.21508 0.0
C530 C 0.03554 0.40296 0.22175 0.0
C531 C 0.0371 0.40237 0.31102 0.0
C532 C 0.03811 0.37752 0.35079 0.0
C533 C 0.03616 0.35428 0.30292 0.0
C534 C 0.03409 0.42877 0.1759 0.0
C535 C 0.04031 0.37536 0.4449 0.0
C536 C 0.05604 0.46213 0.44926 0.0
C537 C 0.03169 0.46938 0.48365 0.0
C538 C 0.05813 0.44112 0.39083 0.0
C539 C 0.03531 0.42717 0.36424 0.0
C540 C 1.01062 0.43539 0.39604 0.0
C541 C 1.00918 0.45598 0.45525 0.0
C542 C 0.08496 0.43312 0.36041 0.0
C543 C 0.98557 0.42182 0.36962 0.0
H544 H 0.03211 0.37981 0.10736 0.0
H545 H 0.036 0.33552 0.33497 0.0
H546 H 0.01506 0.43834 0.18998 0.0
H547 H 0.04985 0.44224 0.19753 0.0
H548 H 0.03581 0.42626 0.10695 0.0
H549 H 0.04355 0.35483 0.46577 0.0
H550 H 0.05674 0.38773 0.46814 0.0
H551 H 0.02204 0.38267 0.47459 0.0
H552 H 0.0736 0.47219 0.47046 0.0
H553 H 0.99017 0.46148 0.48019 0.0
H554 H 0.08511 0.43125 0.29118 0.0
H555 H 0.08994 0.41359 0.38657 0.0
H556 H 0.10043 0.44735 0.37942 0.0
H557 H 0.98462 0.42035 0.30032 0.0
H558 H 0.96781 0.43224 0.39233 0.0
H559 H 0.98522 0.40155 0.39491 0.0
C560 C 0.87571 0.98226 0.16957 0.0
C561 C 0.85171 0.99464 0.15215 0.0
C562 C 0.89804 0.98576 0.11797 0.0
C563 C 0.89636 1.00123 0.04428 0.0
C564 C 0.87217 1.01401 0.02671 0.0
C565 C 0.85034 1.01089 0.08132 0.0
C566 C 0.92344 0.97259 0.14193 0.0
C567 C 0.86896 0.03001 0.94796 0.0
C568 C 0.95872 0.02683 0.93365 0.0
C569 C 0.96336 1.00756 0.87249 0.0
C570 C 0.93766 0.02466 0.99111 0.0
C571 C 0.91965 1.00339 0.98498 0.0
C572 C 0.92414 0.98403 0.92228 0.0
C573 C 0.94612 0.98609 0.86808 0.0
C574 C 0.93466 0.04528 0.05827 0.0
C575 C 0.90526 0.96144 0.91076 0.0
H576 H 0.87694 0.96948 0.22371 0.0
H577 H 0.83177 0.02002 0.06601 0.0
H578 H 0.92949 0.95863 0.09227 0.0
H579 H 0.93927 0.9875 0.14776 0.0
H580 H 0.92182 0.96172 0.20197 0.0
H581 H 0.84923 0.03911 0.94361 0.0
H582 H 0.88404 0.04574 0.94529 0.0
H583 H 0.87197 0.01727 0.89237 0.0
H584 H 0.97172 0.04371 0.93664 0.0
H585 H 0.94916 0.97148 0.81965 0.0
H586 H 0.93312 0.03584 0.12073 0.0
H587 H 0.9163 0.05645 0.048 0.0
H588 H 0.95141 0.05932 0.05914 0.0
H589 H 0.90433 0.94949 0.96874 0.0
H590 H 0.91095 0.94848 0.8578 0.0
H591 H 0.88523 0.96908 0.89897 0.0
C592 C 0.52478 0.86561 0.14079 0.0
C593 C 0.54956 0.86177 0.17732 0.0
C594 C 0.52026 0.88662 0.08387 0.0
C595 C 0.54088 0.90444 0.06287 0.0
C596 C 0.5656 0.90101 0.102 0.0
C597 C 0.5696 0.87984 0.15762 0.0
C598 C 0.4935 0.88949 0.04479 0.0
C599 C 0.58823 0.91931 0.08334 0.0
C600 C 0.54063 0.94128 0.85186 0.0
C601 C 0.53287 0.96681 0.87421 0.0
C602 C 0.54284 0.92096 0.9118 0.0
C603 C 0.53724 0.9259 0.99759 0.0
C604 C 0.52961 0.95172 0.02085 0.0
C605 C 0.52767 0.97175 0.95944 0.0
C606 C 0.55145 0.89412 0.88306 0.0
C607 C 0.52366 0.95834 0.111 0.0
H608 H 0.50913 0.85182 0.15472 0.0
H609 H 0.58887 0.87716 0.18512 0.0
H610 H 0.48589 0.90956 0.05614 0.0
H611 H 0.49498 0.88685 0.97593 0.0
H612 H 0.47916 0.875 0.06986 0.0
H613 H 0.60533 0.91559 0.12461 0.0
H614 H 0.59449 0.91684 0.0172 0.0
H615 H 0.58218 0.94004 0.09137 0.0
H616 H 0.54534 0.93716 0.78709 0.0
H617 H 0.52172 0.99128 0.9783 0.0
H618 H 0.53627 0.87933 0.89954 0.0
H619 H 0.5698 0.8885 0.91572 0.0
H620 H 0.55494 0.89328 0.81439 0.0
H621 H 0.50998 0.94364 0.13826 0.0
H622 H 0.51488 0.97815 0.11781 0.0
H623 H 0.54204 0.95774 0.14815 0.0
C624 C 0.68317 0.55871 0.0945 0.0
C625 C 0.68181 0.55601 0.18203 0.0
C626 C 0.6612 0.55405 0.0424 0.0
C627 C 0.63656 0.54719 0.07801 0.0
C628 C 0.63509 0.54409 0.16663 0.0
C629 C 0.65769 0.54834 0.21732 0.0
C630 C 0.66424 0.55727 0.94887 0.0
C631 C 0.6095 0.53683 0.2083 0.0
C632 C 0.57607 0.56242 0.94006 0.0
C633 C 0.57097 0.53815 0.90137 0.0
C634 C 0.59662 0.56545 0.99945 0.0
C635 C 0.6126 0.54369 0.02192 0.0
C636 C 0.60676 0.51895 0.9854 0.0
C637 C 0.5863 0.51653 0.92592 0.0
C638 C 0.60168 0.5922 0.03656 0.0
C639 C 0.62273 0.49503 1.00714 0.0
H640 H 0.70147 0.56521 0.06654 0.0
H641 H 0.65613 0.54688 0.28489 0.0
H642 H 0.65742 0.53929 0.91606 0.0
H643 H 0.65184 0.57374 0.92691 0.0
H644 H 0.6849 0.56126 0.9303 0.0
H645 H 0.59328 0.54909 0.18383 0.0
H646 H 0.60462 0.51609 0.19386 0.0
H647 H 0.61042 0.53915 0.27742 0.0
H648 H 0.56455 0.57932 0.92189 0.0
H649 H 0.58254 0.49757 0.89742 0.0
H650 H 0.62125 0.59944 0.01629 0.0
H651 H 0.60192 0.59101 0.10598 0.0
H652 H 0.58663 0.60669 0.01724 0.0
H653 H 0.64323 0.49776 0.98508 0.0
H654 H 0.61466 0.47685 0.97839 0.0
H655 H 0.62344 0.49239 0.07607 0.0
C656 C 0.01535 0.67469 0.1604 0.0
C657 C 0.99396 0.69122 0.14377 0.0
C658 C 0.02094 0.6527 0.1081 0.0
C659 C 1.00522 0.64735 0.03611 0.0
C660 C 0.98413 0.66455 0.0184 0.0
C661 C 0.97863 0.68576 0.07255 0.0
C662 C 0.04327 0.63479 0.13105 0.0
C663 C 0.96714 0.66053 0.94195 0.0
C664 C 0.0305 0.6064 0.84964 0.0
C665 C 0.01635 0.58265 0.8567 0.0
C666 C 0.0277 0.62706 0.90833 0.0
C667 C 1.01064 0.6242 0.97813 0.0
C668 C 0.99701 0.59993 0.98757 0.0
C669 C 0.9998 0.57971 0.92683 0.0
C670 C 0.0424 0.65241 0.89373 0.0
C671 C 0.97899 0.59548 0.06129 0.0
H672 H 0.02713 0.67836 0.21569 0.0
H673 H 0.96203 0.69832 0.05886 0.0
H674 H 0.03558 0.61473 0.14298 0.0
H675 H 0.05735 0.63334 0.07821 0.0
H676 H 0.05397 0.64165 0.18763 0.0
H677 H 0.95218 0.67617 0.93483 0.0
H678 H 0.97951 0.66015 0.8847 0.0
H679 H 0.9569 0.64132 0.94599 0.0
H680 H 0.04353 0.60922 0.79668 0.0
H681 H 0.9888 0.56162 0.93417 0.0
H682 H 0.05383 0.65786 0.95027 0.0
H683 H 0.02822 0.66846 0.88195 0.0
H684 H 0.05604 0.65118 0.83952 0.0
H685 H 0.98926 0.60038 0.1206 0.0
H686 H 0.97185 0.57488 0.06477 0.0
H687 H 0.96176 0.60864 0.05646 0.0
C688 C 0.06528 0.2664 0.32092 0.0
C689 C 0.08118 0.25516 0.25835 0.0
C690 C 0.05432 0.25055 0.38311 0.0
C691 C 0.06033 0.22357 0.38279 0.0
C692 C 0.08217 0.21449 0.33669 0.0
C693 C 0.09286 0.2308 0.27476 0.0
C694 C 0.03259 0.26148 0.43696 0.0
C695 C 0.09091 0.18633 0.34196 0.0
C696 C 0.01727 0.1771 0.50787 0.0
C697 C 0.99912 0.16922 0.44651 0.0
C698 C 0.03736 0.19507 0.48868 0.0
C699 C 0.03946 0.20478 0.40624 0.0
C700 C 0.02094 0.19708 0.34444 0.0
C701 C 1.00098 0.17944 0.36557 0.0
C702 C 0.05634 0.20323 0.55644 0.0
C703 C 0.02229 0.20718 0.25541 0.0
H704 H 0.05735 0.28593 0.31327 0.0
H705 H 0.10684 0.22274 0.23049 0.0
H706 H 0.01337 0.25677 0.40767 0.0
H707 H 0.03284 0.25259 0.50034 0.0
H708 H 0.03417 0.28315 0.44312 0.0
H709 H 0.11148 0.18409 0.32001 0.0
H710 H 0.08925 0.17895 0.40719 0.0
H711 H 0.07808 0.17404 0.30153 0.0
H712 H 0.01572 0.16925 0.57077 0.0
H713 H 0.9872 0.17301 0.31796 0.0
H714 H 0.06796 0.22099 0.54073 0.0
H715 H 0.07035 0.18702 0.56765 0.0
H716 H 0.04551 0.20728 0.61524 0.0
H717 H 0.02242 0.22895 0.2549 0.0
H718 H 1.00552 0.20028 0.21666 0.0
H719 H 0.0407 0.2004 0.22536 0.0
C720 C 0.29761 0.08353 0.27487 0.0
C721 C 0.29824 0.09593 0.1963 0.0
C722 C 0.32073 0.08079 0.32114 0.0
C723 C 0.3442 0.09179 0.289 0.0
C724 C 0.34263 0.11101 0.22551 0.0
C725 C 0.31943 0.11276 0.17838 0.0
C726 C 0.32091 0.06205 0.39434 0.0
C727 C 0.36659 0.12615 0.19814 0.0
C728 C 0.40154 0.05628 0.38665 0.0
C729 C 0.40577 0.03628 0.32719 0.0
C730 C 0.38372 0.07665 0.37123 0.0
C731 C 0.36858 0.0761 0.29707 0.0
C732 C 0.37404 0.05689 0.23482 0.0
C733 C 0.39326 0.03802 0.24951 0.0
C734 C 0.38059 0.09777 0.43674 0.0
C735 C 0.35817 0.05452 0.15526 0.0
H736 H 0.28075 0.07177 0.29275 0.0
H737 H 0.31948 0.12392 0.12059 0.0
H738 H 0.33129 0.07104 0.4482 0.0
H739 H 0.30076 0.05659 0.41473 0.0
H740 H 0.33149 0.04384 0.37677 0.0
H741 H 0.36098 0.14559 0.17254 0.0
H742 H 0.38044 0.12895 0.25116 0.0
H743 H 0.3769 0.1152 0.14789 0.0
H744 H 0.41119 0.05567 0.447 0.0
H745 H 0.39748 0.02374 0.20108 0.0
H746 H 0.37261 0.08901 0.49515 0.0
H747 H 0.36766 0.11401 0.41633 0.0
H748 H 0.40017 0.10605 0.45257 0.0
H749 H 0.33708 0.05221 0.17084 0.0
H750 H 0.36399 0.03735 0.11682 0.0
H751 H 0.36068 0.07235 0.11645 0.0
C752 C 0.53296 0.32748 0.31162 0.0
C753 C 0.54151 0.3063 0.26343 0.0
C754 C 0.55109 0.34369 0.35205 0.0
C755 C 0.57826 0.33848 0.34265 0.0
C756 C 0.58658 0.31489 0.30456 0.0
C757 C 0.56793 0.29894 0.26472 0.0
C758 C 0.54127 0.36825 0.39477 0.0
C759 C 0.61526 0.30811 0.29675 0.0
C760 C 0.60815 0.4043 0.30506 0.0
C761 C 0.61398 0.41161 0.38734 0.0
C762 C 0.59955 0.37881 0.28726 0.0
C763 C 0.59685 0.36052 0.35371 0.0
C764 C 0.60657 0.36672 0.43414 0.0
C765 C 0.61512 0.39237 0.45009 0.0
C766 C 0.58985 0.37275 0.19987 0.0
C767 C 0.60482 0.34757 0.50596 0.0
H768 H 0.51234 0.33276 0.31101 0.0
H769 H 0.57434 0.28228 0.22773 0.0
H770 H 0.55151 0.37136 0.45523 0.0
H771 H 0.54538 0.38551 0.3544 0.0
H772 H 0.51979 0.3674 0.40681 0.0
H773 H 0.61801 0.28659 0.28989 0.0
H774 H 0.62347 0.31775 0.24016 0.0
H775 H 0.62657 0.31509 0.35183 0.0
H776 H 0.60744 0.41914 0.25646 0.0
H777 H 0.62026 0.398 0.51356 0.0
H778 H 0.56805 0.37264 0.19951 0.0
H779 H 0.59654 0.35308 0.17947 0.0
H780 H 0.59675 0.38751 0.15352 0.0
H781 H 0.5857 0.35006 0.53831 0.0
H782 H 0.6206 0.35133 0.5525 0.0
H783 H 0.60614 0.32695 0.48411 0.0
C784 C 0.24563 0.48074 0.36113 0.0
C785 C 0.23427 0.47067 0.28731 0.0
C786 C 0.22997 0.48696 0.43037 0.0
C787 C 0.2025 0.48374 0.42395 0.0
C788 C 0.19213 0.4679 0.359 0.0
C789 C 0.20849 0.46083 0.29198 0.0
C790 C 0.24218 0.50207 0.50184 0.0
C791 C 0.16306 0.46278 0.35108 0.0
C792 C 0.15841 0.5217 0.57359 0.0
C793 C 0.15656 0.54564 0.53101 0.0
C794 C 0.17316 0.50094 0.5398 0.0
C795 C 0.18574 0.50439 0.46139 0.0
C796 C 0.18339 0.52862 0.41806 0.0
C797 C 0.16901 0.54897 0.45402 0.0
C798 C 0.17516 0.47549 0.58751 0.0
C799 C 0.19584 0.53317 0.33311 0.0
H800 H 0.26581 0.48744 0.36184 0.0
H801 H 0.19997 0.4509 0.2384 0.0
H802 H 0.24144 0.52338 0.48756 0.0
H803 H 0.23142 0.49868 0.56128 0.0
H804 H 0.26308 0.49657 0.51056 0.0
H805 H 0.15933 0.44363 0.31987 0.0
H806 H 0.15303 0.46295 0.41268 0.0
H807 H 0.15422 0.47834 0.31161 0.0
H808 H 0.1481 0.51918 0.63247 0.0
H809 H 0.16682 0.5674 0.42081 0.0
H810 H 0.19577 0.47236 0.60735 0.0
H811 H 0.16972 0.45868 0.54693 0.0
H812 H 0.16238 0.47527 0.64397 0.0
H813 H 0.21752 0.53208 0.33828 0.0
H814 H 0.19075 0.55263 0.30644 0.0
H815 H 0.18936 0.51785 0.2882 0.0
C816 C 0.95924 0.83758 0.11845 0.0
C817 C 0.96911 0.81187 0.11454 0.0
C818 C 0.96622 0.85593 0.05689 0.0
C819 C 0.98188 0.84759 0.98888 0.0
C820 C 0.98472 0.82051 0.97307 0.0
C821 C 0.97879 0.80278 0.03723 0.0
C822 C 0.96123 0.88462 0.07335 0.0
C823 C 0.99903 0.81072 0.89647 0.0
C824 C 0.02052 0.89474 0.85182 0.0
C825 C 0.04513 0.8939 0.89094 0.0
C826 C 0.99925 0.88023 0.88328 0.0
C827 C 1.00269 0.86531 0.95703 0.0
C828 C 0.02728 0.8656 0.99908 0.0
C829 C 0.04828 0.87956 0.96453 0.0
C830 C 0.97374 0.88017 0.83531 0.0
C831 C 0.03176 0.85077 0.07989 0.0
H832 H 0.94958 0.84436 0.17496 0.0
H833 H 0.9854 0.78275 0.03002 0.0
H834 H 0.978 0.89291 0.10915 0.0
H835 H 0.95941 0.89582 0.01412 0.0
H836 H 0.94314 0.88738 0.11128 0.0
H837 H 0.99368 0.79004 0.88225 0.0
H838 H 0.9946 0.82309 0.84115 0.0
H839 H 0.02051 0.81162 0.90794 0.0
H840 H 0.01799 0.90629 0.79571 0.0
H841 H 0.06719 0.87957 0.99572 0.0
H842 H 0.95652 0.87729 0.87688 0.0
H843 H 0.974 0.86378 0.78954 0.0
H844 H 0.97121 0.89871 0.79965 0.0
H845 H 0.01642 0.85576 0.12655 0.0
H846 H 0.05122 0.85518 0.10801 0.0
H847 H 0.03068 0.82935 0.06796 0.0
C848 C 0.7213 0.98431 0.05084 0.0
C849 C 0.72627 0.96583 0.1137 0.0
C850 C 0.69637 0.98562 0.01367 0.0
C851 C 0.67652 0.968 0.04075 0.0
C852 C 0.68366 0.94572 0.08808 0.0
C853 C 0.7087 0.94482 0.12432 0.0
C854 C 0.68999 1.00889 0.95919 0.0
C855 C 0.66358 0.92535 0.11249 0.0
C856 C 0.6173 1.00402 0.12495 0.0
C857 C 0.5993 1.00155 0.05954 0.0
C858 C 0.64219 0.99275 0.11952 0.0
C859 C 0.64915 0.97792 0.04747 0.0
C860 C 0.63051 0.9742 0.98271 0.0
C861 C 0.60575 0.98619 0.98941 0.0
C862 C 0.66113 0.99742 0.19087 0.0
C863 C 0.63653 0.95775 0.90648 0.0
H864 H 0.73512 1.00026 0.04083 0.0
H865 H 0.71291 0.93 0.17109 0.0
H866 H 0.67513 1.00368 0.9112 0.0
H867 H 0.68177 0.02477 0.99888 0.0
H868 H 0.70783 0.0166 0.9274 0.0
H869 H 0.67305 0.90681 0.13277 0.0
H870 H 0.6516 0.9329 0.16535 0.0
H871 H 0.65023 0.92115 0.05925 0.0
H872 H 0.61241 0.01602 0.17886 0.0
H873 H 0.59159 0.98395 0.93922 0.0
H874 H 0.68079 1.00321 0.16757 0.0
H875 H 0.66313 0.97907 0.22762 0.0
H876 H 0.65436 1.0132 0.23347 0.0
H877 H 0.65722 0.96015 0.88602 0.0
H878 H 0.62341 0.96267 0.85322 0.0
H879 H 0.63346 0.93677 0.92227 0.0
C880 C 0.56202 0.74705 0.06079 0.0
C881 C 0.57219 0.73866 0.13813 0.0
C882 C 0.55588 0.72872 0.99843 0.0
C883 C 0.55905 0.7018 0.0162 0.0
C884 C 0.57518 0.69418 0.08374 0.0
C885 C 0.58235 0.71309 0.14336 0.0
C886 C 0.54128 0.73771 0.92157 0.0
C887 C 0.58071 0.66569 0.10129 0.0
C888 C 0.49278 0.66942 0.99421 0.0
C889 C 0.49593 0.65469 0.92122 0.0
C890 C 0.51382 0.68344 0.02832 0.0
C891 C 0.53843 0.68353 0.98625 0.0
C892 C 0.54198 0.66793 0.9139 0.0
C893 C 0.52073 0.65323 0.8833 0.0
C894 C 0.50927 0.69885 0.10808 0.0
C895 C 0.56743 0.66759 0.86545 0.0
H896 H 0.55523 0.76698 0.0526 0.0
H897 H 0.59235 0.70688 0.19984 0.0
H898 H 0.54568 0.72485 0.8672 0.0
H899 H 0.51984 0.73673 0.93385 0.0
H900 H 0.54642 0.7583 0.9054 0.0
H901 H 0.59815 0.66337 0.14232 0.0
H902 H 0.56351 0.65684 0.13358 0.0
H903 H 0.58395 0.65473 0.04219 0.0
H904 H 0.47374 0.66994 0.02468 0.0
H905 H 0.52344 0.64139 0.82796 0.0
H906 H 0.50982 0.72018 0.0943 0.0
H907 H 0.52488 0.69462 0.15449 0.0
H908 H 0.48999 0.69423 0.13728 0.0
H909 H 0.56558 0.68082 0.81059 0.0
H910 H 0.57142 0.64756 0.84104 0.0
H911 H 0.58446 0.6742 0.90323 0.0
C912 C 0.81763 0.57229 0.0529 0.0
C913 C 0.79422 0.55977 0.07647 0.0
C914 C 0.83058 0.56499 0.97918 0.0
C915 C 0.81957 0.54497 0.92864 0.0
C916 C 0.79367 0.53624 0.94377 0.0
C917 C 0.78134 0.54346 0.01854 0.0
C918 C 0.85778 0.57563 0.96285 0.0
C919 C 0.78072 0.516 0.88836 0.0
C920 C 0.86284 0.51677 0.75768 0.0
C921 C 0.87504 0.49642 0.80156 0.0
C922 C 0.84364 0.53226 0.79649 0.0
C923 C 0.83745 0.52761 0.8816 0.0
C924 C 0.84938 0.50655 0.92521 0.0
C925 C 0.86788 0.49109 0.88419 0.0
C926 C 0.83103 0.55413 0.74744 0.0
C927 C 0.84342 0.50083 0.01631 0.0
H928 H 0.82706 0.58586 0.09583 0.0
H929 H 0.76298 0.53398 0.03508 0.0
H930 H 0.8725 0.56127 0.98548 0.0
H931 H 0.8611 0.57858 0.89485 0.0
H932 H 0.86116 0.59452 0.99599 0.0
H933 H 0.75901 0.51654 0.89467 0.0
H934 H 0.78608 0.51905 0.82166 0.0
H935 H 0.78748 0.49616 0.90697 0.0
H936 H 0.86914 0.52131 0.69457 0.0
H937 H 0.87756 0.47534 0.91765 0.0
H938 H 0.8421 0.57259 0.75823 0.0
H939 H 0.81042 0.5574 0.76725 0.0
H940 H 0.83135 0.54994 0.67914 0.0
H941 H 0.84842 0.51814 0.05545 0.0
H942 H 0.85456 0.48372 0.04038 0.0
H943 H 0.82218 0.49674 0.02453 0.0
C944 C 0.02427 0.21979 0.9477 0.0
C945 C 0.04923 0.22536 0.98137 0.0
C946 C 0.0187 0.19526 0.90791 0.0
C947 C 0.03813 0.17518 0.90367 0.0
C948 C 0.06351 0.18121 0.93487 0.0
C949 C 0.06876 0.20603 0.97063 0.0
C950 C 0.99181 0.1907 0.87128 0.0
C951 C 0.08501 0.16093 0.93715 0.0
C952 C 0.01702 0.10232 0.87845 0.0
C953 C 0.02523 0.09644 0.79643 0.0
C954 C 0.02117 0.12754 0.91434 0.0
C955 C 0.03241 0.14815 0.86585 0.0
C956 C 0.04007 0.14219 0.7823 0.0
C957 C 0.03691 0.11654 0.74942 0.0
C958 C 0.01456 0.13176 1.00542 0.0
C959 C 0.05204 0.16297 0.7276 0.0
H960 H 1.00882 0.23417 0.95479 0.0
H961 H 0.08836 0.20986 0.9942 0.0
H962 H 0.99356 0.18333 0.80602 0.0
H963 H 0.98132 0.17547 0.90805 0.0
H964 H 0.97979 0.20884 0.87115 0.0
H965 H 0.10477 0.17022 0.93789 0.0
H966 H 0.0828 0.14946 0.99576 0.0
H967 H 0.08409 0.14705 0.88377 0.0
H968 H 1.00818 0.08686 0.91571 0.0
H969 H 0.0433 0.11225 0.68606 0.0
H970 H 1.00002 0.14776 0.01193 0.0
H971 H 0.0325 0.13791 0.03983 0.0
H972 H 1.00653 0.11376 0.03536 0.0
H973 H 0.03962 0.18078 0.7294 0.0
H974 H 0.05413 0.15612 0.66196 0.0
H975 H 0.07175 0.16845 0.75159 0.0
C976 C 0.32794 0.01729 0.98582 0.0
C977 C 0.31285 0.03882 0.95963 0.0
C978 C 0.35293 1.01193 0.95011 0.0
C979 C 0.36339 0.02843 0.8863 0.0
C980 C 0.34745 0.0492 0.8563 0.0
C981 C 0.32267 0.05415 0.89323 0.0
C982 C 0.36892 0.98965 0.98509 0.0
C983 C 0.3574 0.06757 0.78921 0.0
C984 C 0.4383 0.03801 0.86541 0.0
C985 C 0.44472 0.02321 0.79367 0.0
C986 C 0.4123 0.03947 0.89652 0.0
C987 C 0.39163 0.02564 0.85597 0.0
C988 C 0.398 1.01019 0.78458 0.0
C989 C 0.42424 1.00918 0.75447 0.0
C990 C 0.40713 0.05587 0.97357 0.0
C991 C 0.37695 0.99498 0.73903 0.0
H992 H 0.32115 1.00583 0.0388 0.0
H993 H 0.31163 0.07124 0.87383 0.0
H994 H 0.38525 0.99774 0.02327 0.0
H995 H 0.35695 0.97645 0.02536 0.0
H996 H 0.37775 0.97795 0.9337 0.0
H997 H 0.34193 0.08119 0.76699 0.0
H998 H 0.37398 0.07936 0.81437 0.0
H999 H 0.36494 0.05628 0.73487 0.0
H1000 H 0.45367 0.0488 0.8975 0.0
H1001 H 0.4286 0.99762 0.69919 0.0
H1002 H 0.40339 0.04267 0.0275 0.0
H1003 H 0.3895 0.0683 0.96513 0.0
H1004 H 0.42405 0.06874 0.98954 0.0
H1005 H 0.36643 0.98188 0.7834 0.0
H1006 H 0.38503 0.98294 0.6871 0.0
H1007 H 0.36227 1.00875 0.71283 0.0
C1008 C 0.47953 0.34696 0.02786 0.0
C1009 C 0.49459 0.32521 1.00258 0.0
C1010 C 0.48054 0.37128 0.98495 0.0
C1011 C 0.49686 0.37446 0.91342 0.0
C1012 C 0.51082 0.35206 0.88429 0.0
C1013 C 0.50976 0.32797 0.92937 0.0
C1014 C 0.46533 0.39415 0.01972 0.0
C1015 C 0.52815 0.35391 0.80788 0.0
C1016 C 0.48697 0.43665 0.77681 0.0
C1017 C 0.50797 0.45292 0.80137 0.0
C1018 C 0.48347 0.41108 0.81069 0.0
C1019 C 0.50075 0.4015 0.87356 0.0
C1020 C 0.52161 0.41824 0.89994 0.0
C1021 C 0.52522 0.4433 0.86271 0.0
C1022 C 0.46132 0.39419 0.77837 0.0
C1023 C 0.54 0.40985 0.96885 0.0
H1024 H 0.46836 0.3455 0.08555 0.0
H1025 H 0.52221 0.31182 0.91038 0.0
H1026 H 0.47908 0.41011 0.03782 0.0
H1027 H 0.45208 0.40203 0.97092 0.0
H1028 H 0.45336 0.38868 0.07529 0.0
H1029 H 0.53493 0.33432 0.78651 0.0
H1030 H 0.51752 0.36359 0.75578 0.0
H1031 H 0.54563 0.36613 0.82244 0.0
H1032 H 0.4735 0.44373 0.7295 0.0
H1033 H 0.54131 0.45571 0.88323 0.0
H1034 H 0.44685 0.39063 0.82905 0.0
H1035 H 0.46895 0.37479 0.75838 0.0
H1036 H 0.451 0.40339 0.72468 0.0
H1037 H 0.52862 0.40522 0.02635 0.0
H1038 H 0.55476 0.42523 0.98419 0.0
H1039 H 0.55048 0.39173 0.95012 0.0
C1040 C 0.19382 0.51982 0.03932 0.0
C1041 C 0.21812 0.51057 0.00885 0.0
C1042 C 0.17165 0.52279 0.9871 0.0
C1043 C 0.17352 0.51753 0.90005 0.0
C1044 C 0.19856 0.51036 0.86734 0.0
C1045 C 0.22036 0.50665 0.92191 0.0
C1046 C 0.14575 0.53032 0.02633 0.0
C1047 C 0.20213 0.50513 0.77519 0.0
C1048 C 0.10881 0.49657 0.79299 0.0
C1049 C 0.09881 0.52035 0.76184 0.0
C1050 C 0.13324 0.49525 0.83512 0.0
C1051 C 0.14887 0.51817 0.84584 0.0
C1052 C 0.13953 0.54202 0.81079 0.0
C1053 C 0.1148 0.54285 0.76984 0.0
C1054 C 0.1418 0.46933 0.87129 0.0
C1055 C 0.15567 0.56681 0.81687 0.0
H1056 H 0.19171 0.52352 0.10589 0.0
H1057 H 0.23876 0.49945 0.89687 0.0
H1058 H 0.13779 0.54807 0.99541 0.0
H1059 H 0.13126 0.51425 0.01706 0.0
H1060 H 0.14751 0.53427 0.09456 0.0
H1061 H 0.22307 0.50676 0.75624 0.0
H1062 H 0.19539 0.48488 0.76134 0.0
H1063 H 0.19035 0.51887 0.73678 0.0
H1064 H 0.09737 0.47881 0.78538 0.0
H1065 H 0.10783 0.56136 0.74518 0.0
H1066 H 0.14057 0.47024 0.94067 0.0
H1067 H 0.1625 0.46521 0.85448 0.0
H1068 H 0.12937 0.45277 0.84912 0.0
H1069 H 0.16112 0.57081 0.88293 0.0
H1070 H 0.14512 0.58415 0.79183 0.0
H1071 H 0.17418 0.56427 0.78108 0.0
C1072 C 0.02872 0.83748 0.37998 0.0
C1073 C 1.0077 0.82022 0.39651 0.0
C1074 C 0.03202 0.86133 0.42474 0.0
C1075 C 0.01372 0.8687 0.48776 0.0
C1076 C 0.99337 0.85061 0.50807 0.0
C1077 C 0.99049 0.82689 0.4621 0.0
C1078 C 0.05427 0.87945 0.4008 0.0
C1079 C 0.97351 0.8571 0.57497 0.0
C1080 C 0.0288 0.92715 0.63638 0.0
C1081 C 0.01491 0.94802 0.59959 0.0
C1082 C 0.02881 0.9015 0.60115 0.0
C1083 C 0.01447 0.89608 0.52667 0.0
C1084 C 1.00082 0.91718 0.48848 0.0
C1085 C 1.00143 0.94258 0.52466 0.0
C1086 C 0.04401 0.88013 0.64451 0.0
C1087 C 0.98544 0.91293 0.4088 0.0
H1088 H 0.04161 0.83317 0.32769 0.0
H1089 H 0.97363 0.81436 0.47374 0.0
H1090 H 0.04627 0.89714 0.36958 0.0
H1091 H 0.06495 0.88613 0.45754 0.0
H1092 H 0.06843 0.8699 0.35756 0.0
H1093 H 0.96072 0.84006 0.59033 0.0
H1094 H 0.98359 0.86372 0.63286 0.0
H1095 H 0.96095 0.87349 0.55331 0.0
H1096 H 0.0401 0.93097 0.69236 0.0
H1097 H 0.99115 0.95823 0.49394 0.0
H1098 H 0.05451 0.86762 0.59858 0.0
H1099 H 0.03016 0.86736 0.67958 0.0
H1100 H 0.05855 0.88828 0.68933 0.0
H1101 H 0.99872 0.90597 0.35838 0.0
H1102 H 0.97554 0.93106 0.38712 0.0
H1103 H 0.97033 0.89749 0.41864 0.0
C1104 C 0.70701 0.97822 0.43396 0.0
C1105 C 0.72242 0.9989 0.40146 0.0
C1106 C 0.68427 0.98277 0.4825 0.0
C1107 C 0.67678 1.00877 0.50303 0.0
C1108 C 0.69362 0.02967 0.47732 0.0
C1109 C 0.71595 0.02457 0.42616 0.0
C1110 C 0.66701 0.95971 0.50545 0.0
C1111 C 0.68718 0.05767 0.49958 0.0
C1112 C 0.60275 0.02183 0.52282 0.0
C1113 C 0.59776 0.01915 0.6091 0.0
C1114 C 0.62805 0.01859 0.48844 0.0
C1115 C 0.64989 1.01393 0.54137 0.0
C1116 C 0.64535 1.0126 0.62934 0.0
C1117 C 0.61942 0.01471 0.66188 0.0
C1118 C 0.63112 0.01913 0.39448 0.0
C1119 C 0.66784 1.00864 0.68928 0.0
H1120 H 0.71165 0.95828 0.41563 0.0
H1121 H 0.7273 0.04082 0.40124 0.0
H1122 H 0.66219 0.96009 0.57317 0.0
H1123 H 0.64821 0.96097 0.47056 0.0
H1124 H 0.67637 0.94062 0.4905 0.0
H1125 H 0.70426 0.07094 0.48985 0.0
H1126 H 0.6708 0.06461 0.45972 0.0
H1127 H 0.6807 0.05911 0.56584 0.0
H1128 H 0.58668 0.02635 0.48107 0.0
H1129 H 0.61614 1.01282 0.72871 0.0
H1130 H 0.63844 0.99981 0.37268 0.0
H1131 H 0.6458 0.03418 0.37605 0.0
H1132 H 0.61238 0.02333 0.36166 0.0
H1133 H 0.68438 0.02197 0.67333 0.0
H1134 H 0.67515 0.98823 0.68405 0.0
H1135 H 0.66191 1.01217 0.75531 0.0
C1136 C 0.50927 0.71699 0.41142 0.0
C1137 C 0.53294 0.73108 0.41943 0.0
C1138 C 0.50473 0.69325 0.45588 0.0
C1139 C 0.52446 0.68273 0.50909 0.0
C1140 C 0.54775 0.69769 0.52089 0.0
C1141 C 0.55173 0.72138 0.47599 0.0
C1142 C 0.47933 0.6786 0.44197 0.0
C1143 C 0.56933 0.68777 0.57705 0.0
C1144 C 0.51093 0.6248 0.66117 0.0
C1145 C 0.52039 0.60298 0.61649 0.0
C1146 C 0.51147 0.65061 0.62711 0.0
C1147 C 0.52194 0.65516 0.54572 0.0
C1148 C 0.53043 0.63305 0.49896 0.0
C1149 C 0.52898 0.60755 0.53393 0.0
C1150 C 0.50113 0.67299 0.67922 0.0
C1151 C 0.54167 0.63632 0.412 0.0
H1152 H 0.49496 0.72361 0.36595 0.0
H1153 H 0.57043 0.73149 0.48084 0.0
H1154 H 0.48318 0.66051 0.40531 0.0
H1155 H 0.47071 0.67251 0.50285 0.0
H1156 H 0.46473 0.69061 0.4075 0.0
H1157 H 0.58538 0.70239 0.58493 0.0
H1158 H 0.56129 0.68278 0.63969 0.0
H1159 H 0.57773 0.66955 0.55011 0.0
H1160 H 0.50263 0.62161 0.72251 0.0
H1161 H 0.5345 0.59111 0.49571 0.0
H1162 H 0.49141 0.68802 0.63988 0.0
H1163 H 0.51775 0.68259 0.71226 0.0
H1164 H 0.48688 0.666 0.72688 0.0
H1165 H 0.5283 0.64809 0.37232 0.0
H1166 H 0.54516 0.61722 0.38051 0.0
H1167 H 0.5606 0.6471 0.41589 0.0
C1168 C 0.82178 0.52994 0.43413 0.0
C1169 C 0.81958 0.55054 0.37608 0.0
C1170 C 0.84542 0.52559 0.47988 0.0
C1171 C 0.8679 0.54212 0.46775 0.0
C1172 C 0.86528 0.56327 0.41055 0.0
C1173 C 0.84137 0.56753 0.36797 0.0
C1174 C 0.84581 0.50271 0.53937 0.0
C1175 C 0.88836 0.58068 0.38978 0.0
C1176 C 0.92942 0.55148 0.60887 0.0
C1177 C 0.94633 0.5315 0.58152 0.0
C1178 C 0.9036 0.55421 0.57657 0.0
C1179 C 0.89436 0.5374 0.51126 0.0
C1180 C 0.91172 0.51739 0.4827 0.0
C1181 C 0.93693 0.51428 0.5195 0.0
C1182 C 0.88669 0.57546 0.61383 0.0
C1183 C 0.90405 0.49955 0.41131 0.0
H1184 H 0.80545 0.51644 0.4414 0.0
H1185 H 0.84014 0.58378 0.32438 0.0
H1186 H 0.83872 0.48474 0.50695 0.0
H1187 H 0.86551 0.49883 0.56521 0.0
H1188 H 0.83203 0.50657 0.59185 0.0
H1189 H 0.88453 0.59359 0.33514 0.0
H1190 H 0.89317 0.59328 0.44427 0.0
H1191 H 0.90573 0.5684 0.37562 0.0
H1192 H 0.93621 0.56487 0.65708 0.0
H1193 H 0.94975 0.49883 0.49727 0.0
H1194 H 0.86591 0.57439 0.59353 0.0
H1195 H 0.89488 0.59492 0.59646 0.0
H1196 H 0.88734 0.57425 0.68328 0.0
H1197 H 0.88864 0.48566 0.43268 0.0
H1198 H 0.92094 0.48797 0.38767 0.0
H1199 H 0.89584 0.51114 0.35867 0.0
loop_
_geom_bond_atom_site_label_1
_geom_bond_atom_site_label_2
_geom_bond_distance
_geom_bond_site_symmetry_2
_ccdc_geom_bond_type
H0 C5 0.930 . S
H1 C8 0.930 . S
H2 C10 0.930 . S
H3 C4 1.016 . S
C4 H3 1.016 . S
C4 N11 1.286 . S
C5 H0 0.930 . S
C5 C6 1.397 . S
C5 C7 1.361 . S
C6 C5 1.397 . S
C6 C10 1.390 . S
C7 C5 1.361 . S
C7 C8 1.393 . S
C7 N11 1.413 . S
C8 H1 0.930 . S
C8 C7 1.393 . S
C8 C9 1.399 . S
C9 C8 1.399 . S
C9 C10 1.381 . S
C10 H2 0.930 . S
C10 C6 1.390 . S
C10 C9 1.381 . S
N11 C4 1.286 . S
N11 C7 1.413 . S
H12 C17 0.930 . S
H13 C20 0.930 . S
H14 C22 0.930 . S
H15 C16 1.016 . S
C16 H15 1.016 . S
C16 N23 1.286 . S
C17 H12 0.930 . S
C17 C18 1.397 . S
C17 C19 1.361 . S
C18 C17 1.397 . S
C18 C22 1.390 . S
C19 C17 1.361 . S
C19 C20 1.393 . S
C19 N23 1.413 . S
C20 H13 0.930 . S
C20 C19 1.393 . S
C20 C21 1.399 . S
C21 C20 1.399 . S
C21 C22 1.381 . S
C22 H14 0.930 . S
C22 C18 1.390 . S
C22 C21 1.381 . S
N23 C16 1.286 . S
N23 C19 1.413 . S
H24 C29 0.930 . S
H25 C32 0.930 . S
H26 C34 0.930 . S
H27 C28 1.016 . S
C28 H27 1.016 . S
C28 N35 1.286 . S
C29 H24 0.930 . S
C29 C30 1.397 . S
C29 C31 1.361 . S
C30 C29 1.397 . S
C30 C34 1.390 . S
C31 C29 1.361 . S
C31 C32 1.393 . S
C31 N35 1.413 . S
C32 H25 0.930 . S
C32 C31 1.393 . S
C32 C33 1.399 . S
C33 C32 1.399 . S
C33 C34 1.381 . S
C34 H26 0.930 . S
C34 C30 1.390 . S
C34 C33 1.381 . S
N35 C28 1.286 . S
N35 C31 1.413 . S
H36 C41 0.930 . S
H37 C44 0.930 . S
H38 C46 0.930 . S
H39 C40 1.016 . S
C40 H39 1.016 . S
C40 N47 1.286 . S
C41 H36 0.930 . S
C41 C42 1.397 . S
C41 C43 1.361 . S
C42 C41 1.397 . S
C42 C46 1.390 . S
C43 C41 1.361 . S
C43 C44 1.393 . S
C43 N47 1.413 . S
C44 H37 0.930 . S
C44 C43 1.393 . S
C44 C45 1.399 . S
C45 C44 1.399 . S
C45 C46 1.381 . S
C46 H38 0.930 . S
C46 C42 1.390 . S
C46 C45 1.381 . S
N47 C40 1.286 . S
N47 C43 1.413 . S
H48 C53 0.930 . S
H49 C56 0.930 . S
H50 C58 0.930 . S
H51 C52 1.016 . S
C52 H51 1.016 . S
C52 N59 1.286 . S
C53 H48 0.930 . S
C53 C54 1.397 . S
C53 C55 1.361 1_556 S
C54 C53 1.397 . S
C54 C58 1.390 1_556 S
C55 C53 1.361 1_554 S
C55 C56 1.393 . S
C55 N59 1.413 . S
C56 H49 0.930 . S
C56 C55 1.393 . S
C56 C57 1.399 . S
C57 C56 1.399 . S
C57 C58 1.381 . S
C58 H50 0.930 . S
C58 C54 1.390 1_554 S
C58 C57 1.381 . S
N59 C52 1.286 . S
N59 C55 1.413 . S
H60 C65 0.930 . S
H61 C68 0.930 . S
H62 C70 0.930 . S
H63 C64 1.016 . S
C64 H63 1.016 . S
C64 N71 1.286 . S
C65 H60 0.930 . S
C65 C66 1.397 . S
C65 C67 1.361 1_556 S
C66 C65 1.397 . S
C66 C70 1.390 1_556 S
C67 C65 1.361 1_554 S
C67 C68 1.393 . S
C67 N71 1.413 . S
C68 H61 0.930 . S
C68 C67 1.393 . S
C68 C69 1.399 . S
C69 C68 1.399 . S
C69 C70 1.381 . S
C70 H62 0.930 . S
C70 C66 1.390 1_554 S
C70 C69 1.381 . S
N71 C64 1.286 . S
N71 C67 1.413 . S
H72 C77 0.930 . S
H73 C80 0.930 . S
H74 C82 0.930 . S
H75 C76 1.016 . S
C76 H75 1.016 . S
C76 N83 1.286 . S
C77 H72 0.930 . S
C77 C78 1.397 . S
C77 C79 1.361 1_556 S
C78 C77 1.397 . S
C78 C82 1.390 1_556 S
C79 C77 1.361 1_554 S
C79 C80 1.393 . S
C79 N83 1.413 . S
C80 H73 0.930 . S
C80 C79 1.393 . S
C80 C81 1.399 . S
C81 C80 1.399 . S
C81 C82 1.381 . S
C82 H74 0.930 . S
C82 C78 1.390 1_554 S
C82 C81 1.381 . S
N83 C76 1.286 . S
N83 C79 1.413 . S
H84 C89 0.930 . S
H85 C92 0.930 . S
H86 C94 0.930 . S
H87 C88 1.016 . S
C88 H87 1.016 . S
C88 N95 1.286 . S
C89 H84 0.930 . S
C89 C90 1.397 . S
C89 C91 1.361 1_556 S
C90 C89 1.397 . S
C90 C94 1.390 1_556 S
C91 C89 1.361 1_554 S
C91 C92 1.393 . S
C91 N95 1.413 . S
C92 H85 0.930 . S
C92 C91 1.393 . S
C92 C93 1.399 . S
C93 C92 1.399 . S
C93 C94 1.381 . S
C94 H86 0.930 . S
C94 C90 1.390 1_554 S
C94 C93 1.381 . S
N95 C88 1.286 . S
N95 C91 1.413 . S
Eu96 N125 2.600 . S
Eu96 N131 2.562 . S
Eu96 O140 2.462 1_655 S
Eu96 O141 2.373 1_545 S
Eu96 O143 2.432 . S
Eu96 O144 2.291 1_655 S
Eu96 O148 2.335 1_655 S
Eu96 O151 2.372 . S
Eu96 C160 2.787 . S
C97 N98 1.365 . S
C97 C100 1.405 . S
C97 C104 1.448 . S
N98 C97 1.365 . S
N98 C101 1.319 . S
N98 Eu107 2.600 1_545 S
C99 C101 1.397 . S
C99 C102 1.367 . S
C99 H119 0.931 . S
C100 C97 1.405 . S
C100 C102 1.403 . S
C100 C106 1.439 1_556 S
C101 N98 1.319 . S
C101 C99 1.397 . S
C101 H112 0.930 1_545 S
C102 C99 1.367 . S
C102 C100 1.403 . S
C102 H123 0.929 . S
C103 C104 1.430 1_554 S
C103 C105 1.387 . S
C103 C109 1.404 . S
C104 C97 1.448 . S
C104 C103 1.430 1_556 S
C104 N108 1.351 . S
C105 C103 1.387 . S
C105 C106 1.374 . S
C105 H120 0.931 . S
C106 C100 1.439 1_554 S
C106 C105 1.374 . S
C106 H121 0.931 . S
Eu107 N98 2.600 1_565 S
Eu107 N108 2.562 1_565 S
Eu107 O142 2.335 . S
Eu107 O145 2.372 . S
Eu107 O146 2.462 . S
Eu107 O147 2.373 1_565 S
Eu107 O149 2.432 . S
Eu107 O150 2.291 1_465 S
Eu107 C171 2.787 . S
N108 C104 1.351 . S
N108 Eu107 2.562 1_545 S
N108 C110 1.325 . S
C109 C103 1.404 . S
C109 C111 1.366 . S
C109 H117 0.930 . S
C110 N108 1.325 . S
C110 C111 1.416 1_556 S
C110 H116 0.929 1_455 S
C111 C109 1.366 . S
C111 C110 1.416 1_554 S
C111 H113 0.930 1_455 S
H112 C101 0.930 1_565 S
H113 C111 0.930 1_655 S
H114 C129 0.930 . S
H115 C136 0.930 . S
H116 C110 0.929 1_655 S
H117 C109 0.930 . S
H118 C132 0.929 . S
H119 C99 0.931 . S
H120 C105 0.931 . S
H121 C106 0.931 . S
H122 C127 0.931 . S
H123 C102 0.929 . S
H124 C135 0.930 . S
N125 Eu96 2.600 . S
N125 C126 1.365 . S
N125 C129 1.319 . S
C126 N125 1.365 . S
C126 C128 1.405 1_545 S
C126 C134 1.448 . S
C127 H122 0.931 . S
C127 C129 1.397 . S
C127 C130 1.367 1_545 S
C128 C126 1.405 1_565 S
C128 C130 1.403 . S
C128 C161 1.439 . S
C129 H114 0.930 . S
C129 N125 1.319 . S
C129 C127 1.397 . S
C130 C127 1.367 1_565 S
C130 C128 1.403 . S
C130 H137 0.929 . S
N131 Eu96 2.562 . S
N131 C132 1.325 1_655 S
N131 C134 1.351 . S
C132 H118 0.929 . S
C132 N131 1.325 1_455 S
C132 C136 1.416 1_545 S
C133 C134 1.430 1_565 S
C133 C135 1.404 . S
C133 C162 1.387 . S
C134 C126 1.448 . S
C134 N131 1.351 . S
C134 C133 1.430 1_545 S
C135 H124 0.930 . S
C135 C133 1.404 . S
C135 C136 1.366 1_655 S
C136 H115 0.930 . S
C136 C132 1.416 1_565 S
C136 C135 1.366 1_455 S
H137 C130 0.929 . S
H138 C161 0.931 . S
H139 C162 0.931 . S
O140 Eu96 2.462 1_455 S
O140 C160 1.252 1_455 S
O141 Eu96 2.373 1_565 S
O141 C152 1.249 . S
O142 Eu107 2.335 . S
O142 C152 1.264 1_455 S
O143 Eu96 2.432 . S
O143 C160 1.268 . S
O144 Eu96 2.291 1_455 S
O144 C159 1.255 . S
O145 Eu107 2.372 . S
O145 C159 1.257 1_565 S
O146 Eu107 2.462 . S
O146 C171 1.252 . S
O147 Eu107 2.373 1_545 S
O147 C163 1.249 . S
O148 Eu96 2.335 1_455 S
O148 C163 1.264 . S
O149 Eu107 2.432 . S
O149 C171 1.268 . S
O150 Eu107 2.291 1_645 S
O150 C170 1.255 . S
O151 Eu96 2.372 . S
O151 C170 1.257 . S
C152 O141 1.249 . S
C152 O142 1.264 1_655 S
C153 C156 1.382 . S
C153 C158 1.423 . S
C153 C160 1.506 . S
C154 C155 1.398 . S
C154 C158 1.398 . S
C155 C154 1.398 . S
C155 C157 1.372 . S
C155 H172 0.931 . S
C156 C153 1.382 . S
C156 C157 1.390 . S
C156 H173 0.931 . S
C157 C155 1.372 . S
C157 C156 1.390 . S
C157 H174 0.929 . S
C158 C153 1.423 . S
C158 C154 1.398 . S
C158 H175 0.892 1_655 S
C159 O144 1.255 . S
C159 O145 1.257 1_545 S
C160 Eu96 2.787 . S
C160 O140 1.252 1_655 S
C160 O143 1.268 . S
C160 C153 1.506 . S
C161 C128 1.439 . S
C161 H138 0.931 . S
C161 C162 1.374 . S
C162 C133 1.387 . S
C162 H139 0.931 . S
C162 C161 1.374 . S
C163 O147 1.249 . S
C163 O148 1.264 . S
C164 C167 1.382 . S
C164 C168 1.390 . S
C164 C171 1.506 . S
C165 C166 1.398 . S
C165 C168 1.392 . S
C166 C165 1.398 . S
C166 C169 1.372 . S
C166 H176 0.931 1_556 S
C167 C164 1.382 . S
C167 C169 1.390 . S
C167 H177 0.931 . S
C168 C164 1.390 . S
C168 C165 1.392 . S
C168 H178 0.930 . S
C169 C166 1.372 . S
C169 C167 1.390 . S
C169 H179 0.929 . S
C170 O150 1.255 . S
C170 O151 1.257 . S
C171 Eu107 2.787 . S
C171 O146 1.252 . S
C171 O149 1.268 . S
C171 C164 1.506 . S
H172 C155 0.931 . S
H173 C156 0.931 . S
H174 C157 0.929 . S
H175 C158 0.892 1_455 S
H176 C166 0.931 1_554 S
H177 C167 0.931 . S
H178 C168 0.930 . S
H179 C169 0.929 . S
Eu180 N209 2.600 . S
Eu180 N215 2.562 . S
Eu180 O224 2.462 . S
Eu180 O225 2.373 . S
Eu180 O227 2.432 . S
Eu180 O228 2.291 . S
Eu180 O232 2.335 1_545 S
Eu180 O235 2.372 . S
Eu180 C244 2.787 . S
C181 N182 1.365 . S
C181 C184 1.405 . S
C181 C188 1.448 . S
N182 C181 1.365 . S
N182 C185 1.319 . S
N182 Eu191 2.600 . S
C183 C185 1.397 . S
C183 C186 1.367 . S
C183 H203 0.931 . S
C184 C181 1.405 . S
C184 C186 1.403 . S
C184 C190 1.439 . S
C185 N182 1.319 . S
C185 C183 1.397 . S
C185 H196 0.930 . S
C186 C183 1.367 . S
C186 C184 1.403 . S
C186 H207 0.929 . S
C187 C188 1.430 . S
C187 C189 1.387 . S
C187 C193 1.404 . S
C188 C181 1.448 . S
C188 C187 1.430 . S
C188 N192 1.351 . S
C189 C187 1.387 . S
C189 C190 1.374 . S
C189 H204 0.931 . S
C190 C184 1.439 . S
C190 C189 1.374 . S
C190 H205 0.931 . S
Eu191 N182 2.600 . S
Eu191 N192 2.562 . S
Eu191 O226 2.335 1_565 S
Eu191 O229 2.372 . S
Eu191 O230 2.462 . S
Eu191 O231 2.373 . S
Eu191 O233 2.432 . S
Eu191 O234 2.291 1_565 S
Eu191 C255 2.787 . S
N192 C188 1.351 . S
N192 Eu191 2.562 . S
N192 C194 1.325 . S
C193 C187 1.404 . S
C193 C195 1.366 . S
C193 H201 0.930 . S
C194 N192 1.325 . S
C194 C195 1.416 . S
C194 H200 0.929 . S
C195 C193 1.366 . S
C195 C194 1.416 . S
C195 H197 0.930 . S
H196 C185 0.930 . S
H197 C195 0.930 . S
H198 C213 0.930 . S
H199 C220 0.930 . S
H200 C194 0.929 . S
H201 C193 0.930 . S
H202 C216 0.929 . S
H203 C183 0.931 . S
H204 C189 0.931 . S
H205 C190 0.931 . S
H206 C211 0.931 . S
H207 C186 0.929 . S
H208 C219 0.930 . S
N209 Eu180 2.600 . S
N209 C210 1.365 . S
N209 C213 1.319 . S
C210 N209 1.365 . S
C210 C212 1.405 . S
C210 C218 1.448 . S
C211 H206 0.931 . S
C211 C213 1.397 . S
C211 C214 1.367 . S
C212 C210 1.405 . S
C212 C214 1.403 . S
C212 C245 1.439 . S
C213 H198 0.930 . S
C213 N209 1.319 . S
C213 C211 1.397 . S
C214 C211 1.367 . S
C214 C212 1.403 . S
C214 H221 0.929 . S
N215 Eu180 2.562 . S
N215 C216 1.325 . S
N215 C218 1.351 . S
C216 H202 0.929 . S
C216 N215 1.325 . S
C216 C220 1.416 . S
C217 C218 1.430 . S
C217 C219 1.404 . S
C217 C246 1.387 . S
C218 C210 1.448 . S
C218 N215 1.351 . S
C218 C217 1.430 . S
C219 H208 0.930 . S
C219 C217 1.404 . S
C219 C220 1.366 . S
C220 H199 0.930 . S
C220 C216 1.416 . S
C220 C219 1.366 . S
H221 C214 0.929 . S
H222 C245 0.931 . S
H223 C246 0.931 . S
O224 Eu180 2.462 . S
O224 C244 1.252 . S
O225 Eu180 2.373 . S
O225 C236 1.249 . S
O226 Eu191 2.335 1_545 S
O226 C236 1.264 . S
O227 Eu180 2.432 . S
O227 C244 1.268 . S
O228 Eu180 2.291 . S
O228 C243 1.255 . S
O229 Eu191 2.372 . S
O229 C243 1.257 1_565 S
O230 Eu191 2.462 . S
O230 C255 1.252 . S
O231 Eu191 2.373 . S
O231 C247 1.249 . S
O232 Eu180 2.335 1_565 S
O232 C247 1.264 . S
O233 Eu191 2.432 . S
O233 C255 1.268 . S
O234 Eu191 2.291 1_545 S
O234 C254 1.255 . S
O235 Eu180 2.372 . S
O235 C254 1.257 . S
C236 O225 1.249 . S
C236 O226 1.264 . S
C237 C240 1.382 1_556 S
C237 C242 1.390 . S
C237 C244 1.506 . S
C238 C239 1.398 . S
C238 C242 1.392 1_554 S
C239 C238 1.398 . S
C239 C241 1.372 . S
C239 H256 0.931 . S
C240 C237 1.382 1_554 S
C240 C241 1.390 . S
C240 H257 0.931 . S
C241 C239 1.372 . S
C241 C240 1.390 . S
C241 H258 0.929 . S
C242 C237 1.390 . S
C242 C238 1.392 1_556 S
C242 H259 0.930 . S
C243 O228 1.255 . S
C243 O229 1.257 1_545 S
C244 Eu180 2.787 . S
C244 O224 1.252 . S
C244 O227 1.268 . S
C244 C237 1.506 . S
C245 C212 1.439 . S
C245 H222 0.931 . S
C245 C246 1.374 . S
C246 C217 1.387 . S
C246 H223 0.931 . S
C246 C245 1.374 . S
C247 O231 1.249 . S
C247 O232 1.264 . S
C248 C251 1.382 . S
C248 C252 1.390 1_565 S
C248 C255 1.506 . S
C249 C250 1.398 1_545 S
C249 C252 1.392 . S
C250 C249 1.398 1_565 S
C250 C253 1.372 . S
C250 H260 0.931 . S
C251 C248 1.382 . S
C251 C253 1.390 . S
C251 H261 0.931 . S
C252 C248 1.390 1_545 S
C252 C249 1.392 . S
C252 H262 0.930 . S
C253 C250 1.372 . S
C253 C251 1.390 . S
C253 H263 0.929 . S
C254 O234 1.255 . S
C254 O235 1.257 . S
C255 Eu191 2.787 . S
C255 O230 1.252 . S
C255 O233 1.268 . S
C255 C248 1.506 . S
H256 C239 0.931 . S
H257 C240 0.931 . S
H258 C241 0.929 . S
H259 C242 0.930 . S
H260 C250 0.931 . S
H261 C251 0.931 . S
H262 C252 0.930 . S
H263 C253 0.929 . S
Eu264 N293 2.600 . S
Eu264 N299 2.562 . S
Eu264 O308 2.462 . S
Eu264 O309 2.373 . S
Eu264 O311 2.432 . S
Eu264 O312 2.291 . S
Eu264 O316 2.335 . S
Eu264 O319 2.372 . S
Eu264 C328 2.787 . S
C265 N266 1.365 . S
C265 C268 1.405 . S
C265 C272 1.448 . S
N266 C265 1.365 . S
N266 C269 1.319 . S
N266 Eu275 2.600 . S
C267 C269 1.397 . S
C267 C270 1.367 . S
C267 H287 0.931 . S
C268 C265 1.405 . S
C268 C270 1.403 . S
C268 C274 1.439 1_556 S
C269 N266 1.319 . S
C269 C267 1.397 . S
C269 H280 0.930 . S
C270 C267 1.367 . S
C270 C268 1.403 . S
C270 H291 0.929 . S
C271 C272 1.430 1_554 S
C271 C273 1.387 . S
C271 C277 1.404 . S
C272 C265 1.448 . S
C272 C271 1.430 1_556 S
C272 N276 1.351 . S
C273 C271 1.387 . S
C273 C274 1.374 . S
C273 H288 0.931 . S
C274 C268 1.439 1_554 S
C274 C273 1.374 . S
C274 H289 0.931 . S
Eu275 N266 2.600 . S
Eu275 N276 2.562 . S
Eu275 O310 2.335 . S
Eu275 O313 2.372 . S
Eu275 O314 2.462 . S
Eu275 O315 2.373 . S
Eu275 O317 2.432 . S
Eu275 O318 2.291 . S
Eu275 C339 2.787 . S
N276 C272 1.351 . S
N276 Eu275 2.562 . S
N276 C278 1.325 . S
C277 C271 1.404 . S
C277 C279 1.366 . S
C277 H285 0.930 . S
C278 N276 1.325 . S
C278 C279 1.416 1_556 S
C278 H284 0.929 . S
C279 C277 1.366 . S
C279 C278 1.416 1_554 S
C279 H281 0.930 . S
H280 C269 0.930 . S
H281 C279 0.930 . S
H282 C297 0.930 . S
H283 C304 0.930 . S
H284 C278 0.929 . S
H285 C277 0.930 . S
H286 C300 0.929 . S
H287 C267 0.931 . S
H288 C273 0.931 . S
H289 C274 0.931 . S
H290 C295 0.931 . S
H291 C270 0.929 . S
H292 C303 0.930 . S
N293 Eu264 2.600 . S
N293 C294 1.365 . S
N293 C297 1.319 . S
C294 N293 1.365 . S
C294 C296 1.405 . S
C294 C302 1.448 . S
C295 H290 0.931 . S
C295 C297 1.397 . S
C295 C298 1.367 . S
C296 C294 1.405 . S
C296 C298 1.403 . S
C296 C329 1.439 . S
C297 H282 0.930 . S
C297 N293 1.319 . S
C297 C295 1.397 . S
C298 C295 1.367 . S
C298 C296 1.403 . S
C298 H305 0.929 . S
N299 Eu264 2.562 . S
N299 C300 1.325 . S
N299 C302 1.351 . S
C300 H286 0.929 . S
C300 N299 1.325 . S
C300 C304 1.416 . S
C301 C302 1.430 . S
C301 C303 1.404 . S
C301 C330 1.387 . S
C302 C294 1.448 . S
C302 N299 1.351 . S
C302 C301 1.430 . S
C303 H292 0.930 . S
C303 C301 1.404 . S
C303 C304 1.366 . S
C304 H283 0.930 . S
C304 C300 1.416 . S
C304 C303 1.366 . S
H305 C298 0.929 . S
H306 C329 0.931 . S
H307 C330 0.931 . S
O308 Eu264 2.462 . S
O308 C328 1.252 . S
O309 Eu264 2.373 . S
O309 C320 1.249 . S
O310 Eu275 2.335 . S
O310 C320 1.264 . S
O311 Eu264 2.432 . S
O311 C328 1.268 . S
O312 Eu264 2.291 . S
O312 C327 1.255 . S
O313 Eu275 2.372 . S
O313 C327 1.257 . S
O314 Eu275 2.462 . S
O314 C339 1.252 . S
O315 Eu275 2.373 . S
O315 C331 1.249 . S
O316 Eu264 2.335 . S
O316 C331 1.264 . S
O317 Eu275 2.432 . S
O317 C339 1.268 . S
O318 Eu275 2.291 . S
O318 C338 1.255 . S
O319 Eu264 2.372 . S
O319 C338 1.257 . S
C320 O309 1.249 . S
C320 O310 1.264 . S
C321 C324 1.382 . S
C321 C326 1.390 . S
C321 C328 1.506 . S
C322 C323 1.398 . S
C322 C326 1.392 . S
C323 C322 1.398 . S
C323 C325 1.372 . S
C323 H340 0.931 . S
C324 C321 1.382 . S
C324 C325 1.390 . S
C324 H341 0.931 . S
C325 C323 1.372 . S
C325 C324 1.390 . S
C325 H342 0.929 . S
C326 C321 1.390 . S
C326 C322 1.392 . S
C326 H343 0.930 . S
C327 O312 1.255 . S
C327 O313 1.257 . S
C328 Eu264 2.787 . S
C328 O308 1.252 . S
C328 O311 1.268 . S
C328 C321 1.506 . S
C329 C296 1.439 . S
C329 H306 0.931 . S
C329 C330 1.374 . S
C330 C301 1.387 . S
C330 H307 0.931 . S
C330 C329 1.374 . S
C331 O315 1.249 . S
C331 O316 1.264 . S
C332 C335 1.382 . S
C332 C336 1.390 . S
C332 C339 1.506 . S
C333 C334 1.398 . S
C333 C336 1.392 . S
C334 C333 1.398 . S
C334 C337 1.372 . S
C334 H344 0.931 1_556 S
C335 C332 1.382 . S
C335 C337 1.390 . S
C335 H345 0.931 . S
C336 C332 1.390 . S
C336 C333 1.392 . S
C336 H346 0.930 . S
C337 C334 1.372 . S
C337 C335 1.390 . S
C337 H347 0.929 . S
C338 O318 1.255 . S
C338 O319 1.257 . S
C339 Eu275 2.787 . S
C339 O314 1.252 . S
C339 O317 1.268 . S
C339 C332 1.506 . S
H340 C323 0.931 . S
H341 C324 0.931 . S
H342 C325 0.929 . S
H343 C326 0.930 . S
H344 C334 0.931 1_554 S
H345 C335 0.931 . S
H346 C336 0.930 . S
H347 C337 0.929 . S
Eu348 N377 2.600 . S
Eu348 N383 2.562 . S
Eu348 O392 2.462 . S
Eu348 O393 2.373 1_455 S
Eu348 O395 2.432 . S
Eu348 O396 2.291 . S
Eu348 O400 2.335 . S
Eu348 O403 2.372 . S
Eu348 C412 2.787 . S
C349 N350 1.365 . S
C349 C352 1.405 . S
C349 C356 1.448 . S
N350 C349 1.365 . S
N350 C353 1.315 1_455 S
N350 Eu359 2.600 1_455 S
C351 C353 1.387 1_455 S
C351 C354 1.367 . S
C351 H371 0.931 . S
C352 C349 1.405 . S
C352 C354 1.403 . S
C352 C358 1.439 1_556 S
C353 N350 1.315 1_655 S
C353 C351 1.387 1_655 S
C353 H364 0.945 . S
C354 C351 1.367 . S
C354 C352 1.403 . S
C354 H375 0.929 . S
C355 C356 1.430 1_554 S
C355 C357 1.387 . S
C355 C361 1.404 . S
C356 C349 1.448 . S
C356 C355 1.430 1_556 S
C356 N360 1.351 . S
C357 C355 1.387 . S
C357 C358 1.374 . S
C357 H372 0.931 . S
C358 C352 1.439 1_554 S
C358 C357 1.374 . S
C358 H373 0.931 . S
Eu359 N350 2.600 1_655 S
Eu359 N360 2.562 1_655 S
Eu359 O394 2.335 . S
Eu359 O397 2.372 . S
Eu359 O398 2.462 . S
Eu359 O399 2.373 1_655 S
Eu359 O401 2.432 . S
Eu359 O402 2.291 1_655 S
Eu359 C423 2.787 . S
N360 C356 1.351 . S
N360 Eu359 2.562 1_455 S
N360 C362 1.325 . S
C361 C355 1.404 . S
C361 C363 1.366 . S
C361 H369 0.930 . S
C362 N360 1.325 . S
C362 C363 1.416 1_556 S
C362 H368 0.929 . S
C363 C361 1.366 . S
C363 C362 1.416 1_554 S
C363 H365 0.930 . S
H364 C353 0.945 . S
H365 C363 0.930 . S
H366 C381 0.930 . S
H367 C388 0.930 . S
H368 C362 0.929 . S
H369 C361 0.930 . S
H370 C384 0.929 . S
H371 C351 0.931 . S
H372 C357 0.931 . S
H373 C358 0.931 . S
H374 C379 0.931 . S
H375 C354 0.929 . S
H376 C387 0.930 . S
N377 Eu348 2.600 . S
N377 C378 1.365 . S
N377 C381 1.319 . S
C378 N377 1.365 . S
C378 C380 1.405 1_455 S
C378 C386 1.448 . S
C379 H374 0.931 . S
C379 C381 1.397 . S
C379 C382 1.367 1_455 S
C380 C378 1.405 1_655 S
C380 C382 1.403 . S
C380 C413 1.439 . S
C381 H366 0.930 . S
C381 N377 1.319 . S
C381 C379 1.397 . S
C382 C379 1.367 1_655 S
C382 C380 1.403 . S
C382 H389 0.929 . S
N383 Eu348 2.562 . S
N383 C384 1.325 . S
N383 C386 1.353 . S
C384 H370 0.929 . S
C384 N383 1.325 . S
C384 C388 1.416 1_455 S
C385 C386 1.428 1_655 S
C385 C387 1.404 . S
C385 C414 1.387 . S
C386 C378 1.448 . S
C386 N383 1.353 . S
C386 C385 1.428 1_455 S
C387 H376 0.930 . S
C387 C385 1.404 . S
C387 C388 1.366 . S
C388 H367 0.930 . S
C388 C384 1.416 1_655 S
C388 C387 1.366 . S
H389 C382 0.929 . S
H390 C413 0.931 . S
H391 C414 0.931 . S
O392 Eu348 2.462 . S
O392 C412 1.252 . S
O393 Eu348 2.373 1_655 S
O393 C404 1.249 . S
O394 Eu359 2.335 . S
O394 C404 1.264 . S
O395 Eu348 2.432 . S
O395 C412 1.268 . S
O396 Eu348 2.291 . S
O396 C411 1.255 . S
O397 Eu359 2.372 . S
O397 C411 1.257 1_655 S
O398 Eu359 2.462 . S
O398 C423 1.252 . S
O399 Eu359 2.373 1_455 S
O399 C415 1.249 . S
O400 Eu348 2.335 . S
O400 C415 1.264 . S
O401 Eu359 2.432 . S
O401 C423 1.268 . S
O402 Eu359 2.291 1_455 S
O402 C422 1.255 . S
O403 Eu348 2.372 . S
O403 C422 1.257 . S
C404 O393 1.249 . S
C404 O394 1.264 . S
C405 C408 1.382 . S
C405 C410 1.390 . S
C405 C412 1.506 . S
C406 C407 1.398 . S
C406 C410 1.392 . S
C407 C406 1.398 . S
C407 C409 1.372 . S
C407 H424 0.931 . S
C408 C405 1.382 . S
C408 C409 1.390 . S
C408 H425 0.931 . S
C409 C407 1.372 . S
C409 C408 1.390 . S
C409 H426 0.929 . S
C410 C405 1.390 . S
C410 C406 1.392 . S
C410 H427 0.930 . S
C411 O396 1.255 . S
C411 O397 1.257 1_455 S
C412 Eu348 2.787 . S
C412 O392 1.252 . S
C412 O395 1.268 . S
C412 C405 1.506 . S
C413 C380 1.439 . S
C413 H390 0.931 . S
C413 C414 1.374 . S
C414 C385 1.387 . S
C414 H391 0.931 . S
C414 C413 1.374 . S
C415 O399 1.249 . S
C415 O400 1.264 . S
C416 C419 1.382 . S
C416 C420 1.390 . S
C416 C423 1.506 . S
C417 C418 1.398 . S
C417 C420 1.392 . S
C418 C417 1.398 . S
C418 C421 1.372 . S
C418 H428 0.931 1_556 S
C419 C416 1.382 . S
C419 C421 1.390 . S
C419 H429 0.931 . S
C420 C416 1.390 . S
C420 C417 1.392 . S
C420 H430 0.930 . S
C421 C418 1.372 . S
C421 C419 1.390 . S
C421 H431 0.929 . S
C422 O402 1.255 . S
C422 O403 1.257 . S
C423 Eu359 2.787 . S
C423 O398 1.252 . S
C423 O401 1.268 . S
C423 C416 1.506 . S
H424 C407 0.931 . S
H425 C408 0.931 . S
H426 C409 0.929 . S
H427 C410 0.930 . S
H428 C418 0.931 1_554 S
H429 C419 0.931 . S
H430 C420 0.930 . S
H431 C421 0.929 . S
C432 C433 1.391 . S
C432 C434 1.394 . S
C432 H448 0.931 . S
C433 C432 1.391 . S
C433 C437 1.376 . S
C434 C432 1.394 . S
C434 C435 1.369 . S
C434 C438 1.531 . S
C435 C434 1.369 . S
C435 C436 1.410 . S
C435 C443 1.503 . S
C436 C435 1.410 . S
C436 C437 1.392 . S
C436 C439 1.511 . S
C437 C433 1.376 . S
C437 C436 1.392 . S
C437 H449 0.929 . S
C438 C434 1.531 . S
C438 H450 0.960 . S
C438 H451 0.962 . S
C438 H452 0.960 . S
C439 C436 1.511 . S
C439 H453 0.961 . S
C439 H454 0.961 . S
C439 H455 0.961 . S
C440 C441 1.370 . S
C440 C442 1.363 . S
C440 H456 0.931 1_545 S
C441 C440 1.370 . S
C441 C445 1.408 . S
C442 C440 1.363 . S
C442 C443 1.370 . S
C442 C446 1.524 1_545 S
C443 C435 1.503 . S
C443 C442 1.370 . S
C443 C444 1.403 . S
C444 C443 1.403 . S
C444 C445 1.404 . S
C444 C447 1.539 . S
C445 C441 1.408 . S
C445 C444 1.404 . S
C445 H457 0.930 . S
C446 C442 1.524 1_565 S
C446 H458 0.956 . S
C446 H459 0.961 . S
C446 H460 0.961 . S
C447 C444 1.539 . S
C447 H461 0.958 . S
C447 H462 0.961 . S
C447 H463 0.960 . S
H448 C432 0.931 . S
H449 C437 0.929 . S
H450 C438 0.960 . S
H451 C438 0.962 . S
H452 C438 0.960 . S
H453 C439 0.961 . S
H454 C439 0.961 . S
H455 C439 0.961 . S
H456 C440 0.931 1_565 S
H457 C445 0.930 . S
H458 C446 0.956 . S
H459 C446 0.961 . S
H460 C446 0.961 . S
H461 C447 0.958 . S
H462 C447 0.961 . S
H463 C447 0.960 . S
C464 C465 1.391 . S
C464 C466 1.394 . S
C464 H480 0.931 . S
C465 C464 1.391 . S
C465 C469 1.376 . S
C466 C464 1.394 . S
C466 C467 1.369 . S
C466 C470 1.531 . S
C467 C466 1.369 . S
C467 C468 1.410 . S
C467 C475 1.503 . S
C468 C467 1.410 . S
C468 C469 1.392 . S
C468 C471 1.511 . S
C469 C465 1.376 . S
C469 C468 1.392 . S
C469 H481 0.929 . S
C470 C466 1.531 . S
C470 H482 0.960 . S
C470 H483 0.962 . S
C470 H484 0.960 . S
C471 C468 1.511 . S
C471 H485 0.961 . S
C471 H486 0.961 . S
C471 H487 0.961 . S
C472 C473 1.370 . S
C472 C474 1.363 . S
C472 H488 0.931 . S
C473 C472 1.370 . S
C473 C477 1.408 . S
C474 C472 1.363 . S
C474 C475 1.370 . S
C474 C478 1.524 . S
C475 C467 1.503 . S
C475 C474 1.370 . S
C475 C476 1.403 . S
C476 C475 1.403 . S
C476 C477 1.404 . S
C476 C479 1.539 . S
C477 C473 1.408 . S
C477 C476 1.404 . S
C477 H489 0.930 . S
C478 C474 1.524 . S
C478 H490 0.956 . S
C478 H491 0.961 . S
C478 H492 0.961 . S
C479 C476 1.539 . S
C479 H493 0.958 . S
C479 H494 0.961 . S
C479 H495 0.960 . S
H480 C464 0.931 . S
H481 C469 0.929 . S
H482 C470 0.960 . S
H483 C470 0.962 . S
H484 C470 0.960 . S
H485 C471 0.961 . S
H486 C471 0.961 . S
H487 C471 0.961 . S
H488 C472 0.931 . S
H489 C477 0.930 . S
H490 C478 0.956 . S
H491 C478 0.961 . S
H492 C478 0.961 . S
H493 C479 0.958 . S
H494 C479 0.961 . S
H495 C479 0.960 . S
C496 C497 1.391 . S
C496 C498 1.394 . S
C496 H512 0.931 . S
C497 C496 1.391 . S
C497 C501 1.376 . S
C498 C496 1.394 . S
C498 C499 1.369 . S
C498 C502 1.531 . S
C499 C498 1.369 . S
C499 C500 1.410 . S
C499 C507 1.503 . S
C500 C499 1.410 . S
C500 C501 1.392 . S
C500 C503 1.511 . S
C501 C497 1.376 . S
C501 C500 1.392 . S
C501 H513 0.929 . S
C502 C498 1.531 . S
C502 H514 0.960 . S
C502 H515 0.962 . S
C502 H516 0.960 . S
C503 C500 1.511 . S
C503 H517 0.961 . S
C503 H518 0.961 . S
C503 H519 0.961 . S
C504 C505 1.370 . S
C504 C506 1.363 . S
C504 H520 0.931 . S
C505 C504 1.370 . S
C505 C509 1.408 . S
C506 C504 1.363 . S
C506 C507 1.370 . S
C506 C510 1.524 . S
C507 C499 1.503 . S
C507 C506 1.370 . S
C507 C508 1.403 . S
C508 C507 1.403 . S
C508 C509 1.404 . S
C508 C511 1.539 . S
C509 C505 1.408 . S
C509 C508 1.404 . S
C509 H521 0.930 . S
C510 C506 1.524 . S
C510 H522 0.956 . S
C510 H523 0.961 . S
C510 H524 0.961 . S
C511 C508 1.539 . S
C511 H525 0.958 . S
C511 H526 0.961 . S
C511 H527 0.960 . S
H512 C496 0.931 . S
H513 C501 0.929 . S
H514 C502 0.960 . S
H515 C502 0.962 . S
H516 C502 0.960 . S
H517 C503 0.961 . S
H518 C503 0.961 . S
H519 C503 0.961 . S
H520 C504 0.931 . S
H521 C509 0.930 . S
H522 C510 0.956 . S
H523 C510 0.961 . S
H524 C510 0.961 . S
H525 C511 0.958 . S
H526 C511 0.961 . S
H527 C511 0.960 . S
C528 C529 1.391 . S
C528 C530 1.394 . S
C528 H544 0.931 . S
C529 C528 1.391 . S
C529 C533 1.376 . S
C530 C528 1.394 . S
C530 C531 1.369 . S
C530 C534 1.531 . S
C531 C530 1.369 . S
C531 C532 1.410 . S
C531 C539 1.503 . S
C532 C531 1.410 . S
C532 C533 1.392 . S
C532 C535 1.511 . S
C533 C529 1.376 . S
C533 C532 1.392 . S
C533 H545 0.929 . S
C534 C530 1.531 . S
C534 H546 0.960 . S
C534 H547 0.962 . S
C534 H548 0.960 . S
C535 C532 1.511 . S
C535 H549 0.961 . S
C535 H550 0.961 . S
C535 H551 0.961 1_455 S
C536 C537 1.370 . S
C536 C538 1.363 . S
C536 H552 0.931 . S
C537 C536 1.370 . S
C537 C541 1.408 1_455 S
C538 C536 1.363 . S
C538 C539 1.370 . S
C538 C542 1.524 . S
C539 C531 1.503 . S
C539 C538 1.370 . S
C539 C540 1.403 1_455 S
C540 C539 1.403 1_655 S
C540 C541 1.404 . S
C540 C543 1.539 . S
C541 C537 1.408 1_655 S
C541 C540 1.404 . S
C541 H553 0.930 . S
C542 C538 1.524 . S
C542 H554 0.956 . S
C542 H555 0.961 . S
C542 H556 0.961 . S
C543 C540 1.539 . S
C543 H557 0.958 . S
C543 H558 0.961 . S
C543 H559 0.960 . S
H544 C528 0.931 . S
H545 C533 0.929 . S
H546 C534 0.960 . S
H547 C534 0.962 . S
H548 C534 0.960 . S
H549 C535 0.961 . S
H550 C535 0.961 . S
H551 C535 0.961 1_655 S
H552 C536 0.931 . S
H553 C541 0.930 . S
H554 C542 0.956 . S
H555 C542 0.961 . S
H556 C542 0.961 . S
H557 C543 0.958 . S
H558 C543 0.961 . S
H559 C543 0.960 . S
C560 C561 1.391 . S
C560 C562 1.394 . S
C560 H576 0.931 . S
C561 C560 1.391 . S
C561 C565 1.376 . S
C562 C560 1.394 . S
C562 C563 1.369 . S
C562 C566 1.531 . S
C563 C562 1.369 . S
C563 C564 1.410 . S
C563 C571 1.503 1_554 S
C564 C563 1.410 . S
C564 C565 1.392 . S
C564 C567 1.511 1_564 S
C565 C561 1.376 . S
C565 C564 1.392 . S
C565 H577 0.929 1_565 S
C566 C562 1.531 . S
C566 H578 0.960 . S
C566 H579 0.962 . S
C566 H580 0.960 . S
C567 C564 1.511 1_546 S
C567 H581 0.961 1_556 S
C567 H582 0.961 . S
C567 H583 0.961 . S
C568 C569 1.364 1_545 S
C568 C570 1.363 . S
C568 H584 0.931 . S
C569 C568 1.364 1_565 S
C569 C573 1.417 . S
C570 C568 1.363 . S
C570 C571 1.370 1_545 S
C570 C574 1.524 1_556 S
C571 C563 1.503 1_556 S
C571 C570 1.370 1_565 S
C571 C572 1.403 . S
C572 C571 1.403 . S
C572 C573 1.404 . S
C572 C575 1.539 . S
C573 C569 1.417 . S
C573 C572 1.404 . S
C573 H585 0.930 . S
C574 C570 1.524 1_554 S
C574 H586 0.956 . S
C574 H587 0.961 . S
C574 H588 0.961 . S
C575 C572 1.539 . S
C575 H589 0.958 . S
C575 H590 0.961 . S
C575 H591 0.960 . S
H576 C560 0.931 . S
H577 C565 0.929 1_545 S
H578 C566 0.960 . S
H579 C566 0.962 . S
H580 C566 0.960 . S
H581 C567 0.961 1_554 S
H582 C567 0.961 . S
H583 C567 0.961 . S
H584 C568 0.931 . S
H585 C573 0.930 . S
H586 C574 0.956 . S
H587 C574 0.961 . S
H588 C574 0.961 . S
H589 C575 0.958 . S
H590 C575 0.961 . S
H591 C575 0.960 . S
C592 C593 1.391 . S
C592 C594 1.394 . S
C592 H608 0.931 . S
C593 C592 1.391 . S
C593 C597 1.376 . S
C594 C592 1.394 . S
C594 C595 1.369 . S
C594 C598 1.531 . S
C595 C594 1.369 . S
C595 C596 1.410 . S
C595 C603 1.503 . S
C596 C595 1.410 . S
C596 C597 1.392 . S
C596 C599 1.511 . S
C597 C593 1.376 . S
C597 C596 1.392 . S
C597 H609 0.929 . S
C598 C594 1.531 . S
C598 H610 0.960 . S
C598 H611 0.962 . S
C598 H612 0.960 . S
C599 C596 1.511 . S
C599 H613 0.961 . S
C599 H614 0.961 1_554 S
C599 H615 0.961 . S
C600 C601 1.370 . S
C600 C602 1.363 . S
C600 H616 0.931 . S
C601 C600 1.370 . S
C601 C605 1.408 . S
C602 C600 1.363 . S
C602 C603 1.370 1_556 S
C602 C606 1.524 . S
C603 C595 1.503 . S
C603 C602 1.370 1_554 S
C603 C604 1.403 . S
C604 C603 1.403 . S
C604 C605 1.404 1_554 S
C604 C607 1.539 . S
C605 C601 1.408 . S
C605 C604 1.404 1_556 S
C605 H617 0.930 . S
C606 C602 1.524 . S
C606 H618 0.956 . S
C606 H619 0.961 . S
C606 H620 0.961 . S
C607 C604 1.539 . S
C607 H621 0.958 . S
C607 H622 0.961 . S
C607 H623 0.960 . S
H608 C592 0.931 . S
H609 C597 0.929 . S
H610 C598 0.960 . S
H611 C598 0.962 . S
H612 C598 0.960 . S
H613 C599 0.961 . S
H614 C599 0.961 1_556 S
H615 C599 0.961 . S
H616 C600 0.931 . S
H617 C605 0.930 . S
H618 C606 0.956 . S
H619 C606 0.961 . S
H620 C606 0.961 . S
H621 C607 0.958 . S
H622 C607 0.961 . S
H623 C607 0.960 . S
C624 C625 1.391 . S
C624 C626 1.394 . S
C624 H640 0.931 . S
C625 C624 1.391 . S
C625 C629 1.376 . S
C626 C624 1.394 . S
C626 C627 1.369 . S
C626 C630 1.531 1_554 S
C627 C626 1.369 . S
C627 C628 1.410 . S
C627 C635 1.503 1_554 S
C628 C627 1.410 . S
C628 C629 1.392 . S
C628 C631 1.511 . S
C629 C625 1.376 . S
C629 C628 1.392 . S
C629 H641 0.929 . S
C630 C626 1.531 1_556 S
C630 H642 0.960 . S
C630 H643 0.962 . S
C630 H644 0.959 1_556 S
C631 C628 1.511 . S
C631 H645 0.961 . S
C631 H646 0.961 . S
C631 H647 0.961 . S
C632 C633 1.370 . S
C632 C634 1.363 . S
C632 H648 0.931 . S
C633 C632 1.370 . S
C633 C637 1.408 . S
C634 C632 1.363 . S
C634 C635 1.370 . S
C634 C638 1.524 . S
C635 C627 1.503 1_556 S
C635 C634 1.370 . S
C635 C636 1.403 . S
C636 C635 1.403 . S
C636 C637 1.404 . S
C636 C639 1.539 1_556 S
C637 C633 1.408 . S
C637 C636 1.404 . S
C637 H649 0.930 . S
C638 C634 1.524 . S
C638 H650 0.956 . S
C638 H651 0.961 1_556 S
C638 H652 0.961 . S
C639 C636 1.539 1_554 S
C639 H653 0.958 . S
C639 H654 0.961 . S
C639 H655 0.960 . S
H640 C624 0.931 . S
H641 C629 0.929 . S
H642 C630 0.960 . S
H643 C630 0.962 . S
H644 C630 0.959 1_554 S
H645 C631 0.961 . S
H646 C631 0.961 . S
H647 C631 0.961 . S
H648 C632 0.931 . S
H649 C637 0.930 . S
H650 C638 0.956 . S
H651 C638 0.961 1_554 S
H652 C638 0.961 . S
H653 C639 0.958 . S
H654 C639 0.961 . S
H655 C639 0.960 . S
C656 C657 1.391 . S
C656 C658 1.394 . S
C656 H672 0.940 . S
C657 C656 1.391 . S
C657 C661 1.376 . S
C658 C656 1.394 . S
C658 C659 1.369 . S
C658 C662 1.531 1_655 S
C659 C658 1.369 . S
C659 C660 1.410 . S
C659 C667 1.503 1_554 S
C660 C659 1.410 . S
C660 C661 1.392 . S
C660 C663 1.511 1_554 S
C661 C657 1.376 . S
C661 C660 1.392 . S
C661 H673 0.929 . S
C662 C658 1.531 1_455 S
C662 H674 0.968 . S
C662 H675 0.962 . S
C662 H676 0.960 . S
C663 C660 1.511 1_556 S
C663 H677 0.961 . S
C663 H678 0.961 . S
C663 H679 0.961 . S
C664 C665 1.370 1_455 S
C664 C666 1.363 . S
C664 H680 0.931 . S
C665 C664 1.370 1_655 S
C665 C669 1.408 . S
C666 C664 1.363 . S
C666 C667 1.370 1_455 S
C666 C670 1.524 . S
C667 C659 1.503 1_556 S
C667 C666 1.370 1_655 S
C667 C668 1.403 . S
C668 C667 1.403 . S
C668 C669 1.404 . S
C668 C671 1.539 1_556 S
C669 C665 1.408 . S
C669 C668 1.404 . S
C669 H681 0.930 . S
C670 C666 1.524 . S
C670 H682 0.956 1_556 S
C670 H683 0.961 . S
C670 H684 0.961 . S
C671 C668 1.539 1_554 S
C671 H685 0.958 . S
C671 H686 0.961 1_554 S
C671 H687 0.960 . S
H672 C656 0.940 . S
H673 C661 0.929 . S
H674 C662 0.968 . S
H675 C662 0.962 . S
H676 C662 0.960 . S
H677 C663 0.961 . S
H678 C663 0.961 . S
H679 C663 0.961 . S
H680 C664 0.931 . S
H681 C669 0.930 . S
H682 C670 0.956 1_554 S
H683 C670 0.961 . S
H684 C670 0.961 . S
H685 C671 0.958 . S
H686 C671 0.961 1_556 S
H687 C671 0.960 . S
C688 C689 1.391 . S
C688 C690 1.394 . S
C688 H704 0.931 . S
C689 C688 1.391 . S
C689 C693 1.376 . S
C690 C688 1.394 . S
C690 C691 1.369 . S
C690 C694 1.531 1_455 S
C691 C690 1.369 . S
C691 C692 1.410 . S
C691 C699 1.503 . S
C692 C691 1.410 . S
C692 C693 1.392 . S
C692 C695 1.511 . S
C693 C689 1.376 . S
C693 C692 1.392 . S
C693 H705 0.929 . S
C694 C690 1.531 1_655 S
C694 H706 0.960 . S
C694 H707 0.962 . S
C694 H708 0.960 . S
C695 C692 1.511 . S
C695 H709 0.961 . S
C695 H710 0.961 . S
C695 H711 0.961 . S
C696 C697 1.370 1_655 S
C696 C698 1.363 1_655 S
C696 H712 0.931 . S
C697 C696 1.370 1_455 S
C697 C701 1.408 . S
C698 C696 1.363 1_455 S
C698 C699 1.370 . S
C698 C702 1.524 1_455 S
C699 C691 1.503 . S
C699 C698 1.370 . S
C699 C700 1.403 . S
C700 C699 1.403 . S
C700 C701 1.404 . S
C700 C703 1.539 . S
C701 C697 1.408 . S
C701 C700 1.404 . S
C701 H713 0.930 . S
C702 C698 1.524 1_655 S
C702 H714 0.956 . S
C702 H715 0.961 1_655 S
C702 H716 0.961 . S
C703 C700 1.539 . S
C703 H717 0.958 . S
C703 H718 0.961 . S
C703 H719 0.960 . S
H704 C688 0.931 . S
H705 C693 0.929 . S
H706 C694 0.960 . S
H707 C694 0.962 . S
H708 C694 0.960 . S
H709 C695 0.961 . S
H710 C695 0.961 . S
H711 C695 0.961 . S
H712 C696 0.931 . S
H713 C701 0.930 . S
H714 C702 0.956 . S
H715 C702 0.961 1_455 S
H716 C702 0.961 . S
H717 C703 0.958 . S
H718 C703 0.961 . S
H719 C703 0.960 . S
C720 C721 1.391 . S
C720 C722 1.394 . S
C720 H736 0.931 . S
C721 C720 1.391 . S
C721 C725 1.376 . S
C722 C720 1.394 . S
C722 C723 1.369 . S
C722 C726 1.531 . S
C723 C722 1.369 . S
C723 C724 1.410 . S
C723 C731 1.503 . S
C724 C723 1.410 . S
C724 C725 1.392 . S
C724 C727 1.511 . S
C725 C721 1.376 . S
C725 C724 1.392 . S
C725 H737 0.929 . S
C726 C722 1.531 . S
C726 H738 0.960 . S
C726 H739 1.001 . S
C726 H740 0.960 . S
C727 C724 1.511 . S
C727 H741 0.961 . S
C727 H742 0.961 . S
C727 H743 0.961 . S
C728 C729 1.370 1_565 S
C728 C730 1.353 1_565 S
C728 H744 0.931 . S
C729 C728 1.370 1_545 S
C729 C733 1.408 . S
C730 C728 1.353 1_545 S
C730 C731 1.401 . S
C730 C734 1.504 1_545 S
C731 C723 1.503 . S
C731 C730 1.401 . S
C731 C732 1.403 . S
C732 C731 1.403 . S
C732 C733 1.404 . S
C732 C735 1.539 . S
C733 C729 1.408 . S
C733 C732 1.404 . S
C733 H745 0.930 . S
C734 C730 1.504 1_565 S
C734 H746 0.956 . S
C734 H747 0.961 . S
C734 H748 0.961 . S
C735 C732 1.539 . S
C735 H749 0.958 . S
C735 H750 0.961 . S
C735 H751 0.960 . S
H736 C720 0.931 . S
H737 C725 0.929 . S
H738 C726 0.960 . S
H739 C726 1.001 . S
H740 C726 0.960 . S
H741 C727 0.961 . S
H742 C727 0.961 . S
H743 C727 0.961 . S
H744 C728 0.931 . S
H745 C733 0.930 . S
H746 C734 0.956 . S
H747 C734 0.961 . S
H748 C734 0.961 . S
H749 C735 0.958 . S
H750 C735 0.961 . S
H751 C735 0.960 . S
C752 C753 1.391 . S
C752 C754 1.394 . S
C752 H768 0.931 . S
C753 C752 1.391 . S
C753 C757 1.376 . S
C754 C752 1.394 . S
C754 C755 1.369 . S
C754 C758 1.531 . S
C755 C754 1.369 . S
C755 C756 1.410 . S
C755 C763 1.503 . S
C756 C755 1.410 . S
C756 C757 1.392 . S
C756 C759 1.511 . S
C757 C753 1.376 . S
C757 C756 1.392 . S
C757 H769 0.929 . S
C758 C754 1.531 . S
C758 H770 0.960 . S
C758 H771 0.962 . S
C758 H772 0.960 . S
C759 C756 1.511 . S
C759 H773 0.961 . S
C759 H774 0.961 . S
C759 H775 0.961 . S
C760 C761 1.370 . S
C760 C762 1.363 . S
C760 H776 0.931 . S
C761 C760 1.370 . S
C761 C765 1.408 . S
C762 C760 1.363 . S
C762 C763 1.370 . S
C762 C766 1.524 . S
C763 C755 1.503 . S
C763 C762 1.370 . S
C763 C764 1.403 . S
C764 C763 1.403 . S
C764 C765 1.404 . S
C764 C767 1.539 . S
C765 C761 1.408 . S
C765 C764 1.404 . S
C765 H777 0.930 . S
C766 C762 1.524 . S
C766 H778 0.956 . S
C766 H779 0.961 . S
C766 H780 0.961 . S
C767 C764 1.539 . S
C767 H781 0.958 . S
C767 H782 0.961 . S
C767 H783 0.960 . S
H768 C752 0.931 . S
H769 C757 0.929 . S
H770 C758 0.960 . S
H771 C758 0.962 . S
H772 C758 0.960 . S
H773 C759 0.961 . S
H774 C759 0.961 . S
H775 C759 0.961 . S
H776 C760 0.931 . S
H777 C765 0.930 . S
H778 C766 0.956 . S
H779 C766 0.961 . S
H780 C766 0.961 . S
H781 C767 0.958 . S
H782 C767 0.961 . S
H783 C767 0.960 . S
C784 C785 1.391 . S
C784 C786 1.394 . S
C784 H800 0.931 . S
C785 C784 1.391 . S
C785 C789 1.376 . S
C786 C784 1.394 . S
C786 C787 1.369 . S
C786 C790 1.531 . S
C787 C786 1.369 . S
C787 C788 1.410 . S
C787 C795 1.503 . S
C788 C787 1.410 . S
C788 C789 1.392 . S
C788 C791 1.511 . S
C789 C785 1.376 . S
C789 C788 1.392 . S
C789 H801 0.929 . S
C790 C786 1.531 . S
C790 H802 0.960 . S
C790 H803 0.962 . S
C790 H804 0.960 . S
C791 C788 1.511 . S
C791 H805 0.961 . S
C791 H806 0.961 . S
C791 H807 0.961 . S
C792 C793 1.370 . S
C792 C794 1.363 . S
C792 H808 0.931 . S
C793 C792 1.370 . S
C793 C797 1.408 . S
C794 C792 1.363 . S
C794 C795 1.370 . S
C794 C798 1.524 . S
C795 C787 1.503 . S
C795 C794 1.370 . S
C795 C796 1.403 . S
C796 C795 1.403 . S
C796 C797 1.404 . S
C796 C799 1.539 . S
C797 C793 1.408 . S
C797 C796 1.404 . S
C797 H809 0.930 . S
C798 C794 1.524 . S
C798 H810 0.956 . S
C798 H811 0.961 . S
C798 H812 0.961 . S
C799 C796 1.539 . S
C799 H813 0.958 . S
C799 H814 0.961 . S
C799 H815 0.960 . S
H800 C784 0.931 . S
H801 C789 0.929 . S
H802 C790 0.960 . S
H803 C790 0.962 . S
H804 C790 0.960 . S
H805 C791 0.961 . S
H806 C791 0.961 . S
H807 C791 0.961 . S
H808 C792 0.931 . S
H809 C797 0.930 . S
H810 C798 0.956 . S
H811 C798 0.961 . S
H812 C798 0.961 . S
H813 C799 0.958 . S
H814 C799 0.961 . S
H815 C799 0.960 . S
C816 C817 1.391 . S
C816 C818 1.394 . S
C816 H832 0.931 . S
C817 C816 1.391 . S
C817 C821 1.376 1_655 S
C818 C816 1.394 . S
C818 C819 1.369 . S
C818 C822 1.531 . S
C819 C818 1.369 . S
C819 C820 1.410 1_655 S
C819 C827 1.509 . S
C820 C819 1.410 1_455 S
C820 C821 1.392 . S
C820 C823 1.511 . S
C821 C817 1.376 1_455 S
C821 C820 1.392 . S
C821 H833 0.929 . S
C822 C818 1.531 . S
C822 H834 0.960 . S
C822 H835 0.962 . S
C822 H836 0.960 . S
C823 C820 1.511 . S
C823 H837 0.961 . S
C823 H838 0.961 . S
C823 H839 0.961 . S
C824 C825 1.370 1_556 S
C824 C826 1.363 1_456 S
C824 H840 0.931 . S
C825 C824 1.370 1_554 S
C825 C829 1.408 . S
C826 C824 1.363 1_654 S
C826 C827 1.373 . S
C826 C830 1.524 1_554 S
C827 C819 1.509 . S
C827 C826 1.373 . S
C827 C828 1.395 1_655 S
C828 C827 1.395 1_455 S
C828 C829 1.404 . S
C828 C831 1.539 . S
C829 C825 1.408 . S
C829 C828 1.404 . S
C829 H841 0.930 . S
C830 C826 1.524 1_556 S
C830 H842 0.956 . S
C830 H843 0.961 . S
C830 H844 0.961 . S
C831 C828 1.539 . S
C831 H845 0.958 1_455 S
C831 H846 0.961 . S
C831 H847 0.960 . S
H832 C816 0.931 . S
H833 C821 0.929 . S
H834 C822 0.960 . S
H835 C822 0.962 . S
H836 C822 0.960 . S
H837 C823 0.961 . S
H838 C823 0.961 . S
H839 C823 0.961 . S
H840 C824 0.931 . S
H841 C829 0.930 . S
H842 C830 0.956 . S
H843 C830 0.961 . S
H844 C830 0.961 . S
H845 C831 0.958 1_655 S
H846 C831 0.961 . S
H847 C831 0.960 . S
C848 C849 1.391 . S
C848 C850 1.394 . S
C848 H864 0.920 1_565 S
C849 C848 1.391 . S
C849 C853 1.376 . S
C850 C848 1.394 . S
C850 C851 1.369 . S
C850 C854 1.531 1_565 S
C851 C850 1.369 . S
C851 C852 1.410 . S
C851 C859 1.503 . S
C852 C851 1.410 . S
C852 C853 1.392 . S
C852 C855 1.511 . S
C853 C849 1.376 . S
C853 C852 1.392 . S
C853 H865 0.929 . S
C854 C850 1.531 1_545 S
C854 H866 0.960 1_554 S
C854 H867 0.962 . S
C854 H868 0.960 . S
C855 C852 1.511 . S
C855 H869 0.961 . S
C855 H870 0.961 . S
C855 H871 0.961 . S
C856 C857 1.370 . S
C856 C858 1.363 . S
C856 H872 0.931 . S
C857 C856 1.370 . S
C857 C861 1.408 1_544 S
C858 C856 1.363 . S
C858 C859 1.370 1_545 S
C858 C862 1.524 . S
C859 C851 1.503 . S
C859 C858 1.370 1_565 S
C859 C860 1.403 . S
C860 C859 1.403 . S
C860 C861 1.404 1_554 S
C860 C863 1.539 1_554 S
C861 C857 1.408 1_566 S
C861 C860 1.404 1_556 S
C861 H873 0.930 . S
C862 C858 1.524 . S
C862 H874 0.956 . S
C862 H875 0.961 . S
C862 H876 0.961 . S
C863 C860 1.539 1_556 S
C863 H877 0.958 . S
C863 H878 0.961 . S
C863 H879 0.960 1_556 S
H864 C848 0.920 1_545 S
H865 C853 0.929 . S
H866 C854 0.960 1_556 S
H867 C854 0.962 . S
H868 C854 0.960 . S
H869 C855 0.961 . S
H870 C855 0.961 . S
H871 C855 0.961 . S
H872 C856 0.931 . S
H873 C861 0.930 . S
H874 C862 0.956 . S
H875 C862 0.961 . S
H876 C862 0.961 . S
H877 C863 0.958 . S
H878 C863 0.961 . S
H879 C863 0.960 1_554 S
C880 C881 1.391 . S
C880 C882 1.394 . S
C880 H896 0.931 . S
C881 C880 1.391 . S
C881 C885 1.376 . S
C882 C880 1.394 . S
C882 C883 1.369 . S
C882 C886 1.531 . S
C883 C882 1.369 . S
C883 C884 1.410 . S
C883 C891 1.503 . S
C884 C883 1.410 . S
C884 C885 1.392 . S
C884 C887 1.511 . S
C885 C881 1.376 . S
C885 C884 1.392 . S
C885 H897 0.929 . S
C886 C882 1.531 . S
C886 H898 0.960 . S
C886 H899 0.962 . S
C886 H900 0.960 . S
C887 C884 1.511 . S
C887 H901 0.961 . S
C887 H902 0.961 . S
C887 H903 0.961 . S
C888 C889 1.370 . S
C888 C890 1.363 . S
C888 H904 0.931 . S
C889 C888 1.370 . S
C889 C893 1.408 1_554 S
C890 C888 1.363 . S
C890 C891 1.370 . S
C890 C894 1.524 . S
C891 C883 1.503 . S
C891 C890 1.370 . S
C891 C892 1.403 1_554 S
C892 C891 1.403 1_556 S
C892 C893 1.404 . S
C892 C895 1.539 . S
C893 C889 1.408 1_556 S
C893 C892 1.404 . S
C893 H905 0.930 . S
C894 C890 1.524 . S
C894 H906 0.956 . S
C894 H907 0.961 . S
C894 H908 0.961 . S
C895 C892 1.539 . S
C895 H909 0.958 . S
C895 H910 0.961 . S
C895 H911 0.960 . S
H896 C880 0.931 . S
H897 C885 0.929 . S
H898 C886 0.960 . S
H899 C886 0.962 . S
H900 C886 0.960 . S
H901 C887 0.961 . S
H902 C887 0.961 . S
H903 C887 0.961 . S
H904 C888 0.931 . S
H905 C893 0.930 . S
H906 C894 0.956 . S
H907 C894 0.961 . S
H908 C894 0.961 . S
H909 C895 0.958 . S
H910 C895 0.961 . S
H911 C895 0.960 . S
C912 C913 1.391 . S
C912 C914 1.394 . S
C912 H928 0.931 . S
C913 C912 1.391 . S
C913 C917 1.376 . S
C914 C912 1.394 . S
C914 C915 1.369 . S
C914 C918 1.531 . S
C915 C914 1.369 . S
C915 C916 1.410 . S
C915 C923 1.503 . S
C916 C915 1.410 . S
C916 C917 1.392 . S
C916 C919 1.511 . S
C917 C913 1.376 . S
C917 C916 1.392 . S
C917 H929 0.929 . S
C918 C914 1.531 . S
C918 H930 0.960 . S
C918 H931 0.962 . S
C918 H932 0.960 . S
C919 C916 1.511 . S
C919 H933 0.961 . S
C919 H934 0.961 . S
C919 H935 0.961 . S
C920 C921 1.370 1_556 S
C920 C922 1.363 1_556 S
C920 H936 0.931 . S
C921 C920 1.370 1_554 S
C921 C925 1.408 . S
C922 C920 1.363 1_554 S
C922 C923 1.370 . S
C922 C926 1.524 1_554 S
C923 C915 1.503 . S
C923 C922 1.370 . S
C923 C924 1.403 . S
C924 C923 1.403 . S
C924 C925 1.404 . S
C924 C927 1.539 . S
C925 C921 1.408 . S
C925 C924 1.404 . S
C925 H937 0.930 . S
C926 C922 1.524 1_556 S
C926 H938 0.956 . S
C926 H939 0.961 1_556 S
C926 H940 0.961 . S
C927 C924 1.539 . S
C927 H941 0.958 . S
C927 H942 0.961 . S
C927 H943 0.960 . S
H928 C912 0.931 . S
H929 C917 0.929 . S
H930 C918 0.960 . S
H931 C918 0.962 . S
H932 C918 0.960 . S
H933 C919 0.961 . S
H934 C919 0.961 . S
H935 C919 0.961 . S
H936 C920 0.931 . S
H937 C925 0.930 . S
H938 C926 0.956 . S
H939 C926 0.961 1_554 S
H940 C926 0.961 . S
H941 C927 0.958 . S
H942 C927 0.961 . S
H943 C927 0.960 . S
C944 C945 1.391 . S
C944 C946 1.394 . S
C944 H960 0.931 . S
C945 C944 1.391 . S
C945 C949 1.376 . S
C946 C944 1.394 . S
C946 C947 1.369 . S
C946 C950 1.531 1_455 S
C947 C946 1.369 . S
C947 C948 1.410 . S
C947 C955 1.503 . S
C948 C947 1.410 . S
C948 C949 1.392 . S
C948 C951 1.511 . S
C949 C945 1.376 . S
C949 C948 1.392 . S
C949 H961 0.929 . S
C950 C946 1.531 1_655 S
C950 H962 0.960 . S
C950 H963 0.962 . S
C950 H964 0.960 . S
C951 C948 1.511 . S
C951 H965 0.961 . S
C951 H966 0.961 . S
C951 H967 0.961 . S
C952 C953 1.370 . S
C952 C954 1.363 . S
C952 H968 0.931 . S
C953 C952 1.370 . S
C953 C957 1.408 . S
C954 C952 1.363 . S
C954 C955 1.370 . S
C954 C958 1.524 . S
C955 C947 1.503 . S
C955 C954 1.370 . S
C955 C956 1.403 . S
C956 C955 1.403 . S
C956 C957 1.404 . S
C956 C959 1.539 . S
C957 C953 1.408 . S
C957 C956 1.404 . S
C957 H969 0.930 . S
C958 C954 1.524 . S
C958 H970 0.956 1_455 S
C958 H971 0.961 . S
C958 H972 0.961 . S
C959 C956 1.539 . S
C959 H973 0.958 . S
C959 H974 0.961 . S
C959 H975 0.960 . S
H960 C944 0.931 . S
H961 C949 0.929 . S
H962 C950 0.960 . S
H963 C950 0.962 . S
H964 C950 0.960 . S
H965 C951 0.961 . S
H966 C951 0.961 . S
H967 C951 0.961 . S
H968 C952 0.931 . S
H969 C957 0.930 . S
H970 C958 0.956 1_655 S
H971 C958 0.961 . S
H972 C958 0.961 . S
H973 C959 0.958 . S
H974 C959 0.961 . S
H975 C959 0.960 . S
C976 C977 1.391 . S
C976 C978 1.394 . S
C976 H992 0.931 1_556 S
C977 C976 1.391 . S
C977 C981 1.376 . S
C978 C976 1.394 . S
C978 C979 1.369 . S
C978 C982 1.531 . S
C979 C978 1.369 . S
C979 C980 1.410 . S
C979 C987 1.503 . S
C980 C979 1.410 . S
C980 C981 1.392 . S
C980 C983 1.511 . S
C981 C977 1.376 . S
C981 C980 1.392 . S
C981 H993 0.929 . S
C982 C978 1.531 . S
C982 H994 0.960 . S
C982 H995 0.962 1_556 S
C982 H996 0.960 1_556 S
C983 C980 1.511 . S
C983 H997 0.961 . S
C983 H998 0.961 . S
C983 H999 0.961 . S
C984 C985 1.370 . S
C984 C986 1.363 . S
C984 H1000 0.931 . S
C985 C984 1.370 . S
C985 C989 1.444 . S
C986 C984 1.363 . S
C986 C987 1.370 . S
C986 C990 1.524 . S
C987 C979 1.503 . S
C987 C986 1.370 . S
C987 C988 1.403 . S
C988 C987 1.403 . S
C988 C989 1.406 . S
C988 C991 1.539 1_545 S
C989 C985 1.444 . S
C989 C988 1.406 . S
C989 H1001 0.894 1_545 S
C990 C986 1.524 . S
C990 H1002 0.956 . S
C990 H1003 0.961 . S
C990 H1004 0.961 . S
C991 C988 1.539 1_565 S
C991 H1005 0.958 . S
C991 H1006 0.961 . S
C991 H1007 0.960 . S
H992 C976 0.931 1_554 S
H993 C981 0.929 . S
H994 C982 0.960 . S
H995 C982 0.962 1_554 S
H996 C982 0.960 1_554 S
H997 C983 0.961 . S
H998 C983 0.961 . S
H999 C983 0.961 . S
H1000 C984 0.931 . S
H1001 C989 0.894 1_565 S
H1002 C990 0.956 . S
H1003 C990 0.961 . S
H1004 C990 0.961 . S
H1005 C991 0.958 . S
H1006 C991 0.961 . S
H1007 C991 0.960 . S
C1008 C1009 1.391 . S
C1008 C1010 1.394 . S
C1008 H1024 0.931 . S
C1009 C1008 1.391 . S
C1009 C1013 1.376 . S
C1010 C1008 1.394 . S
C1010 C1011 1.369 . S
C1010 C1014 1.531 . S
C1011 C1010 1.369 . S
C1011 C1012 1.410 . S
C1011 C1019 1.503 . S
C1012 C1011 1.410 . S
C1012 C1013 1.392 . S
C1012 C1015 1.511 . S
C1013 C1009 1.376 . S
C1013 C1012 1.392 . S
C1013 H1025 0.929 . S
C1014 C1010 1.531 . S
C1014 H1026 0.960 . S
C1014 H1027 0.962 . S
C1014 H1028 0.960 1_556 S
C1015 C1012 1.511 . S
C1015 H1029 0.961 . S
C1015 H1030 0.961 . S
C1015 H1031 0.961 . S
C1016 C1017 1.370 . S
C1016 C1018 1.363 . S
C1016 H1032 0.931 . S
C1017 C1016 1.370 . S
C1017 C1021 1.408 . S
C1018 C1016 1.363 . S
C1018 C1019 1.370 . S
C1018 C1022 1.524 . S
C1019 C1011 1.503 . S
C1019 C1018 1.370 . S
C1019 C1020 1.403 . S
C1020 C1019 1.403 . S
C1020 C1021 1.404 . S
C1020 C1023 1.539 . S
C1021 C1017 1.408 . S
C1021 C1020 1.404 . S
C1021 H1033 0.930 . S
C1022 C1018 1.524 . S
C1022 H1034 0.956 . S
C1022 H1035 0.961 . S
C1022 H1036 0.961 . S
C1023 C1020 1.539 . S
C1023 H1037 0.958 . S
C1023 H1038 0.961 . S
C1023 H1039 0.960 . S
H1024 C1008 0.931 . S
H1025 C1013 0.929 . S
H1026 C1014 0.960 . S
H1027 C1014 0.962 . S
H1028 C1014 0.960 1_554 S
H1029 C1015 0.961 . S
H1030 C1015 0.961 . S
H1031 C1015 0.961 . S
H1032 C1016 0.931 . S
H1033 C1021 0.930 . S
H1034 C1022 0.956 . S
H1035 C1022 0.961 . S
H1036 C1022 0.961 . S
H1037 C1023 0.958 . S
H1038 C1023 0.961 . S
H1039 C1023 0.960 . S
C1040 C1041 1.391 . S
C1040 C1042 1.394 . S
C1040 H1056 0.922 1_556 S
C1041 C1040 1.391 . S
C1041 C1045 1.376 . S
C1042 C1040 1.394 . S
C1042 C1043 1.369 . S
C1042 C1046 1.531 . S
C1043 C1042 1.369 . S
C1043 C1044 1.410 . S
C1043 C1051 1.503 . S
C1044 C1043 1.410 . S
C1044 C1045 1.392 . S
C1044 C1047 1.511 . S
C1045 C1041 1.376 . S
C1045 C1044 1.392 . S
C1045 H1057 0.929 . S
C1046 C1042 1.531 . S
C1046 H1058 0.960 . S
C1046 H1059 0.962 1_556 S
C1046 H1060 0.960 1_556 S
C1047 C1044 1.511 . S
C1047 H1061 0.961 . S
C1047 H1062 0.961 . S
C1047 H1063 0.961 . S
C1048 C1049 1.370 . S
C1048 C1050 1.363 . S
C1048 H1064 0.931 . S
C1049 C1048 1.370 . S
C1049 C1053 1.408 . S
C1050 C1048 1.363 . S
C1050 C1051 1.370 . S
C1050 C1054 1.524 . S
C1051 C1043 1.503 . S
C1051 C1050 1.370 . S
C1051 C1052 1.403 . S
C1052 C1051 1.403 . S
C1052 C1053 1.404 . S
C1052 C1055 1.539 . S
C1053 C1049 1.408 . S
C1053 C1052 1.404 . S
C1053 H1065 0.930 . S
C1054 C1050 1.524 . S
C1054 H1066 0.956 . S
C1054 H1067 0.961 . S
C1054 H1068 0.961 . S
C1055 C1052 1.539 . S
C1055 H1069 0.958 . S
C1055 H1070 0.961 . S
C1055 H1071 0.960 . S
H1056 C1040 0.922 1_554 S
H1057 C1045 0.929 . S
H1058 C1046 0.960 . S
H1059 C1046 0.962 1_554 S
H1060 C1046 0.960 1_554 S
H1061 C1047 0.961 . S
H1062 C1047 0.961 . S
H1063 C1047 0.961 . S
H1064 C1048 0.931 . S
H1065 C1053 0.930 . S
H1066 C1054 0.956 . S
H1067 C1054 0.961 . S
H1068 C1054 0.961 . S
H1069 C1055 0.958 . S
H1070 C1055 0.961 . S
H1071 C1055 0.960 . S
C1072 C1073 1.391 1_455 S
C1072 C1074 1.394 . S
C1072 H1088 0.931 . S
C1073 C1072 1.391 1_655 S
C1073 C1077 1.376 . S
C1074 C1072 1.394 . S
C1074 C1075 1.369 1_455 S
C1074 C1078 1.531 . S
C1075 C1074 1.369 1_655 S
C1075 C1076 1.410 . S
C1075 C1083 1.503 . S
C1076 C1075 1.410 . S
C1076 C1077 1.392 . S
C1076 C1079 1.511 . S
C1077 C1073 1.376 . S
C1077 C1076 1.392 . S
C1077 H1089 0.929 . S
C1078 C1074 1.531 . S
C1078 H1090 0.960 . S
C1078 H1091 0.962 . S
C1078 H1092 0.960 . S
C1079 C1076 1.511 . S
C1079 H1093 0.961 . S
C1079 H1094 0.961 . S
C1079 H1095 0.961 . S
C1080 C1081 1.370 1_455 S
C1080 C1082 1.363 1_455 S
C1080 H1096 0.931 . S
C1081 C1080 1.370 1_655 S
C1081 C1085 1.408 . S
C1082 C1080 1.363 1_655 S
C1082 C1083 1.372 . S
C1082 C1086 1.523 1_655 S
C1083 C1075 1.503 . S
C1083 C1082 1.372 . S
C1083 C1084 1.403 . S
C1084 C1083 1.403 . S
C1084 C1085 1.404 . S
C1084 C1087 1.539 . S
C1085 C1081 1.408 . S
C1085 C1084 1.404 . S
C1085 H1097 0.930 . S
C1086 C1082 1.523 1_455 S
C1086 H1098 0.956 . S
C1086 H1099 0.961 1_455 S
C1086 H1100 0.961 . S
C1087 C1084 1.539 . S
C1087 H1101 0.958 . S
C1087 H1102 0.961 . S
C1087 H1103 0.960 . S
H1088 C1072 0.931 . S
H1089 C1077 0.929 . S
H1090 C1078 0.960 . S
H1091 C1078 0.962 . S
H1092 C1078 0.960 . S
H1093 C1079 0.961 . S
H1094 C1079 0.961 . S
H1095 C1079 0.961 . S
H1096 C1080 0.931 . S
H1097 C1085 0.930 . S
H1098 C1086 0.956 . S
H1099 C1086 0.961 1_655 S
H1100 C1086 0.961 . S
H1101 C1087 0.958 . S
H1102 C1087 0.961 . S
H1103 C1087 0.960 . S
C1104 C1105 1.391 . S
C1104 C1106 1.394 . S
C1104 H1120 0.931 . S
C1105 C1104 1.391 . S
C1105 C1109 1.376 . S
C1106 C1104 1.394 . S
C1106 C1107 1.369 . S
C1106 C1110 1.531 . S
C1107 C1106 1.369 . S
C1107 C1108 1.410 . S
C1107 C1115 1.503 . S
C1108 C1107 1.410 . S
C1108 C1109 1.392 . S
C1108 C1111 1.511 . S
C1109 C1105 1.376 . S
C1109 C1108 1.392 . S
C1109 H1121 0.929 . S
C1110 C1106 1.531 . S
C1110 H1122 0.960 . S
C1110 H1123 0.962 . S
C1110 H1124 0.960 . S
C1111 C1108 1.511 . S
C1111 H1125 0.961 1_565 S
C1111 H1126 0.961 1_565 S
C1111 H1127 0.961 . S
C1112 C1113 1.370 1_545 S
C1112 C1114 1.363 . S
C1112 H1128 0.931 . S
C1113 C1112 1.370 1_565 S
C1113 C1117 1.408 . S
C1114 C1112 1.363 . S
C1114 C1115 1.370 1_545 S
C1114 C1118 1.524 . S
C1115 C1107 1.503 . S
C1115 C1114 1.370 1_565 S
C1115 C1116 1.403 . S
C1116 C1115 1.403 . S
C1116 C1117 1.404 . S
C1116 C1119 1.539 . S
C1117 C1113 1.408 . S
C1117 C1116 1.404 . S
C1117 H1129 0.930 . S
C1118 C1114 1.524 . S
C1118 H1130 0.956 . S
C1118 H1131 0.961 . S
C1118 H1132 0.961 . S
C1119 C1116 1.539 . S
C1119 H1133 0.958 . S
C1119 H1134 0.961 . S
C1119 H1135 0.960 . S
H1120 C1104 0.931 . S
H1121 C1109 0.929 . S
H1122 C1110 0.960 . S
H1123 C1110 0.962 . S
H1124 C1110 0.960 . S
H1125 C1111 0.961 1_545 S
H1126 C1111 0.961 1_545 S
H1127 C1111 0.961 . S
H1128 C1112 0.931 . S
H1129 C1117 0.930 . S
H1130 C1118 0.956 . S
H1131 C1118 0.961 . S
H1132 C1118 0.961 . S
H1133 C1119 0.958 . S
H1134 C1119 0.961 . S
H1135 C1119 0.960 . S
C1136 C1137 1.391 . S
C1136 C1138 1.394 . S
C1136 H1152 0.931 . S
C1137 C1136 1.391 . S
C1137 C1141 1.376 . S
C1138 C1136 1.394 . S
C1138 C1139 1.369 . S
C1138 C1142 1.531 . S
C1139 C1138 1.369 . S
C1139 C1140 1.410 . S
C1139 C1147 1.503 . S
C1140 C1139 1.410 . S
C1140 C1141 1.392 . S
C1140 C1143 1.511 . S
C1141 C1137 1.376 . S
C1141 C1140 1.392 . S
C1141 H1153 0.929 . S
C1142 C1138 1.531 . S
C1142 H1154 0.960 . S
C1142 H1155 0.962 . S
C1142 H1156 0.960 . S
C1143 C1140 1.511 . S
C1143 H1157 0.961 . S
C1143 H1158 0.961 . S
C1143 H1159 0.961 . S
C1144 C1145 1.370 . S
C1144 C1146 1.363 . S
C1144 H1160 0.931 . S
C1145 C1144 1.370 . S
C1145 C1149 1.408 . S
C1146 C1144 1.363 . S
C1146 C1147 1.370 . S
C1146 C1150 1.524 . S
C1147 C1139 1.503 . S
C1147 C1146 1.370 . S
C1147 C1148 1.403 . S
C1148 C1147 1.403 . S
C1148 C1149 1.404 . S
C1148 C1151 1.539 . S
C1149 C1145 1.408 . S
C1149 C1148 1.404 . S
C1149 H1161 0.930 . S
C1150 C1146 1.524 . S
C1150 H1162 0.956 . S
C1150 H1163 0.961 . S
C1150 H1164 0.961 . S
C1151 C1148 1.539 . S
C1151 H1165 0.958 . S
C1151 H1166 0.961 . S
C1151 H1167 0.960 . S
H1152 C1136 0.931 . S
H1153 C1141 0.929 . S
H1154 C1142 0.960 . S
H1155 C1142 0.962 . S
H1156 C1142 0.960 . S
H1157 C1143 0.961 . S
H1158 C1143 0.961 . S
H1159 C1143 0.961 . S
H1160 C1144 0.931 . S
H1161 C1149 0.930 . S
H1162 C1150 0.956 . S
H1163 C1150 0.961 . S
H1164 C1150 0.961 . S
H1165 C1151 0.958 . S
H1166 C1151 0.961 . S
H1167 C1151 0.960 . S
C1168 C1169 1.391 . S
C1168 C1170 1.394 . S
C1168 H1184 0.931 . S
C1169 C1168 1.391 . S
C1169 C1173 1.376 . S
C1170 C1168 1.394 . S
C1170 C1171 1.369 . S
C1170 C1174 1.531 . S
C1171 C1170 1.369 . S
C1171 C1172 1.410 . S
C1171 C1179 1.503 . S
C1172 C1171 1.410 . S
C1172 C1173 1.392 . S
C1172 C1175 1.511 . S
C1173 C1169 1.376 . S
C1173 C1172 1.392 . S
C1173 H1185 0.929 . S
C1174 C1170 1.531 . S
C1174 H1186 0.960 . S
C1174 H1187 0.962 . S
C1174 H1188 0.960 . S
C1175 C1172 1.511 . S
C1175 H1189 0.961 . S
C1175 H1190 0.961 . S
C1175 H1191 0.961 . S
C1176 C1177 1.370 . S
C1176 C1178 1.363 . S
C1176 H1192 0.931 . S
C1177 C1176 1.370 . S
C1177 C1181 1.408 . S
C1178 C1176 1.363 . S
C1178 C1179 1.370 . S
C1178 C1182 1.524 . S
C1179 C1171 1.503 . S
C1179 C1178 1.370 . S
C1179 C1180 1.403 . S
C1180 C1179 1.403 . S
C1180 C1181 1.404 . S
C1180 C1183 1.539 . S
C1181 C1177 1.408 . S
C1181 C1180 1.404 . S
C1181 H1193 0.930 . S
C1182 C1178 1.524 . S
C1182 H1194 0.956 . S
C1182 H1195 0.961 . S
C1182 H1196 0.961 . S
C1183 C1180 1.539 . S
C1183 H1197 0.958 . S
C1183 H1198 0.961 . S
C1183 H1199 0.960 . S
H1184 C1168 0.931 . S
H1185 C1173 0.929 . S
H1186 C1174 0.960 . S
H1187 C1174 0.962 . S
H1188 C1174 0.960 . S
H1189 C1175 0.961 . S
H1190 C1175 0.961 . S
H1191 C1175 0.961 . S
H1192 C1176 0.931 . S
H1193 C1181 0.930 . S
H1194 C1182 0.956 . S
H1195 C1182 0.961 . S
H1196 C1182 0.961 . S
H1197 C1183 0.958 . S
H1198 C1183 0.961 . S
H1199 C1183 0.960 . S
C433 C76 1.875 . S
C441 C159 2.030 . S
C473 C236 2.038 . S
C465 C88 1.837 . S
C505 C327 2.014 . S
C497 C52 1.865 . S
C537 C411 2.005 . S
C529 C64 1.864 . S
C569 C170 2.028 1_565 S
C561 C28 1.859 . S
C593 C40 1.914 . S
C601 C247 2.031 . S
C625 C4 1.889 . S
C633 C338 2.013 . S
C657 C16 1.887 . S
C665 C422 2.015 1_655 S
C697 C154 0.645 1_455 S
C689 C69 0.557 . S
C729 C249 0.603 . S
C721 C81 0.576 . S
C761 C322 0.573 . S
C753 C93 0.572 . S
C785 C57 0.505 . S
C793 C406 0.605 . S
C817 C21 0.526 . S
C825 C165 0.612 1_554 S
C857 C238 0.626 . S
C849 C33 0.633 . S
C889 C333 0.610 1_554 S
C881 C45 0.644 . S
C913 C9 0.539 . S
C921 C417 0.620 1_554 S
C945 C66 1.964 . S
C953 C163 2.114 . S
C977 C78 1.942 . S
C985 C254 2.134 . S
C1017 C331 2.136 . S
C1009 C90 1.920 . S
C1049 C415 2.138 . S
C1041 C54 1.959 . S
C1073 C18 1.895 . S
C1081 C152 2.122 . S
C1113 C243 2.139 1_565 S
C1105 C30 1.948 . S
C1145 C320 2.135 . S
C1137 C42 1.918 . S
C1169 C6 1.913 . S
C1177 C404 2.143 . S
