# Generated by pormake.
# Topology pyr, (3,6)-cn, num edge types: 1
# Building blocks:
#     Node 0, Type 0, BuildingBlock: INOVEN_clean_linker_0, # of connection points: 3
#     Node 1, Type 0, BuildingBlock: INOVEN_clean_linker_0, # of connection points: 3
#     Node 2, Type 0, BuildingBlock: INOVEN_clean_linker_0, # of connection points: 3
#     Node 3, Type 0, BuildingBlock: INOVEN_clean_linker_0, # of connection points: 3
#     Node 4, Type 0, BuildingBlock: INOVEN_clean_linker_0, # of connection points: 3
#     Node 5, Type 0, BuildingBlock: INOVEN_clean_linker_0, # of connection points: 3
#     Node 6, Type 0, BuildingBlock: INOVEN_clean_linker_0, # of connection points: 3
#     Node 7, Type 0, BuildingBlock: INOVEN_clean_linker_0, # of connection points: 3
#     Node 8, Type 1, BuildingBlock: MIDCAF_clean_sbu_0, # of connection points: 6
#     Node 9, Type 1, BuildingBlock: MIDCAF_clean_sbu_0, # of connection points: 6
#     Node 10, Type 1, BuildingBlock: MIDCAF_clean_sbu_0, # of connection points: 6
#     Node 11, Type 1, BuildingBlock: MIDCAF_clean_sbu_0, # of connection points: 6
#     Edge 12, Type (0, 1), BuildingBlock: CIFDUS_clean_linker_0, # of connection points: 2
#     Edge 13, Type (0, 1), BuildingBlock: CIFDUS_clean_linker_0, # of connection points: 2
#     Edge 14, Type (0, 1), BuildingBlock: CIFDUS_clean_linker_0, # of connection points: 2
#     Edge 15, Type (0, 1), BuildingBlock: CIFDUS_clean_linker_0, # of connection points: 2
#     Edge 16, Type (0, 1), BuildingBlock: CIFDUS_clean_linker_0, # of connection points: 2
#     Edge 17, Type (0, 1), BuildingBlock: CIFDUS_clean_linker_0, # of connection points: 2
#     Edge 18, Type (0, 1), BuildingBlock: CIFDUS_clean_linker_0, # of connection points: 2
#     Edge 19, Type (0, 1), BuildingBlock: CIFDUS_clean_linker_0, # of connection points: 2
#     Edge 20, Type (0, 1), BuildingBlock: CIFDUS_clean_linker_0, # of connection points: 2
#     Edge 21, Type (0, 1), BuildingBlock: CIFDUS_clean_linker_0, # of connection points: 2
#     Edge 22, Type (0, 1), BuildingBlock: CIFDUS_clean_linker_0, # of connection points: 2
#     Edge 23, Type (0, 1), BuildingBlock: CIFDUS_clean_linker_0, # of connection points: 2
#     Edge 24, Type (0, 1), BuildingBlock: CIFDUS_clean_linker_0, # of connection points: 2
#     Edge 25, Type (0, 1), BuildingBlock: CIFDUS_clean_linker_0, # of connection points: 2
#     Edge 26, Type (0, 1), BuildingBlock: CIFDUS_clean_linker_0, # of connection points: 2
#     Edge 27, Type (0, 1), BuildingBlock: CIFDUS_clean_linker_0, # of connection points: 2
#     Edge 28, Type (0, 1), BuildingBlock: CIFDUS_clean_linker_0, # of connection points: 2
#     Edge 29, Type (0, 1), BuildingBlock: CIFDUS_clean_linker_0, # of connection points: 2
#     Edge 30, Type (0, 1), BuildingBlock: CIFDUS_clean_linker_0, # of connection points: 2
#     Edge 31, Type (0, 1), BuildingBlock: CIFDUS_clean_linker_0, # of connection points: 2
#     Edge 32, Type (0, 1), BuildingBlock: CIFDUS_clean_linker_0, # of connection points: 2
#     Edge 33, Type (0, 1), BuildingBlock: CIFDUS_clean_linker_0, # of connection points: 2
#     Edge 34, Type (0, 1), BuildingBlock: CIFDUS_clean_linker_0, # of connection points: 2
#     Edge 35, Type (0, 1), BuildingBlock: CIFDUS_clean_linker_0, # of connection points: 2
# Relax obj value: 0.083
# Max RMSD: 0.176
# Mean RMSD: 0.131
data_MOF--net-pry--node1-MIDCAF_clean_sbu_0--node2-INOVEN_clean_linker_0--edge1-CIFDUS_clean_linker_0
_symmetry_space_group_name_H-M    P1
_symmetry_Int_Tables_number       1
_symmetry_cell_setting            triclinic
loop_
_symmetry_equiv_pos_as_xyz
'x, y, z'
_cell_length_a     29.98007
_cell_length_b     30.528133
_cell_length_c     31.642365
_cell_angle_alpha  90.502094
_cell_angle_beta   90.413462
_cell_angle_gamma 95.786873
loop_
_atom_site_label
_atom_site_type_symbol
_atom_site_fract_x
_atom_site_fract_y
_atom_site_fract_z
_atom_type_partial_charge
H0 H 0.18596 0.27869 0.29963 0.0
H1 H 0.28889 0.18975 0.30627 0.0
H2 H 0.28227 0.27811 0.20128 0.0
N3 N 0.2126 0.31856 0.23111 0.0
N4 N 0.22413 0.33502 0.19636 0.0
C5 C 0.21576 0.2659 0.28746 0.0
C6 C 0.23454 0.23137 0.3081 0.0
C7 C 0.23351 0.28352 0.24986 0.0
C8 C 0.27029 0.26565 0.23147 0.0
C9 C 0.29068 0.23128 0.25129 0.0
C10 C 0.27279 0.21501 0.29004 0.0
H11 H 0.31557 0.78104 0.7099 0.0
H12 H 0.38622 0.78056 0.82908 0.0
H13 H 0.28709 0.87122 0.80682 0.0
N14 N 0.26263 0.8389 0.72936 0.0
N15 N 0.23992 0.86997 0.73745 0.0
C16 C 0.32153 0.79262 0.74207 0.0
C17 C 0.35467 0.77615 0.76734 0.0
C18 C 0.29636 0.82547 0.75668 0.0
C19 C 0.30528 0.84411 0.79691 0.0
C20 C 0.33829 0.82868 0.8235 0.0
C21 C 0.36205 0.79389 0.80857 0.0
H22 H 0.67476 0.27432 0.8107 0.0
H23 H 0.73697 0.28504 0.93442 0.0
H24 H 0.78408 0.37288 0.83614 0.0
N25 N 0.7221 0.34818 0.78111 0.0
N26 N 0.6861 0.34297 0.7609 0.0
C27 C 0.7001 0.28917 0.83238 0.0
C28 C 0.70321 0.27312 0.87394 0.0
C29 C 0.72923 0.32542 0.81901 0.0
C30 C 0.76268 0.3442 0.84631 0.0
C31 C 0.76528 0.32982 0.88796 0.0
C32 C 0.73561 0.29453 0.90158 0.0
H33 H 0.71372 0.73117 0.29472 0.0
H34 H 0.73715 0.83259 0.38981 0.0
H35 H 0.82919 0.82494 0.28688 0.0
N36 N 0.78553 0.75282 0.25056 0.0
N37 N 0.82127 0.76323 0.23141 0.0
C38 C 0.73319 0.76019 0.30744 0.0
C39 C 0.72097 0.77912 0.34579 0.0
C40 C 0.7718 0.77685 0.28602 0.0
C41 C 0.79812 0.81388 0.30241 0.0
C42 C 0.78578 0.83489 0.33981 0.0
C43 C 0.74665 0.81742 0.36074 0.0
H44 H 0.90109 0.99035 0.87716 0.0
H45 H 0.99903 0.89675 0.8744 0.0
H46 H 0.90385 0.89579 0.97632 0.0
N47 N 0.86251 0.96486 0.9477 0.0
N48 N 0.85647 0.96354 0.98662 0.0
C49 C 0.91569 0.96259 0.89084 0.0
C50 C 0.95272 0.94615 0.87161 0.0
C51 C 0.89822 0.94496 0.92848 0.0
C52 C 0.91707 0.90913 0.94683 0.0
C53 C 0.9533 0.89099 0.92744 0.0
C54 C 0.97081 0.90977 0.88954 0.0
H55 H 0.55275 0.13998 0.41979 0.0
H56 H 0.65888 0.05489 0.41288 0.0
H57 H 0.66009 0.1543 0.51049 0.0
N58 N 0.58327 0.18595 0.48549 0.0
N59 N 0.6031 0.21341 0.51035 0.0
C60 C 0.58399 0.12957 0.43161 0.0
C61 C 0.60357 0.0953 0.41136 0.0
C62 C 0.60429 0.15099 0.46698 0.0
C63 C 0.64437 0.13748 0.48311 0.0
C64 C 0.66404 0.10221 0.46424 0.0
C65 C 0.64366 0.08162 0.42799 0.0
H66 H 0.48052 0.69032 0.15239 0.0
H67 H 0.37145 0.65968 0.06472 0.0
H68 H 0.39975 0.56584 0.15929 0.0
N69 N 0.46874 0.61706 0.19579 0.0
N70 N 0.47054 0.57855 0.20789 0.0
C71 C 0.4538 0.66724 0.1397 0.0
C72 C 0.42772 0.67927 0.10551 0.0
C73 C 0.44446 0.62629 0.15888 0.0
C74 C 0.40849 0.59697 0.14372 0.0
C75 C 0.38247 0.60881 0.10948 0.0
C76 C 0.39233 0.6499 0.09043 0.0
H77 H 0.04918 0.3996 0.63975 0.0
H78 H 0.15734 0.42135 0.55119 0.0
H79 H 0.14063 0.51703 0.64909 0.0
N80 N 0.0713 0.47435 0.68519 0.0
N81 N 0.0513 0.44806 0.71028 0.0
C82 C 0.07793 0.42004 0.62784 0.0
C83 C 0.10101 0.40613 0.59233 0.0
C84 C 0.09227 0.46012 0.64825 0.0
C85 C 0.12946 0.48633 0.63299 0.0
C86 C 0.15332 0.47246 0.5983 0.0
C87 C 0.13883 0.43239 0.57791 0.0
Zn88 Zn 0.97679 0.10243 0.59135 0.0
Zn89 Zn 0.05223 0.99215 0.50027 0.0
Zn90 Zn 0.01848 0.05433 0.54193 0.0
C91 C 0.09727 0.07479 0.47488 0.0
C92 C 0.96465 0.98413 0.47589 0.0
O93 O 0.02214 0.03297 0.61014 0.0
O94 O 0.98892 0.08106 0.64814 0.0
C95 C 0.03987 0.15796 0.54531 0.0
O96 O 0.07196 0.09141 0.5024 0.0
O97 O 0.09364 0.03364 0.46879 0.0
O98 O 0.99915 0.96476 0.46923 0.0
O99 O 0.96623 0.01745 0.5014 0.0
O100 O 0.00915 0.15753 0.57239 0.0
O101 O 0.05071 0.12164 0.52918 0.0
O102 O 0.94573 0.05057 0.52226 0.0
O103 O 0.91482 0.0902 0.57058 0.0
C104 C 0.91093 0.06661 0.53761 0.0
O105 O 0.05333 0.01183 0.58589 0.0
O106 O 0.0794 0.96018 0.54646 0.0
C107 C 0.00866 0.04657 0.64626 0.0
C108 C 0.07593 0.97815 0.58219 0.0
Zn109 Zn 0.46244 0.06693 0.03414 0.0
Zn110 Zn 0.57081 0.98532 0.12009 0.0
Zn111 Zn 0.5205 0.02461 0.07867 0.0
C112 C 0.6296 0.03305 0.07333 0.0
C113 C 0.52692 0.92071 0.0727 0.0
O114 O 0.48168 0.06328 0.12432 0.0
O115 O 0.43621 0.09677 0.08278 0.0
C116 C 0.55147 0.09688 0.00926 0.0
O117 O 0.59159 0.03952 0.05615 0.0
O118 O 0.63 0.01583 0.10933 0.0
O119 O 0.5627 0.92683 0.09389 0.0
O120 O 0.50361 0.95318 0.06572 0.0
O121 O 0.51074 0.10149 1.0017 0.0
O122 O 0.56196 0.06906 0.03711 0.0
O123 O 0.47648 0.97663 0.03954 0.0
O124 O 0.42843 0.01466 0.00592 0.0
C125 C 0.44364 0.97833 0.01319 0.0
O126 O 0.51317 0.04123 0.14776 0.0
O127 O 0.54868 0.9896 0.17744 0.0
C128 C 0.4506 0.08931 0.11935 0.0
C129 C 0.52603 0.02193 0.18128 0.0
Zn130 Zn 0.57441 0.60117 0.59435 0.0
Zn131 Zn 0.4612 0.49306 0.5062 0.0
Zn132 Zn 0.51067 0.54875 0.54879 0.0
C133 C 0.51159 0.44047 0.54671 0.0
C134 C 0.50703 0.54363 0.44671 0.0
O135 O 0.47207 0.5875 0.59288 0.0
O136 O 0.52688 0.62718 0.62747 0.0
C137 C 0.58527 0.51403 0.61315 0.0
O138 O 0.52887 0.47962 0.55698 0.0
O139 O 0.47518 0.4355 0.52629 0.0
O140 O 0.48229 0.50789 0.44931 0.0
O141 O 0.51989 0.56523 0.48058 0.0
O142 O 0.60463 0.55204 0.6207 0.0
O143 O 0.55177 0.50874 0.58724 0.0
O144 O 0.54998 0.59322 0.50509 0.0
O145 O 0.59996 0.63431 0.54427 0.0
C146 C 0.58259 0.62397 0.5086 0.0
O147 O 0.4413 0.55688 0.56923 0.0
O148 O 0.40398 0.51298 0.52236 0.0
C149 C 0.48541 0.6167 0.62127 0.0
C150 C 0.40398 0.53998 0.55272 0.0
Zn151 Zn 0.08069 0.60072 0.98633 0.0
Zn152 Zn 0.97446 0.52308 0.09619 0.0
Zn153 Zn 0.02623 0.55981 0.03811 0.0
C154 C 0.05847 0.50464 0.12038 0.0
C155 C 0.9492 0.48125 0.01941 0.0
O156 O 0.01061 0.63077 0.03177 0.0
O157 O 0.06444 0.66119 0.99101 0.0
C158 C 0.13457 0.56592 0.04487 0.0
O159 O 0.06728 0.52769 0.08682 0.0
O160 O 0.01863 0.49813 0.1332 0.0
O161 O 0.93815 0.48258 0.05776 0.0
O162 O 0.98271 0.50692 0.00571 0.0
O163 O 0.13792 0.58675 0.01063 0.0
O164 O 0.09566 0.55408 0.06047 0.0
O165 O 0.01493 0.52573 0.97569 0.0
O166 O 0.06038 0.56815 0.93482 0.0
C167 C 0.03196 0.53521 0.93915 0.0
O168 O 0.98604 0.61097 0.06572 0.0
O169 O 0.94633 0.57474 0.11535 0.0
C170 C 0.0293 0.66464 0.01192 0.0
C171 C 0.95699 0.60996 0.09572 0.0
H172 H 0.23156 0.14571 0.33403 0.0
H173 H 0.18617 0.27046 0.37026 0.0
H174 H 0.14026 0.23435 0.42562 0.0
H175 H 0.10813 0.16534 0.46066 0.0
H176 H 0.16211 0.04362 0.42778 0.0
H177 H 0.20987 0.08097 0.37557 0.0
C178 C 0.21285 0.16566 0.35452 0.0
C179 C 0.21202 0.21086 0.3466 0.0
C180 C 0.18743 0.14504 0.38728 0.0
C181 C 0.18659 0.23531 0.37397 0.0
C182 C 0.16041 0.21473 0.40616 0.0
C183 C 0.13103 0.14727 0.4428 0.0
C184 C 0.13051 0.10142 0.44809 0.0
C185 C 0.1597 0.16926 0.41258 0.0
C186 C 0.16067 0.07871 0.42424 0.0
C187 C 0.18835 0.10005 0.39414 0.0
H188 H 0.41956 0.83972 0.86583 0.0
H189 H 0.28139 0.86697 0.87768 0.0
H190 H 0.30111 0.91331 0.93915 0.0
H191 H 0.35895 0.95235 0.98545 0.0
H192 H 0.49525 0.91986 0.97779 0.0
H193 H 0.47431 0.86777 0.92022 0.0
C194 C 0.39325 0.85459 0.88228 0.0
C195 C 0.34916 0.85065 0.86559 0.0
C196 C 0.40444 0.88027 0.91879 0.0
C197 C 0.31604 0.87069 0.88808 0.0
C198 C 0.32714 0.89696 0.92377 0.0
C199 C 0.38377 0.93303 0.9718 0.0
C200 C 0.42856 0.93998 0.98583 0.0
C201 C 0.37147 0.90307 0.93865 0.0
C202 C 0.46042 0.91471 0.96797 0.0
C203 C 0.44855 0.88528 0.93465 0.0
H204 H 0.60811 0.34672 0.72327 0.0
H205 H 0.74576 0.40299 0.72272 0.0
H206 H 0.7267 0.46019 0.6743 0.0
H207 H 0.66929 0.49874 0.6379 0.0
H208 H 0.53104 0.44405 0.64103 0.0
H209 H 0.55166 0.38186 0.68219 0.0
C210 C 0.6339 0.37099 0.7116 0.0
C211 C 0.67789 0.37085 0.72662 0.0
C212 C 0.62246 0.40449 0.68468 0.0
C213 C 0.71142 0.40253 0.71176 0.0
C214 C 0.70052 0.43543 0.68425 0.0
C215 C 0.64386 0.47302 0.64747 0.0
C216 C 0.59884 0.47574 0.63632 0.0
C217 C 0.65589 0.43756 0.6716 0.0
C218 C 0.56605 0.4423 0.64881 0.0
C219 C 0.57776 0.4068 0.67247 0.0
H220 H 0.89915 0.7754 0.19167 0.0
H221 H 0.77557 0.69013 0.19679 0.0
H222 H 0.8058 0.63816 0.14869 0.0
H223 H 0.87035 0.61208 0.11351 0.0
H224 H 0.99548 0.69457 0.10886 0.0
H225 H 0.96163 0.75308 0.14734 0.0
C226 C 0.87877 0.7458 0.18141 0.0
C227 C 0.83563 0.73633 0.19822 0.0
C228 C 0.89671 0.71556 0.15403 0.0
C229 C 0.80911 0.69801 0.18477 0.0
C230 C 0.82638 0.66821 0.15725 0.0
C231 C 0.8899 0.64331 0.12015 0.0
C232 C 0.93529 0.64908 0.10885 0.0
C233 C 0.87057 0.67594 0.14295 0.0
C234 C 0.96036 0.6896 0.11719 0.0
C235 C 0.94111 0.72278 0.13953 0.0
H236 H 0.31384 0.14547 0.25371 0.0
H237 H 0.35701 0.27343 0.20225 0.0
H238 H 0.41253 0.24124 0.15974 0.0
H239 H 0.44406 0.17582 0.13141 0.0
H240 H 0.40717 0.04907 0.1865 0.0
H241 H 0.35543 0.08201 0.23449 0.0
C242 C 0.33595 0.16676 0.23409 0.0
C243 C 0.32947 0.21193 0.23046 0.0
C244 C 0.36932 0.14821 0.21036 0.0
C245 C 0.35916 0.23836 0.2046 0.0
C246 C 0.39157 0.22006 0.18047 0.0
C247 C 0.42558 0.15568 0.15479 0.0
C248 C 0.4293 0.11014 0.15546 0.0
C249 C 0.39612 0.17489 0.18218 0.0
C250 C 0.40515 0.08429 0.18571 0.0
C251 C 0.37521 0.1031 0.2128 0.0
H252 H 0.19872 0.94302 0.73933 0.0
H253 H 0.20549 0.82142 0.67044 0.0
H254 H 0.15171 0.84309 0.61859 0.0
H255 H 0.10657 0.89827 0.59005 0.0
H256 H 0.10272 0.0224 0.65537 0.0
H257 H 0.15031 0.99786 0.7117 0.0
C258 C 0.18796 0.92134 0.71308 0.0
C259 C 0.20639 0.8811 0.70851 0.0
C260 C 0.15735 0.93435 0.68281 0.0
C261 C 0.19229 0.85291 0.67446 0.0
C262 C 0.16142 0.86521 0.64479 0.0
C263 C 0.11577 0.91985 0.6168 0.0
C264 C 0.10057 0.96189 0.6187 0.0
C265 C 0.14436 0.90614 0.64823 0.0
C266 C 0.11301 0.98947 0.65354 0.0
C267 C 0.14071 0.97564 0.68556 0.0
H268 H 0.85433 0.35449 0.87999 0.0
H269 H 0.74253 0.36301 0.96367 0.0
H270 H 0.78984 0.41056 0.0119 0.0
H271 H 0.86187 0.45209 0.02862 0.0
H272 H 0.97504 0.43969 0.9489 0.0
H273 H 0.92844 0.39224 0.89966 0.0
C274 C 0.84058 0.36667 0.90893 0.0
C275 C 0.79523 0.35535 0.91846 0.0
C276 C 0.86795 0.39393 0.9365 0.0
C277 C 0.77758 0.37094 0.95607 0.0
C278 C 0.80446 0.39835 0.98343 0.0
C279 C 0.87637 0.43891 1.0005 0.0
C280 C 0.9216 0.45098 0.99088 0.0
C281 C 0.84953 0.41038 0.97373 0.0
C282 C 0.93993 0.43308 0.95493 0.0
C283 C 0.91337 0.40521 0.92754 0.0
H284 H 0.69794 0.69032 0.35369 0.0
H285 H 0.66249 0.81603 0.39943 0.0
H286 H 0.61531 0.77883 0.45318 0.0
H287 H 0.58982 0.71089 0.49162 0.0
H288 H 0.6193 0.58543 0.44169 0.0
H289 H 0.66199 0.6223 0.38404 0.0
C290 C 0.67895 0.70986 0.37432 0.0
C291 C 0.68512 0.7563 0.37283 0.0
C292 C 0.65085 0.68823 0.40459 0.0
C293 C 0.66006 0.78044 0.40055 0.0
C294 C 0.63268 0.75917 0.43123 0.0
C295 C 0.60509 0.69179 0.46763 0.0
C296 C 0.60207 0.64577 0.4708 0.0
C297 C 0.62894 0.71319 0.43437 0.0
C298 C 0.62144 0.621 0.43963 0.0
C299 C 0.6459 0.64206 0.40687 0.0
H300 H 0.16494 0.38349 0.23488 0.0
H301 H 0.23405 0.36546 0.11815 0.0
H302 H 0.19246 0.42118 0.08418 0.0
H303 H 0.13073 0.46943 0.08629 0.0
H304 H 0.06236 0.4865 0.20383 0.0
H305 H 0.10943 0.43699 0.23895 0.0
C306 C 0.17111 0.39188 0.20208 0.0
C307 C 0.20201 0.36989 0.17865 0.0
C308 C 0.1471 0.42377 0.18294 0.0
C309 C 0.21009 0.38177 0.13648 0.0
C310 C 0.18632 0.41353 0.11714 0.0
C311 C 0.12712 0.46333 0.11985 0.0
C312 C 0.0932 0.48183 0.14245 0.0
C313 C 0.15401 0.43414 0.13983 0.0
C314 C 0.08822 0.47271 0.18573 0.0
C315 C 0.115 0.44423 0.20582 0.0
H316 H 0.718 0.21197 0.93394 0.0
H317 H 0.61445 0.25222 0.8512 0.0
H318 H 0.56017 0.19797 0.88293 0.0
H319 H 0.54032 0.14378 0.93813 0.0
H320 H 0.64047 0.11509 0.02953 0.0
H321 H 0.69757 0.16071 0.99103 0.0
C322 C 0.68349 0.20959 0.92303 0.0
C323 C 0.67074 0.23689 0.89023 0.0
C324 C 0.65163 0.18032 0.94322 0.0
C325 C 0.62594 0.23157 0.87579 0.0
C326 C 0.59451 0.20084 0.89437 0.0
C327 C 0.57468 0.14732 0.94961 0.0
C328 C 0.58641 0.1245 0.98591 0.0
C329 C 0.60678 0.17578 0.92871 0.0
C330 C 0.63092 0.13025 1.0006 0.0
C331 C 0.66348 0.157 0.97891 0.0
H332 H 0.79817 0.85757 0.42406 0.0
H333 H 0.84195 0.89795 0.29898 0.0
H334 H 0.89959 0.95037 0.33015 0.0
H335 H 0.94264 0.97912 0.3931 0.0
H336 H 0.89287 0.94545 0.51715 0.0
H337 H 0.83055 0.89753 0.48588 0.0
C338 C 0.81886 0.87862 0.4031 0.0
C339 C 0.81595 0.87225 0.35884 0.0
C340 C 0.85083 0.91023 0.42112 0.0
C341 C 0.84426 0.90022 0.33309 0.0
C342 C 0.87706 0.93079 0.35087 0.0
C343 C 0.91732 0.96214 0.41306 0.0
C344 C 0.92208 0.96522 0.45715 0.0
C345 C 0.88149 0.93511 0.39484 0.0
C346 C 0.88943 0.94343 0.48305 0.0
C347 C 0.85415 0.91582 0.46519 0.0
H348 H 0.33121 0.71202 0.70685 0.0
H349 H 0.4428 0.76427 0.78591 0.0
H350 H 0.49077 0.71591 0.75081 0.0
H351 H 0.50335 0.66411 0.69354 0.0
H352 H 0.39639 0.62442 0.60535 0.0
H353 H 0.34461 0.66319 0.64752 0.0
C354 C 0.36616 0.71376 0.71622 0.0
C355 C 0.38293 0.74276 0.74907 0.0
C356 C 0.3946 0.68797 0.69398 0.0
C357 C 0.42813 0.74228 0.76143 0.0
C358 C 0.45601 0.71493 0.74087 0.0
C359 C 0.46863 0.66366 0.68353 0.0
C360 C 0.45332 0.63961 0.64702 0.0
C361 C 0.43987 0.68847 0.70648 0.0
C362 C 0.40845 0.6403 0.63441 0.0
C363 C 0.37906 0.66328 0.65818 0.0
H364 H 0.97383 0.91144 0.79468 0.0
H365 H 0.97808 0.03333 0.86527 0.0
H366 H 0.00235 0.07469 0.8026 0.0
H367 H 0.01364 0.07722 0.72641 0.0
H368 H 0.00633 0.95674 0.6536 0.0
H369 H 0.9935 0.91383 0.71829 0.0
C370 C 0.9809 0.94695 0.79635 0.0
C371 C 0.97342 0.96939 0.83437 0.0
C372 C 0.9943 0.9708 0.75975 0.0
C373 C 0.98276 0.01542 0.83618 0.0
C374 C 0.99675 0.0391 0.80039 0.0
C375 C 0.01008 0.04152 0.72477 0.0
C376 C 0.01094 0.02024 0.68527 0.0
C377 C 1.00128 0.01729 0.76178 0.0
C378 C 0.00639 0.97396 0.68366 0.0
C379 C 0.9985 0.94942 0.72064 0.0
H380 H 0.56731 0.13542 0.34434 0.0
H381 H 0.59081 0.00763 0.39209 0.0
H382 H 0.55942 0.97288 0.32722 0.0
H383 H 0.5331 0.97946 0.2548 0.0
H384 H 0.5145 0.1072 0.20427 0.0
H385 H 0.5334 0.14111 0.27339 0.0
C386 C 0.56487 0.09989 0.34083 0.0
C387 C 0.582 0.07417 0.37282 0.0
C388 C 0.54704 0.08014 0.30323 0.0
C389 C 0.57885 0.02823 0.36762 0.0
C390 C 0.56052 0.00833 0.33071 0.0
C391 C 0.53219 0.01467 0.25907 0.0
C392 C 0.5228 0.04082 0.22428 0.0
C393 C 0.54556 0.03405 0.298 0.0
C394 C 0.52124 0.08624 0.2305 0.0
C395 C 0.53285 0.10572 0.26988 0.0
H396 H 0.4954 0.63531 0.27238 0.0
H397 H 0.48935 0.4999 0.23121 0.0
H398 H 0.51054 0.47786 0.30216 0.0
H399 H 0.51807 0.49551 0.3772 0.0
H400 H 0.5169 0.62959 0.42062 0.0
H401 H 0.51298 0.65436 0.34728 0.0
C402 C 0.49983 0.60119 0.27879 0.0
C403 C 0.49066 0.56886 0.24692 0.0
C404 C 0.51054 0.58872 0.32001 0.0
C405 C 0.49624 0.52491 0.25553 0.0
C406 C 0.50816 0.51242 0.29598 0.0
C407 C 0.51797 0.53032 0.37052 0.0
C408 C 0.51728 0.56068 0.40406 0.0
C409 C 0.51354 0.54378 0.32873 0.0
C410 C 0.51769 0.60568 0.39522 0.0
C411 C 0.51484 0.61971 0.35333 0.0
H412 H 0.05304 0.4103 0.78478 0.0
H413 H 0.00993 0.52207 0.71986 0.0
H414 H 0.991 0.55532 0.78728 0.0
H415 H 0.99781 0.55753 0.86475 0.0
H416 H 0.053 0.4516 0.92929 0.0
H417 H 0.05554 0.41051 0.86271 0.0
C418 C 0.03841 0.44137 0.78569 0.0
C419 C 0.03296 0.46388 0.74793 0.0
C420 C 0.02999 0.46124 0.82465 0.0
C421 C 0.01464 0.50447 0.74886 0.0
C422 C 0.00396 0.52343 0.78732 0.0
C423 C 0.00885 0.52475 0.86421 0.0
C424 C 0.02311 0.50649 0.90191 0.0
C425 C 0.01304 0.50286 0.82546 0.0
C426 C 0.03981 0.46518 0.90082 0.0
C427 C 0.04185 0.44204 0.86271 0.0
H428 H 0.78244 0.99152 0.94909 0.0
H429 H 0.85059 0.97957 0.06815 0.0
H430 H 0.78907 0.00978 0.10537 0.0
H431 H 0.7134 0.03207 0.10471 0.0
H432 H 0.64037 0.03539 0.98701 0.0
H433 H 0.70692 0.01818 0.94826 0.0
C434 C 0.78393 0.99605 0.9831 0.0
C435 C 0.82089 0.98333 0.00622 0.0
C436 C 0.74777 0.01234 1.00433 0.0
C437 C 0.8223 0.98904 0.05013 0.0
C438 C 0.78727 0.00638 0.07125 0.0
C439 C 0.71219 0.02996 0.07046 0.0
C440 C 0.67187 0.03522 0.04886 0.0
C441 C 0.74948 0.01722 0.04878 0.0
C442 C 0.67106 0.03226 1.00448 0.0
C443 C 0.70895 0.02166 0.98235 0.0
H444 H 0.73973 0.07996 0.4239 0.0
H445 H 0.68111 0.08977 0.54745 0.0
H446 H 0.75114 0.07392 0.58056 0.0
H447 H 0.8307 0.06509 0.57508 0.0
H448 H 0.8915 0.05604 0.45274 0.0
H449 H 0.81866 0.06199 0.41845 0.0
C450 C 0.74209 0.07784 0.45802 0.0
C451 C 0.70543 0.08708 0.48318 0.0
C452 C 0.78282 0.06872 0.47706 0.0
C453 C 0.7091 0.08405 0.52736 0.0
C454 C 0.74907 0.07471 0.54636 0.0
C455 C 0.82791 0.06371 0.54087 0.0
C456 C 0.86645 0.0605 0.51647 0.0
C457 C 0.78643 0.06826 0.52161 0.0
C458 C 0.86225 0.0582 0.47224 0.0
C459 C 0.82068 0.06213 0.45265 0.0
H460 H 0.30782 0.5883 0.15514 0.0
H461 H 0.36575 0.5709 0.03268 0.0
H462 H 0.29177 0.54632 1.0032 0.0
H463 H 0.21059 0.54548 0.00926 0.0
H464 H 0.1515 0.56941 0.12994 0.0
H465 H 0.22571 0.57458 0.1637 0.0
C466 C 0.30419 0.57741 0.12245 0.0
C467 C 0.34167 0.58139 0.09586 0.0
C468 C 0.26132 0.5653 0.10541 0.0
C469 C 0.33704 0.56792 0.05345 0.0
C470 C 0.29481 0.55428 0.03662 0.0
C471 C 0.21398 0.55078 0.04314 0.0
C472 C 0.17611 0.55776 0.0671 0.0
C473 C 0.25663 0.55528 0.06177 0.0
C474 C 0.18041 0.56399 0.11098 0.0
C475 C 0.22283 0.56731 0.13015 0.0
H476 H 0.22469 0.50098 0.64768 0.0
H477 H 0.17554 0.50051 0.51925 0.0
H478 H 0.24885 0.5328 0.49528 0.0
H479 H 0.32891 0.5491 0.5093 0.0
H480 H 0.38061 0.54106 0.63607 0.0
H481 H 0.30409 0.52618 0.66288 0.0
C482 C 0.2299 0.50901 0.61464 0.0
C483 C 0.19519 0.49811 0.58507 0.0
C484 C 0.27252 0.52616 0.601 0.0
C485 C 0.20213 0.5082 0.54231 0.0
C486 C 0.2439 0.52669 0.5287 0.0
C487 C 0.32319 0.54546 0.54298 0.0
C488 C 0.36001 0.54626 0.57077 0.0
C489 C 0.27967 0.53415 0.55752 0.0
C490 C 0.3526 0.54122 0.61426 0.0
C491 C 0.30894 0.53202 0.62941 0.0
H492 H 0.91122 0.81723 0.96498 0.0
H493 H 0.04234 0.88109 0.93578 0.0
H494 H 0.07716 0.81896 0.96453 0.0
H495 H 0.07061 0.74462 0.99298 0.0
H496 H 0.94028 0.67828 0.02012 0.0
H497 H 0.90512 0.74394 0.99911 0.0
C498 C 0.94744 0.81781 0.96542 0.0
C499 C 0.97402 0.85367 0.94747 0.0
C500 C 0.96744 0.78169 0.98211 0.0
C501 C 0.02092 0.85362 0.94827 0.0
C502 C 0.04094 0.81821 0.96509 0.0
C503 C 0.0345 0.74467 0.99499 0.0
C504 C 0.00818 0.70651 0.00832 0.0
C505 C 0.01454 0.78179 0.98134 0.0
C506 C 0.96147 0.70733 0.01075 0.0
C507 C 0.94131 0.74471 0.99809 0.0
H508 H 0.5043 0.71752 0.07246 0.0
H509 H 0.36805 0.74044 0.09987 0.0
H510 H 0.38446 0.81848 0.08263 0.0
H511 H 0.44137 0.88174 0.0722 0.0
H512 H 0.57809 0.85785 0.04735 0.0
H513 H 0.55758 0.77861 0.04961 0.0
C514 C 0.47814 0.7396 0.07382 0.0
C515 C 0.43544 0.72392 0.08801 0.0
C516 C 0.48795 0.7842 0.0643 0.0
C517 C 0.40132 0.75224 0.08917 0.0
C518 C 0.41072 0.79677 0.07947 0.0
C519 C 0.46616 0.85905 0.06579 0.0
C520 C 0.5112 0.87525 0.06039 0.0
C521 C 0.45442 0.81345 0.06865 0.0
C522 C 0.54325 0.8458 0.05213 0.0
C523 C 0.53165 0.80057 0.05372 0.0
H524 H 0.15059 0.33828 0.57374 0.0
H525 H 0.01745 0.37931 0.56336 0.0
H526 H 0.98915 0.30658 0.53631 0.0
H527 H 0.9997 0.22916 0.52705 0.0
H528 H 0.13022 0.18455 0.54453 0.0
H529 H 0.16286 0.26104 0.55531 0.0
C530 C 0.11561 0.33137 0.56471 0.0
C531 C 0.08587 0.36374 0.57106 0.0
C532 C 0.09933 0.28895 0.55023 0.0
C533 C 0.04064 0.35459 0.55939 0.0
C534 C 0.02455 0.31314 0.54377 0.0
C535 C 0.03561 0.23643 0.53175 0.0
C536 C 0.0626 0.20157 0.53513 0.0
C537 C 0.05322 0.27974 0.54057 0.0
C538 C 0.10896 0.21102 0.54136 0.0
C539 C 0.12736 0.25465 0.54828 0.0
H540 H 0.64119 0.29173 0.53457 0.0
H541 H 0.51409 0.21285 0.52378 0.0
H542 H 0.47474 0.27647 0.54235 0.0
H543 H 0.47599 0.35602 0.55162 0.0
H544 H 0.60231 0.43722 0.55384 0.0
H545 H 0.64257 0.37156 0.55026 0.0
C546 C 0.60497 0.28862 0.53719 0.0
C547 C 0.5805 0.2482 0.52726 0.0
C548 C 0.5825 0.32582 0.54633 0.0
C549 C 0.53352 0.244 0.53061 0.0
C550 C 0.51106 0.28031 0.54124 0.0
C551 C 0.51237 0.3593 0.55211 0.0
C552 C 0.5361 0.4014 0.5534 0.0
C553 C 0.53511 0.32166 0.54759 0.0
C554 C 0.58322 0.40517 0.55387 0.0
C555 C 0.60626 0.36762 0.55118 0.0
loop_
_geom_bond_atom_site_label_1
_geom_bond_atom_site_label_2
_geom_bond_distance
_geom_bond_site_symmetry_2
_ccdc_geom_bond_type
H0 C5 0.929 . S
H1 C10 0.931 . S
H2 C8 0.930 . S
N3 N4 1.234 . S
N3 C7 1.453 . S
N4 N3 1.234 . S
C5 H0 0.929 . S
C5 C6 1.373 . S
C5 C7 1.368 . S
C6 C5 1.373 . S
C6 C10 1.397 . S
C7 N3 1.453 . S
C7 C5 1.368 . S
C7 C8 1.373 . S
C8 H2 0.930 . S
C8 C7 1.373 . S
C8 C9 1.371 . S
C9 C8 1.371 . S
C9 C10 1.383 . S
C10 H1 0.931 . S
C10 C6 1.397 . S
C10 C9 1.383 . S
H11 C16 0.929 . S
H12 C21 0.931 . S
H13 C19 0.930 . S
N14 N15 1.234 . S
N14 C18 1.453 . S
N15 N14 1.234 . S
C16 H11 0.929 . S
C16 C17 1.373 . S
C16 C18 1.368 . S
C17 C16 1.373 . S
C17 C21 1.397 . S
C18 N14 1.453 . S
C18 C16 1.368 . S
C18 C19 1.373 . S
C19 H13 0.930 . S
C19 C18 1.373 . S
C19 C20 1.371 . S
C20 C19 1.371 . S
C20 C21 1.383 . S
C21 H12 0.931 . S
C21 C17 1.397 . S
C21 C20 1.383 . S
H22 C27 0.929 . S
H23 C32 0.931 . S
H24 C30 0.930 . S
N25 N26 1.234 . S
N25 C29 1.453 . S
N26 N25 1.234 . S
C27 H22 0.929 . S
C27 C28 1.373 . S
C27 C29 1.368 . S
C28 C27 1.373 . S
C28 C32 1.397 . S
C29 N25 1.453 . S
C29 C27 1.368 . S
C29 C30 1.373 . S
C30 H24 0.930 . S
C30 C29 1.373 . S
C30 C31 1.371 . S
C31 C30 1.371 . S
C31 C32 1.383 . S
C32 H23 0.931 . S
C32 C28 1.397 . S
C32 C31 1.383 . S
H33 C38 0.929 . S
H34 C43 0.931 . S
H35 C41 0.930 . S
N36 N37 1.234 . S
N36 C40 1.453 . S
N37 N36 1.234 . S
C38 H33 0.929 . S
C38 C39 1.373 . S
C38 C40 1.368 . S
C39 C38 1.373 . S
C39 C43 1.397 . S
C40 N36 1.453 . S
C40 C38 1.368 . S
C40 C41 1.373 . S
C41 H35 0.930 . S
C41 C40 1.373 . S
C41 C42 1.371 . S
C42 C41 1.371 . S
C42 C43 1.383 . S
C43 H34 0.931 . S
C43 C39 1.397 . S
C43 C42 1.383 . S
H44 C49 0.917 1_545 S
H45 C54 0.931 1_455 S
H46 C52 0.930 . S
N47 N48 1.234 1_545 S
N47 C51 1.453 1_545 S
N48 N47 1.234 1_565 S
C49 H44 0.917 1_565 S
C49 C50 1.382 . S
C49 C51 1.372 . S
C50 C49 1.382 . S
C50 C54 1.397 . S
C51 N47 1.453 1_565 S
C51 C49 1.372 . S
C51 C52 1.373 . S
C52 H46 0.930 . S
C52 C51 1.373 . S
C52 C53 1.371 . S
C53 C52 1.371 . S
C53 C54 1.383 . S
C54 H45 0.931 1_655 S
C54 C50 1.397 . S
C54 C53 1.383 . S
H55 C60 0.929 . S
H56 C65 0.931 . S
H57 C63 0.930 . S
N58 N59 1.234 . S
N58 C62 1.453 . S
N59 N58 1.234 . S
C60 H55 0.929 . S
C60 C61 1.373 . S
C60 C62 1.368 . S
C61 C60 1.373 . S
C61 C65 1.397 . S
C62 N58 1.453 . S
C62 C60 1.368 . S
C62 C63 1.373 . S
C63 H57 0.930 . S
C63 C62 1.373 . S
C63 C64 1.371 . S
C64 C63 1.371 . S
C64 C65 1.383 . S
C65 H56 0.931 . S
C65 C61 1.397 . S
C65 C64 1.383 . S
H66 C71 0.929 . S
H67 C76 0.931 . S
H68 C74 0.930 . S
N69 N70 1.234 . S
N69 C73 1.453 . S
N70 N69 1.234 . S
C71 H66 0.929 . S
C71 C72 1.373 . S
C71 C73 1.368 . S
C72 C71 1.373 . S
C72 C76 1.397 . S
C73 N69 1.453 . S
C73 C71 1.368 . S
C73 C74 1.373 . S
C74 H68 0.930 . S
C74 C73 1.373 . S
C74 C75 1.371 . S
C75 C74 1.371 . S
C75 C76 1.383 . S
C76 H67 0.931 . S
C76 C72 1.397 . S
C76 C75 1.383 . S
H77 C82 0.929 . S
H78 C87 0.931 . S
H79 C85 0.930 . S
N80 N81 1.234 . S
N80 C84 1.453 . S
N81 N80 1.234 . S
C82 H77 0.929 . S
C82 C83 1.373 . S
C82 C84 1.368 . S
C83 C82 1.373 . S
C83 C87 1.397 . S
C84 N80 1.453 . S
C84 C82 1.368 . S
C84 C85 1.373 . S
C85 H79 0.930 . S
C85 C84 1.373 . S
C85 C86 1.371 . S
C86 C85 1.371 . S
C86 C87 1.383 . S
C87 H78 0.931 . S
C87 C83 1.397 . S
C87 C86 1.383 . S
Zn88 O94 1.920 . S
Zn88 O100 1.898 . S
Zn88 O103 1.905 . S
Zn89 O97 1.905 1_565 S
Zn89 O98 1.898 . S
Zn89 O106 1.920 . S
Zn90 O93 2.080 1_455 S
Zn90 O96 2.114 . S
Zn90 O99 2.120 1_445 S
Zn90 O101 2.120 . S
Zn90 O102 2.114 1_455 S
Zn90 O105 2.080 . S
C91 O96 1.166 . S
C91 O97 1.182 . S
C92 O98 1.167 1_655 S
C92 O99 1.299 . S
O93 Zn90 2.080 1_655 S
O93 C107 1.305 . S
O94 Zn88 1.920 . S
O94 C107 1.234 . S
C95 O100 1.167 1_455 S
C95 O101 1.299 . S
O96 Zn90 2.114 . S
O96 C91 1.166 . S
O97 Zn89 1.905 1_545 S
O97 C91 1.182 . S
O98 Zn89 1.898 . S
O98 C92 1.167 1_455 S
O99 Zn90 2.120 1_665 S
O99 C92 1.299 . S
O100 Zn88 1.898 . S
O100 C95 1.167 1_655 S
O101 Zn90 2.120 . S
O101 C95 1.299 . S
O102 Zn90 2.114 1_655 S
O102 C104 1.166 . S
O103 Zn88 1.905 . S
O103 C104 1.182 . S
C104 O102 1.166 . S
C104 O103 1.182 . S
O105 Zn90 2.080 . S
O105 C108 1.305 1_545 S
O106 Zn89 1.920 . S
O106 C108 1.234 . S
C107 O93 1.305 . S
C107 O94 1.234 . S
C108 O105 1.305 1_565 S
C108 O106 1.234 . S
Zn109 O115 1.938 . S
Zn109 O121 1.894 1_554 S
Zn109 O124 1.897 1_554 S
Zn110 O118 1.905 . S
Zn110 O119 1.898 . S
Zn110 O127 1.920 . S
Zn111 O114 2.080 . S
Zn111 O117 2.114 1_545 S
Zn111 O120 2.120 1_545 S
Zn111 O122 2.120 . S
Zn111 O123 2.112 1_545 S
Zn111 O126 2.080 . S
C112 O117 1.166 . S
C112 O118 1.182 . S
C113 O119 1.167 . S
C113 O120 1.299 . S
O114 Zn111 2.080 . S
O114 C128 1.305 . S
O115 Zn109 1.938 . S
O115 C128 1.234 . S
C116 O121 1.167 1_554 S
C116 O122 1.299 . S
O117 Zn111 2.114 1_565 S
O117 C112 1.166 . S
O118 Zn110 1.905 . S
O118 C112 1.182 . S
O119 Zn110 1.898 . S
O119 C113 1.167 . S
O120 Zn111 2.120 1_565 S
O120 C113 1.299 . S
O121 Zn109 1.894 1_556 S
O121 C116 1.167 1_556 S
O122 Zn111 2.120 . S
O122 C116 1.299 . S
O123 Zn111 2.112 1_565 S
O123 C125 1.166 1_554 S
O124 Zn109 1.897 1_556 S
O124 C125 1.182 1_545 S
C125 O123 1.166 1_556 S
C125 O124 1.182 1_565 S
O126 Zn111 2.080 . S
O126 C129 1.305 . S
O127 Zn110 1.920 . S
O127 C129 1.234 1_565 S
C128 O114 1.305 . S
C128 O115 1.234 . S
C129 O126 1.305 . S
C129 O127 1.234 1_545 S
Zn130 O136 1.920 . S
Zn130 O142 1.898 . S
Zn130 O145 1.905 . S
Zn131 O139 1.905 . S
Zn131 O140 1.898 . S
Zn131 O148 1.920 . S
Zn132 O135 2.080 . S
Zn132 O138 2.114 . S
Zn132 O141 2.120 . S
Zn132 O143 2.120 . S
Zn132 O144 2.114 . S
Zn132 O147 2.080 . S
C133 O138 1.166 . S
C133 O139 1.182 . S
C134 O140 1.167 . S
C134 O141 1.299 . S
O135 Zn132 2.080 . S
O135 C149 1.305 . S
O136 Zn130 1.920 . S
O136 C149 1.234 . S
C137 O142 1.167 . S
C137 O143 1.299 . S
O138 Zn132 2.114 . S
O138 C133 1.166 . S
O139 Zn131 1.905 . S
O139 C133 1.182 . S
O140 Zn131 1.898 . S
O140 C134 1.167 . S
O141 Zn132 2.120 . S
O141 C134 1.299 . S
O142 Zn130 1.898 . S
O142 C137 1.167 . S
O143 Zn132 2.120 . S
O143 C137 1.299 . S
O144 Zn132 2.114 . S
O144 C146 1.166 . S
O145 Zn130 1.905 . S
O145 C146 1.182 . S
C146 O144 1.166 . S
C146 O145 1.182 . S
O147 Zn132 2.080 . S
O147 C150 1.305 . S
O148 Zn131 1.920 . S
O148 C150 1.234 . S
C149 O135 1.305 . S
C149 O136 1.234 . S
C150 O147 1.305 . S
C150 O148 1.234 . S
Zn151 O157 1.920 . S
Zn151 O163 1.898 . S
Zn151 O166 1.905 . S
Zn152 O160 1.905 1_655 S
Zn152 O161 1.898 . S
Zn152 O169 1.920 . S
Zn153 O156 2.080 1_554 S
Zn153 O159 2.114 . S
Zn153 O162 2.120 1_454 S
Zn153 O164 2.120 . S
Zn153 O165 2.114 1_554 S
Zn153 O168 2.080 . S
C154 O159 1.166 . S
C154 O160 1.182 . S
C155 O161 1.167 1_556 S
C155 O162 1.299 . S
O156 Zn153 2.080 1_556 S
O156 C170 1.305 . S
O157 Zn151 1.920 . S
O157 C170 1.234 . S
C158 O163 1.167 1_554 S
C158 O164 1.299 . S
O159 Zn153 2.114 . S
O159 C154 1.166 . S
O160 Zn152 1.905 1_455 S
O160 C154 1.182 . S
O161 Zn152 1.898 . S
O161 C155 1.167 1_554 S
O162 Zn153 2.120 1_656 S
O162 C155 1.299 . S
O163 Zn151 1.898 . S
O163 C158 1.167 1_556 S
O164 Zn153 2.120 . S
O164 C158 1.299 . S
O165 Zn153 2.114 1_556 S
O165 C167 1.166 . S
O166 Zn151 1.905 . S
O166 C167 1.182 . S
C167 O165 1.166 . S
C167 O166 1.182 . S
O168 Zn153 2.080 . S
O168 C171 1.305 1_455 S
O169 Zn152 1.920 . S
O169 C171 1.234 . S
C170 O156 1.305 . S
C170 O157 1.234 . S
C171 O168 1.305 1_655 S
C171 O169 1.234 . S
H172 C178 0.930 . S
H173 C181 0.930 . S
H174 C182 0.930 . S
H175 C183 0.930 . S
H176 C186 0.930 . S
H177 C187 0.930 . S
C178 H172 0.930 . S
C178 C179 1.355 . S
C178 C180 1.415 . S
C179 C178 1.355 . S
C179 C181 1.419 . S
C180 C178 1.415 . S
C180 C185 1.425 . S
C180 C187 1.409 . S
C181 H173 0.930 . S
C181 C179 1.419 . S
C181 C182 1.362 . S
C182 H174 0.930 . S
C182 C181 1.362 . S
C182 C185 1.409 . S
C183 H175 0.930 . S
C183 C184 1.355 . S
C183 C185 1.415 . S
C184 C183 1.355 . S
C184 C186 1.419 . S
C185 C180 1.425 . S
C185 C182 1.409 . S
C185 C183 1.415 . S
C186 H176 0.930 . S
C186 C184 1.419 . S
C186 C187 1.362 . S
C187 H177 0.930 . S
C187 C180 1.409 . S
C187 C186 1.362 . S
H188 C194 0.930 . S
H189 C197 0.930 . S
H190 C198 0.930 . S
H191 C199 0.930 . S
H192 C202 0.930 . S
H193 C203 0.930 . S
C194 H188 0.930 . S
C194 C195 1.355 . S
C194 C196 1.415 . S
C195 C194 1.355 . S
C195 C197 1.419 . S
C196 C194 1.415 . S
C196 C201 1.425 . S
C196 C203 1.409 . S
C197 H189 0.930 . S
C197 C195 1.419 . S
C197 C198 1.362 . S
C198 H190 0.930 . S
C198 C197 1.362 . S
C198 C201 1.409 . S
C199 H191 0.930 . S
C199 C200 1.355 . S
C199 C201 1.415 . S
C200 C199 1.355 . S
C200 C202 1.419 . S
C201 C196 1.425 . S
C201 C198 1.409 . S
C201 C199 1.415 . S
C202 H192 0.930 . S
C202 C200 1.419 . S
C202 C203 1.362 . S
C203 H193 0.930 . S
C203 C196 1.409 . S
C203 C202 1.362 . S
H204 C210 0.930 . S
H205 C213 0.930 . S
H206 C214 0.930 . S
H207 C215 0.930 . S
H208 C218 0.930 . S
H209 C219 0.930 . S
C210 H204 0.930 . S
C210 C211 1.355 . S
C210 C212 1.415 . S
C211 C210 1.355 . S
C211 C213 1.419 . S
C212 C210 1.415 . S
C212 C217 1.425 . S
C212 C219 1.409 . S
C213 H205 0.930 . S
C213 C211 1.419 . S
C213 C214 1.362 . S
C214 H206 0.930 . S
C214 C213 1.362 . S
C214 C217 1.409 . S
C215 H207 0.930 . S
C215 C216 1.355 . S
C215 C217 1.415 . S
C216 C215 1.355 . S
C216 C218 1.419 . S
C217 C212 1.425 . S
C217 C214 1.409 . S
C217 C215 1.415 . S
C218 H208 0.930 . S
C218 C216 1.419 . S
C218 C219 1.362 . S
C219 H209 0.930 . S
C219 C212 1.409 . S
C219 C218 1.362 . S
H220 C226 0.930 . S
H221 C229 0.930 . S
H222 C230 0.930 . S
H223 C231 0.930 . S
H224 C234 0.930 . S
H225 C235 0.930 1_455 S
C226 H220 0.930 . S
C226 C227 1.355 . S
C226 C228 1.415 . S
C227 C226 1.355 . S
C227 C229 1.419 . S
C228 C226 1.415 . S
C228 C233 1.425 . S
C228 C235 1.409 . S
C229 H221 0.930 . S
C229 C227 1.419 . S
C229 C230 1.362 . S
C230 H222 0.930 . S
C230 C229 1.362 . S
C230 C233 1.409 . S
C231 H223 0.930 . S
C231 C232 1.355 . S
C231 C233 1.415 . S
C232 C231 1.355 . S
C232 C234 1.419 1_655 S
C233 C228 1.425 . S
C233 C230 1.409 . S
C233 C231 1.415 . S
C234 H224 0.930 . S
C234 C232 1.419 1_455 S
C234 C235 1.362 1_455 S
C235 H225 0.930 1_655 S
C235 C228 1.409 . S
C235 C234 1.362 1_655 S
H236 C242 0.930 . S
H237 C245 0.930 . S
H238 C246 0.930 . S
H239 C247 0.930 . S
H240 C250 0.930 . S
H241 C251 0.930 . S
C242 H236 0.930 . S
C242 C243 1.355 . S
C242 C244 1.415 . S
C243 C242 1.355 . S
C243 C245 1.419 . S
C244 C242 1.415 . S
C244 C249 1.425 . S
C244 C251 1.409 . S
C245 H237 0.930 . S
C245 C243 1.419 . S
C245 C246 1.362 . S
C246 H238 0.930 . S
C246 C245 1.362 . S
C246 C249 1.409 . S
C247 H239 0.930 . S
C247 C248 1.355 . S
C247 C249 1.415 . S
C248 C247 1.355 . S
C248 C250 1.419 . S
C249 C244 1.425 . S
C249 C246 1.409 . S
C249 C247 1.415 . S
C250 H240 0.930 . S
C250 C248 1.419 . S
C250 C251 1.362 . S
C251 H241 0.930 . S
C251 C244 1.409 . S
C251 C250 1.362 . S
H252 C258 0.930 . S
H253 C261 0.930 . S
H254 C262 0.930 . S
H255 C263 0.930 . S
H256 C266 0.930 . S
H257 C267 0.930 . S
C258 H252 0.930 . S
C258 C259 1.355 . S
C258 C260 1.415 . S
C259 C258 1.355 . S
C259 C261 1.419 . S
C260 C258 1.415 . S
C260 C265 1.425 . S
C260 C267 1.409 . S
C261 H253 0.930 . S
C261 C259 1.419 . S
C261 C262 1.362 . S
C262 H254 0.930 . S
C262 C261 1.362 . S
C262 C265 1.409 . S
C263 H255 0.930 . S
C263 C264 1.355 . S
C263 C265 1.415 . S
C264 C263 1.355 . S
C264 C266 1.419 . S
C265 C260 1.425 . S
C265 C262 1.409 . S
C265 C263 1.415 . S
C266 H256 0.930 . S
C266 C264 1.419 . S
C266 C267 1.362 . S
C267 H257 0.930 . S
C267 C260 1.409 . S
C267 C266 1.362 . S
H268 C274 0.930 . S
H269 C277 0.930 . S
H270 C278 0.930 1_554 S
H271 C279 0.930 1_554 S
H272 C282 0.930 . S
H273 C283 0.930 . S
C274 H268 0.930 . S
C274 C275 1.355 . S
C274 C276 1.415 . S
C275 C274 1.355 . S
C275 C277 1.419 . S
C276 C274 1.415 . S
C276 C281 1.425 . S
C276 C283 1.409 . S
C277 H269 0.930 . S
C277 C275 1.419 . S
C277 C278 1.362 . S
C278 H270 0.930 1_556 S
C278 C277 1.362 . S
C278 C281 1.409 . S
C279 H271 0.930 1_556 S
C279 C280 1.355 . S
C279 C281 1.415 . S
C280 C279 1.355 . S
C280 C282 1.419 . S
C281 C276 1.425 . S
C281 C278 1.409 . S
C281 C279 1.415 . S
C282 H272 0.930 . S
C282 C280 1.419 . S
C282 C283 1.362 . S
C283 H273 0.930 . S
C283 C276 1.409 . S
C283 C282 1.362 . S
H284 C290 0.930 . S
H285 C293 0.930 . S
H286 C294 0.930 . S
H287 C295 0.930 . S
H288 C298 0.930 . S
H289 C299 0.930 . S
C290 H284 0.930 . S
C290 C291 1.355 . S
C290 C292 1.415 . S
C291 C290 1.355 . S
C291 C293 1.419 . S
C292 C290 1.415 . S
C292 C297 1.425 . S
C292 C299 1.409 . S
C293 H285 0.930 . S
C293 C291 1.419 . S
C293 C294 1.362 . S
C294 H286 0.930 . S
C294 C293 1.362 . S
C294 C297 1.409 . S
C295 H287 0.930 . S
C295 C296 1.355 . S
C295 C297 1.415 . S
C296 C295 1.355 . S
C296 C298 1.419 . S
C297 C292 1.425 . S
C297 C294 1.409 . S
C297 C295 1.415 . S
C298 H288 0.930 . S
C298 C296 1.419 . S
C298 C299 1.362 . S
C299 H289 0.930 . S
C299 C292 1.409 . S
C299 C298 1.362 . S
H300 C306 0.930 . S
H301 C309 0.930 . S
H302 C310 0.930 . S
H303 C311 0.930 . S
H304 C314 0.930 . S
H305 C315 0.930 . S
C306 H300 0.930 . S
C306 C307 1.355 . S
C306 C308 1.415 . S
C307 C306 1.355 . S
C307 C309 1.419 . S
C308 C306 1.415 . S
C308 C313 1.425 . S
C308 C315 1.409 . S
C309 H301 0.930 . S
C309 C307 1.419 . S
C309 C310 1.362 . S
C310 H302 0.930 . S
C310 C309 1.362 . S
C310 C313 1.409 . S
C311 H303 0.930 . S
C311 C312 1.355 . S
C311 C313 1.415 . S
C312 C311 1.355 . S
C312 C314 1.419 . S
C313 C308 1.425 . S
C313 C310 1.409 . S
C313 C311 1.415 . S
C314 H304 0.930 . S
C314 C312 1.419 . S
C314 C315 1.362 . S
C315 H305 0.930 . S
C315 C308 1.409 . S
C315 C314 1.362 . S
H316 C322 0.930 . S
H317 C325 0.930 . S
H318 C326 0.930 . S
H319 C327 0.930 . S
H320 C330 0.930 . S
H321 C331 0.930 . S
C322 H316 0.930 . S
C322 C323 1.355 . S
C322 C324 1.415 . S
C323 C322 1.355 . S
C323 C325 1.419 . S
C324 C322 1.415 . S
C324 C329 1.425 . S
C324 C331 1.409 1_556 S
C325 H317 0.930 . S
C325 C323 1.419 . S
C325 C326 1.362 . S
C326 H318 0.930 . S
C326 C325 1.362 . S
C326 C329 1.409 . S
C327 H319 0.930 . S
C327 C328 1.355 1_556 S
C327 C329 1.415 . S
C328 C327 1.355 1_554 S
C328 C330 1.419 . S
C329 C324 1.425 . S
C329 C326 1.409 . S
C329 C327 1.415 . S
C330 H320 0.930 . S
C330 C328 1.419 . S
C330 C331 1.362 . S
C331 H321 0.930 . S
C331 C324 1.409 1_554 S
C331 C330 1.362 . S
H332 C338 0.930 . S
H333 C341 0.930 . S
H334 C342 0.930 . S
H335 C343 0.930 . S
H336 C346 0.930 . S
H337 C347 0.930 . S
C338 H332 0.930 . S
C338 C339 1.355 . S
C338 C340 1.415 . S
C339 C338 1.355 . S
C339 C341 1.419 . S
C340 C338 1.415 . S
C340 C345 1.425 . S
C340 C347 1.409 . S
C341 H333 0.930 . S
C341 C339 1.419 . S
C341 C342 1.362 . S
C342 H334 0.930 . S
C342 C341 1.362 . S
C342 C345 1.409 . S
C343 H335 0.930 . S
C343 C344 1.355 . S
C343 C345 1.415 . S
C344 C343 1.355 . S
C344 C346 1.419 . S
C345 C340 1.425 . S
C345 C342 1.409 . S
C345 C343 1.415 . S
C346 H336 0.930 . S
C346 C344 1.419 . S
C346 C347 1.362 . S
C347 H337 0.930 . S
C347 C340 1.409 . S
C347 C346 1.362 . S
H348 C354 0.930 . S
H349 C357 0.930 . S
H350 C358 0.930 . S
H351 C359 0.930 . S
H352 C362 0.930 . S
H353 C363 0.930 . S
C354 H348 0.930 . S
C354 C355 1.355 . S
C354 C356 1.415 . S
C355 C354 1.355 . S
C355 C357 1.419 . S
C356 C354 1.415 . S
C356 C361 1.425 . S
C356 C363 1.409 . S
C357 H349 0.930 . S
C357 C355 1.419 . S
C357 C358 1.362 . S
C358 H350 0.930 . S
C358 C357 1.362 . S
C358 C361 1.409 . S
C359 H351 0.930 . S
C359 C360 1.355 . S
C359 C361 1.415 . S
C360 C359 1.355 . S
C360 C362 1.419 . S
C361 C356 1.425 . S
C361 C358 1.409 . S
C361 C359 1.415 . S
C362 H352 0.930 . S
C362 C360 1.419 . S
C362 C363 1.362 . S
C363 H353 0.930 . S
C363 C356 1.409 . S
C363 C362 1.362 . S
H364 C370 0.924 1_545 S
H365 C373 0.930 . S
H366 C374 0.930 . S
H367 C375 0.925 1_565 S
H368 C378 0.930 . S
H369 C379 0.930 . S
C370 H364 0.924 1_565 S
C370 C371 1.363 . S
C370 C372 1.412 1_565 S
C371 C370 1.363 . S
C371 C373 1.419 1_655 S
C372 C370 1.412 1_545 S
C372 C377 1.425 1_645 S
C372 C379 1.409 . S
C373 H365 0.930 . S
C373 C371 1.419 1_455 S
C373 C374 1.362 . S
C374 H366 0.930 . S
C374 C373 1.362 . S
C374 C377 1.409 . S
C375 H367 0.925 1_545 S
C375 C376 1.355 1_455 S
C375 C377 1.415 1_545 S
C376 C375 1.355 1_655 S
C376 C378 1.419 . S
C377 C372 1.425 1_465 S
C377 C374 1.409 . S
C377 C375 1.415 1_565 S
C378 H368 0.930 . S
C378 C376 1.419 . S
C378 C379 1.362 . S
C379 H369 0.930 . S
C379 C372 1.409 . S
C379 C378 1.362 . S
H380 C386 0.930 . S
H381 C389 0.930 . S
H382 C390 0.930 . S
H383 C391 0.930 . S
H384 C394 0.930 . S
H385 C395 0.930 . S
C386 H380 0.930 . S
C386 C387 1.355 . S
C386 C388 1.415 . S
C387 C386 1.355 . S
C387 C389 1.419 . S
C388 C386 1.415 . S
C388 C393 1.425 . S
C388 C395 1.409 . S
C389 H381 0.930 . S
C389 C387 1.419 . S
C389 C390 1.362 . S
C390 H382 0.930 . S
C390 C389 1.362 . S
C390 C393 1.409 . S
C391 H383 0.930 . S
C391 C392 1.355 . S
C391 C393 1.415 . S
C392 C391 1.355 . S
C392 C394 1.419 . S
C393 C388 1.425 . S
C393 C390 1.409 . S
C393 C391 1.415 . S
C394 H384 0.930 . S
C394 C392 1.419 . S
C394 C395 1.362 . S
C395 H385 0.930 . S
C395 C388 1.409 . S
C395 C394 1.362 . S
H396 C402 0.930 . S
H397 C405 0.930 . S
H398 C406 0.930 . S
H399 C407 0.930 . S
H400 C410 0.930 . S
H401 C411 0.930 . S
C402 H396 0.930 . S
C402 C403 1.355 . S
C402 C404 1.415 . S
C403 C402 1.355 . S
C403 C405 1.419 . S
C404 C402 1.415 . S
C404 C409 1.425 . S
C404 C411 1.409 . S
C405 H397 0.930 . S
C405 C403 1.419 . S
C405 C406 1.362 . S
C406 H398 0.930 . S
C406 C405 1.362 . S
C406 C409 1.409 . S
C407 H399 0.930 . S
C407 C408 1.355 . S
C407 C409 1.415 . S
C408 C407 1.355 . S
C408 C410 1.419 . S
C409 C404 1.425 . S
C409 C406 1.409 . S
C409 C407 1.415 . S
C410 H400 0.930 . S
C410 C408 1.419 . S
C410 C411 1.362 . S
C411 H401 0.930 . S
C411 C404 1.409 . S
C411 C410 1.362 . S
H412 C418 0.930 . S
H413 C421 0.930 1_655 S
H414 C422 0.930 1_655 S
H415 C423 0.930 . S
H416 C426 0.930 . S
H417 C427 0.930 . S
C418 H412 0.930 . S
C418 C419 1.355 . S
C418 C420 1.415 . S
C419 C418 1.355 . S
C419 C421 1.419 . S
C420 C418 1.415 . S
C420 C425 1.425 . S
C420 C427 1.409 . S
C421 H413 0.930 1_455 S
C421 C419 1.419 . S
C421 C422 1.362 . S
C422 H414 0.930 1_455 S
C422 C421 1.362 . S
C422 C425 1.409 . S
C423 H415 0.930 . S
C423 C424 1.355 . S
C423 C425 1.415 . S
C424 C423 1.355 . S
C424 C426 1.419 . S
C425 C420 1.425 . S
C425 C422 1.409 . S
C425 C423 1.415 . S
C426 H416 0.930 . S
C426 C424 1.419 . S
C426 C427 1.362 . S
C427 H417 0.930 . S
C427 C420 1.409 . S
C427 C426 1.362 . S
H428 C434 0.930 . S
H429 C437 0.930 . S
H430 C438 0.930 . S
H431 C439 0.930 . S
H432 C442 0.930 . S
H433 C443 0.926 1_556 S
C434 H428 0.930 . S
C434 C435 1.355 1_566 S
C434 C436 1.415 1_556 S
C435 C434 1.355 1_544 S
C435 C437 1.419 . S
C436 C434 1.415 1_554 S
C436 C441 1.425 1_565 S
C436 C443 1.411 . S
C437 H429 0.930 . S
C437 C435 1.419 . S
C437 C438 1.362 . S
C438 H430 0.930 . S
C438 C437 1.362 . S
C438 C441 1.409 . S
C439 H431 0.930 . S
C439 C440 1.355 . S
C439 C441 1.415 . S
C440 C439 1.355 . S
C440 C442 1.419 1_545 S
C441 C436 1.425 1_545 S
C441 C438 1.409 . S
C441 C439 1.415 . S
C442 H432 0.930 . S
C442 C440 1.419 1_565 S
C442 C443 1.365 . S
C443 H433 0.926 1_554 S
C443 C436 1.411 . S
C443 C442 1.365 . S
H444 C450 0.930 . S
H445 C453 0.930 . S
H446 C454 0.930 . S
H447 C455 0.930 . S
H448 C458 0.930 . S
H449 C459 0.930 . S
C450 H444 0.930 . S
C450 C451 1.355 . S
C450 C452 1.415 . S
C451 C450 1.355 . S
C451 C453 1.419 . S
C452 C450 1.415 . S
C452 C457 1.425 . S
C452 C459 1.409 . S
C453 H445 0.930 . S
C453 C451 1.419 . S
C453 C454 1.362 . S
C454 H446 0.930 . S
C454 C453 1.362 . S
C454 C457 1.409 . S
C455 H447 0.930 . S
C455 C456 1.355 . S
C455 C457 1.415 . S
C456 C455 1.355 . S
C456 C458 1.419 . S
C457 C452 1.425 . S
C457 C454 1.409 . S
C457 C455 1.415 . S
C458 H448 0.930 . S
C458 C456 1.419 . S
C458 C459 1.362 . S
C459 H449 0.930 . S
C459 C452 1.409 . S
C459 C458 1.362 . S
H460 C466 0.930 . S
H461 C469 0.930 . S
H462 C470 0.930 . S
H463 C471 0.930 . S
H464 C474 0.930 . S
H465 C475 0.930 . S
C466 H460 0.930 . S
C466 C467 1.355 . S
C466 C468 1.415 . S
C467 C466 1.355 . S
C467 C469 1.419 . S
C468 C466 1.415 . S
C468 C473 1.425 . S
C468 C475 1.409 . S
C469 H461 0.930 . S
C469 C467 1.419 . S
C469 C470 1.362 . S
C470 H462 0.930 . S
C470 C469 1.362 . S
C470 C473 1.409 . S
C471 H463 0.930 . S
C471 C472 1.355 . S
C471 C473 1.415 . S
C472 C471 1.355 . S
C472 C474 1.419 . S
C473 C468 1.425 . S
C473 C470 1.409 . S
C473 C471 1.415 . S
C474 H464 0.930 . S
C474 C472 1.419 . S
C474 C475 1.362 . S
C475 H465 0.930 . S
C475 C468 1.409 . S
C475 C474 1.362 . S
H476 C482 0.930 . S
H477 C485 0.930 . S
H478 C486 0.930 . S
H479 C487 0.930 . S
H480 C490 0.930 . S
H481 C491 0.930 . S
C482 H476 0.930 . S
C482 C483 1.355 . S
C482 C484 1.415 . S
C483 C482 1.355 . S
C483 C485 1.419 . S
C484 C482 1.415 . S
C484 C489 1.425 . S
C484 C491 1.409 . S
C485 H477 0.930 . S
C485 C483 1.419 . S
C485 C486 1.362 . S
C486 H478 0.930 . S
C486 C485 1.362 . S
C486 C489 1.409 . S
C487 H479 0.930 . S
C487 C488 1.355 . S
C487 C489 1.415 . S
C488 C487 1.355 . S
C488 C490 1.419 . S
C489 C484 1.425 . S
C489 C486 1.409 . S
C489 C487 1.415 . S
C490 H480 0.930 . S
C490 C488 1.419 . S
C490 C491 1.362 . S
C491 H481 0.930 . S
C491 C484 1.409 . S
C491 C490 1.362 . S
H492 C498 0.930 . S
H493 C501 0.930 . S
H494 C502 0.930 1_554 S
H495 C503 0.930 1_554 S
H496 C506 0.930 . S
H497 C507 0.930 . S
C498 H492 0.930 . S
C498 C499 1.355 . S
C498 C500 1.415 . S
C499 C498 1.355 . S
C499 C501 1.419 1_655 S
C500 C498 1.415 . S
C500 C505 1.425 1_655 S
C500 C507 1.409 . S
C501 H493 0.930 . S
C501 C499 1.419 1_455 S
C501 C502 1.362 . S
C502 H494 0.930 1_556 S
C502 C501 1.362 . S
C502 C505 1.409 . S
C503 H495 0.930 1_556 S
C503 C504 1.355 . S
C503 C505 1.415 . S
C504 C503 1.355 . S
C504 C506 1.419 1_455 S
C505 C500 1.425 1_455 S
C505 C502 1.409 . S
C505 C503 1.415 . S
C506 H496 0.930 . S
C506 C504 1.419 1_655 S
C506 C507 1.362 . S
C507 H497 0.930 . S
C507 C500 1.409 . S
C507 C506 1.362 . S
H508 C514 0.930 . S
H509 C517 0.930 . S
H510 C518 0.930 . S
H511 C519 0.930 . S
H512 C522 0.930 . S
H513 C523 0.930 . S
C514 H508 0.930 . S
C514 C515 1.355 . S
C514 C516 1.415 . S
C515 C514 1.355 . S
C515 C517 1.419 . S
C516 C514 1.415 . S
C516 C521 1.425 . S
C516 C523 1.409 . S
C517 H509 0.930 . S
C517 C515 1.419 . S
C517 C518 1.362 . S
C518 H510 0.930 . S
C518 C517 1.362 . S
C518 C521 1.409 . S
C519 H511 0.930 . S
C519 C520 1.355 . S
C519 C521 1.415 . S
C520 C519 1.355 . S
C520 C522 1.419 . S
C521 C516 1.425 . S
C521 C518 1.409 . S
C521 C519 1.415 . S
C522 H512 0.930 . S
C522 C520 1.419 . S
C522 C523 1.362 . S
C523 H513 0.930 . S
C523 C516 1.409 . S
C523 C522 1.362 . S
H524 C530 0.930 . S
H525 C533 0.930 . S
H526 C534 0.930 1_655 S
H527 C535 0.930 1_655 S
H528 C538 0.930 . S
H529 C539 0.930 . S
C530 H524 0.930 . S
C530 C531 1.355 . S
C530 C532 1.415 . S
C531 C530 1.355 . S
C531 C533 1.419 . S
C532 C530 1.415 . S
C532 C537 1.425 . S
C532 C539 1.409 . S
C533 H525 0.930 . S
C533 C531 1.419 . S
C533 C534 1.362 . S
C534 H526 0.930 1_455 S
C534 C533 1.362 . S
C534 C537 1.409 . S
C535 H527 0.930 1_455 S
C535 C536 1.355 . S
C535 C537 1.415 . S
C536 C535 1.355 . S
C536 C538 1.419 . S
C537 C532 1.425 . S
C537 C534 1.409 . S
C537 C535 1.415 . S
C538 H528 0.930 . S
C538 C536 1.419 . S
C538 C539 1.362 . S
C539 H529 0.930 . S
C539 C532 1.409 . S
C539 C538 1.362 . S
H540 C546 0.930 . S
H541 C549 0.930 . S
H542 C550 0.930 . S
H543 C551 0.930 . S
H544 C554 0.930 . S
H545 C555 0.930 . S
C546 H540 0.930 . S
C546 C547 1.355 . S
C546 C548 1.415 . S
C547 C546 1.355 . S
C547 C549 1.419 . S
C548 C546 1.415 . S
C548 C553 1.425 . S
C548 C555 1.409 . S
C549 H541 0.930 . S
C549 C547 1.419 . S
C549 C550 1.362 . S
C550 H542 0.930 . S
C550 C549 1.362 . S
C550 C553 1.409 . S
C551 H543 0.930 . S
C551 C552 1.355 . S
C551 C553 1.415 . S
C552 C551 1.355 . S
C552 C554 1.419 . S
C553 C548 1.425 . S
C553 C550 1.409 . S
C553 C551 1.415 . S
C554 H544 0.930 . S
C554 C552 1.419 . S
C554 C555 1.362 . S
C555 H545 0.930 . S
C555 C548 1.409 . S
C555 C554 1.362 . S
C179 C6 1.689 . S
C184 C91 1.521 . S
C195 C20 1.789 . S
C200 C125 1.642 . S
C216 C137 1.061 . S
C211 N26 1.182 . S
C227 N37 1.391 . S
C232 C171 1.309 . S
C248 C128 1.739 . S
C243 C9 1.912 . S
C264 C108 1.319 . S
C259 N15 1.343 . S
C280 C155 1.344 . S
C275 C31 1.421 . S
C296 C146 1.344 . S
C291 C39 1.451 . S
C307 N4 1.564 . S
C312 C154 1.437 . S
C328 C116 1.518 . S
C323 C28 1.584 . S
C339 C42 1.320 . S
C344 C92 1.198 . S
C355 C17 1.635 . S
C360 C149 1.572 . S
C376 C107 1.715 . S
C371 C50 1.866 . S
C387 C61 1.642 . S
C392 C129 1.496 . S
C403 N70 1.486 . S
C408 C134 1.458 . S
C419 N81 1.381 . S
C424 C167 1.276 . S
C435 N48 1.504 1_544 S
C440 C112 1.398 1_545 S
C456 C104 1.769 . S
C451 C64 1.910 . S
C472 C158 1.426 . S
C467 C75 1.511 . S
C488 C150 1.337 . S
C483 C86 1.500 . S
C499 C53 1.814 . S
C504 C170 1.702 . S
C520 C113 1.232 . S
C515 C72 1.364 . S
C536 C95 1.553 . S
C531 C83 1.654 . S
C547 N59 1.590 . S
C552 C133 1.523 . S
