# Generated by pormake.
# Topology apo, (3,6)-cn, num edge types: 1
# Building blocks:
#     Node 0, Type 0, BuildingBlock: MIDCAF_clean_linker_0, # of connection points: 3
#     Node 1, Type 0, BuildingBlock: MIDCAF_clean_linker_0, # of connection points: 3
#     Node 2, Type 0, BuildingBlock: MIDCAF_clean_linker_0, # of connection points: 3
#     Node 3, Type 0, BuildingBlock: MIDCAF_clean_linker_0, # of connection points: 3
#     Node 4, Type 0, BuildingBlock: MIDCAF_clean_linker_0, # of connection points: 3
#     Node 5, Type 0, BuildingBlock: MIDCAF_clean_linker_0, # of connection points: 3
#     Node 6, Type 0, BuildingBlock: MIDCAF_clean_linker_0, # of connection points: 3
#     Node 7, Type 0, BuildingBlock: MIDCAF_clean_linker_0, # of connection points: 3
#     Node 8, Type 1, BuildingBlock: KUMJIN_clean_sbu_1, # of connection points: 6
#     Node 9, Type 1, BuildingBlock: KUMJIN_clean_sbu_1, # of connection points: 6
#     Node 10, Type 1, BuildingBlock: KUMJIN_clean_sbu_1, # of connection points: 6
#     Node 11, Type 1, BuildingBlock: KUMJIN_clean_sbu_1, # of connection points: 6
#     Edge 12, Type (0, 1), BuildingBlock: CIFDUS_clean_linker_0, # of connection points: 2
#     Edge 13, Type (0, 1), BuildingBlock: CIFDUS_clean_linker_0, # of connection points: 2
#     Edge 14, Type (0, 1), BuildingBlock: CIFDUS_clean_linker_0, # of connection points: 2
#     Edge 15, Type (0, 1), BuildingBlock: CIFDUS_clean_linker_0, # of connection points: 2
#     Edge 16, Type (0, 1), BuildingBlock: CIFDUS_clean_linker_0, # of connection points: 2
#     Edge 17, Type (0, 1), BuildingBlock: CIFDUS_clean_linker_0, # of connection points: 2
#     Edge 18, Type (0, 1), BuildingBlock: CIFDUS_clean_linker_0, # of connection points: 2
#     Edge 19, Type (0, 1), BuildingBlock: CIFDUS_clean_linker_0, # of connection points: 2
#     Edge 20, Type (0, 1), BuildingBlock: CIFDUS_clean_linker_0, # of connection points: 2
#     Edge 21, Type (0, 1), BuildingBlock: CIFDUS_clean_linker_0, # of connection points: 2
#     Edge 22, Type (0, 1), BuildingBlock: CIFDUS_clean_linker_0, # of connection points: 2
#     Edge 23, Type (0, 1), BuildingBlock: CIFDUS_clean_linker_0, # of connection points: 2
#     Edge 24, Type (0, 1), BuildingBlock: CIFDUS_clean_linker_0, # of connection points: 2
#     Edge 25, Type (0, 1), BuildingBlock: CIFDUS_clean_linker_0, # of connection points: 2
#     Edge 26, Type (0, 1), BuildingBlock: CIFDUS_clean_linker_0, # of connection points: 2
#     Edge 27, Type (0, 1), BuildingBlock: CIFDUS_clean_linker_0, # of connection points: 2
#     Edge 28, Type (0, 1), BuildingBlock: CIFDUS_clean_linker_0, # of connection points: 2
#     Edge 29, Type (0, 1), BuildingBlock: CIFDUS_clean_linker_0, # of connection points: 2
#     Edge 30, Type (0, 1), BuildingBlock: CIFDUS_clean_linker_0, # of connection points: 2
#     Edge 31, Type (0, 1), BuildingBlock: CIFDUS_clean_linker_0, # of connection points: 2
#     Edge 32, Type (0, 1), BuildingBlock: CIFDUS_clean_linker_0, # of connection points: 2
#     Edge 33, Type (0, 1), BuildingBlock: CIFDUS_clean_linker_0, # of connection points: 2
#     Edge 34, Type (0, 1), BuildingBlock: CIFDUS_clean_linker_0, # of connection points: 2
#     Edge 35, Type (0, 1), BuildingBlock: CIFDUS_clean_linker_0, # of connection points: 2
# Relax obj value: 0.009
# Max RMSD: 0.100
# Mean RMSD: 0.079
data_MOF--net-apo--node1-KUMJIN_clean_sbu_1--node2-MIDCAF_clean_linker_0--edge1-CIFDUS_clean_linker_0
_symmetry_space_group_name_H-M    P1
_symmetry_Int_Tables_number       1
_symmetry_cell_setting            triclinic
loop_
_symmetry_equiv_pos_as_xyz
'x, y, z'
_cell_length_a     26.196554
_cell_length_b     46.674242
_cell_length_c     58.096917
_cell_angle_alpha  90.0373
_cell_angle_beta   89.908249
_cell_angle_gamma 90.199167
loop_
_atom_site_label
_atom_site_type_symbol
_atom_site_fract_x
_atom_site_fract_y
_atom_site_fract_z
_atom_type_partial_charge
C0 C 0.34085 0.38184 0.49904 0.0
C1 C 0.3156 0.35946 0.51069 0.0
C2 C 0.28053 0.3425 0.49837 0.0
C3 C 0.27164 0.34736 0.47498 0.0
H4 H 0.17797 0.32168 0.41753 0.0
H5 H 0.13015 0.28666 0.3944 0.0
H6 H 0.21871 0.30995 0.33459 0.0
H7 H 0.26551 0.34535 0.35733 0.0
H8 H 0.28224 0.41802 0.36009 0.0
H9 H 0.31488 0.45974 0.34004 0.0
H10 H 0.40218 0.48351 0.40018 0.0
H11 H 0.36814 0.44193 0.42067 0.0
H12 H 0.35238 0.40399 0.46716 0.0
H13 H 0.36843 0.39518 0.50791 0.0
H14 H 0.25952 0.32548 0.50683 0.0
H15 H 0.24448 0.3337 0.46617 0.0
N16 N 0.26108 0.35446 0.42585 0.0
N17 N 0.27459 0.38105 0.3922 0.0
N18 N 0.30893 0.39712 0.42717 0.0
C19 C 0.25415 0.35783 0.40285 0.0
C20 C 0.30171 0.40092 0.40418 0.0
C21 C 0.2887 0.37392 0.43816 0.0
C22 C 0.22545 0.3363 0.38924 0.0
C23 C 0.18717 0.31931 0.39945 0.0
C24 C 0.15969 0.29941 0.38624 0.0
C25 C 0.17094 0.29569 0.36279 0.0
C26 C 0.20952 0.3124 0.35267 0.0
C27 C 0.2361 0.3327 0.36568 0.0
C28 C 0.32257 0.42646 0.39206 0.0
C29 C 0.30848 0.43202 0.36913 0.0
C30 C 0.32751 0.45595 0.35751 0.0
C31 C 0.36153 0.47496 0.36838 0.0
C32 C 0.37565 0.46949 0.39133 0.0
C33 C 0.35631 0.44555 0.40306 0.0
C34 C 0.29731 0.36947 0.46323 0.0
C35 C 0.33177 0.3868 0.47561 0.0
C36 C 0.22956 0.08749 0.99389 0.0
C37 C 0.23369 0.11315 1.00636 0.0
C38 C 0.23917 0.13909 0.99432 0.0
C39 C 0.24196 0.1392 0.9702 0.0
H40 H 0.27446 0.19159 0.90562 0.0
H41 H 0.31412 0.22837 0.88128 0.0
H42 H 0.37102 0.16207 0.83604 0.0
H43 H 0.32939 0.12603 0.85948 0.0
H44 H 0.20225 0.08732 0.85181 0.0
H45 H 0.16879 0.04686 0.82985 0.0
H46 H 0.17806 0.9933 0.89018 0.0
H47 H 0.21093 0.03398 0.91248 0.0
H48 H 0.22855 0.06736 0.96088 0.0
H49 H 0.22505 0.06723 1.00277 0.0
H50 H 0.24267 0.15915 1.00358 0.0
H51 H 0.24699 0.15945 0.96137 0.0
N52 N 0.26523 0.13497 0.9206 0.0
N53 N 0.25261 0.11041 0.88578 0.0
N54 N 0.22477 0.08986 0.9203 0.0
C55 C 0.27085 0.13354 0.89732 0.0
C56 C 0.22929 0.08861 0.89705 0.0
C57 C 0.24236 0.113 0.93222 0.0
C58 C 0.29826 0.15603 0.88426 0.0
C59 C 0.29566 0.18506 0.89049 0.0
C60 C 0.31856 0.20607 0.87656 0.0
C61 C 0.34518 0.19833 0.85638 0.0
C62 C 0.34948 0.16907 0.85093 0.0
C63 C 0.3259 0.1483 0.86451 0.0
C64 C 0.20918 0.06386 0.88391 0.0
C65 C 0.19729 0.06694 0.86044 0.0
C66 C 0.17797 0.04385 0.84787 0.0
C67 C 0.17099 0.01706 0.85836 0.0
C68 C 0.18345 0.01376 0.88171 0.0
C69 C 0.2019 0.03705 0.89446 0.0
C70 C 0.2383 0.11343 0.95772 0.0
C71 C 0.23141 0.08764 0.96988 0.0
C72 C 0.86513 0.12929 0.51562 0.0
C73 C 0.84905 0.1557 0.50659 0.0
C74 C 0.82158 0.17442 0.52095 0.0
C75 C 0.81151 0.16731 0.54387 0.0
H76 H 0.75634 0.20328 0.60525 0.0
H77 H 0.71568 0.23686 0.63191 0.0
H78 H 0.71773 0.17231 0.68513 0.0
H79 H 0.75886 0.13923 0.659 0.0
H80 H 0.86107 0.0983 0.65441 0.0
H81 H 0.8873 0.05518 0.67416 0.0
H82 H 0.87265 0.00715 0.61086 0.0
H83 H 0.84784 0.05113 0.59069 0.0
H84 H 0.86885 0.10185 0.54513 0.0
H85 H 0.88654 0.11444 0.50506 0.0
H86 H 0.80773 0.19469 0.51445 0.0
H87 H 0.79067 0.18251 0.55434 0.0
N88 N 0.79498 0.15363 0.59171 0.0
N89 N 0.80677 0.12354 0.62338 0.0
N90 N 0.83796 0.10971 0.58724 0.0
C91 C 0.78807 0.14814 0.61449 0.0
C92 C 0.83164 0.10427 0.61007 0.0
C93 C 0.81986 0.13451 0.57792 0.0
C94 C 0.76133 0.16858 0.62995 0.0
C95 C 0.74799 0.19627 0.62262 0.0
C96 C 0.72453 0.21547 0.63788 0.0
C97 C 0.71388 0.20736 0.66075 0.0
C98 C 0.72636 0.17951 0.66784 0.0
C99 C 0.74979 0.16044 0.65271 0.0
C100 C 0.85179 0.07805 0.62103 0.0
C101 C 0.86356 0.07859 0.64461 0.0
C102 C 0.87827 0.05376 0.65601 0.0
C103 C 0.88094 0.02749 0.64427 0.0
C104 C 0.87098 0.02704 0.62043 0.0
C105 C 0.85675 0.05217 0.60887 0.0
C106 C 0.82861 0.14123 0.55316 0.0
C107 C 0.85514 0.12216 0.53866 0.0
C108 C 0.65702 0.38391 0.01967 0.0
C109 C 0.68043 0.36196 1.00694 0.0
C110 C 0.71834 0.34538 0.0176 0.0
C111 C 0.73114 0.34997 0.04075 0.0
H112 H 0.8206 0.31734 0.09845 0.0
H113 H 0.87058 0.28428 0.12218 0.0
H114 H 0.79384 0.31566 0.18302 0.0
H115 H 0.74559 0.3488 0.15972 0.0
H116 H 0.69783 0.40704 0.15996 0.0
H117 H 0.66218 0.44655 0.18168 0.0
H118 H 0.6302 0.49133 0.11826 0.0
H119 H 0.66451 0.45111 0.09633 0.0
H120 H 0.65056 0.40554 0.05197 0.0
H121 H 0.62803 0.39724 0.01187 0.0
H122 H 0.73683 0.32819 0.00828 0.0
H123 H 0.75965 0.33635 0.04857 0.0
N124 N 0.74452 0.35511 0.09051 0.0
N125 N 0.73187 0.38079 0.12471 0.0
N126 N 0.69811 0.39824 0.09025 0.0
C127 C 0.75163 0.3578 0.11362 0.0
C128 C 0.70537 0.40116 0.11331 0.0
C129 C 0.71748 0.37525 0.07869 0.0
C130 C 0.77964 0.33601 0.12718 0.0
C131 C 0.81438 0.31701 0.11688 0.0
C132 C 0.8429 0.29804 0.13047 0.0
C133 C 0.83688 0.29765 0.15458 0.0
C134 C 0.80065 0.31593 0.16463 0.0
C135 C 0.77269 0.3349 0.15117 0.0
C136 C 0.684 0.42578 0.12631 0.0
C137 C 0.68336 0.4253 0.15054 0.0
C138 C 0.66319 0.44814 0.16309 0.0
C139 C 0.64341 0.47227 0.15181 0.0
C140 C 0.64445 0.47292 0.12755 0.0
C141 C 0.6643 0.44989 0.11495 0.0
C142 C 0.70672 0.37148 0.05369 0.0
C143 C 0.67016 0.38872 0.04268 0.0
C144 C 0.71868 0.58431 0.51749 0.0
C145 C 0.73249 0.60788 0.50377 0.0
C146 C 0.74673 0.63362 0.51463 0.0
C147 C 0.74798 0.63555 0.53871 0.0
H148 H 0.78359 0.69161 0.59897 0.0
H149 H 0.82927 0.72862 0.62113 0.0
H150 H 0.85872 0.66705 0.67482 0.0
H151 H 0.81278 0.63053 0.65318 0.0
H152 H 0.68476 0.59879 0.65905 0.0
H153 H 0.64436 0.56267 0.68326 0.0
H154 H 0.64505 0.50302 0.62647 0.0
H155 H 0.68531 0.5394 0.60192 0.0
H156 H 0.70854 0.56763 0.55144 0.0
H157 H 0.70701 0.56428 0.50963 0.0
H158 H 0.75781 0.6521 0.5045 0.0
H159 H 0.75956 0.65561 0.54653 0.0
N160 N 0.7618 0.63517 0.58879 0.0
N161 N 0.74067 0.61535 0.62466 0.0
N162 N 0.71262 0.59294 0.59091 0.0
C163 C 0.76457 0.63595 0.61218 0.0
C164 C 0.7144 0.59391 0.61427 0.0
C165 C 0.73601 0.61355 0.57801 0.0
C166 C 0.79443 0.65823 0.62438 0.0
C167 C 0.80017 0.68604 0.61543 0.0
C168 C 0.826 0.70718 0.62811 0.0
C169 C 0.84754 0.70059 0.64962 0.0
C170 C 0.84281 0.67264 0.65822 0.0
C171 C 0.81623 0.65179 0.64586 0.0
C172 C 0.68838 0.57196 0.62854 0.0
C173 C 0.67627 0.57802 0.65163 0.0
C174 C 0.65284 0.55741 0.6655 0.0
C175 C 0.64159 0.5301 0.65673 0.0
C176 C 0.65358 0.52391 0.63366 0.0
C177 C 0.67634 0.54476 0.61961 0.0
C178 C 0.7343 0.61189 0.55245 0.0
C179 C 0.71928 0.58632 0.54149 0.0
C180 C 0.77983 0.90336 0.02107 0.0
C181 C 0.77717 0.87742 0.00885 0.0
C182 C 0.77467 0.85158 0.02118 0.0
C183 C 0.77349 0.85172 0.04531 0.0
H184 H 0.72202 0.80215 0.10498 0.0
H185 H 0.67363 0.76634 0.12717 0.0
H186 H 0.65559 0.82721 0.18247 0.0
H187 H 0.70413 0.86261 0.16079 0.0
H188 H 0.82587 0.89831 0.16289 0.0
H189 H 0.86694 0.93595 0.18536 0.0
H190 H 0.85692 0.99353 0.12751 0.0
H191 H 0.81635 0.95552 0.10459 0.0
H192 H 0.78172 0.92387 0.05406 0.0
H193 H 0.78182 0.92357 0.01194 0.0
H194 H 0.7723 0.83132 0.01213 0.0
H195 H 0.77078 0.83149 0.05435 0.0
N196 N 0.74949 0.85659 0.09477 0.0
N197 N 0.76827 0.87929 0.12976 0.0
N198 N 0.79518 0.90013 0.09511 0.0
C199 C 0.74614 0.85731 0.11814 0.0
C200 C 0.79304 0.90066 0.1185 0.0
C201 C 0.77381 0.87803 0.08313 0.0
C202 C 0.71702 0.83523 0.1311 0.0
C203 C 0.70771 0.80783 0.12188 0.0
C204 C 0.68028 0.78732 0.13457 0.0
C205 C 0.66075 0.79411 0.15646 0.0
C206 C 0.66987 0.82149 0.16557 0.0
C207 C 0.69796 0.8417 0.15315 0.0
C208 C 0.81787 0.92389 0.1319 0.0
C209 C 0.83226 0.91897 0.15488 0.0
C210 C 0.85596 0.94046 0.16777 0.0
C211 C 0.86502 0.96758 0.15816 0.0
C212 C 0.85008 0.97279 0.13532 0.0
C213 C 0.8272 0.95102 0.1222 0.0
C214 C 0.77602 0.8777 0.05757 0.0
C215 C 0.77988 0.90349 0.04516 0.0
C216 C 0.16724 0.90171 0.49357 0.0
C217 C 0.18168 0.87878 0.5078 0.0
C218 C 0.19957 0.85348 0.49744 0.0
C219 C 0.20344 0.8513 0.47345 0.0
H220 H 0.27601 0.80447 0.41913 0.0
H221 H 0.31987 0.76572 0.39894 0.0
H222 H 0.24962 0.79199 0.33515 0.0
H223 H 0.20711 0.8309 0.35504 0.0
H224 H 0.14277 0.88923 0.35326 0.0
H225 H 0.11918 0.92834 0.32794 0.0
H226 H 0.15776 0.98923 0.38139 0.0
H227 H 0.17857 0.94972 0.40716 0.0
H228 H 0.15944 0.91772 0.45934 0.0
H229 H 0.15267 0.92137 0.50095 0.0
H230 H 0.2115 0.83552 0.50791 0.0
H231 H 0.21767 0.83154 0.4661 0.0
N232 N 0.21279 0.84834 0.42352 0.0
N233 N 0.1983 0.86836 0.38713 0.0
N234 N 0.17702 0.8943 0.42026 0.0
C235 C 0.21541 0.84631 0.40017 0.0
C236 C 0.1793 0.89241 0.39696 0.0
C237 C 0.1932 0.87223 0.43371 0.0
C238 C 0.23844 0.82102 0.3887 0.0
C239 C 0.26963 0.80181 0.40083 0.0
C240 C 0.29468 0.77954 0.38926 0.0
C241 C 0.28883 0.77594 0.36534 0.0
C242 C 0.25608 0.79453 0.35345 0.0
C243 C 0.2314 0.8168 0.36493 0.0
C244 C 0.16265 0.91641 0.38218 0.0
C245 C 0.14591 0.91098 0.35964 0.0
C246 C 0.13281 0.9335 0.34504 0.0
C247 C 0.13715 0.96215 0.35239 0.0
C248 C 0.15325 0.96752 0.37513 0.0
C249 C 0.16541 0.94488 0.38992 0.0
C250 C 0.1893 0.87434 0.45922 0.0
C251 C 0.17095 0.89953 0.46964 0.0
C252 C 0.36177 0.6292 0.99067 0.0
C253 C 0.3613 0.65756 0.99878 0.0
C254 C 0.34632 0.67959 0.98382 0.0
C255 C 0.33193 0.6734 0.96119 0.0
H256 H 0.26529 0.71009 0.89951 0.0
H257 H 0.21598 0.74216 0.87487 0.0
H258 H 0.16334 0.66924 0.83541 0.0
H259 H 0.21437 0.63774 0.85918 0.0
H260 H 0.37348 0.61199 0.85448 0.0
H261 H 0.4036 0.57237 0.83113 0.0
H262 H 0.35465 0.51283 0.88391 0.0
H263 H 0.32786 0.55322 0.90796 0.0
H264 H 0.34944 0.60101 0.96205 0.0
H265 H 0.37337 0.61185 1.00186 0.0
H266 H 0.34531 0.70161 0.98971 0.0
H267 H 0.32065 0.69091 0.9501 0.0
N268 N 0.28948 0.65743 0.91667 0.0
N269 N 0.29624 0.62842 0.88394 0.0
N270 N 0.33731 0.61481 0.91803 0.0
C271 C 0.27728 0.65204 0.89436 0.0
C272 C 0.32621 0.60982 0.89554 0.0
C273 C 0.31924 0.63879 0.92868 0.0
C274 C 0.24412 0.6715 0.88109 0.0
C275 C 0.24289 0.70103 0.88562 0.0
C276 C 0.21447 0.71935 0.87153 0.0
C277 C 0.18606 0.70839 0.85289 0.0
C278 C 0.18586 0.67863 0.8491 0.0
C279 C 0.21487 0.66049 0.86286 0.0
C280 C 0.34837 0.58552 0.88292 0.0
C281 C 0.36985 0.5904 0.86116 0.0
C282 C 0.38649 0.56759 0.84767 0.0
C283 C 0.38063 0.53915 0.85528 0.0
C284 C 0.36025 0.53436 0.87746 0.0
C285 C 0.34476 0.55742 0.89127 0.0
C286 C 0.33312 0.64509 0.9529 0.0
C287 C 0.3483 0.62305 0.96787 0.0
Eu288 Eu 0.07866 0.13151 0.2331 0.0
C289 C 0.84399 0.12754 0.25556 0.0
N290 N 0.87463 0.1511 0.25482 0.0
C291 C 0.81136 0.17668 0.23343 0.0
C292 C 0.7959 0.12752 0.24469 0.0
C293 C 0.85878 0.17565 0.24438 0.0
C294 C 0.77986 0.15246 0.23347 0.0
C295 C 0.83084 0.07816 0.26737 0.0
C296 C 0.8615 0.10306 0.26669 0.0
C297 C 0.78301 0.07806 0.25648 0.0
C298 C 0.76561 0.10265 0.24517 0.0
Eu299 Eu 0.95455 0.14719 0.27313 0.0
N300 N 0.90867 0.1035 0.27657 0.0
C301 C 0.84903 0.05412 0.27909 0.0
C302 C 0.92514 0.08066 0.28911 0.0
C303 C 0.89609 0.05552 0.29026 0.0
H304 H 0.8824 0.19461 0.24486 0.0
H305 H 0.90976 0.03734 0.30001 0.0
H306 H 0.15455 0.08445 0.25942 0.0
H307 H 0.11522 0.24321 0.20849 0.0
H308 H 0.95987 0.08182 0.29879 0.0
H309 H 0.82661 0.0346 0.28004 0.0
H310 H 0.06622 0.19854 0.21037 0.0
H311 H 0.79906 0.19616 0.22505 0.0
H312 H 0.75909 0.05908 0.25676 0.0
H313 H 0.72862 0.10222 0.23685 0.0
H314 H 0.24169 0.08263 0.27559 0.0
H315 H 0.74318 0.1533 0.22491 0.0
H316 H 0.20203 0.24555 0.22498 0.0
N317 N 0.16055 0.12798 0.24931 0.0
C318 C 0.19058 0.15171 0.24782 0.0
C319 C 0.22771 0.10222 0.26793 0.0
C320 C 0.2407 0.15159 0.25666 0.0
C321 C 0.17825 0.10337 0.259 0.0
C322 C 0.25908 0.12644 0.26678 0.0
N323 N 0.12166 0.17615 0.23004 0.0
C324 C 0.10253 0.19942 0.21882 0.0
C325 C 0.20078 0.20152 0.23666 0.0
C326 C 0.1706 0.17647 0.23802 0.0
C327 C 0.18006 0.22592 0.22637 0.0
C328 C 0.13094 0.22474 0.21719 0.0
H329 H 0.29737 0.1255 0.27376 0.0
H330 H 0.30916 0.17686 0.26212 0.0
H331 H 0.27432 0.2205 0.24456 0.0
O332 O 0.08626 0.13309 0.19555 0.0
O333 O 0.09221 0.15466 0.26711 0.0
O334 O 0.01826 0.17999 0.27141 0.0
O335 O 0.12505 0.10014 0.21473 0.0
O336 O 0.01164 0.15556 0.2174 0.0
O337 O 0.97854 0.18133 0.24772 0.0
O338 O 0.94464 0.14759 0.31104 0.0
O339 O 0.94298 0.12239 0.2396 0.0
O340 O 0.01758 0.0973 0.23574 0.0
O341 O 0.90626 0.1791 0.28935 0.0
O342 O 0.01918 0.12109 0.28892 0.0
O343 O 0.05887 0.09679 0.25895 0.0
C344 C 0.06586 0.17513 0.27706 0.0
C345 C 0.16586 0.11744 0.18094 0.0
C346 C 0.20661 0.12354 0.14333 0.0
C347 C 0.25422 0.12583 0.15432 0.0
C348 C 0.21396 0.11965 0.19148 0.0
C349 C 0.25773 0.124 0.17823 0.0
C350 C 0.16237 0.11963 0.15682 0.0
C351 C 0.98337 0.17653 0.22553 0.0
C352 C 0.11929 0.11232 0.19476 0.0
C353 C 0.27061 0.17655 0.25539 0.0
C354 C 0.25071 0.20143 0.24543 0.0
C355 C 0.96898 0.10074 0.23124 0.0
C356 C 0.8906 0.18359 0.33032 0.0
C357 C 0.87178 0.18593 0.37163 0.0
C358 C 0.84582 0.21186 0.36791 0.0
C359 C 0.86451 0.20958 0.32727 0.0
C360 C 0.894 0.17171 0.35262 0.0
C361 C 0.8423 0.22352 0.34593 0.0
C362 C 0.04775 0.09999 0.28099 0.0
C363 C 0.91431 0.16966 0.31006 0.0
H364 H 0.28878 0.12914 0.14439 0.0
H365 H 0.218 0.11775 0.20992 0.0
H366 H 0.29459 0.12574 0.18651 0.0
H367 H 0.12545 0.11759 0.14855 0.0
H368 H 0.82752 0.22301 0.38203 0.0
H369 H 0.8613 0.21928 0.3104 0.0
H370 H 0.91421 0.15176 0.35521 0.0
H371 H 0.82216 0.24348 0.34334 0.0
Eu372 Eu 0.4553 0.36279 0.74273 0.0
C373 C 0.67562 0.4013 0.76108 0.0
N374 N 0.65886 0.37385 0.75921 0.0
C375 C 0.72653 0.36311 0.73284 0.0
C376 C 0.71756 0.41111 0.74804 0.0
C377 C 0.6845 0.35445 0.74602 0.0
C378 C 0.74275 0.39167 0.73361 0.0
C379 C 0.66819 0.44784 0.7792 0.0
C380 C 0.65097 0.41939 0.77635 0.0
C381 C 0.70861 0.45814 0.76555 0.0
C382 C 0.73327 0.4398 0.75001 0.0
Eu383 Eu 0.58588 0.36112 0.78079 0.0
N384 N 0.61224 0.40867 0.7894 0.0
C385 C 0.64546 0.46474 0.79624 0.0
C386 C 0.59349 0.4242 0.80741 0.0
C387 C 0.60869 0.45266 0.81073 0.0
H388 H 0.67194 0.33243 0.74546 0.0
H389 H 0.59268 0.46507 0.82471 0.0
H390 H 0.38045 0.41125 0.77024 0.0
H391 H 0.40748 0.2532 0.71888 0.0
H392 H 0.5677 0.41455 0.8196 0.0
H393 H 0.65758 0.4867 0.79899 0.0
H394 H 0.45653 0.29866 0.71775 0.0
H395 H 0.74627 0.3478 0.72205 0.0
H396 H 0.72196 0.48003 0.76731 0.0
H397 H 0.76506 0.44787 0.73994 0.0
H398 H 0.30647 0.41129 0.79638 0.0
H399 H 0.77517 0.39836 0.72331 0.0
H400 H 0.33339 0.24839 0.74512 0.0
N401 N 0.38136 0.36597 0.76624 0.0
C402 C 0.35466 0.34121 0.76928 0.0
C403 C 0.32014 0.39132 0.78921 0.0
C404 C 0.3106 0.34039 0.78327 0.0
C405 C 0.36299 0.39113 0.77484 0.0
C406 C 0.29434 0.36574 0.7938 0.0
N407 N 0.41142 0.31866 0.7435 0.0
C408 C 0.42448 0.29651 0.72935 0.0
C409 C 0.34046 0.29157 0.75845 0.0
C410 C 0.36944 0.31702 0.75717 0.0
C411 C 0.35478 0.26829 0.74468 0.0
C412 C 0.39666 0.27089 0.72987 0.0
H413 H 0.26072 0.36601 0.80469 0.0
H414 H 0.24951 0.31354 0.79645 0.0
H415 H 0.27563 0.27079 0.77465 0.0
O416 O 0.45678 0.36322 0.705 0.0
O417 O 0.47403 0.32467 0.76581 0.0
O418 O 0.51148 0.34649 0.79655 0.0
O419 O 0.39277 0.38146 0.723 0.0
O420 O 0.52291 0.34019 0.72654 0.0
O421 O 0.57429 0.32332 0.7563 0.0
O422 O 0.63344 0.36144 0.81179 0.0
O423 O 0.58567 0.37837 0.74417 0.0
O424 O 0.50878 0.40094 0.74284 0.0
O425 O 0.62273 0.32209 0.79301 0.0
O426 O 0.51578 0.38206 0.79687 0.0
O427 O 0.47009 0.40098 0.76644 0.0
C428 C 0.48265 0.32618 0.78802 0.0
C429 C 0.37627 0.3596 0.687 0.0
C430 C 0.34591 0.3513 0.64772 0.0
C431 C 0.31076 0.33111 0.65634 0.0
C432 C 0.34039 0.33962 0.69516 0.0
C433 C 0.30807 0.3254 0.67988 0.0
C434 C 0.37873 0.3655 0.66326 0.0
C435 C 0.55752 0.32247 0.73481 0.0
C436 C 0.41139 0.37417 0.70307 0.0
C437 C 0.28314 0.31463 0.7856 0.0
C438 C 0.29791 0.2903 0.77314 0.0
C439 C 0.55672 0.39916 0.73662 0.0
C440 C 0.62402 0.31927 0.8339 0.0
C441 C 0.62651 0.31691 0.87605 0.0
C442 C 0.59072 0.29441 0.87538 0.0
C443 C 0.58837 0.29665 0.83381 0.0
C444 C 0.64345 0.32909 0.85515 0.0
C445 C 0.57209 0.28431 0.85442 0.0
C446 C 0.48382 0.40102 0.78829 0.0
C447 C 0.6386 0.33375 0.81212 0.0
H448 H 0.28454 0.32013 0.64492 0.0
H449 H 0.33706 0.33509 0.71333 0.0
H450 H 0.28053 0.31002 0.68633 0.0
H451 H 0.4064 0.38092 0.6569 0.0
H452 H 0.5774 0.28445 0.89113 0.0
H453 H 0.5724 0.28866 0.81786 0.0
H454 H 0.67052 0.34671 0.85544 0.0
H455 H 0.54453 0.26697 0.85414 0.0
Eu456 Eu 0.04359 0.86053 0.73914 0.0
C457 C 0.81787 0.82995 0.76168 0.0
N458 N 0.83734 0.85698 0.76181 0.0
C459 C 0.76466 0.87427 0.74119 0.0
C460 C 0.77087 0.824 0.75087 0.0
C461 C 0.81157 0.87912 0.75198 0.0
C462 C 0.74428 0.84658 0.74056 0.0
C463 C 0.82627 0.77988 0.77209 0.0
C464 C 0.84577 0.8081 0.77191 0.0
C465 C 0.77973 0.7738 0.76111 0.0
C466 C 0.75215 0.79579 0.75051 0.0
Eu467 Eu 0.91718 0.86322 0.77964 0.0
N468 N 0.89119 0.81452 0.78214 0.0
C469 C 0.8535 0.75869 0.78379 0.0
C470 C 0.91522 0.79446 0.79528 0.0
C471 C 0.89762 0.76616 0.79582 0.0
H472 H 0.82719 0.90053 0.75254 0.0
H473 H 0.91752 0.75025 0.80592 0.0
H474 H 0.12389 0.80928 0.75646 0.0
H475 H 0.07542 0.97604 0.73092 0.0
H476 H 0.94675 0.80019 0.80616 0.0
H477 H 0.83975 0.73678 0.78437 0.0
H478 H 0.02957 0.93046 0.7254 0.0
H479 H 0.74431 0.89187 0.73333 0.0
H480 H 0.76443 0.7522 0.76095 0.0
H481 H 0.71622 0.79077 0.74219 0.0
H482 H 0.20811 0.80538 0.77537 0.0
H483 H 0.70804 0.84286 0.73208 0.0
H484 H 0.15952 0.97653 0.75023 0.0
N485 N 0.12548 0.85463 0.75528 0.0
C486 C 0.15318 0.87891 0.75885 0.0
C487 C 0.19295 0.82621 0.77099 0.0
C488 C 0.20175 0.87776 0.76922 0.0
C489 C 0.14501 0.82845 0.76061 0.0
C490 C 0.2213 0.851 0.77548 0.0
N491 N 0.08568 0.9054 0.74225 0.0
C492 C 0.06564 0.93035 0.73415 0.0
C493 C 0.16082 0.93058 0.75529 0.0
C494 C 0.13302 0.90501 0.7519 0.0
C495 C 0.13942 0.95641 0.7479 0.0
C496 C 0.09187 0.95624 0.73707 0.0
H497 H 0.25847 0.8492 0.7835 0.0
H498 H 0.26652 0.90279 0.78096 0.0
H499 H 0.23062 0.94902 0.76884 0.0
O500 O 0.04399 0.86782 0.70191 0.0
O501 O 0.04838 0.88411 0.77351 0.0
O502 O 0.96809 0.90234 0.78008 0.0
O503 O 0.09519 0.83674 0.71664 0.0
O504 O 0.97536 0.88559 0.72559 0.0
O505 O 0.92618 0.9019 0.75636 0.0
O506 O 0.91082 0.8608 0.81718 0.0
O507 O 0.91051 0.84524 0.74335 0.0
O508 O 0.98775 0.82346 0.73914 0.0
O509 O 0.85888 0.88753 0.79812 0.0
O510 O 0.99073 0.84382 0.79343 0.0
O511 O 0.02844 0.82237 0.76206 0.0
C512 C 0.01774 0.90315 0.78276 0.0
C513 C 0.12374 0.86163 0.68356 0.0
C514 C 0.16026 0.87008 0.64534 0.0
C515 C 0.20297 0.88297 0.65583 0.0
C516 C 0.16671 0.87462 0.69355 0.0
C517 C 0.20601 0.88522 0.67974 0.0
C518 C 0.12063 0.8594 0.65945 0.0
C519 C 0.94148 0.90319 0.73468 0.0
C520 C 0.08199 0.85049 0.69811 0.0
C521 C 0.22927 0.90324 0.77289 0.0
C522 C 0.20885 0.92957 0.76596 0.0
C523 C 0.93969 0.82614 0.73337 0.0
C524 C 0.8285 0.86727 0.83313 0.0
C525 C 0.79377 0.86037 0.87188 0.0
C526 C 0.74743 0.85124 0.86213 0.0
C527 C 0.7821 0.85766 0.82377 0.0
C528 C 0.83436 0.86821 0.85722 0.0
C529 C 0.74188 0.84969 0.83824 0.0
C530 C 0.02219 0.82491 0.78443 0.0
C531 C 0.87067 0.87709 0.81818 0.0
H532 H 0.2345 0.89095 0.64557 0.0
H533 H 0.17012 0.87643 0.71199 0.0
H534 H 0.23913 0.89508 0.6876 0.0
H535 H 0.08719 0.84962 0.65173 0.0
H536 H 0.71571 0.84496 0.87302 0.0
H537 H 0.77674 0.85653 0.80531 0.0
H538 H 0.8701 0.87562 0.86455 0.0
H539 H 0.70615 0.84242 0.83092 0.0
Eu540 Eu 0.43931 0.63538 0.23594 0.0
C541 C 0.64128 0.68365 0.27035 0.0
N542 N 0.63207 0.6551 0.26889 0.0
C543 C 0.71192 0.64808 0.24956 0.0
C544 C 0.68557 0.69581 0.26056 0.0
C545 C 0.66719 0.63707 0.25939 0.0
C546 C 0.72082 0.67764 0.24985 0.0
C547 C 0.61645 0.73001 0.2852 0.0
C548 C 0.60695 0.70046 0.28233 0.0
C549 C 0.65912 0.74258 0.27448 0.0
C550 C 0.69364 0.7255 0.26218 0.0
Eu551 Eu 0.55407 0.63814 0.28413 0.0
N552 N 0.56643 0.68752 0.29267 0.0
C553 C 0.58405 0.74575 0.29957 0.0
C554 C 0.5383 0.70214 0.30858 0.0
C555 C 0.54554 0.73159 0.31175 0.0
H556 H 0.65996 0.61428 0.25897 0.0
H557 H 0.52195 0.74322 0.32385 0.0
H558 H 0.36831 0.69483 0.24412 0.0
H559 H 0.36298 0.52686 0.22751 0.0
H560 H 0.51048 0.69114 0.31909 0.0
H561 H 0.59001 0.76849 0.30224 0.0
H562 H 0.42214 0.5673 0.21938 0.0
H563 H 0.7393 0.63382 0.24165 0.0
H564 H 0.66666 0.76532 0.27623 0.0
H565 H 0.7271 0.73534 0.25451 0.0
H566 H 0.28909 0.70854 0.26452 0.0
H567 H 0.75536 0.68614 0.24213 0.0
H568 H 0.28859 0.53426 0.25317 0.0
N569 N 0.36031 0.6505 0.25175 0.0
C570 C 0.32846 0.62953 0.25927 0.0
C571 C 0.30001 0.68623 0.26345 0.0
C572 C 0.28211 0.63617 0.2704 0.0
C573 C 0.34507 0.67844 0.25213 0.0
C574 C 0.26898 0.66502 0.27315 0.0
N575 N 0.38213 0.59649 0.24084 0.0
C576 C 0.38932 0.57055 0.23039 0.0
C577 C 0.3048 0.57932 0.25854 0.0
C578 C 0.33956 0.60154 0.25345 0.0
C579 C 0.31435 0.55194 0.24966 0.0
C580 C 0.35616 0.54771 0.23506 0.0
H581 H 0.23378 0.67106 0.28165 0.0
H582 H 0.21377 0.61851 0.28609 0.0
H583 H 0.23367 0.56862 0.27567 0.0
O584 O 0.46368 0.63362 0.19994 0.0
O585 O 0.45253 0.59701 0.25932 0.0
O586 O 0.47656 0.61936 0.29237 0.0
O587 O 0.38618 0.64479 0.208 0.0
O588 O 0.50662 0.6063 0.22862 0.0
O589 O 0.56201 0.59973 0.25997 0.0
O590 O 0.58346 0.64215 0.31913 0.0
O591 O 0.5676 0.65067 0.2466 0.0
O592 O 0.49301 0.67324 0.2381 0.0
O593 O 0.59044 0.60179 0.30135 0.0
O594 O 0.47489 0.65504 0.29307 0.0
O595 O 0.44996 0.67464 0.25879 0.0
C596 C 0.45852 0.59686 0.28171 0.0
C597 C 0.42141 0.66432 0.17418 0.0
C598 C 0.40936 0.67838 0.13401 0.0
C599 C 0.42137 0.70684 0.14016 0.0
C600 C 0.43333 0.69271 0.17993 0.0
C601 C 0.43355 0.71383 0.16293 0.0
C602 C 0.41001 0.6572 0.15129 0.0
C603 C 0.54538 0.59353 0.23897 0.0
C604 C 0.41998 0.64186 0.19182 0.0
C605 C 0.24919 0.61388 0.2772 0.0
C606 C 0.2605 0.58547 0.27125 0.0
C607 C 0.54227 0.67023 0.23514 0.0
C608 C 0.65063 0.61222 0.33113 0.0
C609 C 0.70097 0.61217 0.36659 0.0
C610 C 0.74397 0.60379 0.35376 0.0
C611 C 0.69403 0.60403 0.31861 0.0
C612 C 0.65442 0.61641 0.35504 0.0
C613 C 0.74047 0.59989 0.32994 0.0
C614 C 0.44865 0.67406 0.28138 0.0
C615 C 0.6006 0.61613 0.32004 0.0
H616 H 0.4205 0.72385 0.12752 0.0
H617 H 0.44204 0.69849 0.19755 0.0
H618 H 0.44262 0.73577 0.16745 0.0
H619 H 0.40185 0.63504 0.14703 0.0
H620 H 0.78042 0.60054 0.36213 0.0
H621 H 0.69204 0.60071 0.30019 0.0
H622 H 0.62071 0.62245 0.36473 0.0
H623 H 0.77387 0.59355 0.32022 0.0
H624 H 0.09362 0.01409 0.36228 0.0
H625 H 0.15508 0.96454 0.30588 0.0
H626 H 0.13239 0.00236 0.27904 0.0
H627 H 0.0934 0.04891 0.27127 0.0
H628 H 0.03879 0.1004 0.32793 0.0
H629 H 0.0612 0.06248 0.35489 0.0
C630 C 0.1029 0.01165 0.3442 0.0
C631 C 0.12544 0.98611 0.33623 0.0
C632 C 0.09098 0.03386 0.32881 0.0
C633 C 0.13645 0.98347 0.31258 0.0
C634 C 0.12393 0.00525 0.29716 0.0
C635 C 0.08713 0.05214 0.28954 0.0
C636 C 0.06444 0.07759 0.29746 0.0
C637 C 0.10086 0.03044 0.30505 0.0
C638 C 0.05606 0.08105 0.32124 0.0
C639 C 0.06885 0.05934 0.33673 0.0
H640 H 0.42036 0.48685 0.86712 0.0
H641 H 0.37187 0.53634 0.80827 0.0
H642 H 0.40021 0.49852 0.78257 0.0
H643 H 0.441 0.45196 0.77651 0.0
H644 H 0.48055 0.40008 0.83526 0.0
H645 H 0.4528 0.43813 0.86118 0.0
C646 C 0.4151 0.48928 0.84873 0.0
C647 C 0.39491 0.5149 0.83981 0.0
C648 C 0.43001 0.46699 0.83392 0.0
C649 C 0.38889 0.51744 0.81578 0.0
C650 C 0.40461 0.49564 0.80098 0.0
C651 C 0.44292 0.4488 0.79499 0.0
C652 C 0.46344 0.42335 0.80389 0.0
C653 C 0.4257 0.47045 0.80983 0.0
C654 C 0.46564 0.41965 0.8279 0.0
C655 C 0.44965 0.44137 0.84277 0.0
H656 H 0.67292 0.47533 0.66341 0.0
H657 H 0.55814 0.53605 0.68429 0.0
H658 H 0.52119 0.50076 0.71065 0.0
H659 H 0.52245 0.45291 0.72825 0.0
H660 H 0.63825 0.39245 0.70796 0.0
H661 H 0.67418 0.42735 0.68108 0.0
C662 C 0.63952 0.48066 0.67359 0.0
C663 C 0.61811 0.50815 0.67188 0.0
C664 C 0.61897 0.46041 0.68894 0.0
C665 C 0.57534 0.51502 0.6854 0.0
C666 C 0.5542 0.49487 0.70044 0.0
C667 C 0.55537 0.44735 0.71783 0.0
C668 C 0.57784 0.42022 0.72016 0.0
C669 C 0.57584 0.46755 0.70243 0.0
C670 C 0.6207 0.41335 0.70671 0.0
C671 C 0.64108 0.43323 0.69123 0.0
H672 H 0.83267 0.02189 0.16706 0.0
H673 H 0.95548 0.96302 0.18047 0.0
H674 H 0.99849 0.99897 0.20421 0.0
H675 H 0.00106 0.04691 0.22129 0.0
H676 H 0.8771 0.10564 0.20923 0.0
H677 H 0.83435 0.06996 0.18513 0.0
C678 C 0.869 0.01712 0.1751 0.0
C679 C 0.8911 0.98997 0.17197 0.0
C680 C 0.89306 0.03776 0.18909 0.0
C681 C 0.93779 0.98378 0.1827 0.0
C682 C 0.96236 0.00432 0.19625 0.0
C683 C 0.96475 0.05197 0.21335 0.0
C684 C 0.9424 0.07894 0.21704 0.0
C685 C 0.94032 0.03133 0.1996 0.0
C686 C 0.89503 0.08499 0.20681 0.0
C687 C 0.87066 0.06463 0.19292 0.0
H688 H 0.84824 0.01249 0.68704 0.0
H689 H 0.94131 0.98249 0.63063 0.0
H690 H 0.96541 0.9404 0.65313 0.0
H691 H 0.96387 0.9137 0.68954 0.0
H692 H 0.87532 0.94595 0.74674 0.0
H693 H 0.84615 0.98577 0.72318 0.0
C694 C 0.87419 0.99691 0.67967 0.0
C695 C 0.89336 0.00089 0.65722 0.0
C696 C 0.88885 0.9732 0.69287 0.0
C697 C 0.92571 0.97996 0.64778 0.0
C698 C 0.93981 0.95598 0.66071 0.0
C699 C 0.93799 0.92932 0.69689 0.0
C700 C 0.92182 0.92666 0.71996 0.0
C701 C 0.92214 0.9526 0.68338 0.0
C702 C 0.88828 0.94723 0.72906 0.0
C703 C 0.87166 0.97013 0.71561 0.0
H704 H 0.67587 0.49479 0.19291 0.0
H705 H 0.55834 0.50337 0.14131 0.0
H706 H 0.51884 0.54157 0.16355 0.0
H707 H 0.51623 0.57167 0.19766 0.0
H708 H 0.63114 0.56261 0.25041 0.0
H709 H 0.67238 0.52492 0.22782 0.0
C710 C 0.64137 0.50482 0.18659 0.0
C711 C 0.62035 0.49615 0.16532 0.0
C712 C 0.61815 0.52654 0.19972 0.0
C713 C 0.57605 0.50983 0.15733 0.0
C714 C 0.55309 0.53155 0.17016 0.0
C715 C 0.55034 0.5616 0.20437 0.0
C716 C 0.57052 0.57018 0.22579 0.0
C717 C 0.57369 0.53997 0.19137 0.0
C718 C 0.61466 0.55656 0.23402 0.0
C719 C 0.63833 0.535 0.22108 0.0
H720 H 0.39114 0.47788 0.32343 0.0
H721 H 0.37729 0.52942 0.38483 0.0
H722 H 0.4077 0.5714 0.3637 0.0
H723 H 0.4355 0.5939 0.32739 0.0
H724 H 0.44735 0.54227 0.266 0.0
H725 H 0.41909 0.50014 0.28738 0.0
C726 C 0.39426 0.49833 0.33219 0.0
C727 C 0.38168 0.5004 0.35572 0.0
C728 C 0.41094 0.52248 0.31986 0.0
C729 C 0.3872 0.52702 0.36683 0.0
C730 C 0.40424 0.55113 0.35471 0.0
C731 C 0.43208 0.57339 0.31873 0.0
C732 C 0.44279 0.57132 0.29504 0.0
C733 C 0.41593 0.54915 0.33118 0.0
C734 C 0.43821 0.5446 0.28408 0.0
C735 C 0.42244 0.52043 0.29634 0.0
H736 H 0.08374 0.01663 0.8337 0.0
H737 H 0.2107 0.96349 0.85319 0.0
H738 H 0.17554 0.92364 0.83062 0.0
H739 H 0.10757 0.90381 0.806 0.0
H740 H 0.97858 0.95657 0.78822 0.0
H741 H 0.01554 0.99672 0.80949 0.0
C742 C 0.10367 0.99631 0.83291 0.0
C743 C 0.14964 0.99287 0.84498 0.0
C744 C 0.08277 0.97348 0.82032 0.0
C745 C 0.17502 0.96645 0.84411 0.0
C746 C 0.15503 0.94376 0.83119 0.0
C747 C 0.08769 0.92414 0.80676 0.0
C748 C 0.0404 0.92726 0.79564 0.0
C749 C 0.10877 0.94699 0.81933 0.0
C750 C 0.01481 0.9536 0.79685 0.0
C751 C 0.03599 0.97659 0.80892 0.0
H752 H 0.17445 0.14348 0.03638 0.0
H753 H 0.29489 0.08086 0.0334 0.0
H754 H 0.29697 0.0785 0.07539 0.0
H755 H 0.26464 0.09406 0.11294 0.0
H756 H 0.14209 0.15528 0.11654 0.0
H757 H 0.14019 0.15819 0.0744 0.0
C758 C 0.20121 0.12946 0.04501 0.0
C759 C 0.23459 0.11242 0.03188 0.0
C760 C 0.20159 0.12785 0.06923 0.0
C761 C 0.26872 0.09406 0.04319 0.0
C762 C 0.26997 0.09273 0.06717 0.0
C763 C 0.23766 0.10813 0.10448 0.0
C764 C 0.20381 0.12458 0.1178 0.0
C765 C 0.23659 0.10949 0.08035 0.0
C766 C 0.16839 0.14232 0.10663 0.0
C767 C 0.16749 0.14409 0.08256 0.0
H768 H 0.33044 0.39803 0.54575 0.0
H769 H 0.32429 0.30725 0.53157 0.0
H770 H 0.3352 0.29686 0.57234 0.0
H771 H 0.34328 0.31332 0.61225 0.0
H772 H 0.35052 0.40384 0.62682 0.0
H773 H 0.34409 0.41449 0.58567 0.0
C774 C 0.3322 0.37597 0.5515 0.0
C775 C 0.32575 0.3535 0.53552 0.0
C776 C 0.3389 0.37006 0.57509 0.0
C777 C 0.32785 0.32503 0.54345 0.0
C778 C 0.33447 0.31903 0.56679 0.0
C779 C 0.34348 0.33539 0.60641 0.0
C780 C 0.34695 0.35775 0.62261 0.0
C781 C 0.33931 0.34134 0.58279 0.0
C782 C 0.34818 0.38622 0.61472 0.0
C783 C 0.34413 0.39232 0.5912 0.0
H784 H 0.73866 0.35238 0.96849 0.0
H785 H 0.58259 0.35651 0.99203 0.0
H786 H 0.55231 0.3441 0.95359 0.0
H787 H 0.56987 0.33058 0.91357 0.0
H788 H 0.72527 0.32705 0.88929 0.0
H789 H 0.75612 0.34097 0.92754 0.0
C790 C 0.69806 0.35054 0.96515 0.0
C791 C 0.66295 0.35533 0.98314 0.0
C792 C 0.68079 0.34355 0.94286 0.0
C793 C 0.61041 0.3532 0.97848 0.0
C794 C 0.59305 0.34597 0.95652 0.0
C795 C 0.61051 0.33288 0.91667 0.0
C796 C 0.64526 0.32756 0.89868 0.0
C797 C 0.62784 0.34091 0.93863 0.0
C798 C 0.69775 0.33113 0.90283 0.0
C799 C 0.71538 0.33892 0.92473 0.0
H800 H 0.8445 0.12299 0.46733 0.0
H801 H 0.88235 0.20782 0.49172 0.0
H802 H 0.89675 0.22379 0.45233 0.0
H803 H 0.89377 0.21473 0.41093 0.0
H804 H 0.85475 0.13057 0.38576 0.0
H805 H 0.84738 0.11303 0.42541 0.0
C806 C 0.85656 0.14486 0.46402 0.0
C807 C 0.8615 0.16428 0.4825 0.0
C808 C 0.86476 0.15401 0.44118 0.0
C809 C 0.87706 0.19257 0.47785 0.0
C810 C 0.88564 0.20171 0.45532 0.0
C811 C 0.88381 0.1925 0.4141 0.0
C812 C 0.87423 0.17408 0.3954 0.0
C813 C 0.87869 0.18279 0.43685 0.0
C814 C 0.86249 0.14518 0.39982 0.0
C815 C 0.85784 0.13522 0.42251 0.0
H816 H 0.84038 0.85033 0.97859 0.0
H817 H 0.7082 0.90486 0.98206 0.0
H818 H 0.70146 0.90442 0.94005 0.0
H819 H 0.73244 0.88794 0.90227 0.0
H820 H 0.86765 0.83586 0.89836 0.0
H821 H 0.87436 0.83602 0.94046 0.0
C822 C 0.8102 0.86208 0.97006 0.0
C823 C 0.77464 0.87748 0.98332 0.0
C824 C 0.80723 0.86219 0.94584 0.0
C825 C 0.73602 0.89293 0.97215 0.0
C826 C 0.73211 0.89262 0.94816 0.0
C827 C 0.76336 0.87667 0.91069 0.0
C828 C 0.79932 0.86175 0.89731 0.0
C829 C 0.76737 0.87726 0.93483 0.0
C830 C 0.83963 0.84755 0.90834 0.0
C831 C 0.84333 0.84755 0.93239 0.0
H832 H 0.6922 0.64492 0.4724 0.0
H833 H 0.77284 0.56483 0.47787 0.0
H834 H 0.7714 0.55942 0.43604 0.0
H835 H 0.7457 0.57691 0.39787 0.0
H836 H 0.66325 0.6564 0.39229 0.0
H837 H 0.66686 0.6626 0.43407 0.0
C838 C 0.70981 0.62643 0.46439 0.0
C839 C 0.73256 0.6053 0.47824 0.0
C840 C 0.70834 0.62329 0.44029 0.0
C841 C 0.75466 0.58126 0.46762 0.0
C842 C 0.75401 0.5782 0.44369 0.0
C843 C 0.72896 0.59572 0.4058 0.0
C844 C 0.70431 0.61617 0.39197 0.0
C845 C 0.73074 0.599 0.42985 0.0
C846 C 0.68208 0.64021 0.40255 0.0
C847 C 0.6843 0.64382 0.42643 0.0
H848 H 0.32597 0.63314 0.03814 0.0
H849 H 0.43081 0.69727 0.01298 0.0
H850 H 0.45593 0.70895 0.05245 0.0
H851 H 0.44819 0.7008 0.09404 0.0
H852 H 0.3384 0.63904 0.11927 0.0
H853 H 0.3161 0.62617 0.07993 0.0
C854 C 0.35451 0.64955 0.04137 0.0
C855 C 0.37665 0.66428 0.02275 0.0
C856 C 0.3681 0.65648 0.06411 0.0
C857 C 0.41309 0.68576 0.02709 0.0
C858 C 0.42752 0.69239 0.04963 0.0
C859 C 0.4189 0.68478 0.09103 0.0
C860 C 0.39542 0.67085 0.10981 0.0
C861 C 0.40513 0.67796 0.06829 0.0
C862 C 0.35812 0.64976 0.10532 0.0
C863 C 0.34491 0.64251 0.08276 0.0
H864 H 0.14794 0.83931 0.53919 0.0
H865 H 0.20999 0.92484 0.53381 0.0
H866 H 0.20652 0.93008 0.57554 0.0
H867 H 0.18746 0.91026 0.61362 0.0
H868 H 0.12773 0.82431 0.61952 0.0
H869 H 0.12816 0.8195 0.5776 0.0
C870 C 0.161 0.85902 0.54717 0.0
C871 C 0.17917 0.88164 0.53332 0.0
C872 C 0.1591 0.86189 0.57129 0.0
C873 C 0.19523 0.9072 0.54397 0.0
C874 C 0.19351 0.91018 0.56787 0.0
C875 C 0.17482 0.89038 0.60577 0.0
C876 C 0.15786 0.86764 0.61977 0.0
C877 C 0.17572 0.88765 0.5817 0.0
C878 C 0.14055 0.84228 0.60921 0.0
C879 C 0.14115 0.83943 0.58522 0.0
H880 H 0.21104 0.25162 0.33875 0.0
H881 H 0.06828 0.29215 0.35551 0.0
H882 H 0.02265 0.25853 0.33031 0.0
H883 H 0.02418 0.21839 0.30262 0.0
H884 H 0.16677 0.17548 0.28906 0.0
H885 H 0.21164 0.20931 0.31356 0.0
C886 C 0.16991 0.25297 0.33687 0.0
C887 C 0.14296 0.27434 0.34873 0.0
C888 C 0.14404 0.23335 0.32271 0.0
C889 C 0.08966 0.27577 0.34651 0.0
C890 C 0.06369 0.25665 0.33206 0.0
C891 C 0.06508 0.21645 0.30498 0.0
C892 C 0.09225 0.19493 0.2932 0.0
C893 C 0.09057 0.23547 0.31991 0.0
C894 C 0.14502 0.19236 0.29707 0.0
C895 C 0.17077 0.21159 0.31134 0.0
H896 H 0.39058 0.24958 0.86771 0.0
H897 H 0.3498 0.19692 0.80931 0.0
H898 H 0.39115 0.23069 0.78347 0.0
H899 H 0.44038 0.27468 0.7773 0.0
H900 H 0.47332 0.33018 0.83476 0.0
H901 H 0.43418 0.29569 0.86106 0.0
C902 C 0.38997 0.24564 0.84932 0.0
C903 C 0.36772 0.22031 0.84067 0.0
C904 C 0.41267 0.26565 0.83432 0.0
C905 C 0.36785 0.21568 0.81669 0.0
C906 C 0.39114 0.23516 0.80178 0.0
C907 C 0.43783 0.2796 0.79547 0.0
C908 C 0.45887 0.30521 0.8039 0.0
C909 C 0.4139 0.26011 0.8104 0.0
C910 C 0.45717 0.31066 0.82771 0.0
C911 C 0.43461 0.29099 0.84279 0.0
H912 H 0.63623 0.24493 0.65291 0.0
H913 H 0.73819 0.21541 0.70606 0.0
H914 H 0.69754 0.24723 0.73385 0.0
H915 H 0.63329 0.28361 0.74313 0.0
H916 H 0.53357 0.31445 0.68947 0.0
H917 H 0.57302 0.28196 0.66202 0.0
C918 C 0.64994 0.24568 0.6705 0.0
C919 C 0.6901 0.22767 0.67734 0.0
C920 C 0.62664 0.2642 0.68642 0.0
C921 C 0.70685 0.22868 0.70035 0.0
C922 C 0.68377 0.24698 0.71627 0.0
C923 C 0.62017 0.28331 0.72544 0.0
C924 C 0.5806 0.30168 0.7185 0.0
C925 C 0.64354 0.2648 0.70952 0.0
C926 C 0.564 0.3007 0.69545 0.0
C927 C 0.58663 0.28212 0.67963 0.0
H928 H 0.86574 0.24208 0.14685 0.0
H929 H 0.8796 0.31105 0.19604 0.0
H930 H 0.92586 0.27981 0.2222 0.0
H931 H 0.96071 0.23262 0.23171 0.0
H932 H 0.95013 0.16391 0.18231 0.0
H933 H 0.90519 0.19541 0.15551 0.0
C934 C 0.87947 0.25039 0.16314 0.0
C935 C 0.86843 0.27881 0.16954 0.0
C936 C 0.90667 0.23234 0.17811 0.0
C937 C 0.88638 0.2891 0.19084 0.0
C938 C 0.91317 0.2713 0.2058 0.0
C939 C 0.94858 0.2246 0.21506 0.0
C940 C 0.95831 0.196 0.20903 0.0
C941 C 0.92304 0.24282 0.19974 0.0
C942 C 0.94309 0.18592 0.1873 0.0
C943 C 0.91725 0.20388 0.17201 0.0
H944 H 0.81133 0.75268 0.66242 0.0
H945 H 0.94206 0.69744 0.66871 0.0
H946 H 0.98296 0.7318 0.69467 0.0
H947 H 0.98 0.77657 0.71681 0.0
H948 H 0.8481 0.83129 0.71144 0.0
H949 H 0.80906 0.79809 0.68415 0.0
C950 C 0.84906 0.74844 0.66926 0.0
C951 C 0.87382 0.7227 0.66363 0.0
C952 C 0.87184 0.76802 0.68456 0.0
C953 C 0.92233 0.71715 0.67286 0.0
C954 C 0.94565 0.73674 0.68771 0.0
C955 C 0.94285 0.78133 0.70958 0.0
C956 C 0.91689 0.80629 0.71633 0.0
C957 C 0.92052 0.76209 0.6939 0.0
C958 C 0.86868 0.81205 0.70681 0.0
C959 C 0.84639 0.79314 0.69108 0.0
H960 H 0.68695 0.73947 0.16772 0.0
H961 H 0.56734 0.80189 0.17579 0.0
H962 H 0.51934 0.76876 0.20028 0.0
H963 H 0.51304 0.72292 0.22072 0.0
H964 H 0.63304 0.66058 0.21341 0.0
H965 H 0.67963 0.69286 0.18768 0.0
C966 C 0.65013 0.74561 0.17467 0.0
C967 C 0.63062 0.77302 0.16997 0.0
C968 C 0.62318 0.72663 0.18912 0.0
C969 C 0.58317 0.78093 0.17929 0.0
C970 C 0.55575 0.76202 0.19329 0.0
C971 C 0.54914 0.71629 0.21331 0.0
C972 C 0.56969 0.68946 0.21906 0.0
C973 C 0.57563 0.73496 0.19853 0.0
C974 C 0.61676 0.6813 0.20951 0.0
C975 C 0.64327 0.69968 0.19468 0.0
H976 H 0.33447 0.78067 0.32337 0.0
H977 H 0.30834 0.72065 0.37868 0.0
H978 H 0.35578 0.68396 0.35766 0.0
H979 H 0.40405 0.66878 0.32332 0.0
H980 H 0.42858 0.7287 0.2679 0.0
H981 H 0.38136 0.76542 0.289 0.0
C982 C 0.33853 0.75947 0.33075 0.0
C983 C 0.31763 0.75347 0.35259 0.0
C984 C 0.36535 0.73841 0.31848 0.0
C985 C 0.32442 0.72601 0.36205 0.0
C986 C 0.35129 0.70495 0.34997 0.0
C987 C 0.399 0.68991 0.31592 0.0
C988 C 0.4194 0.69603 0.29406 0.0
C989 C 0.3719 0.71091 0.32817 0.0
C990 C 0.41265 0.72342 0.28459 0.0
C991 C 0.38588 0.74444 0.29669 0.0
H992 H 0.13402 0.75737 0.86369 0.0
H993 H 0.17427 0.70309 0.80624 0.0
H994 H 0.1252 0.73332 0.78041 0.0
H995 H 0.0703 0.77491 0.774 0.0
H996 H 0.03669 0.8318 0.83058 0.0
H997 H 0.08342 0.80069 0.85681 0.0
C998 C 0.13273 0.75231 0.84549 0.0
C999 C 0.15749 0.72769 0.8371 0.0
C1000 C 0.10541 0.7702 0.83051 0.0
C1001 C 0.15464 0.72142 0.81341 0.0
C1002 C 0.12687 0.73884 0.79852 0.0
C1003 C 0.07397 0.78081 0.79198 0.0
C1004 C 0.05068 0.80588 0.8002 0.0
C1005 C 0.102 0.76323 0.80688 0.0
C1006 C 0.0544 0.81266 0.82373 0.0
C1007 C 0.08126 0.79493 0.83877 0.0
loop_
_geom_bond_atom_site_label_1
_geom_bond_atom_site_label_2
_geom_bond_distance
_geom_bond_site_symmetry_2
_ccdc_geom_bond_type
C0 C1 1.384 . S
C0 H13 0.947 . S
C0 C35 1.382 . S
C1 C0 1.384 . S
C1 C2 1.378 . S
C2 C1 1.378 . S
C2 C3 1.378 . S
C2 H14 0.952 . S
C3 C2 1.378 . S
C3 H15 0.950 . S
C3 C34 1.383 . S
H4 C23 0.947 . S
H5 C24 0.946 . S
H6 C26 0.953 . S
H7 C27 0.945 . S
H8 C29 0.952 . S
H9 C30 0.949 . S
H10 C32 0.950 . S
H11 C33 0.948 . S
H12 C35 0.951 . S
H13 C0 0.947 . S
H14 C2 0.952 . S
H15 C3 0.950 . S
N16 C19 1.382 . S
N16 C21 1.363 . S
N17 C19 1.371 . S
N17 C20 1.372 . S
N18 C20 1.361 . S
N18 C21 1.377 . S
C19 N16 1.382 . S
C19 N17 1.371 . S
C19 C22 1.480 . S
C20 N17 1.372 . S
C20 N18 1.361 . S
C20 C28 1.457 . S
C21 N16 1.363 . S
C21 N18 1.377 . S
C21 C34 1.479 . S
C22 C19 1.480 . S
C22 C23 1.383 . S
C22 C27 1.385 . S
C23 H4 0.947 . S
C23 C22 1.383 . S
C23 C24 1.388 . S
C24 H5 0.946 . S
C24 C23 1.388 . S
C24 C25 1.384 . S
C25 C24 1.384 . S
C25 C26 1.377 . S
C26 H6 0.953 . S
C26 C25 1.377 . S
C26 C27 1.369 . S
C27 H7 0.945 . S
C27 C22 1.385 . S
C27 C26 1.369 . S
C28 C20 1.457 . S
C28 C29 1.372 . S
C28 C33 1.364 . S
C29 H8 0.952 . S
C29 C28 1.372 . S
C29 C30 1.389 . S
C30 H9 0.949 . S
C30 C29 1.389 . S
C30 C31 1.387 . S
C31 C30 1.387 . S
C31 C32 1.372 . S
C32 H10 0.950 . S
C32 C31 1.372 . S
C32 C33 1.379 . S
C33 H11 0.948 . S
C33 C28 1.364 . S
C33 C32 1.379 . S
C34 C3 1.383 . S
C34 C21 1.479 . S
C34 C35 1.398 . S
C35 C0 1.382 . S
C35 H12 0.951 . S
C35 C34 1.398 . S
C36 C37 1.384 . S
C36 H49 0.947 . S
C36 C71 1.382 . S
C37 C36 1.384 . S
C37 C38 1.378 . S
C38 C37 1.378 . S
C38 C39 1.378 . S
C38 H50 0.952 . S
C39 C38 1.378 . S
C39 H51 0.950 . S
C39 C70 1.383 . S
H40 C59 0.947 . S
H41 C60 0.946 . S
H42 C62 0.953 . S
H43 C63 0.945 . S
H44 C65 0.952 . S
H45 C66 0.949 . S
H46 C68 0.950 . S
H47 C69 0.948 . S
H48 C71 0.951 . S
H49 C36 0.947 . S
H50 C38 0.952 . S
H51 C39 0.950 . S
N52 C55 1.382 . S
N52 C57 1.363 . S
N53 C55 1.371 . S
N53 C56 1.372 . S
N54 C56 1.361 . S
N54 C57 1.377 . S
C55 N52 1.382 . S
C55 N53 1.371 . S
C55 C58 1.480 . S
C56 N53 1.372 . S
C56 N54 1.361 . S
C56 C64 1.457 . S
C57 N52 1.363 . S
C57 N54 1.377 . S
C57 C70 1.479 . S
C58 C55 1.480 . S
C58 C59 1.383 . S
C58 C63 1.385 . S
C59 H40 0.947 . S
C59 C58 1.383 . S
C59 C60 1.388 . S
C60 H41 0.946 . S
C60 C59 1.388 . S
C60 C61 1.384 . S
C61 C60 1.384 . S
C61 C62 1.377 . S
C62 H42 0.953 . S
C62 C61 1.377 . S
C62 C63 1.369 . S
C63 H43 0.945 . S
C63 C58 1.385 . S
C63 C62 1.369 . S
C64 C56 1.457 . S
C64 C65 1.372 . S
C64 C69 1.364 . S
C65 H44 0.952 . S
C65 C64 1.372 . S
C65 C66 1.389 . S
C66 H45 0.949 . S
C66 C65 1.389 . S
C66 C67 1.387 . S
C67 C66 1.387 . S
C67 C68 1.372 . S
C68 H46 0.950 . S
C68 C67 1.372 . S
C68 C69 1.379 . S
C69 H47 0.948 . S
C69 C64 1.364 . S
C69 C68 1.379 . S
C70 C39 1.383 . S
C70 C57 1.479 . S
C70 C71 1.398 . S
C71 C36 1.382 . S
C71 H48 0.951 . S
C71 C70 1.398 . S
C72 C73 1.384 . S
C72 H85 0.947 . S
C72 C107 1.382 . S
C73 C72 1.384 . S
C73 C74 1.378 . S
C74 C73 1.378 . S
C74 C75 1.378 . S
C74 H86 0.952 . S
C75 C74 1.378 . S
C75 H87 0.950 . S
C75 C106 1.383 . S
H76 C95 0.947 . S
H77 C96 0.946 . S
H78 C98 0.953 . S
H79 C99 0.945 . S
H80 C101 0.952 . S
H81 C102 0.949 . S
H82 C104 0.950 . S
H83 C105 0.948 . S
H84 C107 0.951 . S
H85 C72 0.947 . S
H86 C74 0.952 . S
H87 C75 0.950 . S
N88 C91 1.382 . S
N88 C93 1.363 . S
N89 C91 1.371 . S
N89 C92 1.372 . S
N90 C92 1.361 . S
N90 C93 1.377 . S
C91 N88 1.382 . S
C91 N89 1.371 . S
C91 C94 1.480 . S
C92 N89 1.372 . S
C92 N90 1.361 . S
C92 C100 1.457 . S
C93 N88 1.363 . S
C93 N90 1.377 . S
C93 C106 1.479 . S
C94 C91 1.480 . S
C94 C95 1.383 . S
C94 C99 1.385 . S
C95 H76 0.947 . S
C95 C94 1.383 . S
C95 C96 1.388 . S
C96 H77 0.946 . S
C96 C95 1.388 . S
C96 C97 1.384 . S
C97 C96 1.384 . S
C97 C98 1.377 . S
C98 H78 0.953 . S
C98 C97 1.377 . S
C98 C99 1.369 . S
C99 H79 0.945 . S
C99 C94 1.385 . S
C99 C98 1.369 . S
C100 C92 1.457 . S
C100 C101 1.372 . S
C100 C105 1.364 . S
C101 H80 0.952 . S
C101 C100 1.372 . S
C101 C102 1.389 . S
C102 H81 0.949 . S
C102 C101 1.389 . S
C102 C103 1.387 . S
C103 C102 1.387 . S
C103 C104 1.372 . S
C104 H82 0.950 . S
C104 C103 1.372 . S
C104 C105 1.379 . S
C105 H83 0.948 . S
C105 C100 1.364 . S
C105 C104 1.379 . S
C106 C75 1.383 . S
C106 C93 1.479 . S
C106 C107 1.398 . S
C107 C72 1.382 . S
C107 H84 0.951 . S
C107 C106 1.398 . S
C108 C109 1.384 . S
C108 H121 0.947 . S
C108 C143 1.382 . S
C109 C108 1.384 . S
C109 C110 1.378 . S
C110 C109 1.378 . S
C110 C111 1.378 . S
C110 H122 0.952 . S
C111 C110 1.378 . S
C111 H123 0.950 . S
C111 C142 1.383 . S
H112 C131 0.947 . S
H113 C132 0.946 . S
H114 C134 0.953 . S
H115 C135 0.945 . S
H116 C137 0.952 . S
H117 C138 0.949 . S
H118 C140 0.950 . S
H119 C141 0.948 . S
H120 C143 0.951 . S
H121 C108 0.947 . S
H122 C110 0.952 . S
H123 C111 0.950 . S
N124 C127 1.382 . S
N124 C129 1.363 . S
N125 C127 1.371 . S
N125 C128 1.372 . S
N126 C128 1.361 . S
N126 C129 1.377 . S
C127 N124 1.382 . S
C127 N125 1.371 . S
C127 C130 1.480 . S
C128 N125 1.372 . S
C128 N126 1.361 . S
C128 C136 1.457 . S
C129 N124 1.363 . S
C129 N126 1.377 . S
C129 C142 1.479 . S
C130 C127 1.480 . S
C130 C131 1.383 . S
C130 C135 1.385 . S
C131 H112 0.947 . S
C131 C130 1.383 . S
C131 C132 1.388 . S
C132 H113 0.946 . S
C132 C131 1.388 . S
C132 C133 1.384 . S
C133 C132 1.384 . S
C133 C134 1.377 . S
C134 H114 0.953 . S
C134 C133 1.377 . S
C134 C135 1.369 . S
C135 H115 0.945 . S
C135 C130 1.385 . S
C135 C134 1.369 . S
C136 C128 1.457 . S
C136 C137 1.372 . S
C136 C141 1.364 . S
C137 H116 0.952 . S
C137 C136 1.372 . S
C137 C138 1.389 . S
C138 H117 0.949 . S
C138 C137 1.389 . S
C138 C139 1.387 . S
C139 C138 1.387 . S
C139 C140 1.372 . S
C140 H118 0.950 . S
C140 C139 1.372 . S
C140 C141 1.379 . S
C141 H119 0.948 . S
C141 C136 1.364 . S
C141 C140 1.379 . S
C142 C111 1.383 . S
C142 C129 1.479 . S
C142 C143 1.398 . S
C143 C108 1.382 . S
C143 H120 0.951 . S
C143 C142 1.398 . S
C144 C145 1.384 . S
C144 H157 0.947 . S
C144 C179 1.382 . S
C145 C144 1.384 . S
C145 C146 1.378 . S
C146 C145 1.378 . S
C146 C147 1.378 . S
C146 H158 0.952 . S
C147 C146 1.378 . S
C147 H159 0.950 . S
C147 C178 1.383 . S
H148 C167 0.947 . S
H149 C168 0.946 . S
H150 C170 0.953 . S
H151 C171 0.945 . S
H152 C173 0.952 . S
H153 C174 0.949 . S
H154 C176 0.950 . S
H155 C177 0.948 . S
H156 C179 0.951 . S
H157 C144 0.947 . S
H158 C146 0.952 . S
H159 C147 0.950 . S
N160 C163 1.382 . S
N160 C165 1.363 . S
N161 C163 1.371 . S
N161 C164 1.372 . S
N162 C164 1.361 . S
N162 C165 1.377 . S
C163 N160 1.382 . S
C163 N161 1.371 . S
C163 C166 1.480 . S
C164 N161 1.372 . S
C164 N162 1.361 . S
C164 C172 1.457 . S
C165 N160 1.363 . S
C165 N162 1.377 . S
C165 C178 1.479 . S
C166 C163 1.480 . S
C166 C167 1.383 . S
C166 C171 1.385 . S
C167 H148 0.947 . S
C167 C166 1.383 . S
C167 C168 1.388 . S
C168 H149 0.946 . S
C168 C167 1.388 . S
C168 C169 1.384 . S
C169 C168 1.384 . S
C169 C170 1.377 . S
C170 H150 0.953 . S
C170 C169 1.377 . S
C170 C171 1.369 . S
C171 H151 0.945 . S
C171 C166 1.385 . S
C171 C170 1.369 . S
C172 C164 1.457 . S
C172 C173 1.372 . S
C172 C177 1.364 . S
C173 H152 0.952 . S
C173 C172 1.372 . S
C173 C174 1.389 . S
C174 H153 0.949 . S
C174 C173 1.389 . S
C174 C175 1.387 . S
C175 C174 1.387 . S
C175 C176 1.372 . S
C176 H154 0.950 . S
C176 C175 1.372 . S
C176 C177 1.379 . S
C177 H155 0.948 . S
C177 C172 1.364 . S
C177 C176 1.379 . S
C178 C147 1.383 . S
C178 C165 1.479 . S
C178 C179 1.398 . S
C179 C144 1.382 . S
C179 H156 0.951 . S
C179 C178 1.398 . S
C180 C181 1.384 . S
C180 H193 0.947 . S
C180 C215 1.382 . S
C181 C180 1.384 . S
C181 C182 1.378 . S
C182 C181 1.378 . S
C182 C183 1.378 . S
C182 H194 0.952 . S
C183 C182 1.378 . S
C183 H195 0.950 . S
C183 C214 1.383 . S
H184 C203 0.947 . S
H185 C204 0.946 . S
H186 C206 0.953 . S
H187 C207 0.945 . S
H188 C209 0.952 . S
H189 C210 0.949 . S
H190 C212 0.950 . S
H191 C213 0.948 . S
H192 C215 0.951 . S
H193 C180 0.947 . S
H194 C182 0.952 . S
H195 C183 0.950 . S
N196 C199 1.382 . S
N196 C201 1.363 . S
N197 C199 1.371 . S
N197 C200 1.372 . S
N198 C200 1.361 . S
N198 C201 1.377 . S
C199 N196 1.382 . S
C199 N197 1.371 . S
C199 C202 1.480 . S
C200 N197 1.372 . S
C200 N198 1.361 . S
C200 C208 1.457 . S
C201 N196 1.363 . S
C201 N198 1.377 . S
C201 C214 1.479 . S
C202 C199 1.480 . S
C202 C203 1.383 . S
C202 C207 1.385 . S
C203 H184 0.947 . S
C203 C202 1.383 . S
C203 C204 1.388 . S
C204 H185 0.946 . S
C204 C203 1.388 . S
C204 C205 1.384 . S
C205 C204 1.384 . S
C205 C206 1.377 . S
C206 H186 0.953 . S
C206 C205 1.377 . S
C206 C207 1.369 . S
C207 H187 0.945 . S
C207 C202 1.385 . S
C207 C206 1.369 . S
C208 C200 1.457 . S
C208 C209 1.372 . S
C208 C213 1.364 . S
C209 H188 0.952 . S
C209 C208 1.372 . S
C209 C210 1.389 . S
C210 H189 0.949 . S
C210 C209 1.389 . S
C210 C211 1.387 . S
C211 C210 1.387 . S
C211 C212 1.372 . S
C212 H190 0.950 . S
C212 C211 1.372 . S
C212 C213 1.379 . S
C213 H191 0.948 . S
C213 C208 1.364 . S
C213 C212 1.379 . S
C214 C183 1.383 . S
C214 C201 1.479 . S
C214 C215 1.398 . S
C215 C180 1.382 . S
C215 H192 0.951 . S
C215 C214 1.398 . S
C216 C217 1.384 . S
C216 H229 0.947 . S
C216 C251 1.382 . S
C217 C216 1.384 . S
C217 C218 1.378 . S
C218 C217 1.378 . S
C218 C219 1.378 . S
C218 H230 0.952 . S
C219 C218 1.378 . S
C219 H231 0.950 . S
C219 C250 1.383 . S
H220 C239 0.947 . S
H221 C240 0.946 . S
H222 C242 0.953 . S
H223 C243 0.945 . S
H224 C245 0.952 . S
H225 C246 0.949 . S
H226 C248 0.950 . S
H227 C249 0.948 . S
H228 C251 0.951 . S
H229 C216 0.947 . S
H230 C218 0.952 . S
H231 C219 0.950 . S
N232 C235 1.382 . S
N232 C237 1.363 . S
N233 C235 1.371 . S
N233 C236 1.372 . S
N234 C236 1.361 . S
N234 C237 1.377 . S
C235 N232 1.382 . S
C235 N233 1.371 . S
C235 C238 1.480 . S
C236 N233 1.372 . S
C236 N234 1.361 . S
C236 C244 1.457 . S
C237 N232 1.363 . S
C237 N234 1.377 . S
C237 C250 1.479 . S
C238 C235 1.480 . S
C238 C239 1.383 . S
C238 C243 1.385 . S
C239 H220 0.947 . S
C239 C238 1.383 . S
C239 C240 1.388 . S
C240 H221 0.946 . S
C240 C239 1.388 . S
C240 C241 1.384 . S
C241 C240 1.384 . S
C241 C242 1.377 . S
C242 H222 0.953 . S
C242 C241 1.377 . S
C242 C243 1.369 . S
C243 H223 0.945 . S
C243 C238 1.385 . S
C243 C242 1.369 . S
C244 C236 1.457 . S
C244 C245 1.372 . S
C244 C249 1.364 . S
C245 H224 0.952 . S
C245 C244 1.372 . S
C245 C246 1.389 . S
C246 H225 0.949 . S
C246 C245 1.389 . S
C246 C247 1.387 . S
C247 C246 1.387 . S
C247 C248 1.372 . S
C248 H226 0.950 . S
C248 C247 1.372 . S
C248 C249 1.379 . S
C249 H227 0.948 . S
C249 C244 1.364 . S
C249 C248 1.379 . S
C250 C219 1.383 . S
C250 C237 1.479 . S
C250 C251 1.398 . S
C251 C216 1.382 . S
C251 H228 0.951 . S
C251 C250 1.398 . S
C252 C253 1.384 . S
C252 H265 0.947 . S
C252 C287 1.382 . S
C253 C252 1.384 . S
C253 C254 1.378 . S
C254 C253 1.378 . S
C254 C255 1.378 . S
C254 H266 0.952 . S
C255 C254 1.378 . S
C255 H267 0.950 . S
C255 C286 1.383 . S
H256 C275 0.947 . S
H257 C276 0.946 . S
H258 C278 0.953 . S
H259 C279 0.945 . S
H260 C281 0.952 . S
H261 C282 0.949 . S
H262 C284 0.950 . S
H263 C285 0.948 . S
H264 C287 0.951 . S
H265 C252 0.947 . S
H266 C254 0.952 . S
H267 C255 0.950 . S
N268 C271 1.382 . S
N268 C273 1.363 . S
N269 C271 1.371 . S
N269 C272 1.372 . S
N270 C272 1.361 . S
N270 C273 1.377 . S
C271 N268 1.382 . S
C271 N269 1.371 . S
C271 C274 1.480 . S
C272 N269 1.372 . S
C272 N270 1.361 . S
C272 C280 1.457 . S
C273 N268 1.363 . S
C273 N270 1.377 . S
C273 C286 1.479 . S
C274 C271 1.480 . S
C274 C275 1.383 . S
C274 C279 1.385 . S
C275 H256 0.947 . S
C275 C274 1.383 . S
C275 C276 1.388 . S
C276 H257 0.946 . S
C276 C275 1.388 . S
C276 C277 1.384 . S
C277 C276 1.384 . S
C277 C278 1.377 . S
C278 H258 0.953 . S
C278 C277 1.377 . S
C278 C279 1.369 . S
C279 H259 0.945 . S
C279 C274 1.385 . S
C279 C278 1.369 . S
C280 C272 1.457 . S
C280 C281 1.372 . S
C280 C285 1.364 . S
C281 H260 0.952 . S
C281 C280 1.372 . S
C281 C282 1.389 . S
C282 H261 0.949 . S
C282 C281 1.389 . S
C282 C283 1.387 . S
C283 C282 1.387 . S
C283 C284 1.372 . S
C284 H262 0.950 . S
C284 C283 1.372 . S
C284 C285 1.379 . S
C285 H263 0.948 . S
C285 C280 1.364 . S
C285 C284 1.379 . S
C286 C255 1.383 . S
C286 C273 1.479 . S
C286 C287 1.398 . S
C287 C252 1.382 . S
C287 H264 0.951 . S
C287 C286 1.398 . S
Eu288 N317 2.600 . S
Eu288 N323 2.562 . S
Eu288 O332 2.462 . S
Eu288 O333 2.373 . S
Eu288 O335 2.432 . S
Eu288 O336 2.291 . S
Eu288 O340 2.335 . S
Eu288 O343 2.372 . S
Eu288 C352 2.787 . S
C289 N290 1.365 . S
C289 C292 1.405 . S
C289 C296 1.448 . S
N290 C289 1.365 . S
N290 C293 1.319 . S
N290 Eu299 2.600 . S
C291 C293 1.397 . S
C291 C294 1.367 . S
C291 H311 0.931 . S
C292 C289 1.405 . S
C292 C294 1.403 . S
C292 C298 1.439 . S
C293 N290 1.319 . S
C293 C291 1.397 . S
C293 H304 0.930 . S
C294 C291 1.367 . S
C294 C292 1.403 . S
C294 H315 0.929 . S
C295 C296 1.430 . S
C295 C297 1.387 . S
C295 C301 1.404 . S
C296 C289 1.448 . S
C296 C295 1.430 . S
C296 N300 1.351 . S
C297 C295 1.387 . S
C297 C298 1.374 . S
C297 H312 0.931 . S
C298 C292 1.439 . S
C298 C297 1.374 . S
C298 H313 0.931 . S
Eu299 N290 2.600 . S
Eu299 N300 2.562 . S
Eu299 O334 2.335 1_655 S
Eu299 O337 2.372 . S
Eu299 O338 2.462 . S
Eu299 O339 2.373 . S
Eu299 O341 2.432 . S
Eu299 O342 2.291 1_655 S
Eu299 C363 2.787 . S
N300 C296 1.351 . S
N300 Eu299 2.562 . S
N300 C302 1.325 . S
C301 C295 1.404 . S
C301 C303 1.366 . S
C301 H309 0.930 . S
C302 N300 1.325 . S
C302 C303 1.416 . S
C302 H308 0.929 . S
C303 C301 1.366 . S
C303 C302 1.416 . S
C303 H305 0.930 . S
H304 C293 0.930 . S
H305 C303 0.930 . S
H306 C321 0.930 . S
H307 C328 0.930 . S
H308 C302 0.929 . S
H309 C301 0.930 . S
H310 C324 0.929 . S
H311 C291 0.931 . S
H312 C297 0.931 . S
H313 C298 0.931 . S
H314 C319 0.931 . S
H315 C294 0.929 . S
H316 C327 0.930 . S
N317 Eu288 2.600 . S
N317 C318 1.365 . S
N317 C321 1.319 . S
C318 N317 1.365 . S
C318 C320 1.405 . S
C318 C326 1.448 . S
C319 H314 0.931 . S
C319 C321 1.397 . S
C319 C322 1.367 . S
C320 C318 1.405 . S
C320 C322 1.403 . S
C320 C353 1.439 . S
C321 H306 0.930 . S
C321 N317 1.319 . S
C321 C319 1.397 . S
C322 C319 1.367 . S
C322 C320 1.403 . S
C322 H329 0.929 . S
N323 Eu288 2.562 . S
N323 C324 1.325 . S
N323 C326 1.351 . S
C324 H310 0.929 . S
C324 N323 1.325 . S
C324 C328 1.416 . S
C325 C326 1.430 . S
C325 C327 1.404 . S
C325 C354 1.387 . S
C326 C318 1.448 . S
C326 N323 1.351 . S
C326 C325 1.430 . S
C327 H316 0.930 . S
C327 C325 1.404 . S
C327 C328 1.366 . S
C328 H307 0.930 . S
C328 C324 1.416 . S
C328 C327 1.366 . S
H329 C322 0.929 . S
H330 C353 0.931 . S
H331 C354 0.931 . S
O332 Eu288 2.462 . S
O332 C352 1.252 . S
O333 Eu288 2.373 . S
O333 C344 1.249 . S
O334 Eu299 2.335 1_455 S
O334 C344 1.264 . S
O335 Eu288 2.432 . S
O335 C352 1.268 . S
O336 Eu288 2.291 . S
O336 C351 1.255 1_455 S
O337 Eu299 2.372 . S
O337 C351 1.257 . S
O338 Eu299 2.462 . S
O338 C363 1.252 . S
O339 Eu299 2.373 . S
O339 C355 1.249 . S
O340 Eu288 2.335 . S
O340 C355 1.264 1_455 S
O341 Eu299 2.432 . S
O341 C363 1.268 . S
O342 Eu299 2.291 1_455 S
O342 C362 1.255 . S
O343 Eu288 2.372 . S
O343 C362 1.257 . S
C344 O333 1.249 . S
C344 O334 1.264 . S
C345 C348 1.382 . S
C345 C350 1.390 . S
C345 C352 1.506 . S
C346 C347 1.398 . S
C346 C350 1.392 . S
C347 C346 1.398 . S
C347 C349 1.372 . S
C347 H364 0.931 . S
C348 C345 1.382 . S
C348 C349 1.390 . S
C348 H365 0.931 . S
C349 C347 1.372 . S
C349 C348 1.390 . S
C349 H366 0.929 . S
C350 C345 1.390 . S
C350 C346 1.392 . S
C350 H367 0.930 . S
C351 O336 1.255 1_655 S
C351 O337 1.257 . S
C352 Eu288 2.787 . S
C352 O332 1.252 . S
C352 O335 1.268 . S
C352 C345 1.506 . S
C353 C320 1.439 . S
C353 H330 0.931 . S
C353 C354 1.374 . S
C354 C325 1.387 . S
C354 H331 0.931 . S
C354 C353 1.374 . S
C355 O339 1.249 . S
C355 O340 1.264 1_655 S
C356 C359 1.382 . S
C356 C360 1.390 . S
C356 C363 1.506 . S
C357 C358 1.398 . S
C357 C360 1.392 . S
C358 C357 1.398 . S
C358 C361 1.372 . S
C358 H368 0.931 . S
C359 C356 1.382 . S
C359 C361 1.390 . S
C359 H369 0.931 . S
C360 C356 1.390 . S
C360 C357 1.392 . S
C360 H370 0.930 . S
C361 C358 1.372 . S
C361 C359 1.390 . S
C361 H371 0.929 . S
C362 O342 1.255 . S
C362 O343 1.257 . S
C363 Eu299 2.787 . S
C363 O338 1.252 . S
C363 O341 1.268 . S
C363 C356 1.506 . S
H364 C347 0.931 . S
H365 C348 0.931 . S
H366 C349 0.929 . S
H367 C350 0.930 . S
H368 C358 0.931 . S
H369 C359 0.931 . S
H370 C360 0.930 . S
H371 C361 0.929 . S
Eu372 N401 2.600 . S
Eu372 N407 2.562 . S
Eu372 O416 2.462 . S
Eu372 O417 2.373 . S
Eu372 O419 2.432 . S
Eu372 O420 2.291 . S
Eu372 O424 2.335 . S
Eu372 O427 2.372 . S
Eu372 C436 2.787 . S
C373 N374 1.365 . S
C373 C376 1.405 . S
C373 C380 1.448 . S
N374 C373 1.365 . S
N374 C377 1.319 . S
N374 Eu383 2.600 . S
C375 C377 1.397 . S
C375 C378 1.367 . S
C375 H395 0.931 . S
C376 C373 1.405 . S
C376 C378 1.403 . S
C376 C382 1.439 . S
C377 N374 1.319 . S
C377 C375 1.397 . S
C377 H388 0.930 . S
C378 C375 1.367 . S
C378 C376 1.403 . S
C378 H399 0.929 . S
C379 C380 1.430 . S
C379 C381 1.387 . S
C379 C385 1.404 . S
C380 C373 1.448 . S
C380 C379 1.430 . S
C380 N384 1.351 . S
C381 C379 1.387 . S
C381 C382 1.374 . S
C381 H396 0.931 . S
C382 C376 1.439 . S
C382 C381 1.374 . S
C382 H397 0.931 . S
Eu383 N374 2.600 . S
Eu383 N384 2.562 . S
Eu383 O418 2.335 . S
Eu383 O421 2.372 . S
Eu383 O422 2.462 . S
Eu383 O423 2.373 . S
Eu383 O425 2.432 . S
Eu383 O426 2.291 . S
Eu383 C447 2.787 . S
N384 C380 1.351 . S
N384 Eu383 2.562 . S
N384 C386 1.325 . S
C385 C379 1.404 . S
C385 C387 1.366 . S
C385 H393 0.930 . S
C386 N384 1.325 . S
C386 C387 1.416 . S
C386 H392 0.929 . S
C387 C385 1.366 . S
C387 C386 1.416 . S
C387 H389 0.930 . S
H388 C377 0.930 . S
H389 C387 0.930 . S
H390 C405 0.930 . S
H391 C412 0.930 . S
H392 C386 0.929 . S
H393 C385 0.930 . S
H394 C408 0.929 . S
H395 C375 0.931 . S
H396 C381 0.931 . S
H397 C382 0.931 . S
H398 C403 0.931 . S
H399 C378 0.929 . S
H400 C411 0.930 . S
N401 Eu372 2.600 . S
N401 C402 1.365 . S
N401 C405 1.319 . S
C402 N401 1.365 . S
C402 C404 1.405 . S
C402 C410 1.448 . S
C403 H398 0.931 . S
C403 C405 1.397 . S
C403 C406 1.367 . S
C404 C402 1.405 . S
C404 C406 1.403 . S
C404 C437 1.439 . S
C405 H390 0.930 . S
C405 N401 1.319 . S
C405 C403 1.397 . S
C406 C403 1.367 . S
C406 C404 1.403 . S
C406 H413 0.929 . S
N407 Eu372 2.562 . S
N407 C408 1.325 . S
N407 C410 1.351 . S
C408 H394 0.929 . S
C408 N407 1.325 . S
C408 C412 1.416 . S
C409 C410 1.430 . S
C409 C411 1.404 . S
C409 C438 1.387 . S
C410 C402 1.448 . S
C410 N407 1.351 . S
C410 C409 1.430 . S
C411 H400 0.930 . S
C411 C409 1.404 . S
C411 C412 1.366 . S
C412 H391 0.930 . S
C412 C408 1.416 . S
C412 C411 1.366 . S
H413 C406 0.929 . S
H414 C437 0.931 . S
H415 C438 0.931 . S
O416 Eu372 2.462 . S
O416 C436 1.252 . S
O417 Eu372 2.373 . S
O417 C428 1.249 . S
O418 Eu383 2.335 . S
O418 C428 1.264 . S
O419 Eu372 2.432 . S
O419 C436 1.268 . S
O420 Eu372 2.291 . S
O420 C435 1.255 . S
O421 Eu383 2.372 . S
O421 C435 1.257 . S
O422 Eu383 2.462 . S
O422 C447 1.252 . S
O423 Eu383 2.373 . S
O423 C439 1.249 . S
O424 Eu372 2.335 . S
O424 C439 1.264 . S
O425 Eu383 2.432 . S
O425 C447 1.268 . S
O426 Eu383 2.291 . S
O426 C446 1.255 . S
O427 Eu372 2.372 . S
O427 C446 1.257 . S
C428 O417 1.249 . S
C428 O418 1.264 . S
C429 C432 1.382 . S
C429 C434 1.390 . S
C429 C436 1.506 . S
C430 C431 1.398 . S
C430 C434 1.392 . S
C431 C430 1.398 . S
C431 C433 1.372 . S
C431 H448 0.931 . S
C432 C429 1.382 . S
C432 C433 1.390 . S
C432 H449 0.931 . S
C433 C431 1.372 . S
C433 C432 1.390 . S
C433 H450 0.929 . S
C434 C429 1.390 . S
C434 C430 1.392 . S
C434 H451 0.930 . S
C435 O420 1.255 . S
C435 O421 1.257 . S
C436 Eu372 2.787 . S
C436 O416 1.252 . S
C436 O419 1.268 . S
C436 C429 1.506 . S
C437 C404 1.439 . S
C437 H414 0.931 . S
C437 C438 1.374 . S
C438 C409 1.387 . S
C438 H415 0.931 . S
C438 C437 1.374 . S
C439 O423 1.249 . S
C439 O424 1.264 . S
C440 C443 1.382 . S
C440 C444 1.390 . S
C440 C447 1.506 . S
C441 C442 1.398 . S
C441 C444 1.392 . S
C442 C441 1.398 . S
C442 C445 1.372 . S
C442 H452 0.931 . S
C443 C440 1.382 . S
C443 C445 1.390 . S
C443 H453 0.931 . S
C444 C440 1.390 . S
C444 C441 1.392 . S
C444 H454 0.930 . S
C445 C442 1.372 . S
C445 C443 1.390 . S
C445 H455 0.929 . S
C446 O426 1.255 . S
C446 O427 1.257 . S
C447 Eu383 2.787 . S
C447 O422 1.252 . S
C447 O425 1.268 . S
C447 C440 1.506 . S
H448 C431 0.931 . S
H449 C432 0.931 . S
H450 C433 0.929 . S
H451 C434 0.930 . S
H452 C442 0.931 . S
H453 C443 0.931 . S
H454 C444 0.930 . S
H455 C445 0.929 . S
Eu456 N485 2.600 . S
Eu456 N491 2.562 . S
Eu456 O500 2.462 . S
Eu456 O501 2.373 . S
Eu456 O503 2.432 . S
Eu456 O504 2.291 . S
Eu456 O508 2.335 . S
Eu456 O511 2.372 . S
Eu456 C520 2.787 . S
C457 N458 1.365 . S
C457 C460 1.405 . S
C457 C464 1.448 . S
N458 C457 1.365 . S
N458 C461 1.319 . S
N458 Eu467 2.600 . S
C459 C461 1.397 . S
C459 C462 1.367 . S
C459 H479 0.931 . S
C460 C457 1.405 . S
C460 C462 1.403 . S
C460 C466 1.439 . S
C461 N458 1.319 . S
C461 C459 1.397 . S
C461 H472 0.930 . S
C462 C459 1.367 . S
C462 C460 1.403 . S
C462 H483 0.929 . S
C463 C464 1.430 . S
C463 C465 1.387 . S
C463 C469 1.404 . S
C464 C457 1.448 . S
C464 C463 1.430 . S
C464 N468 1.351 . S
C465 C463 1.387 . S
C465 C466 1.374 . S
C465 H480 0.931 . S
C466 C460 1.439 . S
C466 C465 1.374 . S
C466 H481 0.931 . S
Eu467 N458 2.600 . S
Eu467 N468 2.562 . S
Eu467 O502 2.335 1_655 S
Eu467 O505 2.372 . S
Eu467 O506 2.462 . S
Eu467 O507 2.373 . S
Eu467 O509 2.432 . S
Eu467 O510 2.291 1_655 S
Eu467 C531 2.787 . S
N468 C464 1.351 . S
N468 Eu467 2.562 . S
N468 C470 1.325 . S
C469 C463 1.404 . S
C469 C471 1.366 . S
C469 H477 0.930 . S
C470 N468 1.325 . S
C470 C471 1.416 . S
C470 H476 0.929 . S
C471 C469 1.366 . S
C471 C470 1.416 . S
C471 H473 0.930 . S
H472 C461 0.930 . S
H473 C471 0.930 . S
H474 C489 0.930 . S
H475 C496 0.930 . S
H476 C470 0.929 . S
H477 C469 0.930 . S
H478 C492 0.929 . S
H479 C459 0.931 . S
H480 C465 0.931 . S
H481 C466 0.931 . S
H482 C487 0.931 . S
H483 C462 0.929 . S
H484 C495 0.930 . S
N485 Eu456 2.600 . S
N485 C486 1.365 . S
N485 C489 1.319 . S
C486 N485 1.365 . S
C486 C488 1.405 . S
C486 C494 1.448 . S
C487 H482 0.931 . S
C487 C489 1.397 . S
C487 C490 1.367 . S
C488 C486 1.405 . S
C488 C490 1.403 . S
C488 C521 1.439 . S
C489 H474 0.930 . S
C489 N485 1.319 . S
C489 C487 1.397 . S
C490 C487 1.367 . S
C490 C488 1.403 . S
C490 H497 0.929 . S
N491 Eu456 2.562 . S
N491 C492 1.325 . S
N491 C494 1.351 . S
C492 H478 0.929 . S
C492 N491 1.325 . S
C492 C496 1.416 . S
C493 C494 1.430 . S
C493 C495 1.404 . S
C493 C522 1.387 . S
C494 C486 1.448 . S
C494 N491 1.351 . S
C494 C493 1.430 . S
C495 H484 0.930 . S
C495 C493 1.404 . S
C495 C496 1.366 . S
C496 H475 0.930 . S
C496 C492 1.416 . S
C496 C495 1.366 . S
H497 C490 0.929 . S
H498 C521 0.931 . S
H499 C522 0.931 . S
O500 Eu456 2.462 . S
O500 C520 1.252 . S
O501 Eu456 2.373 . S
O501 C512 1.249 . S
O502 Eu467 2.335 1_455 S
O502 C512 1.264 . S
O503 Eu456 2.432 . S
O503 C520 1.268 . S
O504 Eu456 2.291 . S
O504 C519 1.255 1_455 S
O505 Eu467 2.372 . S
O505 C519 1.257 . S
O506 Eu467 2.462 . S
O506 C531 1.252 . S
O507 Eu467 2.373 . S
O507 C523 1.249 . S
O508 Eu456 2.335 . S
O508 C523 1.264 1_455 S
O509 Eu467 2.432 . S
O509 C531 1.268 . S
O510 Eu467 2.291 1_455 S
O510 C530 1.255 . S
O511 Eu456 2.372 . S
O511 C530 1.257 . S
C512 O501 1.249 . S
C512 O502 1.264 . S
C513 C516 1.382 . S
C513 C518 1.390 . S
C513 C520 1.506 . S
C514 C515 1.398 . S
C514 C518 1.392 . S
C515 C514 1.398 . S
C515 C517 1.372 . S
C515 H532 0.931 . S
C516 C513 1.382 . S
C516 C517 1.390 . S
C516 H533 0.931 . S
C517 C515 1.372 . S
C517 C516 1.390 . S
C517 H534 0.929 . S
C518 C513 1.390 . S
C518 C514 1.392 . S
C518 H535 0.930 . S
C519 O504 1.255 1_655 S
C519 O505 1.257 . S
C520 Eu456 2.787 . S
C520 O500 1.252 . S
C520 O503 1.268 . S
C520 C513 1.506 . S
C521 C488 1.439 . S
C521 H498 0.931 . S
C521 C522 1.374 . S
C522 C493 1.387 . S
C522 H499 0.931 . S
C522 C521 1.374 . S
C523 O507 1.249 . S
C523 O508 1.264 1_655 S
C524 C527 1.382 . S
C524 C528 1.390 . S
C524 C531 1.506 . S
C525 C526 1.398 . S
C525 C528 1.392 . S
C526 C525 1.398 . S
C526 C529 1.372 . S
C526 H536 0.931 . S
C527 C524 1.382 . S
C527 C529 1.390 . S
C527 H537 0.931 . S
C528 C524 1.390 . S
C528 C525 1.392 . S
C528 H538 0.930 . S
C529 C526 1.372 . S
C529 C527 1.390 . S
C529 H539 0.929 . S
C530 O510 1.255 . S
C530 O511 1.257 . S
C531 Eu467 2.787 . S
C531 O506 1.252 . S
C531 O509 1.268 . S
C531 C524 1.506 . S
H532 C515 0.931 . S
H533 C516 0.931 . S
H534 C517 0.929 . S
H535 C518 0.930 . S
H536 C526 0.931 . S
H537 C527 0.931 . S
H538 C528 0.930 . S
H539 C529 0.929 . S
Eu540 N569 2.600 . S
Eu540 N575 2.562 . S
Eu540 O584 2.462 . S
Eu540 O585 2.373 . S
Eu540 O587 2.432 . S
Eu540 O588 2.291 . S
Eu540 O592 2.335 . S
Eu540 O595 2.372 . S
Eu540 C604 2.787 . S
C541 N542 1.365 . S
C541 C544 1.405 . S
C541 C548 1.448 . S
N542 C541 1.365 . S
N542 C545 1.319 . S
N542 Eu551 2.600 . S
C543 C545 1.397 . S
C543 C546 1.367 . S
C543 H563 0.931 . S
C544 C541 1.405 . S
C544 C546 1.403 . S
C544 C550 1.439 . S
C545 N542 1.319 . S
C545 C543 1.397 . S
C545 H556 0.930 . S
C546 C543 1.367 . S
C546 C544 1.403 . S
C546 H567 0.929 . S
C547 C548 1.430 . S
C547 C549 1.387 . S
C547 C553 1.404 . S
C548 C541 1.448 . S
C548 C547 1.430 . S
C548 N552 1.351 . S
C549 C547 1.387 . S
C549 C550 1.374 . S
C549 H564 0.931 . S
C550 C544 1.439 . S
C550 C549 1.374 . S
C550 H565 0.931 . S
Eu551 N542 2.600 . S
Eu551 N552 2.562 . S
Eu551 O586 2.335 . S
Eu551 O589 2.372 . S
Eu551 O590 2.462 . S
Eu551 O591 2.373 . S
Eu551 O593 2.432 . S
Eu551 O594 2.291 . S
Eu551 C615 2.787 . S
N552 C548 1.351 . S
N552 Eu551 2.562 . S
N552 C554 1.325 . S
C553 C547 1.404 . S
C553 C555 1.366 . S
C553 H561 0.930 . S
C554 N552 1.325 . S
C554 C555 1.416 . S
C554 H560 0.929 . S
C555 C553 1.366 . S
C555 C554 1.416 . S
C555 H557 0.930 . S
H556 C545 0.930 . S
H557 C555 0.930 . S
H558 C573 0.930 . S
H559 C580 0.930 . S
H560 C554 0.929 . S
H561 C553 0.930 . S
H562 C576 0.929 . S
H563 C543 0.931 . S
H564 C549 0.931 . S
H565 C550 0.931 . S
H566 C571 0.931 . S
H567 C546 0.929 . S
H568 C579 0.930 . S
N569 Eu540 2.600 . S
N569 C570 1.365 . S
N569 C573 1.319 . S
C570 N569 1.365 . S
C570 C572 1.405 . S
C570 C578 1.448 . S
C571 H566 0.931 . S
C571 C573 1.397 . S
C571 C574 1.367 . S
C572 C570 1.405 . S
C572 C574 1.403 . S
C572 C605 1.439 . S
C573 H558 0.930 . S
C573 N569 1.319 . S
C573 C571 1.397 . S
C574 C571 1.367 . S
C574 C572 1.403 . S
C574 H581 0.929 . S
N575 Eu540 2.562 . S
N575 C576 1.325 . S
N575 C578 1.351 . S
C576 H562 0.929 . S
C576 N575 1.325 . S
C576 C580 1.416 . S
C577 C578 1.430 . S
C577 C579 1.404 . S
C577 C606 1.387 . S
C578 C570 1.448 . S
C578 N575 1.351 . S
C578 C577 1.430 . S
C579 H568 0.930 . S
C579 C577 1.404 . S
C579 C580 1.366 . S
C580 H559 0.930 . S
C580 C576 1.416 . S
C580 C579 1.366 . S
H581 C574 0.929 . S
H582 C605 0.931 . S
H583 C606 0.931 . S
O584 Eu540 2.462 . S
O584 C604 1.252 . S
O585 Eu540 2.373 . S
O585 C596 1.249 . S
O586 Eu551 2.335 . S
O586 C596 1.264 . S
O587 Eu540 2.432 . S
O587 C604 1.268 . S
O588 Eu540 2.291 . S
O588 C603 1.255 . S
O589 Eu551 2.372 . S
O589 C603 1.257 . S
O590 Eu551 2.462 . S
O590 C615 1.252 . S
O591 Eu551 2.373 . S
O591 C607 1.249 . S
O592 Eu540 2.335 . S
O592 C607 1.264 . S
O593 Eu551 2.432 . S
O593 C615 1.268 . S
O594 Eu551 2.291 . S
O594 C614 1.255 . S
O595 Eu540 2.372 . S
O595 C614 1.257 . S
C596 O585 1.249 . S
C596 O586 1.264 . S
C597 C600 1.382 . S
C597 C602 1.390 . S
C597 C604 1.506 . S
C598 C599 1.398 . S
C598 C602 1.392 . S
C599 C598 1.398 . S
C599 C601 1.372 . S
C599 H616 0.931 . S
C600 C597 1.382 . S
C600 C601 1.390 . S
C600 H617 0.931 . S
C601 C599 1.372 . S
C601 C600 1.390 . S
C601 H618 0.929 . S
C602 C597 1.390 . S
C602 C598 1.392 . S
C602 H619 0.930 . S
C603 O588 1.255 . S
C603 O589 1.257 . S
C604 Eu540 2.787 . S
C604 O584 1.252 . S
C604 O587 1.268 . S
C604 C597 1.506 . S
C605 C572 1.439 . S
C605 H582 0.931 . S
C605 C606 1.374 . S
C606 C577 1.387 . S
C606 H583 0.931 . S
C606 C605 1.374 . S
C607 O591 1.249 . S
C607 O592 1.264 . S
C608 C611 1.382 . S
C608 C612 1.390 . S
C608 C615 1.506 . S
C609 C610 1.398 . S
C609 C612 1.392 . S
C610 C609 1.398 . S
C610 C613 1.372 . S
C610 H620 0.931 . S
C611 C608 1.382 . S
C611 C613 1.390 . S
C611 H621 0.931 . S
C612 C608 1.390 . S
C612 C609 1.392 . S
C612 H622 0.930 . S
C613 C610 1.372 . S
C613 C611 1.390 . S
C613 H623 0.929 . S
C614 O594 1.255 . S
C614 O595 1.257 . S
C615 Eu551 2.787 . S
C615 O590 1.252 . S
C615 O593 1.268 . S
C615 C608 1.506 . S
H616 C599 0.931 . S
H617 C600 0.931 . S
H618 C601 0.929 . S
H619 C602 0.930 . S
H620 C610 0.931 . S
H621 C611 0.931 . S
H622 C612 0.930 . S
H623 C613 0.929 . S
H624 C630 0.930 . S
H625 C633 0.930 1_565 S
H626 C634 0.930 . S
H627 C635 0.930 . S
H628 C638 0.930 . S
H629 C639 0.930 . S
C630 H624 0.930 . S
C630 C631 1.359 . S
C630 C632 1.415 . S
C631 C630 1.359 . S
C631 C633 1.420 . S
C632 C630 1.415 . S
C632 C637 1.425 . S
C632 C639 1.409 . S
C633 H625 0.930 1_545 S
C633 C631 1.420 . S
C633 C634 1.362 . S
C634 H626 0.930 . S
C634 C633 1.362 . S
C634 C637 1.409 . S
C635 H627 0.930 . S
C635 C636 1.355 . S
C635 C637 1.415 . S
C636 C635 1.355 . S
C636 C638 1.419 . S
C637 C632 1.425 . S
C637 C634 1.409 . S
C637 C635 1.415 . S
C638 H628 0.930 . S
C638 C636 1.419 . S
C638 C639 1.362 . S
C639 H629 0.930 . S
C639 C632 1.409 . S
C639 C638 1.362 . S
H640 C646 0.930 . S
H641 C649 0.930 . S
H642 C650 0.930 . S
H643 C651 0.930 . S
H644 C654 0.930 . S
H645 C655 0.930 . S
C646 H640 0.930 . S
C646 C647 1.355 . S
C646 C648 1.415 . S
C647 C646 1.355 . S
C647 C649 1.419 . S
C648 C646 1.415 . S
C648 C653 1.425 . S
C648 C655 1.409 . S
C649 H641 0.930 . S
C649 C647 1.419 . S
C649 C650 1.362 . S
C650 H642 0.930 . S
C650 C649 1.362 . S
C650 C653 1.409 . S
C651 H643 0.930 . S
C651 C652 1.355 . S
C651 C653 1.415 . S
C652 C651 1.355 . S
C652 C654 1.419 . S
C653 C648 1.425 . S
C653 C650 1.409 . S
C653 C651 1.415 . S
C654 H644 0.930 . S
C654 C652 1.419 . S
C654 C655 1.362 . S
C655 H645 0.930 . S
C655 C648 1.409 . S
C655 C654 1.362 . S
H656 C662 0.930 . S
H657 C665 0.930 . S
H658 C666 0.930 . S
H659 C667 0.930 . S
H660 C670 0.930 . S
H661 C671 0.930 . S
C662 H656 0.930 . S
C662 C663 1.355 . S
C662 C664 1.415 . S
C663 C662 1.355 . S
C663 C665 1.419 . S
C664 C662 1.415 . S
C664 C669 1.425 . S
C664 C671 1.409 . S
C665 H657 0.930 . S
C665 C663 1.419 . S
C665 C666 1.362 . S
C666 H658 0.930 . S
C666 C665 1.362 . S
C666 C669 1.409 . S
C667 H659 0.930 . S
C667 C668 1.355 . S
C667 C669 1.415 . S
C668 C667 1.355 . S
C668 C670 1.419 . S
C669 C664 1.425 . S
C669 C666 1.409 . S
C669 C667 1.415 . S
C670 H660 0.930 . S
C670 C668 1.419 . S
C670 C671 1.362 . S
C671 H661 0.930 . S
C671 C664 1.409 . S
C671 C670 1.362 . S
H672 C678 0.930 . S
H673 C681 0.930 . S
H674 C682 0.930 1_565 S
H675 C683 0.930 . S
H676 C686 0.930 . S
H677 C687 0.930 . S
C678 H672 0.930 . S
C678 C679 1.355 . S
C678 C680 1.415 . S
C679 C678 1.355 . S
C679 C681 1.419 1_545 S
C680 C678 1.415 . S
C680 C685 1.425 . S
C680 C687 1.409 . S
C681 H673 0.930 . S
C681 C679 1.419 1_565 S
C681 C682 1.362 1_565 S
C682 H674 0.930 1_545 S
C682 C681 1.362 1_545 S
C682 C685 1.409 . S
C683 H675 0.930 . S
C683 C684 1.355 . S
C683 C685 1.415 . S
C684 C683 1.355 . S
C684 C686 1.419 . S
C685 C680 1.425 . S
C685 C682 1.409 . S
C685 C683 1.415 . S
C686 H676 0.930 . S
C686 C684 1.419 . S
C686 C687 1.362 . S
C687 H677 0.930 . S
C687 C680 1.409 . S
C687 C686 1.362 . S
H688 C694 0.930 . S
H689 C697 0.928 1_545 S
H690 C698 0.930 . S
H691 C699 0.930 . S
H692 C702 0.930 . S
H693 C703 0.930 . S
C694 H688 0.930 . S
C694 C695 1.357 1_565 S
C694 C696 1.415 . S
C695 C694 1.357 1_545 S
C695 C697 1.419 1_545 S
C696 C694 1.415 . S
C696 C701 1.425 . S
C696 C703 1.409 . S
C697 H689 0.928 1_565 S
C697 C695 1.419 1_565 S
C697 C698 1.364 . S
C698 H690 0.930 . S
C698 C697 1.364 . S
C698 C701 1.409 . S
C699 H691 0.930 . S
C699 C700 1.355 . S
C699 C701 1.415 . S
C700 C699 1.355 . S
C700 C702 1.419 . S
C701 C696 1.425 . S
C701 C698 1.409 . S
C701 C699 1.415 . S
C702 H692 0.930 . S
C702 C700 1.419 . S
C702 C703 1.362 . S
C703 H693 0.930 . S
C703 C696 1.409 . S
C703 C702 1.362 . S
H704 C710 0.930 . S
H705 C713 0.930 . S
H706 C714 0.930 . S
H707 C715 0.930 . S
H708 C718 0.930 . S
H709 C719 0.930 . S
C710 H704 0.930 . S
C710 C711 1.355 . S
C710 C712 1.415 . S
C711 C710 1.355 . S
C711 C713 1.419 . S
C712 C710 1.415 . S
C712 C717 1.425 . S
C712 C719 1.409 . S
C713 H705 0.930 . S
C713 C711 1.419 . S
C713 C714 1.362 . S
C714 H706 0.930 . S
C714 C713 1.362 . S
C714 C717 1.409 . S
C715 H707 0.930 . S
C715 C716 1.355 . S
C715 C717 1.415 . S
C716 C715 1.355 . S
C716 C718 1.419 . S
C717 C712 1.425 . S
C717 C714 1.409 . S
C717 C715 1.415 . S
C718 H708 0.930 . S
C718 C716 1.419 . S
C718 C719 1.362 . S
C719 H709 0.930 . S
C719 C712 1.409 . S
C719 C718 1.362 . S
H720 C726 0.930 . S
H721 C729 0.930 . S
H722 C730 0.930 . S
H723 C731 0.930 . S
H724 C734 0.930 . S
H725 C735 0.930 . S
C726 H720 0.930 . S
C726 C727 1.355 . S
C726 C728 1.415 . S
C727 C726 1.355 . S
C727 C729 1.419 . S
C728 C726 1.415 . S
C728 C733 1.425 . S
C728 C735 1.409 . S
C729 H721 0.930 . S
C729 C727 1.419 . S
C729 C730 1.362 . S
C730 H722 0.930 . S
C730 C729 1.362 . S
C730 C733 1.409 . S
C731 H723 0.930 . S
C731 C732 1.355 . S
C731 C733 1.415 . S
C732 C731 1.355 . S
C732 C734 1.419 . S
C733 C728 1.425 . S
C733 C730 1.409 . S
C733 C731 1.415 . S
C734 H724 0.930 . S
C734 C732 1.419 . S
C734 C735 1.362 . S
C735 H725 0.930 . S
C735 C728 1.409 . S
C735 C734 1.362 . S
H736 C742 0.930 1_545 S
H737 C745 0.930 . S
H738 C746 0.930 . S
H739 C747 0.930 . S
H740 C750 0.930 . S
H741 C751 0.930 . S
C742 H736 0.930 1_565 S
C742 C743 1.355 . S
C742 C744 1.415 . S
C743 C742 1.355 . S
C743 C745 1.419 . S
C744 C742 1.415 . S
C744 C749 1.425 . S
C744 C751 1.409 . S
C745 H737 0.930 . S
C745 C743 1.419 . S
C745 C746 1.362 . S
C746 H738 0.930 . S
C746 C745 1.362 . S
C746 C749 1.409 . S
C747 H739 0.930 . S
C747 C748 1.355 . S
C747 C749 1.415 . S
C748 C747 1.355 . S
C748 C750 1.419 . S
C749 C744 1.425 . S
C749 C746 1.409 . S
C749 C747 1.415 . S
C750 H740 0.930 . S
C750 C748 1.419 . S
C750 C751 1.362 . S
C751 H741 0.930 . S
C751 C744 1.409 . S
C751 C750 1.362 . S
H752 C758 0.930 . S
H753 C761 0.930 . S
H754 C762 0.930 . S
H755 C763 0.930 . S
H756 C766 0.930 . S
H757 C767 0.930 . S
C758 H752 0.930 . S
C758 C759 1.355 . S
C758 C760 1.415 . S
C759 C758 1.355 . S
C759 C761 1.419 . S
C760 C758 1.415 . S
C760 C765 1.425 . S
C760 C767 1.409 . S
C761 H753 0.930 . S
C761 C759 1.419 . S
C761 C762 1.362 . S
C762 H754 0.930 . S
C762 C761 1.362 . S
C762 C765 1.409 . S
C763 H755 0.930 . S
C763 C764 1.355 . S
C763 C765 1.415 . S
C764 C763 1.355 . S
C764 C766 1.419 . S
C765 C760 1.425 . S
C765 C762 1.409 . S
C765 C763 1.415 . S
C766 H756 0.930 . S
C766 C764 1.419 . S
C766 C767 1.362 . S
C767 H757 0.930 . S
C767 C760 1.409 . S
C767 C766 1.362 . S
H768 C774 0.930 . S
H769 C777 0.930 . S
H770 C778 0.930 . S
H771 C779 0.930 . S
H772 C782 0.930 . S
H773 C783 0.930 . S
C774 H768 0.930 . S
C774 C775 1.355 . S
C774 C776 1.415 . S
C775 C774 1.355 . S
C775 C777 1.419 . S
C776 C774 1.415 . S
C776 C781 1.425 . S
C776 C783 1.409 . S
C777 H769 0.930 . S
C777 C775 1.419 . S
C777 C778 1.362 . S
C778 H770 0.930 . S
C778 C777 1.362 . S
C778 C781 1.409 . S
C779 H771 0.930 . S
C779 C780 1.355 . S
C779 C781 1.415 . S
C780 C779 1.355 . S
C780 C782 1.419 . S
C781 C776 1.425 . S
C781 C778 1.409 . S
C781 C779 1.415 . S
C782 H772 0.930 . S
C782 C780 1.419 . S
C782 C783 1.362 . S
C783 H773 0.930 . S
C783 C776 1.409 . S
C783 C782 1.362 . S
H784 C790 0.930 . S
H785 C793 0.930 . S
H786 C794 0.930 . S
H787 C795 0.930 . S
H788 C798 0.930 . S
H789 C799 0.930 . S
C790 H784 0.930 . S
C790 C791 1.355 . S
C790 C792 1.415 . S
C791 C790 1.355 . S
C791 C793 1.419 . S
C792 C790 1.415 . S
C792 C797 1.425 . S
C792 C799 1.409 . S
C793 H785 0.930 . S
C793 C791 1.419 . S
C793 C794 1.362 . S
C794 H786 0.930 . S
C794 C793 1.362 . S
C794 C797 1.409 . S
C795 H787 0.930 . S
C795 C796 1.355 . S
C795 C797 1.415 . S
C796 C795 1.355 . S
C796 C798 1.419 . S
C797 C792 1.425 . S
C797 C794 1.409 . S
C797 C795 1.415 . S
C798 H788 0.930 . S
C798 C796 1.419 . S
C798 C799 1.362 . S
C799 H789 0.930 . S
C799 C792 1.409 . S
C799 C798 1.362 . S
H800 C806 0.930 . S
H801 C809 0.930 . S
H802 C810 0.930 . S
H803 C811 0.930 . S
H804 C814 0.930 . S
H805 C815 0.930 . S
C806 H800 0.930 . S
C806 C807 1.355 . S
C806 C808 1.415 . S
C807 C806 1.355 . S
C807 C809 1.419 . S
C808 C806 1.415 . S
C808 C813 1.425 . S
C808 C815 1.409 . S
C809 H801 0.930 . S
C809 C807 1.419 . S
C809 C810 1.362 . S
C810 H802 0.930 . S
C810 C809 1.362 . S
C810 C813 1.409 . S
C811 H803 0.930 . S
C811 C812 1.355 . S
C811 C813 1.415 . S
C812 C811 1.355 . S
C812 C814 1.419 . S
C813 C808 1.425 . S
C813 C810 1.409 . S
C813 C811 1.415 . S
C814 H804 0.930 . S
C814 C812 1.419 . S
C814 C815 1.362 . S
C815 H805 0.930 . S
C815 C808 1.409 . S
C815 C814 1.362 . S
H816 C822 0.930 . S
H817 C825 0.930 . S
H818 C826 0.930 . S
H819 C827 0.930 . S
H820 C830 0.930 . S
H821 C831 0.930 . S
C822 H816 0.930 . S
C822 C823 1.355 . S
C822 C824 1.415 . S
C823 C822 1.355 . S
C823 C825 1.419 . S
C824 C822 1.415 . S
C824 C829 1.425 . S
C824 C831 1.409 . S
C825 H817 0.930 . S
C825 C823 1.419 . S
C825 C826 1.362 . S
C826 H818 0.930 . S
C826 C825 1.362 . S
C826 C829 1.409 . S
C827 H819 0.930 . S
C827 C828 1.355 . S
C827 C829 1.415 . S
C828 C827 1.355 . S
C828 C830 1.419 . S
C829 C824 1.425 . S
C829 C826 1.409 . S
C829 C827 1.415 . S
C830 H820 0.930 . S
C830 C828 1.419 . S
C830 C831 1.362 . S
C831 H821 0.930 . S
C831 C824 1.409 . S
C831 C830 1.362 . S
H832 C838 0.930 . S
H833 C841 0.930 . S
H834 C842 0.930 . S
H835 C843 0.930 . S
H836 C846 0.930 . S
H837 C847 0.930 . S
C838 H832 0.930 . S
C838 C839 1.355 . S
C838 C840 1.415 . S
C839 C838 1.355 . S
C839 C841 1.419 . S
C840 C838 1.415 . S
C840 C845 1.425 . S
C840 C847 1.409 . S
C841 H833 0.930 . S
C841 C839 1.419 . S
C841 C842 1.362 . S
C842 H834 0.930 . S
C842 C841 1.362 . S
C842 C845 1.409 . S
C843 H835 0.930 . S
C843 C844 1.355 . S
C843 C845 1.415 . S
C844 C843 1.355 . S
C844 C846 1.419 . S
C845 C840 1.425 . S
C845 C842 1.409 . S
C845 C843 1.415 . S
C846 H836 0.930 . S
C846 C844 1.419 . S
C846 C847 1.362 . S
C847 H837 0.930 . S
C847 C840 1.409 . S
C847 C846 1.362 . S
H848 C854 0.930 . S
H849 C857 0.930 . S
H850 C858 0.930 . S
H851 C859 0.930 . S
H852 C862 0.930 . S
H853 C863 0.930 . S
C854 H848 0.930 . S
C854 C855 1.355 . S
C854 C856 1.415 . S
C855 C854 1.355 . S
C855 C857 1.419 . S
C856 C854 1.415 . S
C856 C861 1.425 . S
C856 C863 1.409 . S
C857 H849 0.930 . S
C857 C855 1.419 . S
C857 C858 1.362 . S
C858 H850 0.930 . S
C858 C857 1.362 . S
C858 C861 1.409 . S
C859 H851 0.930 . S
C859 C860 1.355 . S
C859 C861 1.415 . S
C860 C859 1.355 . S
C860 C862 1.419 . S
C861 C856 1.425 . S
C861 C858 1.409 . S
C861 C859 1.415 . S
C862 H852 0.930 . S
C862 C860 1.419 . S
C862 C863 1.362 . S
C863 H853 0.930 . S
C863 C856 1.409 . S
C863 C862 1.362 . S
H864 C870 0.930 . S
H865 C873 0.930 . S
H866 C874 0.930 . S
H867 C875 0.930 . S
H868 C878 0.930 . S
H869 C879 0.930 . S
C870 H864 0.930 . S
C870 C871 1.355 . S
C870 C872 1.415 . S
C871 C870 1.355 . S
C871 C873 1.419 . S
C872 C870 1.415 . S
C872 C877 1.425 . S
C872 C879 1.409 . S
C873 H865 0.930 . S
C873 C871 1.419 . S
C873 C874 1.362 . S
C874 H866 0.930 . S
C874 C873 1.362 . S
C874 C877 1.409 . S
C875 H867 0.930 . S
C875 C876 1.355 . S
C875 C877 1.415 . S
C876 C875 1.355 . S
C876 C878 1.419 . S
C877 C872 1.425 . S
C877 C874 1.409 . S
C877 C875 1.415 . S
C878 H868 0.930 . S
C878 C876 1.419 . S
C878 C879 1.362 . S
C879 H869 0.930 . S
C879 C872 1.409 . S
C879 C878 1.362 . S
H880 C886 0.930 . S
H881 C889 0.930 . S
H882 C890 0.930 . S
H883 C891 0.930 . S
H884 C894 0.930 . S
H885 C895 0.930 . S
C886 H880 0.930 . S
C886 C887 1.355 . S
C886 C888 1.415 . S
C887 C886 1.355 . S
C887 C889 1.419 . S
C888 C886 1.415 . S
C888 C893 1.425 . S
C888 C895 1.409 . S
C889 H881 0.930 . S
C889 C887 1.419 . S
C889 C890 1.362 . S
C890 H882 0.930 . S
C890 C889 1.362 . S
C890 C893 1.409 . S
C891 H883 0.930 . S
C891 C892 1.355 . S
C891 C893 1.415 . S
C892 C891 1.355 . S
C892 C894 1.419 . S
C893 C888 1.425 . S
C893 C890 1.409 . S
C893 C891 1.415 . S
C894 H884 0.930 . S
C894 C892 1.419 . S
C894 C895 1.362 . S
C895 H885 0.930 . S
C895 C888 1.409 . S
C895 C894 1.362 . S
H896 C902 0.930 . S
H897 C905 0.930 . S
H898 C906 0.930 . S
H899 C907 0.930 . S
H900 C910 0.930 . S
H901 C911 0.930 . S
C902 H896 0.930 . S
C902 C903 1.355 . S
C902 C904 1.415 . S
C903 C902 1.355 . S
C903 C905 1.419 . S
C904 C902 1.415 . S
C904 C909 1.425 . S
C904 C911 1.409 . S
C905 H897 0.930 . S
C905 C903 1.419 . S
C905 C906 1.362 . S
C906 H898 0.930 . S
C906 C905 1.362 . S
C906 C909 1.409 . S
C907 H899 0.930 . S
C907 C908 1.355 . S
C907 C909 1.415 . S
C908 C907 1.355 . S
C908 C910 1.419 . S
C909 C904 1.425 . S
C909 C906 1.409 . S
C909 C907 1.415 . S
C910 H900 0.930 . S
C910 C908 1.419 . S
C910 C911 1.362 . S
C911 H901 0.930 . S
C911 C904 1.409 . S
C911 C910 1.362 . S
H912 C918 0.930 . S
H913 C921 0.930 . S
H914 C922 0.930 . S
H915 C923 0.930 . S
H916 C926 0.930 . S
H917 C927 0.930 . S
C918 H912 0.930 . S
C918 C919 1.355 . S
C918 C920 1.415 . S
C919 C918 1.355 . S
C919 C921 1.419 . S
C920 C918 1.415 . S
C920 C925 1.425 . S
C920 C927 1.409 . S
C921 H913 0.930 . S
C921 C919 1.419 . S
C921 C922 1.362 . S
C922 H914 0.930 . S
C922 C921 1.362 . S
C922 C925 1.409 . S
C923 H915 0.930 . S
C923 C924 1.355 . S
C923 C925 1.415 . S
C924 C923 1.355 . S
C924 C926 1.419 . S
C925 C920 1.425 . S
C925 C922 1.409 . S
C925 C923 1.415 . S
C926 H916 0.930 . S
C926 C924 1.419 . S
C926 C927 1.362 . S
C927 H917 0.930 . S
C927 C920 1.409 . S
C927 C926 1.362 . S
H928 C934 0.930 . S
H929 C937 0.930 . S
H930 C938 0.930 . S
H931 C939 0.930 . S
H932 C942 0.930 . S
H933 C943 0.930 . S
C934 H928 0.930 . S
C934 C935 1.355 . S
C934 C936 1.415 . S
C935 C934 1.355 . S
C935 C937 1.419 . S
C936 C934 1.415 . S
C936 C941 1.425 . S
C936 C943 1.409 . S
C937 H929 0.930 . S
C937 C935 1.419 . S
C937 C938 1.362 . S
C938 H930 0.930 . S
C938 C937 1.362 . S
C938 C941 1.409 . S
C939 H931 0.930 . S
C939 C940 1.355 . S
C939 C941 1.415 . S
C940 C939 1.355 . S
C940 C942 1.419 . S
C941 C936 1.425 . S
C941 C938 1.409 . S
C941 C939 1.415 . S
C942 H932 0.930 . S
C942 C940 1.419 . S
C942 C943 1.362 . S
C943 H933 0.930 . S
C943 C936 1.409 . S
C943 C942 1.362 . S
H944 C950 0.930 . S
H945 C953 0.930 . S
H946 C954 0.930 . S
H947 C955 0.930 . S
H948 C958 0.930 . S
H949 C959 0.930 . S
C950 H944 0.930 . S
C950 C951 1.355 . S
C950 C952 1.415 . S
C951 C950 1.355 . S
C951 C953 1.419 . S
C952 C950 1.415 . S
C952 C957 1.425 . S
C952 C959 1.409 . S
C953 H945 0.930 . S
C953 C951 1.419 . S
C953 C954 1.362 . S
C954 H946 0.930 . S
C954 C953 1.362 . S
C954 C957 1.409 . S
C955 H947 0.930 . S
C955 C956 1.355 . S
C955 C957 1.415 . S
C956 C955 1.355 . S
C956 C958 1.419 . S
C957 C952 1.425 . S
C957 C954 1.409 . S
C957 C955 1.415 . S
C958 H948 0.930 . S
C958 C956 1.419 . S
C958 C959 1.362 . S
C959 H949 0.930 . S
C959 C952 1.409 . S
C959 C958 1.362 . S
H960 C966 0.930 . S
H961 C969 0.930 . S
H962 C970 0.930 . S
H963 C971 0.930 . S
H964 C974 0.930 . S
H965 C975 0.930 . S
C966 H960 0.930 . S
C966 C967 1.355 . S
C966 C968 1.415 . S
C967 C966 1.355 . S
C967 C969 1.419 . S
C968 C966 1.415 . S
C968 C973 1.425 . S
C968 C975 1.409 . S
C969 H961 0.930 . S
C969 C967 1.419 . S
C969 C970 1.362 . S
C970 H962 0.930 . S
C970 C969 1.362 . S
C970 C973 1.409 . S
C971 H963 0.930 . S
C971 C972 1.355 . S
C971 C973 1.415 . S
C972 C971 1.355 . S
C972 C974 1.419 . S
C973 C968 1.425 . S
C973 C970 1.409 . S
C973 C971 1.415 . S
C974 H964 0.930 . S
C974 C972 1.419 . S
C974 C975 1.362 . S
C975 H965 0.930 . S
C975 C968 1.409 . S
C975 C974 1.362 . S
H976 C982 0.930 . S
H977 C985 0.930 . S
H978 C986 0.930 . S
H979 C987 0.930 . S
H980 C990 0.930 . S
H981 C991 0.930 . S
C982 H976 0.930 . S
C982 C983 1.355 . S
C982 C984 1.415 . S
C983 C982 1.355 . S
C983 C985 1.419 . S
C984 C982 1.415 . S
C984 C989 1.425 . S
C984 C991 1.409 . S
C985 H977 0.930 . S
C985 C983 1.419 . S
C985 C986 1.362 . S
C986 H978 0.930 . S
C986 C985 1.362 . S
C986 C989 1.409 . S
C987 H979 0.930 . S
C987 C988 1.355 . S
C987 C989 1.415 . S
C988 C987 1.355 . S
C988 C990 1.419 . S
C989 C984 1.425 . S
C989 C986 1.409 . S
C989 C987 1.415 . S
C990 H980 0.930 . S
C990 C988 1.419 . S
C990 C991 1.362 . S
C991 H981 0.930 . S
C991 C984 1.409 . S
C991 C990 1.362 . S
H992 C998 0.930 . S
H993 C1001 0.930 . S
H994 C1002 0.930 . S
H995 C1003 0.930 . S
H996 C1006 0.930 . S
H997 C1007 0.930 . S
C998 H992 0.930 . S
C998 C999 1.355 . S
C998 C1000 1.415 . S
C999 C998 1.355 . S
C999 C1001 1.419 . S
C1000 C998 1.415 . S
C1000 C1005 1.425 . S
C1000 C1007 1.409 . S
C1001 H993 0.930 . S
C1001 C999 1.419 . S
C1001 C1002 1.362 . S
C1002 H994 0.930 . S
C1002 C1001 1.362 . S
C1002 C1005 1.409 . S
C1003 H995 0.930 . S
C1003 C1004 1.355 . S
C1003 C1005 1.415 . S
C1004 C1003 1.355 . S
C1004 C1006 1.419 . S
C1005 C1000 1.425 . S
C1005 C1002 1.409 . S
C1005 C1003 1.415 . S
C1006 H996 0.930 . S
C1006 C1004 1.419 . S
C1006 C1007 1.362 . S
C1007 H997 0.930 . S
C1007 C1000 1.409 . S
C1007 C1006 1.362 . S
C631 C247 1.473 1_545 S
C636 C362 1.480 . S
C652 C446 1.475 . S
C647 C283 1.479 . S
C668 C439 1.454 . S
C663 C175 1.471 . S
C679 C211 1.471 1_545 S
C684 C355 1.456 . S
C700 C519 1.458 . S
C695 C103 1.442 . S
C716 C603 1.465 . S
C711 C139 1.444 . S
C727 C31 1.460 . S
C732 C596 1.475 . S
C743 C67 1.473 1_565 S
C748 C512 1.480 . S
C764 C346 1.384 . S
C759 C37 1.518 1_554 S
C780 C430 1.274 . S
C775 C1 1.489 . S
C796 C441 1.345 . S
C791 C109 1.523 1_556 S
C812 C357 1.347 . S
C807 C73 1.507 . S
C828 C525 1.368 . S
C823 C181 1.522 1_556 S
C839 C145 1.520 . S
C844 C609 1.359 . S
C860 C598 1.391 . S
C855 C253 1.530 1_554 S
C871 C217 1.533 . S
C876 C514 1.340 . S
C892 C344 1.569 . S
C887 C25 1.564 . S
C908 C428 1.562 . S
C903 C61 1.516 . S
C919 C97 1.510 . S
C924 C435 1.563 . S
C940 C351 1.561 . S
C935 C133 1.546 . S
C956 C523 1.565 . S
C951 C169 1.561 . S
C967 C205 1.552 . S
C972 C607 1.560 . S
C983 C241 1.550 . S
C988 C614 1.552 . S
C999 C277 1.540 . S
C1004 C530 1.564 . S
