# Generated by pormake.
# Topology rtl, (3,6)-cn, num edge types: 1
# Building blocks:
#     Node 0, Type 0, BuildingBlock: INOVEN_clean_linker_0, # of connection points: 3
#     Node 1, Type 0, BuildingBlock: INOVEN_clean_linker_0, # of connection points: 3
#     Node 2, Type 0, BuildingBlock: INOVEN_clean_linker_0, # of connection points: 3
#     Node 3, Type 0, BuildingBlock: INOVEN_clean_linker_0, # of connection points: 3
#     Node 4, Type 1, BuildingBlock: CIFDUS_clean_sbu_1, # of connection points: 6
#     Node 5, Type 1, BuildingBlock: CIFDUS_clean_sbu_1, # of connection points: 6
#     Edge 6, Type (0, 1), BuildingBlock: XUDNAN_clean_linker_2, # of connection points: 2
#     Edge 7, Type (0, 1), BuildingBlock: XUDNAN_clean_linker_2, # of connection points: 2
#     Edge 8, Type (0, 1), BuildingBlock: XUDNAN_clean_linker_2, # of connection points: 2
#     Edge 9, Type (0, 1), BuildingBlock: XUDNAN_clean_linker_2, # of connection points: 2
#     Edge 10, Type (0, 1), BuildingBlock: XUDNAN_clean_linker_2, # of connection points: 2
#     Edge 11, Type (0, 1), BuildingBlock: XUDNAN_clean_linker_2, # of connection points: 2
#     Edge 12, Type (0, 1), BuildingBlock: XUDNAN_clean_linker_2, # of connection points: 2
#     Edge 13, Type (0, 1), BuildingBlock: XUDNAN_clean_linker_2, # of connection points: 2
#     Edge 14, Type (0, 1), BuildingBlock: XUDNAN_clean_linker_2, # of connection points: 2
#     Edge 15, Type (0, 1), BuildingBlock: XUDNAN_clean_linker_2, # of connection points: 2
#     Edge 16, Type (0, 1), BuildingBlock: XUDNAN_clean_linker_2, # of connection points: 2
#     Edge 17, Type (0, 1), BuildingBlock: XUDNAN_clean_linker_2, # of connection points: 2
# Relax obj value: 0.016
# Max RMSD: 0.112
# Mean RMSD: 0.082
data_MOF--net-rtl--node1-CIFDUS_clean_sbu_1--node2-INOVEN_clean_linker_0--edge1-XUDNAN_clean_linker_2
_symmetry_space_group_name_H-M    P1
_symmetry_Int_Tables_number       1
_symmetry_cell_setting            triclinic
loop_
_symmetry_equiv_pos_as_xyz
'x, y, z'
_cell_length_a     34.775741
_cell_length_b     35.015557
_cell_length_c     22.142701
_cell_angle_alpha  91.424867
_cell_angle_beta   99.497931
_cell_angle_gamma 90.524813
loop_
_atom_site_label
_atom_site_type_symbol
_atom_site_fract_x
_atom_site_fract_y
_atom_site_fract_z
_atom_type_partial_charge
H0 H 0.22367 0.82949 0.99231 0.0
H1 H 0.18004 0.93103 0.07096 0.0
H2 H 0.24796 0.85091 0.1863 0.0
N3 N 0.26259 0.80379 0.09324 0.0
N4 N 0.2874 0.79666 0.13901 0.0
C5 C 0.22094 0.8481 0.03109 0.0
C6 C 0.19965 0.88223 0.02282 0.0
C7 C 0.23941 0.83728 0.0892 0.0
C8 C 0.23465 0.85963 0.14111 0.0
C9 C 0.21242 0.89316 0.13469 0.0
C10 C 0.19604 0.90464 0.07547 0.0
H11 H 0.72356 0.74154 0.70467 0.0
H12 H 0.63097 0.67793 0.59254 0.0
H13 H 0.70181 0.75652 0.50978 0.0
N14 N 0.7464 0.78029 0.61638 0.0
N15 N 0.76853 0.78459 0.57805 0.0
C16 C 0.70705 0.73422 0.65988 0.0
C17 C 0.67669 0.70718 0.65429 0.0
C18 C 0.71638 0.75194 0.6081 0.0
C19 C 0.69494 0.74242 0.54976 0.0
C20 C 0.66338 0.71621 0.5436 0.0
C21 C 0.65461 0.69872 0.59643 0.0
H22 H 0.79491 0.21593 0.87275 0.0
H23 H 0.87102 0.14249 0.98977 0.0
H24 H 0.81139 0.2332 0.06871 0.0
N25 N 0.77235 0.25851 0.96115 0.0
N26 N 0.7578 0.27173 0.00507 0.0
C27 C 0.80864 0.20791 0.91812 0.0
C28 C 0.83367 0.17634 0.92509 0.0
C29 C 0.79989 0.22827 0.96959 0.0
C30 C 0.81782 0.21768 0.02872 0.0
C31 C 0.84353 0.1867 0.0366 0.0
C32 C 0.85092 0.16612 0.98439 0.0
H33 H 0.31605 0.31904 0.40383 0.0
H34 H 0.41238 0.38003 0.51409 0.0
H35 H 0.33555 0.31026 0.59928 0.0
N36 N 0.29146 0.28454 0.4978 0.0
N37 N 0.28196 0.26177 0.45339 0.0
C38 C 0.33366 0.32622 0.44772 0.0
C39 C 0.36524 0.35226 0.45164 0.0
C40 C 0.32332 0.31065 0.50086 0.0
C41 C 0.3441 0.32179 0.55841 0.0
C42 C 0.37658 0.34649 0.56342 0.0
C43 C 0.38721 0.36113 0.50989 0.0
O44 O 0.99169 0.06293 0.45345 0.0
Mn45 Mn 0.02082 0.03227 0.52884 0.0
O46 O 0.96986 0.01834 0.38106 0.0
Mn47 Mn 0.99214 0.97737 0.42351 0.0
O48 O 0.04995 1.00182 0.60359 0.0
O49 O 0.05403 0.08014 0.55724 0.0
Mn50 Mn 0.04896 0.08729 0.63514 0.0
O51 O 0.97587 0.04813 0.57956 0.0
O52 O 0.06843 0.04545 0.67932 0.0
O53 O 0.06566 0.01652 0.47813 0.0
O54 O 0.04271 0.9671 0.41635 0.0
O55 O 0.08119 0.12579 0.62126 0.0
O56 O 0.99823 0.09897 0.63851 0.0
C57 C 0.96624 0.95285 0.49216 0.0
C58 C 0.97299 0.05303 0.39991 0.0
C59 C 0.06621 0.0111 0.65866 0.0
C60 C 0.07659 0.11052 0.56657 0.0
C61 C 0.97073 0.07632 0.61604 0.0
C62 C 0.07039 0.98931 0.43972 0.0
O63 O 0.98807 0.98378 0.50176 0.0
O64 O 0.96145 0.93787 0.43725 0.0
O65 O 0.53058 0.57881 0.12318 0.0
Mn66 Mn 0.51565 0.53534 0.05335 0.0
O67 O 0.58411 0.55953 0.18154 0.0
Mn68 Mn 0.56615 0.51086 0.16327 0.0
O69 O 0.49972 0.493 0.98299 0.0
O70 O 0.46847 0.56947 0.0236 0.0
Mn71 Mn 0.46486 0.56689 0.94288 0.0
O72 O 0.55104 0.56389 0.99941 0.0
O73 O 0.45282 0.51792 0.91454 0.0
O74 O 0.48069 0.50671 0.1064 0.0
O75 O 0.52167 0.49592 0.19327 0.0
O76 O 0.42526 0.59752 0.9545 0.0
O77 O 0.50918 0.58878 0.92268 0.0
C78 C 0.59099 0.47625 0.10343 0.0
C79 C 0.56048 0.58563 0.16475 0.0
C80 C 0.47324 0.48988 0.93498 0.0
C81 C 0.43831 0.59195 0.01186 0.0
C82 C 0.54363 0.58413 0.95113 0.0
C83 C 0.48773 0.49451 0.16123 0.0
O84 O 0.56181 0.49894 0.08335 0.0
O85 O 0.60345 0.47663 0.16199 0.0
H86 H 0.21581 0.27396 0.50066 0.0
H87 H 0.27526 0.19212 0.40053 0.0
H88 H 0.22217 0.14449 0.40357 0.0
H89 H 0.18343 0.21268 0.6006 0.0
H90 H 0.13675 0.23478 0.59988 0.0
H91 H 0.17725 0.26253 0.58339 0.0
H92 H 0.13644 0.28129 0.47972 0.0
H93 H 0.09585 0.25312 0.4958 0.0
H94 H 0.11507 0.24438 0.42603 0.0
H95 H 0.1679 0.10286 0.4348 0.0
H96 H 0.11727 0.07359 0.48689 0.0
H97 H 0.08972 0.18516 0.55405 0.0
C98 C 0.21728 0.24618 0.47866 0.0
C99 C 0.24967 0.23624 0.45097 0.0
C100 C 0.25054 0.19992 0.422 0.0
C101 C 0.22053 0.17287 0.42343 0.0
C102 C 0.18921 0.18321 0.45223 0.0
C103 C 0.18711 0.21937 0.47819 0.0
C104 C 0.15145 0.22317 0.50857 0.0
C105 C 0.16292 0.23389 0.57714 0.0
C106 C 0.12302 0.25222 0.47554 0.0
C107 C 0.1349 0.18296 0.49884 0.0
C108 C 0.15671 0.16019 0.46581 0.0
C109 C 0.14966 0.12078 0.45846 0.0
C110 C 0.1204 0.10431 0.4871 0.0
C111 C 0.09849 0.12727 0.52182 0.0
C112 C 0.10517 0.16713 0.52587 0.0
H113 H 0.2746 0.73317 0.0641 0.0
H114 H 0.3536 0.78503 0.21613 0.0
H115 H 0.39909 0.73094 0.21276 0.0
H116 H 0.29334 0.63203 0.1081 0.0
H117 H 0.28931 0.61624 0.02918 0.0
H118 H 0.26155 0.65647 0.04923 0.0
H119 H 0.29137 0.69837 0.97326 0.0
H120 H 0.31882 0.65828 0.95274 0.0
H121 H 0.34365 0.70233 0.98013 0.0
H122 H 0.44064 0.67591 0.17973 0.0
H123 H 0.47162 0.62647 0.12184 0.0
H124 H 0.3623 0.60826 0.99947 0.0
C125 C 0.30111 0.7328 0.09747 0.0
C126 C 0.31086 0.76336 0.14036 0.0
C127 C 0.34577 0.76176 0.18314 0.0
C128 C 0.37165 0.73116 0.18154 0.0
C129 C 0.36166 0.70181 0.13772 0.0
C130 C 0.32681 0.70223 0.09713 0.0
C131 C 0.32365 0.66886 0.05188 0.0
C132 C 0.28996 0.6418 0.06013 0.0
C133 C 0.31914 0.6828 0.98564 0.0
C134 C 0.36277 0.6504 0.07146 0.0
C135 C 0.38443 0.66944 0.12129 0.0
C136 C 0.42338 0.66003 0.14205 0.0
C137 C 0.44076 0.63147 0.10969 0.0
C138 C 0.41913 0.61267 0.05765 0.0
C139 C 0.37933 0.62144 0.04018 0.0
H140 H 0.83673 0.77969 0.53987 0.0
H141 H 0.7662 0.855 0.63257 0.0
H142 H 0.81669 0.9062 0.63797 0.0
H143 H 0.93256 0.81387 0.62751 0.0
H144 H 0.95614 0.80822 0.56126 0.0
H145 H 0.91608 0.77707 0.57048 0.0
H146 H 0.87896 0.79583 0.46409 0.0
H147 H 0.9191 0.82634 0.45431 0.0
H148 H 0.87077 0.84563 0.44824 0.0
H149 H 0.87085 0.95215 0.61632 0.0
H150 H 0.92198 0.98598 0.57102 0.0
H151 H 0.96052 0.87777 0.50626 0.0
C152 C 0.83245 0.80679 0.56227 0.0
C153 C 0.79799 0.81352 0.5859 0.0
C154 C 0.7928 0.84928 0.61472 0.0
C155 C 0.82134 0.87842 0.61807 0.0
C156 C 0.85527 0.87088 0.59402 0.0
C157 C 0.86108 0.83558 0.56763 0.0
C158 C 0.89886 0.83483 0.54248 0.0
C159 C 0.92761 0.80684 0.57755 0.0
C160 C 0.89146 0.82512 0.47321 0.0
C161 C 0.91257 0.87576 0.55576 0.0
C162 C 0.88738 0.89633 0.58589 0.0
C163 C 0.89154 0.93601 0.59483 0.0
C164 C 0.92105 0.95509 0.56999 0.0
C165 C 0.94597 0.93433 0.53731 0.0
C166 C 0.94263 0.89414 0.53291 0.0
H167 H 0.71886 0.29319 0.09181 0.0
H168 H 0.7349 0.31854 0.90745 0.0
H169 H 0.68817 0.37219 0.90603 0.0
H170 H 0.61524 0.31375 0.07292 0.0
H171 H 0.61919 0.33368 0.14957 0.0
H172 H 0.6521 0.29692 0.13302 0.0
H173 H 0.71125 0.34088 0.17624 0.0
H174 H 0.67854 0.37756 0.19327 0.0
H175 H 0.71458 0.38787 0.14586 0.0
H176 H 0.64094 0.42765 0.93137 0.0
H177 H 0.60246 0.47584 0.98058 0.0
H178 H 0.6173 0.4086 0.1443 0.0
C179 C 0.71213 0.30987 0.05095 0.0
C180 C 0.73021 0.3018 1.00003 0.0
C181 C 0.72111 0.32419 0.9471 0.0
C182 C 0.69457 0.35468 0.94595 0.0
C183 C 0.67716 0.362 0.99768 0.0
C184 C 0.68567 0.33977 0.04895 0.0
C185 C 0.66475 0.35333 0.09974 0.0
C186 C 0.63612 0.32259 0.11465 0.0
C187 C 0.69402 0.36565 0.15712 0.0
C188 C 0.64344 0.38712 0.06998 0.0
C189 C 0.6505 0.39215 0.01111 0.0
C190 C 0.63506 0.42352 0.97727 0.0
C191 C 0.613 0.45067 0.00523 0.0
C192 C 0.60695 0.44612 0.06634 0.0
C193 C 0.62145 0.4132 0.09758 0.0
H194 H 0.18781 0.86574 0.2369 0.0
H195 H 0.21685 0.97097 0.15477 0.0
H196 H 0.19446 1.00814 0.23851 0.0
H197 H 0.10145 0.89566 0.27413 0.0
H198 H 0.10521 0.87103 0.34536 0.0
H199 H 0.13029 0.85314 0.28608 0.0
H200 H 0.19559 0.85603 0.36197 0.0
H201 H 0.17057 0.87423 0.42159 0.0
H202 H 0.21142 0.90039 0.40183 0.0
H203 H 0.15883 0.03371 0.32104 0.0
H204 H 0.11111 0.04453 0.39057 0.0
H205 H 0.10729 0.92327 0.42219 0.0
C206 C 0.1908 0.89657 0.23781 0.0
C207 C 0.2044 0.91542 0.18953 0.0
C208 C 0.20654 0.95589 0.19125 0.0
C209 C 0.19414 0.97725 0.23892 0.0
C210 C 0.17986 0.9578 0.285 0.0
C211 C 0.17834 0.91829 0.28494 0.0
C212 C 0.15748 0.90429 0.3353 0.0
C213 C 0.12148 0.87961 0.3086 0.0
C214 C 0.18545 0.88245 0.383 0.0
C215 C 0.14596 0.94199 0.36195 0.0
C216 C 0.15981 0.97262 0.33328 0.0
C217 C 0.14904 0.01004 0.3454 0.0
C218 C 0.12241 0.01614 0.38604 0.0
C219 C 0.10696 0.98503 0.41428 0.0
C220 C 0.11989 0.94772 0.40317 0.0
H221 H 0.61224 0.71728 0.70684 0.0
H222 H 0.71993 0.65451 0.72409 0.0
H223 H 0.70173 0.61996 0.81221 0.0
H224 H 0.60996 0.72576 0.87385 0.0
H225 H 0.55758 0.72114 0.86216 0.0
H226 H 0.58121 0.74279 0.80472 0.0
H227 H 0.54665 0.694 0.72294 0.0
H228 H 0.52283 0.67246 0.77991 0.0
H229 H 0.55176 0.64359 0.73645 0.0
H230 H 0.66723 0.58769 0.89251 0.0
H231 H 0.62007 0.56133 0.95431 0.0
H232 H 0.53763 0.64849 0.88566 0.0
C233 C 0.63213 0.69661 0.72988 0.0
C234 C 0.66732 0.68832 0.70914 0.0
C235 C 0.69284 0.66117 0.7399 0.0
C236 C 0.68278 0.64157 0.78993 0.0
C237 C 0.6475 0.65014 0.80917 0.0
C238 C 0.62286 0.67742 0.78032 0.0
C239 C 0.58597 0.6805 0.8076 0.0
C240 C 0.58355 0.71989 0.83895 0.0
C241 C 0.54969 0.67211 0.75883 0.0
C242 C 0.5926 0.6494 0.85415 0.0
C243 C 0.62842 0.63243 0.85545 0.0
C244 C 0.63938 0.60124 0.8925 0.0
C245 C 0.61256 0.58652 0.92767 0.0
C246 C 0.57524 0.60284 0.92475 0.0
C247 C 0.56595 0.63534 0.88892 0.0
H248 H 0.85269 0.11432 0.08064 0.0
H249 H 0.87748 0.23312 0.13391 0.0
H250 H 0.91155 0.21326 0.23543 0.0
H251 H 0.836 0.08265 0.22863 0.0
H252 H 0.85845 0.03708 0.21997 0.0
H253 H 0.8349 0.06135 0.15338 0.0
H254 H 0.89863 0.05831 0.10702 0.0
H255 H 0.92232 0.03405 0.17341 0.0
H256 H 0.94326 0.07759 0.15063 0.0
H257 H 0.94649 0.1783 0.33155 0.0
H258 H 0.9764 0.13267 0.40956 0.0
H259 H 0.92689 0.03845 0.28961 0.0
C260 C 0.86529 0.13625 0.11353 0.0
C261 C 0.86248 0.1753 0.09904 0.0
C262 C 0.87894 0.20302 0.14402 0.0
C263 C 0.89851 0.19198 0.20176 0.0
C264 C 0.90115 0.15309 0.21417 0.0
C265 C 0.88466 0.12579 0.17114 0.0
C266 C 0.89168 0.08588 0.19453 0.0
C267 C 0.85295 0.06556 0.19943 0.0
C268 C 0.91539 0.06261 0.154 0.0
C269 C 0.91521 0.09475 0.25714 0.0
C270 C 0.92047 0.13355 0.26827 0.0
C271 C 0.94225 0.14785 0.3232 0.0
C272 C 0.95914 0.12175 0.36736 0.0
C273 C 0.9542 0.08182 0.3562 0.0
C274 C 0.93155 0.06866 0.30029 0.0
H275 H 0.34755 0.37549 0.66221 0.0
H276 H 0.45575 0.34528 0.60143 0.0
H277 H 0.49281 0.36895 0.70078 0.0
H278 H 0.38105 0.46218 0.73059 0.0
H279 H 0.35363 0.45977 0.79277 0.0
H280 H 0.33616 0.43487 0.72149 0.0
H281 H 0.33412 0.3716 0.77939 0.0
H282 H 0.35211 0.39638 0.85097 0.0
H283 H 0.37759 0.35546 0.82739 0.0
H284 H 0.51826 0.40144 0.80419 0.0
H285 H 0.52938 0.4464 0.89397 0.0
H286 H 0.40458 0.45685 0.88434 0.0
C287 C 0.37898 0.3729 0.67056 0.0
C288 C 0.39878 0.35807 0.62457 0.0
C289 C 0.44003 0.35638 0.63628 0.0
C290 C 0.46127 0.36948 0.69273 0.0
C291 C 0.44087 0.38433 0.73705 0.0
C292 C 0.40059 0.38632 0.72625 0.0
C293 C 0.38573 0.40763 0.77789 0.0
C294 C 0.36282 0.44321 0.75427 0.0
C295 C 0.36092 0.38118 0.81086 0.0
C296 C 0.42389 0.41838 0.81859 0.0
C297 C 0.45544 0.4039 0.79529 0.0
C298 C 0.49373 0.4124 0.82329 0.0
C299 C 0.49985 0.43764 0.87467 0.0
C300 C 0.46782 0.45452 0.89652 0.0
C301 C 0.42953 0.44363 0.86928 0.0
H302 H 0.68847 0.69944 0.43443 0.0
H303 H 0.58372 0.7108 0.51543 0.0
H304 H 0.54379 0.68969 0.41732 0.0
H305 H 0.6441 0.72791 0.27561 0.0
H306 H 0.67212 0.69318 0.24072 0.0
H307 H 0.6919 0.71514 0.31393 0.0
H308 H 0.70245 0.6483 0.36132 0.0
H309 H 0.68324 0.62632 0.2883 0.0
H310 H 0.66181 0.61524 0.35467 0.0
H311 H 0.51602 0.65931 0.31486 0.0
H312 H 0.50427 0.61753 0.22204 0.0
H313 H 0.62633 0.62674 0.20607 0.0
C314 C 0.65705 0.69857 0.43093 0.0
C315 C 0.63926 0.70698 0.48262 0.0
C316 C 0.59807 0.70438 0.47659 0.0
C317 C 0.57508 0.69275 0.42081 0.0
C318 C 0.59355 0.68401 0.37098 0.0
C319 C 0.63365 0.68679 0.37556 0.0
C320 C 0.6467 0.6717 0.31753 0.0
C321 C 0.66478 0.70391 0.28503 0.0
C322 C 0.6752 0.63841 0.3313 0.0
C323 C 0.60797 0.65829 0.28084 0.0
C324 C 0.57747 0.66656 0.31168 0.0
C325 C 0.53949 0.6537 0.28943 0.0
C326 C 0.53284 0.63047 0.23585 0.0
C327 C 0.56404 0.62018 0.20529 0.0
C328 C 0.60172 0.63539 0.22722 0.0
H329 H 0.85764 0.20286 0.8214 0.0
H330 H 0.83071 0.09863 0.90812 0.0
H331 H 0.85148 0.06046 0.824 0.0
H332 H 0.8315 0.16704 0.65824 0.0
H333 H 0.87192 0.19251 0.63577 0.0
H334 H 0.8485 0.21152 0.69665 0.0
H335 H 0.91496 0.21418 0.76973 0.0
H336 H 0.93846 0.19566 0.70902 0.0
H337 H 0.94353 0.17144 0.78075 0.0
H338 H 0.88373 0.03365 0.73811 0.0
H339 H 0.92914 0.02157 0.66503 0.0
H340 H 0.93446 0.14276 0.63302 0.0
C341 C 0.85497 0.17203 0.82154 0.0
C342 C 0.84219 0.15372 0.87097 0.0
C343 C 0.84033 0.11325 0.87062 0.0
C344 C 0.8518 0.09134 0.82276 0.0
C345 C 0.86503 0.11021 0.77522 0.0
C346 C 0.86668 0.14971 0.77434 0.0
C347 C 0.88647 0.16302 0.72237 0.0
C348 C 0.85788 0.18481 0.67548 0.0
C349 C 0.92301 0.18749 0.74695 0.0
C350 C 0.89703 0.12496 0.69564 0.0
C351 C 0.88366 0.09474 0.72575 0.0
C352 C 0.89338 0.05704 0.71304 0.0
C353 C 0.91874 0.05026 0.67057 0.0
C354 C 0.93424 0.08104 0.64163 0.0
C355 C 0.92198 0.1186 0.65291 0.0
H356 H 0.39554 0.4247 0.4423 0.0
H357 H 0.3575 0.32222 0.33318 0.0
H358 H 0.37476 0.35284 0.24212 0.0
H359 H 0.36921 0.49504 0.32269 0.0
H360 H 0.41254 0.52352 0.34823 0.0
H361 H 0.39097 0.49636 0.40247 0.0
H362 H 0.45669 0.46244 0.43649 0.0
H363 H 0.47845 0.4898 0.38304 0.0
H364 H 0.48004 0.43835 0.37965 0.0
H365 H 0.40055 0.39337 0.16357 0.0
H366 H 0.44054 0.43576 0.10976 0.0
H367 H 0.4679 0.50768 0.27346 0.0
C368 C 0.39081 0.40838 0.39954 0.0
C369 C 0.37484 0.37085 0.3956 0.0
C370 C 0.36878 0.35124 0.33782 0.0
C371 C 0.3786 0.3684 0.28558 0.0
C372 C 0.39473 0.40518 0.29159 0.0
C373 C 0.40118 0.4247 0.34739 0.0
C374 C 0.42287 0.46203 0.3436 0.0
C375 C 0.39737 0.49626 0.35492 0.0
C376 C 0.46182 0.46319 0.38831 0.0
C377 C 0.4291 0.45977 0.27757 0.0
C378 C 0.41147 0.42746 0.24758 0.0
C379 C 0.41422 0.41886 0.18653 0.0
C380 C 0.43672 0.44317 0.15618 0.0
C381 C 0.4569 0.47495 0.18755 0.0
C382 C 0.45232 0.48372 0.24845 0.0
H383 H 0.13425 0.92735 0.98868 0.0
H384 H 0.22394 0.86613 0.91153 0.0
H385 H 0.19419 0.88556 0.80881 0.0
H386 H 0.05443 0.91341 0.8634 0.0
H387 H 0.03699 0.96144 0.86939 0.0
H388 H 0.06204 0.93863 0.93646 0.0
H389 H 0.11206 0.99472 0.9559 0.0
H390 H 0.08689 0.01789 0.88944 0.0
H391 H 0.1382 1.00823 0.89569 0.0
H392 H 0.15487 0.91327 0.71246 0.0
H393 H 0.11593 0.95415 0.63564 0.0
H394 H 0.05838 1.00331 0.77789 0.0
C395 C 0.1482 0.91802 0.95081 0.0
C396 C 0.18149 0.89434 0.95964 0.0
C397 C 0.19777 0.88296 0.90719 0.0
C398 C 0.18119 0.89415 0.84811 0.0
C399 C 0.1486 0.91745 0.84155 0.0
C400 C 0.13277 0.92982 0.89174 0.0
C401 C 0.10015 0.95776 0.87335 0.0
C402 C 0.06109 0.94184 0.88643 0.0
C403 C 0.10992 0.99697 0.90548 0.0
C404 C 0.10038 0.95952 0.80507 0.0
C405 C 0.12785 0.93536 0.78717 0.0
C406 C 0.1333 0.93229 0.72608 0.0
C407 C 0.11092 0.95535 0.68264 0.0
C408 C 0.08418 0.9817 0.70091 0.0
C409 C 0.07856 0.98326 0.76272 0.0
loop_
_geom_bond_atom_site_label_1
_geom_bond_atom_site_label_2
_geom_bond_distance
_geom_bond_site_symmetry_2
_ccdc_geom_bond_type
H0 C5 0.929 1_556 S
H1 C10 0.931 . S
H2 C8 0.930 . S
N3 N4 1.234 . S
N3 C7 1.453 . S
N4 N3 1.234 . S
C5 H0 0.929 1_554 S
C5 C6 1.373 . S
C5 C7 1.368 . S
C6 C5 1.373 . S
C6 C10 1.397 . S
C7 N3 1.453 . S
C7 C5 1.368 . S
C7 C8 1.373 . S
C8 H2 0.930 . S
C8 C7 1.373 . S
C8 C9 1.371 . S
C9 C8 1.371 . S
C9 C10 1.383 . S
C10 H1 0.931 . S
C10 C6 1.397 . S
C10 C9 1.383 . S
H11 C16 0.929 . S
H12 C21 0.931 . S
H13 C19 0.930 . S
N14 N15 1.234 . S
N14 C18 1.453 . S
N15 N14 1.234 . S
C16 H11 0.929 . S
C16 C17 1.373 . S
C16 C18 1.368 . S
C17 C16 1.373 . S
C17 C21 1.397 . S
C18 N14 1.453 . S
C18 C16 1.368 . S
C18 C19 1.373 . S
C19 H13 0.930 . S
C19 C18 1.373 . S
C19 C20 1.371 . S
C20 C19 1.371 . S
C20 C21 1.383 . S
C21 H12 0.931 . S
C21 C17 1.397 . S
C21 C20 1.383 . S
H22 C27 0.929 . S
H23 C32 0.931 . S
H24 C30 0.930 . S
N25 N26 1.234 1_556 S
N25 C29 1.453 . S
N26 N25 1.234 1_554 S
C27 H22 0.929 . S
C27 C28 1.373 . S
C27 C29 1.368 . S
C28 C27 1.373 . S
C28 C32 1.397 1_556 S
C29 N25 1.453 . S
C29 C27 1.368 . S
C29 C30 1.373 1_556 S
C30 H24 0.930 . S
C30 C29 1.373 1_554 S
C30 C31 1.371 . S
C31 C30 1.371 . S
C31 C32 1.383 . S
C32 H23 0.931 . S
C32 C28 1.397 1_554 S
C32 C31 1.383 . S
H33 C38 0.929 . S
H34 C43 0.931 . S
H35 C41 0.930 . S
N36 N37 1.234 . S
N36 C40 1.453 . S
N37 N36 1.234 . S
C38 H33 0.929 . S
C38 C39 1.373 . S
C38 C40 1.368 . S
C39 C38 1.373 . S
C39 C43 1.397 . S
C40 N36 1.453 . S
C40 C38 1.368 . S
C40 C41 1.373 . S
C41 H35 0.930 . S
C41 C40 1.373 . S
C41 C42 1.371 . S
C42 C41 1.371 . S
C42 C43 1.383 . S
C43 H34 0.931 . S
C43 C39 1.397 . S
C43 C42 1.383 . S
O44 Mn45 2.163 1_655 S
O44 C58 1.244 . S
Mn45 O44 2.163 1_455 S
Mn45 O48 2.160 1_545 S
Mn45 O49 2.221 . S
Mn45 O51 2.163 1_455 S
Mn45 O53 2.160 1_545 S
Mn45 O63 2.221 1_445 S
O46 Mn47 2.087 1_545 S
O46 C58 1.256 . S
Mn47 O46 2.087 1_565 S
Mn47 O54 2.089 1_655 S
Mn47 O63 2.290 . S
Mn47 O64 2.251 . S
O48 Mn45 2.160 1_565 S
O48 C59 1.239 . S
O49 Mn45 2.221 . S
O49 Mn50 2.290 . S
O49 C60 1.278 . S
Mn50 O49 2.290 . S
Mn50 O52 2.089 . S
Mn50 O55 2.251 . S
Mn50 O56 2.087 . S
O51 Mn45 2.163 1_655 S
O51 C61 1.244 . S
O52 Mn50 2.089 . S
O52 C59 1.256 1_545 S
O53 Mn45 2.160 1_565 S
O53 C62 1.239 . S
O54 Mn47 2.089 1_455 S
O54 C62 1.256 . S
O55 Mn50 2.251 . S
O55 C60 1.241 . S
O56 Mn50 2.087 . S
O56 C61 1.256 1_455 S
C57 O63 1.278 . S
C57 O64 1.241 . S
C58 O44 1.244 . S
C58 O46 1.256 . S
C59 O48 1.239 . S
C59 O52 1.256 1_565 S
C60 O49 1.278 . S
C60 O55 1.241 . S
C61 O51 1.244 . S
C61 O56 1.256 1_655 S
C62 O53 1.239 . S
C62 O54 1.256 . S
O63 Mn45 2.221 1_665 S
O63 Mn47 2.290 . S
O63 C57 1.278 . S
O64 Mn47 2.251 . S
O64 C57 1.241 . S
O65 Mn66 2.163 . S
O65 C79 1.244 . S
Mn66 O65 2.163 . S
Mn66 O69 2.160 1_554 S
Mn66 O70 2.221 . S
Mn66 O72 2.163 1_554 S
Mn66 O74 2.160 . S
Mn66 O84 2.221 . S
O67 Mn68 2.087 . S
O67 C79 1.256 . S
Mn68 O67 2.087 . S
Mn68 O75 2.089 . S
Mn68 O84 2.290 . S
Mn68 O85 2.251 . S
O69 Mn66 2.160 1_556 S
O69 C80 1.239 . S
O70 Mn66 2.221 . S
O70 Mn71 2.290 1_554 S
O70 C81 1.278 . S
Mn71 O70 2.290 1_556 S
Mn71 O73 2.089 . S
Mn71 O76 2.251 . S
Mn71 O77 2.087 . S
O72 Mn66 2.163 1_556 S
O72 C82 1.244 . S
O73 Mn71 2.089 . S
O73 C80 1.256 . S
O74 Mn66 2.160 . S
O74 C83 1.239 . S
O75 Mn68 2.089 . S
O75 C83 1.256 . S
O76 Mn71 2.251 . S
O76 C81 1.241 1_556 S
O77 Mn71 2.087 . S
O77 C82 1.256 . S
C78 O84 1.278 . S
C78 O85 1.241 . S
C79 O65 1.244 . S
C79 O67 1.256 . S
C80 O69 1.239 . S
C80 O73 1.256 . S
C81 O70 1.278 . S
C81 O76 1.241 1_554 S
C82 O72 1.244 . S
C82 O77 1.256 . S
C83 O74 1.239 . S
C83 O75 1.256 . S
O84 Mn66 2.221 . S
O84 Mn68 2.290 . S
O84 C78 1.278 . S
O85 Mn68 2.251 . S
O85 C78 1.241 . S
H86 C98 0.930 . S
H87 C100 0.930 . S
H88 C101 0.930 . S
H89 C105 0.959 . S
H90 C105 0.959 . S
H91 C105 0.961 . S
H92 C106 0.960 . S
H93 C106 0.961 . S
H94 C106 0.959 . S
H95 C109 0.929 . S
H96 C110 0.931 . S
H97 C112 0.930 . S
C98 H86 0.930 . S
C98 C99 1.399 . S
C98 C103 1.399 . S
C99 C98 1.399 . S
C99 C100 1.376 . S
C100 H87 0.930 . S
C100 C99 1.376 . S
C100 C101 1.388 . S
C101 H88 0.930 . S
C101 C100 1.388 . S
C101 C102 1.390 . S
C102 C101 1.390 . S
C102 C103 1.394 . S
C102 C108 1.465 . S
C103 C98 1.399 . S
C103 C102 1.394 . S
C103 C104 1.516 . S
C104 C103 1.516 . S
C104 C105 1.502 . S
C104 C106 1.561 . S
C104 C107 1.526 . S
C105 H89 0.959 . S
C105 H90 0.959 . S
C105 H91 0.961 . S
C105 C104 1.502 . S
C106 H92 0.960 . S
C106 H93 0.961 . S
C106 H94 0.959 . S
C106 C104 1.561 . S
C107 C104 1.526 . S
C107 C108 1.396 . S
C107 C112 1.390 . S
C108 C102 1.465 . S
C108 C107 1.396 . S
C108 C109 1.399 . S
C109 H95 0.929 . S
C109 C108 1.399 . S
C109 C110 1.385 . S
C110 H96 0.931 . S
C110 C109 1.385 . S
C110 C111 1.389 . S
C111 C110 1.389 . S
C111 C112 1.387 . S
C112 H97 0.930 . S
C112 C107 1.390 . S
C112 C111 1.387 . S
H113 C125 0.930 . S
H114 C127 0.930 . S
H115 C128 0.930 . S
H116 C132 0.959 1_554 S
H117 C132 0.959 . S
H118 C132 0.961 . S
H119 C133 0.960 . S
H120 C133 0.961 . S
H121 C133 0.959 . S
H122 C136 0.929 . S
H123 C137 0.931 . S
H124 C139 0.930 1_556 S
C125 H113 0.930 . S
C125 C126 1.399 . S
C125 C130 1.399 . S
C126 C125 1.399 . S
C126 C127 1.376 . S
C127 H114 0.930 . S
C127 C126 1.376 . S
C127 C128 1.388 . S
C128 H115 0.930 . S
C128 C127 1.388 . S
C128 C129 1.390 . S
C129 C128 1.390 . S
C129 C130 1.394 . S
C129 C135 1.465 . S
C130 C125 1.399 . S
C130 C129 1.394 . S
C130 C131 1.516 . S
C131 C130 1.516 . S
C131 C132 1.502 1_554 S
C131 C133 1.561 1_554 S
C131 C134 1.526 . S
C132 H116 0.959 1_556 S
C132 H117 0.959 . S
C132 H118 0.961 . S
C132 C131 1.502 1_556 S
C133 H119 0.960 . S
C133 H120 0.961 . S
C133 H121 0.959 . S
C133 C131 1.561 1_556 S
C134 C131 1.526 . S
C134 C135 1.396 . S
C134 C139 1.390 . S
C135 C129 1.465 . S
C135 C134 1.396 . S
C135 C136 1.399 . S
C136 H122 0.929 . S
C136 C135 1.399 . S
C136 C137 1.385 . S
C137 H123 0.931 . S
C137 C136 1.385 . S
C137 C138 1.389 . S
C138 C137 1.389 . S
C138 C139 1.387 . S
C139 H124 0.930 1_554 S
C139 C134 1.390 . S
C139 C138 1.387 . S
H140 C152 0.930 . S
H141 C154 0.930 . S
H142 C155 0.930 . S
H143 C159 0.959 . S
H144 C159 0.959 . S
H145 C159 0.961 . S
H146 C160 0.960 . S
H147 C160 0.961 . S
H148 C160 0.959 . S
H149 C163 0.929 . S
H150 C164 0.931 . S
H151 C166 0.930 . S
C152 H140 0.930 . S
C152 C153 1.399 . S
C152 C157 1.399 . S
C153 C152 1.399 . S
C153 C154 1.376 . S
C154 H141 0.930 . S
C154 C153 1.376 . S
C154 C155 1.388 . S
C155 H142 0.930 . S
C155 C154 1.388 . S
C155 C156 1.390 . S
C156 C155 1.390 . S
C156 C157 1.394 . S
C156 C162 1.465 . S
C157 C152 1.399 . S
C157 C156 1.394 . S
C157 C158 1.516 . S
C158 C157 1.516 . S
C158 C159 1.502 . S
C158 C160 1.561 . S
C158 C161 1.526 . S
C159 H143 0.959 . S
C159 H144 0.959 . S
C159 H145 0.961 . S
C159 C158 1.502 . S
C160 H146 0.960 . S
C160 H147 0.961 . S
C160 H148 0.959 . S
C160 C158 1.561 . S
C161 C158 1.526 . S
C161 C162 1.396 . S
C161 C166 1.390 . S
C162 C156 1.465 . S
C162 C161 1.396 . S
C162 C163 1.399 . S
C163 H149 0.929 . S
C163 C162 1.399 . S
C163 C164 1.385 . S
C164 H150 0.931 . S
C164 C163 1.385 . S
C164 C165 1.389 . S
C165 C164 1.389 . S
C165 C166 1.387 . S
C166 H151 0.930 . S
C166 C161 1.390 . S
C166 C165 1.387 . S
H167 C179 0.930 . S
H168 C181 0.930 . S
H169 C182 0.930 . S
H170 C186 0.959 . S
H171 C186 0.959 . S
H172 C186 0.961 . S
H173 C187 0.960 . S
H174 C187 0.961 . S
H175 C187 0.959 . S
H176 C190 0.929 . S
H177 C191 0.931 . S
H178 C193 0.930 . S
C179 H167 0.930 . S
C179 C180 1.399 . S
C179 C184 1.399 . S
C180 C179 1.399 . S
C180 C181 1.376 1_554 S
C181 H168 0.930 . S
C181 C180 1.376 1_556 S
C181 C182 1.388 . S
C182 H169 0.930 . S
C182 C181 1.388 . S
C182 C183 1.390 . S
C183 C182 1.390 . S
C183 C184 1.394 1_556 S
C183 C189 1.465 . S
C184 C179 1.399 . S
C184 C183 1.394 1_554 S
C184 C185 1.516 . S
C185 C184 1.516 . S
C185 C186 1.502 . S
C185 C187 1.561 . S
C185 C188 1.526 . S
C186 H170 0.959 . S
C186 H171 0.959 . S
C186 H172 0.961 . S
C186 C185 1.502 . S
C187 H173 0.960 . S
C187 H174 0.961 . S
C187 H175 0.959 . S
C187 C185 1.561 . S
C188 C185 1.526 . S
C188 C189 1.396 1_554 S
C188 C193 1.390 . S
C189 C183 1.465 . S
C189 C188 1.396 1_556 S
C189 C190 1.399 . S
C190 H176 0.929 . S
C190 C189 1.399 . S
C190 C191 1.385 . S
C191 H177 0.931 . S
C191 C190 1.385 . S
C191 C192 1.389 1_556 S
C192 C191 1.389 1_554 S
C192 C193 1.387 . S
C193 H178 0.930 . S
C193 C188 1.390 . S
C193 C192 1.387 . S
H194 C206 0.930 . S
H195 C208 0.930 . S
H196 C209 0.930 . S
H197 C213 0.959 . S
H198 C213 0.959 . S
H199 C213 0.961 . S
H200 C214 0.960 . S
H201 C214 0.961 . S
H202 C214 0.959 . S
H203 C217 0.936 . S
H204 C218 0.931 1_545 S
H205 C220 0.930 . S
C206 H194 0.930 . S
C206 C207 1.399 . S
C206 C211 1.399 . S
C207 C206 1.399 . S
C207 C208 1.376 . S
C208 H195 0.930 . S
C208 C207 1.376 . S
C208 C209 1.388 . S
C209 H196 0.930 . S
C209 C208 1.388 . S
C209 C210 1.390 . S
C210 C209 1.390 . S
C210 C211 1.394 . S
C210 C216 1.465 . S
C211 C206 1.399 . S
C211 C210 1.394 . S
C211 C212 1.516 . S
C212 C211 1.516 . S
C212 C213 1.502 . S
C212 C214 1.561 . S
C212 C215 1.526 . S
C213 H197 0.959 . S
C213 H198 0.959 . S
C213 H199 0.961 . S
C213 C212 1.502 . S
C214 H200 0.960 . S
C214 H201 0.961 . S
C214 H202 0.959 . S
C214 C212 1.561 . S
C215 C212 1.526 . S
C215 C216 1.396 . S
C215 C220 1.390 . S
C216 C210 1.465 . S
C216 C215 1.396 . S
C216 C217 1.399 . S
C217 H203 0.936 . S
C217 C216 1.399 . S
C217 C218 1.385 . S
C218 H204 0.931 1_565 S
C218 C217 1.385 . S
C218 C219 1.389 . S
C219 C218 1.389 . S
C219 C220 1.387 . S
C220 H205 0.930 . S
C220 C215 1.390 . S
C220 C219 1.387 . S
H221 C233 0.930 . S
H222 C235 0.930 . S
H223 C236 0.930 . S
H224 C240 0.959 . S
H225 C240 0.959 . S
H226 C240 0.961 . S
H227 C241 0.960 . S
H228 C241 0.961 . S
H229 C241 0.959 . S
H230 C244 0.929 . S
H231 C245 0.931 . S
H232 C247 0.930 . S
C233 H221 0.930 . S
C233 C234 1.399 . S
C233 C238 1.399 . S
C234 C233 1.399 . S
C234 C235 1.376 . S
C235 H222 0.930 . S
C235 C234 1.376 . S
C235 C236 1.388 . S
C236 H223 0.930 . S
C236 C235 1.388 . S
C236 C237 1.390 . S
C237 C236 1.390 . S
C237 C238 1.394 . S
C237 C243 1.465 . S
C238 C233 1.399 . S
C238 C237 1.394 . S
C238 C239 1.516 . S
C239 C238 1.516 . S
C239 C240 1.502 . S
C239 C241 1.561 . S
C239 C242 1.526 . S
C240 H224 0.959 . S
C240 H225 0.959 . S
C240 H226 0.961 . S
C240 C239 1.502 . S
C241 H227 0.960 . S
C241 H228 0.961 . S
C241 H229 0.959 . S
C241 C239 1.561 . S
C242 C239 1.526 . S
C242 C243 1.396 . S
C242 C247 1.390 . S
C243 C237 1.465 . S
C243 C242 1.396 . S
C243 C244 1.399 . S
C244 H230 0.929 . S
C244 C243 1.399 . S
C244 C245 1.385 . S
C245 H231 0.931 . S
C245 C244 1.385 . S
C245 C246 1.389 . S
C246 C245 1.389 . S
C246 C247 1.387 . S
C247 H232 0.930 . S
C247 C242 1.390 . S
C247 C246 1.387 . S
H248 C260 0.930 . S
H249 C262 0.930 . S
H250 C263 0.930 . S
H251 C267 0.959 . S
H252 C267 0.959 . S
H253 C267 0.961 . S
H254 C268 0.960 . S
H255 C268 0.961 . S
H256 C268 0.959 . S
H257 C271 0.929 . S
H258 C272 0.931 . S
H259 C274 0.930 . S
C260 H248 0.930 . S
C260 C261 1.399 . S
C260 C265 1.399 . S
C261 C260 1.399 . S
C261 C262 1.376 . S
C262 H249 0.930 . S
C262 C261 1.376 . S
C262 C263 1.388 . S
C263 H250 0.930 . S
C263 C262 1.388 . S
C263 C264 1.390 . S
C264 C263 1.390 . S
C264 C265 1.394 . S
C264 C270 1.465 . S
C265 C260 1.399 . S
C265 C264 1.394 . S
C265 C266 1.516 . S
C266 C265 1.516 . S
C266 C267 1.502 . S
C266 C268 1.561 . S
C266 C269 1.526 . S
C267 H251 0.959 . S
C267 H252 0.959 . S
C267 H253 0.961 . S
C267 C266 1.502 . S
C268 H254 0.960 . S
C268 H255 0.961 . S
C268 H256 0.959 . S
C268 C266 1.561 . S
C269 C266 1.526 . S
C269 C270 1.396 . S
C269 C274 1.390 . S
C270 C264 1.465 . S
C270 C269 1.396 . S
C270 C271 1.399 . S
C271 H257 0.929 . S
C271 C270 1.399 . S
C271 C272 1.385 . S
C272 H258 0.931 . S
C272 C271 1.385 . S
C272 C273 1.389 . S
C273 C272 1.389 . S
C273 C274 1.387 . S
C274 H259 0.930 . S
C274 C269 1.390 . S
C274 C273 1.387 . S
H275 C287 0.930 . S
H276 C289 0.930 . S
H277 C290 0.930 . S
H278 C294 0.959 . S
H279 C294 0.959 . S
H280 C294 0.961 . S
H281 C295 0.960 . S
H282 C295 0.961 . S
H283 C295 0.959 . S
H284 C298 0.929 . S
H285 C299 0.931 . S
H286 C301 0.930 . S
C287 H275 0.930 . S
C287 C288 1.399 . S
C287 C292 1.399 . S
C288 C287 1.399 . S
C288 C289 1.376 . S
C289 H276 0.930 . S
C289 C288 1.376 . S
C289 C290 1.388 . S
C290 H277 0.930 . S
C290 C289 1.388 . S
C290 C291 1.390 . S
C291 C290 1.390 . S
C291 C292 1.394 . S
C291 C297 1.465 . S
C292 C287 1.399 . S
C292 C291 1.394 . S
C292 C293 1.516 . S
C293 C292 1.516 . S
C293 C294 1.502 . S
C293 C295 1.561 . S
C293 C296 1.526 . S
C294 H278 0.959 . S
C294 H279 0.959 . S
C294 H280 0.961 . S
C294 C293 1.502 . S
C295 H281 0.960 . S
C295 H282 0.961 . S
C295 H283 0.959 . S
C295 C293 1.561 . S
C296 C293 1.526 . S
C296 C297 1.396 . S
C296 C301 1.390 . S
C297 C291 1.465 . S
C297 C296 1.396 . S
C297 C298 1.399 . S
C298 H284 0.929 . S
C298 C297 1.399 . S
C298 C299 1.385 . S
C299 H285 0.931 . S
C299 C298 1.385 . S
C299 C300 1.389 . S
C300 C299 1.389 . S
C300 C301 1.387 . S
C301 H286 0.930 . S
C301 C296 1.390 . S
C301 C300 1.387 . S
H302 C314 0.930 . S
H303 C316 0.930 . S
H304 C317 0.930 . S
H305 C321 0.959 . S
H306 C321 0.959 . S
H307 C321 0.961 . S
H308 C322 0.960 . S
H309 C322 0.961 . S
H310 C322 0.959 . S
H311 C325 0.929 . S
H312 C326 0.931 . S
H313 C328 0.930 . S
C314 H302 0.930 . S
C314 C315 1.399 . S
C314 C319 1.399 . S
C315 C314 1.399 . S
C315 C316 1.376 . S
C316 H303 0.930 . S
C316 C315 1.376 . S
C316 C317 1.388 . S
C317 H304 0.930 . S
C317 C316 1.388 . S
C317 C318 1.390 . S
C318 C317 1.390 . S
C318 C319 1.394 . S
C318 C324 1.465 . S
C319 C314 1.399 . S
C319 C318 1.394 . S
C319 C320 1.516 . S
C320 C319 1.516 . S
C320 C321 1.502 . S
C320 C322 1.561 . S
C320 C323 1.526 . S
C321 H305 0.959 . S
C321 H306 0.959 . S
C321 H307 0.961 . S
C321 C320 1.502 . S
C322 H308 0.960 . S
C322 H309 0.961 . S
C322 H310 0.959 . S
C322 C320 1.561 . S
C323 C320 1.526 . S
C323 C324 1.396 . S
C323 C328 1.390 . S
C324 C318 1.465 . S
C324 C323 1.396 . S
C324 C325 1.399 . S
C325 H311 0.929 . S
C325 C324 1.399 . S
C325 C326 1.385 . S
C326 H312 0.931 . S
C326 C325 1.385 . S
C326 C327 1.389 . S
C327 C326 1.389 . S
C327 C328 1.387 . S
C328 H313 0.930 . S
C328 C323 1.390 . S
C328 C327 1.387 . S
H329 C341 0.930 . S
H330 C343 0.930 . S
H331 C344 0.930 . S
H332 C348 0.959 . S
H333 C348 0.959 . S
H334 C348 0.961 . S
H335 C349 0.960 . S
H336 C349 0.961 . S
H337 C349 0.959 . S
H338 C352 0.929 . S
H339 C353 0.931 . S
H340 C355 0.930 . S
C341 H329 0.930 . S
C341 C342 1.399 . S
C341 C346 1.399 . S
C342 C341 1.399 . S
C342 C343 1.376 . S
C343 H330 0.930 . S
C343 C342 1.376 . S
C343 C344 1.388 . S
C344 H331 0.930 . S
C344 C343 1.388 . S
C344 C345 1.390 . S
C345 C344 1.390 . S
C345 C346 1.394 . S
C345 C351 1.465 . S
C346 C341 1.399 . S
C346 C345 1.394 . S
C346 C347 1.516 . S
C347 C346 1.516 . S
C347 C348 1.502 . S
C347 C349 1.561 . S
C347 C350 1.526 . S
C348 H332 0.959 . S
C348 H333 0.959 . S
C348 H334 0.961 . S
C348 C347 1.502 . S
C349 H335 0.960 . S
C349 H336 0.961 . S
C349 H337 0.959 . S
C349 C347 1.561 . S
C350 C347 1.526 . S
C350 C351 1.396 . S
C350 C355 1.390 . S
C351 C345 1.465 . S
C351 C350 1.396 . S
C351 C352 1.399 . S
C352 H338 0.929 . S
C352 C351 1.399 . S
C352 C353 1.385 . S
C353 H339 0.931 . S
C353 C352 1.385 . S
C353 C354 1.389 . S
C354 C353 1.389 . S
C354 C355 1.387 . S
C355 H340 0.930 . S
C355 C350 1.390 . S
C355 C354 1.387 . S
H356 C368 0.930 . S
H357 C370 0.930 . S
H358 C371 0.930 . S
H359 C375 0.959 . S
H360 C375 0.959 . S
H361 C375 0.961 . S
H362 C376 0.960 . S
H363 C376 0.961 . S
H364 C376 0.959 . S
H365 C379 0.929 . S
H366 C380 0.931 . S
H367 C382 0.930 . S
C368 H356 0.930 . S
C368 C369 1.399 . S
C368 C373 1.399 . S
C369 C368 1.399 . S
C369 C370 1.376 . S
C370 H357 0.930 . S
C370 C369 1.376 . S
C370 C371 1.388 . S
C371 H358 0.930 . S
C371 C370 1.388 . S
C371 C372 1.390 . S
C372 C371 1.390 . S
C372 C373 1.394 . S
C372 C378 1.465 . S
C373 C368 1.399 . S
C373 C372 1.394 . S
C373 C374 1.516 . S
C374 C373 1.516 . S
C374 C375 1.502 . S
C374 C376 1.561 . S
C374 C377 1.526 . S
C375 H359 0.959 . S
C375 H360 0.959 . S
C375 H361 0.961 . S
C375 C374 1.502 . S
C376 H362 0.960 . S
C376 H363 0.961 . S
C376 H364 0.959 . S
C376 C374 1.561 . S
C377 C374 1.526 . S
C377 C378 1.396 . S
C377 C382 1.390 . S
C378 C372 1.465 . S
C378 C377 1.396 . S
C378 C379 1.399 . S
C379 H365 0.929 . S
C379 C378 1.399 . S
C379 C380 1.385 . S
C380 H366 0.931 . S
C380 C379 1.385 . S
C380 C381 1.389 . S
C381 C380 1.389 . S
C381 C382 1.387 . S
C382 H367 0.930 . S
C382 C377 1.390 . S
C382 C381 1.387 . S
H383 C395 0.930 . S
H384 C397 0.930 . S
H385 C398 0.930 . S
H386 C402 0.959 . S
H387 C402 0.959 . S
H388 C402 0.961 . S
H389 C403 0.960 . S
H390 C403 0.961 1_545 S
H391 C403 0.959 . S
H392 C406 0.929 . S
H393 C407 0.931 . S
H394 C409 0.930 . S
C395 H383 0.930 . S
C395 C396 1.399 . S
C395 C400 1.399 . S
C396 C395 1.399 . S
C396 C397 1.376 . S
C397 H384 0.930 . S
C397 C396 1.376 . S
C397 C398 1.388 . S
C398 H385 0.930 . S
C398 C397 1.388 . S
C398 C399 1.390 . S
C399 C398 1.390 . S
C399 C400 1.394 . S
C399 C405 1.465 . S
C400 C395 1.399 . S
C400 C399 1.394 . S
C400 C401 1.516 . S
C401 C400 1.516 . S
C401 C402 1.502 . S
C401 C403 1.561 . S
C401 C404 1.526 . S
C402 H386 0.959 . S
C402 H387 0.959 . S
C402 H388 0.961 . S
C402 C401 1.502 . S
C403 H389 0.960 . S
C403 H390 0.961 1_565 S
C403 H391 0.959 . S
C403 C401 1.561 . S
C404 C401 1.526 . S
C404 C405 1.396 . S
C404 C409 1.390 . S
C405 C399 1.465 . S
C405 C404 1.396 . S
C405 C406 1.399 . S
C406 H392 0.929 . S
C406 C405 1.399 . S
C406 C407 1.385 . S
C407 H393 0.931 . S
C407 C406 1.385 . S
C407 C408 1.389 . S
C408 C407 1.389 . S
C408 C409 1.387 . S
C409 H394 0.930 . S
C409 C404 1.390 . S
C409 C408 1.387 . S
C111 C60 1.189 . S
C99 N37 1.407 . S
C126 N4 1.458 . S
C138 C81 1.334 . S
C153 N15 1.583 . S
C165 C57 1.411 . S
C180 N26 1.602 . S
C192 C78 1.450 . S
C219 C62 1.506 . S
C207 C9 1.497 . S
C246 C82 1.546 . S
C234 C17 1.587 . S
C261 C31 1.578 . S
C273 C58 1.579 . S
C288 C42 1.493 . S
C300 C80 1.435 . S
C327 C79 1.427 . S
C315 C20 1.502 . S
C354 C61 1.439 . S
C342 C28 1.503 . S
C381 C83 1.382 . S
C369 C39 1.442 . S
C396 C6 1.451 1_556 S
C408 C59 1.404 . S
