# Generated by pormake.
# Topology rtl, (3,6)-cn, num edge types: 1
# Building blocks:
#     Node 0, Type 0, BuildingBlock: KAKCAD_clean_linker_0, # of connection points: 3
#     Node 1, Type 0, BuildingBlock: KAKCAD_clean_linker_0, # of connection points: 3
#     Node 2, Type 0, BuildingBlock: KAKCAD_clean_linker_0, # of connection points: 3
#     Node 3, Type 0, BuildingBlock: KAKCAD_clean_linker_0, # of connection points: 3
#     Node 4, Type 1, BuildingBlock: VOLQOD_clean_sbu_1, # of connection points: 6
#     Node 5, Type 1, BuildingBlock: VOLQOD_clean_sbu_1, # of connection points: 6
#     Edge 6, Type (0, 1), BuildingBlock: XIVTED_clean_linker_0, # of connection points: 2
#     Edge 7, Type (0, 1), BuildingBlock: XIVTED_clean_linker_0, # of connection points: 2
#     Edge 8, Type (0, 1), BuildingBlock: XIVTED_clean_linker_0, # of connection points: 2
#     Edge 9, Type (0, 1), BuildingBlock: XIVTED_clean_linker_0, # of connection points: 2
#     Edge 10, Type (0, 1), BuildingBlock: XIVTED_clean_linker_0, # of connection points: 2
#     Edge 11, Type (0, 1), BuildingBlock: XIVTED_clean_linker_0, # of connection points: 2
#     Edge 12, Type (0, 1), BuildingBlock: XIVTED_clean_linker_0, # of connection points: 2
#     Edge 13, Type (0, 1), BuildingBlock: XIVTED_clean_linker_0, # of connection points: 2
#     Edge 14, Type (0, 1), BuildingBlock: XIVTED_clean_linker_0, # of connection points: 2
#     Edge 15, Type (0, 1), BuildingBlock: XIVTED_clean_linker_0, # of connection points: 2
#     Edge 16, Type (0, 1), BuildingBlock: XIVTED_clean_linker_0, # of connection points: 2
#     Edge 17, Type (0, 1), BuildingBlock: XIVTED_clean_linker_0, # of connection points: 2
# Relax obj value: 0.078
# Max RMSD: 0.156
# Mean RMSD: 0.088
data_MOF--net-rtl--node1-VOLQOD_clean_sbu_1--node2-KAKCAD_clean_linker_0--edge1-XIVTED_clean_linker_0
_symmetry_space_group_name_H-M    P1
_symmetry_Int_Tables_number       1
_symmetry_cell_setting            triclinic
loop_
_symmetry_equiv_pos_as_xyz
'x, y, z'
_cell_length_a     45.222926
_cell_length_b     38.482728
_cell_length_c     29.607515
_cell_angle_alpha  89.946608
_cell_angle_beta   90.187094
_cell_angle_gamma 89.951713
loop_
_atom_site_label
_atom_site_type_symbol
_atom_site_fract_x
_atom_site_fract_y
_atom_site_fract_z
_atom_type_partial_charge
C0 C 0.08497 0.74833 0.8366 0.0
C1 C 0.0834 0.78483 0.83817 0.0
C2 C 0.09062 0.7292 0.876 0.0
C3 C 0.09435 0.74629 0.91755 0.0
C4 C 0.09274 0.78273 0.91888 0.0
C5 C 0.08727 0.80172 0.87976 0.0
C6 C 0.1007 0.72687 0.95973 0.0
C7 C 0.12344 0.7021 0.96135 0.0
C8 C 0.13295 0.68798 0.00292 0.0
C9 C 0.11896 0.69905 0.04298 0.0
C10 C 0.09686 0.72467 0.04177 0.0
C11 C 0.0869 0.73699 -0.00012 0.0
C12 C 0.08797 0.74321 0.08356 0.0
C13 C 0.08223 0.72549 0.12417 0.0
C14 C 0.0871 0.77972 0.0833 0.0
C15 C 0.08092 0.79814 0.12249 0.0
C16 C 0.07567 0.78065 0.16327 0.0
C17 C 0.15999 0.6657 0.00475 0.0
C18 C 0.16726 0.64336 0.96879 0.0
C19 C 0.1801 0.66872 0.04091 0.0
C20 C 0.20697 0.65096 0.04043 0.0
C21 C 0.21509 0.63046 0.00316 0.0
C22 C 0.19457 0.62627 0.96776 0.0
C23 C 0.07593 0.7441 0.16372 0.0
H24 H 0.0822 0.73466 0.80491 0.0
H25 H 0.09183 0.70112 0.8741 0.0
H26 H 0.09607 0.79671 0.95023 0.0
H27 H 0.08578 0.82975 0.88222 0.0
H28 H 0.13517 0.69597 0.93053 0.0
H29 H 0.0695 0.75639 -0.00128 0.0
H30 H 0.12647 0.68943 0.07541 0.0
H31 H 0.08279 0.69736 0.12537 0.0
H32 H 0.09201 0.7943 0.05292 0.0
H33 H 0.08041 0.82626 0.12086 0.0
H34 H 0.15217 0.63971 0.94073 0.0
H35 H 0.17584 0.68592 0.06902 0.0
H36 H 0.07198 0.72998 0.19478 0.0
H37 H 0.1999 0.61082 0.93836 0.0
H38 H 0.22166 0.65406 0.06907 0.0
C39 C 0.57555 0.78086 0.65787 0.0
C40 C 0.56483 0.74658 0.65712 0.0
C41 C 0.58519 0.79679 0.61792 0.0
C42 C 0.58449 0.77853 0.57676 0.0
C43 C 0.57428 0.74401 0.57662 0.0
C44 C 0.56441 0.72838 0.61613 0.0
C45 C 0.59517 0.79428 0.53391 0.0
C46 C 0.62117 0.81418 0.53268 0.0
C47 C 0.63373 0.82397 0.49112 0.0
C48 C 0.62012 0.81328 0.45061 0.0
C49 C 0.59412 0.79339 0.45138 0.0
C50 C 0.5811 0.78571 0.49312 0.0
C51 C 0.58243 0.7768 0.40961 0.0
C52 C 0.58255 0.7941 0.3677 0.0
C53 C 0.57219 0.74231 0.4114 0.0
C54 C 0.56203 0.72567 0.37269 0.0
C55 C 0.56219 0.74281 0.33089 0.0
C56 C 0.66256 0.84237 0.49017 0.0
C57 C 0.6683 0.87011 0.51978 0.0
C58 C 0.68498 0.8314 0.46066 0.0
C59 C 0.71263 0.84742 0.46119 0.0
C60 C 0.71857 0.87479 0.49127 0.0
C61 C 0.69601 0.88625 0.52022 0.0
C62 C 0.57263 0.77716 0.32859 0.0
H63 H 0.57616 0.79538 0.68918 0.0
H64 H 0.59295 0.82339 0.61919 0.0
H65 H 0.5744 0.72862 0.54601 0.0
H66 H 0.55701 0.70163 0.61474 0.0
H67 H 0.63269 0.82015 0.56386 0.0
H68 H 0.56049 0.77139 0.4939 0.0
H69 H 0.63044 0.8193 0.41859 0.0
H70 H 0.59021 0.82068 0.36515 0.0
H71 H 0.57269 0.72765 0.44264 0.0
H72 H 0.5548 0.69891 0.37529 0.0
H73 H 0.65139 0.87924 0.54274 0.0
H74 H 0.68142 0.8098 0.43786 0.0
H75 H 0.57296 0.79093 0.29667 0.0
H76 H 0.69998 0.9071 0.54401 0.0
H77 H 0.72944 0.83826 0.43809 0.0
C78 C 0.89789 0.24619 0.15629 0.0
C79 C 0.92799 0.23797 0.16197 0.0
C80 C 0.88823 0.26438 0.11815 0.0
C81 C 0.90841 0.27456 0.08471 0.0
C82 C 0.93862 0.26757 0.09112 0.0
C83 C 0.94832 0.24962 0.12943 0.0
C84 C 0.89762 0.28973 0.04166 0.0
C85 C 0.87588 0.31575 0.04154 0.0
C86 C 0.86318 0.32742 0.0008 0.0
C87 C 0.8734 0.31332 0.95981 0.0
C88 C 0.89539 0.28745 0.95926 0.0
C89 C 0.90733 0.2759 0.00049 0.0
C90 C 0.9045 0.2706 0.91617 0.0
C91 C 0.88363 0.26376 0.88199 0.0
C92 C 0.93385 0.25958 0.90981 0.0
C93 C 0.94185 0.24097 0.87125 0.0
C94 C 0.92081 0.23337 0.83755 0.0
C95 C 0.83773 0.35213 0.00111 0.0
C96 C 0.81641 0.35047 0.03564 0.0
C97 C 0.83341 0.376 0.96557 0.0
C98 C 0.80778 0.3963 0.96348 0.0
C99 C 0.78635 0.39382 -0.00255 0.0
C100 C 0.79117 0.37135 0.03403 0.0
C101 C 0.89174 0.24567 0.84306 0.0
H102 H 0.88154 0.23726 0.18027 0.0
H103 H 0.86476 0.26904 0.11381 0.0
H104 H 0.95468 0.27548 0.06607 0.0
H105 H 0.97174 0.2444 0.13318 0.0
H106 H 0.8687 0.3266 0.07343 0.0
H107 H 0.9231 0.25469 0.00083 0.0
H108 H 0.86364 0.32174 0.92824 0.0
H109 H 0.86073 0.27139 0.88575 0.0
H110 H 0.95067 0.26487 0.93499 0.0
H111 H 0.96438 0.23169 0.86866 0.0
H112 H 0.81846 0.33202 0.06308 0.0
H113 H 0.84957 0.37869 0.93891 0.0
H114 H 0.87502 0.24101 0.81753 0.0
H115 H 0.77471 0.36873 0.06033 0.0
H116 H 0.80451 0.41366 0.93507 0.0
C117 C 0.39825 0.29138 0.34537 0.0
C118 C 0.42741 0.28796 0.32934 0.0
C119 C 0.38917 0.27391 0.38419 0.0
C120 C 0.40913 0.25322 0.40854 0.0
C121 C 0.43825 0.24972 0.3931 0.0
C122 C 0.44724 0.26659 0.35357 0.0
C123 C 0.39952 0.23652 0.45091 0.0
C124 C 0.37478 0.21471 0.45093 0.0
C125 C 0.36331 0.20172 0.49159 0.0
C126 C 0.37738 0.2104 0.53251 0.0
C127 C 0.40205 0.23275 0.53314 0.0
C128 C 0.41317 0.24527 0.49186 0.0
C129 C 0.4143 0.24609 0.5766 0.0
C130 C 0.39536 0.254 0.61285 0.0
C131 C 0.44459 0.25397 0.58088 0.0
C132 C 0.45527 0.27123 0.6191 0.0
C133 C 0.43603 0.28029 0.65427 0.0
C134 C 0.33536 0.18142 0.49139 0.0
C135 C 0.3119 0.19139 0.46289 0.0
C136 C 0.33151 0.15269 0.52017 0.0
C137 C 0.30476 0.13442 0.52041 0.0
C138 C 0.2814 0.14443 0.49175 0.0
C139 C 0.28532 0.17307 0.46297 0.0
C140 C 0.40618 0.27065 0.6514 0.0
H141 H 0.38247 0.30825 0.32869 0.0
H142 H 0.36669 0.27736 0.39596 0.0
H143 H 0.45396 0.23376 0.41148 0.0
H144 H 0.46969 0.26276 0.34207 0.0
H145 H 0.36423 0.20829 0.41908 0.0
H146 H 0.43129 0.26367 0.4915 0.0
H147 H 0.36838 0.20082 0.56399 0.0
H148 H 0.37185 0.24899 0.61069 0.0
H149 H 0.45997 0.24762 0.55417 0.0
H150 H 0.47847 0.27812 0.62081 0.0
H151 H 0.31381 0.21389 0.44109 0.0
H152 H 0.34923 0.14418 0.54225 0.0
H153 H 0.39086 0.2777 0.67792 0.0
H154 H 0.26754 0.18188 0.44117 0.0
H155 H 0.30245 0.11226 0.54271 0.0
O156 O 0.92788 1.00645 0.49819 0.0
Zn157 Zn 0.96464 0.03635 0.49929 0.0
O158 O 0.00071 0.00803 0.49983 0.0
Zn159 Zn 0.0244 0.01918 0.55327 0.0
Zn160 Zn 0.98987 0.95882 0.50088 0.0
Zn161 Zn 0.02411 0.01749 0.44586 0.0
O162 O 0.06479 0.03676 0.53658 0.0
O163 O 0.0647 0.0353 0.46172 0.0
O164 O 0.9625 0.06656 0.55473 0.0
O165 O 0.00465 0.05597 0.591 0.0
O166 O 0.03057 0.97669 0.59177 0.0
O167 O 0.0063 0.93486 0.55581 0.0
O168 O 0.00563 0.93341 0.44675 0.0
O169 O 0.96369 0.06786 0.44471 0.0
O170 O 0.02971 0.97423 0.40879 0.0
O171 O 0.00436 0.05366 0.40708 0.0
C172 C 0.92401 0.97367 0.49938 0.0
C173 C 0.07773 0.0416 0.499 0.0
C174 C 0.02223 0.94518 0.58867 0.0
C175 C 0.98008 0.07199 0.58766 0.0
C176 C 0.02121 0.94287 0.41321 0.0
C177 C 0.98083 0.07161 0.41097 0.0
O178 O 0.94584 0.9528 0.50088 0.0
O179 O 0.57421 0.51838 0.99003 0.0
Zn180 Zn 0.53558 0.54467 0.99072 0.0
O181 O 0.50167 0.51293 0.9901 0.0
Zn182 Zn 0.47718 0.52141 0.93652 0.0
Zn183 Zn 0.51567 0.46477 0.98974 0.0
Zn184 Zn 0.47797 0.52093 0.04391 0.0
O185 O 0.43492 0.53333 0.953 0.0
O186 O 0.43705 0.53628 0.0278 0.0
O187 O 0.53438 0.57673 0.93698 0.0
O188 O 0.49329 0.5616 0.90076 0.0
O189 O 0.47638 0.47942 0.89606 0.0
O190 O 0.50001 0.43879 0.93555 0.0
O191 O 0.50291 0.43894 0.04585 0.0
O192 O 0.53535 0.57532 0.04569 0.0
O193 O 0.47423 0.47736 0.08074 0.0
O194 O 0.49538 0.55845 0.08295 0.0
C195 C 0.58029 0.48612 0.98745 0.0
C196 C 0.42276 0.53929 0.99095 0.0
C197 C 0.4856 0.44833 0.90064 0.0
C198 C 0.51606 0.58085 0.90466 0.0
C199 C 0.48574 0.44724 0.07811 0.0
C200 C 0.51796 0.57796 0.07922 0.0
O201 O 0.56006 0.46313 0.98637 0.0
H202 H 0.24722 0.12517 0.41957 0.0
H203 H 0.1135 0.05622 0.57155 0.0
H204 H 0.25014 0.12149 0.56519 0.0
H205 H 0.11226 0.05687 0.42567 0.0
H206 H 0.16402 0.07854 0.57004 0.0
H207 H 0.19833 0.09837 0.42125 0.0
C208 C 0.23756 0.11868 0.45192 0.0
C209 C 0.2527 0.12579 0.49232 0.0
C210 C 0.15271 0.07371 0.53837 0.0
C211 C 0.19671 0.09498 0.49453 0.0
C212 C 0.12382 0.06101 0.53918 0.0
C213 C 0.1085 0.05476 0.49865 0.0
C214 C 0.16643 0.08031 0.49675 0.0
C215 C 0.12311 0.06137 0.45776 0.0
C216 C 0.20969 0.10326 0.45286 0.0
C217 C 0.23934 0.11627 0.53324 0.0
N218 N 0.1512 0.07386 0.45788 0.0
N219 N 0.21202 0.10156 0.53331 0.0
H220 H 0.23287 0.56871 0.96343 0.0
H221 H 0.39659 0.57692 0.05746 0.0
H222 H 0.26703 0.65766 0.03589 0.0
H223 H 0.3784 0.52885 0.92865 0.0
H224 H 0.34566 0.59787 0.05991 0.0
H225 H 0.28331 0.5456 0.95879 0.0
C226 C 0.25078 0.58348 0.97828 0.0
C227 C 0.24537 0.61518 0.00048 0.0
C228 C 0.35284 0.58269 0.03116 0.0
C229 C 0.30283 0.58824 -0.00378 0.0
C230 C 0.38182 0.57059 0.02979 0.0
C231 C 0.39174 0.55122 -0.00731 0.0
C232 C 0.33341 0.57483 -0.00437 0.0
C233 C 0.37164 0.54392 0.9577 0.0
C234 C 0.2795 0.57014 0.97571 0.0
C235 C 0.26966 0.6327 0.01962 0.0
N236 N 0.34325 0.55557 0.96012 0.0
N237 N 0.29719 0.61887 0.01735 0.0
H238 H 0.73354 0.9438 0.49854 0.0
H239 H 0.90759 0.90531 0.49828 0.0
H240 H 0.77185 0.84133 0.48887 0.0
H241 H 0.87112 0.00909 0.49928 0.0
H242 H 0.85769 0.88177 0.49705 0.0
H243 H 0.78343 0.96855 0.50144 0.0
C244 C 0.75243 0.92652 0.4972 0.0
C245 C 0.74853 0.89045 0.49323 0.0
C246 C 0.86054 0.90971 0.49753 0.0
C247 C 0.80556 0.91855 0.49631 0.0
C248 C 0.88909 0.92322 0.49827 0.0
C249 C 0.89364 0.9593 0.49884 0.0
C250 C 0.83617 0.93235 0.49744 0.0
C251 C 0.8687 0.98111 0.49879 0.0
C252 C 0.78088 0.94066 0.49862 0.0
C253 C 0.77379 0.86931 0.49121 0.0
N254 N 0.84103 0.96729 0.49811 0.0
N255 N 0.80117 0.88366 0.49279 0.0
H256 H 0.7607 0.43802 0.05807 0.0
H257 H 0.60269 0.42806 0.9475 0.0
H258 H 0.7472 0.39056 0.92781 0.0
H259 H 0.62867 0.51859 0.02379 0.0
H260 H 0.65432 0.40887 0.94677 0.0
H261 H 0.71098 0.46376 0.05299 0.0
C262 C 0.74732 0.43338 0.02827 0.0
C263 C 0.75789 0.41236 -0.0068 0.0
C264 C 0.64869 0.43304 0.9634 0.0
C265 C 0.70124 0.44075 0.98771 0.0
C266 C 0.61929 0.44388 0.96408 0.0
C267 C 0.61147 0.47492 0.98579 0.0
C268 C 0.67029 0.45291 0.98556 0.0
C269 C 0.63385 0.49456 0.00654 0.0
C270 C 0.71912 0.44805 0.02535 0.0
C271 C 0.73982 0.4069 0.95532 0.0
N272 N 0.66228 0.48299 0.00645 0.0
N273 N 0.71215 0.4206 0.95383 0.0
H274 H 0.10603 0.83758 0.19218 0.0
H275 H 0.00137 0.8758 0.40355 0.0
H276 H 0.03356 0.77048 0.22889 0.0
H277 H 0.0613 0.95057 0.34508 0.0
H278 H 0.01646 0.83355 0.34622 0.0
H279 H 0.09401 0.87539 0.25539 0.0
C280 C 0.08757 0.83078 0.21368 0.0
C281 C 0.07044 0.80116 0.20483 0.0
C282 C 0.02629 0.8592 0.34609 0.0
C283 C 0.05662 0.84434 0.27757 0.0
C284 C 0.01773 0.88333 0.37877 0.0
C285 C 0.03 0.91687 0.37902 0.0
C286 C 0.04746 0.86859 0.31374 0.0
C287 C 0.05109 0.92515 0.34609 0.0
C288 C 0.08075 0.85236 0.24981 0.0
C289 C 0.04729 0.79311 0.23451 0.0
N290 N 0.05915 0.90118 0.31487 0.0
N291 N 0.04087 0.81478 0.26945 0.0
H292 H 0.59263 0.74336 0.73948 0.0
H293 H 0.48142 0.59838 0.83212 0.0
H294 H 0.5145 0.70885 0.66874 0.0
H295 H 0.56225 0.62707 0.90068 0.0
H296 H 0.49072 0.64341 0.77612 0.0
H297 H 0.57894 0.70639 0.80364 0.0
C298 C 0.57234 0.72848 0.73784 0.0
C299 C 0.55481 0.7288 0.69868 0.0
C300 C 0.50639 0.63998 0.80349 0.0
C301 C 0.53924 0.68627 0.77133 0.0
C302 C 0.50113 0.61416 0.83549 0.0
C303 C 0.52121 0.60866 0.87102 0.0
C304 C 0.53197 0.6605 0.80683 0.0
C305 C 0.54625 0.63019 0.87371 0.0
C306 C 0.56465 0.7072 0.77424 0.0
C307 C 0.52885 0.70888 0.69808 0.0
N308 N 0.55099 0.65505 0.8419 0.0
N309 N 0.52198 0.68824 0.73367 0.0
H310 H 0.9699 0.18646 0.1609 0.0
H311 H 0.93613 0.11998 0.41103 0.0
H312 H 0.90815 0.23759 0.24986 0.0
H313 H 0.0087 0.08228 0.33017 0.0
H314 H 0.92442 0.16216 0.35181 0.0
H315 H 0.9838 0.14755 0.2223 0.0
C316 C 0.95952 0.18988 0.19349 0.0
C317 C 0.9378 0.21549 0.20009 0.0
C318 C 0.94296 0.14471 0.34713 0.0
C319 C 0.9532 0.17025 0.27048 0.0
C320 C 0.94961 0.12052 0.38087 0.0
C321 C 0.97341 0.09744 0.37558 0.0
C322 C 0.96009 0.14568 0.30768 0.0
C323 C 0.99015 0.09951 0.33579 0.0
C324 C 0.96733 0.16741 0.22851 0.0
C325 C 0.92468 0.21797 0.24294 0.0
N326 N 0.98309 0.12309 0.30335 0.0
N327 N 0.93248 0.19554 0.27643 0.0
H328 H 0.42914 0.2698 0.74521 0.0
H329 H 0.47467 0.46156 0.81156 0.0
H330 H 0.46548 0.34167 0.64837 0.0
H331 H 0.48307 0.37734 0.90715 0.0
H332 H 0.46483 0.41922 0.7518 0.0
H333 H 0.44294 0.31 0.80626 0.0
C334 C 0.44022 0.29392 0.73695 0.0
C335 C 0.44634 0.30249 0.69188 0.0
C336 C 0.46894 0.41005 0.78585 0.0
C337 C 0.46151 0.34857 0.76093 0.0
C338 C 0.47437 0.43416 0.81999 0.0
C339 C 0.47968 0.42291 0.86436 0.0
C340 C 0.4682 0.37449 0.79631 0.0
C341 C 0.4792 0.38707 0.87333 0.0
C342 C 0.44812 0.31672 0.77165 0.0
C343 C 0.46067 0.33401 0.68277 0.0
N344 N 0.47327 0.36408 0.83963 0.0
N345 N 0.46747 0.35613 0.71696 0.0
H346 H 0.51265 0.70327 0.32038 0.0
H347 H 0.56324 0.6254 0.08259 0.0
H348 H 0.58996 0.73865 0.24892 0.0
H349 H 0.48552 0.59192 0.15501 0.0
H350 H 0.57197 0.66945 0.14051 0.0
H351 H 0.50043 0.6655 0.2569 0.0
C352 C 0.52691 0.70326 0.29106 0.0
C353 C 0.55249 0.72382 0.29 0.0
C354 C 0.55296 0.65252 0.14361 0.0
C355 C 0.5388 0.68047 0.21727 0.0
C356 C 0.548 0.62727 0.11063 0.0
C357 C 0.52369 0.60473 0.11403 0.0
C358 C 0.53351 0.65525 0.1803 0.0
C359 C 0.50463 0.60855 0.15102 0.0
C360 C 0.51995 0.6817 0.25482 0.0
C361 C 0.56999 0.72324 0.25097 0.0
N362 N 0.51001 0.63323 0.18273 0.0
N363 N 0.56299 0.70157 0.21629 0.0
H364 H 0.88634 0.18539 0.793 0.0
H365 H 0.01633 0.10525 0.64788 0.0
H366 H 0.9738 0.23063 0.79166 0.0
H367 H 0.92478 0.09627 0.60778 0.0
H368 H 0.00178 0.14645 0.70677 0.0
H369 H 0.90047 0.14815 0.73017 0.0
C370 C 0.90839 0.18794 0.77929 0.0
C371 C 0.92885 0.21144 0.79795 0.0
C372 C 0.98494 0.13554 0.6849 0.0
C373 C 0.94537 0.16781 0.72669 0.0
C374 C 0.99318 0.11192 0.65148 0.0
C375 C 0.97172 0.09728 0.62293 0.0
C376 C 0.95499 0.14406 0.69034 0.0
C377 C 0.94206 0.10701 0.62895 0.0
C378 C 0.91647 0.16641 0.74354 0.0
C379 C 0.95737 0.21259 0.77918 0.0
N380 N 0.93453 0.12957 0.66227 0.0
N381 N 0.96485 0.19089 0.74485 0.0
H382 H 0.39458 0.30526 0.25399 0.0
H383 H 0.52108 0.39591 0.11303 0.0
H384 H 0.48248 0.31542 0.31045 0.0
H385 H 0.43338 0.43957 0.12169 0.0
H386 H 0.50787 0.35394 0.17253 0.0
H387 H 0.40936 0.34247 0.19132 0.0
C388 C 0.41695 0.31523 0.2535 0.0
C389 C 0.43708 0.30754 0.28843 0.0
C390 C 0.49162 0.37271 0.1611 0.0
C391 C 0.4543 0.34898 0.21544 0.0
C392 C 0.49904 0.39645 0.12724 0.0
C393 C 0.47829 0.42124 0.1128 0.0
C394 C 0.46304 0.37323 0.17935 0.0
C395 C 0.45006 0.42103 0.13225 0.0
C396 C 0.42535 0.33624 0.21743 0.0
C397 C 0.46615 0.32026 0.28444 0.0
N398 N 0.44315 0.39718 0.1643 0.0
N399 N 0.4739 0.34038 0.24859 0.0
H400 H 0.1105 0.84485 0.81195 0.0
H401 H 0.00477 0.87731 0.59897 0.0
H402 H 0.04264 0.77252 0.77107 0.0
H403 H 0.06195 0.95528 0.65726 0.0
H404 H 0.02165 0.83602 0.65643 0.0
H405 H 0.09676 0.88266 0.74924 0.0
C406 C 0.09272 0.83689 0.78964 0.0
C407 C 0.0774 0.80573 0.79709 0.0
C408 C 0.03048 0.86216 0.65655 0.0
C409 C 0.06161 0.84888 0.72502 0.0
C410 C 0.02086 0.88577 0.62379 0.0
C411 C 0.03187 0.9199 0.62338 0.0
C412 C 0.05138 0.8727 0.68889 0.0
C413 C 0.05271 0.92935 0.65635 0.0
C414 C 0.08491 0.85847 0.75381 0.0
C415 C 0.05504 0.79631 0.76649 0.0
N416 N 0.06178 0.90588 0.6877 0.0
N417 N 0.04764 0.81796 0.73191 0.0
loop_
_geom_bond_atom_site_label_1
_geom_bond_atom_site_label_2
_geom_bond_distance
_geom_bond_site_symmetry_2
_ccdc_geom_bond_type
C0 C1 1.386 . S
C0 C2 1.397 . S
C0 H24 0.931 . S
C1 C0 1.386 . S
C1 C5 1.397 . S
C2 C0 1.397 . S
C2 C3 1.384 . S
C2 H25 0.930 . S
C3 C2 1.384 . S
C3 C4 1.377 . S
C3 C6 1.481 . S
C4 C3 1.377 . S
C4 C5 1.389 . S
C4 H26 0.929 . S
C5 C1 1.397 . S
C5 C4 1.389 . S
C5 H27 0.931 . S
C6 C3 1.481 . S
C6 C7 1.387 . S
C6 C11 1.390 1_556 S
C7 C6 1.387 . S
C7 C8 1.401 1_556 S
C7 H28 0.930 . S
C8 C7 1.401 1_554 S
C8 C9 1.376 . S
C8 C17 1.511 . S
C9 C8 1.376 . S
C9 C10 1.392 . S
C9 H30 0.931 . S
C10 C9 1.392 . S
C10 C11 1.361 . S
C10 C12 1.500 . S
C11 C6 1.390 1_554 S
C11 C10 1.361 . S
C11 H29 0.931 . S
C12 C10 1.500 . S
C12 C13 1.371 . S
C12 C14 1.365 . S
C13 C12 1.371 . S
C13 C23 1.386 . S
C13 H31 0.931 . S
C14 C12 1.365 . S
C14 C15 1.409 . S
C14 H32 0.929 . S
C15 C14 1.409 . S
C15 C16 1.380 . S
C15 H33 0.930 . S
C16 C15 1.380 . S
C16 C23 1.357 . S
C17 C8 1.511 . S
C17 C18 1.341 1_554 S
C17 C19 1.371 . S
C18 C17 1.341 1_556 S
C18 C22 1.394 . S
C18 H34 0.930 . S
C19 C17 1.371 . S
C19 C20 1.392 . S
C19 H35 0.931 . S
C20 C19 1.392 . S
C20 C21 1.331 . S
C20 H38 0.932 . S
C21 C20 1.331 . S
C21 C22 1.336 1_554 S
C22 C18 1.394 . S
C22 C21 1.336 1_556 S
C22 H37 0.929 . S
C23 C13 1.386 . S
C23 C16 1.357 . S
C23 H36 0.928 . S
H24 C0 0.931 . S
H25 C2 0.930 . S
H26 C4 0.929 . S
H27 C5 0.931 . S
H28 C7 0.930 . S
H29 C11 0.931 . S
H30 C9 0.931 . S
H31 C13 0.931 . S
H32 C14 0.929 . S
H33 C15 0.930 . S
H34 C18 0.930 . S
H35 C19 0.931 . S
H36 C23 0.928 . S
H37 C22 0.929 . S
H38 C20 0.932 . S
C39 C40 1.386 . S
C39 C41 1.397 . S
C39 H63 0.931 . S
C40 C39 1.386 . S
C40 C44 1.397 . S
C41 C39 1.397 . S
C41 C42 1.384 . S
C41 H64 0.930 . S
C42 C41 1.384 . S
C42 C43 1.377 . S
C42 C45 1.481 . S
C43 C42 1.377 . S
C43 C44 1.389 . S
C43 H65 0.929 . S
C44 C40 1.397 . S
C44 C43 1.389 . S
C44 H66 0.931 . S
C45 C42 1.481 . S
C45 C46 1.387 . S
C45 C50 1.390 . S
C46 C45 1.387 . S
C46 C47 1.401 . S
C46 H67 0.930 . S
C47 C46 1.401 . S
C47 C48 1.376 . S
C47 C56 1.511 . S
C48 C47 1.376 . S
C48 C49 1.392 . S
C48 H69 0.931 . S
C49 C48 1.392 . S
C49 C50 1.361 . S
C49 C51 1.500 . S
C50 C45 1.390 . S
C50 C49 1.361 . S
C50 H68 0.931 . S
C51 C49 1.500 . S
C51 C52 1.371 . S
C51 C53 1.365 . S
C52 C51 1.371 . S
C52 C62 1.386 . S
C52 H70 0.931 . S
C53 C51 1.365 . S
C53 C54 1.409 . S
C53 H71 0.929 . S
C54 C53 1.409 . S
C54 C55 1.380 . S
C54 H72 0.930 . S
C55 C54 1.380 . S
C55 C62 1.357 . S
C56 C47 1.511 . S
C56 C57 1.341 . S
C56 C58 1.371 . S
C57 C56 1.341 . S
C57 C61 1.394 . S
C57 H73 0.930 . S
C58 C56 1.371 . S
C58 C59 1.392 . S
C58 H74 0.931 . S
C59 C58 1.392 . S
C59 C60 1.331 . S
C59 H77 0.932 . S
C60 C59 1.331 . S
C60 C61 1.336 . S
C61 C57 1.394 . S
C61 C60 1.336 . S
C61 H76 0.929 . S
C62 C52 1.386 . S
C62 C55 1.357 . S
C62 H75 0.928 . S
H63 C39 0.931 . S
H64 C41 0.930 . S
H65 C43 0.929 . S
H66 C44 0.931 . S
H67 C46 0.930 . S
H68 C50 0.931 . S
H69 C48 0.931 . S
H70 C52 0.931 . S
H71 C53 0.929 . S
H72 C54 0.930 . S
H73 C57 0.930 . S
H74 C58 0.931 . S
H75 C62 0.928 . S
H76 C61 0.929 . S
H77 C59 0.932 . S
C78 C79 1.386 . S
C78 C80 1.397 . S
C78 H102 0.931 . S
C79 C78 1.386 . S
C79 C83 1.397 . S
C80 C78 1.397 . S
C80 C81 1.384 . S
C80 H103 0.930 . S
C81 C80 1.384 . S
C81 C82 1.377 . S
C81 C84 1.481 . S
C82 C81 1.377 . S
C82 C83 1.389 . S
C82 H104 0.929 . S
C83 C79 1.397 . S
C83 C82 1.389 . S
C83 H105 0.931 . S
C84 C81 1.481 . S
C84 C85 1.387 . S
C84 C89 1.390 . S
C85 C84 1.387 . S
C85 C86 1.401 . S
C85 H106 0.930 . S
C86 C85 1.401 . S
C86 C87 1.376 1_554 S
C86 C95 1.511 . S
C87 C86 1.376 1_556 S
C87 C88 1.392 . S
C87 H108 0.931 . S
C88 C87 1.392 . S
C88 C89 1.361 1_556 S
C88 C90 1.500 . S
C89 C84 1.390 . S
C89 C88 1.361 1_554 S
C89 H107 0.931 . S
C90 C88 1.500 . S
C90 C91 1.371 . S
C90 C92 1.365 . S
C91 C90 1.371 . S
C91 C101 1.386 . S
C91 H109 0.931 . S
C92 C90 1.365 . S
C92 C93 1.409 . S
C92 H110 0.929 . S
C93 C92 1.409 . S
C93 C94 1.380 . S
C93 H111 0.930 . S
C94 C93 1.380 . S
C94 C101 1.357 . S
C95 C86 1.511 . S
C95 C96 1.341 . S
C95 C97 1.371 1_554 S
C96 C95 1.341 . S
C96 C100 1.394 . S
C96 H112 0.930 . S
C97 C95 1.371 1_556 S
C97 C98 1.392 . S
C97 H113 0.931 . S
C98 C97 1.392 . S
C98 C99 1.331 1_556 S
C98 H116 0.932 . S
C99 C98 1.331 1_554 S
C99 C100 1.336 . S
C100 C96 1.394 . S
C100 C99 1.336 . S
C100 H115 0.929 . S
C101 C91 1.386 . S
C101 C94 1.357 . S
C101 H114 0.928 . S
H102 C78 0.931 . S
H103 C80 0.930 . S
H104 C82 0.929 . S
H105 C83 0.931 . S
H106 C85 0.930 . S
H107 C89 0.931 . S
H108 C87 0.931 . S
H109 C91 0.931 . S
H110 C92 0.929 . S
H111 C93 0.930 . S
H112 C96 0.930 . S
H113 C97 0.931 . S
H114 C101 0.928 . S
H115 C100 0.929 . S
H116 C98 0.932 . S
C117 C118 1.386 . S
C117 C119 1.397 . S
C117 H141 0.931 . S
C118 C117 1.386 . S
C118 C122 1.397 . S
C119 C117 1.397 . S
C119 C120 1.384 . S
C119 H142 0.930 . S
C120 C119 1.384 . S
C120 C121 1.377 . S
C120 C123 1.481 . S
C121 C120 1.377 . S
C121 C122 1.389 . S
C121 H143 0.929 . S
C122 C118 1.397 . S
C122 C121 1.389 . S
C122 H144 0.931 . S
C123 C120 1.481 . S
C123 C124 1.387 . S
C123 C128 1.390 . S
C124 C123 1.387 . S
C124 C125 1.401 . S
C124 H145 0.930 . S
C125 C124 1.401 . S
C125 C126 1.376 . S
C125 C134 1.511 . S
C126 C125 1.376 . S
C126 C127 1.392 . S
C126 H147 0.931 . S
C127 C126 1.392 . S
C127 C128 1.361 . S
C127 C129 1.500 . S
C128 C123 1.390 . S
C128 C127 1.361 . S
C128 H146 0.931 . S
C129 C127 1.500 . S
C129 C130 1.371 . S
C129 C131 1.365 . S
C130 C129 1.371 . S
C130 C140 1.386 . S
C130 H148 0.931 . S
C131 C129 1.365 . S
C131 C132 1.409 . S
C131 H149 0.929 . S
C132 C131 1.409 . S
C132 C133 1.380 . S
C132 H150 0.930 . S
C133 C132 1.380 . S
C133 C140 1.357 . S
C134 C125 1.511 . S
C134 C135 1.341 . S
C134 C136 1.371 . S
C135 C134 1.341 . S
C135 C139 1.394 . S
C135 H151 0.930 . S
C136 C134 1.371 . S
C136 C137 1.392 . S
C136 H152 0.931 . S
C137 C136 1.392 . S
C137 C138 1.331 . S
C137 H155 0.932 . S
C138 C137 1.331 . S
C138 C139 1.336 . S
C139 C135 1.394 . S
C139 C138 1.336 . S
C139 H154 0.929 . S
C140 C130 1.386 . S
C140 C133 1.357 . S
C140 H153 0.928 . S
H141 C117 0.931 . S
H142 C119 0.930 . S
H143 C121 0.929 . S
H144 C122 0.931 . S
H145 C124 0.930 . S
H146 C128 0.931 . S
H147 C126 0.931 . S
H148 C130 0.931 . S
H149 C131 0.929 . S
H150 C132 0.930 . S
H151 C135 0.930 . S
H152 C136 0.931 . S
H153 C140 0.928 . S
H154 C139 0.929 . S
H155 C137 0.932 . S
O156 Zn157 1.953 1_565 S
O156 C172 1.225 . S
Zn157 O156 1.953 1_545 S
Zn157 O158 1.949 1_655 S
Zn157 O164 1.919 . S
Zn157 O169 1.924 . S
O158 Zn157 1.949 1_455 S
O158 Zn159 1.923 . S
O158 Zn160 1.950 1_445 S
O158 Zn161 1.945 . S
Zn159 O158 1.923 . S
Zn159 O162 1.933 . S
Zn159 O165 1.941 . S
Zn159 O166 1.965 1_545 S
Zn160 O158 1.950 1_665 S
Zn160 O167 1.938 1_655 S
Zn160 O168 1.906 1_655 S
Zn160 O178 1.953 . S
Zn161 O158 1.945 . S
Zn161 O163 1.932 . S
Zn161 O170 1.977 1_545 S
Zn161 O171 1.910 1_455 S
O162 Zn159 1.933 . S
O162 C173 1.226 . S
O163 Zn161 1.932 . S
O163 C173 1.307 . S
O164 Zn157 1.919 . S
O164 C175 1.253 . S
O165 Zn159 1.941 . S
O165 C175 1.283 1_455 S
O166 Zn159 1.965 1_565 S
O166 C174 1.303 . S
O167 Zn160 1.938 1_455 S
O167 C174 1.247 . S
O168 Zn160 1.906 1_455 S
O168 C176 1.304 . S
O169 Zn157 1.924 . S
O169 C177 1.311 . S
O170 Zn161 1.977 1_565 S
O170 C176 1.272 . S
O171 Zn161 1.910 1_655 S
O171 C177 1.231 . S
C172 O156 1.225 . S
C172 O178 1.298 . S
C173 O162 1.226 . S
C173 O163 1.307 . S
C174 O166 1.303 . S
C174 O167 1.247 . S
C175 O164 1.253 . S
C175 O165 1.283 1_655 S
C176 O168 1.304 . S
C176 O170 1.272 . S
C177 O169 1.311 . S
C177 O171 1.231 . S
O178 Zn160 1.953 . S
O178 C172 1.298 . S
O179 Zn180 1.953 . S
O179 C195 1.225 1_556 S
Zn180 O179 1.953 . S
Zn180 O181 1.949 1_556 S
Zn180 O187 1.919 . S
Zn180 O192 1.924 1_556 S
O181 Zn180 1.949 1_554 S
O181 Zn182 1.923 1_554 S
O181 Zn183 1.950 . S
O181 Zn184 1.945 . S
Zn182 O181 1.923 1_556 S
Zn182 O185 1.933 . S
Zn182 O188 1.941 . S
Zn182 O189 1.965 . S
Zn183 O181 1.950 . S
Zn183 O190 1.938 1_554 S
Zn183 O191 1.906 . S
Zn183 O201 1.953 . S
Zn184 O181 1.945 . S
Zn184 O186 1.932 . S
Zn184 O193 1.977 . S
Zn184 O194 1.910 . S
O185 Zn182 1.933 . S
O185 C196 1.226 1_556 S
O186 Zn184 1.932 . S
O186 C196 1.307 . S
O187 Zn180 1.919 . S
O187 C198 1.253 . S
O188 Zn182 1.941 . S
O188 C198 1.283 . S
O189 Zn182 1.965 . S
O189 C197 1.303 . S
O190 Zn183 1.938 1_556 S
O190 C197 1.247 . S
O191 Zn183 1.906 . S
O191 C199 1.304 . S
O192 Zn180 1.924 1_554 S
O192 C200 1.311 . S
O193 Zn184 1.977 . S
O193 C199 1.272 . S
O194 Zn184 1.910 . S
O194 C200 1.231 . S
C195 O179 1.225 1_554 S
C195 O201 1.298 . S
C196 O185 1.226 1_554 S
C196 O186 1.307 . S
C197 O189 1.303 . S
C197 O190 1.247 . S
C198 O187 1.253 . S
C198 O188 1.283 . S
C199 O191 1.304 . S
C199 O193 1.272 . S
C200 O192 1.311 . S
C200 O194 1.231 . S
O201 Zn183 1.953 . S
O201 C195 1.298 . S
H202 C208 0.930 . S
H203 C212 0.930 . S
H204 C217 0.929 . S
H205 C215 0.929 . S
H206 C210 0.929 . S
H207 C216 0.929 . S
C208 H202 0.930 . S
C208 C209 1.367 . S
C208 C216 1.378 . S
C209 C208 1.367 . S
C209 C217 1.433 . S
C210 H206 0.929 . S
C210 C212 1.378 . S
C210 C214 1.350 . S
C211 C214 1.463 . S
C211 C216 1.350 . S
C211 N219 1.427 . S
C212 H203 0.930 . S
C212 C210 1.378 . S
C212 C213 1.367 . S
C213 C212 1.367 . S
C213 C215 1.433 . S
C214 C210 1.350 . S
C214 C211 1.463 . S
C214 N218 1.427 . S
C215 H205 0.929 . S
C215 C213 1.433 . S
C215 N218 1.384 . S
C216 H207 0.929 . S
C216 C208 1.378 . S
C216 C211 1.350 . S
C217 H204 0.929 . S
C217 C209 1.433 . S
C217 N219 1.384 . S
N218 C214 1.427 . S
N218 C215 1.384 . S
N219 C211 1.427 . S
N219 C217 1.384 . S
H220 C226 0.930 . S
H221 C230 0.930 . S
H222 C235 0.929 . S
H223 C233 0.929 . S
H224 C228 0.929 . S
H225 C234 0.929 . S
C226 H220 0.930 . S
C226 C227 1.367 1_556 S
C226 C234 1.378 . S
C227 C226 1.367 1_554 S
C227 C235 1.433 . S
C228 H224 0.929 . S
C228 C230 1.378 . S
C228 C232 1.350 . S
C229 C232 1.463 . S
C229 C234 1.350 1_554 S
C229 N237 1.427 . S
C230 H221 0.930 . S
C230 C228 1.378 . S
C230 C231 1.367 . S
C231 C230 1.367 . S
C231 C233 1.433 1_554 S
C232 C228 1.350 . S
C232 C229 1.463 . S
C232 N236 1.427 1_554 S
C233 H223 0.929 . S
C233 C231 1.433 1_556 S
C233 N236 1.384 . S
C234 H225 0.929 . S
C234 C226 1.378 . S
C234 C229 1.350 1_556 S
C235 H222 0.929 . S
C235 C227 1.433 . S
C235 N237 1.384 . S
N236 C232 1.427 1_556 S
N236 C233 1.384 . S
N237 C229 1.427 . S
N237 C235 1.384 . S
H238 C244 0.930 . S
H239 C248 0.930 . S
H240 C253 0.929 . S
H241 C251 0.929 . S
H242 C246 0.929 . S
H243 C252 0.929 . S
C244 H238 0.930 . S
C244 C245 1.367 . S
C244 C252 1.378 . S
C245 C244 1.367 . S
C245 C253 1.433 . S
C246 H242 0.929 . S
C246 C248 1.378 . S
C246 C250 1.350 . S
C247 C250 1.463 . S
C247 C252 1.350 . S
C247 N255 1.427 . S
C248 H239 0.930 . S
C248 C246 1.378 . S
C248 C249 1.367 . S
C249 C248 1.367 . S
C249 C251 1.433 . S
C250 C246 1.350 . S
C250 C247 1.463 . S
C250 N254 1.427 . S
C251 H241 0.929 . S
C251 C249 1.433 . S
C251 N254 1.384 . S
C252 H243 0.929 . S
C252 C244 1.378 . S
C252 C247 1.350 . S
C253 H240 0.929 . S
C253 C245 1.433 . S
C253 N255 1.384 . S
N254 C250 1.427 . S
N254 C251 1.384 . S
N255 C247 1.427 . S
N255 C253 1.384 . S
H256 C262 0.930 . S
H257 C266 0.930 . S
H258 C271 0.929 . S
H259 C269 0.929 . S
H260 C264 0.929 . S
H261 C270 0.929 . S
C262 H256 0.930 . S
C262 C263 1.367 . S
C262 C270 1.378 . S
C263 C262 1.367 . S
C263 C271 1.433 1_554 S
C264 H260 0.929 . S
C264 C266 1.378 . S
C264 C268 1.350 1_556 S
C265 C268 1.463 . S
C265 C270 1.350 . S
C265 N273 1.427 1_554 S
C266 H257 0.930 . S
C266 C264 1.378 . S
C266 C267 1.367 1_556 S
C267 C266 1.367 1_554 S
C267 C269 1.433 . S
C268 C264 1.350 1_554 S
C268 C265 1.463 . S
C268 N272 1.427 . S
C269 H259 0.929 . S
C269 C267 1.433 . S
C269 N272 1.384 . S
C270 H261 0.929 . S
C270 C262 1.378 . S
C270 C265 1.350 . S
C271 H258 0.929 . S
C271 C263 1.433 1_556 S
C271 N273 1.384 . S
N272 C268 1.427 . S
N272 C269 1.384 . S
N273 C265 1.427 1_556 S
N273 C271 1.384 . S
H274 C280 0.930 . S
H275 C284 0.930 . S
H276 C289 0.929 . S
H277 C287 0.929 . S
H278 C282 0.929 . S
H279 C288 0.929 . S
C280 H274 0.930 . S
C280 C281 1.367 . S
C280 C288 1.378 . S
C281 C280 1.367 . S
C281 C289 1.433 . S
C282 H278 0.929 . S
C282 C284 1.378 . S
C282 C286 1.350 . S
C283 C286 1.463 . S
C283 C288 1.350 . S
C283 N291 1.427 . S
C284 H275 0.930 . S
C284 C282 1.378 . S
C284 C285 1.367 . S
C285 C284 1.367 . S
C285 C287 1.433 . S
C286 C282 1.350 . S
C286 C283 1.463 . S
C286 N290 1.427 . S
C287 H277 0.929 . S
C287 C285 1.433 . S
C287 N290 1.384 . S
C288 H279 0.929 . S
C288 C280 1.378 . S
C288 C283 1.350 . S
C289 H276 0.929 . S
C289 C281 1.433 . S
C289 N291 1.384 . S
N290 C286 1.427 . S
N290 C287 1.384 . S
N291 C283 1.427 . S
N291 C289 1.384 . S
H292 C298 0.930 . S
H293 C302 0.930 . S
H294 C307 0.929 . S
H295 C305 0.929 . S
H296 C300 0.929 . S
H297 C306 0.929 . S
C298 H292 0.930 . S
C298 C299 1.367 . S
C298 C306 1.378 . S
C299 C298 1.367 . S
C299 C307 1.433 . S
C300 H296 0.929 . S
C300 C302 1.378 . S
C300 C304 1.350 . S
C301 C304 1.463 . S
C301 C306 1.350 . S
C301 N309 1.427 . S
C302 H293 0.930 . S
C302 C300 1.378 . S
C302 C303 1.367 . S
C303 C302 1.367 . S
C303 C305 1.433 . S
C304 C300 1.350 . S
C304 C301 1.463 . S
C304 N308 1.427 . S
C305 H295 0.929 . S
C305 C303 1.433 . S
C305 N308 1.384 . S
C306 H297 0.929 . S
C306 C298 1.378 . S
C306 C301 1.350 . S
C307 H294 0.929 . S
C307 C299 1.433 . S
C307 N309 1.384 . S
N308 C304 1.427 . S
N308 C305 1.384 . S
N309 C301 1.427 . S
N309 C307 1.384 . S
H310 C316 0.930 . S
H311 C320 0.930 . S
H312 C325 0.929 . S
H313 C323 0.929 . S
H314 C318 0.929 . S
H315 C324 0.929 . S
C316 H310 0.930 . S
C316 C317 1.367 . S
C316 C324 1.378 . S
C317 C316 1.367 . S
C317 C325 1.433 . S
C318 H314 0.929 . S
C318 C320 1.378 . S
C318 C322 1.350 . S
C319 C322 1.463 . S
C319 C324 1.350 . S
C319 N327 1.427 . S
C320 H311 0.930 . S
C320 C318 1.378 . S
C320 C321 1.367 . S
C321 C320 1.367 . S
C321 C323 1.433 . S
C322 C318 1.350 . S
C322 C319 1.463 . S
C322 N326 1.427 . S
C323 H313 0.929 . S
C323 C321 1.433 . S
C323 N326 1.384 . S
C324 H315 0.929 . S
C324 C316 1.378 . S
C324 C319 1.350 . S
C325 H312 0.929 . S
C325 C317 1.433 . S
C325 N327 1.384 . S
N326 C322 1.427 . S
N326 C323 1.384 . S
N327 C319 1.427 . S
N327 C325 1.384 . S
H328 C334 0.930 . S
H329 C338 0.930 . S
H330 C343 0.929 . S
H331 C341 0.929 . S
H332 C336 0.929 . S
H333 C342 0.929 . S
C334 H328 0.930 . S
C334 C335 1.367 . S
C334 C342 1.378 . S
C335 C334 1.367 . S
C335 C343 1.433 . S
C336 H332 0.929 . S
C336 C338 1.378 . S
C336 C340 1.350 . S
C337 C340 1.463 . S
C337 C342 1.350 . S
C337 N345 1.427 . S
C338 H329 0.930 . S
C338 C336 1.378 . S
C338 C339 1.367 . S
C339 C338 1.367 . S
C339 C341 1.433 . S
C340 C336 1.350 . S
C340 C337 1.463 . S
C340 N344 1.427 . S
C341 H331 0.929 . S
C341 C339 1.433 . S
C341 N344 1.384 . S
C342 H333 0.929 . S
C342 C334 1.378 . S
C342 C337 1.350 . S
C343 H330 0.929 . S
C343 C335 1.433 . S
C343 N345 1.384 . S
N344 C340 1.427 . S
N344 C341 1.384 . S
N345 C337 1.427 . S
N345 C343 1.384 . S
H346 C352 0.930 . S
H347 C356 0.930 . S
H348 C361 0.929 . S
H349 C359 0.929 . S
H350 C354 0.929 . S
H351 C360 0.929 . S
C352 H346 0.930 . S
C352 C353 1.367 . S
C352 C360 1.378 . S
C353 C352 1.367 . S
C353 C361 1.433 . S
C354 H350 0.929 . S
C354 C356 1.378 . S
C354 C358 1.350 . S
C355 C358 1.463 . S
C355 C360 1.350 . S
C355 N363 1.427 . S
C356 H347 0.930 . S
C356 C354 1.378 . S
C356 C357 1.367 . S
C357 C356 1.367 . S
C357 C359 1.433 . S
C358 C354 1.350 . S
C358 C355 1.463 . S
C358 N362 1.427 . S
C359 H349 0.929 . S
C359 C357 1.433 . S
C359 N362 1.384 . S
C360 H351 0.929 . S
C360 C352 1.378 . S
C360 C355 1.350 . S
C361 H348 0.929 . S
C361 C353 1.433 . S
C361 N363 1.384 . S
N362 C358 1.427 . S
N362 C359 1.384 . S
N363 C355 1.427 . S
N363 C361 1.384 . S
H364 C370 0.930 . S
H365 C374 0.930 1_455 S
H366 C379 0.929 . S
H367 C377 0.929 . S
H368 C372 0.929 . S
H369 C378 0.929 . S
C370 H364 0.930 . S
C370 C371 1.367 . S
C370 C378 1.378 . S
C371 C370 1.367 . S
C371 C379 1.433 . S
C372 H368 0.929 . S
C372 C374 1.378 . S
C372 C376 1.350 . S
C373 C376 1.463 . S
C373 C378 1.350 . S
C373 N381 1.427 . S
C374 H365 0.930 1_655 S
C374 C372 1.378 . S
C374 C375 1.367 . S
C375 C374 1.367 . S
C375 C377 1.433 . S
C376 C372 1.350 . S
C376 C373 1.463 . S
C376 N380 1.427 . S
C377 H367 0.929 . S
C377 C375 1.433 . S
C377 N380 1.384 . S
C378 H369 0.929 . S
C378 C370 1.378 . S
C378 C373 1.350 . S
C379 H366 0.929 . S
C379 C371 1.433 . S
C379 N381 1.384 . S
N380 C376 1.427 . S
N380 C377 1.384 . S
N381 C373 1.427 . S
N381 C379 1.384 . S
H382 C388 0.930 . S
H383 C392 0.930 . S
H384 C397 0.929 . S
H385 C395 0.929 . S
H386 C390 0.929 . S
H387 C396 0.929 . S
C388 H382 0.930 . S
C388 C389 1.367 . S
C388 C396 1.378 . S
C389 C388 1.367 . S
C389 C397 1.433 . S
C390 H386 0.929 . S
C390 C392 1.378 . S
C390 C394 1.350 . S
C391 C394 1.463 . S
C391 C396 1.350 . S
C391 N399 1.427 . S
C392 H383 0.930 . S
C392 C390 1.378 . S
C392 C393 1.367 . S
C393 C392 1.367 . S
C393 C395 1.433 . S
C394 C390 1.350 . S
C394 C391 1.463 . S
C394 N398 1.427 . S
C395 H385 0.929 . S
C395 C393 1.433 . S
C395 N398 1.384 . S
C396 H387 0.929 . S
C396 C388 1.378 . S
C396 C391 1.350 . S
C397 H384 0.929 . S
C397 C389 1.433 . S
C397 N399 1.384 . S
N398 C394 1.427 . S
N398 C395 1.384 . S
N399 C391 1.427 . S
N399 C397 1.384 . S
H400 C406 0.930 . S
H401 C410 0.930 1_655 S
H402 C415 0.929 . S
H403 C413 0.929 . S
H404 C408 0.929 . S
H405 C414 0.929 . S
C406 H400 0.930 . S
C406 C407 1.367 . S
C406 C414 1.378 . S
C407 C406 1.367 . S
C407 C415 1.433 . S
C408 H404 0.929 . S
C408 C410 1.378 . S
C408 C412 1.350 . S
C409 C412 1.463 . S
C409 C414 1.350 . S
C409 N417 1.427 . S
C410 H401 0.930 1_455 S
C410 C408 1.378 . S
C410 C411 1.367 . S
C411 C410 1.367 . S
C411 C413 1.433 . S
C412 C408 1.350 . S
C412 C409 1.463 . S
C412 N416 1.427 . S
C413 H403 0.929 . S
C413 C411 1.433 . S
C413 N416 1.384 . S
C414 H405 0.929 . S
C414 C406 1.378 . S
C414 C409 1.350 . S
C415 H402 0.929 . S
C415 C407 1.433 . S
C415 N417 1.384 . S
N416 C412 1.427 . S
N416 C413 1.384 . S
N417 C409 1.427 . S
N417 C415 1.384 . S
C213 C173 1.651 . S
C209 C138 1.620 . S
C227 C21 1.636 . S
C231 C196 1.653 . S
C245 C60 1.650 . S
C249 C172 1.669 . S
C263 C99 1.634 . S
C267 C195 1.667 . S
C285 C176 1.628 . S
C281 C16 1.647 . S
C303 C198 1.635 . S
C299 C40 1.644 . S
C317 C79 1.661 . S
C321 C177 1.627 . S
C335 C133 1.623 . S
C339 C197 1.606 . S
C357 C200 1.627 . S
C353 C55 1.663 . S
C375 C175 1.640 . S
C371 C94 1.634 . S
C393 C199 1.622 . S
C389 C118 1.648 . S
C407 C1 1.616 . S
C411 C174 1.605 . S
