# Generated by pormake.
# Topology rtl, (3,6)-cn, num edge types: 1
# Building blocks:
#     Node 0, Type 0, BuildingBlock: KAKCAD_clean_linker_0, # of connection points: 3
#     Node 1, Type 0, BuildingBlock: KAKCAD_clean_linker_0, # of connection points: 3
#     Node 2, Type 0, BuildingBlock: KAKCAD_clean_linker_0, # of connection points: 3
#     Node 3, Type 0, BuildingBlock: KAKCAD_clean_linker_0, # of connection points: 3
#     Node 4, Type 1, BuildingBlock: KUMJIN_clean_sbu_1, # of connection points: 6
#     Node 5, Type 1, BuildingBlock: KUMJIN_clean_sbu_1, # of connection points: 6
#     Edge 6, Type (0, 1), None
#     Edge 7, Type (0, 1), None
#     Edge 8, Type (0, 1), None
#     Edge 9, Type (0, 1), None
#     Edge 10, Type (0, 1), None
#     Edge 11, Type (0, 1), None
#     Edge 12, Type (0, 1), None
#     Edge 13, Type (0, 1), None
#     Edge 14, Type (0, 1), None
#     Edge 15, Type (0, 1), None
#     Edge 16, Type (0, 1), None
#     Edge 17, Type (0, 1), None
# Relax obj value: 0.020
# Max RMSD: 0.145
# Mean RMSD: 0.087
data_MOF--net-rtl--node1-KUMJIN_clean_sbu_1--node2-KAKCAD_clean_linker_0--edge1-none
_symmetry_space_group_name_H-M    P1
_symmetry_Int_Tables_number       1
_symmetry_cell_setting            triclinic
loop_
_symmetry_equiv_pos_as_xyz
'x, y, z'
_cell_length_a     22.064126
_cell_length_b     23.066822
_cell_length_c     21.075995
_cell_angle_alpha  72.111677
_cell_angle_beta   99.218074
_cell_angle_gamma 91.505747
loop_
_atom_site_label
_atom_site_type_symbol
_atom_site_fract_x
_atom_site_fract_y
_atom_site_fract_z
_atom_type_partial_charge
C0 C 0.07883 0.88316 0.79626 0.0
C1 C 0.09298 0.94215 0.75902 0.0
C2 C 0.10706 0.85795 0.86293 0.0
C3 C 0.14915 0.89169 0.89352 0.0
C4 C 0.16186 0.95144 0.85749 0.0
C5 C 0.13371 0.97669 0.79045 0.0
C6 C 0.18344 0.86154 0.96082 0.0
C7 C 0.23177 0.82141 0.96683 0.0
C8 C 0.25823 0.78248 0.03025 0.0
C9 C 0.23655 0.78645 0.08833 0.0
C10 C 0.18984 0.829 0.08258 0.0
C11 C 0.16332 0.86635 0.01856 0.0
C12 C 0.16474 0.83184 0.14239 0.0
C13 C 0.13204 0.78277 0.17773 0.0
C14 C 0.16814 0.88581 0.16023 0.0
C15 C 0.13843 0.89099 0.21214 0.0
C16 C 0.10364 0.84281 0.2457 0.0
C17 C 0.30602 0.7363 0.0345 0.0
C18 C 0.3044 0.70972 0.98233 0.0
C19 C 0.35379 0.7186 0.08991 0.0
C20 C 0.39788 0.67473 0.09358 0.0
C21 C 0.39584 0.64817 0.04142 0.0
C22 C 0.34939 0.66736 0.98507 0.0
C23 C 0.10115 0.78844 0.22859 0.0
H24 H 0.0467 0.85612 0.77354 0.0
H25 H 0.09714 0.81155 0.89026 0.0
H26 H 0.19479 0.97768 0.88049 0.0
H27 H 0.14535 0.02235 0.76262 0.0
H28 H 0.24744 0.81986 0.92121 0.0
H29 H 0.12513 0.89698 0.01349 0.0
H30 H 0.25482 0.75593 0.13777 0.0
H31 H 0.12838 0.74103 0.16413 0.0
H32 H 0.1928 0.9243 0.13309 0.0
H33 H 0.14063 0.93341 0.22432 0.0
H34 H 0.26776 0.72069 0.93943 0.0
H35 H 0.35743 0.73875 0.13044 0.0
H36 H 0.07463 0.75072 0.25399 0.0
H37 H 0.34683 0.6489 0.94333 0.0
H38 H 0.43338 0.66152 0.13759 0.0
C39 C 0.55055 0.65304 0.85359 0.0
C40 C 0.58706 0.61493 0.91151 0.0
C41 C 0.57636 0.68296 0.79608 0.0
C42 C 0.63951 0.67677 0.79595 0.0
C43 C 0.67695 0.64304 0.85564 0.0
C44 C 0.65095 0.61217 0.91284 0.0
C45 C 0.66393 0.69543 0.73121 0.0
C46 C 0.71387 0.73449 0.72089 0.0
C47 C 0.7392 0.74706 0.66084 0.0
C48 C 0.71554 0.71732 0.61319 0.0
C49 C 0.66563 0.67775 0.62271 0.0
C50 C 0.63913 0.66918 0.68122 0.0
C51 C 0.64307 0.64353 0.57344 0.0
C52 C 0.65322 0.66506 0.50595 0.0
C53 C 0.6132 0.58754 0.59385 0.0
C54 C 0.59494 0.55435 0.54886 0.0
C55 C 0.60862 0.57407 0.48262 0.0
C56 C 0.78978 0.79148 0.64658 0.0
C57 C 0.78971 0.8463 0.66276 0.0
C58 C 0.83666 0.78114 0.61283 0.0
C59 C 0.88086 0.82496 0.59393 0.0
C60 C 0.88037 0.88009 0.60931 0.0
C61 C 0.83451 0.88991 0.64461 0.0
C62 C 0.63795 0.63033 0.46212 0.0
H63 H 0.50156 0.65793 0.85176 0.0
H64 H 0.54657 0.70884 0.75062 0.0
H65 H 0.72567 0.63709 0.8566 0.0
H66 H 0.68056 0.58362 0.95678 0.0
H67 H 0.73303 0.75462 0.75967 0.0
H68 H 0.59982 0.64052 0.68959 0.0
H69 H 0.73665 0.72523 0.56859 0.0
H70 H 0.67375 0.70863 0.48623 0.0
H71 H 0.6048 0.56774 0.64514 0.0
H72 H 0.57076 0.5127 0.56714 0.0
H73 H 0.75408 0.8563 0.68799 0.0
H74 H 0.83932 0.73903 0.60073 0.0
H75 H 0.65101 0.64784 0.41261 0.0
H76 H 0.83262 0.93169 0.65759 0.0
H77 H 0.91561 0.81528 0.56743 0.0
C78 C 0.90913 0.0302 0.33638 0.0
C79 C 0.93331 0.06772 0.3753 0.0
C80 C 0.87922 0.05603 0.26981 0.0
C81 C 0.87319 0.11972 0.24125 0.0
C82 C 0.90017 0.15687 0.27925 0.0
C83 C 0.92972 0.13126 0.34531 0.0
C84 C 0.83457 0.14805 0.17462 0.0
C85 C 0.79243 0.19497 0.16807 0.0
C86 C 0.75458 0.22302 0.10642 0.0
C87 C 0.7592 0.20311 0.0507 0.0
C88 C 0.80186 0.15712 0.05567 0.0
C89 C 0.8394 0.12946 0.11795 0.0
C90 C 0.80847 0.14113 0.9941 0.0
C91 C 0.75635 0.12869 0.95303 0.0
C92 C 0.86567 0.14483 0.97218 0.0
C93 C 0.87007 0.13949 0.90864 0.0
C94 C 0.81739 0.12968 0.86601 0.0
C95 C 0.71133 0.27378 0.10019 0.0
C96 C 0.68151 0.27373 0.15451 0.0
C97 C 0.70014 0.32322 0.04033 0.0
C98 C 0.65968 0.37079 0.0347 0.0
C99 C 0.63068 0.37062 0.08926 0.0
C100 C 0.6422 0.32194 0.14933 0.0
C101 C 0.76081 0.12257 0.89 0.0
H102 H 0.91148 0.98108 0.35798 0.0
H103 H 0.85867 0.0263 0.24173 0.0
H104 H 0.89743 0.20607 0.25824 0.0
H105 H 0.94925 0.1616 0.37309 0.0
H106 H 0.78952 0.20997 0.21144 0.0
H107 H 0.87254 0.09411 0.12205 0.0
H108 H 0.73013 0.22399 1.00276 0.0
H109 H 0.71177 0.12512 0.96909 0.0
H110 H 0.90644 0.15505 1.00264 0.0
H111 H 0.91434 0.14583 0.89185 0.0
H112 H 0.68773 0.23602 0.20089 0.0
H113 H 0.72313 0.32569 0.99792 0.0
H114 H 0.71953 0.11339 0.85954 0.0
H115 H 0.61949 0.32033 0.19176 0.0
H116 H 0.65159 0.40807 0.98792 0.0
C117 C 0.36806 0.42287 0.2225 0.0
C118 C 0.43048 0.41081 0.22377 0.0
C119 C 0.33936 0.39437 0.27826 0.0
C120 C 0.37286 0.35407 0.33656 0.0
C121 C 0.43473 0.34075 0.33749 0.0
C122 C 0.46312 0.36832 0.28126 0.0
C123 C 0.34671 0.33459 0.39976 0.0
C124 C 0.30351 0.28818 0.4118 0.0
C125 C 0.27844 0.27159 0.47234 0.0
C126 C 0.29696 0.30333 0.51953 0.0
C127 C 0.34055 0.34939 0.50811 0.0
C128 C 0.36502 0.36459 0.44788 0.0
C129 C 0.36055 0.38181 0.55883 0.0
C130 C 0.31834 0.39655 0.59532 0.0
C131 C 0.42213 0.39865 0.57087 0.0
C132 C 0.4408 0.42989 0.61762 0.0
C133 C 0.39857 0.44428 0.65406 0.0
C134 C 0.23331 0.2214 0.48736 0.0
C135 C 0.19022 0.20992 0.4357 0.0
C136 C 0.23194 0.18526 0.55454 0.0
C137 C 0.18736 0.1414 0.56994 0.0
C138 C 0.14427 0.13064 0.51853 0.0
C139 C 0.14662 0.16442 0.45114 0.0
C140 C 0.33727 0.42707 0.64274 0.0
H141 H 0.34186 0.45599 0.1794 0.0
H142 H 0.29193 0.40618 0.27718 0.0
H143 H 0.46154 0.31043 0.38253 0.0
H144 H 0.51095 0.35729 0.28341 0.0
H145 H 0.29066 0.26461 0.37461 0.0
H146 H 0.39752 0.40108 0.43726 0.0
H147 H 0.27753 0.29214 0.56569 0.0
H148 H 0.27038 0.38543 0.58654 0.0
H149 H 0.45622 0.38714 0.54473 0.0
H150 H 0.48853 0.44198 0.62608 0.0
H151 H 0.18911 0.2369 0.38346 0.0
H152 H 0.26544 0.19055 0.59577 0.0
H153 H 0.30368 0.43826 0.66971 0.0
H154 H 0.11364 0.15683 0.41067 0.0
H155 H 0.18728 0.115 0.62226 0.0
Eu156 Eu 0.06532 0.9431 0.54408 0.0
C157 C 0.92719 0.19902 0.49746 0.0
N158 N 0.97672 0.1728 0.54391 0.0
C159 C 0.02589 0.26914 0.52442 0.0
C160 C 0.92542 0.26186 0.46205 0.0
C161 C 0.02557 0.20667 0.55828 0.0
C162 C 0.97567 0.29686 0.476 0.0
C163 C 0.82666 0.1885 0.43605 0.0
C164 C 0.87837 0.16275 0.48455 0.0
C165 C 0.82475 0.25108 0.4007 0.0
C166 C 0.87398 0.28764 0.41365 0.0
Eu167 Eu 0.97326 0.06691 0.59606 0.0
N168 N 0.88234 0.1019 0.51798 0.0
C169 C 0.77858 0.15047 0.42413 0.0
C170 C 0.83492 0.0649 0.50786 0.0
C171 C 0.7826 0.08851 0.46051 0.0
H172 H 0.06411 0.18556 0.59638 0.0
H173 H 0.7454 0.05887 0.45205 0.0
H174 H 0.02159 0.806 0.63307 0.0
H175 H 0.29653 0.03795 0.55711 0.0
H176 H 0.83725 0.01711 0.53573 0.0
H177 H 0.73812 0.16851 0.38719 0.0
H178 H 0.19233 0.02502 0.50219 0.0
H179 H 0.06481 0.29587 0.53575 0.0
H180 H 0.78549 0.27161 0.36307 0.0
H181 H 0.87188 0.33581 0.38583 0.0
H182 H 0.06124 0.72196 0.73619 0.0
H183 H 0.9761 0.34526 0.44978 0.0
H184 H 0.33663 0.96924 0.67103 0.0
N185 N 0.10093 0.8593 0.63977 0.0
C186 C 0.15822 0.86316 0.6731 0.0
C187 C 0.08888 0.76145 0.71908 0.0
C188 C 0.1823 0.81675 0.73253 0.0
C189 C 0.06664 0.80883 0.66075 0.0
C190 C 0.14668 0.7657 0.75555 0.0
N191 N 0.1693 0.95623 0.58823 0.0
C192 C 0.20746 0.99727 0.5536 0.0
C193 C 0.25342 0.91745 0.67948 0.0
C194 C 0.19289 0.91352 0.64725 0.0
C195 C 0.28993 0.96465 0.648 0.0
C196 C 0.26741 0.00365 0.58385 0.0
H197 H 0.16359 0.72916 0.80103 0.0
H198 H 0.26012 0.78761 0.81283 0.0
H199 H 0.32261 0.87552 0.76614 0.0
O200 O 0.10633 0.94169 0.45627 0.0
O201 O 0.04975 0.92926 0.65204 0.0
O202 O 0.06275 0.02515 0.65794 0.0
O203 O 0.0694 0.8599 0.51634 0.0
O204 O 0.08632 0.04455 0.50246 0.0
O205 O 0.07468 0.07763 0.5919 0.0
O206 O 0.92476 0.03377 0.68249 0.0
O207 O 0.96601 0.0792 0.48416 0.0
O208 O 0.97933 0.98462 0.47092 0.0
O209 O 0.96363 0.12344 0.66028 0.0
O210 O 0.93106 0.97274 0.61467 0.0
O211 O 0.96662 0.91658 0.55201 0.0
C212 C 0.06703 0.9665 0.68709 0.0
C213 C 0.06116 0.87317 0.40022 0.0
C214 C 0.06734 0.85048 0.29585 0.0
C215 C 1.00345 0.84323 0.28621 0.0
C216 C 0.99715 0.86681 0.38925 0.0
C217 C 0.96857 0.85191 0.33245 0.0
C218 C 0.09598 0.86583 0.35287 0.0
C219 C 0.09733 0.08421 0.53627 0.0
C220 C 0.09219 0.88552 0.46171 0.0
C221 C 0.2411 0.82247 0.76674 0.0
C222 C 0.27657 0.8727 0.74029 0.0
C223 C 0.96119 0.04213 0.44715 0.0
C224 C 0.87586 0.10842 0.71341 0.0
C225 C 0.82063 0.13017 0.79562 0.0
C226 C 0.77254 0.15705 0.74262 0.0
C227 C 0.82732 0.13503 0.66164 0.0
C228 C 0.87229 0.1057 0.78021 0.0
C229 C 0.77589 0.15913 0.67634 0.0
C230 C 0.92842 0.92603 0.59039 0.0
C231 C 0.93094 0.08416 0.6985 0.0
H232 H 0.98049 0.83176 0.24236 0.0
H233 H 0.96939 0.87279 0.42489 0.0
H234 H 0.91928 0.84684 0.32438 0.0
H235 H 0.14537 0.87092 0.361 0.0
H236 H 0.73271 0.17765 0.75198 0.0
H237 H 0.82934 0.13751 0.60997 0.0
H238 H 0.90973 0.08433 0.82001 0.0
H239 H 0.73872 0.18008 0.63609 0.0
Eu240 Eu 0.45089 0.47569 1.00433 0.0
C241 C 0.70942 0.5709 0.10901 0.0
N242 N 0.68004 0.51959 0.13901 0.0
C243 C 0.77461 0.4617 0.16972 0.0
C244 C 0.77297 0.56909 0.10739 0.0
C245 C 0.71158 0.46564 0.17016 0.0
C246 C 0.80541 0.51355 0.13795 0.0
C247 C 0.70492 0.67905 0.04688 0.0
C248 C 0.67572 0.62544 0.0791 0.0
C249 C 0.7682 0.67726 0.04516 0.0
C250 C 0.80209 0.62249 0.07529 0.0
Eu251 Eu 0.57367 0.53118 0.13556 0.0
N252 N 0.61398 0.62548 0.07931 0.0
C253 C 0.66954 0.73284 0.01683 0.0
C254 C 0.57966 0.67817 0.05208 0.0
C255 C 0.60676 0.73245 0.01988 0.0
H256 H 0.68832 0.42585 0.19639 0.0
H257 H 0.57922 0.77401 0.99756 0.0
H258 H 0.31704 0.54824 0.98438 0.0
H259 H 0.50789 0.23109 0.11163 0.0
H260 H 0.53145 0.67872 0.055 0.0
H261 H 0.69028 0.77496 0.99154 0.0
H262 H 0.52095 0.33646 0.04272 0.0
H263 H 0.79946 0.41876 0.1942 0.0
H264 H 0.79135 0.71799 0.02047 0.0
H265 H 0.85086 0.6219 0.07343 0.0
H266 H 0.21481 0.52667 0.01911 0.0
H267 H 0.85428 0.51032 0.13772 0.0
H268 H 0.41355 0.20343 0.16255 0.0
N269 N 0.35164 0.45811 0.03323 0.0
C270 C 0.33965 0.40012 0.06876 0.0
C271 C 0.2496 0.49075 0.03371 0.0
C272 C 0.28207 0.38561 0.08977 0.0
C273 C 0.30753 0.50304 0.01449 0.0
C274 C 0.2369 0.43185 0.07188 0.0
N275 N 0.44089 0.37106 0.06426 0.0
C276 C 0.48243 0.32643 0.06938 0.0
C277 C 0.37468 0.29512 0.1226 0.0
C278 C 0.38586 0.35564 0.08565 0.0
C279 C 0.42036 0.25043 0.13448 0.0
C280 C 0.47388 0.26594 0.10634 0.0
H281 H 0.1921 0.42254 0.08708 0.0
H282 H 0.22789 0.31396 0.14553 0.0
H283 H 0.30873 0.23461 0.17378 0.0
O284 O 0.45424 0.42935 0.92885 0.0
O285 O 0.42882 0.47166 0.10765 0.0
O286 O 0.52186 0.44486 0.17472 0.0
O287 O 0.38478 0.49888 0.91044 0.0
O288 O 0.55128 0.44407 0.02416 0.0
O289 O 0.57892 0.43354 0.13685 0.0
O290 O 0.54452 0.57089 0.20818 0.0
O291 O 0.59343 0.55451 0.02783 0.0
O292 O 0.50045 0.56204 0.95725 0.0
O293 O 0.63312 0.52487 0.2304 0.0
O294 O 0.48072 0.58067 0.10305 0.0
O295 O 0.43471 0.57384 0.99809 0.0
C296 C 0.46171 0.44361 0.16628 0.0
C297 C 0.42236 0.48713 0.81615 0.0
C298 C 0.41841 0.47737 0.70362 0.0
C299 C 0.45361 0.52993 0.68611 0.0
C300 C 0.45689 0.53974 0.7976 0.0
C301 C 0.47231 0.56112 0.73286 0.0
C302 C 0.40277 0.45628 0.7689 0.0
C303 C 0.58644 0.41962 0.08277 0.0
C304 C 0.40981 0.46201 0.88566 0.0
C305 C 0.27165 0.32585 0.12844 0.0
C306 C 0.31782 0.28074 0.14482 0.0
C307 C 0.55853 0.57593 0.96871 0.0
C308 C 0.58642 0.52437 0.32324 0.0
C309 C 0.595 0.53536 0.43633 0.0
C310 C 0.58894 0.47157 0.46224 0.0
C311 C 0.58007 0.46144 0.35012 0.0
C312 C 0.59155 0.56114 0.36571 0.0
C313 C 0.58038 0.43538 0.41925 0.0
C314 C 0.44003 0.59879 0.04728 0.0
C315 C 0.594 0.55209 0.25241 0.0
H316 H 0.46605 0.54721 0.6361 0.0
H317 H 0.47221 0.56375 0.83348 0.0
H318 H 0.49898 0.60181 0.71898 0.0
H319 H 0.37671 0.41509 0.78347 0.0
H320 H 0.59262 0.44862 0.5158 0.0
H321 H 0.57663 0.43248 0.31796 0.0
H322 H 0.59428 0.60981 0.34289 0.0
H323 H 0.57614 0.38658 0.43999 0.0
loop_
_geom_bond_atom_site_label_1
_geom_bond_atom_site_label_2
_geom_bond_distance
_geom_bond_site_symmetry_2
_ccdc_geom_bond_type
C0 C1 1.386 . S
C0 C2 1.397 . S
C0 H24 0.931 . S
C1 C0 1.386 . S
C1 C5 1.397 1_565 S
C2 C0 1.397 . S
C2 C3 1.384 . S
C2 H25 0.930 . S
C3 C2 1.384 . S
C3 C4 1.377 . S
C3 C6 1.481 . S
C4 C3 1.377 . S
C4 C5 1.389 1_565 S
C4 H26 0.929 1_565 S
C5 C1 1.397 1_545 S
C5 C4 1.389 1_545 S
C5 H27 0.931 . S
C6 C3 1.481 . S
C6 C7 1.387 . S
C6 C11 1.390 1_556 S
C7 C6 1.387 . S
C7 C8 1.401 1_556 S
C7 H28 0.930 . S
C8 C7 1.401 1_554 S
C8 C9 1.376 . S
C8 C17 1.511 . S
C9 C8 1.376 . S
C9 C10 1.392 . S
C9 H30 0.931 . S
C10 C9 1.392 . S
C10 C11 1.361 . S
C10 C12 1.500 . S
C11 C6 1.390 1_554 S
C11 C10 1.361 . S
C11 H29 0.931 1_554 S
C12 C10 1.500 . S
C12 C13 1.371 . S
C12 C14 1.365 . S
C13 C12 1.371 . S
C13 C23 1.386 . S
C13 H31 0.931 . S
C14 C12 1.365 . S
C14 C15 1.409 . S
C14 H32 0.929 . S
C15 C14 1.409 . S
C15 C16 1.380 . S
C15 H33 0.930 1_565 S
C16 C15 1.380 . S
C16 C23 1.357 . S
C17 C8 1.511 . S
C17 C18 1.341 1_554 S
C17 C19 1.371 . S
C18 C17 1.341 1_556 S
C18 C22 1.394 1_556 S
C18 H34 0.930 . S
C19 C17 1.371 . S
C19 C20 1.392 . S
C19 H35 0.931 . S
C20 C19 1.392 . S
C20 C21 1.331 . S
C20 H38 0.932 . S
C21 C20 1.331 . S
C21 C22 1.336 . S
C22 C18 1.394 1_554 S
C22 C21 1.336 . S
C22 H37 0.929 1_554 S
C23 C13 1.386 . S
C23 C16 1.357 . S
C23 H36 0.928 . S
H24 C0 0.931 . S
H25 C2 0.930 . S
H26 C4 0.929 1_545 S
H27 C5 0.931 . S
H28 C7 0.930 . S
H29 C11 0.931 1_556 S
H30 C9 0.931 . S
H31 C13 0.931 . S
H32 C14 0.929 . S
H33 C15 0.930 1_545 S
H34 C18 0.930 . S
H35 C19 0.931 . S
H36 C23 0.928 . S
H37 C22 0.929 1_556 S
H38 C20 0.932 . S
C39 C40 1.386 . S
C39 C41 1.397 . S
C39 H63 0.931 . S
C40 C39 1.386 . S
C40 C44 1.397 . S
C41 C39 1.397 . S
C41 C42 1.384 . S
C41 H64 0.930 . S
C42 C41 1.384 . S
C42 C43 1.377 . S
C42 C45 1.481 . S
C43 C42 1.377 . S
C43 C44 1.389 . S
C43 H65 0.929 . S
C44 C40 1.397 . S
C44 C43 1.389 . S
C44 H66 0.931 . S
C45 C42 1.481 . S
C45 C46 1.387 . S
C45 C50 1.390 . S
C46 C45 1.387 . S
C46 C47 1.401 . S
C46 H67 0.930 . S
C47 C46 1.401 . S
C47 C48 1.376 . S
C47 C56 1.511 . S
C48 C47 1.376 . S
C48 C49 1.392 . S
C48 H69 0.931 . S
C49 C48 1.392 . S
C49 C50 1.361 . S
C49 C51 1.500 . S
C50 C45 1.390 . S
C50 C49 1.361 . S
C50 H68 0.931 . S
C51 C49 1.500 . S
C51 C52 1.371 . S
C51 C53 1.365 . S
C52 C51 1.371 . S
C52 C62 1.386 . S
C52 H70 0.931 . S
C53 C51 1.365 . S
C53 C54 1.409 . S
C53 H71 0.929 . S
C54 C53 1.409 . S
C54 C55 1.380 . S
C54 H72 0.930 . S
C55 C54 1.380 . S
C55 C62 1.357 . S
C56 C47 1.511 . S
C56 C57 1.341 . S
C56 C58 1.371 . S
C57 C56 1.341 . S
C57 C61 1.394 . S
C57 H73 0.930 . S
C58 C56 1.371 . S
C58 C59 1.392 . S
C58 H74 0.931 . S
C59 C58 1.392 . S
C59 C60 1.331 . S
C59 H77 0.932 . S
C60 C59 1.331 . S
C60 C61 1.336 . S
C61 C57 1.394 . S
C61 C60 1.336 . S
C61 H76 0.929 . S
C62 C52 1.386 . S
C62 C55 1.357 . S
C62 H75 0.928 . S
H63 C39 0.931 . S
H64 C41 0.930 . S
H65 C43 0.929 . S
H66 C44 0.931 . S
H67 C46 0.930 . S
H68 C50 0.931 . S
H69 C48 0.931 . S
H70 C52 0.931 . S
H71 C53 0.929 . S
H72 C54 0.930 . S
H73 C57 0.930 . S
H74 C58 0.931 . S
H75 C62 0.928 . S
H76 C61 0.929 . S
H77 C59 0.932 . S
C78 C79 1.386 . S
C78 C80 1.397 . S
C78 H102 0.931 . S
C79 C78 1.386 . S
C79 C83 1.397 . S
C80 C78 1.397 . S
C80 C81 1.384 . S
C80 H103 0.930 . S
C81 C80 1.384 . S
C81 C82 1.377 . S
C81 C84 1.481 . S
C82 C81 1.377 . S
C82 C83 1.389 . S
C82 H104 0.929 . S
C83 C79 1.397 . S
C83 C82 1.389 . S
C83 H105 0.931 . S
C84 C81 1.481 . S
C84 C85 1.387 . S
C84 C89 1.390 . S
C85 C84 1.387 . S
C85 C86 1.401 . S
C85 H106 0.930 . S
C86 C85 1.401 . S
C86 C87 1.376 . S
C86 C95 1.511 . S
C87 C86 1.376 . S
C87 C88 1.392 . S
C87 H108 0.931 . S
C88 C87 1.392 . S
C88 C89 1.361 . S
C88 C90 1.500 . S
C89 C84 1.390 . S
C89 C88 1.361 . S
C89 H107 0.931 . S
C90 C88 1.500 . S
C90 C91 1.371 1_554 S
C90 C92 1.365 . S
C91 C90 1.371 1_556 S
C91 C101 1.386 . S
C91 H109 0.931 . S
C92 C90 1.365 . S
C92 C93 1.409 1_554 S
C92 H110 0.929 . S
C93 C92 1.409 1_556 S
C93 C94 1.380 . S
C93 H111 0.930 . S
C94 C93 1.380 . S
C94 C101 1.357 . S
C95 C86 1.511 . S
C95 C96 1.341 . S
C95 C97 1.371 . S
C96 C95 1.341 . S
C96 C100 1.394 . S
C96 H112 0.930 . S
C97 C95 1.371 . S
C97 C98 1.392 . S
C97 H113 0.931 1_554 S
C98 C97 1.392 . S
C98 C99 1.331 . S
C98 H116 0.932 1_554 S
C99 C98 1.331 . S
C99 C100 1.336 . S
C100 C96 1.394 . S
C100 C99 1.336 . S
C100 H115 0.929 . S
C101 C91 1.386 . S
C101 C94 1.357 . S
C101 H114 0.928 . S
H102 C78 0.931 . S
H103 C80 0.930 . S
H104 C82 0.929 . S
H105 C83 0.931 . S
H106 C85 0.930 . S
H107 C89 0.931 . S
H108 C87 0.931 . S
H109 C91 0.931 . S
H110 C92 0.929 . S
H111 C93 0.930 . S
H112 C96 0.930 . S
H113 C97 0.931 1_556 S
H114 C101 0.928 . S
H115 C100 0.929 . S
H116 C98 0.932 1_556 S
C117 C118 1.386 . S
C117 C119 1.397 . S
C117 H141 0.931 . S
C118 C117 1.386 . S
C118 C122 1.397 . S
C119 C117 1.397 . S
C119 C120 1.384 . S
C119 H142 0.930 . S
C120 C119 1.384 . S
C120 C121 1.377 . S
C120 C123 1.481 . S
C121 C120 1.377 . S
C121 C122 1.389 . S
C121 H143 0.929 . S
C122 C118 1.397 . S
C122 C121 1.389 . S
C122 H144 0.931 . S
C123 C120 1.481 . S
C123 C124 1.387 . S
C123 C128 1.390 . S
C124 C123 1.387 . S
C124 C125 1.401 . S
C124 H145 0.930 . S
C125 C124 1.401 . S
C125 C126 1.376 . S
C125 C134 1.511 . S
C126 C125 1.376 . S
C126 C127 1.392 . S
C126 H147 0.931 . S
C127 C126 1.392 . S
C127 C128 1.361 . S
C127 C129 1.500 . S
C128 C123 1.390 . S
C128 C127 1.361 . S
C128 H146 0.931 . S
C129 C127 1.500 . S
C129 C130 1.371 . S
C129 C131 1.365 . S
C130 C129 1.371 . S
C130 C140 1.386 . S
C130 H148 0.931 . S
C131 C129 1.365 . S
C131 C132 1.409 . S
C131 H149 0.929 . S
C132 C131 1.409 . S
C132 C133 1.380 . S
C132 H150 0.930 . S
C133 C132 1.380 . S
C133 C140 1.357 . S
C134 C125 1.511 . S
C134 C135 1.341 . S
C134 C136 1.371 . S
C135 C134 1.341 . S
C135 C139 1.394 . S
C135 H151 0.930 . S
C136 C134 1.371 . S
C136 C137 1.392 . S
C136 H152 0.931 . S
C137 C136 1.392 . S
C137 C138 1.331 . S
C137 H155 0.932 . S
C138 C137 1.331 . S
C138 C139 1.336 . S
C139 C135 1.394 . S
C139 C138 1.336 . S
C139 H154 0.929 . S
C140 C130 1.386 . S
C140 C133 1.357 . S
C140 H153 0.928 . S
H141 C117 0.931 . S
H142 C119 0.930 . S
H143 C121 0.929 . S
H144 C122 0.931 . S
H145 C124 0.930 . S
H146 C128 0.931 . S
H147 C126 0.931 . S
H148 C130 0.931 . S
H149 C131 0.929 . S
H150 C132 0.930 . S
H151 C135 0.930 . S
H152 C136 0.931 . S
H153 C140 0.928 . S
H154 C139 0.929 . S
H155 C137 0.932 . S
Eu156 N185 2.600 . S
Eu156 N191 2.562 . S
Eu156 O200 2.462 . S
Eu156 O201 2.373 . S
Eu156 O203 2.432 . S
Eu156 O204 2.291 1_565 S
Eu156 O208 2.335 1_465 S
Eu156 O211 2.372 1_455 S
Eu156 C220 2.787 . S
C157 N158 1.365 . S
C157 C160 1.405 . S
C157 C164 1.448 . S
N158 C157 1.365 . S
N158 C161 1.319 . S
N158 Eu167 2.600 . S
C159 C161 1.397 . S
C159 C162 1.367 . S
C159 H179 0.931 1_655 S
C160 C157 1.405 . S
C160 C162 1.403 . S
C160 C166 1.439 . S
C161 N158 1.319 . S
C161 C159 1.397 . S
C161 H172 0.930 1_655 S
C162 C159 1.367 . S
C162 C160 1.403 . S
C162 H183 0.929 . S
C163 C164 1.430 . S
C163 C165 1.387 . S
C163 C169 1.404 . S
C164 C157 1.448 . S
C164 C163 1.430 . S
C164 N168 1.351 . S
C165 C163 1.387 . S
C165 C166 1.374 . S
C165 H180 0.931 . S
C166 C160 1.439 . S
C166 C165 1.374 . S
C166 H181 0.931 . S
Eu167 N158 2.600 . S
Eu167 N168 2.562 . S
Eu167 O202 2.335 1_655 S
Eu167 O205 2.372 1_655 S
Eu167 O206 2.462 . S
Eu167 O207 2.373 . S
Eu167 O209 2.432 . S
Eu167 O210 2.291 1_545 S
Eu167 C231 2.787 . S
N168 C164 1.351 . S
N168 Eu167 2.562 . S
N168 C170 1.325 . S
C169 C163 1.404 . S
C169 C171 1.366 . S
C169 H177 0.930 . S
C170 N168 1.325 . S
C170 C171 1.416 . S
C170 H176 0.929 . S
C171 C169 1.366 . S
C171 C170 1.416 . S
C171 H173 0.930 . S
H172 C161 0.930 1_455 S
H173 C171 0.930 . S
H174 C189 0.930 1_655 S
H175 C196 0.930 . S
H176 C170 0.929 . S
H177 C169 0.930 . S
H178 C192 0.929 . S
H179 C159 0.931 1_455 S
H180 C165 0.931 . S
H181 C166 0.931 . S
H182 C187 0.931 1_655 S
H183 C162 0.929 . S
H184 C195 0.930 . S
N185 Eu156 2.600 . S
N185 C186 1.365 . S
N185 C189 1.319 . S
C186 N185 1.365 . S
C186 C188 1.405 . S
C186 C194 1.448 . S
C187 H182 0.931 1_455 S
C187 C189 1.397 . S
C187 C190 1.367 . S
C188 C186 1.405 . S
C188 C190 1.403 . S
C188 C221 1.439 . S
C189 H174 0.930 1_455 S
C189 N185 1.319 . S
C189 C187 1.397 . S
C190 C187 1.367 . S
C190 C188 1.403 . S
C190 H197 0.929 . S
N191 Eu156 2.562 . S
N191 C192 1.325 . S
N191 C194 1.351 . S
C192 H178 0.929 . S
C192 N191 1.325 . S
C192 C196 1.416 . S
C193 C194 1.430 . S
C193 C195 1.404 . S
C193 C222 1.387 . S
C194 C186 1.448 . S
C194 N191 1.351 . S
C194 C193 1.430 . S
C195 H184 0.930 . S
C195 C193 1.404 . S
C195 C196 1.366 . S
C196 H175 0.930 . S
C196 C192 1.416 . S
C196 C195 1.366 . S
H197 C190 0.929 . S
H198 C221 0.931 . S
H199 C222 0.931 . S
O200 Eu156 2.462 . S
O200 C220 1.252 . S
O201 Eu156 2.373 . S
O201 C212 1.249 . S
O202 Eu167 2.335 1_455 S
O202 C212 1.264 1_545 S
O203 Eu156 2.432 . S
O203 C220 1.268 . S
O204 Eu156 2.291 1_545 S
O204 C219 1.255 . S
O205 Eu167 2.372 1_455 S
O205 C219 1.257 . S
O206 Eu167 2.462 . S
O206 C231 1.252 . S
O207 Eu167 2.373 . S
O207 C223 1.249 . S
O208 Eu156 2.335 1_645 S
O208 C223 1.264 . S
O209 Eu167 2.432 . S
O209 C231 1.268 . S
O210 Eu167 2.291 1_565 S
O210 C230 1.255 . S
O211 Eu156 2.372 1_655 S
O211 C230 1.257 . S
C212 O201 1.249 . S
C212 O202 1.264 1_565 S
C213 C216 1.382 . S
C213 C218 1.390 . S
C213 C220 1.506 . S
C214 C215 1.398 . S
C214 C218 1.392 . S
C215 C214 1.398 . S
C215 C217 1.372 . S
C215 H232 0.931 . S
C216 C213 1.382 . S
C216 C217 1.390 . S
C216 H233 0.931 . S
C217 C215 1.372 . S
C217 C216 1.390 . S
C217 H234 0.929 . S
C218 C213 1.390 . S
C218 C214 1.392 . S
C218 H235 0.930 . S
C219 O204 1.255 . S
C219 O205 1.257 . S
C220 Eu156 2.787 . S
C220 O200 1.252 . S
C220 O203 1.268 . S
C220 C213 1.506 . S
C221 C188 1.439 . S
C221 H198 0.931 . S
C221 C222 1.374 . S
C222 C193 1.387 . S
C222 H199 0.931 . S
C222 C221 1.374 . S
C223 O207 1.249 . S
C223 O208 1.264 . S
C224 C227 1.382 . S
C224 C228 1.390 . S
C224 C231 1.506 . S
C225 C226 1.398 . S
C225 C228 1.392 . S
C226 C225 1.398 . S
C226 C229 1.372 . S
C226 H236 0.931 . S
C227 C224 1.382 . S
C227 C229 1.390 . S
C227 H237 0.931 . S
C228 C224 1.390 . S
C228 C225 1.392 . S
C228 H238 0.930 . S
C229 C226 1.372 . S
C229 C227 1.390 . S
C229 H239 0.929 . S
C230 O210 1.255 . S
C230 O211 1.257 . S
C231 Eu167 2.787 . S
C231 O206 1.252 . S
C231 O209 1.268 . S
C231 C224 1.506 . S
H232 C215 0.931 . S
H233 C216 0.931 . S
H234 C217 0.929 . S
H235 C218 0.930 . S
H236 C226 0.931 . S
H237 C227 0.931 . S
H238 C228 0.930 . S
H239 C229 0.929 . S
Eu240 N269 2.600 . S
Eu240 N275 2.562 . S
Eu240 O284 2.462 1_554 S
Eu240 O285 2.373 . S
Eu240 O287 2.432 1_554 S
Eu240 O288 2.291 . S
Eu240 O292 2.335 1_554 S
Eu240 O295 2.372 . S
Eu240 C304 2.787 1_554 S
C241 N242 1.365 . S
C241 C244 1.405 . S
C241 C248 1.448 . S
N242 C241 1.365 . S
N242 C245 1.319 . S
N242 Eu251 2.600 . S
C243 C245 1.397 . S
C243 C246 1.367 . S
C243 H263 0.931 . S
C244 C241 1.405 . S
C244 C246 1.403 . S
C244 C250 1.439 . S
C245 N242 1.319 . S
C245 C243 1.397 . S
C245 H256 0.930 . S
C246 C243 1.367 . S
C246 C244 1.403 . S
C246 H267 0.929 . S
C247 C248 1.430 . S
C247 C249 1.387 . S
C247 C253 1.404 . S
C248 C241 1.448 . S
C248 C247 1.430 . S
C248 N252 1.351 . S
C249 C247 1.387 . S
C249 C250 1.374 . S
C249 H264 0.931 . S
C250 C244 1.439 . S
C250 C249 1.374 . S
C250 H265 0.931 . S
Eu251 N242 2.600 . S
Eu251 N252 2.562 . S
Eu251 O286 2.335 . S
Eu251 O289 2.372 . S
Eu251 O290 2.462 . S
Eu251 O291 2.373 . S
Eu251 O293 2.432 . S
Eu251 O294 2.291 . S
Eu251 C315 2.787 . S
N252 C248 1.351 . S
N252 Eu251 2.562 . S
N252 C254 1.325 . S
C253 C247 1.404 . S
C253 C255 1.366 . S
C253 H261 0.930 . S
C254 N252 1.325 . S
C254 C255 1.416 . S
C254 H260 0.929 . S
C255 C253 1.366 . S
C255 C254 1.416 . S
C255 H257 0.930 . S
H256 C245 0.930 . S
H257 C255 0.930 . S
H258 C273 0.930 . S
H259 C280 0.930 . S
H260 C254 0.929 . S
H261 C253 0.930 . S
H262 C276 0.929 . S
H263 C243 0.931 . S
H264 C249 0.931 . S
H265 C250 0.931 . S
H266 C271 0.931 . S
H267 C246 0.929 . S
H268 C279 0.930 . S
N269 Eu240 2.600 . S
N269 C270 1.365 . S
N269 C273 1.319 1_554 S
C270 N269 1.365 . S
C270 C272 1.405 . S
C270 C278 1.448 . S
C271 H266 0.931 . S
C271 C273 1.397 . S
C271 C274 1.367 1_556 S
C272 C270 1.405 . S
C272 C274 1.403 . S
C272 C305 1.439 . S
C273 H258 0.930 . S
C273 N269 1.319 1_556 S
C273 C271 1.397 . S
C274 C271 1.367 1_554 S
C274 C272 1.403 . S
C274 H281 0.929 . S
N275 Eu240 2.562 . S
N275 C276 1.325 . S
N275 C278 1.351 . S
C276 H262 0.929 . S
C276 N275 1.325 . S
C276 C280 1.416 . S
C277 C278 1.430 . S
C277 C279 1.404 . S
C277 C306 1.387 . S
C278 C270 1.448 . S
C278 N275 1.351 . S
C278 C277 1.430 . S
C279 H268 0.930 . S
C279 C277 1.404 . S
C279 C280 1.366 . S
C280 H259 0.930 . S
C280 C276 1.416 . S
C280 C279 1.366 . S
H281 C274 0.929 . S
H282 C305 0.931 . S
H283 C306 0.931 . S
O284 Eu240 2.462 1_556 S
O284 C304 1.252 . S
O285 Eu240 2.373 . S
O285 C296 1.249 . S
O286 Eu251 2.335 . S
O286 C296 1.264 . S
O287 Eu240 2.432 1_556 S
O287 C304 1.268 . S
O288 Eu240 2.291 . S
O288 C303 1.255 . S
O289 Eu251 2.372 . S
O289 C303 1.257 . S
O290 Eu251 2.462 . S
O290 C315 1.252 . S
O291 Eu251 2.373 . S
O291 C307 1.249 1_554 S
O292 Eu240 2.335 1_556 S
O292 C307 1.264 . S
O293 Eu251 2.432 . S
O293 C315 1.268 . S
O294 Eu251 2.291 . S
O294 C314 1.255 . S
O295 Eu240 2.372 . S
O295 C314 1.257 . S
C296 O285 1.249 . S
C296 O286 1.264 . S
C297 C300 1.382 . S
C297 C302 1.390 . S
C297 C304 1.506 . S
C298 C299 1.398 . S
C298 C302 1.392 . S
C299 C298 1.398 . S
C299 C301 1.372 . S
C299 H316 0.931 . S
C300 C297 1.382 . S
C300 C301 1.390 . S
C300 H317 0.931 . S
C301 C299 1.372 . S
C301 C300 1.390 . S
C301 H318 0.929 . S
C302 C297 1.390 . S
C302 C298 1.392 . S
C302 H319 0.930 . S
C303 O288 1.255 . S
C303 O289 1.257 . S
C304 Eu240 2.787 1_556 S
C304 O284 1.252 . S
C304 O287 1.268 . S
C304 C297 1.506 . S
C305 C272 1.439 . S
C305 H282 0.931 . S
C305 C306 1.374 . S
C306 C277 1.387 . S
C306 H283 0.931 . S
C306 C305 1.374 . S
C307 O291 1.249 1_556 S
C307 O292 1.264 . S
C308 C311 1.382 . S
C308 C312 1.390 . S
C308 C315 1.506 . S
C309 C310 1.398 . S
C309 C312 1.392 . S
C310 C309 1.398 . S
C310 C313 1.372 . S
C310 H320 0.931 . S
C311 C308 1.382 . S
C311 C313 1.390 . S
C311 H321 0.931 . S
C312 C308 1.390 . S
C312 C309 1.392 . S
C312 H322 0.930 . S
C313 C310 1.372 . S
C313 C311 1.390 . S
C313 H323 0.929 . S
C314 O294 1.255 . S
C314 O295 1.257 . S
C315 Eu251 2.787 . S
C315 O290 1.252 . S
C315 O293 1.268 . S
C315 C308 1.506 . S
H316 C299 0.931 . S
H317 C300 0.931 . S
H318 C301 0.929 . S
H319 C302 0.930 . S
H320 C310 0.931 . S
H321 C311 0.931 . S
H322 C312 0.930 . S
H323 C313 0.929 . S
C219 C138 2.107 . S
C21 C314 2.126 . S
C60 C230 2.128 . S
C99 C303 2.166 . S
C214 C16 1.588 . S
C307 C40 1.929 . S
C79 C223 2.206 . S
C133 C298 1.540 . S
C309 C55 1.529 . S
C225 C94 1.575 . S
C296 C118 1.916 . S
C1 C212 2.184 . S
