# Generated by pormake.
# Topology pyr, (3,6)-cn, num edge types: 1
# Building blocks:
#     Node 0, Type 0, BuildingBlock: VETTIZ_charged_linker_0, # of connection points: 3
#     Node 1, Type 0, BuildingBlock: VETTIZ_charged_linker_0, # of connection points: 3
#     Node 2, Type 0, BuildingBlock: VETTIZ_charged_linker_0, # of connection points: 3
#     Node 3, Type 0, BuildingBlock: VETTIZ_charged_linker_0, # of connection points: 3
#     Node 4, Type 0, BuildingBlock: VETTIZ_charged_linker_0, # of connection points: 3
#     Node 5, Type 0, BuildingBlock: VETTIZ_charged_linker_0, # of connection points: 3
#     Node 6, Type 0, BuildingBlock: VETTIZ_charged_linker_0, # of connection points: 3
#     Node 7, Type 0, BuildingBlock: VETTIZ_charged_linker_0, # of connection points: 3
#     Node 8, Type 1, BuildingBlock: VOLQOD_clean_sbu_1, # of connection points: 6
#     Node 9, Type 1, BuildingBlock: VOLQOD_clean_sbu_1, # of connection points: 6
#     Node 10, Type 1, BuildingBlock: VOLQOD_clean_sbu_1, # of connection points: 6
#     Node 11, Type 1, BuildingBlock: VOLQOD_clean_sbu_1, # of connection points: 6
#     Edge 12, Type (0, 1), BuildingBlock: XIVTED_clean_linker_0, # of connection points: 2
#     Edge 13, Type (0, 1), BuildingBlock: XIVTED_clean_linker_0, # of connection points: 2
#     Edge 14, Type (0, 1), BuildingBlock: XIVTED_clean_linker_0, # of connection points: 2
#     Edge 15, Type (0, 1), BuildingBlock: XIVTED_clean_linker_0, # of connection points: 2
#     Edge 16, Type (0, 1), BuildingBlock: XIVTED_clean_linker_0, # of connection points: 2
#     Edge 17, Type (0, 1), BuildingBlock: XIVTED_clean_linker_0, # of connection points: 2
#     Edge 18, Type (0, 1), BuildingBlock: XIVTED_clean_linker_0, # of connection points: 2
#     Edge 19, Type (0, 1), BuildingBlock: XIVTED_clean_linker_0, # of connection points: 2
#     Edge 20, Type (0, 1), BuildingBlock: XIVTED_clean_linker_0, # of connection points: 2
#     Edge 21, Type (0, 1), BuildingBlock: XIVTED_clean_linker_0, # of connection points: 2
#     Edge 22, Type (0, 1), BuildingBlock: XIVTED_clean_linker_0, # of connection points: 2
#     Edge 23, Type (0, 1), BuildingBlock: XIVTED_clean_linker_0, # of connection points: 2
#     Edge 24, Type (0, 1), BuildingBlock: XIVTED_clean_linker_0, # of connection points: 2
#     Edge 25, Type (0, 1), BuildingBlock: XIVTED_clean_linker_0, # of connection points: 2
#     Edge 26, Type (0, 1), BuildingBlock: XIVTED_clean_linker_0, # of connection points: 2
#     Edge 27, Type (0, 1), BuildingBlock: XIVTED_clean_linker_0, # of connection points: 2
#     Edge 28, Type (0, 1), BuildingBlock: XIVTED_clean_linker_0, # of connection points: 2
#     Edge 29, Type (0, 1), BuildingBlock: XIVTED_clean_linker_0, # of connection points: 2
#     Edge 30, Type (0, 1), BuildingBlock: XIVTED_clean_linker_0, # of connection points: 2
#     Edge 31, Type (0, 1), BuildingBlock: XIVTED_clean_linker_0, # of connection points: 2
#     Edge 32, Type (0, 1), BuildingBlock: XIVTED_clean_linker_0, # of connection points: 2
#     Edge 33, Type (0, 1), BuildingBlock: XIVTED_clean_linker_0, # of connection points: 2
#     Edge 34, Type (0, 1), BuildingBlock: XIVTED_clean_linker_0, # of connection points: 2
#     Edge 35, Type (0, 1), BuildingBlock: XIVTED_clean_linker_0, # of connection points: 2
# Relax obj value: 0.035
# Max RMSD: 0.119
# Mean RMSD: 0.042
data_MOF--net-pry--node1-VOLQOD_clean_sbu_1--node2-VETTIZ_charged_linker_0--edge1-XIVTED_clean_linker_0
_symmetry_space_group_name_H-M    P1
_symmetry_Int_Tables_number       1
_symmetry_cell_setting            triclinic
loop_
_symmetry_equiv_pos_as_xyz
'x, y, z'
_cell_length_a     45.336249
_cell_length_b     45.32717
_cell_length_c     45.561969
_cell_angle_alpha  90.067321
_cell_angle_beta   89.957686
_cell_angle_gamma 90.143844
loop_
_atom_site_label
_atom_site_type_symbol
_atom_site_fract_x
_atom_site_fract_y
_atom_site_fract_z
_atom_type_partial_charge
C0 C 0.10333 0.09021 0.22615 0.0
C1 C 0.08061 0.10365 0.24228 0.0
C2 C 0.06709 0.12924 0.23116 0.0
C3 C 0.09943 0.1282 0.18881 0.0
C4 C 0.11256 0.10299 0.19971 0.0
C5 C 0.13787 0.09283 0.18092 0.0
H6 H 0.22498 0.11376 0.06206 0.0
C7 C 0.115 0.13653 0.16154 0.0
C8 C 0.13764 0.11598 0.15686 0.0
H9 H 0.23232 0.04664 0.1292 0.0
H10 H 0.18901 0.06548 0.15307 0.0
H11 H 0.21393 0.16533 0.10575 0.0
H12 H 0.15279 0.11225 0.05629 0.0
H13 H 0.14144 0.14924 0.05366 0.0
H14 H 0.17711 0.13874 0.03969 0.0
H15 H 0.2077 0.17133 0.06734 0.0
H16 H 0.18528 0.18888 0.09505 0.0
C17 C 0.16646 0.09424 0.19959 0.0
C18 C 0.13027 0.06176 0.16893 0.0
C19 C 0.08305 0.2276 0.10505 0.0
C20 C 0.09433 0.24198 0.08004 0.0
C21 C 0.11871 0.22941 0.06536 0.0
C22 C 0.13164 0.20328 0.07544 0.0
C23 C 0.12039 0.18954 0.1007 0.0
C24 C 0.0965 0.20173 0.11506 0.0
C25 C 0.08823 0.18475 0.14221 0.0
C26 C 0.11096 0.16022 0.14159 0.0
C27 C 0.12966 0.16309 0.11719 0.0
C28 C 0.09224 0.20536 0.16914 0.0
C29 C 0.0565 0.17271 0.13814 0.0
C30 C 0.21742 0.10313 0.08196 0.0
C31 C 0.23227 0.0785 0.09354 0.0
C32 C 0.22118 0.06525 0.11934 0.0
C33 C 0.1961 0.07643 0.13343 0.0
C34 C 0.18196 0.10138 0.1219 0.0
C35 C 0.19261 0.11425 0.09654 0.0
C36 C 0.17537 0.14123 0.08802 0.0
C37 C 0.15261 0.14237 0.11245 0.0
C38 C 0.15653 0.11893 0.13216 0.0
C39 C 0.1965 0.16819 0.08881 0.0
C40 C 0.16098 0.13537 0.05775 0.0
H41 H 0.06513 0.16101 0.19717 0.0
H42 H 0.11442 0.07081 0.23449 0.0
H43 H 0.10659 0.06041 0.16265 0.0
H44 H 0.14257 0.05612 0.14878 0.0
H45 H 0.13441 0.04453 0.18574 0.0
H46 H 0.16529 0.1122 0.21621 0.0
H47 H 0.17017 0.07322 0.21152 0.0
H48 H 0.18626 0.09955 0.18644 0.0
H49 H 0.0642 0.23629 0.1168 0.0
H50 H 0.12836 0.24013 0.04642 0.0
H51 H 0.15021 0.19504 0.06338 0.0
H52 H 0.1099 0.22199 0.1652 0.0
H53 H 0.07161 0.21755 0.17412 0.0
H54 H 0.09949 0.19345 0.18901 0.0
H55 H 0.0532 0.16461 0.11531 0.0
H56 H 0.05157 0.15361 0.15233 0.0
H57 H 0.0399 0.19021 0.14234 0.0
H58 H 0.04948 0.13985 0.24328 0.0
C59 C 0.07623 0.14147 0.20443 0.0
C60 C 0.29181 0.90133 0.59645 0.0
C61 C 0.27753 0.92595 0.60863 0.0
C62 C 0.29132 0.94159 0.63161 0.0
C63 C 0.33251 0.90759 0.63048 0.0
C64 C 0.31922 0.89271 0.60753 0.0
C65 C 0.33743 0.86722 0.5968 0.0
H66 H 0.45968 0.78318 0.60896 0.0
C67 C 0.3607 0.8927 0.63698 0.0
C68 C 0.36387 0.86926 0.6171 0.0
H69 H 0.38617 0.77251 0.54919 0.0
H70 H 0.36364 0.81621 0.5686 0.0
H71 H 0.46545 0.85385 0.60423 0.0
H72 H 0.41873 0.79781 0.66492 0.0
H73 H 0.43604 0.82588 0.68523 0.0
H74 H 0.45823 0.80054 0.66431 0.0
H75 H 0.48415 0.83301 0.63201 0.0
H76 H 0.46951 0.86928 0.6394 0.0
C77 C 0.34598 0.8732 0.56439 0.0
C78 C 0.31947 0.83848 0.60175 0.0
C79 C 0.42166 0.92532 0.72466 0.0
C80 C 0.44843 0.9154 0.7367 0.0
C81 C 0.46423 0.89311 0.72182 0.0
C82 C 0.45307 0.88027 0.6961 0.0
C83 C 0.42578 0.88971 0.68502 0.0
C84 C 0.41088 0.91232 0.69892 0.0
C85 C 0.38257 0.92006 0.68361 0.0
C86 C 0.38251 0.89776 0.65875 0.0
C87 C 0.40775 0.87987 0.6598 0.0
C88 C 0.38509 0.95219 0.67219 0.0
C89 C 0.35677 0.91479 0.70531 0.0
C90 C 0.43867 0.79014 0.60009 0.0
C91 C 0.42488 0.77421 0.5773 0.0
C92 C 0.39771 0.78449 0.56627 0.0
C93 C 0.38441 0.80981 0.57783 0.0
C94 C 0.39816 0.82504 0.60093 0.0
C95 C 0.42488 0.81523 0.61165 0.0
C96 C 0.43571 0.83371 0.63694 0.0
C97 C 0.41112 0.85629 0.63949 0.0
C98 C 0.38924 0.85104 0.61832 0.0
C99 C 0.46537 0.84816 0.62798 0.0
C100 C 0.43754 0.81362 0.66437 0.0
H101 H 0.3279 0.94509 0.66036 0.0
H102 H 0.28195 0.88914 0.57847 0.0
H103 H 0.3057 0.84009 0.62192 0.0
H104 H 0.33354 0.81897 0.60543 0.0
H105 H 0.30443 0.83402 0.58303 0.0
H106 H 0.34987 0.89716 0.56064 0.0
H107 H 0.32819 0.86603 0.54922 0.0
H108 H 0.36684 0.86249 0.5579 0.0
H109 H 0.40879 0.94224 0.73547 0.0
H110 H 0.48523 0.88547 0.73012 0.0
H111 H 0.466 0.86325 0.68601 0.0
H112 H 0.40843 0.95828 0.66753 0.0
H113 H 0.37649 0.9682 0.68855 0.0
H114 H 0.37356 0.95545 0.65106 0.0
H115 H 0.36012 0.89394 0.71773 0.0
H116 H 0.33524 0.91224 0.69436 0.0
H117 H 0.35517 0.93307 0.72149 0.0
H118 H 0.28063 0.96053 0.64144 0.0
C119 C 0.31869 0.93251 0.64263 0.0
C120 C 0.59607 0.29999 0.94353 0.0
C121 C 0.57217 0.28351 0.93237 0.0
C122 C 0.55698 0.29432 0.90759 0.0
C123 C 0.5902 0.33618 0.90476 0.0
C124 C 0.60475 0.32601 0.92935 0.0
C125 C 0.63077 0.3451 0.9373 0.0
H126 H 0.71919 0.46106 0.90442 0.0
C127 C 0.60564 0.36294 0.89436 0.0
C128 C 0.62943 0.36834 0.91336 0.0
H129 H 0.72905 0.39799 0.97499 0.0
H130 H 0.68356 0.37442 0.96088 0.0
H131 H 0.64745 0.46947 0.91024 0.0
H132 H 0.70377 0.41475 0.85732 0.0
H133 H 0.67412 0.42477 0.83484 0.0
H134 H 0.69817 0.45305 0.84926 0.0
H135 H 0.67004 0.48367 0.8811 0.0
H136 H 0.63338 0.46975 0.87426 0.0
C137 C 0.62512 0.35849 0.96806 0.0
C138 C 0.65905 0.32603 0.9351 0.0
C139 C 0.57243 0.41272 0.80021 0.0
C140 C 0.5839 0.43635 0.78369 0.0
C141 C 0.60806 0.45241 0.79503 0.0
C142 C 0.62097 0.44464 0.82184 0.0
C143 C 0.6099 0.42033 0.83749 0.0
C144 C 0.58583 0.40502 0.82678 0.0
C145 C 0.57759 0.37928 0.84593 0.0
C146 C 0.60085 0.38154 0.86978 0.0
C147 C 0.6197 0.40561 0.8647 0.0
C148 C 0.54617 0.38471 0.85815 0.0
C149 C 0.58082 0.35065 0.8275 0.0
C150 C 0.71171 0.44211 0.91684 0.0
C151 C 0.72802 0.43144 0.94085 0.0
C152 C 0.71692 0.40702 0.95663 0.0
C153 C 0.69057 0.39311 0.94822 0.0
C154 C 0.67518 0.40344 0.92354 0.0
C155 C 0.68569 0.42773 0.90849 0.0
C156 C 0.66711 0.43508 0.88219 0.0
C157 C 0.64371 0.41117 0.88391 0.0
C158 C 0.6485 0.3927 0.90817 0.0
C159 C 0.65385 0.46618 0.88688 0.0
C160 C 0.68663 0.43203 0.85435 0.0
H161 H 0.55347 0.32731 0.87494 0.0
H162 H 0.60806 0.29268 0.96272 0.0
H163 H 0.65703 0.30931 0.91731 0.0
H164 H 0.67885 0.33897 0.92924 0.0
H165 H 0.66323 0.31403 0.95592 0.0
H166 H 0.60154 0.36475 0.97061 0.0
H167 H 0.63047 0.34241 0.98563 0.0
H168 H 0.63764 0.37904 0.97194 0.0
H169 H 0.55365 0.40011 0.79249 0.0
H170 H 0.61769 0.47045 0.78273 0.0
H171 H 0.63952 0.45749 0.829 0.0
H172 H 0.54283 0.40849 0.86322 0.0
H173 H 0.52908 0.37807 0.84196 0.0
H174 H 0.54201 0.37316 0.87908 0.0
H175 H 0.59909 0.35273 0.81129 0.0
H176 H 0.58677 0.33124 0.84083 0.0
H177 H 0.56031 0.34575 0.8151 0.0
H178 H 0.53881 0.28203 0.89813 0.0
C179 C 0.56574 0.32056 0.89389 0.0
C180 C 0.94277 0.70932 0.42716 0.0
C181 C 0.93037 0.72388 0.45143 0.0
C182 C 0.90681 0.7104 0.4666 0.0
C183 C 0.90635 0.67023 0.43136 0.0
C184 C 0.93044 0.68272 0.4175 0.0
C185 C 0.93984 0.66558 0.39085 0.0
H186 H 0.90812 0.56276 0.28877 0.0
C187 C 0.89709 0.64421 0.41402 0.0
C188 C 0.91675 0.6413 0.39037 0.0
H189 H 0.98457 0.61999 0.29355 0.0
H190 H 0.96841 0.63812 0.34048 0.0
H191 H 0.91279 0.54188 0.35729 0.0
H192 H 0.86122 0.60776 0.31292 0.0
H193 H 0.83793 0.58989 0.33813 0.0
H194 H 0.85447 0.56893 0.30884 0.0
H195 H 0.88154 0.53247 0.335 0.0
H196 H 0.8776 0.5415 0.37342 0.0
C197 C 0.97126 0.6533 0.39636 0.0
C198 C 0.93737 0.68622 0.36386 0.0
C199 C 0.80243 0.59001 0.44031 0.0
C200 C 0.78619 0.56752 0.4263 0.0
C201 C 0.7978 0.55471 0.40051 0.0
C202 C 0.82468 0.56437 0.38871 0.0
C203 C 0.84014 0.58738 0.40255 0.0
C204 C 0.82906 0.59967 0.42802 0.0
C205 C 0.8479 0.62469 0.43908 0.0
C206 C 0.87234 0.62506 0.4163 0.0
C207 C 0.86761 0.60321 0.39491 0.0
C208 C 0.85966 0.61638 0.46987 0.0
C209 C 0.8291 0.65322 0.43835 0.0
C210 C 0.92163 0.5789 0.30005 0.0
C211 C 0.94737 0.59037 0.28697 0.0
C212 C 0.9642 0.61137 0.3026 0.0
C213 C 0.95488 0.62181 0.32999 0.0
C214 C 0.92838 0.61124 0.34201 0.0
C215 C 0.91271 0.58949 0.32755 0.0
C216 C 0.88567 0.58012 0.34436 0.0
C217 C 0.88745 0.60033 0.37094 0.0
C218 C 0.91223 0.61884 0.36911 0.0
C219 C 0.88926 0.54724 0.35289 0.0
C220 C 0.85825 0.58674 0.32518 0.0
H221 H 0.87644 0.67478 0.46877 0.0
H222 H 0.96127 0.71883 0.41543 0.0
H223 H 0.91662 0.69925 0.36485 0.0
H224 H 0.93648 0.67434 0.34277 0.0
H225 H 0.95611 0.70204 0.3631 0.0
H226 H 0.97573 0.65054 0.42021 0.0
H227 H 0.98844 0.66831 0.38741 0.0
H228 H 0.97429 0.63098 0.38695 0.0
H229 H 0.7945 0.6002 0.46032 0.0
H230 H 0.78571 0.53772 0.38886 0.0
H231 H 0.83205 0.55395 0.36888 0.0
H232 H 0.86531 0.59252 0.47085 0.0
H233 H 0.84288 0.62076 0.4871 0.0
H234 H 0.88027 0.62808 0.47559 0.0
H235 H 0.81346 0.65292 0.41954 0.0
H236 H 0.84236 0.67338 0.43504 0.0
H237 H 0.81588 0.65564 0.45875 0.0
H238 H 0.89686 0.72118 0.48537 0.0
C239 C 0.8948 0.68361 0.45674 0.0
C240 C 0.94736 0.82957 0.95963 0.0
C241 C 0.97 0.81523 0.94414 0.0
C242 C 0.98375 0.82989 0.92054 0.0
C243 C 0.94999 0.8709 0.9259 0.0
C244 C 0.93759 0.85722 0.95004 0.0
C245 C 0.91159 0.87399 0.96194 0.0
H246 H 0.80761 0.97787 0.94095 0.0
C247 C 0.93241 0.89748 0.91934 0.0
C248 C 0.91 0.89957 0.94047 0.0
H249 H 0.81417 0.9146 0.01155 0.0
H250 H 0.86189 0.89924 0.99388 0.0
H251 H 0.82866 0.93654 0.89189 0.0
H252 H 0.87904 0.99872 0.94308 0.0
H253 H 0.89072 0.00158 0.90636 0.0
H254 H 0.85297 0.01001 0.9157 0.0
H255 H 0.82593 0.97565 0.88643 0.0
H256 H 0.85353 0.95392 0.86799 0.0
C257 C 0.88411 0.85361 0.95994 0.0
C258 C 0.91918 0.88453 0.99341 0.0
C259 C 0.95072 0.95197 0.82408 0.0
C260 C 0.93483 0.97371 0.80886 0.0
C261 C 0.91126 0.98796 0.82324 0.0
C262 C 0.90265 0.97942 0.85161 0.0
C263 C 0.91752 0.95615 0.86561 0.0
C264 C 0.94155 0.94334 0.85206 0.0
C265 C 0.95391 0.91801 0.86931 0.0
C266 C 0.93323 0.91754 0.89546 0.0
C267 C 0.91192 0.93988 0.89321 0.0
C268 C 0.95129 0.88965 0.85025 0.0
C269 C 0.9858 0.92606 0.87852 0.0
C270 C 0.81965 0.96115 0.95293 0.0
C271 C 0.80703 0.94716 0.97746 0.0
C272 C 0.82326 0.92533 0.99231 0.0
C273 C 0.85094 0.91643 0.982 0.0
C274 C 0.86234 0.92914 0.95627 0.0
C275 C 0.84723 0.95176 0.94269 0.0
C276 C 0.86263 0.96234 0.91537 0.0
C277 C 0.88923 0.94204 0.91462 0.0
C278 C 0.88868 0.92238 0.93843 0.0
C279 C 0.84173 0.95713 0.88892 0.0
C280 C 0.87174 0.99494 0.92007 0.0
H281 H 0.98493 0.86745 0.89297 0.0
H282 H 0.93623 0.81872 0.9777 0.0
H283 H 0.94322 0.88892 0.99575 0.0
H284 H 0.9085 0.9057 0.99907 0.0
H285 H 0.91303 0.86765 0.00999 0.0
H286 H 0.88448 0.84051 0.93927 0.0
H287 H 0.88342 0.83784 0.97857 0.0
H288 H 0.86307 0.8657 0.95926 0.0
H289 H 0.9693 0.94092 0.81396 0.0
H290 H 0.89859 0.00477 0.81208 0.0
H291 H 0.88403 0.9905 0.86107 0.0
H292 H 0.93265 0.89118 0.83445 0.0
H293 H 0.9717 0.88582 0.8373 0.0
H294 H 0.94626 0.86971 0.86323 0.0
H295 H 0.98736 0.94975 0.88481 0.0
H296 H 0.99331 0.91376 0.89804 0.0
H297 H 0.00154 0.92225 0.86021 0.0
H298 H 0.00153 0.81942 0.90857 0.0
C299 C 0.97404 0.85775 0.91152 0.0
C300 C 0.69402 0.06826 0.46256 0.0
C301 C 0.7092 0.04385 0.45094 0.0
C302 C 0.69475 0.02569 0.43025 0.0
C303 C 0.65257 0.05838 0.43033 0.0
C304 C 0.6658 0.07498 0.45209 0.0
C305 C 0.64736 0.10103 0.46096 0.0
H306 H 0.53386 0.19213 0.43165 0.0
C307 C 0.62469 0.07298 0.42214 0.0
C308 C 0.62116 0.09764 0.44045 0.0
H309 H 0.60051 0.20077 0.49886 0.0
H310 H 0.61939 0.15253 0.48688 0.0
H311 H 0.51903 0.12161 0.44312 0.0
H312 H 0.57664 0.16777 0.38352 0.0
H313 H 0.55851 0.14002 0.36359 0.0
H314 H 0.53717 0.16874 0.38049 0.0
H315 H 0.50527 0.14063 0.41145 0.0
H316 H 0.51761 0.1028 0.40939 0.0
C317 C 0.63834 0.09714 0.49356 0.0
C318 C 0.6654 0.12941 0.45447 0.0
C319 C 0.57283 0.04269 0.32827 0.0
C320 C 0.54881 0.05458 0.31288 0.0
C321 C 0.53133 0.07632 0.32651 0.0
C322 C 0.53896 0.0875 0.35421 0.0
C323 C 0.56447 0.07703 0.36826 0.0
C324 C 0.58025 0.05418 0.35582 0.0
C325 C 0.60649 0.04554 0.37401 0.0
C326 C 0.60454 0.06783 0.39884 0.0
C327 C 0.58014 0.0865 0.39512 0.0
C328 C 0.60185 0.01351 0.38501 0.0
C329 C 0.63453 0.05002 0.35501 0.0
C330 C 0.5521 0.18326 0.44415 0.0
C331 C 0.56591 0.20021 0.46605 0.0
C332 C 0.5898 0.18816 0.48167 0.0
C333 C 0.60074 0.16019 0.47463 0.0
C334 C 0.58803 0.1443 0.45134 0.0
C335 C 0.56364 0.15549 0.43703 0.0
C336 C 0.55373 0.13592 0.4122 0.0
C337 C 0.57632 0.11126 0.4139 0.0
C338 C 0.59652 0.11652 0.43667 0.0
C339 C 0.52218 0.12471 0.41909 0.0
C340 C 0.55638 0.15386 0.38335 0.0
H341 H 0.657 0.01849 0.40376 0.0
H342 H 0.70435 0.08276 0.47844 0.0
H343 H 0.678 0.12708 0.43363 0.0
H344 H 0.65161 0.14913 0.45126 0.0
H345 H 0.6815 0.13397 0.47228 0.0
H346 H 0.63617 0.07339 0.49937 0.0
H347 H 0.65502 0.107 0.5085 0.0
H348 H 0.61645 0.10666 0.49847 0.0
H349 H 0.58624 0.02549 0.31858 0.0
H350 H 0.51264 0.08576 0.31512 0.0
H351 H 0.52539 0.10469 0.36307 0.0
H352 H 0.57801 0.00777 0.38643 0.0
H353 H 0.61241 0.9973 0.37005 0.0
H354 H 0.61034 0.01023 0.40755 0.0
H355 H 0.63344 0.07134 0.34299 0.0
H356 H 0.65506 0.05102 0.36786 0.0
H357 H 0.63676 0.0321 0.33851 0.0
H358 H 0.70552 0.00626 0.42152 0.0
C359 C 0.66652 0.03276 0.42 0.0
C360 C 0.45233 0.5635 0.19593 0.0
C361 C 0.43789 0.53941 0.20908 0.0
C362 C 0.41476 0.52531 0.19386 0.0
C363 C 0.41877 0.56097 0.15451 0.0
C364 C 0.44236 0.57394 0.16876 0.0
C365 C 0.45355 0.60083 0.15288 0.0
H366 H 0.43378 0.70266 0.04656 0.0
C367 C 0.41221 0.57865 0.12811 0.0
C368 C 0.43271 0.60185 0.1268 0.0
H369 H 0.49908 0.70218 0.11559 0.0
H370 H 0.48269 0.65388 0.13095 0.0
H371 H 0.3817 0.67878 0.08612 0.0
H372 H 0.4408 0.63325 0.02754 0.0
H373 H 0.40597 0.61657 0.02388 0.0
H374 H 0.41062 0.65495 0.01417 0.0
H375 H 0.38093 0.68347 0.04699 0.0
H376 H 0.36079 0.65429 0.06461 0.0
C377 C 0.4497 0.62784 0.17349 0.0
C378 C 0.48575 0.59492 0.14324 0.0
C379 C 0.31848 0.55834 0.07095 0.0
C380 C 0.3051 0.57245 0.04702 0.0
C381 C 0.32081 0.59446 0.03176 0.0
C382 C 0.34872 0.60366 0.0415 0.0
C383 C 0.3609 0.59079 0.06681 0.0
C384 C 0.34631 0.56772 0.08036 0.0
C385 C 0.36278 0.55616 0.10652 0.0
C386 C 0.38916 0.57682 0.10712 0.0
C387 C 0.3877 0.59738 0.08413 0.0
C388 C 0.3428 0.56001 0.13391 0.0
C389 C 0.37195 0.52386 0.10007 0.0
C390 C 0.44489 0.69184 0.0646 0.0
C391 C 0.46763 0.7062 0.08 0.0
C392 C 0.48129 0.69163 0.10364 0.0
C393 C 0.47172 0.66361 0.11251 0.0
C394 C 0.44788 0.65021 0.09794 0.0
C395 C 0.43525 0.66404 0.07405 0.0
C396 C 0.40941 0.64705 0.06197 0.0
C397 C 0.40845 0.62088 0.08274 0.0
C398 C 0.43095 0.62295 0.10385 0.0
C399 C 0.38165 0.66677 0.0648 0.0
C400 C 0.41678 0.63754 0.03015 0.0
H401 H 0.38718 0.52449 0.1564 0.0
H402 H 0.46998 0.57497 0.20722 0.0
H403 H 0.48856 0.57156 0.13627 0.0
H404 H 0.49244 0.60813 0.12398 0.0
H405 H 0.5014 0.59917 0.16152 0.0
H406 H 0.42984 0.62526 0.18765 0.0
H407 H 0.46907 0.63057 0.18817 0.0
H408 H 0.44593 0.64866 0.16157 0.0
H409 H 0.30705 0.54098 0.08273 0.0
H410 H 0.3109 0.60553 0.01317 0.0
H411 H 0.35927 0.62116 0.02959 0.0
H412 H 0.33098 0.58148 0.13309 0.0
H413 H 0.32594 0.54222 0.1351 0.0
H414 H 0.35511 0.56047 0.15474 0.0
H415 H 0.37505 0.52008 0.07612 0.0
H416 H 0.39347 0.51813 0.10994 0.0
H417 H 0.35493 0.50802 0.10784 0.0
H418 H 0.40359 0.50645 0.20339 0.0
C419 C 0.40528 0.53582 0.16658 0.0
C420 C 0.05259 0.32109 0.57769 0.0
C421 C 0.06437 0.30565 0.5536 0.0
C422 C 0.08636 0.31937 0.5364 0.0
C423 C 0.08719 0.36121 0.56949 0.0
C424 C 0.06424 0.34873 0.58515 0.0
C425 C 0.0555 0.36716 0.61117 0.0
H426 H 0.08609 0.4796 0.70355 0.0
C427 C 0.09642 0.38843 0.58486 0.0
C428 C 0.0776 0.39229 0.60904 0.0
H429 H 0.01555 0.41559 0.70933 0.0
H430 H 0.02937 0.39541 0.66227 0.0
H431 H 0.07923 0.49296 0.63086 0.0
H432 H 0.13284 0.43666 0.68467 0.0
H433 H 0.15525 0.44746 0.65528 0.0
H434 H 0.14114 0.47509 0.68009 0.0
H435 H 0.10776 0.50646 0.6547 0.0
H436 H 0.1157 0.49488 0.61764 0.0
C437 C 0.02343 0.37792 0.60644 0.0
C438 C 0.0601 0.34839 0.63924 0.0
C439 C 0.19229 0.43887 0.55597 0.0
C440 C 0.20899 0.46132 0.5693 0.0
C441 C 0.19684 0.4771 0.59304 0.0
C442 C 0.16889 0.46988 0.60407 0.0
C443 C 0.15314 0.44624 0.59162 0.0
C444 C 0.16463 0.43151 0.56763 0.0
C445 C 0.14549 0.40606 0.55819 0.0
C446 C 0.12081 0.40773 0.5807 0.0
C447 C 0.12547 0.43127 0.60025 0.0
C448 C 0.13421 0.41224 0.52671 0.0
C449 C 0.16385 0.3774 0.56124 0.0
C450 C 0.07326 0.46169 0.69427 0.0
C451 C 0.04976 0.44908 0.71003 0.0
C452 C 0.03388 0.42545 0.69758 0.0
C453 C 0.04197 0.41376 0.6703 0.0
C454 C 0.06655 0.42547 0.65552 0.0
C455 C 0.08138 0.44944 0.6672 0.0
C456 C 0.10768 0.45814 0.64898 0.0
C457 C 0.10608 0.43553 0.62438 0.0
C458 C 0.08208 0.41635 0.6285 0.0
C459 C 0.10264 0.48985 0.63749 0.0
C460 C 0.13578 0.45443 0.66808 0.0
H461 H 0.11491 0.35601 0.53059 0.0
H462 H 0.03574 0.31127 0.59144 0.0
H463 H 0.08031 0.33463 0.63729 0.0
H464 H 0.06358 0.36173 0.65918 0.0
H465 H 0.04114 0.33328 0.64298 0.0
H466 H 0.01855 0.38092 0.58269 0.0
H467 H 0.00721 0.3618 0.61526 0.0
H468 H 0.01931 0.39981 0.61634 0.0
H469 H 0.20128 0.42616 0.53792 0.0
H470 H 0.20929 0.49466 0.60344 0.0
H471 H 0.16106 0.48238 0.62249 0.0
H472 H 0.13126 0.43631 0.52299 0.0
H473 H 0.15 0.40403 0.50996 0.0
H474 H 0.11221 0.40251 0.52255 0.0
H475 H 0.17744 0.37802 0.58156 0.0
H476 H 0.15029 0.35732 0.5633 0.0
H477 H 0.17906 0.37463 0.54232 0.0
H478 H 0.09529 0.30835 0.51726 0.0
C479 C 0.09772 0.34707 0.54414 0.0
O480 O 0.99193 0.07998 0.53859 0.0
Zn481 Zn 0.97619 0.03801 0.53905 0.0
O482 O 0.0022 0.01113 0.51727 0.0
Zn483 Zn 0.9828 0.99713 0.48158 0.0
Zn484 Zn 0.03828 0.03192 0.50672 0.0
Zn485 Zn 0.01192 0.97724 0.54165 0.0
O486 O 0.98143 0.95274 0.48014 0.0
O487 O 0.99718 0.93913 0.52419 0.0
O488 O 0.93528 0.03748 0.52153 0.0
O489 O 0.9406 0.01055 0.48108 0.0
O490 O 0.00309 0.01206 0.44496 0.0
O491 O 0.04245 0.03499 0.46297 0.0
O492 O 0.07443 0.01236 0.52344 0.0
O493 O 0.9724 0.02537 0.58148 0.0
O494 O 0.05578 0.97345 0.54654 0.0
O495 O 0.9948 0.98185 0.58196 0.0
C496 C 0.01719 0.09021 0.53157 0.0
C497 C 0.98664 0.93277 0.49907 0.0
C498 C 0.02681 0.02672 0.44127 0.0
C499 C 0.92464 0.02581 0.49837 0.0
C500 C 0.07779 0.98901 0.53858 0.0
C501 C 0.9804 0.00211 0.59496 0.0
O502 O 0.03704 0.07366 0.52073 0.0
O503 O 0.50421 0.06489 0.9882 0.0
Zn504 Zn 0.48824 0.02334 0.99144 0.0
O505 O 0.51205 -0.0003 0.01866 0.0
Zn506 Zn 0.53007 0.96671 0.99774 0.0
Zn507 Zn 0.54318 0.02435 0.03567 0.0
Zn508 Zn 0.48693 0.98405 0.04997 0.0
O509 O 0.51766 0.92764 0.0146 0.0
O510 O 0.48767 0.9396 0.0512 0.0
O511 O 0.48793 0.00507 0.95073 0.0
O512 O 0.51776 0.96658 0.95553 0.0
O513 O 0.57439 0.9686 -0.00049 0.0
O514 O 0.58353 0.0088 0.02586 0.0
O515 O 0.53972 0.02608 0.07976 0.0
O516 O 0.44615 0.0265 0.0058 0.0
O517 O 0.50033 0.99856 0.08951 0.0
O518 O 0.44497 0.99727 0.0449 0.0
C519 C 0.5252 0.07851 0.00099 0.0
C520 C 0.50087 0.92027 0.03576 0.0
C521 C 0.59248 0.98651 0.01139 0.0
C522 C 0.50095 0.98263 0.93992 0.0
C523 C 0.52159 0.01486 0.09801 0.0
C524 C 0.43217 0.01452 0.02696 0.0
O525 O 0.54147 0.06568 0.01981 0.0
O526 O 0.53075 0.50342 0.5647 0.0
Zn527 Zn 0.52703 0.519 0.52351 0.0
O528 O 0.50177 0.49352 0.49954 0.0
Zn529 Zn 0.52524 0.47632 0.46784 0.0
Zn530 Zn 0.48536 0.46197 0.52394 0.0
Zn531 Zn 0.46952 0.51679 0.48297 0.0
O532 O 0.50851 0.48691 0.42816 0.0
O533 O 0.46978 0.51486 0.4389 0.0
O534 O 0.56797 0.52232 0.50637 0.0
O535 O 0.56714 0.491 0.46888 0.0
O536 O 0.52622 0.43207 0.47107 0.0
O537 O 0.49561 0.42183 0.5078 0.0
O538 O 0.44118 0.46519 0.52712 0.0
O539 O 0.51034 0.55985 0.52629 0.0
O540 O 0.42997 0.50185 0.49684 0.0
O541 O 0.47225 0.55947 0.49569 0.0
C542 C 0.51953 0.48133 0.57791 0.0
C543 C 0.48644 0.50228 0.42019 0.0
C544 C 0.51289 0.41351 0.48737 0.0
C545 C 0.58077 0.50948 0.48501 0.0
C546 C 0.42222 0.48173 0.51476 0.0
C547 C 0.48909 0.57298 0.51364 0.0
O548 O 0.50193 0.46375 0.56487 0.0
O549 O 0.98402 0.51321 0.06688 0.0
Zn550 Zn 0.98647 0.49608 0.02609 0.0
O551 O 0.0107 0.52057 2e-05 0.0
Zn552 Zn 0.98676 0.53629 0.96783 0.0
Zn553 Zn 0.02724 0.55313 0.02275 0.0
Zn554 Zn 0.04272 0.49687 0.9836 0.0
O555 O 0.00198 0.52286 0.92835 0.0
O556 O 0.03928 0.49343 0.93985 0.0
O557 O 0.94504 0.4926 0.01044 0.0
O558 O 0.94485 0.52144 0.97101 0.0
O559 O 0.98684 0.58088 0.9679 0.0
O560 O 0.01528 0.59223 0.00595 0.0
O561 O 0.0715 0.55164 0.0229 0.0
O562 O 0.00351 0.4552 0.03011 0.0
O563 O 0.08256 0.51447 0.99309 0.0
O564 O 0.04201 0.4557 -5e-05 0.0
C565 C 0.99605 0.53556 0.07892 0.0
C566 C 0.02254 0.50531 0.92085 0.0
C567 C -0.00071 0.59995 0.98435 0.0
C568 C 0.93166 0.50405 0.98869 0.0
C569 C 0.09042 0.53573 0.00965 0.0
C570 C 0.02546 0.44237 0.01824 0.0
O571 O 0.01322 0.55247 0.06454 0.0
H572 H 0.07697 0.13385 0.29377 0.0
H573 H 0.01005 0.00281 0.38837 0.0
H574 H 0.0653 0.04701 0.25675 0.0
H575 H 0.06299 0.0724 0.42625 0.0
H576 H 0.02322 0.02086 0.33922 0.0
H577 H 0.06427 0.11415 0.34221 0.0
C578 C 0.0715 0.11066 0.29588 0.0
C579 C 0.07211 0.09198 0.27137 0.0
C580 C 0.03201 0.03198 0.35837 0.0
C581 C 0.05752 0.06938 0.32647 0.0
C582 C 0.02448 0.02178 0.38635 0.0
C583 C 0.03549 0.03609 0.41142 0.0
C584 C 0.05008 0.05701 0.35556 0.0
C585 C 0.05414 0.06057 0.40755 0.0
C586 C 0.06448 0.09942 0.32347 0.0
C587 C 0.06516 0.06204 0.27524 0.0
N588 N 0.0606 0.07042 0.38017 0.0
N589 N 0.05792 0.05164 0.30231 0.0
H590 H 0.445 0.97231 0.75784 0.0
H591 H 0.52023 0.93312 0.91154 0.0
H592 H 0.47582 0.88536 0.78121 0.0
H593 H 0.47 0.0127 0.89748 0.0
H594 H 0.5099 0.91812 0.86126 0.0
H595 H 0.45942 0.99 0.80652 0.0
C596 C 0.45479 0.95691 0.77313 0.0
C597 C 0.45905 0.9272 0.76533 0.0
C598 C 0.50118 0.9389 0.86912 0.0
C599 C 0.47599 0.94751 0.82093 0.0
C600 C 0.50713 0.94756 0.89787 0.0
C601 C 0.49583 0.97419 0.9089 0.0
C602 C 0.48392 0.957 0.85107 0.0
C603 C 0.47903 0.99193 0.89 0.0
C604 C 0.46311 0.9671 0.80087 0.0
C605 C 0.47243 0.9085 0.78594 0.0
N606 N 0.47354 0.983 0.862 0.0
N607 N 0.48034 0.91895 0.81275 0.0
H608 H 0.56355 0.39765 0.7419 0.0
H609 H 0.54775 0.51846 0.61633 0.0
H610 H 0.57702 0.49072 0.75764 0.0
H611 H 0.50928 0.43142 0.6102 0.0
H612 H 0.56151 0.50816 0.66717 0.0
H613 H 0.54589 0.40909 0.69275 0.0
C614 C 0.56246 0.42054 0.73525 0.0
C615 C 0.57181 0.44324 0.75412 0.0
C616 C 0.54993 0.49139 0.65471 0.0
C617 C 0.55225 0.45639 0.69737 0.0
C618 C 0.54217 0.4972 0.62565 0.0
C619 C 0.52739 0.47574 0.60892 0.0
C620 C 0.54321 0.4638 0.66703 0.0
C621 C 0.52061 0.44863 0.62225 0.0
C622 C 0.55254 0.42702 0.70704 0.0
C623 C 0.57052 0.47242 0.74379 0.0
N624 N 0.52875 0.44338 0.65044 0.0
N625 N 0.5611 0.47814 0.71606 0.0
H626 H 0.97079 0.62535 0.24383 0.0
H627 H 0.96599 0.50172 0.11907 0.0
H628 H 0.94317 0.53568 0.26068 0.0
H629 H 0.0116 0.58498 0.10983 0.0
H630 H 0.9551 0.5142 0.17021 0.0
H631 H 0.98385 0.6113 0.19395 0.0
C632 C 0.96778 0.60259 0.23721 0.0
C633 C 0.956 0.58164 0.25669 0.0
C634 C 0.96758 0.52965 0.15698 0.0
C635 C 0.97034 0.56555 0.19909 0.0
C636 C 0.97375 0.5226 0.12776 0.0
C637 C 0.9897 0.54236 0.11007 0.0
C638 C 0.9772 0.55676 0.1685 0.0
C639 C -0.00074 0.56904 0.12259 0.0
C640 C 0.97508 0.59463 0.20859 0.0
C641 C 0.95187 0.55267 0.24641 0.0
N642 N 0.99274 0.57549 0.15096 0.0
N643 N 0.95896 0.5455 0.21829 0.0
H644 H 0.25169 0.02113 0.08891 0.0
H645 H 0.40162 0.06218 0.00608 0.0
H646 H 0.27614 0.1105 0.06639 0.0
H647 H 0.39149 0.9843 0.05965 0.0
H648 H 0.35118 0.07666 0.0188 0.0
H649 H 0.2989 0.00409 0.06944 0.0
C650 C 0.26688 0.03721 0.07992 0.0
C651 C 0.25987 0.06741 0.07964 0.0
C652 C 0.35999 0.0563 0.02756 0.0
C653 C 0.31368 0.04781 0.05664 0.0
C654 C 0.38869 0.04794 0.0202 0.0
C655 C 0.40086 0.0221 0.03202 0.0
C656 C 0.34324 0.03849 0.04649 0.0
C657 C 0.38309 0.00454 0.05028 0.0
C658 C 0.29376 0.0274 0.06864 0.0
C659 C 0.28026 0.087 0.06686 0.0
N660 N 0.35518 0.01307 0.05698 0.0
N661 N 0.30623 0.07687 0.05595 0.0
H662 H 0.22991 0.89077 0.59734 0.0
H663 H 0.12907 0.0212 0.53596 0.0
H664 H 0.25851 0.98159 0.59499 0.0
H665 H 0.0948 0.93613 0.56188 0.0
H666 H 0.17808 0.00592 0.5524 0.0
H667 H 0.18154 0.90593 0.57918 0.0
C668 C 0.22601 0.9139 0.59285 0.0
C669 C 0.24819 0.93498 0.59766 0.0
C670 C 0.1598 0.99064 0.55447 0.0
C671 C 0.19295 0.95248 0.57694 0.0
C672 C 0.13185 0.99928 0.54498 0.0
C673 C 0.10776 0.97994 0.54761 0.0
C674 C 0.16374 0.96236 0.56635 0.0
C675 C 0.11268 0.95184 0.55956 0.0
C676 C 0.19838 0.92255 0.58266 0.0
C677 C 0.24189 0.96469 0.59181 0.0
N678 N 0.14011 0.94388 0.56841 0.0
N679 N 0.21486 0.97257 0.58164 0.0
H680 H 0.7701 0.4533 0.90329 0.0
H681 H 0.89315 0.47569 0.02564 0.0
H682 H 0.75281 0.4396 0.99555 0.0
H683 H 0.89909 0.51389 0.93904 0.0
H684 H 0.8426 0.46014 0.01484 0.0
H685 H 0.81823 0.47363 0.91572 0.0
C686 C 0.77617 0.45488 0.92621 0.0
C687 C 0.75713 0.44473 0.94839 0.0
C688 C 0.85493 0.47211 0.9983 0.0
C689 C 0.81284 0.46741 0.96269 0.0
C690 C 0.88381 0.48092 0.0044 0.0
C691 C 0.90047 0.49602 0.98316 0.0
C692 C 0.84272 0.47808 0.97064 0.0
C693 C 0.88713 0.50231 0.95609 0.0
C694 C 0.80382 0.46636 0.93326 0.0
C695 C 0.76681 0.4467 0.97764 0.0
N696 N 0.85915 0.49309 0.95052 0.0
N697 N 0.79404 0.45765 0.98392 0.0
H698 H 0.74365 0.60213 0.45205 0.0
H699 H 0.61923 0.47853 0.45039 0.0
H700 H 0.76114 0.51207 0.4263 0.0
H701 H 0.61328 0.55674 0.50426 0.0
H702 H 0.67009 0.49173 0.43814 0.0
H703 H 0.69476 0.5871 0.46866 0.0
C704 C 0.73746 0.57912 0.45018 0.0
C705 C 0.75675 0.55837 0.43767 0.0
C706 C 0.65769 0.50588 0.45278 0.0
C707 C 0.70028 0.54124 0.45603 0.0
C708 C 0.62862 0.49845 0.4597 0.0
C709 C 0.61193 0.51661 0.47833 0.0
C710 C 0.67004 0.5319 0.4642 0.0
C711 C 0.62533 0.54207 0.48985 0.0
C712 C 0.7094 0.57062 0.45954 0.0
C713 C 0.74696 0.529 0.43526 0.0
N714 N 0.65352 0.54909 0.4824 0.0
N715 N 0.71936 0.52137 0.44415 0.0
H716 H 0.08811 0.26211 0.02334 0.0
H717 H 0.00789 0.41219 0.0673 0.0
H718 H 0.07107 0.28699 0.11337 0.0
H719 H 0.05927 0.40269 0.98804 0.0
H720 H 0.02238 0.36225 0.08179 0.0
H721 H 0.06946 0.31003 0.00751 0.0
C722 C 0.08055 0.27756 0.03984 0.0
C723 C 0.08145 0.27039 0.06983 0.0
C724 C 0.03034 0.37113 0.06119 0.0
C725 C 0.05933 0.32501 0.05163 0.0
C726 C 0.022 0.39952 0.05284 0.0
C727 C 0.03254 0.41167 0.0265 0.0
C728 C 0.04894 0.35461 0.04285 0.0
C729 C 0.05084 0.39428 0.00864 0.0
C730 C 0.06975 0.30485 0.03071 0.0
C731 C 0.07051 0.29118 0.09001 0.0
N732 N 0.05842 0.36659 0.01712 0.0
N733 N 0.05991 0.31751 0.08054 0.0
H734 H 0.5168 0.25911 0.93886 0.0
H735 H 0.57434 0.11107 0.01429 0.0
H736 H 0.60887 0.2414 0.9556 0.0
H737 H 0.49021 0.11701 0.97031 0.0
H738 H 0.585 0.16191 -2e-05 0.0
H739 H 0.50455 0.2099 0.95712 0.0
C740 C 0.53447 0.24496 0.94632 0.0
C741 C 0.56399 0.25452 0.94545 0.0
C742 C 0.56419 0.15208 0.99353 0.0
C743 C 0.54992 0.19833 0.96692 0.0
C744 C 0.55802 0.12309 0.00176 0.0
C745 C 0.53138 0.10967 0.99336 0.0
C746 C 0.54347 0.16794 0.97704 0.0
C747 C 0.51111 0.12638 0.9771 0.0
C748 C 0.5274 0.21691 0.95686 0.0
C749 C 0.58578 0.23532 0.95615 0.0
N750 N 0.51756 0.15467 0.96949 0.0
N751 N 0.57831 0.20818 0.96639 0.0
H752 H 0.94082 0.74689 0.50638 0.0
H753 H 0.97104 0.90969 0.44575 0.0
H754 H 0.94238 0.76957 0.41443 0.0
H755 H 0.98649 0.88486 0.53592 0.0
H756 H 0.95863 0.85858 0.43445 0.0
H757 H 0.95567 0.79759 0.51835 0.0
C758 C 0.94434 0.76251 0.48874 0.0
C759 C 0.9405 0.75398 0.45937 0.0
C760 C 0.96483 0.86426 0.4567 0.0
C761 C 0.95735 0.81185 0.47283 0.0
C762 C 0.97187 0.8935 0.46319 0.0
C763 C 0.97981 0.90164 0.49185 0.0
C764 C 0.96547 0.84294 0.47903 0.0
C765 C 0.98055 0.8796 0.5135 0.0
C766 C 0.95293 0.79136 0.49556 0.0
C767 C 0.94551 0.77505 0.43735 0.0
N768 N 0.97333 0.85127 0.50668 0.0
N769 N 0.95353 0.80299 0.44454 0.0
H770 H 0.42433 0.75271 0.52072 0.0
H771 H 0.51147 0.60501 0.55944 0.0
H772 H 0.455 0.73166 0.60798 0.0
H773 H 0.45279 0.61198 0.48515 0.0
H774 H 0.49876 0.6554 0.57351 0.0
H775 H 0.44215 0.70481 0.50369 0.0
C776 C 0.43478 0.73811 0.53634 0.0
C777 C 0.43786 0.74628 0.56597 0.0
C778 C 0.48879 0.64592 0.55407 0.0
C779 C 0.45889 0.69168 0.54633 0.0
C780 C 0.49611 0.6172 0.54592 0.0
C781 C 0.48302 0.60415 0.52116 0.0
C782 C 0.46851 0.66189 0.53717 0.0
C783 C 0.46323 0.62106 0.50453 0.0
C784 C 0.44507 0.71084 0.52652 0.0
C785 C 0.45236 0.72663 0.58491 0.0
N786 N 0.45656 0.64908 0.51285 0.0
N787 N 0.46227 0.70026 0.57478 0.0
H788 H 0.93462 0.02674 0.77898 0.0
H789 H 0.98773 0.95286 0.62853 0.0
H790 H 0.94912 0.93341 0.76669 0.0
H791 H 0.95674 0.04278 0.63325 0.0
H792 H 0.97656 0.94681 0.68034 0.0
H793 H 0.94499 0.03448 0.72664 0.0
C794 C 0.93995 0.00791 0.76534 0.0
C795 C 0.94135 0.97943 0.7774 0.0
C796 C 0.97211 0.96788 0.6701 0.0
C797 C 0.95337 0.98814 0.71773 0.0
C798 C 0.97855 0.97138 0.64045 0.0
C799 C 0.97316 0.99838 0.62644 0.0
C800 C 0.9603 0.99156 0.68611 0.0
C801 C 0.96117 0.02154 0.64313 0.0
C802 C 0.94593 0.01235 0.73553 0.0
C803 C 0.94851 0.95587 0.75867 0.0
N804 N 0.95521 0.01763 0.67216 0.0
N805 N 0.9543 0.96078 0.72991 0.0
H806 H 0.49648 0.04167 0.28509 0.0
H807 H 0.56967 0.0386 0.12569 0.0
H808 H 0.59004 0.0501 0.26969 0.0
H809 H 0.48247 0.00401 0.14271 0.0
H810 H 0.576 0.04715 0.1782 0.0
H811 H 0.48937 0.03151 0.2326 0.0
C812 C 0.51549 0.04125 0.27068 0.0
C813 C 0.5439 0.04655 0.28173 0.0
C814 C 0.5555 0.03763 0.17045 0.0
C815 C 0.53595 0.03532 0.22191 0.0
C816 C 0.55181 0.03287 0.14044 0.0
C817 C 0.52551 0.02053 0.12975 0.0
C818 C 0.53262 0.03034 0.18995 0.0
C819 C 0.50317 0.01346 0.14998 0.0
C820 C 0.51145 0.03539 0.24082 0.0
C821 C 0.56781 0.0457 0.26217 0.0
N822 N 0.50718 0.01858 0.17912 0.0
N823 N 0.56328 0.04039 0.23321 0.0
H824 H 0.39956 0.52827 0.25379 0.0
H825 H 0.52295 0.49171 0.37324 0.0
H826 H 0.49255 0.53124 0.23376 0.0
H827 H 0.43488 0.52043 0.39512 0.0
H828 H 0.51143 0.49847 0.32109 0.0
H829 H 0.41145 0.51706 0.30483 0.0
C830 C 0.4225 0.52617 0.26008 0.0
C831 C 0.44513 0.53064 0.23954 0.0
C832 C 0.49469 0.50324 0.33738 0.0
C833 C 0.45887 0.5181 0.29797 0.0
C834 C 0.50118 0.49931 0.3671 0.0
C835 C 0.47987 0.50564 0.38858 0.0
C836 C 0.46657 0.51311 0.32913 0.0
C837 C 0.45206 0.51548 0.37935 0.0
C838 C 0.42926 0.52004 0.28925 0.0
C839 C 0.47448 0.52814 0.24899 0.0
N840 N 0.44619 0.51881 0.35034 0.0
N841 N 0.48054 0.52198 0.27758 0.0
H842 H 0.04164 0.50527 0.73104 0.0
H843 H 0.04986 0.45688 0.89814 0.0
H844 H 0.04493 0.41422 0.75822 0.0
H845 H 0.00428 0.53625 0.87238 0.0
H846 H 0.0554 0.44372 0.84646 0.0
H847 H 0.03431 0.51989 0.78259 0.0
C848 C 0.04068 0.48842 0.74787 0.0
C849 C 0.04369 0.45852 0.7405 0.0
C850 C 0.04416 0.464 0.85214 0.0
C851 C 0.03594 0.47499 0.79905 0.0
C852 C 0.04114 0.47163 0.8816 0.0
C853 C 0.02654 0.49769 0.88956 0.0
C854 C 0.03298 0.48279 0.83041 0.0
C855 C 0.01555 0.51588 0.86717 0.0
C856 C 0.03643 0.49673 0.77713 0.0
C857 C 0.04234 0.43748 0.763 0.0
N858 N 0.01916 0.50818 0.83852 0.0
N859 N 0.03884 0.44613 0.7913 0.0
H860 H 0.76392 0.90708 0.98962 0.0
H861 H 0.63779 0.02558 0.02082 0.0
H862 H 0.77955 0.00081 0.98351 0.0
H863 H 0.62015 0.93558 0.99495 0.0
H864 H 0.6907 0.01641 0.01477 0.0
H865 H 0.71197 0.91676 -0.00015 0.0
C866 C 0.75647 0.92974 0.99085 0.0
C867 C 0.77605 0.9532 0.98579 0.0
C868 C 0.67518 0.99872 0.01046 0.0
C869 C 0.71657 0.96441 0.99718 0.0
C870 C 0.64503 0.00388 0.01399 0.0
C871 C 0.62451 0.98132 0.00828 0.0
C872 C 0.68487 0.97071 0.00161 0.0
C873 C 0.63514 0.95366 -0.00059 0.0
C874 C 0.72678 0.93522 0.99641 0.0
C875 C 0.7651 0.98211 0.98713 0.0
N876 N 0.66458 0.94911 0.99645 0.0
N877 N 0.73603 0.98693 0.99276 0.0
H878 H 0.75383 0.02571 0.41468 0.0
H879 H 0.88135 0.04953 0.53334 0.0
H880 H 0.73659 0.05096 0.5045 0.0
H881 H 0.89522 0.00888 0.44867 0.0
H882 H 0.82859 0.05254 0.5226 0.0
H883 H 0.80591 0.02069 0.42651 0.0
C884 C 0.76086 0.02979 0.43702 0.0
C885 C 0.74064 0.03872 0.45863 0.0
C886 C 0.84322 0.04295 0.50641 0.0
C887 C 0.80064 0.03374 0.47214 0.0
C888 C 0.87337 0.04136 0.51245 0.0
C889 C 0.89281 0.02894 0.49187 0.0
C890 C 0.83244 0.03225 0.47952 0.0
C891 C 0.88112 0.01859 0.46523 0.0
C892 C 0.79073 0.02717 0.4437 0.0
C893 C 0.75137 0.0444 0.48702 0.0
N894 N 0.85175 0.02053 0.45983 0.0
N895 N 0.78065 0.04194 0.49292 0.0
H896 H 0.28026 0.56004 0.99333 0.0
H897 H 0.11575 0.56737 0.05397 0.0
H898 H 0.25898 0.57146 0.08492 0.0
H899 H 0.13733 0.5179 0.97583 0.0
H900 H 0.1682 0.57629 0.06212 0.0
H901 H 0.22764 0.55113 0.98306 0.0
C902 C 0.2645 0.56062 0.0112 0.0
C903 C 0.27386 0.56623 0.04002 0.0
C904 C 0.16144 0.56348 0.04319 0.0
C905 C 0.21411 0.55664 0.02847 0.0
C906 C 0.13151 0.55849 0.03843 0.0
C907 C 0.12215 0.54176 0.01423 0.0
C908 C 0.18222 0.55207 0.0234 0.0
C909 C 0.14362 0.53074 0.99488 0.0
C910 C 0.23463 0.55546 0.00538 0.0
C911 C 0.25268 0.56681 0.06246 0.0
N912 N 0.17273 0.53621 -0.0002 0.0
N913 N 0.22379 0.56227 0.05619 0.0
H914 H 0.23094 0.46953 0.51377 0.0
H915 H 0.39846 0.45496 0.56303 0.0
H916 H 0.25738 0.46357 0.60447 0.0
H917 H 0.37411 0.50056 0.48355 0.0
H918 H 0.34627 0.45092 0.57597 0.0
H919 H 0.28309 0.4747 0.49969 0.0
C920 C 0.24774 0.46946 0.53066 0.0
C921 C 0.23996 0.46634 0.56031 0.0
C922 C 0.35239 0.46181 0.5557 0.0
C923 C 0.29927 0.47161 0.54443 0.0
C924 C 0.38214 0.46397 0.54821 0.0
C925 C 0.39065 0.47818 0.5222 0.0
C926 C 0.33094 0.47349 0.53684 0.0
C927 C 0.36851 0.48957 0.50389 0.0
C928 C 0.27737 0.47246 0.52266 0.0
C929 C 0.26248 0.46631 0.58141 0.0
N930 N 0.33961 0.48683 0.51148 0.0
N931 N 0.29113 0.46864 0.57305 0.0
H932 H 0.97964 0.7896 0.99781 0.0
H933 H 0.97827 0.62566 0.93417 0.0
H934 H 0.97569 0.76993 0.90523 0.0
H935 H 0.01156 0.6467 0.02049 0.0
H936 H 0.97277 0.67838 0.92436 0.0
H937 H 0.98753 0.73702 0.00782 0.0
C938 C 0.98062 0.77422 0.97962 0.0
C939 C 0.97717 0.78407 0.95066 0.0
C940 C 0.98135 0.67142 0.94541 0.0
C941 C 0.98574 0.72411 0.9619 0.0
C942 C 0.98435 0.64134 0.95109 0.0
C943 C 0.99541 0.63174 0.97819 0.0
C944 C 0.98909 0.69206 0.96712 0.0
C945 C 0.00305 0.6531 -0.00075 0.0
C946 C 0.98517 0.7443 0.98531 0.0
C947 C 0.97864 0.76329 0.92785 0.0
N948 N -0.0004 0.68226 0.99333 0.0
N949 N 0.98258 0.73426 0.93397 0.0
H950 H 0.4782 0.7307 0.02599 0.0
H951 H 0.47845 0.89583 0.08599 0.0
H952 H 0.47369 0.75218 0.11814 0.0
H953 H 0.514 0.87261 0.00112 0.0
H954 H 0.47209 0.8434 0.09687 0.0
H955 H 0.48736 0.78293 0.01506 0.0
C956 C 0.4793 0.74642 0.04389 0.0
C957 C 0.47531 0.73718 0.073 0.0
C958 C 0.48137 0.84981 0.07591 0.0
C959 C 0.48535 0.79675 0.06071 0.0
C960 C 0.48487 0.87972 0.06962 0.0
C961 C 0.49678 0.88863 0.0426 0.0
C962 C 0.48943 0.82863 0.05489 0.0
C963 C 0.50483 0.86674 0.02227 0.0
C964 C 0.48459 0.77613 0.03768 0.0
C965 C 0.477 0.75836 0.09542 0.0
N966 N 0.50084 0.83774 0.02876 0.0
N967 N 0.48165 0.7872 0.08879 0.0
H968 H 0.00922 0.28012 0.55785 0.0
H969 H 0.06956 0.11832 0.52176 0.0
H970 H 0.09999 0.25986 0.5375 0.0
H971 H 0.97976 0.13488 0.5488 0.0
H972 H 0.08004 0.17073 0.5256 0.0
H973 H 0.99693 0.22772 0.55255 0.0
C974 C 0.02654 0.26472 0.55217 0.0
C975 C 0.0557 0.2745 0.54805 0.0
C976 C 0.05802 0.16299 0.53075 0.0
C977 C 0.04175 0.21459 0.54191 0.0
C978 C 0.05199 0.13296 0.52858 0.0
C979 C 0.02369 0.12207 0.53499 0.0
C980 C 0.03565 0.18252 0.53934 0.0
C981 C 0.0019 0.14226 0.54372 0.0
C982 C 0.01949 0.23483 0.5491 0.0
C983 C 0.07713 0.25356 0.54039 0.0
N984 N 0.00833 0.17155 0.54561 0.0
N985 N 0.06974 0.22467 0.53767 0.0
H986 H 0.60228 0.24786 0.4671 0.0
H987 H 0.47984 0.36647 0.50654 0.0
H988 H 0.51058 0.22338 0.4744 0.0
H989 H 0.55974 0.38812 0.45955 0.0
H990 H 0.49188 0.31392 0.50162 0.0
H991 H 0.58848 0.29972 0.47191 0.0
C992 C 0.57925 0.25345 0.47005 0.0
C993 C 0.55751 0.2314 0.47052 0.0
C994 C 0.50661 0.33026 0.49229 0.0
C995 C 0.54159 0.2906 0.47588 0.0
C996 C 0.49984 0.36019 0.49514 0.0
C997 C 0.51883 0.3817 0.48343 0.0
C998 C 0.53283 0.32191 0.4782 0.0
C999 C 0.5444 0.37232 0.46881 0.0
C1000 C 0.57138 0.28301 0.47251 0.0
C1001 C 0.52794 0.23982 0.4739 0.0
N1002 N 0.55078 0.34314 0.46685 0.0
N1003 N 0.5208 0.26884 0.47664 0.0
loop_
_geom_bond_atom_site_label_1
_geom_bond_atom_site_label_2
_geom_bond_distance
_geom_bond_site_symmetry_2
_ccdc_geom_bond_type
C0 C1 1.391 . S
C0 C4 1.391 . S
C0 H42 0.948 . S
C1 C0 1.391 . S
C1 C2 1.391 . S
C2 C1 1.391 . S
C2 H58 0.947 . S
C2 C59 1.392 . S
C3 C4 1.391 . S
C3 C7 1.397 . S
C3 C59 1.419 . S
C4 C0 1.391 . S
C4 C3 1.391 . S
C4 C5 1.399 . S
C5 C4 1.399 . S
C5 C8 1.396 . S
C5 C17 1.453 . S
C5 C18 1.684 . S
H6 C30 0.948 . S
C7 C3 1.397 . S
C7 C8 1.394 . S
C7 C26 1.723 . S
C8 C5 1.396 . S
C8 C7 1.394 . S
C8 C38 1.723 . S
H9 C32 0.947 . S
H10 C33 0.948 . S
H11 C39 0.982 . S
H12 C40 0.979 . S
H13 C40 0.980 . S
H14 C40 0.983 . S
H15 C39 0.979 . S
H16 C39 0.977 . S
C17 C5 1.453 . S
C17 H46 0.982 . S
C17 H47 0.979 . S
C17 H48 0.977 . S
C18 C5 1.684 . S
C18 H43 0.979 . S
C18 H44 0.980 . S
C18 H45 0.983 . S
C19 C20 1.391 . S
C19 C24 1.391 . S
C19 H49 0.948 . S
C20 C19 1.391 . S
C20 C21 1.391 . S
C21 C20 1.391 . S
C21 C22 1.392 . S
C21 H50 0.947 . S
C22 C21 1.392 . S
C22 C23 1.419 . S
C22 H51 0.948 . S
C23 C22 1.419 . S
C23 C24 1.391 . S
C23 C27 1.397 . S
C24 C19 1.391 . S
C24 C23 1.391 . S
C24 C25 1.399 . S
C25 C24 1.399 . S
C25 C26 1.396 . S
C25 C28 1.453 . S
C25 C29 1.684 . S
C26 C7 1.723 . S
C26 C25 1.396 . S
C26 C27 1.394 . S
C27 C23 1.397 . S
C27 C26 1.394 . S
C27 C37 1.723 . S
C28 C25 1.453 . S
C28 H52 0.982 . S
C28 H53 0.979 . S
C28 H54 0.977 . S
C29 C25 1.684 . S
C29 H55 0.979 . S
C29 H56 0.980 . S
C29 H57 0.983 . S
C30 H6 0.948 . S
C30 C31 1.391 . S
C30 C35 1.391 . S
C31 C30 1.391 . S
C31 C32 1.391 . S
C32 H9 0.947 . S
C32 C31 1.391 . S
C32 C33 1.392 . S
C33 H10 0.948 . S
C33 C32 1.392 . S
C33 C34 1.419 . S
C34 C33 1.419 . S
C34 C35 1.391 . S
C34 C38 1.397 . S
C35 C30 1.391 . S
C35 C34 1.391 . S
C35 C36 1.399 . S
C36 C35 1.399 . S
C36 C37 1.396 . S
C36 C39 1.453 . S
C36 C40 1.684 . S
C37 C27 1.723 . S
C37 C36 1.396 . S
C37 C38 1.394 . S
C38 C8 1.723 . S
C38 C34 1.397 . S
C38 C37 1.394 . S
C39 H11 0.982 . S
C39 H15 0.979 . S
C39 H16 0.977 . S
C39 C36 1.453 . S
C40 H12 0.979 . S
C40 H13 0.980 . S
C40 H14 0.983 . S
C40 C36 1.684 . S
H41 C59 0.948 . S
H42 C0 0.948 . S
H43 C18 0.979 . S
H44 C18 0.980 . S
H45 C18 0.983 . S
H46 C17 0.982 . S
H47 C17 0.979 . S
H48 C17 0.977 . S
H49 C19 0.948 . S
H50 C21 0.947 . S
H51 C22 0.948 . S
H52 C28 0.982 . S
H53 C28 0.979 . S
H54 C28 0.977 . S
H55 C29 0.979 . S
H56 C29 0.980 . S
H57 C29 0.983 . S
H58 C2 0.947 . S
C59 C2 1.392 . S
C59 C3 1.419 . S
C59 H41 0.948 . S
C60 C61 1.391 . S
C60 C64 1.391 . S
C60 H102 0.948 . S
C61 C60 1.391 . S
C61 C62 1.391 . S
C62 C61 1.391 . S
C62 H118 0.947 . S
C62 C119 1.392 . S
C63 C64 1.391 . S
C63 C67 1.397 . S
C63 C119 1.419 . S
C64 C60 1.391 . S
C64 C63 1.391 . S
C64 C65 1.399 . S
C65 C64 1.399 . S
C65 C68 1.396 . S
C65 C77 1.453 . S
C65 C78 1.684 . S
H66 C90 0.948 . S
C67 C63 1.397 . S
C67 C68 1.394 . S
C67 C86 1.723 . S
C68 C65 1.396 . S
C68 C67 1.394 . S
C68 C98 1.723 . S
H69 C92 0.947 . S
H70 C93 0.948 . S
H71 C99 0.982 . S
H72 C100 0.979 . S
H73 C100 0.980 . S
H74 C100 0.983 . S
H75 C99 0.979 . S
H76 C99 0.977 . S
C77 C65 1.453 . S
C77 H106 0.982 . S
C77 H107 0.979 . S
C77 H108 0.977 . S
C78 C65 1.684 . S
C78 H103 0.979 . S
C78 H104 0.980 . S
C78 H105 0.983 . S
C79 C80 1.391 . S
C79 C84 1.391 . S
C79 H109 0.948 . S
C80 C79 1.391 . S
C80 C81 1.391 . S
C81 C80 1.391 . S
C81 C82 1.392 . S
C81 H110 0.947 . S
C82 C81 1.392 . S
C82 C83 1.419 . S
C82 H111 0.948 . S
C83 C82 1.419 . S
C83 C84 1.391 . S
C83 C87 1.397 . S
C84 C79 1.391 . S
C84 C83 1.391 . S
C84 C85 1.399 . S
C85 C84 1.399 . S
C85 C86 1.396 . S
C85 C88 1.453 . S
C85 C89 1.684 . S
C86 C67 1.723 . S
C86 C85 1.396 . S
C86 C87 1.394 . S
C87 C83 1.397 . S
C87 C86 1.394 . S
C87 C97 1.723 . S
C88 C85 1.453 . S
C88 H112 0.982 . S
C88 H113 0.979 . S
C88 H114 0.977 . S
C89 C85 1.684 . S
C89 H115 0.979 . S
C89 H116 0.980 . S
C89 H117 0.983 . S
C90 H66 0.948 . S
C90 C91 1.391 . S
C90 C95 1.391 . S
C91 C90 1.391 . S
C91 C92 1.391 . S
C92 H69 0.947 . S
C92 C91 1.391 . S
C92 C93 1.392 . S
C93 H70 0.948 . S
C93 C92 1.392 . S
C93 C94 1.419 . S
C94 C93 1.419 . S
C94 C95 1.391 . S
C94 C98 1.397 . S
C95 C90 1.391 . S
C95 C94 1.391 . S
C95 C96 1.399 . S
C96 C95 1.399 . S
C96 C97 1.396 . S
C96 C99 1.453 . S
C96 C100 1.684 . S
C97 C87 1.723 . S
C97 C96 1.396 . S
C97 C98 1.394 . S
C98 C68 1.723 . S
C98 C94 1.397 . S
C98 C97 1.394 . S
C99 H71 0.982 . S
C99 H75 0.979 . S
C99 H76 0.977 . S
C99 C96 1.453 . S
C100 H72 0.979 . S
C100 H73 0.980 . S
C100 H74 0.983 . S
C100 C96 1.684 . S
H101 C119 0.948 . S
H102 C60 0.948 . S
H103 C78 0.979 . S
H104 C78 0.980 . S
H105 C78 0.983 . S
H106 C77 0.982 . S
H107 C77 0.979 . S
H108 C77 0.977 . S
H109 C79 0.948 . S
H110 C81 0.947 . S
H111 C82 0.948 . S
H112 C88 0.982 . S
H113 C88 0.979 . S
H114 C88 0.977 . S
H115 C89 0.979 . S
H116 C89 0.980 . S
H117 C89 0.983 . S
H118 C62 0.947 . S
C119 C62 1.392 . S
C119 C63 1.419 . S
C119 H101 0.948 . S
C120 C121 1.391 . S
C120 C124 1.391 . S
C120 H162 0.948 . S
C121 C120 1.391 . S
C121 C122 1.391 . S
C122 C121 1.391 . S
C122 H178 0.947 . S
C122 C179 1.392 . S
C123 C124 1.391 . S
C123 C127 1.397 . S
C123 C179 1.419 . S
C124 C120 1.391 . S
C124 C123 1.391 . S
C124 C125 1.399 . S
C125 C124 1.399 . S
C125 C128 1.396 . S
C125 C137 1.453 . S
C125 C138 1.684 . S
H126 C150 0.948 . S
C127 C123 1.397 . S
C127 C128 1.394 . S
C127 C146 1.723 . S
C128 C125 1.396 . S
C128 C127 1.394 . S
C128 C158 1.723 . S
H129 C152 0.947 . S
H130 C153 0.948 . S
H131 C159 0.982 . S
H132 C160 0.979 . S
H133 C160 0.980 . S
H134 C160 0.983 . S
H135 C159 0.979 . S
H136 C159 0.977 . S
C137 C125 1.453 . S
C137 H166 0.982 . S
C137 H167 0.979 . S
C137 H168 0.977 . S
C138 C125 1.684 . S
C138 H163 0.979 . S
C138 H164 0.980 . S
C138 H165 0.983 . S
C139 C140 1.391 . S
C139 C144 1.391 . S
C139 H169 0.948 . S
C140 C139 1.391 . S
C140 C141 1.391 . S
C141 C140 1.391 . S
C141 C142 1.392 . S
C141 H170 0.947 . S
C142 C141 1.392 . S
C142 C143 1.419 . S
C142 H171 0.948 . S
C143 C142 1.419 . S
C143 C144 1.391 . S
C143 C147 1.397 . S
C144 C139 1.391 . S
C144 C143 1.391 . S
C144 C145 1.399 . S
C145 C144 1.399 . S
C145 C146 1.396 . S
C145 C148 1.453 . S
C145 C149 1.684 . S
C146 C127 1.723 . S
C146 C145 1.396 . S
C146 C147 1.394 . S
C147 C143 1.397 . S
C147 C146 1.394 . S
C147 C157 1.723 . S
C148 C145 1.453 . S
C148 H172 0.982 . S
C148 H173 0.979 . S
C148 H174 0.977 . S
C149 C145 1.684 . S
C149 H175 0.979 . S
C149 H176 0.980 . S
C149 H177 0.983 . S
C150 H126 0.948 . S
C150 C151 1.391 . S
C150 C155 1.391 . S
C151 C150 1.391 . S
C151 C152 1.391 . S
C152 H129 0.947 . S
C152 C151 1.391 . S
C152 C153 1.392 . S
C153 H130 0.948 . S
C153 C152 1.392 . S
C153 C154 1.419 . S
C154 C153 1.419 . S
C154 C155 1.391 . S
C154 C158 1.397 . S
C155 C150 1.391 . S
C155 C154 1.391 . S
C155 C156 1.399 . S
C156 C155 1.399 . S
C156 C157 1.396 . S
C156 C159 1.453 . S
C156 C160 1.684 . S
C157 C147 1.723 . S
C157 C156 1.396 . S
C157 C158 1.394 . S
C158 C128 1.723 . S
C158 C154 1.397 . S
C158 C157 1.394 . S
C159 H131 0.982 . S
C159 H135 0.979 . S
C159 H136 0.977 . S
C159 C156 1.453 . S
C160 H132 0.979 . S
C160 H133 0.980 . S
C160 H134 0.983 . S
C160 C156 1.684 . S
H161 C179 0.948 . S
H162 C120 0.948 . S
H163 C138 0.979 . S
H164 C138 0.980 . S
H165 C138 0.983 . S
H166 C137 0.982 . S
H167 C137 0.979 . S
H168 C137 0.977 . S
H169 C139 0.948 . S
H170 C141 0.947 . S
H171 C142 0.948 . S
H172 C148 0.982 . S
H173 C148 0.979 . S
H174 C148 0.977 . S
H175 C149 0.979 . S
H176 C149 0.980 . S
H177 C149 0.983 . S
H178 C122 0.947 . S
C179 C122 1.392 . S
C179 C123 1.419 . S
C179 H161 0.948 . S
C180 C181 1.391 . S
C180 C184 1.391 . S
C180 H222 0.948 . S
C181 C180 1.391 . S
C181 C182 1.391 . S
C182 C181 1.391 . S
C182 H238 0.947 . S
C182 C239 1.392 . S
C183 C184 1.391 . S
C183 C187 1.397 . S
C183 C239 1.419 . S
C184 C180 1.391 . S
C184 C183 1.391 . S
C184 C185 1.399 . S
C185 C184 1.399 . S
C185 C188 1.396 . S
C185 C197 1.453 . S
C185 C198 1.684 . S
H186 C210 0.948 . S
C187 C183 1.397 . S
C187 C188 1.394 . S
C187 C206 1.723 . S
C188 C185 1.396 . S
C188 C187 1.394 . S
C188 C218 1.723 . S
H189 C212 0.947 . S
H190 C213 0.948 . S
H191 C219 0.982 . S
H192 C220 0.979 . S
H193 C220 0.980 . S
H194 C220 0.983 . S
H195 C219 0.979 . S
H196 C219 0.977 . S
C197 C185 1.453 . S
C197 H226 0.982 . S
C197 H227 0.979 . S
C197 H228 0.977 . S
C198 C185 1.684 . S
C198 H223 0.979 . S
C198 H224 0.980 . S
C198 H225 0.983 . S
C199 C200 1.391 . S
C199 C204 1.391 . S
C199 H229 0.948 . S
C200 C199 1.391 . S
C200 C201 1.391 . S
C201 C200 1.391 . S
C201 C202 1.392 . S
C201 H230 0.947 . S
C202 C201 1.392 . S
C202 C203 1.419 . S
C202 H231 0.948 . S
C203 C202 1.419 . S
C203 C204 1.391 . S
C203 C207 1.397 . S
C204 C199 1.391 . S
C204 C203 1.391 . S
C204 C205 1.399 . S
C205 C204 1.399 . S
C205 C206 1.396 . S
C205 C208 1.453 . S
C205 C209 1.684 . S
C206 C187 1.723 . S
C206 C205 1.396 . S
C206 C207 1.394 . S
C207 C203 1.397 . S
C207 C206 1.394 . S
C207 C217 1.723 . S
C208 C205 1.453 . S
C208 H232 0.982 . S
C208 H233 0.979 . S
C208 H234 0.977 . S
C209 C205 1.684 . S
C209 H235 0.979 . S
C209 H236 0.980 . S
C209 H237 0.983 . S
C210 H186 0.948 . S
C210 C211 1.391 . S
C210 C215 1.391 . S
C211 C210 1.391 . S
C211 C212 1.391 . S
C212 H189 0.947 . S
C212 C211 1.391 . S
C212 C213 1.392 . S
C213 H190 0.948 . S
C213 C212 1.392 . S
C213 C214 1.419 . S
C214 C213 1.419 . S
C214 C215 1.391 . S
C214 C218 1.397 . S
C215 C210 1.391 . S
C215 C214 1.391 . S
C215 C216 1.399 . S
C216 C215 1.399 . S
C216 C217 1.396 . S
C216 C219 1.453 . S
C216 C220 1.684 . S
C217 C207 1.723 . S
C217 C216 1.396 . S
C217 C218 1.394 . S
C218 C188 1.723 . S
C218 C214 1.397 . S
C218 C217 1.394 . S
C219 H191 0.982 . S
C219 H195 0.979 . S
C219 H196 0.977 . S
C219 C216 1.453 . S
C220 H192 0.979 . S
C220 H193 0.980 . S
C220 H194 0.983 . S
C220 C216 1.684 . S
H221 C239 0.948 . S
H222 C180 0.948 . S
H223 C198 0.979 . S
H224 C198 0.980 . S
H225 C198 0.983 . S
H226 C197 0.982 . S
H227 C197 0.979 . S
H228 C197 0.977 . S
H229 C199 0.948 . S
H230 C201 0.947 . S
H231 C202 0.948 . S
H232 C208 0.982 . S
H233 C208 0.979 . S
H234 C208 0.977 . S
H235 C209 0.979 . S
H236 C209 0.980 . S
H237 C209 0.983 . S
H238 C182 0.947 . S
C239 C182 1.392 . S
C239 C183 1.419 . S
C239 H221 0.948 . S
C240 C241 1.391 . S
C240 C244 1.391 . S
C240 H282 0.948 . S
C241 C240 1.391 . S
C241 C242 1.391 . S
C242 C241 1.391 . S
C242 H298 0.947 . S
C242 C299 1.392 . S
C243 C244 1.391 . S
C243 C247 1.397 . S
C243 C299 1.419 . S
C244 C240 1.391 . S
C244 C243 1.391 . S
C244 C245 1.399 . S
C245 C244 1.399 . S
C245 C248 1.396 . S
C245 C257 1.453 . S
C245 C258 1.721 . S
H246 C270 0.948 1_545 S
C247 C243 1.397 . S
C247 C248 1.394 . S
C247 C266 1.723 . S
C248 C245 1.396 . S
C248 C247 1.394 . S
C248 C278 1.723 . S
H249 C272 0.945 . S
H250 C273 0.948 . S
H251 C279 0.982 . S
H252 C280 0.979 . S
H253 C280 0.980 . S
H254 C280 0.983 . S
H255 C279 0.979 . S
H256 C279 0.977 . S
C257 C245 1.453 . S
C257 H286 0.982 . S
C257 H287 0.979 . S
C257 H288 0.977 . S
C258 C245 1.721 . S
C258 H283 0.967 1_556 S
C258 H284 0.977 1_556 S
C258 H285 0.962 1_556 S
C259 C260 1.391 . S
C259 C264 1.391 . S
C259 H289 0.948 . S
C260 C259 1.391 . S
C260 C261 1.391 . S
C261 C260 1.391 . S
C261 C262 1.392 . S
C261 H290 0.947 1_565 S
C262 C261 1.392 . S
C262 C263 1.419 . S
C262 H291 0.948 . S
C263 C262 1.419 . S
C263 C264 1.391 . S
C263 C267 1.397 . S
C264 C259 1.391 . S
C264 C263 1.391 . S
C264 C265 1.399 . S
C265 C264 1.399 . S
C265 C266 1.396 . S
C265 C268 1.453 . S
C265 C269 1.684 . S
C266 C247 1.723 . S
C266 C265 1.396 . S
C266 C267 1.394 . S
C267 C263 1.397 . S
C267 C266 1.394 . S
C267 C277 1.723 . S
C268 C265 1.453 . S
C268 H292 0.982 . S
C268 H293 0.979 . S
C268 H294 0.977 . S
C269 C265 1.684 . S
C269 H295 0.979 . S
C269 H296 0.980 . S
C269 H297 0.981 . S
C270 H246 0.948 1_565 S
C270 C271 1.391 . S
C270 C275 1.391 . S
C271 C270 1.391 . S
C271 C272 1.391 . S
C272 H249 0.945 . S
C272 C271 1.391 . S
C272 C273 1.392 . S
C273 H250 0.948 . S
C273 C272 1.392 . S
C273 C274 1.419 . S
C274 C273 1.419 . S
C274 C275 1.391 . S
C274 C278 1.397 . S
C275 C270 1.391 . S
C275 C274 1.391 . S
C275 C276 1.399 . S
C276 C275 1.399 . S
C276 C277 1.396 . S
C276 C279 1.453 . S
C276 C280 1.684 1_565 S
C277 C267 1.723 . S
C277 C276 1.396 . S
C277 C278 1.394 . S
C278 C248 1.723 . S
C278 C274 1.397 . S
C278 C277 1.394 . S
C279 H251 0.982 . S
C279 H255 0.979 . S
C279 H256 0.977 . S
C279 C276 1.453 . S
C280 H252 0.979 . S
C280 H253 0.980 . S
C280 H254 0.983 . S
C280 C276 1.684 1_545 S
H281 C299 0.948 . S
H282 C240 0.948 . S
H283 C258 0.967 1_554 S
H284 C258 0.977 1_554 S
H285 C258 0.962 1_554 S
H286 C257 0.982 . S
H287 C257 0.979 . S
H288 C257 0.977 . S
H289 C259 0.948 . S
H290 C261 0.947 1_545 S
H291 C262 0.948 . S
H292 C268 0.982 . S
H293 C268 0.979 . S
H294 C268 0.977 . S
H295 C269 0.979 . S
H296 C269 0.980 . S
H297 C269 0.981 . S
H298 C242 0.947 . S
C299 C242 1.392 . S
C299 C243 1.419 . S
C299 H281 0.948 . S
C300 C301 1.391 . S
C300 C304 1.391 . S
C300 H342 0.948 . S
C301 C300 1.391 . S
C301 C302 1.391 . S
C302 C301 1.391 . S
C302 H358 0.947 . S
C302 C359 1.392 . S
C303 C304 1.391 . S
C303 C307 1.397 . S
C303 C359 1.419 . S
C304 C300 1.391 . S
C304 C303 1.391 . S
C304 C305 1.399 . S
C305 C304 1.399 . S
C305 C308 1.396 . S
C305 C317 1.453 . S
C305 C318 1.684 . S
H306 C330 0.948 . S
C307 C303 1.397 . S
C307 C308 1.394 . S
C307 C326 1.723 . S
C308 C305 1.396 . S
C308 C307 1.394 . S
C308 C338 1.723 . S
H309 C332 0.947 . S
H310 C333 0.948 . S
H311 C339 0.982 . S
H312 C340 0.979 . S
H313 C340 0.980 . S
H314 C340 0.983 . S
H315 C339 0.979 . S
H316 C339 0.977 . S
C317 C305 1.453 . S
C317 H346 0.982 . S
C317 H347 0.979 . S
C317 H348 0.977 . S
C318 C305 1.684 . S
C318 H343 0.979 . S
C318 H344 0.980 . S
C318 H345 0.983 . S
C319 C320 1.391 . S
C319 C324 1.391 . S
C319 H349 0.948 . S
C320 C319 1.391 . S
C320 C321 1.391 . S
C321 C320 1.391 . S
C321 C322 1.392 . S
C321 H350 0.947 . S
C322 C321 1.392 . S
C322 C323 1.419 . S
C322 H351 0.948 . S
C323 C322 1.419 . S
C323 C324 1.391 . S
C323 C327 1.397 . S
C324 C319 1.391 . S
C324 C323 1.391 . S
C324 C325 1.399 . S
C325 C324 1.399 . S
C325 C326 1.396 . S
C325 C328 1.453 . S
C325 C329 1.684 . S
C326 C307 1.723 . S
C326 C325 1.396 . S
C326 C327 1.394 . S
C327 C323 1.397 . S
C327 C326 1.394 . S
C327 C337 1.723 . S
C328 C325 1.453 . S
C328 H352 0.982 . S
C328 H353 0.979 1_545 S
C328 H354 0.977 . S
C329 C325 1.684 . S
C329 H355 0.979 . S
C329 H356 0.980 . S
C329 H357 0.983 . S
C330 H306 0.948 . S
C330 C331 1.391 . S
C330 C335 1.391 . S
C331 C330 1.391 . S
C331 C332 1.391 . S
C332 H309 0.947 . S
C332 C331 1.391 . S
C332 C333 1.392 . S
C333 H310 0.948 . S
C333 C332 1.392 . S
C333 C334 1.419 . S
C334 C333 1.419 . S
C334 C335 1.391 . S
C334 C338 1.397 . S
C335 C330 1.391 . S
C335 C334 1.391 . S
C335 C336 1.399 . S
C336 C335 1.399 . S
C336 C337 1.396 . S
C336 C339 1.453 . S
C336 C340 1.684 . S
C337 C327 1.723 . S
C337 C336 1.396 . S
C337 C338 1.394 . S
C338 C308 1.723 . S
C338 C334 1.397 . S
C338 C337 1.394 . S
C339 H311 0.982 . S
C339 H315 0.979 . S
C339 H316 0.977 . S
C339 C336 1.453 . S
C340 H312 0.979 . S
C340 H313 0.980 . S
C340 H314 0.983 . S
C340 C336 1.684 . S
H341 C359 0.948 . S
H342 C300 0.948 . S
H343 C318 0.979 . S
H344 C318 0.980 . S
H345 C318 0.983 . S
H346 C317 0.982 . S
H347 C317 0.979 . S
H348 C317 0.977 . S
H349 C319 0.948 . S
H350 C321 0.947 . S
H351 C322 0.948 . S
H352 C328 0.982 . S
H353 C328 0.979 1_565 S
H354 C328 0.977 . S
H355 C329 0.979 . S
H356 C329 0.980 . S
H357 C329 0.983 . S
H358 C302 0.947 . S
C359 C302 1.392 . S
C359 C303 1.419 . S
C359 H341 0.948 . S
C360 C361 1.391 . S
C360 C364 1.391 . S
C360 H402 0.948 . S
C361 C360 1.391 . S
C361 C362 1.391 . S
C362 C361 1.391 . S
C362 H418 0.947 . S
C362 C419 1.392 . S
C363 C364 1.391 . S
C363 C367 1.397 . S
C363 C419 1.419 . S
C364 C360 1.391 . S
C364 C363 1.391 . S
C364 C365 1.399 . S
C365 C364 1.399 . S
C365 C368 1.396 . S
C365 C377 1.453 . S
C365 C378 1.684 . S
H366 C390 0.948 . S
C367 C363 1.397 . S
C367 C368 1.394 . S
C367 C386 1.723 . S
C368 C365 1.396 . S
C368 C367 1.394 . S
C368 C398 1.723 . S
H369 C392 0.947 . S
H370 C393 0.948 . S
H371 C399 0.982 . S
H372 C400 0.979 . S
H373 C400 0.980 . S
H374 C400 0.983 . S
H375 C399 0.979 . S
H376 C399 0.977 . S
C377 C365 1.453 . S
C377 H406 0.982 . S
C377 H407 0.979 . S
C377 H408 0.977 . S
C378 C365 1.684 . S
C378 H403 0.979 . S
C378 H404 0.980 . S
C378 H405 0.983 . S
C379 C380 1.391 . S
C379 C384 1.391 . S
C379 H409 0.948 . S
C380 C379 1.391 . S
C380 C381 1.391 . S
C381 C380 1.391 . S
C381 C382 1.392 . S
C381 H410 0.947 . S
C382 C381 1.392 . S
C382 C383 1.419 . S
C382 H411 0.948 . S
C383 C382 1.419 . S
C383 C384 1.391 . S
C383 C387 1.397 . S
C384 C379 1.391 . S
C384 C383 1.391 . S
C384 C385 1.399 . S
C385 C384 1.399 . S
C385 C386 1.396 . S
C385 C388 1.453 . S
C385 C389 1.684 . S
C386 C367 1.723 . S
C386 C385 1.396 . S
C386 C387 1.394 . S
C387 C383 1.397 . S
C387 C386 1.394 . S
C387 C397 1.723 . S
C388 C385 1.453 . S
C388 H412 0.982 . S
C388 H413 0.979 . S
C388 H414 0.977 . S
C389 C385 1.684 . S
C389 H415 0.979 . S
C389 H416 0.980 . S
C389 H417 0.983 . S
C390 H366 0.948 . S
C390 C391 1.391 . S
C390 C395 1.391 . S
C391 C390 1.391 . S
C391 C392 1.391 . S
C392 H369 0.947 . S
C392 C391 1.391 . S
C392 C393 1.392 . S
C393 H370 0.948 . S
C393 C392 1.392 . S
C393 C394 1.419 . S
C394 C393 1.419 . S
C394 C395 1.391 . S
C394 C398 1.397 . S
C395 C390 1.391 . S
C395 C394 1.391 . S
C395 C396 1.399 . S
C396 C395 1.399 . S
C396 C397 1.396 . S
C396 C399 1.453 . S
C396 C400 1.684 . S
C397 C387 1.723 . S
C397 C396 1.396 . S
C397 C398 1.394 . S
C398 C368 1.723 . S
C398 C394 1.397 . S
C398 C397 1.394 . S
C399 H371 0.982 . S
C399 H375 0.979 . S
C399 H376 0.977 . S
C399 C396 1.453 . S
C400 H372 0.979 . S
C400 H373 0.980 . S
C400 H374 0.983 . S
C400 C396 1.684 . S
H401 C419 0.948 . S
H402 C360 0.948 . S
H403 C378 0.979 . S
H404 C378 0.980 . S
H405 C378 0.983 . S
H406 C377 0.982 . S
H407 C377 0.979 . S
H408 C377 0.977 . S
H409 C379 0.948 . S
H410 C381 0.947 . S
H411 C382 0.948 . S
H412 C388 0.982 . S
H413 C388 0.979 . S
H414 C388 0.977 . S
H415 C389 0.979 . S
H416 C389 0.980 . S
H417 C389 0.983 . S
H418 C362 0.947 . S
C419 C362 1.392 . S
C419 C363 1.419 . S
C419 H401 0.948 . S
C420 C421 1.391 . S
C420 C424 1.391 . S
C420 H462 0.948 . S
C421 C420 1.391 . S
C421 C422 1.391 . S
C422 C421 1.391 . S
C422 H478 0.947 . S
C422 C479 1.392 . S
C423 C424 1.391 . S
C423 C427 1.397 . S
C423 C479 1.419 . S
C424 C420 1.391 . S
C424 C423 1.391 . S
C424 C425 1.399 . S
C425 C424 1.399 . S
C425 C428 1.396 . S
C425 C437 1.453 . S
C425 C438 1.684 . S
H426 C450 0.948 . S
C427 C423 1.397 . S
C427 C428 1.394 . S
C427 C446 1.723 . S
C428 C425 1.396 . S
C428 C427 1.394 . S
C428 C458 1.723 . S
H429 C452 0.947 . S
H430 C453 0.948 . S
H431 C459 0.982 . S
H432 C460 0.979 . S
H433 C460 0.980 . S
H434 C460 0.983 . S
H435 C459 0.979 . S
H436 C459 0.977 . S
C437 C425 1.453 . S
C437 H466 0.982 . S
C437 H467 0.979 . S
C437 H468 0.977 . S
C438 C425 1.684 . S
C438 H463 0.979 . S
C438 H464 0.980 . S
C438 H465 0.983 . S
C439 C440 1.391 . S
C439 C444 1.391 . S
C439 H469 0.948 . S
C440 C439 1.391 . S
C440 C441 1.391 . S
C441 C440 1.391 . S
C441 C442 1.392 . S
C441 H470 0.947 . S
C442 C441 1.392 . S
C442 C443 1.419 . S
C442 H471 0.948 . S
C443 C442 1.419 . S
C443 C444 1.391 . S
C443 C447 1.397 . S
C444 C439 1.391 . S
C444 C443 1.391 . S
C444 C445 1.399 . S
C445 C444 1.399 . S
C445 C446 1.396 . S
C445 C448 1.453 . S
C445 C449 1.684 . S
C446 C427 1.723 . S
C446 C445 1.396 . S
C446 C447 1.394 . S
C447 C443 1.397 . S
C447 C446 1.394 . S
C447 C457 1.723 . S
C448 C445 1.453 . S
C448 H472 0.982 . S
C448 H473 0.979 . S
C448 H474 0.977 . S
C449 C445 1.684 . S
C449 H475 0.979 . S
C449 H476 0.980 . S
C449 H477 0.983 . S
C450 H426 0.948 . S
C450 C451 1.391 . S
C450 C455 1.391 . S
C451 C450 1.391 . S
C451 C452 1.391 . S
C452 H429 0.947 . S
C452 C451 1.391 . S
C452 C453 1.392 . S
C453 H430 0.948 . S
C453 C452 1.392 . S
C453 C454 1.419 . S
C454 C453 1.419 . S
C454 C455 1.391 . S
C454 C458 1.397 . S
C455 C450 1.391 . S
C455 C454 1.391 . S
C455 C456 1.399 . S
C456 C455 1.399 . S
C456 C457 1.396 . S
C456 C459 1.453 . S
C456 C460 1.684 . S
C457 C447 1.723 . S
C457 C456 1.396 . S
C457 C458 1.394 . S
C458 C428 1.723 . S
C458 C454 1.397 . S
C458 C457 1.394 . S
C459 H431 0.982 . S
C459 H435 0.979 . S
C459 H436 0.977 . S
C459 C456 1.453 . S
C460 H432 0.979 . S
C460 H433 0.980 . S
C460 H434 0.983 . S
C460 C456 1.684 . S
H461 C479 0.948 . S
H462 C420 0.948 . S
H463 C438 0.979 . S
H464 C438 0.980 . S
H465 C438 0.983 . S
H466 C437 0.982 . S
H467 C437 0.979 . S
H468 C437 0.977 . S
H469 C439 0.948 . S
H470 C441 0.947 . S
H471 C442 0.948 . S
H472 C448 0.982 . S
H473 C448 0.979 . S
H474 C448 0.977 . S
H475 C449 0.979 . S
H476 C449 0.980 . S
H477 C449 0.983 . S
H478 C422 0.947 . S
C479 C422 1.392 . S
C479 C423 1.419 . S
C479 H461 0.948 . S
O480 Zn481 1.953 . S
O480 C496 1.225 1_655 S
Zn481 O480 1.953 . S
Zn481 O482 1.949 1_655 S
Zn481 O488 1.919 . S
Zn481 O493 1.924 . S
O482 Zn481 1.949 1_455 S
O482 Zn483 1.923 1_445 S
O482 Zn484 1.950 . S
O482 Zn485 1.945 1_545 S
Zn483 O482 1.923 1_665 S
Zn483 O486 1.933 . S
Zn483 O489 1.941 1_565 S
Zn483 O490 1.965 1_665 S
Zn484 O482 1.950 . S
Zn484 O491 1.938 . S
Zn484 O492 1.906 1_545 S
Zn484 O502 1.953 . S
Zn485 O482 1.945 1_565 S
Zn485 O487 1.932 1_455 S
Zn485 O494 1.977 . S
Zn485 O495 1.910 1_455 S
O486 Zn483 1.933 . S
O486 C497 1.226 . S
O487 Zn485 1.932 1_655 S
O487 C497 1.307 . S
O488 Zn481 1.919 . S
O488 C499 1.253 . S
O489 Zn483 1.941 1_545 S
O489 C499 1.283 . S
O490 Zn483 1.965 1_445 S
O490 C498 1.303 . S
O491 Zn484 1.938 . S
O491 C498 1.247 . S
O492 Zn484 1.906 1_565 S
O492 C500 1.304 . S
O493 Zn481 1.924 . S
O493 C501 1.311 1_545 S
O494 Zn485 1.977 . S
O494 C500 1.272 . S
O495 Zn485 1.910 1_655 S
O495 C501 1.231 . S
C496 O480 1.225 1_455 S
C496 O502 1.298 . S
C497 O486 1.226 . S
C497 O487 1.307 . S
C498 O490 1.303 . S
C498 O491 1.247 . S
C499 O488 1.253 . S
C499 O489 1.283 . S
C500 O492 1.304 . S
C500 O494 1.272 . S
C501 O493 1.311 1_565 S
C501 O495 1.231 . S
O502 Zn484 1.953 . S
O502 C496 1.298 . S
O503 Zn504 1.953 . S
O503 C519 1.225 . S
Zn504 O503 1.953 . S
Zn504 O505 1.949 1_556 S
Zn504 O511 1.919 . S
Zn504 O516 1.924 1_556 S
O505 Zn504 1.949 1_554 S
O505 Zn506 1.923 1_545 S
O505 Zn507 1.950 . S
O505 Zn508 1.945 1_545 S
Zn506 O505 1.923 1_565 S
Zn506 O509 1.933 . S
Zn506 O512 1.941 1_554 S
Zn506 O513 1.965 1_554 S
Zn507 O505 1.950 . S
Zn507 O514 1.938 . S
Zn507 O515 1.906 . S
Zn507 O525 1.953 . S
Zn508 O505 1.945 1_565 S
Zn508 O510 1.932 . S
Zn508 O517 1.977 1_565 S
Zn508 O518 1.910 1_565 S
O509 Zn506 1.933 . S
O509 C520 1.226 . S
O510 Zn508 1.932 . S
O510 C520 1.307 . S
O511 Zn504 1.919 . S
O511 C522 1.253 1_545 S
O512 Zn506 1.941 1_556 S
O512 C522 1.283 . S
O513 Zn506 1.965 1_556 S
O513 C521 1.303 . S
O514 Zn507 1.938 . S
O514 C521 1.247 1_544 S
O515 Zn507 1.906 . S
O515 C523 1.304 . S
O516 Zn504 1.924 1_554 S
O516 C524 1.311 . S
O517 Zn508 1.977 1_545 S
O517 C523 1.272 . S
O518 Zn508 1.910 1_545 S
O518 C524 1.231 . S
C519 O503 1.225 . S
C519 O525 1.298 1_556 S
C520 O509 1.226 . S
C520 O510 1.307 . S
C521 O513 1.303 . S
C521 O514 1.247 1_566 S
C522 O511 1.253 1_565 S
C522 O512 1.283 . S
C523 O515 1.304 . S
C523 O517 1.272 . S
C524 O516 1.311 . S
C524 O518 1.231 . S
O525 Zn507 1.953 . S
O525 C519 1.298 1_554 S
O526 Zn527 1.953 . S
O526 C542 1.225 . S
Zn527 O526 1.953 . S
Zn527 O528 1.949 . S
Zn527 O534 1.919 . S
Zn527 O539 1.924 . S
O528 Zn527 1.949 . S
O528 Zn529 1.923 . S
O528 Zn530 1.950 . S
O528 Zn531 1.945 . S
Zn529 O528 1.923 . S
Zn529 O532 1.933 . S
Zn529 O535 1.941 . S
Zn529 O536 1.965 . S
Zn530 O528 1.950 . S
Zn530 O537 1.938 . S
Zn530 O538 1.906 . S
Zn530 O548 1.953 . S
Zn531 O528 1.945 . S
Zn531 O533 1.932 . S
Zn531 O540 1.977 . S
Zn531 O541 1.910 . S
O532 Zn529 1.933 . S
O532 C543 1.226 . S
O533 Zn531 1.932 . S
O533 C543 1.307 . S
O534 Zn527 1.919 . S
O534 C545 1.253 . S
O535 Zn529 1.941 . S
O535 C545 1.283 . S
O536 Zn529 1.965 . S
O536 C544 1.303 . S
O537 Zn530 1.938 . S
O537 C544 1.247 . S
O538 Zn530 1.906 . S
O538 C546 1.304 . S
O539 Zn527 1.924 . S
O539 C547 1.311 . S
O540 Zn531 1.977 . S
O540 C546 1.272 . S
O541 Zn531 1.910 . S
O541 C547 1.231 . S
C542 O526 1.225 . S
C542 O548 1.298 . S
C543 O532 1.226 . S
C543 O533 1.307 . S
C544 O536 1.303 . S
C544 O537 1.247 . S
C545 O534 1.253 . S
C545 O535 1.283 . S
C546 O538 1.304 . S
C546 O540 1.272 . S
C547 O539 1.311 . S
C547 O541 1.231 . S
O548 Zn530 1.953 . S
O548 C542 1.298 . S
O549 Zn550 1.953 . S
O549 C565 1.225 . S
Zn550 O549 1.953 . S
Zn550 O551 1.949 1_655 S
Zn550 O557 1.919 . S
Zn550 O562 1.924 . S
O551 Zn550 1.949 1_455 S
O551 Zn552 1.923 1_454 S
O551 Zn553 1.950 . S
O551 Zn554 1.945 1_554 S
Zn552 O551 1.923 1_656 S
Zn552 O555 1.933 1_655 S
Zn552 O558 1.941 . S
Zn552 O559 1.965 . S
Zn553 O551 1.950 . S
Zn553 O560 1.938 . S
Zn553 O561 1.906 . S
Zn553 O571 1.953 . S
Zn554 O551 1.945 1_556 S
Zn554 O556 1.932 . S
Zn554 O563 1.977 1_556 S
Zn554 O564 1.910 1_556 S
O555 Zn552 1.933 1_455 S
O555 C566 1.226 . S
O556 Zn554 1.932 . S
O556 C566 1.307 . S
O557 Zn550 1.919 . S
O557 C568 1.253 1_554 S
O558 Zn552 1.941 . S
O558 C568 1.283 . S
O559 Zn552 1.965 . S
O559 C567 1.303 . S
O560 Zn553 1.938 . S
O560 C567 1.247 1_454 S
O561 Zn553 1.906 . S
O561 C569 1.304 . S
O562 Zn550 1.924 . S
O562 C570 1.311 1_655 S
O563 Zn554 1.977 1_554 S
O563 C569 1.272 . S
O564 Zn554 1.910 1_554 S
O564 C570 1.231 . S
C565 O549 1.225 . S
C565 O571 1.298 1_655 S
C566 O555 1.226 . S
C566 O556 1.307 . S
C567 O559 1.303 . S
C567 O560 1.247 1_656 S
C568 O557 1.253 1_556 S
C568 O558 1.283 . S
C569 O561 1.304 . S
C569 O563 1.272 . S
C570 O562 1.311 1_455 S
C570 O564 1.231 . S
O571 Zn553 1.953 . S
O571 C565 1.298 1_455 S
H572 C578 0.930 . S
H573 C582 0.930 . S
H574 C587 0.929 . S
H575 C585 0.929 . S
H576 C580 0.929 . S
H577 C586 0.929 . S
C578 H572 0.930 . S
C578 C579 1.367 . S
C578 C586 1.378 . S
C579 C578 1.367 . S
C579 C587 1.433 . S
C580 H576 0.929 . S
C580 C582 1.378 . S
C580 C584 1.350 . S
C581 C584 1.463 . S
C581 C586 1.350 . S
C581 N589 1.427 . S
C582 H573 0.930 . S
C582 C580 1.378 . S
C582 C583 1.367 . S
C583 C582 1.367 . S
C583 C585 1.433 . S
C584 C580 1.350 . S
C584 C581 1.463 . S
C584 N588 1.427 . S
C585 H575 0.929 . S
C585 C583 1.433 . S
C585 N588 1.384 . S
C586 H577 0.929 . S
C586 C578 1.378 . S
C586 C581 1.350 . S
C587 H574 0.929 . S
C587 C579 1.433 . S
C587 N589 1.384 . S
N588 C584 1.427 . S
N588 C585 1.384 . S
N589 C581 1.427 . S
N589 C587 1.384 . S
H590 C596 0.930 . S
H591 C600 0.930 . S
H592 C605 0.929 . S
H593 C603 0.929 1_545 S
H594 C598 0.929 . S
H595 C604 0.929 . S
C596 H590 0.930 . S
C596 C597 1.367 . S
C596 C604 1.378 . S
C597 C596 1.367 . S
C597 C605 1.433 . S
C598 H594 0.929 . S
C598 C600 1.378 . S
C598 C602 1.350 . S
C599 C602 1.463 . S
C599 C604 1.350 . S
C599 N607 1.427 . S
C600 H591 0.930 . S
C600 C598 1.378 . S
C600 C601 1.367 . S
C601 C600 1.367 . S
C601 C603 1.433 . S
C602 C598 1.350 . S
C602 C599 1.463 . S
C602 N606 1.427 . S
C603 H593 0.929 1_565 S
C603 C601 1.433 . S
C603 N606 1.384 . S
C604 H595 0.929 . S
C604 C596 1.378 . S
C604 C599 1.350 . S
C605 H592 0.929 . S
C605 C597 1.433 . S
C605 N607 1.384 . S
N606 C602 1.427 . S
N606 C603 1.384 . S
N607 C599 1.427 . S
N607 C605 1.384 . S
H608 C614 0.930 . S
H609 C618 0.930 . S
H610 C623 0.929 . S
H611 C621 0.929 . S
H612 C616 0.929 . S
H613 C622 0.929 . S
C614 H608 0.930 . S
C614 C615 1.367 . S
C614 C622 1.378 . S
C615 C614 1.367 . S
C615 C623 1.433 . S
C616 H612 0.929 . S
C616 C618 1.378 . S
C616 C620 1.350 . S
C617 C620 1.463 . S
C617 C622 1.350 . S
C617 N625 1.427 . S
C618 H609 0.930 . S
C618 C616 1.378 . S
C618 C619 1.367 . S
C619 C618 1.367 . S
C619 C621 1.433 . S
C620 C616 1.350 . S
C620 C617 1.463 . S
C620 N624 1.427 . S
C621 H611 0.929 . S
C621 C619 1.433 . S
C621 N624 1.384 . S
C622 H613 0.929 . S
C622 C614 1.378 . S
C622 C617 1.350 . S
C623 H610 0.929 . S
C623 C615 1.433 . S
C623 N625 1.384 . S
N624 C620 1.427 . S
N624 C621 1.384 . S
N625 C617 1.427 . S
N625 C623 1.384 . S
H626 C632 0.930 . S
H627 C636 0.930 . S
H628 C641 0.929 . S
H629 C639 0.929 1_455 S
H630 C634 0.929 . S
H631 C640 0.929 . S
C632 H626 0.930 . S
C632 C633 1.367 . S
C632 C640 1.378 . S
C633 C632 1.367 . S
C633 C641 1.433 . S
C634 H630 0.929 . S
C634 C636 1.378 . S
C634 C638 1.350 . S
C635 C638 1.463 . S
C635 C640 1.350 . S
C635 N643 1.427 . S
C636 H627 0.930 . S
C636 C634 1.378 . S
C636 C637 1.367 . S
C637 C636 1.367 . S
C637 C639 1.433 . S
C638 C634 1.350 . S
C638 C635 1.463 . S
C638 N642 1.427 . S
C639 H629 0.929 1_655 S
C639 C637 1.433 . S
C639 N642 1.384 . S
C640 H631 0.929 . S
C640 C632 1.378 . S
C640 C635 1.350 . S
C641 H628 0.929 . S
C641 C633 1.433 . S
C641 N643 1.384 . S
N642 C638 1.427 . S
N642 C639 1.384 . S
N643 C635 1.427 . S
N643 C641 1.384 . S
H644 C650 0.930 . S
H645 C654 0.930 . S
H646 C659 0.929 . S
H647 C657 0.929 . S
H648 C652 0.929 . S
H649 C658 0.929 . S
C650 H644 0.930 . S
C650 C651 1.367 . S
C650 C658 1.378 . S
C651 C650 1.367 . S
C651 C659 1.433 . S
C652 H648 0.929 . S
C652 C654 1.378 . S
C652 C656 1.350 . S
C653 C656 1.463 . S
C653 C658 1.350 . S
C653 N661 1.427 . S
C654 H645 0.930 . S
C654 C652 1.378 . S
C654 C655 1.367 . S
C655 C654 1.367 . S
C655 C657 1.433 . S
C656 C652 1.350 . S
C656 C653 1.463 . S
C656 N660 1.427 . S
C657 H647 0.929 . S
C657 C655 1.433 . S
C657 N660 1.384 . S
C658 H649 0.929 . S
C658 C650 1.378 . S
C658 C653 1.350 . S
C659 H646 0.929 . S
C659 C651 1.433 . S
C659 N661 1.384 . S
N660 C656 1.427 . S
N660 C657 1.384 . S
N661 C653 1.427 . S
N661 C659 1.384 . S
H662 C668 0.930 . S
H663 C672 0.930 . S
H664 C677 0.929 . S
H665 C675 0.929 . S
H666 C670 0.929 . S
H667 C676 0.929 . S
C668 H662 0.930 . S
C668 C669 1.367 . S
C668 C676 1.378 . S
C669 C668 1.367 . S
C669 C677 1.433 . S
C670 H666 0.929 . S
C670 C672 1.378 . S
C670 C674 1.350 . S
C671 C674 1.463 . S
C671 C676 1.350 . S
C671 N679 1.427 . S
C672 H663 0.930 . S
C672 C670 1.378 . S
C672 C673 1.367 . S
C673 C672 1.367 . S
C673 C675 1.433 . S
C674 C670 1.350 . S
C674 C671 1.463 . S
C674 N678 1.427 . S
C675 H665 0.929 . S
C675 C673 1.433 . S
C675 N678 1.384 . S
C676 H667 0.929 . S
C676 C668 1.378 . S
C676 C671 1.350 . S
C677 H664 0.929 . S
C677 C669 1.433 . S
C677 N679 1.384 . S
N678 C674 1.427 . S
N678 C675 1.384 . S
N679 C671 1.427 . S
N679 C677 1.384 . S
H680 C686 0.930 . S
H681 C690 0.930 . S
H682 C695 0.929 . S
H683 C693 0.929 . S
H684 C688 0.929 . S
H685 C694 0.929 . S
C686 H680 0.930 . S
C686 C687 1.367 . S
C686 C694 1.378 . S
C687 C686 1.367 . S
C687 C695 1.433 . S
C688 H684 0.929 . S
C688 C690 1.378 . S
C688 C692 1.350 . S
C689 C692 1.463 . S
C689 C694 1.350 . S
C689 N697 1.427 . S
C690 H681 0.930 . S
C690 C688 1.378 . S
C690 C691 1.367 . S
C691 C690 1.367 . S
C691 C693 1.433 . S
C692 C688 1.350 . S
C692 C689 1.463 . S
C692 N696 1.427 . S
C693 H683 0.929 . S
C693 C691 1.433 . S
C693 N696 1.384 . S
C694 H685 0.929 . S
C694 C686 1.378 . S
C694 C689 1.350 . S
C695 H682 0.929 . S
C695 C687 1.433 . S
C695 N697 1.384 . S
N696 C692 1.427 . S
N696 C693 1.384 . S
N697 C689 1.427 . S
N697 C695 1.384 . S
H698 C704 0.930 . S
H699 C708 0.930 . S
H700 C713 0.929 . S
H701 C711 0.929 . S
H702 C706 0.929 . S
H703 C712 0.929 . S
C704 H698 0.930 . S
C704 C705 1.367 . S
C704 C712 1.378 . S
C705 C704 1.367 . S
C705 C713 1.433 . S
C706 H702 0.929 . S
C706 C708 1.378 . S
C706 C710 1.350 . S
C707 C710 1.463 . S
C707 C712 1.350 . S
C707 N715 1.427 . S
C708 H699 0.930 . S
C708 C706 1.378 . S
C708 C709 1.367 . S
C709 C708 1.367 . S
C709 C711 1.433 . S
C710 C706 1.350 . S
C710 C707 1.463 . S
C710 N714 1.427 . S
C711 H701 0.929 . S
C711 C709 1.433 . S
C711 N714 1.384 . S
C712 H703 0.929 . S
C712 C704 1.378 . S
C712 C707 1.350 . S
C713 H700 0.929 . S
C713 C705 1.433 . S
C713 N715 1.384 . S
N714 C710 1.427 . S
N714 C711 1.384 . S
N715 C707 1.427 . S
N715 C713 1.384 . S
H716 C722 0.930 . S
H717 C726 0.930 . S
H718 C731 0.929 . S
H719 C729 0.929 . S
H720 C724 0.929 . S
H721 C730 0.929 . S
C722 H716 0.930 . S
C722 C723 1.367 . S
C722 C730 1.378 . S
C723 C722 1.367 . S
C723 C731 1.433 . S
C724 H720 0.929 . S
C724 C726 1.378 . S
C724 C728 1.350 . S
C725 C728 1.463 . S
C725 C730 1.350 . S
C725 N733 1.427 . S
C726 H717 0.930 . S
C726 C724 1.378 . S
C726 C727 1.367 . S
C727 C726 1.367 . S
C727 C729 1.433 . S
C728 C724 1.350 . S
C728 C725 1.463 . S
C728 N732 1.427 . S
C729 H719 0.929 . S
C729 C727 1.433 . S
C729 N732 1.384 . S
C730 H721 0.929 . S
C730 C722 1.378 . S
C730 C725 1.350 . S
C731 H718 0.929 . S
C731 C723 1.433 . S
C731 N733 1.384 . S
N732 C728 1.427 . S
N732 C729 1.384 . S
N733 C725 1.427 . S
N733 C731 1.384 . S
H734 C740 0.930 . S
H735 C744 0.930 . S
H736 C749 0.929 . S
H737 C747 0.929 . S
H738 C742 0.929 . S
H739 C748 0.929 . S
C740 H734 0.930 . S
C740 C741 1.367 . S
C740 C748 1.378 . S
C741 C740 1.367 . S
C741 C749 1.433 . S
C742 H738 0.929 . S
C742 C744 1.378 . S
C742 C746 1.350 . S
C743 C746 1.463 . S
C743 C748 1.350 . S
C743 N751 1.427 . S
C744 H735 0.930 . S
C744 C742 1.378 . S
C744 C745 1.367 . S
C745 C744 1.367 . S
C745 C747 1.433 . S
C746 C742 1.350 . S
C746 C743 1.463 . S
C746 N750 1.427 . S
C747 H737 0.929 . S
C747 C745 1.433 . S
C747 N750 1.384 . S
C748 H739 0.929 . S
C748 C740 1.378 . S
C748 C743 1.350 . S
C749 H736 0.929 . S
C749 C741 1.433 . S
C749 N751 1.384 . S
N750 C746 1.427 . S
N750 C747 1.384 . S
N751 C743 1.427 . S
N751 C749 1.384 . S
H752 C758 0.930 . S
H753 C762 0.930 . S
H754 C767 0.929 . S
H755 C765 0.929 . S
H756 C760 0.929 . S
H757 C766 0.929 . S
C758 H752 0.930 . S
C758 C759 1.367 . S
C758 C766 1.378 . S
C759 C758 1.367 . S
C759 C767 1.433 . S
C760 H756 0.929 . S
C760 C762 1.378 . S
C760 C764 1.350 . S
C761 C764 1.463 . S
C761 C766 1.350 . S
C761 N769 1.427 . S
C762 H753 0.930 . S
C762 C760 1.378 . S
C762 C763 1.367 . S
C763 C762 1.367 . S
C763 C765 1.433 . S
C764 C760 1.350 . S
C764 C761 1.463 . S
C764 N768 1.427 . S
C765 H755 0.929 . S
C765 C763 1.433 . S
C765 N768 1.384 . S
C766 H757 0.929 . S
C766 C758 1.378 . S
C766 C761 1.350 . S
C767 H754 0.929 . S
C767 C759 1.433 . S
C767 N769 1.384 . S
N768 C764 1.427 . S
N768 C765 1.384 . S
N769 C761 1.427 . S
N769 C767 1.384 . S
H770 C776 0.930 . S
H771 C780 0.930 . S
H772 C785 0.929 . S
H773 C783 0.929 . S
H774 C778 0.929 . S
H775 C784 0.929 . S
C776 H770 0.930 . S
C776 C777 1.367 . S
C776 C784 1.378 . S
C777 C776 1.367 . S
C777 C785 1.433 . S
C778 H774 0.929 . S
C778 C780 1.378 . S
C778 C782 1.350 . S
C779 C782 1.463 . S
C779 C784 1.350 . S
C779 N787 1.427 . S
C780 H771 0.930 . S
C780 C778 1.378 . S
C780 C781 1.367 . S
C781 C780 1.367 . S
C781 C783 1.433 . S
C782 C778 1.350 . S
C782 C779 1.463 . S
C782 N786 1.427 . S
C783 H773 0.929 . S
C783 C781 1.433 . S
C783 N786 1.384 . S
C784 H775 0.929 . S
C784 C776 1.378 . S
C784 C779 1.350 . S
C785 H772 0.929 . S
C785 C777 1.433 . S
C785 N787 1.384 . S
N786 C782 1.427 . S
N786 C783 1.384 . S
N787 C779 1.427 . S
N787 C785 1.384 . S
H788 C794 0.930 . S
H789 C798 0.930 . S
H790 C803 0.929 . S
H791 C801 0.930 1_455 S
H792 C796 0.929 . S
H793 C802 0.929 1_455 S
C794 H788 0.930 . S
C794 C795 1.367 1_545 S
C794 C802 1.378 . S
C795 C794 1.367 1_565 S
C795 C803 1.433 . S
C796 H792 0.929 . S
C796 C798 1.378 . S
C796 C800 1.350 . S
C797 C800 1.463 . S
C797 C802 1.350 1_565 S
C797 N805 1.427 . S
C798 H789 0.930 . S
C798 C796 1.378 . S
C798 C799 1.367 . S
C799 C798 1.367 . S
C799 C801 1.433 1_565 S
C800 C796 1.350 . S
C800 C797 1.463 . S
C800 N804 1.427 1_565 S
C801 H791 0.930 1_655 S
C801 C799 1.433 1_545 S
C801 N804 1.383 . S
C802 H793 0.929 1_655 S
C802 C794 1.378 . S
C802 C797 1.350 1_545 S
C803 H790 0.929 . S
C803 C795 1.433 . S
C803 N805 1.384 . S
N804 C800 1.427 1_545 S
N804 C801 1.383 . S
N805 C797 1.427 . S
N805 C803 1.384 . S
H806 C812 0.930 . S
H807 C816 0.930 . S
H808 C821 0.929 . S
H809 C819 0.929 . S
H810 C814 0.929 . S
H811 C820 0.929 . S
C812 H806 0.930 . S
C812 C813 1.367 . S
C812 C820 1.378 . S
C813 C812 1.367 . S
C813 C821 1.433 . S
C814 H810 0.929 . S
C814 C816 1.378 . S
C814 C818 1.350 . S
C815 C818 1.463 . S
C815 C820 1.350 . S
C815 N823 1.427 . S
C816 H807 0.930 . S
C816 C814 1.378 . S
C816 C817 1.367 . S
C817 C816 1.367 . S
C817 C819 1.433 . S
C818 C814 1.350 . S
C818 C815 1.463 . S
C818 N822 1.427 . S
C819 H809 0.929 . S
C819 C817 1.433 . S
C819 N822 1.384 . S
C820 H811 0.929 . S
C820 C812 1.378 . S
C820 C815 1.350 . S
C821 H808 0.929 . S
C821 C813 1.433 . S
C821 N823 1.384 . S
N822 C818 1.427 . S
N822 C819 1.384 . S
N823 C815 1.427 . S
N823 C821 1.384 . S
H824 C830 0.930 . S
H825 C834 0.930 . S
H826 C839 0.929 . S
H827 C837 0.929 . S
H828 C832 0.929 . S
H829 C838 0.929 . S
C830 H824 0.930 . S
C830 C831 1.367 . S
C830 C838 1.378 . S
C831 C830 1.367 . S
C831 C839 1.433 . S
C832 H828 0.929 . S
C832 C834 1.378 . S
C832 C836 1.350 . S
C833 C836 1.463 . S
C833 C838 1.350 . S
C833 N841 1.427 . S
C834 H825 0.930 . S
C834 C832 1.378 . S
C834 C835 1.367 . S
C835 C834 1.367 . S
C835 C837 1.433 . S
C836 C832 1.350 . S
C836 C833 1.463 . S
C836 N840 1.427 . S
C837 H827 0.929 . S
C837 C835 1.433 . S
C837 N840 1.384 . S
C838 H829 0.929 . S
C838 C830 1.378 . S
C838 C833 1.350 . S
C839 H826 0.929 . S
C839 C831 1.433 . S
C839 N841 1.384 . S
N840 C836 1.427 . S
N840 C837 1.384 . S
N841 C833 1.427 . S
N841 C839 1.384 . S
H842 C848 0.930 . S
H843 C852 0.930 . S
H844 C857 0.929 . S
H845 C855 0.929 . S
H846 C850 0.929 . S
H847 C856 0.929 . S
C848 H842 0.930 . S
C848 C849 1.367 . S
C848 C856 1.378 . S
C849 C848 1.367 . S
C849 C857 1.433 . S
C850 H846 0.929 . S
C850 C852 1.378 . S
C850 C854 1.350 . S
C851 C854 1.463 . S
C851 C856 1.350 . S
C851 N859 1.427 . S
C852 H843 0.930 . S
C852 C850 1.378 . S
C852 C853 1.367 . S
C853 C852 1.367 . S
C853 C855 1.433 . S
C854 C850 1.350 . S
C854 C851 1.463 . S
C854 N858 1.427 . S
C855 H845 0.929 . S
C855 C853 1.433 . S
C855 N858 1.384 . S
C856 H847 0.929 . S
C856 C848 1.378 . S
C856 C851 1.350 . S
C857 H844 0.929 . S
C857 C849 1.433 . S
C857 N859 1.384 . S
N858 C854 1.427 . S
N858 C855 1.384 . S
N859 C851 1.427 . S
N859 C857 1.384 . S
H860 C866 0.930 . S
H861 C870 0.930 . S
H862 C875 0.929 . S
H863 C873 0.929 1_554 S
H864 C868 0.929 . S
H865 C874 0.929 . S
C866 H860 0.930 . S
C866 C867 1.367 . S
C866 C874 1.378 . S
C867 C866 1.367 . S
C867 C875 1.433 1_565 S
C868 H864 0.929 . S
C868 C870 1.378 . S
C868 C872 1.350 1_545 S
C869 C872 1.463 . S
C869 C874 1.350 . S
C869 N877 1.427 1_565 S
C870 H861 0.930 . S
C870 C868 1.378 . S
C870 C871 1.367 1_545 S
C871 C870 1.367 1_565 S
C871 C873 1.433 . S
C872 C868 1.350 1_565 S
C872 C869 1.463 . S
C872 N876 1.427 . S
C873 H863 0.929 1_556 S
C873 C871 1.433 . S
C873 N876 1.384 . S
C874 H865 0.929 . S
C874 C866 1.378 . S
C874 C869 1.350 . S
C875 H862 0.929 . S
C875 C867 1.433 1_545 S
C875 N877 1.384 . S
N876 C872 1.427 . S
N876 C873 1.384 . S
N877 C869 1.427 1_545 S
N877 C875 1.384 . S
H878 C884 0.930 . S
H879 C888 0.930 . S
H880 C893 0.929 . S
H881 C891 0.929 . S
H882 C886 0.929 . S
H883 C892 0.929 . S
C884 H878 0.930 . S
C884 C885 1.367 . S
C884 C892 1.378 . S
C885 C884 1.367 . S
C885 C893 1.433 . S
C886 H882 0.929 . S
C886 C888 1.378 . S
C886 C890 1.350 . S
C887 C890 1.463 . S
C887 C892 1.350 . S
C887 N895 1.427 . S
C888 H879 0.930 . S
C888 C886 1.378 . S
C888 C889 1.367 . S
C889 C888 1.367 . S
C889 C891 1.433 . S
C890 C886 1.350 . S
C890 C887 1.463 . S
C890 N894 1.427 . S
C891 H881 0.929 . S
C891 C889 1.433 . S
C891 N894 1.384 . S
C892 H883 0.929 . S
C892 C884 1.378 . S
C892 C887 1.350 . S
C893 H880 0.929 . S
C893 C885 1.433 . S
C893 N895 1.384 . S
N894 C890 1.427 . S
N894 C891 1.384 . S
N895 C887 1.427 . S
N895 C893 1.384 . S
H896 C902 0.930 . S
H897 C906 0.930 . S
H898 C911 0.929 . S
H899 C909 0.929 . S
H900 C904 0.929 . S
H901 C910 0.929 1_556 S
C902 H896 0.930 . S
C902 C903 1.367 . S
C902 C910 1.378 . S
C903 C902 1.367 . S
C903 C911 1.433 . S
C904 H900 0.929 . S
C904 C906 1.378 . S
C904 C908 1.350 . S
C905 C908 1.463 . S
C905 C910 1.350 . S
C905 N913 1.427 . S
C906 H897 0.930 . S
C906 C904 1.378 . S
C906 C907 1.367 . S
C907 C906 1.367 . S
C907 C909 1.433 1_554 S
C908 C904 1.350 . S
C908 C905 1.463 . S
C908 N912 1.427 1_554 S
C909 H899 0.929 . S
C909 C907 1.433 1_556 S
C909 N912 1.384 . S
C910 H901 0.929 1_554 S
C910 C902 1.378 . S
C910 C905 1.350 . S
C911 H898 0.929 . S
C911 C903 1.433 . S
C911 N913 1.384 . S
N912 C908 1.427 1_556 S
N912 C909 1.384 . S
N913 C905 1.427 . S
N913 C911 1.384 . S
H914 C920 0.930 . S
H915 C924 0.930 . S
H916 C929 0.929 . S
H917 C927 0.929 . S
H918 C922 0.929 . S
H919 C928 0.929 . S
C920 H914 0.930 . S
C920 C921 1.367 . S
C920 C928 1.378 . S
C921 C920 1.367 . S
C921 C929 1.433 . S
C922 H918 0.929 . S
C922 C924 1.378 . S
C922 C926 1.350 . S
C923 C926 1.463 . S
C923 C928 1.350 . S
C923 N931 1.427 . S
C924 H915 0.930 . S
C924 C922 1.378 . S
C924 C925 1.367 . S
C925 C924 1.367 . S
C925 C927 1.433 . S
C926 C922 1.350 . S
C926 C923 1.463 . S
C926 N930 1.427 . S
C927 H917 0.929 . S
C927 C925 1.433 . S
C927 N930 1.384 . S
C928 H919 0.929 . S
C928 C920 1.378 . S
C928 C923 1.350 . S
C929 H916 0.929 . S
C929 C921 1.433 . S
C929 N931 1.384 . S
N930 C926 1.427 . S
N930 C927 1.384 . S
N931 C923 1.427 . S
N931 C929 1.384 . S
H932 C938 0.930 1_554 S
H933 C942 0.930 . S
H934 C947 0.929 . S
H935 C945 0.929 . S
H936 C940 0.929 . S
H937 C946 0.946 . S
C938 H932 0.930 1_556 S
C938 C939 1.367 . S
C938 C946 1.376 1_556 S
C939 C938 1.367 . S
C939 C947 1.433 . S
C940 H936 0.929 . S
C940 C942 1.378 . S
C940 C944 1.350 . S
C941 C944 1.463 . S
C941 C946 1.334 1_556 S
C941 N949 1.427 . S
C942 H933 0.930 . S
C942 C940 1.378 . S
C942 C943 1.367 . S
C943 C942 1.367 . S
C943 C945 1.433 1_556 S
C944 C940 1.350 . S
C944 C941 1.463 . S
C944 N948 1.427 1_556 S
C945 H935 0.929 . S
C945 C943 1.433 1_554 S
C945 N948 1.384 . S
C946 H937 0.946 . S
C946 C938 1.376 1_554 S
C946 C941 1.334 1_554 S
C947 H934 0.929 . S
C947 C939 1.433 . S
C947 N949 1.384 . S
N948 C944 1.427 1_554 S
N948 C945 1.384 . S
N949 C941 1.427 . S
N949 C947 1.384 . S
H950 C956 0.930 . S
H951 C960 0.930 . S
H952 C965 0.929 . S
H953 C963 0.929 . S
H954 C958 0.929 . S
H955 C964 0.929 . S
C956 H950 0.930 . S
C956 C957 1.367 . S
C956 C964 1.378 . S
C957 C956 1.367 . S
C957 C965 1.433 . S
C958 H954 0.929 . S
C958 C960 1.378 . S
C958 C962 1.350 . S
C959 C962 1.463 . S
C959 C964 1.350 . S
C959 N967 1.427 . S
C960 H951 0.930 . S
C960 C958 1.378 . S
C960 C961 1.367 . S
C961 C960 1.367 . S
C961 C963 1.433 . S
C962 C958 1.350 . S
C962 C959 1.463 . S
C962 N966 1.427 . S
C963 H953 0.929 . S
C963 C961 1.433 . S
C963 N966 1.384 . S
C964 H955 0.929 . S
C964 C956 1.378 . S
C964 C959 1.350 . S
C965 H952 0.929 . S
C965 C957 1.433 . S
C965 N967 1.384 . S
N966 C962 1.427 . S
N966 C963 1.384 . S
N967 C959 1.427 . S
N967 C965 1.384 . S
H968 C974 0.930 . S
H969 C978 0.930 . S
H970 C983 0.929 . S
H971 C981 0.929 . S
H972 C976 0.929 . S
H973 C982 0.929 . S
C974 H968 0.930 . S
C974 C975 1.367 . S
C974 C982 1.378 . S
C975 C974 1.367 . S
C975 C983 1.433 . S
C976 H972 0.929 . S
C976 C978 1.378 . S
C976 C980 1.350 . S
C977 C980 1.463 . S
C977 C982 1.350 . S
C977 N985 1.427 . S
C978 H969 0.930 . S
C978 C976 1.378 . S
C978 C979 1.367 . S
C979 C978 1.367 . S
C979 C981 1.433 . S
C980 C976 1.350 . S
C980 C977 1.463 . S
C980 N984 1.427 . S
C981 H971 0.929 . S
C981 C979 1.433 . S
C981 N984 1.384 . S
C982 H973 0.929 . S
C982 C974 1.378 . S
C982 C977 1.350 . S
C983 H970 0.929 . S
C983 C975 1.433 . S
C983 N985 1.384 . S
N984 C980 1.427 . S
N984 C981 1.384 . S
N985 C977 1.427 . S
N985 C983 1.384 . S
H986 C992 0.930 . S
H987 C996 0.930 . S
H988 C1001 0.929 . S
H989 C999 0.929 . S
H990 C994 0.929 . S
H991 C1000 0.929 . S
C992 H986 0.930 . S
C992 C993 1.367 . S
C992 C1000 1.378 . S
C993 C992 1.367 . S
C993 C1001 1.433 . S
C994 H990 0.929 . S
C994 C996 1.378 . S
C994 C998 1.350 . S
C995 C998 1.463 . S
C995 C1000 1.350 . S
C995 N1003 1.427 . S
C996 H987 0.930 . S
C996 C994 1.378 . S
C996 C997 1.367 . S
C997 C996 1.367 . S
C997 C999 1.433 . S
C998 C994 1.350 . S
C998 C995 1.463 . S
C998 N1002 1.427 . S
C999 H989 0.929 . S
C999 C997 1.433 . S
C999 N1002 1.384 . S
C1000 H991 0.929 . S
C1000 C992 1.378 . S
C1000 C995 1.350 . S
C1001 H988 0.929 . S
C1001 C993 1.433 . S
C1001 N1003 1.384 . S
N1002 C998 1.427 . S
N1002 C999 1.384 . S
N1003 C995 1.427 . S
N1003 C1001 1.384 . S
C579 C1 1.597 . S
C583 C498 1.578 . S
C597 C80 1.573 . S
C601 C522 1.571 . S
C619 C542 1.446 . S
C615 C140 1.390 . S
C633 C211 1.396 . S
C637 C565 1.462 . S
C655 C524 1.668 . S
C651 C31 1.693 . S
C673 C500 1.652 . S
C669 C61 1.658 . S
C691 C568 1.584 . S
C687 C151 1.584 . S
C709 C545 1.570 . S
C705 C200 1.559 . S
C723 C20 1.385 . S
C727 C570 1.367 . S
C745 C519 1.659 . S
C741 C121 1.596 . S
C759 C181 1.593 . S
C763 C497 1.650 . S
C777 C91 1.356 . S
C781 C547 1.359 . S
C799 C501 1.709 . S
C795 C260 1.698 . S
C813 C320 1.587 . S
C817 C523 1.666 . S
C831 C361 1.799 . S
C835 C543 1.826 . S
C849 C451 1.748 . S
C853 C566 1.831 . S
C867 C271 1.616 . S
C871 C521 1.602 . S
C889 C499 1.639 . S
C885 C301 1.535 . S
C907 C569 1.517 . S
C903 C380 1.534 . S
C925 C546 1.550 . S
C921 C440 1.537 . S
C939 C241 1.940 . S
C943 C567 1.901 . S
C961 C520 1.618 . S
C957 C391 1.600 . S
C979 C496 1.630 . S
C975 C421 1.552 . S
C993 C331 1.828 . S
C997 C544 1.878 . S
