# Generated by pormake.
# Topology zzz, (3,6)-cn, num edge types: 1
# Building blocks:
#     Node 0, Type 0, BuildingBlock: QEWDON_clean_linker_0, # of connection points: 3
#     Node 1, Type 0, BuildingBlock: QEWDON_clean_linker_0, # of connection points: 3
#     Node 2, Type 0, BuildingBlock: QEWDON_clean_linker_0, # of connection points: 3
#     Node 3, Type 0, BuildingBlock: QEWDON_clean_linker_0, # of connection points: 3
#     Node 4, Type 0, BuildingBlock: QEWDON_clean_linker_0, # of connection points: 3
#     Node 5, Type 0, BuildingBlock: QEWDON_clean_linker_0, # of connection points: 3
#     Node 6, Type 0, BuildingBlock: QEWDON_clean_linker_0, # of connection points: 3
#     Node 7, Type 0, BuildingBlock: QEWDON_clean_linker_0, # of connection points: 3
#     Node 8, Type 1, BuildingBlock: JUFBIX_clean_sbu_0, # of connection points: 6
#     Node 9, Type 1, BuildingBlock: JUFBIX_clean_sbu_0, # of connection points: 6
#     Node 10, Type 1, BuildingBlock: JUFBIX_clean_sbu_0, # of connection points: 6
#     Node 11, Type 1, BuildingBlock: JUFBIX_clean_sbu_0, # of connection points: 6
#     Edge 12, Type (0, 1), BuildingBlock: KIFKEQ_clean_linker_1, # of connection points: 2
#     Edge 13, Type (0, 1), BuildingBlock: KIFKEQ_clean_linker_1, # of connection points: 2
#     Edge 14, Type (0, 1), BuildingBlock: KIFKEQ_clean_linker_1, # of connection points: 2
#     Edge 15, Type (0, 1), BuildingBlock: KIFKEQ_clean_linker_1, # of connection points: 2
#     Edge 16, Type (0, 1), BuildingBlock: KIFKEQ_clean_linker_1, # of connection points: 2
#     Edge 17, Type (0, 1), BuildingBlock: KIFKEQ_clean_linker_1, # of connection points: 2
#     Edge 18, Type (0, 1), BuildingBlock: KIFKEQ_clean_linker_1, # of connection points: 2
#     Edge 19, Type (0, 1), BuildingBlock: KIFKEQ_clean_linker_1, # of connection points: 2
#     Edge 20, Type (0, 1), BuildingBlock: KIFKEQ_clean_linker_1, # of connection points: 2
#     Edge 21, Type (0, 1), BuildingBlock: KIFKEQ_clean_linker_1, # of connection points: 2
#     Edge 22, Type (0, 1), BuildingBlock: KIFKEQ_clean_linker_1, # of connection points: 2
#     Edge 23, Type (0, 1), BuildingBlock: KIFKEQ_clean_linker_1, # of connection points: 2
#     Edge 24, Type (0, 1), BuildingBlock: KIFKEQ_clean_linker_1, # of connection points: 2
#     Edge 25, Type (0, 1), BuildingBlock: KIFKEQ_clean_linker_1, # of connection points: 2
#     Edge 26, Type (0, 1), BuildingBlock: KIFKEQ_clean_linker_1, # of connection points: 2
#     Edge 27, Type (0, 1), BuildingBlock: KIFKEQ_clean_linker_1, # of connection points: 2
#     Edge 28, Type (0, 1), BuildingBlock: KIFKEQ_clean_linker_1, # of connection points: 2
#     Edge 29, Type (0, 1), BuildingBlock: KIFKEQ_clean_linker_1, # of connection points: 2
#     Edge 30, Type (0, 1), BuildingBlock: KIFKEQ_clean_linker_1, # of connection points: 2
#     Edge 31, Type (0, 1), BuildingBlock: KIFKEQ_clean_linker_1, # of connection points: 2
#     Edge 32, Type (0, 1), BuildingBlock: KIFKEQ_clean_linker_1, # of connection points: 2
#     Edge 33, Type (0, 1), BuildingBlock: KIFKEQ_clean_linker_1, # of connection points: 2
#     Edge 34, Type (0, 1), BuildingBlock: KIFKEQ_clean_linker_1, # of connection points: 2
#     Edge 35, Type (0, 1), BuildingBlock: KIFKEQ_clean_linker_1, # of connection points: 2
# Relax obj value: 0.080
# Max RMSD: 0.175
# Mean RMSD: 0.077
data_MOF--net-zzz--node1-JUFBIX_clean_sbu_0--node2-QEWDON_clean_linker_0--edge1-KIFKEQ_clean_linker_1
_symmetry_space_group_name_H-M    P1
_symmetry_Int_Tables_number       1
_symmetry_cell_setting            triclinic
loop_
_symmetry_equiv_pos_as_xyz
'x, y, z'
_cell_length_a     55.407687
_cell_length_b     55.218428
_cell_length_c     17.781373
_cell_angle_alpha  81.300467
_cell_angle_beta   89.637197
_cell_angle_gamma 90.46879
loop_
_atom_site_label
_atom_site_type_symbol
_atom_site_fract_x
_atom_site_fract_y
_atom_site_fract_z
_atom_type_partial_charge
H0 H 0.80853 0.53741 0.13043 0.0
C1 C 0.81803 0.53335 0.18384 0.0
C2 C 0.84103 0.52296 0.18408 0.0
C3 C 0.80789 0.53937 0.25164 0.0
H4 H 0.87252 0.5123 0.24959 0.0
C5 C 0.8542 0.51902 0.25133 0.0
C6 C 0.8451 0.52568 0.3187 0.0
C7 C 0.82177 0.5355 0.31902 0.0
C8 C 0.7835 0.55086 0.25113 0.0
H9 H 0.81461 0.54011 0.3718 0.0
C10 C 0.76495 0.54459 0.20298 0.0
C11 C 0.74221 0.55606 0.20126 0.0
C12 C 0.77877 0.56873 0.29786 0.0
H13 H 0.7926 0.57465 0.33394 0.0
C14 C 0.7562 0.57969 0.29768 0.0
H15 H 0.76823 0.53099 0.16628 0.0
C16 C 0.73806 0.57343 0.25005 0.0
H17 H 0.72069 0.58219 0.25172 0.0
H18 H 0.7528 0.59329 0.3343 0.0
H19 H 1.00634 0.79526 0.12772 0.0
C20 C 1.00832 0.80225 0.18107 0.0
C21 C 0.01976 0.82504 0.18058 0.0
C22 C 0.9987 0.78913 0.24925 0.0
H23 H 0.02881 0.85327 0.24667 0.0
C24 C 0.02123 0.83502 0.2481 0.0
C25 C 1.01098 0.82306 0.31575 0.0
C26 C 1.00002 0.79998 0.31661 0.0
C27 C 0.98618 0.76494 0.249 0.0
H28 H 0.99257 0.79073 0.36978 0.0
C29 C 0.99304 0.74889 0.19758 0.0
C30 C 0.98055 0.72657 0.19576 0.0
C31 C 0.96669 0.75796 0.29906 0.0
H32 H 0.96018 0.76988 0.3376 0.0
C33 C 0.95482 0.73562 0.2992 0.0
H34 H 1.00788 0.75385 0.15828 0.0
C35 C 0.96166 0.72003 0.24833 0.0
H36 H 0.95208 0.70277 0.25034 0.0
H37 H 0.94001 0.73045 0.33853 0.0
H38 H 0.75144 1.01404 0.03102 0.0
C39 C 0.74393 1.01716 0.08513 0.0
C40 C 0.72133 0.02846 0.08703 0.0
C41 C 0.75598 1.00838 0.1534 0.0
H42 H 0.69304 0.03875 0.15871 0.0
C43 C 0.7111 0.03137 0.15723 0.0
C44 C 0.72221 0.02207 0.22575 0.0
C45 C 0.74478 1.01075 0.22369 0.0
C46 C 0.77868 0.99408 0.15181 0.0
H47 H 0.75328 1.00328 0.27678 0.0
C48 C 0.79774 1.00184 0.1001 0.0
C49 C 0.81862 0.98737 0.09811 0.0
C50 C 0.78093 0.97182 0.20134 0.0
H51 H 0.76651 0.96509 0.2406 0.0
C52 C 0.80153 0.95763 0.19979 0.0
H53 H 0.79629 0.01892 0.06142 0.0
C54 C 0.82021 0.96527 0.14869 0.0
H55 H 0.8361 0.95394 0.14929 0.0
H56 H 0.803 0.94053 0.23825 0.0
H57 H 0.53164 0.7375 0.04459 0.0
C58 C 0.52914 0.72769 0.1017 0.0
C59 C 0.51865 0.70407 0.11238 0.0
C60 C 0.53782 0.7379 0.16455 0.0
H61 H 0.50921 0.67253 0.19462 0.0
C62 C 0.51631 0.69114 0.18622 0.0
C63 C 0.52547 0.70057 0.24877 0.0
C64 C 0.53621 0.72394 0.23803 0.0
C65 C 0.55126 0.76167 0.15321 0.0
H66 H 0.54376 0.73101 0.28654 0.0
C67 C 0.54155 0.78328 0.11168 0.0
C68 C 0.55446 0.80574 0.10564 0.0
C69 C 0.57423 0.76268 0.18573 0.0
H70 H 0.58227 0.74636 0.21677 0.0
C71 C 0.58722 0.78461 0.17811 0.0
H72 H 0.52378 0.7828 0.08686 0.0
C73 C 0.57743 0.80596 0.1388 0.0
H74 H 0.58796 0.82275 0.13403 0.0
H75 H 0.60494 0.78509 0.20316 0.0
H76 H 0.2322 0.54142 0.37362 0.0
C77 C 0.22193 0.535 0.32875 0.0
C78 C 0.19702 0.53118 0.33864 0.0
C79 C 0.23321 0.53163 0.25967 0.0
H80 H 0.16398 0.52115 0.28864 0.0
C81 C 0.18334 0.5236 0.28071 0.0
C82 C 0.19395 0.52027 0.21168 0.0
C83 C 0.2189 0.52433 0.20106 0.0
C84 C 0.25956 0.53693 0.24741 0.0
H85 H 0.22704 0.52167 0.1474 0.0
C86 C 0.27628 0.53149 0.30725 0.0
C87 C 0.30106 0.53703 0.29546 0.0
C88 C 0.2681 0.54805 0.17564 0.0
H89 H 0.25584 0.55309 0.12885 0.0
C90 C 0.29258 0.5534 0.16359 0.0
H91 H 0.27013 0.52258 0.3626 0.0
C92 C 0.30894 0.54799 0.22283 0.0
H93 H 0.32775 0.55288 0.21205 0.0
H94 H 0.29886 0.56209 0.10819 0.0
H95 H 1.01344 0.25262 0.38114 0.0
C96 C 0.02073 0.24498 0.33321 0.0
C97 C 0.02683 0.22018 0.34308 0.0
C98 C 0.02297 0.25953 0.26112 0.0
H99 H 0.03915 0.19025 0.28912 0.0
C100 C 0.03533 0.20973 0.28141 0.0
C101 C 0.03677 0.2234 0.20868 0.0
C102 C 0.03064 0.24836 0.19841 0.0
C103 C 1.01561 0.28578 0.25127 0.0
H104 H 0.0317 0.25886 0.14186 0.0
C105 C 0.0203 0.30045 0.30835 0.0
C106 C 1.0119 0.32476 0.30161 0.0
C107 C 1.00281 0.29602 0.18634 0.0
H108 H 0.99844 0.28525 0.14212 0.0
C109 C 0.99469 0.32009 0.17881 0.0
H110 H 0.03068 0.29297 0.35771 0.0
C111 C 0.999 0.3343 0.23594 0.0
H112 H 0.99173 0.35263 0.22914 0.0
H113 H 0.98458 0.32765 0.12895 0.0
H114 H 0.29429 0.02203 0.51173 0.0
C115 C 0.30194 0.02735 0.45534 0.0
C116 C 0.32584 0.03625 0.44731 0.0
C117 C 0.28844 0.02403 0.39057 0.0
H118 H 0.35465 0.04804 0.36798 0.0
C119 C 0.33586 0.04233 0.3743 0.0
C120 C 0.32313 0.03849 0.3096 0.0
C121 C 0.29941 0.02933 0.31775 0.0
C122 C 0.26386 1.01273 0.39882 0.0
H123 H 0.2897 0.02595 0.26758 0.0
C124 C 0.24583 0.02113 0.44519 0.0
C125 C 0.22243 1.01068 0.44869 0.0
C126 C 0.2583 0.99334 0.35869 0.0
H127 H 0.27184 0.98619 0.32391 0.0
C128 C 0.23531 0.98279 0.36328 0.0
H129 H 0.24971 0.03615 0.47614 0.0
C130 C 0.21744 0.99149 0.40744 0.0
H131 H 0.19959 0.98323 0.40942 0.0
H132 H 0.23127 0.9679 0.33202 0.0
H133 H 0.53301 0.30573 0.50144 0.0
C134 C 0.52706 0.31571 0.44766 0.0
C135 C 0.51758 0.33936 0.44524 0.0
C136 C 0.52989 0.30553 0.37993 0.0
H137 H 0.5049 0.37146 0.37343 0.0
C138 C 0.51095 0.35273 0.37532 0.0
C139 C 0.51409 0.34339 0.30725 0.0
C140 C 0.52336 0.31966 0.30983 0.0
C141 C 0.54199 0.2814 0.38063 0.0
H142 H 0.52587 0.31242 0.25702 0.0
C143 C 0.5366 0.26076 0.43615 0.0
C144 C 0.54877 0.23833 0.43525 0.0
C145 C 0.55968 0.2792 0.32499 0.0
H146 H 0.56468 0.29472 0.28277 0.0
C147 C 0.57145 0.25714 0.32349 0.0
H148 H 0.52313 0.26214 0.47968 0.0
C149 C 0.56605 0.23689 0.37774 0.0
H150 H 0.57533 0.21991 0.37417 0.0
H151 H 0.58491 0.25572 0.28002 0.0
Co152 Co 0.02758 0.03062 0.81569 0.0
C153 C 0.9776 0.01914 0.81842 0.0
Co154 Co 1.01398 1.0152 0.71552 0.0
C155 C 0.04325 0.06848 0.90222 0.0
C156 C 0.03177 0.03559 0.97345 0.0
N157 N 0.03645 0.04496 0.90022 0.0
N158 N 0.04223 0.07428 0.97324 0.0
C159 C 0.03519 0.05356 0.01827 0.0
H160 H 0.04678 0.08174 0.85201 0.0
H161 H 0.0244 1.01748 0.99236 0.0
C162 C 0.06384 0.02653 0.71185 0.0
N163 N 1.00504 1.00092 0.63067 0.0
C164 C 1.00042 0.97697 0.62735 0.0
C165 C 1.00666 1.0115 0.55725 0.0
N166 N 0.99984 0.97212 0.55518 0.0
C167 C 1.00351 0.99391 0.51094 0.0
C168 C 1.01181 0.06549 0.69603 0.0
O169 O 0.06009 0.03324 0.77645 0.0
O170 O 0.04618 0.01844 0.67717 0.0
O171 O 1.00681 0.04711 0.66352 0.0
O172 O 0.0208 0.06199 0.7621 0.0
O173 O 0.98189 1.01205 0.7548 0.0
H174 H 1.01156 0.03044 0.53832 0.0
H175 H 0.99938 0.96293 0.67673 0.0
O176 O 0.99489 0.02779 0.85346 0.0
O177 O 0.03438 0.99881 0.86843 0.0
O178 O 0.02136 0.98381 0.76882 0.0
C179 C 0.03009 0.9804 0.8353 0.0
H180 H 0.03131 0.05196 0.07858 0.0
H181 H 1.00511 0.99675 0.44952 0.0
Co182 Co 0.51494 0.02701 0.82844 0.0
C183 C 0.52194 0.9763 0.8335 0.0
Co184 Co 0.5305 1.01652 0.72321 0.0
C185 C 0.47683 0.04018 0.92759 0.0
C186 C 0.50883 0.02822 0.98847 0.0
N187 N 0.50008 0.0339 0.9174 0.0
N188 N 0.47064 0.03798 0.0019 0.0
C189 C 0.49081 0.03064 0.04033 0.0
H190 H 0.46406 0.04434 0.88176 0.0
H191 H 0.52662 0.02098 0.002 0.0
C192 C 0.52399 0.06719 0.71827 0.0
N193 N 0.54568 1.00893 0.63621 0.0
C194 C 0.56777 1.01683 0.61001 0.0
C195 C 0.53893 0.9925 0.59139 0.0
N196 N 0.5754 1.00571 0.55162 0.0
C197 C 0.55711 0.9905 0.53938 0.0
C198 C 0.48106 1.01771 0.7196 0.0
O199 O 0.51468 0.06106 0.78429 0.0
O200 O 0.53218 0.05054 0.68293 0.0
O201 O 0.4994 1.01454 0.67887 0.0
O202 O 0.48415 0.02247 0.78647 0.0
O203 O 0.52888 0.98248 0.76486 0.0
H204 H 0.52228 0.98201 0.59791 0.0
H205 H 0.57853 0.0297 0.63596 0.0
O206 O 0.51539 0.99296 0.87137 0.0
O207 O 0.54636 0.03157 0.86898 0.0
O208 O 0.56112 0.01873 0.76784 0.0
C209 C 0.56454 0.02626 0.83078 0.0
H210 H 0.4921 0.0261 0.10156 0.0
H211 H 0.55693 0.9784 0.4969 0.0
Co212 Co 0.53771 0.52162 0.7841 0.0
C213 C 0.51338 0.49026 0.89764 0.0
Co214 Co 0.49798 0.52192 0.77122 0.0
C215 C 0.58363 0.5247 0.85919 0.0
C216 C 0.5879 0.51753 0.74494 0.0
N217 N 0.57101 0.52128 0.79676 0.0
N218 N 0.60773 0.52319 0.84849 0.0
C219 C 0.61043 0.51863 0.77655 0.0
H220 H 0.57523 0.52803 0.91175 0.0
H221 H 0.58407 0.51437 0.68763 0.0
C222 C 0.5225 0.55321 0.65756 0.0
N223 N 0.46471 0.52228 0.75819 0.0
C224 C 0.45251 0.52197 0.69277 0.0
C225 C 0.4475 0.52328 0.81147 0.0
N226 N 0.42832 0.52278 0.70286 0.0
C227 C 0.42516 0.52357 0.77775 0.0
C228 C 0.51495 0.55798 0.85032 0.0
O229 O 0.54112 0.54492 0.69391 0.0
O230 O 0.50182 0.54478 0.67993 0.0
O231 O 0.49593 0.54877 0.82619 0.0
O232 O 0.53523 0.54821 0.84055 0.0
O233 O 0.49463 0.4989 0.86261 0.0
H234 H 0.45099 0.524 0.87088 0.0
H235 H 0.46131 0.52102 0.63881 0.0
O236 O 0.53403 0.49848 0.87413 0.0
O237 O 0.53965 0.4948 0.72725 0.0
O238 O 0.5002 0.49519 0.71709 0.0
C239 C 0.52029 0.48539 0.70592 0.0
H240 H 0.6275 0.51676 0.74811 0.0
H241 H 0.40797 0.5248 0.8061 0.0
Co242 Co 0.01915 0.54158 0.76704 0.0
C243 C 0.05105 0.51614 0.87298 0.0
Co244 Co 0.02021 0.50136 0.76895 0.0
C245 C 1.01445 0.58511 0.83714 0.0
C246 C 0.02209 0.59407 0.71806 0.0
N247 N 0.0184 0.57491 0.77372 0.0
N248 N 1.01552 0.60985 0.82348 0.0
C249 C 0.02041 0.61555 0.74849 0.0
H250 H 1.01117 0.57452 0.89268 0.0
H251 H 0.02575 0.59252 0.65916 0.0
C252 C 0.9881 0.52638 0.66387 0.0
N253 N 0.02085 0.46808 0.76189 0.0
C254 C 0.02301 0.45808 0.69734 0.0
C255 C 0.01794 0.44882 0.81768 0.0
N256 N 0.02139 0.43338 0.71034 0.0
C257 C 0.01815 0.42747 0.78612 0.0
C258 C 0.98434 0.5151 0.86002 0.0
O259 O 0.99616 0.54575 0.68612 0.0
O260 O 0.99704 0.50582 0.69091 0.0
O261 O 0.9943 0.49621 0.84118 0.0
O262 O 0.99307 0.53618 0.83599 0.0
O263 O 0.04338 0.49719 0.84759 0.0
H264 H 1.01542 0.45023 0.87723 0.0
H265 H 0.02494 0.46882 0.64139 0.0
O266 O 0.04203 0.53691 0.84778 0.0
O267 O 0.04522 0.54667 0.69718 0.0
O268 O 0.04593 0.50697 0.69697 0.0
C269 C 0.05477 0.52818 0.67464 0.0
H270 H 0.02221 0.63393 0.71753 0.0
H271 H 1.01605 0.40905 0.81657 0.0
H272 H 0.1838 0.03645 0.39083 0.0
H273 H 0.21532 1.00417 0.60298 0.0
H274 H 0.14657 0.04403 0.4572 0.0
H275 H 0.17769 1.01106 0.67012 0.0
H276 H 0.10747 0.03887 0.77139 0.0
H277 H 0.14752 0.03944 0.71103 0.0
H278 H 0.11525 1.01665 0.51231 0.0
H279 H 0.07574 1.01644 0.57127 0.0
C280 C 0.18287 0.0315 0.45213 0.0
C281 C 0.20239 0.01988 0.49194 0.0
C282 C 0.16146 0.03556 0.49016 0.0
C283 C 0.15889 0.02774 0.56896 0.0
C284 C 0.17903 1.01743 0.60956 0.0
C285 C 0.2006 1.0135 0.5713 0.0
C286 C 0.10899 0.03416 0.71461 0.0
C287 C 0.08832 0.02766 0.67628 0.0
C288 C 0.13194 0.03438 0.68015 0.0
C289 C 0.13467 0.02832 0.60638 0.0
C290 C 0.11391 0.02195 0.56838 0.0
C291 C 0.09116 0.02163 0.60267 0.0
H292 H 0.50486 0.21854 0.48932 0.0
H293 H 0.58168 0.20723 0.5099 0.0
H294 H 0.49764 0.178 0.56514 0.0
H295 H 0.57448 0.16694 0.58359 0.0
H296 H 0.55208 0.08616 0.5972 0.0
H297 H 0.5568 0.12873 0.53908 0.0
H298 H 0.5055 0.15056 0.69904 0.0
H299 H 0.50088 0.10754 0.75863 0.0
C300 C 0.52016 0.20769 0.51126 0.0
C301 C 0.54385 0.21598 0.49229 0.0
C302 C 0.51603 0.18445 0.55445 0.0
C303 C 0.5355 0.16908 0.57904 0.0
C304 C 0.55909 0.1781 0.56413 0.0
C305 C 0.5632 0.20123 0.52183 0.0
C306 C 0.54173 0.09993 0.62024 0.0
C307 C 0.52614 0.09336 0.68287 0.0
C308 C 0.54454 0.1244 0.58706 0.0
C309 C 0.53166 0.14307 0.61476 0.0
C310 C 0.51565 0.13658 0.67641 0.0
C311 C 0.5131 0.11198 0.71066 0.0
H312 H 0.34654 0.51835 0.28992 0.0
H313 H 0.29585 0.54464 0.44375 0.0
H314 H 0.37692 0.51363 0.38937 0.0
H315 H 0.32632 0.53995 0.54349 0.0
H316 H 0.3813 0.50875 0.72406 0.0
H317 H 0.34999 0.51042 0.62774 0.0
H318 H 0.40184 0.5399 0.45488 0.0
H319 H 0.43308 0.53829 0.55095 0.0
C320 C 0.34188 0.52315 0.34501 0.0
C321 C 0.31879 0.53207 0.35858 0.0
C322 C 0.35933 0.52049 0.40205 0.0
C323 C 0.3542 0.52665 0.47431 0.0
C324 C 0.33085 0.53482 0.48874 0.0
C325 C 0.31336 0.53749 0.43156 0.0
C326 C 0.38602 0.51573 0.66564 0.0
C327 C 0.40982 0.52336 0.64556 0.0
C328 C 0.36803 0.51668 0.61032 0.0
C329 C 0.37335 0.52524 0.53341 0.0
C330 C 0.39715 0.53278 0.51332 0.0
C331 C 0.41513 0.53185 0.56857 0.0
H332 H 0.02079 0.37433 0.28688 0.0
H333 H 1.01195 0.31007 0.45686 0.0
H334 H 0.02356 0.39976 0.38632 0.0
H335 H 0.01661 0.33535 0.55674 0.0
H336 H 0.99683 0.39056 0.71491 0.0
H337 H 0.99604 0.36387 0.61763 0.0
H338 H 0.04703 0.41201 0.48218 0.0
H339 H 0.04696 0.43904 0.57857 0.0
C340 C 0.01957 0.36553 0.34549 0.0
C341 C 1.01586 0.34004 0.36331 0.0
C342 C 0.02157 0.38016 0.40292 0.0
C343 C 0.02028 0.36977 0.48019 0.0
C344 C 0.01728 0.34418 0.4981 0.0
C345 C 1.015 0.32955 0.44055 0.0
C346 C 1.00799 0.39529 0.66457 0.0
C347 C 0.02186 0.41698 0.65429 0.0
C348 C 1.00764 0.37993 0.6087 0.0
C349 C 0.02142 0.38566 0.54137 0.0
C350 C 0.03573 0.40714 0.53216 0.0
C351 C 0.0358 0.42266 0.58759 0.0
H352 H 0.8419 0.95949 0.00691 0.0
H353 H 0.84211 0.0319 0.07019 0.0
H354 H 0.87901 0.96917 0.93403 0.0
H355 H 0.87928 0.04187 0.99582 0.0
H356 H 0.96189 0.03471 0.94944 0.0
H357 H 0.92189 0.02947 0.00812 0.0
H358 H 0.8971 0.99376 0.82254 0.0
H359 H 0.93719 0.99873 0.76419 0.0
C360 C 0.84974 0.97765 0.00429 0.0
C361 C 0.83914 0.99488 0.04476 0.0
C362 C 0.87096 0.98326 0.96204 0.0
C363 C 0.88229 1.00626 0.95929 0.0
C364 C 0.8712 0.02387 -0.00256 0.0
C365 C 0.84977 0.01828 0.03936 0.0
C366 C 0.94789 0.02585 0.92084 0.0
C367 C 0.95287 1.017 0.85224 0.0
C368 C 0.92486 0.02303 0.95427 0.0
C369 C 0.90621 1.01116 0.92023 0.0
C370 C 0.91108 1.00275 0.85083 0.0
C371 C 0.93407 1.00567 0.81719 0.0
H372 H 0.53376 0.81585 0.96381 0.0
H373 H 0.55303 0.84922 0.15956 0.0
H374 H 0.5224 0.8562 0.89585 0.0
H375 H 0.54236 0.88923 0.09207 0.0
H376 H 0.50666 0.95704 0.97696 0.0
H377 H 0.51015 0.91503 0.0411 0.0
H378 H 0.54254 0.89429 0.83892 0.0
H379 H 0.53853 0.93633 0.774 0.0
C380 C 0.53521 0.83172 0.99266 0.0
C381 C 0.54443 0.82935 0.06688 0.0
C382 C 0.52897 0.85488 0.95353 0.0
C383 C 0.53155 0.87612 0.98816 0.0
C384 C 0.53984 0.87341 0.06355 0.0
C385 C 0.54616 0.85043 0.10221 0.0
C386 C 0.51434 0.94351 0.9458 0.0
C387 C 0.5225 0.9502 0.87038 0.0
C388 C 0.51645 0.91937 0.9828 0.0
C389 C 0.52686 0.90118 0.94565 0.0
C390 C 0.53423 0.90767 0.86926 0.0
C391 C 0.53208 0.93187 0.83211 0.0
H392 H 0.72945 0.51134 0.16138 0.0
H393 H 0.71108 0.58809 0.12016 0.0
H394 H 0.69683 0.50248 0.07728 0.0
H395 H 0.67839 0.57914 0.0377 0.0
H396 H 0.60631 0.55107 0.96162 0.0
H397 H 0.63885 0.55796 0.048 0.0
H398 H 0.68508 0.51039 0.94093 0.0
H399 H 0.65233 0.5031 0.85556 0.0
C400 C 0.71863 0.52635 0.13407 0.0
C401 C 0.72285 0.55042 0.14824 0.0
C402 C 0.69988 0.52125 0.08603 0.0
C403 C 0.68484 0.54008 0.05136 0.0
C404 C 0.68928 0.56414 0.06474 0.0
C405 C 0.70806 0.56925 0.1122 0.0
C406 C 0.6233 0.54185 0.95707 0.0
C407 C 0.6267 0.52659 0.90143 0.0
C408 C 0.64205 0.54599 0.00608 0.0
C409 C 0.66463 0.53483 0.00111 0.0
C410 C 0.66788 0.51916 0.94658 0.0
C411 C 0.64918 0.51517 0.89714 0.0
H412 H 0.94932 0.7003 0.1198 0.0
H413 H 0.02536 0.71584 0.14066 0.0
H414 H 0.95869 0.67209 0.03146 0.0
H415 H 0.03462 0.68797 0.04983 0.0
H416 H 0.03567 0.65492 0.8213 0.0
H417 H 0.02805 0.68371 0.91074 0.0
H418 H 0.97894 0.63144 0.03738 0.0
H419 H 0.98637 0.60286 0.94783 0.0
C420 C 0.96808 0.69761 0.10612 0.0
C421 C 0.98658 0.71021 0.13854 0.0
C422 C 0.97342 0.68145 0.05511 0.0
C423 C 0.9974 0.67761 0.03411 0.0
C424 C 1.01594 0.69064 0.06464 0.0
C425 C 1.01061 0.70668 0.11653 0.0
C426 C 0.02321 0.64963 0.86814 0.0
C427 C 1.01159 0.62661 0.87731 0.0
C428 C 0.01902 0.66602 0.91972 0.0
C429 C 1.00284 0.65989 0.981 0.0
C430 C 0.99135 0.63681 0.99038 0.0
C431 C 0.99576 0.62033 0.93944 0.0
H432 H 0.9832 0.20243 0.39378 0.0
H433 H 0.059 0.19964 0.44733 0.0
H434 H 0.97567 0.16657 0.49091 0.0
H435 H 0.05155 0.16413 0.54532 0.0
H436 H 0.0275 0.10764 0.74292 0.0
H437 H 0.02807 0.14878 0.67066 0.0
H438 H 0.9909 0.12209 0.48654 0.0
H439 H 0.99056 0.08064 0.55834 0.0
C440 C 0.99802 0.19469 0.42869 0.0
C441 C 0.02159 0.20377 0.41442 0.0
C442 C 0.99379 0.17411 0.48343 0.0
C443 C 1.01305 0.1626 0.52513 0.0
C444 C 0.03636 0.17284 0.51442 0.0
C445 C 0.04064 0.19314 0.45882 0.0
C446 C 0.01913 0.11051 0.68749 0.0
C447 C 1.0092 0.09079 0.65595 0.0
C448 C 0.01949 0.1341 0.64626 0.0
C449 C 1.00958 0.13854 0.57322 0.0
C450 C 0.99847 0.11914 0.54319 0.0
C451 C 0.9984 0.09542 0.58404 0.0
H452 H 0.33412 0.99815 0.56111 0.0
H453 H 0.35609 0.07259 0.47731 0.0
H454 H 0.37079 0.99266 0.63837 0.0
H455 H 0.39293 0.06677 0.55239 0.0
H456 H 0.46773 0.02564 0.57052 0.0
H457 H 0.42678 0.03123 0.52047 0.0
H458 H 0.39755 1.0161 0.74828 0.0
H459 H 0.43858 1.01109 0.79906 0.0
C460 C 0.34622 1.01363 0.56172 0.0
C461 C 0.34239 0.03573 0.51275 0.0
C462 C 0.36729 1.01039 0.6052 0.0
C463 C 0.38476 0.02914 0.59961 0.0
C464 C 0.3798 0.05196 0.5566 0.0
C465 C 0.35868 0.05532 0.51424 0.0
C466 C 0.4526 0.0232 0.60988 0.0
C467 C 0.45636 0.01798 0.68861 0.0
C468 C 0.42923 0.02658 0.58134 0.0
C469 C 0.40919 0.02431 0.63084 0.0
C470 C 0.41278 0.01801 0.70926 0.0
C471 C 0.43621 1.01514 0.73803 0.0
H472 H 0.47898 0.36062 0.50105 0.0
H473 H 0.55524 0.34914 0.53465 0.0
H474 H 0.48033 0.39418 0.57409 0.0
H475 H 0.55665 0.38214 0.6123 0.0
H476 H 0.5567 0.46498 0.63133 0.0
H477 H 0.55612 0.42517 0.5869 0.0
H478 H 0.48453 0.41108 0.68305 0.0
H479 H 0.48463 0.45125 0.72211 0.0
C480 C 0.49584 0.3646 0.52747 0.0
C481 C 0.517 0.35239 0.51208 0.0
C482 C 0.49671 0.38395 0.56947 0.0
C483 C 0.51874 0.39137 0.59826 0.0
C484 C 0.53949 0.37742 0.58933 0.0
C485 C 0.53863 0.35814 0.54634 0.0
C486 C 0.54083 0.45335 0.64217 0.0
C487 C 0.5205 0.46146 0.6783 0.0
C488 C 0.54057 0.43035 0.61781 0.0
C489 C 0.52018 0.41476 0.6308 0.0
C490 C 0.5003 0.42268 0.66992 0.0
C491 C 0.50034 0.4458 0.69238 0.0
H492 H 0.16999 0.5706 0.35238 0.0
H493 H 0.19305 0.5013 0.47402 0.0
H494 H 0.13702 0.57169 0.44317 0.0
H495 H 0.16037 0.50246 0.56675 0.0
H496 H 0.0823 0.5696 0.63505 0.0
H497 H 0.12138 0.57302 0.56997 0.0
H498 H 0.11754 0.49616 0.54854 0.0
H499 H 0.07888 0.49262 0.61477 0.0
C500 C 0.16864 0.55623 0.40104 0.0
C501 C 0.184 0.53598 0.40704 0.0
C502 C 0.14971 0.55675 0.45286 0.0
C503 C 0.14579 0.53691 0.5113 0.0
C504 C 0.16266 0.51777 0.52134 0.0
C505 C 0.18159 0.51726 0.46928 0.0
C506 C 0.08977 0.55347 0.61609 0.0
C507 C 0.07742 0.53086 0.62972 0.0
C508 C 0.1122 0.55542 0.57913 0.0
C509 C 0.12275 0.5348 0.555 0.0
C510 C 0.11025 0.51227 0.56812 0.0
C511 C 0.08789 0.51031 0.60512 0.0
H512 H 0.99301 0.83791 0.05321 0.0
H513 H 0.06287 0.84853 0.14965 0.0
H514 H 1.00012 0.87367 0.9567 0.0
H515 H 0.07011 0.88428 0.05296 0.0
H516 H 0.02132 0.93756 0.78035 0.0
H517 H 0.02386 0.89596 0.84873 0.0
H518 H 0.04993 0.9244 0.04682 0.0
H519 H 0.04752 0.96601 0.97851 0.0
C520 C 1.01032 0.84725 0.05159 0.0
C521 C 0.02728 0.84069 0.10919 0.0
C522 C 1.01438 0.86781 -0.00344 0.0
C523 C 0.03547 0.88208 -0.00157 0.0
C524 C 0.05349 0.87393 0.0512 0.0
C525 C 0.04945 0.85338 0.10603 0.0
C526 C 0.02785 0.93496 0.83823 0.0
C527 C 0.03397 0.95514 0.87435 0.0
C528 C 0.02929 0.9111 0.87729 0.0
C529 C 0.03707 0.9069 0.95305 0.0
C530 C 0.04419 0.92701 0.98805 0.0
C531 C 0.04263 0.95088 0.94914 0.0
H532 H 0.69696 0.07023 0.0348 0.0
H533 H 0.70859 0.99634 0.99211 0.0
H534 H 0.65996 0.07221 0.96022 0.0
H535 H 0.67166 0.99826 0.91742 0.0
H536 H 0.57975 0.04581 0.95552 0.0
H537 H 0.62123 0.04996 -0.00201 0.0
H538 H 0.64742 1.01747 0.80724 0.0
H539 H 0.60608 1.01318 0.76493 0.0
C540 C 0.6921 0.0548 0.00672 0.0
C541 C 0.70551 0.03307 0.01961 0.0
C542 C 0.67077 0.0558 0.965 0.0
C543 C 0.66259 0.03517 0.93476 0.0
C544 C 0.67747 1.01445 0.9402 0.0
C545 C 0.69877 1.01341 0.98236 0.0
C546 C 0.59435 0.03963 0.92257 0.0
C547 C 0.58957 0.02905 0.8572 0.0
C548 C 0.61813 0.04223 0.94637 0.0
C549 C 0.63761 0.03419 0.90555 0.0
C550 C 0.63281 0.02377 0.83993 0.0
C551 C 0.60909 0.02132 0.81584 0.0
H552 H 0.5493 0.69738 -0.00293 0.0
H553 H 0.47805 0.67841 0.08733 0.0
H554 H 0.54709 0.66397 0.92163 0.0
H555 H 0.47608 0.6445 0.01469 0.0
H556 H 0.47602 0.58782 0.85601 0.0
H557 H 0.47494 0.62761 0.89941 0.0
H558 H 0.55026 0.62056 0.95998 0.0
H559 H 0.55151 0.58119 0.91443 0.0
C560 C 0.5328 0.68666 -0.00148 0.0
C561 C 0.51391 0.69036 0.04839 0.0
C562 C 0.5317 0.66718 0.95652 0.0
C563 C 0.5117 0.65106 0.96376 0.0
C564 C 0.49179 0.65643 0.00761 0.0
C565 C 0.49286 0.67593 0.04924 0.0
C566 C 0.49233 0.59472 0.87892 0.0
C567 C 0.51382 0.58123 0.88224 0.0
C568 C 0.49172 0.61759 0.90363 0.0
C569 C 0.51255 0.62748 0.93262 0.0
C570 C 0.53399 0.61385 0.93632 0.0
C571 C 0.53464 0.59107 0.91122 0.0
H572 H 0.85697 0.5583 0.07355 0.0
H573 H 0.8555 0.48005 0.14174 0.0
H574 H 0.88982 0.55437 0.9856 0.0
H575 H 0.88754 0.47555 0.04993 0.0
H576 H 0.96832 0.48204 0.98144 0.0
H577 H 0.9291 0.48197 0.04556 0.0
H578 H 0.90691 0.54306 0.87905 0.0
H579 H 0.94653 0.5441 0.81978 0.0
C580 C 0.86288 0.54012 0.06639 0.0
C581 C 0.85371 0.51948 0.11358 0.0
C582 C 0.88185 0.53776 0.01611 0.0
C583 C 0.89178 0.5146 0.0112 0.0
C584 C 0.88088 0.49372 0.05354 0.0
C585 C 0.86219 0.49618 0.10495 0.0
C586 C 0.95495 0.49539 0.95921 0.0
C587 C 0.96052 0.51346 0.89734 0.0
C588 C 0.93234 0.49524 0.9951 0.0
C589 C 0.91472 0.51273 0.96815 0.0
C590 C 0.92011 0.52982 0.90317 0.0
C591 C 0.94282 0.5304 0.869 0.0
H592 H 0.07798 0.20034 0.17656 0.0
H593 H 1.00477 0.21389 0.10232 0.0
H594 H 0.08048 0.16649 0.10221 0.0
H595 H 1.00702 0.17972 0.02928 0.0
H596 H 1.01083 0.09285 0.06504 0.0
H597 H 1.01121 0.1339 0.10022 0.0
H598 H 0.07522 0.15202 0.96311 0.0
H599 H 0.07445 0.11071 0.92623 0.0
C600 C 0.06285 0.19677 0.14141 0.0
C601 C 0.04127 0.20982 0.14438 0.0
C602 C 0.06422 0.17735 0.09926 0.0
C603 C 0.04385 0.17036 0.06076 0.0
C604 C 0.02294 0.18472 0.05871 0.0
C605 C 0.02173 0.20441 0.09973 0.0
C606 C 0.02498 0.10558 0.04242 0.0
C607 C 0.04277 0.09856 0.99363 0.0
C608 C 0.02503 0.12916 0.06175 0.0
C609 C 0.04312 0.14619 0.03383 0.0
C610 C 0.06101 0.13925 0.98504 0.0
C611 C 0.06061 0.11572 0.96413 0.0
H612 H 0.33352 1.00196 0.22864 0.0
H613 H 0.34531 0.07904 0.23222 0.0
H614 H 0.36713 1.00192 0.13857 0.0
H615 H 0.37875 0.07915 0.14154 0.0
H616 H 0.43486 0.06962 0.95326 0.0
H617 H 0.39411 0.07061 0.0087 0.0
H618 H 0.41145 1.0079 0.17482 0.0
H619 H 0.45186 1.00714 0.1203 0.0
C620 C 0.34256 0.01912 0.20729 0.0
C621 C 0.3368 0.04052 0.23699 0.0
C622 C 0.36197 0.01905 0.15654 0.0
C623 C 0.37575 0.04046 0.13391 0.0
C624 C 0.36841 0.06241 0.15769 0.0
C625 C 0.34922 0.06239 0.2093 0.0
C626 C 0.42981 0.05605 0.00139 0.0
C627 C 0.44659 0.03851 0.03312 0.0
C628 C 0.40657 0.05659 0.03299 0.0
C629 C 0.39954 0.03918 0.0956 0.0
C630 C 0.4162 0.02133 0.12592 0.0
C631 C 0.43946 0.02111 0.09542 0.0
H632 H 0.54495 0.35279 0.18546 0.0
H633 H 0.47554 0.37294 0.26703 0.0
H634 H 0.54339 0.3874 0.08222 0.0
H635 H 0.4743 0.40799 0.16596 0.0
H636 H 0.47336 0.46228 0.94436 0.0
H637 H 0.47175 0.42401 0.03332 0.0
H638 H 0.54792 0.43103 0.0769 0.0
H639 H 0.54964 0.46886 0.98689 0.0
C640 C 0.52907 0.36422 0.18011 0.0
C641 C 0.51044 0.36022 0.23461 0.0
C642 C 0.52834 0.38434 0.12178 0.0
C643 C 0.50897 0.40088 0.11667 0.0
C644 C 0.48951 0.39573 0.16788 0.0
C645 C 0.49023 0.37563 0.226 0.0
C646 C 0.48971 0.45579 0.97357 0.0
C647 C 0.51162 0.46872 0.95858 0.0
C648 C 0.4888 0.43377 0.02446 0.0
C649 C 0.50977 0.42418 0.06171 0.0
C650 C 0.53153 0.43748 0.04794 0.0
C651 C 0.53245 0.45941 -0.00299 0.0
H652 H 0.18905 0.54621 0.06959 0.0
H653 H 0.16155 0.48276 0.21768 0.0
H654 H 0.15525 0.54349 0.98306 0.0
H655 H 0.12765 0.48015 0.13227 0.0
H656 H 0.07601 0.4752 0.93381 0.0
H657 H 0.11349 0.47352 0.00606 0.0
H658 H 0.11192 0.55207 -0.00235 0.0
H659 H 0.0747 0.55383 0.9251 0.0
C660 C 0.17621 0.53122 0.08224 0.0
C661 C 0.17785 0.51471 0.15017 0.0
C662 C 0.15666 0.52987 0.03346 0.0
C663 C 0.13851 0.51187 0.05157 0.0
C664 C 0.14129 0.4942 0.11653 0.0
C665 C 0.16071 0.49566 0.16541 0.0
C666 C 0.08355 0.49209 0.94797 0.0
C667 C 0.07228 0.51464 0.92384 0.0
C668 C 0.10507 0.49112 0.98914 0.0
C669 C 0.11588 0.5127 0.00666 0.0
C670 C 0.10437 0.53517 0.98362 0.0
C671 C 0.08283 0.53613 0.94289 0.0
H672 H 0.04809 0.84347 0.38408 0.0
H673 H 0.97059 0.83543 0.38954 0.0
H674 H 0.04507 0.87767 0.45591 0.0
H675 H 0.96749 0.86979 0.46178 0.0
H676 H 0.97664 0.93058 0.62047 0.0
H677 H 0.9794 0.88969 0.582 0.0
H678 H 0.0279 0.91902 0.39922 0.0
H679 H 0.02516 0.95939 0.43721 0.0
C680 C 0.03047 0.84842 0.40337 0.0
C681 C 1.00957 0.83692 0.38093 0.0
C682 C 0.02871 0.86814 0.44379 0.0
C683 C 1.00601 0.87674 0.46286 0.0
C684 C 0.98522 0.86357 0.44772 0.0
C685 C 0.98699 0.84379 0.40687 0.0
C686 C 0.98785 0.92817 0.57211 0.0
C687 C 1.00053 0.94825 0.5315 0.0
C688 C 0.9894 0.90485 0.55013 0.0
C689 C 1.0041 0.90111 0.48824 0.0
C690 C 0.01672 0.92121 0.44791 0.0
C691 C 1.01487 0.94446 0.469 0.0
H692 H 0.69809 0.05933 0.27657 0.0
H693 H 0.71229 0.98203 0.33195 0.0
H694 H 0.66436 0.05512 0.3659 0.0
H695 H 0.67901 0.97781 0.42402 0.0
H696 H 0.59702 0.97359 0.4709 0.0
H697 H 0.63616 0.97793 0.40817 0.0
H698 H 0.64758 0.04685 0.49017 0.0
H699 H 0.60784 0.04321 0.54947 0.0
C700 C 0.69454 0.04159 0.3102 0.0
C701 C 0.7077 0.02099 0.2968 0.0
C702 C 0.67516 0.03913 0.36157 0.0
C703 C 0.66855 1.016 0.40119 0.0
C704 C 0.68321 0.9958 0.39309 0.0
C705 C 0.70259 0.99827 0.34138 0.0
C706 C 0.60768 0.98981 0.47519 0.0
C707 C 0.59894 1.00811 0.51512 0.0
C708 C 0.63045 0.99209 0.44021 0.0
C709 C 0.64523 1.01268 0.44434 0.0
C710 C 0.63668 0.03081 0.48522 0.0
C711 C 0.61386 0.0286 0.5199 0.0
H712 H 0.56477 0.67755 0.3138 0.0
H713 H 0.48807 0.68449 0.3434 0.0
H714 H 0.56495 0.64177 0.41281 0.0
H715 H 0.48813 0.64958 0.4457 0.0
H716 H 0.48895 0.56979 0.55036 0.0
H717 H 0.49054 0.60718 0.45832 0.0
H718 H 0.56138 0.62366 0.53919 0.0
H719 H 0.56018 0.58557 0.62826 0.0
C720 C 0.54813 0.67196 0.34406 0.0
C721 C 0.52648 0.68389 0.32202 0.0
C722 C 0.54814 0.65136 0.40067 0.0
C723 C 0.52647 0.64235 0.43698 0.0
C724 C 0.50507 0.65543 0.41785 0.0
C725 C 0.50504 0.67576 0.36036 0.0
C726 C 0.50499 0.58125 0.54768 0.0
C727 C 0.52448 0.5746 0.5963 0.0
C728 C 0.5058 0.60295 0.49558 0.0
C729 C 0.52596 0.61886 0.49161 0.0
C730 C 0.54563 0.6119 0.5396 0.0
C731 C 0.54497 0.58998 0.59085 0.0
H732 H 0.87354 0.48758 0.37657 0.0
H733 H 0.85452 0.56105 0.40783 0.0
H734 H 0.90741 0.48858 0.46125 0.0
H735 H 0.88783 0.56164 0.49741 0.0
H736 H 0.96778 0.56539 0.57097 0.0
H737 H 0.93069 0.56491 0.4968 0.0
H738 H 0.9209 0.48792 0.58329 0.0
H739 H 0.95823 0.48815 0.65244 0.0
C740 C 0.87624 0.50373 0.40347 0.0
C741 C 0.86148 0.52429 0.38504 0.0
C742 C 0.89566 0.5043 0.45261 0.0
C743 C 0.90065 0.52531 0.48609 0.0
C744 C 0.88489 0.54534 0.47153 0.0
C745 C 0.8655 0.54485 0.42139 0.0
C746 C 0.95777 0.54837 0.57308 0.0
C747 C 0.96625 0.52673 0.61618 0.0
C748 C 0.93633 0.54812 0.53147 0.0
C749 C 0.92273 0.5263 0.53338 0.0
C750 C 0.93107 0.50492 0.57835 0.0
C751 C 0.95259 0.50507 0.6183 0.0
loop_
_geom_bond_atom_site_label_1
_geom_bond_atom_site_label_2
_geom_bond_distance
_geom_bond_site_symmetry_2
_ccdc_geom_bond_type
H0 C1 0.949 . S
C1 H0 0.949 . S
C1 C2 1.395 . S
C1 C3 1.391 . S
C2 C1 1.395 . S
C2 C5 1.390 . S
C3 C1 1.391 . S
C3 C7 1.387 . S
C3 C8 1.491 . S
H4 C5 0.950 . S
C5 C2 1.390 . S
C5 H4 0.950 . S
C5 C6 1.378 . S
C6 C5 1.378 . S
C6 C7 1.409 . S
C7 C3 1.387 . S
C7 C6 1.409 . S
C7 H9 0.951 . S
C8 C3 1.491 . S
C8 C10 1.382 . S
C8 C12 1.404 . S
H9 C7 0.951 . S
C10 C8 1.382 . S
C10 C11 1.390 . S
C10 H15 0.949 . S
C11 C10 1.390 . S
C11 C16 1.399 . S
C12 C8 1.404 . S
C12 H13 0.950 . S
C12 C14 1.375 . S
H13 C12 0.950 . S
C14 C12 1.375 . S
C14 C16 1.382 . S
C14 H18 0.950 . S
H15 C10 0.949 . S
C16 C11 1.399 . S
C16 C14 1.382 . S
C16 H17 0.952 . S
H17 C16 0.952 . S
H18 C14 0.950 . S
H19 C20 0.949 . S
C20 H19 0.949 . S
C20 C21 1.395 . S
C20 C22 1.391 . S
C21 C20 1.395 . S
C21 C24 1.390 . S
C22 C20 1.391 . S
C22 C26 1.387 . S
C22 C27 1.491 . S
H23 C24 0.950 . S
C24 C21 1.390 . S
C24 H23 0.950 . S
C24 C25 1.378 . S
C25 C24 1.378 . S
C25 C26 1.409 . S
C26 C22 1.387 . S
C26 C25 1.409 . S
C26 H28 0.951 . S
C27 C22 1.491 . S
C27 C29 1.382 . S
C27 C31 1.404 . S
H28 C26 0.951 . S
C29 C27 1.382 . S
C29 C30 1.390 . S
C29 H34 0.949 . S
C30 C29 1.390 . S
C30 C35 1.399 . S
C31 C27 1.404 . S
C31 H32 0.950 . S
C31 C33 1.375 . S
H32 C31 0.950 . S
C33 C31 1.375 . S
C33 C35 1.382 . S
C33 H37 0.950 . S
H34 C29 0.949 . S
C35 C30 1.399 . S
C35 C33 1.382 . S
C35 H36 0.952 . S
H36 C35 0.952 . S
H37 C33 0.950 . S
H38 C39 0.949 . S
C39 H38 0.949 . S
C39 C40 1.401 1_556 S
C39 C41 1.391 1_556 S
C40 C39 1.401 1_554 S
C40 C43 1.384 1_565 S
C41 C39 1.391 1_554 S
C41 C45 1.387 . S
C41 C46 1.491 . S
H42 C43 0.957 . S
C43 C40 1.384 1_545 S
C43 H42 0.957 . S
C43 C44 1.380 1_545 S
C44 C43 1.380 1_565 S
C44 C45 1.409 . S
C45 C41 1.387 . S
C45 C44 1.409 . S
C45 H47 0.951 . S
C46 C41 1.491 . S
C46 C48 1.382 . S
C46 C50 1.404 . S
H47 C45 0.951 . S
C48 C46 1.382 . S
C48 C49 1.389 1_554 S
C48 H53 0.949 1_564 S
C49 C48 1.389 1_556 S
C49 C54 1.391 1_556 S
C50 C46 1.404 . S
C50 H51 0.950 . S
C50 C52 1.375 . S
H51 C50 0.950 . S
C52 C50 1.375 . S
C52 C54 1.382 . S
C52 H56 0.950 . S
H53 C48 0.949 1_546 S
C54 C49 1.391 1_554 S
C54 C52 1.382 . S
C54 H55 0.952 . S
H55 C54 0.952 . S
H56 C52 0.950 . S
H57 C58 0.949 . S
C58 H57 0.949 . S
C58 C59 1.395 . S
C58 C60 1.391 . S
C59 C58 1.395 . S
C59 C62 1.390 . S
C60 C58 1.391 . S
C60 C64 1.387 . S
C60 C65 1.491 . S
H61 C62 0.950 . S
C62 C59 1.390 . S
C62 H61 0.950 . S
C62 C63 1.378 . S
C63 C62 1.378 . S
C63 C64 1.409 . S
C64 C60 1.387 . S
C64 C63 1.409 . S
C64 H66 0.951 . S
C65 C60 1.491 . S
C65 C67 1.382 . S
C65 C69 1.404 . S
H66 C64 0.951 . S
C67 C65 1.382 . S
C67 C68 1.390 . S
C67 H72 0.949 . S
C68 C67 1.390 . S
C68 C73 1.399 . S
C69 C65 1.404 . S
C69 H70 0.950 . S
C69 C71 1.375 . S
H70 C69 0.950 . S
C71 C69 1.375 . S
C71 C73 1.382 . S
C71 H75 0.950 . S
H72 C67 0.949 . S
C73 C68 1.399 . S
C73 C71 1.382 . S
C73 H74 0.952 . S
H74 C73 0.952 . S
H75 C71 0.950 . S
H76 C77 0.949 . S
C77 H76 0.949 . S
C77 C78 1.395 . S
C77 C79 1.391 . S
C78 C77 1.395 . S
C78 C81 1.390 . S
C79 C77 1.391 . S
C79 C83 1.387 . S
C79 C84 1.491 . S
H80 C81 0.950 . S
C81 C78 1.390 . S
C81 H80 0.950 . S
C81 C82 1.378 . S
C82 C81 1.378 . S
C82 C83 1.409 . S
C83 C79 1.387 . S
C83 C82 1.409 . S
C83 H85 0.951 . S
C84 C79 1.491 . S
C84 C86 1.382 . S
C84 C88 1.404 . S
H85 C83 0.951 . S
C86 C84 1.382 . S
C86 C87 1.390 . S
C86 H91 0.949 . S
C87 C86 1.390 . S
C87 C92 1.399 . S
C88 C84 1.404 . S
C88 H89 0.950 . S
C88 C90 1.375 . S
H89 C88 0.950 . S
C90 C88 1.375 . S
C90 C92 1.382 . S
C90 H94 0.950 . S
H91 C86 0.949 . S
C92 C87 1.399 . S
C92 C90 1.382 . S
C92 H93 0.952 . S
H93 C92 0.952 . S
H94 C90 0.950 . S
H95 C96 0.949 . S
C96 H95 0.949 . S
C96 C97 1.395 . S
C96 C98 1.391 . S
C97 C96 1.395 . S
C97 C100 1.390 . S
C98 C96 1.391 . S
C98 C102 1.387 . S
C98 C103 1.491 . S
H99 C100 0.950 . S
C100 C97 1.390 . S
C100 H99 0.950 . S
C100 C101 1.378 . S
C101 C100 1.378 . S
C101 C102 1.409 . S
C102 C98 1.387 . S
C102 C101 1.409 . S
C102 H104 0.951 . S
C103 C98 1.491 . S
C103 C105 1.382 . S
C103 C107 1.404 . S
H104 C102 0.951 . S
C105 C103 1.382 . S
C105 C106 1.390 . S
C105 H110 0.949 . S
C106 C105 1.390 . S
C106 C111 1.399 . S
C107 C103 1.404 . S
C107 H108 0.950 . S
C107 C109 1.375 . S
H108 C107 0.950 . S
C109 C107 1.375 . S
C109 C111 1.382 . S
C109 H113 0.977 . S
H110 C105 0.949 . S
C111 C106 1.399 . S
C111 C109 1.382 . S
C111 H112 0.952 . S
H112 C111 0.952 . S
H113 C109 0.977 . S
H114 C115 0.949 . S
C115 H114 0.949 . S
C115 C116 1.395 . S
C115 C117 1.391 . S
C116 C115 1.395 . S
C116 C119 1.390 . S
C117 C115 1.391 . S
C117 C121 1.387 . S
C117 C122 1.490 . S
H118 C119 0.950 . S
C119 C116 1.390 . S
C119 H118 0.950 . S
C119 C120 1.378 . S
C120 C119 1.378 . S
C120 C121 1.409 . S
C121 C117 1.387 . S
C121 C120 1.409 . S
C121 H123 0.951 . S
C122 C117 1.490 . S
C122 C124 1.380 . S
C122 C126 1.406 1_545 S
H123 C121 0.951 . S
C124 C122 1.380 . S
C124 C125 1.390 . S
C124 H129 0.949 . S
C125 C124 1.390 . S
C125 C130 1.399 1_545 S
C126 C122 1.406 1_565 S
C126 H127 0.950 . S
C126 C128 1.375 . S
H127 C126 0.950 . S
C128 C126 1.375 . S
C128 C130 1.382 . S
C128 H132 0.950 . S
H129 C124 0.949 . S
C130 C125 1.399 1_565 S
C130 C128 1.382 . S
C130 H131 0.952 . S
H131 C130 0.952 . S
H132 C128 0.950 . S
H133 C134 0.949 . S
C134 H133 0.949 . S
C134 C135 1.395 . S
C134 C136 1.391 . S
C135 C134 1.395 . S
C135 C138 1.390 . S
C136 C134 1.391 . S
C136 C140 1.387 . S
C136 C141 1.491 . S
H137 C138 0.950 . S
C138 C135 1.390 . S
C138 H137 0.950 . S
C138 C139 1.378 . S
C139 C138 1.378 . S
C139 C140 1.409 . S
C140 C136 1.387 . S
C140 C139 1.409 . S
C140 H142 0.951 . S
C141 C136 1.491 . S
C141 C143 1.382 . S
C141 C145 1.404 . S
H142 C140 0.951 . S
C143 C141 1.382 . S
C143 C144 1.390 . S
C143 H148 0.949 . S
C144 C143 1.390 . S
C144 C149 1.399 . S
C145 C141 1.404 . S
C145 H146 0.950 . S
C145 C147 1.375 . S
H146 C145 0.950 . S
C147 C145 1.375 . S
C147 C149 1.382 . S
C147 H151 0.950 . S
H148 C143 0.949 . S
C149 C144 1.399 . S
C149 C147 1.382 . S
C149 H150 0.952 . S
H150 C149 0.952 . S
H151 C147 0.950 . S
Co152 N157 2.057 . S
Co152 O169 2.021 . S
Co152 O172 2.062 . S
Co152 O176 2.117 1_455 S
Co152 O177 2.020 1_545 S
C153 O173 1.259 1_545 S
C153 O176 1.258 . S
Co154 N163 2.060 . S
Co154 O170 2.117 1_655 S
Co154 O171 2.017 1_665 S
Co154 O173 2.021 . S
Co154 O178 2.062 . S
C155 N157 1.316 . S
C155 N158 1.347 1_556 S
C155 H160 0.931 . S
C156 N157 1.375 1_655 S
C156 C159 1.350 1_556 S
C156 H161 0.930 . S
N157 Co152 2.057 . S
N157 C155 1.316 . S
N157 C156 1.375 1_455 S
N158 C155 1.347 1_554 S
N158 C159 1.373 1_455 S
C159 C156 1.350 1_554 S
C159 N158 1.373 1_655 S
C159 H180 0.931 . S
H160 C155 0.931 . S
H161 C156 0.930 . S
C162 O169 1.259 . S
C162 O170 1.258 1_545 S
N163 Co154 2.060 . S
N163 C164 1.350 . S
N163 C165 1.339 1_655 S
C164 N163 1.350 . S
C164 N166 1.347 . S
C164 H175 0.931 . S
C165 N163 1.339 1_455 S
C165 C167 1.350 . S
C165 H174 0.930 . S
N166 C164 1.347 . S
N166 C167 1.373 1_655 S
C167 C165 1.350 . S
C167 N166 1.373 1_455 S
C167 H181 0.931 . S
C168 O171 1.267 . S
C168 O172 1.255 . S
O169 Co152 2.021 . S
O169 C162 1.259 . S
O170 Co154 2.117 1_455 S
O170 C162 1.258 1_565 S
O171 Co154 2.017 1_445 S
O171 C168 1.267 . S
O172 Co152 2.062 . S
O172 C168 1.255 . S
O173 C153 1.259 1_565 S
O173 Co154 2.021 . S
H174 C165 0.930 . S
H175 C164 0.931 . S
O176 Co152 2.117 1_655 S
O176 C153 1.258 . S
O177 Co152 2.020 1_565 S
O177 C179 1.256 . S
O178 Co154 2.062 . S
O178 C179 1.255 1_655 S
C179 O177 1.256 . S
C179 O178 1.255 1_455 S
H180 C159 0.931 . S
H181 C167 0.931 . S
Co182 N187 2.057 . S
Co182 O199 2.021 . S
Co182 O202 2.062 . S
Co182 O206 2.117 1_545 S
Co182 O207 2.020 . S
C183 O203 1.259 . S
C183 O206 1.258 . S
Co184 N193 2.058 . S
Co184 O200 2.158 . S
Co184 O201 2.018 . S
Co184 O203 1.981 1_545 S
Co184 O208 2.068 . S
C185 N187 1.316 . S
C185 N188 1.347 1_556 S
C185 H190 0.931 . S
C186 N187 1.375 1_565 S
C186 C189 1.350 1_556 S
C186 H191 0.930 . S
N187 Co182 2.057 . S
N187 C185 1.316 . S
N187 C186 1.375 1_545 S
N188 C185 1.347 1_554 S
N188 C189 1.373 1_545 S
C189 C186 1.350 1_554 S
C189 N188 1.373 1_565 S
C189 H210 0.931 . S
H190 C185 0.931 . S
H191 C186 0.930 . S
C192 O199 1.259 . S
C192 O200 1.258 . S
N193 Co184 2.058 . S
N193 C194 1.316 1_545 S
N193 C195 1.375 . S
C194 N193 1.316 1_565 S
C194 N196 1.336 1_565 S
C194 H205 0.931 . S
C195 N193 1.375 . S
C195 C197 1.350 . S
C195 H204 0.930 . S
N196 C194 1.336 1_545 S
N196 C197 1.408 . S
C197 C195 1.350 . S
C197 N196 1.408 . S
C197 H211 0.931 . S
C198 O201 1.256 . S
C198 O202 1.255 . S
O199 Co182 2.021 . S
O199 C192 1.259 . S
O200 Co184 2.158 . S
O200 C192 1.258 . S
O201 Co184 2.018 . S
O201 C198 1.256 . S
O202 Co182 2.062 . S
O202 C198 1.255 . S
O203 C183 1.259 . S
O203 Co184 1.981 1_565 S
H204 C195 0.930 . S
H205 C194 0.931 . S
O206 Co182 2.117 1_565 S
O206 C183 1.258 . S
O207 Co182 2.020 . S
O207 C209 1.256 . S
O208 Co184 2.068 . S
O208 C209 1.255 . S
C209 O207 1.256 . S
C209 O208 1.255 . S
H210 C189 0.931 . S
H211 C197 0.931 . S
Co212 N217 2.057 . S
Co212 O229 2.021 . S
Co212 O232 2.062 . S
Co212 O236 2.117 . S
Co212 O237 2.020 . S
C213 O233 1.259 . S
C213 O236 1.258 . S
Co214 N223 2.057 . S
Co214 O230 2.117 . S
Co214 O231 2.020 . S
Co214 O233 2.021 . S
Co214 O238 2.062 . S
C215 N217 1.316 . S
C215 N218 1.347 . S
C215 H220 0.931 . S
C216 N217 1.375 . S
C216 C219 1.350 . S
C216 H221 0.930 . S
N217 Co212 2.057 . S
N217 C215 1.316 . S
N217 C216 1.375 . S
N218 C215 1.347 . S
N218 C219 1.373 . S
C219 C216 1.350 . S
C219 N218 1.373 . S
C219 H240 0.931 . S
H220 C215 0.931 . S
H221 C216 0.930 . S
C222 O229 1.259 . S
C222 O230 1.258 . S
N223 Co214 2.057 . S
N223 C224 1.316 . S
N223 C225 1.375 . S
C224 N223 1.316 . S
C224 N226 1.347 . S
C224 H235 0.931 . S
C225 N223 1.375 . S
C225 C227 1.350 . S
C225 H234 0.930 . S
N226 C224 1.347 . S
N226 C227 1.373 . S
C227 C225 1.350 . S
C227 N226 1.373 . S
C227 H241 0.931 . S
C228 O231 1.256 . S
C228 O232 1.255 . S
O229 Co212 2.021 . S
O229 C222 1.259 . S
O230 Co214 2.117 . S
O230 C222 1.258 . S
O231 Co214 2.020 . S
O231 C228 1.256 . S
O232 Co212 2.062 . S
O232 C228 1.255 . S
O233 C213 1.259 . S
O233 Co214 2.021 . S
H234 C225 0.930 . S
H235 C224 0.931 . S
O236 Co212 2.117 . S
O236 C213 1.258 . S
O237 Co212 2.020 . S
O237 C239 1.256 . S
O238 Co214 2.062 . S
O238 C239 1.255 . S
C239 O237 1.256 . S
C239 O238 1.255 . S
H240 C219 0.931 . S
H241 C227 0.931 . S
Co242 N247 2.057 . S
Co242 O259 2.021 1_455 S
Co242 O262 2.062 1_455 S
Co242 O266 2.117 . S
Co242 O267 2.020 . S
C243 O263 1.259 . S
C243 O266 1.258 . S
Co244 N253 2.054 1_455 S
Co244 O260 2.117 1_455 S
Co244 O261 2.020 1_455 S
Co244 O263 2.021 . S
Co244 O268 2.062 . S
C245 N247 1.316 1_655 S
C245 N248 1.347 1_655 S
C245 H250 0.931 . S
C246 N247 1.375 . S
C246 C249 1.350 . S
C246 H251 0.930 . S
N247 Co242 2.057 . S
N247 C245 1.316 1_455 S
N247 C246 1.375 . S
N248 C245 1.347 1_455 S
N248 C249 1.373 . S
C249 C246 1.350 . S
C249 N248 1.373 . S
C249 H270 0.931 . S
H250 C245 0.931 . S
H251 C246 0.930 . S
C252 O259 1.259 . S
C252 O260 1.258 . S
N253 Co244 2.054 1_655 S
N253 C254 1.303 1_655 S
N253 C255 1.389 . S
C254 N253 1.303 1_455 S
C254 N256 1.347 . S
C254 H265 0.931 . S
C255 N253 1.389 . S
C255 C257 1.350 . S
C255 H264 0.930 . S
N256 C254 1.347 . S
N256 C257 1.373 1_455 S
C257 C255 1.350 . S
C257 N256 1.373 1_655 S
C257 H271 0.931 . S
C258 O261 1.256 . S
C258 O262 1.255 . S
O259 Co242 2.021 1_655 S
O259 C252 1.259 . S
O260 Co244 2.117 1_655 S
O260 C252 1.258 . S
O261 Co244 2.020 1_655 S
O261 C258 1.256 . S
O262 Co242 2.062 1_655 S
O262 C258 1.255 . S
O263 C243 1.259 . S
O263 Co244 2.021 . S
H264 C255 0.930 . S
H265 C254 0.931 . S
O266 Co242 2.117 . S
O266 C243 1.258 . S
O267 Co242 2.020 . S
O267 C269 1.256 . S
O268 Co244 2.062 . S
O268 C269 1.255 . S
C269 O267 1.256 . S
C269 O268 1.255 . S
H270 C249 0.931 . S
H271 C257 0.931 . S
H272 C280 0.950 . S
H273 C285 0.950 . S
H274 C282 0.950 . S
H275 C284 0.950 . S
H276 C286 0.950 . S
H277 C288 0.950 . S
H278 C290 0.950 . S
H279 C291 0.950 . S
C280 H272 0.950 . S
C280 C281 1.386 . S
C280 C282 1.391 . S
C281 C280 1.386 . S
C281 C285 1.393 1_545 S
C282 H274 0.950 . S
C282 C280 1.391 . S
C282 C283 1.400 . S
C283 C282 1.400 . S
C283 C284 1.398 1_545 S
C283 C289 1.491 . S
C284 H275 0.950 . S
C284 C283 1.398 1_565 S
C284 C285 1.391 . S
C285 H273 0.950 . S
C285 C281 1.393 1_565 S
C285 C284 1.391 . S
C286 H276 0.950 . S
C286 C287 1.386 1_565 S
C286 C288 1.391 . S
C287 C286 1.386 1_545 S
C287 C291 1.393 . S
C288 H277 0.950 . S
C288 C286 1.391 . S
C288 C289 1.400 1_565 S
C289 C283 1.491 . S
C289 C288 1.400 1_545 S
C289 C290 1.398 . S
C290 H278 0.950 . S
C290 C289 1.398 . S
C290 C291 1.391 . S
C291 H279 0.950 . S
C291 C287 1.393 . S
C291 C290 1.391 . S
H292 C300 0.950 . S
H293 C305 0.950 . S
H294 C302 0.950 . S
H295 C304 0.950 . S
H296 C306 0.950 . S
H297 C308 0.950 . S
H298 C310 0.950 . S
H299 C311 0.950 . S
C300 H292 0.950 . S
C300 C301 1.386 . S
C300 C302 1.391 . S
C301 C300 1.386 . S
C301 C305 1.393 . S
C302 H294 0.950 . S
C302 C300 1.391 . S
C302 C303 1.400 . S
C303 C302 1.400 . S
C303 C304 1.398 . S
C303 C309 1.491 . S
C304 H295 0.950 . S
C304 C303 1.398 . S
C304 C305 1.391 . S
C305 H293 0.950 . S
C305 C301 1.393 . S
C305 C304 1.391 . S
C306 H296 0.950 . S
C306 C307 1.386 . S
C306 C308 1.391 . S
C307 C306 1.386 . S
C307 C311 1.393 . S
C308 H297 0.950 . S
C308 C306 1.391 . S
C308 C309 1.400 . S
C309 C303 1.491 . S
C309 C308 1.400 . S
C309 C310 1.398 . S
C310 H298 0.950 . S
C310 C309 1.398 . S
C310 C311 1.391 . S
C311 H299 0.950 . S
C311 C307 1.393 . S
C311 C310 1.391 . S
H312 C320 0.950 . S
H313 C325 0.950 . S
H314 C322 0.950 . S
H315 C324 0.950 . S
H316 C326 0.950 . S
H317 C328 0.950 . S
H318 C330 0.950 . S
H319 C331 0.950 . S
C320 H312 0.950 . S
C320 C321 1.386 . S
C320 C322 1.391 . S
C321 C320 1.386 . S
C321 C325 1.393 . S
C322 H314 0.950 . S
C322 C320 1.391 . S
C322 C323 1.400 . S
C323 C322 1.400 . S
C323 C324 1.398 . S
C323 C329 1.491 . S
C324 H315 0.950 . S
C324 C323 1.398 . S
C324 C325 1.391 . S
C325 H313 0.950 . S
C325 C321 1.393 . S
C325 C324 1.391 . S
C326 H316 0.950 . S
C326 C327 1.386 . S
C326 C328 1.391 . S
C327 C326 1.386 . S
C327 C331 1.393 . S
C328 H317 0.950 . S
C328 C326 1.391 . S
C328 C329 1.400 . S
C329 C323 1.491 . S
C329 C328 1.400 . S
C329 C330 1.398 . S
C330 H318 0.950 . S
C330 C329 1.398 . S
C330 C331 1.391 . S
C331 H319 0.950 . S
C331 C327 1.393 . S
C331 C330 1.391 . S
H332 C340 0.950 . S
H333 C345 0.950 . S
H334 C342 0.950 . S
H335 C344 0.950 1_655 S
H336 C346 0.950 . S
H337 C348 0.950 1_655 S
H338 C350 0.950 . S
H339 C351 0.950 . S
C340 H332 0.950 . S
C340 C341 1.386 . S
C340 C342 1.391 . S
C341 C340 1.386 . S
C341 C345 1.393 . S
C342 H334 0.950 . S
C342 C340 1.391 . S
C342 C343 1.400 . S
C343 C342 1.400 . S
C343 C344 1.398 . S
C343 C349 1.491 . S
C344 H335 0.950 1_455 S
C344 C343 1.398 . S
C344 C345 1.391 . S
C345 H333 0.950 . S
C345 C341 1.393 . S
C345 C344 1.391 . S
C346 H336 0.950 . S
C346 C347 1.386 1_655 S
C346 C348 1.391 1_655 S
C347 C346 1.386 1_455 S
C347 C351 1.393 . S
C348 H337 0.950 1_455 S
C348 C346 1.391 1_455 S
C348 C349 1.400 . S
C349 C343 1.491 . S
C349 C348 1.400 . S
C349 C350 1.398 . S
C350 H338 0.950 . S
C350 C349 1.398 . S
C350 C351 1.391 . S
C351 H339 0.950 . S
C351 C347 1.393 . S
C351 C350 1.391 . S
H352 C360 0.950 . S
H353 C365 0.950 1_554 S
H354 C362 0.950 . S
H355 C364 0.950 . S
H356 C366 0.950 . S
H357 C368 0.950 . S
H358 C370 0.950 . S
H359 C371 0.950 . S
C360 H352 0.950 . S
C360 C361 1.386 1_565 S
C360 C362 1.391 . S
C361 C360 1.386 1_545 S
C361 C365 1.393 . S
C362 H354 0.950 . S
C362 C360 1.391 . S
C362 C363 1.400 1_565 S
C363 C362 1.400 1_545 S
C363 C364 1.398 . S
C363 C369 1.491 . S
C364 H355 0.950 . S
C364 C363 1.398 . S
C364 C365 1.391 . S
C365 H353 0.950 1_556 S
C365 C361 1.393 . S
C365 C364 1.391 . S
C366 H356 0.950 . S
C366 C367 1.386 . S
C366 C368 1.391 . S
C367 C366 1.386 . S
C367 C371 1.393 1_545 S
C368 H357 0.950 . S
C368 C366 1.391 . S
C368 C369 1.400 . S
C369 C363 1.491 . S
C369 C368 1.400 . S
C369 C370 1.398 1_545 S
C370 H358 0.950 . S
C370 C369 1.398 1_565 S
C370 C371 1.391 . S
C371 H359 0.950 . S
C371 C367 1.393 1_565 S
C371 C370 1.391 . S
H372 C380 0.950 1_554 S
H373 C385 0.950 . S
H374 C382 0.950 . S
H375 C384 0.950 . S
H376 C386 0.950 . S
H377 C388 0.950 . S
H378 C390 0.950 . S
H379 C391 0.950 . S
C380 H372 0.950 1_556 S
C380 C381 1.386 . S
C380 C382 1.391 . S
C381 C380 1.386 . S
C381 C385 1.393 . S
C382 H374 0.950 . S
C382 C380 1.391 . S
C382 C383 1.400 . S
C383 C382 1.400 . S
C383 C384 1.398 . S
C383 C389 1.491 . S
C384 H375 0.950 . S
C384 C383 1.398 . S
C384 C385 1.391 . S
C385 H373 0.950 . S
C385 C381 1.393 . S
C385 C384 1.391 . S
C386 H376 0.950 . S
C386 C387 1.386 . S
C386 C388 1.391 . S
C387 C386 1.386 . S
C387 C391 1.393 . S
C388 H377 0.950 . S
C388 C386 1.391 . S
C388 C389 1.400 . S
C389 C383 1.491 . S
C389 C388 1.400 . S
C389 C390 1.398 . S
C390 H378 0.950 . S
C390 C389 1.398 . S
C390 C391 1.391 . S
C391 H379 0.950 . S
C391 C387 1.393 . S
C391 C390 1.391 . S
H392 C400 0.950 . S
H393 C405 0.950 . S
H394 C402 0.950 . S
H395 C404 0.950 . S
H396 C406 0.950 . S
H397 C408 0.950 . S
H398 C410 0.950 . S
H399 C411 0.950 . S
C400 H392 0.950 . S
C400 C401 1.386 . S
C400 C402 1.391 1_554 S
C401 C400 1.386 . S
C401 C405 1.393 . S
C402 H394 0.950 . S
C402 C400 1.391 1_556 S
C402 C403 1.400 . S
C403 C402 1.400 . S
C403 C404 1.398 1_556 S
C403 C409 1.491 . S
C404 H395 0.950 . S
C404 C403 1.398 1_554 S
C404 C405 1.391 . S
C405 H393 0.950 . S
C405 C401 1.393 . S
C405 C404 1.391 . S
C406 H396 0.950 . S
C406 C407 1.386 . S
C406 C408 1.391 . S
C407 C406 1.386 . S
C407 C411 1.393 . S
C408 H397 0.950 . S
C408 C406 1.391 . S
C408 C409 1.400 . S
C409 C403 1.491 . S
C409 C408 1.400 . S
C409 C410 1.398 . S
C410 H398 0.950 . S
C410 C409 1.398 . S
C410 C411 1.391 . S
C411 H399 0.950 . S
C411 C407 1.393 . S
C411 C410 1.391 . S
H412 C420 0.950 . S
H413 C425 0.950 1_455 S
H414 C422 0.950 . S
H415 C424 0.950 1_455 S
H416 C426 0.950 . S
H417 C428 0.950 . S
H418 C430 0.950 . S
H419 C431 0.950 . S
C420 H412 0.950 . S
C420 C421 1.386 1_556 S
C420 C422 1.391 . S
C421 C420 1.386 1_554 S
C421 C425 1.393 . S
C422 H414 0.950 . S
C422 C420 1.391 . S
C422 C423 1.400 . S
C423 C422 1.400 . S
C423 C424 1.398 . S
C423 C429 1.491 . S
C424 H415 0.950 1_655 S
C424 C423 1.398 . S
C424 C425 1.391 1_556 S
C425 H413 0.950 1_655 S
C425 C421 1.393 . S
C425 C424 1.391 1_554 S
C426 H416 0.950 . S
C426 C427 1.386 1_455 S
C426 C428 1.391 . S
C427 C426 1.386 1_655 S
C427 C431 1.393 . S
C428 H417 0.950 . S
C428 C426 1.391 . S
C428 C429 1.400 1_455 S
C429 C423 1.491 . S
C429 C428 1.400 1_655 S
C429 C430 1.398 . S
C430 H418 0.950 . S
C430 C429 1.398 . S
C430 C431 1.391 . S
C431 H419 0.950 . S
C431 C427 1.393 . S
C431 C430 1.391 . S
H432 C440 0.950 . S
H433 C445 0.950 . S
H434 C442 0.950 . S
H435 C444 0.950 . S
H436 C446 0.950 . S
H437 C448 0.950 . S
H438 C450 0.950 . S
H439 C451 0.950 . S
C440 H432 0.950 . S
C440 C441 1.386 . S
C440 C442 1.391 . S
C441 C440 1.386 . S
C441 C445 1.393 . S
C442 H434 0.950 . S
C442 C440 1.391 . S
C442 C443 1.400 . S
C443 C442 1.400 . S
C443 C444 1.398 . S
C443 C449 1.491 . S
C444 H435 0.950 . S
C444 C443 1.398 . S
C444 C445 1.391 . S
C445 H433 0.950 . S
C445 C441 1.393 . S
C445 C444 1.391 . S
C446 H436 0.950 . S
C446 C447 1.386 . S
C446 C448 1.391 . S
C447 C446 1.386 . S
C447 C451 1.393 . S
C448 H437 0.950 . S
C448 C446 1.391 . S
C448 C449 1.400 . S
C449 C443 1.491 . S
C449 C448 1.400 . S
C449 C450 1.398 . S
C450 H438 0.950 . S
C450 C449 1.398 . S
C450 C451 1.391 . S
C451 H439 0.950 . S
C451 C447 1.393 . S
C451 C450 1.391 . S
H452 C460 0.950 . S
H453 C465 0.950 . S
H454 C462 0.950 . S
H455 C464 0.950 . S
H456 C466 0.950 . S
H457 C468 0.950 . S
H458 C470 0.950 . S
H459 C471 0.950 . S
C460 H452 0.950 . S
C460 C461 1.386 1_565 S
C460 C462 1.391 . S
C461 C460 1.386 1_545 S
C461 C465 1.393 . S
C462 H454 0.950 . S
C462 C460 1.391 . S
C462 C463 1.400 1_565 S
C463 C462 1.400 1_545 S
C463 C464 1.398 . S
C463 C469 1.491 . S
C464 H455 0.950 . S
C464 C463 1.398 . S
C464 C465 1.391 . S
C465 H453 0.950 . S
C465 C461 1.393 . S
C465 C464 1.391 . S
C466 H456 0.950 . S
C466 C467 1.386 . S
C466 C468 1.391 . S
C467 C466 1.386 . S
C467 C471 1.393 1_545 S
C468 H457 0.950 . S
C468 C466 1.391 . S
C468 C469 1.400 . S
C469 C463 1.491 . S
C469 C468 1.400 . S
C469 C470 1.398 1_545 S
C470 H458 0.950 . S
C470 C469 1.398 1_565 S
C470 C471 1.391 . S
C471 H459 0.950 . S
C471 C467 1.393 1_565 S
C471 C470 1.391 . S
H472 C480 0.950 . S
H473 C485 0.950 . S
H474 C482 0.950 . S
H475 C484 0.950 . S
H476 C486 0.950 . S
H477 C488 0.950 . S
H478 C490 0.950 . S
H479 C491 0.950 . S
C480 H472 0.950 . S
C480 C481 1.386 . S
C480 C482 1.391 . S
C481 C480 1.386 . S
C481 C485 1.393 . S
C482 H474 0.950 . S
C482 C480 1.391 . S
C482 C483 1.400 . S
C483 C482 1.400 . S
C483 C484 1.398 . S
C483 C489 1.491 . S
C484 H475 0.950 . S
C484 C483 1.398 . S
C484 C485 1.391 . S
C485 H473 0.950 . S
C485 C481 1.393 . S
C485 C484 1.391 . S
C486 H476 0.950 . S
C486 C487 1.386 . S
C486 C488 1.391 . S
C487 C486 1.386 . S
C487 C491 1.393 . S
C488 H477 0.950 . S
C488 C486 1.391 . S
C488 C489 1.400 . S
C489 C483 1.491 . S
C489 C488 1.400 . S
C489 C490 1.398 . S
C490 H478 0.950 . S
C490 C489 1.398 . S
C490 C491 1.391 . S
C491 H479 0.950 . S
C491 C487 1.393 . S
C491 C490 1.391 . S
H492 C500 0.950 . S
H493 C505 0.950 . S
H494 C502 0.950 . S
H495 C504 0.950 . S
H496 C506 0.950 . S
H497 C508 0.950 . S
H498 C510 0.950 . S
H499 C511 0.950 . S
C500 H492 0.950 . S
C500 C501 1.386 . S
C500 C502 1.391 . S
C501 C500 1.386 . S
C501 C505 1.393 . S
C502 H494 0.950 . S
C502 C500 1.391 . S
C502 C503 1.400 . S
C503 C502 1.400 . S
C503 C504 1.398 . S
C503 C509 1.491 . S
C504 H495 0.950 . S
C504 C503 1.398 . S
C504 C505 1.391 . S
C505 H493 0.950 . S
C505 C501 1.393 . S
C505 C504 1.391 . S
C506 H496 0.950 . S
C506 C507 1.386 . S
C506 C508 1.391 . S
C507 C506 1.386 . S
C507 C511 1.393 . S
C508 H497 0.950 . S
C508 C506 1.391 . S
C508 C509 1.400 . S
C509 C503 1.491 . S
C509 C508 1.400 . S
C509 C510 1.398 . S
C510 H498 0.950 . S
C510 C509 1.398 . S
C510 C511 1.391 . S
C511 H499 0.950 . S
C511 C507 1.393 . S
C511 C510 1.391 . S
H512 C520 0.950 . S
H513 C525 0.950 . S
H514 C522 0.950 . S
H515 C524 0.950 1_455 S
H516 C526 0.950 . S
H517 C528 0.950 . S
H518 C530 0.950 . S
H519 C531 0.950 . S
C520 H512 0.950 . S
C520 C521 1.386 1_556 S
C520 C522 1.391 . S
C521 C520 1.386 1_554 S
C521 C525 1.393 . S
C522 H514 0.950 . S
C522 C520 1.391 . S
C522 C523 1.400 . S
C523 C522 1.400 . S
C523 C524 1.398 1_556 S
C523 C529 1.491 . S
C524 H515 0.950 1_655 S
C524 C523 1.398 1_554 S
C524 C525 1.391 . S
C525 H513 0.950 . S
C525 C521 1.393 . S
C525 C524 1.391 . S
C526 H516 0.950 . S
C526 C527 1.386 . S
C526 C528 1.391 . S
C527 C526 1.386 . S
C527 C531 1.393 1_455 S
C528 H517 0.950 . S
C528 C526 1.391 . S
C528 C529 1.400 1_455 S
C529 C523 1.491 . S
C529 C528 1.400 1_655 S
C529 C530 1.398 . S
C530 H518 0.950 . S
C530 C529 1.398 . S
C530 C531 1.391 . S
C531 H519 0.950 . S
C531 C527 1.393 1_655 S
C531 C530 1.391 . S
H532 C540 0.950 . S
H533 C545 0.950 . S
H534 C542 0.950 . S
H535 C544 0.950 1_554 S
H536 C546 0.949 1_565 S
H537 C548 0.945 1_564 S
H538 C550 0.950 . S
H539 C551 0.950 . S
C540 H532 0.950 . S
C540 C541 1.386 1_545 S
C540 C542 1.391 . S
C541 C540 1.386 1_565 S
C541 C545 1.393 1_556 S
C542 H534 0.950 . S
C542 C540 1.391 . S
C542 C543 1.400 . S
C543 C542 1.400 . S
C543 C544 1.398 1_545 S
C543 C549 1.491 . S
C544 H535 0.950 1_556 S
C544 C543 1.398 1_565 S
C544 C545 1.391 1_556 S
C545 H533 0.950 . S
C545 C541 1.393 1_554 S
C545 C544 1.391 1_554 S
C546 H536 0.949 1_545 S
C546 C547 1.386 . S
C546 C548 1.394 . S
C547 C546 1.386 . S
C547 C551 1.393 . S
C548 H537 0.945 1_546 S
C548 C546 1.394 . S
C548 C549 1.404 . S
C549 C543 1.491 . S
C549 C548 1.404 . S
C549 C550 1.398 . S
C550 H538 0.950 . S
C550 C549 1.398 . S
C550 C551 1.391 . S
C551 H539 0.950 . S
C551 C547 1.393 . S
C551 C550 1.391 . S
H552 C560 0.950 . S
H553 C565 0.950 . S
H554 C562 0.950 . S
H555 C564 0.950 . S
H556 C566 0.950 . S
H557 C568 0.950 . S
H558 C570 0.950 . S
H559 C571 0.950 . S
C560 H552 0.950 . S
C560 C561 1.386 . S
C560 C562 1.391 . S
C561 C560 1.386 . S
C561 C565 1.393 1_554 S
C562 H554 0.950 . S
C562 C560 1.391 . S
C562 C563 1.400 1_554 S
C563 C562 1.400 1_556 S
C563 C564 1.398 . S
C563 C569 1.491 . S
C564 H555 0.950 . S
C564 C563 1.398 . S
C564 C565 1.391 . S
C565 H553 0.950 . S
C565 C561 1.393 1_556 S
C565 C564 1.391 . S
C566 H556 0.950 . S
C566 C567 1.386 . S
C566 C568 1.391 . S
C567 C566 1.386 . S
C567 C571 1.393 . S
C568 H557 0.950 . S
C568 C566 1.391 . S
C568 C569 1.400 . S
C569 C563 1.491 . S
C569 C568 1.400 . S
C569 C570 1.398 . S
C570 H558 0.950 . S
C570 C569 1.398 . S
C570 C571 1.391 . S
C571 H559 0.950 . S
C571 C567 1.393 . S
C571 C570 1.391 . S
H572 C580 0.950 1_556 S
H573 C585 0.950 . S
H574 C582 0.950 . S
H575 C584 0.950 . S
H576 C586 0.950 . S
H577 C588 0.950 1_554 S
H578 C590 0.950 . S
H579 C591 0.950 . S
C580 H572 0.950 1_554 S
C580 C581 1.386 . S
C580 C582 1.391 1_554 S
C581 C580 1.386 . S
C581 C585 1.393 . S
C582 H574 0.950 . S
C582 C580 1.391 1_556 S
C582 C583 1.395 1_556 S
C583 C582 1.395 1_554 S
C583 C584 1.412 . S
C583 C589 1.483 1_554 S
C584 H575 0.950 . S
C584 C583 1.412 . S
C584 C585 1.391 . S
C585 H573 0.950 . S
C585 C581 1.393 . S
C585 C584 1.391 . S
C586 H576 0.950 . S
C586 C587 1.386 . S
C586 C588 1.391 . S
C587 C586 1.386 . S
C587 C591 1.393 . S
C588 H577 0.950 1_556 S
C588 C586 1.391 . S
C588 C589 1.400 . S
C589 C583 1.483 1_556 S
C589 C588 1.400 . S
C589 C590 1.398 . S
C590 H578 0.950 . S
C590 C589 1.398 . S
C590 C591 1.391 . S
C591 H579 0.950 . S
C591 C587 1.393 . S
C591 C590 1.391 . S
H592 C600 0.950 . S
H593 C605 0.950 . S
H594 C602 0.950 . S
H595 C604 0.950 . S
H596 C606 0.950 1_655 S
H597 C608 0.950 1_655 S
H598 C610 0.950 . S
H599 C611 0.950 . S
C600 H592 0.950 . S
C600 C601 1.386 . S
C600 C602 1.391 . S
C601 C600 1.386 . S
C601 C605 1.393 . S
C602 H594 0.950 . S
C602 C600 1.391 . S
C602 C603 1.400 . S
C603 C602 1.400 . S
C603 C604 1.398 . S
C603 C609 1.491 . S
C604 H595 0.950 . S
C604 C603 1.398 . S
C604 C605 1.391 . S
C605 H593 0.950 . S
C605 C601 1.393 . S
C605 C604 1.391 . S
C606 H596 0.950 1_455 S
C606 C607 1.386 . S
C606 C608 1.391 . S
C607 C606 1.386 . S
C607 C611 1.393 . S
C608 H597 0.950 1_455 S
C608 C606 1.391 . S
C608 C609 1.400 . S
C609 C603 1.491 . S
C609 C608 1.400 . S
C609 C610 1.398 . S
C610 H598 0.950 . S
C610 C609 1.398 . S
C610 C611 1.391 . S
C611 H599 0.950 . S
C611 C607 1.393 . S
C611 C610 1.391 . S
H612 C620 0.950 . S
H613 C625 0.950 . S
H614 C622 0.950 . S
H615 C624 0.950 . S
H616 C626 0.950 . S
H617 C628 0.950 . S
H618 C630 0.950 . S
H619 C631 0.950 . S
C620 H612 0.950 . S
C620 C621 1.386 1_565 S
C620 C622 1.391 . S
C621 C620 1.386 1_545 S
C621 C625 1.393 . S
C622 H614 0.950 . S
C622 C620 1.391 . S
C622 C623 1.400 1_565 S
C623 C622 1.400 1_545 S
C623 C624 1.398 . S
C623 C629 1.491 . S
C624 H615 0.950 . S
C624 C623 1.398 . S
C624 C625 1.391 . S
C625 H613 0.950 . S
C625 C621 1.393 . S
C625 C624 1.391 . S
C626 H616 0.950 . S
C626 C627 1.386 . S
C626 C628 1.391 . S
C627 C626 1.386 . S
C627 C631 1.393 1_545 S
C628 H617 0.950 . S
C628 C626 1.391 . S
C628 C629 1.400 . S
C629 C623 1.491 . S
C629 C628 1.400 . S
C629 C630 1.398 1_545 S
C630 H618 0.950 . S
C630 C629 1.398 1_565 S
C630 C631 1.391 . S
C631 H619 0.950 . S
C631 C627 1.393 1_565 S
C631 C630 1.391 . S
H632 C640 0.950 . S
H633 C645 0.950 . S
H634 C642 0.950 . S
H635 C644 0.950 . S
H636 C646 0.950 . S
H637 C648 0.950 . S
H638 C650 0.950 . S
H639 C651 0.950 . S
C640 H632 0.950 . S
C640 C641 1.386 . S
C640 C642 1.391 . S
C641 C640 1.386 . S
C641 C645 1.393 . S
C642 H634 0.950 . S
C642 C640 1.391 . S
C642 C643 1.400 . S
C643 C642 1.400 . S
C643 C644 1.398 . S
C643 C649 1.491 . S
C644 H635 0.950 . S
C644 C643 1.398 . S
C644 C645 1.391 . S
C645 H633 0.950 . S
C645 C641 1.393 . S
C645 C644 1.391 . S
C646 H636 0.950 . S
C646 C647 1.386 1_554 S
C646 C648 1.391 . S
C647 C646 1.386 1_556 S
C647 C651 1.393 . S
C648 H637 0.950 . S
C648 C646 1.391 . S
C648 C649 1.400 . S
C649 C643 1.491 . S
C649 C648 1.400 . S
C649 C650 1.398 . S
C650 H638 0.950 . S
C650 C649 1.398 . S
C650 C651 1.391 1_554 S
C651 H639 0.950 . S
C651 C647 1.393 . S
C651 C650 1.391 1_556 S
H652 C660 0.950 . S
H653 C665 0.950 . S
H654 C662 0.950 . S
H655 C664 0.950 . S
H656 C666 0.950 . S
H657 C668 0.950 . S
H658 C670 0.950 . S
H659 C671 0.950 . S
C660 H652 0.950 . S
C660 C661 1.386 . S
C660 C662 1.391 . S
C661 C660 1.386 . S
C661 C665 1.393 . S
C662 H654 0.950 . S
C662 C660 1.391 . S
C662 C663 1.400 . S
C663 C662 1.400 . S
C663 C664 1.398 . S
C663 C669 1.491 . S
C664 H655 0.950 . S
C664 C663 1.398 . S
C664 C665 1.391 . S
C665 H653 0.950 . S
C665 C661 1.393 . S
C665 C664 1.391 . S
C666 H656 0.950 . S
C666 C667 1.386 . S
C666 C668 1.391 1_556 S
C667 C666 1.386 . S
C667 C671 1.393 . S
C668 H657 0.950 . S
C668 C666 1.391 1_554 S
C668 C669 1.400 . S
C669 C663 1.491 . S
C669 C668 1.400 . S
C669 C670 1.398 . S
C670 H658 0.950 . S
C670 C669 1.398 . S
C670 C671 1.391 1_554 S
C671 H659 0.950 . S
C671 C667 1.393 . S
C671 C670 1.391 1_556 S
H672 C680 0.950 . S
H673 C685 0.950 . S
H674 C682 0.950 . S
H675 C684 0.950 . S
H676 C686 0.950 . S
H677 C688 0.950 . S
H678 C690 0.950 . S
H679 C691 0.950 . S
C680 H672 0.950 . S
C680 C681 1.386 . S
C680 C682 1.391 . S
C681 C680 1.386 . S
C681 C685 1.393 . S
C682 H674 0.950 . S
C682 C680 1.391 . S
C682 C683 1.400 . S
C683 C682 1.400 . S
C683 C684 1.398 . S
C683 C689 1.491 . S
C684 H675 0.950 . S
C684 C683 1.398 . S
C684 C685 1.391 . S
C685 H673 0.950 . S
C685 C681 1.393 . S
C685 C684 1.391 . S
C686 H676 0.950 . S
C686 C687 1.386 . S
C686 C688 1.391 . S
C687 C686 1.386 . S
C687 C691 1.393 . S
C688 H677 0.950 . S
C688 C686 1.391 . S
C688 C689 1.400 . S
C689 C683 1.491 . S
C689 C688 1.400 . S
C689 C690 1.398 . S
C690 H678 0.950 . S
C690 C689 1.398 . S
C690 C691 1.391 . S
C691 H679 0.950 . S
C691 C687 1.393 . S
C691 C690 1.391 . S
H692 C700 0.950 . S
H693 C705 0.950 . S
H694 C702 0.950 . S
H695 C704 0.950 . S
H696 C706 0.950 . S
H697 C708 0.950 . S
H698 C710 0.950 . S
H699 C711 0.950 . S
C700 H692 0.950 . S
C700 C701 1.381 1_545 S
C700 C702 1.391 . S
C701 C700 1.381 1_565 S
C701 C705 1.397 . S
C702 H694 0.950 . S
C702 C700 1.391 . S
C702 C703 1.400 1_545 S
C703 C702 1.400 1_565 S
C703 C704 1.398 . S
C703 C709 1.491 . S
C704 H695 0.950 . S
C704 C703 1.398 . S
C704 C705 1.391 . S
C705 H693 0.950 . S
C705 C701 1.397 . S
C705 C704 1.391 . S
C706 H696 0.950 . S
C706 C707 1.386 . S
C706 C708 1.391 . S
C707 C706 1.386 . S
C707 C711 1.393 1_565 S
C708 H697 0.950 . S
C708 C706 1.391 . S
C708 C709 1.400 . S
C709 C703 1.491 . S
C709 C708 1.400 . S
C709 C710 1.398 1_565 S
C710 H698 0.950 . S
C710 C709 1.398 1_545 S
C710 C711 1.391 . S
C711 H699 0.950 . S
C711 C707 1.393 1_545 S
C711 C710 1.391 . S
H712 C720 0.950 . S
H713 C725 0.950 . S
H714 C722 0.950 . S
H715 C724 0.950 . S
H716 C726 0.950 . S
H717 C728 0.950 . S
H718 C730 0.950 . S
H719 C731 0.950 . S
C720 H712 0.950 . S
C720 C721 1.386 . S
C720 C722 1.391 . S
C721 C720 1.386 . S
C721 C725 1.393 . S
C722 H714 0.950 . S
C722 C720 1.391 . S
C722 C723 1.400 . S
C723 C722 1.400 . S
C723 C724 1.398 . S
C723 C729 1.491 . S
C724 H715 0.950 . S
C724 C723 1.398 . S
C724 C725 1.391 . S
C725 H713 0.950 . S
C725 C721 1.393 . S
C725 C724 1.391 . S
C726 H716 0.950 . S
C726 C727 1.386 . S
C726 C728 1.391 . S
C727 C726 1.386 . S
C727 C731 1.393 . S
C728 H717 0.950 . S
C728 C726 1.391 . S
C728 C729 1.400 . S
C729 C723 1.491 . S
C729 C728 1.400 . S
C729 C730 1.398 . S
C730 H718 0.950 . S
C730 C729 1.398 . S
C730 C731 1.391 . S
C731 H719 0.950 . S
C731 C727 1.393 . S
C731 C730 1.391 . S
H732 C740 0.950 . S
H733 C745 0.950 . S
H734 C742 0.950 . S
H735 C744 0.950 . S
H736 C746 0.950 . S
H737 C748 0.950 . S
H738 C750 0.950 . S
H739 C751 0.950 . S
C740 H732 0.950 . S
C740 C741 1.386 . S
C740 C742 1.391 . S
C741 C740 1.386 . S
C741 C745 1.393 . S
C742 H734 0.950 . S
C742 C740 1.391 . S
C742 C743 1.400 . S
C743 C742 1.400 . S
C743 C744 1.398 . S
C743 C749 1.491 . S
C744 H735 0.950 . S
C744 C743 1.398 . S
C744 C745 1.391 . S
C745 H733 0.950 . S
C745 C741 1.393 . S
C745 C744 1.391 . S
C746 H736 0.950 . S
C746 C747 1.386 . S
C746 C748 1.391 . S
C747 C746 1.386 . S
C747 C751 1.393 . S
C748 H737 0.950 . S
C748 C746 1.391 . S
C748 C749 1.400 . S
C749 C743 1.491 . S
C749 C748 1.400 . S
C749 C750 1.398 . S
C750 H738 0.950 . S
C750 C749 1.398 . S
C750 C751 1.391 . S
C751 H739 0.950 . S
C751 C747 1.393 . S
C751 C750 1.391 . S
C281 C125 1.587 . S
C287 C162 1.720 . S
C307 C192 1.835 . S
C301 C144 1.689 . S
C327 N226 1.405 . S
C321 C87 1.347 . S
C347 N256 1.384 . S
C341 C106 1.313 . S
C367 C153 1.719 . S
C361 C49 1.643 1_545 S
C381 C68 1.753 1_556 S
C387 C183 1.835 . S
C401 C11 1.398 . S
C407 N218 1.408 . S
C421 C30 1.405 . S
C427 N248 1.364 1_655 S
C447 C168 0.496 . S
C441 C97 0.578 . S
C467 C198 0.882 . S
C461 C116 0.835 . S
C487 C239 1.159 . S
C481 C135 1.131 . S
C501 C78 0.713 . S
C507 C269 0.714 . S
C521 C21 0.515 . S
C527 C179 0.463 . S
C547 C209 0.900 . S
C541 C40 0.870 1_556 S
C567 C228 1.151 . S
C561 C59 1.107 . S
C581 C2 0.692 . S
C587 C258 0.704 . S
C601 C101 1.456 . S
C607 N158 1.470 . S
C621 C120 1.464 . S
C627 N188 1.447 . S
C647 C213 1.651 . S
C641 C139 1.633 . S
C667 C243 1.627 . S
C661 C82 1.605 . S
C681 C25 1.468 . S
C687 N166 1.458 . S
C707 N196 1.444 1_565 S
C701 C44 1.452 . S
C727 C222 1.651 . S
C721 C63 1.635 . S
C741 C6 1.593 . S
C747 C252 1.624 . S
