# Generated by pormake.
# Topology pth, (4,4)-cn, num edge types: 1
# Building blocks:
#     Node 0, Type 0, BuildingBlock: UXUYUI_clean_sbu_0, # of connection points: 4
#     Node 1, Type 0, BuildingBlock: UXUYUI_clean_sbu_0, # of connection points: 4
#     Node 2, Type 0, BuildingBlock: UXUYUI_clean_sbu_0, # of connection points: 4
#     Node 3, Type 1, BuildingBlock: NAWXER_clean_linker_0, # of connection points: 4
#     Node 4, Type 1, BuildingBlock: NAWXER_clean_linker_0, # of connection points: 4
#     Node 5, Type 1, BuildingBlock: NAWXER_clean_linker_0, # of connection points: 4
#     Edge 6, Type (0, 1), BuildingBlock: TEMPAE_clean_linker_10, # of connection points: 2
#     Edge 7, Type (0, 1), BuildingBlock: TEMPAE_clean_linker_10, # of connection points: 2
#     Edge 8, Type (0, 1), BuildingBlock: TEMPAE_clean_linker_10, # of connection points: 2
#     Edge 9, Type (0, 1), BuildingBlock: TEMPAE_clean_linker_10, # of connection points: 2
#     Edge 10, Type (0, 1), BuildingBlock: TEMPAE_clean_linker_10, # of connection points: 2
#     Edge 11, Type (0, 1), BuildingBlock: TEMPAE_clean_linker_10, # of connection points: 2
#     Edge 12, Type (0, 1), BuildingBlock: TEMPAE_clean_linker_10, # of connection points: 2
#     Edge 13, Type (0, 1), BuildingBlock: TEMPAE_clean_linker_10, # of connection points: 2
#     Edge 14, Type (0, 1), BuildingBlock: TEMPAE_clean_linker_10, # of connection points: 2
#     Edge 15, Type (0, 1), BuildingBlock: TEMPAE_clean_linker_10, # of connection points: 2
#     Edge 16, Type (0, 1), BuildingBlock: TEMPAE_clean_linker_10, # of connection points: 2
#     Edge 17, Type (0, 1), BuildingBlock: TEMPAE_clean_linker_10, # of connection points: 2
# Relax obj value: 0.074
# Max RMSD: 0.209
# Mean RMSD: 0.112
data_MOF--net-pth--node1-UXUYUI_clean_sbu_0--node2-NAWXER_clean_linker_0--edge1-TEMPAE_clean_linker_10
_symmetry_space_group_name_H-M    P1
_symmetry_Int_Tables_number       1
_symmetry_cell_setting            triclinic
loop_
_symmetry_equiv_pos_as_xyz
'x, y, z'
_cell_length_a     34.75368
_cell_length_b     34.766427
_cell_length_c     78.754895
_cell_angle_alpha  90.010534
_cell_angle_beta   90.032537
_cell_angle_gamma 120.00501
loop_
_atom_site_label
_atom_site_type_symbol
_atom_site_fract_x
_atom_site_fract_y
_atom_site_fract_z
_atom_type_partial_charge
Li0 Li 0.0337 0.0256 0.03894 0.0
Li1 Li 0.98387 0.02651 0.06039 0.0
Li2 Li 0.00868 0.97139 0.06323 0.0
Li3 Li 0.95697 0.96541 0.04187 0.0
C4 C 0.08793 0.05101 0.06811 0.0
N5 N 0.17441 0.07739 0.07722 0.0
C6 C 0.10881 0.08233 0.081 0.0
C7 C 0.11101 0.03314 0.05982 0.0
C8 C 0.15257 0.09524 0.08543 0.0
C9 C 0.15471 0.04689 0.06462 0.0
C10 C 0.96373 0.05682 0.03329 0.0
C11 C 0.90538 0.07492 0.03556 0.0
N12 N 0.93408 0.11688 0.03016 0.0
C13 C 0.9925 0.09995 0.02757 0.0
C14 C 0.91969 0.04402 0.03715 0.0
C15 C 0.97694 0.1299 0.02614 0.0
C16 C 0.091 0.04964 0.01005 0.0
N17 N 0.08165 0.06391 0.0247 0.0
C18 C 0.13757 0.13873 0.01889 0.0
C19 C 0.10467 0.10729 0.02943 0.0
C20 C 0.14677 0.12539 0.00329 0.0
C21 C 0.12358 0.08002 -0.00094 0.0
H22 H 0.07256 0.01491 0.00668 0.0
H23 H 0.09654 0.11761 0.0412 0.0
C24 C 0.94263 0.05288 0.08542 0.0
N25 N 0.97452 0.06703 0.07325 0.0
C26 C 0.93994 0.08359 0.09607 0.0
C27 C 0.00227 0.14266 0.08113 0.0
C28 C 0.00402 0.11085 0.07092 0.0
C29 C 0.97047 0.12918 0.09415 0.0
H30 H 0.92035 0.01772 0.08726 0.0
H31 H 0.02966 0.12098 0.06138 0.0
C32 C 0.99732 0.92541 0.02791 0.0
N33 N 0.96453 0.85387 0.00593 0.0
C34 C 0.98796 0.88367 0.0338 0.0
C35 C 0.99006 0.93075 0.01082 0.0
C36 C 0.97146 0.84794 0.02248 0.0
C37 C 0.97339 0.89416 -8e-05 0.0
C38 C 0.90787 0.9279 0.06987 0.0
C39 C 0.90348 0.88735 0.07495 0.0
C40 C 0.86995 0.93182 0.06813 0.0
C41 C 0.86113 0.8512 0.07794 0.0
C42 C 0.82818 0.89488 0.07122 0.0
N43 N 0.82467 0.85567 0.07601 0.0
C44 C 0.00887 0.93865 0.09526 0.0
C45 C 0.04984 0.92297 0.07509 0.0
C46 C 0.01443 0.91273 0.10742 0.0
N47 N 0.0253 0.94207 0.07934 0.0
C48 C 0.05643 0.89684 0.08691 0.0
C49 C 0.03747 0.8905 0.10316 0.0
H50 H 0.98982 0.95462 0.09826 0.0
H51 H 0.0629 0.92672 0.06236 0.0
C52 C 0.89345 0.93824 0.01539 0.0
N53 N 0.90712 0.9232 0.02872 0.0
C54 C 0.86144 0.90827 0.00411 0.0
C55 C 0.85753 0.84792 0.02068 0.0
C56 C 0.8894 0.87898 0.03164 0.0
C57 C 0.84376 0.86247 0.00653 0.0
H58 H 0.90872 0.9735 0.01308 0.0
H59 H 0.90157 0.86766 0.04197 0.0
O60 O 0.0451 0.03811 0.06368 0.0
O61 O 0.9785 0.02719 0.03504 0.0
O62 O 0.0128 0.96063 0.03886 0.0
O63 O 0.9491 0.96379 0.06701 0.0
H64 H 0.09135 0.09649 0.08751 0.0
H65 H 0.09545 0.00895 0.04978 0.0
H66 H 0.16916 0.11944 0.09539 0.0
H67 H 0.17297 0.03333 0.05833 0.0
H68 H 0.87144 0.06551 0.0386 0.0
H69 H 0.02652 0.11031 0.02433 0.0
H70 H 0.89683 0.01058 0.0413 0.0
H71 H -0.00106 0.16348 0.02184 0.0
H72 H 0.15521 0.1732 0.02282 0.0
H73 H 0.12947 0.0683 0.98714 0.0
H74 H 0.91535 0.07162 0.1061 0.0
H75 H 0.02607 0.17741 0.07901 0.0
H76 H 0.99261 0.87867 0.04702 0.0
H77 H 0.99607 0.96252 0.00612 0.0
H78 H 0.96385 0.81543 0.0269 0.0
H79 H 0.96718 0.89773 0.98672 0.0
H80 H 0.93232 0.88347 0.07624 0.0
H81 H 0.8727 0.96305 0.0645 0.0
H82 H 0.85724 0.81954 0.08173 0.0
H83 H 0.79856 0.89743 0.06985 0.0
H84 H -0.00012 0.90917 0.11989 0.0
H85 H 0.0743 0.88013 0.08314 0.0
H86 H 0.85205 0.92081 0.99323 0.0
H87 H 0.84451 0.81287 0.02305 0.0
Li88 Li 0.98207 0.95594 0.37429 0.0
Li89 Li 0.03788 0.01307 0.39423 0.0
Li90 Li 0.95982 0.9874 0.3973 0.0
Li91 Li -0.00011 0.03619 0.37473 0.0
C92 C 0.9705 0.9257 0.41245 0.0
N93 N 0.9291 0.87453 0.44067 0.0
C94 C 0.98576 0.94258 0.42871 0.0
C95 C 0.93444 0.88276 0.41051 0.0
C96 C 0.96429 0.91619 0.44283 0.0
C97 C 0.9139 0.85741 0.42495 0.0
C98 C 0.08193 0.02257 0.36542 0.0
C99 C 0.16008 0.07664 0.36386 0.0
N100 N 0.16871 0.044 0.35925 0.0
C101 C 0.09153 0.98965 0.36049 0.0
C102 C 0.11642 0.0665 0.36695 0.0
C103 C 0.13562 0.00111 0.3575 0.0
C104 C 0.9548 0.90296 0.3447 0.0
N105 N 0.97113 0.90692 0.36068 0.0
C106 C 0.98283 0.84565 0.35627 0.0
C107 C 0.98433 0.87875 0.36672 0.0
C108 C 0.96709 0.84137 0.33957 0.0
C109 C 0.95201 0.86981 0.33389 0.0
H110 H 0.94522 0.92639 0.34021 0.0
H111 H -0.00222 0.88325 0.37943 0.0
C112 C 0.1093 0.05945 0.41763 0.0
N113 N 0.0901 0.0256 0.40625 0.0
C114 C 0.1446 0.06441 0.42772 0.0
C115 C 0.13975 -0.00015 0.41403 0.0
C116 C 0.10446 0.99599 0.40433 0.0
C117 C 0.15992 0.03406 0.42608 0.0
H118 H 0.09628 0.08165 0.41931 0.0
H119 H 0.08742 0.96842 0.39564 0.0
C120 C 0.89626 0.96245 0.37338 0.0
N121 N 0.80507 0.92607 0.37425 0.0
C122 C 0.87777 0.9879 0.37892 0.0
C123 C 0.86835 0.91853 0.36824 0.0
C124 C 0.8316 0.96887 0.3793 0.0
C125 C 0.82234 0.90075 0.36877 0.0
C126 C 0.02016 0.09222 0.39999 0.0
C127 C 0.98734 0.10299 0.40373 0.0
C128 C 0.06348 0.12616 0.39662 0.0
C129 C -0.00166 0.14753 0.40384 0.0
C130 C 0.07314 0.17029 0.39684 0.0
N131 N 0.04064 0.17998 0.40041 0.0
C132 C 0.92635 0.00177 0.42748 0.0
C133 C 0.8746 0.93521 0.41366 0.0
C134 C 0.89505 0.99571 0.4398 0.0
N135 N 0.91522 0.97262 0.41439 0.0
C136 C 0.84209 0.92793 0.42567 0.0
C137 C 0.85194 0.95896 0.43875 0.0
H138 H 0.95943 0.03027 0.4282 0.0
H139 H 0.86709 0.91134 0.40362 0.0
C140 C 0.03497 0.09529 0.3469 0.0
N141 N 0.00515 0.08193 0.35985 0.0
C142 C 0.03761 0.12666 0.33516 0.0
C143 C 0.97911 0.13021 0.35038 0.0
C144 C 0.97723 0.09844 0.36166 0.0
C145 C 0.00937 0.14444 0.33685 0.0
H146 H 0.05613 0.08099 0.34547 0.0
H147 H 0.95298 0.08654 0.37171 0.0
O148 O 0.99035 0.95139 0.39851 0.0
O149 O 0.03902 0.01186 0.36868 0.0
O150 O 0.94138 0.98043 0.37284 0.0
O151 O 0.01 0.04874 0.39969 0.0
H152 H 0.01357 0.97587 0.43039 0.0
H153 H 0.92217 0.86939 0.39798 0.0
H154 H 0.97553 0.92888 0.4555 0.0
H155 H 0.88578 0.82419 0.42366 0.0
H156 H 0.1871 0.11048 0.36509 0.0
H157 H 0.06533 0.95556 0.35909 0.0
H158 H 0.10956 0.0925 0.37047 0.0
H159 H 0.14353 0.9759 0.35379 0.0
H160 H 0.99462 0.82417 0.36106 0.0
H161 H 0.94008 0.86765 0.32102 0.0
H162 H 0.15924 0.09119 0.43689 0.0
H163 H 0.14985 0.97516 0.41264 0.0
H164 H 0.89874 0.02159 0.38325 0.0
H165 H 0.88202 0.89824 0.36401 0.0
H166 H 0.81685 0.98807 0.3837 0.0
H167 H 0.80036 0.86677 0.36487 0.0
H168 H 0.95349 0.07726 0.40618 0.0
H169 H 0.08939 0.11857 0.39387 0.0
H170 H 0.97317 0.15628 0.40658 0.0
H171 H 0.10651 0.19684 0.39418 0.0
H172 H 0.90408 0.02041 0.44969 0.0
H173 H 0.80951 0.89863 0.42464 0.0
H174 H 0.06139 0.13685 0.32487 0.0
H175 H 0.95626 0.1426 0.35194 0.0
Li176 Li 0.03138 0.99247 0.70752 0.0
Li177 Li 0.02469 0.03552 0.72934 0.0
Li178 Li 0.97134 0.95749 0.72737 0.0
Li179 Li 0.97005 0.01137 0.70648 0.0
C180 C 0.06915 0.97605 0.73248 0.0
N181 N 0.1382 0.95814 0.73176 0.0
C182 C 0.11292 0.01022 0.73497 0.0
C183 C 0.06054 0.93274 0.72972 0.0
C184 C 0.14735 0.0005 0.73455 0.0
C185 C 0.09589 0.92437 0.72936 0.0
C186 C 0.06073 0.09675 0.70458 0.0
C187 C 0.06882 0.16867 0.69896 0.0
N188 N 0.11195 0.18836 0.70406 0.0
C189 C 0.10519 0.11774 0.70973 0.0
C190 C 0.04238 0.12242 0.69913 0.0
C191 C 0.1305 0.16407 0.7094 0.0
C192 C 0.05482 0.95009 0.68197 0.0
N193 N 0.07102 0.98488 0.69298 0.0
C194 C 0.14455 0.01275 0.68227 0.0
C195 C 0.11489 0.01604 0.69324 0.0
C196 C 0.12879 0.97744 0.67068 0.0
C197 C 0.0833 0.94573 0.67061 0.0
H198 H 0.0197 0.92615 0.68179 0.0
H199 H 0.12689 0.04377 0.70184 0.0
C200 C 0.0739 0.07098 0.75909 0.0
N201 N 0.05564 0.0815 0.7459 0.0
C202 C 0.09959 0.10289 0.77117 0.0
C203 C 0.08491 0.15534 0.75658 0.0
C204 C 0.05921 0.12223 0.74483 0.0
C205 C 0.1062 0.14602 0.76978 0.0
H206 H 0.06911 0.03787 0.7601 0.0
H207 H 0.0427 0.12933 0.73472 0.0
C208 C 0.93367 0.91066 0.69967 0.0
N209 N 0.86457 0.82446 0.69582 0.0
C210 C 0.89178 0.90254 0.69448 0.0
C211 C 0.94052 0.87492 0.70269 0.0
C212 C 0.85725 0.85873 0.69265 0.0
C213 C 0.90514 0.8316 0.70075 0.0
C214 C 0.95331 0.02738 0.74448 0.0
C215 C 0.95513 0.0133 0.76092 0.0
C216 C 0.94731 0.06384 0.74206 0.0
C217 C 0.95125 0.0363 0.77475 0.0
C218 C 0.94352 0.08593 0.75622 0.0
N219 N 0.94559 0.07184 0.77214 0.0
C220 C 0.94687 0.88761 0.75142 0.0
C221 C 0.88794 0.89332 0.73882 0.0
C222 C 0.91693 0.85305 0.76185 0.0
N223 N 0.93187 0.90685 0.74021 0.0
C224 C 0.85689 0.85877 0.74889 0.0
C225 C 0.8713 0.83847 0.76073 0.0
H226 H 0.9821 0.8999 0.75261 0.0
H227 H 0.87718 0.91026 0.73018 0.0
C228 C 0.94308 0.03299 0.67595 0.0
N229 N 0.93211 0.02168 0.69248 0.0
C230 C 0.91301 0.03577 0.66497 0.0
C231 C 0.86112 0.01526 0.6883 0.0
C232 C 0.89236 0.01338 0.69886 0.0
C233 C 0.87113 0.02604 0.67107 0.0
H234 H 0.97475 0.03872 0.67122 0.0
H235 H 0.88437 0.00374 0.71201 0.0
O236 O 0.03499 0.98499 0.7326 0.0
O237 O 0.0354 0.0514 0.70464 0.0
O238 O 0.96771 0.95334 0.70185 0.0
O239 O 0.95819 0.00601 0.73081 0.0
H240 H 0.12042 0.04408 0.73688 0.0
H241 H 0.02697 0.90586 0.72781 0.0
H242 H 0.18138 0.02669 0.73634 0.0
H243 H 0.08967 0.89103 0.72717 0.0
H244 H 0.05501 0.18891 0.69481 0.0
H245 H 0.11975 0.09863 0.71434 0.0
H246 H 0.00803 0.10689 0.6952 0.0
H247 H 0.16481 0.18073 0.71349 0.0
H248 H 0.17927 0.0383 0.68254 0.0
H249 H 0.06991 0.91798 0.66186 0.0
H250 H 0.11536 0.09425 0.78116 0.0
H251 H 0.08839 0.18795 0.75529 0.0
H252 H 0.88584 0.92968 0.69197 0.0
H253 H 0.97274 0.88055 0.70659 0.0
H254 H 0.82461 0.85198 0.68873 0.0
H255 H 0.90994 0.80365 0.70316 0.0
H256 H 0.95998 0.98522 0.76297 0.0
H257 H 0.94616 0.07528 0.72939 0.0
H258 H 0.95285 0.02597 0.78757 0.0
H259 H 0.93911 0.11438 0.75456 0.0
H260 H 0.92934 0.83825 0.77084 0.0
H261 H 0.82215 0.8492 0.74787 0.0
H262 H 0.92171 0.04374 0.65172 0.0
H263 H 0.82923 0.00776 0.69347 0.0
C264 C 0.96686 0.35148 0.24292 0.0
C265 C -0.00011 0.36329 0.25541 0.0
C266 C 0.96514 0.38417 0.23313 0.0
C267 C 0.99693 0.42918 0.23546 0.0
C268 C 0.03092 0.40849 0.25794 0.0
C269 C 0.02939 0.44101 0.24809 0.0
C270 C 0.99613 0.4647 0.2254 0.0
C271 C 0.01452 0.3771 0.18773 0.0
C272 C 0.98198 0.36008 0.17492 0.0
C273 C 0.01855 0.41109 0.19839 0.0
C274 C 0.98937 0.42782 0.19666 0.0
C275 C 0.95337 0.37739 0.17304 0.0
C276 C 0.95709 0.41097 0.1838 0.0
C277 C 0.99332 0.46437 0.20749 0.0
C278 C 0.04766 0.65344 0.19198 0.0
C279 C 0.01981 0.64749 0.17807 0.0
C280 C 0.04066 0.61722 0.20192 0.0
C281 C 0.00547 0.57443 0.19823 0.0
C282 C 0.98473 0.60452 0.17439 0.0
C283 C 0.97787 0.56833 0.18429 0.0
C284 C -0.00113 0.5356 0.20821 0.0
C285 C 0.96612 0.61607 0.2436 0.0
C286 C 0.99017 0.62907 0.25886 0.0
C287 C 0.9691 0.58571 0.23285 0.0
C288 C 0.99731 0.56887 0.23692 0.0
C289 C 0.01782 0.6118 0.26308 0.0
C290 C 0.02142 0.58205 0.25219 0.0
C291 C -0.00097 0.53478 0.22614 0.0
H292 H 0.94249 0.31698 0.24062 0.0
H293 H 0.93896 0.37427 0.2238 0.0
H294 H 0.05611 0.41888 0.26772 0.0
H295 H 0.05385 0.47557 0.25029 0.0
H296 H 0.03748 0.36483 0.18924 0.0
H297 H 0.04473 0.42458 0.20783 0.0
H298 H 0.92789 0.36473 0.16332 0.0
H299 H 0.93452 0.42368 0.18213 0.0
H300 H 0.07542 0.68594 0.19498 0.0
H301 H 0.06318 0.62255 0.21233 0.0
H302 H 0.96229 0.59887 0.16391 0.0
H303 H 0.95073 0.53556 0.18115 0.0
H304 H 0.944 0.62839 0.24024 0.0
H305 H 0.94847 0.57467 0.2216 0.0
H306 H 0.03672 0.62144 0.27479 0.0
H307 H 0.04294 0.56915 0.25575 0.0
N308 N -0.00147 0.49973 0.23398 0.0
N309 N 0.99509 0.5 0.19962 0.0
C310 C 0.64041 0.01392 0.52429 0.0
C311 C 0.62703 0.97687 0.51364 0.0
C312 C 0.60896 0.01933 0.5334 0.0
C313 C 0.56362 0.98761 0.53213 0.0
C314 C 0.58157 0.94536 0.51232 0.0
C315 C 0.55015 0.95087 0.5214 0.0
C316 C 0.5298 0.99307 0.54146 0.0
C317 C 0.61146 0.97264 0.58125 0.0
C318 C 0.63605 0.01055 0.59143 0.0
C319 C 0.57771 0.96935 0.57064 0.0
C320 C 0.56794 0.0039 0.57001 0.0
C321 C 0.626 0.04502 0.59073 0.0
C322 C 0.59201 0.0415 0.58023 0.0
C323 C 0.53189 0.00074 0.55913 0.0
C324 C 0.34844 0.96415 0.57452 0.0
C325 C 0.35746 0.99442 0.58783 0.0
C326 C 0.38288 0.96724 0.56442 0.0
C327 C 0.42696 0.00077 0.56739 0.0
C328 C 0.40152 0.02825 0.59067 0.0
C329 C 0.43599 0.03116 0.58062 0.0
C330 C 0.46396 0.00182 0.55774 0.0
C331 C 0.39302 0.0399 0.51988 0.0
C332 C 0.37281 0.00993 0.5064 0.0
C333 C 0.42184 0.03526 0.53094 0.0
C334 C 0.43076 0.00033 0.52883 0.0
C335 C 0.38182 0.97504 0.50427 0.0
C336 C 0.4108 0.97049 0.51532 0.0
C337 C 0.46324 0.99683 0.53992 0.0
H338 H 0.67521 0.03867 0.52559 0.0
H339 H 0.62005 0.0485 0.5413 0.0
H340 H 0.57022 0.91687 0.50401 0.0
H341 H 0.51527 0.92626 0.52011 0.0
H342 H 0.61771 0.9451 0.58171 0.0
H343 H 0.55886 0.93961 0.56308 0.0
H344 H 0.64464 0.07496 0.59818 0.0
H345 H 0.58486 0.06847 0.57994 0.0
H346 H 0.31478 0.93785 0.57202 0.0
H347 H 0.37515 0.94265 0.55458 0.0
H348 H 0.4095 0.05168 0.60098 0.0
H349 H 0.4698 0.05694 0.58327 0.0
H350 H 0.38655 0.06697 0.52189 0.0
H351 H 0.43779 0.05952 0.54096 0.0
H352 H 0.36717 0.95178 0.49385 0.0
H353 H 0.41767 0.94368 0.5133 0.0
N354 N 0.49574 0.99177 0.5325 0.0
N355 N 0.49872 0.00445 0.56662 0.0
C356 C 0.37115 0.35752 0.8558 0.0
C357 C 0.34832 0.3715 0.84498 0.0
C358 C 0.40732 0.38842 0.86538 0.0
C359 C 0.42104 0.43381 0.86442 0.0
C360 C 0.36248 0.41703 0.84392 0.0
C361 C 0.39869 0.44791 0.85347 0.0
C362 C 0.45946 0.46703 0.87433 0.0
C363 C 0.3539 0.3816 0.9124 0.0
C364 C 0.36746 0.35926 0.92367 0.0
C365 C 0.38491 0.4156 0.90201 0.0
C366 C 0.4299 0.42743 0.90257 0.0
C367 C 0.41257 0.37145 0.92426 0.0
C368 C 0.44348 0.40534 0.91387 0.0
C369 C 0.46358 0.46393 0.89204 0.0
C370 C 0.61521 0.64486 0.90936 0.0
C371 C 0.6322 0.63332 0.92342 0.0
C372 C 0.58374 0.61194 0.89874 0.0
C373 C 0.56938 0.56689 0.90178 0.0
C374 C 0.61794 0.58832 0.92643 0.0
C375 C 0.58679 0.55545 0.91573 0.0
C376 C 0.53332 0.53139 0.89155 0.0
C377 C 0.64463 0.60357 0.85452 0.0
C378 C 0.63581 0.62525 0.84132 0.0
C379 C 0.61052 0.57415 0.86522 0.0
C380 C 0.56699 0.56611 0.863 0.0
C381 C 0.59219 0.61703 0.83908 0.0
C382 C 0.55805 0.58749 0.84976 0.0
C383 C 0.53027 0.53324 0.87371 0.0
H384 H 0.36091 0.32264 0.85692 0.0
H385 H 0.42471 0.37687 0.87346 0.0
H386 H 0.34601 0.42887 0.83548 0.0
H387 H 0.4091 0.48285 0.85241 0.0
H388 H 0.3195 0.37347 0.91187 0.0
H389 H 0.37384 0.43303 0.89373 0.0
H390 H 0.42397 0.35458 0.93268 0.0
H391 H 0.47807 0.41411 0.91457 0.0
H392 H 0.62509 0.67924 0.90691 0.0
H393 H 0.56969 0.62171 0.88848 0.0
H394 H 0.63076 0.57853 0.93711 0.0
H395 H 0.57597 0.52096 0.91844 0.0
H396 H 0.67794 0.60938 0.85659 0.0
H397 H 0.61807 0.55715 0.87506 0.0
H398 H 0.58428 0.63277 0.82886 0.0
H399 H 0.52461 0.5813 0.84767 0.0
N400 N 0.49308 0.50143 0.86583 0.0
N401 N 0.50019 0.49638 0.89995 0.0
C402 C 0.93076 0.15835 0.11204 0.0
C403 C 0.97069 0.16236 0.10613 0.0
C404 C 0.93087 0.18932 0.12352 0.0
C405 C 0.97186 0.22533 0.12907 0.0
C406 C 0.01223 0.22959 0.12316 0.0
C407 C 0.01116 0.19792 0.11187 0.0
C408 C 0.88716 0.18362 0.12965 0.0
C409 C 0.05663 0.26767 0.12875 0.0
C410 C 0.97551 0.32951 0.14568 0.0
C411 C 0.97845 0.32504 0.16325 0.0
C412 C 0.97287 0.29705 0.13442 0.0
C413 C 0.97275 0.25903 0.14092 0.0
C414 C 0.97506 0.25402 0.15867 0.0
C415 C 0.97818 0.28728 0.16964 0.0
C416 C 0.97107 0.30384 0.11556 0.0
C417 C 0.9745 0.21367 0.16606 0.0
H418 H 0.89936 0.13125 0.10755 0.0
H419 H 0.04219 0.20079 0.10769 0.0
H420 H 0.88577 0.18197 0.14372 0.0
H421 H 0.8842 0.21275 0.12583 0.0
H422 H 0.8582 0.15313 0.12448 0.0
H423 H 0.08498 0.26644 0.12281 0.0
H424 H 0.05894 0.29976 0.12539 0.0
H425 H 0.05986 0.26713 0.14274 0.0
H426 H 0.97619 0.35894 0.14073 0.0
H427 H 0.97997 0.2836 0.18324 0.0
H428 H 0.94111 0.27526 0.10996 0.0
H429 H 0.00044 0.3055 0.10928 0.0
H430 H 0.97043 0.33476 0.1126 0.0
H431 H 0.94449 0.18301 0.16168 0.0
H432 H 0.97483 0.21404 0.18016 0.0
H433 H 0.00384 0.21199 0.16152 0.0
C434 C 0.77517 0.94478 0.44437 0.0
C435 C 0.81695 0.95478 0.45062 0.0
C436 C 0.74328 0.94544 0.45507 0.0
C437 C 0.7534 0.95621 0.47245 0.0
C438 C 0.79484 0.96457 0.47898 0.0
C439 C 0.8262 0.96387 0.46796 0.0
C440 C 0.69949 0.93647 0.44763 0.0
C441 C 0.80664 0.97577 0.49747 0.0
C442 C 0.69385 0.00811 0.49482 0.0
C443 C 0.66021 0.9717 0.50357 0.0
C444 C 0.72463 0.00354 0.48478 0.0
C445 C 0.72176 0.96156 0.48351 0.0
C446 C 0.68824 0.92478 0.49248 0.0
C447 C 0.65776 0.93027 0.50238 0.0
C448 C 0.75979 0.0435 0.47533 0.0
C449 C 0.68439 0.87961 0.4915 0.0
H450 H 0.76807 0.93826 0.43093 0.0
H451 H 0.85828 0.97107 0.47287 0.0
H452 H 0.67145 0.91039 0.45505 0.0
H453 H 0.69698 0.96701 0.44837 0.0
H454 H 0.69564 0.92572 0.43415 0.0
H455 H 0.8388 0.97805 0.50079 0.0
H456 H 0.80893 0.00805 0.50043 0.0
H457 H 0.78024 0.95031 0.50567 0.0
H458 H 0.69551 0.04004 0.49552 0.0
H459 H 0.63209 0.90216 0.50928 0.0
H460 H 0.75603 0.03696 0.46146 0.0
H461 H 0.79333 0.04986 0.47895 0.0
H462 H 0.75794 0.07395 0.47791 0.0
H463 H 0.67814 0.86756 0.47818 0.0
H464 H 0.65715 0.85469 0.4996 0.0
H465 H 0.71608 0.8819 0.49551 0.0
C466 C 0.84829 0.80621 0.78985 0.0
C467 C 0.83895 0.80411 0.77244 0.0
C468 C 0.81653 0.77619 0.8013 0.0
C469 C 0.77452 0.74325 0.79515 0.0
C470 C 0.76538 0.74015 0.77753 0.0
C471 C 0.79769 0.77069 0.76639 0.0
C472 C 0.82743 0.7806 0.82001 0.0
C473 C 0.72109 0.70523 0.77049 0.0
C474 C 0.70191 0.6439 0.82307 0.0
C475 C 0.67184 0.65577 0.82971 0.0
C476 C 0.73566 0.67212 0.81185 0.0
C477 C 0.73945 0.7132 0.80722 0.0
C478 C 0.7094 0.72551 0.81398 0.0
C479 C 0.6759 0.6966 0.82513 0.0
C480 C 0.76696 0.65779 0.80482 0.0
C481 C 0.71258 0.76921 0.80942 0.0
H482 H 0.87993 0.83232 0.79462 0.0
H483 H 0.79055 0.76866 0.75291 0.0
H484 H 0.80503 0.78922 0.82699 0.0
H485 H 0.82182 0.74849 0.82515 0.0
H486 H 0.86236 0.80654 0.82263 0.0
H487 H 0.72005 0.70592 0.7564 0.0
H488 H 0.71375 0.6717 0.77458 0.0
H489 H 0.69429 0.71048 0.77557 0.0
H490 H 0.69856 0.61212 0.82642 0.0
H491 H 0.65306 0.70612 0.83039 0.0
H492 H 0.80179 0.68285 0.80796 0.0
H493 H 0.76431 0.65562 0.79077 0.0
H494 H 0.75991 0.62507 0.80987 0.0
H495 H 0.74589 0.79712 0.81286 0.0
H496 H 0.68697 0.77403 0.81594 0.0
H497 H 0.70861 0.7709 0.79551 0.0
C498 C 0.07784 0.85703 0.11789 0.0
C499 C 0.03857 0.85818 0.11513 0.0
C500 C 0.07828 0.82501 0.12864 0.0
C501 C 0.03839 0.7932 0.1366 0.0
C502 C -0.00119 0.79458 0.13399 0.0
C503 C -0.00057 0.82711 0.12333 0.0
C504 C 0.1212 0.8248 0.13129 0.0
C505 C 0.9555 0.76095 0.1421 0.0
C506 C 0.02253 0.68128 0.14969 0.0
C507 C 0.02725 0.68583 0.16739 0.0
C508 C 0.02724 0.7164 0.13948 0.0
C509 C 0.03728 0.75721 0.14713 0.0
C510 C 0.04348 0.76255 0.16492 0.0
C511 C 0.03821 0.72672 0.17485 0.0
C512 C 0.02027 0.7094 0.12054 0.0
C513 C 0.0544 0.80568 0.17351 0.0
H514 H 0.1082 0.88122 0.11165 0.0
H515 H 0.96884 0.82745 0.12101 0.0
H516 H 0.12865 0.82626 0.14505 0.0
H517 H 0.11785 0.79341 0.12633 0.0
H518 H 0.14973 0.85313 0.12485 0.0
H519 H 0.92799 0.76746 0.13918 0.0
H520 H 0.94596 0.72711 0.13756 0.0
H521 H 0.9594 0.76116 0.15609 0.0
H522 H 0.01496 0.65009 0.14379 0.0
H523 H 0.04152 0.73038 0.18853 0.0
H524 H 0.04964 0.73535 0.11365 0.0
H525 H 0.99125 0.7125 0.11665 0.0
H526 H 0.01443 0.67628 0.11651 0.0
H527 H 0.08356 0.83387 0.16734 0.0
H528 H 0.06163 0.80561 0.18725 0.0
H529 H 0.02603 0.81164 0.17214 0.0
C530 C 0.22832 0.02891 0.43127 0.0
C531 C 0.19461 0.03592 0.4376 0.0
C532 C 0.25902 0.02675 0.44223 0.0
C533 C 0.25577 0.03152 0.45993 0.0
C534 C 0.22255 0.03979 0.46636 0.0
C535 C 0.19239 0.04196 0.4551 0.0
C536 C 0.29426 0.01829 0.43489 0.0
C537 C 0.21798 0.04493 0.48517 0.0
C538 C 0.30258 0.97865 0.48942 0.0
C539 C 0.3429 0.01547 0.49445 0.0
C540 C 0.27391 0.98345 0.47819 0.0
C541 C 0.28598 0.02609 0.4718 0.0
C542 C 0.32672 0.06337 0.47678 0.0
C543 C 0.35467 0.05762 0.48807 0.0
C544 C 0.2306 0.94293 0.47324 0.0
C545 C 0.3408 0.10929 0.47014 0.0
H546 H 0.23041 0.0247 0.41772 0.0
H547 H 0.16605 0.04681 0.46008 0.0
H548 H 0.32768 0.04436 0.43917 0.0
H549 H 0.28923 0.98599 0.43957 0.0
H550 H 0.29369 0.0176 0.42079 0.0
H551 H 0.19174 0.05332 0.48804 0.0
H552 H 0.20968 0.01356 0.4918 0.0
H553 H 0.24994 0.07133 0.49047 0.0
H554 H 0.29314 0.9461 0.49447 0.0
H555 H 0.3861 0.0861 0.49176 0.0
H556 H 0.22911 0.93844 0.45926 0.0
H557 H 0.20232 0.9475 0.47691 0.0
H558 H 0.22618 0.91216 0.47933 0.0
H559 H 0.3427 0.10953 0.45607 0.0
H560 H 0.37359 0.1348 0.47522 0.0
H561 H 0.31571 0.11876 0.47359 0.0
C562 C 0.13699 0.17286 0.79891 0.0
C563 C 0.13715 0.18144 0.7815 0.0
C564 C 0.16913 0.20455 0.80982 0.0
C565 C 0.20229 0.24569 0.80313 0.0
C566 C 0.20165 0.25516 0.78568 0.0
C567 C 0.16901 0.22292 0.77508 0.0
C568 C 0.16852 0.19342 0.82839 0.0
C569 C 0.23652 0.29862 0.77808 0.0
C570 C 0.27168 0.3416 0.83305 0.0
C571 C 0.31046 0.33884 0.83453 0.0
C572 C 0.23598 0.31131 0.82296 0.0
C573 C 0.2393 0.27763 0.81413 0.0
C574 C 0.27829 0.27459 0.81564 0.0
C575 C 0.31337 0.3052 0.82584 0.0
C576 C 0.19481 0.31539 0.82172 0.0
C577 C 0.28314 0.23925 0.80634 0.0
H578 H 0.11204 0.14103 0.80396 0.0
H579 H 0.16957 0.22952 0.7616 0.0
H580 H 0.19855 0.19128 0.83148 0.0
H581 H 0.16942 0.22008 0.83641 0.0
H582 H 0.13867 0.16138 0.83181 0.0
H583 H 0.22958 0.30204 0.76456 0.0
H584 H 0.23862 0.32695 0.78534 0.0
H585 H 0.26954 0.30104 0.77888 0.0
H586 H 0.2691 0.36726 0.8399 0.0
H587 H 0.3435 0.30331 0.82676 0.0
H588 H 0.16534 0.28403 0.82592 0.0
H589 H 0.189 0.32091 0.80832 0.0
H590 H 0.19731 0.34314 0.82955 0.0
H591 H 0.256 0.20581 0.81006 0.0
H592 H 0.31548 0.24121 0.80898 0.0
H593 H 0.28028 0.24261 0.79245 0.0
C594 C 0.79396 0.98837 0.65945 0.0
C595 C 0.83723 0.02491 0.65936 0.0
C596 C 0.7616 0.9861 0.64821 0.0
C597 C 0.77269 0.02147 0.63675 0.0
C598 C 0.81629 0.05859 0.63666 0.0
C599 C 0.84818 0.05972 0.64791 0.0
C600 C 0.71563 0.9457 0.64853 0.0
C601 C 0.82913 0.09718 0.62476 0.0
C602 C 0.70002 -0.00163 0.59774 0.0
C603 C 0.67161 0.01394 0.60293 0.0
C604 C 0.7332 0.00076 0.60859 0.0
C605 C 0.73845 0.01967 0.62494 0.0
C606 C 0.71032 0.03596 0.63019 0.0
C607 C 0.67706 0.03261 0.61918 0.0
C608 C 0.76239 0.98273 0.60261 0.0
C609 C 0.71508 0.05656 0.64751 0.0
H610 H 0.78564 0.96112 0.66814 0.0
H611 H 0.88159 0.08809 0.64791 0.0
H612 H 0.69065 0.95572 0.65146 0.0
H613 H 0.7073 0.92967 0.63584 0.0
H614 H 0.71258 0.92082 0.65808 0.0
H615 H 0.86438 0.12361 0.62634 0.0
H616 H 0.82388 0.0855 0.6114 0.0
H617 H 0.80761 0.11182 0.62703 0.0
H618 H 0.69654 0.98453 0.58513 0.0
H619 H 0.65484 0.04405 0.62342 0.0
H620 H 0.75893 0.95606 0.6113 0.0
H621 H 0.79777 0.00934 0.60291 0.0
H622 H 0.75401 0.96907 0.58952 0.0
H623 H 0.70876 0.03164 0.65752 0.0
H624 H 0.69176 0.06931 0.64937 0.0
H625 H 0.74954 0.0844 0.64931 0.0
C626 C 0.81934 0.79536 0.98832 0.0
C627 C 0.81289 0.83 0.99393 0.0
C628 C 0.79049 0.76413 0.97647 0.0
C629 C 0.75422 0.76757 0.97013 0.0
C630 C 0.74774 0.80271 0.97562 0.0
C631 C 0.77729 0.83365 0.98744 0.0
C632 C 0.7987 0.72734 0.97082 0.0
C633 C 0.70926 0.80725 0.96919 0.0
C634 C 0.69993 0.70698 0.92915 0.0
C635 C 0.66344 0.66795 0.93531 0.0
C636 C 0.72972 0.73988 0.94034 0.0
C637 C 0.72249 0.73366 0.95807 0.0
C638 C 0.68541 0.69451 0.96433 0.0
C639 C 0.65642 0.66205 0.95287 0.0
C640 C 0.76916 0.78101 0.93321 0.0
C641 C 0.67641 0.68688 0.98314 0.0
H642 H 0.84733 0.79293 0.99308 0.0
H643 H 0.77212 0.86028 0.99182 0.0
H644 H 0.76989 0.69463 0.97426 0.0
H645 H 0.80214 0.72793 0.9568 0.0
H646 H 0.82908 0.73005 0.97664 0.0
H647 H 0.70942 0.83697 0.97446 0.0
H648 H 0.71032 0.80957 0.95514 0.0
H649 H 0.67744 0.7773 0.97267 0.0
H650 H 0.70556 0.71145 0.91557 0.0
H651 H 0.62784 0.63218 0.95764 0.0
H652 H 0.80041 0.78351 0.93793 0.0
H653 H 0.76872 0.8111 0.93762 0.0
H654 H 0.76968 0.78104 0.91911 0.0
H655 H 0.70464 0.68644 0.98953 0.0
H656 H 0.64552 0.65511 0.98591 0.0
H657 H 0.67342 0.71451 0.98879 0.0
C658 C 0.93167 0.77962 0.31841 0.0
C659 C 0.9691 0.80928 0.32781 0.0
C660 C 0.93361 0.74938 0.30712 0.0
C661 C 0.97421 0.74963 0.30498 0.0
C662 C 0.01219 0.7799 0.31435 0.0
C663 C 0.00906 0.80911 0.32577 0.0
C664 C 0.89225 0.71703 0.29757 0.0
C665 C 0.05626 0.78172 0.31218 0.0
C666 C 0.97486 0.64814 0.28766 0.0
C667 C 0.98555 0.65972 0.27058 0.0
C668 C 0.9701 0.67671 0.29893 0.0
C669 C 0.97708 0.71816 0.293 0.0
C670 C 0.98796 0.73002 0.27574 0.0
C671 C 0.99164 0.70039 0.26467 0.0
C672 C 0.9577 0.66261 0.31718 0.0
C673 C 0.99645 0.77428 0.26903 0.0
H674 H 0.90076 0.77974 0.32007 0.0
H675 H 0.03814 0.83253 0.3329 0.0
H676 H 0.89807 0.72209 0.28369 0.0
H677 H 0.88408 0.68248 0.30038 0.0
H678 H 0.86315 0.72063 0.3009 0.0
H679 H 0.08282 0.80787 0.32017 0.0
H680 H 0.05289 0.74921 0.31558 0.0
H681 H 0.06679 0.78829 0.2987 0.0
H682 H 0.96967 0.6164 0.29214 0.0
H683 H 0.00015 0.70935 0.25146 0.0
H684 H 0.92733 0.66378 0.3206 0.0
H685 H 0.98468 0.68598 0.32573 0.0
H686 H 0.95162 0.62852 0.31957 0.0
H687 H 0.96689 0.77793 0.27116 0.0
H688 H 0.00439 0.77831 0.25526 0.0
H689 H 0.02457 0.8016 0.27603 0.0
C690 C 0.20132 0.98246 0.66369 0.0
C691 C 0.15968 0.97503 0.65834 0.0
C692 C 0.23223 0.98352 0.65199 0.0
C693 C 0.22129 0.97731 0.63451 0.0
C694 C 0.17892 0.9688 0.62906 0.0
C695 C 0.1485 0.9676 0.64107 0.0
C696 C 0.27691 0.99216 0.65831 0.0
C697 C 0.1662 0.96227 0.61051 0.0
C698 C 0.31831 0.02707 0.60378 0.0
C699 C 0.32131 0.98973 0.59916 0.0
C700 C 0.28533 0.02332 0.61503 0.0
C701 C 0.25487 0.98125 0.6219 0.0
C702 C 0.25738 0.94333 0.61713 0.0
C703 C 0.29053 0.94801 0.60576 0.0
C704 C 0.28342 0.06446 0.61972 0.0
C705 C 0.22569 0.89801 0.6243 0.0
H706 H 0.20981 0.98771 0.67707 0.0
H707 H 0.1165 0.96231 0.63688 0.0
H708 H 0.2831 0.96536 0.65398 0.0
H709 H 0.3036 0.02379 0.65291 0.0
H710 H 0.27941 0.99427 0.67238 0.0
H711 H 0.1313 0.95411 0.60845 0.0
H712 H 0.18848 0.99297 0.60335 0.0
H713 H 0.17048 0.93517 0.60511 0.0
H714 H 0.34178 0.05927 0.59855 0.0
H715 H 0.29309 0.91915 0.60238 0.0
H716 H 0.2892 0.0708 0.63355 0.0
H717 H 0.24994 0.05946 0.61691 0.0
H718 H 0.30853 0.09436 0.61278 0.0
H719 H 0.22977 0.89838 0.63829 0.0
H720 H 0.23115 0.87165 0.61886 0.0
H721 H 0.19085 0.88932 0.62178 0.0
C722 C 0.20875 0.1505 0.98211 0.0
C723 C 0.17914 0.1589 0.99129 0.0
C724 C 0.23926 0.182 0.9707 0.0
C725 C 0.24022 0.22288 0.96847 0.0
C726 C 0.21029 0.23147 0.97762 0.0
C727 C 0.18004 0.19934 0.98886 0.0
C728 C 0.27071 0.17173 0.96114 0.0
C729 C 0.2103 0.27467 0.97556 0.0
C730 C 0.34562 0.32248 0.95212 0.0
C731 C 0.3349 0.32393 0.93505 0.0
C732 C 0.31527 0.28948 0.96308 0.0
C733 C 0.27313 0.25717 0.95683 0.0
C734 C 0.26212 0.2583 0.93959 0.0
C735 C 0.29315 0.29173 0.9289 0.0
C736 C 0.32809 0.28951 0.98141 0.0
C737 C 0.21753 0.22431 0.93247 0.0
H738 H 0.20851 0.11951 0.98403 0.0
H739 H 0.15668 0.20573 0.99565 0.0
H740 H 0.267 0.17444 0.94727 0.0
H741 H 0.30554 0.19633 0.9645 0.0
H742 H 0.26488 0.13792 0.96397 0.0
H743 H 0.18468 0.27605 0.98355 0.0
H744 H 0.24334 0.30295 0.97905 0.0
H745 H 0.20415 0.27928 0.96209 0.0
H746 H 0.37759 0.34765 0.957 0.0
H747 H 0.28492 0.2924 0.91567 0.0
H748 H 0.32526 0.25714 0.98465 0.0
H749 H 0.30497 0.29384 0.98985 0.0
H750 H 0.36255 0.31637 0.98417 0.0
H751 H 0.21233 0.19039 0.93431 0.0
H752 H 0.21441 0.22942 0.91873 0.0
H753 H 0.19058 0.22591 0.9394 0.0
C754 C 0.00946 0.16828 0.30688 0.0
C755 C 0.01029 0.17665 0.32433 0.0
C756 C 0.00798 0.19741 0.2949 0.0
C757 C 0.00785 0.236 0.30055 0.0
C758 C 0.0095 0.24499 0.31816 0.0
C759 C 0.01045 0.21505 0.32984 0.0
C760 C 0.00577 0.18651 0.27624 0.0
C761 C 0.01003 0.28613 0.32466 0.0
C762 C 0.04275 0.33316 0.27051 0.0
C763 C 0.00167 0.32896 0.2661 0.0
C764 C 0.04523 0.30276 0.28151 0.0
C765 C 0.00564 0.26694 0.2881 0.0
C766 C 0.96399 0.26165 0.2833 0.0
C767 C 0.96251 0.29284 0.27242 0.0
C768 C 0.09025 0.30955 0.28637 0.0
C769 C 0.92104 0.22363 0.28999 0.0
H770 H 0.00881 0.13831 0.30261 0.0
H771 H 0.0115 0.22174 0.34333 0.0
H772 H 0.97468 0.18265 0.27068 0.0
H773 H 0.03389 0.21415 0.2694 0.0
H774 H 0.00677 0.1555 0.27394 0.0
H775 H 0.01239 0.28873 0.33872 0.0
H776 H 0.03859 0.31623 0.31914 0.0
H777 H 0.97935 0.28593 0.3206 0.0
H778 H 0.07312 0.36048 0.26542 0.0
H779 H 0.93066 0.28958 0.26925 0.0
H780 H 0.09217 0.27941 0.28332 0.0
H781 H 0.09523 0.31497 0.30027 0.0
H782 H 0.11781 0.33841 0.27976 0.0
H783 H 0.91958 0.19154 0.28742 0.0
H784 H 0.8914 0.22268 0.28422 0.0
H785 H 0.91946 0.22667 0.30396 0.0
loop_
_geom_bond_atom_site_label_1
_geom_bond_atom_site_label_2
_geom_bond_distance
_geom_bond_site_symmetry_2
_ccdc_geom_bond_type
Li0 N17 1.990 . S
Li0 O60 1.956 . S
Li0 O61 1.970 1_455 S
Li0 O62 1.961 1_545 S
Li1 N25 1.990 . S
Li1 O60 1.970 1_655 S
Li1 O61 1.956 . S
Li1 O63 1.961 1_545 S
Li2 N47 1.990 . S
Li2 O60 1.961 1_565 S
Li2 O62 1.956 . S
Li2 O63 1.970 1_455 S
Li3 N53 1.990 . S
Li3 O61 1.961 1_565 S
Li3 O62 1.970 1_655 S
Li3 O63 1.956 . S
C4 C6 1.348 . S
C4 C7 1.356 . S
C4 O60 1.325 . S
N5 C8 1.314 . S
N5 C9 1.279 . S
C6 C4 1.348 . S
C6 C8 1.353 . S
C6 H64 0.929 . S
C7 C4 1.356 . S
C7 C9 1.358 . S
C7 H65 0.930 . S
C8 N5 1.314 . S
C8 C6 1.353 . S
C8 H66 0.930 . S
C9 N5 1.279 . S
C9 C7 1.358 . S
C9 H67 0.930 . S
C10 C13 1.348 1_655 S
C10 C14 1.356 . S
C10 O61 1.325 . S
C11 N12 1.279 . S
C11 C14 1.358 . S
C11 H68 0.930 . S
N12 C11 1.279 . S
N12 C15 1.314 . S
C13 C10 1.348 1_455 S
C13 C15 1.353 1_455 S
C13 H69 0.929 . S
C14 C10 1.356 . S
C14 C11 1.358 . S
C14 H70 0.930 . S
C15 N12 1.314 . S
C15 C13 1.353 1_655 S
C15 H71 0.930 1_655 S
C16 N17 1.314 . S
C16 C21 1.376 . S
C16 H22 0.930 . S
N17 Li0 1.990 . S
N17 C16 1.314 . S
N17 C19 1.279 . S
C18 C19 1.358 . S
C18 C20 1.356 . S
C18 H72 0.930 . S
C19 N17 1.279 . S
C19 C18 1.358 . S
C19 H23 0.930 . S
C20 C18 1.356 . S
C20 C21 1.359 . S
C21 C16 1.376 . S
C21 C20 1.359 . S
C21 H73 0.896 1_554 S
H22 C16 0.930 . S
H23 C19 0.930 . S
C24 N25 1.314 . S
C24 C26 1.353 . S
C24 H30 0.930 . S
N25 Li1 1.990 . S
N25 C24 1.314 . S
N25 C28 1.279 . S
C26 C24 1.353 . S
C26 C29 1.348 . S
C26 H74 0.929 . S
C27 C28 1.358 . S
C27 C29 1.356 . S
C27 H75 0.930 . S
C28 N25 1.279 . S
C28 C27 1.358 . S
C28 H31 0.930 . S
C29 C26 1.348 . S
C29 C27 1.356 . S
H30 C24 0.930 . S
H31 C28 0.930 . S
C32 C34 1.348 1_455 S
C32 C35 1.356 . S
C32 O62 1.325 . S
N33 C36 1.314 . S
N33 C37 1.279 . S
C34 C32 1.348 1_655 S
C34 C36 1.353 1_655 S
C34 H76 0.929 . S
C35 C32 1.356 . S
C35 C37 1.358 . S
C35 H77 0.930 . S
C36 N33 1.314 . S
C36 C34 1.353 1_455 S
C36 H78 0.930 1_455 S
C37 N33 1.279 . S
C37 C35 1.358 . S
C37 H79 0.930 . S
C38 C39 1.348 . S
C38 C40 1.356 . S
C38 O63 1.325 . S
C39 C38 1.348 . S
C39 C41 1.353 . S
C39 H80 0.929 . S
C40 C38 1.356 . S
C40 C42 1.358 . S
C40 H81 0.930 . S
C41 C39 1.353 . S
C41 N43 1.314 . S
C41 H82 0.930 . S
C42 C40 1.358 . S
C42 N43 1.279 . S
C42 H83 0.930 . S
N43 C41 1.314 . S
N43 C42 1.279 . S
C44 C46 1.353 . S
C44 N47 1.314 . S
C44 H50 0.930 . S
C45 N47 1.279 . S
C45 C48 1.358 . S
C45 H51 0.930 . S
C46 C44 1.353 . S
C46 C49 1.348 . S
C46 H84 0.929 . S
N47 Li2 1.990 . S
N47 C44 1.314 . S
N47 C45 1.279 . S
C48 C45 1.358 . S
C48 C49 1.356 . S
C48 H85 0.930 . S
C49 C46 1.348 . S
C49 C48 1.356 . S
H50 C44 0.930 . S
H51 C45 0.930 . S
C52 N53 1.314 . S
C52 C54 1.376 . S
C52 H58 0.930 . S
N53 Li3 1.990 . S
N53 C52 1.314 . S
N53 C56 1.279 . S
C54 C52 1.376 . S
C54 C57 1.359 . S
C54 H86 0.896 1_554 S
C55 C56 1.358 . S
C55 C57 1.356 . S
C55 H87 0.930 . S
C56 N53 1.279 . S
C56 C55 1.358 . S
C56 H59 0.930 . S
C57 C54 1.359 . S
C57 C55 1.356 . S
H58 C52 0.930 . S
H59 C56 0.930 . S
O60 Li0 1.956 . S
O60 Li1 1.970 1_455 S
O60 Li2 1.961 1_545 S
O60 C4 1.325 . S
O61 Li0 1.970 1_655 S
O61 Li1 1.956 . S
O61 Li3 1.961 1_545 S
O61 C10 1.325 . S
O62 Li0 1.961 1_565 S
O62 Li2 1.956 . S
O62 Li3 1.970 1_455 S
O62 C32 1.325 . S
O63 Li1 1.961 1_565 S
O63 Li2 1.970 1_655 S
O63 Li3 1.956 . S
O63 C38 1.325 . S
H64 C6 0.929 . S
H65 C7 0.930 . S
H66 C8 0.930 . S
H67 C9 0.930 . S
H68 C11 0.930 . S
H69 C13 0.929 . S
H70 C14 0.930 . S
H71 C15 0.930 1_455 S
H72 C18 0.930 . S
H73 C21 0.896 1_556 S
H74 C26 0.929 . S
H75 C27 0.930 . S
H76 C34 0.929 . S
H77 C35 0.930 . S
H78 C36 0.930 1_655 S
H79 C37 0.930 . S
H80 C39 0.929 . S
H81 C40 0.930 . S
H82 C41 0.930 . S
H83 C42 0.930 . S
H84 C46 0.929 . S
H85 C48 0.930 . S
H86 C54 0.896 1_556 S
H87 C55 0.930 . S
Li88 N105 1.990 . S
Li88 O148 1.956 . S
Li88 O149 1.970 1_665 S
Li88 O150 1.961 . S
Li89 N113 1.990 . S
Li89 O148 1.970 1_445 S
Li89 O149 1.956 . S
Li89 O151 1.961 . S
Li90 N135 1.990 . S
Li90 O148 1.961 . S
Li90 O150 1.956 . S
Li90 O151 1.970 1_665 S
Li91 N141 1.990 . S
Li91 O149 1.961 . S
Li91 O150 1.970 1_445 S
Li91 O151 1.956 . S
C92 C94 1.348 1_655 S
C92 C95 1.356 . S
C92 O148 1.325 . S
N93 C96 1.314 . S
N93 C97 1.279 . S
C94 C92 1.348 1_455 S
C94 C96 1.353 1_455 S
C94 H152 0.929 . S
C95 C92 1.356 . S
C95 C97 1.358 . S
C95 H153 0.930 . S
C96 N93 1.314 . S
C96 C94 1.353 1_655 S
C96 H154 0.930 1_655 S
C97 N93 1.279 . S
C97 C95 1.358 . S
C97 H155 0.930 . S
C98 C101 1.348 1_545 S
C98 C102 1.356 . S
C98 O149 1.325 . S
C99 N100 1.279 . S
C99 C102 1.358 . S
C99 H156 0.930 . S
N100 C99 1.279 . S
N100 C103 1.314 . S
C101 C98 1.348 1_565 S
C101 C103 1.353 1_565 S
C101 H157 0.929 . S
C102 C98 1.356 . S
C102 C99 1.358 . S
C102 H158 0.930 . S
C103 N100 1.314 . S
C103 C101 1.353 1_545 S
C103 H159 0.930 1_545 S
C104 N105 1.314 . S
C104 C109 1.353 . S
C104 H110 0.930 . S
N105 Li88 1.990 . S
N105 C104 1.314 . S
N105 C107 1.279 . S
C106 C107 1.358 . S
C106 C108 1.356 . S
C106 H160 0.930 . S
C107 N105 1.279 . S
C107 C106 1.358 . S
C107 H111 0.930 . S
C108 C106 1.356 . S
C108 C109 1.348 . S
C109 C104 1.353 . S
C109 C108 1.348 . S
C109 H161 0.929 . S
H110 C104 0.930 . S
H111 C107 0.930 . S
C112 N113 1.314 . S
C112 C114 1.353 . S
C112 H118 0.930 . S
N113 Li89 1.990 . S
N113 C112 1.314 . S
N113 C116 1.279 . S
C114 C112 1.353 . S
C114 C117 1.348 . S
C114 H162 0.929 . S
C115 C116 1.358 . S
C115 C117 1.356 . S
C115 H163 0.930 . S
C116 N113 1.279 . S
C116 C115 1.358 . S
C116 H119 0.930 . S
C117 C114 1.348 . S
C117 C115 1.356 . S
H118 C112 0.930 . S
H119 C116 0.930 . S
C120 C122 1.348 1_565 S
C120 C123 1.356 . S
C120 O150 1.325 . S
N121 C124 1.314 . S
N121 C125 1.279 . S
C122 C120 1.348 1_545 S
C122 C124 1.353 1_545 S
C122 H164 0.929 . S
C123 C120 1.356 . S
C123 C125 1.358 . S
C123 H165 0.930 . S
C124 N121 1.314 . S
C124 C122 1.353 1_565 S
C124 H166 0.930 1_565 S
C125 N121 1.279 . S
C125 C123 1.358 . S
C125 H167 0.930 . S
C126 C127 1.348 1_455 S
C126 C128 1.356 . S
C126 O151 1.325 . S
C127 C126 1.348 1_655 S
C127 C129 1.353 1_655 S
C127 H168 0.929 . S
C128 C126 1.356 . S
C128 C130 1.358 . S
C128 H169 0.930 . S
C129 C127 1.353 1_455 S
C129 N131 1.314 . S
C129 H170 0.930 1_455 S
C130 C128 1.358 . S
C130 N131 1.279 . S
C130 H171 0.930 . S
N131 C129 1.314 . S
N131 C130 1.279 . S
C132 C134 1.353 . S
C132 N135 1.314 . S
C132 H138 0.930 . S
C133 N135 1.279 . S
C133 C136 1.358 . S
C133 H139 0.930 . S
C134 C132 1.353 . S
C134 C137 1.348 . S
C134 H172 0.929 . S
N135 Li90 1.990 . S
N135 C132 1.314 . S
N135 C133 1.279 . S
C136 C133 1.358 . S
C136 C137 1.356 . S
C136 H173 0.930 . S
C137 C134 1.348 . S
C137 C136 1.356 . S
H138 C132 0.930 . S
H139 C133 0.930 . S
C140 N141 1.314 . S
C140 C142 1.353 . S
C140 H146 0.930 . S
N141 Li91 1.990 . S
N141 C140 1.314 . S
N141 C144 1.279 . S
C142 C140 1.353 . S
C142 C145 1.348 . S
C142 H174 0.929 . S
C143 C144 1.358 . S
C143 C145 1.356 . S
C143 H175 0.930 . S
C144 N141 1.279 . S
C144 C143 1.358 . S
C144 H147 0.930 . S
C145 C142 1.348 . S
C145 C143 1.356 . S
H146 C140 0.930 . S
H147 C144 0.930 . S
O148 Li88 1.956 . S
O148 Li89 1.970 1_665 S
O148 Li90 1.961 . S
O148 C92 1.325 . S
O149 Li88 1.970 1_445 S
O149 Li89 1.956 . S
O149 Li91 1.961 . S
O149 C98 1.325 . S
O150 Li88 1.961 . S
O150 Li90 1.956 . S
O150 Li91 1.970 1_665 S
O150 C120 1.325 . S
O151 Li89 1.961 . S
O151 Li90 1.970 1_445 S
O151 Li91 1.956 . S
O151 C126 1.325 . S
H152 C94 0.929 . S
H153 C95 0.930 . S
H154 C96 0.930 1_455 S
H155 C97 0.930 . S
H156 C99 0.930 . S
H157 C101 0.929 . S
H158 C102 0.930 . S
H159 C103 0.930 1_565 S
H160 C106 0.930 . S
H161 C109 0.929 . S
H162 C114 0.929 . S
H163 C115 0.930 . S
H164 C122 0.929 . S
H165 C123 0.930 . S
H166 C124 0.930 1_545 S
H167 C125 0.930 . S
H168 C127 0.929 . S
H169 C128 0.930 . S
H170 C129 0.930 1_655 S
H171 C130 0.930 . S
H172 C134 0.929 . S
H173 C136 0.930 . S
H174 C142 0.929 . S
H175 C143 0.930 . S
Li176 N193 1.990 . S
Li176 O236 1.956 . S
Li176 O237 1.970 1_565 S
Li176 O238 1.961 1_455 S
Li177 N201 1.990 . S
Li177 O236 1.970 1_545 S
Li177 O237 1.956 . S
Li177 O239 1.961 1_455 S
Li178 N223 1.990 . S
Li178 O236 1.961 1_655 S
Li178 O238 1.956 . S
Li178 O239 1.970 1_565 S
Li179 N229 1.990 . S
Li179 O237 1.961 1_655 S
Li179 O238 1.970 1_545 S
Li179 O239 1.956 . S
C180 C182 1.348 1_565 S
C180 C183 1.356 . S
C180 O236 1.325 . S
N181 C184 1.314 . S
N181 C185 1.279 . S
C182 C180 1.348 1_545 S
C182 C184 1.353 1_545 S
C182 H240 0.929 . S
C183 C180 1.356 . S
C183 C185 1.358 . S
C183 H241 0.930 . S
C184 N181 1.314 . S
C184 C182 1.353 1_565 S
C184 H242 0.930 1_565 S
C185 N181 1.279 . S
C185 C183 1.358 . S
C185 H243 0.930 . S
C186 C189 1.348 . S
C186 C190 1.356 . S
C186 O237 1.325 . S
C187 N188 1.279 . S
C187 C190 1.358 . S
C187 H244 0.930 . S
N188 C187 1.279 . S
N188 C191 1.314 . S
C189 C186 1.348 . S
C189 C191 1.353 . S
C189 H245 0.929 . S
C190 C186 1.356 . S
C190 C187 1.358 . S
C190 H246 0.930 . S
C191 N188 1.314 . S
C191 C189 1.353 . S
C191 H247 0.930 . S
C192 N193 1.314 . S
C192 C197 1.353 . S
C192 H198 0.930 . S
N193 Li176 1.990 . S
N193 C192 1.314 . S
N193 C195 1.279 . S
C194 C195 1.358 . S
C194 C196 1.356 . S
C194 H248 0.930 . S
C195 N193 1.279 . S
C195 C194 1.358 . S
C195 H199 0.930 . S
C196 C194 1.356 . S
C196 C197 1.348 . S
C197 C192 1.353 . S
C197 C196 1.348 . S
C197 H249 0.929 . S
H198 C192 0.930 . S
H199 C195 0.930 . S
C200 N201 1.314 . S
C200 C202 1.353 . S
C200 H206 0.930 . S
N201 Li177 1.990 . S
N201 C200 1.314 . S
N201 C204 1.279 . S
C202 C200 1.353 . S
C202 C205 1.348 . S
C202 H250 0.929 . S
C203 C204 1.358 . S
C203 C205 1.356 . S
C203 H251 0.930 . S
C204 N201 1.279 . S
C204 C203 1.358 . S
C204 H207 0.930 . S
C205 C202 1.348 . S
C205 C203 1.356 . S
H206 C200 0.930 . S
H207 C204 0.930 . S
C208 C210 1.348 . S
C208 C211 1.356 . S
C208 O238 1.325 . S
N209 C212 1.314 . S
N209 C213 1.279 . S
C210 C208 1.348 . S
C210 C212 1.353 . S
C210 H252 0.929 . S
C211 C208 1.356 . S
C211 C213 1.358 . S
C211 H253 0.930 . S
C212 N209 1.314 . S
C212 C210 1.353 . S
C212 H254 0.930 . S
C213 N209 1.279 . S
C213 C211 1.358 . S
C213 H255 0.930 . S
C214 C215 1.348 1_545 S
C214 C216 1.356 . S
C214 O239 1.325 . S
C215 C214 1.348 1_565 S
C215 C217 1.353 1_565 S
C215 H256 0.929 . S
C216 C214 1.356 . S
C216 C218 1.358 . S
C216 H257 0.930 . S
C217 C215 1.353 1_545 S
C217 N219 1.314 . S
C217 H258 0.930 1_545 S
C218 C216 1.358 . S
C218 N219 1.279 . S
C218 H259 0.930 . S
N219 C217 1.314 . S
N219 C218 1.279 . S
C220 C222 1.353 . S
C220 N223 1.314 . S
C220 H226 0.930 . S
C221 N223 1.279 . S
C221 C224 1.358 . S
C221 H227 0.930 . S
C222 C220 1.353 . S
C222 C225 1.348 . S
C222 H260 0.929 . S
N223 Li178 1.990 . S
N223 C220 1.314 . S
N223 C221 1.279 . S
C224 C221 1.358 . S
C224 C225 1.356 . S
C224 H261 0.930 . S
C225 C222 1.348 . S
C225 C224 1.356 . S
H226 C220 0.930 . S
H227 C221 0.930 . S
C228 N229 1.314 . S
C228 C230 1.353 . S
C228 H234 0.930 . S
N229 Li179 1.990 . S
N229 C228 1.314 . S
N229 C232 1.279 . S
C230 C228 1.353 . S
C230 C233 1.348 . S
C230 H262 0.929 . S
C231 C232 1.358 . S
C231 C233 1.356 . S
C231 H263 0.930 . S
C232 N229 1.279 . S
C232 C231 1.358 . S
C232 H235 0.930 . S
C233 C230 1.348 . S
C233 C231 1.356 . S
H234 C228 0.930 . S
H235 C232 0.930 . S
O236 Li176 1.956 . S
O236 Li177 1.970 1_565 S
O236 Li178 1.961 1_455 S
O236 C180 1.325 . S
O237 Li176 1.970 1_545 S
O237 Li177 1.956 . S
O237 Li179 1.961 1_455 S
O237 C186 1.325 . S
O238 Li176 1.961 1_655 S
O238 Li178 1.956 . S
O238 Li179 1.970 1_565 S
O238 C208 1.325 . S
O239 Li177 1.961 1_655 S
O239 Li178 1.970 1_545 S
O239 Li179 1.956 . S
O239 C214 1.325 . S
H240 C182 0.929 . S
H241 C183 0.930 . S
H242 C184 0.930 1_545 S
H243 C185 0.930 . S
H244 C187 0.930 . S
H245 C189 0.929 . S
H246 C190 0.930 . S
H247 C191 0.930 . S
H248 C194 0.930 . S
H249 C197 0.929 . S
H250 C202 0.929 . S
H251 C203 0.930 . S
H252 C210 0.929 . S
H253 C211 0.930 . S
H254 C212 0.930 . S
H255 C213 0.930 . S
H256 C215 0.929 . S
H257 C216 0.930 . S
H258 C217 0.930 1_565 S
H259 C218 0.930 . S
H260 C222 0.929 . S
H261 C224 0.930 . S
H262 C230 0.929 . S
H263 C231 0.930 . S
C264 C265 1.384 1_655 S
C264 C266 1.384 . S
C264 H292 0.931 . S
C265 C264 1.384 1_455 S
C265 C268 1.382 . S
C266 C264 1.384 . S
C266 C267 1.381 1_655 S
C266 H293 0.930 . S
C267 C266 1.381 1_455 S
C267 C269 1.381 . S
C267 C270 1.487 . S
C268 C265 1.382 . S
C268 C269 1.387 . S
C268 H294 0.930 . S
C269 C267 1.381 . S
C269 C268 1.387 . S
C269 H295 0.931 . S
C270 C267 1.487 . S
C270 C277 1.399 1_455 S
C270 N308 1.343 . S
C271 C272 1.384 1_455 S
C271 C273 1.384 . S
C271 H296 0.931 . S
C272 C271 1.384 1_655 S
C272 C275 1.382 . S
C273 C271 1.384 . S
C273 C274 1.381 1_455 S
C273 H297 0.930 . S
C274 C273 1.381 1_655 S
C274 C276 1.381 . S
C274 C277 1.487 . S
C275 C272 1.382 . S
C275 C276 1.387 . S
C275 H298 0.930 . S
C276 C274 1.381 . S
C276 C275 1.387 . S
C276 H299 0.931 . S
C277 C270 1.399 1_655 S
C277 C274 1.487 . S
C277 N309 1.343 . S
C278 C279 1.384 1_455 S
C278 C280 1.384 . S
C278 H300 0.931 . S
C279 C278 1.384 1_655 S
C279 C282 1.382 . S
C280 C278 1.384 . S
C280 C281 1.381 1_455 S
C280 H301 0.930 . S
C281 C280 1.381 1_655 S
C281 C283 1.381 . S
C281 C284 1.487 . S
C282 C279 1.382 . S
C282 C283 1.387 . S
C282 H302 0.930 . S
C283 C281 1.381 . S
C283 C282 1.387 . S
C283 H303 0.931 . S
C284 C281 1.487 . S
C284 C291 1.399 1_655 S
C284 N309 1.343 . S
C285 C286 1.384 1_655 S
C285 C287 1.384 . S
C285 H304 0.931 . S
C286 C285 1.384 1_455 S
C286 C289 1.382 . S
C287 C285 1.384 . S
C287 C288 1.381 1_655 S
C287 H305 0.930 . S
C288 C287 1.381 1_455 S
C288 C290 1.381 . S
C288 C291 1.487 . S
C289 C286 1.382 . S
C289 C290 1.387 . S
C289 H306 0.930 . S
C290 C288 1.381 . S
C290 C289 1.387 . S
C290 H307 0.931 . S
C291 C284 1.399 1_455 S
C291 C288 1.487 . S
C291 N308 1.343 . S
H292 C264 0.931 . S
H293 C266 0.930 . S
H294 C268 0.930 . S
H295 C269 0.931 . S
H296 C271 0.931 . S
H297 C273 0.930 . S
H298 C275 0.930 . S
H299 C276 0.931 . S
H300 C278 0.931 . S
H301 C280 0.930 . S
H302 C282 0.930 . S
H303 C283 0.931 . S
H304 C285 0.931 . S
H305 C287 0.930 . S
H306 C289 0.930 . S
H307 C290 0.931 . S
N308 C270 1.343 . S
N308 C291 1.343 . S
N309 C277 1.343 . S
N309 C284 1.343 . S
C310 C311 1.384 1_545 S
C310 C312 1.384 . S
C310 H338 0.931 . S
C311 C310 1.384 1_565 S
C311 C314 1.382 . S
C312 C310 1.384 . S
C312 C313 1.381 1_545 S
C312 H339 0.930 . S
C313 C312 1.381 1_565 S
C313 C315 1.381 . S
C313 C316 1.487 . S
C314 C311 1.382 . S
C314 C315 1.387 . S
C314 H340 0.930 . S
C315 C313 1.381 . S
C315 C314 1.387 . S
C315 H341 0.931 . S
C316 C313 1.487 . S
C316 C323 1.399 1_565 S
C316 N354 1.343 . S
C317 C318 1.384 1_565 S
C317 C319 1.384 . S
C317 H342 0.931 . S
C318 C317 1.384 1_545 S
C318 C321 1.382 . S
C319 C317 1.384 . S
C319 C320 1.381 1_565 S
C319 H343 0.930 . S
C320 C319 1.381 1_545 S
C320 C322 1.381 . S
C320 C323 1.487 . S
C321 C318 1.382 . S
C321 C322 1.387 . S
C321 H344 0.930 . S
C322 C320 1.381 . S
C322 C321 1.387 . S
C322 H345 0.931 . S
C323 C316 1.399 1_545 S
C323 C320 1.487 . S
C323 N355 1.343 . S
C324 C325 1.384 1_565 S
C324 C326 1.384 . S
C324 H346 0.931 . S
C325 C324 1.384 1_545 S
C325 C328 1.382 . S
C326 C324 1.384 . S
C326 C327 1.381 1_565 S
C326 H347 0.930 . S
C327 C326 1.381 1_545 S
C327 C329 1.381 . S
C327 C330 1.487 . S
C328 C325 1.382 . S
C328 C329 1.387 . S
C328 H348 0.930 . S
C329 C327 1.381 . S
C329 C328 1.387 . S
C329 H349 0.931 . S
C330 C327 1.487 . S
C330 C337 1.399 1_545 S
C330 N355 1.343 . S
C331 C332 1.384 1_545 S
C331 C333 1.384 . S
C331 H350 0.931 . S
C332 C331 1.384 1_565 S
C332 C335 1.382 . S
C333 C331 1.384 . S
C333 C334 1.381 1_545 S
C333 H351 0.930 . S
C334 C333 1.381 1_565 S
C334 C336 1.381 . S
C334 C337 1.487 . S
C335 C332 1.382 . S
C335 C336 1.387 . S
C335 H352 0.930 . S
C336 C334 1.381 . S
C336 C335 1.387 . S
C336 H353 0.931 . S
C337 C330 1.399 1_565 S
C337 C334 1.487 . S
C337 N354 1.343 . S
H338 C310 0.931 . S
H339 C312 0.930 . S
H340 C314 0.930 . S
H341 C315 0.931 . S
H342 C317 0.931 . S
H343 C319 0.930 . S
H344 C321 0.930 . S
H345 C322 0.931 . S
H346 C324 0.931 . S
H347 C326 0.930 . S
H348 C328 0.930 . S
H349 C329 0.931 . S
H350 C331 0.931 . S
H351 C333 0.930 . S
H352 C335 0.930 . S
H353 C336 0.931 . S
N354 C316 1.343 . S
N354 C337 1.343 . S
N355 C323 1.343 . S
N355 C330 1.343 . S
C356 C357 1.384 . S
C356 C358 1.384 . S
C356 H384 0.931 . S
C357 C356 1.384 . S
C357 C360 1.382 . S
C358 C356 1.384 . S
C358 C359 1.381 . S
C358 H385 0.930 . S
C359 C358 1.381 . S
C359 C361 1.381 . S
C359 C362 1.487 . S
C360 C357 1.382 . S
C360 C361 1.387 . S
C360 H386 0.930 . S
C361 C359 1.381 . S
C361 C360 1.387 . S
C361 H387 0.931 . S
C362 C359 1.487 . S
C362 C369 1.399 . S
C362 N400 1.343 . S
C363 C364 1.384 . S
C363 C365 1.384 . S
C363 H388 0.931 . S
C364 C363 1.384 . S
C364 C367 1.382 . S
C365 C363 1.384 . S
C365 C366 1.381 . S
C365 H389 0.930 . S
C366 C365 1.381 . S
C366 C368 1.381 . S
C366 C369 1.487 . S
C367 C364 1.382 . S
C367 C368 1.387 . S
C367 H390 0.930 . S
C368 C366 1.381 . S
C368 C367 1.387 . S
C368 H391 0.931 . S
C369 C362 1.399 . S
C369 C366 1.487 . S
C369 N401 1.343 . S
C370 C371 1.384 . S
C370 C372 1.384 . S
C370 H392 0.931 . S
C371 C370 1.384 . S
C371 C374 1.382 . S
C372 C370 1.384 . S
C372 C373 1.381 . S
C372 H393 0.930 . S
C373 C372 1.381 . S
C373 C375 1.381 . S
C373 C376 1.487 . S
C374 C371 1.382 . S
C374 C375 1.387 . S
C374 H394 0.930 . S
C375 C373 1.381 . S
C375 C374 1.387 . S
C375 H395 0.931 . S
C376 C373 1.487 . S
C376 C383 1.399 . S
C376 N401 1.343 . S
C377 C378 1.384 . S
C377 C379 1.384 . S
C377 H396 0.931 . S
C378 C377 1.384 . S
C378 C381 1.382 . S
C379 C377 1.384 . S
C379 C380 1.381 . S
C379 H397 0.930 . S
C380 C379 1.381 . S
C380 C382 1.381 . S
C380 C383 1.487 . S
C381 C378 1.382 . S
C381 C382 1.387 . S
C381 H398 0.930 . S
C382 C380 1.381 . S
C382 C381 1.387 . S
C382 H399 0.931 . S
C383 C376 1.399 . S
C383 C380 1.487 . S
C383 N400 1.343 . S
H384 C356 0.931 . S
H385 C358 0.930 . S
H386 C360 0.930 . S
H387 C361 0.931 . S
H388 C363 0.931 . S
H389 C365 0.930 . S
H390 C367 0.930 . S
H391 C368 0.931 . S
H392 C370 0.931 . S
H393 C372 0.930 . S
H394 C374 0.930 . S
H395 C375 0.931 . S
H396 C377 0.931 . S
H397 C379 0.930 . S
H398 C381 0.930 . S
H399 C382 0.931 . S
N400 C362 1.343 . S
N400 C383 1.343 . S
N401 C369 1.343 . S
N401 C376 1.343 . S
C402 C403 1.391 . S
C402 C404 1.394 . S
C402 H418 0.931 . S
C403 C402 1.391 . S
C403 C407 1.376 . S
C404 C402 1.394 . S
C404 C405 1.369 . S
C404 C408 1.531 . S
C405 C404 1.369 . S
C405 C406 1.410 1_655 S
C405 C413 1.503 . S
C406 C405 1.410 1_455 S
C406 C407 1.392 1_455 S
C406 C409 1.511 . S
C407 C403 1.376 . S
C407 C406 1.392 1_655 S
C407 H419 0.929 1_655 S
C408 C404 1.531 . S
C408 H420 0.960 . S
C408 H421 0.962 . S
C408 H422 0.960 . S
C409 C406 1.511 . S
C409 H423 0.961 . S
C409 H424 0.961 . S
C409 H425 0.961 . S
C410 C411 1.370 . S
C410 C412 1.363 . S
C410 H426 0.931 . S
C411 C410 1.370 . S
C411 C415 1.408 . S
C412 C410 1.363 . S
C412 C413 1.370 . S
C412 C416 1.524 . S
C413 C405 1.503 . S
C413 C412 1.370 . S
C413 C414 1.403 . S
C414 C413 1.403 . S
C414 C415 1.404 . S
C414 C417 1.539 . S
C415 C411 1.408 . S
C415 C414 1.404 . S
C415 H427 0.930 1_655 S
C416 C412 1.524 . S
C416 H428 0.956 . S
C416 H429 0.961 . S
C416 H430 0.961 . S
C417 C414 1.539 . S
C417 H431 0.958 . S
C417 H432 0.961 1_655 S
C417 H433 0.960 1_655 S
H418 C402 0.931 . S
H419 C407 0.929 1_455 S
H420 C408 0.960 . S
H421 C408 0.962 . S
H422 C408 0.960 . S
H423 C409 0.961 . S
H424 C409 0.961 . S
H425 C409 0.961 . S
H426 C410 0.931 . S
H427 C415 0.930 1_455 S
H428 C416 0.956 . S
H429 C416 0.961 . S
H430 C416 0.961 . S
H431 C417 0.958 . S
H432 C417 0.961 1_455 S
H433 C417 0.960 1_455 S
C434 C435 1.391 . S
C434 C436 1.394 . S
C434 H450 0.931 . S
C435 C434 1.391 . S
C435 C439 1.376 . S
C436 C434 1.394 . S
C436 C437 1.369 . S
C436 C440 1.531 . S
C437 C436 1.369 . S
C437 C438 1.410 . S
C437 C445 1.503 . S
C438 C437 1.410 . S
C438 C439 1.392 . S
C438 C441 1.511 . S
C439 C435 1.376 . S
C439 C438 1.392 . S
C439 H451 0.929 . S
C440 C436 1.531 . S
C440 H452 0.960 . S
C440 H453 0.962 1_565 S
C440 H454 0.960 . S
C441 C438 1.511 . S
C441 H455 0.961 . S
C441 H456 0.961 . S
C441 H457 0.961 . S
C442 C443 1.370 1_545 S
C442 C444 1.363 . S
C442 H458 0.931 . S
C443 C442 1.370 1_565 S
C443 C447 1.408 . S
C444 C442 1.363 . S
C444 C445 1.370 1_545 S
C444 C448 1.524 . S
C445 C437 1.503 . S
C445 C444 1.370 1_565 S
C445 C446 1.403 . S
C446 C445 1.403 . S
C446 C447 1.404 . S
C446 C449 1.539 . S
C447 C443 1.408 . S
C447 C446 1.404 . S
C447 H459 0.930 . S
C448 C444 1.524 . S
C448 H460 0.956 . S
C448 H461 0.961 . S
C448 H462 0.961 . S
C449 C446 1.539 . S
C449 H463 0.958 . S
C449 H464 0.961 . S
C449 H465 0.960 . S
H450 C434 0.931 . S
H451 C439 0.929 . S
H452 C440 0.960 . S
H453 C440 0.962 1_545 S
H454 C440 0.960 . S
H455 C441 0.961 . S
H456 C441 0.961 . S
H457 C441 0.961 . S
H458 C442 0.931 . S
H459 C447 0.930 . S
H460 C448 0.956 . S
H461 C448 0.961 . S
H462 C448 0.961 . S
H463 C449 0.958 . S
H464 C449 0.961 . S
H465 C449 0.960 . S
C466 C467 1.391 . S
C466 C468 1.394 . S
C466 H482 0.931 . S
C467 C466 1.391 . S
C467 C471 1.376 . S
C468 C466 1.394 . S
C468 C469 1.369 . S
C468 C472 1.531 . S
C469 C468 1.369 . S
C469 C470 1.410 . S
C469 C477 1.503 . S
C470 C469 1.410 . S
C470 C471 1.392 . S
C470 C473 1.511 . S
C471 C467 1.376 . S
C471 C470 1.392 . S
C471 H483 0.929 . S
C472 C468 1.531 . S
C472 H484 0.960 . S
C472 H485 0.962 . S
C472 H486 0.960 . S
C473 C470 1.511 . S
C473 H487 0.961 . S
C473 H488 0.961 . S
C473 H489 0.961 . S
C474 C475 1.370 . S
C474 C476 1.363 . S
C474 H490 0.931 . S
C475 C474 1.370 . S
C475 C479 1.408 . S
C476 C474 1.363 . S
C476 C477 1.370 . S
C476 C480 1.524 . S
C477 C469 1.503 . S
C477 C476 1.370 . S
C477 C478 1.403 . S
C478 C477 1.403 . S
C478 C479 1.404 . S
C478 C481 1.539 . S
C479 C475 1.408 . S
C479 C478 1.404 . S
C479 H491 0.930 . S
C480 C476 1.524 . S
C480 H492 0.956 . S
C480 H493 0.961 . S
C480 H494 0.961 . S
C481 C478 1.539 . S
C481 H495 0.958 . S
C481 H496 0.961 . S
C481 H497 0.960 . S
H482 C466 0.931 . S
H483 C471 0.929 . S
H484 C472 0.960 . S
H485 C472 0.962 . S
H486 C472 0.960 . S
H487 C473 0.961 . S
H488 C473 0.961 . S
H489 C473 0.961 . S
H490 C474 0.931 . S
H491 C479 0.930 . S
H492 C480 0.956 . S
H493 C480 0.961 . S
H494 C480 0.961 . S
H495 C481 0.958 . S
H496 C481 0.961 . S
H497 C481 0.960 . S
C498 C499 1.391 . S
C498 C500 1.394 . S
C498 H514 0.931 . S
C499 C498 1.391 . S
C499 C503 1.376 . S
C500 C498 1.394 . S
C500 C501 1.369 . S
C500 C504 1.531 . S
C501 C500 1.369 . S
C501 C502 1.413 . S
C501 C509 1.503 . S
C502 C501 1.413 . S
C502 C503 1.392 . S
C502 C505 1.509 1_455 S
C503 C499 1.376 . S
C503 C502 1.392 . S
C503 H515 0.929 1_455 S
C504 C500 1.531 . S
C504 H516 0.960 . S
C504 H517 0.962 . S
C504 H518 0.960 . S
C505 C502 1.509 1_655 S
C505 H519 0.961 . S
C505 H520 0.961 . S
C505 H521 0.961 . S
C506 C507 1.370 1_655 S
C506 C508 1.363 1_655 S
C506 H522 0.931 . S
C507 C506 1.370 1_455 S
C507 C511 1.408 . S
C508 C506 1.363 1_455 S
C508 C509 1.370 . S
C508 C512 1.524 1_455 S
C509 C501 1.503 . S
C509 C508 1.370 . S
C509 C510 1.403 . S
C510 C509 1.403 . S
C510 C511 1.404 . S
C510 C513 1.539 . S
C511 C507 1.408 . S
C511 C510 1.404 . S
C511 H523 0.930 . S
C512 C508 1.524 1_655 S
C512 H524 0.956 1_655 S
C512 H525 0.961 . S
C512 H526 0.961 . S
C513 C510 1.539 . S
C513 H527 0.958 . S
C513 H528 0.961 . S
C513 H529 0.960 . S
H514 C498 0.931 . S
H515 C503 0.929 1_655 S
H516 C504 0.960 . S
H517 C504 0.962 . S
H518 C504 0.960 . S
H519 C505 0.961 . S
H520 C505 0.961 . S
H521 C505 0.961 . S
H522 C506 0.931 . S
H523 C511 0.930 . S
H524 C512 0.956 1_455 S
H525 C512 0.961 . S
H526 C512 0.961 . S
H527 C513 0.958 . S
H528 C513 0.961 . S
H529 C513 0.960 . S
C530 C531 1.391 . S
C530 C532 1.394 . S
C530 H546 0.931 . S
C531 C530 1.391 . S
C531 C535 1.376 . S
C532 C530 1.394 . S
C532 C533 1.369 . S
C532 C536 1.531 . S
C533 C532 1.369 . S
C533 C534 1.410 . S
C533 C541 1.503 . S
C534 C533 1.410 . S
C534 C535 1.392 . S
C534 C537 1.511 . S
C535 C531 1.376 . S
C535 C534 1.392 . S
C535 H547 0.929 . S
C536 C532 1.531 . S
C536 H548 0.960 . S
C536 H549 0.962 . S
C536 H550 0.960 . S
C537 C534 1.511 . S
C537 H551 0.961 . S
C537 H552 0.961 . S
C537 H553 0.961 . S
C538 C539 1.370 1_565 S
C538 C540 1.363 . S
C538 H554 0.931 . S
C539 C538 1.370 1_545 S
C539 C543 1.408 . S
C540 C538 1.363 . S
C540 C541 1.370 1_565 S
C540 C544 1.524 . S
C541 C533 1.503 . S
C541 C540 1.370 1_545 S
C541 C542 1.403 . S
C542 C541 1.403 . S
C542 C543 1.404 . S
C542 C545 1.539 . S
C543 C539 1.408 . S
C543 C542 1.404 . S
C543 H555 0.930 . S
C544 C540 1.524 . S
C544 H556 0.956 . S
C544 H557 0.961 . S
C544 H558 0.961 . S
C545 C542 1.539 . S
C545 H559 0.958 . S
C545 H560 0.961 . S
C545 H561 0.960 . S
H546 C530 0.931 . S
H547 C535 0.929 . S
H548 C536 0.960 . S
H549 C536 0.962 . S
H550 C536 0.960 . S
H551 C537 0.961 . S
H552 C537 0.961 . S
H553 C537 0.961 . S
H554 C538 0.931 . S
H555 C543 0.930 . S
H556 C544 0.956 . S
H557 C544 0.961 . S
H558 C544 0.961 . S
H559 C545 0.958 . S
H560 C545 0.961 . S
H561 C545 0.960 . S
C562 C563 1.391 . S
C562 C564 1.394 . S
C562 H578 0.931 . S
C563 C562 1.391 . S
C563 C567 1.376 . S
C564 C562 1.394 . S
C564 C565 1.369 . S
C564 C568 1.531 . S
C565 C564 1.369 . S
C565 C566 1.410 . S
C565 C573 1.503 . S
C566 C565 1.410 . S
C566 C567 1.392 . S
C566 C569 1.511 . S
C567 C563 1.376 . S
C567 C566 1.392 . S
C567 H579 0.929 . S
C568 C564 1.531 . S
C568 H580 0.960 . S
C568 H581 0.962 . S
C568 H582 0.960 . S
C569 C566 1.511 . S
C569 H583 0.961 . S
C569 H584 0.961 . S
C569 H585 0.961 . S
C570 C571 1.370 . S
C570 C572 1.363 . S
C570 H586 0.931 . S
C571 C570 1.370 . S
C571 C575 1.408 . S
C572 C570 1.363 . S
C572 C573 1.370 . S
C572 C576 1.524 . S
C573 C565 1.503 . S
C573 C572 1.370 . S
C573 C574 1.403 . S
C574 C573 1.403 . S
C574 C575 1.404 . S
C574 C577 1.539 . S
C575 C571 1.408 . S
C575 C574 1.404 . S
C575 H587 0.930 . S
C576 C572 1.524 . S
C576 H588 0.956 . S
C576 H589 0.961 . S
C576 H590 0.961 . S
C577 C574 1.539 . S
C577 H591 0.958 . S
C577 H592 0.961 . S
C577 H593 0.960 . S
H578 C562 0.931 . S
H579 C567 0.929 . S
H580 C568 0.960 . S
H581 C568 0.962 . S
H582 C568 0.960 . S
H583 C569 0.961 . S
H584 C569 0.961 . S
H585 C569 0.961 . S
H586 C570 0.931 . S
H587 C575 0.930 . S
H588 C576 0.956 . S
H589 C576 0.961 . S
H590 C576 0.961 . S
H591 C577 0.958 . S
H592 C577 0.961 . S
H593 C577 0.960 . S
C594 C595 1.391 . S
C594 C596 1.394 1_545 S
C594 H610 0.931 1_545 S
C595 C594 1.391 . S
C595 C599 1.376 . S
C596 C594 1.394 1_565 S
C596 C597 1.369 1_565 S
C596 C600 1.531 . S
C597 C596 1.369 1_545 S
C597 C598 1.410 . S
C597 C605 1.503 . S
C598 C597 1.410 . S
C598 C599 1.392 . S
C598 C601 1.511 . S
C599 C595 1.376 . S
C599 C598 1.392 . S
C599 H611 0.929 . S
C600 C596 1.531 . S
C600 H612 0.960 . S
C600 H613 0.962 . S
C600 H614 0.960 . S
C601 C598 1.511 . S
C601 H615 0.961 . S
C601 H616 0.961 . S
C601 H617 0.961 . S
C602 C603 1.373 . S
C602 C604 1.362 . S
C602 H618 0.929 1_545 S
C603 C602 1.373 . S
C603 C607 1.408 . S
C604 C602 1.362 . S
C604 C605 1.370 . S
C604 C608 1.524 . S
C605 C597 1.503 . S
C605 C604 1.370 . S
C605 C606 1.403 . S
C606 C605 1.403 . S
C606 C607 1.404 . S
C606 C609 1.539 . S
C607 C603 1.408 . S
C607 C606 1.404 . S
C607 H619 0.930 . S
C608 C604 1.524 . S
C608 H620 0.956 1_545 S
C608 H621 0.961 . S
C608 H622 0.958 1_545 S
C609 C606 1.539 . S
C609 H623 0.958 . S
C609 H624 0.961 . S
C609 H625 0.960 . S
H610 C594 0.931 1_565 S
H611 C599 0.929 . S
H612 C600 0.960 . S
H613 C600 0.962 . S
H614 C600 0.960 . S
H615 C601 0.961 . S
H616 C601 0.961 . S
H617 C601 0.961 . S
H618 C602 0.929 1_565 S
H619 C607 0.930 . S
H620 C608 0.956 1_565 S
H621 C608 0.961 . S
H622 C608 0.958 1_565 S
H623 C609 0.958 . S
H624 C609 0.961 . S
H625 C609 0.960 . S
C626 C627 1.391 . S
C626 C628 1.394 . S
C626 H642 0.931 1_556 S
C627 C626 1.391 . S
C627 C631 1.376 . S
C628 C626 1.394 . S
C628 C629 1.369 . S
C628 C632 1.531 . S
C629 C628 1.369 . S
C629 C630 1.410 . S
C629 C637 1.503 . S
C630 C629 1.410 . S
C630 C631 1.392 . S
C630 C633 1.511 . S
C631 C627 1.376 . S
C631 C630 1.392 . S
C631 H643 0.929 . S
C632 C628 1.531 . S
C632 H644 0.960 . S
C632 H645 0.962 . S
C632 H646 0.960 . S
C633 C630 1.511 . S
C633 H647 0.961 . S
C633 H648 0.961 . S
C633 H649 0.961 . S
C634 C635 1.370 . S
C634 C636 1.363 . S
C634 H650 0.931 . S
C635 C634 1.370 . S
C635 C639 1.408 . S
C636 C634 1.363 . S
C636 C637 1.370 . S
C636 C640 1.524 . S
C637 C629 1.503 . S
C637 C636 1.370 . S
C637 C638 1.403 . S
C638 C637 1.403 . S
C638 C639 1.404 . S
C638 C641 1.539 . S
C639 C635 1.408 . S
C639 C638 1.404 . S
C639 H651 0.930 . S
C640 C636 1.524 . S
C640 H652 0.956 . S
C640 H653 0.961 . S
C640 H654 0.961 . S
C641 C638 1.539 . S
C641 H655 0.958 . S
C641 H656 0.961 . S
C641 H657 0.960 . S
H642 C626 0.931 1_554 S
H643 C631 0.929 . S
H644 C632 0.960 . S
H645 C632 0.962 . S
H646 C632 0.960 . S
H647 C633 0.961 . S
H648 C633 0.961 . S
H649 C633 0.961 . S
H650 C634 0.931 . S
H651 C639 0.930 . S
H652 C640 0.956 . S
H653 C640 0.961 . S
H654 C640 0.961 . S
H655 C641 0.958 . S
H656 C641 0.961 . S
H657 C641 0.960 . S
C658 C659 1.391 . S
C658 C660 1.394 . S
C658 H674 0.931 . S
C659 C658 1.391 . S
C659 C663 1.376 . S
C660 C658 1.394 . S
C660 C661 1.369 . S
C660 C664 1.531 . S
C661 C660 1.369 . S
C661 C662 1.410 1_655 S
C661 C669 1.503 . S
C662 C661 1.410 1_455 S
C662 C663 1.392 1_455 S
C662 C665 1.511 . S
C663 C659 1.376 . S
C663 C662 1.392 1_655 S
C663 H675 0.929 1_655 S
C664 C660 1.531 . S
C664 H676 0.960 . S
C664 H677 0.962 . S
C664 H678 0.960 . S
C665 C662 1.511 . S
C665 H679 0.961 . S
C665 H680 0.961 . S
C665 H681 0.961 . S
C666 C667 1.370 . S
C666 C668 1.363 . S
C666 H682 0.933 . S
C667 C666 1.370 . S
C667 C671 1.408 . S
C668 C666 1.363 . S
C668 C669 1.370 . S
C668 C672 1.524 . S
C669 C661 1.503 . S
C669 C668 1.370 . S
C669 C670 1.403 . S
C670 C669 1.403 . S
C670 C671 1.404 . S
C670 C673 1.539 . S
C671 C667 1.408 . S
C671 C670 1.404 . S
C671 H683 0.930 . S
C672 C668 1.524 . S
C672 H684 0.956 . S
C672 H685 0.961 1_655 S
C672 H686 0.961 . S
C673 C670 1.539 . S
C673 H687 0.958 . S
C673 H688 0.961 . S
C673 H689 0.960 . S
H674 C658 0.931 . S
H675 C663 0.929 1_455 S
H676 C664 0.960 . S
H677 C664 0.962 . S
H678 C664 0.960 . S
H679 C665 0.961 . S
H680 C665 0.961 . S
H681 C665 0.961 . S
H682 C666 0.933 . S
H683 C671 0.930 . S
H684 C672 0.956 . S
H685 C672 0.961 1_455 S
H686 C672 0.961 . S
H687 C673 0.958 . S
H688 C673 0.961 . S
H689 C673 0.960 . S
C690 C691 1.391 . S
C690 C692 1.394 . S
C690 H706 0.931 . S
C691 C690 1.391 . S
C691 C695 1.376 . S
C692 C690 1.394 . S
C692 C693 1.369 . S
C692 C696 1.531 . S
C693 C692 1.369 . S
C693 C694 1.410 . S
C693 C701 1.503 . S
C694 C693 1.410 . S
C694 C695 1.392 . S
C694 C697 1.511 1_565 S
C695 C691 1.376 . S
C695 C694 1.392 . S
C695 H707 0.929 . S
C696 C692 1.531 . S
C696 H708 0.960 . S
C696 H709 0.962 . S
C696 H710 0.960 . S
C697 C694 1.511 1_545 S
C697 H711 0.961 . S
C697 H712 0.961 . S
C697 H713 0.961 1_545 S
C698 C699 1.370 1_545 S
C698 C700 1.363 . S
C698 H714 0.931 . S
C699 C698 1.370 1_565 S
C699 C703 1.408 . S
C700 C698 1.363 . S
C700 C701 1.370 1_545 S
C700 C704 1.524 . S
C701 C693 1.503 . S
C701 C700 1.370 1_565 S
C701 C702 1.403 . S
C702 C701 1.403 . S
C702 C703 1.404 . S
C702 C705 1.539 . S
C703 C699 1.408 . S
C703 C702 1.404 . S
C703 H715 0.930 . S
C704 C700 1.524 . S
C704 H716 0.956 . S
C704 H717 0.961 . S
C704 H718 0.961 . S
C705 C702 1.539 . S
C705 H719 0.958 . S
C705 H720 0.961 . S
C705 H721 0.960 . S
H706 C690 0.931 . S
H707 C695 0.929 . S
H708 C696 0.960 . S
H709 C696 0.962 . S
H710 C696 0.960 . S
H711 C697 0.961 . S
H712 C697 0.961 . S
H713 C697 0.961 1_565 S
H714 C698 0.931 . S
H715 C703 0.930 . S
H716 C704 0.956 . S
H717 C704 0.961 . S
H718 C704 0.961 . S
H719 C705 0.958 . S
H720 C705 0.961 . S
H721 C705 0.960 . S
C722 C723 1.391 . S
C722 C724 1.394 . S
C722 H738 0.931 . S
C723 C722 1.391 . S
C723 C727 1.376 . S
C724 C722 1.394 . S
C724 C725 1.369 . S
C724 C728 1.531 . S
C725 C724 1.369 . S
C725 C726 1.410 . S
C725 C733 1.503 . S
C726 C725 1.410 . S
C726 C727 1.392 . S
C726 C729 1.511 . S
C727 C723 1.376 . S
C727 C726 1.392 . S
C727 H739 0.929 . S
C728 C724 1.531 . S
C728 H740 0.960 . S
C728 H741 0.962 . S
C728 H742 0.960 . S
C729 C726 1.511 . S
C729 H743 0.961 . S
C729 H744 0.961 . S
C729 H745 0.961 . S
C730 C731 1.370 . S
C730 C732 1.363 . S
C730 H746 0.931 . S
C731 C730 1.370 . S
C731 C735 1.408 . S
C732 C730 1.363 . S
C732 C733 1.370 . S
C732 C736 1.524 . S
C733 C725 1.503 . S
C733 C732 1.370 . S
C733 C734 1.403 . S
C734 C733 1.403 . S
C734 C735 1.404 . S
C734 C737 1.539 . S
C735 C731 1.408 . S
C735 C734 1.404 . S
C735 H747 0.930 . S
C736 C732 1.524 . S
C736 H748 0.956 . S
C736 H749 0.961 . S
C736 H750 0.961 . S
C737 C734 1.539 . S
C737 H751 0.958 . S
C737 H752 0.961 . S
C737 H753 0.960 . S
H738 C722 0.931 . S
H739 C727 0.929 . S
H740 C728 0.960 . S
H741 C728 0.962 . S
H742 C728 0.960 . S
H743 C729 0.961 . S
H744 C729 0.961 . S
H745 C729 0.961 . S
H746 C730 0.931 . S
H747 C735 0.930 . S
H748 C736 0.956 . S
H749 C736 0.961 . S
H750 C736 0.961 . S
H751 C737 0.958 . S
H752 C737 0.961 . S
H753 C737 0.960 . S
C754 C755 1.391 . S
C754 C756 1.394 . S
C754 H770 0.931 . S
C755 C754 1.391 . S
C755 C759 1.376 . S
C756 C754 1.394 . S
C756 C757 1.369 . S
C756 C760 1.531 1_455 S
C757 C756 1.369 . S
C757 C758 1.410 . S
C757 C765 1.503 . S
C758 C757 1.410 . S
C758 C759 1.392 . S
C758 C761 1.511 . S
C759 C755 1.376 . S
C759 C758 1.392 . S
C759 H771 0.929 . S
C760 C756 1.531 1_655 S
C760 H772 0.960 . S
C760 H773 0.962 . S
C760 H774 0.960 . S
C761 C758 1.511 . S
C761 H775 0.961 . S
C761 H776 0.961 . S
C761 H777 0.961 . S
C762 C763 1.370 . S
C762 C764 1.363 . S
C762 H778 0.931 . S
C763 C762 1.370 . S
C763 C767 1.408 1_455 S
C764 C762 1.363 . S
C764 C765 1.370 . S
C764 C768 1.524 . S
C765 C757 1.503 . S
C765 C764 1.370 . S
C765 C766 1.403 1_455 S
C766 C765 1.403 1_655 S
C766 C767 1.404 . S
C766 C769 1.539 . S
C767 C763 1.408 1_655 S
C767 C766 1.404 . S
C767 H779 0.930 . S
C768 C764 1.524 . S
C768 H780 0.956 . S
C768 H781 0.961 . S
C768 H782 0.961 . S
C769 C766 1.539 . S
C769 H783 0.958 . S
C769 H784 0.961 . S
C769 H785 0.960 . S
H770 C754 0.931 . S
H771 C759 0.929 . S
H772 C760 0.960 . S
H773 C760 0.962 . S
H774 C760 0.960 . S
H775 C761 0.961 . S
H776 C761 0.961 . S
H777 C761 0.961 . S
H778 C762 0.931 . S
H779 C767 0.930 . S
H780 C768 0.956 . S
H781 C768 0.961 . S
H782 C768 0.961 . S
H783 C769 0.958 . S
H784 C769 0.961 . S
H785 C769 0.960 . S
C411 C272 1.453 . S
C403 C29 1.428 . S
C435 C137 1.455 . S
C443 C311 1.449 . S
C467 C225 1.412 . S
C475 C378 1.464 . S
C499 C49 1.441 . S
C507 C279 1.459 1_455 S
C539 C332 1.455 1_545 S
C531 C117 1.453 . S
C563 C205 1.414 . S
C571 C357 1.454 . S
C603 C318 1.450 . S
C595 C233 1.442 . S
C627 C57 1.438 1_556 S
C635 C371 1.460 . S
C667 C286 1.457 1_655 S
C659 C108 1.438 . S
C699 C325 1.455 1_565 S
C691 C196 1.450 . S
C731 C364 1.452 . S
C723 C20 1.430 1_556 S
C755 C145 1.415 . S
C763 C265 1.454 . S
