# Generated by pormake.
# Topology zzz, (3,6)-cn, num edge types: 1
# Building blocks:
#     Node 0, Type 0, BuildingBlock: CUQRIR_clean_linker_1, # of connection points: 3
#     Node 1, Type 0, BuildingBlock: CUQRIR_clean_linker_1, # of connection points: 3
#     Node 2, Type 0, BuildingBlock: CUQRIR_clean_linker_1, # of connection points: 3
#     Node 3, Type 0, BuildingBlock: CUQRIR_clean_linker_1, # of connection points: 3
#     Node 4, Type 0, BuildingBlock: CUQRIR_clean_linker_1, # of connection points: 3
#     Node 5, Type 0, BuildingBlock: CUQRIR_clean_linker_1, # of connection points: 3
#     Node 6, Type 0, BuildingBlock: CUQRIR_clean_linker_1, # of connection points: 3
#     Node 7, Type 0, BuildingBlock: CUQRIR_clean_linker_1, # of connection points: 3
#     Node 8, Type 1, BuildingBlock: KUMBUR_clean_sbu_1, # of connection points: 6
#     Node 9, Type 1, BuildingBlock: KUMBUR_clean_sbu_1, # of connection points: 6
#     Node 10, Type 1, BuildingBlock: KUMBUR_clean_sbu_1, # of connection points: 6
#     Node 11, Type 1, BuildingBlock: KUMBUR_clean_sbu_1, # of connection points: 6
#     Edge 12, Type (0, 1), BuildingBlock: TEMPAE_clean_linker_10, # of connection points: 2
#     Edge 13, Type (0, 1), BuildingBlock: TEMPAE_clean_linker_10, # of connection points: 2
#     Edge 14, Type (0, 1), BuildingBlock: TEMPAE_clean_linker_10, # of connection points: 2
#     Edge 15, Type (0, 1), BuildingBlock: TEMPAE_clean_linker_10, # of connection points: 2
#     Edge 16, Type (0, 1), BuildingBlock: TEMPAE_clean_linker_10, # of connection points: 2
#     Edge 17, Type (0, 1), BuildingBlock: TEMPAE_clean_linker_10, # of connection points: 2
#     Edge 18, Type (0, 1), BuildingBlock: TEMPAE_clean_linker_10, # of connection points: 2
#     Edge 19, Type (0, 1), BuildingBlock: TEMPAE_clean_linker_10, # of connection points: 2
#     Edge 20, Type (0, 1), BuildingBlock: TEMPAE_clean_linker_10, # of connection points: 2
#     Edge 21, Type (0, 1), BuildingBlock: TEMPAE_clean_linker_10, # of connection points: 2
#     Edge 22, Type (0, 1), BuildingBlock: TEMPAE_clean_linker_10, # of connection points: 2
#     Edge 23, Type (0, 1), BuildingBlock: TEMPAE_clean_linker_10, # of connection points: 2
#     Edge 24, Type (0, 1), BuildingBlock: TEMPAE_clean_linker_10, # of connection points: 2
#     Edge 25, Type (0, 1), BuildingBlock: TEMPAE_clean_linker_10, # of connection points: 2
#     Edge 26, Type (0, 1), BuildingBlock: TEMPAE_clean_linker_10, # of connection points: 2
#     Edge 27, Type (0, 1), BuildingBlock: TEMPAE_clean_linker_10, # of connection points: 2
#     Edge 28, Type (0, 1), BuildingBlock: TEMPAE_clean_linker_10, # of connection points: 2
#     Edge 29, Type (0, 1), BuildingBlock: TEMPAE_clean_linker_10, # of connection points: 2
#     Edge 30, Type (0, 1), BuildingBlock: TEMPAE_clean_linker_10, # of connection points: 2
#     Edge 31, Type (0, 1), BuildingBlock: TEMPAE_clean_linker_10, # of connection points: 2
#     Edge 32, Type (0, 1), BuildingBlock: TEMPAE_clean_linker_10, # of connection points: 2
#     Edge 33, Type (0, 1), BuildingBlock: TEMPAE_clean_linker_10, # of connection points: 2
#     Edge 34, Type (0, 1), BuildingBlock: TEMPAE_clean_linker_10, # of connection points: 2
#     Edge 35, Type (0, 1), BuildingBlock: TEMPAE_clean_linker_10, # of connection points: 2
# Relax obj value: 0.216
# Max RMSD: 0.113
# Mean RMSD: 0.089
data_MOF--net-zzz--node1-KUMBUR_clean_sbu_1--node2-CUQRIR_clean_linker_1--edge1-TEMPAE_clean_linker_10
_symmetry_space_group_name_H-M    P1
_symmetry_Int_Tables_number       1
_symmetry_cell_setting            triclinic
loop_
_symmetry_equiv_pos_as_xyz
'x, y, z'
_cell_length_a     46.720882
_cell_length_b     46.905422
_cell_length_c     14.376396
_cell_angle_alpha  89.832377
_cell_angle_beta   90.186318
_cell_angle_gamma 90.299865
loop_
_atom_site_label
_atom_site_type_symbol
_atom_site_fract_x
_atom_site_fract_y
_atom_site_fract_z
_atom_type_partial_charge
C0 C 0.74708 0.55522 0.39523 0.0
N1 N 0.77634 0.55126 0.3952 0.0
N2 N 0.7353 0.55069 0.30793 0.0
C3 C 0.73034 0.56508 0.47736 0.0
C4 C 0.75837 0.54327 0.25725 0.0
N5 N 0.78241 0.54423 0.3086 0.0
C6 C 0.7579 0.53518 0.15567 0.0
H7 H 0.71295 0.54951 0.49196 0.0
H8 H 0.72011 0.58578 0.46063 0.0
H9 H 0.74425 0.56741 0.53962 0.0
H10 H 0.76222 0.55441 0.11266 0.0
H11 H 0.7369 0.52593 0.13522 0.0
H12 H 0.77492 0.51944 0.14079 0.0
C13 C 1.00951 0.75162 0.38858 0.0
N14 N 1.00265 0.78005 0.38418 0.0
N15 N 0.99957 0.73715 0.31164 0.0
C16 C 0.02546 0.73797 0.46725 0.0
C17 C 0.98682 0.75795 0.26129 0.0
N18 N 0.98939 0.78362 0.30323 0.0
C19 C 0.97609 0.75416 0.16244 0.0
H20 H 0.04377 0.72564 0.43995 0.0
H21 H 1.01101 0.72273 0.50335 0.0
H22 H 0.03334 0.75411 0.51761 0.0
H23 H 0.95636 0.74097 0.1625 0.0
H24 H 0.99244 0.74303 0.12023 0.0
H25 H 0.97063 0.77468 0.12842 0.0
C26 C 0.81764 1.01103 0.38628 0.0
N27 N 0.78918 1.01827 0.3798 0.0
N28 N 0.83268 1.01983 0.30884 0.0
C29 C 0.8303 0.99369 0.46338 0.0
C30 C 0.81241 0.03302 0.25783 0.0
N31 N 0.7864 0.03075 0.29745 0.0
C32 C 0.81709 0.04495 0.16137 0.0
H33 H 0.8479 1.006 0.49657 0.0
H34 H 0.83979 0.97402 0.43418 0.0
H35 H 0.81394 0.98798 0.51615 0.0
H36 H 0.81444 0.02768 0.1094 0.0
H37 H 0.83897 0.05403 0.15452 0.0
H38 H 0.80104 0.06168 0.14566 0.0
C39 C 0.55512 0.81778 0.37767 0.0
N40 N 0.55791 0.7886 0.37662 0.0
N41 N 0.56077 0.82958 0.29145 0.0
C42 C 0.54648 0.83449 0.4611 0.0
C43 C 0.56629 0.80648 0.23887 0.0
N44 N 0.56514 0.78241 0.29016 0.0
C45 C 0.56883 0.8071 0.13384 0.0
H46 H 0.52289 0.83315 0.46902 0.0
H47 H 0.55279 0.8572 0.45295 0.0
H48 H 0.55644 0.82529 0.52458 0.0
H49 H 0.59055 0.8146 0.11448 0.0
H50 H 0.55304 0.82214 0.10349 0.0
H51 H 0.56558 0.78588 0.10171 0.0
C52 C 0.31959 0.51338 0.02877 0.0
N53 N 0.29021 0.51016 0.03521 0.0
N54 N 0.33262 0.51193 0.11557 0.0
C55 C 0.33551 0.51625 0.93925 0.0
C56 C 0.3102 0.50877 0.17319 0.0
N57 N 0.28575 0.50627 0.12521 0.0
C58 C 0.31155 0.51178 0.27836 0.0
H59 H 0.34114 0.49466 0.91416 0.0
H60 H 0.35564 0.52848 0.94981 0.0
H61 H 0.32203 0.52674 0.88566 0.0
H62 H 0.33042 0.52452 0.30065 0.0
H63 H 0.3127 0.49028 0.31046 0.0
H64 H 0.29223 0.52232 0.30642 0.0
C65 C 0.05175 0.31638 0.04328 0.0
N66 N 0.05875 0.28779 0.04643 0.0
N67 N 0.05599 0.32937 0.1286 0.0
C68 C 0.04184 0.33189 0.95807 0.0
C69 C 0.06534 0.30781 0.18248 0.0
N70 N 0.06687 0.2833 0.13391 0.0
C71 C 0.06882 0.31002 0.28685 0.0
H72 H 0.06088 0.33928 0.91878 0.0
H73 H 0.02902 0.35081 0.97742 0.0
H74 H 0.0292 0.31776 0.91194 0.0
H75 H 0.04742 0.31268 0.31889 0.0
H76 H 0.08183 0.32906 0.30495 0.0
H77 H 0.07914 0.29104 0.31785 0.0
C78 C 0.25014 0.0583 0.04689 0.0
N79 N 0.27871 0.06526 0.05825 0.0
N80 N 0.23469 0.06332 0.12689 0.0
C81 C 0.23734 0.04613 0.96014 0.0
C82 C 0.25466 0.07337 0.18609 0.0
N83 N 0.28082 0.07369 0.14649 0.0
C84 C 0.24954 0.07823 0.28899 0.0
H85 H 0.21413 0.05099 0.95642 0.0
H86 H 0.23989 0.02263 0.96128 0.0
H87 H 0.2484 0.05477 0.89789 0.0
H88 H 0.25983 0.06093 0.32978 0.0
H89 H 0.22659 0.07892 0.30756 0.0
H90 H 0.2593 0.09875 0.31061 0.0
C91 C 0.50345 0.2555 0.06108 0.0
N92 N 0.49597 0.28376 0.07408 0.0
N93 N 0.49513 0.2387 0.13501 0.0
C94 C 0.52187 0.24453 0.98406 0.0
C95 C 0.48255 0.25737 0.19232 0.0
N96 N 0.48572 0.28435 0.16108 0.0
C97 C 0.47292 0.24992 0.29008 0.0
H98 H 0.50959 0.24491 0.91793 0.0
H99 H 0.52858 0.22224 0.99758 0.0
H100 H 0.54124 0.25814 0.97679 0.0
H101 H 0.49051 0.25452 0.34003 0.0
H102 H 0.46682 0.22719 0.29729 0.0
H103 H 0.45405 0.26277 0.30939 0.0
Tb104 Tb 1.00116 0.04222 0.63016 0.0
C105 C 0.09411 0.07324 0.89815 0.0
N106 N 0.09581 0.05878 0.81688 0.0
C107 C 0.13932 0.08315 0.77861 0.0
C108 C 0.11394 0.09489 0.91979 0.0
C109 C 0.11884 0.06211 0.75992 0.0
C110 C 0.13655 0.10005 0.85803 0.0
C111 C 0.07141 0.07895 0.04778 0.0
C112 C 0.07332 0.06504 0.96128 0.0
C113 C 0.0897 0.10207 0.06699 0.0
C114 C 0.11114 0.10983 1.00356 0.0
Tb115 Tb 0.06323 0.02369 0.79387 0.0
N116 N 0.05695 0.04173 0.94132 0.0
C117 C 0.05211 0.06838 0.11371 0.0
C118 C 0.04109 0.02931 1.01044 0.0
C119 C 0.03713 0.04323 0.09517 0.0
H120 H 0.12152 0.04819 0.70102 0.0
H121 H 0.02294 0.03419 0.14664 0.0
H122 H 0.94521 0.02439 0.76625 0.0
H123 H 0.02897 1.01083 0.28297 0.0
H124 H 0.03174 1.00845 1.00186 0.0
H125 H 0.04975 0.07853 0.18076 0.0
H126 H 0.03235 0.03976 0.42429 0.0
H127 H 0.15738 0.08606 0.73252 0.0
H128 H 0.08822 0.11333 0.13227 0.0
H129 H 0.12587 0.12693 0.02088 0.0
H130 H 0.90576 0.99037 0.76385 0.0
H131 H 0.15252 0.11624 0.87277 0.0
H132 H 0.98994 0.97554 0.26638 0.0
N133 N 0.96478 1.00929 0.64223 0.0
C134 C 0.95986 0.9939 0.56341 0.0
C135 C 0.92131 0.99043 0.7082 0.0
C136 C 0.93607 0.97539 0.55572 0.0
C137 C 0.9448 1.00893 0.71167 0.0
C138 C 0.91712 0.97328 0.63039 0.0
N139 N 0.99969 1.01687 0.4958 0.0
C140 C 1.01691 0.0227 0.42149 0.0
C141 C 0.97297 0.98314 0.40393 0.0
C142 C 0.97765 0.99809 0.48753 0.0
C143 C 0.99208 0.98735 0.33035 0.0
C144 C 1.01419 1.0072 0.33936 0.0
H145 H 0.89845 0.95953 0.6268 0.0
H146 H 0.91298 0.94633 0.46529 0.0
H147 H 0.94565 0.95262 0.33336 0.0
O148 O 0.99412 0.06989 0.51973 0.0
O149 O 1.02262 1.00047 0.61125 0.0
O150 O 0.03569 0.98641 0.75693 0.0
O151 O 0.95995 0.05971 0.61382 0.0
O152 O 0.04414 0.0568 0.57875 0.0
O153 O 0.07439 0.02369 0.6448 0.0
O154 O 0.09171 1.00686 0.8917 0.0
O155 O 0.05874 0.06936 0.75011 0.0
O156 O 1.01097 0.07649 0.73286 0.0
O157 O 0.09474 0.99529 0.74766 0.0
O158 O 1.02005 1.01012 0.84376 0.0
O159 O 0.99159 0.04463 0.78071 0.0
C160 C 0.02772 0.97987 0.6712 0.0
C161 C 0.96204 0.10595 0.55409 0.0
C162 C 0.981 0.15196 0.51724 0.0
C163 C 0.9532 0.16279 0.50713 0.0
C164 C 0.93405 0.11615 0.54489 0.0
C165 C 0.92966 0.14505 0.52536 0.0
C166 C 0.98501 0.12489 0.55257 0.0
C167 C 0.06853 0.04224 0.5787 0.0
C168 C 0.9682 0.07577 0.54574 0.0
C169 C 0.93119 0.96055 0.47241 0.0
C170 C 0.94963 0.96436 0.39683 0.0
C171 C 0.03624 0.08592 0.76018 0.0
C172 C 0.10401 0.96037 0.85777 0.0
C173 C 0.08194 0.92194 0.94213 0.0
C174 C 0.10489 0.90407 0.91976 0.0
C175 C 0.12697 0.94277 0.8341 0.0
C176 C 0.08108 0.94958 0.90886 0.0
C177 C 0.1272 0.91442 0.8644 0.0
C178 C 0.99664 0.0258 0.84676 0.0
C179 C 0.1037 0.99018 0.83152 0.0
H180 H 0.94975 0.18401 0.47953 0.0
H181 H 0.91594 0.10166 0.54805 0.0
H182 H 0.90813 0.15302 0.51636 0.0
H183 H 1.00677 0.11727 0.5618 0.0
H184 H 0.10558 0.88237 0.94569 0.0
H185 H 0.14464 0.95098 0.79328 0.0
H186 H 0.0631 0.96308 0.92674 0.0
H187 H 0.14491 0.90071 0.84672 0.0
Tb188 Tb 0.54452 0.06687 0.8045 0.0
C189 C 0.53679 0.94709 0.61826 0.0
N190 N 0.55062 0.97199 0.59781 0.0
C191 C 0.59018 0.94553 0.53579 0.0
C192 C 0.54968 0.92051 0.60101 0.0
C193 C 0.57667 0.97139 0.55407 0.0
C194 C 0.57679 0.91999 0.56021 0.0
C195 C 0.49403 0.92273 0.67367 0.0
C196 C 0.50905 0.94815 0.65296 0.0
C197 C 0.50714 0.89634 0.65864 0.0
C198 C 0.53489 0.89525 0.62272 0.0
Tb199 Tb 0.52394 1.01231 0.62046 0.0
N200 N 0.49698 0.97407 0.66805 0.0
C201 C 0.46632 0.92453 0.70954 0.0
C202 C 0.46945 0.97574 0.69986 0.0
C203 C 0.45396 0.95116 0.72224 0.0
H204 H 0.58647 0.99049 0.52713 0.0
H205 H 0.43223 0.95281 0.74755 0.0
H206 H 0.48365 0.08695 0.90765 0.0
H207 H 0.6201 0.12389 0.5835 0.0
H208 H 0.45845 0.99564 0.70451 0.0
H209 H 0.45416 0.90549 0.72648 0.0
H210 H 0.5999 0.08165 0.65613 0.0
H211 H 0.61063 0.94533 0.50057 0.0
H212 H 0.49598 0.87662 0.67453 0.0
H213 H 0.54469 0.8747 0.61173 0.0
H214 H 0.46119 0.13243 0.94642 0.0
H215 H 0.58718 0.89997 0.54467 0.0
H216 H 0.59943 0.17119 0.61555 0.0
N217 N 0.51648 0.10574 0.82416 0.0
C218 C 0.52867 0.13043 0.79322 0.0
C219 C 0.47988 0.13214 0.90209 0.0
C220 C 0.51666 0.15702 0.81565 0.0
C221 C 0.49238 0.10624 0.87795 0.0
C222 C 0.49216 0.15765 0.87141 0.0
N223 N 0.56543 0.10314 0.7217 0.0
C224 C 0.58933 0.10132 0.66757 0.0
C225 C 0.56566 0.15433 0.70293 0.0
C226 C 0.55344 0.12908 0.73899 0.0
C227 C 0.58964 0.1523 0.64542 0.0
C228 C 0.60134 0.12566 0.62705 0.0
H229 H 0.48266 0.17771 0.8916 0.0
H230 H 0.52089 0.20279 0.80052 0.0
H231 H 0.56329 0.20041 0.70027 0.0
O232 O 0.57646 0.08924 0.87601 0.0
O233 O 0.5199 0.08174 0.68137 0.0
O234 O 0.54104 0.05378 0.57627 0.0
O235 O 0.53831 0.07496 0.946 0.0
O236 O 0.58245 0.04147 0.75587 0.0
O237 O 0.56798 0.02915 0.60944 0.0
O238 O 0.49277 0.02355 0.52286 0.0
O239 O 0.52709 0.9926 0.76164 0.0
O240 O 0.55195 0.02331 0.85835 0.0
O241 O 0.52578 0.9937 0.4877 0.0
O242 O 0.48721 0.03635 0.68363 0.0
O243 O 0.50288 0.04541 0.83227 0.0
C244 C 0.52723 0.07727 0.59477 0.0
C245 C 0.58013 0.07648 0.02974 0.0
C246 C 0.61025 0.03946 0.09005 0.0
C247 C 0.61151 0.05384 0.17601 0.0
C248 C 0.58368 0.09219 0.11082 0.0
C249 C 0.59869 0.08045 0.18555 0.0
C250 C 0.59367 0.05047 0.01869 0.0
C251 C 0.5883 0.03068 0.67285 0.0
C252 C 0.56305 0.08739 0.9548 0.0
C253 C 0.5296 0.18215 0.78288 0.0
C254 C 0.5538 0.1808 0.72591 0.0
C255 C 0.54085 0.99797 0.84028 0.0
C256 C 0.48018 0.98393 0.43154 0.0
C257 C 0.42983 0.97546 0.42474 0.0
C258 C 0.43304 0.95966 0.34303 0.0
C259 C 0.48381 0.96974 0.34677 0.0
C260 C 0.45378 0.98274 0.47637 0.0
C261 C 0.46011 0.95692 0.30401 0.0
C262 C 0.48166 0.0419 0.77242 0.0
C263 C 0.50151 1.00444 0.46374 0.0
H264 H 0.62417 0.04571 0.23324 0.0
H265 H 0.57485 0.11339 0.11508 0.0
H266 H 0.60108 0.09223 0.24973 0.0
H267 H 0.59299 0.03967 0.9523 0.0
H268 H 0.41448 0.95413 0.30131 0.0
H269 H 0.5042 0.9704 0.31112 0.0
H270 H 0.45037 0.99534 0.5383 0.0
H271 H 0.46168 0.94809 0.23523 0.0
Tb272 Tb 0.56066 0.52347 0.64603 0.0
C273 C 0.46309 0.49755 0.89353 0.0
N274 N 0.46419 0.51184 0.81129 0.0
C275 C 0.41962 0.49092 0.76411 0.0
C276 C 0.44089 0.47796 0.91192 0.0
C277 C 0.44249 0.50958 0.74797 0.0
C278 C 0.41891 0.47486 0.84613 0.0
C279 C 0.48513 0.48658 0.04196 0.0
C280 C 0.48445 0.50263 0.95898 0.0
C281 C 0.46415 0.46557 0.05769 0.0
C282 C 0.44158 0.46192 0.99438 0.0
Tb283 Tb 0.49886 0.54546 0.79953 0.0
N284 N 0.5037 0.52403 0.94293 0.0
C285 C 0.5066 0.49249 0.10717 0.0
C286 C 0.52159 0.53251 1.0133 0.0
C287 C 0.52465 0.51584 0.09318 0.0
H288 H 0.44247 0.52262 0.68608 0.0
H289 H 0.54073 0.52132 0.1442 0.0
H290 H 0.61759 0.54534 0.77301 0.0
H291 H 0.53307 0.53891 0.28551 0.0
H292 H 0.5333 0.55227 1.01046 0.0
H293 H 0.50879 0.47992 0.16991 0.0
H294 H 0.53093 0.51491 0.43546 0.0
H295 H 0.40246 0.48912 0.71367 0.0
H296 H 0.46484 0.45237 0.11946 0.0
H297 H 0.42499 0.44636 1.00921 0.0
H298 H 0.65814 0.57771 0.75239 0.0
H299 H 0.40124 0.46028 0.85822 0.0
H300 H 0.57152 0.57411 0.2539 0.0
N301 N 0.59916 0.55376 0.63998 0.0
C302 C 0.60376 0.56578 0.55481 0.0
C303 C 0.64264 0.57508 0.6969 0.0
C304 C 0.6274 0.58393 0.53898 0.0
C305 C 0.6189 0.55727 0.70948 0.0
C306 C 0.64674 0.58876 0.61171 0.0
N307 N 0.56318 0.54078 0.49829 0.0
C308 C 0.54597 0.53204 0.42688 0.0
C309 C 0.58911 0.57146 0.39335 0.0
C310 C 0.58523 0.55908 0.48194 0.0
C311 C 0.56966 0.56468 0.32244 0.0
C312 C 0.54806 0.54475 0.33947 0.0
H313 H 0.66533 0.60233 0.60197 0.0
H314 H 0.6493 0.61036 0.43754 0.0
H315 H 0.61519 0.60025 0.31173 0.0
O316 O 0.56139 0.48288 0.59043 0.0
O317 O 0.54447 0.56773 0.62002 0.0
O318 O 0.52579 0.58303 0.75885 0.0
O319 O 0.60087 0.50606 0.61372 0.0
O320 O 0.51726 0.51265 0.59104 0.0
O321 O 0.4901 0.54863 0.64984 0.0
O322 O 0.47147 0.56178 0.90068 0.0
O323 O 0.50299 0.4997 0.75834 0.0
O324 O 0.5507 0.49505 0.76449 0.0
O325 O 0.46584 0.57281 0.75693 0.0
O326 O 0.54184 0.55935 0.85468 0.0
O327 O 0.57127 0.5251 0.79434 0.0
C328 C 0.53681 0.5888 0.67581 0.0
C329 C 0.59858 0.47588 0.48344 0.0
C330 C 0.58915 0.44181 0.36347 0.0
C331 C 0.61824 0.44125 0.34014 0.0
C332 C 0.62772 0.47617 0.46014 0.0
C333 C 0.63732 0.45965 0.38564 0.0
C334 C 0.57922 0.46153 0.42685 0.0
C335 C 0.49457 0.52934 0.58584 0.0
C336 C 0.58895 0.48391 0.57612 0.0
C337 C 0.63135 0.59622 0.45077 0.0
C338 C 0.61208 0.59025 0.37864 0.0
C339 C 0.52533 0.48351 0.77533 0.0
C340 C 0.45824 0.60762 0.86619 0.0
C341 C 0.48465 0.64593 0.93481 0.0
C342 C 0.46114 0.66412 0.92376 0.0
C343 C 0.43443 0.62525 0.85386 0.0
C344 C 0.48341 0.6183 0.904 0.0
C345 C 0.43606 0.65376 0.88202 0.0
C346 C 0.56601 0.54454 0.85735 0.0
C347 C 0.45799 0.5779 0.84164 0.0
H348 H 0.62625 0.42561 0.29161 0.0
H349 H 0.64309 0.48782 0.50209 0.0
H350 H 0.65984 0.45937 0.36844 0.0
H351 H 0.55665 0.46107 0.44479 0.0
H352 H 0.46196 0.68578 0.94959 0.0
H353 H 0.41483 0.61697 0.82361 0.0
H354 H 0.5019 0.60464 0.91397 0.0
H355 H 0.41773 0.66755 0.87371 0.0
Tb356 Tb 0.03609 0.56365 0.64692 0.0
C357 C 0.0631 0.45913 0.9188 0.0
N358 N 0.04872 0.46024 0.83709 0.0
C359 C 0.05666 0.41025 0.81318 0.0
C360 C 0.07515 0.43341 0.95067 0.0
C361 C 0.04519 0.43623 0.78435 0.0
C362 C 0.07177 0.40883 0.89679 0.0
C363 C 0.08069 0.48341 0.05575 0.0
C364 C 0.06565 0.48387 0.97065 0.0
C365 C 0.09299 0.45801 0.08727 0.0
C366 C 0.09027 0.43306 0.03487 0.0
Tb367 Tb 0.02649 0.50209 0.80436 0.0
N368 N 0.05477 0.50856 0.93557 0.0
C369 C 0.08402 0.50876 0.10497 0.0
C370 C 0.06327 0.53377 0.97533 0.0
C371 C 0.07653 0.53429 0.06244 0.0
H372 H 0.03247 0.43672 0.72161 0.0
H373 H 0.08187 0.55441 0.09509 0.0
H374 H 0.03352 0.63066 0.72813 0.0
H375 H 1.00531 0.53431 0.29865 0.0
H376 H 0.06213 0.55358 0.93965 0.0
H377 H 0.09392 0.50895 0.17309 0.0
H378 H 0.04028 0.53981 0.42743 0.0
H379 H 0.05347 0.3913 0.77154 0.0
H380 H 0.10562 0.45792 0.15027 0.0
H381 H 0.10039 0.41371 0.05891 0.0
H382 H 1.00005 0.67105 0.72219 0.0
H383 H 0.08061 0.38866 0.91943 0.0
H384 H 0.96049 0.56201 0.30333 0.0
N385 N 1.00954 0.6047 0.63719 0.0
C386 C 0.9892 0.60481 0.56986 0.0
C387 C 0.99599 0.65211 0.68131 0.0
C388 C 0.97016 0.62777 0.5592 0.0
C389 C 1.01419 0.62867 0.68883 0.0
C390 C 0.9733 0.65134 0.61791 0.0
N391 N 1.01175 0.56441 0.50962 0.0
C392 C 1.0198 0.55041 0.43091 0.0
C393 C 0.97097 0.58339 0.42954 0.0
C394 C 0.98991 0.58326 0.50514 0.0
C395 C 0.97508 0.56323 0.36015 0.0
C396 C 1.00041 0.54765 0.35774 0.0
H397 H 0.95948 0.6697 0.61094 0.0
H398 H 0.93497 0.64452 0.47731 0.0
H399 H 0.93555 0.60529 0.36355 0.0
O400 O 0.07514 0.55931 0.57961 0.0
O401 O 0.99183 0.56054 0.69714 0.0
O402 O 0.98965 0.51258 0.70813 0.0
O403 O 0.05403 0.60111 0.59279 0.0
O404 O 0.02867 0.5205 0.57876 0.0
O405 O 0.04805 0.48828 0.6771 0.0
O406 O 1.00549 0.47938 0.91008 0.0
O407 O 0.07107 0.50663 0.75733 0.0
O408 O 0.07129 0.55483 0.75136 0.0
O409 O 0.99632 0.47154 0.76472 0.0
O410 O 1.01219 0.54373 0.87061 0.0
O411 O 0.03725 0.57835 0.79004 0.0
C412 C 0.97674 0.53713 0.692 0.0
C413 C 0.09921 0.60052 0.51799 0.0
C414 C 0.14106 0.59126 0.43094 0.0
C415 C 0.15271 0.6178 0.45563 0.0
C416 C 0.10955 0.62763 0.54217 0.0
C417 C 0.13629 0.63653 0.50889 0.0
C418 C 0.11391 0.58358 0.45757 0.0
C419 C 0.03988 0.49496 0.59291 0.0
C420 C 0.076 0.58695 0.56538 0.0
C421 C 0.94997 0.62721 0.48658 0.0
C422 C 0.95024 0.60485 0.42202 0.0
C423 C 0.08548 0.53062 0.76298 0.0
C424 C 0.95977 0.46462 0.86775 0.0
C425 C 0.91744 0.4906 0.90703 0.0
C426 C 0.90151 0.46502 0.90514 0.0
C427 C 0.94422 0.43907 0.86532 0.0
C428 C 0.94626 0.49033 0.88469 0.0
C429 C 0.91489 0.43938 0.88295 0.0
C430 C 1.02121 0.57077 0.86091 0.0
C431 C 0.99003 0.46503 0.85029 0.0
H432 H 0.17432 0.62357 0.43578 0.0
H433 H 0.09782 0.64104 0.58978 0.0
H434 H 0.14487 0.65712 0.52858 0.0
H435 H 0.1056 0.56252 0.44001 0.0
H436 H 0.87918 0.46461 0.92513 0.0
H437 H 0.95475 0.41909 0.85026 0.0
H438 H 0.9586 0.51002 0.88558 0.0
H439 H 0.90273 0.41969 0.88233 0.0
C440 C 0.18526 0.07724 0.16701 0.0
C441 C 0.20583 0.05564 0.15788 0.0
C442 C 0.16219 0.0751 0.23098 0.0
C443 C 0.15915 0.05073 0.28953 0.0
C444 C 0.17936 0.02835 0.27836 0.0
C445 C 0.20197 0.03095 0.21269 0.0
C446 C 0.14224 0.10006 0.24001 0.0
C447 C 0.1783 1.00224 0.33988 0.0
C448 C 0.11383 0.06477 0.51159 0.0
C449 C 0.09049 0.04597 0.50175 0.0
C450 C 0.13673 0.06555 0.44661 0.0
C451 C 0.13547 0.04901 0.36334 0.0
C452 C 0.11127 0.0307 0.35182 0.0
C453 C 0.09034 0.02827 0.42288 0.0
C454 C 0.1624 0.08378 0.47073 0.0
C455 C 0.10652 1.01351 0.26448 0.0
H456 H 0.18864 0.097 0.12932 0.0
H457 H 0.21835 1.0147 0.21022 0.0
H458 H 0.11991 0.09281 0.25208 0.0
H459 H 0.14895 0.11324 0.30015 0.0
H460 H 0.14296 0.11398 0.17759 0.0
H461 H 0.19848 0.98986 0.33703 0.0
H462 H 0.17419 1.00825 0.41328 0.0
H463 H 0.16056 0.98813 0.31677 0.0
H464 H 0.11477 0.07845 0.57204 0.0
H465 H 0.07375 1.01227 0.41589 0.0
H466 H 0.1567 0.1066 0.46285 0.0
H467 H 0.18141 0.07919 0.42742 0.0
H468 H 0.16834 0.08055 0.54492 0.0
H469 H 0.08478 1.01791 0.23661 0.0
H470 H 0.10718 0.99044 0.28177 0.0
H471 H 0.12222 1.01808 0.20874 0.0
C472 C 0.48517 0.18853 0.17665 0.0
C473 C 0.50499 0.21106 0.16936 0.0
C474 C 0.4882 0.16655 0.24394 0.0
C475 C 0.51217 0.16625 0.30525 0.0
C476 C 0.53348 0.18771 0.29312 0.0
C477 C 0.5295 0.20984 0.22663 0.0
C478 C 0.46452 0.14477 0.25366 0.0
C479 C 0.56003 0.18796 0.35322 0.0
C480 C 0.5095 0.12622 0.54187 0.0
C481 C 0.52264 0.09999 0.52123 0.0
C482 C 0.50582 0.14782 0.4733 0.0
C483 C 0.51515 0.14332 0.38047 0.0
C484 C 0.52748 0.11657 0.35941 0.0
C485 C 0.53142 0.09558 0.42916 0.0
C486 C 0.49159 0.17535 0.50013 0.0
C487 C 0.53791 0.1106 0.26331 0.0
H488 H 0.4657 0.18977 0.13574 0.0
H489 H 0.54452 0.22751 0.22427 0.0
H490 H 0.47331 0.12287 0.25586 0.0
H491 H 0.45315 0.14833 0.32027 0.0
H492 H 0.44875 0.14611 0.19582 0.0
H493 H 0.57504 0.20544 0.33392 0.0
H494 H 0.55408 0.19049 0.42738 0.0
H495 H 0.57133 0.1673 0.34702 0.0
H496 H 0.50202 0.12999 0.61192 0.0
H497 H 0.54155 0.07561 0.41121 0.0
H498 H 0.47239 0.17879 0.45592 0.0
H499 H 0.50636 0.19354 0.48771 0.0
H500 H 0.48504 0.17553 0.57437 0.0
H501 H 0.54292 0.08769 0.25368 0.0
H502 H 0.55737 0.12379 0.25298 0.0
H503 H 0.52206 0.11696 0.20972 0.0
C504 C 0.38107 0.53377 0.14499 0.0
C505 C 0.36213 0.51046 0.15041 0.0
C506 C 0.40496 0.53636 0.20666 0.0
C507 C 0.40841 0.51696 0.28301 0.0
C508 C 0.38922 0.49335 0.28729 0.0
C509 C 0.36853 0.48924 0.21684 0.0
C510 C 0.42569 0.56053 0.18987 0.0
C511 C 0.38834 0.47308 0.36921 0.0
C512 C 0.47355 0.50334 0.44544 0.0
C513 C 0.47297 0.52643 0.50722 0.0
C514 C 0.45375 0.50074 0.37105 0.0
C515 C 0.4314 0.52104 0.3584 0.0
C516 C 0.43011 0.54396 0.42319 0.0
C517 C 0.45104 0.54664 0.49455 0.0
C518 C 0.45691 0.47544 0.3081 0.0
C519 C 0.40642 0.56571 0.41992 0.0
H520 H 0.37671 0.55057 0.09514 0.0
H521 H 0.35419 0.47105 0.22222 0.0
H522 H 0.41555 0.58092 0.21008 0.0
H523 H 0.44609 0.558 0.22867 0.0
H524 H 0.43062 0.56212 0.11446 0.0
H525 H 0.39708 0.45216 0.34791 0.0
H526 H 0.40023 0.48094 0.43096 0.0
H527 H 0.36581 0.46922 0.39053 0.0
H528 H 0.48957 0.48695 0.45507 0.0
H529 H 0.44983 0.56456 0.54176 0.0
H530 H 0.44597 0.47851 0.2405 0.0
H531 H 0.44791 0.45629 0.34297 0.0
H532 H 0.47987 0.47106 0.2959 0.0
H533 H 0.41348 0.58416 0.3772 0.0
H534 H 0.40165 0.57392 0.49059 0.0
H535 H 0.38637 0.55693 0.38966 0.0
C536 C 0.02458 0.36405 0.21033 0.0
C537 C 0.05068 0.358 0.16578 0.0
C538 C 1.02194 0.38654 0.27645 0.0
C539 C 0.04596 0.40399 0.30014 0.0
C540 C 0.07223 0.39819 0.25402 0.0
C541 C 0.07415 0.37563 0.18839 0.0
C542 C 0.99381 0.39027 0.32595 0.0
C543 C 0.09919 0.41435 0.27867 0.0
C544 C 0.03052 0.47597 0.42542 0.0
C545 C 0.04147 0.47201 0.51616 0.0
C546 C 0.03296 0.45495 0.35435 0.0
C547 C 0.044 0.42739 0.37495 0.0
C548 C 0.05372 0.42259 0.4676 0.0
C549 C 0.05372 0.44504 0.53422 0.0
C550 C 0.02365 0.46256 0.2568 0.0
C551 C 0.06334 0.39333 0.49798 0.0
H552 H 1.00667 0.34975 0.1984 0.0
H553 H 0.09483 0.37025 0.15962 0.0
H554 H 0.99723 0.39019 0.40242 0.0
H555 H 0.98443 0.41115 0.30705 0.0
H556 H 0.97812 0.37326 0.30806 0.0
H557 H 0.11533 0.41312 0.22237 0.0
H558 H 0.09465 0.43702 0.29445 0.0
H559 H 0.10911 0.40472 0.34125 0.0
H560 H 1.01985 0.49549 0.40884 0.0
H561 H 0.06325 0.44112 0.60151 0.0
H562 H 1.0014 0.45502 0.24523 0.0
H563 H 0.03754 0.45239 0.20405 0.0
H564 H 0.02413 0.48598 0.24527 0.0
H565 H 0.04658 0.37732 0.48056 0.0
H566 H 0.06774 0.39224 0.57389 0.0
H567 H 0.08299 0.38715 0.46054 0.0
C568 C 0.88532 0.02686 0.29015 0.0
C569 C 0.86025 1.01149 0.26921 0.0
C570 C 0.90949 0.02671 0.22994 0.0
C571 C 0.90837 1.01212 0.1429 0.0
C572 C 0.88348 0.99549 0.12387 0.0
C573 C 0.86046 0.9947 0.18799 0.0
C574 C 0.93563 0.04349 0.25874 0.0
C575 C 0.88017 0.97985 0.03282 0.0
C576 C 0.95427 0.0436 0.94243 0.0
C577 C 0.97493 1.02241 0.92552 0.0
C578 C 0.93275 0.04038 1.01137 0.0
C579 C 0.93192 1.01573 0.06939 0.0
C580 C 0.95287 0.9943 0.05307 0.0
C581 C 0.97362 0.99774 0.98153 0.0
C582 C 0.9102 0.06316 0.01973 0.0
C583 C 0.9533 0.96702 0.10861 0.0
H584 H 0.88548 0.04035 0.3512 0.0
H585 H 0.84111 0.9831 0.16998 0.0
H586 H 0.95544 0.03495 0.22713 0.0
H587 H 0.9331 0.066 0.23653 0.0
H588 H 0.93813 0.04335 0.33565 0.0
H589 H 0.85779 0.97262 0.02069 0.0
H590 H 0.8868 0.99358 0.97357 0.0
H591 H 0.89407 0.96079 0.03324 0.0
H592 H 0.9545 0.06272 0.89992 0.0
H593 H 0.98871 0.98072 0.96888 0.0
H594 H 0.91338 0.07506 0.08548 0.0
H595 H 0.8885 0.0534 0.02184 0.0
H596 H 0.911 0.07863 0.9611 0.0
H597 H 0.97561 0.95954 0.1189 0.0
H598 H 0.94197 0.9501 0.06907 0.0
H599 H 0.94285 0.96933 0.1772 0.0
C600 C 0.53345 0.87334 0.24761 0.0
C601 C 0.55941 0.85856 0.25316 0.0
C602 C 0.52992 0.89696 0.18627 0.0
C603 C 0.5524 0.90591 0.1259 0.0
C604 C 0.57888 0.8914 0.13342 0.0
C605 C 0.58223 0.86879 0.19818 0.0
C606 C 0.50152 0.91152 0.1836 0.0
C607 C 0.60328 0.89854 0.06882 0.0
C608 C 0.53435 0.94619 0.89655 0.0
C609 C 0.54329 0.97444 0.91418 0.0
C610 C 0.53675 0.92407 0.96404 0.0
C611 C 0.54829 0.92978 0.0538 0.0
C612 C 0.55663 0.95835 0.07329 0.0
C613 C 0.5542 0.98 1.00408 0.0
C614 C 0.5271 0.89435 0.93855 0.0
C615 C 0.56782 0.96615 0.16841 0.0
H616 H 0.5154 0.86548 0.28749 0.0
H617 H 0.60234 0.85742 0.20083 0.0
H618 H 0.50452 0.93484 0.17467 0.0
H619 H 0.48882 0.9036 0.12371 0.0
H620 H 0.48922 0.90709 0.24806 0.0
H621 H 0.62167 0.88385 0.07779 0.0
H622 H 0.59588 0.89739 0.99544 0.0
H623 H 0.61077 0.92066 0.08147 0.0
H624 H 0.52559 0.9411 0.82926 0.0
H625 H 0.56059 1.00151 0.0213 0.0
H626 H 0.5093 0.88755 0.98446 0.0
H627 H 0.54489 0.87908 0.94926 0.0
H628 H 0.51966 0.8929 0.86526 0.0
H629 H 0.55227 0.9594 0.22246 0.0
H630 H 0.57178 0.98941 0.17544 0.0
H631 H 0.58805 0.95461 0.18247 0.0
C632 C 0.70545 0.57348 0.18549 0.0
C633 C 0.7071 0.55646 0.26642 0.0
C634 C 0.68193 0.57212 0.12318 0.0
C635 C 0.65744 0.55535 0.14514 0.0
C636 C 0.65776 0.54025 0.23162 0.0
C637 C 0.68268 0.5403 0.28943 0.0
C638 C 0.68421 0.58774 0.03146 0.0
C639 C 0.63232 0.52288 0.2623 0.0
C640 C 0.59089 0.5722 0.98981 0.0
C641 C 0.58783 0.5474 0.93602 0.0
C642 C 0.61285 0.57503 0.0582 0.0
C643 C 0.63266 0.55242 0.07527 0.0
C644 C 0.62949 0.52728 0.02079 0.0
C645 C 0.60724 0.52504 0.95389 0.0
C646 C 0.61467 0.60301 0.10923 0.0
C647 C 0.64984 0.50249 0.03046 0.0
H648 H 0.72397 0.58622 0.16667 0.0
H649 H 0.68342 0.5267 0.35045 0.0
H650 H 0.67459 0.57518 0.97384 0.0
H651 H 0.6726 0.60824 0.03625 0.0
H652 H 0.70683 0.59258 1.01338 0.0
H653 H 0.63011 0.52369 0.33908 0.0
H654 H 0.61208 0.53032 0.23017 0.0
H655 H 0.63562 0.50036 0.24214 0.0
H656 H 0.57648 0.58984 0.97715 0.0
H657 H 0.60541 0.50556 0.91388 0.0
H658 H 0.61862 0.62043 0.05836 0.0
H659 H 0.63179 0.60372 0.1625 0.0
H660 H 0.59382 0.60758 0.14271 0.0
H661 H 0.65194 0.49082 0.96368 0.0
H662 H 0.64116 0.48722 0.08236 0.0
H663 H 0.67152 0.50928 0.05335 0.0
C664 C 0.97992 0.69302 0.24146 0.0
C665 C 1.00365 0.70807 0.27702 0.0
C666 C 0.98283 0.67047 0.17708 0.0
C667 C 1.01041 0.66017 0.15329 0.0
C668 C 0.03453 0.67305 0.1984 0.0
C669 C 0.03095 0.69742 0.25605 0.0
C670 C 0.95605 0.65881 0.13174 0.0
C671 C 0.06441 0.66169 0.18573 0.0
C672 C 1.00646 0.58688 0.02596 0.0
C673 C 1.01817 0.59295 0.93833 0.0
C674 C 1.00571 0.60793 0.09747 0.0
C675 C 1.01378 0.63674 0.08005 0.0
C676 C 0.02469 0.64308 0.99072 0.0
C677 C 0.02896 0.62092 0.92584 0.0
C678 C 0.99716 0.59855 0.19249 0.0
C679 C 0.03101 0.67342 0.96155 0.0
H680 H 0.95871 0.70066 0.25813 0.0
H681 H 0.04966 0.70871 0.28156 0.0
H682 H 0.9598 0.65301 0.05799 0.0
H683 H 0.94894 0.63946 0.16975 0.0
H684 H 0.93828 0.67444 0.13412 0.0
H685 H 0.07645 0.66282 0.2524 0.0
H686 H 0.06452 0.6393 0.16106 0.0
H687 H 0.07614 0.67523 0.13509 0.0
H688 H 0.99915 0.56537 0.04068 0.0
H689 H 0.04165 0.62579 0.86619 0.0
H690 H 0.97361 0.59647 0.19441 0.0
H691 H 1.00421 0.61334 0.24823 0.0
H692 H 1.00672 0.57741 0.20555 0.0
H693 H 1.01208 0.68699 0.97532 0.0
H694 H 0.0364 0.67509 0.88649 0.0
H695 H 0.04913 0.68217 1.00228 0.0
C696 C 0.03748 0.24281 0.17201 0.0
C697 C 0.06406 0.25619 0.17664 0.0
C698 C 0.03275 0.21751 0.21866 0.0
C699 C 0.05496 0.20671 0.27571 0.0
C700 C 0.08286 0.21838 0.27217 0.0
C701 C 0.08722 0.24335 0.22117 0.0
C702 C 1.00288 0.20487 0.2167 0.0
C703 C 0.10717 0.20585 0.32782 0.0
C704 C 1.01383 0.1923 0.4874 0.0
C705 C 1.0052 0.16459 0.4682 0.0
C706 C 0.03459 0.20531 0.43235 0.0
C707 C 0.04611 0.19004 0.35607 0.0
C708 C 0.04008 0.16094 0.34372 0.0
C709 C 1.01916 0.1485 0.39945 0.0
C710 C 0.04104 0.23654 0.44783 0.0
C711 C 0.05288 0.14413 0.2647 0.0
H712 H 1.02005 0.25307 0.13502 0.0
H713 H 0.10798 0.25374 0.22009 0.0
H714 H 1.00367 0.18156 0.20523 0.0
H715 H 0.99216 0.20864 0.2843 0.0
H716 H 0.98944 0.2144 0.16087 0.0
H717 H 0.12712 0.21869 0.32153 0.0
H718 H 0.10133 0.20428 0.40243 0.0
H719 H 0.11148 0.18392 0.30305 0.0
H720 H 1.00334 0.20412 0.54217 0.0
H721 H 1.01252 0.12672 0.38553 0.0
H722 H 0.02978 0.24945 0.39433 0.0
H723 H 0.0643 0.24085 0.44132 0.0
H724 H 0.03387 0.24379 0.51744 0.0
H725 H 0.03993 0.14718 0.20061 0.0
H726 H 0.05318 0.12099 0.28098 0.0
H727 H 0.07501 0.15142 0.24946 0.0
C728 C 0.31554 0.08669 0.2674 0.0
C729 C 0.3053 0.06738 0.20138 0.0
C730 C 0.33581 0.07797 0.33273 0.0
C731 C 0.34717 0.05024 0.32536 0.0
C732 C 0.33815 0.03144 0.25388 0.0
C733 C 0.31638 0.03997 0.1955 0.0
C734 C 0.34466 0.09848 0.4083 0.0
C735 C 0.35127 1.00236 0.23798 0.0
C736 C 0.41749 0.02262 0.36774 0.0
C737 C 0.40949 0.99858 0.42014 0.0
C738 C 0.39805 0.04413 0.35052 0.0
C739 C 0.37017 0.04073 0.38567 0.0
C740 C 0.36373 1.01929 0.45205 0.0
C741 C 0.38369 0.99777 0.46788 0.0
C742 C 0.40557 0.06695 0.27997 0.0
C743 C 0.33425 1.01641 0.49335 0.0
H744 H 0.3068 0.10801 0.2702 0.0
H745 H 0.30761 0.02507 0.14528 0.0
H746 H 0.35594 0.08793 0.46694 0.0
H747 H 0.35895 0.11506 0.37821 0.0
H748 H 0.32557 0.10958 0.43602 0.0
H749 H 0.34289 0.99192 0.17407 0.0
H750 H 0.37483 1.00422 0.23073 0.0
H751 H 0.34667 0.98812 0.29779 0.0
H752 H 0.43832 0.02347 0.33453 0.0
H753 H 0.37852 0.97971 0.51206 0.0
H754 H 0.39646 0.08777 0.3004 0.0
H755 H 0.39634 0.06111 0.21122 0.0
H756 H 0.42909 0.06941 0.2717 0.0
H757 H 0.32437 0.03766 0.50328 0.0
H758 H 0.33497 1.00494 0.56102 0.0
H759 H 0.32044 1.00397 0.44514 0.0
C760 C 0.47995 0.31673 0.2948 0.0
C761 C 0.49708 0.30424 0.2267 0.0
C762 C 0.49163 0.3372 0.35445 0.0
C763 C 0.51964 0.34739 0.33667 0.0
C764 C 0.53698 0.33415 0.26839 0.0
C765 C 0.526 0.3112 0.2202 0.0
C766 C 0.47318 0.34896 0.431 0.0
C767 C 0.56609 0.34535 0.23874 0.0
C768 C 0.54339 0.42036 0.31654 0.0
C769 C 0.57077 0.41689 0.35447 0.0
C770 C 0.5225 0.39944 0.32979 0.0
C771 C 0.53005 0.37408 0.37678 0.0
C772 C 0.5556 0.3728 0.42865 0.0
C773 C 0.57628 0.39388 0.41446 0.0
C774 C 0.49241 0.40483 0.2959 0.0
C775 C 0.562 0.34779 0.49149 0.0
H776 H 0.45755 0.311 0.30012 0.0
H777 H 0.53929 0.30031 0.16997 0.0
H778 H 0.4856 0.36161 0.48241 0.0
H779 H 0.45621 0.36255 0.4002 0.0
H780 H 0.4622 0.33119 0.46794 0.0
H781 H 0.57374 0.33524 0.17363 0.0
H782 H 0.56536 0.36865 0.22612 0.0
H783 H 0.58223 0.341 0.2935 0.0
H784 H 0.53808 0.43997 0.28033 0.0
H785 H 0.59639 0.39283 0.45227 0.0
H786 H 0.47888 0.41027 0.35653 0.0
H787 H 0.48283 0.38578 0.26272 0.0
H788 H 0.49154 0.42286 0.24582 0.0
H789 H 0.54196 0.33758 0.51678 0.0
H790 H 0.57512 0.35462 0.55209 0.0
H791 H 0.5744 0.3316 0.45284 0.0
C792 C 0.24586 0.48509 0.20744 0.0
C793 C 0.25898 0.50883 0.16746 0.0
C794 C 0.22092 0.48856 0.25816 0.0
C795 C 0.2109 0.5165 0.27164 0.0
C796 C 0.22444 0.54051 0.22937 0.0
C797 C 0.24807 0.53596 0.17529 0.0
C798 C 0.20522 0.46266 0.29464 0.0
C799 C 0.2147 0.57108 0.241 0.0
C800 C 0.14775 0.55467 0.31337 0.0
C801 C 0.15757 0.56824 0.39404 0.0
C802 C 0.16183 0.53083 0.28037 0.0
C803 C 0.18635 0.52176 0.32898 0.0
C804 C 0.1925 0.53155 0.41968 0.0
C805 C 0.17805 0.55542 0.45113 0.0
C806 C 0.15469 0.51966 0.18437 0.0
C807 C 0.21811 0.52111 0.47406 0.0
H808 H 0.25517 0.46417 0.19842 0.0
H809 H 0.25929 0.55368 0.14286 0.0
H810 H 0.19637 0.46636 0.36502 0.0
H811 H 0.18691 0.45796 0.24762 0.0
H812 H 0.21924 0.44361 0.29687 0.0
H813 H 0.22953 0.58664 0.20788 0.0
H814 H 0.19344 0.57407 0.20815 0.0
H815 H 0.21337 0.57669 0.31555 0.0
H816 H 0.12994 0.56353 0.27444 0.0
H817 H 0.18344 0.56466 0.5181 0.0
H818 H 0.1491 0.49667 0.18893 0.0
H819 H 0.17328 0.52165 0.13693 0.0
H820 H 0.13693 0.53166 0.15167 0.0
H821 H 0.22207 0.49816 0.46144 0.0
H822 H 0.21529 0.52459 0.5499 0.0
H823 H 0.2374 0.5332 0.45153 0.0
C824 C 1.01716 0.80873 0.18845 0.0
C825 C 0.99415 0.80873 0.24986 0.0
C826 C 0.02429 0.83296 0.13906 0.0
C827 C 1.00937 0.85845 0.15807 0.0
C828 C 0.98535 0.85849 0.21785 0.0
C829 C 0.97761 0.83306 0.26226 0.0
C830 C 0.04876 0.83131 0.0703 0.0
C831 C 0.96787 0.88488 0.23582 0.0
C832 C 0.0671 0.90824 0.09917 0.0
C833 C 0.05987 0.91281 1.00649 0.0
C834 C 0.04808 0.89413 0.15765 0.0
C835 C 1.02145 0.88473 0.12064 0.0
C836 C 1.01255 0.89332 0.03096 0.0
C837 C 0.0321 0.90763 0.97484 0.0
C838 C 0.0594 0.8847 0.25134 0.0
C839 C 0.98512 0.88255 0.98729 0.0
H840 H 0.02977 0.78955 0.18016 0.0
H841 H 0.95937 0.83237 0.30852 0.0
H842 H 0.04405 0.84374 1.00637 0.0
H843 H 0.06852 0.84016 0.10225 0.0
H844 H 0.05328 0.80897 0.04969 0.0
H845 H 0.95967 0.8849 0.30826 0.0
H846 H 0.98008 0.90486 0.22311 0.0
H847 H 0.94889 0.88475 0.18933 0.0
H848 H 0.08847 0.91352 0.12367 0.0
H849 H 0.02644 0.91221 0.90401 0.0
H850 H 0.07855 0.87113 0.24135 0.0
H851 H 0.04372 0.87236 0.29269 0.0
H852 H 0.06662 0.90359 0.29155 0.0
H853 H 0.98834 0.86031 0.96326 0.0
H854 H 0.97878 0.89567 0.92618 0.0
H855 H 0.96734 0.88241 0.03793 0.0
C856 C 0.74017 0.0447 0.23545 0.0
C857 C 0.76223 0.02522 0.24051 0.0
C858 C 0.71653 0.03892 0.17933 0.0
C859 C 0.71547 1.01287 0.12849 0.0
C860 C 0.73854 0.99376 0.13091 0.0
C861 C 0.76171 1.00013 0.18803 0.0
C862 C 0.69226 0.06005 0.17871 0.0
C863 C 0.73885 0.96681 0.07368 0.0
C864 C 0.63938 0.99838 0.13588 0.0
C865 C 0.63169 1.01799 0.0675 0.0
C866 C 0.66801 0.99117 0.14665 0.0
C867 C 0.68831 1.00401 0.08679 0.0
C868 C 0.67952 1.01724 1.00363 0.0
C869 C 0.65067 0.02409 0.99419 0.0
C870 C 0.67697 0.97582 0.23401 0.0
C871 C 0.70104 0.02943 0.93599 0.0
H872 H 0.7414 0.06404 0.27639 0.0
H873 H 0.77958 0.98553 0.19258 0.0
H874 H 0.68718 0.06678 0.10659 0.0
H875 H 0.67296 0.04987 0.20842 0.0
H876 H 0.6972 0.07943 0.22019 0.0
H877 H 0.75535 0.9516 0.09871 0.0
H878 H 0.71775 0.95588 0.07389 0.0
H879 H 0.74377 0.97246 1.00044 0.0
H880 H 0.62434 0.99309 0.1905 0.0
H881 H 0.64443 0.03846 0.93858 0.0
H882 H 0.68724 0.99135 0.28169 0.0
H883 H 0.69297 0.95919 0.21808 0.0
H884 H 0.65853 0.96575 0.2703 0.0
H885 H 0.71101 0.0489 0.96587 0.0
H886 H 0.69089 0.03539 0.86879 0.0
H887 H 0.7184 1.01387 0.92334 0.0
C888 C 0.5342 0.7489 0.21463 0.0
C889 C 0.56094 0.75509 0.25179 0.0
C890 C 0.52915 0.72295 0.17275 0.0
C891 C 0.55189 0.70304 0.16846 0.0
C892 C 0.57846 0.70855 0.21201 0.0
C893 C 0.5828 0.73506 0.25347 0.0
C894 C 0.4999 0.71771 0.1301 0.0
C895 C 0.60226 0.68696 0.21241 0.0
C896 C 0.51035 0.64406 0.08275 0.0
C897 C 0.50912 0.6536 0.99083 0.0
C898 C 0.52992 0.65628 0.14384 0.0
C899 C 0.54794 0.67818 0.10975 0.0
C900 C 0.55084 0.68287 1.01289 0.0
C901 C 0.53086 0.67037 0.9538 0.0
C902 C 0.52641 0.65024 0.24625 0.0
C903 C 0.57002 0.70594 0.97379 0.0
H904 H 0.51754 0.76491 0.21709 0.0
H905 H 0.60314 0.74043 0.28548 0.0
H906 H 0.50179 0.71466 0.05395 0.0
H907 H 0.49004 0.69827 0.16041 0.0
H908 H 0.48498 0.7357 0.14192 0.0
H909 H 0.61843 0.69174 0.26711 0.0
H910 H 0.59367 0.66512 0.22379 0.0
H911 H 0.61317 0.68723 0.14404 0.0
H912 H 0.49416 0.62945 0.10892 0.0
H913 H 0.53071 0.6757 0.88084 0.0
H914 H 0.504 0.65453 0.26747 0.0
H915 H 0.54079 0.66336 0.28977 0.0
H916 H 0.53064 0.62735 0.26015 0.0
H917 H 0.55864 0.72665 0.97678 0.0
H918 H 0.57537 0.70171 0.89985 0.0
H919 H 0.5901 0.708 1.01443 0.0
C920 C 0.81893 0.57244 0.23194 0.0
C921 C 0.81007 0.54641 0.26988 0.0
C922 C 0.84467 0.57426 0.18437 0.0
C923 C 0.8597 0.54892 0.1683 0.0
C924 C 0.8526 0.52343 0.21679 0.0
C925 C 0.82753 0.52264 0.26837 0.0
C926 C 0.85445 0.60238 0.14435 0.0
C927 C 0.8695 0.49627 0.20609 0.0
C928 C 0.87741 0.52352 0.93413 0.0
C929 C 0.90576 0.51605 0.95066 0.0
C930 C 0.86244 0.53873 1.00097 0.0
C931 C 0.87679 0.54655 0.08419 0.0
C932 C 0.90656 0.54368 0.09233 0.0
C933 C 0.92101 0.52853 0.0243 0.0
C934 C 0.83045 0.54177 0.98934 0.0
C935 C 0.92259 0.55294 0.17781 0.0
H936 H 0.80527 0.59096 0.23773 0.0
H937 H 0.82042 0.5031 0.30167 0.0
H938 H 0.87815 0.60418 0.14769 0.0
H939 H 0.84796 0.60386 0.07023 0.0
H940 H 0.84486 0.62059 0.18221 0.0
H941 H 0.86698 0.48808 0.13414 0.0
H942 H 0.89259 0.50037 0.21842 0.0
H943 H 0.86234 0.47941 0.2554 0.0
H944 H 0.86618 0.51461 0.87473 0.0
H945 H 0.94335 0.52339 0.03575 0.0
H946 H 0.82363 0.56374 1.00611 0.0
H947 H 0.81936 0.52699 0.0379 0.0
H948 H 0.82331 0.53673 0.91744 0.0
H949 H 0.92924 0.57547 0.16851 0.0
H950 H 0.9419 0.53953 0.18728 0.0
H951 H 0.90963 0.55172 0.24229 0.0
C952 C 0.0328 0.25609 0.92786 0.0
C953 C 0.05759 0.2637 0.97876 0.0
C954 C 0.02964 0.22867 0.88434 0.0
C955 C 0.05017 0.20638 0.89918 0.0
C956 C 0.07485 0.21407 0.95229 0.0
C957 C 0.07904 0.24254 0.98371 0.0
C958 C 1.00362 0.22399 0.824 0.0
C959 C 0.09661 0.19223 0.98286 0.0
C960 C 1.02013 0.1288 0.85805 0.0
C961 C 0.03964 0.11667 0.79508 0.0
C962 C 0.02353 0.15708 0.89368 0.0
C963 C 0.04606 0.17543 0.8615 0.0
C964 C 0.06546 0.16318 0.7958 0.0
C965 C 0.06255 0.1342 0.76654 0.0
C966 C 1.00288 0.16655 0.96775 0.0
C967 C 0.08972 0.18021 0.75421 0.0
H968 H 1.01526 0.27101 0.92421 0.0
H969 H 0.0984 0.24746 0.0223 0.0
H970 H 1.00546 0.20502 0.77859 0.0
H971 H 0.98448 0.22159 0.8689 0.0
H972 H 0.99998 0.24299 0.77925 0.0
H973 H 0.10308 0.19609 0.05625 0.0
H974 H 0.08857 0.17001 0.97787 0.0
H975 H 0.11617 0.19456 0.93995 0.0
H976 H 1.00248 0.11572 0.88253 0.0
H977 H 0.07803 0.12549 0.71847 0.0
H978 H 0.98281 0.17381 0.93401 0.0
H979 H 1.0116 0.18407 1.01124 0.0
H980 H 0.99713 0.14844 1.01419 0.0
H981 H 0.0917 0.17546 0.67885 0.0
H982 H 0.1101 0.17359 0.78752 0.0
H983 H 0.08708 0.20354 0.76236 0.0
C984 C 0.30982 0.04093 0.93409 0.0
C985 C 0.30456 0.06331 0.99743 0.0
C986 C 0.33718 0.03742 0.88978 0.0
C987 C 0.36121 0.05525 0.9132 0.0
C988 C 0.35578 0.07765 0.97722 0.0
C989 C 0.32786 0.08214 1.01325 0.0
C990 C 0.33988 1.01414 0.81837 0.0
C991 C 0.37954 0.09693 1.01136 0.0
C992 C 0.43919 0.02674 0.8757 0.0
C993 C 0.45058 0.04471 0.80601 0.0
C994 C 0.4104 0.02931 0.90844 0.0
C995 C 0.39176 0.05083 0.87283 0.0
C996 C 0.40345 0.06925 0.80293 0.0
C997 C 0.43213 0.0658 0.77034 0.0
C998 C 0.40007 1.00894 0.98255 0.0
C999 C 0.3862 0.09347 0.763 0.0
H1000 H 0.29294 0.02564 0.92006 0.0
H1001 H 0.32467 0.09999 0.05963 0.0
H1002 H 0.35941 1.01627 0.77518 0.0
H1003 H 0.34021 0.99315 0.8542 0.0
H1004 H 0.32091 1.01418 0.77158 0.0
H1005 H 0.37533 0.10425 0.08348 0.0
H1006 H 0.4007 0.08632 1.01063 0.0
H1007 H 0.38061 0.11612 0.96625 0.0
H1008 H 0.45284 1.01028 0.90439 0.0
H1009 H 0.4404 0.08031 0.71796 0.0
H1010 H 0.38445 0.99381 0.95147 0.0
H1011 H 0.38899 1.02063 0.0389 0.0
H1012 H 0.41785 0.99642 1.01346 0.0
H1013 H 0.39173 0.09718 0.68884 0.0
H1014 H 0.39161 0.11328 0.80141 0.0
H1015 H 0.3628 0.08969 0.76825 0.0
C1016 C 0.51191 0.31146 0.9257 0.0
C1017 C 0.50028 0.31046 0.01687 0.0
C1018 C 0.51581 0.33777 0.8754 0.0
C1019 C 0.51028 0.36469 0.91814 0.0
C1020 C 0.49882 0.36376 1.00902 0.0
C1021 C 0.49171 0.33744 0.05174 0.0
C1022 C 0.52542 0.33605 0.77558 0.0
C1023 C 0.49524 0.39039 0.0664 0.0
C1024 C 0.54562 0.4351 0.82795 0.0
C1025 C 0.52192 0.45221 0.80414 0.0
C1026 C 0.54243 0.40636 0.8596 0.0
C1027 C 0.51475 0.39374 0.86924 0.0
C1028 C 0.49087 0.41069 0.84176 0.0
C1029 C 0.49481 0.43903 0.80853 0.0
C1030 C 0.56894 0.38972 0.88395 0.0
C1031 C 0.46067 0.39954 0.85135 0.0
H1032 H 0.51708 0.29202 0.89024 0.0
H1033 H 0.47935 0.33887 0.11452 0.0
H1034 H 0.52265 0.35637 0.73697 0.0
H1035 H 0.54832 0.32994 0.77369 0.0
H1036 H 0.51321 0.31909 0.73878 0.0
H1037 H 0.5113 0.38962 0.12326 0.0
H1038 H 0.49881 0.41066 0.02862 0.0
H1039 H 0.47358 0.39077 0.09792 0.0
H1040 H 0.56689 0.44429 0.82292 0.0
H1041 H 0.47631 0.45096 0.78618 0.0
H1042 H 0.5729 0.37377 0.82871 0.0
H1043 H 0.56614 0.37805 0.95062 0.0
H1044 H 0.58817 0.40364 0.8893 0.0
H1045 H 0.44563 0.41097 0.80448 0.0
H1046 H 0.45334 0.40293 0.9238 0.0
H1047 H 0.45944 0.37635 0.83654 0.0
C1048 C 0.2435 0.49053 0.9788 0.0
C1049 C 0.2657 0.51091 0.96863 0.0
C1050 C 0.21479 0.49546 0.94977 0.0
C1051 C 0.20765 0.51962 0.89405 0.0
C1052 C 0.23081 0.53897 0.87418 0.0
C1053 C 0.25871 0.53521 0.9151 0.0
C1054 C 0.1922 0.47503 0.98535 0.0
C1055 C 0.22656 0.56431 0.81111 0.0
C1056 C 0.13447 0.5065 0.76591 0.0
C1057 C 0.11707 0.52946 0.79303 0.0
C1058 C 0.16368 0.50394 0.79377 0.0
C1059 C 0.17655 0.52389 0.85663 0.0
C1060 C 0.15863 0.54686 0.88646 0.0
C1061 C 0.12988 0.54976 0.85245 0.0
C1062 C 0.18024 0.47924 0.75448 0.0
C1063 C 0.16905 0.56846 0.95644 0.0
H1064 H 0.24799 0.47155 0.01923 0.0
H1065 H 0.27473 0.55178 0.90695 0.0
H1066 H 0.17016 0.48356 0.98001 0.0
H1067 H 0.19349 0.45474 0.94624 0.0
H1068 H 0.19636 0.4698 0.0596 0.0
H1069 H 0.24558 0.56733 0.76592 0.0
H1070 H 0.20734 0.56217 0.76608 0.0
H1071 H 0.22454 0.58381 0.85401 0.0
H1072 H 0.12529 0.49038 0.7207 0.0
H1073 H 0.11701 0.56748 0.87594 0.0
H1074 H 0.17394 0.45943 0.79166 0.0
H1075 H 0.20375 0.48214 0.75995 0.0
H1076 H 0.17467 0.47608 0.68003 0.0
H1077 H 0.15133 0.57508 1.00285 0.0
H1078 H 0.17648 0.58781 0.91889 0.0
H1079 H 0.18683 0.56033 1.00026 0.0
C1080 C 0.98495 0.8199 0.48234 0.0
C1081 C 1.0082 0.80412 0.4479 0.0
C1082 C 0.98833 0.84736 0.523 0.0
C1083 C 1.01591 0.85999 0.53236 0.0
C1084 C 0.03968 0.84381 0.50018 0.0
C1085 C 0.03561 0.81648 0.45794 0.0
C1086 C 0.96202 0.8636 0.55127 0.0
C1087 C 0.06947 0.85607 0.50696 0.0
C1088 C 1.02136 0.94283 0.5426 0.0
C1089 C 0.02582 0.94896 0.6373 0.0
C1090 C 1.0175 0.91469 0.50878 0.0
C1091 C 1.0196 0.89069 0.56939 0.0
C1092 C 0.02509 0.89663 0.66526 0.0
C1093 C 0.02808 0.92535 0.6972 0.0
C1094 C 1.01004 0.91161 0.40758 0.0
C1095 C 0.02699 0.87302 0.73637 0.0
H1096 H 0.9636 0.81128 0.4723 0.0
H1097 H 0.05375 0.80536 0.42885 0.0
H1098 H 0.9644 0.87143 0.62369 0.0
H1099 H 0.95951 0.88251 0.50539 0.0
H1100 H 0.94226 0.8504 0.54627 0.0
H1101 H 0.08596 0.841 0.48175 0.0
H1102 H 0.07078 0.87602 0.46539 0.0
H1103 H 0.07431 0.86171 0.58033 0.0
H1104 H 1.02097 0.9602 0.49328 0.0
H1105 H 0.03235 0.92952 0.76934 0.0
H1106 H 1.00929 0.88926 0.38405 0.0
H1107 H 0.02529 0.92404 0.36431 0.0
H1108 H 0.98863 0.92092 0.39559 0.0
H1109 H 1.00694 0.87262 0.77759 0.0
H1110 H 0.04493 0.87721 0.7854 0.0
H1111 H 0.03 0.85168 0.7051 0.0
C1112 C 0.74394 0.99307 0.43092 0.0
C1113 C 0.76465 1.01478 0.44395 0.0
C1114 C 0.71648 0.99376 0.4749 0.0
C1115 C 0.70844 1.01713 0.53231 0.0
C1116 C 0.72974 0.03842 0.54859 0.0
C1117 C 0.75704 0.03712 0.50424 0.0
C1118 C 0.69595 0.96928 0.45997 0.0
C1119 C 0.72337 0.0632 0.61154 0.0
C1120 C 0.62779 0.03774 0.55168 0.0
C1121 C 0.61943 0.02761 0.64018 0.0
C1122 C 0.65623 0.03489 0.51742 0.0
C1123 C 0.67757 1.02037 0.57019 0.0
C1124 C 0.66904 1.0094 0.65879 0.0
C1125 C 0.64059 1.01355 0.69302 0.0
C1126 C 0.66332 0.04732 0.42335 0.0
C1127 C 0.68972 0.99231 0.71672 0.0
H1128 H 0.74885 0.97594 0.38328 0.0
H1129 H 0.77217 0.05446 0.51353 0.0
H1130 H 0.69383 0.95698 0.52554 0.0
H1131 H 0.67431 0.97721 0.44165 0.0
H1132 H 0.70341 0.95451 0.40499 0.0
H1133 H 0.74232 0.07723 0.62208 0.0
H1134 H 0.70573 0.07606 0.58145 0.0
H1135 H 0.71605 0.05525 0.68034 0.0
H1136 H 0.61197 0.04846 0.50897 0.0
H1137 H 0.63467 1.00494 0.76034 0.0
H1138 H 0.66861 0.02985 0.37469 0.0
H1139 H 0.68241 0.06141 0.42836 0.0
H1140 H 0.64532 0.05979 0.39353 0.0
H1141 H 0.69269 0.97112 0.68428 0.0
H1142 H 0.68178 0.98885 0.78861 0.0
H1143 H 0.71098 1.00293 0.71966 0.0
C1144 C 0.57486 0.75354 0.4958 0.0
C1145 C 0.55206 0.76596 0.44594 0.0
C1146 C 0.5727 0.72606 0.53862 0.0
C1147 C 0.54741 0.70908 0.52903 0.0
C1148 C 0.52439 0.72143 0.47752 0.0
C1149 C 0.5267 0.74956 0.43973 0.0
C1150 C 0.59854 0.71471 0.58925 0.0
C1151 C 0.49772 0.70424 0.45695 0.0
C1152 C 0.55494 0.62644 0.55855 0.0
C1153 C 0.53977 0.61991 0.64071 0.0
C1154 C 0.55841 0.6547 0.52361 0.0
C1155 C 0.54529 0.67831 0.56869 0.0
C1156 C 0.52985 0.67204 0.65198 0.0
C1157 C 0.52758 0.64344 0.68698 0.0
C1158 C 0.57728 0.65863 0.43959 0.0
C1159 C 0.51676 0.69585 0.70754 0.0
H1160 H 0.59515 0.76482 0.49724 0.0
H1161 H 0.50927 0.75792 0.39811 0.0
H1162 H 0.59236 0.70057 0.64796 0.0
H1163 H 0.61168 0.70224 0.53998 0.0
H1164 H 0.61214 0.73234 0.61638 0.0
H1165 H 0.48441 0.71424 0.40173 0.0
H1166 H 0.5034 0.68236 0.43456 0.0
H1167 H 0.48456 0.70231 0.5207 0.0
H1168 H 0.56458 0.60935 0.52057 0.0
H1169 H 0.51597 0.63956 0.75074 0.0
H1170 H 0.59999 0.65741 0.46198 0.0
H1171 H 0.57398 0.6793 0.4038 0.0
H1172 H 0.57386 0.641 0.38934 0.0
H1173 H 0.53392 0.70647 0.74852 0.0
H1174 H 0.50004 0.68781 0.75581 0.0
H1175 H 0.50708 0.71238 0.66248 0.0
C1176 C 0.8065 0.53133 0.52452 0.0
C1177 C 0.79926 0.55433 0.46587 0.0
C1178 C 0.83403 0.52895 0.56786 0.0
C1179 C 0.8566 0.54866 0.54664 0.0
C1180 C 0.8492 0.57199 0.48736 0.0
C1181 C 0.82071 0.57529 0.45343 0.0
C1182 C 0.83879 0.50446 0.63405 0.0
C1183 C 0.87141 0.593 0.45333 0.0
C1184 C 0.92816 0.56186 0.68308 0.0
C1185 C 0.94572 0.53887 0.65757 0.0
C1186 C 0.89942 0.56468 0.65084 0.0
C1187 C 0.88745 0.54498 0.58553 0.0
C1188 C 0.90571 0.52223 0.55656 0.0
C1189 C 0.93386 0.51904 0.59469 0.0
C1190 C 0.88234 0.58934 0.68783 0.0
C1191 C 0.89641 0.50123 0.48295 0.0
H1192 H 0.7909 0.51439 0.53381 0.0
H1193 H 0.81597 0.5932 0.40838 0.0
H1194 H 0.8446 0.48522 0.59378 0.0
H1195 H 0.85606 0.50901 0.68516 0.0
H1196 H 0.81884 0.49937 0.67265 0.0
H1197 H 0.86917 0.61331 0.49189 0.0
H1198 H 0.89356 0.58509 0.46172 0.0
H1199 H 0.8679 0.59792 0.37849 0.0
H1200 H 0.9368 0.57772 0.73033 0.0
H1201 H 0.94706 0.50148 0.57182 0.0
H1202 H 0.85891 0.58588 0.68201 0.0
H1203 H 0.88824 0.60893 0.64871 0.0
H1204 H 0.8877 0.59327 0.76206 0.0
H1205 H 0.89043 0.4808 0.51694 0.0
H1206 H 0.91446 0.49661 0.43526 0.0
H1207 H 0.87807 0.50885 0.44068 0.0
loop_
_geom_bond_atom_site_label_1
_geom_bond_atom_site_label_2
_geom_bond_distance
_geom_bond_site_symmetry_2
_ccdc_geom_bond_type
C0 N1 1.317 . S
C0 N2 1.348 . S
C0 C3 1.485 . S
N1 C0 1.317 . S
N1 N5 1.370 . S
N2 C0 1.348 . S
N2 C4 1.346 . S
C3 C0 1.485 . S
C3 H7 0.960 . S
C3 H8 0.961 . S
C3 H9 0.960 . S
C4 N2 1.346 . S
C4 N5 1.307 . S
C4 C6 1.486 . S
N5 N1 1.370 . S
N5 C4 1.307 . S
C6 C4 1.486 . S
C6 H10 0.960 . S
C6 H11 0.960 . S
C6 H12 0.959 . S
H7 C3 0.960 . S
H8 C3 0.961 . S
H9 C3 0.960 . S
H10 C6 0.960 . S
H11 C6 0.960 . S
H12 C6 0.959 . S
C13 N14 1.317 . S
C13 N15 1.348 . S
C13 C16 1.485 . S
N14 C13 1.317 . S
N14 N18 1.370 . S
N15 C13 1.348 . S
N15 C17 1.346 . S
C16 C13 1.485 . S
C16 H20 0.960 . S
C16 H21 0.961 . S
C16 H22 0.960 . S
C17 N15 1.346 . S
C17 N18 1.307 . S
C17 C19 1.486 . S
N18 N14 1.370 . S
N18 C17 1.307 . S
C19 C17 1.486 . S
C19 H23 0.960 . S
C19 H24 0.960 . S
C19 H25 0.959 . S
H20 C16 0.960 . S
H21 C16 0.961 . S
H22 C16 0.960 . S
H23 C19 0.960 . S
H24 C19 0.960 . S
H25 C19 0.959 . S
C26 N27 1.317 . S
C26 N28 1.348 . S
C26 C29 1.485 . S
N27 C26 1.317 . S
N27 N31 1.370 . S
N28 C26 1.348 . S
N28 C30 1.346 . S
C29 C26 1.485 . S
C29 H33 0.960 . S
C29 H34 0.961 . S
C29 H35 0.960 . S
C30 N28 1.346 . S
C30 N31 1.307 . S
C30 C32 1.486 . S
N31 N27 1.370 . S
N31 C30 1.307 . S
C32 C30 1.486 . S
C32 H36 0.960 . S
C32 H37 0.984 . S
C32 H38 0.959 . S
H33 C29 0.960 . S
H34 C29 0.961 . S
H35 C29 0.960 . S
H36 C32 0.960 . S
H37 C32 0.984 . S
H38 C32 0.959 . S
C39 N40 1.317 . S
C39 N41 1.348 . S
C39 C42 1.485 . S
N40 C39 1.317 . S
N40 N44 1.370 . S
N41 C39 1.348 . S
N41 C43 1.346 . S
C42 C39 1.485 . S
C42 H46 0.960 . S
C42 H47 0.961 . S
C42 H48 0.960 . S
C43 N41 1.346 . S
C43 N44 1.307 . S
C43 C45 1.486 . S
N44 N40 1.370 . S
N44 C43 1.307 . S
C45 C43 1.486 . S
C45 H49 0.960 . S
C45 H50 0.960 . S
C45 H51 0.959 . S
H46 C42 0.960 . S
H47 C42 0.961 . S
H48 C42 0.960 . S
H49 C45 0.960 . S
H50 C45 0.960 . S
H51 C45 0.959 . S
C52 N53 1.317 . S
C52 N54 1.348 1_556 S
C52 C55 1.485 . S
N53 C52 1.317 . S
N53 N57 1.370 1_556 S
N54 C52 1.348 1_554 S
N54 C56 1.346 . S
C55 C52 1.485 . S
C55 H59 0.960 . S
C55 H60 0.961 . S
C55 H61 0.960 . S
C56 N54 1.346 . S
C56 N57 1.307 . S
C56 C58 1.486 . S
N57 N53 1.370 1_554 S
N57 C56 1.307 . S
C58 C56 1.486 . S
C58 H62 0.960 . S
C58 H63 0.960 . S
C58 H64 0.959 . S
H59 C55 0.960 . S
H60 C55 0.961 . S
H61 C55 0.960 . S
H62 C58 0.960 . S
H63 C58 0.960 . S
H64 C58 0.959 . S
C65 N66 1.318 . S
C65 N67 1.348 1_556 S
C65 C68 1.485 . S
N66 C65 1.318 . S
N66 N70 1.361 1_556 S
N67 C65 1.348 1_554 S
N67 C69 1.346 . S
C68 C65 1.485 . S
C68 H72 0.960 . S
C68 H73 0.961 . S
C68 H74 0.960 . S
C69 N67 1.346 . S
C69 N70 1.307 . S
C69 C71 1.486 . S
N70 N66 1.361 1_554 S
N70 C69 1.307 . S
C71 C69 1.486 . S
C71 H75 0.960 . S
C71 H76 0.960 . S
C71 H77 0.959 . S
H72 C68 0.960 . S
H73 C68 0.961 . S
H74 C68 0.960 . S
H75 C71 0.960 . S
H76 C71 0.960 . S
H77 C71 0.959 . S
C78 N79 1.317 . S
C78 N80 1.348 1_556 S
C78 C81 1.485 . S
N79 C78 1.317 . S
N79 N83 1.370 1_556 S
N80 C78 1.348 1_554 S
N80 C82 1.346 . S
C81 C78 1.485 . S
C81 H85 0.960 . S
C81 H86 0.961 . S
C81 H87 0.960 . S
C82 N80 1.346 . S
C82 N83 1.307 . S
C82 C84 1.486 . S
N83 N79 1.370 1_554 S
N83 C82 1.307 . S
C84 C82 1.486 . S
C84 H88 0.960 . S
C84 H89 0.960 . S
C84 H90 0.959 . S
H85 C81 0.960 . S
H86 C81 0.961 . S
H87 C81 0.960 . S
H88 C84 0.960 . S
H89 C84 0.960 . S
H90 C84 0.959 . S
C91 N92 1.317 . S
C91 N93 1.348 1_556 S
C91 C94 1.485 . S
N92 C91 1.317 . S
N92 N96 1.370 1_556 S
N93 C91 1.348 1_554 S
N93 C95 1.346 . S
C94 C91 1.485 . S
C94 H98 0.960 . S
C94 H99 0.961 . S
C94 H100 0.960 . S
C95 N93 1.346 . S
C95 N96 1.307 . S
C95 C97 1.486 . S
N96 N92 1.370 1_554 S
N96 C95 1.307 . S
C97 C95 1.486 . S
C97 H101 0.960 . S
C97 H102 0.960 . S
C97 H103 0.959 . S
H98 C94 0.960 . S
H99 C94 0.961 . S
H100 C94 0.960 . S
H101 C97 0.960 . S
H102 C97 0.960 . S
H103 C97 0.959 . S
Tb104 N133 2.617 . S
Tb104 N139 2.572 . S
Tb104 O148 2.470 . S
Tb104 O149 2.387 1_545 S
Tb104 O151 2.428 . S
Tb104 O152 2.308 1_655 S
Tb104 O156 2.349 1_655 S
Tb104 O159 2.393 . S
Tb104 C168 2.802 . S
C105 N106 1.379 . S
C105 C108 1.416 . S
C105 C112 1.424 . S
N106 C105 1.379 . S
N106 C109 1.334 . S
N106 Tb115 2.617 1_545 S
C107 C109 1.390 . S
C107 C110 1.339 . S
C107 H127 0.930 . S
C108 C105 1.416 . S
C108 C110 1.416 . S
C108 C114 1.448 1_556 S
C109 N106 1.334 . S
C109 C107 1.390 . S
C109 H120 0.930 1_545 S
C110 C107 1.339 . S
C110 C108 1.416 . S
C110 H131 0.930 . S
C111 C112 1.413 1_554 S
C111 C113 1.427 . S
C111 C117 1.416 . S
C112 C105 1.424 . S
C112 C111 1.413 1_556 S
C112 N116 1.361 . S
C113 C111 1.427 . S
C113 C114 1.328 . S
C113 H128 0.929 . S
C114 C108 1.448 1_554 S
C114 C113 1.328 . S
C114 H129 0.930 . S
Tb115 N106 2.617 1_565 S
Tb115 N116 2.572 1_565 S
Tb115 O150 2.349 . S
Tb115 O153 2.393 . S
Tb115 O154 2.465 . S
Tb115 O155 2.387 1_565 S
Tb115 O157 2.428 . S
Tb115 O158 2.308 1_465 S
Tb115 C179 2.802 . S
N116 C112 1.361 . S
N116 Tb115 2.572 1_545 S
N116 C118 1.340 1_556 S
C117 C111 1.416 . S
C117 C119 1.332 . S
C117 H125 0.931 . S
C118 N116 1.340 1_554 S
C118 C119 1.407 . S
C118 H124 0.930 1_454 S
C119 C117 1.332 . S
C119 C118 1.407 . S
C119 H121 0.932 1_455 S
H120 C109 0.930 1_565 S
H121 C119 0.932 1_655 S
H122 C137 0.930 . S
H123 C144 0.929 . S
H124 C118 0.930 1_656 S
H125 C117 0.931 . S
H126 C140 0.930 . S
H127 C107 0.930 . S
H128 C113 0.929 . S
H129 C114 0.930 . S
H130 C135 0.930 . S
H131 C110 0.930 . S
H132 C143 0.931 . S
N133 Tb104 2.617 . S
N133 C134 1.379 . S
N133 C137 1.334 . S
C134 N133 1.379 . S
C134 C136 1.416 1_545 S
C134 C142 1.422 1_545 S
C135 H130 0.930 . S
C135 C137 1.390 . S
C135 C138 1.339 1_545 S
C136 C134 1.416 1_565 S
C136 C138 1.416 . S
C136 C169 1.448 . S
C137 H122 0.930 . S
C137 N133 1.334 . S
C137 C135 1.390 . S
C138 C135 1.339 1_565 S
C138 C136 1.416 . S
C138 H145 0.930 . S
N139 Tb104 2.572 . S
N139 C140 1.340 1_655 S
N139 C142 1.355 1_545 S
C140 H126 0.930 . S
C140 N139 1.340 1_455 S
C140 C144 1.407 1_545 S
C141 C142 1.420 . S
C141 C143 1.416 . S
C141 C170 1.427 . S
C142 C134 1.422 1_565 S
C142 N139 1.355 1_565 S
C142 C141 1.420 . S
C143 H132 0.931 . S
C143 C141 1.416 . S
C143 C144 1.332 1_655 S
C144 H123 0.929 . S
C144 C140 1.407 1_565 S
C144 C143 1.332 1_455 S
H145 C138 0.930 . S
H146 C169 0.930 . S
H147 C170 0.929 . S
O148 Tb104 2.470 . S
O148 C168 1.276 . S
O149 Tb104 2.387 1_565 S
O149 C160 1.264 . S
O150 Tb115 2.349 . S
O150 C160 1.243 1_455 S
O151 Tb104 2.428 . S
O151 C168 1.256 . S
O152 Tb104 2.308 1_455 S
O152 C167 1.266 . S
O153 Tb115 2.393 . S
O153 C167 1.248 1_565 S
O154 Tb115 2.465 . S
O154 C179 1.264 . S
O155 Tb115 2.387 1_545 S
O155 C171 1.264 . S
O156 Tb104 2.349 1_455 S
O156 C171 1.243 . S
O157 Tb115 2.428 . S
O157 C179 1.256 . S
O158 Tb115 2.308 1_645 S
O158 C178 1.266 . S
O159 Tb104 2.393 . S
O159 C178 1.248 . S
C160 O149 1.264 . S
C160 O150 1.243 1_655 S
C161 C164 1.399 . S
C161 C166 1.383 . S
C161 C168 1.496 . S
C162 C163 1.399 . S
C162 C166 1.389 . S
C163 C162 1.399 . S
C163 C165 1.380 . S
C163 H180 0.929 . S
C164 C161 1.399 . S
C164 C165 1.392 . S
C164 H181 0.929 . S
C165 C163 1.380 . S
C165 C164 1.392 . S
C165 H182 0.929 . S
C166 C161 1.383 . S
C166 C162 1.389 . S
C166 H183 0.931 1_655 S
C167 O152 1.266 . S
C167 O153 1.248 1_545 S
C168 Tb104 2.802 . S
C168 O148 1.276 . S
C168 O151 1.256 . S
C168 C161 1.496 . S
C169 C136 1.448 . S
C169 H146 0.930 . S
C169 C170 1.328 . S
C170 C141 1.427 . S
C170 H147 0.929 . S
C170 C169 1.328 . S
C171 O155 1.264 . S
C171 O156 1.243 . S
C172 C175 1.399 . S
C172 C176 1.383 . S
C172 C179 1.496 . S
C173 C174 1.399 . S
C173 C176 1.389 1_554 S
C174 C173 1.399 . S
C174 C177 1.380 1_554 S
C174 H184 0.929 . S
C175 C172 1.399 . S
C175 C177 1.392 . S
C175 H185 0.929 . S
C176 C172 1.383 . S
C176 C173 1.389 1_556 S
C176 H186 0.931 . S
C177 C174 1.380 1_556 S
C177 C175 1.392 . S
C177 H187 0.929 . S
C178 O158 1.266 . S
C178 O159 1.248 . S
C179 Tb115 2.802 . S
C179 O154 1.264 . S
C179 O157 1.256 . S
C179 C172 1.496 . S
H180 C163 0.929 . S
H181 C164 0.929 . S
H182 C165 0.929 . S
H183 C166 0.931 1_455 S
H184 C174 0.929 . S
H185 C175 0.929 . S
H186 C176 0.931 . S
H187 C177 0.929 . S
Tb188 N217 2.617 . S
Tb188 N223 2.572 . S
Tb188 O232 2.465 . S
Tb188 O233 2.387 . S
Tb188 O235 2.428 . S
Tb188 O236 2.308 . S
Tb188 O240 2.349 1_545 S
Tb188 O243 2.393 . S
Tb188 C252 2.802 . S
C189 N190 1.379 . S
C189 C192 1.416 . S
C189 C196 1.424 . S
N190 C189 1.379 . S
N190 C193 1.334 . S
N190 Tb199 2.617 . S
C191 C193 1.390 . S
C191 C194 1.339 . S
C191 H211 0.930 . S
C192 C189 1.416 . S
C192 C194 1.416 . S
C192 C198 1.448 . S
C193 N190 1.334 . S
C193 C191 1.390 . S
C193 H204 0.930 . S
C194 C191 1.339 . S
C194 C192 1.416 . S
C194 H215 0.930 . S
C195 C196 1.413 . S
C195 C197 1.427 . S
C195 C201 1.416 . S
C196 C189 1.424 . S
C196 C195 1.413 . S
C196 N200 1.361 . S
C197 C195 1.427 . S
C197 C198 1.328 . S
C197 H212 0.929 . S
C198 C192 1.448 . S
C198 C197 1.328 . S
C198 H213 0.930 . S
Tb199 N190 2.617 . S
Tb199 N200 2.572 . S
Tb199 O234 2.349 1_565 S
Tb199 O237 2.393 . S
Tb199 O238 2.465 . S
Tb199 O239 2.387 . S
Tb199 O241 2.428 . S
Tb199 O242 2.308 1_565 S
Tb199 C263 2.802 . S
N200 C196 1.361 . S
N200 Tb199 2.572 . S
N200 C202 1.340 . S
C201 C195 1.416 . S
C201 C203 1.332 . S
C201 H209 0.931 . S
C202 N200 1.340 . S
C202 C203 1.407 . S
C202 H208 0.930 . S
C203 C201 1.332 . S
C203 C202 1.407 . S
C203 H205 0.929 . S
H204 C193 0.930 . S
H205 C203 0.929 . S
H206 C221 0.930 . S
H207 C228 0.929 . S
H208 C202 0.930 . S
H209 C201 0.931 . S
H210 C224 0.930 . S
H211 C191 0.930 . S
H212 C197 0.929 . S
H213 C198 0.930 . S
H214 C219 0.930 . S
H215 C194 0.930 . S
H216 C227 0.931 . S
N217 Tb188 2.617 . S
N217 C218 1.379 . S
N217 C221 1.334 . S
C218 N217 1.379 . S
C218 C220 1.416 . S
C218 C226 1.424 . S
C219 H214 0.930 . S
C219 C221 1.390 . S
C219 C222 1.339 . S
C220 C218 1.416 . S
C220 C222 1.416 . S
C220 C253 1.448 . S
C221 H206 0.930 . S
C221 N217 1.334 . S
C221 C219 1.390 . S
C222 C219 1.339 . S
C222 C220 1.416 . S
C222 H229 0.930 . S
N223 Tb188 2.572 . S
N223 C224 1.340 . S
N223 C226 1.361 . S
C224 H210 0.930 . S
C224 N223 1.340 . S
C224 C228 1.407 . S
C225 C226 1.413 . S
C225 C227 1.416 . S
C225 C254 1.427 . S
C226 C218 1.424 . S
C226 N223 1.361 . S
C226 C225 1.413 . S
C227 H216 0.931 . S
C227 C225 1.416 . S
C227 C228 1.332 . S
C228 H207 0.929 . S
C228 C224 1.407 . S
C228 C227 1.332 . S
H229 C222 0.930 . S
H230 C253 0.930 . S
H231 C254 0.929 . S
O232 Tb188 2.465 . S
O232 C252 1.264 . S
O233 Tb188 2.387 . S
O233 C244 1.264 . S
O234 Tb199 2.349 1_545 S
O234 C244 1.243 . S
O235 Tb188 2.428 . S
O235 C252 1.256 . S
O236 Tb188 2.308 . S
O236 C251 1.266 . S
O237 Tb199 2.393 . S
O237 C251 1.248 1_565 S
O238 Tb199 2.465 . S
O238 C263 1.264 . S
O239 Tb199 2.387 . S
O239 C255 1.264 . S
O240 Tb188 2.349 1_565 S
O240 C255 1.243 . S
O241 Tb199 2.428 . S
O241 C263 1.256 . S
O242 Tb199 2.308 1_545 S
O242 C262 1.266 . S
O243 Tb188 2.393 . S
O243 C262 1.248 . S
C244 O233 1.264 . S
C244 O234 1.243 . S
C245 C248 1.399 . S
C245 C250 1.383 . S
C245 C252 1.496 1_554 S
C246 C247 1.399 . S
C246 C250 1.389 . S
C247 C246 1.399 . S
C247 C249 1.380 . S
C247 H264 0.929 . S
C248 C245 1.399 . S
C248 C249 1.392 . S
C248 H265 0.929 . S
C249 C247 1.380 . S
C249 C248 1.392 . S
C249 H266 0.929 . S
C250 C245 1.383 . S
C250 C246 1.389 . S
C250 H267 0.931 1_554 S
C251 O236 1.266 . S
C251 O237 1.248 1_545 S
C252 Tb188 2.802 . S
C252 O232 1.264 . S
C252 O235 1.256 . S
C252 C245 1.496 1_556 S
C253 C220 1.448 . S
C253 H230 0.930 . S
C253 C254 1.328 . S
C254 C225 1.427 . S
C254 H231 0.929 . S
C254 C253 1.328 . S
C255 O239 1.264 . S
C255 O240 1.243 . S
C256 C259 1.399 . S
C256 C260 1.383 1_565 S
C256 C263 1.496 . S
C257 C258 1.399 1_545 S
C257 C260 1.389 . S
C258 C257 1.399 1_565 S
C258 C261 1.380 . S
C258 H268 0.929 . S
C259 C256 1.399 . S
C259 C261 1.392 . S
C259 H269 0.929 . S
C260 C256 1.383 1_545 S
C260 C257 1.389 . S
C260 H270 0.931 . S
C261 C258 1.380 . S
C261 C259 1.392 . S
C261 H271 0.929 . S
C262 O242 1.266 . S
C262 O243 1.248 . S
C263 Tb199 2.802 . S
C263 O238 1.264 . S
C263 O241 1.256 . S
C263 C256 1.496 . S
H264 C247 0.929 . S
H265 C248 0.929 . S
H266 C249 0.929 . S
H267 C250 0.931 1_556 S
H268 C258 0.929 . S
H269 C259 0.929 . S
H270 C260 0.931 . S
H271 C261 0.929 . S
Tb272 N301 2.617 . S
Tb272 N307 2.572 . S
Tb272 O316 2.465 . S
Tb272 O317 2.387 . S
Tb272 O319 2.428 . S
Tb272 O320 2.308 . S
Tb272 O324 2.349 . S
Tb272 O327 2.393 . S
Tb272 C336 2.802 . S
C273 N274 1.379 . S
C273 C276 1.416 . S
C273 C280 1.424 . S
N274 C273 1.379 . S
N274 C277 1.334 . S
N274 Tb283 2.617 . S
C275 C277 1.390 . S
C275 C278 1.339 . S
C275 H295 0.930 . S
C276 C273 1.416 . S
C276 C278 1.416 . S
C276 C282 1.448 1_556 S
C277 N274 1.334 . S
C277 C275 1.390 . S
C277 H288 0.930 . S
C278 C275 1.339 . S
C278 C276 1.416 . S
C278 H299 0.930 . S
C279 C280 1.413 1_554 S
C279 C281 1.427 . S
C279 C285 1.416 . S
C280 C273 1.424 . S
C280 C279 1.413 1_556 S
C280 N284 1.361 . S
C281 C279 1.427 . S
C281 C282 1.328 . S
C281 H296 0.929 . S
C282 C276 1.448 1_554 S
C282 C281 1.328 . S
C282 H297 0.930 . S
Tb283 N274 2.617 . S
Tb283 N284 2.572 . S
Tb283 O318 2.349 . S
Tb283 O321 2.393 . S
Tb283 O322 2.465 . S
Tb283 O323 2.387 . S
Tb283 O325 2.428 . S
Tb283 O326 2.308 . S
Tb283 C347 2.802 . S
N284 C280 1.361 . S
N284 Tb283 2.572 . S
N284 C286 1.340 1_556 S
C285 C279 1.416 . S
C285 C287 1.332 . S
C285 H293 0.931 . S
C286 N284 1.340 1_554 S
C286 C287 1.407 . S
C286 H292 0.930 1_554 S
C287 C285 1.332 . S
C287 C286 1.407 . S
C287 H289 0.929 . S
H288 C277 0.930 . S
H289 C287 0.929 . S
H290 C305 0.930 . S
H291 C312 0.929 . S
H292 C286 0.930 1_556 S
H293 C285 0.931 . S
H294 C308 0.930 . S
H295 C275 0.930 . S
H296 C281 0.929 . S
H297 C282 0.930 . S
H298 C303 0.930 . S
H299 C278 0.930 . S
H300 C311 0.931 . S
N301 Tb272 2.617 . S
N301 C302 1.379 . S
N301 C305 1.334 . S
C302 N301 1.379 . S
C302 C304 1.416 . S
C302 C310 1.424 . S
C303 H298 0.930 . S
C303 C305 1.390 . S
C303 C306 1.339 . S
C304 C302 1.416 . S
C304 C306 1.416 . S
C304 C337 1.448 . S
C305 H290 0.930 . S
C305 N301 1.334 . S
C305 C303 1.390 . S
C306 C303 1.339 . S
C306 C304 1.416 . S
C306 H313 0.930 . S
N307 Tb272 2.572 . S
N307 C308 1.340 . S
N307 C310 1.361 . S
C308 H294 0.930 . S
C308 N307 1.340 . S
C308 C312 1.407 . S
C309 C310 1.413 . S
C309 C311 1.416 . S
C309 C338 1.427 . S
C310 C302 1.424 . S
C310 N307 1.361 . S
C310 C309 1.413 . S
C311 H300 0.931 . S
C311 C309 1.416 . S
C311 C312 1.332 . S
C312 H291 0.929 . S
C312 C308 1.407 . S
C312 C311 1.332 . S
H313 C306 0.930 . S
H314 C337 0.930 . S
H315 C338 0.929 . S
O316 Tb272 2.465 . S
O316 C336 1.264 . S
O317 Tb272 2.387 . S
O317 C328 1.264 . S
O318 Tb283 2.349 . S
O318 C328 1.243 . S
O319 Tb272 2.428 . S
O319 C336 1.256 . S
O320 Tb272 2.308 . S
O320 C335 1.266 . S
O321 Tb283 2.393 . S
O321 C335 1.248 . S
O322 Tb283 2.465 . S
O322 C347 1.264 . S
O323 Tb283 2.387 . S
O323 C339 1.264 . S
O324 Tb272 2.349 . S
O324 C339 1.243 . S
O325 Tb283 2.428 . S
O325 C347 1.256 . S
O326 Tb283 2.308 . S
O326 C346 1.266 . S
O327 Tb272 2.393 . S
O327 C346 1.248 . S
C328 O317 1.264 . S
C328 O318 1.243 . S
C329 C332 1.399 . S
C329 C334 1.383 . S
C329 C336 1.496 . S
C330 C331 1.399 . S
C330 C334 1.389 . S
C331 C330 1.399 . S
C331 C333 1.380 . S
C331 H348 0.929 . S
C332 C329 1.399 . S
C332 C333 1.392 . S
C332 H349 0.929 . S
C333 C331 1.380 . S
C333 C332 1.392 . S
C333 H350 0.929 . S
C334 C329 1.383 . S
C334 C330 1.389 . S
C334 H351 0.931 . S
C335 O320 1.266 . S
C335 O321 1.248 . S
C336 Tb272 2.802 . S
C336 O316 1.264 . S
C336 O319 1.256 . S
C336 C329 1.496 . S
C337 C304 1.448 . S
C337 H314 0.930 . S
C337 C338 1.328 . S
C338 C309 1.427 . S
C338 H315 0.929 . S
C338 C337 1.328 . S
C339 O323 1.264 . S
C339 O324 1.243 . S
C340 C343 1.399 . S
C340 C344 1.383 . S
C340 C347 1.496 . S
C341 C342 1.399 . S
C341 C344 1.389 1_554 S
C342 C341 1.399 . S
C342 C345 1.380 1_554 S
C342 H352 0.929 . S
C343 C340 1.399 . S
C343 C345 1.392 . S
C343 H353 0.929 . S
C344 C340 1.383 . S
C344 C341 1.389 1_556 S
C344 H354 0.931 . S
C345 C342 1.380 1_556 S
C345 C343 1.392 . S
C345 H355 0.929 . S
C346 O326 1.266 . S
C346 O327 1.248 . S
C347 Tb283 2.802 . S
C347 O322 1.264 . S
C347 O325 1.256 . S
C347 C340 1.496 . S
H348 C331 0.929 . S
H349 C332 0.929 . S
H350 C333 0.929 . S
H351 C334 0.931 . S
H352 C342 0.929 . S
H353 C343 0.929 . S
H354 C344 0.931 . S
H355 C345 0.929 . S
Tb356 N385 2.617 . S
Tb356 N391 2.572 . S
Tb356 O400 2.465 . S
Tb356 O401 2.387 1_455 S
Tb356 O403 2.428 . S
Tb356 O404 2.308 . S
Tb356 O408 2.349 . S
Tb356 O411 2.393 . S
Tb356 C420 2.802 . S
C357 N358 1.379 . S
C357 C360 1.416 . S
C357 C364 1.424 . S
N358 C357 1.379 . S
N358 C361 1.334 1_455 S
N358 Tb367 2.617 1_455 S
C359 C361 1.389 1_455 S
C359 C362 1.339 . S
C359 H379 0.930 . S
C360 C357 1.416 . S
C360 C362 1.416 . S
C360 C366 1.448 1_556 S
C361 N358 1.334 1_655 S
C361 C359 1.389 1_655 S
C361 H372 0.931 . S
C362 C359 1.339 . S
C362 C360 1.416 . S
C362 H383 0.930 . S
C363 C364 1.413 1_554 S
C363 C365 1.427 . S
C363 C369 1.416 . S
C364 C357 1.424 . S
C364 C363 1.413 1_556 S
C364 N368 1.361 . S
C365 C363 1.427 . S
C365 C366 1.328 . S
C365 H380 0.929 . S
C366 C360 1.448 1_554 S
C366 C365 1.328 . S
C366 H381 0.930 . S
Tb367 N358 2.617 1_655 S
Tb367 N368 2.572 1_655 S
Tb367 O402 2.349 . S
Tb367 O405 2.393 . S
Tb367 O406 2.465 . S
Tb367 O407 2.387 1_655 S
Tb367 O409 2.428 . S
Tb367 O410 2.308 1_655 S
Tb367 C431 2.802 . S
N368 C364 1.361 . S
N368 Tb367 2.572 1_455 S
N368 C370 1.340 1_556 S
C369 C363 1.416 . S
C369 C371 1.332 . S
C369 H377 0.931 . S
C370 N368 1.340 1_554 S
C370 C371 1.407 . S
C370 H376 0.930 1_554 S
C371 C369 1.332 . S
C371 C370 1.407 . S
C371 H373 0.929 . S
H372 C361 0.931 . S
H373 C371 0.929 . S
H374 C389 0.930 . S
H375 C396 0.929 . S
H376 C370 0.930 1_556 S
H377 C369 0.931 . S
H378 C392 0.930 . S
H379 C359 0.930 . S
H380 C365 0.929 . S
H381 C366 0.930 . S
H382 C387 0.930 . S
H383 C362 0.930 . S
H384 C395 0.931 . S
N385 Tb356 2.617 . S
N385 C386 1.398 . S
N385 C389 1.334 . S
C386 N385 1.398 . S
C386 C388 1.402 1_455 S
C386 C394 1.420 1_455 S
C387 H382 0.930 . S
C387 C389 1.390 . S
C387 C390 1.339 1_455 S
C388 C386 1.402 1_655 S
C388 C390 1.416 . S
C388 C421 1.448 . S
C389 H374 0.930 . S
C389 N385 1.334 . S
C389 C387 1.390 . S
C390 C387 1.339 1_655 S
C390 C388 1.416 . S
C390 H397 0.930 . S
N391 Tb356 2.572 . S
N391 C392 1.340 . S
N391 C394 1.361 1_455 S
C392 H378 0.930 . S
C392 N391 1.340 . S
C392 C396 1.407 1_455 S
C393 C394 1.413 . S
C393 C395 1.416 . S
C393 C422 1.427 . S
C394 C386 1.420 1_655 S
C394 N391 1.361 1_655 S
C394 C393 1.413 . S
C395 H384 0.931 . S
C395 C393 1.416 . S
C395 C396 1.332 . S
C396 H375 0.929 . S
C396 C392 1.407 1_655 S
C396 C395 1.332 . S
H397 C390 0.930 . S
H398 C421 0.930 . S
H399 C422 0.929 . S
O400 Tb356 2.465 . S
O400 C420 1.264 . S
O401 Tb356 2.387 1_655 S
O401 C412 1.264 . S
O402 Tb367 2.349 . S
O402 C412 1.243 . S
O403 Tb356 2.428 . S
O403 C420 1.256 . S
O404 Tb356 2.308 . S
O404 C419 1.266 . S
O405 Tb367 2.393 . S
O405 C419 1.248 1_655 S
O406 Tb367 2.465 . S
O406 C431 1.264 . S
O407 Tb367 2.387 1_455 S
O407 C423 1.264 . S
O408 Tb356 2.349 . S
O408 C423 1.243 . S
O409 Tb367 2.428 . S
O409 C431 1.256 . S
O410 Tb367 2.308 1_455 S
O410 C430 1.266 . S
O411 Tb356 2.393 . S
O411 C430 1.248 . S
C412 O401 1.264 . S
C412 O402 1.243 . S
C413 C416 1.399 . S
C413 C418 1.383 . S
C413 C420 1.496 . S
C414 C415 1.399 . S
C414 C418 1.389 . S
C415 C414 1.399 . S
C415 C417 1.380 . S
C415 H432 0.929 . S
C416 C413 1.399 . S
C416 C417 1.392 . S
C416 H433 0.929 . S
C417 C415 1.380 . S
C417 C416 1.392 . S
C417 H434 0.929 . S
C418 C413 1.383 . S
C418 C414 1.389 . S
C418 H435 0.931 . S
C419 O404 1.266 . S
C419 O405 1.248 1_455 S
C420 Tb356 2.802 . S
C420 O400 1.264 . S
C420 O403 1.256 . S
C420 C413 1.496 . S
C421 C388 1.448 . S
C421 H398 0.930 . S
C421 C422 1.328 . S
C422 C393 1.427 . S
C422 H399 0.929 . S
C422 C421 1.328 . S
C423 O407 1.264 . S
C423 O408 1.243 . S
C424 C427 1.399 . S
C424 C428 1.383 . S
C424 C431 1.496 . S
C425 C426 1.399 . S
C425 C428 1.389 1_554 S
C426 C425 1.399 . S
C426 C429 1.380 1_554 S
C426 H436 0.929 . S
C427 C424 1.399 . S
C427 C429 1.392 . S
C427 H437 0.929 . S
C428 C424 1.383 . S
C428 C425 1.389 1_556 S
C428 H438 0.931 . S
C429 C426 1.380 1_556 S
C429 C427 1.392 . S
C429 H439 0.929 . S
C430 O410 1.266 . S
C430 O411 1.248 . S
C431 Tb367 2.802 . S
C431 O406 1.264 . S
C431 O409 1.256 . S
C431 C424 1.496 . S
H432 C415 0.929 . S
H433 C416 0.929 . S
H434 C417 0.929 . S
H435 C418 0.931 . S
H436 C426 0.929 . S
H437 C427 0.929 . S
H438 C428 0.931 . S
H439 C429 0.929 . S
C440 C441 1.391 . S
C440 C442 1.394 . S
C440 H456 0.931 . S
C441 C440 1.391 . S
C441 C445 1.376 . S
C442 C440 1.394 . S
C442 C443 1.369 . S
C442 C446 1.531 . S
C443 C442 1.369 . S
C443 C444 1.410 . S
C443 C451 1.503 . S
C444 C443 1.410 . S
C444 C445 1.392 . S
C444 C447 1.511 1_545 S
C445 C441 1.376 . S
C445 C444 1.392 . S
C445 H457 0.929 . S
C446 C442 1.531 . S
C446 H458 0.960 . S
C446 H459 0.962 . S
C446 H460 0.960 . S
C447 C444 1.511 1_565 S
C447 H461 0.961 . S
C447 H462 0.961 . S
C447 H463 0.961 . S
C448 C449 1.370 . S
C448 C450 1.363 . S
C448 H464 0.931 . S
C449 C448 1.370 . S
C449 C453 1.408 . S
C450 C448 1.363 . S
C450 C451 1.370 . S
C450 C454 1.524 . S
C451 C443 1.503 . S
C451 C450 1.370 . S
C451 C452 1.403 . S
C452 C451 1.403 . S
C452 C453 1.404 . S
C452 C455 1.539 1_545 S
C453 C449 1.408 . S
C453 C452 1.404 . S
C453 H465 0.930 1_545 S
C454 C450 1.524 . S
C454 H466 0.956 . S
C454 H467 0.961 . S
C454 H468 0.961 . S
C455 C452 1.539 1_565 S
C455 H469 0.958 . S
C455 H470 0.961 . S
C455 H471 0.960 . S
H456 C440 0.931 . S
H457 C445 0.929 . S
H458 C446 0.960 . S
H459 C446 0.962 . S
H460 C446 0.960 . S
H461 C447 0.961 . S
H462 C447 0.961 . S
H463 C447 0.961 . S
H464 C448 0.931 . S
H465 C453 0.930 1_565 S
H466 C454 0.956 . S
H467 C454 0.961 . S
H468 C454 0.961 . S
H469 C455 0.958 . S
H470 C455 0.961 . S
H471 C455 0.960 . S
C472 C473 1.391 . S
C472 C474 1.394 . S
C472 H488 0.931 . S
C473 C472 1.391 . S
C473 C477 1.376 . S
C474 C472 1.394 . S
C474 C475 1.369 . S
C474 C478 1.531 . S
C475 C474 1.369 . S
C475 C476 1.410 . S
C475 C483 1.503 . S
C476 C475 1.410 . S
C476 C477 1.392 . S
C476 C479 1.511 . S
C477 C473 1.376 . S
C477 C476 1.392 . S
C477 H489 0.929 . S
C478 C474 1.531 . S
C478 H490 0.960 . S
C478 H491 0.962 . S
C478 H492 0.960 . S
C479 C476 1.511 . S
C479 H493 0.961 . S
C479 H494 0.961 . S
C479 H495 0.961 . S
C480 C481 1.370 . S
C480 C482 1.363 . S
C480 H496 0.931 . S
C481 C480 1.370 . S
C481 C485 1.408 . S
C482 C480 1.363 . S
C482 C483 1.370 . S
C482 C486 1.524 . S
C483 C475 1.503 . S
C483 C482 1.370 . S
C483 C484 1.403 . S
C484 C483 1.403 . S
C484 C485 1.404 . S
C484 C487 1.539 . S
C485 C481 1.408 . S
C485 C484 1.404 . S
C485 H497 0.930 . S
C486 C482 1.524 . S
C486 H498 0.956 . S
C486 H499 0.961 . S
C486 H500 0.961 . S
C487 C484 1.539 . S
C487 H501 0.958 . S
C487 H502 0.961 . S
C487 H503 0.960 . S
H488 C472 0.931 . S
H489 C477 0.929 . S
H490 C478 0.960 . S
H491 C478 0.962 . S
H492 C478 0.960 . S
H493 C479 0.961 . S
H494 C479 0.961 . S
H495 C479 0.961 . S
H496 C480 0.931 . S
H497 C485 0.930 . S
H498 C486 0.956 . S
H499 C486 0.961 . S
H500 C486 0.961 . S
H501 C487 0.958 . S
H502 C487 0.961 . S
H503 C487 0.960 . S
C504 C505 1.391 . S
C504 C506 1.394 . S
C504 H520 0.931 . S
C505 C504 1.391 . S
C505 C509 1.376 . S
C506 C504 1.394 . S
C506 C507 1.369 . S
C506 C510 1.531 . S
C507 C506 1.369 . S
C507 C508 1.410 . S
C507 C515 1.503 . S
C508 C507 1.410 . S
C508 C509 1.392 . S
C508 C511 1.511 . S
C509 C505 1.376 . S
C509 C508 1.392 . S
C509 H521 0.929 . S
C510 C506 1.531 . S
C510 H522 0.960 . S
C510 H523 0.962 . S
C510 H524 0.960 . S
C511 C508 1.511 . S
C511 H525 0.961 . S
C511 H526 0.961 . S
C511 H527 0.961 . S
C512 C513 1.370 . S
C512 C514 1.363 . S
C512 H528 0.931 . S
C513 C512 1.370 . S
C513 C517 1.408 . S
C514 C512 1.363 . S
C514 C515 1.370 . S
C514 C518 1.524 . S
C515 C507 1.503 . S
C515 C514 1.370 . S
C515 C516 1.403 . S
C516 C515 1.403 . S
C516 C517 1.404 . S
C516 C519 1.539 . S
C517 C513 1.408 . S
C517 C516 1.404 . S
C517 H529 0.930 . S
C518 C514 1.524 . S
C518 H530 0.956 . S
C518 H531 0.961 . S
C518 H532 0.961 . S
C519 C516 1.539 . S
C519 H533 0.958 . S
C519 H534 0.961 . S
C519 H535 0.960 . S
H520 C504 0.931 . S
H521 C509 0.929 . S
H522 C510 0.960 . S
H523 C510 0.962 . S
H524 C510 0.960 . S
H525 C511 0.961 . S
H526 C511 0.961 . S
H527 C511 0.961 . S
H528 C512 0.931 . S
H529 C517 0.930 . S
H530 C518 0.956 . S
H531 C518 0.961 . S
H532 C518 0.961 . S
H533 C519 0.958 . S
H534 C519 0.961 . S
H535 C519 0.960 . S
C536 C537 1.391 . S
C536 C538 1.394 . S
C536 H552 0.931 1_455 S
C537 C536 1.391 . S
C537 C541 1.376 . S
C538 C536 1.394 . S
C538 C539 1.369 . S
C538 C542 1.531 1_455 S
C539 C538 1.369 . S
C539 C540 1.410 . S
C539 C547 1.503 . S
C540 C539 1.410 . S
C540 C541 1.392 . S
C540 C543 1.511 . S
C541 C537 1.376 . S
C541 C540 1.392 . S
C541 H553 0.929 . S
C542 C538 1.531 1_655 S
C542 H554 0.960 . S
C542 H555 0.962 . S
C542 H556 0.960 . S
C543 C540 1.511 . S
C543 H557 0.961 . S
C543 H558 0.961 . S
C543 H559 0.961 . S
C544 C545 1.370 . S
C544 C546 1.363 . S
C544 H560 0.931 . S
C545 C544 1.370 . S
C545 C549 1.408 . S
C546 C544 1.363 . S
C546 C547 1.370 . S
C546 C550 1.524 . S
C547 C539 1.503 . S
C547 C546 1.370 . S
C547 C548 1.403 . S
C548 C547 1.403 . S
C548 C549 1.404 . S
C548 C551 1.539 . S
C549 C545 1.408 . S
C549 C548 1.404 . S
C549 H561 0.930 . S
C550 C546 1.524 . S
C550 H562 0.956 1_455 S
C550 H563 0.961 . S
C550 H564 0.961 . S
C551 C548 1.539 . S
C551 H565 0.958 . S
C551 H566 0.961 . S
C551 H567 0.960 . S
H552 C536 0.931 1_655 S
H553 C541 0.929 . S
H554 C542 0.960 . S
H555 C542 0.962 . S
H556 C542 0.960 . S
H557 C543 0.961 . S
H558 C543 0.961 . S
H559 C543 0.961 . S
H560 C544 0.931 . S
H561 C549 0.930 . S
H562 C550 0.956 1_655 S
H563 C550 0.961 . S
H564 C550 0.961 . S
H565 C551 0.958 . S
H566 C551 0.961 . S
H567 C551 0.960 . S
C568 C569 1.391 . S
C568 C570 1.394 . S
C568 H584 0.931 . S
C569 C568 1.391 . S
C569 C573 1.376 . S
C570 C568 1.394 . S
C570 C571 1.369 . S
C570 C574 1.531 . S
C571 C570 1.369 . S
C571 C572 1.410 . S
C571 C579 1.503 . S
C572 C571 1.410 . S
C572 C573 1.392 . S
C572 C575 1.511 . S
C573 C569 1.376 . S
C573 C572 1.392 . S
C573 H585 0.929 . S
C574 C570 1.531 . S
C574 H586 0.960 . S
C574 H587 0.962 1_565 S
C574 H588 0.960 . S
C575 C572 1.511 . S
C575 H589 0.961 . S
C575 H590 0.961 1_554 S
C575 H591 0.961 1_554 S
C576 C577 1.380 . S
C576 C578 1.363 1_556 S
C576 H592 0.931 . S
C577 C576 1.380 . S
C577 C581 1.396 1_545 S
C578 C576 1.363 1_554 S
C578 C579 1.370 1_545 S
C578 C582 1.524 . S
C579 C571 1.503 . S
C579 C578 1.370 1_565 S
C579 C580 1.403 . S
C580 C579 1.403 . S
C580 C581 1.404 1_554 S
C580 C583 1.539 . S
C581 C577 1.396 1_565 S
C581 C580 1.404 1_556 S
C581 H593 0.930 . S
C582 C578 1.524 . S
C582 H594 0.956 . S
C582 H595 0.961 . S
C582 H596 0.961 . S
C583 C580 1.539 . S
C583 H597 0.958 . S
C583 H598 0.961 1_554 S
C583 H599 0.960 . S
H584 C568 0.931 . S
H585 C573 0.929 . S
H586 C574 0.960 . S
H587 C574 0.962 1_545 S
H588 C574 0.960 . S
H589 C575 0.961 . S
H590 C575 0.961 1_556 S
H591 C575 0.961 1_556 S
H592 C576 0.931 . S
H593 C581 0.930 . S
H594 C582 0.956 . S
H595 C582 0.961 . S
H596 C582 0.961 . S
H597 C583 0.958 . S
H598 C583 0.961 1_556 S
H599 C583 0.960 . S
C600 C601 1.391 . S
C600 C602 1.394 . S
C600 H616 0.931 . S
C601 C600 1.391 . S
C601 C605 1.376 . S
C602 C600 1.394 . S
C602 C603 1.369 . S
C602 C606 1.531 . S
C603 C602 1.369 . S
C603 C604 1.410 . S
C603 C611 1.503 . S
C604 C603 1.410 . S
C604 C605 1.392 . S
C604 C607 1.511 . S
C605 C601 1.376 . S
C605 C604 1.392 . S
C605 H617 0.929 . S
C606 C602 1.531 . S
C606 H618 0.960 . S
C606 H619 0.962 . S
C606 H620 0.960 . S
C607 C604 1.511 . S
C607 H621 0.961 . S
C607 H622 0.961 1_554 S
C607 H623 0.961 . S
C608 C609 1.370 . S
C608 C610 1.363 . S
C608 H624 0.931 . S
C609 C608 1.370 . S
C609 C613 1.408 . S
C610 C608 1.363 . S
C610 C611 1.370 1_556 S
C610 C614 1.524 . S
C611 C603 1.503 . S
C611 C610 1.370 1_554 S
C611 C612 1.403 . S
C612 C611 1.403 . S
C612 C613 1.404 1_554 S
C612 C615 1.539 . S
C613 C609 1.408 . S
C613 C612 1.404 1_556 S
C613 H625 0.930 . S
C614 C610 1.524 . S
C614 H626 0.956 1_556 S
C614 H627 0.961 . S
C614 H628 0.961 . S
C615 C612 1.539 . S
C615 H629 0.958 . S
C615 H630 0.961 . S
C615 H631 0.960 . S
H616 C600 0.931 . S
H617 C605 0.929 . S
H618 C606 0.960 . S
H619 C606 0.962 . S
H620 C606 0.960 . S
H621 C607 0.961 . S
H622 C607 0.961 1_556 S
H623 C607 0.961 . S
H624 C608 0.931 . S
H625 C613 0.930 . S
H626 C614 0.956 1_554 S
H627 C614 0.961 . S
H628 C614 0.961 . S
H629 C615 0.958 . S
H630 C615 0.961 . S
H631 C615 0.960 . S
C632 C633 1.391 . S
C632 C634 1.394 . S
C632 H648 0.931 . S
C633 C632 1.391 . S
C633 C637 1.376 . S
C634 C632 1.394 . S
C634 C635 1.369 . S
C634 C638 1.531 . S
C635 C634 1.369 . S
C635 C636 1.410 . S
C635 C643 1.503 . S
C636 C635 1.410 . S
C636 C637 1.392 . S
C636 C639 1.511 . S
C637 C633 1.376 . S
C637 C636 1.392 . S
C637 H649 0.929 . S
C638 C634 1.531 . S
C638 H650 0.960 1_554 S
C638 H651 0.962 1_554 S
C638 H652 0.960 . S
C639 C636 1.511 . S
C639 H653 0.961 . S
C639 H654 0.961 . S
C639 H655 0.961 . S
C640 C641 1.370 . S
C640 C642 1.363 1_556 S
C640 H656 0.931 . S
C641 C640 1.370 . S
C641 C645 1.408 . S
C642 C640 1.363 1_554 S
C642 C643 1.370 . S
C642 C646 1.524 . S
C643 C635 1.503 . S
C643 C642 1.370 . S
C643 C644 1.403 . S
C644 C643 1.403 . S
C644 C645 1.404 1_554 S
C644 C647 1.539 . S
C645 C641 1.408 . S
C645 C644 1.404 1_556 S
C645 H657 0.930 . S
C646 C642 1.524 . S
C646 H658 0.956 . S
C646 H659 0.961 . S
C646 H660 0.961 . S
C647 C644 1.539 . S
C647 H661 0.958 . S
C647 H662 0.961 . S
C647 H663 0.960 . S
H648 C632 0.931 . S
H649 C637 0.929 . S
H650 C638 0.960 1_556 S
H651 C638 0.962 1_556 S
H652 C638 0.960 . S
H653 C639 0.961 . S
H654 C639 0.961 . S
H655 C639 0.961 . S
H656 C640 0.931 . S
H657 C645 0.930 . S
H658 C646 0.956 . S
H659 C646 0.961 . S
H660 C646 0.961 . S
H661 C647 0.958 . S
H662 C647 0.961 . S
H663 C647 0.960 . S
C664 C665 1.391 . S
C664 C666 1.394 . S
C664 H680 0.931 . S
C665 C664 1.391 . S
C665 C669 1.376 1_655 S
C666 C664 1.394 . S
C666 C667 1.369 . S
C666 C670 1.531 . S
C667 C666 1.369 . S
C667 C668 1.410 1_655 S
C667 C675 1.503 . S
C668 C667 1.410 1_455 S
C668 C669 1.392 . S
C668 C671 1.511 . S
C669 C665 1.376 1_455 S
C669 C668 1.392 . S
C669 H681 0.929 . S
C670 C666 1.531 . S
C670 H682 0.948 1_554 S
C670 H683 0.962 . S
C670 H684 0.960 . S
C671 C668 1.511 . S
C671 H685 0.961 . S
C671 H686 0.961 . S
C671 H687 0.961 . S
C672 C673 1.377 . S
C672 C674 1.363 1_556 S
C672 H688 0.931 . S
C673 C672 1.377 . S
C673 C677 1.405 1_655 S
C674 C672 1.363 1_554 S
C674 C675 1.370 . S
C674 C678 1.524 . S
C675 C667 1.503 . S
C675 C674 1.370 . S
C675 C676 1.403 1_654 S
C676 C675 1.403 1_456 S
C676 C677 1.404 . S
C676 C679 1.539 . S
C677 C673 1.405 1_455 S
C677 C676 1.404 . S
C677 H689 0.930 . S
C678 C674 1.524 . S
C678 H690 0.956 . S
C678 H691 0.961 . S
C678 H692 0.961 . S
C679 C676 1.539 . S
C679 H693 0.958 1_455 S
C679 H694 0.961 . S
C679 H695 0.960 . S
H680 C664 0.931 . S
H681 C669 0.929 . S
H682 C670 0.948 1_556 S
H683 C670 0.962 . S
H684 C670 0.960 . S
H685 C671 0.961 . S
H686 C671 0.961 . S
H687 C671 0.961 . S
H688 C672 0.931 . S
H689 C677 0.930 . S
H690 C678 0.956 . S
H691 C678 0.961 . S
H692 C678 0.961 . S
H693 C679 0.958 1_655 S
H694 C679 0.961 . S
H695 C679 0.960 . S
C696 C697 1.391 . S
C696 C698 1.394 . S
C696 H712 0.913 1_455 S
C697 C696 1.391 . S
C697 C701 1.376 . S
C698 C696 1.394 . S
C698 C699 1.369 . S
C698 C702 1.531 1_455 S
C699 C698 1.369 . S
C699 C700 1.410 . S
C699 C707 1.503 . S
C700 C699 1.410 . S
C700 C701 1.392 . S
C700 C703 1.511 . S
C701 C697 1.376 . S
C701 C700 1.392 . S
C701 H713 0.929 . S
C702 C698 1.531 1_655 S
C702 H714 0.960 . S
C702 H715 0.962 . S
C702 H716 0.960 . S
C703 C700 1.511 . S
C703 H717 0.961 . S
C703 H718 0.961 . S
C703 H719 0.961 . S
C704 C705 1.370 1_655 S
C704 C706 1.363 1_655 S
C704 H720 0.931 . S
C705 C704 1.370 1_455 S
C705 C709 1.408 . S
C706 C704 1.363 1_455 S
C706 C707 1.370 . S
C706 C710 1.524 1_455 S
C707 C699 1.503 . S
C707 C706 1.370 . S
C707 C708 1.403 . S
C708 C707 1.403 . S
C708 C709 1.404 . S
C708 C711 1.539 . S
C709 C705 1.408 . S
C709 C708 1.404 . S
C709 H721 0.930 . S
C710 C706 1.524 1_655 S
C710 H722 0.956 . S
C710 H723 0.961 1_655 S
C710 H724 0.961 . S
C711 C708 1.539 . S
C711 H725 0.958 . S
C711 H726 0.961 . S
C711 H727 0.960 . S
H712 C696 0.913 1_655 S
H713 C701 0.929 . S
H714 C702 0.960 . S
H715 C702 0.962 . S
H716 C702 0.960 . S
H717 C703 0.961 . S
H718 C703 0.961 . S
H719 C703 0.961 . S
H720 C704 0.931 . S
H721 C709 0.930 . S
H722 C710 0.956 . S
H723 C710 0.961 1_455 S
H724 C710 0.961 . S
H725 C711 0.958 . S
H726 C711 0.961 . S
H727 C711 0.960 . S
C728 C729 1.391 . S
C728 C730 1.394 . S
C728 H744 0.931 . S
C729 C728 1.391 . S
C729 C733 1.376 . S
C730 C728 1.394 . S
C730 C731 1.369 . S
C730 C734 1.531 . S
C731 C730 1.369 . S
C731 C732 1.410 . S
C731 C739 1.503 . S
C732 C731 1.410 . S
C732 C733 1.392 . S
C732 C735 1.511 1_545 S
C733 C729 1.376 . S
C733 C732 1.392 . S
C733 H745 0.929 . S
C734 C730 1.531 . S
C734 H746 0.960 . S
C734 H747 0.962 . S
C734 H748 0.960 . S
C735 C732 1.511 1_565 S
C735 H749 0.961 . S
C735 H750 0.961 . S
C735 H751 0.961 . S
C736 C737 1.370 . S
C736 C738 1.363 . S
C736 H752 0.931 . S
C737 C736 1.370 . S
C737 C741 1.408 1_545 S
C738 C736 1.363 . S
C738 C739 1.370 . S
C738 C742 1.524 . S
C739 C731 1.503 . S
C739 C738 1.370 . S
C739 C740 1.403 . S
C740 C739 1.403 . S
C740 C741 1.404 1_545 S
C740 C743 1.539 1_545 S
C741 C737 1.408 1_565 S
C741 C740 1.404 1_565 S
C741 H753 0.930 . S
C742 C738 1.524 . S
C742 H754 0.956 . S
C742 H755 0.961 . S
C742 H756 0.961 . S
C743 C740 1.539 1_565 S
C743 H757 0.958 1_565 S
C743 H758 0.961 . S
C743 H759 0.960 . S
H744 C728 0.931 . S
H745 C733 0.929 . S
H746 C734 0.960 . S
H747 C734 0.962 . S
H748 C734 0.960 . S
H749 C735 0.961 . S
H750 C735 0.961 . S
H751 C735 0.961 . S
H752 C736 0.931 . S
H753 C741 0.930 . S
H754 C742 0.956 . S
H755 C742 0.961 . S
H756 C742 0.961 . S
H757 C743 0.958 1_545 S
H758 C743 0.961 . S
H759 C743 0.960 . S
C760 C761 1.391 . S
C760 C762 1.394 . S
C760 H776 0.931 . S
C761 C760 1.391 . S
C761 C765 1.376 . S
C762 C760 1.394 . S
C762 C763 1.369 . S
C762 C766 1.531 . S
C763 C762 1.369 . S
C763 C764 1.410 . S
C763 C771 1.503 . S
C764 C763 1.410 . S
C764 C765 1.392 . S
C764 C767 1.511 . S
C765 C761 1.376 . S
C765 C764 1.392 . S
C765 H777 0.929 . S
C766 C762 1.531 . S
C766 H778 0.960 . S
C766 H779 0.962 . S
C766 H780 0.960 . S
C767 C764 1.511 . S
C767 H781 0.961 . S
C767 H782 0.961 . S
C767 H783 0.961 . S
C768 C769 1.370 . S
C768 C770 1.363 . S
C768 H784 0.931 . S
C769 C768 1.370 . S
C769 C773 1.408 . S
C770 C768 1.363 . S
C770 C771 1.370 . S
C770 C774 1.524 . S
C771 C763 1.503 . S
C771 C770 1.370 . S
C771 C772 1.403 . S
C772 C771 1.403 . S
C772 C773 1.404 . S
C772 C775 1.539 . S
C773 C769 1.408 . S
C773 C772 1.404 . S
C773 H785 0.930 . S
C774 C770 1.524 . S
C774 H786 0.956 . S
C774 H787 0.961 . S
C774 H788 0.961 . S
C775 C772 1.539 . S
C775 H789 0.958 . S
C775 H790 0.961 . S
C775 H791 0.960 . S
H776 C760 0.931 . S
H777 C765 0.929 . S
H778 C766 0.960 . S
H779 C766 0.962 . S
H780 C766 0.960 . S
H781 C767 0.961 . S
H782 C767 0.961 . S
H783 C767 0.961 . S
H784 C768 0.931 . S
H785 C773 0.930 . S
H786 C774 0.956 . S
H787 C774 0.961 . S
H788 C774 0.961 . S
H789 C775 0.958 . S
H790 C775 0.961 . S
H791 C775 0.960 . S
C792 C793 1.391 . S
C792 C794 1.394 . S
C792 H808 0.931 . S
C793 C792 1.391 . S
C793 C797 1.376 . S
C794 C792 1.394 . S
C794 C795 1.369 . S
C794 C798 1.531 . S
C795 C794 1.369 . S
C795 C796 1.410 . S
C795 C803 1.503 . S
C796 C795 1.410 . S
C796 C797 1.392 . S
C796 C799 1.511 . S
C797 C793 1.376 . S
C797 C796 1.392 . S
C797 H809 0.929 . S
C798 C794 1.531 . S
C798 H810 0.960 . S
C798 H811 0.962 . S
C798 H812 0.960 . S
C799 C796 1.511 . S
C799 H813 0.961 . S
C799 H814 0.961 . S
C799 H815 0.961 . S
C800 C801 1.370 . S
C800 C802 1.363 . S
C800 H816 0.931 . S
C801 C800 1.370 . S
C801 C805 1.408 . S
C802 C800 1.363 . S
C802 C803 1.370 . S
C802 C806 1.524 . S
C803 C795 1.503 . S
C803 C802 1.370 . S
C803 C804 1.403 . S
C804 C803 1.403 . S
C804 C805 1.404 . S
C804 C807 1.539 . S
C805 C801 1.408 . S
C805 C804 1.404 . S
C805 H817 0.930 . S
C806 C802 1.524 . S
C806 H818 0.956 . S
C806 H819 0.961 . S
C806 H820 0.961 . S
C807 C804 1.539 . S
C807 H821 0.958 . S
C807 H822 0.961 . S
C807 H823 0.960 . S
H808 C792 0.931 . S
H809 C797 0.929 . S
H810 C798 0.960 . S
H811 C798 0.962 . S
H812 C798 0.960 . S
H813 C799 0.961 . S
H814 C799 0.961 . S
H815 C799 0.961 . S
H816 C800 0.931 . S
H817 C805 0.930 . S
H818 C806 0.956 . S
H819 C806 0.961 . S
H820 C806 0.961 . S
H821 C807 0.958 . S
H822 C807 0.961 . S
H823 C807 0.960 . S
C824 C825 1.391 1_455 S
C824 C826 1.394 . S
C824 H840 0.931 . S
C825 C824 1.391 1_655 S
C825 C829 1.376 . S
C826 C824 1.394 . S
C826 C827 1.369 1_455 S
C826 C830 1.531 . S
C827 C826 1.369 1_655 S
C827 C828 1.410 . S
C827 C835 1.514 . S
C828 C827 1.410 . S
C828 C829 1.392 . S
C828 C831 1.511 . S
C829 C825 1.376 . S
C829 C828 1.392 . S
C829 H841 0.929 . S
C830 C826 1.531 . S
C830 H842 0.960 . S
C830 H843 0.962 . S
C830 H844 0.960 . S
C831 C828 1.511 . S
C831 H845 0.961 . S
C831 H846 0.961 . S
C831 H847 0.961 . S
C832 C833 1.370 . S
C832 C834 1.363 . S
C832 H848 0.931 . S
C833 C832 1.370 . S
C833 C837 1.408 1_455 S
C834 C832 1.363 . S
C834 C835 1.347 1_455 S
C834 C838 1.524 . S
C835 C827 1.514 . S
C835 C834 1.347 1_655 S
C835 C836 1.416 . S
C836 C835 1.416 . S
C836 C837 1.404 . S
C836 C839 1.539 . S
C837 C833 1.408 1_655 S
C837 C836 1.404 . S
C837 H849 0.930 1_554 S
C838 C834 1.524 . S
C838 H850 0.956 . S
C838 H851 0.961 . S
C838 H852 0.961 . S
C839 C836 1.539 . S
C839 H853 0.958 1_554 S
C839 H854 0.961 1_554 S
C839 H855 0.960 . S
H840 C824 0.931 . S
H841 C829 0.929 . S
H842 C830 0.960 . S
H843 C830 0.962 . S
H844 C830 0.960 . S
H845 C831 0.961 . S
H846 C831 0.961 . S
H847 C831 0.961 . S
H848 C832 0.931 . S
H849 C837 0.930 1_556 S
H850 C838 0.956 . S
H851 C838 0.961 . S
H852 C838 0.961 . S
H853 C839 0.958 1_556 S
H854 C839 0.961 1_556 S
H855 C839 0.960 . S
C856 C857 1.391 1_545 S
C856 C858 1.394 . S
C856 H872 0.931 . S
C857 C856 1.391 1_565 S
C857 C861 1.376 . S
C858 C856 1.394 . S
C858 C859 1.369 1_545 S
C858 C862 1.531 . S
C859 C858 1.369 1_565 S
C859 C860 1.410 . S
C859 C867 1.503 1_565 S
C860 C859 1.410 . S
C860 C861 1.392 . S
C860 C863 1.511 . S
C861 C857 1.376 . S
C861 C860 1.392 . S
C861 H873 0.929 . S
C862 C858 1.531 . S
C862 H874 0.960 . S
C862 H875 0.962 . S
C862 H876 0.960 . S
C863 C860 1.511 . S
C863 H877 0.961 . S
C863 H878 0.961 . S
C863 H879 0.961 . S
C864 C865 1.370 . S
C864 C866 1.363 . S
C864 H880 0.931 . S
C865 C864 1.370 . S
C865 C869 1.408 . S
C866 C864 1.363 . S
C866 C867 1.370 . S
C866 C870 1.518 1_545 S
C867 C859 1.503 1_545 S
C867 C866 1.370 . S
C867 C868 1.403 . S
C868 C867 1.403 . S
C868 C869 1.404 . S
C868 C871 1.539 1_554 S
C869 C865 1.408 . S
C869 C868 1.404 . S
C869 H881 0.930 1_554 S
C870 C866 1.518 1_565 S
C870 H882 0.934 1_565 S
C870 H883 0.989 . S
C870 H884 0.961 . S
C871 C868 1.539 1_556 S
C871 H885 0.958 . S
C871 H886 0.961 . S
C871 H887 0.960 1_546 S
H872 C856 0.931 . S
H873 C861 0.929 . S
H874 C862 0.960 . S
H875 C862 0.962 . S
H876 C862 0.960 . S
H877 C863 0.961 . S
H878 C863 0.961 . S
H879 C863 0.961 . S
H880 C864 0.931 . S
H881 C869 0.930 1_556 S
H882 C870 0.934 1_545 S
H883 C870 0.989 . S
H884 C870 0.961 . S
H885 C871 0.958 . S
H886 C871 0.961 . S
H887 C871 0.960 1_564 S
C888 C889 1.391 . S
C888 C890 1.394 . S
C888 H904 0.931 . S
C889 C888 1.391 . S
C889 C893 1.376 . S
C890 C888 1.394 . S
C890 C891 1.369 . S
C890 C894 1.531 . S
C891 C890 1.369 . S
C891 C892 1.410 . S
C891 C899 1.503 . S
C892 C891 1.410 . S
C892 C893 1.392 . S
C892 C895 1.511 . S
C893 C889 1.376 . S
C893 C892 1.392 . S
C893 H905 0.929 . S
C894 C890 1.531 . S
C894 H906 0.960 . S
C894 H907 0.962 . S
C894 H908 0.960 . S
C895 C892 1.511 . S
C895 H909 0.961 . S
C895 H910 0.961 . S
C895 H911 0.961 . S
C896 C897 1.370 . S
C896 C898 1.363 . S
C896 H912 0.931 . S
C897 C896 1.370 . S
C897 C901 1.408 . S
C898 C896 1.363 . S
C898 C899 1.370 . S
C898 C902 1.524 . S
C899 C891 1.503 . S
C899 C898 1.370 . S
C899 C900 1.403 . S
C900 C899 1.403 . S
C900 C901 1.404 . S
C900 C903 1.539 1_554 S
C901 C897 1.408 . S
C901 C900 1.404 . S
C901 H913 0.930 1_554 S
C902 C898 1.524 . S
C902 H914 0.956 . S
C902 H915 0.961 . S
C902 H916 0.961 . S
C903 C900 1.539 1_556 S
C903 H917 0.958 . S
C903 H918 0.961 . S
C903 H919 0.960 1_556 S
H904 C888 0.931 . S
H905 C893 0.929 . S
H906 C894 0.960 . S
H907 C894 0.962 . S
H908 C894 0.960 . S
H909 C895 0.961 . S
H910 C895 0.961 . S
H911 C895 0.961 . S
H912 C896 0.931 . S
H913 C901 0.930 1_556 S
H914 C902 0.956 . S
H915 C902 0.961 . S
H916 C902 0.961 . S
H917 C903 0.958 . S
H918 C903 0.961 . S
H919 C903 0.960 1_554 S
C920 C921 1.391 . S
C920 C922 1.394 . S
C920 H936 0.931 . S
C921 C920 1.391 . S
C921 C925 1.376 . S
C922 C920 1.394 . S
C922 C923 1.369 . S
C922 C926 1.531 . S
C923 C922 1.369 . S
C923 C924 1.410 . S
C923 C931 1.503 . S
C924 C923 1.410 . S
C924 C925 1.392 . S
C924 C927 1.511 . S
C925 C921 1.376 . S
C925 C924 1.392 . S
C925 H937 0.929 . S
C926 C922 1.531 . S
C926 H938 0.960 . S
C926 H939 0.962 . S
C926 H940 0.960 . S
C927 C924 1.511 . S
C927 H941 0.961 . S
C927 H942 0.961 . S
C927 H943 0.961 . S
C928 C929 1.370 . S
C928 C930 1.363 . S
C928 H944 0.931 1_554 S
C929 C928 1.370 . S
C929 C933 1.408 . S
C930 C928 1.363 . S
C930 C931 1.370 . S
C930 C934 1.524 . S
C931 C923 1.503 . S
C931 C930 1.370 . S
C931 C932 1.403 . S
C932 C931 1.403 . S
C932 C933 1.404 . S
C932 C935 1.539 . S
C933 C929 1.408 . S
C933 C932 1.404 . S
C933 H945 0.930 . S
C934 C930 1.524 . S
C934 H946 0.956 . S
C934 H947 0.961 . S
C934 H948 0.961 1_554 S
C935 C932 1.539 . S
C935 H949 0.958 . S
C935 H950 0.961 . S
C935 H951 0.960 . S
H936 C920 0.931 . S
H937 C925 0.929 . S
H938 C926 0.960 . S
H939 C926 0.962 . S
H940 C926 0.960 . S
H941 C927 0.961 . S
H942 C927 0.961 . S
H943 C927 0.961 . S
H944 C928 0.931 1_556 S
H945 C933 0.930 . S
H946 C934 0.956 . S
H947 C934 0.961 . S
H948 C934 0.961 1_556 S
H949 C935 0.958 . S
H950 C935 0.961 . S
H951 C935 0.960 . S
C952 C953 1.391 . S
C952 C954 1.394 . S
C952 H968 0.931 . S
C953 C952 1.391 . S
C953 C957 1.376 . S
C954 C952 1.394 . S
C954 C955 1.369 . S
C954 C958 1.531 . S
C955 C954 1.369 . S
C955 C956 1.410 . S
C955 C963 1.503 . S
C956 C955 1.410 . S
C956 C957 1.392 . S
C956 C959 1.511 1_556 S
C957 C953 1.376 . S
C957 C956 1.392 . S
C957 H969 0.929 1_556 S
C958 C954 1.531 . S
C958 H970 0.960 . S
C958 H971 0.962 1_455 S
C958 H972 0.960 . S
C959 C956 1.511 1_554 S
C959 H973 0.961 . S
C959 H974 0.961 . S
C959 H975 0.961 1_554 S
C960 C961 1.370 . S
C960 C962 1.363 . S
C960 H976 0.931 1_455 S
C961 C960 1.370 . S
C961 C965 1.408 . S
C962 C960 1.363 . S
C962 C963 1.370 . S
C962 C966 1.524 1_455 S
C963 C955 1.503 . S
C963 C962 1.370 . S
C963 C964 1.403 . S
C964 C963 1.403 . S
C964 C965 1.404 . S
C964 C967 1.539 . S
C965 C961 1.408 . S
C965 C964 1.404 . S
C965 H977 0.930 . S
C966 C962 1.524 1_655 S
C966 H978 0.956 . S
C966 H979 0.960 . S
C966 H980 0.961 . S
C967 C964 1.539 . S
C967 H981 0.958 . S
C967 H982 0.961 . S
C967 H983 0.960 . S
H968 C952 0.931 . S
H969 C957 0.929 1_554 S
H970 C958 0.960 . S
H971 C958 0.962 1_655 S
H972 C958 0.960 . S
H973 C959 0.961 . S
H974 C959 0.961 . S
H975 C959 0.961 1_556 S
H976 C960 0.931 1_655 S
H977 C965 0.930 . S
H978 C966 0.956 . S
H979 C966 0.960 . S
H980 C966 0.961 . S
H981 C967 0.958 . S
H982 C967 0.961 . S
H983 C967 0.960 . S
C984 C985 1.391 . S
C984 C986 1.394 . S
C984 H1000 0.931 . S
C985 C984 1.391 . S
C985 C989 1.376 1_556 S
C986 C984 1.394 . S
C986 C987 1.369 . S
C986 C990 1.531 . S
C987 C986 1.369 . S
C987 C988 1.410 . S
C987 C995 1.503 . S
C988 C987 1.410 . S
C988 C989 1.392 1_556 S
C988 C991 1.511 1_556 S
C989 C985 1.376 1_554 S
C989 C988 1.392 1_554 S
C989 H1001 0.929 . S
C990 C986 1.531 . S
C990 H1002 0.960 . S
C990 H1003 0.962 . S
C990 H1004 0.960 . S
C991 C988 1.511 1_554 S
C991 H1005 0.961 . S
C991 H1006 0.961 . S
C991 H1007 0.961 . S
C992 C993 1.370 . S
C992 C994 1.363 . S
C992 H1008 0.931 1_545 S
C993 C992 1.370 . S
C993 C997 1.408 . S
C994 C992 1.363 . S
C994 C995 1.370 . S
C994 C998 1.524 1_545 S
C995 C987 1.503 . S
C995 C994 1.370 . S
C995 C996 1.403 . S
C996 C995 1.403 . S
C996 C997 1.404 . S
C996 C999 1.539 . S
C997 C993 1.408 . S
C997 C996 1.404 . S
C997 H1009 0.930 . S
C998 C994 1.524 1_565 S
C998 H1010 0.956 . S
C998 H1011 0.961 . S
C998 H1012 0.961 . S
C999 C996 1.539 . S
C999 H1013 0.958 . S
C999 H1014 0.961 . S
C999 H1015 0.960 . S
H1000 C984 0.931 . S
H1001 C989 0.929 . S
H1002 C990 0.960 . S
H1003 C990 0.962 . S
H1004 C990 0.960 . S
H1005 C991 0.961 . S
H1006 C991 0.961 . S
H1007 C991 0.961 . S
H1008 C992 0.931 1_565 S
H1009 C997 0.930 . S
H1010 C998 0.956 . S
H1011 C998 0.961 . S
H1012 C998 0.961 . S
H1013 C999 0.958 . S
H1014 C999 0.961 . S
H1015 C999 0.960 . S
C1016 C1017 1.391 . S
C1016 C1018 1.394 . S
C1016 H1032 0.931 . S
C1017 C1016 1.391 . S
C1017 C1021 1.376 1_556 S
C1018 C1016 1.394 . S
C1018 C1019 1.369 . S
C1018 C1022 1.531 . S
C1019 C1018 1.369 . S
C1019 C1020 1.410 . S
C1019 C1027 1.503 . S
C1020 C1019 1.410 . S
C1020 C1021 1.392 1_556 S
C1020 C1023 1.511 1_556 S
C1021 C1017 1.376 1_554 S
C1021 C1020 1.392 1_554 S
C1021 H1033 0.929 . S
C1022 C1018 1.531 . S
C1022 H1034 0.960 . S
C1022 H1035 0.962 . S
C1022 H1036 0.960 . S
C1023 C1020 1.511 1_554 S
C1023 H1037 0.961 . S
C1023 H1038 0.961 . S
C1023 H1039 0.961 . S
C1024 C1025 1.370 . S
C1024 C1026 1.363 . S
C1024 H1040 0.931 . S
C1025 C1024 1.370 . S
C1025 C1029 1.408 . S
C1026 C1024 1.363 . S
C1026 C1027 1.370 . S
C1026 C1030 1.524 . S
C1027 C1019 1.503 . S
C1027 C1026 1.370 . S
C1027 C1028 1.403 . S
C1028 C1027 1.403 . S
C1028 C1029 1.404 . S
C1028 C1031 1.539 . S
C1029 C1025 1.408 . S
C1029 C1028 1.404 . S
C1029 H1041 0.930 . S
C1030 C1026 1.524 . S
C1030 H1042 0.956 . S
C1030 H1043 0.961 . S
C1030 H1044 0.961 . S
C1031 C1028 1.539 . S
C1031 H1045 0.958 . S
C1031 H1046 0.961 . S
C1031 H1047 0.960 . S
H1032 C1016 0.931 . S
H1033 C1021 0.929 . S
H1034 C1022 0.960 . S
H1035 C1022 0.962 . S
H1036 C1022 0.960 . S
H1037 C1023 0.961 . S
H1038 C1023 0.961 . S
H1039 C1023 0.961 . S
H1040 C1024 0.931 . S
H1041 C1029 0.930 . S
H1042 C1030 0.956 . S
H1043 C1030 0.961 . S
H1044 C1030 0.961 . S
H1045 C1031 0.958 . S
H1046 C1031 0.961 . S
H1047 C1031 0.960 . S
C1048 C1049 1.391 1_554 S
C1048 C1050 1.394 1_554 S
C1048 H1064 0.931 . S
C1049 C1048 1.391 1_556 S
C1049 C1053 1.376 . S
C1050 C1048 1.394 1_556 S
C1050 C1051 1.369 . S
C1050 C1054 1.531 1_556 S
C1051 C1050 1.369 . S
C1051 C1052 1.410 . S
C1051 C1059 1.503 . S
C1052 C1051 1.410 . S
C1052 C1053 1.392 . S
C1052 C1055 1.511 . S
C1053 C1049 1.376 . S
C1053 C1052 1.392 . S
C1053 H1065 0.929 . S
C1054 C1050 1.531 1_554 S
C1054 H1066 0.960 . S
C1054 H1067 0.962 . S
C1054 H1068 0.960 . S
C1055 C1052 1.511 . S
C1055 H1069 0.961 . S
C1055 H1070 0.961 . S
C1055 H1071 0.961 . S
C1056 C1057 1.370 . S
C1056 C1058 1.363 . S
C1056 H1072 0.931 . S
C1057 C1056 1.370 . S
C1057 C1061 1.408 . S
C1058 C1056 1.363 . S
C1058 C1059 1.370 . S
C1058 C1062 1.524 . S
C1059 C1051 1.503 . S
C1059 C1058 1.370 . S
C1059 C1060 1.403 . S
C1060 C1059 1.403 . S
C1060 C1061 1.404 . S
C1060 C1063 1.539 . S
C1061 C1057 1.408 . S
C1061 C1060 1.404 . S
C1061 H1073 0.930 . S
C1062 C1058 1.524 . S
C1062 H1074 0.956 . S
C1062 H1075 0.961 . S
C1062 H1076 0.961 . S
C1063 C1060 1.539 . S
C1063 H1077 0.958 . S
C1063 H1078 0.961 . S
C1063 H1079 0.960 . S
H1064 C1048 0.931 . S
H1065 C1053 0.929 . S
H1066 C1054 0.960 . S
H1067 C1054 0.962 . S
H1068 C1054 0.960 . S
H1069 C1055 0.961 . S
H1070 C1055 0.961 . S
H1071 C1055 0.961 . S
H1072 C1056 0.931 . S
H1073 C1061 0.930 . S
H1074 C1062 0.956 . S
H1075 C1062 0.961 . S
H1076 C1062 0.961 . S
H1077 C1063 0.958 . S
H1078 C1063 0.961 . S
H1079 C1063 0.960 . S
C1080 C1081 1.391 . S
C1080 C1082 1.394 . S
C1080 H1096 0.931 . S
C1081 C1080 1.391 . S
C1081 C1085 1.376 1_655 S
C1082 C1080 1.394 . S
C1082 C1083 1.369 . S
C1082 C1086 1.531 . S
C1083 C1082 1.369 . S
C1083 C1084 1.410 1_655 S
C1083 C1091 1.503 . S
C1084 C1083 1.410 1_455 S
C1084 C1085 1.392 . S
C1084 C1087 1.511 . S
C1085 C1081 1.376 1_455 S
C1085 C1084 1.392 . S
C1085 H1097 0.929 . S
C1086 C1082 1.531 . S
C1086 H1098 0.960 . S
C1086 H1099 0.962 . S
C1086 H1100 0.960 . S
C1087 C1084 1.511 . S
C1087 H1101 0.961 . S
C1087 H1102 0.961 . S
C1087 H1103 0.961 . S
C1088 C1089 1.370 . S
C1088 C1090 1.363 . S
C1088 H1104 0.931 . S
C1089 C1088 1.370 . S
C1089 C1093 1.408 . S
C1090 C1088 1.363 . S
C1090 C1091 1.370 . S
C1090 C1094 1.530 . S
C1091 C1083 1.503 . S
C1091 C1090 1.370 . S
C1091 C1092 1.403 . S
C1092 C1091 1.403 . S
C1092 C1093 1.404 . S
C1092 C1095 1.539 . S
C1093 C1089 1.408 . S
C1093 C1092 1.404 . S
C1093 H1105 0.930 . S
C1094 C1090 1.530 . S
C1094 H1106 0.991 . S
C1094 H1107 0.932 1_655 S
C1094 H1108 0.950 1_655 S
C1095 C1092 1.539 . S
C1095 H1109 0.958 . S
C1095 H1110 0.961 . S
C1095 H1111 0.960 . S
H1096 C1080 0.931 . S
H1097 C1085 0.929 . S
H1098 C1086 0.960 . S
H1099 C1086 0.962 . S
H1100 C1086 0.960 . S
H1101 C1087 0.961 . S
H1102 C1087 0.961 . S
H1103 C1087 0.961 . S
H1104 C1088 0.931 . S
H1105 C1093 0.930 . S
H1106 C1094 0.991 . S
H1107 C1094 0.932 1_455 S
H1108 C1094 0.950 1_455 S
H1109 C1095 0.958 . S
H1110 C1095 0.961 . S
H1111 C1095 0.960 . S
C1112 C1113 1.391 . S
C1112 C1114 1.394 . S
C1112 H1128 0.931 . S
C1113 C1112 1.391 . S
C1113 C1117 1.376 . S
C1114 C1112 1.394 . S
C1114 C1115 1.369 . S
C1114 C1118 1.531 . S
C1115 C1114 1.369 . S
C1115 C1116 1.428 . S
C1115 C1123 1.503 . S
C1116 C1115 1.428 . S
C1116 C1117 1.394 . S
C1116 C1119 1.492 1_565 S
C1117 C1113 1.376 . S
C1117 C1116 1.394 . S
C1117 H1129 0.929 1_565 S
C1118 C1114 1.531 . S
C1118 H1130 0.960 . S
C1118 H1131 0.962 . S
C1118 H1132 0.960 . S
C1119 C1116 1.492 1_545 S
C1119 H1133 0.961 . S
C1119 H1134 0.961 . S
C1119 H1135 0.961 . S
C1120 C1121 1.370 1_545 S
C1120 C1122 1.363 . S
C1120 H1136 0.931 . S
C1121 C1120 1.370 1_565 S
C1121 C1125 1.408 . S
C1122 C1120 1.363 . S
C1122 C1123 1.370 1_545 S
C1122 C1126 1.524 . S
C1123 C1115 1.503 . S
C1123 C1122 1.370 1_565 S
C1123 C1124 1.403 . S
C1124 C1123 1.403 . S
C1124 C1125 1.404 . S
C1124 C1127 1.539 . S
C1125 C1121 1.408 . S
C1125 C1124 1.404 . S
C1125 H1137 0.930 . S
C1126 C1122 1.524 . S
C1126 H1138 0.956 . S
C1126 H1139 0.961 . S
C1126 H1140 0.961 . S
C1127 C1124 1.539 . S
C1127 H1141 0.958 . S
C1127 H1142 0.961 . S
C1127 H1143 0.960 . S
H1128 C1112 0.931 . S
H1129 C1117 0.929 1_545 S
H1130 C1118 0.960 . S
H1131 C1118 0.962 . S
H1132 C1118 0.960 . S
H1133 C1119 0.961 . S
H1134 C1119 0.961 . S
H1135 C1119 0.961 . S
H1136 C1120 0.931 . S
H1137 C1125 0.930 . S
H1138 C1126 0.956 . S
H1139 C1126 0.961 . S
H1140 C1126 0.961 . S
H1141 C1127 0.958 . S
H1142 C1127 0.961 . S
H1143 C1127 0.960 . S
C1144 C1145 1.391 . S
C1144 C1146 1.394 . S
C1144 H1160 0.931 . S
C1145 C1144 1.391 . S
C1145 C1149 1.376 . S
C1146 C1144 1.394 . S
C1146 C1147 1.369 . S
C1146 C1150 1.531 . S
C1147 C1146 1.369 . S
C1147 C1148 1.410 . S
C1147 C1155 1.503 . S
C1148 C1147 1.410 . S
C1148 C1149 1.392 . S
C1148 C1151 1.511 . S
C1149 C1145 1.376 . S
C1149 C1148 1.392 . S
C1149 H1161 0.929 . S
C1150 C1146 1.531 . S
C1150 H1162 0.960 . S
C1150 H1163 0.962 . S
C1150 H1164 0.960 . S
C1151 C1148 1.511 . S
C1151 H1165 0.961 . S
C1151 H1166 0.961 . S
C1151 H1167 0.961 . S
C1152 C1153 1.370 . S
C1152 C1154 1.363 . S
C1152 H1168 0.931 . S
C1153 C1152 1.370 . S
C1153 C1157 1.408 . S
C1154 C1152 1.363 . S
C1154 C1155 1.370 . S
C1154 C1158 1.524 . S
C1155 C1147 1.503 . S
C1155 C1154 1.370 . S
C1155 C1156 1.403 . S
C1156 C1155 1.403 . S
C1156 C1157 1.404 . S
C1156 C1159 1.539 . S
C1157 C1153 1.408 . S
C1157 C1156 1.404 . S
C1157 H1169 0.930 . S
C1158 C1154 1.524 . S
C1158 H1170 0.956 . S
C1158 H1171 0.961 . S
C1158 H1172 0.961 . S
C1159 C1156 1.539 . S
C1159 H1173 0.958 . S
C1159 H1174 0.961 . S
C1159 H1175 0.960 . S
H1160 C1144 0.931 . S
H1161 C1149 0.929 . S
H1162 C1150 0.960 . S
H1163 C1150 0.962 . S
H1164 C1150 0.960 . S
H1165 C1151 0.961 . S
H1166 C1151 0.961 . S
H1167 C1151 0.961 . S
H1168 C1152 0.931 . S
H1169 C1157 0.930 . S
H1170 C1158 0.956 . S
H1171 C1158 0.961 . S
H1172 C1158 0.961 . S
H1173 C1159 0.958 . S
H1174 C1159 0.961 . S
H1175 C1159 0.960 . S
C1176 C1177 1.391 . S
C1176 C1178 1.394 . S
C1176 H1192 0.931 . S
C1177 C1176 1.391 . S
C1177 C1181 1.376 . S
C1178 C1176 1.394 . S
C1178 C1179 1.369 . S
C1178 C1182 1.531 . S
C1179 C1178 1.369 . S
C1179 C1180 1.410 . S
C1179 C1187 1.503 . S
C1180 C1179 1.410 . S
C1180 C1181 1.392 . S
C1180 C1183 1.511 . S
C1181 C1177 1.376 . S
C1181 C1180 1.392 . S
C1181 H1193 0.929 . S
C1182 C1178 1.531 . S
C1182 H1194 0.960 . S
C1182 H1195 0.962 . S
C1182 H1196 0.960 . S
C1183 C1180 1.511 . S
C1183 H1197 0.961 . S
C1183 H1198 0.961 . S
C1183 H1199 0.961 . S
C1184 C1185 1.370 . S
C1184 C1186 1.363 . S
C1184 H1200 0.931 . S
C1185 C1184 1.370 . S
C1185 C1189 1.408 . S
C1186 C1184 1.363 . S
C1186 C1187 1.370 . S
C1186 C1190 1.524 . S
C1187 C1179 1.503 . S
C1187 C1186 1.370 . S
C1187 C1188 1.403 . S
C1188 C1187 1.403 . S
C1188 C1189 1.404 . S
C1188 C1191 1.539 . S
C1189 C1185 1.408 . S
C1189 C1188 1.404 . S
C1189 H1201 0.930 . S
C1190 C1186 1.524 . S
C1190 H1202 0.956 . S
C1190 H1203 0.961 . S
C1190 H1204 0.961 . S
C1191 C1188 1.539 . S
C1191 H1205 0.958 . S
C1191 H1206 0.961 . S
C1191 H1207 0.960 . S
H1192 C1176 0.931 . S
H1193 C1181 0.929 . S
H1194 C1182 0.960 . S
H1195 C1182 0.962 . S
H1196 C1182 0.960 . S
H1197 C1183 0.961 . S
H1198 C1183 0.961 . S
H1199 C1183 0.961 . S
H1200 C1184 0.931 . S
H1201 C1189 0.930 . S
H1202 C1190 0.956 . S
H1203 C1190 0.961 . S
H1204 C1190 0.961 . S
H1205 C1191 0.958 . S
H1206 C1191 0.961 . S
H1207 C1191 0.960 . S
C441 N80 1.949 . S
C449 C167 2.002 . S
C481 C244 2.024 . S
C473 N93 1.952 . S
C513 C335 1.998 . S
C505 N54 1.914 . S
C545 C419 1.998 . S
C537 N67 1.894 . S
C577 C178 2.017 . S
C569 N28 1.945 . S
C601 N41 1.961 . S
C609 C255 2.020 . S
C633 N2 1.928 . S
C641 C346 1.996 . S
C665 N15 1.898 . S
C673 C430 1.989 1_655 S
C705 C162 0.617 1_455 S
C697 N70 0.566 . S
C737 C257 0.593 . S
C729 N83 0.467 . S
C769 C330 0.542 . S
C761 N96 0.483 . S
C793 N57 0.494 . S
C801 C414 0.551 . S
C825 N18 0.530 . S
C833 C173 0.596 . S
C865 C246 0.605 . S
C857 N31 0.481 . S
C897 C341 0.578 . S
C889 N44 0.514 . S
C921 N5 0.545 . S
C929 C425 0.596 . S
C953 N66 2.036 . S
C961 C171 2.090 . S
C985 N79 2.022 . S
C993 C262 2.098 . S
C1025 C339 2.108 . S
C1017 N92 2.028 . S
C1057 C423 2.113 . S
C1049 N53 2.019 . S
C1081 N14 2.043 . S
C1089 C160 2.087 . S
C1121 C251 2.100 1_565 S
C1113 N27 2.033 . S
C1153 C328 2.103 . S
C1145 N40 2.057 . S
C1177 N1 2.029 . S
C1185 C412 2.115 . S
