# Generated by pormake.
# Topology dag, (6,3)-cn, num edge types: 1
# Building blocks:
#     Node 0, Type 0, BuildingBlock: OJICUG_clean_sbu_0, # of connection points: 6
#     Node 1, Type 0, BuildingBlock: OJICUG_clean_sbu_0, # of connection points: 6
#     Node 2, Type 0, BuildingBlock: OJICUG_clean_sbu_0, # of connection points: 6
#     Node 3, Type 0, BuildingBlock: OJICUG_clean_sbu_0, # of connection points: 6
#     Node 4, Type 1, BuildingBlock: PAMTOO_clean_linker_0, # of connection points: 3
#     Node 5, Type 1, BuildingBlock: PAMTOO_clean_linker_0, # of connection points: 3
#     Node 6, Type 1, BuildingBlock: PAMTOO_clean_linker_0, # of connection points: 3
#     Node 7, Type 1, BuildingBlock: PAMTOO_clean_linker_0, # of connection points: 3
#     Node 8, Type 1, BuildingBlock: PAMTOO_clean_linker_0, # of connection points: 3
#     Node 9, Type 1, BuildingBlock: PAMTOO_clean_linker_0, # of connection points: 3
#     Node 10, Type 1, BuildingBlock: PAMTOO_clean_linker_0, # of connection points: 3
#     Node 11, Type 1, BuildingBlock: PAMTOO_clean_linker_0, # of connection points: 3
#     Edge 12, Type (0, 1), BuildingBlock: XUDNAN_clean_linker_2, # of connection points: 2
#     Edge 13, Type (0, 1), BuildingBlock: XUDNAN_clean_linker_2, # of connection points: 2
#     Edge 14, Type (0, 1), BuildingBlock: XUDNAN_clean_linker_2, # of connection points: 2
#     Edge 15, Type (0, 1), BuildingBlock: XUDNAN_clean_linker_2, # of connection points: 2
#     Edge 16, Type (0, 1), BuildingBlock: XUDNAN_clean_linker_2, # of connection points: 2
#     Edge 17, Type (0, 1), BuildingBlock: XUDNAN_clean_linker_2, # of connection points: 2
#     Edge 18, Type (0, 1), BuildingBlock: XUDNAN_clean_linker_2, # of connection points: 2
#     Edge 19, Type (0, 1), BuildingBlock: XUDNAN_clean_linker_2, # of connection points: 2
#     Edge 20, Type (0, 1), BuildingBlock: XUDNAN_clean_linker_2, # of connection points: 2
#     Edge 21, Type (0, 1), BuildingBlock: XUDNAN_clean_linker_2, # of connection points: 2
#     Edge 22, Type (0, 1), BuildingBlock: XUDNAN_clean_linker_2, # of connection points: 2
#     Edge 23, Type (0, 1), BuildingBlock: XUDNAN_clean_linker_2, # of connection points: 2
#     Edge 24, Type (0, 1), BuildingBlock: XUDNAN_clean_linker_2, # of connection points: 2
#     Edge 25, Type (0, 1), BuildingBlock: XUDNAN_clean_linker_2, # of connection points: 2
#     Edge 26, Type (0, 1), BuildingBlock: XUDNAN_clean_linker_2, # of connection points: 2
#     Edge 27, Type (0, 1), BuildingBlock: XUDNAN_clean_linker_2, # of connection points: 2
#     Edge 28, Type (0, 1), BuildingBlock: XUDNAN_clean_linker_2, # of connection points: 2
#     Edge 29, Type (0, 1), BuildingBlock: XUDNAN_clean_linker_2, # of connection points: 2
#     Edge 30, Type (0, 1), BuildingBlock: XUDNAN_clean_linker_2, # of connection points: 2
#     Edge 31, Type (0, 1), BuildingBlock: XUDNAN_clean_linker_2, # of connection points: 2
#     Edge 32, Type (0, 1), BuildingBlock: XUDNAN_clean_linker_2, # of connection points: 2
#     Edge 33, Type (0, 1), BuildingBlock: XUDNAN_clean_linker_2, # of connection points: 2
#     Edge 34, Type (0, 1), BuildingBlock: XUDNAN_clean_linker_2, # of connection points: 2
#     Edge 35, Type (0, 1), BuildingBlock: XUDNAN_clean_linker_2, # of connection points: 2
# Relax obj value: 0.096
# Max RMSD: 0.116
# Mean RMSD: 0.093
data_MOF--net-dag--node1-OJICUG_clean_sbu_0--node2-PAMTOO_clean_linker_0--edge1-XUDNAN_clean_linker_2
_symmetry_space_group_name_H-M    P1
_symmetry_Int_Tables_number       1
_symmetry_cell_setting            triclinic
loop_
_symmetry_equiv_pos_as_xyz
'x, y, z'
_cell_length_a     37.406592
_cell_length_b     38.436266
_cell_length_c     39.259315
_cell_angle_alpha  90.029341
_cell_angle_beta   94.507318
_cell_angle_gamma 89.981105
loop_
_atom_site_label
_atom_site_type_symbol
_atom_site_fract_x
_atom_site_fract_y
_atom_site_fract_z
_atom_type_partial_charge
Sc0 Sc 0.12392 0.87381 0.00321 0.0
Sc1 Sc 0.13363 0.78771 0.97752 0.0
Sc2 Sc 0.20913 0.83631 0.01028 0.0
O3 O 0.15566 0.83236 0.99707 0.0
C4 C 0.18964 0.90892 0.9724 0.0
C5 C 0.08505 0.84127 0.93495 0.0
C6 C 0.20646 0.79443 0.9402 0.0
C7 C 0.07816 0.81315 0.03118 0.0
C8 C 0.18073 0.88157 0.06831 0.0
C9 C 0.19167 0.75873 0.03423 0.0
O10 O 0.15592 0.9051 0.97277 0.0
O11 O 0.10276 0.81311 0.93594 0.0
O12 O 0.22136 0.81544 0.96193 0.0
O13 O 0.09053 0.84395 0.03371 0.0
O14 O 0.20192 0.85776 0.0601 0.0
O15 O 0.162 0.75684 0.01622 0.0
O16 O 0.15388 0.89133 0.04891 0.0
O17 O 0.08913 0.79073 0.01029 0.0
O18 O 0.21219 0.78517 0.03391 0.0
O19 O 0.0884 0.86378 0.9586 0.0
O20 O 0.21224 0.88821 0.98779 0.0
O21 O 0.17572 0.78099 0.94323 0.0
Sc22 Sc 0.70191 0.667 0.49954 0.0
Sc23 Sc 0.62779 0.71988 0.46998 0.0
Sc24 Sc 0.61445 0.63316 0.49361 0.0
O25 O 0.64812 0.67343 0.48767 0.0
C26 C 0.6812 0.59358 0.46555 0.0
C27 C 0.69798 0.70972 0.42944 0.0
C28 C 0.57931 0.66564 0.42468 0.0
C29 C 0.68953 0.74453 0.52587 0.0
C30 C 0.66781 0.62868 0.56094 0.0
C31 C 0.56958 0.69727 0.52022 0.0
O32 O 0.70415 0.61683 0.47467 0.0
O33 O 0.66702 0.72257 0.43262 0.0
O34 O 0.58693 0.63982 0.44408 0.0
O35 O 0.70685 0.71607 0.5261 0.0
O36 O 0.63794 0.6233 0.54414 0.0
O37 O 0.58629 0.72117 0.50561 0.0
O38 O 0.69436 0.64326 0.54846 0.0
O39 O 0.66111 0.74967 0.50659 0.0
O40 O 0.57657 0.66521 0.51683 0.0
O41 O 0.71406 0.69002 0.45179 0.0
O42 O 0.64832 0.59624 0.47096 0.0
O43 O 0.5912 0.69613 0.43125 0.0
Sc44 Sc 0.87481 0.23035 0.05429 0.0
Sc45 Sc 0.7958 0.18198 0.03162 0.0
Sc46 Sc 0.88068 0.14193 0.03298 0.0
O47 O 0.85033 0.18475 0.03958 0.0
C48 C 0.92829 0.20135 0.00211 0.0
C49 C 0.81289 0.25622 -0.00021 0.0
C50 C 0.82097 0.13491 0.97081 0.0
C51 C 0.8067 0.23019 0.098 0.0
C52 C 0.92059 0.17521 0.10009 0.0
C53 C 0.81399 0.1088 0.06698 0.0
O54 O 0.9148 0.22615 0.01817 0.0
O55 O 0.79293 0.22968 0.00238 0.0
O56 O 0.85187 0.12903 0.98545 0.0
O57 O 0.83791 0.24011 0.09198 0.0
O58 O 0.91219 0.14959 0.0806 0.0
O59 O 0.79231 0.13369 0.05973 0.0
O60 O 0.90955 0.20599 0.09373 0.0
O61 O 0.78816 0.20915 0.07879 0.0
O62 O 0.84621 0.10858 0.05906 0.0
O63 O 0.84292 0.25979 0.01687 0.0
O64 O 0.91862 0.16989 0.00511 0.0
O65 O 0.79756 0.15383 0.98372 0.0
Sc66 Sc 0.37802 0.3634 0.53246 0.0
Sc67 Sc 0.29474 0.32283 0.53917 0.0
Sc68 Sc 0.37544 0.27565 0.55299 0.0
O69 O 0.34908 0.32054 0.54133 0.0
C70 C 0.42503 0.30387 0.50024 0.0
C71 C 0.31591 0.36706 0.47381 0.0
C72 C 0.3066 0.24764 0.50785 0.0
C73 C 0.31264 0.39762 0.56812 0.0
C74 C 0.42313 0.33272 0.59556 0.0
C75 C 0.31568 0.27679 0.6059 0.0
O76 O 0.41949 0.33506 0.50914 0.0
O77 O 0.29274 0.35234 0.49133 0.0
O78 O 0.33771 0.24414 0.52283 0.0
O79 O 0.34205 0.39897 0.55424 0.0
O80 O 0.41682 0.30165 0.58543 0.0
O81 O 0.29308 0.29484 0.58732 0.0
O82 O 0.40772 0.35901 0.58126 0.0
O83 O 0.2937 0.3703 0.56849 0.0
O84 O 0.34651 0.26886 0.59694 0.0
O85 O 0.34896 0.37024 0.48386 0.0
O86 O 0.40664 0.27851 0.50969 0.0
O87 O 0.28824 0.27532 0.50986 0.0
H88 H 0.10718 0.05005 0.21972 0.0
H89 H 0.11518 0.11547 0.30903 0.0
H90 H 0.19366 0.0359 0.29734 0.0
H91 H 0.17134 0.04744 0.36975 0.0
C92 C 0.16692 0.07601 0.36752 0.0
O93 O 0.17422 0.08719 0.33549 0.0
H94 H 0.13845 0.08158 0.37197 0.0
C95 C 0.12041 0.05711 0.24428 0.0
C96 C 0.15176 0.03934 0.25624 0.0
C97 C 0.10676 0.08467 0.26289 0.0
C98 C 0.12479 0.09409 0.29424 0.0
C99 C 0.15573 0.0762 0.30666 0.0
C100 C 0.16907 0.04875 0.28788 0.0
H101 H 0.35147 0.63433 0.61234 0.0
H102 H 0.27202 0.64465 0.68565 0.0
H103 H 0.35004 0.7249 0.67622 0.0
H104 H 0.34396 0.69381 0.7441 0.0
C105 C 0.31419 0.69205 0.74354 0.0
O106 O 0.29888 0.7019 0.7119 0.0
H107 H 0.30728 0.66446 0.74864 0.0
C108 C 0.33868 0.64927 0.63138 0.0
C109 C 0.35317 0.68181 0.64123 0.0
C110 C 0.30924 0.63528 0.64699 0.0
C111 C 0.29432 0.65474 0.67268 0.0
C112 C 0.30943 0.68661 0.68343 0.0
C113 C 0.33814 0.70056 0.66716 0.0
H114 H 0.86215 0.87685 0.12417 0.0
H115 H 0.77435 0.86321 0.18785 0.0
H116 H 0.85303 0.78276 0.18187 0.0
H117 H 0.78032 0.75829 0.18561 0.0
C118 C 0.77051 0.77778 0.20369 0.0
O119 O 0.79625 0.80279 0.21122 0.0
H120 H 0.74578 0.79007 0.19148 0.0
C121 C 0.84756 0.86114 0.14132 0.0
C122 C 0.86086 0.82805 0.15074 0.0
C123 C 0.81618 0.87429 0.15421 0.0
C124 C 0.79839 0.85378 0.17721 0.0
C125 C 0.81179 0.82096 0.18705 0.0
C126 C 0.84271 0.80799 0.17364 0.0
H127 H 0.60372 0.46953 0.71659 0.0
H128 H 0.63335 0.38928 0.7904 0.0
H129 H 0.69744 0.48141 0.78588 0.0
H130 H 0.73949 0.41814 0.79443 0.0
C131 C 0.72012 0.40125 0.8068 0.0
O132 O 0.69122 0.42079 0.81524 0.0
H133 H 0.7112 0.38043 0.78829 0.0
C134 C 0.62063 0.4598 0.73819 0.0
C135 C 0.65029 0.47965 0.75052 0.0
C136 C 0.61411 0.42686 0.75202 0.0
C137 C 0.63763 0.41445 0.77901 0.0
C138 C 0.66761 0.43403 0.79096 0.0
C139 C 0.67393 0.46662 0.77679 0.0
H140 H 0.65062 0.35946 0.42139 0.0
H141 H 0.67149 0.25635 0.3849 0.0
H142 H 0.73396 0.34266 0.35396 0.0
H143 H 0.67561 0.28375 0.30895 0.0
C144 C 0.69875 0.26593 0.31506 0.0
O145 O 0.71887 0.2762 0.34443 0.0
H146 H 0.68778 0.23958 0.3195 0.0
C147 C 0.66625 0.34169 0.40714 0.0
C148 C 0.69437 0.35507 0.38938 0.0
C149 C 0.65723 0.30621 0.40552 0.0
C150 C 0.67778 0.28383 0.38671 0.0
C151 C 0.70456 0.29711 0.36742 0.0
C152 C 0.71333 0.33258 0.36914 0.0
H153 H 0.14922 0.13902 0.9147 0.0
H154 H 0.15618 0.23376 0.85712 0.0
H155 H 0.23607 0.15435 0.85077 0.0
H156 H 0.25802 0.23246 0.85851 0.0
C157 C 0.23932 0.24067 0.83649 0.0
O158 O 0.21372 0.2156 0.82874 0.0
H159 H 0.22612 0.26532 0.84346 0.0
C160 C 0.16286 0.15519 0.89717 0.0
C161 C 0.19414 0.14269 0.88388 0.0
C162 C 0.14882 0.18799 0.8878 0.0
C163 C 0.16701 0.20876 0.8655 0.0
C164 C 0.19851 0.19673 0.85256 0.0
C165 C 0.2123 0.16386 0.86186 0.0
H166 H 0.37201 0.54757 0.32895 0.0
H167 H 0.35775 0.61547 0.24163 0.0
H168 H 0.28075 0.53535 0.25607 0.0
H169 H 0.29671 0.54988 0.1815 0.0
C170 C 0.30385 0.5778 0.18524 0.0
O171 O 0.29744 0.5879 0.21789 0.0
H172 H 0.33279 0.58088 0.18112 0.0
C173 C 0.357 0.5555 0.30551 0.0
C174 C 0.32514 0.53781 0.29484 0.0
C175 C 0.36938 0.5835 0.28658 0.0
C176 C 0.34904 0.59394 0.25674 0.0
C177 C 0.31738 0.57647 0.24578 0.0
C178 C 0.3056 0.54828 0.26457 0.0
H179 H 0.88498 0.96506 0.81998 0.0
H180 H 0.86849 0.88474 0.74382 0.0
H181 H 0.78952 0.96489 0.75169 0.0
H182 H 0.75998 0.89695 0.73652 0.0
C183 C 0.78186 0.885 0.72284 0.0
O184 O 0.80755 0.90973 0.7175 0.0
H185 H 0.79385 0.86362 0.73913 0.0
C186 C 0.8688 0.95308 0.79906 0.0
C187 C 0.83551 0.96796 0.78852 0.0
C188 C 0.88082 0.92251 0.78402 0.0
C189 C 0.86024 0.90851 0.75579 0.0
C190 C 0.82775 0.92422 0.74381 0.0
C191 C 0.81537 0.95389 0.76017 0.0
H192 H 0.17215 0.9502 0.07846 0.0
H193 H 0.20388 0.85488 0.13139 0.0
H194 H 0.20697 0.88664 0.18676 0.0
H195 H 0.22793 0.00988 0.13517 0.0
H196 H 0.19399 0.04325 0.13128 0.0
H197 H 0.19904 0.01364 0.09637 0.0
H198 H 0.13195 0.99665 0.09653 0.0
H199 H 0.12675 0.02588 0.13152 0.0
H200 H 0.11516 0.98061 0.13537 0.0
H201 H 0.19755 0.9281 0.23666 0.0
H202 H 0.17927 0.97495 0.2752 0.0
H203 H 0.15772 0.04273 0.18772 0.0
C204 C 0.18043 0.93615 0.10167 0.0
C205 C 0.18763 0.90021 0.10092 0.0
C206 C 0.19849 0.88257 0.13162 0.0
C207 C 0.20027 0.90039 0.16307 0.0
C208 C 0.19194 0.93584 0.16298 0.0
C209 C 0.18289 0.95355 0.13287 0.0
C210 C 0.17309 0.99094 0.13925 0.0
C211 C 0.20014 0.01589 0.12466 0.0
C212 C 0.13446 0.99895 0.12483 0.0
C213 C 0.1764 0.99131 0.17776 0.0
C214 C 0.18757 0.95953 0.19122 0.0
C215 C 0.1895 0.95327 0.22636 0.0
C216 C 0.17915 0.98 0.24806 0.0
C217 C 0.16684 0.01236 0.23441 0.0
C218 C 0.16661 0.01816 0.19893 0.0
H219 H 0.54064 0.65517 0.5662 0.0
H220 H 0.53096 0.75861 0.52214 0.0
H221 H 0.47672 0.76882 0.55335 0.0
H222 H 0.45106 0.63465 0.55699 0.0
H223 H 0.45088 0.61031 0.5962 0.0
H224 H 0.49137 0.61346 0.57461 0.0
H225 H 0.5252 0.63842 0.62945 0.0
H226 H 0.48482 0.63501 0.65141 0.0
H227 H 0.50767 0.67618 0.6497 0.0
H228 H 0.41945 0.76452 0.58521 0.0
H229 H 0.3657 0.74614 0.61396 0.0
H230 H 0.4145 0.6454 0.63515 0.0
C231 C 0.52757 0.68027 0.56339 0.0
C232 C 0.53997 0.70607 0.54161 0.0
C233 C 0.52203 0.73853 0.53885 0.0
C234 C 0.49121 0.74451 0.55645 0.0
C235 C 0.4791 0.71791 0.57689 0.0
C236 C 0.49706 0.68655 0.58056 0.0
C237 C 0.47763 0.66101 0.60173 0.0
C238 C 0.46711 0.62793 0.58114 0.0
C239 C 0.50017 0.65215 0.63505 0.0
C240 C 0.44516 0.68237 0.60859 0.0
C241 C 0.44652 0.71531 0.59458 0.0
C242 C 0.41838 0.73892 0.59656 0.0
C243 C 0.38803 0.72833 0.61289 0.0
C244 C 0.38601 0.69432 0.62644 0.0
C245 C 0.41525 0.67146 0.62471 0.0
H246 H 0.81925 0.04407 0.0423 0.0
H247 H 0.78147 0.10203 0.127 0.0
H248 H 0.7699 0.04646 0.15666 0.0
H249 H 0.75558 0.96899 0.04659 0.0
H250 H 0.78929 0.93868 0.03485 0.0
H251 H 0.78913 0.98264 0.01887 0.0
H252 H 0.85498 0.99011 0.04345 0.0
H253 H 0.85532 0.94649 0.05986 0.0
H254 H 0.86638 0.98239 0.0883 0.0
H255 H 0.77308 0.98486 0.18049 0.0
H256 H 0.78693 0.92357 0.19497 0.0
H257 H 0.81768 0.90633 0.09195 0.0
C258 C 0.80757 0.04493 0.06669 0.0
C259 C 0.8011 0.07694 0.08254 0.0
C260 C 0.78616 0.0775 0.11448 0.0
C261 C 0.7796 0.04615 0.13141 0.0
C262 C 0.78736 0.0148 0.11547 0.0
C263 C 0.80032 0.01408 0.08344 0.0
C264 C 0.80893 0.97749 0.07262 0.0
C265 C 0.78425 0.96629 0.04139 0.0
C266 C 0.84876 0.97394 0.06568 0.0
C267 C 0.80054 0.95772 0.10424 0.0
C268 C 0.78788 0.97949 0.12864 0.0
C269 C 0.78201 0.96744 0.16123 0.0
C270 C 0.78984 0.93247 0.16918 0.0
C271 C 0.80341 0.90994 0.14462 0.0
C272 C 0.80766 0.92277 0.11148 0.0
H273 H 0.43806 0.39351 0.63052 0.0
H274 H 0.47082 0.28533 0.62515 0.0
H275 H 0.51955 0.29626 0.66988 0.0
H276 H 0.5234 0.42916 0.63896 0.0
H277 H 0.51307 0.46298 0.66847 0.0
H278 H 0.47832 0.44582 0.63892 0.0
H279 H 0.44018 0.43068 0.68922 0.0
H280 H 0.47485 0.44791 0.719 0.0
H281 H 0.45921 0.40396 0.72376 0.0
H282 H 0.56892 0.32052 0.70972 0.0
H283 H 0.61455 0.356 0.7422 0.0
H284 H 0.54743 0.44753 0.72458 0.0
C285 C 0.4551 0.37194 0.63908 0.0
C286 C 0.45058 0.33856 0.62425 0.0
C287 C 0.4736 0.31112 0.63617 0.0
C288 C 0.50135 0.31704 0.66163 0.0
C289 C 0.5054 0.35039 0.67527 0.0
C290 C 0.4827 0.37731 0.66464 0.0
C291 C 0.49407 0.41118 0.68193 0.0
C292 C 0.50274 0.4389 0.65549 0.0
C293 C 0.46537 0.42419 0.70485 0.0
C294 C 0.52749 0.39937 0.70296 0.0
C295 C 0.53341 0.36417 0.69901 0.0
C296 C 0.56417 0.34795 0.71367 0.0
C297 C 0.58988 0.36836 0.73232 0.0
C298 C 0.58467 0.40467 0.73624 0.0
C299 C 0.55249 0.41996 0.722 0.0
H300 H 0.63843 0.54644 0.43019 0.0
H301 H 0.74981 0.56787 0.4627 0.0
H302 H 0.76718 0.51129 0.43862 0.0
H303 H 0.63898 0.46019 0.45268 0.0
H304 H 0.60916 0.44601 0.41709 0.0
H305 H 0.60667 0.48993 0.43238 0.0
H306 H 0.61611 0.5132 0.37175 0.0
H307 H 0.61869 0.46921 0.35621 0.0
H308 H 0.6547 0.49929 0.35054 0.0
H309 H 0.77076 0.44863 0.41762 0.0
H310 H 0.75987 0.38658 0.40279 0.0
H311 H 0.64652 0.40842 0.38265 0.0
C312 C 0.6666 0.53962 0.43181 0.0
C313 C 0.69275 0.56157 0.44843 0.0
C314 C 0.72931 0.55155 0.44994 0.0
C315 C 0.73941 0.51949 0.43627 0.0
C316 C 0.71272 0.49812 0.42071 0.0
C317 C 0.67708 0.50804 0.41819 0.0
C318 C 0.65302 0.47961 0.40284 0.0
C319 C 0.62536 0.46828 0.42773 0.0
C320 C 0.63455 0.49102 0.36828 0.0
C321 C 0.68044 0.45149 0.39833 0.0
C322 C 0.71484 0.46261 0.4083 0.0
C323 C 0.74404 0.43988 0.40913 0.0
C324 C 0.73768 0.40476 0.40055 0.0
C325 C 0.70238 0.39282 0.39166 0.0
C326 C 0.67379 0.41686 0.38939 0.0
H327 H 0.96038 0.1564 0.95996 0.0
H328 H 0.96385 0.26333 0.99595 0.0
H329 H 0.01771 0.2737 0.96491 0.0
H330 H 0.05085 0.14086 0.97075 0.0
H331 H 0.05324 0.11427 0.93317 0.0
H332 H 0.01213 0.11665 0.95388 0.0
H333 H 0.97804 0.13653 0.89716 0.0
H334 H 0.01908 0.13391 0.87613 0.0
H335 H 0.99378 0.17387 0.87494 0.0
H336 H 0.07551 0.27006 0.93616 0.0
H337 H 0.13156 0.25279 0.91112 0.0
H338 H 0.08862 0.14896 0.89303 0.0
C339 C 0.97196 0.18224 0.96082 0.0
C340 C 0.9579 0.209 0.98046 0.0
C341 C 0.97405 0.24239 0.98099 0.0
C342 C 0.00463 0.24858 0.96339 0.0
C343 C 0.01837 0.22126 0.94508 0.0
C344 C 0.00229 0.18886 0.94338 0.0
C345 C 0.02366 0.16312 0.92415 0.0
C346 C 0.03568 0.13191 0.94686 0.0
C347 C 0.00237 0.15117 0.89113 0.0
C348 C 0.05506 0.1857 0.9165 0.0
C349 C 0.05141 0.21927 0.92834 0.0
C350 C 0.07837 0.24403 0.92621 0.0
C351 C 0.11005 0.23403 0.91194 0.0
C352 C 0.11444 0.19953 0.9003 0.0
C353 C 0.08619 0.17544 0.90202 0.0
H354 H 0.31681 0.43629 0.46859 0.0
H355 H 0.29052 0.34285 0.41042 0.0
H356 H 0.28203 0.37822 0.35729 0.0
H357 H 0.25537 0.49695 0.41672 0.0
H358 H 0.2877 0.5317 0.42199 0.0
H359 H 0.28503 0.49956 0.4551 0.0
H360 H 0.35268 0.4865 0.45244 0.0
H361 H 0.35546 0.51795 0.41894 0.0
H362 H 0.36915 0.47365 0.41235 0.0
H363 H 0.28559 0.42354 0.30989 0.0
H364 H 0.29976 0.47357 0.27345 0.0
H365 H 0.32281 0.53662 0.3641 0.0
C366 C 0.30804 0.42353 0.44475 0.0
C367 C 0.30375 0.38716 0.44329 0.0
C368 C 0.29318 0.37088 0.41184 0.0
C369 C 0.28843 0.39077 0.38168 0.0
C370 C 0.29399 0.42673 0.3838 0.0
C371 C 0.30307 0.44292 0.41476 0.0
C372 C 0.31082 0.48116 0.4103 0.0
C373 C 0.28306 0.50367 0.42701 0.0
C374 C 0.34931 0.49031 0.42432 0.0
C375 C 0.30638 0.48385 0.37183 0.0
C376 C 0.29612 0.45245 0.35686 0.0
C377 C 0.29295 0.44836 0.32141 0.0
C378 C 0.30099 0.4769 0.30091 0.0
C379 C 0.31248 0.50891 0.31597 0.0
C380 C 0.3143 0.51243 0.35184 0.0
H381 H 0.02203 0.87511 0.93834 0.0
H382 H 0.08632 0.8216 0.86749 0.0
H383 H 0.04034 0.83493 0.82008 0.0
H384 H 0.93637 0.84476 0.90078 0.0
H385 H 0.91399 0.88495 0.90953 0.0
H386 H 0.95208 0.87096 0.93701 0.0
H387 H 0.98383 0.92967 0.92708 0.0
H388 H 0.94591 0.94375 0.89947 0.0
H389 H 0.99004 0.94343 0.88404 0.0
H390 H 0.98769 0.85834 0.77993 0.0
H391 H 0.93292 0.88589 0.75228 0.0
H392 H 0.9024 0.91788 0.85208 0.0
C393 C 0.02652 0.86623 0.91283 0.0
C394 C 0.05781 0.84771 0.90638 0.0
C395 C 0.06244 0.83591 0.87284 0.0
C396 C 0.03655 0.84341 0.84583 0.0
C397 C 0.006 0.86205 0.85311 0.0
C398 C 0.0008 0.87279 0.88599 0.0
C399 C 0.96566 0.89175 0.88768 0.0
C400 C 0.94055 0.87191 0.91006 0.0
C401 C 0.97174 0.92937 0.9003 0.0
C402 C 0.95204 0.89073 0.85049 0.0
C403 C 0.97555 0.87376 0.83073 0.0
C404 C 0.96893 0.87131 0.7953 0.0
C405 C 0.93765 0.8869 0.77982 0.0
C406 C 0.91335 0.90451 0.79982 0.0
C407 C 0.92062 0.90555 0.83569 0.0
H408 H 0.82897 0.06625 0.96319 0.0
H409 H 0.79207 0.15873 0.90819 0.0
H410 H 0.7843 0.12418 0.8544 0.0
H411 H 0.88059 0.03301 0.90309 0.0
H412 H 0.86994 0.98801 0.91024 0.0
H413 H 0.86759 0.01906 0.94419 0.0
H414 H 0.80144 0.00198 0.95069 0.0
H415 H 0.80359 0.97057 0.91681 0.0
H416 H 0.76931 0.00364 0.91401 0.0
H417 H 0.78941 0.07976 0.80543 0.0
H418 H 0.80483 0.03079 0.76779 0.0
H419 H 0.83502 0.96834 0.85733 0.0
C420 C 0.81853 0.07905 0.9399 0.0
C421 C 0.81117 0.11495 0.93949 0.0
C422 C 0.79758 0.13107 0.90879 0.0
C423 C 0.79315 0.11164 0.87826 0.0
C424 C 0.80167 0.07619 0.87937 0.0
C425 C 0.81349 0.06008 0.9097 0.0
C426 C 0.82301 0.02243 0.90442 0.0
C427 C 0.86262 0.01524 0.91616 0.0
C428 C 0.79782 0.99824 0.92255 0.0
C429 C 0.81629 0.02 0.86613 0.0
C430 C 0.80369 0.05099 0.85187 0.0
C431 C 0.79861 0.05524 0.81644 0.0
C432 C 0.80735 0.02736 0.79525 0.0
C433 C 0.8213 0.99597 0.80972 0.0
C434 C 0.82461 0.99214 0.84555 0.0
H435 H 0.48979 0.33413 0.51252 0.0
H436 H 0.43307 0.25607 0.44951 0.0
H437 H 0.48891 0.24335 0.42151 0.0
H438 H 0.54438 0.36737 0.45143 0.0
H439 H 0.5832 0.373 0.48112 0.0
H440 H 0.53902 0.37487 0.49609 0.0
H441 H 0.55644 0.32614 0.54001 0.0
H442 H 0.60066 0.32391 0.52493 0.0
H443 H 0.57335 0.2853 0.52535 0.0
H444 H 0.54945 0.24419 0.39696 0.0
H445 H 0.60941 0.25703 0.37864 0.0
H446 H 0.62813 0.32867 0.46388 0.0
C447 C 0.48911 0.31449 0.49267 0.0
C448 C 0.45726 0.29646 0.48254 0.0
C449 C 0.45736 0.2703 0.45721 0.0
C450 C 0.48888 0.26285 0.4414 0.0
C451 C 0.51999 0.28114 0.45209 0.0
C452 C 0.52036 0.3061 0.47744 0.0
C453 C 0.55704 0.32217 0.48438 0.0
C454 C 0.55582 0.36168 0.47785 0.0
C455 C 0.5728 0.31387 0.52083 0.0
C456 C 0.57706 0.30332 0.45802 0.0
C457 C 0.55533 0.27974 0.43964 0.0
C458 C 0.56701 0.26192 0.41171 0.0
C459 C 0.60138 0.26919 0.40171 0.0
C460 C 0.62385 0.29385 0.41985 0.0
C461 C 0.61175 0.30995 0.44917 0.0
H462 H 0.15078 0.9487 0.92589 0.0
H463 H 0.25635 0.94027 0.97951 0.0
H464 H 0.2729 0.99717 0.95548 0.0
H465 H 0.17805 0.99529 0.84916 0.0
H466 H 0.13784 0.02132 0.84685 0.0
H467 H 0.13715 0.97762 0.86341 0.0
H468 H 0.11285 0.00092 0.91915 0.0
H469 H 0.11366 0.04456 0.90293 0.0
H470 H 0.13755 0.0342 0.94331 0.0
H471 H 0.27425 0.05922 0.93156 0.0
H472 H 0.25978 0.1192 0.91113 0.0
H473 H 0.15328 0.08513 0.87456 0.0
C474 C 0.17772 0.95832 0.93208 0.0
C475 C 0.20226 0.94004 0.95463 0.0
C476 C 0.23718 0.95371 0.96207 0.0
C477 C 0.24679 0.986 0.94853 0.0
C478 C 0.22133 0.00392 0.92729 0.0
C479 C 0.1876 0.99023 0.91892 0.0
C480 C 0.16366 0.01556 0.89853 0.0
C481 C 0.1536 0.00161 0.86233 0.0
C482 C 0.12998 0.02432 0.91711 0.0
C483 C 0.18858 0.04632 0.8978 0.0
C484 C 0.22199 0.03916 0.91393 0.0
C485 C 0.24839 0.06485 0.91838 0.0
C486 C 0.24005 0.09874 0.90671 0.0
C487 C 0.20548 0.10649 0.89137 0.0
C488 C 0.17995 0.07972 0.88614 0.0
H489 H 0.55389 0.60364 0.39833 0.0
H490 H 0.54351 0.71543 0.38499 0.0
H491 H 0.49224 0.7062 0.34241 0.0
H492 H 0.52594 0.57929 0.30783 0.0
H493 H 0.50246 0.54135 0.32122 0.0
H494 H 0.54171 0.55669 0.34635 0.0
H495 H 0.50504 0.56002 0.39954 0.0
H496 H 0.46562 0.54517 0.37463 0.0
H497 H 0.46456 0.58567 0.3977 0.0
H498 H 0.43644 0.6851 0.30864 0.0
H499 H 0.38285 0.65386 0.28419 0.0
H500 H 0.43149 0.55576 0.31752 0.0
C501 C 0.54149 0.62623 0.38585 0.0
C502 C 0.55276 0.66029 0.39509 0.0
C503 C 0.53555 0.68907 0.37825 0.0
C504 C 0.50636 0.68409 0.35402 0.0
C505 C 0.49509 0.65018 0.34653 0.0
C506 C 0.51252 0.62171 0.36157 0.0
C507 C 0.49354 0.58812 0.35125 0.0
C508 C 0.51733 0.565 0.33041 0.0
C509 C 0.48148 0.56863 0.38265 0.0
C510 C 0.46183 0.60221 0.32923 0.0
C511 C 0.46333 0.63801 0.32651 0.0
C512 C 0.43542 0.657 0.30987 0.0
C513 C 0.40508 0.63896 0.29593 0.0
C514 C 0.40284 0.60224 0.29874 0.0
C515 C 0.43208 0.5838 0.31506 0.0
H516 H 0.31404 0.46183 0.54052 0.0
H517 H 0.2838 0.40603 0.62971 0.0
H518 H 0.27103 0.46218 0.65761 0.0
H519 H 0.3597 0.52795 0.58128 0.0
H520 H 0.34483 0.56198 0.55192 0.0
H521 H 0.34615 0.51774 0.5373 0.0
H522 H 0.27885 0.52074 0.51617 0.0
H523 H 0.2774 0.56532 0.53029 0.0
H524 H 0.24645 0.53394 0.54527 0.0
H525 H 0.2728 0.5242 0.67893 0.0
H526 H 0.28479 0.5861 0.6908 0.0
H527 H 0.30741 0.60149 0.58497 0.0
C528 C 0.30391 0.4615 0.56564 0.0
C529 C 0.29997 0.42992 0.5832 0.0
C530 C 0.28671 0.43014 0.61592 0.0
C531 C 0.27942 0.46184 0.63186 0.0
C532 C 0.28459 0.49274 0.61418 0.0
C533 C 0.29579 0.4927 0.58144 0.0
C534 C 0.30147 0.52922 0.56864 0.0
C535 C 0.34034 0.5345 0.55927 0.0
C536 C 0.27441 0.53781 0.5383 0.0
C537 C 0.29378 0.54988 0.6 0.0
C538 C 0.2838 0.52848 0.62591 0.0
C539 C 0.27945 0.54134 0.65851 0.0
C540 C 0.28615 0.57676 0.66493 0.0
C541 C 0.29691 0.5991 0.6388 0.0
C542 C 0.2995 0.58537 0.60568 0.0
H543 H 0.05018 0.85402 0.07928 0.0
H544 H 0.03744 0.75306 0.03012 0.0
H545 H 0.98322 0.74257 0.06102 0.0
H546 H 0.01665 0.8298 0.16192 0.0
H547 H 0.99469 0.87124 0.16558 0.0
H548 H 0.03503 0.86817 0.14351 0.0
H549 H 0.00193 0.89621 0.08986 0.0
H550 H 0.96151 0.89917 0.11158 0.0
H551 H 0.96113 0.87664 0.07128 0.0
H552 H 0.92652 0.74633 0.09302 0.0
H553 H 0.87276 0.76454 0.12169 0.0
H554 H 0.92377 0.86316 0.14828 0.0
C555 C 0.03656 0.82932 0.07537 0.0
C556 C 0.04819 0.80434 0.05222 0.0
C557 C 0.0292 0.77254 0.04783 0.0
C558 C -0.0016 0.76635 0.06532 0.0
C559 C 0.98719 0.79208 0.08722 0.0
C560 C 0.00593 0.82285 0.09236 0.0
C561 C 0.98704 0.84775 0.11472 0.0
C562 C 0.0097 0.85463 0.14844 0.0
C563 C 0.97733 0.88193 0.09571 0.0
C564 C 0.95403 0.82671 0.12058 0.0
C565 C 0.95471 0.79444 0.10505 0.0
C566 C 0.92598 0.77135 0.10563 0.0
C567 C 0.89564 0.78184 0.12199 0.0
C568 C 0.89421 0.81525 0.13703 0.0
C569 C 0.92412 0.83752 0.13683 0.0
H570 H 0.71333 0.58186 0.5938 0.0
H571 H 0.62532 0.65218 0.60808 0.0
H572 H 0.62032 0.62875 0.66599 0.0
H573 H 0.67495 0.51184 0.62637 0.0
H574 H 0.71469 0.4924 0.64727 0.0
H575 H 0.71838 0.52072 0.61138 0.0
H576 H 0.76308 0.55981 0.64773 0.0
H577 H 0.75963 0.53138 0.68387 0.0
H578 H 0.75056 0.57722 0.68775 0.0
H579 H 0.6158 0.5905 0.71532 0.0
H580 H 0.6119 0.53925 0.75289 0.0
H581 H 0.70243 0.49258 0.70798 0.0
C582 C 0.69427 0.59328 0.60995 0.0
C583 C 0.67021 0.6192 0.59718 0.0
C584 C 0.64431 0.63266 0.61797 0.0
C585 C 0.64141 0.61962 0.65087 0.0
C586 C 0.66457 0.59305 0.66249 0.0
C587 C 0.6907 0.58008 0.64279 0.0
C588 C 0.70803 0.54778 0.65891 0.0
C589 C 0.70372 0.51635 0.63453 0.0
C590 C 0.74769 0.55446 0.67024 0.0
C591 C 0.68608 0.54346 0.68947 0.0
C592 C 0.66177 0.57037 0.69151 0.0
C593 C 0.63545 0.56988 0.71478 0.0
C594 C 0.63335 0.54078 0.73594 0.0
C595 C 0.65745 0.51277 0.73367 0.0
C596 C 0.68467 0.51447 0.71086 0.0
H597 H 0.94095 0.11239 0.12824 0.0
H598 H 0.9561 0.22372 0.14157 0.0
H599 H 0.00059 0.21269 0.19022 0.0
H600 H 0.95217 0.08938 0.22014 0.0
H601 H 0.97544 0.04962 0.21162 0.0
H602 H 0.94185 0.06646 0.1805 0.0
H603 H 0.9881 0.06599 0.13465 0.0
H604 H 0.02175 0.04924 0.16555 0.0
H605 H 0.02997 0.08885 0.1429 0.0
H606 H 0.04891 0.18927 0.23234 0.0
H607 H 0.09642 0.15551 0.26451 0.0
H608 H 0.04678 0.05967 0.22604 0.0
C609 C 0.95316 0.13453 0.14167 0.0
C610 C 0.94505 0.16893 0.131 0.0
C611 C 0.96175 0.19712 0.14931 0.0
C612 C 0.98701 0.19112 0.17704 0.0
C613 C 0.99484 0.15684 0.18646 0.0
C614 C 0.97812 0.12903 0.16951 0.0
C615 C 0.99284 0.09469 0.18316 0.0
C616 C 0.96384 0.07381 0.19986 0.0
C617 C 0.00914 0.07347 0.15489 0.0
C618 C 0.02145 0.1075 0.20954 0.0
C619 C 0.02201 0.14339 0.21134 0.0
C620 C 0.04822 0.16113 0.23173 0.0
C621 C 0.07502 0.14168 0.2501 0.0
C622 C 0.07541 0.10486 0.24792 0.0
C623 C 0.04748 0.08775 0.22815 0.0
H624 H 0.25448 0.74928 0.07532 0.0
H625 H 0.15366 0.69886 0.04218 0.0
H626 H 0.17165 0.64748 0.07658 0.0
H627 H 0.30931 0.67272 0.07437 0.0
H628 H 0.33731 0.68442 0.1121 0.0
H629 H 0.31654 0.71789 0.08521 0.0
H630 H 0.28715 0.74388 0.13715 0.0
H631 H 0.30794 0.71058 0.16423 0.0
H632 H 0.26 0.71642 0.16195 0.0
H633 H 0.20005 0.60132 0.11424 0.0
H634 H 0.23766 0.56347 0.15348 0.0
H635 H 0.31998 0.643 0.16232 0.0
C636 C 0.23611 0.72752 0.07536 0.0
C637 C 0.20263 0.72829 0.0559 0.0
C638 C 0.17948 0.69909 0.05673 0.0
C639 C 0.18942 0.66967 0.07623 0.0
C640 C 0.2226 0.66968 0.09486 0.0
C641 C 0.24561 0.69781 0.09473 0.0
C642 C 0.27979 0.69093 0.11709 0.0
C643 C 0.31268 0.69152 0.09592 0.0
C644 C 0.28395 0.717 0.14687 0.0
C645 C 0.27237 0.65454 0.12962 0.0
C646 C 0.2392 0.64281 0.11649 0.0
C647 C 0.22618 0.6101 0.12456 0.0
C648 C 0.24767 0.58877 0.1467 0.0
C649 C 0.28185 0.60015 0.16018 0.0
C650 C 0.29417 0.63355 0.15175 0.0
H651 H 0.74176 0.74003 0.579 0.0
H652 H 0.66507 0.81178 0.52849 0.0
H653 H 0.68302 0.85667 0.57141 0.0
H654 H 0.72607 0.76353 0.66298 0.0
H655 H 0.77212 0.75926 0.67974 0.0
H656 H 0.75559 0.73376 0.64341 0.0
H657 H 0.8059 0.75815 0.60842 0.0
H658 H 0.82271 0.78366 0.64473 0.0
H659 H 0.81099 0.80456 0.60429 0.0
H660 H 0.70678 0.89271 0.62175 0.0
H661 H 0.7344 0.91673 0.67626 0.0
H662 H 0.79504 0.82147 0.69379 0.0
C663 C 0.7291 0.76534 0.57655 0.0
C664 C 0.70207 0.77234 0.55019 0.0
C665 C 0.68587 0.80572 0.54836 0.0
C666 C 0.69593 0.83146 0.5726 0.0
C667 C 0.72227 0.82349 0.59849 0.0
C668 C 0.7387 0.79127 0.60057 0.0
C669 C 0.76491 0.7887 0.6319 0.0
C670 C 0.754 0.75959 0.65592 0.0
C671 C 0.80341 0.78347 0.62171 0.0
C672 C 0.76021 0.8243 0.64744 0.0
C673 C 0.7357 0.84409 0.62765 0.0
C674 C 0.72615 0.87753 0.63736 0.0
C675 C 0.74183 0.89092 0.66826 0.0
C676 C 0.76648 0.8708 0.68912 0.0
C677 C 0.77615 0.83731 0.67828 0.0
H678 H 0.75519 0.19978 0.13419 0.0
H679 H 0.82696 0.28856 0.13398 0.0
H680 H 0.80746 0.30726 0.18964 0.0
H681 H 0.68304 0.24317 0.17481 0.0
H682 H 0.67295 0.2054 0.19951 0.0
H683 H 0.6911 0.20018 0.15866 0.0
H684 H 0.74303 0.16311 0.18725 0.0
H685 H 0.72529 0.16858 0.22825 0.0
H686 H 0.77089 0.18102 0.22253 0.0
H687 H 0.78111 0.31594 0.24552 0.0
H688 H 0.74881 0.31403 0.2981 0.0
H689 H 0.69596 0.21875 0.26286 0.0
C690 C 0.76633 0.22346 0.14559 0.0
C691 C 0.79245 0.2428 0.12973 0.0
C692 C 0.80691 0.27332 0.14573 0.0
C693 C 0.79603 0.28418 0.17732 0.0
C694 C 0.77081 0.26415 0.19262 0.0
C695 C 0.75604 0.23451 0.17731 0.0
C696 C 0.73028 0.21709 0.19976 0.0
C697 C 0.69208 0.21644 0.18213 0.0
C698 C 0.74316 0.18028 0.21005 0.0
C699 C 0.73298 0.24155 0.23005 0.0
C700 C 0.75642 0.26858 0.22538 0.0
C701 C 0.76291 0.29476 0.24965 0.0
C702 C 0.7447 0.29335 0.27947 0.0
C703 C 0.72087 0.26567 0.28485 0.0
C704 C 0.71482 0.23966 0.2597 0.0
H705 H 0.26258 0.30126 0.64487 0.0
H706 H 0.35084 0.22757 0.6455 0.0
H707 H 0.34283 0.2132 0.70529 0.0
H708 H 0.2822 0.33293 0.72976 0.0
H709 H 0.23603 0.33631 0.7395 0.0
H710 H 0.24759 0.3407 0.69602 0.0
H711 H 0.20365 0.29097 0.67704 0.0
H712 H 0.1915 0.28686 0.72035 0.0
H713 H 0.20765 0.24949 0.69843 0.0
H714 H 0.32682 0.2072 0.76482 0.0
H715 H 0.29953 0.20654 0.82018 0.0
H716 H 0.22176 0.28356 0.78197 0.0
C717 C 0.27985 0.28176 0.65745 0.0
C718 C 0.30742 0.2657 0.64046 0.0
C719 C 0.32965 0.24046 0.65795 0.0
C720 C 0.32543 0.23211 0.692 0.0
C721 C 0.29879 0.2491 0.70828 0.0
C722 C 0.27603 0.27304 0.69162 0.0
C723 C 0.24941 0.28717 0.71529 0.0
C724 C 0.25411 0.32662 0.72044 0.0
C725 C 0.21077 0.27806 0.70198 0.0
C726 C 0.26087 0.26736 0.7477 0.0
C727 C 0.28958 0.24574 0.74307 0.0
C728 C 0.30451 0.2242 0.76895 0.0
C729 C 0.28911 0.22418 0.80029 0.0
C730 C 0.25939 0.24574 0.80541 0.0
C731 C 0.2452 0.26767 0.77885 0.0
H732 H 0.6755 0.75407 0.37718 0.0
H733 H 0.75908 0.67956 0.40858 0.0
H734 H 0.78526 0.68723 0.3534 0.0
H735 H 0.66366 0.72815 0.28968 0.0
H736 H 0.65682 0.77177 0.27362 0.0
H737 H 0.64469 0.76087 0.31582 0.0
H738 H 0.68521 0.81049 0.34166 0.0
H739 H 0.69712 0.8218 0.29952 0.0
H740 H 0.73172 0.812 0.3327 0.0
H741 H 0.80192 0.70227 0.29449 0.0
H742 H 0.80981 0.72666 0.23715 0.0
H743 H 0.71591 0.79143 0.24463 0.0
C744 C 0.69941 0.73946 0.37261 0.0
C745 C 0.71517 0.71619 0.39732 0.0
C746 C 0.74653 0.69766 0.39019 0.0
C747 C 0.76154 0.70169 0.35883 0.0
C748 C 0.74499 0.72443 0.33492 0.0
C749 C 0.71483 0.74325 0.34154 0.0
C750 C 0.70251 0.76633 0.31167 0.0
C751 C 0.66468 0.75616 0.29683 0.0
C752 C 0.70426 0.80494 0.32201 0.0
C753 C 0.73045 0.75752 0.28719 0.0
C754 C 0.7546 0.73313 0.301 0.0
C755 C 0.78308 0.72122 0.28332 0.0
C756 C 0.78724 0.73498 0.25081 0.0
C757 C 0.76298 0.76018 0.23641 0.0
C758 C 0.7343 0.77157 0.25486 0.0
H759 H 0.75915 0.25346 0.94784 0.0
H760 H 0.84112 0.32157 0.99573 0.0
H761 H 0.82472 0.36674 0.95286 0.0
H762 H 0.77341 0.27547 0.8627 0.0
H763 H 0.72674 0.27374 0.84736 0.0
H764 H 0.74297 0.24748 0.88326 0.0
H765 H 0.69557 0.2748 0.91994 0.0
H766 H 0.67904 0.30103 0.88407 0.0
H767 H 0.69335 0.32144 0.92418 0.0
H768 H 0.8014 0.40364 0.90372 0.0
H769 H 0.77243 0.42966 0.8508 0.0
H770 H 0.70627 0.33768 0.8346 0.0
C771 C 0.77332 0.27804 0.94963 0.0
C772 C 0.80138 0.28395 0.97522 0.0
C773 C 0.81957 0.31635 0.97634 0.0
C774 C 0.8104 0.34225 0.95216 0.0
C775 C 0.78301 0.33539 0.92702 0.0
C776 C 0.76465 0.30416 0.92559 0.0
C777 C 0.73731 0.30289 0.89506 0.0
C778 C 0.74562 0.27313 0.87066 0.0
C779 C 0.69905 0.29987 0.90651 0.0
C780 C 0.74356 0.3381 0.87934 0.0
C781 C 0.76989 0.35652 0.89831 0.0
C782 C 0.78076 0.3895 0.88862 0.0
C783 C 0.76436 0.40399 0.85859 0.0
C784 C 0.7378 0.38527 0.83858 0.0
C785 C 0.72693 0.35219 0.84935 0.0
H786 H 0.24038 0.24304 0.47185 0.0
H787 H 0.33725 0.18376 0.49981 0.0
H788 H 0.31086 0.13283 0.46939 0.0
H789 H 0.17797 0.1728 0.48029 0.0
H790 H 0.14861 0.18588 0.44394 0.0
H791 H 0.17482 0.21801 0.4682 0.0
H792 H 0.20252 0.23858 0.41319 0.0
H793 H 0.17618 0.20673 0.38873 0.0
H794 H 0.22424 0.20733 0.38745 0.0
H795 H 0.27476 0.08845 0.43538 0.0
H796 H 0.23142 0.05423 0.39806 0.0
H797 H 0.15811 0.14173 0.39238 0.0
C798 C 0.2561 0.2194 0.47158 0.0
C799 C 0.29092 0.21754 0.48834 0.0
C800 C 0.31053 0.186 0.48722 0.0
C801 C 0.29576 0.1568 0.47007 0.0
C802 C 0.26134 0.15945 0.45412 0.0
C803 C 0.24179 0.18994 0.45453 0.0
C804 C 0.20559 0.18597 0.43475 0.0
C805 C 0.17494 0.19096 0.45821 0.0
C806 C 0.20194 0.21114 0.40422 0.0
C807 C 0.20799 0.14854 0.42309 0.0
C808 C 0.24032 0.13368 0.43468 0.0
C809 C 0.24918 0.09964 0.42642 0.0
C810 C 0.22444 0.08037 0.40543 0.0
C811 C 0.19125 0.09517 0.39325 0.0
C812 C 0.18299 0.12965 0.4022 0.0
H813 H 0.19111 0.7425 0.89301 0.0
H814 H 0.26576 0.82686 0.91869 0.0
H815 H 0.29877 0.81233 0.86876 0.0
H816 H 0.25556 0.68264 0.86771 0.0
H817 H 0.22703 0.66416 0.83323 0.0
H818 H 0.20755 0.68274 0.86956 0.0
H819 H 0.16861 0.72367 0.82943 0.0
H820 H 0.18804 0.70523 0.79292 0.0
H821 H 0.18996 0.75153 0.80017 0.0
H822 H 0.32514 0.78761 0.81756 0.0
H823 H 0.3447 0.75198 0.76983 0.0
H824 H 0.25372 0.68349 0.77778 0.0
C825 C 0.21418 0.75814 0.88797 0.0
C826 C 0.22578 0.78582 0.90982 0.0
C827 C 0.25636 0.80542 0.90246 0.0
C828 C 0.27522 0.79753 0.87403 0.0
C829 C 0.26319 0.76999 0.85317 0.0
C830 C 0.23346 0.75053 0.85978 0.0
C831 C 0.22729 0.72116 0.83429 0.0
C832 C 0.22951 0.68558 0.85228 0.0
C833 C 0.19134 0.72568 0.81294 0.0
C834 C 0.25866 0.72676 0.81279 0.0
C835 C 0.27877 0.75534 0.82386 0.0
C836 C 0.3096 0.76521 0.80859 0.0
C837 C 0.32053 0.74489 0.78165 0.0
C838 C 0.30091 0.71493 0.77073 0.0
C839 C 0.2692 0.70623 0.78597 0.0
loop_
_geom_bond_atom_site_label_1
_geom_bond_atom_site_label_2
_geom_bond_distance
_geom_bond_site_symmetry_2
_ccdc_geom_bond_type
Sc0 O3 2.025 . S
Sc0 O10 2.105 1_554 S
Sc0 O13 2.105 . S
Sc0 O16 2.105 . S
Sc0 O19 2.105 1_554 S
Sc1 O3 2.025 1_556 S
Sc1 O11 2.105 . S
Sc1 O15 2.105 1_556 S
Sc1 O17 2.105 1_556 S
Sc1 O21 2.105 . S
Sc2 O3 2.025 . S
Sc2 O12 2.105 1_554 S
Sc2 O14 2.105 . S
Sc2 O18 2.105 . S
Sc2 O20 2.105 1_554 S
O3 Sc0 2.025 . S
O3 Sc1 2.025 1_554 S
O3 Sc2 2.025 . S
C4 O10 1.268 . S
C4 O20 1.268 . S
C5 O11 1.268 . S
C5 O19 1.268 . S
C6 O12 1.268 . S
C6 O21 1.268 . S
C7 O13 1.268 . S
C7 O17 1.268 . S
C8 O14 1.268 . S
C8 O16 1.268 . S
C9 O15 1.268 . S
C9 O18 1.268 . S
O10 Sc0 2.105 1_556 S
O10 C4 1.268 . S
O11 Sc1 2.105 . S
O11 C5 1.268 . S
O12 Sc2 2.105 1_556 S
O12 C6 1.268 . S
O13 Sc0 2.105 . S
O13 C7 1.268 . S
O14 Sc2 2.105 . S
O14 C8 1.268 . S
O15 Sc1 2.105 1_554 S
O15 C9 1.268 . S
O16 Sc0 2.105 . S
O16 C8 1.268 . S
O17 Sc1 2.105 1_554 S
O17 C7 1.268 . S
O18 Sc2 2.105 . S
O18 C9 1.268 . S
O19 Sc0 2.105 1_556 S
O19 C5 1.268 . S
O20 Sc2 2.105 1_556 S
O20 C4 1.268 . S
O21 Sc1 2.105 . S
O21 C6 1.268 . S
Sc22 O25 2.025 . S
Sc22 O32 2.105 . S
Sc22 O35 2.105 . S
Sc22 O38 2.105 . S
Sc22 O41 2.105 . S
Sc23 O25 2.025 . S
Sc23 O33 2.105 . S
Sc23 O37 2.105 . S
Sc23 O39 2.105 . S
Sc23 O43 2.105 . S
Sc24 O25 2.025 . S
Sc24 O34 2.105 . S
Sc24 O36 2.105 . S
Sc24 O40 2.105 . S
Sc24 O42 2.105 . S
O25 Sc22 2.025 . S
O25 Sc23 2.025 . S
O25 Sc24 2.025 . S
C26 O32 1.268 . S
C26 O42 1.268 . S
C27 O33 1.268 . S
C27 O41 1.268 . S
C28 O34 1.268 . S
C28 O43 1.268 . S
C29 O35 1.268 . S
C29 O39 1.268 . S
C30 O36 1.268 . S
C30 O38 1.268 . S
C31 O37 1.268 . S
C31 O40 1.268 . S
O32 Sc22 2.105 . S
O32 C26 1.268 . S
O33 Sc23 2.105 . S
O33 C27 1.268 . S
O34 Sc24 2.105 . S
O34 C28 1.268 . S
O35 Sc22 2.105 . S
O35 C29 1.268 . S
O36 Sc24 2.105 . S
O36 C30 1.268 . S
O37 Sc23 2.105 . S
O37 C31 1.268 . S
O38 Sc22 2.105 . S
O38 C30 1.268 . S
O39 Sc23 2.105 . S
O39 C29 1.268 . S
O40 Sc24 2.105 . S
O40 C31 1.268 . S
O41 Sc22 2.105 . S
O41 C27 1.268 . S
O42 Sc24 2.105 . S
O42 C26 1.268 . S
O43 Sc23 2.105 . S
O43 C28 1.268 . S
Sc44 O47 2.025 . S
Sc44 O54 2.105 . S
Sc44 O57 2.105 . S
Sc44 O60 2.105 . S
Sc44 O63 2.105 . S
Sc45 O47 2.025 . S
Sc45 O55 2.105 . S
Sc45 O59 2.105 . S
Sc45 O61 2.105 . S
Sc45 O65 2.105 1_554 S
Sc46 O47 2.025 . S
Sc46 O56 2.105 1_554 S
Sc46 O58 2.105 . S
Sc46 O62 2.105 . S
Sc46 O64 2.105 . S
O47 Sc44 2.025 . S
O47 Sc45 2.025 . S
O47 Sc46 2.025 . S
C48 O54 1.251 1_556 S
C48 O64 1.263 1_556 S
C49 O55 1.268 1_556 S
C49 O63 1.268 1_556 S
C50 O56 1.268 . S
C50 O65 1.268 . S
C51 O57 1.268 . S
C51 O61 1.268 . S
C52 O58 1.268 . S
C52 O60 1.268 . S
C53 O59 1.268 . S
C53 O62 1.268 . S
O54 Sc44 2.105 . S
O54 C48 1.251 1_554 S
O55 Sc45 2.105 . S
O55 C49 1.268 1_554 S
O56 Sc46 2.105 1_556 S
O56 C50 1.268 . S
O57 Sc44 2.105 . S
O57 C51 1.268 . S
O58 Sc46 2.105 . S
O58 C52 1.268 . S
O59 Sc45 2.105 . S
O59 C53 1.268 . S
O60 Sc44 2.105 . S
O60 C52 1.268 . S
O61 Sc45 2.105 . S
O61 C51 1.268 . S
O62 Sc46 2.105 . S
O62 C53 1.268 . S
O63 Sc44 2.105 . S
O63 C49 1.268 1_554 S
O64 Sc46 2.105 . S
O64 C48 1.263 1_554 S
O65 Sc45 2.105 1_556 S
O65 C50 1.268 . S
Sc66 O69 2.025 . S
Sc66 O76 2.105 . S
Sc66 O79 2.105 . S
Sc66 O82 2.105 . S
Sc66 O85 2.105 . S
Sc67 O69 2.025 . S
Sc67 O77 2.105 . S
Sc67 O81 2.105 . S
Sc67 O83 2.105 . S
Sc67 O87 2.105 . S
Sc68 O69 2.025 . S
Sc68 O78 2.105 . S
Sc68 O80 2.105 . S
Sc68 O84 2.105 . S
Sc68 O86 2.105 . S
O69 Sc66 2.025 . S
O69 Sc67 2.025 . S
O69 Sc68 2.025 . S
C70 O76 1.268 . S
C70 O86 1.268 . S
C71 O77 1.268 . S
C71 O85 1.268 . S
C72 O78 1.268 . S
C72 O87 1.268 . S
C73 O79 1.268 . S
C73 O83 1.268 . S
C74 O80 1.268 . S
C74 O82 1.268 . S
C75 O81 1.268 . S
C75 O84 1.268 . S
O76 Sc66 2.105 . S
O76 C70 1.268 . S
O77 Sc67 2.105 . S
O77 C71 1.268 . S
O78 Sc68 2.105 . S
O78 C72 1.268 . S
O79 Sc66 2.105 . S
O79 C73 1.268 . S
O80 Sc68 2.105 . S
O80 C74 1.268 . S
O81 Sc67 2.105 . S
O81 C75 1.268 . S
O82 Sc66 2.105 . S
O82 C74 1.268 . S
O83 Sc67 2.105 . S
O83 C73 1.268 . S
O84 Sc68 2.105 . S
O84 C75 1.268 . S
O85 Sc66 2.105 . S
O85 C71 1.268 . S
O86 Sc68 2.105 . S
O86 C70 1.268 . S
O87 Sc67 2.105 . S
O87 C72 1.268 . S
H88 C95 0.929 . S
H89 C98 0.930 . S
H90 C100 0.929 . S
H91 C92 0.969 . S
C92 H91 0.969 . S
C92 O93 1.550 . S
C92 H94 0.973 . S
O93 C92 1.550 . S
O93 C99 1.412 . S
H94 C92 0.973 . S
C95 H88 0.929 . S
C95 C96 1.400 . S
C95 C97 1.364 . S
C96 C95 1.400 . S
C96 C100 1.377 . S
C97 C95 1.364 . S
C97 C98 1.374 . S
C98 H89 0.930 . S
C98 C97 1.374 . S
C98 C99 1.383 . S
C99 O93 1.412 . S
C99 C98 1.383 . S
C99 C100 1.394 . S
C100 H90 0.929 . S
C100 C96 1.377 . S
C100 C99 1.394 . S
H101 C108 0.929 . S
H102 C111 0.930 . S
H103 C113 0.929 . S
H104 C105 0.969 . S
C105 H104 0.969 . S
C105 O106 1.550 . S
C105 H107 0.973 . S
O106 C105 1.550 . S
O106 C112 1.412 . S
H107 C105 0.973 . S
C108 H101 0.929 . S
C108 C109 1.400 . S
C108 C110 1.364 . S
C109 C108 1.400 . S
C109 C113 1.377 . S
C110 C108 1.364 . S
C110 C111 1.374 . S
C111 H102 0.930 . S
C111 C110 1.374 . S
C111 C112 1.383 . S
C112 O106 1.412 . S
C112 C111 1.383 . S
C112 C113 1.394 . S
C113 H103 0.929 . S
C113 C109 1.377 . S
C113 C112 1.394 . S
H114 C121 0.929 . S
H115 C124 0.930 . S
H116 C126 0.929 . S
H117 C118 0.969 . S
C118 H117 0.969 . S
C118 O119 1.550 . S
C118 H120 0.973 . S
O119 C118 1.550 . S
O119 C125 1.412 . S
H120 C118 0.973 . S
C121 H114 0.929 . S
C121 C122 1.400 . S
C121 C123 1.364 . S
C122 C121 1.400 . S
C122 C126 1.377 . S
C123 C121 1.364 . S
C123 C124 1.374 . S
C124 H115 0.930 . S
C124 C123 1.374 . S
C124 C125 1.383 . S
C125 O119 1.412 . S
C125 C124 1.383 . S
C125 C126 1.394 . S
C126 H116 0.929 . S
C126 C122 1.377 . S
C126 C125 1.394 . S
H127 C134 0.929 . S
H128 C137 0.930 . S
H129 C139 0.929 . S
H130 C131 0.969 . S
C131 H130 0.969 . S
C131 O132 1.550 . S
C131 H133 0.973 . S
O132 C131 1.550 . S
O132 C138 1.412 . S
H133 C131 0.973 . S
C134 H127 0.929 . S
C134 C135 1.400 . S
C134 C136 1.364 . S
C135 C134 1.400 . S
C135 C139 1.377 . S
C136 C134 1.364 . S
C136 C137 1.374 . S
C137 H128 0.930 . S
C137 C136 1.374 . S
C137 C138 1.383 . S
C138 O132 1.412 . S
C138 C137 1.383 . S
C138 C139 1.394 . S
C139 H129 0.929 . S
C139 C135 1.377 . S
C139 C138 1.394 . S
H140 C147 0.929 . S
H141 C150 0.930 . S
H142 C152 0.929 . S
H143 C144 0.969 . S
C144 H143 0.969 . S
C144 O145 1.550 . S
C144 H146 0.973 . S
O145 C144 1.550 . S
O145 C151 1.412 . S
H146 C144 0.973 . S
C147 H140 0.929 . S
C147 C148 1.400 . S
C147 C149 1.364 . S
C148 C147 1.400 . S
C148 C152 1.377 . S
C149 C147 1.364 . S
C149 C150 1.374 . S
C150 H141 0.930 . S
C150 C149 1.374 . S
C150 C151 1.383 . S
C151 O145 1.412 . S
C151 C150 1.383 . S
C151 C152 1.394 . S
C152 H142 0.929 . S
C152 C148 1.377 . S
C152 C151 1.394 . S
H153 C160 0.929 . S
H154 C163 0.930 . S
H155 C165 0.929 . S
H156 C157 0.969 . S
C157 H156 0.969 . S
C157 O158 1.550 . S
C157 H159 0.973 . S
O158 C157 1.550 . S
O158 C164 1.412 . S
H159 C157 0.973 . S
C160 H153 0.929 . S
C160 C161 1.400 . S
C160 C162 1.364 . S
C161 C160 1.400 . S
C161 C165 1.377 . S
C162 C160 1.364 . S
C162 C163 1.374 . S
C163 H154 0.930 . S
C163 C162 1.374 . S
C163 C164 1.383 . S
C164 O158 1.412 . S
C164 C163 1.383 . S
C164 C165 1.394 . S
C165 H155 0.929 . S
C165 C161 1.377 . S
C165 C164 1.394 . S
H166 C173 0.929 . S
H167 C176 0.930 . S
H168 C178 0.929 . S
H169 C170 0.969 . S
C170 H169 0.969 . S
C170 O171 1.550 . S
C170 H172 0.973 . S
O171 C170 1.550 . S
O171 C177 1.412 . S
H172 C170 0.973 . S
C173 H166 0.929 . S
C173 C174 1.400 . S
C173 C175 1.364 . S
C174 C173 1.400 . S
C174 C178 1.377 . S
C175 C173 1.364 . S
C175 C176 1.374 . S
C176 H167 0.930 . S
C176 C175 1.374 . S
C176 C177 1.383 . S
C177 O171 1.412 . S
C177 C176 1.383 . S
C177 C178 1.394 . S
C178 H168 0.929 . S
C178 C174 1.377 . S
C178 C177 1.394 . S
H179 C186 0.929 . S
H180 C189 0.930 . S
H181 C191 0.929 . S
H182 C183 0.969 . S
C183 H182 0.969 . S
C183 O184 1.550 . S
C183 H185 0.973 . S
O184 C183 1.550 . S
O184 C190 1.412 . S
H185 C183 0.973 . S
C186 H179 0.929 . S
C186 C187 1.400 . S
C186 C188 1.364 . S
C187 C186 1.400 . S
C187 C191 1.377 . S
C188 C186 1.364 . S
C188 C189 1.374 . S
C189 H180 0.930 . S
C189 C188 1.374 . S
C189 C190 1.383 . S
C190 O184 1.412 . S
C190 C189 1.383 . S
C190 C191 1.394 . S
C191 H181 0.929 . S
C191 C187 1.377 . S
C191 C190 1.394 . S
H192 C204 0.930 . S
H193 C206 0.930 . S
H194 C207 0.930 . S
H195 C211 0.959 . S
H196 C211 0.959 . S
H197 C211 0.961 . S
H198 C212 0.960 . S
H199 C212 0.961 . S
H200 C212 0.959 1_565 S
H201 C215 0.929 . S
H202 C216 0.931 . S
H203 C218 0.930 . S
C204 H192 0.930 . S
C204 C205 1.399 . S
C204 C209 1.399 . S
C205 C204 1.399 . S
C205 C206 1.376 . S
C206 H193 0.930 . S
C206 C205 1.376 . S
C206 C207 1.388 . S
C207 H194 0.930 . S
C207 C206 1.388 . S
C207 C208 1.390 . S
C208 C207 1.390 . S
C208 C209 1.394 . S
C208 C214 1.465 . S
C209 C204 1.399 . S
C209 C208 1.394 . S
C209 C210 1.516 1_565 S
C210 C209 1.516 1_545 S
C210 C211 1.502 . S
C210 C212 1.561 . S
C210 C213 1.526 . S
C211 H195 0.959 . S
C211 H196 0.959 . S
C211 H197 0.961 . S
C211 C210 1.502 . S
C212 H198 0.960 . S
C212 H199 0.961 . S
C212 H200 0.959 1_545 S
C212 C210 1.561 . S
C213 C210 1.526 . S
C213 C214 1.396 1_545 S
C213 C218 1.390 . S
C214 C208 1.465 . S
C214 C213 1.396 1_565 S
C214 C215 1.399 . S
C215 H201 0.929 . S
C215 C214 1.399 . S
C215 C216 1.385 . S
C216 H202 0.931 . S
C216 C215 1.385 . S
C216 C217 1.389 1_565 S
C217 C216 1.389 1_545 S
C217 C218 1.387 . S
C218 H203 0.930 . S
C218 C213 1.390 . S
C218 C217 1.387 . S
H219 C231 0.930 . S
H220 C233 0.930 . S
H221 C234 0.930 . S
H222 C238 0.959 . S
H223 C238 0.959 . S
H224 C238 0.961 . S
H225 C239 0.960 . S
H226 C239 0.961 . S
H227 C239 0.959 . S
H228 C242 0.929 . S
H229 C243 0.931 . S
H230 C245 0.930 . S
C231 H219 0.930 . S
C231 C232 1.399 . S
C231 C236 1.399 . S
C232 C231 1.399 . S
C232 C233 1.376 . S
C233 H220 0.930 . S
C233 C232 1.376 . S
C233 C234 1.388 . S
C234 H221 0.930 . S
C234 C233 1.388 . S
C234 C235 1.390 . S
C235 C234 1.390 . S
C235 C236 1.394 . S
C235 C241 1.465 . S
C236 C231 1.399 . S
C236 C235 1.394 . S
C236 C237 1.516 . S
C237 C236 1.516 . S
C237 C238 1.502 . S
C237 C239 1.561 . S
C237 C240 1.526 . S
C238 H222 0.959 . S
C238 H223 0.959 . S
C238 H224 0.961 . S
C238 C237 1.502 . S
C239 H225 0.960 . S
C239 H226 0.961 . S
C239 H227 0.959 . S
C239 C237 1.561 . S
C240 C237 1.526 . S
C240 C241 1.396 . S
C240 C245 1.390 . S
C241 C235 1.465 . S
C241 C240 1.396 . S
C241 C242 1.399 . S
C242 H228 0.929 . S
C242 C241 1.399 . S
C242 C243 1.385 . S
C243 H229 0.931 . S
C243 C242 1.385 . S
C243 C244 1.389 . S
C244 C243 1.389 . S
C244 C245 1.387 . S
C245 H230 0.930 . S
C245 C240 1.390 . S
C245 C244 1.387 . S
H246 C258 0.930 . S
H247 C260 0.930 . S
H248 C261 0.930 . S
H249 C265 0.959 . S
H250 C265 0.959 . S
H251 C265 0.961 . S
H252 C266 0.960 . S
H253 C266 0.961 . S
H254 C266 0.959 . S
H255 C269 0.929 . S
H256 C270 0.931 . S
H257 C272 0.930 . S
C258 H246 0.930 . S
C258 C259 1.399 . S
C258 C263 1.399 1_545 S
C259 C258 1.399 . S
C259 C260 1.376 . S
C260 H247 0.930 . S
C260 C259 1.376 . S
C260 C261 1.388 . S
C261 H248 0.930 . S
C261 C260 1.388 . S
C261 C262 1.390 1_545 S
C262 C261 1.390 1_565 S
C262 C263 1.394 . S
C262 C268 1.465 . S
C263 C258 1.399 1_565 S
C263 C262 1.394 . S
C263 C264 1.516 . S
C264 C263 1.516 . S
C264 C265 1.502 . S
C264 C266 1.561 . S
C264 C267 1.526 . S
C265 H249 0.959 . S
C265 H250 0.959 . S
C265 H251 0.961 . S
C265 C264 1.502 . S
C266 H252 0.960 . S
C266 H253 0.961 . S
C266 H254 0.959 . S
C266 C264 1.561 . S
C267 C264 1.526 . S
C267 C268 1.396 . S
C267 C272 1.390 . S
C268 C262 1.465 . S
C268 C267 1.396 . S
C268 C269 1.399 . S
C269 H255 0.929 . S
C269 C268 1.399 . S
C269 C270 1.385 . S
C270 H256 0.931 . S
C270 C269 1.385 . S
C270 C271 1.389 . S
C271 C270 1.389 . S
C271 C272 1.387 . S
C272 H257 0.930 . S
C272 C267 1.390 . S
C272 C271 1.387 . S
H273 C285 0.930 . S
H274 C287 0.930 . S
H275 C288 0.930 . S
H276 C292 0.959 . S
H277 C292 0.959 . S
H278 C292 0.961 . S
H279 C293 0.960 . S
H280 C293 0.961 . S
H281 C293 0.959 . S
H282 C296 0.929 . S
H283 C297 0.931 . S
H284 C299 0.930 . S
C285 H273 0.930 . S
C285 C286 1.399 . S
C285 C290 1.399 . S
C286 C285 1.399 . S
C286 C287 1.376 . S
C287 H274 0.930 . S
C287 C286 1.376 . S
C287 C288 1.388 . S
C288 H275 0.930 . S
C288 C287 1.388 . S
C288 C289 1.390 . S
C289 C288 1.390 . S
C289 C290 1.394 . S
C289 C295 1.465 . S
C290 C285 1.399 . S
C290 C289 1.394 . S
C290 C291 1.516 . S
C291 C290 1.516 . S
C291 C292 1.502 . S
C291 C293 1.561 . S
C291 C294 1.526 . S
C292 H276 0.959 . S
C292 H277 0.959 . S
C292 H278 0.961 . S
C292 C291 1.502 . S
C293 H279 0.960 . S
C293 H280 0.961 . S
C293 H281 0.959 . S
C293 C291 1.561 . S
C294 C291 1.526 . S
C294 C295 1.396 . S
C294 C299 1.390 . S
C295 C289 1.465 . S
C295 C294 1.396 . S
C295 C296 1.399 . S
C296 H282 0.929 . S
C296 C295 1.399 . S
C296 C297 1.385 . S
C297 H283 0.931 . S
C297 C296 1.385 . S
C297 C298 1.389 . S
C298 C297 1.389 . S
C298 C299 1.387 . S
C299 H284 0.930 . S
C299 C294 1.390 . S
C299 C298 1.387 . S
H300 C312 0.930 . S
H301 C314 0.930 . S
H302 C315 0.930 . S
H303 C319 0.959 . S
H304 C319 0.959 . S
H305 C319 0.961 . S
H306 C320 0.960 . S
H307 C320 0.961 . S
H308 C320 0.959 . S
H309 C323 0.929 . S
H310 C324 0.931 . S
H311 C326 0.930 . S
C312 H300 0.930 . S
C312 C313 1.399 . S
C312 C317 1.399 . S
C313 C312 1.399 . S
C313 C314 1.376 . S
C314 H301 0.930 . S
C314 C313 1.376 . S
C314 C315 1.388 . S
C315 H302 0.930 . S
C315 C314 1.388 . S
C315 C316 1.390 . S
C316 C315 1.390 . S
C316 C317 1.394 . S
C316 C322 1.465 . S
C317 C312 1.399 . S
C317 C316 1.394 . S
C317 C318 1.516 . S
C318 C317 1.516 . S
C318 C319 1.502 . S
C318 C320 1.561 . S
C318 C321 1.526 . S
C319 H303 0.959 . S
C319 H304 0.959 . S
C319 H305 0.961 . S
C319 C318 1.502 . S
C320 H306 0.960 . S
C320 H307 0.961 . S
C320 H308 0.959 . S
C320 C318 1.561 . S
C321 C318 1.526 . S
C321 C322 1.396 . S
C321 C326 1.390 . S
C322 C316 1.465 . S
C322 C321 1.396 . S
C322 C323 1.399 . S
C323 H309 0.929 . S
C323 C322 1.399 . S
C323 C324 1.385 . S
C324 H310 0.931 . S
C324 C323 1.385 . S
C324 C325 1.389 . S
C325 C324 1.389 . S
C325 C326 1.387 . S
C326 H311 0.930 . S
C326 C321 1.390 . S
C326 C325 1.387 . S
H327 C339 0.930 . S
H328 C341 0.930 . S
H329 C342 0.930 . S
H330 C346 0.959 . S
H331 C346 0.959 . S
H332 C346 0.961 . S
H333 C347 0.960 . S
H334 C347 0.961 . S
H335 C347 0.959 . S
H336 C350 0.929 . S
H337 C351 0.931 . S
H338 C353 0.930 . S
C339 H327 0.930 . S
C339 C340 1.399 . S
C339 C344 1.399 1_655 S
C340 C339 1.399 . S
C340 C341 1.376 . S
C341 H328 0.930 . S
C341 C340 1.376 . S
C341 C342 1.388 . S
C342 H329 0.930 . S
C342 C341 1.388 . S
C342 C343 1.390 1_655 S
C343 C342 1.390 1_455 S
C343 C344 1.394 . S
C343 C349 1.465 . S
C344 C339 1.399 1_455 S
C344 C343 1.394 . S
C344 C345 1.516 . S
C345 C344 1.516 . S
C345 C346 1.502 . S
C345 C347 1.561 . S
C345 C348 1.526 . S
C346 H330 0.959 . S
C346 H331 0.959 . S
C346 H332 0.961 . S
C346 C345 1.502 . S
C347 H333 0.960 . S
C347 H334 0.961 . S
C347 H335 0.959 . S
C347 C345 1.561 . S
C348 C345 1.526 . S
C348 C349 1.396 . S
C348 C353 1.390 . S
C349 C343 1.465 . S
C349 C348 1.396 . S
C349 C350 1.399 . S
C350 H336 0.929 . S
C350 C349 1.399 . S
C350 C351 1.385 . S
C351 H337 0.931 . S
C351 C350 1.385 . S
C351 C352 1.389 . S
C352 C351 1.389 . S
C352 C353 1.387 . S
C353 H338 0.930 . S
C353 C348 1.390 . S
C353 C352 1.387 . S
H354 C366 0.930 . S
H355 C368 0.930 . S
H356 C369 0.930 . S
H357 C373 0.959 . S
H358 C373 0.959 . S
H359 C373 0.961 . S
H360 C374 0.960 . S
H361 C374 0.961 . S
H362 C374 0.959 . S
H363 C377 0.929 . S
H364 C378 0.931 . S
H365 C380 0.930 . S
C366 H354 0.930 . S
C366 C367 1.399 . S
C366 C371 1.399 . S
C367 C366 1.399 . S
C367 C368 1.376 . S
C368 H355 0.930 . S
C368 C367 1.376 . S
C368 C369 1.388 . S
C369 H356 0.930 . S
C369 C368 1.388 . S
C369 C370 1.390 . S
C370 C369 1.390 . S
C370 C371 1.394 . S
C370 C376 1.465 . S
C371 C366 1.399 . S
C371 C370 1.394 . S
C371 C372 1.516 . S
C372 C371 1.516 . S
C372 C373 1.502 . S
C372 C374 1.561 . S
C372 C375 1.526 . S
C373 H357 0.959 . S
C373 H358 0.959 . S
C373 H359 0.961 . S
C373 C372 1.502 . S
C374 H360 0.960 . S
C374 H361 0.961 . S
C374 H362 0.959 . S
C374 C372 1.561 . S
C375 C372 1.526 . S
C375 C376 1.396 . S
C375 C380 1.390 . S
C376 C370 1.465 . S
C376 C375 1.396 . S
C376 C377 1.399 . S
C377 H363 0.929 . S
C377 C376 1.399 . S
C377 C378 1.385 . S
C378 H364 0.931 . S
C378 C377 1.385 . S
C378 C379 1.389 . S
C379 C378 1.389 . S
C379 C380 1.387 . S
C380 H365 0.930 . S
C380 C375 1.390 . S
C380 C379 1.387 . S
H381 C393 0.930 . S
H382 C395 0.930 . S
H383 C396 0.930 . S
H384 C400 0.959 . S
H385 C400 0.959 . S
H386 C400 0.961 . S
H387 C401 0.960 . S
H388 C401 0.961 . S
H389 C401 0.959 . S
H390 C404 0.929 . S
H391 C405 0.931 . S
H392 C407 0.930 . S
C393 H381 0.930 . S
C393 C394 1.399 . S
C393 C398 1.399 1_455 S
C394 C393 1.399 . S
C394 C395 1.376 . S
C395 H382 0.930 . S
C395 C394 1.376 . S
C395 C396 1.388 . S
C396 H383 0.930 . S
C396 C395 1.388 . S
C396 C397 1.407 . S
C397 C396 1.407 . S
C397 C398 1.387 1_455 S
C397 C403 1.453 1_455 S
C398 C393 1.399 1_655 S
C398 C397 1.387 1_655 S
C398 C399 1.516 . S
C399 C398 1.516 . S
C399 C400 1.502 . S
C399 C401 1.561 . S
C399 C402 1.526 . S
C400 H384 0.959 . S
C400 H385 0.959 . S
C400 H386 0.961 . S
C400 C399 1.502 . S
C401 H387 0.960 . S
C401 H388 0.961 . S
C401 H389 0.959 . S
C401 C399 1.561 . S
C402 C399 1.526 . S
C402 C403 1.396 . S
C402 C407 1.390 . S
C403 C397 1.453 1_655 S
C403 C402 1.396 . S
C403 C404 1.399 . S
C404 H390 0.929 . S
C404 C403 1.399 . S
C404 C405 1.385 . S
C405 H391 0.931 . S
C405 C404 1.385 . S
C405 C406 1.389 . S
C406 C405 1.389 . S
C406 C407 1.387 . S
C407 H392 0.930 . S
C407 C402 1.390 . S
C407 C406 1.387 . S
H408 C420 0.930 . S
H409 C422 0.930 . S
H410 C423 0.930 . S
H411 C427 0.959 . S
H412 C427 0.959 . S
H413 C427 0.961 . S
H414 C428 0.960 . S
H415 C428 0.961 1_565 S
H416 C428 0.959 . S
H417 C431 0.929 . S
H418 C432 0.931 . S
H419 C434 0.930 . S
C420 H408 0.930 . S
C420 C421 1.399 . S
C420 C425 1.399 . S
C421 C420 1.399 . S
C421 C422 1.376 . S
C422 H409 0.930 . S
C422 C421 1.376 . S
C422 C423 1.388 . S
C423 H410 0.930 . S
C423 C422 1.388 . S
C423 C424 1.390 . S
C424 C423 1.390 . S
C424 C425 1.394 . S
C424 C430 1.465 . S
C425 C420 1.399 . S
C425 C424 1.394 . S
C425 C426 1.516 . S
C426 C425 1.516 . S
C426 C427 1.502 1_545 S
C426 C428 1.561 . S
C426 C429 1.525 1_545 S
C427 H411 0.959 . S
C427 H412 0.959 . S
C427 H413 0.961 . S
C427 C426 1.502 1_565 S
C428 H414 0.960 . S
C428 H415 0.961 1_545 S
C428 H416 0.959 . S
C428 C426 1.561 . S
C429 C426 1.525 1_565 S
C429 C430 1.385 1_565 S
C429 C434 1.400 . S
C430 C424 1.465 . S
C430 C429 1.385 1_545 S
C430 C431 1.399 . S
C431 H417 0.929 . S
C431 C430 1.399 . S
C431 C432 1.385 . S
C432 H418 0.931 . S
C432 C431 1.385 . S
C432 C433 1.389 1_545 S
C433 C432 1.389 1_565 S
C433 C434 1.387 . S
C434 H419 0.930 . S
C434 C429 1.400 . S
C434 C433 1.387 . S
H435 C447 0.930 . S
H436 C449 0.930 . S
H437 C450 0.930 . S
H438 C454 0.959 . S
H439 C454 0.959 . S
H440 C454 0.961 . S
H441 C455 0.960 . S
H442 C455 0.961 . S
H443 C455 0.959 . S
H444 C458 0.929 . S
H445 C459 0.931 . S
H446 C461 0.930 . S
C447 H435 0.930 . S
C447 C448 1.399 . S
C447 C452 1.399 . S
C448 C447 1.399 . S
C448 C449 1.376 . S
C449 H436 0.930 . S
C449 C448 1.376 . S
C449 C450 1.388 . S
C450 H437 0.930 . S
C450 C449 1.388 . S
C450 C451 1.390 . S
C451 C450 1.390 . S
C451 C452 1.394 . S
C451 C457 1.465 . S
C452 C447 1.399 . S
C452 C451 1.394 . S
C452 C453 1.516 . S
C453 C452 1.516 . S
C453 C454 1.502 . S
C453 C455 1.561 . S
C453 C456 1.526 . S
C454 H438 0.959 . S
C454 H439 0.959 . S
C454 H440 0.961 . S
C454 C453 1.502 . S
C455 H441 0.960 . S
C455 H442 0.961 . S
C455 H443 0.959 . S
C455 C453 1.561 . S
C456 C453 1.526 . S
C456 C457 1.396 . S
C456 C461 1.390 . S
C457 C451 1.465 . S
C457 C456 1.396 . S
C457 C458 1.399 . S
C458 H444 0.929 . S
C458 C457 1.399 . S
C458 C459 1.385 . S
C459 H445 0.931 . S
C459 C458 1.385 . S
C459 C460 1.389 . S
C460 C459 1.389 . S
C460 C461 1.387 . S
C461 H446 0.930 . S
C461 C456 1.390 . S
C461 C460 1.387 . S
H462 C474 0.930 . S
H463 C476 0.930 . S
H464 C477 0.930 . S
H465 C481 0.959 . S
H466 C481 0.959 . S
H467 C481 0.961 1_565 S
H468 C482 0.960 1_565 S
H469 C482 0.961 . S
H470 C482 0.959 . S
H471 C485 0.929 . S
H472 C486 0.931 . S
H473 C488 0.930 . S
C474 H462 0.930 . S
C474 C475 1.399 . S
C474 C479 1.399 1_565 S
C475 C474 1.399 . S
C475 C476 1.376 . S
C476 H463 0.930 . S
C476 C475 1.376 . S
C476 C477 1.388 1_565 S
C477 H464 0.930 . S
C477 C476 1.388 1_545 S
C477 C478 1.390 . S
C478 C477 1.390 . S
C478 C479 1.394 . S
C478 C484 1.465 . S
C479 C474 1.399 1_545 S
C479 C478 1.394 . S
C479 C480 1.516 . S
C480 C479 1.516 . S
C480 C481 1.502 . S
C480 C482 1.561 . S
C480 C483 1.526 . S
C481 H465 0.959 . S
C481 H466 0.959 . S
C481 H467 0.961 1_545 S
C481 C480 1.502 . S
C482 H468 0.960 1_545 S
C482 H469 0.961 . S
C482 H470 0.959 . S
C482 C480 1.561 . S
C483 C480 1.526 . S
C483 C484 1.396 . S
C483 C488 1.390 . S
C484 C478 1.465 . S
C484 C483 1.396 . S
C484 C485 1.399 . S
C485 H471 0.929 . S
C485 C484 1.399 . S
C485 C486 1.385 . S
C486 H472 0.931 . S
C486 C485 1.385 . S
C486 C487 1.389 . S
C487 C486 1.389 . S
C487 C488 1.387 . S
C488 H473 0.930 . S
C488 C483 1.390 . S
C488 C487 1.387 . S
H489 C501 0.930 . S
H490 C503 0.930 . S
H491 C504 0.930 . S
H492 C508 0.959 . S
H493 C508 0.959 . S
H494 C508 0.961 . S
H495 C509 0.960 . S
H496 C509 0.961 . S
H497 C509 0.959 . S
H498 C512 0.929 . S
H499 C513 0.931 . S
H500 C515 0.930 . S
C501 H489 0.930 . S
C501 C502 1.399 . S
C501 C506 1.399 . S
C502 C501 1.399 . S
C502 C503 1.376 . S
C503 H490 0.930 . S
C503 C502 1.376 . S
C503 C504 1.388 . S
C504 H491 0.930 . S
C504 C503 1.388 . S
C504 C505 1.390 . S
C505 C504 1.390 . S
C505 C506 1.394 . S
C505 C511 1.465 . S
C506 C501 1.399 . S
C506 C505 1.394 . S
C506 C507 1.516 . S
C507 C506 1.516 . S
C507 C508 1.502 . S
C507 C509 1.561 . S
C507 C510 1.526 . S
C508 H492 0.959 . S
C508 H493 0.959 . S
C508 H494 0.961 . S
C508 C507 1.502 . S
C509 H495 0.960 . S
C509 H496 0.961 . S
C509 H497 0.959 . S
C509 C507 1.561 . S
C510 C507 1.526 . S
C510 C511 1.396 . S
C510 C515 1.390 . S
C511 C505 1.465 . S
C511 C510 1.396 . S
C511 C512 1.399 . S
C512 H498 0.929 . S
C512 C511 1.399 . S
C512 C513 1.385 . S
C513 H499 0.931 . S
C513 C512 1.385 . S
C513 C514 1.389 . S
C514 C513 1.389 . S
C514 C515 1.387 . S
C515 H500 0.930 . S
C515 C510 1.390 . S
C515 C514 1.387 . S
H516 C528 0.930 . S
H517 C530 0.930 . S
H518 C531 0.930 . S
H519 C535 0.959 . S
H520 C535 0.959 . S
H521 C535 0.961 . S
H522 C536 0.960 . S
H523 C536 0.961 . S
H524 C536 0.959 . S
H525 C539 0.929 . S
H526 C540 0.931 . S
H527 C542 0.930 . S
C528 H516 0.930 . S
C528 C529 1.399 . S
C528 C533 1.399 . S
C529 C528 1.399 . S
C529 C530 1.376 . S
C530 H517 0.930 . S
C530 C529 1.376 . S
C530 C531 1.388 . S
C531 H518 0.930 . S
C531 C530 1.388 . S
C531 C532 1.390 . S
C532 C531 1.390 . S
C532 C533 1.394 . S
C532 C538 1.465 . S
C533 C528 1.399 . S
C533 C532 1.394 . S
C533 C534 1.516 . S
C534 C533 1.516 . S
C534 C535 1.502 . S
C534 C536 1.561 . S
C534 C537 1.526 . S
C535 H519 0.959 . S
C535 H520 0.959 . S
C535 H521 0.961 . S
C535 C534 1.502 . S
C536 H522 0.960 . S
C536 H523 0.961 . S
C536 H524 0.959 . S
C536 C534 1.561 . S
C537 C534 1.526 . S
C537 C538 1.396 . S
C537 C542 1.390 . S
C538 C532 1.465 . S
C538 C537 1.396 . S
C538 C539 1.399 . S
C539 H525 0.929 . S
C539 C538 1.399 . S
C539 C540 1.385 . S
C540 H526 0.931 . S
C540 C539 1.385 . S
C540 C541 1.389 . S
C541 C540 1.389 . S
C541 C542 1.387 . S
C542 H527 0.930 . S
C542 C537 1.390 . S
C542 C541 1.387 . S
H543 C555 0.930 . S
H544 C557 0.930 . S
H545 C558 0.930 . S
H546 C562 0.959 . S
H547 C562 0.959 . S
H548 C562 0.946 1_455 S
H549 C563 0.960 . S
H550 C563 0.961 . S
H551 C563 0.959 . S
H552 C566 0.929 . S
H553 C567 0.931 . S
H554 C569 0.930 . S
C555 H543 0.930 . S
C555 C556 1.399 . S
C555 C560 1.399 1_455 S
C556 C555 1.399 . S
C556 C557 1.376 . S
C557 H544 0.930 . S
C557 C556 1.376 . S
C557 C558 1.388 1_455 S
C558 H545 0.930 . S
C558 C557 1.388 1_655 S
C558 C559 1.390 . S
C559 C558 1.390 . S
C559 C560 1.394 . S
C559 C565 1.465 . S
C560 C555 1.399 1_655 S
C560 C559 1.394 . S
C560 C561 1.516 . S
C561 C560 1.516 . S
C561 C562 1.502 . S
C561 C563 1.561 . S
C561 C564 1.526 . S
C562 H546 0.959 . S
C562 H547 0.959 . S
C562 H548 0.946 1_655 S
C562 C561 1.502 . S
C563 H549 0.960 . S
C563 H550 0.961 . S
C563 H551 0.959 . S
C563 C561 1.561 . S
C564 C561 1.526 . S
C564 C565 1.396 . S
C564 C569 1.390 . S
C565 C559 1.465 . S
C565 C564 1.396 . S
C565 C566 1.399 . S
C566 H552 0.929 . S
C566 C565 1.399 . S
C566 C567 1.385 . S
C567 H553 0.931 . S
C567 C566 1.385 . S
C567 C568 1.389 . S
C568 C567 1.389 . S
C568 C569 1.387 . S
C569 H554 0.930 . S
C569 C564 1.390 . S
C569 C568 1.387 . S
H570 C582 0.930 . S
H571 C584 0.930 . S
H572 C585 0.930 . S
H573 C589 0.959 . S
H574 C589 0.959 . S
H575 C589 0.961 . S
H576 C590 0.960 . S
H577 C590 0.961 . S
H578 C590 0.959 . S
H579 C593 0.929 . S
H580 C594 0.931 . S
H581 C596 0.930 . S
C582 H570 0.930 . S
C582 C583 1.399 . S
C582 C587 1.399 . S
C583 C582 1.399 . S
C583 C584 1.376 . S
C584 H571 0.930 . S
C584 C583 1.376 . S
C584 C585 1.388 . S
C585 H572 0.930 . S
C585 C584 1.388 . S
C585 C586 1.390 . S
C586 C585 1.390 . S
C586 C587 1.394 . S
C586 C592 1.465 . S
C587 C582 1.399 . S
C587 C586 1.394 . S
C587 C588 1.516 . S
C588 C587 1.516 . S
C588 C589 1.502 . S
C588 C590 1.561 . S
C588 C591 1.526 . S
C589 H573 0.959 . S
C589 H574 0.959 . S
C589 H575 0.961 . S
C589 C588 1.502 . S
C590 H576 0.960 . S
C590 H577 0.961 . S
C590 H578 0.959 . S
C590 C588 1.561 . S
C591 C588 1.526 . S
C591 C592 1.396 . S
C591 C596 1.390 . S
C592 C586 1.465 . S
C592 C591 1.396 . S
C592 C593 1.399 . S
C593 H579 0.929 . S
C593 C592 1.399 . S
C593 C594 1.385 . S
C594 H580 0.931 . S
C594 C593 1.385 . S
C594 C595 1.389 . S
C595 C594 1.389 . S
C595 C596 1.387 . S
C596 H581 0.930 . S
C596 C591 1.390 . S
C596 C595 1.387 . S
H597 C609 0.930 . S
H598 C611 0.930 . S
H599 C612 0.930 . S
H600 C616 0.959 . S
H601 C616 0.959 1_455 S
H602 C616 0.961 . S
H603 C617 0.960 . S
H604 C617 0.961 . S
H605 C617 0.959 . S
H606 C620 0.929 . S
H607 C621 0.931 . S
H608 C623 0.930 . S
C609 H597 0.930 . S
C609 C610 1.399 . S
C609 C614 1.395 1_655 S
C610 C609 1.399 . S
C610 C611 1.376 . S
C611 H598 0.930 . S
C611 C610 1.376 . S
C611 C612 1.388 1_655 S
C612 H599 0.930 . S
C612 C611 1.388 1_455 S
C612 C613 1.390 . S
C613 C612 1.390 . S
C613 C614 1.397 . S
C613 C619 1.465 . S
C614 C609 1.395 1_455 S
C614 C613 1.397 . S
C614 C615 1.518 . S
C615 C614 1.518 . S
C615 C616 1.502 1_455 S
C615 C617 1.561 . S
C615 C618 1.526 . S
C616 H600 0.959 . S
C616 H601 0.959 1_655 S
C616 H602 0.961 . S
C616 C615 1.502 1_655 S
C617 H603 0.960 . S
C617 H604 0.961 . S
C617 H605 0.959 . S
C617 C615 1.561 . S
C618 C615 1.526 . S
C618 C619 1.396 . S
C618 C623 1.390 . S
C619 C613 1.465 . S
C619 C618 1.396 . S
C619 C620 1.399 . S
C620 H606 0.929 . S
C620 C619 1.399 . S
C620 C621 1.385 . S
C621 H607 0.931 . S
C621 C620 1.385 . S
C621 C622 1.389 . S
C622 C621 1.389 . S
C622 C623 1.387 . S
C623 H608 0.930 . S
C623 C618 1.390 . S
C623 C622 1.387 . S
H624 C636 0.930 . S
H625 C638 0.930 . S
H626 C639 0.930 . S
H627 C643 0.959 . S
H628 C643 0.959 . S
H629 C643 0.961 . S
H630 C644 0.960 . S
H631 C644 0.961 . S
H632 C644 0.959 . S
H633 C647 0.929 . S
H634 C648 0.931 . S
H635 C650 0.930 . S
C636 H624 0.930 . S
C636 C637 1.399 . S
C636 C641 1.399 . S
C637 C636 1.399 . S
C637 C638 1.376 . S
C638 H625 0.930 . S
C638 C637 1.376 . S
C638 C639 1.388 . S
C639 H626 0.930 . S
C639 C638 1.388 . S
C639 C640 1.390 . S
C640 C639 1.390 . S
C640 C641 1.394 . S
C640 C646 1.465 . S
C641 C636 1.399 . S
C641 C640 1.394 . S
C641 C642 1.516 . S
C642 C641 1.516 . S
C642 C643 1.502 . S
C642 C644 1.561 . S
C642 C645 1.526 . S
C643 H627 0.959 . S
C643 H628 0.959 . S
C643 H629 0.961 . S
C643 C642 1.502 . S
C644 H630 0.960 . S
C644 H631 0.961 . S
C644 H632 0.959 . S
C644 C642 1.561 . S
C645 C642 1.526 . S
C645 C646 1.396 . S
C645 C650 1.390 . S
C646 C640 1.465 . S
C646 C645 1.396 . S
C646 C647 1.399 . S
C647 H633 0.929 . S
C647 C646 1.399 . S
C647 C648 1.385 . S
C648 H634 0.931 . S
C648 C647 1.385 . S
C648 C649 1.389 . S
C649 C648 1.389 . S
C649 C650 1.387 . S
C650 H635 0.930 . S
C650 C645 1.390 . S
C650 C649 1.387 . S
H651 C663 0.930 . S
H652 C665 0.930 . S
H653 C666 0.930 . S
H654 C670 0.959 . S
H655 C670 0.959 . S
H656 C670 0.961 . S
H657 C671 0.960 . S
H658 C671 0.961 . S
H659 C671 0.959 . S
H660 C674 0.929 . S
H661 C675 0.931 . S
H662 C677 0.930 . S
C663 H651 0.930 . S
C663 C664 1.399 . S
C663 C668 1.399 . S
C664 C663 1.399 . S
C664 C665 1.376 . S
C665 H652 0.930 . S
C665 C664 1.376 . S
C665 C666 1.388 . S
C666 H653 0.930 . S
C666 C665 1.388 . S
C666 C667 1.390 . S
C667 C666 1.390 . S
C667 C668 1.394 . S
C667 C673 1.465 . S
C668 C663 1.399 . S
C668 C667 1.394 . S
C668 C669 1.516 . S
C669 C668 1.516 . S
C669 C670 1.502 . S
C669 C671 1.561 . S
C669 C672 1.526 . S
C670 H654 0.959 . S
C670 H655 0.959 . S
C670 H656 0.961 . S
C670 C669 1.502 . S
C671 H657 0.960 . S
C671 H658 0.961 . S
C671 H659 0.959 . S
C671 C669 1.561 . S
C672 C669 1.526 . S
C672 C673 1.396 . S
C672 C677 1.390 . S
C673 C667 1.465 . S
C673 C672 1.396 . S
C673 C674 1.399 . S
C674 H660 0.929 . S
C674 C673 1.399 . S
C674 C675 1.385 . S
C675 H661 0.931 . S
C675 C674 1.385 . S
C675 C676 1.389 . S
C676 C675 1.389 . S
C676 C677 1.387 . S
C677 H662 0.930 . S
C677 C672 1.390 . S
C677 C676 1.387 . S
H678 C690 0.930 . S
H679 C692 0.930 . S
H680 C693 0.930 . S
H681 C697 0.959 . S
H682 C697 0.959 . S
H683 C697 0.961 . S
H684 C698 0.960 . S
H685 C698 0.961 . S
H686 C698 0.959 . S
H687 C701 0.929 . S
H688 C702 0.931 . S
H689 C704 0.930 . S
C690 H678 0.930 . S
C690 C691 1.399 . S
C690 C695 1.399 . S
C691 C690 1.399 . S
C691 C692 1.376 . S
C692 H679 0.930 . S
C692 C691 1.376 . S
C692 C693 1.388 . S
C693 H680 0.930 . S
C693 C692 1.388 . S
C693 C694 1.390 . S
C694 C693 1.390 . S
C694 C695 1.394 . S
C694 C700 1.465 . S
C695 C690 1.399 . S
C695 C694 1.394 . S
C695 C696 1.516 . S
C696 C695 1.516 . S
C696 C697 1.502 . S
C696 C698 1.561 . S
C696 C699 1.526 . S
C697 H681 0.959 . S
C697 H682 0.959 . S
C697 H683 0.961 . S
C697 C696 1.502 . S
C698 H684 0.960 . S
C698 H685 0.961 . S
C698 H686 0.959 . S
C698 C696 1.561 . S
C699 C696 1.526 . S
C699 C700 1.396 . S
C699 C704 1.390 . S
C700 C694 1.465 . S
C700 C699 1.396 . S
C700 C701 1.399 . S
C701 H687 0.929 . S
C701 C700 1.399 . S
C701 C702 1.385 . S
C702 H688 0.931 . S
C702 C701 1.385 . S
C702 C703 1.389 . S
C703 C702 1.389 . S
C703 C704 1.387 . S
C704 H689 0.930 . S
C704 C699 1.390 . S
C704 C703 1.387 . S
H705 C717 0.930 . S
H706 C719 0.930 . S
H707 C720 0.930 . S
H708 C724 0.959 . S
H709 C724 0.959 . S
H710 C724 0.961 . S
H711 C725 0.960 . S
H712 C725 0.961 . S
H713 C725 0.959 . S
H714 C728 0.929 . S
H715 C729 0.931 . S
H716 C731 0.930 . S
C717 H705 0.930 . S
C717 C718 1.399 . S
C717 C722 1.399 . S
C718 C717 1.399 . S
C718 C719 1.376 . S
C719 H706 0.930 . S
C719 C718 1.376 . S
C719 C720 1.388 . S
C720 H707 0.930 . S
C720 C719 1.388 . S
C720 C721 1.390 . S
C721 C720 1.390 . S
C721 C722 1.394 . S
C721 C727 1.465 . S
C722 C717 1.399 . S
C722 C721 1.394 . S
C722 C723 1.516 . S
C723 C722 1.516 . S
C723 C724 1.502 . S
C723 C725 1.561 . S
C723 C726 1.526 . S
C724 H708 0.959 . S
C724 H709 0.959 . S
C724 H710 0.961 . S
C724 C723 1.502 . S
C725 H711 0.960 . S
C725 H712 0.961 . S
C725 H713 0.959 . S
C725 C723 1.561 . S
C726 C723 1.526 . S
C726 C727 1.396 . S
C726 C731 1.390 . S
C727 C721 1.465 . S
C727 C726 1.396 . S
C727 C728 1.399 . S
C728 H714 0.929 . S
C728 C727 1.399 . S
C728 C729 1.385 . S
C729 H715 0.931 . S
C729 C728 1.385 . S
C729 C730 1.389 . S
C730 C729 1.389 . S
C730 C731 1.387 . S
C731 H716 0.930 . S
C731 C726 1.390 . S
C731 C730 1.387 . S
H732 C744 0.930 . S
H733 C746 0.930 . S
H734 C747 0.930 . S
H735 C751 0.959 . S
H736 C751 0.959 . S
H737 C751 0.961 . S
H738 C752 0.960 . S
H739 C752 0.961 . S
H740 C752 0.959 . S
H741 C755 0.929 . S
H742 C756 0.931 . S
H743 C758 0.930 . S
C744 H732 0.930 . S
C744 C745 1.399 . S
C744 C749 1.399 . S
C745 C744 1.399 . S
C745 C746 1.376 . S
C746 H733 0.930 . S
C746 C745 1.376 . S
C746 C747 1.388 . S
C747 H734 0.930 . S
C747 C746 1.388 . S
C747 C748 1.390 . S
C748 C747 1.390 . S
C748 C749 1.394 . S
C748 C754 1.465 . S
C749 C744 1.399 . S
C749 C748 1.394 . S
C749 C750 1.516 . S
C750 C749 1.516 . S
C750 C751 1.502 . S
C750 C752 1.561 . S
C750 C753 1.526 . S
C751 H735 0.959 . S
C751 H736 0.959 . S
C751 H737 0.961 . S
C751 C750 1.502 . S
C752 H738 0.960 . S
C752 H739 0.961 . S
C752 H740 0.959 . S
C752 C750 1.561 . S
C753 C750 1.526 . S
C753 C754 1.396 . S
C753 C758 1.390 . S
C754 C748 1.465 . S
C754 C753 1.396 . S
C754 C755 1.399 . S
C755 H741 0.929 . S
C755 C754 1.399 . S
C755 C756 1.385 . S
C756 H742 0.931 . S
C756 C755 1.385 . S
C756 C757 1.389 . S
C757 C756 1.389 . S
C757 C758 1.387 . S
C758 H743 0.930 . S
C758 C753 1.390 . S
C758 C757 1.387 . S
H759 C771 0.930 . S
H760 C773 0.930 1_554 S
H761 C774 0.930 . S
H762 C778 0.959 . S
H763 C778 0.959 . S
H764 C778 0.961 . S
H765 C779 0.960 . S
H766 C779 0.961 . S
H767 C779 0.959 . S
H768 C782 0.929 . S
H769 C783 0.931 . S
H770 C785 0.930 . S
C771 H759 0.930 . S
C771 C772 1.399 . S
C771 C776 1.399 . S
C772 C771 1.399 . S
C772 C773 1.376 . S
C773 H760 0.930 1_556 S
C773 C772 1.376 . S
C773 C774 1.388 . S
C774 H761 0.930 . S
C774 C773 1.388 . S
C774 C775 1.390 . S
C775 C774 1.390 . S
C775 C776 1.394 . S
C775 C781 1.465 . S
C776 C771 1.399 . S
C776 C775 1.394 . S
C776 C777 1.516 . S
C777 C776 1.516 . S
C777 C778 1.502 . S
C777 C779 1.561 . S
C777 C780 1.526 . S
C778 H762 0.959 . S
C778 H763 0.959 . S
C778 H764 0.961 . S
C778 C777 1.502 . S
C779 H765 0.960 . S
C779 H766 0.961 . S
C779 H767 0.959 . S
C779 C777 1.561 . S
C780 C777 1.526 . S
C780 C781 1.396 . S
C780 C785 1.390 . S
C781 C775 1.465 . S
C781 C780 1.396 . S
C781 C782 1.399 . S
C782 H768 0.929 . S
C782 C781 1.399 . S
C782 C783 1.385 . S
C783 H769 0.931 . S
C783 C782 1.385 . S
C783 C784 1.389 . S
C784 C783 1.389 . S
C784 C785 1.387 . S
C785 H770 0.930 . S
C785 C780 1.390 . S
C785 C784 1.387 . S
H786 C798 0.930 . S
H787 C800 0.930 . S
H788 C801 0.930 . S
H789 C805 0.959 . S
H790 C805 0.959 . S
H791 C805 0.961 . S
H792 C806 0.960 . S
H793 C806 0.961 . S
H794 C806 0.959 . S
H795 C809 0.929 . S
H796 C810 0.931 . S
H797 C812 0.930 . S
C798 H786 0.930 . S
C798 C799 1.399 . S
C798 C803 1.399 . S
C799 C798 1.399 . S
C799 C800 1.376 . S
C800 H787 0.930 . S
C800 C799 1.376 . S
C800 C801 1.388 . S
C801 H788 0.930 . S
C801 C800 1.388 . S
C801 C802 1.390 . S
C802 C801 1.390 . S
C802 C803 1.394 . S
C802 C808 1.465 . S
C803 C798 1.399 . S
C803 C802 1.394 . S
C803 C804 1.516 . S
C804 C803 1.516 . S
C804 C805 1.502 . S
C804 C806 1.561 . S
C804 C807 1.526 . S
C805 H789 0.959 . S
C805 H790 0.959 . S
C805 H791 0.961 . S
C805 C804 1.502 . S
C806 H792 0.960 . S
C806 H793 0.961 . S
C806 H794 0.959 . S
C806 C804 1.561 . S
C807 C804 1.526 . S
C807 C808 1.396 . S
C807 C812 1.390 . S
C808 C802 1.465 . S
C808 C807 1.396 . S
C808 C809 1.399 . S
C809 H795 0.929 . S
C809 C808 1.399 . S
C809 C810 1.385 . S
C810 H796 0.931 . S
C810 C809 1.385 . S
C810 C811 1.389 . S
C811 C810 1.389 . S
C811 C812 1.387 . S
C812 H797 0.930 . S
C812 C807 1.390 . S
C812 C811 1.387 . S
H813 C825 0.930 . S
H814 C827 0.930 . S
H815 C828 0.930 . S
H816 C832 0.959 . S
H817 C832 0.959 . S
H818 C832 0.961 . S
H819 C833 0.960 . S
H820 C833 0.961 . S
H821 C833 0.959 . S
H822 C836 0.929 . S
H823 C837 0.931 . S
H824 C839 0.930 . S
C825 H813 0.930 . S
C825 C826 1.399 . S
C825 C830 1.399 . S
C826 C825 1.399 . S
C826 C827 1.376 . S
C827 H814 0.930 . S
C827 C826 1.376 . S
C827 C828 1.388 . S
C828 H815 0.930 . S
C828 C827 1.388 . S
C828 C829 1.390 . S
C829 C828 1.390 . S
C829 C830 1.394 . S
C829 C835 1.465 . S
C830 C825 1.399 . S
C830 C829 1.394 . S
C830 C831 1.516 . S
C831 C830 1.516 . S
C831 C832 1.502 . S
C831 C833 1.561 . S
C831 C834 1.526 . S
C832 H816 0.959 . S
C832 H817 0.959 . S
C832 H818 0.961 . S
C832 C831 1.502 . S
C833 H819 0.960 . S
C833 H820 0.961 . S
C833 H821 0.959 . S
C833 C831 1.561 . S
C834 C831 1.526 . S
C834 C835 1.396 . S
C834 C839 1.390 . S
C835 C829 1.465 . S
C835 C834 1.396 . S
C835 C836 1.399 . S
C836 H822 0.929 . S
C836 C835 1.399 . S
C836 C837 1.385 . S
C837 H823 0.931 . S
C837 C836 1.385 . S
C837 C838 1.389 . S
C838 C837 1.389 . S
C838 C839 1.387 . S
C839 H824 0.930 . S
C839 C834 1.390 . S
C839 C838 1.387 . S
C205 C8 1.337 . S
C217 C96 1.316 . S
C232 C31 1.226 . S
C244 C109 1.240 . S
C259 C53 1.448 . S
C271 C123 1.425 . S
C298 C136 1.377 . S
C286 C74 1.391 . S
C325 C148 1.264 . S
C313 C26 1.222 . S
C340 C48 1.464 . S
C352 C162 1.411 . S
C367 C71 1.257 . S
C379 C174 1.210 . S
C394 C5 1.392 . S
C406 C188 1.379 . S
C421 C50 1.292 . S
C433 C187 1.248 . S
C460 C149 1.389 . S
C448 C70 1.444 . S
C487 C161 1.244 . S
C475 C4 1.231 . S
C502 C28 1.347 . S
C514 C175 1.340 . S
C541 C110 1.421 . S
C529 C73 1.442 . S
C556 C7 1.193 . S
C568 C122 1.236 . S
C595 C135 1.256 . S
C583 C30 1.321 . S
C622 C97 1.352 . S
C610 C52 1.353 . S
C649 C170 1.310 . S
C637 C9 1.328 . S
C676 C183 1.272 . S
C664 C29 1.363 . S
C691 C51 1.406 . S
C703 C144 1.381 . S
C730 C157 1.420 . S
C718 C75 1.395 . S
C757 C118 1.333 . S
C745 C27 1.364 . S
C772 C49 1.371 . S
C784 C131 1.336 . S
C811 C92 1.396 . S
C799 C72 1.411 . S
C838 C105 1.229 . S
C826 C6 1.339 . S
