# Generated by pormake.
# Topology cml, (3,6)-cn, num edge types: 1
# Building blocks:
#     Node 0, Type 0, BuildingBlock: PAMTOO_clean_linker_0, # of connection points: 3
#     Node 1, Type 0, BuildingBlock: PAMTOO_clean_linker_0, # of connection points: 3
#     Node 2, Type 0, BuildingBlock: PAMTOO_clean_linker_0, # of connection points: 3
#     Node 3, Type 0, BuildingBlock: PAMTOO_clean_linker_0, # of connection points: 3
#     Node 4, Type 0, BuildingBlock: PAMTOO_clean_linker_0, # of connection points: 3
#     Node 5, Type 0, BuildingBlock: PAMTOO_clean_linker_0, # of connection points: 3
#     Node 6, Type 0, BuildingBlock: PAMTOO_clean_linker_0, # of connection points: 3
#     Node 7, Type 0, BuildingBlock: PAMTOO_clean_linker_0, # of connection points: 3
#     Node 8, Type 1, BuildingBlock: OJICUG_clean_sbu_0, # of connection points: 6
#     Node 9, Type 1, BuildingBlock: OJICUG_clean_sbu_0, # of connection points: 6
#     Node 10, Type 1, BuildingBlock: OJICUG_clean_sbu_0, # of connection points: 6
#     Node 11, Type 1, BuildingBlock: OJICUG_clean_sbu_0, # of connection points: 6
#     Edge 12, Type (0, 1), BuildingBlock: MIFKUJ_clean_linker_0, # of connection points: 2
#     Edge 13, Type (0, 1), BuildingBlock: MIFKUJ_clean_linker_0, # of connection points: 2
#     Edge 14, Type (0, 1), BuildingBlock: MIFKUJ_clean_linker_0, # of connection points: 2
#     Edge 15, Type (0, 1), BuildingBlock: MIFKUJ_clean_linker_0, # of connection points: 2
#     Edge 16, Type (0, 1), BuildingBlock: MIFKUJ_clean_linker_0, # of connection points: 2
#     Edge 17, Type (0, 1), BuildingBlock: MIFKUJ_clean_linker_0, # of connection points: 2
#     Edge 18, Type (0, 1), BuildingBlock: MIFKUJ_clean_linker_0, # of connection points: 2
#     Edge 19, Type (0, 1), BuildingBlock: MIFKUJ_clean_linker_0, # of connection points: 2
#     Edge 20, Type (0, 1), BuildingBlock: MIFKUJ_clean_linker_0, # of connection points: 2
#     Edge 21, Type (0, 1), BuildingBlock: MIFKUJ_clean_linker_0, # of connection points: 2
#     Edge 22, Type (0, 1), BuildingBlock: MIFKUJ_clean_linker_0, # of connection points: 2
#     Edge 23, Type (0, 1), BuildingBlock: MIFKUJ_clean_linker_0, # of connection points: 2
#     Edge 24, Type (0, 1), BuildingBlock: MIFKUJ_clean_linker_0, # of connection points: 2
#     Edge 25, Type (0, 1), BuildingBlock: MIFKUJ_clean_linker_0, # of connection points: 2
#     Edge 26, Type (0, 1), BuildingBlock: MIFKUJ_clean_linker_0, # of connection points: 2
#     Edge 27, Type (0, 1), BuildingBlock: MIFKUJ_clean_linker_0, # of connection points: 2
#     Edge 28, Type (0, 1), BuildingBlock: MIFKUJ_clean_linker_0, # of connection points: 2
#     Edge 29, Type (0, 1), BuildingBlock: MIFKUJ_clean_linker_0, # of connection points: 2
#     Edge 30, Type (0, 1), BuildingBlock: MIFKUJ_clean_linker_0, # of connection points: 2
#     Edge 31, Type (0, 1), BuildingBlock: MIFKUJ_clean_linker_0, # of connection points: 2
#     Edge 32, Type (0, 1), BuildingBlock: MIFKUJ_clean_linker_0, # of connection points: 2
#     Edge 33, Type (0, 1), BuildingBlock: MIFKUJ_clean_linker_0, # of connection points: 2
#     Edge 34, Type (0, 1), BuildingBlock: MIFKUJ_clean_linker_0, # of connection points: 2
#     Edge 35, Type (0, 1), BuildingBlock: MIFKUJ_clean_linker_0, # of connection points: 2
# Relax obj value: 0.007
# Max RMSD: 0.056
# Mean RMSD: 0.045
data_MOF--net-cml--node1-OJICUG_clean_sbu_0--node2-PAMTOO_clean_linker_0--edge1-MIFKUJ_clean_linker_0
_symmetry_space_group_name_H-M    P1
_symmetry_Int_Tables_number       1
_symmetry_cell_setting            triclinic
loop_
_symmetry_equiv_pos_as_xyz
'x, y, z'
_cell_length_a     52.376413
_cell_length_b     51.606118
_cell_length_c     45.145175
_cell_angle_alpha  89.962277
_cell_angle_beta   88.337053
_cell_angle_gamma 89.991236
loop_
_atom_site_label
_atom_site_type_symbol
_atom_site_fract_x
_atom_site_fract_y
_atom_site_fract_z
_atom_type_partial_charge
H0 H 0.31751 0.41321 0.04546 0.0
H1 H 0.27878 0.39362 0.9655 0.0
H2 H 0.26749 0.34724 0.04357 0.0
H3 H 0.27406 0.31972 0.98686 0.0
C4 C 0.26254 0.33266 0.97269 0.0
O5 O 0.25447 0.35408 0.9886 0.0
H6 H 0.27489 0.33886 0.95349 0.0
C7 C 0.30448 0.40103 0.03351 0.0
C8 C 0.2932 0.37968 0.04808 0.0
C9 C 0.29983 0.40628 0.00357 0.0
C10 C 0.28264 0.39032 0.98864 0.0
C11 C 0.27091 0.36927 0.00317 0.0
C12 C 0.27633 0.36383 0.03273 0.0
H13 H 0.67999 0.58612 0.52883 0.0
H14 H 0.74111 0.64106 0.538 0.0
H15 H 0.74178 0.58912 0.46395 0.0
H16 H 0.79289 0.59751 0.4873 0.0
C17 C 0.78978 0.6169 0.49754 0.0
O18 O 0.76617 0.62628 0.49022 0.0
H19 H 0.79091 0.61479 0.52202 0.0
C20 C 0.69769 0.59472 0.52059 0.0
C21 C 0.70921 0.58529 0.49427 0.0
C22 C 0.70879 0.615 0.53649 0.0
C23 C 0.73229 0.62521 0.52636 0.0
C24 C 0.7442 0.61556 0.5005 0.0
C25 C 0.73268 0.59577 0.48442 0.0
H26 H 0.68545 0.42447 0.02994 0.0
H27 H 0.73455 0.35784 0.02493 0.0
H28 H 0.73968 0.41593 0.95692 0.0
H29 H 0.74174 0.36292 0.93432 0.0
C30 C 0.7493 0.35291 0.95407 0.0
O31 O 0.75672 0.37109 0.97446 0.0
H32 H 0.73385 0.34041 0.96374 0.0
C33 C 0.7011 0.41413 0.01902 0.0
C34 C 0.71197 0.42361 0.99235 0.0
C35 C 0.70924 0.39055 0.03088 0.0
C36 C 0.72859 0.37641 0.01629 0.0
C37 C 0.73941 0.38562 0.98959 0.0
C38 C 0.73129 0.40921 0.97776 0.0
H39 H 0.32119 0.58772 0.52805 0.0
H40 H 0.26795 0.60745 0.46097 0.0
H41 H 0.27539 0.65687 0.53672 0.0
H42 H 0.22196 0.64434 0.5191 0.0
C43 C 0.22516 0.64421 0.4946 0.0
O44 O 0.25062 0.64909 0.48806 0.0
H45 H 0.21988 0.62481 0.48599 0.0
C46 C 0.30678 0.60071 0.51972 0.0
C47 C 0.30017 0.62322 0.53566 0.0
C48 C 0.29544 0.59492 0.49277 0.0
C49 C 0.27685 0.61164 0.48181 0.0
C50 C 0.26923 0.63357 0.49813 0.0
C51 C 0.28098 0.63945 0.52484 0.0
H52 H 0.81448 0.92059 0.03588 0.0
H53 H 0.76655 0.90413 0.96222 0.0
H54 H 0.76577 0.85348 0.03768 0.0
H55 H 0.76599 0.82782 0.98069 0.0
C56 C 0.75382 0.84135 0.96806 0.0
O57 O 0.7467 0.86211 0.98563 0.0
H58 H 0.76516 0.84832 0.94841 0.0
C59 C 0.79989 0.90894 0.02574 0.0
C60 C 0.79085 0.88661 0.04038 0.0
C61 C 0.79149 0.91542 0.99741 0.0
C62 C 0.77338 0.89949 0.98403 0.0
C63 C 0.76408 0.87731 0.99865 0.0
C64 C 0.77288 0.87083 0.0267 0.0
H65 H 0.18367 0.07545 0.51895 0.0
H66 H 0.23927 0.13609 0.52894 0.0
H67 H 0.24573 0.08409 0.4551 0.0
H68 H 0.29609 0.09859 0.48266 0.0
C69 C 0.29008 0.11786 0.49143 0.0
O70 O 0.26611 0.12373 0.48155 0.0
H71 H 0.28984 0.11703 0.51608 0.0
C72 C 0.20087 0.08539 0.51132 0.0
C73 C 0.21349 0.07715 0.48511 0.0
C74 C 0.20986 0.10668 0.52738 0.0
C75 C 0.2321 0.11942 0.51719 0.0
C76 C 0.24504 0.11104 0.49139 0.0
C77 C 0.2357 0.09012 0.47526 0.0
H78 H 0.18485 0.92539 0.0168 0.0
H79 H 0.21543 0.84791 0.01579 0.0
H80 H 0.23308 0.89975 0.9438 0.0
H81 H 0.2217 0.84683 0.92648 0.0
C82 C 0.22955 0.83615 0.94561 0.0
O83 O 0.24011 0.85332 0.96516 0.0
H84 H 0.21364 0.82526 0.95677 0.0
C85 C 0.19671 0.91056 0.00639 0.0
C86 C 0.20892 0.91569 0.97892 0.0
C87 C 0.19865 0.88614 0.01987 0.0
C88 C 0.21385 0.86701 0.00603 0.0
C89 C 0.22619 0.87204 0.97872 0.0
C90 C 0.22375 0.89627 0.96518 0.0
H91 H 0.81608 0.08775 0.54843 0.0
H92 H 0.76868 0.1015 0.47355 0.0
H93 H 0.76075 0.14935 0.55093 0.0
H94 H 0.7125 0.1288 0.52393 0.0
C95 C 0.71821 0.13195 0.50024 0.0
O96 O 0.74338 0.1398 0.49823 0.0
H97 H 0.71595 0.11334 0.48818 0.0
C98 C 0.80098 0.09844 0.53795 0.0
C99 C 0.78935 0.11923 0.55314 0.0
C100 C 0.794 0.09189 0.50908 0.0
C101 C 0.77432 0.10593 0.49589 0.0
C102 C 0.76215 0.12632 0.51118 0.0
C103 C 0.76989 0.13319 0.53957 0.0
Sc104 Sc 0.99785 0.82137 0.31751 0.0
Sc105 Sc 0.99406 0.88939 0.31621 0.0
Sc106 Sc 0.99777 0.85687 0.3844 0.0
O107 O 0.99654 0.85582 0.33941 0.0
C108 C 0.96178 0.80795 0.37351 0.0
C109 C 0.95598 0.85321 0.2819 0.0
C110 C 0.9576 0.90164 0.37256 0.0
C111 C 0.03207 0.85625 0.27444 0.0
C112 C 0.03783 0.812 0.36884 0.0
C113 C 0.03426 0.90406 0.36477 0.0
O114 O 0.9691 0.80457 0.34667 0.0
O115 O 0.96258 0.87524 0.29164 0.0
O116 O 0.96622 0.88373 0.38884 0.0
O117 O 0.027 0.83446 0.28632 0.0
O118 O 0.02934 0.83018 0.38537 0.0
O119 O 0.02546 0.90643 0.33894 0.0
O120 O 0.02803 0.80633 0.34421 0.0
O121 O 0.02086 0.87711 0.28212 0.0
O122 O 0.02536 0.88789 0.3837 0.0
O123 O 0.96768 0.83232 0.28802 0.0
O124 O 0.97072 0.82565 0.38984 0.0
O125 O 0.9666 0.90622 0.34669 0.0
Sc126 Sc 0.00621 0.18248 0.81765 0.0
Sc127 Sc 0.00371 0.1143 0.81827 0.0
Sc128 Sc 0.0025 0.14864 0.88568 0.0
O129 O 0.00414 0.14849 0.84055 0.0
C130 C 0.04279 0.19388 0.87151 0.0
C131 C 0.04378 0.14709 0.77869 0.0
C132 C 0.04107 0.10203 0.87098 0.0
C133 C 0.96697 0.14933 0.77995 0.0
C134 C 0.96603 0.19585 0.87001 0.0
C135 C 0.96428 0.10234 0.8719 0.0
O136 O 0.03524 0.19815 0.84544 0.0
O137 O 0.03326 0.12606 0.7871 0.0
O138 O 0.03146 0.11911 0.88829 0.0
O139 O 0.97733 0.17061 0.78729 0.0
O140 O 0.97357 0.17829 0.88749 0.0
O141 O 0.97417 0.09788 0.84641 0.0
O142 O 0.9761 0.19961 0.84441 0.0
O143 O 0.97413 0.12746 0.78973 0.0
O144 O 0.97214 0.12034 0.88855 0.0
O145 O 0.03652 0.16912 0.78824 0.0
O146 O 0.03268 0.17681 0.88843 0.0
O147 O 0.03317 0.09813 0.84496 0.0
Sc148 Sc 0.50278 0.32118 0.32072 0.0
Sc149 Sc 0.50273 0.3894 0.31954 0.0
Sc150 Sc 0.50133 0.3564 0.38784 0.0
O151 O 0.50226 0.35564 0.34272 0.0
C152 C 0.46407 0.30946 0.37536 0.0
C153 C 0.46372 0.35477 0.28344 0.0
C154 C 0.46445 0.40381 0.37334 0.0
C155 C 0.54044 0.35483 0.27938 0.0
C156 C 0.54 0.3095 0.3735 0.0
C157 C 0.54126 0.40128 0.37124 0.0
O158 O 0.4744 0.30418 0.35025 0.0
O159 O 0.47299 0.37642 0.29125 0.0
O160 O 0.4726 0.38637 0.39058 0.0
O161 O 0.53153 0.33331 0.28855 0.0
O162 O 0.52966 0.32614 0.39085 0.0
O163 O 0.5326 0.40527 0.34561 0.0
O164 O 0.5332 0.30617 0.34695 0.0
O165 O 0.53202 0.37645 0.2888 0.0
O166 O 0.53187 0.38449 0.38912 0.0
O167 O 0.47233 0.33308 0.29226 0.0
O168 O 0.47086 0.32852 0.39111 0.0
O169 O 0.47352 0.40705 0.34722 0.0
Sc170 Sc 0.4986 0.68354 0.82085 0.0
Sc171 Sc 0.50088 0.61536 0.82158 0.0
Sc172 Sc 0.49764 0.64994 0.8888 0.0
O173 O 0.49904 0.64961 0.84373 0.0
C174 C 0.53451 0.69809 0.87387 0.0
C175 C 0.53925 0.6501 0.78289 0.0
C176 C 0.53836 0.60567 0.87541 0.0
C177 C 0.46275 0.64816 0.78217 0.0
C178 C 0.45769 0.69381 0.87349 0.0
C179 C 0.46201 0.60134 0.8744 0.0
O180 O 0.52786 0.70046 0.84716 0.0
O181 O 0.53177 0.62835 0.79308 0.0
O182 O 0.52962 0.62408 0.89142 0.0
O183 O 0.46909 0.67015 0.79225 0.0
O184 O 0.46537 0.67571 0.89015 0.0
O185 O 0.46993 0.59881 0.84769 0.0
O186 O 0.46865 0.69949 0.84884 0.0
O187 O 0.47325 0.62706 0.78975 0.0
O188 O 0.47104 0.61805 0.89194 0.0
O189 O 0.52863 0.67144 0.79013 0.0
O190 O 0.52437 0.68163 0.89159 0.0
O191 O 0.5291 0.5997 0.85057 0.0
H192 H 0.23518 0.29472 0.00154 0.0
H193 H 0.19731 0.27172 0.9846 0.0
H194 H 0.2001 0.31609 0.9035 0.0
H195 H 0.23781 0.33932 0.92066 0.0
H196 H 0.15199 0.31261 0.92604 0.0
H197 H 0.22098 0.2537 0.90437 0.0
H198 H 0.25879 0.22731 0.91544 0.0
H199 H 0.21471 0.18412 0.98017 0.0
H200 H 0.17671 0.21051 0.96977 0.0
H201 H 0.06904 0.23317 0.84319 0.0
H202 H 0.10568 0.25727 0.86096 0.0
H203 H 0.10276 0.21331 0.94227 0.0
H204 H 0.0663 0.18889 0.92465 0.0
H205 H 0.15086 0.21664 0.91961 0.0
H206 H 0.08177 0.27525 0.94109 0.0
H207 H 0.04387 0.30143 0.92988 0.0
H208 H 0.08796 0.34501 0.86551 0.0
H209 H 0.12606 0.31883 0.87604 0.0
C210 C 0.22774 0.29935 0.98002 0.0
C211 C 0.23964 0.31826 0.96202 0.0
C212 C 0.20618 0.28624 0.97036 0.0
C213 C 0.19615 0.29189 0.94256 0.0
C214 C 0.20764 0.31131 0.92492 0.0
C215 C 0.2292 0.32443 0.93461 0.0
C216 C 0.17363 0.27757 0.93192 0.0
C217 C 0.15185 0.29164 0.92425 0.0
C218 C 0.17325 0.25018 0.93024 0.0
C219 C 0.19607 0.23426 0.9365 0.0
C220 C 0.2194 0.23872 0.92114 0.0
C221 C 0.24086 0.22374 0.92726 0.0
C222 C 0.23917 0.2041 0.94855 0.0
C223 C 0.216 0.19936 0.96371 0.0
C224 C 0.19449 0.21431 0.9577 0.0
C225 C 0.07609 0.22865 0.86491 0.0
C226 C 0.06462 0.20908 0.8825 0.0
C227 C 0.097 0.24253 0.87508 0.0
C228 C 0.1068 0.23724 0.90305 0.0
C229 C 0.09547 0.21772 0.92062 0.0
C230 C 0.07456 0.20384 0.91052 0.0
C231 C 0.12922 0.25166 0.91376 0.0
C232 C 0.15099 0.2376 0.92142 0.0
C233 C 0.12957 0.27905 0.91544 0.0
C234 C 0.10671 0.2949 0.90915 0.0
C235 C 0.08334 0.29028 0.92437 0.0
C236 C 0.06182 0.30514 0.91817 0.0
C237 C 0.06349 0.32483 0.89694 0.0
C238 C 0.08669 0.32973 0.88192 0.0
C239 C 0.10826 0.3149 0.88801 0.0
H240 H 0.04681 0.33632 0.89217 0.0
H241 H 0.2558 0.19252 0.95325 0.0
H242 H 0.80559 0.62397 0.44019 0.0
H243 H 0.83533 0.65662 0.42016 0.0
H244 H 0.84793 0.68443 0.50872 0.0
H245 H 0.81757 0.65222 0.52863 0.0
H246 H 0.84082 0.72366 0.47284 0.0
H247 H 0.89342 0.64804 0.47014 0.0
H248 H 0.90509 0.60285 0.45832 0.0
H249 H 0.9001 0.61913 0.36538 0.0
H250 H 0.88806 0.66435 0.37666 0.0
H251 H 0.94843 0.80176 0.43215 0.0
H252 H 0.91947 0.76958 0.45409 0.0
H253 H 0.90308 0.74079 0.36696 0.0
H254 H 0.93251 0.7725 0.34482 0.0
H255 H 0.913 0.70205 0.40367 0.0
H256 H 0.86012 0.77898 0.40826 0.0
H257 H 0.85045 0.82426 0.42207 0.0
H258 H 0.85802 0.80532 0.51402 0.0
H259 H 0.86809 0.76003 0.50075 0.0
C260 C 0.81504 0.63687 0.4553 0.0
C261 C 0.80977 0.63538 0.4859 0.0
C262 C 0.83201 0.65545 0.44392 0.0
C263 C 0.84416 0.67272 0.463 0.0
C264 C 0.83887 0.67123 0.49363 0.0
C265 C 0.82172 0.65276 0.50499 0.0
C266 C 0.8617 0.69288 0.45084 0.0
C267 C 0.85682 0.71891 0.45803 0.0
C268 C 0.88233 0.68671 0.43115 0.0
C269 C 0.8896 0.65953 0.42427 0.0
C270 C 0.89462 0.64193 0.44719 0.0
C271 C 0.90134 0.61632 0.44059 0.0
C272 C 0.90328 0.6081 0.41112 0.0
C273 C 0.89856 0.62551 0.3882 0.0
C274 C 0.89181 0.65114 0.39468 0.0
C275 C 0.9385 0.78876 0.41759 0.0
C276 C 0.94282 0.78971 0.3867 0.0
C277 C 0.92188 0.77041 0.43019 0.0
C278 C 0.90893 0.75295 0.41214 0.0
C279 C 0.91291 0.75408 0.3813 0.0
C280 C 0.9297 0.77227 0.36868 0.0
C281 C 0.89194 0.73284 0.42541 0.0
C282 C 0.89697 0.7068 0.41845 0.0
C283 C 0.87162 0.739 0.44553 0.0
C284 C 0.86508 0.76615 0.45348 0.0
C285 C 0.85986 0.7845 0.43141 0.0
C286 C 0.85429 0.81017 0.43915 0.0
C287 C 0.8537 0.81767 0.4689 0.0
C288 C 0.85852 0.79949 0.49099 0.0
C289 C 0.86413 0.77382 0.48337 0.0
H290 H 0.8495 0.83754 0.47489 0.0
H291 H 0.90849 0.58827 0.40605 0.0
H292 H 0.77411 0.3487 0.89989 0.0
H293 H 0.81086 0.32121 0.88669 0.0
H294 H 0.81163 0.29217 0.97633 0.0
H295 H 0.77481 0.31973 0.98958 0.0
H296 H 0.85947 0.30554 0.95501 0.0
H297 H 0.78854 0.255 0.92365 0.0
H298 H 0.7488 0.24624 0.89749 0.0
H299 H 0.7872 0.26183 0.81406 0.0
H300 H 0.82711 0.27108 0.83977 0.0
H301 H 0.94274 0.19871 0.92508 0.0
H302 H 0.90601 0.22534 0.94011 0.0
H303 H 0.90302 0.25668 0.85169 0.0
H304 H 0.93961 0.23014 0.83634 0.0
H305 H 0.85597 0.2412 0.87357 0.0
H306 H 0.92661 0.29263 0.90499 0.0
H307 H 0.96647 0.3011 0.93107 0.0
H308 H 0.92865 0.28352 0.01432 0.0
H309 H 0.88863 0.27457 0.98867 0.0
C310 C 0.78211 0.33636 0.91669 0.0
C311 C 0.77169 0.33609 0.94568 0.0
C312 C 0.80301 0.32067 0.90915 0.0
C313 C 0.81376 0.30451 0.93049 0.0
C314 C 0.80354 0.30448 0.95957 0.0
C315 C 0.78257 0.32009 0.96707 0.0
C316 C 0.8358 0.28779 0.92246 0.0
C317 C 0.85863 0.29119 0.9375 0.0
C318 C 0.83475 0.26949 0.89922 0.0
C319 C 0.81075 0.26401 0.88368 0.0
C320 C 0.78846 0.25681 0.89975 0.0
C321 C 0.76591 0.2517 0.88499 0.0
C322 C 0.76545 0.25355 0.85413 0.0
C323 C 0.78757 0.26045 0.83796 0.0
C324 C 0.81017 0.26561 0.85262 0.0
C325 C 0.93433 0.21131 0.90882 0.0
C326 C 0.94419 0.21234 0.87952 0.0
C327 C 0.9134 0.22655 0.91749 0.0
C328 C 0.90197 0.24305 0.89703 0.0
C329 C 0.91164 0.24405 0.86778 0.0
C330 C 0.93263 0.22895 0.85912 0.0
C331 C 0.87967 0.25907 0.90597 0.0
C332 C 0.85679 0.2555 0.89112 0.0
C333 C 0.88068 0.27721 0.92937 0.0
C334 C 0.9047 0.28266 0.94487 0.0
C335 C 0.92685 0.29035 0.92883 0.0
C336 C 0.94946 0.29528 0.94354 0.0
C337 C 0.95011 0.29278 0.97432 0.0
C338 C 0.92813 0.28541 0.99047 0.0
C339 C 0.90547 0.28042 0.97586 0.0
H340 H 0.96763 0.29661 0.98568 0.0
H341 H 0.74798 0.24957 0.84275 0.0
H342 H 0.17851 0.66089 0.51471 0.0
H343 H 0.14902 0.69055 0.49066 0.0
H344 H 0.20351 0.70094 0.41818 0.0
H345 H 0.23298 0.67101 0.44197 0.0
H346 H 0.1803 0.74791 0.43818 0.0
H347 H 0.15683 0.66239 0.40715 0.0
H348 H 0.14508 0.61652 0.41454 0.0
H349 H 0.07864 0.63932 0.46608 0.0
H350 H 0.0902 0.68534 0.45934 0.0
H351 H 0.05977 0.76944 0.34211 0.0
H352 H 0.09438 0.74259 0.36031 0.0
H353 H 0.09966 0.79169 0.43716 0.0
H354 H 0.06527 0.81883 0.41907 0.0
H355 H 0.09541 0.71453 0.41039 0.0
H356 H 0.16172 0.79246 0.45907 0.0
H357 H 0.17397 0.83797 0.4498 0.0
H358 H 0.15611 0.82968 0.35807 0.0
H359 H 0.1441 0.78404 0.36668 0.0
C360 C 0.18432 0.6698 0.49385 0.0
C361 C 0.20826 0.66415 0.48059 0.0
C362 C 0.16746 0.68663 0.4801 0.0
C363 C 0.17414 0.69795 0.45269 0.0
C364 C 0.19813 0.69257 0.43947 0.0
C365 C 0.21493 0.67552 0.4531 0.0
C366 C 0.15561 0.71458 0.43738 0.0
C367 C 0.16174 0.74067 0.43205 0.0
C368 C 0.13159 0.70495 0.42901 0.0
C369 C 0.12451 0.6773 0.43296 0.0
C370 C 0.13982 0.65762 0.42026 0.0
C371 C 0.13318 0.63159 0.42429 0.0
C372 C 0.11116 0.62501 0.44083 0.0
C373 C 0.09571 0.64445 0.4533 0.0
C374 C 0.10228 0.67051 0.44936 0.0
C375 C 0.06838 0.7747 0.36278 0.0
C376 C 0.05963 0.79632 0.37913 0.0
C377 C 0.08814 0.75926 0.37317 0.0
C378 C 0.0997 0.76522 0.39998 0.0
C379 C 0.09125 0.78692 0.41621 0.0
C380 C 0.07147 0.80236 0.40587 0.0
C381 C 0.11983 0.74808 0.41163 0.0
C382 C 0.11399 0.72184 0.41637 0.0
C383 C 0.14417 0.75757 0.41918 0.0
C384 C 0.1518 0.78488 0.41361 0.0
C385 C 0.16053 0.80031 0.43689 0.0
C386 C 0.16741 0.82614 0.43176 0.0
C387 C 0.16575 0.83673 0.40339 0.0
C388 C 0.1573 0.82148 0.38006 0.0
C389 C 0.15042 0.79564 0.38507 0.0
H390 H 0.17105 0.85674 0.39947 0.0
H391 H 0.10605 0.60485 0.44392 0.0
H392 H 0.72143 0.81198 0.00246 0.0
H393 H 0.68293 0.78885 0.98761 0.0
H394 H 0.69503 0.81598 0.89783 0.0
H395 H 0.73318 0.83956 0.91286 0.0
H396 H 0.64588 0.8198 0.91439 0.0
H397 H 0.71051 0.7537 0.91813 0.0
H398 H 0.74439 0.72807 0.94114 0.0
H399 H 0.6912 0.70269 0.00928 0.0
H400 H 0.65707 0.72846 0.98688 0.0
H401 H 0.5651 0.73138 0.84152 0.0
H402 H 0.60099 0.75683 0.85874 0.0
H403 H 0.58748 0.72795 0.94751 0.0
H404 H 0.55183 0.70199 0.93041 0.0
H405 H 0.63671 0.7254 0.93262 0.0
H406 H 0.57166 0.79054 0.92807 0.0
H407 H 0.53777 0.81599 0.90486 0.0
H408 H 0.59152 0.84309 0.83822 0.0
H409 H 0.62568 0.81751 0.8608 0.0
C410 C 0.7158 0.81289 0.97958 0.0
C411 C 0.73034 0.82717 0.95869 0.0
C412 C 0.69392 0.79966 0.97109 0.0
C413 C 0.68633 0.80036 0.9415 0.0
C414 C 0.70059 0.81509 0.92074 0.0
C415 C 0.7224 0.82843 0.92928 0.0
C416 C 0.66356 0.78569 0.93213 0.0
C417 C 0.64399 0.7991 0.91806 0.0
C418 C 0.66083 0.7588 0.93756 0.0
C419 C 0.68131 0.74322 0.95099 0.0
C420 C 0.70609 0.74281 0.93815 0.0
C421 C 0.72533 0.72823 0.95105 0.0
C422 C 0.71997 0.71381 0.9767 0.0
C423 C 0.69533 0.7139 0.98944 0.0
C424 C 0.67603 0.72847 0.97664 0.0
C425 C 0.56959 0.73055 0.86477 0.0
C426 C 0.5555 0.71462 0.88457 0.0
C427 C 0.59009 0.74522 0.8746 0.0
C428 C 0.59676 0.74453 0.90449 0.0
C429 C 0.58266 0.7288 0.92435 0.0
C430 C 0.56223 0.71401 0.91452 0.0
C431 C 0.61901 0.7595 0.91482 0.0
C432 C 0.63851 0.74613 0.92906 0.0
C433 C 0.62167 0.78642 0.90953 0.0
C434 C 0.60118 0.80192 0.89598 0.0
C435 C 0.57622 0.80177 0.90834 0.0
C436 C 0.55696 0.81625 0.89532 0.0
C437 C 0.56247 0.8311 0.87004 0.0
C438 C 0.58727 0.83156 0.85778 0.0
C439 C 0.60659 0.8171 0.8707 0.0
H440 H 0.54754 0.84229 0.85999 0.0
H441 H 0.73489 0.70254 0.98666 0.0
H442 H 0.28767 0.16934 0.50447 0.0
H443 H 0.31627 0.20404 0.48662 0.0
H444 H 0.36193 0.14781 0.43822 0.0
H445 H 0.33331 0.11314 0.4559 0.0
H446 H 0.39082 0.18309 0.46985 0.0
H447 H 0.32122 0.18376 0.40205 0.0
H448 H 0.276 0.1862 0.38856 0.0
H449 H 0.26973 0.26161 0.42825 0.0
H450 H 0.31485 0.25945 0.44237 0.0
H451 H 0.45812 0.25833 0.36269 0.0
H452 H 0.42744 0.22806 0.38539 0.0
H453 H 0.39447 0.29004 0.43783 0.0
H454 H 0.4256 0.3205 0.41571 0.0
H455 H 0.35837 0.25466 0.40776 0.0
H456 H 0.42813 0.2559 0.47254 0.0
H457 H 0.47296 0.25394 0.48737 0.0
H458 H 0.47849 0.1755 0.45622 0.0
H459 H 0.43395 0.17731 0.44009 0.0
C460 C 0.30388 0.1645 0.49006 0.0
C461 C 0.30831 0.13872 0.48137 0.0
C462 C 0.3201 0.18425 0.47986 0.0
C463 C 0.34103 0.17845 0.46092 0.0
C464 C 0.34583 0.15262 0.4528 0.0
C465 C 0.32951 0.13289 0.46283 0.0
C466 C 0.35786 0.19932 0.44931 0.0
C467 C 0.38382 0.19859 0.45601 0.0
C468 C 0.34843 0.21997 0.43211 0.0
C469 C 0.32132 0.22131 0.42357 0.0
C470 C 0.31014 0.20076 0.40814 0.0
C471 C 0.28454 0.20211 0.40034 0.0
C472 C 0.26998 0.22401 0.40763 0.0
C473 C 0.28102 0.24464 0.42267 0.0
C474 C 0.30661 0.24337 0.43057 0.0
C475 C 0.44421 0.2656 0.37886 0.0
C476 C 0.44427 0.29175 0.38751 0.0
C477 C 0.42679 0.24827 0.39185 0.0
C478 C 0.40889 0.25688 0.41332 0.0
C479 C 0.40824 0.28313 0.42129 0.0
C480 C 0.42604 0.30041 0.40874 0.0
C481 C 0.39138 0.2381 0.42787 0.0
C482 C 0.36534 0.23924 0.42175 0.0
C483 C 0.4007 0.21789 0.44575 0.0
C484 C 0.42776 0.21689 0.45466 0.0
C485 C 0.43903 0.23839 0.46829 0.0
C486 C 0.4644 0.2373 0.47697 0.0
C487 C 0.47863 0.21468 0.47254 0.0
C488 C 0.46752 0.1931 0.45939 0.0
C489 C 0.44222 0.19417 0.45041 0.0
H490 H 0.4982 0.21386 0.4795 0.0
H491 H 0.25016 0.22502 0.40155 0.0
H492 H 0.24263 0.78965 0.9698 0.0
H493 H 0.27961 0.76247 0.95647 0.0
H494 H 0.30049 0.81555 0.88592 0.0
H495 H 0.26329 0.84252 0.89901 0.0
H496 H 0.30767 0.76499 0.86919 0.0
H497 H 0.32833 0.82016 0.95117 0.0
H498 H 0.32208 0.83889 0.00109 0.0
H499 H 0.32844 0.76321 0.03978 0.0
H500 H 0.33434 0.74397 0.99002 0.0
H501 H 0.43838 0.73726 0.84775 0.0
H502 H 0.39809 0.75895 0.85985 0.0
H503 H 0.38301 0.70416 0.93042 0.0
H504 H 0.42359 0.68252 0.91886 0.0
H505 H 0.37143 0.75287 0.94727 0.0
H506 H 0.35407 0.69813 0.86447 0.0
H507 H 0.36186 0.6804 0.8143 0.0
H508 H 0.35027 0.75576 0.77668 0.0
H509 H 0.34284 0.77406 0.82666 0.0
C510 C 0.25484 0.79511 0.95105 0.0
C511 C 0.25004 0.81784 0.93506 0.0
C512 C 0.27598 0.77973 0.94357 0.0
C513 C 0.29285 0.78715 0.92036 0.0
C514 C 0.28761 0.80944 0.90379 0.0
C515 C 0.26644 0.82479 0.91124 0.0
C516 C 0.31684 0.77267 0.91456 0.0
C517 C 0.32172 0.76247 0.88616 0.0
C518 C 0.3349 0.76905 0.93691 0.0
C519 C 0.33149 0.7806 0.96686 0.0
C520 C 0.32818 0.80749 0.97031 0.0
C521 C 0.32474 0.8182 0.99858 0.0
C522 C 0.32479 0.80224 0.02359 0.0
C523 C 0.32835 0.77554 0.02039 0.0
C524 C 0.33176 0.76472 0.99216 0.0
C525 C 0.4266 0.72985 0.86596 0.0
C526 C 0.43417 0.70804 0.88223 0.0
C527 C 0.40351 0.74221 0.87273 0.0
C528 C 0.38738 0.73283 0.89563 0.0
C529 C 0.39516 0.71158 0.91254 0.0
C530 C 0.41837 0.69927 0.9059 0.0
C531 C 0.36236 0.74524 0.90187 0.0
C532 C 0.35729 0.75512 0.93036 0.0
C533 C 0.3442 0.7486 0.87955 0.0
C534 C 0.34808 0.73751 0.84937 0.0
C535 C 0.35331 0.71096 0.84552 0.0
C536 C 0.35766 0.7008 0.81711 0.0
C537 C 0.35659 0.71695 0.79233 0.0
C538 C 0.3511 0.74328 0.7959 0.0
C539 C 0.34679 0.75355 0.82427 0.0
H540 H 0.35997 0.70905 0.77037 0.0
H541 H 0.32212 0.81057 0.04546 0.0
H542 H 0.72301 0.15358 0.44495 0.0
H543 H 0.69446 0.18483 0.42166 0.0
H544 H 0.64642 0.18563 0.50093 0.0
H545 H 0.6749 0.15448 0.52419 0.0
H546 H 0.619 0.17978 0.45089 0.0
H547 H 0.68543 0.23589 0.48516 0.0
H548 H 0.72979 0.25102 0.48971 0.0
H549 H 0.73622 0.26182 0.39547 0.0
H550 H 0.69198 0.24638 0.39031 0.0
H551 H 0.54577 0.29403 0.43062 0.0
H552 H 0.57767 0.26406 0.44956 0.0
H553 H 0.612 0.25712 0.36198 0.0
H554 H 0.57963 0.28657 0.3426 0.0
H555 H 0.64722 0.26566 0.41276 0.0
H556 H 0.58103 0.21141 0.37811 0.0
H557 H 0.53716 0.19542 0.37236 0.0
H558 H 0.53097 0.1794 0.46561 0.0
H559 H 0.57451 0.19623 0.47214 0.0
C560 C 0.70649 0.16071 0.45742 0.0
C561 C 0.70132 0.15198 0.48647 0.0
C562 C 0.69023 0.17852 0.44416 0.0
C563 C 0.66845 0.18774 0.45968 0.0
C564 C 0.66317 0.17883 0.48861 0.0
C565 C 0.67947 0.16114 0.50191 0.0
C566 C 0.65071 0.2061 0.44557 0.0
C567 C 0.6251 0.19869 0.4429 0.0
C568 C 0.6589 0.2304 0.43425 0.0
C569 C 0.68549 0.2397 0.43732 0.0
C570 C 0.69638 0.24126 0.46537 0.0
C571 C 0.72149 0.24994 0.46807 0.0
C572 C 0.73584 0.2573 0.44289 0.0
C573 C 0.72509 0.25607 0.41495 0.0
C574 C 0.69999 0.24737 0.41213 0.0
C575 C 0.56021 0.28627 0.41542 0.0
C576 C 0.56019 0.29258 0.38512 0.0
C577 C 0.57834 0.26913 0.42625 0.0
C578 C 0.59707 0.2584 0.40711 0.0
C579 C 0.59765 0.26525 0.37703 0.0
C580 C 0.57913 0.28195 0.36602 0.0
C581 C 0.61552 0.23944 0.4186 0.0
C582 C 0.64119 0.24672 0.42072 0.0
C583 C 0.60744 0.21494 0.4293 0.0
C584 C 0.58093 0.20551 0.42569 0.0
C585 C 0.57016 0.20499 0.39751 0.0
C586 C 0.54535 0.19572 0.39409 0.0
C587 C 0.53122 0.18656 0.41863 0.0
C588 C 0.54186 0.18669 0.44666 0.0
C589 C 0.56659 0.19616 0.45024 0.0
H590 H 0.5121 0.17921 0.41584 0.0
H591 H 0.75527 0.26402 0.44502 0.0
H592 H 0.28244 0.43889 0.96006 0.0
H593 H 0.306 0.47385 0.93458 0.0
H594 H 0.37163 0.45816 0.98706 0.0
H595 H 0.34919 0.42227 0.0112 0.0
H596 H 0.3446 0.51705 0.97839 0.0
H597 H 0.38749 0.43892 0.93398 0.0
H598 H 0.3846 0.39729 0.90743 0.0
H599 H 0.34426 0.43461 0.83773 0.0
H600 H 0.34664 0.47639 0.86417 0.0
H601 H 0.4535 0.58579 0.9315 0.0
H602 H 0.42172 0.55497 0.95027 0.0
H603 H 0.39254 0.54661 0.8623 0.0
H604 H 0.42534 0.57652 0.84314 0.0
H605 H 0.39444 0.50199 0.8848 0.0
H606 H 0.35961 0.58098 0.92048 0.0
H607 H 0.35864 0.62374 0.94479 0.0
H608 H 0.37697 0.58839 0.02762 0.0
H609 H 0.37845 0.54543 0.00373 0.0
C610 C 0.30201 0.44257 0.96592 0.0
C611 C 0.31376 0.42775 0.98794 0.0
C612 C 0.31531 0.4627 0.95151 0.0
C613 C 0.34041 0.4685 0.95914 0.0
C614 C 0.35216 0.45398 0.98109 0.0
C615 C 0.33914 0.4336 0.99505 0.0
C616 C 0.35474 0.48963 0.94422 0.0
C617 C 0.35562 0.5139 0.95799 0.0
C618 C 0.36815 0.48562 0.91709 0.0
C619 C 0.36695 0.46062 0.90119 0.0
C620 C 0.37778 0.43816 0.91315 0.0
C621 C 0.3763 0.41457 0.89809 0.0
C622 C 0.36417 0.41328 0.87096 0.0
C623 C 0.35359 0.43561 0.85878 0.0
C624 C 0.35501 0.45924 0.87378 0.0
C625 C 0.44019 0.57754 0.91619 0.0
C626 C 0.44186 0.58362 0.88586 0.0
C627 C 0.42187 0.56002 0.92698 0.0
C628 C 0.40428 0.54879 0.90786 0.0
C629 C 0.40582 0.55502 0.87755 0.0
C630 C 0.42454 0.57213 0.86662 0.0
C631 C 0.3852 0.52965 0.9194 0.0
C632 C 0.38327 0.50562 0.90499 0.0
C633 C 0.37032 0.53418 0.94566 0.0
C634 C 0.3693 0.55997 0.96024 0.0
C635 C 0.3636 0.58233 0.94384 0.0
C636 C 0.36294 0.60661 0.95755 0.0
C637 C 0.36778 0.60878 0.98772 0.0
C638 C 0.37323 0.58667 0.00425 0.0
C639 C 0.37395 0.56234 0.99064 0.0
H640 H 0.36726 0.6276 0.99829 0.0
H641 H 0.36304 0.39501 0.85933 0.0
H642 H 0.73005 0.54263 0.46631 0.0
H643 H 0.70747 0.50916 0.43869 0.0
H644 H 0.63613 0.54882 0.45645 0.0
H645 H 0.65852 0.58263 0.48278 0.0
H646 H 0.67158 0.47565 0.45615 0.0
H647 H 0.59677 0.54286 0.4011 0.0
H648 H 0.59493 0.58677 0.37969 0.0
H649 H 0.67595 0.58526 0.36229 0.0
H650 H 0.67823 0.5412 0.38318 0.0
H651 H 0.55704 0.41014 0.42761 0.0
H652 H 0.59163 0.43846 0.44279 0.0
H653 H 0.61009 0.45583 0.35111 0.0
H654 H 0.57498 0.42827 0.33584 0.0
H655 H 0.60889 0.49806 0.37991 0.0
H656 H 0.64972 0.41753 0.39453 0.0
H657 H 0.65472 0.37261 0.41207 0.0
H658 H 0.64794 0.39849 0.50233 0.0
H659 H 0.64252 0.44353 0.48534 0.0
C660 C 0.70961 0.54435 0.4639 0.0
C661 C 0.69605 0.56521 0.47682 0.0
C662 C 0.69673 0.52515 0.44834 0.0
C663 C 0.67017 0.52664 0.44527 0.0
C664 C 0.65668 0.54747 0.45811 0.0
C665 C 0.66949 0.56664 0.47348 0.0
C666 C 0.65608 0.50617 0.42952 0.0
C667 C 0.65802 0.48045 0.43929 0.0
C668 C 0.63896 0.51234 0.4069 0.0
C669 C 0.63767 0.53875 0.3939 0.0
C670 C 0.61417 0.55182 0.39255 0.0
C671 C 0.61306 0.57676 0.38054 0.0
C672 C 0.63531 0.58882 0.3697 0.0
C673 C 0.65873 0.57593 0.37077 0.0
C674 C 0.65995 0.55098 0.38273 0.0
C675 C 0.56861 0.41981 0.41068 0.0
C676 C 0.56316 0.4171 0.38054 0.0
C677 C 0.58851 0.43587 0.41937 0.0
C678 C 0.60369 0.44907 0.39808 0.0
C679 C 0.59863 0.44589 0.36794 0.0
C680 C 0.57852 0.43015 0.35926 0.0
C681 C 0.62359 0.46762 0.40736 0.0
C682 C 0.62272 0.49305 0.39639 0.0
C683 C 0.64218 0.46097 0.42823 0.0
C684 C 0.64555 0.43391 0.43862 0.0
C685 C 0.64912 0.41363 0.41812 0.0
C686 C 0.65206 0.38814 0.42797 0.0
C687 C 0.65161 0.38269 0.45829 0.0
C688 C 0.64828 0.40274 0.47884 0.0
C689 C 0.64531 0.42826 0.46911 0.0
H690 H 0.65388 0.36295 0.46588 0.0
H691 H 0.63441 0.60813 0.36043 0.0
H692 H 0.6989 0.43041 0.93482 0.0
H693 H 0.67517 0.46658 0.91418 0.0
H694 H 0.67658 0.50593 0.99844 0.0
H695 H 0.7002 0.46963 0.01927 0.0
H696 H 0.62955 0.50255 0.97962 0.0
H697 H 0.70958 0.52957 0.93689 0.0
H698 H 0.75039 0.52489 0.9088 0.0
H699 H 0.70993 0.50561 0.83044 0.0
H700 H 0.66887 0.5098 0.85816 0.0
H701 H 0.56331 0.61187 0.92743 0.0
H702 H 0.59789 0.58544 0.94627 0.0
H703 H 0.59731 0.53842 0.86735 0.0
H704 H 0.56287 0.56488 0.84806 0.0
H705 H 0.64619 0.54906 0.8848 0.0
H706 H 0.56704 0.51768 0.9287 0.0
H707 H 0.52603 0.52171 0.95656 0.0
H708 H 0.56535 0.54867 0.03278 0.0
H709 H 0.60659 0.54515 0.00521 0.0
C710 C 0.69477 0.44709 0.9487 0.0
C711 C 0.70128 0.44718 0.97868 0.0
C712 C 0.68121 0.46777 0.93688 0.0
C713 C 0.67419 0.48902 0.95474 0.0
C714 C 0.68176 0.48969 0.9843 0.0
C715 C 0.6952 0.46896 0.99617 0.0
C716 C 0.65666 0.50906 0.94353 0.0
C717 C 0.63349 0.51314 0.95922 0.0
C718 C 0.66146 0.52232 0.91648 0.0
C719 C 0.68613 0.51981 0.89969 0.0
C720 C 0.70938 0.52413 0.91373 0.0
C721 C 0.73256 0.5216 0.89786 0.0
C722 C 0.73275 0.5149 0.86787 0.0
C723 C 0.70976 0.51078 0.85367 0.0
C724 C 0.68652 0.51326 0.86945 0.0
C725 C 0.57057 0.59601 0.91394 0.0
C726 C 0.56008 0.59035 0.88634 0.0
C727 C 0.59036 0.58093 0.92478 0.0
C728 C 0.59994 0.55984 0.90832 0.0
C729 C 0.59015 0.55463 0.88037 0.0
C730 C 0.57035 0.5697 0.86948 0.0
C731 C 0.61923 0.54238 0.92092 0.0
C732 C 0.64256 0.53871 0.90542 0.0
C733 C 0.61463 0.52941 0.94815 0.0
C734 C 0.58986 0.53143 0.96479 0.0
C735 C 0.56692 0.52467 0.95133 0.0
C736 C 0.54364 0.52683 0.96707 0.0
C737 C 0.54308 0.53551 0.99639 0.0
C738 C 0.56581 0.54199 0.01005 0.0
C739 C 0.58914 0.53991 0.99438 0.0
H740 H 0.52503 0.53716 0.00855 0.0
H741 H 0.75072 0.51296 0.85562 0.0
H742 H 0.29728 0.54517 0.51229 0.0
H743 H 0.32024 0.50903 0.48868 0.0
H744 H 0.33782 0.55704 0.41251 0.0
H745 H 0.31425 0.5931 0.43587 0.0
H746 H 0.33075 0.50584 0.39689 0.0
H747 H 0.3788 0.55433 0.46734 0.0
H748 H 0.38505 0.57427 0.51623 0.0
H749 H 0.38064 0.49936 0.55748 0.0
H750 H 0.37389 0.47899 0.50884 0.0
H751 H 0.44658 0.44753 0.34652 0.0
H752 H 0.41329 0.47693 0.36477 0.0
H753 H 0.4016 0.4292 0.44247 0.0
H754 H 0.43538 0.39991 0.42471 0.0
H755 H 0.40376 0.47866 0.4574 0.0
H756 H 0.35872 0.42981 0.38507 0.0
H757 H 0.35191 0.4109 0.33577 0.0
H758 H 0.35114 0.48703 0.29737 0.0
H759 H 0.35831 0.50639 0.34638 0.0
C760 C 0.30548 0.54773 0.49017 0.0
C761 C 0.30429 0.57189 0.47595 0.0
C762 C 0.31861 0.52715 0.47674 0.0
C763 C 0.33122 0.53057 0.44915 0.0
C764 C 0.3283 0.55404 0.43385 0.0
C765 C 0.31485 0.5746 0.44717 0.0
C766 C 0.34982 0.51093 0.43808 0.0
C767 C 0.34683 0.49998 0.40997 0.0
C768 C 0.37061 0.50311 0.45536 0.0
C769 C 0.37564 0.51517 0.48449 0.0
C770 C 0.37908 0.54212 0.48685 0.0
C771 C 0.38269 0.5535 0.51451 0.0
C772 C 0.38321 0.53809 0.53994 0.0
C773 C 0.38022 0.51126 0.53775 0.0
C774 C 0.37651 0.49978 0.51014 0.0
C775 C 0.43688 0.44314 0.36743 0.0
C776 C 0.44371 0.4213 0.38413 0.0
C777 C 0.41771 0.45994 0.37777 0.0
C778 C 0.40466 0.45509 0.4048 0.0
C779 C 0.41137 0.4333 0.42151 0.0
C780 C 0.43069 0.41656 0.4113 0.0
C781 C 0.38472 0.47331 0.41615 0.0
C782 C 0.38757 0.4842 0.44435 0.0
C783 C 0.36391 0.48112 0.39883 0.0
C784 C 0.35925 0.46953 0.36938 0.0
C785 C 0.35725 0.44251 0.36609 0.0
C786 C 0.35331 0.43171 0.3382 0.0
C787 C 0.35115 0.44775 0.31345 0.0
C788 C 0.35283 0.47463 0.31656 0.0
C789 C 0.35681 0.48552 0.3444 0.0
H790 H 0.34812 0.43935 0.29187 0.0
H791 H 0.38599 0.54696 0.56131 0.0
H792 H 0.80873 0.91706 0.93974 0.0
H793 H 0.83364 0.95151 0.91544 0.0
H794 H 0.82659 0.99812 0.99452 0.0
H795 H 0.80121 0.96392 0.0188 0.0
H796 H 0.82377 0.02757 0.94275 0.0
H797 H 0.8779 0.96253 0.98474 0.0
H798 H 0.89329 0.91799 0.99279 0.0
H799 H 0.91172 0.91056 0.89988 0.0
H800 H 0.89605 0.95496 0.89121 0.0
H801 H 0.9354 0.10659 0.9235 0.0
H802 H 0.902 0.07705 0.94192 0.0
H803 H 0.91199 0.0301 0.86345 0.0
H804 H 0.94535 0.0593 0.84489 0.0
H805 H 0.91212 0.00123 0.91361 0.0
H806 H 0.86045 0.06749 0.87195 0.0
H807 H 0.84555 0.11218 0.86416 0.0
H808 H 0.82273 0.11775 0.95605 0.0
H809 H 0.83801 0.07321 0.96456 0.0
C810 C 0.81191 0.93491 0.95169 0.0
C811 C 0.80322 0.9377 0.98127 0.0
C812 C 0.82628 0.9545 0.93785 0.0
C813 C 0.83225 0.97718 0.95335 0.0
C814 C 0.82226 0.98072 0.98222 0.0
C815 C 0.80795 0.9611 0.99612 0.0
C816 C 0.85076 0.99609 0.94049 0.0
C817 C 0.84316 0.02192 0.93659 0.0
C818 C 0.87592 0.98857 0.9321 0.0
C819 C 0.88555 0.96195 0.93729 0.0
C820 C 0.88504 0.95132 0.96599 0.0
C821 C 0.89384 0.92612 0.97067 0.0
C822 C 0.90341 0.91143 0.94685 0.0
C823 C 0.90426 0.92195 0.9183 0.0
C824 C 0.89543 0.94713 0.9135 0.0
C825 C 0.93041 0.09007 0.91006 0.0
C826 C 0.94318 0.08531 0.88274 0.0
C827 C 0.91123 0.07328 0.92057 0.0
C828 C 0.90445 0.05146 0.90397 0.0
C829 C 0.91694 0.04682 0.87661 0.0
C830 C 0.936 0.06361 0.86602 0.0
C831 C 0.88517 0.03277 0.91566 0.0
C832 C 0.89269 0.00693 0.91952 0.0
C833 C 0.86001 0.04035 0.92401 0.0
C834 C 0.85062 0.06708 0.91896 0.0
C835 C 0.85246 0.07831 0.89057 0.0
C836 C 0.84391 0.10361 0.88601 0.0
C837 C 0.83322 0.11782 0.90959 0.0
C838 C 0.83104 0.10673 0.9378 0.0
C839 C 0.83964 0.08145 0.94251 0.0
H840 H 0.8266 0.13741 0.90601 0.0
H841 H 0.91022 0.89192 0.95052 0.0
H842 H 0.19556 0.03048 0.50503 0.0
H843 H 0.17115 0.9987 0.47749 0.0
H844 H 0.1817 0.04427 0.39789 0.0
H845 H 0.20578 0.07645 0.42558 0.0
H846 H 0.13222 0.03349 0.40925 0.0
H847 H 0.20944 0.98522 0.40302 0.0
H848 H 0.24848 0.96437 0.42077 0.0
H849 H 0.20316 0.91431 0.47717 0.0
H850 H 0.16384 0.93514 0.46013 0.0
H851 H 0.05928 0.94088 0.331 0.0
H852 H 0.09501 0.96816 0.34524 0.0
H853 H 0.09431 0.93208 0.43147 0.0
H854 H 0.05888 0.9045 0.41743 0.0
H855 H 0.14259 0.93794 0.40929 0.0
H856 H 0.06668 0.99064 0.42155 0.0
H857 H 0.02728 0.01173 0.4051 0.0
H858 H 0.0704 0.05359 0.33838 0.0
H859 H 0.11004 0.03246 0.3542 0.0
C860 C 0.19297 0.03352 0.48156 0.0
C861 C 0.20239 0.05599 0.46747 0.0
C862 C 0.17922 0.01525 0.46579 0.0
C863 C 0.17471 0.01907 0.4356 0.0
C864 C 0.18505 0.04094 0.42116 0.0
C865 C 0.19891 0.0592 0.43693 0.0
C866 C 0.15693 0.0017 0.42019 0.0
C867 C 0.1348 0.01263 0.4086 0.0
C868 C 0.16003 0.97446 0.42001 0.0
C869 C 0.18366 0.96191 0.43043 0.0
C870 C 0.20779 0.96993 0.4194 0.0
C871 C 0.22998 0.95808 0.42931 0.0
C872 C 0.22831 0.93806 0.45012 0.0
C873 C 0.20443 0.92983 0.46105 0.0
C874 C 0.18218 0.94163 0.45125 0.0
C875 C 0.06671 0.93869 0.353 0.0
C876 C 0.05602 0.9206 0.37314 0.0
C877 C 0.08715 0.95432 0.36108 0.0
C878 C 0.09716 0.95226 0.38948 0.0
C879 C 0.08688 0.93393 0.40942 0.0
C880 C 0.0665 0.91828 0.40138 0.0
C881 C 0.11778 0.96976 0.39895 0.0
C882 C 0.14033 0.95884 0.40946 0.0
C883 C 0.11506 0.99702 0.3983 0.0
C884 C 0.09126 0.00974 0.3888 0.0
C885 C 0.06772 0.00418 0.4032 0.0
C886 C 0.04536 0.01617 0.39403 0.0
C887 C 0.04632 0.03392 0.37064 0.0
C888 C 0.06967 0.03978 0.35644 0.0
C889 C 0.0921 0.02782 0.36551 0.0
H890 H 0.02898 0.04319 0.36358 0.0
H891 H 0.24551 0.9289 0.45775 0.0
H892 H 0.21054 0.96473 0.0014 0.0
H893 H 0.19045 0.0032 0.98054 0.0
H894 H 0.17381 0.96026 0.90147 0.0
H895 H 0.19401 0.92183 0.9221 0.0
H896 H 0.18257 0.01325 0.8904 0.0
H897 H 0.13184 0.95807 0.95672 0.0
H898 H 0.12482 0.9348 0.00398 0.0
H899 H 0.12801 0.0067 0.05154 0.0
H900 H 0.13536 0.03039 0.00447 0.0
H901 H 0.06446 0.06099 0.84294 0.0
H902 H 0.09999 0.03508 0.86023 0.0
H903 H 0.10269 0.08161 0.93943 0.0
H904 H 0.0668 0.10741 0.92261 0.0
H905 H 0.10491 0.03164 0.95257 0.0
H906 H 0.14847 0.08771 0.88394 0.0
H907 H 0.15639 0.11005 0.83626 0.0
H908 H 0.16714 0.03678 0.79266 0.0
H909 H 0.15891 0.01396 0.84 0.0
C910 C 0.20328 0.96378 0.9792 0.0
C911 C 0.2034 0.94026 0.96352 0.0
C912 C 0.1919 0.98574 0.9673 0.0
C913 C 0.18022 0.98433 0.93977 0.0
C914 C 0.1827 0.96168 0.92278 0.0
C915 C 0.19424 0.93974 0.93459 0.0
C916 C 0.16185 0.00449 0.93102 0.0
C917 C 0.16556 0.01733 0.90388 0.0
C918 C 0.1399 0.00998 0.94895 0.0
C919 C 0.13436 0.99596 0.97713 0.0
C920 C 0.13109 0.9689 0.97727 0.0
C921 C 0.12709 0.95564 0.00401 0.0
C922 C 0.12606 0.96925 0.03076 0.0
C923 C 0.12885 0.99619 0.03079 0.0
C924 C 0.13291 0.00955 0.00409 0.0
C925 C 0.07261 0.06581 0.86401 0.0
C926 C 0.0627 0.08629 0.88139 0.0
C927 C 0.09307 0.05107 0.87377 0.0
C928 C 0.10425 0.05667 0.90091 0.0
C929 C 0.09441 0.07704 0.91835 0.0
C930 C 0.07386 0.09174 0.90869 0.0
C931 C 0.1254 0.04044 0.91166 0.0
C932 C 0.12213 0.02811 0.93922 0.0
C933 C 0.14769 0.03546 0.89403 0.0
C934 C 0.15288 0.04911 0.86552 0.0
C935 C 0.15235 0.07634 0.86416 0.0
C936 C 0.15692 0.0891 0.83719 0.0
C937 C 0.16221 0.07484 0.81143 0.0
C938 C 0.16302 0.0478 0.81262 0.0
C939 C 0.15844 0.03494 0.83953 0.0
H940 H 0.16573 0.08475 0.79057 0.0
H941 H 0.12304 0.95892 0.05145 0.0
H942 H 0.8453 0.08216 0.50871 0.0
H943 H 0.86864 0.04786 0.4829 0.0
H944 H 0.79886 0.02122 0.4446 0.0
H945 H 0.77491 0.05483 0.47191 0.0
H946 H 0.8265 0.98098 0.46097 0.0
H947 H 0.84235 0.05675 0.40353 0.0
H948 H 0.85419 0.10229 0.39391 0.0
H949 H 0.9294 0.0879 0.42558 0.0
H950 H 0.9179 0.04234 0.43578 0.0
H951 H 0.93144 0.93852 0.34236 0.0
H952 H 0.899 0.96827 0.36172 0.0
H953 H 0.90372 0.93325 0.44818 0.0
H954 H 0.93611 0.90301 0.42888 0.0
H955 H 0.90432 0.00414 0.40149 0.0
H956 H 0.84582 0.93937 0.48516 0.0
H957 H 0.83025 0.89433 0.489 0.0
H958 H 0.83486 0.88692 0.39428 0.0
H959 H 0.85009 0.93198 0.38982 0.0
C960 C 0.83474 0.06881 0.4952 0.0
C961 C 0.80815 0.07121 0.49254 0.0
C962 C 0.84822 0.04937 0.48012 0.0
C963 C 0.83558 0.03218 0.46146 0.0
C964 C 0.80902 0.03433 0.45881 0.0
C965 C 0.79541 0.05371 0.47418 0.0
C966 C 0.85037 0.01219 0.4447 0.0
C967 C 0.84348 0.98601 0.44789 0.0
C968 C 0.8721 0.0188 0.4269 0.0
C969 C 0.87919 0.04616 0.42061 0.0
C970 C 0.86136 0.06333 0.40862 0.0
C971 C 0.86802 0.08914 0.40304 0.0
C972 C 0.89252 0.09799 0.40918 0.0
C973 C 0.91043 0.08102 0.42085 0.0
C974 C 0.90386 0.05519 0.4265 0.0
C975 C 0.92551 0.93692 0.36547 0.0
C976 C 0.93661 0.91845 0.38413 0.0
C977 C 0.90691 0.95399 0.37649 0.0
C978 C 0.89889 0.953 0.40636 0.0
C979 C 0.90939 0.93417 0.42494 0.0
C980 C 0.92801 0.91698 0.4139 0.0
C981 C 0.88092 0.97284 0.41845 0.0
C982 C 0.88727 0.99904 0.41441 0.0
C983 C 0.85831 0.96623 0.43464 0.0
C984 C 0.84933 0.93901 0.4372 0.0
C985 C 0.84346 0.92815 0.46515 0.0
C986 C 0.83469 0.90261 0.46743 0.0
C987 C 0.83159 0.88778 0.4419 0.0
C988 C 0.83733 0.89841 0.41404 0.0
C989 C 0.84609 0.92394 0.41163 0.0
H990 H 0.82462 0.86809 0.44367 0.0
H991 H 0.89763 0.11799 0.40485 0.0
H992 H 0.29575 0.41206 0.09557 0.0
H993 H 0.31868 0.40415 0.14111 0.0
H994 H 0.33205 0.32497 0.11442 0.0
H995 H 0.30909 0.33279 0.06869 0.0
H996 H 0.32536 0.33281 0.17846 0.0
H997 H 0.37433 0.36466 0.09363 0.0
H998 H 0.38157 0.3948 0.05182 0.0
H999 H 0.38507 0.45869 0.11245 0.0
H1000 H 0.37727 0.42896 0.15461 0.0
H1001 H 0.44256 0.31373 0.25407 0.0
H1002 H 0.40839 0.31519 0.21827 0.0
H1003 H 0.40163 0.39779 0.23088 0.0
H1004 H 0.43591 0.39664 0.26614 0.0
H1005 H 0.40401 0.38655 0.17396 0.0
H1006 H 0.35646 0.35525 0.25912 0.0
H1007 H 0.3469 0.32597 0.30118 0.0
H1008 H 0.34002 0.26194 0.24125 0.0
H1009 H 0.3499 0.29079 0.19883 0.0
C1010 C 0.30298 0.39278 0.0998 0.0
C1011 C 0.30105 0.37315 0.07844 0.0
C1012 C 0.31597 0.38826 0.12584 0.0
C1013 C 0.32738 0.36411 0.1308 0.0
C1014 C 0.32334 0.34373 0.11093 0.0
C1015 C 0.31025 0.34823 0.08484 0.0
C1016 C 0.34678 0.36159 0.1538 0.0
C1017 C 0.3427 0.34431 0.17744 0.0
C1018 C 0.36922 0.37686 0.15247 0.0
C1019 C 0.37499 0.39462 0.12725 0.0
C1020 C 0.37652 0.38515 0.09804 0.0
C1021 C 0.3807 0.40216 0.07427 0.0
C1022 C 0.38372 0.42865 0.07947 0.0
C1023 C 0.38269 0.43816 0.10846 0.0
C1024 C 0.37839 0.42125 0.1323 0.0
C1025 C 0.43368 0.33218 0.24938 0.0
C1026 C 0.44213 0.35508 0.26288 0.0
C1027 C 0.41406 0.33296 0.229 0.0
C1028 C 0.40235 0.35659 0.22201 0.0
C1029 C 0.41044 0.37935 0.23585 0.0
C1030 C 0.43009 0.37863 0.25605 0.0
C1031 C 0.38257 0.35799 0.19917 0.0
C1032 C 0.38669 0.37501 0.17524 0.0
C1033 C 0.36022 0.3425 0.20038 0.0
C1034 C 0.35419 0.32513 0.22583 0.0
C1035 C 0.35312 0.33489 0.25493 0.0
C1036 C 0.3476 0.31838 0.27883 0.0
C1037 C 0.34293 0.2921 0.27389 0.0
C1038 C 0.34369 0.28229 0.24504 0.0
C1039 C 0.34922 0.29872 0.22105 0.0
H1040 H 0.33866 0.27934 0.29243 0.0
H1041 H 0.3869 0.4418 0.06103 0.0
H1042 H 0.7291 0.62957 0.58944 0.0
H1043 H 0.70573 0.64351 0.63448 0.0
H1044 H 0.63468 0.63725 0.5889 0.0
H1045 H 0.65788 0.62477 0.5437 0.0
H1046 H 0.63216 0.67685 0.62402 0.0
H1047 H 0.65879 0.58714 0.63239 0.0
H1048 H 0.69028 0.55163 0.63354 0.0
H1049 H 0.72639 0.58757 0.70718 0.0
H1050 H 0.69526 0.62348 0.7062 0.0
H1051 H 0.55925 0.60913 0.75198 0.0
H1052 H 0.59312 0.60973 0.71396 0.0
H1053 H 0.60289 0.69196 0.72686 0.0
H1054 H 0.56827 0.69169 0.76446 0.0
H1055 H 0.64147 0.62037 0.71202 0.0
H1056 H 0.6199 0.71956 0.66033 0.0
H1057 H 0.58406 0.75028 0.65593 0.0
H1058 H 0.53053 0.68745 0.66381 0.0
H1059 H 0.56606 0.65638 0.66791 0.0
C1060 C 0.70855 0.63171 0.5889 0.0
C1061 C 0.69529 0.6256 0.56318 0.0
C1062 C 0.69521 0.63949 0.61469 0.0
C1063 C 0.66841 0.64099 0.61521 0.0
C1064 C 0.65533 0.63617 0.58911 0.0
C1065 C 0.66861 0.62867 0.56336 0.0
C1066 C 0.65352 0.64564 0.64313 0.0
C1067 C 0.63442 0.66474 0.64343 0.0
C1068 C 0.65625 0.62967 0.66835 0.0
C1069 C 0.67494 0.60813 0.66897 0.0
C1070 C 0.67357 0.58755 0.64867 0.0
C1071 C 0.69133 0.56735 0.64932 0.0
C1072 C 0.71038 0.56739 0.67036 0.0
C1073 C 0.71167 0.5876 0.69085 0.0
C1074 C 0.69398 0.60788 0.69026 0.0
C1075 C 0.56865 0.62737 0.7469 0.0
C1076 C 0.56086 0.65042 0.76106 0.0
C1077 C 0.58813 0.62765 0.72522 0.0
C1078 C 0.60041 0.65092 0.71735 0.0
C1079 C 0.59339 0.67385 0.73222 0.0
C1080 C 0.57361 0.67365 0.75371 0.0
C1081 C 0.61959 0.65103 0.69253 0.0
C1082 C 0.6396 0.63294 0.69292 0.0
C1083 C 0.61711 0.66729 0.66751 0.0
C1084 C 0.59561 0.68574 0.66483 0.0
C1085 C 0.60048 0.71233 0.66108 0.0
C1086 C 0.58023 0.72979 0.65863 0.0
C1087 C 0.55504 0.72083 0.65971 0.0
C1088 C 0.55005 0.69438 0.66311 0.0
C1089 C 0.57023 0.67685 0.66552 0.0
H1090 H 0.53939 0.73438 0.65784 0.0
H1091 H 0.72411 0.55173 0.67083 0.0
H1092 H 0.72214 0.39362 0.0887 0.0
H1093 H 0.69548 0.38098 0.13205 0.0
H1094 H 0.63839 0.35121 0.07394 0.0
H1095 H 0.66487 0.36425 0.03082 0.0
H1096 H 0.61789 0.3837 0.11263 0.0
H1097 H 0.67317 0.31044 0.11655 0.0
H1098 H 0.71431 0.2873 0.11773 0.0
H1099 H 0.73153 0.32483 0.19962 0.0
H1100 H 0.69064 0.34851 0.19871 0.0
H1101 H 0.56189 0.31311 0.25025 0.0
H1102 H 0.59311 0.31396 0.20885 0.0
H1103 H 0.59674 0.39728 0.21454 0.0
H1104 H 0.56552 0.39676 0.2556 0.0
H1105 H 0.64266 0.33291 0.20066 0.0
H1106 H 0.59587 0.42127 0.14496 0.0
H1107 H 0.5535 0.44194 0.14242 0.0
H1108 H 0.51721 0.36879 0.16051 0.0
H1109 H 0.55933 0.34763 0.16272 0.0
C1110 C 0.70413 0.38387 0.08542 0.0
C1111 C 0.69539 0.37972 0.05677 0.0
C1112 C 0.68897 0.3766 0.11005 0.0
C1113 C 0.66499 0.36505 0.10619 0.0
C1114 C 0.65681 0.36008 0.0774 0.0
C1115 C 0.67189 0.36741 0.05286 0.0
C1116 C 0.64736 0.36049 0.1319 0.0
C1117 C 0.62332 0.37248 0.1318 0.0
C1118 C 0.65432 0.34565 0.15677 0.0
C1119 C 0.67892 0.33142 0.15742 0.0
C1120 C 0.68582 0.31393 0.13468 0.0
C1121 C 0.70908 0.30068 0.13533 0.0
C1122 C 0.72555 0.30464 0.1587 0.0
C1123 C 0.71876 0.32181 0.18151 0.0
C1124 C 0.69553 0.33513 0.18096 0.0
C1125 C 0.56948 0.33161 0.24287 0.0
C1126 C 0.56089 0.3549 0.25601 0.0
C1127 C 0.5874 0.33202 0.21931 0.0
C1128 C 0.59693 0.35569 0.20846 0.0
C1129 C 0.58931 0.37883 0.22237 0.0
C1130 C 0.57143 0.37847 0.24584 0.0
C1131 C 0.61355 0.35652 0.18143 0.0
C1132 C 0.63731 0.34396 0.18136 0.0
C1133 C 0.60623 0.37048 0.15609 0.0
C1134 C 0.58077 0.38294 0.15427 0.0
C1135 C 0.57884 0.40958 0.14826 0.0
C1136 C 0.55487 0.42138 0.14689 0.0
C1137 C 0.53268 0.4067 0.15139 0.0
C1138 C 0.53441 0.38016 0.15713 0.0
C1139 C 0.55833 0.36826 0.15847 0.0
H1140 H 0.51415 0.41588 0.15036 0.0
H1141 H 0.74354 0.29436 0.15916 0.0
H1142 H 0.35107 0.61786 0.54542 0.0
H1143 H 0.37312 0.6241 0.59163 0.0
H1144 H 0.3031 0.65041 0.63421 0.0
H1145 H 0.28041 0.64331 0.58802 0.0
H1146 H 0.35103 0.68058 0.64598 0.0
H1147 H 0.31647 0.59418 0.64947 0.0
H1148 H 0.30784 0.55105 0.62853 0.0
H1149 H 0.38837 0.53618 0.61997 0.0
H1150 H 0.3975 0.57945 0.64026 0.0
H1151 H 0.41718 0.67394 0.78238 0.0
H1152 H 0.38392 0.67094 0.74539 0.0
H1153 H 0.43137 0.61808 0.694 0.0
H1154 H 0.46349 0.61953 0.73202 0.0
H1155 H 0.38688 0.60167 0.6919 0.0
H1156 H 0.42262 0.6881 0.67933 0.0
H1157 H 0.43387 0.73204 0.69607 0.0
H1158 H 0.355 0.74754 0.7179 0.0
H1159 H 0.34335 0.70356 0.70165 0.0
C1160 C 0.34022 0.62482 0.56459 0.0
C1161 C 0.31383 0.62962 0.56314 0.0
C1162 C 0.35293 0.62857 0.59091 0.0
C1163 C 0.33965 0.63744 0.6163 0.0
C1164 C 0.31362 0.64352 0.61475 0.0
C1165 C 0.30074 0.63951 0.58836 0.0
C1166 C 0.35307 0.63897 0.64461 0.0
C1167 C 0.35852 0.66336 0.65648 0.0
C1168 C 0.36312 0.61647 0.65779 0.0
C1169 C 0.35766 0.59016 0.64622 0.0
C1170 C 0.33234 0.58179 0.64293 0.0
C1171 C 0.32737 0.55731 0.63117 0.0
C1172 C 0.34755 0.54091 0.62285 0.0
C1173 C 0.37275 0.54891 0.62641 0.0
C1174 C 0.37784 0.57342 0.63804 0.0
C1175 C 0.42034 0.66167 0.76315 0.0
C1176 C 0.44282 0.647 0.75988 0.0
C1177 C 0.40143 0.66009 0.74193 0.0
C1178 C 0.40522 0.64466 0.71648 0.0
C1179 C 0.42781 0.63005 0.71339 0.0
C1180 C 0.44625 0.63095 0.73504 0.0
C1181 C 0.38599 0.64347 0.69284 0.0
C1182 C 0.37924 0.61901 0.68185 0.0
C1183 C 0.37519 0.66597 0.68014 0.0
C1184 C 0.38217 0.69248 0.68958 0.0
C1185 C 0.40771 0.70085 0.68785 0.0
C1186 C 0.41415 0.72575 0.69725 0.0
C1187 C 0.39517 0.74254 0.70815 0.0
C1188 C 0.36969 0.73451 0.70952 0.0
C1189 C 0.36315 0.7096 0.70021 0.0
H1190 H 0.4002 0.7618 0.71545 0.0
H1191 H 0.34366 0.52199 0.61369 0.0
H1192 H 0.81314 0.84085 0.05513 0.0
H1193 H 0.83679 0.83144 0.0999 0.0
H1194 H 0.81618 0.90662 0.13509 0.0
H1195 H 0.7934 0.91635 0.08986 0.0
H1196 H 0.8647 0.9002 0.13813 0.0
H1197 H 0.79207 0.847 0.16431 0.0
H1198 H 0.76005 0.81279 0.15671 0.0
H1199 H 0.8197 0.75596 0.14827 0.0
H1200 H 0.85211 0.78989 0.15544 0.0
H1201 H 0.91783 0.88866 0.27692 0.0
H1202 H 0.88511 0.8902 0.23964 0.0
H1203 H 0.91266 0.81792 0.20294 0.0
H1204 H 0.94521 0.81587 0.24084 0.0
H1205 H 0.86051 0.8214 0.20109 0.0
H1206 H 0.93275 0.87452 0.17299 0.0
H1207 H 0.96507 0.90847 0.18041 0.0
H1208 H 0.90577 0.96537 0.19179 0.0
H1209 H 0.87307 0.93167 0.18484 0.0
C1210 C 0.81325 0.85508 0.07276 0.0
C1211 C 0.80156 0.87932 0.06916 0.0
C1212 C 0.82669 0.84968 0.09837 0.0
C1213 C 0.82818 0.86826 0.12102 0.0
C1214 C 0.8154 0.89201 0.11791 0.0
C1215 C 0.80235 0.89755 0.09216 0.0
C1216 C 0.84499 0.86414 0.14656 0.0
C1217 C 0.86338 0.88316 0.15219 0.0
C1218 C 0.84401 0.84148 0.1643 0.0
C1219 C 0.82453 0.82103 0.16016 0.0
C1220 C 0.79837 0.82724 0.16063 0.0
C1221 C 0.78015 0.80789 0.15643 0.0
C1222 C 0.78784 0.78223 0.15194 0.0
C1223 C 0.81377 0.77585 0.15173 0.0
C1224 C 0.83207 0.79512 0.15589 0.0
C1225 C 0.91679 0.87292 0.26114 0.0
C1226 C 0.93437 0.85234 0.26152 0.0
C1227 C 0.89806 0.87383 0.23985 0.0
C1228 C 0.89683 0.85448 0.21812 0.0
C1229 C 0.91337 0.83312 0.21944 0.0
C1230 C 0.93198 0.83201 0.24105 0.0
C1231 C 0.87966 0.85771 0.19284 0.0
C1232 C 0.86151 0.83849 0.1871 0.0
C1233 C 0.8808 0.88018 0.17486 0.0
C1234 C 0.90047 0.90053 0.17864 0.0
C1235 C 0.9266 0.89425 0.17724 0.0
C1236 C 0.94499 0.91345 0.18135 0.0
C1237 C 0.93748 0.93905 0.18663 0.0
C1238 C 0.91156 0.94553 0.18772 0.0
C1239 C 0.89309 0.92639 0.18367 0.0
H1240 H 0.95174 0.95389 0.18982 0.0
H1241 H 0.7737 0.76728 0.14869 0.0
H1242 H 0.22927 0.12262 0.58016 0.0
H1243 H 0.20529 0.13513 0.62532 0.0
H1244 H 0.13452 0.12268 0.58081 0.0
H1245 H 0.15825 0.11138 0.53545 0.0
H1246 H 0.13055 0.16406 0.61412 0.0
H1247 H 0.16084 0.07628 0.62609 0.0
H1248 H 0.19348 0.04194 0.62842 0.0
H1249 H 0.22867 0.08133 0.70038 0.0
H1250 H 0.1964 0.1161 0.6982 0.0
H1251 H 0.06203 0.1041 0.74982 0.0
H1252 H 0.09453 0.10207 0.71029 0.0
H1253 H 0.10651 0.18454 0.71721 0.0
H1254 H 0.07346 0.18692 0.75653 0.0
H1255 H 0.1437 0.11246 0.7052 0.0
H1256 H 0.11891 0.20826 0.64733 0.0
H1257 H 0.08249 0.23824 0.64276 0.0
H1258 H 0.03009 0.17547 0.65889 0.0
H1259 H 0.06617 0.14511 0.66318 0.0
C1260 C 0.20861 0.12298 0.5799 0.0
C1261 C 0.19564 0.11568 0.55436 0.0
C1262 C 0.19494 0.12994 0.60576 0.0
C1263 C 0.16811 0.1295 0.60654 0.0
C1264 C 0.1552 0.12311 0.58076 0.0
C1265 C 0.1688 0.11633 0.55493 0.0
C1266 C 0.15322 0.13444 0.63439 0.0
C1267 C 0.13362 0.15298 0.63414 0.0
C1268 C 0.15703 0.11979 0.66042 0.0
C1269 C 0.17643 0.09894 0.66172 0.0
C1270 C 0.17567 0.07772 0.64224 0.0
C1271 C 0.19407 0.05816 0.64356 0.0
C1272 C 0.21319 0.05949 0.66446 0.0
C1273 C 0.21389 0.08035 0.68415 0.0
C1274 C 0.19556 0.09999 0.68288 0.0
C1275 C 0.07162 0.12185 0.74314 0.0
C1276 C 0.06487 0.14574 0.75616 0.0
C1277 C 0.09033 0.12061 0.7206 0.0
C1278 C 0.10276 0.14318 0.7106 0.0
C1279 C 0.09687 0.16693 0.72431 0.0
C1280 C 0.07799 0.16824 0.7468 0.0
C1281 C 0.12078 0.14175 0.68473 0.0
C1282 C 0.14101 0.12395 0.68539 0.0
C1283 C 0.11708 0.15651 0.65877 0.0
C1284 C 0.09524 0.17453 0.65596 0.0
C1285 C 0.09961 0.20088 0.64984 0.0
C1286 C 0.07903 0.21793 0.6473 0.0
C1287 C 0.054 0.20878 0.65066 0.0
C1288 C 0.04948 0.18255 0.65643 0.0
C1289 C 0.06999 0.16542 0.65895 0.0
H1290 H 0.0381 0.22201 0.6487 0.0
H1291 H 0.22741 0.04433 0.66547 0.0
H1292 H 0.14928 0.89962 0.03271 0.0
H1293 H 0.12483 0.89243 0.0787 0.0
H1294 H 0.18864 0.85167 0.11505 0.0
H1295 H 0.21365 0.8593 0.06899 0.0
H1296 H 0.13909 0.82744 0.12491 0.0
H1297 H 0.18013 0.91051 0.13723 0.0
H1298 H 0.19223 0.95432 0.12009 0.0
H1299 H 0.11309 0.97514 0.11522 0.0
H1300 H 0.1005 0.93133 0.13199 0.0
H1301 H 0.07562 0.8274 0.26712 0.0
H1302 H 0.10787 0.83088 0.22687 0.0
H1303 H 0.06305 0.89056 0.18587 0.0
H1304 H 0.03181 0.8882 0.22683 0.0
H1305 H 0.10884 0.90437 0.18172 0.0
H1306 H 0.06623 0.82365 0.162 0.0
H1307 H 0.05067 0.77949 0.17314 0.0
H1308 H 0.12758 0.75401 0.18624 0.0
H1309 H 0.14356 0.79812 0.17551 0.0
C1310 C 0.15827 0.88935 0.05054 0.0
C1311 C 0.18357 0.88043 0.04742 0.0
C1312 C 0.1442 0.8851 0.07672 0.0
C1313 C 0.1551 0.87182 0.10031 0.0
C1314 C 0.18 0.86202 0.09702 0.0
C1315 C 0.1942 0.86637 0.07076 0.0
C1316 C 0.14044 0.86897 0.12857 0.0
C1317 C 0.13282 0.84415 0.13777 0.0
C1318 C 0.13183 0.89091 0.14469 0.0
C1319 C 0.13938 0.9176 0.13578 0.0
C1320 C 0.16531 0.92441 0.13246 0.0
C1321 C 0.17225 0.94924 0.12279 0.0
C1322 C 0.15344 0.96749 0.11654 0.0
C1323 C 0.12764 0.96099 0.12012 0.0
C1324 C 0.12059 0.93618 0.12976 0.0
C1325 C 0.07276 0.84122 0.24945 0.0
C1326 C 0.05129 0.85755 0.25001 0.0
C1327 C 0.0911 0.84313 0.22639 0.0
C1328 C 0.08779 0.86076 0.20303 0.0
C1329 C 0.0662 0.87692 0.20365 0.0
C1330 C 0.04829 0.87551 0.22702 0.0
C1331 C 0.10667 0.86273 0.1779 0.0
C1332 C 0.11525 0.88749 0.16927 0.0
C1333 C 0.11561 0.84074 0.16188 0.0
C1334 C 0.10605 0.81423 0.16831 0.0
C1335 C 0.0798 0.80867 0.16747 0.0
C1336 C 0.07091 0.78365 0.17367 0.0
C1337 C 0.08812 0.76398 0.18049 0.0
C1338 C 0.11427 0.76928 0.18102 0.0
C1339 C 0.12325 0.79428 0.17487 0.0
H1340 H 0.0812 0.74462 0.18528 0.0
H1341 H 0.15885 0.98667 0.10894 0.0
H1342 H 0.80433 0.16752 0.5698 0.0
H1343 H 0.82903 0.17867 0.61331 0.0
H1344 H 0.82232 0.0999 0.6446 0.0
H1345 H 0.79756 0.08872 0.60125 0.0
H1346 H 0.82061 0.1368 0.69083 0.0
H1347 H 0.87172 0.11467 0.60343 0.0
H1348 H 0.88536 0.11924 0.55096 0.0
H1349 H 0.90706 0.19823 0.56642 0.0
H1350 H 0.89309 0.19424 0.61893 0.0
H1351 H 0.93322 0.1105 0.76816 0.0
H1352 H 0.89798 0.11152 0.73397 0.0
H1353 H 0.91643 0.19059 0.71098 0.0
H1354 H 0.95181 0.18982 0.74524 0.0
H1355 H 0.91002 0.15968 0.66215 0.0
H1356 H 0.86431 0.17961 0.75177 0.0
H1357 H 0.85024 0.17477 0.80406 0.0
H1358 H 0.81873 0.10001 0.78508 0.0
H1359 H 0.83292 0.10423 0.73271 0.0
C1360 C 0.80745 0.15283 0.58645 0.0
C1361 C 0.79929 0.12722 0.58211 0.0
C1362 C 0.82164 0.15917 0.61118 0.0
C1363 C 0.82775 0.14 0.63191 0.0
C1364 C 0.81783 0.11494 0.62883 0.0
C1365 C 0.80382 0.10856 0.60402 0.0
C1366 C 0.84699 0.14502 0.6546 0.0
C1367 C 0.84018 0.14174 0.68465 0.0
C1368 C 0.87239 0.15193 0.64645 0.0
C1369 C 0.88107 0.15426 0.61499 0.0
C1370 C 0.8792 0.13308 0.59558 0.0
C1371 C 0.88701 0.13555 0.56584 0.0
C1372 C 0.897 0.15904 0.55534 0.0
C1373 C 0.89926 0.18007 0.57458 0.0
C1374 C 0.89139 0.17772 0.60432 0.0
C1375 C 0.92981 0.12815 0.7559 0.0
C1376 C 0.94542 0.15006 0.75939 0.0
C1377 C 0.90951 0.12876 0.73654 0.0
C1378 C 0.90445 0.15122 0.72019 0.0
C1379 C 0.91997 0.17311 0.72353 0.0
C1380 C 0.94016 0.17262 0.74313 0.0
C1381 C 0.88377 0.15122 0.69849 0.0
C1382 C 0.89036 0.15526 0.66852 0.0
C1383 C 0.85823 0.14496 0.70678 0.0
C1384 C 0.84986 0.14217 0.73832 0.0
C1385 C 0.8546 0.16203 0.75879 0.0
C1386 C 0.84655 0.15942 0.78844 0.0
C1387 C 0.83362 0.13709 0.79788 0.0
C1388 C 0.82875 0.11729 0.77772 0.0
C1389 C 0.83676 0.1198 0.74803 0.0
H1390 H 0.82728 0.13518 0.8208 0.0
H1391 H 0.90306 0.16092 0.53231 0.0
loop_
_geom_bond_atom_site_label_1
_geom_bond_atom_site_label_2
_geom_bond_distance
_geom_bond_site_symmetry_2
_ccdc_geom_bond_type
H0 C7 0.929 . S
H1 C10 0.930 . S
H2 C12 0.929 . S
H3 C4 0.969 . S
C4 H3 0.969 . S
C4 O5 1.550 1_556 S
C4 H6 0.973 . S
O5 C4 1.550 1_554 S
O5 C11 1.412 . S
H6 C4 0.973 . S
C7 H0 0.929 . S
C7 C8 1.400 . S
C7 C9 1.364 . S
C8 C7 1.400 . S
C8 C12 1.377 . S
C9 C7 1.364 . S
C9 C10 1.374 1_554 S
C10 H1 0.930 . S
C10 C9 1.374 1_556 S
C10 C11 1.383 1_556 S
C11 O5 1.412 . S
C11 C10 1.383 1_554 S
C11 C12 1.394 . S
C12 H2 0.929 . S
C12 C8 1.377 . S
C12 C11 1.394 . S
H13 C20 0.929 . S
H14 C23 0.930 . S
H15 C25 0.929 . S
H16 C17 0.969 . S
C17 H16 0.969 . S
C17 O18 1.550 . S
C17 H19 0.973 . S
O18 C17 1.550 . S
O18 C24 1.412 . S
H19 C17 0.973 . S
C20 H13 0.929 . S
C20 C21 1.400 . S
C20 C22 1.364 . S
C21 C20 1.400 . S
C21 C25 1.377 . S
C22 C20 1.364 . S
C22 C23 1.374 . S
C23 H14 0.930 . S
C23 C22 1.374 . S
C23 C24 1.383 . S
C24 O18 1.412 . S
C24 C23 1.383 . S
C24 C25 1.394 . S
C25 H15 0.929 . S
C25 C21 1.377 . S
C25 C24 1.394 . S
H26 C33 0.929 . S
H27 C36 0.930 . S
H28 C38 0.929 . S
H29 C30 0.969 . S
C30 H29 0.969 . S
C30 O31 1.550 . S
C30 H32 0.973 1_556 S
O31 C30 1.550 . S
O31 C37 1.412 . S
H32 C30 0.973 1_554 S
C33 H26 0.929 . S
C33 C34 1.400 1_554 S
C33 C35 1.364 . S
C34 C33 1.400 1_556 S
C34 C38 1.377 . S
C35 C33 1.364 . S
C35 C36 1.374 . S
C36 H27 0.930 . S
C36 C35 1.374 . S
C36 C37 1.383 1_554 S
C37 O31 1.412 . S
C37 C36 1.383 1_556 S
C37 C38 1.394 . S
C38 H28 0.929 . S
C38 C34 1.377 . S
C38 C37 1.394 . S
H39 C46 0.929 . S
H40 C49 0.930 . S
H41 C51 0.929 . S
H42 C43 0.969 . S
C43 H42 0.969 . S
C43 O44 1.550 . S
C43 H45 0.973 . S
O44 C43 1.550 . S
O44 C50 1.412 . S
H45 C43 0.973 . S
C46 H39 0.929 . S
C46 C47 1.400 . S
C46 C48 1.364 . S
C47 C46 1.400 . S
C47 C51 1.377 . S
C48 C46 1.364 . S
C48 C49 1.374 . S
C49 H40 0.930 . S
C49 C48 1.374 . S
C49 C50 1.383 . S
C50 O44 1.412 . S
C50 C49 1.383 . S
C50 C51 1.394 . S
C51 H41 0.929 . S
C51 C47 1.377 . S
C51 C50 1.394 . S
H52 C59 0.929 . S
H53 C62 0.930 . S
H54 C64 0.929 . S
H55 C56 0.969 . S
C56 H55 0.969 . S
C56 O57 1.550 1_556 S
C56 H58 0.973 . S
O57 C56 1.550 1_554 S
O57 C63 1.412 . S
H58 C56 0.973 . S
C59 H52 0.929 . S
C59 C60 1.400 . S
C59 C61 1.364 . S
C60 C59 1.400 . S
C60 C64 1.377 . S
C61 C59 1.364 . S
C61 C62 1.374 1_554 S
C62 H53 0.930 . S
C62 C61 1.374 1_556 S
C62 C63 1.383 1_556 S
C63 O57 1.412 . S
C63 C62 1.383 1_554 S
C63 C64 1.394 . S
C64 H54 0.929 . S
C64 C60 1.377 . S
C64 C63 1.394 . S
H65 C72 0.929 . S
H66 C75 0.930 . S
H67 C77 0.929 . S
H68 C69 0.969 . S
C69 H68 0.969 . S
C69 O70 1.550 . S
C69 H71 0.973 . S
O70 C69 1.550 . S
O70 C76 1.412 . S
H71 C69 0.973 . S
C72 H65 0.929 . S
C72 C73 1.400 . S
C72 C74 1.364 . S
C73 C72 1.400 . S
C73 C77 1.377 . S
C74 C72 1.364 . S
C74 C75 1.374 . S
C75 H66 0.930 . S
C75 C74 1.374 . S
C75 C76 1.383 . S
C76 O70 1.412 . S
C76 C75 1.383 . S
C76 C77 1.394 . S
C77 H67 0.929 . S
C77 C73 1.377 . S
C77 C76 1.394 . S
H78 C85 0.929 . S
H79 C88 0.930 . S
H80 C90 0.929 . S
H81 C82 0.969 . S
C82 H81 0.969 . S
C82 O83 1.550 . S
C82 H84 0.973 1_556 S
O83 C82 1.550 . S
O83 C89 1.412 . S
H84 C82 0.973 1_554 S
C85 H78 0.929 . S
C85 C86 1.400 1_554 S
C85 C87 1.364 . S
C86 C85 1.400 1_556 S
C86 C90 1.377 . S
C87 C85 1.364 . S
C87 C88 1.374 . S
C88 H79 0.930 . S
C88 C87 1.374 . S
C88 C89 1.383 1_554 S
C89 O83 1.412 . S
C89 C88 1.383 1_556 S
C89 C90 1.394 . S
C90 H80 0.929 . S
C90 C86 1.377 . S
C90 C89 1.394 . S
H91 C98 0.929 . S
H92 C101 0.930 . S
H93 C103 0.929 . S
H94 C95 0.969 . S
C95 H94 0.969 . S
C95 O96 1.550 . S
C95 H97 0.973 . S
O96 C95 1.550 . S
O96 C102 1.412 . S
H97 C95 0.973 . S
C98 H91 0.929 . S
C98 C99 1.400 . S
C98 C100 1.364 . S
C99 C98 1.400 . S
C99 C103 1.377 . S
C100 C98 1.364 . S
C100 C101 1.374 . S
C101 H92 0.930 . S
C101 C100 1.374 . S
C101 C102 1.383 . S
C102 O96 1.412 . S
C102 C101 1.383 . S
C102 C103 1.394 . S
C103 H93 0.929 . S
C103 C99 1.377 . S
C103 C102 1.394 . S
Sc104 O107 2.025 . S
Sc104 O114 2.105 1_455 S
Sc104 O117 2.105 . S
Sc104 O120 2.105 . S
Sc104 O123 2.105 1_455 S
Sc105 O107 2.025 . S
Sc105 O115 2.105 1_455 S
Sc105 O119 2.105 . S
Sc105 O121 2.105 . S
Sc105 O125 2.105 1_455 S
Sc106 O107 2.025 . S
Sc106 O116 2.075 1_455 S
Sc106 O118 2.135 . S
Sc106 O122 2.135 . S
Sc106 O124 2.075 1_455 S
O107 Sc104 2.025 . S
O107 Sc105 2.025 . S
O107 Sc106 2.025 . S
C108 O114 1.268 . S
C108 O124 1.268 . S
C109 O115 1.268 . S
C109 O123 1.268 . S
C110 O116 1.268 . S
C110 O125 1.268 . S
C111 O117 1.268 . S
C111 O121 1.268 . S
C112 O118 1.268 . S
C112 O120 1.268 . S
C113 O119 1.268 . S
C113 O122 1.268 . S
O114 Sc104 2.105 1_655 S
O114 C108 1.268 . S
O115 Sc105 2.105 1_655 S
O115 C109 1.268 . S
O116 Sc106 2.075 1_655 S
O116 C110 1.268 . S
O117 Sc104 2.105 . S
O117 C111 1.268 . S
O118 Sc106 2.135 . S
O118 C112 1.268 . S
O119 Sc105 2.105 . S
O119 C113 1.268 . S
O120 Sc104 2.105 . S
O120 C112 1.268 . S
O121 Sc105 2.105 . S
O121 C111 1.268 . S
O122 Sc106 2.135 . S
O122 C113 1.268 . S
O123 Sc104 2.105 1_655 S
O123 C109 1.268 . S
O124 Sc106 2.075 1_655 S
O124 C108 1.268 . S
O125 Sc105 2.105 1_655 S
O125 C110 1.268 . S
Sc126 O129 2.025 . S
Sc126 O136 2.105 . S
Sc126 O139 2.105 1_455 S
Sc126 O142 2.105 1_455 S
Sc126 O145 2.105 . S
Sc127 O129 2.025 . S
Sc127 O137 2.105 . S
Sc127 O141 2.105 1_455 S
Sc127 O143 2.105 1_455 S
Sc127 O147 2.105 . S
Sc128 O129 2.025 . S
Sc128 O138 2.135 . S
Sc128 O140 2.075 1_455 S
Sc128 O144 2.075 1_455 S
Sc128 O146 2.135 . S
O129 Sc126 2.025 . S
O129 Sc127 2.025 . S
O129 Sc128 2.025 . S
C130 O136 1.268 . S
C130 O146 1.268 . S
C131 O137 1.268 . S
C131 O145 1.268 . S
C132 O138 1.268 . S
C132 O147 1.268 . S
C133 O139 1.268 . S
C133 O143 1.268 . S
C134 O140 1.268 . S
C134 O142 1.268 . S
C135 O141 1.268 . S
C135 O144 1.268 . S
O136 Sc126 2.105 . S
O136 C130 1.268 . S
O137 Sc127 2.105 . S
O137 C131 1.268 . S
O138 Sc128 2.135 . S
O138 C132 1.268 . S
O139 Sc126 2.105 1_655 S
O139 C133 1.268 . S
O140 Sc128 2.075 1_655 S
O140 C134 1.268 . S
O141 Sc127 2.105 1_655 S
O141 C135 1.268 . S
O142 Sc126 2.105 1_655 S
O142 C134 1.268 . S
O143 Sc127 2.105 1_655 S
O143 C133 1.268 . S
O144 Sc128 2.075 1_655 S
O144 C135 1.268 . S
O145 Sc126 2.105 . S
O145 C131 1.268 . S
O146 Sc128 2.135 . S
O146 C130 1.268 . S
O147 Sc127 2.105 . S
O147 C132 1.268 . S
Sc148 O151 2.025 . S
Sc148 O158 2.105 . S
Sc148 O161 2.105 . S
Sc148 O164 2.105 . S
Sc148 O167 2.105 . S
Sc149 O151 2.025 . S
Sc149 O159 2.105 . S
Sc149 O163 2.105 . S
Sc149 O165 2.105 . S
Sc149 O169 2.105 . S
Sc150 O151 2.025 . S
Sc150 O160 2.105 . S
Sc150 O162 2.105 . S
Sc150 O166 2.105 . S
Sc150 O168 2.105 . S
O151 Sc148 2.025 . S
O151 Sc149 2.025 . S
O151 Sc150 2.025 . S
C152 O158 1.268 . S
C152 O168 1.268 . S
C153 O159 1.268 . S
C153 O167 1.268 . S
C154 O160 1.268 . S
C154 O169 1.268 . S
C155 O161 1.268 . S
C155 O165 1.268 . S
C156 O162 1.268 . S
C156 O164 1.268 . S
C157 O163 1.268 . S
C157 O166 1.268 . S
O158 Sc148 2.105 . S
O158 C152 1.268 . S
O159 Sc149 2.105 . S
O159 C153 1.268 . S
O160 Sc150 2.105 . S
O160 C154 1.268 . S
O161 Sc148 2.105 . S
O161 C155 1.268 . S
O162 Sc150 2.105 . S
O162 C156 1.268 . S
O163 Sc149 2.105 . S
O163 C157 1.268 . S
O164 Sc148 2.105 . S
O164 C156 1.268 . S
O165 Sc149 2.105 . S
O165 C155 1.268 . S
O166 Sc150 2.105 . S
O166 C157 1.268 . S
O167 Sc148 2.105 . S
O167 C153 1.268 . S
O168 Sc150 2.105 . S
O168 C152 1.268 . S
O169 Sc149 2.105 . S
O169 C154 1.268 . S
Sc170 O173 2.025 . S
Sc170 O180 2.105 . S
Sc170 O183 2.105 . S
Sc170 O186 2.105 . S
Sc170 O189 2.105 . S
Sc171 O173 2.025 . S
Sc171 O181 2.105 . S
Sc171 O185 2.105 . S
Sc171 O187 2.105 . S
Sc171 O191 2.105 . S
Sc172 O173 2.025 . S
Sc172 O182 2.105 . S
Sc172 O184 2.105 . S
Sc172 O188 2.105 . S
Sc172 O190 2.105 . S
O173 Sc170 2.025 . S
O173 Sc171 2.025 . S
O173 Sc172 2.025 . S
C174 O180 1.268 . S
C174 O190 1.268 . S
C175 O181 1.268 . S
C175 O189 1.268 . S
C176 O182 1.268 . S
C176 O191 1.268 . S
C177 O183 1.268 . S
C177 O187 1.268 . S
C178 O184 1.268 . S
C178 O186 1.268 . S
C179 O185 1.268 . S
C179 O188 1.268 . S
O180 Sc170 2.105 . S
O180 C174 1.268 . S
O181 Sc171 2.105 . S
O181 C175 1.268 . S
O182 Sc172 2.105 . S
O182 C176 1.268 . S
O183 Sc170 2.105 . S
O183 C177 1.268 . S
O184 Sc172 2.105 . S
O184 C178 1.268 . S
O185 Sc171 2.105 . S
O185 C179 1.268 . S
O186 Sc170 2.105 . S
O186 C178 1.268 . S
O187 Sc171 2.105 . S
O187 C177 1.268 . S
O188 Sc172 2.105 . S
O188 C179 1.268 . S
O189 Sc170 2.105 . S
O189 C175 1.268 . S
O190 Sc172 2.105 . S
O190 C174 1.268 . S
O191 Sc171 2.105 . S
O191 C176 1.268 . S
H192 C210 0.951 1_554 S
H193 C212 0.951 . S
H194 C214 0.950 . S
H195 C215 0.950 . S
H196 C217 0.950 . S
H197 C220 0.950 . S
H198 C221 0.950 . S
H199 C223 0.950 . S
H200 C224 0.950 . S
H201 C225 0.951 . S
H202 C227 0.951 . S
H203 C229 0.950 . S
H204 C230 0.950 . S
H205 C232 0.950 . S
H206 C235 0.950 . S
H207 C236 0.950 . S
H208 C238 0.950 . S
H209 C239 0.950 . S
C210 H192 0.951 1_556 S
C210 C211 1.366 . S
C210 C212 1.388 . S
C211 C210 1.366 . S
C211 C215 1.385 . S
C212 H193 0.951 . S
C212 C210 1.388 . S
C212 C213 1.366 . S
C213 C212 1.366 . S
C213 C214 1.414 . S
C213 C216 1.499 . S
C214 H194 0.950 . S
C214 C213 1.414 . S
C214 C215 1.374 . S
C215 H195 0.950 . S
C215 C211 1.385 . S
C215 C214 1.374 . S
C216 C213 1.499 . S
C216 C217 1.373 . S
C216 C218 1.389 . S
C217 H196 0.950 . S
C217 C216 1.373 . S
C217 C233 1.377 . S
C218 C216 1.389 . S
C218 C219 1.524 . S
C218 C232 1.377 . S
C219 C218 1.524 . S
C219 C220 1.397 . S
C219 C224 1.363 . S
C220 H197 0.950 . S
C220 C219 1.397 . S
C220 C221 1.334 . S
C221 H198 0.950 . S
C221 C220 1.334 . S
C221 C222 1.287 . S
C222 C221 1.287 . S
C222 C223 1.524 1_556 S
C222 H241 0.913 1_556 S
C223 H199 0.950 . S
C223 C222 1.524 1_554 S
C223 C224 1.415 1_554 S
C224 H200 0.950 . S
C224 C219 1.363 . S
C224 C223 1.415 1_556 S
C225 H201 0.951 . S
C225 C226 1.366 . S
C225 C227 1.388 . S
C226 C225 1.366 . S
C226 C230 1.385 . S
C227 H202 0.951 . S
C227 C225 1.388 . S
C227 C228 1.366 . S
C228 C227 1.366 . S
C228 C229 1.414 . S
C228 C231 1.499 . S
C229 H203 0.950 . S
C229 C228 1.414 . S
C229 C230 1.374 . S
C230 H204 0.950 . S
C230 C226 1.385 . S
C230 C229 1.374 . S
C231 C228 1.499 . S
C231 C232 1.373 . S
C231 C233 1.389 . S
C232 H205 0.950 . S
C232 C218 1.377 . S
C232 C231 1.373 . S
C233 C217 1.377 . S
C233 C231 1.389 . S
C233 C234 1.524 . S
C234 C233 1.524 . S
C234 C235 1.397 . S
C234 C239 1.363 . S
C235 H206 0.950 . S
C235 C234 1.397 . S
C235 C236 1.334 . S
C236 H207 0.950 . S
C236 C235 1.334 . S
C236 C237 1.287 . S
C237 C236 1.287 . S
C237 C238 1.524 . S
C237 H240 0.999 . S
C238 H208 0.950 . S
C238 C237 1.524 . S
C238 C239 1.415 . S
C239 H209 0.950 . S
C239 C234 1.363 . S
C239 C238 1.415 . S
H240 C237 0.999 . S
H241 C222 0.913 1_554 S
H242 C260 0.951 . S
H243 C262 0.951 . S
H244 C264 0.950 . S
H245 C265 0.950 . S
H246 C267 0.950 . S
H247 C270 0.950 . S
H248 C271 0.950 . S
H249 C273 0.950 . S
H250 C274 0.950 . S
H251 C275 0.951 . S
H252 C277 0.951 . S
H253 C279 0.950 . S
H254 C280 0.950 . S
H255 C282 0.950 . S
H256 C285 0.950 . S
H257 C286 0.950 . S
H258 C288 0.950 . S
H259 C289 0.950 . S
C260 H242 0.951 . S
C260 C261 1.366 . S
C260 C262 1.388 . S
C261 C260 1.366 . S
C261 C265 1.385 . S
C262 H243 0.951 . S
C262 C260 1.388 . S
C262 C263 1.366 . S
C263 C262 1.366 . S
C263 C264 1.414 . S
C263 C266 1.499 . S
C264 H244 0.950 . S
C264 C263 1.414 . S
C264 C265 1.374 . S
C265 H245 0.950 . S
C265 C261 1.385 . S
C265 C264 1.374 . S
C266 C263 1.499 . S
C266 C267 1.373 . S
C266 C268 1.389 . S
C267 H246 0.950 . S
C267 C266 1.373 . S
C267 C283 1.377 . S
C268 C266 1.389 . S
C268 C269 1.524 . S
C268 C282 1.377 . S
C269 C268 1.524 . S
C269 C270 1.397 . S
C269 C274 1.363 . S
C270 H247 0.950 . S
C270 C269 1.397 . S
C270 C271 1.334 . S
C271 H248 0.950 . S
C271 C270 1.334 . S
C271 C272 1.287 . S
C272 C271 1.287 . S
C272 C273 1.524 . S
C272 H291 0.913 . S
C273 H249 0.950 . S
C273 C272 1.524 . S
C273 C274 1.415 . S
C274 H250 0.950 . S
C274 C269 1.363 . S
C274 C273 1.415 . S
C275 H251 0.951 . S
C275 C276 1.366 . S
C275 C277 1.388 . S
C276 C275 1.366 . S
C276 C280 1.385 . S
C277 H252 0.951 . S
C277 C275 1.388 . S
C277 C278 1.366 . S
C278 C277 1.366 . S
C278 C279 1.414 . S
C278 C281 1.499 . S
C279 H253 0.950 . S
C279 C278 1.414 . S
C279 C280 1.374 . S
C280 H254 0.950 . S
C280 C276 1.385 . S
C280 C279 1.374 . S
C281 C278 1.499 . S
C281 C282 1.373 . S
C281 C283 1.389 . S
C282 H255 0.950 . S
C282 C268 1.377 . S
C282 C281 1.373 . S
C283 C267 1.377 . S
C283 C281 1.389 . S
C283 C284 1.524 . S
C284 C283 1.524 . S
C284 C285 1.397 . S
C284 C289 1.363 . S
C285 H256 0.950 . S
C285 C284 1.397 . S
C285 C286 1.334 . S
C286 H257 0.950 . S
C286 C285 1.334 . S
C286 C287 1.287 . S
C287 C286 1.287 . S
C287 C288 1.524 . S
C287 H290 0.999 . S
C288 H258 0.950 . S
C288 C287 1.524 . S
C288 C289 1.415 . S
C289 H259 0.950 . S
C289 C284 1.363 . S
C289 C288 1.415 . S
H290 C287 0.999 . S
H291 C272 0.913 . S
H292 C310 0.951 . S
H293 C312 0.951 . S
H294 C314 0.950 . S
H295 C315 0.950 1_554 S
H296 C317 0.950 . S
H297 C320 0.950 . S
H298 C321 0.950 1_554 S
H299 C323 0.950 . S
H300 C324 0.950 . S
H301 C325 0.951 . S
H302 C327 0.951 . S
H303 C329 0.950 . S
H304 C330 0.950 . S
H305 C332 0.950 . S
H306 C335 0.950 . S
H307 C336 0.950 . S
H308 C338 0.950 . S
H309 C339 0.950 . S
C310 H292 0.951 . S
C310 C311 1.366 . S
C310 C312 1.388 . S
C311 C310 1.366 . S
C311 C315 1.385 . S
C312 H293 0.951 . S
C312 C310 1.388 . S
C312 C313 1.366 . S
C313 C312 1.366 . S
C313 C314 1.414 . S
C313 C316 1.499 . S
C314 H294 0.950 . S
C314 C313 1.414 . S
C314 C315 1.374 . S
C315 H295 0.950 1_556 S
C315 C311 1.385 . S
C315 C314 1.374 . S
C316 C313 1.499 . S
C316 C317 1.373 . S
C316 C318 1.389 . S
C317 H296 0.950 . S
C317 C316 1.373 . S
C317 C333 1.377 . S
C318 C316 1.389 . S
C318 C319 1.524 . S
C318 C332 1.377 . S
C319 C318 1.524 . S
C319 C320 1.397 . S
C319 C324 1.363 . S
C320 H297 0.950 . S
C320 C319 1.397 . S
C320 C321 1.334 . S
C321 H298 0.950 1_556 S
C321 C320 1.334 . S
C321 C322 1.287 . S
C322 C321 1.287 . S
C322 C323 1.524 . S
C322 H341 0.913 . S
C323 H299 0.950 . S
C323 C322 1.524 . S
C323 C324 1.415 . S
C324 H300 0.950 . S
C324 C319 1.363 . S
C324 C323 1.415 . S
C325 H301 0.951 . S
C325 C326 1.366 . S
C325 C327 1.388 . S
C326 C325 1.366 . S
C326 C330 1.385 . S
C327 H302 0.951 . S
C327 C325 1.388 . S
C327 C328 1.366 . S
C328 C327 1.366 . S
C328 C329 1.414 . S
C328 C331 1.499 . S
C329 H303 0.950 . S
C329 C328 1.414 . S
C329 C330 1.374 . S
C330 H304 0.950 . S
C330 C326 1.385 . S
C330 C329 1.374 . S
C331 C328 1.499 . S
C331 C332 1.373 . S
C331 C333 1.389 . S
C332 H305 0.950 . S
C332 C318 1.377 . S
C332 C331 1.373 . S
C333 C317 1.377 . S
C333 C331 1.389 . S
C333 C334 1.524 . S
C334 C333 1.524 . S
C334 C335 1.397 . S
C334 C339 1.363 . S
C335 H306 0.950 . S
C335 C334 1.397 . S
C335 C336 1.334 . S
C336 H307 0.950 . S
C336 C335 1.334 . S
C336 C337 1.287 . S
C337 C336 1.287 . S
C337 C338 1.524 . S
C337 H340 0.999 . S
C338 H308 0.950 . S
C338 C337 1.524 . S
C338 C339 1.415 . S
C339 H309 0.950 . S
C339 C334 1.363 . S
C339 C338 1.415 . S
H340 C337 0.999 . S
H341 C322 0.913 . S
H342 C360 0.951 . S
H343 C362 0.951 . S
H344 C364 0.950 . S
H345 C365 0.950 . S
H346 C367 0.950 . S
H347 C370 0.950 . S
H348 C371 0.950 . S
H349 C373 0.950 . S
H350 C374 0.950 . S
H351 C375 0.951 . S
H352 C377 0.951 . S
H353 C379 0.950 . S
H354 C380 0.950 . S
H355 C382 0.950 . S
H356 C385 0.950 . S
H357 C386 0.950 . S
H358 C388 0.950 . S
H359 C389 0.950 . S
C360 H342 0.951 . S
C360 C361 1.366 . S
C360 C362 1.388 . S
C361 C360 1.366 . S
C361 C365 1.385 . S
C362 H343 0.951 . S
C362 C360 1.388 . S
C362 C363 1.366 . S
C363 C362 1.366 . S
C363 C364 1.414 . S
C363 C366 1.499 . S
C364 H344 0.950 . S
C364 C363 1.414 . S
C364 C365 1.374 . S
C365 H345 0.950 . S
C365 C361 1.385 . S
C365 C364 1.374 . S
C366 C363 1.499 . S
C366 C367 1.373 . S
C366 C368 1.389 . S
C367 H346 0.950 . S
C367 C366 1.373 . S
C367 C383 1.377 . S
C368 C366 1.389 . S
C368 C369 1.524 . S
C368 C382 1.377 . S
C369 C368 1.524 . S
C369 C370 1.397 . S
C369 C374 1.363 . S
C370 H347 0.950 . S
C370 C369 1.397 . S
C370 C371 1.334 . S
C371 H348 0.950 . S
C371 C370 1.334 . S
C371 C372 1.287 . S
C372 C371 1.287 . S
C372 C373 1.524 . S
C372 H391 0.913 . S
C373 H349 0.950 . S
C373 C372 1.524 . S
C373 C374 1.415 . S
C374 H350 0.950 . S
C374 C369 1.363 . S
C374 C373 1.415 . S
C375 H351 0.951 . S
C375 C376 1.366 . S
C375 C377 1.388 . S
C376 C375 1.366 . S
C376 C380 1.385 . S
C377 H352 0.951 . S
C377 C375 1.388 . S
C377 C378 1.366 . S
C378 C377 1.366 . S
C378 C379 1.414 . S
C378 C381 1.499 . S
C379 H353 0.950 . S
C379 C378 1.414 . S
C379 C380 1.374 . S
C380 H354 0.950 . S
C380 C376 1.385 . S
C380 C379 1.374 . S
C381 C378 1.499 . S
C381 C382 1.373 . S
C381 C383 1.389 . S
C382 H355 0.950 . S
C382 C368 1.377 . S
C382 C381 1.373 . S
C383 C367 1.377 . S
C383 C381 1.389 . S
C383 C384 1.524 . S
C384 C383 1.524 . S
C384 C385 1.397 . S
C384 C389 1.363 . S
C385 H356 0.950 . S
C385 C384 1.397 . S
C385 C386 1.334 . S
C386 H357 0.950 . S
C386 C385 1.334 . S
C386 C387 1.287 . S
C387 C386 1.287 . S
C387 C388 1.524 . S
C387 H390 0.999 . S
C388 H358 0.950 . S
C388 C387 1.524 . S
C388 C389 1.415 . S
C389 H359 0.950 . S
C389 C384 1.363 . S
C389 C388 1.415 . S
H390 C387 0.999 . S
H391 C372 0.913 . S
H392 C410 0.951 . S
H393 C412 0.951 . S
H394 C414 0.950 . S
H395 C415 0.950 . S
H396 C417 0.950 . S
H397 C420 0.949 1_556 S
H398 C421 0.950 . S
H399 C423 0.950 . S
H400 C424 0.950 1_556 S
H401 C425 0.951 . S
H402 C427 0.951 . S
H403 C429 0.950 . S
H404 C430 0.950 . S
H405 C432 0.950 . S
H406 C435 0.950 . S
H407 C436 0.950 . S
H408 C438 0.950 . S
H409 C439 0.950 . S
C410 H392 0.951 . S
C410 C411 1.366 . S
C410 C412 1.388 . S
C411 C410 1.366 . S
C411 C415 1.385 . S
C412 H393 0.951 . S
C412 C410 1.388 . S
C412 C413 1.366 . S
C413 C412 1.366 . S
C413 C414 1.414 . S
C413 C416 1.499 . S
C414 H394 0.950 . S
C414 C413 1.414 . S
C414 C415 1.374 . S
C415 H395 0.950 . S
C415 C411 1.385 . S
C415 C414 1.374 . S
C416 C413 1.499 . S
C416 C417 1.373 . S
C416 C418 1.389 . S
C417 H396 0.950 . S
C417 C416 1.373 . S
C417 C433 1.377 . S
C418 C416 1.389 . S
C418 C419 1.524 . S
C418 C432 1.377 . S
C419 C418 1.524 . S
C419 C420 1.396 1_556 S
C419 C424 1.363 1_556 S
C420 H397 0.949 1_554 S
C420 C419 1.396 1_554 S
C420 C421 1.336 . S
C421 H398 0.950 . S
C421 C420 1.336 . S
C421 C422 1.287 . S
C422 C421 1.287 . S
C422 C423 1.524 . S
C422 H441 0.913 . S
C423 H399 0.950 . S
C423 C422 1.524 . S
C423 C424 1.415 . S
C424 H400 0.950 1_554 S
C424 C419 1.363 1_554 S
C424 C423 1.415 . S
C425 H401 0.951 . S
C425 C426 1.366 . S
C425 C427 1.388 . S
C426 C425 1.366 . S
C426 C430 1.385 . S
C427 H402 0.951 . S
C427 C425 1.388 . S
C427 C428 1.366 . S
C428 C427 1.366 . S
C428 C429 1.414 . S
C428 C431 1.499 . S
C429 H403 0.950 . S
C429 C428 1.414 . S
C429 C430 1.374 . S
C430 H404 0.950 . S
C430 C426 1.385 . S
C430 C429 1.374 . S
C431 C428 1.499 . S
C431 C432 1.373 . S
C431 C433 1.389 . S
C432 H405 0.950 . S
C432 C418 1.377 . S
C432 C431 1.373 . S
C433 C417 1.377 . S
C433 C431 1.389 . S
C433 C434 1.524 . S
C434 C433 1.524 . S
C434 C435 1.397 . S
C434 C439 1.363 . S
C435 H406 0.950 . S
C435 C434 1.397 . S
C435 C436 1.334 . S
C436 H407 0.950 . S
C436 C435 1.334 . S
C436 C437 1.287 . S
C437 C436 1.287 . S
C437 C438 1.524 . S
C437 H440 0.999 . S
C438 H408 0.950 . S
C438 C437 1.524 . S
C438 C439 1.415 . S
C439 H409 0.950 . S
C439 C434 1.363 . S
C439 C438 1.415 . S
H440 C437 0.999 . S
H441 C422 0.913 . S
H442 C460 0.951 . S
H443 C462 0.951 . S
H444 C464 0.950 . S
H445 C465 0.950 . S
H446 C467 0.950 . S
H447 C470 0.950 . S
H448 C471 0.950 . S
H449 C473 0.950 . S
H450 C474 0.950 . S
H451 C475 0.951 . S
H452 C477 0.951 . S
H453 C479 0.950 . S
H454 C480 0.950 . S
H455 C482 0.950 . S
H456 C485 0.950 . S
H457 C486 0.950 . S
H458 C488 0.950 . S
H459 C489 0.950 . S
C460 H442 0.951 . S
C460 C461 1.366 . S
C460 C462 1.388 . S
C461 C460 1.366 . S
C461 C465 1.385 . S
C462 H443 0.951 . S
C462 C460 1.388 . S
C462 C463 1.366 . S
C463 C462 1.366 . S
C463 C464 1.414 . S
C463 C466 1.499 . S
C464 H444 0.950 . S
C464 C463 1.414 . S
C464 C465 1.374 . S
C465 H445 0.950 . S
C465 C461 1.385 . S
C465 C464 1.374 . S
C466 C463 1.499 . S
C466 C467 1.373 . S
C466 C468 1.389 . S
C467 H446 0.950 . S
C467 C466 1.373 . S
C467 C483 1.377 . S
C468 C466 1.389 . S
C468 C469 1.524 . S
C468 C482 1.377 . S
C469 C468 1.524 . S
C469 C470 1.397 . S
C469 C474 1.363 . S
C470 H447 0.950 . S
C470 C469 1.397 . S
C470 C471 1.334 . S
C471 H448 0.950 . S
C471 C470 1.334 . S
C471 C472 1.287 . S
C472 C471 1.287 . S
C472 C473 1.524 . S
C472 H491 0.913 . S
C473 H449 0.950 . S
C473 C472 1.524 . S
C473 C474 1.415 . S
C474 H450 0.950 . S
C474 C469 1.363 . S
C474 C473 1.415 . S
C475 H451 0.951 . S
C475 C476 1.366 . S
C475 C477 1.388 . S
C476 C475 1.366 . S
C476 C480 1.385 . S
C477 H452 0.951 . S
C477 C475 1.388 . S
C477 C478 1.366 . S
C478 C477 1.366 . S
C478 C479 1.414 . S
C478 C481 1.499 . S
C479 H453 0.950 . S
C479 C478 1.414 . S
C479 C480 1.374 . S
C480 H454 0.950 . S
C480 C476 1.385 . S
C480 C479 1.374 . S
C481 C478 1.499 . S
C481 C482 1.373 . S
C481 C483 1.389 . S
C482 H455 0.950 . S
C482 C468 1.377 . S
C482 C481 1.373 . S
C483 C467 1.377 . S
C483 C481 1.389 . S
C483 C484 1.524 . S
C484 C483 1.524 . S
C484 C485 1.397 . S
C484 C489 1.363 . S
C485 H456 0.950 . S
C485 C484 1.397 . S
C485 C486 1.334 . S
C486 H457 0.950 . S
C486 C485 1.334 . S
C486 C487 1.287 . S
C487 C486 1.287 . S
C487 C488 1.524 . S
C487 H490 0.999 . S
C488 H458 0.950 . S
C488 C487 1.524 . S
C488 C489 1.415 . S
C489 H459 0.950 . S
C489 C484 1.363 . S
C489 C488 1.415 . S
H490 C487 0.999 . S
H491 C472 0.913 . S
H492 C510 0.951 1_554 S
H493 C512 0.951 . S
H494 C514 0.950 . S
H495 C515 0.950 . S
H496 C517 0.950 . S
H497 C520 0.950 . S
H498 C521 0.950 . S
H499 C523 0.950 . S
H500 C524 0.950 . S
H501 C525 0.951 . S
H502 C527 0.951 . S
H503 C529 0.950 . S
H504 C530 0.950 . S
H505 C532 0.950 . S
H506 C535 0.950 . S
H507 C536 0.950 . S
H508 C538 0.950 . S
H509 C539 0.950 . S
C510 H492 0.951 1_556 S
C510 C511 1.366 . S
C510 C512 1.388 . S
C511 C510 1.366 . S
C511 C515 1.385 . S
C512 H493 0.951 . S
C512 C510 1.388 . S
C512 C513 1.366 . S
C513 C512 1.366 . S
C513 C514 1.414 . S
C513 C516 1.499 . S
C514 H494 0.950 . S
C514 C513 1.414 . S
C514 C515 1.374 . S
C515 H495 0.950 . S
C515 C511 1.385 . S
C515 C514 1.374 . S
C516 C513 1.499 . S
C516 C517 1.373 . S
C516 C518 1.389 . S
C517 H496 0.950 . S
C517 C516 1.373 . S
C517 C533 1.377 . S
C518 C516 1.389 . S
C518 C519 1.524 . S
C518 C532 1.377 . S
C519 C518 1.524 . S
C519 C520 1.397 . S
C519 C524 1.363 1_556 S
C520 H497 0.950 . S
C520 C519 1.397 . S
C520 C521 1.334 1_556 S
C521 H498 0.950 . S
C521 C520 1.334 1_554 S
C521 C522 1.287 . S
C522 C521 1.287 . S
C522 C523 1.524 . S
C522 H541 0.913 . S
C523 H499 0.950 . S
C523 C522 1.524 . S
C523 C524 1.415 . S
C524 H500 0.950 . S
C524 C519 1.363 1_554 S
C524 C523 1.415 . S
C525 H501 0.951 . S
C525 C526 1.366 . S
C525 C527 1.388 . S
C526 C525 1.366 . S
C526 C530 1.385 . S
C527 H502 0.951 . S
C527 C525 1.388 . S
C527 C528 1.366 . S
C528 C527 1.366 . S
C528 C529 1.414 . S
C528 C531 1.499 . S
C529 H503 0.950 . S
C529 C528 1.414 . S
C529 C530 1.374 . S
C530 H504 0.950 . S
C530 C526 1.385 . S
C530 C529 1.374 . S
C531 C528 1.499 . S
C531 C532 1.373 . S
C531 C533 1.389 . S
C532 H505 0.950 . S
C532 C518 1.377 . S
C532 C531 1.373 . S
C533 C517 1.377 . S
C533 C531 1.389 . S
C533 C534 1.524 . S
C534 C533 1.524 . S
C534 C535 1.397 . S
C534 C539 1.363 . S
C535 H506 0.950 . S
C535 C534 1.397 . S
C535 C536 1.334 . S
C536 H507 0.950 . S
C536 C535 1.334 . S
C536 C537 1.287 . S
C537 C536 1.287 . S
C537 C538 1.524 . S
C537 H540 0.999 . S
C538 H508 0.950 . S
C538 C537 1.524 . S
C538 C539 1.415 . S
C539 H509 0.950 . S
C539 C534 1.363 . S
C539 C538 1.415 . S
H540 C537 0.999 . S
H541 C522 0.913 . S
H542 C560 0.951 . S
H543 C562 0.951 . S
H544 C564 0.950 . S
H545 C565 0.950 . S
H546 C567 0.950 . S
H547 C570 0.950 . S
H548 C571 0.950 . S
H549 C573 0.950 . S
H550 C574 0.950 . S
H551 C575 0.951 . S
H552 C577 0.951 . S
H553 C579 0.950 . S
H554 C580 0.950 . S
H555 C582 0.950 . S
H556 C585 0.950 . S
H557 C586 0.950 . S
H558 C588 0.950 . S
H559 C589 0.950 . S
C560 H542 0.951 . S
C560 C561 1.366 . S
C560 C562 1.388 . S
C561 C560 1.366 . S
C561 C565 1.385 . S
C562 H543 0.951 . S
C562 C560 1.388 . S
C562 C563 1.366 . S
C563 C562 1.366 . S
C563 C564 1.414 . S
C563 C566 1.499 . S
C564 H544 0.950 . S
C564 C563 1.414 . S
C564 C565 1.374 . S
C565 H545 0.950 . S
C565 C561 1.385 . S
C565 C564 1.374 . S
C566 C563 1.499 . S
C566 C567 1.373 . S
C566 C568 1.389 . S
C567 H546 0.950 . S
C567 C566 1.373 . S
C567 C583 1.377 . S
C568 C566 1.389 . S
C568 C569 1.524 . S
C568 C582 1.377 . S
C569 C568 1.524 . S
C569 C570 1.397 . S
C569 C574 1.363 . S
C570 H547 0.950 . S
C570 C569 1.397 . S
C570 C571 1.334 . S
C571 H548 0.950 . S
C571 C570 1.334 . S
C571 C572 1.287 . S
C572 C571 1.287 . S
C572 C573 1.524 . S
C572 H591 0.913 . S
C573 H549 0.950 . S
C573 C572 1.524 . S
C573 C574 1.415 . S
C574 H550 0.950 . S
C574 C569 1.363 . S
C574 C573 1.415 . S
C575 H551 0.951 . S
C575 C576 1.366 . S
C575 C577 1.388 . S
C576 C575 1.366 . S
C576 C580 1.385 . S
C577 H552 0.951 . S
C577 C575 1.388 . S
C577 C578 1.366 . S
C578 C577 1.366 . S
C578 C579 1.414 . S
C578 C581 1.499 . S
C579 H553 0.950 . S
C579 C578 1.414 . S
C579 C580 1.374 . S
C580 H554 0.950 . S
C580 C576 1.385 . S
C580 C579 1.374 . S
C581 C578 1.499 . S
C581 C582 1.373 . S
C581 C583 1.389 . S
C582 H555 0.950 . S
C582 C568 1.377 . S
C582 C581 1.373 . S
C583 C567 1.377 . S
C583 C581 1.389 . S
C583 C584 1.524 . S
C584 C583 1.524 . S
C584 C585 1.397 . S
C584 C589 1.363 . S
C585 H556 0.950 . S
C585 C584 1.397 . S
C585 C586 1.334 . S
C586 H557 0.950 . S
C586 C585 1.334 . S
C586 C587 1.287 . S
C587 C586 1.287 . S
C587 C588 1.524 . S
C587 H590 0.999 . S
C588 H558 0.950 . S
C588 C587 1.524 . S
C588 C589 1.415 . S
C589 H559 0.950 . S
C589 C584 1.363 . S
C589 C588 1.415 . S
H590 C587 0.999 . S
H591 C572 0.913 . S
H592 C610 0.951 . S
H593 C612 0.951 . S
H594 C614 0.950 . S
H595 C615 0.931 1_554 S
H596 C617 0.950 . S
H597 C620 0.950 . S
H598 C621 0.950 . S
H599 C623 0.950 . S
H600 C624 0.950 . S
H601 C625 0.951 . S
H602 C627 0.951 . S
H603 C629 0.950 . S
H604 C630 0.950 . S
H605 C632 0.950 . S
H606 C635 0.950 . S
H607 C636 0.950 . S
H608 C638 0.950 . S
H609 C639 0.950 . S
C610 H592 0.951 . S
C610 C611 1.366 . S
C610 C612 1.388 . S
C611 C610 1.366 . S
C611 C615 1.385 . S
C612 H593 0.951 . S
C612 C610 1.388 . S
C612 C613 1.366 . S
C613 C612 1.366 . S
C613 C614 1.414 . S
C613 C616 1.499 . S
C614 H594 0.950 . S
C614 C613 1.414 . S
C614 C615 1.374 . S
C615 H595 0.931 1_556 S
C615 C611 1.385 . S
C615 C614 1.374 . S
C616 C613 1.499 . S
C616 C617 1.373 . S
C616 C618 1.389 . S
C617 H596 0.950 . S
C617 C616 1.373 . S
C617 C633 1.377 . S
C618 C616 1.389 . S
C618 C619 1.524 . S
C618 C632 1.377 . S
C619 C618 1.524 . S
C619 C620 1.397 . S
C619 C624 1.363 . S
C620 H597 0.950 . S
C620 C619 1.397 . S
C620 C621 1.334 . S
C621 H598 0.950 . S
C621 C620 1.334 . S
C621 C622 1.287 . S
C622 C621 1.287 . S
C622 C623 1.524 . S
C622 H641 0.913 . S
C623 H599 0.950 . S
C623 C622 1.524 . S
C623 C624 1.415 . S
C624 H600 0.950 . S
C624 C619 1.363 . S
C624 C623 1.415 . S
C625 H601 0.951 . S
C625 C626 1.366 . S
C625 C627 1.388 . S
C626 C625 1.366 . S
C626 C630 1.385 . S
C627 H602 0.951 . S
C627 C625 1.388 . S
C627 C628 1.366 . S
C628 C627 1.366 . S
C628 C629 1.414 . S
C628 C631 1.499 . S
C629 H603 0.950 . S
C629 C628 1.414 . S
C629 C630 1.374 . S
C630 H604 0.950 . S
C630 C626 1.385 . S
C630 C629 1.374 . S
C631 C628 1.499 . S
C631 C632 1.373 . S
C631 C633 1.389 . S
C632 H605 0.950 . S
C632 C618 1.377 . S
C632 C631 1.373 . S
C633 C617 1.377 . S
C633 C631 1.389 . S
C633 C634 1.524 . S
C634 C633 1.524 . S
C634 C635 1.397 . S
C634 C639 1.363 . S
C635 H606 0.950 . S
C635 C634 1.397 . S
C635 C636 1.334 . S
C636 H607 0.950 . S
C636 C635 1.334 . S
C636 C637 1.287 1_556 S
C637 C636 1.287 1_554 S
C637 C638 1.524 . S
C637 H640 0.999 . S
C638 H608 0.950 . S
C638 C637 1.524 . S
C638 C639 1.415 1_554 S
C639 H609 0.950 . S
C639 C634 1.363 . S
C639 C638 1.415 1_556 S
H640 C637 0.999 . S
H641 C622 0.913 . S
H642 C660 0.951 . S
H643 C662 0.951 . S
H644 C664 0.950 . S
H645 C665 0.950 . S
H646 C667 0.950 . S
H647 C670 0.950 . S
H648 C671 0.950 . S
H649 C673 0.950 . S
H650 C674 0.950 . S
H651 C675 0.951 . S
H652 C677 0.951 . S
H653 C679 0.950 . S
H654 C680 0.950 . S
H655 C682 0.950 . S
H656 C685 0.950 . S
H657 C686 0.950 . S
H658 C688 0.950 . S
H659 C689 0.950 . S
C660 H642 0.951 . S
C660 C661 1.366 . S
C660 C662 1.388 . S
C661 C660 1.366 . S
C661 C665 1.385 . S
C662 H643 0.951 . S
C662 C660 1.388 . S
C662 C663 1.366 . S
C663 C662 1.366 . S
C663 C664 1.414 . S
C663 C666 1.499 . S
C664 H644 0.950 . S
C664 C663 1.414 . S
C664 C665 1.374 . S
C665 H645 0.950 . S
C665 C661 1.385 . S
C665 C664 1.374 . S
C666 C663 1.499 . S
C666 C667 1.373 . S
C666 C668 1.389 . S
C667 H646 0.950 . S
C667 C666 1.373 . S
C667 C683 1.377 . S
C668 C666 1.389 . S
C668 C669 1.524 . S
C668 C682 1.377 . S
C669 C668 1.524 . S
C669 C670 1.397 . S
C669 C674 1.363 . S
C670 H647 0.950 . S
C670 C669 1.397 . S
C670 C671 1.334 . S
C671 H648 0.950 . S
C671 C670 1.334 . S
C671 C672 1.287 . S
C672 C671 1.287 . S
C672 C673 1.524 . S
C672 H691 0.913 . S
C673 H649 0.950 . S
C673 C672 1.524 . S
C673 C674 1.415 . S
C674 H650 0.950 . S
C674 C669 1.363 . S
C674 C673 1.415 . S
C675 H651 0.951 . S
C675 C676 1.366 . S
C675 C677 1.388 . S
C676 C675 1.366 . S
C676 C680 1.385 . S
C677 H652 0.951 . S
C677 C675 1.388 . S
C677 C678 1.366 . S
C678 C677 1.366 . S
C678 C679 1.414 . S
C678 C681 1.499 . S
C679 H653 0.950 . S
C679 C678 1.414 . S
C679 C680 1.374 . S
C680 H654 0.950 . S
C680 C676 1.385 . S
C680 C679 1.374 . S
C681 C678 1.499 . S
C681 C682 1.373 . S
C681 C683 1.389 . S
C682 H655 0.950 . S
C682 C668 1.377 . S
C682 C681 1.373 . S
C683 C667 1.377 . S
C683 C681 1.389 . S
C683 C684 1.524 . S
C684 C683 1.524 . S
C684 C685 1.397 . S
C684 C689 1.363 . S
C685 H656 0.950 . S
C685 C684 1.397 . S
C685 C686 1.334 . S
C686 H657 0.950 . S
C686 C685 1.334 . S
C686 C687 1.287 . S
C687 C686 1.287 . S
C687 C688 1.524 . S
C687 H690 0.999 . S
C688 H658 0.950 . S
C688 C687 1.524 . S
C688 C689 1.415 . S
C689 H659 0.950 . S
C689 C684 1.363 . S
C689 C688 1.415 . S
H690 C687 0.999 . S
H691 C672 0.913 . S
H692 C710 0.951 . S
H693 C712 0.951 . S
H694 C714 0.950 . S
H695 C715 0.950 1_554 S
H696 C717 0.950 . S
H697 C720 0.950 . S
H698 C721 0.950 . S
H699 C723 0.950 . S
H700 C724 0.950 . S
H701 C725 0.951 . S
H702 C727 0.951 . S
H703 C729 0.950 . S
H704 C730 0.950 . S
H705 C732 0.950 . S
H706 C735 0.950 . S
H707 C736 0.950 . S
H708 C738 0.950 . S
H709 C739 0.950 . S
C710 H692 0.951 . S
C710 C711 1.366 . S
C710 C712 1.388 . S
C711 C710 1.366 . S
C711 C715 1.385 . S
C712 H693 0.951 . S
C712 C710 1.388 . S
C712 C713 1.366 . S
C713 C712 1.366 . S
C713 C714 1.414 . S
C713 C716 1.499 . S
C714 H694 0.950 . S
C714 C713 1.414 . S
C714 C715 1.374 . S
C715 H695 0.950 1_556 S
C715 C711 1.385 . S
C715 C714 1.374 . S
C716 C713 1.499 . S
C716 C717 1.373 . S
C716 C718 1.389 . S
C717 H696 0.950 . S
C717 C716 1.373 . S
C717 C733 1.377 . S
C718 C716 1.389 . S
C718 C719 1.524 . S
C718 C732 1.377 . S
C719 C718 1.524 . S
C719 C720 1.397 . S
C719 C724 1.363 . S
C720 H697 0.950 . S
C720 C719 1.397 . S
C720 C721 1.334 . S
C721 H698 0.950 . S
C721 C720 1.334 . S
C721 C722 1.287 . S
C722 C721 1.287 . S
C722 C723 1.524 . S
C722 H741 0.913 . S
C723 H699 0.950 . S
C723 C722 1.524 . S
C723 C724 1.415 . S
C724 H700 0.950 . S
C724 C719 1.363 . S
C724 C723 1.415 . S
C725 H701 0.951 . S
C725 C726 1.366 . S
C725 C727 1.388 . S
C726 C725 1.366 . S
C726 C730 1.385 . S
C727 H702 0.951 . S
C727 C725 1.388 . S
C727 C728 1.366 . S
C728 C727 1.366 . S
C728 C729 1.414 . S
C728 C731 1.499 . S
C729 H703 0.950 . S
C729 C728 1.414 . S
C729 C730 1.374 . S
C730 H704 0.950 . S
C730 C726 1.385 . S
C730 C729 1.374 . S
C731 C728 1.499 . S
C731 C732 1.373 . S
C731 C733 1.389 . S
C732 H705 0.950 . S
C732 C718 1.377 . S
C732 C731 1.373 . S
C733 C717 1.377 . S
C733 C731 1.389 . S
C733 C734 1.524 . S
C734 C733 1.524 . S
C734 C735 1.397 . S
C734 C739 1.363 . S
C735 H706 0.950 . S
C735 C734 1.397 . S
C735 C736 1.334 . S
C736 H707 0.950 . S
C736 C735 1.334 . S
C736 C737 1.287 . S
C737 C736 1.287 . S
C737 C738 1.524 1_556 S
C737 H740 0.999 . S
C738 H708 0.950 . S
C738 C737 1.524 1_554 S
C738 C739 1.415 1_554 S
C739 H709 0.950 . S
C739 C734 1.363 . S
C739 C738 1.415 1_556 S
H740 C737 0.999 . S
H741 C722 0.913 . S
H742 C760 0.951 . S
H743 C762 0.951 . S
H744 C764 0.950 . S
H745 C765 0.950 . S
H746 C767 0.950 . S
H747 C770 0.950 . S
H748 C771 0.950 . S
H749 C773 0.950 . S
H750 C774 0.950 . S
H751 C775 0.951 . S
H752 C777 0.951 . S
H753 C779 0.950 . S
H754 C780 0.950 . S
H755 C782 0.950 . S
H756 C785 0.950 . S
H757 C786 0.950 . S
H758 C788 0.950 . S
H759 C789 0.950 . S
C760 H742 0.951 . S
C760 C761 1.366 . S
C760 C762 1.388 . S
C761 C760 1.366 . S
C761 C765 1.385 . S
C762 H743 0.951 . S
C762 C760 1.388 . S
C762 C763 1.366 . S
C763 C762 1.366 . S
C763 C764 1.414 . S
C763 C766 1.499 . S
C764 H744 0.950 . S
C764 C763 1.414 . S
C764 C765 1.374 . S
C765 H745 0.950 . S
C765 C761 1.385 . S
C765 C764 1.374 . S
C766 C763 1.499 . S
C766 C767 1.373 . S
C766 C768 1.389 . S
C767 H746 0.950 . S
C767 C766 1.373 . S
C767 C783 1.377 . S
C768 C766 1.389 . S
C768 C769 1.524 . S
C768 C782 1.377 . S
C769 C768 1.524 . S
C769 C770 1.397 . S
C769 C774 1.363 . S
C770 H747 0.950 . S
C770 C769 1.397 . S
C770 C771 1.334 . S
C771 H748 0.950 . S
C771 C770 1.334 . S
C771 C772 1.287 . S
C772 C771 1.287 . S
C772 C773 1.524 . S
C772 H791 0.913 . S
C773 H749 0.950 . S
C773 C772 1.524 . S
C773 C774 1.415 . S
C774 H750 0.950 . S
C774 C769 1.363 . S
C774 C773 1.415 . S
C775 H751 0.951 . S
C775 C776 1.366 . S
C775 C777 1.388 . S
C776 C775 1.366 . S
C776 C780 1.385 . S
C777 H752 0.951 . S
C777 C775 1.388 . S
C777 C778 1.366 . S
C778 C777 1.366 . S
C778 C779 1.414 . S
C778 C781 1.499 . S
C779 H753 0.950 . S
C779 C778 1.414 . S
C779 C780 1.374 . S
C780 H754 0.950 . S
C780 C776 1.385 . S
C780 C779 1.374 . S
C781 C778 1.499 . S
C781 C782 1.373 . S
C781 C783 1.389 . S
C782 H755 0.950 . S
C782 C768 1.377 . S
C782 C781 1.373 . S
C783 C767 1.377 . S
C783 C781 1.389 . S
C783 C784 1.524 . S
C784 C783 1.524 . S
C784 C785 1.397 . S
C784 C789 1.363 . S
C785 H756 0.950 . S
C785 C784 1.397 . S
C785 C786 1.334 . S
C786 H757 0.950 . S
C786 C785 1.334 . S
C786 C787 1.287 . S
C787 C786 1.287 . S
C787 C788 1.524 . S
C787 H790 0.999 . S
C788 H758 0.950 . S
C788 C787 1.524 . S
C788 C789 1.415 . S
C789 H759 0.950 . S
C789 C784 1.363 . S
C789 C788 1.415 . S
H790 C787 0.999 . S
H791 C772 0.913 . S
H792 C810 0.951 . S
H793 C812 0.951 . S
H794 C814 0.950 . S
H795 C815 0.950 . S
H796 C817 0.950 . S
H797 C820 0.950 . S
H798 C821 0.950 . S
H799 C823 0.950 . S
H800 C824 0.950 . S
H801 C825 0.951 . S
H802 C827 0.951 . S
H803 C829 0.950 . S
H804 C830 0.950 . S
H805 C832 0.951 . S
H806 C835 0.950 . S
H807 C836 0.950 . S
H808 C838 0.950 . S
H809 C839 0.950 . S
C810 H792 0.951 . S
C810 C811 1.366 . S
C810 C812 1.388 . S
C811 C810 1.366 . S
C811 C815 1.385 . S
C812 H793 0.951 . S
C812 C810 1.388 . S
C812 C813 1.366 . S
C813 C812 1.366 . S
C813 C814 1.414 . S
C813 C816 1.499 . S
C814 H794 0.950 . S
C814 C813 1.414 . S
C814 C815 1.374 . S
C815 H795 0.950 . S
C815 C811 1.385 . S
C815 C814 1.374 . S
C816 C813 1.499 . S
C816 C817 1.373 1_565 S
C816 C818 1.389 . S
C817 H796 0.950 . S
C817 C816 1.373 1_545 S
C817 C833 1.377 . S
C818 C816 1.389 . S
C818 C819 1.524 . S
C818 C832 1.381 . S
C819 C818 1.524 . S
C819 C820 1.397 1_556 S
C819 C824 1.363 . S
C820 H797 0.950 . S
C820 C819 1.397 1_554 S
C820 C821 1.334 . S
C821 H798 0.950 . S
C821 C820 1.334 . S
C821 C822 1.287 . S
C822 C821 1.287 . S
C822 C823 1.524 1_554 S
C822 H841 0.913 . S
C823 H799 0.950 . S
C823 C822 1.524 1_556 S
C823 C824 1.415 . S
C824 H800 0.950 . S
C824 C819 1.363 . S
C824 C823 1.415 . S
C825 H801 0.951 . S
C825 C826 1.366 . S
C825 C827 1.388 . S
C826 C825 1.366 . S
C826 C830 1.385 . S
C827 H802 0.951 . S
C827 C825 1.388 . S
C827 C828 1.366 . S
C828 C827 1.366 . S
C828 C829 1.414 . S
C828 C831 1.499 . S
C829 H803 0.950 . S
C829 C828 1.414 . S
C829 C830 1.374 . S
C830 H804 0.950 . S
C830 C826 1.385 . S
C830 C829 1.374 . S
C831 C828 1.499 . S
C831 C832 1.368 1_545 S
C831 C833 1.389 . S
C832 H805 0.951 . S
C832 C818 1.381 . S
C832 C831 1.368 1_565 S
C833 C817 1.377 . S
C833 C831 1.389 . S
C833 C834 1.524 . S
C834 C833 1.524 . S
C834 C835 1.397 . S
C834 C839 1.363 . S
C835 H806 0.950 . S
C835 C834 1.397 . S
C835 C836 1.334 . S
C836 H807 0.950 . S
C836 C835 1.334 . S
C836 C837 1.287 . S
C837 C836 1.287 . S
C837 C838 1.524 . S
C837 H840 0.999 . S
C838 H808 0.950 . S
C838 C837 1.524 . S
C838 C839 1.415 . S
C839 H809 0.950 . S
C839 C834 1.363 . S
C839 C838 1.415 . S
H840 C837 0.999 . S
H841 C822 0.913 . S
H842 C860 0.951 . S
H843 C862 0.951 . S
H844 C864 0.950 . S
H845 C865 0.950 . S
H846 C867 0.950 . S
H847 C870 0.950 . S
H848 C871 0.950 . S
H849 C873 0.950 . S
H850 C874 0.950 . S
H851 C875 0.951 . S
H852 C877 0.951 . S
H853 C879 0.950 . S
H854 C880 0.950 . S
H855 C882 0.950 . S
H856 C885 0.950 . S
H857 C886 0.950 . S
H858 C888 0.950 . S
H859 C889 0.950 . S
C860 H842 0.951 . S
C860 C861 1.366 . S
C860 C862 1.388 . S
C861 C860 1.366 . S
C861 C865 1.385 . S
C862 H843 0.951 . S
C862 C860 1.388 . S
C862 C863 1.366 . S
C863 C862 1.366 . S
C863 C864 1.414 . S
C863 C866 1.499 . S
C864 H844 0.950 . S
C864 C863 1.414 . S
C864 C865 1.374 . S
C865 H845 0.950 . S
C865 C861 1.385 . S
C865 C864 1.374 . S
C866 C863 1.499 . S
C866 C867 1.373 . S
C866 C868 1.389 1_545 S
C867 H846 0.950 . S
C867 C866 1.373 . S
C867 C883 1.377 1_545 S
C868 C866 1.389 1_565 S
C868 C869 1.524 . S
C868 C882 1.377 . S
C869 C868 1.524 . S
C869 C870 1.397 1_565 S
C869 C874 1.363 . S
C870 H847 0.950 . S
C870 C869 1.397 1_545 S
C870 C871 1.334 . S
C871 H848 0.950 . S
C871 C870 1.334 . S
C871 C872 1.287 1_545 S
C872 C871 1.287 1_565 S
C872 C873 1.524 . S
C872 H891 0.913 . S
C873 H849 0.950 . S
C873 C872 1.524 . S
C873 C874 1.415 . S
C874 H850 0.950 . S
C874 C869 1.363 . S
C874 C873 1.415 . S
C875 H851 0.951 . S
C875 C876 1.366 . S
C875 C877 1.388 . S
C876 C875 1.366 . S
C876 C880 1.385 . S
C877 H852 0.951 . S
C877 C875 1.388 . S
C877 C878 1.366 . S
C878 C877 1.366 . S
C878 C879 1.414 . S
C878 C881 1.499 . S
C879 H853 0.950 . S
C879 C878 1.414 . S
C879 C880 1.374 . S
C880 H854 0.950 . S
C880 C876 1.385 . S
C880 C879 1.374 . S
C881 C878 1.499 . S
C881 C882 1.373 . S
C881 C883 1.389 . S
C882 H855 0.950 . S
C882 C868 1.377 . S
C882 C881 1.373 . S
C883 C867 1.377 1_565 S
C883 C881 1.389 . S
C883 C884 1.526 . S
C884 C883 1.526 . S
C884 C885 1.411 . S
C884 C889 1.347 1_565 S
C885 H856 0.950 . S
C885 C884 1.411 . S
C885 C886 1.334 . S
C886 H857 0.950 . S
C886 C885 1.334 . S
C886 C887 1.270 1_565 S
C887 C886 1.270 1_545 S
C887 C888 1.540 . S
C887 H890 1.001 . S
C888 H858 0.950 . S
C888 C887 1.540 . S
C888 C889 1.415 . S
C889 H859 0.950 . S
C889 C884 1.347 1_545 S
C889 C888 1.415 . S
H890 C887 1.001 . S
H891 C872 0.913 . S
H892 C910 0.951 1_554 S
H893 C912 0.951 . S
H894 C914 0.950 . S
H895 C915 0.950 . S
H896 C917 0.950 . S
H897 C920 0.950 . S
H898 C921 0.950 . S
H899 C923 0.950 . S
H900 C924 0.950 . S
H901 C925 0.951 . S
H902 C927 0.951 . S
H903 C929 0.950 . S
H904 C930 0.950 . S
H905 C932 0.950 . S
H906 C935 0.950 . S
H907 C936 0.950 . S
H908 C938 0.950 . S
H909 C939 0.950 . S
C910 H892 0.951 1_556 S
C910 C911 1.366 . S
C910 C912 1.388 . S
C911 C910 1.366 . S
C911 C915 1.385 . S
C912 H893 0.951 . S
C912 C910 1.388 . S
C912 C913 1.366 . S
C913 C912 1.366 . S
C913 C914 1.414 . S
C913 C916 1.499 . S
C914 H894 0.950 . S
C914 C913 1.414 . S
C914 C915 1.374 . S
C915 H895 0.950 . S
C915 C911 1.385 . S
C915 C914 1.374 . S
C916 C913 1.499 . S
C916 C917 1.373 1_565 S
C916 C918 1.389 . S
C917 H896 0.950 . S
C917 C916 1.373 1_545 S
C917 C933 1.377 . S
C918 C916 1.389 . S
C918 C919 1.524 . S
C918 C932 1.377 1_565 S
C919 C918 1.524 . S
C919 C920 1.397 . S
C919 C924 1.363 . S
C920 H897 0.950 . S
C920 C919 1.397 . S
C920 C921 1.334 . S
C921 H898 0.950 . S
C921 C920 1.334 . S
C921 C922 1.287 1_556 S
C922 C921 1.287 1_554 S
C922 C923 1.524 . S
C922 H941 0.913 . S
C923 H899 0.950 . S
C923 C922 1.524 . S
C923 C924 1.415 1_554 S
C924 H900 0.950 . S
C924 C919 1.363 . S
C924 C923 1.415 1_556 S
C925 H901 0.951 . S
C925 C926 1.366 . S
C925 C927 1.388 . S
C926 C925 1.366 . S
C926 C930 1.385 . S
C927 H902 0.951 . S
C927 C925 1.388 . S
C927 C928 1.366 . S
C928 C927 1.366 . S
C928 C929 1.414 . S
C928 C931 1.499 . S
C929 H903 0.950 . S
C929 C928 1.414 . S
C929 C930 1.374 . S
C930 H904 0.950 . S
C930 C926 1.385 . S
C930 C929 1.374 . S
C931 C928 1.499 . S
C931 C932 1.373 . S
C931 C933 1.389 . S
C932 H905 0.950 . S
C932 C918 1.377 1_545 S
C932 C931 1.373 . S
C933 C917 1.377 . S
C933 C931 1.389 . S
C933 C934 1.524 . S
C934 C933 1.524 . S
C934 C935 1.397 . S
C934 C939 1.363 . S
C935 H906 0.950 . S
C935 C934 1.397 . S
C935 C936 1.334 . S
C936 H907 0.950 . S
C936 C935 1.334 . S
C936 C937 1.287 . S
C937 C936 1.287 . S
C937 C938 1.524 . S
C937 H940 0.999 . S
C938 H908 0.950 . S
C938 C937 1.524 . S
C938 C939 1.415 . S
C939 H909 0.950 . S
C939 C934 1.363 . S
C939 C938 1.415 . S
H940 C937 0.999 . S
H941 C922 0.913 . S
H942 C960 0.951 . S
H943 C962 0.951 . S
H944 C964 0.950 . S
H945 C965 0.950 . S
H946 C967 0.950 . S
H947 C970 0.950 . S
H948 C971 0.950 . S
H949 C973 0.950 . S
H950 C974 0.950 . S
H951 C975 0.951 . S
H952 C977 0.951 . S
H953 C979 0.950 . S
H954 C980 0.950 . S
H955 C982 0.950 . S
H956 C985 0.950 . S
H957 C986 0.950 . S
H958 C988 0.950 . S
H959 C989 0.950 . S
C960 H942 0.951 . S
C960 C961 1.366 . S
C960 C962 1.388 . S
C961 C960 1.366 . S
C961 C965 1.385 . S
C962 H943 0.951 . S
C962 C960 1.388 . S
C962 C963 1.366 . S
C963 C962 1.366 . S
C963 C964 1.414 . S
C963 C966 1.499 . S
C964 H944 0.950 . S
C964 C963 1.414 . S
C964 C965 1.374 . S
C965 H945 0.950 . S
C965 C961 1.385 . S
C965 C964 1.374 . S
C966 C963 1.499 . S
C966 C967 1.373 1_545 S
C966 C968 1.389 . S
C967 H946 0.950 . S
C967 C966 1.373 1_565 S
C967 C983 1.377 . S
C968 C966 1.389 . S
C968 C969 1.524 . S
C968 C982 1.377 . S
C969 C968 1.524 . S
C969 C970 1.397 . S
C969 C974 1.363 . S
C970 H947 0.950 . S
C970 C969 1.397 . S
C970 C971 1.334 . S
C971 H948 0.950 . S
C971 C970 1.334 . S
C971 C972 1.287 . S
C972 C971 1.287 . S
C972 C973 1.524 . S
C972 H991 0.913 . S
C973 H949 0.950 . S
C973 C972 1.524 . S
C973 C974 1.415 . S
C974 H950 0.950 . S
C974 C969 1.363 . S
C974 C973 1.415 . S
C975 H951 0.951 . S
C975 C976 1.366 . S
C975 C977 1.388 . S
C976 C975 1.366 . S
C976 C980 1.385 . S
C977 H952 0.951 . S
C977 C975 1.388 . S
C977 C978 1.366 . S
C978 C977 1.366 . S
C978 C979 1.414 . S
C978 C981 1.499 . S
C979 H953 0.950 . S
C979 C978 1.414 . S
C979 C980 1.374 . S
C980 H954 0.950 . S
C980 C976 1.385 . S
C980 C979 1.374 . S
C981 C978 1.499 . S
C981 C982 1.373 1_565 S
C981 C983 1.389 . S
C982 H955 0.950 . S
C982 C968 1.377 . S
C982 C981 1.373 1_545 S
C983 C967 1.377 . S
C983 C981 1.389 . S
C983 C984 1.524 . S
C984 C983 1.524 . S
C984 C985 1.397 . S
C984 C989 1.363 . S
C985 H956 0.950 . S
C985 C984 1.397 . S
C985 C986 1.334 . S
C986 H957 0.950 . S
C986 C985 1.334 . S
C986 C987 1.287 . S
C987 C986 1.287 . S
C987 C988 1.524 . S
C987 H990 0.999 . S
C988 H958 0.950 . S
C988 C987 1.524 . S
C988 C989 1.415 . S
C989 H959 0.950 . S
C989 C984 1.363 . S
C989 C988 1.415 . S
H990 C987 0.999 . S
H991 C972 0.913 . S
H992 C1010 0.951 . S
H993 C1012 0.951 . S
H994 C1014 0.950 . S
H995 C1015 0.950 . S
H996 C1017 0.950 . S
H997 C1020 0.950 . S
H998 C1021 0.950 . S
H999 C1023 0.950 . S
H1000 C1024 0.950 . S
H1001 C1025 0.951 . S
H1002 C1027 0.951 . S
H1003 C1029 0.950 . S
H1004 C1030 0.950 . S
H1005 C1032 0.950 . S
H1006 C1035 0.950 . S
H1007 C1036 0.950 . S
H1008 C1038 0.950 . S
H1009 C1039 0.950 . S
C1010 H992 0.951 . S
C1010 C1011 1.366 . S
C1010 C1012 1.388 . S
C1011 C1010 1.366 . S
C1011 C1015 1.385 . S
C1012 H993 0.951 . S
C1012 C1010 1.388 . S
C1012 C1013 1.366 . S
C1013 C1012 1.366 . S
C1013 C1014 1.414 . S
C1013 C1016 1.499 . S
C1014 H994 0.950 . S
C1014 C1013 1.414 . S
C1014 C1015 1.374 . S
C1015 H995 0.950 . S
C1015 C1011 1.385 . S
C1015 C1014 1.374 . S
C1016 C1013 1.499 . S
C1016 C1017 1.373 . S
C1016 C1018 1.389 . S
C1017 H996 0.950 . S
C1017 C1016 1.373 . S
C1017 C1033 1.377 . S
C1018 C1016 1.389 . S
C1018 C1019 1.524 . S
C1018 C1032 1.377 . S
C1019 C1018 1.524 . S
C1019 C1020 1.397 . S
C1019 C1024 1.363 . S
C1020 H997 0.950 . S
C1020 C1019 1.397 . S
C1020 C1021 1.334 . S
C1021 H998 0.950 . S
C1021 C1020 1.334 . S
C1021 C1022 1.287 . S
C1022 C1021 1.287 . S
C1022 C1023 1.524 . S
C1022 H1041 0.913 . S
C1023 H999 0.950 . S
C1023 C1022 1.524 . S
C1023 C1024 1.415 . S
C1024 H1000 0.950 . S
C1024 C1019 1.363 . S
C1024 C1023 1.415 . S
C1025 H1001 0.951 . S
C1025 C1026 1.366 . S
C1025 C1027 1.388 . S
C1026 C1025 1.366 . S
C1026 C1030 1.385 . S
C1027 H1002 0.951 . S
C1027 C1025 1.388 . S
C1027 C1028 1.366 . S
C1028 C1027 1.366 . S
C1028 C1029 1.414 . S
C1028 C1031 1.499 . S
C1029 H1003 0.950 . S
C1029 C1028 1.414 . S
C1029 C1030 1.374 . S
C1030 H1004 0.950 . S
C1030 C1026 1.385 . S
C1030 C1029 1.374 . S
C1031 C1028 1.499 . S
C1031 C1032 1.373 . S
C1031 C1033 1.389 . S
C1032 H1005 0.950 . S
C1032 C1018 1.377 . S
C1032 C1031 1.373 . S
C1033 C1017 1.377 . S
C1033 C1031 1.389 . S
C1033 C1034 1.524 . S
C1034 C1033 1.524 . S
C1034 C1035 1.397 . S
C1034 C1039 1.363 . S
C1035 H1006 0.950 . S
C1035 C1034 1.397 . S
C1035 C1036 1.334 . S
C1036 H1007 0.950 . S
C1036 C1035 1.334 . S
C1036 C1037 1.287 . S
C1037 C1036 1.287 . S
C1037 C1038 1.524 . S
C1037 H1040 0.999 . S
C1038 H1008 0.950 . S
C1038 C1037 1.524 . S
C1038 C1039 1.415 . S
C1039 H1009 0.950 . S
C1039 C1034 1.363 . S
C1039 C1038 1.415 . S
H1040 C1037 0.999 . S
H1041 C1022 0.913 . S
H1042 C1060 0.951 . S
H1043 C1062 0.951 . S
H1044 C1064 0.950 . S
H1045 C1065 0.950 . S
H1046 C1067 0.950 . S
H1047 C1070 0.950 . S
H1048 C1071 0.950 . S
H1049 C1073 0.950 . S
H1050 C1074 0.950 . S
H1051 C1075 0.951 . S
H1052 C1077 0.951 . S
H1053 C1079 0.950 . S
H1054 C1080 0.950 . S
H1055 C1082 0.950 . S
H1056 C1085 0.950 . S
H1057 C1086 0.950 . S
H1058 C1088 0.950 . S
H1059 C1089 0.950 . S
C1060 H1042 0.951 . S
C1060 C1061 1.366 . S
C1060 C1062 1.388 . S
C1061 C1060 1.366 . S
C1061 C1065 1.385 . S
C1062 H1043 0.951 . S
C1062 C1060 1.388 . S
C1062 C1063 1.366 . S
C1063 C1062 1.366 . S
C1063 C1064 1.414 . S
C1063 C1066 1.499 . S
C1064 H1044 0.950 . S
C1064 C1063 1.414 . S
C1064 C1065 1.374 . S
C1065 H1045 0.950 . S
C1065 C1061 1.385 . S
C1065 C1064 1.374 . S
C1066 C1063 1.499 . S
C1066 C1067 1.373 . S
C1066 C1068 1.389 . S
C1067 H1046 0.950 . S
C1067 C1066 1.373 . S
C1067 C1083 1.377 . S
C1068 C1066 1.389 . S
C1068 C1069 1.524 . S
C1068 C1082 1.377 . S
C1069 C1068 1.524 . S
C1069 C1070 1.397 . S
C1069 C1074 1.363 . S
C1070 H1047 0.950 . S
C1070 C1069 1.397 . S
C1070 C1071 1.334 . S
C1071 H1048 0.950 . S
C1071 C1070 1.334 . S
C1071 C1072 1.287 . S
C1072 C1071 1.287 . S
C1072 C1073 1.524 . S
C1072 H1091 0.913 . S
C1073 H1049 0.950 . S
C1073 C1072 1.524 . S
C1073 C1074 1.415 . S
C1074 H1050 0.950 . S
C1074 C1069 1.363 . S
C1074 C1073 1.415 . S
C1075 H1051 0.951 . S
C1075 C1076 1.366 . S
C1075 C1077 1.388 . S
C1076 C1075 1.366 . S
C1076 C1080 1.385 . S
C1077 H1052 0.951 . S
C1077 C1075 1.388 . S
C1077 C1078 1.366 . S
C1078 C1077 1.366 . S
C1078 C1079 1.414 . S
C1078 C1081 1.499 . S
C1079 H1053 0.950 . S
C1079 C1078 1.414 . S
C1079 C1080 1.374 . S
C1080 H1054 0.950 . S
C1080 C1076 1.385 . S
C1080 C1079 1.374 . S
C1081 C1078 1.499 . S
C1081 C1082 1.373 . S
C1081 C1083 1.389 . S
C1082 H1055 0.950 . S
C1082 C1068 1.377 . S
C1082 C1081 1.373 . S
C1083 C1067 1.377 . S
C1083 C1081 1.389 . S
C1083 C1084 1.524 . S
C1084 C1083 1.524 . S
C1084 C1085 1.397 . S
C1084 C1089 1.363 . S
C1085 H1056 0.950 . S
C1085 C1084 1.397 . S
C1085 C1086 1.334 . S
C1086 H1057 0.950 . S
C1086 C1085 1.334 . S
C1086 C1087 1.287 . S
C1087 C1086 1.287 . S
C1087 C1088 1.524 . S
C1087 H1090 0.999 . S
C1088 H1058 0.950 . S
C1088 C1087 1.524 . S
C1088 C1089 1.415 . S
C1089 H1059 0.950 . S
C1089 C1084 1.363 . S
C1089 C1088 1.415 . S
H1090 C1087 0.999 . S
H1091 C1072 0.913 . S
H1092 C1110 0.951 . S
H1093 C1112 0.951 . S
H1094 C1114 0.950 . S
H1095 C1115 0.950 . S
H1096 C1117 0.950 . S
H1097 C1120 0.950 . S
H1098 C1121 0.950 . S
H1099 C1123 0.950 . S
H1100 C1124 0.950 . S
H1101 C1125 0.951 . S
H1102 C1127 0.951 . S
H1103 C1129 0.950 . S
H1104 C1130 0.950 . S
H1105 C1132 0.950 . S
H1106 C1135 0.950 . S
H1107 C1136 0.950 . S
H1108 C1138 0.950 . S
H1109 C1139 0.950 . S
C1110 H1092 0.951 . S
C1110 C1111 1.366 . S
C1110 C1112 1.388 . S
C1111 C1110 1.366 . S
C1111 C1115 1.385 . S
C1112 H1093 0.951 . S
C1112 C1110 1.388 . S
C1112 C1113 1.366 . S
C1113 C1112 1.366 . S
C1113 C1114 1.414 . S
C1113 C1116 1.499 . S
C1114 H1094 0.950 . S
C1114 C1113 1.414 . S
C1114 C1115 1.374 . S
C1115 H1095 0.950 . S
C1115 C1111 1.385 . S
C1115 C1114 1.374 . S
C1116 C1113 1.499 . S
C1116 C1117 1.373 . S
C1116 C1118 1.389 . S
C1117 H1096 0.950 . S
C1117 C1116 1.373 . S
C1117 C1133 1.377 . S
C1118 C1116 1.389 . S
C1118 C1119 1.524 . S
C1118 C1132 1.377 . S
C1119 C1118 1.524 . S
C1119 C1120 1.397 . S
C1119 C1124 1.363 . S
C1120 H1097 0.950 . S
C1120 C1119 1.397 . S
C1120 C1121 1.334 . S
C1121 H1098 0.950 . S
C1121 C1120 1.334 . S
C1121 C1122 1.287 . S
C1122 C1121 1.287 . S
C1122 C1123 1.524 . S
C1122 H1141 0.913 . S
C1123 H1099 0.950 . S
C1123 C1122 1.524 . S
C1123 C1124 1.415 . S
C1124 H1100 0.950 . S
C1124 C1119 1.363 . S
C1124 C1123 1.415 . S
C1125 H1101 0.951 . S
C1125 C1126 1.366 . S
C1125 C1127 1.388 . S
C1126 C1125 1.366 . S
C1126 C1130 1.385 . S
C1127 H1102 0.951 . S
C1127 C1125 1.388 . S
C1127 C1128 1.366 . S
C1128 C1127 1.366 . S
C1128 C1129 1.414 . S
C1128 C1131 1.499 . S
C1129 H1103 0.950 . S
C1129 C1128 1.414 . S
C1129 C1130 1.374 . S
C1130 H1104 0.950 . S
C1130 C1126 1.385 . S
C1130 C1129 1.374 . S
C1131 C1128 1.499 . S
C1131 C1132 1.373 . S
C1131 C1133 1.389 . S
C1132 H1105 0.950 . S
C1132 C1118 1.377 . S
C1132 C1131 1.373 . S
C1133 C1117 1.377 . S
C1133 C1131 1.389 . S
C1133 C1134 1.524 . S
C1134 C1133 1.524 . S
C1134 C1135 1.397 . S
C1134 C1139 1.363 . S
C1135 H1106 0.950 . S
C1135 C1134 1.397 . S
C1135 C1136 1.334 . S
C1136 H1107 0.950 . S
C1136 C1135 1.334 . S
C1136 C1137 1.287 . S
C1137 C1136 1.287 . S
C1137 C1138 1.524 . S
C1137 H1140 0.999 . S
C1138 H1108 0.950 . S
C1138 C1137 1.524 . S
C1138 C1139 1.415 . S
C1139 H1109 0.950 . S
C1139 C1134 1.363 . S
C1139 C1138 1.415 . S
H1140 C1137 0.999 . S
H1141 C1122 0.913 . S
H1142 C1160 0.951 . S
H1143 C1162 0.951 . S
H1144 C1164 0.950 . S
H1145 C1165 0.950 . S
H1146 C1167 0.950 . S
H1147 C1170 0.950 . S
H1148 C1171 0.950 . S
H1149 C1173 0.950 . S
H1150 C1174 0.950 . S
H1151 C1175 0.951 . S
H1152 C1177 0.951 . S
H1153 C1179 0.950 . S
H1154 C1180 0.950 . S
H1155 C1182 0.950 . S
H1156 C1185 0.950 . S
H1157 C1186 0.950 . S
H1158 C1188 0.950 . S
H1159 C1189 0.950 . S
C1160 H1142 0.951 . S
C1160 C1161 1.366 . S
C1160 C1162 1.388 . S
C1161 C1160 1.366 . S
C1161 C1165 1.385 . S
C1162 H1143 0.951 . S
C1162 C1160 1.388 . S
C1162 C1163 1.366 . S
C1163 C1162 1.366 . S
C1163 C1164 1.414 . S
C1163 C1166 1.499 . S
C1164 H1144 0.950 . S
C1164 C1163 1.414 . S
C1164 C1165 1.374 . S
C1165 H1145 0.950 . S
C1165 C1161 1.385 . S
C1165 C1164 1.374 . S
C1166 C1163 1.499 . S
C1166 C1167 1.373 . S
C1166 C1168 1.389 . S
C1167 H1146 0.950 . S
C1167 C1166 1.373 . S
C1167 C1183 1.377 . S
C1168 C1166 1.389 . S
C1168 C1169 1.524 . S
C1168 C1182 1.377 . S
C1169 C1168 1.524 . S
C1169 C1170 1.397 . S
C1169 C1174 1.363 . S
C1170 H1147 0.950 . S
C1170 C1169 1.397 . S
C1170 C1171 1.334 . S
C1171 H1148 0.950 . S
C1171 C1170 1.334 . S
C1171 C1172 1.287 . S
C1172 C1171 1.287 . S
C1172 C1173 1.524 . S
C1172 H1191 0.913 . S
C1173 H1149 0.950 . S
C1173 C1172 1.524 . S
C1173 C1174 1.415 . S
C1174 H1150 0.950 . S
C1174 C1169 1.363 . S
C1174 C1173 1.415 . S
C1175 H1151 0.951 . S
C1175 C1176 1.366 . S
C1175 C1177 1.388 . S
C1176 C1175 1.366 . S
C1176 C1180 1.385 . S
C1177 H1152 0.951 . S
C1177 C1175 1.388 . S
C1177 C1178 1.366 . S
C1178 C1177 1.366 . S
C1178 C1179 1.414 . S
C1178 C1181 1.499 . S
C1179 H1153 0.950 . S
C1179 C1178 1.414 . S
C1179 C1180 1.374 . S
C1180 H1154 0.950 . S
C1180 C1176 1.385 . S
C1180 C1179 1.374 . S
C1181 C1178 1.499 . S
C1181 C1182 1.373 . S
C1181 C1183 1.389 . S
C1182 H1155 0.950 . S
C1182 C1168 1.377 . S
C1182 C1181 1.373 . S
C1183 C1167 1.377 . S
C1183 C1181 1.389 . S
C1183 C1184 1.524 . S
C1184 C1183 1.524 . S
C1184 C1185 1.397 . S
C1184 C1189 1.363 . S
C1185 H1156 0.950 . S
C1185 C1184 1.397 . S
C1185 C1186 1.334 . S
C1186 H1157 0.950 . S
C1186 C1185 1.334 . S
C1186 C1187 1.287 . S
C1187 C1186 1.287 . S
C1187 C1188 1.524 . S
C1187 H1190 0.999 . S
C1188 H1158 0.950 . S
C1188 C1187 1.524 . S
C1188 C1189 1.415 . S
C1189 H1159 0.950 . S
C1189 C1184 1.363 . S
C1189 C1188 1.415 . S
H1190 C1187 0.999 . S
H1191 C1172 0.913 . S
H1192 C1210 0.951 . S
H1193 C1212 0.951 . S
H1194 C1214 0.950 . S
H1195 C1215 0.950 . S
H1196 C1217 0.950 . S
H1197 C1220 0.950 . S
H1198 C1221 0.950 . S
H1199 C1223 0.950 . S
H1200 C1224 0.950 . S
H1201 C1225 0.951 . S
H1202 C1227 0.951 . S
H1203 C1229 0.950 . S
H1204 C1230 0.950 . S
H1205 C1232 0.950 . S
H1206 C1235 0.950 . S
H1207 C1236 0.950 . S
H1208 C1238 0.950 . S
H1209 C1239 0.950 . S
C1210 H1192 0.951 . S
C1210 C1211 1.366 . S
C1210 C1212 1.388 . S
C1211 C1210 1.366 . S
C1211 C1215 1.385 . S
C1212 H1193 0.951 . S
C1212 C1210 1.388 . S
C1212 C1213 1.366 . S
C1213 C1212 1.366 . S
C1213 C1214 1.414 . S
C1213 C1216 1.499 . S
C1214 H1194 0.950 . S
C1214 C1213 1.414 . S
C1214 C1215 1.374 . S
C1215 H1195 0.950 . S
C1215 C1211 1.385 . S
C1215 C1214 1.374 . S
C1216 C1213 1.499 . S
C1216 C1217 1.373 . S
C1216 C1218 1.389 . S
C1217 H1196 0.950 . S
C1217 C1216 1.373 . S
C1217 C1233 1.377 . S
C1218 C1216 1.389 . S
C1218 C1219 1.524 . S
C1218 C1232 1.377 . S
C1219 C1218 1.524 . S
C1219 C1220 1.397 . S
C1219 C1224 1.363 . S
C1220 H1197 0.950 . S
C1220 C1219 1.397 . S
C1220 C1221 1.334 . S
C1221 H1198 0.950 . S
C1221 C1220 1.334 . S
C1221 C1222 1.287 . S
C1222 C1221 1.287 . S
C1222 C1223 1.524 . S
C1222 H1241 0.913 . S
C1223 H1199 0.950 . S
C1223 C1222 1.524 . S
C1223 C1224 1.415 . S
C1224 H1200 0.950 . S
C1224 C1219 1.363 . S
C1224 C1223 1.415 . S
C1225 H1201 0.951 . S
C1225 C1226 1.366 . S
C1225 C1227 1.388 . S
C1226 C1225 1.366 . S
C1226 C1230 1.385 . S
C1227 H1202 0.951 . S
C1227 C1225 1.388 . S
C1227 C1228 1.366 . S
C1228 C1227 1.366 . S
C1228 C1229 1.414 . S
C1228 C1231 1.499 . S
C1229 H1203 0.950 . S
C1229 C1228 1.414 . S
C1229 C1230 1.374 . S
C1230 H1204 0.950 . S
C1230 C1226 1.385 . S
C1230 C1229 1.374 . S
C1231 C1228 1.499 . S
C1231 C1232 1.373 . S
C1231 C1233 1.389 . S
C1232 H1205 0.950 . S
C1232 C1218 1.377 . S
C1232 C1231 1.373 . S
C1233 C1217 1.377 . S
C1233 C1231 1.389 . S
C1233 C1234 1.524 . S
C1234 C1233 1.524 . S
C1234 C1235 1.397 . S
C1234 C1239 1.363 . S
C1235 H1206 0.950 . S
C1235 C1234 1.397 . S
C1235 C1236 1.334 . S
C1236 H1207 0.950 . S
C1236 C1235 1.334 . S
C1236 C1237 1.287 . S
C1237 C1236 1.287 . S
C1237 C1238 1.524 . S
C1237 H1240 0.999 . S
C1238 H1208 0.950 . S
C1238 C1237 1.524 . S
C1238 C1239 1.415 . S
C1239 H1209 0.950 . S
C1239 C1234 1.363 . S
C1239 C1238 1.415 . S
H1240 C1237 0.999 . S
H1241 C1222 0.913 . S
H1242 C1260 0.951 . S
H1243 C1262 0.951 . S
H1244 C1264 0.950 . S
H1245 C1265 0.950 . S
H1246 C1267 0.950 . S
H1247 C1270 0.950 . S
H1248 C1271 0.950 . S
H1249 C1273 0.950 . S
H1250 C1274 0.950 . S
H1251 C1275 0.951 . S
H1252 C1277 0.951 . S
H1253 C1279 0.950 . S
H1254 C1280 0.950 . S
H1255 C1282 0.950 . S
H1256 C1285 0.950 . S
H1257 C1286 0.950 . S
H1258 C1288 0.950 . S
H1259 C1289 0.950 . S
C1260 H1242 0.951 . S
C1260 C1261 1.366 . S
C1260 C1262 1.388 . S
C1261 C1260 1.366 . S
C1261 C1265 1.385 . S
C1262 H1243 0.951 . S
C1262 C1260 1.388 . S
C1262 C1263 1.366 . S
C1263 C1262 1.366 . S
C1263 C1264 1.414 . S
C1263 C1266 1.499 . S
C1264 H1244 0.950 . S
C1264 C1263 1.414 . S
C1264 C1265 1.374 . S
C1265 H1245 0.950 . S
C1265 C1261 1.385 . S
C1265 C1264 1.374 . S
C1266 C1263 1.499 . S
C1266 C1267 1.373 . S
C1266 C1268 1.389 . S
C1267 H1246 0.950 . S
C1267 C1266 1.373 . S
C1267 C1283 1.377 . S
C1268 C1266 1.389 . S
C1268 C1269 1.524 . S
C1268 C1282 1.377 . S
C1269 C1268 1.524 . S
C1269 C1270 1.397 . S
C1269 C1274 1.363 . S
C1270 H1247 0.950 . S
C1270 C1269 1.397 . S
C1270 C1271 1.334 . S
C1271 H1248 0.950 . S
C1271 C1270 1.334 . S
C1271 C1272 1.287 . S
C1272 C1271 1.287 . S
C1272 C1273 1.524 . S
C1272 H1291 0.913 . S
C1273 H1249 0.950 . S
C1273 C1272 1.524 . S
C1273 C1274 1.415 . S
C1274 H1250 0.950 . S
C1274 C1269 1.363 . S
C1274 C1273 1.415 . S
C1275 H1251 0.951 . S
C1275 C1276 1.366 . S
C1275 C1277 1.388 . S
C1276 C1275 1.366 . S
C1276 C1280 1.385 . S
C1277 H1252 0.951 . S
C1277 C1275 1.388 . S
C1277 C1278 1.366 . S
C1278 C1277 1.366 . S
C1278 C1279 1.414 . S
C1278 C1281 1.499 . S
C1279 H1253 0.950 . S
C1279 C1278 1.414 . S
C1279 C1280 1.374 . S
C1280 H1254 0.950 . S
C1280 C1276 1.385 . S
C1280 C1279 1.374 . S
C1281 C1278 1.499 . S
C1281 C1282 1.373 . S
C1281 C1283 1.389 . S
C1282 H1255 0.950 . S
C1282 C1268 1.377 . S
C1282 C1281 1.373 . S
C1283 C1267 1.377 . S
C1283 C1281 1.389 . S
C1283 C1284 1.524 . S
C1284 C1283 1.524 . S
C1284 C1285 1.397 . S
C1284 C1289 1.363 . S
C1285 H1256 0.950 . S
C1285 C1284 1.397 . S
C1285 C1286 1.334 . S
C1286 H1257 0.950 . S
C1286 C1285 1.334 . S
C1286 C1287 1.287 . S
C1287 C1286 1.287 . S
C1287 C1288 1.524 . S
C1287 H1290 0.999 . S
C1288 H1258 0.950 . S
C1288 C1287 1.524 . S
C1288 C1289 1.415 . S
C1289 H1259 0.950 . S
C1289 C1284 1.363 . S
C1289 C1288 1.415 . S
H1290 C1287 0.999 . S
H1291 C1272 0.913 . S
H1292 C1310 0.951 . S
H1293 C1312 0.951 . S
H1294 C1314 0.950 . S
H1295 C1315 0.950 . S
H1296 C1317 0.950 . S
H1297 C1320 0.950 . S
H1298 C1321 0.950 . S
H1299 C1323 0.950 . S
H1300 C1324 0.950 . S
H1301 C1325 0.951 . S
H1302 C1327 0.951 . S
H1303 C1329 0.950 . S
H1304 C1330 0.950 . S
H1305 C1332 0.950 . S
H1306 C1335 0.950 . S
H1307 C1336 0.950 . S
H1308 C1338 0.950 . S
H1309 C1339 0.950 . S
C1310 H1292 0.951 . S
C1310 C1311 1.366 . S
C1310 C1312 1.388 . S
C1311 C1310 1.366 . S
C1311 C1315 1.385 . S
C1312 H1293 0.951 . S
C1312 C1310 1.388 . S
C1312 C1313 1.366 . S
C1313 C1312 1.366 . S
C1313 C1314 1.414 . S
C1313 C1316 1.499 . S
C1314 H1294 0.950 . S
C1314 C1313 1.414 . S
C1314 C1315 1.374 . S
C1315 H1295 0.950 . S
C1315 C1311 1.385 . S
C1315 C1314 1.374 . S
C1316 C1313 1.499 . S
C1316 C1317 1.373 . S
C1316 C1318 1.389 . S
C1317 H1296 0.950 . S
C1317 C1316 1.373 . S
C1317 C1333 1.377 . S
C1318 C1316 1.389 . S
C1318 C1319 1.524 . S
C1318 C1332 1.377 . S
C1319 C1318 1.524 . S
C1319 C1320 1.397 . S
C1319 C1324 1.363 . S
C1320 H1297 0.950 . S
C1320 C1319 1.397 . S
C1320 C1321 1.334 . S
C1321 H1298 0.950 . S
C1321 C1320 1.334 . S
C1321 C1322 1.287 . S
C1322 C1321 1.287 . S
C1322 C1323 1.524 . S
C1322 H1341 0.913 . S
C1323 H1299 0.950 . S
C1323 C1322 1.524 . S
C1323 C1324 1.415 . S
C1324 H1300 0.950 . S
C1324 C1319 1.363 . S
C1324 C1323 1.415 . S
C1325 H1301 0.951 . S
C1325 C1326 1.366 . S
C1325 C1327 1.388 . S
C1326 C1325 1.366 . S
C1326 C1330 1.385 . S
C1327 H1302 0.951 . S
C1327 C1325 1.388 . S
C1327 C1328 1.366 . S
C1328 C1327 1.366 . S
C1328 C1329 1.414 . S
C1328 C1331 1.499 . S
C1329 H1303 0.950 . S
C1329 C1328 1.414 . S
C1329 C1330 1.374 . S
C1330 H1304 0.950 . S
C1330 C1326 1.385 . S
C1330 C1329 1.374 . S
C1331 C1328 1.499 . S
C1331 C1332 1.373 . S
C1331 C1333 1.389 . S
C1332 H1305 0.950 . S
C1332 C1318 1.377 . S
C1332 C1331 1.373 . S
C1333 C1317 1.377 . S
C1333 C1331 1.389 . S
C1333 C1334 1.524 . S
C1334 C1333 1.524 . S
C1334 C1335 1.397 . S
C1334 C1339 1.363 . S
C1335 H1306 0.950 . S
C1335 C1334 1.397 . S
C1335 C1336 1.334 . S
C1336 H1307 0.950 . S
C1336 C1335 1.334 . S
C1336 C1337 1.287 . S
C1337 C1336 1.287 . S
C1337 C1338 1.524 . S
C1337 H1340 0.999 . S
C1338 H1308 0.950 . S
C1338 C1337 1.524 . S
C1338 C1339 1.415 . S
C1339 H1309 0.950 . S
C1339 C1334 1.363 . S
C1339 C1338 1.415 . S
H1340 C1337 0.999 . S
H1341 C1322 0.913 . S
H1342 C1360 0.951 . S
H1343 C1362 0.951 . S
H1344 C1364 0.950 . S
H1345 C1365 0.950 . S
H1346 C1367 0.950 . S
H1347 C1370 0.950 . S
H1348 C1371 0.950 . S
H1349 C1373 0.950 . S
H1350 C1374 0.950 . S
H1351 C1375 0.951 . S
H1352 C1377 0.951 . S
H1353 C1379 0.950 . S
H1354 C1380 0.950 . S
H1355 C1382 0.950 . S
H1356 C1385 0.950 . S
H1357 C1386 0.950 . S
H1358 C1388 0.950 . S
H1359 C1389 0.950 . S
C1360 H1342 0.951 . S
C1360 C1361 1.366 . S
C1360 C1362 1.388 . S
C1361 C1360 1.366 . S
C1361 C1365 1.385 . S
C1362 H1343 0.951 . S
C1362 C1360 1.388 . S
C1362 C1363 1.366 . S
C1363 C1362 1.366 . S
C1363 C1364 1.414 . S
C1363 C1366 1.499 . S
C1364 H1344 0.950 . S
C1364 C1363 1.414 . S
C1364 C1365 1.374 . S
C1365 H1345 0.950 . S
C1365 C1361 1.385 . S
C1365 C1364 1.374 . S
C1366 C1363 1.499 . S
C1366 C1367 1.373 . S
C1366 C1368 1.389 . S
C1367 H1346 0.950 . S
C1367 C1366 1.373 . S
C1367 C1383 1.377 . S
C1368 C1366 1.389 . S
C1368 C1369 1.524 . S
C1368 C1382 1.377 . S
C1369 C1368 1.524 . S
C1369 C1370 1.397 . S
C1369 C1374 1.363 . S
C1370 H1347 0.950 . S
C1370 C1369 1.397 . S
C1370 C1371 1.334 . S
C1371 H1348 0.950 . S
C1371 C1370 1.334 . S
C1371 C1372 1.287 . S
C1372 C1371 1.287 . S
C1372 C1373 1.524 . S
C1372 H1391 0.913 . S
C1373 H1349 0.950 . S
C1373 C1372 1.524 . S
C1373 C1374 1.415 . S
C1374 H1350 0.950 . S
C1374 C1369 1.363 . S
C1374 C1373 1.415 . S
C1375 H1351 0.951 . S
C1375 C1376 1.366 . S
C1375 C1377 1.388 . S
C1376 C1375 1.366 . S
C1376 C1380 1.385 . S
C1377 H1352 0.951 . S
C1377 C1375 1.388 . S
C1377 C1378 1.366 . S
C1378 C1377 1.366 . S
C1378 C1379 1.414 . S
C1378 C1381 1.499 . S
C1379 H1353 0.950 . S
C1379 C1378 1.414 . S
C1379 C1380 1.374 . S
C1380 H1354 0.950 . S
C1380 C1376 1.385 . S
C1380 C1379 1.374 . S
C1381 C1378 1.499 . S
C1381 C1382 1.373 . S
C1381 C1383 1.389 . S
C1382 H1355 0.950 . S
C1382 C1368 1.377 . S
C1382 C1381 1.373 . S
C1383 C1367 1.377 . S
C1383 C1381 1.389 . S
C1383 C1384 1.524 . S
C1384 C1383 1.524 . S
C1384 C1385 1.397 . S
C1384 C1389 1.363 . S
C1385 H1356 0.950 . S
C1385 C1384 1.397 . S
C1385 C1386 1.334 . S
C1386 H1357 0.950 . S
C1386 C1385 1.334 . S
C1386 C1387 1.287 . S
C1387 C1386 1.287 . S
C1387 C1388 1.524 . S
C1387 H1390 0.999 . S
C1388 H1358 0.950 . S
C1388 C1387 1.524 . S
C1388 C1389 1.415 . S
C1389 H1359 0.950 . S
C1389 C1384 1.363 . S
C1389 C1388 1.415 . S
H1390 C1387 0.999 . S
H1391 C1372 0.913 . S
C211 C4 1.551 . S
C226 C130 1.605 . S
C276 C108 1.453 . S
C261 C17 1.444 . S
C326 C134 1.454 . S
C311 C30 1.406 . S
C376 C112 1.604 . S
C361 C43 1.592 . S
C426 C174 1.604 . S
C411 C56 1.551 . S
C476 C152 1.454 . S
C461 C69 1.443 . S
C511 C82 1.405 . S
C526 C178 1.453 . S
C576 C156 1.605 . S
C561 C95 1.591 . S
C611 C9 1.547 1_556 S
C626 C179 1.561 . S
C676 C157 1.416 . S
C661 C21 1.423 . S
C711 C34 1.419 . S
C726 C176 1.417 . S
C761 C48 1.549 . S
C776 C154 1.561 . S
C826 C135 1.561 . S
C811 C61 1.547 1_556 S
C861 C73 1.423 . S
C876 C113 1.417 . S
C926 C132 1.416 . S
C911 C86 1.420 . S
C976 C110 1.561 . S
C961 C100 1.549 . S
C1026 C153 1.482 . S
C1011 C8 1.486 . S
C1076 C175 1.486 . S
C1061 C22 1.477 . S
C1111 C35 1.475 . S
C1126 C155 1.486 . S
C1176 C177 1.482 . S
C1161 C47 1.490 . S
C1226 C109 1.482 . S
C1211 C60 1.486 . S
C1261 C74 1.477 . S
C1276 C131 1.486 . S
C1311 C87 1.475 . S
C1326 C111 1.486 . S
C1361 C99 1.490 . S
C1376 C133 1.482 . S
