# Generated by pormake.
# Topology pyr, (3,6)-cn, num edge types: 1
# Building blocks:
#     Node 0, Type 0, BuildingBlock: KAKCAD_clean_linker_0, # of connection points: 3
#     Node 1, Type 0, BuildingBlock: KAKCAD_clean_linker_0, # of connection points: 3
#     Node 2, Type 0, BuildingBlock: KAKCAD_clean_linker_0, # of connection points: 3
#     Node 3, Type 0, BuildingBlock: KAKCAD_clean_linker_0, # of connection points: 3
#     Node 4, Type 0, BuildingBlock: KAKCAD_clean_linker_0, # of connection points: 3
#     Node 5, Type 0, BuildingBlock: KAKCAD_clean_linker_0, # of connection points: 3
#     Node 6, Type 0, BuildingBlock: KAKCAD_clean_linker_0, # of connection points: 3
#     Node 7, Type 0, BuildingBlock: KAKCAD_clean_linker_0, # of connection points: 3
#     Node 8, Type 1, BuildingBlock: MIFKUJ_clean_sbu_0, # of connection points: 6
#     Node 9, Type 1, BuildingBlock: MIFKUJ_clean_sbu_0, # of connection points: 6
#     Node 10, Type 1, BuildingBlock: MIFKUJ_clean_sbu_0, # of connection points: 6
#     Node 11, Type 1, BuildingBlock: MIFKUJ_clean_sbu_0, # of connection points: 6
#     Edge 12, Type (0, 1), BuildingBlock: AJUNOK_clean_linker_0, # of connection points: 2
#     Edge 13, Type (0, 1), BuildingBlock: AJUNOK_clean_linker_0, # of connection points: 2
#     Edge 14, Type (0, 1), BuildingBlock: AJUNOK_clean_linker_0, # of connection points: 2
#     Edge 15, Type (0, 1), BuildingBlock: AJUNOK_clean_linker_0, # of connection points: 2
#     Edge 16, Type (0, 1), BuildingBlock: AJUNOK_clean_linker_0, # of connection points: 2
#     Edge 17, Type (0, 1), BuildingBlock: AJUNOK_clean_linker_0, # of connection points: 2
#     Edge 18, Type (0, 1), BuildingBlock: AJUNOK_clean_linker_0, # of connection points: 2
#     Edge 19, Type (0, 1), BuildingBlock: AJUNOK_clean_linker_0, # of connection points: 2
#     Edge 20, Type (0, 1), BuildingBlock: AJUNOK_clean_linker_0, # of connection points: 2
#     Edge 21, Type (0, 1), BuildingBlock: AJUNOK_clean_linker_0, # of connection points: 2
#     Edge 22, Type (0, 1), BuildingBlock: AJUNOK_clean_linker_0, # of connection points: 2
#     Edge 23, Type (0, 1), BuildingBlock: AJUNOK_clean_linker_0, # of connection points: 2
#     Edge 24, Type (0, 1), BuildingBlock: AJUNOK_clean_linker_0, # of connection points: 2
#     Edge 25, Type (0, 1), BuildingBlock: AJUNOK_clean_linker_0, # of connection points: 2
#     Edge 26, Type (0, 1), BuildingBlock: AJUNOK_clean_linker_0, # of connection points: 2
#     Edge 27, Type (0, 1), BuildingBlock: AJUNOK_clean_linker_0, # of connection points: 2
#     Edge 28, Type (0, 1), BuildingBlock: AJUNOK_clean_linker_0, # of connection points: 2
#     Edge 29, Type (0, 1), BuildingBlock: AJUNOK_clean_linker_0, # of connection points: 2
#     Edge 30, Type (0, 1), BuildingBlock: AJUNOK_clean_linker_0, # of connection points: 2
#     Edge 31, Type (0, 1), BuildingBlock: AJUNOK_clean_linker_0, # of connection points: 2
#     Edge 32, Type (0, 1), BuildingBlock: AJUNOK_clean_linker_0, # of connection points: 2
#     Edge 33, Type (0, 1), BuildingBlock: AJUNOK_clean_linker_0, # of connection points: 2
#     Edge 34, Type (0, 1), BuildingBlock: AJUNOK_clean_linker_0, # of connection points: 2
#     Edge 35, Type (0, 1), BuildingBlock: AJUNOK_clean_linker_0, # of connection points: 2
# Relax obj value: 0.030
# Max RMSD: 0.082
# Mean RMSD: 0.048
data_MOF--net-pyr--node1-MIFKUJ_clean_sbu_0--node2-KAKCAD_clean_linker_0--edge1-AJUNOK_clean_linker_0
_symmetry_space_group_name_H-M    P1
_symmetry_Int_Tables_number       1
_symmetry_cell_setting            triclinic
loop_
_symmetry_equiv_pos_as_xyz
'x, y, z'
_cell_length_a     38.419534
_cell_length_b     34.423774
_cell_length_c     36.736707
_cell_angle_alpha  86.097936
_cell_angle_beta   87.937463
_cell_angle_gamma 96.233715
loop_
_atom_site_label
_atom_site_type_symbol
_atom_site_fract_x
_atom_site_fract_y
_atom_site_fract_z
_atom_type_partial_charge
C0 C 0.11048 0.12091 0.30077 0.0
C1 C 0.12831 0.10607 0.33039 0.0
C2 C 0.12903 0.13968 0.27008 0.0
C3 C 0.16586 0.14419 0.2684 0.0
C4 C 0.18375 0.1289 0.29787 0.0
C5 C 0.16512 0.1099 0.32858 0.0
C6 C 0.18538 0.16516 0.23607 0.0
C7 C 0.1736 0.19903 0.21968 0.0
C8 C 0.19091 0.2184 0.1883 0.0
C9 C 0.22109 0.20444 0.17392 0.0
C10 C 0.23323 0.17035 0.18972 0.0
C11 C 0.21509 0.15087 0.22084 0.0
C12 C 0.26388 0.15422 0.17287 0.0
C13 C 0.26956 0.15672 0.13468 0.0
C14 C 0.28743 0.1357 0.19473 0.0
C15 C 0.31549 0.11945 0.17878 0.0
C16 C 0.32097 0.1218 0.14063 0.0
C17 C 0.17625 0.25185 0.16936 0.0
C18 C 0.14016 0.24964 0.16348 0.0
C19 C 0.19815 0.28549 0.15598 0.0
C20 C 0.18426 0.31612 0.13665 0.0
C21 C 0.1483 0.31347 0.13015 0.0
C22 C 0.12631 0.28019 0.1441 0.0
C23 C 0.29803 0.14119 0.11881 0.0
H24 H 0.0821 0.11832 0.30149 0.0
H25 H 0.11447 0.1505 0.24755 0.0
H26 H 0.21212 0.13206 0.29742 0.0
H27 H 0.17949 0.09803 0.35078 0.0
H28 H 0.15089 0.21053 0.23142 0.0
H29 H 0.22325 0.12373 0.23251 0.0
H30 H 0.23464 0.21976 0.14988 0.0
H31 H 0.25179 0.17022 0.11683 0.0
H32 H 0.28432 0.13381 0.22423 0.0
H33 H 0.33274 0.10469 0.19636 0.0
H34 H 0.12273 0.22382 0.17309 0.0
H35 H 0.22598 0.28816 0.16056 0.0
H36 H 0.30207 0.14451 0.08939 0.0
H37 H 0.09852 0.27744 0.13931 0.0
H38 H 0.20161 0.34192 0.12685 0.0
C39 C 0.3761 0.89538 0.8154 0.0
C40 C 0.41244 0.89501 0.81783 0.0
C41 C 0.35955 0.88452 0.78363 0.0
C42 C 0.37914 0.87349 0.75361 0.0
C43 C 0.41577 0.87494 0.75577 0.0
C44 C 0.43216 0.88534 0.78755 0.0
C45 C 0.36169 0.85907 0.72065 0.0
C46 C 0.33278 0.87602 0.70663 0.0
C47 C 0.31649 0.86227 0.67547 0.0
C48 C 0.33007 0.83163 0.65798 0.0
C49 C 0.35895 0.81421 0.6715 0.0
C50 C 0.37408 0.82782 0.70317 0.0
C51 C 0.37326 0.78163 0.65287 0.0
C52 C 0.35095 0.75376 0.63598 0.0
C53 C 0.40946 0.77804 0.6519 0.0
C54 C 0.42281 0.74705 0.63531 0.0
C55 C 0.40043 0.71905 0.61877 0.0
C56 C 0.28503 0.87941 0.6614 0.0
C57 C 0.25909 0.89005 0.68565 0.0
C58 C 0.28009 0.88417 0.62362 0.0
C59 C 0.24986 0.89854 0.61053 0.0
C60 C 0.224 0.9092 0.63479 0.0
C61 C 0.22903 0.90481 0.67252 0.0
C62 C 0.36441 0.72323 0.61878 0.0
H63 H 0.36041 0.90276 0.83849 0.0
H64 H 0.33131 0.88353 0.78308 0.0
H65 H 0.43187 0.86771 0.73294 0.0
H66 H 0.46032 0.88546 0.78863 0.0
H67 H 0.32342 0.90052 0.71953 0.0
H68 H 0.39521 0.81341 0.71484 0.0
H69 H 0.31796 0.82117 0.63383 0.0
H70 H 0.32292 0.75509 0.63634 0.0
H71 H 0.42769 0.79931 0.6638 0.0
H72 H 0.4507 0.74483 0.63574 0.0
H73 H 0.26163 0.8863 0.7149 0.0
H74 H 0.29959 0.8768 0.60402 0.0
H75 H 0.34648 0.70299 0.60532 0.0
H76 H 0.20966 0.91284 0.69196 0.0
H77 H 0.24654 0.90072 0.58134 0.0
C78 C 0.76537 0.41971 0.8582 0.0
C79 C 0.79146 0.39441 0.86281 0.0
C80 C 0.73361 0.40675 0.84311 0.0
C81 C 0.72726 0.36808 0.83303 0.0
C82 C 0.75355 0.34295 0.83737 0.0
C83 C 0.78542 0.35605 0.85197 0.0
C84 C 0.6926 0.35301 0.82013 0.0
C85 C 0.67674 0.37326 0.79184 0.0
C86 C 0.64413 0.35802 0.77943 0.0
C87 C 0.62699 0.32292 0.79658 0.0
C88 C 0.64251 0.30265 0.82501 0.0
C89 C 0.67535 0.31779 0.8364 0.0
C90 C 0.6247 0.2657 0.84324 0.0
C91 C 0.58966 0.26331 0.85632 0.0
C92 C 0.6434 0.23317 0.84939 0.0
C93 C 0.62778 0.19938 0.86924 0.0
C94 C 0.59329 0.19757 0.88386 0.0
C95 C 0.62845 0.3777 0.7477 0.0
C96 C 0.6277 0.41855 0.74458 0.0
C97 C 0.61411 0.3554 0.7201 0.0
C98 C 0.59887 0.37336 0.69041 0.0
C99 C 0.59719 0.41403 0.68772 0.0
C100 C 0.61218 0.43655 0.71487 0.0
C101 C 0.57411 0.22955 0.87654 0.0
H102 H 0.76958 0.44948 0.86629 0.0
H103 H 0.71365 0.42656 0.84032 0.0
H104 H 0.74933 0.31302 0.82969 0.0
H105 H 0.80509 0.33597 0.85549 0.0
H106 H 0.69037 0.40004 0.77866 0.0
H107 H 0.6872 0.30254 0.85874 0.0
H108 H 0.60168 0.31112 0.78759 0.0
H109 H 0.57473 0.28805 0.85206 0.0
H110 H 0.67025 0.23401 0.83904 0.0
H111 H 0.64283 0.17473 0.87342 0.0
H112 H 0.63849 0.43649 0.76546 0.0
H113 H 0.61504 0.32401 0.72124 0.0
H114 H 0.54745 0.22891 0.8874 0.0
H115 H 0.61135 0.46797 0.71345 0.0
H116 H 0.58858 0.35536 0.66935 0.0
C117 C 0.86677 0.5873 0.1768 0.0
C118 C 0.90066 0.57569 0.17971 0.0
C119 C 0.85015 0.60262 0.20626 0.0
C120 C 0.86738 0.60774 0.23892 0.0
C121 C 0.90143 0.59698 0.24175 0.0
C122 C 0.91778 0.58082 0.21259 0.0
C123 C 0.84981 0.62436 0.26995 0.0
C124 C 0.81672 0.60711 0.28391 0.0
C125 C 0.79998 0.62243 0.31352 0.0
C126 C 0.8161 0.65611 0.32811 0.0
C127 C 0.84879 0.67417 0.31407 0.0
C128 C 0.86592 0.65764 0.28545 0.0
C129 C 0.86422 0.71072 0.32926 0.0
C130 C 0.84322 0.74091 0.33489 0.0
C131 C 0.89909 0.71495 0.34003 0.0
C132 C 0.91219 0.74812 0.35748 0.0
C133 C 0.89074 0.77775 0.36407 0.0
C134 C 0.7658 0.60345 0.32967 0.0
C135 C 0.73822 0.59178 0.30732 0.0
C136 C 0.76028 0.59788 0.36781 0.0
C137 C 0.72791 0.5811 0.38328 0.0
C138 C 0.70026 0.56952 0.361 0.0
C139 C 0.70571 0.57522 0.32283 0.0
C140 C 0.85633 0.77401 0.35203 0.0
H141 H 0.85322 0.5852 0.15157 0.0
H142 H 0.82404 0.61123 0.20327 0.0
H143 H 0.91519 0.60052 0.26675 0.0
H144 H 0.94379 0.57208 0.21592 0.0
H145 H 0.80452 0.5811 0.27238 0.0
H146 H 0.89115 0.67142 0.27439 0.0
H147 H 0.80303 0.66848 0.35052 0.0
H148 H 0.81642 0.7387 0.32636 0.0
H149 H 0.91574 0.69197 0.33623 0.0
H150 H 0.93866 0.74991 0.36692 0.0
H151 H 0.74154 0.59625 0.27787 0.0
H152 H 0.78116 0.60621 0.38574 0.0
H153 H 0.83934 0.7966 0.35626 0.0
H154 H 0.68468 0.56739 0.30493 0.0
H155 H 0.72462 0.57677 0.41274 0.0
C156 C 0.87909 0.85505 0.68218 0.0
C157 C 0.88692 0.89586 0.67689 0.0
C158 C 0.86038 0.83833 0.71366 0.0
C159 C 0.84923 0.86213 0.74039 0.0
C160 C 0.85628 0.90303 0.73459 0.0
C161 C 0.87509 0.91974 0.70315 0.0
C162 C 0.83216 0.84427 0.77518 0.0
C163 C 0.84607 0.81299 0.79375 0.0
C164 C 0.83107 0.79639 0.8274 0.0
C165 C 0.80183 0.81166 0.84259 0.0
C166 C 0.78778 0.84328 0.82447 0.0
C167 C 0.803 0.85926 0.79064 0.0
C168 C 0.75771 0.8603 0.84111 0.0
C169 C 0.72911 0.836 0.8581 0.0
C170 C 0.75756 0.90116 0.84018 0.0
C171 C 0.72927 0.9174 0.85555 0.0
C172 C 0.70055 0.89312 0.87211 0.0
C173 C 0.84681 0.76386 0.84683 0.0
C174 C 0.85929 0.73418 0.8272 0.0
C175 C 0.85076 0.76301 0.88477 0.0
C176 C 0.86708 0.73322 0.9026 0.0
C177 C 0.87974 0.70379 0.88283 0.0
C178 C 0.87583 0.70467 0.84496 0.0
C179 C 0.7008 0.8523 0.87355 0.0
H180 H 0.88834 0.83603 0.66252 0.0
H181 H 0.85505 0.80672 0.71735 0.0
H182 H 0.8483 0.92204 0.75492 0.0
H183 H 0.88084 0.95131 0.69956 0.0
H184 H 0.86947 0.80244 0.78252 0.0
H185 H 0.79193 0.88315 0.77611 0.0
H186 H 0.79025 0.79922 0.86871 0.0
H187 H 0.72837 0.80441 0.85896 0.0
H188 H 0.77954 0.92065 0.82796 0.0
H189 H 0.73 0.94899 0.85485 0.0
H190 H 0.85638 0.73379 0.798 0.0
H191 H 0.8419 0.78576 0.90058 0.0
H192 H 0.67886 0.83302 0.88616 0.0
H193 H 0.88594 0.68278 0.82893 0.0
H194 H 0.86976 0.73315 0.93186 0.0
C195 C 0.63609 0.08182 0.21324 0.0
C196 C 0.62012 0.10779 0.18964 0.0
C197 C 0.65143 0.09462 0.24495 0.0
C198 C 0.65174 0.13391 0.25354 0.0
C199 C 0.63709 0.16016 0.22902 0.0
C200 C 0.6213 0.14723 0.1977 0.0
C201 C 0.66629 0.14736 0.28831 0.0
C202 C 0.69579 0.13213 0.30299 0.0
C203 C 0.70933 0.14478 0.33583 0.0
C204 C 0.693 0.17299 0.35411 0.0
C205 C 0.66371 0.18866 0.33978 0.0
C206 C 0.65048 0.17561 0.30712 0.0
C207 C 0.64706 0.21923 0.35845 0.0
C208 C 0.63636 0.2134 0.39559 0.0
C209 C 0.64162 0.25447 0.33898 0.0
C210 C 0.62621 0.28358 0.35641 0.0
C211 C 0.61529 0.27764 0.39342 0.0
C212 C 0.74084 0.12891 0.35074 0.0
C213 C 0.74369 0.08846 0.35228 0.0
C214 C 0.76844 0.15413 0.36325 0.0
C215 C 0.79831 0.13925 0.37677 0.0
C216 C 0.80098 0.0988 0.37854 0.0
C217 C 0.77339 0.07355 0.36616 0.0
C218 C 0.62029 0.24227 0.41287 0.0
H219 H 0.63656 0.05148 0.20737 0.0
H220 H 0.66229 0.07343 0.26312 0.0
H221 H 0.63758 0.19084 0.23404 0.0
H222 H 0.60929 0.16809 0.18018 0.0
H223 H 0.70891 0.11119 0.28839 0.0
H224 H 0.62725 0.18704 0.29686 0.0
H225 H 0.70319 0.18297 0.37941 0.0
H226 H 0.64013 0.1864 0.41112 0.0
H227 H 0.64981 0.25972 0.31037 0.0
H228 H 0.62274 0.31076 0.341 0.0
H229 H 0.7228 0.06828 0.343 0.0
H230 H 0.76718 0.18547 0.36205 0.0
H231 H 0.61232 0.2373 0.44154 0.0
H232 H 0.775 0.04229 0.36675 0.0
H233 H 0.81927 0.15933 0.38605 0.0
C234 C 0.23118 0.59551 0.17616 0.0
C235 C 0.22598 0.60114 0.13852 0.0
C236 C 0.26361 0.60757 0.19035 0.0
C237 C 0.29175 0.62497 0.16714 0.0
C238 C 0.2868 0.62915 0.12934 0.0
C239 C 0.25432 0.61771 0.11529 0.0
C240 C 0.32578 0.64016 0.18205 0.0
C241 C 0.34004 0.62043 0.21183 0.0
C242 C 0.37224 0.63525 0.22559 0.0
C243 C 0.39038 0.66997 0.20867 0.0
C244 C 0.37673 0.68968 0.17863 0.0
C245 C 0.34418 0.67499 0.16615 0.0
C246 C 0.39608 0.72559 0.15972 0.0
C247 C 0.4125 0.75551 0.17948 0.0
C248 C 0.39692 0.73077 0.12137 0.0
C249 C 0.41236 0.76564 0.10328 0.0
C250 C 0.42748 0.79607 0.12307 0.0
C251 C 0.38696 0.61465 0.25759 0.0
C252 C 0.36495 0.59766 0.28725 0.0
C253 C 0.42328 0.61267 0.25919 0.0
C254 C 0.43729 0.59509 0.28995 0.0
C255 C 0.41531 0.57861 0.31964 0.0
C256 C 0.37898 0.57977 0.3179 0.0
C257 C 0.42818 0.79045 0.16125 0.0
H258 H 0.21023 0.58169 0.19471 0.0
H259 H 0.26636 0.60394 0.21958 0.0
H260 H 0.30805 0.64148 0.11043 0.0
H261 H 0.25131 0.62233 0.08617 0.0
H262 H 0.32648 0.59305 0.22379 0.0
H263 H 0.33283 0.69131 0.14418 0.0
H264 H 0.41519 0.68171 0.2188 0.0
H265 H 0.41218 0.75247 0.20903 0.0
H266 H 0.38528 0.70792 0.10528 0.0
H267 H 0.4122 0.76899 0.07374 0.0
H268 H 0.33693 0.59911 0.28725 0.0
H269 H 0.441 0.62469 0.23664 0.0
H270 H 0.43983 0.81357 0.17703 0.0
H271 H 0.36152 0.56783 0.3407 0.0
H272 H 0.46538 0.59437 0.29056 0.0
C273 C 0.16114 0.22077 0.66218 0.0
C274 C 0.12704 0.21736 0.6493 0.0
C275 C 0.17398 0.2537 0.67974 0.0
C276 C 0.15301 0.28403 0.68491 0.0
C277 C 0.11836 0.27997 0.67348 0.0
C278 C 0.10552 0.24698 0.65567 0.0
C279 C 0.16843 0.32093 0.69951 0.0
C280 C 0.20112 0.33863 0.68529 0.0
C281 C 0.2168 0.37337 0.69837 0.0
C282 C 0.19889 0.39089 0.72588 0.0
C283 C 0.16591 0.37369 0.74064 0.0
C284 C 0.15092 0.33858 0.72708 0.0
C285 C 0.1474 0.39203 0.77045 0.0
C286 C 0.16632 0.41078 0.79768 0.0
C287 C 0.11061 0.3906 0.77223 0.0
C288 C 0.09327 0.40708 0.80053 0.0
C289 C 0.11224 0.42612 0.82749 0.0
C290 C 0.25176 0.39107 0.68277 0.0
C291 C 0.27773 0.36696 0.67389 0.0
C292 C 0.25913 0.43184 0.67543 0.0
C293 C 0.29139 0.44795 0.65898 0.0
C294 C 0.31678 0.42362 0.64924 0.0
C295 C 0.30979 0.38303 0.65718 0.0
C296 C 0.14899 0.42773 0.82568 0.0
H297 H 0.17816 0.19818 0.6581 0.0
H298 H 0.20064 0.25582 0.6887 0.0
H299 H 0.10174 0.30307 0.67686 0.0
H300 H 0.07929 0.24541 0.64561 0.0
H301 H 0.21405 0.32562 0.66319 0.0
H302 H 0.12606 0.32427 0.73858 0.0
H303 H 0.21072 0.41792 0.73581 0.0
H304 H 0.19458 0.41191 0.7978 0.0
H305 H 0.09505 0.37684 0.75167 0.0
H306 H 0.0649 0.40431 0.80155 0.0
H307 H 0.27333 0.33553 0.6799 0.0
H308 H 0.23967 0.45126 0.68153 0.0
H309 H 0.16444 0.44213 0.84599 0.0
H310 H 0.32926 0.36374 0.6507 0.0
H311 H 0.29624 0.47939 0.65315 0.0
Zn312 Zn 0.05143 0.01407 0.54083 0.0
Zn313 Zn 0.9693 0.98295 0.46851 0.0
C314 C 0.08758 0.0835 0.5646 0.0
O315 O 0.1123 0.07135 0.54402 0.0
C316 C 0.93179 0.91434 0.44467 0.0
O317 O 0.90721 0.92759 0.46461 0.0
O318 O 0.09319 0.98556 0.55418 0.0
O319 O 0.00708 0.98271 0.56127 0.0
O320 O 0.96555 0.96799 0.52229 0.0
C321 C 0.0951 0.96742 0.58525 0.0
O322 O 0.06802 0.9644 0.60855 0.0
O323 O 0.05753 0.06379 0.56717 0.0
C324 C 0.92749 0.03465 0.42661 0.0
O325 O 0.95547 0.04027 0.40445 0.0
O326 O 0.92813 0.01283 0.45588 0.0
O327 O 0.0139 0.01356 0.44836 0.0
O328 O 0.05575 0.02901 0.48686 0.0
O329 O 0.9622 0.93323 0.44222 0.0
C330 C 0.97688 0.9667 0.55435 0.0
C331 C 0.04415 0.02969 0.45488 0.0
Zn332 Zn 0.53451 0.97768 0.9908 0.0
Zn333 Zn 0.48356 0.02299 0.02562 0.0
C334 C 0.49038 0.93114 0.94667 0.0
O335 O 0.5062 0.90448 0.96486 0.0
C336 C 0.53711 0.06629 0.06566 0.0
O337 O 0.52863 0.09603 0.04479 0.0
O338 O 0.57509 0.95214 0.97175 0.0
O339 O 0.55179 0.03514 0.98702 0.0
O340 O 0.49917 0.05063 0.97646 0.0
C341 C 0.58499 0.96261 0.93883 0.0
O342 O 0.5687 0.98907 0.92093 0.0
O343 O 0.49687 0.96668 0.95415 0.0
C344 C 0.43906 0.05295 0.07871 0.0
O345 O 0.462 0.04064 0.10117 0.0
O346 O 0.44299 0.04898 0.04472 0.0
O347 O 0.46593 0.9656 0.02892 0.0
O348 O 0.51844 0.94979 0.03952 0.0
O349 O 0.5223 0.03207 0.0615 0.0
C350 C 0.53216 0.05826 0.97195 0.0
C351 C 0.48542 0.94208 0.04369 0.0
Zn352 Zn 0.51888 0.4638 0.48352 0.0
Zn353 Zn 0.49634 0.53396 0.52528 0.0
C354 C 0.56669 0.49946 0.42904 0.0
O355 O 0.54439 0.47763 0.41065 0.0
C356 C 0.44891 0.49544 0.57976 0.0
O357 O 0.47028 0.51745 0.59901 0.0
O358 O 0.52868 0.41192 0.46409 0.0
O359 O 0.5195 0.45537 0.53829 0.0
O360 O 0.53974 0.51588 0.54789 0.0
C361 C 0.56018 0.40397 0.46644 0.0
O362 O 0.5826 0.42784 0.48273 0.0
O363 O 0.56049 0.50135 0.46312 0.0
C364 C 0.4543 0.59215 0.54477 0.0
O365 O 0.43178 0.56829 0.5286 0.0
O366 O 0.48613 0.58514 0.54579 0.0
O367 O 0.49429 0.54269 0.4704 0.0
O368 O 0.47573 0.48171 0.46078 0.0
O369 O 0.45529 0.49552 0.5455 0.0
C370 C 0.53637 0.47948 0.55769 0.0
C371 C 0.47716 0.51815 0.45155 0.0
Zn372 Zn 0.96112 0.50023 0.97334 0.0
Zn373 Zn 0.05018 0.50041 0.03315 0.0
C374 C 0.92036 0.45546 0.92666 0.0
O375 O 0.94556 0.47296 0.90428 0.0
C376 C 0.09247 0.54648 0.07921 0.0
O377 O 0.06634 0.53322 0.10235 0.0
O378 O 0.94796 0.54803 0.94612 0.0
O379 O 0.95635 0.51083 0.02664 0.0
O380 O 0.00567 0.51507 0.05668 0.0
C381 C 0.95049 0.58234 0.95701 0.0
O382 O 0.96628 0.58944 0.98738 0.0
O383 O 0.9219 0.46042 0.9606 0.0
C384 C 0.09089 0.44086 0.04962 0.0
O385 O 0.11008 0.46284 0.02413 0.0
O386 O 0.06113 0.45068 0.05913 0.0
O387 O 0.05481 0.49028 0.97987 0.0
O388 O 0.00611 0.48773 0.94911 0.0
O389 O 0.0906 0.53855 0.04598 0.0
C390 C 0.97299 0.51756 0.05525 0.0
C391 C 0.03871 0.48497 0.95073 0.0
C392 C 0.07996 0.05778 0.35817 0.0
C393 C 0.10819 0.0863 0.36283 0.0
C394 C 0.05953 0.03966 0.38811 0.0
C395 C 0.06663 0.04923 0.42395 0.0
H396 H 0.07363 0.0493 0.33111 0.0
H397 H 0.0381 0.01781 0.38305 0.0
S398 S 0.13685 0.1234 0.45064 0.0
N399 N 0.14166 0.12431 0.40573 0.0
N400 N 0.10353 0.08988 0.46226 0.0
C401 C 0.09492 0.07767 0.42901 0.0
C402 C 0.11565 0.09627 0.39841 0.0
C403 C 0.42977 0.93947 0.86716 0.0
C404 C 0.42996 0.90293 0.85229 0.0
C405 C 0.44879 0.94817 0.89816 0.0
C406 C 0.46824 0.92042 0.91565 0.0
H407 H 0.4157 0.96183 0.85411 0.0
H408 H 0.44862 0.97705 0.90813 0.0
S409 S 0.47453 0.8192 0.88852 0.0
N410 N 0.44942 0.83819 0.8581 0.0
N411 N 0.48471 0.85394 0.91638 0.0
C412 C 0.46742 0.88322 0.90162 0.0
C413 C 0.44842 0.87465 0.86992 0.0
C414 C 0.59692 0.46601 0.63612 0.0
C415 C 0.58 0.43261 0.6564 0.0
C416 C 0.58219 0.48198 0.60475 0.0
C417 C 0.55023 0.46484 0.59247 0.0
H418 H 0.62222 0.47918 0.64388 0.0
H419 H 0.5965 0.50701 0.58934 0.0
S420 S 0.49292 0.38102 0.63893 0.0
N421 N 0.52754 0.38598 0.66426 0.0
N422 N 0.50039 0.4153 0.60506 0.0
C423 C 0.53235 0.43258 0.6134 0.0
C424 C 0.5471 0.41663 0.64541 0.0
C425 C 0.95435 0.57133 0.13957 0.0
C426 C 0.91861 0.55936 0.14832 0.0
C427 C 0.9718 0.55709 0.10991 0.0
C428 C 0.95414 0.53072 0.08736 0.0
H429 H 0.96894 0.59248 0.15536 0.0
H430 H 0.99917 0.56764 0.10408 0.0
S431 S 0.86141 0.48749 0.09992 0.0
N432 N 0.86693 0.517 0.13334 0.0
N433 N 0.8994 0.49164 0.07673 0.0
C434 C 0.91857 0.51811 0.0959 0.0
C435 C 0.9009 0.53207 0.12652 0.0
C436 C 0.384 0.10944 0.13888 0.0
C437 C 0.35077 0.10432 0.12383 0.0
C438 C 0.41243 0.09273 0.12402 0.0
C439 C 0.40884 0.07088 0.09319 0.0
H440 H 0.38816 0.12668 0.16225 0.0
H441 H 0.43751 0.09732 0.13656 0.0
S442 S 0.32722 0.04662 0.04472 0.0
N443 N 0.31559 0.07371 0.07752 0.0
N444 N 0.36954 0.04375 0.04871 0.0
C445 C 0.37594 0.06556 0.07772 0.0
C446 C 0.34678 0.08195 0.09324 0.0
C447 C 0.15859 0.90971 0.63764 0.0
C448 C 0.1915 0.92408 0.621 0.0
C449 C 0.12762 0.92351 0.62559 0.0
C450 C 0.12818 0.95204 0.59619 0.0
H451 H 0.15669 0.8874 0.6601 0.0
H452 H 0.10302 0.91161 0.63945 0.0
S453 S 0.20765 0.00082 0.54441 0.0
N454 N 0.22282 0.9698 0.57454 0.0
N455 N 0.16465 0.99502 0.55131 0.0
C456 C 0.16088 0.96661 0.57918 0.0
C457 C 0.19248 0.95281 0.5917 0.0
C458 C 0.82437 0.4225 0.91422 0.0
C459 C 0.82479 0.40786 0.87943 0.0
C460 C 0.8556 0.43607 0.93019 0.0
C461 C 0.88828 0.4361 0.9116 0.0
H462 H 0.79968 0.42359 0.92913 0.0
H463 H 0.85398 0.44791 0.9567 0.0
S464 S 0.9034 0.39985 0.82011 0.0
N465 N 0.86041 0.39314 0.82726 0.0
N466 N 0.91913 0.41916 0.8569 0.0
C467 C 0.88901 0.42091 0.877 0.0
C468 C 0.85726 0.40664 0.86101 0.0
C469 C 0.65014 0.56835 0.40714 0.0
C470 C 0.66591 0.5515 0.37771 0.0
C471 C 0.618 0.55148 0.42367 0.0
C472 C 0.60029 0.5174 0.41111 0.0
H473 H 0.66264 0.59493 0.41736 0.0
H474 H 0.6068 0.56542 0.4462 0.0
S475 S 0.63199 0.45969 0.33734 0.0
N476 N 0.66249 0.49719 0.33855 0.0
N477 N 0.6019 0.46601 0.36895 0.0
C478 C 0.61594 0.50002 0.38199 0.0
C479 C 0.64876 0.51695 0.36544 0.0
C480 C 0.10382 0.36082 0.12227 0.0
C481 C 0.13361 0.34524 0.10869 0.0
C482 C 0.08971 0.39124 0.10263 0.0
C483 C 0.10495 0.40717 0.06873 0.0
H484 H 0.09167 0.34987 0.14858 0.0
H485 H 0.06713 0.40282 0.11451 0.0
S486 S 0.18135 0.37389 0.01976 0.0
N487 N 0.17646 0.3459 0.05831 0.0
N488 N 0.15026 0.40336 0.0214 0.0
C489 C 0.13429 0.39115 0.05445 0.0
C490 C 0.14857 0.36014 0.07445 0.0
C491 C 0.5438 0.14499 0.90126 0.0
C492 C 0.57769 0.16267 0.90727 0.0
C493 C 0.52902 0.11149 0.92261 0.0
C494 C 0.54769 0.09434 0.95056 0.0
H495 H 0.52883 0.15673 0.87949 0.0
H496 H 0.50306 0.09851 0.9167 0.0
S497 S 0.63566 0.13192 0.98003 0.0
N498 N 0.6282 0.16248 0.94531 0.0
N499 N 0.60081 0.09915 0.9848 0.0
C500 C 0.58125 0.11226 0.9574 0.0
C501 C 0.59614 0.1465 0.93592 0.0
C502 C 0.88152 0.82235 0.41359 0.0
C503 C 0.90311 0.81168 0.38504 0.0
C504 C 0.8914 0.85512 0.43295 0.0
C505 C 0.92337 0.87865 0.42469 0.0
H506 H 0.85663 0.80522 0.42104 0.0
H507 H 0.87361 0.8621 0.45449 0.0
S508 S 0.98945 0.86336 0.35225 0.0
N509 N 0.95792 0.82721 0.34931 0.0
N510 N 0.97686 0.88868 0.38601 0.0
C511 C 0.94559 0.86794 0.3966 0.0
C512 C 0.9354 0.8345 0.37674 0.0
C513 C 0.44602 0.69235 0.57937 0.0
C514 C 0.41469 0.68587 0.60126 0.0
C515 C 0.45936 0.66174 0.56179 0.0
C516 C 0.44148 0.62379 0.56494 0.0
H517 H 0.46002 0.72145 0.57516 0.0
H518 H 0.48322 0.66804 0.54482 0.0
S519 S 0.36115 0.58987 0.62229 0.0
N520 N 0.36844 0.63719 0.62798 0.0
N521 N 0.39262 0.58043 0.59351 0.0
C522 C 0.41074 0.6166 0.58731 0.0
C523 C 0.39754 0.64744 0.6058 0.0
C524 C 0.93913 0.93916 0.65053 0.0
C525 C 0.90911 0.91347 0.64506 0.0
C526 C 0.96111 0.95572 0.62107 0.0
C527 C 0.95371 0.94747 0.58495 0.0
H528 H 0.9459 0.94622 0.67788 0.0
H529 H 0.98386 0.97549 0.62673 0.0
S530 S 0.87795 0.88174 0.55632 0.0
N531 N 0.87282 0.88043 0.60122 0.0
N532 N 0.91417 0.91131 0.5456 0.0
C533 C 0.92368 0.92164 0.57918 0.0
C534 C 0.90141 0.90466 0.60929 0.0
C535 C 0.60502 0.1173 0.12387 0.0
C536 C 0.60134 0.09411 0.15719 0.0
C537 C 0.58497 0.10735 0.09405 0.0
C538 C 0.56074 0.07351 0.09609 0.0
H539 H 0.62316 0.14382 0.12098 0.0
H540 H 0.58815 0.12668 0.06933 0.0
S541 S 0.54127 0.00236 0.17666 0.0
N542 N 0.57138 0.03556 0.19025 0.0
N543 N 0.53473 0.01614 0.13376 0.0
C544 C 0.55768 0.04919 0.12868 0.0
C545 C 0.57773 0.05964 0.1593 0.0
C546 C 0.45691 0.58483 0.37018 0.0
C547 C 0.4306 0.56205 0.35303 0.0
C548 C 0.47155 0.57038 0.40204 0.0
C549 C 0.46081 0.53232 0.41783 0.0
H550 H 0.46597 0.61432 0.35911 0.0
H551 H 0.49168 0.58921 0.41419 0.0
S552 S 0.3931 0.4606 0.38285 0.0
N553 N 0.39453 0.49951 0.35371 0.0
N554 N 0.42221 0.47201 0.4135 0.0
C555 C 0.43465 0.50907 0.40072 0.0
C556 C 0.41947 0.52404 0.36842 0.0
C557 C 0.10444 0.43667 0.89419 0.0
C558 C 0.09383 0.44305 0.85817 0.0
C559 C 0.08703 0.45115 0.92374 0.0
C560 C 0.05803 0.47235 0.9186 0.0
H561 H 0.12594 0.41954 0.8998 0.0
H562 H 0.09581 0.44469 0.95095 0.0
S563 S 0.02171 0.5004 0.82955 0.0
N564 N 0.05403 0.47474 0.81886 0.0
N565 N 0.02081 0.50109 0.87446 0.0
C566 C 0.04755 0.47968 0.8827 0.0
C567 C 0.06552 0.46525 0.85252 0.0
C568 C 0.6587 0.89947 0.92441 0.0
C569 C 0.67051 0.91047 0.88817 0.0
C570 C 0.63104 0.91649 0.94054 0.0
C571 C 0.61405 0.94499 0.92093 0.0
H572 H 0.67132 0.87801 0.94062 0.0
H573 H 0.62307 0.90728 0.96866 0.0
S574 S 0.63399 0.98187 0.82415 0.0
N575 N 0.66241 0.95004 0.83249 0.0
N576 N 0.61049 0.9823 0.8626 0.0
C577 C 0.62534 0.95572 0.88435 0.0
C578 C 0.65356 0.93841 0.86804 0.0
C579 C 0.86615 0.09792 0.37712 0.0
C580 C 0.8329 0.08307 0.39243 0.0
C581 C 0.89656 0.08238 0.38864 0.0
C582 C 0.89497 0.05175 0.41632 0.0
H583 H 0.86861 0.12119 0.35548 0.0
H584 H 0.92149 0.09442 0.37558 0.0
S585 S 0.81411 0.00393 0.46639 0.0
N586 N 0.8001 0.03697 0.4374 0.0
N587 N 0.85709 0.00788 0.45939 0.0
C588 C 0.86184 0.03726 0.43244 0.0
C589 C 0.83087 0.05283 0.42037 0.0
C590 C 0.18993 0.56943 0.09078 0.0
C591 C 0.19142 0.58919 0.12312 0.0
C592 C 0.15783 0.55722 0.0759 0.0
C593 C 0.12591 0.56386 0.09302 0.0
H594 H 0.21374 0.56246 0.07722 0.0
H595 H 0.15805 0.54118 0.05154 0.0
S596 S 0.1152 0.61756 0.17613 0.0
N597 N 0.15801 0.61771 0.17002 0.0
N598 N 0.09764 0.5934 0.14275 0.0
C599 C 0.12692 0.58431 0.12486 0.0
C600 C 0.15965 0.59726 0.13976 0.0
C601 C 0.37133 0.47053 0.64725 0.0
C602 C 0.3507 0.44066 0.63121 0.0
C603 C 0.40342 0.48723 0.63078 0.0
C604 C 0.41588 0.4752 0.59728 0.0
H605 H 0.36266 0.48094 0.67286 0.0
H606 H 0.41817 0.51039 0.64415 0.0
S607 S 0.37145 0.39801 0.54402 0.0
N608 N 0.34482 0.3995 0.5801 0.0
N609 N 0.40503 0.43125 0.54881 0.0
C610 C 0.39549 0.44526 0.58096 0.0
C611 C 0.36297 0.42789 0.59802 0.0
C612 C 0.92389 0.68184 0.92593 0.0
C613 C 0.89734 0.67239 0.90159 0.0
C614 C 0.94121 0.65259 0.94356 0.0
C615 C 0.93272 0.6129 0.93729 0.0
H616 H 0.93159 0.71211 0.93111 0.0
H617 H 0.96152 0.66119 0.96206 0.0
S618 S 0.86321 0.5727 0.87794 0.0
N619 N 0.86196 0.62056 0.87367 0.0
N620 N 0.89481 0.56559 0.90607 0.0
C621 C 0.90596 0.60308 0.91316 0.0
C622 C 0.8882 0.63282 0.8955 0.0
C623 C 0.47642 0.84952 0.10755 0.0
C624 C 0.44151 0.83396 0.10371 0.0
C625 C 0.49044 0.8845 0.08801 0.0
C626 C 0.46987 0.90543 0.06436 0.0
H627 H 0.49316 0.83414 0.12524 0.0
H628 H 0.51758 0.89523 0.09155 0.0
S629 S 0.37628 0.87752 0.04628 0.0
N630 N 0.38633 0.84238 0.07558 0.0
N631 N 0.4124 0.90812 0.03898 0.0
C632 C 0.43466 0.89041 0.0609 0.0
C633 C 0.42056 0.85467 0.08052 0.0
C634 C 0.13725 0.17418 0.59889 0.0
C635 C 0.11517 0.18401 0.62741 0.0
C636 C 0.1277 0.14216 0.57845 0.0
C637 C 0.09559 0.11855 0.58558 0.0
H638 H 0.16226 0.19143 0.59228 0.0
H639 H 0.14586 0.13581 0.55699 0.0
S640 S 0.02828 0.13183 0.65749 0.0
N641 N 0.05975 0.16767 0.66188 0.0
N642 N 0.04145 0.10755 0.62323 0.0
C643 C 0.07291 0.12842 0.61368 0.0
C644 C 0.08276 0.16112 0.6346 0.0
C645 C 0.62076 0.34508 0.41485 0.0
C646 C 0.60023 0.3092 0.41201 0.0
C647 C 0.60749 0.37535 0.43274 0.0
C648 C 0.57293 0.37115 0.44777 0.0
H649 H 0.64744 0.3496 0.40351 0.0
H650 H 0.62435 0.40248 0.43439 0.0
S651 S 0.50828 0.28314 0.44656 0.0
N652 N 0.54373 0.271 0.42529 0.0
N653 N 0.5183 0.32845 0.45811 0.0
C654 C 0.55191 0.33561 0.44454 0.0
C655 C 0.56572 0.30445 0.42693 0.0
loop_
_geom_bond_atom_site_label_1
_geom_bond_atom_site_label_2
_geom_bond_distance
_geom_bond_site_symmetry_2
_ccdc_geom_bond_type
C0 C1 1.386 . S
C0 C2 1.397 . S
C0 H24 0.931 . S
C1 C0 1.386 . S
C1 C5 1.397 . S
C2 C0 1.397 . S
C2 C3 1.384 . S
C2 H25 0.930 . S
C3 C2 1.384 . S
C3 C4 1.377 . S
C3 C6 1.481 . S
C4 C3 1.377 . S
C4 C5 1.389 . S
C4 H26 0.929 . S
C5 C1 1.397 . S
C5 C4 1.389 . S
C5 H27 0.931 . S
C6 C3 1.481 . S
C6 C7 1.387 . S
C6 C11 1.390 . S
C7 C6 1.387 . S
C7 C8 1.401 . S
C7 H28 0.930 . S
C8 C7 1.401 . S
C8 C9 1.376 . S
C8 C17 1.511 . S
C9 C8 1.376 . S
C9 C10 1.392 . S
C9 H30 0.931 . S
C10 C9 1.392 . S
C10 C11 1.361 . S
C10 C12 1.500 . S
C11 C6 1.390 . S
C11 C10 1.361 . S
C11 H29 0.931 . S
C12 C10 1.500 . S
C12 C13 1.371 . S
C12 C14 1.365 . S
C13 C12 1.371 . S
C13 C23 1.386 . S
C13 H31 0.931 . S
C14 C12 1.365 . S
C14 C15 1.409 . S
C14 H32 0.929 . S
C15 C14 1.409 . S
C15 C16 1.380 . S
C15 H33 0.930 . S
C16 C15 1.380 . S
C16 C23 1.357 . S
C17 C8 1.511 . S
C17 C18 1.341 . S
C17 C19 1.371 . S
C18 C17 1.341 . S
C18 C22 1.394 . S
C18 H34 0.930 . S
C19 C17 1.371 . S
C19 C20 1.392 . S
C19 H35 0.931 . S
C20 C19 1.392 . S
C20 C21 1.331 . S
C20 H38 0.932 . S
C21 C20 1.331 . S
C21 C22 1.336 . S
C22 C18 1.394 . S
C22 C21 1.336 . S
C22 H37 0.929 . S
C23 C13 1.386 . S
C23 C16 1.357 . S
C23 H36 0.928 . S
H24 C0 0.931 . S
H25 C2 0.930 . S
H26 C4 0.929 . S
H27 C5 0.931 . S
H28 C7 0.930 . S
H29 C11 0.931 . S
H30 C9 0.931 . S
H31 C13 0.931 . S
H32 C14 0.929 . S
H33 C15 0.930 . S
H34 C18 0.930 . S
H35 C19 0.931 . S
H36 C23 0.928 . S
H37 C22 0.929 . S
H38 C20 0.932 . S
C39 C40 1.386 . S
C39 C41 1.397 . S
C39 H63 0.931 . S
C40 C39 1.386 . S
C40 C44 1.397 . S
C41 C39 1.397 . S
C41 C42 1.384 . S
C41 H64 0.930 . S
C42 C41 1.384 . S
C42 C43 1.377 . S
C42 C45 1.481 . S
C43 C42 1.377 . S
C43 C44 1.389 . S
C43 H65 0.929 . S
C44 C40 1.397 . S
C44 C43 1.389 . S
C44 H66 0.931 . S
C45 C42 1.481 . S
C45 C46 1.387 . S
C45 C50 1.390 . S
C46 C45 1.387 . S
C46 C47 1.401 . S
C46 H67 0.930 . S
C47 C46 1.401 . S
C47 C48 1.376 . S
C47 C56 1.511 . S
C48 C47 1.376 . S
C48 C49 1.392 . S
C48 H69 0.931 . S
C49 C48 1.392 . S
C49 C50 1.361 . S
C49 C51 1.500 . S
C50 C45 1.390 . S
C50 C49 1.361 . S
C50 H68 0.931 . S
C51 C49 1.500 . S
C51 C52 1.371 . S
C51 C53 1.365 . S
C52 C51 1.371 . S
C52 C62 1.386 . S
C52 H70 0.931 . S
C53 C51 1.365 . S
C53 C54 1.409 . S
C53 H71 0.929 . S
C54 C53 1.409 . S
C54 C55 1.380 . S
C54 H72 0.930 . S
C55 C54 1.380 . S
C55 C62 1.357 . S
C56 C47 1.511 . S
C56 C57 1.341 . S
C56 C58 1.371 . S
C57 C56 1.341 . S
C57 C61 1.394 . S
C57 H73 0.930 . S
C58 C56 1.371 . S
C58 C59 1.392 . S
C58 H74 0.931 . S
C59 C58 1.392 . S
C59 C60 1.331 . S
C59 H77 0.932 . S
C60 C59 1.331 . S
C60 C61 1.336 . S
C61 C57 1.394 . S
C61 C60 1.336 . S
C61 H76 0.929 . S
C62 C52 1.386 . S
C62 C55 1.357 . S
C62 H75 0.928 . S
H63 C39 0.931 . S
H64 C41 0.930 . S
H65 C43 0.929 . S
H66 C44 0.931 . S
H67 C46 0.930 . S
H68 C50 0.931 . S
H69 C48 0.931 . S
H70 C52 0.931 . S
H71 C53 0.929 . S
H72 C54 0.930 . S
H73 C57 0.930 . S
H74 C58 0.931 . S
H75 C62 0.928 . S
H76 C61 0.929 . S
H77 C59 0.932 . S
C78 C79 1.386 . S
C78 C80 1.397 . S
C78 H102 0.931 . S
C79 C78 1.386 . S
C79 C83 1.397 . S
C80 C78 1.397 . S
C80 C81 1.384 . S
C80 H103 0.930 . S
C81 C80 1.384 . S
C81 C82 1.377 . S
C81 C84 1.481 . S
C82 C81 1.377 . S
C82 C83 1.389 . S
C82 H104 0.929 . S
C83 C79 1.397 . S
C83 C82 1.389 . S
C83 H105 0.931 . S
C84 C81 1.481 . S
C84 C85 1.387 . S
C84 C89 1.390 . S
C85 C84 1.387 . S
C85 C86 1.401 . S
C85 H106 0.930 . S
C86 C85 1.401 . S
C86 C87 1.376 . S
C86 C95 1.511 . S
C87 C86 1.376 . S
C87 C88 1.392 . S
C87 H108 0.931 . S
C88 C87 1.392 . S
C88 C89 1.361 . S
C88 C90 1.500 . S
C89 C84 1.390 . S
C89 C88 1.361 . S
C89 H107 0.931 . S
C90 C88 1.500 . S
C90 C91 1.371 . S
C90 C92 1.365 . S
C91 C90 1.371 . S
C91 C101 1.386 . S
C91 H109 0.931 . S
C92 C90 1.365 . S
C92 C93 1.409 . S
C92 H110 0.929 . S
C93 C92 1.409 . S
C93 C94 1.380 . S
C93 H111 0.930 . S
C94 C93 1.380 . S
C94 C101 1.357 . S
C95 C86 1.511 . S
C95 C96 1.341 . S
C95 C97 1.371 . S
C96 C95 1.341 . S
C96 C100 1.394 . S
C96 H112 0.930 . S
C97 C95 1.371 . S
C97 C98 1.392 . S
C97 H113 0.931 . S
C98 C97 1.392 . S
C98 C99 1.331 . S
C98 H116 0.932 . S
C99 C98 1.331 . S
C99 C100 1.336 . S
C100 C96 1.394 . S
C100 C99 1.336 . S
C100 H115 0.929 . S
C101 C91 1.386 . S
C101 C94 1.357 . S
C101 H114 0.928 . S
H102 C78 0.931 . S
H103 C80 0.930 . S
H104 C82 0.929 . S
H105 C83 0.931 . S
H106 C85 0.930 . S
H107 C89 0.931 . S
H108 C87 0.931 . S
H109 C91 0.931 . S
H110 C92 0.929 . S
H111 C93 0.930 . S
H112 C96 0.930 . S
H113 C97 0.931 . S
H114 C101 0.928 . S
H115 C100 0.929 . S
H116 C98 0.932 . S
C117 C118 1.386 . S
C117 C119 1.397 . S
C117 H141 0.931 . S
C118 C117 1.386 . S
C118 C122 1.397 . S
C119 C117 1.397 . S
C119 C120 1.384 . S
C119 H142 0.930 . S
C120 C119 1.384 . S
C120 C121 1.377 . S
C120 C123 1.481 . S
C121 C120 1.377 . S
C121 C122 1.389 . S
C121 H143 0.929 . S
C122 C118 1.397 . S
C122 C121 1.389 . S
C122 H144 0.931 . S
C123 C120 1.481 . S
C123 C124 1.387 . S
C123 C128 1.390 . S
C124 C123 1.387 . S
C124 C125 1.401 . S
C124 H145 0.930 . S
C125 C124 1.401 . S
C125 C126 1.376 . S
C125 C134 1.511 . S
C126 C125 1.376 . S
C126 C127 1.392 . S
C126 H147 0.931 . S
C127 C126 1.392 . S
C127 C128 1.361 . S
C127 C129 1.500 . S
C128 C123 1.390 . S
C128 C127 1.361 . S
C128 H146 0.931 . S
C129 C127 1.500 . S
C129 C130 1.371 . S
C129 C131 1.365 . S
C130 C129 1.371 . S
C130 C140 1.386 . S
C130 H148 0.931 . S
C131 C129 1.365 . S
C131 C132 1.409 . S
C131 H149 0.929 . S
C132 C131 1.409 . S
C132 C133 1.380 . S
C132 H150 0.930 . S
C133 C132 1.380 . S
C133 C140 1.357 . S
C134 C125 1.511 . S
C134 C135 1.341 . S
C134 C136 1.371 . S
C135 C134 1.341 . S
C135 C139 1.394 . S
C135 H151 0.930 . S
C136 C134 1.371 . S
C136 C137 1.392 . S
C136 H152 0.931 . S
C137 C136 1.392 . S
C137 C138 1.331 . S
C137 H155 0.932 . S
C138 C137 1.331 . S
C138 C139 1.336 . S
C139 C135 1.394 . S
C139 C138 1.336 . S
C139 H154 0.929 . S
C140 C130 1.386 . S
C140 C133 1.357 . S
C140 H153 0.928 . S
H141 C117 0.931 . S
H142 C119 0.930 . S
H143 C121 0.929 . S
H144 C122 0.931 . S
H145 C124 0.930 . S
H146 C128 0.931 . S
H147 C126 0.931 . S
H148 C130 0.931 . S
H149 C131 0.929 . S
H150 C132 0.930 . S
H151 C135 0.930 . S
H152 C136 0.931 . S
H153 C140 0.928 . S
H154 C139 0.929 . S
H155 C137 0.932 . S
C156 C157 1.386 . S
C156 C158 1.397 . S
C156 H180 0.931 . S
C157 C156 1.386 . S
C157 C161 1.397 . S
C158 C156 1.397 . S
C158 C159 1.384 . S
C158 H181 0.930 . S
C159 C158 1.384 . S
C159 C160 1.377 . S
C159 C162 1.481 . S
C160 C159 1.377 . S
C160 C161 1.389 . S
C160 H182 0.929 . S
C161 C157 1.397 . S
C161 C160 1.389 . S
C161 H183 0.931 . S
C162 C159 1.481 . S
C162 C163 1.387 . S
C162 C167 1.390 . S
C163 C162 1.387 . S
C163 C164 1.401 . S
C163 H184 0.930 . S
C164 C163 1.401 . S
C164 C165 1.376 . S
C164 C173 1.511 . S
C165 C164 1.376 . S
C165 C166 1.392 . S
C165 H186 0.931 . S
C166 C165 1.392 . S
C166 C167 1.361 . S
C166 C168 1.500 . S
C167 C162 1.390 . S
C167 C166 1.361 . S
C167 H185 0.931 . S
C168 C166 1.500 . S
C168 C169 1.371 . S
C168 C170 1.365 . S
C169 C168 1.371 . S
C169 C179 1.386 . S
C169 H187 0.931 . S
C170 C168 1.365 . S
C170 C171 1.409 . S
C170 H188 0.929 . S
C171 C170 1.409 . S
C171 C172 1.380 . S
C171 H189 0.930 . S
C172 C171 1.380 . S
C172 C179 1.357 . S
C173 C164 1.511 . S
C173 C174 1.341 . S
C173 C175 1.371 . S
C174 C173 1.341 . S
C174 C178 1.394 . S
C174 H190 0.930 . S
C175 C173 1.371 . S
C175 C176 1.392 . S
C175 H191 0.931 . S
C176 C175 1.392 . S
C176 C177 1.331 . S
C176 H194 0.932 . S
C177 C176 1.331 . S
C177 C178 1.336 . S
C178 C174 1.394 . S
C178 C177 1.336 . S
C178 H193 0.929 . S
C179 C169 1.386 . S
C179 C172 1.357 . S
C179 H192 0.928 . S
H180 C156 0.931 . S
H181 C158 0.930 . S
H182 C160 0.929 . S
H183 C161 0.931 . S
H184 C163 0.930 . S
H185 C167 0.931 . S
H186 C165 0.931 . S
H187 C169 0.931 . S
H188 C170 0.929 . S
H189 C171 0.930 . S
H190 C174 0.930 . S
H191 C175 0.931 . S
H192 C179 0.928 . S
H193 C178 0.929 . S
H194 C176 0.932 . S
C195 C196 1.386 . S
C195 C197 1.397 . S
C195 H219 0.931 . S
C196 C195 1.386 . S
C196 C200 1.397 . S
C197 C195 1.397 . S
C197 C198 1.384 . S
C197 H220 0.930 . S
C198 C197 1.384 . S
C198 C199 1.377 . S
C198 C201 1.481 . S
C199 C198 1.377 . S
C199 C200 1.389 . S
C199 H221 0.929 . S
C200 C196 1.397 . S
C200 C199 1.389 . S
C200 H222 0.931 . S
C201 C198 1.481 . S
C201 C202 1.387 . S
C201 C206 1.390 . S
C202 C201 1.387 . S
C202 C203 1.401 . S
C202 H223 0.930 . S
C203 C202 1.401 . S
C203 C204 1.376 . S
C203 C212 1.511 . S
C204 C203 1.376 . S
C204 C205 1.392 . S
C204 H225 0.931 . S
C205 C204 1.392 . S
C205 C206 1.361 . S
C205 C207 1.500 . S
C206 C201 1.390 . S
C206 C205 1.361 . S
C206 H224 0.931 . S
C207 C205 1.500 . S
C207 C208 1.371 . S
C207 C209 1.365 . S
C208 C207 1.371 . S
C208 C218 1.386 . S
C208 H226 0.931 . S
C209 C207 1.365 . S
C209 C210 1.409 . S
C209 H227 0.929 . S
C210 C209 1.409 . S
C210 C211 1.380 . S
C210 H228 0.930 . S
C211 C210 1.380 . S
C211 C218 1.357 . S
C212 C203 1.511 . S
C212 C213 1.341 . S
C212 C214 1.371 . S
C213 C212 1.341 . S
C213 C217 1.394 . S
C213 H229 0.930 . S
C214 C212 1.371 . S
C214 C215 1.392 . S
C214 H230 0.931 . S
C215 C214 1.392 . S
C215 C216 1.331 . S
C215 H233 0.932 . S
C216 C215 1.331 . S
C216 C217 1.336 . S
C217 C213 1.394 . S
C217 C216 1.336 . S
C217 H232 0.929 . S
C218 C208 1.386 . S
C218 C211 1.357 . S
C218 H231 0.928 . S
H219 C195 0.931 . S
H220 C197 0.930 . S
H221 C199 0.929 . S
H222 C200 0.931 . S
H223 C202 0.930 . S
H224 C206 0.931 . S
H225 C204 0.931 . S
H226 C208 0.931 . S
H227 C209 0.929 . S
H228 C210 0.930 . S
H229 C213 0.930 . S
H230 C214 0.931 . S
H231 C218 0.928 . S
H232 C217 0.929 . S
H233 C215 0.932 . S
C234 C235 1.386 . S
C234 C236 1.397 . S
C234 H258 0.931 . S
C235 C234 1.386 . S
C235 C239 1.397 . S
C236 C234 1.397 . S
C236 C237 1.384 . S
C236 H259 0.930 . S
C237 C236 1.384 . S
C237 C238 1.377 . S
C237 C240 1.481 . S
C238 C237 1.377 . S
C238 C239 1.389 . S
C238 H260 0.929 . S
C239 C235 1.397 . S
C239 C238 1.389 . S
C239 H261 0.931 . S
C240 C237 1.481 . S
C240 C241 1.387 . S
C240 C245 1.390 . S
C241 C240 1.387 . S
C241 C242 1.401 . S
C241 H262 0.930 . S
C242 C241 1.401 . S
C242 C243 1.376 . S
C242 C251 1.511 . S
C243 C242 1.376 . S
C243 C244 1.392 . S
C243 H264 0.931 . S
C244 C243 1.392 . S
C244 C245 1.361 . S
C244 C246 1.500 . S
C245 C240 1.390 . S
C245 C244 1.361 . S
C245 H263 0.931 . S
C246 C244 1.500 . S
C246 C247 1.371 . S
C246 C248 1.365 . S
C247 C246 1.371 . S
C247 C257 1.386 . S
C247 H265 0.931 . S
C248 C246 1.365 . S
C248 C249 1.409 . S
C248 H266 0.929 . S
C249 C248 1.409 . S
C249 C250 1.380 . S
C249 H267 0.930 . S
C250 C249 1.380 . S
C250 C257 1.357 . S
C251 C242 1.511 . S
C251 C252 1.341 . S
C251 C253 1.371 . S
C252 C251 1.341 . S
C252 C256 1.394 . S
C252 H268 0.930 . S
C253 C251 1.371 . S
C253 C254 1.392 . S
C253 H269 0.931 . S
C254 C253 1.392 . S
C254 C255 1.331 . S
C254 H272 0.932 . S
C255 C254 1.331 . S
C255 C256 1.336 . S
C256 C252 1.394 . S
C256 C255 1.336 . S
C256 H271 0.929 . S
C257 C247 1.386 . S
C257 C250 1.357 . S
C257 H270 0.928 . S
H258 C234 0.931 . S
H259 C236 0.930 . S
H260 C238 0.929 . S
H261 C239 0.931 . S
H262 C241 0.930 . S
H263 C245 0.931 . S
H264 C243 0.931 . S
H265 C247 0.931 . S
H266 C248 0.929 . S
H267 C249 0.930 . S
H268 C252 0.930 . S
H269 C253 0.931 . S
H270 C257 0.928 . S
H271 C256 0.929 . S
H272 C254 0.932 . S
C273 C274 1.386 . S
C273 C275 1.397 . S
C273 H297 0.931 . S
C274 C273 1.386 . S
C274 C278 1.397 . S
C275 C273 1.397 . S
C275 C276 1.384 . S
C275 H298 0.930 . S
C276 C275 1.384 . S
C276 C277 1.377 . S
C276 C279 1.481 . S
C277 C276 1.377 . S
C277 C278 1.389 . S
C277 H299 0.929 . S
C278 C274 1.397 . S
C278 C277 1.389 . S
C278 H300 0.931 . S
C279 C276 1.481 . S
C279 C280 1.387 . S
C279 C284 1.390 . S
C280 C279 1.387 . S
C280 C281 1.401 . S
C280 H301 0.930 . S
C281 C280 1.401 . S
C281 C282 1.376 . S
C281 C290 1.511 . S
C282 C281 1.376 . S
C282 C283 1.392 . S
C282 H303 0.931 . S
C283 C282 1.392 . S
C283 C284 1.361 . S
C283 C285 1.500 . S
C284 C279 1.390 . S
C284 C283 1.361 . S
C284 H302 0.931 . S
C285 C283 1.500 . S
C285 C286 1.371 . S
C285 C287 1.365 . S
C286 C285 1.371 . S
C286 C296 1.386 . S
C286 H304 0.931 . S
C287 C285 1.365 . S
C287 C288 1.409 . S
C287 H305 0.929 . S
C288 C287 1.409 . S
C288 C289 1.380 . S
C288 H306 0.930 . S
C289 C288 1.380 . S
C289 C296 1.357 . S
C290 C281 1.511 . S
C290 C291 1.341 . S
C290 C292 1.371 . S
C291 C290 1.341 . S
C291 C295 1.394 . S
C291 H307 0.930 . S
C292 C290 1.371 . S
C292 C293 1.392 . S
C292 H308 0.931 . S
C293 C292 1.392 . S
C293 C294 1.331 . S
C293 H311 0.932 . S
C294 C293 1.331 . S
C294 C295 1.336 . S
C295 C291 1.394 . S
C295 C294 1.336 . S
C295 H310 0.929 . S
C296 C286 1.386 . S
C296 C289 1.357 . S
C296 H309 0.928 . S
H297 C273 0.931 . S
H298 C275 0.930 . S
H299 C277 0.929 . S
H300 C278 0.931 . S
H301 C280 0.930 . S
H302 C284 0.931 . S
H303 C282 0.931 . S
H304 C286 0.931 . S
H305 C287 0.929 . S
H306 C288 0.930 . S
H307 C291 0.930 . S
H308 C292 0.931 . S
H309 C296 0.928 . S
H310 C295 0.929 . S
H311 C293 0.932 . S
Zn312 O318 1.969 1_545 S
Zn312 O319 1.965 1_545 S
Zn312 O323 2.024 . S
Zn312 O328 1.969 . S
Zn313 O320 1.969 . S
Zn313 O326 1.969 1_565 S
Zn313 O327 1.965 1_665 S
Zn313 O329 2.024 . S
C314 O315 1.229 . S
C314 O323 1.058 . S
O315 C314 1.229 . S
C316 O317 1.229 . S
C316 O329 1.058 . S
O317 C316 1.229 . S
O318 Zn312 1.969 1_565 S
O318 C321 1.267 . S
O319 Zn312 1.965 1_565 S
O319 C330 1.260 1_455 S
O320 Zn313 1.969 . S
O320 C330 1.258 . S
C321 O318 1.267 . S
C321 O322 1.228 . S
O322 C321 1.228 . S
O323 Zn312 2.024 . S
O323 C314 1.058 . S
C324 O325 1.228 . S
C324 O326 1.267 . S
O325 C324 1.228 . S
O326 Zn313 1.969 1_545 S
O326 C324 1.267 . S
O327 Zn313 1.965 1_445 S
O327 C331 1.260 . S
O328 Zn312 1.969 . S
O328 C331 1.258 . S
O329 Zn313 2.024 . S
O329 C316 1.058 . S
C330 O319 1.260 1_655 S
C330 O320 1.258 . S
C331 O327 1.260 . S
C331 O328 1.258 . S
Zn332 O338 1.969 . S
Zn332 O339 1.965 1_565 S
Zn332 O343 2.024 . S
Zn332 O348 1.969 1_556 S
Zn333 O340 1.969 . S
Zn333 O346 1.969 . S
Zn333 O347 1.965 1_545 S
Zn333 O349 2.024 . S
C334 O335 1.229 . S
C334 O343 1.058 . S
O335 C334 1.229 . S
C336 O337 1.229 . S
C336 O349 1.058 . S
O337 C336 1.229 . S
O338 Zn332 1.969 . S
O338 C341 1.267 . S
O339 Zn332 1.965 1_545 S
O339 C350 1.260 . S
O340 Zn333 1.969 . S
O340 C350 1.258 1_554 S
C341 O338 1.267 . S
C341 O342 1.228 . S
O342 C341 1.228 . S
O343 Zn332 2.024 . S
O343 C334 1.058 . S
C344 O345 1.228 . S
C344 O346 1.267 . S
O345 C344 1.228 . S
O346 Zn333 1.969 . S
O346 C344 1.267 . S
O347 Zn333 1.965 1_565 S
O347 C351 1.260 . S
O348 Zn332 1.969 1_554 S
O348 C351 1.258 . S
O349 Zn333 2.024 . S
O349 C336 1.058 . S
C350 O339 1.260 . S
C350 O340 1.258 1_556 S
C351 O347 1.260 . S
C351 O348 1.258 . S
Zn352 O358 1.969 . S
Zn352 O359 1.965 . S
Zn352 O363 2.024 . S
Zn352 O368 1.969 . S
Zn353 O360 1.969 . S
Zn353 O366 1.969 . S
Zn353 O367 1.965 . S
Zn353 O369 2.024 . S
C354 O355 1.229 . S
C354 O363 1.058 . S
O355 C354 1.229 . S
C356 O357 1.229 . S
C356 O369 1.058 . S
O357 C356 1.229 . S
O358 Zn352 1.969 . S
O358 C361 1.267 . S
O359 Zn352 1.965 . S
O359 C370 1.260 . S
O360 Zn353 1.969 . S
O360 C370 1.258 . S
C361 O358 1.267 . S
C361 O362 1.228 . S
O362 C361 1.228 . S
O363 Zn352 2.024 . S
O363 C354 1.058 . S
C364 O365 1.228 . S
C364 O366 1.267 . S
O365 C364 1.228 . S
O366 Zn353 1.969 . S
O366 C364 1.267 . S
O367 Zn353 1.965 . S
O367 C371 1.260 . S
O368 Zn352 1.969 . S
O368 C371 1.258 . S
O369 Zn353 2.024 . S
O369 C356 1.058 . S
C370 O359 1.260 . S
C370 O360 1.258 . S
C371 O367 1.260 . S
C371 O368 1.258 . S
Zn372 O378 1.969 . S
Zn372 O379 1.965 1_556 S
Zn372 O383 2.024 . S
Zn372 O388 1.969 1_655 S
Zn373 O380 1.969 . S
Zn373 O386 1.969 . S
Zn373 O387 1.965 1_554 S
Zn373 O389 2.024 . S
C374 O375 1.229 . S
C374 O383 1.058 . S
O375 C374 1.229 . S
C376 O377 1.229 . S
C376 O389 1.058 . S
O377 C376 1.229 . S
O378 Zn372 1.969 . S
O378 C381 1.267 . S
O379 Zn372 1.965 1_554 S
O379 C390 1.260 . S
O380 Zn373 1.969 . S
O380 C390 1.258 1_455 S
C381 O378 1.267 . S
C381 O382 1.228 . S
O382 C381 1.228 . S
O383 Zn372 2.024 . S
O383 C374 1.058 . S
C384 O385 1.228 . S
C384 O386 1.267 . S
O385 C384 1.228 . S
O386 Zn373 1.969 . S
O386 C384 1.267 . S
O387 Zn373 1.965 1_556 S
O387 C391 1.260 . S
O388 Zn372 1.969 1_455 S
O388 C391 1.258 . S
O389 Zn373 2.024 . S
O389 C376 1.058 . S
C390 O379 1.260 . S
C390 O380 1.258 1_655 S
C391 O387 1.260 . S
C391 O388 1.258 . S
C392 C393 1.369 . S
C392 C394 1.419 . S
C392 H396 0.930 . S
C393 C392 1.369 . S
C393 C402 1.429 . S
C394 C392 1.419 . S
C394 C395 1.363 . S
C394 H397 0.929 . S
C395 C394 1.363 . S
C395 C401 1.428 . S
H396 C392 0.930 . S
H397 C394 0.929 . S
S398 N399 1.613 . S
S398 N400 1.610 . S
N399 S398 1.613 . S
N399 C402 1.350 . S
N400 S398 1.610 . S
N400 C401 1.351 . S
C401 C395 1.428 . S
C401 N400 1.351 . S
C401 C402 1.434 . S
C402 C393 1.429 . S
C402 N399 1.350 . S
C402 C401 1.434 . S
C403 C404 1.369 . S
C403 C405 1.419 . S
C403 H407 0.930 . S
C404 C403 1.369 . S
C404 C413 1.429 . S
C405 C403 1.419 . S
C405 C406 1.363 . S
C405 H408 0.929 . S
C406 C405 1.363 . S
C406 C412 1.428 . S
H407 C403 0.930 . S
H408 C405 0.929 . S
S409 N410 1.613 . S
S409 N411 1.610 . S
N410 S409 1.613 . S
N410 C413 1.350 . S
N411 S409 1.610 . S
N411 C412 1.351 . S
C412 C406 1.428 . S
C412 N411 1.351 . S
C412 C413 1.434 . S
C413 C404 1.429 . S
C413 N410 1.350 . S
C413 C412 1.434 . S
C414 C415 1.369 . S
C414 C416 1.419 . S
C414 H418 0.930 . S
C415 C414 1.369 . S
C415 C424 1.429 . S
C416 C414 1.419 . S
C416 C417 1.363 . S
C416 H419 0.929 . S
C417 C416 1.363 . S
C417 C423 1.428 . S
H418 C414 0.930 . S
H419 C416 0.929 . S
S420 N421 1.613 . S
S420 N422 1.610 . S
N421 S420 1.613 . S
N421 C424 1.350 . S
N422 S420 1.610 . S
N422 C423 1.351 . S
C423 C417 1.428 . S
C423 N422 1.351 . S
C423 C424 1.434 . S
C424 C415 1.429 . S
C424 N421 1.350 . S
C424 C423 1.434 . S
C425 C426 1.369 . S
C425 C427 1.419 . S
C425 H429 0.930 . S
C426 C425 1.369 . S
C426 C435 1.429 . S
C427 C425 1.419 . S
C427 C428 1.363 . S
C427 H430 0.929 . S
C428 C427 1.363 . S
C428 C434 1.428 . S
H429 C425 0.930 . S
H430 C427 0.929 . S
S431 N432 1.613 . S
S431 N433 1.610 . S
N432 S431 1.613 . S
N432 C435 1.350 . S
N433 S431 1.610 . S
N433 C434 1.351 . S
C434 C428 1.428 . S
C434 N433 1.351 . S
C434 C435 1.434 . S
C435 C426 1.429 . S
C435 N432 1.350 . S
C435 C434 1.434 . S
C436 C437 1.369 . S
C436 C438 1.419 . S
C436 H440 0.930 . S
C437 C436 1.369 . S
C437 C446 1.429 . S
C438 C436 1.419 . S
C438 C439 1.363 . S
C438 H441 0.929 . S
C439 C438 1.363 . S
C439 C445 1.428 . S
H440 C436 0.930 . S
H441 C438 0.929 . S
S442 N443 1.613 . S
S442 N444 1.610 . S
N443 S442 1.613 . S
N443 C446 1.350 . S
N444 S442 1.610 . S
N444 C445 1.351 . S
C445 C439 1.428 . S
C445 N444 1.351 . S
C445 C446 1.434 . S
C446 C437 1.429 . S
C446 N443 1.350 . S
C446 C445 1.434 . S
C447 C448 1.369 . S
C447 C449 1.419 . S
C447 H451 0.930 . S
C448 C447 1.369 . S
C448 C457 1.429 . S
C449 C447 1.419 . S
C449 C450 1.363 . S
C449 H452 0.929 . S
C450 C449 1.363 . S
C450 C456 1.428 . S
H451 C447 0.930 . S
H452 C449 0.929 . S
S453 N454 1.613 . S
S453 N455 1.610 . S
N454 S453 1.613 . S
N454 C457 1.350 . S
N455 S453 1.610 . S
N455 C456 1.351 . S
C456 C450 1.428 . S
C456 N455 1.351 . S
C456 C457 1.434 . S
C457 C448 1.429 . S
C457 N454 1.350 . S
C457 C456 1.434 . S
C458 C459 1.369 . S
C458 C460 1.419 . S
C458 H462 0.930 . S
C459 C458 1.369 . S
C459 C468 1.429 . S
C460 C458 1.419 . S
C460 C461 1.363 . S
C460 H463 0.929 . S
C461 C460 1.363 . S
C461 C467 1.428 . S
H462 C458 0.930 . S
H463 C460 0.929 . S
S464 N465 1.613 . S
S464 N466 1.610 . S
N465 S464 1.613 . S
N465 C468 1.350 . S
N466 S464 1.610 . S
N466 C467 1.351 . S
C467 C461 1.428 . S
C467 N466 1.351 . S
C467 C468 1.434 . S
C468 C459 1.429 . S
C468 N465 1.350 . S
C468 C467 1.434 . S
C469 C470 1.369 . S
C469 C471 1.419 . S
C469 H473 0.930 . S
C470 C469 1.369 . S
C470 C479 1.429 . S
C471 C469 1.419 . S
C471 C472 1.363 . S
C471 H474 0.929 . S
C472 C471 1.363 . S
C472 C478 1.428 . S
H473 C469 0.930 . S
H474 C471 0.929 . S
S475 N476 1.613 . S
S475 N477 1.610 . S
N476 S475 1.613 . S
N476 C479 1.350 . S
N477 S475 1.610 . S
N477 C478 1.351 . S
C478 C472 1.428 . S
C478 N477 1.351 . S
C478 C479 1.434 . S
C479 C470 1.429 . S
C479 N476 1.350 . S
C479 C478 1.434 . S
C480 C481 1.369 . S
C480 C482 1.419 . S
C480 H484 0.930 . S
C481 C480 1.369 . S
C481 C490 1.429 . S
C482 C480 1.419 . S
C482 C483 1.363 . S
C482 H485 0.929 . S
C483 C482 1.363 . S
C483 C489 1.428 . S
H484 C480 0.930 . S
H485 C482 0.929 . S
S486 N487 1.613 . S
S486 N488 1.610 . S
N487 S486 1.613 . S
N487 C490 1.350 . S
N488 S486 1.610 . S
N488 C489 1.351 . S
C489 C483 1.428 . S
C489 N488 1.351 . S
C489 C490 1.434 . S
C490 C481 1.429 . S
C490 N487 1.350 . S
C490 C489 1.434 . S
C491 C492 1.369 . S
C491 C493 1.419 . S
C491 H495 0.930 . S
C492 C491 1.369 . S
C492 C501 1.429 . S
C493 C491 1.419 . S
C493 C494 1.363 . S
C493 H496 0.929 . S
C494 C493 1.363 . S
C494 C500 1.428 . S
H495 C491 0.930 . S
H496 C493 0.929 . S
S497 N498 1.606 1_554 S
S497 N499 1.609 1_554 S
N498 S497 1.606 1_556 S
N498 C501 1.350 . S
N499 S497 1.609 1_556 S
N499 C500 1.351 . S
C500 C494 1.428 . S
C500 N499 1.351 . S
C500 C501 1.434 . S
C501 C492 1.429 . S
C501 N498 1.350 . S
C501 C500 1.434 . S
C502 C503 1.369 . S
C502 C504 1.419 . S
C502 H506 0.930 . S
C503 C502 1.369 . S
C503 C512 1.429 . S
C504 C502 1.419 . S
C504 C505 1.363 . S
C504 H507 0.929 . S
C505 C504 1.363 . S
C505 C511 1.428 . S
H506 C502 0.930 . S
H507 C504 0.929 . S
S508 N509 1.613 1_455 S
S508 N510 1.610 . S
N509 S508 1.613 1_655 S
N509 C512 1.350 . S
N510 S508 1.610 . S
N510 C511 1.351 1_455 S
C511 C505 1.428 . S
C511 N510 1.351 1_655 S
C511 C512 1.434 . S
C512 C503 1.429 . S
C512 N509 1.350 . S
C512 C511 1.434 . S
C513 C514 1.369 . S
C513 C515 1.419 . S
C513 H517 0.930 . S
C514 C513 1.369 . S
C514 C523 1.429 . S
C515 C513 1.419 . S
C515 C516 1.363 . S
C515 H518 0.929 . S
C516 C515 1.363 . S
C516 C522 1.428 . S
H517 C513 0.930 . S
H518 C515 0.929 . S
S519 N520 1.613 . S
S519 N521 1.610 . S
N520 S519 1.613 . S
N520 C523 1.350 . S
N521 S519 1.610 . S
N521 C522 1.351 . S
C522 C516 1.428 . S
C522 N521 1.351 . S
C522 C523 1.434 . S
C523 C514 1.429 . S
C523 N520 1.350 . S
C523 C522 1.434 . S
C524 C525 1.369 . S
C524 C526 1.419 . S
C524 H528 0.930 . S
C525 C524 1.369 . S
C525 C534 1.429 . S
C526 C524 1.419 . S
C526 C527 1.363 . S
C526 H529 0.929 . S
C527 C526 1.363 . S
C527 C533 1.428 . S
H528 C524 0.930 . S
H529 C526 0.929 . S
S530 N531 1.613 . S
S530 N532 1.610 . S
N531 S530 1.613 . S
N531 C534 1.350 . S
N532 S530 1.610 . S
N532 C533 1.351 . S
C533 C527 1.428 . S
C533 N532 1.351 . S
C533 C534 1.434 . S
C534 C525 1.429 . S
C534 N531 1.350 . S
C534 C533 1.434 . S
C535 C536 1.369 . S
C535 C537 1.419 . S
C535 H539 0.930 . S
C536 C535 1.369 . S
C536 C545 1.429 . S
C537 C535 1.419 . S
C537 C538 1.363 . S
C537 H540 0.929 . S
C538 C537 1.363 . S
C538 C544 1.428 . S
H539 C535 0.930 . S
H540 C537 0.929 . S
S541 N542 1.613 . S
S541 N543 1.610 . S
N542 S541 1.613 . S
N542 C545 1.350 . S
N543 S541 1.610 . S
N543 C544 1.351 . S
C544 C538 1.428 . S
C544 N543 1.351 . S
C544 C545 1.434 . S
C545 C536 1.429 . S
C545 N542 1.350 . S
C545 C544 1.434 . S
C546 C547 1.369 . S
C546 C548 1.419 . S
C546 H550 0.930 . S
C547 C546 1.369 . S
C547 C556 1.429 . S
C548 C546 1.419 . S
C548 C549 1.363 . S
C548 H551 0.929 . S
C549 C548 1.363 . S
C549 C555 1.428 . S
H550 C546 0.930 . S
H551 C548 0.929 . S
S552 N553 1.613 . S
S552 N554 1.610 . S
N553 S552 1.613 . S
N553 C556 1.350 . S
N554 S552 1.610 . S
N554 C555 1.351 . S
C555 C549 1.428 . S
C555 N554 1.351 . S
C555 C556 1.434 . S
C556 C547 1.429 . S
C556 N553 1.350 . S
C556 C555 1.434 . S
C557 C558 1.369 . S
C557 C559 1.419 . S
C557 H561 0.930 . S
C558 C557 1.369 . S
C558 C567 1.429 . S
C559 C557 1.419 . S
C559 C560 1.363 . S
C559 H562 0.929 . S
C560 C559 1.363 . S
C560 C566 1.428 . S
H561 C557 0.930 . S
H562 C559 0.929 . S
S563 N564 1.613 . S
S563 N565 1.610 . S
N564 S563 1.613 . S
N564 C567 1.350 . S
N565 S563 1.610 . S
N565 C566 1.351 . S
C566 C560 1.428 . S
C566 N565 1.351 . S
C566 C567 1.434 . S
C567 C558 1.429 . S
C567 N564 1.350 . S
C567 C566 1.434 . S
C568 C569 1.369 . S
C568 C570 1.419 . S
C568 H572 0.930 . S
C569 C568 1.369 . S
C569 C578 1.429 . S
C570 C568 1.419 . S
C570 C571 1.363 . S
C570 H573 0.929 . S
C571 C570 1.363 . S
C571 C577 1.428 . S
H572 C568 0.930 . S
H573 C570 0.929 . S
S574 N575 1.613 . S
S574 N576 1.610 . S
N575 S574 1.613 . S
N575 C578 1.350 . S
N576 S574 1.610 . S
N576 C577 1.351 . S
C577 C571 1.428 . S
C577 N576 1.351 . S
C577 C578 1.434 . S
C578 C569 1.429 . S
C578 N575 1.350 . S
C578 C577 1.434 . S
C579 C580 1.369 . S
C579 C581 1.419 . S
C579 H583 0.930 . S
C580 C579 1.369 . S
C580 C589 1.429 . S
C581 C579 1.419 . S
C581 C582 1.363 . S
C581 H584 0.929 . S
C582 C581 1.363 . S
C582 C588 1.428 . S
H583 C579 0.930 . S
H584 C581 0.929 . S
S585 N586 1.613 1_565 S
S585 N587 1.610 . S
N586 S585 1.613 1_545 S
N586 C589 1.350 . S
N587 S585 1.610 . S
N587 C588 1.351 1_565 S
C588 C582 1.428 . S
C588 N587 1.351 1_545 S
C588 C589 1.434 . S
C589 C580 1.429 . S
C589 N586 1.350 . S
C589 C588 1.434 . S
C590 C591 1.369 . S
C590 C592 1.419 . S
C590 H594 0.930 . S
C591 C590 1.369 . S
C591 C600 1.429 . S
C592 C590 1.419 . S
C592 C593 1.363 . S
C592 H595 0.929 . S
C593 C592 1.363 . S
C593 C599 1.428 . S
H594 C590 0.930 . S
H595 C592 0.929 . S
S596 N597 1.613 . S
S596 N598 1.610 . S
N597 S596 1.613 . S
N597 C600 1.350 . S
N598 S596 1.610 . S
N598 C599 1.351 . S
C599 C593 1.428 . S
C599 N598 1.351 . S
C599 C600 1.434 . S
C600 C591 1.429 . S
C600 N597 1.350 . S
C600 C599 1.434 . S
C601 C602 1.369 . S
C601 C603 1.419 . S
C601 H605 0.930 . S
C602 C601 1.369 . S
C602 C611 1.429 . S
C603 C601 1.419 . S
C603 C604 1.363 . S
C603 H606 0.929 . S
C604 C603 1.363 . S
C604 C610 1.428 . S
H605 C601 0.930 . S
H606 C603 0.929 . S
S607 N608 1.613 . S
S607 N609 1.610 . S
N608 S607 1.613 . S
N608 C611 1.350 . S
N609 S607 1.610 . S
N609 C610 1.351 . S
C610 C604 1.428 . S
C610 N609 1.351 . S
C610 C611 1.434 . S
C611 C602 1.429 . S
C611 N608 1.350 . S
C611 C610 1.434 . S
C612 C613 1.369 . S
C612 C614 1.419 . S
C612 H616 0.930 . S
C613 C612 1.369 . S
C613 C622 1.429 . S
C614 C612 1.419 . S
C614 C615 1.363 . S
C614 H617 0.929 . S
C615 C614 1.363 . S
C615 C621 1.428 . S
H616 C612 0.930 . S
H617 C614 0.929 . S
S618 N619 1.613 . S
S618 N620 1.610 . S
N619 S618 1.613 . S
N619 C622 1.350 . S
N620 S618 1.610 . S
N620 C621 1.351 . S
C621 C615 1.428 . S
C621 N620 1.351 . S
C621 C622 1.434 . S
C622 C613 1.429 . S
C622 N619 1.350 . S
C622 C621 1.434 . S
C623 C624 1.369 . S
C623 C625 1.419 . S
C623 H627 0.930 . S
C624 C623 1.369 . S
C624 C633 1.429 . S
C625 C623 1.419 . S
C625 C626 1.363 . S
C625 H628 0.929 . S
C626 C625 1.363 . S
C626 C632 1.428 . S
H627 C623 0.930 . S
H628 C625 0.929 . S
S629 N630 1.613 . S
S629 N631 1.610 . S
N630 S629 1.613 . S
N630 C633 1.350 . S
N631 S629 1.610 . S
N631 C632 1.351 . S
C632 C626 1.428 . S
C632 N631 1.351 . S
C632 C633 1.434 . S
C633 C624 1.429 . S
C633 N630 1.350 . S
C633 C632 1.434 . S
C634 C635 1.369 . S
C634 C636 1.419 . S
C634 H638 0.930 . S
C635 C634 1.369 . S
C635 C644 1.429 . S
C636 C634 1.419 . S
C636 C637 1.363 . S
C636 H639 0.929 . S
C637 C636 1.363 . S
C637 C643 1.428 . S
H638 C634 0.930 . S
H639 C636 0.929 . S
S640 N641 1.613 . S
S640 N642 1.610 . S
N641 S640 1.613 . S
N641 C644 1.350 . S
N642 S640 1.610 . S
N642 C643 1.351 . S
C643 C637 1.428 . S
C643 N642 1.351 . S
C643 C644 1.434 . S
C644 C635 1.429 . S
C644 N641 1.350 . S
C644 C643 1.434 . S
C645 C646 1.369 . S
C645 C647 1.419 . S
C645 H649 0.930 . S
C646 C645 1.369 . S
C646 C655 1.429 . S
C647 C645 1.419 . S
C647 C648 1.363 . S
C647 H650 0.929 . S
C648 C647 1.363 . S
C648 C654 1.428 . S
H649 C645 0.930 . S
H650 C647 0.929 . S
S651 N652 1.613 . S
S651 N653 1.610 . S
N652 S651 1.613 . S
N652 C655 1.350 . S
N653 S651 1.610 . S
N653 C654 1.351 . S
C654 C648 1.428 . S
C654 N653 1.351 . S
C654 C655 1.434 . S
C655 C646 1.429 . S
C655 N652 1.350 . S
C655 C654 1.434 . S
C393 C1 1.549 . S
C395 C331 1.506 . S
C404 C40 1.295 . S
C406 C334 1.256 . S
C417 C370 1.791 . S
C415 C99 1.806 . S
C426 C118 1.698 . S
C428 C390 1.684 . S
C439 C344 1.658 . S
C437 C16 1.692 . S
C450 C321 1.474 . S
C448 C60 1.496 . S
C461 C374 1.574 . S
C459 C79 1.721 . S
C472 C354 1.402 . S
C470 C138 1.510 . S
C481 C21 1.399 . S
C483 C384 1.326 . S
C494 C350 1.660 . S
C492 C94 1.678 . S
C503 C133 1.656 . S
C505 C316 1.619 . S
C514 C55 1.335 . S
C516 C364 1.301 . S
C527 C330 1.509 . S
C525 C157 1.559 . S
C536 C196 1.293 . S
C538 C336 1.263 . S
C547 C255 1.809 . S
C549 C371 1.792 . S
C558 C289 1.690 . S
C560 C391 1.677 . S
C569 C172 1.692 . S
C571 C341 1.651 . S
C582 C324 1.475 . S
C580 C216 1.495 . S
C593 C376 1.574 . S
C591 C235 1.723 . S
C604 C356 1.410 . S
C602 C294 1.508 . S
C613 C177 1.409 . S
C615 C381 1.327 . S
C626 C351 1.662 . S
C624 C250 1.679 . S
C637 C314 1.616 . S
C635 C274 1.661 . S
C646 C211 1.331 . S
C648 C361 1.302 . S
