# Generated by pormake.
# Topology zzz, (3,6)-cn, num edge types: 1
# Building blocks:
#     Node 0, Type 0, BuildingBlock: KAKCAD_clean_linker_0, # of connection points: 3
#     Node 1, Type 0, BuildingBlock: KAKCAD_clean_linker_0, # of connection points: 3
#     Node 2, Type 0, BuildingBlock: KAKCAD_clean_linker_0, # of connection points: 3
#     Node 3, Type 0, BuildingBlock: KAKCAD_clean_linker_0, # of connection points: 3
#     Node 4, Type 0, BuildingBlock: KAKCAD_clean_linker_0, # of connection points: 3
#     Node 5, Type 0, BuildingBlock: KAKCAD_clean_linker_0, # of connection points: 3
#     Node 6, Type 0, BuildingBlock: KAKCAD_clean_linker_0, # of connection points: 3
#     Node 7, Type 0, BuildingBlock: KAKCAD_clean_linker_0, # of connection points: 3
#     Node 8, Type 1, BuildingBlock: GEDQOX_clean_sbu_0, # of connection points: 6
#     Node 9, Type 1, BuildingBlock: GEDQOX_clean_sbu_0, # of connection points: 6
#     Node 10, Type 1, BuildingBlock: GEDQOX_clean_sbu_0, # of connection points: 6
#     Node 11, Type 1, BuildingBlock: GEDQOX_clean_sbu_0, # of connection points: 6
#     Edge 12, Type (0, 1), BuildingBlock: TEMPAE_clean_linker_10, # of connection points: 2
#     Edge 13, Type (0, 1), BuildingBlock: TEMPAE_clean_linker_10, # of connection points: 2
#     Edge 14, Type (0, 1), BuildingBlock: TEMPAE_clean_linker_10, # of connection points: 2
#     Edge 15, Type (0, 1), BuildingBlock: TEMPAE_clean_linker_10, # of connection points: 2
#     Edge 16, Type (0, 1), BuildingBlock: TEMPAE_clean_linker_10, # of connection points: 2
#     Edge 17, Type (0, 1), BuildingBlock: TEMPAE_clean_linker_10, # of connection points: 2
#     Edge 18, Type (0, 1), BuildingBlock: TEMPAE_clean_linker_10, # of connection points: 2
#     Edge 19, Type (0, 1), BuildingBlock: TEMPAE_clean_linker_10, # of connection points: 2
#     Edge 20, Type (0, 1), BuildingBlock: TEMPAE_clean_linker_10, # of connection points: 2
#     Edge 21, Type (0, 1), BuildingBlock: TEMPAE_clean_linker_10, # of connection points: 2
#     Edge 22, Type (0, 1), BuildingBlock: TEMPAE_clean_linker_10, # of connection points: 2
#     Edge 23, Type (0, 1), BuildingBlock: TEMPAE_clean_linker_10, # of connection points: 2
#     Edge 24, Type (0, 1), BuildingBlock: TEMPAE_clean_linker_10, # of connection points: 2
#     Edge 25, Type (0, 1), BuildingBlock: TEMPAE_clean_linker_10, # of connection points: 2
#     Edge 26, Type (0, 1), BuildingBlock: TEMPAE_clean_linker_10, # of connection points: 2
#     Edge 27, Type (0, 1), BuildingBlock: TEMPAE_clean_linker_10, # of connection points: 2
#     Edge 28, Type (0, 1), BuildingBlock: TEMPAE_clean_linker_10, # of connection points: 2
#     Edge 29, Type (0, 1), BuildingBlock: TEMPAE_clean_linker_10, # of connection points: 2
#     Edge 30, Type (0, 1), BuildingBlock: TEMPAE_clean_linker_10, # of connection points: 2
#     Edge 31, Type (0, 1), BuildingBlock: TEMPAE_clean_linker_10, # of connection points: 2
#     Edge 32, Type (0, 1), BuildingBlock: TEMPAE_clean_linker_10, # of connection points: 2
#     Edge 33, Type (0, 1), BuildingBlock: TEMPAE_clean_linker_10, # of connection points: 2
#     Edge 34, Type (0, 1), BuildingBlock: TEMPAE_clean_linker_10, # of connection points: 2
#     Edge 35, Type (0, 1), BuildingBlock: TEMPAE_clean_linker_10, # of connection points: 2
# Relax obj value: 0.305
# Max RMSD: 0.263
# Mean RMSD: 0.198
data_MOF--net-zzz--node1-GEDQOX_clean_sbu_0--node2-KAKCAD_clean_linker_0--edge1-TEMPAE_clean_linker_10
_symmetry_space_group_name_H-M    P1
_symmetry_Int_Tables_number       1
_symmetry_cell_setting            triclinic
loop_
_symmetry_equiv_pos_as_xyz
'x, y, z'
_cell_length_a     63.555734
_cell_length_b     59.157818
_cell_length_c     22.040341
_cell_angle_alpha  82.081829
_cell_angle_beta   91.123332
_cell_angle_gamma 101.94553
loop_
_atom_site_label
_atom_site_type_symbol
_atom_site_fract_x
_atom_site_fract_y
_atom_site_fract_z
_atom_type_partial_charge
C0 C 0.81654 0.45941 0.99743 0.0
C1 C 0.8289 0.44234 0.01227 0.0
C2 C 0.79926 0.4601 0.03476 0.0
C3 C 0.79431 0.44398 0.08808 0.0
C4 C 0.80611 0.4263 0.10149 0.0
C5 C 0.82318 0.42536 0.06351 0.0
C6 C 0.7783 0.44706 0.13238 0.0
C7 C 0.758 0.45059 0.11279 0.0
C8 C 0.74348 0.45537 0.15399 0.0
C9 C 0.74946 0.45682 0.2153 0.0
C10 C 0.77004 0.45396 0.23528 0.0
C11 C 0.78417 0.44868 0.19351 0.0
C12 C 0.77794 0.45895 0.2971 0.0
C13 C 0.77359 0.4783 0.32137 0.0
C14 C 0.79201 0.44612 0.32892 0.0
C15 C 0.80279 0.45352 0.38076 0.0
C16 C 0.79957 0.47381 0.40267 0.0
C17 C 0.72254 0.46009 0.13167 0.0
C18 C 0.7218 0.47732 0.08147 0.0
C19 C 0.70326 0.44719 0.15932 0.0
C20 C 0.68349 0.45115 0.13619 0.0
C21 C 0.68277 0.4684 0.08597 0.0
C22 C 0.70208 0.48159 0.05916 0.0
C23 C 0.78421 0.48558 0.37369 0.0
H24 H 0.82076 0.47269 0.95813 0.0
H25 H 0.79051 0.47401 0.02373 0.0
H26 H 0.80252 0.41365 0.14232 0.0
H27 H 0.83264 0.41218 0.07599 0.0
H28 H 0.75351 0.4497 0.06531 0.0
H29 H 0.80037 0.44731 0.20736 0.0
H30 H 0.73836 0.46096 0.24672 0.0
H31 H 0.76292 0.48868 0.29803 0.0
H32 H 0.79543 0.43087 0.31217 0.0
H33 H 0.81456 0.44403 0.40143 0.0
H34 H 0.73651 0.48755 0.05967 0.0
H35 H 0.7035 0.43378 0.19797 0.0
H36 H 0.78098 0.50098 0.39001 0.0
H37 H 0.70189 0.49492 0.02028 0.0
H38 H 0.66876 0.44086 0.15772 0.0
C39 C 0.98077 0.79031 0.16261 0.0
C40 C 0.00012 0.79673 0.12889 0.0
C41 C 0.97617 0.7694 0.20217 0.0
C42 C 0.99076 0.7544 0.20863 0.0
C43 C 0.0096 0.76016 0.17259 0.0
C44 C 0.01426 0.7812 0.13304 0.0
C45 C 0.98701 0.73377 0.25626 0.0
C46 C 0.98967 0.71202 0.24354 0.0
C47 C 0.98626 0.69256 0.28939 0.0
C48 C 0.9803 0.69508 0.34908 0.0
C49 C 0.97812 0.71711 0.3622 0.0
C50 C 0.98127 0.73614 0.31559 0.0
C51 C 0.97373 0.72186 0.4242 0.0
C52 C 0.95259 0.72197 0.44101 0.0
C53 C 0.99086 0.73341 0.45688 0.0
C54 C 0.98703 0.74675 0.50154 0.0
C55 C 0.96595 0.74881 0.51446 0.0
C56 C 0.98913 0.66998 0.2728 0.0
C57 C 0.97169 0.65093 0.275 0.0
C58 C 0.00851 0.6687 0.24534 0.0
C59 C 0.01014 0.64928 0.21766 0.0
C60 C 0.99234 0.63076 0.21636 0.0
C61 C 0.97325 0.63151 0.2467 0.0
C62 C 0.94871 0.73516 0.48614 0.0
H63 H 0.96932 0.80167 0.15919 0.0
H64 H 0.96135 0.76515 0.22868 0.0
H65 H 0.02115 0.74891 0.17703 0.0
H66 H 0.02932 0.78574 0.1077 0.0
H67 H 0.99403 0.7101 0.19747 0.0
H68 H 0.9798 0.75313 0.3262 0.0
H69 H 0.97793 0.68029 0.38499 0.0
H70 H 0.93916 0.71355 0.41554 0.0
H71 H 0.00731 0.73403 0.44355 0.0
H72 H 0.00076 0.7571 0.52171 0.0
H73 H 0.95652 0.65166 0.2954 0.0
H74 H 0.02213 0.68326 0.24279 0.0
H75 H 0.93225 0.73591 0.49583 0.0
H76 H 0.95933 0.61739 0.24695 0.0
H77 H 0.02501 0.64939 0.19428 0.0
C78 C 0.72347 0.0627 0.98858 0.0
C79 C 0.7103 0.07686 0.00748 0.0
C80 C 0.74018 0.05698 0.02577 0.0
C81 C 0.74405 0.06536 0.08246 0.0
C82 C 0.73214 0.08124 0.09853 0.0
C83 C 0.71539 0.08689 0.06147 0.0
C84 C 0.75826 0.05517 0.12792 0.0
C85 C 0.77777 0.05042 0.11009 0.0
C86 C 0.78993 0.03836 0.15205 0.0
C87 C 0.78246 0.03129 0.21286 0.0
C88 C 0.76295 0.03601 0.23147 0.0
C89 C 0.75108 0.04798 0.18863 0.0
C90 C 0.75366 0.02698 0.29368 0.0
C91 C 0.75318 1.00381 0.31973 0.0
C92 C 0.74292 0.04071 0.32414 0.0
C93 C 0.73065 0.03107 0.37674 0.0
C94 C 0.72899 0.00747 0.40081 0.0
C95 C 0.80997 0.03245 0.13124 0.0
C96 C 0.81053 0.02392 0.07494 0.0
C97 C 0.8287 0.0356 0.16667 0.0
C98 C 0.84771 0.03077 0.14559 0.0
C99 C 0.84831 0.02252 0.08888 0.0
C100 C 0.82946 0.01899 0.05404 0.0
C101 C 0.74099 0.99416 0.37281 0.0
H102 H 0.71981 0.05454 0.94747 0.0
H103 H 0.74897 0.0446 0.01221 0.0
H104 H 0.73505 0.08836 0.14138 0.0
H105 H 0.70567 0.0981 0.07668 0.0
H106 H 0.78345 0.05605 0.0633 0.0
H107 H 0.73546 0.05051 0.20173 0.0
H108 H 0.79156 0.02169 0.24524 0.0
H109 H 0.76123 0.99273 0.29731 0.0
H110 H 0.74323 0.05873 0.30571 0.0
H111 H 0.72154 0.04188 0.39642 0.0
H112 H 0.79627 0.02102 0.04695 0.0
H113 H 0.82878 0.04223 0.21011 0.0
H114 H 0.74041 0.97605 0.3907 0.0
H115 H 0.82944 0.01285 0.00995 0.0
H116 H 0.86194 0.03346 0.17371 0.0
C117 C 0.54435 0.72352 0.55976 0.0
C118 C 0.56074 0.71244 0.585 0.0
C119 C 0.54908 0.74281 0.51386 0.0
C120 C 0.57024 0.75115 0.492 0.0
C121 C 0.58676 0.74094 0.51961 0.0
C122 C 0.5821 0.7219 0.56589 0.0
C123 C 0.57465 0.7672 0.43372 0.0
C124 C 0.56979 0.78958 0.42557 0.0
C125 C 0.57416 0.80395 0.36888 0.0
C126 C 0.58287 0.79557 0.32051 0.0
C127 C 0.58572 0.77249 0.326 0.0
C128 C 0.58224 0.75876 0.38368 0.0
C129 C 0.58858 0.76152 0.27031 0.0
C130 C 0.5791 0.76864 0.21447 0.0
C131 C 0.59779 0.74167 0.2744 0.0
C132 C 0.59486 0.7276 0.22767 0.0
C133 C 0.58327 0.73346 0.17481 0.0
C134 C 0.56694 0.82631 0.35472 0.0
C135 C 0.54484 0.82617 0.35171 0.0
C136 C 0.5816 0.84646 0.32954 0.0
C137 C 0.57424 0.86541 0.29772 0.0
C138 C 0.55208 0.86443 0.28976 0.0
C139 C 0.53746 0.84502 0.3192 0.0
C140 C 0.57688 0.75502 0.16701 0.0
H141 H 0.52776 0.71673 0.57391 0.0
H142 H 0.53604 0.7502 0.49273 0.0
H143 H 0.60318 0.74696 0.50305 0.0
H144 H 0.59506 0.71369 0.58391 0.0
H145 H 0.56265 0.79573 0.46275 0.0
H146 H 0.5839 0.74074 0.3893 0.0
H147 H 0.5859 0.80669 0.27693 0.0
H148 H 0.57178 0.78374 0.20847 0.0
H149 H 0.60605 0.73608 0.31535 0.0
H150 H 0.60027 0.71126 0.23546 0.0
H151 H 0.53323 0.81069 0.3699 0.0
H152 H 0.59871 0.84681 0.33058 0.0
H153 H 0.56867 0.76063 0.12591 0.0
H154 H 0.52029 0.8439 0.31428 0.0
H155 H 0.5859 0.88005 0.27532 0.0
C156 C 0.22161 0.57563 0.62096 0.0
C157 C 0.2005 0.56477 0.60754 0.0
C158 C 0.23888 0.57461 0.58347 0.0
C159 C 0.23536 0.56265 0.53199 0.0
C160 C 0.21416 0.55217 0.51843 0.0
C161 C 0.19702 0.5535 0.55507 0.0
C162 C 0.25349 0.5599 0.4937 0.0
C163 C 0.2728 0.5557 0.52053 0.0
C164 C 0.2884 0.54935 0.48576 0.0
C165 C 0.2846 0.54704 0.42363 0.0
C166 C 0.26573 0.55196 0.3957 0.0
C167 C 0.25061 0.55892 0.4307 0.0
C168 C 0.26011 0.54732 0.33233 0.0
C169 C 0.2506 0.56305 0.29295 0.0
C170 C 0.2607 0.52549 0.31482 0.0
C171 C 0.25012 0.51868 0.26193 0.0
C172 C 0.2388 0.53361 0.22593 0.0
C173 C 0.30812 0.54391 0.51564 0.0
C174 C 0.3211 0.55998 0.54893 0.0
C175 C 0.31373 0.52237 0.51253 0.0
C176 C 0.33192 0.51689 0.54287 0.0
C177 C 0.3451 0.53301 0.57606 0.0
C178 C 0.3395 0.5547 0.57831 0.0
C179 C 0.24002 0.55625 0.24031 0.0
H180 H 0.22486 0.58441 0.66114 0.0
H181 H 0.25495 0.58306 0.59504 0.0
H182 H 0.21071 0.54233 0.48022 0.0
H183 H 0.18096 0.54539 0.5424 0.0
H184 H 0.27524 0.55602 0.56923 0.0
H185 H 0.2359 0.56237 0.40928 0.0
H186 H 0.29631 0.54146 0.39712 0.0
H187 H 0.25018 0.58011 0.30495 0.0
H188 H 0.2678 0.51296 0.3445 0.0
H189 H 0.24938 0.50111 0.25196 0.0
H190 H 0.31711 0.57677 0.55161 0.0
H191 H 0.30377 0.50958 0.48775 0.0
H192 H 0.23172 0.56823 0.21272 0.0
H193 H 0.34946 0.56779 0.60216 0.0
H194 H 0.33543 0.49986 0.54095 0.0
C195 C 0.01858 0.2245 0.54377 0.0
C196 C 0.03424 0.21097 0.55813 0.0
C197 C 0.02355 0.24546 0.50396 0.0
C198 C 0.04417 0.25305 0.47762 0.0
C199 C 0.06009 0.2402 0.49446 0.0
C200 C 0.05523 0.21947 0.53467 0.0
C201 C 0.04859 0.27298 0.42822 0.0
C202 C 0.04451 0.29471 0.43617 0.0
C203 C 0.04875 0.31355 0.38856 0.0
C204 C 0.05664 0.31021 0.33169 0.0
C205 C 0.0604 0.2882 0.32345 0.0
C206 C 0.05659 0.26991 0.37203 0.0
C207 C 0.06713 0.28272 0.26436 0.0
C208 C 0.05145 0.27654 0.22055 0.0
C209 C 0.08725 0.27674 0.26019 0.0
C210 C 0.09093 0.26292 0.21654 0.0
C211 C 0.07445 0.25458 0.17672 0.0
C212 C 0.04548 0.3366 0.40082 0.0
C213 C 0.02621 0.33829 0.42827 0.0
C214 C 0.06254 0.35612 0.39388 0.0
C215 C 0.06082 0.37644 0.41777 0.0
C216 C 0.04193 0.37763 0.44843 0.0
C217 C 0.02442 0.35858 0.45165 0.0
C218 C 0.05508 0.26259 0.17695 0.0
H219 H 0.00225 0.21838 0.56089 0.0
H220 H 0.01101 0.2551 0.49127 0.0
H221 H 0.07618 0.24593 0.4752 0.0
H222 H 0.0678 0.20978 0.54615 0.0
H223 H 0.03861 0.29711 0.48019 0.0
H224 H 0.05926 0.25287 0.36535 0.0
H225 H 0.05966 0.32447 0.29433 0.0
H226 H 0.03565 0.28051 0.22384 0.0
H227 H 0.09945 0.28103 0.29417 0.0
H228 H 0.10616 0.25741 0.21681 0.0
H229 H 0.01281 0.32346 0.43414 0.0
H230 H 0.07762 0.35519 0.37329 0.0
H231 H 0.04201 0.25641 0.14721 0.0
H232 H 0.00971 0.35881 0.47534 0.0
H233 H 0.0745 0.39094 0.41398 0.0
C234 C 0.31997 0.92753 0.64079 0.0
C235 C 0.32662 0.93657 0.69543 0.0
C236 C 0.30422 0.93595 0.60469 0.0
C237 C 0.29455 0.9532 0.62314 0.0
C238 C 0.29942 0.96037 0.68075 0.0
C239 C 0.3154 0.95218 0.71657 0.0
C240 C 0.28274 0.96668 0.57819 0.0
C241 C 0.26208 0.96975 0.59071 0.0
C242 C 0.25171 0.98398 0.54874 0.0
C243 C 0.26268 0.99567 0.49456 0.0
C244 C 0.28369 0.99322 0.4828 0.0
C245 C 0.29331 0.97832 0.52421 0.0
C246 C 0.29639 0.00656 0.42895 0.0
C247 C 0.28851 0.00573 0.36911 0.0
C248 C 0.3176 0.01832 0.43735 0.0
C249 C 0.33118 0.02756 0.38722 0.0
C250 C 0.32387 0.02532 0.3274 0.0
C251 C 0.22977 0.98705 0.56301 0.0
C252 C 0.21429 0.96797 0.59017 0.0
C253 C 0.22437 0.00913 0.55202 0.0
C254 C 0.20411 0.01212 0.56899 0.0
C255 C 0.18881 0.9931 0.59733 0.0
C256 C 0.19411 0.97096 0.60725 0.0
C257 C 0.30219 0.01506 0.31857 0.0
H258 H 0.32797 0.91513 0.62387 0.0
H259 H 0.30056 0.93008 0.56051 0.0
H260 H 0.29225 0.97379 0.69566 0.0
H261 H 0.32018 0.95967 0.75813 0.0
H262 H 0.25426 0.9613 0.63358 0.0
H263 H 0.3095 0.97629 0.51525 0.0
H264 H 0.25508 0.00691 0.46217 0.0
H265 H 0.27222 0.99674 0.36148 0.0
H266 H 0.32396 0.01958 0.48302 0.0
H267 H 0.34768 0.03579 0.39532 0.0
H268 H 0.21782 0.95067 0.59862 0.0
H269 H 0.23596 0.02424 0.53169 0.0
H270 H 0.29616 0.0131 0.27288 0.0
H271 H 0.18283 0.95597 0.62953 0.0
H272 H 0.20046 0.02935 0.56004 0.0
C273 C 0.45454 0.26352 0.05371 0.0
C274 C 0.47309 0.28137 0.05438 0.0
C275 C 0.45083 0.2443 0.09994 0.0
C276 C 0.46595 0.24204 0.14643 0.0
C277 C 0.48548 0.25833 0.14335 0.0
C278 C 0.48893 0.27787 0.09842 0.0
C279 C 0.45917 0.22819 0.20649 0.0
C280 C 0.46957 0.21047 0.23326 0.0
C281 C 0.46714 0.20248 0.29651 0.0
C282 C 0.45504 0.21312 0.3325 0.0
C283 C 0.44556 0.23162 0.30682 0.0
C284 C 0.44615 0.23746 0.24291 0.0
C285 C 0.4405 0.24831 0.34682 0.0
C286 C 0.43453 0.241 0.40889 0.0
C287 C 0.44607 0.27245 0.32646 0.0
C288 C 0.44824 0.28848 0.36787 0.0
C289 C 0.4454 0.28087 0.43081 0.0
C290 C 0.47889 0.18493 0.3278 0.0
C291 C 0.47773 0.16329 0.30711 0.0
C292 C 0.4897 0.18904 0.38272 0.0
C293 C 0.49769 0.17145 0.41854 0.0
C294 C 0.49558 0.14928 0.39998 0.0
C295 C 0.48601 0.14563 0.34284 0.0
C296 C 0.4372 0.25716 0.45076 0.0
H297 H 0.44223 0.26496 0.01962 0.0
H298 H 0.4355 0.23211 0.1019 0.0
H299 H 0.49715 0.25729 0.17961 0.0
H300 H 0.50333 0.29106 0.10185 0.0
H301 H 0.48036 0.20394 0.20589 0.0
H302 H 0.43868 0.25147 0.22193 0.0
H303 H 0.4545 0.20804 0.38161 0.0
H304 H 0.42935 0.22267 0.42611 0.0
H305 H 0.45089 0.27921 0.27959 0.0
H306 H 0.45395 0.3068 0.35109 0.0
H307 H 0.46958 0.15968 0.2648 0.0
H308 H 0.49127 0.2057 0.39937 0.0
H309 H 0.43449 0.25088 0.49907 0.0
H310 H 0.48447 0.12897 0.32629 0.0
H311 H 0.50465 0.17506 0.46229 0.0
Nd312 Nd 0.00084 0.99366 0.78906 0.0
Nd313 Nd 0.03103 0.01172 0.88396 0.0
C314 C 0.97079 0.96842 0.72726 0.0
C315 C 0.96707 0.94446 0.71077 0.0
C316 C 0.96559 0.94114 0.64889 0.0
C317 C 0.96378 0.91885 0.6321 0.0
C318 C 0.96337 0.89935 0.67688 0.0
C319 C 0.96426 0.90261 0.73898 0.0
C320 C 0.96609 0.92491 0.75572 0.0
C321 C 0.04336 1.00301 0.75368 0.0
C322 C 0.01942 0.95701 0.8927 0.0
C323 C 0.06129 0.03734 0.9441 0.0
C324 C 0.06364 0.06106 0.96019 0.0
C325 C 0.08282 0.07211 0.98528 0.0
C326 C 0.08482 0.09457 1.00128 0.0
C327 C 0.0676 0.10629 0.99259 0.0
C328 C 0.04852 0.09523 0.96642 0.0
C329 C 0.04658 0.07285 0.95031 0.0
C330 C 0.98852 1.0026 0.91961 0.0
C331 C 0.01213 0.04851 0.78161 0.0
O332 O 0.96871 0.97052 0.78507 0.0
O333 O 0.98735 0.98316 0.701 0.0
O334 O 0.028 0.00789 0.71802 0.0
O335 O 0.03608 0.99299 0.80539 0.0
O336 O 0.0032 0.96105 0.85743 0.0
O337 O 0.03535 0.97416 0.90291 0.0
O338 O 0.06269 0.03597 0.88566 0.0
O339 O 0.04542 0.02179 0.97124 0.0
O340 O 0.00394 0.99787 0.95527 0.0
O341 O 0.99579 0.01248 0.86775 0.0
O342 O 0.0283 0.04446 0.81698 0.0
O343 O 0.99651 0.03128 0.76987 0.0
H344 H 0.96621 0.95588 0.61337 0.0
H345 H 0.96277 0.91691 0.58391 0.0
H346 H 0.96415 0.88802 0.77463 0.0
H347 H 0.96711 0.92687 0.80381 0.0
H348 H 0.09617 0.0633 0.99301 0.0
H349 H 0.09964 0.10254 0.02181 0.0
H350 H 0.03509 0.10389 0.95837 0.0
H351 H 0.03168 0.06466 0.93047 0.0
Nd352 Nd 0.52773 0.98531 0.81312 0.0
Nd353 Nd 0.51216 0.02221 0.87115 0.0
C354 C 0.54123 0.95024 0.77551 0.0
C355 C 0.56157 0.94909 0.74578 0.0
C356 C 0.56105 0.94189 0.68761 0.0
C357 C 0.58011 0.94409 0.65462 0.0
C358 C 0.60007 0.95335 0.67946 0.0
C359 C 0.60067 0.95946 0.73893 0.0
C360 C 0.5816 0.95749 0.77167 0.0
C361 C 0.52548 0.02464 0.73268 0.0
C362 C 0.56362 0.0278 0.84987 0.0
C363 C 0.49862 0.05701 0.91066 0.0
C364 C 0.47882 0.05696 0.94417 0.0
C365 C 0.47249 0.07781 0.95084 0.0
C366 C 0.45351 0.07732 0.98289 0.0
C367 C 0.44062 0.05593 0.00879 0.0
C368 C 0.44712 0.03512 1.00138 0.0
C369 C 0.46589 0.03564 0.96911 0.0
C370 C 0.51515 0.98276 0.951 0.0
C371 C 0.47613 0.98026 0.83268 0.0
O372 O 0.54226 0.9541 0.83268 0.0
O373 O 0.52896 0.96227 0.74247 0.0
O374 O 0.5407 0.0131 0.73193 0.0
O375 O 0.51169 0.01494 0.77364 0.0
O376 O 0.55964 0.00548 0.84374 0.0
O377 O 0.54788 0.03922 0.85174 0.0
O378 O 0.49585 0.05222 0.85456 0.0
O379 O 0.51219 0.04589 0.94085 0.0
O380 O 0.49954 0.99373 0.9519 0.0
O381 O 0.52868 0.99298 0.91007 0.0
O382 O 0.48028 1.00246 0.83975 0.0
O383 O 0.49173 0.96866 0.83051 0.0
H384 H 0.54583 0.93541 0.66664 0.0
H385 H 0.57922 0.93909 0.60902 0.0
H386 H 0.61581 0.96685 0.75894 0.0
H387 H 0.58256 0.96342 0.8162 0.0
H388 H 0.48218 0.09442 0.93133 0.0
H389 H 0.44889 0.09366 0.98716 0.0
H390 H 0.43794 0.01835 0.0216 0.0
H391 H 0.47041 0.01933 0.96406 0.0
Nd392 Nd 0.49942 0.50395 0.89369 0.0
Nd393 Nd 0.52471 0.49501 0.79199 0.0
C394 C 0.47695 0.52328 0.96301 0.0
C395 C 0.48341 0.5458 0.98728 0.0
C396 C 0.48102 0.56672 0.95157 0.0
C397 C 0.49121 0.58821 0.96833 0.0
C398 C 0.50398 0.58921 0.02105 0.0
C399 C 0.50514 0.56835 0.05886 0.0
C400 C 0.49485 0.5469 0.04238 0.0
C401 C 0.53886 0.49523 0.92934 0.0
C402 C 0.53067 0.54812 0.80678 0.0
C403 C 0.54518 0.4747 0.72078 0.0
C404 C 0.53462 0.45361 0.69541 0.0
C405 C 0.54604 0.43699 0.68216 0.0
C406 C 0.53497 0.41603 0.6636 0.0
C407 C 0.51241 0.41159 0.65829 0.0
C408 C 0.50113 0.42822 0.67242 0.0
C409 C 0.5121 0.44893 0.69098 0.0
C410 C 0.48536 0.50408 0.75745 0.0
C411 C 0.49378 0.45059 0.87835 0.0
O412 O 0.47446 0.52446 0.90364 0.0
O413 O 0.4873 0.50705 0.98499 0.0
O414 O 0.52157 0.48804 0.96249 0.0
O415 O 0.53545 0.50781 0.88069 0.0
O416 O 0.51317 0.5407 0.8413 0.0
O417 O 0.54126 0.53317 0.78912 0.0
O418 O 0.5472 0.47175 0.78036 0.0
O419 O 0.53781 0.49341 0.7006 0.0
O420 O 0.50277 0.51219 0.72531 0.0
O421 O 0.48871 0.49091 0.80506 0.0
O422 O 0.51058 0.45809 0.84141 0.0
O423 O 0.48391 0.46526 0.90032 0.0
H424 H 0.47212 0.56652 0.90916 0.0
H425 H 0.48951 0.60403 0.93925 0.0
H426 H 0.51487 0.56849 0.09975 0.0
H427 H 0.49689 0.53114 0.07124 0.0
H428 H 0.56337 0.44009 0.68672 0.0
H429 H 0.54402 0.40347 0.65264 0.0
H430 H 0.48375 0.42507 0.66979 0.0
H431 H 0.50287 0.4612 0.70294 0.0
Nd432 Nd 0.00941 0.52639 0.78663 0.0
Nd433 Nd 0.02629 0.4879 0.8621 0.0
C434 C 0.98516 0.55591 0.74253 0.0
C435 C 0.96326 0.55224 0.71681 0.0
C436 C 0.94576 0.53751 0.74983 0.0
C437 C 0.92592 0.53136 0.72146 0.0
C438 C 0.9233 0.53953 0.65945 0.0
C439 C 0.94049 0.55514 0.62743 0.0
C440 C 0.96025 0.5615 0.65594 0.0
C441 C 0.0229 0.49646 0.71865 0.0
C442 C 0.97587 0.47712 0.84083 0.0
C443 C 0.05012 0.45767 0.90479 0.0
C444 C 0.07258 0.45988 0.92612 0.0
C445 C 0.09011 0.46997 0.88649 0.0
C446 C 0.11107 0.47414 0.90913 0.0
C447 C 0.11496 0.46856 0.97198 0.0
C448 C 0.09741 0.45771 0.01096 0.0
C449 C 0.07652 0.45328 0.98819 0.0
C450 C 0.01229 0.51743 0.93023 0.0
C451 C 0.0597 0.53734 0.80791 0.0
O452 O 0.98688 0.54921 0.80126 0.0
O453 O -0.00023 0.55035 0.70976 0.0
O454 O 0.02591 0.5188 0.70216 0.0
O455 O 0.0122 0.49045 0.76796 0.0
O456 O 0.9787 0.49944 0.8187 0.0
O457 O 0.99218 0.46695 0.85565 0.0
O458 O 0.0472 0.46354 0.84623 0.0
O459 O 0.03712 0.46497 0.93928 0.0
O460 O 0.00931 0.49504 0.946 0.0
O461 O 0.02327 0.52376 0.88139 0.0
O462 O 0.05697 0.51493 0.82917 0.0
O463 O 0.04332 0.5475 0.79429 0.0
H464 H 0.94756 0.52997 0.79681 0.0
H465 H 0.91297 0.51932 0.74721 0.0
H466 H 0.93881 0.56198 0.5798 0.0
H467 H 0.97347 0.57289 0.6296 0.0
H468 H 0.08765 0.47523 0.83827 0.0
H469 H 0.12416 0.48216 0.87747 0.0
H470 H 0.0996 0.45352 0.05974 0.0
H471 H 0.06331 0.44548 0.01969 0.0
C472 C 0.14886 0.9795 0.61086 0.0
C473 C 0.16756 0.99628 0.6179 0.0
C474 C 0.12889 0.98161 0.63287 0.0
C475 C 0.1275 1.00108 0.66226 0.0
C476 C 0.1462 0.01834 0.66849 0.0
C477 C 0.16602 0.0157 0.6464 0.0
C478 C 0.1093 0.96284 0.62528 0.0
C479 C 0.14533 0.0394 0.69931 0.0
C480 C 0.07181 0.01443 0.67239 0.0
C481 C 0.06541 1.00401 0.73196 0.0
C482 C 0.09222 0.01417 0.64961 0.0
C483 C 0.10648 1.0031 0.68727 0.0
C484 C 0.10026 0.99306 0.74803 0.0
C485 C 0.07981 0.99372 0.76975 0.0
C486 C 0.09834 0.02527 0.5848 0.0
C487 C 0.11498 0.98103 0.78953 0.0
H488 H 0.14983 0.96465 0.58802 0.0
H489 H 0.18041 0.02861 0.65277 0.0
H490 H 0.10232 0.95479 0.67087 0.0
H491 H 0.09679 0.97057 0.59928 0.0
H492 H 0.11307 0.9489 0.60095 0.0
H493 H 0.16115 0.05169 0.69838 0.0
H494 H 0.13332 0.04883 0.67653 0.0
H495 H 0.14009 0.03375 0.74773 0.0
H496 H 0.06074 0.02252 0.6432 0.0
H497 H 0.07491 0.98569 0.81591 0.0
H498 H 0.11383 0.03804 0.58432 0.0
H499 H 0.08592 0.03431 0.56272 0.0
H500 H 0.10065 0.01172 0.55689 0.0
H501 H 0.11808 0.96577 0.76969 0.0
H502 H 0.10808 0.97493 0.83629 0.0
H503 H 0.13072 0.99303 0.79322 0.0
C504 C 0.48963 0.10711 0.44727 0.0
C505 C 0.50201 0.12991 0.44245 0.0
C506 C 0.49407 0.08936 0.49193 0.0
C507 C 0.51096 0.09459 0.53386 0.0
C508 C 0.52391 0.11733 0.52823 0.0
C509 C 0.51951 0.13455 0.48209 0.0
C510 C 0.48025 0.06515 0.49535 0.0
C511 C 0.54193 0.12374 0.5724 0.0
C512 C 0.50683 0.05644 0.68886 0.0
C513 C 0.52197 0.04275 0.68242 0.0
C514 C 0.50326 0.07355 0.64111 0.0
C515 C 0.51467 0.07655 0.58495 0.0
C516 C 0.52976 0.06251 0.57799 0.0
C517 C 0.53345 0.04601 0.62713 0.0
C518 C 0.4874 0.08853 0.65093 0.0
C519 C 0.54184 0.06472 0.51842 0.0
H520 H 0.47593 0.10323 0.41764 0.0
H521 H 0.5296 0.15187 0.47798 0.0
H522 H 0.49051 0.05203 0.4965 0.0
H523 H 0.47056 0.061 0.53826 0.0
H524 H 0.46913 0.06335 0.45597 0.0
H525 H 0.55068 0.14213 0.56137 0.0
H526 H 0.53533 0.12116 0.61968 0.0
H527 H 0.5536 0.11218 0.57201 0.0
H528 H 0.49791 0.05392 0.73147 0.0
H529 H 0.54505 0.03531 0.62177 0.0
H530 H 0.47416 0.08596 0.61744 0.0
H531 H 0.49545 0.10722 0.64306 0.0
H532 H 0.48035 0.08447 0.69788 0.0
H533 H 0.53028 0.06189 0.48043 0.0
H534 H 0.55256 0.05202 0.51986 0.0
H535 H 0.55171 0.08258 0.50753 0.0
C536 C 0.37114 0.53534 0.66363 0.0
C537 C 0.36473 0.52738 0.60757 0.0
C538 C 0.39018 0.53119 0.69213 0.0
C539 C 0.40291 0.51831 0.6647 0.0
C540 C 0.39621 0.50953 0.60933 0.0
C541 C 0.37737 0.5144 0.58111 0.0
C542 C 0.39698 0.54112 0.7507 0.0
C543 C 0.40922 0.49546 0.57907 0.0
C544 C 0.46283 0.52747 0.69375 0.0
C545 C 0.46412 0.50813 0.737 0.0
C546 C 0.44292 0.53136 0.67138 0.0
C547 C 0.42389 0.51518 0.69174 0.0
C548 C 0.42509 0.49572 0.73605 0.0
C549 C 0.44525 0.49257 0.75881 0.0
C550 C 0.44229 0.55262 0.62531 0.0
C551 C 0.40518 0.47788 0.75796 0.0
H552 H 0.36131 0.54493 0.6853 0.0
H553 H 0.37285 0.50845 0.53744 0.0
H554 H 0.39945 0.52705 0.78722 0.0
H555 H 0.41257 0.55373 0.7433 0.0
H556 H 0.38497 0.55017 0.76712 0.0
H557 H 0.40089 0.48824 0.53903 0.0
H558 H 0.42494 0.50661 0.56336 0.0
H559 H 0.41259 0.48082 0.61243 0.0
H560 H 0.47745 0.53963 0.6774 0.0
H561 H 0.4463 0.47758 0.7922 0.0
H562 H 0.43111 0.56274 0.6413 0.0
H563 H 0.43616 0.54717 0.58099 0.0
H564 H 0.4584 0.56426 0.61729 0.0
H565 H 0.39324 0.48649 0.77644 0.0
H566 H 0.40878 0.46416 0.79398 0.0
H567 H 0.39757 0.46943 0.71881 0.0
C568 C 0.05805 0.40635 0.51889 0.0
C569 C 0.04093 0.39765 0.48171 0.0
C570 C 0.05638 0.42333 0.5563 0.0
C571 C 0.03714 0.43184 0.55647 0.0
C572 C 0.0201 0.42374 0.51741 0.0
C573 C 0.02219 0.40674 0.48058 0.0
C574 C 0.07491 0.43151 0.59729 0.0
C575 C -0.0006 0.43255 0.5158 0.0
C576 C 0.02204 0.45586 0.69731 0.0
C577 C 0.0275 0.47995 0.67855 0.0
C578 C 0.02543 0.44001 0.65838 0.0
C579 C 0.03444 0.4485 0.59924 0.0
C580 C 0.04035 0.47285 0.58057 0.0
C581 C 0.03685 0.48829 0.62054 0.0
C582 C 0.01905 0.41418 0.68017 0.0
C583 C 0.05002 0.48259 0.51798 0.0
H584 H 0.07247 0.3992 0.52069 0.0
H585 H 0.009 0.40028 0.45146 0.0
H586 H 0.07956 0.45083 0.59012 0.0
H587 H 0.06991 0.42611 0.64597 0.0
H588 H 0.08924 0.42429 0.58899 0.0
H589 H 0.98812 0.42536 0.48075 0.0
H590 H 0.99131 0.42764 0.56127 0.0
H591 H 0.00283 0.45186 0.50599 0.0
H592 H 0.01489 0.44936 0.74224 0.0
H593 H 0.04117 0.50693 0.60595 0.0
H594 H 0.03303 0.40583 0.67717 0.0
H595 H 0.00636 0.40595 0.65014 0.0
H596 H 0.01293 0.41044 0.72814 0.0
H597 H 0.06466 0.47574 0.51124 0.0
H598 H 0.05435 0.50196 0.51119 0.0
H599 H 0.03843 0.47688 0.48207 0.0
C600 C 0.888 0.03428 0.06874 0.0
C601 C 0.86862 0.01813 0.06521 0.0
C602 C 0.90717 0.03083 0.04452 0.0
C603 C 0.90697 0.01068 0.01628 0.0
C604 C 0.88751 0.99418 0.01313 0.0
C605 C 0.86856 0.99812 0.03754 0.0
C606 C 0.92759 0.04888 0.04851 0.0
C607 C 0.8867 0.97241 0.9838 0.0
C608 C 0.95276 0.01377 0.90514 0.0
C609 C 0.96692 1.00292 0.94248 0.0
C610 C 0.93296 0.016 0.92821 0.0
C611 C 0.92718 0.007 0.98991 0.0
C612 C 0.94112 0.99531 0.02711 0.0
C613 C 0.96086 0.99345 1.00295 0.0
C614 C 0.91854 0.02858 0.88711 0.0
C615 C 0.93544 0.98533 0.09294 0.0
H616 H 0.8881 0.04992 0.08932 0.0
H617 H 0.85366 0.98545 0.0353 0.0
H618 H 0.94005 0.04069 0.07339 0.0
H619 H 0.93401 0.05611 1.00181 0.0
H620 H 0.92506 0.0635 0.07228 0.0
H621 H 0.87032 0.96119 0.98558 0.0
H622 H 0.89196 0.9772 0.9352 0.0
H623 H 0.89798 0.9621 0.00721 0.0
H624 H 0.95739 0.02107 0.85829 0.0
H625 H 0.97174 0.98494 0.03182 0.0
H626 H 0.91672 0.04457 0.90578 0.0
H627 H 0.90226 0.01739 0.88574 0.0
H628 H 0.92494 0.03365 0.83955 0.0
H629 H 0.93446 0.99962 0.11981 0.0
H630 H 0.94745 0.97559 0.11463 0.0
H631 H 0.91942 0.97341 0.0957 0.0
C632 C 0.55318 0.90596 0.24352 0.0
C633 C 0.54449 0.88209 0.24477 0.0
C634 C 0.54761 0.92251 0.19723 0.0
C635 C 0.53329 0.91496 0.15052 0.0
C636 C 0.52419 0.89092 0.15222 0.0
C637 C 0.5298 0.87481 0.19947 0.0
C638 C 0.55738 0.94802 0.19761 0.0
C639 C 0.50911 0.8821 0.10291 0.0
C640 C 0.50595 0.95863 0.05294 0.0
C641 C 0.51931 0.9648 1.00086 0.0
C642 C 0.51035 0.94253 0.10214 0.0
C643 C 0.52837 0.9321 0.09876 0.0
C644 C 0.54168 0.93799 0.04571 0.0
C645 C 0.53708 0.9544 0.9976 0.0
C646 C 0.49589 0.93691 0.15807 0.0
C647 C 0.56086 0.92702 0.03985 0.0
H648 H 0.56449 0.91166 0.27852 0.0
H649 H 0.52334 0.85635 0.19954 0.0
H650 H 0.56775 0.95472 0.15645 0.0
H651 H 0.54453 0.95825 0.19561 0.0
H652 H 0.56723 0.95115 0.239 0.0
H653 H 0.50284 0.86296 0.11198 0.0
H654 H 0.49529 0.89098 0.09898 0.0
H655 H 0.51761 0.88625 0.05799 0.0
H656 H 0.49222 0.9667 0.05574 0.0
H657 H 0.54747 0.95916 0.95747 0.0
H658 H 0.50543 0.94123 0.19916 0.0
H659 H 0.48882 0.91795 0.16601 0.0
H660 H 0.48261 0.94662 0.15369 0.0
H661 H 0.5725 0.93136 0.07677 0.0
H662 H 0.56924 0.93298 0.99494 0.0
H663 H 0.55568 0.90774 0.04535 0.0
C664 C 0.64652 0.45416 0.04342 0.0
C665 C 0.66193 0.47257 0.06118 0.0
C666 C 0.62678 0.45794 0.01905 0.0
C667 C 0.62224 0.48058 0.01377 0.0
C668 C 0.63778 0.49923 0.03185 0.0
C669 C 0.65757 0.49503 0.05475 0.0
C670 C 0.61078 0.43773 0.99914 0.0
C671 C 0.63333 0.52348 0.02817 0.0
C672 C 0.57747 0.49571 0.90895 0.0
C673 C 0.56027 0.49184 0.95041 0.0
C674 C 0.59774 0.49187 0.92875 0.0
C675 C 0.60089 0.48456 0.99164 0.0
C676 C 0.58359 0.48098 0.0337 0.0
C677 C 0.5634 0.48438 0.01241 0.0
C678 C 0.61569 0.49538 0.88239 0.0
C679 C 0.58641 0.47364 0.10128 0.0
H680 H 0.65006 0.43685 0.04785 0.0
H681 H 0.66951 0.50922 0.06884 0.0
H682 H 0.59594 0.43423 0.02752 0.0
H683 H 0.60611 0.44215 0.95086 0.0
H684 H 0.61726 0.42154 1.00319 0.0
H685 H 0.6472 0.53608 0.04361 0.0
H686 H 0.62946 0.52989 0.98043 0.0
H687 H 0.61911 0.5231 0.05703 0.0
H688 H 0.57498 0.50136 0.86092 0.0
H689 H 0.5501 0.48147 0.04455 0.0
H690 H 0.62174 0.47902 0.8835 0.0
H691 H 0.62936 0.509 0.89411 0.0
H692 H 0.61048 0.5006 0.83505 0.0
H693 H 0.59117 0.45647 0.10857 0.0
H694 H 0.5715 0.47233 0.12816 0.0
H695 H 0.59951 0.48637 0.11948 0.0
C696 C 0.97668 0.60478 0.13881 0.0
C697 C 0.99338 0.61185 0.17907 0.0
C698 C 0.97847 0.58888 0.09829 0.0
C699 C 0.9974 0.57978 0.0981 0.0
C700 C 0.01401 0.58629 0.13996 0.0
C701 C 0.01182 0.60225 0.17984 0.0
C702 C 0.9604 0.58237 0.05439 0.0
C703 C 0.03435 0.57678 0.14168 0.0
C704 C 0.99713 0.52455 0.02772 0.0
C705 C 0.00742 0.53352 0.97122 0.0
C706 C 0.9934 0.5394 0.069 0.0
C707 C 9e-05 0.56384 0.05332 0.0
C708 C 0.01002 0.57301 0.99561 0.0
C709 C 0.01357 0.55772 0.9552 0.0
C710 C 0.98272 0.52892 0.12992 0.0
C711 C 0.01727 0.59897 0.97705 0.0
H712 H 0.96252 0.61237 0.13733 0.0
H713 H 0.02468 0.60746 0.21125 0.0
H714 H 0.96618 0.58848 0.00659 0.0
H715 H 0.95505 0.56314 0.05881 0.0
H716 H 0.94633 0.59008 0.06232 0.0
H717 H 0.04542 0.58295 0.17835 0.0
H718 H 0.03035 0.55744 0.14918 0.0
H719 H 0.04291 0.5822 0.09699 0.0
H720 H 0.99223 0.50583 0.04016 0.0
H721 H 0.02145 0.56471 0.91143 0.0
H722 H 0.96834 0.53628 0.13627 0.0
H723 H 0.99394 0.53345 0.16765 0.0
H724 H 0.97772 0.50963 0.13413 0.0
H725 H 0.00359 0.60777 0.98011 0.0
H726 H 0.02395 0.60333 0.92968 0.0
H727 H 0.02979 0.60618 0.00899 0.0
C728 C 0.03664 0.16902 0.57548 0.0
C729 C 0.02852 0.18735 0.59385 0.0
C730 C 0.03192 0.14664 0.60865 0.0
C731 C 0.01848 0.14234 0.66113 0.0
C732 C 0.00973 0.16056 0.67921 0.0
C733 C 0.01493 0.18293 0.64539 0.0
C734 C 0.04164 0.12768 0.58803 0.0
C735 C 0.99524 0.1565 0.73481 0.0
C736 C 0.99672 0.07799 0.71171 0.0
C737 C 0.01199 0.07283 0.75533 0.0
C738 C 0.99784 0.10093 0.68298 0.0
C739 C 0.01464 0.11897 0.6983 0.0
C740 C 0.02936 0.11403 0.74468 0.0
C741 C 0.02785 0.09104 0.77262 0.0
C742 C 0.98171 0.10565 0.63419 0.0
C743 C 0.04749 0.13277 0.76245 0.0
H744 H 0.0467 0.17215 0.53479 0.0
H745 H 0.00866 0.19705 0.65991 0.0
H746 H 0.05206 0.12124 0.62459 0.0
H747 H 0.02877 0.11267 0.57972 0.0
H748 H 0.05144 0.13383 0.54549 0.0
H749 H 0.9886 0.17206 0.7403 0.0
H750 H 0.9817 0.14152 0.73153 0.0
H751 H 0.00435 0.152 0.77663 0.0
H752 H 0.9843 0.06405 0.69858 0.0
H753 H 0.03955 0.08729 0.80696 0.0
H754 H 0.98977 0.10972 0.58865 0.0
H755 H 0.97516 0.12105 0.64173 0.0
H756 H 0.96814 0.09048 0.63315 0.0
H757 H 0.05603 0.12658 0.80394 0.0
H758 H 0.04135 0.14826 0.77118 0.0
H759 H 0.05929 0.13848 0.72411 0.0
C760 C 0.36539 0.93525 0.68606 0.0
C761 C 0.3474 0.93332 0.72387 0.0
C762 C 0.38616 0.93791 0.71017 0.0
C763 C 0.38907 0.93864 0.77372 0.0
C764 C 0.37089 0.93436 0.81296 0.0
C765 C 0.35022 0.93185 0.78751 0.0
C766 C 0.40508 0.94249 0.66652 0.0
C767 C 0.37331 0.93446 0.88116 0.0
C768 C 0.44711 0.94456 0.82655 0.0
C769 C 0.45351 0.96887 0.82327 0.0
C770 C 0.42577 0.93416 0.81389 0.0
C771 C 0.41078 0.94849 0.79623 0.0
C772 C 0.41709 0.97296 0.79459 0.0
C773 C 0.43826 0.98278 0.80866 0.0
C774 C 0.41944 0.90798 0.81768 0.0
C775 C 0.40173 0.98898 0.77524 0.0
H776 H 0.3635 0.93665 0.6368 0.0
H777 H 0.33638 0.92994 0.81715 0.0
H778 H 0.41282 0.96128 0.66159 0.0
H779 H 0.41731 0.93245 0.68448 0.0
H780 H 0.40015 0.9379 0.62037 0.0
H781 H 0.3581 0.92602 0.90623 0.0
H782 H 0.38625 0.9254 0.89907 0.0
H783 H 0.37785 0.95274 0.89092 0.0
H784 H 0.45877 0.9337 0.83848 0.0
H785 H 0.44302 1.00158 0.80598 0.0
H786 H 0.41689 0.90307 0.77091 0.0
H787 H 0.40406 0.90133 0.84332 0.0
H788 H 0.43195 0.8992 0.84029 0.0
H789 H 0.39664 0.9874 0.72728 0.0
H790 H 0.40902 0.00756 0.77816 0.0
H791 H 0.38705 0.98391 0.80447 0.0
C792 C 0.47469 0.31127 0.46367 0.0
C793 C 0.45412 0.29722 0.47462 0.0
C794 C 0.4833 0.32787 0.50156 0.0
C795 C 0.47113 0.33038 0.55229 0.0
C796 C 0.45078 0.31546 0.56569 0.0
C797 C 0.44246 0.29895 0.5265 0.0
C798 C 0.50509 0.34338 0.48565 0.0
C799 C 0.43752 0.31754 0.61991 0.0
C800 C 0.50452 0.36825 0.65893 0.0
C801 C 0.50052 0.3902 0.63561 0.0
C802 C 0.49382 0.34813 0.63534 0.0
C803 C 0.47909 0.35021 0.58685 0.0
C804 C 0.47436 0.37223 0.56506 0.0
C805 C 0.48513 0.39194 0.58976 0.0
C806 C 0.49902 0.32488 0.66028 0.0
C807 C 0.45892 0.37524 0.513 0.0
H808 H 0.48405 0.30944 0.42468 0.0
H809 H 0.42665 0.28791 0.53537 0.0
H810 H 0.50333 0.36173 0.47358 0.0
H811 H 0.51589 0.34275 0.52569 0.0
H812 H 0.51292 0.33829 0.44647 0.0
H813 H 0.4235 0.30275 0.62871 0.0
H814 H 0.44752 0.31828 0.66171 0.0
H815 H 0.43151 0.334 0.61135 0.0
H816 H 0.51614 0.36687 0.69523 0.0
H817 H 0.48209 0.40893 0.57147 0.0
H818 H 0.50908 0.31952 0.62652 0.0
H819 H 0.48409 0.31123 0.66774 0.0
H820 H 0.50791 0.32558 0.70411 0.0
H821 H 0.46593 0.37205 0.47003 0.0
H822 H 0.45538 0.39303 0.50574 0.0
H823 H 0.44356 0.36236 0.52184 0.0
C824 C 0.16572 0.54426 0.65847 0.0
C825 C 0.18199 0.56442 0.64818 0.0
C826 C 0.14699 0.54398 0.69097 0.0
C827 C 0.14467 0.56417 0.7158 0.0
C828 C 0.16156 0.58416 0.70909 0.0
C829 C 0.17997 0.58416 0.67464 0.0
C830 C 0.12942 0.52219 0.69713 0.0
C831 C 0.15998 0.60572 0.73668 0.0
C832 C 0.08577 0.56359 0.73435 0.0
C833 C 0.08167 0.55018 0.79191 0.0
C834 C 0.10679 0.57035 0.71059 0.0
C835 C 0.12401 0.5641 0.74631 0.0
C836 C 0.12013 0.5532 0.80747 0.0
C837 C 0.09888 0.54578 0.8291 0.0
C838 C 0.11016 0.58169 0.64489 0.0
C839 C 0.13819 0.54741 0.84808 0.0
H840 H 0.16747 0.52866 0.64012 0.0
H841 H 0.19246 0.59982 0.66705 0.0
H842 H 0.12637 0.51518 0.74618 0.0
H843 H 0.11421 0.5264 0.67778 0.0
H844 H 0.13354 0.50829 0.67332 0.0
H845 H 0.17594 0.61755 0.73885 0.0
H846 H 0.14927 0.61542 0.70831 0.0
H847 H 0.15293 0.60104 0.78354 0.0
H848 H 0.07239 0.56686 0.70553 0.0
H849 H 0.09567 0.53555 0.87395 0.0
H850 H 0.11336 0.56871 0.61626 0.0
H851 H 0.1243 0.59636 0.64056 0.0
H852 H 0.09586 0.58831 0.62636 0.0
H853 H 0.14261 0.53138 0.83609 0.0
H854 H 0.1334 0.54434 0.89721 0.0
H855 H 0.15269 0.56165 0.84132 0.0
C856 C 0.00229 0.83965 0.11646 0.0
C857 C 0.00583 0.82008 0.09207 0.0
C858 C 0.00654 0.86179 0.08187 0.0
C859 C 0.01471 0.86446 0.02149 0.0
C860 C 0.01905 0.84494 0.9972 0.0
C861 C 0.01453 0.8229 0.03287 0.0
C862 C 0.00166 0.88219 0.10937 0.0
C863 C 0.02779 0.84721 0.93297 0.0
C864 C 0.00053 0.91562 0.91888 0.0
C865 C 0.01916 0.93291 0.9217 0.0
C866 C 0.99926 0.89295 0.94887 0.0
C867 C 0.01707 0.88742 0.98275 0.0
C868 C 0.03625 0.9045 0.98401 0.0
C869 C 0.03706 0.92714 0.95356 0.0
C870 C 0.97847 0.87525 0.94656 0.0
C871 C 0.05562 0.89909 0.01925 0.0
H872 H 0.99603 0.83763 0.16275 0.0
H873 H 0.01725 0.80778 0.01385 0.0
H874 H 0.01611 0.8965 0.10689 0.0
H875 H 0.98882 0.88911 0.08277 0.0
H876 H 0.99631 0.87733 0.15796 0.0
H877 H 0.03213 0.83084 0.92297 0.0
H878 H 0.01558 0.85176 0.89942 0.0
H879 H 0.04223 0.86152 0.92589 0.0
H880 H 0.98658 0.91992 0.89478 0.0
H881 H 0.05157 0.94038 0.95551 0.0
H882 H 0.97088 0.8709 0.99276 0.0
H883 H 0.98163 0.85886 0.93312 0.0
H884 H 0.96685 0.88175 0.91382 0.0
H885 H 0.05192 0.89603 0.06906 0.0
H886 H 0.06996 0.9135 0.01049 0.0
H887 H 0.05962 0.88289 0.00695 0.0
C888 C 0.68799 0.08083 0.91275 0.0
C889 C 0.68946 0.07774 0.97681 0.0
C890 C 0.66786 0.0772 0.88404 0.0
C891 C 0.64892 0.0698 0.9204 0.0
C892 C 0.65033 0.06818 0.98498 0.0
C893 C 0.67058 0.07231 0.01233 0.0
C894 C 0.66696 0.07977 0.81502 0.0
C895 C 0.63058 0.06007 0.02557 0.0
C896 C 0.59161 0.06361 0.86264 0.0
C897 C 0.58611 0.03957 0.85953 0.0
C898 C 0.61253 0.07418 0.87841 0.0
C899 C 0.62807 0.06026 0.8925 0.0
C900 C 0.62286 0.03623 0.88646 0.0
C901 C 0.60204 0.02625 0.86956 0.0
C902 C 0.6177 0.09998 0.88266 0.0
C903 C 0.63889 0.02067 0.90149 0.0
H904 H 0.70258 0.08523 0.88518 0.0
H905 H 0.67162 0.06962 0.06187 0.0
H906 H 0.66382 0.06226 0.79995 0.0
H907 H 0.65367 0.08841 0.79785 0.0
H908 H 0.68231 0.08999 0.79364 0.0
H909 H 0.63422 0.06188 0.07438 0.0
H910 H 0.61806 0.0701 0.01029 0.0
H911 H 0.6237 0.04144 0.02229 0.0
H912 H 0.57947 0.07408 0.85419 0.0
H913 H 0.59803 0.00769 0.86687 0.0
H914 H 0.63356 0.10824 0.86116 0.0
H915 H 0.61864 0.10271 0.93151 0.0
H916 H 0.60528 0.10895 0.86029 0.0
H917 H 0.65406 0.02797 0.8753 0.0
H918 H 0.63267 1.00265 0.89111 0.0
H919 H 0.64287 0.01978 0.95091 0.0
C920 C 0.5537 0.71383 0.11157 0.0
C921 C 0.57479 0.71568 0.13382 0.0
C922 C 0.54362 0.69467 0.08347 0.0
C923 C 0.55466 0.67657 0.07864 0.0
C924 C 0.57642 0.67901 0.0967 0.0
C925 C 0.58631 0.69867 0.12362 0.0
C926 C 0.5205 0.69291 0.06376 0.0
C927 C 0.58873 0.66006 0.09207 0.0
C928 C 0.51867 0.61647 0.09599 0.0
C929 C 0.51684 0.61175 0.03533 0.0
C930 C 0.53143 0.63725 0.11062 0.0
C931 C 0.54242 0.6539 0.06331 0.0
C932 C 0.5407 0.64929 1.00192 0.0
C933 C 0.52797 0.6282 0.98866 0.0
C934 C 0.53292 0.64151 0.17678 0.0
C935 C 0.55203 0.66673 0.95029 0.0
H936 H 0.54437 0.72653 0.11968 0.0
H937 H 0.60275 0.70015 0.13921 0.0
H938 H 0.51808 0.68691 0.01814 0.0
H939 H 0.50987 0.67989 0.09688 0.0
H940 H 0.51537 0.70985 0.06166 0.0
H941 H 0.60624 0.66606 0.09917 0.0
H942 H 0.58263 0.64497 0.12744 0.0
H943 H 0.58629 0.6538 0.04677 0.0
H944 H 0.50994 0.60396 0.13213 0.0
H945 H 0.52698 0.62444 0.94182 0.0
H946 H 0.52597 0.65684 0.18231 0.0
H947 H 0.55002 0.6455 0.19073 0.0
H948 H 0.52429 0.62628 0.20833 0.0
H949 H 0.54539 0.6828 0.94598 0.0
H950 H 0.55024 0.65982 0.9057 0.0
H951 H 0.56942 0.67182 0.96022 0.0
C952 C 0.86503 0.46449 0.97721 0.0
C953 C 0.84922 0.44406 0.97905 0.0
C954 C 0.88509 0.46629 0.94988 0.0
C955 C 0.88925 0.44736 0.92241 0.0
C956 C 0.87312 0.42685 0.9227 0.0
C957 C 0.85331 0.4253 0.95202 0.0
C958 C 0.90197 0.48834 0.95152 0.0
C959 C 0.87681 0.40663 0.89236 0.0
C960 C 0.93697 0.46926 0.81614 0.0
C961 C 0.95372 0.46429 0.85455 0.0
C962 C 0.91546 0.46148 0.83514 0.0
C963 C 0.91079 0.4493 0.89482 0.0
C964 C 0.92761 0.44276 0.93188 0.0
C965 C 0.94894 0.45008 0.91078 0.0
C966 C 0.8979 0.46793 0.79334 0.0
C967 C 0.92338 0.43022 0.99627 0.0
H968 H 0.86187 0.47885 0.99889 0.0
H969 H 0.84098 0.40952 0.95357 0.0
H970 H 0.91669 0.48408 0.97414 0.0
H971 H 0.90655 0.4968 0.9042 0.0
H972 H 0.89632 0.50111 0.97642 0.0
H973 H 0.86214 0.39261 0.89312 0.0
H974 H 0.88203 0.41272 0.84408 0.0
H975 H 0.88989 0.39913 0.91592 0.0
H976 H 0.94074 0.48012 0.77234 0.0
H977 H 0.96196 0.44644 0.94061 0.0
H978 H 0.8917 0.48218 0.8101 0.0
H979 H 0.88422 0.45284 0.79346 0.0
H980 H 0.90376 0.47392 0.74548 0.0
H981 H 0.9196 0.44251 0.02621 0.0
H982 H 0.9375 0.42341 0.01544 0.0
H983 H 0.90932 0.41551 0.99776 0.0
C984 C 0.08427 0.21604 0.17167 0.0
C985 C 0.07619 0.23504 0.14226 0.0
C986 C 0.08383 0.19611 0.14339 0.0
C987 C 0.07514 0.19505 0.08399 0.0
C988 C 0.06763 0.21446 0.05305 0.0
C989 C 0.06814 0.23418 0.08268 0.0
C990 C 0.09182 0.17576 0.1783 0.0
C991 C 0.05846 0.21409 0.98944 0.0
C992 C 0.0878 0.14707 1.00075 0.0
C993 C 0.0692 0.12957 0.01283 0.0
C994 C 0.08971 0.16878 0.02181 0.0
C995 C 0.0727 0.17302 0.05633 0.0
C996 C 0.05375 0.15555 0.06778 0.0
C997 C 0.05221 0.13411 0.04575 0.0
C998 C 0.11007 0.18703 0.00817 0.0
C999 C 0.03533 0.15923 0.10496 0.0
H1000 H 0.0901 0.21628 0.21816 0.0
H1001 H 0.06196 0.24882 0.05956 0.0
H1002 H 0.07824 0.16055 0.1876 0.0
H1003 H 0.10389 0.17049 0.15053 0.0
H1004 H 0.09921 0.17984 0.22265 0.0
H1005 H 0.05495 0.23122 0.96969 0.0
H1006 H 0.06982 0.20919 0.95851 0.0
H1007 H 0.04333 0.20072 0.99081 0.0
H1008 H 0.10088 0.14376 0.97472 0.0
H1009 H 0.0379 0.12058 0.05588 0.0
H1010 H 0.11857 0.19039 0.05151 0.0
H1011 H 0.10616 0.20372 0.98662 0.0
H1012 H 0.12118 0.18164 0.9773 0.0
H1013 H 0.04077 0.16163 0.15223 0.0
H1014 H 0.02136 0.14431 0.10751 0.0
H1015 H 0.02995 0.17529 0.0848 0.0
C1016 C 0.35896 0.02405 0.28107 0.0
C1017 C 0.33948 0.03174 0.27556 0.0
C1018 C 0.37414 0.02965 0.23332 0.0
C1019 C 0.36988 0.04348 0.17861 0.0
C1020 C 0.35023 0.05134 0.1726 0.0
C1021 C 0.33514 0.0452 0.22109 0.0
C1022 C 0.39472 0.02058 0.24135 0.0
C1023 C 0.34526 0.06632 0.11522 0.0
C1024 C 0.42079 0.0711 0.08684 0.0
C1025 C 0.42097 0.05501 0.04569 0.0
C1026 C 0.40346 0.0685 0.12761 0.0
C1027 C 0.38604 0.04919 0.12787 0.0
C1028 C 0.38555 0.03368 0.08414 0.0
C1029 C 0.4029 0.03691 0.04327 0.0
C1030 C 0.40445 0.08564 0.17293 0.0
C1031 C 0.36736 0.01278 0.08304 0.0
H1032 H 0.3622 0.0133 0.32271 0.0
H1033 H 0.32011 0.0512 0.21686 0.0
H1034 H 0.39619 0.00977 0.20493 0.0
H1035 H 0.40879 0.03537 0.23682 0.0
H1036 H 0.39547 0.00988 0.28661 0.0
H1037 H 0.32938 0.07121 0.11798 0.0
H1038 H 0.35788 0.08249 0.10703 0.0
H1039 H 0.34536 0.05695 0.07501 0.0
H1040 H 0.43466 0.08509 0.08941 0.0
H1041 H 0.40259 0.02475 0.01055 0.0
H1042 H 0.40766 0.07717 0.21931 0.0
H1043 H 0.38882 0.09109 0.17514 0.0
H1044 H 0.41731 0.10143 0.16106 0.0
H1045 H 0.36796 1.00012 0.12484 0.0
H1046 H 0.36824 1.00382 0.04233 0.0
H1047 H 0.3516 0.01803 0.0833 0.0
C1048 C 0.49506 0.31893 0.99898 0.0
C1049 C 0.47485 0.30457 0.01505 0.0
C1050 C 0.49699 0.34225 0.97215 0.0
C1051 C 0.47825 0.3513 0.95813 0.0
C1052 C 0.45781 0.33646 0.96926 0.0
C1053 C 0.45633 0.31352 0.99863 0.0
C1054 C 0.51914 0.35754 0.96175 0.0
C1055 C 0.43743 0.34508 0.95227 0.0
C1056 C 0.48264 0.41644 0.95899 0.0
C1057 C 0.48704 0.42522 0.89731 0.0
C1058 C 0.47956 0.39238 0.97921 0.0
C1059 C 0.48009 0.37669 0.93626 0.0
C1060 C 0.48334 0.38548 0.87326 0.0
C1061 C 0.48729 0.40969 0.85481 0.0
C1062 C 0.47682 0.38387 0.04697 0.0
C1063 C 0.48324 0.36949 0.82538 0.0
H1064 H 0.50954 0.31223 0.00905 0.0
H1065 H 0.44054 0.30305 0.01092 0.0
H1066 H 0.52141 0.36505 0.91282 0.0
H1067 H 0.52087 0.37234 0.98872 0.0
H1068 H 0.53213 0.34788 0.97513 0.0
H1069 H 0.42305 0.33061 0.95576 0.0
H1070 H 0.435 0.35763 0.98318 0.0
H1071 H 0.43868 0.35441 0.90479 0.0
H1072 H 0.48279 0.4285 0.99194 0.0
H1073 H 0.49072 0.41653 0.80704 0.0
H1074 H 0.49004 0.37495 0.06318 0.0
H1075 H 0.4615 0.37095 0.05593 0.0
H1076 H 0.47685 0.3983 0.07435 0.0
H1077 H 0.49875 0.36366 0.82626 0.0
H1078 H 0.48113 0.37839 0.77854 0.0
H1079 H 0.47022 0.35372 0.83471 0.0
C1080 C 0.20201 0.52768 0.18234 0.0
C1081 C 0.22321 0.52454 0.1797 0.0
C1082 C 0.18627 0.51774 0.14308 0.0
C1083 C 0.1919 0.50451 0.09941 0.0
C1084 C 0.21341 0.50172 0.09536 0.0
C1085 C 0.22882 0.51158 0.13615 0.0
C1086 C 0.16346 0.52091 0.14952 0.0
C1087 C 0.22006 0.48814 0.0485 0.0
C1088 C 0.14368 0.46225 0.04903 0.0
C1089 C 0.13679 0.47576 0.99804 0.0
C1090 C 0.16245 0.4708 0.08041 0.0
C1091 C 0.17486 0.49321 0.05963 0.0
C1092 C 0.16902 0.50608 0.00528 0.0
C1093 C 0.14998 0.49729 0.97551 0.0
C1094 C 0.16808 0.45653 0.13833 0.0
C1095 C 0.18197 0.52989 0.98092 0.0
H1096 H 0.19752 0.5373 0.21677 0.0
H1097 H 0.24523 0.50915 0.13408 0.0
H1098 H 0.15803 0.52928 0.10552 0.0
H1099 H 0.15251 0.50365 0.16088 0.0
H1100 H 0.1618 0.53178 0.18574 0.0
H1101 H 0.23764 0.48871 0.04895 0.0
H1102 H 0.21147 0.46966 0.05752 0.0
H1103 H 0.21548 0.49519 1.00196 0.0
H1104 H 0.13399 0.4453 0.0659 0.0
H1105 H 0.14489 0.50795 0.9365 0.0
H1106 H 0.16524 0.46502 0.17844 0.0
H1107 H 0.18534 0.45569 0.13816 0.0
H1108 H 0.1583 0.43847 0.14445 0.0
H1109 H 0.17885 0.54283 0.00975 0.0
H1110 H 0.17771 0.53559 0.93292 0.0
H1111 H 0.19945 0.53001 0.98289 0.0
C1112 C 0.94725 0.78117 0.52918 0.0
C1113 C 0.96238 0.76759 0.54964 0.0
C1114 C 0.94597 0.80127 0.55499 0.0
C1115 C 0.96031 0.80823 0.60207 0.0
C1116 C 0.97487 0.79403 0.62517 0.0
C1117 C 0.97566 0.77384 0.59891 0.0
C1118 C 0.93007 0.81578 0.5293 0.0
C1119 C 0.99041 0.8008 0.67543 0.0
C1120 C 0.97539 0.87341 0.60963 0.0
C1121 C 0.96266 0.87585 0.65866 0.0
C1122 C 0.97494 0.85149 0.59145 0.0
C1123 C 0.9614 0.8314 0.62292 0.0
C1124 C 0.94863 0.83367 0.67281 0.0
C1125 C 0.94944 0.85585 0.69017 0.0
C1126 C 0.98892 0.84986 0.53824 0.0
C1127 C 0.93389 0.81272 0.70723 0.0
H1128 H 0.93711 0.77686 0.49058 0.0
H1129 H 0.98717 0.76334 0.61579 0.0
H1130 H 0.92095 0.8202 0.56687 0.0
H1131 H 0.93885 0.83244 0.50374 0.0
H1132 H 0.91847 0.8067 0.49777 0.0
H1133 H 0.99926 0.78685 0.69229 0.0
H1134 H 0.00229 0.81683 0.65802 0.0
H1135 H 0.98178 0.80481 0.71457 0.0
H1136 H 0.98593 0.88868 0.58574 0.0
H1137 H 0.93943 0.8576 0.72779 0.0
H1138 H 0.97873 0.84279 0.50098 0.0
H1139 H -0.00026 0.83765 0.55283 0.0
H1140 H 0.9989 0.86704 0.51948 0.0
H1141 H 0.92161 0.80473 0.67571 0.0
H1142 H 0.92553 0.81728 0.74621 0.0
H1143 H 0.94316 0.79929 0.72505 0.0
C1144 C 0.70928 0.00914 0.49747 0.0
C1145 C 0.71318 0.99649 0.45093 0.0
C1146 C 0.69202 1.00058 0.53877 0.0
C1147 C 0.67853 0.97862 0.53427 0.0
C1148 C 0.68328 0.96502 0.49031 0.0
C1149 C 0.70041 0.97418 0.44887 0.0
C1150 C 0.68747 0.01569 0.58483 0.0
C1151 C 0.6695 0.94134 0.48469 0.0
C1152 C 0.63896 0.95228 0.66523 0.0
C1153 C 0.61998 0.95848 0.64159 0.0
C1154 C 0.65809 0.95822 0.63038 0.0
C1155 C 0.65828 0.97102 0.57108 0.0
C1156 C 0.6391 0.97719 0.54699 0.0
C1157 C 0.62017 0.97071 0.58237 0.0
C1158 C 0.67812 0.95096 0.6571 0.0
C1159 C 0.63866 0.99112 0.48432 0.0
H1160 H 0.71932 0.02615 0.50043 0.0
H1161 H 0.70306 0.96429 0.41289 0.0
H1162 H 0.67214 0.02142 0.57319 0.0
H1163 H 0.6855 0.00563 0.63141 0.0
H1164 H 0.70044 0.03142 0.58584 0.0
H1165 H 0.67699 0.93168 0.45424 0.0
H1166 H 0.66657 0.93067 0.53038 0.0
H1167 H 0.65363 0.94346 0.46562 0.0
H1168 H 0.6388 0.94274 0.71094 0.0
H1169 H 0.60561 0.97583 0.56435 0.0
H1170 H 0.6907 0.96664 0.66217 0.0
H1171 H 0.68466 0.94096 0.62562 0.0
H1172 H 0.67505 0.94011 0.70259 0.0
H1173 H 0.65009 0.00815 0.4826 0.0
H1174 H 0.62241 0.99441 0.47224 0.0
H1175 H 0.64391 0.98175 0.449 0.0
C1176 C 0.53911 0.6718 0.61022 0.0
C1177 C 0.55554 0.68976 0.626 0.0
C1178 C 0.5355 0.6494 0.64403 0.0
C1179 C 0.5485 0.64481 0.69537 0.0
C1180 C 0.56458 0.66309 0.71298 0.0
C1181 C 0.56803 0.68529 0.67779 0.0
C1182 C 0.51823 0.63041 0.62347 0.0
C1183 C 0.57856 0.65903 0.76789 0.0
C1184 C 0.52644 0.58949 0.80409 0.0
C1185 C 0.53718 0.5734 0.78355 0.0
C1186 C 0.53052 0.61297 0.77734 0.0
C1187 C 0.54569 0.62063 0.72883 0.0
C1188 C 0.5572 0.60472 0.7096 0.0
C1189 C 0.55285 0.58134 0.73725 0.0
C1190 C 0.51806 0.62943 0.79953 0.0
C1191 C 0.57348 0.61215 0.65794 0.0
H1192 H 0.52962 0.67501 0.56976 0.0
H1193 H 0.58068 0.69912 0.69041 0.0
H1194 H 0.52565 0.61642 0.60992 0.0
H1195 H 0.50687 0.62239 0.66175 0.0
H1196 H 0.50898 0.63702 0.58406 0.0
H1197 H 0.58861 0.67555 0.77962 0.0
H1198 H 0.56853 0.65019 0.80834 0.0
H1199 H 0.58935 0.64739 0.7583 0.0
H1200 H 0.51441 0.58362 0.84013 0.0
H1201 H 0.56123 0.5691 0.72099 0.0
H1202 H 0.50824 0.63611 0.76173 0.0
H1203 H 0.52931 0.64471 0.81383 0.0
H1204 H 0.50718 0.62092 0.83859 0.0
H1205 H 0.5653 0.61725 0.61481 0.0
H1206 H 0.58195 0.59807 0.65073 0.0
H1207 H 0.5856 0.62764 0.66737 0.0
C1208 C 0.82191 0.50805 0.44558 0.0
C1209 C 0.81385 0.48388 0.45097 0.0
C1210 C 0.83784 0.51761 0.48512 0.0
C1211 C 0.84619 0.50264 0.53067 0.0
C1212 C 0.83733 0.4784 0.53866 0.0
C1213 C 0.82117 0.46934 0.499 0.0
C1214 C 0.84667 0.54359 0.47556 0.0
C1215 C 0.84584 0.46185 0.58662 0.0
C1216 C 0.90481 0.52257 0.57024 0.0
C1217 C 0.90336 0.53042 0.62686 0.0
C1218 C 0.88632 0.51329 0.53901 0.0
C1219 C 0.86579 0.51199 0.56474 0.0
C1220 C 0.86417 0.51988 0.62197 0.0
C1221 C 0.88301 0.52887 0.65263 0.0
C1222 C 0.88878 0.50479 0.47847 0.0
C1223 C 0.84256 0.51901 0.65041 0.0
H1224 H 0.81665 0.51949 0.40834 0.0
H1225 H 0.81475 0.45071 0.50443 0.0
H1226 H 0.84783 0.55063 0.51991 0.0
H1227 H 0.86314 0.54718 0.45582 0.0
H1228 H 0.83658 0.5531 0.44405 0.0
H1229 H 0.83573 0.44396 0.59144 0.0
H1230 H 0.86241 0.46092 0.57386 0.0
H1231 H 0.84672 0.46827 0.63177 0.0
H1232 H 0.92051 0.52331 0.55077 0.0
H1233 H 0.88185 0.53496 0.69638 0.0
H1234 H 0.88094 0.51481 0.44169 0.0
H1235 H 0.88065 0.48618 0.48077 0.0
H1236 H 0.9059 0.50656 0.46547 0.0
H1237 H 0.8333 0.52964 0.61928 0.0
H1238 H 0.84406 0.5256 0.69545 0.0
H1239 H 0.8331 0.50085 0.65679 0.0
loop_
_geom_bond_atom_site_label_1
_geom_bond_atom_site_label_2
_geom_bond_distance
_geom_bond_site_symmetry_2
_ccdc_geom_bond_type
C0 C1 1.386 . S
C0 C2 1.397 . S
C0 H24 0.931 . S
C1 C0 1.386 . S
C1 C5 1.397 . S
C2 C0 1.397 . S
C2 C3 1.384 . S
C2 H25 0.930 . S
C3 C2 1.384 . S
C3 C4 1.377 . S
C3 C6 1.481 1_556 S
C4 C3 1.377 . S
C4 C5 1.389 . S
C4 H26 0.929 1_556 S
C5 C1 1.397 . S
C5 C4 1.389 . S
C5 H27 0.931 . S
C6 C3 1.481 1_554 S
C6 C7 1.387 . S
C6 C11 1.390 . S
C7 C6 1.387 . S
C7 C8 1.401 . S
C7 H28 0.930 1_554 S
C8 C7 1.401 . S
C8 C9 1.376 . S
C8 C17 1.511 . S
C9 C8 1.376 . S
C9 C10 1.392 . S
C9 H30 0.931 . S
C10 C9 1.392 . S
C10 C11 1.361 . S
C10 C12 1.500 . S
C11 C6 1.390 . S
C11 C10 1.361 . S
C11 H29 0.931 . S
C12 C10 1.500 . S
C12 C13 1.371 . S
C12 C14 1.365 . S
C13 C12 1.371 . S
C13 C23 1.386 . S
C13 H31 0.931 . S
C14 C12 1.365 . S
C14 C15 1.409 . S
C14 H32 0.929 . S
C15 C14 1.409 . S
C15 C16 1.380 . S
C15 H33 0.930 . S
C16 C15 1.380 . S
C16 C23 1.357 . S
C17 C8 1.511 . S
C17 C18 1.341 1_554 S
C17 C19 1.371 . S
C18 C17 1.341 1_556 S
C18 C22 1.394 . S
C18 H34 0.930 . S
C19 C17 1.371 . S
C19 C20 1.392 . S
C19 H35 0.931 . S
C20 C19 1.392 . S
C20 C21 1.331 . S
C20 H38 0.932 . S
C21 C20 1.331 . S
C21 C22 1.336 1_554 S
C22 C18 1.394 . S
C22 C21 1.336 1_556 S
C22 H37 0.929 . S
C23 C13 1.386 . S
C23 C16 1.357 . S
C23 H36 0.928 . S
H24 C0 0.931 . S
H25 C2 0.930 . S
H26 C4 0.929 1_554 S
H27 C5 0.931 . S
H28 C7 0.930 1_556 S
H29 C11 0.931 . S
H30 C9 0.931 . S
H31 C13 0.931 . S
H32 C14 0.929 . S
H33 C15 0.930 . S
H34 C18 0.930 . S
H35 C19 0.931 . S
H36 C23 0.928 . S
H37 C22 0.929 . S
H38 C20 0.932 . S
C39 C40 1.386 . S
C39 C41 1.397 . S
C39 H63 0.931 . S
C40 C39 1.386 . S
C40 C44 1.397 . S
C41 C39 1.397 . S
C41 C42 1.384 . S
C41 H64 0.930 . S
C42 C41 1.384 . S
C42 C43 1.377 . S
C42 C45 1.481 1_556 S
C43 C42 1.377 . S
C43 C44 1.389 . S
C43 H65 0.929 1_556 S
C44 C40 1.397 . S
C44 C43 1.389 . S
C44 H66 0.931 . S
C45 C42 1.481 1_554 S
C45 C46 1.387 . S
C45 C50 1.390 . S
C46 C45 1.387 . S
C46 C47 1.401 . S
C46 H67 0.930 1_554 S
C47 C46 1.401 . S
C47 C48 1.376 . S
C47 C56 1.511 . S
C48 C47 1.376 . S
C48 C49 1.392 . S
C48 H69 0.931 . S
C49 C48 1.392 . S
C49 C50 1.361 . S
C49 C51 1.500 . S
C50 C45 1.390 . S
C50 C49 1.361 . S
C50 H68 0.931 . S
C51 C49 1.500 . S
C51 C52 1.371 . S
C51 C53 1.365 . S
C52 C51 1.371 . S
C52 C62 1.386 . S
C52 H70 0.931 . S
C53 C51 1.365 . S
C53 C54 1.409 . S
C53 H71 0.929 . S
C54 C53 1.409 . S
C54 C55 1.380 . S
C54 H72 0.930 . S
C55 C54 1.380 . S
C55 C62 1.357 . S
C56 C47 1.511 . S
C56 C57 1.341 1_554 S
C56 C58 1.371 . S
C57 C56 1.341 1_556 S
C57 C61 1.394 . S
C57 H73 0.930 . S
C58 C56 1.371 . S
C58 C59 1.392 . S
C58 H74 0.931 . S
C59 C58 1.392 . S
C59 C60 1.331 . S
C59 H77 0.932 . S
C60 C59 1.331 . S
C60 C61 1.336 1_554 S
C61 C57 1.394 . S
C61 C60 1.336 1_556 S
C61 H76 0.929 . S
C62 C52 1.386 . S
C62 C55 1.357 . S
C62 H75 0.928 . S
H63 C39 0.931 . S
H64 C41 0.930 . S
H65 C43 0.929 1_554 S
H66 C44 0.931 . S
H67 C46 0.930 1_556 S
H68 C50 0.931 . S
H69 C48 0.931 . S
H70 C52 0.931 . S
H71 C53 0.929 . S
H72 C54 0.930 . S
H73 C57 0.930 . S
H74 C58 0.931 . S
H75 C62 0.928 . S
H76 C61 0.929 . S
H77 C59 0.932 . S
C78 C79 1.397 . S
C78 C80 1.397 . S
C78 H102 0.931 . S
C79 C78 1.397 . S
C79 C83 1.387 1_565 S
C80 C78 1.397 . S
C80 C81 1.390 . S
C80 H103 0.930 . S
C81 C80 1.390 . S
C81 C82 1.371 1_565 S
C81 C84 1.479 . S
C82 C81 1.371 1_545 S
C82 C83 1.389 . S
C82 H104 0.929 . S
C83 C79 1.387 1_545 S
C83 C82 1.389 . S
C83 H105 0.931 . S
C84 C81 1.479 . S
C84 C85 1.397 . S
C84 C89 1.386 1_556 S
C85 C84 1.397 . S
C85 C86 1.401 . S
C85 H106 0.930 . S
C86 C85 1.401 . S
C86 C87 1.379 1_556 S
C86 C95 1.521 . S
C87 C86 1.379 1_554 S
C87 C88 1.381 . S
C87 H108 0.936 . S
C88 C87 1.381 . S
C88 C89 1.361 . S
C88 C90 1.494 1_565 S
C89 C84 1.386 1_554 S
C89 C88 1.361 . S
C89 H107 0.929 . S
C90 C88 1.494 1_545 S
C90 C91 1.362 1_545 S
C90 C92 1.379 . S
C91 C90 1.362 1_565 S
C91 C101 1.386 . S
C91 H109 0.931 . S
C92 C90 1.379 . S
C92 C93 1.409 . S
C92 H110 0.929 . S
C93 C92 1.409 . S
C93 C94 1.379 . S
C93 H111 0.930 . S
C94 C93 1.379 . S
C94 C101 1.359 1_545 S
C95 C86 1.521 . S
C95 C96 1.341 . S
C95 C97 1.371 1_566 S
C96 C95 1.341 . S
C96 C100 1.394 . S
C96 H112 0.930 . S
C97 C95 1.371 1_544 S
C97 C98 1.392 1_554 S
C97 H113 0.931 . S
C98 C97 1.392 1_556 S
C98 C99 1.317 1_545 S
C98 H116 0.932 1_556 S
C99 C98 1.317 1_565 S
C99 C100 1.344 . S
C100 C96 1.394 . S
C100 C99 1.344 . S
C100 H115 0.929 . S
C101 C91 1.386 . S
C101 C94 1.359 1_565 S
C101 H114 0.928 . S
H102 C78 0.931 . S
H103 C80 0.930 . S
H104 C82 0.929 . S
H105 C83 0.931 . S
H106 C85 0.930 . S
H107 C89 0.929 . S
H108 C87 0.936 . S
H109 C91 0.931 . S
H110 C92 0.929 . S
H111 C93 0.930 . S
H112 C96 0.930 . S
H113 C97 0.931 . S
H114 C101 0.928 . S
H115 C100 0.929 . S
H116 C98 0.932 1_554 S
C117 C118 1.386 . S
C117 C119 1.397 . S
C117 H141 0.931 . S
C118 C117 1.386 . S
C118 C122 1.397 . S
C119 C117 1.397 . S
C119 C120 1.384 . S
C119 H142 0.930 . S
C120 C119 1.384 . S
C120 C121 1.377 . S
C120 C123 1.481 . S
C121 C120 1.377 . S
C121 C122 1.389 . S
C121 H143 0.929 . S
C122 C118 1.397 . S
C122 C121 1.389 . S
C122 H144 0.931 . S
C123 C120 1.481 . S
C123 C124 1.387 . S
C123 C128 1.390 . S
C124 C123 1.387 . S
C124 C125 1.401 . S
C124 H145 0.930 . S
C125 C124 1.401 . S
C125 C126 1.376 . S
C125 C134 1.511 . S
C126 C125 1.376 . S
C126 C127 1.392 . S
C126 H147 0.931 . S
C127 C126 1.392 . S
C127 C128 1.361 . S
C127 C129 1.500 . S
C128 C123 1.390 . S
C128 C127 1.361 . S
C128 H146 0.931 . S
C129 C127 1.500 . S
C129 C130 1.371 . S
C129 C131 1.365 . S
C130 C129 1.371 . S
C130 C140 1.386 . S
C130 H148 0.931 . S
C131 C129 1.365 . S
C131 C132 1.409 . S
C131 H149 0.929 . S
C132 C131 1.409 . S
C132 C133 1.380 . S
C132 H150 0.930 . S
C133 C132 1.380 . S
C133 C140 1.357 . S
C134 C125 1.511 . S
C134 C135 1.341 . S
C134 C136 1.371 . S
C135 C134 1.341 . S
C135 C139 1.394 . S
C135 H151 0.930 . S
C136 C134 1.371 . S
C136 C137 1.392 . S
C136 H152 0.931 . S
C137 C136 1.392 . S
C137 C138 1.331 . S
C137 H155 0.932 . S
C138 C137 1.331 . S
C138 C139 1.336 . S
C139 C135 1.394 . S
C139 C138 1.336 . S
C139 H154 0.929 . S
C140 C130 1.386 . S
C140 C133 1.357 . S
C140 H153 0.928 . S
H141 C117 0.931 . S
H142 C119 0.930 . S
H143 C121 0.929 . S
H144 C122 0.931 . S
H145 C124 0.930 . S
H146 C128 0.931 . S
H147 C126 0.931 . S
H148 C130 0.931 . S
H149 C131 0.929 . S
H150 C132 0.930 . S
H151 C135 0.930 . S
H152 C136 0.931 . S
H153 C140 0.928 . S
H154 C139 0.929 . S
H155 C137 0.932 . S
C156 C157 1.386 . S
C156 C158 1.397 . S
C156 H180 0.931 . S
C157 C156 1.386 . S
C157 C161 1.397 . S
C158 C156 1.397 . S
C158 C159 1.384 . S
C158 H181 0.930 . S
C159 C158 1.384 . S
C159 C160 1.377 . S
C159 C162 1.481 . S
C160 C159 1.377 . S
C160 C161 1.389 . S
C160 H182 0.929 . S
C161 C157 1.397 . S
C161 C160 1.389 . S
C161 H183 0.931 . S
C162 C159 1.481 . S
C162 C163 1.387 . S
C162 C167 1.390 . S
C163 C162 1.387 . S
C163 C164 1.401 . S
C163 H184 0.930 . S
C164 C163 1.401 . S
C164 C165 1.376 . S
C164 C173 1.511 . S
C165 C164 1.376 . S
C165 C166 1.392 . S
C165 H186 0.931 . S
C166 C165 1.392 . S
C166 C167 1.361 . S
C166 C168 1.500 . S
C167 C162 1.390 . S
C167 C166 1.361 . S
C167 H185 0.931 . S
C168 C166 1.500 . S
C168 C169 1.371 . S
C168 C170 1.365 . S
C169 C168 1.371 . S
C169 C179 1.386 . S
C169 H187 0.931 . S
C170 C168 1.365 . S
C170 C171 1.409 . S
C170 H188 0.929 . S
C171 C170 1.409 . S
C171 C172 1.380 . S
C171 H189 0.930 . S
C172 C171 1.380 . S
C172 C179 1.357 . S
C173 C164 1.511 . S
C173 C174 1.341 . S
C173 C175 1.371 . S
C174 C173 1.341 . S
C174 C178 1.394 . S
C174 H190 0.930 . S
C175 C173 1.371 . S
C175 C176 1.392 . S
C175 H191 0.931 . S
C176 C175 1.392 . S
C176 C177 1.331 . S
C176 H194 0.932 . S
C177 C176 1.331 . S
C177 C178 1.336 . S
C178 C174 1.394 . S
C178 C177 1.336 . S
C178 H193 0.929 . S
C179 C169 1.386 . S
C179 C172 1.357 . S
C179 H192 0.928 . S
H180 C156 0.931 . S
H181 C158 0.930 . S
H182 C160 0.929 . S
H183 C161 0.931 . S
H184 C163 0.930 . S
H185 C167 0.931 . S
H186 C165 0.931 . S
H187 C169 0.931 . S
H188 C170 0.929 . S
H189 C171 0.930 . S
H190 C174 0.930 . S
H191 C175 0.931 . S
H192 C179 0.928 . S
H193 C178 0.929 . S
H194 C176 0.932 . S
C195 C196 1.386 . S
C195 C197 1.397 . S
C195 H219 0.931 . S
C196 C195 1.386 . S
C196 C200 1.397 . S
C197 C195 1.397 . S
C197 C198 1.384 . S
C197 H220 0.930 . S
C198 C197 1.384 . S
C198 C199 1.377 . S
C198 C201 1.481 . S
C199 C198 1.377 . S
C199 C200 1.389 . S
C199 H221 0.929 . S
C200 C196 1.397 . S
C200 C199 1.389 . S
C200 H222 0.931 . S
C201 C198 1.481 . S
C201 C202 1.387 . S
C201 C206 1.390 . S
C202 C201 1.387 . S
C202 C203 1.401 . S
C202 H223 0.930 . S
C203 C202 1.401 . S
C203 C204 1.376 . S
C203 C212 1.511 . S
C204 C203 1.376 . S
C204 C205 1.392 . S
C204 H225 0.931 . S
C205 C204 1.392 . S
C205 C206 1.361 . S
C205 C207 1.500 . S
C206 C201 1.390 . S
C206 C205 1.361 . S
C206 H224 0.931 . S
C207 C205 1.500 . S
C207 C208 1.371 . S
C207 C209 1.365 . S
C208 C207 1.371 . S
C208 C218 1.386 . S
C208 H226 0.931 . S
C209 C207 1.365 . S
C209 C210 1.409 . S
C209 H227 0.929 . S
C210 C209 1.409 . S
C210 C211 1.380 . S
C210 H228 0.930 . S
C211 C210 1.380 . S
C211 C218 1.357 . S
C212 C203 1.511 . S
C212 C213 1.341 . S
C212 C214 1.371 . S
C213 C212 1.341 . S
C213 C217 1.394 . S
C213 H229 0.930 . S
C214 C212 1.371 . S
C214 C215 1.392 . S
C214 H230 0.931 . S
C215 C214 1.392 . S
C215 C216 1.331 . S
C215 H233 0.932 . S
C216 C215 1.331 . S
C216 C217 1.336 . S
C217 C213 1.394 . S
C217 C216 1.336 . S
C217 H232 0.929 . S
C218 C208 1.386 . S
C218 C211 1.357 . S
C218 H231 0.928 . S
H219 C195 0.931 . S
H220 C197 0.930 . S
H221 C199 0.929 . S
H222 C200 0.931 . S
H223 C202 0.930 . S
H224 C206 0.931 . S
H225 C204 0.931 . S
H226 C208 0.931 . S
H227 C209 0.929 . S
H228 C210 0.930 . S
H229 C213 0.930 . S
H230 C214 0.931 . S
H231 C218 0.928 . S
H232 C217 0.929 . S
H233 C215 0.932 . S
C234 C235 1.387 . S
C234 C236 1.397 . S
C234 H258 0.931 . S
C235 C234 1.387 . S
C235 C239 1.396 1_565 S
C236 C234 1.397 . S
C236 C237 1.382 . S
C236 H259 0.930 . S
C237 C236 1.382 . S
C237 C238 1.379 1_565 S
C237 C240 1.481 . S
C238 C237 1.379 1_545 S
C238 C239 1.389 . S
C238 H260 0.929 . S
C239 C235 1.396 1_545 S
C239 C238 1.389 . S
C239 H261 0.931 . S
C240 C237 1.481 . S
C240 C241 1.382 . S
C240 C245 1.394 . S
C241 C240 1.382 . S
C241 C242 1.403 . S
C241 H262 0.930 . S
C242 C241 1.403 . S
C242 C243 1.373 . S
C242 C251 1.507 . S
C243 C242 1.373 . S
C243 C244 1.399 1_565 S
C243 H264 0.932 . S
C244 C243 1.399 1_545 S
C244 C245 1.361 1_545 S
C244 C246 1.507 . S
C245 C240 1.394 . S
C245 C244 1.361 1_565 S
C245 H263 0.933 . S
C246 C244 1.507 . S
C246 C247 1.357 1_545 S
C246 C248 1.373 . S
C247 C246 1.357 1_565 S
C247 C257 1.386 . S
C247 H265 0.931 . S
C248 C246 1.373 . S
C248 C249 1.409 . S
C248 H266 0.929 . S
C249 C248 1.409 . S
C249 C250 1.384 . S
C249 H267 0.930 . S
C250 C249 1.384 . S
C250 C257 1.355 1_545 S
C251 C242 1.507 . S
C251 C252 1.341 . S
C251 C253 1.371 1_565 S
C252 C251 1.341 . S
C252 C256 1.394 . S
C252 H268 0.930 . S
C253 C251 1.371 1_545 S
C253 C254 1.392 . S
C253 H269 0.931 . S
C254 C253 1.392 . S
C254 C255 1.329 1_545 S
C254 H272 0.932 . S
C255 C254 1.329 1_565 S
C255 C256 1.342 . S
C256 C252 1.394 . S
C256 C255 1.342 . S
C256 H271 0.929 . S
C257 C247 1.386 . S
C257 C250 1.355 1_565 S
C257 H270 0.928 . S
H258 C234 0.931 . S
H259 C236 0.930 . S
H260 C238 0.929 . S
H261 C239 0.931 . S
H262 C241 0.930 . S
H263 C245 0.933 . S
H264 C243 0.932 . S
H265 C247 0.931 . S
H266 C248 0.929 . S
H267 C249 0.930 . S
H268 C252 0.930 . S
H269 C253 0.931 . S
H270 C257 0.928 . S
H271 C256 0.929 . S
H272 C254 0.932 . S
C273 C274 1.386 . S
C273 C275 1.397 . S
C273 H297 0.931 . S
C274 C273 1.386 . S
C274 C278 1.397 . S
C275 C273 1.397 . S
C275 C276 1.384 . S
C275 H298 0.930 . S
C276 C275 1.384 . S
C276 C277 1.377 . S
C276 C279 1.481 . S
C277 C276 1.377 . S
C277 C278 1.389 . S
C277 H299 0.929 . S
C278 C274 1.397 . S
C278 C277 1.389 . S
C278 H300 0.931 . S
C279 C276 1.481 . S
C279 C280 1.387 . S
C279 C284 1.390 . S
C280 C279 1.387 . S
C280 C281 1.401 . S
C280 H301 0.930 . S
C281 C280 1.401 . S
C281 C282 1.376 . S
C281 C290 1.511 . S
C282 C281 1.376 . S
C282 C283 1.392 . S
C282 H303 0.931 . S
C283 C282 1.392 . S
C283 C284 1.361 . S
C283 C285 1.500 . S
C284 C279 1.390 . S
C284 C283 1.361 . S
C284 H302 0.931 . S
C285 C283 1.500 . S
C285 C286 1.371 . S
C285 C287 1.365 . S
C286 C285 1.371 . S
C286 C296 1.386 . S
C286 H304 0.931 . S
C287 C285 1.365 . S
C287 C288 1.409 . S
C287 H305 0.929 . S
C288 C287 1.409 . S
C288 C289 1.380 . S
C288 H306 0.930 . S
C289 C288 1.380 . S
C289 C296 1.357 . S
C290 C281 1.511 . S
C290 C291 1.341 . S
C290 C292 1.371 . S
C291 C290 1.341 . S
C291 C295 1.394 . S
C291 H307 0.930 . S
C292 C290 1.371 . S
C292 C293 1.392 . S
C292 H308 0.931 . S
C293 C292 1.392 . S
C293 C294 1.331 . S
C293 H311 0.932 . S
C294 C293 1.331 . S
C294 C295 1.336 . S
C295 C291 1.394 . S
C295 C294 1.336 . S
C295 H310 0.929 . S
C296 C286 1.386 . S
C296 C289 1.357 . S
C296 H309 0.928 . S
H297 C273 0.931 . S
H298 C275 0.930 . S
H299 C277 0.929 . S
H300 C278 0.931 . S
H301 C280 0.930 . S
H302 C284 0.931 . S
H303 C282 0.931 . S
H304 C286 0.931 . S
H305 C287 0.929 . S
H306 C288 0.930 . S
H307 C291 0.930 . S
H308 C292 0.931 . S
H309 C296 0.928 . S
H310 C295 0.929 . S
H311 C293 0.932 . S
Nd312 C314 2.836 1_455 S
Nd312 O332 2.500 1_455 S
Nd312 O333 2.492 . S
Nd312 O334 2.487 . S
Nd312 O335 2.682 1_565 S
Nd312 O336 2.410 . S
Nd312 O341 2.431 1_455 S
Nd312 O343 2.424 1_565 S
Nd313 C323 2.836 . S
Nd313 O335 2.414 . S
Nd313 O337 2.424 1_545 S
Nd313 O338 2.500 . S
Nd313 O339 2.492 . S
Nd313 O340 2.487 1_455 S
Nd313 O341 2.678 1_445 S
Nd313 O342 2.410 . S
C314 Nd312 2.836 1_655 S
C314 C315 1.498 . S
C314 O332 1.258 . S
C314 O333 1.239 1_655 S
C315 C314 1.498 . S
C315 C316 1.366 . S
C315 C320 1.407 . S
C316 C315 1.366 . S
C316 C317 1.392 . S
C316 H344 0.930 . S
C317 C316 1.392 . S
C317 C318 1.398 . S
C317 H345 0.929 . S
C318 C317 1.398 . S
C318 C319 1.352 . S
C319 C318 1.352 . S
C319 C320 1.384 . S
C319 H346 0.930 . S
C320 C315 1.407 . S
C320 C319 1.384 . S
C320 H347 0.929 1_655 S
C321 O334 1.241 . S
C321 O335 1.273 1_565 S
C322 O336 1.251 . S
C322 O337 1.268 . S
C323 Nd313 2.836 . S
C323 C324 1.498 1_556 S
C323 O338 1.258 . S
C323 O339 1.239 . S
C324 C323 1.498 1_554 S
C324 C325 1.366 1_554 S
C324 C329 1.407 . S
C325 C324 1.366 1_556 S
C325 C326 1.392 1_556 S
C325 H348 0.930 . S
C326 C325 1.392 1_554 S
C326 C327 1.398 . S
C326 H349 0.929 . S
C327 C326 1.398 . S
C327 C328 1.352 . S
C328 C327 1.352 . S
C328 C329 1.384 . S
C328 H350 0.930 . S
C329 C324 1.407 . S
C329 C328 1.384 . S
C329 H351 0.929 . S
C330 O340 1.241 . S
C330 O341 1.249 1_545 S
C331 O342 1.251 . S
C331 O343 1.268 . S
O332 Nd312 2.500 1_655 S
O332 C314 1.258 . S
O333 Nd312 2.492 . S
O333 C314 1.239 1_455 S
O334 Nd312 2.487 . S
O334 C321 1.241 . S
O335 Nd312 2.682 1_545 S
O335 Nd313 2.414 . S
O335 C321 1.273 1_545 S
O336 Nd312 2.410 . S
O336 C322 1.251 . S
O337 Nd313 2.424 1_565 S
O337 C322 1.268 . S
O338 Nd313 2.500 . S
O338 C323 1.258 . S
O339 Nd313 2.492 . S
O339 C323 1.239 . S
O340 Nd313 2.487 1_655 S
O340 C330 1.241 . S
O341 Nd312 2.431 1_655 S
O341 Nd313 2.678 1_665 S
O341 C330 1.249 1_565 S
O342 Nd313 2.410 . S
O342 C331 1.251 . S
O343 Nd312 2.424 1_545 S
O343 C331 1.268 . S
H344 C316 0.930 . S
H345 C317 0.929 . S
H346 C319 0.930 . S
H347 C320 0.929 1_455 S
H348 C325 0.930 . S
H349 C326 0.929 . S
H350 C328 0.930 . S
H351 C329 0.929 . S
Nd352 C354 2.836 . S
Nd352 O372 2.500 . S
Nd352 O373 2.491 . S
Nd352 O374 2.487 1_565 S
Nd352 O375 2.682 1_565 S
Nd352 O376 2.410 1_565 S
Nd352 O381 2.414 . S
Nd352 O383 2.424 . S
Nd353 C363 2.836 . S
Nd353 O375 2.414 . S
Nd353 O377 2.424 . S
Nd353 O378 2.500 . S
Nd353 O379 2.492 1_556 S
Nd353 O380 2.487 1_545 S
Nd353 O381 2.682 1_545 S
Nd353 O382 2.410 1_545 S
C354 Nd352 2.836 . S
C354 C355 1.498 . S
C354 O372 1.258 . S
C354 O373 1.279 . S
C355 C354 1.498 . S
C355 C356 1.366 . S
C355 C360 1.407 . S
C356 C355 1.366 . S
C356 C357 1.392 . S
C356 H384 0.930 . S
C357 C356 1.392 . S
C357 C358 1.398 . S
C357 H385 0.929 . S
C358 C357 1.398 . S
C358 C359 1.352 . S
C359 C358 1.352 . S
C359 C360 1.384 . S
C359 H386 0.930 . S
C360 C355 1.407 . S
C360 C359 1.384 . S
C360 H387 0.929 1_565 S
C361 O374 1.241 . S
C361 O375 1.273 . S
C362 O376 1.251 . S
C362 O377 1.268 . S
C363 Nd353 2.836 . S
C363 C364 1.498 1_556 S
C363 O378 1.258 . S
C363 O379 1.239 1_556 S
C364 C363 1.498 1_554 S
C364 C365 1.366 1_554 S
C364 C369 1.407 . S
C365 C364 1.366 1_556 S
C365 C366 1.392 1_556 S
C365 H388 0.930 . S
C366 C365 1.392 1_554 S
C366 C367 1.398 . S
C366 H389 0.929 . S
C367 C366 1.398 . S
C367 C368 1.352 . S
C368 C367 1.352 . S
C368 C369 1.384 . S
C368 H390 0.930 . S
C369 C364 1.407 . S
C369 C368 1.384 . S
C369 H391 0.929 1_545 S
C370 O380 1.241 . S
C370 O381 1.273 . S
C371 O382 1.251 . S
C371 O383 1.268 . S
O372 Nd352 2.500 . S
O372 C354 1.258 . S
O373 Nd352 2.491 . S
O373 C354 1.279 . S
O374 Nd352 2.487 1_545 S
O374 C361 1.241 . S
O375 Nd352 2.682 1_545 S
O375 Nd353 2.414 . S
O375 C361 1.273 . S
O376 Nd352 2.410 1_545 S
O376 C362 1.251 . S
O377 Nd353 2.424 . S
O377 C362 1.268 . S
O378 Nd353 2.500 . S
O378 C363 1.258 . S
O379 Nd353 2.492 1_554 S
O379 C363 1.239 1_554 S
O380 Nd353 2.487 1_565 S
O380 C370 1.241 . S
O381 Nd352 2.414 . S
O381 Nd353 2.682 1_565 S
O381 C370 1.273 . S
O382 Nd353 2.410 1_565 S
O382 C371 1.251 . S
O383 Nd352 2.424 . S
O383 C371 1.268 . S
H384 C356 0.930 . S
H385 C357 0.929 . S
H386 C359 0.930 . S
H387 C360 0.929 1_545 S
H388 C365 0.930 . S
H389 C366 0.929 . S
H390 C368 0.930 . S
H391 C369 0.929 1_565 S
Nd392 C394 2.836 . S
Nd392 O412 2.500 . S
Nd392 O413 2.492 . S
Nd392 O414 2.487 . S
Nd392 O415 2.682 . S
Nd392 O416 2.410 . S
Nd392 O421 2.414 . S
Nd392 O423 2.424 . S
Nd393 C403 2.836 . S
Nd393 O415 2.414 . S
Nd393 O417 2.424 . S
Nd393 O418 2.500 . S
Nd393 O419 2.492 . S
Nd393 O420 2.487 . S
Nd393 O421 2.682 . S
Nd393 O422 2.410 . S
C394 Nd392 2.836 . S
C394 C395 1.498 . S
C394 O412 1.258 . S
C394 O413 1.239 . S
C395 C394 1.498 . S
C395 C396 1.366 . S
C395 C400 1.411 . S
C396 C395 1.366 . S
C396 C397 1.392 . S
C396 H424 0.930 . S
C397 C396 1.392 . S
C397 C398 1.398 . S
C397 H425 0.929 . S
C398 C397 1.398 . S
C398 C399 1.352 1_556 S
C399 C398 1.352 1_554 S
C399 C400 1.382 1_554 S
C399 H426 0.930 . S
C400 C395 1.411 . S
C400 C399 1.382 1_556 S
C400 H427 0.928 1_556 S
C401 O414 1.241 . S
C401 O415 1.273 . S
C402 O416 1.251 . S
C402 O417 1.268 . S
C403 Nd393 2.836 . S
C403 C404 1.498 . S
C403 O418 1.258 . S
C403 O419 1.239 . S
C404 C403 1.498 . S
C404 C405 1.366 . S
C404 C409 1.407 . S
C405 C404 1.366 . S
C405 C406 1.392 . S
C405 H428 0.930 . S
C406 C405 1.392 . S
C406 C407 1.398 . S
C406 H429 0.929 . S
C407 C406 1.398 . S
C407 C408 1.352 . S
C408 C407 1.352 . S
C408 C409 1.384 . S
C408 H430 0.930 . S
C409 C404 1.407 . S
C409 C408 1.384 . S
C409 H431 0.929 . S
C410 O420 1.241 . S
C410 O421 1.273 . S
C411 O422 1.251 . S
C411 O423 1.268 . S
O412 Nd392 2.500 . S
O412 C394 1.258 . S
O413 Nd392 2.492 . S
O413 C394 1.239 . S
O414 Nd392 2.487 . S
O414 C401 1.241 . S
O415 Nd392 2.682 . S
O415 Nd393 2.414 . S
O415 C401 1.273 . S
O416 Nd392 2.410 . S
O416 C402 1.251 . S
O417 Nd393 2.424 . S
O417 C402 1.268 . S
O418 Nd393 2.500 . S
O418 C403 1.258 . S
O419 Nd393 2.492 . S
O419 C403 1.239 . S
O420 Nd393 2.487 . S
O420 C410 1.241 . S
O421 Nd392 2.414 . S
O421 Nd393 2.682 . S
O421 C410 1.273 . S
O422 Nd393 2.410 . S
O422 C411 1.251 . S
O423 Nd392 2.424 . S
O423 C411 1.268 . S
H424 C396 0.930 . S
H425 C397 0.929 . S
H426 C399 0.930 . S
H427 C400 0.928 1_554 S
H428 C405 0.930 . S
H429 C406 0.929 . S
H430 C408 0.930 . S
H431 C409 0.929 . S
Nd432 C434 2.836 1_455 S
Nd432 O452 2.500 1_455 S
Nd432 O453 2.492 1_455 S
Nd432 O454 2.487 . S
Nd432 O455 2.682 . S
Nd432 O456 2.410 1_455 S
Nd432 O461 2.414 . S
Nd432 O463 2.424 . S
Nd433 C443 2.836 . S
Nd433 O455 2.414 . S
Nd433 O457 2.424 1_455 S
Nd433 O458 2.500 . S
Nd433 O459 2.492 . S
Nd433 O460 2.487 . S
Nd433 O461 2.682 . S
Nd433 O462 2.410 . S
C434 Nd432 2.836 1_655 S
C434 C435 1.498 . S
C434 O452 1.258 . S
C434 O453 1.239 . S
C435 C434 1.498 . S
C435 C436 1.366 . S
C435 C440 1.407 . S
C436 C435 1.366 . S
C436 C437 1.392 . S
C436 H464 0.930 . S
C437 C436 1.392 . S
C437 C438 1.398 . S
C437 H465 0.929 . S
C438 C437 1.398 . S
C438 C439 1.352 . S
C439 C438 1.352 . S
C439 C440 1.384 . S
C439 H466 0.930 . S
C440 C435 1.407 . S
C440 C439 1.384 . S
C440 H467 0.929 . S
C441 O454 1.241 . S
C441 O455 1.273 . S
C442 O456 1.251 . S
C442 O457 1.268 . S
C443 Nd433 2.836 . S
C443 C444 1.498 1_556 S
C443 O458 1.258 . S
C443 O459 1.239 . S
C444 C443 1.498 1_554 S
C444 C445 1.366 . S
C444 C449 1.407 . S
C445 C444 1.366 . S
C445 C446 1.392 . S
C445 H468 0.930 1_554 S
C446 C445 1.392 . S
C446 C447 1.398 . S
C446 H469 0.929 . S
C447 C446 1.398 . S
C447 C448 1.352 . S
C448 C447 1.352 . S
C448 C449 1.384 . S
C448 H470 0.930 . S
C449 C444 1.407 . S
C449 C448 1.384 . S
C449 H471 0.929 . S
C450 O460 1.241 . S
C450 O461 1.273 . S
C451 O462 1.251 . S
C451 O463 1.268 . S
O452 Nd432 2.500 1_655 S
O452 C434 1.258 . S
O453 Nd432 2.492 1_655 S
O453 C434 1.239 . S
O454 Nd432 2.487 . S
O454 C441 1.241 . S
O455 Nd432 2.682 . S
O455 Nd433 2.414 . S
O455 C441 1.273 . S
O456 Nd432 2.410 1_655 S
O456 C442 1.251 . S
O457 Nd433 2.424 1_655 S
O457 C442 1.268 . S
O458 Nd433 2.500 . S
O458 C443 1.258 . S
O459 Nd433 2.492 . S
O459 C443 1.239 . S
O460 Nd433 2.487 . S
O460 C450 1.241 . S
O461 Nd432 2.414 . S
O461 Nd433 2.682 . S
O461 C450 1.273 . S
O462 Nd433 2.410 . S
O462 C451 1.251 . S
O463 Nd432 2.424 . S
O463 C451 1.268 . S
H464 C436 0.930 . S
H465 C437 0.929 . S
H466 C439 0.930 . S
H467 C440 0.929 . S
H468 C445 0.930 1_556 S
H469 C446 0.929 . S
H470 C448 0.930 . S
H471 C449 0.929 . S
C472 C473 1.391 . S
C472 C474 1.394 . S
C472 H488 0.931 . S
C473 C472 1.391 . S
C473 C477 1.376 . S
C474 C472 1.394 . S
C474 C475 1.369 . S
C474 C478 1.531 . S
C475 C474 1.369 . S
C475 C476 1.410 . S
C475 C483 1.503 . S
C476 C475 1.410 . S
C476 C477 1.392 . S
C476 C479 1.511 . S
C477 C473 1.376 . S
C477 C476 1.392 . S
C477 H489 0.926 1_565 S
C478 C474 1.531 . S
C478 H490 0.960 . S
C478 H491 0.962 1_565 S
C478 H492 0.960 . S
C479 C476 1.511 . S
C479 H493 0.961 1_565 S
C479 H494 0.961 1_565 S
C479 H495 0.961 . S
C480 C481 1.370 1_545 S
C480 C482 1.363 . S
C480 H496 0.931 . S
C481 C480 1.370 1_565 S
C481 C485 1.408 . S
C482 C480 1.363 . S
C482 C483 1.370 1_545 S
C482 C486 1.524 . S
C483 C475 1.503 . S
C483 C482 1.370 1_565 S
C483 C484 1.403 . S
C484 C483 1.403 . S
C484 C485 1.404 . S
C484 C487 1.539 . S
C485 C481 1.408 . S
C485 C484 1.404 . S
C485 H497 0.930 . S
C486 C482 1.524 . S
C486 H498 0.956 . S
C486 H499 0.961 . S
C486 H500 0.961 . S
C487 C484 1.539 . S
C487 H501 0.958 . S
C487 H502 0.961 . S
C487 H503 0.960 . S
H488 C472 0.931 . S
H489 C477 0.926 1_545 S
H490 C478 0.960 . S
H491 C478 0.962 1_545 S
H492 C478 0.960 . S
H493 C479 0.961 1_545 S
H494 C479 0.961 1_545 S
H495 C479 0.961 . S
H496 C480 0.931 . S
H497 C485 0.930 . S
H498 C486 0.956 . S
H499 C486 0.961 . S
H500 C486 0.961 . S
H501 C487 0.958 . S
H502 C487 0.961 . S
H503 C487 0.960 . S
C504 C505 1.391 . S
C504 C506 1.394 . S
C504 H520 0.931 . S
C505 C504 1.391 . S
C505 C509 1.376 . S
C506 C504 1.394 . S
C506 C507 1.369 . S
C506 C510 1.531 . S
C507 C506 1.369 . S
C507 C508 1.410 . S
C507 C515 1.503 . S
C508 C507 1.410 . S
C508 C509 1.392 . S
C508 C511 1.511 . S
C509 C505 1.376 . S
C509 C508 1.392 . S
C509 H521 0.929 . S
C510 C506 1.531 . S
C510 H522 0.960 . S
C510 H523 0.962 . S
C510 H524 0.960 . S
C511 C508 1.511 . S
C511 H525 0.961 . S
C511 H526 0.961 . S
C511 H527 0.961 . S
C512 C513 1.370 . S
C512 C514 1.363 . S
C512 H528 0.931 . S
C513 C512 1.370 . S
C513 C517 1.408 . S
C514 C512 1.363 . S
C514 C515 1.370 . S
C514 C518 1.524 . S
C515 C507 1.503 . S
C515 C514 1.370 . S
C515 C516 1.403 . S
C516 C515 1.403 . S
C516 C517 1.404 . S
C516 C519 1.539 . S
C517 C513 1.408 . S
C517 C516 1.404 . S
C517 H529 0.930 . S
C518 C514 1.524 . S
C518 H530 0.956 . S
C518 H531 0.961 . S
C518 H532 0.961 . S
C519 C516 1.539 . S
C519 H533 0.958 . S
C519 H534 0.961 . S
C519 H535 0.960 . S
H520 C504 0.931 . S
H521 C509 0.929 . S
H522 C510 0.960 . S
H523 C510 0.962 . S
H524 C510 0.960 . S
H525 C511 0.961 . S
H526 C511 0.961 . S
H527 C511 0.961 . S
H528 C512 0.931 . S
H529 C517 0.930 . S
H530 C518 0.956 . S
H531 C518 0.961 . S
H532 C518 0.961 . S
H533 C519 0.958 . S
H534 C519 0.961 . S
H535 C519 0.960 . S
C536 C537 1.391 . S
C536 C538 1.394 . S
C536 H552 0.931 . S
C537 C536 1.391 . S
C537 C541 1.376 . S
C538 C536 1.394 . S
C538 C539 1.369 . S
C538 C542 1.531 . S
C539 C538 1.369 . S
C539 C540 1.410 . S
C539 C547 1.503 . S
C540 C539 1.410 . S
C540 C541 1.392 . S
C540 C543 1.511 . S
C541 C537 1.376 . S
C541 C540 1.392 . S
C541 H553 0.929 . S
C542 C538 1.531 . S
C542 H554 0.960 . S
C542 H555 0.962 . S
C542 H556 0.960 . S
C543 C540 1.511 . S
C543 H557 0.961 . S
C543 H558 0.961 . S
C543 H559 0.961 . S
C544 C545 1.370 . S
C544 C546 1.363 . S
C544 H560 0.931 . S
C545 C544 1.370 . S
C545 C549 1.408 . S
C546 C544 1.363 . S
C546 C547 1.370 . S
C546 C550 1.524 . S
C547 C539 1.503 . S
C547 C546 1.370 . S
C547 C548 1.403 . S
C548 C547 1.403 . S
C548 C549 1.404 . S
C548 C551 1.539 . S
C549 C545 1.408 . S
C549 C548 1.404 . S
C549 H561 0.930 . S
C550 C546 1.524 . S
C550 H562 0.956 . S
C550 H563 0.961 . S
C550 H564 0.961 . S
C551 C548 1.539 . S
C551 H565 0.958 . S
C551 H566 0.961 . S
C551 H567 0.960 . S
H552 C536 0.931 . S
H553 C541 0.929 . S
H554 C542 0.960 . S
H555 C542 0.962 . S
H556 C542 0.960 . S
H557 C543 0.961 . S
H558 C543 0.961 . S
H559 C543 0.961 . S
H560 C544 0.931 . S
H561 C549 0.930 . S
H562 C550 0.956 . S
H563 C550 0.961 . S
H564 C550 0.961 . S
H565 C551 0.958 . S
H566 C551 0.961 . S
H567 C551 0.960 . S
C568 C569 1.391 . S
C568 C570 1.394 . S
C568 H584 0.931 . S
C569 C568 1.391 . S
C569 C573 1.376 . S
C570 C568 1.394 . S
C570 C571 1.369 . S
C570 C574 1.531 . S
C571 C570 1.369 . S
C571 C572 1.410 . S
C571 C579 1.503 . S
C572 C571 1.410 . S
C572 C573 1.392 . S
C572 C575 1.511 . S
C573 C569 1.376 . S
C573 C572 1.392 . S
C573 H585 0.929 . S
C574 C570 1.531 . S
C574 H586 0.960 . S
C574 H587 0.962 . S
C574 H588 0.960 . S
C575 C572 1.511 . S
C575 H589 0.961 . S
C575 H590 0.961 . S
C575 H591 0.961 . S
C576 C577 1.370 . S
C576 C578 1.363 . S
C576 H592 0.931 . S
C577 C576 1.370 . S
C577 C581 1.408 . S
C578 C576 1.363 . S
C578 C579 1.370 . S
C578 C582 1.524 . S
C579 C571 1.503 . S
C579 C578 1.370 . S
C579 C580 1.403 . S
C580 C579 1.403 . S
C580 C581 1.404 . S
C580 C583 1.539 . S
C581 C577 1.408 . S
C581 C580 1.404 . S
C581 H593 0.930 . S
C582 C578 1.524 . S
C582 H594 0.956 . S
C582 H595 0.961 . S
C582 H596 0.961 . S
C583 C580 1.539 . S
C583 H597 0.958 . S
C583 H598 0.961 . S
C583 H599 0.960 . S
H584 C568 0.931 . S
H585 C573 0.929 . S
H586 C574 0.960 . S
H587 C574 0.962 . S
H588 C574 0.960 . S
H589 C575 0.961 . S
H590 C575 0.961 . S
H591 C575 0.961 . S
H592 C576 0.931 . S
H593 C581 0.930 . S
H594 C582 0.956 . S
H595 C582 0.961 . S
H596 C582 0.961 . S
H597 C583 0.958 . S
H598 C583 0.961 . S
H599 C583 0.960 . S
C600 C601 1.391 . S
C600 C602 1.394 . S
C600 H616 0.931 . S
C601 C600 1.391 . S
C601 C605 1.376 1_545 S
C602 C600 1.394 . S
C602 C603 1.369 . S
C602 C606 1.531 . S
C603 C602 1.369 . S
C603 C604 1.410 1_545 S
C603 C611 1.503 . S
C604 C603 1.410 1_565 S
C604 C605 1.392 . S
C604 C607 1.511 1_556 S
C605 C601 1.376 1_565 S
C605 C604 1.392 . S
C605 H617 0.929 1_556 S
C606 C602 1.531 . S
C606 H618 0.960 . S
C606 H619 0.962 . S
C606 H620 0.960 . S
C607 C604 1.511 1_554 S
C607 H621 0.961 . S
C607 H622 0.961 1_554 S
C607 H623 0.961 . S
C608 C609 1.370 1_565 S
C608 C610 1.363 . S
C608 H624 0.931 . S
C609 C608 1.370 1_545 S
C609 C613 1.408 . S
C610 C608 1.363 . S
C610 C611 1.370 1_565 S
C610 C614 1.524 . S
C611 C603 1.503 . S
C611 C610 1.370 1_545 S
C611 C612 1.403 . S
C612 C611 1.403 . S
C612 C613 1.404 . S
C612 C615 1.539 . S
C613 C609 1.408 . S
C613 C612 1.404 . S
C613 H625 0.930 . S
C614 C610 1.524 . S
C614 H626 0.956 . S
C614 H627 0.961 . S
C614 H628 0.961 . S
C615 C612 1.539 . S
C615 H629 0.958 . S
C615 H630 0.961 . S
C615 H631 0.960 . S
H616 C600 0.931 . S
H617 C605 0.929 1_554 S
H618 C606 0.960 . S
H619 C606 0.962 . S
H620 C606 0.960 . S
H621 C607 0.961 . S
H622 C607 0.961 1_556 S
H623 C607 0.961 . S
H624 C608 0.931 . S
H625 C613 0.930 . S
H626 C614 0.956 . S
H627 C614 0.961 . S
H628 C614 0.961 . S
H629 C615 0.958 . S
H630 C615 0.961 . S
H631 C615 0.960 . S
C632 C633 1.391 . S
C632 C634 1.394 . S
C632 H648 0.931 . S
C633 C632 1.391 . S
C633 C637 1.376 . S
C634 C632 1.394 . S
C634 C635 1.369 . S
C634 C638 1.531 . S
C635 C634 1.369 . S
C635 C636 1.410 . S
C635 C643 1.503 . S
C636 C635 1.410 . S
C636 C637 1.392 . S
C636 C639 1.511 . S
C637 C633 1.376 . S
C637 C636 1.392 . S
C637 H649 0.929 . S
C638 C634 1.531 . S
C638 H650 0.960 . S
C638 H651 0.962 . S
C638 H652 0.960 . S
C639 C636 1.511 . S
C639 H653 0.961 . S
C639 H654 0.961 . S
C639 H655 0.961 . S
C640 C641 1.370 1_554 S
C640 C642 1.363 . S
C640 H656 0.931 . S
C641 C640 1.370 1_556 S
C641 C645 1.408 . S
C642 C640 1.363 . S
C642 C643 1.370 . S
C642 C646 1.524 . S
C643 C635 1.503 . S
C643 C642 1.370 . S
C643 C644 1.403 1_554 S
C644 C643 1.403 1_556 S
C644 C645 1.404 . S
C644 C647 1.539 . S
C645 C641 1.408 . S
C645 C644 1.404 . S
C645 H657 0.930 . S
C646 C642 1.524 . S
C646 H658 0.956 . S
C646 H659 0.961 . S
C646 H660 0.961 . S
C647 C644 1.539 . S
C647 H661 0.958 . S
C647 H662 0.961 . S
C647 H663 0.960 1_556 S
H648 C632 0.931 . S
H649 C637 0.929 . S
H650 C638 0.960 . S
H651 C638 0.962 . S
H652 C638 0.960 . S
H653 C639 0.961 . S
H654 C639 0.961 . S
H655 C639 0.961 . S
H656 C640 0.931 . S
H657 C645 0.930 . S
H658 C646 0.956 . S
H659 C646 0.961 . S
H660 C646 0.961 . S
H661 C647 0.958 . S
H662 C647 0.961 . S
H663 C647 0.960 1_554 S
C664 C665 1.391 1_554 S
C664 C666 1.394 1_554 S
C664 H680 0.931 . S
C665 C664 1.391 1_556 S
C665 C669 1.376 . S
C666 C664 1.394 1_556 S
C666 C667 1.369 . S
C666 C670 1.531 1_556 S
C667 C666 1.369 . S
C667 C668 1.410 . S
C667 C675 1.503 . S
C668 C667 1.410 . S
C668 C669 1.392 . S
C668 C671 1.511 . S
C669 C665 1.376 . S
C669 C668 1.392 . S
C669 H681 0.929 . S
C670 C666 1.531 1_554 S
C670 H682 0.960 . S
C670 H683 0.962 . S
C670 H684 0.960 . S
C671 C668 1.511 . S
C671 H685 0.961 . S
C671 H686 0.961 . S
C671 H687 0.961 . S
C672 C673 1.370 . S
C672 C674 1.363 . S
C672 H688 0.931 . S
C673 C672 1.370 . S
C673 C677 1.408 . S
C674 C672 1.363 . S
C674 C675 1.370 . S
C674 C678 1.524 . S
C675 C667 1.503 . S
C675 C674 1.370 . S
C675 C676 1.403 . S
C676 C675 1.403 . S
C676 C677 1.404 . S
C676 C679 1.539 1_556 S
C677 C673 1.408 . S
C677 C676 1.404 . S
C677 H689 0.930 . S
C678 C674 1.524 . S
C678 H690 0.956 . S
C678 H691 0.961 . S
C678 H692 0.961 . S
C679 C676 1.539 1_554 S
C679 H693 0.958 . S
C679 H694 0.961 1_554 S
C679 H695 0.958 1_554 S
H680 C664 0.931 . S
H681 C669 0.929 . S
H682 C670 0.960 . S
H683 C670 0.962 . S
H684 C670 0.960 . S
H685 C671 0.961 . S
H686 C671 0.961 . S
H687 C671 0.961 . S
H688 C672 0.931 . S
H689 C677 0.930 . S
H690 C678 0.956 . S
H691 C678 0.961 . S
H692 C678 0.961 . S
H693 C679 0.958 . S
H694 C679 0.961 1_556 S
H695 C679 0.958 1_556 S
C696 C697 1.391 . S
C696 C698 1.394 . S
C696 H712 0.931 . S
C697 C696 1.391 . S
C697 C701 1.376 1_556 S
C698 C696 1.394 . S
C698 C699 1.369 . S
C698 C702 1.531 . S
C699 C698 1.369 . S
C699 C700 1.410 . S
C699 C707 1.503 . S
C700 C699 1.410 . S
C700 C701 1.392 1_556 S
C700 C703 1.511 1_556 S
C701 C697 1.376 1_554 S
C701 C700 1.392 1_554 S
C701 H713 0.929 . S
C702 C698 1.531 . S
C702 H714 0.960 . S
C702 H715 0.962 . S
C702 H716 0.960 . S
C703 C700 1.511 1_554 S
C703 H717 0.961 . S
C703 H718 0.961 . S
C703 H719 0.961 1_554 S
C704 C705 1.370 . S
C704 C706 1.363 . S
C704 H720 0.931 . S
C705 C704 1.370 . S
C705 C709 1.408 . S
C706 C704 1.363 . S
C706 C707 1.370 . S
C706 C710 1.524 . S
C707 C699 1.503 . S
C707 C706 1.370 . S
C707 C708 1.403 . S
C708 C707 1.403 . S
C708 C709 1.404 . S
C708 C711 1.539 . S
C709 C705 1.408 . S
C709 C708 1.404 . S
C709 H721 0.930 . S
C710 C706 1.524 . S
C710 H722 0.956 . S
C710 H723 0.961 1_556 S
C710 H724 0.961 1_556 S
C711 C708 1.539 . S
C711 H725 0.958 . S
C711 H726 0.961 . S
C711 H727 0.960 . S
H712 C696 0.931 . S
H713 C701 0.929 . S
H714 C702 0.960 . S
H715 C702 0.962 . S
H716 C702 0.960 . S
H717 C703 0.961 . S
H718 C703 0.961 . S
H719 C703 0.961 1_556 S
H720 C704 0.931 . S
H721 C709 0.930 . S
H722 C710 0.956 . S
H723 C710 0.961 1_554 S
H724 C710 0.961 1_554 S
H725 C711 0.958 . S
H726 C711 0.961 . S
H727 C711 0.960 . S
C728 C729 1.391 . S
C728 C730 1.394 . S
C728 H744 0.931 . S
C729 C728 1.391 . S
C729 C733 1.376 . S
C730 C728 1.394 . S
C730 C731 1.369 . S
C730 C734 1.531 . S
C731 C730 1.369 . S
C731 C732 1.410 . S
C731 C739 1.503 . S
C732 C731 1.410 . S
C732 C733 1.392 . S
C732 C735 1.511 . S
C733 C729 1.376 . S
C733 C732 1.392 . S
C733 H745 0.929 . S
C734 C730 1.531 . S
C734 H746 0.960 . S
C734 H747 0.962 . S
C734 H748 0.960 . S
C735 C732 1.511 . S
C735 H749 0.961 . S
C735 H750 0.961 . S
C735 H751 0.961 . S
C736 C737 1.370 . S
C736 C738 1.363 . S
C736 H752 0.931 . S
C737 C736 1.370 . S
C737 C741 1.408 . S
C738 C736 1.363 . S
C738 C739 1.370 . S
C738 C742 1.524 . S
C739 C731 1.503 . S
C739 C738 1.370 . S
C739 C740 1.403 . S
C740 C739 1.403 . S
C740 C741 1.404 . S
C740 C743 1.539 . S
C741 C737 1.408 . S
C741 C740 1.404 . S
C741 H753 0.930 . S
C742 C738 1.524 . S
C742 H754 0.956 . S
C742 H755 0.961 . S
C742 H756 0.961 . S
C743 C740 1.539 . S
C743 H757 0.958 . S
C743 H758 0.961 . S
C743 H759 0.960 . S
H744 C728 0.931 . S
H745 C733 0.929 . S
H746 C734 0.960 . S
H747 C734 0.962 . S
H748 C734 0.960 . S
H749 C735 0.961 . S
H750 C735 0.961 . S
H751 C735 0.961 . S
H752 C736 0.931 . S
H753 C741 0.930 . S
H754 C742 0.956 . S
H755 C742 0.961 . S
H756 C742 0.961 . S
H757 C743 0.958 . S
H758 C743 0.961 . S
H759 C743 0.960 . S
C760 C761 1.391 1_565 S
C760 C762 1.394 . S
C760 H776 0.931 . S
C761 C760 1.391 1_545 S
C761 C765 1.376 . S
C762 C760 1.394 . S
C762 C763 1.369 . S
C762 C766 1.531 . S
C763 C762 1.369 . S
C763 C764 1.410 1_565 S
C763 C771 1.503 . S
C764 C763 1.410 1_545 S
C764 C765 1.392 . S
C764 C767 1.511 . S
C765 C761 1.376 . S
C765 C764 1.392 . S
C765 H777 0.929 . S
C766 C762 1.531 . S
C766 H778 0.960 . S
C766 H779 0.962 . S
C766 H780 0.960 . S
C767 C764 1.511 . S
C767 H781 0.961 . S
C767 H782 0.961 . S
C767 H783 0.961 . S
C768 C769 1.370 . S
C768 C770 1.363 . S
C768 H784 0.931 . S
C769 C768 1.370 . S
C769 C773 1.408 1_565 S
C770 C768 1.363 . S
C770 C771 1.370 . S
C770 C774 1.524 . S
C771 C763 1.503 . S
C771 C770 1.370 . S
C771 C772 1.403 1_565 S
C772 C771 1.403 1_545 S
C772 C773 1.404 . S
C772 C775 1.539 . S
C773 C769 1.408 1_545 S
C773 C772 1.404 . S
C773 H785 0.930 . S
C774 C770 1.524 . S
C774 H786 0.956 . S
C774 H787 0.961 . S
C774 H788 0.961 . S
C775 C772 1.539 . S
C775 H789 0.958 . S
C775 H790 0.961 . S
C775 H791 0.960 . S
H776 C760 0.931 . S
H777 C765 0.929 . S
H778 C766 0.960 . S
H779 C766 0.962 . S
H780 C766 0.960 . S
H781 C767 0.961 . S
H782 C767 0.961 . S
H783 C767 0.961 . S
H784 C768 0.931 . S
H785 C773 0.930 . S
H786 C774 0.956 . S
H787 C774 0.961 . S
H788 C774 0.961 . S
H789 C775 0.958 . S
H790 C775 0.961 . S
H791 C775 0.960 . S
C792 C793 1.391 . S
C792 C794 1.394 . S
C792 H808 0.931 . S
C793 C792 1.391 . S
C793 C797 1.376 . S
C794 C792 1.394 . S
C794 C795 1.369 . S
C794 C798 1.531 . S
C795 C794 1.369 . S
C795 C796 1.410 . S
C795 C803 1.503 . S
C796 C795 1.410 . S
C796 C797 1.392 . S
C796 C799 1.511 . S
C797 C793 1.376 . S
C797 C796 1.392 . S
C797 H809 0.929 . S
C798 C794 1.531 . S
C798 H810 0.960 . S
C798 H811 0.962 . S
C798 H812 0.960 . S
C799 C796 1.511 . S
C799 H813 0.961 . S
C799 H814 0.961 . S
C799 H815 0.961 . S
C800 C801 1.370 . S
C800 C802 1.363 . S
C800 H816 0.931 . S
C801 C800 1.370 . S
C801 C805 1.408 . S
C802 C800 1.363 . S
C802 C803 1.370 . S
C802 C806 1.524 . S
C803 C795 1.503 . S
C803 C802 1.370 . S
C803 C804 1.403 . S
C804 C803 1.403 . S
C804 C805 1.404 . S
C804 C807 1.539 . S
C805 C801 1.408 . S
C805 C804 1.404 . S
C805 H817 0.930 . S
C806 C802 1.524 . S
C806 H818 0.956 . S
C806 H819 0.961 . S
C806 H820 0.961 . S
C807 C804 1.539 . S
C807 H821 0.958 . S
C807 H822 0.961 . S
C807 H823 0.960 . S
H808 C792 0.931 . S
H809 C797 0.929 . S
H810 C798 0.960 . S
H811 C798 0.962 . S
H812 C798 0.960 . S
H813 C799 0.961 . S
H814 C799 0.961 . S
H815 C799 0.961 . S
H816 C800 0.931 . S
H817 C805 0.930 . S
H818 C806 0.956 . S
H819 C806 0.961 . S
H820 C806 0.961 . S
H821 C807 0.958 . S
H822 C807 0.961 . S
H823 C807 0.960 . S
C824 C825 1.391 . S
C824 C826 1.394 . S
C824 H840 0.931 . S
C825 C824 1.391 . S
C825 C829 1.376 . S
C826 C824 1.394 . S
C826 C827 1.369 . S
C826 C830 1.531 . S
C827 C826 1.369 . S
C827 C828 1.410 . S
C827 C835 1.503 . S
C828 C827 1.410 . S
C828 C829 1.392 . S
C828 C831 1.511 . S
C829 C825 1.376 . S
C829 C828 1.392 . S
C829 H841 0.929 . S
C830 C826 1.531 . S
C830 H842 0.960 . S
C830 H843 0.962 . S
C830 H844 0.960 . S
C831 C828 1.511 . S
C831 H845 0.961 . S
C831 H846 0.961 . S
C831 H847 0.961 . S
C832 C833 1.370 . S
C832 C834 1.363 . S
C832 H848 0.931 . S
C833 C832 1.370 . S
C833 C837 1.408 . S
C834 C832 1.363 . S
C834 C835 1.370 . S
C834 C838 1.524 . S
C835 C827 1.503 . S
C835 C834 1.370 . S
C835 C836 1.403 . S
C836 C835 1.403 . S
C836 C837 1.404 . S
C836 C839 1.539 . S
C837 C833 1.408 . S
C837 C836 1.404 . S
C837 H849 0.930 . S
C838 C834 1.524 . S
C838 H850 0.956 . S
C838 H851 0.961 . S
C838 H852 0.961 . S
C839 C836 1.539 . S
C839 H853 0.958 . S
C839 H854 0.961 . S
C839 H855 0.960 . S
H840 C824 0.931 . S
H841 C829 0.929 . S
H842 C830 0.960 . S
H843 C830 0.962 . S
H844 C830 0.960 . S
H845 C831 0.961 . S
H846 C831 0.961 . S
H847 C831 0.961 . S
H848 C832 0.931 . S
H849 C837 0.930 . S
H850 C838 0.956 . S
H851 C838 0.961 . S
H852 C838 0.961 . S
H853 C839 0.958 . S
H854 C839 0.961 . S
H855 C839 0.960 . S
C856 C857 1.391 . S
C856 C858 1.394 . S
C856 H872 0.931 . S
C857 C856 1.391 . S
C857 C861 1.376 . S
C858 C856 1.394 . S
C858 C859 1.369 . S
C858 C862 1.531 . S
C859 C858 1.369 . S
C859 C860 1.410 . S
C859 C867 1.503 . S
C860 C859 1.410 . S
C860 C861 1.392 . S
C860 C863 1.511 . S
C861 C857 1.376 . S
C861 C860 1.392 . S
C861 H873 0.929 . S
C862 C858 1.531 . S
C862 H874 0.960 . S
C862 H875 0.962 . S
C862 H876 0.960 1_556 S
C863 C860 1.511 . S
C863 H877 0.961 . S
C863 H878 0.961 . S
C863 H879 0.961 . S
C864 C865 1.370 . S
C864 C866 1.363 . S
C864 H880 0.931 . S
C865 C864 1.370 . S
C865 C869 1.408 . S
C866 C864 1.363 . S
C866 C867 1.370 . S
C866 C870 1.524 . S
C867 C859 1.503 . S
C867 C866 1.370 . S
C867 C868 1.403 . S
C868 C867 1.403 . S
C868 C869 1.404 . S
C868 C871 1.539 . S
C869 C865 1.408 . S
C869 C868 1.404 . S
C869 H881 0.930 1_655 S
C870 C866 1.524 . S
C870 H882 0.956 . S
C870 H883 0.961 . S
C870 H884 0.961 . S
C871 C868 1.539 . S
C871 H885 0.958 . S
C871 H886 0.911 1_655 S
C871 H887 0.960 . S
H872 C856 0.931 . S
H873 C861 0.929 . S
H874 C862 0.960 . S
H875 C862 0.962 . S
H876 C862 0.960 1_554 S
H877 C863 0.961 . S
H878 C863 0.961 . S
H879 C863 0.961 . S
H880 C864 0.931 . S
H881 C869 0.930 1_455 S
H882 C870 0.956 . S
H883 C870 0.961 . S
H884 C870 0.961 . S
H885 C871 0.958 . S
H886 C871 0.911 1_455 S
H887 C871 0.960 . S
C888 C889 1.391 1_545 S
C888 C890 1.394 . S
C888 H904 0.931 . S
C889 C888 1.391 1_565 S
C889 C893 1.376 . S
C890 C888 1.394 . S
C890 C891 1.369 . S
C890 C894 1.531 . S
C891 C890 1.369 . S
C891 C892 1.410 1_545 S
C891 C899 1.503 . S
C892 C891 1.410 1_565 S
C892 C893 1.392 . S
C892 C895 1.511 . S
C893 C889 1.376 . S
C893 C892 1.392 . S
C893 H905 0.929 . S
C894 C890 1.531 . S
C894 H906 0.960 . S
C894 H907 0.962 . S
C894 H908 0.960 . S
C895 C892 1.511 . S
C895 H909 0.961 . S
C895 H910 0.961 . S
C895 H911 0.961 . S
C896 C897 1.370 . S
C896 C898 1.363 . S
C896 H912 0.931 . S
C897 C896 1.370 . S
C897 C901 1.408 1_545 S
C898 C896 1.363 . S
C898 C899 1.370 . S
C898 C902 1.524 . S
C899 C891 1.503 . S
C899 C898 1.370 . S
C899 C900 1.403 1_545 S
C900 C899 1.403 1_565 S
C900 C901 1.404 . S
C900 C903 1.539 . S
C901 C897 1.408 1_565 S
C901 C900 1.404 . S
C901 H913 0.930 . S
C902 C898 1.524 . S
C902 H914 0.956 . S
C902 H915 0.961 . S
C902 H916 0.961 . S
C903 C900 1.539 . S
C903 H917 0.958 . S
C903 H918 0.961 . S
C903 H919 0.960 . S
H904 C888 0.931 . S
H905 C893 0.929 . S
H906 C894 0.960 . S
H907 C894 0.962 . S
H908 C894 0.960 . S
H909 C895 0.961 . S
H910 C895 0.961 . S
H911 C895 0.961 . S
H912 C896 0.931 . S
H913 C901 0.930 . S
H914 C902 0.956 . S
H915 C902 0.961 . S
H916 C902 0.961 . S
H917 C903 0.958 . S
H918 C903 0.961 . S
H919 C903 0.960 . S
C920 C921 1.391 . S
C920 C922 1.394 . S
C920 H936 0.931 . S
C921 C920 1.391 . S
C921 C925 1.376 . S
C922 C920 1.394 . S
C922 C923 1.369 . S
C922 C926 1.531 . S
C923 C922 1.369 . S
C923 C924 1.410 . S
C923 C931 1.503 . S
C924 C923 1.410 . S
C924 C925 1.392 . S
C924 C927 1.511 . S
C925 C921 1.376 . S
C925 C924 1.392 . S
C925 H937 0.929 . S
C926 C922 1.531 . S
C926 H938 0.960 . S
C926 H939 0.962 . S
C926 H940 0.960 . S
C927 C924 1.511 . S
C927 H941 0.961 . S
C927 H942 0.961 . S
C927 H943 0.961 . S
C928 C929 1.370 . S
C928 C930 1.363 . S
C928 H944 0.931 . S
C929 C928 1.370 . S
C929 C933 1.408 1_554 S
C930 C928 1.363 . S
C930 C931 1.370 . S
C930 C934 1.524 . S
C931 C923 1.503 . S
C931 C930 1.370 . S
C931 C932 1.403 1_554 S
C932 C931 1.403 1_556 S
C932 C933 1.404 . S
C932 C935 1.539 . S
C933 C929 1.408 1_556 S
C933 C932 1.404 . S
C933 H945 0.930 . S
C934 C930 1.524 . S
C934 H946 0.956 . S
C934 H947 0.961 . S
C934 H948 0.961 . S
C935 C932 1.539 . S
C935 H949 0.958 . S
C935 H950 0.961 . S
C935 H951 0.960 . S
H936 C920 0.931 . S
H937 C925 0.929 . S
H938 C926 0.960 . S
H939 C926 0.962 . S
H940 C926 0.960 . S
H941 C927 0.961 . S
H942 C927 0.961 . S
H943 C927 0.961 . S
H944 C928 0.931 . S
H945 C933 0.930 . S
H946 C934 0.956 . S
H947 C934 0.961 . S
H948 C934 0.961 . S
H949 C935 0.958 . S
H950 C935 0.961 . S
H951 C935 0.960 . S
C952 C953 1.391 . S
C952 C954 1.394 . S
C952 H968 0.931 . S
C953 C952 1.391 . S
C953 C957 1.376 . S
C954 C952 1.394 . S
C954 C955 1.369 . S
C954 C958 1.531 . S
C955 C954 1.369 . S
C955 C956 1.410 . S
C955 C963 1.503 . S
C956 C955 1.410 . S
C956 C957 1.392 . S
C956 C959 1.511 . S
C957 C953 1.376 . S
C957 C956 1.392 . S
C957 H969 0.929 . S
C958 C954 1.531 . S
C958 H970 0.960 . S
C958 H971 0.962 . S
C958 H972 0.960 . S
C959 C956 1.511 . S
C959 H973 0.961 . S
C959 H974 0.961 . S
C959 H975 0.961 . S
C960 C961 1.370 . S
C960 C962 1.363 . S
C960 H976 0.931 . S
C961 C960 1.370 . S
C961 C965 1.408 . S
C962 C960 1.363 . S
C962 C963 1.370 . S
C962 C966 1.524 . S
C963 C955 1.503 . S
C963 C962 1.370 . S
C963 C964 1.403 . S
C964 C963 1.403 . S
C964 C965 1.404 . S
C964 C967 1.539 . S
C965 C961 1.408 . S
C965 C964 1.404 . S
C965 H977 0.930 . S
C966 C962 1.524 . S
C966 H978 0.956 . S
C966 H979 0.961 . S
C966 H980 0.961 . S
C967 C964 1.539 . S
C967 H981 0.958 1_556 S
C967 H982 0.961 1_556 S
C967 H983 0.960 . S
H968 C952 0.931 . S
H969 C957 0.929 . S
H970 C958 0.960 . S
H971 C958 0.962 . S
H972 C958 0.960 . S
H973 C959 0.961 . S
H974 C959 0.961 . S
H975 C959 0.961 . S
H976 C960 0.931 . S
H977 C965 0.930 . S
H978 C966 0.956 . S
H979 C966 0.961 . S
H980 C966 0.961 . S
H981 C967 0.958 1_554 S
H982 C967 0.961 1_554 S
H983 C967 0.960 . S
C984 C985 1.391 . S
C984 C986 1.394 . S
C984 H1000 0.931 . S
C985 C984 1.391 . S
C985 C989 1.376 . S
C986 C984 1.394 . S
C986 C987 1.369 . S
C986 C990 1.531 . S
C987 C986 1.369 . S
C987 C988 1.410 . S
C987 C995 1.503 . S
C988 C987 1.410 . S
C988 C989 1.392 . S
C988 C991 1.511 . S
C989 C985 1.376 . S
C989 C988 1.392 . S
C989 H1001 0.929 . S
C990 C986 1.531 . S
C990 H1002 0.960 . S
C990 H1003 0.962 . S
C990 H1004 0.960 . S
C991 C988 1.511 . S
C991 H1005 0.961 . S
C991 H1006 0.961 . S
C991 H1007 0.961 . S
C992 C993 1.370 . S
C992 C994 1.363 . S
C992 H1008 0.931 . S
C993 C992 1.370 . S
C993 C997 1.408 . S
C994 C992 1.363 . S
C994 C995 1.370 . S
C994 C998 1.524 . S
C995 C987 1.503 . S
C995 C994 1.370 . S
C995 C996 1.403 . S
C996 C995 1.403 . S
C996 C997 1.404 . S
C996 C999 1.539 . S
C997 C993 1.408 . S
C997 C996 1.404 . S
C997 H1009 0.930 . S
C998 C994 1.524 . S
C998 H1010 0.956 . S
C998 H1011 0.961 . S
C998 H1012 0.961 . S
C999 C996 1.539 . S
C999 H1013 0.958 . S
C999 H1014 0.961 . S
C999 H1015 0.960 . S
H1000 C984 0.931 . S
H1001 C989 0.929 . S
H1002 C990 0.960 . S
H1003 C990 0.962 . S
H1004 C990 0.960 . S
H1005 C991 0.961 . S
H1006 C991 0.961 . S
H1007 C991 0.961 . S
H1008 C992 0.931 . S
H1009 C997 0.930 . S
H1010 C998 0.956 . S
H1011 C998 0.961 . S
H1012 C998 0.961 . S
H1013 C999 0.958 . S
H1014 C999 0.961 . S
H1015 C999 0.960 . S
C1016 C1017 1.387 . S
C1016 C1018 1.394 . S
C1016 H1032 0.931 . S
C1017 C1016 1.387 . S
C1017 C1021 1.373 . S
C1018 C1016 1.394 . S
C1018 C1019 1.369 . S
C1018 C1022 1.531 . S
C1019 C1018 1.369 . S
C1019 C1020 1.410 . S
C1019 C1027 1.503 . S
C1020 C1019 1.410 . S
C1020 C1021 1.392 . S
C1020 C1023 1.511 . S
C1021 C1017 1.373 . S
C1021 C1020 1.392 . S
C1021 H1033 0.928 1_545 S
C1022 C1018 1.531 . S
C1022 H1034 0.942 1_545 S
C1022 H1035 0.962 . S
C1022 H1036 0.960 1_545 S
C1023 C1020 1.511 . S
C1023 H1037 0.961 . S
C1023 H1038 0.961 . S
C1023 H1039 0.961 1_545 S
C1024 C1025 1.370 . S
C1024 C1026 1.363 . S
C1024 H1040 0.931 . S
C1025 C1024 1.370 . S
C1025 C1029 1.408 1_545 S
C1026 C1024 1.363 . S
C1026 C1027 1.370 . S
C1026 C1030 1.524 . S
C1027 C1019 1.503 . S
C1027 C1026 1.370 . S
C1027 C1028 1.403 1_545 S
C1028 C1027 1.403 1_565 S
C1028 C1029 1.404 . S
C1028 C1031 1.539 . S
C1029 C1025 1.408 1_565 S
C1029 C1028 1.404 . S
C1029 H1041 0.930 . S
C1030 C1026 1.524 . S
C1030 H1042 0.956 . S
C1030 H1043 0.961 . S
C1030 H1044 0.961 . S
C1031 C1028 1.539 . S
C1031 H1045 0.958 . S
C1031 H1046 0.961 . S
C1031 H1047 0.960 . S
H1032 C1016 0.931 . S
H1033 C1021 0.928 1_565 S
H1034 C1022 0.942 1_565 S
H1035 C1022 0.962 . S
H1036 C1022 0.960 1_565 S
H1037 C1023 0.961 . S
H1038 C1023 0.961 . S
H1039 C1023 0.961 1_565 S
H1040 C1024 0.931 . S
H1041 C1029 0.930 . S
H1042 C1030 0.956 . S
H1043 C1030 0.961 . S
H1044 C1030 0.961 . S
H1045 C1031 0.958 . S
H1046 C1031 0.961 . S
H1047 C1031 0.960 . S
C1048 C1049 1.391 . S
C1048 C1050 1.394 . S
C1048 H1064 0.931 . S
C1049 C1048 1.391 . S
C1049 C1053 1.376 1_554 S
C1050 C1048 1.394 . S
C1050 C1051 1.369 1_554 S
C1050 C1054 1.531 . S
C1051 C1050 1.369 1_556 S
C1051 C1052 1.410 . S
C1051 C1059 1.503 . S
C1052 C1051 1.410 . S
C1052 C1053 1.392 . S
C1052 C1055 1.511 . S
C1053 C1049 1.376 1_556 S
C1053 C1052 1.392 . S
C1053 H1065 0.929 . S
C1054 C1050 1.531 . S
C1054 H1066 0.967 . S
C1054 H1067 0.962 . S
C1054 H1068 0.960 . S
C1055 C1052 1.511 . S
C1055 H1069 0.961 . S
C1055 H1070 0.961 . S
C1055 H1071 0.961 . S
C1056 C1057 1.370 . S
C1056 C1058 1.363 . S
C1056 H1072 0.920 1_556 S
C1057 C1056 1.370 . S
C1057 C1061 1.408 . S
C1058 C1056 1.363 . S
C1058 C1059 1.370 . S
C1058 C1062 1.524 1_556 S
C1059 C1051 1.503 . S
C1059 C1058 1.370 . S
C1059 C1060 1.403 . S
C1060 C1059 1.403 . S
C1060 C1061 1.404 . S
C1060 C1063 1.539 . S
C1061 C1057 1.408 . S
C1061 C1060 1.404 . S
C1061 H1073 0.930 . S
C1062 C1058 1.524 1_554 S
C1062 H1074 0.956 . S
C1062 H1075 0.961 . S
C1062 H1076 0.961 . S
C1063 C1060 1.539 . S
C1063 H1077 0.958 . S
C1063 H1078 0.961 . S
C1063 H1079 0.960 . S
H1064 C1048 0.931 . S
H1065 C1053 0.929 . S
H1066 C1054 0.967 . S
H1067 C1054 0.962 . S
H1068 C1054 0.960 . S
H1069 C1055 0.961 . S
H1070 C1055 0.961 . S
H1071 C1055 0.961 . S
H1072 C1056 0.920 1_554 S
H1073 C1061 0.930 . S
H1074 C1062 0.956 . S
H1075 C1062 0.961 . S
H1076 C1062 0.961 . S
H1077 C1063 0.958 . S
H1078 C1063 0.961 . S
H1079 C1063 0.960 . S
C1080 C1081 1.391 . S
C1080 C1082 1.394 . S
C1080 H1096 0.931 . S
C1081 C1080 1.391 . S
C1081 C1085 1.376 . S
C1082 C1080 1.394 . S
C1082 C1083 1.369 . S
C1082 C1086 1.531 . S
C1083 C1082 1.369 . S
C1083 C1084 1.410 . S
C1083 C1091 1.503 . S
C1084 C1083 1.410 . S
C1084 C1085 1.392 . S
C1084 C1087 1.511 . S
C1085 C1081 1.376 . S
C1085 C1084 1.392 . S
C1085 H1097 0.929 . S
C1086 C1082 1.531 . S
C1086 H1098 0.960 . S
C1086 H1099 0.962 . S
C1086 H1100 0.960 . S
C1087 C1084 1.511 . S
C1087 H1101 0.961 . S
C1087 H1102 0.961 . S
C1087 H1103 0.961 . S
C1088 C1089 1.370 . S
C1088 C1090 1.363 . S
C1088 H1104 0.931 . S
C1089 C1088 1.370 . S
C1089 C1093 1.408 . S
C1090 C1088 1.363 . S
C1090 C1091 1.370 . S
C1090 C1094 1.524 . S
C1091 C1083 1.503 . S
C1091 C1090 1.370 . S
C1091 C1092 1.403 . S
C1092 C1091 1.403 . S
C1092 C1093 1.404 . S
C1092 C1095 1.539 . S
C1093 C1089 1.408 . S
C1093 C1092 1.404 . S
C1093 H1105 0.930 . S
C1094 C1090 1.524 . S
C1094 H1106 0.956 . S
C1094 H1107 0.961 . S
C1094 H1108 0.961 . S
C1095 C1092 1.539 . S
C1095 H1109 0.958 . S
C1095 H1110 0.961 . S
C1095 H1111 0.960 . S
H1096 C1080 0.931 . S
H1097 C1085 0.929 . S
H1098 C1086 0.960 . S
H1099 C1086 0.962 . S
H1100 C1086 0.960 . S
H1101 C1087 0.961 . S
H1102 C1087 0.961 . S
H1103 C1087 0.961 . S
H1104 C1088 0.931 . S
H1105 C1093 0.930 . S
H1106 C1094 0.956 . S
H1107 C1094 0.961 . S
H1108 C1094 0.961 . S
H1109 C1095 0.958 . S
H1110 C1095 0.961 . S
H1111 C1095 0.960 . S
C1112 C1113 1.391 . S
C1112 C1114 1.394 . S
C1112 H1128 0.931 . S
C1113 C1112 1.391 . S
C1113 C1117 1.376 . S
C1114 C1112 1.394 . S
C1114 C1115 1.369 . S
C1114 C1118 1.531 . S
C1115 C1114 1.369 . S
C1115 C1116 1.410 . S
C1115 C1123 1.503 . S
C1116 C1115 1.410 . S
C1116 C1117 1.392 . S
C1116 C1119 1.511 . S
C1117 C1113 1.376 . S
C1117 C1116 1.392 . S
C1117 H1129 0.929 . S
C1118 C1114 1.531 . S
C1118 H1130 0.960 . S
C1118 H1131 0.962 . S
C1118 H1132 0.960 . S
C1119 C1116 1.511 . S
C1119 H1133 0.961 . S
C1119 H1134 0.961 . S
C1119 H1135 0.961 . S
C1120 C1121 1.370 . S
C1120 C1122 1.363 . S
C1120 H1136 0.931 . S
C1121 C1120 1.370 . S
C1121 C1125 1.408 . S
C1122 C1120 1.363 . S
C1122 C1123 1.370 . S
C1122 C1126 1.524 . S
C1123 C1115 1.503 . S
C1123 C1122 1.370 . S
C1123 C1124 1.403 . S
C1124 C1123 1.403 . S
C1124 C1125 1.404 . S
C1124 C1127 1.539 . S
C1125 C1121 1.408 . S
C1125 C1124 1.404 . S
C1125 H1137 0.930 . S
C1126 C1122 1.524 . S
C1126 H1138 0.956 . S
C1126 H1139 0.961 . S
C1126 H1140 0.961 . S
C1127 C1124 1.539 . S
C1127 H1141 0.958 . S
C1127 H1142 0.961 . S
C1127 H1143 0.960 . S
H1128 C1112 0.931 . S
H1129 C1117 0.929 . S
H1130 C1118 0.960 . S
H1131 C1118 0.962 . S
H1132 C1118 0.960 . S
H1133 C1119 0.961 . S
H1134 C1119 0.961 . S
H1135 C1119 0.961 . S
H1136 C1120 0.931 . S
H1137 C1125 0.930 . S
H1138 C1126 0.956 . S
H1139 C1126 0.961 . S
H1140 C1126 0.961 . S
H1141 C1127 0.958 . S
H1142 C1127 0.961 . S
H1143 C1127 0.960 . S
C1144 C1145 1.391 1_545 S
C1144 C1146 1.394 . S
C1144 H1160 0.931 . S
C1145 C1144 1.391 1_565 S
C1145 C1149 1.376 . S
C1146 C1144 1.394 . S
C1146 C1147 1.369 1_545 S
C1146 C1150 1.531 . S
C1147 C1146 1.369 1_565 S
C1147 C1148 1.410 . S
C1147 C1155 1.503 . S
C1148 C1147 1.410 . S
C1148 C1149 1.392 . S
C1148 C1151 1.511 . S
C1149 C1145 1.376 . S
C1149 C1148 1.392 . S
C1149 H1161 0.929 . S
C1150 C1146 1.531 . S
C1150 H1162 0.960 . S
C1150 H1163 0.962 . S
C1150 H1164 0.960 . S
C1151 C1148 1.511 . S
C1151 H1165 0.961 . S
C1151 H1166 0.961 . S
C1151 H1167 0.961 . S
C1152 C1153 1.370 . S
C1152 C1154 1.363 . S
C1152 H1168 0.931 1_565 S
C1153 C1152 1.370 . S
C1153 C1157 1.408 . S
C1154 C1152 1.363 . S
C1154 C1155 1.370 . S
C1154 C1158 1.524 1_565 S
C1155 C1147 1.503 . S
C1155 C1154 1.370 . S
C1155 C1156 1.403 . S
C1156 C1155 1.403 . S
C1156 C1157 1.404 . S
C1156 C1159 1.539 . S
C1157 C1153 1.408 . S
C1157 C1156 1.404 . S
C1157 H1169 0.930 . S
C1158 C1154 1.524 1_545 S
C1158 H1170 0.956 . S
C1158 H1171 0.961 . S
C1158 H1172 0.961 . S
C1159 C1156 1.539 . S
C1159 H1173 0.958 . S
C1159 H1174 0.961 . S
C1159 H1175 0.960 . S
H1160 C1144 0.931 . S
H1161 C1149 0.929 . S
H1162 C1150 0.960 . S
H1163 C1150 0.962 . S
H1164 C1150 0.960 . S
H1165 C1151 0.961 . S
H1166 C1151 0.961 . S
H1167 C1151 0.961 . S
H1168 C1152 0.931 1_545 S
H1169 C1157 0.930 . S
H1170 C1158 0.956 . S
H1171 C1158 0.961 . S
H1172 C1158 0.961 . S
H1173 C1159 0.958 . S
H1174 C1159 0.961 . S
H1175 C1159 0.960 . S
C1176 C1177 1.391 . S
C1176 C1178 1.394 . S
C1176 H1192 0.931 . S
C1177 C1176 1.391 . S
C1177 C1181 1.376 . S
C1178 C1176 1.394 . S
C1178 C1179 1.369 . S
C1178 C1182 1.531 . S
C1179 C1178 1.369 . S
C1179 C1180 1.410 . S
C1179 C1187 1.503 . S
C1180 C1179 1.410 . S
C1180 C1181 1.392 . S
C1180 C1183 1.511 . S
C1181 C1177 1.376 . S
C1181 C1180 1.392 . S
C1181 H1193 0.929 . S
C1182 C1178 1.531 . S
C1182 H1194 0.960 . S
C1182 H1195 0.962 . S
C1182 H1196 0.960 . S
C1183 C1180 1.511 . S
C1183 H1197 0.961 . S
C1183 H1198 0.961 . S
C1183 H1199 0.961 . S
C1184 C1185 1.370 . S
C1184 C1186 1.363 . S
C1184 H1200 0.931 . S
C1185 C1184 1.370 . S
C1185 C1189 1.408 . S
C1186 C1184 1.363 . S
C1186 C1187 1.370 . S
C1186 C1190 1.524 . S
C1187 C1179 1.503 . S
C1187 C1186 1.370 . S
C1187 C1188 1.403 . S
C1188 C1187 1.403 . S
C1188 C1189 1.404 . S
C1188 C1191 1.539 . S
C1189 C1185 1.408 . S
C1189 C1188 1.404 . S
C1189 H1201 0.930 . S
C1190 C1186 1.524 . S
C1190 H1202 0.956 . S
C1190 H1203 0.961 . S
C1190 H1204 0.961 . S
C1191 C1188 1.539 . S
C1191 H1205 0.958 . S
C1191 H1206 0.961 . S
C1191 H1207 0.960 . S
H1192 C1176 0.931 . S
H1193 C1181 0.929 . S
H1194 C1182 0.960 . S
H1195 C1182 0.962 . S
H1196 C1182 0.960 . S
H1197 C1183 0.961 . S
H1198 C1183 0.961 . S
H1199 C1183 0.961 . S
H1200 C1184 0.931 . S
H1201 C1189 0.930 . S
H1202 C1190 0.956 . S
H1203 C1190 0.961 . S
H1204 C1190 0.961 . S
H1205 C1191 0.958 . S
H1206 C1191 0.961 . S
H1207 C1191 0.960 . S
C1208 C1209 1.391 . S
C1208 C1210 1.394 . S
C1208 H1224 0.931 . S
C1209 C1208 1.391 . S
C1209 C1213 1.376 . S
C1210 C1208 1.394 . S
C1210 C1211 1.369 . S
C1210 C1214 1.531 . S
C1211 C1210 1.369 . S
C1211 C1212 1.410 . S
C1211 C1219 1.503 . S
C1212 C1211 1.410 . S
C1212 C1213 1.392 . S
C1212 C1215 1.511 . S
C1213 C1209 1.376 . S
C1213 C1212 1.392 . S
C1213 H1225 0.929 . S
C1214 C1210 1.531 . S
C1214 H1226 0.960 . S
C1214 H1227 0.962 . S
C1214 H1228 0.960 . S
C1215 C1212 1.511 . S
C1215 H1229 0.961 . S
C1215 H1230 0.961 . S
C1215 H1231 0.961 . S
C1216 C1217 1.370 . S
C1216 C1218 1.363 . S
C1216 H1232 0.931 . S
C1217 C1216 1.370 . S
C1217 C1221 1.408 . S
C1218 C1216 1.363 . S
C1218 C1219 1.370 . S
C1218 C1222 1.524 . S
C1219 C1211 1.503 . S
C1219 C1218 1.370 . S
C1219 C1220 1.403 . S
C1220 C1219 1.403 . S
C1220 C1221 1.404 . S
C1220 C1223 1.539 . S
C1221 C1217 1.408 . S
C1221 C1220 1.404 . S
C1221 H1233 0.930 . S
C1222 C1218 1.524 . S
C1222 H1234 0.956 . S
C1222 H1235 0.961 . S
C1222 H1236 0.961 . S
C1223 C1220 1.539 . S
C1223 H1237 0.958 . S
C1223 H1238 0.961 . S
C1223 H1239 0.960 . S
H1224 C1208 0.931 . S
H1225 C1213 0.929 . S
H1226 C1214 0.960 . S
H1227 C1214 0.962 . S
H1228 C1214 0.960 . S
H1229 C1215 0.961 . S
H1230 C1215 0.961 . S
H1231 C1215 0.961 . S
H1232 C1216 0.931 . S
H1233 C1221 0.930 . S
H1234 C1222 0.956 . S
H1235 C1222 0.961 . S
H1236 C1222 0.961 . S
H1237 C1223 0.958 . S
H1238 C1223 0.961 . S
H1239 C1223 0.960 . S
C473 C255 0.933 . S
C481 C321 0.921 . S
C513 C361 1.950 . S
C505 C294 2.026 . S
C545 C410 1.673 . S
C537 C177 1.663 . S
C577 C441 2.189 . S
C569 C216 2.160 . S
C609 C330 0.899 . S
C601 C99 0.946 1_545 S
C633 C138 1.949 . S
C641 C370 1.983 . S
C665 C21 1.643 1_556 S
C673 C401 1.676 . S
C697 C60 2.186 1_556 S
C705 C450 2.200 1_655 S
C737 C331 1.484 . S
C729 C196 1.280 . S
C769 C371 0.926 . S
C761 C235 0.850 1_545 S
C801 C407 0.599 . S
C793 C289 0.667 . S
C825 C157 1.440 . S
C833 C451 1.551 . S
C857 C40 1.222 . S
C865 C322 1.497 1_655 S
C897 C362 0.922 . S
C889 C79 0.913 . S
C929 C398 0.619 1_554 S
C921 C133 0.693 . S
C953 C1 1.335 . S
C961 C442 1.560 . S
C985 C211 2.054 . S
C993 C327 2.211 . S
C1017 C250 1.707 . S
C1025 C367 1.725 . S
C1057 C411 2.934 . S
C1049 C274 2.652 . S
C1089 C447 1.808 . S
C1081 C172 1.754 . S
C1113 C55 2.090 . S
C1121 C318 2.213 . S
C1153 C358 1.733 . S
C1145 C94 1.668 1_565 S
C1185 C402 2.935 . S
C1177 C118 2.598 . S
C1209 C16 1.732 . S
C1217 C438 1.813 . S
