# Generated by pormake.
# Topology eea, (3,6)-cn, num edge types: 1
# Building blocks:
#     Node 0, Type 0, BuildingBlock: CUQRIR_clean_linker_1, # of connection points: 3
#     Node 1, Type 0, BuildingBlock: CUQRIR_clean_linker_1, # of connection points: 3
#     Node 2, Type 0, BuildingBlock: CUQRIR_clean_linker_1, # of connection points: 3
#     Node 3, Type 0, BuildingBlock: CUQRIR_clean_linker_1, # of connection points: 3
#     Node 4, Type 0, BuildingBlock: CUQRIR_clean_linker_1, # of connection points: 3
#     Node 5, Type 0, BuildingBlock: CUQRIR_clean_linker_1, # of connection points: 3
#     Node 6, Type 0, BuildingBlock: CUQRIR_clean_linker_1, # of connection points: 3
#     Node 7, Type 0, BuildingBlock: CUQRIR_clean_linker_1, # of connection points: 3
#     Node 8, Type 0, BuildingBlock: CUQRIR_clean_linker_1, # of connection points: 3
#     Node 9, Type 0, BuildingBlock: CUQRIR_clean_linker_1, # of connection points: 3
#     Node 10, Type 0, BuildingBlock: CUQRIR_clean_linker_1, # of connection points: 3
#     Node 11, Type 0, BuildingBlock: CUQRIR_clean_linker_1, # of connection points: 3
#     Node 12, Type 0, BuildingBlock: CUQRIR_clean_linker_1, # of connection points: 3
#     Node 13, Type 0, BuildingBlock: CUQRIR_clean_linker_1, # of connection points: 3
#     Node 14, Type 0, BuildingBlock: CUQRIR_clean_linker_1, # of connection points: 3
#     Node 15, Type 0, BuildingBlock: CUQRIR_clean_linker_1, # of connection points: 3
#     Node 16, Type 0, BuildingBlock: CUQRIR_clean_linker_1, # of connection points: 3
#     Node 17, Type 0, BuildingBlock: CUQRIR_clean_linker_1, # of connection points: 3
#     Node 18, Type 1, BuildingBlock: KUMBUR_clean_sbu_0, # of connection points: 6
#     Node 19, Type 1, BuildingBlock: KUMBUR_clean_sbu_0, # of connection points: 6
#     Node 20, Type 1, BuildingBlock: KUMBUR_clean_sbu_0, # of connection points: 6
#     Node 21, Type 1, BuildingBlock: KUMBUR_clean_sbu_0, # of connection points: 6
#     Node 22, Type 1, BuildingBlock: KUMBUR_clean_sbu_0, # of connection points: 6
#     Node 23, Type 1, BuildingBlock: KUMBUR_clean_sbu_0, # of connection points: 6
#     Node 24, Type 1, BuildingBlock: KUMBUR_clean_sbu_0, # of connection points: 6
#     Node 25, Type 1, BuildingBlock: KUMBUR_clean_sbu_0, # of connection points: 6
#     Node 26, Type 1, BuildingBlock: KUMBUR_clean_sbu_0, # of connection points: 6
#     Edge 27, Type (0, 1), BuildingBlock: MIFKUJ_clean_linker_0, # of connection points: 2
#     Edge 28, Type (0, 1), BuildingBlock: MIFKUJ_clean_linker_0, # of connection points: 2
#     Edge 29, Type (0, 1), BuildingBlock: MIFKUJ_clean_linker_0, # of connection points: 2
#     Edge 30, Type (0, 1), BuildingBlock: MIFKUJ_clean_linker_0, # of connection points: 2
#     Edge 31, Type (0, 1), BuildingBlock: MIFKUJ_clean_linker_0, # of connection points: 2
#     Edge 32, Type (0, 1), BuildingBlock: MIFKUJ_clean_linker_0, # of connection points: 2
#     Edge 33, Type (0, 1), BuildingBlock: MIFKUJ_clean_linker_0, # of connection points: 2
#     Edge 34, Type (0, 1), BuildingBlock: MIFKUJ_clean_linker_0, # of connection points: 2
#     Edge 35, Type (0, 1), BuildingBlock: MIFKUJ_clean_linker_0, # of connection points: 2
#     Edge 36, Type (0, 1), BuildingBlock: MIFKUJ_clean_linker_0, # of connection points: 2
#     Edge 37, Type (0, 1), BuildingBlock: MIFKUJ_clean_linker_0, # of connection points: 2
#     Edge 38, Type (0, 1), BuildingBlock: MIFKUJ_clean_linker_0, # of connection points: 2
#     Edge 39, Type (0, 1), BuildingBlock: MIFKUJ_clean_linker_0, # of connection points: 2
#     Edge 40, Type (0, 1), BuildingBlock: MIFKUJ_clean_linker_0, # of connection points: 2
#     Edge 41, Type (0, 1), BuildingBlock: MIFKUJ_clean_linker_0, # of connection points: 2
#     Edge 42, Type (0, 1), BuildingBlock: MIFKUJ_clean_linker_0, # of connection points: 2
#     Edge 43, Type (0, 1), BuildingBlock: MIFKUJ_clean_linker_0, # of connection points: 2
#     Edge 44, Type (0, 1), BuildingBlock: MIFKUJ_clean_linker_0, # of connection points: 2
#     Edge 45, Type (0, 1), BuildingBlock: MIFKUJ_clean_linker_0, # of connection points: 2
#     Edge 46, Type (0, 1), BuildingBlock: MIFKUJ_clean_linker_0, # of connection points: 2
#     Edge 47, Type (0, 1), BuildingBlock: MIFKUJ_clean_linker_0, # of connection points: 2
#     Edge 48, Type (0, 1), BuildingBlock: MIFKUJ_clean_linker_0, # of connection points: 2
#     Edge 49, Type (0, 1), BuildingBlock: MIFKUJ_clean_linker_0, # of connection points: 2
#     Edge 50, Type (0, 1), BuildingBlock: MIFKUJ_clean_linker_0, # of connection points: 2
#     Edge 51, Type (0, 1), BuildingBlock: MIFKUJ_clean_linker_0, # of connection points: 2
#     Edge 52, Type (0, 1), BuildingBlock: MIFKUJ_clean_linker_0, # of connection points: 2
#     Edge 53, Type (0, 1), BuildingBlock: MIFKUJ_clean_linker_0, # of connection points: 2
#     Edge 54, Type (0, 1), BuildingBlock: MIFKUJ_clean_linker_0, # of connection points: 2
#     Edge 55, Type (0, 1), BuildingBlock: MIFKUJ_clean_linker_0, # of connection points: 2
#     Edge 56, Type (0, 1), BuildingBlock: MIFKUJ_clean_linker_0, # of connection points: 2
#     Edge 57, Type (0, 1), BuildingBlock: MIFKUJ_clean_linker_0, # of connection points: 2
#     Edge 58, Type (0, 1), BuildingBlock: MIFKUJ_clean_linker_0, # of connection points: 2
#     Edge 59, Type (0, 1), BuildingBlock: MIFKUJ_clean_linker_0, # of connection points: 2
#     Edge 60, Type (0, 1), BuildingBlock: MIFKUJ_clean_linker_0, # of connection points: 2
#     Edge 61, Type (0, 1), BuildingBlock: MIFKUJ_clean_linker_0, # of connection points: 2
#     Edge 62, Type (0, 1), BuildingBlock: MIFKUJ_clean_linker_0, # of connection points: 2
#     Edge 63, Type (0, 1), BuildingBlock: MIFKUJ_clean_linker_0, # of connection points: 2
#     Edge 64, Type (0, 1), BuildingBlock: MIFKUJ_clean_linker_0, # of connection points: 2
#     Edge 65, Type (0, 1), BuildingBlock: MIFKUJ_clean_linker_0, # of connection points: 2
#     Edge 66, Type (0, 1), BuildingBlock: MIFKUJ_clean_linker_0, # of connection points: 2
#     Edge 67, Type (0, 1), BuildingBlock: MIFKUJ_clean_linker_0, # of connection points: 2
#     Edge 68, Type (0, 1), BuildingBlock: MIFKUJ_clean_linker_0, # of connection points: 2
#     Edge 69, Type (0, 1), BuildingBlock: MIFKUJ_clean_linker_0, # of connection points: 2
#     Edge 70, Type (0, 1), BuildingBlock: MIFKUJ_clean_linker_0, # of connection points: 2
#     Edge 71, Type (0, 1), BuildingBlock: MIFKUJ_clean_linker_0, # of connection points: 2
#     Edge 72, Type (0, 1), BuildingBlock: MIFKUJ_clean_linker_0, # of connection points: 2
#     Edge 73, Type (0, 1), BuildingBlock: MIFKUJ_clean_linker_0, # of connection points: 2
#     Edge 74, Type (0, 1), BuildingBlock: MIFKUJ_clean_linker_0, # of connection points: 2
#     Edge 75, Type (0, 1), BuildingBlock: MIFKUJ_clean_linker_0, # of connection points: 2
#     Edge 76, Type (0, 1), BuildingBlock: MIFKUJ_clean_linker_0, # of connection points: 2
#     Edge 77, Type (0, 1), BuildingBlock: MIFKUJ_clean_linker_0, # of connection points: 2
#     Edge 78, Type (0, 1), BuildingBlock: MIFKUJ_clean_linker_0, # of connection points: 2
#     Edge 79, Type (0, 1), BuildingBlock: MIFKUJ_clean_linker_0, # of connection points: 2
#     Edge 80, Type (0, 1), BuildingBlock: MIFKUJ_clean_linker_0, # of connection points: 2
# Relax obj value: 0.039
# Max RMSD: 0.194
# Mean RMSD: 0.139
data_MOF--net-eea--node1-KUMBUR_clean_sbu_0--node2-CUQRIR_clean_linker_1--edge1-MIFKUJ_clean_linker_0
_symmetry_space_group_name_H-M    P1
_symmetry_Int_Tables_number       1
_symmetry_cell_setting            triclinic
loop_
_symmetry_equiv_pos_as_xyz
'x, y, z'
_cell_length_a     63.746519
_cell_length_b     68.169135
_cell_length_c     79.725858
_cell_angle_alpha  83.275809
_cell_angle_beta   90.2441
_cell_angle_gamma 118.50313
loop_
_atom_site_label
_atom_site_type_symbol
_atom_site_fract_x
_atom_site_fract_y
_atom_site_fract_z
_atom_type_partial_charge
C0 C 0.21152 0.104 0.41179 0.0
N1 N 0.21716 0.11953 0.42267 0.0
N2 N 0.21541 0.08685 0.41853 0.0
C3 C 0.20449 0.10663 0.39396 0.0
C4 C 0.22363 0.09254 0.43389 0.0
N5 N 0.22497 0.11243 0.43634 0.0
C6 C 0.2286 0.0778 0.44709 0.0
H7 H 0.18473 0.09883 0.39395 0.0
H8 H 0.21049 0.0981 0.38563 0.0
H9 H 0.21228 0.12468 0.38875 0.0
H10 H 0.24769 0.08218 0.44563 0.0
H11 H 0.21742 0.05975 0.44564 0.0
H12 H 0.22506 0.08046 0.46002 0.0
C13 C 0.90647 0.11184 0.41386 0.0
N14 N 0.9167 0.12811 0.42419 0.0
N15 N 0.88585 0.0942 0.4213 0.0
C16 C 0.91613 0.11367 0.39624 0.0
C17 C 0.88411 0.10047 0.43657 0.0
N18 N 0.90263 0.12103 0.43829 0.0
C19 C 0.86508 0.08598 0.45035 0.0
H20 H 0.90139 0.1047 0.38799 0.0
H21 H 0.92796 0.10586 0.3968 0.0
H22 H 0.92684 0.13151 0.39059 0.0
H23 H 0.85815 0.06784 0.44939 0.0
H24 H 0.85008 0.08988 0.44919 0.0
H25 H 0.8722 0.08948 0.46302 0.0
C26 C 0.93393 0.8591 0.41904 0.0
N27 N 0.94227 0.84956 0.43121 0.0
N28 N 0.91203 0.85581 0.42388 0.0
C29 C 0.94621 0.86971 0.4018 0.0
C30 C 0.90743 0.844 0.43954 0.0
N31 N 0.92581 0.84019 0.44397 0.0
C32 C 0.88357 0.83341 0.4493 0.0
H33 H 0.93894 0.88024 0.39524 0.0
H34 H 0.94356 0.85622 0.39413 0.0
H35 H 0.96573 0.88023 0.40286 0.0
H36 H 0.86923 0.8231 0.44123 0.0
H37 H 0.87987 0.84682 0.45269 0.0
H38 H 0.8829 0.82265 0.46106 0.0
C39 C 0.07808 0.15654 0.62378 0.0
N40 N 0.09753 0.16314 0.61329 0.0
N41 N 0.06022 0.15748 0.61515 0.0
C42 C 0.07738 0.15164 0.64274 0.0
C43 C 0.0695 0.16465 0.59897 0.0
N44 N 0.09215 0.16796 0.5978 0.0
C45 C 0.05765 0.17134 0.58476 0.0
H46 H 0.05953 0.1379 0.64768 0.0
H47 H 0.08071 0.16692 0.64839 0.0
H48 H 0.09112 0.14674 0.64672 0.0
H49 H 0.06566 0.18995 0.58274 0.0
H50 H 0.03812 0.16379 0.58767 0.0
H51 H 0.0608 0.16592 0.57286 0.0
C52 C 0.80798 0.9141 0.62967 0.0
N53 N 0.80286 0.89874 0.61872 0.0
N54 N 0.80163 0.9298 0.62361 0.0
C55 C 0.81841 0.91342 0.64656 0.0
C56 C 0.7922 0.9234 0.6087 0.0
N57 N 0.79271 0.90443 0.60577 0.0
C58 C 0.78215 0.93551 0.59713 0.0
H59 H 0.81368 0.92233 0.65536 0.0
H60 H 0.83818 0.92192 0.64472 0.0
H61 H 0.81206 0.89577 0.65236 0.0
H62 H 0.78977 0.95339 0.59914 0.0
H63 H 0.76251 0.92723 0.59976 0.0
H64 H 0.78566 0.93458 0.5837 0.0
C65 C 0.11238 0.91817 0.62952 0.0
N66 N 0.10138 0.90188 0.6193 0.0
N67 N 0.13309 0.93539 0.62186 0.0
C68 C 0.10208 0.91789 0.64653 0.0
C69 C 0.13424 0.9288 0.60661 0.0
N70 N 0.11486 0.9087 0.6049 0.0
C71 C 0.15568 0.94069 0.59419 0.0
H72 H 0.1077 0.93525 0.64924 0.0
H73 H 0.10864 0.90964 0.65641 0.0
H74 H 0.08226 0.9082 0.64716 0.0
H75 H 0.17224 0.95045 0.60069 0.0
H76 H 0.15306 0.95249 0.58472 0.0
H77 H 0.15803 0.92848 0.58742 0.0
C78 C 0.87854 0.43374 0.74661 0.0
N79 N 0.8851 0.45021 0.75675 0.0
N80 N 0.88316 0.41718 0.75365 0.0
C81 C 0.86991 0.43488 0.72911 0.0
C82 C 0.89287 0.42424 0.76839 0.0
N83 N 0.89427 0.44435 0.7702 0.0
C84 C 0.89936 0.41072 0.78163 0.0
H85 H 0.8501 0.4268 0.72995 0.0
H86 H 0.87532 0.4258 0.72089 0.0
H87 H 0.87711 0.4526 0.7232 0.0
H88 H 0.91856 0.41573 0.77961 0.0
H89 H 0.88861 0.39243 0.78085 0.0
H90 H 0.89645 0.41401 0.79448 0.0
C91 C 0.57754 0.44309 0.74758 0.0
N92 N 0.58803 0.45935 0.75794 0.0
N93 N 0.55522 0.42738 0.75386 0.0
C94 C 0.58815 0.44346 0.73066 0.0
C95 C 0.55246 0.43468 0.76835 0.0
N96 N 0.57219 0.45407 0.7708 0.0
C97 C 0.53079 0.42241 0.78049 0.0
H98 H 0.57395 0.43407 0.72217 0.0
H99 H 0.59959 0.4353 0.73252 0.0
H100 H 0.59936 0.46102 0.72453 0.0
H101 H 0.52142 0.4041 0.77952 0.0
H102 H 0.51829 0.42917 0.77737 0.0
H103 H 0.53576 0.42498 0.79372 0.0
C104 C 0.60038 0.20101 0.75444 0.0
N105 N 0.61029 0.19024 0.76415 0.0
N106 N 0.58202 0.20081 0.76307 0.0
C107 C 0.60775 0.21107 0.73622 0.0
C108 C 0.58186 0.1904 0.77864 0.0
N109 N 0.59901 0.18408 0.77936 0.0
C110 C 0.56273 0.18355 0.79245 0.0
H111 H 0.60632 0.22672 0.73368 0.0
H112 H 0.59549 0.19904 0.72792 0.0
H113 H 0.62643 0.21515 0.733 0.0
H114 H 0.54976 0.1654 0.79274 0.0
H115 H 0.5531 0.19348 0.79031 0.0
H116 H 0.57076 0.18595 0.80492 0.0
C117 C 0.74714 0.48622 0.95777 0.0
N118 N 0.76498 0.49622 0.94546 0.0
N119 N 0.72803 0.48869 0.95305 0.0
C120 C 0.74972 0.47714 0.97535 0.0
C121 C 0.73495 0.50069 0.93747 0.0
N122 N 0.7575 0.5055 0.93291 0.0
C123 C 0.72042 0.50953 0.92749 0.0
H124 H 0.73243 0.46852 0.98293 0.0
H125 H 0.76285 0.49128 0.98173 0.0
H126 H 0.75663 0.46507 0.97478 0.0
H127 H 0.72272 0.52499 0.93236 0.0
H128 H 0.70115 0.49699 0.92905 0.0
H129 H 0.72614 0.51358 0.91384 0.0
C130 C 0.47058 0.24377 0.96148 0.0
N131 N 0.46779 0.22984 0.94982 0.0
N132 N 0.46967 0.26237 0.95429 0.0
C133 C 0.47404 0.23903 0.9799 0.0
C134 C 0.46644 0.25933 0.93778 0.0
N135 N 0.46556 0.23968 0.935 0.0
C136 C 0.46402 0.2755 0.92433 0.0
H137 H 0.45679 0.22574 0.9862 0.0
H138 H 0.48023 0.25414 0.98646 0.0
H139 H 0.4871 0.23261 0.98122 0.0
H140 H 0.48103 0.2851 0.91646 0.0
H141 H 0.46018 0.28779 0.92968 0.0
H142 H 0.44966 0.2661 0.91596 0.0
C143 C 0.77888 0.25008 0.96291 0.0
N144 N 0.76712 0.2342 0.95249 0.0
N145 N 0.798 0.2684 0.95452 0.0
C146 C 0.77157 0.24797 0.98123 0.0
C147 C 0.79726 0.26307 0.93853 0.0
N148 N 0.77848 0.24241 0.93727 0.0
C149 C 0.815 0.27783 0.92407 0.0
H150 H 0.76013 0.25603 0.98214 0.0
H151 H 0.78752 0.25675 0.98858 0.0
H152 H 0.76122 0.23018 0.98697 0.0
H153 H 0.82855 0.29426 0.92752 0.0
H154 H 0.80556 0.28137 0.91344 0.0
H155 H 0.82401 0.26883 0.91945 0.0
C156 C 0.54857 0.76796 0.07973 0.0
N157 N 0.55486 0.78392 0.09027 0.0
N158 N 0.55082 0.75013 0.08715 0.0
C159 C 0.53993 0.76957 0.06231 0.0
C160 C 0.55864 0.75584 0.10258 0.0
N161 N 0.56096 0.77624 0.10452 0.0
C162 C 0.56532 0.74206 0.11544 0.0
H163 H 0.53142 0.78051 0.06111 0.0
H164 H 0.52706 0.75262 0.05919 0.0
H165 H 0.55548 0.77701 0.05298 0.0
H166 H 0.57112 0.73157 0.10922 0.0
H167 H 0.5495 0.73078 0.12414 0.0
H168 H 0.5799 0.75306 0.12306 0.0
C169 C 0.23877 0.77883 0.0799 0.0
N170 N 0.24958 0.79498 0.09031 0.0
N171 N 0.21718 0.76227 0.08684 0.0
C172 C 0.24809 0.78036 0.06222 0.0
C173 C 0.21525 0.76901 0.10184 0.0
N174 N 0.23463 0.78889 0.10388 0.0
C175 C 0.19513 0.75547 0.11511 0.0
H176 H 0.23316 0.77175 0.05399 0.0
H177 H 0.25939 0.77202 0.06263 0.0
H178 H 0.25909 0.79817 0.05657 0.0
H179 H 0.18696 0.7372 0.11415 0.0
H180 H 0.1812 0.76075 0.1133 0.0
H181 H 0.20158 0.75843 0.128 0.0
C182 C 0.2636 0.52323 0.08494 0.0
N183 N 0.2758 0.51656 0.096 0.0
N184 N 0.24429 0.5221 0.09288 0.0
C185 C 0.26854 0.52775 0.06606 0.0
C186 C 0.24531 0.51456 0.10919 0.0
N187 N 0.26455 0.51129 0.11114 0.0
C188 C 0.22555 0.50712 0.12258 0.0
H189 H 0.26378 0.54068 0.06047 0.0
H190 H 0.25737 0.51199 0.06055 0.0
H191 H 0.28763 0.53346 0.06268 0.0
H192 H 0.21366 0.48875 0.12296 0.0
H193 H 0.21485 0.5159 0.11971 0.0
H194 H 0.23291 0.51037 0.13519 0.0
C195 C 0.41722 0.83267 0.29217 0.0
N196 N 0.43678 0.83981 0.28168 0.0
N197 N 0.39991 0.83514 0.28389 0.0
C198 C 0.41604 0.82585 0.31094 0.0
C199 C 0.40965 0.84395 0.26794 0.0
N200 N 0.4321 0.84672 0.26656 0.0
C201 C 0.39834 0.85229 0.25429 0.0
H202 H 0.398 0.81199 0.31535 0.0
H203 H 0.41954 0.84045 0.31758 0.0
H204 H 0.42947 0.82033 0.31437 0.0
H205 H 0.4093 0.87083 0.25119 0.0
H206 H 0.37978 0.84796 0.25814 0.0
H207 H 0.3979 0.8447 0.24265 0.0
C208 C 0.13509 0.581 0.29373 0.0
N209 N 0.13021 0.56554 0.28287 0.0
N210 N 0.13423 0.59939 0.28595 0.0
C211 C 0.14076 0.57827 0.31193 0.0
C212 C 0.12895 0.59473 0.26993 0.0
N213 N 0.12681 0.57435 0.26796 0.0
C214 C 0.12568 0.61003 0.25616 0.0
H215 H 0.1238 0.56911 0.31989 0.0
H216 H 0.15157 0.59472 0.31655 0.0
H217 H 0.15059 0.56849 0.3136 0.0
H218 H 0.14182 0.61843 0.24735 0.0
H219 H 0.12324 0.62333 0.26114 0.0
H220 H 0.11009 0.60009 0.24885 0.0
C221 C 0.44711 0.58252 0.29631 0.0
N222 N 0.43633 0.56627 0.28605 0.0
N223 N 0.4667 0.60068 0.2882 0.0
C224 C 0.43813 0.58089 0.31408 0.0
C225 C 0.46729 0.59478 0.2726 0.0
N226 N 0.44882 0.57407 0.27124 0.0
C227 C 0.48683 0.6086 0.259 0.0
H228 H 0.41842 0.57026 0.31564 0.0
H229 H 0.44322 0.59785 0.31751 0.0
H230 H 0.44629 0.57297 0.32289 0.0
H231 H 0.4897 0.59766 0.25108 0.0
H232 H 0.50389 0.61945 0.26456 0.0
H233 H 0.48152 0.61953 0.2507 0.0
Tb234 Tb 0.50594 0.9987 1.00239 0.0
C235 C 0.5476 0.06908 0.05166 0.0
C236 C 0.58974 0.08031 0.0521 0.0
C237 C 0.57553 0.10566 0.0596 0.0
C238 C 0.5661 0.06447 0.04925 0.0
C239 C 0.552 0.08964 0.05699 0.0
C240 C 0.5944 0.10107 0.05703 0.0
C241 C 0.5094 0.07612 0.05836 0.0
N242 N 0.52505 0.05274 0.04977 0.0
C243 C 0.5059 0.05577 0.05349 0.0
C244 C 0.53256 0.09318 0.06006 0.0
Tb245 Tb 0.52106 0.01956 0.04249 0.0
N246 N 0.5607 0.04389 0.04516 0.0
C247 C 0.57813 0.03767 0.04464 0.0
C248 C 0.60781 0.07443 0.05066 0.0
C249 C 0.6019 0.05288 0.04715 0.0
H250 H 0.48787 0.0427 0.05238 0.0
H251 H 0.61564 0.04794 0.04639 0.0
H252 H 0.61244 0.11347 0.05926 0.0
H253 H 0.49421 0.07855 0.06095 0.0
H254 H 0.57396 0.02106 0.04206 0.0
H255 H 0.41143 0.97024 0.99841 0.0
H256 H 0.6262 0.08611 0.05272 0.0
H257 H 0.53931 0.97633 0.99149 0.0
H258 H 0.45301 0.99727 1.00253 0.0
H259 H 0.53308 0.94043 0.98303 0.0
H260 H 0.57929 0.12156 0.06371 0.0
H261 H 0.40096 0.93183 0.99244 0.0
H262 H 0.41449 0.9038 0.98751 0.0
H263 H 0.5352 0.10881 0.06408 0.0
H264 H 0.44769 0.89566 0.98334 0.0
N265 N 0.46637 0.97447 0.99956 0.0
C266 C 0.44888 0.9806 1.00011 0.0
C267 C 0.41928 0.94359 0.99456 0.0
C268 C 0.43733 0.93762 0.99343 0.0
C269 C 0.42513 0.96524 0.99781 0.0
C270 C 0.461 0.95371 0.99588 0.0
H271 H 0.49201 0.90954 0.98104 0.0
N272 N 0.50211 0.96573 0.99494 0.0
C273 C 0.51784 0.94259 0.98607 0.0
C274 C 0.47954 0.94915 0.9935 0.0
C275 C 0.52129 0.96298 0.99082 0.0
C276 C 0.49465 0.92515 0.98506 0.0
C277 C 0.47513 0.92835 0.98865 0.0
O278 O 0.52669 0.01099 0.97941 0.0
O279 O 0.53208 0.02351 0.01643 0.0
O280 O 0.51998 0.04614 0.02476 0.0
O281 O 0.49417 0.02388 0.00585 0.0
O282 O 0.54499 0.01204 0.99939 0.0
O283 O 0.49346 0.0118 0.98184 0.0
O284 O 0.50199 0.00905 0.06614 0.0
O285 O 0.49446 0.99468 0.02853 0.0
O286 O 0.50729 0.97218 0.01985 0.0
O287 O 0.53286 0.99426 0.03899 0.0
O288 O 0.48225 1.00675 0.04587 0.0
O289 O 0.53319 1.00509 0.06236 0.0
C290 C 0.55153 0.02636 0.01004 0.0
C291 C 0.50603 0.00913 0.95472 0.0
C292 C 0.51293 0.01963 0.92407 0.0
C293 C 0.51609 0.02563 0.94059 0.0
C294 C 0.49915 0.9967 0.92206 0.0
C295 C 0.49211 0.9865 0.95241 0.0
C296 C 0.48868 0.98035 0.93614 0.0
C297 C 0.50502 0.04308 0.0125 0.0
C298 C 0.51145 0.0159 0.97169 0.0
C299 C 0.45149 0.91183 0.98693 0.0
C300 C 0.4326 0.91646 0.98931 0.0
C301 C 0.47539 0.9926 0.03512 0.0
C302 C 0.52477 0.0102 0.08981 0.0
C303 C 0.52323 0.9942 0.10322 0.0
C304 C 0.52951 1.00027 0.11954 0.0
C305 C 0.53794 0.02289 0.12202 0.0
C306 C 0.53316 0.03259 0.09261 0.0
C307 C 0.53987 0.03889 0.10861 0.0
C308 C 0.52221 0.97523 0.03208 0.0
C309 C 0.51679 1.00293 0.07322 0.0
H310 H 0.5264 0.04314 0.94255 0.0
H311 H 0.49671 0.99126 0.90964 0.0
H312 H 0.48413 0.9736 0.96311 0.0
H313 H 0.47812 0.9628 0.93443 0.0
H314 H 0.51695 0.97697 0.1009 0.0
H315 H 0.54244 0.02817 0.13443 0.0
H316 H 0.53419 0.04511 0.08257 0.0
H317 H 0.54616 0.05618 0.11071 0.0
Tb318 Tb 0.02185 0.52537 0.99722 0.0
C319 C 0.94011 0.47961 0.05176 0.0
C320 C 0.92363 0.50513 0.04996 0.0
C321 C 0.89776 0.4651 0.05859 0.0
C322 C 0.94313 0.50104 0.04811 0.0
C323 C 0.91755 0.4614 0.05745 0.0
C324 C 0.90079 0.48695 0.05482 0.0
C325 C 0.93633 0.43782 0.06175 0.0
N326 N 0.95971 0.47686 0.05053 0.0
C327 C 0.95834 0.45648 0.05608 0.0
C328 C 0.91577 0.44022 0.06223 0.0
Tb329 Tb 0.99472 0.50801 0.04011 0.0
N330 N 0.96552 0.51805 0.04365 0.0
C331 C 0.96994 0.53991 0.0422 0.0
C332 C 0.92783 0.52738 0.04739 0.0
C333 C 0.95117 0.54487 0.04376 0.0
H334 H 0.97411 0.45443 0.05561 0.0
H335 H 0.95473 0.56219 0.04211 0.0
H336 H 0.88551 0.4897 0.05615 0.0
H337 H 0.93523 0.42161 0.06572 0.0
H338 H 0.9878 0.55368 0.0393 0.0
H339 H 0.0588 0.46966 0.99045 0.0
H340 H 0.91334 0.53127 0.04863 0.0
H341 H 0.04411 0.58014 0.98508 0.0
H342 H 0.02702 0.47901 0.99606 0.0
H343 H 0.08325 0.61266 0.97513 0.0
H344 H 0.88019 0.45131 0.06276 0.0
H345 H 0.10012 0.49999 0.9826 0.0
H346 H 0.12872 0.54144 0.97585 0.0
H347 H 0.89876 0.42577 0.06667 0.0
H348 H 0.13547 0.58045 0.97185 0.0
N349 N 0.04992 0.51456 0.99179 0.0
C350 C 0.04482 0.49255 0.99256 0.0
C351 C 0.08618 0.50426 0.98501 0.0
C352 C 0.09108 0.52671 0.98343 0.0
C353 C 0.06288 0.48711 0.98942 0.0
C354 C 0.07229 0.53132 0.98681 0.0
H355 H 0.11855 0.60719 0.97143 0.0
N356 N 0.05729 0.55657 0.98759 0.0
C357 C 0.08154 0.59602 0.9779 0.0
C358 C 0.07616 0.55314 0.98476 0.0
C359 C 0.05938 0.57754 0.9835 0.0
C360 C 0.10144 0.59287 0.97585 0.0
C361 C 0.09881 0.57116 0.979 0.0
O362 O 0.01068 0.53778 0.97553 0.0
O363 O 0.99259 0.51923 0.01411 0.0
O364 O 0.97133 0.48152 0.02536 0.0
O365 O 0.99643 0.48845 1.00152 0.0
O366 O 0.00507 0.54695 0.99667 0.0
O367 O 0.01125 0.50637 0.97676 0.0
O368 O 0.00629 0.49721 0.06242 0.0
O369 O 0.02343 0.5134 0.02301 0.0
O370 O 0.04594 0.55055 0.01292 0.0
O371 O 0.01962 0.54482 0.03552 0.0
O372 O 0.01226 0.48688 0.04149 0.0
O373 O 0.00471 0.52822 0.0598 0.0
C374 C 0.98846 0.53493 0.00828 0.0
C375 C 0.01715 0.52725 0.94969 0.0
C376 C 0.01097 0.52468 0.91951 0.0
C377 C 1.00188 0.51859 0.93652 0.0
C378 C 0.03552 0.53958 0.91595 0.0
C379 C 0.04154 0.54195 0.94576 0.0
C380 C 0.05064 0.54808 0.92899 0.0
C381 C 0.97651 0.47555 0.01136 0.0
C382 C 0.00735 0.52116 0.96738 0.0
C383 C 0.11785 0.56682 0.97613 0.0
C384 C 0.11399 0.54462 0.97837 0.0
C385 C 0.02767 0.49784 0.02899 0.0
C386 C 0.99906 0.50898 0.08746 0.0
C387 C 0.01435 0.51272 0.10092 0.0
C388 C 0.00526 0.50809 0.11788 0.0
C389 C 0.98051 0.49962 0.12102 0.0
C390 C 0.97453 0.5005 0.09098 0.0
C391 C 0.96534 0.49582 0.10767 0.0
C392 C 0.04043 0.55691 0.02662 0.0
C393 C 0.00901 0.51421 0.06985 0.0
H394 H 0.98305 0.50701 0.93953 0.0
H395 H 0.04304 0.54488 0.90303 0.0
H396 H 0.05358 0.54884 0.95557 0.0
H397 H 0.06949 0.55955 0.92608 0.0
H398 H 0.03327 0.51912 0.09816 0.0
H399 H 0.97285 0.49633 0.13379 0.0
H400 H 0.96251 0.49767 0.08085 0.0
H401 H 0.94638 0.48941 0.11029 0.0
Tb402 Tb 0.50215 0.4915 0.046 0.0
C403 C 0.48127 0.54306 0.98617 0.0
C404 C 0.43906 0.51945 0.98327 0.0
C405 C 0.45734 0.55975 0.97431 0.0
C406 C 0.46135 0.52217 0.98849 0.0
C407 C 0.4797 0.56209 0.97873 0.0
C408 C 0.43709 0.53839 0.97642 0.0
C409 C 0.52278 0.58339 0.9782 0.0
N410 N 0.5026 0.5443 0.9898 0.0
C411 C 0.52339 0.5639 0.98524 0.0
C412 C 0.5008 0.58257 0.97514 0.0
Tb413 Tb 0.50216 0.51179 1.00166 0.0
N414 N 0.4644 0.50424 0.99424 0.0
C415 C 0.44598 0.48287 0.99408 0.0
C416 C 0.41978 0.49767 0.9842 0.0
C417 C 0.42336 0.47928 0.98939 0.0
H418 H 0.54045 0.56466 0.98758 0.0
H419 H 0.40874 0.46231 0.98973 0.0
H420 H 0.4202 0.53657 0.97211 0.0
H421 H 0.53925 0.599 0.97506 0.0
H422 H 0.44832 0.46839 0.99793 0.0
H423 H 0.59347 0.53992 0.06264 0.0
H424 H 0.40233 0.49485 0.98037 0.0
H425 H 0.46343 0.43694 0.054 0.0
H426 H 0.5555 0.53443 0.05108 0.0
H427 H 0.46367 0.40226 0.06657 0.0
H428 H 0.4557 0.57414 0.9686 0.0
H429 H 0.59819 0.50699 0.07401 0.0
H430 H 0.57957 0.46509 0.08166 0.0
H431 H 0.50037 0.5976 0.96945 0.0
H432 H 0.54432 0.42758 0.08262 0.0
N433 N 0.53886 0.49858 0.05518 0.0
C434 C 0.55723 0.51982 0.05583 0.0
C435 C 0.58149 0.50444 0.06879 0.0
C436 C 0.56226 0.48278 0.06881 0.0
C437 C 0.57886 0.52305 0.06244 0.0
C438 C 0.54094 0.48039 0.06182 0.0
H439 H 0.50108 0.40399 0.07697 0.0
N440 N 0.50066 0.45807 0.05644 0.0
C441 C 0.48001 0.41818 0.06538 0.0
C442 C 0.52116 0.45938 0.06248 0.0
C443 C 0.47995 0.4379 0.05827 0.0
C444 C 0.50117 0.41922 0.0712 0.0
C445 C 0.522 0.44004 0.07004 0.0
O446 O 0.47499 0.4805 0.06524 0.0
O447 O 0.4839 0.50051 0.02636 0.0
O448 O 0.50629 0.53903 0.01579 0.0
O449 O 0.51686 0.52851 0.04231 0.0
O450 O 0.46373 0.4724 0.0426 0.0
O451 O 0.50944 0.50893 0.06738 0.0
O452 O 0.52712 0.5224 0.98077 0.0
O453 O 0.52073 0.50431 0.02162 0.0
O454 O 0.50387 0.46753 0.03089 0.0
O455 O 0.4867 0.47451 0.00658 0.0
O456 O 0.54116 0.52992 1.00393 0.0
O457 O 0.49453 0.49111 0.98238 0.0
C458 C 0.4626 0.48569 0.03021 0.0
C459 C 0.48761 0.48705 0.09296 0.0
C460 C 0.48245 0.48973 0.12304 0.0
C461 C 0.48451 0.49838 0.10571 0.0
C462 C 0.48338 0.46949 0.12718 0.0
C463 C 0.48884 0.46718 0.09766 0.0
C464 C 0.48674 0.45849 0.11463 0.0
C465 C 0.51433 0.54318 0.03107 0.0
C466 C 0.48843 0.49542 0.07484 0.0
C467 C 0.5433 0.44223 0.07672 0.0
C468 C 0.56338 0.46358 0.07616 0.0
C469 C 0.54221 0.51821 0.01745 0.0
C470 C 0.51028 0.51001 0.95495 0.0
C471 C 0.52127 0.50466 0.94216 0.0
C472 C 0.51654 0.50793 0.925 0.0
C473 C 0.5012 0.517 0.92087 0.0
C474 C 0.49511 0.51907 0.95038 0.0
C475 C 0.49071 0.52264 0.93346 0.0
C476 C 0.49314 0.46155 0.01667 0.0
C477 C 0.51375 0.50519 0.97304 0.0
H478 H 0.48377 0.51386 0.10211 0.0
H479 H 0.48111 0.4618 0.14019 0.0
H480 H 0.49099 0.45806 0.08826 0.0
H481 H 0.4874 0.44297 0.11806 0.0
H482 H 0.53285 0.49744 0.94556 0.0
H483 H 0.49738 0.51981 0.90782 0.0
H484 H 0.48639 0.52313 0.95988 0.0
H485 H 0.47891 0.5296 0.93011 0.0
Tb486 Tb 0.17315 0.3356 0.33641 0.0
C487 C 0.2027 0.40353 0.38861 0.0
C488 C 0.2455 0.41907 0.38964 0.0
C489 C 0.22636 0.44013 0.39808 0.0
C490 C 0.22306 0.40193 0.3858 0.0
C491 C 0.204 0.42252 0.39498 0.0
C492 C 0.24702 0.43824 0.39567 0.0
C493 C 0.16091 0.40371 0.39734 0.0
N494 N 0.18139 0.38555 0.38647 0.0
C495 C 0.16054 0.38511 0.39127 0.0
C496 C 0.18274 0.42264 0.39898 0.0
Tb497 Tb 0.18243 0.35545 0.377 0.0
N498 N 0.22055 0.38258 0.3809 0.0
C499 C 0.23976 0.37879 0.38058 0.0
C500 C 0.26546 0.41583 0.38821 0.0
C501 C 0.26252 0.39551 0.38378 0.0
H502 H 0.14344 0.37067 0.3902 0.0
H503 H 0.27772 0.39256 0.38307 0.0
H504 H 0.26386 0.45127 0.39922 0.0
H505 H 0.14433 0.40338 0.40079 0.0
H506 H 0.23775 0.36297 0.37759 0.0
H507 H 0.0786 0.30531 0.32906 0.0
H508 H 0.28301 0.42852 0.39107 0.0
H509 H 0.20771 0.31356 0.3276 0.0
H510 H 0.12005 0.3338 0.3324 0.0
H511 H 0.20242 0.27655 0.32224 0.0
H512 H 0.22775 0.4548 0.40307 0.0
H513 H 0.06885 0.26596 0.32703 0.0
H514 H 0.08338 0.23781 0.32507 0.0
H515 H 0.18299 0.43692 0.40388 0.0
H516 H 0.11716 0.22995 0.32311 0.0
N517 N 0.134 0.31089 0.33254 0.0
C518 C 0.11627 0.3168 0.33141 0.0
C519 C 0.08718 0.27844 0.32844 0.0
C520 C 0.10558 0.27278 0.32863 0.0
C521 C 0.09263 0.30064 0.32952 0.0
C522 C 0.12909 0.28964 0.33058 0.0
H523 H 0.16171 0.24442 0.32177 0.0
N524 N 0.17034 0.3023 0.33064 0.0
C525 C 0.18694 0.27872 0.32437 0.0
C526 C 0.14795 0.28518 0.32953 0.0
C527 C 0.18987 0.29968 0.32736 0.0
C528 C 0.16393 0.26061 0.32415 0.0
C529 C 0.14406 0.2638 0.32645 0.0
O530 O 0.19709 0.34845 0.31499 0.0
O531 O 0.19652 0.36166 0.35117 0.0
O532 O 0.17783 0.38078 0.36009 0.0
O533 O 0.16045 0.36063 0.33739 0.0
O534 O 0.21216 0.34956 0.33618 0.0
O535 O 0.16202 0.3456 0.31354 0.0
O536 O 0.16212 0.34143 0.40021 0.0
O537 O 0.15876 0.33077 0.36172 0.0
O538 O 0.17425 0.30976 0.35474 0.0
O539 O 0.1975 0.33239 0.37432 0.0
O540 O 0.14321 0.34014 0.3787 0.0
O541 O 0.19534 0.34104 0.39624 0.0
C542 C 0.21668 0.36452 0.34609 0.0
C543 C 0.18034 0.34299 0.28864 0.0
C544 C 0.19292 0.3519 0.25852 0.0
C545 C 0.19184 0.35885 0.27433 0.0
C546 C 0.18207 0.32863 0.25741 0.0
C547 C 0.16916 0.31999 0.2871 0.0
C548 C 0.17008 0.31287 0.27156 0.0
C549 C 0.16637 0.37811 0.34586 0.0
C550 C 0.18195 0.35093 0.30519 0.0
C551 C 0.12058 0.24659 0.32529 0.0
C552 C 0.10135 0.25106 0.32641 0.0
C553 C 0.13854 0.3271 0.3673 0.0
C554 C 0.18415 0.34133 0.42415 0.0
C555 C 0.18084 0.32379 0.43675 0.0
C556 C 0.18694 0.32802 0.45342 0.0
C557 C 0.19681 0.35028 0.45718 0.0
C558 C 0.19398 0.36338 0.42811 0.0
C559 C 0.20034 0.36781 0.44457 0.0
C560 C 0.18805 0.31317 0.36768 0.0
C561 C 0.17766 0.33609 0.40695 0.0
H562 H 0.19988 0.37659 0.27564 0.0
H563 H 0.18298 0.32247 0.24567 0.0
H564 H 0.16 0.30754 0.29788 0.0
H565 H 0.16171 0.29505 0.27051 0.0
H566 H 0.17359 0.30683 0.43349 0.0
H567 H 0.20132 0.35411 0.46993 0.0
H568 H 0.19672 0.37711 0.41858 0.0
H569 H 0.20784 0.38485 0.4476 0.0
Tb570 Tb 0.68766 0.86018 0.3315 0.0
C571 C 0.61292 0.80569 0.38921 0.0
C572 C 0.59553 0.8296 0.3932 0.0
C573 C 0.5717 0.78902 0.40024 0.0
C574 C 0.61492 0.82681 0.38795 0.0
C575 C 0.5915 0.78653 0.39576 0.0
C576 C 0.57377 0.81057 0.39906 0.0
C577 C 0.61202 0.76456 0.39546 0.0
N578 N 0.63277 0.80419 0.38544 0.0
C579 C 0.63296 0.78415 0.38928 0.0
C580 C 0.59107 0.76569 0.39846 0.0
Tb581 Tb 0.66625 0.83701 0.37517 0.0
N582 N 0.63656 0.84473 0.38297 0.0
C583 C 0.64036 0.86608 0.38398 0.0
C584 C 0.59895 0.85144 0.3932 0.0
C585 C 0.62158 0.86975 0.38882 0.0
H586 H 0.64912 0.78318 0.38706 0.0
H587 H 0.62461 0.88672 0.38918 0.0
H588 H 0.55871 0.81239 0.40322 0.0
H589 H 0.61209 0.74865 0.39797 0.0
H590 H 0.65771 0.88048 0.3807 0.0
H591 H 0.72934 0.8131 0.31192 0.0
H592 H 0.58448 0.85431 0.3971 0.0
H593 H 0.70466 0.91497 0.32561 0.0
H594 H 0.69727 0.81785 0.32468 0.0
H595 H 0.74014 0.95012 0.31377 0.0
H596 H 0.55501 0.77452 0.40522 0.0
H597 H 0.76697 0.84647 0.30035 0.0
H598 H 0.79128 0.88865 0.29425 0.0
H599 H 0.57496 0.75055 0.40345 0.0
H600 H 0.79467 0.92593 0.29537 0.0
N601 N 0.71699 0.85371 0.32135 0.0
C602 C 0.71375 0.83263 0.32002 0.0
C603 C 0.75322 0.84871 0.30635 0.0
C604 C 0.75618 0.87025 0.30728 0.0
C605 C 0.73191 0.82983 0.31276 0.0
C606 C 0.73745 0.87219 0.31487 0.0
H607 H 0.77571 0.94906 0.30264 0.0
N608 N 0.72015 0.89405 0.32178 0.0
C609 C 0.74022 0.93424 0.31425 0.0
C610 C 0.73914 0.8931 0.31515 0.0
C611 C 0.72009 0.91424 0.32092 0.0
C612 C 0.76023 0.93355 0.30795 0.0
C613 C 0.75972 0.91278 0.30809 0.0
O614 O 0.67167 0.8723 0.31295 0.0
O615 O 0.66005 0.85006 0.35097 0.0
O616 O 0.64253 0.81106 0.35991 0.0
O617 O 0.66413 0.82309 0.33358 0.0
O618 O 0.66884 0.87908 0.33587 0.0
O619 O 0.67742 0.84436 0.30936 0.0
O620 O 0.68081 0.82511 0.39512 0.0
O621 O 0.69337 0.84606 0.35546 0.0
O622 O 0.71356 0.88354 0.34727 0.0
O623 O 0.68995 0.87424 0.37221 0.0
O624 O 0.68529 0.81799 0.3718 0.0
O625 O 0.67743 0.85474 0.3963 0.0
C626 C 0.6539 0.86502 0.34779 0.0
C627 C 0.67825 0.86803 0.28473 0.0
C628 C 0.67192 0.86562 0.25447 0.0
C629 C 0.66569 0.85586 0.27159 0.0
C630 C 0.69099 0.88777 0.25091 0.0
C631 C 0.69745 0.88984 0.28066 0.0
C632 C 0.70375 0.89958 0.26387 0.0
C633 C 0.64643 0.80778 0.34438 0.0
C634 C 0.67031 0.85836 0.30259 0.0
C635 C 0.77873 0.91102 0.30092 0.0
C636 C 0.77687 0.88978 0.30038 0.0
C637 C 0.69901 0.83076 0.35889 0.0
C638 C 0.67449 0.83278 0.42233 0.0
C639 C 0.68987 0.8418 0.43544 0.0
C640 C 0.68135 0.83445 0.4526 0.0
C641 C 0.65739 0.81768 0.45629 0.0
C642 C 0.65065 0.81643 0.42653 0.0
C643 C 0.64223 0.80888 0.44337 0.0
C644 C 0.7094 0.88806 0.36224 0.0
C645 C 0.68331 0.84052 0.40438 0.0
H646 H 0.6511 0.8389 0.27479 0.0
H647 H 0.69593 0.89631 0.23809 0.0
H648 H 0.7073 0.89961 0.2904 0.0
H649 H 0.71836 0.91656 0.2609 0.0
H650 H 0.70823 0.85469 0.43226 0.0
H651 H 0.65032 0.81115 0.46925 0.0
H652 H 0.63848 0.80938 0.41686 0.0
H653 H 0.62383 0.79608 0.44642 0.0
Tb654 Tb 0.17206 0.82986 0.37945 0.0
C655 C 0.14116 0.87611 0.32218 0.0
C656 C 0.09864 0.85127 0.32206 0.0
C657 C 0.11475 0.89152 0.31376 0.0
C658 C 0.12191 0.85482 0.32511 0.0
C659 C 0.13798 0.89471 0.31611 0.0
C660 C 0.09509 0.86981 0.31674 0.0
C661 C 0.18098 0.9177 0.31384 0.0
N662 N 0.16322 0.87836 0.32451 0.0
C663 C 0.18317 0.89865 0.31977 0.0
C664 C 0.15827 0.91578 0.31219 0.0
Tb665 Tb 0.16499 0.84655 0.33549 0.0
N666 N 0.12622 0.83743 0.33007 0.0
C667 C 0.1081 0.81575 0.33095 0.0
C668 C 0.07981 0.82916 0.32396 0.0
C669 C 0.08464 0.81131 0.32816 0.0
H670 H 0.2008 0.90034 0.3211 0.0
H671 H 0.07029 0.79412 0.32932 0.0
H672 H 0.07732 0.86747 0.31449 0.0
H673 H 0.1968 0.93383 0.31055 0.0
H674 H 0.11142 0.80173 0.3343 0.0
H675 H 0.26604 0.88196 0.3884 0.0
H676 H 0.06165 0.82569 0.32177 0.0
H677 H 0.13564 0.77575 0.39262 0.0
H678 H 0.22555 0.87451 0.38128 0.0
H679 H 0.13906 0.74224 0.40396 0.0
H680 H 0.11186 0.90562 0.30925 0.0
H681 H 0.27381 0.85022 0.39783 0.0
H682 H 0.25802 0.80859 0.40499 0.0
H683 H 0.15661 0.93054 0.30753 0.0
H684 H 0.22342 0.77043 0.40912 0.0
N685 N 0.21044 0.83878 0.38595 0.0
C686 C 0.22857 0.86044 0.38528 0.0
C687 C 0.25606 0.84689 0.39449 0.0
C688 C 0.23728 0.82483 0.39587 0.0
C689 C 0.25166 0.86479 0.38929 0.0
C690 C 0.21438 0.82134 0.39162 0.0
H691 H 0.17888 0.74552 0.40895 0.0
N692 N 0.17327 0.79783 0.39063 0.0
C693 C 0.155 0.75839 0.40113 0.0
C694 C 0.19509 0.80004 0.39398 0.0
C695 C 0.15314 0.77747 0.39473 0.0
C696 C 0.1775 0.7603 0.40389 0.0
C697 C 0.1979 0.78139 0.4006 0.0
O698 O 0.14796 0.81945 0.4008 0.0
O699 O 0.15007 0.83556 0.36113 0.0
O700 O 0.16717 0.87268 0.34998 0.0
O701 O 0.1859 0.86684 0.3739 0.0
O702 O 0.13323 0.80889 0.37926 0.0
O703 O 0.18097 0.85045 0.39892 0.0
O704 O 0.18882 0.85645 0.31407 0.0
O705 O 0.18708 0.84108 0.35385 0.0
O706 O 0.17065 0.80407 0.36478 0.0
O707 O 0.15151 0.80975 0.34108 0.0
O708 O 0.20394 0.86738 0.33531 0.0
O709 O 0.15508 0.82624 0.31578 0.0
C710 C 0.12964 0.82016 0.36658 0.0
C711 C 0.16537 0.8315 0.42645 0.0
C712 C 0.15771 0.83157 0.45663 0.0
C713 C 0.1547 0.83692 0.4394 0.0
C714 C 0.1719 0.82112 0.46054 0.0
C715 C 0.17935 0.8211 0.43084 0.0
C716 C 0.18259 0.81598 0.44776 0.0
C717 C 0.17874 0.87924 0.36383 0.0
C718 C 0.16183 0.83659 0.40844 0.0
C719 C 0.22082 0.78455 0.40416 0.0
C720 C 0.2405 0.80627 0.40181 0.0
C721 C 0.20747 0.85644 0.34827 0.0
C722 C 0.17124 0.84526 0.28831 0.0
C723 C 0.18003 0.83818 0.27528 0.0
C724 C 0.17712 0.84384 0.25806 0.0
C725 C 0.1657 0.85703 0.25429 0.0
C726 C 0.15957 0.85796 0.28402 0.0
C727 C 0.15695 0.86387 0.26714 0.0
C728 C 0.15922 0.79758 0.35085 0.0
C729 C 0.17443 0.83965 0.30631 0.0
H730 H 0.14383 0.84494 0.43607 0.0
H731 H 0.17508 0.8172 0.47355 0.0
H732 H 0.18784 0.81699 0.42121 0.0
H733 H 0.19353 0.80803 0.45098 0.0
H734 H 0.18881 0.82814 0.27858 0.0
H735 H 0.16371 0.86236 0.24132 0.0
H736 H 0.15258 0.86341 0.29371 0.0
H737 H 0.14814 0.87392 0.26398 0.0
Tb738 Tb 0.83881 0.66689 0.67142 0.0
C739 C 0.88384 0.7389 0.71935 0.0
C740 C 0.92626 0.75118 0.71789 0.0
C741 C 0.91193 0.7762 0.72595 0.0
C742 C 0.90247 0.73481 0.71601 0.0
C743 C 0.88826 0.75959 0.72443 0.0
C744 C 0.93091 0.77205 0.72259 0.0
C745 C 0.84557 0.74517 0.72748 0.0
N746 N 0.86126 0.72206 0.71844 0.0
C747 C 0.8421 0.72473 0.72282 0.0
C748 C 0.86876 0.76272 0.72825 0.0
Tb749 Tb 0.85739 0.68904 0.71092 0.0
N750 N 0.89712 0.71414 0.71214 0.0
C751 C 0.91478 0.70832 0.71102 0.0
C752 C 0.94452 0.74571 0.71576 0.0
C753 C 0.9387 0.72405 0.71259 0.0
H754 H 0.82407 0.71132 0.72235 0.0
H755 H 0.95261 0.71943 0.71133 0.0
H756 H 0.94907 0.78488 0.72404 0.0
H757 H 0.83034 0.74732 0.7306 0.0
H758 H 0.91067 0.69164 0.70866 0.0
H759 H 0.7434 0.6372 0.67351 0.0
H760 H 0.96303 0.75781 0.71707 0.0
H761 H 0.87057 0.64426 0.65812 0.0
H762 H 0.78572 0.66531 0.67388 0.0
H763 H 0.86324 0.60755 0.65065 0.0
H764 H 0.91572 0.79222 0.72984 0.0
H765 H 0.73209 0.59798 0.6696 0.0
H766 H 0.74512 0.56977 0.66377 0.0
H767 H 0.87139 0.77843 0.73209 0.0
H768 H 0.7778 0.56165 0.65748 0.0
N769 N 0.79874 0.64232 0.67063 0.0
C770 C 0.78128 0.64837 0.67207 0.0
C771 C 0.75081 0.61029 0.66973 0.0
C772 C 0.76876 0.60451 0.66725 0.0
C773 C 0.75712 0.63242 0.67189 0.0
C774 C 0.79282 0.62117 0.66765 0.0
H775 H 0.82196 0.57574 0.65229 0.0
N776 N 0.8338 0.63351 0.66398 0.0
C777 C 0.84839 0.60976 0.65461 0.0
C778 C 0.81103 0.61661 0.66412 0.0
C779 C 0.85246 0.63063 0.65874 0.0
C780 C 0.82507 0.59188 0.65553 0.0
C781 C 0.80598 0.59526 0.66011 0.0
O782 O 0.85688 0.67751 0.64738 0.0
O783 O 0.86622 0.69221 0.68446 0.0
O784 O 0.85473 0.71499 0.6934 0.0
O785 O 0.82718 0.69191 0.67568 0.0
O786 O 0.8777 0.68069 0.66654 0.0
O787 O 0.8251 0.68029 0.65202 0.0
O788 O 0.8409 0.67928 0.73549 0.0
O789 O 0.8299 0.6638 0.69789 0.0
O790 O 0.84231 0.64129 0.68848 0.0
O791 O 0.86928 0.66409 0.70666 0.0
O792 O 0.81864 0.67524 0.71622 0.0
O793 O 0.87085 0.67425 0.72949 0.0
C794 C 0.88514 0.6951 0.67713 0.0
C795 C 0.83314 0.67557 0.62432 0.0
C796 C 0.83781 0.68421 0.59354 0.0
C797 C 0.84534 0.6902 0.60966 0.0
C798 C 0.81797 0.663 0.5924 0.0
C799 C 0.81344 0.65451 0.62296 0.0
C800 C 0.80596 0.64827 0.60703 0.0
C801 C 0.8387 0.71142 0.68184 0.0
C802 C 0.84135 0.68295 0.64079 0.0
C803 C 0.78209 0.57825 0.66038 0.0
C804 C 0.76349 0.58287 0.66396 0.0
C805 C 0.81121 0.66107 0.70548 0.0
C806 C 0.86543 0.67883 0.75768 0.0
C807 C 0.85895 0.66205 0.77161 0.0
C808 C 0.86777 0.66764 0.78755 0.0
C809 C 0.88339 0.69031 0.78929 0.0
C810 C 0.88105 0.70132 0.75963 0.0
C811 C 0.89002 0.70699 0.77537 0.0
C812 C 0.85798 0.64471 0.70025 0.0
C813 C 0.85568 0.67232 0.7413 0.0
H814 H 0.86083 0.70628 0.61087 0.0
H815 H 0.81143 0.65793 0.58023 0.0
H816 H 0.8038 0.64301 0.63414 0.0
H817 H 0.79067 0.63204 0.60602 0.0
H818 H 0.84661 0.6447 0.77011 0.0
H819 H 0.89054 0.6951 0.80139 0.0
H820 H 0.88625 0.71445 0.74906 0.0
H821 H 0.90208 0.72439 0.77681 0.0
Tb822 Tb 0.35552 0.19451 0.6628 0.0
C823 C 0.27966 0.14339 0.72158 0.0
C824 C 0.26076 0.16655 0.72342 0.0
C825 C 0.23865 0.1264 0.73312 0.0
C826 C 0.28061 0.16411 0.71874 0.0
C827 C 0.25888 0.12433 0.72913 0.0
C828 C 0.23956 0.14749 0.73021 0.0
C829 C 0.28061 0.10336 0.73004 0.0
N830 N 0.29987 0.14233 0.71811 0.0
C831 C 0.30087 0.12282 0.72272 0.0
C832 C 0.25942 0.10404 0.73307 0.0
Tb833 Tb 0.33237 0.17511 0.70651 0.0
N834 N 0.30173 0.18217 0.71282 0.0
C835 C 0.30465 0.20343 0.71243 0.0
C836 C 0.26324 0.1882 0.72198 0.0
C837 C 0.28543 0.20675 0.71678 0.0
H838 H 0.31714 0.12208 0.72048 0.0
H839 H 0.28776 0.22363 0.71608 0.0
H840 H 0.22404 0.14899 0.73376 0.0
H841 H 0.28137 0.08786 0.73336 0.0
H842 H 0.32167 0.21799 0.70849 0.0
H843 H 0.39741 0.14359 0.65319 0.0
H844 H 0.24843 0.19083 0.72544 0.0
H845 H 0.3732 0.24837 0.65001 0.0
H846 H 0.36411 0.15037 0.66032 0.0
H847 H 0.41035 0.28231 0.63846 0.0
H848 H 0.22243 0.11194 0.73883 0.0
H849 H 0.43735 0.17577 0.64417 0.0
H850 H 0.46347 0.21756 0.63729 0.0
H851 H 0.24382 0.089 0.73888 0.0
H852 H 0.46709 0.25547 0.63336 0.0
N853 N 0.38505 0.18614 0.65609 0.0
C854 C 0.3814 0.16462 0.65651 0.0
C855 C 0.42283 0.17882 0.64751 0.0
C856 C 0.42618 0.20076 0.6463 0.0
C857 C 0.40028 0.16065 0.65248 0.0
C858 C 0.40664 0.20386 0.65061 0.0
H859 H 0.44722 0.27977 0.63349 0.0
N860 N 0.38908 0.22695 0.65209 0.0
C861 C 0.4102 0.26634 0.64137 0.0
C862 C 0.40878 0.22507 0.6486 0.0
C863 C 0.38918 0.24706 0.64789 0.0
C864 C 0.431 0.26484 0.63862 0.0
C865 C 0.43036 0.24394 0.64196 0.0
O866 O 0.34135 0.20557 0.64215 0.0
O867 O 0.32752 0.18665 0.68132 0.0
O868 O 0.3077 0.14889 0.69191 0.0
O869 O 0.33141 0.15728 0.667 0.0
O870 O 0.3369 0.21423 0.66447 0.0
O871 O 0.34505 0.17588 0.64214 0.0
O872 O 0.34719 0.16546 0.72752 0.0
O873 O 0.36032 0.18274 0.6879 0.0
O874 O 0.37963 0.22059 0.6777 0.0
O875 O 0.35553 0.21227 0.70231 0.0
O876 O 0.3514 0.15562 0.70533 0.0
O877 O 0.34292 0.195 0.72639 0.0
C878 C 0.32153 0.20144 0.67662 0.0
C879 C 0.34786 0.19671 0.61556 0.0
C880 C 0.34038 0.19458 0.58549 0.0
C881 C 0.33203 0.18804 0.60267 0.0
C882 C 0.36465 0.21019 0.58147 0.0
C883 C 0.37198 0.21205 0.61114 0.0
C884 C 0.38026 0.21881 0.59422 0.0
C885 C 0.31219 0.1436 0.67731 0.0
C886 C 0.33907 0.18969 0.6335 0.0
C887 C 0.45025 0.24116 0.63831 0.0
C888 C 0.44817 0.21958 0.64051 0.0
C889 C 0.36614 0.16788 0.69275 0.0
C890 C 0.341 0.17593 0.75353 0.0
C891 C 0.35763 0.18122 0.76622 0.0
C892 C 0.34974 0.17546 0.7835 0.0
C893 C 0.325 0.1645 0.78778 0.0
C894 C 0.3165 0.16513 0.7582 0.0
C895 C 0.30858 0.15942 0.77521 0.0
C896 C 0.37513 0.22569 0.69236 0.0
C897 C 0.34938 0.18187 0.73552 0.0
H898 H 0.31343 0.17595 0.60602 0.0
H899 H 0.37157 0.21586 0.56842 0.0
H900 H 0.38445 0.21887 0.6207 0.0
H901 H 0.3989 0.23077 0.59097 0.0
H902 H 0.3766 0.18958 0.76264 0.0
H903 H 0.31831 0.16018 0.80089 0.0
H904 H 0.30349 0.16123 0.74873 0.0
H905 H 0.28961 0.15113 0.77869 0.0
Tb906 Tb 0.83901 0.16273 0.71272 0.0
C907 C 0.80373 0.20524 0.65561 0.0
C908 C 0.76118 0.18002 0.6567 0.0
C909 C 0.77673 0.21988 0.64696 0.0
C910 C 0.78466 0.18393 0.65935 0.0
C911 C 0.80014 0.22343 0.64899 0.0
C912 C 0.75726 0.19819 0.65083 0.0
C913 C 0.84305 0.24663 0.6455 0.0
N914 N 0.826 0.20785 0.65763 0.0
C915 C 0.84567 0.228 0.65201 0.0
C916 C 0.82018 0.24442 0.64418 0.0
Tb917 Tb 0.8285 0.17664 0.66911 0.0
N918 N 0.78927 0.16687 0.66488 0.0
C919 C 0.77114 0.1451 0.66694 0.0
C920 C 0.74245 0.15791 0.65963 0.0
C921 C 0.74748 0.14035 0.6646 0.0
H922 H 0.86342 0.2299 0.65305 0.0
H923 H 0.73316 0.12313 0.66664 0.0
H924 H 0.73932 0.19557 0.64886 0.0
H925 H 0.85867 0.26268 0.64149 0.0
H926 H 0.77463 0.1313 0.67081 0.0
H927 H 0.93442 0.21468 0.71643 0.0
H928 H 0.72417 0.15421 0.65768 0.0
H929 H 0.80288 0.11024 0.73011 0.0
H930 H 0.89349 0.20724 0.71104 0.0
H931 H 0.80638 0.07751 0.7433 0.0
H932 H 0.77354 0.23367 0.64204 0.0
H933 H 0.94216 0.18317 0.72684 0.0
H934 H 0.92604 0.14194 0.73636 0.0
H935 H 0.8182 0.25884 0.63906 0.0
H936 H 0.89108 0.10443 0.74367 0.0
N937 N 0.87793 0.17165 0.71756 0.0
C938 C 0.89643 0.19325 0.71545 0.0
C939 C 0.92418 0.17982 0.72421 0.0
C940 C 0.90509 0.15793 0.72716 0.0
C941 C 0.91981 0.1976 0.71847 0.0
C942 C 0.88191 0.15444 0.72384 0.0
H943 H 0.84629 0.08032 0.74664 0.0
N944 N 0.8405 0.13149 0.72555 0.0
C945 C 0.82232 0.09315 0.73897 0.0
C946 C 0.86244 0.13354 0.72799 0.0
C947 C 0.82044 0.11182 0.73148 0.0
C948 C 0.84487 0.09477 0.74078 0.0
C949 C 0.86532 0.11527 0.73552 0.0
O950 O 0.81686 0.15468 0.73487 0.0
O951 O 0.8154 0.16747 0.69525 0.0
O952 O 0.83202 0.2038 0.68295 0.0
O953 O 0.85348 0.1995 0.7056 0.0
O954 O 0.80024 0.14154 0.71422 0.0
O955 O 0.84991 0.18559 0.73065 0.0
O956 O 0.85118 0.18571 0.64714 0.0
O957 O 0.85183 0.17153 0.68656 0.0
O958 O 0.83482 0.13486 0.69934 0.0
O959 O 0.81532 0.14 0.6756 0.0
O960 O 0.8675 0.19739 0.66749 0.0
O961 O 0.81709 0.15583 0.64969 0.0
C962 C 0.79546 0.15211 0.70171 0.0
C963 C 0.83683 0.16968 0.75909 0.0
C964 C 0.83025 0.17116 0.78917 0.0
C965 C 0.82515 0.17406 0.77204 0.0
C966 C 0.84744 0.16413 0.79294 0.0
C967 C 0.85369 0.16256 0.76334 0.0
C968 C 0.85895 0.15984 0.78015 0.0
C969 C 0.8454 0.21139 0.69588 0.0
C970 C 0.83159 0.17276 0.74119 0.0
C971 C 0.88844 0.11829 0.73806 0.0
C972 C 0.90833 0.13963 0.73389 0.0
C973 C 0.87189 0.18661 0.68011 0.0
C974 C 0.83228 0.17417 0.62184 0.0
C975 C 0.84224 0.16846 0.60859 0.0
C976 C 0.8388 0.17392 0.59144 0.0
C977 C 0.8257 0.18559 0.58797 0.0
C978 C 0.81895 0.18532 0.61783 0.0
C979 C 0.81583 0.1911 0.60103 0.0
C980 C 0.82254 0.12776 0.68579 0.0
C981 C 0.83611 0.16882 0.63977 0.0
H982 H 0.812 0.17946 0.76878 0.0
H983 H 0.85232 0.16223 0.80582 0.0
H984 H 0.86296 0.15928 0.75367 0.0
H985 H 0.87214 0.15449 0.78327 0.0
H986 H 0.85232 0.15958 0.61166 0.0
H987 H 0.82322 0.19074 0.57507 0.0
H988 H 0.811 0.18966 0.62767 0.0
H989 H 0.80572 0.19996 0.5981 0.0
H990 H 0.29121 0.7967 0.08122 0.0
H991 H 0.32921 0.83019 0.07189 0.0
H992 H 0.29911 0.87232 0.08319 0.0
H993 H 0.26053 0.83855 0.09163 0.0
H994 H 0.32239 0.88886 0.05447 0.0
H995 H 0.34351 0.86517 0.1074 0.0
H996 H 0.34757 0.83899 0.12958 0.0
H997 H 0.39323 0.82975 0.09557 0.0
H998 H 0.38916 0.85563 0.07309 0.0
H999 H 0.43366 0.99059 0.04432 0.0
H1000 H 0.39541 0.95746 0.05342 0.0
H1001 H 0.42433 0.91456 0.04181 0.0
H1002 H 0.46313 0.94793 0.03344 0.0
H1003 H 0.40155 0.89879 0.0711 0.0
H1004 H 0.37346 0.9174 0.01723 0.0
H1005 H 0.3671 0.94228 0.995 0.0
H1006 H 0.33461 0.96157 0.0323 0.0
H1007 H 0.34043 0.93652 0.0546 0.0
C1008 C 0.29277 0.81313 0.08179 0.0
C1009 C 0.27283 0.81495 0.08712 0.0
C1010 C 0.31464 0.83236 0.07661 0.0
C1011 C 0.31744 0.85408 0.07695 0.0
C1012 C 0.29764 0.8559 0.08277 0.0
C1013 C 0.27562 0.83657 0.0878 0.0
C1014 C 0.3405 0.8747 0.07037 0.0
C1015 C 0.33963 0.89111 0.05838 0.0
C1016 C 0.3633 0.87773 0.07501 0.0
C1017 C 0.36584 0.86219 0.08851 0.0
C1018 C 0.35427 0.85743 0.10461 0.0
C1019 C 0.3566 0.84266 0.11724 0.0
C1020 C 0.37061 0.83267 0.11398 0.0
C1021 C 0.38236 0.83748 0.09808 0.0
C1022 C 0.38007 0.85221 0.08539 0.0
C1023 C 0.43174 0.97409 0.04339 0.0
C1024 C 0.45141 0.97202 0.0378 0.0
C1025 C 0.40968 0.95504 0.0485 0.0
C1026 C 0.40646 0.93319 0.0481 0.0
C1027 C 0.42605 0.93108 0.04221 0.0
C1028 C 0.44827 0.95024 0.03722 0.0
C1029 C 0.3834 0.91278 0.05506 0.0
C1030 C 0.38428 0.89647 0.06719 0.0
C1031 C 0.36057 0.9099 0.05071 0.0
C1032 C 0.35776 0.92547 0.03752 0.0
C1033 C 0.36523 0.92719 0.02063 0.0
C1034 C 0.36156 0.94116 0.00804 0.0
C1035 C 0.35068 0.95366 0.01226 0.0
C1036 C 0.34316 0.95198 0.02906 0.0
C1037 C 0.3465 0.9378 0.04165 0.0
H1038 H 0.34796 0.96453 1.00251 0.0
H1039 H 0.37239 0.82124 0.12378 0.0
H1040 H 0.20327 0.48417 0.09129 0.0
H1041 H 0.16785 0.48044 0.07672 0.0
H1042 H 0.20348 0.55226 0.06123 0.0
H1043 H 0.23879 0.55587 0.07623 0.0
H1044 H 0.1577 0.53673 0.07273 0.0
H1045 H 0.19844 0.51697 0.03342 0.0
H1046 H 0.21873 0.49679 0.02403 0.0
H1047 H 0.15425 0.43383 0.03561 0.0
H1048 H 0.13366 0.4536 0.04536 0.0
H1049 H 0.07146 0.53539 0.02183 0.0
H1050 H 0.11037 0.5386 0.02627 0.0
H1051 H 0.07734 0.46775 0.04483 0.0
H1052 H 0.03796 0.46397 0.03841 0.0
H1053 H 0.12337 0.48416 0.02975 0.0
H1054 H 0.08466 0.50423 0.07202 0.0
H1055 H 0.06238 0.52435 0.07717 0.0
H1056 H 0.12345 0.58735 0.05834 0.0
H1057 H 0.1459 0.56749 0.05267 0.0
C1058 C 0.20328 0.49909 0.0849 0.0
C1059 C 0.22339 0.52031 0.08487 0.0
C1060 C 0.18326 0.49698 0.07647 0.0
C1061 C 0.18319 0.51604 0.0677 0.0
C1062 C 0.20324 0.53734 0.06787 0.0
C1063 C 0.22329 0.53944 0.07637 0.0
C1064 C 0.162 0.51365 0.05859 0.0
C1065 C 0.15045 0.52548 0.06318 0.0
C1066 C 0.15231 0.49871 0.04628 0.0
C1067 C 0.16456 0.48677 0.04026 0.0
C1068 C 0.18862 0.49881 0.03409 0.0
C1069 C 0.20018 0.48744 0.02868 0.0
C1070 C 0.1878 0.46404 0.02925 0.0
C1071 C 0.16382 0.45196 0.03519 0.0
C1072 C 0.15219 0.46324 0.04065 0.0
C1073 C 0.07232 0.52023 0.02594 0.0
C1074 C 0.05155 0.49934 0.02936 0.0
C1075 C 0.09472 0.52214 0.02868 0.0
C1076 C 0.0967 0.50353 0.03624 0.0
C1077 C 0.07619 0.48233 0.03896 0.0
C1078 C 0.05373 0.48025 0.03547 0.0
C1079 C 0.11917 0.5071 0.044 0.0
C1080 C 0.13082 0.49545 0.03926 0.0
C1081 C 0.12903 0.52219 0.05619 0.0
C1082 C 0.11693 0.53439 0.06191 0.0
C1083 C 0.09343 0.52241 0.06921 0.0
C1084 C 0.08071 0.53375 0.07212 0.0
C1085 C 0.09144 0.55711 0.06808 0.0
C1086 C 0.11512 0.56925 0.06146 0.0
C1087 C 0.12788 0.55796 0.05841 0.0
H1088 H 0.08131 0.56574 0.06997 0.0
H1089 H 0.19677 0.45526 0.02506 0.0
H1090 H 0.56863 0.74604 0.05778 0.0
H1091 H 0.56187 0.71091 0.0476 0.0
H1092 H 0.51511 0.67265 0.09178 0.0
H1093 H 0.52175 0.70776 0.10179 0.0
H1094 H 0.54655 0.65789 0.08627 0.0
H1095 H 0.49288 0.67492 0.05311 0.0
H1096 H 0.48153 0.69855 0.03347 0.0
H1097 H 0.53083 0.70268 0.99492 0.0
H1098 H 0.54273 0.67934 0.01442 0.0
H1099 H 0.4998 0.54914 0.0611 0.0
H1100 H 0.50499 0.58416 0.07014 0.0
H1101 H 0.54446 0.62093 0.02291 0.0
H1102 H 0.53832 0.58566 0.01364 0.0
H1103 H 0.51705 0.63686 0.02998 0.0
H1104 H 0.57118 0.62009 0.06319 0.0
H1105 H 0.58258 0.59651 0.08287 0.0
H1106 H 0.53307 0.59218 0.12135 0.0
H1107 H 0.52117 0.61551 0.10183 0.0
C1108 C 0.55663 0.73008 0.06512 0.0
C1109 C 0.54568 0.72954 0.08054 0.0
C1110 C 0.55282 0.71002 0.05935 0.0
C1111 C 0.5379 0.68905 0.0689 0.0
C1112 C 0.52676 0.68856 0.08422 0.0
C1113 C 0.53053 0.70858 0.08993 0.0
C1114 C 0.53432 0.66762 0.06318 0.0
C1115 C 0.53984 0.65317 0.07403 0.0
C1116 C 0.5261 0.66164 0.04706 0.0
C1117 C 0.51888 0.67558 0.03529 0.0
C1118 C 0.50144 0.68102 0.04049 0.0
C1119 C 0.49488 0.69433 0.02938 0.0
C1120 C 0.5055 0.70216 0.01297 0.0
C1121 C 0.52265 0.69663 0.00763 0.0
C1122 C 0.5293 0.68335 0.01871 0.0
C1123 C 0.50973 0.56475 0.05271 0.0
C1124 C 0.51869 0.5647 0.03666 0.0
C1125 C 0.51278 0.58482 0.05791 0.0
C1126 C 0.52558 0.60546 0.04739 0.0
C1127 C 0.53452 0.60534 0.03131 0.0
C1128 C 0.53098 0.58516 0.02597 0.0
C1129 C 0.5294 0.62706 0.05304 0.0
C1130 C 0.52388 0.64157 0.04219 0.0
C1131 C 0.53774 0.63315 0.06916 0.0
C1132 C 0.54515 0.6194 0.08099 0.0
C1133 C 0.56265 0.61402 0.07582 0.0
C1134 C 0.5692 0.60071 0.08695 0.0
C1135 C 0.55852 0.59282 0.10334 0.0
C1136 C 0.54132 0.59829 0.10865 0.0
C1137 C 0.53469 0.61158 0.09757 0.0
H1138 H 0.5636 0.5825 0.11193 0.0
H1139 H 0.5004 0.71247 1.00439 0.0
H1140 H 0.8461 0.28551 0.95291 0.0
H1141 H 0.87603 0.32057 0.96232 0.0
H1142 H 0.81972 0.33094 0.98224 0.0
H1143 H 0.78988 0.29684 0.97127 0.0
H1144 H 0.85141 0.369 0.9704 0.0
H1145 H 0.85714 0.31216 0.00753 0.0
H1146 H 0.86149 0.27842 0.01621 0.0
H1147 H 0.93099 0.31056 0.99035 0.0
H1148 H 0.92693 0.3444 0.98132 0.0
H1149 H 0.92929 0.45022 0.02232 0.0
H1150 H 0.89921 0.41498 0.01328 0.0
H1151 H 0.95205 0.41568 0.97932 0.0
H1152 H 0.98241 0.45117 0.98827 0.0
H1153 H 0.92209 0.37259 0.99914 0.0
H1154 H 0.91392 0.43141 0.96398 0.0
H1155 H 0.90835 0.46504 0.96027 0.0
H1156 H 0.84027 0.42772 0.98805 0.0
H1157 H 0.84569 0.39402 0.99228 0.0
C1158 C 0.84016 0.29543 0.95915 0.0
C1159 C 0.81561 0.28848 0.96119 0.0
C1160 C 0.85731 0.31539 0.96481 0.0
C1161 C 0.85044 0.32855 0.97342 0.0
C1162 C 0.82578 0.32135 0.97569 0.0
C1163 C 0.80863 0.30166 0.96959 0.0
C1164 C 0.8689 0.34984 0.97976 0.0
C1165 C 0.86663 0.36954 0.97687 0.0
C1166 C 0.8891 0.35106 0.98823 0.0
C1167 C 0.89162 0.33074 0.99361 0.0
C1168 C 0.87328 0.31198 1.00359 0.0
C1169 C 0.8757 0.29284 0.00859 0.0
C1170 C 0.89647 0.29232 1.0038 0.0
C1171 C 0.91489 0.31097 0.99403 0.0
C1172 C 0.91255 0.33014 0.98898 0.0
C1173 C 0.93469 0.44286 0.01303 0.0
C1174 C 0.95844 0.45362 0.00611 0.0
C1175 C 0.91734 0.42269 0.00779 0.0
C1176 C 0.92324 0.41264 0.99553 0.0
C1177 C 0.94701 0.42308 0.98879 0.0
C1178 C 0.96436 0.44344 0.99389 0.0
C1179 C 0.90454 0.39143 0.9896 0.0
C1180 C 0.9068 0.37185 0.99262 0.0
C1181 C 0.884 0.39018 0.98177 0.0
C1182 C 0.88031 0.41021 0.97857 0.0
C1183 C 0.89782 0.4304 0.96938 0.0
C1184 C 0.8947 0.44949 0.96719 0.0
C1185 C 0.87401 0.44855 0.97397 0.0
C1186 C 0.85633 0.42846 0.98284 0.0
C1187 C 0.85941 0.40935 0.98513 0.0
H1188 H 0.87166 0.46336 0.97231 0.0
H1189 H 0.89832 0.27749 0.00768 0.0
H1190 H 0.68064 0.46168 0.95223 0.0
H1191 H 0.64902 0.46361 0.96847 0.0
H1192 H 0.7029 0.51536 0.9945 0.0
H1193 H 0.73426 0.51355 0.97808 0.0
H1194 H 0.63633 0.45916 1.00284 0.0
H1195 H 0.68651 0.55633 0.99546 0.0
H1196 H 0.7174 0.58816 0.97629 0.0
H1197 H 0.69695 0.54787 0.93553 0.0
H1198 H 0.66571 0.51597 0.95436 0.0
H1199 H 0.58871 0.54311 0.02501 0.0
H1200 H 0.62132 0.5343 0.02106 0.0
H1201 H 0.57145 0.47237 1.00278 0.0
H1202 H 0.53938 0.4806 0.0077 0.0
H1203 H 0.63786 0.53309 0.99341 0.0
H1204 H 0.58504 0.43793 0.99975 0.0
H1205 H 0.55537 0.40481 0.01868 0.0
H1206 H 0.58286 0.43993 0.06164 0.0
H1207 H 0.61156 0.47379 0.04288 0.0
C1208 C 0.68548 0.4731 0.96166 0.0
C1209 C 0.70959 0.48746 0.96404 0.0
C1210 C 0.66757 0.47417 0.97093 0.0
C1211 C 0.6737 0.48978 0.98254 0.0
C1212 C 0.69784 0.50334 0.9855 0.0
C1213 C 0.71567 0.50225 0.97624 0.0
C1214 C 0.65505 0.49328 0.99049 0.0
C1215 C 0.63656 0.47529 1.00079 0.0
C1216 C 0.65563 0.51442 0.98797 0.0
C1217 C 0.67397 0.53369 0.97639 0.0
C1218 C 0.68855 0.55431 0.98239 0.0
C1219 C 0.70612 0.57236 0.97158 0.0
C1220 C 0.7092 0.57001 0.95473 0.0
C1221 C 0.69462 0.54964 0.94861 0.0
C1222 C 0.67698 0.53157 0.95935 0.0
C1223 C 0.58468 0.52707 0.02105 0.0
C1224 C 0.5612 0.51174 0.01785 0.0
C1225 C 0.60329 0.52209 0.01864 0.0
C1226 C 0.59889 0.50221 0.01213 0.0
C1227 C 0.57537 0.48707 0.0088 0.0
C1228 C 0.5568 0.49175 0.01171 0.0
C1229 C 0.61903 0.49903 0.00619 0.0
C1230 C 0.63778 0.51707 0.99596 0.0
C1231 C 0.61863 0.47791 0.00874 0.0
C1232 C 0.60022 0.45838 0.01994 0.0
C1233 C 0.58442 0.43867 0.01323 0.0
C1234 C 0.56761 0.41989 0.0239 0.0
C1235 C 0.56687 0.42046 0.04134 0.0
C1236 C 0.58289 0.43983 0.0481 0.0
C1237 C 0.59926 0.45889 0.03745 0.0
H1238 H 0.55409 0.40583 0.04963 0.0
H1239 H 0.72285 0.58398 0.94639 0.0
H1240 H 0.43796 0.19217 0.97024 0.0
H1241 H 0.44377 0.15945 0.97897 0.0
H1242 H 0.50692 0.18854 0.94517 0.0
H1243 H 0.50064 0.2211 0.93626 0.0
H1244 H 0.48393 0.14358 0.94599 0.0
H1245 H 0.51135 0.19502 0.98708 0.0
H1246 H 0.50819 0.219 0.00671 0.0
H1247 H 0.45079 0.16089 0.03543 0.0
H1248 H 0.45339 0.13657 0.01582 0.0
H1249 H 0.52986 0.08729 0.01803 0.0
H1250 H 0.52376 0.11864 0.0058 0.0
H1251 H 0.46463 0.0734 0.97915 0.0
H1252 H 0.47086 0.04204 0.99108 0.0
H1253 H 0.48899 0.12827 0.00788 0.0
H1254 H 0.45993 0.09878 0.94263 0.0
H1255 H 0.46671 0.07618 0.92347 0.0
H1256 H 0.53573 0.09486 0.94291 0.0
H1257 H 0.52934 0.11756 0.96221 0.0
C1258 C 0.45282 0.1913 0.96453 0.0
C1259 C 0.469 0.20912 0.95274 0.0
C1260 C 0.45622 0.17269 0.96953 0.0
C1261 C 0.47613 0.17169 0.96304 0.0
C1262 C 0.4915 0.1889 0.95044 0.0
C1263 C 0.48793 0.20746 0.94533 0.0
C1264 C 0.48174 0.1536 0.9703 0.0
C1265 C 0.48499 0.14023 0.95952 0.0
C1266 C 0.48381 0.14948 0.98792 0.0
C1267 C 0.48244 0.164 0.9999 0.0
C1268 C 0.49797 0.18737 0.99753 0.0
C1269 C 0.49629 0.20102 0.00865 0.0
C1270 C 0.47926 0.19149 0.02228 0.0
C1271 C 0.46395 0.16826 0.02485 0.0
C1272 C 0.46554 0.15452 0.01375 0.0
C1273 C 0.51547 0.08395 0.00963 0.0
C1274 C 0.50084 0.06206 1.00556 0.0
C1275 C 0.51204 0.10195 1.0026 0.0
C1276 C 0.49396 0.09856 0.99132 0.0
C1277 C 0.47905 0.07664 0.98751 0.0
C1278 C 0.48255 0.05864 0.99444 0.0
C1279 C 0.4906 0.11788 0.98365 0.0
C1280 C 0.48788 0.13156 0.99435 0.0
C1281 C 0.48967 0.12263 0.96594 0.0
C1282 C 0.49409 0.10979 0.9539 0.0
C1283 C 0.47662 0.0982 0.94272 0.0
C1284 C 0.48037 0.08531 0.93188 0.0
C1285 C 0.50165 0.0841 0.93195 0.0
C1286 C 0.51925 0.09579 0.94287 0.0
C1287 C 0.51554 0.10863 0.9538 0.0
H1288 H 0.50452 0.07412 0.92353 0.0
H1289 H 0.47797 0.20209 0.03087 0.0
H1290 H 0.76165 0.19802 0.97383 0.0
H1291 H 0.72422 0.1631 0.9825 0.0
H1292 H 0.68604 0.1876 0.94904 0.0
H1293 H 0.72364 0.22265 0.94058 0.0
H1294 H 0.6615 0.16947 0.97911 0.0
H1295 H 0.69787 0.14657 0.93935 0.0
H1296 H 0.73036 0.14233 0.92654 0.0
H1297 H 0.73032 0.10139 0.97179 0.0
H1298 H 0.69815 0.10577 0.98503 0.0
H1299 H 0.55274 0.06476 0.99457 0.0
H1300 H 0.58752 0.09939 0.98235 0.0
H1301 H 0.6337 0.07357 1.00294 0.0
H1302 H 0.59851 0.03753 0.01242 0.0
H1303 H 0.65367 0.09395 0.97692 0.0
H1304 H 0.61778 0.1215 0.01746 0.0
H1305 H 0.58498 0.12732 0.02794 0.0
H1306 H 0.58302 0.15973 0.97902 0.0
H1307 H 0.61571 0.15417 0.96814 0.0
C1308 C 0.74522 0.1958 0.96832 0.0
C1309 C 0.7454 0.21299 0.95665 0.0
C1310 C 0.72384 0.17584 0.97322 0.0
C1311 C 0.70212 0.17253 0.96644 0.0
C1312 C 0.70242 0.18967 0.95454 0.0
C1313 C 0.72388 0.20961 0.94962 0.0
C1314 C 0.67916 0.15135 0.97194 0.0
C1315 C 0.65973 0.15292 0.97859 0.0
C1316 C 0.67664 0.12967 0.97127 0.0
C1317 C 0.69572 0.12667 0.96324 0.0
C1318 C 0.7049 0.13679 0.94663 0.0
C1319 C 0.72326 0.13436 0.93928 0.0
C1320 C 0.73243 0.12163 0.94836 0.0
C1321 C 0.72322 0.11126 0.96478 0.0
C1322 C 0.70491 0.11372 0.97221 0.0
C1323 C 0.57037 0.06672 0.99677 0.0
C1324 C 0.57289 0.0488 1.00532 0.0
C1325 C 0.59051 0.0868 0.98988 0.0
C1326 C 0.61392 0.09016 0.99223 0.0
C1327 C 0.61621 0.07202 1.00087 0.0
C1328 C 0.59602 0.05142 0.00669 0.0
C1329 C 0.63599 0.11176 0.98513 0.0
C1330 C 0.65534 0.11036 0.97788 0.0
C1331 C 0.63835 0.13364 0.98518 0.0
C1332 C 0.6191 0.13732 0.99197 0.0
C1333 C 0.61036 0.12987 0.00895 0.0
C1334 C 0.59178 0.13308 0.01495 0.0
C1335 C 0.58192 0.14379 1.00419 0.0
C1336 C 0.59067 0.15143 0.98736 0.0
C1337 C 0.60925 0.14832 0.98127 0.0
H1338 H 0.56757 0.14625 0.00892 0.0
H1339 H 0.74664 0.11976 0.94265 0.0
H1340 H 0.78112 0.46622 0.95006 0.0
H1341 H 0.8205 0.47348 0.95983 0.0
H1342 H 0.84271 0.54445 0.95575 0.0
H1343 H 0.80309 0.53701 0.94646 0.0
H1344 H 0.87911 0.53323 0.94524 0.0
H1345 H 0.82214 0.51637 0.99256 0.0
H1346 H 0.78389 0.4929 0.00928 0.0
H1347 H 0.79865 0.43733 0.0155 0.0
H1348 H 0.83703 0.46053 0.99884 0.0
H1349 H 0.97622 0.56714 0.99775 0.0
H1350 H 0.93808 0.56145 0.98662 0.0
H1351 H 0.90854 0.48963 0.9996 0.0
H1352 H 0.9461 0.49527 0.01087 0.0
H1353 H 0.87571 0.50104 1.00499 0.0
H1354 H 0.93232 0.51582 0.96031 0.0
H1355 H 0.97032 0.53655 0.94306 0.0
H1356 H 0.95601 0.59166 0.92958 0.0
H1357 H 0.91822 0.57159 0.94723 0.0
C1358 C 0.79467 0.48336 0.95096 0.0
C1359 C 0.78928 0.50106 0.94764 0.0
C1360 C 0.81703 0.4875 0.95652 0.0
C1361 C 0.8343 0.50945 0.9587 0.0
C1362 C 0.82956 0.5274 0.95414 0.0
C1363 C 0.80708 0.5232 0.94876 0.0
C1364 C 0.85629 0.51339 0.96729 0.0
C1365 C 0.8785 0.52649 0.95836 0.0
C1366 C 0.85527 0.50393 0.98423 0.0
C1367 C 0.83229 0.49008 0.99432 0.0
C1368 C 0.81714 0.4991 0.99741 0.0
C1369 C 0.79548 0.48587 0.00691 0.0
C1370 C 0.78877 0.4636 0.01336 0.0
C1371 C 0.80382 0.45456 0.01045 0.0
C1372 C 0.82556 0.46776 1.00103 0.0
C1373 C 0.96134 0.55021 0.99861 0.0
C1374 C 0.96419 0.53168 1.00526 0.0
C1375 C 0.93967 0.54696 0.99212 0.0
C1376 C 0.92065 0.52508 0.99194 0.0
C1377 C 0.92299 0.50666 0.99955 0.0
C1378 C 0.94457 0.50993 0.00609 0.0
C1379 C 0.8988 0.52118 0.98304 0.0
C1380 C 0.87651 0.50796 0.99189 0.0
C1381 C 0.8998 0.53014 0.9659 0.0
C1382 C 0.92257 0.54232 0.95531 0.0
C1383 C 0.93739 0.53247 0.95384 0.0
C1384 C 0.95888 0.54409 0.94397 0.0
C1385 C 0.96559 0.5654 0.93523 0.0
C1386 C 0.95082 0.57516 0.93639 0.0
C1387 C 0.92938 0.5637 0.94636 0.0
H1388 H 0.98222 0.57431 0.92754 0.0
H1389 H 0.77196 0.45337 0.02067 0.0
H1390 H 0.43509 0.27378 0.95806 0.0
H1391 H 0.43894 0.30727 0.96951 0.0
H1392 H 0.51209 0.32623 0.98015 0.0
H1393 H 0.50829 0.29298 0.96824 0.0
H1394 H 0.48409 0.33008 0.00702 0.0
H1395 H 0.50338 0.35132 0.94703 0.0
H1396 H 0.49513 0.34637 0.91715 0.0
H1397 H 0.43282 0.35433 0.92312 0.0
H1398 H 0.44031 0.3587 0.9532 0.0
H1399 H 0.51987 0.44056 0.02439 0.0
H1400 H 0.51638 0.40694 0.01415 0.0
H1401 H 0.45453 0.39956 0.98735 0.0
H1402 H 0.45938 0.43452 0.99642 0.0
H1403 H 0.47706 0.3891 0.96858 0.0
H1404 H 0.45404 0.36472 0.02793 0.0
H1405 H 0.45801 0.36557 0.05866 0.0
H1406 H 0.52282 0.36129 0.05477 0.0
H1407 H 0.51923 0.36039 0.02401 0.0
C1408 C 0.4519 0.28512 0.96292 0.0
C1409 C 0.47144 0.28102 0.96224 0.0
C1410 C 0.45411 0.30418 0.96944 0.0
C1411 C 0.47586 0.31934 0.97559 0.0
C1412 C 0.49515 0.31477 0.97549 0.0
C1413 C 0.49302 0.29586 0.96872 0.0
C1414 C 0.47868 0.34031 0.98157 0.0
C1415 C 0.48282 0.34314 0.99862 0.0
C1416 C 0.47637 0.35703 0.97067 0.0
C1417 C 0.47226 0.35507 0.95245 0.0
C1418 C 0.48778 0.3518 0.94203 0.0
C1419 C 0.48322 0.34905 0.92506 0.0
C1420 C 0.4634 0.34991 0.91826 0.0
C1421 C 0.44813 0.35359 0.92842 0.0
C1422 C 0.45251 0.35617 0.94544 0.0
C1423 C 0.50548 0.43176 0.01633 0.0
C1424 C 0.48985 0.4402 0.01124 0.0
C1425 C 0.50333 0.4123 0.01059 0.0
C1426 C 0.48478 0.40008 1.00026 0.0
C1427 C 0.46902 0.40848 0.99529 0.0
C1428 C 0.4717 0.42844 1.00055 0.0
C1429 C 0.48218 0.37898 0.99429 0.0
C1430 C 0.47821 0.37611 0.97714 0.0
C1431 C 0.48417 0.36197 1.00519 0.0
C1432 C 0.48645 0.36265 0.02366 0.0
C1433 C 0.4692 0.36409 0.03362 0.0
C1434 C 0.47138 0.36456 0.05104 0.0
C1435 C 0.49071 0.36359 0.05865 0.0
C1436 C 0.50786 0.36206 0.04886 0.0
C1437 C 0.50573 0.3615 0.03144 0.0
H1438 H 0.49235 0.36394 0.07214 0.0
H1439 H 0.45994 0.34786 0.9051 0.0
H1440 H 0.22527 0.73179 0.07289 0.0
H1441 H 0.19555 0.69758 0.06186 0.0
H1442 H 0.13985 0.71302 0.07452 0.0
H1443 H 0.16965 0.74765 0.08483 0.0
H1444 H 0.12892 0.66778 0.08591 0.0
H1445 H 0.15709 0.72053 0.03484 0.0
H1446 H 0.18784 0.74862 0.01353 0.0
H1447 H 0.20886 0.69989 1.00304 0.0
H1448 H 0.17847 0.67159 0.0245 0.0
H1449 H 0.03328 0.5826 0.04767 0.0
H1450 H 0.06299 0.61731 0.05756 0.0
H1451 H 0.11889 0.61363 0.03002 0.0
H1452 H 0.08899 0.57964 0.01931 0.0
H1453 H 0.13035 0.65365 0.02643 0.0
H1454 H 0.1099 0.60384 0.07924 0.0
H1455 H 0.08369 0.57538 0.1025 0.0
H1456 H 0.05235 0.61703 0.11139 0.0
H1457 H 0.07843 0.64566 0.08808 0.0
C1458 C 0.20675 0.72805 0.07306 0.0
C1459 C 0.19983 0.74242 0.07981 0.0
C1460 C 0.18973 0.70844 0.06683 0.0
C1461 C 0.16536 0.70262 0.06736 0.0
C1462 C 0.15846 0.717 0.07404 0.0
C1463 C 0.1755 0.73676 0.08001 0.0
C1464 C 0.14699 0.68137 0.06127 0.0
C1465 C 0.12904 0.66479 0.07285 0.0
C1466 C 0.14751 0.67705 0.04437 0.0
C1467 C 0.16567 0.69401 0.0314 0.0
C1468 C 0.16841 0.71586 0.0281 0.0
C1469 C 0.18575 0.73181 0.01597 0.0
C1470 C 0.20033 0.72607 0.00697 0.0
C1471 C 0.19757 0.70433 0.01004 0.0
C1472 C 0.18028 0.68832 0.02218 0.0
C1473 C 0.05191 0.58919 0.0437 0.0
C1474 C 0.05863 0.57826 0.03261 0.0
C1475 C 0.06907 0.60901 0.04958 0.0
C1476 C 0.0936 0.61819 0.04499 0.0
C1477 C 0.10025 0.60721 0.03386 0.0
C1478 C 0.08305 0.58764 0.0277 0.0
C1479 C 0.11213 0.6396 0.05113 0.0
C1480 C 0.13012 0.6564 0.03954 0.0
C1481 C 0.11201 0.64394 0.06814 0.0
C1482 C 0.09569 0.62655 0.08172 0.0
C1483 C 0.09711 0.60668 0.08599 0.0
C1484 C 0.08238 0.5906 0.09924 0.0
C1485 C 0.06619 0.59429 0.10835 0.0
C1486 C 0.06481 0.61413 0.10427 0.0
C1487 C 0.07959 0.6303 0.09106 0.0
H1488 H 0.05483 0.58187 0.11864 0.0
H1489 H 0.21374 0.73844 0.99758 0.0
H1490 H 0.27104 0.48231 0.08009 0.0
H1491 H 0.30358 0.47721 0.06866 0.0
H1492 H 0.35514 0.53584 0.08987 0.0
H1493 H 0.3223 0.54068 0.10139 0.0
H1494 H 0.36435 0.53687 0.05537 0.0
H1495 H 0.34694 0.48655 0.10669 0.0
H1496 H 0.32081 0.45519 0.1283 0.0
H1497 H 0.30088 0.40918 0.09139 0.0
H1498 H 0.32655 0.44035 0.06946 0.0
H1499 H 0.46584 0.52568 0.03544 0.0
H1500 H 0.43392 0.53154 0.04566 0.0
H1501 H 0.3824 0.46389 0.03767 0.0
H1502 H 0.41514 0.45736 0.02905 0.0
H1503 H 0.37338 0.46827 0.06638 0.0
H1504 H 0.38358 0.51915 0.01417 0.0
H1505 H 0.40567 0.55115 0.99183 0.0
H1506 H 0.43838 0.59506 0.02947 0.0
H1507 H 0.41541 0.56361 0.05204 0.0
C1508 C 0.28934 0.49369 0.08256 0.0
C1509 C 0.29448 0.51175 0.0916 0.0
C1510 C 0.30785 0.49085 0.07606 0.0
C1511 C 0.33173 0.50614 0.07846 0.0
C1512 C 0.3368 0.52387 0.08792 0.0
C1513 C 0.31821 0.52656 0.09457 0.0
C1514 C 0.35131 0.50434 0.07013 0.0
C1515 C 0.36657 0.52199 0.05789 0.0
C1516 C 0.35371 0.4847 0.07315 0.0
C1517 C 0.33853 0.46585 0.08639 0.0
C1518 C 0.33685 0.46978 0.10314 0.0
C1519 C 0.32213 0.45203 0.11545 0.0
C1520 C 0.30916 0.43022 0.11121 0.0
C1521 C 0.31092 0.4261 0.09465 0.0
C1522 C 0.32557 0.4438 0.08228 0.0
C1523 C 0.4477 0.51232 0.03526 0.0
C1524 C 0.44294 0.49115 0.03122 0.0
C1525 C 0.42923 0.51574 0.04105 0.0
C1526 C 0.40544 0.49832 0.04227 0.0
C1527 C 0.40055 0.47763 0.03696 0.0
C1528 C 0.41918 0.47394 0.03185 0.0
C1529 C 0.38628 0.50061 0.05108 0.0
C1530 C 0.37115 0.4831 0.06362 0.0
C1531 C 0.38382 0.52031 0.04822 0.0
C1532 C 0.39805 0.53903 0.03474 0.0
C1533 C 0.39559 0.53561 0.01766 0.0
C1534 C 0.4082 0.55364 1.00497 0.0
C1535 C 0.42378 0.575 0.00921 0.0
C1536 C 0.42641 0.57849 0.02619 0.0
C1537 C 0.41339 0.56064 0.03892 0.0
H1538 H 0.43365 0.58887 0.99934 0.0
H1539 H 0.29777 0.4165 0.12076 0.0
H1540 H 0.59087 0.82598 0.08084 0.0
H1541 H 0.5872 0.86011 0.07245 0.0
H1542 H 0.51093 0.82149 0.0833 0.0
H1543 H 0.51486 0.7876 0.09198 0.0
H1544 H 0.52454 0.84626 0.0507 0.0
H1545 H 0.54514 0.85982 0.10899 0.0
H1546 H 0.57128 0.86572 0.13289 0.0
H1547 H 0.62937 0.92103 0.10257 0.0
H1548 H 0.60361 0.91559 0.07846 0.0
H1549 H 0.49064 0.93044 0.03569 0.0
H1550 H 0.49738 0.89919 0.04673 0.0
H1551 H 0.57164 0.94592 0.05227 0.0
H1552 H 0.56412 0.97739 0.04275 0.0
H1553 H 0.56136 0.91739 0.07622 0.0
H1554 H 0.54776 0.90623 0.0185 0.0
H1555 H 0.52819 0.90118 0.9914 0.0
H1556 H 0.46533 0.84382 0.01567 0.0
H1557 H 0.48465 0.84834 0.04289 0.0
C1558 C 0.5735 0.82506 0.08186 0.0
C1559 C 0.55317 0.80439 0.08725 0.0
C1560 C 0.57135 0.84448 0.07701 0.0
C1561 C 0.54878 0.84344 0.07731 0.0
C1562 C 0.52853 0.82277 0.08301 0.0
C1563 C 0.53074 0.80347 0.08802 0.0
C1564 C 0.54592 0.86335 0.07055 0.0
C1565 C 0.5323 0.86175 0.0564 0.0
C1566 C 0.55712 0.88398 0.07737 0.0
C1567 C 0.57251 0.88717 0.09188 0.0
C1568 C 0.56353 0.87314 0.10738 0.0
C1569 C 0.57826 0.87641 0.12097 0.0
C1570 C 0.60198 0.8936 0.11923 0.0
C1571 C 0.61101 0.90768 0.1039 0.0
C1572 C 0.59634 0.90457 0.09028 0.0
C1573 C 0.5084 0.93403 0.0393 0.0
C1574 C 0.52685 0.95637 0.03836 0.0
C1575 C 0.51238 0.91605 0.04542 0.0
C1576 C 0.53527 0.9198 0.04996 0.0
C1577 C 0.55377 0.94227 0.04892 0.0
C1578 C 0.54953 0.96034 0.04341 0.0
C1579 C 0.53962 0.90043 0.05628 0.0
C1580 C 0.55355 0.90205 0.07035 0.0
C1581 C 0.52957 0.88008 0.04891 0.0
C1582 C 0.51757 0.87775 0.03274 0.0
C1583 C 0.5297 0.89265 0.01808 0.0
C1584 C 0.51868 0.88982 1.00269 0.0
C1585 C 0.49549 0.87226 1.00184 0.0
C1586 C 0.48328 0.85743 0.01636 0.0
C1587 C 0.49429 0.86004 0.03175 0.0
H1588 H 0.487 0.87009 0.98991 0.0
H1589 H 0.61333 0.89605 0.12978 0.0
H1590 H 0.92242 0.16744 0.40781 0.0
H1591 H 0.96047 0.20089 0.39744 0.0
H1592 H 0.99911 0.16851 0.42088 0.0
H1593 H 0.96091 0.13526 0.43132 0.0
H1594 H 0.02207 0.21238 0.42446 0.0
H1595 H 0.98977 0.16995 0.37844 0.0
H1596 H 0.95911 0.15012 0.3587 0.0
H1597 H 0.95918 0.21177 0.33979 0.0
H1598 H 0.98953 0.23192 0.35966 0.0
H1599 H 0.13205 0.28371 0.37253 0.0
H1600 H 0.0944 0.24905 0.38152 0.0
H1601 H 0.05608 0.28692 0.37644 0.0
H1602 H 0.09372 0.32162 0.36815 0.0
H1603 H 0.03422 0.23935 0.36288 0.0
H1604 H 0.06222 0.28001 0.41132 0.0
H1605 H 0.09217 0.29991 0.43146 0.0
H1606 H 0.10021 0.24118 0.44535 0.0
H1607 H 0.07051 0.22102 0.42502 0.0
C1608 C 0.93911 0.1678 0.41102 0.0
C1609 C 0.93885 0.14899 0.42052 0.0
C1610 C 0.96087 0.18677 0.40495 0.0
C1611 C 0.98288 0.18725 0.40809 0.0
C1612 C 0.98253 0.16871 0.41821 0.0
C1613 C 0.96075 0.14974 0.42425 0.0
C1614 C 0.00611 0.20667 0.4004 0.0
C1615 C 0.02472 0.21798 0.41096 0.0
C1616 C 0.00983 0.2144 0.38277 0.0
C1617 C 0.99177 0.2024 0.37067 0.0
C1618 C 0.98313 0.17926 0.37016 0.0
C1619 C 0.96581 0.16796 0.35894 0.0
C1620 C 0.95717 0.17967 0.34802 0.0
C1621 C 0.96587 0.20272 0.34828 0.0
C1622 C 0.98313 0.21409 0.35952 0.0
C1623 C 0.11553 0.28454 0.37288 0.0
C1624 C 0.11579 0.30536 0.36926 0.0
C1625 C 0.09402 0.26473 0.37815 0.0
C1626 C 0.07233 0.26533 0.37966 0.0
C1627 C 0.07248 0.28595 0.3753 0.0
C1628 C 0.094 0.30577 0.37053 0.0
C1629 C 0.04983 0.24496 0.38698 0.0
C1630 C 0.03147 0.23352 0.37635 0.0
C1631 C 0.04631 0.23706 0.40451 0.0
C1632 C 0.06443 0.24914 0.41649 0.0
C1633 C 0.07063 0.27145 0.41848 0.0
C1634 C 0.08748 0.28274 0.42997 0.0
C1635 C 0.09809 0.27182 0.43965 0.0
C1636 C 0.09197 0.24961 0.43782 0.0
C1637 C 0.07513 0.23824 0.42631 0.0
H1638 H 0.1109 0.28054 0.44866 0.0
H1639 H 0.94377 0.17089 0.33933 0.0
H1640 H 0.88543 0.87586 0.42893 0.0
H1641 H 0.85121 0.87273 0.41278 0.0
H1642 H 0.86505 0.83514 0.37855 0.0
H1643 H 0.89847 0.8375 0.39503 0.0
H1644 H 0.8522 0.86765 0.36244 0.0
H1645 H 0.8262 0.80591 0.40747 0.0
H1646 H 0.82307 0.78936 0.43714 0.0
H1647 H 0.7866 0.82435 0.45185 0.0
H1648 H 0.78986 0.84141 0.42225 0.0
H1649 H 0.7111 0.79769 0.36198 0.0
H1650 H 0.75091 0.80182 0.36665 0.0
H1651 H 0.7814 0.87404 0.35704 0.0
H1652 H 0.74195 0.87 0.3527 0.0
H1653 H 0.77293 0.82212 0.39344 0.0
H1654 H 0.83842 0.89742 0.34603 0.0
H1655 H 0.84577 0.91117 0.31545 0.0
H1656 H 0.80441 0.84342 0.30411 0.0
H1657 H 0.79627 0.82936 0.3346 0.0
C1658 C 0.88123 0.86723 0.41782 0.0
C1659 C 0.89451 0.85705 0.41309 0.0
C1660 C 0.86187 0.86551 0.40862 0.0
C1661 C 0.85573 0.8537 0.39453 0.0
C1662 C 0.86972 0.8445 0.3893 0.0
C1663 C 0.88882 0.84595 0.39863 0.0
C1664 C 0.83346 0.84907 0.38618 0.0
C1665 C 0.83483 0.85781 0.36918 0.0
C1666 C 0.8109 0.83566 0.39492 0.0
C1667 C 0.80848 0.8251 0.41268 0.0
C1668 C 0.81766 0.8102 0.41705 0.0
C1669 C 0.81584 0.80071 0.43385 0.0
C1670 C 0.80471 0.80585 0.44639 0.0
C1671 C 0.79527 0.82042 0.44213 0.0
C1672 C 0.79707 0.82999 0.42534 0.0
C1673 C 0.72644 0.8144 0.3603 0.0
C1674 C 0.72333 0.8335 0.35694 0.0
C1675 C 0.74914 0.81674 0.36295 0.0
C1676 C 0.7691 0.83823 0.36222 0.0
C1677 C 0.76632 0.85728 0.35744 0.0
C1678 C 0.74359 0.85494 0.35495 0.0
C1679 C 0.79151 0.84092 0.36958 0.0
C1680 C 0.79022 0.83194 0.38657 0.0
C1681 C 0.81408 0.85383 0.36074 0.0
C1682 C 0.81664 0.86239 0.34254 0.0
C1683 C 0.83065 0.88552 0.33698 0.0
C1684 C 0.83495 0.89336 0.31968 0.0
C1685 C 0.82564 0.87816 0.30785 0.0
C1686 C 0.81156 0.85517 0.31329 0.0
C1687 C 0.80687 0.84728 0.33058 0.0
H1688 H 0.82927 0.88422 0.29446 0.0
H1689 H 0.80335 0.7985 0.4594 0.0
H1690 H 0.17611 0.05755 0.40404 0.0
H1691 H 0.16998 0.02313 0.39307 0.0
H1692 H 0.24098 0.03686 0.40638 0.0
H1693 H 0.2475 0.07189 0.41628 0.0
H1694 H 0.23361 0.02077 0.37838 0.0
H1695 H 0.18767 0.99743 0.43112 0.0
H1696 H 0.15769 0.99454 0.4521 0.0
H1697 H 0.10219 0.96399 0.41805 0.0
H1698 H 0.13191 0.96698 0.39675 0.0
H1699 H 0.21248 0.90595 0.38433 0.0
H1700 H 0.21889 0.94208 0.39225 0.0
H1701 H 0.16073 0.93802 0.36244 0.0
H1702 H 0.15459 0.90233 0.35412 0.0
H1703 H 0.16104 0.94861 0.39819 0.0
H1704 H 0.20931 0.97168 0.34583 0.0
H1705 H 0.24029 0.97266 0.32683 0.0
H1706 H 0.29292 1.0022 0.36297 0.0
H1707 H 0.26211 1.001 0.38234 0.0
C1708 C 0.19048 0.05334 0.40433 0.0
C1709 C 0.21219 0.06725 0.41116 0.0
C1710 C 0.1869 0.03351 0.39827 0.0
C1711 C 0.2048 0.02696 0.39922 0.0
C1712 C 0.22678 0.04131 0.40556 0.0
C1713 C 0.23045 0.06125 0.41138 0.0
C1714 C 0.20064 1.0051 0.39387 0.0
C1715 C 0.21783 1.00502 0.3829 0.0
C1716 C 0.17995 0.98438 0.39954 0.0
C1717 C 0.16206 0.98267 0.41227 0.0
C1718 C 0.16911 0.99027 0.42805 0.0
C1719 C 0.15216 0.98859 0.44001 0.0
C1720 C 0.12806 0.97915 0.43639 0.0
C1721 C 0.12086 0.97134 0.42082 0.0
C1722 C 0.13775 0.97302 0.4088 0.0
C1723 C 0.20112 0.91279 0.37941 0.0
C1724 C 0.1831 0.90127 0.36853 0.0
C1725 C 0.20481 0.93343 0.38394 0.0
C1726 C 0.19026 0.94271 0.37794 0.0
C1727 C 0.17212 0.93115 0.36723 0.0
C1728 C 0.16875 0.91079 0.36241 0.0
C1729 C 0.19396 0.96449 0.38282 0.0
C1730 C 0.17673 0.96447 0.3937 0.0
C1731 C 0.21475 0.98501 0.37733 0.0
C1732 C 0.23335 0.98603 0.36561 0.0
C1733 C 0.22744 0.97819 0.3498 0.0
C1734 C 0.24498 0.97882 0.33894 0.0
C1735 C 0.26855 0.98744 0.34371 0.0
C1736 C 0.27464 0.9955 0.35931 0.0
C1737 C 0.25715 0.99486 0.37023 0.0
H1738 H 0.28211 0.98792 0.33529 0.0
H1739 H 0.11496 0.97784 0.44567 0.0
H1740 H 0.49107 0.6052 0.31677 0.0
H1741 H 0.52111 0.64038 0.32639 0.0
H1742 H 0.51057 0.67845 0.28319 0.0
H1743 H 0.4805 0.64326 0.27369 0.0
H1744 H 0.55712 0.69487 0.28724 0.0
H1745 H 0.4887 0.6756 0.32375 0.0
H1746 H 0.45496 0.65122 0.34442 0.0
H1747 H 0.50372 0.64723 0.38023 0.0
H1748 H 0.53774 0.67132 0.35968 0.0
H1749 H 0.62453 0.803 0.31451 0.0
H1750 H 0.59332 0.76848 0.30505 0.0
H1751 H 0.59761 0.72983 0.35058 0.0
H1752 H 0.62808 0.76451 0.36025 0.0
H1753 H 0.55371 0.71381 0.34499 0.0
H1754 H 0.62229 0.73245 0.30809 0.0
H1755 H 0.65593 0.75713 0.2874 0.0
H1756 H 0.60706 0.76248 0.2523 0.0
H1757 H 0.57314 0.738 0.27286 0.0
C1758 C 0.49494 0.62111 0.3095 0.0
C1759 C 0.48337 0.62146 0.2945 0.0
C1760 C 0.51218 0.64126 0.31497 0.0
C1761 C 0.51819 0.6623 0.30561 0.0
C1762 C 0.50647 0.66259 0.29066 0.0
C1763 C 0.48924 0.64246 0.28523 0.0
C1764 C 0.53689 0.68394 0.31119 0.0
C1765 C 0.55619 0.6991 0.29982 0.0
C1766 C 0.53616 0.68949 0.3277 0.0
C1767 C 0.51574 0.67507 0.3401 0.0
C1768 C 0.49221 0.66937 0.33598 0.0
C1769 C 0.47304 0.65563 0.34769 0.0
C1770 C 0.47719 0.64763 0.36361 0.0
C1771 C 0.50053 0.65341 0.36788 0.0
C1772 C 0.51976 0.66712 0.35621 0.0
C1773 C 0.61892 0.78709 0.32242 0.0
C1774 C 0.62875 0.78651 0.33817 0.0
C1775 C 0.60107 0.76725 0.31697 0.0
C1776 C 0.59312 0.74617 0.32689 0.0
C1777 C 0.60316 0.74569 0.34261 0.0
C1778 C 0.62062 0.76558 0.3482 0.0
C1779 C 0.5742 0.72471 0.32111 0.0
C1780 C 0.55477 0.70959 0.33243 0.0
C1781 C 0.57486 0.71917 0.30456 0.0
C1782 C 0.5952 0.73354 0.29207 0.0
C1783 C 0.61873 0.73896 0.29598 0.0
C1784 C 0.63784 0.75291 0.28428 0.0
C1785 C 0.63364 0.7614 0.26856 0.0
C1786 C 0.61029 0.75589 0.26449 0.0
C1787 C 0.59111 0.74196 0.27615 0.0
H1788 H 0.64846 0.77223 0.25953 0.0
H1789 H 0.46232 0.637 0.37266 0.0
H1790 H 0.36026 0.8005 0.30005 0.0
H1791 H 0.32829 0.80298 0.31525 0.0
H1792 H 0.36405 0.87493 0.30021 0.0
H1793 H 0.39636 0.87238 0.2858 0.0
H1794 H 0.34949 0.86628 0.3319 0.0
H1795 H 0.3144 0.83781 0.28076 0.0
H1796 H 0.30084 0.81188 0.25917 0.0
H1797 H 0.25394 0.75765 0.29656 0.0
H1798 H 0.26752 0.78319 0.31845 0.0
H1799 H 0.25251 0.88983 0.33997 0.0
H1800 H 0.28752 0.88559 0.33367 0.0
H1801 H 0.24693 0.81428 0.35057 0.0
H1802 H 0.21181 0.81824 0.35551 0.0
H1803 H 0.26422 0.82079 0.3203 0.0
H1804 H 0.29915 0.85244 0.37133 0.0
H1805 H 0.31308 0.88078 0.39128 0.0
H1806 H 0.35947 0.9317 0.35186 0.0
H1807 H 0.34599 0.90377 0.33173 0.0
C1808 C 0.36106 0.81673 0.30006 0.0
C1809 C 0.38037 0.83622 0.29173 0.0
C1810 C 0.34288 0.81817 0.30862 0.0
C1811 C 0.3437 0.83914 0.30872 0.0
C1812 C 0.36307 0.8586 0.30032 0.0
C1813 C 0.38131 0.85715 0.29196 0.0
C1814 C 0.32448 0.84096 0.31757 0.0
C1815 C 0.33083 0.85642 0.32932 0.0
C1816 C 0.30013 0.82782 0.3144 0.0
C1817 C 0.29224 0.81235 0.3013 0.0
C1818 C 0.3014 0.8203 0.28442 0.0
C1819 C 0.29367 0.80568 0.27212 0.0
C1820 C 0.27661 0.78311 0.2765 0.0
C1821 C 0.26721 0.77512 0.29319 0.0
C1822 C 0.27493 0.78966 0.30555 0.0
C1823 C 0.25133 0.87337 0.34274 0.0
C1824 C 0.22947 0.85443 0.34849 0.0
C1825 C 0.27139 0.87098 0.33929 0.0
C1826 C 0.26994 0.84962 0.34179 0.0
C1827 C 0.24851 0.83094 0.34859 0.0
C1828 C 0.22838 0.83326 0.3516 0.0
C1829 C 0.28915 0.84608 0.33474 0.0
C1830 C 0.28281 0.83035 0.32319 0.0
C1831 C 0.31349 0.85925 0.3379 0.0
C1832 C 0.32142 0.87604 0.35001 0.0
C1833 C 0.31218 0.86972 0.36691 0.0
C1834 C 0.32002 0.88568 0.37824 0.0
C1835 C 0.33699 0.908 0.37281 0.0
C1836 C 0.34629 0.91441 0.35605 0.0
C1837 C 0.33864 0.89851 0.3447 0.0
H1838 H 0.34298 0.92031 0.38161 0.0
H1839 H 0.27062 0.77183 0.26695 0.0
H1840 H 0.15312 0.54892 0.26517 0.0
H1841 H 0.15616 0.51448 0.27378 0.0
H1842 H 0.1108 0.50007 0.31844 0.0
H1843 H 0.10621 0.53329 0.30921 0.0
H1844 H 0.16779 0.50681 0.31691 0.0
H1845 H 0.08366 0.46763 0.30383 0.0
H1846 H 0.04998 0.45742 0.28533 0.0
H1847 H 0.08274 0.43315 0.25226 0.0
H1848 H 0.11749 0.44472 0.26993 0.0
H1849 H 0.16147 0.40919 0.36205 0.0
H1850 H 0.15194 0.43825 0.35019 0.0
H1851 H 0.1506 0.41826 0.30063 0.0
H1852 H 0.15813 0.38773 0.31288 0.0
H1853 H 0.11778 0.42931 0.30289 0.0
H1854 H 0.20074 0.46621 0.3163 0.0
H1855 H 0.2328 0.47304 0.33595 0.0
H1856 H 0.20179 0.49916 0.3688 0.0
H1857 H 0.16929 0.49211 0.3495 0.0
C1858 C 0.14321 0.53798 0.27652 0.0
C1859 C 0.12968 0.54396 0.28664 0.0
C1860 C 0.14507 0.51841 0.28149 0.0
C1861 C 0.13361 0.50464 0.29672 0.0
C1862 C 0.11962 0.51031 0.30657 0.0
C1863 C 0.11723 0.52944 0.30138 0.0
C1864 C 0.13795 0.48558 0.30323 0.0
C1865 C 0.15682 0.48984 0.3139 0.0
C1866 C 0.12388 0.46352 0.29908 0.0
C1867 C 0.1036 0.45776 0.28795 0.0
C1868 C 0.08417 0.46094 0.29229 0.0
C1869 C 0.06482 0.45482 0.28196 0.0
C1870 C 0.0644 0.44497 0.26747 0.0
C1871 C 0.08331 0.44119 0.2633 0.0
C1872 C 0.10292 0.44768 0.2734 0.0
C1873 C 0.15887 0.4107 0.34871 0.0
C1874 C 0.16053 0.39596 0.33854 0.0
C1875 C 0.15368 0.42763 0.34182 0.0
C1876 C 0.15121 0.43109 0.32434 0.0
C1877 C 0.15252 0.41616 0.31413 0.0
C1878 C 0.15692 0.3987 0.32116 0.0
C1879 C 0.14761 0.45039 0.31674 0.0
C1880 C 0.12898 0.44629 0.3058 0.0
C1881 C 0.16197 0.47267 0.32058 0.0
C1882 C 0.1825 0.4785 0.3315 0.0
C1883 C 0.20081 0.47348 0.32769 0.0
C1884 C 0.21902 0.47732 0.33879 0.0
C1885 C 0.21927 0.48646 0.35365 0.0
C1886 C 0.20153 0.49205 0.35731 0.0
C1887 C 0.18323 0.48817 0.34628 0.0
H1888 H 0.23317 0.48917 0.36236 0.0
H1889 H 0.0493 0.44006 0.25956 0.0
H1890 H 0.43148 0.52632 0.30042 0.0
H1891 H 0.39383 0.49172 0.30975 0.0
H1892 H 0.35393 0.52488 0.29033 0.0
H1893 H 0.39168 0.55931 0.28104 0.0
H1894 H 0.33885 0.5046 0.32265 0.0
H1895 H 0.35606 0.48268 0.27097 0.0
H1896 H 0.38075 0.47525 0.25157 0.0
H1897 H 0.38233 0.42623 0.28976 0.0
H1898 H 0.35802 0.43355 0.30953 0.0
H1899 H 0.22287 0.40789 0.34065 0.0
H1900 H 0.25957 0.44236 0.33023 0.0
H1901 H 0.29872 0.40505 0.33437 0.0
H1902 H 0.26168 0.37051 0.34341 0.0
H1903 H 0.31401 0.42826 0.30795 0.0
H1904 H 0.31375 0.45803 0.36091 0.0
H1905 H 0.3009 0.47121 0.3843 0.0
H1906 H 0.2738 0.50489 0.34892 0.0
H1907 H 0.28764 0.4928 0.32525 0.0
C1908 C 0.41459 0.52593 0.29791 0.0
C1909 C 0.41433 0.54528 0.2899 0.0
C1910 C 0.39308 0.5062 0.3032 0.0
C1911 C 0.37083 0.50547 0.30066 0.0
C1912 C 0.37072 0.52485 0.29241 0.0
C1913 C 0.39222 0.54448 0.28703 0.0
C1914 C 0.34782 0.4852 0.30761 0.0
C1915 C 0.33322 0.48793 0.3192 0.0
C1916 C 0.34081 0.4632 0.30378 0.0
C1917 C 0.35535 0.4588 0.29179 0.0
C1918 C 0.36181 0.47044 0.27529 0.0
C1919 C 0.37571 0.46624 0.26421 0.0
C1920 C 0.38311 0.45034 0.26942 0.0
C1921 C 0.3766 0.43856 0.28573 0.0
C1922 C 0.36275 0.44271 0.29688 0.0
C1923 C 0.23943 0.40719 0.33962 0.0
C1924 C 0.23936 0.38643 0.34296 0.0
C1925 C 0.26065 0.42707 0.33373 0.0
C1926 C 0.28252 0.42683 0.33145 0.0
C1927 C 0.28239 0.4061 0.33565 0.0
C1928 C 0.26115 0.38624 0.34101 0.0
C1929 C 0.30501 0.44739 0.32351 0.0
C1930 C 0.31946 0.44481 0.31151 0.0
C1931 C 0.31246 0.46948 0.32742 0.0
C1932 C 0.30107 0.474 0.34143 0.0
C1933 C 0.30454 0.4678 0.35818 0.0
C1934 C 0.29727 0.47525 0.37147 0.0
C1935 C 0.28584 0.48831 0.36818 0.0
C1936 C 0.28216 0.49436 0.35151 0.0
C1937 C 0.28992 0.48742 0.33814 0.0
H1938 H 0.28015 0.49398 0.37851 0.0
H1939 H 0.39386 0.44713 0.26081 0.0
H1940 H 0.46516 0.86923 0.30184 0.0
H1941 H 0.50256 0.87254 0.31286 0.0
H1942 H 0.49671 0.82038 0.28421 0.0
H1943 H 0.4593 0.81744 0.27298 0.0
H1944 H 0.50433 0.814 0.31976 0.0
H1945 H 0.53705 0.86906 0.27114 0.0
H1946 H 0.54134 0.9017 0.25156 0.0
H1947 H 0.56779 0.94371 0.2911 0.0
H1948 H 0.5631 0.91117 0.31106 0.0
H1949 H 0.61776 0.82615 0.33947 0.0
H1950 H 0.58029 0.82068 0.32867 0.0
H1951 H 0.59484 0.88575 0.34133 0.0
H1952 H 0.63409 0.89215 0.35055 0.0
H1953 H 0.58226 0.88417 0.31211 0.0
H1954 H 0.54065 0.8272 0.36184 0.0
H1955 H 0.53114 0.7932 0.38192 0.0
H1956 H 0.52177 0.75527 0.34059 0.0
H1957 H 0.52986 0.78869 0.32028 0.0
C1958 C 0.47218 0.85877 0.29779 0.0
C1959 C 0.45973 0.84312 0.28668 0.0
C1960 C 0.49339 0.86063 0.30403 0.0
C1961 C 0.50229 0.84668 0.29932 0.0
C1962 C 0.49003 0.83124 0.28795 0.0
C1963 C 0.46891 0.82964 0.28151 0.0
C1964 C 0.52389 0.84779 0.30693 0.0
C1965 C 0.52152 0.82921 0.31796 0.0
C1966 C 0.54602 0.86781 0.30475 0.0
C1967 C 0.54954 0.8876 0.29265 0.0
C1968 C 0.54362 0.88522 0.27571 0.0
C1969 C 0.54613 0.9037 0.26453 0.0
C1970 C 0.55481 0.92476 0.27009 0.0
C1971 C 0.56106 0.92738 0.28682 0.0
C1972 C 0.55848 0.90891 0.29807 0.0
C1973 C 0.61269 0.83894 0.34059 0.0
C1974 C 0.62867 0.85938 0.34622 0.0
C1975 C 0.59096 0.83574 0.33444 0.0
C1976 C 0.58418 0.85254 0.33444 0.0
C1977 C 0.59954 0.87246 0.34114 0.0
C1978 C 0.62182 0.87604 0.34662 0.0
C1979 C 0.56273 0.85054 0.32562 0.0
C1980 C 0.56514 0.86894 0.31413 0.0
C1981 C 0.54054 0.83036 0.32744 0.0
C1982 C 0.53611 0.81045 0.33959 0.0
C1983 C 0.53666 0.81163 0.35707 0.0
C1984 C 0.53146 0.79246 0.36847 0.0
C1985 C 0.52633 0.77223 0.36255 0.0
C1986 C 0.52587 0.77098 0.34517 0.0
C1987 C 0.53046 0.78993 0.33372 0.0
H1988 H 0.52251 0.75749 0.37142 0.0
H1989 H 0.55672 0.93906 0.26142 0.0
H1990 H 0.17431 0.63126 0.2978 0.0
H1991 H 0.17893 0.66478 0.30978 0.0
H1992 H 0.10514 0.64552 0.30141 0.0
H1993 H 0.10029 0.6115 0.29023 0.0
H1994 H 0.14865 0.69604 0.28869 0.0
H1995 H 0.10776 0.63651 0.33656 0.0
H1996 H 0.10453 0.60483 0.35685 0.0
H1997 H 0.17393 0.64731 0.37387 0.0
H1998 H 0.17771 0.67915 0.35346 0.0
H1999 H 0.12841 0.77308 0.32805 0.0
H2000 H 0.12462 0.73924 0.31779 0.0
H2001 H 0.17929 0.74028 0.35035 0.0
H2002 H 0.18245 0.77362 0.36119 0.0
H2003 H 0.1478 0.69928 0.35053 0.0
H2004 H 0.19005 0.75881 0.30622 0.0
H2005 H 0.19843 0.79192 0.28554 0.0
H2006 H 0.13437 0.75257 0.26092 0.0
H2007 H 0.1254 0.71928 0.28161 0.0
C2008 C 0.15908 0.63413 0.29877 0.0
C2009 C 0.13693 0.61886 0.29322 0.0
C2010 C 0.16174 0.65326 0.30548 0.0
C2011 C 0.14239 0.65764 0.30643 0.0
C2012 C 0.1203 0.64248 0.30074 0.0
C2013 C 0.11752 0.62311 0.2944 0.0
C2014 C 0.14513 0.67797 0.31341 0.0
C2015 C 0.14817 0.69673 0.3022 0.0
C2016 C 0.14554 0.67916 0.33099 0.0
C2017 C 0.14314 0.6601 0.34335 0.0
C2018 C 0.12243 0.63902 0.3445 0.0
C2019 C 0.12048 0.62105 0.35605 0.0
C2020 C 0.13905 0.62403 0.3666 0.0
C2021 C 0.15958 0.64501 0.36567 0.0
C2022 C 0.16163 0.66302 0.35412 0.0
C2023 C 0.13954 0.76604 0.33312 0.0
C2024 C 0.1558 0.77617 0.34541 0.0
C2025 C 0.13749 0.74674 0.32713 0.0
C2026 C 0.15206 0.73737 0.33295 0.0
C2027 C 0.16788 0.74713 0.34556 0.0
C2028 C 0.16967 0.76625 0.35177 0.0
C2029 C 0.15082 0.71749 0.32583 0.0
C2030 C 0.14825 0.69879 0.33699 0.0
C2031 C 0.15153 0.71663 0.30814 0.0
C2032 C 0.15693 0.73658 0.29558 0.0
C2033 C 0.17765 0.75725 0.29647 0.0
C2034 C 0.18253 0.77605 0.28474 0.0
C2035 C 0.16691 0.77436 0.27195 0.0
C2036 C 0.14643 0.75385 0.27085 0.0
C2037 C 0.14145 0.735 0.28256 0.0
H2038 H 0.17071 0.78892 0.26288 0.0
H2039 H 0.1375 0.6101 0.37554 0.0
H2040 H 0.83767 0.07666 0.42142 0.0
H2041 H 0.80866 0.04119 0.41179 0.0
H2042 H 0.86631 0.03081 0.39495 0.0
H2043 H 0.89539 0.06566 0.40562 0.0
H2044 H 0.82628 0.02504 0.37065 0.0
H2045 H 0.84106 1.00092 0.4267 0.0
H2046 H 0.84383 1.00104 0.45753 0.0
H2047 H 0.76969 0.9833 0.46304 0.0
H2048 H 0.7666 0.98358 0.43216 0.0
H2049 H 0.75633 0.91406 0.35083 0.0
H2050 H 0.78662 0.94842 0.36068 0.0
H2051 H 0.73439 0.94561 0.3965 0.0
H2052 H 0.70421 0.91041 0.38722 0.0
H2053 H 0.77284 0.95848 0.41134 0.0
H2054 H 0.75708 0.98539 0.3571 0.0
H2055 H 0.75213 0.9869 0.32636 0.0
H2056 H 0.82448 1.0004 0.3175 0.0
H2057 H 0.82989 0.99909 0.34822 0.0
C2058 C 0.84418 0.06668 0.4159 0.0
C2059 C 0.8689 0.07394 0.41447 0.0
C2060 C 0.82756 0.04646 0.41028 0.0
C2061 C 0.83524 0.03321 0.40271 0.0
C2062 C 0.85993 0.04073 0.40074 0.0
C2063 C 0.87656 0.06073 0.40674 0.0
C2064 C 0.81738 0.01154 0.39694 0.0
C2065 C 0.81482 0.01036 0.37953 0.0
C2066 C 0.80181 0.9926 0.4085 0.0
C2067 C 0.8037 0.99262 0.42706 0.0
C2068 C 0.82543 0.99738 0.43444 0.0
C2069 C 0.82705 0.99733 0.45194 0.0
C2070 C 0.80698 0.99231 0.46223 0.0
C2071 C 0.78525 0.98729 0.45504 0.0
C2072 C 0.78356 0.9874 0.43754 0.0
C2073 C 0.75118 0.92075 0.36076 0.0
C2074 C 0.72767 0.90943 0.36812 0.0
C2075 C 0.7686 0.94063 0.36634 0.0
C2076 C 0.76292 0.95022 0.37914 0.0
C2077 C 0.73944 0.93881 0.38659 0.0
C2078 C 0.72209 0.91864 0.38122 0.0
C2079 C 0.7815 0.97181 0.38493 0.0
C2080 C 0.78423 0.97306 0.40237 0.0
C2081 C 0.7969 0.99101 0.3734 0.0
C2082 C 0.79382 0.99196 0.35494 0.0
C2083 C 0.7719 0.9886 0.34859 0.0
C2084 C 0.76904 0.98948 0.33118 0.0
C2085 C 0.78795 0.99366 0.31999 0.0
C2086 C 0.80984 0.99715 0.32619 0.0
C2087 C 0.81285 0.99644 0.34359 0.0
H2088 H 0.78565 0.99421 0.30651 0.0
H2089 H 0.80824 0.99218 0.47578 0.0
H2090 H 0.98912 0.87749 0.43305 0.0
H2091 H 0.02199 0.87244 0.42185 0.0
H2092 H 0.97085 0.80629 0.41089 0.0
H2093 H 0.93824 0.81198 0.42111 0.0
H2094 H 0.01913 0.81404 0.42685 0.0
H2095 H 0.98225 0.83838 0.3799 0.0
H2096 H 0.96889 0.86455 0.36617 0.0
H2097 H 0.03942 0.92009 0.36793 0.0
H2098 H 0.05316 0.8942 0.38169 0.0
H2099 H 0.08373 0.78754 0.37247 0.0
H2100 H 0.0502 0.7922 0.38226 0.0
H2101 H 0.09491 0.86436 0.37461 0.0
H2102 H 0.12788 0.85973 0.36447 0.0
H2103 H 0.05087 0.85485 0.36919 0.0
H2104 H 0.09036 0.83344 0.41258 0.0
H2105 H 0.10659 0.81023 0.42735 0.0
H2106 H 0.03596 0.7537 0.43537 0.0
H2107 H 0.0193 0.77641 0.42028 0.0
C2108 C 0.98519 0.86166 0.42876 0.0
C2109 C 0.96143 0.84473 0.42848 0.0
C2110 C 1.00379 0.85882 0.42233 0.0
C2111 C 0.9987 0.83892 0.41571 0.0
C2112 C 0.97505 0.82157 0.41623 0.0
C2113 C 0.95651 0.82464 0.42229 0.0
C2114 C 0.01754 0.837 0.40661 0.0
C2115 C 0.02598 0.82275 0.41419 0.0
C2116 C 0.02684 0.84895 0.39035 0.0
C2117 C 0.01864 0.86442 0.38195 0.0
C2118 C 0.99484 0.85619 0.37745 0.0
C2119 C 0.98723 0.87096 0.36963 0.0
C2120 C 1.00326 0.89398 0.36626 0.0
C2121 C 0.027 0.90226 0.37059 0.0
C2122 C 0.03473 0.88755 0.37835 0.0
C2123 C 0.08605 0.80437 0.37233 0.0
C2124 C 0.1084 0.82326 0.36769 0.0
C2125 C 0.06701 0.80703 0.37804 0.0
C2126 C 0.07032 0.82862 0.37964 0.0
C2127 C 0.09199 0.84754 0.37359 0.0
C2128 C 0.1109 0.84487 0.36769 0.0
C2129 C 0.05231 0.83144 0.38924 0.0
C2130 C 0.04409 0.84601 0.38182 0.0
C2131 C 0.0437 0.8202 0.40587 0.0
C2132 C 0.0536 0.80656 0.41515 0.0
C2133 C 0.07829 0.81601 0.41739 0.0
C2134 C 0.08758 0.80296 0.42583 0.0
C2135 C 0.07233 0.78052 0.43229 0.0
C2136 C 0.04775 0.77108 0.43034 0.0
C2137 C 0.03837 0.78403 0.42183 0.0
H2138 H 0.07957 0.77045 0.43882 0.0
H2139 H 0.99731 0.90539 0.36025 0.0
H2140 H 0.17851 0.12319 0.41301 0.0
H2141 H 0.17606 0.15793 0.40552 0.0
H2142 H 0.24865 0.19689 0.41932 0.0
H2143 H 0.25142 0.16207 0.42617 0.0
H2144 H 0.21399 0.21115 0.43031 0.0
H2145 H 0.2426 0.19514 0.38058 0.0
H2146 H 0.24115 0.17047 0.35982 0.0
H2147 H 0.1721 0.1611 0.34599 0.0
H2148 H 0.17294 0.18538 0.36691 0.0
H2149 H 0.22354 0.315 0.38843 0.0
H2150 H 0.2309 0.28384 0.39957 0.0
H2151 H 0.16948 0.23793 0.37502 0.0
H2152 H 0.16258 0.26886 0.36355 0.0
H2153 H 0.20273 0.22882 0.36988 0.0
H2154 H 0.17186 0.24256 0.41943 0.0
H2155 H 0.16984 0.26384 0.44176 0.0
H2156 H 0.23881 0.27486 0.45724 0.0
H2157 H 0.24147 0.25402 0.43478 0.0
C2158 C 0.19392 0.13918 0.41442 0.0
C2159 C 0.21522 0.13996 0.41997 0.0
C2160 C 0.19248 0.15898 0.41025 0.0
C2161 C 0.21223 0.18003 0.41172 0.0
C2162 C 0.23318 0.18084 0.41809 0.0
C2163 C 0.23474 0.16096 0.42205 0.0
C2164 C 0.21129 0.20105 0.4055 0.0
C2165 C 0.21191 0.21531 0.41706 0.0
C2166 C 0.20804 0.20613 0.38829 0.0
C2167 C 0.20775 0.19194 0.37542 0.0
C2168 C 0.22703 0.1877 0.3732 0.0
C2169 C 0.22633 0.17379 0.36139 0.0
C2170 C 0.20653 0.16419 0.35162 0.0
C2171 C 0.18742 0.16853 0.35358 0.0
C2172 C 0.18801 0.18238 0.36541 0.0
C2173 C 0.21162 0.29824 0.38544 0.0
C2174 C 0.1926 0.29452 0.37496 0.0
C2175 C 0.21575 0.28037 0.39191 0.0
C2176 C 0.20066 0.25832 0.38829 0.0
C2177 C 0.18154 0.25468 0.37797 0.0
C2178 C 0.17761 0.27249 0.37137 0.0
C2179 C 0.20486 0.239 0.39473 0.0
C2180 C 0.20495 0.22496 0.38315 0.0
C2181 C 0.20838 0.23401 0.41199 0.0
C2182 C 0.20702 0.24701 0.42524 0.0
C2183 C 0.18674 0.24978 0.42744 0.0
C2184 C 0.18546 0.26172 0.44015 0.0
C2185 C 0.20424 0.27076 0.45087 0.0
C2186 C 0.22433 0.26791 0.44889 0.0
C2187 C 0.22575 0.25606 0.43616 0.0
H2188 H 0.2032 0.27989 0.46076 0.0
H2189 H 0.20601 0.15341 0.34249 0.0
H2190 H 0.5978 0.50265 0.75809 0.0
H2191 H 0.63607 0.53674 0.74987 0.0
H2192 H 0.6687 0.49562 0.74174 0.0
H2193 H 0.63065 0.46163 0.75066 0.0
H2194 H 0.69987 0.5313 0.75503 0.0
H2195 H 0.64891 0.51991 0.70862 0.0
H2196 H 0.61222 0.51419 0.69459 0.0
H2197 H 0.62257 0.57786 0.70666 0.0
H2198 H 0.65915 0.58381 0.72098 0.0
H2199 H 0.80184 0.61711 0.70504 0.0
H2200 H 0.76417 0.58264 0.71346 0.0
H2201 H 0.73091 0.62252 0.72375 0.0
H2202 H 0.76844 0.65699 0.71487 0.0
H2203 H 0.70037 0.58715 0.70893 0.0
H2204 H 0.75169 0.59837 0.7554 0.0
H2205 H 0.78909 0.60434 0.76845 0.0
H2206 H 0.77841 0.54086 0.75571 0.0
H2207 H 0.7412 0.53473 0.74225 0.0
C2208 C 0.61329 0.50094 0.75492 0.0
C2209 C 0.61118 0.47945 0.75493 0.0
C2210 C 0.63514 0.52045 0.74999 0.0
C2211 C 0.65537 0.51893 0.74476 0.0
C2212 C 0.65348 0.49742 0.74555 0.0
C2213 C 0.63168 0.47795 0.75056 0.0
C2214 C 0.67815 0.53959 0.73794 0.0
C2215 C 0.69994 0.54334 0.74483 0.0
C2216 C 0.67852 0.55566 0.72473 0.0
C2217 C 0.65664 0.5522 0.71601 0.0
C2218 C 0.64327 0.53262 0.70838 0.0
C2219 C 0.62251 0.52935 0.70036 0.0
C2220 C 0.61504 0.54563 0.69977 0.0
C2221 C 0.62836 0.56525 0.70715 0.0
C2222 C 0.64912 0.56859 0.71521 0.0
C2223 C 0.7864 0.61855 0.70871 0.0
C2224 C 0.78803 0.63984 0.70892 0.0
C2225 C 0.76485 0.59877 0.71375 0.0
C2226 C 0.74457 0.59982 0.71947 0.0
C2227 C 0.74615 0.62112 0.71939 0.0
C2228 C 0.76764 0.64084 0.71434 0.0
C2229 C 0.72198 0.57891 0.7261 0.0
C2230 C 0.70026 0.5751 0.71916 0.0
C2231 C 0.72171 0.56279 0.73922 0.0
C2232 C 0.74376 0.56618 0.74769 0.0
C2233 C 0.75738 0.58574 0.7553 0.0
C2234 C 0.77854 0.58915 0.76277 0.0
C2235 C 0.78612 0.57299 0.76291 0.0
C2236 C 0.77252 0.55337 0.75559 0.0
C2237 C 0.75139 0.54991 0.74804 0.0
H2238 H 0.8025 0.57567 0.76871 0.0
H2239 H 0.59896 0.54306 0.69356 0.0
H2240 H 0.57714 0.23562 0.74718 0.0
H2241 H 0.54277 0.23273 0.73125 0.0
H2242 H 0.50614 0.16069 0.74575 0.0
H2243 H 0.5407 0.16362 0.76087 0.0
H2244 H 0.50336 0.16963 0.71347 0.0
H2245 H 0.49006 0.19651 0.76377 0.0
H2246 H 0.49918 0.22235 0.78523 0.0
H2247 H 0.50972 0.27602 0.7464 0.0
H2248 H 0.50082 0.25052 0.7247 0.0
H2249 H 0.38096 0.13722 0.702 0.0
H2250 H 0.42114 0.1449 0.7095 0.0
H2251 H 0.44776 0.21555 0.69228 0.0
H2252 H 0.40774 0.20815 0.68608 0.0
H2253 H 0.45907 0.211 0.72253 0.0
H2254 H 0.46656 0.18066 0.67253 0.0
H2255 H 0.45498 0.15267 0.65246 0.0
H2256 H 0.45235 0.10324 0.69222 0.0
H2257 H 0.46414 0.13087 0.7125 0.0
C2258 C 0.56158 0.21931 0.74698 0.0
C2259 C 0.56125 0.19986 0.7553 0.0
C2260 C 0.54199 0.21763 0.73799 0.0
C2261 C 0.52184 0.19648 0.73737 0.0
C2262 C 0.52148 0.17716 0.746 0.0
C2263 C 0.54104 0.17884 0.75479 0.0
C2264 C 0.5013 0.19403 0.72734 0.0
C2265 C 0.49356 0.17859 0.7155 0.0
C2266 C 0.48895 0.20616 0.72965 0.0
C2267 C 0.49513 0.22171 0.7426 0.0
C2268 C 0.49462 0.2139 0.75979 0.0
C2269 C 0.49966 0.22846 0.772 0.0
C2270 C 0.50514 0.25084 0.76717 0.0
C2271 C 0.50561 0.25872 0.75011 0.0
C2272 C 0.50055 0.24422 0.73786 0.0
C2273 C 0.39555 0.15429 0.69942 0.0
C2274 C 0.39109 0.17201 0.69323 0.0
C2275 C 0.41857 0.15866 0.70358 0.0
C2276 C 0.4376 0.18083 0.70134 0.0
C2277 C 0.43341 0.19831 0.69411 0.0
C2278 C 0.41037 0.19399 0.69037 0.0
C2279 C 0.46078 0.18627 0.70883 0.0
C2280 C 0.46906 0.20232 0.72022 0.0
C2281 C 0.47343 0.17448 0.70625 0.0
C2282 C 0.46612 0.15782 0.69405 0.0
C2283 C 0.46338 0.16378 0.67702 0.0
C2284 C 0.45681 0.148 0.6656 0.0
C2285 C 0.45277 0.12619 0.67109 0.0
C2286 C 0.45545 0.12013 0.68799 0.0
C2287 C 0.4622 0.13587 0.69943 0.0
H2288 H 0.44765 0.11402 0.66223 0.0
H2289 H 0.50893 0.26206 0.77665 0.0
H2290 H 0.91567 0.40295 0.75039 0.0
H2291 H 0.90953 0.36849 0.73969 0.0
H2292 H 0.8367 0.3521 0.72996 0.0
H2293 H 0.84261 0.38613 0.74156 0.0
H2294 H 0.83738 0.31533 0.74281 0.0
H2295 H 0.88228 0.37364 0.69772 0.0
H2296 H 0.91531 0.40956 0.68415 0.0
H2297 H 0.96566 0.38623 0.69772 0.0
H2298 H 0.93295 0.35026 0.71159 0.0
H2299 H 0.82221 0.2355 0.68639 0.0
H2300 H 0.82986 0.27163 0.69478 0.0
H2301 H 0.88903 0.27482 0.72292 0.0
H2302 H 0.88128 0.23841 0.71487 0.0
H2303 H 0.8947 0.31805 0.69941 0.0
H2304 H 0.8491 0.26223 0.7482 0.0
H2305 H 0.81564 0.22472 0.75864 0.0
H2306 H 0.76609 0.24317 0.73444 0.0
H2307 H 0.79931 0.28083 0.72396 0.0
C2308 C 0.89832 0.39187 0.74609 0.0
C2309 C 0.87961 0.39717 0.7468 0.0
C2310 C 0.89486 0.37229 0.7398 0.0
C2311 C 0.87273 0.35775 0.73372 0.0
C2312 C 0.85396 0.36301 0.73449 0.0
C2313 C 0.85738 0.38253 0.74097 0.0
C2314 C 0.86923 0.33706 0.72671 0.0
C2315 C 0.84983 0.31612 0.73318 0.0
C2316 C 0.88546 0.33775 0.71421 0.0
C2317 C 0.90518 0.35933 0.70583 0.0
C2318 C 0.90042 0.37623 0.69792 0.0
C2319 C 0.91908 0.39659 0.69016 0.0
C2320 C 0.94258 0.4002 0.69011 0.0
C2321 C 0.94745 0.38342 0.69778 0.0
C2322 C 0.92885 0.36303 0.70558 0.0
C2323 C 0.83705 0.24397 0.6942 0.0
C2324 C 0.85113 0.23403 0.69998 0.0
C2325 C 0.84137 0.26463 0.69897 0.0
C2326 C 0.86006 0.2759 0.70941 0.0
C2327 C 0.87463 0.26642 0.71477 0.0
C2328 C 0.87007 0.24557 0.71023 0.0
C2329 C 0.86323 0.29675 0.71568 0.0
C2330 C 0.88241 0.31755 0.70904 0.0
C2331 C 0.84678 0.29603 0.72786 0.0
C2332 C 0.82661 0.27427 0.73534 0.0
C2333 C 0.83102 0.25831 0.74525 0.0
C2334 C 0.81213 0.23704 0.75116 0.0
C2335 C 0.78876 0.23157 0.74723 0.0
C2336 C 0.78419 0.24746 0.73756 0.0
C2337 C 0.80302 0.26881 0.73169 0.0
H2338 H 0.77425 0.21498 0.75163 0.0
H2339 H 0.957 0.41598 0.68409 0.0
H2340 H 0.1525 0.9405 0.65263 0.0
H2341 H 0.18205 0.97583 0.66249 0.0
H2342 H 0.18264 0.01269 0.61462 0.0
H2343 H 0.15216 0.9777 0.60512 0.0
H2344 H 0.23212 0.01483 0.63445 0.0
H2345 H 0.16245 0.02874 0.63328 0.0
H2346 H 0.12053 0.01745 0.6414 0.0
H2347 H 0.13421 0.00939 0.69386 0.0
H2348 H 0.17613 0.0203 0.68599 0.0
H2349 H 0.31039 0.12828 0.64652 0.0
H2350 H 0.27975 0.09357 0.63721 0.0
H2351 H 0.24224 0.07427 0.68628 0.0
H2352 H 0.27161 0.10974 0.69502 0.0
H2353 H 0.21077 0.06154 0.66646 0.0
H2354 H 0.27931 0.05059 0.66993 0.0
H2355 H 0.32118 0.05953 0.66439 0.0
H2356 H 0.31069 0.05898 0.61117 0.0
H2357 H 0.26883 0.0503 0.61638 0.0
C2358 C 0.15857 0.95619 0.64435 0.0
C2359 C 0.14992 0.95623 0.62807 0.0
C2360 C 0.17561 0.97635 0.64994 0.0
C2361 C 0.18459 0.99696 0.63931 0.0
C2362 C 0.176 0.99704 0.62307 0.0
C2363 C 0.15867 0.977 0.61761 0.0
C2364 C 0.20329 0.01834 0.64496 0.0
C2365 C 0.22752 0.02525 0.64126 0.0
C2366 C 0.19739 0.03157 0.65434 0.0
C2367 C 0.17224 0.02493 0.65903 0.0
C2368 C 0.15641 0.02424 0.64652 0.0
C2369 C 0.13268 0.018 0.65108 0.0
C2370 C 0.12467 0.01259 0.66813 0.0
C2371 C 0.1404 0.0135 0.68065 0.0
C2372 C 0.16414 0.0197 0.67615 0.0
C2373 C 0.29571 0.11662 0.65539 0.0
C2374 C 0.29403 0.12178 0.67176 0.0
C2375 C 0.27816 0.09652 0.65007 0.0
C2376 C 0.25874 0.08057 0.66112 0.0
C2377 C 0.25695 0.08591 0.6774 0.0
C2378 C 0.27412 0.10625 0.68255 0.0
C2379 C 0.24006 0.05869 0.6557 0.0
C2380 C 0.21569 0.05144 0.65954 0.0
C2381 C 0.24592 0.04495 0.6467 0.0
C2382 C 0.27101 0.04999 0.64353 0.0
C2383 C 0.28598 0.05249 0.65704 0.0
C2384 C 0.3097 0.0575 0.65396 0.0
C2385 C 0.31861 0.05987 0.63744 0.0
C2386 C 0.30378 0.05717 0.62396 0.0
C2387 C 0.28005 0.05218 0.62697 0.0
H2388 H 0.33698 0.06377 0.63508 0.0
H2389 H 0.10631 1.00779 0.67164 0.0
H2390 H 0.02093 0.12471 0.63305 0.0
H2391 H 0.9899 0.12938 0.64751 0.0
H2392 H 0.02578 0.20008 0.62788 0.0
H2393 H 0.05714 0.19542 0.61412 0.0
H2394 H 0.01266 0.19486 0.66003 0.0
H2395 H 0.97309 0.16282 0.61057 0.0
H2396 H 0.95881 0.13496 0.59033 0.0
H2397 H 0.9183 0.08219 0.63068 0.0
H2398 H 0.93285 0.10974 0.65114 0.0
H2399 H 0.91624 0.21922 0.66901 0.0
H2400 H 0.95047 0.21438 0.66156 0.0
H2401 H 0.91103 0.144 0.68165 0.0
H2402 H 0.87637 0.14848 0.68791 0.0
H2403 H 0.92676 0.14868 0.65056 0.0
H2404 H 0.9649 0.18444 0.69996 0.0
H2405 H 0.98008 0.2148 0.71824 0.0
H2406 H 0.02349 0.26268 0.6763 0.0
H2407 H 0.00877 0.23273 0.65783 0.0
C2408 C 0.02193 0.14112 0.63185 0.0
C2409 C 0.04102 0.15966 0.62242 0.0
C2410 C 1.00429 0.14381 0.64 0.0
C2411 C 0.00544 0.16506 0.63864 0.0
C2412 C 0.02455 0.18356 0.62911 0.0
C2413 C 0.04223 0.18088 0.62111 0.0
C2414 C 0.98682 0.16813 0.64717 0.0
C2415 C 0.99383 0.18476 0.65799 0.0
C2416 C 0.96232 0.15486 0.64461 0.0
C2417 C 0.95391 0.13829 0.63236 0.0
C2418 C 0.96122 0.14525 0.61511 0.0
C2419 C 0.95312 0.12953 0.6036 0.0
C2420 C 0.93763 0.10682 0.6092 0.0
C2421 C 0.93025 0.09979 0.62634 0.0
C2422 C 0.93837 0.11544 0.63788 0.0
C2423 C 0.91512 0.20284 0.67217 0.0
C2424 C 0.89372 0.18431 0.67924 0.0
C2425 C 0.93477 0.20012 0.66805 0.0
C2426 C 0.93344 0.17883 0.67116 0.0
C2427 C 0.91248 0.16057 0.67912 0.0
C2428 C 0.89269 0.1632 0.68289 0.0
C2429 C 0.95233 0.17489 0.66398 0.0
C2430 C 0.94543 0.15827 0.65314 0.0
C2431 C 0.97692 0.18839 0.66639 0.0
C2432 C 0.98558 0.20638 0.67751 0.0
C2433 C 0.97754 0.20148 0.69463 0.0
C2434 C 0.98609 0.21858 0.70502 0.0
C2435 C 1.00257 0.24062 0.69841 0.0
C2436 C 0.01069 0.24561 0.68141 0.0
C2437 C 1.00233 0.22857 0.67099 0.0
H2438 H 0.00911 0.25381 0.70648 0.0
H2439 H 0.93136 0.09468 0.60028 0.0
H2440 H 0.8441 0.89858 0.62589 0.0
H2441 H 0.84939 0.86582 0.63488 0.0
H2442 H 0.7758 0.82199 0.62528 0.0
H2443 H 0.7702 0.85508 0.61743 0.0
H2444 H 0.78411 0.80662 0.65377 0.0
H2445 H 0.82666 0.82992 0.60001 0.0
H2446 H 0.85582 0.85581 0.57699 0.0
H2447 H 0.91344 0.86775 0.60951 0.0
H2448 H 0.88461 0.84223 0.63283 0.0
H2449 H 0.80113 0.709 0.6637 0.0
H2450 H 0.79453 0.7401 0.65139 0.0
H2451 H 0.85953 0.78745 0.67155 0.0
H2452 H 0.86624 0.75646 0.68407 0.0
H2453 H 0.85442 0.79927 0.63643 0.0
H2454 H 0.81015 0.77639 0.69037 0.0
H2455 H 0.78031 0.74893 0.71244 0.0
H2456 H 0.72474 0.73435 0.67762 0.0
H2457 H 0.75435 0.76147 0.65524 0.0
C2458 C 0.82912 0.88193 0.62563 0.0
C2459 C 0.80672 0.87936 0.62111 0.0
C2460 C 0.83219 0.86314 0.63059 0.0
C2461 C 0.81309 0.84121 0.63065 0.0
C2462 C 0.79087 0.83864 0.6254 0.0
C2463 C 0.78771 0.85754 0.6207 0.0
C2464 C 0.81601 0.82118 0.6372 0.0
C2465 C 0.79927 0.80487 0.64967 0.0
C2466 C 0.83602 0.81889 0.63222 0.0
C2467 C 0.85343 0.83429 0.61822 0.0
C2468 C 0.84553 0.8382 0.6023 0.0
C2469 C 0.86201 0.8528 0.58919 0.0
C2470 C 0.88646 0.86346 0.59179 0.0
C2471 C 0.8945 0.85951 0.60751 0.0
C2472 C 0.87809 0.84496 0.62068 0.0
C2473 C 0.814 0.72601 0.66559 0.0
C2474 C 0.83417 0.73019 0.67495 0.0
C2475 C 0.81018 0.74378 0.65855 0.0
C2476 C 0.82655 0.76611 0.66054 0.0
C2477 C 0.84674 0.77036 0.66981 0.0
C2478 C 0.85043 0.75259 0.67706 0.0
C2479 C 0.82264 0.78505 0.65291 0.0
C2480 C 0.8392 0.80107 0.64032 0.0
C2481 C 0.80235 0.78692 0.65758 0.0
C2482 C 0.7845 0.77078 0.67107 0.0
C2483 C 0.7916 0.76719 0.68737 0.0
C2484 C 0.77472 0.75171 0.69995 0.0
C2485 C 0.75065 0.73986 0.69642 0.0
C2486 C 0.7434 0.74352 0.68033 0.0
C2487 C 0.76022 0.75895 0.66769 0.0
H2488 H 0.73761 0.72789 0.70618 0.0
H2489 H 0.89919 0.87474 0.58162 0.0
H2490 H 0.09315 0.86828 0.64414 0.0
H2491 H 0.05525 0.83356 0.6522 0.0
H2492 H 0.02146 0.854 0.61205 0.0
H2493 H 0.05972 0.88859 0.6038 0.0
H2494 H 0.99451 0.83821 0.64461 0.0
H2495 H 0.03211 0.81486 0.60584 0.0
H2496 H 0.0655 0.81105 0.59411 0.0
H2497 H 0.0648 0.77139 0.64032 0.0
H2498 H 0.03169 0.77536 0.65247 0.0
H2499 H 0.88597 0.73343 0.66186 0.0
H2500 H 0.92043 0.76794 0.64908 0.0
H2501 H 0.96717 0.7422 0.66866 0.0
H2502 H 0.93221 0.70619 0.67841 0.0
H2503 H 0.98714 0.76273 0.64321 0.0
H2504 H 0.95109 0.79059 0.68328 0.0
H2505 H 0.91874 0.79699 0.69388 0.0
H2506 H 0.91663 0.82913 0.64487 0.0
H2507 H 0.94877 0.82288 0.63387 0.0
C2508 C 0.07763 0.8652 0.637 0.0
C2509 C 0.07929 0.88097 0.62334 0.0
C2510 C 0.05599 0.84541 0.64159 0.0
C2511 C 0.03539 0.8411 0.63277 0.0
C2512 C 0.03703 0.85693 0.61909 0.0
C2513 C 0.05886 0.87658 0.61431 0.0
C2514 C 0.01229 0.82003 0.63792 0.0
C2515 C 0.99276 0.82163 0.64428 0.0
C2516 C 0.00997 0.79841 0.63752 0.0
C2517 C 0.02955 0.79558 0.63013 0.0
C2518 C 0.03919 0.80547 0.61356 0.0
C2519 C 0.05806 0.80327 0.60682 0.0
C2520 C 0.0673 0.79102 0.61648 0.0
C2521 C 0.05764 0.78089 0.63287 0.0
C2522 C 0.03881 0.7831 0.63968 0.0
C2523 C 0.90369 0.73538 0.66366 0.0
C2524 C 0.90643 0.71749 0.67202 0.0
C2525 C 0.92366 0.75543 0.65648 0.0
C2526 C 0.94717 0.75882 0.65841 0.0
C2527 C 0.94964 0.74068 0.66684 0.0
C2528 C 0.92957 0.72008 0.67285 0.0
C2529 C 0.96915 0.78046 0.65112 0.0
C2530 C 0.98863 0.7791 0.64403 0.0
C2531 C 0.97141 0.80235 0.65094 0.0
C2532 C 0.95223 0.80615 0.65774 0.0
C2533 C 0.9437 0.79898 0.67477 0.0
C2534 C 0.9254 0.80255 0.68084 0.0
C2535 C 0.91568 0.81341 0.6701 0.0
C2536 C 0.92419 0.82073 0.6532 0.0
C2537 C 0.94245 0.81721 0.64703 0.0
H2538 H 0.90162 0.81623 0.67489 0.0
H2539 H 0.08192 0.78935 0.61124 0.0
H2540 H 0.12405 0.19321 0.63386 0.0
H2541 H 0.1627 0.19959 0.64441 0.0
H2542 H 0.16271 0.1512 0.61399 0.0
H2543 H 0.12371 0.14471 0.60363 0.0
H2544 H 0.17239 0.14369 0.64707 0.0
H2545 H 0.19967 0.2055 0.60277 0.0
H2546 H 0.20078 0.23908 0.58653 0.0
H2547 H 0.22173 0.27395 0.63019 0.0
H2548 H 0.22037 0.24045 0.64682 0.0
H2549 H 0.29027 0.16557 0.66231 0.0
H2550 H 0.25227 0.15874 0.65148 0.0
H2551 H 0.25841 0.21705 0.67202 0.0
H2552 H 0.29825 0.22534 0.68109 0.0
H2553 H 0.24476 0.2185 0.64336 0.0
H2554 H 0.21636 0.15466 0.68805 0.0
H2555 H 0.21486 0.12027 0.7032 0.0
H2556 H 0.196 0.08852 0.65804 0.0
H2557 H 0.19753 0.12267 0.64255 0.0
C2558 C 0.13247 0.18407 0.62946 0.0
C2559 C 0.12107 0.16824 0.61824 0.0
C2560 C 0.1545 0.18778 0.63536 0.0
C2561 C 0.16551 0.17584 0.62997 0.0
C2562 C 0.15441 0.16048 0.61833 0.0
C2563 C 0.13235 0.15685 0.61238 0.0
C2564 C 0.1881 0.17876 0.63712 0.0
C2565 C 0.18836 0.15998 0.64615 0.0
C2566 C 0.20865 0.20011 0.63613 0.0
C2567 C 0.20972 0.22037 0.62609 0.0
C2568 C 0.20433 0.22026 0.60896 0.0
C2569 C 0.20503 0.23929 0.59967 0.0
C2570 C 0.21126 0.25861 0.60732 0.0
C2571 C 0.21688 0.25896 0.62428 0.0
C2572 C 0.21617 0.23996 0.63364 0.0
C2573 C 0.28308 0.17636 0.6652 0.0
C2574 C 0.2965 0.19516 0.67357 0.0
C2575 C 0.26122 0.17246 0.65893 0.0
C2576 C 0.25173 0.18678 0.66147 0.0
C2577 C 0.26505 0.20548 0.67008 0.0
C2578 C 0.28759 0.21001 0.67558 0.0
C2579 C 0.22912 0.18345 0.65382 0.0
C2580 C 0.22882 0.20218 0.64455 0.0
C2581 C 0.20851 0.16198 0.65459 0.0
C2582 C 0.20721 0.14131 0.6641 0.0
C2583 C 0.21199 0.14039 0.68133 0.0
C2584 C 0.2112 0.12095 0.68997 0.0
C2585 C 0.20557 0.10231 0.68159 0.0
C2586 C 0.2005 0.10298 0.66454 0.0
C2587 C 0.20125 0.12235 0.65582 0.0
H2588 H 0.20503 0.08732 0.68832 0.0
H2589 H 0.21179 0.27332 0.6001 0.0
H2590 H 0.77454 0.92883 0.64982 0.0
H2591 H 0.77718 0.96139 0.66207 0.0
H2592 H 0.83618 1.006 0.62639 0.0
H2593 H 0.83363 0.97328 0.61446 0.0
H2594 H 0.84485 0.0201 0.65661 0.0
H2595 H 0.77958 0.99763 0.6203 0.0
H2596 H 0.74143 0.97134 0.60934 0.0
H2597 H 0.70513 0.96065 0.65751 0.0
H2598 H 0.74317 0.98662 0.66884 0.0
H2599 H 0.80064 0.10826 0.65797 0.0
H2600 H 0.79584 0.07343 0.64904 0.0
H2601 H 0.82694 0.061 0.6945 0.0
H2602 H 0.83331 0.09657 0.70295 0.0
H2603 H 0.77319 0.03069 0.65936 0.0
H2604 H 0.8592 0.03541 0.68693 0.0
H2605 H 0.89726 0.06449 0.69617 0.0
H2606 H 0.89332 0.11482 0.66054 0.0
H2607 H 0.8559 0.08604 0.65069 0.0
C2608 C 0.78814 0.94564 0.64479 0.0
C2609 C 0.8039 0.94877 0.63128 0.0
C2610 C 0.7896 0.96421 0.65168 0.0
C2611 C 0.80673 0.98624 0.64506 0.0
C2612 C 0.82284 0.98924 0.63176 0.0
C2613 C 0.82138 0.97065 0.62491 0.0
C2614 C 0.80752 1.00617 0.65165 0.0
C2615 C 0.82914 0.02233 0.65727 0.0
C2616 C 0.78719 0.00943 0.65227 0.0
C2617 C 0.76427 0.99389 0.64547 0.0
C2618 C 0.7635 0.98954 0.6286 0.0
C2619 C 0.74189 0.97471 0.62231 0.0
C2620 C 0.72088 0.96429 0.63274 0.0
C2621 C 0.72143 0.96871 0.64946 0.0
C2622 C 0.74301 0.98348 0.65582 0.0
C2623 C 0.80643 0.09814 0.66615 0.0
C2624 C 0.81745 0.1054 0.68123 0.0
C2625 C 0.80351 0.07806 0.66104 0.0
C2626 C 0.81132 0.06461 0.67093 0.0
C2627 C 0.82118 0.07122 0.68643 0.0
C2628 C 0.82458 0.09155 0.69137 0.0
C2629 C 0.81043 0.0445 0.66451 0.0
C2630 C 0.78883 0.02834 0.65887 0.0
C2631 C 0.83093 0.04153 0.66345 0.0
C2632 C 0.8546 0.0586 0.66823 0.0
C2633 C 0.86667 0.05265 0.68091 0.0
C2634 C 0.88815 0.0691 0.68627 0.0
C2635 C 0.89769 0.09155 0.67902 0.0
C2636 C 0.886 0.0975 0.66619 0.0
C2637 C 0.86472 0.0811 0.66065 0.0
H2638 H 0.9142 0.10432 0.68328 0.0
H2639 H 0.70416 0.95282 0.62785 0.0
H2640 H 0.5612 0.39252 0.74656 0.0
H2641 H 0.53132 0.35796 0.73587 0.0
H2642 H 0.48053 0.38289 0.73486 0.0
H2643 H 0.51038 0.41727 0.74558 0.0
H2644 H 0.48595 0.32488 0.7493 0.0
H2645 H 0.44747 0.36621 0.69987 0.0
H2646 H 0.46067 0.40221 0.68142 0.0
H2647 H 0.5331 0.4139 0.6809 0.0
H2648 H 0.52028 0.37783 0.69912 0.0
H2649 H 0.37372 0.24312 0.72164 0.0
H2650 H 0.40503 0.27697 0.73188 0.0
H2651 H 0.44976 0.29044 0.68704 0.0
H2652 H 0.41902 0.25644 0.67698 0.0
H2653 H 0.44924 0.32879 0.69487 0.0
H2654 H 0.45977 0.26815 0.72265 0.0
H2655 H 0.44731 0.23184 0.74039 0.0
H2656 H 0.43389 0.258 0.7831 0.0
H2657 H 0.44542 0.29426 0.76549 0.0
C2658 C 0.54368 0.39058 0.74392 0.0
C2659 C 0.53808 0.40753 0.74682 0.0
C2660 C 0.52656 0.3708 0.73795 0.0
C2661 C 0.5036 0.36774 0.73449 0.0
C2662 C 0.49809 0.38481 0.73731 0.0
C2663 C 0.51511 0.40444 0.74345 0.0
C2664 C 0.48545 0.34688 0.72779 0.0
C2665 C 0.47789 0.32575 0.73742 0.0
C2666 C 0.47506 0.34785 0.71217 0.0
C2667 C 0.48293 0.36942 0.701 0.0
C2668 C 0.46619 0.37642 0.69576 0.0
C2669 C 0.47361 0.39684 0.68535 0.0
C2670 C 0.49772 0.41037 0.68003 0.0
C2671 C 0.51445 0.40345 0.68507 0.0
C2672 C 0.50712 0.38303 0.69546 0.0
C2673 C 0.39015 0.25329 0.71388 0.0
C2674 C 0.39353 0.24703 0.69829 0.0
C2675 C 0.40811 0.27266 0.7198 0.0
C2676 C 0.42986 0.28633 0.71026 0.0
C2677 C 0.43314 0.28032 0.69462 0.0
C2678 C 0.41536 0.26084 0.6888 0.0
C2679 C 0.44929 0.30681 0.71656 0.0
C2680 C 0.45716 0.32789 0.70681 0.0
C2681 C 0.46003 0.30571 0.73202 0.0
C2682 C 0.45321 0.2839 0.74266 0.0
C2683 C 0.45387 0.26611 0.73576 0.0
C2684 C 0.44697 0.24551 0.7458 0.0
C2685 C 0.43984 0.24262 0.76285 0.0
C2686 C 0.43944 0.26027 0.76988 0.0
C2687 C 0.44608 0.28083 0.75986 0.0
H2688 H 0.43468 0.2267 0.77061 0.0
H2689 H 0.50343 0.42618 0.67199 0.0
H2690 H 0.6481 0.19108 0.78029 0.0
H2691 H 0.67685 0.18044 0.76994 0.0
H2692 H 0.63924 0.16463 0.72403 0.0
H2693 H 0.60866 0.17159 0.73568 0.0
H2694 H 0.65493 0.13913 0.72835 0.0
H2695 H 0.69669 0.22045 0.72948 0.0
H2696 H 0.71095 0.25497 0.74314 0.0
H2697 H 0.74649 0.2309 0.77912 0.0
H2698 H 0.7321 0.19611 0.76582 0.0
H2699 H 0.79024 0.19008 0.69461 0.0
H2700 H 0.75604 0.19432 0.70281 0.0
H2701 H 0.71893 0.12427 0.72423 0.0
H2702 H 0.7522 0.11959 0.71449 0.0
H2703 H 0.74085 0.19297 0.73162 0.0
H2704 H 0.66085 0.10327 0.73037 0.0
H2705 H 0.64691 0.07231 0.71285 0.0
H2706 H 0.68746 0.11925 0.66958 0.0
H2707 H 0.70157 0.15056 0.68682 0.0
C2708 C 0.64581 0.18486 0.76817 0.0
C2709 C 0.62672 0.18308 0.75846 0.0
C2710 C 0.66252 0.17922 0.76206 0.0
C2711 C 0.66108 0.17277 0.74575 0.0
C2712 C 0.64122 0.16989 0.73651 0.0
C2713 C 0.62395 0.1744 0.743 0.0
C2714 C 0.68027 0.16949 0.738 0.0
C2715 C 0.6737 0.15102 0.72902 0.0
C2716 C 0.70488 0.18499 0.7386 0.0
C2717 C 0.71334 0.20575 0.74669 0.0
C2718 C 0.70747 0.22252 0.74035 0.0
C2719 C 0.71553 0.2421 0.74804 0.0
C2720 C 0.72955 0.24509 0.76202 0.0
C2721 C 0.73552 0.2285 0.76835 0.0
C2722 C 0.72745 0.20888 0.76073 0.0
C2723 C 0.77437 0.17535 0.70027 0.0
C2724 C 0.77368 0.15435 0.70349 0.0
C2725 C 0.75489 0.17786 0.70526 0.0
C2726 C 0.73467 0.1596 0.71409 0.0
C2727 C 0.73387 0.13852 0.71702 0.0
C2728 C 0.753 0.13587 0.71154 0.0
C2729 C 0.71545 0.16301 0.72154 0.0
C2730 C 0.72206 0.18129 0.7307 0.0
C2731 C 0.69085 0.14789 0.72045 0.0
C2732 C 0.68241 0.12922 0.70993 0.0
C2733 C 0.66674 0.107 0.71711 0.0
C2734 C 0.65886 0.0894 0.70723 0.0
C2735 C 0.6664 0.09382 0.69013 0.0
C2736 C 0.68179 0.11587 0.68286 0.0
C2737 C 0.68977 0.13354 0.69268 0.0
H2738 H 0.66027 0.08017 0.68251 0.0
H2739 H 0.73583 0.26028 0.76793 0.0
H2740 H 0.92013 0.49318 0.75732 0.0
H2741 H 0.91711 0.52771 0.74947 0.0
H2742 H 0.84276 0.4875 0.74001 0.0
H2743 H 0.84562 0.45311 0.74839 0.0
H2744 H 0.87022 0.52146 0.71306 0.0
H2745 H 0.85664 0.5129 0.77378 0.0
H2746 H 0.86784 0.50873 0.80309 0.0
H2747 H 0.93132 0.57283 0.79324 0.0
H2748 H 0.92076 0.57717 0.76373 0.0
H2749 H 0.8295 0.60012 0.69798 0.0
H2750 H 0.83562 0.5686 0.70911 0.0
H2751 H 0.90257 0.61434 0.72826 0.0
H2752 H 0.89585 0.64609 0.71781 0.0
H2753 H 0.88228 0.57903 0.75026 0.0
H2754 H 0.89951 0.58841 0.69088 0.0
H2755 H 0.89345 0.5931 0.66041 0.0
H2756 H 0.82886 0.52961 0.66654 0.0
H2757 H 0.83457 0.52452 0.69707 0.0
C2758 C 0.90307 0.4918 0.75391 0.0
C2759 C 0.8831 0.47053 0.7534 0.0
C2760 C 0.90137 0.51148 0.74935 0.0
C2761 C 0.87971 0.51018 0.74411 0.0
C2762 C 0.85967 0.48892 0.74392 0.0
C2763 C 0.86131 0.46931 0.74867 0.0
C2764 C 0.87799 0.53085 0.73809 0.0
C2765 C 0.87257 0.53392 0.72125 0.0
C2766 C 0.88206 0.54756 0.74858 0.0
C2767 C 0.88802 0.54526 0.76647 0.0
C2768 C 0.87308 0.52604 0.77781 0.0
C2769 C 0.87931 0.52364 0.79447 0.0
C2770 C 0.90032 0.54047 0.80002 0.0
C2771 C 0.91507 0.55979 0.78892 0.0
C2772 C 0.90897 0.56223 0.77222 0.0
C2773 C 0.84561 0.60357 0.7045 0.0
C2774 C 0.86233 0.62572 0.70682 0.0
C2775 C 0.84917 0.58545 0.71082 0.0
C2776 C 0.86989 0.58897 0.71921 0.0
C2777 C 0.88649 0.61108 0.72178 0.0
C2778 C 0.88269 0.62926 0.71572 0.0
C2779 C 0.87404 0.56952 0.7252 0.0
C2780 C 0.87999 0.56665 0.74202 0.0
C2781 C 0.87102 0.55316 0.71458 0.0
C2782 C 0.86739 0.55617 0.69627 0.0
C2783 C 0.88396 0.5755 0.68574 0.0
C2784 C 0.88063 0.57819 0.66846 0.0
C2785 C 0.86078 0.56166 0.66155 0.0
C2786 C 0.84425 0.54238 0.67191 0.0
C2787 C 0.84757 0.53954 0.68919 0.0
H2788 H 0.85819 0.56382 0.64817 0.0
H2789 H 0.90513 0.53857 0.81291 0.0
H2790 H 0.42998 0.83771 0.23452 0.0
H2791 H 0.45466 0.86363 0.21003 0.0
H2792 H 0.49856 0.91132 0.24321 0.0
H2793 H 0.47247 0.88603 0.26749 0.0
H2794 H 0.48691 0.93199 0.21955 0.0
H2795 H 0.52042 0.88328 0.21924 0.0
H2796 H 0.51849 0.84606 0.22162 0.0
H2797 H 0.47979 0.83202 0.17647 0.0
H2798 H 0.48128 0.86907 0.17389 0.0
H2799 H 0.55743 1.00477 0.14676 0.0
H2800 H 0.54863 0.97784 0.17228 0.0
H2801 H 0.48571 0.9294 0.15075 0.0
H2802 H 0.49355 0.95645 0.12556 0.0
H2803 H 0.51458 0.9113 0.16971 0.0
H2804 H 0.4765 0.95829 0.17415 0.0
H2805 H 0.47739 0.99496 0.17333 0.0
H2806 H 0.52744 0.01262 0.21237 0.0
H2807 H 0.52712 0.97615 0.21321 0.0
C2808 C 0.44511 0.85362 0.2365 0.0
C2809 C 0.44943 0.85993 0.25278 0.0
C2810 C 0.4594 0.86835 0.22256 0.0
C2811 C 0.47873 0.88942 0.22473 0.0
C2812 C 0.48381 0.89518 0.24118 0.0
C2813 C 0.46915 0.88062 0.25508 0.0
C2814 C 0.49187 0.9062 0.20974 0.0
C2815 C 0.49353 0.92759 0.20887 0.0
C2816 C 0.50034 0.90053 0.19565 0.0
C2817 C 0.50083 0.8789 0.19643 0.0
C2818 C 0.51154 0.87227 0.20979 0.0
C2819 C 0.5105 0.8512 0.21119 0.0
C2820 C 0.49892 0.83666 0.19926 0.0
C2821 C 0.48874 0.84331 0.18571 0.0
C2822 C 0.48974 0.86438 0.18424 0.0
C2823 C 0.5417 0.98841 0.1474 0.0
C2824 C 0.52605 0.98297 0.13411 0.0
C2825 C 0.53689 0.97296 0.16193 0.0
C2826 C 0.51653 0.9517 0.16335 0.0
C2827 C 0.50164 0.94569 0.14978 0.0
C2828 C 0.50622 0.96121 0.13536 0.0
C2829 C 0.50918 0.9367 0.17963 0.0
C2830 C 0.50853 0.91573 0.18065 0.0
C2831 C 0.502 0.94285 0.194 0.0
C2832 C 0.50202 0.96465 0.19359 0.0
C2833 C 0.48786 0.97009 0.18244 0.0
C2834 C 0.48823 0.99081 0.182 0.0
C2835 C 0.50253 1.00614 0.19275 0.0
C2836 C 0.51642 1.00075 0.20401 0.0
C2837 C 0.51615 0.98006 0.20448 0.0
H2838 H 0.50278 0.02218 0.19239 0.0
H2839 H 0.49773 0.8202 0.20057 0.0
H2840 H 0.08799 0.53453 0.26461 0.0
H2841 H 0.07167 0.52071 0.23775 0.0
H2842 H 0.13278 0.5772 0.21022 0.0
H2843 H 0.14942 0.59035 0.23702 0.0
H2844 H 0.08884 0.57339 0.2001 0.0
H2845 H 0.12801 0.5298 0.20794 0.0
H2846 H 0.14066 0.50331 0.2219 0.0
H2847 H 0.06809 0.44989 0.22535 0.0
H2848 H 0.05487 0.47622 0.21177 0.0
H2849 H 0.05094 0.54282 0.11908 0.0
H2850 H 0.07592 0.55188 0.14331 0.0
H2851 H 0.02103 0.49323 0.17384 0.0
H2852 H 0.9964 0.48354 0.14947 0.0
H2853 H 0.06492 0.49907 0.18134 0.0
H2854 H 0.02687 0.54654 0.17474 0.0
H2855 H 0.01732 0.57394 0.15828 0.0
H2856 H 0.09212 0.62147 0.15038 0.0
H2857 H 0.10213 0.59425 0.16669 0.0
C2858 C 0.09822 0.54348 0.25282 0.0
C2859 C 0.11978 0.56361 0.25279 0.0
C2860 C 0.08887 0.53572 0.2375 0.0
C2861 C 0.10086 0.54812 0.22195 0.0
C2862 C 0.12308 0.5675 0.22202 0.0
C2863 C 0.13258 0.57499 0.2373 0.0
C2864 C 0.08938 0.54194 0.20569 0.0
C2865 C 0.08391 0.55724 0.1959 0.0
C2866 C 0.08279 0.52086 0.20022 0.0
C2867 C 0.0904 0.50507 0.209 0.0
C2868 C 0.11466 0.51249 0.21192 0.0
C2869 C 0.12196 0.49749 0.21972 0.0
C2870 C 0.1052 0.47495 0.22451 0.0
C2871 C 0.08106 0.46738 0.22164 0.0
C2872 C 0.07364 0.48235 0.21391 0.0
C2873 C 0.04432 0.53162 0.13083 0.0
C2874 C 0.02141 0.51265 0.13229 0.0
C2875 C 0.05857 0.53693 0.14477 0.0
C2876 C 0.05019 0.5235 0.16056 0.0
C2877 C 0.02785 0.50398 0.16186 0.0
C2878 C 0.01364 0.49861 0.14791 0.0
C2879 C 0.06401 0.53035 0.17593 0.0
C2880 C 0.06988 0.5152 0.18557 0.0
C2881 C 0.07128 0.55172 0.18117 0.0
C2882 C 0.06524 0.56833 0.17184 0.0
C2883 C 0.04128 0.56282 0.16947 0.0
C2884 C 0.03578 0.57832 0.16017 0.0
C2885 C 0.0541 0.59943 0.15329 0.0
C2886 C 0.07796 0.60512 0.15574 0.0
C2887 C 0.08355 0.58969 0.16503 0.0
H2888 H 0.04982 0.61138 0.14606 0.0
H2889 H 0.111 0.46334 0.23035 0.0
H2890 H 0.43465 0.58389 0.24106 0.0
H2891 H 0.43677 0.56937 0.21459 0.0
H2892 H 0.45872 0.52453 0.24209 0.0
H2893 H 0.4561 0.53883 0.26853 0.0
H2894 H 0.49066 0.55561 0.21347 0.0
H2895 H 0.40631 0.50421 0.22778 0.0
H2896 H 0.36443 0.49507 0.23372 0.0
H2897 H 0.36372 0.52775 0.18452 0.0
H2898 H 0.40582 0.53788 0.1785 0.0
H2899 H 0.50039 0.49253 0.15453 0.0
H2900 H 0.49138 0.50685 0.17832 0.0
H2901 H 0.44923 0.52904 0.14718 0.0
H2902 H 0.4566 0.51284 0.12344 0.0
H2903 H 0.42682 0.51281 0.17602 0.0
H2904 H 0.50661 0.56652 0.16035 0.0
H2905 H 0.54926 0.58171 0.15199 0.0
H2906 H 0.55999 0.55306 0.2 0.0
H2907 H 0.5173 0.53736 0.20857 0.0
C2908 C 0.43907 0.57036 0.24143 0.0
C2909 C 0.44484 0.56215 0.25675 0.0
C2910 C 0.44044 0.56218 0.22635 0.0
C2911 C 0.44795 0.54588 0.22634 0.0
C2912 C 0.45283 0.53706 0.2418 0.0
C2913 C 0.4511 0.54501 0.2569 0.0
C2914 C 0.45285 0.53949 0.21013 0.0
C2915 C 0.47668 0.54597 0.20538 0.0
C2916 C 0.43476 0.52819 0.19904 0.0
C2917 C 0.40939 0.52204 0.20276 0.0
C2918 C 0.39735 0.50972 0.21831 0.0
C2919 C 0.37356 0.50432 0.22168 0.0
C2920 C 0.36144 0.51078 0.20951 0.0
C2921 C 0.37313 0.52276 0.19395 0.0
C2922 C 0.39698 0.52839 0.19057 0.0
C2923 C 0.48896 0.50019 0.15266 0.0
C2924 C 0.47901 0.50116 0.13696 0.0
C2925 C 0.48412 0.5088 0.16632 0.0
C2926 C 0.46988 0.51945 0.16465 0.0
C2927 C 0.4603 0.52096 0.1489 0.0
C2928 C 0.4648 0.51192 0.13521 0.0
C2929 C 0.46468 0.52831 0.17956 0.0
C2930 C 0.44089 0.5225 0.18403 0.0
C2931 C 0.48291 0.54114 0.19008 0.0
C2932 C 0.50867 0.5506 0.18505 0.0
C2933 C 0.51802 0.56331 0.16909 0.0
C2934 C 0.54221 0.57203 0.16432 0.0
C2935 C 0.55732 0.56832 0.17545 0.0
C2936 C 0.54826 0.55591 0.19139 0.0
C2937 C 0.52407 0.54711 0.19622 0.0
H2938 H 0.57605 0.57508 0.17173 0.0
H2939 H 0.34298 0.50647 0.21213 0.0
H2940 H 0.93918 0.45975 0.77959 0.0
H2941 H 0.95487 0.47499 0.80594 0.0
H2942 H 0.8879 0.47258 0.81869 0.0
H2943 H 0.87219 0.45718 0.79209 0.0
H2944 H 0.92986 0.51129 0.82838 0.0
H2945 H 0.89412 0.43086 0.83589 0.0
H2946 H 0.8864 0.39406 0.82827 0.0
H2947 H 0.96078 0.41314 0.83174 0.0
H2948 H 0.96899 0.45016 0.83924 0.0
H2949 H 0.96607 0.52006 0.91463 0.0
H2950 H 0.94171 0.50708 0.89025 0.0
H2951 H 0.99641 0.49645 0.86794 0.0
H2952 H 0.02037 0.50879 0.89228 0.0
H2953 H 0.95347 0.46203 0.86521 0.0
H2954 H 0.9897 0.54323 0.85581 0.0
H2955 H 0.99801 0.58057 0.86255 0.0
H2956 H 0.92322 0.56076 0.862 0.0
H2957 H 0.91435 0.52307 0.85565 0.0
C2958 C 0.92804 0.46289 0.78791 0.0
C2959 C 0.90448 0.45711 0.78404 0.0
C2960 C 0.93693 0.47154 0.80293 0.0
C2961 C 0.92238 0.47449 0.81444 0.0
C2962 C 0.89936 0.4703 0.81003 0.0
C2963 C 0.89042 0.46158 0.79489 0.0
C2964 C 0.93077 0.47993 0.83157 0.0
C2965 C 0.9346 0.50037 0.83663 0.0
C2966 C 0.9371 0.46572 0.84225 0.0
C2967 C 0.93218 0.44333 0.83804 0.0
C2968 C 0.90885 0.42724 0.83496 0.0
C2969 C 0.90438 0.40633 0.83069 0.0
C2970 C 0.92309 0.40128 0.82949 0.0
C2971 C 0.9463 0.41709 0.83266 0.0
C2972 C 0.95086 0.43801 0.83697 0.0
C2973 C 0.97273 0.51469 0.90461 0.0
C2974 C 0.99526 0.51561 0.90535 0.0
C2975 C 0.9589 0.50749 0.89061 0.0
C2976 C 0.96733 0.50103 0.87713 0.0
C2977 C 0.98952 0.50141 0.87812 0.0
C2978 C 1.0033 0.50862 0.89201 0.0
C2979 C 0.9534 0.49381 0.86189 0.0
C2980 C 0.9484 0.47288 0.85717 0.0
C2981 C 0.94604 0.50761 0.8516 0.0
C2982 C 0.95133 0.5302 0.85553 0.0
C2983 C 0.97498 0.54672 0.85734 0.0
C2984 C 0.97979 0.56796 0.86107 0.0
C2985 C 0.96112 0.57297 0.86281 0.0
C2986 C 0.93761 0.55678 0.86077 0.0
C2987 C 0.93269 0.53547 0.85711 0.0
H2988 H 0.96489 0.58944 0.86567 0.0
H2989 H 0.91961 0.38511 0.82612 0.0
H2990 H 0.55345 0.48026 0.77774 0.0
H2991 H 0.55132 0.49205 0.80539 0.0
H2992 H 0.59435 0.46258 0.82552 0.0
H2993 H 0.59669 0.45118 0.79766 0.0
H2994 H 0.55231 0.44786 0.84513 0.0
H2995 H 0.61772 0.51772 0.82125 0.0
H2996 H 0.63948 0.5505 0.79951 0.0
H2997 H 0.58539 0.57015 0.80502 0.0
H2998 H 0.56306 0.53725 0.82659 0.0
H2999 H 0.56383 0.52225 0.91653 0.0
H3000 H 0.58037 0.51513 0.89144 0.0
H3001 H 0.50887 0.47267 0.87714 0.0
H3002 H 0.49243 0.47998 0.90191 0.0
H3003 H 0.57261 0.52474 0.85666 0.0
H3004 H 0.50936 0.42866 0.86076 0.0
H3005 H 0.48808 0.39618 0.8829 0.0
H3006 H 0.54119 0.42966 0.91776 0.0
H3007 H 0.56296 0.46216 0.8958 0.0
C3008 C 0.56315 0.47712 0.78795 0.0
C3009 C 0.57571 0.46536 0.78558 0.0
C3010 C 0.56181 0.48367 0.80376 0.0
C3011 C 0.5727 0.47824 0.81759 0.0
C3012 C 0.58586 0.46702 0.81506 0.0
C3013 C 0.58747 0.46077 0.79915 0.0
C3014 C 0.56885 0.48293 0.83483 0.0
C3015 C 0.55693 0.4647 0.84766 0.0
C3016 C 0.57511 0.50491 0.83828 0.0
C3017 C 0.58863 0.52491 0.82547 0.0
C3018 C 0.61037 0.52894 0.81775 0.0
C3019 C 0.62282 0.54755 0.80546 0.0
C3020 C 0.6138 0.56238 0.80087 0.0
C3021 C 0.59234 0.55864 0.80859 0.0
C3022 C 0.57979 0.54002 0.82086 0.0
C3023 C 0.55173 0.51114 0.90814 0.0
C3024 C 0.52686 0.50161 0.91118 0.0
C3025 C 0.56116 0.50724 0.89375 0.0
C3026 C 0.54587 0.49335 0.88239 0.0
C3027 C 0.52104 0.48334 0.88573 0.0
C3028 C 0.51166 0.48751 0.8999 0.0
C3029 C 0.55552 0.48962 0.86674 0.0
C3030 C 0.56834 0.50797 0.85418 0.0
C3031 C 0.55025 0.46777 0.86356 0.0
C3032 C 0.53768 0.44793 0.87666 0.0
C3033 C 0.51659 0.42902 0.87311 0.0
C3034 C 0.50442 0.41062 0.88564 0.0
C3035 C 0.51324 0.41091 0.90174 0.0
C3036 C 0.53434 0.4295 0.90531 0.0
C3037 C 0.54658 0.44792 0.89284 0.0
H3038 H 0.50376 0.39676 0.91145 0.0
H3039 H 0.62346 0.57678 0.79135 0.0
H3040 H 0.61987 0.1909 0.80898 0.0
H3041 H 0.61047 0.16189 0.83352 0.0
H3042 H 0.56596 0.11064 0.8031 0.0
H3043 H 0.5759 0.13967 0.77858 0.0
H3044 H 0.54367 0.11726 0.83351 0.0
H3045 H 0.60966 0.10686 0.81532 0.0
H3046 H 0.65198 0.11977 0.80728 0.0
H3047 H 0.67202 0.14177 0.85596 0.0
H3048 H 0.62984 0.12935 0.86419 0.0
H3049 H 0.49531 0.02046 0.89264 0.0
H3050 H 0.51434 0.0481 0.86784 0.0
H3051 H 0.5743 0.08715 0.89665 0.0
H3052 H 0.55636 0.0585 0.92119 0.0
H3053 H 0.59083 0.08818 0.86732 0.0
H3054 H 0.52978 0.10327 0.88588 0.0
H3055 H 0.4896 0.09601 0.89514 0.0
H3056 H 0.46245 0.07117 0.84832 0.0
H3057 H 0.50256 0.07846 0.83868 0.0
C3058 C 0.60896 0.17331 0.80749 0.0
C3059 C 0.59876 0.16723 0.79206 0.0
C3060 C 0.60353 0.15683 0.82142 0.0
C3061 C 0.58754 0.1342 0.82005 0.0
C3062 C 0.57846 0.12803 0.80432 0.0
C3063 C 0.58421 0.14446 0.79037 0.0
C3064 C 0.5775 0.1176 0.83541 0.0
C3065 C 0.5538 0.11057 0.84078 0.0
C3066 C 0.59124 0.10993 0.84526 0.0
C3067 C 0.61659 0.11736 0.84031 0.0
C3068 C 0.62311 0.11467 0.82425 0.0
C3069 C 0.64707 0.12185 0.81967 0.0
C3070 C 0.66466 0.1316 0.8311 0.0
C3071 C 0.65835 0.13422 0.84712 0.0
C3072 C 0.63442 0.12709 0.85175 0.0
C3073 C 0.51272 0.03469 0.89372 0.0
C3074 C 0.5242 0.0371 0.90904 0.0
C3075 C 0.52344 0.05076 0.87953 0.0
C3076 C 0.54559 0.07001 0.8804 0.0
C3077 C 0.55716 0.07251 0.89564 0.0
C3078 C 0.54666 0.05621 0.90977 0.0
C3079 C 0.55663 0.08736 0.86535 0.0
C3080 C 0.58057 0.09473 0.86007 0.0
C3081 C 0.54336 0.09598 0.8558 0.0
C3082 C 0.51911 0.09119 0.86163 0.0
C3083 C 0.5152 0.09609 0.87761 0.0
C3084 C 0.49245 0.092 0.88292 0.0
C3085 C 0.47343 0.08296 0.8724 0.0
C3086 C 0.47718 0.07812 0.85648 0.0
C3087 C 0.49994 0.0823 0.85106 0.0
H3088 H 0.45583 0.0798 0.87655 0.0
H3089 H 0.68316 0.13703 0.82758 0.0
H3090 H 0.09747 0.15615 0.5677 0.0
H3091 H 0.1209 0.18224 0.5425 0.0
H3092 H 0.14739 0.23752 0.57213 0.0
H3093 H 0.12423 0.21138 0.5972 0.0
H3094 H 0.11912 0.2387 0.54265 0.0
H3095 H 0.18671 0.22864 0.55918 0.0
H3096 H 0.20686 0.20602 0.56719 0.0
H3097 H 0.19194 0.1801 0.51946 0.0
H3098 H 0.17167 0.20256 0.51123 0.0
H3099 H 0.21451 0.32723 0.47984 0.0
H3100 H 0.20376 0.29742 0.50374 0.0
H3101 H 0.13778 0.25628 0.4814 0.0
H3102 H 0.14811 0.28595 0.4577 0.0
H3103 H 0.18796 0.248 0.50725 0.0
H3104 H 0.09511 0.23947 0.51324 0.0
H3105 H 0.07402 0.26105 0.50452 0.0
H3106 H 0.13852 0.32297 0.5075 0.0
H3107 H 0.15986 0.30174 0.51646 0.0
C3108 C 0.10899 0.17377 0.56881 0.0
C3109 C 0.10934 0.18196 0.58419 0.0
C3110 C 0.12229 0.18859 0.55452 0.0
C3111 C 0.13581 0.21174 0.55553 0.0
C3112 C 0.13714 0.21969 0.57117 0.0
C3113 C 0.12408 0.20485 0.58543 0.0
C3114 C 0.14558 0.22798 0.53998 0.0
C3115 C 0.13421 0.24076 0.53495 0.0
C3116 C 0.16506 0.2304 0.52989 0.0
C3117 C 0.1775 0.21712 0.53468 0.0
C3118 C 0.18762 0.21801 0.55046 0.0
C3119 C 0.19914 0.20528 0.555 0.0
C3120 C 0.20071 0.19164 0.54382 0.0
C3121 C 0.1908 0.19075 0.52807 0.0
C3122 C 0.17935 0.20351 0.52346 0.0
C3123 C 0.19776 0.3118 0.47998 0.0
C3124 C 0.18194 0.30916 0.46699 0.0
C3125 C 0.19184 0.29468 0.4935 0.0
C3126 C 0.16997 0.27476 0.49431 0.0
C3127 C 0.15476 0.27157 0.48097 0.0
C3128 C 0.16068 0.2886 0.46745 0.0
C3129 C 0.16152 0.25873 0.51006 0.0
C3130 C 0.17292 0.24591 0.51502 0.0
C3131 C 0.14191 0.25608 0.52013 0.0
C3132 C 0.12909 0.26903 0.51539 0.0
C3133 C 0.10473 0.25769 0.51214 0.0
C3134 C 0.09275 0.26985 0.50713 0.0
C3135 C 0.10494 0.29337 0.50542 0.0
C3136 C 0.12911 0.30476 0.50879 0.0
C3137 C 0.14116 0.29267 0.51382 0.0
H3138 H 0.09565 0.30276 0.5015 0.0
H3139 H 0.20962 0.18178 0.54735 0.0
H3140 H 0.74724 0.88489 0.59713 0.0
H3141 H 0.73256 0.87144 0.57011 0.0
H3142 H 0.80336 0.885 0.55415 0.0
H3143 H 0.81805 0.89896 0.58135 0.0
H3144 H 0.78445 0.9015 0.52951 0.0
H3145 H 0.75848 0.83103 0.56323 0.0
H3146 H 0.73984 0.80231 0.58813 0.0
H3147 H 0.67194 0.79894 0.57854 0.0
H3148 H 0.69025 0.82795 0.55375 0.0
H3149 H 0.72874 0.84525 0.45585 0.0
H3150 H 0.75215 0.85653 0.48091 0.0
H3151 H 0.69223 0.85537 0.50675 0.0
H3152 H 0.66917 0.84491 0.48181 0.0
H3153 H 0.71058 0.82978 0.52521 0.0
H3154 H 0.73876 0.90405 0.49367 0.0
H3155 H 0.75786 0.93293 0.46887 0.0
H3156 H 0.82231 0.92802 0.47416 0.0
H3157 H 0.80349 0.89892 0.49889 0.0
C3158 C 0.75947 0.88454 0.58795 0.0
C3159 C 0.78365 0.89276 0.59125 0.0
C3160 C 0.75115 0.87687 0.57251 0.0
C3161 C 0.76679 0.87704 0.56005 0.0
C3162 C 0.79093 0.88467 0.56354 0.0
C3163 C 0.79927 0.89238 0.57909 0.0
C3164 C 0.75782 0.87016 0.54323 0.0
C3165 C 0.76861 0.88559 0.52853 0.0
C3166 C 0.73701 0.8495 0.54187 0.0
C3167 C 0.72579 0.83178 0.55665 0.0
C3168 C 0.7396 0.82427 0.56648 0.0
C3169 C 0.72909 0.80793 0.58057 0.0
C3170 C 0.70472 0.79882 0.58492 0.0
C3171 C 0.69081 0.80601 0.57515 0.0
C3172 C 0.70124 0.82239 0.56106 0.0
C3173 C 0.72073 0.84784 0.46675 0.0
C3174 C 0.69689 0.8438 0.46686 0.0
C3175 C 0.73409 0.85418 0.4811 0.0
C3176 C 0.72383 0.85654 0.49579 0.0
C3177 C 0.70042 0.85336 0.49566 0.0
C3178 C 0.68722 0.84727 0.48137 0.0
C3179 C 0.73677 0.86137 0.51166 0.0
C3180 C 0.72668 0.8455 0.52618 0.0
C3181 C 0.75827 0.88151 0.51278 0.0
C3182 C 0.76961 0.89908 0.49798 0.0
C3183 C 0.75693 0.90898 0.48945 0.0
C3184 C 0.76772 0.92542 0.47543 0.0
C3185 C 0.79123 0.93221 0.46989 0.0
C3186 C 0.80407 0.92269 0.47843 0.0
C3187 C 0.79336 0.90624 0.49246 0.0
H3188 H 0.79952 0.94486 0.45899 0.0
H3189 H 0.69662 0.78618 0.59584 0.0
H3190 H 0.10525 0.86547 0.60387 0.0
H3191 H 0.1048 0.84828 0.57837 0.0
H3192 H 0.11572 0.90899 0.54723 0.0
H3193 H 0.11453 0.9254 0.57266 0.0
H3194 H 0.09037 0.87603 0.53093 0.0
H3195 H 0.16315 0.89752 0.55977 0.0
H3196 H 0.18728 0.89757 0.58404 0.0
H3197 H 0.15988 0.82625 0.58581 0.0
H3198 H 0.13534 0.82575 0.56166 0.0
H3199 H 0.15449 0.87014 0.45891 0.0
H3200 H 0.14075 0.88017 0.48365 0.0
H3201 H 0.12252 0.81522 0.51112 0.0
H3202 H 0.13596 0.80508 0.48652 0.0
H3203 H 0.14939 0.84829 0.52934 0.0
H3204 H 0.07937 0.82893 0.49756 0.0
H3205 H 0.05748 0.83119 0.47247 0.0
H3206 H 0.08248 0.90138 0.47513 0.0
H3207 H 0.10482 0.89963 0.5001 0.0
C3208 C 0.10678 0.87479 0.59157 0.0
C3209 C 0.11028 0.89689 0.59022 0.0
C3210 C 0.10687 0.86512 0.57696 0.0
C3211 C 0.11102 0.87756 0.56075 0.0
C3212 C 0.11273 0.89902 0.55947 0.0
C3213 C 0.11221 0.90848 0.57402 0.0
C3214 C 0.11545 0.8692 0.54526 0.0
C3215 C 0.10339 0.87009 0.53059 0.0
C3216 C 0.13231 0.86125 0.54465 0.0
C3217 C 0.14725 0.86156 0.55903 0.0
C3218 C 0.1622 0.88184 0.56539 0.0
C3219 C 0.17594 0.88195 0.57912 0.0
C3220 C 0.17508 0.86192 0.58649 0.0
C3221 C 0.16051 0.84175 0.58011 0.0
C3222 C 0.14668 0.84154 0.5664 0.0
C3223 C 0.1471 0.85783 0.47009 0.0
C3224 C 0.14661 0.83689 0.47074 0.0
C3225 C 0.13928 0.8636 0.48427 0.0
C3226 C 0.13062 0.84848 0.49935 0.0
C3227 C 0.12929 0.82728 0.49975 0.0
C3228 C 0.13706 0.82152 0.48564 0.0
C3229 C 0.12431 0.85509 0.51504 0.0
C3230 C 0.13617 0.85399 0.52973 0.0
C3231 C 0.10758 0.86316 0.51553 0.0
C3232 C 0.09394 0.86418 0.50063 0.0
C3233 C 0.08034 0.84489 0.49273 0.0
C3234 C 0.06783 0.84607 0.47854 0.0
C3235 C 0.06862 0.86642 0.47219 0.0
C3236 C 0.08189 0.88563 0.48005 0.0
C3237 C 0.09446 0.88454 0.49424 0.0
H3238 H 0.05893 0.8673 0.4612 0.0
H3239 H 0.18573 0.86203 0.59712 0.0
H3240 H 0.53727 0.76183 0.13494 0.0
H3241 H 0.55334 0.77518 0.16185 0.0
H3242 H 0.61803 0.82766 0.13488 0.0
H3243 H 0.60202 0.81376 0.10806 0.0
H3244 H 0.6261 0.80206 0.16146 0.0
H3245 H 0.57572 0.83883 0.15323 0.0
H3246 H 0.53583 0.83538 0.14815 0.0
H3247 H 0.50656 0.78865 0.19354 0.0
H3248 H 0.54612 0.79178 0.19885 0.0
H3249 H 0.68945 0.86866 0.22228 0.0
H3250 H 0.66751 0.85232 0.19832 0.0
H3251 H 0.60239 0.81605 0.23018 0.0
H3252 H 0.62391 0.83446 0.25405 0.0
H3253 H 0.59086 0.82876 0.20282 0.0
H3254 H 0.63444 0.7901 0.21408 0.0
H3255 H 0.66861 0.7836 0.22061 0.0
H3256 H 0.70438 0.82113 0.1729 0.0
H3257 H 0.67055 0.82816 0.16617 0.0
C3258 C 0.55461 0.77661 0.13483 0.0
C3259 C 0.56827 0.78713 0.11952 0.0
C3260 C 0.56383 0.78418 0.15015 0.0
C3261 C 0.58687 0.80253 0.1504 0.0
C3262 C 0.60019 0.81354 0.13499 0.0
C3263 C 0.59094 0.80588 0.11967 0.0
C3264 C 0.59771 0.8094 0.16673 0.0
C3265 C 0.61868 0.80828 0.1704 0.0
C3266 C 0.58705 0.81592 0.17893 0.0
C3267 C 0.56382 0.81552 0.17639 0.0
C3268 C 0.56077 0.82796 0.16215 0.0
C3269 C 0.53825 0.82603 0.15923 0.0
C3270 C 0.51872 0.8118 0.17049 0.0
C3271 C 0.52171 0.79968 0.18483 0.0
C3272 C 0.54418 0.8016 0.18784 0.0
C3273 C 0.67039 0.85753 0.22429 0.0
C3274 C 0.65856 0.85328 0.24025 0.0
C3275 C 0.65786 0.84773 0.21051 0.0
C3276 C 0.63324 0.83251 0.21234 0.0
C3277 C 0.62137 0.8277 0.22834 0.0
C3278 C 0.63383 0.83803 0.2421 0.0
C3279 C 0.62007 0.82242 0.19735 0.0
C3280 C 0.59851 0.82267 0.19395 0.0
C3281 C 0.62955 0.81398 0.18574 0.0
C3282 C 0.65 0.80981 0.18967 0.0
C3283 C 0.64966 0.79711 0.20502 0.0
C3284 C 0.66896 0.79331 0.20876 0.0
C3285 C 0.68868 0.80198 0.19719 0.0
C3286 C 0.6891 0.81443 0.18185 0.0
C3287 C 0.66985 0.81831 0.17806 0.0
H3288 H 0.70361 0.79902 0.20011 0.0
H3289 H 0.50127 0.81015 0.16811 0.0
H3290 H 0.2656 0.796 0.12876 0.0
H3291 H 0.26265 0.80843 0.15608 0.0
H3292 H 0.20475 0.81984 0.1385 0.0
H3293 H 0.20822 0.80792 0.11133 0.0
H3294 H 0.23 0.85055 0.15733 0.0
H3295 H 0.19607 0.76993 0.16271 0.0
H3296 H 0.19652 0.73422 0.1612 0.0
H3297 H 0.2507 0.75144 0.19733 0.0
H3298 H 0.25083 0.78746 0.19885 0.0
H3299 H 0.15528 0.83006 0.22877 0.0
H3300 H 0.17161 0.82352 0.20375 0.0
H3301 H 0.23465 0.83329 0.22965 0.0
H3302 H 0.21876 0.84079 0.2548 0.0
H3303 H 0.21354 0.79494 0.20832 0.0
H3304 H 0.24242 0.87478 0.20463 0.0
H3305 H 0.23808 0.90861 0.20607 0.0
H3306 H 0.18913 0.89053 0.16636 0.0
H3307 H 0.19288 0.85638 0.16487 0.0
C3308 C 0.25289 0.80196 0.13064 0.0
C3309 C 0.23727 0.80125 0.11798 0.0
C3310 C 0.25093 0.80874 0.1463 0.0
C3311 C 0.23312 0.8147 0.14959 0.0
C3312 C 0.21862 0.81535 0.13643 0.0
C3313 C 0.22064 0.80865 0.12086 0.0
C3314 C 0.22826 0.81888 0.16686 0.0
C3315 C 0.22644 0.83834 0.16843 0.0
C3316 C 0.22383 0.80318 0.18156 0.0
C3317 C 0.22368 0.78151 0.18073 0.0
C3318 C 0.20821 0.76618 0.17024 0.0
C3319 C 0.20834 0.74587 0.16939 0.0
C3320 C 0.22368 0.74059 0.17912 0.0
C3321 C 0.23887 0.75558 0.18976 0.0
C3322 C 0.23885 0.77595 0.19063 0.0
C3323 C 0.1727 0.83097 0.22924 0.0
C3324 C 0.18591 0.83656 0.24379 0.0
C3325 C 0.18193 0.82704 0.21489 0.0
C3326 C 0.20451 0.82824 0.21469 0.0
C3327 C 0.21721 0.83237 0.22949 0.0
C3328 C 0.20805 0.83659 0.24389 0.0
C3329 C 0.21501 0.82639 0.1986 0.0
C3330 C 0.21769 0.80734 0.19726 0.0
C3331 C 0.21985 0.84225 0.18402 0.0
C3332 C 0.21781 0.86294 0.18472 0.0
C3333 C 0.2306 0.87793 0.19629 0.0
C3334 C 0.22826 0.89718 0.1971 0.0
C3335 C 0.21331 0.9017 0.18633 0.0
C3336 C 0.2007 0.88701 0.1747 0.0
C3337 C 0.20295 0.86771 0.17385 0.0
H3338 H 0.21152 0.91661 0.18698 0.0
H3339 H 0.22375 0.72486 0.17845 0.0
H3340 H 0.25155 0.4676 0.1124 0.0
H3341 H 0.2461 0.44153 0.13805 0.0
H3342 H 0.27579 0.49726 0.16724 0.0
H3343 H 0.28111 0.52331 0.14143 0.0
H3344 H 0.28771 0.45859 0.17669 0.0
H3345 H 0.2214 0.4754 0.17062 0.0
H3346 H 0.19043 0.48018 0.15481 0.0
H3347 H 0.16186 0.41328 0.14146 0.0
H3348 H 0.19251 0.40803 0.15741 0.0
H3349 H 0.23221 0.39434 0.25673 0.0
H3350 H 0.24964 0.42264 0.23202 0.0
H3351 H 0.20037 0.3756 0.2006 0.0
H3352 H 0.1812 0.34812 0.22539 0.0
H3353 H 0.20094 0.41231 0.19262 0.0
H3354 H 0.26463 0.39359 0.20183 0.0
H3355 H 0.29503 0.38866 0.21826 0.0
H3356 H 0.32959 0.45843 0.2254 0.0
H3357 H 0.29932 0.46379 0.2091 0.0
C3358 C 0.25776 0.47426 0.1242 0.0
C3359 C 0.26692 0.49729 0.1251 0.0
C3360 C 0.25455 0.45944 0.1388 0.0
C3361 C 0.26049 0.46752 0.15449 0.0
C3362 C 0.27129 0.49078 0.15521 0.0
C3363 C 0.27435 0.50559 0.14056 0.0
C3364 C 0.2522 0.45143 0.17023 0.0
C3365 C 0.26879 0.44853 0.18035 0.0
C3366 C 0.22754 0.43825 0.17479 0.0
C3367 C 0.20931 0.44141 0.16506 0.0
C3368 C 0.20857 0.46177 0.16424 0.0
C3369 C 0.191 0.46451 0.15535 0.0
C3370 C 0.17426 0.44709 0.14707 0.0
C3371 C 0.17488 0.42678 0.14784 0.0
C3372 C 0.19225 0.42387 0.15688 0.0
C3373 C 0.22478 0.39003 0.24463 0.0
C3374 C 0.20504 0.36879 0.24324 0.0
C3375 C 0.23518 0.40617 0.23039 0.0
C3376 C 0.22663 0.40125 0.21431 0.0
C3377 C 0.20739 0.37989 0.21283 0.0
C3378 C 0.19659 0.36398 0.22708 0.0
C3379 C 0.23634 0.41866 0.19917 0.0
C3380 C 0.21993 0.42206 0.1891 0.0
C3381 C 0.26119 0.43215 0.19473 0.0
C3382 C 0.27955 0.42902 0.20438 0.0
C3383 C 0.27864 0.40786 0.20698 0.0
C3384 C 0.29588 0.405 0.21625 0.0
C3385 C 0.31422 0.42322 0.22289 0.0
C3386 C 0.3154 0.44436 0.22023 0.0
C3387 C 0.29823 0.44732 0.21096 0.0
H3388 H 0.32753 0.42098 0.23009 0.0
H3389 H 0.16077 0.4493 0.14009 0.0
H3390 H 0.78058 0.4975 0.90857 0.0
H3391 H 0.80286 0.5235 0.883 0.0
H3392 H 0.78982 0.5746 0.90032 0.0
H3393 H 0.76791 0.54876 0.92572 0.0
H3394 H 0.77705 0.56753 0.86779 0.0
H3395 H 0.84422 0.57892 0.90165 0.0
H3396 H 0.86848 0.5656 0.91863 0.0
H3397 H 0.88161 0.53952 0.87572 0.0
H3398 H 0.85726 0.55253 0.8585 0.0
H3399 H 0.85255 0.66946 0.81891 0.0
H3400 H 0.83692 0.63964 0.84297 0.0
H3401 H 0.84906 0.59603 0.81401 0.0
H3402 H 0.86481 0.62593 0.78975 0.0
H3403 H 0.86214 0.5954 0.85001 0.0
H3404 H 0.79656 0.58504 0.81584 0.0
H3405 H 0.77094 0.59672 0.79899 0.0
H3406 H 0.75374 0.61914 0.84247 0.0
H3407 H 0.77945 0.60779 0.85957 0.0
C3408 C 0.7828 0.51439 0.90685 0.0
C3409 C 0.77223 0.52113 0.91874 0.0
C3410 C 0.79547 0.52918 0.89236 0.0
C3411 C 0.79779 0.55091 0.88973 0.0
C3412 C 0.78799 0.55784 0.90201 0.0
C3413 C 0.77546 0.54313 0.91643 0.0
C3414 C 0.80936 0.56624 0.87389 0.0
C3415 C 0.7957 0.57373 0.86398 0.0
C3416 C 0.83345 0.57369 0.86865 0.0
C3417 C 0.84875 0.56653 0.87882 0.0
C3418 C 0.85222 0.57028 0.89584 0.0
C3419 C 0.86603 0.56282 0.90551 0.0
C3420 C 0.87662 0.55176 0.89825 0.0
C3421 C 0.87349 0.54819 0.8813 0.0
C3422 C 0.85971 0.55562 0.87158 0.0
C3423 C 0.85227 0.65367 0.81773 0.0
C3424 C 0.85985 0.65 0.80244 0.0
C3425 C 0.84328 0.63664 0.83146 0.0
C3426 C 0.84182 0.61567 0.83022 0.0
C3427 C 0.85014 0.61215 0.8152 0.0
C3428 C 0.85892 0.62914 0.80135 0.0
C3429 C 0.82993 0.59711 0.84427 0.0
C3430 C 0.84344 0.58899 0.85377 0.0
C3431 C 0.8056 0.58889 0.84917 0.0
C3432 C 0.79011 0.59576 0.83894 0.0
C3433 C 0.78749 0.59265 0.82177 0.0
C3434 C 0.77292 0.59917 0.81218 0.0
C3435 C 0.7608 0.60875 0.81963 0.0
C3436 C 0.76316 0.61175 0.83671 0.0
C3437 C 0.7777 0.60524 0.84637 0.0
H3438 H 0.74952 0.61378 0.81218 0.0
H3439 H 0.88726 0.54596 0.90576 0.0
H3440 H 0.48929 0.25833 0.90451 0.0
H3441 H 0.47439 0.24619 0.87709 0.0
H3442 H 0.41425 0.18674 0.90269 0.0
H3443 H 0.42873 0.19943 0.93015 0.0
H3444 H 0.43678 0.18116 0.87151 0.0
H3445 H 0.40261 0.22529 0.89153 0.0
H3446 H 0.40556 0.25874 0.90264 0.0
H3447 H 0.45037 0.30118 0.85908 0.0
H3448 H 0.4478 0.26794 0.84776 0.0
H3449 H 0.34669 0.14882 0.81282 0.0
H3450 H 0.37195 0.15916 0.83678 0.0
H3451 H 0.41727 0.22486 0.80931 0.0
H3452 H 0.3914 0.2148 0.7854 0.0
H3453 H 0.40658 0.22898 0.8401 0.0
H3454 H 0.437 0.18567 0.81779 0.0
H3455 H 0.43633 0.1534 0.80623 0.0
H3456 H 0.4022 0.11088 0.85278 0.0
H3457 H 0.40235 0.14283 0.86455 0.0
C3458 C 0.47308 0.24253 0.90424 0.0
C3459 C 0.45993 0.22996 0.91936 0.0
C3460 C 0.46464 0.23558 0.88861 0.0
C3461 C 0.44309 0.21569 0.88786 0.0
C3462 C 0.43094 0.20213 0.903 0.0
C3463 C 0.43924 0.20929 0.91865 0.0
C3464 C 0.43205 0.21036 0.8714 0.0
C3465 C 0.42995 0.19143 0.86467 0.0
C3466 C 0.42393 0.22425 0.86223 0.0
C3467 C 0.42522 0.24419 0.86889 0.0
C3468 C 0.41321 0.24177 0.88437 0.0
C3469 C 0.41475 0.26068 0.89068 0.0
C3470 C 0.42821 0.28208 0.8816 0.0
C3471 C 0.44 0.2846 0.86612 0.0
C3472 C 0.43846 0.26573 0.85973 0.0
C3473 C 0.36209 0.16546 0.81182 0.0
C3474 C 0.36692 0.18103 0.79721 0.0
C3475 C 0.37671 0.17128 0.8255 0.0
C3476 C 0.3967 0.19275 0.82488 0.0
C3477 C 0.40199 0.20817 0.81011 0.0
C3478 C 0.38731 0.20234 0.79638 0.0
C3479 C 0.41087 0.19946 0.84013 0.0
C3480 C 0.41357 0.21871 0.84672 0.0
C3481 C 0.41979 0.18597 0.84903 0.0
C3482 C 0.4195 0.16663 0.842 0.0
C3483 C 0.42915 0.16939 0.82551 0.0
C3484 C 0.42891 0.15116 0.81894 0.0
C3485 C 0.41918 0.13009 0.82875 0.0
C3486 C 0.40971 0.12721 0.84519 0.0
C3487 C 0.4099 0.14539 0.85182 0.0
H3488 H 0.41902 0.11599 0.82364 0.0
H3489 H 0.42946 0.29671 0.88655 0.0
H3490 H 0.77847 0.203 0.93608 0.0
H3491 H 0.77983 0.18674 0.91047 0.0
H3492 H 0.77189 0.23922 0.88003 0.0
H3493 H 0.76874 0.25431 0.90579 0.0
H3494 H 0.75219 0.20366 0.86484 0.0
H3495 H 0.82806 0.24324 0.88835 0.0
H3496 H 0.85708 0.25227 0.91057 0.0
H3497 H 0.84945 0.1858 0.91422 0.0
H3498 H 0.82006 0.17625 0.89221 0.0
H3499 H 0.81891 0.2055 0.78999 0.0
H3500 H 0.80357 0.2146 0.81451 0.0
H3501 H 0.79966 0.1562 0.8449 0.0
H3502 H 0.81432 0.14675 0.82056 0.0
H3503 H 0.82461 0.19479 0.85959 0.0
H3504 H 0.75061 0.15817 0.83225 0.0
H3505 H 0.72379 0.15272 0.80885 0.0
H3506 H 0.73039 0.21807 0.81083 0.0
H3507 H 0.75799 0.22431 0.83383 0.0
C3508 C 0.77625 0.21056 0.92395 0.0
C3509 C 0.77415 0.23024 0.92282 0.0
C3510 C 0.77734 0.20147 0.90927 0.0
C3511 C 0.77692 0.21223 0.89314 0.0
C3512 C 0.77268 0.23075 0.8922 0.0
C3513 C 0.77113 0.23953 0.90691 0.0
C3514 C 0.78298 0.2055 0.87736 0.0
C3515 C 0.76813 0.2019 0.86365 0.0
C3516 C 0.80381 0.2032 0.87565 0.0
C3517 C 0.82169 0.20896 0.88875 0.0
C3518 C 0.83247 0.23051 0.89396 0.0
C3519 C 0.84899 0.23572 0.90652 0.0
C3520 C 0.85507 0.21961 0.91383 0.0
C3521 C 0.84469 0.19826 0.90857 0.0
C3522 C 0.82811 0.19293 0.89605 0.0
C3523 C 0.81431 0.19434 0.8018 0.0
C3524 C 0.81823 0.17555 0.80329 0.0
C3525 C 0.8056 0.19961 0.81584 0.0
C3526 C 0.80058 0.18616 0.83164 0.0
C3527 C 0.8036 0.16697 0.83294 0.0
C3528 C 0.81212 0.16165 0.81897 0.0
C3529 C 0.79369 0.19264 0.84716 0.0
C3530 C 0.80857 0.19639 0.8608 0.0
C3531 C 0.77322 0.19557 0.84856 0.0
C3532 C 0.75665 0.19182 0.83466 0.0
C3533 C 0.74665 0.17154 0.82755 0.0
C3534 C 0.7313 0.16831 0.81433 0.0
C3535 C 0.72543 0.18505 0.80832 0.0
C3536 C 0.735 0.20513 0.81546 0.0
C3537 C 0.75056 0.20855 0.82855 0.0
H3538 H 0.71339 0.18244 0.79819 0.0
H3539 H 0.86787 0.22367 0.92355 0.0
H3540 H 0.20216 0.12462 0.45818 0.0
H3541 H 0.21697 0.13939 0.48513 0.0
H3542 H 0.28367 0.14042 0.47387 0.0
H3543 H 0.26891 0.12593 0.44714 0.0
H3544 H 0.2627 0.11729 0.50522 0.0
H3545 H 0.27936 0.18745 0.47115 0.0
H3546 H 0.26778 0.21245 0.45343 0.0
H3547 H 0.22287 0.20948 0.49468 0.0
H3548 H 0.23369 0.18393 0.51256 0.0
H3549 H 0.34999 0.17954 0.55787 0.0
H3550 H 0.32523 0.16593 0.53412 0.0
H3551 H 0.26942 0.17384 0.55769 0.0
H3552 H 0.2946 0.18811 0.58156 0.0
H3553 H 0.27687 0.1897 0.52316 0.0
H3554 H 0.26162 0.12231 0.5579 0.0
H3555 H 0.27125 0.09608 0.57593 0.0
H3556 H 0.31118 0.09282 0.53411 0.0
H3557 H 0.3021 0.11929 0.51587 0.0
C3558 C 0.22013 0.12852 0.46142 0.0
C3559 C 0.23445 0.12411 0.45078 0.0
C3560 C 0.22854 0.13683 0.47677 0.0
C3561 C 0.25137 0.14082 0.48157 0.0
C3562 C 0.26594 0.13728 0.47051 0.0
C3563 C 0.2576 0.1291 0.45526 0.0
C3564 C 0.25997 0.14746 0.49842 0.0
C3565 C 0.2659 0.13318 0.5091 0.0
C3566 C 0.26316 0.16774 0.5038 0.0
C3567 C 0.25704 0.18345 0.49313 0.0
C3568 C 0.26679 0.19189 0.47641 0.0
C3569 C 0.26039 0.20619 0.46633 0.0
C3570 C 0.24451 0.21246 0.4729 0.0
C3571 C 0.23508 0.20452 0.48959 0.0
C3572 C 0.24132 0.1901 0.4997 0.0
C3573 C 0.3325 0.1785 0.55802 0.0
C3574 C 0.32432 0.185 0.5716 0.0
C3575 C 0.31827 0.17057 0.54446 0.0
C3576 C 0.29537 0.1687 0.54414 0.0
C3577 C 0.28703 0.17513 0.55767 0.0
C3578 C 0.30132 0.18306 0.57136 0.0
C3579 C 0.28051 0.1599 0.52958 0.0
C3580 C 0.27331 0.17366 0.5194 0.0
C3581 C 0.27587 0.13899 0.52465 0.0
C3582 C 0.28128 0.12291 0.53553 0.0
C3583 C 0.27259 0.11612 0.55257 0.0
C3584 C 0.27793 0.10119 0.56283 0.0
C3585 C 0.29184 0.09281 0.55618 0.0
C3586 C 0.3004 0.09932 0.53924 0.0
C3587 C 0.29513 0.11426 0.52893 0.0
H3588 H 0.29596 0.08126 0.56415 0.0
H3589 H 0.23958 0.22354 0.46508 0.0
H3590 H 0.93413 0.13125 0.46297 0.0
H3591 H 0.93005 0.14412 0.48983 0.0
H3592 H 0.86893 0.14978 0.47188 0.0
H3593 H 0.87361 0.13759 0.44513 0.0
H3594 H 0.89193 0.18178 0.48995 0.0
H3595 H 0.86481 0.10203 0.49746 0.0
H3596 H 0.86888 0.06792 0.49689 0.0
H3597 H 0.924 0.09098 0.53225 0.0
H3598 H 0.9205 0.12544 0.53282 0.0
H3599 H 0.81748 0.15947 0.56211 0.0
H3600 H 0.83476 0.1541 0.53701 0.0
H3601 H 0.89919 0.168 0.56249 0.0
H3602 H 0.88226 0.17429 0.58772 0.0
H3603 H 0.88105 0.12967 0.54214 0.0
H3604 H 0.90288 0.20819 0.5364 0.0
H3605 H 0.89502 0.2402 0.53695 0.0
H3606 H 0.84556 0.2168 0.49794 0.0
H3607 H 0.85284 0.18444 0.49734 0.0
C3608 C 0.92046 0.13609 0.46464 0.0
C3609 C 0.90434 0.13373 0.45199 0.0
C3610 C 0.91784 0.14309 0.48006 0.0
C3611 C 0.89883 0.14753 0.48314 0.0
C3612 C 0.88373 0.1465 0.46998 0.0
C3613 C 0.88644 0.13965 0.45463 0.0
C3614 C 0.89344 0.15185 0.50023 0.0
C3615 C 0.88956 0.17032 0.50131 0.0
C3616 C 0.89058 0.13717 0.51528 0.0
C3617 C 0.8926 0.11643 0.51503 0.0
C3618 C 0.87792 0.0999 0.50502 0.0
C3619 C 0.88011 0.0805 0.5047 0.0
C3620 C 0.89674 0.07732 0.51449 0.0
C3621 C 0.91117 0.0935 0.52464 0.0
C3622 C 0.90909 0.11297 0.52497 0.0
C3623 C 0.83541 0.16157 0.56247 0.0
C3624 C 0.8486 0.16782 0.57696 0.0
C3625 C 0.84522 0.15833 0.54806 0.0
C3626 C 0.86842 0.16095 0.54772 0.0
C3627 C 0.88127 0.16596 0.56242 0.0
C3628 C 0.87151 0.16946 0.57688 0.0
C3629 C 0.87923 0.15933 0.53167 0.0
C3630 C 0.88396 0.14134 0.53081 0.0
C3631 C 0.88247 0.1742 0.51674 0.0
C3632 C 0.8783 0.19381 0.51691 0.0
C3633 C 0.8902 0.20979 0.52802 0.0
C3634 C 0.88587 0.228 0.52833 0.0
C3635 C 0.86977 0.23051 0.51751 0.0
C3636 C 0.85802 0.21484 0.50632 0.0
C3637 C 0.86227 0.19657 0.50597 0.0
H3638 H 0.86643 0.24462 0.51777 0.0
H3639 H 0.89841 0.06228 0.51423 0.0
H3640 H 0.91389 0.79653 0.44536 0.0
H3641 H 0.90553 0.76988 0.47096 0.0
H3642 H 0.92477 0.82378 0.50136 0.0
H3643 H 0.9348 0.85068 0.47545 0.0
H3644 H 0.93604 0.79398 0.5168 0.0
H3645 H 0.86645 0.791 0.49168 0.0
H3646 H 0.8391 0.78754 0.46888 0.0
H3647 H 0.82842 0.72132 0.46424 0.0
H3648 H 0.85588 0.72446 0.48695 0.0
H3649 H 0.8564 0.7301 0.58901 0.0
H3650 H 0.877 0.75638 0.56365 0.0
H3651 H 0.86761 0.70119 0.53738 0.0
H3652 H 0.8477 0.67472 0.56292 0.0
H3653 H 0.853 0.73077 0.51993 0.0
H3654 H 0.92126 0.73462 0.54883 0.0
H3655 H 0.9466 0.74001 0.57316 0.0
H3656 H 0.95732 0.80726 0.57245 0.0
H3657 H 0.93176 0.80217 0.54826 0.0
C3658 C 0.91762 0.80281 0.45745 0.0
C3659 C 0.92565 0.82563 0.45855 0.0
C3660 C 0.91236 0.78754 0.47211 0.0
C3661 C 0.91404 0.79474 0.48811 0.0
C3662 C 0.92335 0.81782 0.48918 0.0
C3663 C 0.92911 0.83316 0.47446 0.0
C3664 C 0.90381 0.77803 0.50352 0.0
C3665 C 0.91785 0.78024 0.51752 0.0
C3666 C 0.88004 0.76006 0.50449 0.0
C3667 C 0.8634 0.75805 0.4909 0.0
C3668 C 0.85838 0.77575 0.48573 0.0
C3669 C 0.84284 0.77384 0.47283 0.0
C3670 C 0.8321 0.75426 0.46507 0.0
C3671 C 0.8368 0.7365 0.47025 0.0
C3672 C 0.85231 0.73831 0.48315 0.0
C3673 C 0.85909 0.72351 0.57798 0.0
C3674 C 0.85043 0.70023 0.57807 0.0
C3675 C 0.87081 0.73859 0.56347 0.0
C3676 C 0.874 0.73072 0.54873 0.0
C3677 C 0.86534 0.70756 0.54868 0.0
C3678 C 0.85381 0.69246 0.56325 0.0
C3679 C 0.88528 0.7466 0.5331 0.0
C3680 C 0.87131 0.74433 0.51911 0.0
C3681 C 0.90884 0.76479 0.53236 0.0
C3682 C 0.92442 0.76794 0.54681 0.0
C3683 C 0.92886 0.7505 0.55394 0.0
C3684 C 0.9433 0.75351 0.56769 0.0
C3685 C 0.95352 0.77395 0.57437 0.0
C3686 C 0.94938 0.79143 0.56727 0.0
C3687 C 0.93494 0.7885 0.55353 0.0
H3688 H 0.96468 0.77624 0.58502 0.0
H3689 H 0.82008 0.75281 0.45509 0.0
loop_
_geom_bond_atom_site_label_1
_geom_bond_atom_site_label_2
_geom_bond_distance
_geom_bond_site_symmetry_2
_ccdc_geom_bond_type
C0 N1 1.317 . S
C0 N2 1.348 . S
C0 C3 1.485 . S
N1 C0 1.317 . S
N1 N5 1.370 . S
N2 C0 1.348 . S
N2 C4 1.346 . S
C3 C0 1.485 . S
C3 H7 0.960 . S
C3 H8 0.961 . S
C3 H9 0.960 . S
C4 N2 1.346 . S
C4 N5 1.307 . S
C4 C6 1.486 . S
N5 N1 1.370 . S
N5 C4 1.307 . S
C6 C4 1.486 . S
C6 H10 0.960 . S
C6 H11 0.960 . S
C6 H12 0.959 . S
H7 C3 0.960 . S
H8 C3 0.961 . S
H9 C3 0.960 . S
H10 C6 0.960 . S
H11 C6 0.960 . S
H12 C6 0.959 . S
C13 N14 1.317 . S
C13 N15 1.348 . S
C13 C16 1.485 . S
N14 C13 1.317 . S
N14 N18 1.370 . S
N15 C13 1.348 . S
N15 C17 1.346 . S
C16 C13 1.485 . S
C16 H20 0.960 . S
C16 H21 0.961 . S
C16 H22 0.960 . S
C17 N15 1.346 . S
C17 N18 1.307 . S
C17 C19 1.486 . S
N18 N14 1.370 . S
N18 C17 1.307 . S
C19 C17 1.486 . S
C19 H23 0.960 . S
C19 H24 0.960 . S
C19 H25 0.959 . S
H20 C16 0.960 . S
H21 C16 0.961 . S
H22 C16 0.960 . S
H23 C19 0.960 . S
H24 C19 0.960 . S
H25 C19 0.959 . S
C26 N27 1.317 . S
C26 N28 1.348 . S
C26 C29 1.485 . S
N27 C26 1.317 . S
N27 N31 1.370 . S
N28 C26 1.348 . S
N28 C30 1.346 . S
C29 C26 1.485 . S
C29 H33 0.960 . S
C29 H34 0.961 . S
C29 H35 0.960 . S
C30 N28 1.346 . S
C30 N31 1.307 . S
C30 C32 1.486 . S
N31 N27 1.370 . S
N31 C30 1.307 . S
C32 C30 1.486 . S
C32 H36 0.960 . S
C32 H37 0.960 . S
C32 H38 0.959 . S
H33 C29 0.960 . S
H34 C29 0.961 . S
H35 C29 0.960 . S
H36 C32 0.960 . S
H37 C32 0.960 . S
H38 C32 0.959 . S
C39 N40 1.317 . S
C39 N41 1.348 . S
C39 C42 1.485 . S
N40 C39 1.317 . S
N40 N44 1.370 . S
N41 C39 1.348 . S
N41 C43 1.346 . S
C42 C39 1.485 . S
C42 H46 0.960 . S
C42 H47 0.961 . S
C42 H48 0.960 . S
C43 N41 1.346 . S
C43 N44 1.307 . S
C43 C45 1.486 . S
N44 N40 1.370 . S
N44 C43 1.307 . S
C45 C43 1.486 . S
C45 H49 0.960 . S
C45 H50 0.960 . S
C45 H51 0.959 . S
H46 C42 0.960 . S
H47 C42 0.961 . S
H48 C42 0.960 . S
H49 C45 0.960 . S
H50 C45 0.960 . S
H51 C45 0.959 . S
C52 N53 1.317 . S
C52 N54 1.348 . S
C52 C55 1.485 . S
N53 C52 1.317 . S
N53 N57 1.370 . S
N54 C52 1.348 . S
N54 C56 1.346 . S
C55 C52 1.485 . S
C55 H59 0.960 . S
C55 H60 0.961 . S
C55 H61 0.960 . S
C56 N54 1.346 . S
C56 N57 1.307 . S
C56 C58 1.486 . S
N57 N53 1.370 . S
N57 C56 1.307 . S
C58 C56 1.486 . S
C58 H62 0.960 . S
C58 H63 0.960 . S
C58 H64 0.959 . S
H59 C55 0.960 . S
H60 C55 0.961 . S
H61 C55 0.960 . S
H62 C58 0.960 . S
H63 C58 0.960 . S
H64 C58 0.959 . S
C65 N66 1.317 . S
C65 N67 1.348 . S
C65 C68 1.485 . S
N66 C65 1.317 . S
N66 N70 1.370 . S
N67 C65 1.348 . S
N67 C69 1.346 . S
C68 C65 1.485 . S
C68 H72 0.960 . S
C68 H73 0.961 . S
C68 H74 0.960 . S
C69 N67 1.346 . S
C69 N70 1.307 . S
C69 C71 1.486 . S
N70 N66 1.370 . S
N70 C69 1.307 . S
C71 C69 1.486 . S
C71 H75 0.960 . S
C71 H76 0.960 . S
C71 H77 0.959 . S
H72 C68 0.960 . S
H73 C68 0.961 . S
H74 C68 0.960 . S
H75 C71 0.960 . S
H76 C71 0.960 . S
H77 C71 0.959 . S
C78 N79 1.317 . S
C78 N80 1.348 . S
C78 C81 1.485 . S
N79 C78 1.317 . S
N79 N83 1.370 . S
N80 C78 1.348 . S
N80 C82 1.346 . S
C81 C78 1.485 . S
C81 H85 0.960 . S
C81 H86 0.961 . S
C81 H87 0.960 . S
C82 N80 1.346 . S
C82 N83 1.307 . S
C82 C84 1.486 . S
N83 N79 1.370 . S
N83 C82 1.307 . S
C84 C82 1.486 . S
C84 H88 0.960 . S
C84 H89 0.960 . S
C84 H90 0.959 . S
H85 C81 0.960 . S
H86 C81 0.961 . S
H87 C81 0.960 . S
H88 C84 0.960 . S
H89 C84 0.960 . S
H90 C84 0.959 . S
C91 N92 1.317 . S
C91 N93 1.348 . S
C91 C94 1.485 . S
N92 C91 1.317 . S
N92 N96 1.370 . S
N93 C91 1.348 . S
N93 C95 1.346 . S
C94 C91 1.485 . S
C94 H98 0.960 . S
C94 H99 0.961 . S
C94 H100 0.960 . S
C95 N93 1.346 . S
C95 N96 1.307 . S
C95 C97 1.486 . S
N96 N92 1.370 . S
N96 C95 1.307 . S
C97 C95 1.486 . S
C97 H101 0.960 . S
C97 H102 0.960 . S
C97 H103 0.959 . S
H98 C94 0.960 . S
H99 C94 0.961 . S
H100 C94 0.960 . S
H101 C97 0.960 . S
H102 C97 0.960 . S
H103 C97 0.959 . S
C104 N105 1.317 . S
C104 N106 1.348 . S
C104 C107 1.485 . S
N105 C104 1.317 . S
N105 N109 1.370 . S
N106 C104 1.348 . S
N106 C108 1.346 . S
C107 C104 1.485 . S
C107 H111 0.960 . S
C107 H112 0.961 . S
C107 H113 0.960 . S
C108 N106 1.346 . S
C108 N109 1.307 . S
C108 C110 1.486 . S
N109 N105 1.370 . S
N109 C108 1.307 . S
C110 C108 1.486 . S
C110 H114 0.960 . S
C110 H115 0.960 . S
C110 H116 0.959 . S
H111 C107 0.960 . S
H112 C107 0.961 . S
H113 C107 0.960 . S
H114 C110 0.960 . S
H115 C110 0.960 . S
H116 C110 0.959 . S
C117 N118 1.317 . S
C117 N119 1.348 . S
C117 C120 1.485 . S
N118 C117 1.317 . S
N118 N122 1.370 . S
N119 C117 1.348 . S
N119 C121 1.346 . S
C120 C117 1.485 . S
C120 H124 0.960 . S
C120 H125 0.961 . S
C120 H126 0.960 . S
C121 N119 1.346 . S
C121 N122 1.307 . S
C121 C123 1.486 . S
N122 N118 1.370 . S
N122 C121 1.307 . S
C123 C121 1.486 . S
C123 H127 0.960 . S
C123 H128 0.960 . S
C123 H129 0.959 . S
H124 C120 0.960 . S
H125 C120 0.961 . S
H126 C120 0.960 . S
H127 C123 0.960 . S
H128 C123 0.960 . S
H129 C123 0.959 . S
C130 N131 1.317 . S
C130 N132 1.348 . S
C130 C133 1.485 . S
N131 C130 1.317 . S
N131 N135 1.370 . S
N132 C130 1.348 . S
N132 C134 1.346 . S
C133 C130 1.485 . S
C133 H137 0.960 . S
C133 H138 0.961 . S
C133 H139 0.960 . S
C134 N132 1.346 . S
C134 N135 1.307 . S
C134 C136 1.486 . S
N135 N131 1.370 . S
N135 C134 1.307 . S
C136 C134 1.486 . S
C136 H140 0.960 . S
C136 H141 0.960 . S
C136 H142 0.959 . S
H137 C133 0.960 . S
H138 C133 0.961 . S
H139 C133 0.960 . S
H140 C136 0.960 . S
H141 C136 0.960 . S
H142 C136 0.959 . S
C143 N144 1.317 . S
C143 N145 1.348 . S
C143 C146 1.485 . S
N144 C143 1.317 . S
N144 N148 1.370 . S
N145 C143 1.348 . S
N145 C147 1.346 . S
C146 C143 1.485 . S
C146 H150 0.960 . S
C146 H151 0.961 . S
C146 H152 0.960 . S
C147 N145 1.346 . S
C147 N148 1.307 . S
C147 C149 1.486 . S
N148 N144 1.370 . S
N148 C147 1.307 . S
C149 C147 1.486 . S
C149 H153 0.960 . S
C149 H154 0.960 . S
C149 H155 0.959 . S
H150 C146 0.960 . S
H151 C146 0.961 . S
H152 C146 0.960 . S
H153 C149 0.960 . S
H154 C149 0.960 . S
H155 C149 0.959 . S
C156 N157 1.317 . S
C156 N158 1.348 . S
C156 C159 1.485 . S
N157 C156 1.317 . S
N157 N161 1.370 . S
N158 C156 1.348 . S
N158 C160 1.346 . S
C159 C156 1.485 . S
C159 H163 0.960 . S
C159 H164 0.961 . S
C159 H165 0.960 . S
C160 N158 1.346 . S
C160 N161 1.307 . S
C160 C162 1.486 . S
N161 N157 1.370 . S
N161 C160 1.307 . S
C162 C160 1.486 . S
C162 H166 0.960 . S
C162 H167 0.960 . S
C162 H168 0.959 . S
H163 C159 0.960 . S
H164 C159 0.961 . S
H165 C159 0.960 . S
H166 C162 0.960 . S
H167 C162 0.960 . S
H168 C162 0.959 . S
C169 N170 1.317 . S
C169 N171 1.348 . S
C169 C172 1.485 . S
N170 C169 1.317 . S
N170 N174 1.370 . S
N171 C169 1.348 . S
N171 C173 1.346 . S
C172 C169 1.485 . S
C172 H176 0.960 . S
C172 H177 0.961 . S
C172 H178 0.960 . S
C173 N171 1.346 . S
C173 N174 1.307 . S
C173 C175 1.486 . S
N174 N170 1.370 . S
N174 C173 1.307 . S
C175 C173 1.486 . S
C175 H179 0.960 . S
C175 H180 0.960 . S
C175 H181 0.959 . S
H176 C172 0.960 . S
H177 C172 0.961 . S
H178 C172 0.960 . S
H179 C175 0.960 . S
H180 C175 0.960 . S
H181 C175 0.959 . S
C182 N183 1.317 . S
C182 N184 1.348 . S
C182 C185 1.485 . S
N183 C182 1.317 . S
N183 N187 1.370 . S
N184 C182 1.348 . S
N184 C186 1.346 . S
C185 C182 1.485 . S
C185 H189 0.960 . S
C185 H190 0.961 . S
C185 H191 0.960 . S
C186 N184 1.346 . S
C186 N187 1.307 . S
C186 C188 1.486 . S
N187 N183 1.370 . S
N187 C186 1.307 . S
C188 C186 1.486 . S
C188 H192 0.960 . S
C188 H193 0.960 . S
C188 H194 0.959 . S
H189 C185 0.960 . S
H190 C185 0.961 . S
H191 C185 0.960 . S
H192 C188 0.960 . S
H193 C188 0.960 . S
H194 C188 0.959 . S
C195 N196 1.317 . S
C195 N197 1.348 . S
C195 C198 1.485 . S
N196 C195 1.317 . S
N196 N200 1.370 . S
N197 C195 1.348 . S
N197 C199 1.346 . S
C198 C195 1.485 . S
C198 H202 0.960 . S
C198 H203 0.961 . S
C198 H204 0.960 . S
C199 N197 1.346 . S
C199 N200 1.307 . S
C199 C201 1.486 . S
N200 N196 1.370 . S
N200 C199 1.307 . S
C201 C199 1.486 . S
C201 H205 0.960 . S
C201 H206 0.960 . S
C201 H207 0.959 . S
H202 C198 0.960 . S
H203 C198 0.961 . S
H204 C198 0.960 . S
H205 C201 0.960 . S
H206 C201 0.960 . S
H207 C201 0.959 . S
C208 N209 1.317 . S
C208 N210 1.348 . S
C208 C211 1.485 . S
N209 C208 1.317 . S
N209 N213 1.370 . S
N210 C208 1.348 . S
N210 C212 1.346 . S
C211 C208 1.485 . S
C211 H215 0.960 . S
C211 H216 0.961 . S
C211 H217 0.960 . S
C212 N210 1.346 . S
C212 N213 1.307 . S
C212 C214 1.486 . S
N213 N209 1.370 . S
N213 C212 1.307 . S
C214 C212 1.486 . S
C214 H218 0.960 . S
C214 H219 0.960 . S
C214 H220 0.959 . S
H215 C211 0.960 . S
H216 C211 0.961 . S
H217 C211 0.960 . S
H218 C214 0.960 . S
H219 C214 0.960 . S
H220 C214 0.959 . S
C221 N222 1.317 . S
C221 N223 1.348 . S
C221 C224 1.485 . S
N222 C221 1.317 . S
N222 N226 1.370 . S
N223 C221 1.348 . S
N223 C225 1.346 . S
C224 C221 1.485 . S
C224 H228 0.960 . S
C224 H229 0.961 . S
C224 H230 0.960 . S
C225 N223 1.346 . S
C225 N226 1.307 . S
C225 C227 1.486 . S
N226 N222 1.370 . S
N226 C225 1.307 . S
C227 C225 1.486 . S
C227 H231 0.960 . S
C227 H232 0.960 . S
C227 H233 0.959 . S
H228 C224 0.960 . S
H229 C224 0.961 . S
H230 C224 0.960 . S
H231 C227 0.960 . S
H232 C227 0.960 . S
H233 C227 0.959 . S
Tb234 N265 2.660 . S
Tb234 N272 2.600 . S
Tb234 O278 2.546 . S
Tb234 O279 2.610 1_566 S
Tb234 O281 2.320 1_565 S
Tb234 O282 2.552 1_565 S
Tb234 O283 2.413 1_565 S
Tb234 O285 2.362 1_556 S
Tb234 O286 2.421 1_556 S
Tb234 C298 2.833 1_565 S
C235 C238 1.432 . S
C235 C239 1.414 . S
C235 N242 1.359 . S
C236 C238 1.417 . S
C236 C240 1.432 . S
C236 C248 1.410 . S
C237 C239 1.444 . S
C237 C240 1.317 . S
C237 H260 0.929 . S
C238 C235 1.432 . S
C238 C236 1.417 . S
C238 N246 1.360 . S
C239 C235 1.414 . S
C239 C237 1.444 . S
C239 C244 1.385 . S
C240 C236 1.432 . S
C240 C237 1.317 . S
C240 H252 0.930 . S
C241 C243 1.392 . S
C241 C244 1.370 . S
C241 H253 0.931 . S
N242 C235 1.359 . S
N242 C243 1.327 . S
N242 Tb245 2.600 . S
C243 C241 1.392 . S
C243 N242 1.327 . S
C243 H250 0.930 . S
C244 C239 1.385 . S
C244 C241 1.370 . S
C244 H263 0.930 . S
Tb245 N242 2.600 . S
Tb245 N246 2.660 . S
Tb245 O279 2.362 . S
Tb245 O280 2.421 . S
Tb245 O284 2.546 . S
Tb245 O285 2.610 1_545 S
Tb245 O287 2.320 1_545 S
Tb245 O288 2.552 1_545 S
Tb245 O289 2.413 1_545 S
Tb245 C309 2.833 1_545 S
N246 C238 1.360 . S
N246 Tb245 2.660 . S
N246 C247 1.305 . S
C247 N246 1.305 . S
C247 C249 1.407 . S
C247 H254 0.930 . S
C248 C236 1.410 . S
C248 C249 1.345 . S
C248 H256 0.930 . S
C249 C247 1.407 . S
C249 C248 1.345 . S
C249 H251 0.930 . S
H250 C243 0.930 . S
H251 C249 0.930 . S
H252 C240 0.930 . S
H253 C241 0.931 . S
H254 C247 0.930 . S
H255 C269 0.930 . S
H256 C248 0.930 . S
H257 C275 0.930 . S
H258 C266 0.930 1_545 S
H259 C273 0.931 . S
H260 C237 0.929 . S
H261 C267 0.930 . S
H262 C300 0.930 . S
H263 C244 0.930 . S
H264 C299 0.929 . S
N265 Tb234 2.660 . S
N265 C266 1.305 . S
N265 C270 1.360 . S
C266 H258 0.930 1_565 S
C266 N265 1.305 . S
C266 C269 1.407 . S
C267 H261 0.930 . S
C267 C268 1.410 . S
C267 C269 1.345 . S
C268 C267 1.410 . S
C268 C270 1.417 . S
C268 C300 1.432 . S
C269 H255 0.930 . S
C269 C266 1.407 . S
C269 C267 1.345 . S
C270 N265 1.360 . S
C270 C268 1.417 . S
C270 C274 1.432 . S
H271 C276 0.930 . S
N272 Tb234 2.600 . S
N272 C274 1.359 . S
N272 C275 1.327 . S
C273 H259 0.931 . S
C273 C275 1.392 . S
C273 C276 1.370 . S
C274 C270 1.432 . S
C274 N272 1.359 . S
C274 C277 1.414 . S
C275 H257 0.930 . S
C275 N272 1.327 . S
C275 C273 1.392 . S
C276 H271 0.930 . S
C276 C273 1.370 . S
C276 C277 1.385 . S
C277 C274 1.414 . S
C277 C276 1.385 . S
C277 C299 1.444 . S
O278 Tb234 2.546 . S
O278 C298 1.251 1_565 S
O279 Tb234 2.610 1_544 S
O279 Tb245 2.362 . S
O279 C290 1.283 . S
O280 Tb245 2.421 . S
O280 C297 1.262 . S
O281 Tb234 2.320 1_545 S
O281 C297 1.260 1_556 S
O282 Tb234 2.552 1_545 S
O282 C290 1.243 1_556 S
O283 Tb234 2.413 1_545 S
O283 C298 1.256 . S
O284 Tb245 2.546 . S
O284 C309 1.251 1_545 S
O285 Tb234 2.362 1_554 S
O285 Tb245 2.610 1_565 S
O285 C301 1.283 . S
O286 Tb234 2.421 1_554 S
O286 C308 1.262 . S
O287 Tb245 2.320 1_565 S
O287 C308 1.260 . S
O288 Tb245 2.552 1_565 S
O288 C301 1.243 . S
O289 Tb245 2.413 1_565 S
O289 C309 1.256 . S
C290 O279 1.283 . S
C290 O282 1.243 1_554 S
C291 C293 1.382 . S
C291 C295 1.393 . S
C291 C298 1.500 . S
C292 C293 1.400 . S
C292 C294 1.384 . S
C293 C291 1.382 . S
C293 C292 1.400 . S
C293 H310 0.930 . S
C294 C292 1.384 . S
C294 C296 1.392 . S
C294 H311 0.931 . S
C295 C291 1.393 . S
C295 C296 1.401 . S
C295 H312 0.930 1_545 S
C296 C294 1.392 . S
C296 C295 1.401 . S
C296 H313 0.930 . S
C297 O280 1.262 . S
C297 O281 1.260 1_554 S
C298 Tb234 2.833 1_545 S
C298 O278 1.251 1_545 S
C298 O283 1.256 . S
C298 C291 1.500 . S
C299 H264 0.929 . S
C299 C277 1.444 . S
C299 C300 1.317 . S
C300 H262 0.930 . S
C300 C268 1.432 . S
C300 C299 1.317 . S
C301 O285 1.283 . S
C301 O288 1.243 . S
C302 C303 1.382 . S
C302 C306 1.393 . S
C302 C309 1.500 . S
C303 C302 1.382 . S
C303 C304 1.400 . S
C303 H314 0.930 . S
C304 C303 1.400 . S
C304 C305 1.384 . S
C305 C304 1.384 . S
C305 C307 1.392 . S
C305 H315 0.931 . S
C306 C302 1.393 . S
C306 C307 1.401 . S
C306 H316 0.930 1_565 S
C307 C305 1.392 . S
C307 C306 1.401 . S
C307 H317 0.930 . S
C308 O286 1.262 . S
C308 O287 1.260 . S
C309 Tb245 2.833 1_565 S
C309 O284 1.251 1_565 S
C309 O289 1.256 . S
C309 C302 1.500 . S
H310 C293 0.930 . S
H311 C294 0.931 . S
H312 C295 0.930 1_565 S
H313 C296 0.930 . S
H314 C303 0.930 . S
H315 C305 0.931 . S
H316 C306 0.930 1_545 S
H317 C307 0.930 . S
Tb318 N349 2.660 . S
Tb318 N356 2.600 . S
Tb318 O362 2.546 . S
Tb318 O363 2.610 1_456 S
Tb318 O365 2.320 1_455 S
Tb318 O366 2.552 1_455 S
Tb318 O367 2.413 . S
Tb318 O369 2.362 1_556 S
Tb318 O370 2.421 . S
Tb318 C382 2.833 . S
C319 C322 1.432 . S
C319 C323 1.414 . S
C319 N326 1.359 . S
C320 C322 1.417 . S
C320 C324 1.432 . S
C320 C332 1.410 . S
C321 C323 1.444 . S
C321 C324 1.317 . S
C321 H344 0.929 . S
C322 C319 1.432 . S
C322 C320 1.417 . S
C322 N330 1.360 . S
C323 C319 1.414 . S
C323 C321 1.444 . S
C323 C328 1.385 . S
C324 C320 1.432 . S
C324 C321 1.317 . S
C324 H336 0.930 . S
C325 C327 1.392 . S
C325 C328 1.370 . S
C325 H337 0.931 . S
N326 C319 1.359 . S
N326 C327 1.327 . S
N326 Tb329 2.600 . S
C327 C325 1.392 . S
C327 N326 1.327 . S
C327 H334 0.930 . S
C328 C323 1.385 . S
C328 C325 1.370 . S
C328 H347 0.930 . S
Tb329 N326 2.600 . S
Tb329 N330 2.660 . S
Tb329 O363 2.362 . S
Tb329 O364 2.421 . S
Tb329 O368 2.546 . S
Tb329 O369 2.610 1_655 S
Tb329 O371 2.320 1_655 S
Tb329 O372 2.552 1_655 S
Tb329 O373 2.413 1_655 S
Tb329 C393 2.833 . S
N330 C322 1.360 . S
N330 Tb329 2.660 . S
N330 C331 1.305 . S
C331 N330 1.305 . S
C331 C333 1.407 . S
C331 H338 0.930 . S
C332 C320 1.410 . S
C332 C333 1.345 . S
C332 H340 0.930 . S
C333 C331 1.407 . S
C333 C332 1.345 . S
C333 H335 0.930 . S
H334 C327 0.930 . S
H335 C333 0.930 . S
H336 C324 0.930 . S
H337 C325 0.931 . S
H338 C331 0.930 . S
H339 C353 0.930 . S
H340 C332 0.930 . S
H341 C359 0.930 . S
H342 C350 0.930 . S
H343 C357 0.931 . S
H344 C321 0.929 . S
H345 C351 0.930 . S
H346 C384 0.930 . S
H347 C328 0.930 . S
H348 C383 0.929 . S
N349 Tb318 2.660 . S
N349 C350 1.305 . S
N349 C354 1.360 . S
C350 H342 0.930 . S
C350 N349 1.305 . S
C350 C353 1.407 . S
C351 H345 0.930 . S
C351 C352 1.410 . S
C351 C353 1.345 . S
C352 C351 1.410 . S
C352 C354 1.417 . S
C352 C384 1.432 . S
C353 H339 0.930 . S
C353 C350 1.407 . S
C353 C351 1.345 . S
C354 N349 1.360 . S
C354 C352 1.417 . S
C354 C358 1.432 . S
H355 C360 0.930 . S
N356 Tb318 2.600 . S
N356 C358 1.359 . S
N356 C359 1.327 . S
C357 H343 0.931 . S
C357 C359 1.392 . S
C357 C360 1.370 . S
C358 C354 1.432 . S
C358 N356 1.359 . S
C358 C361 1.414 . S
C359 H341 0.930 . S
C359 N356 1.327 . S
C359 C357 1.392 . S
C360 H355 0.930 . S
C360 C357 1.370 . S
C360 C361 1.385 . S
C361 C358 1.414 . S
C361 C360 1.385 . S
C361 C383 1.444 . S
O362 Tb318 2.546 . S
O362 C382 1.251 . S
O363 Tb318 2.610 1_654 S
O363 Tb329 2.362 . S
O363 C374 1.283 1_554 S
O364 Tb329 2.421 . S
O364 C381 1.310 . S
O365 Tb318 2.320 1_655 S
O365 C381 1.231 1_556 S
O366 Tb318 2.552 1_655 S
O366 C374 1.243 . S
O367 Tb318 2.413 . S
O367 C382 1.256 . S
O368 Tb329 2.546 . S
O368 C393 1.251 . S
O369 Tb318 2.362 1_554 S
O369 Tb329 2.610 1_455 S
O369 C385 1.283 . S
O370 Tb318 2.421 . S
O370 C392 1.262 1_556 S
O371 Tb329 2.320 1_455 S
O371 C392 1.260 . S
O372 Tb329 2.552 1_455 S
O372 C385 1.243 . S
O373 Tb329 2.413 1_455 S
O373 C393 1.256 1_455 S
C374 O363 1.283 1_556 S
C374 O366 1.243 . S
C375 C377 1.382 1_455 S
C375 C379 1.393 . S
C375 C382 1.500 . S
C376 C377 1.400 . S
C376 C378 1.384 1_655 S
C377 C375 1.382 1_655 S
C377 C376 1.400 . S
C377 H394 0.930 . S
C378 C376 1.384 1_455 S
C378 C380 1.392 . S
C378 H395 0.931 . S
C379 C375 1.393 . S
C379 C380 1.401 . S
C379 H396 0.930 . S
C380 C378 1.392 . S
C380 C379 1.401 . S
C380 H397 0.930 . S
C381 O364 1.310 . S
C381 O365 1.231 1_554 S
C382 Tb318 2.833 . S
C382 O362 1.251 . S
C382 O367 1.256 . S
C382 C375 1.500 . S
C383 H348 0.929 . S
C383 C361 1.444 . S
C383 C384 1.317 . S
C384 H346 0.930 . S
C384 C352 1.432 . S
C384 C383 1.317 . S
C385 O369 1.283 . S
C385 O372 1.243 . S
C386 C387 1.382 . S
C386 C390 1.393 1_455 S
C386 C393 1.500 1_455 S
C387 C386 1.382 . S
C387 C388 1.400 . S
C387 H398 0.930 . S
C388 C387 1.400 . S
C388 C389 1.384 . S
C389 C388 1.384 . S
C389 C391 1.392 1_455 S
C389 H399 0.931 . S
C390 C386 1.393 1_655 S
C390 C391 1.401 . S
C390 H400 0.930 . S
C391 C389 1.392 1_655 S
C391 C390 1.401 . S
C391 H401 0.930 . S
C392 O370 1.262 1_554 S
C392 O371 1.260 . S
C393 Tb329 2.833 . S
C393 O368 1.251 . S
C393 O373 1.256 1_655 S
C393 C386 1.500 1_655 S
H394 C377 0.930 . S
H395 C378 0.931 . S
H396 C379 0.930 . S
H397 C380 0.930 . S
H398 C387 0.930 . S
H399 C389 0.931 . S
H400 C390 0.930 . S
H401 C391 0.930 . S
Tb402 N433 2.660 . S
Tb402 N440 2.600 . S
Tb402 O446 2.546 . S
Tb402 O447 2.610 . S
Tb402 O449 2.320 . S
Tb402 O450 2.552 . S
Tb402 O451 2.413 . S
Tb402 O453 2.362 . S
Tb402 O454 2.421 . S
Tb402 C466 2.833 . S
C403 C406 1.432 . S
C403 C407 1.414 . S
C403 N410 1.359 . S
C404 C406 1.417 . S
C404 C408 1.432 . S
C404 C416 1.410 . S
C405 C407 1.444 . S
C405 C408 1.317 . S
C405 H428 0.929 . S
C406 C403 1.432 . S
C406 C404 1.417 . S
C406 N414 1.380 . S
C407 C403 1.414 . S
C407 C405 1.444 . S
C407 C412 1.385 . S
C408 C404 1.432 . S
C408 C405 1.317 . S
C408 H420 0.930 . S
C409 C411 1.392 . S
C409 C412 1.370 . S
C409 H421 0.931 . S
N410 C403 1.359 . S
N410 C411 1.327 . S
N410 Tb413 2.600 1_556 S
C411 C409 1.392 . S
C411 N410 1.327 . S
C411 H418 0.930 . S
C412 C407 1.385 . S
C412 C409 1.370 . S
C412 H431 0.930 . S
Tb413 N410 2.600 1_554 S
Tb413 N414 2.651 1_554 S
Tb413 O447 2.362 . S
Tb413 O448 2.421 . S
Tb413 O452 2.546 1_554 S
Tb413 O453 2.610 . S
Tb413 O455 2.320 . S
Tb413 O456 2.552 1_554 S
Tb413 O457 2.413 1_554 S
Tb413 C477 2.833 1_554 S
N414 C406 1.380 . S
N414 Tb413 2.651 1_556 S
N414 C415 1.296 1_556 S
C415 N414 1.296 1_554 S
C415 C417 1.407 . S
C415 H422 0.930 . S
C416 C404 1.410 . S
C416 C417 1.345 1_556 S
C416 H424 0.930 . S
C417 C415 1.407 . S
C417 C416 1.345 1_554 S
C417 H419 0.930 . S
H418 C411 0.930 . S
H419 C417 0.930 . S
H420 C408 0.930 . S
H421 C409 0.931 . S
H422 C415 0.930 . S
H423 C437 0.930 . S
H424 C416 0.930 . S
H425 C443 0.930 . S
H426 C434 0.930 . S
H427 C441 0.931 . S
H428 C405 0.929 . S
H429 C435 0.930 . S
H430 C468 0.930 . S
H431 C412 0.930 . S
H432 C467 0.929 . S
N433 Tb402 2.660 . S
N433 C434 1.305 . S
N433 C438 1.360 . S
C434 H426 0.930 . S
C434 N433 1.305 . S
C434 C437 1.407 . S
C435 H429 0.930 . S
C435 C436 1.410 . S
C435 C437 1.345 . S
C436 C435 1.410 . S
C436 C438 1.417 . S
C436 C468 1.432 . S
C437 H423 0.930 . S
C437 C434 1.407 . S
C437 C435 1.345 . S
C438 N433 1.360 . S
C438 C436 1.417 . S
C438 C442 1.432 . S
H439 C444 0.930 . S
N440 Tb402 2.600 . S
N440 C442 1.359 . S
N440 C443 1.327 . S
C441 H427 0.931 . S
C441 C443 1.392 . S
C441 C444 1.370 . S
C442 C438 1.432 . S
C442 N440 1.359 . S
C442 C445 1.414 . S
C443 H425 0.930 . S
C443 N440 1.327 . S
C443 C441 1.392 . S
C444 H439 0.930 . S
C444 C441 1.370 . S
C444 C445 1.385 . S
C445 C442 1.414 . S
C445 C444 1.385 . S
C445 C467 1.444 . S
O446 Tb402 2.546 . S
O446 C466 1.251 . S
O447 Tb402 2.610 . S
O447 Tb413 2.362 . S
O447 C458 1.283 . S
O448 Tb413 2.421 . S
O448 C465 1.262 . S
O449 Tb402 2.320 . S
O449 C465 1.260 . S
O450 Tb402 2.552 . S
O450 C458 1.243 . S
O451 Tb402 2.413 . S
O451 C466 1.256 . S
O452 Tb413 2.546 1_556 S
O452 C477 1.251 . S
O453 Tb402 2.362 . S
O453 Tb413 2.610 . S
O453 C469 1.283 . S
O454 Tb402 2.421 . S
O454 C476 1.262 . S
O455 Tb413 2.320 . S
O455 C476 1.260 . S
O456 Tb413 2.552 1_556 S
O456 C469 1.243 1_556 S
O457 Tb413 2.413 1_556 S
O457 C477 1.256 . S
C458 O447 1.283 . S
C458 O450 1.243 . S
C459 C461 1.382 . S
C459 C463 1.393 . S
C459 C466 1.500 . S
C460 C461 1.400 . S
C460 C462 1.384 . S
C461 C459 1.382 . S
C461 C460 1.400 . S
C461 H478 0.930 . S
C462 C460 1.384 . S
C462 C464 1.392 . S
C462 H479 0.931 . S
C463 C459 1.393 . S
C463 C464 1.401 . S
C463 H480 0.930 . S
C464 C462 1.392 . S
C464 C463 1.401 . S
C464 H481 0.930 . S
C465 O448 1.262 . S
C465 O449 1.260 . S
C466 Tb402 2.833 . S
C466 O446 1.251 . S
C466 O451 1.256 . S
C466 C459 1.500 . S
C467 H432 0.929 . S
C467 C445 1.444 . S
C467 C468 1.317 . S
C468 H430 0.930 . S
C468 C436 1.432 . S
C468 C467 1.317 . S
C469 O453 1.283 . S
C469 O456 1.243 1_554 S
C470 C471 1.382 . S
C470 C474 1.393 . S
C470 C477 1.500 . S
C471 C470 1.382 . S
C471 C472 1.400 . S
C471 H482 0.930 . S
C472 C471 1.400 . S
C472 C473 1.384 . S
C473 C472 1.384 . S
C473 C475 1.392 . S
C473 H483 0.931 . S
C474 C470 1.393 . S
C474 C475 1.401 . S
C474 H484 0.930 . S
C475 C473 1.392 . S
C475 C474 1.401 . S
C475 H485 0.930 . S
C476 O454 1.262 . S
C476 O455 1.260 . S
C477 Tb413 2.833 1_556 S
C477 O452 1.251 . S
C477 O457 1.256 . S
C477 C470 1.500 . S
H478 C461 0.930 . S
H479 C462 0.931 . S
H480 C463 0.930 . S
H481 C464 0.930 . S
H482 C471 0.930 . S
H483 C473 0.931 . S
H484 C474 0.930 . S
H485 C475 0.930 . S
Tb486 N517 2.660 . S
Tb486 N524 2.600 . S
Tb486 O530 2.546 . S
Tb486 O531 2.610 . S
Tb486 O533 2.320 . S
Tb486 O534 2.552 . S
Tb486 O535 2.413 . S
Tb486 O537 2.362 . S
Tb486 O538 2.421 . S
Tb486 C550 2.833 . S
C487 C490 1.432 . S
C487 C491 1.414 . S
C487 N494 1.359 . S
C488 C490 1.417 . S
C488 C492 1.432 . S
C488 C500 1.410 . S
C489 C491 1.444 . S
C489 C492 1.317 . S
C489 H512 0.929 . S
C490 C487 1.432 . S
C490 C488 1.417 . S
C490 N498 1.360 . S
C491 C487 1.414 . S
C491 C489 1.444 . S
C491 C496 1.385 . S
C492 C488 1.432 . S
C492 C489 1.317 . S
C492 H504 0.930 . S
C493 C495 1.392 . S
C493 C496 1.370 . S
C493 H505 0.931 . S
N494 C487 1.359 . S
N494 C495 1.327 . S
N494 Tb497 2.600 . S
C495 C493 1.392 . S
C495 N494 1.327 . S
C495 H502 0.930 . S
C496 C491 1.385 . S
C496 C493 1.370 . S
C496 H515 0.930 . S
Tb497 N494 2.600 . S
Tb497 N498 2.660 . S
Tb497 O531 2.362 . S
Tb497 O532 2.421 . S
Tb497 O536 2.546 . S
Tb497 O537 2.610 . S
Tb497 O539 2.320 . S
Tb497 O540 2.552 . S
Tb497 O541 2.413 . S
Tb497 C561 2.833 . S
N498 C490 1.360 . S
N498 Tb497 2.660 . S
N498 C499 1.305 . S
C499 N498 1.305 . S
C499 C501 1.407 . S
C499 H506 0.930 . S
C500 C488 1.410 . S
C500 C501 1.345 . S
C500 H508 0.930 . S
C501 C499 1.407 . S
C501 C500 1.345 . S
C501 H503 0.930 . S
H502 C495 0.930 . S
H503 C501 0.930 . S
H504 C492 0.930 . S
H505 C493 0.931 . S
H506 C499 0.930 . S
H507 C521 0.930 . S
H508 C500 0.930 . S
H509 C527 0.930 . S
H510 C518 0.930 . S
H511 C525 0.931 . S
H512 C489 0.929 . S
H513 C519 0.930 . S
H514 C552 0.930 . S
H515 C496 0.930 . S
H516 C551 0.929 . S
N517 Tb486 2.660 . S
N517 C518 1.305 . S
N517 C522 1.360 . S
C518 H510 0.930 . S
C518 N517 1.305 . S
C518 C521 1.407 . S
C519 H513 0.930 . S
C519 C520 1.410 . S
C519 C521 1.345 . S
C520 C519 1.410 . S
C520 C522 1.417 . S
C520 C552 1.432 . S
C521 H507 0.930 . S
C521 C518 1.407 . S
C521 C519 1.345 . S
C522 N517 1.360 . S
C522 C520 1.417 . S
C522 C526 1.432 . S
H523 C528 0.930 . S
N524 Tb486 2.600 . S
N524 C526 1.359 . S
N524 C527 1.327 . S
C525 H511 0.931 . S
C525 C527 1.392 . S
C525 C528 1.370 . S
C526 C522 1.432 . S
C526 N524 1.359 . S
C526 C529 1.414 . S
C527 H509 0.930 . S
C527 N524 1.327 . S
C527 C525 1.392 . S
C528 H523 0.930 . S
C528 C525 1.370 . S
C528 C529 1.385 . S
C529 C526 1.414 . S
C529 C528 1.385 . S
C529 C551 1.444 . S
O530 Tb486 2.546 . S
O530 C550 1.251 . S
O531 Tb486 2.610 . S
O531 Tb497 2.362 . S
O531 C542 1.283 . S
O532 Tb497 2.421 . S
O532 C549 1.262 . S
O533 Tb486 2.320 . S
O533 C549 1.260 . S
O534 Tb486 2.552 . S
O534 C542 1.243 . S
O535 Tb486 2.413 . S
O535 C550 1.256 . S
O536 Tb497 2.546 . S
O536 C561 1.251 . S
O537 Tb486 2.362 . S
O537 Tb497 2.610 . S
O537 C553 1.283 . S
O538 Tb486 2.421 . S
O538 C560 1.262 . S
O539 Tb497 2.320 . S
O539 C560 1.260 . S
O540 Tb497 2.552 . S
O540 C553 1.243 . S
O541 Tb497 2.413 . S
O541 C561 1.256 . S
C542 O531 1.283 . S
C542 O534 1.243 . S
C543 C545 1.382 . S
C543 C547 1.393 . S
C543 C550 1.500 . S
C544 C545 1.400 . S
C544 C546 1.384 . S
C545 C543 1.382 . S
C545 C544 1.400 . S
C545 H562 0.930 . S
C546 C544 1.384 . S
C546 C548 1.392 . S
C546 H563 0.931 . S
C547 C543 1.393 . S
C547 C548 1.401 . S
C547 H564 0.930 . S
C548 C546 1.392 . S
C548 C547 1.401 . S
C548 H565 0.930 . S
C549 O532 1.262 . S
C549 O533 1.260 . S
C550 Tb486 2.833 . S
C550 O530 1.251 . S
C550 O535 1.256 . S
C550 C543 1.500 . S
C551 H516 0.929 . S
C551 C529 1.444 . S
C551 C552 1.317 . S
C552 H514 0.930 . S
C552 C520 1.432 . S
C552 C551 1.317 . S
C553 O537 1.283 . S
C553 O540 1.243 . S
C554 C555 1.382 . S
C554 C558 1.393 . S
C554 C561 1.500 . S
C555 C554 1.382 . S
C555 C556 1.400 . S
C555 H566 0.930 . S
C556 C555 1.400 . S
C556 C557 1.384 . S
C557 C556 1.384 . S
C557 C559 1.392 . S
C557 H567 0.931 . S
C558 C554 1.393 . S
C558 C559 1.401 . S
C558 H568 0.930 . S
C559 C557 1.392 . S
C559 C558 1.401 . S
C559 H569 0.930 . S
C560 O538 1.262 . S
C560 O539 1.260 . S
C561 Tb497 2.833 . S
C561 O536 1.251 . S
C561 O541 1.256 . S
C561 C554 1.500 . S
H562 C545 0.930 . S
H563 C546 0.931 . S
H564 C547 0.930 . S
H565 C548 0.930 . S
H566 C555 0.930 . S
H567 C557 0.931 . S
H568 C558 0.930 . S
H569 C559 0.930 . S
Tb570 N601 2.660 . S
Tb570 N608 2.600 . S
Tb570 O614 2.546 . S
Tb570 O615 2.610 . S
Tb570 O617 2.320 . S
Tb570 O618 2.552 . S
Tb570 O619 2.413 . S
Tb570 O621 2.362 . S
Tb570 O622 2.421 . S
Tb570 C634 2.833 . S
C571 C574 1.432 . S
C571 C575 1.414 . S
C571 N578 1.359 . S
C572 C574 1.417 . S
C572 C576 1.432 . S
C572 C584 1.410 . S
C573 C575 1.444 . S
C573 C576 1.317 . S
C573 H596 0.929 . S
C574 C571 1.432 . S
C574 C572 1.417 . S
C574 N582 1.360 . S
C575 C571 1.414 . S
C575 C573 1.444 . S
C575 C580 1.385 . S
C576 C572 1.432 . S
C576 C573 1.317 . S
C576 H588 0.930 . S
C577 C579 1.392 . S
C577 C580 1.370 . S
C577 H589 0.931 . S
N578 C571 1.359 . S
N578 C579 1.327 . S
N578 Tb581 2.600 . S
C579 C577 1.392 . S
C579 N578 1.327 . S
C579 H586 0.930 . S
C580 C575 1.385 . S
C580 C577 1.370 . S
C580 H599 0.930 . S
Tb581 N578 2.600 . S
Tb581 N582 2.660 . S
Tb581 O615 2.362 . S
Tb581 O616 2.421 . S
Tb581 O620 2.546 . S
Tb581 O621 2.610 . S
Tb581 O623 2.320 . S
Tb581 O624 2.552 . S
Tb581 O625 2.413 . S
Tb581 C645 2.833 . S
N582 C574 1.360 . S
N582 Tb581 2.660 . S
N582 C583 1.305 . S
C583 N582 1.305 . S
C583 C585 1.407 . S
C583 H590 0.930 . S
C584 C572 1.410 . S
C584 C585 1.345 . S
C584 H592 0.930 . S
C585 C583 1.407 . S
C585 C584 1.345 . S
C585 H587 0.930 . S
H586 C579 0.930 . S
H587 C585 0.930 . S
H588 C576 0.930 . S
H589 C577 0.931 . S
H590 C583 0.930 . S
H591 C605 0.930 . S
H592 C584 0.930 . S
H593 C611 0.930 . S
H594 C602 0.930 . S
H595 C609 0.931 . S
H596 C573 0.929 . S
H597 C603 0.930 . S
H598 C636 0.930 . S
H599 C580 0.930 . S
H600 C635 0.929 . S
N601 Tb570 2.660 . S
N601 C602 1.305 . S
N601 C606 1.360 . S
C602 H594 0.930 . S
C602 N601 1.305 . S
C602 C605 1.407 . S
C603 H597 0.930 . S
C603 C604 1.410 . S
C603 C605 1.345 . S
C604 C603 1.410 . S
C604 C606 1.417 . S
C604 C636 1.432 . S
C605 H591 0.930 . S
C605 C602 1.407 . S
C605 C603 1.345 . S
C606 N601 1.360 . S
C606 C604 1.417 . S
C606 C610 1.432 . S
H607 C612 0.930 . S
N608 Tb570 2.600 . S
N608 C610 1.359 . S
N608 C611 1.327 . S
C609 H595 0.931 . S
C609 C611 1.392 . S
C609 C612 1.370 . S
C610 C606 1.432 . S
C610 N608 1.359 . S
C610 C613 1.414 . S
C611 H593 0.930 . S
C611 N608 1.327 . S
C611 C609 1.392 . S
C612 H607 0.930 . S
C612 C609 1.370 . S
C612 C613 1.385 . S
C613 C610 1.414 . S
C613 C612 1.385 . S
C613 C635 1.444 . S
O614 Tb570 2.546 . S
O614 C634 1.251 . S
O615 Tb570 2.610 . S
O615 Tb581 2.362 . S
O615 C626 1.283 . S
O616 Tb581 2.421 . S
O616 C633 1.262 . S
O617 Tb570 2.320 . S
O617 C633 1.260 . S
O618 Tb570 2.552 . S
O618 C626 1.243 . S
O619 Tb570 2.413 . S
O619 C634 1.256 . S
O620 Tb581 2.546 . S
O620 C645 1.251 . S
O621 Tb570 2.362 . S
O621 Tb581 2.610 . S
O621 C637 1.283 . S
O622 Tb570 2.421 . S
O622 C644 1.262 . S
O623 Tb581 2.320 . S
O623 C644 1.260 . S
O624 Tb581 2.552 . S
O624 C637 1.243 . S
O625 Tb581 2.413 . S
O625 C645 1.256 . S
C626 O615 1.283 . S
C626 O618 1.243 . S
C627 C629 1.382 . S
C627 C631 1.393 . S
C627 C634 1.500 . S
C628 C629 1.400 . S
C628 C630 1.384 . S
C629 C627 1.382 . S
C629 C628 1.400 . S
C629 H646 0.930 . S
C630 C628 1.384 . S
C630 C632 1.392 . S
C630 H647 0.931 . S
C631 C627 1.393 . S
C631 C632 1.401 . S
C631 H648 0.930 . S
C632 C630 1.392 . S
C632 C631 1.401 . S
C632 H649 0.930 . S
C633 O616 1.262 . S
C633 O617 1.260 . S
C634 Tb570 2.833 . S
C634 O614 1.251 . S
C634 O619 1.256 . S
C634 C627 1.500 . S
C635 H600 0.929 . S
C635 C613 1.444 . S
C635 C636 1.317 . S
C636 H598 0.930 . S
C636 C604 1.432 . S
C636 C635 1.317 . S
C637 O621 1.283 . S
C637 O624 1.243 . S
C638 C639 1.382 . S
C638 C642 1.393 . S
C638 C645 1.500 . S
C639 C638 1.382 . S
C639 C640 1.400 . S
C639 H650 0.930 . S
C640 C639 1.400 . S
C640 C641 1.384 . S
C641 C640 1.384 . S
C641 C643 1.392 . S
C641 H651 0.931 . S
C642 C638 1.393 . S
C642 C643 1.401 . S
C642 H652 0.930 . S
C643 C641 1.392 . S
C643 C642 1.401 . S
C643 H653 0.930 . S
C644 O622 1.262 . S
C644 O623 1.260 . S
C645 Tb581 2.833 . S
C645 O620 1.251 . S
C645 O625 1.256 . S
C645 C638 1.500 . S
H646 C629 0.930 . S
H647 C630 0.931 . S
H648 C631 0.930 . S
H649 C632 0.930 . S
H650 C639 0.930 . S
H651 C641 0.931 . S
H652 C642 0.930 . S
H653 C643 0.930 . S
Tb654 N685 2.660 . S
Tb654 N692 2.600 . S
Tb654 O698 2.546 . S
Tb654 O699 2.610 . S
Tb654 O701 2.320 . S
Tb654 O702 2.552 . S
Tb654 O703 2.413 . S
Tb654 O705 2.362 . S
Tb654 O706 2.421 . S
Tb654 C718 2.833 . S
C655 C658 1.432 . S
C655 C659 1.414 . S
C655 N662 1.359 . S
C656 C658 1.417 . S
C656 C660 1.432 . S
C656 C668 1.410 . S
C657 C659 1.444 . S
C657 C660 1.317 . S
C657 H680 0.929 . S
C658 C655 1.432 . S
C658 C656 1.417 . S
C658 N666 1.360 . S
C659 C655 1.414 . S
C659 C657 1.444 . S
C659 C664 1.385 . S
C660 C656 1.432 . S
C660 C657 1.317 . S
C660 H672 0.930 . S
C661 C663 1.392 . S
C661 C664 1.370 . S
C661 H673 0.931 . S
N662 C655 1.359 . S
N662 C663 1.327 . S
N662 Tb665 2.600 . S
C663 C661 1.392 . S
C663 N662 1.327 . S
C663 H670 0.930 . S
C664 C659 1.385 . S
C664 C661 1.370 . S
C664 H683 0.930 . S
Tb665 N662 2.600 . S
Tb665 N666 2.660 . S
Tb665 O699 2.362 . S
Tb665 O700 2.421 . S
Tb665 O704 2.546 . S
Tb665 O705 2.610 . S
Tb665 O707 2.320 . S
Tb665 O708 2.552 . S
Tb665 O709 2.413 . S
Tb665 C729 2.833 . S
N666 C658 1.360 . S
N666 Tb665 2.660 . S
N666 C667 1.305 . S
C667 N666 1.305 . S
C667 C669 1.407 . S
C667 H674 0.930 . S
C668 C656 1.410 . S
C668 C669 1.345 . S
C668 H676 0.930 . S
C669 C667 1.407 . S
C669 C668 1.345 . S
C669 H671 0.930 . S
H670 C663 0.930 . S
H671 C669 0.930 . S
H672 C660 0.930 . S
H673 C661 0.931 . S
H674 C667 0.930 . S
H675 C689 0.930 . S
H676 C668 0.930 . S
H677 C695 0.930 . S
H678 C686 0.930 . S
H679 C693 0.931 . S
H680 C657 0.929 . S
H681 C687 0.930 . S
H682 C720 0.930 . S
H683 C664 0.930 . S
H684 C719 0.929 . S
N685 Tb654 2.660 . S
N685 C686 1.305 . S
N685 C690 1.360 . S
C686 H678 0.930 . S
C686 N685 1.305 . S
C686 C689 1.407 . S
C687 H681 0.930 . S
C687 C688 1.410 . S
C687 C689 1.345 . S
C688 C687 1.410 . S
C688 C690 1.417 . S
C688 C720 1.432 . S
C689 H675 0.930 . S
C689 C686 1.407 . S
C689 C687 1.345 . S
C690 N685 1.360 . S
C690 C688 1.417 . S
C690 C694 1.432 . S
H691 C696 0.930 . S
N692 Tb654 2.600 . S
N692 C694 1.359 . S
N692 C695 1.327 . S
C693 H679 0.931 . S
C693 C695 1.392 . S
C693 C696 1.370 . S
C694 C690 1.432 . S
C694 N692 1.359 . S
C694 C697 1.414 . S
C695 H677 0.930 . S
C695 N692 1.327 . S
C695 C693 1.392 . S
C696 H691 0.930 . S
C696 C693 1.370 . S
C696 C697 1.385 . S
C697 C694 1.414 . S
C697 C696 1.385 . S
C697 C719 1.444 . S
O698 Tb654 2.546 . S
O698 C718 1.251 . S
O699 Tb654 2.610 . S
O699 Tb665 2.362 . S
O699 C710 1.283 . S
O700 Tb665 2.421 . S
O700 C717 1.262 . S
O701 Tb654 2.320 . S
O701 C717 1.260 . S
O702 Tb654 2.552 . S
O702 C710 1.243 . S
O703 Tb654 2.413 . S
O703 C718 1.256 . S
O704 Tb665 2.546 . S
O704 C729 1.251 . S
O705 Tb654 2.362 . S
O705 Tb665 2.610 . S
O705 C721 1.283 . S
O706 Tb654 2.421 . S
O706 C728 1.262 . S
O707 Tb665 2.320 . S
O707 C728 1.260 . S
O708 Tb665 2.552 . S
O708 C721 1.243 . S
O709 Tb665 2.413 . S
O709 C729 1.256 . S
C710 O699 1.283 . S
C710 O702 1.243 . S
C711 C713 1.382 . S
C711 C715 1.393 . S
C711 C718 1.500 . S
C712 C713 1.400 . S
C712 C714 1.384 . S
C713 C711 1.382 . S
C713 C712 1.400 . S
C713 H730 0.930 . S
C714 C712 1.384 . S
C714 C716 1.392 . S
C714 H731 0.931 . S
C715 C711 1.393 . S
C715 C716 1.401 . S
C715 H732 0.930 . S
C716 C714 1.392 . S
C716 C715 1.401 . S
C716 H733 0.930 . S
C717 O700 1.262 . S
C717 O701 1.260 . S
C718 Tb654 2.833 . S
C718 O698 1.251 . S
C718 O703 1.256 . S
C718 C711 1.500 . S
C719 H684 0.929 . S
C719 C697 1.444 . S
C719 C720 1.317 . S
C720 H682 0.930 . S
C720 C688 1.432 . S
C720 C719 1.317 . S
C721 O705 1.283 . S
C721 O708 1.243 . S
C722 C723 1.382 . S
C722 C726 1.393 . S
C722 C729 1.500 . S
C723 C722 1.382 . S
C723 C724 1.400 . S
C723 H734 0.930 . S
C724 C723 1.400 . S
C724 C725 1.384 . S
C725 C724 1.384 . S
C725 C727 1.392 . S
C725 H735 0.931 . S
C726 C722 1.393 . S
C726 C727 1.401 . S
C726 H736 0.930 . S
C727 C725 1.392 . S
C727 C726 1.401 . S
C727 H737 0.930 . S
C728 O706 1.262 . S
C728 O707 1.260 . S
C729 Tb665 2.833 . S
C729 O704 1.251 . S
C729 O709 1.256 . S
C729 C722 1.500 . S
H730 C713 0.930 . S
H731 C714 0.931 . S
H732 C715 0.930 . S
H733 C716 0.930 . S
H734 C723 0.930 . S
H735 C725 0.931 . S
H736 C726 0.930 . S
H737 C727 0.930 . S
Tb738 N769 2.660 . S
Tb738 N776 2.600 . S
Tb738 O782 2.546 . S
Tb738 O783 2.610 . S
Tb738 O785 2.320 . S
Tb738 O786 2.552 . S
Tb738 O787 2.413 . S
Tb738 O789 2.362 . S
Tb738 O790 2.421 . S
Tb738 C802 2.833 . S
C739 C742 1.432 . S
C739 C743 1.414 . S
C739 N746 1.359 . S
C740 C742 1.417 . S
C740 C744 1.432 . S
C740 C752 1.410 . S
C741 C743 1.444 . S
C741 C744 1.317 . S
C741 H764 0.929 . S
C742 C739 1.432 . S
C742 C740 1.417 . S
C742 N750 1.360 . S
C743 C739 1.414 . S
C743 C741 1.444 . S
C743 C748 1.385 . S
C744 C740 1.432 . S
C744 C741 1.317 . S
C744 H756 0.930 . S
C745 C747 1.392 . S
C745 C748 1.370 . S
C745 H757 0.931 . S
N746 C739 1.359 . S
N746 C747 1.327 . S
N746 Tb749 2.600 . S
C747 C745 1.392 . S
C747 N746 1.327 . S
C747 H754 0.930 . S
C748 C743 1.385 . S
C748 C745 1.370 . S
C748 H767 0.930 . S
Tb749 N746 2.600 . S
Tb749 N750 2.660 . S
Tb749 O783 2.362 . S
Tb749 O784 2.421 . S
Tb749 O788 2.546 . S
Tb749 O789 2.610 . S
Tb749 O791 2.320 . S
Tb749 O792 2.552 . S
Tb749 O793 2.413 . S
Tb749 C813 2.833 . S
N750 C742 1.360 . S
N750 Tb749 2.660 . S
N750 C751 1.305 . S
C751 N750 1.305 . S
C751 C753 1.407 . S
C751 H758 0.930 . S
C752 C740 1.410 . S
C752 C753 1.345 . S
C752 H760 0.930 . S
C753 C751 1.407 . S
C753 C752 1.345 . S
C753 H755 0.930 . S
H754 C747 0.930 . S
H755 C753 0.930 . S
H756 C744 0.930 . S
H757 C745 0.931 . S
H758 C751 0.930 . S
H759 C773 0.930 . S
H760 C752 0.930 . S
H761 C779 0.930 . S
H762 C770 0.930 . S
H763 C777 0.931 . S
H764 C741 0.929 . S
H765 C771 0.930 . S
H766 C804 0.930 . S
H767 C748 0.930 . S
H768 C803 0.929 . S
N769 Tb738 2.660 . S
N769 C770 1.305 . S
N769 C774 1.360 . S
C770 H762 0.930 . S
C770 N769 1.305 . S
C770 C773 1.407 . S
C771 H765 0.930 . S
C771 C772 1.410 . S
C771 C773 1.345 . S
C772 C771 1.410 . S
C772 C774 1.417 . S
C772 C804 1.432 . S
C773 H759 0.930 . S
C773 C770 1.407 . S
C773 C771 1.345 . S
C774 N769 1.360 . S
C774 C772 1.417 . S
C774 C778 1.432 . S
H775 C780 0.930 . S
N776 Tb738 2.600 . S
N776 C778 1.359 . S
N776 C779 1.327 . S
C777 H763 0.931 . S
C777 C779 1.392 . S
C777 C780 1.370 . S
C778 C774 1.432 . S
C778 N776 1.359 . S
C778 C781 1.414 . S
C779 H761 0.930 . S
C779 N776 1.327 . S
C779 C777 1.392 . S
C780 H775 0.930 . S
C780 C777 1.370 . S
C780 C781 1.385 . S
C781 C778 1.414 . S
C781 C780 1.385 . S
C781 C803 1.444 . S
O782 Tb738 2.546 . S
O782 C802 1.251 . S
O783 Tb738 2.610 . S
O783 Tb749 2.362 . S
O783 C794 1.283 . S
O784 Tb749 2.421 . S
O784 C801 1.262 . S
O785 Tb738 2.320 . S
O785 C801 1.260 . S
O786 Tb738 2.552 . S
O786 C794 1.243 . S
O787 Tb738 2.413 . S
O787 C802 1.256 . S
O788 Tb749 2.546 . S
O788 C813 1.251 . S
O789 Tb738 2.362 . S
O789 Tb749 2.610 . S
O789 C805 1.283 . S
O790 Tb738 2.421 . S
O790 C812 1.262 . S
O791 Tb749 2.320 . S
O791 C812 1.260 . S
O792 Tb749 2.552 . S
O792 C805 1.243 . S
O793 Tb749 2.413 . S
O793 C813 1.256 . S
C794 O783 1.283 . S
C794 O786 1.243 . S
C795 C797 1.382 . S
C795 C799 1.393 . S
C795 C802 1.500 . S
C796 C797 1.400 . S
C796 C798 1.384 . S
C797 C795 1.382 . S
C797 C796 1.400 . S
C797 H814 0.930 . S
C798 C796 1.384 . S
C798 C800 1.392 . S
C798 H815 0.931 . S
C799 C795 1.393 . S
C799 C800 1.401 . S
C799 H816 0.930 . S
C800 C798 1.392 . S
C800 C799 1.401 . S
C800 H817 0.930 . S
C801 O784 1.262 . S
C801 O785 1.260 . S
C802 Tb738 2.833 . S
C802 O782 1.251 . S
C802 O787 1.256 . S
C802 C795 1.500 . S
C803 H768 0.929 . S
C803 C781 1.444 . S
C803 C804 1.317 . S
C804 H766 0.930 . S
C804 C772 1.432 . S
C804 C803 1.317 . S
C805 O789 1.283 . S
C805 O792 1.243 . S
C806 C807 1.382 . S
C806 C810 1.393 . S
C806 C813 1.500 . S
C807 C806 1.382 . S
C807 C808 1.400 . S
C807 H818 0.930 . S
C808 C807 1.400 . S
C808 C809 1.384 . S
C809 C808 1.384 . S
C809 C811 1.392 . S
C809 H819 0.931 . S
C810 C806 1.393 . S
C810 C811 1.401 . S
C810 H820 0.930 . S
C811 C809 1.392 . S
C811 C810 1.401 . S
C811 H821 0.930 . S
C812 O790 1.262 . S
C812 O791 1.260 . S
C813 Tb749 2.833 . S
C813 O788 1.251 . S
C813 O793 1.256 . S
C813 C806 1.500 . S
H814 C797 0.930 . S
H815 C798 0.931 . S
H816 C799 0.930 . S
H817 C800 0.930 . S
H818 C807 0.930 . S
H819 C809 0.931 . S
H820 C810 0.930 . S
H821 C811 0.930 . S
Tb822 N853 2.660 . S
Tb822 N860 2.600 . S
Tb822 O866 2.546 . S
Tb822 O867 2.610 . S
Tb822 O869 2.320 . S
Tb822 O870 2.552 . S
Tb822 O871 2.413 . S
Tb822 O873 2.362 . S
Tb822 O874 2.421 . S
Tb822 C886 2.833 . S
C823 C826 1.432 . S
C823 C827 1.414 . S
C823 N830 1.359 . S
C824 C826 1.417 . S
C824 C828 1.432 . S
C824 C836 1.410 . S
C825 C827 1.444 . S
C825 C828 1.317 . S
C825 H848 0.929 . S
C826 C823 1.432 . S
C826 C824 1.417 . S
C826 N834 1.360 . S
C827 C823 1.414 . S
C827 C825 1.444 . S
C827 C832 1.385 . S
C828 C824 1.432 . S
C828 C825 1.317 . S
C828 H840 0.930 . S
C829 C831 1.392 . S
C829 C832 1.370 . S
C829 H841 0.931 . S
N830 C823 1.359 . S
N830 C831 1.327 . S
N830 Tb833 2.600 . S
C831 C829 1.392 . S
C831 N830 1.327 . S
C831 H838 0.930 . S
C832 C827 1.385 . S
C832 C829 1.370 . S
C832 H851 0.930 . S
Tb833 N830 2.600 . S
Tb833 N834 2.660 . S
Tb833 O867 2.362 . S
Tb833 O868 2.421 . S
Tb833 O872 2.546 . S
Tb833 O873 2.610 . S
Tb833 O875 2.320 . S
Tb833 O876 2.552 . S
Tb833 O877 2.413 . S
Tb833 C897 2.833 . S
N834 C826 1.360 . S
N834 Tb833 2.660 . S
N834 C835 1.305 . S
C835 N834 1.305 . S
C835 C837 1.407 . S
C835 H842 0.930 . S
C836 C824 1.410 . S
C836 C837 1.345 . S
C836 H844 0.930 . S
C837 C835 1.407 . S
C837 C836 1.345 . S
C837 H839 0.930 . S
H838 C831 0.930 . S
H839 C837 0.930 . S
H840 C828 0.930 . S
H841 C829 0.931 . S
H842 C835 0.930 . S
H843 C857 0.930 . S
H844 C836 0.930 . S
H845 C863 0.930 . S
H846 C854 0.930 . S
H847 C861 0.931 . S
H848 C825 0.929 . S
H849 C855 0.930 . S
H850 C888 0.930 . S
H851 C832 0.930 . S
H852 C887 0.929 . S
N853 Tb822 2.660 . S
N853 C854 1.305 . S
N853 C858 1.360 . S
C854 H846 0.930 . S
C854 N853 1.305 . S
C854 C857 1.407 . S
C855 H849 0.930 . S
C855 C856 1.410 . S
C855 C857 1.345 . S
C856 C855 1.410 . S
C856 C858 1.417 . S
C856 C888 1.432 . S
C857 H843 0.930 . S
C857 C854 1.407 . S
C857 C855 1.345 . S
C858 N853 1.360 . S
C858 C856 1.417 . S
C858 C862 1.432 . S
H859 C864 0.930 . S
N860 Tb822 2.600 . S
N860 C862 1.359 . S
N860 C863 1.327 . S
C861 H847 0.931 . S
C861 C863 1.392 . S
C861 C864 1.370 . S
C862 C858 1.432 . S
C862 N860 1.359 . S
C862 C865 1.414 . S
C863 H845 0.930 . S
C863 N860 1.327 . S
C863 C861 1.392 . S
C864 H859 0.930 . S
C864 C861 1.370 . S
C864 C865 1.385 . S
C865 C862 1.414 . S
C865 C864 1.385 . S
C865 C887 1.444 . S
O866 Tb822 2.546 . S
O866 C886 1.251 . S
O867 Tb822 2.610 . S
O867 Tb833 2.362 . S
O867 C878 1.283 . S
O868 Tb833 2.421 . S
O868 C885 1.262 . S
O869 Tb822 2.320 . S
O869 C885 1.260 . S
O870 Tb822 2.552 . S
O870 C878 1.243 . S
O871 Tb822 2.413 . S
O871 C886 1.256 . S
O872 Tb833 2.546 . S
O872 C897 1.251 . S
O873 Tb822 2.362 . S
O873 Tb833 2.610 . S
O873 C889 1.283 . S
O874 Tb822 2.421 . S
O874 C896 1.262 . S
O875 Tb833 2.320 . S
O875 C896 1.260 . S
O876 Tb833 2.552 . S
O876 C889 1.243 . S
O877 Tb833 2.413 . S
O877 C897 1.256 . S
C878 O867 1.283 . S
C878 O870 1.243 . S
C879 C881 1.382 . S
C879 C883 1.393 . S
C879 C886 1.500 . S
C880 C881 1.400 . S
C880 C882 1.384 . S
C881 C879 1.382 . S
C881 C880 1.400 . S
C881 H898 0.930 . S
C882 C880 1.384 . S
C882 C884 1.392 . S
C882 H899 0.931 . S
C883 C879 1.393 . S
C883 C884 1.401 . S
C883 H900 0.930 . S
C884 C882 1.392 . S
C884 C883 1.401 . S
C884 H901 0.930 . S
C885 O868 1.262 . S
C885 O869 1.260 . S
C886 Tb822 2.833 . S
C886 O866 1.251 . S
C886 O871 1.256 . S
C886 C879 1.500 . S
C887 H852 0.929 . S
C887 C865 1.444 . S
C887 C888 1.317 . S
C888 H850 0.930 . S
C888 C856 1.432 . S
C888 C887 1.317 . S
C889 O873 1.283 . S
C889 O876 1.243 . S
C890 C891 1.382 . S
C890 C894 1.393 . S
C890 C897 1.500 . S
C891 C890 1.382 . S
C891 C892 1.400 . S
C891 H902 0.930 . S
C892 C891 1.400 . S
C892 C893 1.384 . S
C893 C892 1.384 . S
C893 C895 1.392 . S
C893 H903 0.931 . S
C894 C890 1.393 . S
C894 C895 1.401 . S
C894 H904 0.930 . S
C895 C893 1.392 . S
C895 C894 1.401 . S
C895 H905 0.930 . S
C896 O874 1.262 . S
C896 O875 1.260 . S
C897 Tb833 2.833 . S
C897 O872 1.251 . S
C897 O877 1.256 . S
C897 C890 1.500 . S
H898 C881 0.930 . S
H899 C882 0.931 . S
H900 C883 0.930 . S
H901 C884 0.930 . S
H902 C891 0.930 . S
H903 C893 0.931 . S
H904 C894 0.930 . S
H905 C895 0.930 . S
Tb906 N937 2.660 . S
Tb906 N944 2.600 . S
Tb906 O950 2.546 . S
Tb906 O951 2.610 . S
Tb906 O953 2.320 . S
Tb906 O954 2.552 . S
Tb906 O955 2.413 . S
Tb906 O957 2.362 . S
Tb906 O958 2.421 . S
Tb906 C970 2.833 . S
C907 C910 1.432 . S
C907 C911 1.414 . S
C907 N914 1.359 . S
C908 C910 1.417 . S
C908 C912 1.432 . S
C908 C920 1.410 . S
C909 C911 1.444 . S
C909 C912 1.317 . S
C909 H932 0.929 . S
C910 C907 1.432 . S
C910 C908 1.417 . S
C910 N918 1.360 . S
C911 C907 1.414 . S
C911 C909 1.444 . S
C911 C916 1.385 . S
C912 C908 1.432 . S
C912 C909 1.317 . S
C912 H924 0.930 . S
C913 C915 1.392 . S
C913 C916 1.370 . S
C913 H925 0.931 . S
N914 C907 1.359 . S
N914 C915 1.327 . S
N914 Tb917 2.600 . S
C915 C913 1.392 . S
C915 N914 1.327 . S
C915 H922 0.930 . S
C916 C911 1.385 . S
C916 C913 1.370 . S
C916 H935 0.930 . S
Tb917 N914 2.600 . S
Tb917 N918 2.660 . S
Tb917 O951 2.362 . S
Tb917 O952 2.421 . S
Tb917 O956 2.546 . S
Tb917 O957 2.610 . S
Tb917 O959 2.320 . S
Tb917 O960 2.552 . S
Tb917 O961 2.413 . S
Tb917 C981 2.833 . S
N918 C910 1.360 . S
N918 Tb917 2.660 . S
N918 C919 1.305 . S
C919 N918 1.305 . S
C919 C921 1.407 . S
C919 H926 0.930 . S
C920 C908 1.410 . S
C920 C921 1.345 . S
C920 H928 0.930 . S
C921 C919 1.407 . S
C921 C920 1.345 . S
C921 H923 0.930 . S
H922 C915 0.930 . S
H923 C921 0.930 . S
H924 C912 0.930 . S
H925 C913 0.931 . S
H926 C919 0.930 . S
H927 C941 0.930 . S
H928 C920 0.930 . S
H929 C947 0.930 . S
H930 C938 0.930 . S
H931 C945 0.931 . S
H932 C909 0.929 . S
H933 C939 0.930 . S
H934 C972 0.930 . S
H935 C916 0.930 . S
H936 C971 0.929 . S
N937 Tb906 2.660 . S
N937 C938 1.305 . S
N937 C942 1.360 . S
C938 H930 0.930 . S
C938 N937 1.305 . S
C938 C941 1.407 . S
C939 H933 0.930 . S
C939 C940 1.410 . S
C939 C941 1.345 . S
C940 C939 1.410 . S
C940 C942 1.417 . S
C940 C972 1.432 . S
C941 H927 0.930 . S
C941 C938 1.407 . S
C941 C939 1.345 . S
C942 N937 1.360 . S
C942 C940 1.417 . S
C942 C946 1.432 . S
H943 C948 0.930 . S
N944 Tb906 2.600 . S
N944 C946 1.359 . S
N944 C947 1.327 . S
C945 H931 0.931 . S
C945 C947 1.392 . S
C945 C948 1.370 . S
C946 C942 1.432 . S
C946 N944 1.359 . S
C946 C949 1.414 . S
C947 H929 0.930 . S
C947 N944 1.327 . S
C947 C945 1.392 . S
C948 H943 0.930 . S
C948 C945 1.370 . S
C948 C949 1.385 . S
C949 C946 1.414 . S
C949 C948 1.385 . S
C949 C971 1.444 . S
O950 Tb906 2.546 . S
O950 C970 1.251 . S
O951 Tb906 2.610 . S
O951 Tb917 2.362 . S
O951 C962 1.283 . S
O952 Tb917 2.421 . S
O952 C969 1.262 . S
O953 Tb906 2.320 . S
O953 C969 1.260 . S
O954 Tb906 2.552 . S
O954 C962 1.243 . S
O955 Tb906 2.413 . S
O955 C970 1.256 . S
O956 Tb917 2.546 . S
O956 C981 1.251 . S
O957 Tb906 2.362 . S
O957 Tb917 2.610 . S
O957 C973 1.283 . S
O958 Tb906 2.421 . S
O958 C980 1.262 . S
O959 Tb917 2.320 . S
O959 C980 1.260 . S
O960 Tb917 2.552 . S
O960 C973 1.243 . S
O961 Tb917 2.413 . S
O961 C981 1.256 . S
C962 O951 1.283 . S
C962 O954 1.243 . S
C963 C965 1.382 . S
C963 C967 1.393 . S
C963 C970 1.500 . S
C964 C965 1.400 . S
C964 C966 1.384 . S
C965 C963 1.382 . S
C965 C964 1.400 . S
C965 H982 0.930 . S
C966 C964 1.384 . S
C966 C968 1.392 . S
C966 H983 0.931 . S
C967 C963 1.393 . S
C967 C968 1.401 . S
C967 H984 0.930 . S
C968 C966 1.392 . S
C968 C967 1.401 . S
C968 H985 0.930 . S
C969 O952 1.262 . S
C969 O953 1.260 . S
C970 Tb906 2.833 . S
C970 O950 1.251 . S
C970 O955 1.256 . S
C970 C963 1.500 . S
C971 H936 0.929 . S
C971 C949 1.444 . S
C971 C972 1.317 . S
C972 H934 0.930 . S
C972 C940 1.432 . S
C972 C971 1.317 . S
C973 O957 1.283 . S
C973 O960 1.243 . S
C974 C975 1.382 . S
C974 C978 1.393 . S
C974 C981 1.500 . S
C975 C974 1.382 . S
C975 C976 1.400 . S
C975 H986 0.930 . S
C976 C975 1.400 . S
C976 C977 1.384 . S
C977 C976 1.384 . S
C977 C979 1.392 . S
C977 H987 0.931 . S
C978 C974 1.393 . S
C978 C979 1.401 . S
C978 H988 0.930 . S
C979 C977 1.392 . S
C979 C978 1.401 . S
C979 H989 0.930 . S
C980 O958 1.262 . S
C980 O959 1.260 . S
C981 Tb917 2.833 . S
C981 O956 1.251 . S
C981 O961 1.256 . S
C981 C974 1.500 . S
H982 C965 0.930 . S
H983 C966 0.931 . S
H984 C967 0.930 . S
H985 C968 0.930 . S
H986 C975 0.930 . S
H987 C977 0.931 . S
H988 C978 0.930 . S
H989 C979 0.930 . S
H990 C1008 0.951 . S
H991 C1010 0.951 . S
H992 C1012 0.950 . S
H993 C1013 0.950 . S
H994 C1015 0.950 . S
H995 C1018 0.950 . S
H996 C1019 0.950 . S
H997 C1021 0.950 . S
H998 C1022 0.950 . S
H999 C1023 0.951 . S
H1000 C1025 0.951 . S
H1001 C1027 0.950 . S
H1002 C1028 0.950 . S
H1003 C1030 0.950 . S
H1004 C1033 0.950 . S
H1005 C1034 0.950 . S
H1006 C1036 0.950 . S
H1007 C1037 0.950 . S
C1008 H990 0.951 . S
C1008 C1009 1.366 . S
C1008 C1010 1.388 . S
C1009 C1008 1.366 . S
C1009 C1013 1.385 . S
C1010 H991 0.951 . S
C1010 C1008 1.388 . S
C1010 C1011 1.366 . S
C1011 C1010 1.366 . S
C1011 C1012 1.414 . S
C1011 C1014 1.499 . S
C1012 H992 0.950 . S
C1012 C1011 1.414 . S
C1012 C1013 1.374 . S
C1013 H993 0.950 . S
C1013 C1009 1.385 . S
C1013 C1012 1.374 . S
C1014 C1011 1.499 . S
C1014 C1015 1.373 . S
C1014 C1016 1.389 . S
C1015 H994 0.950 . S
C1015 C1014 1.373 . S
C1015 C1031 1.377 . S
C1016 C1014 1.389 . S
C1016 C1017 1.524 . S
C1016 C1030 1.377 . S
C1017 C1016 1.524 . S
C1017 C1018 1.397 . S
C1017 C1022 1.363 . S
C1018 H995 0.950 . S
C1018 C1017 1.397 . S
C1018 C1019 1.334 . S
C1019 H996 0.950 . S
C1019 C1018 1.334 . S
C1019 C1020 1.287 . S
C1020 C1019 1.287 . S
C1020 C1021 1.524 . S
C1020 H1039 0.913 . S
C1021 H997 0.950 . S
C1021 C1020 1.524 . S
C1021 C1022 1.415 . S
C1022 H998 0.950 . S
C1022 C1017 1.363 . S
C1022 C1021 1.415 . S
C1023 H999 0.951 . S
C1023 C1024 1.366 . S
C1023 C1025 1.388 . S
C1024 C1023 1.366 . S
C1024 C1028 1.385 . S
C1025 H1000 0.951 . S
C1025 C1023 1.388 . S
C1025 C1026 1.366 . S
C1026 C1025 1.366 . S
C1026 C1027 1.414 . S
C1026 C1029 1.499 . S
C1027 H1001 0.950 . S
C1027 C1026 1.414 . S
C1027 C1028 1.374 . S
C1028 H1002 0.950 . S
C1028 C1024 1.385 . S
C1028 C1027 1.374 . S
C1029 C1026 1.499 . S
C1029 C1030 1.373 . S
C1029 C1031 1.389 . S
C1030 H1003 0.950 . S
C1030 C1016 1.377 . S
C1030 C1029 1.373 . S
C1031 C1015 1.377 . S
C1031 C1029 1.389 . S
C1031 C1032 1.524 . S
C1032 C1031 1.524 . S
C1032 C1033 1.397 . S
C1032 C1037 1.363 . S
C1033 H1004 0.950 . S
C1033 C1032 1.397 . S
C1033 C1034 1.334 . S
C1034 H1005 0.950 . S
C1034 C1033 1.334 . S
C1034 C1035 1.287 . S
C1035 C1034 1.287 . S
C1035 C1036 1.524 . S
C1035 H1038 0.999 . S
C1036 H1006 0.950 . S
C1036 C1035 1.524 . S
C1036 C1037 1.415 . S
C1037 H1007 0.950 . S
C1037 C1032 1.363 . S
C1037 C1036 1.415 . S
H1038 C1035 0.999 . S
H1039 C1020 0.913 . S
H1040 C1058 0.951 . S
H1041 C1060 0.951 . S
H1042 C1062 0.950 . S
H1043 C1063 0.950 . S
H1044 C1065 0.950 . S
H1045 C1068 0.950 . S
H1046 C1069 0.950 . S
H1047 C1071 0.950 . S
H1048 C1072 0.950 . S
H1049 C1073 0.951 . S
H1050 C1075 0.951 . S
H1051 C1077 0.950 . S
H1052 C1078 0.950 . S
H1053 C1080 0.950 . S
H1054 C1083 0.950 . S
H1055 C1084 0.950 . S
H1056 C1086 0.950 . S
H1057 C1087 0.950 . S
C1058 H1040 0.951 . S
C1058 C1059 1.366 . S
C1058 C1060 1.388 . S
C1059 C1058 1.366 . S
C1059 C1063 1.385 . S
C1060 H1041 0.951 . S
C1060 C1058 1.388 . S
C1060 C1061 1.366 . S
C1061 C1060 1.366 . S
C1061 C1062 1.414 . S
C1061 C1064 1.499 . S
C1062 H1042 0.950 . S
C1062 C1061 1.414 . S
C1062 C1063 1.374 . S
C1063 H1043 0.950 . S
C1063 C1059 1.385 . S
C1063 C1062 1.374 . S
C1064 C1061 1.499 . S
C1064 C1065 1.373 . S
C1064 C1066 1.389 . S
C1065 H1044 0.950 . S
C1065 C1064 1.373 . S
C1065 C1081 1.377 . S
C1066 C1064 1.389 . S
C1066 C1067 1.524 . S
C1066 C1080 1.377 . S
C1067 C1066 1.524 . S
C1067 C1068 1.397 . S
C1067 C1072 1.363 . S
C1068 H1045 0.950 . S
C1068 C1067 1.397 . S
C1068 C1069 1.334 . S
C1069 H1046 0.950 . S
C1069 C1068 1.334 . S
C1069 C1070 1.287 . S
C1070 C1069 1.287 . S
C1070 C1071 1.524 . S
C1070 H1089 0.913 . S
C1071 H1047 0.950 . S
C1071 C1070 1.524 . S
C1071 C1072 1.415 . S
C1072 H1048 0.950 . S
C1072 C1067 1.363 . S
C1072 C1071 1.415 . S
C1073 H1049 0.951 . S
C1073 C1074 1.366 . S
C1073 C1075 1.388 . S
C1074 C1073 1.366 . S
C1074 C1078 1.385 . S
C1075 H1050 0.951 . S
C1075 C1073 1.388 . S
C1075 C1076 1.366 . S
C1076 C1075 1.366 . S
C1076 C1077 1.414 . S
C1076 C1079 1.499 . S
C1077 H1051 0.950 . S
C1077 C1076 1.414 . S
C1077 C1078 1.374 . S
C1078 H1052 0.950 . S
C1078 C1074 1.385 . S
C1078 C1077 1.374 . S
C1079 C1076 1.499 . S
C1079 C1080 1.373 . S
C1079 C1081 1.389 . S
C1080 H1053 0.950 . S
C1080 C1066 1.377 . S
C1080 C1079 1.373 . S
C1081 C1065 1.377 . S
C1081 C1079 1.389 . S
C1081 C1082 1.524 . S
C1082 C1081 1.524 . S
C1082 C1083 1.397 . S
C1082 C1087 1.363 . S
C1083 H1054 0.950 . S
C1083 C1082 1.397 . S
C1083 C1084 1.334 . S
C1084 H1055 0.950 . S
C1084 C1083 1.334 . S
C1084 C1085 1.287 . S
C1085 C1084 1.287 . S
C1085 C1086 1.524 . S
C1085 H1088 0.999 . S
C1086 H1056 0.950 . S
C1086 C1085 1.524 . S
C1086 C1087 1.415 . S
C1087 H1057 0.950 . S
C1087 C1082 1.363 . S
C1087 C1086 1.415 . S
H1088 C1085 0.999 . S
H1089 C1070 0.913 . S
H1090 C1108 0.951 . S
H1091 C1110 0.951 . S
H1092 C1112 0.950 . S
H1093 C1113 0.950 . S
H1094 C1115 0.950 . S
H1095 C1118 0.950 . S
H1096 C1119 0.950 . S
H1097 C1121 0.950 . S
H1098 C1122 0.950 . S
H1099 C1123 0.951 . S
H1100 C1125 0.951 . S
H1101 C1127 0.950 . S
H1102 C1128 0.950 . S
H1103 C1130 0.950 . S
H1104 C1133 0.950 . S
H1105 C1134 0.950 . S
H1106 C1136 0.950 . S
H1107 C1137 0.950 . S
C1108 H1090 0.951 . S
C1108 C1109 1.366 . S
C1108 C1110 1.388 . S
C1109 C1108 1.366 . S
C1109 C1113 1.385 . S
C1110 H1091 0.951 . S
C1110 C1108 1.388 . S
C1110 C1111 1.366 . S
C1111 C1110 1.366 . S
C1111 C1112 1.414 . S
C1111 C1114 1.499 . S
C1112 H1092 0.950 . S
C1112 C1111 1.414 . S
C1112 C1113 1.374 . S
C1113 H1093 0.950 . S
C1113 C1109 1.385 . S
C1113 C1112 1.374 . S
C1114 C1111 1.499 . S
C1114 C1115 1.373 . S
C1114 C1116 1.389 . S
C1115 H1094 0.950 . S
C1115 C1114 1.373 . S
C1115 C1131 1.377 . S
C1116 C1114 1.389 . S
C1116 C1117 1.524 . S
C1116 C1130 1.377 . S
C1117 C1116 1.524 . S
C1117 C1118 1.397 . S
C1117 C1122 1.363 . S
C1118 H1095 0.950 . S
C1118 C1117 1.397 . S
C1118 C1119 1.334 . S
C1119 H1096 0.950 . S
C1119 C1118 1.334 . S
C1119 C1120 1.287 1_554 S
C1120 C1119 1.287 1_556 S
C1120 C1121 1.524 . S
C1120 H1139 0.913 . S
C1121 H1097 0.950 . S
C1121 C1120 1.524 . S
C1121 C1122 1.415 1_556 S
C1122 H1098 0.950 . S
C1122 C1117 1.363 . S
C1122 C1121 1.415 1_554 S
C1123 H1099 0.951 . S
C1123 C1124 1.366 . S
C1123 C1125 1.388 . S
C1124 C1123 1.366 . S
C1124 C1128 1.385 . S
C1125 H1100 0.951 . S
C1125 C1123 1.388 . S
C1125 C1126 1.366 . S
C1126 C1125 1.366 . S
C1126 C1127 1.414 . S
C1126 C1129 1.499 . S
C1127 H1101 0.950 . S
C1127 C1126 1.414 . S
C1127 C1128 1.374 . S
C1128 H1102 0.950 . S
C1128 C1124 1.385 . S
C1128 C1127 1.374 . S
C1129 C1126 1.499 . S
C1129 C1130 1.373 . S
C1129 C1131 1.389 . S
C1130 H1103 0.950 . S
C1130 C1116 1.377 . S
C1130 C1129 1.373 . S
C1131 C1115 1.377 . S
C1131 C1129 1.389 . S
C1131 C1132 1.524 . S
C1132 C1131 1.524 . S
C1132 C1133 1.397 . S
C1132 C1137 1.363 . S
C1133 H1104 0.950 . S
C1133 C1132 1.397 . S
C1133 C1134 1.334 . S
C1134 H1105 0.950 . S
C1134 C1133 1.334 . S
C1134 C1135 1.287 . S
C1135 C1134 1.287 . S
C1135 C1136 1.524 . S
C1135 H1138 0.999 . S
C1136 H1106 0.950 . S
C1136 C1135 1.524 . S
C1136 C1137 1.415 . S
C1137 H1107 0.950 . S
C1137 C1132 1.363 . S
C1137 C1136 1.415 . S
H1138 C1135 0.999 . S
H1139 C1120 0.913 . S
H1140 C1158 0.951 . S
H1141 C1160 0.951 . S
H1142 C1162 0.950 . S
H1143 C1163 0.950 . S
H1144 C1165 0.950 . S
H1145 C1168 0.950 . S
H1146 C1169 0.950 . S
H1147 C1171 0.950 . S
H1148 C1172 0.982 . S
H1149 C1173 0.951 1_554 S
H1150 C1175 0.951 . S
H1151 C1177 0.950 . S
H1152 C1178 0.950 . S
H1153 C1180 0.950 . S
H1154 C1183 0.950 . S
H1155 C1184 0.950 . S
H1156 C1186 0.950 . S
H1157 C1187 0.950 . S
C1158 H1140 0.951 . S
C1158 C1159 1.366 . S
C1158 C1160 1.388 . S
C1159 C1158 1.366 . S
C1159 C1163 1.385 . S
C1160 H1141 0.951 . S
C1160 C1158 1.388 . S
C1160 C1161 1.366 . S
C1161 C1160 1.366 . S
C1161 C1162 1.414 . S
C1161 C1164 1.499 . S
C1162 H1142 0.950 . S
C1162 C1161 1.414 . S
C1162 C1163 1.374 . S
C1163 H1143 0.950 . S
C1163 C1159 1.385 . S
C1163 C1162 1.374 . S
C1164 C1161 1.499 . S
C1164 C1165 1.373 . S
C1164 C1166 1.389 . S
C1165 H1144 0.950 . S
C1165 C1164 1.373 . S
C1165 C1181 1.377 . S
C1166 C1164 1.389 . S
C1166 C1167 1.528 . S
C1166 C1180 1.377 . S
C1167 C1166 1.528 . S
C1167 C1168 1.392 1_556 S
C1167 C1172 1.362 . S
C1168 H1145 0.950 . S
C1168 C1167 1.392 1_554 S
C1168 C1169 1.334 . S
C1169 H1146 0.950 . S
C1169 C1168 1.334 . S
C1169 C1170 1.287 . S
C1170 C1169 1.287 . S
C1170 C1171 1.524 . S
C1170 H1189 0.913 . S
C1171 H1147 0.950 . S
C1171 C1170 1.524 . S
C1171 C1172 1.388 1_554 S
C1172 H1148 0.982 . S
C1172 C1167 1.362 . S
C1172 C1171 1.388 1_556 S
C1173 H1149 0.951 1_556 S
C1173 C1174 1.366 . S
C1173 C1175 1.388 . S
C1174 C1173 1.366 . S
C1174 C1178 1.385 . S
C1175 H1150 0.951 . S
C1175 C1173 1.388 . S
C1175 C1176 1.366 . S
C1176 C1175 1.366 . S
C1176 C1177 1.414 . S
C1176 C1179 1.499 . S
C1177 H1151 0.950 . S
C1177 C1176 1.414 . S
C1177 C1178 1.374 . S
C1178 H1152 0.950 . S
C1178 C1174 1.385 . S
C1178 C1177 1.374 . S
C1179 C1176 1.499 . S
C1179 C1180 1.373 . S
C1179 C1181 1.389 . S
C1180 H1153 0.950 . S
C1180 C1166 1.377 . S
C1180 C1179 1.373 . S
C1181 C1165 1.377 . S
C1181 C1179 1.389 . S
C1181 C1182 1.524 . S
C1182 C1181 1.524 . S
C1182 C1183 1.397 . S
C1182 C1187 1.363 . S
C1183 H1154 0.950 . S
C1183 C1182 1.397 . S
C1183 C1184 1.334 . S
C1184 H1155 0.950 . S
C1184 C1183 1.334 . S
C1184 C1185 1.287 . S
C1185 C1184 1.287 . S
C1185 C1186 1.524 . S
C1185 H1188 0.999 . S
C1186 H1156 0.950 . S
C1186 C1185 1.524 . S
C1186 C1187 1.415 . S
C1187 H1157 0.950 . S
C1187 C1182 1.363 . S
C1187 C1186 1.415 . S
H1188 C1185 0.999 . S
H1189 C1170 0.913 . S
H1190 C1208 0.951 . S
H1191 C1210 0.951 . S
H1192 C1212 0.950 . S
H1193 C1213 0.950 . S
H1194 C1215 0.950 . S
H1195 C1218 0.950 . S
H1196 C1219 0.950 . S
H1197 C1221 0.950 . S
H1198 C1222 0.950 . S
H1199 C1223 0.951 . S
H1200 C1225 0.951 . S
H1201 C1227 0.950 . S
H1202 C1228 0.950 . S
H1203 C1230 0.950 . S
H1204 C1233 0.950 . S
H1205 C1234 0.950 . S
H1206 C1236 0.950 . S
H1207 C1237 0.950 . S
C1208 H1190 0.951 . S
C1208 C1209 1.366 . S
C1208 C1210 1.388 . S
C1209 C1208 1.366 . S
C1209 C1213 1.385 . S
C1210 H1191 0.951 . S
C1210 C1208 1.388 . S
C1210 C1211 1.366 . S
C1211 C1210 1.366 . S
C1211 C1212 1.414 . S
C1211 C1214 1.499 . S
C1212 H1192 0.950 . S
C1212 C1211 1.414 . S
C1212 C1213 1.374 . S
C1213 H1193 0.950 . S
C1213 C1209 1.385 . S
C1213 C1212 1.374 . S
C1214 C1211 1.499 . S
C1214 C1215 1.373 . S
C1214 C1216 1.389 . S
C1215 H1194 0.950 . S
C1215 C1214 1.373 . S
C1215 C1231 1.377 . S
C1216 C1214 1.389 . S
C1216 C1217 1.524 . S
C1216 C1230 1.377 . S
C1217 C1216 1.524 . S
C1217 C1218 1.397 . S
C1217 C1222 1.363 . S
C1218 H1195 0.950 . S
C1218 C1217 1.397 . S
C1218 C1219 1.334 . S
C1219 H1196 0.950 . S
C1219 C1218 1.334 . S
C1219 C1220 1.287 . S
C1220 C1219 1.287 . S
C1220 C1221 1.524 . S
C1220 H1239 0.913 . S
C1221 H1197 0.950 . S
C1221 C1220 1.524 . S
C1221 C1222 1.415 . S
C1222 H1198 0.950 . S
C1222 C1217 1.363 . S
C1222 C1221 1.415 . S
C1223 H1199 0.951 . S
C1223 C1224 1.366 . S
C1223 C1225 1.388 . S
C1224 C1223 1.366 . S
C1224 C1228 1.385 1_554 S
C1225 H1200 0.951 . S
C1225 C1223 1.388 . S
C1225 C1226 1.366 1_554 S
C1226 C1225 1.366 1_556 S
C1226 C1227 1.414 . S
C1226 C1229 1.499 . S
C1227 H1201 0.950 . S
C1227 C1226 1.414 . S
C1227 C1228 1.374 . S
C1228 H1202 0.950 . S
C1228 C1224 1.385 1_556 S
C1228 C1227 1.374 . S
C1229 C1226 1.499 . S
C1229 C1230 1.373 . S
C1229 C1231 1.389 . S
C1230 H1203 0.950 . S
C1230 C1216 1.377 . S
C1230 C1229 1.373 . S
C1231 C1215 1.377 . S
C1231 C1229 1.389 . S
C1231 C1232 1.524 1_556 S
C1232 C1231 1.524 1_554 S
C1232 C1233 1.397 . S
C1232 C1237 1.363 . S
C1233 H1204 0.950 . S
C1233 C1232 1.397 . S
C1233 C1234 1.334 . S
C1234 H1205 0.950 . S
C1234 C1233 1.334 . S
C1234 C1235 1.287 . S
C1235 C1234 1.287 . S
C1235 C1236 1.524 . S
C1235 H1238 0.999 . S
C1236 H1206 0.950 . S
C1236 C1235 1.524 . S
C1236 C1237 1.415 . S
C1237 H1207 0.950 . S
C1237 C1232 1.363 . S
C1237 C1236 1.415 . S
H1238 C1235 0.999 . S
H1239 C1220 0.913 . S
H1240 C1258 0.951 . S
H1241 C1260 0.951 . S
H1242 C1262 0.950 . S
H1243 C1263 0.950 . S
H1244 C1265 0.950 . S
H1245 C1268 0.950 . S
H1246 C1269 0.950 . S
H1247 C1271 0.950 . S
H1248 C1272 0.950 . S
H1249 C1273 0.951 . S
H1250 C1275 0.951 . S
H1251 C1277 0.950 . S
H1252 C1278 0.950 . S
H1253 C1280 0.953 . S
H1254 C1283 0.950 . S
H1255 C1284 0.950 . S
H1256 C1286 0.950 . S
H1257 C1287 0.950 . S
C1258 H1240 0.951 . S
C1258 C1259 1.366 . S
C1258 C1260 1.388 . S
C1259 C1258 1.366 . S
C1259 C1263 1.385 . S
C1260 H1241 0.951 . S
C1260 C1258 1.388 . S
C1260 C1261 1.366 . S
C1261 C1260 1.366 . S
C1261 C1262 1.414 . S
C1261 C1264 1.499 . S
C1262 H1242 0.950 . S
C1262 C1261 1.414 . S
C1262 C1263 1.374 . S
C1263 H1243 0.950 . S
C1263 C1259 1.385 . S
C1263 C1262 1.374 . S
C1264 C1261 1.499 . S
C1264 C1265 1.373 . S
C1264 C1266 1.389 . S
C1265 H1244 0.950 . S
C1265 C1264 1.373 . S
C1265 C1281 1.377 . S
C1266 C1264 1.389 . S
C1266 C1267 1.524 1_556 S
C1266 C1280 1.376 1_556 S
C1267 C1266 1.524 1_554 S
C1267 C1268 1.397 . S
C1267 C1272 1.363 . S
C1268 H1245 0.950 . S
C1268 C1267 1.397 . S
C1268 C1269 1.334 . S
C1269 H1246 0.950 . S
C1269 C1268 1.334 . S
C1269 C1270 1.287 . S
C1270 C1269 1.287 . S
C1270 C1271 1.524 . S
C1270 H1289 0.913 . S
C1271 H1247 0.950 . S
C1271 C1270 1.524 . S
C1271 C1272 1.415 . S
C1272 H1248 0.950 . S
C1272 C1267 1.363 . S
C1272 C1271 1.415 . S
C1273 H1249 0.951 . S
C1273 C1274 1.366 1_556 S
C1273 C1275 1.388 . S
C1274 C1273 1.366 1_554 S
C1274 C1278 1.385 . S
C1275 H1250 0.951 . S
C1275 C1273 1.388 . S
C1275 C1276 1.366 . S
C1276 C1275 1.366 . S
C1276 C1277 1.414 1_556 S
C1276 C1279 1.499 . S
C1277 H1251 0.950 . S
C1277 C1276 1.414 1_554 S
C1277 C1278 1.374 . S
C1278 H1252 0.950 . S
C1278 C1274 1.385 . S
C1278 C1277 1.374 . S
C1279 C1276 1.499 . S
C1279 C1280 1.371 1_556 S
C1279 C1281 1.389 . S
C1280 H1253 0.953 . S
C1280 C1266 1.376 1_554 S
C1280 C1279 1.371 1_554 S
C1281 C1265 1.377 . S
C1281 C1279 1.389 . S
C1281 C1282 1.524 . S
C1282 C1281 1.524 . S
C1282 C1283 1.397 . S
C1282 C1287 1.363 . S
C1283 H1254 0.950 . S
C1283 C1282 1.397 . S
C1283 C1284 1.334 . S
C1284 H1255 0.950 . S
C1284 C1283 1.334 . S
C1284 C1285 1.287 . S
C1285 C1284 1.287 . S
C1285 C1286 1.524 . S
C1285 H1288 0.999 . S
C1286 H1256 0.950 . S
C1286 C1285 1.524 . S
C1286 C1287 1.415 . S
C1287 H1257 0.950 . S
C1287 C1282 1.363 . S
C1287 C1286 1.415 . S
H1288 C1285 0.999 . S
H1289 C1270 0.913 . S
H1290 C1308 0.951 . S
H1291 C1310 0.951 . S
H1292 C1312 0.950 . S
H1293 C1313 0.950 . S
H1294 C1315 0.950 . S
H1295 C1318 0.950 . S
H1296 C1319 0.950 . S
H1297 C1321 0.950 . S
H1298 C1322 0.950 . S
H1299 C1323 0.951 . S
H1300 C1325 0.951 . S
H1301 C1327 0.950 . S
H1302 C1328 0.950 . S
H1303 C1330 0.950 . S
H1304 C1333 0.950 . S
H1305 C1334 0.950 . S
H1306 C1336 0.950 . S
H1307 C1337 0.950 . S
C1308 H1290 0.951 . S
C1308 C1309 1.366 . S
C1308 C1310 1.388 . S
C1309 C1308 1.366 . S
C1309 C1313 1.385 . S
C1310 H1291 0.951 . S
C1310 C1308 1.388 . S
C1310 C1311 1.366 . S
C1311 C1310 1.366 . S
C1311 C1312 1.414 . S
C1311 C1314 1.499 . S
C1312 H1292 0.950 . S
C1312 C1311 1.414 . S
C1312 C1313 1.374 . S
C1313 H1293 0.950 . S
C1313 C1309 1.385 . S
C1313 C1312 1.374 . S
C1314 C1311 1.499 . S
C1314 C1315 1.373 . S
C1314 C1316 1.389 . S
C1315 H1294 0.950 . S
C1315 C1314 1.373 . S
C1315 C1331 1.377 . S
C1316 C1314 1.389 . S
C1316 C1317 1.524 . S
C1316 C1330 1.377 . S
C1317 C1316 1.524 . S
C1317 C1318 1.397 . S
C1317 C1322 1.363 . S
C1318 H1295 0.950 . S
C1318 C1317 1.397 . S
C1318 C1319 1.334 . S
C1319 H1296 0.950 . S
C1319 C1318 1.334 . S
C1319 C1320 1.287 . S
C1320 C1319 1.287 . S
C1320 C1321 1.524 . S
C1320 H1339 0.913 . S
C1321 H1297 0.950 . S
C1321 C1320 1.524 . S
C1321 C1322 1.415 . S
C1322 H1298 0.950 . S
C1322 C1317 1.363 . S
C1322 C1321 1.415 . S
C1323 H1299 0.951 . S
C1323 C1324 1.366 1_556 S
C1323 C1325 1.388 . S
C1324 C1323 1.366 1_554 S
C1324 C1328 1.385 . S
C1325 H1300 0.951 . S
C1325 C1323 1.388 . S
C1325 C1326 1.366 . S
C1326 C1325 1.366 . S
C1326 C1327 1.414 1_556 S
C1326 C1329 1.499 . S
C1327 H1301 0.950 . S
C1327 C1326 1.414 1_554 S
C1327 C1328 1.374 . S
C1328 H1302 0.950 . S
C1328 C1324 1.385 . S
C1328 C1327 1.374 . S
C1329 C1326 1.499 . S
C1329 C1330 1.373 . S
C1329 C1331 1.389 . S
C1330 H1303 0.950 . S
C1330 C1316 1.377 . S
C1330 C1329 1.373 . S
C1331 C1315 1.377 . S
C1331 C1329 1.389 . S
C1331 C1332 1.524 . S
C1332 C1331 1.524 . S
C1332 C1333 1.397 1_556 S
C1332 C1337 1.363 . S
C1333 H1304 0.950 . S
C1333 C1332 1.397 1_554 S
C1333 C1334 1.334 . S
C1334 H1305 0.950 . S
C1334 C1333 1.334 . S
C1334 C1335 1.287 . S
C1335 C1334 1.287 . S
C1335 C1336 1.524 1_554 S
C1335 H1338 0.999 . S
C1336 H1306 0.950 . S
C1336 C1335 1.524 1_556 S
C1336 C1337 1.415 . S
C1337 H1307 0.950 . S
C1337 C1332 1.363 . S
C1337 C1336 1.415 . S
H1338 C1335 0.999 . S
H1339 C1320 0.913 . S
H1340 C1358 0.951 . S
H1341 C1360 0.951 . S
H1342 C1362 0.950 . S
H1343 C1363 0.950 . S
H1344 C1365 0.950 . S
H1345 C1368 0.950 . S
H1346 C1369 0.950 . S
H1347 C1371 0.950 . S
H1348 C1372 0.950 . S
H1349 C1373 0.951 1_554 S
H1350 C1375 0.951 . S
H1351 C1377 0.950 . S
H1352 C1378 0.950 . S
H1353 C1380 0.950 . S
H1354 C1383 0.950 . S
H1355 C1384 0.950 . S
H1356 C1386 0.950 . S
H1357 C1387 0.950 . S
C1358 H1340 0.951 . S
C1358 C1359 1.366 . S
C1358 C1360 1.388 . S
C1359 C1358 1.366 . S
C1359 C1363 1.385 . S
C1360 H1341 0.951 . S
C1360 C1358 1.388 . S
C1360 C1361 1.366 . S
C1361 C1360 1.366 . S
C1361 C1362 1.414 . S
C1361 C1364 1.499 . S
C1362 H1342 0.950 . S
C1362 C1361 1.414 . S
C1362 C1363 1.374 . S
C1363 H1343 0.950 . S
C1363 C1359 1.385 . S
C1363 C1362 1.374 . S
C1364 C1361 1.499 . S
C1364 C1365 1.373 . S
C1364 C1366 1.389 . S
C1365 H1344 0.950 . S
C1365 C1364 1.373 . S
C1365 C1381 1.377 . S
C1366 C1364 1.389 . S
C1366 C1367 1.524 . S
C1366 C1380 1.377 . S
C1367 C1366 1.524 . S
C1367 C1368 1.397 . S
C1367 C1372 1.363 . S
C1368 H1345 0.950 . S
C1368 C1367 1.397 . S
C1368 C1369 1.334 . S
C1369 H1346 0.950 . S
C1369 C1368 1.334 . S
C1369 C1370 1.287 . S
C1370 C1369 1.287 . S
C1370 C1371 1.524 . S
C1370 H1389 0.913 . S
C1371 H1347 0.950 . S
C1371 C1370 1.524 . S
C1371 C1372 1.415 . S
C1372 H1348 0.950 . S
C1372 C1367 1.363 . S
C1372 C1371 1.415 . S
C1373 H1349 0.951 1_556 S
C1373 C1374 1.366 . S
C1373 C1375 1.388 . S
C1374 C1373 1.366 . S
C1374 C1378 1.385 . S
C1375 H1350 0.951 . S
C1375 C1373 1.388 . S
C1375 C1376 1.366 . S
C1376 C1375 1.366 . S
C1376 C1377 1.414 . S
C1376 C1379 1.499 . S
C1377 H1351 0.950 . S
C1377 C1376 1.414 . S
C1377 C1378 1.374 . S
C1378 H1352 0.950 . S
C1378 C1374 1.385 . S
C1378 C1377 1.374 . S
C1379 C1376 1.499 . S
C1379 C1380 1.373 . S
C1379 C1381 1.389 . S
C1380 H1353 0.950 . S
C1380 C1366 1.377 . S
C1380 C1379 1.373 . S
C1381 C1365 1.377 . S
C1381 C1379 1.389 . S
C1381 C1382 1.524 . S
C1382 C1381 1.524 . S
C1382 C1383 1.397 . S
C1382 C1387 1.363 . S
C1383 H1354 0.950 . S
C1383 C1382 1.397 . S
C1383 C1384 1.334 . S
C1384 H1355 0.950 . S
C1384 C1383 1.334 . S
C1384 C1385 1.287 . S
C1385 C1384 1.287 . S
C1385 C1386 1.524 . S
C1385 H1388 0.999 . S
C1386 H1356 0.950 . S
C1386 C1385 1.524 . S
C1386 C1387 1.415 . S
C1387 H1357 0.950 . S
C1387 C1382 1.363 . S
C1387 C1386 1.415 . S
H1388 C1385 0.999 . S
H1389 C1370 0.913 . S
H1390 C1408 0.951 . S
H1391 C1410 0.951 . S
H1392 C1412 0.950 . S
H1393 C1413 0.950 . S
H1394 C1415 0.962 . S
H1395 C1418 0.950 . S
H1396 C1419 0.950 . S
H1397 C1421 0.950 . S
H1398 C1422 0.950 . S
H1399 C1423 0.951 . S
H1400 C1425 0.951 . S
H1401 C1427 0.950 . S
H1402 C1428 0.950 . S
H1403 C1430 0.950 . S
H1404 C1433 0.950 . S
H1405 C1434 0.950 . S
H1406 C1436 0.950 . S
H1407 C1437 0.950 . S
C1408 H1390 0.951 . S
C1408 C1409 1.366 . S
C1408 C1410 1.388 . S
C1409 C1408 1.366 . S
C1409 C1413 1.385 . S
C1410 H1391 0.951 . S
C1410 C1408 1.388 . S
C1410 C1411 1.366 . S
C1411 C1410 1.366 . S
C1411 C1412 1.414 . S
C1411 C1414 1.499 . S
C1412 H1392 0.950 . S
C1412 C1411 1.414 . S
C1412 C1413 1.374 . S
C1413 H1393 0.950 . S
C1413 C1409 1.385 . S
C1413 C1412 1.374 . S
C1414 C1411 1.499 . S
C1414 C1415 1.345 1_556 S
C1414 C1416 1.389 . S
C1415 H1394 0.962 . S
C1415 C1414 1.345 1_554 S
C1415 C1431 1.394 . S
C1416 C1414 1.389 . S
C1416 C1417 1.524 . S
C1416 C1430 1.377 . S
C1417 C1416 1.524 . S
C1417 C1418 1.397 . S
C1417 C1422 1.363 . S
C1418 H1395 0.950 . S
C1418 C1417 1.397 . S
C1418 C1419 1.334 . S
C1419 H1396 0.950 . S
C1419 C1418 1.334 . S
C1419 C1420 1.287 . S
C1420 C1419 1.287 . S
C1420 C1421 1.524 . S
C1420 H1439 0.913 . S
C1421 H1397 0.950 . S
C1421 C1420 1.524 . S
C1421 C1422 1.415 . S
C1422 H1398 0.950 . S
C1422 C1417 1.363 . S
C1422 C1421 1.415 . S
C1423 H1399 0.951 . S
C1423 C1424 1.366 . S
C1423 C1425 1.388 . S
C1424 C1423 1.366 . S
C1424 C1428 1.385 . S
C1425 H1400 0.951 . S
C1425 C1423 1.388 . S
C1425 C1426 1.366 . S
C1426 C1425 1.366 . S
C1426 C1427 1.414 . S
C1426 C1429 1.500 1_554 S
C1427 H1401 0.950 . S
C1427 C1426 1.414 . S
C1427 C1428 1.374 . S
C1428 H1402 0.950 . S
C1428 C1424 1.385 . S
C1428 C1427 1.374 . S
C1429 C1426 1.500 1_556 S
C1429 C1430 1.372 . S
C1429 C1431 1.390 1_556 S
C1430 H1403 0.950 . S
C1430 C1416 1.377 . S
C1430 C1429 1.372 . S
C1431 C1415 1.394 . S
C1431 C1429 1.390 1_554 S
C1431 C1432 1.524 . S
C1432 C1431 1.524 . S
C1432 C1433 1.397 . S
C1432 C1437 1.363 . S
C1433 H1404 0.950 . S
C1433 C1432 1.397 . S
C1433 C1434 1.334 . S
C1434 H1405 0.950 . S
C1434 C1433 1.334 . S
C1434 C1435 1.287 . S
C1435 C1434 1.287 . S
C1435 C1436 1.524 . S
C1435 H1438 0.999 . S
C1436 H1406 0.950 . S
C1436 C1435 1.524 . S
C1436 C1437 1.415 . S
C1437 H1407 0.950 . S
C1437 C1432 1.363 . S
C1437 C1436 1.415 . S
H1438 C1435 0.999 . S
H1439 C1420 0.913 . S
H1440 C1458 0.951 . S
H1441 C1460 0.951 . S
H1442 C1462 0.950 . S
H1443 C1463 0.950 . S
H1444 C1465 0.950 . S
H1445 C1468 0.950 . S
H1446 C1469 0.951 . S
H1447 C1471 0.950 . S
H1448 C1472 0.950 . S
H1449 C1473 0.951 . S
H1450 C1475 0.951 . S
H1451 C1477 0.950 . S
H1452 C1478 0.950 . S
H1453 C1480 0.950 . S
H1454 C1483 0.950 . S
H1455 C1484 0.950 . S
H1456 C1486 0.950 . S
H1457 C1487 0.950 . S
C1458 H1440 0.951 . S
C1458 C1459 1.366 . S
C1458 C1460 1.388 . S
C1459 C1458 1.366 . S
C1459 C1463 1.385 . S
C1460 H1441 0.951 . S
C1460 C1458 1.388 . S
C1460 C1461 1.366 . S
C1461 C1460 1.366 . S
C1461 C1462 1.414 . S
C1461 C1464 1.499 . S
C1462 H1442 0.950 . S
C1462 C1461 1.414 . S
C1462 C1463 1.374 . S
C1463 H1443 0.950 . S
C1463 C1459 1.385 . S
C1463 C1462 1.374 . S
C1464 C1461 1.499 . S
C1464 C1465 1.373 . S
C1464 C1466 1.389 . S
C1465 H1444 0.950 . S
C1465 C1464 1.373 . S
C1465 C1481 1.377 . S
C1466 C1464 1.389 . S
C1466 C1467 1.524 . S
C1466 C1480 1.377 . S
C1467 C1466 1.524 . S
C1467 C1468 1.397 . S
C1467 C1472 1.363 . S
C1468 H1445 0.950 . S
C1468 C1467 1.397 . S
C1468 C1469 1.330 1_554 S
C1469 H1446 0.951 . S
C1469 C1468 1.330 1_556 S
C1469 C1470 1.290 . S
C1470 C1469 1.290 . S
C1470 C1471 1.524 . S
C1470 H1489 0.913 . S
C1471 H1447 0.950 . S
C1471 C1470 1.524 . S
C1471 C1472 1.415 1_556 S
C1472 H1448 0.950 . S
C1472 C1467 1.363 . S
C1472 C1471 1.415 1_554 S
C1473 H1449 0.951 . S
C1473 C1474 1.366 . S
C1473 C1475 1.388 . S
C1474 C1473 1.366 . S
C1474 C1478 1.385 . S
C1475 H1450 0.951 . S
C1475 C1473 1.388 . S
C1475 C1476 1.366 . S
C1476 C1475 1.366 . S
C1476 C1477 1.414 . S
C1476 C1479 1.499 . S
C1477 H1451 0.950 . S
C1477 C1476 1.414 . S
C1477 C1478 1.374 . S
C1478 H1452 0.950 . S
C1478 C1474 1.385 . S
C1478 C1477 1.374 . S
C1479 C1476 1.499 . S
C1479 C1480 1.373 . S
C1479 C1481 1.389 . S
C1480 H1453 0.950 . S
C1480 C1466 1.377 . S
C1480 C1479 1.373 . S
C1481 C1465 1.377 . S
C1481 C1479 1.389 . S
C1481 C1482 1.524 . S
C1482 C1481 1.524 . S
C1482 C1483 1.397 . S
C1482 C1487 1.363 . S
C1483 H1454 0.950 . S
C1483 C1482 1.397 . S
C1483 C1484 1.334 . S
C1484 H1455 0.950 . S
C1484 C1483 1.334 . S
C1484 C1485 1.287 . S
C1485 C1484 1.287 . S
C1485 C1486 1.524 . S
C1485 H1488 0.999 . S
C1486 H1456 0.950 . S
C1486 C1485 1.524 . S
C1486 C1487 1.415 . S
C1487 H1457 0.950 . S
C1487 C1482 1.363 . S
C1487 C1486 1.415 . S
H1488 C1485 0.999 . S
H1489 C1470 0.913 . S
H1490 C1508 0.951 . S
H1491 C1510 0.951 . S
H1492 C1512 0.950 . S
H1493 C1513 0.950 . S
H1494 C1515 0.950 . S
H1495 C1518 0.950 . S
H1496 C1519 0.950 . S
H1497 C1521 0.950 . S
H1498 C1522 0.950 . S
H1499 C1523 0.951 . S
H1500 C1525 0.951 . S
H1501 C1527 0.950 . S
H1502 C1528 0.950 . S
H1503 C1530 0.950 . S
H1504 C1533 0.950 . S
H1505 C1534 0.950 . S
H1506 C1536 0.950 . S
H1507 C1537 0.950 . S
C1508 H1490 0.951 . S
C1508 C1509 1.366 . S
C1508 C1510 1.388 . S
C1509 C1508 1.366 . S
C1509 C1513 1.385 . S
C1510 H1491 0.951 . S
C1510 C1508 1.388 . S
C1510 C1511 1.366 . S
C1511 C1510 1.366 . S
C1511 C1512 1.414 . S
C1511 C1514 1.499 . S
C1512 H1492 0.950 . S
C1512 C1511 1.414 . S
C1512 C1513 1.374 . S
C1513 H1493 0.950 . S
C1513 C1509 1.385 . S
C1513 C1512 1.374 . S
C1514 C1511 1.499 . S
C1514 C1515 1.373 . S
C1514 C1516 1.389 . S
C1515 H1494 0.950 . S
C1515 C1514 1.373 . S
C1515 C1531 1.377 . S
C1516 C1514 1.389 . S
C1516 C1517 1.524 . S
C1516 C1530 1.377 . S
C1517 C1516 1.524 . S
C1517 C1518 1.397 . S
C1517 C1522 1.363 . S
C1518 H1495 0.950 . S
C1518 C1517 1.397 . S
C1518 C1519 1.334 . S
C1519 H1496 0.950 . S
C1519 C1518 1.334 . S
C1519 C1520 1.287 . S
C1520 C1519 1.287 . S
C1520 C1521 1.524 . S
C1520 H1539 0.913 . S
C1521 H1497 0.950 . S
C1521 C1520 1.524 . S
C1521 C1522 1.415 . S
C1522 H1498 0.950 . S
C1522 C1517 1.363 . S
C1522 C1521 1.415 . S
C1523 H1499 0.951 . S
C1523 C1524 1.366 . S
C1523 C1525 1.388 . S
C1524 C1523 1.366 . S
C1524 C1528 1.385 . S
C1525 H1500 0.951 . S
C1525 C1523 1.388 . S
C1525 C1526 1.366 . S
C1526 C1525 1.366 . S
C1526 C1527 1.414 . S
C1526 C1529 1.499 . S
C1527 H1501 0.950 . S
C1527 C1526 1.414 . S
C1527 C1528 1.374 . S
C1528 H1502 0.950 . S
C1528 C1524 1.385 . S
C1528 C1527 1.374 . S
C1529 C1526 1.499 . S
C1529 C1530 1.373 . S
C1529 C1531 1.389 . S
C1530 H1503 0.950 . S
C1530 C1516 1.377 . S
C1530 C1529 1.373 . S
C1531 C1515 1.377 . S
C1531 C1529 1.389 . S
C1531 C1532 1.524 . S
C1532 C1531 1.524 . S
C1532 C1533 1.397 . S
C1532 C1537 1.363 . S
C1533 H1504 0.950 . S
C1533 C1532 1.397 . S
C1533 C1534 1.334 . S
C1534 H1505 0.950 . S
C1534 C1533 1.334 . S
C1534 C1535 1.287 . S
C1535 C1534 1.287 . S
C1535 C1536 1.524 . S
C1535 H1538 0.999 . S
C1536 H1506 0.950 . S
C1536 C1535 1.524 . S
C1536 C1537 1.415 . S
C1537 H1507 0.950 . S
C1537 C1532 1.363 . S
C1537 C1536 1.415 . S
H1538 C1535 0.999 . S
H1539 C1520 0.913 . S
H1540 C1558 0.951 . S
H1541 C1560 0.951 . S
H1542 C1562 0.950 . S
H1543 C1563 0.950 . S
H1544 C1565 0.950 . S
H1545 C1568 0.950 . S
H1546 C1569 0.950 . S
H1547 C1571 0.950 . S
H1548 C1572 0.950 . S
H1549 C1573 0.951 . S
H1550 C1575 0.951 . S
H1551 C1577 0.950 . S
H1552 C1578 0.950 . S
H1553 C1580 0.950 . S
H1554 C1583 0.950 . S
H1555 C1584 0.950 . S
H1556 C1586 0.950 . S
H1557 C1587 0.950 . S
C1558 H1540 0.951 . S
C1558 C1559 1.366 . S
C1558 C1560 1.388 . S
C1559 C1558 1.366 . S
C1559 C1563 1.385 . S
C1560 H1541 0.951 . S
C1560 C1558 1.388 . S
C1560 C1561 1.366 . S
C1561 C1560 1.366 . S
C1561 C1562 1.414 . S
C1561 C1564 1.499 . S
C1562 H1542 0.950 . S
C1562 C1561 1.414 . S
C1562 C1563 1.374 . S
C1563 H1543 0.950 . S
C1563 C1559 1.385 . S
C1563 C1562 1.374 . S
C1564 C1561 1.499 . S
C1564 C1565 1.373 . S
C1564 C1566 1.389 . S
C1565 H1544 0.950 . S
C1565 C1564 1.373 . S
C1565 C1581 1.377 . S
C1566 C1564 1.389 . S
C1566 C1567 1.524 . S
C1566 C1580 1.377 . S
C1567 C1566 1.524 . S
C1567 C1568 1.397 . S
C1567 C1572 1.363 . S
C1568 H1545 0.950 . S
C1568 C1567 1.397 . S
C1568 C1569 1.334 . S
C1569 H1546 0.950 . S
C1569 C1568 1.334 . S
C1569 C1570 1.287 . S
C1570 C1569 1.287 . S
C1570 C1571 1.524 . S
C1570 H1589 0.913 . S
C1571 H1547 0.950 . S
C1571 C1570 1.524 . S
C1571 C1572 1.415 . S
C1572 H1548 0.950 . S
C1572 C1567 1.363 . S
C1572 C1571 1.415 . S
C1573 H1549 0.951 . S
C1573 C1574 1.366 . S
C1573 C1575 1.388 . S
C1574 C1573 1.366 . S
C1574 C1578 1.385 . S
C1575 H1550 0.951 . S
C1575 C1573 1.388 . S
C1575 C1576 1.366 . S
C1576 C1575 1.366 . S
C1576 C1577 1.414 . S
C1576 C1579 1.499 . S
C1577 H1551 0.950 . S
C1577 C1576 1.414 . S
C1577 C1578 1.374 . S
C1578 H1552 0.950 . S
C1578 C1574 1.385 . S
C1578 C1577 1.374 . S
C1579 C1576 1.499 . S
C1579 C1580 1.373 . S
C1579 C1581 1.389 . S
C1580 H1553 0.950 . S
C1580 C1566 1.377 . S
C1580 C1579 1.373 . S
C1581 C1565 1.377 . S
C1581 C1579 1.389 . S
C1581 C1582 1.524 . S
C1582 C1581 1.524 . S
C1582 C1583 1.397 . S
C1582 C1587 1.363 . S
C1583 H1554 0.950 . S
C1583 C1582 1.397 . S
C1583 C1584 1.334 1_554 S
C1584 H1555 0.950 . S
C1584 C1583 1.334 1_556 S
C1584 C1585 1.287 . S
C1585 C1584 1.287 . S
C1585 C1586 1.524 . S
C1585 H1588 0.999 . S
C1586 H1556 0.950 . S
C1586 C1585 1.524 . S
C1586 C1587 1.415 1_556 S
C1587 H1557 0.950 . S
C1587 C1582 1.363 . S
C1587 C1586 1.415 1_554 S
H1588 C1585 0.999 . S
H1589 C1570 0.913 . S
H1590 C1608 0.951 . S
H1591 C1610 0.951 . S
H1592 C1612 0.950 . S
H1593 C1613 0.950 . S
H1594 C1615 0.950 . S
H1595 C1618 0.950 . S
H1596 C1619 0.950 . S
H1597 C1621 0.950 . S
H1598 C1622 0.950 . S
H1599 C1623 0.951 . S
H1600 C1625 0.951 . S
H1601 C1627 0.950 . S
H1602 C1628 0.950 . S
H1603 C1630 0.950 . S
H1604 C1633 0.950 . S
H1605 C1634 0.950 . S
H1606 C1636 0.950 . S
H1607 C1637 0.950 . S
C1608 H1590 0.951 . S
C1608 C1609 1.366 . S
C1608 C1610 1.388 . S
C1609 C1608 1.366 . S
C1609 C1613 1.385 . S
C1610 H1591 0.951 . S
C1610 C1608 1.388 . S
C1610 C1611 1.366 . S
C1611 C1610 1.366 . S
C1611 C1612 1.414 . S
C1611 C1614 1.499 . S
C1612 H1592 0.950 . S
C1612 C1611 1.414 . S
C1612 C1613 1.374 . S
C1613 H1593 0.950 . S
C1613 C1609 1.385 . S
C1613 C1612 1.374 . S
C1614 C1611 1.499 . S
C1614 C1615 1.373 1_655 S
C1614 C1616 1.389 1_655 S
C1615 H1594 0.950 . S
C1615 C1614 1.373 1_455 S
C1615 C1631 1.377 . S
C1616 C1614 1.389 1_455 S
C1616 C1617 1.524 1_455 S
C1616 C1630 1.377 . S
C1617 C1616 1.524 1_655 S
C1617 C1618 1.397 . S
C1617 C1622 1.363 . S
C1618 H1595 0.950 . S
C1618 C1617 1.397 . S
C1618 C1619 1.334 . S
C1619 H1596 0.950 . S
C1619 C1618 1.334 . S
C1619 C1620 1.287 . S
C1620 C1619 1.287 . S
C1620 C1621 1.524 . S
C1620 H1639 0.913 . S
C1621 H1597 0.950 . S
C1621 C1620 1.524 . S
C1621 C1622 1.415 . S
C1622 H1598 0.950 . S
C1622 C1617 1.363 . S
C1622 C1621 1.415 . S
C1623 H1599 0.951 . S
C1623 C1624 1.366 . S
C1623 C1625 1.388 . S
C1624 C1623 1.366 . S
C1624 C1628 1.385 . S
C1625 H1600 0.951 . S
C1625 C1623 1.388 . S
C1625 C1626 1.366 . S
C1626 C1625 1.366 . S
C1626 C1627 1.414 . S
C1626 C1629 1.499 . S
C1627 H1601 0.950 . S
C1627 C1626 1.414 . S
C1627 C1628 1.374 . S
C1628 H1602 0.950 . S
C1628 C1624 1.385 . S
C1628 C1627 1.374 . S
C1629 C1626 1.499 . S
C1629 C1630 1.373 . S
C1629 C1631 1.389 . S
C1630 H1603 0.950 . S
C1630 C1616 1.377 . S
C1630 C1629 1.373 . S
C1631 C1615 1.377 . S
C1631 C1629 1.389 . S
C1631 C1632 1.524 . S
C1632 C1631 1.524 . S
C1632 C1633 1.397 . S
C1632 C1637 1.363 . S
C1633 H1604 0.950 . S
C1633 C1632 1.397 . S
C1633 C1634 1.334 . S
C1634 H1605 0.950 . S
C1634 C1633 1.334 . S
C1634 C1635 1.287 . S
C1635 C1634 1.287 . S
C1635 C1636 1.524 . S
C1635 H1638 0.999 . S
C1636 H1606 0.950 . S
C1636 C1635 1.524 . S
C1636 C1637 1.415 . S
C1637 H1607 0.950 . S
C1637 C1632 1.363 . S
C1637 C1636 1.415 . S
H1638 C1635 0.999 . S
H1639 C1620 0.913 . S
H1640 C1658 0.951 . S
H1641 C1660 0.951 . S
H1642 C1662 0.950 . S
H1643 C1663 0.950 . S
H1644 C1665 0.950 . S
H1645 C1668 0.950 . S
H1646 C1669 0.950 . S
H1647 C1671 0.950 . S
H1648 C1672 0.950 . S
H1649 C1673 0.951 . S
H1650 C1675 0.951 . S
H1651 C1677 0.950 . S
H1652 C1678 0.950 . S
H1653 C1680 0.950 . S
H1654 C1683 0.950 . S
H1655 C1684 0.950 . S
H1656 C1686 0.950 . S
H1657 C1687 0.950 . S
C1658 H1640 0.951 . S
C1658 C1659 1.366 . S
C1658 C1660 1.388 . S
C1659 C1658 1.366 . S
C1659 C1663 1.385 . S
C1660 H1641 0.951 . S
C1660 C1658 1.388 . S
C1660 C1661 1.366 . S
C1661 C1660 1.366 . S
C1661 C1662 1.414 . S
C1661 C1664 1.499 . S
C1662 H1642 0.950 . S
C1662 C1661 1.414 . S
C1662 C1663 1.374 . S
C1663 H1643 0.950 . S
C1663 C1659 1.385 . S
C1663 C1662 1.374 . S
C1664 C1661 1.499 . S
C1664 C1665 1.373 . S
C1664 C1666 1.389 . S
C1665 H1644 0.950 . S
C1665 C1664 1.373 . S
C1665 C1681 1.377 . S
C1666 C1664 1.389 . S
C1666 C1667 1.524 . S
C1666 C1680 1.377 . S
C1667 C1666 1.524 . S
C1667 C1668 1.397 . S
C1667 C1672 1.363 . S
C1668 H1645 0.950 . S
C1668 C1667 1.397 . S
C1668 C1669 1.334 . S
C1669 H1646 0.950 . S
C1669 C1668 1.334 . S
C1669 C1670 1.287 . S
C1670 C1669 1.287 . S
C1670 C1671 1.524 . S
C1670 H1689 0.913 . S
C1671 H1647 0.950 . S
C1671 C1670 1.524 . S
C1671 C1672 1.415 . S
C1672 H1648 0.950 . S
C1672 C1667 1.363 . S
C1672 C1671 1.415 . S
C1673 H1649 0.951 . S
C1673 C1674 1.366 . S
C1673 C1675 1.388 . S
C1674 C1673 1.366 . S
C1674 C1678 1.385 . S
C1675 H1650 0.951 . S
C1675 C1673 1.388 . S
C1675 C1676 1.366 . S
C1676 C1675 1.366 . S
C1676 C1677 1.414 . S
C1676 C1679 1.499 . S
C1677 H1651 0.950 . S
C1677 C1676 1.414 . S
C1677 C1678 1.374 . S
C1678 H1652 0.950 . S
C1678 C1674 1.385 . S
C1678 C1677 1.374 . S
C1679 C1676 1.499 . S
C1679 C1680 1.373 . S
C1679 C1681 1.389 . S
C1680 H1653 0.950 . S
C1680 C1666 1.377 . S
C1680 C1679 1.373 . S
C1681 C1665 1.377 . S
C1681 C1679 1.389 . S
C1681 C1682 1.524 . S
C1682 C1681 1.524 . S
C1682 C1683 1.397 . S
C1682 C1687 1.363 . S
C1683 H1654 0.950 . S
C1683 C1682 1.397 . S
C1683 C1684 1.334 . S
C1684 H1655 0.950 . S
C1684 C1683 1.334 . S
C1684 C1685 1.287 . S
C1685 C1684 1.287 . S
C1685 C1686 1.524 . S
C1685 H1688 0.999 . S
C1686 H1656 0.950 . S
C1686 C1685 1.524 . S
C1686 C1687 1.415 . S
C1687 H1657 0.950 . S
C1687 C1682 1.363 . S
C1687 C1686 1.415 . S
H1688 C1685 0.999 . S
H1689 C1670 0.913 . S
H1690 C1708 0.951 . S
H1691 C1710 0.951 . S
H1692 C1712 0.950 . S
H1693 C1713 0.950 . S
H1694 C1715 0.950 1_545 S
H1695 C1718 0.950 . S
H1696 C1719 0.950 . S
H1697 C1721 0.950 . S
H1698 C1722 0.950 . S
H1699 C1723 0.951 . S
H1700 C1725 0.951 . S
H1701 C1727 0.950 . S
H1702 C1728 0.950 . S
H1703 C1730 0.950 . S
H1704 C1733 0.950 . S
H1705 C1734 0.950 . S
H1706 C1736 0.950 . S
H1707 C1737 0.950 . S
C1708 H1690 0.951 . S
C1708 C1709 1.366 . S
C1708 C1710 1.388 . S
C1709 C1708 1.366 . S
C1709 C1713 1.385 . S
C1710 H1691 0.951 . S
C1710 C1708 1.388 . S
C1710 C1711 1.366 . S
C1711 C1710 1.366 . S
C1711 C1712 1.414 . S
C1711 C1714 1.499 1_545 S
C1712 H1692 0.950 . S
C1712 C1711 1.414 . S
C1712 C1713 1.374 . S
C1713 H1693 0.950 . S
C1713 C1709 1.385 . S
C1713 C1712 1.374 . S
C1714 C1711 1.499 1_565 S
C1714 C1715 1.373 . S
C1714 C1716 1.389 . S
C1715 H1694 0.950 1_565 S
C1715 C1714 1.373 . S
C1715 C1731 1.377 . S
C1716 C1714 1.389 . S
C1716 C1717 1.524 . S
C1716 C1730 1.377 . S
C1717 C1716 1.524 . S
C1717 C1718 1.397 . S
C1717 C1722 1.363 . S
C1718 H1695 0.950 . S
C1718 C1717 1.397 . S
C1718 C1719 1.334 . S
C1719 H1696 0.950 . S
C1719 C1718 1.334 . S
C1719 C1720 1.287 . S
C1720 C1719 1.287 . S
C1720 C1721 1.524 . S
C1720 H1739 0.913 . S
C1721 H1697 0.950 . S
C1721 C1720 1.524 . S
C1721 C1722 1.415 . S
C1722 H1698 0.950 . S
C1722 C1717 1.363 . S
C1722 C1721 1.415 . S
C1723 H1699 0.951 . S
C1723 C1724 1.366 . S
C1723 C1725 1.388 . S
C1724 C1723 1.366 . S
C1724 C1728 1.385 . S
C1725 H1700 0.951 . S
C1725 C1723 1.388 . S
C1725 C1726 1.366 . S
C1726 C1725 1.366 . S
C1726 C1727 1.414 . S
C1726 C1729 1.499 . S
C1727 H1701 0.950 . S
C1727 C1726 1.414 . S
C1727 C1728 1.374 . S
C1728 H1702 0.950 . S
C1728 C1724 1.385 . S
C1728 C1727 1.374 . S
C1729 C1726 1.499 . S
C1729 C1730 1.373 . S
C1729 C1731 1.389 . S
C1730 H1703 0.950 . S
C1730 C1716 1.377 . S
C1730 C1729 1.373 . S
C1731 C1715 1.377 . S
C1731 C1729 1.389 . S
C1731 C1732 1.524 . S
C1732 C1731 1.524 . S
C1732 C1733 1.397 . S
C1732 C1737 1.363 . S
C1733 H1704 0.950 . S
C1733 C1732 1.397 . S
C1733 C1734 1.334 . S
C1734 H1705 0.950 . S
C1734 C1733 1.334 . S
C1734 C1735 1.287 . S
C1735 C1734 1.287 . S
C1735 C1736 1.524 . S
C1735 H1738 0.999 . S
C1736 H1706 0.950 . S
C1736 C1735 1.524 . S
C1736 C1737 1.415 . S
C1737 H1707 0.950 . S
C1737 C1732 1.363 . S
C1737 C1736 1.415 . S
H1738 C1735 0.999 . S
H1739 C1720 0.913 . S
H1740 C1758 0.951 . S
H1741 C1760 0.951 . S
H1742 C1762 0.950 . S
H1743 C1763 0.950 . S
H1744 C1765 0.950 . S
H1745 C1768 0.950 . S
H1746 C1769 0.950 . S
H1747 C1771 0.950 . S
H1748 C1772 0.950 . S
H1749 C1773 0.951 . S
H1750 C1775 0.951 . S
H1751 C1777 0.950 . S
H1752 C1778 0.950 . S
H1753 C1780 0.950 . S
H1754 C1783 0.950 . S
H1755 C1784 0.950 . S
H1756 C1786 0.950 . S
H1757 C1787 0.950 . S
C1758 H1740 0.951 . S
C1758 C1759 1.366 . S
C1758 C1760 1.388 . S
C1759 C1758 1.366 . S
C1759 C1763 1.385 . S
C1760 H1741 0.951 . S
C1760 C1758 1.388 . S
C1760 C1761 1.366 . S
C1761 C1760 1.366 . S
C1761 C1762 1.414 . S
C1761 C1764 1.499 . S
C1762 H1742 0.950 . S
C1762 C1761 1.414 . S
C1762 C1763 1.374 . S
C1763 H1743 0.950 . S
C1763 C1759 1.385 . S
C1763 C1762 1.374 . S
C1764 C1761 1.499 . S
C1764 C1765 1.373 . S
C1764 C1766 1.389 . S
C1765 H1744 0.950 . S
C1765 C1764 1.373 . S
C1765 C1781 1.377 . S
C1766 C1764 1.389 . S
C1766 C1767 1.524 . S
C1766 C1780 1.377 . S
C1767 C1766 1.524 . S
C1767 C1768 1.397 . S
C1767 C1772 1.363 . S
C1768 H1745 0.950 . S
C1768 C1767 1.397 . S
C1768 C1769 1.334 . S
C1769 H1746 0.950 . S
C1769 C1768 1.334 . S
C1769 C1770 1.287 . S
C1770 C1769 1.287 . S
C1770 C1771 1.524 . S
C1770 H1789 0.913 . S
C1771 H1747 0.950 . S
C1771 C1770 1.524 . S
C1771 C1772 1.415 . S
C1772 H1748 0.950 . S
C1772 C1767 1.363 . S
C1772 C1771 1.415 . S
C1773 H1749 0.951 . S
C1773 C1774 1.366 . S
C1773 C1775 1.388 . S
C1774 C1773 1.366 . S
C1774 C1778 1.385 . S
C1775 H1750 0.951 . S
C1775 C1773 1.388 . S
C1775 C1776 1.366 . S
C1776 C1775 1.366 . S
C1776 C1777 1.414 . S
C1776 C1779 1.499 . S
C1777 H1751 0.950 . S
C1777 C1776 1.414 . S
C1777 C1778 1.374 . S
C1778 H1752 0.950 . S
C1778 C1774 1.385 . S
C1778 C1777 1.374 . S
C1779 C1776 1.499 . S
C1779 C1780 1.373 . S
C1779 C1781 1.389 . S
C1780 H1753 0.950 . S
C1780 C1766 1.377 . S
C1780 C1779 1.373 . S
C1781 C1765 1.377 . S
C1781 C1779 1.389 . S
C1781 C1782 1.524 . S
C1782 C1781 1.524 . S
C1782 C1783 1.397 . S
C1782 C1787 1.363 . S
C1783 H1754 0.950 . S
C1783 C1782 1.397 . S
C1783 C1784 1.334 . S
C1784 H1755 0.950 . S
C1784 C1783 1.334 . S
C1784 C1785 1.287 . S
C1785 C1784 1.287 . S
C1785 C1786 1.524 . S
C1785 H1788 0.999 . S
C1786 H1756 0.950 . S
C1786 C1785 1.524 . S
C1786 C1787 1.415 . S
C1787 H1757 0.950 . S
C1787 C1782 1.363 . S
C1787 C1786 1.415 . S
H1788 C1785 0.999 . S
H1789 C1770 0.913 . S
H1790 C1808 0.951 . S
H1791 C1810 0.951 . S
H1792 C1812 0.950 . S
H1793 C1813 0.950 . S
H1794 C1815 0.950 . S
H1795 C1818 0.950 . S
H1796 C1819 0.950 . S
H1797 C1821 0.950 . S
H1798 C1822 0.950 . S
H1799 C1823 0.951 . S
H1800 C1825 0.951 . S
H1801 C1827 0.950 . S
H1802 C1828 0.950 . S
H1803 C1830 0.950 . S
H1804 C1833 0.950 . S
H1805 C1834 0.950 . S
H1806 C1836 0.950 . S
H1807 C1837 0.950 . S
C1808 H1790 0.951 . S
C1808 C1809 1.366 . S
C1808 C1810 1.388 . S
C1809 C1808 1.366 . S
C1809 C1813 1.385 . S
C1810 H1791 0.951 . S
C1810 C1808 1.388 . S
C1810 C1811 1.366 . S
C1811 C1810 1.366 . S
C1811 C1812 1.414 . S
C1811 C1814 1.499 . S
C1812 H1792 0.950 . S
C1812 C1811 1.414 . S
C1812 C1813 1.374 . S
C1813 H1793 0.950 . S
C1813 C1809 1.385 . S
C1813 C1812 1.374 . S
C1814 C1811 1.499 . S
C1814 C1815 1.373 . S
C1814 C1816 1.389 . S
C1815 H1794 0.950 . S
C1815 C1814 1.373 . S
C1815 C1831 1.377 . S
C1816 C1814 1.389 . S
C1816 C1817 1.524 . S
C1816 C1830 1.377 . S
C1817 C1816 1.524 . S
C1817 C1818 1.397 . S
C1817 C1822 1.363 . S
C1818 H1795 0.950 . S
C1818 C1817 1.397 . S
C1818 C1819 1.334 . S
C1819 H1796 0.950 . S
C1819 C1818 1.334 . S
C1819 C1820 1.287 . S
C1820 C1819 1.287 . S
C1820 C1821 1.524 . S
C1820 H1839 0.913 . S
C1821 H1797 0.950 . S
C1821 C1820 1.524 . S
C1821 C1822 1.415 . S
C1822 H1798 0.950 . S
C1822 C1817 1.363 . S
C1822 C1821 1.415 . S
C1823 H1799 0.951 . S
C1823 C1824 1.366 . S
C1823 C1825 1.388 . S
C1824 C1823 1.366 . S
C1824 C1828 1.385 . S
C1825 H1800 0.951 . S
C1825 C1823 1.388 . S
C1825 C1826 1.366 . S
C1826 C1825 1.366 . S
C1826 C1827 1.414 . S
C1826 C1829 1.499 . S
C1827 H1801 0.950 . S
C1827 C1826 1.414 . S
C1827 C1828 1.374 . S
C1828 H1802 0.950 . S
C1828 C1824 1.385 . S
C1828 C1827 1.374 . S
C1829 C1826 1.499 . S
C1829 C1830 1.373 . S
C1829 C1831 1.389 . S
C1830 H1803 0.950 . S
C1830 C1816 1.377 . S
C1830 C1829 1.373 . S
C1831 C1815 1.377 . S
C1831 C1829 1.389 . S
C1831 C1832 1.524 . S
C1832 C1831 1.524 . S
C1832 C1833 1.397 . S
C1832 C1837 1.363 . S
C1833 H1804 0.950 . S
C1833 C1832 1.397 . S
C1833 C1834 1.334 . S
C1834 H1805 0.950 . S
C1834 C1833 1.334 . S
C1834 C1835 1.287 . S
C1835 C1834 1.287 . S
C1835 C1836 1.524 . S
C1835 H1838 0.999 . S
C1836 H1806 0.950 . S
C1836 C1835 1.524 . S
C1836 C1837 1.415 . S
C1837 H1807 0.950 . S
C1837 C1832 1.363 . S
C1837 C1836 1.415 . S
H1838 C1835 0.999 . S
H1839 C1820 0.913 . S
H1840 C1858 0.951 . S
H1841 C1860 0.951 . S
H1842 C1862 0.950 . S
H1843 C1863 0.950 . S
H1844 C1865 0.950 . S
H1845 C1868 0.950 . S
H1846 C1869 0.950 . S
H1847 C1871 0.950 . S
H1848 C1872 0.950 . S
H1849 C1873 0.951 . S
H1850 C1875 0.951 . S
H1851 C1877 0.950 . S
H1852 C1878 0.950 . S
H1853 C1880 0.950 . S
H1854 C1883 0.950 . S
H1855 C1884 0.950 . S
H1856 C1886 0.950 . S
H1857 C1887 0.950 . S
C1858 H1840 0.951 . S
C1858 C1859 1.366 . S
C1858 C1860 1.388 . S
C1859 C1858 1.366 . S
C1859 C1863 1.385 . S
C1860 H1841 0.951 . S
C1860 C1858 1.388 . S
C1860 C1861 1.366 . S
C1861 C1860 1.366 . S
C1861 C1862 1.414 . S
C1861 C1864 1.499 . S
C1862 H1842 0.950 . S
C1862 C1861 1.414 . S
C1862 C1863 1.374 . S
C1863 H1843 0.950 . S
C1863 C1859 1.385 . S
C1863 C1862 1.374 . S
C1864 C1861 1.499 . S
C1864 C1865 1.373 . S
C1864 C1866 1.389 . S
C1865 H1844 0.950 . S
C1865 C1864 1.373 . S
C1865 C1881 1.377 . S
C1866 C1864 1.389 . S
C1866 C1867 1.524 . S
C1866 C1880 1.377 . S
C1867 C1866 1.524 . S
C1867 C1868 1.397 . S
C1867 C1872 1.363 . S
C1868 H1845 0.950 . S
C1868 C1867 1.397 . S
C1868 C1869 1.334 . S
C1869 H1846 0.950 . S
C1869 C1868 1.334 . S
C1869 C1870 1.287 . S
C1870 C1869 1.287 . S
C1870 C1871 1.524 . S
C1870 H1889 0.913 . S
C1871 H1847 0.950 . S
C1871 C1870 1.524 . S
C1871 C1872 1.415 . S
C1872 H1848 0.950 . S
C1872 C1867 1.363 . S
C1872 C1871 1.415 . S
C1873 H1849 0.951 . S
C1873 C1874 1.366 . S
C1873 C1875 1.388 . S
C1874 C1873 1.366 . S
C1874 C1878 1.385 . S
C1875 H1850 0.951 . S
C1875 C1873 1.388 . S
C1875 C1876 1.366 . S
C1876 C1875 1.366 . S
C1876 C1877 1.414 . S
C1876 C1879 1.499 . S
C1877 H1851 0.950 . S
C1877 C1876 1.414 . S
C1877 C1878 1.374 . S
C1878 H1852 0.950 . S
C1878 C1874 1.385 . S
C1878 C1877 1.374 . S
C1879 C1876 1.499 . S
C1879 C1880 1.373 . S
C1879 C1881 1.389 . S
C1880 H1853 0.950 . S
C1880 C1866 1.377 . S
C1880 C1879 1.373 . S
C1881 C1865 1.377 . S
C1881 C1879 1.389 . S
C1881 C1882 1.524 . S
C1882 C1881 1.524 . S
C1882 C1883 1.397 . S
C1882 C1887 1.363 . S
C1883 H1854 0.950 . S
C1883 C1882 1.397 . S
C1883 C1884 1.334 . S
C1884 H1855 0.950 . S
C1884 C1883 1.334 . S
C1884 C1885 1.287 . S
C1885 C1884 1.287 . S
C1885 C1886 1.524 . S
C1885 H1888 0.999 . S
C1886 H1856 0.950 . S
C1886 C1885 1.524 . S
C1886 C1887 1.415 . S
C1887 H1857 0.950 . S
C1887 C1882 1.363 . S
C1887 C1886 1.415 . S
H1888 C1885 0.999 . S
H1889 C1870 0.913 . S
H1890 C1908 0.951 . S
H1891 C1910 0.951 . S
H1892 C1912 0.950 . S
H1893 C1913 0.950 . S
H1894 C1915 0.950 . S
H1895 C1918 0.950 . S
H1896 C1919 0.950 . S
H1897 C1921 0.950 . S
H1898 C1922 0.950 . S
H1899 C1923 0.951 . S
H1900 C1925 0.951 . S
H1901 C1927 0.950 . S
H1902 C1928 0.950 . S
H1903 C1930 0.950 . S
H1904 C1933 0.950 . S
H1905 C1934 0.950 . S
H1906 C1936 0.950 . S
H1907 C1937 0.950 . S
C1908 H1890 0.951 . S
C1908 C1909 1.366 . S
C1908 C1910 1.388 . S
C1909 C1908 1.366 . S
C1909 C1913 1.385 . S
C1910 H1891 0.951 . S
C1910 C1908 1.388 . S
C1910 C1911 1.366 . S
C1911 C1910 1.366 . S
C1911 C1912 1.414 . S
C1911 C1914 1.499 . S
C1912 H1892 0.950 . S
C1912 C1911 1.414 . S
C1912 C1913 1.374 . S
C1913 H1893 0.950 . S
C1913 C1909 1.385 . S
C1913 C1912 1.374 . S
C1914 C1911 1.499 . S
C1914 C1915 1.373 . S
C1914 C1916 1.389 . S
C1915 H1894 0.950 . S
C1915 C1914 1.373 . S
C1915 C1931 1.377 . S
C1916 C1914 1.389 . S
C1916 C1917 1.524 . S
C1916 C1930 1.377 . S
C1917 C1916 1.524 . S
C1917 C1918 1.397 . S
C1917 C1922 1.363 . S
C1918 H1895 0.950 . S
C1918 C1917 1.397 . S
C1918 C1919 1.334 . S
C1919 H1896 0.950 . S
C1919 C1918 1.334 . S
C1919 C1920 1.287 . S
C1920 C1919 1.287 . S
C1920 C1921 1.524 . S
C1920 H1939 0.913 . S
C1921 H1897 0.950 . S
C1921 C1920 1.524 . S
C1921 C1922 1.415 . S
C1922 H1898 0.950 . S
C1922 C1917 1.363 . S
C1922 C1921 1.415 . S
C1923 H1899 0.951 . S
C1923 C1924 1.366 . S
C1923 C1925 1.388 . S
C1924 C1923 1.366 . S
C1924 C1928 1.385 . S
C1925 H1900 0.951 . S
C1925 C1923 1.388 . S
C1925 C1926 1.366 . S
C1926 C1925 1.366 . S
C1926 C1927 1.414 . S
C1926 C1929 1.499 . S
C1927 H1901 0.950 . S
C1927 C1926 1.414 . S
C1927 C1928 1.374 . S
C1928 H1902 0.950 . S
C1928 C1924 1.385 . S
C1928 C1927 1.374 . S
C1929 C1926 1.499 . S
C1929 C1930 1.373 . S
C1929 C1931 1.389 . S
C1930 H1903 0.950 . S
C1930 C1916 1.377 . S
C1930 C1929 1.373 . S
C1931 C1915 1.377 . S
C1931 C1929 1.389 . S
C1931 C1932 1.524 . S
C1932 C1931 1.524 . S
C1932 C1933 1.397 . S
C1932 C1937 1.363 . S
C1933 H1904 0.950 . S
C1933 C1932 1.397 . S
C1933 C1934 1.334 . S
C1934 H1905 0.950 . S
C1934 C1933 1.334 . S
C1934 C1935 1.287 . S
C1935 C1934 1.287 . S
C1935 C1936 1.524 . S
C1935 H1938 0.999 . S
C1936 H1906 0.950 . S
C1936 C1935 1.524 . S
C1936 C1937 1.415 . S
C1937 H1907 0.950 . S
C1937 C1932 1.363 . S
C1937 C1936 1.415 . S
H1938 C1935 0.999 . S
H1939 C1920 0.913 . S
H1940 C1958 0.951 . S
H1941 C1960 0.951 . S
H1942 C1962 0.950 . S
H1943 C1963 0.950 . S
H1944 C1965 0.950 . S
H1945 C1968 0.950 . S
H1946 C1969 0.950 . S
H1947 C1971 0.950 . S
H1948 C1972 0.950 . S
H1949 C1973 0.951 . S
H1950 C1975 0.951 . S
H1951 C1977 0.950 . S
H1952 C1978 0.950 . S
H1953 C1980 0.950 . S
H1954 C1983 0.950 . S
H1955 C1984 0.950 . S
H1956 C1986 0.950 . S
H1957 C1987 0.950 . S
C1958 H1940 0.951 . S
C1958 C1959 1.366 . S
C1958 C1960 1.388 . S
C1959 C1958 1.366 . S
C1959 C1963 1.385 . S
C1960 H1941 0.951 . S
C1960 C1958 1.388 . S
C1960 C1961 1.366 . S
C1961 C1960 1.366 . S
C1961 C1962 1.414 . S
C1961 C1964 1.499 . S
C1962 H1942 0.950 . S
C1962 C1961 1.414 . S
C1962 C1963 1.374 . S
C1963 H1943 0.950 . S
C1963 C1959 1.385 . S
C1963 C1962 1.374 . S
C1964 C1961 1.499 . S
C1964 C1965 1.373 . S
C1964 C1966 1.389 . S
C1965 H1944 0.950 . S
C1965 C1964 1.373 . S
C1965 C1981 1.377 . S
C1966 C1964 1.389 . S
C1966 C1967 1.524 . S
C1966 C1980 1.377 . S
C1967 C1966 1.524 . S
C1967 C1968 1.397 . S
C1967 C1972 1.363 . S
C1968 H1945 0.950 . S
C1968 C1967 1.397 . S
C1968 C1969 1.334 . S
C1969 H1946 0.950 . S
C1969 C1968 1.334 . S
C1969 C1970 1.287 . S
C1970 C1969 1.287 . S
C1970 C1971 1.524 . S
C1970 H1989 0.913 . S
C1971 H1947 0.950 . S
C1971 C1970 1.524 . S
C1971 C1972 1.415 . S
C1972 H1948 0.950 . S
C1972 C1967 1.363 . S
C1972 C1971 1.415 . S
C1973 H1949 0.951 . S
C1973 C1974 1.366 . S
C1973 C1975 1.388 . S
C1974 C1973 1.366 . S
C1974 C1978 1.385 . S
C1975 H1950 0.951 . S
C1975 C1973 1.388 . S
C1975 C1976 1.366 . S
C1976 C1975 1.366 . S
C1976 C1977 1.414 . S
C1976 C1979 1.499 . S
C1977 H1951 0.950 . S
C1977 C1976 1.414 . S
C1977 C1978 1.374 . S
C1978 H1952 0.950 . S
C1978 C1974 1.385 . S
C1978 C1977 1.374 . S
C1979 C1976 1.499 . S
C1979 C1980 1.373 . S
C1979 C1981 1.389 . S
C1980 H1953 0.950 . S
C1980 C1966 1.377 . S
C1980 C1979 1.373 . S
C1981 C1965 1.377 . S
C1981 C1979 1.389 . S
C1981 C1982 1.524 . S
C1982 C1981 1.524 . S
C1982 C1983 1.397 . S
C1982 C1987 1.363 . S
C1983 H1954 0.950 . S
C1983 C1982 1.397 . S
C1983 C1984 1.334 . S
C1984 H1955 0.950 . S
C1984 C1983 1.334 . S
C1984 C1985 1.287 . S
C1985 C1984 1.287 . S
C1985 C1986 1.524 . S
C1985 H1988 0.999 . S
C1986 H1956 0.950 . S
C1986 C1985 1.524 . S
C1986 C1987 1.415 . S
C1987 H1957 0.950 . S
C1987 C1982 1.363 . S
C1987 C1986 1.415 . S
H1988 C1985 0.999 . S
H1989 C1970 0.913 . S
H1990 C2008 0.951 . S
H1991 C2010 0.951 . S
H1992 C2012 0.950 . S
H1993 C2013 0.950 . S
H1994 C2015 0.950 . S
H1995 C2018 0.950 . S
H1996 C2019 0.950 . S
H1997 C2021 0.950 . S
H1998 C2022 0.950 . S
H1999 C2023 0.951 . S
H2000 C2025 0.951 . S
H2001 C2027 0.950 . S
H2002 C2028 0.950 . S
H2003 C2030 0.950 . S
H2004 C2033 0.950 . S
H2005 C2034 0.950 . S
H2006 C2036 0.950 . S
H2007 C2037 0.950 . S
C2008 H1990 0.951 . S
C2008 C2009 1.366 . S
C2008 C2010 1.388 . S
C2009 C2008 1.366 . S
C2009 C2013 1.385 . S
C2010 H1991 0.951 . S
C2010 C2008 1.388 . S
C2010 C2011 1.366 . S
C2011 C2010 1.366 . S
C2011 C2012 1.414 . S
C2011 C2014 1.499 . S
C2012 H1992 0.950 . S
C2012 C2011 1.414 . S
C2012 C2013 1.374 . S
C2013 H1993 0.950 . S
C2013 C2009 1.385 . S
C2013 C2012 1.374 . S
C2014 C2011 1.499 . S
C2014 C2015 1.373 . S
C2014 C2016 1.389 . S
C2015 H1994 0.950 . S
C2015 C2014 1.373 . S
C2015 C2031 1.377 . S
C2016 C2014 1.389 . S
C2016 C2017 1.524 . S
C2016 C2030 1.377 . S
C2017 C2016 1.524 . S
C2017 C2018 1.397 . S
C2017 C2022 1.363 . S
C2018 H1995 0.950 . S
C2018 C2017 1.397 . S
C2018 C2019 1.334 . S
C2019 H1996 0.950 . S
C2019 C2018 1.334 . S
C2019 C2020 1.287 . S
C2020 C2019 1.287 . S
C2020 C2021 1.524 . S
C2020 H2039 0.913 . S
C2021 H1997 0.950 . S
C2021 C2020 1.524 . S
C2021 C2022 1.415 . S
C2022 H1998 0.950 . S
C2022 C2017 1.363 . S
C2022 C2021 1.415 . S
C2023 H1999 0.951 . S
C2023 C2024 1.366 . S
C2023 C2025 1.388 . S
C2024 C2023 1.366 . S
C2024 C2028 1.385 . S
C2025 H2000 0.951 . S
C2025 C2023 1.388 . S
C2025 C2026 1.366 . S
C2026 C2025 1.366 . S
C2026 C2027 1.414 . S
C2026 C2029 1.499 . S
C2027 H2001 0.950 . S
C2027 C2026 1.414 . S
C2027 C2028 1.374 . S
C2028 H2002 0.950 . S
C2028 C2024 1.385 . S
C2028 C2027 1.374 . S
C2029 C2026 1.499 . S
C2029 C2030 1.373 . S
C2029 C2031 1.389 . S
C2030 H2003 0.950 . S
C2030 C2016 1.377 . S
C2030 C2029 1.373 . S
C2031 C2015 1.377 . S
C2031 C2029 1.389 . S
C2031 C2032 1.524 . S
C2032 C2031 1.524 . S
C2032 C2033 1.397 . S
C2032 C2037 1.363 . S
C2033 H2004 0.950 . S
C2033 C2032 1.397 . S
C2033 C2034 1.334 . S
C2034 H2005 0.950 . S
C2034 C2033 1.334 . S
C2034 C2035 1.287 . S
C2035 C2034 1.287 . S
C2035 C2036 1.524 . S
C2035 H2038 0.999 . S
C2036 H2006 0.950 . S
C2036 C2035 1.524 . S
C2036 C2037 1.415 . S
C2037 H2007 0.950 . S
C2037 C2032 1.363 . S
C2037 C2036 1.415 . S
H2038 C2035 0.999 . S
H2039 C2020 0.913 . S
H2040 C2058 0.951 . S
H2041 C2060 0.951 . S
H2042 C2062 0.950 . S
H2043 C2063 0.950 . S
H2044 C2065 0.950 . S
H2045 C2068 0.950 1_545 S
H2046 C2069 0.950 1_545 S
H2047 C2071 0.950 . S
H2048 C2072 0.950 . S
H2049 C2073 0.951 . S
H2050 C2075 0.951 . S
H2051 C2077 0.950 . S
H2052 C2078 0.950 . S
H2053 C2080 0.950 . S
H2054 C2083 0.950 . S
H2055 C2084 0.950 . S
H2056 C2086 0.950 . S
H2057 C2087 0.950 . S
C2058 H2040 0.951 . S
C2058 C2059 1.366 . S
C2058 C2060 1.388 . S
C2059 C2058 1.366 . S
C2059 C2063 1.385 . S
C2060 H2041 0.951 . S
C2060 C2058 1.388 . S
C2060 C2061 1.366 . S
C2061 C2060 1.366 . S
C2061 C2062 1.414 . S
C2061 C2064 1.499 . S
C2062 H2042 0.950 . S
C2062 C2061 1.414 . S
C2062 C2063 1.374 . S
C2063 H2043 0.950 . S
C2063 C2059 1.385 . S
C2063 C2062 1.374 . S
C2064 C2061 1.499 . S
C2064 C2065 1.373 . S
C2064 C2066 1.389 1_545 S
C2065 H2044 0.950 . S
C2065 C2064 1.373 . S
C2065 C2081 1.377 1_545 S
C2066 C2064 1.389 1_565 S
C2066 C2067 1.524 . S
C2066 C2080 1.377 . S
C2067 C2066 1.524 . S
C2067 C2068 1.397 . S
C2067 C2072 1.363 . S
C2068 H2045 0.950 1_565 S
C2068 C2067 1.397 . S
C2068 C2069 1.334 . S
C2069 H2046 0.950 1_565 S
C2069 C2068 1.334 . S
C2069 C2070 1.287 . S
C2070 C2069 1.287 . S
C2070 C2071 1.524 . S
C2070 H2089 0.913 . S
C2071 H2047 0.950 . S
C2071 C2070 1.524 . S
C2071 C2072 1.415 . S
C2072 H2048 0.950 . S
C2072 C2067 1.363 . S
C2072 C2071 1.415 . S
C2073 H2049 0.951 . S
C2073 C2074 1.366 . S
C2073 C2075 1.388 . S
C2074 C2073 1.366 . S
C2074 C2078 1.385 . S
C2075 H2050 0.951 . S
C2075 C2073 1.388 . S
C2075 C2076 1.366 . S
C2076 C2075 1.366 . S
C2076 C2077 1.414 . S
C2076 C2079 1.499 . S
C2077 H2051 0.950 . S
C2077 C2076 1.414 . S
C2077 C2078 1.374 . S
C2078 H2052 0.950 . S
C2078 C2074 1.385 . S
C2078 C2077 1.374 . S
C2079 C2076 1.499 . S
C2079 C2080 1.373 . S
C2079 C2081 1.389 . S
C2080 H2053 0.950 . S
C2080 C2066 1.377 . S
C2080 C2079 1.373 . S
C2081 C2065 1.377 1_565 S
C2081 C2079 1.389 . S
C2081 C2082 1.524 . S
C2082 C2081 1.524 . S
C2082 C2083 1.397 . S
C2082 C2087 1.363 1_565 S
C2083 H2054 0.950 . S
C2083 C2082 1.397 . S
C2083 C2084 1.334 . S
C2084 H2055 0.950 . S
C2084 C2083 1.334 . S
C2084 C2085 1.278 1_565 S
C2085 C2084 1.278 1_545 S
C2085 C2086 1.523 . S
C2085 H2088 1.009 . S
C2086 H2056 0.950 . S
C2086 C2085 1.523 . S
C2086 C2087 1.415 . S
C2087 H2057 0.950 . S
C2087 C2082 1.363 1_545 S
C2087 C2086 1.415 . S
H2088 C2085 1.009 . S
H2089 C2070 0.913 . S
H2090 C2108 0.951 . S
H2091 C2110 0.921 1_455 S
H2092 C2112 0.950 . S
H2093 C2113 0.950 . S
H2094 C2115 0.950 1_655 S
H2095 C2118 0.950 . S
H2096 C2119 0.950 . S
H2097 C2121 0.950 . S
H2098 C2122 0.950 . S
H2099 C2123 0.951 . S
H2100 C2125 0.951 . S
H2101 C2127 0.950 . S
H2102 C2128 0.950 . S
H2103 C2130 0.950 . S
H2104 C2133 0.950 . S
H2105 C2134 0.950 . S
H2106 C2136 0.950 . S
H2107 C2137 0.909 1_655 S
C2108 H2090 0.951 . S
C2108 C2109 1.366 . S
C2108 C2110 1.388 . S
C2109 C2108 1.366 . S
C2109 C2113 1.385 . S
C2110 H2091 0.921 1_655 S
C2110 C2108 1.388 . S
C2110 C2111 1.366 . S
C2111 C2110 1.366 . S
C2111 C2112 1.414 . S
C2111 C2114 1.499 1_655 S
C2112 H2092 0.950 . S
C2112 C2111 1.414 . S
C2112 C2113 1.374 . S
C2113 H2093 0.950 . S
C2113 C2109 1.385 . S
C2113 C2112 1.374 . S
C2114 C2111 1.499 1_455 S
C2114 C2115 1.373 . S
C2114 C2116 1.389 . S
C2115 H2094 0.950 1_455 S
C2115 C2114 1.373 . S
C2115 C2131 1.377 . S
C2116 C2114 1.389 . S
C2116 C2117 1.524 . S
C2116 C2130 1.377 . S
C2117 C2116 1.524 . S
C2117 C2118 1.397 . S
C2117 C2122 1.363 . S
C2118 H2095 0.950 . S
C2118 C2117 1.397 . S
C2118 C2119 1.334 . S
C2119 H2096 0.950 . S
C2119 C2118 1.334 . S
C2119 C2120 1.287 . S
C2120 C2119 1.287 . S
C2120 C2121 1.524 . S
C2120 H2139 0.913 . S
C2121 H2097 0.950 . S
C2121 C2120 1.524 . S
C2121 C2122 1.415 . S
C2122 H2098 0.950 . S
C2122 C2117 1.363 . S
C2122 C2121 1.415 . S
C2123 H2099 0.951 . S
C2123 C2124 1.366 . S
C2123 C2125 1.388 . S
C2124 C2123 1.366 . S
C2124 C2128 1.385 . S
C2125 H2100 0.951 . S
C2125 C2123 1.388 . S
C2125 C2126 1.366 . S
C2126 C2125 1.366 . S
C2126 C2127 1.414 . S
C2126 C2129 1.499 . S
C2127 H2101 0.950 . S
C2127 C2126 1.414 . S
C2127 C2128 1.374 . S
C2128 H2102 0.950 . S
C2128 C2124 1.385 . S
C2128 C2127 1.374 . S
C2129 C2126 1.499 . S
C2129 C2130 1.373 . S
C2129 C2131 1.389 . S
C2130 H2103 0.950 . S
C2130 C2116 1.377 . S
C2130 C2129 1.373 . S
C2131 C2115 1.377 . S
C2131 C2129 1.389 . S
C2131 C2132 1.524 . S
C2132 C2131 1.524 . S
C2132 C2133 1.397 . S
C2132 C2137 1.394 . S
C2133 H2104 0.950 . S
C2133 C2132 1.397 . S
C2133 C2134 1.334 . S
C2134 H2105 0.950 . S
C2134 C2133 1.334 . S
C2134 C2135 1.287 . S
C2135 C2134 1.287 . S
C2135 C2136 1.524 1_455 S
C2135 H2138 0.999 . S
C2136 H2106 0.950 . S
C2136 C2135 1.524 1_655 S
C2136 C2137 1.427 1_655 S
C2137 H2107 0.909 1_455 S
C2137 C2132 1.394 . S
C2137 C2136 1.427 1_455 S
H2138 C2135 0.999 . S
H2139 C2120 0.913 . S
H2140 C2158 0.951 . S
H2141 C2160 0.951 . S
H2142 C2162 0.950 . S
H2143 C2163 0.950 . S
H2144 C2165 0.950 . S
H2145 C2168 0.950 . S
H2146 C2169 0.950 . S
H2147 C2171 0.950 . S
H2148 C2172 0.950 . S
H2149 C2173 0.951 . S
H2150 C2175 0.951 . S
H2151 C2177 0.950 . S
H2152 C2178 0.950 . S
H2153 C2180 0.950 . S
H2154 C2183 0.950 . S
H2155 C2184 0.950 . S
H2156 C2186 0.950 . S
H2157 C2187 0.950 . S
C2158 H2140 0.951 . S
C2158 C2159 1.366 . S
C2158 C2160 1.388 . S
C2159 C2158 1.366 . S
C2159 C2163 1.385 . S
C2160 H2141 0.951 . S
C2160 C2158 1.388 . S
C2160 C2161 1.366 . S
C2161 C2160 1.366 . S
C2161 C2162 1.414 . S
C2161 C2164 1.499 . S
C2162 H2142 0.950 . S
C2162 C2161 1.414 . S
C2162 C2163 1.374 . S
C2163 H2143 0.950 . S
C2163 C2159 1.385 . S
C2163 C2162 1.374 . S
C2164 C2161 1.499 . S
C2164 C2165 1.373 . S
C2164 C2166 1.389 . S
C2165 H2144 0.950 . S
C2165 C2164 1.373 . S
C2165 C2181 1.377 . S
C2166 C2164 1.389 . S
C2166 C2167 1.524 . S
C2166 C2180 1.377 . S
C2167 C2166 1.524 . S
C2167 C2168 1.397 . S
C2167 C2172 1.363 . S
C2168 H2145 0.950 . S
C2168 C2167 1.397 . S
C2168 C2169 1.334 . S
C2169 H2146 0.950 . S
C2169 C2168 1.334 . S
C2169 C2170 1.287 . S
C2170 C2169 1.287 . S
C2170 C2171 1.524 . S
C2170 H2189 0.913 . S
C2171 H2147 0.950 . S
C2171 C2170 1.524 . S
C2171 C2172 1.415 . S
C2172 H2148 0.950 . S
C2172 C2167 1.363 . S
C2172 C2171 1.415 . S
C2173 H2149 0.951 . S
C2173 C2174 1.366 . S
C2173 C2175 1.388 . S
C2174 C2173 1.366 . S
C2174 C2178 1.385 . S
C2175 H2150 0.951 . S
C2175 C2173 1.388 . S
C2175 C2176 1.366 . S
C2176 C2175 1.366 . S
C2176 C2177 1.414 . S
C2176 C2179 1.499 . S
C2177 H2151 0.950 . S
C2177 C2176 1.414 . S
C2177 C2178 1.374 . S
C2178 H2152 0.950 . S
C2178 C2174 1.385 . S
C2178 C2177 1.374 . S
C2179 C2176 1.499 . S
C2179 C2180 1.373 . S
C2179 C2181 1.389 . S
C2180 H2153 0.950 . S
C2180 C2166 1.377 . S
C2180 C2179 1.373 . S
C2181 C2165 1.377 . S
C2181 C2179 1.389 . S
C2181 C2182 1.524 . S
C2182 C2181 1.524 . S
C2182 C2183 1.397 . S
C2182 C2187 1.363 . S
C2183 H2154 0.950 . S
C2183 C2182 1.397 . S
C2183 C2184 1.334 . S
C2184 H2155 0.950 . S
C2184 C2183 1.334 . S
C2184 C2185 1.287 . S
C2185 C2184 1.287 . S
C2185 C2186 1.524 . S
C2185 H2188 0.999 . S
C2186 H2156 0.950 . S
C2186 C2185 1.524 . S
C2186 C2187 1.415 . S
C2187 H2157 0.950 . S
C2187 C2182 1.363 . S
C2187 C2186 1.415 . S
H2188 C2185 0.999 . S
H2189 C2170 0.913 . S
H2190 C2208 0.951 . S
H2191 C2210 0.951 . S
H2192 C2212 0.950 . S
H2193 C2213 0.950 . S
H2194 C2215 0.950 . S
H2195 C2218 0.950 . S
H2196 C2219 0.950 . S
H2197 C2221 0.950 . S
H2198 C2222 0.950 . S
H2199 C2223 0.951 . S
H2200 C2225 0.951 . S
H2201 C2227 0.950 . S
H2202 C2228 0.950 . S
H2203 C2230 0.950 . S
H2204 C2233 0.950 . S
H2205 C2234 0.950 . S
H2206 C2236 0.950 . S
H2207 C2237 0.950 . S
C2208 H2190 0.951 . S
C2208 C2209 1.366 . S
C2208 C2210 1.388 . S
C2209 C2208 1.366 . S
C2209 C2213 1.385 . S
C2210 H2191 0.951 . S
C2210 C2208 1.388 . S
C2210 C2211 1.366 . S
C2211 C2210 1.366 . S
C2211 C2212 1.414 . S
C2211 C2214 1.499 . S
C2212 H2192 0.950 . S
C2212 C2211 1.414 . S
C2212 C2213 1.374 . S
C2213 H2193 0.950 . S
C2213 C2209 1.385 . S
C2213 C2212 1.374 . S
C2214 C2211 1.499 . S
C2214 C2215 1.373 . S
C2214 C2216 1.389 . S
C2215 H2194 0.950 . S
C2215 C2214 1.373 . S
C2215 C2231 1.377 . S
C2216 C2214 1.389 . S
C2216 C2217 1.524 . S
C2216 C2230 1.377 . S
C2217 C2216 1.524 . S
C2217 C2218 1.397 . S
C2217 C2222 1.363 . S
C2218 H2195 0.950 . S
C2218 C2217 1.397 . S
C2218 C2219 1.334 . S
C2219 H2196 0.950 . S
C2219 C2218 1.334 . S
C2219 C2220 1.287 . S
C2220 C2219 1.287 . S
C2220 C2221 1.524 . S
C2220 H2239 0.913 . S
C2221 H2197 0.950 . S
C2221 C2220 1.524 . S
C2221 C2222 1.415 . S
C2222 H2198 0.950 . S
C2222 C2217 1.363 . S
C2222 C2221 1.415 . S
C2223 H2199 0.951 . S
C2223 C2224 1.366 . S
C2223 C2225 1.388 . S
C2224 C2223 1.366 . S
C2224 C2228 1.385 . S
C2225 H2200 0.951 . S
C2225 C2223 1.388 . S
C2225 C2226 1.366 . S
C2226 C2225 1.366 . S
C2226 C2227 1.414 . S
C2226 C2229 1.499 . S
C2227 H2201 0.950 . S
C2227 C2226 1.414 . S
C2227 C2228 1.374 . S
C2228 H2202 0.950 . S
C2228 C2224 1.385 . S
C2228 C2227 1.374 . S
C2229 C2226 1.499 . S
C2229 C2230 1.373 . S
C2229 C2231 1.389 . S
C2230 H2203 0.950 . S
C2230 C2216 1.377 . S
C2230 C2229 1.373 . S
C2231 C2215 1.377 . S
C2231 C2229 1.389 . S
C2231 C2232 1.524 . S
C2232 C2231 1.524 . S
C2232 C2233 1.397 . S
C2232 C2237 1.363 . S
C2233 H2204 0.950 . S
C2233 C2232 1.397 . S
C2233 C2234 1.334 . S
C2234 H2205 0.950 . S
C2234 C2233 1.334 . S
C2234 C2235 1.287 . S
C2235 C2234 1.287 . S
C2235 C2236 1.524 . S
C2235 H2238 0.999 . S
C2236 H2206 0.950 . S
C2236 C2235 1.524 . S
C2236 C2237 1.415 . S
C2237 H2207 0.950 . S
C2237 C2232 1.363 . S
C2237 C2236 1.415 . S
H2238 C2235 0.999 . S
H2239 C2220 0.913 . S
H2240 C2258 0.951 . S
H2241 C2260 0.951 . S
H2242 C2262 0.950 . S
H2243 C2263 0.950 . S
H2244 C2265 0.950 . S
H2245 C2268 0.950 . S
H2246 C2269 0.950 . S
H2247 C2271 0.950 . S
H2248 C2272 0.950 . S
H2249 C2273 0.951 . S
H2250 C2275 0.951 . S
H2251 C2277 0.950 . S
H2252 C2278 0.950 . S
H2253 C2280 0.950 . S
H2254 C2283 0.950 . S
H2255 C2284 0.950 . S
H2256 C2286 0.950 . S
H2257 C2287 0.950 . S
C2258 H2240 0.951 . S
C2258 C2259 1.366 . S
C2258 C2260 1.388 . S
C2259 C2258 1.366 . S
C2259 C2263 1.385 . S
C2260 H2241 0.951 . S
C2260 C2258 1.388 . S
C2260 C2261 1.366 . S
C2261 C2260 1.366 . S
C2261 C2262 1.414 . S
C2261 C2264 1.499 . S
C2262 H2242 0.950 . S
C2262 C2261 1.414 . S
C2262 C2263 1.374 . S
C2263 H2243 0.950 . S
C2263 C2259 1.385 . S
C2263 C2262 1.374 . S
C2264 C2261 1.499 . S
C2264 C2265 1.373 . S
C2264 C2266 1.389 . S
C2265 H2244 0.950 . S
C2265 C2264 1.373 . S
C2265 C2281 1.377 . S
C2266 C2264 1.389 . S
C2266 C2267 1.524 . S
C2266 C2280 1.377 . S
C2267 C2266 1.524 . S
C2267 C2268 1.397 . S
C2267 C2272 1.363 . S
C2268 H2245 0.950 . S
C2268 C2267 1.397 . S
C2268 C2269 1.334 . S
C2269 H2246 0.950 . S
C2269 C2268 1.334 . S
C2269 C2270 1.287 . S
C2270 C2269 1.287 . S
C2270 C2271 1.524 . S
C2270 H2289 0.913 . S
C2271 H2247 0.950 . S
C2271 C2270 1.524 . S
C2271 C2272 1.415 . S
C2272 H2248 0.950 . S
C2272 C2267 1.363 . S
C2272 C2271 1.415 . S
C2273 H2249 0.951 . S
C2273 C2274 1.366 . S
C2273 C2275 1.388 . S
C2274 C2273 1.366 . S
C2274 C2278 1.385 . S
C2275 H2250 0.951 . S
C2275 C2273 1.388 . S
C2275 C2276 1.366 . S
C2276 C2275 1.366 . S
C2276 C2277 1.414 . S
C2276 C2279 1.499 . S
C2277 H2251 0.950 . S
C2277 C2276 1.414 . S
C2277 C2278 1.374 . S
C2278 H2252 0.950 . S
C2278 C2274 1.385 . S
C2278 C2277 1.374 . S
C2279 C2276 1.499 . S
C2279 C2280 1.373 . S
C2279 C2281 1.389 . S
C2280 H2253 0.950 . S
C2280 C2266 1.377 . S
C2280 C2279 1.373 . S
C2281 C2265 1.377 . S
C2281 C2279 1.389 . S
C2281 C2282 1.524 . S
C2282 C2281 1.524 . S
C2282 C2283 1.397 . S
C2282 C2287 1.363 . S
C2283 H2254 0.950 . S
C2283 C2282 1.397 . S
C2283 C2284 1.334 . S
C2284 H2255 0.950 . S
C2284 C2283 1.334 . S
C2284 C2285 1.287 . S
C2285 C2284 1.287 . S
C2285 C2286 1.524 . S
C2285 H2288 0.999 . S
C2286 H2256 0.950 . S
C2286 C2285 1.524 . S
C2286 C2287 1.415 . S
C2287 H2257 0.950 . S
C2287 C2282 1.363 . S
C2287 C2286 1.415 . S
H2288 C2285 0.999 . S
H2289 C2270 0.913 . S
H2290 C2308 0.951 . S
H2291 C2310 0.951 . S
H2292 C2312 0.950 . S
H2293 C2313 0.950 . S
H2294 C2315 0.950 . S
H2295 C2318 0.950 . S
H2296 C2319 0.950 . S
H2297 C2321 0.950 . S
H2298 C2322 0.950 . S
H2299 C2323 0.951 . S
H2300 C2325 0.951 . S
H2301 C2327 0.950 . S
H2302 C2328 0.950 . S
H2303 C2330 0.950 . S
H2304 C2333 0.950 . S
H2305 C2334 0.950 . S
H2306 C2336 0.950 . S
H2307 C2337 0.950 . S
C2308 H2290 0.951 . S
C2308 C2309 1.366 . S
C2308 C2310 1.388 . S
C2309 C2308 1.366 . S
C2309 C2313 1.385 . S
C2310 H2291 0.951 . S
C2310 C2308 1.388 . S
C2310 C2311 1.366 . S
C2311 C2310 1.366 . S
C2311 C2312 1.414 . S
C2311 C2314 1.499 . S
C2312 H2292 0.950 . S
C2312 C2311 1.414 . S
C2312 C2313 1.374 . S
C2313 H2293 0.950 . S
C2313 C2309 1.385 . S
C2313 C2312 1.374 . S
C2314 C2311 1.499 . S
C2314 C2315 1.373 . S
C2314 C2316 1.389 . S
C2315 H2294 0.950 . S
C2315 C2314 1.373 . S
C2315 C2331 1.377 . S
C2316 C2314 1.389 . S
C2316 C2317 1.524 . S
C2316 C2330 1.377 . S
C2317 C2316 1.524 . S
C2317 C2318 1.397 . S
C2317 C2322 1.363 . S
C2318 H2295 0.950 . S
C2318 C2317 1.397 . S
C2318 C2319 1.334 . S
C2319 H2296 0.950 . S
C2319 C2318 1.334 . S
C2319 C2320 1.287 . S
C2320 C2319 1.287 . S
C2320 C2321 1.524 . S
C2320 H2339 0.913 . S
C2321 H2297 0.950 . S
C2321 C2320 1.524 . S
C2321 C2322 1.415 . S
C2322 H2298 0.950 . S
C2322 C2317 1.363 . S
C2322 C2321 1.415 . S
C2323 H2299 0.951 . S
C2323 C2324 1.366 . S
C2323 C2325 1.388 . S
C2324 C2323 1.366 . S
C2324 C2328 1.385 . S
C2325 H2300 0.951 . S
C2325 C2323 1.388 . S
C2325 C2326 1.366 . S
C2326 C2325 1.366 . S
C2326 C2327 1.414 . S
C2326 C2329 1.499 . S
C2327 H2301 0.950 . S
C2327 C2326 1.414 . S
C2327 C2328 1.374 . S
C2328 H2302 0.950 . S
C2328 C2324 1.385 . S
C2328 C2327 1.374 . S
C2329 C2326 1.499 . S
C2329 C2330 1.373 . S
C2329 C2331 1.389 . S
C2330 H2303 0.950 . S
C2330 C2316 1.377 . S
C2330 C2329 1.373 . S
C2331 C2315 1.377 . S
C2331 C2329 1.389 . S
C2331 C2332 1.524 . S
C2332 C2331 1.524 . S
C2332 C2333 1.397 . S
C2332 C2337 1.363 . S
C2333 H2304 0.950 . S
C2333 C2332 1.397 . S
C2333 C2334 1.334 . S
C2334 H2305 0.950 . S
C2334 C2333 1.334 . S
C2334 C2335 1.287 . S
C2335 C2334 1.287 . S
C2335 C2336 1.524 . S
C2335 H2338 0.999 . S
C2336 H2306 0.950 . S
C2336 C2335 1.524 . S
C2336 C2337 1.415 . S
C2337 H2307 0.950 . S
C2337 C2332 1.363 . S
C2337 C2336 1.415 . S
H2338 C2335 0.999 . S
H2339 C2320 0.913 . S
H2340 C2358 0.951 . S
H2341 C2360 0.951 . S
H2342 C2362 0.950 . S
H2343 C2363 0.950 . S
H2344 C2365 0.950 . S
H2345 C2368 0.950 . S
H2346 C2369 0.949 1_565 S
H2347 C2371 0.950 . S
H2348 C2372 0.950 . S
H2349 C2373 0.951 . S
H2350 C2375 0.951 . S
H2351 C2377 0.950 . S
H2352 C2378 0.950 . S
H2353 C2380 0.950 . S
H2354 C2383 0.950 . S
H2355 C2384 0.950 . S
H2356 C2386 0.950 . S
H2357 C2387 0.950 . S
C2358 H2340 0.951 . S
C2358 C2359 1.366 . S
C2358 C2360 1.388 . S
C2359 C2358 1.366 . S
C2359 C2363 1.385 . S
C2360 H2341 0.951 . S
C2360 C2358 1.388 . S
C2360 C2361 1.366 . S
C2361 C2360 1.366 . S
C2361 C2362 1.414 . S
C2361 C2364 1.499 1_565 S
C2362 H2342 0.950 . S
C2362 C2361 1.414 . S
C2362 C2363 1.374 . S
C2363 H2343 0.950 . S
C2363 C2359 1.385 . S
C2363 C2362 1.374 . S
C2364 C2361 1.499 1_545 S
C2364 C2365 1.373 . S
C2364 C2366 1.389 . S
C2365 H2344 0.950 . S
C2365 C2364 1.373 . S
C2365 C2381 1.377 . S
C2366 C2364 1.389 . S
C2366 C2367 1.524 . S
C2366 C2380 1.377 . S
C2367 C2366 1.524 . S
C2367 C2368 1.397 . S
C2367 C2372 1.363 . S
C2368 H2345 0.950 . S
C2368 C2367 1.397 . S
C2368 C2369 1.334 . S
C2369 H2346 0.949 1_545 S
C2369 C2368 1.334 . S
C2369 C2370 1.287 . S
C2370 C2369 1.287 . S
C2370 C2371 1.524 . S
C2370 H2389 0.913 . S
C2371 H2347 0.950 . S
C2371 C2370 1.524 . S
C2371 C2372 1.415 . S
C2372 H2348 0.950 . S
C2372 C2367 1.363 . S
C2372 C2371 1.415 . S
C2373 H2349 0.951 . S
C2373 C2374 1.366 . S
C2373 C2375 1.388 . S
C2374 C2373 1.366 . S
C2374 C2378 1.385 . S
C2375 H2350 0.951 . S
C2375 C2373 1.388 . S
C2375 C2376 1.366 . S
C2376 C2375 1.366 . S
C2376 C2377 1.414 . S
C2376 C2379 1.499 . S
C2377 H2351 0.950 . S
C2377 C2376 1.414 . S
C2377 C2378 1.374 . S
C2378 H2352 0.950 . S
C2378 C2374 1.385 . S
C2378 C2377 1.374 . S
C2379 C2376 1.499 . S
C2379 C2380 1.373 . S
C2379 C2381 1.389 . S
C2380 H2353 0.950 . S
C2380 C2366 1.377 . S
C2380 C2379 1.373 . S
C2381 C2365 1.377 . S
C2381 C2379 1.389 . S
C2381 C2382 1.524 . S
C2382 C2381 1.524 . S
C2382 C2383 1.397 . S
C2382 C2387 1.363 . S
C2383 H2354 0.950 . S
C2383 C2382 1.397 . S
C2383 C2384 1.334 . S
C2384 H2355 0.950 . S
C2384 C2383 1.334 . S
C2384 C2385 1.287 . S
C2385 C2384 1.287 . S
C2385 C2386 1.524 . S
C2385 H2388 0.999 . S
C2386 H2356 0.950 . S
C2386 C2385 1.524 . S
C2386 C2387 1.415 . S
C2387 H2357 0.950 . S
C2387 C2382 1.363 . S
C2387 C2386 1.415 . S
H2388 C2385 0.999 . S
H2389 C2370 0.913 . S
H2390 C2408 0.951 . S
H2391 C2410 0.951 1_655 S
H2392 C2412 0.950 . S
H2393 C2413 0.950 . S
H2394 C2415 0.950 . S
H2395 C2418 0.950 . S
H2396 C2419 0.950 . S
H2397 C2421 0.950 . S
H2398 C2422 0.950 . S
H2399 C2423 0.951 . S
H2400 C2425 0.951 . S
H2401 C2427 0.950 . S
H2402 C2428 0.950 . S
H2403 C2430 0.950 . S
H2404 C2433 0.950 . S
H2405 C2434 0.950 . S
H2406 C2436 0.950 . S
H2407 C2437 0.950 . S
C2408 H2390 0.951 . S
C2408 C2409 1.366 . S
C2408 C2410 1.388 . S
C2409 C2408 1.366 . S
C2409 C2413 1.385 . S
C2410 H2391 0.951 1_455 S
C2410 C2408 1.388 . S
C2410 C2411 1.366 1_455 S
C2411 C2410 1.366 1_655 S
C2411 C2412 1.414 1_655 S
C2411 C2414 1.499 . S
C2412 H2392 0.950 . S
C2412 C2411 1.414 1_455 S
C2412 C2413 1.374 . S
C2413 H2393 0.950 . S
C2413 C2409 1.385 . S
C2413 C2412 1.374 . S
C2414 C2411 1.499 . S
C2414 C2415 1.373 . S
C2414 C2416 1.389 . S
C2415 H2394 0.950 . S
C2415 C2414 1.373 . S
C2415 C2431 1.377 . S
C2416 C2414 1.389 . S
C2416 C2417 1.524 . S
C2416 C2430 1.377 . S
C2417 C2416 1.524 . S
C2417 C2418 1.397 . S
C2417 C2422 1.363 . S
C2418 H2395 0.950 . S
C2418 C2417 1.397 . S
C2418 C2419 1.334 . S
C2419 H2396 0.950 . S
C2419 C2418 1.334 . S
C2419 C2420 1.287 . S
C2420 C2419 1.287 . S
C2420 C2421 1.524 . S
C2420 H2439 0.913 . S
C2421 H2397 0.950 . S
C2421 C2420 1.524 . S
C2421 C2422 1.415 . S
C2422 H2398 0.950 . S
C2422 C2417 1.363 . S
C2422 C2421 1.415 . S
C2423 H2399 0.951 . S
C2423 C2424 1.366 . S
C2423 C2425 1.388 . S
C2424 C2423 1.366 . S
C2424 C2428 1.385 . S
C2425 H2400 0.951 . S
C2425 C2423 1.388 . S
C2425 C2426 1.366 . S
C2426 C2425 1.366 . S
C2426 C2427 1.414 . S
C2426 C2429 1.499 . S
C2427 H2401 0.950 . S
C2427 C2426 1.414 . S
C2427 C2428 1.374 . S
C2428 H2402 0.950 . S
C2428 C2424 1.385 . S
C2428 C2427 1.374 . S
C2429 C2426 1.499 . S
C2429 C2430 1.373 . S
C2429 C2431 1.389 . S
C2430 H2403 0.950 . S
C2430 C2416 1.377 . S
C2430 C2429 1.373 . S
C2431 C2415 1.377 . S
C2431 C2429 1.389 . S
C2431 C2432 1.524 . S
C2432 C2431 1.524 . S
C2432 C2433 1.397 . S
C2432 C2437 1.363 . S
C2433 H2404 0.950 . S
C2433 C2432 1.397 . S
C2433 C2434 1.334 . S
C2434 H2405 0.950 . S
C2434 C2433 1.334 . S
C2434 C2435 1.287 . S
C2435 C2434 1.287 . S
C2435 C2436 1.524 . S
C2435 H2438 0.999 . S
C2436 H2406 0.950 . S
C2436 C2435 1.524 . S
C2436 C2437 1.415 . S
C2437 H2407 0.950 . S
C2437 C2432 1.363 . S
C2437 C2436 1.415 . S
H2438 C2435 0.999 . S
H2439 C2420 0.913 . S
H2440 C2458 0.951 . S
H2441 C2460 0.951 . S
H2442 C2462 0.950 . S
H2443 C2463 0.950 . S
H2444 C2465 0.950 . S
H2445 C2468 0.950 . S
H2446 C2469 0.950 . S
H2447 C2471 0.950 . S
H2448 C2472 0.950 . S
H2449 C2473 0.951 . S
H2450 C2475 0.951 . S
H2451 C2477 0.950 . S
H2452 C2478 0.950 . S
H2453 C2480 0.950 . S
H2454 C2483 0.950 . S
H2455 C2484 0.950 . S
H2456 C2486 0.950 . S
H2457 C2487 0.950 . S
C2458 H2440 0.951 . S
C2458 C2459 1.366 . S
C2458 C2460 1.388 . S
C2459 C2458 1.366 . S
C2459 C2463 1.385 . S
C2460 H2441 0.951 . S
C2460 C2458 1.388 . S
C2460 C2461 1.366 . S
C2461 C2460 1.366 . S
C2461 C2462 1.414 . S
C2461 C2464 1.499 . S
C2462 H2442 0.950 . S
C2462 C2461 1.414 . S
C2462 C2463 1.374 . S
C2463 H2443 0.950 . S
C2463 C2459 1.385 . S
C2463 C2462 1.374 . S
C2464 C2461 1.499 . S
C2464 C2465 1.373 . S
C2464 C2466 1.389 . S
C2465 H2444 0.950 . S
C2465 C2464 1.373 . S
C2465 C2481 1.377 . S
C2466 C2464 1.389 . S
C2466 C2467 1.524 . S
C2466 C2480 1.377 . S
C2467 C2466 1.524 . S
C2467 C2468 1.397 . S
C2467 C2472 1.363 . S
C2468 H2445 0.950 . S
C2468 C2467 1.397 . S
C2468 C2469 1.334 . S
C2469 H2446 0.950 . S
C2469 C2468 1.334 . S
C2469 C2470 1.287 . S
C2470 C2469 1.287 . S
C2470 C2471 1.524 . S
C2470 H2489 0.913 . S
C2471 H2447 0.950 . S
C2471 C2470 1.524 . S
C2471 C2472 1.415 . S
C2472 H2448 0.950 . S
C2472 C2467 1.363 . S
C2472 C2471 1.415 . S
C2473 H2449 0.951 . S
C2473 C2474 1.366 . S
C2473 C2475 1.388 . S
C2474 C2473 1.366 . S
C2474 C2478 1.385 . S
C2475 H2450 0.951 . S
C2475 C2473 1.388 . S
C2475 C2476 1.366 . S
C2476 C2475 1.366 . S
C2476 C2477 1.414 . S
C2476 C2479 1.499 . S
C2477 H2451 0.950 . S
C2477 C2476 1.414 . S
C2477 C2478 1.374 . S
C2478 H2452 0.950 . S
C2478 C2474 1.385 . S
C2478 C2477 1.374 . S
C2479 C2476 1.499 . S
C2479 C2480 1.373 . S
C2479 C2481 1.389 . S
C2480 H2453 0.950 . S
C2480 C2466 1.377 . S
C2480 C2479 1.373 . S
C2481 C2465 1.377 . S
C2481 C2479 1.389 . S
C2481 C2482 1.524 . S
C2482 C2481 1.524 . S
C2482 C2483 1.397 . S
C2482 C2487 1.363 . S
C2483 H2454 0.950 . S
C2483 C2482 1.397 . S
C2483 C2484 1.334 . S
C2484 H2455 0.950 . S
C2484 C2483 1.334 . S
C2484 C2485 1.287 . S
C2485 C2484 1.287 . S
C2485 C2486 1.524 . S
C2485 H2488 0.999 . S
C2486 H2456 0.950 . S
C2486 C2485 1.524 . S
C2486 C2487 1.415 . S
C2487 H2457 0.950 . S
C2487 C2482 1.363 . S
C2487 C2486 1.415 . S
H2488 C2485 0.999 . S
H2489 C2470 0.913 . S
H2490 C2508 0.951 . S
H2491 C2510 0.951 . S
H2492 C2512 0.950 . S
H2493 C2513 0.950 . S
H2494 C2515 0.950 . S
H2495 C2518 0.950 . S
H2496 C2519 0.950 . S
H2497 C2521 0.950 . S
H2498 C2522 0.950 . S
H2499 C2523 0.951 . S
H2500 C2525 0.951 . S
H2501 C2527 0.950 . S
H2502 C2528 0.950 . S
H2503 C2530 0.950 . S
H2504 C2533 0.950 . S
H2505 C2534 0.950 . S
H2506 C2536 0.950 . S
H2507 C2537 0.950 . S
C2508 H2490 0.951 . S
C2508 C2509 1.366 . S
C2508 C2510 1.388 . S
C2509 C2508 1.366 . S
C2509 C2513 1.385 . S
C2510 H2491 0.951 . S
C2510 C2508 1.388 . S
C2510 C2511 1.366 . S
C2511 C2510 1.366 . S
C2511 C2512 1.414 . S
C2511 C2514 1.499 . S
C2512 H2492 0.950 . S
C2512 C2511 1.414 . S
C2512 C2513 1.374 . S
C2513 H2493 0.950 . S
C2513 C2509 1.385 . S
C2513 C2512 1.374 . S
C2514 C2511 1.499 . S
C2514 C2515 1.373 . S
C2514 C2516 1.389 . S
C2515 H2494 0.950 . S
C2515 C2514 1.373 . S
C2515 C2531 1.377 1_455 S
C2516 C2514 1.389 . S
C2516 C2517 1.524 . S
C2516 C2530 1.377 . S
C2517 C2516 1.524 . S
C2517 C2518 1.397 . S
C2517 C2522 1.363 . S
C2518 H2495 0.950 . S
C2518 C2517 1.397 . S
C2518 C2519 1.334 . S
C2519 H2496 0.950 . S
C2519 C2518 1.334 . S
C2519 C2520 1.287 . S
C2520 C2519 1.287 . S
C2520 C2521 1.524 . S
C2520 H2539 0.913 . S
C2521 H2497 0.950 . S
C2521 C2520 1.524 . S
C2521 C2522 1.415 . S
C2522 H2498 0.950 . S
C2522 C2517 1.363 . S
C2522 C2521 1.415 . S
C2523 H2499 0.951 . S
C2523 C2524 1.366 . S
C2523 C2525 1.388 . S
C2524 C2523 1.366 . S
C2524 C2528 1.385 . S
C2525 H2500 0.951 . S
C2525 C2523 1.388 . S
C2525 C2526 1.366 . S
C2526 C2525 1.366 . S
C2526 C2527 1.414 . S
C2526 C2529 1.499 . S
C2527 H2501 0.950 . S
C2527 C2526 1.414 . S
C2527 C2528 1.374 . S
C2528 H2502 0.950 . S
C2528 C2524 1.385 . S
C2528 C2527 1.374 . S
C2529 C2526 1.499 . S
C2529 C2530 1.373 1_655 S
C2529 C2531 1.389 . S
C2530 H2503 0.950 . S
C2530 C2516 1.377 . S
C2530 C2529 1.373 1_455 S
C2531 C2515 1.377 1_655 S
C2531 C2529 1.389 . S
C2531 C2532 1.524 . S
C2532 C2531 1.524 . S
C2532 C2533 1.397 . S
C2532 C2537 1.363 . S
C2533 H2504 0.950 . S
C2533 C2532 1.397 . S
C2533 C2534 1.334 . S
C2534 H2505 0.950 . S
C2534 C2533 1.334 . S
C2534 C2535 1.287 . S
C2535 C2534 1.287 . S
C2535 C2536 1.524 . S
C2535 H2538 0.999 . S
C2536 H2506 0.950 . S
C2536 C2535 1.524 . S
C2536 C2537 1.415 . S
C2537 H2507 0.950 . S
C2537 C2532 1.363 . S
C2537 C2536 1.415 . S
H2538 C2535 0.999 . S
H2539 C2520 0.913 . S
H2540 C2558 0.951 . S
H2541 C2560 0.951 . S
H2542 C2562 0.950 . S
H2543 C2563 0.950 . S
H2544 C2565 0.950 . S
H2545 C2568 0.950 . S
H2546 C2569 0.950 . S
H2547 C2571 0.950 . S
H2548 C2572 0.950 . S
H2549 C2573 0.951 . S
H2550 C2575 0.951 . S
H2551 C2577 0.950 . S
H2552 C2578 0.950 . S
H2553 C2580 0.950 . S
H2554 C2583 0.950 . S
H2555 C2584 0.950 . S
H2556 C2586 0.950 . S
H2557 C2587 0.950 . S
C2558 H2540 0.951 . S
C2558 C2559 1.366 . S
C2558 C2560 1.388 . S
C2559 C2558 1.366 . S
C2559 C2563 1.385 . S
C2560 H2541 0.951 . S
C2560 C2558 1.388 . S
C2560 C2561 1.366 . S
C2561 C2560 1.366 . S
C2561 C2562 1.414 . S
C2561 C2564 1.499 . S
C2562 H2542 0.950 . S
C2562 C2561 1.414 . S
C2562 C2563 1.374 . S
C2563 H2543 0.950 . S
C2563 C2559 1.385 . S
C2563 C2562 1.374 . S
C2564 C2561 1.499 . S
C2564 C2565 1.373 . S
C2564 C2566 1.389 . S
C2565 H2544 0.950 . S
C2565 C2564 1.373 . S
C2565 C2581 1.377 . S
C2566 C2564 1.389 . S
C2566 C2567 1.524 . S
C2566 C2580 1.377 . S
C2567 C2566 1.524 . S
C2567 C2568 1.397 . S
C2567 C2572 1.363 . S
C2568 H2545 0.950 . S
C2568 C2567 1.397 . S
C2568 C2569 1.334 . S
C2569 H2546 0.950 . S
C2569 C2568 1.334 . S
C2569 C2570 1.287 . S
C2570 C2569 1.287 . S
C2570 C2571 1.524 . S
C2570 H2589 0.913 . S
C2571 H2547 0.950 . S
C2571 C2570 1.524 . S
C2571 C2572 1.415 . S
C2572 H2548 0.950 . S
C2572 C2567 1.363 . S
C2572 C2571 1.415 . S
C2573 H2549 0.951 . S
C2573 C2574 1.366 . S
C2573 C2575 1.388 . S
C2574 C2573 1.366 . S
C2574 C2578 1.385 . S
C2575 H2550 0.951 . S
C2575 C2573 1.388 . S
C2575 C2576 1.366 . S
C2576 C2575 1.366 . S
C2576 C2577 1.414 . S
C2576 C2579 1.499 . S
C2577 H2551 0.950 . S
C2577 C2576 1.414 . S
C2577 C2578 1.374 . S
C2578 H2552 0.950 . S
C2578 C2574 1.385 . S
C2578 C2577 1.374 . S
C2579 C2576 1.499 . S
C2579 C2580 1.373 . S
C2579 C2581 1.389 . S
C2580 H2553 0.950 . S
C2580 C2566 1.377 . S
C2580 C2579 1.373 . S
C2581 C2565 1.377 . S
C2581 C2579 1.389 . S
C2581 C2582 1.524 . S
C2582 C2581 1.524 . S
C2582 C2583 1.397 . S
C2582 C2587 1.363 . S
C2583 H2554 0.950 . S
C2583 C2582 1.397 . S
C2583 C2584 1.334 . S
C2584 H2555 0.950 . S
C2584 C2583 1.334 . S
C2584 C2585 1.287 . S
C2585 C2584 1.287 . S
C2585 C2586 1.524 . S
C2585 H2588 0.999 . S
C2586 H2556 0.950 . S
C2586 C2585 1.524 . S
C2586 C2587 1.415 . S
C2587 H2557 0.950 . S
C2587 C2582 1.363 . S
C2587 C2586 1.415 . S
H2588 C2585 0.999 . S
H2589 C2570 0.913 . S
H2590 C2608 0.951 . S
H2591 C2610 0.951 . S
H2592 C2612 0.950 . S
H2593 C2613 0.950 . S
H2594 C2615 0.950 . S
H2595 C2618 0.950 . S
H2596 C2619 0.950 . S
H2597 C2621 0.950 . S
H2598 C2622 0.950 . S
H2599 C2623 0.951 . S
H2600 C2625 0.951 . S
H2601 C2627 0.950 . S
H2602 C2628 0.950 . S
H2603 C2630 0.950 . S
H2604 C2633 0.950 . S
H2605 C2634 0.950 . S
H2606 C2636 0.950 . S
H2607 C2637 0.950 . S
C2608 H2590 0.951 . S
C2608 C2609 1.366 . S
C2608 C2610 1.388 . S
C2609 C2608 1.366 . S
C2609 C2613 1.385 . S
C2610 H2591 0.951 . S
C2610 C2608 1.388 . S
C2610 C2611 1.366 . S
C2611 C2610 1.366 . S
C2611 C2612 1.414 . S
C2611 C2614 1.499 . S
C2612 H2592 0.950 . S
C2612 C2611 1.414 . S
C2612 C2613 1.374 . S
C2613 H2593 0.950 . S
C2613 C2609 1.385 . S
C2613 C2612 1.374 . S
C2614 C2611 1.499 . S
C2614 C2615 1.373 1_565 S
C2614 C2616 1.389 . S
C2615 H2594 0.950 . S
C2615 C2614 1.373 1_545 S
C2615 C2631 1.377 . S
C2616 C2614 1.389 . S
C2616 C2617 1.524 . S
C2616 C2630 1.377 1_565 S
C2617 C2616 1.524 . S
C2617 C2618 1.397 . S
C2617 C2622 1.363 . S
C2618 H2595 0.950 . S
C2618 C2617 1.397 . S
C2618 C2619 1.334 . S
C2619 H2596 0.950 . S
C2619 C2618 1.334 . S
C2619 C2620 1.287 . S
C2620 C2619 1.287 . S
C2620 C2621 1.524 . S
C2620 H2639 0.913 . S
C2621 H2597 0.950 . S
C2621 C2620 1.524 . S
C2621 C2622 1.415 . S
C2622 H2598 0.950 . S
C2622 C2617 1.363 . S
C2622 C2621 1.415 . S
C2623 H2599 0.951 . S
C2623 C2624 1.366 . S
C2623 C2625 1.388 . S
C2624 C2623 1.366 . S
C2624 C2628 1.385 . S
C2625 H2600 0.951 . S
C2625 C2623 1.388 . S
C2625 C2626 1.366 . S
C2626 C2625 1.366 . S
C2626 C2627 1.414 . S
C2626 C2629 1.499 . S
C2627 H2601 0.950 . S
C2627 C2626 1.414 . S
C2627 C2628 1.374 . S
C2628 H2602 0.950 . S
C2628 C2624 1.385 . S
C2628 C2627 1.374 . S
C2629 C2626 1.499 . S
C2629 C2630 1.373 . S
C2629 C2631 1.389 . S
C2630 H2603 0.950 . S
C2630 C2616 1.377 1_545 S
C2630 C2629 1.373 . S
C2631 C2615 1.377 . S
C2631 C2629 1.389 . S
C2631 C2632 1.524 . S
C2632 C2631 1.524 . S
C2632 C2633 1.397 . S
C2632 C2637 1.363 . S
C2633 H2604 0.950 . S
C2633 C2632 1.397 . S
C2633 C2634 1.334 . S
C2634 H2605 0.950 . S
C2634 C2633 1.334 . S
C2634 C2635 1.287 . S
C2635 C2634 1.287 . S
C2635 C2636 1.524 . S
C2635 H2638 0.999 . S
C2636 H2606 0.950 . S
C2636 C2635 1.524 . S
C2636 C2637 1.415 . S
C2637 H2607 0.950 . S
C2637 C2632 1.363 . S
C2637 C2636 1.415 . S
H2638 C2635 0.999 . S
H2639 C2620 0.913 . S
H2640 C2658 0.951 . S
H2641 C2660 0.951 . S
H2642 C2662 0.950 . S
H2643 C2663 0.950 . S
H2644 C2665 0.950 . S
H2645 C2668 0.950 . S
H2646 C2669 0.950 . S
H2647 C2671 0.950 . S
H2648 C2672 0.950 . S
H2649 C2673 0.951 . S
H2650 C2675 0.951 . S
H2651 C2677 0.950 . S
H2652 C2678 0.950 . S
H2653 C2680 0.950 . S
H2654 C2683 0.950 . S
H2655 C2684 0.950 . S
H2656 C2686 0.950 . S
H2657 C2687 0.950 . S
C2658 H2640 0.951 . S
C2658 C2659 1.366 . S
C2658 C2660 1.388 . S
C2659 C2658 1.366 . S
C2659 C2663 1.385 . S
C2660 H2641 0.951 . S
C2660 C2658 1.388 . S
C2660 C2661 1.366 . S
C2661 C2660 1.366 . S
C2661 C2662 1.414 . S
C2661 C2664 1.499 . S
C2662 H2642 0.950 . S
C2662 C2661 1.414 . S
C2662 C2663 1.374 . S
C2663 H2643 0.950 . S
C2663 C2659 1.385 . S
C2663 C2662 1.374 . S
C2664 C2661 1.499 . S
C2664 C2665 1.373 . S
C2664 C2666 1.389 . S
C2665 H2644 0.950 . S
C2665 C2664 1.373 . S
C2665 C2681 1.377 . S
C2666 C2664 1.389 . S
C2666 C2667 1.524 . S
C2666 C2680 1.377 . S
C2667 C2666 1.524 . S
C2667 C2668 1.397 . S
C2667 C2672 1.363 . S
C2668 H2645 0.950 . S
C2668 C2667 1.397 . S
C2668 C2669 1.334 . S
C2669 H2646 0.950 . S
C2669 C2668 1.334 . S
C2669 C2670 1.287 . S
C2670 C2669 1.287 . S
C2670 C2671 1.524 . S
C2670 H2689 0.913 . S
C2671 H2647 0.950 . S
C2671 C2670 1.524 . S
C2671 C2672 1.415 . S
C2672 H2648 0.950 . S
C2672 C2667 1.363 . S
C2672 C2671 1.415 . S
C2673 H2649 0.951 . S
C2673 C2674 1.366 . S
C2673 C2675 1.388 . S
C2674 C2673 1.366 . S
C2674 C2678 1.385 . S
C2675 H2650 0.951 . S
C2675 C2673 1.388 . S
C2675 C2676 1.366 . S
C2676 C2675 1.366 . S
C2676 C2677 1.414 . S
C2676 C2679 1.499 . S
C2677 H2651 0.950 . S
C2677 C2676 1.414 . S
C2677 C2678 1.374 . S
C2678 H2652 0.950 . S
C2678 C2674 1.385 . S
C2678 C2677 1.374 . S
C2679 C2676 1.499 . S
C2679 C2680 1.373 . S
C2679 C2681 1.389 . S
C2680 H2653 0.950 . S
C2680 C2666 1.377 . S
C2680 C2679 1.373 . S
C2681 C2665 1.377 . S
C2681 C2679 1.389 . S
C2681 C2682 1.524 . S
C2682 C2681 1.524 . S
C2682 C2683 1.397 . S
C2682 C2687 1.363 . S
C2683 H2654 0.950 . S
C2683 C2682 1.397 . S
C2683 C2684 1.334 . S
C2684 H2655 0.950 . S
C2684 C2683 1.334 . S
C2684 C2685 1.287 . S
C2685 C2684 1.287 . S
C2685 C2686 1.524 . S
C2685 H2688 0.999 . S
C2686 H2656 0.950 . S
C2686 C2685 1.524 . S
C2686 C2687 1.415 . S
C2687 H2657 0.950 . S
C2687 C2682 1.363 . S
C2687 C2686 1.415 . S
H2688 C2685 0.999 . S
H2689 C2670 0.913 . S
H2690 C2708 0.951 . S
H2691 C2710 0.951 . S
H2692 C2712 0.950 . S
H2693 C2713 0.950 . S
H2694 C2715 0.950 . S
H2695 C2718 0.950 . S
H2696 C2719 0.950 . S
H2697 C2721 0.950 . S
H2698 C2722 0.950 . S
H2699 C2723 0.951 . S
H2700 C2725 0.951 . S
H2701 C2727 0.950 . S
H2702 C2728 0.950 . S
H2703 C2730 0.950 . S
H2704 C2733 0.950 . S
H2705 C2734 0.950 . S
H2706 C2736 0.950 . S
H2707 C2737 0.950 . S
C2708 H2690 0.951 . S
C2708 C2709 1.366 . S
C2708 C2710 1.388 . S
C2709 C2708 1.366 . S
C2709 C2713 1.385 . S
C2710 H2691 0.951 . S
C2710 C2708 1.388 . S
C2710 C2711 1.366 . S
C2711 C2710 1.366 . S
C2711 C2712 1.414 . S
C2711 C2714 1.499 . S
C2712 H2692 0.950 . S
C2712 C2711 1.414 . S
C2712 C2713 1.374 . S
C2713 H2693 0.950 . S
C2713 C2709 1.385 . S
C2713 C2712 1.374 . S
C2714 C2711 1.499 . S
C2714 C2715 1.373 . S
C2714 C2716 1.389 . S
C2715 H2694 0.950 . S
C2715 C2714 1.373 . S
C2715 C2731 1.377 . S
C2716 C2714 1.389 . S
C2716 C2717 1.524 . S
C2716 C2730 1.377 . S
C2717 C2716 1.524 . S
C2717 C2718 1.397 . S
C2717 C2722 1.363 . S
C2718 H2695 0.950 . S
C2718 C2717 1.397 . S
C2718 C2719 1.334 . S
C2719 H2696 0.950 . S
C2719 C2718 1.334 . S
C2719 C2720 1.287 . S
C2720 C2719 1.287 . S
C2720 C2721 1.524 . S
C2720 H2739 0.913 . S
C2721 H2697 0.950 . S
C2721 C2720 1.524 . S
C2721 C2722 1.415 . S
C2722 H2698 0.950 . S
C2722 C2717 1.363 . S
C2722 C2721 1.415 . S
C2723 H2699 0.951 . S
C2723 C2724 1.366 . S
C2723 C2725 1.388 . S
C2724 C2723 1.366 . S
C2724 C2728 1.385 . S
C2725 H2700 0.951 . S
C2725 C2723 1.388 . S
C2725 C2726 1.366 . S
C2726 C2725 1.366 . S
C2726 C2727 1.414 . S
C2726 C2729 1.499 . S
C2727 H2701 0.950 . S
C2727 C2726 1.414 . S
C2727 C2728 1.374 . S
C2728 H2702 0.950 . S
C2728 C2724 1.385 . S
C2728 C2727 1.374 . S
C2729 C2726 1.499 . S
C2729 C2730 1.373 . S
C2729 C2731 1.389 . S
C2730 H2703 0.950 . S
C2730 C2716 1.377 . S
C2730 C2729 1.373 . S
C2731 C2715 1.377 . S
C2731 C2729 1.389 . S
C2731 C2732 1.524 . S
C2732 C2731 1.524 . S
C2732 C2733 1.397 . S
C2732 C2737 1.363 . S
C2733 H2704 0.950 . S
C2733 C2732 1.397 . S
C2733 C2734 1.334 . S
C2734 H2705 0.950 . S
C2734 C2733 1.334 . S
C2734 C2735 1.287 . S
C2735 C2734 1.287 . S
C2735 C2736 1.524 . S
C2735 H2738 0.999 . S
C2736 H2706 0.950 . S
C2736 C2735 1.524 . S
C2736 C2737 1.415 . S
C2737 H2707 0.950 . S
C2737 C2732 1.363 . S
C2737 C2736 1.415 . S
H2738 C2735 0.999 . S
H2739 C2720 0.913 . S
H2740 C2758 0.951 . S
H2741 C2760 0.951 . S
H2742 C2762 0.950 . S
H2743 C2763 0.950 . S
H2744 C2765 0.950 . S
H2745 C2768 0.950 . S
H2746 C2769 0.950 . S
H2747 C2771 0.950 . S
H2748 C2772 0.950 . S
H2749 C2773 0.951 . S
H2750 C2775 0.951 . S
H2751 C2777 0.950 . S
H2752 C2778 0.950 . S
H2753 C2780 0.950 . S
H2754 C2783 0.950 . S
H2755 C2784 0.950 . S
H2756 C2786 0.950 . S
H2757 C2787 0.950 . S
C2758 H2740 0.951 . S
C2758 C2759 1.366 . S
C2758 C2760 1.388 . S
C2759 C2758 1.366 . S
C2759 C2763 1.385 . S
C2760 H2741 0.951 . S
C2760 C2758 1.388 . S
C2760 C2761 1.366 . S
C2761 C2760 1.366 . S
C2761 C2762 1.414 . S
C2761 C2764 1.499 . S
C2762 H2742 0.950 . S
C2762 C2761 1.414 . S
C2762 C2763 1.374 . S
C2763 H2743 0.950 . S
C2763 C2759 1.385 . S
C2763 C2762 1.374 . S
C2764 C2761 1.499 . S
C2764 C2765 1.373 . S
C2764 C2766 1.389 . S
C2765 H2744 0.950 . S
C2765 C2764 1.373 . S
C2765 C2781 1.377 . S
C2766 C2764 1.389 . S
C2766 C2767 1.524 . S
C2766 C2780 1.377 . S
C2767 C2766 1.524 . S
C2767 C2768 1.397 . S
C2767 C2772 1.363 . S
C2768 H2745 0.950 . S
C2768 C2767 1.397 . S
C2768 C2769 1.334 . S
C2769 H2746 0.950 . S
C2769 C2768 1.334 . S
C2769 C2770 1.287 . S
C2770 C2769 1.287 . S
C2770 C2771 1.524 . S
C2770 H2789 0.913 . S
C2771 H2747 0.950 . S
C2771 C2770 1.524 . S
C2771 C2772 1.415 . S
C2772 H2748 0.950 . S
C2772 C2767 1.363 . S
C2772 C2771 1.415 . S
C2773 H2749 0.951 . S
C2773 C2774 1.366 . S
C2773 C2775 1.388 . S
C2774 C2773 1.366 . S
C2774 C2778 1.385 . S
C2775 H2750 0.951 . S
C2775 C2773 1.388 . S
C2775 C2776 1.366 . S
C2776 C2775 1.366 . S
C2776 C2777 1.414 . S
C2776 C2779 1.499 . S
C2777 H2751 0.950 . S
C2777 C2776 1.414 . S
C2777 C2778 1.374 . S
C2778 H2752 0.950 . S
C2778 C2774 1.385 . S
C2778 C2777 1.374 . S
C2779 C2776 1.499 . S
C2779 C2780 1.373 . S
C2779 C2781 1.389 . S
C2780 H2753 0.950 . S
C2780 C2766 1.377 . S
C2780 C2779 1.373 . S
C2781 C2765 1.377 . S
C2781 C2779 1.389 . S
C2781 C2782 1.524 . S
C2782 C2781 1.524 . S
C2782 C2783 1.397 . S
C2782 C2787 1.363 . S
C2783 H2754 0.950 . S
C2783 C2782 1.397 . S
C2783 C2784 1.334 . S
C2784 H2755 0.950 . S
C2784 C2783 1.334 . S
C2784 C2785 1.287 . S
C2785 C2784 1.287 . S
C2785 C2786 1.524 . S
C2785 H2788 0.999 . S
C2786 H2756 0.950 . S
C2786 C2785 1.524 . S
C2786 C2787 1.415 . S
C2787 H2757 0.950 . S
C2787 C2782 1.363 . S
C2787 C2786 1.415 . S
H2788 C2785 0.999 . S
H2789 C2770 0.913 . S
H2790 C2808 0.951 . S
H2791 C2810 0.951 . S
H2792 C2812 0.950 . S
H2793 C2813 0.950 . S
H2794 C2815 0.950 . S
H2795 C2818 0.950 . S
H2796 C2819 0.950 . S
H2797 C2821 0.950 . S
H2798 C2822 0.950 . S
H2799 C2823 0.951 . S
H2800 C2825 0.951 . S
H2801 C2827 0.950 . S
H2802 C2828 0.950 . S
H2803 C2830 0.950 . S
H2804 C2833 0.950 . S
H2805 C2834 0.950 . S
H2806 C2836 0.950 . S
H2807 C2837 0.950 . S
C2808 H2790 0.951 . S
C2808 C2809 1.366 . S
C2808 C2810 1.388 . S
C2809 C2808 1.366 . S
C2809 C2813 1.385 . S
C2810 H2791 0.951 . S
C2810 C2808 1.388 . S
C2810 C2811 1.366 . S
C2811 C2810 1.366 . S
C2811 C2812 1.414 . S
C2811 C2814 1.499 . S
C2812 H2792 0.950 . S
C2812 C2811 1.414 . S
C2812 C2813 1.374 . S
C2813 H2793 0.950 . S
C2813 C2809 1.385 . S
C2813 C2812 1.374 . S
C2814 C2811 1.499 . S
C2814 C2815 1.373 . S
C2814 C2816 1.389 . S
C2815 H2794 0.950 . S
C2815 C2814 1.373 . S
C2815 C2831 1.377 . S
C2816 C2814 1.389 . S
C2816 C2817 1.524 . S
C2816 C2830 1.377 . S
C2817 C2816 1.524 . S
C2817 C2818 1.397 . S
C2817 C2822 1.363 . S
C2818 H2795 0.950 . S
C2818 C2817 1.397 . S
C2818 C2819 1.334 . S
C2819 H2796 0.950 . S
C2819 C2818 1.334 . S
C2819 C2820 1.287 . S
C2820 C2819 1.287 . S
C2820 C2821 1.524 . S
C2820 H2839 0.913 . S
C2821 H2797 0.950 . S
C2821 C2820 1.524 . S
C2821 C2822 1.415 . S
C2822 H2798 0.950 . S
C2822 C2817 1.363 . S
C2822 C2821 1.415 . S
C2823 H2799 0.951 . S
C2823 C2824 1.366 . S
C2823 C2825 1.388 . S
C2824 C2823 1.366 . S
C2824 C2828 1.385 . S
C2825 H2800 0.951 . S
C2825 C2823 1.388 . S
C2825 C2826 1.366 . S
C2826 C2825 1.366 . S
C2826 C2827 1.414 . S
C2826 C2829 1.499 . S
C2827 H2801 0.950 . S
C2827 C2826 1.414 . S
C2827 C2828 1.374 . S
C2828 H2802 0.950 . S
C2828 C2824 1.385 . S
C2828 C2827 1.374 . S
C2829 C2826 1.499 . S
C2829 C2830 1.373 . S
C2829 C2831 1.389 . S
C2830 H2803 0.950 . S
C2830 C2816 1.377 . S
C2830 C2829 1.373 . S
C2831 C2815 1.377 . S
C2831 C2829 1.389 . S
C2831 C2832 1.524 . S
C2832 C2831 1.524 . S
C2832 C2833 1.397 . S
C2832 C2837 1.363 . S
C2833 H2804 0.950 . S
C2833 C2832 1.397 . S
C2833 C2834 1.334 . S
C2834 H2805 0.950 . S
C2834 C2833 1.334 . S
C2834 C2835 1.287 . S
C2835 C2834 1.287 . S
C2835 C2836 1.524 . S
C2835 H2838 0.999 . S
C2836 H2806 0.950 . S
C2836 C2835 1.524 . S
C2836 C2837 1.415 . S
C2837 H2807 0.950 . S
C2837 C2832 1.363 . S
C2837 C2836 1.415 . S
H2838 C2835 0.999 . S
H2839 C2820 0.913 . S
H2840 C2858 0.951 . S
H2841 C2860 0.951 . S
H2842 C2862 0.950 . S
H2843 C2863 0.950 . S
H2844 C2865 0.950 . S
H2845 C2868 0.950 . S
H2846 C2869 0.950 . S
H2847 C2871 0.950 . S
H2848 C2872 0.950 . S
H2849 C2873 0.951 . S
H2850 C2875 0.951 . S
H2851 C2877 0.950 . S
H2852 C2878 0.950 . S
H2853 C2880 0.950 . S
H2854 C2883 0.950 . S
H2855 C2884 0.950 . S
H2856 C2886 0.950 . S
H2857 C2887 0.950 . S
C2858 H2840 0.951 . S
C2858 C2859 1.366 . S
C2858 C2860 1.388 . S
C2859 C2858 1.366 . S
C2859 C2863 1.385 . S
C2860 H2841 0.951 . S
C2860 C2858 1.388 . S
C2860 C2861 1.366 . S
C2861 C2860 1.366 . S
C2861 C2862 1.414 . S
C2861 C2864 1.499 . S
C2862 H2842 0.950 . S
C2862 C2861 1.414 . S
C2862 C2863 1.374 . S
C2863 H2843 0.950 . S
C2863 C2859 1.385 . S
C2863 C2862 1.374 . S
C2864 C2861 1.499 . S
C2864 C2865 1.373 . S
C2864 C2866 1.389 . S
C2865 H2844 0.950 . S
C2865 C2864 1.373 . S
C2865 C2881 1.377 . S
C2866 C2864 1.389 . S
C2866 C2867 1.524 . S
C2866 C2880 1.377 . S
C2867 C2866 1.524 . S
C2867 C2868 1.397 . S
C2867 C2872 1.363 . S
C2868 H2845 0.950 . S
C2868 C2867 1.397 . S
C2868 C2869 1.334 . S
C2869 H2846 0.950 . S
C2869 C2868 1.334 . S
C2869 C2870 1.287 . S
C2870 C2869 1.287 . S
C2870 C2871 1.524 . S
C2870 H2889 0.913 . S
C2871 H2847 0.950 . S
C2871 C2870 1.524 . S
C2871 C2872 1.415 . S
C2872 H2848 0.950 . S
C2872 C2867 1.363 . S
C2872 C2871 1.415 . S
C2873 H2849 0.951 . S
C2873 C2874 1.366 . S
C2873 C2875 1.388 . S
C2874 C2873 1.366 . S
C2874 C2878 1.385 . S
C2875 H2850 0.951 . S
C2875 C2873 1.388 . S
C2875 C2876 1.366 . S
C2876 C2875 1.366 . S
C2876 C2877 1.414 . S
C2876 C2879 1.499 . S
C2877 H2851 0.950 . S
C2877 C2876 1.414 . S
C2877 C2878 1.374 . S
C2878 H2852 0.950 . S
C2878 C2874 1.385 . S
C2878 C2877 1.374 . S
C2879 C2876 1.499 . S
C2879 C2880 1.373 . S
C2879 C2881 1.389 . S
C2880 H2853 0.950 . S
C2880 C2866 1.377 . S
C2880 C2879 1.373 . S
C2881 C2865 1.377 . S
C2881 C2879 1.389 . S
C2881 C2882 1.524 . S
C2882 C2881 1.524 . S
C2882 C2883 1.397 . S
C2882 C2887 1.363 . S
C2883 H2854 0.950 . S
C2883 C2882 1.397 . S
C2883 C2884 1.334 1_455 S
C2884 H2855 0.950 . S
C2884 C2883 1.334 1_655 S
C2884 C2885 1.287 . S
C2885 C2884 1.287 . S
C2885 C2886 1.524 1_655 S
C2885 H2888 0.999 . S
C2886 H2856 0.950 . S
C2886 C2885 1.524 1_455 S
C2886 C2887 1.415 . S
C2887 H2857 0.950 . S
C2887 C2882 1.363 . S
C2887 C2886 1.415 . S
H2888 C2885 0.999 . S
H2889 C2870 0.913 . S
H2890 C2908 0.951 . S
H2891 C2910 0.951 . S
H2892 C2912 0.950 . S
H2893 C2913 0.950 . S
H2894 C2915 0.950 . S
H2895 C2918 0.950 . S
H2896 C2919 0.950 . S
H2897 C2921 0.950 . S
H2898 C2922 0.950 . S
H2899 C2923 0.951 . S
H2900 C2925 0.951 . S
H2901 C2927 0.950 . S
H2902 C2928 0.950 . S
H2903 C2930 0.950 . S
H2904 C2933 0.950 . S
H2905 C2934 0.950 . S
H2906 C2936 0.950 . S
H2907 C2937 0.950 . S
C2908 H2890 0.951 . S
C2908 C2909 1.366 . S
C2908 C2910 1.388 . S
C2909 C2908 1.366 . S
C2909 C2913 1.385 . S
C2910 H2891 0.951 . S
C2910 C2908 1.388 . S
C2910 C2911 1.366 . S
C2911 C2910 1.366 . S
C2911 C2912 1.414 . S
C2911 C2914 1.499 . S
C2912 H2892 0.950 . S
C2912 C2911 1.414 . S
C2912 C2913 1.374 . S
C2913 H2893 0.950 . S
C2913 C2909 1.385 . S
C2913 C2912 1.374 . S
C2914 C2911 1.499 . S
C2914 C2915 1.373 . S
C2914 C2916 1.389 . S
C2915 H2894 0.950 . S
C2915 C2914 1.373 . S
C2915 C2931 1.377 . S
C2916 C2914 1.389 . S
C2916 C2917 1.524 . S
C2916 C2930 1.377 . S
C2917 C2916 1.524 . S
C2917 C2918 1.397 . S
C2917 C2922 1.363 . S
C2918 H2895 0.950 . S
C2918 C2917 1.397 . S
C2918 C2919 1.334 . S
C2919 H2896 0.950 . S
C2919 C2918 1.334 . S
C2919 C2920 1.287 . S
C2920 C2919 1.287 . S
C2920 C2921 1.524 . S
C2920 H2939 0.913 . S
C2921 H2897 0.950 . S
C2921 C2920 1.524 . S
C2921 C2922 1.415 . S
C2922 H2898 0.950 . S
C2922 C2917 1.363 . S
C2922 C2921 1.415 . S
C2923 H2899 0.951 . S
C2923 C2924 1.366 . S
C2923 C2925 1.388 . S
C2924 C2923 1.366 . S
C2924 C2928 1.385 . S
C2925 H2900 0.951 . S
C2925 C2923 1.388 . S
C2925 C2926 1.366 . S
C2926 C2925 1.366 . S
C2926 C2927 1.414 . S
C2926 C2929 1.499 . S
C2927 H2901 0.950 . S
C2927 C2926 1.414 . S
C2927 C2928 1.374 . S
C2928 H2902 0.950 . S
C2928 C2924 1.385 . S
C2928 C2927 1.374 . S
C2929 C2926 1.499 . S
C2929 C2930 1.373 . S
C2929 C2931 1.389 . S
C2930 H2903 0.950 . S
C2930 C2916 1.377 . S
C2930 C2929 1.373 . S
C2931 C2915 1.377 . S
C2931 C2929 1.389 . S
C2931 C2932 1.524 . S
C2932 C2931 1.524 . S
C2932 C2933 1.397 . S
C2932 C2937 1.363 . S
C2933 H2904 0.950 . S
C2933 C2932 1.397 . S
C2933 C2934 1.334 . S
C2934 H2905 0.950 . S
C2934 C2933 1.334 . S
C2934 C2935 1.287 . S
C2935 C2934 1.287 . S
C2935 C2936 1.524 . S
C2935 H2938 0.999 . S
C2936 H2906 0.950 . S
C2936 C2935 1.524 . S
C2936 C2937 1.415 . S
C2937 H2907 0.950 . S
C2937 C2932 1.363 . S
C2937 C2936 1.415 . S
H2938 C2935 0.999 . S
H2939 C2920 0.913 . S
H2940 C2958 0.951 . S
H2941 C2960 0.951 . S
H2942 C2962 0.950 . S
H2943 C2963 0.950 . S
H2944 C2965 0.950 . S
H2945 C2968 0.950 . S
H2946 C2969 0.950 . S
H2947 C2971 0.950 . S
H2948 C2972 0.950 . S
H2949 C2973 0.951 . S
H2950 C2975 0.951 . S
H2951 C2977 0.950 . S
H2952 C2978 0.950 . S
H2953 C2980 0.950 . S
H2954 C2983 0.950 1_455 S
H2955 C2984 0.950 . S
H2956 C2986 0.950 . S
H2957 C2987 0.950 . S
C2958 H2940 0.951 . S
C2958 C2959 1.366 . S
C2958 C2960 1.388 . S
C2959 C2958 1.366 . S
C2959 C2963 1.385 . S
C2960 H2941 0.951 . S
C2960 C2958 1.388 . S
C2960 C2961 1.366 . S
C2961 C2960 1.366 . S
C2961 C2962 1.414 . S
C2961 C2964 1.499 . S
C2962 H2942 0.950 . S
C2962 C2961 1.414 . S
C2962 C2963 1.374 . S
C2963 H2943 0.950 . S
C2963 C2959 1.385 . S
C2963 C2962 1.374 . S
C2964 C2961 1.499 . S
C2964 C2965 1.373 . S
C2964 C2966 1.389 . S
C2965 H2944 0.950 . S
C2965 C2964 1.373 . S
C2965 C2981 1.377 . S
C2966 C2964 1.389 . S
C2966 C2967 1.524 . S
C2966 C2980 1.377 . S
C2967 C2966 1.524 . S
C2967 C2968 1.397 . S
C2967 C2972 1.363 . S
C2968 H2945 0.950 . S
C2968 C2967 1.397 . S
C2968 C2969 1.334 . S
C2969 H2946 0.950 . S
C2969 C2968 1.334 . S
C2969 C2970 1.287 . S
C2970 C2969 1.287 . S
C2970 C2971 1.524 . S
C2970 H2989 0.913 . S
C2971 H2947 0.950 . S
C2971 C2970 1.524 . S
C2971 C2972 1.415 . S
C2972 H2948 0.950 . S
C2972 C2967 1.363 . S
C2972 C2971 1.415 . S
C2973 H2949 0.951 . S
C2973 C2974 1.366 . S
C2973 C2975 1.388 . S
C2974 C2973 1.366 . S
C2974 C2978 1.385 . S
C2975 H2950 0.951 . S
C2975 C2973 1.388 . S
C2975 C2976 1.366 . S
C2976 C2975 1.366 . S
C2976 C2977 1.414 . S
C2976 C2979 1.499 . S
C2977 H2951 0.950 . S
C2977 C2976 1.414 . S
C2977 C2978 1.374 . S
C2978 H2952 0.950 . S
C2978 C2974 1.385 . S
C2978 C2977 1.374 . S
C2979 C2976 1.499 . S
C2979 C2980 1.373 . S
C2979 C2981 1.389 . S
C2980 H2953 0.950 . S
C2980 C2966 1.377 . S
C2980 C2979 1.373 . S
C2981 C2965 1.377 . S
C2981 C2979 1.389 . S
C2981 C2982 1.524 . S
C2982 C2981 1.524 . S
C2982 C2983 1.397 . S
C2982 C2987 1.363 . S
C2983 H2954 0.950 1_655 S
C2983 C2982 1.397 . S
C2983 C2984 1.334 1_655 S
C2984 H2955 0.950 . S
C2984 C2983 1.334 1_455 S
C2984 C2985 1.287 1_455 S
C2985 C2984 1.287 1_655 S
C2985 C2986 1.524 . S
C2985 H2988 0.999 1_655 S
C2986 H2956 0.950 . S
C2986 C2985 1.524 . S
C2986 C2987 1.415 . S
C2987 H2957 0.950 . S
C2987 C2982 1.363 . S
C2987 C2986 1.415 . S
H2988 C2985 0.999 1_455 S
H2989 C2970 0.913 . S
H2990 C3008 0.951 . S
H2991 C3010 0.951 . S
H2992 C3012 0.950 . S
H2993 C3013 0.950 . S
H2994 C3015 0.950 . S
H2995 C3018 0.950 . S
H2996 C3019 0.950 . S
H2997 C3021 0.950 . S
H2998 C3022 0.950 . S
H2999 C3023 0.951 . S
H3000 C3025 0.951 . S
H3001 C3027 0.950 . S
H3002 C3028 0.950 . S
H3003 C3030 0.950 . S
H3004 C3033 0.950 . S
H3005 C3034 0.950 . S
H3006 C3036 0.950 . S
H3007 C3037 0.950 . S
C3008 H2990 0.951 . S
C3008 C3009 1.366 . S
C3008 C3010 1.388 . S
C3009 C3008 1.366 . S
C3009 C3013 1.385 . S
C3010 H2991 0.951 . S
C3010 C3008 1.388 . S
C3010 C3011 1.366 . S
C3011 C3010 1.366 . S
C3011 C3012 1.414 . S
C3011 C3014 1.499 . S
C3012 H2992 0.950 . S
C3012 C3011 1.414 . S
C3012 C3013 1.374 . S
C3013 H2993 0.950 . S
C3013 C3009 1.385 . S
C3013 C3012 1.374 . S
C3014 C3011 1.499 . S
C3014 C3015 1.373 . S
C3014 C3016 1.389 . S
C3015 H2994 0.950 . S
C3015 C3014 1.373 . S
C3015 C3031 1.377 . S
C3016 C3014 1.389 . S
C3016 C3017 1.524 . S
C3016 C3030 1.377 . S
C3017 C3016 1.524 . S
C3017 C3018 1.397 . S
C3017 C3022 1.363 . S
C3018 H2995 0.950 . S
C3018 C3017 1.397 . S
C3018 C3019 1.334 . S
C3019 H2996 0.950 . S
C3019 C3018 1.334 . S
C3019 C3020 1.287 . S
C3020 C3019 1.287 . S
C3020 C3021 1.524 . S
C3020 H3039 0.913 . S
C3021 H2997 0.950 . S
C3021 C3020 1.524 . S
C3021 C3022 1.415 . S
C3022 H2998 0.950 . S
C3022 C3017 1.363 . S
C3022 C3021 1.415 . S
C3023 H2999 0.951 . S
C3023 C3024 1.366 . S
C3023 C3025 1.388 . S
C3024 C3023 1.366 . S
C3024 C3028 1.385 . S
C3025 H3000 0.951 . S
C3025 C3023 1.388 . S
C3025 C3026 1.366 . S
C3026 C3025 1.366 . S
C3026 C3027 1.414 . S
C3026 C3029 1.499 . S
C3027 H3001 0.950 . S
C3027 C3026 1.414 . S
C3027 C3028 1.374 . S
C3028 H3002 0.950 . S
C3028 C3024 1.385 . S
C3028 C3027 1.374 . S
C3029 C3026 1.499 . S
C3029 C3030 1.373 . S
C3029 C3031 1.389 . S
C3030 H3003 0.950 . S
C3030 C3016 1.377 . S
C3030 C3029 1.373 . S
C3031 C3015 1.377 . S
C3031 C3029 1.389 . S
C3031 C3032 1.524 . S
C3032 C3031 1.524 . S
C3032 C3033 1.397 . S
C3032 C3037 1.363 . S
C3033 H3004 0.950 . S
C3033 C3032 1.397 . S
C3033 C3034 1.334 . S
C3034 H3005 0.950 . S
C3034 C3033 1.334 . S
C3034 C3035 1.287 . S
C3035 C3034 1.287 . S
C3035 C3036 1.524 . S
C3035 H3038 0.999 . S
C3036 H3006 0.950 . S
C3036 C3035 1.524 . S
C3036 C3037 1.415 . S
C3037 H3007 0.950 . S
C3037 C3032 1.363 . S
C3037 C3036 1.415 . S
H3038 C3035 0.999 . S
H3039 C3020 0.913 . S
H3040 C3058 0.951 . S
H3041 C3060 0.951 . S
H3042 C3062 0.950 . S
H3043 C3063 0.950 . S
H3044 C3065 0.950 . S
H3045 C3068 0.950 . S
H3046 C3069 0.950 . S
H3047 C3071 0.950 . S
H3048 C3072 0.950 . S
H3049 C3073 0.951 . S
H3050 C3075 0.951 . S
H3051 C3077 0.950 . S
H3052 C3078 0.950 . S
H3053 C3080 0.950 . S
H3054 C3083 0.950 . S
H3055 C3084 0.950 . S
H3056 C3086 0.950 . S
H3057 C3087 0.950 . S
C3058 H3040 0.951 . S
C3058 C3059 1.366 . S
C3058 C3060 1.388 . S
C3059 C3058 1.366 . S
C3059 C3063 1.385 . S
C3060 H3041 0.951 . S
C3060 C3058 1.388 . S
C3060 C3061 1.366 . S
C3061 C3060 1.366 . S
C3061 C3062 1.414 . S
C3061 C3064 1.499 . S
C3062 H3042 0.950 . S
C3062 C3061 1.414 . S
C3062 C3063 1.374 . S
C3063 H3043 0.950 . S
C3063 C3059 1.385 . S
C3063 C3062 1.374 . S
C3064 C3061 1.499 . S
C3064 C3065 1.373 . S
C3064 C3066 1.389 . S
C3065 H3044 0.950 . S
C3065 C3064 1.373 . S
C3065 C3081 1.377 . S
C3066 C3064 1.389 . S
C3066 C3067 1.524 . S
C3066 C3080 1.377 . S
C3067 C3066 1.524 . S
C3067 C3068 1.397 . S
C3067 C3072 1.363 . S
C3068 H3045 0.950 . S
C3068 C3067 1.397 . S
C3068 C3069 1.334 . S
C3069 H3046 0.950 . S
C3069 C3068 1.334 . S
C3069 C3070 1.287 . S
C3070 C3069 1.287 . S
C3070 C3071 1.524 . S
C3070 H3089 0.913 . S
C3071 H3047 0.950 . S
C3071 C3070 1.524 . S
C3071 C3072 1.415 . S
C3072 H3048 0.950 . S
C3072 C3067 1.363 . S
C3072 C3071 1.415 . S
C3073 H3049 0.951 . S
C3073 C3074 1.366 . S
C3073 C3075 1.388 . S
C3074 C3073 1.366 . S
C3074 C3078 1.385 . S
C3075 H3050 0.951 . S
C3075 C3073 1.388 . S
C3075 C3076 1.366 . S
C3076 C3075 1.366 . S
C3076 C3077 1.414 . S
C3076 C3079 1.499 . S
C3077 H3051 0.950 . S
C3077 C3076 1.414 . S
C3077 C3078 1.374 . S
C3078 H3052 0.950 . S
C3078 C3074 1.385 . S
C3078 C3077 1.374 . S
C3079 C3076 1.499 . S
C3079 C3080 1.373 . S
C3079 C3081 1.389 . S
C3080 H3053 0.950 . S
C3080 C3066 1.377 . S
C3080 C3079 1.373 . S
C3081 C3065 1.377 . S
C3081 C3079 1.389 . S
C3081 C3082 1.524 . S
C3082 C3081 1.524 . S
C3082 C3083 1.397 . S
C3082 C3087 1.363 . S
C3083 H3054 0.950 . S
C3083 C3082 1.397 . S
C3083 C3084 1.334 . S
C3084 H3055 0.950 . S
C3084 C3083 1.334 . S
C3084 C3085 1.287 . S
C3085 C3084 1.287 . S
C3085 C3086 1.524 . S
C3085 H3088 0.999 . S
C3086 H3056 0.950 . S
C3086 C3085 1.524 . S
C3086 C3087 1.415 . S
C3087 H3057 0.950 . S
C3087 C3082 1.363 . S
C3087 C3086 1.415 . S
H3088 C3085 0.999 . S
H3089 C3070 0.913 . S
H3090 C3108 0.951 . S
H3091 C3110 0.951 . S
H3092 C3112 0.950 . S
H3093 C3113 0.950 . S
H3094 C3115 0.950 . S
H3095 C3118 0.950 . S
H3096 C3119 0.950 . S
H3097 C3121 0.950 . S
H3098 C3122 0.950 . S
H3099 C3123 0.951 . S
H3100 C3125 0.951 . S
H3101 C3127 0.950 . S
H3102 C3128 0.950 . S
H3103 C3130 0.950 . S
H3104 C3133 0.950 . S
H3105 C3134 0.950 . S
H3106 C3136 0.950 . S
H3107 C3137 0.950 . S
C3108 H3090 0.951 . S
C3108 C3109 1.366 . S
C3108 C3110 1.388 . S
C3109 C3108 1.366 . S
C3109 C3113 1.385 . S
C3110 H3091 0.951 . S
C3110 C3108 1.388 . S
C3110 C3111 1.366 . S
C3111 C3110 1.366 . S
C3111 C3112 1.414 . S
C3111 C3114 1.499 . S
C3112 H3092 0.950 . S
C3112 C3111 1.414 . S
C3112 C3113 1.374 . S
C3113 H3093 0.950 . S
C3113 C3109 1.385 . S
C3113 C3112 1.374 . S
C3114 C3111 1.499 . S
C3114 C3115 1.373 . S
C3114 C3116 1.389 . S
C3115 H3094 0.950 . S
C3115 C3114 1.373 . S
C3115 C3131 1.377 . S
C3116 C3114 1.389 . S
C3116 C3117 1.524 . S
C3116 C3130 1.377 . S
C3117 C3116 1.524 . S
C3117 C3118 1.397 . S
C3117 C3122 1.363 . S
C3118 H3095 0.950 . S
C3118 C3117 1.397 . S
C3118 C3119 1.334 . S
C3119 H3096 0.950 . S
C3119 C3118 1.334 . S
C3119 C3120 1.287 . S
C3120 C3119 1.287 . S
C3120 C3121 1.524 . S
C3120 H3139 0.913 . S
C3121 H3097 0.950 . S
C3121 C3120 1.524 . S
C3121 C3122 1.415 . S
C3122 H3098 0.950 . S
C3122 C3117 1.363 . S
C3122 C3121 1.415 . S
C3123 H3099 0.951 . S
C3123 C3124 1.366 . S
C3123 C3125 1.388 . S
C3124 C3123 1.366 . S
C3124 C3128 1.385 . S
C3125 H3100 0.951 . S
C3125 C3123 1.388 . S
C3125 C3126 1.366 . S
C3126 C3125 1.366 . S
C3126 C3127 1.414 . S
C3126 C3129 1.499 . S
C3127 H3101 0.950 . S
C3127 C3126 1.414 . S
C3127 C3128 1.374 . S
C3128 H3102 0.950 . S
C3128 C3124 1.385 . S
C3128 C3127 1.374 . S
C3129 C3126 1.499 . S
C3129 C3130 1.373 . S
C3129 C3131 1.389 . S
C3130 H3103 0.950 . S
C3130 C3116 1.377 . S
C3130 C3129 1.373 . S
C3131 C3115 1.377 . S
C3131 C3129 1.389 . S
C3131 C3132 1.524 . S
C3132 C3131 1.524 . S
C3132 C3133 1.397 . S
C3132 C3137 1.363 . S
C3133 H3104 0.950 . S
C3133 C3132 1.397 . S
C3133 C3134 1.334 . S
C3134 H3105 0.950 . S
C3134 C3133 1.334 . S
C3134 C3135 1.287 . S
C3135 C3134 1.287 . S
C3135 C3136 1.524 . S
C3135 H3138 0.999 . S
C3136 H3106 0.950 . S
C3136 C3135 1.524 . S
C3136 C3137 1.415 . S
C3137 H3107 0.950 . S
C3137 C3132 1.363 . S
C3137 C3136 1.415 . S
H3138 C3135 0.999 . S
H3139 C3120 0.913 . S
H3140 C3158 0.951 . S
H3141 C3160 0.951 . S
H3142 C3162 0.950 . S
H3143 C3163 0.950 . S
H3144 C3165 0.950 . S
H3145 C3168 0.950 . S
H3146 C3169 0.950 . S
H3147 C3171 0.950 . S
H3148 C3172 0.950 . S
H3149 C3173 0.951 . S
H3150 C3175 0.951 . S
H3151 C3177 0.950 . S
H3152 C3178 0.950 . S
H3153 C3180 0.950 . S
H3154 C3183 0.950 . S
H3155 C3184 0.950 . S
H3156 C3186 0.950 . S
H3157 C3187 0.950 . S
C3158 H3140 0.951 . S
C3158 C3159 1.366 . S
C3158 C3160 1.388 . S
C3159 C3158 1.366 . S
C3159 C3163 1.385 . S
C3160 H3141 0.951 . S
C3160 C3158 1.388 . S
C3160 C3161 1.366 . S
C3161 C3160 1.366 . S
C3161 C3162 1.414 . S
C3161 C3164 1.499 . S
C3162 H3142 0.950 . S
C3162 C3161 1.414 . S
C3162 C3163 1.374 . S
C3163 H3143 0.950 . S
C3163 C3159 1.385 . S
C3163 C3162 1.374 . S
C3164 C3161 1.499 . S
C3164 C3165 1.373 . S
C3164 C3166 1.389 . S
C3165 H3144 0.950 . S
C3165 C3164 1.373 . S
C3165 C3181 1.377 . S
C3166 C3164 1.389 . S
C3166 C3167 1.524 . S
C3166 C3180 1.377 . S
C3167 C3166 1.524 . S
C3167 C3168 1.397 . S
C3167 C3172 1.363 . S
C3168 H3145 0.950 . S
C3168 C3167 1.397 . S
C3168 C3169 1.334 . S
C3169 H3146 0.950 . S
C3169 C3168 1.334 . S
C3169 C3170 1.287 . S
C3170 C3169 1.287 . S
C3170 C3171 1.524 . S
C3170 H3189 0.913 . S
C3171 H3147 0.950 . S
C3171 C3170 1.524 . S
C3171 C3172 1.415 . S
C3172 H3148 0.950 . S
C3172 C3167 1.363 . S
C3172 C3171 1.415 . S
C3173 H3149 0.951 . S
C3173 C3174 1.366 . S
C3173 C3175 1.388 . S
C3174 C3173 1.366 . S
C3174 C3178 1.385 . S
C3175 H3150 0.951 . S
C3175 C3173 1.388 . S
C3175 C3176 1.366 . S
C3176 C3175 1.366 . S
C3176 C3177 1.414 . S
C3176 C3179 1.499 . S
C3177 H3151 0.950 . S
C3177 C3176 1.414 . S
C3177 C3178 1.374 . S
C3178 H3152 0.950 . S
C3178 C3174 1.385 . S
C3178 C3177 1.374 . S
C3179 C3176 1.499 . S
C3179 C3180 1.373 . S
C3179 C3181 1.389 . S
C3180 H3153 0.950 . S
C3180 C3166 1.377 . S
C3180 C3179 1.373 . S
C3181 C3165 1.377 . S
C3181 C3179 1.389 . S
C3181 C3182 1.524 . S
C3182 C3181 1.524 . S
C3182 C3183 1.397 . S
C3182 C3187 1.363 . S
C3183 H3154 0.950 . S
C3183 C3182 1.397 . S
C3183 C3184 1.334 . S
C3184 H3155 0.950 . S
C3184 C3183 1.334 . S
C3184 C3185 1.287 . S
C3185 C3184 1.287 . S
C3185 C3186 1.524 . S
C3185 H3188 0.999 . S
C3186 H3156 0.950 . S
C3186 C3185 1.524 . S
C3186 C3187 1.415 . S
C3187 H3157 0.950 . S
C3187 C3182 1.363 . S
C3187 C3186 1.415 . S
H3188 C3185 0.999 . S
H3189 C3170 0.913 . S
H3190 C3208 0.951 . S
H3191 C3210 0.951 . S
H3192 C3212 0.950 . S
H3193 C3213 0.950 . S
H3194 C3215 0.950 . S
H3195 C3218 0.950 . S
H3196 C3219 0.950 . S
H3197 C3221 0.950 . S
H3198 C3222 0.950 . S
H3199 C3223 0.951 . S
H3200 C3225 0.951 . S
H3201 C3227 0.950 . S
H3202 C3228 0.950 . S
H3203 C3230 0.950 . S
H3204 C3233 0.950 . S
H3205 C3234 0.950 . S
H3206 C3236 0.950 . S
H3207 C3237 0.950 . S
C3208 H3190 0.951 . S
C3208 C3209 1.366 . S
C3208 C3210 1.388 . S
C3209 C3208 1.366 . S
C3209 C3213 1.385 . S
C3210 H3191 0.951 . S
C3210 C3208 1.388 . S
C3210 C3211 1.366 . S
C3211 C3210 1.366 . S
C3211 C3212 1.414 . S
C3211 C3214 1.499 . S
C3212 H3192 0.950 . S
C3212 C3211 1.414 . S
C3212 C3213 1.374 . S
C3213 H3193 0.950 . S
C3213 C3209 1.385 . S
C3213 C3212 1.374 . S
C3214 C3211 1.499 . S
C3214 C3215 1.373 . S
C3214 C3216 1.389 . S
C3215 H3194 0.950 . S
C3215 C3214 1.373 . S
C3215 C3231 1.377 . S
C3216 C3214 1.389 . S
C3216 C3217 1.524 . S
C3216 C3230 1.377 . S
C3217 C3216 1.524 . S
C3217 C3218 1.397 . S
C3217 C3222 1.363 . S
C3218 H3195 0.950 . S
C3218 C3217 1.397 . S
C3218 C3219 1.334 . S
C3219 H3196 0.950 . S
C3219 C3218 1.334 . S
C3219 C3220 1.287 . S
C3220 C3219 1.287 . S
C3220 C3221 1.524 . S
C3220 H3239 0.913 . S
C3221 H3197 0.950 . S
C3221 C3220 1.524 . S
C3221 C3222 1.415 . S
C3222 H3198 0.950 . S
C3222 C3217 1.363 . S
C3222 C3221 1.415 . S
C3223 H3199 0.951 . S
C3223 C3224 1.366 . S
C3223 C3225 1.388 . S
C3224 C3223 1.366 . S
C3224 C3228 1.385 . S
C3225 H3200 0.951 . S
C3225 C3223 1.388 . S
C3225 C3226 1.366 . S
C3226 C3225 1.366 . S
C3226 C3227 1.414 . S
C3226 C3229 1.499 . S
C3227 H3201 0.950 . S
C3227 C3226 1.414 . S
C3227 C3228 1.374 . S
C3228 H3202 0.950 . S
C3228 C3224 1.385 . S
C3228 C3227 1.374 . S
C3229 C3226 1.499 . S
C3229 C3230 1.373 . S
C3229 C3231 1.389 . S
C3230 H3203 0.950 . S
C3230 C3216 1.377 . S
C3230 C3229 1.373 . S
C3231 C3215 1.377 . S
C3231 C3229 1.389 . S
C3231 C3232 1.524 . S
C3232 C3231 1.524 . S
C3232 C3233 1.397 . S
C3232 C3237 1.363 . S
C3233 H3204 0.950 . S
C3233 C3232 1.397 . S
C3233 C3234 1.334 . S
C3234 H3205 0.950 . S
C3234 C3233 1.334 . S
C3234 C3235 1.287 . S
C3235 C3234 1.287 . S
C3235 C3236 1.524 . S
C3235 H3238 0.999 . S
C3236 H3206 0.950 . S
C3236 C3235 1.524 . S
C3236 C3237 1.415 . S
C3237 H3207 0.950 . S
C3237 C3232 1.363 . S
C3237 C3236 1.415 . S
H3238 C3235 0.999 . S
H3239 C3220 0.913 . S
H3240 C3258 0.951 . S
H3241 C3260 0.951 . S
H3242 C3262 0.950 . S
H3243 C3263 0.950 . S
H3244 C3265 0.950 . S
H3245 C3268 0.950 . S
H3246 C3269 0.950 . S
H3247 C3271 0.950 . S
H3248 C3272 0.950 . S
H3249 C3273 0.951 . S
H3250 C3275 0.951 . S
H3251 C3277 0.950 . S
H3252 C3278 0.950 . S
H3253 C3280 0.950 . S
H3254 C3283 0.950 . S
H3255 C3284 0.950 . S
H3256 C3286 0.950 . S
H3257 C3287 0.950 . S
C3258 H3240 0.951 . S
C3258 C3259 1.366 . S
C3258 C3260 1.388 . S
C3259 C3258 1.366 . S
C3259 C3263 1.385 . S
C3260 H3241 0.951 . S
C3260 C3258 1.388 . S
C3260 C3261 1.366 . S
C3261 C3260 1.366 . S
C3261 C3262 1.414 . S
C3261 C3264 1.499 . S
C3262 H3242 0.950 . S
C3262 C3261 1.414 . S
C3262 C3263 1.374 . S
C3263 H3243 0.950 . S
C3263 C3259 1.385 . S
C3263 C3262 1.374 . S
C3264 C3261 1.499 . S
C3264 C3265 1.373 . S
C3264 C3266 1.389 . S
C3265 H3244 0.950 . S
C3265 C3264 1.373 . S
C3265 C3281 1.377 . S
C3266 C3264 1.389 . S
C3266 C3267 1.524 . S
C3266 C3280 1.377 . S
C3267 C3266 1.524 . S
C3267 C3268 1.397 . S
C3267 C3272 1.363 . S
C3268 H3245 0.950 . S
C3268 C3267 1.397 . S
C3268 C3269 1.334 . S
C3269 H3246 0.950 . S
C3269 C3268 1.334 . S
C3269 C3270 1.287 . S
C3270 C3269 1.287 . S
C3270 C3271 1.524 . S
C3270 H3289 0.913 . S
C3271 H3247 0.950 . S
C3271 C3270 1.524 . S
C3271 C3272 1.415 . S
C3272 H3248 0.950 . S
C3272 C3267 1.363 . S
C3272 C3271 1.415 . S
C3273 H3249 0.951 . S
C3273 C3274 1.366 . S
C3273 C3275 1.388 . S
C3274 C3273 1.366 . S
C3274 C3278 1.385 . S
C3275 H3250 0.951 . S
C3275 C3273 1.388 . S
C3275 C3276 1.366 . S
C3276 C3275 1.366 . S
C3276 C3277 1.414 . S
C3276 C3279 1.499 . S
C3277 H3251 0.950 . S
C3277 C3276 1.414 . S
C3277 C3278 1.374 . S
C3278 H3252 0.950 . S
C3278 C3274 1.385 . S
C3278 C3277 1.374 . S
C3279 C3276 1.499 . S
C3279 C3280 1.373 . S
C3279 C3281 1.389 . S
C3280 H3253 0.950 . S
C3280 C3266 1.377 . S
C3280 C3279 1.373 . S
C3281 C3265 1.377 . S
C3281 C3279 1.389 . S
C3281 C3282 1.524 . S
C3282 C3281 1.524 . S
C3282 C3283 1.397 . S
C3282 C3287 1.363 . S
C3283 H3254 0.950 . S
C3283 C3282 1.397 . S
C3283 C3284 1.334 . S
C3284 H3255 0.950 . S
C3284 C3283 1.334 . S
C3284 C3285 1.287 . S
C3285 C3284 1.287 . S
C3285 C3286 1.524 . S
C3285 H3288 0.999 . S
C3286 H3256 0.950 . S
C3286 C3285 1.524 . S
C3286 C3287 1.415 . S
C3287 H3257 0.950 . S
C3287 C3282 1.363 . S
C3287 C3286 1.415 . S
H3288 C3285 0.999 . S
H3289 C3270 0.913 . S
H3290 C3308 0.951 . S
H3291 C3310 0.951 . S
H3292 C3312 0.950 . S
H3293 C3313 0.950 . S
H3294 C3315 0.950 . S
H3295 C3318 0.950 . S
H3296 C3319 0.950 . S
H3297 C3321 0.950 . S
H3298 C3322 0.950 . S
H3299 C3323 0.951 . S
H3300 C3325 0.951 . S
H3301 C3327 0.950 . S
H3302 C3328 0.950 . S
H3303 C3330 0.950 . S
H3304 C3333 0.950 . S
H3305 C3334 0.950 . S
H3306 C3336 0.950 . S
H3307 C3337 0.950 . S
C3308 H3290 0.951 . S
C3308 C3309 1.366 . S
C3308 C3310 1.388 . S
C3309 C3308 1.366 . S
C3309 C3313 1.385 . S
C3310 H3291 0.951 . S
C3310 C3308 1.388 . S
C3310 C3311 1.366 . S
C3311 C3310 1.366 . S
C3311 C3312 1.414 . S
C3311 C3314 1.499 . S
C3312 H3292 0.950 . S
C3312 C3311 1.414 . S
C3312 C3313 1.374 . S
C3313 H3293 0.950 . S
C3313 C3309 1.385 . S
C3313 C3312 1.374 . S
C3314 C3311 1.499 . S
C3314 C3315 1.373 . S
C3314 C3316 1.389 . S
C3315 H3294 0.950 . S
C3315 C3314 1.373 . S
C3315 C3331 1.377 . S
C3316 C3314 1.389 . S
C3316 C3317 1.524 . S
C3316 C3330 1.377 . S
C3317 C3316 1.524 . S
C3317 C3318 1.397 . S
C3317 C3322 1.363 . S
C3318 H3295 0.950 . S
C3318 C3317 1.397 . S
C3318 C3319 1.334 . S
C3319 H3296 0.950 . S
C3319 C3318 1.334 . S
C3319 C3320 1.287 . S
C3320 C3319 1.287 . S
C3320 C3321 1.524 . S
C3320 H3339 0.913 . S
C3321 H3297 0.950 . S
C3321 C3320 1.524 . S
C3321 C3322 1.415 . S
C3322 H3298 0.950 . S
C3322 C3317 1.363 . S
C3322 C3321 1.415 . S
C3323 H3299 0.951 . S
C3323 C3324 1.366 . S
C3323 C3325 1.388 . S
C3324 C3323 1.366 . S
C3324 C3328 1.385 . S
C3325 H3300 0.951 . S
C3325 C3323 1.388 . S
C3325 C3326 1.366 . S
C3326 C3325 1.366 . S
C3326 C3327 1.414 . S
C3326 C3329 1.499 . S
C3327 H3301 0.950 . S
C3327 C3326 1.414 . S
C3327 C3328 1.374 . S
C3328 H3302 0.950 . S
C3328 C3324 1.385 . S
C3328 C3327 1.374 . S
C3329 C3326 1.499 . S
C3329 C3330 1.373 . S
C3329 C3331 1.389 . S
C3330 H3303 0.950 . S
C3330 C3316 1.377 . S
C3330 C3329 1.373 . S
C3331 C3315 1.377 . S
C3331 C3329 1.389 . S
C3331 C3332 1.524 . S
C3332 C3331 1.524 . S
C3332 C3333 1.397 . S
C3332 C3337 1.363 . S
C3333 H3304 0.950 . S
C3333 C3332 1.397 . S
C3333 C3334 1.334 . S
C3334 H3305 0.950 . S
C3334 C3333 1.334 . S
C3334 C3335 1.287 . S
C3335 C3334 1.287 . S
C3335 C3336 1.524 . S
C3335 H3338 0.999 . S
C3336 H3306 0.950 . S
C3336 C3335 1.524 . S
C3336 C3337 1.415 . S
C3337 H3307 0.950 . S
C3337 C3332 1.363 . S
C3337 C3336 1.415 . S
H3338 C3335 0.999 . S
H3339 C3320 0.913 . S
H3340 C3358 0.951 . S
H3341 C3360 0.951 . S
H3342 C3362 0.950 . S
H3343 C3363 0.950 . S
H3344 C3365 0.950 . S
H3345 C3368 0.950 . S
H3346 C3369 0.950 . S
H3347 C3371 0.950 . S
H3348 C3372 0.950 . S
H3349 C3373 0.951 . S
H3350 C3375 0.951 . S
H3351 C3377 0.950 . S
H3352 C3378 0.950 . S
H3353 C3380 0.950 . S
H3354 C3383 0.950 . S
H3355 C3384 0.950 . S
H3356 C3386 0.950 . S
H3357 C3387 0.950 . S
C3358 H3340 0.951 . S
C3358 C3359 1.366 . S
C3358 C3360 1.388 . S
C3359 C3358 1.366 . S
C3359 C3363 1.385 . S
C3360 H3341 0.951 . S
C3360 C3358 1.388 . S
C3360 C3361 1.366 . S
C3361 C3360 1.366 . S
C3361 C3362 1.414 . S
C3361 C3364 1.499 . S
C3362 H3342 0.950 . S
C3362 C3361 1.414 . S
C3362 C3363 1.374 . S
C3363 H3343 0.950 . S
C3363 C3359 1.385 . S
C3363 C3362 1.374 . S
C3364 C3361 1.499 . S
C3364 C3365 1.373 . S
C3364 C3366 1.389 . S
C3365 H3344 0.950 . S
C3365 C3364 1.373 . S
C3365 C3381 1.377 . S
C3366 C3364 1.389 . S
C3366 C3367 1.524 . S
C3366 C3380 1.377 . S
C3367 C3366 1.524 . S
C3367 C3368 1.397 . S
C3367 C3372 1.363 . S
C3368 H3345 0.950 . S
C3368 C3367 1.397 . S
C3368 C3369 1.334 . S
C3369 H3346 0.950 . S
C3369 C3368 1.334 . S
C3369 C3370 1.287 . S
C3370 C3369 1.287 . S
C3370 C3371 1.524 . S
C3370 H3389 0.913 . S
C3371 H3347 0.950 . S
C3371 C3370 1.524 . S
C3371 C3372 1.415 . S
C3372 H3348 0.950 . S
C3372 C3367 1.363 . S
C3372 C3371 1.415 . S
C3373 H3349 0.951 . S
C3373 C3374 1.366 . S
C3373 C3375 1.388 . S
C3374 C3373 1.366 . S
C3374 C3378 1.385 . S
C3375 H3350 0.951 . S
C3375 C3373 1.388 . S
C3375 C3376 1.366 . S
C3376 C3375 1.366 . S
C3376 C3377 1.414 . S
C3376 C3379 1.499 . S
C3377 H3351 0.950 . S
C3377 C3376 1.414 . S
C3377 C3378 1.374 . S
C3378 H3352 0.950 . S
C3378 C3374 1.385 . S
C3378 C3377 1.374 . S
C3379 C3376 1.499 . S
C3379 C3380 1.373 . S
C3379 C3381 1.389 . S
C3380 H3353 0.950 . S
C3380 C3366 1.377 . S
C3380 C3379 1.373 . S
C3381 C3365 1.377 . S
C3381 C3379 1.389 . S
C3381 C3382 1.524 . S
C3382 C3381 1.524 . S
C3382 C3383 1.397 . S
C3382 C3387 1.363 . S
C3383 H3354 0.950 . S
C3383 C3382 1.397 . S
C3383 C3384 1.334 . S
C3384 H3355 0.950 . S
C3384 C3383 1.334 . S
C3384 C3385 1.287 . S
C3385 C3384 1.287 . S
C3385 C3386 1.524 . S
C3385 H3388 0.999 . S
C3386 H3356 0.950 . S
C3386 C3385 1.524 . S
C3386 C3387 1.415 . S
C3387 H3357 0.950 . S
C3387 C3382 1.363 . S
C3387 C3386 1.415 . S
H3388 C3385 0.999 . S
H3389 C3370 0.913 . S
H3390 C3408 0.951 . S
H3391 C3410 0.951 . S
H3392 C3412 0.950 . S
H3393 C3413 0.950 . S
H3394 C3415 0.950 . S
H3395 C3418 0.950 . S
H3396 C3419 0.950 . S
H3397 C3421 0.950 . S
H3398 C3422 0.950 . S
H3399 C3423 0.951 . S
H3400 C3425 0.951 . S
H3401 C3427 0.950 . S
H3402 C3428 0.950 . S
H3403 C3430 0.950 . S
H3404 C3433 0.950 . S
H3405 C3434 0.950 . S
H3406 C3436 0.950 . S
H3407 C3437 0.950 . S
C3408 H3390 0.951 . S
C3408 C3409 1.366 . S
C3408 C3410 1.388 . S
C3409 C3408 1.366 . S
C3409 C3413 1.385 . S
C3410 H3391 0.951 . S
C3410 C3408 1.388 . S
C3410 C3411 1.366 . S
C3411 C3410 1.366 . S
C3411 C3412 1.414 . S
C3411 C3414 1.499 . S
C3412 H3392 0.950 . S
C3412 C3411 1.414 . S
C3412 C3413 1.374 . S
C3413 H3393 0.950 . S
C3413 C3409 1.385 . S
C3413 C3412 1.374 . S
C3414 C3411 1.499 . S
C3414 C3415 1.373 . S
C3414 C3416 1.389 . S
C3415 H3394 0.950 . S
C3415 C3414 1.373 . S
C3415 C3431 1.377 . S
C3416 C3414 1.389 . S
C3416 C3417 1.524 . S
C3416 C3430 1.377 . S
C3417 C3416 1.524 . S
C3417 C3418 1.397 . S
C3417 C3422 1.363 . S
C3418 H3395 0.950 . S
C3418 C3417 1.397 . S
C3418 C3419 1.334 . S
C3419 H3396 0.950 . S
C3419 C3418 1.334 . S
C3419 C3420 1.287 . S
C3420 C3419 1.287 . S
C3420 C3421 1.524 . S
C3420 H3439 0.913 . S
C3421 H3397 0.950 . S
C3421 C3420 1.524 . S
C3421 C3422 1.415 . S
C3422 H3398 0.950 . S
C3422 C3417 1.363 . S
C3422 C3421 1.415 . S
C3423 H3399 0.951 . S
C3423 C3424 1.366 . S
C3423 C3425 1.388 . S
C3424 C3423 1.366 . S
C3424 C3428 1.385 . S
C3425 H3400 0.951 . S
C3425 C3423 1.388 . S
C3425 C3426 1.366 . S
C3426 C3425 1.366 . S
C3426 C3427 1.414 . S
C3426 C3429 1.499 . S
C3427 H3401 0.950 . S
C3427 C3426 1.414 . S
C3427 C3428 1.374 . S
C3428 H3402 0.950 . S
C3428 C3424 1.385 . S
C3428 C3427 1.374 . S
C3429 C3426 1.499 . S
C3429 C3430 1.373 . S
C3429 C3431 1.389 . S
C3430 H3403 0.950 . S
C3430 C3416 1.377 . S
C3430 C3429 1.373 . S
C3431 C3415 1.377 . S
C3431 C3429 1.389 . S
C3431 C3432 1.524 . S
C3432 C3431 1.524 . S
C3432 C3433 1.397 . S
C3432 C3437 1.363 . S
C3433 H3404 0.950 . S
C3433 C3432 1.397 . S
C3433 C3434 1.334 . S
C3434 H3405 0.950 . S
C3434 C3433 1.334 . S
C3434 C3435 1.287 . S
C3435 C3434 1.287 . S
C3435 C3436 1.524 . S
C3435 H3438 0.999 . S
C3436 H3406 0.950 . S
C3436 C3435 1.524 . S
C3436 C3437 1.415 . S
C3437 H3407 0.950 . S
C3437 C3432 1.363 . S
C3437 C3436 1.415 . S
H3438 C3435 0.999 . S
H3439 C3420 0.913 . S
H3440 C3458 0.951 . S
H3441 C3460 0.951 . S
H3442 C3462 0.950 . S
H3443 C3463 0.950 . S
H3444 C3465 0.950 . S
H3445 C3468 0.950 . S
H3446 C3469 0.950 . S
H3447 C3471 0.950 . S
H3448 C3472 0.950 . S
H3449 C3473 0.951 . S
H3450 C3475 0.951 . S
H3451 C3477 0.950 . S
H3452 C3478 0.950 . S
H3453 C3480 0.950 . S
H3454 C3483 0.950 . S
H3455 C3484 0.950 . S
H3456 C3486 0.950 . S
H3457 C3487 0.950 . S
C3458 H3440 0.951 . S
C3458 C3459 1.366 . S
C3458 C3460 1.388 . S
C3459 C3458 1.366 . S
C3459 C3463 1.385 . S
C3460 H3441 0.951 . S
C3460 C3458 1.388 . S
C3460 C3461 1.366 . S
C3461 C3460 1.366 . S
C3461 C3462 1.414 . S
C3461 C3464 1.499 . S
C3462 H3442 0.950 . S
C3462 C3461 1.414 . S
C3462 C3463 1.374 . S
C3463 H3443 0.950 . S
C3463 C3459 1.385 . S
C3463 C3462 1.374 . S
C3464 C3461 1.499 . S
C3464 C3465 1.373 . S
C3464 C3466 1.389 . S
C3465 H3444 0.950 . S
C3465 C3464 1.373 . S
C3465 C3481 1.377 . S
C3466 C3464 1.389 . S
C3466 C3467 1.524 . S
C3466 C3480 1.377 . S
C3467 C3466 1.524 . S
C3467 C3468 1.397 . S
C3467 C3472 1.363 . S
C3468 H3445 0.950 . S
C3468 C3467 1.397 . S
C3468 C3469 1.334 . S
C3469 H3446 0.950 . S
C3469 C3468 1.334 . S
C3469 C3470 1.287 . S
C3470 C3469 1.287 . S
C3470 C3471 1.524 . S
C3470 H3489 0.913 . S
C3471 H3447 0.950 . S
C3471 C3470 1.524 . S
C3471 C3472 1.415 . S
C3472 H3448 0.950 . S
C3472 C3467 1.363 . S
C3472 C3471 1.415 . S
C3473 H3449 0.951 . S
C3473 C3474 1.366 . S
C3473 C3475 1.388 . S
C3474 C3473 1.366 . S
C3474 C3478 1.385 . S
C3475 H3450 0.951 . S
C3475 C3473 1.388 . S
C3475 C3476 1.366 . S
C3476 C3475 1.366 . S
C3476 C3477 1.414 . S
C3476 C3479 1.499 . S
C3477 H3451 0.950 . S
C3477 C3476 1.414 . S
C3477 C3478 1.374 . S
C3478 H3452 0.950 . S
C3478 C3474 1.385 . S
C3478 C3477 1.374 . S
C3479 C3476 1.499 . S
C3479 C3480 1.373 . S
C3479 C3481 1.389 . S
C3480 H3453 0.950 . S
C3480 C3466 1.377 . S
C3480 C3479 1.373 . S
C3481 C3465 1.377 . S
C3481 C3479 1.389 . S
C3481 C3482 1.524 . S
C3482 C3481 1.524 . S
C3482 C3483 1.397 . S
C3482 C3487 1.363 . S
C3483 H3454 0.950 . S
C3483 C3482 1.397 . S
C3483 C3484 1.334 . S
C3484 H3455 0.950 . S
C3484 C3483 1.334 . S
C3484 C3485 1.287 . S
C3485 C3484 1.287 . S
C3485 C3486 1.524 . S
C3485 H3488 0.999 . S
C3486 H3456 0.950 . S
C3486 C3485 1.524 . S
C3486 C3487 1.415 . S
C3487 H3457 0.950 . S
C3487 C3482 1.363 . S
C3487 C3486 1.415 . S
H3488 C3485 0.999 . S
H3489 C3470 0.913 . S
H3490 C3508 0.951 . S
H3491 C3510 0.951 . S
H3492 C3512 0.950 . S
H3493 C3513 0.950 . S
H3494 C3515 0.950 . S
H3495 C3518 0.950 . S
H3496 C3519 0.950 . S
H3497 C3521 0.950 . S
H3498 C3522 0.950 . S
H3499 C3523 0.951 . S
H3500 C3525 0.951 . S
H3501 C3527 0.950 . S
H3502 C3528 0.950 . S
H3503 C3530 0.950 . S
H3504 C3533 0.950 . S
H3505 C3534 0.950 . S
H3506 C3536 0.950 . S
H3507 C3537 0.950 . S
C3508 H3490 0.951 . S
C3508 C3509 1.366 . S
C3508 C3510 1.388 . S
C3509 C3508 1.366 . S
C3509 C3513 1.385 . S
C3510 H3491 0.951 . S
C3510 C3508 1.388 . S
C3510 C3511 1.366 . S
C3511 C3510 1.366 . S
C3511 C3512 1.414 . S
C3511 C3514 1.499 . S
C3512 H3492 0.950 . S
C3512 C3511 1.414 . S
C3512 C3513 1.374 . S
C3513 H3493 0.950 . S
C3513 C3509 1.385 . S
C3513 C3512 1.374 . S
C3514 C3511 1.499 . S
C3514 C3515 1.373 . S
C3514 C3516 1.389 . S
C3515 H3494 0.950 . S
C3515 C3514 1.373 . S
C3515 C3531 1.377 . S
C3516 C3514 1.389 . S
C3516 C3517 1.524 . S
C3516 C3530 1.377 . S
C3517 C3516 1.524 . S
C3517 C3518 1.397 . S
C3517 C3522 1.363 . S
C3518 H3495 0.950 . S
C3518 C3517 1.397 . S
C3518 C3519 1.334 . S
C3519 H3496 0.950 . S
C3519 C3518 1.334 . S
C3519 C3520 1.287 . S
C3520 C3519 1.287 . S
C3520 C3521 1.524 . S
C3520 H3539 0.913 . S
C3521 H3497 0.950 . S
C3521 C3520 1.524 . S
C3521 C3522 1.415 . S
C3522 H3498 0.950 . S
C3522 C3517 1.363 . S
C3522 C3521 1.415 . S
C3523 H3499 0.951 . S
C3523 C3524 1.366 . S
C3523 C3525 1.388 . S
C3524 C3523 1.366 . S
C3524 C3528 1.385 . S
C3525 H3500 0.951 . S
C3525 C3523 1.388 . S
C3525 C3526 1.366 . S
C3526 C3525 1.366 . S
C3526 C3527 1.414 . S
C3526 C3529 1.499 . S
C3527 H3501 0.950 . S
C3527 C3526 1.414 . S
C3527 C3528 1.374 . S
C3528 H3502 0.950 . S
C3528 C3524 1.385 . S
C3528 C3527 1.374 . S
C3529 C3526 1.499 . S
C3529 C3530 1.373 . S
C3529 C3531 1.389 . S
C3530 H3503 0.950 . S
C3530 C3516 1.377 . S
C3530 C3529 1.373 . S
C3531 C3515 1.377 . S
C3531 C3529 1.389 . S
C3531 C3532 1.524 . S
C3532 C3531 1.524 . S
C3532 C3533 1.397 . S
C3532 C3537 1.363 . S
C3533 H3504 0.950 . S
C3533 C3532 1.397 . S
C3533 C3534 1.334 . S
C3534 H3505 0.950 . S
C3534 C3533 1.334 . S
C3534 C3535 1.287 . S
C3535 C3534 1.287 . S
C3535 C3536 1.524 . S
C3535 H3538 0.999 . S
C3536 H3506 0.950 . S
C3536 C3535 1.524 . S
C3536 C3537 1.415 . S
C3537 H3507 0.950 . S
C3537 C3532 1.363 . S
C3537 C3536 1.415 . S
H3538 C3535 0.999 . S
H3539 C3520 0.913 . S
H3540 C3558 0.951 . S
H3541 C3560 0.951 . S
H3542 C3562 0.950 . S
H3543 C3563 0.950 . S
H3544 C3565 0.950 . S
H3545 C3568 0.950 . S
H3546 C3569 0.950 . S
H3547 C3571 0.950 . S
H3548 C3572 0.950 . S
H3549 C3573 0.951 . S
H3550 C3575 0.951 . S
H3551 C3577 0.950 . S
H3552 C3578 0.950 . S
H3553 C3580 0.950 . S
H3554 C3583 0.950 . S
H3555 C3584 0.950 . S
H3556 C3586 0.950 . S
H3557 C3587 0.950 . S
C3558 H3540 0.951 . S
C3558 C3559 1.366 . S
C3558 C3560 1.388 . S
C3559 C3558 1.366 . S
C3559 C3563 1.385 . S
C3560 H3541 0.951 . S
C3560 C3558 1.388 . S
C3560 C3561 1.366 . S
C3561 C3560 1.366 . S
C3561 C3562 1.414 . S
C3561 C3564 1.499 . S
C3562 H3542 0.950 . S
C3562 C3561 1.414 . S
C3562 C3563 1.374 . S
C3563 H3543 0.950 . S
C3563 C3559 1.385 . S
C3563 C3562 1.374 . S
C3564 C3561 1.499 . S
C3564 C3565 1.373 . S
C3564 C3566 1.389 . S
C3565 H3544 0.950 . S
C3565 C3564 1.373 . S
C3565 C3581 1.377 . S
C3566 C3564 1.389 . S
C3566 C3567 1.524 . S
C3566 C3580 1.377 . S
C3567 C3566 1.524 . S
C3567 C3568 1.397 . S
C3567 C3572 1.363 . S
C3568 H3545 0.950 . S
C3568 C3567 1.397 . S
C3568 C3569 1.334 . S
C3569 H3546 0.950 . S
C3569 C3568 1.334 . S
C3569 C3570 1.287 . S
C3570 C3569 1.287 . S
C3570 C3571 1.524 . S
C3570 H3589 0.913 . S
C3571 H3547 0.950 . S
C3571 C3570 1.524 . S
C3571 C3572 1.415 . S
C3572 H3548 0.950 . S
C3572 C3567 1.363 . S
C3572 C3571 1.415 . S
C3573 H3549 0.951 . S
C3573 C3574 1.366 . S
C3573 C3575 1.388 . S
C3574 C3573 1.366 . S
C3574 C3578 1.385 . S
C3575 H3550 0.951 . S
C3575 C3573 1.388 . S
C3575 C3576 1.366 . S
C3576 C3575 1.366 . S
C3576 C3577 1.414 . S
C3576 C3579 1.499 . S
C3577 H3551 0.950 . S
C3577 C3576 1.414 . S
C3577 C3578 1.374 . S
C3578 H3552 0.950 . S
C3578 C3574 1.385 . S
C3578 C3577 1.374 . S
C3579 C3576 1.499 . S
C3579 C3580 1.373 . S
C3579 C3581 1.389 . S
C3580 H3553 0.950 . S
C3580 C3566 1.377 . S
C3580 C3579 1.373 . S
C3581 C3565 1.377 . S
C3581 C3579 1.389 . S
C3581 C3582 1.524 . S
C3582 C3581 1.524 . S
C3582 C3583 1.397 . S
C3582 C3587 1.363 . S
C3583 H3554 0.950 . S
C3583 C3582 1.397 . S
C3583 C3584 1.334 . S
C3584 H3555 0.950 . S
C3584 C3583 1.334 . S
C3584 C3585 1.287 . S
C3585 C3584 1.287 . S
C3585 C3586 1.524 . S
C3585 H3588 0.999 . S
C3586 H3556 0.950 . S
C3586 C3585 1.524 . S
C3586 C3587 1.415 . S
C3587 H3557 0.950 . S
C3587 C3582 1.363 . S
C3587 C3586 1.415 . S
H3588 C3585 0.999 . S
H3589 C3570 0.913 . S
H3590 C3608 0.951 . S
H3591 C3610 0.951 . S
H3592 C3612 0.950 . S
H3593 C3613 0.950 . S
H3594 C3615 0.950 . S
H3595 C3618 0.950 . S
H3596 C3619 0.950 . S
H3597 C3621 0.950 . S
H3598 C3622 0.950 . S
H3599 C3623 0.951 . S
H3600 C3625 0.951 . S
H3601 C3627 0.950 . S
H3602 C3628 0.950 . S
H3603 C3630 0.950 . S
H3604 C3633 0.950 . S
H3605 C3634 0.950 . S
H3606 C3636 0.950 . S
H3607 C3637 0.950 . S
C3608 H3590 0.951 . S
C3608 C3609 1.366 . S
C3608 C3610 1.388 . S
C3609 C3608 1.366 . S
C3609 C3613 1.385 . S
C3610 H3591 0.951 . S
C3610 C3608 1.388 . S
C3610 C3611 1.366 . S
C3611 C3610 1.366 . S
C3611 C3612 1.414 . S
C3611 C3614 1.499 . S
C3612 H3592 0.950 . S
C3612 C3611 1.414 . S
C3612 C3613 1.374 . S
C3613 H3593 0.950 . S
C3613 C3609 1.385 . S
C3613 C3612 1.374 . S
C3614 C3611 1.499 . S
C3614 C3615 1.373 . S
C3614 C3616 1.389 . S
C3615 H3594 0.950 . S
C3615 C3614 1.373 . S
C3615 C3631 1.377 . S
C3616 C3614 1.389 . S
C3616 C3617 1.524 . S
C3616 C3630 1.377 . S
C3617 C3616 1.524 . S
C3617 C3618 1.397 . S
C3617 C3622 1.363 . S
C3618 H3595 0.950 . S
C3618 C3617 1.397 . S
C3618 C3619 1.334 . S
C3619 H3596 0.950 . S
C3619 C3618 1.334 . S
C3619 C3620 1.287 . S
C3620 C3619 1.287 . S
C3620 C3621 1.524 . S
C3620 H3639 0.913 . S
C3621 H3597 0.950 . S
C3621 C3620 1.524 . S
C3621 C3622 1.415 . S
C3622 H3598 0.950 . S
C3622 C3617 1.363 . S
C3622 C3621 1.415 . S
C3623 H3599 0.951 . S
C3623 C3624 1.366 . S
C3623 C3625 1.388 . S
C3624 C3623 1.366 . S
C3624 C3628 1.385 . S
C3625 H3600 0.951 . S
C3625 C3623 1.388 . S
C3625 C3626 1.366 . S
C3626 C3625 1.366 . S
C3626 C3627 1.414 . S
C3626 C3629 1.499 . S
C3627 H3601 0.950 . S
C3627 C3626 1.414 . S
C3627 C3628 1.374 . S
C3628 H3602 0.950 . S
C3628 C3624 1.385 . S
C3628 C3627 1.374 . S
C3629 C3626 1.499 . S
C3629 C3630 1.373 . S
C3629 C3631 1.389 . S
C3630 H3603 0.950 . S
C3630 C3616 1.377 . S
C3630 C3629 1.373 . S
C3631 C3615 1.377 . S
C3631 C3629 1.389 . S
C3631 C3632 1.524 . S
C3632 C3631 1.524 . S
C3632 C3633 1.397 . S
C3632 C3637 1.363 . S
C3633 H3604 0.950 . S
C3633 C3632 1.397 . S
C3633 C3634 1.334 . S
C3634 H3605 0.950 . S
C3634 C3633 1.334 . S
C3634 C3635 1.287 . S
C3635 C3634 1.287 . S
C3635 C3636 1.524 . S
C3635 H3638 0.999 . S
C3636 H3606 0.950 . S
C3636 C3635 1.524 . S
C3636 C3637 1.415 . S
C3637 H3607 0.950 . S
C3637 C3632 1.363 . S
C3637 C3636 1.415 . S
H3638 C3635 0.999 . S
H3639 C3620 0.913 . S
H3640 C3658 0.951 . S
H3641 C3660 0.951 . S
H3642 C3662 0.950 . S
H3643 C3663 0.950 . S
H3644 C3665 0.950 . S
H3645 C3668 0.950 . S
H3646 C3669 0.950 . S
H3647 C3671 0.950 . S
H3648 C3672 0.950 . S
H3649 C3673 0.951 . S
H3650 C3675 0.951 . S
H3651 C3677 0.950 . S
H3652 C3678 0.950 . S
H3653 C3680 0.950 . S
H3654 C3683 0.950 . S
H3655 C3684 0.950 . S
H3656 C3686 0.950 . S
H3657 C3687 0.950 . S
C3658 H3640 0.951 . S
C3658 C3659 1.366 . S
C3658 C3660 1.388 . S
C3659 C3658 1.366 . S
C3659 C3663 1.385 . S
C3660 H3641 0.951 . S
C3660 C3658 1.388 . S
C3660 C3661 1.366 . S
C3661 C3660 1.366 . S
C3661 C3662 1.414 . S
C3661 C3664 1.499 . S
C3662 H3642 0.950 . S
C3662 C3661 1.414 . S
C3662 C3663 1.374 . S
C3663 H3643 0.950 . S
C3663 C3659 1.385 . S
C3663 C3662 1.374 . S
C3664 C3661 1.499 . S
C3664 C3665 1.373 . S
C3664 C3666 1.389 . S
C3665 H3644 0.950 . S
C3665 C3664 1.373 . S
C3665 C3681 1.377 . S
C3666 C3664 1.389 . S
C3666 C3667 1.524 . S
C3666 C3680 1.377 . S
C3667 C3666 1.524 . S
C3667 C3668 1.397 . S
C3667 C3672 1.363 . S
C3668 H3645 0.950 . S
C3668 C3667 1.397 . S
C3668 C3669 1.334 . S
C3669 H3646 0.950 . S
C3669 C3668 1.334 . S
C3669 C3670 1.287 . S
C3670 C3669 1.287 . S
C3670 C3671 1.524 . S
C3670 H3689 0.913 . S
C3671 H3647 0.950 . S
C3671 C3670 1.524 . S
C3671 C3672 1.415 . S
C3672 H3648 0.950 . S
C3672 C3667 1.363 . S
C3672 C3671 1.415 . S
C3673 H3649 0.951 . S
C3673 C3674 1.366 . S
C3673 C3675 1.388 . S
C3674 C3673 1.366 . S
C3674 C3678 1.385 . S
C3675 H3650 0.951 . S
C3675 C3673 1.388 . S
C3675 C3676 1.366 . S
C3676 C3675 1.366 . S
C3676 C3677 1.414 . S
C3676 C3679 1.499 . S
C3677 H3651 0.950 . S
C3677 C3676 1.414 . S
C3677 C3678 1.374 . S
C3678 H3652 0.950 . S
C3678 C3674 1.385 . S
C3678 C3677 1.374 . S
C3679 C3676 1.499 . S
C3679 C3680 1.373 . S
C3679 C3681 1.389 . S
C3680 H3653 0.950 . S
C3680 C3666 1.377 . S
C3680 C3679 1.373 . S
C3681 C3665 1.377 . S
C3681 C3679 1.389 . S
C3681 C3682 1.524 . S
C3682 C3681 1.524 . S
C3682 C3683 1.397 . S
C3682 C3687 1.363 . S
C3683 H3654 0.950 . S
C3683 C3682 1.397 . S
C3683 C3684 1.334 . S
C3684 H3655 0.950 . S
C3684 C3683 1.334 . S
C3684 C3685 1.287 . S
C3685 C3684 1.287 . S
C3685 C3686 1.524 . S
C3685 H3688 0.999 . S
C3686 H3656 0.950 . S
C3686 C3685 1.524 . S
C3686 C3687 1.415 . S
C3687 H3657 0.950 . S
C3687 C3682 1.363 . S
C3687 C3686 1.415 . S
H3688 C3685 0.999 . S
H3689 C3670 0.913 . S
C1009 N170 2.074 . S
C1024 C301 1.995 . S
C1059 N184 0.819 . S
C1074 C385 0.810 . S
C1109 N158 1.561 . S
C1124 C465 1.535 . S
C1159 N145 1.530 . S
C1174 C381 1.486 1_556 S
C1224 C469 0.755 . S
C1209 N119 0.758 . S
C1259 N131 2.021 . S
C1274 C297 1.983 . S
C1324 C290 1.594 . S
C1309 N144 1.665 . S
C1374 C374 1.292 . S
C1359 N118 1.316 . S
C1409 N132 1.412 . S
C1424 C476 1.403 . S
C1459 N171 1.389 . S
C1474 C392 1.381 . S
C1509 N183 1.257 . S
C1524 C458 1.231 . S
C1574 C308 1.579 . S
C1559 N157 1.612 . S
C1624 C553 1.996 . S
C1609 N14 2.074 . S
C1659 N28 0.819 . S
C1674 C637 0.808 . S
C1709 N2 1.562 . S
C1724 C717 1.536 . S
C1759 N223 1.529 . S
C1774 C633 1.504 . S
C1809 N197 0.757 . S
C1824 C721 0.756 . S
C1859 N209 2.021 . S
C1874 C549 1.982 . S
C1909 N222 1.665 . S
C1924 C542 1.593 . S
C1959 N196 1.317 . S
C1974 C626 1.292 . S
C2024 C728 1.403 . S
C2009 N210 1.411 . S
C2059 N15 1.389 . S
C2074 C644 1.381 . S
C2124 C710 1.232 . S
C2109 N27 1.256 . S
C2159 N1 1.613 . S
C2174 C560 1.579 . S
C2224 C805 1.995 . S
C2209 N92 2.073 . S
C2259 N106 0.819 . S
C2274 C889 0.810 . S
C2324 C969 1.535 . S
C2309 N80 1.561 . S
C2374 C885 1.505 . S
C2359 N67 1.530 . S
C2424 C973 0.756 . S
C2409 N41 0.757 . S
C2459 N53 2.021 . S
C2474 C801 1.983 . S
C2509 N66 1.665 . S
C2524 C794 1.594 . S
C2559 N40 1.317 . S
C2574 C878 1.291 . S
C2624 C980 1.403 . S
C2609 N54 1.411 . S
C2659 N93 1.389 . S
C2674 C896 1.380 . S
C2709 N105 1.256 . S
C2724 C962 1.231 . S
C2759 N79 1.612 . S
C2774 C812 1.578 . S
C2809 N200 1.158 . S
C2824 C304 1.061 . S
C2874 C388 1.685 . S
C2859 N213 1.870 . S
C2909 N226 1.483 . S
C2924 C460 1.360 . S
C2959 N83 1.523 . S
C2974 C376 1.392 . S
C3009 N96 1.840 . S
C3024 C472 1.661 . S
C3074 C292 1.091 . S
C3059 N109 1.179 . S
C3109 N44 1.158 . S
C3124 C556 1.060 . S
C3159 N57 1.870 . S
C3174 C640 1.684 . S
C3209 N70 1.483 . S
C3224 C712 1.360 . S
C3259 N161 1.522 . S
C3274 C628 1.392 . S
C3324 C724 1.662 . S
C3309 N174 1.840 . S
C3359 N187 1.180 . S
C3374 C544 1.091 . S
C3409 N122 1.158 . S
C3424 C808 1.059 . S
C3459 N135 1.870 . S
C3474 C892 1.684 . S
C3524 C964 1.360 . S
C3509 N148 1.483 . S
C3559 N5 1.522 . S
C3574 C880 1.391 . S
C3609 N18 1.840 . S
C3624 C976 1.662 . S
C3659 N31 1.179 . S
C3674 C796 1.090 . S
