# Generated by pormake.
# Topology pto, (3,4)-cn, num edge types: 1
# Building blocks:
#     Node 0, Type 0, BuildingBlock: MIDCAF_clean_linker_0, # of connection points: 3
#     Node 1, Type 0, BuildingBlock: MIDCAF_clean_linker_0, # of connection points: 3
#     Node 2, Type 0, BuildingBlock: MIDCAF_clean_linker_0, # of connection points: 3
#     Node 3, Type 0, BuildingBlock: MIDCAF_clean_linker_0, # of connection points: 3
#     Node 4, Type 0, BuildingBlock: MIDCAF_clean_linker_0, # of connection points: 3
#     Node 5, Type 0, BuildingBlock: MIDCAF_clean_linker_0, # of connection points: 3
#     Node 6, Type 0, BuildingBlock: MIDCAF_clean_linker_0, # of connection points: 3
#     Node 7, Type 0, BuildingBlock: MIDCAF_clean_linker_0, # of connection points: 3
#     Node 8, Type 1, BuildingBlock: NAWXER_clean_sbu_0, # of connection points: 4
#     Node 9, Type 1, BuildingBlock: NAWXER_clean_sbu_0, # of connection points: 4
#     Node 10, Type 1, BuildingBlock: NAWXER_clean_sbu_0, # of connection points: 4
#     Node 11, Type 1, BuildingBlock: NAWXER_clean_sbu_0, # of connection points: 4
#     Node 12, Type 1, BuildingBlock: NAWXER_clean_sbu_0, # of connection points: 4
#     Node 13, Type 1, BuildingBlock: NAWXER_clean_sbu_0, # of connection points: 4
#     Edge 14, Type (0, 1), None
#     Edge 15, Type (0, 1), None
#     Edge 16, Type (0, 1), None
#     Edge 17, Type (0, 1), None
#     Edge 18, Type (0, 1), None
#     Edge 19, Type (0, 1), None
#     Edge 20, Type (0, 1), None
#     Edge 21, Type (0, 1), None
#     Edge 22, Type (0, 1), None
#     Edge 23, Type (0, 1), None
#     Edge 24, Type (0, 1), None
#     Edge 25, Type (0, 1), None
#     Edge 26, Type (0, 1), None
#     Edge 27, Type (0, 1), None
#     Edge 28, Type (0, 1), None
#     Edge 29, Type (0, 1), None
#     Edge 30, Type (0, 1), None
#     Edge 31, Type (0, 1), None
#     Edge 32, Type (0, 1), None
#     Edge 33, Type (0, 1), None
#     Edge 34, Type (0, 1), None
#     Edge 35, Type (0, 1), None
#     Edge 36, Type (0, 1), None
#     Edge 37, Type (0, 1), None
# Relax obj value: 0.000
# Max RMSD: 0.002
# Mean RMSD: 0.001
data_MOF--net-pto--node1-NAWXER_clean_sbu_0--node2-MIDCAF_clean_linker_0--edge1-none
_symmetry_space_group_name_H-M    P1
_symmetry_Int_Tables_number       1
_symmetry_cell_setting            triclinic
loop_
_symmetry_equiv_pos_as_xyz
'x, y, z'
_cell_length_a     28.082779
_cell_length_b     26.646084
_cell_length_c     25.161371
_cell_angle_alpha  89.731732
_cell_angle_beta   90.093961
_cell_angle_gamma 90.191082
loop_
_atom_site_label
_atom_site_type_symbol
_atom_site_fract_x
_atom_site_fract_y
_atom_site_fract_z
_atom_type_partial_charge
C0 C 0.44492 0.28922 0.17021 0.0
C1 C 0.44565 0.32898 0.13338 0.0
C2 C 0.41478 0.3697 0.14094 0.0
C3 C 0.38193 0.36916 0.18296 0.0
H4 H 0.23896 0.41003 0.21286 0.0
H5 H 0.16603 0.4588 0.20637 0.0
H6 H 0.12823 0.41506 0.36634 0.0
H7 H 0.20111 0.36535 0.37269 0.0
H8 H 0.23313 0.24425 0.3913 0.0
H9 H 0.2291 0.16712 0.4427 0.0
H10 H 0.37533 0.13455 0.40308 0.0
H11 H 0.37944 0.21207 0.35078 0.0
H12 H 0.41265 0.25688 0.23896 0.0
H13 H 0.46852 0.25744 0.16567 0.0
H14 H 0.41444 0.40076 0.11302 0.0
H15 H 0.35738 0.40021 0.18666 0.0
N16 N 0.30455 0.3564 0.25981 0.0
N17 N 0.26999 0.31178 0.33067 0.0
N18 N 0.34295 0.28576 0.29544 0.0
C19 C 0.26844 0.35055 0.29541 0.0
C20 C 0.30715 0.2792 0.33102 0.0
C21 C 0.34215 0.3243 0.25983 0.0
C22 C 0.2259 0.38353 0.2932 0.0
C23 C 0.21541 0.41105 0.24689 0.0
C24 C 0.17339 0.43883 0.24306 0.0
C25 C 0.14116 0.44054 0.28575 0.0
C26 C 0.15232 0.41448 0.33278 0.0
C27 C 0.19404 0.38591 0.3363 0.0
C28 C 0.30649 0.23441 0.36646 0.0
C29 C 0.26468 0.22108 0.39375 0.0
C30 C 0.26229 0.17658 0.42313 0.0
C31 C 0.30179 0.14442 0.42658 0.0
C32 C 0.34428 0.15851 0.40111 0.0
C33 C 0.34653 0.20291 0.37106 0.0
C34 C 0.37987 0.32819 0.21853 0.0
C35 C 0.41276 0.28897 0.21238 0.0
C36 C 0.17314 0.59024 0.76103 0.0
C37 C 0.14069 0.5886 0.71842 0.0
C38 C 0.15167 0.61492 0.67149 0.0
C39 C 0.19344 0.64369 0.66801 0.0
H40 H 0.23294 0.78532 0.61301 0.0
H41 H 0.22897 0.8624 0.56158 0.0
H42 H 0.37513 0.89604 0.60198 0.0
H43 H 0.37919 0.81855 0.65432 0.0
H44 H 0.41252 0.77337 0.76624 0.0
H45 H 0.46862 0.77246 0.83953 0.0
H46 H 0.41474 0.62819 0.89049 0.0
H47 H 0.35749 0.62909 0.81686 0.0
H48 H 0.23893 0.61919 0.7912 0.0
H49 H 0.16592 0.57007 0.79764 0.0
H50 H 0.1274 0.61439 0.638 0.0
H51 H 0.20037 0.66446 0.63171 0.0
N52 N 0.26968 0.71808 0.67381 0.0
N53 N 0.34282 0.74428 0.70913 0.0
N54 N 0.30435 0.67333 0.74444 0.0
C55 C 0.30692 0.75082 0.67358 0.0
C56 C 0.34203 0.70558 0.74456 0.0
C57 C 0.26814 0.67916 0.7089 0.0
C58 C 0.30627 0.79568 0.63825 0.0
C59 C 0.26449 0.80872 0.61074 0.0
C60 C 0.26213 0.85319 0.58133 0.0
C61 C 0.30163 0.88564 0.57807 0.0
C62 C 0.34408 0.87187 0.6038 0.0
C63 C 0.3463 0.82748 0.63387 0.0
C64 C 0.37985 0.7016 0.78583 0.0
C65 C 0.41273 0.74101 0.79245 0.0
C66 C 0.44502 0.74055 0.83462 0.0
C67 C 0.44588 0.70041 0.87099 0.0
C68 C 0.41499 0.65955 0.86294 0.0
C69 C 0.38202 0.66029 0.82094 0.0
C70 C 0.22552 0.646 0.71103 0.0
C71 C 0.2152 0.61823 0.75723 0.0
C72 C 0.62502 0.65889 0.14426 0.0
C73 C 0.59427 0.69969 0.13607 0.0
C74 C 0.59522 0.73962 0.1723 0.0
C75 C 0.62751 0.73996 0.21447 0.0
H76 H 0.66128 0.81649 0.35256 0.0
H77 H 0.66536 0.89382 0.4044 0.0
H78 H 0.81204 0.86195 0.44343 0.0
H79 H 0.80805 0.78499 0.39247 0.0
H80 H 0.84081 0.66399 0.37408 0.0
H81 H 0.91372 0.6144 0.36722 0.0
H82 H 0.87396 0.57094 0.20805 0.0
H83 H 0.80105 0.61953 0.21506 0.0
H84 H 0.68248 0.62843 0.1904 0.0
H85 H 0.6252 0.62771 0.1168 0.0
H86 H 0.57171 0.77146 0.16726 0.0
H87 H 0.62783 0.77218 0.24055 0.0
N88 N 0.69763 0.74314 0.29757 0.0
N89 N 0.77103 0.71739 0.33246 0.0
N90 N 0.73601 0.67275 0.26223 0.0
C91 C 0.73372 0.74979 0.33284 0.0
C92 C 0.77242 0.67869 0.29747 0.0
C93 C 0.69828 0.70466 0.26226 0.0
C94 C 0.73445 0.7945 0.36797 0.0
C95 C 0.69429 0.82576 0.3726 0.0
C96 C 0.69653 0.87007 0.40239 0.0
C97 C 0.73912 0.8843 0.42759 0.0
C98 C 0.77876 0.85238 0.42409 0.0
C99 C 0.7764 0.80797 0.39496 0.0
C100 C 0.81506 0.6459 0.29505 0.0
C101 C 0.84747 0.64352 0.33777 0.0
C102 C 0.88919 0.61501 0.33396 0.0
C103 C 0.89979 0.58907 0.28698 0.0
C104 C 0.86703 0.59082 0.24468 0.0
C105 C 0.82502 0.61851 0.24881 0.0
C106 C 0.66031 0.70067 0.22118 0.0
C107 C 0.65801 0.65953 0.18624 0.0
C108 C 0.77798 0.17498 0.58108 0.0
C109 C 0.73854 0.14247 0.5778 0.0
C110 C 0.69602 0.15609 0.60319 0.0
C111 C 0.69366 0.20041 0.63292 0.0
H112 H 0.62745 0.25411 0.76516 0.0
H113 H 0.5714 0.25508 0.83834 0.0
H114 H 0.62439 0.40007 0.8869 0.0
H115 H 0.68155 0.39911 0.81343 0.0
H116 H 0.80036 0.40837 0.78939 0.0
H117 H 0.87337 0.45737 0.79624 0.0
H118 H 0.91252 0.41379 0.63715 0.0
H119 H 0.83952 0.36379 0.63045 0.0
H120 H 0.80699 0.24283 0.61243 0.0
H121 H 0.8112 0.16588 0.56159 0.0
H122 H 0.66501 0.13187 0.60135 0.0
H123 H 0.66072 0.20923 0.65311 0.0
N124 N 0.69682 0.28358 0.7075 0.0
N125 N 0.73515 0.35455 0.7424 0.0
N126 N 0.77005 0.30989 0.67244 0.0
C127 C 0.69749 0.32228 0.74256 0.0
C128 C 0.77147 0.34877 0.70719 0.0
C129 C 0.73284 0.27711 0.67225 0.0
C130 C 0.65963 0.32624 0.7836 0.0
C131 C 0.62703 0.28663 0.79081 0.0
C132 C 0.59478 0.28713 0.83292 0.0
C133 C 0.59371 0.3275 0.86859 0.0
C134 C 0.62431 0.36853 0.8599 0.0
C135 C 0.65722 0.36776 0.81799 0.0
C136 C 0.81407 0.38191 0.70946 0.0
C137 C 0.82422 0.40947 0.75562 0.0
C138 C 0.86628 0.43739 0.75965 0.0
C139 C 0.89891 0.4392 0.71733 0.0
C140 C 0.8881 0.41313 0.67042 0.0
C141 C 0.84633 0.38439 0.6667 0.0
C142 C 0.73362 0.23228 0.6373 0.0
C143 C 0.77549 0.21937 0.61015 0.0
C144 C 0.65676 0.83133 0.90398 0.0
C145 C 0.64331 0.78565 0.92777 0.0
C146 C 0.67453 0.74459 0.92456 0.0
C147 C 0.71783 0.7488 0.89753 0.0
H148 H 0.86189 0.69134 0.88948 0.0
H149 H 0.91622 0.61957 0.8873 0.0
H150 H 0.96712 0.66792 0.73351 0.0
H151 H 0.91393 0.7395 0.7358 0.0
H152 H 0.89127 0.8543 0.6997 0.0
H153 H 0.89044 0.91087 0.62272 0.0
H154 H 0.74923 0.95974 0.66553 0.0
H155 H 0.74997 0.90422 0.74205 0.0
H156 H 0.70869 0.87084 0.85748 0.0
H157 H 0.63356 0.86367 0.90582 0.0
H158 H 0.66546 0.70893 0.94283 0.0
H159 H 0.74057 0.71613 0.89527 0.0
N160 N 0.80894 0.76116 0.84355 0.0
N161 N 0.85173 0.79971 0.77433 0.0
N162 N 0.77965 0.83424 0.80296 0.0
C163 C 0.84769 0.76235 0.81114 0.0
C164 C 0.81799 0.83594 0.7701 0.0
C165 C 0.77479 0.79717 0.83981 0.0
C166 C 0.8832 0.7211 0.81264 0.0
C167 C 0.88508 0.68693 0.85549 0.0
C168 C 0.91636 0.64597 0.85444 0.0
C169 C 0.94569 0.63796 0.81011 0.0
C170 C 0.94474 0.67288 0.76811 0.0
C171 C 0.91423 0.71409 0.76953 0.0
C172 C 0.82043 0.87412 0.72689 0.0
C173 C 0.8603 0.87762 0.69308 0.0
C174 C 0.85998 0.91018 0.64907 0.0
C175 C 0.8196 0.93933 0.63777 0.0
C176 C 0.78074 0.93737 0.67283 0.0
C177 C 0.78123 0.90546 0.71691 0.0
C178 C 0.73074 0.794 0.87234 0.0
C179 C 0.69983 0.83536 0.87623 0.0
C180 C 0.85922 0.11799 0.35618 0.0
C181 C 0.81876 0.08878 0.36768 0.0
C182 C 0.77962 0.09079 0.33287 0.0
C183 C 0.77996 0.12276 0.28882 0.0
H184 H 0.70657 0.15745 0.14857 0.0
H185 H 0.63143 0.16467 0.10006 0.0
H186 H 0.66482 0.31907 0.06216 0.0
H187 H 0.73992 0.31183 0.10987 0.0
H188 H 0.86109 0.33652 0.11555 0.0
H189 H 0.91579 0.40837 0.11743 0.0
H190 H 0.96707 0.36052 0.2713 0.0
H191 H 0.91351 0.28885 0.2693 0.0
H192 H 0.89046 0.17391 0.30543 0.0
H193 H 0.88988 0.11726 0.38233 0.0
H194 H 0.74804 0.06839 0.34032 0.0
H195 H 0.74852 0.12402 0.26387 0.0
N196 N 0.7783 0.19392 0.20266 0.0
N197 N 0.8079 0.26691 0.16185 0.0
N198 N 0.85078 0.22847 0.23101 0.0
C199 C 0.77352 0.23095 0.16575 0.0
C200 C 0.84681 0.26576 0.19415 0.0
C201 C 0.81681 0.19226 0.2354 0.0
C202 C 0.72937 0.23412 0.13327 0.0
C203 C 0.69803 0.19287 0.12959 0.0
C204 C 0.65495 0.19693 0.10174 0.0
C205 C 0.64193 0.24252 0.07764 0.0
C206 C 0.67356 0.28348 0.08067 0.0
C207 C 0.71685 0.27924 0.1078 0.0
C208 C 0.88257 0.30701 0.19246 0.0
C209 C 0.88445 0.34105 0.14949 0.0
C210 C 0.91594 0.38206 0.15037 0.0
C211 C 0.94548 0.39024 0.19464 0.0
C212 C 0.94453 0.35543 0.23675 0.0
C213 C 0.91381 0.31416 0.2355 0.0
C214 C 0.81929 0.1541 0.27863 0.0
C215 C 0.85939 0.15058 0.31221 0.0
C216 C 0.25973 0.09055 0.67167 0.0
C217 C 0.22085 0.08866 0.63651 0.0
C218 C 0.18039 0.11764 0.64759 0.0
C219 C 0.18 0.14991 0.69152 0.0
H220 H 0.1259 0.28792 0.73431 0.0
H221 H 0.07259 0.3595 0.73231 0.0
H222 H 0.12303 0.40526 0.88691 0.0
H223 H 0.17743 0.33356 0.88878 0.0
H224 H 0.29895 0.31039 0.8938 0.0
H225 H 0.37409 0.31799 0.94136 0.0
H226 H 0.40726 0.16383 0.90473 0.0
H227 H 0.33206 0.15626 0.85631 0.0
H228 H 0.29042 0.12335 0.7409 0.0
H229 H 0.29129 0.06832 0.66455 0.0
H230 H 0.14992 0.117 0.62115 0.0
H231 H 0.14896 0.17308 0.69799 0.0
N232 N 0.18819 0.22707 0.77296 0.0
N233 N 0.23089 0.26517 0.84229 0.0
N234 N 0.26059 0.19276 0.80158 0.0
C235 C 0.19207 0.26405 0.80987 0.0
C236 C 0.26528 0.22949 0.83849 0.0
C237 C 0.22217 0.19113 0.76869 0.0
C238 C 0.15637 0.30508 0.81151 0.0
C239 C 0.12545 0.31275 0.76827 0.0
C240 C 0.09489 0.35396 0.76703 0.0
C241 C 0.09379 0.38817 0.80934 0.0
C242 C 0.12299 0.37942 0.8538 0.0
C243 C 0.15432 0.3385 0.85468 0.0
C244 C 0.30939 0.23278 0.87102 0.0
C245 C 0.32197 0.27792 0.89613 0.0
C246 C 0.36529 0.28237 0.92317 0.0
C247 C 0.39687 0.24159 0.92649 0.0
C248 C 0.38377 0.19594 0.9028 0.0
C249 C 0.34066 0.19169 0.87501 0.0
C250 C 0.21986 0.15331 0.72546 0.0
C251 C 0.25916 0.12218 0.71567 0.0
C252 C 0.12378 0.649 0.15007 0.0
C253 C 0.09439 0.64048 0.19435 0.0
C254 C 0.09546 0.67496 0.23642 0.0
C255 C 0.1262 0.71621 0.23514 0.0
H256 H 0.14989 0.85626 0.30442 0.0
H257 H 0.15054 0.91242 0.38115 0.0
H258 H 0.29292 0.96039 0.34027 0.0
H259 H 0.29235 0.90522 0.26398 0.0
H260 H 0.33437 0.87222 0.14853 0.0
H261 H 0.4095 0.86453 0.10037 0.0
H262 H 0.37493 0.71056 0.06325 0.0
H263 H 0.29988 0.71827 0.11055 0.0
H264 H 0.17858 0.69475 0.11523 0.0
H265 H 0.12383 0.62294 0.11716 0.0
H266 H 0.07301 0.66959 0.27098 0.0
H267 H 0.12663 0.74125 0.26893 0.0
N268 N 0.18947 0.8018 0.23058 0.0
N269 N 0.26222 0.83603 0.20255 0.0
N270 N 0.23221 0.76352 0.16177 0.0
C271 C 0.22365 0.83775 0.23507 0.0
C272 C 0.26682 0.7992 0.16577 0.0
C273 C 0.19327 0.76472 0.19384 0.0
C274 C 0.22131 0.87564 0.27819 0.0
C275 C 0.1811 0.87928 0.31142 0.0
C276 C 0.18132 0.9116 0.35529 0.0
C277 C 0.22193 0.94042 0.36707 0.0
C278 C 0.26121 0.93829 0.33261 0.0
C279 C 0.26082 0.90659 0.28865 0.0
C280 C 0.311 0.79582 0.13356 0.0
C281 C 0.34266 0.83681 0.12979 0.0
C282 C 0.38572 0.83248 0.10214 0.0
C283 C 0.3984 0.78685 0.07837 0.0
C284 C 0.36646 0.74616 0.0815 0.0
C285 C 0.32319 0.75068 0.1084 0.0
C286 C 0.15735 0.72366 0.19211 0.0
C287 C 0.1553 0.68998 0.14916 0.0
C288 C 0.97451 0.43649 0.19966 0.0
C289 C 0.06547 0.59414 0.19948 0.0
O290 O 0.98467 0.4526 0.24625 0.0
Zn291 Zn 0.02044 0.51484 0.2823 0.0
O292 O 0.98805 0.46133 0.15907 0.0
Zn293 Zn 0.02003 0.5153 0.19732 0.0
O294 O 0.07991 0.47826 0.23327 0.0
O295 O 0.07196 0.48188 0.3204 0.0
O296 O 0.05159 0.56972 0.15893 0.0
O297 O 0.05577 0.5775 0.24611 0.0
O298 O 0.96934 0.5474 0.32099 0.0
O299 O 0.96053 0.55193 0.23394 0.0
C300 C 0.09567 0.46818 0.27998 0.0
C301 C 0.94523 0.56153 0.28079 0.0
C302 C 0.94446 0.46688 0.72348 0.0
C303 C 0.09517 0.56075 0.72421 0.0
O304 O 0.96 0.47642 0.77033 0.0
Zn305 Zn 0.01979 0.51313 0.80691 0.0
O306 O 0.96842 0.48117 0.68326 0.0
Zn307 Zn 0.01981 0.51381 0.72193 0.0
O308 O 0.05514 0.45117 0.75783 0.0
O309 O 0.05135 0.45869 0.84503 0.0
O310 O 0.07123 0.54707 0.68379 0.0
O311 O 0.0796 0.55048 0.77092 0.0
O312 O 0.98816 0.56689 0.8454 0.0
O313 O 0.98441 0.57582 0.75825 0.0
C314 C 0.06499 0.43443 0.80439 0.0
C315 C 0.97451 0.59179 0.80491 0.0
C316 C 0.29708 0.93423 0.54961 0.0
C317 C 0.29719 0.09574 0.45491 0.0
O318 O 0.25536 0.95107 0.53925 0.0
Zn319 Zn 0.22291 0.01461 0.50177 0.0
O320 O 0.33349 0.95965 0.53575 0.0
Zn321 Zn 0.29945 0.01497 0.50223 0.0
O322 O 0.26676 0.04998 0.56894 0.0
O323 O 0.18861 0.04611 0.56014 0.0
O324 O 0.33357 0.07066 0.46915 0.0
O325 O 0.25545 0.07849 0.46476 0.0
O326 O 0.18914 0.9828 0.44296 0.0
O327 O 0.26734 0.97961 0.43513 0.0
C328 C 0.22505 0.05972 0.58663 0.0
C329 C 0.22578 0.96949 0.41693 0.0
C330 C 0.56486 0.70408 0.0874 0.0
C331 C 0.47545 0.70454 0.91955 0.0
O332 O 0.55116 0.66567 0.06158 0.0
Zn333 Zn 0.52021 0.70191 0.00346 0.0
O334 O 0.55526 0.74803 0.06962 0.0
Zn335 Zn 0.5208 0.78226 0.00308 0.0
O336 O 0.46928 0.81877 0.03659 0.0
O337 O 0.46019 0.73658 0.04125 0.0
O338 O 0.48572 0.7484 0.9369 0.0
O339 O 0.48866 0.66601 0.9457 0.0
O340 O 0.58077 0.73593 0.96535 0.0
O341 O 0.57292 0.81819 0.96927 0.0
C342 C 0.44477 0.78085 0.051 0.0
C343 C 0.59686 0.78005 0.95522 0.0
C344 C 0.81542 0.96849 0.58775 0.0
C345 C 0.81487 0.05945 0.41764 0.0
O346 O 0.77373 0.97822 0.56977 0.0
Zn347 Zn 0.7411 0.01342 0.50268 0.0
O348 O 0.85189 0.98226 0.56139 0.0
Zn349 Zn 0.81764 0.01393 0.50267 0.0
O350 O 0.78499 0.07725 0.53964 0.0
O351 O 0.70688 0.06854 0.53572 0.0
O352 O 0.85149 0.04609 0.44396 0.0
O353 O 0.77329 0.04915 0.43562 0.0
O354 O 0.70717 0.95779 0.46969 0.0
O355 O 0.7853 0.95015 0.46573 0.0
C356 C 0.74322 0.09397 0.54966 0.0
C357 C 0.74361 0.93285 0.45574 0.0
C358 C 0.59553 0.24816 0.05001 0.0
C359 C 0.44334 0.24753 0.95389 0.0
O360 O 0.57119 0.21005 0.03612 0.0
Zn361 Zn 0.51944 0.24604 1.00192 0.0
O362 O 0.57989 0.2923 0.03953 0.0
Zn363 Zn 0.51966 0.32639 1.00101 0.0
O364 O 0.48854 0.36281 0.05845 0.0
O365 O 0.48484 0.28047 0.0678 0.0
O366 O 0.45923 0.29179 0.96337 0.0
O367 O 0.46748 0.20959 0.96857 0.0
O368 O 0.55423 0.27968 0.93525 0.0
O369 O 0.55091 0.3621 0.94269 0.0
C370 C 0.47502 0.32448 0.08484 0.0
C371 C 0.56425 0.32349 0.91719 0.0
loop_
_geom_bond_atom_site_label_1
_geom_bond_atom_site_label_2
_geom_bond_distance
_geom_bond_site_symmetry_2
_ccdc_geom_bond_type
C0 C1 1.384 . S
C0 H13 0.947 . S
C0 C35 1.382 . S
C1 C0 1.384 . S
C1 C2 1.378 . S
C2 C1 1.378 . S
C2 C3 1.378 . S
C2 H14 0.952 . S
C3 C2 1.378 . S
C3 H15 0.950 . S
C3 C34 1.383 . S
H4 C23 0.947 . S
H5 C24 0.946 . S
H6 C26 0.953 . S
H7 C27 0.945 . S
H8 C29 0.952 . S
H9 C30 0.949 . S
H10 C32 0.950 . S
H11 C33 0.948 . S
H12 C35 0.951 . S
H13 C0 0.947 . S
H14 C2 0.952 . S
H15 C3 0.950 . S
N16 C19 1.382 . S
N16 C21 1.363 . S
N17 C19 1.371 . S
N17 C20 1.372 . S
N18 C20 1.361 . S
N18 C21 1.377 . S
C19 N16 1.382 . S
C19 N17 1.371 . S
C19 C22 1.480 . S
C20 N17 1.372 . S
C20 N18 1.361 . S
C20 C28 1.457 . S
C21 N16 1.363 . S
C21 N18 1.377 . S
C21 C34 1.479 . S
C22 C19 1.480 . S
C22 C23 1.383 . S
C22 C27 1.385 . S
C23 H4 0.947 . S
C23 C22 1.383 . S
C23 C24 1.388 . S
C24 H5 0.946 . S
C24 C23 1.388 . S
C24 C25 1.384 . S
C25 C24 1.384 . S
C25 C26 1.377 . S
C26 H6 0.953 . S
C26 C25 1.377 . S
C26 C27 1.369 . S
C27 H7 0.945 . S
C27 C22 1.385 . S
C27 C26 1.369 . S
C28 C20 1.457 . S
C28 C29 1.372 . S
C28 C33 1.364 . S
C29 H8 0.952 . S
C29 C28 1.372 . S
C29 C30 1.389 . S
C30 H9 0.949 . S
C30 C29 1.389 . S
C30 C31 1.387 . S
C31 C30 1.387 . S
C31 C32 1.372 . S
C32 H10 0.950 . S
C32 C31 1.372 . S
C32 C33 1.379 . S
C33 H11 0.948 . S
C33 C28 1.364 . S
C33 C32 1.379 . S
C34 C3 1.383 . S
C34 C21 1.479 . S
C34 C35 1.398 . S
C35 C0 1.382 . S
C35 H12 0.951 . S
C35 C34 1.398 . S
C36 C37 1.384 . S
C36 H49 0.947 . S
C36 C71 1.382 . S
C37 C36 1.384 . S
C37 C38 1.378 . S
C38 C37 1.378 . S
C38 C39 1.378 . S
C38 H50 0.952 . S
C39 C38 1.378 . S
C39 H51 0.950 . S
C39 C70 1.383 . S
H40 C59 0.947 . S
H41 C60 0.946 . S
H42 C62 0.953 . S
H43 C63 0.945 . S
H44 C65 0.952 . S
H45 C66 0.949 . S
H46 C68 0.950 . S
H47 C69 0.948 . S
H48 C71 0.951 . S
H49 C36 0.947 . S
H50 C38 0.952 . S
H51 C39 0.950 . S
N52 C55 1.382 . S
N52 C57 1.363 . S
N53 C55 1.371 . S
N53 C56 1.372 . S
N54 C56 1.361 . S
N54 C57 1.377 . S
C55 N52 1.382 . S
C55 N53 1.371 . S
C55 C58 1.480 . S
C56 N53 1.372 . S
C56 N54 1.361 . S
C56 C64 1.457 . S
C57 N52 1.363 . S
C57 N54 1.377 . S
C57 C70 1.479 . S
C58 C55 1.480 . S
C58 C59 1.383 . S
C58 C63 1.385 . S
C59 H40 0.947 . S
C59 C58 1.383 . S
C59 C60 1.388 . S
C60 H41 0.946 . S
C60 C59 1.388 . S
C60 C61 1.384 . S
C61 C60 1.384 . S
C61 C62 1.377 . S
C62 H42 0.953 . S
C62 C61 1.377 . S
C62 C63 1.369 . S
C63 H43 0.945 . S
C63 C58 1.385 . S
C63 C62 1.369 . S
C64 C56 1.457 . S
C64 C65 1.372 . S
C64 C69 1.364 . S
C65 H44 0.952 . S
C65 C64 1.372 . S
C65 C66 1.389 . S
C66 H45 0.949 . S
C66 C65 1.389 . S
C66 C67 1.387 . S
C67 C66 1.387 . S
C67 C68 1.372 . S
C68 H46 0.950 . S
C68 C67 1.372 . S
C68 C69 1.379 . S
C69 H47 0.948 . S
C69 C64 1.364 . S
C69 C68 1.379 . S
C70 C39 1.383 . S
C70 C57 1.479 . S
C70 C71 1.398 . S
C71 C36 1.382 . S
C71 H48 0.951 . S
C71 C70 1.398 . S
C72 C73 1.384 . S
C72 H85 0.947 . S
C72 C107 1.382 . S
C73 C72 1.384 . S
C73 C74 1.378 . S
C74 C73 1.378 . S
C74 C75 1.378 . S
C74 H86 0.952 . S
C75 C74 1.378 . S
C75 H87 0.950 . S
C75 C106 1.383 . S
H76 C95 0.947 . S
H77 C96 0.946 . S
H78 C98 0.953 . S
H79 C99 0.945 . S
H80 C101 0.952 . S
H81 C102 0.949 . S
H82 C104 0.950 . S
H83 C105 0.948 . S
H84 C107 0.951 . S
H85 C72 0.947 . S
H86 C74 0.952 . S
H87 C75 0.950 . S
N88 C91 1.382 . S
N88 C93 1.363 . S
N89 C91 1.371 . S
N89 C92 1.372 . S
N90 C92 1.361 . S
N90 C93 1.377 . S
C91 N88 1.382 . S
C91 N89 1.371 . S
C91 C94 1.480 . S
C92 N89 1.372 . S
C92 N90 1.361 . S
C92 C100 1.457 . S
C93 N88 1.363 . S
C93 N90 1.377 . S
C93 C106 1.479 . S
C94 C91 1.480 . S
C94 C95 1.383 . S
C94 C99 1.385 . S
C95 H76 0.947 . S
C95 C94 1.383 . S
C95 C96 1.388 . S
C96 H77 0.946 . S
C96 C95 1.388 . S
C96 C97 1.384 . S
C97 C96 1.384 . S
C97 C98 1.377 . S
C98 H78 0.953 . S
C98 C97 1.377 . S
C98 C99 1.369 . S
C99 H79 0.945 . S
C99 C94 1.385 . S
C99 C98 1.369 . S
C100 C92 1.457 . S
C100 C101 1.372 . S
C100 C105 1.364 . S
C101 H80 0.952 . S
C101 C100 1.372 . S
C101 C102 1.389 . S
C102 H81 0.949 . S
C102 C101 1.389 . S
C102 C103 1.387 . S
C103 C102 1.387 . S
C103 C104 1.372 . S
C104 H82 0.950 . S
C104 C103 1.372 . S
C104 C105 1.379 . S
C105 H83 0.948 . S
C105 C100 1.364 . S
C105 C104 1.379 . S
C106 C75 1.383 . S
C106 C93 1.479 . S
C106 C107 1.398 . S
C107 C72 1.382 . S
C107 H84 0.951 . S
C107 C106 1.398 . S
C108 C109 1.384 . S
C108 H121 0.947 . S
C108 C143 1.382 . S
C109 C108 1.384 . S
C109 C110 1.378 . S
C110 C109 1.378 . S
C110 C111 1.378 . S
C110 H122 0.952 . S
C111 C110 1.378 . S
C111 H123 0.950 . S
C111 C142 1.383 . S
H112 C131 0.947 . S
H113 C132 0.946 . S
H114 C134 0.953 . S
H115 C135 0.945 . S
H116 C137 0.952 . S
H117 C138 0.949 . S
H118 C140 0.950 . S
H119 C141 0.948 . S
H120 C143 0.951 . S
H121 C108 0.947 . S
H122 C110 0.952 . S
H123 C111 0.950 . S
N124 C127 1.382 . S
N124 C129 1.363 . S
N125 C127 1.371 . S
N125 C128 1.372 . S
N126 C128 1.361 . S
N126 C129 1.377 . S
C127 N124 1.382 . S
C127 N125 1.371 . S
C127 C130 1.480 . S
C128 N125 1.372 . S
C128 N126 1.361 . S
C128 C136 1.457 . S
C129 N124 1.363 . S
C129 N126 1.377 . S
C129 C142 1.479 . S
C130 C127 1.480 . S
C130 C131 1.383 . S
C130 C135 1.385 . S
C131 H112 0.947 . S
C131 C130 1.383 . S
C131 C132 1.388 . S
C132 H113 0.946 . S
C132 C131 1.388 . S
C132 C133 1.384 . S
C133 C132 1.384 . S
C133 C134 1.377 . S
C134 H114 0.953 . S
C134 C133 1.377 . S
C134 C135 1.369 . S
C135 H115 0.945 . S
C135 C130 1.385 . S
C135 C134 1.369 . S
C136 C128 1.457 . S
C136 C137 1.372 . S
C136 C141 1.364 . S
C137 H116 0.952 . S
C137 C136 1.372 . S
C137 C138 1.389 . S
C138 H117 0.949 . S
C138 C137 1.389 . S
C138 C139 1.387 . S
C139 C138 1.387 . S
C139 C140 1.372 . S
C140 H118 0.950 . S
C140 C139 1.372 . S
C140 C141 1.379 . S
C141 H119 0.948 . S
C141 C136 1.364 . S
C141 C140 1.379 . S
C142 C111 1.383 . S
C142 C129 1.479 . S
C142 C143 1.398 . S
C143 C108 1.382 . S
C143 H120 0.951 . S
C143 C142 1.398 . S
C144 C145 1.384 . S
C144 H157 0.947 . S
C144 C179 1.382 . S
C145 C144 1.384 . S
C145 C146 1.378 . S
C146 C145 1.378 . S
C146 C147 1.378 . S
C146 H158 0.952 . S
C147 C146 1.378 . S
C147 H159 0.950 . S
C147 C178 1.383 . S
H148 C167 0.947 . S
H149 C168 0.946 . S
H150 C170 0.953 . S
H151 C171 0.945 . S
H152 C173 0.952 . S
H153 C174 0.949 . S
H154 C176 0.950 . S
H155 C177 0.948 . S
H156 C179 0.951 . S
H157 C144 0.947 . S
H158 C146 0.952 . S
H159 C147 0.950 . S
N160 C163 1.382 . S
N160 C165 1.363 . S
N161 C163 1.371 . S
N161 C164 1.372 . S
N162 C164 1.361 . S
N162 C165 1.377 . S
C163 N160 1.382 . S
C163 N161 1.371 . S
C163 C166 1.480 . S
C164 N161 1.372 . S
C164 N162 1.361 . S
C164 C172 1.457 . S
C165 N160 1.363 . S
C165 N162 1.377 . S
C165 C178 1.479 . S
C166 C163 1.480 . S
C166 C167 1.383 . S
C166 C171 1.385 . S
C167 H148 0.947 . S
C167 C166 1.383 . S
C167 C168 1.388 . S
C168 H149 0.946 . S
C168 C167 1.388 . S
C168 C169 1.384 . S
C169 C168 1.384 . S
C169 C170 1.377 . S
C170 H150 0.953 . S
C170 C169 1.377 . S
C170 C171 1.369 . S
C171 H151 0.945 . S
C171 C166 1.385 . S
C171 C170 1.369 . S
C172 C164 1.457 . S
C172 C173 1.372 . S
C172 C177 1.364 . S
C173 H152 0.952 . S
C173 C172 1.372 . S
C173 C174 1.389 . S
C174 H153 0.949 . S
C174 C173 1.389 . S
C174 C175 1.387 . S
C175 C174 1.387 . S
C175 C176 1.372 . S
C176 H154 0.950 . S
C176 C175 1.372 . S
C176 C177 1.379 . S
C177 H155 0.948 . S
C177 C172 1.364 . S
C177 C176 1.379 . S
C178 C147 1.383 . S
C178 C165 1.479 . S
C178 C179 1.398 . S
C179 C144 1.382 . S
C179 H156 0.951 . S
C179 C178 1.398 . S
C180 C181 1.384 . S
C180 H193 0.947 . S
C180 C215 1.382 . S
C181 C180 1.384 . S
C181 C182 1.378 . S
C182 C181 1.378 . S
C182 C183 1.378 . S
C182 H194 0.952 . S
C183 C182 1.378 . S
C183 H195 0.950 . S
C183 C214 1.383 . S
H184 C203 0.947 . S
H185 C204 0.946 . S
H186 C206 0.953 . S
H187 C207 0.945 . S
H188 C209 0.952 . S
H189 C210 0.949 . S
H190 C212 0.950 . S
H191 C213 0.948 . S
H192 C215 0.951 . S
H193 C180 0.947 . S
H194 C182 0.952 . S
H195 C183 0.950 . S
N196 C199 1.382 . S
N196 C201 1.363 . S
N197 C199 1.371 . S
N197 C200 1.372 . S
N198 C200 1.361 . S
N198 C201 1.377 . S
C199 N196 1.382 . S
C199 N197 1.371 . S
C199 C202 1.480 . S
C200 N197 1.372 . S
C200 N198 1.361 . S
C200 C208 1.457 . S
C201 N196 1.363 . S
C201 N198 1.377 . S
C201 C214 1.479 . S
C202 C199 1.480 . S
C202 C203 1.383 . S
C202 C207 1.385 . S
C203 H184 0.947 . S
C203 C202 1.383 . S
C203 C204 1.388 . S
C204 H185 0.946 . S
C204 C203 1.388 . S
C204 C205 1.384 . S
C205 C204 1.384 . S
C205 C206 1.377 . S
C206 H186 0.953 . S
C206 C205 1.377 . S
C206 C207 1.369 . S
C207 H187 0.945 . S
C207 C202 1.385 . S
C207 C206 1.369 . S
C208 C200 1.457 . S
C208 C209 1.372 . S
C208 C213 1.364 . S
C209 H188 0.952 . S
C209 C208 1.372 . S
C209 C210 1.389 . S
C210 H189 0.949 . S
C210 C209 1.389 . S
C210 C211 1.387 . S
C211 C210 1.387 . S
C211 C212 1.372 . S
C212 H190 0.950 . S
C212 C211 1.372 . S
C212 C213 1.379 . S
C213 H191 0.948 . S
C213 C208 1.364 . S
C213 C212 1.379 . S
C214 C183 1.383 . S
C214 C201 1.479 . S
C214 C215 1.398 . S
C215 C180 1.382 . S
C215 H192 0.951 . S
C215 C214 1.398 . S
C216 C217 1.384 . S
C216 H229 0.947 . S
C216 C251 1.382 . S
C217 C216 1.384 . S
C217 C218 1.378 . S
C218 C217 1.378 . S
C218 C219 1.378 . S
C218 H230 0.952 . S
C219 C218 1.378 . S
C219 H231 0.950 . S
C219 C250 1.383 . S
H220 C239 0.947 . S
H221 C240 0.946 . S
H222 C242 0.953 . S
H223 C243 0.945 . S
H224 C245 0.952 . S
H225 C246 0.949 . S
H226 C248 0.950 . S
H227 C249 0.948 . S
H228 C251 0.951 . S
H229 C216 0.947 . S
H230 C218 0.952 . S
H231 C219 0.950 . S
N232 C235 1.382 . S
N232 C237 1.363 . S
N233 C235 1.371 . S
N233 C236 1.372 . S
N234 C236 1.361 . S
N234 C237 1.377 . S
C235 N232 1.382 . S
C235 N233 1.371 . S
C235 C238 1.480 . S
C236 N233 1.372 . S
C236 N234 1.361 . S
C236 C244 1.457 . S
C237 N232 1.363 . S
C237 N234 1.377 . S
C237 C250 1.479 . S
C238 C235 1.480 . S
C238 C239 1.383 . S
C238 C243 1.385 . S
C239 H220 0.947 . S
C239 C238 1.383 . S
C239 C240 1.388 . S
C240 H221 0.946 . S
C240 C239 1.388 . S
C240 C241 1.384 . S
C241 C240 1.384 . S
C241 C242 1.377 . S
C242 H222 0.953 . S
C242 C241 1.377 . S
C242 C243 1.369 . S
C243 H223 0.945 . S
C243 C238 1.385 . S
C243 C242 1.369 . S
C244 C236 1.457 . S
C244 C245 1.372 . S
C244 C249 1.364 . S
C245 H224 0.952 . S
C245 C244 1.372 . S
C245 C246 1.389 . S
C246 H225 0.949 . S
C246 C245 1.389 . S
C246 C247 1.387 . S
C247 C246 1.387 . S
C247 C248 1.372 . S
C248 H226 0.950 . S
C248 C247 1.372 . S
C248 C249 1.379 . S
C249 H227 0.948 . S
C249 C244 1.364 . S
C249 C248 1.379 . S
C250 C219 1.383 . S
C250 C237 1.479 . S
C250 C251 1.398 . S
C251 C216 1.382 . S
C251 H228 0.951 . S
C251 C250 1.398 . S
C252 C253 1.384 . S
C252 H265 0.947 . S
C252 C287 1.382 . S
C253 C252 1.384 . S
C253 C254 1.378 . S
C254 C253 1.378 . S
C254 C255 1.378 . S
C254 H266 0.952 . S
C255 C254 1.378 . S
C255 H267 0.950 . S
C255 C286 1.383 . S
H256 C275 0.947 . S
H257 C276 0.946 . S
H258 C278 0.953 . S
H259 C279 0.945 . S
H260 C281 0.952 . S
H261 C282 0.949 . S
H262 C284 0.950 . S
H263 C285 0.948 . S
H264 C287 0.951 . S
H265 C252 0.947 . S
H266 C254 0.952 . S
H267 C255 0.950 . S
N268 C271 1.382 . S
N268 C273 1.363 . S
N269 C271 1.371 . S
N269 C272 1.372 . S
N270 C272 1.361 . S
N270 C273 1.377 . S
C271 N268 1.382 . S
C271 N269 1.371 . S
C271 C274 1.480 . S
C272 N269 1.372 . S
C272 N270 1.361 . S
C272 C280 1.457 . S
C273 N268 1.363 . S
C273 N270 1.377 . S
C273 C286 1.479 . S
C274 C271 1.480 . S
C274 C275 1.383 . S
C274 C279 1.385 . S
C275 H256 0.947 . S
C275 C274 1.383 . S
C275 C276 1.388 . S
C276 H257 0.946 . S
C276 C275 1.388 . S
C276 C277 1.384 . S
C277 C276 1.384 . S
C277 C278 1.377 . S
C278 H258 0.953 . S
C278 C277 1.377 . S
C278 C279 1.369 . S
C279 H259 0.945 . S
C279 C274 1.385 . S
C279 C278 1.369 . S
C280 C272 1.457 . S
C280 C281 1.372 . S
C280 C285 1.364 . S
C281 H260 0.952 . S
C281 C280 1.372 . S
C281 C282 1.389 . S
C282 H261 0.949 . S
C282 C281 1.389 . S
C282 C283 1.387 . S
C283 C282 1.387 . S
C283 C284 1.372 . S
C284 H262 0.950 . S
C284 C283 1.372 . S
C284 C285 1.379 . S
C285 H263 0.948 . S
C285 C280 1.364 . S
C285 C284 1.379 . S
C286 C255 1.383 . S
C286 C273 1.479 . S
C286 C287 1.398 . S
C287 C252 1.382 . S
C287 H264 0.951 . S
C287 C286 1.398 . S
C288 O290 1.247 . S
C288 O292 1.258 . S
C289 O296 1.247 . S
C289 O297 1.258 . S
O290 C288 1.247 . S
O290 Zn291 2.028 1_655 S
Zn291 O290 2.028 1_455 S
Zn291 O295 2.035 . S
Zn291 O297 2.035 . S
Zn291 O298 2.028 1_455 S
O292 C288 1.258 . S
O292 Zn293 2.035 1_655 S
Zn293 O292 2.035 1_455 S
Zn293 O294 2.028 . S
Zn293 O296 2.028 . S
Zn293 O299 2.035 1_455 S
O294 Zn293 2.028 . S
O294 C300 1.247 . S
O295 Zn291 2.035 . S
O295 C300 1.258 . S
O296 C289 1.247 . S
O296 Zn293 2.028 . S
O297 C289 1.258 . S
O297 Zn291 2.035 . S
O298 Zn291 2.028 1_655 S
O298 C301 1.247 . S
O299 Zn293 2.035 1_655 S
O299 C301 1.258 . S
C300 O294 1.247 . S
C300 O295 1.258 . S
C301 O298 1.247 . S
C301 O299 1.258 . S
C302 O304 1.247 . S
C302 O306 1.258 . S
C303 O310 1.247 . S
C303 O311 1.258 . S
O304 C302 1.247 . S
O304 Zn305 2.028 1_655 S
Zn305 O304 2.028 1_455 S
Zn305 O309 2.035 . S
Zn305 O311 2.035 . S
Zn305 O312 2.028 1_455 S
O306 C302 1.258 . S
O306 Zn307 2.035 1_655 S
Zn307 O306 2.035 1_455 S
Zn307 O308 2.028 . S
Zn307 O310 2.028 . S
Zn307 O313 2.035 1_455 S
O308 Zn307 2.028 . S
O308 C314 1.247 . S
O309 Zn305 2.035 . S
O309 C314 1.258 . S
O310 C303 1.247 . S
O310 Zn307 2.028 . S
O311 C303 1.258 . S
O311 Zn305 2.035 . S
O312 Zn305 2.028 1_655 S
O312 C315 1.247 . S
O313 Zn307 2.035 1_655 S
O313 C315 1.258 . S
C314 O308 1.247 . S
C314 O309 1.258 . S
C315 O312 1.247 . S
C315 O313 1.258 . S
C316 O318 1.247 . S
C316 O320 1.258 . S
C317 O324 1.247 . S
C317 O325 1.258 . S
O318 C316 1.247 . S
O318 Zn319 2.028 1_565 S
Zn319 O318 2.028 1_545 S
Zn319 O323 2.035 . S
Zn319 O325 2.035 . S
Zn319 O326 2.028 1_545 S
O320 C316 1.258 . S
O320 Zn321 2.035 1_565 S
Zn321 O320 2.035 1_545 S
Zn321 O322 2.028 . S
Zn321 O324 2.028 . S
Zn321 O327 2.035 1_545 S
O322 Zn321 2.028 . S
O322 C328 1.247 . S
O323 Zn319 2.035 . S
O323 C328 1.258 . S
O324 C317 1.247 . S
O324 Zn321 2.028 . S
O325 C317 1.258 . S
O325 Zn319 2.035 . S
O326 Zn319 2.028 1_565 S
O326 C329 1.247 . S
O327 Zn321 2.035 1_565 S
O327 C329 1.258 . S
C328 O322 1.247 . S
C328 O323 1.258 . S
C329 O326 1.247 . S
C329 O327 1.258 . S
C330 O332 1.247 . S
C330 O334 1.258 . S
C331 O338 1.247 . S
C331 O339 1.258 . S
O332 C330 1.247 . S
O332 Zn333 2.028 . S
Zn333 O332 2.028 . S
Zn333 O337 2.035 . S
Zn333 O339 2.035 1_554 S
Zn333 O340 2.028 1_554 S
O334 C330 1.258 . S
O334 Zn335 2.035 . S
Zn335 O334 2.035 . S
Zn335 O336 2.028 . S
Zn335 O338 2.028 1_554 S
Zn335 O341 2.035 1_554 S
O336 Zn335 2.028 . S
O336 C342 1.247 . S
O337 Zn333 2.035 . S
O337 C342 1.258 . S
O338 C331 1.247 . S
O338 Zn335 2.028 1_556 S
O339 C331 1.258 . S
O339 Zn333 2.035 1_556 S
O340 Zn333 2.028 1_556 S
O340 C343 1.247 . S
O341 Zn335 2.035 1_556 S
O341 C343 1.258 . S
C342 O336 1.247 . S
C342 O337 1.258 . S
C343 O340 1.247 . S
C343 O341 1.258 . S
C344 O346 1.247 . S
C344 O348 1.258 . S
C345 O352 1.247 . S
C345 O353 1.258 . S
O346 C344 1.247 . S
O346 Zn347 2.028 1_565 S
Zn347 O346 2.028 1_545 S
Zn347 O351 2.035 . S
Zn347 O353 2.035 . S
Zn347 O354 2.028 1_545 S
O348 C344 1.258 . S
O348 Zn349 2.035 1_565 S
Zn349 O348 2.035 1_545 S
Zn349 O350 2.028 . S
Zn349 O352 2.028 . S
Zn349 O355 2.035 1_545 S
O350 Zn349 2.028 . S
O350 C356 1.247 . S
O351 Zn347 2.035 . S
O351 C356 1.258 . S
O352 C345 1.247 . S
O352 Zn349 2.028 . S
O353 C345 1.258 . S
O353 Zn347 2.035 . S
O354 Zn347 2.028 1_565 S
O354 C357 1.247 . S
O355 Zn349 2.035 1_565 S
O355 C357 1.258 . S
C356 O350 1.247 . S
C356 O351 1.258 . S
C357 O354 1.247 . S
C357 O355 1.258 . S
C358 O360 1.247 . S
C358 O362 1.258 . S
C359 O366 1.247 . S
C359 O367 1.258 . S
O360 C358 1.247 . S
O360 Zn361 2.036 . S
Zn361 O360 2.036 . S
Zn361 O365 2.043 . S
Zn361 O367 2.027 1_554 S
Zn361 O368 2.020 1_554 S
O362 C358 1.258 . S
O362 Zn363 2.031 1_554 S
Zn363 O362 2.031 1_556 S
Zn363 O364 2.024 1_556 S
Zn363 O366 2.032 . S
Zn363 O369 2.039 . S
O364 Zn363 2.024 1_554 S
O364 C370 1.247 . S
O365 Zn361 2.043 . S
O365 C370 1.258 . S
O366 C359 1.247 . S
O366 Zn363 2.032 . S
O367 C359 1.258 . S
O367 Zn361 2.027 1_556 S
O368 Zn361 2.020 1_556 S
O368 C371 1.247 . S
O369 Zn363 2.039 . S
O369 C371 1.258 . S
C370 O364 1.247 . S
C370 O365 1.258 . S
C371 O368 1.247 . S
C371 O369 1.258 . S
C300 C25 1.545 . S
C303 C37 1.539 . S
C301 C103 1.520 . S
C302 C139 1.548 . S
C317 C31 1.526 . S
C331 C67 1.507 . S
C97 C357 1.506 . S
C371 C133 1.494 . S
C316 C61 1.530 . S
C73 C330 1.512 . S
C356 C109 1.536 . S
C370 C1 1.501 . S
C169 C315 1.504 . S
C288 C211 1.505 . S
C241 C314 1.535 . S
C253 C289 1.510 . S
C344 C175 1.510 . S
C358 C205 1.494 . S
C328 C217 1.524 . S
C283 C342 1.515 . S
C345 C181 1.513 . S
C359 C247 1.510 . S
C329 C277 1.497 . S
C145 C343 1.508 . S
