# Generated by pormake.
# Topology eea, (3,6)-cn, num edge types: 1
# Building blocks:
#     Node 0, Type 0, BuildingBlock: KAKCAD_clean_linker_0, # of connection points: 3
#     Node 1, Type 0, BuildingBlock: KAKCAD_clean_linker_0, # of connection points: 3
#     Node 2, Type 0, BuildingBlock: KAKCAD_clean_linker_0, # of connection points: 3
#     Node 3, Type 0, BuildingBlock: KAKCAD_clean_linker_0, # of connection points: 3
#     Node 4, Type 0, BuildingBlock: KAKCAD_clean_linker_0, # of connection points: 3
#     Node 5, Type 0, BuildingBlock: KAKCAD_clean_linker_0, # of connection points: 3
#     Node 6, Type 0, BuildingBlock: KAKCAD_clean_linker_0, # of connection points: 3
#     Node 7, Type 0, BuildingBlock: KAKCAD_clean_linker_0, # of connection points: 3
#     Node 8, Type 0, BuildingBlock: KAKCAD_clean_linker_0, # of connection points: 3
#     Node 9, Type 0, BuildingBlock: KAKCAD_clean_linker_0, # of connection points: 3
#     Node 10, Type 0, BuildingBlock: KAKCAD_clean_linker_0, # of connection points: 3
#     Node 11, Type 0, BuildingBlock: KAKCAD_clean_linker_0, # of connection points: 3
#     Node 12, Type 0, BuildingBlock: KAKCAD_clean_linker_0, # of connection points: 3
#     Node 13, Type 0, BuildingBlock: KAKCAD_clean_linker_0, # of connection points: 3
#     Node 14, Type 0, BuildingBlock: KAKCAD_clean_linker_0, # of connection points: 3
#     Node 15, Type 0, BuildingBlock: KAKCAD_clean_linker_0, # of connection points: 3
#     Node 16, Type 0, BuildingBlock: KAKCAD_clean_linker_0, # of connection points: 3
#     Node 17, Type 0, BuildingBlock: KAKCAD_clean_linker_0, # of connection points: 3
#     Node 18, Type 1, BuildingBlock: LEVNOQ01_clean_sbu_1, # of connection points: 6
#     Node 19, Type 1, BuildingBlock: LEVNOQ01_clean_sbu_1, # of connection points: 6
#     Node 20, Type 1, BuildingBlock: LEVNOQ01_clean_sbu_1, # of connection points: 6
#     Node 21, Type 1, BuildingBlock: LEVNOQ01_clean_sbu_1, # of connection points: 6
#     Node 22, Type 1, BuildingBlock: LEVNOQ01_clean_sbu_1, # of connection points: 6
#     Node 23, Type 1, BuildingBlock: LEVNOQ01_clean_sbu_1, # of connection points: 6
#     Node 24, Type 1, BuildingBlock: LEVNOQ01_clean_sbu_1, # of connection points: 6
#     Node 25, Type 1, BuildingBlock: LEVNOQ01_clean_sbu_1, # of connection points: 6
#     Node 26, Type 1, BuildingBlock: LEVNOQ01_clean_sbu_1, # of connection points: 6
#     Edge 27, Type (0, 1), None
#     Edge 28, Type (0, 1), None
#     Edge 29, Type (0, 1), None
#     Edge 30, Type (0, 1), None
#     Edge 31, Type (0, 1), None
#     Edge 32, Type (0, 1), None
#     Edge 33, Type (0, 1), None
#     Edge 34, Type (0, 1), None
#     Edge 35, Type (0, 1), None
#     Edge 36, Type (0, 1), None
#     Edge 37, Type (0, 1), None
#     Edge 38, Type (0, 1), None
#     Edge 39, Type (0, 1), None
#     Edge 40, Type (0, 1), None
#     Edge 41, Type (0, 1), None
#     Edge 42, Type (0, 1), None
#     Edge 43, Type (0, 1), None
#     Edge 44, Type (0, 1), None
#     Edge 45, Type (0, 1), None
#     Edge 46, Type (0, 1), None
#     Edge 47, Type (0, 1), None
#     Edge 48, Type (0, 1), None
#     Edge 49, Type (0, 1), None
#     Edge 50, Type (0, 1), None
#     Edge 51, Type (0, 1), None
#     Edge 52, Type (0, 1), None
#     Edge 53, Type (0, 1), None
#     Edge 54, Type (0, 1), None
#     Edge 55, Type (0, 1), None
#     Edge 56, Type (0, 1), None
#     Edge 57, Type (0, 1), None
#     Edge 58, Type (0, 1), None
#     Edge 59, Type (0, 1), None
#     Edge 60, Type (0, 1), None
#     Edge 61, Type (0, 1), None
#     Edge 62, Type (0, 1), None
#     Edge 63, Type (0, 1), None
#     Edge 64, Type (0, 1), None
#     Edge 65, Type (0, 1), None
#     Edge 66, Type (0, 1), None
#     Edge 67, Type (0, 1), None
#     Edge 68, Type (0, 1), None
#     Edge 69, Type (0, 1), None
#     Edge 70, Type (0, 1), None
#     Edge 71, Type (0, 1), None
#     Edge 72, Type (0, 1), None
#     Edge 73, Type (0, 1), None
#     Edge 74, Type (0, 1), None
#     Edge 75, Type (0, 1), None
#     Edge 76, Type (0, 1), None
#     Edge 77, Type (0, 1), None
#     Edge 78, Type (0, 1), None
#     Edge 79, Type (0, 1), None
#     Edge 80, Type (0, 1), None
# Relax obj value: 0.095
# Max RMSD: 0.180
# Mean RMSD: 0.091
data_MOF--net-eea--node1-LEVNOQ01_clean_sbu_1--node2-KAKCAD_clean_linker_0--edge1-none
_symmetry_space_group_name_H-M    P1
_symmetry_Int_Tables_number       1
_symmetry_cell_setting            triclinic
loop_
_symmetry_equiv_pos_as_xyz
'x, y, z'
_cell_length_a     36.53674
_cell_length_b     36.433679
_cell_length_c     37.484707
_cell_angle_alpha  90.185839
_cell_angle_beta   90.103262
_cell_angle_gamma 119.87969
loop_
_atom_site_label
_atom_site_type_symbol
_atom_site_fract_x
_atom_site_fract_y
_atom_site_fract_z
_atom_type_partial_charge
C0 C 0.27276 0.11357 0.54476 0.0
C1 C 0.31212 0.11613 0.55011 0.0
C2 C 0.25985 0.11712 0.51069 0.0
C3 C 0.28551 0.12213 0.48143 0.0
C4 C 0.32373 0.12243 0.48625 0.0
C5 C 0.33725 0.11996 0.52051 0.0
C6 C 0.26925 0.1206 0.44556 0.0
C7 C 0.26248 0.1529 0.43261 0.0
C8 C 0.24458 0.14871 0.39866 0.0
C9 C 0.23255 0.11183 0.37867 0.0
C10 C 0.23722 0.07875 0.39244 0.0
C11 C 0.25656 0.08383 0.4256 0.0
C12 C 0.21989 0.03817 0.37308 0.0
C13 C 0.18172 0.02234 0.35407 0.0
C14 C 0.24126 0.01502 0.37335 0.0
C15 C 0.22544 0.97755 0.35392 0.0
C16 C 0.18881 0.96353 0.33337 0.0
C17 C 0.23619 0.18104 0.38342 0.0
C18 C 0.20968 0.19304 0.40084 0.0
C19 C 0.24877 0.19414 0.3483 0.0
C20 C 0.23256 0.21582 0.32982 0.0
C21 C 0.20382 0.22552 0.34617 0.0
C22 C 0.19373 0.2155 0.3823 0.0
C23 C 0.16673 0.98564 0.33377 0.0
H24 H 0.2528 0.11109 0.56703 0.0
H25 H 0.22965 0.11553 0.5071 0.0
H26 H 0.34322 0.12506 0.46356 0.0
H27 H 0.36783 0.12238 0.52399 0.0
H28 H 0.27127 0.18093 0.44862 0.0
H29 H 0.25976 0.05824 0.437 0.0
H30 H 0.21844 0.10851 0.35253 0.0
H31 H 0.16383 0.03872 0.35421 0.0
H32 H 0.271 0.02663 0.38731 0.0
H33 H 0.2434 0.96122 0.35291 0.0
H34 H 0.19944 0.18299 0.42794 0.0
H35 H 0.26954 0.18562 0.33449 0.0
H36 H 0.13869 0.97525 0.31751 0.0
H37 H 0.17227 0.22339 0.39567 0.0
H38 H 0.24216 0.22438 0.30236 0.0
C39 C 0.79945 0.14981 0.51225 0.0
C40 C 0.80161 0.12653 0.5414 0.0
C41 C 0.81215 0.14502 0.47848 0.0
C42 C 0.82588 0.11592 0.47292 0.0
C43 C 0.82486 0.09007 0.50104 0.0
C44 C 0.8132 0.09565 0.53527 0.0
C45 C 0.84308 0.11404 0.43811 0.0
C46 C 0.8797 0.14914 0.42533 0.0
C47 C 0.89718 0.14717 0.39247 0.0
C48 C 0.87668 0.10963 0.37221 0.0
C49 C 0.84006 0.07429 0.38519 0.0
C50 C 0.82341 0.07689 0.41811 0.0
C51 C 0.81842 0.0344 0.36474 0.0
C52 C 0.81064 0.0348 0.32816 0.0
C53 C 0.80228 -0.00453 0.38249 0.0
C54 C 0.77648 0.95768 0.36454 0.0
C55 C 0.76679 0.9582 0.32843 0.0
C56 C 0.93849 0.18309 0.38123 0.0
C57 C 0.94883 0.22498 0.38885 0.0
C58 C 0.96937 0.17563 0.36595 0.0
C59 C 0.01026 0.20909 0.36025 0.0
C60 C 0.02112 0.25042 0.37027 0.0
C61 C 0.98982 0.25823 0.38379 0.0
C62 C 0.78511 -0.00305 0.3101 0.0
H63 H 0.79063 0.17391 0.51579 0.0
H64 H 0.81235 0.16484 0.4569 0.0
H65 H 0.83512 0.06714 0.49689 0.0
H66 H 0.81509 0.07726 0.55708 0.0
H67 H 0.89545 0.17727 0.44191 0.0
H68 H 0.79466 0.05017 0.42809 0.0
H69 H 0.88957 0.10757 0.34676 0.0
H70 H 0.82253 0.06438 0.31391 0.0
H71 H 0.80862 -0.00569 0.41059 0.0
H72 H 0.76329 0.92825 0.3792 0.0
H73 H 0.92552 0.23202 0.39967 0.0
H74 H 0.96266 0.14377 0.35999 0.0
H75 H 0.77833 -0.0017 0.28214 0.0
H76 H -0.00286 0.29003 0.39091 0.0
H77 H 0.03381 0.20232 0.34956 0.0
C78 C 0.83716 0.69541 0.53801 0.0
C79 C 0.8025 0.65519 0.54537 0.0
C80 C 0.85114 0.70704 0.50323 0.0
C81 C 0.83023 0.67928 0.47486 0.0
C82 C 0.79421 0.63997 0.48164 0.0
C83 C 0.78083 0.62766 0.51681 0.0
C84 C 0.84461 0.6938 0.43827 0.0
C85 C 0.8866 0.70814 0.42866 0.0
C86 C 0.90362 0.73204 0.39743 0.0
C87 C 0.87762 0.74101 0.37568 0.0
C88 C 0.83527 0.72586 0.38497 0.0
C89 C 0.81881 0.70141 0.41577 0.0
C90 C 0.80967 0.74167 0.36769 0.0
C91 C 0.8234 0.78521 0.36918 0.0
C92 C 0.76746 0.71289 0.359 0.0
C93 C 0.73846 0.72688 0.35575 0.0
C94 C 0.75146 0.76976 0.36073 0.0
C95 C 0.94927 0.75042 0.38952 0.0
C96 C 0.97902 0.76616 0.41746 0.0
C97 C 0.96352 0.75186 0.35443 0.0
C98 C 0.00642 0.76725 0.3477 0.0
C99 C 0.03565 0.78107 0.376 0.0
C100 C 0.02159 0.78096 0.41082 0.0
C101 C 0.79426 0.79925 0.36574 0.0
H102 H 0.85503 0.71733 0.55928 0.0
H103 H 0.87838 0.73794 0.49844 0.0
H104 H 0.77716 0.61854 0.45986 0.0
H105 H 0.75429 0.59641 0.52175 0.0
H106 H 0.90634 0.70194 0.4464 0.0
H107 H 0.787 0.69211 0.42431 0.0
H108 H 0.89066 0.76139 0.35269 0.0
H109 H 0.85572 0.80785 0.37635 0.0
H110 H 0.75627 0.67921 0.35792 0.0
H111 H 0.70542 0.70389 0.35148 0.0
H112 H 0.96942 0.76686 0.44466 0.0
H113 H 0.9414 0.73992 0.33234 0.0
H114 H 0.8046 0.83252 0.36941 0.0
H115 H 0.0435 0.79198 0.4331 0.0
H116 H 0.01642 0.7668 0.32059 0.0
C117 C 0.18778 0.30541 0.4657 0.0
C118 C 0.19028 0.34442 0.4587 0.0
C119 C 0.1798 0.28909 0.50026 0.0
C120 C 0.1737 0.31127 0.52823 0.0
C121 C 0.17894 0.35143 0.52178 0.0
C122 C 0.18771 0.36812 0.48741 0.0
C123 C 0.15794 0.29053 0.56301 0.0
C124 C 0.17756 0.27088 0.57983 0.0
C125 C 0.15883 0.2445 0.60922 0.0
C126 C 0.12098 0.2394 0.62315 0.0
C127 C 0.10053 0.25898 0.60641 0.0
C128 C 0.11978 0.28495 0.57653 0.0
C129 C 0.05677 0.24817 0.61635 0.0
C130 C 0.02683 0.20676 0.62685 0.0
C131 C 0.04324 0.27787 0.61145 0.0
C132 C 0.00059 0.26566 0.61403 0.0
C133 C 0.97072 0.22394 0.62289 0.0
C134 C 0.17668 0.21822 0.62108 0.0
C135 C 0.18199 0.19304 0.59553 0.0
C136 C 0.19454 0.22312 0.65515 0.0
C137 C 0.22078 0.20614 0.66234 0.0
C138 C 0.22946 0.18475 0.63529 0.0
C139 C 0.20843 0.17675 0.60247 0.0
C140 C 0.98425 0.19496 0.63056 0.0
H141 H 0.18961 0.28643 0.44422 0.0
H142 H 0.17575 0.2579 0.50467 0.0
H143 H 0.17467 0.36915 0.54305 0.0
H144 H 0.1895 0.39835 0.48303 0.0
H145 H 0.20655 0.27433 0.5688 0.0
H146 H 0.10355 0.29818 0.56181 0.0
H147 H 0.10659 0.21853 0.64565 0.0
H148 H 0.03568 0.18276 0.63051 0.0
H149 H 0.06541 0.31036 0.60451 0.0
H150 H 0.99088 0.28885 0.60897 0.0
H151 H 0.16809 0.18863 0.56918 0.0
H152 H 0.19083 0.24259 0.6751 0.0
H153 H 0.96164 0.16266 0.63775 0.0
H154 H 0.21447 0.16006 0.58136 0.0
H155 H 0.23695 0.21277 0.68781 0.0
C156 C 0.63103 0.82837 0.48524 0.0
C157 C 0.65808 0.84929 0.45635 0.0
C158 C 0.64679 0.83579 0.51993 0.0
C159 C 0.68924 0.86517 0.52609 0.0
C160 C 0.71498 0.88969 0.49799 0.0
C161 C 0.69952 0.88169 0.46314 0.0
C162 C 0.70843 0.86705 0.56068 0.0
C163 C 0.71986 0.83658 0.56919 0.0
C164 C 0.74557 0.84274 0.59891 0.0
C165 C 0.75758 0.878 0.62098 0.0
C166 C 0.7464 0.90843 0.61245 0.0
C167 C 0.72148 0.90271 0.58231 0.0
C168 C 0.76522 0.9483 0.6327 0.0
C169 C 0.76682 0.94788 0.67006 0.0
C170 C 0.78433 0.98707 0.61458 0.0
C171 C 0.80406 0.02496 0.63361 0.0
C172 C 0.80501 0.0246 0.67101 0.0
C173 C 0.7631 0.81487 0.60632 0.0
C174 C 0.73633 0.77153 0.61216 0.0
C175 C 0.80656 0.83313 0.61336 0.0
C176 C 0.82218 0.8098 0.63031 0.0
C177 C 0.79464 0.76774 0.63952 0.0
C178 C 0.75215 0.748 0.62873 0.0
C179 C 0.78674 0.98574 0.68907 0.0
H180 H 0.59869 0.80358 0.48091 0.0
H181 H 0.62658 0.81703 0.54158 0.0
H182 H 0.74787 0.91281 0.50271 0.0
H183 H 0.72087 0.89854 0.44147 0.0
H184 H 0.71125 0.80988 0.55148 0.0
H185 H 0.71352 0.92665 0.57488 0.0
H186 H 0.77776 0.88293 0.64387 0.0
H187 H 0.75224 0.91829 0.68456 0.0
H188 H 0.78437 0.98812 0.5857 0.0
H189 H 0.81786 0.05447 0.61908 0.0
H190 H 0.70273 0.75692 0.60705 0.0
H191 H 0.82781 0.86649 0.60854 0.0
H192 H 0.78647 0.98445 0.71795 0.0
H193 H 0.73033 0.71565 0.63646 0.0
H194 H 0.85482 0.8256 0.63902 0.0
C195 C 0.15669 0.86897 0.45364 0.0
C196 C 0.19488 0.86968 0.44662 0.0
C197 C 0.14137 0.86381 0.48835 0.0
C198 C 0.16438 0.8604 0.51682 0.0
C199 C 0.20386 0.864 0.51032 0.0
C200 C 0.21883 0.86822 0.47543 0.0
C201 C 0.14816 0.856 0.55343 0.0
C202 C 0.1068 0.82456 0.56192 0.0
C203 C 0.08917 0.82484 0.59529 0.0
C204 C 0.11373 0.85707 0.61984 0.0
C205 C 0.1551 0.88782 0.61162 0.0
C206 C 0.17252 0.8867 0.5788 0.0
C207 C 0.1786 0.92436 0.63522 0.0
C208 C 0.16135 0.95003 0.64432 0.0
C209 C 0.21969 0.93589 0.64599 0.0
C210 C 0.24349 0.97301 0.66538 0.0
C211 C 0.22665 -0.00084 0.67349 0.0
C212 C 0.04439 0.79399 0.60374 0.0
C213 C 0.01326 0.77953 0.57691 0.0
C214 C 0.032 0.78035 0.63908 0.0
C215 C 0.98955 0.75373 0.64742 0.0
C216 C 0.95886 0.73925 0.62046 0.0
C217 C 0.97103 0.75203 0.58513 0.0
C218 C 0.18552 0.98762 0.66318 0.0
H219 H 0.1372 0.86971 0.43217 0.0
H220 H 0.11134 0.86222 0.49295 0.0
H221 H 0.22242 0.86218 0.53209 0.0
H222 H 0.24817 0.86837 0.47081 0.0
H223 H 0.08838 0.80049 0.54221 0.0
H224 H 0.20396 0.91177 0.57192 0.0
H225 H 0.10033 0.85949 0.64491 0.0
H226 H 0.12979 0.94171 0.63578 0.0
H227 H 0.23344 0.91647 0.63902 0.0
H228 H 0.27536 0.98181 0.67341 0.0
H229 H 0.02123 0.78992 0.54957 0.0
H230 H 0.05509 0.78995 0.66036 0.0
H231 H 0.17229 0.00764 0.66958 0.0
H232 H 0.94775 0.74098 0.56387 0.0
H233 H 0.98092 0.74335 0.67472 0.0
C234 C 0.93939 0.44691 0.87806 0.0
C235 C 0.97874 0.44943 0.88341 0.0
C236 C 0.92648 0.45044 0.84399 0.0
C237 C 0.95212 0.45541 0.81473 0.0
C238 C 0.99033 0.45568 0.81955 0.0
C239 C 0.00386 0.45323 0.8538 0.0
C240 C 0.93587 0.45389 0.77886 0.0
C241 C 0.9291 0.48619 0.76591 0.0
C242 C 0.91122 0.48202 0.73195 0.0
C243 C 0.8992 0.44515 0.71195 0.0
C244 C 0.90386 0.41206 0.72572 0.0
C245 C 0.92319 0.41712 0.75889 0.0
C246 C 0.88654 0.37149 0.70635 0.0
C247 C 0.84837 0.35566 0.68733 0.0
C248 C 0.9079 0.34833 0.70662 0.0
C249 C 0.89208 0.31086 0.6872 0.0
C250 C 0.85546 0.29684 0.66664 0.0
C251 C 0.90284 0.51436 0.71672 0.0
C252 C 0.87632 0.52635 0.73413 0.0
C253 C 0.91543 0.52746 0.6816 0.0
C254 C 0.89923 0.54915 0.66312 0.0
C255 C 0.87049 0.55885 0.67947 0.0
C256 C 0.86038 0.54882 0.7156 0.0
C257 C 0.83339 0.31897 0.66702 0.0
H258 H 0.91945 0.44445 0.90033 0.0
H259 H 0.89629 0.44888 0.8404 0.0
H260 H 0.00981 0.45828 0.79686 0.0
H261 H 0.03443 0.45563 0.85729 0.0
H262 H 0.93789 0.51422 0.78193 0.0
H263 H 0.92638 0.39153 0.77028 0.0
H264 H 0.8851 0.44184 0.68581 0.0
H265 H 0.83049 0.37205 0.68746 0.0
H266 H 0.93764 0.35993 0.7206 0.0
H267 H 0.91004 0.29452 0.6862 0.0
H268 H 0.86608 0.51629 0.76123 0.0
H269 H 0.93621 0.51895 0.66779 0.0
H270 H 0.80535 0.30858 0.65076 0.0
H271 H 0.83893 0.55672 0.72896 0.0
H272 H 0.90884 0.55772 0.63566 0.0
C273 C 0.46623 0.48324 0.84564 0.0
C274 C 0.46831 0.45988 0.87476 0.0
C275 C 0.47894 0.47848 0.81187 0.0
C276 C 0.49262 0.44935 0.80627 0.0
C277 C 0.49154 0.42344 0.83436 0.0
C278 C 0.47987 0.42898 0.86859 0.0
C279 C 0.50979 0.44747 0.77144 0.0
C280 C 0.54641 0.48257 0.75865 0.0
C281 C 0.56388 0.4806 0.72579 0.0
C282 C 0.54337 0.44305 0.70554 0.0
C283 C 0.50675 0.40771 0.71853 0.0
C284 C 0.49012 0.41033 0.75144 0.0
C285 C 0.48512 0.36781 0.69809 0.0
C286 C 0.47733 0.36819 0.66151 0.0
C287 C 0.46899 0.32889 0.71586 0.0
C288 C 0.44319 0.2911 0.69792 0.0
C289 C 0.43349 0.29159 0.6618 0.0
C290 C 0.60519 0.5165 0.71455 0.0
C291 C 0.61555 0.5584 0.72217 0.0
C292 C 0.63606 0.50903 0.69926 0.0
C293 C 0.67696 0.54248 0.69356 0.0
C294 C 0.68783 0.58382 0.70358 0.0
C295 C 0.65654 0.59164 0.71711 0.0
C296 C 0.45181 0.33033 0.64346 0.0
H297 H 0.45744 0.50736 0.84921 0.0
H298 H 0.47917 0.49835 0.7903 0.0
H299 H 0.50176 0.40048 0.83017 0.0
H300 H 0.48171 0.41053 0.89038 0.0
H301 H 0.56217 0.5107 0.77524 0.0
H302 H 0.46137 0.3836 0.76144 0.0
H303 H 0.55626 0.44099 0.68009 0.0
H304 H 0.48922 0.39776 0.64724 0.0
H305 H 0.47533 0.32775 0.74396 0.0
H306 H 0.43001 0.26168 0.71259 0.0
H307 H 0.59225 0.56545 0.73299 0.0
H308 H 0.62934 0.47717 0.6933 0.0
H309 H 0.44502 0.33167 0.6155 0.0
H310 H 0.66388 0.62344 0.72423 0.0
H311 H 0.7005 0.5357 0.68286 0.0
C312 C 0.50383 0.02865 0.87135 0.0
C313 C 0.46919 0.98842 0.87872 0.0
C314 C 0.5178 0.04027 0.83657 0.0
C315 C 0.49689 0.0125 0.80821 0.0
C316 C 0.46089 0.97318 0.815 0.0
C317 C 0.44752 0.96088 0.85017 0.0
C318 C 0.51125 0.02702 0.77161 0.0
C319 C 0.55325 0.04138 0.762 0.0
C320 C 0.57025 0.06529 0.73077 0.0
C321 C 0.54423 0.07424 0.70903 0.0
C322 C 0.50189 0.05908 0.71832 0.0
C323 C 0.48544 0.03462 0.74912 0.0
C324 C 0.47626 0.07488 0.70106 0.0
C325 C 0.49003 0.11843 0.70246 0.0
C326 C 0.43403 0.0461 0.69244 0.0
C327 C 0.40504 0.06011 0.6892 0.0
C328 C 0.41809 0.10301 0.6941 0.0
C329 C 0.6159 0.08369 0.72286 0.0
C330 C 0.64565 0.09945 0.75079 0.0
C331 C 0.63015 0.08513 0.68776 0.0
C332 C 0.67306 0.10053 0.68104 0.0
C333 C 0.70229 0.11437 0.70933 0.0
C334 C 0.68822 0.11426 0.74415 0.0
C335 C 0.4609 0.13249 0.69902 0.0
H336 H 0.52169 0.05058 0.89262 0.0
H337 H 0.54502 0.07118 0.83177 0.0
H338 H 0.44384 0.95174 0.79322 0.0
H339 H 0.42099 0.92962 0.85512 0.0
H340 H 0.573 0.03519 0.77973 0.0
H341 H 0.45363 0.02531 0.75768 0.0
H342 H 0.55726 0.09463 0.68603 0.0
H343 H 0.52237 0.14107 0.70958 0.0
H344 H 0.42281 0.01241 0.69141 0.0
H345 H 0.37199 0.03712 0.68499 0.0
H346 H 0.63605 0.10015 0.77799 0.0
H347 H 0.60804 0.07318 0.66567 0.0
H348 H 0.47127 0.16578 0.70262 0.0
H349 H 0.71013 0.12529 0.76643 0.0
H350 H 0.68307 0.10009 0.65393 0.0
C351 C 0.85448 0.63876 0.799 0.0
C352 C 0.85698 0.67777 0.792 0.0
C353 C 0.84648 0.62243 0.83356 0.0
C354 C 0.84037 0.64462 0.86153 0.0
C355 C 0.84562 0.68477 0.85507 0.0
C356 C 0.85439 0.70147 0.82071 0.0
C357 C 0.82461 0.62387 0.8963 0.0
C358 C 0.84423 0.60424 0.91314 0.0
C359 C 0.82551 0.57786 0.94252 0.0
C360 C 0.78764 0.57276 0.95645 0.0
C361 C 0.76719 0.59233 0.9397 0.0
C362 C 0.78644 0.61829 0.90981 0.0
C363 C 0.72343 0.58151 0.94964 0.0
C364 C 0.69349 0.54011 0.96016 0.0
C365 C 0.70988 0.6112 0.9447 0.0
C366 C 0.66723 0.59898 0.9473 0.0
C367 C 0.63737 0.55727 0.95619 0.0
C368 C 0.84336 0.55159 0.95439 0.0
C369 C 0.84865 0.5264 0.92885 0.0
C370 C 0.86123 0.5565 0.98846 0.0
C371 C 0.88747 0.53952 -0.00436 0.0
C372 C 0.89614 0.51812 0.9686 0.0
C373 C 0.8751 0.51011 0.93579 0.0
C374 C 0.65092 0.5283 0.96388 0.0
H375 H 0.85631 0.61979 0.77752 0.0
H376 H 0.84243 0.59125 0.83797 0.0
H377 H 0.84134 0.70249 0.87634 0.0
H378 H 0.85619 0.7317 0.81632 0.0
H379 H 0.87323 0.60769 0.90211 0.0
H380 H 0.77021 0.63151 0.89508 0.0
H381 H 0.77327 0.5519 0.97895 0.0
H382 H 0.70236 0.51612 0.96385 0.0
H383 H 0.73204 0.64368 0.93774 0.0
H384 H 0.65751 0.62216 0.94221 0.0
H385 H 0.83475 0.52198 0.9025 0.0
H386 H 0.85754 0.57599 0.0084 0.0
H387 H 0.62832 0.49601 0.9711 0.0
H388 H 0.88112 0.49341 0.91468 0.0
H389 H 0.90366 0.54617 0.02112 0.0
C390 C 0.29766 0.16159 0.81858 0.0
C391 C 0.3247 0.18258 0.7897 0.0
C392 C 0.31341 0.16901 0.85327 0.0
C393 C 0.35583 0.19847 0.85945 0.0
C394 C 0.38155 0.22306 0.83136 0.0
C395 C 0.36611 0.21505 0.79652 0.0
C396 C 0.37503 0.20036 0.89404 0.0
C397 C 0.38642 0.16985 0.90256 0.0
C398 C 0.41215 0.17601 0.93226 0.0
C399 C 0.42422 0.21129 0.95431 0.0
C400 C 0.41309 0.24175 0.94577 0.0
C401 C 0.38814 0.23604 0.91565 0.0
C402 C 0.43193 0.28162 0.96603 0.0
C403 C 0.43357 0.28121 0.00338 0.0
C404 C 0.45103 0.3204 0.94791 0.0
C405 C 0.47078 0.35828 0.96694 0.0
C406 C 0.47175 0.35793 0.00433 0.0
C407 C 0.42963 0.1481 0.93967 0.0
C408 C 0.40282 0.10479 0.9456 0.0
C409 C 0.47311 0.16632 0.94664 0.0
C410 C 0.48871 0.14298 0.96359 0.0
C411 C 0.46115 0.10095 0.97288 0.0
C412 C 0.41863 0.08125 0.96217 0.0
C413 C 0.4535 0.31907 0.0224 0.0
H414 H 0.26534 0.13674 0.81424 0.0
H415 H 0.29321 0.1502 0.87492 0.0
H416 H 0.41442 0.24623 0.8361 0.0
H417 H 0.38745 0.23196 0.77486 0.0
H418 H 0.37775 0.14313 0.88486 0.0
H419 H 0.38022 0.26 0.90822 0.0
H420 H 0.44442 0.21622 0.97719 0.0
H421 H 0.41899 0.25161 0.01788 0.0
H422 H 0.45106 0.32145 0.91903 0.0
H423 H 0.48456 0.3878 0.9524 0.0
H424 H 0.36922 0.09021 0.94054 0.0
H425 H 0.49438 0.19966 0.94175 0.0
H426 H 0.45325 0.31777 0.05127 0.0
H427 H 0.39679 0.04892 0.96996 0.0
H428 H 0.52138 0.15875 0.97224 0.0
C429 C 0.82332 0.20231 0.78697 0.0
C430 C 0.86151 0.20303 0.77995 0.0
C431 C 0.808 0.19714 0.82168 0.0
C432 C 0.83102 0.19375 0.85015 0.0
C433 C 0.87051 0.19738 0.84365 0.0
C434 C 0.88548 0.2016 0.80876 0.0
C435 C 0.8148 0.18935 0.88676 0.0
C436 C 0.77344 0.15791 0.89525 0.0
C437 C 0.75582 0.15818 0.92863 0.0
C438 C 0.78038 0.19041 0.95318 0.0
C439 C 0.82175 0.22117 0.94495 0.0
C440 C 0.83917 0.22005 0.91213 0.0
C441 C 0.84525 0.2577 0.96855 0.0
C442 C 0.82801 0.28337 0.97766 0.0
C443 C 0.88634 0.26923 0.97933 0.0
C444 C 0.91015 0.30635 -0.00129 0.0
C445 C 0.89331 0.3325 0.00682 0.0
C446 C 0.71104 0.12732 0.93709 0.0
C447 C 0.67991 0.11287 0.91026 0.0
C448 C 0.69867 0.11369 0.97243 0.0
C449 C 0.65622 0.08706 0.98078 0.0
C450 C 0.62552 0.07259 0.95382 0.0
C451 C 0.63768 0.08536 0.9185 0.0
C452 C 0.85218 0.32096 -0.00348 0.0
H453 H 0.80381 0.20303 0.7655 0.0
H454 H 0.77796 0.19553 0.82627 0.0
H455 H 0.88908 0.19556 0.86542 0.0
H456 H 0.91483 0.20176 0.80414 0.0
H457 H 0.75502 0.13384 0.87555 0.0
H458 H 0.8706 0.24512 0.90525 0.0
H459 H 0.76699 0.19283 0.97825 0.0
H460 H 0.79645 0.27505 0.96912 0.0
H461 H 0.90008 0.24981 0.97234 0.0
H462 H 0.94202 0.31515 0.00673 0.0
H463 H 0.68787 0.12326 0.88293 0.0
H464 H 0.72177 0.12329 -0.0063 0.0
H465 H 0.83895 0.34098 0.00291 0.0
H466 H 0.61439 0.07431 0.89724 0.0
H467 H 0.6476 0.07668 0.00808 0.0
C468 C 0.606 0.78011 0.21143 0.0
C469 C 0.64535 0.78264 0.21678 0.0
C470 C 0.5931 0.78364 0.17735 0.0
C471 C 0.61874 0.78861 0.14809 0.0
C472 C 0.65695 0.78887 0.15292 0.0
C473 C 0.67047 0.78642 0.18718 0.0
C474 C 0.60252 0.78713 0.11222 0.0
C475 C 0.5958 0.81946 0.09928 0.0
C476 C 0.57797 0.81534 0.06531 0.0
C477 C 0.56596 0.7785 0.04528 0.0
C478 C 0.57056 0.74537 0.05904 0.0
C479 C 0.58984 0.75038 0.09222 0.0
C480 C 0.55323 0.70481 0.03965 0.0
C481 C 0.51511 0.68905 0.02056 0.0
C482 C 0.57451 0.68158 0.03997 0.0
C483 C 0.55866 0.6441 0.02056 0.0
C484 C 0.52209 0.63014 -5e-05 0.0
C485 C 0.5696 0.84771 0.05011 0.0
C486 C 0.54305 0.85965 0.06752 0.0
C487 C 0.58225 0.86088 0.01501 0.0
C488 C 0.56606 0.88258 -0.00346 0.0
C489 C 0.53727 0.89222 0.01288 0.0
C490 C 0.52711 0.88213 0.04899 0.0
C491 C 0.5001 0.65236 0.00026 0.0
H492 H 0.58605 0.77767 0.23369 0.0
H493 H 0.56291 0.78209 0.17375 0.0
H494 H 0.67643 0.79146 0.13024 0.0
H495 H 0.70103 0.78882 0.19067 0.0
H496 H 0.60458 0.84747 0.11532 0.0
H497 H 0.59299 0.72476 0.10361 0.0
H498 H 0.5519 0.77524 0.01913 0.0
H499 H 0.49728 0.7055 0.02064 0.0
H500 H 0.60421 0.69312 0.05399 0.0
H501 H 0.57656 0.62769 0.01961 0.0
H502 H 0.53276 0.84954 0.0946 0.0
H503 H 0.60306 0.85241 0.00121 0.0
H504 H 0.4721 0.64202 0.98395 0.0
H505 H 0.50562 0.88998 0.06235 0.0
H506 H 0.5757 0.8912 0.9691 0.0
C507 C 0.13282 0.81658 0.1789 0.0
C508 C 0.13496 0.79328 0.20805 0.0
C509 C 0.14551 0.81178 0.14514 0.0
C510 C 0.15922 0.78267 0.13957 0.0
C511 C 0.15818 0.7568 0.16768 0.0
C512 C 0.14652 0.76238 0.20191 0.0
C513 C 0.17641 0.78078 0.10475 0.0
C514 C 0.21304 0.81587 0.09197 0.0
C515 C 0.23054 0.81389 0.05913 0.0
C516 C 0.21003 0.77634 0.03888 0.0
C517 C 0.1734 0.74101 0.05186 0.0
C518 C 0.15675 0.74363 0.08476 0.0
C519 C 0.15177 0.70111 0.03142 0.0
C520 C 0.14402 0.7015 -0.00518 0.0
C521 C 0.13562 0.66219 0.04918 0.0
C522 C 0.10984 0.6244 0.03123 0.0
C523 C 0.10017 0.6249 -0.00489 0.0
C524 C 0.27186 0.84978 0.0479 0.0
C525 C 0.28223 0.89168 0.05551 0.0
C526 C 0.30273 0.84229 0.03263 0.0
C527 C 0.34363 0.87573 0.02693 0.0
C528 C 0.35451 0.91707 0.03694 0.0
C529 C 0.32323 0.9249 0.05045 0.0
C530 C 0.11851 0.66364 0.97676 0.0
H531 H 0.12402 0.84069 0.18245 0.0
H532 H 0.14572 0.83162 0.12355 0.0
H533 H 0.16842 0.73386 0.16352 0.0
H534 H 0.1484 0.74398 0.22372 0.0
H535 H 0.2288 0.844 0.10856 0.0
H536 H 0.12798 0.71691 0.09474 0.0
H537 H 0.22293 0.77427 0.01344 0.0
H538 H 0.15592 0.73107 0.98056 0.0
H539 H 0.14193 0.66104 0.07728 0.0
H540 H 0.09663 0.59498 0.04589 0.0
H541 H 0.25894 0.89874 0.06632 0.0
H542 H 0.296 0.81042 0.02668 0.0
H543 H 0.11175 0.66499 0.9488 0.0
H544 H 0.33057 0.95672 0.05756 0.0
H545 H 0.36717 0.86894 0.01624 0.0
C546 C 0.17046 0.36205 0.20471 0.0
C547 C 0.13581 0.32183 0.21207 0.0
C548 C 0.18445 0.37367 0.16993 0.0
C549 C 0.16353 0.3459 0.14156 0.0
C550 C 0.12752 0.3066 0.14835 0.0
C551 C 0.11414 0.2943 0.18352 0.0
C552 C 0.17792 0.36042 0.10497 0.0
C553 C 0.21991 0.37475 0.09536 0.0
C554 C 0.23692 0.39863 0.06412 0.0
C555 C 0.21092 0.40759 0.04237 0.0
C556 C 0.16858 0.39245 0.05165 0.0
C557 C 0.15212 0.36802 0.08247 0.0
C558 C 0.14296 0.40825 0.03436 0.0
C559 C 0.15672 0.45179 0.03577 0.0
C560 C 0.10074 0.37946 0.02573 0.0
C561 C 0.07174 0.39345 0.02247 0.0
C562 C 0.08477 0.43636 0.02738 0.0
C563 C 0.28257 0.417 0.05621 0.0
C564 C 0.31232 0.43274 0.08414 0.0
C565 C 0.29682 0.41841 0.02112 0.0
C566 C 0.33972 0.43379 0.01439 0.0
C567 C 0.36895 0.44762 0.04268 0.0
C568 C 0.35489 0.44752 0.0775 0.0
C569 C 0.12758 0.46584 0.03232 0.0
H570 H 0.18833 0.38397 0.22598 0.0
H571 H 0.21169 0.40456 0.16514 0.0
H572 H 0.11047 0.28517 0.12657 0.0
H573 H 0.08759 0.26304 0.18846 0.0
H574 H 0.23965 0.36855 0.1131 0.0
H575 H 0.12031 0.35873 0.09101 0.0
H576 H 0.22396 0.42796 0.01936 0.0
H577 H 0.18905 0.47444 0.04289 0.0
H578 H 0.08952 0.34577 0.02471 0.0
H579 H 0.03869 0.37046 0.01826 0.0
H580 H 0.30273 0.43346 0.11134 0.0
H581 H 0.2747 0.40647 -0.00097 0.0
H582 H 0.13794 0.49913 0.03592 0.0
H583 H 0.3768 0.45855 0.09978 0.0
H584 H 0.34972 0.43333 0.98728 0.0
C585 C 0.52119 0.97215 0.13238 0.0
C586 C 0.52366 0.01114 0.12535 0.0
C587 C 0.5132 0.95585 0.16694 0.0
C588 C 0.50707 0.97803 0.1949 0.0
C589 C 0.51229 0.01817 0.18842 0.0
C590 C 0.52105 0.03484 0.15405 0.0
C591 C 0.49132 0.95729 0.22968 0.0
C592 C 0.51094 0.93765 0.24651 0.0
C593 C 0.49221 0.91126 0.27588 0.0
C594 C 0.45435 0.90615 0.28981 0.0
C595 C 0.4339 0.92573 0.27307 0.0
C596 C 0.45316 0.9517 0.24319 0.0
C597 C 0.39014 0.91491 0.28301 0.0
C598 C 0.3602 0.87349 0.2935 0.0
C599 C 0.3766 0.9446 0.27811 0.0
C600 C 0.33395 0.93239 0.28069 0.0
C601 C 0.30409 0.89066 0.28954 0.0
C602 C 0.51004 0.88496 0.28773 0.0
C603 C 0.51534 0.85978 0.26217 0.0
C604 C 0.52788 0.88982 0.3218 0.0
C605 C 0.55409 0.8728 0.32898 0.0
C606 C 0.56276 0.85142 0.30193 0.0
C607 C 0.54175 0.84345 0.2691 0.0
C608 C 0.31762 0.86168 0.29721 0.0
H609 H 0.52304 0.95318 0.1109 0.0
H610 H 0.50918 0.92467 0.17137 0.0
H611 H 0.50799 0.03589 0.20968 0.0
H612 H 0.52281 0.06505 0.14965 0.0
H613 H 0.53994 0.9411 0.23547 0.0
H614 H 0.43693 0.96493 0.22847 0.0
H615 H 0.43996 0.88527 0.3123 0.0
H616 H 0.36906 0.8495 0.29716 0.0
H617 H 0.39877 0.97709 0.27118 0.0
H618 H 0.32424 0.95557 0.27563 0.0
H619 H 0.50145 0.8554 0.23582 0.0
H620 H 0.52418 0.90928 0.34176 0.0
H621 H 0.29502 0.82938 0.30439 0.0
H622 H 0.54778 0.82677 0.24799 0.0
H623 H 0.57026 0.87941 0.35446 0.0
C624 C 0.96437 0.49493 0.15188 0.0
C625 C 0.99141 0.51591 0.123 0.0
C626 C 0.9801 0.50234 0.18657 0.0
C627 C 0.02253 0.53177 0.19276 0.0
C628 C 0.04827 0.55634 0.16467 0.0
C629 C 0.03283 0.54835 0.12983 0.0
C630 C 0.04171 0.53365 0.22736 0.0
C631 C 0.05315 0.50319 0.23589 0.0
C632 C 0.07885 0.50936 0.26561 0.0
C633 C 0.09084 0.54462 0.28768 0.0
C634 C 0.07966 0.57504 0.27913 0.0
C635 C 0.05474 0.56931 0.24898 0.0
C636 C 0.09848 0.61493 0.29937 0.0
C637 C 0.10009 0.61453 0.33672 0.0
C638 C 0.11759 0.65369 0.28124 0.0
C639 C 0.13734 0.69158 0.30025 0.0
C640 C 0.1383 0.69125 0.33764 0.0
C641 C 0.0964 0.48151 0.27302 0.0
C642 C 0.06964 0.43815 0.27883 0.0
C643 C 0.13985 0.49979 0.2801 0.0
C644 C 0.15547 0.47645 0.29704 0.0
C645 C 0.12794 0.43438 0.30622 0.0
C646 C 0.08546 0.41462 0.29539 0.0
C647 C 0.12003 0.6524 0.35573 0.0
H648 H 0.93204 0.4701 0.14753 0.0
H649 H 0.95989 0.48353 0.20821 0.0
H650 H 0.08114 0.57949 0.16941 0.0
H651 H 0.05418 0.56524 0.10817 0.0
H652 H 0.04455 0.47649 0.21817 0.0
H653 H 0.04679 0.59325 0.24154 0.0
H654 H 0.11101 0.54957 0.31057 0.0
H655 H 0.08551 0.58494 0.35123 0.0
H656 H 0.11763 0.65472 0.25235 0.0
H657 H 0.15114 0.72109 0.2857 0.0
H658 H 0.03605 0.42352 0.27368 0.0
H659 H 0.16109 0.53316 0.2753 0.0
H660 H 0.11976 0.65113 0.3846 0.0
H661 H 0.06365 0.38226 0.30309 0.0
H662 H 0.1881 0.49226 0.30579 0.0
C663 C 0.48995 0.53559 0.12032 0.0
C664 C 0.52815 0.53633 0.1133 0.0
C665 C 0.47463 0.53045 0.15503 0.0
C666 C 0.49766 0.52707 0.1835 0.0
C667 C 0.53715 0.53071 0.17701 0.0
C668 C 0.55213 0.53492 0.14212 0.0
C669 C 0.48143 0.52268 0.22012 0.0
C670 C 0.44007 0.49125 0.2286 0.0
C671 C 0.42245 0.49153 0.26198 0.0
C672 C 0.44701 0.52375 0.28653 0.0
C673 C 0.48839 0.5545 0.27831 0.0
C674 C 0.50581 0.55337 0.24549 0.0
C675 C 0.5119 0.59103 0.30191 0.0
C676 C 0.4947 0.61675 0.31097 0.0
C677 C 0.55295 0.60248 0.31275 0.0
C678 C 0.57676 0.63959 0.33215 0.0
C679 C 0.55997 0.66581 0.3402 0.0
C680 C 0.37767 0.46068 0.27043 0.0
C681 C 0.34654 0.44622 0.2436 0.0
C682 C 0.36529 0.44704 0.30577 0.0
C683 C 0.32284 0.42041 0.31412 0.0
C684 C 0.29214 0.40593 0.28716 0.0
C685 C 0.30431 0.41871 0.25183 0.0
C686 C 0.51888 0.65433 0.32983 0.0
H687 H 0.47044 0.5363 0.09884 0.0
H688 H 0.44459 0.52883 0.15962 0.0
H689 H 0.55573 0.52891 0.19879 0.0
H690 H 0.58148 0.53509 0.13751 0.0
H691 H 0.42165 0.46718 0.2089 0.0
H692 H 0.53725 0.57844 0.23861 0.0
H693 H 0.43362 0.52618 0.31159 0.0
H694 H 0.46317 0.60849 0.30237 0.0
H695 H 0.56665 0.58302 0.30581 0.0
H696 H 0.6086 0.64834 0.34023 0.0
H697 H 0.3545 0.45661 0.21627 0.0
H698 H 0.38839 0.45664 0.32705 0.0
H699 H 0.50569 0.67441 0.33618 0.0
H700 H 0.28103 0.40766 0.23057 0.0
H701 H 0.31421 0.41003 0.34142 0.0
O702 O 0.45138 0.93571 0.92241 0.0
Mg703 Mg 0.50539 0.95599 0.95536 0.0
O704 O 0.4804 0.00093 0.94058 0.0
Mg705 Mg 0.49392 -0.00383 0.00163 0.0
O706 O 0.50767 0.93826 0.0065 0.0
O707 O 0.5207 0.91095 0.95726 0.0
O708 O 0.50763 -0.0041 0.06339 0.0
O709 O 0.42335 0.95016 0.01159 0.0
Mg710 Mg 0.46929 0.04064 0.04962 0.0
O711 O 0.48045 0.0522 -0.00291 0.0
O712 O 0.5205 0.05741 0.08359 0.0
O713 O 0.41063 0.98362 0.05519 0.0
O714 O 0.46433 0.09073 0.03413 0.0
C715 C 0.58156 0.04111 0.96167 0.0
C716 C 0.4617 0.97363 0.91602 0.0
C717 C 0.51964 0.91363 0.99149 0.0
C718 C 0.52102 0.02353 0.08836 0.0
C719 C 0.39841 0.95191 0.03445 0.0
C720 C 0.4721 0.08248 0.00247 0.0
O721 O 0.56141 0.01161 0.93929 0.0
O722 O 0.56456 0.04158 0.99121 0.0
O723 O 0.03512 0.48547 0.92265 0.0
Mg724 Mg 0.01794 0.52631 0.94874 0.0
O725 O 0.97272 0.45281 0.94545 0.0
Mg726 Mg 0.99117 0.47993 0.00334 0.0
O727 O 0.04619 0.55153 -0.00441 0.0
O728 O 0.06304 0.58665 0.94326 0.0
O729 O 0.00662 0.50676 0.06273 0.0
O730 O 0.04235 0.46201 0.0033 0.0
Mg731 Mg 0.96814 0.43093 0.05506 0.0
O732 O 0.93772 0.40722 0.00895 0.0
O733 O 0.94448 0.46407 0.08345 0.0
O734 O 0.03036 0.43899 0.05849 0.0
O735 O 0.92798 0.36896 0.05911 0.0
C736 C 0.93188 0.51065 0.97169 0.0
C737 C -0.00312 0.4577 0.91944 0.0
C738 C 0.06902 0.58577 0.97711 0.0
C739 C 0.97906 0.49771 0.087 0.0
C740 C 0.05265 0.44872 0.0305 0.0
C741 C 0.91933 0.37155 0.02621 0.0
O742 O 0.95598 0.51886 0.9449 0.0
O743 O 0.94036 0.49896 0.001 0.0
O744 O 0.55199 0.50388 0.07334 0.0
Mg745 Mg 0.49214 0.454 0.05707 0.0
O746 O 0.51378 0.52841 0.0516 0.0
Mg747 Mg 0.50017 0.49741 -0.00536 0.0
O748 O 0.49105 0.43082 0.00807 0.0
O749 O 0.48635 0.39615 0.05892 0.0
O750 O 0.48615 0.46846 0.93647 0.0
O751 O 0.5702 0.52345 0.98377 0.0
Mg752 Mg 0.51705 0.5551 0.92928 0.0
O753 O 0.50829 0.56213 0.98059 0.0
O754 O 0.45855 0.50382 0.91391 0.0
O755 O 0.57712 0.55649 0.93198 0.0
O756 O 0.51693 0.61017 0.93973 0.0
C757 C 0.41332 0.45924 0.03672 0.0
C758 C 0.53735 0.52847 0.07663 0.0
C759 C 0.48612 0.3973 0.02451 0.0
C760 C 0.46566 0.4736 0.9113 0.0
C761 C 0.59234 0.54444 0.95713 0.0
C762 C 0.51287 0.5986 0.9726 0.0
O763 O 0.43394 0.4552 0.06245 0.0
O764 O 0.42997 0.47121 0.00597 0.0
O765 O 0.11797 0.2691 0.25575 0.0
Mg766 Mg 0.172 0.28934 0.28866 0.0
O767 O 0.14702 0.33431 0.27394 0.0
Mg768 Mg 0.16055 0.32952 0.33498 0.0
O769 O 0.17427 0.27159 0.3398 0.0
O770 O 0.18727 0.24427 0.29055 0.0
O771 O 0.17427 0.32923 0.39673 0.0
O772 O 0.08998 0.28353 0.34495 0.0
Mg773 Mg 0.13588 0.37404 0.38305 0.0
O774 O 0.14712 0.38557 0.33052 0.0
O775 O 0.18708 0.3907 0.41699 0.0
O776 O 0.0772 0.317 0.38852 0.0
O777 O 0.13105 0.42419 0.36749 0.0
C778 C 0.24819 0.37445 0.295 0.0
C779 C 0.12831 0.30702 0.24937 0.0
C780 C 0.18621 0.24694 0.32478 0.0
C781 C 0.18763 0.35683 0.42172 0.0
C782 C 0.06501 0.28529 0.36779 0.0
C783 C 0.13883 0.4159 0.33585 0.0
O784 O 0.22803 0.34496 0.27261 0.0
O785 O 0.23118 0.37491 0.32454 0.0
O786 O 0.70173 0.81874 0.256 0.0
Mg787 Mg 0.68456 0.8596 0.28206 0.0
O788 O 0.63933 0.78608 0.27881 0.0
Mg789 Mg 0.65779 0.81323 0.33669 0.0
O790 O 0.7128 0.88483 0.32891 0.0
O791 O 0.72966 0.91995 0.27658 0.0
O792 O 0.67324 0.8401 0.39607 0.0
O793 O 0.70898 0.79534 0.33665 0.0
Mg794 Mg 0.63481 0.76425 0.38844 0.0
O795 O 0.60436 0.74053 0.34233 0.0
O796 O 0.61114 0.79736 0.41686 0.0
O797 O 0.69706 0.77239 0.39187 0.0
O798 O 0.59471 0.70226 0.39248 0.0
C799 C 0.59849 0.84392 0.30502 0.0
C800 C 0.6635 0.79095 0.25281 0.0
C801 C 0.73564 0.91907 0.31043 0.0
C802 C 0.6457 0.83103 0.42036 0.0
C803 C 0.71933 0.7821 0.36386 0.0
C804 C 0.58601 0.70485 0.35959 0.0
O805 O 0.62259 0.85213 0.27823 0.0
O806 O 0.60697 0.83225 0.33433 0.0
O807 O 0.21867 0.83721 0.40663 0.0
Mg808 Mg 0.15881 0.78739 0.39032 0.0
O809 O 0.18049 0.86179 0.38491 0.0
Mg810 Mg 0.16685 0.8308 0.32795 0.0
O811 O 0.15768 0.76417 0.34133 0.0
O812 O 0.15293 0.72952 0.39221 0.0
O813 O 0.15281 0.80189 0.26977 0.0
O814 O 0.23688 0.85681 0.31708 0.0
Mg815 Mg 0.18383 0.88859 0.26262 0.0
O816 O 0.17502 0.89554 0.31394 0.0
O817 O 0.12535 0.83736 0.24716 0.0
O818 O 0.24387 0.88994 0.26533 0.0
O819 O 0.18373 0.94366 0.27313 0.0
C820 C 0.08002 0.79268 0.37003 0.0
C821 C 0.20405 0.86182 0.40994 0.0
C822 C 0.1527 0.73065 0.3578 0.0
C823 C 0.13238 0.80708 0.24457 0.0
C824 C 0.25906 0.87784 0.29046 0.0
C825 C 0.17962 0.93203 0.30599 0.0
O826 O 0.10063 0.78864 0.39575 0.0
O827 O 0.09666 0.80464 0.33928 0.0
O828 O 0.78466 0.60246 0.58904 0.0
Mg829 Mg 0.83869 0.62268 0.62196 0.0
O830 O 0.81372 0.66767 0.60723 0.0
Mg831 Mg 0.82725 0.66287 0.66828 0.0
O832 O 0.84095 0.60493 0.6731 0.0
O833 O 0.85394 0.5776 0.62385 0.0
O834 O 0.84097 0.66258 0.73002 0.0
O835 O 0.75668 0.61691 0.67825 0.0
Mg836 Mg 0.80262 0.70741 0.71634 0.0
O837 O 0.81384 0.71893 0.66381 0.0
O838 O 0.85383 0.72407 0.75027 0.0
O839 O 0.74393 0.65038 0.72183 0.0
O840 O 0.79778 0.75756 0.70079 0.0
C841 C 0.91489 0.70778 0.6283 0.0
C842 C 0.79501 0.64039 0.58267 0.0
C843 C 0.85288 0.58027 0.65808 0.0
C844 C 0.85435 0.69019 0.75501 0.0
C845 C 0.73172 0.61867 0.70109 0.0
C846 C 0.80554 0.74926 0.66914 0.0
O847 O 0.89473 0.6783 0.60591 0.0
O848 O 0.89789 0.70825 0.65784 0.0
O849 O 0.36849 0.15216 0.58936 0.0
Mg850 Mg 0.35127 0.19297 0.61546 0.0
O851 O 0.30607 0.11948 0.61215 0.0
Mg852 Mg 0.3245 0.1466 0.67004 0.0
O853 O 0.37952 0.21821 0.6623 0.0
O854 O 0.39635 0.25332 0.60997 0.0
O855 O 0.33993 0.17342 0.72943 0.0
O856 O 0.37569 0.12869 0.67002 0.0
Mg857 Mg 0.30145 0.09758 0.72176 0.0
O858 O 0.27106 0.07388 0.67564 0.0
O859 O 0.27779 0.13071 0.75016 0.0
O860 O 0.36367 0.10565 0.72521 0.0
O861 O 0.2613 0.0356 0.72579 0.0
C862 C 0.2652 0.17729 0.63838 0.0
C863 C 0.33025 0.12438 0.58615 0.0
C864 C 0.40234 0.25245 0.64382 0.0
C865 C 0.31236 0.16436 0.7537 0.0
C866 C 0.38598 0.11539 0.69722 0.0
C867 C 0.25266 0.0382 0.69289 0.0
O868 O 0.28931 0.1855 0.6116 0.0
O869 O 0.27368 0.16561 0.66769 0.0
O870 O 0.88532 0.17057 0.73997 0.0
Mg871 Mg 0.82545 0.12071 0.72372 0.0
O872 O 0.84713 0.19512 0.71824 0.0
Mg873 Mg 0.8335 0.16411 0.66129 0.0
O874 O 0.82434 0.0975 0.67472 0.0
O875 O 0.81961 0.06284 0.72559 0.0
O876 O 0.81946 0.13516 0.60312 0.0
O877 O 0.90352 0.19012 0.65043 0.0
Mg878 Mg 0.85046 0.22185 0.59593 0.0
O879 O 0.84166 0.22884 0.64724 0.0
O880 O 0.79197 0.17061 0.5805 0.0
O881 O 0.91051 0.22321 0.59866 0.0
O882 O 0.85036 0.27693 0.60641 0.0
C883 C 0.74666 0.12599 0.70338 0.0
C884 C 0.8707 0.19517 0.74327 0.0
C885 C 0.81938 0.06398 0.69117 0.0
C886 C 0.79902 0.14033 0.57792 0.0
C887 C 0.9257 0.21113 0.6238 0.0
C888 C 0.84625 0.26532 0.63928 0.0
O889 O 0.76727 0.12195 0.7291 0.0
O890 O 0.76331 0.13795 0.67262 0.0
loop_
_geom_bond_atom_site_label_1
_geom_bond_atom_site_label_2
_geom_bond_distance
_geom_bond_site_symmetry_2
_ccdc_geom_bond_type
C0 C1 1.386 . S
C0 C2 1.397 . S
C0 H24 0.931 . S
C1 C0 1.386 . S
C1 C5 1.397 . S
C2 C0 1.397 . S
C2 C3 1.384 . S
C2 H25 0.930 . S
C3 C2 1.384 . S
C3 C4 1.377 . S
C3 C6 1.481 . S
C4 C3 1.377 . S
C4 C5 1.389 . S
C4 H26 0.929 . S
C5 C1 1.397 . S
C5 C4 1.389 . S
C5 H27 0.931 . S
C6 C3 1.481 . S
C6 C7 1.387 . S
C6 C11 1.390 . S
C7 C6 1.387 . S
C7 C8 1.401 . S
C7 H28 0.930 . S
C8 C7 1.401 . S
C8 C9 1.376 . S
C8 C17 1.511 . S
C9 C8 1.376 . S
C9 C10 1.392 . S
C9 H30 0.931 . S
C10 C9 1.392 . S
C10 C11 1.361 . S
C10 C12 1.500 . S
C11 C6 1.390 . S
C11 C10 1.361 . S
C11 H29 0.931 . S
C12 C10 1.500 . S
C12 C13 1.371 . S
C12 C14 1.365 . S
C13 C12 1.371 . S
C13 C23 1.386 1_545 S
C13 H31 0.931 . S
C14 C12 1.365 . S
C14 C15 1.409 1_545 S
C14 H32 0.929 . S
C15 C14 1.409 1_565 S
C15 C16 1.380 . S
C15 H33 0.930 . S
C16 C15 1.380 . S
C16 C23 1.357 . S
C17 C8 1.511 . S
C17 C18 1.341 . S
C17 C19 1.371 . S
C18 C17 1.341 . S
C18 C22 1.394 . S
C18 H34 0.930 . S
C19 C17 1.371 . S
C19 C20 1.392 . S
C19 H35 0.931 . S
C20 C19 1.392 . S
C20 C21 1.331 . S
C20 H38 0.932 . S
C21 C20 1.331 . S
C21 C22 1.336 . S
C22 C18 1.394 . S
C22 C21 1.336 . S
C22 H37 0.929 . S
C23 C13 1.386 1_565 S
C23 C16 1.357 . S
C23 H36 0.928 . S
H24 C0 0.931 . S
H25 C2 0.930 . S
H26 C4 0.929 . S
H27 C5 0.931 . S
H28 C7 0.930 . S
H29 C11 0.931 . S
H30 C9 0.931 . S
H31 C13 0.931 . S
H32 C14 0.929 . S
H33 C15 0.930 . S
H34 C18 0.930 . S
H35 C19 0.931 . S
H36 C23 0.928 . S
H37 C22 0.929 . S
H38 C20 0.932 . S
C39 C40 1.386 . S
C39 C41 1.397 . S
C39 H63 0.931 . S
C40 C39 1.386 . S
C40 C44 1.397 . S
C41 C39 1.397 . S
C41 C42 1.384 . S
C41 H64 0.930 . S
C42 C41 1.384 . S
C42 C43 1.377 . S
C42 C45 1.481 . S
C43 C42 1.377 . S
C43 C44 1.389 . S
C43 H65 0.929 . S
C44 C40 1.397 . S
C44 C43 1.389 . S
C44 H66 0.931 . S
C45 C42 1.481 . S
C45 C46 1.387 . S
C45 C50 1.390 . S
C46 C45 1.387 . S
C46 C47 1.401 . S
C46 H67 0.930 . S
C47 C46 1.401 . S
C47 C48 1.376 . S
C47 C56 1.511 . S
C48 C47 1.376 . S
C48 C49 1.392 . S
C48 H69 0.931 . S
C49 C48 1.392 . S
C49 C50 1.361 . S
C49 C51 1.500 . S
C50 C45 1.390 . S
C50 C49 1.361 . S
C50 H68 0.931 . S
C51 C49 1.500 . S
C51 C52 1.371 . S
C51 C53 1.365 . S
C52 C51 1.371 . S
C52 C62 1.386 . S
C52 H70 0.931 . S
C53 C51 1.365 . S
C53 C54 1.409 1_545 S
C53 H71 0.929 . S
C54 C53 1.409 1_565 S
C54 C55 1.380 . S
C54 H72 0.930 . S
C55 C54 1.380 . S
C55 C62 1.357 1_565 S
C56 C47 1.511 . S
C56 C57 1.341 . S
C56 C58 1.371 . S
C57 C56 1.341 . S
C57 C61 1.394 1_655 S
C57 H73 0.930 . S
C58 C56 1.371 . S
C58 C59 1.392 1_655 S
C58 H74 0.931 . S
C59 C58 1.392 1_455 S
C59 C60 1.331 . S
C59 H77 0.932 . S
C60 C59 1.331 . S
C60 C61 1.336 . S
C61 C57 1.394 1_455 S
C61 C60 1.336 . S
C61 H76 0.929 . S
C62 C52 1.386 . S
C62 C55 1.357 1_545 S
C62 H75 0.928 . S
H63 C39 0.931 . S
H64 C41 0.930 . S
H65 C43 0.929 . S
H66 C44 0.931 . S
H67 C46 0.930 . S
H68 C50 0.931 . S
H69 C48 0.931 . S
H70 C52 0.931 . S
H71 C53 0.929 . S
H72 C54 0.930 . S
H73 C57 0.930 . S
H74 C58 0.931 . S
H75 C62 0.928 . S
H76 C61 0.929 . S
H77 C59 0.932 . S
C78 C79 1.386 . S
C78 C80 1.397 . S
C78 H102 0.931 . S
C79 C78 1.386 . S
C79 C83 1.397 . S
C80 C78 1.397 . S
C80 C81 1.384 . S
C80 H103 0.930 . S
C81 C80 1.384 . S
C81 C82 1.377 . S
C81 C84 1.481 . S
C82 C81 1.377 . S
C82 C83 1.389 . S
C82 H104 0.929 . S
C83 C79 1.397 . S
C83 C82 1.389 . S
C83 H105 0.931 . S
C84 C81 1.481 . S
C84 C85 1.387 . S
C84 C89 1.390 . S
C85 C84 1.387 . S
C85 C86 1.401 . S
C85 H106 0.930 . S
C86 C85 1.401 . S
C86 C87 1.376 . S
C86 C95 1.511 . S
C87 C86 1.376 . S
C87 C88 1.392 . S
C87 H108 0.931 . S
C88 C87 1.392 . S
C88 C89 1.361 . S
C88 C90 1.500 . S
C89 C84 1.390 . S
C89 C88 1.361 . S
C89 H107 0.931 . S
C90 C88 1.500 . S
C90 C91 1.371 . S
C90 C92 1.365 . S
C91 C90 1.371 . S
C91 C101 1.386 . S
C91 H109 0.931 . S
C92 C90 1.365 . S
C92 C93 1.409 . S
C92 H110 0.929 . S
C93 C92 1.409 . S
C93 C94 1.380 . S
C93 H111 0.930 . S
C94 C93 1.380 . S
C94 C101 1.357 . S
C95 C86 1.511 . S
C95 C96 1.341 . S
C95 C97 1.371 . S
C96 C95 1.341 . S
C96 C100 1.394 1_655 S
C96 H112 0.930 . S
C97 C95 1.371 . S
C97 C98 1.392 . S
C97 H113 0.931 . S
C98 C97 1.392 . S
C98 C99 1.331 1_655 S
C98 H116 0.932 . S
C99 C98 1.331 1_455 S
C99 C100 1.336 . S
C100 C96 1.394 1_455 S
C100 C99 1.336 . S
C100 H115 0.929 . S
C101 C91 1.386 . S
C101 C94 1.357 . S
C101 H114 0.928 . S
H102 C78 0.931 . S
H103 C80 0.930 . S
H104 C82 0.929 . S
H105 C83 0.931 . S
H106 C85 0.930 . S
H107 C89 0.931 . S
H108 C87 0.931 . S
H109 C91 0.931 . S
H110 C92 0.929 . S
H111 C93 0.930 . S
H112 C96 0.930 . S
H113 C97 0.931 . S
H114 C101 0.928 . S
H115 C100 0.929 . S
H116 C98 0.932 . S
C117 C118 1.386 . S
C117 C119 1.397 . S
C117 H141 0.931 . S
C118 C117 1.386 . S
C118 C122 1.397 . S
C119 C117 1.397 . S
C119 C120 1.384 . S
C119 H142 0.930 . S
C120 C119 1.384 . S
C120 C121 1.377 . S
C120 C123 1.481 . S
C121 C120 1.377 . S
C121 C122 1.389 . S
C121 H143 0.929 . S
C122 C118 1.397 . S
C122 C121 1.389 . S
C122 H144 0.931 . S
C123 C120 1.481 . S
C123 C124 1.387 . S
C123 C128 1.390 . S
C124 C123 1.387 . S
C124 C125 1.401 . S
C124 H145 0.930 . S
C125 C124 1.401 . S
C125 C126 1.376 . S
C125 C134 1.511 . S
C126 C125 1.376 . S
C126 C127 1.392 . S
C126 H147 0.931 . S
C127 C126 1.392 . S
C127 C128 1.361 . S
C127 C129 1.500 . S
C128 C123 1.390 . S
C128 C127 1.361 . S
C128 H146 0.931 . S
C129 C127 1.500 . S
C129 C130 1.371 . S
C129 C131 1.365 . S
C130 C129 1.371 . S
C130 C140 1.386 1_455 S
C130 H148 0.931 . S
C131 C129 1.365 . S
C131 C132 1.405 1_455 S
C131 H149 0.929 . S
C132 C131 1.405 1_655 S
C132 C133 1.381 . S
C132 H150 0.934 . S
C133 C132 1.381 . S
C133 C140 1.357 . S
C134 C125 1.511 . S
C134 C135 1.341 . S
C134 C136 1.371 . S
C135 C134 1.341 . S
C135 C139 1.394 . S
C135 H151 0.930 . S
C136 C134 1.371 . S
C136 C137 1.392 . S
C136 H152 0.931 . S
C137 C136 1.392 . S
C137 C138 1.331 . S
C137 H155 0.932 . S
C138 C137 1.331 . S
C138 C139 1.336 . S
C139 C135 1.394 . S
C139 C138 1.336 . S
C139 H154 0.929 . S
C140 C130 1.386 1_655 S
C140 C133 1.357 . S
C140 H153 0.928 . S
H141 C117 0.931 . S
H142 C119 0.930 . S
H143 C121 0.929 . S
H144 C122 0.931 . S
H145 C124 0.930 . S
H146 C128 0.931 . S
H147 C126 0.931 . S
H148 C130 0.931 . S
H149 C131 0.929 . S
H150 C132 0.934 . S
H151 C135 0.930 . S
H152 C136 0.931 . S
H153 C140 0.928 . S
H154 C139 0.929 . S
H155 C137 0.932 . S
C156 C157 1.386 . S
C156 C158 1.397 . S
C156 H180 0.931 . S
C157 C156 1.386 . S
C157 C161 1.397 . S
C158 C156 1.397 . S
C158 C159 1.384 . S
C158 H181 0.930 . S
C159 C158 1.384 . S
C159 C160 1.377 . S
C159 C162 1.481 . S
C160 C159 1.377 . S
C160 C161 1.389 . S
C160 H182 0.929 . S
C161 C157 1.397 . S
C161 C160 1.389 . S
C161 H183 0.931 . S
C162 C159 1.481 . S
C162 C163 1.387 . S
C162 C167 1.390 . S
C163 C162 1.387 . S
C163 C164 1.401 . S
C163 H184 0.930 . S
C164 C163 1.401 . S
C164 C165 1.376 . S
C164 C173 1.511 . S
C165 C164 1.376 . S
C165 C166 1.392 . S
C165 H186 0.931 . S
C166 C165 1.392 . S
C166 C167 1.361 . S
C166 C168 1.500 . S
C167 C162 1.390 . S
C167 C166 1.361 . S
C167 H185 0.931 . S
C168 C166 1.500 . S
C168 C169 1.371 . S
C168 C170 1.365 . S
C169 C168 1.371 . S
C169 C179 1.386 . S
C169 H187 0.931 . S
C170 C168 1.365 . S
C170 C171 1.409 1_565 S
C170 H188 0.929 . S
C171 C170 1.409 1_545 S
C171 C172 1.380 . S
C171 H189 0.930 . S
C172 C171 1.380 . S
C172 C179 1.357 1_545 S
C173 C164 1.511 . S
C173 C174 1.341 . S
C173 C175 1.371 . S
C174 C173 1.341 . S
C174 C178 1.394 . S
C174 H190 0.930 . S
C175 C173 1.371 . S
C175 C176 1.392 . S
C175 H191 0.931 . S
C176 C175 1.392 . S
C176 C177 1.331 . S
C176 H194 0.932 . S
C177 C176 1.331 . S
C177 C178 1.336 . S
C178 C174 1.394 . S
C178 C177 1.336 . S
C178 H193 0.929 . S
C179 C169 1.386 . S
C179 C172 1.357 1_565 S
C179 H192 0.928 . S
H180 C156 0.931 . S
H181 C158 0.930 . S
H182 C160 0.929 . S
H183 C161 0.931 . S
H184 C163 0.930 . S
H185 C167 0.931 . S
H186 C165 0.931 . S
H187 C169 0.931 . S
H188 C170 0.929 . S
H189 C171 0.930 . S
H190 C174 0.930 . S
H191 C175 0.931 . S
H192 C179 0.928 . S
H193 C178 0.929 . S
H194 C176 0.932 . S
C195 C196 1.386 . S
C195 C197 1.397 . S
C195 H219 0.931 . S
C196 C195 1.386 . S
C196 C200 1.397 . S
C197 C195 1.397 . S
C197 C198 1.384 . S
C197 H220 0.930 . S
C198 C197 1.384 . S
C198 C199 1.377 . S
C198 C201 1.481 . S
C199 C198 1.377 . S
C199 C200 1.389 . S
C199 H221 0.929 . S
C200 C196 1.397 . S
C200 C199 1.389 . S
C200 H222 0.931 . S
C201 C198 1.481 . S
C201 C202 1.387 . S
C201 C206 1.390 . S
C202 C201 1.387 . S
C202 C203 1.401 . S
C202 H223 0.930 . S
C203 C202 1.401 . S
C203 C204 1.376 . S
C203 C212 1.511 . S
C204 C203 1.376 . S
C204 C205 1.392 . S
C204 H225 0.931 . S
C205 C204 1.392 . S
C205 C206 1.361 . S
C205 C207 1.500 . S
C206 C201 1.390 . S
C206 C205 1.361 . S
C206 H224 0.931 . S
C207 C205 1.500 . S
C207 C208 1.371 . S
C207 C209 1.365 . S
C208 C207 1.371 . S
C208 C218 1.386 1_565 S
C208 H226 0.931 . S
C209 C207 1.365 . S
C209 C210 1.409 1_565 S
C209 H227 0.929 . S
C210 C209 1.409 1_545 S
C210 C211 1.380 . S
C210 H228 0.930 . S
C211 C210 1.380 . S
C211 C218 1.357 . S
C212 C203 1.511 . S
C212 C213 1.341 . S
C212 C214 1.371 . S
C213 C212 1.341 . S
C213 C217 1.394 1_455 S
C213 H229 0.930 . S
C214 C212 1.371 . S
C214 C215 1.392 . S
C214 H230 0.931 . S
C215 C214 1.392 . S
C215 C216 1.331 1_455 S
C215 H233 0.932 . S
C216 C215 1.331 1_655 S
C216 C217 1.336 . S
C217 C213 1.394 1_655 S
C217 C216 1.336 . S
C217 H232 0.929 . S
C218 C208 1.386 1_545 S
C218 C211 1.357 . S
C218 H231 0.928 . S
H219 C195 0.931 . S
H220 C197 0.930 . S
H221 C199 0.929 . S
H222 C200 0.931 . S
H223 C202 0.930 . S
H224 C206 0.931 . S
H225 C204 0.931 . S
H226 C208 0.931 . S
H227 C209 0.929 . S
H228 C210 0.930 . S
H229 C213 0.930 . S
H230 C214 0.931 . S
H231 C218 0.928 . S
H232 C217 0.929 . S
H233 C215 0.932 . S
C234 C235 1.386 . S
C234 C236 1.397 . S
C234 H258 0.931 . S
C235 C234 1.386 . S
C235 C239 1.397 1_655 S
C236 C234 1.397 . S
C236 C237 1.384 . S
C236 H259 0.930 . S
C237 C236 1.384 . S
C237 C238 1.377 . S
C237 C240 1.481 . S
C238 C237 1.377 . S
C238 C239 1.389 1_655 S
C238 H260 0.929 1_655 S
C239 C235 1.397 1_455 S
C239 C238 1.389 1_455 S
C239 H261 0.931 . S
C240 C237 1.481 . S
C240 C241 1.387 . S
C240 C245 1.390 . S
C241 C240 1.387 . S
C241 C242 1.401 . S
C241 H262 0.930 . S
C242 C241 1.401 . S
C242 C243 1.376 . S
C242 C251 1.511 . S
C243 C242 1.376 . S
C243 C244 1.392 . S
C243 H264 0.931 . S
C244 C243 1.392 . S
C244 C245 1.361 . S
C244 C246 1.500 . S
C245 C240 1.390 . S
C245 C244 1.361 . S
C245 H263 0.931 . S
C246 C244 1.500 . S
C246 C247 1.371 . S
C246 C248 1.365 . S
C247 C246 1.371 . S
C247 C257 1.386 . S
C247 H265 0.931 . S
C248 C246 1.365 . S
C248 C249 1.409 . S
C248 H266 0.929 . S
C249 C248 1.409 . S
C249 C250 1.380 . S
C249 H267 0.930 . S
C250 C249 1.380 . S
C250 C257 1.357 . S
C251 C242 1.511 . S
C251 C252 1.341 . S
C251 C253 1.371 . S
C252 C251 1.341 . S
C252 C256 1.394 . S
C252 H268 0.930 . S
C253 C251 1.371 . S
C253 C254 1.392 . S
C253 H269 0.931 . S
C254 C253 1.392 . S
C254 C255 1.331 . S
C254 H272 0.932 . S
C255 C254 1.331 . S
C255 C256 1.336 . S
C256 C252 1.394 . S
C256 C255 1.336 . S
C256 H271 0.929 . S
C257 C247 1.386 . S
C257 C250 1.357 . S
C257 H270 0.928 . S
H258 C234 0.931 . S
H259 C236 0.930 . S
H260 C238 0.929 1_455 S
H261 C239 0.931 . S
H262 C241 0.930 . S
H263 C245 0.931 . S
H264 C243 0.931 . S
H265 C247 0.931 . S
H266 C248 0.929 . S
H267 C249 0.930 . S
H268 C252 0.930 . S
H269 C253 0.931 . S
H270 C257 0.928 . S
H271 C256 0.929 . S
H272 C254 0.932 . S
C273 C274 1.386 . S
C273 C275 1.397 . S
C273 H297 0.931 . S
C274 C273 1.386 . S
C274 C278 1.397 . S
C275 C273 1.397 . S
C275 C276 1.384 . S
C275 H298 0.930 . S
C276 C275 1.384 . S
C276 C277 1.377 . S
C276 C279 1.481 . S
C277 C276 1.377 . S
C277 C278 1.389 . S
C277 H299 0.929 . S
C278 C274 1.397 . S
C278 C277 1.389 . S
C278 H300 0.931 . S
C279 C276 1.481 . S
C279 C280 1.387 . S
C279 C284 1.390 . S
C280 C279 1.387 . S
C280 C281 1.401 . S
C280 H301 0.930 . S
C281 C280 1.401 . S
C281 C282 1.376 . S
C281 C290 1.511 . S
C282 C281 1.376 . S
C282 C283 1.392 . S
C282 H303 0.931 . S
C283 C282 1.392 . S
C283 C284 1.361 . S
C283 C285 1.500 . S
C284 C279 1.390 . S
C284 C283 1.361 . S
C284 H302 0.931 . S
C285 C283 1.500 . S
C285 C286 1.371 . S
C285 C287 1.365 . S
C286 C285 1.371 . S
C286 C296 1.386 . S
C286 H304 0.931 . S
C287 C285 1.365 . S
C287 C288 1.409 . S
C287 H305 0.929 . S
C288 C287 1.409 . S
C288 C289 1.380 . S
C288 H306 0.930 . S
C289 C288 1.380 . S
C289 C296 1.357 . S
C290 C281 1.511 . S
C290 C291 1.341 . S
C290 C292 1.371 . S
C291 C290 1.341 . S
C291 C295 1.394 . S
C291 H307 0.930 . S
C292 C290 1.371 . S
C292 C293 1.392 . S
C292 H308 0.931 . S
C293 C292 1.392 . S
C293 C294 1.331 . S
C293 H311 0.932 . S
C294 C293 1.331 . S
C294 C295 1.336 . S
C295 C291 1.394 . S
C295 C294 1.336 . S
C295 H310 0.929 . S
C296 C286 1.386 . S
C296 C289 1.357 . S
C296 H309 0.928 . S
H297 C273 0.931 . S
H298 C275 0.930 . S
H299 C277 0.929 . S
H300 C278 0.931 . S
H301 C280 0.930 . S
H302 C284 0.931 . S
H303 C282 0.931 . S
H304 C286 0.931 . S
H305 C287 0.929 . S
H306 C288 0.930 . S
H307 C291 0.930 . S
H308 C292 0.931 . S
H309 C296 0.928 . S
H310 C295 0.929 . S
H311 C293 0.932 . S
C312 C313 1.392 . S
C312 C314 1.397 . S
C312 H336 0.931 . S
C313 C312 1.392 . S
C313 C317 1.398 1_545 S
C314 C312 1.397 . S
C314 C315 1.384 . S
C314 H337 0.930 . S
C315 C314 1.384 . S
C315 C316 1.377 . S
C315 C318 1.481 . S
C316 C315 1.377 . S
C316 C317 1.389 1_545 S
C316 H338 0.929 1_545 S
C317 C313 1.398 1_565 S
C317 C316 1.389 1_565 S
C317 H339 0.931 . S
C318 C315 1.481 . S
C318 C319 1.387 . S
C318 C323 1.390 . S
C319 C318 1.387 . S
C319 C320 1.401 . S
C319 H340 0.930 . S
C320 C319 1.401 . S
C320 C321 1.376 . S
C320 C329 1.511 . S
C321 C320 1.376 . S
C321 C322 1.392 . S
C321 H342 0.931 . S
C322 C321 1.392 . S
C322 C323 1.361 . S
C322 C324 1.500 . S
C323 C318 1.390 . S
C323 C322 1.361 . S
C323 H341 0.931 . S
C324 C322 1.500 . S
C324 C325 1.371 . S
C324 C326 1.365 . S
C325 C324 1.371 . S
C325 C335 1.386 . S
C325 H343 0.931 . S
C326 C324 1.365 . S
C326 C327 1.409 . S
C326 H344 0.929 . S
C327 C326 1.409 . S
C327 C328 1.380 . S
C327 H345 0.930 . S
C328 C327 1.380 . S
C328 C335 1.357 . S
C329 C320 1.511 . S
C329 C330 1.341 . S
C329 C331 1.371 . S
C330 C329 1.341 . S
C330 C334 1.394 . S
C330 H346 0.930 . S
C331 C329 1.371 . S
C331 C332 1.392 . S
C331 H347 0.931 . S
C332 C331 1.392 . S
C332 C333 1.331 . S
C332 H350 0.932 . S
C333 C332 1.331 . S
C333 C334 1.336 . S
C334 C330 1.394 . S
C334 C333 1.336 . S
C334 H349 0.929 . S
C335 C325 1.386 . S
C335 C328 1.357 . S
C335 H348 0.928 . S
H336 C312 0.931 . S
H337 C314 0.930 . S
H338 C316 0.929 1_565 S
H339 C317 0.931 . S
H340 C319 0.930 . S
H341 C323 0.931 . S
H342 C321 0.931 . S
H343 C325 0.931 . S
H344 C326 0.929 . S
H345 C327 0.930 . S
H346 C330 0.930 . S
H347 C331 0.931 . S
H348 C335 0.928 . S
H349 C334 0.929 . S
H350 C332 0.932 . S
C351 C352 1.386 . S
C351 C353 1.397 . S
C351 H375 0.931 . S
C352 C351 1.386 . S
C352 C356 1.397 . S
C353 C351 1.397 . S
C353 C354 1.384 . S
C353 H376 0.930 . S
C354 C353 1.384 . S
C354 C355 1.377 . S
C354 C357 1.481 . S
C355 C354 1.377 . S
C355 C356 1.389 . S
C355 H377 0.929 . S
C356 C352 1.397 . S
C356 C355 1.389 . S
C356 H378 0.931 . S
C357 C354 1.481 . S
C357 C358 1.387 . S
C357 C362 1.390 . S
C358 C357 1.387 . S
C358 C359 1.401 . S
C358 H379 0.930 . S
C359 C358 1.401 . S
C359 C360 1.376 . S
C359 C368 1.511 . S
C360 C359 1.376 . S
C360 C361 1.392 . S
C360 H381 0.931 . S
C361 C360 1.392 . S
C361 C362 1.361 . S
C361 C363 1.500 . S
C362 C357 1.390 . S
C362 C361 1.361 . S
C362 H380 0.931 . S
C363 C361 1.500 . S
C363 C364 1.371 . S
C363 C365 1.365 . S
C364 C363 1.371 . S
C364 C374 1.386 1_556 S
C364 H382 0.931 1_556 S
C365 C363 1.365 . S
C365 C366 1.409 . S
C365 H383 0.929 . S
C366 C365 1.409 . S
C366 C367 1.380 1_556 S
C366 H384 0.930 . S
C367 C366 1.380 1_554 S
C367 C374 1.357 . S
C368 C359 1.511 . S
C368 C369 1.341 . S
C368 C370 1.371 1_556 S
C369 C368 1.341 . S
C369 C373 1.394 . S
C369 H385 0.930 . S
C370 C368 1.371 1_554 S
C370 C371 1.392 . S
C370 H386 0.931 . S
C371 C370 1.392 . S
C371 C372 1.331 . S
C371 H389 0.932 . S
C372 C371 1.331 . S
C372 C373 1.336 1_554 S
C373 C369 1.394 . S
C373 C372 1.336 1_556 S
C373 H388 0.929 . S
C374 C364 1.386 1_554 S
C374 C367 1.357 . S
C374 H387 0.928 . S
H375 C351 0.931 . S
H376 C353 0.930 . S
H377 C355 0.929 . S
H378 C356 0.931 . S
H379 C358 0.930 . S
H380 C362 0.931 . S
H381 C360 0.931 . S
H382 C364 0.931 1_554 S
H383 C365 0.929 . S
H384 C366 0.930 . S
H385 C369 0.930 . S
H386 C370 0.931 . S
H387 C374 0.928 . S
H388 C373 0.929 . S
H389 C371 0.932 . S
C390 C391 1.386 . S
C390 C392 1.397 . S
C390 H414 0.931 . S
C391 C390 1.386 . S
C391 C395 1.397 . S
C392 C390 1.397 . S
C392 C393 1.384 . S
C392 H415 0.930 . S
C393 C392 1.384 . S
C393 C394 1.377 . S
C393 C396 1.481 . S
C394 C393 1.377 . S
C394 C395 1.389 . S
C394 H416 0.929 . S
C395 C391 1.397 . S
C395 C394 1.389 . S
C395 H417 0.931 . S
C396 C393 1.481 . S
C396 C397 1.387 . S
C396 C401 1.390 . S
C397 C396 1.387 . S
C397 C398 1.401 . S
C397 H418 0.930 . S
C398 C397 1.401 . S
C398 C399 1.376 . S
C398 C407 1.511 . S
C399 C398 1.376 . S
C399 C400 1.392 . S
C399 H420 0.957 . S
C400 C399 1.392 . S
C400 C401 1.361 . S
C400 C402 1.500 . S
C401 C396 1.390 . S
C401 C400 1.361 . S
C401 H419 0.931 . S
C402 C400 1.500 . S
C402 C403 1.371 1_556 S
C402 C404 1.365 . S
C403 C402 1.371 1_554 S
C403 C413 1.386 . S
C403 H421 0.931 . S
C404 C402 1.365 . S
C404 C405 1.409 . S
C404 H422 0.929 . S
C405 C404 1.409 . S
C405 C406 1.380 1_556 S
C405 H423 0.930 . S
C406 C405 1.380 1_554 S
C406 C413 1.357 . S
C407 C398 1.511 . S
C407 C408 1.341 . S
C407 C409 1.371 1_556 S
C408 C407 1.341 . S
C408 C412 1.394 . S
C408 H424 0.930 . S
C409 C407 1.371 1_554 S
C409 C410 1.392 . S
C409 H425 0.931 . S
C410 C409 1.392 . S
C410 C411 1.331 . S
C410 H428 0.932 . S
C411 C410 1.331 . S
C411 C412 1.336 1_554 S
C412 C408 1.394 . S
C412 C411 1.336 1_556 S
C412 H427 0.929 . S
C413 C403 1.386 . S
C413 C406 1.357 . S
C413 H426 0.928 . S
H414 C390 0.931 . S
H415 C392 0.930 . S
H416 C394 0.929 . S
H417 C395 0.931 . S
H418 C397 0.930 . S
H419 C401 0.931 . S
H420 C399 0.957 . S
H421 C403 0.931 . S
H422 C404 0.929 . S
H423 C405 0.930 . S
H424 C408 0.930 . S
H425 C409 0.931 . S
H426 C413 0.928 . S
H427 C412 0.929 . S
H428 C410 0.932 . S
C429 C430 1.386 . S
C429 C431 1.397 . S
C429 H453 0.931 . S
C430 C429 1.386 . S
C430 C434 1.397 . S
C431 C429 1.397 . S
C431 C432 1.384 . S
C431 H454 0.930 . S
C432 C431 1.384 . S
C432 C433 1.377 . S
C432 C435 1.481 . S
C433 C432 1.377 . S
C433 C434 1.389 . S
C433 H455 0.929 . S
C434 C430 1.397 . S
C434 C433 1.389 . S
C434 H456 0.931 . S
C435 C432 1.481 . S
C435 C436 1.387 . S
C435 C440 1.390 . S
C436 C435 1.387 . S
C436 C437 1.401 . S
C436 H457 0.930 . S
C437 C436 1.401 . S
C437 C438 1.376 . S
C437 C446 1.511 . S
C438 C437 1.376 . S
C438 C439 1.392 . S
C438 H459 0.931 . S
C439 C438 1.392 . S
C439 C440 1.361 . S
C439 C441 1.500 . S
C440 C435 1.390 . S
C440 C439 1.361 . S
C440 H458 0.931 . S
C441 C439 1.500 . S
C441 C442 1.371 . S
C441 C443 1.365 . S
C442 C441 1.371 . S
C442 C452 1.386 1_556 S
C442 H460 0.930 1_556 S
C443 C441 1.365 . S
C443 C444 1.409 . S
C443 H461 0.929 . S
C444 C443 1.409 . S
C444 C445 1.380 1_556 S
C444 H462 0.930 . S
C445 C444 1.380 1_554 S
C445 C452 1.357 . S
C446 C437 1.511 . S
C446 C447 1.341 . S
C446 C448 1.371 1_556 S
C447 C446 1.341 . S
C447 C451 1.394 . S
C447 H463 0.930 . S
C448 C446 1.371 1_554 S
C448 C449 1.392 . S
C448 H464 0.931 . S
C449 C448 1.392 . S
C449 C450 1.331 . S
C449 H467 0.932 . S
C450 C449 1.331 . S
C450 C451 1.336 1_554 S
C451 C447 1.394 . S
C451 C450 1.336 1_556 S
C451 H466 0.929 . S
C452 C442 1.386 1_554 S
C452 C445 1.357 . S
C452 H465 0.928 . S
H453 C429 0.931 . S
H454 C431 0.930 . S
H455 C433 0.929 . S
H456 C434 0.931 . S
H457 C436 0.930 . S
H458 C440 0.931 . S
H459 C438 0.931 . S
H460 C442 0.930 1_554 S
H461 C443 0.929 . S
H462 C444 0.930 . S
H463 C447 0.930 . S
H464 C448 0.931 . S
H465 C452 0.928 . S
H466 C451 0.929 . S
H467 C449 0.932 . S
C468 C469 1.386 . S
C468 C470 1.397 . S
C468 H492 0.931 . S
C469 C468 1.386 . S
C469 C473 1.397 . S
C470 C468 1.397 . S
C470 C471 1.384 . S
C470 H493 0.930 . S
C471 C470 1.384 . S
C471 C472 1.377 . S
C471 C474 1.481 . S
C472 C471 1.377 . S
C472 C473 1.389 . S
C472 H494 0.929 . S
C473 C469 1.397 . S
C473 C472 1.389 . S
C473 H495 0.931 . S
C474 C471 1.481 . S
C474 C475 1.387 . S
C474 C479 1.390 . S
C475 C474 1.387 . S
C475 C476 1.401 . S
C475 H496 0.930 . S
C476 C475 1.401 . S
C476 C477 1.376 . S
C476 C485 1.511 . S
C477 C476 1.376 . S
C477 C478 1.392 . S
C477 H498 0.931 . S
C478 C477 1.392 . S
C478 C479 1.361 . S
C478 C480 1.500 . S
C479 C474 1.390 . S
C479 C478 1.361 . S
C479 H497 0.931 . S
C480 C478 1.500 . S
C480 C481 1.371 . S
C480 C482 1.365 . S
C481 C480 1.371 . S
C481 C491 1.386 1_554 S
C481 H499 0.931 . S
C482 C480 1.365 . S
C482 C483 1.409 . S
C482 H500 0.929 . S
C483 C482 1.409 . S
C483 C484 1.380 . S
C483 H501 0.930 . S
C484 C483 1.380 . S
C484 C491 1.357 1_554 S
C485 C476 1.511 . S
C485 C486 1.341 . S
C485 C487 1.371 . S
C486 C485 1.341 . S
C486 C490 1.394 . S
C486 H502 0.930 . S
C487 C485 1.371 . S
C487 C488 1.392 1_554 S
C487 H503 0.931 1_554 S
C488 C487 1.392 1_556 S
C488 C489 1.331 1_556 S
C488 H506 0.932 . S
C489 C488 1.331 1_554 S
C489 C490 1.336 . S
C490 C486 1.394 . S
C490 C489 1.336 . S
C490 H505 0.929 . S
C491 C481 1.386 1_556 S
C491 C484 1.357 1_556 S
C491 H504 0.928 . S
H492 C468 0.931 . S
H493 C470 0.930 . S
H494 C472 0.929 . S
H495 C473 0.931 . S
H496 C475 0.930 . S
H497 C479 0.931 . S
H498 C477 0.931 . S
H499 C481 0.931 . S
H500 C482 0.929 . S
H501 C483 0.930 . S
H502 C486 0.930 . S
H503 C487 0.931 1_556 S
H504 C491 0.928 . S
H505 C490 0.929 . S
H506 C488 0.932 . S
C507 C508 1.386 . S
C507 C509 1.397 . S
C507 H531 0.931 . S
C508 C507 1.386 . S
C508 C512 1.397 . S
C509 C507 1.397 . S
C509 C510 1.384 . S
C509 H532 0.930 . S
C510 C509 1.384 . S
C510 C511 1.377 . S
C510 C513 1.481 . S
C511 C510 1.377 . S
C511 C512 1.389 . S
C511 H533 0.929 . S
C512 C508 1.397 . S
C512 C511 1.389 . S
C512 H534 0.931 . S
C513 C510 1.481 . S
C513 C514 1.387 . S
C513 C518 1.390 . S
C514 C513 1.387 . S
C514 C515 1.401 . S
C514 H535 0.930 . S
C515 C514 1.401 . S
C515 C516 1.376 . S
C515 C524 1.511 . S
C516 C515 1.376 . S
C516 C517 1.392 . S
C516 H537 0.931 . S
C517 C516 1.392 . S
C517 C518 1.361 . S
C517 C519 1.500 . S
C518 C513 1.390 . S
C518 C517 1.361 . S
C518 H536 0.931 . S
C519 C517 1.500 . S
C519 C520 1.371 1_554 S
C519 C521 1.365 . S
C520 C519 1.371 1_556 S
C520 C530 1.386 . S
C520 H538 0.931 . S
C521 C519 1.365 . S
C521 C522 1.409 . S
C521 H539 0.929 . S
C522 C521 1.409 . S
C522 C523 1.400 . S
C522 H540 0.930 . S
C523 C522 1.400 . S
C523 C530 1.346 1_554 S
C524 C515 1.511 . S
C524 C525 1.341 . S
C524 C526 1.371 . S
C525 C524 1.341 . S
C525 C529 1.394 . S
C525 H541 0.930 . S
C526 C524 1.371 . S
C526 C527 1.392 1_554 S
C526 H542 0.931 1_554 S
C527 C526 1.392 1_556 S
C527 C528 1.331 1_556 S
C527 H545 0.932 . S
C528 C527 1.331 1_554 S
C528 C529 1.336 . S
C529 C525 1.394 . S
C529 C528 1.336 . S
C529 H544 0.929 . S
C530 C520 1.386 . S
C530 C523 1.346 1_556 S
C530 H543 0.928 . S
H531 C507 0.931 . S
H532 C509 0.930 . S
H533 C511 0.929 . S
H534 C512 0.931 . S
H535 C514 0.930 . S
H536 C518 0.931 . S
H537 C516 0.931 . S
H538 C520 0.931 . S
H539 C521 0.929 . S
H540 C522 0.930 . S
H541 C525 0.930 . S
H542 C526 0.931 1_556 S
H543 C530 0.928 . S
H544 C529 0.929 . S
H545 C527 0.932 . S
C546 C547 1.386 . S
C546 C548 1.397 . S
C546 H570 0.931 . S
C547 C546 1.386 . S
C547 C551 1.397 . S
C548 C546 1.397 . S
C548 C549 1.384 . S
C548 H571 0.930 . S
C549 C548 1.384 . S
C549 C550 1.377 . S
C549 C552 1.481 . S
C550 C549 1.377 . S
C550 C551 1.389 . S
C550 H572 0.929 . S
C551 C547 1.397 . S
C551 C550 1.389 . S
C551 H573 0.931 . S
C552 C549 1.481 . S
C552 C553 1.387 . S
C552 C557 1.390 . S
C553 C552 1.387 . S
C553 C554 1.401 . S
C553 H574 0.930 . S
C554 C553 1.401 . S
C554 C555 1.376 . S
C554 C563 1.511 . S
C555 C554 1.376 . S
C555 C556 1.392 . S
C555 H576 0.931 . S
C556 C555 1.392 . S
C556 C557 1.361 . S
C556 C558 1.500 . S
C557 C552 1.390 . S
C557 C556 1.361 . S
C557 H575 0.931 . S
C558 C556 1.500 . S
C558 C559 1.371 . S
C558 C560 1.365 . S
C559 C558 1.371 . S
C559 C569 1.389 . S
C559 H577 0.931 . S
C560 C558 1.365 . S
C560 C561 1.409 . S
C560 H578 0.929 . S
C561 C560 1.409 . S
C561 C562 1.380 . S
C561 H579 0.930 . S
C562 C561 1.380 . S
C562 C569 1.358 . S
C563 C554 1.511 . S
C563 C564 1.341 . S
C563 C565 1.371 . S
C564 C563 1.341 . S
C564 C568 1.394 . S
C564 H580 0.930 . S
C565 C563 1.371 . S
C565 C566 1.392 1_554 S
C565 H581 0.931 1_554 S
C566 C565 1.392 1_556 S
C566 C567 1.331 1_556 S
C566 H584 0.932 . S
C567 C566 1.331 1_554 S
C567 C568 1.336 . S
C568 C564 1.394 . S
C568 C567 1.336 . S
C568 H583 0.929 . S
C569 C559 1.389 . S
C569 C562 1.358 . S
C569 H582 0.924 1_554 S
H570 C546 0.931 . S
H571 C548 0.930 . S
H572 C550 0.929 . S
H573 C551 0.931 . S
H574 C553 0.930 . S
H575 C557 0.931 . S
H576 C555 0.931 . S
H577 C559 0.931 . S
H578 C560 0.929 . S
H579 C561 0.930 . S
H580 C564 0.930 . S
H581 C565 0.931 1_556 S
H582 C569 0.924 1_556 S
H583 C568 0.929 . S
H584 C566 0.932 . S
C585 C586 1.386 1_565 S
C585 C587 1.397 . S
C585 H609 0.931 . S
C586 C585 1.386 1_545 S
C586 C590 1.397 . S
C587 C585 1.397 . S
C587 C588 1.384 . S
C587 H610 0.930 . S
C588 C587 1.384 . S
C588 C589 1.377 1_565 S
C588 C591 1.481 . S
C589 C588 1.377 1_545 S
C589 C590 1.389 . S
C589 H611 0.929 . S
C590 C586 1.397 . S
C590 C589 1.389 . S
C590 H612 0.931 . S
C591 C588 1.481 . S
C591 C592 1.387 . S
C591 C596 1.390 . S
C592 C591 1.387 . S
C592 C593 1.401 . S
C592 H613 0.930 . S
C593 C592 1.401 . S
C593 C594 1.376 . S
C593 C602 1.511 . S
C594 C593 1.376 . S
C594 C595 1.392 . S
C594 H615 0.931 . S
C595 C594 1.392 . S
C595 C596 1.361 . S
C595 C597 1.500 . S
C596 C591 1.390 . S
C596 C595 1.361 . S
C596 H614 0.931 . S
C597 C595 1.500 . S
C597 C598 1.371 . S
C597 C599 1.365 . S
C598 C597 1.371 . S
C598 C608 1.386 . S
C598 H616 0.931 . S
C599 C597 1.365 . S
C599 C600 1.409 . S
C599 H617 0.929 . S
C600 C599 1.409 . S
C600 C601 1.380 . S
C600 H618 0.930 . S
C601 C600 1.380 . S
C601 C608 1.357 . S
C602 C593 1.511 . S
C602 C603 1.341 . S
C602 C604 1.371 . S
C603 C602 1.341 . S
C603 C607 1.394 . S
C603 H619 0.930 . S
C604 C602 1.371 . S
C604 C605 1.392 . S
C604 H620 0.931 . S
C605 C604 1.392 . S
C605 C606 1.331 . S
C605 H623 0.932 . S
C606 C605 1.331 . S
C606 C607 1.336 . S
C607 C603 1.394 . S
C607 C606 1.336 . S
C607 H622 0.929 . S
C608 C598 1.386 . S
C608 C601 1.357 . S
C608 H621 0.928 . S
H609 C585 0.931 . S
H610 C587 0.930 . S
H611 C589 0.929 . S
H612 C590 0.931 . S
H613 C592 0.930 . S
H614 C596 0.931 . S
H615 C594 0.931 . S
H616 C598 0.931 . S
H617 C599 0.929 . S
H618 C600 0.930 . S
H619 C603 0.930 . S
H620 C604 0.931 . S
H621 C608 0.928 . S
H622 C607 0.929 . S
H623 C605 0.932 . S
C624 C625 1.386 1_655 S
C624 C626 1.397 1_655 S
C624 H648 0.931 . S
C625 C624 1.386 1_455 S
C625 C629 1.397 . S
C626 C624 1.397 1_455 S
C626 C627 1.384 . S
C626 H649 0.930 1_455 S
C627 C626 1.384 . S
C627 C628 1.377 . S
C627 C630 1.481 . S
C628 C627 1.377 . S
C628 C629 1.389 . S
C628 H650 0.929 . S
C629 C625 1.397 . S
C629 C628 1.389 . S
C629 H651 0.931 . S
C630 C627 1.481 . S
C630 C631 1.387 . S
C630 C635 1.390 . S
C631 C630 1.387 . S
C631 C632 1.401 . S
C631 H652 0.930 . S
C632 C631 1.401 . S
C632 C633 1.376 . S
C632 C641 1.511 . S
C633 C632 1.376 . S
C633 C634 1.392 . S
C633 H654 0.931 . S
C634 C633 1.392 . S
C634 C635 1.361 . S
C634 C636 1.500 . S
C635 C630 1.390 . S
C635 C634 1.361 . S
C635 H653 0.931 . S
C636 C634 1.500 . S
C636 C637 1.371 . S
C636 C638 1.365 . S
C637 C636 1.371 . S
C637 C647 1.386 . S
C637 H655 0.931 . S
C638 C636 1.365 . S
C638 C639 1.409 . S
C638 H656 0.929 . S
C639 C638 1.409 . S
C639 C640 1.380 . S
C639 H657 0.930 . S
C640 C639 1.380 . S
C640 C647 1.357 . S
C641 C632 1.511 . S
C641 C642 1.341 . S
C641 C643 1.371 . S
C642 C641 1.341 . S
C642 C646 1.394 . S
C642 H658 0.930 . S
C643 C641 1.371 . S
C643 C644 1.392 . S
C643 H659 0.931 . S
C644 C643 1.392 . S
C644 C645 1.331 . S
C644 H662 0.932 . S
C645 C644 1.331 . S
C645 C646 1.336 . S
C646 C642 1.394 . S
C646 C645 1.336 . S
C646 H661 0.929 . S
C647 C637 1.386 . S
C647 C640 1.357 . S
C647 H660 0.928 . S
H648 C624 0.931 . S
H649 C626 0.930 1_655 S
H650 C628 0.929 . S
H651 C629 0.931 . S
H652 C631 0.930 . S
H653 C635 0.931 . S
H654 C633 0.931 . S
H655 C637 0.931 . S
H656 C638 0.929 . S
H657 C639 0.930 . S
H658 C642 0.930 . S
H659 C643 0.931 . S
H660 C647 0.928 . S
H661 C646 0.929 . S
H662 C644 0.932 . S
C663 C664 1.386 . S
C663 C665 1.397 . S
C663 H687 0.931 . S
C664 C663 1.386 . S
C664 C668 1.397 . S
C665 C663 1.397 . S
C665 C666 1.384 . S
C665 H688 0.930 . S
C666 C665 1.384 . S
C666 C667 1.377 . S
C666 C669 1.481 . S
C667 C666 1.377 . S
C667 C668 1.389 . S
C667 H689 0.929 . S
C668 C664 1.397 . S
C668 C667 1.389 . S
C668 H690 0.931 . S
C669 C666 1.481 . S
C669 C670 1.387 . S
C669 C674 1.390 . S
C670 C669 1.387 . S
C670 C671 1.401 . S
C670 H691 0.930 . S
C671 C670 1.401 . S
C671 C672 1.376 . S
C671 C680 1.511 . S
C672 C671 1.376 . S
C672 C673 1.392 . S
C672 H693 0.931 . S
C673 C672 1.392 . S
C673 C674 1.361 . S
C673 C675 1.500 . S
C674 C669 1.390 . S
C674 C673 1.361 . S
C674 H692 0.931 . S
C675 C673 1.500 . S
C675 C676 1.371 . S
C675 C677 1.365 . S
C676 C675 1.371 . S
C676 C686 1.386 . S
C676 H694 0.931 . S
C677 C675 1.365 . S
C677 C678 1.409 . S
C677 H695 0.929 . S
C678 C677 1.409 . S
C678 C679 1.380 . S
C678 H696 0.930 . S
C679 C678 1.380 . S
C679 C686 1.357 . S
C680 C671 1.511 . S
C680 C681 1.341 . S
C680 C682 1.371 . S
C681 C680 1.341 . S
C681 C685 1.394 . S
C681 H697 0.930 . S
C682 C680 1.371 . S
C682 C683 1.392 . S
C682 H698 0.931 . S
C683 C682 1.392 . S
C683 C684 1.331 . S
C683 H701 0.932 . S
C684 C683 1.331 . S
C684 C685 1.336 . S
C685 C681 1.394 . S
C685 C684 1.336 . S
C685 H700 0.929 . S
C686 C676 1.386 . S
C686 C679 1.357 . S
C686 H699 0.928 . S
H687 C663 0.931 . S
H688 C665 0.930 . S
H689 C667 0.929 . S
H690 C668 0.931 . S
H691 C670 0.930 . S
H692 C674 0.931 . S
H693 C672 0.931 . S
H694 C676 0.931 . S
H695 C677 0.929 . S
H696 C678 0.930 . S
H697 C681 0.930 . S
H698 C682 0.931 . S
H699 C686 0.928 . S
H700 C685 0.929 . S
H701 C683 0.932 . S
O702 Mg703 1.990 . S
O702 C716 1.243 1_565 S
Mg703 O702 1.990 . S
Mg703 O706 2.180 1_556 S
Mg703 O707 2.117 . S
Mg703 O721 2.030 1_565 S
O704 Mg705 2.072 1_556 S
O704 C716 1.265 . S
Mg705 O704 2.072 1_554 S
Mg705 O706 2.099 1_545 S
Mg705 O708 2.079 . S
Mg705 O709 2.072 1_545 S
Mg705 O711 2.099 . S
Mg705 O722 2.079 . S
O706 Mg703 2.180 1_554 S
O706 Mg705 2.099 1_565 S
O706 C717 1.279 1_554 S
O707 Mg703 2.117 . S
O707 C717 1.252 . S
O708 Mg705 2.079 . S
O708 C718 1.264 . S
O709 Mg705 2.072 1_565 S
O709 C719 1.260 . S
Mg710 O711 2.180 . S
Mg710 O712 2.030 . S
Mg710 O713 1.990 1_545 S
Mg710 O714 2.117 . S
O711 Mg705 2.099 . S
O711 Mg710 2.180 . S
O711 C720 1.287 . S
O712 Mg710 2.030 . S
O712 C718 1.248 . S
O713 Mg710 1.990 1_565 S
O713 C719 1.253 . S
O714 Mg710 2.117 . S
O714 C720 1.255 . S
C715 O721 1.248 . S
C715 O722 1.264 1_556 S
C716 O702 1.243 1_545 S
C716 O704 1.265 . S
C717 O706 1.279 1_556 S
C717 O707 1.252 . S
C718 O708 1.264 . S
C718 O712 1.248 . S
C719 O709 1.260 . S
C719 O713 1.253 . S
C720 O711 1.287 . S
C720 O714 1.255 . S
O721 Mg703 2.030 1_545 S
O721 C715 1.248 . S
O722 Mg705 2.079 . S
O722 C715 1.264 1_554 S
O723 Mg724 1.990 . S
O723 C737 1.253 . S
Mg724 O723 1.990 . S
Mg724 O727 2.180 1_556 S
Mg724 O728 2.117 . S
Mg724 O742 2.030 1_455 S
O725 Mg726 2.072 1_556 S
O725 C737 1.260 1_655 S
Mg726 O725 2.072 1_554 S
Mg726 O727 2.099 1_655 S
Mg726 O729 2.079 . S
Mg726 O730 2.072 1_655 S
Mg726 O732 2.099 . S
Mg726 O743 2.079 . S
O727 Mg724 2.180 1_554 S
O727 Mg726 2.099 1_455 S
O727 C738 1.279 . S
O728 Mg724 2.117 . S
O728 C738 1.250 1_556 S
O729 Mg726 2.079 . S
O729 C739 1.264 1_655 S
O730 Mg726 2.072 1_455 S
O730 C740 1.260 . S
Mg731 O732 2.180 . S
Mg731 O733 2.030 1_655 S
Mg731 O734 1.990 1_655 S
Mg731 O735 2.117 . S
O732 Mg726 2.099 . S
O732 Mg731 2.180 . S
O732 C741 1.280 1_554 S
O733 Mg731 2.030 1_455 S
O733 C739 1.248 . S
O734 Mg731 1.990 1_455 S
O734 C740 1.253 . S
O735 Mg731 2.117 . S
O735 C741 1.251 1_554 S
C736 O742 1.248 . S
C736 O743 1.264 1_556 S
C737 O723 1.253 . S
C737 O725 1.260 1_455 S
C738 O727 1.279 . S
C738 O728 1.250 1_554 S
C739 O729 1.264 1_455 S
C739 O733 1.248 . S
C740 O730 1.260 . S
C740 O734 1.253 . S
C741 O732 1.280 1_556 S
C741 O735 1.251 1_556 S
O742 Mg724 2.030 1_655 S
O742 C736 1.248 . S
O743 Mg726 2.079 . S
O743 C736 1.264 1_554 S
O744 Mg745 1.990 . S
O744 C758 1.253 . S
Mg745 O744 1.990 . S
Mg745 O748 2.180 . S
Mg745 O749 2.117 . S
Mg745 O763 2.030 . S
O746 Mg747 2.083 . S
O746 C758 1.260 . S
Mg747 O746 2.083 . S
Mg747 O748 2.100 . S
Mg747 O750 2.068 1_554 S
Mg747 O751 2.072 1_554 S
Mg747 O753 2.097 1_554 S
Mg747 O764 2.079 . S
O748 Mg745 2.180 . S
O748 Mg747 2.100 . S
O748 C759 1.279 . S
O749 Mg745 2.117 . S
O749 C759 1.250 . S
O750 Mg747 2.068 1_556 S
O750 C760 1.264 . S
O751 Mg747 2.072 1_556 S
O751 C761 1.260 . S
Mg752 O753 2.180 . S
Mg752 O754 2.030 . S
Mg752 O755 1.990 . S
Mg752 O756 2.104 1_556 S
O753 Mg747 2.097 1_556 S
O753 Mg752 2.180 . S
O753 C762 1.279 1_556 S
O754 Mg752 2.030 . S
O754 C760 1.248 . S
O755 Mg752 1.990 . S
O755 C761 1.253 . S
O756 Mg752 2.104 1_554 S
O756 C762 1.256 . S
C757 O763 1.248 . S
C757 O764 1.264 . S
C758 O744 1.253 . S
C758 O746 1.260 . S
C759 O748 1.279 . S
C759 O749 1.250 . S
C760 O750 1.264 . S
C760 O754 1.248 . S
C761 O751 1.260 . S
C761 O755 1.253 . S
C762 O753 1.279 1_554 S
C762 O756 1.256 . S
O763 Mg745 2.030 . S
O763 C757 1.248 . S
O764 Mg747 2.079 . S
O764 C757 1.264 . S
O765 Mg766 1.990 . S
O765 C779 1.253 . S
Mg766 O765 1.990 . S
Mg766 O769 2.180 . S
Mg766 O770 2.117 . S
Mg766 O784 2.030 . S
O767 Mg768 2.072 . S
O767 C779 1.260 . S
Mg768 O767 2.072 . S
Mg768 O769 2.099 . S
Mg768 O771 2.079 . S
Mg768 O772 2.072 . S
Mg768 O774 2.099 . S
Mg768 O785 2.079 . S
O769 Mg766 2.180 . S
O769 Mg768 2.099 . S
O769 C780 1.279 . S
O770 Mg766 2.117 . S
O770 C780 1.250 . S
O771 Mg768 2.079 . S
O771 C781 1.264 . S
O772 Mg768 2.072 . S
O772 C782 1.260 . S
Mg773 O774 2.180 . S
Mg773 O775 2.030 . S
Mg773 O776 1.990 . S
Mg773 O777 2.117 . S
O774 Mg768 2.099 . S
O774 Mg773 2.180 . S
O774 C783 1.279 . S
O775 Mg773 2.030 . S
O775 C781 1.248 . S
O776 Mg773 1.990 . S
O776 C782 1.253 . S
O777 Mg773 2.117 . S
O777 C783 1.250 . S
C778 O784 1.248 . S
C778 O785 1.264 . S
C779 O765 1.253 . S
C779 O767 1.260 . S
C780 O769 1.279 . S
C780 O770 1.250 . S
C781 O771 1.264 . S
C781 O775 1.248 . S
C782 O772 1.260 . S
C782 O776 1.253 . S
C783 O774 1.279 . S
C783 O777 1.250 . S
O784 Mg766 2.030 . S
O784 C778 1.248 . S
O785 Mg768 2.079 . S
O785 C778 1.264 . S
O786 Mg787 1.990 . S
O786 C800 1.253 . S
Mg787 O786 1.990 . S
Mg787 O790 2.180 . S
Mg787 O791 2.117 . S
Mg787 O805 2.030 . S
O788 Mg789 2.072 . S
O788 C800 1.260 . S
Mg789 O788 2.072 . S
Mg789 O790 2.099 . S
Mg789 O792 2.079 . S
Mg789 O793 2.072 . S
Mg789 O795 2.099 . S
Mg789 O806 2.079 . S
O790 Mg787 2.180 . S
O790 Mg789 2.099 . S
O790 C801 1.279 . S
O791 Mg787 2.117 . S
O791 C801 1.250 . S
O792 Mg789 2.079 . S
O792 C802 1.264 . S
O793 Mg789 2.072 . S
O793 C803 1.260 . S
Mg794 O795 2.180 . S
Mg794 O796 2.030 . S
Mg794 O797 1.990 . S
Mg794 O798 2.117 . S
O795 Mg789 2.099 . S
O795 Mg794 2.180 . S
O795 C804 1.279 . S
O796 Mg794 2.030 . S
O796 C802 1.248 . S
O797 Mg794 1.990 . S
O797 C803 1.253 . S
O798 Mg794 2.117 . S
O798 C804 1.250 . S
C799 O805 1.248 . S
C799 O806 1.264 . S
C800 O786 1.253 . S
C800 O788 1.260 . S
C801 O790 1.279 . S
C801 O791 1.250 . S
C802 O792 1.264 . S
C802 O796 1.248 . S
C803 O793 1.260 . S
C803 O797 1.253 . S
C804 O795 1.279 . S
C804 O798 1.250 . S
O805 Mg787 2.030 . S
O805 C799 1.248 . S
O806 Mg789 2.079 . S
O806 C799 1.264 . S
O807 Mg808 1.990 . S
O807 C821 1.253 . S
Mg808 O807 1.990 . S
Mg808 O811 2.180 . S
Mg808 O812 2.117 . S
Mg808 O826 2.030 . S
O809 Mg810 2.072 . S
O809 C821 1.260 . S
Mg810 O809 2.072 . S
Mg810 O811 2.099 . S
Mg810 O813 2.079 . S
Mg810 O814 2.072 . S
Mg810 O816 2.099 . S
Mg810 O827 2.079 . S
O811 Mg808 2.180 . S
O811 Mg810 2.099 . S
O811 C822 1.279 . S
O812 Mg808 2.117 . S
O812 C822 1.250 . S
O813 Mg810 2.079 . S
O813 C823 1.264 . S
O814 Mg810 2.072 . S
O814 C824 1.260 . S
Mg815 O816 2.180 . S
Mg815 O817 2.030 . S
Mg815 O818 1.990 . S
Mg815 O819 2.117 . S
O816 Mg810 2.099 . S
O816 Mg815 2.180 . S
O816 C825 1.279 . S
O817 Mg815 2.030 . S
O817 C823 1.248 . S
O818 Mg815 1.990 . S
O818 C824 1.253 . S
O819 Mg815 2.117 . S
O819 C825 1.250 . S
C820 O826 1.248 . S
C820 O827 1.264 . S
C821 O807 1.253 . S
C821 O809 1.260 . S
C822 O811 1.279 . S
C822 O812 1.250 . S
C823 O813 1.264 . S
C823 O817 1.248 . S
C824 O814 1.260 . S
C824 O818 1.253 . S
C825 O816 1.279 . S
C825 O819 1.250 . S
O826 Mg808 2.030 . S
O826 C820 1.248 . S
O827 Mg810 2.079 . S
O827 C820 1.264 . S
O828 Mg829 1.990 . S
O828 C842 1.253 . S
Mg829 O828 1.990 . S
Mg829 O832 2.180 . S
Mg829 O833 2.117 . S
Mg829 O847 2.030 . S
O830 Mg831 2.072 . S
O830 C842 1.260 . S
Mg831 O830 2.072 . S
Mg831 O832 2.099 . S
Mg831 O834 2.079 . S
Mg831 O835 2.072 . S
Mg831 O837 2.099 . S
Mg831 O848 2.079 . S
O832 Mg829 2.180 . S
O832 Mg831 2.099 . S
O832 C843 1.279 . S
O833 Mg829 2.117 . S
O833 C843 1.250 . S
O834 Mg831 2.079 . S
O834 C844 1.264 . S
O835 Mg831 2.072 . S
O835 C845 1.260 . S
Mg836 O837 2.180 . S
Mg836 O838 2.030 . S
Mg836 O839 1.990 . S
Mg836 O840 2.117 . S
O837 Mg831 2.099 . S
O837 Mg836 2.180 . S
O837 C846 1.279 . S
O838 Mg836 2.030 . S
O838 C844 1.248 . S
O839 Mg836 1.990 . S
O839 C845 1.253 . S
O840 Mg836 2.117 . S
O840 C846 1.250 . S
C841 O847 1.248 . S
C841 O848 1.264 . S
C842 O828 1.253 . S
C842 O830 1.260 . S
C843 O832 1.279 . S
C843 O833 1.250 . S
C844 O834 1.264 . S
C844 O838 1.248 . S
C845 O835 1.260 . S
C845 O839 1.253 . S
C846 O837 1.279 . S
C846 O840 1.250 . S
O847 Mg829 2.030 . S
O847 C841 1.248 . S
O848 Mg831 2.079 . S
O848 C841 1.264 . S
O849 Mg850 1.990 . S
O849 C863 1.253 . S
Mg850 O849 1.990 . S
Mg850 O853 2.180 . S
Mg850 O854 2.117 . S
Mg850 O868 2.030 . S
O851 Mg852 2.072 . S
O851 C863 1.260 . S
Mg852 O851 2.072 . S
Mg852 O853 2.099 . S
Mg852 O855 2.079 . S
Mg852 O856 2.072 . S
Mg852 O858 2.099 . S
Mg852 O869 2.079 . S
O853 Mg850 2.180 . S
O853 Mg852 2.099 . S
O853 C864 1.279 . S
O854 Mg850 2.117 . S
O854 C864 1.250 . S
O855 Mg852 2.079 . S
O855 C865 1.264 . S
O856 Mg852 2.072 . S
O856 C866 1.260 . S
Mg857 O858 2.180 . S
Mg857 O859 2.030 . S
Mg857 O860 1.990 . S
Mg857 O861 2.117 . S
O858 Mg852 2.099 . S
O858 Mg857 2.180 . S
O858 C867 1.279 . S
O859 Mg857 2.030 . S
O859 C865 1.248 . S
O860 Mg857 1.990 . S
O860 C866 1.253 . S
O861 Mg857 2.117 . S
O861 C867 1.250 . S
C862 O868 1.248 . S
C862 O869 1.264 . S
C863 O849 1.253 . S
C863 O851 1.260 . S
C864 O853 1.279 . S
C864 O854 1.250 . S
C865 O855 1.264 . S
C865 O859 1.248 . S
C866 O856 1.260 . S
C866 O860 1.253 . S
C867 O858 1.279 . S
C867 O861 1.250 . S
O868 Mg850 2.030 . S
O868 C862 1.248 . S
O869 Mg852 2.079 . S
O869 C862 1.264 . S
O870 Mg871 1.990 . S
O870 C884 1.253 . S
Mg871 O870 1.990 . S
Mg871 O874 2.180 . S
Mg871 O875 2.117 . S
Mg871 O889 2.030 . S
O872 Mg873 2.072 . S
O872 C884 1.260 . S
Mg873 O872 2.072 . S
Mg873 O874 2.099 . S
Mg873 O876 2.079 . S
Mg873 O877 2.072 . S
Mg873 O879 2.099 . S
Mg873 O890 2.079 . S
O874 Mg871 2.180 . S
O874 Mg873 2.099 . S
O874 C885 1.279 . S
O875 Mg871 2.117 . S
O875 C885 1.250 . S
O876 Mg873 2.079 . S
O876 C886 1.264 . S
O877 Mg873 2.072 . S
O877 C887 1.260 . S
Mg878 O879 2.180 . S
Mg878 O880 2.030 . S
Mg878 O881 1.990 . S
Mg878 O882 2.117 . S
O879 Mg873 2.099 . S
O879 Mg878 2.180 . S
O879 C888 1.279 . S
O880 Mg878 2.030 . S
O880 C886 1.248 . S
O881 Mg878 1.990 . S
O881 C887 1.253 . S
O882 Mg878 2.117 . S
O882 C888 1.250 . S
C883 O889 1.248 . S
C883 O890 1.264 . S
C884 O870 1.253 . S
C884 O872 1.260 . S
C885 O874 1.279 . S
C885 O875 1.250 . S
C886 O876 1.264 . S
C886 O880 1.248 . S
C887 O877 1.260 . S
C887 O881 1.253 . S
C888 O879 1.279 . S
C888 O882 1.250 . S
O889 Mg871 2.030 . S
O889 C883 1.248 . S
O890 Mg873 2.079 . S
O890 C883 1.264 . S
C528 C719 1.778 . S
C562 C740 1.762 . S
C484 C762 1.191 . S
C445 C741 1.238 1_554 S
C761 C367 1.833 1_556 S
C411 C720 1.273 . S
C715 C450 1.721 1_556 S
C736 C372 1.778 1_556 S
C406 C759 1.363 . S
C523 C738 1.252 . S
C567 C757 1.652 . S
C717 C489 1.319 1_556 S
C782 C60 1.778 . S
C94 C803 1.762 . S
C16 C825 1.191 . S
C679 C804 1.239 . S
C601 C824 1.834 . S
C645 C783 1.267 . S
C684 C778 1.722 . S
C606 C799 1.779 . S
C822 C640 1.363 . S
C55 C801 1.251 . S
C820 C99 1.652 . S
C21 C780 1.321 . S
C845 C294 1.778 . S
C328 C866 1.763 . S
C888 C250 1.191 . S
C867 C211 1.238 . S
C887 C133 1.833 . S
C177 C846 1.268 . S
C216 C841 1.721 . S
C138 C862 1.778 . S
C885 C172 1.363 . S
C289 C864 1.251 . S
C333 C883 1.653 . S
C255 C843 1.320 . S
C586 C718 1.428 . S
C739 C625 1.476 . S
C664 C758 1.584 . S
C235 C737 1.612 1_655 S
C274 C760 1.468 . S
C716 C313 1.609 . S
C118 C781 1.428 . S
C157 C802 1.476 . S
C196 C821 1.584 . S
C469 C800 1.612 . S
C823 C508 1.469 . S
C547 C779 1.609 . S
C352 C844 1.427 . S
C391 C865 1.476 . S
C884 C430 1.584 . S
C1 C863 1.611 . S
C40 C886 1.469 . S
C79 C842 1.610 . S
