# Generated by pormake.
# Topology eea, (3,6)-cn, num edge types: 1
# Building blocks:
#     Node 0, Type 0, BuildingBlock: BELTOD_clean_linker_0, # of connection points: 3
#     Node 1, Type 0, BuildingBlock: BELTOD_clean_linker_0, # of connection points: 3
#     Node 2, Type 0, BuildingBlock: BELTOD_clean_linker_0, # of connection points: 3
#     Node 3, Type 0, BuildingBlock: BELTOD_clean_linker_0, # of connection points: 3
#     Node 4, Type 0, BuildingBlock: BELTOD_clean_linker_0, # of connection points: 3
#     Node 5, Type 0, BuildingBlock: BELTOD_clean_linker_0, # of connection points: 3
#     Node 6, Type 0, BuildingBlock: BELTOD_clean_linker_0, # of connection points: 3
#     Node 7, Type 0, BuildingBlock: BELTOD_clean_linker_0, # of connection points: 3
#     Node 8, Type 0, BuildingBlock: BELTOD_clean_linker_0, # of connection points: 3
#     Node 9, Type 0, BuildingBlock: BELTOD_clean_linker_0, # of connection points: 3
#     Node 10, Type 0, BuildingBlock: BELTOD_clean_linker_0, # of connection points: 3
#     Node 11, Type 0, BuildingBlock: BELTOD_clean_linker_0, # of connection points: 3
#     Node 12, Type 0, BuildingBlock: BELTOD_clean_linker_0, # of connection points: 3
#     Node 13, Type 0, BuildingBlock: BELTOD_clean_linker_0, # of connection points: 3
#     Node 14, Type 0, BuildingBlock: BELTOD_clean_linker_0, # of connection points: 3
#     Node 15, Type 0, BuildingBlock: BELTOD_clean_linker_0, # of connection points: 3
#     Node 16, Type 0, BuildingBlock: BELTOD_clean_linker_0, # of connection points: 3
#     Node 17, Type 0, BuildingBlock: BELTOD_clean_linker_0, # of connection points: 3
#     Node 18, Type 1, BuildingBlock: CUWYAW_clean_sbu_0, # of connection points: 6
#     Node 19, Type 1, BuildingBlock: CUWYAW_clean_sbu_0, # of connection points: 6
#     Node 20, Type 1, BuildingBlock: CUWYAW_clean_sbu_0, # of connection points: 6
#     Node 21, Type 1, BuildingBlock: CUWYAW_clean_sbu_0, # of connection points: 6
#     Node 22, Type 1, BuildingBlock: CUWYAW_clean_sbu_0, # of connection points: 6
#     Node 23, Type 1, BuildingBlock: CUWYAW_clean_sbu_0, # of connection points: 6
#     Node 24, Type 1, BuildingBlock: CUWYAW_clean_sbu_0, # of connection points: 6
#     Node 25, Type 1, BuildingBlock: CUWYAW_clean_sbu_0, # of connection points: 6
#     Node 26, Type 1, BuildingBlock: CUWYAW_clean_sbu_0, # of connection points: 6
#     Edge 27, Type (0, 1), BuildingBlock: OJICUG_clean_linker_0, # of connection points: 2
#     Edge 28, Type (0, 1), BuildingBlock: OJICUG_clean_linker_0, # of connection points: 2
#     Edge 29, Type (0, 1), BuildingBlock: OJICUG_clean_linker_0, # of connection points: 2
#     Edge 30, Type (0, 1), BuildingBlock: OJICUG_clean_linker_0, # of connection points: 2
#     Edge 31, Type (0, 1), BuildingBlock: OJICUG_clean_linker_0, # of connection points: 2
#     Edge 32, Type (0, 1), BuildingBlock: OJICUG_clean_linker_0, # of connection points: 2
#     Edge 33, Type (0, 1), BuildingBlock: OJICUG_clean_linker_0, # of connection points: 2
#     Edge 34, Type (0, 1), BuildingBlock: OJICUG_clean_linker_0, # of connection points: 2
#     Edge 35, Type (0, 1), BuildingBlock: OJICUG_clean_linker_0, # of connection points: 2
#     Edge 36, Type (0, 1), BuildingBlock: OJICUG_clean_linker_0, # of connection points: 2
#     Edge 37, Type (0, 1), BuildingBlock: OJICUG_clean_linker_0, # of connection points: 2
#     Edge 38, Type (0, 1), BuildingBlock: OJICUG_clean_linker_0, # of connection points: 2
#     Edge 39, Type (0, 1), BuildingBlock: OJICUG_clean_linker_0, # of connection points: 2
#     Edge 40, Type (0, 1), BuildingBlock: OJICUG_clean_linker_0, # of connection points: 2
#     Edge 41, Type (0, 1), BuildingBlock: OJICUG_clean_linker_0, # of connection points: 2
#     Edge 42, Type (0, 1), BuildingBlock: OJICUG_clean_linker_0, # of connection points: 2
#     Edge 43, Type (0, 1), BuildingBlock: OJICUG_clean_linker_0, # of connection points: 2
#     Edge 44, Type (0, 1), BuildingBlock: OJICUG_clean_linker_0, # of connection points: 2
#     Edge 45, Type (0, 1), BuildingBlock: OJICUG_clean_linker_0, # of connection points: 2
#     Edge 46, Type (0, 1), BuildingBlock: OJICUG_clean_linker_0, # of connection points: 2
#     Edge 47, Type (0, 1), BuildingBlock: OJICUG_clean_linker_0, # of connection points: 2
#     Edge 48, Type (0, 1), BuildingBlock: OJICUG_clean_linker_0, # of connection points: 2
#     Edge 49, Type (0, 1), BuildingBlock: OJICUG_clean_linker_0, # of connection points: 2
#     Edge 50, Type (0, 1), BuildingBlock: OJICUG_clean_linker_0, # of connection points: 2
#     Edge 51, Type (0, 1), BuildingBlock: OJICUG_clean_linker_0, # of connection points: 2
#     Edge 52, Type (0, 1), BuildingBlock: OJICUG_clean_linker_0, # of connection points: 2
#     Edge 53, Type (0, 1), BuildingBlock: OJICUG_clean_linker_0, # of connection points: 2
#     Edge 54, Type (0, 1), BuildingBlock: OJICUG_clean_linker_0, # of connection points: 2
#     Edge 55, Type (0, 1), BuildingBlock: OJICUG_clean_linker_0, # of connection points: 2
#     Edge 56, Type (0, 1), BuildingBlock: OJICUG_clean_linker_0, # of connection points: 2
#     Edge 57, Type (0, 1), BuildingBlock: OJICUG_clean_linker_0, # of connection points: 2
#     Edge 58, Type (0, 1), BuildingBlock: OJICUG_clean_linker_0, # of connection points: 2
#     Edge 59, Type (0, 1), BuildingBlock: OJICUG_clean_linker_0, # of connection points: 2
#     Edge 60, Type (0, 1), BuildingBlock: OJICUG_clean_linker_0, # of connection points: 2
#     Edge 61, Type (0, 1), BuildingBlock: OJICUG_clean_linker_0, # of connection points: 2
#     Edge 62, Type (0, 1), BuildingBlock: OJICUG_clean_linker_0, # of connection points: 2
#     Edge 63, Type (0, 1), BuildingBlock: OJICUG_clean_linker_0, # of connection points: 2
#     Edge 64, Type (0, 1), BuildingBlock: OJICUG_clean_linker_0, # of connection points: 2
#     Edge 65, Type (0, 1), BuildingBlock: OJICUG_clean_linker_0, # of connection points: 2
#     Edge 66, Type (0, 1), BuildingBlock: OJICUG_clean_linker_0, # of connection points: 2
#     Edge 67, Type (0, 1), BuildingBlock: OJICUG_clean_linker_0, # of connection points: 2
#     Edge 68, Type (0, 1), BuildingBlock: OJICUG_clean_linker_0, # of connection points: 2
#     Edge 69, Type (0, 1), BuildingBlock: OJICUG_clean_linker_0, # of connection points: 2
#     Edge 70, Type (0, 1), BuildingBlock: OJICUG_clean_linker_0, # of connection points: 2
#     Edge 71, Type (0, 1), BuildingBlock: OJICUG_clean_linker_0, # of connection points: 2
#     Edge 72, Type (0, 1), BuildingBlock: OJICUG_clean_linker_0, # of connection points: 2
#     Edge 73, Type (0, 1), BuildingBlock: OJICUG_clean_linker_0, # of connection points: 2
#     Edge 74, Type (0, 1), BuildingBlock: OJICUG_clean_linker_0, # of connection points: 2
#     Edge 75, Type (0, 1), BuildingBlock: OJICUG_clean_linker_0, # of connection points: 2
#     Edge 76, Type (0, 1), BuildingBlock: OJICUG_clean_linker_0, # of connection points: 2
#     Edge 77, Type (0, 1), BuildingBlock: OJICUG_clean_linker_0, # of connection points: 2
#     Edge 78, Type (0, 1), BuildingBlock: OJICUG_clean_linker_0, # of connection points: 2
#     Edge 79, Type (0, 1), BuildingBlock: OJICUG_clean_linker_0, # of connection points: 2
#     Edge 80, Type (0, 1), BuildingBlock: OJICUG_clean_linker_0, # of connection points: 2
# Relax obj value: 0.032
# Max RMSD: 0.127
# Mean RMSD: 0.096
data_MOF--net-eea--node1-CUWYAW_clean_sbu_0--node2-BELTOD_clean_linker_0--edge1-OJICUG_clean_linker_0
_symmetry_space_group_name_H-M    P1
_symmetry_Int_Tables_number       1
_symmetry_cell_setting            triclinic
loop_
_symmetry_equiv_pos_as_xyz
'x, y, z'
_cell_length_a     44.372206
_cell_length_b     43.751856
_cell_length_c     68.13929
_cell_angle_alpha  94.039608
_cell_angle_beta   93.439435
_cell_angle_gamma 119.9214
loop_
_atom_site_label
_atom_site_type_symbol
_atom_site_fract_x
_atom_site_fract_y
_atom_site_fract_z
_atom_type_partial_charge
P0 P 0.28322 0.14894 0.39676 0.0
H1 H 0.23382 0.11014 0.36117 0.0
H2 H 0.2041 0.04781 0.34718 0.0
H3 H 0.24874 0.02362 0.39772 0.0
H4 H 0.27905 0.08597 0.41127 0.0
H5 H 0.30807 0.20961 0.37399 0.0
H6 H 0.28055 0.24126 0.36092 0.0
H7 H 0.18652 0.17315 0.38705 0.0
H8 H 0.21415 0.14089 0.3997 0.0
H9 H 0.34302 0.19601 0.42578 0.0
H10 H 0.2351 0.11513 0.42631 0.0
O11 O 0.32253 0.16478 0.38871 0.0
H12 H 0.35208 0.20034 0.46181 0.0
H13 H 0.24408 0.11872 0.46236 0.0
C14 C 0.25796 0.10255 0.38751 0.0
C15 C 0.23671 0.0913 0.3694 0.0
C16 C 0.21966 0.05562 0.36143 0.0
C17 C 0.224 0.0307 0.37134 0.0
C18 C 0.24508 0.04215 0.3896 0.0
C19 C 0.26215 0.07777 0.39749 0.0
C20 C 0.26311 0.17292 0.3878 0.0
C21 C 0.28156 0.20148 0.37695 0.0
C22 C 0.26584 0.21973 0.36958 0.0
C23 C 0.23135 0.20983 0.37299 0.0
C24 C 0.21298 0.18122 0.38399 0.0
C25 C 0.2288 0.16294 0.39135 0.0
C26 C 0.28861 0.1547 0.42339 0.0
C27 C 0.32123 0.17925 0.43367 0.0
C28 C 0.3264 0.18161 0.45427 0.0
C29 C 0.29894 0.15952 0.46495 0.0
C30 C 0.26574 0.13625 0.45462 0.0
C31 C 0.26061 0.13399 0.434 0.0
P32 P 0.9135 0.10057 0.42919 0.0
H33 H 0.90681 0.03655 0.40853 0.0
H34 H 0.86259 0.99027 0.38403 0.0
H35 H 0.80472 0.04576 0.38335 0.0
H36 H 0.84871 0.09144 0.40871 0.0
H37 H 0.98912 0.14653 0.4362 0.0
H38 H 0.0312 0.19534 0.41972 0.0
H39 H 0.94666 0.1885 0.38105 0.0
H40 H 0.90455 0.13904 0.39752 0.0
H41 H 0.84641 0.06109 0.44511 0.0
H42 H 0.93982 0.16402 0.45768 0.0
O43 O 0.93579 0.08337 0.43966 0.0
H44 H 0.82422 0.07262 0.47491 0.0
H45 H 0.91777 0.17565 0.48774 0.0
C46 C 0.88083 0.0672 0.4106 0.0
C47 C 0.88457 0.03876 0.40319 0.0
C48 C 0.85935 0.01242 0.38898 0.0
C49 C 0.83006 0.01427 0.38159 0.0
C50 C 0.82668 0.04322 0.38887 0.0
C51 C 0.8519 0.06948 0.40326 0.0
C52 C 0.94374 0.13864 0.41786 0.0
C53 C 0.97955 0.15552 0.42422 0.0
C54 C 0.00362 0.18371 0.41486 0.0
C55 C 0.99234 0.19583 0.39899 0.0
C56 C 0.95624 0.17949 0.39303 0.0
C57 C 0.93212 0.15125 0.40248 0.0
C58 C 0.89432 0.11213 0.44881 0.0
C59 C 0.86168 0.08666 0.45392 0.0
C60 C 0.84904 0.09324 0.47104 0.0
C61 C 0.86919 0.12511 0.48364 0.0
C62 C 0.9017 0.15083 0.47833 0.0
C63 C 0.91416 0.14434 0.46106 0.0
P64 P 0.85777 0.71053 0.41532 0.0
H65 H 0.79979 0.68277 0.38386 0.0
H66 H 0.76877 0.70887 0.36794 0.0
H67 H 0.83697 0.80887 0.40387 0.0
H68 H 0.86757 0.78214 0.42007 0.0
H69 H 0.88334 0.6817 0.38506 0.0
H70 H 0.93951 0.70478 0.37185 0.0
H71 H 0.98123 0.8011 0.41212 0.0
H72 H 0.92478 0.77712 0.4257 0.0
H73 H 0.8147 0.72375 0.44169 0.0
H74 H 0.9036 0.70866 0.44729 0.0
O75 O 0.83475 0.6667 0.40893 0.0
H76 H 0.81092 0.72189 0.47717 0.0
H77 H 0.90004 0.70688 0.48295 0.0
C78 C 0.83566 0.73042 0.40333 0.0
C79 C 0.80808 0.71029 0.38836 0.0
C80 C 0.79052 0.72537 0.37913 0.0
C81 C 0.80035 0.76099 0.38463 0.0
C82 C 0.82845 0.78125 0.39947 0.0
C83 C 0.84606 0.7661 0.40867 0.0
C84 C 0.9001 0.72746 0.40658 0.0
C85 C 0.90465 0.70762 0.39122 0.0
C86 C 0.93676 0.72106 0.38352 0.0
C87 C 0.96494 0.75491 0.39084 0.0
C88 C 0.96025 0.77478 0.40629 0.0
C89 C 0.928 0.76119 0.41403 0.0
C90 C 0.86 0.71723 0.44188 0.0
C91 C 0.83417 0.72122 0.45064 0.0
C92 C 0.83199 0.72011 0.47098 0.0
C93 C 0.85519 0.71426 0.48291 0.0
C94 C 0.88167 0.71125 0.47416 0.0
C95 C 0.88394 0.71259 0.45381 0.0
P96 P 0.12969 0.28425 0.59908 0.0
H97 H 0.10634 0.25107 0.63494 0.0
H98 H 0.05002 0.22436 0.6483 0.0
H99 H 0.00273 0.23797 0.5948 0.0
H100 H 0.05901 0.26369 0.58131 0.0
H101 H 0.20322 0.31978 0.61483 0.0
H102 H 0.24176 0.29791 0.62562 0.0
H103 H 0.15691 0.18994 0.61051 0.0
H104 H 0.11825 0.21213 0.59974 0.0
H105 H 0.11483 0.32747 0.57408 0.0
H106 H 0.14349 0.24696 0.56614 0.0
O107 O 0.14668 0.32544 0.61034 0.0
H108 H 0.12062 0.33675 0.53925 0.0
H109 H 0.1507 0.25701 0.53162 0.0
C110 C 0.0868 0.25874 0.60697 0.0
C111 C 0.08366 0.24745 0.62586 0.0
C112 C 0.05149 0.23259 0.6336 0.0
C113 C 0.02184 0.22923 0.62269 0.0
C114 C 0.02489 0.23974 0.60351 0.0
C115 C 0.05715 0.25454 0.59577 0.0
C116 C 0.15771 0.26756 0.60693 0.0
C117 C 0.19279 0.29141 0.61395 0.0
C118 C 0.21481 0.27888 0.62009 0.0
C119 C 0.20225 0.24222 0.61905 0.0
C120 C 0.1673 0.21832 0.61142 0.0
C121 C 0.14516 0.23094 0.60544 0.0
C122 C 0.12926 0.28697 0.57281 0.0
C123 C 0.1222 0.31166 0.56481 0.0
C124 C 0.12578 0.31711 0.54492 0.0
C125 C 0.1367 0.29805 0.53266 0.0
C126 C 0.14206 0.27204 0.54055 0.0
C127 C 0.13819 0.26644 0.56042 0.0
P128 P 0.80845 0.89987 0.58503 0.0
H129 H 0.86474 0.96989 0.60174 0.0
H130 H 0.86705 0.01651 0.62447 0.0
H131 H 0.75647 0.95086 0.62931 0.0
H132 H 0.75418 0.9045 0.60572 0.0
H133 H 0.85774 0.87456 0.59 0.0
H134 H 0.86033 0.8323 0.61041 0.0
H135 H 0.7615 0.80858 0.63095 0.0
H136 H 0.75864 0.85064 0.60996 0.0
H137 H 0.76949 0.92946 0.5662 0.0
H138 H 0.77141 0.83167 0.5603 0.0
O139 O 0.84477 0.91834 0.57368 0.0
H140 H 0.73145 0.91063 0.5352 0.0
H141 H 0.73309 0.81251 0.52918 0.0
C142 C 0.80924 0.93388 0.6019 0.0
C143 C 0.8409 0.9655 0.60757 0.0
C144 C 0.84224 0.99207 0.62078 0.0
C145 C 0.81199 0.98738 0.62889 0.0
C146 C 0.78019 0.95547 0.62322 0.0
C147 C 0.77887 0.92887 0.60986 0.0
C148 C 0.80823 0.8661 0.5987 0.0
C149 C 0.83643 0.86013 0.59873 0.0
C150 C 0.83795 0.83601 0.61047 0.0
C151 C 0.81137 0.81752 0.6225 0.0
C152 C 0.78232 0.8224 0.6218 0.0
C153 C 0.7808 0.8466 0.60996 0.0
C154 C 0.77268 0.88165 0.56577 0.0
C155 C 0.76058 0.9033 0.55865 0.0
C156 C 0.7388 0.89248 0.54087 0.0
C157 C 0.72932 0.86009 0.52973 0.0
C158 C 0.74011 0.83767 0.53742 0.0
C159 C 0.76174 0.84846 0.55528 0.0
P160 P 0.13334 0.85004 0.60491 0.0
H161 H 0.14525 0.88335 0.64534 0.0
H162 H 0.1795 0.94518 0.66055 0.0
H163 H 0.211 0.97885 0.60351 0.0
H164 H 0.17653 0.91743 0.58834 0.0
H165 H 0.07721 0.77646 0.59871 0.0
H166 H 0.01832 0.74591 0.60933 0.0
H167 H 0.03182 0.84678 0.63269 0.0
H168 H 0.08993 0.87729 0.62143 0.0
H169 H 0.1764 0.83205 0.5815 0.0
H170 H 0.09812 0.86168 0.57095 0.0
O171 O 0.15091 0.82858 0.61567 0.0
H172 H 0.18488 0.83243 0.54651 0.0
H173 H 0.10721 0.86322 0.5358 0.0
C174 C 0.15791 0.89575 0.61569 0.0
C175 C 0.15926 0.90412 0.63609 0.0
C176 C 0.17867 0.93937 0.64474 0.0
C177 C 0.19773 0.9667 0.63316 0.0
C178 C 0.19657 0.95822 0.61275 0.0
C179 C 0.17673 0.92305 0.60407 0.0
C180 C 0.08829 0.82901 0.60973 0.0
C181 C 0.06722 0.79202 0.60579 0.0
C182 C 0.03363 0.77464 0.6118 0.0
C183 C 0.02089 0.79406 0.62204 0.0
C184 C 0.04135 0.83125 0.62506 0.0
C185 C 0.07465 0.84865 0.61871 0.0
C186 C 0.13631 0.84637 0.57873 0.0
C187 C 0.16072 0.83826 0.57158 0.0
C188 C 0.16582 0.83886 0.55157 0.0
C189 C 0.14693 0.84813 0.53834 0.0
C190 C 0.12189 0.85557 0.54553 0.0
C191 C 0.1167 0.85477 0.56559 0.0
P192 P 0.94422 0.48122 0.73074 0.0
H193 H 0.89398 0.44214 0.69546 0.0
H194 H 0.86507 0.37997 0.68123 0.0
H195 H 0.91177 0.35639 0.73109 0.0
H196 H 0.94124 0.41858 0.7449 0.0
H197 H 0.96884 0.54125 0.70751 0.0
H198 H 0.94169 0.57337 0.6947 0.0
H199 H 0.84831 0.50684 0.72178 0.0
H200 H 0.87559 0.47409 0.73422 0.0
H201 H 0.00381 0.5293 0.75958 0.0
H202 H 0.89674 0.44654 0.76047 0.0
O203 O 0.98351 0.49706 0.72267 0.0
H204 H 0.01348 0.53364 0.79558 0.0
H205 H 0.90637 0.45013 0.7965 0.0
C206 C 0.9191 0.43482 0.72148 0.0
C207 C 0.89746 0.42345 0.7035 0.0
C208 C 0.88089 0.38786 0.69539 0.0
C209 C 0.88611 0.3632 0.70502 0.0
C210 C 0.90746 0.37474 0.72319 0.0
C211 C 0.92404 0.41026 0.73122 0.0
C212 C 0.9242 0.50532 0.72182 0.0
C213 C 0.94256 0.53355 0.71074 0.0
C214 C 0.92705 0.55208 0.70352 0.0
C215 C 0.89287 0.54281 0.70729 0.0
C216 C 0.87454 0.51444 0.71847 0.0
C217 C 0.89015 0.49588 0.7257 0.0
C218 C 0.94981 0.48702 0.75737 0.0
C219 C 0.98233 0.51212 0.76754 0.0
C220 C 0.98785 0.51449 0.78812 0.0
C221 C 0.96085 0.49185 0.7989 0.0
C222 C 0.92768 0.46806 0.78869 0.0
C223 C 0.92219 0.4658 0.76808 0.0
P224 P 0.5789 0.43268 0.76147 0.0
H225 H 0.57237 0.369 0.74047 0.0
H226 H 0.52798 0.32271 0.71605 0.0
H227 H 0.46941 0.37749 0.71625 0.0
H228 H 0.51357 0.42315 0.74154 0.0
H229 H 0.65439 0.47928 0.76833 0.0
H230 H 0.69588 0.52891 0.75209 0.0
H231 H 0.61057 0.52107 0.71369 0.0
H232 H 0.56906 0.47084 0.72993 0.0
H233 H 0.51253 0.3929 0.77805 0.0
H234 H 0.60525 0.49654 0.78962 0.0
O235 O 0.60155 0.41566 0.77171 0.0
H236 H 0.49091 0.40469 0.80804 0.0
H237 H 0.58377 0.50845 0.81982 0.0
C238 C 0.54604 0.39925 0.74299 0.0
C239 C 0.54993 0.37103 0.73535 0.0
C240 C 0.52461 0.34471 0.72117 0.0
C241 C 0.49508 0.34636 0.71405 0.0
C242 C 0.49155 0.3751 0.72156 0.0
C243 C 0.51686 0.40134 0.73592 0.0
C244 C 0.6087 0.47087 0.75009 0.0
C245 C 0.64454 0.4882 0.75644 0.0
C246 C 0.66824 0.51684 0.74723 0.0
C247 C 0.65655 0.52896 0.73154 0.0
C248 C 0.62044 0.51208 0.72554 0.0
C249 C 0.59667 0.48339 0.73485 0.0
C250 C 0.56003 0.44424 0.78125 0.0
C251 C 0.52776 0.41865 0.78669 0.0
C252 C 0.51544 0.42539 0.8039 0.0
C253 C 0.53558 0.45756 0.81626 0.0
C254 C 0.56771 0.4834 0.81061 0.0
C255 C 0.57985 0.47673 0.79326 0.0
P256 P 0.52428 0.04373 0.74832 0.0
H257 H 0.46468 0.01487 0.71774 0.0
H258 H 0.43379 0.04087 0.70155 0.0
H259 H 0.50624 0.14289 0.7344 0.0
H260 H 0.53682 0.11636 0.75083 0.0
H261 H 0.55009 0.01436 0.71855 0.0
H262 H 0.6063 0.03711 0.70548 0.0
H263 H 0.6483 0.13345 0.74576 0.0
H264 H 0.59179 0.10972 0.75926 0.0
H265 H 0.48288 0.06225 0.77331 0.0
H266 H 0.56514 0.03748 0.78147 0.0
O267 O 0.50118 0.99985 0.74209 0.0
H268 H 0.4762 0.06074 0.80843 0.0
H269 H 0.55764 0.03451 0.81673 0.0
C270 C 0.50285 0.06364 0.73562 0.0
C271 C 0.47404 0.04285 0.72144 0.0
C272 C 0.45651 0.05784 0.71208 0.0
C273 C 0.46751 0.09397 0.71669 0.0
C274 C 0.49686 0.1149 0.73068 0.0
C275 C 0.51448 0.09985 0.73999 0.0
C276 C 0.56695 0.06011 0.7401 0.0
C277 C 0.57149 0.04017 0.7248 0.0
C278 C 0.60362 0.05343 0.71715 0.0
C279 C 0.63187 0.08726 0.72445 0.0
C280 C 0.62727 0.10715 0.73993 0.0
C281 C 0.59498 0.09371 0.74764 0.0
C282 C 0.52508 0.05074 0.77478 0.0
C283 C 0.5002 0.05739 0.78272 0.0
C284 C 0.49603 0.056 0.80285 0.0
C285 C 0.51609 0.0471 0.81543 0.0
C286 C 0.54201 0.04184 0.80756 0.0
C287 C 0.54633 0.04351 0.78738 0.0
P288 P 0.80086 0.62061 0.93191 0.0
H289 H 0.77432 0.64622 0.96317 0.0
H290 H 0.71845 0.62067 0.97676 0.0
H291 H 0.67898 0.52586 0.93552 0.0
H292 H 0.7352 0.55238 0.92152 0.0
H293 H 0.86136 0.64835 0.96164 0.0
H294 H 0.89733 0.62433 0.97334 0.0
H295 H 0.82969 0.52583 0.93603 0.0
H296 H 0.79393 0.55051 0.92406 0.0
H297 H 0.75154 0.61885 0.90044 0.0
H298 H 0.84773 0.61654 0.90508 0.0
O299 O 0.82275 0.66412 0.93939 0.0
H300 H 0.7545 0.62272 0.86479 0.0
H301 H 0.85099 0.62061 0.86987 0.0
C302 C 0.75874 0.6014 0.94114 0.0
C303 C 0.75361 0.62006 0.95689 0.0
C304 C 0.72165 0.60521 0.96482 0.0
C305 C 0.69417 0.57107 0.95734 0.0
C306 C 0.69943 0.55235 0.9415 0.0
C307 C 0.73155 0.56737 0.93353 0.0
C308 C 0.82507 0.60125 0.94193 0.0
C309 C 0.85406 0.62151 0.95605 0.0
C310 C 0.87458 0.60766 0.96279 0.0
C311 C 0.86642 0.57315 0.95559 0.0
C312 C 0.8369 0.55263 0.94167 0.0
C313 C 0.81628 0.56655 0.93497 0.0
C314 C 0.79882 0.61631 0.90533 0.0
C315 C 0.77275 0.6182 0.89372 0.0
C316 C 0.77467 0.62075 0.8734 0.0
C317 C 0.80289 0.62176 0.86445 0.0
C318 C 0.82848 0.61907 0.87614 0.0
C319 C 0.8266 0.61669 0.89637 0.0
P320 P 0.47623 0.23037 0.91859 0.0
H321 H 0.53309 0.29978 0.9357 0.0
H322 H 0.53585 0.34662 0.95844 0.0
H323 H 0.42491 0.28236 0.9627 0.0
H324 H 0.42219 0.23576 0.93911 0.0
H325 H 0.52465 0.20387 0.92301 0.0
H326 H 0.52724 0.16176 0.94355 0.0
H327 H 0.42953 0.13987 0.96499 0.0
H328 H 0.42668 0.18185 0.94392 0.0
H329 H 0.43818 0.26102 0.89991 0.0
H330 H 0.43859 0.16246 0.89356 0.0
O331 O 0.51261 0.24868 0.90728 0.0
H332 H 0.40046 0.24308 0.86885 0.0
H333 H 0.40059 0.14419 0.86235 0.0
C334 C 0.47738 0.26447 0.93556 0.0
C335 C 0.50927 0.29574 0.94141 0.0
C336 C 0.51086 0.32244 0.95462 0.0
C337 C 0.48063 0.31823 0.96256 0.0
C338 C 0.44861 0.28662 0.95675 0.0
C339 C 0.44705 0.25988 0.94338 0.0
C340 C 0.47571 0.19637 0.93217 0.0
C341 C 0.50356 0.18986 0.93196 0.0
C342 C 0.5051 0.16584 0.94377 0.0
C343 C 0.47886 0.14792 0.9561 0.0
C344 C 0.45009 0.15325 0.95561 0.0
C345 C 0.44857 0.17739 0.94371 0.0
C346 C 0.44057 0.21275 0.89927 0.0
C347 C 0.429 0.23488 0.89225 0.0
C348 C 0.40741 0.22458 0.87443 0.0
C349 C 0.39759 0.19222 0.86313 0.0
C350 C 0.40787 0.16934 0.8707 0.0
C351 C 0.42932 0.17961 0.88861 0.0
P352 P 0.80151 0.18183 0.93747 0.0
H353 H 0.87129 0.22239 0.95927 0.0
H354 H 0.9064 0.28397 0.97414 0.0
H355 H 0.82517 0.30416 0.95243 0.0
H356 H 0.78987 0.2421 0.93778 0.0
H357 H 0.73371 0.1235 0.9187 0.0
H358 H 0.67591 0.09282 0.93064 0.0
H359 H 0.71586 0.16862 0.98323 0.0
H360 H 0.77338 0.19817 0.9716 0.0
H361 H 0.83919 0.1587 0.91259 0.0
H362 H 0.77014 0.20062 0.90475 0.0
O363 O 0.81781 0.15859 0.9474 0.0
H364 H 0.84724 0.16015 0.87757 0.0
H365 H 0.77884 0.20312 0.86955 0.0
C366 C 0.82782 0.22763 0.94768 0.0
C367 C 0.861 0.24002 0.95771 0.0
C368 C 0.88114 0.27532 0.96611 0.0
C369 C 0.8685 0.29892 0.96453 0.0
C370 C 0.8354 0.2865 0.95414 0.0
C371 C 0.81533 0.25116 0.94567 0.0
C372 C 0.75764 0.16359 0.94404 0.0
C373 C 0.72973 0.13393 0.93258 0.0
C374 C 0.69672 0.11645 0.93941 0.0
C375 C 0.69136 0.12818 0.95794 0.0
C376 C 0.71922 0.15863 0.96901 0.0
C377 C 0.75208 0.17587 0.96224 0.0
C378 C 0.8038 0.17923 0.91121 0.0
C379 C 0.82545 0.1679 0.90328 0.0
C380 C 0.8303 0.16907 0.88325 0.0
C381 C 0.81393 0.18205 0.87078 0.0
C382 C 0.79157 0.19268 0.87871 0.0
C383 C 0.78667 0.1914 0.89882 0.0
P384 P 0.61467 0.81394 0.0636 0.0
H385 H 0.565 0.77452 0.0282 0.0
H386 H 0.53604 0.7122 0.01426 0.0
H387 H 0.58204 0.68915 0.06467 0.0
H388 H 0.61157 0.75149 0.07819 0.0
H389 H 0.63902 0.87483 0.04107 0.0
H390 H 0.61115 0.90632 0.02828 0.0
H391 H 0.51716 0.83702 0.05408 0.0
H392 H 0.54517 0.80492 0.06647 0.0
H393 H 0.67457 0.86184 0.09234 0.0
H394 H 0.56722 0.77994 0.09342 0.0
O395 O 0.65388 0.83004 0.05539 0.0
H396 H 0.68422 0.86665 0.12836 0.0
H397 H 0.5768 0.78399 0.12947 0.0
C398 C 0.58975 0.76748 0.05448 0.0
C399 C 0.56832 0.75592 0.03642 0.0
C400 C 0.55172 0.72025 0.02847 0.0
C401 C 0.5567 0.69568 0.03836 0.0
C402 C 0.57791 0.70742 0.05658 0.0
C403 C 0.59452 0.74303 0.06445 0.0
C404 C 0.59411 0.83754 0.05469 0.0
C405 C 0.61243 0.86637 0.04401 0.0
C406 C 0.59651 0.88454 0.0368 0.0
C407 C 0.56195 0.8743 0.04023 0.0
C408 C 0.54367 0.84536 0.05103 0.0
C409 C 0.5597 0.82716 0.05823 0.0
C410 C 0.62042 0.81997 0.09022 0.0
C411 C 0.65304 0.84495 0.10035 0.0
C412 C 0.65854 0.84758 0.12094 0.0
C413 C 0.63143 0.82534 0.13178 0.0
C414 C 0.5982 0.80163 0.1216 0.0
C415 C 0.59273 0.79911 0.10098 0.0
P416 P 0.24465 0.76714 0.09578 0.0
H417 H 0.2385 0.70351 0.07499 0.0
H418 H 0.19421 0.65686 0.05067 0.0
H419 H 0.13498 0.71093 0.05061 0.0
H420 H 0.17917 0.7571 0.07572 0.0
H421 H 0.31993 0.81452 0.10335 0.0
H422 H 0.36186 0.86336 0.08683 0.0
H423 H 0.27741 0.85345 0.04671 0.0
H424 H 0.23546 0.80395 0.06324 0.0
H425 H 0.17795 0.72763 0.1121 0.0
H426 H 0.27101 0.83096 0.12399 0.0
O427 O 0.26721 0.75021 0.10624 0.0
H428 H 0.15612 0.73946 0.14197 0.0
H429 H 0.24934 0.84286 0.15412 0.0
C430 C 0.21187 0.73349 0.07735 0.0
C431 C 0.21594 0.70532 0.06983 0.0
C432 C 0.19068 0.67878 0.05572 0.0
C433 C 0.161 0.68013 0.04857 0.0
C434 C 0.15726 0.7088 0.05595 0.0
C435 C 0.18257 0.73531 0.07021 0.0
C436 C 0.27465 0.80511 0.0843 0.0
C437 C 0.31036 0.82285 0.09104 0.0
C438 C 0.33432 0.85105 0.08165 0.0
C439 C 0.32302 0.86232 0.06538 0.0
C440 C 0.287 0.8451 0.05901 0.0
C441 C 0.26298 0.81685 0.0685 0.0
C442 C 0.22564 0.77884 0.11544 0.0
C443 C 0.19321 0.75335 0.12077 0.0
C444 C 0.18077 0.76009 0.13793 0.0
C445 C 0.20095 0.79216 0.15036 0.0
C446 C 0.23324 0.8179 0.14484 0.0
C447 C 0.2455 0.81124 0.12753 0.0
P448 P 0.19332 0.37693 0.08086 0.0
H449 H 0.13423 0.34868 0.04999 0.0
H450 H 0.10342 0.3749 0.03397 0.0
H451 H 0.17512 0.47632 0.06762 0.0
H452 H 0.20568 0.44957 0.08387 0.0
H453 H 0.21898 0.34775 0.05089 0.0
H454 H 0.2753 0.37021 0.038 0.0
H455 H 0.3178 0.46602 0.07878 0.0
H456 H 0.26112 0.44256 0.09209 0.0
H457 H 0.15246 0.39591 0.10611 0.0
H458 H 0.2332 0.3689 0.11382 0.0
O459 O 0.17009 0.33312 0.0744 0.0
H460 H 0.14547 0.39367 0.14117 0.0
H461 H 0.2253 0.36509 0.14899 0.0
C462 C 0.17203 0.39711 0.06827 0.0
C463 C 0.14346 0.37658 0.05391 0.0
C464 C 0.12597 0.3917 0.04463 0.0
C465 C 0.13675 0.42772 0.04953 0.0
C466 C 0.1659 0.44841 0.06369 0.0
C467 C 0.1835 0.43325 0.0729 0.0
C468 C 0.23603 0.39323 0.07268 0.0
C469 C 0.24049 0.37339 0.05728 0.0
C470 C 0.27271 0.38649 0.04974 0.0
C471 C 0.30115 0.42007 0.05724 0.0
C472 C 0.29661 0.4399 0.0728 0.0
C473 C 0.26423 0.42661 0.08039 0.0
C474 C 0.19396 0.38336 0.10736 0.0
C475 C 0.16939 0.39038 0.11541 0.0
C476 C 0.165 0.38853 0.13551 0.0
C477 C 0.1845 0.37876 0.14794 0.0
C478 C 0.21009 0.37308 0.13996 0.0
C479 C 0.21466 0.37524 0.11982 0.0
P480 P 0.46374 0.95228 0.26714 0.0
H481 H 0.44048 0.91754 0.30261 0.0
H482 H 0.38406 0.88985 0.31587 0.0
H483 H 0.33674 0.90518 0.26299 0.0
H484 H 0.39311 0.93193 0.24959 0.0
H485 H 0.53776 0.98818 0.28171 0.0
H486 H 0.57698 0.9667 0.29179 0.0
H487 H 0.49213 0.85848 0.27771 0.0
H488 H 0.4528 0.88028 0.26761 0.0
H489 H 0.45189 0.99849 0.24307 0.0
H490 H 0.47344 0.91309 0.23345 0.0
O491 O 0.48048 0.99314 0.27882 0.0
H492 H 0.45707 0.00802 0.20824 0.0
H493 H 0.47992 0.92323 0.19886 0.0
C494 C 0.4209 0.92612 0.27493 0.0
C495 C 0.41777 0.91408 0.29363 0.0
C496 C 0.38555 0.89864 0.30132 0.0
C497 C 0.35586 0.89547 0.29056 0.0
C498 C 0.35893 0.90677 0.27157 0.0
C499 C 0.39123 0.92214 0.26388 0.0
C500 C 0.49221 0.9358 0.27441 0.0
C501 C 0.52749 0.95983 0.2809 0.0
C502 C 0.54989 0.94753 0.28663 0.0
C503 C 0.53752 0.91092 0.28569 0.0
C504 C 0.50238 0.88683 0.27853 0.0
C505 C 0.47986 0.89922 0.27294 0.0
C506 C 0.46299 0.95561 0.24095 0.0
C507 C 0.45762 0.98171 0.23344 0.0
C508 C 0.46081 0.98726 0.21354 0.0
C509 C 0.46951 0.9668 0.20079 0.0
C510 C 0.47305 0.93939 0.2082 0.0
C511 C 0.46963 0.93374 0.22808 0.0
P512 P 0.1385 0.56334 0.25369 0.0
H513 H 0.19542 0.63165 0.27197 0.0
H514 H 0.19796 0.6784 0.29465 0.0
H515 H 0.08621 0.61579 0.29678 0.0
H516 H 0.08378 0.56927 0.27322 0.0
H517 H 0.18439 0.53357 0.25543 0.0
H518 H 0.18769 0.49128 0.27555 0.0
H519 H 0.09522 0.47522 0.30161 0.0
H520 H 0.09177 0.51762 0.2811 0.0
H521 H 0.10121 0.59408 0.2343 0.0
H522 H 0.10046 0.49488 0.22918 0.0
O523 O 0.17498 0.58212 0.24249 0.0
H524 H 0.06396 0.57577 0.20303 0.0
H525 H 0.06294 0.47625 0.1978 0.0
C526 C 0.13936 0.59721 0.27072 0.0
C527 C 0.17138 0.62796 0.27719 0.0
C528 C 0.17283 0.65459 0.29039 0.0
C529 C 0.14231 0.65083 0.2977 0.0
C530 C 0.11015 0.61971 0.2913 0.0
C531 C 0.10874 0.59302 0.27795 0.0
C532 C 0.13825 0.52928 0.26709 0.0
C533 C 0.16465 0.52088 0.26534 0.0
C534 C 0.16654 0.4967 0.27687 0.0
C535 C 0.142 0.48038 0.29034 0.0
C536 C 0.11444 0.48741 0.29133 0.0
C537 C 0.11261 0.51179 0.27976 0.0
C538 C 0.10299 0.54554 0.23429 0.0
C539 C 0.09185 0.56774 0.22687 0.0
C540 C 0.07054 0.55722 0.20893 0.0
C541 C 0.06057 0.52457 0.19793 0.0
C542 C 0.07036 0.50162 0.20591 0.0
C543 C 0.09154 0.51212 0.22393 0.0
P544 P 0.46805 0.51879 0.27022 0.0
H545 H 0.47577 0.55246 0.31015 0.0
H546 H 0.50996 0.61415 0.32548 0.0
H547 H 0.54951 0.64701 0.2697 0.0
H548 H 0.51529 0.58564 0.25445 0.0
H549 H 0.41491 0.44418 0.26694 0.0
H550 H 0.35614 0.41272 0.27766 0.0
H551 H 0.36432 0.51308 0.29652 0.0
H552 H 0.4223 0.54444 0.28499 0.0
H553 H 0.50098 0.49096 0.24414 0.0
H554 H 0.43746 0.53958 0.23834 0.0
O555 O 0.48732 0.49821 0.28014 0.0
H556 H 0.50587 0.49023 0.20867 0.0
H557 H 0.44219 0.53889 0.20261 0.0
C558 C 0.49217 0.56449 0.28104 0.0
C559 C 0.49138 0.57304 0.30116 0.0
C560 C 0.51084 0.60825 0.30989 0.0
C561 C 0.53215 0.63535 0.29873 0.0
C562 C 0.53328 0.62662 0.27864 0.0
C563 C 0.51349 0.5915 0.26988 0.0
C564 C 0.42339 0.49658 0.27577 0.0
C565 C 0.40384 0.45939 0.27312 0.0
C566 C 0.37031 0.44148 0.27916 0.0
C567 C 0.35611 0.4606 0.28811 0.0
C568 C 0.37504 0.49786 0.28987 0.0
C569 C 0.40825 0.51574 0.28343 0.0
C570 C 0.46876 0.51522 0.24381 0.0
C571 C 0.48767 0.50105 0.23518 0.0
C572 C 0.49033 0.50051 0.21487 0.0
C573 C 0.47436 0.51445 0.20284 0.0
C574 C 0.45495 0.52817 0.21153 0.0
C575 C 0.45206 0.52841 0.23187 0.0
C576 C 0.54532 0.03231 0.06586 0.0
Eu577 Eu 0.51904 0.02251 0.02924 0.0
C578 C 0.53168 0.02175 0.08506 0.0
C579 C 0.51743 0.03947 0.09556 0.0
C580 C 0.50524 0.02966 0.11384 0.0
C581 C 0.50704 0.00195 0.12205 0.0
C582 C 0.52102 0.98404 0.11148 0.0
C583 C 0.53335 0.99395 0.09324 0.0
C584 C 0.49961 0.0633 0.01073 0.0
C585 C 0.4347 0.96444 0.0252 0.0
C586 C 0.45036 0.97751 0.9514 0.0
Eu587 Eu 0.47755 0.98948 0.98808 0.0
C588 C 0.46133 0.98974 0.93212 0.0
C589 C 0.44329 0.96659 0.91487 0.0
C590 C 0.453 0.97727 0.89632 0.0
C591 C 0.48103 0.01143 0.89462 0.0
C592 C 0.49941 0.03453 0.91201 0.0
C593 C 0.48958 0.02378 0.93063 0.0
C594 C 0.5005 0.95085 0.00647 0.0
C595 C 0.56208 0.04633 0.99235 0.0
O596 O 0.54187 0.0069 0.05291 0.0
O597 O 0.53915 0.05519 0.05774 0.0
O598 O 0.52867 0.07584 0.02218 0.0
O599 O 0.48095 0.03005 0.01067 0.0
O600 O 0.46526 0.98165 0.03621 0.0
O601 O 0.43165 0.96592 0.00592 0.0
O602 O 0.4497 0.00025 0.96467 0.0
O603 O 0.46306 0.95905 0.95891 0.0
O604 O 0.47055 0.93661 0.99567 0.0
O605 O 0.51711 0.98389 0.0061 0.0
O606 O 0.53151 0.03216 0.98134 0.0
O607 O 0.56431 0.04184 0.01124 0.0
H608 H 0.51578 0.06106 0.08973 0.0
H609 H 0.49434 0.04376 0.12155 0.0
H610 H 0.52322 0.96292 0.11754 0.0
H611 H 0.54447 0.98 0.08559 0.0
H612 H 0.42161 0.94013 0.91574 0.0
H613 H 0.4387 0.95857 0.88329 0.0
H614 H 0.52096 0.06106 0.91122 0.0
H615 H 0.50389 0.04206 0.94381 0.0
C616 C 1.00053 0.53504 0.0561 0.0
Eu617 Eu 0.99789 0.51007 0.0198 0.0
C618 C 0.00474 0.52833 0.07653 0.0
C619 C 0.00661 0.49843 0.08088 0.0
C620 C 0.01133 0.49315 0.10059 0.0
C621 C 0.01427 0.51775 0.11617 0.0
C622 C 0.01201 0.54745 0.11159 0.0
C623 C 0.00726 0.55263 0.09194 0.0
C624 C 0.9539 0.44284 0.00237 0.0
C625 C 0.05176 0.48045 0.01449 0.0
C626 C 0.00641 0.46611 0.94164 0.0
Eu627 Eu 0.01157 0.49284 0.97791 0.0
C628 C 0.99869 0.47091 0.92124 0.0
C629 C 0.98489 0.49274 0.91703 0.0
C630 C 0.9785 0.49733 0.89738 0.0
C631 C 0.98609 0.48036 0.88173 0.0
C632 C 0.99961 0.4583 0.88614 0.0
C633 C 0.00585 0.45366 0.90571 0.0
C634 C 0.05751 0.55926 0.99521 0.0
C635 C 0.9592 0.52443 0.9839 0.0
O636 O 0.02799 0.54583 0.04639 0.0
O637 O 0.97144 0.5117 0.04537 0.0
O638 O 0.94403 0.45986 0.0142 0.0
O639 O 0.98621 0.4608 0.0016 0.0
O640 O 0.04219 0.4989 0.02614 0.0
O641 O 0.03889 0.47011 0.99563 0.0
O642 O 0.9804 0.45398 0.95256 0.0
O643 O 0.03575 0.49152 0.95124 0.0
O644 O 0.06575 0.54143 0.98284 0.0
O645 O 0.02506 0.54264 0.9964 0.0
O646 O 0.96781 0.50541 0.97198 0.0
O647 O 0.97289 0.53482 0.00254 0.0
H648 H 0.00467 0.47941 0.06906 0.0
H649 H 0.01276 0.46992 0.10363 0.0
H650 H 0.01492 0.5673 0.12316 0.0
H651 H 0.00599 0.57592 0.08878 0.0
H652 H 0.97933 0.50636 0.92891 0.0
H653 H 0.96829 0.51466 0.89445 0.0
H654 H 0.00516 0.44438 0.87443 0.0
H655 H 0.01641 0.43664 0.90873 0.0
C656 C 0.45191 0.45703 0.95023 0.0
Eu657 Eu 0.47794 0.48398 0.98675 0.0
C658 C 0.46431 0.46045 0.93057 0.0
C659 C 0.49661 0.48927 0.92731 0.0
C660 C 0.50838 0.49144 0.90858 0.0
C661 C 0.48809 0.46473 0.89284 0.0
C662 C 0.4557 0.43597 0.8963 0.0
C663 C 0.44395 0.43391 0.91498 0.0
C664 C 0.50007 0.55119 0.00272 0.0
C665 C 0.56311 0.51742 0.99194 0.0
C666 C 0.54359 0.53526 0.06454 0.0
Eu667 Eu 0.51795 0.50588 0.02838 0.0
C668 C 0.53059 0.53177 0.08404 0.0
C669 C 0.49979 0.5012 0.08747 0.0
C670 C 0.48812 0.49804 0.10624 0.0
C671 C 0.50691 0.52552 0.1218 0.0
C672 C 0.53739 0.55636 0.11812 0.0
C673 C 0.54912 0.5594 0.09939 0.0
C674 C 0.49895 0.43968 0.0126 0.0
C675 C 0.4325 0.47079 0.02306 0.0
O676 O 0.46372 0.44261 0.96237 0.0
O677 O 0.45156 0.4845 0.95887 0.0
O678 O 0.4705 0.53178 0.99175 0.0
O679 O 0.51678 0.53508 0.00377 0.0
O680 O 0.53305 0.49777 0.98056 0.0
O681 O 0.56417 0.52831 0.01073 0.0
O682 O 0.53103 0.54836 0.05189 0.0
O683 O 0.54542 0.50825 0.05649 0.0
O684 O 0.52736 0.45986 0.02443 0.0
O685 O 0.48054 0.45415 0.01099 0.0
O686 O 0.46244 0.49041 0.03451 0.0
O687 O 0.43157 0.46069 0.00418 0.0
H688 H 0.51275 0.50995 0.93926 0.0
H689 H 0.5333 0.51408 0.90642 0.0
H690 H 0.43971 0.41456 0.88468 0.0
H691 H 0.4191 0.41132 0.91733 0.0
H692 H 0.48494 0.47974 0.07568 0.0
H693 H 0.46436 0.47415 0.10857 0.0
H694 H 0.55264 0.5778 0.12985 0.0
H695 H 0.57287 0.58322 0.09695 0.0
C696 C 0.21428 0.36592 0.39826 0.0
Eu697 Eu 0.18757 0.35677 0.36181 0.0
C698 C 0.20061 0.355 0.41741 0.0
C699 C 0.18346 0.37029 0.42722 0.0
C700 C 0.17115 0.36004 0.44542 0.0
C701 C 0.17562 0.33425 0.4542 0.0
C702 C 0.19243 0.3187 0.44431 0.0
C703 C 0.20494 0.3291 0.42615 0.0
C704 C 0.16622 0.39667 0.34401 0.0
C705 C 0.10328 0.29809 0.35834 0.0
C706 C 0.1172 0.31219 0.28435 0.0
Eu707 Eu 0.14491 0.32338 0.32086 0.0
C708 C 0.12863 0.32343 0.26495 0.0
C709 C 0.10954 0.30048 0.24779 0.0
C710 C 0.11951 0.31042 0.22915 0.0
C711 C 0.14883 0.34364 0.22725 0.0
C712 C 0.16828 0.36646 0.24456 0.0
C713 C 0.15824 0.35644 0.26326 0.0
C714 C 0.1694 0.28549 0.33859 0.0
C715 C 0.22933 0.38152 0.32447 0.0
O716 O 0.21063 0.34064 0.38512 0.0
O717 O 0.20826 0.38908 0.39038 0.0
O718 O 0.19556 0.40974 0.35527 0.0
O719 O 0.14825 0.36335 0.34386 0.0
O720 O 0.13413 0.31543 0.36907 0.0
O721 O 0.0996 0.29969 0.33911 0.0
O722 O 0.11884 0.33635 0.29756 0.0
O723 O 0.12755 0.29187 0.2919 0.0
O724 O 0.13917 0.27088 0.32804 0.0
O725 O 0.18555 0.31858 0.33831 0.0
O726 O 0.19855 0.36547 0.31359 0.0
O727 O 0.23258 0.37852 0.34354 0.0
H728 H 0.17959 0.39027 0.42091 0.0
H729 H 0.15802 0.37226 0.45261 0.0
H730 H 0.19665 0.29908 0.45082 0.0
H731 H 0.21822 0.31701 0.41899 0.0
H732 H 0.0868 0.27479 0.24881 0.0
H733 H 0.10433 0.29187 0.21621 0.0
H734 H 0.19084 0.3923 0.24364 0.0
H735 H 0.17345 0.37455 0.27635 0.0
C736 C 0.66823 0.87265 0.38868 0.0
Eu737 Eu 0.66528 0.84679 0.35254 0.0
C738 C 0.67161 0.86507 0.40901 0.0
C739 C 0.67409 0.83536 0.41303 0.0
C740 C 0.67869 0.82952 0.43262 0.0
C741 C 0.68093 0.85337 0.44843 0.0
C742 C 0.67782 0.88275 0.44418 0.0
C743 C 0.67318 0.88849 0.42464 0.0
C744 C 0.62019 0.77941 0.33568 0.0
C745 C 0.71752 0.81492 0.34823 0.0
C746 C 0.67382 0.80007 0.275 0.0
Eu747 Eu 0.679 0.82764 0.31107 0.0
C748 C 0.66708 0.80523 0.25452 0.0
C749 C 0.65357 0.82719 0.25005 0.0
C750 C 0.64783 0.83191 0.23034 0.0
C751 C 0.65575 0.81488 0.21488 0.0
C752 C 0.66908 0.79277 0.21955 0.0
C753 C 0.67469 0.78803 0.23919 0.0
C754 C 0.72596 0.89407 0.32804 0.0
C755 C 0.62874 0.8619 0.3159 0.0
O756 O 0.69573 0.88232 0.37911 0.0
O757 O 0.63893 0.85033 0.37779 0.0
O758 O 0.61088 0.79734 0.34722 0.0
O759 O 0.65255 0.79662 0.33491 0.0
O760 O 0.70858 0.8344 0.35948 0.0
O761 O 0.70471 0.8041 0.32939 0.0
O762 O 0.64753 0.78905 0.28569 0.0
O763 O 0.7034 0.82472 0.28476 0.0
O764 O 0.73379 0.8754 0.31602 0.0
O765 O 0.69347 0.87822 0.32903 0.0
O766 O 0.63622 0.8413 0.30451 0.0
O767 O 0.64239 0.87276 0.33454 0.0
H768 H 0.67288 0.81702 0.40103 0.0
H769 H 0.68075 0.80652 0.43539 0.0
H770 H 0.68014 0.90203 0.45594 0.0
H771 H 0.67143 0.91163 0.42172 0.0
H772 H 0.64765 0.84077 0.26177 0.0
H773 H 0.63777 0.84928 0.22721 0.0
H774 H 0.67489 0.77881 0.20799 0.0
H775 H 0.68503 0.7709 0.24241 0.0
C776 C 0.1155 0.79088 0.28391 0.0
Eu777 Eu 0.14148 0.81785 0.32044 0.0
C778 C 0.12821 0.79436 0.26433 0.0
C779 C 0.16089 0.82286 0.26131 0.0
C780 C 0.17294 0.82514 0.24265 0.0
C781 C 0.15257 0.79883 0.22674 0.0
C782 C 0.11982 0.77036 0.22998 0.0
C783 C 0.10778 0.76821 0.24859 0.0
C784 C 0.16495 0.88567 0.33593 0.0
C785 C 0.22617 0.8496 0.32563 0.0
C786 C 0.20826 0.8708 0.39795 0.0
Eu787 Eu 0.18155 0.84019 0.36208 0.0
C788 C 0.19722 0.8678 0.41793 0.0
C789 C 0.16692 0.83758 0.42221 0.0
C790 C 0.15762 0.83472 0.44155 0.0
C791 C 0.17847 0.8621 0.45687 0.0
C792 C 0.20828 0.8927 0.45229 0.0
C793 C 0.21757 0.89545 0.433 0.0
C794 C 0.16136 0.77331 0.34695 0.0
C795 C 0.09619 0.8058 0.35674 0.0
O796 O 0.12705 0.77633 0.29612 0.0
O797 O 0.11523 0.81841 0.29252 0.0
O798 O 0.13525 0.8665 0.32505 0.0
O799 O 0.18105 0.86899 0.33715 0.0
O800 O 0.196 0.82961 0.31444 0.0
O801 O 0.22751 0.86172 0.34419 0.0
O802 O 0.19366 0.88241 0.38556 0.0
O803 O 0.21086 0.84429 0.38985 0.0
O804 O 0.18969 0.79327 0.35886 0.0
O805 O 0.14351 0.78832 0.345 0.0
O806 O 0.12617 0.82534 0.36818 0.0
O807 O 0.09517 0.79534 0.33791 0.0
H808 H 0.1771 0.84322 0.27338 0.0
H809 H 0.19813 0.84756 0.24067 0.0
H810 H 0.10374 0.74924 0.21824 0.0
H811 H 0.08264 0.74585 0.25075 0.0
H812 H 0.15079 0.81603 0.41067 0.0
H813 H 0.13465 0.81071 0.44458 0.0
H814 H 0.22451 0.91458 0.46362 0.0
H815 H 0.24086 0.91911 0.42988 0.0
C816 C 0.87803 0.7023 0.73223 0.0
Eu817 Eu 0.85143 0.69216 0.69567 0.0
C818 C 0.86431 0.68866 0.75082 0.0
C819 C 0.83169 0.68329 0.75542 0.0
C820 C 0.81888 0.66987 0.77303 0.0
C821 C 0.83842 0.66149 0.78632 0.0
C822 C 0.87095 0.66666 0.78156 0.0
C823 C 0.88374 0.68011 0.76397 0.0
C824 C 0.83182 0.73265 0.67706 0.0
C825 C 0.76713 0.63341 0.69183 0.0
C826 C 0.78285 0.64677 0.61791 0.0
Eu827 Eu 0.80933 0.65838 0.65468 0.0
C828 C 0.79557 0.65897 0.59885 0.0
C829 C 0.78459 0.6339 0.58213 0.0
C830 C 0.79663 0.64444 0.56392 0.0
C831 C 0.81982 0.68038 0.56204 0.0
C832 C 0.83073 0.70558 0.57881 0.0
C833 C 0.81888 0.69495 0.59711 0.0
C834 C 0.8325 0.62006 0.67316 0.0
C835 C 0.8938 0.71614 0.65846 0.0
O836 O 0.87792 0.67926 0.71885 0.0
O837 O 0.86807 0.72298 0.7247 0.0
O838 O 0.8609 0.74532 0.68852 0.0
O839 O 0.81314 0.69941 0.67711 0.0
O840 O 0.79793 0.6503 0.70263 0.0
O841 O 0.76369 0.63537 0.67264 0.0
O842 O 0.78251 0.6699 0.63105 0.0
O843 O 0.79368 0.62703 0.62573 0.0
O844 O 0.80245 0.60572 0.66245 0.0
O845 O 0.84917 0.6531 0.67267 0.0
O846 O 0.86313 0.70007 0.64746 0.0
O847 O 0.89675 0.71362 0.67762 0.0
H848 H 0.81608 0.68945 0.74541 0.0
H849 H 0.79359 0.66585 0.77617 0.0
H850 H 0.88686 0.66093 0.79161 0.0
H851 H 0.90891 0.68396 0.76066 0.0
H852 H 0.76666 0.60605 0.58315 0.0
H853 H 0.78735 0.62447 0.55123 0.0
H854 H 0.84878 0.73341 0.57785 0.0
H855 H 0.82801 0.71481 0.60986 0.0
C856 C 0.33513 0.20505 0.72212 0.0
Eu857 Eu 0.33108 0.17872 0.68592 0.0
C858 C 0.3391 0.19778 0.74247 0.0
C859 C 0.34135 0.16794 0.74648 0.0
C860 C 0.34634 0.16229 0.76607 0.0
C861 C 0.3492 0.18645 0.78189 0.0
C862 C 0.34641 0.21602 0.77765 0.0
C863 C 0.34138 0.22157 0.75811 0.0
C864 C 0.28593 0.11112 0.66943 0.0
C865 C 0.38341 0.14709 0.681 0.0
C866 C 0.33786 0.13143 0.60807 0.0
Eu867 Eu 0.34378 0.15924 0.64419 0.0
C868 C 0.33161 0.137 0.58761 0.0
C869 C 0.31876 0.15952 0.58316 0.0
C870 C 0.31354 0.16466 0.56347 0.0
C871 C 0.32133 0.14752 0.54801 0.0
C872 C 0.33399 0.12485 0.55266 0.0
C873 C 0.33908 0.11968 0.57227 0.0
C874 C 0.39065 0.22599 0.66076 0.0
C875 C 0.29318 0.193 0.64951 0.0
O876 O 0.36228 0.21452 0.71227 0.0
O877 O 0.30556 0.18266 0.71149 0.0
O878 O 0.27689 0.12897 0.68121 0.0
O879 O 0.31819 0.12848 0.66829 0.0
O880 O 0.37485 0.16679 0.69236 0.0
O881 O 0.36988 0.13584 0.66229 0.0
O882 O 0.31161 0.12119 0.61875 0.0
O883 O 0.36775 0.15537 0.61787 0.0
O884 O 0.39836 0.20743 0.64858 0.0
O885 O 0.35827 0.20985 0.66208 0.0
O886 O 0.30065 0.17252 0.63801 0.0
O887 O 0.30717 0.20404 0.6681 0.0
H888 H 0.3396 0.1493 0.73448 0.0
H889 H 0.34814 0.13914 0.76884 0.0
H890 H 0.34921 0.23554 0.7894 0.0
H891 H 0.33983 0.24481 0.7552 0.0
H892 H 0.31296 0.17321 0.59489 0.0
H893 H 0.30398 0.18246 0.56036 0.0
H894 H 0.33967 0.11079 0.54109 0.0
H895 H 0.34892 0.10213 0.57548 0.0
C896 C 0.78158 0.12479 0.61657 0.0
Eu897 Eu 0.80755 0.15164 0.65312 0.0
C898 C 0.79466 0.12787 0.59709 0.0
C899 C 0.82752 0.15618 0.59414 0.0
C900 C 0.83989 0.15817 0.57559 0.0
C901 C 0.81966 0.13176 0.5597 0.0
C902 C 0.78674 0.10346 0.56285 0.0
C903 C 0.77439 0.1016 0.58136 0.0
C904 C 0.82994 0.21911 0.66878 0.0
C905 C 0.89244 0.18444 0.65797 0.0
C906 C 0.87518 0.20516 0.73045 0.0
Eu907 Eu 0.84821 0.17445 0.69462 0.0
C908 C 0.86425 0.20239 0.75046 0.0
C909 C 0.83276 0.17336 0.75453 0.0
C910 C 0.82345 0.17065 0.77387 0.0
C911 C 0.84554 0.19695 0.7894 0.0
C912 C 0.87662 0.22639 0.78503 0.0
C913 C 0.88588 0.22903 0.76574 0.0
C914 C 0.82916 0.10799 0.67926 0.0
C915 C 0.76265 0.13884 0.68965 0.0
O916 O 0.79219 0.10967 0.62891 0.0
O917 O 0.78205 0.15279 0.62507 0.0
O918 O 0.80009 0.19945 0.65809 0.0
O919 O 0.84667 0.20303 0.66979 0.0
O920 O 0.86219 0.16407 0.64692 0.0
O921 O 0.8939 0.1966 0.67655 0.0
O922 O 0.86067 0.21683 0.71805 0.0
O923 O 0.87748 0.17844 0.7224 0.0
O924 O 0.85757 0.12835 0.69105 0.0
O925 O 0.81071 0.1224 0.67755 0.0
O926 O 0.79272 0.15862 0.70099 0.0
O927 O 0.76147 0.12862 0.67075 0.0
H928 H 0.84362 0.17664 0.60619 0.0
H929 H 0.8652 0.18046 0.57367 0.0
H930 H 0.77076 0.08228 0.55112 0.0
H931 H 0.74911 0.07939 0.58346 0.0
H932 H 0.81568 0.1526 0.74283 0.0
H933 H 0.79947 0.14753 0.77675 0.0
H934 H 0.89389 0.24743 0.79655 0.0
H935 H 0.91013 0.25177 0.76278 0.0
C936 C 0.34629 0.88817 0.03401 0.0
C937 C 0.34914 0.89106 0.05483 0.0
H938 H 0.37108 0.9093 0.00819 0.0
C939 C 0.37861 0.92043 0.06558 0.0
H940 H 0.324 0.86576 0.02528 0.0
C941 C 0.40556 0.94508 0.05583 0.0
C942 C 0.40366 0.94118 0.03505 0.0
H943 H 0.38129 0.92393 0.08161 0.0
H944 H 0.42839 0.96671 0.06466 0.0
C945 C 0.37328 0.91307 0.0242 0.0
C946 C 0.10434 0.43418 0.02005 0.0
C947 C 0.11688 0.44312 0.04028 0.0
H948 H 0.07426 0.43904 0.99602 0.0
C949 C 0.10901 0.46568 0.05177 0.0
H950 H 0.11033 0.41726 0.01072 0.0
C951 C 0.08837 0.47827 0.04333 0.0
C952 C 0.07518 0.46867 0.02319 0.0
H953 H 0.11794 0.47279 0.06743 0.0
H954 H 0.0823 0.49507 0.05272 0.0
C955 C 0.08378 0.44683 0.0116 0.0
C956 C 0.50734 0.63931 0.01947 0.0
C957 C 0.54156 0.65843 0.02925 0.0
H958 H 0.46717 0.59007 0.00343 0.0
C959 C 0.56175 0.64189 0.03004 0.0
H960 H 0.49107 0.65125 0.01872 0.0
C961 C 0.54808 0.6071 0.0214 0.0
C962 C 0.51391 0.58796 0.01174 0.0
H963 H 0.58842 0.65604 0.03709 0.0
H964 H 0.56446 0.59526 0.0222 0.0
C965 C 0.49362 0.60432 0.0108 0.0
C966 C 0.92609 0.35538 0.97235 0.0
C967 C 0.88993 0.3363 0.97373 0.0
H968 H 0.97449 0.40391 0.98034 0.0
C969 C 0.87469 0.35291 0.98433 0.0
H970 H 0.93853 0.34354 0.96406 0.0
C971 C 0.89537 0.3877 0.99363 0.0
C972 C 0.93155 0.40644 0.99241 0.0
H973 H 0.84693 0.33877 0.98578 0.0
H974 H 0.88312 0.3998 0.00187 0.0
C975 C 0.94665 0.39003 0.98159 0.0
C976 C 0.66009 0.56085 0.98676 0.0
C977 C 0.66037 0.55541 0.96619 0.0
H978 H 0.62949 0.5532 0.01097 0.0
C979 C 0.62819 0.53594 0.95421 0.0
H980 H 0.68433 0.57505 0.9965 0.0
C981 C 0.59657 0.52304 0.96257 0.0
C982 C 0.59642 0.52939 0.9831 0.0
H983 H 0.6274 0.53149 0.9383 0.0
H984 H 0.57229 0.50869 0.95287 0.0
C985 C 0.62857 0.54812 0.99509 0.0
C986 C 0.51574 0.13868 0.98131 0.0
C987 C 0.48311 0.12585 0.97033 0.0
H988 H 0.54625 0.129 0.00266 0.0
C989 C 0.45518 0.09233 0.97317 0.0
H990 H 0.53759 0.16467 0.97974 0.0
C991 C 0.46016 0.07179 0.98647 0.0
C992 C 0.49304 0.08463 0.99716 0.0
H993 H 0.42973 0.08181 0.96489 0.0
H994 H 0.4384 0.04597 0.98838 0.0
C995 C 0.52062 0.11836 0.99458 0.0
C996 C 0.62546 0.09264 0.95487 0.0
C997 C 0.65787 0.10743 0.96649 0.0
H998 H 0.56963 0.06187 0.95391 0.0
C999 C 0.65835 0.10179 0.98653 0.0
H1000 H 0.62425 0.09666 0.9394 0.0
C1001 C 0.62727 0.08208 0.99482 0.0
C1002 C 0.59481 0.06735 0.98329 0.0
H1003 H 0.68286 0.11217 0.9958 0.0
H1004 H 0.62882 0.07829 0.01031 0.0
C1005 C 0.59419 0.07284 0.96321 0.0
C1006 C 0.89851 0.5399 0.94953 0.0
C1007 C 0.88889 0.559 0.9627 0.0
H1008 H 0.92851 0.51409 0.94579 0.0
C1009 C 0.90182 0.56562 0.98278 0.0
H1010 H 0.88918 0.53461 0.93392 0.0
C1011 C 0.9244 0.55419 0.98951 0.0
C1012 C 0.93466 0.53571 0.97636 0.0
H1013 H 0.89443 0.57967 0.99338 0.0
H1014 H 0.93385 0.56001 0.00512 0.0
C1015 C 0.92122 0.52836 0.9563 0.0
C1016 C 0.51245 0.36643 0.99081 0.0
C1017 C 0.483 0.34703 0.97673 0.0
H1018 H 0.54043 0.41079 0.01304 0.0
C1019 C 0.45703 0.35658 0.97578 0.0
H1020 H 0.53249 0.35925 0.99238 0.0
C1021 C 0.46132 0.38592 0.98801 0.0
C1022 C 0.49182 0.40641 0.00117 0.0
H1023 H 0.43399 0.34221 0.96512 0.0
H1024 H 0.44123 0.39309 0.98681 0.0
C1025 C 0.51688 0.39584 0.0028 0.0
C1026 C 0.14415 0.63568 0.01869 0.0
C1027 C 0.13405 0.65131 0.03371 0.0
H1028 H 0.12784 0.5944 0.99483 0.0
C1029 C 0.09813 0.638 0.03491 0.0
H1030 H 0.17152 0.64578 0.01697 0.0
C1031 C 0.073 0.60885 0.02188 0.0
C1032 C 0.08336 0.59225 0.00762 0.0
H1033 H 0.08939 0.64928 0.04633 0.0
H1034 H 0.04554 0.59873 0.02333 0.0
C1035 C 0.11911 0.6064 0.00587 0.0
C1036 C 0.36718 0.45308 0.0606 0.0
C1037 C 0.33505 0.43425 0.04854 0.0
H1038 H 0.42306 0.47927 0.06211 0.0
C1039 C 0.33544 0.42841 0.02801 0.0
H1040 H 0.36789 0.45779 0.07649 0.0
C1041 C 0.367 0.4404 0.01978 0.0
C1042 C 0.39909 0.45876 0.03185 0.0
H1043 H 0.31127 0.41467 0.01819 0.0
H1044 H 0.36615 0.43523 0.00392 0.0
C1045 C 0.39883 0.46522 0.05235 0.0
C1046 C 0.56471 0.931 0.03308 0.0
C1047 C 0.54528 0.89384 0.03244 0.0
H1048 H 0.56586 0.97796 0.02521 0.0
C1049 C 0.51033 0.87559 0.02374 0.0
H1050 H 0.59149 0.94593 0.03995 0.0
C1051 C 0.49547 0.8941 0.01548 0.0
C1052 C 0.51528 0.93113 0.01581 0.0
H1053 H 0.49476 0.84694 0.02284 0.0
H1054 H 0.46868 0.87942 0.00863 0.0
C1055 C 0.54993 0.9494 0.02479 0.0
C1056 C 0.01492 0.22222 0.36763 0.0
C1057 C 0.01849 0.22453 0.38844 0.0
H1058 H 0.03888 0.2438 0.34168 0.0
C1059 C 0.04858 0.25331 0.3991 0.0
H1060 H 0.99216 0.20025 0.35896 0.0
C1061 C 0.07533 0.27798 0.38924 0.0
C1062 C 0.07264 0.27468 0.36844 0.0
H1063 H 0.05184 0.25637 0.41513 0.0
H1064 H 0.09858 0.29917 0.398 0.0
C1065 C 0.04173 0.24712 0.35772 0.0
C1066 C 0.77201 0.79843 0.38648 0.0
C1067 C 0.7808 0.7765 0.37512 0.0
H1068 H 0.74517 0.8277 0.38698 0.0
C1069 C 0.76968 0.76845 0.3547 0.0
H1070 H 0.77983 0.80485 0.40228 0.0
C1071 C 0.74963 0.78137 0.34593 0.0
C1072 C 0.7402 0.80267 0.35736 0.0
H1073 H 0.77645 0.75208 0.34547 0.0
H1074 H 0.74126 0.77432 0.3302 0.0
C1075 C 0.75194 0.81137 0.37771 0.0
C1076 C 0.1741 0.97478 0.35238 0.0
C1077 C 0.20827 0.99335 0.36224 0.0
H1078 H 0.13338 0.92585 0.33633 0.0
C1079 C 0.2278 0.97613 0.36317 0.0
H1080 H 0.1583 0.98725 0.35152 0.0
C1081 C 0.21355 0.94121 0.35459 0.0
C1082 C 0.17942 0.92262 0.34484 0.0
H1083 H 0.25442 0.98982 0.37028 0.0
H1084 H 0.22942 0.92883 0.35552 0.0
C1085 C 0.15978 0.93967 0.34376 0.0
C1086 C 0.58979 0.69174 0.30515 0.0
C1087 C 0.55432 0.67239 0.30817 0.0
H1088 H 0.63844 0.74046 0.3118 0.0
C1089 C 0.54048 0.68852 0.32038 0.0
H1090 H 0.60126 0.67981 0.29604 0.0
C1091 C 0.56174 0.72352 0.32926 0.0
C1092 C 0.59723 0.74271 0.32626 0.0
H1093 H 0.51315 0.67418 0.32287 0.0
H1094 H 0.55048 0.73548 0.33852 0.0
C1095 C 0.61107 0.72643 0.31421 0.0
C1096 C 0.29003 0.86028 0.2883 0.0
C1097 C 0.32248 0.88247 0.29962 0.0
H1098 H 0.23424 0.83233 0.28758 0.0
C1099 C 0.32288 0.89318 0.31964 0.0
H1100 H 0.28878 0.85128 0.27289 0.0
C1101 C 0.29168 0.88222 0.32809 0.0
C1102 C 0.25924 0.86031 0.31675 0.0
H1103 H 0.34736 0.91076 0.32872 0.0
H1104 H 0.29307 0.89132 0.3435 0.0
C1105 C 0.25876 0.84929 0.29677 0.0
C1106 C 0.18043 0.47122 0.31438 0.0
C1107 C 0.14713 0.45848 0.30428 0.0
H1108 H 0.21227 0.4617 0.33486 0.0
C1109 C 0.11943 0.42525 0.30772 0.0
H1110 H 0.20213 0.49697 0.31227 0.0
C1111 C 0.1253 0.40485 0.32074 0.0
C1112 C 0.1588 0.41767 0.33062 0.0
H1113 H 0.0935 0.41486 0.30011 0.0
H1114 H 0.10375 0.37918 0.32309 0.0
C1115 C 0.18616 0.45113 0.32744 0.0
C1116 C 0.29245 0.41477 0.28563 0.0
C1117 C 0.3229 0.44174 0.29696 0.0
H1118 H 0.23855 0.3749 0.28543 0.0
C1119 C 0.32212 0.44949 0.3172 0.0
H1120 H 0.29255 0.40841 0.26998 0.0
C1121 C 0.29164 0.42993 0.32612 0.0
C1122 C 0.26118 0.40276 0.31486 0.0
H1123 H 0.34542 0.47002 0.32623 0.0
H1124 H 0.29192 0.4361 0.34183 0.0
C1125 C 0.26167 0.39573 0.29446 0.0
C1126 C 0.5628 0.87073 0.28214 0.0
C1127 C 0.56101 0.89821 0.29303 0.0
H1128 H 0.5861 0.83793 0.28067 0.0
C1129 C 0.58183 0.91368 0.31122 0.0
H1130 H 0.54715 0.85848 0.26801 0.0
C1131 C 0.60382 0.90191 0.31848 0.0
C1132 C 0.6058 0.87451 0.30766 0.0
H1133 H 0.58071 0.93462 0.32004 0.0
H1134 H 0.6193 0.9144 0.33264 0.0
C1135 C 0.58521 0.85914 0.28933 0.0
C1136 C 0.17343 0.69848 0.32627 0.0
C1137 C 0.14455 0.67968 0.31177 0.0
H1138 H 0.20126 0.7427 0.3486 0.0
C1139 C 0.11919 0.69004 0.31025 0.0
H1140 H 0.19294 0.69066 0.32829 0.0
C1141 C 0.12366 0.71965 0.3223 0.0
C1142 C 0.15376 0.73962 0.33582 0.0
H1143 H 0.09659 0.67613 0.29927 0.0
H1144 H 0.10409 0.72745 0.32065 0.0
C1145 C 0.17807 0.72818 0.33805 0.0
C1146 C 0.81302 0.96937 0.35187 0.0
C1147 C 0.80308 0.98562 0.36665 0.0
H1148 H 0.7964 0.92773 0.32817 0.0
C1149 C 0.76721 0.97312 0.36752 0.0
H1150 H 0.84036 0.97884 0.35039 0.0
C1151 C 0.74197 0.94418 0.35443 0.0
C1152 C 0.75211 0.92692 0.34044 0.0
H1153 H 0.75855 0.98486 0.37874 0.0
H1154 H 0.71454 0.93471 0.35562 0.0
C1155 C 0.78783 0.94025 0.339 0.0
C1156 C 0.0309 0.7883 0.39422 0.0
C1157 C 0.99879 0.76928 0.38215 0.0
H1158 H 0.08679 0.81466 0.39574 0.0
C1159 C 0.99917 0.76338 0.36162 0.0
H1160 H 0.03159 0.79305 0.41009 0.0
C1161 C 0.03074 0.77546 0.35341 0.0
C1162 C 0.06282 0.79395 0.36549 0.0
H1163 H 0.97499 0.74947 0.35182 0.0
H1164 H 0.02991 0.77021 0.33756 0.0
C1165 C 0.06256 0.80052 0.38598 0.0
C1166 C 0.17972 0.21083 0.35633 0.0
C1167 C 0.21474 0.22922 0.3649 0.0
H1168 H 0.13786 0.2143 0.34123 0.0
C1169 C 0.23422 0.26632 0.36516 0.0
H1170 H 0.16411 0.18221 0.3557 0.0
C1171 C 0.21932 0.28451 0.35671 0.0
C1172 C 0.18453 0.26608 0.34795 0.0
H1173 H 0.26107 0.28137 0.37189 0.0
H1174 H 0.23522 0.31303 0.35687 0.0
C1175 C 0.16475 0.22912 0.34792 0.0
C1176 C 0.67908 0.55638 0.70043 0.0
C1177 C 0.68236 0.5583 0.72122 0.0
H1178 H 0.70329 0.57882 0.67471 0.0
C1179 C 0.71195 0.5873 0.73211 0.0
H1180 H 0.65667 0.53426 0.69161 0.0
C1181 C 0.73862 0.61254 0.72246 0.0
C1182 C 0.73634 0.60961 0.70169 0.0
H1183 H 0.71495 0.59005 0.74814 0.0
H1184 H 0.76152 0.63384 0.73137 0.0
C1185 C 0.70581 0.58186 0.69074 0.0
C1186 C 0.43496 0.0999 0.6871 0.0
C1187 C 0.44772 0.10932 0.70729 0.0
H1188 H 0.40494 0.10451 0.66295 0.0
C1189 C 0.44026 0.1324 0.71859 0.0
H1190 H 0.44065 0.08257 0.67792 0.0
C1191 C 0.41984 0.1451 0.71 0.0
C1192 C 0.40647 0.13506 0.6899 0.0
H1193 H 0.44937 0.13988 0.73423 0.0
H1194 H 0.4141 0.16234 0.71923 0.0
C1195 C 0.41461 0.11263 0.6785 0.0
C1196 C 0.83682 0.30689 0.68602 0.0
C1197 C 0.87111 0.32609 0.69569 0.0
H1198 H 0.79669 0.25768 0.66993 0.0
C1199 C 0.8915 0.30976 0.6962 0.0
H1200 H 0.8204 0.31868 0.68547 0.0
C1201 C 0.87796 0.27508 0.6874 0.0
C1202 C 0.8437 0.25583 0.67787 0.0
H1203 H 0.91823 0.32398 0.70316 0.0
H1204 H 0.89448 0.26339 0.68801 0.0
C1205 C 0.82321 0.272 0.67719 0.0
C1206 C 0.25488 0.02364 0.63853 0.0
C1207 C 0.21992 0.00382 0.64243 0.0
H1208 H 0.30326 0.07282 0.64437 0.0
C1209 C 0.20661 0.01953 0.65534 0.0
H1210 H 0.26589 0.012 0.62883 0.0
C1211 C 0.22791 0.05465 0.66403 0.0
C1212 C 0.26292 0.07432 0.66017 0.0
H1213 H 0.17968 0.00478 0.65852 0.0
H1214 H 0.21707 0.06631 0.67384 0.0
C1215 C 0.27624 0.05841 0.64744 0.0
C1216 C 0.956 0.19433 0.62057 0.0
C1217 C 0.98852 0.21678 0.63176 0.0
H1218 H 0.90023 0.16636 0.62001 0.0
C1219 C 0.98906 0.22814 0.65169 0.0
H1220 H 0.95463 0.18484 0.60524 0.0
C1221 C 0.95794 0.21746 0.66019 0.0
C1222 C 0.92543 0.19518 0.64899 0.0
H1223 H 0.01359 0.24595 0.66066 0.0
H1224 H 0.95945 0.22698 0.67553 0.0
C1225 C 0.92481 0.18361 0.62908 0.0
C1226 C 0.78761 0.76165 0.63933 0.0
C1227 C 0.81551 0.79532 0.63668 0.0
H1228 H 0.77077 0.71514 0.65442 0.0
C1229 C 0.84801 0.80821 0.64783 0.0
H1230 H 0.76227 0.75107 0.63093 0.0
C1231 C 0.8528 0.78781 0.66106 0.0
C1232 C 0.82527 0.75395 0.66347 0.0
H1233 H 0.86982 0.83432 0.64642 0.0
H1234 H 0.87835 0.79853 0.66927 0.0
C1235 C 0.7925 0.74104 0.65263 0.0
C1236 C 0.98722 0.78256 0.65131 0.0
C1237 C 0.98768 0.77541 0.63096 0.0
H1238 H 0.95722 0.76908 0.67602 0.0
C1239 C 0.95685 0.74929 0.61954 0.0
H1240 H 0.0108 0.80239 0.66044 0.0
C1241 C 0.92603 0.73053 0.6284 0.0
C1242 C 0.92582 0.73702 0.64889 0.0
H1243 H 0.95664 0.74338 0.60381 0.0
H1244 H 0.90261 0.71039 0.61928 0.0
C1245 C 0.95666 0.76333 0.66023 0.0
C1246 C 0.22751 0.20202 0.61563 0.0
C1247 C 0.2254 0.22924 0.62658 0.0
H1248 H 0.25102 0.16944 0.61414 0.0
C1249 C 0.24572 0.24432 0.64495 0.0
H1250 H 0.21226 0.19009 0.60136 0.0
C1251 C 0.26763 0.23247 0.65229 0.0
C1252 C 0.27001 0.20542 0.64136 0.0
H1253 H 0.24435 0.26505 0.65382 0.0
H1254 H 0.28278 0.24469 0.66656 0.0
C1255 C 0.24982 0.19037 0.6229 0.0
C1256 C 0.78776 0.02499 0.64238 0.0
C1257 C 0.81412 0.01597 0.64313 0.0
H1258 H 0.77137 0.06086 0.65366 0.0
C1259 C 0.84369 0.03567 0.6571 0.0
H1260 H 0.76462 0.01037 0.63181 0.0
C1261 C 0.84781 0.06485 0.66918 0.0
C1262 C 0.82235 0.0749 0.66776 0.0
H1263 H 0.86404 0.0289 0.65851 0.0
H1264 H 0.87145 0.08005 0.67934 0.0
C1265 C 0.79176 0.05411 0.6547 0.0
C1266 C 0.47782 0.30166 0.6842 0.0
C1267 C 0.46799 0.31771 0.69915 0.0
H1268 H 0.46103 0.2601 0.66043 0.0
C1269 C 0.43214 0.30499 0.70025 0.0
H1270 H 0.50513 0.31131 0.68254 0.0
C1271 C 0.40681 0.27602 0.68722 0.0
C1272 C 0.41686 0.25893 0.67307 0.0
H1273 H 0.42357 0.31657 0.71161 0.0
H1274 H 0.37941 0.26638 0.68859 0.0
C1275 C 0.45255 0.27249 0.67139 0.0
C1276 C 0.69786 0.12094 0.72751 0.0
C1277 C 0.6656 0.10165 0.7156 0.0
H1278 H 0.75373 0.14773 0.72875 0.0
C1279 C 0.66572 0.09561 0.69505 0.0
H1280 H 0.69877 0.12583 0.7434 0.0
C1281 C 0.69715 0.10784 0.68667 0.0
C1282 C 0.72938 0.12666 0.69859 0.0
H1283 H 0.64143 0.0815 0.68535 0.0
H1284 H 0.6961 0.10249 0.67081 0.0
C1285 C 0.72939 0.13333 0.7191 0.0
C1286 C 0.84144 0.54471 0.69107 0.0
C1287 C 0.87657 0.56264 0.69941 0.0
H1288 H 0.79988 0.54892 0.67616 0.0
C1289 C 0.89653 0.59969 0.69958 0.0
H1290 H 0.82546 0.51614 0.69053 0.0
C1291 C 0.88201 0.61828 0.69121 0.0
C1292 C 0.84714 0.6003 0.6826 0.0
H1293 H 0.9235 0.6144 0.70615 0.0
H1294 H 0.8983 0.64673 0.69125 0.0
C1295 C 0.82686 0.5634 0.68272 0.0
C1296 C 0.49585 0.0111 0.17646 0.0
C1297 C 0.47706 0.97547 0.18027 0.0
H1298 H 0.52024 0.04729 0.15522 0.0
C1299 C 0.46715 0.94851 0.16456 0.0
H1300 H 0.50455 0.03257 0.18826 0.0
C1301 C 0.47641 0.95703 0.14559 0.0
C1302 C 0.49565 0.99267 0.1419 0.0
H1303 H 0.45225 0.92081 0.16691 0.0
H1304 H 0.46847 0.9357 0.13379 0.0
C1305 C 0.50495 0.01958 0.1575 0.0
C1306 C 0.01806 0.52508 0.17213 0.0
C1307 C 0.04418 0.51693 0.17722 0.0
H1308 H 0.98735 0.53076 0.14881 0.0
C1309 C 0.05752 0.50526 0.16208 0.0
H1310 H 0.007 0.53371 0.1835 0.0
C1311 C 0.04653 0.50385 0.14223 0.0
C1312 C 0.02189 0.514 0.1371 0.0
H1313 H 0.07803 0.49925 0.1655 0.0
H1314 H 0.05884 0.49675 0.13094 0.0
C1315 C 0.00694 0.52351 0.15228 0.0
C1316 C 0.47764 0.48724 0.16995 0.0
C1317 C 0.47955 0.51615 0.18154 0.0
H1318 H 0.48473 0.46753 0.14199 0.0
C1319 C 0.48852 0.54747 0.17296 0.0
H1320 H 0.4705 0.46265 0.17611 0.0
C1321 C 0.49661 0.55025 0.15342 0.0
C1322 C 0.49566 0.52168 0.142 0.0
H1323 H 0.49047 0.57029 0.18157 0.0
H1324 H 0.504 0.57493 0.1473 0.0
C1325 C 0.48549 0.48993 0.15036 0.0
C1326 C 0.94334 0.48742 0.83357 0.0
C1327 C 0.96799 0.49132 0.82043 0.0
H1328 H 0.92971 0.48094 0.86328 0.0
C1329 C 0.99915 0.4931 0.82785 0.0
H1330 H 0.91921 0.48626 0.82834 0.0
C1331 C 0.00522 0.4903 0.84779 0.0
C1332 C 0.98028 0.48559 0.86084 0.0
H1333 H 0.01852 0.49566 0.81813 0.0
H1334 H 0.02942 0.49156 0.85296 0.0
C1335 C 0.94948 0.48471 0.85359 0.0
C1336 C 0.54781 0.47574 0.8529 0.0
C1337 C 0.52414 0.46281 0.83561 0.0
H1338 H 0.55496 0.48592 0.8845 0.0
C1339 C 0.48902 0.45267 0.83716 0.0
H1340 H 0.57495 0.48332 0.85221 0.0
C1341 C 0.47758 0.45438 0.85565 0.0
C1342 C 0.50093 0.46601 0.87306 0.0
H1343 H 0.47029 0.44304 0.82406 0.0
H1344 H 0.4503 0.44624 0.85632 0.0
C1345 C 0.53633 0.47724 0.87142 0.0
C1346 C 0.47264 0.02187 0.84011 0.0
C1347 C 0.50773 0.04017 0.83609 0.0
H1348 H 0.43686 0.99914 0.86161 0.0
C1349 C 0.53423 0.05017 0.85174 0.0
H1350 H 0.45148 0.01323 0.82842 0.0
C1351 C 0.52573 0.04159 0.87086 0.0
C1352 C 0.49056 0.02263 0.8747 0.0
H1353 H 0.56152 0.06449 0.8492 0.0
H1354 H 0.54668 0.049 0.8825 0.0
C1355 C 0.4642 0.01332 0.85913 0.0
C1356 C 0.13719 0.28016 0.49672 0.0
C1357 C 0.14464 0.30683 0.51218 0.0
H1358 H 0.14084 0.26785 0.46625 0.0
C1359 C 0.16135 0.3424 0.50816 0.0
H1360 H 0.12392 0.25247 0.4992 0.0
C1361 C 0.17077 0.35113 0.48928 0.0
C1362 C 0.16395 0.32456 0.47396 0.0
H1363 H 0.16817 0.36373 0.51976 0.0
H1364 H 0.18438 0.37885 0.48684 0.0
C1365 C 0.14684 0.28895 0.47784 0.0
C1366 C 0.68556 0.85961 0.50441 0.0
C1367 C 0.71239 0.85229 0.50914 0.0
H1368 H 0.6538 0.86469 0.48146 0.0
C1369 C 0.72591 0.84141 0.49375 0.0
H1370 H 0.67436 0.86762 0.51598 0.0
C1371 C 0.71439 0.84002 0.47402 0.0
C1372 C 0.68903 0.84938 0.46924 0.0
H1373 H 0.74695 0.83606 0.49691 0.0
H1374 H 0.72688 0.83361 0.46254 0.0
C1375 C 0.67391 0.85805 0.48466 0.0
C1376 C 0.1893 0.86682 0.51283 0.0
C1377 C 0.15457 0.8515 0.51739 0.0
H1378 H 0.22392 0.88158 0.49034 0.0
C1379 C 0.12758 0.83979 0.50184 0.0
H1380 H 0.21081 0.87665 0.52444 0.0
C1381 C 0.1352 0.84317 0.48219 0.0
C1382 C 0.16998 0.85844 0.47768 0.0
H1383 H 0.10053 0.82766 0.50483 0.0
H1384 H 0.11387 0.83415 0.47056 0.0
C1385 C 0.19688 0.87014 0.49326 0.0
C1386 C 0.61373 0.82168 0.16638 0.0
C1387 C 0.63843 0.82518 0.15337 0.0
H1388 H 0.59979 0.81569 0.19604 0.0
C1389 C 0.66944 0.82687 0.16098 0.0
H1390 H 0.58971 0.82062 0.16102 0.0
C1391 C 0.6753 0.82432 0.18099 0.0
C1392 C 0.65028 0.81996 0.19391 0.0
H1393 H 0.68885 0.82913 0.15136 0.0
H1394 H 0.69939 0.82548 0.18631 0.0
C1395 C 0.61964 0.8192 0.18647 0.0
C1396 C 0.21275 0.80978 0.18706 0.0
C1397 C 0.18934 0.79734 0.16968 0.0
H1398 H 0.21948 0.8194 0.21867 0.0
C1399 C 0.15428 0.78754 0.17109 0.0
H1400 H 0.23985 0.81708 0.18647 0.0
C1401 C 0.14262 0.78912 0.18953 0.0
C1402 C 0.16569 0.80024 0.20702 0.0
H1403 H 0.13575 0.77828 0.15792 0.0
H1404 H 0.11539 0.78128 0.19008 0.0
C1405 C 0.20105 0.81112 0.20553 0.0
C1406 C 0.14093 0.35433 0.17269 0.0
C1407 C 0.17601 0.37164 0.16859 0.0
H1408 H 0.10504 0.33266 0.19424 0.0
C1409 C 0.20235 0.38062 0.18418 0.0
H1410 H 0.11985 0.34644 0.16106 0.0
C1411 C 0.19372 0.37212 0.20329 0.0
C1412 C 0.15855 0.3543 0.20723 0.0
H1413 H 0.22964 0.39417 0.1816 0.0
H1414 H 0.21455 0.3788 0.21487 0.0
C1415 C 0.13235 0.3459 0.19171 0.0
C1416 C 0.80203 0.65463 0.83585 0.0
C1417 C 0.8076 0.62858 0.84346 0.0
H1418 H 0.80773 0.68568 0.81194 0.0
C1419 C 0.82076 0.61147 0.83146 0.0
H1420 H 0.79237 0.66866 0.8448 0.0
C1421 C 0.82972 0.62136 0.81267 0.0
C1422 C 0.82564 0.64852 0.80542 0.0
H1423 H 0.8248 0.59088 0.83675 0.0
H1424 H 0.84033 0.60807 0.80392 0.0
C1425 C 0.81093 0.66447 0.81703 0.0
C1426 C 0.39392 0.17372 0.82708 0.0
C1427 C 0.38074 0.18487 0.84254 0.0
H1428 H 0.39462 0.16589 0.79583 0.0
C1429 C 0.3543 0.19279 0.8379 0.0
H1430 H 0.41467 0.16792 0.83016 0.0
C1431 C 0.34269 0.19149 0.81818 0.0
C1432 C 0.35743 0.18247 0.80268 0.0
H1433 H 0.34335 0.20101 0.84952 0.0
H1434 H 0.32284 0.19853 0.81506 0.0
C1435 C 0.38243 0.17258 0.80737 0.0
C1436 C 0.85595 0.19857 0.84514 0.0
C1437 C 0.82159 0.18589 0.84986 0.0
H1438 H 0.89025 0.21145 0.82252 0.0
C1439 C 0.79499 0.1771 0.8345 0.0
H1440 H 0.87717 0.20609 0.85663 0.0
C1441 C 0.80262 0.18063 0.81485 0.0
C1442 C 0.83703 0.19322 0.81019 0.0
H1443 H 0.76822 0.16708 0.83763 0.0
H1444 H 0.78164 0.17381 0.80334 0.0
C1445 C 0.86355 0.20211 0.82559 0.0
C1446 C 0.28072 0.15579 0.49944 0.0
C1447 C 0.3055 0.15902 0.48655 0.0
H1448 H 0.26625 0.14964 0.52898 0.0
C1449 C 0.33615 0.16008 0.49427 0.0
H1450 H 0.25699 0.15522 0.49398 0.0
C1451 C 0.34154 0.15716 0.51427 0.0
C1452 C 0.31641 0.15304 0.52707 0.0
H1453 H 0.3556 0.16213 0.48474 0.0
H1454 H 0.36534 0.15782 0.51969 0.0
C1455 C 0.28617 0.15294 0.51951 0.0
C1456 C 0.88041 0.14242 0.52038 0.0
C1457 C 0.85727 0.13012 0.50289 0.0
H1458 H 0.88666 0.15195 0.55199 0.0
C1459 C 0.82217 0.12039 0.50411 0.0
H1460 H 0.90752 0.14965 0.51993 0.0
C1461 C 0.81023 0.12194 0.52247 0.0
C1462 C 0.83305 0.13298 0.54007 0.0
H1463 H 0.80384 0.11125 0.49086 0.0
H1464 H 0.783 0.11419 0.52287 0.0
C1465 C 0.86843 0.14374 0.53876 0.0
C1466 C 0.85089 0.67957 0.51144 0.0
C1467 C 0.84964 0.70808 0.50393 0.0
H1468 H 0.84272 0.64869 0.53568 0.0
C1469 C 0.84059 0.72883 0.51618 0.0
H1470 H 0.85738 0.66282 0.50234 0.0
C1471 C 0.83203 0.72061 0.53531 0.0
C1472 C 0.832 0.69126 0.5425 0.0
H1473 H 0.83963 0.75112 0.51086 0.0
H1474 H 0.82424 0.73647 0.54419 0.0
C1475 C 0.84209 0.67122 0.53047 0.0
loop_
_geom_bond_atom_site_label_1
_geom_bond_atom_site_label_2
_geom_bond_distance
_geom_bond_site_symmetry_2
_ccdc_geom_bond_type
P0 O11 1.490 . S
P0 C14 1.812 . S
P0 C20 1.803 . S
P0 C26 1.819 . S
H1 C15 0.941 . S
H2 C16 0.939 . S
H3 C18 0.940 . S
H4 C19 0.940 . S
H5 C21 0.939 . S
H6 C22 0.942 . S
H7 C24 0.940 . S
H8 C25 0.939 . S
H9 C27 0.941 . S
H10 C31 0.939 . S
O11 P0 1.490 . S
H12 C28 0.939 . S
H13 C30 0.940 . S
C14 P0 1.812 . S
C14 C15 1.389 . S
C14 C19 1.391 . S
C15 H1 0.941 . S
C15 C14 1.389 . S
C15 C16 1.397 . S
C16 H2 0.939 . S
C16 C15 1.397 . S
C16 C17 1.378 . S
C17 C16 1.378 . S
C17 C18 1.378 . S
C18 H3 0.940 . S
C18 C17 1.378 . S
C18 C19 1.396 . S
C19 H4 0.940 . S
C19 C14 1.391 . S
C19 C18 1.396 . S
C20 P0 1.803 . S
C20 C21 1.378 . S
C20 C25 1.400 . S
C21 H5 0.939 . S
C21 C20 1.378 . S
C21 C22 1.361 . S
C22 H6 0.942 . S
C22 C21 1.361 . S
C22 C23 1.369 . S
C23 C22 1.369 . S
C23 C24 1.404 . S
C24 H7 0.940 . S
C24 C23 1.404 . S
C24 C25 1.389 . S
C25 H8 0.939 . S
C25 C20 1.400 . S
C25 C24 1.389 . S
C26 P0 1.819 . S
C26 C27 1.391 . S
C26 C31 1.391 . S
C27 H9 0.941 . S
C27 C26 1.391 . S
C27 C28 1.396 . S
C28 H12 0.939 . S
C28 C27 1.396 . S
C28 C29 1.397 . S
C29 C28 1.397 . S
C29 C30 1.385 . S
C30 H13 0.940 . S
C30 C29 1.385 . S
C30 C31 1.388 . S
C31 H10 0.939 . S
C31 C26 1.391 . S
C31 C30 1.388 . S
P32 O43 1.490 . S
P32 C46 1.812 . S
P32 C52 1.803 . S
P32 C58 1.819 . S
H33 C47 0.941 . S
H34 C48 0.939 . S
H35 C50 0.940 . S
H36 C51 0.940 . S
H37 C53 0.939 . S
H38 C54 0.942 1_455 S
H39 C56 0.940 . S
H40 C57 0.939 . S
H41 C59 0.941 . S
H42 C63 0.939 . S
O43 P32 1.490 . S
H44 C60 0.939 . S
H45 C62 0.940 . S
C46 P32 1.812 . S
C46 C47 1.389 . S
C46 C51 1.391 . S
C47 H33 0.941 . S
C47 C46 1.389 . S
C47 C48 1.397 . S
C48 H34 0.939 . S
C48 C47 1.397 . S
C48 C49 1.378 . S
C49 C48 1.378 . S
C49 C50 1.378 . S
C50 H35 0.940 . S
C50 C49 1.378 . S
C50 C51 1.396 . S
C51 H36 0.940 . S
C51 C46 1.391 . S
C51 C50 1.396 . S
C52 P32 1.803 . S
C52 C53 1.378 . S
C52 C57 1.400 . S
C53 H37 0.939 . S
C53 C52 1.378 . S
C53 C54 1.361 . S
C54 H38 0.942 1_655 S
C54 C53 1.361 . S
C54 C55 1.369 . S
C55 C54 1.369 . S
C55 C56 1.404 . S
C56 H39 0.940 . S
C56 C55 1.404 . S
C56 C57 1.389 . S
C57 H40 0.939 . S
C57 C52 1.400 . S
C57 C56 1.389 . S
C58 P32 1.819 . S
C58 C59 1.391 . S
C58 C63 1.391 . S
C59 H41 0.941 . S
C59 C58 1.391 . S
C59 C60 1.396 . S
C60 H44 0.939 . S
C60 C59 1.396 . S
C60 C61 1.397 . S
C61 C60 1.397 . S
C61 C62 1.385 . S
C62 H45 0.940 . S
C62 C61 1.385 . S
C62 C63 1.388 . S
C63 H42 0.939 . S
C63 C58 1.391 . S
C63 C62 1.388 . S
P64 O75 1.490 . S
P64 C78 1.812 . S
P64 C84 1.803 . S
P64 C90 1.819 . S
H65 C79 0.941 . S
H66 C80 0.939 . S
H67 C82 0.940 . S
H68 C83 0.940 . S
H69 C85 0.939 . S
H70 C86 0.942 . S
H71 C88 0.940 . S
H72 C89 0.939 . S
H73 C91 0.941 . S
H74 C95 0.939 . S
O75 P64 1.490 . S
H76 C92 0.939 . S
H77 C94 0.940 . S
C78 P64 1.812 . S
C78 C79 1.389 . S
C78 C83 1.391 . S
C79 H65 0.941 . S
C79 C78 1.389 . S
C79 C80 1.397 . S
C80 H66 0.939 . S
C80 C79 1.397 . S
C80 C81 1.378 . S
C81 C80 1.378 . S
C81 C82 1.378 . S
C82 H67 0.940 . S
C82 C81 1.378 . S
C82 C83 1.396 . S
C83 H68 0.940 . S
C83 C78 1.391 . S
C83 C82 1.396 . S
C84 P64 1.803 . S
C84 C85 1.378 . S
C84 C89 1.400 . S
C85 H69 0.939 . S
C85 C84 1.378 . S
C85 C86 1.361 . S
C86 H70 0.942 . S
C86 C85 1.361 . S
C86 C87 1.369 . S
C87 C86 1.369 . S
C87 C88 1.404 . S
C88 H71 0.940 . S
C88 C87 1.404 . S
C88 C89 1.389 . S
C89 H72 0.939 . S
C89 C84 1.400 . S
C89 C88 1.389 . S
C90 P64 1.819 . S
C90 C91 1.391 . S
C90 C95 1.391 . S
C91 H73 0.941 . S
C91 C90 1.391 . S
C91 C92 1.396 . S
C92 H76 0.939 . S
C92 C91 1.396 . S
C92 C93 1.397 . S
C93 C92 1.397 . S
C93 C94 1.385 . S
C94 H77 0.940 . S
C94 C93 1.385 . S
C94 C95 1.388 . S
C95 H74 0.939 . S
C95 C90 1.391 . S
C95 C94 1.388 . S
P96 O107 1.490 . S
P96 C110 1.812 . S
P96 C116 1.803 . S
P96 C122 1.819 . S
H97 C111 0.941 . S
H98 C112 0.939 . S
H99 C114 0.940 . S
H100 C115 0.940 . S
H101 C117 0.939 . S
H102 C118 0.942 . S
H103 C120 0.940 . S
H104 C121 0.939 . S
H105 C123 0.941 . S
H106 C127 0.939 . S
O107 P96 1.490 . S
H108 C124 0.939 . S
H109 C126 0.940 . S
C110 P96 1.812 . S
C110 C111 1.389 . S
C110 C115 1.391 . S
C111 H97 0.941 . S
C111 C110 1.389 . S
C111 C112 1.397 . S
C112 H98 0.939 . S
C112 C111 1.397 . S
C112 C113 1.378 . S
C113 C112 1.378 . S
C113 C114 1.378 . S
C114 H99 0.940 . S
C114 C113 1.378 . S
C114 C115 1.396 . S
C115 H100 0.940 . S
C115 C110 1.391 . S
C115 C114 1.396 . S
C116 P96 1.803 . S
C116 C117 1.378 . S
C116 C121 1.400 . S
C117 H101 0.939 . S
C117 C116 1.378 . S
C117 C118 1.361 . S
C118 H102 0.942 . S
C118 C117 1.361 . S
C118 C119 1.369 . S
C119 C118 1.369 . S
C119 C120 1.404 . S
C120 H103 0.940 . S
C120 C119 1.404 . S
C120 C121 1.389 . S
C121 H104 0.939 . S
C121 C116 1.400 . S
C121 C120 1.389 . S
C122 P96 1.819 . S
C122 C123 1.391 . S
C122 C127 1.391 . S
C123 H105 0.941 . S
C123 C122 1.391 . S
C123 C124 1.396 . S
C124 H108 0.939 . S
C124 C123 1.396 . S
C124 C125 1.397 . S
C125 C124 1.397 . S
C125 C126 1.385 . S
C126 H109 0.940 . S
C126 C125 1.385 . S
C126 C127 1.388 . S
C127 H106 0.939 . S
C127 C122 1.391 . S
C127 C126 1.388 . S
P128 O139 1.490 . S
P128 C142 1.812 . S
P128 C148 1.803 . S
P128 C154 1.819 . S
H129 C143 0.941 . S
H130 C144 0.939 . S
H131 C146 0.940 . S
H132 C147 0.940 . S
H133 C149 0.939 . S
H134 C150 0.942 . S
H135 C152 0.940 . S
H136 C153 0.939 . S
H137 C155 0.941 . S
H138 C159 0.939 . S
O139 P128 1.490 . S
H140 C156 0.939 . S
H141 C158 0.940 . S
C142 P128 1.812 . S
C142 C143 1.389 . S
C142 C147 1.391 . S
C143 H129 0.941 . S
C143 C142 1.389 . S
C143 C144 1.397 . S
C144 H130 0.939 . S
C144 C143 1.397 . S
C144 C145 1.378 . S
C145 C144 1.378 . S
C145 C146 1.378 . S
C146 H131 0.940 . S
C146 C145 1.378 . S
C146 C147 1.396 . S
C147 H132 0.940 . S
C147 C142 1.391 . S
C147 C146 1.396 . S
C148 P128 1.803 . S
C148 C149 1.378 . S
C148 C153 1.400 . S
C149 H133 0.939 . S
C149 C148 1.378 . S
C149 C150 1.361 . S
C150 H134 0.942 . S
C150 C149 1.361 . S
C150 C151 1.369 . S
C151 C150 1.369 . S
C151 C152 1.404 . S
C152 H135 0.940 . S
C152 C151 1.404 . S
C152 C153 1.389 . S
C153 H136 0.939 . S
C153 C148 1.400 . S
C153 C152 1.389 . S
C154 P128 1.819 . S
C154 C155 1.391 . S
C154 C159 1.391 . S
C155 H137 0.941 . S
C155 C154 1.391 . S
C155 C156 1.396 . S
C156 H140 0.939 . S
C156 C155 1.396 . S
C156 C157 1.397 . S
C157 C156 1.397 . S
C157 C158 1.385 . S
C158 H141 0.940 . S
C158 C157 1.385 . S
C158 C159 1.388 . S
C159 H138 0.939 . S
C159 C154 1.391 . S
C159 C158 1.388 . S
P160 O171 1.490 . S
P160 C174 1.812 . S
P160 C180 1.803 . S
P160 C186 1.819 . S
H161 C175 0.941 . S
H162 C176 0.939 . S
H163 C178 0.940 . S
H164 C179 0.940 . S
H165 C181 0.939 . S
H166 C182 0.942 . S
H167 C184 0.940 . S
H168 C185 0.939 . S
H169 C187 0.941 . S
H170 C191 0.939 . S
O171 P160 1.490 . S
H172 C188 0.939 . S
H173 C190 0.940 . S
C174 P160 1.812 . S
C174 C175 1.389 . S
C174 C179 1.391 . S
C175 H161 0.941 . S
C175 C174 1.389 . S
C175 C176 1.397 . S
C176 H162 0.939 . S
C176 C175 1.397 . S
C176 C177 1.378 . S
C177 C176 1.378 . S
C177 C178 1.378 . S
C178 H163 0.940 . S
C178 C177 1.378 . S
C178 C179 1.396 . S
C179 H164 0.940 . S
C179 C174 1.391 . S
C179 C178 1.396 . S
C180 P160 1.803 . S
C180 C181 1.378 . S
C180 C185 1.400 . S
C181 H165 0.939 . S
C181 C180 1.378 . S
C181 C182 1.361 . S
C182 H166 0.942 . S
C182 C181 1.361 . S
C182 C183 1.369 . S
C183 C182 1.369 . S
C183 C184 1.404 . S
C184 H167 0.940 . S
C184 C183 1.404 . S
C184 C185 1.389 . S
C185 H168 0.939 . S
C185 C180 1.400 . S
C185 C184 1.389 . S
C186 P160 1.819 . S
C186 C187 1.391 . S
C186 C191 1.391 . S
C187 H169 0.941 . S
C187 C186 1.391 . S
C187 C188 1.396 . S
C188 H172 0.939 . S
C188 C187 1.396 . S
C188 C189 1.397 . S
C189 C188 1.397 . S
C189 C190 1.385 . S
C190 H173 0.940 . S
C190 C189 1.385 . S
C190 C191 1.388 . S
C191 H170 0.939 . S
C191 C186 1.391 . S
C191 C190 1.388 . S
P192 O203 1.490 . S
P192 C206 1.812 1_455 S
P192 C212 1.803 1_455 S
P192 C218 1.817 1_455 S
H193 C207 0.941 1_455 S
H194 C208 0.939 . S
H195 C210 0.940 . S
H196 C211 0.940 . S
H197 C213 0.939 1_455 S
H198 C214 0.942 . S
H199 C216 0.940 . S
H200 C217 0.939 . S
H201 C219 0.941 . S
H202 C223 0.939 . S
O203 P192 1.490 . S
H204 C220 0.939 . S
H205 C222 0.940 . S
C206 P192 1.812 1_655 S
C206 C207 1.389 . S
C206 C211 1.391 . S
C207 H193 0.941 1_655 S
C207 C206 1.389 . S
C207 C208 1.397 . S
C208 H194 0.939 . S
C208 C207 1.397 . S
C208 C209 1.378 . S
C209 C208 1.378 . S
C209 C210 1.378 . S
C210 H195 0.940 . S
C210 C209 1.378 . S
C210 C211 1.396 . S
C211 H196 0.940 . S
C211 C206 1.391 . S
C211 C210 1.396 . S
C212 P192 1.803 1_655 S
C212 C213 1.378 . S
C212 C217 1.400 . S
C213 H197 0.939 1_655 S
C213 C212 1.378 . S
C213 C214 1.361 . S
C214 H198 0.942 . S
C214 C213 1.361 . S
C214 C215 1.369 . S
C215 C214 1.369 . S
C215 C216 1.404 . S
C216 H199 0.940 . S
C216 C215 1.404 . S
C216 C217 1.389 . S
C217 H200 0.939 . S
C217 C212 1.400 . S
C217 C216 1.389 . S
C218 P192 1.817 1_655 S
C218 C219 1.382 1_655 S
C218 C223 1.402 . S
C219 H201 0.941 . S
C219 C218 1.382 1_455 S
C219 C220 1.396 . S
C220 H204 0.939 . S
C220 C219 1.396 . S
C220 C221 1.397 1_455 S
C221 C220 1.397 1_655 S
C221 C222 1.385 . S
C222 H205 0.940 . S
C222 C221 1.385 . S
C222 C223 1.388 . S
C223 H202 0.939 . S
C223 C218 1.402 . S
C223 C222 1.388 . S
P224 O235 1.490 . S
P224 C238 1.812 . S
P224 C244 1.803 . S
P224 C250 1.819 . S
H225 C239 0.941 . S
H226 C240 0.939 . S
H227 C242 0.940 . S
H228 C243 0.940 . S
H229 C245 0.939 . S
H230 C246 0.942 . S
H231 C248 0.940 . S
H232 C249 0.939 . S
H233 C251 0.941 . S
H234 C255 0.939 . S
O235 P224 1.490 . S
H236 C252 0.939 . S
H237 C254 0.940 . S
C238 P224 1.812 . S
C238 C239 1.389 . S
C238 C243 1.391 . S
C239 H225 0.941 . S
C239 C238 1.389 . S
C239 C240 1.397 . S
C240 H226 0.939 . S
C240 C239 1.397 . S
C240 C241 1.378 . S
C241 C240 1.378 . S
C241 C242 1.378 . S
C242 H227 0.940 . S
C242 C241 1.378 . S
C242 C243 1.396 . S
C243 H228 0.940 . S
C243 C238 1.391 . S
C243 C242 1.396 . S
C244 P224 1.803 . S
C244 C245 1.378 . S
C244 C249 1.400 . S
C245 H229 0.939 . S
C245 C244 1.378 . S
C245 C246 1.361 . S
C246 H230 0.942 . S
C246 C245 1.361 . S
C246 C247 1.369 . S
C247 C246 1.369 . S
C247 C248 1.404 . S
C248 H231 0.940 . S
C248 C247 1.404 . S
C248 C249 1.389 . S
C249 H232 0.939 . S
C249 C244 1.400 . S
C249 C248 1.389 . S
C250 P224 1.819 . S
C250 C251 1.391 . S
C250 C255 1.391 . S
C251 H233 0.941 . S
C251 C250 1.391 . S
C251 C252 1.396 . S
C252 H236 0.939 . S
C252 C251 1.396 . S
C252 C253 1.397 . S
C253 C252 1.397 . S
C253 C254 1.385 . S
C254 H237 0.940 . S
C254 C253 1.385 . S
C254 C255 1.388 . S
C255 H234 0.939 . S
C255 C250 1.391 . S
C255 C254 1.388 . S
P256 O267 1.490 1_545 S
P256 C270 1.812 . S
P256 C276 1.803 . S
P256 C282 1.819 . S
H257 C271 0.941 . S
H258 C272 0.939 . S
H259 C274 0.940 . S
H260 C275 0.940 . S
H261 C277 0.939 . S
H262 C278 0.942 . S
H263 C280 0.940 . S
H264 C281 0.939 . S
H265 C283 0.941 1_565 S
H266 C287 0.939 . S
O267 P256 1.490 1_565 S
H268 C284 0.935 1_565 S
H269 C286 0.940 . S
C270 P256 1.812 . S
C270 C271 1.389 . S
C270 C275 1.391 . S
C271 H257 0.941 . S
C271 C270 1.389 . S
C271 C272 1.397 . S
C272 H258 0.939 . S
C272 C271 1.397 . S
C272 C273 1.378 . S
C273 C272 1.378 . S
C273 C274 1.378 . S
C274 H259 0.940 . S
C274 C273 1.378 . S
C274 C275 1.396 . S
C275 H260 0.940 . S
C275 C270 1.391 . S
C275 C274 1.396 . S
C276 P256 1.803 . S
C276 C277 1.378 . S
C276 C281 1.400 . S
C277 H261 0.939 . S
C277 C276 1.378 . S
C277 C278 1.361 . S
C278 H262 0.942 . S
C278 C277 1.361 . S
C278 C279 1.369 . S
C279 C278 1.369 . S
C279 C280 1.404 . S
C280 H263 0.940 . S
C280 C279 1.404 . S
C280 C281 1.389 . S
C281 H264 0.939 . S
C281 C276 1.400 . S
C281 C280 1.389 . S
C282 P256 1.819 . S
C282 C283 1.391 . S
C282 C287 1.391 . S
C283 H265 0.941 1_545 S
C283 C282 1.391 . S
C283 C284 1.396 . S
C284 H268 0.935 1_545 S
C284 C283 1.396 . S
C284 C285 1.397 . S
C285 C284 1.397 . S
C285 C286 1.385 . S
C286 H269 0.940 . S
C286 C285 1.385 . S
C286 C287 1.388 . S
C287 H266 0.939 . S
C287 C282 1.391 . S
C287 C286 1.388 . S
P288 O299 1.490 . S
P288 C302 1.812 . S
P288 C308 1.803 . S
P288 C314 1.819 . S
H289 C303 0.941 . S
H290 C304 0.939 . S
H291 C306 0.940 . S
H292 C307 0.940 . S
H293 C309 0.939 . S
H294 C310 0.942 . S
H295 C312 0.940 . S
H296 C313 0.939 . S
H297 C315 0.941 . S
H298 C319 0.939 . S
O299 P288 1.490 . S
H300 C316 0.939 . S
H301 C318 0.940 . S
C302 P288 1.812 . S
C302 C303 1.389 . S
C302 C307 1.391 . S
C303 H289 0.941 . S
C303 C302 1.389 . S
C303 C304 1.397 . S
C304 H290 0.939 . S
C304 C303 1.397 . S
C304 C305 1.378 . S
C305 C304 1.378 . S
C305 C306 1.378 . S
C306 H291 0.940 . S
C306 C305 1.378 . S
C306 C307 1.396 . S
C307 H292 0.940 . S
C307 C302 1.391 . S
C307 C306 1.396 . S
C308 P288 1.803 . S
C308 C309 1.378 . S
C308 C313 1.400 . S
C309 H293 0.939 . S
C309 C308 1.378 . S
C309 C310 1.361 . S
C310 H294 0.942 . S
C310 C309 1.361 . S
C310 C311 1.369 . S
C311 C310 1.369 . S
C311 C312 1.404 . S
C312 H295 0.940 . S
C312 C311 1.404 . S
C312 C313 1.389 . S
C313 H296 0.939 . S
C313 C308 1.400 . S
C313 C312 1.389 . S
C314 P288 1.819 . S
C314 C315 1.391 . S
C314 C319 1.391 . S
C315 H297 0.941 . S
C315 C314 1.391 . S
C315 C316 1.396 . S
C316 H300 0.939 . S
C316 C315 1.396 . S
C316 C317 1.397 . S
C317 C316 1.397 . S
C317 C318 1.385 . S
C318 H301 0.940 . S
C318 C317 1.385 . S
C318 C319 1.388 . S
C319 H298 0.939 . S
C319 C314 1.391 . S
C319 C318 1.388 . S
P320 O331 1.490 . S
P320 C334 1.812 . S
P320 C340 1.803 . S
P320 C346 1.819 . S
H321 C335 0.941 . S
H322 C336 0.939 . S
H323 C338 0.940 . S
H324 C339 0.940 . S
H325 C341 0.939 . S
H326 C342 0.942 . S
H327 C344 0.940 . S
H328 C345 0.939 . S
H329 C347 0.941 . S
H330 C351 0.939 . S
O331 P320 1.490 . S
H332 C348 0.939 . S
H333 C350 0.940 . S
C334 P320 1.812 . S
C334 C335 1.389 . S
C334 C339 1.391 . S
C335 H321 0.941 . S
C335 C334 1.389 . S
C335 C336 1.397 . S
C336 H322 0.939 . S
C336 C335 1.397 . S
C336 C337 1.378 . S
C337 C336 1.378 . S
C337 C338 1.378 . S
C338 H323 0.940 . S
C338 C337 1.378 . S
C338 C339 1.396 . S
C339 H324 0.940 . S
C339 C334 1.391 . S
C339 C338 1.396 . S
C340 P320 1.803 . S
C340 C341 1.378 . S
C340 C345 1.400 . S
C341 H325 0.939 . S
C341 C340 1.378 . S
C341 C342 1.361 . S
C342 H326 0.942 . S
C342 C341 1.361 . S
C342 C343 1.369 . S
C343 C342 1.369 . S
C343 C344 1.404 . S
C344 H327 0.940 . S
C344 C343 1.404 . S
C344 C345 1.389 . S
C345 H328 0.939 . S
C345 C340 1.400 . S
C345 C344 1.389 . S
C346 P320 1.819 . S
C346 C347 1.391 . S
C346 C351 1.391 . S
C347 H329 0.941 . S
C347 C346 1.391 . S
C347 C348 1.396 . S
C348 H332 0.939 . S
C348 C347 1.396 . S
C348 C349 1.397 . S
C349 C348 1.397 . S
C349 C350 1.385 . S
C350 H333 0.940 . S
C350 C349 1.385 . S
C350 C351 1.388 . S
C351 H330 0.939 . S
C351 C346 1.391 . S
C351 C350 1.388 . S
P352 O363 1.490 . S
P352 C366 1.812 . S
P352 C372 1.803 . S
P352 C378 1.819 . S
H353 C367 0.941 . S
H354 C368 0.939 . S
H355 C370 0.940 . S
H356 C371 0.940 . S
H357 C373 0.939 . S
H358 C374 0.942 . S
H359 C376 0.940 . S
H360 C377 0.939 . S
H361 C379 0.941 . S
H362 C383 0.939 . S
O363 P352 1.490 . S
H364 C380 0.939 . S
H365 C382 0.940 . S
C366 P352 1.812 . S
C366 C367 1.389 . S
C366 C371 1.391 . S
C367 H353 0.941 . S
C367 C366 1.389 . S
C367 C368 1.397 . S
C368 H354 0.939 . S
C368 C367 1.397 . S
C368 C369 1.378 . S
C369 C368 1.378 . S
C369 C370 1.378 . S
C370 H355 0.940 . S
C370 C369 1.378 . S
C370 C371 1.396 . S
C371 H356 0.940 . S
C371 C366 1.391 . S
C371 C370 1.396 . S
C372 P352 1.803 . S
C372 C373 1.378 . S
C372 C377 1.400 . S
C373 H357 0.939 . S
C373 C372 1.378 . S
C373 C374 1.361 . S
C374 H358 0.942 . S
C374 C373 1.361 . S
C374 C375 1.369 . S
C375 C374 1.369 . S
C375 C376 1.404 . S
C376 H359 0.940 . S
C376 C375 1.404 . S
C376 C377 1.389 . S
C377 H360 0.939 . S
C377 C372 1.400 . S
C377 C376 1.389 . S
C378 P352 1.819 . S
C378 C379 1.391 . S
C378 C383 1.391 . S
C379 H361 0.941 . S
C379 C378 1.391 . S
C379 C380 1.396 . S
C380 H364 0.939 . S
C380 C379 1.396 . S
C380 C381 1.397 . S
C381 C380 1.397 . S
C381 C382 1.385 . S
C382 H365 0.940 . S
C382 C381 1.385 . S
C382 C383 1.388 . S
C383 H362 0.939 . S
C383 C378 1.391 . S
C383 C382 1.388 . S
P384 O395 1.490 . S
P384 C398 1.812 . S
P384 C404 1.803 . S
P384 C410 1.819 . S
H385 C399 0.941 . S
H386 C400 0.939 . S
H387 C402 0.940 . S
H388 C403 0.940 . S
H389 C405 0.939 . S
H390 C406 0.942 . S
H391 C408 0.940 . S
H392 C409 0.939 . S
H393 C411 0.941 . S
H394 C415 0.939 . S
O395 P384 1.490 . S
H396 C412 0.939 . S
H397 C414 0.940 . S
C398 P384 1.812 . S
C398 C399 1.389 . S
C398 C403 1.391 . S
C399 H385 0.941 . S
C399 C398 1.389 . S
C399 C400 1.397 . S
C400 H386 0.939 . S
C400 C399 1.397 . S
C400 C401 1.378 . S
C401 C400 1.378 . S
C401 C402 1.378 . S
C402 H387 0.940 . S
C402 C401 1.378 . S
C402 C403 1.396 . S
C403 H388 0.940 . S
C403 C398 1.391 . S
C403 C402 1.396 . S
C404 P384 1.803 . S
C404 C405 1.378 . S
C404 C409 1.400 . S
C405 H389 0.939 . S
C405 C404 1.378 . S
C405 C406 1.361 . S
C406 H390 0.942 . S
C406 C405 1.361 . S
C406 C407 1.369 . S
C407 C406 1.369 . S
C407 C408 1.404 . S
C408 H391 0.940 . S
C408 C407 1.404 . S
C408 C409 1.389 . S
C409 H392 0.939 . S
C409 C404 1.400 . S
C409 C408 1.389 . S
C410 P384 1.819 . S
C410 C411 1.391 . S
C410 C415 1.391 . S
C411 H393 0.941 . S
C411 C410 1.391 . S
C411 C412 1.396 . S
C412 H396 0.939 . S
C412 C411 1.396 . S
C412 C413 1.397 . S
C413 C412 1.397 . S
C413 C414 1.385 . S
C414 H397 0.940 . S
C414 C413 1.385 . S
C414 C415 1.388 . S
C415 H394 0.939 . S
C415 C410 1.391 . S
C415 C414 1.388 . S
P416 O427 1.490 . S
P416 C430 1.812 . S
P416 C436 1.803 . S
P416 C442 1.819 . S
H417 C431 0.941 . S
H418 C432 0.939 . S
H419 C434 0.940 . S
H420 C435 0.940 . S
H421 C437 0.939 . S
H422 C438 0.942 . S
H423 C440 0.940 . S
H424 C441 0.939 . S
H425 C443 0.941 . S
H426 C447 0.939 . S
O427 P416 1.490 . S
H428 C444 0.939 . S
H429 C446 0.940 . S
C430 P416 1.812 . S
C430 C431 1.389 . S
C430 C435 1.391 . S
C431 H417 0.941 . S
C431 C430 1.389 . S
C431 C432 1.397 . S
C432 H418 0.939 . S
C432 C431 1.397 . S
C432 C433 1.378 . S
C433 C432 1.378 . S
C433 C434 1.378 . S
C434 H419 0.940 . S
C434 C433 1.378 . S
C434 C435 1.396 . S
C435 H420 0.940 . S
C435 C430 1.391 . S
C435 C434 1.396 . S
C436 P416 1.803 . S
C436 C437 1.378 . S
C436 C441 1.400 . S
C437 H421 0.939 . S
C437 C436 1.378 . S
C437 C438 1.361 . S
C438 H422 0.942 . S
C438 C437 1.361 . S
C438 C439 1.369 . S
C439 C438 1.369 . S
C439 C440 1.404 . S
C440 H423 0.940 . S
C440 C439 1.404 . S
C440 C441 1.389 . S
C441 H424 0.939 . S
C441 C436 1.400 . S
C441 C440 1.389 . S
C442 P416 1.819 . S
C442 C443 1.391 . S
C442 C447 1.391 . S
C443 H425 0.941 . S
C443 C442 1.391 . S
C443 C444 1.396 . S
C444 H428 0.939 . S
C444 C443 1.396 . S
C444 C445 1.397 . S
C445 C444 1.397 . S
C445 C446 1.385 . S
C446 H429 0.940 . S
C446 C445 1.385 . S
C446 C447 1.388 . S
C447 H426 0.939 . S
C447 C442 1.391 . S
C447 C446 1.388 . S
P448 O459 1.490 . S
P448 C462 1.812 . S
P448 C468 1.803 . S
P448 C474 1.819 . S
H449 C463 0.941 . S
H450 C464 0.939 . S
H451 C466 0.940 . S
H452 C467 0.940 . S
H453 C469 0.939 . S
H454 C470 0.942 . S
H455 C472 0.940 . S
H456 C473 0.939 . S
H457 C475 0.941 . S
H458 C479 0.939 . S
O459 P448 1.490 . S
H460 C476 0.939 . S
H461 C478 0.940 . S
C462 P448 1.812 . S
C462 C463 1.389 . S
C462 C467 1.391 . S
C463 H449 0.941 . S
C463 C462 1.389 . S
C463 C464 1.397 . S
C464 H450 0.939 . S
C464 C463 1.397 . S
C464 C465 1.378 . S
C465 C464 1.378 . S
C465 C466 1.378 . S
C466 H451 0.940 . S
C466 C465 1.378 . S
C466 C467 1.396 . S
C467 H452 0.940 . S
C467 C462 1.391 . S
C467 C466 1.396 . S
C468 P448 1.803 . S
C468 C469 1.378 . S
C468 C473 1.400 . S
C469 H453 0.939 . S
C469 C468 1.378 . S
C469 C470 1.361 . S
C470 H454 0.942 . S
C470 C469 1.361 . S
C470 C471 1.369 . S
C471 C470 1.369 . S
C471 C472 1.404 . S
C472 H455 0.940 . S
C472 C471 1.404 . S
C472 C473 1.389 . S
C473 H456 0.939 . S
C473 C468 1.400 . S
C473 C472 1.389 . S
C474 P448 1.819 . S
C474 C475 1.391 . S
C474 C479 1.391 . S
C475 H457 0.941 . S
C475 C474 1.391 . S
C475 C476 1.396 . S
C476 H460 0.939 . S
C476 C475 1.396 . S
C476 C477 1.397 . S
C477 C476 1.397 . S
C477 C478 1.385 . S
C478 H461 0.940 . S
C478 C477 1.385 . S
C478 C479 1.388 . S
C479 H458 0.939 . S
C479 C474 1.391 . S
C479 C478 1.388 . S
P480 O491 1.490 1_565 S
P480 C494 1.812 . S
P480 C500 1.803 . S
P480 C506 1.819 . S
H481 C495 0.941 . S
H482 C496 0.939 . S
H483 C498 0.940 . S
H484 C499 0.940 . S
H485 C501 0.939 . S
H486 C502 0.942 . S
H487 C504 0.940 . S
H488 C505 0.939 . S
H489 C507 0.941 1_545 S
H490 C511 0.939 . S
O491 P480 1.490 1_545 S
H492 C508 0.939 1_545 S
H493 C510 0.940 . S
C494 P480 1.812 . S
C494 C495 1.389 . S
C494 C499 1.391 . S
C495 H481 0.941 . S
C495 C494 1.389 . S
C495 C496 1.397 . S
C496 H482 0.939 . S
C496 C495 1.397 . S
C496 C497 1.378 . S
C497 C496 1.378 . S
C497 C498 1.378 . S
C498 H483 0.940 . S
C498 C497 1.378 . S
C498 C499 1.396 . S
C499 H484 0.940 . S
C499 C494 1.391 . S
C499 C498 1.396 . S
C500 P480 1.803 . S
C500 C501 1.378 . S
C500 C505 1.400 . S
C501 H485 0.939 . S
C501 C500 1.378 . S
C501 C502 1.361 . S
C502 H486 0.942 . S
C502 C501 1.361 . S
C502 C503 1.369 . S
C503 C502 1.369 . S
C503 C504 1.404 . S
C504 H487 0.940 . S
C504 C503 1.404 . S
C504 C505 1.389 . S
C505 H488 0.939 . S
C505 C500 1.400 . S
C505 C504 1.389 . S
C506 P480 1.819 . S
C506 C507 1.391 . S
C506 C511 1.391 . S
C507 H489 0.941 1_565 S
C507 C506 1.391 . S
C507 C508 1.396 . S
C508 H492 0.939 1_565 S
C508 C507 1.396 . S
C508 C509 1.397 . S
C509 C508 1.397 . S
C509 C510 1.385 . S
C510 H493 0.940 . S
C510 C509 1.385 . S
C510 C511 1.388 . S
C511 H490 0.939 . S
C511 C506 1.391 . S
C511 C510 1.388 . S
P512 O523 1.490 . S
P512 C526 1.812 . S
P512 C532 1.803 . S
P512 C538 1.819 . S
H513 C527 0.941 . S
H514 C528 0.939 . S
H515 C530 0.940 . S
H516 C531 0.940 . S
H517 C533 0.939 . S
H518 C534 0.942 . S
H519 C536 0.940 . S
H520 C537 0.939 . S
H521 C539 0.941 . S
H522 C543 0.939 . S
O523 P512 1.490 . S
H524 C540 0.939 . S
H525 C542 0.940 1_655 S
C526 P512 1.812 . S
C526 C527 1.389 . S
C526 C531 1.391 . S
C527 H513 0.941 . S
C527 C526 1.389 . S
C527 C528 1.397 . S
C528 H514 0.939 . S
C528 C527 1.397 . S
C528 C529 1.378 . S
C529 C528 1.378 . S
C529 C530 1.378 . S
C530 H515 0.940 . S
C530 C529 1.378 . S
C530 C531 1.396 . S
C531 H516 0.940 . S
C531 C526 1.391 . S
C531 C530 1.396 . S
C532 P512 1.803 . S
C532 C533 1.378 . S
C532 C537 1.400 . S
C533 H517 0.939 . S
C533 C532 1.378 . S
C533 C534 1.361 . S
C534 H518 0.942 . S
C534 C533 1.361 . S
C534 C535 1.369 . S
C535 C534 1.369 . S
C535 C536 1.404 . S
C536 H519 0.940 . S
C536 C535 1.404 . S
C536 C537 1.389 . S
C537 H520 0.939 . S
C537 C532 1.400 . S
C537 C536 1.389 . S
C538 P512 1.819 . S
C538 C539 1.391 . S
C538 C543 1.391 . S
C539 H521 0.941 . S
C539 C538 1.391 . S
C539 C540 1.396 . S
C540 H524 0.939 . S
C540 C539 1.396 . S
C540 C541 1.397 . S
C541 C540 1.397 . S
C541 C542 1.385 . S
C542 H525 0.940 1_455 S
C542 C541 1.385 . S
C542 C543 1.388 . S
C543 H522 0.939 . S
C543 C538 1.391 . S
C543 C542 1.388 . S
P544 O555 1.490 . S
P544 C558 1.812 . S
P544 C564 1.803 . S
P544 C570 1.819 . S
H545 C559 0.941 . S
H546 C560 0.939 . S
H547 C562 0.940 . S
H548 C563 0.940 . S
H549 C565 0.939 . S
H550 C566 0.942 . S
H551 C568 0.940 . S
H552 C569 0.939 . S
H553 C571 0.941 . S
H554 C575 0.939 . S
O555 P544 1.490 . S
H556 C572 0.939 . S
H557 C574 0.940 . S
C558 P544 1.812 . S
C558 C559 1.389 . S
C558 C563 1.391 . S
C559 H545 0.941 . S
C559 C558 1.389 . S
C559 C560 1.397 . S
C560 H546 0.939 . S
C560 C559 1.397 . S
C560 C561 1.378 . S
C561 C560 1.378 . S
C561 C562 1.378 . S
C562 H547 0.940 . S
C562 C561 1.378 . S
C562 C563 1.396 . S
C563 H548 0.940 . S
C563 C558 1.391 . S
C563 C562 1.396 . S
C564 P544 1.803 . S
C564 C565 1.378 . S
C564 C569 1.400 . S
C565 H549 0.939 . S
C565 C564 1.378 . S
C565 C566 1.361 . S
C566 H550 0.942 . S
C566 C565 1.361 . S
C566 C567 1.369 . S
C567 C566 1.369 . S
C567 C568 1.404 . S
C568 H551 0.940 . S
C568 C567 1.404 . S
C568 C569 1.389 . S
C569 H552 0.939 . S
C569 C564 1.400 . S
C569 C568 1.389 . S
C570 P544 1.819 . S
C570 C571 1.391 . S
C570 C575 1.391 . S
C571 H553 0.941 . S
C571 C570 1.391 . S
C571 C572 1.396 . S
C572 H556 0.939 . S
C572 C571 1.396 . S
C572 C573 1.397 . S
C573 C572 1.397 . S
C573 C574 1.385 . S
C574 H557 0.940 . S
C574 C573 1.385 . S
C574 C575 1.388 . S
C575 H554 0.939 . S
C575 C570 1.391 . S
C575 C574 1.388 . S
C576 Eu577 2.835 . S
C576 C578 1.500 . S
C576 O596 1.257 1_545 S
C576 O597 1.260 . S
Eu577 C576 2.835 . S
Eu577 O596 2.473 1_545 S
Eu577 O597 2.480 . S
Eu577 O598 2.430 . S
Eu577 O599 2.670 1_554 S
Eu577 O600 2.394 1_545 S
Eu577 O605 2.355 1_545 S
Eu577 O607 2.374 . S
C578 C576 1.500 . S
C578 C579 1.377 . S
C578 C583 1.377 1_545 S
C579 C578 1.377 . S
C579 C580 1.395 . S
C579 H608 0.931 . S
C580 C579 1.395 . S
C580 C581 1.383 1_545 S
C580 H609 0.931 . S
C581 C580 1.383 1_565 S
C581 C582 1.394 . S
C582 C581 1.394 . S
C582 C583 1.378 . S
C582 H610 0.931 . S
C583 C578 1.377 1_565 S
C583 C582 1.378 . S
C583 H611 0.931 . S
C584 O598 1.312 . S
C584 O599 1.252 1_554 S
C585 O600 1.251 . S
C585 O601 1.251 1_554 S
C586 Eu587 2.835 . S
C586 C588 1.500 . S
C586 O602 1.257 1_565 S
C586 O603 1.260 . S
Eu587 C586 2.835 . S
Eu587 O599 2.355 1_565 S
Eu587 O601 2.374 . S
Eu587 O602 2.473 1_565 S
Eu587 O603 2.480 . S
Eu587 O604 2.430 . S
Eu587 O605 2.670 1_556 S
Eu587 O606 2.394 1_565 S
C588 C586 1.500 . S
C588 C589 1.377 . S
C588 C593 1.377 1_565 S
C589 C588 1.377 . S
C589 C590 1.395 . S
C589 H612 0.931 . S
C590 C589 1.395 . S
C590 C591 1.383 1_565 S
C590 H613 0.931 . S
C591 C590 1.383 1_545 S
C591 C592 1.394 . S
C592 C591 1.394 . S
C592 C593 1.378 . S
C592 H614 0.931 . S
C593 C588 1.377 1_545 S
C593 C592 1.378 . S
C593 H615 0.931 . S
C594 O604 1.259 1_554 S
C594 O605 1.270 . S
C595 O606 1.251 . S
C595 O607 1.251 1_556 S
O596 C576 1.257 1_565 S
O596 Eu577 2.473 1_565 S
O597 C576 1.260 . S
O597 Eu577 2.480 . S
O598 Eu577 2.430 . S
O598 C584 1.312 . S
O599 Eu577 2.670 1_556 S
O599 C584 1.252 1_556 S
O599 Eu587 2.355 1_545 S
O600 Eu577 2.394 1_565 S
O600 C585 1.251 . S
O601 C585 1.251 1_556 S
O601 Eu587 2.374 . S
O602 C586 1.257 1_545 S
O602 Eu587 2.473 1_545 S
O603 C586 1.260 . S
O603 Eu587 2.480 . S
O604 Eu587 2.430 . S
O604 C594 1.259 1_556 S
O605 Eu577 2.355 1_565 S
O605 Eu587 2.670 1_554 S
O605 C594 1.270 . S
O606 Eu587 2.394 1_545 S
O606 C595 1.251 . S
O607 Eu577 2.374 . S
O607 C595 1.251 1_554 S
H608 C579 0.931 . S
H609 C580 0.931 . S
H610 C582 0.931 . S
H611 C583 0.931 . S
H612 C589 0.931 . S
H613 C590 0.931 . S
H614 C592 0.931 . S
H615 C593 0.931 . S
C616 Eu617 2.835 . S
C616 C618 1.500 1_655 S
C616 O636 1.257 1_655 S
C616 O637 1.260 . S
Eu617 C616 2.835 . S
Eu617 O636 2.473 1_655 S
Eu617 O637 2.480 . S
Eu617 O638 2.430 . S
Eu617 O639 2.670 1_554 S
Eu617 O640 2.394 1_655 S
Eu617 O645 2.355 1_655 S
Eu617 O647 2.374 . S
C618 C616 1.500 1_455 S
C618 C619 1.377 1_455 S
C618 C623 1.377 . S
C619 C618 1.377 1_655 S
C619 C620 1.395 . S
C619 H648 0.931 . S
C620 C619 1.395 . S
C620 C621 1.383 1_655 S
C620 H649 0.931 . S
C621 C620 1.383 1_455 S
C621 C622 1.394 . S
C622 C621 1.394 . S
C622 C623 1.378 . S
C622 H650 0.931 . S
C623 C618 1.377 . S
C623 C622 1.378 . S
C623 H651 0.931 . S
C624 O638 1.259 1_556 S
C624 O639 1.270 . S
C625 O640 1.251 . S
C625 O641 1.251 . S
C626 Eu627 2.835 . S
C626 C628 1.500 1_455 S
C626 O642 1.257 1_455 S
C626 O643 1.260 . S
Eu627 C626 2.835 . S
Eu627 O639 2.355 1_455 S
Eu627 O641 2.374 1_556 S
Eu627 O642 2.473 1_455 S
Eu627 O643 2.480 . S
Eu627 O644 2.430 . S
Eu627 O645 2.670 1_556 S
Eu627 O646 2.394 1_455 S
C628 C626 1.500 1_655 S
C628 C629 1.377 1_655 S
C628 C633 1.377 . S
C629 C628 1.377 1_455 S
C629 C630 1.395 . S
C629 H652 0.931 . S
C630 C629 1.395 . S
C630 C631 1.383 1_455 S
C630 H653 0.931 . S
C631 C630 1.383 1_655 S
C631 C632 1.394 . S
C632 C631 1.394 . S
C632 C633 1.378 . S
C632 H654 0.931 . S
C633 C628 1.377 . S
C633 C632 1.378 . S
C633 H655 0.931 . S
C634 O644 1.259 1_554 S
C634 O645 1.270 . S
C635 O646 1.251 . S
C635 O647 1.251 1_556 S
O636 C616 1.257 1_455 S
O636 Eu617 2.473 1_455 S
O637 C616 1.260 . S
O637 Eu617 2.480 . S
O638 Eu617 2.430 . S
O638 C624 1.259 1_554 S
O639 Eu617 2.670 1_556 S
O639 C624 1.270 . S
O639 Eu627 2.355 1_655 S
O640 Eu617 2.394 1_455 S
O640 C625 1.251 . S
O641 C625 1.251 . S
O641 Eu627 2.374 1_554 S
O642 C626 1.257 1_655 S
O642 Eu627 2.473 1_655 S
O643 C626 1.260 . S
O643 Eu627 2.480 . S
O644 Eu627 2.430 . S
O644 C634 1.259 1_556 S
O645 Eu617 2.355 1_455 S
O645 Eu627 2.670 1_554 S
O645 C634 1.270 . S
O646 Eu627 2.394 1_655 S
O646 C635 1.251 . S
O647 Eu617 2.374 . S
O647 C635 1.251 1_554 S
H648 C619 0.931 . S
H649 C620 0.931 . S
H650 C622 0.931 . S
H651 C623 0.931 . S
H652 C629 0.931 . S
H653 C630 0.931 . S
H654 C632 0.931 . S
H655 C633 0.931 . S
C656 Eu657 2.835 . S
C656 C658 1.500 . S
C656 O676 1.257 . S
C656 O677 1.260 . S
Eu657 C656 2.835 . S
Eu657 O676 2.473 . S
Eu657 O677 2.480 . S
Eu657 O678 2.430 . S
Eu657 O679 2.670 1_556 S
Eu657 O680 2.394 . S
Eu657 O685 2.355 . S
Eu657 O687 2.331 1_556 S
C658 C656 1.500 . S
C658 C659 1.377 . S
C658 C663 1.377 . S
C659 C658 1.377 . S
C659 C660 1.395 . S
C659 H688 0.931 . S
C660 C659 1.395 . S
C660 C661 1.383 . S
C660 H689 0.931 . S
C661 C660 1.383 . S
C661 C662 1.394 . S
C662 C661 1.394 . S
C662 C663 1.378 . S
C662 H690 0.931 . S
C663 C658 1.377 . S
C663 C662 1.378 . S
C663 H691 0.931 . S
C664 O678 1.259 1_554 S
C664 O679 1.270 . S
C665 O680 1.251 . S
C665 O681 1.251 1_556 S
C666 Eu667 2.835 . S
C666 C668 1.500 . S
C666 O682 1.257 . S
C666 O683 1.260 . S
Eu667 C666 2.835 . S
Eu667 O679 2.355 . S
Eu667 O681 2.374 . S
Eu667 O682 2.473 . S
Eu667 O683 2.480 . S
Eu667 O684 2.430 . S
Eu667 O685 2.670 1_554 S
Eu667 O686 2.394 . S
C668 C666 1.500 . S
C668 C669 1.377 . S
C668 C673 1.377 . S
C669 C668 1.377 . S
C669 C670 1.395 . S
C669 H692 0.931 . S
C670 C669 1.395 . S
C670 C671 1.383 . S
C670 H693 0.931 . S
C671 C670 1.383 . S
C671 C672 1.394 . S
C672 C671 1.394 . S
C672 C673 1.378 . S
C672 H694 0.931 . S
C673 C668 1.377 . S
C673 C672 1.378 . S
C673 H695 0.931 . S
C674 O684 1.259 1_556 S
C674 O685 1.270 . S
C675 O686 1.251 . S
C675 O687 1.307 . S
O676 C656 1.257 . S
O676 Eu657 2.473 . S
O677 C656 1.260 . S
O677 Eu657 2.480 . S
O678 Eu657 2.430 . S
O678 C664 1.259 1_556 S
O679 Eu657 2.670 1_554 S
O679 C664 1.270 . S
O679 Eu667 2.355 . S
O680 Eu657 2.394 . S
O680 C665 1.251 . S
O681 C665 1.251 1_554 S
O681 Eu667 2.374 . S
O682 C666 1.257 . S
O682 Eu667 2.473 . S
O683 C666 1.260 . S
O683 Eu667 2.480 . S
O684 Eu667 2.430 . S
O684 C674 1.259 1_554 S
O685 Eu657 2.355 . S
O685 Eu667 2.670 1_556 S
O685 C674 1.270 . S
O686 Eu667 2.394 . S
O686 C675 1.251 . S
O687 Eu657 2.331 1_554 S
O687 C675 1.307 . S
H688 C659 0.931 . S
H689 C660 0.931 . S
H690 C662 0.931 . S
H691 C663 0.931 . S
H692 C669 0.931 . S
H693 C670 0.931 . S
H694 C672 0.931 . S
H695 C673 0.931 . S
C696 Eu697 2.835 . S
C696 C698 1.500 . S
C696 O716 1.257 . S
C696 O717 1.260 . S
Eu697 C696 2.835 . S
Eu697 O716 2.473 . S
Eu697 O717 2.480 . S
Eu697 O718 2.430 . S
Eu697 O719 2.670 . S
Eu697 O720 2.394 . S
Eu697 O725 2.355 . S
Eu697 O727 2.374 . S
C698 C696 1.500 . S
C698 C699 1.377 . S
C698 C703 1.377 . S
C699 C698 1.377 . S
C699 C700 1.395 . S
C699 H728 0.931 . S
C700 C699 1.395 . S
C700 C701 1.383 . S
C700 H729 0.931 . S
C701 C700 1.383 . S
C701 C702 1.394 . S
C702 C701 1.394 . S
C702 C703 1.378 . S
C702 H730 0.931 . S
C703 C698 1.377 . S
C703 C702 1.378 . S
C703 H731 0.931 . S
C704 O718 1.259 . S
C704 O719 1.270 . S
C705 O720 1.251 . S
C705 O721 1.251 . S
C706 Eu707 2.835 . S
C706 C708 1.500 . S
C706 O722 1.257 . S
C706 O723 1.260 . S
Eu707 C706 2.835 . S
Eu707 O719 2.355 . S
Eu707 O721 2.374 . S
Eu707 O722 2.473 . S
Eu707 O723 2.480 . S
Eu707 O724 2.430 . S
Eu707 O725 2.670 . S
Eu707 O726 2.394 . S
C708 C706 1.500 . S
C708 C709 1.377 . S
C708 C713 1.377 . S
C709 C708 1.377 . S
C709 C710 1.395 . S
C709 H732 0.931 . S
C710 C709 1.395 . S
C710 C711 1.383 . S
C710 H733 0.931 . S
C711 C710 1.383 . S
C711 C712 1.394 . S
C712 C711 1.394 . S
C712 C713 1.378 . S
C712 H734 0.931 . S
C713 C708 1.377 . S
C713 C712 1.378 . S
C713 H735 0.931 . S
C714 O724 1.259 . S
C714 O725 1.270 . S
C715 O726 1.251 . S
C715 O727 1.251 . S
O716 C696 1.257 . S
O716 Eu697 2.473 . S
O717 C696 1.260 . S
O717 Eu697 2.480 . S
O718 Eu697 2.430 . S
O718 C704 1.259 . S
O719 Eu697 2.670 . S
O719 C704 1.270 . S
O719 Eu707 2.355 . S
O720 Eu697 2.394 . S
O720 C705 1.251 . S
O721 C705 1.251 . S
O721 Eu707 2.374 . S
O722 C706 1.257 . S
O722 Eu707 2.473 . S
O723 C706 1.260 . S
O723 Eu707 2.480 . S
O724 Eu707 2.430 . S
O724 C714 1.259 . S
O725 Eu697 2.355 . S
O725 Eu707 2.670 . S
O725 C714 1.270 . S
O726 Eu707 2.394 . S
O726 C715 1.251 . S
O727 Eu697 2.374 . S
O727 C715 1.251 . S
H728 C699 0.931 . S
H729 C700 0.931 . S
H730 C702 0.931 . S
H731 C703 0.931 . S
H732 C709 0.931 . S
H733 C710 0.931 . S
H734 C712 0.931 . S
H735 C713 0.931 . S
C736 Eu737 2.835 . S
C736 C738 1.500 . S
C736 O756 1.257 . S
C736 O757 1.260 . S
Eu737 C736 2.835 . S
Eu737 O756 2.473 . S
Eu737 O757 2.480 . S
Eu737 O758 2.430 . S
Eu737 O759 2.670 . S
Eu737 O760 2.394 . S
Eu737 O765 2.355 . S
Eu737 O767 2.374 . S
C738 C736 1.500 . S
C738 C739 1.377 . S
C738 C743 1.377 . S
C739 C738 1.377 . S
C739 C740 1.395 . S
C739 H768 0.931 . S
C740 C739 1.395 . S
C740 C741 1.383 . S
C740 H769 0.931 . S
C741 C740 1.383 . S
C741 C742 1.394 . S
C742 C741 1.394 . S
C742 C743 1.378 . S
C742 H770 0.931 . S
C743 C738 1.377 . S
C743 C742 1.378 . S
C743 H771 0.931 . S
C744 O758 1.259 . S
C744 O759 1.270 . S
C745 O760 1.251 . S
C745 O761 1.251 . S
C746 Eu747 2.835 . S
C746 C748 1.500 . S
C746 O762 1.257 . S
C746 O763 1.260 . S
Eu747 C746 2.835 . S
Eu747 O759 2.355 . S
Eu747 O761 2.374 . S
Eu747 O762 2.473 . S
Eu747 O763 2.480 . S
Eu747 O764 2.430 . S
Eu747 O765 2.670 . S
Eu747 O766 2.394 . S
C748 C746 1.500 . S
C748 C749 1.377 . S
C748 C753 1.377 . S
C749 C748 1.377 . S
C749 C750 1.395 . S
C749 H772 0.931 . S
C750 C749 1.395 . S
C750 C751 1.383 . S
C750 H773 0.931 . S
C751 C750 1.383 . S
C751 C752 1.394 . S
C752 C751 1.394 . S
C752 C753 1.378 . S
C752 H774 0.931 . S
C753 C748 1.377 . S
C753 C752 1.378 . S
C753 H775 0.931 . S
C754 O764 1.259 . S
C754 O765 1.270 . S
C755 O766 1.251 . S
C755 O767 1.251 . S
O756 C736 1.257 . S
O756 Eu737 2.473 . S
O757 C736 1.260 . S
O757 Eu737 2.480 . S
O758 Eu737 2.430 . S
O758 C744 1.259 . S
O759 Eu737 2.670 . S
O759 C744 1.270 . S
O759 Eu747 2.355 . S
O760 Eu737 2.394 . S
O760 C745 1.251 . S
O761 C745 1.251 . S
O761 Eu747 2.374 . S
O762 C746 1.257 . S
O762 Eu747 2.473 . S
O763 C746 1.260 . S
O763 Eu747 2.480 . S
O764 Eu747 2.430 . S
O764 C754 1.259 . S
O765 Eu737 2.355 . S
O765 Eu747 2.670 . S
O765 C754 1.270 . S
O766 Eu747 2.394 . S
O766 C755 1.251 . S
O767 Eu737 2.374 . S
O767 C755 1.251 . S
H768 C739 0.931 . S
H769 C740 0.931 . S
H770 C742 0.931 . S
H771 C743 0.931 . S
H772 C749 0.931 . S
H773 C750 0.931 . S
H774 C752 0.931 . S
H775 C753 0.931 . S
C776 Eu777 2.835 . S
C776 C778 1.500 . S
C776 O796 1.257 . S
C776 O797 1.260 . S
Eu777 C776 2.835 . S
Eu777 O796 2.473 . S
Eu777 O797 2.480 . S
Eu777 O798 2.430 . S
Eu777 O799 2.670 . S
Eu777 O800 2.394 . S
Eu777 O805 2.355 . S
Eu777 O807 2.374 . S
C778 C776 1.500 . S
C778 C779 1.377 . S
C778 C783 1.377 . S
C779 C778 1.377 . S
C779 C780 1.395 . S
C779 H808 0.931 . S
C780 C779 1.395 . S
C780 C781 1.383 . S
C780 H809 0.931 . S
C781 C780 1.383 . S
C781 C782 1.394 . S
C782 C781 1.394 . S
C782 C783 1.378 . S
C782 H810 0.931 . S
C783 C778 1.377 . S
C783 C782 1.378 . S
C783 H811 0.931 . S
C784 O798 1.259 . S
C784 O799 1.270 . S
C785 O800 1.251 . S
C785 O801 1.251 . S
C786 Eu787 2.835 . S
C786 C788 1.500 . S
C786 O802 1.257 . S
C786 O803 1.260 . S
Eu787 C786 2.835 . S
Eu787 O799 2.355 . S
Eu787 O801 2.374 . S
Eu787 O802 2.473 . S
Eu787 O803 2.480 . S
Eu787 O804 2.430 . S
Eu787 O805 2.670 . S
Eu787 O806 2.394 . S
C788 C786 1.500 . S
C788 C789 1.377 . S
C788 C793 1.377 . S
C789 C788 1.377 . S
C789 C790 1.395 . S
C789 H812 0.931 . S
C790 C789 1.395 . S
C790 C791 1.383 . S
C790 H813 0.931 . S
C791 C790 1.383 . S
C791 C792 1.394 . S
C792 C791 1.394 . S
C792 C793 1.378 . S
C792 H814 0.931 . S
C793 C788 1.377 . S
C793 C792 1.378 . S
C793 H815 0.931 . S
C794 O804 1.259 . S
C794 O805 1.270 . S
C795 O806 1.251 . S
C795 O807 1.251 . S
O796 C776 1.257 . S
O796 Eu777 2.473 . S
O797 C776 1.260 . S
O797 Eu777 2.480 . S
O798 Eu777 2.430 . S
O798 C784 1.259 . S
O799 Eu777 2.670 . S
O799 C784 1.270 . S
O799 Eu787 2.355 . S
O800 Eu777 2.394 . S
O800 C785 1.251 . S
O801 C785 1.251 . S
O801 Eu787 2.374 . S
O802 C786 1.257 . S
O802 Eu787 2.473 . S
O803 C786 1.260 . S
O803 Eu787 2.480 . S
O804 Eu787 2.430 . S
O804 C794 1.259 . S
O805 Eu777 2.355 . S
O805 Eu787 2.670 . S
O805 C794 1.270 . S
O806 Eu787 2.394 . S
O806 C795 1.251 . S
O807 Eu777 2.374 . S
O807 C795 1.251 . S
H808 C779 0.931 . S
H809 C780 0.931 . S
H810 C782 0.931 . S
H811 C783 0.931 . S
H812 C789 0.931 . S
H813 C790 0.931 . S
H814 C792 0.931 . S
H815 C793 0.931 . S
C816 Eu817 2.835 . S
C816 C818 1.500 . S
C816 O836 1.257 . S
C816 O837 1.260 . S
Eu817 C816 2.835 . S
Eu817 O836 2.473 . S
Eu817 O837 2.480 . S
Eu817 O838 2.430 . S
Eu817 O839 2.670 . S
Eu817 O840 2.394 . S
Eu817 O845 2.355 . S
Eu817 O847 2.374 . S
C818 C816 1.500 . S
C818 C819 1.377 . S
C818 C823 1.377 . S
C819 C818 1.377 . S
C819 C820 1.395 . S
C819 H848 0.931 . S
C820 C819 1.395 . S
C820 C821 1.383 . S
C820 H849 0.931 . S
C821 C820 1.383 . S
C821 C822 1.394 . S
C822 C821 1.394 . S
C822 C823 1.378 . S
C822 H850 0.931 . S
C823 C818 1.377 . S
C823 C822 1.378 . S
C823 H851 0.931 . S
C824 O838 1.259 . S
C824 O839 1.270 . S
C825 O840 1.251 . S
C825 O841 1.251 . S
C826 Eu827 2.835 . S
C826 C828 1.500 . S
C826 O842 1.257 . S
C826 O843 1.260 . S
Eu827 C826 2.835 . S
Eu827 O839 2.355 . S
Eu827 O841 2.374 . S
Eu827 O842 2.473 . S
Eu827 O843 2.480 . S
Eu827 O844 2.430 . S
Eu827 O845 2.670 . S
Eu827 O846 2.394 . S
C828 C826 1.500 . S
C828 C829 1.377 . S
C828 C833 1.377 . S
C829 C828 1.377 . S
C829 C830 1.395 . S
C829 H852 0.931 . S
C830 C829 1.395 . S
C830 C831 1.383 . S
C830 H853 0.931 . S
C831 C830 1.383 . S
C831 C832 1.394 . S
C832 C831 1.394 . S
C832 C833 1.378 . S
C832 H854 0.931 . S
C833 C828 1.377 . S
C833 C832 1.378 . S
C833 H855 0.931 . S
C834 O844 1.259 . S
C834 O845 1.270 . S
C835 O846 1.251 . S
C835 O847 1.251 . S
O836 C816 1.257 . S
O836 Eu817 2.473 . S
O837 C816 1.260 . S
O837 Eu817 2.480 . S
O838 Eu817 2.430 . S
O838 C824 1.259 . S
O839 Eu817 2.670 . S
O839 C824 1.270 . S
O839 Eu827 2.355 . S
O840 Eu817 2.394 . S
O840 C825 1.251 . S
O841 C825 1.251 . S
O841 Eu827 2.374 . S
O842 C826 1.257 . S
O842 Eu827 2.473 . S
O843 C826 1.260 . S
O843 Eu827 2.480 . S
O844 Eu827 2.430 . S
O844 C834 1.259 . S
O845 Eu817 2.355 . S
O845 Eu827 2.670 . S
O845 C834 1.270 . S
O846 Eu827 2.394 . S
O846 C835 1.251 . S
O847 Eu817 2.374 . S
O847 C835 1.251 . S
H848 C819 0.931 . S
H849 C820 0.931 . S
H850 C822 0.931 . S
H851 C823 0.931 . S
H852 C829 0.931 . S
H853 C830 0.931 . S
H854 C832 0.931 . S
H855 C833 0.931 . S
C856 Eu857 2.835 . S
C856 C858 1.500 . S
C856 O876 1.257 . S
C856 O877 1.260 . S
Eu857 C856 2.835 . S
Eu857 O876 2.473 . S
Eu857 O877 2.480 . S
Eu857 O878 2.430 . S
Eu857 O879 2.670 . S
Eu857 O880 2.394 . S
Eu857 O885 2.355 . S
Eu857 O887 2.374 . S
C858 C856 1.500 . S
C858 C859 1.377 . S
C858 C863 1.377 . S
C859 C858 1.377 . S
C859 C860 1.395 . S
C859 H888 0.931 . S
C860 C859 1.395 . S
C860 C861 1.383 . S
C860 H889 0.931 . S
C861 C860 1.383 . S
C861 C862 1.394 . S
C862 C861 1.394 . S
C862 C863 1.378 . S
C862 H890 0.931 . S
C863 C858 1.377 . S
C863 C862 1.378 . S
C863 H891 0.931 . S
C864 O878 1.259 . S
C864 O879 1.270 . S
C865 O880 1.251 . S
C865 O881 1.251 . S
C866 Eu867 2.835 . S
C866 C868 1.500 . S
C866 O882 1.257 . S
C866 O883 1.260 . S
Eu867 C866 2.835 . S
Eu867 O879 2.355 . S
Eu867 O881 2.374 . S
Eu867 O882 2.473 . S
Eu867 O883 2.480 . S
Eu867 O884 2.430 . S
Eu867 O885 2.670 . S
Eu867 O886 2.394 . S
C868 C866 1.500 . S
C868 C869 1.377 . S
C868 C873 1.377 . S
C869 C868 1.377 . S
C869 C870 1.395 . S
C869 H892 0.931 . S
C870 C869 1.395 . S
C870 C871 1.383 . S
C870 H893 0.931 . S
C871 C870 1.383 . S
C871 C872 1.394 . S
C872 C871 1.394 . S
C872 C873 1.378 . S
C872 H894 0.931 . S
C873 C868 1.377 . S
C873 C872 1.378 . S
C873 H895 0.931 . S
C874 O884 1.259 . S
C874 O885 1.270 . S
C875 O886 1.251 . S
C875 O887 1.251 . S
O876 C856 1.257 . S
O876 Eu857 2.473 . S
O877 C856 1.260 . S
O877 Eu857 2.480 . S
O878 Eu857 2.430 . S
O878 C864 1.259 . S
O879 Eu857 2.670 . S
O879 C864 1.270 . S
O879 Eu867 2.355 . S
O880 Eu857 2.394 . S
O880 C865 1.251 . S
O881 C865 1.251 . S
O881 Eu867 2.374 . S
O882 C866 1.257 . S
O882 Eu867 2.473 . S
O883 C866 1.260 . S
O883 Eu867 2.480 . S
O884 Eu867 2.430 . S
O884 C874 1.259 . S
O885 Eu857 2.355 . S
O885 Eu867 2.670 . S
O885 C874 1.270 . S
O886 Eu867 2.394 . S
O886 C875 1.251 . S
O887 Eu857 2.374 . S
O887 C875 1.251 . S
H888 C859 0.931 . S
H889 C860 0.931 . S
H890 C862 0.931 . S
H891 C863 0.931 . S
H892 C869 0.931 . S
H893 C870 0.931 . S
H894 C872 0.931 . S
H895 C873 0.931 . S
C896 Eu897 2.835 . S
C896 C898 1.500 . S
C896 O916 1.257 . S
C896 O917 1.260 . S
Eu897 C896 2.835 . S
Eu897 O916 2.473 . S
Eu897 O917 2.480 . S
Eu897 O918 2.430 . S
Eu897 O919 2.670 . S
Eu897 O920 2.394 . S
Eu897 O925 2.355 . S
Eu897 O927 2.374 . S
C898 C896 1.500 . S
C898 C899 1.377 . S
C898 C903 1.377 . S
C899 C898 1.377 . S
C899 C900 1.395 . S
C899 H928 0.931 . S
C900 C899 1.395 . S
C900 C901 1.383 . S
C900 H929 0.931 . S
C901 C900 1.383 . S
C901 C902 1.394 . S
C902 C901 1.394 . S
C902 C903 1.378 . S
C902 H930 0.931 . S
C903 C898 1.377 . S
C903 C902 1.378 . S
C903 H931 0.931 . S
C904 O918 1.259 . S
C904 O919 1.270 . S
C905 O920 1.251 . S
C905 O921 1.251 . S
C906 Eu907 2.835 . S
C906 C908 1.500 . S
C906 O922 1.257 . S
C906 O923 1.260 . S
Eu907 C906 2.835 . S
Eu907 O919 2.355 . S
Eu907 O921 2.374 . S
Eu907 O922 2.473 . S
Eu907 O923 2.480 . S
Eu907 O924 2.430 . S
Eu907 O925 2.670 . S
Eu907 O926 2.394 . S
C908 C906 1.500 . S
C908 C909 1.377 . S
C908 C913 1.377 . S
C909 C908 1.377 . S
C909 C910 1.395 . S
C909 H932 0.931 . S
C910 C909 1.395 . S
C910 C911 1.383 . S
C910 H933 0.931 . S
C911 C910 1.383 . S
C911 C912 1.394 . S
C912 C911 1.394 . S
C912 C913 1.378 . S
C912 H934 0.931 . S
C913 C908 1.377 . S
C913 C912 1.378 . S
C913 H935 0.931 . S
C914 O924 1.259 . S
C914 O925 1.270 . S
C915 O926 1.251 . S
C915 O927 1.251 . S
O916 C896 1.257 . S
O916 Eu897 2.473 . S
O917 C896 1.260 . S
O917 Eu897 2.480 . S
O918 Eu897 2.430 . S
O918 C904 1.259 . S
O919 Eu897 2.670 . S
O919 C904 1.270 . S
O919 Eu907 2.355 . S
O920 Eu897 2.394 . S
O920 C905 1.251 . S
O921 C905 1.251 . S
O921 Eu907 2.374 . S
O922 C906 1.257 . S
O922 Eu907 2.473 . S
O923 C906 1.260 . S
O923 Eu907 2.480 . S
O924 Eu907 2.430 . S
O924 C914 1.259 . S
O925 Eu897 2.355 . S
O925 Eu907 2.670 . S
O925 C914 1.270 . S
O926 Eu907 2.394 . S
O926 C915 1.251 . S
O927 Eu897 2.374 . S
O927 C915 1.251 . S
H928 C899 0.931 . S
H929 C900 0.931 . S
H930 C902 0.931 . S
H931 C903 0.931 . S
H932 C909 0.931 . S
H933 C910 0.931 . S
H934 C912 0.931 . S
H935 C913 0.931 . S
C936 C937 1.387 . S
C936 H940 0.950 . S
C936 C945 1.390 . S
C937 C936 1.387 . S
C937 C939 1.387 . S
H938 C945 0.950 . S
C939 C937 1.387 . S
C939 C941 1.390 . S
C939 H943 0.950 . S
H940 C936 0.950 . S
C941 C939 1.390 . S
C941 C942 1.387 . S
C941 H944 0.950 . S
C942 C941 1.387 . S
C942 C945 1.387 . S
H943 C939 0.950 . S
H944 C941 0.950 . S
C945 C936 1.390 . S
C945 H938 0.950 . S
C945 C942 1.387 . S
C946 C947 1.387 . S
C946 H950 0.950 . S
C946 C955 1.390 . S
C947 C946 1.387 . S
C947 C949 1.387 . S
H948 C955 0.950 . S
C949 C947 1.387 . S
C949 C951 1.390 . S
C949 H953 0.950 . S
H950 C946 0.950 . S
C951 C949 1.390 . S
C951 C952 1.387 . S
C951 H954 0.950 . S
C952 C951 1.387 . S
C952 C955 1.387 . S
H953 C949 0.950 . S
H954 C951 0.950 . S
C955 C946 1.390 . S
C955 H948 0.950 . S
C955 C952 1.387 . S
C956 C957 1.387 . S
C956 H960 0.950 1_554 S
C956 C965 1.390 . S
C957 C956 1.387 . S
C957 C959 1.387 . S
H958 C965 0.916 1_556 S
C959 C957 1.387 . S
C959 C961 1.390 . S
C959 H963 0.950 . S
H960 C956 0.950 1_556 S
C961 C959 1.390 . S
C961 C962 1.387 . S
C961 H964 0.950 . S
C962 C961 1.387 . S
C962 C965 1.422 . S
H963 C959 0.950 . S
H964 C961 0.950 . S
C965 C956 1.390 . S
C965 H958 0.916 1_554 S
C965 C962 1.422 . S
C966 C967 1.387 . S
C966 H970 0.950 . S
C966 C975 1.390 . S
C967 C966 1.387 . S
C967 C969 1.387 . S
H968 C975 0.950 . S
C969 C967 1.387 . S
C969 C971 1.390 . S
C969 H973 0.950 . S
H970 C966 0.950 . S
C971 C969 1.390 . S
C971 C972 1.387 . S
C971 H974 0.950 . S
C972 C971 1.387 . S
C972 C975 1.387 . S
H973 C969 0.950 . S
H974 C971 0.950 . S
C975 C966 1.390 . S
C975 H968 0.950 . S
C975 C972 1.387 . S
C976 C977 1.387 . S
C976 H980 0.950 . S
C976 C985 1.390 . S
C977 C976 1.387 . S
C977 C979 1.387 . S
H978 C985 0.950 1_554 S
C979 C977 1.387 . S
C979 C981 1.390 . S
C979 H983 0.950 . S
H980 C976 0.950 . S
C981 C979 1.390 . S
C981 C982 1.387 . S
C981 H984 0.950 . S
C982 C981 1.387 . S
C982 C985 1.387 . S
H983 C979 0.950 . S
H984 C981 0.950 . S
C985 C976 1.390 . S
C985 H978 0.950 1_556 S
C985 C982 1.387 . S
C986 C987 1.387 1_554 S
C986 H990 0.950 . S
C986 C995 1.390 . S
C987 C986 1.387 1_556 S
C987 C989 1.387 . S
H988 C995 0.950 . S
C989 C987 1.387 . S
C989 C991 1.390 . S
C989 H993 0.950 . S
H990 C986 0.950 . S
C991 C989 1.390 . S
C991 C992 1.387 . S
C991 H994 0.950 . S
C992 C991 1.387 . S
C992 C995 1.387 1_556 S
H993 C989 0.950 . S
H994 C991 0.950 . S
C995 C986 1.390 . S
C995 H988 0.950 . S
C995 C992 1.387 1_554 S
C996 C997 1.387 . S
C996 H1000 0.950 . S
C996 C1005 1.390 . S
C997 C996 1.387 . S
C997 C999 1.387 . S
H998 C1005 0.950 . S
C999 C997 1.387 . S
C999 C1001 1.390 . S
C999 H1003 0.941 1_556 S
H1000 C996 0.950 . S
C1001 C999 1.390 . S
C1001 C1002 1.387 . S
C1001 H1004 0.950 1_556 S
C1002 C1001 1.387 . S
C1002 C1005 1.387 . S
H1003 C999 0.941 1_554 S
H1004 C1001 0.950 1_554 S
C1005 C996 1.390 . S
C1005 H998 0.950 . S
C1005 C1002 1.387 . S
C1006 C1007 1.387 . S
C1006 H1010 0.950 . S
C1006 C1015 1.390 . S
C1007 C1006 1.387 . S
C1007 C1009 1.387 . S
H1008 C1015 0.950 . S
C1009 C1007 1.387 . S
C1009 C1011 1.390 . S
C1009 H1013 0.950 . S
H1010 C1006 0.950 . S
C1011 C1009 1.390 . S
C1011 C1012 1.387 . S
C1011 H1014 0.950 1_556 S
C1012 C1011 1.387 . S
C1012 C1015 1.387 . S
H1013 C1009 0.950 . S
H1014 C1011 0.950 1_554 S
C1015 C1006 1.390 . S
C1015 H1008 0.950 . S
C1015 C1012 1.387 . S
C1016 C1017 1.387 1_554 S
C1016 H1020 0.950 . S
C1016 C1025 1.390 . S
C1017 C1016 1.387 1_556 S
C1017 C1019 1.387 . S
H1018 C1025 0.950 . S
C1019 C1017 1.387 . S
C1019 C1021 1.390 . S
C1019 H1023 0.950 . S
H1020 C1016 0.950 . S
C1021 C1019 1.390 . S
C1021 C1022 1.387 . S
C1021 H1024 0.950 . S
C1022 C1021 1.387 . S
C1022 C1025 1.387 1_556 S
H1023 C1019 0.950 . S
H1024 C1021 0.950 . S
C1025 C1016 1.390 . S
C1025 H1018 0.950 . S
C1025 C1022 1.387 1_554 S
C1026 C1027 1.387 . S
C1026 H1030 0.950 1_554 S
C1026 C1035 1.390 . S
C1027 C1026 1.387 . S
C1027 C1029 1.387 . S
H1028 C1035 0.950 1_556 S
C1029 C1027 1.387 . S
C1029 C1031 1.390 . S
C1029 H1033 0.950 . S
H1030 C1026 0.950 1_556 S
C1031 C1029 1.390 . S
C1031 C1032 1.387 . S
C1031 H1034 0.950 . S
C1032 C1031 1.387 . S
C1032 C1035 1.387 . S
H1033 C1029 0.950 . S
H1034 C1031 0.950 . S
C1035 C1026 1.390 . S
C1035 H1028 0.950 1_554 S
C1035 C1032 1.387 . S
C1036 C1037 1.387 . S
C1036 H1040 0.950 . S
C1036 C1045 1.390 . S
C1037 C1036 1.387 . S
C1037 C1039 1.387 . S
H1038 C1045 0.950 . S
C1039 C1037 1.387 . S
C1039 C1041 1.390 . S
C1039 H1043 0.950 . S
H1040 C1036 0.950 . S
C1041 C1039 1.390 . S
C1041 C1042 1.387 . S
C1041 H1044 0.950 . S
C1042 C1041 1.387 . S
C1042 C1045 1.387 . S
H1043 C1039 0.950 . S
H1044 C1041 0.950 . S
C1045 C1036 1.390 . S
C1045 H1038 0.950 . S
C1045 C1042 1.387 . S
C1046 C1047 1.387 . S
C1046 H1050 0.950 . S
C1046 C1055 1.390 . S
C1047 C1046 1.387 . S
C1047 C1049 1.387 . S
H1048 C1055 0.950 . S
C1049 C1047 1.387 . S
C1049 C1051 1.390 . S
C1049 H1053 0.976 . S
H1050 C1046 0.950 . S
C1051 C1049 1.390 . S
C1051 C1052 1.387 . S
C1051 H1054 0.950 1_554 S
C1052 C1051 1.387 . S
C1052 C1055 1.387 . S
H1053 C1049 0.976 . S
H1054 C1051 0.950 1_556 S
C1055 C1046 1.390 . S
C1055 H1048 0.950 . S
C1055 C1052 1.387 . S
C1056 C1057 1.387 1_455 S
C1056 H1060 0.950 1_455 S
C1056 C1065 1.390 . S
C1057 C1056 1.387 1_655 S
C1057 C1059 1.387 1_655 S
H1058 C1065 0.950 . S
C1059 C1057 1.387 1_455 S
C1059 C1061 1.390 . S
C1059 H1063 0.950 . S
H1060 C1056 0.950 1_655 S
C1061 C1059 1.390 . S
C1061 C1062 1.387 . S
C1061 H1064 0.950 . S
C1062 C1061 1.387 . S
C1062 C1065 1.387 . S
H1063 C1059 0.950 . S
H1064 C1061 0.950 . S
C1065 C1056 1.390 . S
C1065 H1058 0.950 . S
C1065 C1062 1.387 . S
C1066 C1067 1.387 . S
C1066 H1070 0.950 . S
C1066 C1075 1.390 . S
C1067 C1066 1.387 . S
C1067 C1069 1.387 . S
H1068 C1075 0.950 . S
C1069 C1067 1.387 . S
C1069 C1071 1.390 . S
C1069 H1073 0.950 . S
H1070 C1066 0.950 . S
C1071 C1069 1.390 . S
C1071 C1072 1.387 . S
C1071 H1074 0.950 . S
C1072 C1071 1.387 . S
C1072 C1075 1.387 . S
H1073 C1069 0.950 . S
H1074 C1071 0.950 . S
C1075 C1066 1.390 . S
C1075 H1068 0.950 . S
C1075 C1072 1.387 . S
C1076 C1077 1.376 1_565 S
C1076 H1080 0.935 1_565 S
C1076 C1085 1.418 . S
C1077 C1076 1.376 1_545 S
C1077 C1079 1.391 . S
H1078 C1085 0.950 . S
C1079 C1077 1.391 . S
C1079 C1081 1.385 1_545 S
C1079 H1083 0.952 . S
H1080 C1076 0.935 1_545 S
C1081 C1079 1.385 1_565 S
C1081 C1082 1.387 . S
C1081 H1084 0.950 . S
C1082 C1081 1.387 . S
C1082 C1085 1.387 . S
H1083 C1079 0.952 . S
H1084 C1081 0.950 . S
C1085 C1076 1.418 . S
C1085 H1078 0.950 . S
C1085 C1082 1.387 . S
C1086 C1087 1.387 . S
C1086 H1090 0.950 . S
C1086 C1095 1.390 . S
C1087 C1086 1.387 . S
C1087 C1089 1.387 . S
H1088 C1095 0.950 . S
C1089 C1087 1.387 . S
C1089 C1091 1.390 . S
C1089 H1093 0.950 . S
H1090 C1086 0.950 . S
C1091 C1089 1.390 . S
C1091 C1092 1.387 . S
C1091 H1094 0.950 . S
C1092 C1091 1.387 . S
C1092 C1095 1.387 . S
H1093 C1089 0.950 . S
H1094 C1091 0.950 . S
C1095 C1086 1.390 . S
C1095 H1088 0.950 . S
C1095 C1092 1.387 . S
C1096 C1097 1.387 . S
C1096 H1100 0.950 . S
C1096 C1105 1.390 . S
C1097 C1096 1.387 . S
C1097 C1099 1.387 . S
H1098 C1105 0.950 . S
C1099 C1097 1.387 . S
C1099 C1101 1.390 . S
C1099 H1103 0.950 . S
H1100 C1096 0.950 . S
C1101 C1099 1.390 . S
C1101 C1102 1.387 . S
C1101 H1104 0.950 . S
C1102 C1101 1.387 . S
C1102 C1105 1.387 . S
H1103 C1099 0.950 . S
H1104 C1101 0.950 . S
C1105 C1096 1.390 . S
C1105 H1098 0.950 . S
C1105 C1102 1.387 . S
C1106 C1107 1.387 . S
C1106 H1110 0.950 . S
C1106 C1115 1.390 . S
C1107 C1106 1.387 . S
C1107 C1109 1.387 . S
H1108 C1115 0.950 . S
C1109 C1107 1.387 . S
C1109 C1111 1.390 . S
C1109 H1113 0.950 . S
H1110 C1106 0.950 . S
C1111 C1109 1.390 . S
C1111 C1112 1.387 . S
C1111 H1114 0.950 . S
C1112 C1111 1.387 . S
C1112 C1115 1.387 . S
H1113 C1109 0.950 . S
H1114 C1111 0.950 . S
C1115 C1106 1.390 . S
C1115 H1108 0.950 . S
C1115 C1112 1.387 . S
C1116 C1117 1.387 . S
C1116 H1120 0.950 . S
C1116 C1125 1.390 . S
C1117 C1116 1.387 . S
C1117 C1119 1.387 . S
H1118 C1125 0.950 . S
C1119 C1117 1.387 . S
C1119 C1121 1.390 . S
C1119 H1123 0.950 . S
H1120 C1116 0.950 . S
C1121 C1119 1.390 . S
C1121 C1122 1.387 . S
C1121 H1124 0.950 . S
C1122 C1121 1.387 . S
C1122 C1125 1.387 . S
H1123 C1119 0.950 . S
H1124 C1121 0.950 . S
C1125 C1116 1.390 . S
C1125 H1118 0.950 . S
C1125 C1122 1.387 . S
C1126 C1127 1.387 . S
C1126 H1130 0.950 . S
C1126 C1135 1.390 . S
C1127 C1126 1.387 . S
C1127 C1129 1.387 . S
H1128 C1135 0.950 . S
C1129 C1127 1.387 . S
C1129 C1131 1.390 . S
C1129 H1133 0.950 . S
H1130 C1126 0.950 . S
C1131 C1129 1.390 . S
C1131 C1132 1.387 . S
C1131 H1134 0.950 . S
C1132 C1131 1.387 . S
C1132 C1135 1.387 . S
H1133 C1129 0.950 . S
H1134 C1131 0.950 . S
C1135 C1126 1.390 . S
C1135 H1128 0.950 . S
C1135 C1132 1.387 . S
C1136 C1137 1.387 . S
C1136 H1140 0.950 . S
C1136 C1145 1.390 . S
C1137 C1136 1.387 . S
C1137 C1139 1.387 . S
H1138 C1145 0.950 . S
C1139 C1137 1.387 . S
C1139 C1141 1.390 . S
C1139 H1143 0.950 . S
H1140 C1136 0.950 . S
C1141 C1139 1.390 . S
C1141 C1142 1.387 . S
C1141 H1144 0.950 . S
C1142 C1141 1.387 . S
C1142 C1145 1.387 . S
H1143 C1139 0.950 . S
H1144 C1141 0.950 . S
C1145 C1136 1.390 . S
C1145 H1138 0.950 . S
C1145 C1142 1.387 . S
C1146 C1147 1.387 1_565 S
C1146 H1150 0.950 1_565 S
C1146 C1155 1.390 . S
C1147 C1146 1.387 1_545 S
C1147 C1149 1.387 1_545 S
H1148 C1155 0.950 . S
C1149 C1147 1.387 1_565 S
C1149 C1151 1.390 . S
C1149 H1153 0.950 1_565 S
H1150 C1146 0.950 1_545 S
C1151 C1149 1.390 . S
C1151 C1152 1.387 . S
C1151 H1154 0.950 . S
C1152 C1151 1.387 . S
C1152 C1155 1.387 . S
H1153 C1149 0.950 1_545 S
H1154 C1151 0.950 . S
C1155 C1146 1.390 . S
C1155 H1148 0.950 . S
C1155 C1152 1.387 . S
C1156 C1157 1.387 . S
C1156 H1160 0.950 . S
C1156 C1165 1.390 . S
C1157 C1156 1.387 . S
C1157 C1159 1.387 . S
H1158 C1165 0.950 . S
C1159 C1157 1.387 . S
C1159 C1161 1.390 . S
C1159 H1163 0.950 1_455 S
H1160 C1156 0.950 . S
C1161 C1159 1.390 . S
C1161 C1162 1.387 . S
C1161 H1164 0.950 . S
C1162 C1161 1.387 . S
C1162 C1165 1.387 . S
H1163 C1159 0.950 1_655 S
H1164 C1161 0.950 . S
C1165 C1156 1.390 . S
C1165 H1158 0.950 . S
C1165 C1162 1.387 . S
C1166 C1167 1.387 . S
C1166 H1170 0.950 . S
C1166 C1175 1.390 . S
C1167 C1166 1.387 . S
C1167 C1169 1.387 . S
H1168 C1175 0.950 . S
C1169 C1167 1.387 . S
C1169 C1171 1.390 . S
C1169 H1173 0.950 . S
H1170 C1166 0.950 . S
C1171 C1169 1.390 . S
C1171 C1172 1.387 . S
C1171 H1174 0.950 . S
C1172 C1171 1.387 . S
C1172 C1175 1.387 . S
H1173 C1169 0.950 . S
H1174 C1171 0.950 . S
C1175 C1166 1.390 . S
C1175 H1168 0.950 . S
C1175 C1172 1.387 . S
C1176 C1177 1.387 . S
C1176 H1180 0.950 . S
C1176 C1185 1.390 . S
C1177 C1176 1.387 . S
C1177 C1179 1.387 . S
H1178 C1185 0.950 . S
C1179 C1177 1.387 . S
C1179 C1181 1.390 . S
C1179 H1183 0.950 . S
H1180 C1176 0.950 . S
C1181 C1179 1.390 . S
C1181 C1182 1.387 . S
C1181 H1184 0.950 . S
C1182 C1181 1.387 . S
C1182 C1185 1.387 . S
H1183 C1179 0.950 . S
H1184 C1181 0.950 . S
C1185 C1176 1.390 . S
C1185 H1178 0.950 . S
C1185 C1182 1.387 . S
C1186 C1187 1.387 . S
C1186 H1190 0.950 . S
C1186 C1195 1.390 . S
C1187 C1186 1.387 . S
C1187 C1189 1.387 . S
H1188 C1195 0.950 . S
C1189 C1187 1.387 . S
C1189 C1191 1.390 . S
C1189 H1193 0.950 . S
H1190 C1186 0.950 . S
C1191 C1189 1.390 . S
C1191 C1192 1.387 . S
C1191 H1194 0.950 . S
C1192 C1191 1.387 . S
C1192 C1195 1.387 . S
H1193 C1189 0.950 . S
H1194 C1191 0.950 . S
C1195 C1186 1.390 . S
C1195 H1188 0.950 . S
C1195 C1192 1.387 . S
C1196 C1197 1.387 . S
C1196 H1200 0.950 . S
C1196 C1205 1.390 . S
C1197 C1196 1.387 . S
C1197 C1199 1.387 . S
H1198 C1205 0.950 . S
C1199 C1197 1.387 . S
C1199 C1201 1.390 . S
C1199 H1203 0.950 . S
H1200 C1196 0.950 . S
C1201 C1199 1.390 . S
C1201 C1202 1.387 . S
C1201 H1204 0.950 . S
C1202 C1201 1.387 . S
C1202 C1205 1.387 . S
H1203 C1199 0.950 . S
H1204 C1201 0.950 . S
C1205 C1196 1.390 . S
C1205 H1198 0.950 . S
C1205 C1202 1.387 . S
C1206 C1207 1.387 1_545 S
C1206 H1210 0.950 1_545 S
C1206 C1215 1.390 . S
C1207 C1206 1.387 1_565 S
C1207 C1209 1.387 1_565 S
H1208 C1215 0.950 . S
C1209 C1207 1.387 1_545 S
C1209 C1211 1.390 . S
C1209 H1213 0.950 1_545 S
H1210 C1206 0.950 1_565 S
C1211 C1209 1.390 . S
C1211 C1212 1.387 . S
C1211 H1214 0.950 . S
C1212 C1211 1.387 . S
C1212 C1215 1.387 . S
H1213 C1209 0.950 1_565 S
H1214 C1211 0.950 . S
C1215 C1206 1.390 . S
C1215 H1208 0.950 . S
C1215 C1212 1.387 . S
C1216 C1217 1.387 . S
C1216 H1220 0.950 . S
C1216 C1225 1.390 . S
C1217 C1216 1.387 . S
C1217 C1219 1.387 . S
H1218 C1225 0.950 . S
C1219 C1217 1.387 . S
C1219 C1221 1.390 . S
C1219 H1223 0.950 1_655 S
H1220 C1216 0.950 . S
C1221 C1219 1.390 . S
C1221 C1222 1.387 . S
C1221 H1224 0.950 . S
C1222 C1221 1.387 . S
C1222 C1225 1.387 . S
H1223 C1219 0.950 1_455 S
H1224 C1221 0.950 . S
C1225 C1216 1.390 . S
C1225 H1218 0.950 . S
C1225 C1222 1.387 . S
C1226 C1227 1.387 . S
C1226 H1230 0.950 . S
C1226 C1235 1.390 . S
C1227 C1226 1.387 . S
C1227 C1229 1.387 . S
H1228 C1235 0.950 . S
C1229 C1227 1.387 . S
C1229 C1231 1.390 . S
C1229 H1233 0.950 . S
H1230 C1226 0.950 . S
C1231 C1229 1.390 . S
C1231 C1232 1.387 . S
C1231 H1234 0.950 . S
C1232 C1231 1.387 . S
C1232 C1235 1.387 . S
H1233 C1229 0.950 . S
H1234 C1231 0.950 . S
C1235 C1226 1.390 . S
C1235 H1228 0.950 . S
C1235 C1232 1.387 . S
C1236 C1237 1.387 1_655 S
C1236 H1240 0.950 1_655 S
C1236 C1245 1.390 . S
C1237 C1236 1.387 1_455 S
C1237 C1239 1.387 1_455 S
H1238 C1245 0.950 . S
C1239 C1237 1.387 1_655 S
C1239 C1241 1.390 . S
C1239 H1243 0.950 . S
H1240 C1236 0.950 1_455 S
C1241 C1239 1.390 . S
C1241 C1242 1.387 . S
C1241 H1244 0.950 . S
C1242 C1241 1.387 . S
C1242 C1245 1.387 . S
H1243 C1239 0.950 . S
H1244 C1241 0.950 . S
C1245 C1236 1.390 . S
C1245 H1238 0.950 . S
C1245 C1242 1.387 . S
C1246 C1247 1.387 . S
C1246 H1250 0.950 . S
C1246 C1255 1.390 . S
C1247 C1246 1.387 . S
C1247 C1249 1.387 . S
H1248 C1255 0.950 . S
C1249 C1247 1.387 . S
C1249 C1251 1.390 . S
C1249 H1253 0.950 . S
H1250 C1246 0.950 . S
C1251 C1249 1.390 . S
C1251 C1252 1.387 . S
C1251 H1254 0.950 . S
C1252 C1251 1.387 . S
C1252 C1255 1.387 . S
H1253 C1249 0.950 . S
H1254 C1251 0.950 . S
C1255 C1246 1.390 . S
C1255 H1248 0.950 . S
C1255 C1252 1.387 . S
C1256 C1257 1.387 1_545 S
C1256 H1260 0.950 1_545 S
C1256 C1265 1.390 . S
C1257 C1256 1.387 1_565 S
C1257 C1259 1.387 1_565 S
H1258 C1265 0.950 . S
C1259 C1257 1.387 1_545 S
C1259 C1261 1.390 . S
C1259 H1263 0.950 1_545 S
H1260 C1256 0.950 1_565 S
C1261 C1259 1.390 . S
C1261 C1262 1.387 . S
C1261 H1264 0.950 . S
C1262 C1261 1.387 . S
C1262 C1265 1.387 . S
H1263 C1259 0.950 1_565 S
H1264 C1261 0.950 . S
C1265 C1256 1.390 . S
C1265 H1258 0.950 . S
C1265 C1262 1.387 . S
C1266 C1267 1.387 . S
C1266 H1270 0.950 . S
C1266 C1275 1.390 . S
C1267 C1266 1.387 . S
C1267 C1269 1.387 . S
H1268 C1275 0.950 . S
C1269 C1267 1.387 . S
C1269 C1271 1.390 . S
C1269 H1273 0.950 . S
H1270 C1266 0.950 . S
C1271 C1269 1.390 . S
C1271 C1272 1.387 . S
C1271 H1274 0.950 . S
C1272 C1271 1.387 . S
C1272 C1275 1.387 . S
H1273 C1269 0.950 . S
H1274 C1271 0.950 . S
C1275 C1266 1.390 . S
C1275 H1268 0.950 . S
C1275 C1272 1.387 . S
C1276 C1277 1.387 . S
C1276 H1280 0.950 . S
C1276 C1285 1.390 . S
C1277 C1276 1.387 . S
C1277 C1279 1.387 . S
H1278 C1285 0.950 . S
C1279 C1277 1.387 . S
C1279 C1281 1.390 . S
C1279 H1283 0.950 . S
H1280 C1276 0.950 . S
C1281 C1279 1.390 . S
C1281 C1282 1.387 . S
C1281 H1284 0.950 . S
C1282 C1281 1.387 . S
C1282 C1285 1.387 . S
H1283 C1279 0.950 . S
H1284 C1281 0.950 . S
C1285 C1276 1.390 . S
C1285 H1278 0.950 . S
C1285 C1282 1.387 . S
C1286 C1287 1.387 . S
C1286 H1290 0.950 . S
C1286 C1295 1.390 . S
C1287 C1286 1.387 . S
C1287 C1289 1.387 . S
H1288 C1295 0.950 . S
C1289 C1287 1.387 . S
C1289 C1291 1.390 . S
C1289 H1293 0.950 . S
H1290 C1286 0.950 . S
C1291 C1289 1.390 . S
C1291 C1292 1.387 . S
C1291 H1294 0.950 . S
C1292 C1291 1.387 . S
C1292 C1295 1.387 . S
H1293 C1289 0.950 . S
H1294 C1291 0.950 . S
C1295 C1286 1.390 . S
C1295 H1288 0.950 . S
C1295 C1292 1.387 . S
C1296 C1297 1.387 . S
C1296 H1300 0.950 1_565 S
C1296 C1305 1.390 1_565 S
C1297 C1296 1.387 . S
C1297 C1299 1.387 . S
H1298 C1305 0.950 . S
C1299 C1297 1.387 . S
C1299 C1301 1.390 . S
C1299 H1303 0.950 . S
H1300 C1296 0.950 1_545 S
C1301 C1299 1.390 . S
C1301 C1302 1.387 . S
C1301 H1304 0.950 . S
C1302 C1301 1.387 . S
C1302 C1305 1.387 1_565 S
H1303 C1299 0.950 . S
H1304 C1301 0.950 . S
C1305 C1296 1.390 1_545 S
C1305 H1298 0.950 . S
C1305 C1302 1.387 1_545 S
C1306 C1307 1.387 . S
C1306 H1310 0.950 . S
C1306 C1315 1.390 . S
C1307 C1306 1.387 . S
C1307 C1309 1.387 . S
H1308 C1315 0.950 . S
C1309 C1307 1.387 . S
C1309 C1311 1.390 . S
C1309 H1313 0.950 1_455 S
H1310 C1306 0.950 . S
C1311 C1309 1.390 . S
C1311 C1312 1.387 . S
C1311 H1314 0.940 . S
C1312 C1311 1.387 . S
C1312 C1315 1.387 . S
H1313 C1309 0.950 1_655 S
H1314 C1311 0.940 . S
C1315 C1306 1.390 . S
C1315 H1308 0.950 . S
C1315 C1312 1.387 . S
C1316 C1317 1.387 . S
C1316 H1320 0.950 . S
C1316 C1325 1.390 . S
C1317 C1316 1.387 . S
C1317 C1319 1.387 . S
H1318 C1325 0.950 . S
C1319 C1317 1.387 . S
C1319 C1321 1.390 . S
C1319 H1323 0.950 . S
H1320 C1316 0.950 . S
C1321 C1319 1.390 . S
C1321 C1322 1.387 . S
C1321 H1324 0.950 . S
C1322 C1321 1.387 . S
C1322 C1325 1.387 . S
H1323 C1319 0.950 . S
H1324 C1321 0.950 . S
C1325 C1316 1.390 . S
C1325 H1318 0.950 . S
C1325 C1322 1.387 . S
C1326 C1327 1.387 1_455 S
C1326 H1330 0.950 . S
C1326 C1335 1.398 . S
C1327 C1326 1.387 1_655 S
C1327 C1329 1.387 . S
H1328 C1335 0.948 . S
C1329 C1327 1.387 . S
C1329 C1331 1.390 . S
C1329 H1333 0.950 . S
H1330 C1326 0.950 . S
C1331 C1329 1.390 . S
C1331 C1332 1.387 . S
C1331 H1334 0.950 . S
C1332 C1331 1.387 . S
C1332 C1335 1.382 1_655 S
H1333 C1329 0.950 . S
H1334 C1331 0.950 . S
C1335 C1326 1.398 . S
C1335 H1328 0.948 . S
C1335 C1332 1.382 1_455 S
C1336 C1337 1.387 . S
C1336 H1340 0.950 . S
C1336 C1345 1.390 . S
C1337 C1336 1.387 . S
C1337 C1339 1.387 . S
H1338 C1345 0.950 . S
C1339 C1337 1.387 . S
C1339 C1341 1.390 . S
C1339 H1343 0.950 . S
H1340 C1336 0.950 . S
C1341 C1339 1.390 . S
C1341 C1342 1.387 . S
C1341 H1344 0.950 . S
C1342 C1341 1.387 . S
C1342 C1345 1.387 . S
H1343 C1339 0.950 . S
H1344 C1341 0.950 . S
C1345 C1336 1.390 . S
C1345 H1338 0.950 . S
C1345 C1342 1.387 . S
C1346 C1347 1.387 . S
C1346 H1350 0.950 1_545 S
C1346 C1355 1.390 1_545 S
C1347 C1346 1.387 . S
C1347 C1349 1.387 . S
H1348 C1355 0.950 . S
C1349 C1347 1.387 . S
C1349 C1351 1.390 . S
C1349 H1353 0.950 . S
H1350 C1346 0.950 1_565 S
C1351 C1349 1.390 . S
C1351 C1352 1.387 . S
C1351 H1354 0.950 . S
C1352 C1351 1.387 . S
C1352 C1355 1.387 1_545 S
H1353 C1349 0.950 . S
H1354 C1351 0.950 . S
C1355 C1346 1.390 1_565 S
C1355 H1348 0.950 . S
C1355 C1352 1.387 1_565 S
C1356 C1357 1.387 . S
C1356 H1360 0.950 . S
C1356 C1365 1.390 . S
C1357 C1356 1.387 . S
C1357 C1359 1.387 . S
H1358 C1365 0.950 . S
C1359 C1357 1.387 . S
C1359 C1361 1.390 . S
C1359 H1363 0.950 . S
H1360 C1356 0.950 . S
C1361 C1359 1.390 . S
C1361 C1362 1.387 . S
C1361 H1364 0.950 . S
C1362 C1361 1.387 . S
C1362 C1365 1.387 . S
H1363 C1359 0.950 . S
H1364 C1361 0.950 . S
C1365 C1356 1.390 . S
C1365 H1358 0.950 . S
C1365 C1362 1.387 . S
C1366 C1367 1.387 . S
C1366 H1370 0.950 . S
C1366 C1375 1.390 . S
C1367 C1366 1.387 . S
C1367 C1369 1.387 . S
H1368 C1375 0.950 . S
C1369 C1367 1.387 . S
C1369 C1371 1.390 . S
C1369 H1373 0.950 . S
H1370 C1366 0.950 . S
C1371 C1369 1.390 . S
C1371 C1372 1.387 . S
C1371 H1374 0.950 . S
C1372 C1371 1.387 . S
C1372 C1375 1.387 . S
H1373 C1369 0.950 . S
H1374 C1371 0.950 . S
C1375 C1366 1.390 . S
C1375 H1368 0.950 . S
C1375 C1372 1.387 . S
C1376 C1377 1.387 . S
C1376 H1380 0.950 . S
C1376 C1385 1.390 . S
C1377 C1376 1.387 . S
C1377 C1379 1.387 . S
H1378 C1385 0.950 . S
C1379 C1377 1.387 . S
C1379 C1381 1.390 . S
C1379 H1383 0.950 . S
H1380 C1376 0.950 . S
C1381 C1379 1.390 . S
C1381 C1382 1.387 . S
C1381 H1384 0.950 . S
C1382 C1381 1.387 . S
C1382 C1385 1.387 . S
H1383 C1379 0.950 . S
H1384 C1381 0.950 . S
C1385 C1376 1.390 . S
C1385 H1378 0.950 . S
C1385 C1382 1.387 . S
C1386 C1387 1.387 . S
C1386 H1390 0.950 . S
C1386 C1395 1.390 . S
C1387 C1386 1.387 . S
C1387 C1389 1.387 . S
H1388 C1395 0.950 . S
C1389 C1387 1.387 . S
C1389 C1391 1.390 . S
C1389 H1393 0.950 . S
H1390 C1386 0.950 . S
C1391 C1389 1.390 . S
C1391 C1392 1.387 . S
C1391 H1394 0.950 . S
C1392 C1391 1.387 . S
C1392 C1395 1.387 . S
H1393 C1389 0.950 . S
H1394 C1391 0.950 . S
C1395 C1386 1.390 . S
C1395 H1388 0.950 . S
C1395 C1392 1.387 . S
C1396 C1397 1.387 . S
C1396 H1400 0.950 . S
C1396 C1405 1.390 . S
C1397 C1396 1.387 . S
C1397 C1399 1.387 . S
H1398 C1405 0.950 . S
C1399 C1397 1.387 . S
C1399 C1401 1.390 . S
C1399 H1403 0.950 . S
H1400 C1396 0.950 . S
C1401 C1399 1.390 . S
C1401 C1402 1.387 . S
C1401 H1404 0.950 . S
C1402 C1401 1.387 . S
C1402 C1405 1.387 . S
H1403 C1399 0.950 . S
H1404 C1401 0.950 . S
C1405 C1396 1.390 . S
C1405 H1398 0.950 . S
C1405 C1402 1.387 . S
C1406 C1407 1.387 . S
C1406 H1410 0.950 . S
C1406 C1415 1.390 . S
C1407 C1406 1.387 . S
C1407 C1409 1.387 . S
H1408 C1415 0.950 . S
C1409 C1407 1.387 . S
C1409 C1411 1.390 . S
C1409 H1413 0.950 . S
H1410 C1406 0.950 . S
C1411 C1409 1.390 . S
C1411 C1412 1.387 . S
C1411 H1414 0.950 . S
C1412 C1411 1.387 . S
C1412 C1415 1.387 . S
H1413 C1409 0.950 . S
H1414 C1411 0.950 . S
C1415 C1406 1.390 . S
C1415 H1408 0.950 . S
C1415 C1412 1.387 . S
C1416 C1417 1.387 . S
C1416 H1420 0.950 . S
C1416 C1425 1.390 . S
C1417 C1416 1.387 . S
C1417 C1419 1.387 . S
H1418 C1425 0.950 . S
C1419 C1417 1.387 . S
C1419 C1421 1.390 . S
C1419 H1423 0.950 . S
H1420 C1416 0.950 . S
C1421 C1419 1.390 . S
C1421 C1422 1.387 . S
C1421 H1424 0.950 . S
C1422 C1421 1.387 . S
C1422 C1425 1.387 . S
H1423 C1419 0.950 . S
H1424 C1421 0.950 . S
C1425 C1416 1.390 . S
C1425 H1418 0.950 . S
C1425 C1422 1.387 . S
C1426 C1427 1.387 . S
C1426 H1430 0.950 . S
C1426 C1435 1.390 . S
C1427 C1426 1.387 . S
C1427 C1429 1.387 . S
H1428 C1435 0.950 . S
C1429 C1427 1.387 . S
C1429 C1431 1.390 . S
C1429 H1433 0.950 . S
H1430 C1426 0.950 . S
C1431 C1429 1.390 . S
C1431 C1432 1.387 . S
C1431 H1434 0.950 . S
C1432 C1431 1.387 . S
C1432 C1435 1.387 . S
H1433 C1429 0.950 . S
H1434 C1431 0.950 . S
C1435 C1426 1.390 . S
C1435 H1428 0.950 . S
C1435 C1432 1.387 . S
C1436 C1437 1.387 . S
C1436 H1440 0.950 . S
C1436 C1445 1.390 . S
C1437 C1436 1.387 . S
C1437 C1439 1.387 . S
H1438 C1445 0.950 . S
C1439 C1437 1.387 . S
C1439 C1441 1.390 . S
C1439 H1443 0.950 . S
H1440 C1436 0.950 . S
C1441 C1439 1.390 . S
C1441 C1442 1.387 . S
C1441 H1444 0.950 . S
C1442 C1441 1.387 . S
C1442 C1445 1.387 . S
H1443 C1439 0.950 . S
H1444 C1441 0.950 . S
C1445 C1436 1.390 . S
C1445 H1438 0.950 . S
C1445 C1442 1.387 . S
C1446 C1447 1.387 . S
C1446 H1450 0.950 . S
C1446 C1455 1.390 . S
C1447 C1446 1.387 . S
C1447 C1449 1.387 . S
H1448 C1455 0.950 . S
C1449 C1447 1.387 . S
C1449 C1451 1.390 . S
C1449 H1453 0.950 . S
H1450 C1446 0.950 . S
C1451 C1449 1.390 . S
C1451 C1452 1.387 . S
C1451 H1454 0.950 . S
C1452 C1451 1.387 . S
C1452 C1455 1.387 . S
H1453 C1449 0.950 . S
H1454 C1451 0.950 . S
C1455 C1446 1.390 . S
C1455 H1448 0.950 . S
C1455 C1452 1.387 . S
C1456 C1457 1.387 . S
C1456 H1460 0.950 . S
C1456 C1465 1.390 . S
C1457 C1456 1.387 . S
C1457 C1459 1.387 . S
H1458 C1465 0.950 . S
C1459 C1457 1.387 . S
C1459 C1461 1.390 . S
C1459 H1463 0.950 . S
H1460 C1456 0.950 . S
C1461 C1459 1.390 . S
C1461 C1462 1.387 . S
C1461 H1464 0.950 . S
C1462 C1461 1.387 . S
C1462 C1465 1.387 . S
H1463 C1459 0.950 . S
H1464 C1461 0.950 . S
C1465 C1456 1.390 . S
C1465 H1458 0.950 . S
C1465 C1462 1.387 . S
C1466 C1467 1.387 . S
C1466 H1470 0.950 . S
C1466 C1475 1.390 . S
C1467 C1466 1.387 . S
C1467 C1469 1.387 . S
H1468 C1475 0.950 . S
C1469 C1467 1.387 . S
C1469 C1471 1.390 . S
C1469 H1473 0.950 . S
H1470 C1466 0.950 . S
C1471 C1469 1.390 . S
C1471 C1472 1.387 . S
C1471 H1474 0.950 . S
C1472 C1471 1.387 . S
C1472 C1475 1.387 . S
H1473 C1469 0.950 . S
H1474 C1471 0.950 . S
C1475 C1466 1.390 . S
C1475 H1468 0.950 . S
C1475 C1472 1.387 . S
C937 C439 1.517 . S
C942 C585 1.612 . S
C947 C465 1.787 . S
C952 C625 1.731 . S
C957 C401 1.768 . S
C962 C664 1.723 . S
C967 C369 1.620 . S
C972 C624 1.576 . S
C982 C665 1.515 . S
C977 C305 1.554 . S
C987 C343 1.332 . S
C992 C584 1.478 1_556 S
C1002 C595 1.641 . S
C997 C375 1.722 . S
C1012 C635 1.701 . S
C1007 C311 1.758 . S
C1017 C337 1.597 . S
C1022 C674 1.724 . S
C1027 C433 1.481 . S
C1032 C634 1.575 . S
C1037 C471 1.527 . S
C1042 C675 1.483 . S
C1052 C594 1.533 . S
C1047 C407 1.552 . S
C1062 C705 1.612 . S
C1057 C55 1.517 . S
C1067 C81 1.787 . S
C1072 C745 1.733 . S
C1077 C17 1.768 . S
C1082 C784 1.722 . S
C1087 C561 1.620 . S
C1092 C744 1.574 . S
C1097 C497 1.556 . S
C1102 C785 1.517 . S
C1107 C535 1.332 . S
C1112 C704 1.499 . S
C1117 C567 1.722 . S
C1122 C715 1.641 . S
C1127 C503 1.758 . S
C1132 C755 1.702 . S
C1142 C794 1.724 . S
C1137 C529 1.597 . S
C1147 C49 1.481 . S
C1152 C754 1.575 . S
C1162 C795 1.483 . S
C1157 C87 1.527 1_455 S
C1167 C23 1.554 . S
C1172 C714 1.535 . S
C1182 C825 1.612 . S
C1177 C247 1.517 . S
C1187 C273 1.787 . S
C1192 C865 1.732 . S
C1202 C904 1.722 . S
C1197 C209 1.768 . S
C1212 C864 1.573 . S
C1207 C177 1.619 . S
C1222 C905 1.517 . S
C1217 C113 1.556 1_655 S
C1227 C151 1.338 . S
C1232 C824 1.500 . S
C1237 C183 1.723 . S
C1242 C835 1.644 . S
C1247 C119 1.758 . S
C1252 C875 1.701 . S
C1262 C914 1.725 . S
C1257 C145 1.593 . S
C1267 C241 1.481 . S
C1272 C874 1.575 . S
C1277 C279 1.527 . S
C1282 C915 1.484 . S
C1287 C215 1.554 . S
C1292 C834 1.535 . S
C1297 C509 1.419 . S
C1302 C581 1.432 . S
C1312 C621 1.768 . S
C1307 C541 1.649 . S
C1317 C573 1.556 . S
C1322 C671 1.562 . S
C1327 C221 1.797 . S
C1332 C631 1.784 . S
C1337 C253 1.462 . S
C1342 C661 1.541 . S
C1352 C591 1.430 . S
C1347 C285 1.410 . S
C1357 C125 1.418 . S
C1362 C701 1.433 . S
C1367 C157 1.649 . S
C1372 C741 1.768 . S
C1377 C189 1.557 . S
C1382 C791 1.562 . S
C1387 C413 1.797 . S
C1392 C751 1.784 . S
C1402 C781 1.541 . S
C1397 C445 1.462 . S
C1407 C477 1.410 . S
C1412 C711 1.430 . S
C1417 C317 1.419 . S
C1422 C821 1.432 . S
C1427 C349 1.645 . S
C1432 C861 1.766 . S
C1442 C911 1.562 . S
C1437 C381 1.556 . S
C1447 C29 1.797 . S
C1452 C871 1.784 . S
C1457 C61 1.462 . S
C1462 C901 1.541 . S
C1467 C93 1.407 . S
C1472 C831 1.429 . S
