# Generated by pormake.
# Topology zzz, (3,6)-cn, num edge types: 1
# Building blocks:
#     Node 0, Type 0, BuildingBlock: BETDAH_clean_linker_0, # of connection points: 3
#     Node 1, Type 0, BuildingBlock: BETDAH_clean_linker_0, # of connection points: 3
#     Node 2, Type 0, BuildingBlock: BETDAH_clean_linker_0, # of connection points: 3
#     Node 3, Type 0, BuildingBlock: BETDAH_clean_linker_0, # of connection points: 3
#     Node 4, Type 0, BuildingBlock: BETDAH_clean_linker_0, # of connection points: 3
#     Node 5, Type 0, BuildingBlock: BETDAH_clean_linker_0, # of connection points: 3
#     Node 6, Type 0, BuildingBlock: BETDAH_clean_linker_0, # of connection points: 3
#     Node 7, Type 0, BuildingBlock: BETDAH_clean_linker_0, # of connection points: 3
#     Node 8, Type 1, BuildingBlock: INOVEN_clean_sbu_0, # of connection points: 6
#     Node 9, Type 1, BuildingBlock: INOVEN_clean_sbu_0, # of connection points: 6
#     Node 10, Type 1, BuildingBlock: INOVEN_clean_sbu_0, # of connection points: 6
#     Node 11, Type 1, BuildingBlock: INOVEN_clean_sbu_0, # of connection points: 6
#     Edge 12, Type (0, 1), BuildingBlock: AJUNOK_clean_linker_0, # of connection points: 2
#     Edge 13, Type (0, 1), BuildingBlock: AJUNOK_clean_linker_0, # of connection points: 2
#     Edge 14, Type (0, 1), BuildingBlock: AJUNOK_clean_linker_0, # of connection points: 2
#     Edge 15, Type (0, 1), BuildingBlock: AJUNOK_clean_linker_0, # of connection points: 2
#     Edge 16, Type (0, 1), BuildingBlock: AJUNOK_clean_linker_0, # of connection points: 2
#     Edge 17, Type (0, 1), BuildingBlock: AJUNOK_clean_linker_0, # of connection points: 2
#     Edge 18, Type (0, 1), BuildingBlock: AJUNOK_clean_linker_0, # of connection points: 2
#     Edge 19, Type (0, 1), BuildingBlock: AJUNOK_clean_linker_0, # of connection points: 2
#     Edge 20, Type (0, 1), BuildingBlock: AJUNOK_clean_linker_0, # of connection points: 2
#     Edge 21, Type (0, 1), BuildingBlock: AJUNOK_clean_linker_0, # of connection points: 2
#     Edge 22, Type (0, 1), BuildingBlock: AJUNOK_clean_linker_0, # of connection points: 2
#     Edge 23, Type (0, 1), BuildingBlock: AJUNOK_clean_linker_0, # of connection points: 2
#     Edge 24, Type (0, 1), BuildingBlock: AJUNOK_clean_linker_0, # of connection points: 2
#     Edge 25, Type (0, 1), BuildingBlock: AJUNOK_clean_linker_0, # of connection points: 2
#     Edge 26, Type (0, 1), BuildingBlock: AJUNOK_clean_linker_0, # of connection points: 2
#     Edge 27, Type (0, 1), BuildingBlock: AJUNOK_clean_linker_0, # of connection points: 2
#     Edge 28, Type (0, 1), BuildingBlock: AJUNOK_clean_linker_0, # of connection points: 2
#     Edge 29, Type (0, 1), BuildingBlock: AJUNOK_clean_linker_0, # of connection points: 2
#     Edge 30, Type (0, 1), BuildingBlock: AJUNOK_clean_linker_0, # of connection points: 2
#     Edge 31, Type (0, 1), BuildingBlock: AJUNOK_clean_linker_0, # of connection points: 2
#     Edge 32, Type (0, 1), BuildingBlock: AJUNOK_clean_linker_0, # of connection points: 2
#     Edge 33, Type (0, 1), BuildingBlock: AJUNOK_clean_linker_0, # of connection points: 2
#     Edge 34, Type (0, 1), BuildingBlock: AJUNOK_clean_linker_0, # of connection points: 2
#     Edge 35, Type (0, 1), BuildingBlock: AJUNOK_clean_linker_0, # of connection points: 2
# Relax obj value: 0.349
# Max RMSD: 0.208
# Mean RMSD: 0.160
data_MOF--net-zzz--node1-INOVEN_clean_sbu_0--node2-BETDAH_clean_linker_0--edge1-AJUNOK_clean_linker_0
_symmetry_space_group_name_H-M    P1
_symmetry_Int_Tables_number       1
_symmetry_cell_setting            triclinic
loop_
_symmetry_equiv_pos_as_xyz
'x, y, z'
_cell_length_a     38.086752
_cell_length_b     38.03377
_cell_length_c     10.258919
_cell_angle_alpha  90.11212
_cell_angle_beta   89.605235
_cell_angle_gamma 90.137672
loop_
_atom_site_label
_atom_site_type_symbol
_atom_site_fract_x
_atom_site_fract_y
_atom_site_fract_z
_atom_type_partial_charge
H0 H 0.85033 0.4742 0.42287 0.0
H1 H 0.74705 0.49438 0.28058 0.0
H2 H 0.79407 0.56432 0.56466 0.0
C3 C 0.82652 0.48973 0.42795 0.0
C4 C 0.82566 0.51928 0.50899 0.0
C5 C 0.79806 0.48005 0.34974 0.0
C6 C 0.76837 0.50151 0.34481 0.0
C7 C 0.7666 0.53224 0.42166 0.0
C8 C 0.79538 0.54094 0.50445 0.0
N9 N 0.73644 0.55462 0.41731 0.0
C10 C 0.70855 0.55138 0.32879 0.0
H11 H 0.96159 0.85047 0.41914 0.0
H12 H 0.98312 0.74459 0.29732 0.0
H13 H 0.04953 0.79635 0.57874 0.0
C14 C 0.97622 0.82626 0.42841 0.0
C15 C 1.00524 0.82691 0.51072 0.0
C16 C 0.96925 0.79749 0.34524 0.0
C17 C 0.9887 0.76663 0.36069 0.0
C18 C 1.01776 0.76559 0.44423 0.0
C19 C 1.02641 0.79627 0.51793 0.0
N20 N 0.03969 0.73499 0.44761 0.0
C21 C 0.03569 0.70541 0.36579 0.0
H22 H 0.71838 0.96324 0.45247 0.0
H23 H 0.8189 0.98083 0.26975 0.0
H24 H 0.77691 0.05564 0.54608 0.0
C25 C 0.74261 0.97798 0.44309 0.0
C26 C 0.74485 1.00944 0.51283 0.0
C27 C 0.7677 0.9688 0.34695 0.0
C28 C 0.7989 0.98844 0.33966 0.0
C29 C 0.80266 1.01982 0.41107 0.0
C30 C 0.7751 0.03062 0.49597 0.0
N31 N 0.83246 0.04215 0.39109 0.0
C32 C 0.85821 0.03711 0.29423 0.0
H33 H 0.46832 0.7199 0.43285 0.0
H34 H 0.48851 0.81501 0.22083 0.0
H35 H 0.56702 0.77298 0.47844 0.0
C36 C 0.4848 0.74273 0.41503 0.0
C37 C 0.51828 0.74365 0.47021 0.0
C38 C 0.47407 0.76815 0.3243 0.0
C39 C 0.49651 0.79624 0.29389 0.0
C40 C 0.52989 0.79873 0.35111 0.0
C41 C 0.54082 0.77202 0.43815 0.0
N42 N 0.55351 0.82663 0.3179 0.0
C43 C 0.54705 0.85295 0.22548 0.0
H44 H 0.22608 0.59737 0.18803 0.0
H45 H 0.33006 0.58214 0.33717 0.0
H46 H 0.28196 0.5032 0.09292 0.0
C47 C 0.2504 0.58258 0.18956 0.0
C48 C 0.25094 0.54994 0.12747 0.0
C49 C 0.27861 0.59435 0.26609 0.0
C50 C 0.30884 0.57348 0.27543 0.0
C51 C 0.31069 0.54072 0.21159 0.0
C52 C 0.28142 0.52898 0.13786 0.0
N53 N 0.34065 0.51838 0.22495 0.0
C54 C 0.36901 0.52384 0.30976 0.0
H55 H 0.97815 0.23321 0.21043 0.0
H56 H 1.00128 0.3388 0.32941 0.0
H57 H 0.07768 0.27869 0.10924 0.0
C58 C 0.99533 0.25595 0.20707 0.0
C59 C 0.02776 0.25257 0.14323 0.0
C60 C 0.98517 0.28704 0.2715 0.0
C61 C 1.0089 0.31508 0.27813 0.0
C62 C 0.04275 0.31208 0.22354 0.0
C63 C 0.05194 0.28087 0.15394 0.0
N64 N 0.0679 0.33976 0.23997 0.0
C65 C 0.06379 0.36823 0.32653 0.0
H66 H 0.34125 0.97665 0.16297 0.0
H67 H 0.24132 0.99884 0.33555 0.0
H68 H 0.2868 0.07026 0.05176 0.0
C69 C 0.31782 0.9927 0.16569 0.0
C70 C 0.31716 1.02335 0.09125 0.0
C71 C 0.29043 0.98324 0.25052 0.0
C72 C 0.26165 1.00565 0.26568 0.0
C73 C 0.25985 0.03716 0.1938 0.0
C74 C 0.28784 0.04596 0.10645 0.0
N75 N 0.23069 0.06051 0.20969 0.0
C76 C 0.20385 0.05653 0.30334 0.0
H77 H 0.60239 0.34365 0.14391 0.0
H78 H 0.5826 0.24324 0.32255 0.0
H79 H 0.50364 0.29256 0.08487 0.0
C80 C 0.58622 0.32032 0.15486 0.0
C81 C 0.55279 0.32081 0.10025 0.0
C82 C 0.59719 0.29275 0.23636 0.0
C83 C 0.57453 0.26409 0.25761 0.0
C84 C 0.54083 0.26343 0.20179 0.0
C85 C 0.53002 0.29212 0.12362 0.0
N86 N 0.51677 0.23536 0.22796 0.0
C87 C 0.52159 0.20888 0.32113 0.0
Gd88 Gd 0.05139 0.02873 0.9032 0.0
Gd89 Gd 1.01086 0.05431 0.69444 0.0
C90 C 1.02126 0.97339 0.68858 0.0
C91 C 0.06743 0.98614 0.08635 0.0
C92 C 0.04411 0.95599 0.11257 0.0
C93 C 0.0569 0.92323 0.15137 0.0
C94 C 1.00897 0.95867 0.07373 0.0
C95 C 0.99957 0.89676 0.10554 0.0
C96 C 0.98688 0.92976 0.0714 0.0
C97 C 0.03468 0.89375 0.14837 0.0
C98 C 0.0939 0.04977 0.70394 0.0
C99 C 0.04148 0.11105 0.91009 0.0
C100 C 0.98211 0.09239 0.51725 0.0
C101 C 0.96671 0.12797 0.52005 0.0
C102 C 0.93034 0.13262 0.50415 0.0
C103 C 0.98797 0.15748 0.54185 0.0
C104 C 0.93709 0.19598 0.52706 0.0
C105 C 0.97344 0.19095 0.5445 0.0
C106 C 0.91564 0.16636 0.50754 0.0
C107 C 0.96917 0.03449 0.89848 0.0
O108 O 1.02537 0.98009 0.81343 0.0
O109 O 1.01969 1.0001 0.6074 0.0
O110 O 0.08292 0.98502 0.97256 0.0
O111 O 0.05368 1.01696 0.11032 0.0
O112 O 0.10042 0.0545 0.82677 0.0
O113 O 0.06518 0.03309 0.69131 0.0
O114 O 1.02766 0.10522 0.79402 0.0
O115 O 0.0525 0.08443 0.98121 0.0
O116 O 0.96499 0.06848 0.58305 0.0
O117 O 1.01619 0.08992 0.53081 0.0
O118 O 0.96289 1.02725 0.7776 0.0
O119 O 0.99786 0.05124 0.90643 0.0
H120 H 0.08409 0.92021 0.17935 0.0
H121 H 0.99904 0.98278 0.03516 0.0
H122 H 0.9603 0.93324 0.03738 0.0
H123 H 0.04499 0.86858 0.17889 0.0
H124 H 0.91339 0.11017 0.48718 0.0
H125 H 1.01605 0.15493 0.55492 0.0
H126 H 0.99121 0.21304 0.55453 0.0
H127 H 0.88778 0.16942 0.49057 0.0
Gd128 Gd 0.5385 0.04909 0.89869 0.0
Gd129 Gd 0.52276 1.01417 0.6619 0.0
C130 C 0.60185 0.02959 0.70241 0.0
C131 C 0.56993 0.0586 0.1146 0.0
C132 C 0.60007 0.03649 0.15177 0.0
C133 C 0.63398 0.05073 0.14762 0.0
C134 C 0.59612 0.99971 0.16057 0.0
C135 C 0.6592 0.99183 0.14058 0.0
C136 C 0.62537 0.97769 0.15484 0.0
C137 C 0.66321 0.02871 0.14388 0.0
C138 C 0.52395 0.09625 0.70707 0.0
C139 C 0.45743 0.0375 0.85968 0.0
C140 C 0.49693 0.98917 0.44992 0.0
C141 C 0.46644 0.96618 0.43241 0.0
C142 C 0.45453 0.94481 0.53558 0.0
C143 C 0.44617 0.96943 0.32028 0.0
C144 C 0.40018 0.93399 0.42091 0.0
C145 C 0.4133 0.95337 0.31446 0.0
C146 C 0.42154 0.92871 0.52961 0.0
C147 C 0.53864 0.96851 0.85609 0.0
O148 O 0.59139 1.02795 0.82513 0.0
O149 O 0.57785 0.03132 0.61103 0.0
O150 O 0.5756 0.0791 0.01425 0.0
O151 O 0.5396 0.04249 0.10855 0.0
O152 O 0.51514 0.1001 0.82882 0.0
O153 O 0.54171 0.06842 0.69323 0.0
O154 O 0.46746 1.02371 0.74633 0.0
O155 O 0.48083 0.04949 0.94241 0.0
O156 O 0.5237 0.97501 0.50871 0.0
O157 O 0.4895 1.02069 0.49339 0.0
O158 O 0.55076 0.96609 0.73854 0.0
O159 O 0.51893 0.99503 0.86567 0.0
H160 H 0.63784 0.0789 0.14054 0.0
H161 H 0.57035 0.98766 0.16424 0.0
H162 H 0.62135 0.94958 0.15773 0.0
H163 H 0.68896 0.04079 0.14242 0.0
H164 H 0.46973 0.94236 0.62401 0.0
H165 H 0.45481 0.98605 0.24048 0.0
H166 H 0.39709 0.95831 0.23026 0.0
H167 H 0.41183 0.91403 0.61263 0.0
Gd168 Gd 0.51542 0.54214 0.90033 0.0
Gd169 Gd 0.56702 0.52764 0.71897 0.0
C170 C 0.54232 0.60652 0.71214 0.0
C171 C 0.47389 0.56657 0.0789 0.0
C172 C 0.44983 0.59639 0.08811 0.0
C173 C 0.4372 0.61308 0.97584 0.0
C174 C 0.44317 0.61101 0.21041 0.0
C175 C 0.4163 0.66193 0.10825 0.0
C176 C 0.4264 0.64335 0.22074 0.0
C177 C 0.42037 0.64565 0.98586 0.0
C178 C 0.48634 0.52038 0.67047 0.0
C179 C 0.53842 0.46372 0.90032 0.0
C180 C 0.60971 0.4999 0.551 0.0
C181 C 0.62128 0.46332 0.53261 0.0
C182 C 0.65722 0.45507 0.52535 0.0
C183 C 0.59646 0.43609 0.53044 0.0
C184 C 0.64306 0.39283 0.50883 0.0
C185 C 0.60719 0.4014 0.51836 0.0
C186 C 0.66808 0.42001 0.51296 0.0
C187 C 0.59557 0.55142 0.94549 0.0
O188 O 0.52635 0.5977 0.82254 0.0
O189 O 0.5581 0.58206 0.64247 0.0
O190 O 0.46499 0.54147 0.99889 0.0
O191 O 0.50716 0.57486 0.07058 0.0
O192 O 0.47772 0.50881 0.78455 0.0
O193 O 0.51133 0.54209 0.68285 0.0
O194 O 0.55002 0.47229 0.78284 0.0
O195 O 0.52838 0.48899 0.97919 0.0
O196 O 0.62017 0.51475 0.65838 0.0
O197 O 0.5768 0.50662 0.52567 0.0
O198 O 0.60253 0.56381 0.83082 0.0
O199 O 0.57134 0.52858 0.93658 0.0
H200 H 0.44247 0.60213 0.88027 0.0
H201 H 0.45343 0.59875 0.29733 0.0
H202 H 0.42496 0.65535 0.31638 0.0
H203 H 0.41331 0.65941 0.89751 0.0
H204 H 0.67681 0.47576 0.52854 0.0
H205 H 0.56859 0.44148 0.53728 0.0
H206 H 0.58707 0.38129 0.51169 0.0
H207 H 0.69584 0.41421 0.50479 0.0
Gd208 Gd 0.02824 0.50803 0.9462 0.0
Gd209 Gd 0.04252 0.55994 0.76523 0.0
C210 C 0.96378 0.53521 0.75766 0.0
C211 C 1.00201 0.46852 0.12768 0.0
C212 C 0.96996 0.44726 0.14287 0.0
C213 C 0.9556 0.42834 0.03787 0.0
C214 C 0.9515 0.44894 0.26104 0.0
C215 C 0.90228 0.4181 0.16348 0.0
C216 C 0.91813 0.43422 0.27178 0.0
C217 C 0.92191 0.41374 0.04848 0.0
C218 C 0.05256 0.47858 0.72141 0.0
C219 C 0.10715 0.53127 0.94159 0.0
C220 C 0.0712 0.60246 0.59958 0.0
C221 C 0.10801 0.61363 0.58311 0.0
C222 C 0.11717 0.64944 0.59 0.0
C223 C 0.13455 0.58848 0.56706 0.0
C224 C 0.17867 0.6347 0.55754 0.0
C225 C 0.16936 0.59889 0.55423 0.0
C226 C 0.15229 0.65997 0.57626 0.0
C227 C 1.02211 0.58828 0.99855 0.0
O228 O 0.97313 0.51781 0.86377 0.0
O229 O 0.98752 0.55303 0.69152 0.0
O230 O 1.02522 0.4575 0.04294 0.0
O231 O 0.9971 0.5025 0.12256 0.0
O232 O 0.06279 0.47041 0.83734 0.0
O233 O 0.0301 0.50325 0.72813 0.0
O234 O 0.09809 0.54357 0.82611 0.0
O235 O 0.08222 0.52013 0.02081 0.0
O236 O 0.05604 0.61309 0.70661 0.0
O237 O 0.06394 0.56964 0.57235 0.0
O238 O 1.00826 0.59587 0.88725 0.0
O239 O 0.04375 0.56344 0.98212 0.0
H240 H 0.96945 0.42666 0.9455 0.0
H241 H 0.96199 0.46356 0.34277 0.0
H242 H 0.90346 0.43849 0.36127 0.0
H243 H 0.91027 0.40109 0.96469 0.0
H244 H 0.09707 0.66924 0.60376 0.0
H245 H 0.12851 0.56065 0.56313 0.0
H246 H 0.18893 0.57877 0.53645 0.0
H247 H 0.15875 0.68771 0.57773 0.0
C248 C 0.14246 0.04218 0.37503 0.0
C249 C 0.17637 0.05472 0.40379 0.0
C250 C 0.11576 0.04097 0.47158 0.0
C251 C 0.12193 0.05237 0.60052 0.0
H252 H 0.13649 0.03321 0.27735 0.0
H253 H 0.09015 0.03088 0.44502 0.0
S254 S 0.20659 0.08789 0.72371 0.0
N255 N 0.21468 0.07887 0.56888 0.0
N256 N 0.16511 0.07702 0.74934 0.0
C257 C 0.15587 0.06522 0.62925 0.0
C258 C 0.1829 0.06625 0.53123 0.0
C259 C 0.53716 0.14794 0.38964 0.0
C260 C 0.52305 0.18117 0.41955 0.0
C261 C 0.53727 0.12061 0.48268 0.0
C262 C 0.52311 0.12543 0.60906 0.0
H263 H 0.54802 0.14293 0.2935 0.0
H264 H 0.54846 0.09549 0.45513 0.0
S265 S 0.48304 0.20797 0.73442 0.0
N266 N 0.49473 0.21754 0.58322 0.0
N267 N 0.49461 0.16663 0.75744 0.0
C268 C 0.50893 0.15872 0.63932 0.0
C269 C 0.50899 0.18646 0.54479 0.0
C270 C 0.42005 0.49396 0.4106 0.0
C271 C 0.39971 0.52454 0.39521 0.0
C272 C 0.44887 0.49311 0.49637 0.0
C273 C 0.45899 0.52307 0.56765 0.0
H274 H 0.41321 0.47022 0.35794 0.0
H275 H 0.46304 0.46867 0.50841 0.0
S276 S 0.41405 0.6095 0.56514 0.0
N277 N 0.3913 0.58528 0.46157 0.0
N278 N 0.44603 0.58408 0.61815 0.0
C279 C 0.43921 0.55397 0.55146 0.0
C280 C 0.40944 0.55461 0.46636 0.0
C281 C 0.03313 0.42052 0.42307 0.0
C282 C 0.06188 0.39731 0.42043 0.0
C283 C 0.03077 0.44805 0.51602 0.0
C284 C 0.05696 0.45301 0.61093 0.0
H285 H 1.01207 0.41685 0.35437 0.0
H286 H 1.00772 0.46467 0.51667 0.0
S287 S 0.13826 0.3999 0.64169 0.0
N288 N 0.11752 0.38185 0.51743 0.0
N289 N 0.11321 0.43269 0.69202 0.0
C290 C 0.08612 0.43019 0.60693 0.0
C291 C 0.08854 0.40256 0.512 0.0
C292 C 0.87827 0.03672 0.06204 0.0
C293 C 0.88601 0.03446 0.19562 0.0
C294 C 0.90522 0.0362 0.96669 0.0
C295 C 0.94102 0.03474 1.00151 0.0
H296 H 0.85124 0.03895 0.03093 0.0
H297 H 0.89795 0.03771 0.86498 0.0
S298 S 0.9745 1.02408 0.33684 0.0
N299 N 0.93147 1.02612 0.35648 0.0
N300 N 0.98202 0.03023 0.1803 0.0
C301 C 0.94878 0.03279 0.13516 0.0
C302 C 0.92133 0.03127 0.23135 0.0
C303 C 0.57404 0.89457 0.06779 0.0
C304 C 0.54385 0.8814 0.13073 0.0
C305 C 0.57198 0.92246 0.97789 0.0
C306 C 0.53983 0.93896 0.95081 0.0
H307 H 0.59951 0.88327 0.08822 0.0
H308 H 0.59588 0.9317 0.9312 0.0
S309 S 0.45249 0.91007 0.07119 0.0
N310 N 0.48033 0.88402 0.14702 0.0
N311 N 0.47662 0.93708 0.98172 0.0
C312 C 0.50932 0.9253 0.01007 0.0
C313 C 0.51131 0.89639 0.09937 0.0
C314 C 0.65337 0.5255 0.23583 0.0
C315 C 0.67939 0.5519 0.23605 0.0
C316 C 0.62534 0.52607 0.14581 0.0
C317 C 0.62248 0.55298 0.05178 0.0
H318 H 0.65492 0.50401 0.30444 0.0
H319 H 0.60642 0.50476 0.1475 0.0
S320 S 0.68319 0.62908 0.01668 0.0
N321 N 0.69976 0.60622 0.13828 0.0
N322 N 0.64785 0.6074 0.96955 0.0
C323 C 0.64811 0.57983 0.05361 0.0
C324 C 0.67636 0.57925 0.14534 0.0
C325 C 1.00016 0.66675 0.21921 0.0
C326 C 0.03234 0.67468 0.27943 0.0
C327 C 0.99688 0.63821 0.13163 0.0
C328 C 1.02541 0.61585 0.10276 0.0
H329 H 0.97739 0.68303 0.23806 0.0
H330 H 0.97181 0.6338 0.08502 0.0
S331 S 0.11573 0.62586 0.23264 0.0
N332 N 0.09359 0.65848 0.30078 0.0
N333 N 0.08722 0.60423 0.14192 0.0
C334 C 0.0576 0.62319 0.16458 0.0
C335 C 0.06109 0.65272 0.2513 0.0
C336 C 0.92414 0.26636 0.30169 0.0
C337 C 0.95233 0.28642 0.35067 0.0
C338 C 0.91077 0.23839 0.376 0.0
C339 C 0.92421 0.23215 0.50127 0.0
H340 H 0.91887 0.26639 0.198 0.0
H341 H 0.89591 0.21823 0.32587 0.0
S342 S 0.97498 0.29533 0.6993 0.0
N343 N 0.97731 0.31079 0.5491 0.0
N344 N 0.9494 0.26026 0.69187 0.0
C345 C 0.94087 0.26051 0.56364 0.0
C346 C 0.95581 0.28783 0.48667 0.0
C347 C 0.30979 0.96398 0.46265 0.0
C348 C 0.29728 0.95366 0.33999 0.0
C349 C 0.34253 0.95202 0.50467 0.0
C350 C 0.36196 0.92808 0.42854 0.0
H351 H 0.29882 0.98693 0.51054 0.0
H352 H 0.35509 0.96642 0.58242 0.0
S353 S 0.33055 0.88031 0.13794 0.0
N354 N 0.29891 0.90856 0.17259 0.0
N355 N 0.36046 0.88556 0.2523 0.0
C356 C 0.34478 0.91067 0.32671 0.0
C357 C 0.31146 0.92294 0.28431 0.0
C358 C 0.6202 0.3009 0.45821 0.0
C359 C 0.62748 0.29965 0.3236 0.0
C360 C 0.63289 0.32885 0.53357 0.0
C361 C 0.65235 0.35611 0.47438 0.0
H362 H 0.59968 0.28461 0.5001 0.0
H363 H 0.62186 0.33258 0.63029 0.0
S364 S 0.6943 0.35236 0.14803 0.0
N365 N 0.66824 0.31759 0.15312 0.0
N366 N 0.69032 0.37168 0.29172 0.0
C367 C 0.66768 0.34927 0.3521 0.0
C368 C 0.65568 0.32012 0.27709 0.0
C369 C 0.27068 0.61363 0.49297 0.0
C370 C 0.27144 0.62312 0.36051 0.0
C371 C 0.24264 0.62423 0.57266 0.0
C372 C 0.21508 0.64429 0.52055 0.0
H373 H 0.28756 0.59291 0.52848 0.0
H374 H 0.23934 0.61153 0.66649 0.0
S375 S 0.21616 0.69024 0.20285 0.0
N376 N 0.2516 0.66528 0.2 0.0
N377 N 0.19774 0.684 0.34722 0.0
C378 C 0.22103 0.66138 0.40124 0.0
C379 C 0.25007 0.65124 0.32161 0.0
C380 C 0.97557 0.80188 0.11266 0.0
C381 C 0.95172 0.80433 0.21792 0.0
C382 C 0.98989 0.833 0.06239 0.0
C383 C 0.97622 0.86563 0.10253 0.0
H384 H 0.99 0.77779 0.0954 0.0
H385 H 1.01385 0.83168 1.00502 0.0
S386 S 0.89173 0.87829 0.27892 0.0
N387 N 0.89959 0.83565 0.28803 0.0
N388 N 0.92442 0.89519 0.19259 0.0
C389 C 0.94293 0.86566 0.16381 0.0
C390 C 0.92928 0.8335 0.21443 0.0
C391 C 0.72613 0.92621 0.25256 0.0
C392 C 0.7556 0.94803 0.23124 0.0
C393 C 0.69302 0.9385 0.21339 0.0
C394 C 0.69066 0.96871 0.13405 0.0
H395 H 0.72685 0.90687 0.32987 0.0
H396 H 0.66997 0.92721 0.25932 0.0
S397 S 0.76502 1.00745 0.94818 0.0
N398 N 0.78354 0.98154 0.05684 0.0
N399 N 0.72223 1.00347 0.97152 0.0
C400 C 0.72156 0.97967 0.07002 0.0
C401 C 0.75458 0.96767 0.11542 0.0
C402 C 0.45268 0.75033 0.10891 0.0
C403 C 0.44429 0.75904 0.23866 0.0
C404 C 0.43678 0.72133 0.04923 0.0
C405 C 0.4123 0.70067 0.11882 0.0
H406 H 0.47572 0.76155 0.0623 0.0
H407 H 0.44848 0.71168 0.95951 0.0
S408 S 0.36906 0.7248 0.43011 0.0
N409 N 0.40093 0.754 0.41222 0.0
N410 N 0.37035 0.69979 0.29824 0.0
C411 C 0.39713 0.71534 0.23166 0.0
C412 C 0.41354 0.74463 0.29297 0.0
C413 C 0.81579 0.4579 0.13672 0.0
C414 C 0.80336 0.44968 0.26208 0.0
C415 C 0.84595 0.44136 0.08781 0.0
C416 C 0.86352 0.41594 0.16253 0.0
H417 H 0.80698 0.48167 0.08897 0.0
H418 H 0.85882 0.45321 1.00451 0.0
S419 S 0.83046 0.37439 0.46471 0.0
N420 N 0.80222 0.40624 0.43479 0.0
N421 N 0.85909 0.37504 0.34297 0.0
C422 C 0.84569 0.40149 0.26987 0.0
C423 C 0.81492 0.41823 0.31903 0.0
C424 C 0.06392 0.19709 0.09505 0.0
C425 C 0.03455 0.21863 0.06953 0.0
C426 C 0.0665 0.16236 0.0439 0.0
C427 C 0.04002 0.14793 0.96393 0.0
H428 H 0.08431 0.20654 0.15936 0.0
H429 H 0.08923 0.14666 0.0679 0.0
S430 S 0.95691 0.19222 0.87427 0.0
N431 N 0.97841 0.22211 0.95893 0.0
N432 N 0.98283 0.15762 0.86811 0.0
C433 C 1.01087 0.16935 0.93721 0.0
C434 C 1.0083 0.20437 0.98817 0.0
C435 C 0.36934 0.06134 0.02352 0.0
C436 C 0.34902 0.03063 1.00668 0.0
C437 C 0.40391 0.06402 0.97215 0.0
C438 C 0.41948 0.03629 0.90041 0.0
H439 H 0.35936 0.08254 0.08376 0.0
H440 H 0.41897 0.0876 0.99203 0.0
S441 S 0.37842 0.94965 0.83522 0.0
N442 N 0.34753 0.972 0.91204 0.0
N443 N 0.41205 0.97682 0.82005 0.0
C444 C 0.39908 1.006 0.87972 0.0
C445 C 0.36406 1.0033 0.93118 0.0
C446 C 0.55504 0.36415 0.91473 0.0
C447 C 0.54155 0.35445 0.03784 0.0
C448 C 0.55274 0.39907 0.86885 0.0
C449 C 0.53761 0.42604 0.94533 0.0
H450 H 0.56889 0.34491 0.85594 0.0
H451 H 0.56425 0.40517 0.77476 0.0
S452 S 0.49856 0.41407 0.27604 0.0
N453 N 0.5123 0.37442 0.23473 0.0
N454 N 0.50806 0.43968 0.1508 0.0
C455 C 0.52324 0.4163 0.06762 0.0
C456 C 0.52527 0.3807 0.11316 0.0
C457 C 0.20706 0.54722 0.94404 0.0
C458 C 0.21695 0.53737 0.0709 0.0
C459 C 0.17193 0.54405 0.90146 0.0
C460 C 0.14496 0.53149 0.98469 0.0
H461 H 0.2263 0.55901 0.87916 0.0
H462 H 0.16572 0.55269 0.8039 0.0
S463 S 0.15736 0.50284 0.32804 0.0
N464 N 0.19705 0.51466 0.27915 0.0
N465 N 0.13154 0.50873 0.20134 0.0
C466 C 0.15489 0.52087 0.11114 0.0
C467 C 0.19062 0.52387 0.15364 0.0
C468 C 0.04004 0.88395 0.52423 0.0
C469 C 1.01336 0.86182 0.5746 0.0
C470 C 0.04214 0.92011 0.55853 0.0
C471 C 1.0176 0.93577 0.64449 0.0
H472 H 0.05854 0.87361 0.45335 0.0
H473 H 0.06312 0.93593 0.5173 0.0
S474 S 0.94101 0.89051 0.79411 0.0
N475 N 0.96098 0.85926 0.71002 0.0
N476 N 0.9649 0.92641 0.77345 0.0
C477 C 0.99093 0.91396 0.69509 0.0
C478 C 0.98878 0.87737 0.66034 0.0
C479 C 0.69719 0.9989 0.67988 0.0
C480 C 0.71213 1.02091 0.58356 0.0
C481 C 0.66216 1.00307 0.72307 0.0
C482 C 0.64002 0.02843 0.66736 0.0
H483 H 0.71226 0.9771 0.71763 0.0
H484 H 0.65179 0.98497 0.79523 0.0
S485 S 0.66646 0.09432 0.41907 0.0
N486 N 0.70227 0.07066 0.44081 0.0
N487 N 0.63625 0.07752 0.5173 0.0
C488 C 0.65482 0.05132 0.57418 0.0
C489 C 0.69083 0.0478 0.53342 0.0
C490 C 0.50941 0.70038 0.65398 0.0
C491 C 0.52972 0.71213 0.54693 0.0
C492 C 0.51469 0.66702 0.71048 0.0
C493 C 0.5401 0.6435 0.6609 0.0
H494 H 0.48827 0.71664 0.69124 0.0
H495 H 0.49759 0.65907 0.78997 0.0
S496 S 0.60098 0.66193 0.38403 0.0
N497 N 0.577 0.69793 0.39651 0.0
N498 N 0.58692 0.63546 0.50076 0.0
C499 C 0.56137 0.65546 0.55646 0.0
C500 C 0.55621 0.68962 0.50018 0.0
C501 C 0.87668 0.55769 0.58625 0.0
C502 C 0.85752 0.52594 0.5932 0.0
C503 C 0.91062 0.56088 0.64162 0.0
C504 C 0.92673 0.53262 0.7077 0.0
H505 H 0.86622 0.57961 0.5318 0.0
H506 H 0.92465 0.5855 0.63038 0.0
S507 S 0.8885 0.4435 0.7476 0.0
N508 N 0.85761 0.4658 0.67264 0.0
N509 N 0.9209 0.47158 0.77209 0.0
C510 C 0.90746 0.50114 0.71773 0.0
C511 C 0.87311 0.49792 0.66211 0.0
loop_
_geom_bond_atom_site_label_1
_geom_bond_atom_site_label_2
_geom_bond_distance
_geom_bond_site_symmetry_2
_ccdc_geom_bond_type
H0 C3 0.929 . S
H1 C6 0.929 . S
H2 C8 0.930 . S
C3 H0 0.929 . S
C3 C4 1.398 . S
C3 C5 1.396 . S
C4 C3 1.398 . S
C4 C8 1.407 . S
C5 C3 1.396 . S
C5 C6 1.394 . S
C6 H1 0.929 . S
C6 C5 1.394 . S
C6 C7 1.382 . S
C7 C6 1.382 . S
C7 C8 1.392 . S
C7 N9 1.420 . S
C8 H2 0.930 . S
C8 C4 1.407 . S
C8 C7 1.392 . S
N9 C7 1.420 . S
N9 C10 1.244 . S
C10 N9 1.244 . S
H11 C14 0.929 . S
H12 C17 0.929 . S
H13 C19 0.930 . S
C14 H11 0.929 . S
C14 C15 1.395 1_655 S
C14 C16 1.394 1_655 S
C15 C14 1.395 1_455 S
C15 C19 1.414 . S
C16 C14 1.394 1_455 S
C16 C17 1.397 . S
C17 H12 0.929 . S
C17 C16 1.397 . S
C17 C18 1.382 . S
C18 C17 1.382 . S
C18 C19 1.392 . S
C18 N20 1.420 . S
C19 H13 0.930 . S
C19 C15 1.414 . S
C19 C18 1.392 . S
N20 C18 1.420 . S
N20 C21 1.232 1_455 S
C21 N20 1.232 1_655 S
H22 C25 0.929 . S
H23 C28 0.929 . S
H24 C30 0.930 . S
C25 H22 0.929 . S
C25 C26 1.395 1_565 S
C25 C27 1.394 1_565 S
C26 C25 1.395 1_545 S
C26 C30 1.414 . S
C27 C25 1.394 1_545 S
C27 C28 1.397 . S
C28 H23 0.929 . S
C28 C27 1.397 . S
C28 C29 1.382 . S
C29 C28 1.382 . S
C29 C30 1.392 . S
C29 N31 1.420 . S
C30 H24 0.930 . S
C30 C26 1.414 . S
C30 C29 1.392 . S
N31 C29 1.420 . S
N31 C32 1.232 1_545 S
C32 N31 1.232 1_565 S
H33 C36 0.929 . S
H34 C39 0.929 . S
H35 C41 0.930 . S
C36 H33 0.929 . S
C36 C37 1.398 . S
C36 C38 1.396 . S
C37 C36 1.398 . S
C37 C41 1.407 . S
C38 C36 1.396 . S
C38 C39 1.394 . S
C39 H34 0.929 . S
C39 C38 1.394 . S
C39 C40 1.382 . S
C40 C39 1.382 . S
C40 C41 1.392 . S
C40 N42 1.420 . S
C41 H35 0.930 . S
C41 C37 1.407 . S
C41 C40 1.392 . S
N42 C40 1.420 . S
N42 C43 1.244 . S
C43 N42 1.244 . S
H44 C47 0.929 1_556 S
H45 C50 0.929 . S
H46 C52 0.930 . S
C47 H44 0.929 1_554 S
C47 C48 1.398 1_554 S
C47 C49 1.396 . S
C48 C47 1.398 1_556 S
C48 C52 1.407 . S
C49 C47 1.396 . S
C49 C50 1.394 . S
C50 H45 0.929 . S
C50 C49 1.394 . S
C50 C51 1.382 . S
C51 C50 1.382 . S
C51 C52 1.392 1_554 S
C51 N53 1.420 . S
C52 H46 0.930 . S
C52 C48 1.407 . S
C52 C51 1.392 1_556 S
N53 C51 1.420 . S
N53 C54 1.244 . S
C54 N53 1.244 . S
H55 C58 0.929 1_556 S
H56 C61 0.929 . S
H57 C63 0.930 . S
C58 H55 0.929 1_554 S
C58 C59 1.398 1_654 S
C58 C60 1.394 1_655 S
C59 C58 1.398 1_456 S
C59 C63 1.407 . S
C60 C58 1.394 1_455 S
C60 C61 1.398 . S
C61 H56 0.929 . S
C61 C60 1.398 . S
C61 C62 1.382 . S
C62 C61 1.382 . S
C62 C63 1.392 1_554 S
C62 N64 1.420 . S
C63 H57 0.930 . S
C63 C59 1.407 . S
C63 C62 1.392 1_556 S
N64 C62 1.420 . S
N64 C65 1.235 1_455 S
C65 N64 1.235 1_655 S
H66 C69 0.929 1_556 S
H67 C72 0.929 . S
H68 C74 0.930 . S
C69 H66 0.929 1_554 S
C69 C70 1.398 1_564 S
C69 C71 1.394 1_565 S
C70 C69 1.398 1_546 S
C70 C74 1.407 . S
C71 C69 1.394 1_545 S
C71 C72 1.398 . S
C72 H67 0.929 . S
C72 C71 1.398 . S
C72 C73 1.382 . S
C73 C72 1.382 . S
C73 C74 1.392 1_554 S
C73 N75 1.420 . S
C74 H68 0.930 . S
C74 C70 1.407 . S
C74 C73 1.392 1_556 S
N75 C73 1.420 . S
N75 C76 1.235 1_545 S
C76 N75 1.235 1_565 S
H77 C80 0.929 . S
H78 C83 0.929 . S
H79 C85 0.930 . S
C80 H77 0.929 . S
C80 C81 1.398 . S
C80 C82 1.396 1_556 S
C81 C80 1.398 . S
C81 C85 1.407 . S
C82 C80 1.396 1_554 S
C82 C83 1.394 . S
C83 H78 0.929 . S
C83 C82 1.394 . S
C83 C84 1.382 . S
C84 C83 1.382 . S
C84 C85 1.392 1_554 S
C84 N86 1.420 . S
C85 H79 0.930 . S
C85 C81 1.407 . S
C85 C84 1.392 1_556 S
N86 C84 1.420 . S
N86 C87 1.244 . S
C87 N86 1.244 . S
Gd88 C91 2.818 1_556 S
Gd88 O108 2.377 . S
Gd88 O110 2.448 1_556 S
Gd88 O111 2.506 1_556 S
Gd88 O112 2.435 . S
Gd88 O113 2.717 1_565 S
Gd88 O115 2.395 1_565 S
Gd88 O119 2.327 1_455 S
Gd89 C100 2.818 . S
Gd89 O109 2.395 1_545 S
Gd89 O113 2.327 1_655 S
Gd89 O114 2.377 . S
Gd89 O116 2.448 . S
Gd89 O117 2.506 . S
Gd89 O118 2.435 . S
Gd89 O119 2.717 1_545 S
C90 O108 1.240 1_655 S
C90 O109 1.240 . S
C91 Gd88 2.818 1_554 S
C91 C92 1.510 . S
C91 O110 1.249 . S
C91 O111 1.252 . S
C92 C91 1.510 . S
C92 C93 1.404 . S
C92 C94 1.352 . S
C93 C92 1.404 . S
C93 C97 1.389 . S
C93 H120 0.930 . S
C94 C92 1.352 . S
C94 C96 1.374 . S
C94 H121 0.931 1_455 S
C95 C96 1.359 . S
C95 C97 1.364 . S
C96 C94 1.374 . S
C96 C95 1.359 . S
C96 H122 0.931 1_455 S
C97 C93 1.389 . S
C97 C95 1.364 . S
C97 H123 0.931 . S
C98 O112 1.256 . S
C98 O113 1.257 1_565 S
C99 O114 1.240 1_455 S
C99 O115 1.240 . S
C100 Gd89 2.818 . S
C100 C101 1.510 . S
C100 O116 1.249 . S
C100 O117 1.252 . S
C101 C100 1.510 . S
C101 C102 1.404 . S
C101 C103 1.352 . S
C102 C101 1.404 . S
C102 C106 1.389 . S
C102 H124 0.930 . S
C103 C101 1.352 . S
C103 C105 1.374 . S
C103 H125 0.931 1_655 S
C104 C105 1.359 . S
C104 C106 1.364 . S
C105 C103 1.374 . S
C105 C104 1.359 . S
C105 H126 0.931 1_655 S
C106 C102 1.389 . S
C106 C104 1.364 . S
C106 H127 0.931 . S
C107 O118 1.256 . S
C107 O119 1.257 1_545 S
O108 Gd88 2.377 . S
O108 C90 1.240 1_455 S
O109 Gd89 2.395 1_565 S
O109 C90 1.240 . S
O110 Gd88 2.448 1_554 S
O110 C91 1.249 . S
O111 Gd88 2.506 1_554 S
O111 C91 1.252 . S
O112 Gd88 2.435 . S
O112 C98 1.256 . S
O113 Gd88 2.717 1_545 S
O113 Gd89 2.327 1_455 S
O113 C98 1.257 1_545 S
O114 Gd89 2.377 . S
O114 C99 1.240 1_655 S
O115 Gd88 2.395 1_545 S
O115 C99 1.240 . S
O116 Gd89 2.448 . S
O116 C100 1.249 . S
O117 Gd89 2.506 . S
O117 C100 1.252 . S
O118 Gd89 2.435 . S
O118 C107 1.256 . S
O119 Gd88 2.327 1_655 S
O119 Gd89 2.717 1_565 S
O119 C107 1.257 1_565 S
H120 C93 0.930 . S
H121 C94 0.931 1_655 S
H122 C96 0.931 1_655 S
H123 C97 0.931 . S
H124 C102 0.930 . S
H125 C103 0.931 1_455 S
H126 C105 0.931 1_455 S
H127 C106 0.931 . S
Gd128 C131 2.818 1_556 S
Gd128 O148 2.377 . S
Gd128 O150 2.448 1_556 S
Gd128 O151 2.506 1_556 S
Gd128 O152 2.435 . S
Gd128 O153 2.717 . S
Gd128 O155 2.395 . S
Gd128 O159 2.327 1_545 S
Gd129 C140 2.818 . S
Gd129 O149 2.395 . S
Gd129 O153 2.327 1_565 S
Gd129 O154 2.377 . S
Gd129 O156 2.448 . S
Gd129 O157 2.506 . S
Gd129 O158 2.435 . S
Gd129 O159 2.717 . S
C130 O148 1.240 1_565 S
C130 O149 1.240 . S
C131 Gd128 2.818 1_554 S
C131 C132 1.510 . S
C131 O150 1.249 . S
C131 O151 1.252 . S
C132 C131 1.510 . S
C132 C133 1.404 . S
C132 C134 1.352 . S
C133 C132 1.404 . S
C133 C137 1.389 . S
C133 H160 0.930 . S
C134 C132 1.352 . S
C134 C136 1.374 . S
C134 H161 0.931 1_545 S
C135 C136 1.359 . S
C135 C137 1.364 . S
C136 C134 1.374 . S
C136 C135 1.359 . S
C136 H162 0.931 1_545 S
C137 C133 1.389 . S
C137 C135 1.364 . S
C137 H163 0.931 . S
C138 O152 1.256 . S
C138 O153 1.257 . S
C139 O154 1.240 1_545 S
C139 O155 1.240 . S
C140 Gd129 2.818 . S
C140 C141 1.510 . S
C140 O156 1.249 . S
C140 O157 1.252 . S
C141 C140 1.510 . S
C141 C142 1.404 . S
C141 C143 1.352 . S
C142 C141 1.404 . S
C142 C146 1.389 . S
C142 H164 0.930 . S
C143 C141 1.352 . S
C143 C145 1.374 . S
C143 H165 0.931 1_565 S
C144 C145 1.359 . S
C144 C146 1.364 . S
C145 C143 1.374 . S
C145 C144 1.359 . S
C145 H166 0.931 1_565 S
C146 C142 1.389 . S
C146 C144 1.364 . S
C146 H167 0.931 . S
C147 O158 1.256 . S
C147 O159 1.257 . S
O148 Gd128 2.377 . S
O148 C130 1.240 1_545 S
O149 Gd129 2.395 . S
O149 C130 1.240 . S
O150 Gd128 2.448 1_554 S
O150 C131 1.249 . S
O151 Gd128 2.506 1_554 S
O151 C131 1.252 . S
O152 Gd128 2.435 . S
O152 C138 1.256 . S
O153 Gd128 2.717 . S
O153 Gd129 2.327 1_545 S
O153 C138 1.257 . S
O154 Gd129 2.377 . S
O154 C139 1.240 1_565 S
O155 Gd128 2.395 . S
O155 C139 1.240 . S
O156 Gd129 2.448 . S
O156 C140 1.249 . S
O157 Gd129 2.506 . S
O157 C140 1.252 . S
O158 Gd129 2.435 . S
O158 C147 1.256 . S
O159 Gd128 2.327 1_565 S
O159 Gd129 2.717 . S
O159 C147 1.257 . S
H160 C133 0.930 . S
H161 C134 0.931 1_565 S
H162 C136 0.931 1_565 S
H163 C137 0.931 . S
H164 C142 0.930 . S
H165 C143 0.931 1_545 S
H166 C145 0.931 1_545 S
H167 C146 0.931 . S
Gd168 C171 2.818 1_556 S
Gd168 O188 2.377 . S
Gd168 O190 2.448 1_556 S
Gd168 O191 2.506 1_556 S
Gd168 O192 2.435 . S
Gd168 O193 2.717 . S
Gd168 O195 2.395 . S
Gd168 O199 2.327 . S
Gd169 C180 2.818 . S
Gd169 O189 2.395 . S
Gd169 O193 2.327 . S
Gd169 O194 2.377 . S
Gd169 O196 2.448 . S
Gd169 O197 2.506 . S
Gd169 O198 2.435 . S
Gd169 O199 2.717 . S
C170 O188 1.240 . S
C170 O189 1.240 . S
C171 Gd168 2.818 1_554 S
C171 C172 1.510 . S
C171 O190 1.249 . S
C171 O191 1.252 . S
C172 C171 1.510 . S
C172 C173 1.404 . S
C172 C174 1.352 . S
C173 C172 1.404 . S
C173 C177 1.389 . S
C173 H200 0.930 . S
C174 C172 1.352 . S
C174 C176 1.374 . S
C174 H201 0.931 . S
C175 C176 1.359 . S
C175 C177 1.364 . S
C176 C174 1.374 . S
C176 C175 1.359 . S
C176 H202 0.931 . S
C177 C173 1.389 . S
C177 C175 1.364 . S
C177 H203 0.931 . S
C178 O192 1.256 . S
C178 O193 1.257 . S
C179 O194 1.240 . S
C179 O195 1.240 . S
C180 Gd169 2.818 . S
C180 C181 1.510 . S
C180 O196 1.249 . S
C180 O197 1.252 . S
C181 C180 1.510 . S
C181 C182 1.404 . S
C181 C183 1.352 . S
C182 C181 1.404 . S
C182 C186 1.389 . S
C182 H204 0.930 . S
C183 C181 1.352 . S
C183 C185 1.374 . S
C183 H205 0.931 . S
C184 C185 1.359 . S
C184 C186 1.364 . S
C185 C183 1.374 . S
C185 C184 1.359 . S
C185 H206 0.931 . S
C186 C182 1.389 . S
C186 C184 1.364 . S
C186 H207 0.931 . S
C187 O198 1.256 . S
C187 O199 1.257 . S
O188 Gd168 2.377 . S
O188 C170 1.240 . S
O189 Gd169 2.395 . S
O189 C170 1.240 . S
O190 Gd168 2.448 1_554 S
O190 C171 1.249 . S
O191 Gd168 2.506 1_554 S
O191 C171 1.252 . S
O192 Gd168 2.435 . S
O192 C178 1.256 . S
O193 Gd168 2.717 . S
O193 Gd169 2.327 . S
O193 C178 1.257 . S
O194 Gd169 2.377 . S
O194 C179 1.240 . S
O195 Gd168 2.395 . S
O195 C179 1.240 . S
O196 Gd169 2.448 . S
O196 C180 1.249 . S
O197 Gd169 2.506 . S
O197 C180 1.252 . S
O198 Gd169 2.435 . S
O198 C187 1.256 . S
O199 Gd168 2.327 . S
O199 Gd169 2.717 . S
O199 C187 1.257 . S
H200 C173 0.930 . S
H201 C174 0.931 . S
H202 C176 0.931 . S
H203 C177 0.931 . S
H204 C182 0.930 . S
H205 C183 0.931 . S
H206 C185 0.931 . S
H207 C186 0.931 . S
Gd208 C211 2.818 1_556 S
Gd208 O228 2.377 . S
Gd208 O230 2.448 1_556 S
Gd208 O231 2.506 1_556 S
Gd208 O232 2.435 . S
Gd208 O233 2.717 1_655 S
Gd208 O235 2.395 1_655 S
Gd208 O239 2.327 . S
Gd209 C220 2.818 . S
Gd209 O229 2.395 1_455 S
Gd209 O233 2.327 . S
Gd209 O234 2.377 . S
Gd209 O236 2.448 . S
Gd209 O237 2.506 . S
Gd209 O238 2.435 . S
Gd209 O239 2.717 1_455 S
C210 O228 1.240 . S
C210 O229 1.240 . S
C211 Gd208 2.818 1_554 S
C211 C212 1.510 . S
C211 O230 1.249 . S
C211 O231 1.252 . S
C212 C211 1.510 . S
C212 C213 1.404 . S
C212 C214 1.352 . S
C213 C212 1.404 . S
C213 C217 1.389 . S
C213 H240 0.930 . S
C214 C212 1.352 . S
C214 C216 1.374 . S
C214 H241 0.931 . S
C215 C216 1.359 . S
C215 C217 1.364 . S
C216 C214 1.374 . S
C216 C215 1.359 . S
C216 H242 0.931 . S
C217 C213 1.389 . S
C217 C215 1.364 . S
C217 H243 0.931 . S
C218 O232 1.271 . S
C218 O233 1.250 1_655 S
C219 O234 1.240 . S
C219 O235 1.240 . S
C220 Gd209 2.818 . S
C220 C221 1.510 . S
C220 O236 1.249 . S
C220 O237 1.252 . S
C221 C220 1.510 . S
C221 C222 1.404 . S
C221 C223 1.352 . S
C222 C221 1.404 . S
C222 C226 1.389 . S
C222 H244 0.930 . S
C223 C221 1.352 . S
C223 C225 1.374 . S
C223 H245 0.931 . S
C224 C225 1.359 . S
C224 C226 1.364 . S
C225 C223 1.374 . S
C225 C224 1.359 . S
C225 H246 0.931 . S
C226 C222 1.389 . S
C226 C224 1.364 . S
C226 H247 0.931 . S
C227 O238 1.256 . S
C227 O239 1.257 1_455 S
O228 Gd208 2.377 . S
O228 C210 1.240 . S
O229 Gd209 2.395 1_655 S
O229 C210 1.240 . S
O230 Gd208 2.448 1_554 S
O230 C211 1.249 . S
O231 Gd208 2.506 1_554 S
O231 C211 1.252 . S
O232 Gd208 2.435 . S
O232 C218 1.271 . S
O233 Gd208 2.717 1_455 S
O233 Gd209 2.327 . S
O233 C218 1.250 1_455 S
O234 Gd209 2.377 . S
O234 C219 1.240 . S
O235 Gd208 2.395 1_455 S
O235 C219 1.240 . S
O236 Gd209 2.448 . S
O236 C220 1.249 . S
O237 Gd209 2.506 . S
O237 C220 1.252 . S
O238 Gd209 2.435 . S
O238 C227 1.256 . S
O239 Gd208 2.327 . S
O239 Gd209 2.717 1_655 S
O239 C227 1.257 1_655 S
H240 C213 0.930 . S
H241 C214 0.931 . S
H242 C216 0.931 . S
H243 C217 0.931 . S
H244 C222 0.930 . S
H245 C223 0.931 . S
H246 C225 0.931 . S
H247 C226 0.931 . S
C248 C249 1.369 1_565 S
C248 C250 1.419 . S
C248 H252 0.930 . S
C249 C248 1.369 1_545 S
C249 C258 1.429 . S
C250 C248 1.419 . S
C250 C251 1.363 1_565 S
C250 H253 0.929 . S
C251 C250 1.363 1_545 S
C251 C257 1.428 . S
H252 C248 0.930 . S
H253 C250 0.929 . S
S254 N255 1.613 . S
S254 N256 1.610 . S
N255 S254 1.613 . S
N255 C258 1.350 . S
N256 S254 1.610 . S
N256 C257 1.351 . S
C257 C251 1.428 . S
C257 N256 1.351 . S
C257 C258 1.434 . S
C258 C249 1.429 . S
C258 N255 1.350 . S
C258 C257 1.434 . S
C259 C260 1.369 . S
C259 C261 1.419 . S
C259 H263 0.930 . S
C260 C259 1.369 . S
C260 C269 1.429 . S
C261 C259 1.419 . S
C261 C262 1.363 . S
C261 H264 0.929 . S
C262 C261 1.363 . S
C262 C268 1.428 . S
H263 C259 0.930 . S
H264 C261 0.929 . S
S265 N266 1.613 . S
S265 N267 1.610 . S
N266 S265 1.613 . S
N266 C269 1.350 . S
N267 S265 1.610 . S
N267 C268 1.351 . S
C268 C262 1.428 . S
C268 N267 1.351 . S
C268 C269 1.434 . S
C269 C260 1.429 . S
C269 N266 1.350 . S
C269 C268 1.434 . S
C270 C271 1.369 . S
C270 C272 1.419 . S
C270 H274 0.930 . S
C271 C270 1.369 . S
C271 C280 1.429 . S
C272 C270 1.419 . S
C272 C273 1.363 . S
C272 H275 0.929 . S
C273 C272 1.363 . S
C273 C279 1.428 . S
H274 C270 0.930 . S
H275 C272 0.929 . S
S276 N277 1.613 . S
S276 N278 1.610 . S
N277 S276 1.613 . S
N277 C280 1.350 . S
N278 S276 1.610 . S
N278 C279 1.351 . S
C279 C273 1.428 . S
C279 N278 1.351 . S
C279 C280 1.434 . S
C280 C271 1.429 . S
C280 N277 1.350 . S
C280 C279 1.434 . S
C281 C282 1.369 1_655 S
C281 C283 1.419 . S
C281 H285 0.930 . S
C282 C281 1.369 1_455 S
C282 C291 1.429 . S
C283 C281 1.419 . S
C283 C284 1.363 1_655 S
C283 H286 0.929 . S
C284 C283 1.363 1_455 S
C284 C290 1.428 . S
H285 C281 0.930 . S
H286 C283 0.929 . S
S287 N288 1.613 . S
S287 N289 1.610 . S
N288 S287 1.613 . S
N288 C291 1.350 . S
N289 S287 1.610 . S
N289 C290 1.351 . S
C290 C284 1.428 . S
C290 N289 1.351 . S
C290 C291 1.434 . S
C291 C282 1.429 . S
C291 N288 1.350 . S
C291 C290 1.434 . S
C292 C293 1.370 . S
C292 C294 1.419 . S
C292 H296 0.930 . S
C293 C292 1.370 . S
C293 C302 1.428 1_565 S
C294 C292 1.419 . S
C294 C295 1.363 . S
C294 H297 0.929 . S
C295 C294 1.363 . S
C295 C301 1.428 1_565 S
H296 C292 0.930 . S
H297 C294 0.929 . S
S298 N299 1.613 . S
S298 N300 1.610 . S
N299 S298 1.613 . S
N299 C302 1.350 . S
N300 S298 1.610 . S
N300 C301 1.351 . S
C301 C295 1.428 1_545 S
C301 N300 1.351 . S
C301 C302 1.434 . S
C302 C293 1.428 1_545 S
C302 N299 1.350 . S
C302 C301 1.434 . S
C303 C304 1.369 . S
C303 C305 1.419 . S
C303 H307 0.930 . S
C304 C303 1.369 . S
C304 C313 1.429 . S
C305 C303 1.419 . S
C305 C306 1.363 . S
C305 H308 0.929 . S
C306 C305 1.363 . S
C306 C312 1.428 . S
H307 C303 0.930 . S
H308 C305 0.929 . S
S309 N310 1.613 . S
S309 N311 1.610 . S
N310 S309 1.613 . S
N310 C313 1.350 . S
N311 S309 1.610 . S
N311 C312 1.351 . S
C312 C306 1.428 . S
C312 N311 1.351 . S
C312 C313 1.434 . S
C313 C304 1.429 . S
C313 N310 1.350 . S
C313 C312 1.434 . S
C314 C315 1.369 . S
C314 C316 1.419 . S
C314 H318 0.930 . S
C315 C314 1.369 . S
C315 C324 1.429 . S
C316 C314 1.419 . S
C316 C317 1.363 . S
C316 H319 0.929 . S
C317 C316 1.363 . S
C317 C323 1.428 . S
H318 C314 0.930 . S
H319 C316 0.929 . S
S320 N321 1.613 . S
S320 N322 1.610 . S
N321 S320 1.613 . S
N321 C324 1.350 . S
N322 S320 1.610 . S
N322 C323 1.351 . S
C323 C317 1.428 . S
C323 N322 1.351 . S
C323 C324 1.434 . S
C324 C315 1.429 . S
C324 N321 1.350 . S
C324 C323 1.434 . S
C325 C326 1.380 . S
C325 C327 1.419 . S
C325 H329 0.930 . S
C326 C325 1.380 . S
C326 C335 1.418 1_655 S
C327 C325 1.419 . S
C327 C328 1.363 . S
C327 H330 0.929 . S
C328 C327 1.363 . S
C328 C334 1.428 1_655 S
H329 C325 0.930 . S
H330 C327 0.929 . S
S331 N332 1.613 . S
S331 N333 1.610 . S
N332 S331 1.613 . S
N332 C335 1.350 . S
N333 S331 1.610 . S
N333 C334 1.351 . S
C334 C328 1.428 1_455 S
C334 N333 1.351 . S
C334 C335 1.434 . S
C335 C326 1.418 1_455 S
C335 N332 1.350 . S
C335 C334 1.434 . S
C336 C337 1.369 . S
C336 C338 1.419 . S
C336 H340 0.930 . S
C337 C336 1.369 . S
C337 C346 1.429 . S
C338 C336 1.419 . S
C338 C339 1.363 . S
C338 H341 0.929 . S
C339 C338 1.363 . S
C339 C345 1.428 . S
H340 C336 0.930 . S
H341 C338 0.929 . S
S342 N343 1.613 . S
S342 N344 1.610 1_455 S
N343 S342 1.613 . S
N343 C346 1.350 1_455 S
N344 S342 1.610 1_655 S
N344 C345 1.351 . S
C345 C339 1.428 . S
C345 N344 1.351 . S
C345 C346 1.434 . S
C346 C337 1.429 . S
C346 N343 1.350 1_655 S
C346 C345 1.434 . S
C347 C348 1.369 . S
C347 C349 1.419 . S
C347 H351 0.930 1_565 S
C348 C347 1.369 . S
C348 C357 1.429 . S
C349 C347 1.419 . S
C349 C350 1.363 . S
C349 H352 0.929 . S
C350 C349 1.363 . S
C350 C356 1.428 . S
H351 C347 0.930 1_545 S
H352 C349 0.929 . S
S353 N354 1.613 . S
S353 N355 1.610 . S
N354 S353 1.613 . S
N354 C357 1.350 . S
N355 S353 1.610 . S
N355 C356 1.351 . S
C356 C350 1.428 . S
C356 N355 1.351 . S
C356 C357 1.434 . S
C357 C348 1.429 . S
C357 N354 1.350 . S
C357 C356 1.434 . S
C358 C359 1.369 . S
C358 C360 1.419 . S
C358 H362 0.930 . S
C359 C358 1.369 . S
C359 C368 1.429 . S
C360 C358 1.419 . S
C360 C361 1.363 . S
C360 H363 0.929 . S
C361 C360 1.363 . S
C361 C367 1.428 . S
H362 C358 0.930 . S
H363 C360 0.929 . S
S364 N365 1.613 . S
S364 N366 1.610 1_556 S
N365 S364 1.613 . S
N365 C368 1.350 1_556 S
N366 S364 1.610 1_554 S
N366 C367 1.351 . S
C367 C361 1.428 . S
C367 N366 1.351 . S
C367 C368 1.434 . S
C368 C359 1.429 . S
C368 N365 1.350 1_554 S
C368 C367 1.434 . S
C369 C370 1.369 . S
C369 C371 1.419 . S
C369 H373 0.930 . S
C370 C369 1.369 . S
C370 C379 1.429 . S
C371 C369 1.419 . S
C371 C372 1.363 . S
C371 H374 0.929 . S
C372 C371 1.363 . S
C372 C378 1.428 . S
H373 C369 0.930 . S
H374 C371 0.929 . S
S375 N376 1.613 . S
S375 N377 1.610 . S
N376 S375 1.613 . S
N376 C379 1.350 . S
N377 S375 1.610 . S
N377 C378 1.351 . S
C378 C372 1.428 . S
C378 N377 1.351 . S
C378 C379 1.434 . S
C379 C370 1.429 . S
C379 N376 1.350 . S
C379 C378 1.434 . S
C380 C381 1.369 . S
C380 C382 1.419 . S
C380 H384 0.930 . S
C381 C380 1.369 . S
C381 C390 1.429 1_455 S
C382 C380 1.419 . S
C382 C383 1.363 . S
C382 H385 0.929 . S
C383 C382 1.363 . S
C383 C389 1.428 . S
H384 C380 0.930 . S
H385 C382 0.929 . S
S386 N387 1.613 . S
S386 N388 1.610 1_655 S
N387 S386 1.613 . S
N387 C390 1.350 . S
N388 S386 1.610 1_455 S
N388 C389 1.351 . S
C389 C383 1.428 . S
C389 N388 1.351 . S
C389 C390 1.434 1_455 S
C390 C381 1.429 1_655 S
C390 N387 1.350 . S
C390 C389 1.434 1_655 S
C391 C392 1.369 1_565 S
C391 C393 1.419 1_565 S
C391 H395 0.930 . S
C392 C391 1.369 1_545 S
C392 C401 1.429 . S
C393 C391 1.419 1_545 S
C393 C394 1.363 . S
C393 H396 0.929 . S
C394 C393 1.363 . S
C394 C400 1.428 . S
H395 C391 0.930 . S
H396 C393 0.929 . S
S397 N398 1.613 . S
S397 N399 1.610 . S
N398 S397 1.613 . S
N398 C401 1.350 . S
N399 S397 1.610 . S
N399 C400 1.351 . S
C400 C394 1.428 . S
C400 N399 1.351 . S
C400 C401 1.434 . S
C401 C392 1.429 . S
C401 N398 1.350 . S
C401 C400 1.434 . S
C402 C403 1.369 . S
C402 C404 1.419 . S
C402 H406 0.930 . S
C403 C402 1.369 . S
C403 C412 1.429 . S
C404 C402 1.419 . S
C404 C405 1.363 . S
C404 H407 0.929 . S
C405 C404 1.363 . S
C405 C411 1.428 . S
H406 C402 0.930 . S
H407 C404 0.929 . S
S408 N409 1.613 . S
S408 N410 1.610 . S
N409 S408 1.613 . S
N409 C412 1.350 . S
N410 S408 1.610 . S
N410 C411 1.351 . S
C411 C405 1.428 . S
C411 N410 1.351 . S
C411 C412 1.434 . S
C412 C403 1.429 . S
C412 N409 1.350 . S
C412 C411 1.434 . S
C413 C414 1.369 . S
C413 C415 1.419 . S
C413 H417 0.930 . S
C414 C413 1.369 . S
C414 C423 1.429 . S
C415 C413 1.419 . S
C415 C416 1.363 . S
C415 H418 0.929 . S
C416 C415 1.363 . S
C416 C422 1.428 . S
H417 C413 0.930 . S
H418 C415 0.929 . S
S419 N420 1.613 . S
S419 N421 1.610 . S
N420 S419 1.613 . S
N420 C423 1.350 . S
N421 S419 1.610 . S
N421 C422 1.351 . S
C422 C416 1.428 . S
C422 N421 1.351 . S
C422 C423 1.434 . S
C423 C414 1.429 . S
C423 N420 1.350 . S
C423 C422 1.434 . S
C424 C425 1.369 . S
C424 C426 1.419 . S
C424 H428 0.930 . S
C425 C424 1.369 . S
C425 C434 1.429 1_455 S
C426 C424 1.419 . S
C426 C427 1.363 . S
C426 H429 0.929 . S
C427 C426 1.363 . S
C427 C433 1.428 1_455 S
H428 C424 0.930 . S
H429 C426 0.929 . S
S430 N431 1.613 . S
S430 N432 1.610 . S
N431 S430 1.613 . S
N431 C434 1.350 . S
N432 S430 1.610 . S
N432 C433 1.351 . S
C433 C427 1.428 1_655 S
C433 N432 1.351 . S
C433 C434 1.434 . S
C434 C425 1.429 1_655 S
C434 N431 1.350 . S
C434 C433 1.434 . S
C435 C436 1.369 . S
C435 C437 1.419 . S
C435 H439 0.930 . S
C436 C435 1.369 . S
C436 C445 1.429 1_545 S
C437 C435 1.419 . S
C437 C438 1.363 . S
C437 H440 0.929 . S
C438 C437 1.363 . S
C438 C444 1.428 1_545 S
H439 C435 0.930 . S
H440 C437 0.929 . S
S441 N442 1.613 . S
S441 N443 1.610 . S
N442 S441 1.613 . S
N442 C445 1.350 . S
N443 S441 1.610 . S
N443 C444 1.351 . S
C444 C438 1.428 1_565 S
C444 N443 1.351 . S
C444 C445 1.434 . S
C445 C436 1.429 1_565 S
C445 N442 1.350 . S
C445 C444 1.434 . S
C446 C447 1.369 . S
C446 C448 1.419 . S
C446 H450 0.930 . S
C447 C446 1.369 . S
C447 C456 1.429 . S
C448 C446 1.419 . S
C448 C449 1.363 . S
C448 H451 0.929 . S
C449 C448 1.363 . S
C449 C455 1.428 . S
H450 C446 0.930 . S
H451 C448 0.929 . S
S452 N453 1.613 . S
S452 N454 1.610 . S
N453 S452 1.613 . S
N453 C456 1.350 1_554 S
N454 S452 1.610 . S
N454 C455 1.351 1_554 S
C455 C449 1.428 . S
C455 N454 1.351 1_556 S
C455 C456 1.434 . S
C456 C447 1.429 . S
C456 N453 1.350 1_556 S
C456 C455 1.434 . S
C457 C458 1.369 . S
C457 C459 1.419 . S
C457 H461 0.930 . S
C458 C457 1.369 . S
C458 C467 1.429 . S
C459 C457 1.419 . S
C459 C460 1.363 . S
C459 H462 0.929 . S
C460 C459 1.363 . S
C460 C466 1.428 . S
H461 C457 0.930 . S
H462 C459 0.929 . S
S463 N464 1.613 . S
S463 N465 1.610 . S
N464 S463 1.613 . S
N464 C467 1.350 . S
N465 S463 1.610 . S
N465 C466 1.351 . S
C466 C460 1.428 . S
C466 N465 1.351 . S
C466 C467 1.434 . S
C467 C458 1.429 . S
C467 N464 1.350 . S
C467 C466 1.434 . S
C468 C469 1.369 1_455 S
C468 C470 1.419 1_455 S
C468 H472 0.930 . S
C469 C468 1.369 1_655 S
C469 C478 1.429 . S
C470 C468 1.419 1_655 S
C470 C471 1.363 . S
C470 H473 0.929 1_655 S
C471 C470 1.363 . S
C471 C477 1.428 . S
H472 C468 0.930 . S
H473 C470 0.929 1_455 S
S474 N475 1.613 1_554 S
S474 N476 1.610 1_554 S
N475 S474 1.613 1_556 S
N475 C478 1.350 . S
N476 S474 1.610 1_556 S
N476 C477 1.351 . S
C477 C471 1.428 . S
C477 N476 1.351 . S
C477 C478 1.434 . S
C478 C469 1.429 . S
C478 N475 1.350 . S
C478 C477 1.434 . S
C479 C480 1.369 . S
C479 C481 1.419 . S
C479 H483 0.930 . S
C480 C479 1.369 . S
C480 C489 1.429 1_565 S
C481 C479 1.419 . S
C481 C482 1.363 . S
C481 H484 0.929 . S
C482 C481 1.363 . S
C482 C488 1.428 1_565 S
H483 C479 0.930 . S
H484 C481 0.929 . S
S485 N486 1.613 . S
S485 N487 1.610 . S
N486 S485 1.613 . S
N486 C489 1.350 . S
N487 S485 1.610 . S
N487 C488 1.351 . S
C488 C482 1.428 1_545 S
C488 N487 1.351 . S
C488 C489 1.434 . S
C489 C480 1.429 1_545 S
C489 N486 1.350 . S
C489 C488 1.434 . S
C490 C491 1.369 . S
C490 C492 1.419 . S
C490 H494 0.930 . S
C491 C490 1.369 . S
C491 C500 1.429 . S
C492 C490 1.419 . S
C492 C493 1.363 . S
C492 H495 0.929 . S
C493 C492 1.363 . S
C493 C499 1.428 . S
H494 C490 0.930 . S
H495 C492 0.929 . S
S496 N497 1.613 . S
S496 N498 1.610 . S
N497 S496 1.613 . S
N497 C500 1.350 . S
N498 S496 1.610 . S
N498 C499 1.351 . S
C499 C493 1.428 . S
C499 N498 1.351 . S
C499 C500 1.434 . S
C500 C491 1.429 . S
C500 N497 1.350 . S
C500 C499 1.434 . S
C501 C502 1.369 . S
C501 C503 1.419 . S
C501 H505 0.930 . S
C502 C501 1.369 . S
C502 C511 1.429 . S
C503 C501 1.419 . S
C503 C504 1.363 . S
C503 H506 0.929 . S
C504 C503 1.363 . S
C504 C510 1.428 . S
H505 C501 0.930 . S
H506 C503 0.929 . S
S507 N508 1.613 . S
S507 N509 1.610 . S
N508 S507 1.613 . S
N508 C511 1.350 . S
N509 S507 1.610 . S
N509 C510 1.351 . S
C510 C504 1.428 . S
C510 N509 1.351 . S
C510 C511 1.434 . S
C511 C502 1.429 . S
C511 N508 1.350 . S
C511 C510 1.434 . S
C249 C76 1.949 1_545 S
C251 C98 2.197 1_545 S
C262 C138 2.204 . S
C260 C87 1.954 . S
C273 C178 2.208 . S
C271 C54 1.973 . S
C284 C218 2.201 1_455 S
C282 C65 1.953 1_455 S
C295 C107 2.196 1_564 S
C293 C32 1.959 . S
C304 C43 1.956 . S
C306 C147 2.205 1_554 S
C315 C10 1.969 . S
C317 C187 2.209 1_554 S
C326 C21 1.956 . S
C328 C227 2.201 1_654 S
C339 C104 0.812 . S
C337 C60 0.816 1_655 S
C350 C144 0.816 . S
C348 C71 0.830 1_565 S
C361 C184 0.818 . S
C359 C82 0.810 . S
C370 C49 0.817 . S
C372 C224 0.817 . S
C381 C16 0.831 . S
C383 C95 0.808 . S
C394 C135 0.824 . S
C392 C27 0.816 . S
C405 C175 0.821 . S
C403 C38 0.806 . S
C414 C5 0.811 . S
C416 C215 0.814 . S
C425 C59 2.206 . S
C427 C99 2.545 . S
C436 C70 2.187 . S
C438 C139 2.530 . S
C449 C179 2.526 . S
C447 C81 2.178 . S
C460 C219 2.546 . S
C458 C48 2.199 . S
C469 C15 2.218 1_655 S
C471 C90 2.555 . S
C482 C130 2.529 . S
C480 C26 2.197 1_565 S
C493 C170 2.526 . S
C491 C37 2.188 . S
C502 C4 2.211 . S
C504 C210 2.545 . S
