# Generated by pormake.
# Topology anh, (6,3)-cn, num edge types: 1
# Building blocks:
#     Node 0, Type 0, BuildingBlock: BETFEN_clean_sbu_0, # of connection points: 6
#     Node 1, Type 0, BuildingBlock: BETFEN_clean_sbu_0, # of connection points: 6
#     Node 2, Type 0, BuildingBlock: BETFEN_clean_sbu_0, # of connection points: 6
#     Node 3, Type 1, BuildingBlock: BELTOD_clean_linker_0, # of connection points: 3
#     Node 4, Type 1, BuildingBlock: BELTOD_clean_linker_0, # of connection points: 3
#     Node 5, Type 1, BuildingBlock: BELTOD_clean_linker_0, # of connection points: 3
#     Node 6, Type 1, BuildingBlock: BELTOD_clean_linker_0, # of connection points: 3
#     Node 7, Type 1, BuildingBlock: BELTOD_clean_linker_0, # of connection points: 3
#     Node 8, Type 1, BuildingBlock: BELTOD_clean_linker_0, # of connection points: 3
#     Edge 9, Type (0, 1), BuildingBlock: UVAHIK_clean_linker_0, # of connection points: 2
#     Edge 10, Type (0, 1), BuildingBlock: UVAHIK_clean_linker_0, # of connection points: 2
#     Edge 11, Type (0, 1), BuildingBlock: UVAHIK_clean_linker_0, # of connection points: 2
#     Edge 12, Type (0, 1), BuildingBlock: UVAHIK_clean_linker_0, # of connection points: 2
#     Edge 13, Type (0, 1), BuildingBlock: UVAHIK_clean_linker_0, # of connection points: 2
#     Edge 14, Type (0, 1), BuildingBlock: UVAHIK_clean_linker_0, # of connection points: 2
#     Edge 15, Type (0, 1), BuildingBlock: UVAHIK_clean_linker_0, # of connection points: 2
#     Edge 16, Type (0, 1), BuildingBlock: UVAHIK_clean_linker_0, # of connection points: 2
#     Edge 17, Type (0, 1), BuildingBlock: UVAHIK_clean_linker_0, # of connection points: 2
#     Edge 18, Type (0, 1), BuildingBlock: UVAHIK_clean_linker_0, # of connection points: 2
#     Edge 19, Type (0, 1), BuildingBlock: UVAHIK_clean_linker_0, # of connection points: 2
#     Edge 20, Type (0, 1), BuildingBlock: UVAHIK_clean_linker_0, # of connection points: 2
#     Edge 21, Type (0, 1), BuildingBlock: UVAHIK_clean_linker_0, # of connection points: 2
#     Edge 22, Type (0, 1), BuildingBlock: UVAHIK_clean_linker_0, # of connection points: 2
#     Edge 23, Type (0, 1), BuildingBlock: UVAHIK_clean_linker_0, # of connection points: 2
#     Edge 24, Type (0, 1), BuildingBlock: UVAHIK_clean_linker_0, # of connection points: 2
#     Edge 25, Type (0, 1), BuildingBlock: UVAHIK_clean_linker_0, # of connection points: 2
#     Edge 26, Type (0, 1), BuildingBlock: UVAHIK_clean_linker_0, # of connection points: 2
# Relax obj value: 0.159
# Max RMSD: 0.195
# Mean RMSD: 0.142
data_MOF--net-anh--node1-BETFEN_clean_sbu_0--node2-BELTOD_clean_linker_0--edge1-UVAHIK_clean_linker_0
_symmetry_space_group_name_H-M    P1
_symmetry_Int_Tables_number       1
_symmetry_cell_setting            triclinic
loop_
_symmetry_equiv_pos_as_xyz
'x, y, z'
_cell_length_a     42.544129
_cell_length_b     45.355809
_cell_length_c     76.315729
_cell_angle_alpha  90.573153
_cell_angle_beta   92.247215
_cell_angle_gamma 109.99149
loop_
_atom_site_label
_atom_site_type_symbol
_atom_site_fract_x
_atom_site_fract_y
_atom_site_fract_z
_atom_type_partial_charge
Pr0 Pr 0.00967 0.52034 0.15562 0.0
Pr1 Pr 0.03408 0.58938 0.14775 0.0
C2 C 0.98091 0.46327 0.16931 0.0
C3 C 0.94799 0.43968 0.17248 0.0
C4 C 0.92157 0.4315 0.1597 0.0
C5 C 0.89103 0.40811 0.16293 0.0
C6 C 0.88632 0.39271 0.17905 0.0
C7 C 0.91273 0.40141 0.19188 0.0
C8 C 0.94322 0.42461 0.1886 0.0
C9 C 0.01693 0.5325 0.12002 0.0
C10 C 0.95364 0.5561 0.14832 0.0
C11 C 0.0646 0.64848 0.13713 0.0
C12 C 0.09633 0.67411 0.14147 0.0
C13 C 0.09757 0.70533 0.14063 0.0
C14 C 0.12706 0.72992 0.14555 0.0
C15 C 0.15591 0.72369 0.15136 0.0
C16 C 0.15462 0.6923 0.15204 0.0
C17 C 0.12506 0.66773 0.14721 0.0
C18 C 0.0286 0.57617 0.18345 0.0
C19 C 0.08988 0.55231 0.15152 0.0
O20 O 0.98962 0.48937 0.17865 0.0
O21 O 0.99003 0.46739 0.15308 0.0
O22 O 1.00425 0.54661 0.13046 0.0
O23 O 0.02501 0.51048 0.12768 0.0
O24 O 0.97738 0.57827 0.14063 0.0
O25 O 0.96062 0.53378 0.15694 0.0
O26 O 0.0666 0.62371 0.12897 0.0
O27 O 0.04288 0.6415 0.14942 0.0
O28 O 0.04094 0.56292 0.17246 0.0
O29 O 0.01954 0.59795 0.17628 0.0
O30 O 0.06699 0.52925 0.15914 0.0
O31 O 0.08247 0.57586 0.14462 0.0
H32 H 0.92457 0.443 0.14719 0.0
H33 H 0.87106 0.40215 0.15287 0.0
H34 H 0.91011 0.38975 0.20433 0.0
H35 H 0.96331 0.43054 0.19862 0.0
H36 H 0.07559 0.71069 0.13631 0.0
H37 H 0.12732 0.75383 0.14471 0.0
H38 H 0.17624 0.68669 0.15668 0.0
H39 H 0.12455 0.64375 0.14817 0.0
Pr40 Pr 0.55702 0.05181 0.51854 0.0
Pr41 Pr 0.48382 0.02865 0.52467 0.0
C42 C 0.61833 0.08092 0.50624 0.0
C43 C 0.64262 0.11291 0.50374 0.0
C44 C 0.66577 0.12876 0.5173 0.0
C45 C 0.68975 0.15821 0.51456 0.0
C46 C 0.69126 0.17249 0.49819 0.0
C47 C 0.66791 0.15675 0.48469 0.0
C48 C 0.64398 0.12728 0.48741 0.0
C49 C 0.54284 0.04255 0.55366 0.0
C50 C 0.51863 0.10637 0.5242 0.0
C51 C 0.4211 0.99785 0.53452 0.0
C52 C 0.39515 0.96763 0.5293 0.0
C53 C 0.39209 0.95605 0.51195 0.0
C54 C 0.36791 0.92715 0.5071 0.0
C55 C 0.34647 0.90893 0.51953 0.0
C56 C 0.34968 0.92064 0.53692 0.0
C57 C 0.37379 0.94974 0.54174 0.0
C58 C 0.49845 0.035 0.4893 0.0
C59 C 0.52315 0.97409 0.52144 0.0
O60 O 0.59083 0.07198 0.49624 0.0
O61 O 0.61351 0.07099 0.52229 0.0
O62 O 0.52829 0.05552 0.54311 0.0
O63 O 0.56631 0.03513 0.54639 0.0
O64 O 0.49299 0.08303 0.53001 0.0
O65 O 0.54428 0.0999 0.51777 0.0
O66 O 0.4477 0.99625 0.54307 0.0
O67 O 0.42817 0.01958 0.52271 0.0
O68 O 0.51272 0.02325 0.5006 0.0
O69 O 0.47471 0.04275 0.49594 0.0
O70 O 0.54955 0.99717 0.51605 0.0
O71 O 0.49653 0.98065 0.52638 0.0
H72 H 0.66565 0.11832 0.53001 0.0
H73 H 0.70712 0.1698 0.5253 0.0
H74 H 0.66866 0.16681 0.47183 0.0
H75 H 0.62683 0.11554 0.47661 0.0
H76 H 0.40846 0.96933 0.50212 0.0
H77 H 0.3659 0.91922 0.49354 0.0
H78 H 0.33398 0.90711 0.54691 0.0
H79 H 0.37595 0.95814 0.55523 0.0
Pr80 Pr 0.49694 0.51614 0.81394 0.0
Pr81 Pr 0.52586 0.58852 0.82733 0.0
C82 C 0.4817 0.46292 0.79488 0.0
C83 C 0.49018 0.43444 0.79765 0.0
C84 C 0.46486 0.40493 0.79652 0.0
C85 C 0.47173 0.37813 0.80153 0.0
C86 C 0.50411 0.38044 0.80773 0.0
C87 C 0.52965 0.40995 0.80826 0.0
C88 C 0.52272 0.43671 0.80338 0.0
C89 C 0.50139 0.51966 0.85076 0.0
C90 C 0.57909 0.55083 0.82524 0.0
C91 C 0.53625 0.64442 0.84301 0.0
C92 C 0.5144 0.65953 0.85099 0.0
C93 C 0.51048 0.68578 0.84295 0.0
C94 C 0.48744 0.69868 0.84898 0.0
C95 C 0.46811 0.68587 0.86334 0.0
C96 C 0.47281 0.66036 0.87189 0.0
C97 C 0.49562 0.64706 0.86567 0.0
C98 C 0.5294 0.57696 0.79163 0.0
C99 C 0.44271 0.55188 0.82102 0.0
O100 O 0.50653 0.48847 0.79129 0.0
O101 O 0.46134 0.46771 0.80614 0.0
O102 O 0.50917 0.54174 0.84023 0.0
O103 O 0.49096 0.4931 0.84203 0.0
O104 O 0.57306 0.5746 0.83282 0.0
O105 O 0.55571 0.52847 0.81592 0.0
O106 O 0.54095 0.62095 0.85127 0.0
O107 O 0.5321 0.63982 0.82598 0.0
O108 O 0.50489 0.56327 0.80088 0.0
O109 O 0.55278 0.59859 0.80067 0.0
O110 O 0.44758 0.52814 0.81274 0.0
O111 O 0.46761 0.57523 0.8286 0.0
H112 H 0.43951 0.40277 0.79235 0.0
H113 H 0.45142 0.35579 0.80112 0.0
H114 H 0.55499 0.41248 0.81263 0.0
H115 H 0.54269 0.45925 0.80456 0.0
H116 H 0.52474 0.6959 0.83169 0.0
H117 H 0.4847 0.71877 0.84239 0.0
H118 H 0.45828 0.65029 0.88306 0.0
H119 H 0.49804 0.62675 0.87213 0.0
P120 P 0.56447 1.01565 0.245 0.0
H121 H 0.53664 0.94927 0.23513 0.0
H122 H 0.48391 0.91691 0.22063 0.0
H123 H 0.4545 0.9987 0.21499 0.0
H124 H 0.5076 0.03108 0.22975 0.0
H125 H 0.6136 0.03537 0.21805 0.0
H126 H 0.64529 0.08667 0.20685 0.0
H127 H 0.58905 0.12919 0.23824 0.0
H128 H 0.55798 0.07766 0.24973 0.0
H129 H 0.50417 0.99699 0.26611 0.0
H130 H 0.61014 0.04715 0.27398 0.0
O131 O 0.59117 0.99594 0.24461 0.0
H132 H 0.49673 1.00295 0.29735 0.0
H133 H 0.60281 0.05349 0.30526 0.0
C134 C 0.5263 0.99267 0.2332 0.0
C135 C 0.5191 0.96038 0.23057 0.0
C136 C 0.48891 0.94188 0.22223 0.0
C137 C 0.46509 0.95525 0.2165 0.0
C138 C 0.47229 0.98768 0.21928 0.0
C139 C 0.50269 1.00625 0.22758 0.0
C140 C 0.584 0.05287 0.23499 0.0
C141 C 0.60791 0.0557 0.22242 0.0
C142 C 0.62585 0.08508 0.21591 0.0
C143 C 0.61999 0.11219 0.22176 0.0
C144 C 0.59467 0.10892 0.23371 0.0
C145 C 0.57677 0.07946 0.24023 0.0
C146 C 0.55778 0.02163 0.26772 0.0
C147 C 0.52582 1.00956 0.27449 0.0
C148 C 0.52155 1.0131 0.29238 0.0
C149 C 0.5492 0.0286 0.30381 0.0
C150 C 0.58108 0.04107 0.29686 0.0
C151 C 0.58528 0.03762 0.27899 0.0
P152 P 0.53986 0.54661 0.54227 0.0
H153 H 0.56196 0.51135 0.51482 0.0
H154 H 0.55673 0.45636 0.51083 0.0
H155 H 0.48489 0.43115 0.55128 0.0
H156 H 0.48935 0.48566 0.55469 0.0
H157 H 0.56932 0.59794 0.51718 0.0
H158 H 0.56489 0.64952 0.51287 0.0
H159 H 0.48169 0.62587 0.54688 0.0
H160 H 0.48538 0.57399 0.55049 0.0
H161 H 0.59156 0.5624 0.57106 0.0
H162 H 0.48368 0.53158 0.56618 0.0
O163 O 0.58072 0.55855 0.53862 0.0
H164 H 0.58923 0.56364 0.60279 0.0
H165 H 0.48128 0.53413 0.59798 0.0
C166 C 0.52615 0.50407 0.5351 0.0
C167 C 0.54424 0.49407 0.52255 0.0
C168 C 0.54168 0.46207 0.52051 0.0
C169 C 0.52084 0.43809 0.53094 0.0
C170 C 0.50132 0.44794 0.54279 0.0
C171 C 0.50389 0.47995 0.5448 0.0
C172 C 0.52797 0.58078 0.53437 0.0
C173 C 0.54944 0.60323 0.52347 0.0
C174 C 0.54724 0.63359 0.52124 0.0
C175 C 0.52342 0.64345 0.52982 0.0
C176 C 0.50064 0.62026 0.53991 0.0
C177 C 0.5028 0.58981 0.54207 0.0
C178 C 0.53778 0.54725 0.56601 0.0
C179 C 0.56728 0.55613 0.57671 0.0
C180 C 0.56596 0.55705 0.59498 0.0
C181 C 0.53508 0.54923 0.60305 0.0
C182 C 0.50553 0.54006 0.5923 0.0
C183 C 0.50691 0.53899 0.57402 0.0
P184 P 0.02964 0.595 0.87379 0.0
H185 H 0.08059 0.62813 0.84962 0.0
H186 H 0.12886 0.61771 0.83862 0.0
H187 H 0.0961 0.52689 0.86253 0.0
H188 H 0.04712 0.53732 0.87323 0.0
H189 H 0.9947 0.62574 0.85071 0.0
H190 H 0.93669 0.61107 0.83999 0.0
H191 H 0.91603 0.51875 0.86133 0.0
H192 H 0.97452 0.53405 0.87238 0.0
H193 H 0.07863 0.58505 0.89911 0.0
H194 H 0.97639 0.5827 0.89882 0.0
O195 O 0.04257 0.63415 0.87464 0.0
H196 H 0.07695 0.57415 0.93035 0.0
H197 H 0.97482 0.57266 0.93014 0.0
C198 C 0.06069 0.58382 0.86262 0.0
C199 C 0.08343 0.60576 0.8523 0.0
C200 C 0.11123 0.59985 0.84611 0.0
C201 C 0.11688 0.57179 0.85006 0.0
C202 C 0.09261 0.54879 0.85929 0.0
C203 C 0.06463 0.55473 0.86545 0.0
C204 C 0.98882 0.58118 0.86261 0.0
C205 C 0.9779 0.60216 0.85287 0.0
C206 C 0.94459 0.59363 0.84663 0.0
C207 C 0.92141 0.56379 0.84993 0.0
C208 C 0.933 0.54211 0.85881 0.0
C209 C 0.9665 0.5507 0.86501 0.0
C210 C 0.02715 0.58329 0.89638 0.0
C211 C 0.05553 0.58146 0.90564 0.0
C212 C 0.05471 0.5757 0.92361 0.0
C213 C 0.02567 0.57234 0.93278 0.0
C214 C 0.99734 0.57438 0.92345 0.0
C215 C 0.99819 0.58006 0.90547 0.0
P216 P 0.05983 0.51549 0.42844 0.0
H217 H 0.06553 0.53921 0.46473 0.0
H218 H 0.09583 0.59107 0.47817 0.0
H219 H 0.11824 0.62915 0.42666 0.0
H220 H 0.08845 0.57761 0.4134 0.0
H221 H 0.04081 0.44894 0.43501 0.0
H222 H 0.99161 0.41075 0.44704 0.0
H223 H 0.94925 0.48363 0.45507 0.0
H224 H 0.99902 0.52203 0.44285 0.0
H225 H 0.09734 0.51115 0.39785 0.0
H226 H 1.00374 0.52386 0.40797 0.0
O227 O 0.09144 0.50187 0.43137 0.0
H228 H 0.08748 0.5157 0.3665 0.0
H229 H 0.99322 0.52776 0.37644 0.0
C230 C 0.07418 0.55456 0.43805 0.0
C231 C 0.07612 0.55895 0.45634 0.0
C232 C 0.09349 0.58859 0.464 0.0
C233 C 0.10966 0.61415 0.45347 0.0
C234 C 0.10638 0.60986 0.43513 0.0
C235 C 0.08899 0.58036 0.42752 0.0
C236 C 0.02389 0.48844 0.4384 0.0
C237 C 0.0212 0.45688 0.43958 0.0
C238 C 0.99303 0.43503 0.4465 0.0
C239 C 0.96664 0.44418 0.45221 0.0
C240 C 0.96915 0.47584 0.45078 0.0
C241 C 0.99762 0.49782 0.44392 0.0
C242 C 0.05098 0.51659 0.40522 0.0
C243 C 0.07435 0.51439 0.3933 0.0
C244 C 0.06861 0.51691 0.37533 0.0
C245 C 0.03942 0.52185 0.3689 0.0
C246 C 0.01605 0.52413 0.38094 0.0
C247 C 0.02186 0.52162 0.39896 0.0
P248 P 0.55414 1.00276 0.79841 0.0
H249 H 0.56766 0.02973 0.83396 0.0
H250 H 0.5748 0.08226 0.84591 0.0
H251 H 0.5678 0.1144 0.7933 0.0
H252 H 0.56027 0.06243 0.78153 0.0
H253 H 0.52972 0.93491 0.79929 0.0
H254 H 0.48444 0.89699 0.81451 0.0
H255 H 0.45561 0.97244 0.83533 0.0
H256 H 0.5004 1.0103 0.81963 0.0
H257 H 0.59795 1.01423 0.769 0.0
H258 H 0.49231 0.99014 0.77668 0.0
O259 O 0.58771 0.9925 0.80266 0.0
H260 H 0.58789 0.0178 0.73745 0.0
H261 H 0.48204 0.9937 0.7451 0.0
C262 C 0.56292 0.04201 0.80691 0.0
C263 C 0.56798 0.04824 0.82504 0.0
C264 C 0.57204 0.07813 0.83184 0.0
C265 C 0.57194 0.10231 0.82051 0.0
C266 C 0.56841 0.09628 0.80232 0.0
C267 C 0.56383 0.06638 0.79558 0.0
C268 C 0.51907 0.9754 0.80876 0.0
C269 C 0.51349 0.94327 0.807 0.0
C270 C 0.48744 0.92165 0.81558 0.0
C271 C 0.46659 0.93186 0.82612 0.0
C272 C 0.4715 0.96404 0.82739 0.0
C273 C 0.49728 0.98566 0.81853 0.0
C274 C 0.5458 1.00122 0.77508 0.0
C275 C 0.57252 1.00917 0.76384 0.0
C276 C 0.56678 1.01153 0.74586 0.0
C277 C 0.53417 1.00607 0.73883 0.0
C278 C 0.50736 0.99767 0.75013 0.0
C279 C 0.51319 0.99556 0.76815 0.0
P280 P 0.49945 0.50286 0.09765 0.0
H281 H 0.53155 0.51915 0.13302 0.0
H282 H 0.59043 0.53419 0.14364 0.0
H283 H 0.62061 0.53843 0.0901 0.0
H284 H 0.56252 0.5228 0.07972 0.0
H285 H 0.43799 0.4645 0.11344 0.0
H286 H 0.39102 0.4763 0.12473 0.0
H287 H 0.4439 0.57534 0.11844 0.0
H288 H 0.49104 0.56303 0.10668 0.0
H289 H 0.46314 0.46362 0.06771 0.0
H290 H 0.52346 0.56069 0.07759 0.0
O291 O 0.49138 0.4643 0.09913 0.0
H292 H 0.4595 0.47355 0.03643 0.0
H293 H 0.52017 0.57076 0.04614 0.0
C294 C 0.54252 0.52106 0.10554 0.0
C295 C 0.55098 0.52423 0.1236 0.0
C296 C 0.58458 0.53251 0.12965 0.0
C297 C 0.61026 0.53783 0.1177 0.0
C298 C 0.60162 0.53526 0.09966 0.0
C299 C 0.56819 0.52652 0.09368 0.0
C300 C 0.46833 0.51291 0.10942 0.0
C301 C 0.43997 0.48885 0.11483 0.0
C302 C 0.41296 0.49568 0.12137 0.0
C303 C 0.41348 0.52682 0.12258 0.0
C304 C 0.44242 0.55106 0.11756 0.0
C305 C 0.46958 0.54412 0.11101 0.0
C306 C 0.49437 0.51122 0.07488 0.0
C307 C 0.47552 0.48712 0.06316 0.0
C308 C 0.47326 0.49287 0.04529 0.0
C309 C 0.48983 0.52287 0.03883 0.0
C310 C 0.50755 0.54732 0.05073 0.0
C311 C 0.50939 0.54161 0.06867 0.0
C312 C 0.14794 0.57378 0.14029 0.0
C313 C 0.12448 0.55167 0.15033 0.0
C314 C 0.18012 0.57255 0.13855 0.0
C315 C 0.22838 0.51807 0.14329 0.0
H316 H 0.30503 0.59427 0.13964 0.0
C317 C 0.36294 0.51546 0.14105 0.0
C318 C 0.38309 0.53339 0.12807 0.0
C319 C 0.3326 0.5192 0.1449 0.0
C320 C 0.28384 0.57277 0.14053 0.0
H321 H 0.11696 0.51134 0.16677 0.0
H322 H 0.1732 0.50962 0.1641 0.0
H323 H 0.24999 0.59773 0.14443 0.0
H324 H 0.38717 0.57007 0.10935 0.0
H325 H 0.33454 0.57692 0.1163 0.0
H326 H 0.26232 0.49317 0.1395 0.0
C327 C 0.16654 0.52752 0.1572 0.0
C328 C 0.25219 0.57471 0.14323 0.0
C329 C 0.13425 0.52862 0.15884 0.0
C330 C 0.37263 0.5561 0.11957 0.0
C331 C 0.34234 0.55997 0.12351 0.0
C332 C 0.26003 0.51615 0.14073 0.0
C333 C 0.18988 0.5493 0.1469 0.0
C334 C 0.22393 0.54738 0.14456 0.0
C335 C 0.32163 0.54113 0.13599 0.0
C336 C 0.28816 0.54345 0.13924 0.0
H337 H 0.14131 0.59182 0.13348 0.0
H338 H 0.19707 0.58946 0.13029 0.0
H339 H 0.20725 0.49646 0.14388 0.0
H340 H 0.37043 0.49822 0.14815 0.0
H341 H 0.31761 0.50473 0.15483 0.0
C342 C 0.75077 0.20948 0.5016 0.0
C343 C 0.71773 0.2032 0.49502 0.0
C344 C 0.77593 0.23782 0.49816 0.0
C345 C 0.79735 0.30288 0.46701 0.0
H346 H 0.86713 0.34384 0.50234 0.0
C347 C 0.90409 0.41928 0.45392 0.0
C348 C 0.9365 0.42035 0.45923 0.0
C349 C 0.8759 0.39512 0.45939 0.0
C350 C 0.84793 0.33261 0.49229 0.0
H351 H 0.68516 0.22232 0.48 0.0
H352 H 0.72906 0.27183 0.47401 0.0
H353 H 0.82071 0.29721 0.50974 0.0
H354 H 0.96461 0.3977 0.47509 0.0
H355 H 0.91566 0.35552 0.48444 0.0
H356 H 0.82483 0.33805 0.4495 0.0
C357 C 0.73561 0.25458 0.48162 0.0
C358 C 0.82133 0.30583 0.49653 0.0
C359 C 0.71043 0.22619 0.48506 0.0
C360 C 0.94001 0.39735 0.47059 0.0
C361 C 0.9119 0.37333 0.47611 0.0
C362 C 0.82396 0.32969 0.46278 0.0
C363 C 0.76874 0.26069 0.48805 0.0
C364 C 0.79592 0.29036 0.48387 0.0
C365 C 0.87949 0.37163 0.47039 0.0
C366 C 0.84982 0.34464 0.4753 0.0
H367 H 0.75743 0.19212 0.50906 0.0
H368 H 0.80124 0.24146 0.50306 0.0
H369 H 0.77848 0.29138 0.45687 0.0
H370 H 0.90054 0.43653 0.44509 0.0
H371 H 0.85128 0.39469 0.4549 0.0
C372 C 0.42091 0.70504 0.85678 0.0
C373 C 0.44358 0.69993 0.86917 0.0
C374 C 0.40387 0.72542 0.8607 0.0
C375 C 0.42637 0.79804 0.88548 0.0
H376 H 0.35301 0.80476 0.85598 0.0
C377 C 0.44238 0.91363 0.85506 0.0
C378 C 0.44193 0.90889 0.83681 0.0
C379 C 0.42573 0.88872 0.86573 0.0
C380 C 0.37322 0.8033 0.86461 0.0
H381 H 0.46326 0.70873 0.89603 0.0
H382 H 0.43327 0.74454 0.90303 0.0
H383 H 0.35319 0.7531 0.86451 0.0
H384 H 0.42044 0.87595 0.81521 0.0
H385 H 0.39176 0.83254 0.83367 0.0
H386 H 0.44784 0.8478 0.88444 0.0
C387 C 0.42898 0.73314 0.89018 0.0
C388 C 0.37337 0.7737 0.86949 0.0
C389 C 0.44604 0.71259 0.88623 0.0
C390 C 0.42153 0.88002 0.82927 0.0
C391 C 0.40475 0.85525 0.83989 0.0
C392 C 0.42611 0.82755 0.88071 0.0
C393 C 0.40932 0.74128 0.8771 0.0
C394 C 0.40142 0.7707 0.87867 0.0
C395 C 0.40829 0.85879 0.85829 0.0
C396 C 0.40095 0.83028 0.86902 0.0
H397 H 0.41829 0.69511 0.8436 0.0
H398 H 0.38915 0.73104 0.85021 0.0
H399 H 0.44836 0.79684 0.89265 0.0
H400 H 0.45789 0.93573 0.86119 0.0
H401 H 0.42864 0.89224 0.87984 0.0
C402 C 0.91038 0.57769 0.13626 0.0
C403 C 0.9185 0.55562 0.14663 0.0
C404 C 0.87728 0.57695 0.13426 0.0
C405 C 0.79449 0.54756 0.15409 0.0
H406 H 0.76151 0.55908 0.10751 0.0
C407 C 0.65367 0.52507 0.13651 0.0
C408 C 0.64571 0.54381 0.12372 0.0
C409 C 0.68708 0.52795 0.14044 0.0
C410 C 0.77035 0.55633 0.12068 0.0
H411 H 0.89796 0.51562 0.16322 0.0
H412 H 0.84015 0.51435 0.15971 0.0
H413 H 0.81906 0.561 0.11207 0.0
H414 H 0.66671 0.58155 0.10581 0.0
H415 H 0.72484 0.58714 0.11293 0.0
H416 H 0.74571 0.54299 0.1627 0.0
C417 C 0.85951 0.53236 0.15321 0.0
C418 C 0.80343 0.55734 0.12328 0.0
C419 C 0.89266 0.533 0.15514 0.0
C420 C 0.67199 0.56646 0.11555 0.0
C421 C 0.70534 0.5695 0.11957 0.0
C422 C 0.76135 0.54671 0.1515 0.0
C423 C 0.85137 0.5542 0.14263 0.0
C424 C 0.81598 0.553 0.14 0.0
C425 C 0.71337 0.54978 0.13175 0.0
C426 C 0.74882 0.55113 0.13475 0.0
H427 H 0.92957 0.59552 0.12954 0.0
H428 H 0.87202 0.59439 0.12621 0.0
H429 H 0.80343 0.54445 0.16718 0.0
H430 H 0.63399 0.50716 0.14289 0.0
H431 H 0.69216 0.51215 0.14979 0.0
C432 C 0.28918 0.86758 0.52127 0.0
C433 C 0.3212 0.87776 0.51432 0.0
C434 C 0.26544 0.8385 0.5161 0.0
C435 C 0.25779 0.76211 0.49453 0.0
H436 H 0.16466 0.75428 0.48652 0.0
C437 C 0.16408 0.659 0.45477 0.0
C438 C 0.13229 0.64438 0.46145 0.0
C439 C 0.18611 0.68687 0.46239 0.0
C440 C 0.19051 0.75603 0.4889 0.0
H441 H 0.35339 0.86473 0.49672 0.0
H442 H 0.31188 0.8149 0.48727 0.0
H443 H 0.20517 0.80406 0.49763 0.0
H444 H 0.09862 0.64777 0.48134 0.0
H445 H 0.13727 0.69694 0.49466 0.0
H446 H 0.24326 0.71437 0.48534 0.0
C447 C 0.30515 0.82907 0.49694 0.0
C448 C 0.21376 0.78453 0.4953 0.0
C449 C 0.32888 0.85798 0.50217 0.0
C450 C 0.12297 0.65845 0.47593 0.0
C451 C 0.14498 0.68664 0.48347 0.0
C452 C 0.23465 0.73379 0.488 0.0
C453 C 0.27309 0.81887 0.50382 0.0
C454 C 0.24782 0.78807 0.49799 0.0
C455 C 0.17691 0.70099 0.47685 0.0
C456 C 0.20084 0.73053 0.4849 0.0
H457 H 0.28222 0.88227 0.53052 0.0
H458 H 0.24117 0.83133 0.52183 0.0
H459 H 0.28358 0.76363 0.49684 0.0
H460 H 0.17221 0.64857 0.44378 0.0
H461 H 0.21038 0.6975 0.45688 0.0
C462 C 0.4968 0.32326 0.80512 0.0
C463 C 0.51116 0.35237 0.81399 0.0
C464 C 0.504 0.29705 0.81084 0.0
C465 C 0.56886 0.27527 0.834 0.0
H466 H 0.50029 0.19274 0.83295 0.0
C467 C 0.59246 0.16082 0.81975 0.0
C468 C 0.5725 0.13306 0.82739 0.0
C469 C 0.58799 0.18922 0.82356 0.0
C470 C 0.51969 0.21566 0.83368 0.0
H471 H 0.54344 0.37647 0.83624 0.0
H472 H 0.55657 0.33074 0.84596 0.0
H473 H 0.48429 0.239 0.82883 0.0
H474 H 0.53399 0.11343 0.84597 0.0
H475 H 0.52617 0.16325 0.85268 0.0
H476 H 0.60437 0.25177 0.83823 0.0
C477 C 0.53991 0.32837 0.83453 0.0
C478 C 0.51053 0.24209 0.8311 0.0
C479 C 0.53252 0.35454 0.82888 0.0
C480 C 0.54977 0.13456 0.83994 0.0
C481 C 0.54512 0.16296 0.84367 0.0
C482 C 0.57806 0.24879 0.83648 0.0
C483 C 0.52583 0.29942 0.82551 0.0
C484 C 0.5351 0.27203 0.83073 0.0
C485 C 0.56333 0.19032 0.83501 0.0
C486 C 0.55361 0.21867 0.83584 0.0
H487 H 0.48061 0.32086 0.79349 0.0
H488 H 0.49324 0.27512 0.80346 0.0
H489 H 0.58833 0.29809 0.83373 0.0
H490 H 0.61034 0.16027 0.81013 0.0
H491 H 0.60224 0.20984 0.81658 0.0
C492 C 0.49458 0.91486 0.52668 0.0
C493 C 0.52311 0.94012 0.52202 0.0
C494 C 0.49446 0.88345 0.52736 0.0
C495 C 0.5445 0.8304 0.51441 0.0
H496 H 0.48399 0.77118 0.54451 0.0
C497 C 0.55203 0.70331 0.52507 0.0
C498 C 0.52296 0.6775 0.5286 0.0
C499 C 0.55188 0.73461 0.52416 0.0
C500 C 0.50095 0.787 0.5358 0.0
H501 H 0.57424 0.95054 0.51449 0.0
H502 H 0.57439 0.8968 0.51594 0.0
H503 H 0.48423 0.82486 0.54329 0.0
H504 H 0.47039 0.66668 0.53367 0.0
H505 H 0.47024 0.72028 0.53225 0.0
H506 H 0.56138 0.7925 0.50705 0.0
C507 C 0.55149 0.90086 0.51882 0.0
C508 C 0.50108 0.81841 0.53506 0.0
C509 C 0.55154 0.93226 0.51807 0.0
C510 C 0.49373 0.68508 0.5312 0.0
C511 C 0.49363 0.71643 0.53036 0.0
C512 C 0.54446 0.79902 0.51521 0.0
C513 C 0.52294 0.87541 0.52349 0.0
C514 C 0.52284 0.84115 0.52433 0.0
C515 C 0.5227 0.74217 0.52681 0.0
C516 C 0.52268 0.77633 0.52592 0.0
H517 H 0.47194 0.91926 0.52978 0.0
H518 H 0.4715 0.86537 0.53074 0.0
H519 H 0.56142 0.84609 0.50564 0.0
H520 H 0.57554 0.69966 0.52332 0.0
H521 H 0.57521 0.75306 0.5217 0.0
C522 C 0.62072 0.52321 0.82099 0.0
C523 C 0.61358 0.54958 0.827 0.0
C524 C 0.65336 0.52238 0.82258 0.0
C525 C 0.74177 0.57449 0.82761 0.0
H526 H 0.75857 0.50016 0.84367 0.0
C527 C 0.87475 0.56768 0.82967 0.0
C528 C 0.88506 0.55647 0.84521 0.0
C529 C 0.84107 0.56415 0.82627 0.0
C530 C 0.75429 0.52111 0.83918 0.0
H531 H 0.63545 0.59573 0.83948 0.0
H532 H 0.69207 0.59426 0.84219 0.0
H533 H 0.70098 0.49981 0.84038 0.0
H534 H 0.86746 0.53178 0.86908 0.0
H535 H 0.80874 0.52534 0.86304 0.0
H536 H 0.79494 0.59604 0.82669 0.0
C537 C 0.6725 0.57429 0.83613 0.0
C538 C 0.72128 0.52082 0.83716 0.0
C539 C 0.6399 0.57503 0.83467 0.0
C540 C 0.86049 0.54038 0.85688 0.0
C541 C 0.82675 0.53674 0.85343 0.0
C542 C 0.77469 0.57471 0.82951 0.0
C543 C 0.6797 0.54802 0.83006 0.0
C544 C 0.71464 0.54764 0.83152 0.0
C545 C 0.81672 0.54919 0.83827 0.0
C546 C 0.78143 0.54813 0.83545 0.0
H547 H 0.60111 0.50315 0.81504 0.0
H548 H 0.65809 0.50187 0.81767 0.0
H549 H 0.73757 0.59544 0.82306 0.0
H550 H 0.89283 0.57965 0.82021 0.0
H551 H 0.83414 0.57347 0.81429 0.0
C552 C 0.1856 0.77496 0.16744 0.0
C553 C 0.18705 0.74978 0.15699 0.0
C554 C 0.21492 0.79915 0.17305 0.0
C555 C 0.30416 0.83655 0.16329 0.0
H556 H 0.31401 0.86623 0.21171 0.0
C557 C 0.43165 0.91124 0.19587 0.0
C558 C 0.43265 0.93506 0.20804 0.0
C559 C 0.40111 0.8908 0.18879 0.0
C560 C 0.31149 0.85859 0.19808 0.0
H561 H 0.22046 0.7306 0.144 0.0
H562 H 0.27165 0.77262 0.15394 0.0
H563 H 0.26185 0.82634 0.20106 0.0
H564 H 0.40223 0.95642 0.22204 0.0
H565 H 0.34883 0.92102 0.20944 0.0
H566 H 0.35389 0.86861 0.16034 0.0
C567 C 0.24781 0.77377 0.1577 0.0
C568 C 0.28158 0.83567 0.19197 0.0
C569 C 0.2185 0.74951 0.15216 0.0
C570 C 0.40235 0.93846 0.21261 0.0
C571 C 0.37174 0.91794 0.20554 0.0
C572 C 0.33404 0.85951 0.16938 0.0
C573 C 0.24639 0.79882 0.16828 0.0
C574 C 0.27767 0.82416 0.17455 0.0
C575 C 0.37073 0.89364 0.19369 0.0
C576 C 0.33821 0.8706 0.1869 0.0
H577 H 0.16179 0.77573 0.17153 0.0
H578 H 0.21293 0.81822 0.18107 0.0
H579 H 0.30175 0.82857 0.14972 0.0
H580 H 0.45456 0.90821 0.19191 0.0
H581 H 0.4013 0.8722 0.17983 0.0
C582 C 0.54622 0.16589 0.51932 0.0
C583 C 0.51884 0.1404 0.52493 0.0
C584 C 0.54639 0.19734 0.51992 0.0
C585 C 0.48939 0.24665 0.5251 0.0
H586 H 0.57327 0.31568 0.53155 0.0
C587 C 0.49213 0.37784 0.53458 0.0
C588 C 0.52018 0.40365 0.52982 0.0
C589 C 0.49189 0.34636 0.53393 0.0
C590 C 0.54938 0.29704 0.52948 0.0
H591 H 0.46993 0.12967 0.53568 0.0
H592 H 0.47021 0.18366 0.53683 0.0
H593 H 0.57303 0.26195 0.53054 0.0
H594 H 0.57046 0.41426 0.52068 0.0
H595 H 0.56968 0.36048 0.51908 0.0
H596 H 0.46573 0.28167 0.52395 0.0
C597 C 0.49173 0.17952 0.53171 0.0
C598 C 0.54926 0.2656 0.52891 0.0
C599 C 0.49162 0.14808 0.53116 0.0
C600 C 0.54791 0.39589 0.5243 0.0
C601 C 0.54766 0.36442 0.52363 0.0
C602 C 0.48952 0.27809 0.52563 0.0
C603 C 0.51913 0.20515 0.52611 0.0
C604 C 0.51926 0.2394 0.52671 0.0
C605 C 0.51968 0.33863 0.52846 0.0
C606 C 0.51952 0.30432 0.52785 0.0
H607 H 0.56779 0.16158 0.51436 0.0
H608 H 0.568 0.21555 0.5152 0.0
H609 H 0.46553 0.22794 0.52308 0.0
H610 H 0.46983 0.38172 0.53875 0.0
H611 H 0.46971 0.32807 0.53803 0.0
C612 C 0.38 0.52634 0.81697 0.0
C613 C 0.40811 0.55251 0.8222 0.0
C614 C 0.3475 0.5269 0.81871 0.0
C615 C 0.3005 0.58158 0.82321 0.0
H616 H 0.23259 0.51115 0.84329 0.0
C617 C 0.17934 0.59313 0.84805 0.0
C618 C 0.14908 0.56779 0.84562 0.0
C619 C 0.20981 0.58988 0.84414 0.0
C620 C 0.25105 0.53085 0.8374 0.0
H621 H 0.42385 0.59992 0.83326 0.0
H622 H 0.36751 0.60086 0.83618 0.0
H623 H 0.28771 0.50801 0.83811 0.0
H624 H 0.12734 0.51897 0.8372 0.0
H625 H 0.1807 0.51331 0.83018 0.0
H626 H 0.26413 0.60449 0.82244 0.0
C627 C 0.37051 0.57995 0.83064 0.0
C628 C 0.2827 0.52905 0.83446 0.0
C629 C 0.40289 0.57931 0.82905 0.0
C630 C 0.15018 0.53893 0.8393 0.0
C631 C 0.1808 0.53569 0.83531 0.0
C632 C 0.2689 0.58332 0.82604 0.0
C633 C 0.34238 0.55375 0.82555 0.0
C634 C 0.30797 0.55461 0.82758 0.0
C635 C 0.21103 0.5612 0.83762 0.0
C636 C 0.24388 0.55821 0.83346 0.0
H637 H 0.38304 0.50527 0.81169 0.0
H638 H 0.32636 0.50641 0.81455 0.0
H639 H 0.31915 0.60146 0.81757 0.0
H640 H 0.17962 0.61549 0.85332 0.0
H641 H 0.23254 0.60984 0.84654 0.0
C642 C 0.84028 0.36486 0.1989 0.0
C643 C 0.85448 0.36704 0.18243 0.0
C644 C 0.81187 0.33942 0.2026 0.0
C645 C 0.7416 0.27301 0.18224 0.0
H646 H 0.74362 0.2358 0.2276 0.0
C647 C 0.65307 0.1487 0.19915 0.0
C648 C 0.64178 0.1438 0.21632 0.0
C649 C 0.67623 0.17755 0.1946 0.0
C650 C 0.74232 0.24614 0.21499 0.0
H651 H 0.84942 0.3445 0.15678 0.0
H652 H 0.79988 0.29995 0.16325 0.0
H653 H 0.78893 0.28313 0.22041 0.0
H654 H 0.64544 0.16589 0.24204 0.0
H655 H 0.68506 0.21632 0.234 0.0
H656 H 0.69509 0.23557 0.17678 0.0
C657 C 0.8105 0.31814 0.17325 0.0
C658 C 0.76836 0.27333 0.21085 0.0
C659 C 0.83892 0.34368 0.16954 0.0
C660 C 0.6533 0.16885 0.22865 0.0
C661 C 0.6764 0.19768 0.2241 0.0
C662 C 0.71547 0.24573 0.18639 0.0
C663 C 0.79696 0.31544 0.18993 0.0
C664 C 0.76843 0.28708 0.19441 0.0
C665 C 0.68867 0.20221 0.20712 0.0
C666 C 0.71559 0.2319 0.20281 0.0
H667 H 0.8513 0.38277 0.20901 0.0
H668 H 0.80169 0.33843 0.21545 0.0
H669 H 0.74068 0.28319 0.16954 0.0
H670 H 0.6444 0.13005 0.18926 0.0
H671 H 0.68525 0.18014 0.18144 0.0
C672 C 0.03275 0.52052 0.09033 0.0
C673 C 0.01871 0.53774 0.10097 0.0
C674 C 0.03407 0.52495 0.07224 0.0
C675 C 0.9944 0.55345 0.0355 0.0
H676 H 0.07363 0.5556 0.01132 0.0
C677 C 0.99672 0.54769 0.95985 0.0
C678 C 0.02532 0.56796 0.9521 0.0
C679 C 0.99614 0.54429 0.97805 0.0
C680 C 0.05139 0.55525 0.01789 0.0
H681 H 0.99536 0.57337 0.10113 0.0
H682 H 0.9977 0.58121 0.06947 0.0
H683 H 0.07268 0.55024 0.04309 0.0
H684 H 0.07561 0.60085 0.95752 0.0
H685 H 0.07467 0.59468 0.98919 0.0
H686 H 0.97324 0.55877 0.01031 0.0
C687 C 1.00739 0.56403 0.07509 0.0
C688 C 0.05073 0.55187 0.03607 0.0
C689 C 1.0062 0.55967 0.09321 0.0
C690 C 0.05339 0.58459 0.96299 0.0
C691 C 0.05283 0.58112 0.98117 0.0
C692 C 0.99501 0.55669 0.0173 0.0
C693 C 0.02129 0.54666 0.06439 0.0
C694 C 0.02221 0.55088 0.04509 0.0
C695 C 0.02417 0.56102 0.98892 0.0
C696 C 0.0235 0.55759 0.00828 0.0
H697 H 0.0426 0.50345 0.09596 0.0
H698 H 0.04458 0.51094 0.06436 0.0
H699 H 0.97193 0.55248 0.04204 0.0
H700 H 0.97484 0.53419 0.95185 0.0
H701 H 0.97385 0.52826 0.98359 0.0
C702 C 0.48468 0.04533 0.45835 0.0
C703 C 0.50492 0.0359 0.47042 0.0
C704 C 0.49032 0.04557 0.44042 0.0
C705 C 0.53106 1.01208 0.40736 0.0
H706 H 0.51956 0.07758 0.37825 0.0
C707 C 0.56789 0.0253 0.3351 0.0
C708 C 0.545 0.03095 0.32296 0.0
C709 C 0.56361 0.02671 0.35311 0.0
C710 C 0.52259 0.05899 0.38619 0.0
H711 H 0.54729 0.01986 0.47331 0.0
H712 H 0.55767 0.02093 0.44206 0.0
H713 H 0.51154 0.07892 0.40969 0.0
H714 H 0.49998 0.04302 0.32023 0.0
H715 H 0.4924 0.04532 0.35173 0.0
H716 H 0.54235 0.99232 0.38385 0.0
C717 C 0.53697 0.02751 0.44635 0.0
C718 C 0.51795 0.05971 0.40421 0.0
C719 C 0.53118 0.02709 0.46427 0.0
C720 C 0.51789 0.03832 0.32925 0.0
C721 C 0.51373 0.03992 0.34729 0.0
C722 C 0.53588 1.01147 0.38937 0.0
C723 C 0.51647 0.03657 0.43417 0.0
C724 C 0.52202 0.0362 0.41503 0.0
C725 C 0.53644 0.03396 0.35942 0.0
C726 C 0.53162 0.03487 0.37857 0.0
H727 H 0.46421 0.05218 0.46273 0.0
H728 H 0.47374 0.05226 0.43143 0.0
H729 H 0.53382 0.99327 0.4152 0.0
H730 H 0.58884 0.01925 0.33068 0.0
H731 H 0.58171 0.02228 0.36213 0.0
C732 C 0.55652 0.59116 0.763 0.0
C733 C 0.52986 0.5719 0.77248 0.0
C734 C 0.55647 0.58762 0.74478 0.0
C735 C 0.52029 0.53227 0.70758 0.0
H736 H 0.54543 0.60783 0.6803 0.0
C737 C 0.50843 0.52861 0.63149 0.0
C738 C 0.53379 0.55097 0.62255 0.0
C739 C 0.50724 0.53049 0.64977 0.0
C740 C 0.53877 0.58647 0.68769 0.0
H741 H 0.48257 0.53334 0.77039 0.0
H742 H 0.48255 0.52699 0.73847 0.0
H743 H 0.54508 0.6119 0.7121 0.0
H744 H 0.57764 0.59305 0.62601 0.0
H745 H 0.57624 0.59569 0.65777 0.0
H746 H 0.51441 0.50684 0.68317 0.0
C747 C 0.50351 0.54483 0.74516 0.0
C748 C 0.5385 0.58883 0.70595 0.0
C749 C 0.50345 0.54853 0.76341 0.0
C750 C 0.55797 0.57516 0.6324 0.0
C751 C 0.55688 0.57694 0.65066 0.0
C752 C 0.52076 0.5299 0.68928 0.0
C753 C 0.52984 0.56461 0.73561 0.0
C754 C 0.52943 0.56179 0.71614 0.0
C755 C 0.53143 0.55472 0.65961 0.0
C756 C 0.53018 0.557 0.67909 0.0
H757 H 0.5773 0.60928 0.76964 0.0
H758 H 0.57738 0.60291 0.73787 0.0
H759 H 0.51347 0.51101 0.71507 0.0
H760 H 0.48959 0.50943 0.62439 0.0
H761 H 0.48707 0.51312 0.65615 0.0
C762 C 0.55078 0.02008 0.58238 0.0
C763 C 0.53549 0.0376 0.57233 0.0
C764 C 0.54453 1.01545 0.60012 0.0
C765 C 0.52065 0.05059 0.63818 0.0
H766 H 0.50959 0.96993 0.65869 0.0
C767 C 0.54958 0.03596 0.71121 0.0
C768 C 0.52842 1.0099 0.71983 0.0
C769 C 0.54501 0.03922 0.69322 0.0
C770 C 0.51219 0.99249 0.65316 0.0
H771 H 0.50133 0.06371 0.5728 0.0
H772 H 0.49067 0.05593 0.60409 0.0
H773 H 0.51072 0.97489 0.6269 0.0
H774 H 0.48551 0.96711 0.71643 0.0
H775 H 0.47756 0.97276 0.68487 0.0
H776 H 0.52286 0.06834 0.6645 0.0
C777 C 0.5075 0.04581 0.59817 0.0
C778 C 0.51313 0.99539 0.63497 0.0
C779 C 0.51353 0.0502 0.5803 0.0
C780 C 0.50214 0.98747 0.71013 0.0
C781 C 0.49772 0.99061 0.69208 0.0
C782 C 0.51994 0.04775 0.6564 0.0
C783 C 0.523 0.0284 0.60824 0.0
C784 C 0.51805 0.0246 0.62732 0.0
C785 C 0.51928 0.01641 0.68342 0.0
C786 C 0.51635 0.01879 0.66409 0.0
H787 H 0.56775 1.01002 0.57656 0.0
H788 H 0.55719 1.0023 0.60759 0.0
H789 H 0.52462 0.07342 0.63265 0.0
H790 H 0.56978 0.05383 0.7184 0.0
H791 H 0.56225 0.05919 0.6869 0.0
C792 C 0.5053 0.55174 0.87819 0.0
C793 C 0.50205 0.52292 0.87003 0.0
C794 C 0.5039 0.55407 0.89644 0.0
C795 C 0.47432 0.50439 0.93501 0.0
H796 H 0.53016 0.57823 0.9616 0.0
C797 C 0.46033 0.51574 0.00915 0.0
C798 C 0.48995 0.52798 0.01964 0.0
C799 C 0.46099 0.518 0.9909 0.0
C800 C 0.51452 0.55734 0.95439 0.0
H801 H 0.49565 0.47416 0.87441 0.0
H802 H 0.49421 0.47828 0.90619 0.0
H803 H 0.5343 0.57587 0.92987 0.0
H804 H 0.54341 0.55273 0.0193 0.0
H805 H 0.5448 0.55612 0.98746 0.0
H806 H 0.45553 0.48524 0.95948 0.0
C807 C 0.49694 0.49899 0.89859 0.0
C808 C 0.51661 0.55615 0.93615 0.0
C809 C 0.49803 0.49664 0.88039 0.0
C810 C 0.52012 0.54337 0.01155 0.0
C811 C 0.52086 0.54536 0.99328 0.0
C812 C 0.4724 0.50549 0.95321 0.0
C813 C 0.4994 0.52762 0.90687 0.0
C814 C 0.49671 0.52953 0.92623 0.0
C815 C 0.49138 0.53223 0.98269 0.0
C816 C 0.49257 0.5319 0.96318 0.0
H817 H 0.508 0.57225 0.87046 0.0
H818 H 0.50548 0.57641 0.9023 0.0
H819 H 0.45814 0.48373 0.92781 0.0
H820 H 0.43664 0.50412 0.01505 0.0
H821 H 0.43766 0.50828 0.98323 0.0
C822 C 0.0145 0.58662 0.21385 0.0
C823 C 0.02705 0.56943 0.20235 0.0
C824 C 0.01342 0.58056 0.23179 0.0
C825 C 0.0147 0.52036 0.2639 0.0
H826 H 0.04332 0.59083 0.29705 0.0
C827 C 0.04274 0.50656 0.33745 0.0
C828 C 0.034 0.52539 0.34976 0.0
C829 C 0.03946 0.511 0.31947 0.0
C830 C 0.03475 0.57086 0.288 0.0
H831 H 0.04801 0.53222 0.2005 0.0
H832 H 0.04629 0.5217 0.23184 0.0
H833 H 0.04229 0.60035 0.26571 0.0
H834 H 0.01445 0.56342 0.3527 0.0
H835 H 1.008 0.57069 0.32132 0.0
H836 H 1.00729 0.49086 0.28619 0.0
C837 C 0.03701 0.53969 0.22701 0.0
C838 C 0.03421 0.57633 0.27001 0.0
C839 C 0.03819 0.54583 0.20908 0.0
C840 C 0.02117 0.54832 0.3436 0.0
C841 C 0.01787 0.55275 0.3256 0.0
C842 C 0.01516 0.51488 0.28189 0.0
C843 C 0.02476 0.55709 0.23859 0.0
C844 C 0.02438 0.55116 0.25774 0.0
C845 C 0.02729 0.53436 0.31331 0.0
C846 C 0.0254 0.54007 0.29417 0.0
H847 H 1.00559 0.60484 0.209 0.0
H848 H 1.00345 0.59412 0.24031 0.0
H849 H 1.00649 0.50044 0.2548 0.0
H850 H 0.05229 0.4884 0.34172 0.0
H851 H 0.04725 0.49659 0.3104 0.0
loop_
_geom_bond_atom_site_label_1
_geom_bond_atom_site_label_2
_geom_bond_distance
_geom_bond_site_symmetry_2
_ccdc_geom_bond_type
Pr0 C2 2.880 . S
Pr0 O20 2.562 . S
Pr0 O21 2.490 . S
Pr0 O22 2.695 1_655 S
Pr0 O23 2.512 . S
Pr0 O25 2.437 . S
Pr0 O28 2.440 1_655 S
Pr0 O30 2.438 1_655 S
Pr1 C11 2.880 . S
Pr1 O22 2.436 . S
Pr1 O24 2.438 1_455 S
Pr1 O26 2.562 . S
Pr1 O27 2.490 . S
Pr1 O28 2.698 . S
Pr1 O29 2.512 . S
Pr1 O31 2.437 . S
C2 Pr0 2.880 . S
C2 C3 1.491 . S
C2 O20 1.254 . S
C2 O21 1.225 . S
C3 C2 1.491 . S
C3 C4 1.392 . S
C3 C8 1.356 . S
C4 C3 1.392 . S
C4 C5 1.368 . S
C4 H32 0.929 . S
C5 C4 1.368 . S
C5 C6 1.386 . S
C5 H33 0.929 . S
C6 C5 1.386 . S
C6 C7 1.373 . S
C7 C6 1.373 . S
C7 C8 1.409 . S
C7 H34 0.931 . S
C8 C3 1.356 . S
C8 C7 1.409 . S
C8 H35 0.930 . S
C9 O22 1.270 . S
C9 O23 1.248 1_455 S
C10 O24 1.267 . S
C10 O25 1.278 . S
C11 Pr1 2.880 . S
C11 C12 1.491 . S
C11 O26 1.254 . S
C11 O27 1.225 . S
C12 C11 1.491 . S
C12 C13 1.392 . S
C12 C17 1.356 . S
C13 C12 1.392 . S
C13 C14 1.368 . S
C13 H36 0.929 . S
C14 C13 1.368 . S
C14 C15 1.386 . S
C14 H37 0.929 . S
C15 C14 1.386 . S
C15 C16 1.373 . S
C16 C15 1.373 . S
C16 C17 1.409 . S
C16 H38 0.931 . S
C17 C12 1.356 . S
C17 C16 1.409 . S
C17 H39 0.930 . S
C18 O28 1.274 . S
C18 O29 1.248 . S
C19 O30 1.267 . S
C19 O31 1.278 . S
O20 Pr0 2.562 . S
O20 C2 1.254 . S
O21 Pr0 2.490 . S
O21 C2 1.225 . S
O22 Pr0 2.695 1_455 S
O22 Pr1 2.436 . S
O22 C9 1.270 . S
O23 Pr0 2.512 . S
O23 C9 1.248 1_655 S
O24 Pr1 2.438 1_655 S
O24 C10 1.267 . S
O25 Pr0 2.437 . S
O25 C10 1.278 . S
O26 Pr1 2.562 . S
O26 C11 1.254 . S
O27 Pr1 2.490 . S
O27 C11 1.225 . S
O28 Pr0 2.440 1_455 S
O28 Pr1 2.698 . S
O28 C18 1.274 . S
O29 Pr1 2.512 . S
O29 C18 1.248 . S
O30 Pr0 2.438 1_455 S
O30 C19 1.267 . S
O31 Pr1 2.437 . S
O31 C19 1.278 . S
H32 C4 0.929 . S
H33 C5 0.929 . S
H34 C7 0.931 . S
H35 C8 0.930 . S
H36 C13 0.929 . S
H37 C14 0.929 . S
H38 C16 0.931 . S
H39 C17 0.930 . S
Pr40 C42 2.880 . S
Pr40 O60 2.562 . S
Pr40 O61 2.490 . S
Pr40 O62 2.695 . S
Pr40 O63 2.512 . S
Pr40 O65 2.437 . S
Pr40 O68 2.436 . S
Pr40 O70 2.438 1_545 S
Pr41 C51 2.880 1_545 S
Pr41 O62 2.436 . S
Pr41 O64 2.438 . S
Pr41 O66 2.562 1_545 S
Pr41 O67 2.490 1_545 S
Pr41 O68 2.695 . S
Pr41 O69 2.512 . S
Pr41 O71 2.437 1_545 S
C42 Pr40 2.880 . S
C42 C43 1.491 . S
C42 O60 1.254 . S
C42 O61 1.225 . S
C43 C42 1.491 . S
C43 C44 1.392 . S
C43 C48 1.356 . S
C44 C43 1.392 . S
C44 C45 1.368 . S
C44 H72 0.929 . S
C45 C44 1.368 . S
C45 C46 1.386 . S
C45 H73 0.929 . S
C46 C45 1.386 . S
C46 C47 1.373 . S
C47 C46 1.373 . S
C47 C48 1.409 . S
C47 H74 0.931 . S
C48 C43 1.356 . S
C48 C47 1.409 . S
C48 H75 0.930 . S
C49 O62 1.270 . S
C49 O63 1.248 . S
C50 O64 1.267 . S
C50 O65 1.278 . S
C51 Pr41 2.880 1_565 S
C51 C52 1.491 . S
C51 O66 1.254 . S
C51 O67 1.225 . S
C52 C51 1.491 . S
C52 C53 1.392 . S
C52 C57 1.356 . S
C53 C52 1.392 . S
C53 C54 1.368 . S
C53 H76 0.929 . S
C54 C53 1.368 . S
C54 C55 1.386 . S
C54 H77 0.929 . S
C55 C54 1.386 . S
C55 C56 1.373 . S
C56 C55 1.373 . S
C56 C57 1.409 . S
C56 H78 0.931 . S
C57 C52 1.356 . S
C57 C56 1.409 . S
C57 H79 0.930 . S
C58 O68 1.270 . S
C58 O69 1.248 . S
C59 O70 1.267 . S
C59 O71 1.278 . S
O60 Pr40 2.562 . S
O60 C42 1.254 . S
O61 Pr40 2.490 . S
O61 C42 1.225 . S
O62 Pr40 2.695 . S
O62 Pr41 2.436 . S
O62 C49 1.270 . S
O63 Pr40 2.512 . S
O63 C49 1.248 . S
O64 Pr41 2.438 . S
O64 C50 1.267 . S
O65 Pr40 2.437 . S
O65 C50 1.278 . S
O66 Pr41 2.562 1_565 S
O66 C51 1.254 . S
O67 Pr41 2.490 1_565 S
O67 C51 1.225 . S
O68 Pr40 2.436 . S
O68 Pr41 2.695 . S
O68 C58 1.270 . S
O69 Pr41 2.512 . S
O69 C58 1.248 . S
O70 Pr40 2.438 1_565 S
O70 C59 1.267 . S
O71 Pr41 2.437 1_565 S
O71 C59 1.278 . S
H72 C44 0.929 . S
H73 C45 0.929 . S
H74 C47 0.931 . S
H75 C48 0.930 . S
H76 C53 0.929 . S
H77 C54 0.929 . S
H78 C56 0.931 . S
H79 C57 0.930 . S
Pr80 C82 2.880 . S
Pr80 O100 2.562 . S
Pr80 O101 2.490 . S
Pr80 O102 2.695 . S
Pr80 O103 2.512 . S
Pr80 O105 2.437 . S
Pr80 O108 2.436 . S
Pr80 O110 2.438 . S
Pr81 C91 2.880 . S
Pr81 O102 2.436 . S
Pr81 O104 2.438 . S
Pr81 O106 2.562 . S
Pr81 O107 2.490 . S
Pr81 O108 2.695 . S
Pr81 O109 2.512 . S
Pr81 O111 2.437 . S
C82 Pr80 2.880 . S
C82 C83 1.491 . S
C82 O100 1.254 . S
C82 O101 1.225 . S
C83 C82 1.491 . S
C83 C84 1.392 . S
C83 C88 1.356 . S
C84 C83 1.392 . S
C84 C85 1.368 . S
C84 H112 0.929 . S
C85 C84 1.368 . S
C85 C86 1.386 . S
C85 H113 0.929 . S
C86 C85 1.386 . S
C86 C87 1.373 . S
C87 C86 1.373 . S
C87 C88 1.409 . S
C87 H114 0.931 . S
C88 C83 1.356 . S
C88 C87 1.409 . S
C88 H115 0.930 . S
C89 O102 1.270 . S
C89 O103 1.248 . S
C90 O104 1.267 . S
C90 O105 1.278 . S
C91 Pr81 2.880 . S
C91 C92 1.491 . S
C91 O106 1.254 . S
C91 O107 1.225 . S
C92 C91 1.491 . S
C92 C93 1.392 . S
C92 C97 1.356 . S
C93 C92 1.392 . S
C93 C94 1.368 . S
C93 H116 0.929 . S
C94 C93 1.368 . S
C94 C95 1.386 . S
C94 H117 0.929 . S
C95 C94 1.386 . S
C95 C96 1.373 . S
C96 C95 1.373 . S
C96 C97 1.409 . S
C96 H118 0.931 . S
C97 C92 1.356 . S
C97 C96 1.409 . S
C97 H119 0.930 . S
C98 O108 1.270 . S
C98 O109 1.248 . S
C99 O110 1.267 . S
C99 O111 1.278 . S
O100 Pr80 2.562 . S
O100 C82 1.254 . S
O101 Pr80 2.490 . S
O101 C82 1.225 . S
O102 Pr80 2.695 . S
O102 Pr81 2.436 . S
O102 C89 1.270 . S
O103 Pr80 2.512 . S
O103 C89 1.248 . S
O104 Pr81 2.438 . S
O104 C90 1.267 . S
O105 Pr80 2.437 . S
O105 C90 1.278 . S
O106 Pr81 2.562 . S
O106 C91 1.254 . S
O107 Pr81 2.490 . S
O107 C91 1.225 . S
O108 Pr80 2.436 . S
O108 Pr81 2.695 . S
O108 C98 1.270 . S
O109 Pr81 2.512 . S
O109 C98 1.248 . S
O110 Pr80 2.438 . S
O110 C99 1.267 . S
O111 Pr81 2.437 . S
O111 C99 1.278 . S
H112 C84 0.929 . S
H113 C85 0.929 . S
H114 C87 0.931 . S
H115 C88 0.930 . S
H116 C93 0.929 . S
H117 C94 0.929 . S
H118 C96 0.931 . S
H119 C97 0.930 . S
P120 O131 1.490 1_545 S
P120 C134 1.812 1_545 S
P120 C140 1.803 . S
P120 C146 1.819 . S
H121 C135 0.941 . S
H122 C136 0.939 . S
H123 C138 0.940 . S
H124 C139 0.940 1_545 S
H125 C141 0.939 . S
H126 C142 0.942 . S
H127 C144 0.940 . S
H128 C145 0.939 . S
H129 C147 0.941 . S
H130 C151 0.939 . S
O131 P120 1.490 1_565 S
H132 C148 0.939 1_565 S
H133 C150 0.940 . S
C134 P120 1.812 1_565 S
C134 C135 1.389 . S
C134 C139 1.391 . S
C135 H121 0.941 . S
C135 C134 1.389 . S
C135 C136 1.397 . S
C136 H122 0.939 . S
C136 C135 1.397 . S
C136 C137 1.378 . S
C137 C136 1.378 . S
C137 C138 1.378 . S
C138 H123 0.940 . S
C138 C137 1.378 . S
C138 C139 1.396 . S
C139 H124 0.940 1_565 S
C139 C134 1.391 . S
C139 C138 1.396 . S
C140 P120 1.803 . S
C140 C141 1.378 . S
C140 C145 1.400 . S
C141 H125 0.939 . S
C141 C140 1.378 . S
C141 C142 1.361 . S
C142 H126 0.942 . S
C142 C141 1.361 . S
C142 C143 1.369 . S
C143 C142 1.369 . S
C143 C144 1.404 . S
C144 H127 0.940 . S
C144 C143 1.404 . S
C144 C145 1.389 . S
C145 H128 0.939 . S
C145 C140 1.400 . S
C145 C144 1.389 . S
C146 P120 1.819 . S
C146 C147 1.391 1_545 S
C146 C151 1.391 . S
C147 H129 0.941 . S
C147 C146 1.391 1_565 S
C147 C148 1.396 1_565 S
C148 H132 0.939 1_545 S
C148 C147 1.396 1_545 S
C148 C149 1.397 . S
C149 C148 1.397 . S
C149 C150 1.385 . S
C150 H133 0.940 . S
C150 C149 1.385 . S
C150 C151 1.388 . S
C151 H130 0.939 . S
C151 C146 1.391 . S
C151 C150 1.388 . S
P152 O163 1.490 . S
P152 C166 1.812 . S
P152 C172 1.803 . S
P152 C178 1.819 . S
H153 C167 0.941 . S
H154 C168 0.939 . S
H155 C170 0.940 . S
H156 C171 0.940 . S
H157 C173 0.939 . S
H158 C174 0.942 . S
H159 C176 0.940 . S
H160 C177 0.939 . S
H161 C179 0.941 . S
H162 C183 0.939 . S
O163 P152 1.490 . S
H164 C180 0.939 . S
H165 C182 0.940 . S
C166 P152 1.812 . S
C166 C167 1.389 . S
C166 C171 1.391 . S
C167 H153 0.941 . S
C167 C166 1.389 . S
C167 C168 1.397 . S
C168 H154 0.939 . S
C168 C167 1.397 . S
C168 C169 1.378 . S
C169 C168 1.378 . S
C169 C170 1.378 . S
C170 H155 0.940 . S
C170 C169 1.378 . S
C170 C171 1.396 . S
C171 H156 0.940 . S
C171 C166 1.391 . S
C171 C170 1.396 . S
C172 P152 1.803 . S
C172 C173 1.378 . S
C172 C177 1.400 . S
C173 H157 0.939 . S
C173 C172 1.378 . S
C173 C174 1.361 . S
C174 H158 0.942 . S
C174 C173 1.361 . S
C174 C175 1.369 . S
C175 C174 1.369 . S
C175 C176 1.404 . S
C176 H159 0.940 . S
C176 C175 1.404 . S
C176 C177 1.389 . S
C177 H160 0.939 . S
C177 C172 1.400 . S
C177 C176 1.389 . S
C178 P152 1.819 . S
C178 C179 1.391 . S
C178 C183 1.391 . S
C179 H161 0.941 . S
C179 C178 1.391 . S
C179 C180 1.396 . S
C180 H164 0.939 . S
C180 C179 1.396 . S
C180 C181 1.397 . S
C181 C180 1.397 . S
C181 C182 1.385 . S
C182 H165 0.940 . S
C182 C181 1.385 . S
C182 C183 1.388 . S
C183 H162 0.939 . S
C183 C178 1.391 . S
C183 C182 1.388 . S
P184 O195 1.490 . S
P184 C198 1.812 . S
P184 C204 1.803 1_455 S
P184 C210 1.819 . S
H185 C199 0.941 . S
H186 C200 0.939 . S
H187 C202 0.940 . S
H188 C203 0.940 . S
H189 C205 0.939 . S
H190 C206 0.942 . S
H191 C208 0.940 . S
H192 C209 0.939 . S
H193 C211 0.941 . S
H194 C215 0.939 . S
O195 P184 1.490 . S
H196 C212 0.939 . S
H197 C214 0.940 . S
C198 P184 1.812 . S
C198 C199 1.389 . S
C198 C203 1.391 . S
C199 H185 0.941 . S
C199 C198 1.389 . S
C199 C200 1.397 . S
C200 H186 0.939 . S
C200 C199 1.397 . S
C200 C201 1.378 . S
C201 C200 1.378 . S
C201 C202 1.378 . S
C202 H187 0.940 . S
C202 C201 1.378 . S
C202 C203 1.396 . S
C203 H188 0.940 . S
C203 C198 1.391 . S
C203 C202 1.396 . S
C204 P184 1.803 1_655 S
C204 C205 1.378 . S
C204 C209 1.400 . S
C205 H189 0.939 . S
C205 C204 1.378 . S
C205 C206 1.361 . S
C206 H190 0.942 . S
C206 C205 1.361 . S
C206 C207 1.369 . S
C207 C206 1.369 . S
C207 C208 1.404 . S
C208 H191 0.940 . S
C208 C207 1.404 . S
C208 C209 1.389 . S
C209 H192 0.939 . S
C209 C204 1.400 . S
C209 C208 1.389 . S
C210 P184 1.819 . S
C210 C211 1.391 . S
C210 C215 1.391 1_455 S
C211 H193 0.941 . S
C211 C210 1.391 . S
C211 C212 1.396 . S
C212 H196 0.939 . S
C212 C211 1.396 . S
C212 C213 1.397 . S
C213 C212 1.397 . S
C213 C214 1.385 1_455 S
C214 H197 0.940 . S
C214 C213 1.385 1_655 S
C214 C215 1.388 . S
C215 H194 0.939 . S
C215 C210 1.391 1_655 S
C215 C214 1.388 . S
P216 O227 1.490 . S
P216 C230 1.812 . S
P216 C236 1.803 1_455 S
P216 C242 1.819 . S
H217 C231 0.941 . S
H218 C232 0.939 . S
H219 C234 0.940 . S
H220 C235 0.940 . S
H221 C237 0.939 . S
H222 C238 0.942 . S
H223 C240 0.940 . S
H224 C241 0.939 . S
H225 C243 0.941 . S
H226 C247 0.939 . S
O227 P216 1.490 . S
H228 C244 0.939 . S
H229 C246 0.940 . S
C230 P216 1.812 . S
C230 C231 1.389 . S
C230 C235 1.391 . S
C231 H217 0.941 . S
C231 C230 1.389 . S
C231 C232 1.397 . S
C232 H218 0.939 . S
C232 C231 1.397 . S
C232 C233 1.378 . S
C233 C232 1.378 . S
C233 C234 1.378 . S
C234 H219 0.940 . S
C234 C233 1.378 . S
C234 C235 1.396 . S
C235 H220 0.940 . S
C235 C230 1.391 . S
C235 C234 1.396 . S
C236 P216 1.803 1_655 S
C236 C237 1.378 . S
C236 C241 1.400 . S
C237 H221 0.939 . S
C237 C236 1.378 . S
C237 C238 1.361 . S
C238 H222 0.942 . S
C238 C237 1.361 . S
C238 C239 1.369 . S
C239 C238 1.369 . S
C239 C240 1.404 . S
C240 H223 0.940 . S
C240 C239 1.404 . S
C240 C241 1.389 . S
C241 H224 0.939 . S
C241 C236 1.400 . S
C241 C240 1.389 . S
C242 P216 1.819 . S
C242 C243 1.391 . S
C242 C247 1.391 1_455 S
C243 H225 0.941 . S
C243 C242 1.391 . S
C243 C244 1.396 . S
C244 H228 0.939 . S
C244 C243 1.396 . S
C244 C245 1.397 . S
C245 C244 1.397 . S
C245 C246 1.385 1_455 S
C246 H229 0.940 . S
C246 C245 1.385 1_655 S
C246 C247 1.388 . S
C247 H226 0.939 . S
C247 C242 1.391 1_655 S
C247 C246 1.388 . S
P248 O259 1.490 . S
P248 C262 1.812 . S
P248 C268 1.803 1_545 S
P248 C274 1.819 . S
H249 C263 0.941 . S
H250 C264 0.939 . S
H251 C266 0.940 . S
H252 C267 0.940 . S
H253 C269 0.939 . S
H254 C270 0.942 . S
H255 C272 0.940 . S
H256 C273 0.939 . S
H257 C275 0.941 . S
H258 C279 0.939 . S
O259 P248 1.490 . S
H260 C276 0.939 . S
H261 C278 0.940 . S
C262 P248 1.812 . S
C262 C263 1.389 . S
C262 C267 1.391 . S
C263 H249 0.941 . S
C263 C262 1.389 . S
C263 C264 1.397 . S
C264 H250 0.939 . S
C264 C263 1.397 . S
C264 C265 1.378 . S
C265 C264 1.378 . S
C265 C266 1.378 . S
C266 H251 0.940 . S
C266 C265 1.378 . S
C266 C267 1.396 . S
C267 H252 0.940 . S
C267 C262 1.391 . S
C267 C266 1.396 . S
C268 P248 1.803 1_565 S
C268 C269 1.378 . S
C268 C273 1.400 . S
C269 H253 0.939 . S
C269 C268 1.378 . S
C269 C270 1.361 . S
C270 H254 0.942 . S
C270 C269 1.361 . S
C270 C271 1.369 . S
C271 C270 1.369 . S
C271 C272 1.404 . S
C272 H255 0.940 . S
C272 C271 1.404 . S
C272 C273 1.389 . S
C273 H256 0.939 . S
C273 C268 1.400 . S
C273 C272 1.389 . S
C274 P248 1.819 . S
C274 C275 1.391 . S
C274 C279 1.391 1_545 S
C275 H257 0.941 . S
C275 C274 1.391 . S
C275 C276 1.396 . S
C276 H260 0.939 . S
C276 C275 1.396 . S
C276 C277 1.397 . S
C277 C276 1.397 . S
C277 C278 1.385 1_545 S
C278 H261 0.940 . S
C278 C277 1.385 1_565 S
C278 C279 1.388 . S
C279 H258 0.939 . S
C279 C274 1.391 1_565 S
C279 C278 1.388 . S
P280 O291 1.490 . S
P280 C294 1.812 . S
P280 C300 1.803 . S
P280 C306 1.819 . S
H281 C295 0.941 . S
H282 C296 0.939 . S
H283 C298 0.940 . S
H284 C299 0.940 . S
H285 C301 0.939 . S
H286 C302 0.942 . S
H287 C304 0.940 . S
H288 C305 0.939 . S
H289 C307 0.941 . S
H290 C311 0.939 . S
O291 P280 1.490 . S
H292 C308 0.939 . S
H293 C310 0.940 . S
C294 P280 1.812 . S
C294 C295 1.389 . S
C294 C299 1.391 . S
C295 H281 0.941 . S
C295 C294 1.389 . S
C295 C296 1.397 . S
C296 H282 0.939 . S
C296 C295 1.397 . S
C296 C297 1.378 . S
C297 C296 1.378 . S
C297 C298 1.378 . S
C298 H283 0.940 . S
C298 C297 1.378 . S
C298 C299 1.396 . S
C299 H284 0.940 . S
C299 C294 1.391 . S
C299 C298 1.396 . S
C300 P280 1.803 . S
C300 C301 1.378 . S
C300 C305 1.400 . S
C301 H285 0.939 . S
C301 C300 1.378 . S
C301 C302 1.361 . S
C302 H286 0.942 . S
C302 C301 1.361 . S
C302 C303 1.369 . S
C303 C302 1.369 . S
C303 C304 1.404 . S
C304 H287 0.940 . S
C304 C303 1.404 . S
C304 C305 1.389 . S
C305 H288 0.939 . S
C305 C300 1.400 . S
C305 C304 1.389 . S
C306 P280 1.819 . S
C306 C307 1.391 . S
C306 C311 1.391 . S
C307 H289 0.941 . S
C307 C306 1.391 . S
C307 C308 1.396 . S
C308 H292 0.939 . S
C308 C307 1.396 . S
C308 C309 1.397 . S
C309 C308 1.397 . S
C309 C310 1.385 . S
C310 H293 0.940 . S
C310 C309 1.385 . S
C310 C311 1.388 . S
C311 H290 0.939 . S
C311 C306 1.391 . S
C311 C310 1.388 . S
C312 C313 1.349 . S
C312 C314 1.327 . S
C312 H337 0.950 . S
C313 C312 1.349 . S
C313 C329 1.349 . S
C314 C312 1.327 . S
C314 C333 1.429 . S
C314 H338 0.950 . S
C315 C332 1.574 . S
C315 C334 1.368 . S
C315 H339 0.949 . S
H316 C320 0.949 . S
C317 C318 1.349 . S
C317 C319 1.327 . S
C317 H340 0.950 . S
C318 C317 1.349 . S
C318 C330 1.349 . S
C319 C317 1.327 . S
C319 C335 1.429 . S
C319 H341 0.950 . S
C320 H316 0.949 . S
C320 C328 1.574 . S
C320 C336 1.368 . S
H321 C329 0.950 . S
H322 C327 0.950 . S
H323 C328 0.949 . S
H324 C330 0.950 . S
H325 C331 0.950 . S
H326 C332 0.949 . S
C327 H322 0.950 . S
C327 C329 1.327 . S
C327 C333 1.429 . S
C328 C320 1.574 . S
C328 H323 0.949 . S
C328 C334 1.368 . S
C329 C313 1.349 . S
C329 H321 0.950 . S
C329 C327 1.327 . S
C330 C318 1.349 . S
C330 H324 0.950 . S
C330 C331 1.327 . S
C331 H325 0.950 . S
C331 C330 1.327 . S
C331 C335 1.429 . S
C332 C315 1.574 . S
C332 H326 0.949 . S
C332 C336 1.368 . S
C333 C314 1.429 . S
C333 C327 1.429 . S
C333 C334 1.523 . S
C334 C315 1.368 . S
C334 C328 1.368 . S
C334 C333 1.523 . S
C335 C319 1.429 . S
C335 C331 1.429 . S
C335 C336 1.523 . S
C336 C320 1.368 . S
C336 C332 1.368 . S
C336 C335 1.523 . S
H337 C312 0.950 . S
H338 C314 0.950 . S
H339 C315 0.949 . S
H340 C317 0.950 . S
H341 C319 0.950 . S
C342 C343 1.349 . S
C342 C344 1.327 . S
C342 H367 0.950 . S
C343 C342 1.349 . S
C343 C359 1.349 . S
C344 C342 1.327 . S
C344 C363 1.429 . S
C344 H368 0.950 . S
C345 C362 1.574 . S
C345 C364 1.368 . S
C345 H369 0.949 . S
H346 C350 0.949 . S
C347 C348 1.349 . S
C347 C349 1.327 . S
C347 H370 0.950 . S
C348 C347 1.349 . S
C348 C360 1.349 . S
C349 C347 1.327 . S
C349 C365 1.429 . S
C349 H371 0.950 . S
C350 H346 0.949 . S
C350 C358 1.574 . S
C350 C366 1.368 . S
H351 C359 0.950 . S
H352 C357 0.950 . S
H353 C358 0.949 . S
H354 C360 0.950 . S
H355 C361 0.950 . S
H356 C362 0.949 . S
C357 H352 0.950 . S
C357 C359 1.327 . S
C357 C363 1.429 . S
C358 C350 1.574 . S
C358 H353 0.949 . S
C358 C364 1.368 . S
C359 C343 1.349 . S
C359 H351 0.950 . S
C359 C357 1.327 . S
C360 C348 1.349 . S
C360 H354 0.950 . S
C360 C361 1.327 . S
C361 H355 0.950 . S
C361 C360 1.327 . S
C361 C365 1.429 . S
C362 C345 1.574 . S
C362 H356 0.949 . S
C362 C366 1.368 . S
C363 C344 1.429 . S
C363 C357 1.429 . S
C363 C364 1.523 . S
C364 C345 1.368 . S
C364 C358 1.368 . S
C364 C363 1.523 . S
C365 C349 1.429 . S
C365 C361 1.429 . S
C365 C366 1.523 . S
C366 C350 1.368 . S
C366 C362 1.368 . S
C366 C365 1.523 . S
H367 C342 0.950 . S
H368 C344 0.950 . S
H369 C345 0.949 . S
H370 C347 0.950 . S
H371 C349 0.950 . S
C372 C373 1.349 . S
C372 C374 1.327 . S
C372 H397 0.950 . S
C373 C372 1.349 . S
C373 C389 1.349 . S
C374 C372 1.327 . S
C374 C393 1.429 . S
C374 H398 0.950 . S
C375 C392 1.574 . S
C375 C394 1.368 . S
C375 H399 0.949 . S
H376 C380 0.949 . S
C377 C378 1.349 . S
C377 C379 1.327 . S
C377 H400 0.950 . S
C378 C377 1.349 . S
C378 C390 1.349 . S
C379 C377 1.327 . S
C379 C395 1.429 . S
C379 H401 0.950 . S
C380 H376 0.949 . S
C380 C388 1.574 . S
C380 C396 1.368 . S
H381 C389 0.950 . S
H382 C387 0.950 . S
H383 C388 0.949 . S
H384 C390 0.950 . S
H385 C391 0.950 . S
H386 C392 0.949 . S
C387 H382 0.950 . S
C387 C389 1.327 . S
C387 C393 1.429 . S
C388 C380 1.574 . S
C388 H383 0.949 . S
C388 C394 1.368 . S
C389 C373 1.349 . S
C389 H381 0.950 . S
C389 C387 1.327 . S
C390 C378 1.349 . S
C390 H384 0.950 . S
C390 C391 1.327 . S
C391 H385 0.950 . S
C391 C390 1.327 . S
C391 C395 1.429 . S
C392 C375 1.574 . S
C392 H386 0.949 . S
C392 C396 1.368 . S
C393 C374 1.429 . S
C393 C387 1.429 . S
C393 C394 1.523 . S
C394 C375 1.368 . S
C394 C388 1.368 . S
C394 C393 1.523 . S
C395 C379 1.429 . S
C395 C391 1.429 . S
C395 C396 1.523 . S
C396 C380 1.368 . S
C396 C392 1.368 . S
C396 C395 1.523 . S
H397 C372 0.950 . S
H398 C374 0.950 . S
H399 C375 0.949 . S
H400 C377 0.950 . S
H401 C379 0.950 . S
C402 C403 1.349 . S
C402 C404 1.327 . S
C402 H427 0.950 . S
C403 C402 1.349 . S
C403 C419 1.349 . S
C404 C402 1.327 . S
C404 C423 1.429 . S
C404 H428 0.950 . S
C405 C422 1.574 . S
C405 C424 1.368 . S
C405 H429 0.949 . S
H406 C410 0.949 . S
C407 C408 1.349 . S
C407 C409 1.327 . S
C407 H430 0.950 . S
C408 C407 1.349 . S
C408 C420 1.349 . S
C409 C407 1.327 . S
C409 C425 1.429 . S
C409 H431 0.950 . S
C410 H406 0.949 . S
C410 C418 1.574 . S
C410 C426 1.368 . S
H411 C419 0.950 . S
H412 C417 0.950 . S
H413 C418 0.949 . S
H414 C420 0.950 . S
H415 C421 0.950 . S
H416 C422 0.949 . S
C417 H412 0.950 . S
C417 C419 1.327 . S
C417 C423 1.429 . S
C418 C410 1.574 . S
C418 H413 0.949 . S
C418 C424 1.368 . S
C419 C403 1.349 . S
C419 H411 0.950 . S
C419 C417 1.327 . S
C420 C408 1.349 . S
C420 H414 0.950 . S
C420 C421 1.327 . S
C421 H415 0.950 . S
C421 C420 1.327 . S
C421 C425 1.429 . S
C422 C405 1.574 . S
C422 H416 0.949 . S
C422 C426 1.368 . S
C423 C404 1.429 . S
C423 C417 1.429 . S
C423 C424 1.523 . S
C424 C405 1.368 . S
C424 C418 1.368 . S
C424 C423 1.523 . S
C425 C409 1.429 . S
C425 C421 1.429 . S
C425 C426 1.523 . S
C426 C410 1.368 . S
C426 C422 1.368 . S
C426 C425 1.523 . S
H427 C402 0.950 . S
H428 C404 0.950 . S
H429 C405 0.949 . S
H430 C407 0.950 . S
H431 C409 0.950 . S
C432 C433 1.349 . S
C432 C434 1.327 . S
C432 H457 0.950 . S
C433 C432 1.349 . S
C433 C449 1.349 . S
C434 C432 1.327 . S
C434 C453 1.429 . S
C434 H458 0.950 . S
C435 C452 1.574 . S
C435 C454 1.368 . S
C435 H459 0.949 . S
H436 C440 0.949 . S
C437 C438 1.349 . S
C437 C439 1.327 . S
C437 H460 0.950 . S
C438 C437 1.349 . S
C438 C450 1.349 . S
C439 C437 1.327 . S
C439 C455 1.429 . S
C439 H461 0.950 . S
C440 H436 0.949 . S
C440 C448 1.574 . S
C440 C456 1.368 . S
H441 C449 0.950 . S
H442 C447 0.950 . S
H443 C448 0.949 . S
H444 C450 0.950 . S
H445 C451 0.950 . S
H446 C452 0.949 . S
C447 H442 0.950 . S
C447 C449 1.327 . S
C447 C453 1.429 . S
C448 C440 1.574 . S
C448 H443 0.949 . S
C448 C454 1.368 . S
C449 C433 1.349 . S
C449 H441 0.950 . S
C449 C447 1.327 . S
C450 C438 1.349 . S
C450 H444 0.950 . S
C450 C451 1.327 . S
C451 H445 0.950 . S
C451 C450 1.327 . S
C451 C455 1.429 . S
C452 C435 1.574 . S
C452 H446 0.949 . S
C452 C456 1.368 . S
C453 C434 1.429 . S
C453 C447 1.429 . S
C453 C454 1.523 . S
C454 C435 1.368 . S
C454 C448 1.368 . S
C454 C453 1.523 . S
C455 C439 1.429 . S
C455 C451 1.429 . S
C455 C456 1.523 . S
C456 C440 1.368 . S
C456 C452 1.368 . S
C456 C455 1.523 . S
H457 C432 0.950 . S
H458 C434 0.950 . S
H459 C435 0.949 . S
H460 C437 0.950 . S
H461 C439 0.950 . S
C462 C463 1.349 . S
C462 C464 1.327 . S
C462 H487 0.950 . S
C463 C462 1.349 . S
C463 C479 1.349 . S
C464 C462 1.327 . S
C464 C483 1.429 . S
C464 H488 0.950 . S
C465 C482 1.574 . S
C465 C484 1.368 . S
C465 H489 0.949 . S
H466 C470 0.949 . S
C467 C468 1.349 . S
C467 C469 1.327 . S
C467 H490 0.950 . S
C468 C467 1.349 . S
C468 C480 1.349 . S
C469 C467 1.327 . S
C469 C485 1.429 . S
C469 H491 0.950 . S
C470 H466 0.949 . S
C470 C478 1.574 . S
C470 C486 1.368 . S
H471 C479 0.950 . S
H472 C477 0.950 . S
H473 C478 0.949 . S
H474 C480 0.950 . S
H475 C481 0.950 . S
H476 C482 0.949 . S
C477 H472 0.950 . S
C477 C479 1.327 . S
C477 C483 1.429 . S
C478 C470 1.574 . S
C478 H473 0.949 . S
C478 C484 1.368 . S
C479 C463 1.349 . S
C479 H471 0.950 . S
C479 C477 1.327 . S
C480 C468 1.349 . S
C480 H474 0.950 . S
C480 C481 1.327 . S
C481 H475 0.950 . S
C481 C480 1.327 . S
C481 C485 1.429 . S
C482 C465 1.574 . S
C482 H476 0.949 . S
C482 C486 1.368 . S
C483 C464 1.429 . S
C483 C477 1.429 . S
C483 C484 1.523 . S
C484 C465 1.368 . S
C484 C478 1.368 . S
C484 C483 1.523 . S
C485 C469 1.429 . S
C485 C481 1.429 . S
C485 C486 1.523 . S
C486 C470 1.368 . S
C486 C482 1.368 . S
C486 C485 1.523 . S
H487 C462 0.950 . S
H488 C464 0.950 . S
H489 C465 0.949 . S
H490 C467 0.950 . S
H491 C469 0.950 . S
C492 C493 1.349 . S
C492 C494 1.327 . S
C492 H517 0.950 . S
C493 C492 1.349 . S
C493 C509 1.349 . S
C494 C492 1.327 . S
C494 C513 1.429 . S
C494 H518 0.950 . S
C495 C512 1.574 . S
C495 C514 1.368 . S
C495 H519 0.949 . S
H496 C500 0.949 . S
C497 C498 1.349 . S
C497 C499 1.327 . S
C497 H520 0.950 . S
C498 C497 1.349 . S
C498 C510 1.349 . S
C499 C497 1.327 . S
C499 C515 1.429 . S
C499 H521 0.950 . S
C500 H496 0.949 . S
C500 C508 1.574 . S
C500 C516 1.368 . S
H501 C509 0.950 . S
H502 C507 0.950 . S
H503 C508 0.949 . S
H504 C510 0.950 . S
H505 C511 0.950 . S
H506 C512 0.949 . S
C507 H502 0.950 . S
C507 C509 1.327 . S
C507 C513 1.429 . S
C508 C500 1.574 . S
C508 H503 0.949 . S
C508 C514 1.368 . S
C509 C493 1.349 . S
C509 H501 0.950 . S
C509 C507 1.327 . S
C510 C498 1.349 . S
C510 H504 0.950 . S
C510 C511 1.327 . S
C511 H505 0.950 . S
C511 C510 1.327 . S
C511 C515 1.429 . S
C512 C495 1.574 . S
C512 H506 0.949 . S
C512 C516 1.368 . S
C513 C494 1.429 . S
C513 C507 1.429 . S
C513 C514 1.523 . S
C514 C495 1.368 . S
C514 C508 1.368 . S
C514 C513 1.523 . S
C515 C499 1.429 . S
C515 C511 1.429 . S
C515 C516 1.523 . S
C516 C500 1.368 . S
C516 C512 1.368 . S
C516 C515 1.523 . S
H517 C492 0.950 . S
H518 C494 0.950 . S
H519 C495 0.949 . S
H520 C497 0.950 . S
H521 C499 0.950 . S
C522 C523 1.349 . S
C522 C524 1.327 . S
C522 H547 0.950 . S
C523 C522 1.349 . S
C523 C539 1.349 . S
C524 C522 1.327 . S
C524 C543 1.429 . S
C524 H548 0.950 . S
C525 C542 1.574 . S
C525 C544 1.368 . S
C525 H549 0.949 . S
H526 C530 0.949 . S
C527 C528 1.349 . S
C527 C529 1.327 . S
C527 H550 0.950 . S
C528 C527 1.349 . S
C528 C540 1.349 . S
C529 C527 1.327 . S
C529 C545 1.429 . S
C529 H551 0.950 . S
C530 H526 0.949 . S
C530 C538 1.574 . S
C530 C546 1.368 . S
H531 C539 0.950 . S
H532 C537 0.950 . S
H533 C538 0.949 . S
H534 C540 0.950 . S
H535 C541 0.950 . S
H536 C542 0.949 . S
C537 H532 0.950 . S
C537 C539 1.327 . S
C537 C543 1.429 . S
C538 C530 1.574 . S
C538 H533 0.949 . S
C538 C544 1.368 . S
C539 C523 1.349 . S
C539 H531 0.950 . S
C539 C537 1.327 . S
C540 C528 1.349 . S
C540 H534 0.950 . S
C540 C541 1.327 . S
C541 H535 0.950 . S
C541 C540 1.327 . S
C541 C545 1.429 . S
C542 C525 1.574 . S
C542 H536 0.949 . S
C542 C546 1.368 . S
C543 C524 1.429 . S
C543 C537 1.429 . S
C543 C544 1.523 . S
C544 C525 1.368 . S
C544 C538 1.368 . S
C544 C543 1.523 . S
C545 C529 1.429 . S
C545 C541 1.429 . S
C545 C546 1.523 . S
C546 C530 1.368 . S
C546 C542 1.368 . S
C546 C545 1.523 . S
H547 C522 0.950 . S
H548 C524 0.950 . S
H549 C525 0.949 . S
H550 C527 0.950 . S
H551 C529 0.950 . S
C552 C553 1.349 . S
C552 C554 1.327 . S
C552 H577 0.950 . S
C553 C552 1.349 . S
C553 C569 1.349 . S
C554 C552 1.327 . S
C554 C573 1.429 . S
C554 H578 0.950 . S
C555 C572 1.574 . S
C555 C574 1.368 . S
C555 H579 0.949 . S
H556 C560 0.949 . S
C557 C558 1.349 . S
C557 C559 1.327 . S
C557 H580 0.950 . S
C558 C557 1.349 . S
C558 C570 1.349 . S
C559 C557 1.327 . S
C559 C575 1.429 . S
C559 H581 0.950 . S
C560 H556 0.949 . S
C560 C568 1.574 . S
C560 C576 1.368 . S
H561 C569 0.950 . S
H562 C567 0.950 . S
H563 C568 0.949 . S
H564 C570 0.950 . S
H565 C571 0.950 . S
H566 C572 0.949 . S
C567 H562 0.950 . S
C567 C569 1.327 . S
C567 C573 1.429 . S
C568 C560 1.574 . S
C568 H563 0.949 . S
C568 C574 1.368 . S
C569 C553 1.349 . S
C569 H561 0.950 . S
C569 C567 1.327 . S
C570 C558 1.349 . S
C570 H564 0.950 . S
C570 C571 1.327 . S
C571 H565 0.950 . S
C571 C570 1.327 . S
C571 C575 1.429 . S
C572 C555 1.574 . S
C572 H566 0.949 . S
C572 C576 1.368 . S
C573 C554 1.429 . S
C573 C567 1.429 . S
C573 C574 1.523 . S
C574 C555 1.368 . S
C574 C568 1.368 . S
C574 C573 1.523 . S
C575 C559 1.429 . S
C575 C571 1.429 . S
C575 C576 1.523 . S
C576 C560 1.368 . S
C576 C572 1.368 . S
C576 C575 1.523 . S
H577 C552 0.950 . S
H578 C554 0.950 . S
H579 C555 0.949 . S
H580 C557 0.950 . S
H581 C559 0.950 . S
C582 C583 1.349 . S
C582 C584 1.327 . S
C582 H607 0.950 . S
C583 C582 1.349 . S
C583 C599 1.349 . S
C584 C582 1.327 . S
C584 C603 1.429 . S
C584 H608 0.950 . S
C585 C602 1.574 . S
C585 C604 1.368 . S
C585 H609 0.949 . S
H586 C590 0.949 . S
C587 C588 1.349 . S
C587 C589 1.327 . S
C587 H610 0.950 . S
C588 C587 1.349 . S
C588 C600 1.349 . S
C589 C587 1.327 . S
C589 C605 1.429 . S
C589 H611 0.950 . S
C590 H586 0.949 . S
C590 C598 1.574 . S
C590 C606 1.368 . S
H591 C599 0.950 . S
H592 C597 0.950 . S
H593 C598 0.949 . S
H594 C600 0.950 . S
H595 C601 0.950 . S
H596 C602 0.949 . S
C597 H592 0.950 . S
C597 C599 1.327 . S
C597 C603 1.429 . S
C598 C590 1.574 . S
C598 H593 0.949 . S
C598 C604 1.368 . S
C599 C583 1.349 . S
C599 H591 0.950 . S
C599 C597 1.327 . S
C600 C588 1.349 . S
C600 H594 0.950 . S
C600 C601 1.327 . S
C601 H595 0.950 . S
C601 C600 1.327 . S
C601 C605 1.429 . S
C602 C585 1.574 . S
C602 H596 0.949 . S
C602 C606 1.368 . S
C603 C584 1.429 . S
C603 C597 1.429 . S
C603 C604 1.523 . S
C604 C585 1.368 . S
C604 C598 1.368 . S
C604 C603 1.523 . S
C605 C589 1.429 . S
C605 C601 1.429 . S
C605 C606 1.523 . S
C606 C590 1.368 . S
C606 C602 1.368 . S
C606 C605 1.523 . S
H607 C582 0.950 . S
H608 C584 0.950 . S
H609 C585 0.949 . S
H610 C587 0.950 . S
H611 C589 0.950 . S
C612 C613 1.349 . S
C612 C614 1.327 . S
C612 H637 0.950 . S
C613 C612 1.349 . S
C613 C629 1.349 . S
C614 C612 1.327 . S
C614 C633 1.429 . S
C614 H638 0.950 . S
C615 C632 1.574 . S
C615 C634 1.368 . S
C615 H639 0.949 . S
H616 C620 0.949 . S
C617 C618 1.349 . S
C617 C619 1.327 . S
C617 H640 0.950 . S
C618 C617 1.349 . S
C618 C630 1.349 . S
C619 C617 1.327 . S
C619 C635 1.429 . S
C619 H641 0.950 . S
C620 H616 0.949 . S
C620 C628 1.574 . S
C620 C636 1.368 . S
H621 C629 0.950 . S
H622 C627 0.950 . S
H623 C628 0.949 . S
H624 C630 0.950 . S
H625 C631 0.950 . S
H626 C632 0.949 . S
C627 H622 0.950 . S
C627 C629 1.327 . S
C627 C633 1.429 . S
C628 C620 1.574 . S
C628 H623 0.949 . S
C628 C634 1.368 . S
C629 C613 1.349 . S
C629 H621 0.950 . S
C629 C627 1.327 . S
C630 C618 1.349 . S
C630 H624 0.950 . S
C630 C631 1.327 . S
C631 H625 0.950 . S
C631 C630 1.327 . S
C631 C635 1.429 . S
C632 C615 1.574 . S
C632 H626 0.949 . S
C632 C636 1.368 . S
C633 C614 1.429 . S
C633 C627 1.429 . S
C633 C634 1.523 . S
C634 C615 1.368 . S
C634 C628 1.368 . S
C634 C633 1.523 . S
C635 C619 1.429 . S
C635 C631 1.429 . S
C635 C636 1.523 . S
C636 C620 1.368 . S
C636 C632 1.368 . S
C636 C635 1.523 . S
H637 C612 0.950 . S
H638 C614 0.950 . S
H639 C615 0.949 . S
H640 C617 0.950 . S
H641 C619 0.950 . S
C642 C643 1.349 . S
C642 C644 1.327 . S
C642 H667 0.950 . S
C643 C642 1.349 . S
C643 C659 1.349 . S
C644 C642 1.327 . S
C644 C663 1.429 . S
C644 H668 0.950 . S
C645 C662 1.574 . S
C645 C664 1.368 . S
C645 H669 0.949 . S
H646 C650 0.949 . S
C647 C648 1.349 . S
C647 C649 1.327 . S
C647 H670 0.950 . S
C648 C647 1.349 . S
C648 C660 1.349 . S
C649 C647 1.327 . S
C649 C665 1.429 . S
C649 H671 0.950 . S
C650 H646 0.949 . S
C650 C658 1.574 . S
C650 C666 1.368 . S
H651 C659 0.950 . S
H652 C657 0.950 . S
H653 C658 0.949 . S
H654 C660 0.950 . S
H655 C661 0.950 . S
H656 C662 0.949 . S
C657 H652 0.950 . S
C657 C659 1.327 . S
C657 C663 1.429 . S
C658 C650 1.574 . S
C658 H653 0.949 . S
C658 C664 1.368 . S
C659 C643 1.349 . S
C659 H651 0.950 . S
C659 C657 1.327 . S
C660 C648 1.349 . S
C660 H654 0.950 . S
C660 C661 1.327 . S
C661 H655 0.950 . S
C661 C660 1.327 . S
C661 C665 1.429 . S
C662 C645 1.574 . S
C662 H656 0.949 . S
C662 C666 1.368 . S
C663 C644 1.429 . S
C663 C657 1.429 . S
C663 C664 1.523 . S
C664 C645 1.368 . S
C664 C658 1.368 . S
C664 C663 1.523 . S
C665 C649 1.429 . S
C665 C661 1.429 . S
C665 C666 1.523 . S
C666 C650 1.368 . S
C666 C662 1.368 . S
C666 C665 1.523 . S
H667 C642 0.950 . S
H668 C644 0.950 . S
H669 C645 0.949 . S
H670 C647 0.950 . S
H671 C649 0.950 . S
C672 C673 1.349 . S
C672 C674 1.327 . S
C672 H697 0.950 . S
C673 C672 1.349 . S
C673 C689 1.349 1_455 S
C674 C672 1.327 . S
C674 C693 1.429 . S
C674 H698 0.950 . S
C675 C692 1.574 . S
C675 C694 1.368 1_655 S
C675 H699 0.949 . S
H676 C680 0.949 . S
C677 C678 1.349 1_655 S
C677 C679 1.327 . S
C677 H700 0.950 . S
C678 C677 1.349 1_455 S
C678 C690 1.349 . S
C679 C677 1.327 . S
C679 C695 1.429 1_655 S
C679 H701 0.950 . S
C680 H676 0.949 . S
C680 C688 1.574 . S
C680 C696 1.368 . S
H681 C689 0.950 . S
H682 C687 0.950 . S
H683 C688 0.949 . S
H684 C690 0.950 . S
H685 C691 0.950 . S
H686 C692 0.949 . S
C687 H682 0.950 . S
C687 C689 1.327 . S
C687 C693 1.429 1_655 S
C688 C680 1.574 . S
C688 H683 0.949 . S
C688 C694 1.368 . S
C689 C673 1.349 1_655 S
C689 H681 0.950 . S
C689 C687 1.327 . S
C690 C678 1.349 . S
C690 H684 0.950 . S
C690 C691 1.327 . S
C691 H685 0.950 . S
C691 C690 1.327 . S
C691 C695 1.429 . S
C692 C675 1.574 . S
C692 H686 0.949 . S
C692 C696 1.368 1_655 S
C693 C674 1.429 . S
C693 C687 1.429 1_455 S
C693 C694 1.523 . S
C694 C675 1.368 1_455 S
C694 C688 1.368 . S
C694 C693 1.523 . S
C695 C679 1.429 1_455 S
C695 C691 1.429 . S
C695 C696 1.523 1_556 S
C696 C680 1.368 . S
C696 C692 1.368 1_455 S
C696 C695 1.523 1_554 S
H697 C672 0.950 . S
H698 C674 0.950 . S
H699 C675 0.949 . S
H700 C677 0.950 . S
H701 C679 0.950 . S
C702 C703 1.349 . S
C702 C704 1.327 . S
C702 H727 0.950 1_545 S
C703 C702 1.349 . S
C703 C719 1.349 . S
C704 C702 1.327 . S
C704 C723 1.429 . S
C704 H728 0.950 1_545 S
C705 C722 1.574 . S
C705 C724 1.368 . S
C705 H729 0.949 . S
H706 C710 0.949 1_565 S
C707 C708 1.349 . S
C707 C709 1.327 . S
C707 H730 0.950 . S
C708 C707 1.349 . S
C708 C720 1.349 . S
C709 C707 1.327 . S
C709 C725 1.429 . S
C709 H731 0.950 . S
C710 H706 0.949 1_545 S
C710 C718 1.574 . S
C710 C726 1.368 . S
H711 C719 0.950 . S
H712 C717 0.950 . S
H713 C718 0.949 1_565 S
H714 C720 0.950 1_565 S
H715 C721 0.950 1_565 S
H716 C722 0.949 . S
C717 H712 0.950 . S
C717 C719 1.327 . S
C717 C723 1.429 . S
C718 C710 1.574 . S
C718 H713 0.949 1_545 S
C718 C724 1.368 . S
C719 C703 1.349 . S
C719 H711 0.950 . S
C719 C717 1.327 . S
C720 C708 1.349 . S
C720 H714 0.950 1_545 S
C720 C721 1.327 . S
C721 H715 0.950 1_545 S
C721 C720 1.327 . S
C721 C725 1.429 . S
C722 C705 1.574 . S
C722 H716 0.949 . S
C722 C726 1.368 . S
C723 C704 1.429 . S
C723 C717 1.429 . S
C723 C724 1.523 . S
C724 C705 1.368 . S
C724 C718 1.368 . S
C724 C723 1.523 . S
C725 C709 1.429 . S
C725 C721 1.429 . S
C725 C726 1.523 . S
C726 C710 1.368 . S
C726 C722 1.368 . S
C726 C725 1.523 . S
H727 C702 0.950 1_565 S
H728 C704 0.950 1_565 S
H729 C705 0.949 . S
H730 C707 0.950 . S
H731 C709 0.950 . S
C732 C733 1.349 . S
C732 C734 1.327 . S
C732 H757 0.950 . S
C733 C732 1.349 . S
C733 C749 1.349 . S
C734 C732 1.327 . S
C734 C753 1.429 . S
C734 H758 0.950 . S
C735 C752 1.574 . S
C735 C754 1.368 . S
C735 H759 0.949 . S
H736 C740 0.949 . S
C737 C738 1.349 . S
C737 C739 1.327 . S
C737 H760 0.950 . S
C738 C737 1.349 . S
C738 C750 1.349 . S
C739 C737 1.327 . S
C739 C755 1.429 . S
C739 H761 0.950 . S
C740 H736 0.949 . S
C740 C748 1.574 . S
C740 C756 1.368 . S
H741 C749 0.950 . S
H742 C747 0.950 . S
H743 C748 0.949 . S
H744 C750 0.950 . S
H745 C751 0.950 . S
H746 C752 0.949 . S
C747 H742 0.950 . S
C747 C749 1.327 . S
C747 C753 1.429 . S
C748 C740 1.574 . S
C748 H743 0.949 . S
C748 C754 1.368 . S
C749 C733 1.349 . S
C749 H741 0.950 . S
C749 C747 1.327 . S
C750 C738 1.349 . S
C750 H744 0.950 . S
C750 C751 1.327 . S
C751 H745 0.950 . S
C751 C750 1.327 . S
C751 C755 1.429 . S
C752 C735 1.574 . S
C752 H746 0.949 . S
C752 C756 1.368 . S
C753 C734 1.429 . S
C753 C747 1.429 . S
C753 C754 1.523 . S
C754 C735 1.368 . S
C754 C748 1.368 . S
C754 C753 1.523 . S
C755 C739 1.429 . S
C755 C751 1.429 . S
C755 C756 1.523 . S
C756 C740 1.368 . S
C756 C752 1.368 . S
C756 C755 1.523 . S
H757 C732 0.950 . S
H758 C734 0.950 . S
H759 C735 0.949 . S
H760 C737 0.950 . S
H761 C739 0.950 . S
C762 C763 1.349 1_565 S
C762 C764 1.327 . S
C762 H787 0.950 . S
C763 C762 1.349 1_545 S
C763 C779 1.349 . S
C764 C762 1.327 . S
C764 C783 1.429 1_565 S
C764 H788 0.950 . S
C765 C782 1.574 . S
C765 C784 1.368 . S
C765 H789 0.949 . S
H766 C770 0.949 . S
C767 C768 1.349 . S
C767 C769 1.327 . S
C767 H790 0.950 . S
C768 C767 1.349 . S
C768 C780 1.349 1_545 S
C769 C767 1.327 . S
C769 C785 1.429 . S
C769 H791 0.950 . S
C770 H766 0.949 . S
C770 C778 1.574 . S
C770 C786 1.368 1_565 S
H771 C779 0.950 . S
H772 C777 0.950 . S
H773 C778 0.949 . S
H774 C780 0.950 . S
H775 C781 0.950 . S
H776 C782 0.949 . S
C777 H772 0.950 . S
C777 C779 1.327 . S
C777 C783 1.429 . S
C778 C770 1.574 . S
C778 H773 0.949 . S
C778 C784 1.368 1_565 S
C779 C763 1.349 . S
C779 H771 0.950 . S
C779 C777 1.327 . S
C780 C768 1.349 1_565 S
C780 H774 0.950 . S
C780 C781 1.327 . S
C781 H775 0.950 . S
C781 C780 1.327 . S
C781 C785 1.429 1_565 S
C782 C765 1.574 . S
C782 H776 0.949 . S
C782 C786 1.368 . S
C783 C764 1.429 1_545 S
C783 C777 1.429 . S
C783 C784 1.523 . S
C784 C765 1.368 . S
C784 C778 1.368 1_545 S
C784 C783 1.523 . S
C785 C769 1.429 . S
C785 C781 1.429 1_545 S
C785 C786 1.523 . S
C786 C770 1.368 1_545 S
C786 C782 1.368 . S
C786 C785 1.523 . S
H787 C762 0.950 . S
H788 C764 0.950 . S
H789 C765 0.949 . S
H790 C767 0.950 . S
H791 C769 0.950 . S
C792 C793 1.349 . S
C792 C794 1.327 . S
C792 H817 0.950 . S
C793 C792 1.349 . S
C793 C809 1.349 . S
C794 C792 1.327 . S
C794 C813 1.429 . S
C794 H818 0.950 . S
C795 C812 1.574 . S
C795 C814 1.368 . S
C795 H819 0.949 . S
H796 C800 0.949 . S
C797 C798 1.349 . S
C797 C799 1.327 . S
C797 H820 0.950 . S
C798 C797 1.349 . S
C798 C810 1.349 . S
C799 C797 1.327 . S
C799 C815 1.429 . S
C799 H821 0.950 . S
C800 H796 0.949 . S
C800 C808 1.574 . S
C800 C816 1.368 . S
H801 C809 0.950 . S
H802 C807 0.950 . S
H803 C808 0.949 . S
H804 C810 0.950 . S
H805 C811 0.950 . S
H806 C812 0.949 . S
C807 H802 0.950 . S
C807 C809 1.327 . S
C807 C813 1.429 . S
C808 C800 1.574 . S
C808 H803 0.949 . S
C808 C814 1.368 . S
C809 C793 1.349 . S
C809 H801 0.950 . S
C809 C807 1.327 . S
C810 C798 1.349 . S
C810 H804 0.950 . S
C810 C811 1.327 . S
C811 H805 0.950 . S
C811 C810 1.327 . S
C811 C815 1.429 . S
C812 C795 1.574 . S
C812 H806 0.949 . S
C812 C816 1.368 . S
C813 C794 1.429 . S
C813 C807 1.429 . S
C813 C814 1.523 . S
C814 C795 1.368 . S
C814 C808 1.368 . S
C814 C813 1.523 . S
C815 C799 1.429 . S
C815 C811 1.429 . S
C815 C816 1.523 1_554 S
C816 C800 1.368 . S
C816 C812 1.368 . S
C816 C815 1.523 1_556 S
H817 C792 0.950 . S
H818 C794 0.950 . S
H819 C795 0.949 . S
H820 C797 0.950 . S
H821 C799 0.950 . S
C822 C823 1.349 . S
C822 C824 1.328 . S
C822 H847 0.950 1_455 S
C823 C822 1.349 . S
C823 C839 1.349 . S
C824 C822 1.328 . S
C824 C843 1.432 . S
C824 H848 0.946 1_455 S
C825 C842 1.574 . S
C825 C844 1.368 . S
C825 H849 0.949 . S
H826 C830 0.949 . S
C827 C828 1.350 1_455 S
C827 C829 1.327 . S
C827 H850 0.950 . S
C828 C827 1.350 1_655 S
C828 C840 1.348 . S
C829 C827 1.327 . S
C829 C845 1.429 . S
C829 H851 0.950 . S
C830 H826 0.949 . S
C830 C838 1.574 . S
C830 C846 1.368 1_655 S
H831 C839 0.950 . S
H832 C837 0.950 . S
H833 C838 0.949 . S
H834 C840 0.950 . S
H835 C841 0.950 . S
H836 C842 0.949 . S
C837 H832 0.950 . S
C837 C839 1.327 . S
C837 C843 1.429 . S
C838 C830 1.574 . S
C838 H833 0.949 . S
C838 C844 1.368 1_655 S
C839 C823 1.349 . S
C839 H831 0.950 . S
C839 C837 1.327 . S
C840 C828 1.348 . S
C840 H834 0.950 . S
C840 C841 1.327 . S
C841 H835 0.950 . S
C841 C840 1.327 . S
C841 C845 1.429 1_655 S
C842 C825 1.574 . S
C842 H836 0.949 . S
C842 C846 1.368 . S
C843 C824 1.432 . S
C843 C837 1.429 . S
C843 C844 1.523 . S
C844 C825 1.368 . S
C844 C838 1.368 1_455 S
C844 C843 1.523 . S
C845 C829 1.429 . S
C845 C841 1.429 1_455 S
C845 C846 1.523 . S
C846 C830 1.368 1_455 S
C846 C842 1.368 . S
C846 C845 1.523 . S
H847 C822 0.950 1_655 S
H848 C824 0.946 1_655 S
H849 C825 0.949 . S
H850 C827 0.950 . S
H851 C829 0.950 . S
C313 C19 1.810 . S
C318 C303 1.757 . S
C343 C46 1.160 . S
C348 C239 1.142 . S
C373 C95 0.355 . S
C378 C271 0.311 . S
C403 C10 1.925 . S
C408 C297 1.892 . S
C438 C233 1.212 . S
C433 C55 1.221 . S
C468 C265 0.465 . S
C463 C86 0.421 . S
C493 C59 3.033 . S
C498 C175 2.970 . S
C523 C90 1.908 . S
C528 C207 1.891 . S
C553 C15 1.215 . S
C558 C137 1.210 . S
C588 C169 2.870 . S
C583 C50 2.891 . S
C618 C201 1.814 . S
C613 C99 1.844 . S
C643 C6 1.155 . S
C648 C143 1.147 . S
C678 C213 1.364 . S
C673 C9 1.343 . S
C703 C58 1.454 . S
C708 C149 1.478 . S
C733 C98 1.689 . S
C738 C181 1.727 . S
C768 C277 1.090 . S
C763 C49 1.094 . S
C798 C309 1.346 . S
C793 C89 1.336 . S
C823 C18 1.442 . S
C828 C245 1.455 1_655 S
