# Generated by pormake.
# Topology pts, (4,4)-cn, num edge types: 1
# Building blocks:
#     Node 0, Type 0, BuildingBlock: AZAVOO_clean_linker_0, # of connection points: 4
#     Node 1, Type 0, BuildingBlock: AZAVOO_clean_linker_0, # of connection points: 4
#     Node 2, Type 1, BuildingBlock: AZAVOO_clean_sbu_0, # of connection points: 4
#     Node 3, Type 1, BuildingBlock: AZAVOO_clean_sbu_0, # of connection points: 4
#     Edge 4, Type (0, 1), BuildingBlock: MIFKUJ_clean_linker_0, # of connection points: 2
#     Edge 5, Type (0, 1), BuildingBlock: MIFKUJ_clean_linker_0, # of connection points: 2
#     Edge 6, Type (0, 1), BuildingBlock: MIFKUJ_clean_linker_0, # of connection points: 2
#     Edge 7, Type (0, 1), BuildingBlock: MIFKUJ_clean_linker_0, # of connection points: 2
#     Edge 8, Type (0, 1), BuildingBlock: MIFKUJ_clean_linker_0, # of connection points: 2
#     Edge 9, Type (0, 1), BuildingBlock: MIFKUJ_clean_linker_0, # of connection points: 2
#     Edge 10, Type (0, 1), BuildingBlock: MIFKUJ_clean_linker_0, # of connection points: 2
#     Edge 11, Type (0, 1), BuildingBlock: MIFKUJ_clean_linker_0, # of connection points: 2
# Relax obj value: 0.111
# Max RMSD: 0.230
# Mean RMSD: 0.159
data_MOF--net-pts--node1-AZAVOO_clean_sbu_0--node2-AZAVOO_clean_linker_0--edge1-MIFKUJ_clean_linker_0
_symmetry_space_group_name_H-M    P1
_symmetry_Int_Tables_number       1
_symmetry_cell_setting            triclinic
loop_
_symmetry_equiv_pos_as_xyz
'x, y, z'
_cell_length_a     32.906734
_cell_length_b     33.547888
_cell_length_c     58.068491
_cell_angle_alpha  91.689393
_cell_angle_beta   97.749406
_cell_angle_gamma 89.807965
loop_
_atom_site_label
_atom_site_type_symbol
_atom_site_fract_x
_atom_site_fract_y
_atom_site_fract_z
_atom_type_partial_charge
H0 H 0.50635 0.0047 0.84271 0.0
H1 H 0.83424 0.98431 0.03359 0.0
H2 H 0.47977 0.07718 0.96835 0.0
H3 H 0.41181 0.0745 0.94528 0.0
H4 H 0.39774 0.95287 0.96534 0.0
H5 H 0.46579 0.95601 0.98864 0.0
H6 H 0.5558 0.06108 0.93861 0.0
H7 H 0.53529 0.05006 0.89681 0.0
H8 H 0.49086 0.93266 0.90958 0.0
H9 H 0.51249 0.94369 0.95128 0.0
H10 H 0.64015 0.06643 0.96676 0.0
H11 H 0.69094 0.0595 0.93991 0.0
H12 H 0.66336 0.93362 0.93084 0.0
H13 H 0.6118 0.94119 0.95756 0.0
H14 H 0.65495 0.07896 0.01883 0.0
H15 H 0.72892 0.08007 0.03156 0.0
H16 H 0.7333 0.95224 0.02031 0.0
H17 H 0.65901 0.9514 0.00828 0.0
H18 H 0.59206 0.09063 0.04494 0.0
H19 H 0.64059 0.10125 0.08056 0.0
H20 H 0.65203 0.9739 0.0878 0.0
H21 H 0.60453 0.96349 0.05185 0.0
H22 H 0.48634 0.08532 0.01758 0.0
H23 H 0.43728 0.09584 0.04541 0.0
H24 H 0.46993 0.98122 0.07457 0.0
H25 H 0.5187 0.97093 0.04663 0.0
O26 O 0.51252 0.00917 0.85936 0.0
O27 O 0.48078 0.95363 0.86704 0.0
O28 O 0.79914 0.04703 0.04247 0.0
O29 O 0.8047 0.98431 0.02977 0.0
C30 C 0.52179 0.01555 0.98917 0.0
C31 C 0.55017 0.00917 0.97314 0.0
C32 C 0.59258 0.00893 0.981 0.0
C33 C 0.60674 0.01462 0.00486 0.0
C34 C 0.57844 0.02023 0.02099 0.0
C35 C 0.53583 0.02095 0.01319 0.0
C36 C 0.47751 0.01685 0.98019 0.0
C37 C 0.46136 0.05048 0.96842 0.0
C38 C 0.42262 0.04886 0.95526 0.0
C39 C 0.39968 0.01338 0.95343 0.0
C40 C 0.41494 0.98049 0.96637 0.0
C41 C 0.45353 0.98233 0.97982 0.0
C42 C 0.53561 0.00319 0.94793 0.0
C43 C 0.5416 0.03303 0.93232 0.0
C44 C 0.52986 0.02665 0.90848 0.0
C45 C 0.51158 0.99042 0.89986 0.0
C46 C 0.50484 0.9609 0.91565 0.0
C47 C 0.51702 0.96717 0.93947 0.0
C48 C 0.62253 0.0043 0.96415 0.0
C49 C 0.64511 0.03738 0.95896 0.0
C50 C 0.67427 0.03325 0.94373 0.0
C51 C 0.68157 0.99586 0.93342 0.0
C52 C 0.65833 0.96282 0.93839 0.0
C53 C 0.62902 0.96704 0.95366 0.0
C54 C 0.6516 0.01505 0.0129 0.0
C55 C 0.67184 0.05116 0.01946 0.0
C56 C 0.7141 0.05173 0.02663 0.0
C57 C 0.73699 0.01623 0.0269 0.0
C58 C 0.71657 0.9801 0.02023 0.0
C59 C 0.67419 0.97952 0.01337 0.0
C60 C 0.59479 0.02631 0.04589 0.0
C61 C 0.60366 0.06509 0.05477 0.0
C62 C 0.63162 0.07111 0.07493 0.0
C63 C 0.65014 0.03836 0.08671 0.0
C64 C 0.63792 -0.00042 0.07908 0.0
C65 C 0.61064 0.9936 0.05867 0.0
C66 C 0.50612 0.02736 0.03007 0.0
C67 C 0.4827 0.06242 0.0299 0.0
C68 C 0.45464 0.06833 0.04577 0.0
C69 C 0.44974 0.0394 0.06224 0.0
C70 C 0.47335 0.00432 0.06233 0.0
C71 C 0.50116 0.99834 0.04636 0.0
C72 C 0.50047 0.98323 0.87447 0.0
C73 C 0.78209 0.0169 0.03364 0.0
H74 H 0.07923 0.54162 0.36671 0.0
H75 H 0.10622 0.83164 0.56937 0.0
H76 H 0.01723 0.50083 0.48568 0.0
H77 H 0.01983 0.44226 0.46008 0.0
H78 H 0.1463 0.42319 0.48892 0.0
H79 H 0.14348 0.48279 0.51417 0.0
H80 H 0.02915 0.57691 0.45807 0.0
H81 H 0.03818 0.56477 0.41728 0.0
H82 H 0.16332 0.52793 0.43873 0.0
H83 H 0.15399 0.5407 0.47939 0.0
H84 H 0.02403 0.65758 0.48631 0.0
H85 H 0.02453 0.70126 0.45327 0.0
H86 H 0.15251 0.67393 0.45153 0.0
H87 H 0.15181 0.63061 0.48471 0.0
H88 H 0.01391 0.65696 0.54039 0.0
H89 H 0.01067 0.7259 0.55499 0.0
H90 H 0.13877 0.74144 0.54789 0.0
H91 H 0.14171 0.67226 0.5336 0.0
H92 H 0.00797 0.57543 0.56344 0.0
H93 H 0.99369 0.60315 0.60101 0.0
H94 H 0.11775 0.64825 0.61471 0.0
H95 H 0.13193 0.61957 0.57743 0.0
H96 H 0.01354 0.49593 0.53724 0.0
H97 H 0.01094 0.43979 0.56312 0.0
H98 H 0.13483 0.46611 0.59471 0.0
H99 H 0.13719 0.52203 0.56865 0.0
O100 O 0.07604 0.54545 0.38296 0.0
O101 O 0.14061 0.52824 0.39493 0.0
O102 O 0.04091 0.79468 0.56706 0.0
O103 O 0.10662 0.8043 0.5636 0.0
C104 C 0.08162 0.53736 0.51145 0.0
C105 C 0.08596 0.56873 0.49631 0.0
C106 C 0.08528 0.6087 0.50446 0.0
C107 C 0.08021 0.61744 0.5278 0.0
C108 C 0.07688 0.58598 0.54321 0.0
C109 C 0.07772 0.54589 0.535 0.0
C110 C 0.08011 0.49592 0.50179 0.0
C111 C 0.04501 0.48313 0.48707 0.0
C112 C 0.04666 0.44967 0.47238 0.0
C113 C 0.08348 0.42829 0.47221 0.0
C114 C 0.1177 0.43944 0.48835 0.0
C115 C 0.116 0.47304 0.50305 0.0
C116 C 0.09092 0.55968 0.47162 0.0
C117 C 0.05844 0.56615 0.45388 0.0
C118 C 0.06369 0.55917 0.43063 0.0
C119 C 0.10152 0.54551 0.42475 0.0
C120 C 0.13382 0.53853 0.44265 0.0
C121 C 0.12855 0.54564 0.46588 0.0
C122 C 0.08787 0.64101 0.48785 0.0
C123 C 0.05243 0.66197 0.4792 0.0
C124 C 0.05273 0.68668 0.46029 0.0
C125 C 0.08843 0.69049 0.44968 0.0
C126 C 0.12442 0.67098 0.45915 0.0
C127 C 0.1242 0.64663 0.4782 0.0
C128 C 0.07807 0.65963 0.53603 0.0
C129 C 0.04124 0.67529 0.54206 0.0
C130 C 0.03947 0.71469 0.55035 0.0
C131 C 0.0745 0.73919 0.55263 0.0
C132 C 0.11125 0.72341 0.54636 0.0
C133 C 0.113 0.68396 0.53814 0.0
C134 C 0.07093 0.59562 0.56768 0.0
C135 C 0.03238 0.59023 0.57489 0.0
C136 C 0.02418 0.60644 0.59625 0.0
C137 C 0.05444 0.6283 0.61076 0.0
C138 C 0.09386 0.63131 0.6041 0.0
C139 C 0.10201 0.61508 0.58276 0.0
C140 C 0.07556 0.51285 0.5511 0.0
C141 C 0.04001 0.48957 0.54981 0.0
C142 C 0.03852 0.45775 0.56467 0.0
C143 C 0.07272 0.44861 0.58091 0.0
C144 C 0.10819 0.47226 0.58222 0.0
C145 C 0.10952 0.50424 0.56748 0.0
C146 C 0.10736 0.53908 0.40002 0.0
C147 C 0.07283 0.78102 0.56153 0.0
Mg148 Mg 0.11736 0.05037 0.26769 0.0
O149 O 0.0518 0.0474 0.24708 0.0
O150 O 0.00945 0.03543 0.27315 0.0
Mg151 Mg 0.04506 0.03233 0.30931 0.0
C152 C 0.01579 0.04129 0.25232 0.0
C153 C 0.18414 0.06773 0.23921 0.0
O154 O 0.20173 0.05498 0.25932 0.0
O155 O 0.10498 0.11344 0.28194 0.0
O156 O 0.06229 0.09775 0.30725 0.0
O157 O 0.12428 0.98371 0.26466 0.0
O158 O 0.09924 0.01529 0.29342 0.0
C159 C 0.08246 0.12333 0.29752 0.0
C160 C 0.10821 0.98206 0.28375 0.0
O161 O 0.14539 0.07227 0.23633 0.0
Mg162 Mg 0.98278 0.04525 0.74407 0.0
O163 O 0.04678 0.03343 0.76255 0.0
O164 O 0.08477 -0.00049 0.73968 0.0
Mg165 Mg 0.04408 0.99354 0.70433 0.0
C166 C 0.08011 0.01623 0.75918 0.0
C167 C 0.96639 0.09361 0.79285 0.0
O168 O 0.97168 0.12725 0.80505 0.0
O169 O 0.00722 0.09418 0.72358 0.0
O170 O 0.04526 0.06172 0.69998 0.0
O171 O 0.96384 0.98395 0.75416 0.0
O172 O 0.98779 0.99706 0.72151 0.0
C173 C 0.03061 0.09399 0.70776 0.0
C174 C 0.97567 0.9711 0.73487 0.0
O175 O 0.97713 0.09215 0.77265 0.0
H176 H 0.37135 0.06889 0.0546 0.0
H177 H 0.32273 0.07769 0.08277 0.0
H178 H 0.41315 0.03328 0.13671 0.0
H179 H 0.46165 0.02419 0.10865 0.0
H180 H 0.34192 -0.00069 0.13863 0.0
H181 H 0.38812 0.1341 0.13225 0.0
H182 H 0.40103 0.19512 0.1117 0.0
H183 H 0.27247 0.20494 0.08706 0.0
H184 H 0.25886 0.14364 0.10722 0.0
H185 H 0.26659 0.05809 0.24093 0.0
H186 H 0.30703 0.05729 0.20878 0.0
H187 H 0.19921 0.08565 0.16132 0.0
H188 H 0.158 0.08644 0.19366 0.0
H189 H 0.27248 0.12728 0.15337 0.0
H190 H 0.22667 0.99386 0.16207 0.0
H191 H 0.21484 0.9337 0.18364 0.0
H192 H 0.34443 0.92206 0.20462 0.0
H193 H 0.357 0.98254 0.18346 0.0
C194 C 0.38098 0.06138 0.07252 0.0
C195 C 0.42036 0.04575 0.07937 0.0
C196 C 0.35315 0.06644 0.08862 0.0
C197 C 0.36432 0.05644 0.11195 0.0
C198 C 0.40371 0.04106 0.11881 0.0
C199 C 0.4314 0.03578 0.10273 0.0
C200 C 0.33485 0.06082 0.12919 0.0
C201 C 0.32712 0.02744 0.14196 0.0
C202 C 0.31441 0.09717 0.13312 0.0
C203 C 0.32254 0.13404 0.12102 0.0
C204 C 0.36265 0.14908 0.12229 0.0
C205 C 0.37009 0.18375 0.11074 0.0
C206 C 0.33761 0.20382 0.09802 0.0
C207 C 0.29761 0.18932 0.09688 0.0
C208 C 0.29001 0.15463 0.10837 0.0
C209 C 0.25134 0.06457 0.22373 0.0
C210 C 0.20889 0.07196 0.21986 0.0
C211 C 0.27459 0.06403 0.20535 0.0
C212 C 0.25603 0.07084 0.18263 0.0
C213 C 0.21406 0.08018 0.17874 0.0
C214 C 0.19058 0.08056 0.19722 0.0
C215 C 0.28049 0.06603 0.16302 0.0
C216 C 0.28713 0.09916 0.14982 0.0
C217 C 0.30014 0.0295 0.15871 0.0
C218 C 0.29273 0.99293 0.17133 0.0
C219 C 0.25262 0.97865 0.17143 0.0
C220 C 0.24578 0.94447 0.18356 0.0
C221 C 0.27885 0.92412 0.19553 0.0
C222 C 0.31884 0.93787 0.19535 0.0
C223 C 0.32584 0.97209 0.18327 0.0
H224 H 0.2735 0.89765 0.20491 0.0
H225 H 0.34343 0.23067 0.0891 0.0
H226 H 0.13153 0.39162 0.59034 0.0
H227 H 0.12874 0.33301 0.61422 0.0
H228 H 0.00878 0.36843 0.62931 0.0
H229 H 0.01153 0.42737 0.60561 0.0
H230 H 0.06145 0.3427 0.66852 0.0
H231 H 0.01507 0.2989 0.58921 0.0
H232 H 0.02143 0.29013 0.54753 0.0
H233 H 0.13128 0.22156 0.5644 0.0
H234 H 0.12588 0.23043 0.60622 0.0
H235 H 0.98741 0.16352 0.70841 0.0
H236 H 0.99924 0.22502 0.689 0.0
H237 H 0.10642 0.17297 0.66469 0.0
H238 H 0.09363 0.11062 0.68327 0.0
H239 H 0.0647 0.20818 0.63095 0.0
H240 H 0.11121 0.24799 0.70964 0.0
H241 H 0.10789 0.25733 0.75163 0.0
H242 H 0.00309 0.33359 0.73707 0.0
H243 H 0.00543 0.32429 0.69497 0.0
C244 C 0.10477 0.38714 0.59896 0.0
C245 C 0.07167 0.41395 0.59607 0.0
C246 C 0.10314 0.35358 0.61248 0.0
C247 C 0.06843 0.34632 0.62337 0.0
C248 C 0.0358 0.37355 0.62101 0.0
C249 C 0.03727 0.40697 0.60735 0.0
C250 C 0.06557 0.30964 0.63661 0.0
C251 C 0.06177 0.31323 0.66034 0.0
C252 C 0.06726 0.27131 0.62599 0.0
C253 C 0.0703 0.26567 0.60084 0.0
C254 C 0.04075 0.28222 0.58404 0.0
C255 C 0.04415 0.27719 0.56039 0.0
C256 C 0.0768 0.2554 0.55332 0.0
C257 C 0.10604 0.23849 0.56989 0.0
C258 C 0.10281 0.24348 0.59357 0.0
C259 C 0.01374 0.16527 0.69912 0.0
C260 C 0.03959 0.13218 0.69737 0.0
C261 C 0.02062 0.20059 0.68812 0.0
C262 C 0.05411 0.20397 0.67564 0.0
C263 C 0.08037 0.17114 0.67421 0.0
C264 C 0.07308 0.13553 0.68486 0.0
C265 C 0.06041 0.24094 0.66306 0.0
C266 C 0.06476 0.2375 0.63935 0.0
C267 C 0.05974 0.27939 0.67381 0.0
C268 C 0.05831 0.28517 0.69913 0.0
C269 C 0.08728 0.26653 0.71538 0.0
C270 C 0.0856 0.27185 0.7392 0.0
C271 C 0.05525 0.29596 0.74701 0.0
C272 C 0.02657 0.31489 0.731 0.0
C273 C 0.02809 0.30965 0.70715 0.0
H274 H 0.05399 0.30004 0.76546 0.0
H275 H 0.07938 0.25154 0.53501 0.0
H276 H 0.72029 0.07771 0.08236 0.0
H277 H 0.78333 0.08122 0.11016 0.0
H278 H 0.72458 0.01486 0.15896 0.0
H279 H 0.66156 0.01052 0.13089 0.0
H280 H 0.77292 0.08539 0.17808 0.0
H281 H 0.78187 0.96483 0.13231 0.0
H282 H 0.78035 0.92401 0.09622 0.0
H283 H 0.87934 0.99281 0.07664 0.0
H284 H 0.88095 0.03458 0.11247 0.0
H285 H 0.93762 0.0189 0.25639 0.0
H286 H 0.87706 0.02227 0.22754 0.0
H287 H 0.95018 0.06813 0.17795 0.0
H288 H 0.01172 0.06429 0.20686 0.0
H289 H 0.89559 0.01256 0.15804 0.0
H290 H 0.8898 0.13051 0.20554 0.0
H291 H 0.89179 0.16997 0.24217 0.0
H292 H 0.78691 0.10646 0.2587 0.0
H293 H 0.78464 0.06618 0.22232 0.0
C294 C 0.72066 0.06451 0.09919 0.0
C295 C 0.68611 0.04416 0.10467 0.0
C296 C 0.75666 0.06631 0.11495 0.0
C297 C 0.75851 0.04824 0.13654 0.0
C298 C 0.7236 0.02907 0.14238 0.0
C299 C 0.68777 0.02658 0.12642 0.0
C300 C 0.79744 0.04796 0.15259 0.0
C301 C 0.79967 0.06921 0.17385 0.0
C302 C 0.83251 0.02768 0.14668 0.0
C303 C 0.83122 0.00311 0.12494 0.0
C304 C 0.80297 0.9716 0.12017 0.0
C305 C 0.80217 0.94821 0.0998 0.0
C306 C 0.82974 0.9558 0.08416 0.0
C307 C 0.85803 0.98695 0.08879 0.0
C308 C 0.85888 0.01051 0.10912 0.0
C309 C 0.94108 0.02973 0.23938 0.0
C310 C 0.97962 0.0417 0.23405 0.0
C311 C 0.90625 0.03177 0.2229 0.0
C312 C 0.90889 0.04624 0.20075 0.0
C313 C 0.94742 0.05714 0.19503 0.0
C314 C 0.98254 0.05494 0.21156 0.0
C315 C 0.87117 0.04978 0.18375 0.0
C316 C 0.86907 0.02914 0.16225 0.0
C317 C 0.8362 0.07073 0.18944 0.0
C318 C 0.83725 0.09511 0.21127 0.0
C319 C 0.86733 0.12476 0.21706 0.0
C320 C 0.86848 0.1473 0.23777 0.0
C321 C 0.83954 0.14067 0.25278 0.0
C322 C 0.80932 0.11154 0.24707 0.0
C323 C 0.80806 0.08888 0.22639 0.0
H324 H 0.84049 0.15815 0.26881 0.0
H325 H 0.82927 0.93741 0.0685 0.0
H326 H 0.10022 0.63818 0.65381 0.0
H327 H 0.08636 0.68384 0.68555 0.0
H328 H 0.97189 0.7175 0.6456 0.0
H329 H 0.98544 0.67215 0.61407 0.0
H330 H 0.08196 0.76068 0.68418 0.0
H331 H 0.90311 0.75005 0.67829 0.0
H332 H 0.84982 0.69789 0.67305 0.0
H333 H 0.93897 0.61041 0.69852 0.0
H334 H 0.99271 0.66212 0.70427 0.0
H335 H 0.98605 0.93938 0.6928 0.0
H336 H 0.99952 0.87045 0.68249 0.0
H337 H 0.98664 0.83574 0.75204 0.0
H338 H 0.97333 0.90588 0.7628 0.0
H339 H 0.94774 0.78234 0.71264 0.0
H340 H 0.07641 0.83748 0.74412 0.0
H341 H 0.12909 0.89017 0.75056 0.0
H342 H 0.14264 0.88463 0.67803 0.0
H343 H 0.08948 0.83241 0.67105 0.0
C344 C 0.07181 0.6549 0.65198 0.0
C345 C 0.04392 0.65146 0.6314 0.0
C346 C 0.06386 0.68087 0.67016 0.0
C347 C 0.02785 0.70386 0.66815 0.0
C348 C 0.99938 0.69941 0.64792 0.0
C349 C 0.00721 0.6734 0.62982 0.0
C350 C 0.02199 0.73594 0.68565 0.0
C351 C 0.05288 0.76488 0.69076 0.0
C352 C 0.9844 0.74122 0.69477 0.0
C353 C 0.95203 0.71003 0.69163 0.0
C354 C 0.91133 0.71976 0.68295 0.0
C355 C 0.88104 0.69024 0.67984 0.0
C356 C 0.89101 0.65085 0.68541 0.0
C357 C 0.9313 0.64091 0.69415 0.0
C358 C 0.96171 0.67032 0.69731 0.0
C359 C 0.98596 0.91727 0.70601 0.0
C360 C 0.97933 0.92823 0.72876 0.0
C361 C 0.99353 0.8778 0.70002 0.0
C362 C 0.99465 0.84818 0.71658 0.0
C363 C 0.98605 0.85835 0.73907 0.0
C364 C 0.9785 0.8983 0.74517 0.0
C365 C 0.0069 0.80736 0.70996 0.0
C366 C 0.97725 0.77712 0.70673 0.0
C367 C 0.04588 0.80044 0.70292 0.0
C368 C 0.07884 0.83103 0.70706 0.0
C369 C 0.09049 0.8476 0.72951 0.0
C370 C 0.12043 0.87741 0.73326 0.0
C371 C 0.13918 0.89076 0.71471 0.0
C372 C 0.12812 0.87423 0.69239 0.0
C373 C 0.09812 0.84446 0.68853 0.0
H374 H 0.1623 0.9139 0.71764 0.0
H375 H 0.86752 0.62804 0.68298 0.0
H376 H 0.38157 0.95383 0.92092 0.0
H377 H 0.32496 0.95138 0.88892 0.0
H378 H 0.27803 0.06225 0.91406 0.0
H379 H 0.3348 0.0649 0.94619 0.0
H380 H 0.21617 0.00379 0.89845 0.0
H381 H 0.33162 0.06789 0.87276 0.0
H382 H 0.40336 0.075 0.86559 0.0
H383 H 0.39191 0.96916 0.82181 0.0
H384 H 0.32022 0.96102 0.82903 0.0
H385 H 0.08947 0.06407 0.79822 0.0
H386 H 0.14237 0.06066 0.83174 0.0
H387 H 0.19873 0.96169 0.79896 0.0
H388 H 0.14642 0.96588 0.76481 0.0
H389 H 0.25531 0.01115 0.81905 0.0
H390 H 0.13768 0.949 0.84331 0.0
H391 H 0.06499 0.94475 0.84917 0.0
H392 H 0.07965 0.04764 0.89528 0.0
H393 H 0.15232 0.05285 0.88945 0.0
C394 C 0.35867 0.97721 0.91993 0.0
C395 C 0.36247 0.00953 0.93604 0.0
C396 C 0.32655 0.97591 0.90157 0.0
C397 C 0.29756 0.00678 0.89907 0.0
C398 C 0.30014 0.03815 0.91573 0.0
C399 C 0.33257 0.03971 0.93397 0.0
C400 C 0.26618 0.00755 0.87825 0.0
C401 C 0.2246 0.00571 0.88108 0.0
C402 C 0.27737 0.0093 0.85562 0.0
C403 C 0.3207 0.01362 0.85163 0.0
C404 C 0.34454 0.04585 0.86183 0.0
C405 C 0.38515 0.05013 0.85771 0.0
C406 C 0.40212 0.02257 0.84324 0.0
C407 C 0.37866 0.99049 0.833 0.0
C408 C 0.33805 0.98602 0.8371 0.0
C409 C 0.11316 0.04159 0.79807 0.0
C410 C 0.1136 0.01504 0.7789 0.0
C411 C 0.14326 0.03952 0.81735 0.0
C412 C 0.17397 0.01028 0.81815 0.0
C413 C 0.17514 0.98432 0.7988 0.0
C414 C 0.14527 0.98675 0.77929 0.0
C415 C 0.20503 0.00724 0.83911 0.0
C416 C 0.24669 0.00876 0.83635 0.0
C417 C 0.19383 0.00514 0.86179 0.0
C418 C 0.15039 0.00147 0.8658 0.0
C419 C 0.12537 0.97082 0.85462 0.0
C420 C 0.08416 0.96825 0.85794 0.0
C421 C 0.06769 0.99597 0.87254 0.0
C422 C 0.09245 0.02621 0.88396 0.0
C423 C 0.13366 0.02895 0.88068 0.0
H424 H 0.03575 0.994 0.87503 0.0
H425 H 0.43336 0.02623 0.83983 0.0
H426 H 0.14757 0.41488 0.44737 0.0
H427 H 0.15097 0.36691 0.4152 0.0
H428 H 0.02953 0.32503 0.42221 0.0
H429 H 0.02676 0.37148 0.45511 0.0
H430 H 0.07608 0.26461 0.41534 0.0
H431 H 0.04963 0.39075 0.37906 0.0
H432 H 0.06148 0.46092 0.37038 0.0
H433 H 0.17744 0.42941 0.34877 0.0
H434 H 0.16651 0.35908 0.35761 0.0
H435 H 0.01824 0.16272 0.31188 0.0
H436 H 0.02191 0.22085 0.33831 0.0
H437 H 0.15049 0.234 0.33271 0.0
H438 H 0.14684 0.17571 0.30582 0.0
H439 H 0.1064 0.30865 0.33857 0.0
H440 H 0.12961 0.18091 0.37413 0.0
H441 H 0.11276 0.11067 0.37996 0.0
H442 H 0.99818 0.14655 0.40179 0.0
H443 H 0.01406 0.21699 0.39571 0.0
C444 C 0.12191 0.39489 0.44239 0.0
C445 C 0.08688 0.39701 0.45387 0.0
C446 C 0.12365 0.36791 0.42373 0.0
C447 C 0.09021 0.34284 0.41597 0.0
C448 C 0.05565 0.34422 0.42777 0.0
C449 C 0.054 0.37096 0.44651 0.0
C450 C 0.09111 0.31479 0.39574 0.0
C451 C 0.08236 0.27446 0.39854 0.0
C452 C 0.10029 0.32728 0.37388 0.0
C453 C 0.10744 0.36972 0.36922 0.0
C454 C 0.07787 0.39886 0.37271 0.0
C455 C 0.08437 0.43865 0.3677 0.0
C456 C 0.1202 0.44961 0.35902 0.0
C457 C 0.14971 0.42086 0.35548 0.0
C458 C 0.14337 0.38104 0.36048 0.0
C459 C 0.04697 0.17883 0.31562 0.0
C460 C 0.08237 0.16456 0.30703 0.0
C461 C 0.04905 0.21194 0.33078 0.0
C462 C 0.08667 0.23103 0.33787 0.0
C463 C 0.12122 0.21944 0.3275 0.0
C464 C 0.11907 0.18631 0.31208 0.0
C465 C 0.09062 0.25905 0.35824 0.0
C466 C 0.10045 0.29906 0.35548 0.0
C467 C 0.08211 0.24647 0.38015 0.0
C468 C 0.0729 0.20419 0.3843 0.0
C469 C 0.10072 0.1738 0.38004 0.0
C470 C 0.09134 0.13396 0.3834 0.0
C471 C 0.05439 0.12415 0.39121 0.0
C472 C 0.02679 0.15419 0.39574 0.0
C473 C 0.03597 0.19408 0.39236 0.0
H474 H 0.04718 0.09328 0.39378 0.0
H475 H 0.12504 0.48034 0.35494 0.0
H476 H 0.67807 0.95232 0.89229 0.0
H477 H 0.72879 0.95117 0.8649 0.0
H478 H 0.80711 0.0296 0.91135 0.0
H479 H 0.75743 0.03013 0.93893 0.0
H480 H 0.78852 0.05757 0.86646 0.0
H481 H 0.83464 0.93722 0.90538 0.0
H482 H 0.82703 0.86911 0.91903 0.0
H483 H 0.79444 0.82623 0.84858 0.0
H484 H 0.80129 0.89428 0.83451 0.0
H485 H 0.9791 0.07074 0.83733 0.0
H486 H 0.93169 0.03218 0.8567 0.0
H487 H 0.85993 0.0041 0.79054 0.0
H488 H 0.90783 0.04271 0.7709 0.0
H489 H 0.86904 0.94414 0.83943 0.0
H490 H 0.81573 0.06902 0.80163 0.0
H491 H 0.82871 0.13723 0.78953 0.0
H492 H 0.8778 0.1703 0.85977 0.0
H493 H 0.86554 0.10206 0.87216 0.0
C494 C 0.70648 0.96865 0.89686 0.0
C495 C 0.71345 0.99183 0.91764 0.0
C496 C 0.73536 0.96798 0.88119 0.0
C497 C 0.77153 0.99047 0.88608 0.0
C498 C 0.77921 0.01229 0.90719 0.0
C499 C 0.75063 0.01278 0.92285 0.0
C500 C 0.80003 0.9944 0.86861 0.0
C501 C 0.80576 0.0326 0.86046 0.0
C502 C 0.82214 0.96177 0.86048 0.0
C503 C 0.81792 0.92093 0.86892 0.0
C504 C 0.8254 0.91336 0.89281 0.0
C505 C 0.82133 0.87474 0.90062 0.0
C506 C 0.8101 0.84338 0.88469 0.0
C507 C 0.80304 0.85057 0.8609 0.0
C508 C 0.80702 0.88915 0.853 0.0
C509 C 0.95427 0.05483 0.8268 0.0
C510 C 0.94669 0.05997 0.80271 0.0
C511 C 0.92739 0.03258 0.83787 0.0
C512 C 0.89227 0.01558 0.82504 0.0
C513 C 0.88715 0.01672 0.80066 0.0
C514 C 0.91443 0.03883 0.78948 0.0
C515 C 0.85712 0.00716 0.8375 0.0
C516 C 0.85054 0.96857 0.84489 0.0
C517 C 0.83382 0.03928 0.84498 0.0
C518 C 0.83996 0.08054 0.83775 0.0
C519 C 0.82942 0.09086 0.81444 0.0
C520 C 0.83665 0.12948 0.80754 0.0
C521 C 0.85414 0.15807 0.82387 0.0
C522 C 0.86428 0.14813 0.84715 0.0
C523 C 0.85715 0.10952 0.85412 0.0
H524 H 0.85977 0.18794 0.81849 0.0
H525 H 0.807 0.8135 0.89077 0.0
H526 H 0.11894 0.668 0.40983 0.0
H527 H 0.11768 0.70587 0.37432 0.0
H528 H 0.05476 0.80206 0.40562 0.0
H529 H 0.05556 0.76416 0.441 0.0
H530 H 0.02184 0.78837 0.36144 0.0
H531 H 0.15974 0.80337 0.40351 0.0
H532 H 0.22649 0.7781 0.42184 0.0
H533 H 0.24743 0.72242 0.35694 0.0
H534 H 0.18051 0.74699 0.33831 0.0
H535 H 0.0746 0.97149 0.32346 0.0
H536 H 0.06538 0.9099 0.34274 0.0
H537 H 0.11733 0.8437 0.28901 0.0
H538 H 0.12582 0.90608 0.2689 0.0
H539 H 0.15296 0.82745 0.33505 0.0
H540 H 0.02074 0.82809 0.2915 0.0
H541 H 0.95519 0.85693 0.274 0.0
H542 H 0.9238 0.8856 0.34195 0.0
H543 H 0.98943 0.85751 0.3599 0.0
C544 C 0.10508 0.69735 0.40914 0.0
C545 C 0.08769 0.71338 0.42822 0.0
C546 C 0.10423 0.71884 0.38883 0.0
C547 C 0.08643 0.75691 0.38739 0.0
C548 C 0.06849 0.77265 0.40631 0.0
C549 C 0.06904 0.75106 0.42653 0.0
C550 C 0.08748 0.7813 0.36661 0.0
C551 C 0.05047 0.79691 0.35564 0.0
C552 C 0.12472 0.79113 0.35843 0.0
C553 C 0.16496 0.77656 0.36961 0.0
C554 C 0.17847 0.78549 0.39321 0.0
C555 C 0.21633 0.77134 0.40364 0.0
C556 C 0.24112 0.74856 0.39058 0.0
C557 C 0.22815 0.73999 0.36704 0.0
C558 C 0.19027 0.75402 0.35654 0.0
C559 C 0.08308 0.94398 0.31523 0.0
C560 C 0.10035 0.9438 0.29438 0.0
C561 C 0.07785 0.90864 0.32639 0.0
C562 C 0.0901 0.87222 0.31712 0.0
C563 C 0.10731 0.87158 0.29627 0.0
C564 C 0.11209 0.90716 0.28484 0.0
C565 C 0.0875 0.83589 0.33066 0.0
C566 C 0.12417 0.81795 0.34031 0.0
C567 C 0.04997 0.82409 0.33772 0.0
C568 C 0.01015 0.84072 0.32705 0.0
C569 C 0.99998 0.84074 0.30273 0.0
C570 C 0.96278 0.85695 0.29272 0.0
C571 C 0.93535 0.8731 0.30685 0.0
C572 C 0.94505 0.87303 0.33103 0.0
C573 C 0.98223 0.85689 0.34113 0.0
H574 H 0.90658 0.88566 0.29907 0.0
H575 H 0.27043 0.73763 0.39868 0.0
loop_
_geom_bond_atom_site_label_1
_geom_bond_atom_site_label_2
_geom_bond_distance
_geom_bond_site_symmetry_2
_ccdc_geom_bond_type
H0 O26 0.856 . S
H1 O29 0.854 . S
H2 C37 0.930 . S
H3 C38 0.930 . S
H4 C40 0.930 1_565 S
H5 C41 0.930 1_565 S
H6 C43 0.931 . S
H7 C44 0.930 . S
H8 C46 0.930 . S
H9 C47 0.929 . S
H10 C49 0.930 . S
H11 C50 0.931 . S
H12 C52 0.930 . S
H13 C53 0.929 . S
H14 C55 0.931 . S
H15 C56 0.930 . S
H16 C58 0.930 . S
H17 C59 0.935 . S
H18 C61 0.930 . S
H19 C62 0.929 . S
H20 C64 0.931 1_565 S
H21 C65 0.930 1_565 S
H22 C67 0.929 . S
H23 C68 0.931 . S
H24 C70 0.930 . S
H25 C71 0.929 . S
O26 H0 0.856 . S
O26 C72 1.300 . S
O27 C72 1.209 1_565 S
O28 C73 1.199 . S
O29 H1 0.854 . S
O29 C73 1.297 1_565 S
C30 C31 1.404 . S
C30 C35 1.397 1_556 S
C30 C36 1.492 . S
C31 C30 1.404 . S
C31 C32 1.396 . S
C31 C42 1.492 . S
C32 C31 1.396 . S
C32 C33 1.397 1_556 S
C32 C48 1.509 . S
C33 C32 1.397 1_554 S
C33 C34 1.412 . S
C33 C54 1.485 . S
C34 C33 1.412 . S
C34 C35 1.388 . S
C34 C60 1.490 . S
C35 C30 1.397 1_554 S
C35 C34 1.388 . S
C35 C66 1.519 . S
C36 C30 1.492 . S
C36 C37 1.363 . S
C36 C41 1.390 . S
C37 H2 0.930 . S
C37 C36 1.363 . S
C37 C38 1.372 . S
C38 H3 0.930 . S
C38 C37 1.372 . S
C38 C39 1.383 . S
C39 C38 1.383 . S
C39 C40 1.395 . S
C40 H4 0.930 1_545 S
C40 C39 1.395 . S
C40 C41 1.362 . S
C41 H5 0.930 1_545 S
C41 C36 1.390 . S
C41 C40 1.362 . S
C42 C31 1.492 . S
C42 C43 1.377 . S
C42 C47 1.397 1_545 S
C43 H6 0.931 . S
C43 C42 1.377 . S
C43 C44 1.376 . S
C44 H7 0.930 . S
C44 C43 1.376 . S
C44 C45 1.376 . S
C45 C44 1.376 . S
C45 C46 1.378 1_545 S
C45 C72 1.486 . S
C46 H8 0.930 . S
C46 C45 1.378 1_565 S
C46 C47 1.376 . S
C47 H9 0.929 . S
C47 C42 1.397 1_565 S
C47 C46 1.376 . S
C48 C32 1.509 . S
C48 C49 1.391 . S
C48 C53 1.386 1_545 S
C49 H10 0.930 . S
C49 C48 1.391 . S
C49 C50 1.375 . S
C50 H11 0.931 . S
C50 C49 1.375 . S
C50 C51 1.375 . S
C51 C50 1.375 . S
C51 C52 1.361 1_545 S
C52 H12 0.930 . S
C52 C51 1.361 1_565 S
C52 C53 1.399 . S
C53 H13 0.929 . S
C53 C48 1.386 1_565 S
C53 C52 1.399 . S
C54 C33 1.485 . S
C54 C55 1.394 . S
C54 C59 1.360 1_545 S
C55 H14 0.931 . S
C55 C54 1.394 . S
C55 C56 1.372 . S
C56 H15 0.930 . S
C56 C55 1.372 . S
C56 C57 1.397 . S
C57 C56 1.397 . S
C57 C58 1.390 1_545 S
C57 C73 1.476 . S
C58 H16 0.930 . S
C58 C57 1.390 1_565 S
C58 C59 1.366 . S
C59 H17 0.935 . S
C59 C54 1.360 1_565 S
C59 C58 1.366 . S
C60 C34 1.490 . S
C60 C61 1.380 . S
C60 C65 1.386 . S
C61 H18 0.930 . S
C61 C60 1.380 . S
C61 C62 1.381 . S
C62 H19 0.929 . S
C62 C61 1.381 . S
C62 C63 1.371 . S
C63 C62 1.371 . S
C63 C64 1.380 . S
C64 H20 0.931 1_545 S
C64 C63 1.380 . S
C64 C65 1.387 . S
C65 H21 0.930 1_545 S
C65 C60 1.386 . S
C65 C64 1.387 . S
C66 C35 1.519 . S
C66 C67 1.377 . S
C66 C71 1.361 1_545 S
C67 H22 0.929 . S
C67 C66 1.377 . S
C67 C68 1.386 . S
C68 H23 0.931 . S
C68 C67 1.386 . S
C68 C69 1.363 . S
C69 C68 1.363 . S
C69 C70 1.385 1_545 S
C70 H24 0.930 . S
C70 C69 1.385 1_565 S
C70 C71 1.396 . S
C71 H25 0.929 . S
C71 C66 1.361 1_565 S
C71 C70 1.396 . S
C72 O26 1.300 . S
C72 O27 1.209 1_545 S
C72 C45 1.486 . S
C73 O28 1.199 . S
C73 O29 1.297 1_545 S
C73 C57 1.476 . S
H74 O100 0.856 . S
H75 O103 0.854 . S
H76 C111 0.930 . S
H77 C112 0.930 1_655 S
H78 C114 0.930 . S
H79 C115 0.930 . S
H80 C117 0.931 . S
H81 C118 0.930 . S
H82 C120 0.930 . S
H83 C121 0.929 . S
H84 C123 0.930 . S
H85 C124 0.931 . S
H86 C126 0.930 . S
H87 C127 0.929 . S
H88 C129 0.931 . S
H89 C130 0.930 . S
H90 C132 0.930 . S
H91 C133 0.932 . S
H92 C135 0.930 . S
H93 C136 0.929 1_655 S
H94 C138 0.931 . S
H95 C139 0.930 . S
H96 C141 0.929 . S
H97 C142 0.931 . S
H98 C144 0.930 . S
H99 C145 0.929 . S
O100 H74 0.856 . S
O100 C146 1.300 . S
O101 C146 1.209 . S
O102 C147 1.199 . S
O103 H75 0.854 . S
O103 C147 1.297 . S
C104 C105 1.404 . S
C104 C109 1.397 . S
C104 C110 1.492 . S
C105 C104 1.404 . S
C105 C106 1.396 . S
C105 C116 1.492 . S
C106 C105 1.396 . S
C106 C107 1.397 . S
C106 C122 1.509 . S
C107 C106 1.397 . S
C107 C108 1.412 . S
C107 C128 1.485 . S
C108 C107 1.412 . S
C108 C109 1.388 . S
C108 C134 1.490 . S
C109 C104 1.397 . S
C109 C108 1.388 . S
C109 C140 1.519 . S
C110 C104 1.492 . S
C110 C111 1.363 . S
C110 C115 1.390 . S
C111 H76 0.930 . S
C111 C110 1.363 . S
C111 C112 1.372 . S
C112 H77 0.930 1_455 S
C112 C111 1.372 . S
C112 C113 1.383 . S
C113 C112 1.383 . S
C113 C114 1.395 . S
C114 H78 0.930 . S
C114 C113 1.395 . S
C114 C115 1.362 . S
C115 H79 0.930 . S
C115 C110 1.390 . S
C115 C114 1.362 . S
C116 C105 1.492 . S
C116 C117 1.377 . S
C116 C121 1.397 . S
C117 H80 0.931 . S
C117 C116 1.377 . S
C117 C118 1.376 . S
C118 H81 0.930 . S
C118 C117 1.376 . S
C118 C119 1.376 . S
C119 C118 1.376 . S
C119 C120 1.378 . S
C119 C146 1.486 . S
C120 H82 0.930 . S
C120 C119 1.378 . S
C120 C121 1.376 . S
C121 H83 0.929 . S
C121 C116 1.397 . S
C121 C120 1.376 . S
C122 C106 1.509 . S
C122 C123 1.391 . S
C122 C127 1.386 . S
C123 H84 0.930 . S
C123 C122 1.391 . S
C123 C124 1.375 . S
C124 H85 0.931 . S
C124 C123 1.375 . S
C124 C125 1.375 . S
C125 C124 1.375 . S
C125 C126 1.361 . S
C126 H86 0.930 . S
C126 C125 1.361 . S
C126 C127 1.399 . S
C127 H87 0.929 . S
C127 C122 1.386 . S
C127 C126 1.399 . S
C128 C107 1.485 . S
C128 C129 1.394 . S
C128 C133 1.360 . S
C129 H88 0.931 . S
C129 C128 1.394 . S
C129 C130 1.372 . S
C130 H89 0.930 . S
C130 C129 1.372 . S
C130 C131 1.397 . S
C131 C130 1.397 . S
C131 C132 1.390 . S
C131 C147 1.476 . S
C132 H90 0.930 . S
C132 C131 1.390 . S
C132 C133 1.366 . S
C133 H91 0.932 . S
C133 C128 1.360 . S
C133 C132 1.366 . S
C134 C108 1.490 . S
C134 C135 1.380 . S
C134 C139 1.386 . S
C135 H92 0.930 . S
C135 C134 1.380 . S
C135 C136 1.381 . S
C136 H93 0.929 1_455 S
C136 C135 1.381 . S
C136 C137 1.371 . S
C137 C136 1.371 . S
C137 C138 1.380 . S
C138 H94 0.931 . S
C138 C137 1.380 . S
C138 C139 1.387 . S
C139 H95 0.930 . S
C139 C134 1.386 . S
C139 C138 1.387 . S
C140 C109 1.519 . S
C140 C141 1.377 . S
C140 C145 1.361 . S
C141 H96 0.929 . S
C141 C140 1.377 . S
C141 C142 1.386 . S
C142 H97 0.931 . S
C142 C141 1.386 . S
C142 C143 1.363 . S
C143 C142 1.363 . S
C143 C144 1.385 . S
C144 H98 0.930 . S
C144 C143 1.385 . S
C144 C145 1.396 . S
C145 H99 0.929 . S
C145 C140 1.361 . S
C145 C144 1.396 . S
C146 O100 1.300 . S
C146 O101 1.209 . S
C146 C119 1.486 . S
C147 O102 1.199 . S
C147 O103 1.297 . S
C147 C131 1.476 . S
Mg148 O149 2.028 . S
Mg148 O155 1.986 . S
Mg148 O157 2.114 1_545 S
Mg148 O158 2.251 . S
Mg148 O161 2.010 . S
O149 Mg148 2.028 . S
O149 C152 1.250 . S
O150 Mg151 2.028 1_655 S
O150 C152 1.248 1_655 S
Mg151 O150 2.028 1_455 S
Mg151 O156 2.032 . S
Mg151 O158 2.079 . S
C152 O149 1.250 . S
C152 O150 1.248 1_455 S
C153 O154 1.264 . S
C153 O161 1.249 . S
O154 C153 1.264 . S
O155 Mg148 1.986 . S
O155 C159 1.246 . S
O156 Mg151 2.032 . S
O156 C159 1.259 . S
O157 Mg148 2.114 1_565 S
O157 C160 1.252 . S
O158 Mg148 2.251 . S
O158 Mg151 2.079 . S
O158 C160 1.273 1_545 S
C159 O155 1.246 . S
C159 O156 1.259 . S
C160 O157 1.252 . S
C160 O158 1.273 1_565 S
O161 Mg148 2.010 . S
O161 C153 1.249 . S
Mg162 O163 2.028 . S
Mg162 O169 1.986 . S
Mg162 O171 2.114 1_545 S
Mg162 O172 2.251 1_545 S
Mg162 O175 2.010 1_455 S
O163 Mg162 2.028 . S
O163 C166 1.250 . S
O164 Mg165 2.028 . S
O164 C166 1.248 . S
Mg165 O164 2.028 . S
Mg165 O170 2.032 . S
Mg165 O172 2.079 1_545 S
C166 O163 1.250 . S
C166 O164 1.248 . S
C167 O168 1.264 . S
C167 O175 1.249 . S
O168 C167 1.264 . S
O169 Mg162 1.986 . S
O169 C173 1.246 . S
O170 Mg165 2.032 . S
O170 C173 1.259 . S
O171 Mg162 2.114 1_565 S
O171 C174 1.252 . S
O172 Mg162 2.251 1_565 S
O172 Mg165 2.079 1_565 S
O172 C174 1.273 . S
C173 O169 1.246 . S
C173 O170 1.259 . S
C174 O171 1.252 . S
C174 O172 1.273 . S
O175 Mg162 2.010 1_655 S
O175 C167 1.249 . S
H176 C194 0.951 . S
H177 C196 0.951 . S
H178 C198 0.950 . S
H179 C199 0.950 . S
H180 C201 0.950 1_565 S
H181 C204 0.950 . S
H182 C205 0.950 . S
H183 C207 0.950 . S
H184 C208 0.950 . S
H185 C209 0.951 . S
H186 C211 0.951 . S
H187 C213 0.950 . S
H188 C214 0.950 . S
H189 C216 0.950 . S
H190 C219 0.950 . S
H191 C220 0.950 . S
H192 C222 0.950 . S
H193 C223 0.950 . S
C194 H176 0.951 . S
C194 C195 1.366 . S
C194 C196 1.388 . S
C195 C194 1.366 . S
C195 C199 1.385 . S
C196 H177 0.951 . S
C196 C194 1.388 . S
C196 C197 1.366 . S
C197 C196 1.366 . S
C197 C198 1.414 . S
C197 C200 1.499 . S
C198 H178 0.950 . S
C198 C197 1.414 . S
C198 C199 1.374 . S
C199 H179 0.950 . S
C199 C195 1.385 . S
C199 C198 1.374 . S
C200 C197 1.499 . S
C200 C201 1.373 . S
C200 C202 1.389 . S
C201 H180 0.950 1_545 S
C201 C200 1.373 . S
C201 C217 1.377 . S
C202 C200 1.389 . S
C202 C203 1.524 . S
C202 C216 1.377 . S
C203 C202 1.524 . S
C203 C204 1.397 . S
C203 C208 1.363 . S
C204 H181 0.950 . S
C204 C203 1.397 . S
C204 C205 1.334 . S
C205 H182 0.950 . S
C205 C204 1.334 . S
C205 C206 1.287 . S
C206 C205 1.287 . S
C206 C207 1.524 . S
C206 H225 0.913 . S
C207 H183 0.950 . S
C207 C206 1.524 . S
C207 C208 1.415 . S
C208 H184 0.950 . S
C208 C203 1.363 . S
C208 C207 1.415 . S
C209 H185 0.951 . S
C209 C210 1.366 . S
C209 C211 1.388 . S
C210 C209 1.366 . S
C210 C214 1.385 . S
C211 H186 0.951 . S
C211 C209 1.388 . S
C211 C212 1.366 . S
C212 C211 1.366 . S
C212 C213 1.414 . S
C212 C215 1.499 . S
C213 H187 0.950 . S
C213 C212 1.414 . S
C213 C214 1.374 . S
C214 H188 0.950 . S
C214 C210 1.385 . S
C214 C213 1.374 . S
C215 C212 1.499 . S
C215 C216 1.373 . S
C215 C217 1.389 . S
C216 H189 0.950 . S
C216 C202 1.377 . S
C216 C215 1.373 . S
C217 C201 1.377 . S
C217 C215 1.389 . S
C217 C218 1.524 1_545 S
C218 C217 1.524 1_565 S
C218 C219 1.397 . S
C218 C223 1.363 . S
C219 H190 0.950 . S
C219 C218 1.397 . S
C219 C220 1.334 . S
C220 H191 0.950 . S
C220 C219 1.334 . S
C220 C221 1.287 . S
C221 C220 1.287 . S
C221 C222 1.524 . S
C221 H224 0.999 . S
C222 H192 0.950 . S
C222 C221 1.524 . S
C222 C223 1.415 . S
C223 H193 0.950 . S
C223 C218 1.363 . S
C223 C222 1.415 . S
H224 C221 0.999 . S
H225 C206 0.913 . S
H226 C244 0.951 . S
H227 C246 0.951 . S
H228 C248 0.949 1_655 S
H229 C249 0.950 . S
H230 C251 0.950 . S
H231 C254 0.950 . S
H232 C255 0.950 . S
H233 C257 0.950 . S
H234 C258 0.950 . S
H235 C259 0.951 1_655 S
H236 C261 0.951 1_655 S
H237 C263 0.950 . S
H238 C264 0.950 . S
H239 C266 0.950 . S
H240 C269 0.950 . S
H241 C270 0.950 . S
H242 C272 0.950 . S
H243 C273 0.950 . S
C244 H226 0.951 . S
C244 C245 1.366 . S
C244 C246 1.388 . S
C245 C244 1.366 . S
C245 C249 1.385 . S
C246 H227 0.951 . S
C246 C244 1.388 . S
C246 C247 1.366 . S
C247 C246 1.366 . S
C247 C248 1.414 . S
C247 C250 1.499 . S
C248 H228 0.949 1_455 S
C248 C247 1.414 . S
C248 C249 1.374 . S
C249 H229 0.950 . S
C249 C245 1.385 . S
C249 C248 1.374 . S
C250 C247 1.499 . S
C250 C251 1.373 . S
C250 C252 1.389 . S
C251 H230 0.950 . S
C251 C250 1.373 . S
C251 C267 1.377 . S
C252 C250 1.389 . S
C252 C253 1.524 . S
C252 C266 1.377 . S
C253 C252 1.524 . S
C253 C254 1.397 . S
C253 C258 1.363 . S
C254 H231 0.950 . S
C254 C253 1.397 . S
C254 C255 1.334 . S
C255 H232 0.950 . S
C255 C254 1.334 . S
C255 C256 1.287 . S
C256 C255 1.287 . S
C256 C257 1.524 . S
C256 H275 0.913 . S
C257 H233 0.950 . S
C257 C256 1.524 . S
C257 C258 1.415 . S
C258 H234 0.950 . S
C258 C253 1.363 . S
C258 C257 1.415 . S
C259 H235 0.951 1_455 S
C259 C260 1.366 . S
C259 C261 1.388 . S
C260 C259 1.366 . S
C260 C264 1.385 . S
C261 H236 0.951 1_455 S
C261 C259 1.388 . S
C261 C262 1.366 . S
C262 C261 1.366 . S
C262 C263 1.414 . S
C262 C265 1.499 . S
C263 H237 0.950 . S
C263 C262 1.414 . S
C263 C264 1.374 . S
C264 H238 0.950 . S
C264 C260 1.385 . S
C264 C263 1.374 . S
C265 C262 1.499 . S
C265 C266 1.373 . S
C265 C267 1.389 . S
C266 H239 0.950 . S
C266 C252 1.377 . S
C266 C265 1.373 . S
C267 C251 1.377 . S
C267 C265 1.389 . S
C267 C268 1.524 . S
C268 C267 1.524 . S
C268 C269 1.397 . S
C268 C273 1.363 1_455 S
C269 H240 0.950 . S
C269 C268 1.397 . S
C269 C270 1.334 . S
C270 H241 0.950 . S
C270 C269 1.334 . S
C270 C271 1.287 1_455 S
C271 C270 1.287 1_655 S
C271 C272 1.524 . S
C271 H274 0.999 . S
C272 H242 0.950 . S
C272 C271 1.524 . S
C272 C273 1.415 . S
C273 H243 0.950 . S
C273 C268 1.363 1_655 S
C273 C272 1.415 . S
H274 C271 0.999 . S
H275 C256 0.913 . S
H276 C294 0.951 . S
H277 C296 0.951 . S
H278 C298 0.950 . S
H279 C299 0.950 . S
H280 C301 0.950 . S
H281 C304 0.950 . S
H282 C305 0.950 . S
H283 C307 0.954 . S
H284 C308 0.950 . S
H285 C309 0.951 . S
H286 C311 0.951 . S
H287 C313 0.950 . S
H288 C314 0.950 1_455 S
H289 C316 0.950 . S
H290 C319 0.950 . S
H291 C320 0.950 . S
H292 C322 0.950 . S
H293 C323 0.950 . S
C294 H276 0.951 . S
C294 C295 1.366 . S
C294 C296 1.388 . S
C295 C294 1.366 . S
C295 C299 1.385 . S
C296 H277 0.951 . S
C296 C294 1.388 . S
C296 C297 1.366 . S
C297 C296 1.366 . S
C297 C298 1.414 . S
C297 C300 1.499 . S
C298 H278 0.950 . S
C298 C297 1.414 . S
C298 C299 1.374 . S
C299 H279 0.950 . S
C299 C295 1.385 . S
C299 C298 1.374 . S
C300 C297 1.499 . S
C300 C301 1.373 . S
C300 C302 1.389 . S
C301 H280 0.950 . S
C301 C300 1.373 . S
C301 C317 1.377 . S
C302 C300 1.389 . S
C302 C303 1.524 . S
C302 C316 1.377 . S
C303 C302 1.524 . S
C303 C304 1.397 1_545 S
C303 C308 1.363 . S
C304 H281 0.950 . S
C304 C303 1.397 1_565 S
C304 C305 1.334 . S
C305 H282 0.950 . S
C305 C304 1.334 . S
C305 C306 1.287 . S
C306 C305 1.287 . S
C306 C307 1.524 . S
C306 H325 0.913 . S
C307 H283 0.954 . S
C307 C306 1.524 . S
C307 C308 1.415 1_565 S
C308 H284 0.950 . S
C308 C303 1.363 . S
C308 C307 1.415 1_545 S
C309 H285 0.951 . S
C309 C310 1.366 . S
C309 C311 1.388 . S
C310 C309 1.366 . S
C310 C314 1.385 . S
C311 H286 0.951 . S
C311 C309 1.388 . S
C311 C312 1.366 . S
C312 C311 1.366 . S
C312 C313 1.414 . S
C312 C315 1.499 . S
C313 H287 0.950 . S
C313 C312 1.414 . S
C313 C314 1.374 . S
C314 H288 0.950 1_655 S
C314 C310 1.385 . S
C314 C313 1.374 . S
C315 C312 1.499 . S
C315 C316 1.373 . S
C315 C317 1.389 . S
C316 H289 0.950 . S
C316 C302 1.377 . S
C316 C315 1.373 . S
C317 C301 1.377 . S
C317 C315 1.389 . S
C317 C318 1.524 . S
C318 C317 1.524 . S
C318 C319 1.397 . S
C318 C323 1.363 . S
C319 H290 0.950 . S
C319 C318 1.397 . S
C319 C320 1.334 . S
C320 H291 0.950 . S
C320 C319 1.334 . S
C320 C321 1.287 . S
C321 C320 1.287 . S
C321 C322 1.524 . S
C321 H324 0.999 . S
C322 H292 0.950 . S
C322 C321 1.524 . S
C322 C323 1.415 . S
C323 H293 0.950 . S
C323 C318 1.363 . S
C323 C322 1.415 . S
H324 C321 0.999 . S
H325 C306 0.913 . S
H326 C344 0.951 . S
H327 C346 0.951 . S
H328 C348 0.950 . S
H329 C349 0.950 . S
H330 C351 0.950 . S
H331 C354 0.950 . S
H332 C355 0.950 . S
H333 C357 0.950 . S
H334 C358 0.950 . S
H335 C359 0.951 . S
H336 C361 0.951 . S
H337 C363 0.950 . S
H338 C364 0.950 . S
H339 C366 0.950 1_655 S
H340 C369 0.950 . S
H341 C370 0.950 . S
H342 C372 0.950 . S
H343 C373 0.950 . S
C344 H326 0.951 . S
C344 C345 1.366 . S
C344 C346 1.388 . S
C345 C344 1.366 . S
C345 C349 1.385 . S
C346 H327 0.951 . S
C346 C344 1.388 . S
C346 C347 1.366 . S
C347 C346 1.366 . S
C347 C348 1.414 . S
C347 C350 1.499 . S
C348 H328 0.950 . S
C348 C347 1.414 . S
C348 C349 1.374 . S
C349 H329 0.950 . S
C349 C345 1.385 . S
C349 C348 1.374 . S
C350 C347 1.499 . S
C350 C351 1.373 . S
C350 C352 1.389 . S
C351 H330 0.950 . S
C351 C350 1.373 . S
C351 C367 1.377 . S
C352 C350 1.389 . S
C352 C353 1.524 1_455 S
C352 C366 1.377 . S
C353 C352 1.524 1_655 S
C353 C354 1.397 . S
C353 C358 1.363 . S
C354 H331 0.950 . S
C354 C353 1.397 . S
C354 C355 1.334 . S
C355 H332 0.950 . S
C355 C354 1.334 . S
C355 C356 1.287 . S
C356 C355 1.287 . S
C356 C357 1.524 . S
C356 H375 0.913 . S
C357 H333 0.950 . S
C357 C356 1.524 . S
C357 C358 1.415 . S
C358 H334 0.950 . S
C358 C353 1.363 . S
C358 C357 1.415 . S
C359 H335 0.951 . S
C359 C360 1.366 . S
C359 C361 1.388 . S
C360 C359 1.366 . S
C360 C364 1.385 . S
C361 H336 0.951 . S
C361 C359 1.388 . S
C361 C362 1.366 . S
C362 C361 1.366 . S
C362 C363 1.414 . S
C362 C365 1.499 . S
C363 H337 0.950 . S
C363 C362 1.414 . S
C363 C364 1.374 . S
C364 H338 0.950 . S
C364 C360 1.385 . S
C364 C363 1.374 . S
C365 C362 1.499 . S
C365 C366 1.373 . S
C365 C367 1.389 . S
C366 H339 0.950 1_455 S
C366 C352 1.377 . S
C366 C365 1.373 . S
C367 C351 1.377 . S
C367 C365 1.389 . S
C367 C368 1.524 . S
C368 C367 1.524 . S
C368 C369 1.397 . S
C368 C373 1.363 . S
C369 H340 0.950 . S
C369 C368 1.397 . S
C369 C370 1.334 . S
C370 H341 0.950 . S
C370 C369 1.334 . S
C370 C371 1.287 . S
C371 C370 1.287 . S
C371 C372 1.524 . S
C371 H374 0.999 . S
C372 H342 0.950 . S
C372 C371 1.524 . S
C372 C373 1.415 . S
C373 H343 0.950 . S
C373 C368 1.363 . S
C373 C372 1.415 . S
H374 C371 0.999 . S
H375 C356 0.913 . S
H376 C394 0.951 1_565 S
H377 C396 0.951 1_565 S
H378 C398 0.950 . S
H379 C399 0.950 . S
H380 C401 0.950 . S
H381 C404 0.950 . S
H382 C405 0.950 . S
H383 C407 0.950 . S
H384 C408 0.950 . S
H385 C409 0.951 . S
H386 C411 0.951 . S
H387 C413 0.950 . S
H388 C414 0.950 . S
H389 C416 0.950 . S
H390 C419 0.950 1_565 S
H391 C420 0.950 1_565 S
H392 C422 0.950 . S
H393 C423 0.950 . S
C394 H376 0.951 1_545 S
C394 C395 1.366 . S
C394 C396 1.388 . S
C395 C394 1.366 . S
C395 C399 1.385 . S
C396 H377 0.951 1_545 S
C396 C394 1.388 . S
C396 C397 1.366 . S
C397 C396 1.366 . S
C397 C398 1.414 . S
C397 C400 1.499 . S
C398 H378 0.950 . S
C398 C397 1.414 . S
C398 C399 1.374 . S
C399 H379 0.950 . S
C399 C395 1.385 . S
C399 C398 1.374 . S
C400 C397 1.499 . S
C400 C401 1.373 . S
C400 C402 1.389 . S
C401 H380 0.950 . S
C401 C400 1.373 . S
C401 C417 1.377 . S
C402 C400 1.389 . S
C402 C403 1.524 . S
C402 C416 1.377 . S
C403 C402 1.524 . S
C403 C404 1.397 . S
C403 C408 1.363 1_545 S
C404 H381 0.950 . S
C404 C403 1.397 . S
C404 C405 1.334 . S
C405 H382 0.950 . S
C405 C404 1.334 . S
C405 C406 1.287 . S
C406 C405 1.287 . S
C406 C407 1.524 1_545 S
C406 H425 0.913 . S
C407 H383 0.950 . S
C407 C406 1.524 1_565 S
C407 C408 1.415 . S
C408 H384 0.950 . S
C408 C403 1.363 1_565 S
C408 C407 1.415 . S
C409 H385 0.951 . S
C409 C410 1.366 . S
C409 C411 1.388 . S
C410 C409 1.366 . S
C410 C414 1.385 1_545 S
C411 H386 0.951 . S
C411 C409 1.388 . S
C411 C412 1.366 . S
C412 C411 1.366 . S
C412 C413 1.414 1_545 S
C412 C415 1.499 . S
C413 H387 0.950 . S
C413 C412 1.414 1_565 S
C413 C414 1.374 . S
C414 H388 0.950 . S
C414 C410 1.385 1_565 S
C414 C413 1.374 . S
C415 C412 1.499 . S
C415 C416 1.373 . S
C415 C417 1.389 . S
C416 H389 0.950 . S
C416 C402 1.377 . S
C416 C415 1.373 . S
C417 C401 1.377 . S
C417 C415 1.389 . S
C417 C418 1.524 . S
C418 C417 1.524 . S
C418 C419 1.397 . S
C418 C423 1.363 . S
C419 H390 0.950 1_545 S
C419 C418 1.397 . S
C419 C420 1.334 . S
C420 H391 0.950 1_545 S
C420 C419 1.334 . S
C420 C421 1.287 . S
C421 C420 1.287 . S
C421 C422 1.524 . S
C421 H424 0.999 . S
C422 H392 0.950 . S
C422 C421 1.524 . S
C422 C423 1.415 . S
C423 H393 0.950 . S
C423 C418 1.363 . S
C423 C422 1.415 . S
H424 C421 0.999 . S
H425 C406 0.913 . S
H426 C444 0.951 . S
H427 C446 0.951 . S
H428 C448 0.950 1_655 S
H429 C449 0.950 1_655 S
H430 C451 0.950 . S
H431 C454 0.950 . S
H432 C455 0.950 . S
H433 C457 0.950 . S
H434 C458 0.950 . S
H435 C459 0.951 . S
H436 C461 0.951 . S
H437 C463 0.950 . S
H438 C464 0.950 . S
H439 C466 0.950 . S
H440 C469 0.950 . S
H441 C470 0.950 . S
H442 C472 0.950 . S
H443 C473 0.950 . S
C444 H426 0.951 . S
C444 C445 1.366 . S
C444 C446 1.388 . S
C445 C444 1.366 . S
C445 C449 1.385 . S
C446 H427 0.951 . S
C446 C444 1.388 . S
C446 C447 1.366 . S
C447 C446 1.366 . S
C447 C448 1.414 . S
C447 C450 1.499 . S
C448 H428 0.950 1_455 S
C448 C447 1.414 . S
C448 C449 1.374 . S
C449 H429 0.950 1_455 S
C449 C445 1.385 . S
C449 C448 1.374 . S
C450 C447 1.499 . S
C450 C451 1.373 . S
C450 C452 1.389 . S
C451 H430 0.950 . S
C451 C450 1.373 . S
C451 C467 1.377 . S
C452 C450 1.389 . S
C452 C453 1.524 . S
C452 C466 1.377 . S
C453 C452 1.524 . S
C453 C454 1.397 . S
C453 C458 1.363 . S
C454 H431 0.950 . S
C454 C453 1.397 . S
C454 C455 1.334 . S
C455 H432 0.950 . S
C455 C454 1.334 . S
C455 C456 1.287 . S
C456 C455 1.287 . S
C456 C457 1.524 . S
C456 H475 0.913 . S
C457 H433 0.950 . S
C457 C456 1.524 . S
C457 C458 1.415 . S
C458 H434 0.950 . S
C458 C453 1.363 . S
C458 C457 1.415 . S
C459 H435 0.951 . S
C459 C460 1.366 . S
C459 C461 1.388 . S
C460 C459 1.366 . S
C460 C464 1.385 . S
C461 H436 0.951 . S
C461 C459 1.388 . S
C461 C462 1.366 . S
C462 C461 1.366 . S
C462 C463 1.414 . S
C462 C465 1.499 . S
C463 H437 0.950 . S
C463 C462 1.414 . S
C463 C464 1.374 . S
C464 H438 0.950 . S
C464 C460 1.385 . S
C464 C463 1.374 . S
C465 C462 1.499 . S
C465 C466 1.373 . S
C465 C467 1.389 . S
C466 H439 0.950 . S
C466 C452 1.377 . S
C466 C465 1.373 . S
C467 C451 1.377 . S
C467 C465 1.389 . S
C467 C468 1.524 . S
C468 C467 1.524 . S
C468 C469 1.397 . S
C468 C473 1.363 1_455 S
C469 H440 0.950 . S
C469 C468 1.397 . S
C469 C470 1.334 . S
C470 H441 0.950 . S
C470 C469 1.334 . S
C470 C471 1.287 1_455 S
C471 C470 1.287 1_655 S
C471 C472 1.524 . S
C471 H474 0.999 . S
C472 H442 0.950 . S
C472 C471 1.524 . S
C472 C473 1.415 . S
C473 H443 0.950 . S
C473 C468 1.363 1_655 S
C473 C472 1.415 . S
H474 C471 0.999 . S
H475 C456 0.913 . S
H476 C494 0.951 . S
H477 C496 0.951 . S
H478 C498 0.950 . S
H479 C499 0.950 . S
H480 C501 0.950 . S
H481 C504 0.950 . S
H482 C505 0.950 . S
H483 C507 0.950 . S
H484 C508 0.950 . S
H485 C509 0.951 . S
H486 C511 0.951 . S
H487 C513 0.950 . S
H488 C514 0.950 . S
H489 C516 0.950 . S
H490 C519 0.950 . S
H491 C520 0.950 . S
H492 C522 0.950 . S
H493 C523 0.950 . S
C494 H476 0.951 . S
C494 C495 1.366 1_565 S
C494 C496 1.388 . S
C495 C494 1.366 1_545 S
C495 C499 1.385 . S
C496 H477 0.951 . S
C496 C494 1.388 . S
C496 C497 1.366 1_565 S
C497 C496 1.366 1_545 S
C497 C498 1.414 . S
C497 C500 1.499 . S
C498 H478 0.950 . S
C498 C497 1.414 . S
C498 C499 1.374 . S
C499 H479 0.950 . S
C499 C495 1.385 . S
C499 C498 1.374 . S
C500 C497 1.499 . S
C500 C501 1.373 . S
C500 C502 1.389 1_545 S
C501 H480 0.950 . S
C501 C500 1.373 . S
C501 C517 1.377 . S
C502 C500 1.389 1_565 S
C502 C503 1.524 . S
C502 C516 1.377 . S
C503 C502 1.524 . S
C503 C504 1.397 . S
C503 C508 1.363 . S
C504 H481 0.950 . S
C504 C503 1.397 . S
C504 C505 1.334 . S
C505 H482 0.950 . S
C505 C504 1.334 . S
C505 C506 1.287 . S
C506 C505 1.287 . S
C506 C507 1.524 . S
C506 H525 0.913 . S
C507 H483 0.950 . S
C507 C506 1.524 . S
C507 C508 1.415 . S
C508 H484 0.950 . S
C508 C503 1.363 . S
C508 C507 1.415 . S
C509 H485 0.951 . S
C509 C510 1.366 . S
C509 C511 1.388 . S
C510 C509 1.366 . S
C510 C514 1.385 1_545 S
C511 H486 0.951 . S
C511 C509 1.388 . S
C511 C512 1.366 . S
C512 C511 1.366 . S
C512 C513 1.414 1_545 S
C512 C515 1.499 . S
C513 H487 0.950 . S
C513 C512 1.414 1_565 S
C513 C514 1.374 . S
C514 H488 0.950 . S
C514 C510 1.385 1_565 S
C514 C513 1.374 . S
C515 C512 1.499 . S
C515 C516 1.373 1_545 S
C515 C517 1.389 . S
C516 H489 0.950 . S
C516 C502 1.377 . S
C516 C515 1.373 1_565 S
C517 C501 1.377 . S
C517 C515 1.389 . S
C517 C518 1.524 . S
C518 C517 1.524 . S
C518 C519 1.397 . S
C518 C523 1.363 . S
C519 H490 0.950 . S
C519 C518 1.397 . S
C519 C520 1.334 . S
C520 H491 0.950 . S
C520 C519 1.334 . S
C520 C521 1.287 . S
C521 C520 1.287 . S
C521 C522 1.524 . S
C521 H524 0.999 . S
C522 H492 0.950 . S
C522 C521 1.524 . S
C522 C523 1.415 . S
C523 H493 0.950 . S
C523 C518 1.363 . S
C523 C522 1.415 . S
H524 C521 0.999 . S
H525 C506 0.913 . S
H526 C544 0.951 . S
H527 C546 0.951 . S
H528 C548 0.950 . S
H529 C549 0.950 . S
H530 C551 0.950 . S
H531 C554 0.950 . S
H532 C555 0.950 . S
H533 C557 0.950 . S
H534 C558 0.950 . S
H535 C559 0.951 . S
H536 C561 0.951 . S
H537 C563 0.950 . S
H538 C564 0.950 . S
H539 C566 0.950 . S
H540 C569 0.950 1_455 S
H541 C570 0.950 . S
H542 C572 0.950 . S
H543 C573 0.950 . S
C544 H526 0.951 . S
C544 C545 1.366 . S
C544 C546 1.388 . S
C545 C544 1.366 . S
C545 C549 1.385 . S
C546 H527 0.951 . S
C546 C544 1.388 . S
C546 C547 1.366 . S
C547 C546 1.366 . S
C547 C548 1.414 . S
C547 C550 1.499 . S
C548 H528 0.950 . S
C548 C547 1.414 . S
C548 C549 1.374 . S
C549 H529 0.950 . S
C549 C545 1.385 . S
C549 C548 1.374 . S
C550 C547 1.499 . S
C550 C551 1.373 . S
C550 C552 1.389 . S
C551 H530 0.950 . S
C551 C550 1.373 . S
C551 C567 1.377 . S
C552 C550 1.389 . S
C552 C553 1.524 . S
C552 C566 1.377 . S
C553 C552 1.524 . S
C553 C554 1.397 . S
C553 C558 1.363 . S
C554 H531 0.950 . S
C554 C553 1.397 . S
C554 C555 1.334 . S
C555 H532 0.950 . S
C555 C554 1.334 . S
C555 C556 1.287 . S
C556 C555 1.287 . S
C556 C557 1.524 . S
C556 H575 0.913 . S
C557 H533 0.950 . S
C557 C556 1.524 . S
C557 C558 1.415 . S
C558 H534 0.950 . S
C558 C553 1.363 . S
C558 C557 1.415 . S
C559 H535 0.951 . S
C559 C560 1.366 . S
C559 C561 1.388 . S
C560 C559 1.366 . S
C560 C564 1.385 . S
C561 H536 0.951 . S
C561 C559 1.388 . S
C561 C562 1.366 . S
C562 C561 1.366 . S
C562 C563 1.414 . S
C562 C565 1.499 . S
C563 H537 0.950 . S
C563 C562 1.414 . S
C563 C564 1.374 . S
C564 H538 0.950 . S
C564 C560 1.385 . S
C564 C563 1.374 . S
C565 C562 1.499 . S
C565 C566 1.373 . S
C565 C567 1.389 . S
C566 H539 0.950 . S
C566 C552 1.377 . S
C566 C565 1.373 . S
C567 C551 1.377 . S
C567 C565 1.389 . S
C567 C568 1.524 . S
C568 C567 1.524 . S
C568 C569 1.397 1_455 S
C568 C573 1.363 1_455 S
C569 H540 0.950 1_655 S
C569 C568 1.397 1_655 S
C569 C570 1.334 . S
C570 H541 0.950 . S
C570 C569 1.334 . S
C570 C571 1.287 . S
C571 C570 1.287 . S
C571 C572 1.524 . S
C571 H574 0.999 . S
C572 H542 0.950 . S
C572 C571 1.524 . S
C572 C573 1.415 . S
C573 H543 0.950 . S
C573 C568 1.363 1_655 S
C573 C572 1.415 . S
H574 C571 0.999 . S
H575 C556 0.913 . S
C210 C153 1.939 . S
C195 C69 2.207 . S
C260 C173 2.198 . S
C245 C143 2.244 . S
C310 C152 1.438 1_655 S
C295 C63 1.396 . S
C360 C174 1.479 . S
C345 C137 1.391 . S
C410 C166 1.385 . S
C395 C39 1.335 . S
C460 C159 1.293 . S
C445 C113 1.283 . S
C510 C167 0.718 . S
C495 C51 0.676 . S
C545 C125 0.693 . S
C560 C160 0.691 . S
