# Generated by pormake.
# Topology pyr, (3,6)-cn, num edge types: 1
# Building blocks:
#     Node 0, Type 0, BuildingBlock: VETTIZ_charged_linker_0, # of connection points: 3
#     Node 1, Type 0, BuildingBlock: VETTIZ_charged_linker_0, # of connection points: 3
#     Node 2, Type 0, BuildingBlock: VETTIZ_charged_linker_0, # of connection points: 3
#     Node 3, Type 0, BuildingBlock: VETTIZ_charged_linker_0, # of connection points: 3
#     Node 4, Type 0, BuildingBlock: VETTIZ_charged_linker_0, # of connection points: 3
#     Node 5, Type 0, BuildingBlock: VETTIZ_charged_linker_0, # of connection points: 3
#     Node 6, Type 0, BuildingBlock: VETTIZ_charged_linker_0, # of connection points: 3
#     Node 7, Type 0, BuildingBlock: VETTIZ_charged_linker_0, # of connection points: 3
#     Node 8, Type 1, BuildingBlock: BETGAK_clean_sbu_0, # of connection points: 6
#     Node 9, Type 1, BuildingBlock: BETGAK_clean_sbu_0, # of connection points: 6
#     Node 10, Type 1, BuildingBlock: BETGAK_clean_sbu_0, # of connection points: 6
#     Node 11, Type 1, BuildingBlock: BETGAK_clean_sbu_0, # of connection points: 6
#     Edge 12, Type (0, 1), BuildingBlock: AJUNOK_clean_linker_0, # of connection points: 2
#     Edge 13, Type (0, 1), BuildingBlock: AJUNOK_clean_linker_0, # of connection points: 2
#     Edge 14, Type (0, 1), BuildingBlock: AJUNOK_clean_linker_0, # of connection points: 2
#     Edge 15, Type (0, 1), BuildingBlock: AJUNOK_clean_linker_0, # of connection points: 2
#     Edge 16, Type (0, 1), BuildingBlock: AJUNOK_clean_linker_0, # of connection points: 2
#     Edge 17, Type (0, 1), BuildingBlock: AJUNOK_clean_linker_0, # of connection points: 2
#     Edge 18, Type (0, 1), BuildingBlock: AJUNOK_clean_linker_0, # of connection points: 2
#     Edge 19, Type (0, 1), BuildingBlock: AJUNOK_clean_linker_0, # of connection points: 2
#     Edge 20, Type (0, 1), BuildingBlock: AJUNOK_clean_linker_0, # of connection points: 2
#     Edge 21, Type (0, 1), BuildingBlock: AJUNOK_clean_linker_0, # of connection points: 2
#     Edge 22, Type (0, 1), BuildingBlock: AJUNOK_clean_linker_0, # of connection points: 2
#     Edge 23, Type (0, 1), BuildingBlock: AJUNOK_clean_linker_0, # of connection points: 2
#     Edge 24, Type (0, 1), BuildingBlock: AJUNOK_clean_linker_0, # of connection points: 2
#     Edge 25, Type (0, 1), BuildingBlock: AJUNOK_clean_linker_0, # of connection points: 2
#     Edge 26, Type (0, 1), BuildingBlock: AJUNOK_clean_linker_0, # of connection points: 2
#     Edge 27, Type (0, 1), BuildingBlock: AJUNOK_clean_linker_0, # of connection points: 2
#     Edge 28, Type (0, 1), BuildingBlock: AJUNOK_clean_linker_0, # of connection points: 2
#     Edge 29, Type (0, 1), BuildingBlock: AJUNOK_clean_linker_0, # of connection points: 2
#     Edge 30, Type (0, 1), BuildingBlock: AJUNOK_clean_linker_0, # of connection points: 2
#     Edge 31, Type (0, 1), BuildingBlock: AJUNOK_clean_linker_0, # of connection points: 2
#     Edge 32, Type (0, 1), BuildingBlock: AJUNOK_clean_linker_0, # of connection points: 2
#     Edge 33, Type (0, 1), BuildingBlock: AJUNOK_clean_linker_0, # of connection points: 2
#     Edge 34, Type (0, 1), BuildingBlock: AJUNOK_clean_linker_0, # of connection points: 2
#     Edge 35, Type (0, 1), BuildingBlock: AJUNOK_clean_linker_0, # of connection points: 2
# Relax obj value: 0.137
# Max RMSD: 0.130
# Mean RMSD: 0.064
data_MOF--net-pyr--node1-BETGAK_clean_sbu_0--node2-VETTIZ_charged_linker_0--edge1-AJUNOK_clean_linker_0
_symmetry_space_group_name_H-M    P1
_symmetry_Int_Tables_number       1
_symmetry_cell_setting            triclinic
loop_
_symmetry_equiv_pos_as_xyz
'x, y, z'
_cell_length_a     36.850273
_cell_length_b     37.446151
_cell_length_c     33.175978
_cell_angle_alpha  90.315747
_cell_angle_beta   87.612473
_cell_angle_gamma 101.8594
loop_
_atom_site_label
_atom_site_type_symbol
_atom_site_fract_x
_atom_site_fract_y
_atom_site_fract_z
_atom_type_partial_charge
C0 C 0.32551 0.29622 0.39772 0.0
C1 C 0.29306 0.30763 0.41126 0.0
C2 C 0.28665 0.34112 0.39745 0.0
C3 C 0.33504 0.34249 0.3457 0.0
C4 C 0.34557 0.31331 0.36382 0.0
C5 C 0.37412 0.29882 0.33826 0.0
H6 H 0.42458 0.25483 0.1538 0.0
C7 C 0.35105 0.34582 0.30407 0.0
C8 C 0.37473 0.32098 0.29964 0.0
H9 H 0.47004 0.23106 0.26634 0.0
H10 H 0.4407 0.27597 0.30038 0.0
H11 H 0.44094 0.34519 0.17143 0.0
H12 H 0.34307 0.25966 0.18723 0.0
H13 H 0.33092 0.29754 0.16423 0.0
H14 H 0.36319 0.27441 0.13834 0.0
H15 H 0.41587 0.3241 0.12932 0.0
H16 H 0.40243 0.36184 0.15594 0.0
C17 C 0.41174 0.30764 0.35932 0.0
C18 C 0.35979 0.25741 0.33128 0.0
C19 C 0.28342 0.40602 0.20312 0.0
C20 C 0.27974 0.40233 0.1614 0.0
C21 C 0.30305 0.38333 0.13904 0.0
C22 C 0.32887 0.36717 0.15853 0.0
C23 C 0.33051 0.36917 0.20087 0.0
C24 C 0.30813 0.38867 0.22225 0.0
C25 C 0.31027 0.38512 0.26704 0.0
C26 C 0.33884 0.36124 0.26934 0.0
C27 C 0.3506 0.35186 0.23052 0.0
C28 C 0.32506 0.42352 0.28447 0.0
C29 C 0.27112 0.36616 0.2846 0.0
C30 C 0.42804 0.2592 0.18583 0.0
C31 C 0.44887 0.23887 0.20767 0.0
C32 C 0.4539 0.24614 0.24901 0.0
C33 C 0.4365 0.27157 0.26885 0.0
C34 C 0.41303 0.28897 0.24745 0.0
C35 C 0.4109 0.28463 0.20628 0.0
C36 C 0.38759 0.30885 0.18848 0.0
C37 C 0.37534 0.32737 0.22618 0.0
C38 C 0.38905 0.31405 0.26068 0.0
C39 C 0.41274 0.3364 0.15949 0.0
C40 C 0.35448 0.28409 0.16821 0.0
H41 H 0.30142 0.38371 0.35424 0.0
H42 H 0.33163 0.27132 0.40952 0.0
H43 H 0.33168 0.25231 0.31872 0.0
H44 H 0.37775 0.24541 0.3102 0.0
H45 H 0.35821 0.24182 0.35988 0.0
H46 H 0.41061 0.32453 0.38687 0.0
H47 H 0.42039 0.28237 0.36894 0.0
H48 H 0.43414 0.32354 0.3393 0.0
H49 H 0.2652 0.41973 0.22111 0.0
H50 H 0.30057 0.38022 0.10673 0.0
H51 H 0.3455 0.35254 0.14013 0.0
H52 H 0.34837 0.4388 0.26501 0.0
H53 H 0.3029 0.43966 0.2863 0.0
H54 H 0.33638 0.42241 0.31468 0.0
H55 H 0.25026 0.35882 0.26107 0.0
H56 H 0.27151 0.33985 0.29957 0.0
H57 H 0.25949 0.38405 0.30619 0.0
H58 H 0.26253 0.35116 0.40848 0.0
C59 C 0.30831 0.35918 0.36512 0.0
C60 C 0.12294 0.8862 0.68816 0.0
C61 C 0.11701 0.91949 0.70473 0.0
C62 C 0.12912 0.92891 0.74393 0.0
C63 C 0.15111 0.87259 0.74947 0.0
C64 C 0.1408 0.86376 0.71056 0.0
C65 C 0.15438 0.83055 0.69537 0.0
H66 H 0.25601 0.70344 0.73072 0.0
C67 C 0.16973 0.84425 0.7643 0.0
C68 C 0.17195 0.81953 0.73279 0.0
H69 H 0.21861 0.73286 0.61633 0.0
H70 H 0.18257 0.7725 0.65068 0.0
H71 H 0.28102 0.77801 0.75675 0.0
H72 H 0.17734 0.70529 0.78719 0.0
H73 H 0.19166 0.7293 0.83139 0.0
H74 H 0.22038 0.70067 0.80785 0.0
H75 H 0.27733 0.74167 0.79268 0.0
H76 H 0.27094 0.78634 0.80739 0.0
C77 C 0.1834 0.84247 0.66012 0.0
C78 C 0.1207 0.80107 0.68359 0.0
C79 C 0.2235 0.8567 0.9028 0.0
C80 C 0.24544 0.83648 0.92288 0.0
C81 C 0.24814 0.8017 0.90837 0.0
C82 C 0.232 0.78874 0.87219 0.0
C83 C 0.21358 0.81112 0.85015 0.0
C84 C 0.20803 0.84365 0.86649 0.0
C85 C 0.1884 0.86415 0.83864 0.0
C86 C 0.18425 0.83914 0.80227 0.0
C87 C 0.19962 0.80853 0.80892 0.0
C88 C 0.21407 0.90177 0.82882 0.0
C89 C 0.15037 0.86629 0.85909 0.0
C90 C 0.23897 0.71739 0.71316 0.0
C91 C 0.23994 0.71508 0.67097 0.0
C92 C 0.21832 0.73445 0.64895 0.0
C93 C 0.19793 0.75771 0.66884 0.0
C94 C 0.2002 0.7623 0.71087 0.0
C95 C 0.2198 0.74158 0.73235 0.0
C96 C 0.22316 0.75272 0.77577 0.0
C97 C 0.20315 0.78421 0.77679 0.0
C98 C 0.18938 0.78957 0.73888 0.0
C99 C 0.26512 0.76515 0.78403 0.0
C100 C 0.20236 0.72038 0.80222 0.0
H101 H 0.15363 0.91431 0.79614 0.0
H102 H 0.11481 0.87807 0.65796 0.0
H103 H 0.09872 0.79727 0.70811 0.0
H104 H 0.12799 0.77416 0.67854 0.0
H105 H 0.10859 0.80907 0.65575 0.0
H106 H 0.19439 0.87246 0.6598 0.0
H107 H 0.17121 0.8351 0.63039 0.0
H108 H 0.2083 0.83048 0.66261 0.0
H109 H 0.22116 0.88365 0.91318 0.0
H110 H 0.26449 0.78549 0.92383 0.0
H111 H 0.23643 0.7628 0.86156 0.0
H112 H 0.24387 0.90054 0.83073 0.0
H113 H 0.20838 0.92308 0.85019 0.0
H114 H 0.21178 0.911 0.79761 0.0
H115 H 0.13768 0.84011 0.87452 0.0
H116 H 0.12976 0.87073 0.83745 0.0
H117 H 0.15346 0.88821 0.88215 0.0
H118 H 0.12753 0.9551 0.75693 0.0
C119 C 0.14521 0.90536 0.76659 0.0
C120 C 0.62897 0.27539 0.97042 0.0
C121 C 0.59708 0.25241 0.95558 0.0
C122 C 0.57923 0.26599 0.92375 0.0
C123 C 0.62498 0.32348 0.92199 0.0
C124 C 0.6423 0.31035 0.95331 0.0
C125 C 0.67609 0.33749 0.96563 0.0
H126 H 0.79541 0.50109 0.94473 0.0
C127 C 0.64613 0.36118 0.91131 0.0
C128 C 0.67612 0.36927 0.93714 0.0
H129 H 0.79941 0.4124 1.02624 0.0
H130 H 0.74315 0.37763 1.00036 0.0
H131 H 0.70464 0.4954 0.95664 0.0
H132 H 0.7685 0.44913 0.86565 0.0
H133 H 0.73587 0.47008 0.84265 0.0
H134 H 0.77192 0.49748 0.87101 0.0
H135 H 0.73331 0.5232 0.91883 0.0
H136 H 0.68653 0.49998 0.90914 0.0
C137 C 0.66961 0.34793 1.01025 0.0
C138 C 0.71048 0.32014 0.95757 0.0
C139 C 0.60531 0.43498 0.79706 0.0
C140 C 0.61809 0.47093 0.78212 0.0
C141 C 0.6487 0.49289 0.80061 0.0
C142 C 0.66657 0.47948 0.83237 0.0
C143 C 0.6537 0.44357 0.84677 0.0
C144 C 0.62315 0.4221 0.82948 0.0
C145 C 0.61204 0.38531 0.85028 0.0
C146 C 0.64129 0.38781 0.88208 0.0
C147 C 0.66605 0.42211 0.87974 0.0
C148 C 0.57264 0.38221 0.86975 0.0
C149 C 0.61504 0.35533 0.81886 0.0
C150 C 0.78392 0.47431 0.95722 0.0
C151 C 0.80243 0.45961 0.98777 0.0
C152 C 0.78639 0.42441 1.00257 0.0
C153 C 0.75341 0.40416 0.98747 0.0
C154 C 0.73558 0.41877 0.95676 0.0
C155 C 0.7507 0.45338 0.94211 0.0
C156 C 0.72753 0.46401 0.90917 0.0
C157 C 0.69658 0.42995 0.90616 0.0
C158 C 0.70153 0.40362 0.93443 0.0
C159 C 0.71227 0.49757 0.92381 0.0
C160 C 0.75209 0.47081 0.86993 0.0
H161 H 0.578 0.30938 0.8828 0.0
H162 H 0.64368 0.26619 0.99461 0.0
H163 H 0.70659 0.30136 0.93127 0.0
H164 H 0.73593 0.34049 0.94942 0.0
H165 H 0.71564 0.30409 0.98402 0.0
H166 H 0.64007 0.34946 1.01657 0.0
H167 H 0.67639 0.3274 1.03115 0.0
H168 H 0.68557 0.3752 1.01808 0.0
H169 H 0.5815 0.41746 0.78425 0.0
H170 H 0.65921 0.52055 0.79004 0.0
H171 H 0.68984 0.4977 0.84461 0.0
H172 H 0.5693 0.40876 0.883 0.0
H173 H 0.55112 0.37435 0.84704 0.0
H174 H 0.56678 0.36258 0.89503 0.0
H175 H 0.64111 0.36311 0.79995 0.0
H176 H 0.61618 0.32894 0.8328 0.0
H177 H 0.59138 0.35121 0.79847 0.0
H178 H 0.55416 0.24966 0.91208 0.0
C179 C 0.59295 0.30103 0.90694 0.0
C180 C 0.9303 0.8413 0.44179 0.0
C181 C 0.91713 0.85973 0.47499 0.0
C182 C 0.8822 0.84434 0.49314 0.0
C183 C 0.8756 0.79193 0.4486 0.0
C184 C 0.90906 0.80732 0.42919 0.0
C185 C 0.91829 0.78312 0.39497 0.0
H186 H 0.87862 0.61821 0.29821 0.0
C187 C 0.86092 0.7559 0.43008 0.0
C188 C 0.88574 0.75025 0.39845 0.0
H189 H 0.96595 0.71121 0.26677 0.0
H190 H 0.94517 0.74542 0.32156 0.0
H191 H 0.87867 0.62608 0.39714 0.0
H192 H 0.81641 0.66802 0.3076 0.0
H193 H 0.78645 0.65295 0.3494 0.0
H194 H 0.80717 0.62052 0.32096 0.0
H195 H 0.84527 0.59701 0.36716 0.0
H196 H 0.8313 0.61779 0.41269 0.0
C197 C 0.95561 0.77243 0.40323 0.0
C198 C 0.9186 0.80402 0.35484 0.0
C199 C 0.74082 0.67879 0.48999 0.0
C200 C 0.71939 0.64427 0.48097 0.0
C201 C 0.7324 0.62397 0.44949 0.0
C202 C 0.76583 0.63792 0.42737 0.0
C203 C 0.78668 0.67277 0.43648 0.0
C204 C 0.77389 0.69244 0.46745 0.0
C205 C 0.79902 0.72903 0.47303 0.0
C206 C 0.82895 0.72846 0.4402 0.0
C207 C 0.8219 0.69541 0.41879 0.0
C208 C 0.81453 0.72972 0.51587 0.0
C209 C 0.77657 0.75894 0.46513 0.0
C210 C 0.89342 0.64593 0.3028 0.0
C211 C 0.9253 0.66092 0.27837 0.0
C212 C 0.94278 0.69763 0.28586 0.0
C213 C 0.93022 0.71796 0.31751 0.0
C214 C 0.89895 0.70225 0.3419 0.0
C215 C 0.88061 0.66702 0.3337 0.0
C216 C 0.84605 0.65569 0.36052 0.0
C217 C 0.84711 0.6894 0.38674 0.0
C218 C 0.87858 0.71673 0.37615 0.0
C219 C 0.85018 0.62222 0.38568 0.0
C220 C 0.81208 0.6486 0.33347 0.0
H221 H 0.83561 0.80084 0.4962 0.0
H222 H 0.9568 0.85255 0.42678 0.0
H223 H 0.89691 0.8208 0.35588 0.0
H224 H 0.91195 0.78563 0.32887 0.0
H225 H 0.94584 0.82268 0.34866 0.0
H226 H 0.95566 0.76293 0.43493 0.0
H227 H 0.97906 0.79614 0.39859 0.0
H228 H 0.96108 0.74987 0.384 0.0
H229 H 0.73164 0.69529 0.51371 0.0
H230 H 0.71682 0.59709 0.44219 0.0
H231 H 0.77419 0.62102 0.40397 0.0
H232 H 0.81897 0.70231 0.52451 0.0
H233 H 0.79501 0.73784 0.53887 0.0
H234 H 0.84204 0.74788 0.51813 0.0
H235 H 0.75523 0.74976 0.44244 0.0
H236 H 0.79393 0.78417 0.45206 0.0
H237 H 0.76196 0.76581 0.49316 0.0
H238 H 0.87082 0.85819 0.51789 0.0
C239 C 0.86162 0.81085 0.48035 0.0
C240 C 0.73033 0.73111 0.95492 0.0
C241 C 0.75404 0.71081 0.93513 0.0
C242 C 0.75231 0.70608 0.89301 0.0
C243 C 0.70842 0.74572 0.8904 0.0
C244 C 0.70733 0.74793 0.9319 0.0
C245 C 0.68094 0.77144 0.94706 0.0
H246 H 0.57694 0.89527 0.9036 0.0
C247 C 0.68516 0.76952 0.87461 0.0
C248 C 0.66746 0.78358 0.90751 0.0
H249 H 0.60038 0.85893 1.02109 0.0
H250 H 0.6313 0.81379 0.99017 0.0
H251 H 0.56097 0.81127 0.85801 0.0
H252 H 0.64244 0.9072 0.86827 0.0
H253 H 0.66505 0.88478 0.83149 0.0
H254 H 0.62147 0.89714 0.82119 0.0
H255 H 0.56278 0.85567 0.83672 0.0
H256 H 0.58296 0.82195 0.80992 0.0
C257 C 0.64913 0.74725 0.97243 0.0
C258 C 0.70353 0.80386 0.97048 0.0
C259 C 0.71898 0.82684 0.73804 0.0
C260 C 0.70792 0.8566 0.72 0.0
C261 C 0.67298 0.86408 0.73141 0.0
C262 C 0.65239 0.84613 0.76451 0.0
C263 C 0.66738 0.82119 0.78663 0.0
C264 C 0.69843 0.80962 0.77151 0.0
C265 C 0.70984 0.78224 0.79883 0.0
C266 C 0.68326 0.78319 0.83514 0.0
C267 C 0.65913 0.80678 0.82803 0.0
C268 C 0.70273 0.74455 0.77755 0.0
C269 C 0.75095 0.79633 0.80935 0.0
C270 C 0.58791 0.8769 0.9226 0.0
C271 C 0.58606 0.88027 0.96467 0.0
C272 C 0.60154 0.85665 0.98852 0.0
C273 C 0.61962 0.83068 0.9705 0.0
C274 C 0.62319 0.82908 0.92818 0.0
C275 C 0.60704 0.85169 0.90504 0.0
C276 C 0.61559 0.8483 0.86071 0.0
C277 C 0.63945 0.81964 0.86092 0.0
C278 C 0.64381 0.80839 0.90053 0.0
C279 C 0.57867 0.83371 0.83995 0.0
C280 C 0.6371 0.88607 0.84436 0.0
H281 H 0.72929 0.71889 0.83878 0.0
H282 H 0.73051 0.73466 0.98734 0.0
H283 H 0.73076 0.8145 0.95456 0.0
H284 H 0.68993 0.82741 0.97305 0.0
H285 H 0.70907 0.79533 1.00125 0.0
H286 H 0.64174 0.71939 0.95937 0.0
H287 H 0.65732 0.74439 1.00391 0.0
H288 H 0.62318 0.75768 0.97288 0.0
H289 H 0.74542 0.82011 0.72963 0.0
H290 H 0.66325 0.88611 0.71711 0.0
H291 H 0.62689 0.85401 0.77331 0.0
H292 H 0.6878 0.74472 0.7491 0.0
H293 H 0.72915 0.73585 0.76942 0.0
H294 H 0.685 0.72309 0.79675 0.0
H295 H 0.75527 0.82499 0.82023 0.0
H296 H 0.76024 0.78031 0.83307 0.0
H297 H 0.76985 0.79544 0.78258 0.0
H298 H 0.77034 0.69092 0.87686 0.0
C299 C 0.72909 0.72286 0.87074 0.0
C300 C 0.88956 0.21144 0.48985 0.0
C301 C 0.90081 0.18221 0.46968 0.0
C302 C 0.89652 0.17801 0.42798 0.0
C303 C 0.86973 0.23187 0.42668 0.0
C304 C 0.874 0.23592 0.46776 0.0
C305 C 0.85938 0.26806 0.48426 0.0
H306 H 0.77033 0.40523 0.44873 0.0
C307 C 0.85284 0.26173 0.41257 0.0
C308 C 0.84708 0.28339 0.44598 0.0
H309 H 0.79686 0.36708 0.56426 0.0
H310 H 0.8308 0.3254 0.53064 0.0
H311 H 0.74243 0.33498 0.41705 0.0
H312 H 0.8516 0.40078 0.39805 0.0
H313 H 0.83751 0.3818 0.35114 0.0
H314 H 0.8107 0.41086 0.37708 0.0
H315 H 0.75229 0.36996 0.37918 0.0
H316 H 0.75641 0.32366 0.36858 0.0
C317 C 0.82623 0.25345 0.51415 0.0
C318 C 0.89164 0.29506 0.50317 0.0
C319 C 0.8089 0.25974 0.27006 0.0
C320 C 0.78789 0.28124 0.25048 0.0
C321 C 0.78459 0.31513 0.26715 0.0
C322 C 0.79881 0.32565 0.3049 0.0
C323 C 0.81605 0.3018 0.32622 0.0
C324 C 0.82248 0.27036 0.30793 0.0
C325 C 0.84064 0.24802 0.33531 0.0
C326 C 0.84197 0.27019 0.37384 0.0
C327 C 0.8272 0.30137 0.36843 0.0
C328 C 0.81495 0.20977 0.34055 0.0
C329 C 0.88002 0.24757 0.3172 0.0
C330 C 0.78462 0.38889 0.46683 0.0
C331 C 0.78118 0.38947 0.50905 0.0
C332 C 0.7991 0.36692 0.53161 0.0
C333 C 0.81845 0.34261 0.51203 0.0
C334 C 0.81911 0.34044 0.46961 0.0
C335 C 0.80294 0.36395 0.44784 0.0
C336 C 0.80264 0.35573 0.40355 0.0
C337 C 0.82118 0.32323 0.40207 0.0
C338 C 0.83103 0.31439 0.44071 0.0
C339 C 0.76153 0.34578 0.39106 0.0
C340 C 0.8266 0.38901 0.38095 0.0
H341 H 0.87863 0.19822 0.37451 0.0
H342 H 0.89268 0.21498 0.52204 0.0
H343 H 0.91711 0.29864 0.48314 0.0
H344 H 0.88576 0.32261 0.50733 0.0
H345 H 0.89826 0.28484 0.53279 0.0
H346 H 0.81144 0.22566 0.50553 0.0
H347 H 0.83569 0.25172 0.5453 0.0
H348 H 0.80471 0.27008 0.51434 0.0
H349 H 0.81179 0.2335 0.25792 0.0
H350 H 0.76902 0.33236 0.25212 0.0
H351 H 0.79383 0.35088 0.31707 0.0
H352 H 0.7853 0.21206 0.34287 0.0
H353 H 0.81845 0.19192 0.31444 0.0
H354 H 0.81937 0.19563 0.36843 0.0
H355 H 0.89134 0.27256 0.29902 0.0
H356 H 0.9005 0.24758 0.34067 0.0
H357 H 0.87975 0.2237 0.29711 0.0
H358 H 0.90532 0.15564 0.41219 0.0
C359 C 0.88124 0.20284 0.40627 0.0
C360 C 0.42516 0.68556 0.37007 0.0
C361 C 0.4102 0.65047 0.38647 0.0
C362 C 0.37665 0.63106 0.37093 0.0
C363 C 0.37456 0.68006 0.32325 0.0
C364 C 0.40712 0.69963 0.33856 0.0
C365 C 0.41961 0.73605 0.3172 0.0
H366 H 0.39067 0.85703 0.17336 0.0
C367 C 0.36294 0.70198 0.29024 0.0
C368 C 0.38955 0.73503 0.28653 0.0
H369 H 0.4809 0.87099 0.25482 0.0
H370 H 0.45583 0.81145 0.28406 0.0
H371 H 0.32662 0.82173 0.23822 0.0
H372 H 0.39244 0.7754 0.15057 0.0
H373 H 0.34818 0.747 0.15139 0.0
H374 H 0.35374 0.79428 0.13676 0.0
H375 H 0.32042 0.82335 0.18494 0.0
H376 H 0.29661 0.78539 0.21554 0.0
C377 C 0.41938 0.76665 0.3486 0.0
C378 C 0.45805 0.7369 0.2963 0.0
C379 C 0.24292 0.65392 0.21448 0.0
C380 C 0.22582 0.66875 0.18284 0.0
C381 C 0.24458 0.70222 0.16568 0.0
C382 C 0.27824 0.72128 0.18038 0.0
C383 C 0.29429 0.707 0.21273 0.0
C384 C 0.27707 0.67354 0.22894 0.0
C385 C 0.2993 0.66256 0.26259 0.0
C386 C 0.33206 0.69516 0.26423 0.0
C387 C 0.32868 0.72116 0.23489 0.0
C388 C 0.27483 0.65867 0.30195 0.0
C389 C 0.31205 0.6272 0.24964 0.0
C390 C 0.40522 0.84734 0.19739 0.0
C391 C 0.43768 0.86955 0.21195 0.0
C392 C 0.45539 0.8553 0.24344 0.0
C393 C 0.44089 0.8204 0.26029 0.0
C394 C 0.40814 0.79884 0.24569 0.0
C395 C 0.39107 0.81258 0.21458 0.0
C396 C 0.35664 0.78628 0.20247 0.0
C397 C 0.35551 0.75455 0.23135 0.0
C398 C 0.38578 0.76172 0.25687 0.0
C399 C 0.32317 0.80497 0.2103 0.0
C400 C 0.36266 0.7752 0.15794 0.0
H401 H 0.33364 0.62901 0.32966 0.0
H402 H 0.45073 0.70151 0.38105 0.0
H403 H 0.45887 0.71021 0.28176 0.0
H404 H 0.46478 0.75732 0.27186 0.0
H405 H 0.48032 0.74239 0.31843 0.0
H406 H 0.39425 0.75996 0.36912 0.0
H407 H 0.44412 0.77018 0.36741 0.0
H408 H 0.41835 0.7931 0.33474 0.0
H409 H 0.22967 0.6281 0.22819 0.0
H410 H 0.23309 0.71388 0.14057 0.0
H411 H 0.29037 0.74672 0.16593 0.0
H412 H 0.25924 0.68112 0.30448 0.0
H413 H 0.25427 0.6324 0.30263 0.0
H414 H 0.29111 0.66064 0.32932 0.0
H415 H 0.32041 0.62818 0.21698 0.0
H416 H 0.33674 0.62316 0.26529 0.0
H417 H 0.28934 0.60289 0.25475 0.0
H418 H 0.36365 0.6046 0.38329 0.0
C419 C 0.35898 0.64546 0.33974 0.0
C420 C 0.10148 0.2875 0.73378 0.0
C421 C 0.11614 0.26733 0.70303 0.0
C422 C 0.15241 0.28115 0.68738 0.0
C423 C 0.15764 0.33531 0.72898 0.0
C424 C 0.12287 0.32148 0.74634 0.0
C425 C 0.11245 0.34748 0.77812 0.0
H426 H 0.16296 0.50686 0.88413 0.0
C427 C 0.17253 0.37147 0.74697 0.0
C428 C 0.14655 0.37894 0.7764 0.0
H429 H 0.05885 0.42865 0.89537 0.0
H430 H 0.0804 0.39156 0.8434 0.0
H431 H 0.16437 0.50632 0.78486 0.0
H432 H 0.21825 0.44989 0.87029 0.0
H433 H 0.2505 0.46915 0.83159 0.0
H434 H 0.2297 0.49862 0.86422 0.0
H435 H 0.2008 0.53002 0.81534 0.0
H436 H 0.21084 0.50886 0.76842 0.0
C437 C 0.07726 0.35993 0.76501 0.0
C438 C 0.10753 0.32765 0.81927 0.0
C439 C 0.29637 0.44307 0.69078 0.0
C440 C 0.32007 0.47608 0.70094 0.0
C441 C 0.30808 0.49711 0.73239 0.0
C442 C 0.2738 0.48482 0.75385 0.0
C443 C 0.25097 0.4511 0.74382 0.0
C444 C 0.26275 0.431 0.71271 0.0
C445 C 0.23647 0.39523 0.7067 0.0
C446 C 0.20608 0.39729 0.73845 0.0
C447 C 0.21436 0.43005 0.76028 0.0
C448 C 0.22225 0.395 0.66333 0.0
C449 C 0.25723 0.36416 0.71578 0.0
C450 C 0.14426 0.4822 0.87514 0.0
C451 C 0.10869 0.47134 0.89436 0.0
C452 C 0.08642 0.43796 0.88191 0.0
C453 C 0.09891 0.41639 0.85134 0.0
C454 C 0.13417 0.42805 0.83221 0.0
C455 C 0.15601 0.46075 0.84404 0.0
C456 C 0.19195 0.47005 0.81916 0.0
C457 C 0.18862 0.43735 0.79112 0.0
C458 C 0.15469 0.41231 0.79896 0.0
C459 C 0.19241 0.5058 0.79578 0.0
C460 C 0.22453 0.47233 0.84762 0.0
H461 H 0.1998 0.32353 0.68551 0.0
H462 H 0.07389 0.27755 0.74691 0.0
H463 H 0.13058 0.3131 0.82343 0.0
H464 H 0.10818 0.34646 0.84502 0.0
H465 H 0.08103 0.30714 0.82128 0.0
H466 H 0.07912 0.36582 0.73207 0.0
H467 H 0.05207 0.33839 0.77133 0.0
H468 H 0.07345 0.38544 0.77978 0.0
H469 H 0.30391 0.4265 0.66622 0.0
H470 H 0.32559 0.52268 0.74097 0.0
H471 H 0.26657 0.50182 0.77779 0.0
H472 H 0.21701 0.42226 0.65531 0.0
H473 H 0.24296 0.38825 0.64083 0.0
H474 H 0.1955 0.37591 0.6596 0.0
H475 H 0.2807 0.37351 0.73594 0.0
H476 H 0.23932 0.34103 0.73231 0.0
H477 H 0.2689 0.35388 0.68767 0.0
H478 H 0.16501 0.26595 0.66481 0.0
C479 C 0.17287 0.31474 0.69977 0.0
La480 La 0.04568 0.07173 0.55572 0.0
La481 La 0.99084 1.05193 0.62365 0.0
C482 C 0.08894 0.10347 0.50074 0.0
C483 C 0.1108 0.1406 0.49339 0.0
C484 C 0.13605 0.15798 0.52163 0.0
C485 C 0.16209 0.18948 0.51094 0.0
C486 C 0.16315 0.20402 0.47198 0.0
C487 C 0.13542 0.18887 0.44535 0.0
C488 C 0.10959 0.15719 0.45589 0.0
C489 C 0.06097 1.02218 0.60457 0.0
C490 C 0.04894 0.12629 0.63105 0.0
C491 C 0.94941 1.02966 0.68396 0.0
C492 C 0.91158 1.00679 0.68606 0.0
C493 C 0.88089 1.0204 0.67377 0.0
C494 C 0.84601 0.99733 0.67187 0.0
C495 C 0.84128 0.96023 0.68176 0.0
C496 C 0.87174 0.94677 0.69465 0.0
C497 C 0.90651 0.96985 0.69691 0.0
C498 C 0.96662 0.0822 0.56071 0.0
C499 C 0.98786 0.99855 0.54932 0.0
O500 O 0.09938 0.08563 0.53047 0.0
O501 O 0.05272 0.09858 0.49934 0.0
O502 O 0.06671 1.02262 0.56589 0.0
O503 O 0.04811 1.0497 0.6153 0.0
O504 O 0.06128 0.11991 0.59416 0.0
O505 O 0.02295 0.10191 0.65037 0.0
O506 O 0.95306 0.0626 0.66899 0.0
O507 O 0.97528 1.01316 0.66969 0.0
O508 O 0.94677 1.05615 0.58223 0.0
O509 O 0.99776 0.09064 0.57572 0.0
O510 O 0.98341 1.00129 0.58892 0.0
O511 O 1.00661 1.0267 0.5279 0.0
H512 H 0.13714 0.14617 0.55117 0.0
H513 H 0.18301 0.20086 0.53206 0.0
H514 H 0.1353 0.20017 0.41537 0.0
H515 H 0.09008 0.14453 0.4339 0.0
H516 H 0.88382 1.0487 0.66503 0.0
H517 H 0.82276 1.00837 0.66236 0.0
H518 H 0.86853 0.91847 0.70358 0.0
H519 H 0.92962 0.95864 0.70653 0.0
La520 La 0.5524 0.06706 0.10279 0.0
La521 La 0.48358 1.05456 1.06459 0.0
C522 C 0.62043 0.08345 0.11692 0.0
C523 C 0.64629 0.1174 0.12604 0.0
C524 C 0.68079 0.11589 0.14114 0.0
C525 C 0.7046 0.14784 0.15283 0.0
C526 C 0.6942 0.18177 0.14958 0.0
C527 C 0.66017 0.18332 0.13276 0.0
C528 C 0.63626 0.15127 0.12125 0.0
C529 C 0.50171 1.01436 0.13984 0.0
C530 C 0.49809 0.11474 0.13334 0.0
C531 C 0.41567 1.0384 1.0498 0.0
C532 C 0.38987 1.00443 1.04065 0.0
C533 C 0.35525 1.00584 1.02579 0.0
C534 C 0.33133 0.97381 1.01448 0.0
C535 C 0.34177 0.9399 1.01788 0.0
C536 C 0.37601 0.93848 1.03425 0.0
C537 C 0.40001 0.97061 1.04539 0.0
C538 C 0.53449 0.10733 1.02777 0.0
C539 C 0.53774 1.00644 1.03459 0.0
O540 O 0.59437 0.07211 0.14458 0.0
O541 O 0.60756 0.08131 1.08068 0.0
O542 O 0.52619 1.03834 0.15762 0.0
O543 O 0.50719 1.01982 0.10239 0.0
O544 O 0.53355 0.11394 0.12832 0.0
O545 O 0.47324 0.0907 0.11445 0.0
O546 O 0.44198 1.04957 1.02236 0.0
O547 O 0.42824 1.04066 0.08617 0.0
O548 O 0.51024 0.08323 1.00986 0.0
O549 O 0.52866 0.10186 1.06516 0.0
O550 O 0.5023 1.00739 1.03942 0.0
O551 O 0.56262 1.03057 1.0533 0.0
H552 H 0.68885 0.08991 0.14497 0.0
H553 H 0.73046 0.14581 0.16614 0.0
H554 H 0.65166 0.20915 0.12955 0.0
H555 H 0.60964 0.15279 0.10949 0.0
H556 H 0.34711 1.03179 1.02198 0.0
H557 H 0.3053 0.97572 1.00151 0.0
H558 H 0.38453 0.91268 1.03759 0.0
H559 H 0.42672 0.96917 1.05694 0.0
La560 La 0.52122 0.52824 0.55676 0.0
La561 La 0.51234 0.59493 0.61064 0.0
C562 C 0.55282 0.48731 0.51402 0.0
C563 C 0.58814 0.47587 0.51917 0.0
C564 C 0.59172 0.44074 0.50757 0.0
C565 C 0.62427 0.42866 0.51473 0.0
C566 C 0.65374 0.45151 0.53376 0.0
C567 C 0.65016 0.48678 0.5453 0.0
C568 C 0.61746 0.49877 0.53838 0.0
C569 C 0.45708 0.51517 0.6005 0.0
C570 C 0.54988 0.53442 0.64758 0.0
C571 C 0.48155 0.63882 0.64959 0.0
C572 C 0.44555 0.64965 0.64608 0.0
C573 C 0.43323 0.65852 0.60858 0.0
C574 C 0.39775 0.66595 0.60556 0.0
C575 C 0.37402 0.66454 0.64 0.0
C576 C 0.38642 0.6556 0.67742 0.0
C577 C 0.42184 0.64826 0.68041 0.0
C578 C 0.57864 0.599 0.57457 0.0
C579 C 0.48014 0.58594 0.51941 0.0
O580 O 0.52699 0.47514 0.54168 0.0
O581 O 0.55502 0.52189 0.5059 0.0
O582 O 0.46723 0.4922 0.57517 0.0
O583 O 0.48239 0.54312 0.59809 0.0
O584 O 0.55375 0.5226 0.61007 0.0
O585 O 0.53137 0.56075 0.65574 0.0
O586 O 0.50678 0.64902 0.62048 0.0
O587 O 0.47919 0.60481 0.66056 0.0
O588 O 0.57295 0.61458 0.60881 0.0
O589 O 0.54743 0.58473 0.56117 0.0
O590 O 0.48376 0.60373 0.5546 0.0
O591 O 0.49275 0.5554 0.51322 0.0
H592 H 0.56927 0.42261 0.49311 0.0
H593 H 0.6267 0.40165 0.50466 0.0
H594 H 0.67259 0.50493 0.55977 0.0
H595 H 0.615 0.52583 0.54821 0.0
H596 H 0.45082 0.6594 0.58156 0.0
H597 H 0.38877 0.67248 0.57631 0.0
H598 H 0.36884 0.65473 0.70455 0.0
H599 H 0.43062 0.64112 0.70954 0.0
La600 La 0.01577 0.53139 0.10436 0.0
La601 La 1.01212 0.60015 1.06489 0.0
C602 C 0.03665 0.47464 0.12642 0.0
C603 C 0.07302 0.46422 0.12597 0.0
C604 C 0.07725 0.43317 0.1471 0.0
C605 C 0.11174 0.42305 0.14677 0.0
C606 C 0.14255 0.44395 0.12538 0.0
C607 C 0.13823 0.47506 0.10419 0.0
C608 C 0.10363 0.48493 0.10418 0.0
C609 C 0.97878 0.57354 0.1478 0.0
C610 C 0.08335 0.60048 0.11189 0.0
C611 C 0.98918 0.65556 1.04263 0.0
C612 C 0.9532 0.66146 1.02842 0.0
C613 C 0.94272 0.65335 0.98857 0.0
C614 C 0.90857 0.65881 0.97576 0.0
C615 C 0.88404 0.67235 1.0025 0.0
C616 C 0.89455 0.68053 1.04227 0.0
C617 C 0.92875 0.67522 1.05505 0.0
C618 C 0.0506 0.55938 1.0215 0.0
C619 C 0.9441 0.53117 1.05746 0.0
O620 O 0.03227 0.50099 0.15097 0.0
O621 O 0.02401 0.47882 0.09098 0.0
O622 O 0.96987 0.53816 0.14684 0.0
O623 O 1.00823 0.58337 0.12645 0.0
O624 O 0.07287 0.56438 0.11037 0.0
O625 O 0.06144 0.62133 0.09859 0.0
O626 O 1.00819 0.63745 1.01891 0.0
O627 O 0.98925 0.64553 1.08032 0.0
O628 O 0.05832 0.59479 1.02297 0.0
O629 O 0.02097 0.54831 1.04255 0.0
O630 O 0.95622 0.56695 1.05478 0.0
O631 O 0.96447 0.51028 1.07373 0.0
H632 H 0.05394 0.41686 0.16402 0.0
H633 H 0.11455 0.39933 0.16398 0.0
H634 H 0.16157 0.49162 0.08758 0.0
H635 H 0.10081 0.5087 0.08714 0.0
H636 H 0.96095 0.64297 0.96713 0.0
H637 H 0.90172 0.65313 0.94463 0.0
H638 H 0.87626 0.69102 1.06356 0.0
H639 H 0.93604 0.68189 0.08589 0.0
C640 C 0.241 0.28841 0.46338 0.0
C641 C 0.26157 0.28046 0.42901 0.0
C642 C 0.20903 0.26361 0.47751 0.0
C643 C 0.19628 0.23066 0.45703 0.0
H644 H 0.24959 0.31393 0.4792 0.0
H645 H 0.19388 0.27041 0.50417 0.0
S646 S 0.23996 0.19744 0.36538 0.0
N647 N 0.2664 0.23757 0.3746 0.0
N648 N 0.20713 0.19106 0.4015 0.0
C649 C 0.21674 0.22249 0.42283 0.0
C650 C 0.24914 0.24739 0.40869 0.0
C651 C 0.25599 0.87419 0.98521 0.0
C652 C 0.27025 0.85491 0.95395 0.0
C653 C 0.27962 0.8998 1.00814 0.0
C654 C 0.31828 0.90706 1.00046 0.0
H655 H 0.22626 0.87104 0.99031 0.0
H656 H 0.26744 0.91547 1.03055 0.0
S657 S 0.36956 0.862 0.92374 0.0
N658 N 0.3255 0.843 0.91822 0.0
N659 N 0.36989 0.89126 0.96116 0.0
C660 C 0.33303 0.88609 0.97121 0.0
C661 C 0.30898 0.85995 0.94797 0.0
C662 C 0.58733 0.51908 0.75193 0.0
C663 C 0.59988 0.48601 0.74771 0.0
C664 C 0.5711 0.53424 0.71988 0.0
C665 C 0.56727 0.51759 0.68151 0.0
H666 H 0.58983 0.53334 0.78049 0.0
H667 H 0.56183 0.55955 0.72524 0.0
S668 S 0.59727 0.43122 0.65386 0.0
N669 N 0.60788 0.43745 0.70163 0.0
N670 N 0.57847 0.46585 0.64155 0.0
C671 C 0.58017 0.48461 0.67683 0.0
C672 C 0.59608 0.46891 0.70973 0.0
C673 C 0.91498 0.61308 0.22239 0.0
C674 C 0.93971 0.63878 0.24498 0.0
C675 C 0.9277 0.59208 0.19132 0.0
C676 C 0.96569 0.5963 0.18053 0.0
H677 H 0.88533 0.60927 0.22836 0.0
H678 H 0.9075 0.57272 0.17517 0.0
S679 S 0.04277 0.65691 0.23131 0.0
N680 N 1.00499 0.66436 0.25553 0.0
N681 N 0.02815 0.62687 0.19592 0.0
C682 C 0.99079 0.62166 0.20259 0.0
C683 C 0.97804 0.64234 0.23495 0.0
C684 C 0.43775 0.18056 0.16912 0.0
C685 C 0.4627 0.20812 0.18844 0.0
C686 C 0.44929 0.15007 0.15248 0.0
C687 C 0.48639 0.14604 0.15413 0.0
H688 H 0.40887 0.18231 0.16735 0.0
H689 H 0.4289 0.12974 0.1378 0.0
S690 S 0.56287 0.2114 0.2008 0.0
N691 N 0.52616 0.22994 0.20809 0.0
N692 N 0.54819 0.17282 0.17659 0.0
C693 C 0.5117 0.17357 0.1734 0.0
C694 C 0.49978 0.20454 0.19061 0.0
C695 C 0.10956 0.94854 0.63834 0.0
C696 C 0.10104 0.94543 0.68014 0.0
C697 C 0.09608 0.97319 0.61447 0.0
C698 C 0.07452 0.9968 0.6314 0.0
H699 H 0.12738 0.93229 0.62371 0.0
H700 H 0.10326 0.97409 0.58244 0.0
S701 S 0.04418 1.0006 0.73893 0.0
N702 N 0.06745 0.96735 0.73693 0.0
N703 N 0.04638 1.01682 0.69256 0.0
C704 C 0.06643 0.99487 0.67311 0.0
C705 C 0.07865 0.96849 0.69732 0.0
C706 C 0.86779 0.46071 1.00921 0.0
C707 C 0.83875 0.47951 1.00407 0.0
C708 C 0.90126 0.47742 1.02672 0.0
C709 C 0.90766 0.51396 1.03982 0.0
H710 H 0.86468 0.43261 0.99953 0.0
H711 H 0.92251 0.46155 1.02959 0.0
S712 S 0.8399 0.57477 1.03652 0.0
N713 N 0.81826 0.53649 1.01578 0.0
N714 N 0.88117 0.56802 1.0479 0.0
C715 C 0.87893 0.53318 1.03496 0.0
C716 C 0.84463 0.51603 1.0173 0.0
C717 C 0.68176 0.63147 0.54668 0.0
C718 C 0.68348 0.63007 0.50416 0.0
C719 C 0.64797 0.62052 0.56907 0.0
C720 C 0.61432 0.60784 0.54999 0.0
H721 H 0.70679 0.64133 0.56283 0.0
H722 H 0.64817 0.62241 0.60166 0.0
S723 S 0.60308 0.60091 0.4393 0.0
N724 N 0.64811 0.61577 0.44392 0.0
N725 N 0.5848 0.59604 0.48573 0.0
C726 C 0.61562 0.60626 0.50751 0.0
C727 C 0.65008 0.61712 0.48472 0.0
C728 C 0.24325 0.45035 0.1496 0.0
C729 C 0.24819 0.41443 0.14333 0.0
C730 C 0.2096 0.46026 0.14143 0.0
C731 C 0.17955 0.43441 0.12736 0.0
H732 H 0.26495 0.47044 0.16276 0.0
H733 H 0.20638 0.48777 0.14837 0.0
S734 S 0.17942 0.33771 0.10271 0.0
N735 N 0.2212 0.35369 0.11952 0.0
N736 N 0.15788 0.3723 0.10426 0.0
C737 C 0.18482 0.39897 0.11891 0.0
C738 C 0.21921 0.389 0.12679 0.0
C739 C 0.57989 0.20913 1.01564 0.0
C740 C 0.5824 0.21476 0.97342 0.0
C741 C 0.56521 0.17444 1.03296 0.0
C742 C 0.55244 0.14354 1.00893 0.0
H743 H 0.58856 0.23196 1.03566 0.0
H744 H 0.56312 0.17204 1.06552 0.0
S745 S 0.55601 0.14219 0.8969 0.0
N746 N 0.57307 0.18521 0.90816 0.0
N747 N 0.54544 0.12069 0.94047 0.0
C748 C 0.55571 0.14853 0.96675 0.0
C749 C 0.5706 0.18382 0.94912 0.0
C750 C 0.95213 0.9259 0.46943 0.0
C751 C 0.93924 0.89408 0.49274 0.0
C752 C 0.96846 0.95944 0.48751 0.0
C753 C 0.97249 0.96255 0.52966 0.0
H754 H 0.94837 0.92519 0.43721 0.0
H755 H 0.97707 0.98329 0.46842 0.0
S756 S 0.94727 0.88596 0.60338 0.0
N757 N 0.93482 0.86722 0.55963 0.0
N758 N 0.96481 0.92933 0.59343 0.0
C759 C 0.96107 0.93037 0.55287 0.0
C760 C 0.9447 0.89649 0.53451 0.0
C761 C 0.27252 0.66315 0.66396 0.0
C762 C 0.26894 0.69801 0.65134 0.0
C763 C 0.30593 0.65128 0.65741 0.0
C764 C 0.33691 0.67386 0.63803 0.0
H765 H 0.25029 0.64611 0.68171 0.0
H766 H 0.30824 0.62513 0.66971 0.0
S767 S 0.34046 0.76587 0.59534 0.0
N768 N 0.29794 0.75355 0.61531 0.0
N769 N 0.36078 0.73123 0.60297 0.0
C770 C 0.33264 0.70742 0.62216 0.0
C771 C 0.29857 0.71948 0.62879 0.0
C772 C 0.7418 0.92103 0.7135 0.0
C773 C 0.73664 0.88489 0.6992 0.0
C774 C 0.77488 0.94619 0.70512 0.0
C775 C 0.80407 0.93611 0.68229 0.0
H776 H 0.72158 0.92918 0.73433 0.0
H777 H 0.77868 0.97279 0.71923 0.0
S778 S 0.80149 0.84791 0.63006 0.0
N779 N 0.76101 0.8425 0.6551 0.0
N780 N 0.82367 0.88986 0.63985 0.0
C781 C 0.798 0.90137 0.66446 0.0
C782 C 0.76413 0.87577 0.67272 0.0
C783 C 0.77905 0.24639 0.18601 0.0
C784 C 0.76404 0.2646 0.21773 0.0
C785 C 0.756 0.2217 0.16155 0.0
C786 C 0.7172 0.21432 0.1681 0.0
H787 H 0.80885 0.24948 0.18181 0.0
H788 H 0.7687 0.20664 0.13894 0.0
S789 S 0.6641 0.25715 0.24513 0.0
N790 N 0.70797 0.27568 0.25244 0.0
N791 N 0.66471 0.22917 0.20662 0.0
C792 C 0.70177 0.23447 0.19765 0.0
C793 C 0.72522 0.25967 0.22246 0.0
C794 C 0.44168 0.65409 0.45411 0.0
C795 C 0.42894 0.63389 0.41958 0.0
C796 C 0.45767 0.63844 0.48604 0.0
C797 C 0.46217 0.60178 0.48513 0.0
H798 H 0.43875 0.6822 0.45687 0.0
H799 H 0.46702 0.65555 0.51148 0.0
S800 S 0.43554 0.53743 0.40045 0.0
N801 N 0.42365 0.57537 0.38592 0.0
N802 N 0.45318 0.54621 0.44523 0.0
C803 C 0.45012 0.58151 0.45036 0.0
C804 C 0.43368 0.59739 0.41799 0.0
C805 C 0.07254 0.47808 0.9604 0.0
C806 C 0.09459 0.49448 0.92685 0.0
C807 C 0.05849 0.49899 0.99064 0.0
C808 C 0.06625 0.53743 0.98942 0.0
H809 H 0.06613 0.44868 0.96361 0.0
H810 H 0.04144 0.48479 1.01522 0.0
S811 S 0.12036 0.59447 0.90733 0.0
N812 N 0.12116 0.55224 0.89351 0.0
N813 N 0.09666 0.59106 0.95094 0.0
C814 C 0.08823 0.55427 0.9562 0.0
C815 C 0.10191 0.53303 0.92497 0.0
C816 C 0.59603 0.93688 1.00597 0.0
C817 C 0.57217 0.91128 0.98307 0.0
C818 C 0.58494 0.96801 1.0214 0.0
C819 C 0.54931 0.9746 1.01497 0.0
H820 H 0.6238 0.93314 1.01142 0.0
H821 H 0.60442 0.98677 1.03901 0.0
S822 S 0.47615 0.91517 0.95728 0.0
N823 N 0.51145 0.89416 0.95453 0.0
N824 N 0.49007 0.95238 0.98414 0.0
C825 C 0.52506 0.94899 0.99218 0.0
C826 C 0.53663 0.91744 0.97605 0.0
C827 C 0.89731 0.1223 0.50363 0.0
C828 C 0.91814 0.15661 0.49175 0.0
C829 C 0.91349 0.09786 0.52515 0.0
C830 C 0.95101 0.10699 0.53512 0.0
H831 H 0.86828 0.11456 0.49668 0.0
H832 H 0.89637 0.07191 0.53448 0.0
S833 S 0.01752 0.1931 0.5082 0.0
N834 N 0.978 0.19815 0.48961 0.0
N835 N 1.00876 0.15246 0.52986 0.0
C836 C 0.97224 0.14102 0.52233 0.0
C837 C 0.95567 0.16583 0.5007 0.0
C838 C 0.18051 0.61348 0.15621 0.0
C839 C 0.18846 0.6506 0.16743 0.0
C840 C 0.14672 0.59745 0.13836 0.0
C841 C 0.11934 0.61781 0.13077 0.0
H842 H 0.20093 0.59688 0.16032 0.0
H843 H 0.1423 0.56894 0.12996 0.0
S844 S 0.12461 0.71497 0.15899 0.0
N845 N 0.16437 0.70622 0.17291 0.0
N846 N 0.10199 0.67677 0.13909 0.0
C847 C 0.12663 0.65466 0.14305 0.0
C848 C 0.16075 0.6708 0.16139 0.0
C849 C 0.37008 0.52347 0.66445 0.0
C850 C 0.35723 0.48748 0.67902 0.0
C851 C 0.40322 0.53307 0.64026 0.0
C852 C 0.4244 0.50691 0.62942 0.0
H853 H 0.3538 0.54404 0.67057 0.0
H854 H 0.41144 0.56067 0.62867 0.0
S855 S 0.40671 0.41094 0.66506 0.0
N856 N 0.37175 0.42727 0.68509 0.0
N857 N 0.43237 0.44481 0.63859 0.0
C858 C 0.41283 0.47152 0.64534 0.0
C859 C 0.37976 0.46195 0.67039 0.0
C860 C 0.80698 0.72256 0.98149 0.0
C861 C 0.7835 0.69805 0.95693 0.0
C862 C 0.83878 0.71357 0.99702 0.0
C863 C 0.84847 0.67979 0.98843 0.0
H864 H 0.80177 0.74962 0.9872 0.0
H865 H 0.85674 0.73388 1.01452 0.0
S866 S 0.79346 0.60406 0.93021 0.0
N867 N 0.76988 0.63702 0.92842 0.0
N868 N 0.83014 0.62048 0.95666 0.0
C869 C 0.82432 0.6544 0.96539 0.0
C870 C 0.79171 0.66341 0.94996 0.0
C871 C 0.45514 0.91287 0.15197 0.0
C872 C 0.45302 0.90709 0.19417 0.0
C873 C 0.47013 0.94751 0.1347 0.0
C874 C 0.48361 0.97822 0.15873 0.0
H875 H 0.44585 0.8902 0.13194 0.0
H876 H 0.47185 0.95 0.10214 0.0
S877 S 0.48153 0.97913 0.27075 0.0
N878 N 0.46367 0.9363 0.25945 0.0
N879 N 0.49186 1.00073 0.2272 0.0
C880 C 0.48083 0.97307 0.2009 0.0
C881 C 0.46563 0.93784 0.21849 0.0
C882 C 0.07836 0.20218 0.70945 0.0
C883 C 0.09463 0.23264 0.68529 0.0
C884 C 0.06301 0.16801 0.69203 0.0
C885 C 0.06368 0.16283 0.64978 0.0
H886 H 0.07868 0.20439 0.742 0.0
H887 H 0.05154 0.14525 0.71185 0.0
S888 S 0.09846 0.23534 0.57324 0.0
N889 N 0.10658 0.25613 0.61688 0.0
N890 N 0.07906 0.19265 0.58452 0.0
C891 C 0.07847 0.19362 0.6255 0.0
C892 C 0.09351 0.22822 0.64311 0.0
C893 C 0.75386 0.44499 0.5155 0.0
C894 C 0.75363 0.40898 0.52766 0.0
C895 C 0.72212 0.45993 0.52079 0.0
C896 C 0.68908 0.43924 0.53821 0.0
H897 H 0.77779 0.46062 0.49889 0.0
H898 H 0.72257 0.48667 0.5082 0.0
S899 S 0.6761 0.34638 0.58183 0.0
N900 N 0.71915 0.35495 0.56281 0.0
N901 N 0.65964 0.38334 0.57326 0.0
C902 C 0.68966 0.40472 0.55421 0.0
C903 C 0.72199 0.38953 0.54893 0.0
loop_
_geom_bond_atom_site_label_1
_geom_bond_atom_site_label_2
_geom_bond_distance
_geom_bond_site_symmetry_2
_ccdc_geom_bond_type
C0 C1 1.391 . S
C0 C4 1.391 . S
C0 H42 0.948 . S
C1 C0 1.391 . S
C1 C2 1.391 . S
C2 C1 1.391 . S
C2 H58 0.947 . S
C2 C59 1.392 . S
C3 C4 1.391 . S
C3 C7 1.397 . S
C3 C59 1.419 . S
C4 C0 1.391 . S
C4 C3 1.391 . S
C4 C5 1.399 . S
C5 C4 1.399 . S
C5 C8 1.396 . S
C5 C17 1.453 . S
C5 C18 1.684 . S
H6 C30 0.948 . S
C7 C3 1.397 . S
C7 C8 1.394 . S
C7 C26 1.723 . S
C8 C5 1.396 . S
C8 C7 1.394 . S
C8 C38 1.723 . S
H9 C32 0.947 . S
H10 C33 0.948 . S
H11 C39 0.982 . S
H12 C40 0.979 . S
H13 C40 0.980 . S
H14 C40 0.983 . S
H15 C39 0.979 . S
H16 C39 0.977 . S
C17 C5 1.453 . S
C17 H46 0.982 . S
C17 H47 0.979 . S
C17 H48 0.977 . S
C18 C5 1.684 . S
C18 H43 0.979 . S
C18 H44 0.980 . S
C18 H45 0.983 . S
C19 C20 1.391 . S
C19 C24 1.391 . S
C19 H49 0.948 . S
C20 C19 1.391 . S
C20 C21 1.391 . S
C21 C20 1.391 . S
C21 C22 1.392 . S
C21 H50 0.947 . S
C22 C21 1.392 . S
C22 C23 1.419 . S
C22 H51 0.948 . S
C23 C22 1.419 . S
C23 C24 1.391 . S
C23 C27 1.397 . S
C24 C19 1.391 . S
C24 C23 1.391 . S
C24 C25 1.399 . S
C25 C24 1.399 . S
C25 C26 1.396 . S
C25 C28 1.453 . S
C25 C29 1.684 . S
C26 C7 1.723 . S
C26 C25 1.396 . S
C26 C27 1.394 . S
C27 C23 1.397 . S
C27 C26 1.394 . S
C27 C37 1.723 . S
C28 C25 1.453 . S
C28 H52 0.982 . S
C28 H53 0.979 . S
C28 H54 0.977 . S
C29 C25 1.684 . S
C29 H55 0.979 . S
C29 H56 0.980 . S
C29 H57 0.983 . S
C30 H6 0.948 . S
C30 C31 1.391 . S
C30 C35 1.391 . S
C31 C30 1.391 . S
C31 C32 1.391 . S
C32 H9 0.947 . S
C32 C31 1.391 . S
C32 C33 1.392 . S
C33 H10 0.948 . S
C33 C32 1.392 . S
C33 C34 1.419 . S
C34 C33 1.419 . S
C34 C35 1.391 . S
C34 C38 1.397 . S
C35 C30 1.391 . S
C35 C34 1.391 . S
C35 C36 1.399 . S
C36 C35 1.399 . S
C36 C37 1.396 . S
C36 C39 1.453 . S
C36 C40 1.684 . S
C37 C27 1.723 . S
C37 C36 1.396 . S
C37 C38 1.394 . S
C38 C8 1.723 . S
C38 C34 1.397 . S
C38 C37 1.394 . S
C39 H11 0.982 . S
C39 H15 0.979 . S
C39 H16 0.977 . S
C39 C36 1.453 . S
C40 H12 0.979 . S
C40 H13 0.980 . S
C40 H14 0.983 . S
C40 C36 1.684 . S
H41 C59 0.948 . S
H42 C0 0.948 . S
H43 C18 0.979 . S
H44 C18 0.980 . S
H45 C18 0.983 . S
H46 C17 0.982 . S
H47 C17 0.979 . S
H48 C17 0.977 . S
H49 C19 0.948 . S
H50 C21 0.947 . S
H51 C22 0.948 . S
H52 C28 0.982 . S
H53 C28 0.979 . S
H54 C28 0.977 . S
H55 C29 0.979 . S
H56 C29 0.980 . S
H57 C29 0.983 . S
H58 C2 0.947 . S
C59 C2 1.392 . S
C59 C3 1.419 . S
C59 H41 0.948 . S
C60 C61 1.391 . S
C60 C64 1.391 . S
C60 H102 0.948 . S
C61 C60 1.391 . S
C61 C62 1.391 . S
C62 C61 1.391 . S
C62 H118 0.947 . S
C62 C119 1.392 . S
C63 C64 1.391 . S
C63 C67 1.397 . S
C63 C119 1.419 . S
C64 C60 1.391 . S
C64 C63 1.391 . S
C64 C65 1.399 . S
C65 C64 1.399 . S
C65 C68 1.396 . S
C65 C77 1.453 . S
C65 C78 1.684 . S
H66 C90 0.948 . S
C67 C63 1.397 . S
C67 C68 1.394 . S
C67 C86 1.723 . S
C68 C65 1.396 . S
C68 C67 1.394 . S
C68 C98 1.723 . S
H69 C92 0.947 . S
H70 C93 0.948 . S
H71 C99 0.982 . S
H72 C100 0.979 . S
H73 C100 0.980 . S
H74 C100 0.983 . S
H75 C99 0.979 . S
H76 C99 0.977 . S
C77 C65 1.453 . S
C77 H106 0.982 . S
C77 H107 0.979 . S
C77 H108 0.977 . S
C78 C65 1.684 . S
C78 H103 0.979 . S
C78 H104 0.980 . S
C78 H105 0.983 . S
C79 C80 1.391 . S
C79 C84 1.391 . S
C79 H109 0.948 . S
C80 C79 1.391 . S
C80 C81 1.391 . S
C81 C80 1.391 . S
C81 C82 1.392 . S
C81 H110 0.947 . S
C82 C81 1.392 . S
C82 C83 1.419 . S
C82 H111 0.948 . S
C83 C82 1.419 . S
C83 C84 1.391 . S
C83 C87 1.397 . S
C84 C79 1.391 . S
C84 C83 1.391 . S
C84 C85 1.399 . S
C85 C84 1.399 . S
C85 C86 1.396 . S
C85 C88 1.453 . S
C85 C89 1.684 . S
C86 C67 1.723 . S
C86 C85 1.396 . S
C86 C87 1.394 . S
C87 C83 1.397 . S
C87 C86 1.394 . S
C87 C97 1.723 . S
C88 C85 1.453 . S
C88 H112 0.982 . S
C88 H113 0.979 . S
C88 H114 0.977 . S
C89 C85 1.684 . S
C89 H115 0.979 . S
C89 H116 0.980 . S
C89 H117 0.983 . S
C90 H66 0.948 . S
C90 C91 1.391 . S
C90 C95 1.391 . S
C91 C90 1.391 . S
C91 C92 1.391 . S
C92 H69 0.947 . S
C92 C91 1.391 . S
C92 C93 1.392 . S
C93 H70 0.948 . S
C93 C92 1.392 . S
C93 C94 1.419 . S
C94 C93 1.419 . S
C94 C95 1.391 . S
C94 C98 1.397 . S
C95 C90 1.391 . S
C95 C94 1.391 . S
C95 C96 1.399 . S
C96 C95 1.399 . S
C96 C97 1.396 . S
C96 C99 1.453 . S
C96 C100 1.684 . S
C97 C87 1.723 . S
C97 C96 1.396 . S
C97 C98 1.394 . S
C98 C68 1.723 . S
C98 C94 1.397 . S
C98 C97 1.394 . S
C99 H71 0.982 . S
C99 H75 0.979 . S
C99 H76 0.977 . S
C99 C96 1.453 . S
C100 H72 0.979 . S
C100 H73 0.980 . S
C100 H74 0.983 . S
C100 C96 1.684 . S
H101 C119 0.948 . S
H102 C60 0.948 . S
H103 C78 0.979 . S
H104 C78 0.980 . S
H105 C78 0.983 . S
H106 C77 0.982 . S
H107 C77 0.979 . S
H108 C77 0.977 . S
H109 C79 0.948 . S
H110 C81 0.947 . S
H111 C82 0.948 . S
H112 C88 0.982 . S
H113 C88 0.979 . S
H114 C88 0.977 . S
H115 C89 0.979 . S
H116 C89 0.980 . S
H117 C89 0.983 . S
H118 C62 0.947 . S
C119 C62 1.392 . S
C119 C63 1.419 . S
C119 H101 0.948 . S
C120 C121 1.391 . S
C120 C124 1.391 . S
C120 H162 0.948 . S
C121 C120 1.391 . S
C121 C122 1.391 . S
C122 C121 1.391 . S
C122 H178 0.947 . S
C122 C179 1.392 . S
C123 C124 1.391 . S
C123 C127 1.397 . S
C123 C179 1.419 . S
C124 C120 1.391 . S
C124 C123 1.391 . S
C124 C125 1.399 . S
C125 C124 1.399 . S
C125 C128 1.396 . S
C125 C137 1.453 . S
C125 C138 1.684 . S
H126 C150 0.948 . S
C127 C123 1.397 . S
C127 C128 1.394 . S
C127 C146 1.723 . S
C128 C125 1.396 . S
C128 C127 1.394 . S
C128 C158 1.723 . S
H129 C152 0.947 . S
H130 C153 0.948 . S
H131 C159 0.982 . S
H132 C160 0.979 . S
H133 C160 0.980 . S
H134 C160 0.983 . S
H135 C159 0.979 . S
H136 C159 0.977 . S
C137 C125 1.453 . S
C137 H166 0.982 . S
C137 H167 0.979 . S
C137 H168 0.977 . S
C138 C125 1.684 . S
C138 H163 0.979 . S
C138 H164 0.980 . S
C138 H165 0.983 . S
C139 C140 1.391 . S
C139 C144 1.391 . S
C139 H169 0.948 . S
C140 C139 1.391 . S
C140 C141 1.391 . S
C141 C140 1.391 . S
C141 C142 1.392 . S
C141 H170 0.947 . S
C142 C141 1.392 . S
C142 C143 1.419 . S
C142 H171 0.948 . S
C143 C142 1.419 . S
C143 C144 1.391 . S
C143 C147 1.397 . S
C144 C139 1.391 . S
C144 C143 1.391 . S
C144 C145 1.399 . S
C145 C144 1.399 . S
C145 C146 1.396 . S
C145 C148 1.453 . S
C145 C149 1.684 . S
C146 C127 1.723 . S
C146 C145 1.396 . S
C146 C147 1.394 . S
C147 C143 1.397 . S
C147 C146 1.394 . S
C147 C157 1.723 . S
C148 C145 1.453 . S
C148 H172 0.982 . S
C148 H173 0.979 . S
C148 H174 0.977 . S
C149 C145 1.684 . S
C149 H175 0.979 . S
C149 H176 0.980 . S
C149 H177 0.983 . S
C150 H126 0.948 . S
C150 C151 1.391 . S
C150 C155 1.391 . S
C151 C150 1.391 . S
C151 C152 1.391 . S
C152 H129 0.947 . S
C152 C151 1.391 . S
C152 C153 1.392 . S
C153 H130 0.948 . S
C153 C152 1.392 . S
C153 C154 1.419 . S
C154 C153 1.419 . S
C154 C155 1.391 . S
C154 C158 1.397 . S
C155 C150 1.391 . S
C155 C154 1.391 . S
C155 C156 1.399 . S
C156 C155 1.399 . S
C156 C157 1.396 . S
C156 C159 1.453 . S
C156 C160 1.684 . S
C157 C147 1.723 . S
C157 C156 1.396 . S
C157 C158 1.394 . S
C158 C128 1.723 . S
C158 C154 1.397 . S
C158 C157 1.394 . S
C159 H131 0.982 . S
C159 H135 0.979 . S
C159 H136 0.977 . S
C159 C156 1.453 . S
C160 H132 0.979 . S
C160 H133 0.980 . S
C160 H134 0.983 . S
C160 C156 1.684 . S
H161 C179 0.948 . S
H162 C120 0.948 . S
H163 C138 0.979 . S
H164 C138 0.980 . S
H165 C138 0.983 . S
H166 C137 0.982 . S
H167 C137 0.979 . S
H168 C137 0.977 . S
H169 C139 0.948 . S
H170 C141 0.947 . S
H171 C142 0.948 . S
H172 C148 0.982 . S
H173 C148 0.979 . S
H174 C148 0.977 . S
H175 C149 0.979 . S
H176 C149 0.980 . S
H177 C149 0.983 . S
H178 C122 0.947 . S
C179 C122 1.392 . S
C179 C123 1.419 . S
C179 H161 0.948 . S
C180 C181 1.391 . S
C180 C184 1.391 . S
C180 H222 0.948 . S
C181 C180 1.391 . S
C181 C182 1.391 . S
C182 C181 1.391 . S
C182 H238 0.947 . S
C182 C239 1.392 . S
C183 C184 1.391 . S
C183 C187 1.397 . S
C183 C239 1.419 . S
C184 C180 1.391 . S
C184 C183 1.391 . S
C184 C185 1.399 . S
C185 C184 1.399 . S
C185 C188 1.396 . S
C185 C197 1.453 . S
C185 C198 1.684 . S
H186 C210 0.948 . S
C187 C183 1.397 . S
C187 C188 1.394 . S
C187 C206 1.723 . S
C188 C185 1.396 . S
C188 C187 1.394 . S
C188 C218 1.723 . S
H189 C212 0.947 . S
H190 C213 0.948 . S
H191 C219 0.982 . S
H192 C220 0.979 . S
H193 C220 0.980 . S
H194 C220 0.983 . S
H195 C219 0.979 . S
H196 C219 0.977 . S
C197 C185 1.453 . S
C197 H226 0.982 . S
C197 H227 0.979 . S
C197 H228 0.977 . S
C198 C185 1.684 . S
C198 H223 0.979 . S
C198 H224 0.980 . S
C198 H225 0.983 . S
C199 C200 1.391 . S
C199 C204 1.391 . S
C199 H229 0.948 . S
C200 C199 1.391 . S
C200 C201 1.391 . S
C201 C200 1.391 . S
C201 C202 1.392 . S
C201 H230 0.947 . S
C202 C201 1.392 . S
C202 C203 1.419 . S
C202 H231 0.948 . S
C203 C202 1.419 . S
C203 C204 1.391 . S
C203 C207 1.397 . S
C204 C199 1.391 . S
C204 C203 1.391 . S
C204 C205 1.399 . S
C205 C204 1.399 . S
C205 C206 1.396 . S
C205 C208 1.453 . S
C205 C209 1.684 . S
C206 C187 1.723 . S
C206 C205 1.396 . S
C206 C207 1.394 . S
C207 C203 1.397 . S
C207 C206 1.394 . S
C207 C217 1.723 . S
C208 C205 1.453 . S
C208 H232 0.982 . S
C208 H233 0.979 . S
C208 H234 0.977 . S
C209 C205 1.684 . S
C209 H235 0.979 . S
C209 H236 0.980 . S
C209 H237 0.983 . S
C210 H186 0.948 . S
C210 C211 1.391 . S
C210 C215 1.391 . S
C211 C210 1.391 . S
C211 C212 1.391 . S
C212 H189 0.947 . S
C212 C211 1.391 . S
C212 C213 1.392 . S
C213 H190 0.948 . S
C213 C212 1.392 . S
C213 C214 1.419 . S
C214 C213 1.419 . S
C214 C215 1.391 . S
C214 C218 1.397 . S
C215 C210 1.391 . S
C215 C214 1.391 . S
C215 C216 1.399 . S
C216 C215 1.399 . S
C216 C217 1.396 . S
C216 C219 1.453 . S
C216 C220 1.684 . S
C217 C207 1.723 . S
C217 C216 1.396 . S
C217 C218 1.394 . S
C218 C188 1.723 . S
C218 C214 1.397 . S
C218 C217 1.394 . S
C219 H191 0.982 . S
C219 H195 0.979 . S
C219 H196 0.977 . S
C219 C216 1.453 . S
C220 H192 0.979 . S
C220 H193 0.980 . S
C220 H194 0.983 . S
C220 C216 1.684 . S
H221 C239 0.948 . S
H222 C180 0.948 . S
H223 C198 0.979 . S
H224 C198 0.980 . S
H225 C198 0.983 . S
H226 C197 0.982 . S
H227 C197 0.979 . S
H228 C197 0.977 . S
H229 C199 0.948 . S
H230 C201 0.947 . S
H231 C202 0.948 . S
H232 C208 0.982 . S
H233 C208 0.979 . S
H234 C208 0.977 . S
H235 C209 0.979 . S
H236 C209 0.980 . S
H237 C209 0.983 . S
H238 C182 0.947 . S
C239 C182 1.392 . S
C239 C183 1.419 . S
C239 H221 0.948 . S
C240 C241 1.391 . S
C240 C244 1.391 . S
C240 H282 0.948 . S
C241 C240 1.391 . S
C241 C242 1.391 . S
C242 C241 1.391 . S
C242 H298 0.947 . S
C242 C299 1.392 . S
C243 C244 1.391 . S
C243 C247 1.397 . S
C243 C299 1.419 . S
C244 C240 1.391 . S
C244 C243 1.391 . S
C244 C245 1.399 . S
C245 C244 1.399 . S
C245 C248 1.396 . S
C245 C257 1.453 . S
C245 C258 1.684 . S
H246 C270 0.948 . S
C247 C243 1.397 . S
C247 C248 1.394 . S
C247 C266 1.723 . S
C248 C245 1.396 . S
C248 C247 1.394 . S
C248 C278 1.723 . S
H249 C272 0.947 . S
H250 C273 0.948 . S
H251 C279 0.982 . S
H252 C280 0.979 . S
H253 C280 0.980 . S
H254 C280 0.983 . S
H255 C279 0.979 . S
H256 C279 0.977 . S
C257 C245 1.453 . S
C257 H286 0.982 . S
C257 H287 0.979 . S
C257 H288 0.977 . S
C258 C245 1.684 . S
C258 H283 0.979 . S
C258 H284 0.980 . S
C258 H285 0.983 . S
C259 C260 1.391 . S
C259 C264 1.391 . S
C259 H289 0.948 . S
C260 C259 1.391 . S
C260 C261 1.391 . S
C261 C260 1.391 . S
C261 C262 1.392 . S
C261 H290 0.947 . S
C262 C261 1.392 . S
C262 C263 1.419 . S
C262 H291 0.948 . S
C263 C262 1.419 . S
C263 C264 1.391 . S
C263 C267 1.397 . S
C264 C259 1.391 . S
C264 C263 1.391 . S
C264 C265 1.399 . S
C265 C264 1.399 . S
C265 C266 1.396 . S
C265 C268 1.453 . S
C265 C269 1.684 . S
C266 C247 1.723 . S
C266 C265 1.396 . S
C266 C267 1.394 . S
C267 C263 1.397 . S
C267 C266 1.394 . S
C267 C277 1.723 . S
C268 C265 1.453 . S
C268 H292 0.982 . S
C268 H293 0.979 . S
C268 H294 0.977 . S
C269 C265 1.684 . S
C269 H295 0.979 . S
C269 H296 0.980 . S
C269 H297 0.983 . S
C270 H246 0.948 . S
C270 C271 1.391 . S
C270 C275 1.391 . S
C271 C270 1.391 . S
C271 C272 1.391 . S
C272 H249 0.947 . S
C272 C271 1.391 . S
C272 C273 1.392 . S
C273 H250 0.948 . S
C273 C272 1.392 . S
C273 C274 1.419 . S
C274 C273 1.419 . S
C274 C275 1.391 . S
C274 C278 1.397 . S
C275 C270 1.391 . S
C275 C274 1.391 . S
C275 C276 1.399 . S
C276 C275 1.399 . S
C276 C277 1.396 . S
C276 C279 1.453 . S
C276 C280 1.684 . S
C277 C267 1.723 . S
C277 C276 1.396 . S
C277 C278 1.394 . S
C278 C248 1.723 . S
C278 C274 1.397 . S
C278 C277 1.394 . S
C279 H251 0.982 . S
C279 H255 0.979 . S
C279 H256 0.977 . S
C279 C276 1.453 . S
C280 H252 0.979 . S
C280 H253 0.980 . S
C280 H254 0.983 . S
C280 C276 1.684 . S
H281 C299 0.948 . S
H282 C240 0.948 . S
H283 C258 0.979 . S
H284 C258 0.980 . S
H285 C258 0.983 . S
H286 C257 0.982 . S
H287 C257 0.979 . S
H288 C257 0.977 . S
H289 C259 0.948 . S
H290 C261 0.947 . S
H291 C262 0.948 . S
H292 C268 0.982 . S
H293 C268 0.979 . S
H294 C268 0.977 . S
H295 C269 0.979 . S
H296 C269 0.980 . S
H297 C269 0.983 . S
H298 C242 0.947 . S
C299 C242 1.392 . S
C299 C243 1.419 . S
C299 H281 0.948 . S
C300 C301 1.391 . S
C300 C304 1.391 . S
C300 H342 0.948 . S
C301 C300 1.391 . S
C301 C302 1.391 . S
C302 C301 1.391 . S
C302 H358 0.947 . S
C302 C359 1.392 . S
C303 C304 1.391 . S
C303 C307 1.397 . S
C303 C359 1.419 . S
C304 C300 1.391 . S
C304 C303 1.391 . S
C304 C305 1.399 . S
C305 C304 1.399 . S
C305 C308 1.396 . S
C305 C317 1.453 . S
C305 C318 1.684 . S
H306 C330 0.948 . S
C307 C303 1.397 . S
C307 C308 1.394 . S
C307 C326 1.723 . S
C308 C305 1.396 . S
C308 C307 1.394 . S
C308 C338 1.723 . S
H309 C332 0.947 . S
H310 C333 0.948 . S
H311 C339 0.982 . S
H312 C340 0.979 . S
H313 C340 0.980 . S
H314 C340 0.983 . S
H315 C339 0.979 . S
H316 C339 0.977 . S
C317 C305 1.453 . S
C317 H346 0.982 . S
C317 H347 0.979 . S
C317 H348 0.977 . S
C318 C305 1.684 . S
C318 H343 0.979 . S
C318 H344 0.980 . S
C318 H345 0.983 . S
C319 C320 1.391 . S
C319 C324 1.391 . S
C319 H349 0.948 . S
C320 C319 1.391 . S
C320 C321 1.391 . S
C321 C320 1.391 . S
C321 C322 1.392 . S
C321 H350 0.947 . S
C322 C321 1.392 . S
C322 C323 1.419 . S
C322 H351 0.948 . S
C323 C322 1.419 . S
C323 C324 1.391 . S
C323 C327 1.397 . S
C324 C319 1.391 . S
C324 C323 1.391 . S
C324 C325 1.399 . S
C325 C324 1.399 . S
C325 C326 1.396 . S
C325 C328 1.453 . S
C325 C329 1.684 . S
C326 C307 1.723 . S
C326 C325 1.396 . S
C326 C327 1.394 . S
C327 C323 1.397 . S
C327 C326 1.394 . S
C327 C337 1.723 . S
C328 C325 1.453 . S
C328 H352 0.982 . S
C328 H353 0.979 . S
C328 H354 0.977 . S
C329 C325 1.684 . S
C329 H355 0.979 . S
C329 H356 0.980 . S
C329 H357 0.983 . S
C330 H306 0.948 . S
C330 C331 1.391 . S
C330 C335 1.391 . S
C331 C330 1.391 . S
C331 C332 1.391 . S
C332 H309 0.947 . S
C332 C331 1.391 . S
C332 C333 1.392 . S
C333 H310 0.948 . S
C333 C332 1.392 . S
C333 C334 1.419 . S
C334 C333 1.419 . S
C334 C335 1.391 . S
C334 C338 1.397 . S
C335 C330 1.391 . S
C335 C334 1.391 . S
C335 C336 1.399 . S
C336 C335 1.399 . S
C336 C337 1.396 . S
C336 C339 1.453 . S
C336 C340 1.684 . S
C337 C327 1.723 . S
C337 C336 1.396 . S
C337 C338 1.394 . S
C338 C308 1.723 . S
C338 C334 1.397 . S
C338 C337 1.394 . S
C339 H311 0.982 . S
C339 H315 0.979 . S
C339 H316 0.977 . S
C339 C336 1.453 . S
C340 H312 0.979 . S
C340 H313 0.980 . S
C340 H314 0.983 . S
C340 C336 1.684 . S
H341 C359 0.948 . S
H342 C300 0.948 . S
H343 C318 0.979 . S
H344 C318 0.980 . S
H345 C318 0.983 . S
H346 C317 0.982 . S
H347 C317 0.979 . S
H348 C317 0.977 . S
H349 C319 0.948 . S
H350 C321 0.947 . S
H351 C322 0.948 . S
H352 C328 0.982 . S
H353 C328 0.979 . S
H354 C328 0.977 . S
H355 C329 0.979 . S
H356 C329 0.980 . S
H357 C329 0.983 . S
H358 C302 0.947 . S
C359 C302 1.392 . S
C359 C303 1.419 . S
C359 H341 0.948 . S
C360 C361 1.391 . S
C360 C364 1.391 . S
C360 H402 0.948 . S
C361 C360 1.391 . S
C361 C362 1.391 . S
C362 C361 1.391 . S
C362 H418 0.947 . S
C362 C419 1.392 . S
C363 C364 1.391 . S
C363 C367 1.397 . S
C363 C419 1.419 . S
C364 C360 1.391 . S
C364 C363 1.391 . S
C364 C365 1.399 . S
C365 C364 1.399 . S
C365 C368 1.396 . S
C365 C377 1.453 . S
C365 C378 1.684 . S
H366 C390 0.948 . S
C367 C363 1.397 . S
C367 C368 1.394 . S
C367 C386 1.723 . S
C368 C365 1.396 . S
C368 C367 1.394 . S
C368 C398 1.723 . S
H369 C392 0.947 . S
H370 C393 0.948 . S
H371 C399 0.982 . S
H372 C400 0.979 . S
H373 C400 0.980 . S
H374 C400 0.983 . S
H375 C399 0.979 . S
H376 C399 0.977 . S
C377 C365 1.453 . S
C377 H406 0.982 . S
C377 H407 0.979 . S
C377 H408 0.977 . S
C378 C365 1.684 . S
C378 H403 0.979 . S
C378 H404 0.980 . S
C378 H405 0.983 . S
C379 C380 1.391 . S
C379 C384 1.391 . S
C379 H409 0.948 . S
C380 C379 1.391 . S
C380 C381 1.391 . S
C381 C380 1.391 . S
C381 C382 1.392 . S
C381 H410 0.947 . S
C382 C381 1.392 . S
C382 C383 1.419 . S
C382 H411 0.948 . S
C383 C382 1.419 . S
C383 C384 1.391 . S
C383 C387 1.397 . S
C384 C379 1.391 . S
C384 C383 1.391 . S
C384 C385 1.399 . S
C385 C384 1.399 . S
C385 C386 1.396 . S
C385 C388 1.453 . S
C385 C389 1.684 . S
C386 C367 1.723 . S
C386 C385 1.396 . S
C386 C387 1.394 . S
C387 C383 1.397 . S
C387 C386 1.394 . S
C387 C397 1.723 . S
C388 C385 1.453 . S
C388 H412 0.982 . S
C388 H413 0.979 . S
C388 H414 0.977 . S
C389 C385 1.684 . S
C389 H415 0.979 . S
C389 H416 0.980 . S
C389 H417 0.983 . S
C390 H366 0.948 . S
C390 C391 1.391 . S
C390 C395 1.391 . S
C391 C390 1.391 . S
C391 C392 1.391 . S
C392 H369 0.947 . S
C392 C391 1.391 . S
C392 C393 1.392 . S
C393 H370 0.948 . S
C393 C392 1.392 . S
C393 C394 1.419 . S
C394 C393 1.419 . S
C394 C395 1.391 . S
C394 C398 1.397 . S
C395 C390 1.391 . S
C395 C394 1.391 . S
C395 C396 1.399 . S
C396 C395 1.399 . S
C396 C397 1.396 . S
C396 C399 1.453 . S
C396 C400 1.684 . S
C397 C387 1.723 . S
C397 C396 1.396 . S
C397 C398 1.394 . S
C398 C368 1.723 . S
C398 C394 1.397 . S
C398 C397 1.394 . S
C399 H371 0.982 . S
C399 H375 0.979 . S
C399 H376 0.977 . S
C399 C396 1.453 . S
C400 H372 0.979 . S
C400 H373 0.980 . S
C400 H374 0.983 . S
C400 C396 1.684 . S
H401 C419 0.948 . S
H402 C360 0.948 . S
H403 C378 0.979 . S
H404 C378 0.980 . S
H405 C378 0.983 . S
H406 C377 0.982 . S
H407 C377 0.979 . S
H408 C377 0.977 . S
H409 C379 0.948 . S
H410 C381 0.947 . S
H411 C382 0.948 . S
H412 C388 0.982 . S
H413 C388 0.979 . S
H414 C388 0.977 . S
H415 C389 0.979 . S
H416 C389 0.980 . S
H417 C389 0.983 . S
H418 C362 0.947 . S
C419 C362 1.392 . S
C419 C363 1.419 . S
C419 H401 0.948 . S
C420 C421 1.391 . S
C420 C424 1.391 . S
C420 H462 0.948 . S
C421 C420 1.391 . S
C421 C422 1.391 . S
C422 C421 1.391 . S
C422 H478 0.947 . S
C422 C479 1.392 . S
C423 C424 1.391 . S
C423 C427 1.397 . S
C423 C479 1.419 . S
C424 C420 1.391 . S
C424 C423 1.391 . S
C424 C425 1.399 . S
C425 C424 1.399 . S
C425 C428 1.396 . S
C425 C437 1.453 . S
C425 C438 1.684 . S
H426 C450 0.948 . S
C427 C423 1.397 . S
C427 C428 1.394 . S
C427 C446 1.723 . S
C428 C425 1.396 . S
C428 C427 1.394 . S
C428 C458 1.723 . S
H429 C452 0.947 . S
H430 C453 0.948 . S
H431 C459 0.982 . S
H432 C460 0.979 . S
H433 C460 0.980 . S
H434 C460 0.983 . S
H435 C459 0.979 . S
H436 C459 0.977 . S
C437 C425 1.453 . S
C437 H466 0.982 . S
C437 H467 0.979 . S
C437 H468 0.977 . S
C438 C425 1.684 . S
C438 H463 0.979 . S
C438 H464 0.980 . S
C438 H465 0.983 . S
C439 C440 1.391 . S
C439 C444 1.391 . S
C439 H469 0.948 . S
C440 C439 1.391 . S
C440 C441 1.391 . S
C441 C440 1.391 . S
C441 C442 1.392 . S
C441 H470 0.947 . S
C442 C441 1.392 . S
C442 C443 1.419 . S
C442 H471 0.948 . S
C443 C442 1.419 . S
C443 C444 1.391 . S
C443 C447 1.397 . S
C444 C439 1.391 . S
C444 C443 1.391 . S
C444 C445 1.399 . S
C445 C444 1.399 . S
C445 C446 1.396 . S
C445 C448 1.453 . S
C445 C449 1.684 . S
C446 C427 1.723 . S
C446 C445 1.396 . S
C446 C447 1.394 . S
C447 C443 1.397 . S
C447 C446 1.394 . S
C447 C457 1.723 . S
C448 C445 1.453 . S
C448 H472 0.982 . S
C448 H473 0.979 . S
C448 H474 0.977 . S
C449 C445 1.684 . S
C449 H475 0.979 . S
C449 H476 0.980 . S
C449 H477 0.983 . S
C450 H426 0.948 . S
C450 C451 1.391 . S
C450 C455 1.391 . S
C451 C450 1.391 . S
C451 C452 1.391 . S
C452 H429 0.947 . S
C452 C451 1.391 . S
C452 C453 1.392 . S
C453 H430 0.948 . S
C453 C452 1.392 . S
C453 C454 1.419 . S
C454 C453 1.419 . S
C454 C455 1.391 . S
C454 C458 1.397 . S
C455 C450 1.391 . S
C455 C454 1.391 . S
C455 C456 1.399 . S
C456 C455 1.399 . S
C456 C457 1.396 . S
C456 C459 1.453 . S
C456 C460 1.684 . S
C457 C447 1.723 . S
C457 C456 1.396 . S
C457 C458 1.394 . S
C458 C428 1.723 . S
C458 C454 1.397 . S
C458 C457 1.394 . S
C459 H431 0.982 . S
C459 H435 0.979 . S
C459 H436 0.977 . S
C459 C456 1.453 . S
C460 H432 0.979 . S
C460 H433 0.980 . S
C460 H434 0.983 . S
C460 C456 1.684 . S
H461 C479 0.948 . S
H462 C420 0.948 . S
H463 C438 0.979 . S
H464 C438 0.980 . S
H465 C438 0.983 . S
H466 C437 0.982 . S
H467 C437 0.979 . S
H468 C437 0.977 . S
H469 C439 0.948 . S
H470 C441 0.947 . S
H471 C442 0.948 . S
H472 C448 0.982 . S
H473 C448 0.979 . S
H474 C448 0.977 . S
H475 C449 0.979 . S
H476 C449 0.980 . S
H477 C449 0.983 . S
H478 C422 0.947 . S
C479 C422 1.392 . S
C479 C423 1.419 . S
C479 H461 0.948 . S
La480 C482 2.928 . S
La480 O500 2.521 . S
La480 O501 2.628 . S
La480 O502 2.554 1_545 S
La480 O503 2.757 1_545 S
La480 O504 2.470 . S
La480 O509 2.482 1_455 S
La480 O511 2.503 1_445 S
La481 C491 2.928 . S
La481 O503 2.482 1_655 S
La481 O505 2.503 1_665 S
La481 O506 2.521 . S
La481 O507 2.628 . S
La481 O508 2.554 1_565 S
La481 O509 2.757 1_565 S
La481 O510 2.470 . S
C482 La480 2.928 . S
C482 C483 1.503 . S
C482 O500 1.261 . S
C482 O501 1.243 . S
C483 C482 1.503 . S
C483 C484 1.394 . S
C483 C488 1.373 . S
C484 C483 1.394 . S
C484 C485 1.380 . S
C484 H512 0.930 . S
C485 C484 1.380 . S
C485 C486 1.376 . S
C485 H513 0.930 . S
C486 C485 1.376 . S
C486 C487 1.370 . S
C487 C486 1.370 . S
C487 C488 1.396 . S
C487 H514 0.929 . S
C488 C483 1.373 . S
C488 C487 1.396 . S
C488 H515 0.929 . S
C489 O502 1.240 . S
C489 O503 1.289 . S
C490 O504 1.258 . S
C490 O505 1.256 . S
C491 La481 2.928 . S
C491 C492 1.503 . S
C491 O506 1.261 . S
C491 O507 1.243 . S
C492 C491 1.503 . S
C492 C493 1.394 . S
C492 C497 1.373 . S
C493 C492 1.394 . S
C493 C494 1.380 . S
C493 H516 0.930 . S
C494 C493 1.380 . S
C494 C495 1.376 . S
C494 H517 0.930 . S
C495 C494 1.376 . S
C495 C496 1.370 . S
C496 C495 1.370 . S
C496 C497 1.396 . S
C496 H518 0.929 . S
C497 C492 1.373 . S
C497 C496 1.396 . S
C497 H519 0.929 . S
C498 O508 1.240 . S
C498 O509 1.289 . S
C499 O510 1.258 . S
C499 O511 1.256 . S
O500 La480 2.521 . S
O500 C482 1.261 . S
O501 La480 2.628 . S
O501 C482 1.243 . S
O502 La480 2.554 1_565 S
O502 C489 1.240 . S
O503 La480 2.757 1_565 S
O503 La481 2.482 1_455 S
O503 C489 1.289 . S
O504 La480 2.470 . S
O504 C490 1.258 . S
O505 La481 2.503 1_445 S
O505 C490 1.256 . S
O506 La481 2.521 . S
O506 C491 1.261 . S
O507 La481 2.628 . S
O507 C491 1.243 . S
O508 La481 2.554 1_545 S
O508 C498 1.240 . S
O509 La480 2.482 1_655 S
O509 La481 2.757 1_545 S
O509 C498 1.289 . S
O510 La481 2.470 . S
O510 C499 1.258 . S
O511 La480 2.503 1_665 S
O511 C499 1.256 . S
H512 C484 0.930 . S
H513 C485 0.930 . S
H514 C487 0.929 . S
H515 C488 0.929 . S
H516 C493 0.930 . S
H517 C494 0.930 . S
H518 C496 0.929 . S
H519 C497 0.929 . S
La520 C522 2.928 1_565 S
La520 O540 2.521 1_565 S
La520 O541 2.628 1_565 S
La520 O542 2.554 . S
La520 O543 2.757 . S
La520 O544 2.470 1_565 S
La520 O549 2.482 1_564 S
La520 O551 2.503 1_554 S
La521 C531 2.928 1_545 S
La521 O543 2.482 1_546 S
La521 O545 2.503 1_556 S
La521 O546 2.521 1_545 S
La521 O547 2.628 1_545 S
La521 O548 2.554 . S
La521 O549 2.757 . S
La521 O550 2.470 1_545 S
C522 La520 2.928 1_545 S
C522 C523 1.503 . S
C522 O540 1.261 . S
C522 O541 1.243 . S
C523 C522 1.503 . S
C523 C524 1.394 . S
C523 C528 1.373 . S
C524 C523 1.394 . S
C524 C525 1.380 . S
C524 H552 0.930 . S
C525 C524 1.380 . S
C525 C526 1.376 . S
C525 H553 0.930 . S
C526 C525 1.376 . S
C526 C527 1.370 . S
C527 C526 1.370 . S
C527 C528 1.396 . S
C527 H554 0.929 . S
C528 C523 1.373 . S
C528 C527 1.396 . S
C528 H555 0.929 . S
C529 O542 1.240 . S
C529 O543 1.289 . S
C530 O544 1.258 . S
C530 O545 1.256 . S
C531 La521 2.928 1_565 S
C531 C532 1.503 . S
C531 O546 1.261 . S
C531 O547 1.243 . S
C532 C531 1.503 . S
C532 C533 1.394 . S
C532 C537 1.373 . S
C533 C532 1.394 . S
C533 C534 1.380 . S
C533 H556 0.930 . S
C534 C533 1.380 . S
C534 C535 1.376 . S
C534 H557 0.930 . S
C535 C534 1.376 . S
C535 C536 1.370 . S
C536 C535 1.370 . S
C536 C537 1.396 . S
C536 H558 0.929 . S
C537 C532 1.373 . S
C537 C536 1.396 . S
C537 H559 0.929 . S
C538 O548 1.240 . S
C538 O549 1.289 . S
C539 O550 1.258 . S
C539 O551 1.256 . S
O540 La520 2.521 1_545 S
O540 C522 1.261 . S
O541 La520 2.628 1_545 S
O541 C522 1.243 . S
O542 La520 2.554 . S
O542 C529 1.240 . S
O543 La520 2.757 . S
O543 La521 2.482 1_564 S
O543 C529 1.289 . S
O544 La520 2.470 1_545 S
O544 C530 1.258 . S
O545 La521 2.503 1_554 S
O545 C530 1.256 . S
O546 La521 2.521 1_565 S
O546 C531 1.261 . S
O547 La521 2.628 1_565 S
O547 C531 1.243 . S
O548 La521 2.554 . S
O548 C538 1.240 . S
O549 La520 2.482 1_546 S
O549 La521 2.757 . S
O549 C538 1.289 . S
O550 La521 2.470 1_565 S
O550 C539 1.258 . S
O551 La520 2.503 1_556 S
O551 C539 1.256 . S
H552 C524 0.930 . S
H553 C525 0.930 . S
H554 C527 0.929 . S
H555 C528 0.929 . S
H556 C533 0.930 . S
H557 C534 0.930 . S
H558 C536 0.929 . S
H559 C537 0.929 . S
La560 C562 2.928 . S
La560 O580 2.521 . S
La560 O581 2.628 . S
La560 O582 2.554 . S
La560 O583 2.757 . S
La560 O584 2.470 . S
La560 O589 2.482 . S
La560 O591 2.503 . S
La561 C571 2.928 . S
La561 O583 2.482 . S
La561 O585 2.503 . S
La561 O586 2.521 . S
La561 O587 2.628 . S
La561 O588 2.554 . S
La561 O589 2.757 . S
La561 O590 2.470 . S
C562 La560 2.928 . S
C562 C563 1.503 . S
C562 O580 1.261 . S
C562 O581 1.243 . S
C563 C562 1.503 . S
C563 C564 1.394 . S
C563 C568 1.373 . S
C564 C563 1.394 . S
C564 C565 1.380 . S
C564 H592 0.930 . S
C565 C564 1.380 . S
C565 C566 1.376 . S
C565 H593 0.930 . S
C566 C565 1.376 . S
C566 C567 1.370 . S
C567 C566 1.370 . S
C567 C568 1.396 . S
C567 H594 0.929 . S
C568 C563 1.373 . S
C568 C567 1.396 . S
C568 H595 0.929 . S
C569 O582 1.240 . S
C569 O583 1.289 . S
C570 O584 1.258 . S
C570 O585 1.256 . S
C571 La561 2.928 . S
C571 C572 1.503 . S
C571 O586 1.261 . S
C571 O587 1.243 . S
C572 C571 1.503 . S
C572 C573 1.394 . S
C572 C577 1.373 . S
C573 C572 1.394 . S
C573 C574 1.380 . S
C573 H596 0.930 . S
C574 C573 1.380 . S
C574 C575 1.376 . S
C574 H597 0.930 . S
C575 C574 1.376 . S
C575 C576 1.370 . S
C576 C575 1.370 . S
C576 C577 1.396 . S
C576 H598 0.929 . S
C577 C572 1.373 . S
C577 C576 1.396 . S
C577 H599 0.929 . S
C578 O588 1.240 . S
C578 O589 1.289 . S
C579 O590 1.258 . S
C579 O591 1.256 . S
O580 La560 2.521 . S
O580 C562 1.261 . S
O581 La560 2.628 . S
O581 C562 1.243 . S
O582 La560 2.554 . S
O582 C569 1.240 . S
O583 La560 2.757 . S
O583 La561 2.482 . S
O583 C569 1.289 . S
O584 La560 2.470 . S
O584 C570 1.258 . S
O585 La561 2.503 . S
O585 C570 1.256 . S
O586 La561 2.521 . S
O586 C571 1.261 . S
O587 La561 2.628 . S
O587 C571 1.243 . S
O588 La561 2.554 . S
O588 C578 1.240 . S
O589 La560 2.482 . S
O589 La561 2.757 . S
O589 C578 1.289 . S
O590 La561 2.470 . S
O590 C579 1.258 . S
O591 La560 2.503 . S
O591 C579 1.256 . S
H592 C564 0.930 . S
H593 C565 0.930 . S
H594 C567 0.929 . S
H595 C568 0.929 . S
H596 C573 0.930 . S
H597 C574 0.930 . S
H598 C576 0.929 . S
H599 C577 0.929 . S
La600 C602 2.928 . S
La600 O620 2.521 . S
La600 O621 2.628 . S
La600 O622 2.554 1_455 S
La600 O623 2.757 1_455 S
La600 O624 2.470 . S
La600 O629 2.482 1_554 S
La600 O631 2.503 1_454 S
La601 C611 2.928 . S
La601 O623 2.482 1_556 S
La601 O625 2.503 1_656 S
La601 O626 2.521 . S
La601 O627 2.628 . S
La601 O628 2.554 1_655 S
La601 O629 2.757 1_655 S
La601 O630 2.470 . S
C602 La600 2.928 . S
C602 C603 1.503 . S
C602 O620 1.261 . S
C602 O621 1.243 . S
C603 C602 1.503 . S
C603 C604 1.394 . S
C603 C608 1.373 . S
C604 C603 1.394 . S
C604 C605 1.380 . S
C604 H632 0.930 . S
C605 C604 1.380 . S
C605 C606 1.376 . S
C605 H633 0.930 . S
C606 C605 1.376 . S
C606 C607 1.370 . S
C607 C606 1.370 . S
C607 C608 1.396 . S
C607 H634 0.929 . S
C608 C603 1.373 . S
C608 C607 1.396 . S
C608 H635 0.929 . S
C609 O622 1.240 . S
C609 O623 1.289 . S
C610 O624 1.258 . S
C610 O625 1.256 . S
C611 La601 2.928 . S
C611 C612 1.503 . S
C611 O626 1.261 . S
C611 O627 1.243 . S
C612 C611 1.503 . S
C612 C613 1.394 . S
C612 C617 1.373 . S
C613 C612 1.394 . S
C613 C614 1.380 . S
C613 H636 0.930 . S
C614 C613 1.380 . S
C614 C615 1.376 . S
C614 H637 0.930 . S
C615 C614 1.376 . S
C615 C616 1.370 . S
C616 C615 1.370 . S
C616 C617 1.396 . S
C616 H638 0.929 . S
C617 C612 1.373 . S
C617 C616 1.396 . S
C617 H639 0.929 . S
C618 O628 1.240 . S
C618 O629 1.289 . S
C619 O630 1.258 . S
C619 O631 1.256 . S
O620 La600 2.521 . S
O620 C602 1.261 . S
O621 La600 2.628 . S
O621 C602 1.243 . S
O622 La600 2.554 1_655 S
O622 C609 1.240 . S
O623 La600 2.757 1_655 S
O623 La601 2.482 1_554 S
O623 C609 1.289 . S
O624 La600 2.470 . S
O624 C610 1.258 . S
O625 La601 2.503 1_454 S
O625 C610 1.256 . S
O626 La601 2.521 . S
O626 C611 1.261 . S
O627 La601 2.628 . S
O627 C611 1.243 . S
O628 La601 2.554 1_455 S
O628 C618 1.240 . S
O629 La600 2.482 1_556 S
O629 La601 2.757 1_455 S
O629 C618 1.289 . S
O630 La601 2.470 . S
O630 C619 1.258 . S
O631 La600 2.503 1_656 S
O631 C619 1.256 . S
H632 C604 0.930 . S
H633 C605 0.930 . S
H634 C607 0.929 . S
H635 C608 0.929 . S
H636 C613 0.930 . S
H637 C614 0.930 . S
H638 C616 0.929 . S
H639 C617 0.929 . S
C640 C641 1.369 . S
C640 C642 1.419 . S
C640 H644 0.930 . S
C641 C640 1.369 . S
C641 C650 1.429 . S
C642 C640 1.419 . S
C642 C643 1.363 . S
C642 H645 0.929 . S
C643 C642 1.363 . S
C643 C649 1.428 . S
H644 C640 0.930 . S
H645 C642 0.929 . S
S646 N647 1.613 . S
S646 N648 1.610 . S
N647 S646 1.613 . S
N647 C650 1.350 . S
N648 S646 1.610 . S
N648 C649 1.351 . S
C649 C643 1.428 . S
C649 N648 1.351 . S
C649 C650 1.434 . S
C650 C641 1.429 . S
C650 N647 1.350 . S
C650 C649 1.434 . S
C651 C652 1.369 . S
C651 C653 1.419 . S
C651 H655 0.930 . S
C652 C651 1.369 . S
C652 C661 1.429 . S
C653 C651 1.419 . S
C653 C654 1.363 . S
C653 H656 0.929 . S
C654 C653 1.363 . S
C654 C660 1.428 . S
H655 C651 0.930 . S
H656 C653 0.929 . S
S657 N658 1.613 . S
S657 N659 1.610 . S
N658 S657 1.613 . S
N658 C661 1.350 . S
N659 S657 1.610 . S
N659 C660 1.351 . S
C660 C654 1.428 . S
C660 N659 1.351 . S
C660 C661 1.434 . S
C661 C652 1.429 . S
C661 N658 1.350 . S
C661 C660 1.434 . S
C662 C663 1.369 . S
C662 C664 1.419 . S
C662 H666 0.930 . S
C663 C662 1.369 . S
C663 C672 1.429 . S
C664 C662 1.419 . S
C664 C665 1.363 . S
C664 H667 0.929 . S
C665 C664 1.363 . S
C665 C671 1.428 . S
H666 C662 0.930 . S
H667 C664 0.929 . S
S668 N669 1.613 . S
S668 N670 1.610 . S
N669 S668 1.613 . S
N669 C672 1.350 . S
N670 S668 1.610 . S
N670 C671 1.351 . S
C671 C665 1.428 . S
C671 N670 1.351 . S
C671 C672 1.434 . S
C672 C663 1.429 . S
C672 N669 1.350 . S
C672 C671 1.434 . S
C673 C674 1.369 . S
C673 C675 1.419 . S
C673 H677 0.930 . S
C674 C673 1.369 . S
C674 C683 1.429 . S
C675 C673 1.419 . S
C675 C676 1.363 . S
C675 H678 0.929 . S
C676 C675 1.363 . S
C676 C682 1.428 . S
H677 C673 0.930 . S
H678 C675 0.929 . S
S679 N680 1.613 1_455 S
S679 N681 1.610 1_455 S
N680 S679 1.613 1_655 S
N680 C683 1.350 . S
N681 S679 1.610 1_655 S
N681 C682 1.351 . S
C682 C676 1.428 . S
C682 N681 1.351 . S
C682 C683 1.434 . S
C683 C674 1.429 . S
C683 N680 1.350 . S
C683 C682 1.434 . S
C684 C685 1.369 . S
C684 C686 1.419 . S
C684 H688 0.930 . S
C685 C684 1.369 . S
C685 C694 1.429 . S
C686 C684 1.419 . S
C686 C687 1.363 . S
C686 H689 0.929 . S
C687 C686 1.363 . S
C687 C693 1.428 . S
H688 C684 0.930 . S
H689 C686 0.929 . S
S690 N691 1.613 . S
S690 N692 1.610 . S
N691 S690 1.613 . S
N691 C694 1.350 . S
N692 S690 1.610 . S
N692 C693 1.351 . S
C693 C687 1.428 . S
C693 N692 1.351 . S
C693 C694 1.434 . S
C694 C685 1.429 . S
C694 N691 1.350 . S
C694 C693 1.434 . S
C695 C696 1.369 . S
C695 C697 1.419 . S
C695 H699 0.930 . S
C696 C695 1.369 . S
C696 C705 1.429 . S
C697 C695 1.419 . S
C697 C698 1.363 . S
C697 H700 0.929 . S
C698 C697 1.363 . S
C698 C704 1.428 . S
H699 C695 0.930 . S
H700 C697 0.929 . S
S701 N702 1.613 . S
S701 N703 1.610 . S
N702 S701 1.613 . S
N702 C705 1.350 . S
N703 S701 1.610 . S
N703 C704 1.351 . S
C704 C698 1.428 . S
C704 N703 1.351 . S
C704 C705 1.434 . S
C705 C696 1.429 . S
C705 N702 1.350 . S
C705 C704 1.434 . S
C706 C707 1.369 . S
C706 C708 1.419 . S
C706 H710 0.930 . S
C707 C706 1.369 . S
C707 C716 1.429 . S
C708 C706 1.419 . S
C708 C709 1.363 . S
C708 H711 0.929 . S
C709 C708 1.363 . S
C709 C715 1.428 . S
H710 C706 0.930 . S
H711 C708 0.929 . S
S712 N713 1.613 . S
S712 N714 1.610 . S
N713 S712 1.613 . S
N713 C716 1.350 . S
N714 S712 1.610 . S
N714 C715 1.351 . S
C715 C709 1.428 . S
C715 N714 1.351 . S
C715 C716 1.434 . S
C716 C707 1.429 . S
C716 N713 1.350 . S
C716 C715 1.434 . S
C717 C718 1.369 . S
C717 C719 1.419 . S
C717 H721 0.930 . S
C718 C717 1.369 . S
C718 C727 1.429 . S
C719 C717 1.419 . S
C719 C720 1.363 . S
C719 H722 0.929 . S
C720 C719 1.363 . S
C720 C726 1.428 . S
H721 C717 0.930 . S
H722 C719 0.929 . S
S723 N724 1.613 . S
S723 N725 1.610 . S
N724 S723 1.613 . S
N724 C727 1.350 . S
N725 S723 1.610 . S
N725 C726 1.351 . S
C726 C720 1.428 . S
C726 N725 1.351 . S
C726 C727 1.434 . S
C727 C718 1.429 . S
C727 N724 1.350 . S
C727 C726 1.434 . S
C728 C729 1.369 . S
C728 C730 1.419 . S
C728 H732 0.930 . S
C729 C728 1.369 . S
C729 C738 1.429 . S
C730 C728 1.419 . S
C730 C731 1.363 . S
C730 H733 0.929 . S
C731 C730 1.363 . S
C731 C737 1.428 . S
H732 C728 0.930 . S
H733 C730 0.929 . S
S734 N735 1.613 . S
S734 N736 1.610 . S
N735 S734 1.613 . S
N735 C738 1.350 . S
N736 S734 1.610 . S
N736 C737 1.351 . S
C737 C731 1.428 . S
C737 N736 1.351 . S
C737 C738 1.434 . S
C738 C729 1.429 . S
C738 N735 1.350 . S
C738 C737 1.434 . S
C739 C740 1.369 . S
C739 C741 1.419 . S
C739 H743 0.930 . S
C740 C739 1.369 . S
C740 C749 1.429 . S
C741 C739 1.419 . S
C741 C742 1.363 . S
C741 H744 0.929 . S
C742 C741 1.363 . S
C742 C748 1.428 . S
H743 C739 0.930 . S
H744 C741 0.929 . S
S745 N746 1.613 . S
S745 N747 1.610 . S
N746 S745 1.613 . S
N746 C749 1.350 . S
N747 S745 1.610 . S
N747 C748 1.351 . S
C748 C742 1.428 . S
C748 N747 1.351 . S
C748 C749 1.434 . S
C749 C740 1.429 . S
C749 N746 1.350 . S
C749 C748 1.434 . S
C750 C751 1.369 . S
C750 C752 1.419 . S
C750 H754 0.930 . S
C751 C750 1.369 . S
C751 C760 1.429 . S
C752 C750 1.419 . S
C752 C753 1.363 . S
C752 H755 0.929 . S
C753 C752 1.363 . S
C753 C759 1.428 . S
H754 C750 0.930 . S
H755 C752 0.929 . S
S756 N757 1.613 . S
S756 N758 1.610 . S
N757 S756 1.613 . S
N757 C760 1.350 . S
N758 S756 1.610 . S
N758 C759 1.351 . S
C759 C753 1.428 . S
C759 N758 1.351 . S
C759 C760 1.434 . S
C760 C751 1.429 . S
C760 N757 1.350 . S
C760 C759 1.434 . S
C761 C762 1.369 . S
C761 C763 1.419 . S
C761 H765 0.930 . S
C762 C761 1.369 . S
C762 C771 1.429 . S
C763 C761 1.419 . S
C763 C764 1.363 . S
C763 H766 0.929 . S
C764 C763 1.363 . S
C764 C770 1.428 . S
H765 C761 0.930 . S
H766 C763 0.929 . S
S767 N768 1.613 . S
S767 N769 1.610 . S
N768 S767 1.613 . S
N768 C771 1.350 . S
N769 S767 1.610 . S
N769 C770 1.351 . S
C770 C764 1.428 . S
C770 N769 1.351 . S
C770 C771 1.434 . S
C771 C762 1.429 . S
C771 N768 1.350 . S
C771 C770 1.434 . S
C772 C773 1.369 . S
C772 C774 1.419 . S
C772 H776 0.930 . S
C773 C772 1.369 . S
C773 C782 1.429 . S
C774 C772 1.419 . S
C774 C775 1.363 . S
C774 H777 0.929 . S
C775 C774 1.363 . S
C775 C781 1.428 . S
H776 C772 0.930 . S
H777 C774 0.929 . S
S778 N779 1.613 . S
S778 N780 1.610 . S
N779 S778 1.613 . S
N779 C782 1.350 . S
N780 S778 1.610 . S
N780 C781 1.351 . S
C781 C775 1.428 . S
C781 N780 1.351 . S
C781 C782 1.434 . S
C782 C773 1.429 . S
C782 N779 1.350 . S
C782 C781 1.434 . S
C783 C784 1.369 . S
C783 C785 1.419 . S
C783 H787 0.930 . S
C784 C783 1.369 . S
C784 C793 1.429 . S
C785 C783 1.419 . S
C785 C786 1.363 . S
C785 H788 0.929 . S
C786 C785 1.363 . S
C786 C792 1.428 . S
H787 C783 0.930 . S
H788 C785 0.929 . S
S789 N790 1.613 . S
S789 N791 1.610 . S
N790 S789 1.613 . S
N790 C793 1.350 . S
N791 S789 1.610 . S
N791 C792 1.351 . S
C792 C786 1.428 . S
C792 N791 1.351 . S
C792 C793 1.434 . S
C793 C784 1.429 . S
C793 N790 1.350 . S
C793 C792 1.434 . S
C794 C795 1.369 . S
C794 C796 1.419 . S
C794 H798 0.930 . S
C795 C794 1.369 . S
C795 C804 1.429 . S
C796 C794 1.419 . S
C796 C797 1.363 . S
C796 H799 0.929 . S
C797 C796 1.363 . S
C797 C803 1.428 . S
H798 C794 0.930 . S
H799 C796 0.929 . S
S800 N801 1.613 . S
S800 N802 1.610 . S
N801 S800 1.613 . S
N801 C804 1.350 . S
N802 S800 1.610 . S
N802 C803 1.351 . S
C803 C797 1.428 . S
C803 N802 1.351 . S
C803 C804 1.434 . S
C804 C795 1.429 . S
C804 N801 1.350 . S
C804 C803 1.434 . S
C805 C806 1.369 . S
C805 C807 1.419 . S
C805 H809 0.930 . S
C806 C805 1.369 . S
C806 C815 1.429 . S
C807 C805 1.419 . S
C807 C808 1.363 . S
C807 H810 0.929 . S
C808 C807 1.363 . S
C808 C814 1.428 . S
H809 C805 0.930 . S
H810 C807 0.929 . S
S811 N812 1.613 . S
S811 N813 1.610 . S
N812 S811 1.613 . S
N812 C815 1.350 . S
N813 S811 1.610 . S
N813 C814 1.351 . S
C814 C808 1.428 . S
C814 N813 1.351 . S
C814 C815 1.434 . S
C815 C806 1.429 . S
C815 N812 1.350 . S
C815 C814 1.434 . S
C816 C817 1.369 . S
C816 C818 1.419 . S
C816 H820 0.930 . S
C817 C816 1.369 . S
C817 C826 1.429 . S
C818 C816 1.419 . S
C818 C819 1.363 . S
C818 H821 0.929 . S
C819 C818 1.363 . S
C819 C825 1.428 . S
H820 C816 0.930 . S
H821 C818 0.929 . S
S822 N823 1.613 . S
S822 N824 1.610 . S
N823 S822 1.613 . S
N823 C826 1.350 . S
N824 S822 1.610 . S
N824 C825 1.351 . S
C825 C819 1.428 . S
C825 N824 1.351 . S
C825 C826 1.434 . S
C826 C817 1.429 . S
C826 N823 1.350 . S
C826 C825 1.434 . S
C827 C828 1.369 . S
C827 C829 1.419 . S
C827 H831 0.930 . S
C828 C827 1.369 . S
C828 C837 1.429 . S
C829 C827 1.419 . S
C829 C830 1.363 . S
C829 H832 0.929 . S
C830 C829 1.363 . S
C830 C836 1.428 . S
H831 C827 0.930 . S
H832 C829 0.929 . S
S833 N834 1.613 . S
S833 N835 1.610 . S
N834 S833 1.613 . S
N834 C837 1.350 . S
N835 S833 1.610 . S
N835 C836 1.351 . S
C836 C830 1.428 . S
C836 N835 1.351 . S
C836 C837 1.434 . S
C837 C828 1.429 . S
C837 N834 1.350 . S
C837 C836 1.434 . S
C838 C839 1.369 . S
C838 C840 1.419 . S
C838 H842 0.930 . S
C839 C838 1.369 . S
C839 C848 1.429 . S
C840 C838 1.419 . S
C840 C841 1.363 . S
C840 H843 0.929 . S
C841 C840 1.363 . S
C841 C847 1.428 . S
H842 C838 0.930 . S
H843 C840 0.929 . S
S844 N845 1.613 . S
S844 N846 1.610 . S
N845 S844 1.613 . S
N845 C848 1.350 . S
N846 S844 1.610 . S
N846 C847 1.351 . S
C847 C841 1.428 . S
C847 N846 1.351 . S
C847 C848 1.434 . S
C848 C839 1.429 . S
C848 N845 1.350 . S
C848 C847 1.434 . S
C849 C850 1.369 . S
C849 C851 1.419 . S
C849 H853 0.930 . S
C850 C849 1.369 . S
C850 C859 1.429 . S
C851 C849 1.419 . S
C851 C852 1.363 . S
C851 H854 0.929 . S
C852 C851 1.363 . S
C852 C858 1.428 . S
H853 C849 0.930 . S
H854 C851 0.929 . S
S855 N856 1.613 . S
S855 N857 1.610 . S
N856 S855 1.613 . S
N856 C859 1.350 . S
N857 S855 1.610 . S
N857 C858 1.351 . S
C858 C852 1.428 . S
C858 N857 1.351 . S
C858 C859 1.434 . S
C859 C850 1.429 . S
C859 N856 1.350 . S
C859 C858 1.434 . S
C860 C861 1.369 . S
C860 C862 1.419 . S
C860 H864 0.930 . S
C861 C860 1.369 . S
C861 C870 1.429 . S
C862 C860 1.419 . S
C862 C863 1.363 . S
C862 H865 0.929 . S
C863 C862 1.363 . S
C863 C869 1.428 . S
H864 C860 0.930 . S
H865 C862 0.929 . S
S866 N867 1.613 . S
S866 N868 1.610 . S
N867 S866 1.613 . S
N867 C870 1.350 . S
N868 S866 1.610 . S
N868 C869 1.351 . S
C869 C863 1.428 . S
C869 N868 1.351 . S
C869 C870 1.434 . S
C870 C861 1.429 . S
C870 N867 1.350 . S
C870 C869 1.434 . S
C871 C872 1.369 . S
C871 C873 1.419 . S
C871 H875 0.930 . S
C872 C871 1.369 . S
C872 C881 1.429 . S
C873 C871 1.419 . S
C873 C874 1.363 . S
C873 H876 0.929 . S
C874 C873 1.363 . S
C874 C880 1.428 . S
H875 C871 0.930 . S
H876 C873 0.929 . S
S877 N878 1.613 . S
S877 N879 1.610 . S
N878 S877 1.613 . S
N878 C881 1.350 . S
N879 S877 1.610 . S
N879 C880 1.351 . S
C880 C874 1.428 . S
C880 N879 1.351 . S
C880 C881 1.434 . S
C881 C872 1.429 . S
C881 N878 1.350 . S
C881 C880 1.434 . S
C882 C883 1.369 . S
C882 C884 1.419 . S
C882 H886 0.930 . S
C883 C882 1.369 . S
C883 C892 1.429 . S
C884 C882 1.419 . S
C884 C885 1.363 . S
C884 H887 0.929 . S
C885 C884 1.363 . S
C885 C891 1.428 . S
H886 C882 0.930 . S
H887 C884 0.929 . S
S888 N889 1.613 . S
S888 N890 1.610 . S
N889 S888 1.613 . S
N889 C892 1.350 . S
N890 S888 1.610 . S
N890 C891 1.351 . S
C891 C885 1.428 . S
C891 N890 1.351 . S
C891 C892 1.434 . S
C892 C883 1.429 . S
C892 N889 1.350 . S
C892 C891 1.434 . S
C893 C894 1.369 . S
C893 C895 1.419 . S
C893 H897 0.930 . S
C894 C893 1.369 . S
C894 C903 1.429 . S
C895 C893 1.419 . S
C895 C896 1.363 . S
C895 H898 0.929 . S
C896 C895 1.363 . S
C896 C902 1.428 . S
H897 C893 0.930 . S
H898 C895 0.929 . S
S899 N900 1.613 . S
S899 N901 1.610 . S
N900 S899 1.613 . S
N900 C903 1.350 . S
N901 S899 1.610 . S
N901 C902 1.351 . S
C902 C896 1.428 . S
C902 N901 1.351 . S
C902 C903 1.434 . S
C903 C894 1.429 . S
C903 N900 1.350 . S
C903 C902 1.434 . S
C641 C1 1.175 . S
C643 C486 1.384 . S
C652 C80 0.986 . S
C654 C535 1.069 . S
C665 C570 2.509 . S
C663 C140 2.517 . S
C674 C211 2.457 . S
C676 C609 2.423 . S
C687 C530 2.600 . S
C685 C31 2.216 . S
C698 C489 0.829 . S
C696 C61 0.819 . S
C709 C619 1.920 . S
C707 C151 1.963 . S
C720 C578 1.723 . S
C718 C200 1.726 . S
C729 C20 1.667 . S
C731 C606 1.809 . S
C742 C538 2.339 . S
C740 C121 2.445 . S
C751 C181 2.316 . S
C753 C499 2.360 . S
C762 C91 1.133 . S
C764 C575 1.121 . S
C775 C495 1.389 . S
C773 C260 1.268 . S
C784 C320 0.988 . S
C786 C526 1.068 . S
C795 C361 2.518 . S
C797 C579 2.507 . S
C806 C451 2.459 . S
C808 C618 2.423 . S
C817 C271 2.309 . S
C819 C539 2.601 . S
C830 C498 0.833 . S
C828 C301 0.808 . S
C841 C610 1.915 . S
C839 C380 1.936 . S
C852 C569 1.722 . S
C850 C440 1.727 . S
C861 C241 1.544 . S
C863 C615 1.806 . S
C874 C529 2.341 . S
C872 C391 2.445 . S
C885 C490 2.360 . S
C883 C421 2.315 . S
C894 C331 1.133 . S
C896 C566 1.121 . S
