# Generated by pormake.
# Topology nom, (4,4)-cn, num edge types: 1
# Building blocks:
#     Node 0, Type 0, BuildingBlock: GIZVER_clean_linker_0, # of connection points: 4
#     Node 1, Type 0, BuildingBlock: GIZVER_clean_linker_0, # of connection points: 4
#     Node 2, Type 0, BuildingBlock: GIZVER_clean_linker_0, # of connection points: 4
#     Node 3, Type 0, BuildingBlock: GIZVER_clean_linker_0, # of connection points: 4
#     Node 4, Type 0, BuildingBlock: GIZVER_clean_linker_0, # of connection points: 4
#     Node 5, Type 0, BuildingBlock: GIZVER_clean_linker_0, # of connection points: 4
#     Node 6, Type 1, BuildingBlock: NAHDIM_clean_sbu_0, # of connection points: 4
#     Node 7, Type 1, BuildingBlock: NAHDIM_clean_sbu_0, # of connection points: 4
#     Node 8, Type 1, BuildingBlock: NAHDIM_clean_sbu_0, # of connection points: 4
#     Node 9, Type 1, BuildingBlock: NAHDIM_clean_sbu_0, # of connection points: 4
#     Node 10, Type 1, BuildingBlock: NAHDIM_clean_sbu_0, # of connection points: 4
#     Node 11, Type 1, BuildingBlock: NAHDIM_clean_sbu_0, # of connection points: 4
#     Edge 12, Type (0, 1), BuildingBlock: CIFDUS_clean_linker_0, # of connection points: 2
#     Edge 13, Type (0, 1), BuildingBlock: CIFDUS_clean_linker_0, # of connection points: 2
#     Edge 14, Type (0, 1), BuildingBlock: CIFDUS_clean_linker_0, # of connection points: 2
#     Edge 15, Type (0, 1), BuildingBlock: CIFDUS_clean_linker_0, # of connection points: 2
#     Edge 16, Type (0, 1), BuildingBlock: CIFDUS_clean_linker_0, # of connection points: 2
#     Edge 17, Type (0, 1), BuildingBlock: CIFDUS_clean_linker_0, # of connection points: 2
#     Edge 18, Type (0, 1), BuildingBlock: CIFDUS_clean_linker_0, # of connection points: 2
#     Edge 19, Type (0, 1), BuildingBlock: CIFDUS_clean_linker_0, # of connection points: 2
#     Edge 20, Type (0, 1), BuildingBlock: CIFDUS_clean_linker_0, # of connection points: 2
#     Edge 21, Type (0, 1), BuildingBlock: CIFDUS_clean_linker_0, # of connection points: 2
#     Edge 22, Type (0, 1), BuildingBlock: CIFDUS_clean_linker_0, # of connection points: 2
#     Edge 23, Type (0, 1), BuildingBlock: CIFDUS_clean_linker_0, # of connection points: 2
#     Edge 24, Type (0, 1), BuildingBlock: CIFDUS_clean_linker_0, # of connection points: 2
#     Edge 25, Type (0, 1), BuildingBlock: CIFDUS_clean_linker_0, # of connection points: 2
#     Edge 26, Type (0, 1), BuildingBlock: CIFDUS_clean_linker_0, # of connection points: 2
#     Edge 27, Type (0, 1), BuildingBlock: CIFDUS_clean_linker_0, # of connection points: 2
#     Edge 28, Type (0, 1), BuildingBlock: CIFDUS_clean_linker_0, # of connection points: 2
#     Edge 29, Type (0, 1), BuildingBlock: CIFDUS_clean_linker_0, # of connection points: 2
#     Edge 30, Type (0, 1), BuildingBlock: CIFDUS_clean_linker_0, # of connection points: 2
#     Edge 31, Type (0, 1), BuildingBlock: CIFDUS_clean_linker_0, # of connection points: 2
#     Edge 32, Type (0, 1), BuildingBlock: CIFDUS_clean_linker_0, # of connection points: 2
#     Edge 33, Type (0, 1), BuildingBlock: CIFDUS_clean_linker_0, # of connection points: 2
#     Edge 34, Type (0, 1), BuildingBlock: CIFDUS_clean_linker_0, # of connection points: 2
#     Edge 35, Type (0, 1), BuildingBlock: CIFDUS_clean_linker_0, # of connection points: 2
# Relax obj value: 0.022
# Max RMSD: 0.125
# Mean RMSD: 0.093
data_MOF--net-nom--node1-NAHDIM_clean_sbu_0--node2-GIZVER_clean_linker_0--edge1-CIFDUS_clean_linker_0
_symmetry_space_group_name_H-M    P1
_symmetry_Int_Tables_number       1
_symmetry_cell_setting            triclinic
loop_
_symmetry_equiv_pos_as_xyz
'x, y, z'
_cell_length_a     40.057577
_cell_length_b     41.22426
_cell_length_c     41.435017
_cell_angle_alpha  89.767544
_cell_angle_beta   90.395975
_cell_angle_gamma 121.04092
loop_
_atom_site_label
_atom_site_type_symbol
_atom_site_fract_x
_atom_site_fract_y
_atom_site_fract_z
_atom_type_partial_charge
H0 H 0.95923 0.56628 0.34121 0.0
H1 H 0.99463 0.55463 0.24625 0.0
H2 H 0.88357 0.46901 0.28362 0.0
H3 H 0.01516 0.61911 0.31724 0.0
H4 H 0.01952 0.61886 0.27439 0.0
H5 H 0.03995 0.58051 0.34986 0.0
H6 H 0.15352 0.60889 0.31718 0.0
H7 H 0.07786 0.62527 0.25428 0.0
C8 C 0.95409 0.54971 0.31951 0.0
C9 C 0.91894 0.51498 0.3159 0.0
C10 C 0.98179 0.56385 0.29457 0.0
C11 C 0.97391 0.54306 0.26588 0.0
C12 C 0.93851 0.50871 0.26169 0.0
C13 C 0.91178 0.49447 0.28719 0.0
C14 C 0.01752 0.603 0.2968 0.0
C15 C 0.05418 0.60156 0.30117 0.0
C16 C 0.06152 0.5899 0.33091 0.0
C17 C 0.09727 0.59227 0.33686 0.0
C18 C 0.12511 0.60511 0.31222 0.0
C19 C 0.11845 0.61707 0.28241 0.0
C20 C 0.0828 0.61513 0.27694 0.0
H21 H 0.42015 0.95637 0.50668 0.0
H22 H 0.45335 0.99059 0.40805 0.0
H23 H 0.44661 0.88965 0.44454 0.0
H24 H 0.40854 1.00348 0.48146 0.0
H25 H 0.41783 0.01412 0.4395 0.0
H26 H 0.46371 0.03322 0.52141 0.0
H27 H 0.55866 0.14305 0.49463 0.0
H28 H 0.47744 0.07006 0.42231 0.0
C29 C 0.43033 0.95251 0.48366 0.0
C30 C 0.43436 0.92096 0.47894 0.0
C31 C 0.43796 0.97822 0.45825 0.0
C32 C 0.449 0.9717 0.42798 0.0
C33 C 0.45223 0.93978 0.42285 0.0
C34 C 0.44599 0.9153 0.44871 0.0
C35 C 0.43043 0.01029 0.4622 0.0
C36 C 0.46741 0.04673 0.47065 0.0
C37 C 0.48025 0.05395 0.50289 0.0
C38 C 0.51328 0.08853 0.51155 0.0
C39 C 0.53409 0.11566 0.48773 0.0
C40 C 0.52117 0.10931 0.45562 0.0
C41 C 0.48796 0.07469 0.44702 0.0
H42 H 0.40979 0.47298 0.58979 0.0
H43 H 0.44884 0.46619 0.68546 0.0
H44 H 0.42046 0.55093 0.66311 0.0
H45 H 0.41773 0.42117 0.6024 0.0
H46 H 0.40978 0.40783 0.64378 0.0
H47 H 0.48112 0.44497 0.57848 0.0
H48 H 0.5686 0.43841 0.6341 0.0
H49 H 0.4635 0.4172 0.67954 0.0
C50 C 0.41866 0.48429 0.61396 0.0
C51 C 0.41435 0.51448 0.62384 0.0
C52 C 0.43148 0.46681 0.63607 0.0
C53 C 0.4405 0.48036 0.668 0.0
C54 C 0.43714 0.51108 0.6779 0.0
C55 C 0.42466 0.52817 0.65544 0.0
C56 C 0.43008 0.4306 0.62706 0.0
C57 C 0.46958 0.43426 0.62934 0.0
C58 C 0.49234 0.44191 0.60142 0.0
C59 C 0.5275 0.44199 0.60264 0.0
C60 C 0.54126 0.43786 0.63267 0.0
C61 C 0.51813 0.42825 0.66026 0.0
C62 C 0.48219 0.42629 0.65856 0.0
H63 H 0.95407 0.40773 0.75461 0.0
H64 H 0.98536 0.44812 0.85218 0.0
H65 H 0.87159 0.41471 0.81561 0.0
H66 H 1.01104 0.41251 0.77857 0.0
H67 H 0.017 0.41743 0.82137 0.0
H68 H 0.02777 0.47508 0.74676 0.0
H69 H 0.13964 0.56674 0.77716 0.0
H70 H 0.07388 0.47192 0.84014 0.0
C71 C 0.94691 0.41567 0.77728 0.0
C72 C 0.90976 0.41072 0.78155 0.0
C73 C 0.97435 0.42929 0.80267 0.0
C74 C 0.96464 0.43856 0.83235 0.0
C75 C 0.92778 0.43401 0.83689 0.0
C76 C 0.90083 0.42049 0.81134 0.0
C77 C 1.01226 0.43011 0.79934 0.0
C78 C 0.04618 0.46989 0.79459 0.0
C79 C 0.05006 0.4887 0.76523 0.0
C80 C 0.08355 0.52397 0.75895 0.0
C81 C 0.11274 0.54067 0.78268 0.0
C82 C 0.10972 0.52213 0.81193 0.0
C83 C 0.0761 0.48682 0.8179 0.0
H84 H 0.63164 0.0701 0.01333 0.0
H85 H 0.5998 0.05233 0.91258 0.0
H86 H 0.6228 0.15457 0.95941 0.0
H87 H 0.63179 0.01952 0.98441 0.0
H88 H 0.62716 0.01745 0.94143 0.0
H89 H 0.56492 1.00121 0.01518 0.0
H90 H 0.47494 0.89181 0.98191 0.0
H91 H 0.5742 0.96022 0.92223 0.0
C92 C 0.62443 0.07927 -0.00881 0.0
C93 C 0.62763 0.11484 -0.01004 0.0
C94 C 0.61339 0.05614 0.96349 0.0
C95 C 0.60623 0.06917 0.9343 0.0
C96 C 0.61027 0.10503 0.93267 0.0
C97 C 0.61936 0.12674 0.96084 0.0
C98 C 0.61362 0.01964 0.96404 0.0
C99 C 0.57306 0.98558 0.96753 0.0
C100 C 0.55234 0.98004 -0.0037 0.0
C101 C 0.51661 0.9464 0.00153 0.0
C102 C 0.5013 0.91873 0.97728 0.0
C103 C 0.52186 0.92332 0.94873 0.0
C104 C 0.55768 0.95696 0.94386 0.0
H105 H 0.61882 0.55792 0.09464 0.0
H106 H 0.5907 0.56066 0.19433 0.0
H107 H 0.58717 0.46229 0.15595 0.0
H108 H 0.63708 0.61788 0.12097 0.0
H109 H 0.62816 0.61925 0.16294 0.0
H110 H 0.57861 0.59083 0.0818 0.0
H111 H 0.49952 0.62818 0.10572 0.0
H112 H 0.57537 0.62699 0.17867 0.0
C113 C 0.60827 0.54375 0.11764 0.0
C114 C 0.60159 0.50705 0.1219 0.0
C115 C 0.60337 0.56291 0.14355 0.0
C116 C 0.59245 0.54526 0.17391 0.0
C117 C 0.58648 0.50888 0.17851 0.0
C118 C 0.58977 0.48956 0.15214 0.0
C119 C 0.61466 0.60377 0.14007 0.0
C120 C 0.58002 0.60732 0.13142 0.0
C121 C 0.56584 0.60049 0.09949 0.0
C122 C 0.53638 0.60748 0.09008 0.0
C123 C 0.52112 0.62117 0.11302 0.0
C124 C 0.53501 0.62839 0.14486 0.0
C125 C 0.56393 0.62065 0.15425 0.0
C126 C 0.6117 0.31369 0.37992 0.0
O127 O 0.64398 0.32591 0.36352 0.0
O128 O 0.6931 0.41582 0.38609 0.0
Zn129 Zn 0.63489 0.39479 0.38824 0.0
O130 O 0.62215 0.41473 0.42793 0.0
C131 C 0.64168 0.44871 0.34281 0.0
O132 O 0.67137 0.46964 0.36204 0.0
O133 O 0.60327 0.33735 0.39098 0.0
C134 C 0.6043 0.4329 0.42758 0.0
O135 O 0.5938 0.44065 0.39991 0.0
C136 C 0.71255 0.40246 0.39866 0.0
O137 O 0.69467 0.37131 0.41593 0.0
O138 O 0.62026 0.41352 0.34875 0.0
C139 C 0.31257 0.71784 0.55542 0.0
O140 O 0.33386 0.70263 0.56124 0.0
O141 O 0.27653 0.61545 0.56541 0.0
Zn142 Zn 0.24479 0.63916 0.55351 0.0
O143 O 0.21678 0.6208 0.51104 0.0
C144 C 0.17754 0.58628 0.58719 0.0
O145 O 0.17887 0.56474 0.56457 0.0
O146 O 0.27587 0.69647 0.55224 0.0
C147 C 0.21249 0.59372 0.49343 0.0
O148 O 0.22894 0.57442 0.50188 0.0
C149 C 0.30201 0.6115 0.55072 0.0
O150 O 0.31313 0.62568 0.52164 0.0
O151 O 0.20333 0.62135 0.58748 0.0
C152 C 0.59062 0.30313 0.73463 0.0
O153 O 0.62547 0.32283 0.7477 0.0
O154 O 0.67142 0.29365 0.7157 0.0
Zn155 Zn 0.61553 0.24992 0.71965 0.0
O156 O 0.59897 0.2151 0.68132 0.0
C157 C 0.63408 0.23759 0.78306 0.0
O158 O 0.65836 0.27428 0.78071 0.0
O159 O 0.57999 0.27102 0.72225 0.0
C160 C 0.60753 0.18966 0.67742 0.0
O161 O 0.62903 0.18521 0.69897 0.0
C162 C 0.69988 0.29071 0.7062 0.0
O163 O 0.69322 0.25794 0.69556 0.0
O164 O 0.61109 0.22018 0.75969 0.0
C165 C 0.40409 0.71516 0.87956 0.0
O166 O 0.36773 0.69472 0.86976 0.0
O167 O 0.34021 0.61668 0.87757 0.0
Zn168 Zn 0.39868 0.64207 0.8824 0.0
O169 O 0.41146 0.62285 0.92245 0.0
C170 C 0.41908 0.59875 0.84107 0.0
O171 O 0.40316 0.5736 0.86429 0.0
O172 O 0.42299 0.69883 0.88601 0.0
C173 C 0.44531 0.62799 0.92674 0.0
O174 O 0.47206 0.64628 0.90468 0.0
C175 C 0.31699 0.58191 0.88406 0.0
O176 O 0.33116 0.56135 0.89473 0.0
O177 O 0.42047 0.63015 0.84361 0.0
C178 C 0.71465 0.41739 0.04651 0.0
O179 O 0.69171 0.3815 0.03906 0.0
O180 O 0.73441 0.34251 0.05344 0.0
Zn181 Zn 0.77554 0.39813 0.0516 0.0
O182 O 0.81176 0.41403 0.08975 0.0
C183 C 0.83432 0.40073 0.01112 0.0
O184 O 0.83974 0.38512 0.03677 0.0
O185 O 0.75061 0.43006 0.0519 0.0
C186 C 0.84019 0.44802 0.08916 0.0
O187 O 0.84381 0.46941 0.06425 0.0
C188 C 0.74015 0.31693 0.06445 0.0
O189 O 0.77447 0.32658 0.0765 0.0
O190 O 0.80764 0.40875 0.01145 0.0
C191 C 0.4399 0.73996 0.21742 0.0
O192 O 0.42243 0.72752 0.24532 0.0
O193 O 0.3443 0.74994 0.20952 0.0
Zn194 Zn 0.40252 0.78744 0.20836 0.0
O195 O 0.41701 0.82483 0.17203 0.0
C196 C 0.40398 0.83932 0.25204 0.0
O197 O 0.38084 0.83888 0.22917 0.0
O198 O 0.43431 0.76284 0.20091 0.0
C199 C 0.45228 0.85195 0.17292 0.0
O200 O 0.4746 0.85344 0.19696 0.0
C201 C 0.32855 0.71437 0.20588 0.0
O202 O 0.35058 0.70029 0.19925 0.0
O203 O 0.41786 0.81783 0.24933 0.0
H204 H 0.16468 0.59192 0.26009 0.0
H205 H 0.14676 0.68631 0.25452 0.0
H206 H 0.20929 0.72418 0.22721 0.0
H207 H 0.27264 0.73293 0.21156 0.0
H208 H 0.29049 0.63836 0.21746 0.0
H209 H 0.22447 0.59812 0.23782 0.0
C210 C 0.17418 0.62054 0.25225 0.0
C211 C 0.15133 0.63641 0.25946 0.0
C212 C 0.21042 0.6423 0.23708 0.0
C213 C 0.16372 0.67338 0.24902 0.0
C214 C 0.19967 0.69518 0.23373 0.0
C215 C 0.2619 0.70338 0.21689 0.0
C216 C 0.28674 0.68888 0.21348 0.0
C217 C 0.22385 0.68034 0.22867 0.0
C218 C 0.27215 0.65037 0.22004 0.0
C219 C 0.23439 0.62732 0.23179 0.0
H220 H 0.49275 0.15285 0.43698 0.0
H221 H 0.59151 0.13909 0.42609 0.0
H222 H 0.62724 0.20012 0.39791 0.0
H223 H 0.63273 0.26047 0.38212 0.0
H224 H 0.53552 0.27606 0.39784 0.0
H225 H 0.49672 0.21137 0.41814 0.0
C226 C 0.52168 0.16288 0.42754 0.0
C227 C 0.53939 0.14152 0.43292 0.0
C228 C 0.54247 0.1986 0.41271 0.0
C229 C 0.57726 0.15499 0.4216 0.0
C230 C 0.59771 0.18996 0.40579 0.0
C231 C 0.60284 0.24946 0.38947 0.0
C232 C 0.5871 0.27312 0.38859 0.0
C233 C 0.58101 0.21251 0.40204 0.0
C234 C 0.54843 0.25855 0.39849 0.0
C235 C 0.52619 0.22154 0.4101 0.0
H236 H 0.35344 0.52105 0.64023 0.0
H237 H 0.43136 0.54115 0.56138 0.0
H238 H 0.4027 0.57231 0.53079 0.0
H239 H 0.35782 0.59724 0.52844 0.0
H240 H 0.28188 0.57725 0.60931 0.0
H241 H 0.30789 0.54318 0.63726 0.0
C242 C 0.36417 0.53225 0.6163 0.0
C243 C 0.39479 0.52937 0.60321 0.0
C244 C 0.34818 0.55052 0.59939 0.0
C245 C 0.40781 0.54314 0.57193 0.0
C246 C 0.39162 0.56115 0.55461 0.0
C247 C 0.34695 0.58535 0.55213 0.0
C248 C 0.3181 0.59019 0.56677 0.0
C249 C 0.3622 0.56562 0.56838 0.0
C250 C 0.30421 0.57434 0.59744 0.0
C251 C 0.31899 0.55469 0.61351 0.0
H252 H 0.85394 0.42637 0.76358 0.0
H253 H 0.89362 0.34869 0.74552 0.0
H254 H 0.83384 0.30725 0.71564 0.0
H255 H 0.76624 0.28806 0.70265 0.0
H256 H 0.72436 0.36308 0.72512 0.0
H257 H 0.78878 0.4103 0.74539 0.0
C258 C 0.8497 0.40058 0.75277 0.0
C259 C 0.87806 0.39046 0.75727 0.0
C260 C 0.81447 0.376 0.73688 0.0
C261 C 0.87251 0.3574 0.7424 0.0
C262 C 0.83803 0.33338 0.72561 0.0
C263 C 0.77134 0.31501 0.7114 0.0
C264 C 0.74032 0.32175 0.7128 0.0
C265 C 0.80818 0.34163 0.7239 0.0
C266 C 0.74758 0.35695 0.72408 0.0
C267 C 0.78442 0.38397 0.73575 0.0
H268 H 0.44928 0.87873 0.9238 0.0
H269 H 0.56359 0.89274 0.92672 0.0
H270 H 0.53765 0.83003 0.90283 0.0
H271 H 0.48092 0.76814 0.88794 0.0
H272 H 0.36648 0.75419 0.88544 0.0
H273 H 0.39395 0.8198 0.90235 0.0
C274 C 0.46859 0.8683 0.91851 0.0
C275 C 0.50819 0.89015 0.92715 0.0
C276 C 0.45331 0.83195 0.90543 0.0
C277 C 0.53305 0.87656 0.92003 0.0
C278 C 0.51813 0.84051 0.90675 0.0
C279 C 0.46207 0.7796 0.89077 0.0
C280 C 0.42163 0.75611 0.88597 0.0
C281 C 0.47807 0.81744 0.90046 0.0
C282 C 0.39767 0.77154 0.88919 0.0
C283 C 0.41333 0.80908 0.89891 0.0
H284 H 0.67325 0.53598 0.09667 0.0
H285 H 0.55784 0.43716 0.09488 0.0
H286 H 0.58234 0.40144 0.06688 0.0
H287 H 0.63811 0.3959 0.05074 0.0
H288 H 0.75435 0.49376 0.05662 0.0
H289 H 0.72811 0.53234 0.07487 0.0
C290 C 0.65334 0.50703 0.08908 0.0
C291 C 0.61383 0.48919 0.09754 0.0
C292 C 0.66797 0.48629 0.07436 0.0
C293 C 0.58833 0.45142 0.08832 0.0
C294 C 0.60242 0.43096 0.07263 0.0
C295 C 0.65766 0.42581 0.05545 0.0
C296 C 0.69819 0.44175 0.05275 0.0
C297 C 0.64244 0.44767 0.06674 0.0
C298 C 0.72307 0.48062 0.05888 0.0
C299 C 0.70809 0.50275 0.06932 0.0
H300 H 0.36252 0.88076 0.50489 0.0
H301 H 0.47496 0.8907 0.50481 0.0
H302 H 0.44772 0.82972 0.53253 0.0
H303 H 0.39012 0.76979 0.54935 0.0
H304 H 0.2768 0.75843 0.54611 0.0
H305 H 0.30611 0.82365 0.52746 0.0
C306 C 0.38123 0.8701 0.51199 0.0
C307 C 0.42065 0.89012 0.50305 0.0
C308 C 0.365 0.83435 0.52671 0.0
C309 C 0.44455 0.87574 0.51169 0.0
C310 C 0.4289 0.84077 0.52724 0.0
C311 C 0.37189 0.78175 0.54508 0.0
C312 C 0.33123 0.75897 0.54868 0.0
C313 C 0.38885 0.81914 0.5337 0.0
C314 C 0.30812 0.77509 0.54317 0.0
C315 C 0.32486 0.81246 0.5325 0.0
H316 H 0.4806 0.3557 0.67902 0.0
H317 H 0.5812 0.46481 0.70013 0.0
H318 H 0.61047 0.43466 0.73076 0.0
H319 H 0.61268 0.37719 0.74178 0.0
H320 H 0.5145 0.26806 0.71544 0.0
H321 H 0.47886 0.29804 0.69692 0.0
C322 C 0.50813 0.37281 0.69159 0.0
C323 C 0.52866 0.4123 0.68773 0.0
C324 C 0.52565 0.35514 0.70742 0.0
C325 C 0.56478 0.43436 0.70327 0.0
C326 C 0.58169 0.41707 0.72034 0.0
C327 C 0.58315 0.35987 0.73268 0.0
C328 C 0.56656 0.3205 0.72946 0.0
C329 C 0.56328 0.37744 0.72109 0.0
C330 C 0.5282 0.29848 0.71772 0.0
C331 C 0.50777 0.31561 0.70712 0.0
H332 H 0.14223 0.48431 0.83835 0.0
H333 H 0.15606 0.59508 0.8324 0.0
H334 H 0.22098 0.62332 0.85654 0.0
H335 H 0.27649 0.61731 0.87324 0.0
H336 H 0.26274 0.50651 0.87919 0.0
H337 H 0.19498 0.47748 0.86154 0.0
C338 C 0.15896 0.51446 0.84326 0.0
C339 C 0.1445 0.53762 0.83336 0.0
C340 C 0.19654 0.53058 0.85665 0.0
C341 C 0.16676 0.57673 0.83953 0.0
C342 C 0.20392 0.5929 0.8532 0.0
C343 C 0.25855 0.58678 0.87099 0.0
C344 C 0.27484 0.56418 0.87703 0.0
C345 C 0.21962 0.57026 0.86078 0.0
C346 C 0.25103 0.52461 0.87449 0.0
C347 C 0.21226 0.50796 0.86434 0.0
H348 H 0.60436 0.16152 0.01322 0.0
H349 H 0.6928 0.13242 0.02521 0.0
H350 H 0.7337 0.19119 0.05486 0.0
H351 H 0.74952 0.256 0.06737 0.0
H352 H 0.66334 0.28722 0.04992 0.0
H353 H 0.6167 0.22291 0.03219 0.0
C354 C 0.63224 0.16769 0.02299 0.0
C355 C 0.64579 0.14297 0.01649 0.0
C356 C 0.65652 0.2025 0.03829 0.0
C357 C 0.68158 0.15088 0.02986 0.0
C358 C 0.70528 0.18483 0.0464 0.0
C359 C 0.72027 0.24853 0.06033 0.0
C360 C 0.71016 0.27656 0.05941 0.0
C361 C 0.69391 0.21171 0.0492 0.0
C362 C 0.67208 0.26635 0.05037 0.0
C363 C 0.64535 0.22955 0.04025 0.0
H364 H 0.53995 0.69473 0.13372 0.0
H365 H 0.4996 0.60517 0.20395 0.0
H366 H 0.46844 0.6334 0.2346 0.0
H367 H 0.44764 0.68066 0.23805 0.0
H368 H 0.48783 0.76871 0.16582 0.0
H369 H 0.52401 0.74398 0.13936 0.0
C370 C 0.52469 0.68168 0.15598 0.0
C371 C 0.52164 0.64786 0.16652 0.0
C372 C 0.50647 0.6976 0.17288 0.0
C373 C 0.50228 0.63131 0.1955 0.0
C374 C 0.48427 0.6473 0.21281 0.0
C375 C 0.46467 0.69463 0.21674 0.0
C376 C 0.46452 0.72624 0.20375 0.0
C377 C 0.48535 0.67998 0.20126 0.0
C378 C 0.4869 0.74408 0.17616 0.0
C379 C 0.50774 0.73002 0.16098 0.0
H380 H 0.877 0.44617 0.34477 0.0
H381 H 0.88749 0.55539 0.33769 0.0
H382 H 0.82522 0.5308 0.36529 0.0
H383 H 0.76412 0.47616 0.38505 0.0
H384 H 0.75412 0.3672 0.39355 0.0
H385 H 0.81988 0.39368 0.37199 0.0
C386 C 0.86599 0.46471 0.35004 0.0
C387 C 0.88662 0.50245 0.33917 0.0
C388 C 0.83003 0.45027 0.3657 0.0
C389 C 0.87226 0.52634 0.3461 0.0
C390 C 0.83646 0.51218 0.36156 0.0
C391 C 0.77662 0.45839 0.3826 0.0
C392 C 0.75418 0.4197 0.39041 0.0
C393 C 0.81451 0.47389 0.37046 0.0
C394 C 0.77082 0.39706 0.38763 0.0
C395 C 0.80835 0.41215 0.37518 0.0
H396 H 0.13653 0.55706 0.35465 0.0
H397 H 0.08422 0.61758 0.39324 0.0
H398 H 0.11292 0.62049 0.44591 0.0
H399 H 0.15874 0.61251 0.47918 0.0
H400 H 0.21304 0.55375 0.441 0.0
H401 H 0.17798 0.54378 0.38987 0.0
C402 C 0.13108 0.57048 0.37472 0.0
C403 C 0.10845 0.58727 0.36992 0.0
C404 C 0.14857 0.57297 0.40482 0.0
C405 C 0.10113 0.60405 0.39627 0.0
C406 C 0.11794 0.60616 0.42634 0.0
C407 C 0.16279 0.59735 0.45973 0.0
C408 C 0.18894 0.58447 0.4636 0.0
C409 C 0.14267 0.59181 0.43057 0.0
C410 C 0.19326 0.56417 0.43848 0.0
C411 C 0.17327 0.55852 0.40926 0.0
H412 H 0.58104 0.10919 0.54303 0.0
H413 H 0.46682 0.09319 0.55579 0.0
H414 H 0.48549 0.12211 0.60933 0.0
H415 H 0.53631 0.15726 0.65016 0.0
H416 H 0.64933 0.16988 0.63951 0.0
H417 H 0.62933 0.13682 0.58749 0.0
C418 C 0.56016 0.11141 0.55795 0.0
C419 C 0.52273 0.09926 0.54576 0.0
C420 C 0.57105 0.12781 0.58876 0.0
C421 C 0.49569 0.10213 0.56501 0.0
C422 C 0.50645 0.11892 0.59543 0.0
C423 C 0.55632 0.15236 0.63651 0.0
C424 C 0.59428 0.16626 0.64813 0.0
C425 C 0.54433 0.13271 0.60716 0.0
C426 C 0.61995 0.15937 0.63077 0.0
C427 C 0.60857 0.14062 0.60107 0.0
H428 H 0.47066 0.58246 0.70214 0.0
H429 H 0.41142 0.46512 0.73115 0.0
H430 H 0.40496 0.48282 0.78583 0.0
H431 H 0.4075 0.53033 0.823 0.0
H432 H 0.46137 0.64681 0.79222 0.0
H433 H 0.47787 0.63063 0.74055 0.0
C434 C 0.45664 0.56077 0.72051 0.0
C435 C 0.4411 0.52248 0.71237 0.0
C436 C 0.4513 0.57091 0.75145 0.0
C437 C 0.4239 0.49484 0.73668 0.0
C438 C 0.4197 0.50489 0.76791 0.0
C439 C 0.42329 0.55228 0.80516 0.0
C440 C 0.43269 0.58962 0.81129 0.0
C441 C 0.43193 0.54264 0.77519 0.0
C442 C 0.45332 0.61775 0.78796 0.0
C443 C 0.46284 0.60854 0.75841 0.0
H444 H 0.93628 0.40621 0.89375 0.0
H445 H 0.88887 0.47006 0.85204 0.0
H446 H 0.85693 0.46685 0.90302 0.0
H447 H 0.83796 0.44111 0.9578 0.0
H448 H 0.88506 0.37674 -0.00071 0.0
H449 H 0.92188 0.38521 0.95013 0.0
C450 C 0.91981 0.42027 0.8961 0.0
C451 C 0.91482 0.43825 0.8692 0.0
C452 C 0.90101 0.41774 0.92528 0.0
C453 C 0.89288 0.45585 0.87242 0.0
C454 C 0.87452 0.4539 0.90149 0.0
C455 C 0.85643 0.42909 0.95615 0.0
C456 C 0.85835 0.40793 0.98203 0.0
C457 C 0.87752 0.43403 0.92779 0.0
C458 C 0.88283 0.39296 0.97966 0.0
C459 C 0.90393 0.39779 0.95155 0.0
H460 H 0.55293 0.95686 0.05926 0.0
H461 H 0.43914 0.91231 0.01625 0.0
H462 H 0.40851 0.88142 0.06715 0.0
H463 H 0.41453 0.86004 0.12129 0.0
H464 H 0.5288 0.90474 0.16367 0.0
H465 H 0.55866 0.94308 0.11577 0.0
C466 C 0.52144 0.94151 0.06129 0.0
C467 C 0.49835 0.93652 0.03391 0.0
C468 C 0.50408 0.92328 0.09038 0.0
C469 C 0.45754 0.91613 0.03691 0.0
C470 C 0.44002 0.89834 0.06595 0.0
C471 C 0.44592 0.87855 0.1202 0.0
C472 C 0.4694 0.87892 0.14576 0.0
C473 C 0.46305 0.90046 0.09243 0.0
C474 C 0.51 0.90352 0.1442 0.0
C475 C 0.52718 0.9255 0.11679 0.0
H476 H 0.63487 0.54585 0.22827 0.0
H477 H 0.53606 0.43765 0.20136 0.0
H478 H 0.5431 0.40951 0.25122 0.0
H479 H 0.58159 0.41457 0.29959 0.0
H480 H 0.68206 0.52281 0.32477 0.0
H481 H 0.67006 0.55203 0.27847 0.0
C482 C 0.61415 0.51639 0.2338 0.0
C483 C 0.58486 0.49386 0.21136 0.0
C484 C 0.61917 0.50026 0.26188 0.0
C485 C 0.55876 0.4555 0.21843 0.0
C486 C 0.56297 0.4394 0.24676 0.0
C487 C 0.60071 0.44458 0.29505 0.0
C488 C 0.63293 0.46633 0.31543 0.0
C489 C 0.59383 0.46127 0.26817 0.0
C490 C 0.65724 0.50527 0.30934 0.0
C491 C 0.65037 0.5221 0.2829 0.0
H492 H 0.41174 0.93856 0.36996 0.0
H493 H 0.49791 0.91251 0.40218 0.0
H494 H 0.49191 0.88026 0.35112 0.0
H495 H 0.45734 0.85424 0.29964 0.0
H496 H 0.37065 0.88015 0.26821 0.0
H497 H 0.38195 0.91794 0.31657 0.0
C498 C 0.43008 0.92684 0.36544 0.0
C499 C 0.45518 0.92784 0.3898 0.0
C500 C 0.42589 0.90774 0.3364 0.0
C501 C 0.47822 0.91189 0.38381 0.0
C502 C 0.47466 0.89331 0.35471 0.0
C503 C 0.44109 0.86832 0.30331 0.0
C504 C 0.41282 0.86393 0.28056 0.0
C505 C 0.44769 0.89006 0.33125 0.0
C506 C 0.39237 0.88278 0.28544 0.0
C507 C 0.39882 0.90447 0.31309 0.0
H508 H 0.53716 0.479 0.54482 0.0
H509 H 0.55935 0.39833 0.59233 0.0
H510 H 0.58834 0.39173 0.54373 0.0
H511 H 0.60392 0.4052 0.48689 0.0
H512 H 0.57721 0.48107 0.43677 0.0
H513 H 0.55316 0.49272 0.48694 0.0
C514 C 0.54834 0.46002 0.54453 0.0
C515 C 0.54665 0.43992 0.57265 0.0
C516 C 0.56395 0.45514 0.51588 0.0
C517 C 0.56135 0.41535 0.57164 0.0
C518 C 0.57758 0.41107 0.54362 0.0
C519 C 0.59322 0.4246 0.48694 0.0
C520 C 0.59235 0.4422 0.45817 0.0
C521 C 0.57869 0.43049 0.51556 0.0
C522 C 0.57806 0.46702 0.45864 0.0
C523 C 0.56428 0.47369 0.4873 0.0
H524 H 0.07381 0.48762 0.70224 0.0
H525 H 0.11366 0.59819 0.74229 0.0
H526 H 0.14324 0.6276 0.6907 0.0
H527 H 0.16579 0.6221 0.63708 0.0
H528 H 0.12654 0.51119 0.59773 0.0
H529 H 0.08816 0.48174 0.64598 0.0
C530 C 0.08778 0.51805 0.69938 0.0
C531 C 0.09194 0.54073 0.72612 0.0
C532 C 0.10543 0.53477 0.66992 0.0
C533 C 0.11052 0.58019 0.7221 0.0
C534 C 0.12757 0.59701 0.69268 0.0
C535 C 0.14838 0.59149 0.63886 0.0
C536 C 0.1497 0.56893 0.61411 0.0
C537 C 0.12661 0.57465 0.66687 0.0
C538 C 0.12649 0.52929 0.61657 0.0
C539 C 0.10451 0.51236 0.6442 0.0
H540 H 0.66237 0.17558 0.91267 0.0
H541 H 0.55803 0.07353 0.88219 0.0
H542 H 0.55658 0.10527 0.83233 0.0
H543 H 0.58381 0.16336 0.79885 0.0
H544 H 0.68655 0.26549 0.83223 0.0
H545 H 0.68915 0.23248 0.88005 0.0
C546 C 0.63896 0.1603 0.89532 0.0
C547 C 0.60989 0.1225 0.90138 0.0
C548 C 0.63788 0.17886 0.86742 0.0
C549 C 0.58065 0.10271 0.8781 0.0
C550 C 0.57972 0.12092 0.84975 0.0
C551 C 0.60674 0.17834 0.81661 0.0
C552 C 0.63485 0.21692 0.81201 0.0
C553 C 0.60795 0.1592 0.84436 0.0
C554 C 0.6644 0.23592 0.83521 0.0
C555 C 0.66602 0.21705 0.86255 0.0
H556 H 0.46297 0.57867 0.06664 0.0
H557 H 0.58286 0.63195 0.03666 0.0
H558 H 0.56444 0.63971 0.98213 0.0
H559 H 0.51566 0.6386 0.94508 0.0
H560 H 0.39644 0.58867 0.97639 0.0
H561 H 0.41334 0.57285 0.02836 0.0
C562 C 0.485 0.59164 0.04806 0.0
C563 C 0.52426 0.60508 0.0558 0.0
C564 C 0.47444 0.59726 0.01715 0.0
C565 C 0.55239 0.62112 0.03133 0.0
C566 C 0.54194 0.62599 0.00022 0.0
C567 C 0.49328 0.62394 0.96314 0.0
C568 C 0.45497 0.61535 0.957 0.0
C569 C 0.50328 0.61533 -0.00682 0.0
C570 C 0.42626 0.59602 0.98059 0.0
C571 C 0.43587 0.5869 0.01033 0.0
H572 H 0.9479 0.54418 0.20435 0.0
H573 H 0.89977 0.43314 0.24663 0.0
H574 H 0.86686 0.40405 0.19571 0.0
H575 H 0.846 0.41074 0.14133 0.0
H576 H 0.89463 0.52218 0.09958 0.0
H577 H 0.93367 0.55046 0.14805 0.0
C578 C 0.93126 0.51358 0.20221 0.0
C579 C 0.92604 0.49088 0.22935 0.0
C580 C 0.91205 0.49712 0.17308 0.0
C581 C 0.90384 0.45126 0.22618 0.0
C582 C 0.88495 0.43462 0.19712 0.0
C583 C 0.86544 0.44117 0.14273 0.0
C584 C 0.86688 0.46434 0.1171 0.0
C585 C 0.88778 0.45735 0.17077 0.0
C586 C 0.89265 0.50369 0.11906 0.0
C587 C 0.91501 0.51993 0.14679 0.0
loop_
_geom_bond_atom_site_label_1
_geom_bond_atom_site_label_2
_geom_bond_distance
_geom_bond_site_symmetry_2
_ccdc_geom_bond_type
H0 C8 0.930 . S
H1 C11 0.930 . S
H2 C13 0.930 . S
H3 C14 0.970 1_655 S
H4 C14 0.970 . S
H5 C16 0.930 . S
H6 C18 0.930 . S
H7 C20 0.930 . S
C8 H0 0.930 . S
C8 C9 1.382 . S
C8 C10 1.426 . S
C9 C8 1.382 . S
C9 C13 1.389 . S
C10 C8 1.426 . S
C10 C11 1.375 . S
C10 C14 1.532 1_655 S
C11 H1 0.930 . S
C11 C10 1.375 . S
C11 C12 1.416 . S
C12 C11 1.416 . S
C12 C13 1.371 . S
C13 H2 0.930 . S
C13 C9 1.389 . S
C13 C12 1.371 . S
C14 H3 0.970 1_455 S
C14 H4 0.970 . S
C14 C10 1.532 1_455 S
C14 C15 1.499 . S
C15 C14 1.499 . S
C15 C16 1.370 . S
C15 C20 1.415 . S
C16 H5 0.930 . S
C16 C15 1.370 . S
C16 C17 1.407 . S
C17 C16 1.407 . S
C17 C18 1.365 . S
C18 H6 0.930 . S
C18 C17 1.365 . S
C18 C19 1.393 . S
C19 C18 1.393 . S
C19 C20 1.387 . S
C20 H7 0.930 . S
C20 C15 1.415 . S
C20 C19 1.387 . S
H21 C29 0.930 . S
H22 C32 0.930 . S
H23 C34 0.930 . S
H24 C35 0.970 . S
H25 C35 0.970 . S
H26 C37 0.930 . S
H27 C39 0.930 . S
H28 C41 0.930 . S
C29 H21 0.930 . S
C29 C30 1.382 . S
C29 C31 1.426 . S
C30 C29 1.382 . S
C30 C34 1.389 . S
C31 C29 1.426 . S
C31 C32 1.375 . S
C31 C35 1.532 1_565 S
C32 H22 0.930 . S
C32 C31 1.375 . S
C32 C33 1.416 . S
C33 C32 1.416 . S
C33 C34 1.371 . S
C34 H23 0.930 . S
C34 C30 1.389 . S
C34 C33 1.371 . S
C35 H24 0.970 . S
C35 H25 0.970 . S
C35 C31 1.532 1_545 S
C35 C36 1.499 . S
C36 C35 1.499 . S
C36 C37 1.370 . S
C36 C41 1.415 . S
C37 H26 0.930 . S
C37 C36 1.370 . S
C37 C38 1.407 . S
C38 C37 1.407 . S
C38 C39 1.365 . S
C39 H27 0.930 . S
C39 C38 1.365 . S
C39 C40 1.393 . S
C40 C39 1.393 . S
C40 C41 1.387 . S
C41 H28 0.930 . S
C41 C36 1.415 . S
C41 C40 1.387 . S
H42 C50 0.930 . S
H43 C53 0.930 . S
H44 C55 0.930 . S
H45 C56 0.970 . S
H46 C56 0.970 . S
H47 C58 0.930 . S
H48 C60 0.930 . S
H49 C62 0.930 . S
C50 H42 0.930 . S
C50 C51 1.382 . S
C50 C52 1.426 . S
C51 C50 1.382 . S
C51 C55 1.389 . S
C52 C50 1.426 . S
C52 C53 1.375 . S
C52 C56 1.532 . S
C53 H43 0.930 . S
C53 C52 1.375 . S
C53 C54 1.416 . S
C54 C53 1.416 . S
C54 C55 1.371 . S
C55 H44 0.930 . S
C55 C51 1.389 . S
C55 C54 1.371 . S
C56 H45 0.970 . S
C56 H46 0.970 . S
C56 C52 1.532 . S
C56 C57 1.499 . S
C57 C56 1.499 . S
C57 C58 1.370 . S
C57 C62 1.415 . S
C58 H47 0.930 . S
C58 C57 1.370 . S
C58 C59 1.407 . S
C59 C58 1.407 . S
C59 C60 1.365 . S
C60 H48 0.930 . S
C60 C59 1.365 . S
C60 C61 1.393 . S
C61 C60 1.393 . S
C61 C62 1.387 . S
C62 H49 0.930 . S
C62 C57 1.415 . S
C62 C61 1.387 . S
H63 C71 0.930 . S
H64 C74 0.930 . S
H65 C76 0.930 . S
H66 C77 0.970 1_655 S
H67 C77 0.970 . S
H68 C79 0.930 . S
H69 C81 0.930 . S
H70 C83 0.930 . S
C71 H63 0.930 . S
C71 C72 1.382 . S
C71 C73 1.426 . S
C72 C71 1.382 . S
C72 C76 1.389 . S
C73 C71 1.426 . S
C73 C74 1.375 . S
C73 C77 1.532 1_655 S
C74 H64 0.930 . S
C74 C73 1.375 . S
C74 C75 1.416 . S
C75 C74 1.416 . S
C75 C76 1.371 . S
C76 H65 0.930 . S
C76 C72 1.389 . S
C76 C75 1.371 . S
C77 H66 0.970 1_455 S
C77 H67 0.970 . S
C77 C73 1.532 1_455 S
C77 C78 1.499 . S
C78 C77 1.499 . S
C78 C79 1.370 . S
C78 C83 1.415 . S
C79 H68 0.930 . S
C79 C78 1.370 . S
C79 C80 1.407 . S
C80 C79 1.407 . S
C80 C81 1.365 . S
C81 H69 0.930 . S
C81 C80 1.365 . S
C81 C82 1.393 . S
C82 C81 1.393 . S
C82 C83 1.387 . S
C83 H70 0.930 . S
C83 C78 1.415 . S
C83 C82 1.387 . S
H84 C92 0.930 . S
H85 C95 0.930 . S
H86 C97 0.930 . S
H87 C98 0.970 1_554 S
H88 C98 0.970 . S
H89 C100 0.930 . S
H90 C102 0.930 . S
H91 C104 0.930 . S
C92 H84 0.930 . S
C92 C93 1.382 1_554 S
C92 C94 1.426 1_554 S
C93 C92 1.382 1_556 S
C93 C97 1.389 . S
C94 C92 1.426 1_556 S
C94 C95 1.375 . S
C94 C98 1.532 . S
C95 H85 0.930 . S
C95 C94 1.375 . S
C95 C96 1.416 . S
C96 C95 1.416 . S
C96 C97 1.371 . S
C97 H86 0.930 . S
C97 C93 1.389 . S
C97 C96 1.371 . S
C98 H87 0.970 1_556 S
C98 H88 0.970 . S
C98 C94 1.532 . S
C98 C99 1.499 1_545 S
C99 C98 1.499 1_565 S
C99 C100 1.370 1_556 S
C99 C104 1.415 . S
C100 H89 0.930 . S
C100 C99 1.370 1_554 S
C100 C101 1.407 . S
C101 C100 1.407 . S
C101 C102 1.365 . S
C102 H90 0.930 . S
C102 C101 1.365 . S
C102 C103 1.393 1_554 S
C103 C102 1.393 1_556 S
C103 C104 1.387 . S
C104 H91 0.930 . S
C104 C99 1.415 . S
C104 C103 1.387 . S
H105 C113 0.930 . S
H106 C116 0.930 . S
H107 C118 0.930 . S
H108 C119 0.970 . S
H109 C119 0.970 . S
H110 C121 0.930 . S
H111 C123 0.930 . S
H112 C125 0.930 . S
C113 H105 0.930 . S
C113 C114 1.382 . S
C113 C115 1.426 . S
C114 C113 1.382 . S
C114 C118 1.389 . S
C115 C113 1.426 . S
C115 C116 1.375 . S
C115 C119 1.532 . S
C116 H106 0.930 . S
C116 C115 1.375 . S
C116 C117 1.416 . S
C117 C116 1.416 . S
C117 C118 1.371 . S
C118 H107 0.930 . S
C118 C114 1.389 . S
C118 C117 1.371 . S
C119 H108 0.970 . S
C119 H109 0.970 . S
C119 C115 1.532 . S
C119 C120 1.499 . S
C120 C119 1.499 . S
C120 C121 1.370 . S
C120 C125 1.415 . S
C121 H110 0.930 . S
C121 C120 1.370 . S
C121 C122 1.407 . S
C122 C121 1.407 . S
C122 C123 1.365 . S
C123 H111 0.930 . S
C123 C122 1.365 . S
C123 C124 1.393 . S
C124 C123 1.393 . S
C124 C125 1.387 . S
C125 H112 0.930 . S
C125 C120 1.415 . S
C125 C124 1.387 . S
C126 O127 1.160 . S
C126 O133 1.185 . S
O127 C126 1.160 . S
O128 Zn129 1.899 . S
O128 C136 1.284 . S
Zn129 O128 1.899 . S
Zn129 O130 2.032 . S
Zn129 O133 2.086 . S
Zn129 O138 1.977 . S
O130 Zn129 2.032 . S
O130 C134 1.278 . S
C131 O132 1.203 . S
C131 O138 1.267 . S
O132 C131 1.203 . S
O133 C126 1.185 . S
O133 Zn129 2.086 . S
C134 O130 1.278 . S
C134 O135 1.211 . S
O135 C134 1.211 . S
C136 O128 1.284 . S
C136 O137 1.273 . S
O137 C136 1.273 . S
O138 Zn129 1.977 . S
O138 C131 1.267 . S
C139 O140 1.160 . S
C139 O146 1.185 . S
O140 C139 1.160 . S
O141 Zn142 1.899 . S
O141 C149 1.284 . S
Zn142 O141 1.899 . S
Zn142 O143 2.032 . S
Zn142 O146 2.086 . S
Zn142 O151 1.977 . S
O143 Zn142 2.032 . S
O143 C147 1.278 . S
C144 O145 1.203 . S
C144 O151 1.267 . S
O145 C144 1.203 . S
O146 C139 1.185 . S
O146 Zn142 2.086 . S
C147 O143 1.278 . S
C147 O148 1.211 . S
O148 C147 1.211 . S
C149 O141 1.284 . S
C149 O150 1.273 . S
O150 C149 1.273 . S
O151 Zn142 1.977 . S
O151 C144 1.267 . S
C152 O153 1.160 . S
C152 O159 1.185 . S
O153 C152 1.160 . S
O154 Zn155 1.899 . S
O154 C162 1.284 . S
Zn155 O154 1.899 . S
Zn155 O156 2.032 . S
Zn155 O159 2.086 . S
Zn155 O164 1.977 . S
O156 Zn155 2.032 . S
O156 C160 1.278 . S
C157 O158 1.203 . S
C157 O164 1.267 . S
O158 C157 1.203 . S
O159 C152 1.185 . S
O159 Zn155 2.086 . S
C160 O156 1.278 . S
C160 O161 1.211 . S
O161 C160 1.211 . S
C162 O154 1.284 . S
C162 O163 1.273 . S
O163 C162 1.273 . S
O164 Zn155 1.977 . S
O164 C157 1.267 . S
C165 O166 1.160 . S
C165 O172 1.185 . S
O166 C165 1.160 . S
O167 Zn168 1.899 . S
O167 C175 1.284 . S
Zn168 O167 1.899 . S
Zn168 O169 2.032 . S
Zn168 O172 2.086 . S
Zn168 O177 1.977 . S
O169 Zn168 2.032 . S
O169 C173 1.278 . S
C170 O171 1.203 . S
C170 O177 1.267 . S
O171 C170 1.203 . S
O172 C165 1.185 . S
O172 Zn168 2.086 . S
C173 O169 1.278 . S
C173 O174 1.211 . S
O174 C173 1.211 . S
C175 O167 1.284 . S
C175 O176 1.273 . S
O176 C175 1.273 . S
O177 Zn168 1.977 . S
O177 C170 1.267 . S
C178 O179 1.160 . S
C178 O185 1.185 . S
O179 C178 1.160 . S
O180 Zn181 1.899 . S
O180 C188 1.284 . S
Zn181 O180 1.899 . S
Zn181 O182 2.032 . S
Zn181 O185 2.086 . S
Zn181 O190 1.977 . S
O182 Zn181 2.032 . S
O182 C186 1.278 . S
C183 O184 1.203 . S
C183 O190 1.267 . S
O184 C183 1.203 . S
O185 C178 1.185 . S
O185 Zn181 2.086 . S
C186 O182 1.278 . S
C186 O187 1.211 . S
O187 C186 1.211 . S
C188 O180 1.284 . S
C188 O189 1.273 . S
O189 C188 1.273 . S
O190 Zn181 1.977 . S
O190 C183 1.267 . S
C191 O192 1.160 . S
C191 O198 1.185 . S
O192 C191 1.160 . S
O193 Zn194 1.899 . S
O193 C201 1.284 . S
Zn194 O193 1.899 . S
Zn194 O195 2.032 . S
Zn194 O198 2.086 . S
Zn194 O203 1.977 . S
O195 Zn194 2.032 . S
O195 C199 1.278 . S
C196 O197 1.203 . S
C196 O203 1.267 . S
O197 C196 1.203 . S
O198 C191 1.185 . S
O198 Zn194 2.086 . S
C199 O195 1.278 . S
C199 O200 1.211 . S
O200 C199 1.211 . S
C201 O193 1.284 . S
C201 O202 1.273 . S
O202 C201 1.273 . S
O203 Zn194 1.977 . S
O203 C196 1.267 . S
H204 C210 0.930 . S
H205 C213 0.930 . S
H206 C214 0.930 . S
H207 C215 0.930 . S
H208 C218 0.930 . S
H209 C219 0.930 . S
C210 H204 0.930 . S
C210 C211 1.355 . S
C210 C212 1.415 . S
C211 C210 1.355 . S
C211 C213 1.419 . S
C212 C210 1.415 . S
C212 C217 1.425 . S
C212 C219 1.409 . S
C213 H205 0.930 . S
C213 C211 1.419 . S
C213 C214 1.362 . S
C214 H206 0.930 . S
C214 C213 1.362 . S
C214 C217 1.409 . S
C215 H207 0.930 . S
C215 C216 1.355 . S
C215 C217 1.415 . S
C216 C215 1.355 . S
C216 C218 1.419 . S
C217 C212 1.425 . S
C217 C214 1.409 . S
C217 C215 1.415 . S
C218 H208 0.930 . S
C218 C216 1.419 . S
C218 C219 1.362 . S
C219 H209 0.930 . S
C219 C212 1.409 . S
C219 C218 1.362 . S
H220 C226 0.930 . S
H221 C229 0.930 . S
H222 C230 0.930 . S
H223 C231 0.930 . S
H224 C234 0.930 . S
H225 C235 0.930 . S
C226 H220 0.930 . S
C226 C227 1.355 . S
C226 C228 1.415 . S
C227 C226 1.355 . S
C227 C229 1.419 . S
C228 C226 1.415 . S
C228 C233 1.425 . S
C228 C235 1.409 . S
C229 H221 0.930 . S
C229 C227 1.419 . S
C229 C230 1.362 . S
C230 H222 0.930 . S
C230 C229 1.362 . S
C230 C233 1.409 . S
C231 H223 0.930 . S
C231 C232 1.355 . S
C231 C233 1.415 . S
C232 C231 1.355 . S
C232 C234 1.419 . S
C233 C228 1.425 . S
C233 C230 1.409 . S
C233 C231 1.415 . S
C234 H224 0.930 . S
C234 C232 1.419 . S
C234 C235 1.362 . S
C235 H225 0.930 . S
C235 C228 1.409 . S
C235 C234 1.362 . S
H236 C242 0.930 . S
H237 C245 0.930 . S
H238 C246 0.930 . S
H239 C247 0.930 . S
H240 C250 0.930 . S
H241 C251 0.930 . S
C242 H236 0.930 . S
C242 C243 1.355 . S
C242 C244 1.415 . S
C243 C242 1.355 . S
C243 C245 1.419 . S
C244 C242 1.415 . S
C244 C249 1.425 . S
C244 C251 1.409 . S
C245 H237 0.930 . S
C245 C243 1.419 . S
C245 C246 1.362 . S
C246 H238 0.930 . S
C246 C245 1.362 . S
C246 C249 1.409 . S
C247 H239 0.930 . S
C247 C248 1.355 . S
C247 C249 1.415 . S
C248 C247 1.355 . S
C248 C250 1.419 . S
C249 C244 1.425 . S
C249 C246 1.409 . S
C249 C247 1.415 . S
C250 H240 0.930 . S
C250 C248 1.419 . S
C250 C251 1.362 . S
C251 H241 0.930 . S
C251 C244 1.409 . S
C251 C250 1.362 . S
H252 C258 0.930 . S
H253 C261 0.930 . S
H254 C262 0.930 . S
H255 C263 0.930 . S
H256 C266 0.930 . S
H257 C267 0.930 . S
C258 H252 0.930 . S
C258 C259 1.355 . S
C258 C260 1.415 . S
C259 C258 1.355 . S
C259 C261 1.419 . S
C260 C258 1.415 . S
C260 C265 1.425 . S
C260 C267 1.409 . S
C261 H253 0.930 . S
C261 C259 1.419 . S
C261 C262 1.362 . S
C262 H254 0.930 . S
C262 C261 1.362 . S
C262 C265 1.409 . S
C263 H255 0.930 . S
C263 C264 1.355 . S
C263 C265 1.415 . S
C264 C263 1.355 . S
C264 C266 1.419 . S
C265 C260 1.425 . S
C265 C262 1.409 . S
C265 C263 1.415 . S
C266 H256 0.930 . S
C266 C264 1.419 . S
C266 C267 1.362 . S
C267 H257 0.930 . S
C267 C260 1.409 . S
C267 C266 1.362 . S
H268 C274 0.930 . S
H269 C277 0.930 . S
H270 C278 0.930 . S
H271 C279 0.930 . S
H272 C282 0.930 . S
H273 C283 0.930 . S
C274 H268 0.930 . S
C274 C275 1.355 . S
C274 C276 1.415 . S
C275 C274 1.355 . S
C275 C277 1.419 . S
C276 C274 1.415 . S
C276 C281 1.425 . S
C276 C283 1.409 . S
C277 H269 0.930 . S
C277 C275 1.419 . S
C277 C278 1.362 . S
C278 H270 0.930 . S
C278 C277 1.362 . S
C278 C281 1.409 . S
C279 H271 0.930 . S
C279 C280 1.355 . S
C279 C281 1.415 . S
C280 C279 1.355 . S
C280 C282 1.419 . S
C281 C276 1.425 . S
C281 C278 1.409 . S
C281 C279 1.415 . S
C282 H272 0.930 . S
C282 C280 1.419 . S
C282 C283 1.362 . S
C283 H273 0.930 . S
C283 C276 1.409 . S
C283 C282 1.362 . S
H284 C290 0.930 . S
H285 C293 0.930 . S
H286 C294 0.930 . S
H287 C295 0.930 . S
H288 C298 0.930 . S
H289 C299 0.930 . S
C290 H284 0.930 . S
C290 C291 1.355 . S
C290 C292 1.415 . S
C291 C290 1.355 . S
C291 C293 1.419 . S
C292 C290 1.415 . S
C292 C297 1.425 . S
C292 C299 1.409 . S
C293 H285 0.930 . S
C293 C291 1.419 . S
C293 C294 1.362 . S
C294 H286 0.930 . S
C294 C293 1.362 . S
C294 C297 1.409 . S
C295 H287 0.930 . S
C295 C296 1.355 . S
C295 C297 1.415 . S
C296 C295 1.355 . S
C296 C298 1.419 . S
C297 C292 1.425 . S
C297 C294 1.409 . S
C297 C295 1.415 . S
C298 H288 0.930 . S
C298 C296 1.419 . S
C298 C299 1.362 . S
C299 H289 0.930 . S
C299 C292 1.409 . S
C299 C298 1.362 . S
H300 C306 0.930 . S
H301 C309 0.930 . S
H302 C310 0.930 . S
H303 C311 0.930 . S
H304 C314 0.930 . S
H305 C315 0.930 . S
C306 H300 0.930 . S
C306 C307 1.355 . S
C306 C308 1.415 . S
C307 C306 1.355 . S
C307 C309 1.419 . S
C308 C306 1.415 . S
C308 C313 1.425 . S
C308 C315 1.409 . S
C309 H301 0.930 . S
C309 C307 1.419 . S
C309 C310 1.362 . S
C310 H302 0.930 . S
C310 C309 1.362 . S
C310 C313 1.409 . S
C311 H303 0.930 . S
C311 C312 1.355 . S
C311 C313 1.415 . S
C312 C311 1.355 . S
C312 C314 1.419 . S
C313 C308 1.425 . S
C313 C310 1.409 . S
C313 C311 1.415 . S
C314 H304 0.930 . S
C314 C312 1.419 . S
C314 C315 1.362 . S
C315 H305 0.930 . S
C315 C308 1.409 . S
C315 C314 1.362 . S
H316 C322 0.930 . S
H317 C325 0.930 . S
H318 C326 0.930 . S
H319 C327 0.930 . S
H320 C330 0.930 . S
H321 C331 0.930 . S
C322 H316 0.930 . S
C322 C323 1.355 . S
C322 C324 1.415 . S
C323 C322 1.355 . S
C323 C325 1.419 . S
C324 C322 1.415 . S
C324 C329 1.425 . S
C324 C331 1.409 . S
C325 H317 0.930 . S
C325 C323 1.419 . S
C325 C326 1.362 . S
C326 H318 0.930 . S
C326 C325 1.362 . S
C326 C329 1.409 . S
C327 H319 0.930 . S
C327 C328 1.355 . S
C327 C329 1.415 . S
C328 C327 1.355 . S
C328 C330 1.419 . S
C329 C324 1.425 . S
C329 C326 1.409 . S
C329 C327 1.415 . S
C330 H320 0.930 . S
C330 C328 1.419 . S
C330 C331 1.362 . S
C331 H321 0.930 . S
C331 C324 1.409 . S
C331 C330 1.362 . S
H332 C338 0.930 . S
H333 C341 0.930 . S
H334 C342 0.930 . S
H335 C343 0.930 . S
H336 C346 0.930 . S
H337 C347 0.930 . S
C338 H332 0.930 . S
C338 C339 1.355 . S
C338 C340 1.415 . S
C339 C338 1.355 . S
C339 C341 1.419 . S
C340 C338 1.415 . S
C340 C345 1.425 . S
C340 C347 1.409 . S
C341 H333 0.930 . S
C341 C339 1.419 . S
C341 C342 1.362 . S
C342 H334 0.930 . S
C342 C341 1.362 . S
C342 C345 1.409 . S
C343 H335 0.930 . S
C343 C344 1.355 . S
C343 C345 1.415 . S
C344 C343 1.355 . S
C344 C346 1.419 . S
C345 C340 1.425 . S
C345 C342 1.409 . S
C345 C343 1.415 . S
C346 H336 0.930 . S
C346 C344 1.419 . S
C346 C347 1.362 . S
C347 H337 0.930 . S
C347 C340 1.409 . S
C347 C346 1.362 . S
H348 C354 0.930 1_556 S
H349 C357 0.930 . S
H350 C358 0.930 . S
H351 C359 0.930 . S
H352 C362 0.930 . S
H353 C363 0.930 . S
C354 H348 0.930 1_554 S
C354 C355 1.355 . S
C354 C356 1.415 . S
C355 C354 1.355 . S
C355 C357 1.419 . S
C356 C354 1.415 . S
C356 C361 1.425 . S
C356 C363 1.409 . S
C357 H349 0.930 . S
C357 C355 1.419 . S
C357 C358 1.362 . S
C358 H350 0.930 . S
C358 C357 1.362 . S
C358 C361 1.409 . S
C359 H351 0.930 . S
C359 C360 1.355 . S
C359 C361 1.415 . S
C360 C359 1.355 . S
C360 C362 1.419 . S
C361 C356 1.425 . S
C361 C358 1.409 . S
C361 C359 1.415 . S
C362 H352 0.930 . S
C362 C360 1.419 . S
C362 C363 1.362 . S
C363 H353 0.930 . S
C363 C356 1.409 . S
C363 C362 1.362 . S
H364 C370 0.930 . S
H365 C373 0.930 . S
H366 C374 0.930 . S
H367 C375 0.930 . S
H368 C378 0.930 . S
H369 C379 0.930 . S
C370 H364 0.930 . S
C370 C371 1.355 . S
C370 C372 1.415 . S
C371 C370 1.355 . S
C371 C373 1.419 . S
C372 C370 1.415 . S
C372 C377 1.425 . S
C372 C379 1.409 . S
C373 H365 0.930 . S
C373 C371 1.419 . S
C373 C374 1.362 . S
C374 H366 0.930 . S
C374 C373 1.362 . S
C374 C377 1.409 . S
C375 H367 0.930 . S
C375 C376 1.355 . S
C375 C377 1.415 . S
C376 C375 1.355 . S
C376 C378 1.419 . S
C377 C372 1.425 . S
C377 C374 1.409 . S
C377 C375 1.415 . S
C378 H368 0.930 . S
C378 C376 1.419 . S
C378 C379 1.362 . S
C379 H369 0.930 . S
C379 C372 1.409 . S
C379 C378 1.362 . S
H380 C386 0.930 . S
H381 C389 0.930 . S
H382 C390 0.930 . S
H383 C391 0.930 . S
H384 C394 0.930 . S
H385 C395 0.930 . S
C386 H380 0.930 . S
C386 C387 1.355 . S
C386 C388 1.415 . S
C387 C386 1.355 . S
C387 C389 1.419 . S
C388 C386 1.415 . S
C388 C393 1.425 . S
C388 C395 1.409 . S
C389 H381 0.930 . S
C389 C387 1.419 . S
C389 C390 1.362 . S
C390 H382 0.930 . S
C390 C389 1.362 . S
C390 C393 1.409 . S
C391 H383 0.930 . S
C391 C392 1.355 . S
C391 C393 1.415 . S
C392 C391 1.355 . S
C392 C394 1.419 . S
C393 C388 1.425 . S
C393 C390 1.409 . S
C393 C391 1.415 . S
C394 H384 0.930 . S
C394 C392 1.419 . S
C394 C395 1.362 . S
C395 H385 0.930 . S
C395 C388 1.409 . S
C395 C394 1.362 . S
H396 C402 0.930 . S
H397 C405 0.930 . S
H398 C406 0.930 . S
H399 C407 0.930 . S
H400 C410 0.930 . S
H401 C411 0.930 . S
C402 H396 0.930 . S
C402 C403 1.355 . S
C402 C404 1.415 . S
C403 C402 1.355 . S
C403 C405 1.419 . S
C404 C402 1.415 . S
C404 C409 1.425 . S
C404 C411 1.409 . S
C405 H397 0.930 . S
C405 C403 1.419 . S
C405 C406 1.362 . S
C406 H398 0.930 . S
C406 C405 1.362 . S
C406 C409 1.409 . S
C407 H399 0.930 . S
C407 C408 1.355 . S
C407 C409 1.415 . S
C408 C407 1.355 . S
C408 C410 1.419 . S
C409 C404 1.425 . S
C409 C406 1.409 . S
C409 C407 1.415 . S
C410 H400 0.930 . S
C410 C408 1.419 . S
C410 C411 1.362 . S
C411 H401 0.930 . S
C411 C404 1.409 . S
C411 C410 1.362 . S
H412 C418 0.930 . S
H413 C421 0.930 . S
H414 C422 0.930 . S
H415 C423 0.930 . S
H416 C426 0.930 . S
H417 C427 0.930 . S
C418 H412 0.930 . S
C418 C419 1.355 . S
C418 C420 1.415 . S
C419 C418 1.355 . S
C419 C421 1.419 . S
C420 C418 1.415 . S
C420 C425 1.425 . S
C420 C427 1.409 . S
C421 H413 0.930 . S
C421 C419 1.419 . S
C421 C422 1.362 . S
C422 H414 0.930 . S
C422 C421 1.362 . S
C422 C425 1.409 . S
C423 H415 0.930 . S
C423 C424 1.355 . S
C423 C425 1.415 . S
C424 C423 1.355 . S
C424 C426 1.419 . S
C425 C420 1.425 . S
C425 C422 1.409 . S
C425 C423 1.415 . S
C426 H416 0.930 . S
C426 C424 1.419 . S
C426 C427 1.362 . S
C427 H417 0.930 . S
C427 C420 1.409 . S
C427 C426 1.362 . S
H428 C434 0.930 . S
H429 C437 0.930 . S
H430 C438 0.930 . S
H431 C439 0.930 . S
H432 C442 0.930 . S
H433 C443 0.930 . S
C434 H428 0.930 . S
C434 C435 1.355 . S
C434 C436 1.415 . S
C435 C434 1.355 . S
C435 C437 1.419 . S
C436 C434 1.415 . S
C436 C441 1.425 . S
C436 C443 1.409 . S
C437 H429 0.930 . S
C437 C435 1.419 . S
C437 C438 1.362 . S
C438 H430 0.930 . S
C438 C437 1.362 . S
C438 C441 1.409 . S
C439 H431 0.930 . S
C439 C440 1.355 . S
C439 C441 1.415 . S
C440 C439 1.355 . S
C440 C442 1.419 . S
C441 C436 1.425 . S
C441 C438 1.409 . S
C441 C439 1.415 . S
C442 H432 0.930 . S
C442 C440 1.419 . S
C442 C443 1.362 . S
C443 H433 0.930 . S
C443 C436 1.409 . S
C443 C442 1.362 . S
H444 C450 0.930 . S
H445 C453 0.930 . S
H446 C454 0.930 . S
H447 C455 0.930 . S
H448 C458 0.930 . S
H449 C459 0.930 . S
C450 H444 0.930 . S
C450 C451 1.355 . S
C450 C452 1.415 . S
C451 C450 1.355 . S
C451 C453 1.419 . S
C452 C450 1.415 . S
C452 C457 1.425 . S
C452 C459 1.409 . S
C453 H445 0.930 . S
C453 C451 1.419 . S
C453 C454 1.362 . S
C454 H446 0.930 . S
C454 C453 1.362 . S
C454 C457 1.409 . S
C455 H447 0.930 . S
C455 C456 1.355 . S
C455 C457 1.415 . S
C456 C455 1.355 . S
C456 C458 1.419 . S
C457 C452 1.425 . S
C457 C454 1.409 . S
C457 C455 1.415 . S
C458 H448 0.930 . S
C458 C456 1.419 . S
C458 C459 1.362 . S
C459 H449 0.930 . S
C459 C452 1.409 . S
C459 C458 1.362 . S
H460 C466 0.930 . S
H461 C469 0.930 . S
H462 C470 0.930 . S
H463 C471 0.930 . S
H464 C474 0.930 . S
H465 C475 0.930 . S
C466 H460 0.930 . S
C466 C467 1.355 . S
C466 C468 1.415 . S
C467 C466 1.355 . S
C467 C469 1.419 . S
C468 C466 1.415 . S
C468 C473 1.425 . S
C468 C475 1.409 . S
C469 H461 0.930 . S
C469 C467 1.419 . S
C469 C470 1.362 . S
C470 H462 0.930 . S
C470 C469 1.362 . S
C470 C473 1.409 . S
C471 H463 0.930 . S
C471 C472 1.355 . S
C471 C473 1.415 . S
C472 C471 1.355 . S
C472 C474 1.419 . S
C473 C468 1.425 . S
C473 C470 1.409 . S
C473 C471 1.415 . S
C474 H464 0.930 . S
C474 C472 1.419 . S
C474 C475 1.362 . S
C475 H465 0.930 . S
C475 C468 1.409 . S
C475 C474 1.362 . S
H476 C482 0.930 . S
H477 C485 0.930 . S
H478 C486 0.930 . S
H479 C487 0.930 . S
H480 C490 0.930 . S
H481 C491 0.930 . S
C482 H476 0.930 . S
C482 C483 1.355 . S
C482 C484 1.415 . S
C483 C482 1.355 . S
C483 C485 1.419 . S
C484 C482 1.415 . S
C484 C489 1.425 . S
C484 C491 1.409 . S
C485 H477 0.930 . S
C485 C483 1.419 . S
C485 C486 1.362 . S
C486 H478 0.930 . S
C486 C485 1.362 . S
C486 C489 1.409 . S
C487 H479 0.930 . S
C487 C488 1.355 . S
C487 C489 1.415 . S
C488 C487 1.355 . S
C488 C490 1.419 . S
C489 C484 1.425 . S
C489 C486 1.409 . S
C489 C487 1.415 . S
C490 H480 0.930 . S
C490 C488 1.419 . S
C490 C491 1.362 . S
C491 H481 0.930 . S
C491 C484 1.409 . S
C491 C490 1.362 . S
H492 C498 0.930 . S
H493 C501 0.930 . S
H494 C502 0.930 . S
H495 C503 0.930 . S
H496 C506 0.930 . S
H497 C507 0.930 . S
C498 H492 0.930 . S
C498 C499 1.355 . S
C498 C500 1.415 . S
C499 C498 1.355 . S
C499 C501 1.419 . S
C500 C498 1.415 . S
C500 C505 1.425 . S
C500 C507 1.409 . S
C501 H493 0.930 . S
C501 C499 1.419 . S
C501 C502 1.362 . S
C502 H494 0.930 . S
C502 C501 1.362 . S
C502 C505 1.409 . S
C503 H495 0.930 . S
C503 C504 1.355 . S
C503 C505 1.415 . S
C504 C503 1.355 . S
C504 C506 1.419 . S
C505 C500 1.425 . S
C505 C502 1.409 . S
C505 C503 1.415 . S
C506 H496 0.930 . S
C506 C504 1.419 . S
C506 C507 1.362 . S
C507 H497 0.930 . S
C507 C500 1.409 . S
C507 C506 1.362 . S
H508 C514 0.930 . S
H509 C517 0.930 . S
H510 C518 0.930 . S
H511 C519 0.930 . S
H512 C522 0.930 . S
H513 C523 0.930 . S
C514 H508 0.930 . S
C514 C515 1.355 . S
C514 C516 1.415 . S
C515 C514 1.355 . S
C515 C517 1.419 . S
C516 C514 1.415 . S
C516 C521 1.425 . S
C516 C523 1.409 . S
C517 H509 0.930 . S
C517 C515 1.419 . S
C517 C518 1.362 . S
C518 H510 0.930 . S
C518 C517 1.362 . S
C518 C521 1.409 . S
C519 H511 0.930 . S
C519 C520 1.355 . S
C519 C521 1.415 . S
C520 C519 1.355 . S
C520 C522 1.419 . S
C521 C516 1.425 . S
C521 C518 1.409 . S
C521 C519 1.415 . S
C522 H512 0.930 . S
C522 C520 1.419 . S
C522 C523 1.362 . S
C523 H513 0.930 . S
C523 C516 1.409 . S
C523 C522 1.362 . S
H524 C530 0.930 . S
H525 C533 0.930 . S
H526 C534 0.930 . S
H527 C535 0.930 . S
H528 C538 0.930 . S
H529 C539 0.930 . S
C530 H524 0.930 . S
C530 C531 1.355 . S
C530 C532 1.415 . S
C531 C530 1.355 . S
C531 C533 1.419 . S
C532 C530 1.415 . S
C532 C537 1.425 . S
C532 C539 1.409 . S
C533 H525 0.930 . S
C533 C531 1.419 . S
C533 C534 1.362 . S
C534 H526 0.930 . S
C534 C533 1.362 . S
C534 C537 1.409 . S
C535 H527 0.930 . S
C535 C536 1.355 . S
C535 C537 1.415 . S
C536 C535 1.355 . S
C536 C538 1.419 . S
C537 C532 1.425 . S
C537 C534 1.409 . S
C537 C535 1.415 . S
C538 H528 0.930 . S
C538 C536 1.419 . S
C538 C539 1.362 . S
C539 H529 0.930 . S
C539 C532 1.409 . S
C539 C538 1.362 . S
H540 C546 0.930 . S
H541 C549 0.930 . S
H542 C550 0.930 . S
H543 C551 0.930 . S
H544 C554 0.930 . S
H545 C555 0.930 . S
C546 H540 0.930 . S
C546 C547 1.355 . S
C546 C548 1.415 . S
C547 C546 1.355 . S
C547 C549 1.419 . S
C548 C546 1.415 . S
C548 C553 1.425 . S
C548 C555 1.409 . S
C549 H541 0.930 . S
C549 C547 1.419 . S
C549 C550 1.362 . S
C550 H542 0.930 . S
C550 C549 1.362 . S
C550 C553 1.409 . S
C551 H543 0.930 . S
C551 C552 1.355 . S
C551 C553 1.415 . S
C552 C551 1.355 . S
C552 C554 1.419 . S
C553 C548 1.425 . S
C553 C550 1.409 . S
C553 C551 1.415 . S
C554 H544 0.930 . S
C554 C552 1.419 . S
C554 C555 1.362 . S
C555 H545 0.930 . S
C555 C548 1.409 . S
C555 C554 1.362 . S
H556 C562 0.930 . S
H557 C565 0.930 . S
H558 C566 0.930 1_556 S
H559 C567 0.930 . S
H560 C570 0.930 . S
H561 C571 0.930 . S
C562 H556 0.930 . S
C562 C563 1.355 . S
C562 C564 1.415 . S
C563 C562 1.355 . S
C563 C565 1.419 . S
C564 C562 1.415 . S
C564 C569 1.425 . S
C564 C571 1.409 . S
C565 H557 0.930 . S
C565 C563 1.419 . S
C565 C566 1.362 . S
C566 H558 0.930 1_554 S
C566 C565 1.362 . S
C566 C569 1.409 . S
C567 H559 0.930 . S
C567 C568 1.355 . S
C567 C569 1.415 1_556 S
C568 C567 1.355 . S
C568 C570 1.419 1_556 S
C569 C564 1.425 . S
C569 C566 1.409 . S
C569 C567 1.415 1_554 S
C570 H560 0.930 . S
C570 C568 1.419 1_554 S
C570 C571 1.362 . S
C571 H561 0.930 . S
C571 C564 1.409 . S
C571 C570 1.362 . S
H572 C578 0.930 . S
H573 C581 0.930 . S
H574 C582 0.930 . S
H575 C583 0.930 . S
H576 C586 0.930 . S
H577 C587 0.930 . S
C578 H572 0.930 . S
C578 C579 1.355 . S
C578 C580 1.415 . S
C579 C578 1.355 . S
C579 C581 1.419 . S
C580 C578 1.415 . S
C580 C585 1.425 . S
C580 C587 1.409 . S
C581 H573 0.930 . S
C581 C579 1.419 . S
C581 C582 1.362 . S
C582 H574 0.930 . S
C582 C581 1.362 . S
C582 C585 1.409 . S
C583 H575 0.930 . S
C583 C584 1.355 . S
C583 C585 1.415 . S
C584 C583 1.355 . S
C584 C586 1.419 . S
C585 C580 1.425 . S
C585 C582 1.409 . S
C585 C583 1.415 . S
C586 H576 0.930 . S
C586 C584 1.419 . S
C586 C587 1.362 . S
C587 H577 0.930 . S
C587 C580 1.409 . S
C587 C586 1.362 . S
C216 C201 1.562 . S
C211 C19 1.441 . S
C227 C40 1.462 . S
C232 C126 1.515 . S
C243 C51 1.487 . S
C248 C149 1.590 . S
C259 C72 1.347 . S
C264 C162 1.481 . S
C280 C165 1.489 . S
C275 C103 1.429 . S
C291 C114 1.430 . S
C296 C178 1.446 . S
C307 C30 1.443 . S
C312 C139 1.476 . S
C323 C61 1.517 . S
C328 C152 1.525 . S
C339 C82 1.412 . S
C344 C175 1.472 . S
C360 C188 1.580 . S
C355 C93 1.435 1_554 S
C376 C191 1.497 . S
C371 C124 1.492 . S
C392 C136 1.567 . S
C387 C9 1.428 . S
C403 C17 1.457 . S
C408 C147 1.500 . S
C419 C38 1.357 . S
C424 C160 1.421 . S
C440 C170 1.493 . S
C435 C54 1.376 . S
C451 C75 1.412 . S
C456 C183 1.420 1_556 S
C472 C199 1.438 . S
C467 C101 1.396 . S
C488 C131 1.409 . S
C483 C117 1.398 . S
C504 C196 1.416 . S
C499 C33 1.364 . S
C515 C59 1.387 . S
C520 C134 1.442 . S
C536 C144 1.421 . S
C531 C80 1.432 . S
C547 C96 1.463 . S
C552 C157 1.453 . S
C563 C122 1.439 . S
C568 C173 1.479 . S
C579 C12 1.395 . S
C584 C186 1.433 . S
