# Generated by pormake.
# Topology rtl, (3,6)-cn, num edge types: 1
# Building blocks:
#     Node 0, Type 0, BuildingBlock: BELTOD_clean_linker_0, # of connection points: 3
#     Node 1, Type 0, BuildingBlock: BELTOD_clean_linker_0, # of connection points: 3
#     Node 2, Type 0, BuildingBlock: BELTOD_clean_linker_0, # of connection points: 3
#     Node 3, Type 0, BuildingBlock: BELTOD_clean_linker_0, # of connection points: 3
#     Node 4, Type 1, BuildingBlock: VOLQOD_clean_sbu_1, # of connection points: 6
#     Node 5, Type 1, BuildingBlock: VOLQOD_clean_sbu_1, # of connection points: 6
#     Edge 6, Type (0, 1), BuildingBlock: TEMPAE_clean_linker_10, # of connection points: 2
#     Edge 7, Type (0, 1), BuildingBlock: TEMPAE_clean_linker_10, # of connection points: 2
#     Edge 8, Type (0, 1), BuildingBlock: TEMPAE_clean_linker_10, # of connection points: 2
#     Edge 9, Type (0, 1), BuildingBlock: TEMPAE_clean_linker_10, # of connection points: 2
#     Edge 10, Type (0, 1), BuildingBlock: TEMPAE_clean_linker_10, # of connection points: 2
#     Edge 11, Type (0, 1), BuildingBlock: TEMPAE_clean_linker_10, # of connection points: 2
#     Edge 12, Type (0, 1), BuildingBlock: TEMPAE_clean_linker_10, # of connection points: 2
#     Edge 13, Type (0, 1), BuildingBlock: TEMPAE_clean_linker_10, # of connection points: 2
#     Edge 14, Type (0, 1), BuildingBlock: TEMPAE_clean_linker_10, # of connection points: 2
#     Edge 15, Type (0, 1), BuildingBlock: TEMPAE_clean_linker_10, # of connection points: 2
#     Edge 16, Type (0, 1), BuildingBlock: TEMPAE_clean_linker_10, # of connection points: 2
#     Edge 17, Type (0, 1), BuildingBlock: TEMPAE_clean_linker_10, # of connection points: 2
# Relax obj value: 0.074
# Max RMSD: 0.154
# Mean RMSD: 0.083
data_MOF--net-rtl--node1-VOLQOD_clean_sbu_1--node2-BELTOD_clean_linker_0--edge1-TEMPAE_clean_linker_10
_symmetry_space_group_name_H-M    P1
_symmetry_Int_Tables_number       1
_symmetry_cell_setting            triclinic
loop_
_symmetry_equiv_pos_as_xyz
'x, y, z'
_cell_length_a     42.148417
_cell_length_b     36.795071
_cell_length_c     27.035907
_cell_angle_alpha  89.13181
_cell_angle_beta   90.357579
_cell_angle_gamma 90.141683
loop_
_atom_site_label
_atom_site_type_symbol
_atom_site_fract_x
_atom_site_fract_y
_atom_site_fract_z
_atom_type_partial_charge
P0 P 0.15923 0.77181 0.02757 0.0
H1 H 0.17374 0.75734 0.13143 0.0
H2 H 0.14369 0.76783 0.20677 0.0
H3 H 0.06151 0.79628 0.11774 0.0
H4 H 0.0908 0.78299 0.04352 0.0
H5 H 0.20264 0.7536 0.94978 0.0
H6 H 0.23779 0.70197 0.93744 0.0
H7 H 0.19772 0.64796 0.0657 0.0
H8 H 0.16179 0.69928 0.07682 0.0
H9 H 0.13544 0.84314 0.00094 0.0
H10 H 0.13238 0.73555 0.93984 0.0
O11 O 0.18714 0.80295 0.0385 0.0
H12 H 0.10434 0.86641 0.93086 0.0
H13 H 0.10156 0.75895 0.86888 0.0
C14 C 0.13471 0.76976 0.08183 0.0
C15 C 0.1489 0.76457 0.12837 0.0
C16 C 0.13175 0.77105 0.1714 0.0
C17 C 0.10031 0.78383 0.16856 0.0
C18 C 0.08554 0.78631 0.12177 0.0
C19 C 0.10252 0.77907 0.07889 0.0
C20 C 0.17986 0.73042 0.0144 0.0
C21 C 0.20094 0.73029 0.97461 0.0
C22 C 0.22115 0.7009 0.96781 0.0
C23 C 0.22088 0.67119 0.0011 0.0
C24 C 0.19842 0.67043 0.03938 0.0
C25 C 0.17802 0.69991 0.046 0.0
C26 C 0.13672 0.78786 0.97498 0.0
C27 C 0.1282 0.82459 0.97223 0.0
C28 C 0.1102 0.83776 0.93248 0.0
C29 C 0.10055 0.81442 0.89459 0.0
C30 C 0.1089 0.77748 0.89755 0.0
C31 C 0.12657 0.76418 0.93789 0.0
P32 P 0.66271 0.74101 0.48684 0.0
H33 H 0.6859 0.71695 0.39146 0.0
H34 H 0.65872 0.69348 0.31857 0.0
H35 H 0.56827 0.71891 0.38381 0.0
H36 H 0.59567 0.74317 0.45615 0.0
H37 H 0.68707 0.78151 0.56969 0.0
H38 H 0.71447 0.83964 0.57341 0.0
H39 H 0.68731 0.86272 0.42165 0.0
H40 H 0.66102 0.8036 0.4178 0.0
H41 H 0.66326 0.67091 0.53696 0.0
H42 H 0.60991 0.77045 0.54461 0.0
O43 O 0.6974 0.7192 0.48752 0.0
H44 H 0.62954 0.64322 0.59961 0.0
H45 H 0.57476 0.74225 0.60635 0.0
C46 C 0.64276 0.7308 0.42976 0.0
C47 C 0.66025 0.71796 0.38981 0.0
C48 C 0.64469 0.70442 0.34827 0.0
C49 C 0.61135 0.70362 0.346 0.0
C50 C 0.59397 0.71908 0.38455 0.0
C51 C 0.60961 0.73272 0.4261 0.0
C52 C 0.67201 0.78829 0.49359 0.0
C53 C 0.68607 0.79965 0.53778 0.0
C54 C 0.70168 0.83309 0.53984 0.0
C55 C 0.7035 0.85582 0.49758 0.0
C56 C 0.68689 0.84562 0.45459 0.0
C57 C 0.67155 0.81192 0.45246 0.0
C58 C 0.6394 0.72289 0.53687 0.0
C59 C 0.64435 0.68693 0.55247 0.0
C60 C 0.62466 0.67092 0.5878 0.0
C61 C 0.59909 0.69031 0.60757 0.0
C62 C 0.59434 0.72663 0.59214 0.0
C63 C 0.61438 0.74279 0.55695 0.0
P64 P 0.91564 0.35017 0.99685 0.0
H65 H 0.96932 0.3403 0.93009 0.0
H66 H 0.97725 0.30056 0.85938 0.0
H67 H 0.881 0.26125 0.87398 0.0
H68 H 0.87346 0.30055 0.94487 0.0
H69 H 0.86889 0.36035 0.07586 0.0
H70 H 0.81375 0.37984 0.07422 0.0
H71 H 0.82158 0.40495 0.91795 0.0
H72 H 0.87638 0.38347 0.9195 0.0
H73 H 0.96794 0.34112 0.06804 0.0
H74 H 0.87753 0.29085 0.03768 0.0
O75 O 0.94201 0.38405 -0.002 0.0
H76 H 0.97705 0.29768 0.13596 0.0
H77 H 0.88581 0.24825 0.10648 0.0
C78 C 0.92065 0.32378 0.94209 0.0
C79 C 0.94983 0.32348 0.91759 0.0
C80 C 0.95429 0.30083 0.87716 0.0
C81 C 0.92971 0.27782 0.86108 0.0
C82 C 0.90046 0.27842 0.88573 0.0
C83 C 0.89605 0.30107 0.92602 0.0
C84 C 0.87631 0.36911 0.99737 0.0
C85 C 0.85871 0.36975 0.04114 0.0
C86 C 0.82721 0.38139 0.04026 0.0
C87 C 0.81299 0.39346 0.99575 0.0
C88 C 0.83146 0.39486 0.95257 0.0
C89 C 0.86286 0.38283 0.95344 0.0
C90 C 0.92182 0.31958 0.04848 0.0
C91 C 0.94986 0.32105 0.07644 0.0
C92 C 0.95496 0.29627 0.1154 0.0
C93 C 0.93209 0.26954 0.12688 0.0
C94 C 0.90409 0.26816 0.09838 0.0
C95 C 0.89918 0.29272 0.05927 0.0
P96 P 0.4131 0.15327 0.49592 0.0
H97 H 0.42295 0.13866 0.60131 0.0
H98 H 0.43418 0.17832 0.67153 0.0
H99 H 0.43287 0.27173 0.57281 0.0
H100 H 0.42182 0.23235 0.50334 0.0
H101 H 0.3794 0.09213 0.45272 0.0
H102 H 0.32327 0.07492 0.4505 0.0
H103 H 0.30076 0.16753 0.54017 0.0
H104 H 0.35664 0.18496 0.54118 0.0
H105 H 0.47109 0.16584 0.44002 0.0
H106 H 0.37238 0.19553 0.42824 0.0
O107 O 0.43615 0.11652 0.49959 0.0
H108 H 0.48309 0.20463 0.36812 0.0
H109 H 0.3842 0.23466 0.35718 0.0
C110 C 0.42223 0.18239 0.54699 0.0
C111 C 0.42534 0.16766 0.59487 0.0
C112 C 0.43154 0.19032 0.63491 0.0
C113 C 0.4347 0.22807 0.62751 0.0
C114 C 0.43118 0.24269 0.57949 0.0
C115 C 0.42481 0.22009 0.53967 0.0
C116 C 0.37222 0.13931 0.49796 0.0
C117 C 0.36237 0.10845 0.47232 0.0
C118 C 0.33032 0.09864 0.47114 0.0
C119 C 0.30757 0.11981 0.49529 0.0
C120 C 0.31763 0.15084 0.52083 0.0
C121 C 0.34966 0.1606 0.52192 0.0
C122 C 0.42079 0.17718 0.43874 0.0
C123 C 0.45193 0.18016 0.42137 0.0
C124 C 0.45879 0.20262 0.38065 0.0
C125 C 0.43458 0.2227 0.35694 0.0
C126 C 0.40328 0.21908 0.37405 0.0
C127 C 0.39648 0.19666 0.41474 0.0
O128 O 0.91286 0.02517 0.50532 0.0
Zn129 Zn 0.9535 0.05462 0.50311 0.0
O130 O 0.99092 0.02288 0.50596 0.0
Zn131 Zn 0.0177 0.0359 0.56199 0.0
Zn132 Zn 0.9777 0.97207 0.51373 0.0
Zn133 Zn 0.01538 0.02881 0.44524 0.0
O134 O 0.06135 0.05093 0.54058 0.0
O135 O 0.06061 0.04375 0.45934 0.0
O136 O 0.95346 0.08918 0.56066 0.0
O137 O 0.99868 0.07677 0.59981 0.0
O138 O 0.02339 0.9937 0.60892 0.0
O139 O 0.99475 0.94922 0.57668 0.0
O140 O 0.99335 0.94173 0.45738 0.0
O141 O 0.9532 0.08514 0.44029 0.0
O142 O 0.01689 0.9821 0.40784 0.0
O143 O 0.9964 0.06731 0.40096 0.0
C144 C 0.90752 0.99123 0.51077 0.0
C145 C 0.07525 0.05206 0.49895 0.0
C146 C 0.01299 0.96121 0.61043 0.0
C147 C 0.97318 0.09505 0.59559 0.0
C148 C 0.00795 0.9497 0.41757 0.0
C149 C 0.97188 0.08732 0.40347 0.0
O150 O 0.93018 0.96851 0.51488 0.0
O151 O 0.57126 0.48643 0.9868 0.0
Zn152 Zn 0.52961 0.51229 0.98621 0.0
O153 O 0.49418 0.47852 0.99036 0.0
Zn154 Zn 0.46659 0.48594 0.93231 0.0
Zn155 Zn 0.51076 0.4289 0.99187 0.0
Zn156 Zn 0.47055 0.48744 0.05115 0.0
O157 O 0.42313 0.50236 0.95291 0.0
O158 O 0.42617 0.50411 0.03488 0.0
O159 O 0.52828 0.54156 0.92384 0.0
O160 O 0.48423 0.52446 0.88526 0.0
O161 O 0.46237 0.43946 0.89405 0.0
O162 O 0.49513 0.40123 0.9329 0.0
O163 O 0.49606 0.4018 0.05257 0.0
O164 O 0.53013 0.54643 0.04296 0.0
O165 O 0.46772 0.44198 0.09372 0.0
O166 O 0.49124 0.52697 0.09158 0.0
C167 C 0.57937 0.4532 0.98949 0.0
C168 C 0.41062 0.50863 0.9947 0.0
C169 C 0.47563 0.40843 0.89794 0.0
C170 C 0.50926 0.54388 0.88728 0.0
C171 C 0.47917 0.41015 0.08956 0.0
C172 C 0.51418 0.54864 0.08258 0.0
O173 O 0.55871 0.42794 0.99212 0.0
C174 C 0.25022 0.13664 0.48622 0.0
C175 C 0.27342 0.10978 0.49358 0.0
C176 C 0.21785 0.12771 0.48558 0.0
C177 C 0.20845 0.09103 0.49234 0.0
C178 C 0.23173 0.06372 0.49913 0.0
C179 C 0.26395 0.07343 0.4997 0.0
C180 C 0.19369 0.15758 0.47812 0.0
C181 C 0.2226 0.02431 0.50653 0.0
C182 C 0.12557 0.07192 0.54029 0.0
C183 C 0.10921 0.06262 0.49688 0.0
C184 C 0.15783 0.08129 0.53926 0.0
C185 C 0.1742 0.08137 0.49373 0.0
C186 C 0.15788 0.0722 0.44972 0.0
C187 C 0.12557 0.06294 0.4518 0.0
C188 C 0.17443 0.09099 0.58697 0.0
C189 C 0.1746 0.07199 0.40049 0.0
H190 H 0.2574 0.1647 0.48066 0.0
H191 H 0.28174 0.0526 0.50593 0.0
H192 H 0.17843 0.15167 0.44562 0.0
H193 H 0.17798 0.15885 0.51082 0.0
H194 H 0.20494 0.18464 0.47239 0.0
H195 H 0.24361 0.00624 0.50969 0.0
H196 H 0.20827 0.02112 0.54062 0.0
H197 H 0.20764 0.01516 0.47516 0.0
H198 H 0.11321 0.07178 0.57533 0.0
H199 H 0.11319 0.05578 0.41806 0.0
H200 H 0.1845 0.11882 0.58396 0.0
H201 H 0.1945 0.07212 0.59404 0.0
H202 H 0.15826 0.08978 0.61925 0.0
H203 H 0.1848 0.09923 0.3923 0.0
H204 H 0.15847 0.06445 0.36962 0.0
H205 H 0.1946 0.05245 0.40195 0.0
C206 C 0.23879 0.606 0.00503 0.0
C207 C 0.24592 0.64302 -0.00151 0.0
C208 C 0.26289 0.57965 0.0042 0.0
C209 C 0.29475 0.59074 0.99706 0.0
C210 C 0.30198 0.62805 0.99025 0.0
C211 C 0.27752 0.65366 0.99107 0.0
C212 C 0.25435 0.54007 0.0113 0.0
C213 C 0.33569 0.64107 0.98288 0.0
C214 C 0.3659 0.53654 0.04125 0.0
C215 C 0.37831 0.52442 0.99636 0.0
C216 C 0.33748 0.55624 0.04244 0.0
C217 C 0.321 0.56386 0.99772 0.0
C218 C 0.3322 0.54956 0.9528 0.0
C219 C 0.36077 0.53007 0.95262 0.0
C220 C 0.32629 0.571 0.09113 0.0
C221 C 0.31511 0.55681 0.90441 0.0
H222 H 0.21437 0.59766 0.01057 0.0
H223 H 0.28328 0.68228 0.98703 0.0
H224 H 0.26295 0.52416 0.97956 0.0
H225 H 0.26623 0.52902 0.045 0.0
H226 H 0.22835 0.53582 0.01492 0.0
H227 H 0.3372 0.67101 0.97739 0.0
H228 H 0.35041 0.63334 0.01553 0.0
H229 H 0.34617 0.62784 0.95022 0.0
H230 H 0.37909 0.53209 0.07534 0.0
H231 H 0.36994 0.52047 0.91781 0.0
H232 H 0.3006 0.56563 0.09614 0.0
H233 H 0.32971 0.60092 0.09128 0.0
H234 H 0.33946 0.55902 0.12313 0.0
H235 H 0.28929 0.55174 0.9084 0.0
H236 H 0.32427 0.53969 0.87418 0.0
H237 H 0.31819 0.58578 0.89347 0.0
C238 C 0.7325 0.90723 0.53859 0.0
C239 C 0.72667 0.88645 0.49633 0.0
C240 C 0.75909 0.9302 0.54147 0.0
C241 C 0.78016 0.93263 0.50098 0.0
C242 C 0.77278 0.91442 0.45664 0.0
C243 C 0.74625 0.89143 0.45493 0.0
C244 C 0.76598 0.94945 0.58927 0.0
C245 C 0.79442 0.9166 0.41237 0.0
C246 C 0.84895 -0.00018 0.49684 0.0
C247 C 0.87443 0.97747 0.51136 0.0
C248 C 0.81783 0.98602 0.49453 0.0
C249 C 0.81215 0.94913 0.50729 0.0
C250 C 0.83761 0.92685 0.52353 0.0
C251 C 0.86838 0.94124 0.52522 0.0
C252 C 0.79127 0.01052 0.47695 0.0
C253 C 0.83254 0.88741 0.53789 0.0
H254 H 0.71714 0.90418 0.57039 0.0
H255 H 0.7423 0.87536 0.42219 0.0
H256 H 0.78554 0.93525 0.6092 0.0
H257 H 0.77384 0.9778 0.58198 0.0
H258 H 0.74494 0.94986 0.61382 0.0
H259 H 0.78302 0.9055 0.37864 0.0
H260 H 0.80164 0.94512 0.40467 0.0
H261 H 0.8163 0.90077 0.4203 0.0
H262 H 0.8534 0.02786 0.48609 0.0
H263 H 0.88781 0.92384 0.53698 0.0
H264 H 0.77105 0.00903 0.50296 0.0
H265 H 0.78244 0.00128 0.44048 0.0
H266 H 0.79901 0.03931 0.47311 0.0
H267 H 0.81402 0.88505 0.56674 0.0
H268 H 0.85457 0.87433 0.55213 0.0
H269 H 0.82407 0.8721 0.5053 0.0
C270 C 0.76474 0.42162 0.0334 0.0
C271 C 0.77877 0.40325 0.99405 0.0
C272 C 0.7322 0.42954 0.03308 0.0
C273 C 0.71331 0.41933 0.9921 0.0
C274 C 0.72734 0.40128 0.95195 0.0
C275 C 0.75982 0.39321 0.95358 0.0
C276 C 0.71799 0.44866 0.07671 0.0
C277 C 0.70799 0.39033 0.90735 0.0
C278 C 0.62414 0.41044 0.00811 0.0
C279 C 0.61352 0.44408 0.98955 0.0
C280 C 0.65662 0.4021 0.00951 0.0
C281 C 0.67886 0.42776 0.99106 0.0
C282 C 0.66823 0.46152 0.97161 0.0
C283 C 0.63571 0.4694 0.97148 0.0
C284 C 0.66718 0.36602 0.03119 0.0
C285 C 0.69119 0.48929 0.95079 0.0
H286 H 0.77923 0.42998 0.06448 0.0
H287 H 0.77026 0.37842 0.9234 0.0
H288 H 0.70747 0.47491 0.06444 0.0
H289 H 0.69857 0.43193 0.09277 0.0
H290 H 0.73581 0.45406 0.10617 0.0
H291 H 0.72269 0.37736 0.8786 0.0
H292 H 0.68907 0.37101 0.91872 0.0
H293 H 0.69616 0.41453 0.89069 0.0
H294 H 0.60711 0.39088 0.02239 0.0
H295 H 0.62763 0.49535 0.95671 0.0
H296 H 0.68366 0.37054 0.06269 0.0
H297 H 0.68033 0.35049 0.00311 0.0
H298 H 0.64691 0.34922 0.04442 0.0
H299 H 0.70829 0.49761 0.97988 0.0
H300 H 0.67898 0.51396 0.93614 0.0
H301 H 0.70511 0.47719 0.92052 0.0
C302 C 0.10233 0.81941 0.2468 0.0
C303 C 0.0845 0.79923 0.21273 0.0
C304 C 0.08754 0.83942 0.28376 0.0
C305 C 0.05403 0.83998 0.28624 0.0
C306 C 0.0359 0.81806 0.25404 0.0
C307 C 0.05138 0.79766 0.21797 0.0
C308 C 0.10779 0.86195 0.31801 0.0
C309 C 0.0001 0.81801 0.25549 0.0
C310 C 0.01922 0.88446 0.39951 0.0
C311 C 0.01622 0.9206 0.38284 0.0
C312 C 0.03045 0.85741 0.36799 0.0
C313 C 0.03829 0.86671 0.31857 0.0
C314 C 0.03366 0.90275 0.30091 0.0
C315 C 0.02297 0.92932 0.33338 0.0
C316 C 0.03546 0.8194 0.3883 0.0
C317 C 0.0412 0.91363 0.24816 0.0
H318 H 0.12784 0.82143 0.243 0.0
H319 H 0.03738 0.78155 0.19264 0.0
H320 H 0.10501 0.89118 0.30827 0.0
H321 H 0.10006 0.85815 0.35689 0.0
H322 H 0.13335 0.85492 0.3156 0.0
H323 H 0.98969 0.79607 0.2327 0.0
H324 H 0.99158 0.81472 0.29403 0.0
H325 H 0.99114 0.84451 0.24119 0.0
H326 H 0.01413 0.87761 0.43778 0.0
H327 H 0.02032 0.95712 0.32017 0.0
H328 H 0.06128 0.8138 0.39105 0.0
H329 H 0.02506 0.79904 0.36303 0.0
H330 H 0.02488 0.81558 0.42555 0.0
H331 H 0.06714 0.91169 0.24206 0.0
H332 H 0.03356 0.94184 0.23909 0.0
H333 H 0.02942 0.89485 0.22204 0.0
C334 C 0.56765 0.69094 0.6863 0.0
C335 C 0.57797 0.67234 0.64445 0.0
C336 C 0.55133 0.67264 0.72439 0.0
C337 C 0.54573 0.6348 0.72082 0.0
C338 C 0.55423 0.61645 0.67728 0.0
C339 C 0.56991 0.63553 0.63944 0.0
C340 C 0.54195 0.6933 0.76981 0.0
C341 C 0.54894 0.57606 0.6721 0.0
C342 C 0.54955 0.57824 0.83865 0.0
C343 C 0.51771 0.5684 0.84555 0.0
C344 C 0.55876 0.60021 0.79856 0.0
C345 C 0.53547 0.61339 0.76495 0.0
C346 C 0.50312 0.60446 0.77237 0.0
C347 C 0.49463 0.58161 0.81234 0.0
C348 C 0.59361 0.60847 0.7915 0.0
C349 C 0.47761 0.61878 0.73789 0.0
H350 H 0.57369 0.71938 0.69052 0.0
H351 H 0.57691 0.62121 0.60652 0.0
H352 H 0.51768 0.68557 0.78169 0.0
H353 H 0.55842 0.68638 0.80069 0.0
H354 H 0.54282 0.72318 0.76334 0.0
H355 H 0.55394 0.56665 0.63408 0.0
H356 H 0.56475 0.56115 0.69833 0.0
H357 H 0.52417 0.56868 0.68158 0.0
H358 H 0.56755 0.56792 0.86397 0.0
H359 H 0.46995 0.57429 0.8178 0.0
H360 H 0.59759 0.63828 0.79087 0.0
H361 H 0.60157 0.59795 0.75539 0.0
H362 H 0.60866 0.59622 0.82118 0.0
H363 H 0.4795 0.64878 0.73421 0.0
H364 H 0.45341 0.61165 0.75094 0.0
H365 H 0.48084 0.60746 0.70048 0.0
C366 C 0.92855 0.20643 0.16285 0.0
C367 C 0.93748 0.24296 0.16805 0.0
C368 C 0.93332 0.18104 0.20138 0.0
C369 C 0.9477 0.19234 0.24603 0.0
C370 C 0.95684 0.2291 0.25157 0.0
C371 C 0.95149 0.254 0.2126 0.0
C372 C 0.92319 0.14207 0.19415 0.0
C373 C 0.9724 0.24208 0.29858 0.0
C374 C 0.93694 0.13372 0.36165 0.0
C375 C 0.96542 0.11405 0.36308 0.0
C376 C 0.9308 0.15926 0.3237 0.0
C377 C 0.95379 0.16546 0.28655 0.0
C378 C 0.9826 0.14582 0.28784 0.0
C379 C 0.98802 0.12028 0.32595 0.0
C380 C 0.89969 0.17953 0.32326 0.0
C381 C 0.00777 0.15186 0.24902 0.0
H382 H 0.91819 0.1975 0.12831 0.0
H383 H 0.95804 0.28226 0.21722 0.0
H384 H 0.94415 0.12395 0.19675 0.0
H385 H 0.9066 0.13354 0.22387 0.0
H386 H 0.91139 0.13796 0.1578 0.0
H387 H 0.97806 0.27158 0.29701 0.0
H388 H 0.95658 0.23675 0.33054 0.0
H389 H 0.99467 0.22679 0.30558 0.0
H390 H 0.91931 0.12906 0.39008 0.0
H391 H 0.01017 0.10537 0.32679 0.0
H392 H 0.88669 0.17436 0.28824 0.0
H393 H 0.90415 0.20922 0.32484 0.0
H394 H 0.88427 0.17149 0.35478 0.0
H395 H 0.99798 0.14585 0.21185 0.0
H396 H 0.02902 0.1346 0.25559 0.0
H397 H 0.01531 0.18078 0.24848 0.0
C398 C 0.42444 0.24881 0.71382 0.0
C399 C 0.44139 0.25242 0.66955 0.0
C400 C 0.42952 0.27294 0.75284 0.0
C401 C 0.4522 0.30116 0.74743 0.0
C402 C 0.46983 0.30444 0.7032 0.0
C403 C 0.46416 0.28007 0.66477 0.0
C404 C 0.4102 0.26871 0.79942 0.0
C405 C 0.49444 0.33396 0.69623 0.0
C406 C 0.44557 0.38644 0.82388 0.0
C407 C 0.46872 0.38035 0.86058 0.0
C408 C 0.43951 0.36054 0.78744 0.0
C409 C 0.45712 0.32783 0.78752 0.0
C410 C 0.48019 0.32124 0.82479 0.0
C411 C 0.48566 0.34752 0.86095 0.0
C412 C 0.41458 0.36842 0.74838 0.0
C413 C 0.49952 0.28672 0.82593 0.0
H414 H 0.40661 0.22767 0.71746 0.0
H415 H 0.47761 0.28262 0.63084 0.0
H416 H 0.42613 0.26596 0.83207 0.0
H417 H 0.3956 0.29338 0.80476 0.0
H418 H 0.39421 0.24469 0.79836 0.0
H419 H 0.50671 0.33215 0.6601 0.0
H420 H 0.48304 0.36103 0.69843 0.0
H421 H 0.51245 0.33227 0.72626 0.0
H422 H 0.43225 0.4116 0.82337 0.0
H423 H 0.5036 0.34251 0.88911 0.0
H424 H 0.39681 0.34614 0.74769 0.0
H425 H 0.42577 0.36974 0.71135 0.0
H426 H 0.40206 0.39446 0.75469 0.0
H427 H 0.4836 0.26268 0.82691 0.0
H428 H 0.51579 0.2852 0.85838 0.0
H429 H 0.51383 0.28503 0.79174 0.0
C430 C 0.60609 0.64966 0.2919 0.0
C431 C 0.59496 0.68388 0.30577 0.0
C432 C 0.5906 0.6297 0.25525 0.0
C433 C 0.56325 0.64429 0.2318 0.0
C434 C 0.55181 0.67882 0.24558 0.0
C435 C 0.56778 0.69821 0.2826 0.0
C436 C 0.60348 0.59288 0.24177 0.0
C437 C 0.52282 0.69526 0.22109 0.0
C438 C 0.5461 0.60281 0.10725 0.0
C439 C 0.52374 0.57589 0.11963 0.0
C440 C 0.55789 0.62663 0.14294 0.0
C441 C 0.54723 0.62332 0.19231 0.0
C442 C 0.52357 0.59738 0.20462 0.0
C443 C 0.51201 0.57402 0.16805 0.0
C444 C 0.58292 0.65413 0.12829 0.0
C445 C 0.51167 0.59305 0.25694 0.0
H446 H 0.62668 0.6381 0.31043 0.0
H447 H 0.55918 0.72471 0.29314 0.0
H448 H 0.58503 0.57172 0.2476 0.0
H449 H 0.60986 0.59275 0.20203 0.0
H450 H 0.62481 0.58531 0.26394 0.0
H451 H 0.51679 0.72221 0.23639 0.0
H452 H 0.52683 0.69848 0.18074 0.0
H453 H 0.50216 0.67684 0.2259 0.0
H454 H 0.55503 0.60479 0.06979 0.0
H455 H 0.49467 0.5534 0.17791 0.0
H456 H 0.60592 0.64655 0.14572 0.0
H457 H 0.57656 0.68147 0.14177 0.0
H458 H 0.58622 0.65581 0.08758 0.0
H459 H 0.53099 0.58222 0.28098 0.0
H460 H 0.49106 0.57424 0.25944 0.0
H461 H 0.50467 0.61977 0.27181 0.0
C462 C 0.95072 0.26369 0.77694 0.0
C463 C 0.93489 0.25229 0.81994 0.0
C464 C 0.95638 0.23942 0.73843 0.0
C465 C 0.94607 0.2029 0.74322 0.0
C466 C 0.92978 0.19135 0.7863 0.0
C467 C 0.92439 0.21618 0.82413 0.0
C468 C 0.97373 0.25272 0.69291 0.0
C469 C 0.9186 0.15255 0.7929 0.0
C470 C 0.93838 0.14386 0.62962 0.0
C471 C 0.96643 0.12342 0.63243 0.0
C472 C 0.93162 0.17024 0.66503 0.0
C473 C 0.9534 0.17628 0.70413 0.0
C474 C 0.98189 0.15609 0.70686 0.0
C475 C 0.98805 0.12995 0.67102 0.0
C476 C 0.901 0.19133 0.66097 0.0
C477 C 0.0057 0.16175 0.74805 0.0
H478 H 0.95856 0.29168 0.77332 0.0
H479 H 0.91254 0.20708 0.85759 0.0
H480 H 0.99631 0.23761 0.68912 0.0
H481 H 0.9593 0.24742 0.65932 0.0
H482 H 0.97919 0.28225 0.69419 0.0
H483 H 0.90527 0.14828 0.82784 0.0
H484 H 0.90311 0.1448 0.76144 0.0
H485 H 0.93928 0.13395 0.79311 0.0
H486 H 0.92155 0.13911 0.59993 0.0
H487 H 0.00984 0.11442 0.67355 0.0
H488 H 0.90605 0.22093 0.65991 0.0
H489 H 0.8862 0.1858 0.69405 0.0
H490 H 0.88707 0.18424 0.62744 0.0
H491 H 0.01331 0.19062 0.74867 0.0
H492 H 0.02707 0.14444 0.74417 0.0
H493 H 0.99457 0.15544 0.78427 0.0
C494 C 0.42215 0.25159 0.27452 0.0
C495 C 0.44207 0.24874 0.31615 0.0
C496 C 0.4281 0.27737 0.23693 0.0
C497 C 0.45463 0.30082 0.24107 0.0
C498 C 0.47507 0.29777 0.28265 0.0
C499 C 0.46852 0.27178 0.31971 0.0
C500 C 0.40586 0.27975 0.193 0.0
C501 C 0.50359 0.32232 0.28836 0.0
C502 C 0.48589 0.34729 0.12489 0.0
C503 C 0.4728 0.38221 0.12838 0.0
C504 C 0.48015 0.32054 0.16127 0.0
C505 C 0.46083 0.32885 0.20215 0.0
C506 C 0.44751 0.36397 0.20597 0.0
C507 C 0.45366 0.39024 0.16906 0.0
C508 C 0.49483 0.28339 0.15602 0.0
C509 C 0.42675 0.37379 0.24907 0.0
H510 H 0.40187 0.23359 0.27132 0.0
H511 H 0.48373 0.27011 0.35214 0.0
H512 H 0.39506 0.3072 0.19071 0.0
H513 H 0.41922 0.27575 0.15829 0.0
H514 H 0.38653 0.25921 0.19508 0.0
H515 H 0.51756 0.31583 0.32232 0.0
H516 H 0.51933 0.31993 0.25584 0.0
H517 H 0.4958 0.35106 0.28989 0.0
H518 H 0.50074 0.34076 0.09367 0.0
H519 H 0.44342 0.41709 0.17214 0.0
H520 H 0.47597 0.26231 0.15521 0.0
H521 H 0.51026 0.27721 0.18845 0.0
H522 H 0.50922 0.28126 0.12191 0.0
H523 H 0.40592 0.35533 0.25079 0.0
H524 H 0.41814 0.40227 0.2465 0.0
H525 H 0.44013 0.37019 0.28427 0.0
C526 C 0.09368 0.82309 0.80337 0.0
C527 C 0.08292 0.82934 0.85141 0.0
C528 C 0.08006 0.84137 0.76258 0.0
C529 C 0.05493 0.86611 0.7702 0.0
C530 C 0.04269 0.8707 0.81832 0.0
C531 C 0.05699 0.85241 0.85844 0.0
C532 C 0.09389 0.83593 0.71186 0.0
C533 C 0.01561 0.89641 0.82784 0.0
C534 C 0.04806 0.94725 0.68297 0.0
C535 C 0.02318 0.93676 0.65154 0.0
C536 C 0.05868 0.92432 0.72139 0.0
C537 C 0.04387 0.89015 0.729 0.0
C538 C 0.0186 0.87939 0.69771 0.0
C539 C 0.00865 0.90278 0.65912 0.0
C540 C 0.08589 0.93666 0.75375 0.0
C541 C 0.00206 0.84331 0.70515 0.0
H542 H 0.11386 0.8054 0.79797 0.0
H543 H 0.04843 0.85687 0.89559 0.0
H544 H 0.0748 0.83071 0.68444 0.0
H545 H 0.10641 0.86108 0.69978 0.0
H546 H 0.11098 0.81301 0.71136 0.0
H547 H 0.00646 0.89361 0.86616 0.0
H548 H 0.02375 0.92485 0.82197 0.0
H549 H 0.99583 0.89155 0.80149 0.0
H550 H 0.05958 0.97334 0.67726 0.0
H551 H 0.98936 0.8945 0.63507 0.0
H552 H 0.10555 0.9167 0.75241 0.0
H553 H 0.07808 0.93806 0.79278 0.0
H554 H 0.09521 0.96376 0.74231 0.0
H555 H 0.01939 0.82082 0.70215 0.0
H556 H 0.98272 0.83905 0.67773 0.0
H557 H 0.99187 0.84162 0.74286 0.0
loop_
_geom_bond_atom_site_label_1
_geom_bond_atom_site_label_2
_geom_bond_distance
_geom_bond_site_symmetry_2
_ccdc_geom_bond_type
P0 O11 1.490 . S
P0 C14 1.812 . S
P0 C20 1.803 . S
P0 C26 1.819 1_554 S
H1 C15 0.941 . S
H2 C16 0.939 . S
H3 C18 0.940 . S
H4 C19 0.940 . S
H5 C21 0.939 . S
H6 C22 0.942 . S
H7 C24 0.940 . S
H8 C25 0.939 . S
H9 C27 0.941 . S
H10 C31 0.939 . S
O11 P0 1.490 . S
H12 C28 0.939 . S
H13 C30 0.940 . S
C14 P0 1.812 . S
C14 C15 1.389 . S
C14 C19 1.391 . S
C15 H1 0.941 . S
C15 C14 1.389 . S
C15 C16 1.397 . S
C16 H2 0.939 . S
C16 C15 1.397 . S
C16 C17 1.378 . S
C17 C16 1.378 . S
C17 C18 1.378 . S
C18 H3 0.940 . S
C18 C17 1.378 . S
C18 C19 1.396 . S
C19 H4 0.940 . S
C19 C14 1.391 . S
C19 C18 1.396 . S
C20 P0 1.803 . S
C20 C21 1.378 1_554 S
C20 C25 1.400 . S
C21 H5 0.939 . S
C21 C20 1.378 1_556 S
C21 C22 1.361 . S
C22 H6 0.942 . S
C22 C21 1.361 . S
C22 C23 1.369 1_556 S
C23 C22 1.369 1_554 S
C23 C24 1.404 . S
C24 H7 0.940 . S
C24 C23 1.404 . S
C24 C25 1.389 . S
C25 H8 0.939 . S
C25 C20 1.400 . S
C25 C24 1.389 . S
C26 P0 1.819 1_556 S
C26 C27 1.391 . S
C26 C31 1.391 . S
C27 H9 0.941 . S
C27 C26 1.391 . S
C27 C28 1.396 . S
C28 H12 0.939 . S
C28 C27 1.396 . S
C28 C29 1.397 . S
C29 C28 1.397 . S
C29 C30 1.385 . S
C30 H13 0.940 . S
C30 C29 1.385 . S
C30 C31 1.388 . S
C31 H10 0.939 . S
C31 C26 1.391 . S
C31 C30 1.388 . S
P32 O43 1.490 . S
P32 C46 1.812 . S
P32 C52 1.803 . S
P32 C58 1.819 . S
H33 C47 0.941 . S
H34 C48 0.939 . S
H35 C50 0.940 . S
H36 C51 0.940 . S
H37 C53 0.939 . S
H38 C54 0.942 . S
H39 C56 0.940 . S
H40 C57 0.939 . S
H41 C59 0.941 . S
H42 C63 0.939 . S
O43 P32 1.490 . S
H44 C60 0.939 . S
H45 C62 0.940 . S
C46 P32 1.812 . S
C46 C47 1.389 . S
C46 C51 1.391 . S
C47 H33 0.941 . S
C47 C46 1.389 . S
C47 C48 1.397 . S
C48 H34 0.939 . S
C48 C47 1.397 . S
C48 C49 1.378 . S
C49 C48 1.378 . S
C49 C50 1.378 . S
C50 H35 0.940 . S
C50 C49 1.378 . S
C50 C51 1.396 . S
C51 H36 0.940 . S
C51 C46 1.391 . S
C51 C50 1.396 . S
C52 P32 1.803 . S
C52 C53 1.378 . S
C52 C57 1.400 . S
C53 H37 0.939 . S
C53 C52 1.378 . S
C53 C54 1.361 . S
C54 H38 0.942 . S
C54 C53 1.361 . S
C54 C55 1.369 . S
C55 C54 1.369 . S
C55 C56 1.404 . S
C56 H39 0.940 . S
C56 C55 1.404 . S
C56 C57 1.389 . S
C57 H40 0.939 . S
C57 C52 1.400 . S
C57 C56 1.389 . S
C58 P32 1.819 . S
C58 C59 1.391 . S
C58 C63 1.391 . S
C59 H41 0.941 . S
C59 C58 1.391 . S
C59 C60 1.396 . S
C60 H44 0.939 . S
C60 C59 1.396 . S
C60 C61 1.397 . S
C61 C60 1.397 . S
C61 C62 1.385 . S
C62 H45 0.940 . S
C62 C61 1.385 . S
C62 C63 1.388 . S
C63 H42 0.939 . S
C63 C58 1.391 . S
C63 C62 1.388 . S
P64 O75 1.490 . S
P64 C78 1.812 . S
P64 C84 1.803 . S
P64 C90 1.819 1_556 S
H65 C79 0.941 . S
H66 C80 0.939 . S
H67 C82 0.940 . S
H68 C83 0.940 . S
H69 C85 0.939 . S
H70 C86 0.942 . S
H71 C88 0.940 . S
H72 C89 0.939 . S
H73 C91 0.941 . S
H74 C95 0.939 . S
O75 P64 1.490 . S
H76 C92 0.939 . S
H77 C94 0.940 . S
C78 P64 1.812 . S
C78 C79 1.389 . S
C78 C83 1.391 . S
C79 H65 0.941 . S
C79 C78 1.389 . S
C79 C80 1.397 . S
C80 H66 0.939 . S
C80 C79 1.397 . S
C80 C81 1.378 . S
C81 C80 1.378 . S
C81 C82 1.378 . S
C82 H67 0.940 . S
C82 C81 1.378 . S
C82 C83 1.396 . S
C83 H68 0.940 . S
C83 C78 1.391 . S
C83 C82 1.396 . S
C84 P64 1.803 . S
C84 C85 1.378 1_556 S
C84 C89 1.400 . S
C85 H69 0.939 . S
C85 C84 1.378 1_554 S
C85 C86 1.361 . S
C86 H70 0.942 . S
C86 C85 1.361 . S
C86 C87 1.370 . S
C87 C86 1.370 . S
C87 C88 1.403 1_554 S
C88 H71 0.940 . S
C88 C87 1.403 1_556 S
C88 C89 1.389 . S
C89 H72 0.939 . S
C89 C84 1.400 . S
C89 C88 1.389 . S
C90 P64 1.819 1_554 S
C90 C91 1.391 . S
C90 C95 1.391 . S
C91 H73 0.941 . S
C91 C90 1.391 . S
C91 C92 1.396 . S
C92 H76 0.939 . S
C92 C91 1.396 . S
C92 C93 1.397 . S
C93 C92 1.397 . S
C93 C94 1.385 . S
C94 H77 0.940 . S
C94 C93 1.385 . S
C94 C95 1.388 . S
C95 H74 0.939 . S
C95 C90 1.391 . S
C95 C94 1.388 . S
P96 O107 1.490 . S
P96 C110 1.812 . S
P96 C116 1.803 . S
P96 C122 1.819 . S
H97 C111 0.941 . S
H98 C112 0.939 . S
H99 C114 0.940 . S
H100 C115 0.940 . S
H101 C117 0.939 . S
H102 C118 0.942 . S
H103 C120 0.940 . S
H104 C121 0.939 . S
H105 C123 0.941 . S
H106 C127 0.939 . S
O107 P96 1.490 . S
H108 C124 0.939 . S
H109 C126 0.940 . S
C110 P96 1.812 . S
C110 C111 1.389 . S
C110 C115 1.391 . S
C111 H97 0.941 . S
C111 C110 1.389 . S
C111 C112 1.397 . S
C112 H98 0.939 . S
C112 C111 1.397 . S
C112 C113 1.378 . S
C113 C112 1.378 . S
C113 C114 1.378 . S
C114 H99 0.940 . S
C114 C113 1.378 . S
C114 C115 1.396 . S
C115 H100 0.940 . S
C115 C110 1.391 . S
C115 C114 1.396 . S
C116 P96 1.803 . S
C116 C117 1.378 . S
C116 C121 1.400 . S
C117 H101 0.939 . S
C117 C116 1.378 . S
C117 C118 1.361 . S
C118 H102 0.942 . S
C118 C117 1.361 . S
C118 C119 1.369 . S
C119 C118 1.369 . S
C119 C120 1.404 . S
C120 H103 0.940 . S
C120 C119 1.404 . S
C120 C121 1.389 . S
C121 H104 0.939 . S
C121 C116 1.400 . S
C121 C120 1.389 . S
C122 P96 1.819 . S
C122 C123 1.391 . S
C122 C127 1.391 . S
C123 H105 0.941 . S
C123 C122 1.391 . S
C123 C124 1.396 . S
C124 H108 0.939 . S
C124 C123 1.396 . S
C124 C125 1.397 . S
C125 C124 1.397 . S
C125 C126 1.385 . S
C126 H109 0.940 . S
C126 C125 1.385 . S
C126 C127 1.388 . S
C127 H106 0.939 . S
C127 C122 1.391 . S
C127 C126 1.388 . S
O128 Zn129 1.953 1_565 S
O128 C144 1.225 . S
Zn129 O128 1.953 1_545 S
Zn129 O130 1.949 1_655 S
Zn129 O136 1.919 . S
Zn129 O141 1.924 . S
O130 Zn129 1.949 1_455 S
O130 Zn131 1.923 . S
O130 Zn132 1.950 1_445 S
O130 Zn133 1.945 . S
Zn131 O130 1.923 . S
Zn131 O134 1.933 . S
Zn131 O137 1.941 . S
Zn131 O138 1.965 1_545 S
Zn132 O130 1.950 1_665 S
Zn132 O139 1.938 1_655 S
Zn132 O140 1.906 1_655 S
Zn132 O150 1.953 . S
Zn133 O130 1.945 . S
Zn133 O135 1.932 . S
Zn133 O142 1.977 1_545 S
Zn133 O143 1.910 1_455 S
O134 Zn131 1.933 . S
O134 C145 1.226 . S
O135 Zn133 1.932 . S
O135 C145 1.307 . S
O136 Zn129 1.919 . S
O136 C147 1.253 . S
O137 Zn131 1.941 . S
O137 C147 1.283 1_455 S
O138 Zn131 1.965 1_565 S
O138 C146 1.303 . S
O139 Zn132 1.938 1_455 S
O139 C146 1.247 . S
O140 Zn132 1.906 1_455 S
O140 C148 1.304 . S
O141 Zn129 1.924 . S
O141 C149 1.311 . S
O142 Zn133 1.977 1_565 S
O142 C148 1.272 . S
O143 Zn133 1.910 1_655 S
O143 C149 1.231 . S
C144 O128 1.225 . S
C144 O150 1.298 . S
C145 O134 1.226 . S
C145 O135 1.307 . S
C146 O138 1.303 . S
C146 O139 1.247 . S
C147 O136 1.253 . S
C147 O137 1.283 1_655 S
C148 O140 1.304 . S
C148 O142 1.272 . S
C149 O141 1.311 . S
C149 O143 1.231 . S
O150 Zn132 1.953 . S
O150 C144 1.298 . S
O151 Zn152 1.953 . S
O151 C167 1.225 1_556 S
Zn152 O151 1.953 . S
Zn152 O153 1.949 1_556 S
Zn152 O159 1.919 . S
Zn152 O164 1.924 1_556 S
O153 Zn152 1.949 1_554 S
O153 Zn154 1.923 1_554 S
O153 Zn155 1.950 . S
O153 Zn156 1.945 . S
Zn154 O153 1.923 1_556 S
Zn154 O157 1.933 . S
Zn154 O160 1.941 . S
Zn154 O161 1.965 . S
Zn155 O153 1.950 . S
Zn155 O162 1.938 1_554 S
Zn155 O163 1.906 . S
Zn155 O173 1.953 . S
Zn156 O153 1.945 . S
Zn156 O158 1.932 . S
Zn156 O165 1.977 . S
Zn156 O166 1.910 . S
O157 Zn154 1.933 . S
O157 C168 1.226 1_556 S
O158 Zn156 1.932 . S
O158 C168 1.307 . S
O159 Zn152 1.919 . S
O159 C170 1.253 . S
O160 Zn154 1.941 . S
O160 C170 1.283 . S
O161 Zn154 1.965 . S
O161 C169 1.303 . S
O162 Zn155 1.938 1_556 S
O162 C169 1.247 . S
O163 Zn155 1.906 . S
O163 C171 1.304 . S
O164 Zn152 1.924 1_554 S
O164 C172 1.311 . S
O165 Zn156 1.977 . S
O165 C171 1.272 . S
O166 Zn156 1.910 . S
O166 C172 1.231 . S
C167 O151 1.225 1_554 S
C167 O173 1.298 . S
C168 O157 1.226 1_554 S
C168 O158 1.307 . S
C169 O161 1.303 . S
C169 O162 1.247 . S
C170 O159 1.253 . S
C170 O160 1.283 . S
C171 O163 1.304 . S
C171 O165 1.272 . S
C172 O164 1.311 . S
C172 O166 1.231 . S
O173 Zn155 1.953 . S
O173 C167 1.298 . S
C174 C175 1.391 . S
C174 C176 1.394 . S
C174 H190 0.931 . S
C175 C174 1.391 . S
C175 C179 1.376 . S
C176 C174 1.394 . S
C176 C177 1.369 . S
C176 C180 1.531 . S
C177 C176 1.369 . S
C177 C178 1.410 . S
C177 C185 1.503 . S
C178 C177 1.410 . S
C178 C179 1.392 . S
C178 C181 1.511 . S
C179 C175 1.376 . S
C179 C178 1.392 . S
C179 H191 0.929 . S
C180 C176 1.531 . S
C180 H192 0.960 . S
C180 H193 0.962 . S
C180 H194 0.960 . S
C181 C178 1.511 . S
C181 H195 0.961 . S
C181 H196 0.961 . S
C181 H197 0.961 . S
C182 C183 1.370 . S
C182 C184 1.363 . S
C182 H198 0.931 . S
C183 C182 1.370 . S
C183 C187 1.408 . S
C184 C182 1.363 . S
C184 C185 1.370 . S
C184 C188 1.524 . S
C185 C177 1.503 . S
C185 C184 1.370 . S
C185 C186 1.403 . S
C186 C185 1.403 . S
C186 C187 1.404 . S
C186 C189 1.539 . S
C187 C183 1.408 . S
C187 C186 1.404 . S
C187 H199 0.930 . S
C188 C184 1.524 . S
C188 H200 0.956 . S
C188 H201 0.961 . S
C188 H202 0.961 . S
C189 C186 1.539 . S
C189 H203 0.958 . S
C189 H204 0.961 . S
C189 H205 0.960 . S
H190 C174 0.931 . S
H191 C179 0.929 . S
H192 C180 0.960 . S
H193 C180 0.962 . S
H194 C180 0.960 . S
H195 C181 0.961 . S
H196 C181 0.961 . S
H197 C181 0.961 . S
H198 C182 0.931 . S
H199 C187 0.930 . S
H200 C188 0.956 . S
H201 C188 0.961 . S
H202 C188 0.961 . S
H203 C189 0.958 . S
H204 C189 0.961 . S
H205 C189 0.960 . S
C206 C207 1.398 . S
C206 C208 1.394 . S
C206 H222 0.931 . S
C207 C206 1.398 . S
C207 C211 1.370 1_556 S
C208 C206 1.394 . S
C208 C209 1.369 . S
C208 C212 1.531 . S
C209 C208 1.369 . S
C209 C210 1.410 1_556 S
C209 C217 1.503 . S
C210 C209 1.410 1_554 S
C210 C211 1.392 . S
C210 C213 1.511 . S
C211 C207 1.370 1_554 S
C211 C210 1.392 . S
C211 H223 0.929 . S
C212 C208 1.531 . S
C212 H224 0.960 . S
C212 H225 0.962 . S
C212 H226 0.960 . S
C213 C210 1.511 . S
C213 H227 0.961 . S
C213 H228 0.961 . S
C213 H229 0.961 . S
C214 C215 1.370 . S
C214 C216 1.363 . S
C214 H230 0.931 . S
C215 C214 1.370 . S
C215 C219 1.408 1_554 S
C216 C214 1.363 . S
C216 C217 1.370 1_554 S
C216 C220 1.524 . S
C217 C209 1.503 . S
C217 C216 1.370 1_556 S
C217 C218 1.403 . S
C218 C217 1.403 . S
C218 C219 1.404 . S
C218 C221 1.539 . S
C219 C215 1.408 1_556 S
C219 C218 1.404 . S
C219 H231 0.930 . S
C220 C216 1.524 . S
C220 H232 0.956 . S
C220 H233 0.961 . S
C220 H234 0.961 . S
C221 C218 1.539 . S
C221 H235 0.958 . S
C221 H236 0.961 . S
C221 H237 0.960 . S
H222 C206 0.931 . S
H223 C211 0.929 . S
H224 C212 0.960 . S
H225 C212 0.962 . S
H226 C212 0.960 . S
H227 C213 0.961 . S
H228 C213 0.961 . S
H229 C213 0.961 . S
H230 C214 0.931 . S
H231 C219 0.930 . S
H232 C220 0.956 . S
H233 C220 0.961 . S
H234 C220 0.961 . S
H235 C221 0.958 . S
H236 C221 0.961 . S
H237 C221 0.960 . S
C238 C239 1.391 . S
C238 C240 1.394 . S
C238 H254 0.931 . S
C239 C238 1.391 . S
C239 C243 1.376 . S
C240 C238 1.394 . S
C240 C241 1.369 . S
C240 C244 1.531 . S
C241 C240 1.369 . S
C241 C242 1.410 . S
C241 C249 1.503 . S
C242 C241 1.410 . S
C242 C243 1.392 . S
C242 C245 1.511 . S
C243 C239 1.376 . S
C243 C242 1.392 . S
C243 H255 0.929 . S
C244 C240 1.531 . S
C244 H256 0.960 . S
C244 H257 0.962 . S
C244 H258 0.960 . S
C245 C242 1.511 . S
C245 H259 0.961 . S
C245 H260 0.961 . S
C245 H261 0.961 . S
C246 C247 1.370 . S
C246 C248 1.363 . S
C246 H262 0.931 . S
C247 C246 1.370 . S
C247 C251 1.408 . S
C248 C246 1.363 . S
C248 C249 1.370 . S
C248 C252 1.524 . S
C249 C241 1.503 . S
C249 C248 1.370 . S
C249 C250 1.403 . S
C250 C249 1.403 . S
C250 C251 1.404 . S
C250 C253 1.539 . S
C251 C247 1.408 . S
C251 C250 1.404 . S
C251 H263 0.930 . S
C252 C248 1.524 . S
C252 H264 0.956 . S
C252 H265 0.961 . S
C252 H266 0.961 . S
C253 C250 1.539 . S
C253 H267 0.958 . S
C253 H268 0.961 . S
C253 H269 0.960 . S
H254 C238 0.931 . S
H255 C243 0.929 . S
H256 C244 0.960 . S
H257 C244 0.962 . S
H258 C244 0.960 . S
H259 C245 0.961 . S
H260 C245 0.961 . S
H261 C245 0.961 . S
H262 C246 0.931 . S
H263 C251 0.930 . S
H264 C252 0.956 . S
H265 C252 0.961 . S
H266 C252 0.961 . S
H267 C253 0.958 . S
H268 C253 0.961 . S
H269 C253 0.960 . S
C270 C271 1.391 . S
C270 C272 1.394 . S
C270 H286 0.931 . S
C271 C270 1.391 . S
C271 C275 1.376 . S
C272 C270 1.394 . S
C272 C273 1.369 . S
C272 C276 1.531 . S
C273 C272 1.369 . S
C273 C274 1.410 . S
C273 C281 1.503 . S
C274 C273 1.410 . S
C274 C275 1.392 . S
C274 C277 1.511 . S
C275 C271 1.376 . S
C275 C274 1.392 . S
C275 H287 0.929 . S
C276 C272 1.531 . S
C276 H288 0.960 . S
C276 H289 0.962 1_556 S
C276 H290 0.960 . S
C277 C274 1.511 . S
C277 H291 0.961 1_556 S
C277 H292 0.961 1_556 S
C277 H293 0.961 . S
C278 C279 1.380 . S
C278 C280 1.363 . S
C278 H294 0.931 . S
C279 C278 1.380 . S
C279 C283 1.398 1_554 S
C280 C278 1.363 . S
C280 C281 1.370 1_554 S
C280 C284 1.524 . S
C281 C273 1.503 . S
C281 C280 1.370 1_556 S
C281 C282 1.403 . S
C282 C281 1.403 . S
C282 C283 1.404 . S
C282 C285 1.539 . S
C283 C279 1.398 1_556 S
C283 C282 1.404 . S
C283 H295 0.930 . S
C284 C280 1.524 . S
C284 H296 0.956 . S
C284 H297 0.961 . S
C284 H298 0.961 . S
C285 C282 1.539 . S
C285 H299 0.958 . S
C285 H300 0.961 . S
C285 H301 0.960 . S
H286 C270 0.931 . S
H287 C275 0.929 . S
H288 C276 0.960 . S
H289 C276 0.962 1_554 S
H290 C276 0.960 . S
H291 C277 0.961 1_554 S
H292 C277 0.961 1_554 S
H293 C277 0.961 . S
H294 C278 0.931 . S
H295 C283 0.930 . S
H296 C284 0.956 . S
H297 C284 0.961 . S
H298 C284 0.961 . S
H299 C285 0.958 . S
H300 C285 0.961 . S
H301 C285 0.960 . S
C302 C303 1.391 . S
C302 C304 1.394 . S
C302 H318 0.931 . S
C303 C302 1.391 . S
C303 C307 1.376 . S
C304 C302 1.394 . S
C304 C305 1.369 . S
C304 C308 1.531 . S
C305 C304 1.369 . S
C305 C306 1.410 . S
C305 C313 1.503 . S
C306 C305 1.410 . S
C306 C307 1.392 . S
C306 C309 1.511 . S
C307 C303 1.376 . S
C307 C306 1.392 . S
C307 H319 0.929 . S
C308 C304 1.531 . S
C308 H320 0.960 . S
C308 H321 0.962 . S
C308 H322 0.960 . S
C309 C306 1.511 . S
C309 H323 0.961 1_455 S
C309 H324 0.961 . S
C309 H325 0.961 1_455 S
C310 C311 1.370 . S
C310 C312 1.363 . S
C310 H326 0.931 . S
C311 C310 1.370 . S
C311 C315 1.408 . S
C312 C310 1.363 . S
C312 C313 1.370 . S
C312 C316 1.524 . S
C313 C305 1.503 . S
C313 C312 1.370 . S
C313 C314 1.403 . S
C314 C313 1.403 . S
C314 C315 1.404 . S
C314 C317 1.539 . S
C315 C311 1.408 . S
C315 C314 1.404 . S
C315 H327 0.930 . S
C316 C312 1.524 . S
C316 H328 0.956 . S
C316 H329 0.961 . S
C316 H330 0.961 . S
C317 C314 1.539 . S
C317 H331 0.958 . S
C317 H332 0.961 . S
C317 H333 0.960 . S
H318 C302 0.931 . S
H319 C307 0.929 . S
H320 C308 0.960 . S
H321 C308 0.962 . S
H322 C308 0.960 . S
H323 C309 0.961 1_655 S
H324 C309 0.961 . S
H325 C309 0.961 1_655 S
H326 C310 0.931 . S
H327 C315 0.930 . S
H328 C316 0.956 . S
H329 C316 0.961 . S
H330 C316 0.961 . S
H331 C317 0.958 . S
H332 C317 0.961 . S
H333 C317 0.960 . S
C334 C335 1.391 . S
C334 C336 1.394 . S
C334 H350 0.931 . S
C335 C334 1.391 . S
C335 C339 1.376 . S
C336 C334 1.394 . S
C336 C337 1.369 . S
C336 C340 1.531 . S
C337 C336 1.369 . S
C337 C338 1.410 . S
C337 C345 1.503 . S
C338 C337 1.410 . S
C338 C339 1.392 . S
C338 C341 1.511 . S
C339 C335 1.376 . S
C339 C338 1.392 . S
C339 H351 0.929 . S
C340 C336 1.531 . S
C340 H352 0.960 . S
C340 H353 0.962 . S
C340 H354 0.960 . S
C341 C338 1.511 . S
C341 H355 0.961 . S
C341 H356 0.961 . S
C341 H357 0.961 . S
C342 C343 1.370 . S
C342 C344 1.363 . S
C342 H358 0.931 . S
C343 C342 1.370 . S
C343 C347 1.408 . S
C344 C342 1.363 . S
C344 C345 1.370 . S
C344 C348 1.524 . S
C345 C337 1.503 . S
C345 C344 1.370 . S
C345 C346 1.403 . S
C346 C345 1.403 . S
C346 C347 1.404 . S
C346 C349 1.539 . S
C347 C343 1.408 . S
C347 C346 1.404 . S
C347 H359 0.930 . S
C348 C344 1.524 . S
C348 H360 0.956 . S
C348 H361 0.961 . S
C348 H362 0.961 . S
C349 C346 1.539 . S
C349 H363 0.958 . S
C349 H364 0.961 . S
C349 H365 0.960 . S
H350 C334 0.931 . S
H351 C339 0.929 . S
H352 C340 0.960 . S
H353 C340 0.962 . S
H354 C340 0.960 . S
H355 C341 0.961 . S
H356 C341 0.961 . S
H357 C341 0.961 . S
H358 C342 0.931 . S
H359 C347 0.930 . S
H360 C348 0.956 . S
H361 C348 0.961 . S
H362 C348 0.961 . S
H363 C349 0.958 . S
H364 C349 0.961 . S
H365 C349 0.960 . S
C366 C367 1.391 . S
C366 C368 1.394 . S
C366 H382 0.931 . S
C367 C366 1.391 . S
C367 C371 1.376 . S
C368 C366 1.394 . S
C368 C369 1.369 . S
C368 C372 1.531 . S
C369 C368 1.369 . S
C369 C370 1.410 . S
C369 C377 1.503 . S
C370 C369 1.410 . S
C370 C371 1.392 . S
C370 C373 1.511 . S
C371 C367 1.376 . S
C371 C370 1.392 . S
C371 H383 0.929 . S
C372 C368 1.531 . S
C372 H384 0.960 . S
C372 H385 0.962 . S
C372 H386 0.960 . S
C373 C370 1.511 . S
C373 H387 0.961 . S
C373 H388 0.961 . S
C373 H389 0.961 1_655 S
C374 C375 1.370 . S
C374 C376 1.363 . S
C374 H390 0.931 . S
C375 C374 1.370 . S
C375 C379 1.408 . S
C376 C374 1.363 . S
C376 C377 1.370 . S
C376 C380 1.524 . S
C377 C369 1.503 . S
C377 C376 1.370 . S
C377 C378 1.403 . S
C378 C377 1.403 . S
C378 C379 1.404 . S
C378 C381 1.539 . S
C379 C375 1.408 . S
C379 C378 1.404 . S
C379 H391 0.930 . S
C380 C376 1.524 . S
C380 H392 0.956 . S
C380 H393 0.961 . S
C380 H394 0.961 . S
C381 C378 1.539 . S
C381 H395 0.958 . S
C381 H396 0.961 1_655 S
C381 H397 0.960 . S
H382 C366 0.931 . S
H383 C371 0.929 . S
H384 C372 0.960 . S
H385 C372 0.962 . S
H386 C372 0.960 . S
H387 C373 0.961 . S
H388 C373 0.961 . S
H389 C373 0.961 1_455 S
H390 C374 0.931 . S
H391 C379 0.930 . S
H392 C380 0.956 . S
H393 C380 0.961 . S
H394 C380 0.961 . S
H395 C381 0.958 . S
H396 C381 0.961 1_455 S
H397 C381 0.960 . S
C398 C399 1.391 . S
C398 C400 1.394 . S
C398 H414 0.931 . S
C399 C398 1.391 . S
C399 C403 1.376 . S
C400 C398 1.394 . S
C400 C401 1.369 . S
C400 C404 1.531 . S
C401 C400 1.369 . S
C401 C402 1.410 . S
C401 C409 1.503 . S
C402 C401 1.410 . S
C402 C403 1.392 . S
C402 C405 1.511 . S
C403 C399 1.376 . S
C403 C402 1.392 . S
C403 H415 0.929 . S
C404 C400 1.531 . S
C404 H416 0.960 . S
C404 H417 0.962 . S
C404 H418 0.960 . S
C405 C402 1.511 . S
C405 H419 0.961 . S
C405 H420 0.961 . S
C405 H421 0.961 . S
C406 C407 1.370 . S
C406 C408 1.363 . S
C406 H422 0.931 . S
C407 C406 1.370 . S
C407 C411 1.408 . S
C408 C406 1.363 . S
C408 C409 1.370 . S
C408 C412 1.524 . S
C409 C401 1.503 . S
C409 C408 1.370 . S
C409 C410 1.403 . S
C410 C409 1.403 . S
C410 C411 1.404 . S
C410 C413 1.539 . S
C411 C407 1.408 . S
C411 C410 1.404 . S
C411 H423 0.930 . S
C412 C408 1.524 . S
C412 H424 0.956 . S
C412 H425 0.961 . S
C412 H426 0.961 . S
C413 C410 1.539 . S
C413 H427 0.958 . S
C413 H428 0.961 . S
C413 H429 0.960 . S
H414 C398 0.931 . S
H415 C403 0.929 . S
H416 C404 0.960 . S
H417 C404 0.962 . S
H418 C404 0.960 . S
H419 C405 0.961 . S
H420 C405 0.961 . S
H421 C405 0.961 . S
H422 C406 0.931 . S
H423 C411 0.930 . S
H424 C412 0.956 . S
H425 C412 0.961 . S
H426 C412 0.961 . S
H427 C413 0.958 . S
H428 C413 0.961 . S
H429 C413 0.960 . S
C430 C431 1.391 . S
C430 C432 1.394 . S
C430 H446 0.931 . S
C431 C430 1.391 . S
C431 C435 1.376 . S
C432 C430 1.394 . S
C432 C433 1.369 . S
C432 C436 1.531 . S
C433 C432 1.369 . S
C433 C434 1.410 . S
C433 C441 1.503 . S
C434 C433 1.410 . S
C434 C435 1.392 . S
C434 C437 1.511 . S
C435 C431 1.376 . S
C435 C434 1.392 . S
C435 H447 0.929 . S
C436 C432 1.531 . S
C436 H448 0.960 . S
C436 H449 0.962 . S
C436 H450 0.960 . S
C437 C434 1.511 . S
C437 H451 0.961 . S
C437 H452 0.961 . S
C437 H453 0.961 . S
C438 C439 1.370 . S
C438 C440 1.363 . S
C438 H454 0.931 . S
C439 C438 1.370 . S
C439 C443 1.408 . S
C440 C438 1.363 . S
C440 C441 1.370 . S
C440 C444 1.524 . S
C441 C433 1.503 . S
C441 C440 1.370 . S
C441 C442 1.403 . S
C442 C441 1.403 . S
C442 C443 1.404 . S
C442 C445 1.539 . S
C443 C439 1.408 . S
C443 C442 1.404 . S
C443 H455 0.930 . S
C444 C440 1.524 . S
C444 H456 0.956 . S
C444 H457 0.961 . S
C444 H458 0.961 . S
C445 C442 1.539 . S
C445 H459 0.958 . S
C445 H460 0.961 . S
C445 H461 0.960 . S
H446 C430 0.931 . S
H447 C435 0.929 . S
H448 C436 0.960 . S
H449 C436 0.962 . S
H450 C436 0.960 . S
H451 C437 0.961 . S
H452 C437 0.961 . S
H453 C437 0.961 . S
H454 C438 0.931 . S
H455 C443 0.930 . S
H456 C444 0.956 . S
H457 C444 0.961 . S
H458 C444 0.961 . S
H459 C445 0.958 . S
H460 C445 0.961 . S
H461 C445 0.960 . S
C462 C463 1.391 . S
C462 C464 1.394 . S
C462 H478 0.931 . S
C463 C462 1.391 . S
C463 C467 1.376 . S
C464 C462 1.394 . S
C464 C465 1.369 . S
C464 C468 1.531 . S
C465 C464 1.369 . S
C465 C466 1.410 . S
C465 C473 1.503 . S
C466 C465 1.410 . S
C466 C467 1.392 . S
C466 C469 1.511 1_655 S
C467 C463 1.376 . S
C467 C466 1.392 . S
C467 H479 0.929 . S
C468 C464 1.531 . S
C468 H480 0.960 . S
C468 H481 0.962 . S
C468 H482 0.960 . S
C469 C466 1.511 1_455 S
C469 H483 0.961 . S
C469 H484 0.961 . S
C469 H485 0.961 . S
C470 C471 1.370 . S
C470 C472 1.363 . S
C470 H486 0.931 . S
C471 C470 1.370 . S
C471 C475 1.408 . S
C472 C470 1.363 . S
C472 C473 1.370 . S
C472 C476 1.524 . S
C473 C465 1.503 . S
C473 C472 1.370 . S
C473 C474 1.403 . S
C474 C473 1.403 . S
C474 C475 1.404 . S
C474 C477 1.539 1_655 S
C475 C471 1.408 . S
C475 C474 1.404 . S
C475 H487 0.930 1_655 S
C476 C472 1.524 . S
C476 H488 0.956 . S
C476 H489 0.961 . S
C476 H490 0.961 . S
C477 C474 1.539 1_455 S
C477 H491 0.958 1_455 S
C477 H492 0.961 . S
C477 H493 0.960 . S
H478 C462 0.931 . S
H479 C467 0.929 . S
H480 C468 0.960 . S
H481 C468 0.962 . S
H482 C468 0.960 . S
H483 C469 0.961 . S
H484 C469 0.961 . S
H485 C469 0.961 . S
H486 C470 0.931 . S
H487 C475 0.930 1_455 S
H488 C476 0.956 . S
H489 C476 0.961 . S
H490 C476 0.961 . S
H491 C477 0.958 1_655 S
H492 C477 0.961 . S
H493 C477 0.960 . S
C494 C495 1.391 . S
C494 C496 1.394 . S
C494 H510 0.931 . S
C495 C494 1.391 . S
C495 C499 1.376 . S
C496 C494 1.394 . S
C496 C497 1.369 . S
C496 C500 1.531 . S
C497 C496 1.369 . S
C497 C498 1.410 . S
C497 C505 1.503 . S
C498 C497 1.410 . S
C498 C499 1.392 . S
C498 C501 1.511 . S
C499 C495 1.376 . S
C499 C498 1.392 . S
C499 H511 0.929 . S
C500 C496 1.531 . S
C500 H512 0.960 . S
C500 H513 0.962 . S
C500 H514 0.960 . S
C501 C498 1.511 . S
C501 H515 0.961 . S
C501 H516 0.961 . S
C501 H517 0.961 . S
C502 C503 1.370 . S
C502 C504 1.363 . S
C502 H518 0.931 . S
C503 C502 1.370 . S
C503 C507 1.408 . S
C504 C502 1.363 . S
C504 C505 1.370 . S
C504 C508 1.524 . S
C505 C497 1.503 . S
C505 C504 1.370 . S
C505 C506 1.403 . S
C506 C505 1.403 . S
C506 C507 1.404 . S
C506 C509 1.539 . S
C507 C503 1.408 . S
C507 C506 1.404 . S
C507 H519 0.930 . S
C508 C504 1.524 . S
C508 H520 0.956 . S
C508 H521 0.961 . S
C508 H522 0.961 . S
C509 C506 1.539 . S
C509 H523 0.958 . S
C509 H524 0.961 . S
C509 H525 0.960 . S
H510 C494 0.931 . S
H511 C499 0.929 . S
H512 C500 0.960 . S
H513 C500 0.962 . S
H514 C500 0.960 . S
H515 C501 0.961 . S
H516 C501 0.961 . S
H517 C501 0.961 . S
H518 C502 0.931 . S
H519 C507 0.930 . S
H520 C508 0.956 . S
H521 C508 0.961 . S
H522 C508 0.961 . S
H523 C509 0.958 . S
H524 C509 0.961 . S
H525 C509 0.960 . S
C526 C527 1.391 . S
C526 C528 1.394 . S
C526 H542 0.931 . S
C527 C526 1.391 . S
C527 C531 1.376 . S
C528 C526 1.394 . S
C528 C529 1.369 . S
C528 C532 1.531 . S
C529 C528 1.369 . S
C529 C530 1.410 . S
C529 C537 1.503 . S
C530 C529 1.410 . S
C530 C531 1.392 . S
C530 C533 1.511 . S
C531 C527 1.376 . S
C531 C530 1.392 . S
C531 H543 0.929 . S
C532 C528 1.531 . S
C532 H544 0.960 . S
C532 H545 0.962 . S
C532 H546 0.960 . S
C533 C530 1.511 . S
C533 H547 0.961 . S
C533 H548 0.961 . S
C533 H549 0.961 1_455 S
C534 C535 1.370 . S
C534 C536 1.363 . S
C534 H550 0.931 . S
C535 C534 1.370 . S
C535 C539 1.408 . S
C536 C534 1.363 . S
C536 C537 1.370 . S
C536 C540 1.524 . S
C537 C529 1.503 . S
C537 C536 1.370 . S
C537 C538 1.403 . S
C538 C537 1.403 . S
C538 C539 1.404 . S
C538 C541 1.539 1_455 S
C539 C535 1.408 . S
C539 C538 1.404 . S
C539 H551 0.930 1_455 S
C540 C536 1.524 . S
C540 H552 0.956 . S
C540 H553 0.961 . S
C540 H554 0.961 . S
C541 C538 1.539 1_655 S
C541 H555 0.958 . S
C541 H556 0.961 . S
C541 H557 0.960 . S
H542 C526 0.931 . S
H543 C531 0.929 . S
H544 C532 0.960 . S
H545 C532 0.962 . S
H546 C532 0.960 . S
H547 C533 0.961 . S
H548 C533 0.961 . S
H549 C533 0.961 1_655 S
H550 C534 0.931 . S
H551 C539 0.930 1_655 S
H552 C540 0.956 . S
H553 C540 0.961 . S
H554 C540 0.961 . S
H555 C541 0.958 . S
H556 C541 0.961 . S
H557 C541 0.960 . S
C183 C145 1.598 . S
C175 C119 1.605 . S
C207 C23 1.469 1_556 S
C215 C168 1.596 . S
C239 C55 1.477 . S
C247 C144 1.613 . S
C271 C87 1.611 1_556 S
C279 C167 1.615 . S
C311 C148 1.556 . S
C303 C17 1.481 . S
C343 C170 1.582 . S
C335 C61 1.548 . S
C367 C93 1.637 . S
C375 C149 1.560 . S
C399 C113 1.584 . S
C407 C169 1.555 . S
C439 C172 1.563 . S
C431 C49 1.510 . S
C471 C147 1.582 . S
C463 C81 1.603 . S
C503 C171 1.568 . S
C495 C125 1.624 . S
C527 C29 1.533 . S
C535 C146 1.560 . S
