# Generated by pormake.
# Topology apo, (3,6)-cn, num edge types: 1
# Building blocks:
#     Node 0, Type 0, BuildingBlock: BETDIP_clean_linker_0, # of connection points: 3
#     Node 1, Type 0, BuildingBlock: BETDIP_clean_linker_0, # of connection points: 3
#     Node 2, Type 0, BuildingBlock: BETDIP_clean_linker_0, # of connection points: 3
#     Node 3, Type 0, BuildingBlock: BETDIP_clean_linker_0, # of connection points: 3
#     Node 4, Type 0, BuildingBlock: BETDIP_clean_linker_0, # of connection points: 3
#     Node 5, Type 0, BuildingBlock: BETDIP_clean_linker_0, # of connection points: 3
#     Node 6, Type 0, BuildingBlock: BETDIP_clean_linker_0, # of connection points: 3
#     Node 7, Type 0, BuildingBlock: BETDIP_clean_linker_0, # of connection points: 3
#     Node 8, Type 1, BuildingBlock: MIDCAF_clean_sbu_0, # of connection points: 6
#     Node 9, Type 1, BuildingBlock: MIDCAF_clean_sbu_0, # of connection points: 6
#     Node 10, Type 1, BuildingBlock: MIDCAF_clean_sbu_0, # of connection points: 6
#     Node 11, Type 1, BuildingBlock: MIDCAF_clean_sbu_0, # of connection points: 6
#     Edge 12, Type (0, 1), BuildingBlock: TEMPAE_clean_linker_10, # of connection points: 2
#     Edge 13, Type (0, 1), BuildingBlock: TEMPAE_clean_linker_10, # of connection points: 2
#     Edge 14, Type (0, 1), BuildingBlock: TEMPAE_clean_linker_10, # of connection points: 2
#     Edge 15, Type (0, 1), BuildingBlock: TEMPAE_clean_linker_10, # of connection points: 2
#     Edge 16, Type (0, 1), BuildingBlock: TEMPAE_clean_linker_10, # of connection points: 2
#     Edge 17, Type (0, 1), BuildingBlock: TEMPAE_clean_linker_10, # of connection points: 2
#     Edge 18, Type (0, 1), BuildingBlock: TEMPAE_clean_linker_10, # of connection points: 2
#     Edge 19, Type (0, 1), BuildingBlock: TEMPAE_clean_linker_10, # of connection points: 2
#     Edge 20, Type (0, 1), BuildingBlock: TEMPAE_clean_linker_10, # of connection points: 2
#     Edge 21, Type (0, 1), BuildingBlock: TEMPAE_clean_linker_10, # of connection points: 2
#     Edge 22, Type (0, 1), BuildingBlock: TEMPAE_clean_linker_10, # of connection points: 2
#     Edge 23, Type (0, 1), BuildingBlock: TEMPAE_clean_linker_10, # of connection points: 2
#     Edge 24, Type (0, 1), BuildingBlock: TEMPAE_clean_linker_10, # of connection points: 2
#     Edge 25, Type (0, 1), BuildingBlock: TEMPAE_clean_linker_10, # of connection points: 2
#     Edge 26, Type (0, 1), BuildingBlock: TEMPAE_clean_linker_10, # of connection points: 2
#     Edge 27, Type (0, 1), BuildingBlock: TEMPAE_clean_linker_10, # of connection points: 2
#     Edge 28, Type (0, 1), BuildingBlock: TEMPAE_clean_linker_10, # of connection points: 2
#     Edge 29, Type (0, 1), BuildingBlock: TEMPAE_clean_linker_10, # of connection points: 2
#     Edge 30, Type (0, 1), BuildingBlock: TEMPAE_clean_linker_10, # of connection points: 2
#     Edge 31, Type (0, 1), BuildingBlock: TEMPAE_clean_linker_10, # of connection points: 2
#     Edge 32, Type (0, 1), BuildingBlock: TEMPAE_clean_linker_10, # of connection points: 2
#     Edge 33, Type (0, 1), BuildingBlock: TEMPAE_clean_linker_10, # of connection points: 2
#     Edge 34, Type (0, 1), BuildingBlock: TEMPAE_clean_linker_10, # of connection points: 2
#     Edge 35, Type (0, 1), BuildingBlock: TEMPAE_clean_linker_10, # of connection points: 2
# Relax obj value: 0.012
# Max RMSD: 0.061
# Mean RMSD: 0.054
data_MOF--net-apo--node1-MIDCAF_clean_sbu_0--node2-BETDIP_clean_linker_0--edge1-TEMPAE_clean_linker_10
_symmetry_space_group_name_H-M    P1
_symmetry_Int_Tables_number       1
_symmetry_cell_setting            triclinic
loop_
_symmetry_equiv_pos_as_xyz
'x, y, z'
_cell_length_a     37.259635
_cell_length_b     41.748534
_cell_length_c     35.04004
_cell_angle_alpha  89.966216
_cell_angle_beta   89.94869
_cell_angle_gamma 90.161021
loop_
_atom_site_label
_atom_site_type_symbol
_atom_site_fract_x
_atom_site_fract_y
_atom_site_fract_z
_atom_type_partial_charge
H0 H 0.3213 0.28027 0.42977 0.0
H1 H 0.34572 0.33182 0.32616 0.0
H2 H 0.40555 0.35116 0.42767 0.0
H3 H 0.29199 0.31716 0.30837 0.0
C4 C 0.2855 0.29464 0.32223 0.0
C5 C 0.3373 0.29777 0.41442 0.0
C6 C 0.36482 0.31449 0.43343 0.0
C7 C 0.32996 0.30375 0.37571 0.0
C8 C 0.35054 0.32676 0.35596 0.0
C9 C 0.37786 0.34368 0.37463 0.0
C10 C 0.38518 0.33719 0.41306 0.0
N11 N 0.30169 0.28639 0.35773 0.0
H12 H 0.1703 0.2233 0.92201 0.0
H13 H 0.14554 0.17205 0.81824 0.0
H14 H 0.08943 0.14939 0.92112 0.0
H15 H 0.19276 0.19396 0.79471 0.0
C16 C 0.20184 0.21405 0.81172 0.0
C17 C 0.15463 0.20556 0.90672 0.0
C18 C 0.12848 0.1875 0.92624 0.0
C19 C 0.16105 0.20057 0.86759 0.0
C20 C 0.14115 0.17693 0.84813 0.0
C21 C 0.11527 0.15872 0.86741 0.0
C22 C 0.10866 0.16437 0.90612 0.0
N23 N 0.18815 0.2192 0.84923 0.0
H24 H 0.81955 0.21086 0.58729 0.0
H25 H 0.84111 0.15879 0.69124 0.0
H26 H 0.90519 0.14195 0.59212 0.0
H27 H 0.79164 0.17829 0.71233 0.0
C28 C 0.78265 0.19831 0.6952 0.0
C29 C 0.83534 0.19366 0.60319 0.0
C30 C 0.86387 0.17766 0.58519 0.0
C31 C 0.82685 0.18743 0.6416 0.0
C32 C 0.847 0.1645 0.66184 0.0
C33 C 0.87531 0.14829 0.64406 0.0
C34 C 0.88398 0.15531 0.60609 0.0
N35 N 0.79777 0.2044 0.65852 0.0
H36 H 0.69401 0.29417 0.09044 0.0
H37 H 0.66729 0.33499 0.19958 0.0
H38 H 0.60269 0.35693 0.10262 0.0
H39 H 0.72367 0.3235 0.21332 0.0
C40 C 0.72967 0.30138 0.1984 0.0
C41 C 0.67636 0.30877 0.10773 0.0
C42 C 0.64754 0.32538 0.09079 0.0
C43 C 0.68374 0.31185 0.14692 0.0
C44 C 0.6621 0.33191 0.16945 0.0
C45 C 0.63322 0.34834 0.15322 0.0
C46 C 0.62545 0.34428 0.11443 0.0
N47 N 0.71313 0.29459 0.16265 0.0
H48 H 0.69331 0.70313 0.58943 0.0
H49 H 0.67187 0.65853 0.69772 0.0
H50 H 0.60785 0.63375 0.60083 0.0
H51 H 0.69539 0.70386 0.72128 0.0
C52 C 0.71692 0.7095 0.70146 0.0
C53 C 0.67715 0.68702 0.6066 0.0
C54 C 0.64965 0.66868 0.58961 0.0
C55 C 0.68452 0.68442 0.64582 0.0
C56 C 0.66522 0.6622 0.668 0.0
C57 C 0.63771 0.64383 0.65176 0.0
C58 C 0.62949 0.6478 0.61297 0.0
N59 N 0.7126 0.70331 0.66174 0.0
H60 H 0.80724 0.78937 0.08239 0.0
H61 H 0.83277 0.83965 0.18605 0.0
H62 H 0.89535 0.8561 0.08529 0.0
H63 H 0.80756 0.79792 0.2149 0.0
C64 C 0.78662 0.78955 0.19582 0.0
C65 C 0.82426 0.80597 0.09783 0.0
C66 C 0.85129 0.82309 0.07846 0.0
C67 C 0.81848 0.81063 0.13713 0.0
C68 C 0.83898 0.8338 0.15675 0.0
C69 C 0.86632 0.85089 0.13798 0.0
C70 C 0.87314 0.8442 0.09941 0.0
N71 N 0.79067 0.7929 0.15554 0.0
H72 H 0.18454 0.77773 0.43227 0.0
H73 H 0.17077 0.83605 0.33211 0.0
H74 H 0.10743 0.85425 0.43191 0.0
H75 H 0.19345 0.79335 0.30165 0.0
C76 C 0.21313 0.78377 0.32139 0.0
C77 C 0.171 0.79717 0.41774 0.0
C78 C 0.14471 0.81512 0.43698 0.0
C79 C 0.17973 0.80381 0.37951 0.0
C80 C 0.1627 0.82943 0.3607 0.0
C81 C 0.13654 0.8478 0.37945 0.0
C82 C 0.12751 0.84011 0.41731 0.0
N83 N 0.20695 0.7853 0.36149 0.0
H84 H 0.31611 0.70488 0.93523 0.0
H85 H 0.33959 0.66074 0.82719 0.0
H86 H 0.40279 0.63703 0.92496 0.0
H87 H 0.31684 0.70678 0.80359 0.0
C88 C 0.29476 0.71198 0.82284 0.0
C89 C 0.33272 0.6891 0.91825 0.0
C90 C 0.36019 0.6711 0.93562 0.0
C91 C 0.32599 0.68652 0.87889 0.0
C92 C 0.34587 0.66461 0.85698 0.0
C93 C 0.37348 0.64678 0.87366 0.0
C94 C 0.38111 0.65077 0.91253 0.0
N95 N 0.29801 0.70514 0.86252 0.0
Zn96 Zn 0.03691 0.11719 0.31597 0.0
Zn97 Zn 0.97325 0.11643 0.20058 0.0
Zn98 Zn 0.00515 0.11893 0.25819 0.0
C99 C 0.04073 0.13156 0.17836 0.0
C100 C 0.96347 0.05763 0.22821 0.0
O101 O 0.96936 0.14006 0.30245 0.0
O102 O 0.99462 0.11469 0.35048 0.0
C103 C 0.06891 0.16501 0.2762 0.0
O104 O 0.04029 0.14061 0.21352 0.0
O105 O 0.01546 0.11431 0.16591 0.0
O106 O 0.9445 0.07683 0.2092 0.0
O107 O 0.99171 0.06806 0.24546 0.0
O108 O 0.06109 0.1593 0.31057 0.0
O109 O 0.05402 0.14844 0.24956 0.0
O110 O 0.01898 0.06836 0.27174 0.0
O111 O 0.06602 0.07781 0.3081 0.0
C112 C 0.04714 0.05829 0.28933 0.0
O113 O 0.95625 0.1482 0.26658 0.0
O114 O 0.94872 0.15834 0.20544 0.0
C115 C 0.96893 0.13112 0.33766 0.0
C116 C 0.94118 0.16441 0.23978 0.0
Zn117 Zn 0.52978 0.37171 0.70319 0.0
Zn118 Zn 0.46584 0.37129 0.82604 0.0
Zn119 Zn 0.50017 0.37212 0.76416 0.0
C120 C 0.47118 0.43539 0.80674 0.0
C121 C 0.42484 0.3349 0.77847 0.0
O122 O 0.54929 0.34257 0.77093 0.0
O123 O 0.55786 0.33209 0.70986 0.0
C124 C 0.53973 0.43261 0.72662 0.0
O125 O 0.49045 0.42313 0.77987 0.0
O126 O 0.45596 0.41736 0.83075 0.0
O127 O 0.42647 0.3421 0.81331 0.0
O128 O 0.44877 0.3454 0.75492 0.0
O129 O 0.5552 0.41289 0.70493 0.0
O130 O 0.51524 0.42263 0.74988 0.0
O131 O 0.46281 0.35182 0.71949 0.0
O132 O 0.48918 0.37044 0.66766 0.0
C133 C 0.46257 0.35712 0.68318 0.0
O134 O 0.53511 0.3473 0.80777 0.0
O135 O 0.50208 0.35318 0.85966 0.0
C136 C 0.56546 0.32687 0.74435 0.0
C137 C 0.53046 0.34338 0.84402 0.0
Zn138 Zn 0.03896 0.88018 0.8256 0.0
Zn139 Zn 0.97586 0.87305 0.69557 0.0
Zn140 Zn 0.00613 0.87613 0.76212 0.0
C141 C 0.97997 0.93754 0.71206 0.0
C142 C 0.92956 0.84286 0.74649 0.0
O143 O 0.05963 0.85278 0.75617 0.0
O144 O 0.08643 0.86401 0.8108 0.0
C145 C 0.0248 0.94233 0.8073 0.0
O146 O 0.99262 0.92577 0.74335 0.0
O147 O 0.9724 0.91923 0.68456 0.0
O148 O 0.93135 0.85203 0.71226 0.0
O149 O 0.95551 0.84861 0.76985 0.0
O150 O 0.03575 0.92631 0.83545 0.0
O151 O 0.01328 0.92784 0.77715 0.0
O152 O 0.97245 0.85019 0.80565 0.0
O153 O 0.00801 0.85172 0.85594 0.0
C154 C 0.97899 0.84276 0.84073 0.0
O155 O 0.04312 0.8523 0.72043 0.0
O156 O 0.01151 0.8476 0.66729 0.0
C157 C 0.08743 0.85157 0.77805 0.0
C158 C 0.04012 0.84276 0.68555 0.0
Zn159 Zn 0.54006 0.61902 0.20387 0.0
Zn160 Zn 0.46478 0.6204 0.32352 0.0
Zn161 Zn 0.50264 0.62112 0.26363 0.0
C162 C 0.52551 0.65418 0.34408 0.0
C163 C 0.47562 0.55717 0.30957 0.0
O164 O 0.47143 0.64558 0.21691 0.0
O165 O 0.51098 0.64583 0.17004 0.0
C166 C 0.58295 0.65014 0.25538 0.0
O167 O 0.53421 0.6461 0.30972 0.0
O168 O 0.49471 0.64725 0.35662 0.0
O169 O 0.46298 0.57464 0.3356 0.0
O170 O 0.49095 0.57012 0.28026 0.0
O171 O 0.58491 0.63749 0.22282 0.0
O172 O 0.55385 0.64766 0.2752 0.0
O173 O 0.51408 0.56981 0.24857 0.0
O174 O 0.54111 0.57319 0.19259 0.0
C175 C 0.52887 0.55627 0.2194 0.0
O176 O 0.45145 0.64705 0.25099 0.0
O177 O 0.42031 0.63897 0.30392 0.0
C178 C 0.48034 0.65326 0.18245 0.0
C179 C 0.42239 0.65031 0.27068 0.0
C180 C 0.11336 0.90407 0.38161 0.0
C181 C 0.11987 0.87611 0.36052 0.0
C182 C 0.09807 0.93114 0.36466 0.0
C183 C 0.0899 0.9308 0.32522 0.0
C184 C 0.09613 0.90272 0.30361 0.0
C185 C 0.11081 0.87559 0.32158 0.0
C186 C 0.09162 0.96052 0.3889 0.0
C187 C 0.088 0.9016 0.26144 0.0
C188 C 0.03079 0.00075 0.29777 0.0
C189 C 0.05678 0.02414 0.29006 0.0
C190 C 0.04086 0.96907 0.30598 0.0
C191 C 0.07778 0.96095 0.30669 0.0
C192 C 0.10378 0.98401 0.29578 0.0
C193 C 0.09296 0.01544 0.28799 0.0
C194 C 0.01221 0.94524 0.31712 0.0
C195 C 0.14334 0.97624 0.29532 0.0
H196 H 0.12097 0.90516 0.41142 0.0
H197 H 0.11527 0.85401 0.30511 0.0
H198 H 0.10952 0.98025 0.37938 0.0
H199 H 0.06354 0.96883 0.38552 0.0
H200 H 0.09667 0.95599 0.41967 0.0
H201 H 0.09362 0.87772 0.24884 0.0
H202 H 0.05942 0.90757 0.25635 0.0
H203 H 0.10436 0.91983 0.24623 0.0
H204 H 0.00283 0.00766 0.29987 0.0
H205 H 0.11301 0.03361 0.28181 0.0
H206 H 0.01154 0.94302 0.34868 0.0
H207 H 0.01801 0.9212 0.30525 0.0
H208 H 0.98522 0.95289 0.30724 0.0
H209 H 0.15326 0.97424 0.32508 0.0
H210 H 0.15931 0.99499 0.28047 0.0
H211 H 0.14814 0.9529 0.2811 0.0
C212 C 0.42953 0.62002 0.85068 0.0
C213 C 0.39198 0.62134 0.85186 0.0
C214 C 0.44714 0.59302 0.83589 0.0
C215 C 0.42663 0.56652 0.82311 0.0
C216 C 0.38871 0.56882 0.82178 0.0
C217 C 0.37185 0.59636 0.83591 0.0
C218 C 0.4876 0.59214 0.83565 0.0
C219 C 0.36577 0.54107 0.80868 0.0
C220 C 0.4637 0.49032 0.77829 0.0
C221 C 0.46555 0.47028 0.81033 0.0
C222 C 0.45337 0.52259 0.78203 0.0
C223 C 0.44378 0.5346 0.81847 0.0
C224 C 0.44721 0.51472 0.851 0.0
C225 C 0.45825 0.48297 0.84651 0.0
C226 C 0.45097 0.54308 0.74671 0.0
C227 C 0.4373 0.52638 0.89047 0.0
H228 H 0.44504 0.63965 0.86253 0.0
H229 H 0.34279 0.59741 0.83693 0.0
H230 H 0.49737 0.57253 0.8543 0.0
H231 H 0.49717 0.58709 0.80629 0.0
H232 H 0.49966 0.61507 0.84544 0.0
H233 H 0.33707 0.54779 0.80579 0.0
H234 H 0.37544 0.5319 0.78084 0.0
H235 H 0.36779 0.52121 0.82964 0.0
H236 H 0.46895 0.48052 0.7502 0.0
H237 H 0.45994 0.46762 0.87141 0.0
H238 H 0.45776 0.56843 0.75297 0.0
H239 H 0.42311 0.54233 0.73561 0.0
H240 H 0.46909 0.53412 0.72391 0.0
H241 H 0.45282 0.54827 0.89762 0.0
H242 H 0.44242 0.50809 0.91285 0.0
H243 H 0.40841 0.53275 0.89128 0.0
C244 C 0.5822 0.61494 0.67336 0.0
C245 C 0.61963 0.61831 0.67419 0.0
C246 C 0.56546 0.5879 0.68934 0.0
C247 C 0.58673 0.56347 0.70579 0.0
C248 C 0.62425 0.56806 0.70937 0.0
C249 C 0.64025 0.5955 0.69362 0.0
C250 C 0.52522 0.58457 0.68685 0.0
C251 C 0.64791 0.54269 0.72681 0.0
C252 C 0.54803 0.48839 0.75284 0.0
C253 C 0.54874 0.46691 0.72217 0.0
C254 C 0.55875 0.52053 0.7479 0.0
C255 C 0.57131 0.53092 0.7117 0.0
C256 C 0.57136 0.5093 0.68061 0.0
C257 C 0.55996 0.47775 0.68622 0.0
C258 C 0.55789 0.54272 0.78179 0.0
C259 C 0.58447 0.51919 0.64145 0.0
H260 H 0.56617 0.63295 0.65907 0.0
H261 H 0.66921 0.59805 0.69431 0.0
H262 H 0.51807 0.56377 0.66865 0.0
H263 H 0.51414 0.57998 0.71572 0.0
H264 H 0.51231 0.60634 0.67492 0.0
H265 H 0.6757 0.55148 0.73169 0.0
H266 H 0.63658 0.53441 0.75439 0.0
H267 H 0.6491 0.52167 0.70747 0.0
H268 H 0.54009 0.47993 0.78085 0.0
H269 H 0.56028 0.46129 0.66229 0.0
H270 H 0.55221 0.56775 0.77312 0.0
H271 H 0.58445 0.54238 0.79606 0.0
H272 H 0.53741 0.53493 0.80295 0.0
H273 H 0.56866 0.53984 0.63087 0.0
H274 H 0.58237 0.49948 0.62027 0.0
H275 H 0.61295 0.52692 0.64307 0.0
C276 C 0.89526 0.87608 0.19606 0.0
C277 C 0.88588 0.87763 0.15725 0.0
C278 C 0.91166 0.90231 0.21444 0.0
C279 C 0.91907 0.93054 0.19342 0.0
C280 C 0.91092 0.93173 0.15401 0.0
C281 C 0.89407 0.90556 0.13664 0.0
C282 C 0.91982 0.90025 0.25655 0.0
C283 C 0.9186 0.96126 0.13033 0.0
C284 C 0.91736 0.0149 0.23098 0.0
C285 C 0.9536 0.02347 0.22839 0.0
C286 C 0.90611 0.98349 0.22358 0.0
C287 C 0.93175 0.96028 0.21258 0.0
C288 C 0.96878 0.9682 0.21312 0.0
C289 C 0.97929 -0.0001 0.22088 0.0
C290 C 0.86644 0.97599 0.22414 0.0
C291 C 0.99707 0.94415 0.20208 0.0
H292 H 0.88948 0.85452 0.21219 0.0
H293 H 0.88626 0.90752 0.10695 0.0
H294 H 0.94768 0.90832 0.26234 0.0
H295 H 0.90161 0.91644 0.27247 0.0
H296 H 0.91634 0.87555 0.2678 0.0
H297 H 0.91364 0.95725 0.09944 0.0
H298 H 0.90127 0.98125 0.14002 0.0
H299 H 0.94691 0.96891 0.13408 0.0
H300 H 0.89755 0.0332 0.23706 0.0
H301 H 0.00731 0.00668 0.21848 0.0
H302 H 0.86131 0.95259 0.23816 0.0
H303 H 0.85639 0.97431 0.1944 0.0
H304 H 0.85082 0.99476 0.23921 0.0
H305 H 0.99079 0.92014 0.21392 0.0
H306 H 0.02413 0.95158 0.2121 0.0
H307 H 0.99784 0.94198 0.17053 0.0
C308 C 0.87335 0.09403 0.67294 0.0
C309 C 0.89328 0.12136 0.6635 0.0
C310 C 0.89039 0.06623 0.68601 0.0
C311 C 0.92817 0.0661 0.69054 0.0
C312 C 0.94805 0.0945 0.68376 0.0
C313 C 0.93042 0.12172 0.66955 0.0
C314 C 0.8682 0.03643 0.69271 0.0
C315 C 0.988 0.09574 0.69045 0.0
C316 C 0.96191 0.99068 0.73942 0.0
C317 C 0.97196 0.97206 0.70794 0.0
C318 C 0.9504 0.02248 0.73468 0.0
C319 C 0.94691 0.03519 0.69736 0.0
C320 C 0.95781 0.01667 0.66558 0.0
C321 C 0.97061 0.98554 0.67134 0.0
C322 C 0.94032 0.04151 0.76964 0.0
C323 C 0.95387 0.02892 0.6252 0.0
H324 H 0.84461 0.09389 0.66807 0.0
H325 H 0.94567 0.14308 0.66253 0.0
H326 H 0.87655 0.01741 0.67246 0.0
H327 H 0.87279 0.02724 0.72199 0.0
H328 H 0.83901 0.04081 0.68897 0.0
H329 H 0.99888 0.12046 0.68797 0.0
H330 H 0.99421 0.08632 0.71928 0.0
H331 H 0.00197 0.08026 0.66948 0.0
H332 H 0.96189 0.98016 0.76769 0.0
H333 H 0.97826 0.97122 0.64686 0.0
H334 H 0.91209 0.03605 0.77742 0.0
H335 H 0.94276 0.06769 0.76484 0.0
H336 H 0.95747 0.03475 0.79429 0.0
H337 H 0.92508 0.03317 0.61891 0.0
H338 H 0.96459 0.01185 0.60375 0.0
H339 H 0.96809 0.05211 0.62184 0.0
C340 C 0.63315 0.40062 0.18652 0.0
C341 C 0.61419 0.3733 0.17513 0.0
C342 C 0.61507 0.42756 0.20048 0.0
C343 C 0.57719 0.42678 0.20395 0.0
C344 C 0.55832 0.39808 0.1959 0.0
C345 C 0.57699 0.37177 0.18071 0.0
C346 C 0.63628 0.45768 0.20857 0.0
C347 C 0.51829 0.39576 0.20177 0.0
C348 C 0.54209 0.50302 0.24952 0.0
C349 C 0.5341 0.52126 0.21706 0.0
C350 C 0.55284 0.47088 0.24616 0.0
C351 C 0.55748 0.45739 0.20937 0.0
C352 C 0.54786 0.47537 0.17667 0.0
C353 C 0.53589 0.50688 0.18101 0.0
C354 C 0.56124 0.45237 0.282 0.0
C355 C 0.5529 0.4623 0.13679 0.0
H356 H 0.66194 0.40167 0.18204 0.0
H357 H 0.56249 0.3504 0.17221 0.0
H358 H 0.62839 0.47672 0.18813 0.0
H359 H 0.63026 0.46651 0.2377 0.0
H360 H 0.66569 0.45385 0.20614 0.0
H361 H 0.50831 0.37079 0.19876 0.0
H362 H 0.51115 0.40474 0.23058 0.0
H363 H 0.50424 0.41104 0.18067 0.0
H364 H 0.54141 0.51418 0.27743 0.0
H365 H 0.52967 0.52093 0.15584 0.0
H366 H 0.58907 0.45794 0.29112 0.0
H367 H 0.55894 0.42613 0.27767 0.0
H368 H 0.54297 0.45957 0.30555 0.0
H369 H 0.58186 0.45796 0.13146 0.0
H370 H 0.54279 0.47894 0.11453 0.0
H371 H 0.53876 0.43906 0.13366 0.0
C372 C 0.37587 0.39737 0.34431 0.0
C373 C 0.39605 0.37076 0.35544 0.0
C374 C 0.39274 0.42537 0.33128 0.0
C375 C 0.43067 0.42644 0.32854 0.0
C376 C 0.45095 0.39867 0.33693 0.0
C377 C 0.43342 0.37125 0.35105 0.0
C378 C 0.37008 0.45446 0.32287 0.0
C379 C 0.49117 0.39837 0.33203 0.0
C380 C 0.46346 0.50302 0.28113 0.0
C381 C 0.47055 0.52217 0.31308 0.0
C382 C 0.45358 0.47067 0.28538 0.0
C383 C 0.44882 0.45784 0.32252 0.0
C384 C 0.45723 0.47685 0.35477 0.0
C385 C 0.46837 0.50859 0.34959 0.0
C386 C 0.44635 0.45111 0.25004 0.0
C387 C 0.45205 0.46445 0.39495 0.0
H388 H 0.34695 0.39686 0.34783 0.0
H389 H 0.44888 0.3504 0.35929 0.0
H390 H 0.37677 0.47387 0.34332 0.0
H391 H 0.37596 0.46353 0.29377 0.0
H392 H 0.34088 0.44927 0.32496 0.0
H393 H 0.5027 0.37418 0.33673 0.0
H394 H 0.49821 0.40651 0.30282 0.0
H395 H 0.50382 0.41533 0.35236 0.0
H396 H 0.46429 0.51356 0.25288 0.0
H397 H 0.47382 0.52335 0.37439 0.0
H398 H 0.41819 0.45491 0.24088 0.0
H399 H 0.4503 0.42512 0.25511 0.0
H400 H 0.46412 0.45882 0.22623 0.0
H401 H 0.42318 0.45926 0.39993 0.0
H402 H 0.46124 0.48187 0.41685 0.0
H403 H 0.46693 0.44175 0.399 0.0
C404 C 0.11932 0.10357 0.84205 0.0
C405 C 0.09854 0.13082 0.84871 0.0
C406 C 0.10342 0.07499 0.82962 0.0
C407 C 0.06593 0.07395 0.82297 0.0
C408 C 0.04527 0.10218 0.82704 0.0
C409 C 0.06176 0.13027 0.84063 0.0
C410 C 0.12642 0.04542 0.8259 0.0
C411 C 0.00568 0.10234 0.81814 0.0
C412 C 0.0381 0.99546 0.777 0.0
C413 C 0.02825 0.97754 0.80918 0.0
C414 C 0.04726 0.02803 0.78032 0.0
C415 C 0.04817 0.04241 0.81693 0.0
C416 C 0.03663 0.02472 0.8492 0.0
C417 C 0.02648 0.99264 0.84481 0.0
C418 C 0.0582 0.04605 0.74484 0.0
C419 C 0.03772 0.03882 0.88891 0.0
H420 H 0.14778 0.10422 0.84848 0.0
H421 H 0.04589 0.1516 0.84561 0.0
H422 H 0.11735 0.02702 0.84669 0.0
H423 H 0.12352 0.03505 0.79694 0.0
H424 H 0.15529 0.05052 0.83107 0.0
H425 H 0.99424 0.12687 0.81888 0.0
H426 H 0.00103 0.09189 0.78947 0.0
H427 H 0.991 0.08721 0.83902 0.0
H428 H 0.04019 0.98376 0.74948 0.0
H429 H 0.01887 0.97881 0.86977 0.0
H430 H 0.08701 0.04155 0.73897 0.0
H431 H 0.05428 0.07225 0.7479 0.0
H432 H 0.04267 0.0375 0.71975 0.0
H433 H 0.06598 0.04385 0.89698 0.0
H434 H 0.02588 0.02248 0.9106 0.0
H435 H 0.02302 0.06185 0.88977 0.0
C436 C 0.15208 0.18646 0.99333 0.0
C437 C 0.12318 0.19041 0.96813 0.0
C438 C 0.14615 0.18192 0.03268 0.0
C439 C 0.11055 0.18135 0.04692 0.0
C440 C 0.08169 0.18841 0.02199 0.0
C441 C 0.08835 0.19268 0.98292 0.0
C442 C 0.17772 0.17505 0.05829 0.0
C443 C 0.04332 0.18866 0.03593 0.0
C444 C 0.07744 0.12256 0.12059 0.0
C445 C 0.06796 0.14284 0.15076 0.0
C446 C 0.09466 0.13445 0.088 0.0
C447 C 0.10235 0.16762 0.0853 0.0
C448 C 0.09629 0.18762 0.11739 0.0
C449 C 0.07907 0.17493 0.14994 0.0
C450 C 0.10133 0.11196 0.05499 0.0
C451 C 0.10491 0.2229 0.11625 0.0
H452 H 0.17908 0.18468 0.98199 0.0
H453 H 0.06603 0.19616 0.96352 0.0
H454 H 0.1742 0.1864 0.08667 0.0
H455 H 0.17984 0.14882 0.0628 0.0
H456 H 0.2033 0.18364 0.04551 0.0
H457 H 0.02459 0.19838 0.01418 0.0
H458 H 0.03482 0.16385 0.04298 0.0
H459 H 0.04094 0.20319 0.06229 0.0
H460 H 0.06924 0.09761 0.12144 0.0
H461 H 0.07176 0.19068 0.17326 0.0
H462 H 0.1288 0.11537 0.04346 0.0
H463 H 0.0821 0.11726 0.03166 0.0
H464 H 0.098 0.08644 0.06334 0.0
H465 H 0.12956 0.2277 0.09938 0.0
H466 H 0.10848 0.23276 0.14546 0.0
H467 H 0.0824 0.23583 0.10246 0.0
C468 C 0.34293 0.31265 0.50137 0.0
C469 C 0.37126 0.31035 0.47506 0.0
C470 C 0.34974 0.31513 0.54081 0.0
C471 C 0.38565 0.31541 0.55405 0.0
C472 C 0.41402 0.31021 0.52778 0.0
C473 C 0.40647 0.30782 0.48869 0.0
C474 C 0.31867 0.31998 0.5678 0.0
C475 C 0.45273 0.30982 0.54054 0.0
C476 C 0.42098 0.36981 0.63085 0.0
C477 C 0.4325 0.34773 0.65826 0.0
C478 C 0.40198 0.35986 0.59852 0.0
C479 C 0.39463 0.32686 0.59326 0.0
C480 C 0.40245 0.30498 0.62313 0.0
C481 C 0.42146 0.31572 0.6555 0.0
C482 C 0.39348 0.38429 0.56803 0.0
C483 C 0.39401 0.2698 0.61938 0.0
H484 H 0.31562 0.31457 0.49101 0.0
H485 H 0.42836 0.30545 0.46849 0.0
H486 H 0.32337 0.30766 0.5954 0.0
H487 H 0.31564 0.34592 0.57379 0.0
H488 H 0.2931 0.31111 0.55534 0.0
H489 H 0.47116 0.30203 0.51741 0.0
H490 H 0.46081 0.33422 0.54977 0.0
H491 H 0.45612 0.29355 0.5653 0.0
H492 H 0.42936 0.39464 0.63324 0.0
H493 H 0.43039 0.29863 0.67675 0.0
H494 H 0.36568 0.38106 0.55743 0.0
H495 H 0.41193 0.38097 0.54347 0.0
H496 H 0.39652 0.40924 0.57861 0.0
H497 H 0.36858 0.26588 0.6036 0.0
H498 H 0.39198 0.25812 0.64781 0.0
H499 H 0.41587 0.25795 0.6032 0.0
C500 C 0.64774 0.29657 0.02688 0.0
C501 C 0.64083 0.32424 0.04857 0.0
C502 C 0.63851 0.29495 0.98792 0.0
C503 C 0.6205 0.32102 0.9706 0.0
C504 C 0.61518 0.34952 0.99175 0.0
C505 C 0.62631 0.35104 0.02989 0.0
C506 C 0.6466 0.26466 0.96615 0.0
C507 C 0.59548 0.37786 0.97501 0.0
C508 C 0.59368 0.33756 0.86808 0.0
C509 C 0.55746 0.32857 0.86935 0.0
C510 C 0.61639 0.33158 0.89949 0.0
C511 C 0.60199 0.31745 0.93305 0.0
C512 C 0.56646 0.3054 0.93259 0.0
C513 C 0.54488 0.31075 0.90057 0.0
C514 C 0.65496 0.34249 0.89793 0.0
C515 C 0.54977 0.2901 0.96746 0.0
H516 H 0.65923 0.27567 0.04045 0.0
H517 H 0.62256 0.37322 0.04538 0.0
H518 H 0.62459 0.24712 0.97071 0.0
H519 H 0.64925 0.26912 0.93504 0.0
H520 H 0.67177 0.25353 0.97667 0.0
H521 H 0.59369 0.39827 0.99525 0.0
H522 H 0.60912 0.38631 0.94874 0.0
H523 H 0.56781 0.3706 0.96696 0.0
H524 H 0.60343 0.35158 0.84422 0.0
H525 H 0.51694 0.30339 0.90135 0.0
H526 H 0.67279 0.3236 0.90957 0.0
H527 H 0.65856 0.36415 0.91583 0.0
H528 H 0.6635 0.34834 0.86836 0.0
H529 H 0.56674 0.27016 0.97782 0.0
H530 H 0.52242 0.28059 0.96173 0.0
H531 H 0.54792 0.30803 0.99076 0.0
C532 C 0.90698 0.18688 0.53179 0.0
C533 C 0.87158 0.18196 0.54393 0.0
C534 C 0.91637 0.18402 0.49319 0.0
C535 C 0.88976 0.17563 0.46607 0.0
C536 C 0.85339 0.17358 0.47767 0.0
C537 C 0.84468 0.1768 0.51659 0.0
C538 C 0.95539 0.18711 0.48205 0.0
C539 C 0.82412 0.16524 0.44965 0.0
C540 C 0.92744 0.17235 0.3652 0.0
C541 C 0.94054 0.14093 0.36461 0.0
C542 C 0.90775 0.18364 0.3968 0.0
C543 C 0.90138 0.16296 0.42824 0.0
C544 C 0.91155 0.13036 0.42574 0.0
C545 C 0.93111 0.11985 0.39406 0.0
C546 C 0.89658 0.21831 0.39769 0.0
C547 C 0.90471 0.10715 0.45807 0.0
H548 H 0.92771 0.19132 0.55286 0.0
H549 H 0.81724 0.173 0.5259 0.0
H550 H 0.96631 0.16305 0.47533 0.0
H551 H 0.95824 0.20214 0.45611 0.0
H552 H 0.97185 0.19778 0.50524 0.0
H553 H 0.79718 0.17174 0.46079 0.0
H554 H 0.82848 0.17751 0.42193 0.0
H555 H 0.82442 0.13906 0.44424 0.0
H556 H 0.9348 0.18873 0.34246 0.0
H557 H 0.94088 0.0954 0.39336 0.0
H558 H 0.91758 0.23252 0.41248 0.0
H559 H 0.87101 0.22151 0.41345 0.0
H560 H 0.89347 0.22808 0.36837 0.0
H561 H 0.92197 0.11352 0.48274 0.0
H562 H 0.91056 0.08201 0.44982 0.0
H563 H 0.87639 0.10856 0.46766 0.0
C564 C 0.85561 0.7907 0.01738 0.0
C565 C 0.85693 0.82032 0.03634 0.0
C566 C 0.86677 0.78798 0.97903 0.0
C567 C 0.88071 0.81523 0.95984 0.0
C568 C 0.87896 0.84556 0.97783 0.0
C569 C 0.86637 0.84775 0.01537 0.0
C570 C 0.86551 0.75557 0.96011 0.0
C571 C 0.89327 0.87547 0.95874 0.0
C572 C 0.96425 0.81272 0.8998 0.0
C573 C 0.95224 0.82669 0.86572 0.0
C574 C 0.9405 0.80585 0.92967 0.0
C575 C 0.9034 0.81193 0.92492 0.0
C576 C 0.89051 0.82155 0.8886 0.0
C577 C 0.91521 0.82971 0.85966 0.0
C578 C 0.95578 0.79547 0.96765 0.0
C579 C 0.85098 0.82567 0.881 0.0
H580 H 0.8476 0.76938 0.03288 0.0
H581 H 0.86572 0.87102 0.02908 0.0
H582 H 0.86376 0.75762 0.92857 0.0
H583 H 0.89012 0.74201 0.96738 0.0
H584 H 0.84218 0.74147 0.97062 0.0
H585 H 0.88967 0.8972 0.97662 0.0
H586 H 0.92234 0.87267 0.95264 0.0
H587 H 0.87945 0.8794 0.93116 0.0
H588 H 0.99281 0.80957 0.90439 0.0
H589 H 0.90554 0.84061 0.83364 0.0
H590 H 0.94211 0.77346 0.9778 0.0
H591 H 0.95119 0.81447 0.98925 0.0
H592 H 0.98506 0.79065 0.96612 0.0
H593 H 0.83448 0.8099 0.8996 0.0
H594 H 0.84469 0.82028 0.85066 0.0
H595 H 0.84327 0.85089 0.88646 0.0
C596 C 0.63014 0.64329 0.52792 0.0
C597 C 0.64186 0.67065 0.5477 0.0
C598 C 0.61759 0.64522 0.49028 0.0
C599 C 0.61811 0.67503 0.47098 0.0
C600 C 0.6334 0.70207 0.48925 0.0
C601 C 0.64447 0.69975 0.52761 0.0
C602 C 0.60151 0.61564 0.47214 0.0
C603 C 0.63646 0.73388 0.46904 0.0
C604 C 0.58863 0.66282 0.36819 0.0
C605 C 0.5516 0.66801 0.37161 0.0
C606 C 0.61182 0.66859 0.39925 0.0
C607 C 0.5973 0.67845 0.4348 0.0
C608 C 0.56047 0.68643 0.43714 0.0
C609 C 0.53833 0.68167 0.40537 0.0
C610 C 0.6513 0.66179 0.3946 0.0
C611 C 0.54349 0.69683 0.4743 0.0
H612 H 0.62962 0.62031 0.54227 0.0
H613 H 0.65378 0.7211 0.54214 0.0
H614 H 0.57264 0.61973 0.4661 0.0
H615 H 0.61494 0.61057 0.44458 0.0
H616 H 0.60391 0.59414 0.49066 0.0
H617 H 0.65771 0.7491 0.48198 0.0
H618 H 0.64251 0.73057 0.43827 0.0
H619 H 0.61065 0.74689 0.47134 0.0
H620 H 0.59923 0.65216 0.34243 0.0
H621 H 0.50983 0.68637 0.40807 0.0
H622 H 0.65668 0.63651 0.40244 0.0
H623 H 0.66779 0.67742 0.4133 0.0
H624 H 0.6599 0.66527 0.3645 0.0
H625 H 0.54477 0.67689 0.49522 0.0
H626 H 0.51495 0.70385 0.47075 0.0
H627 H 0.55834 0.71739 0.48661 0.0
C628 C 0.37829 0.6451 0.99731 0.0
C629 C 0.36708 0.67267 0.9777 0.0
C630 C 0.39017 0.64662 0.0352 0.0
C631 C 0.38951 0.67624 0.05487 0.0
C632 C 0.37465 0.70346 0.03671 0.0
C633 C 0.3642 0.70154 0.99812 0.0
C634 C 0.40577 0.61685 0.05322 0.0
C635 C 0.37144 0.73506 0.05727 0.0
C636 C 0.41761 0.66247 0.15771 0.0
C637 C 0.45474 0.66754 0.15485 0.0
C638 C 0.39483 0.66889 0.12654 0.0
C639 C 0.40986 0.67926 0.0914 0.0
C640 C 0.4468 0.68712 0.08968 0.0
C641 C 0.46854 0.68169 0.12157 0.0
C642 C 0.35522 0.6622 0.13056 0.0
C643 C 0.4643 0.69808 0.05297 0.0
H644 H 0.37898 0.62229 0.98261 0.0
H645 H 0.3552 0.72301 0.98367 0.0
H646 H 0.43458 0.62086 0.0598 0.0
H647 H 0.39189 0.6115 0.08049 0.0
H648 H 0.4035 0.59554 0.03439 0.0
H649 H 0.35033 0.75031 0.04429 0.0
H650 H 0.36512 0.73144 0.08795 0.0
H651 H 0.39729 0.7482 0.05537 0.0
H652 H 0.40663 0.65134 0.18306 0.0
H653 H 0.49713 0.68628 0.11934 0.0
H654 H 0.34965 0.63704 0.12229 0.0
H655 H 0.33912 0.67812 0.1119 0.0
H656 H 0.34632 0.66538 0.16061 0.0
H657 H 0.46316 0.67844 0.03164 0.0
H658 H 0.49283 0.70504 0.05706 0.0
H659 H 0.44972 0.71881 0.04085 0.0
C660 C 0.10004 0.81247 0.49037 0.0
C661 C 0.13564 0.80921 0.47794 0.0
C662 C 0.09141 0.81301 0.52927 0.0
C663 C 0.11887 0.80893 0.55681 0.0
C664 C 0.15439 0.80262 0.54451 0.0
C665 C 0.16248 0.80329 0.5052 0.0
C666 C 0.05308 0.81987 0.54081 0.0
C667 C 0.18425 0.79675 0.57267 0.0
C668 C 0.09256 0.85421 0.64535 0.0
C669 C 0.07117 0.83133 0.66367 0.0
C670 C 0.11188 0.84637 0.61227 0.0
C671 C 0.11021 0.81468 0.59784 0.0
C672 C 0.09286 0.79056 0.61961 0.0
C673 C 0.07269 0.79933 0.6519 0.0
C674 C 0.13004 0.87292 0.5902 0.0
C675 C 0.09238 0.75614 0.60665 0.0
H676 H 0.07889 0.8159 0.46955 0.0
H677 H 0.1901 0.80059 0.49605 0.0
H678 H 0.04259 0.80025 0.55905 0.0
H679 H 0.052 0.84229 0.55778 0.0
H680 H 0.03499 0.82251 0.51583 0.0
H681 H 0.20619 0.7825 0.5596 0.0
H682 H 0.19576 0.82003 0.58183 0.0
H683 H 0.17436 0.78406 0.59848 0.0
H684 H 0.09096 0.87902 0.65436 0.0
H685 H 0.056 0.78165 0.6661 0.0
H686 H 0.11408 0.8784 0.56428 0.0
H687 H 0.15713 0.86543 0.58073 0.0
H688 H 0.13265 0.89518 0.60735 0.0
H689 H 0.07114 0.75285 0.58483 0.0
H690 H 0.08661 0.73964 0.63079 0.0
H691 H 0.11843 0.74944 0.59354 0.0
C692 C 0.24654 0.2456 0.32222 0.0
C693 C 0.25579 0.27524 0.30623 0.0
C694 C 0.2166 0.22845 0.30899 0.0
C695 C 0.19529 0.24137 0.27925 0.0
C696 C 0.20563 0.2705 0.2617 0.0
C697 C 0.23585 0.28708 0.2754 0.0
C698 C 0.20672 0.19726 0.32824 0.0
C699 C 0.18372 0.28501 0.2299 0.0
C700 C 0.12502 0.18272 0.24303 0.0
C701 C 0.09699 0.18905 0.26855 0.0
C702 C 0.15664 0.20125 0.24386 0.0
C703 C 0.15984 0.22652 0.27071 0.0
C704 C 0.13002 0.23484 0.29365 0.0
C705 C 0.09906 0.21588 0.2924 0.0
C706 C 0.18756 0.19192 0.21843 0.0
C707 C 0.13185 0.262 0.32207 0.0
H708 H 0.26215 0.23608 0.34568 0.0
H709 H 0.2432 0.30991 0.26278 0.0
H710 H 0.18143 0.20034 0.34457 0.0
H711 H 0.20196 0.17834 0.3066 0.0
H712 H 0.2279 0.18894 0.34819 0.0
H713 H 0.19824 0.30485 0.21537 0.0
H714 H 0.17649 0.26657 0.20842 0.0
H715 H 0.15832 0.29461 0.24175 0.0
H716 H 0.12344 0.16187 0.22467 0.0
H717 H 0.07713 0.22092 0.31187 0.0
H718 H 0.2068 0.17726 0.23507 0.0
H719 H 0.20216 0.21336 0.20786 0.0
H720 H 0.17835 0.17755 0.19359 0.0
H721 H 0.14987 0.25524 0.34594 0.0
H722 H 0.10506 0.26786 0.33411 0.0
H723 H 0.14315 0.28384 0.30857 0.0
C724 C 0.24454 0.26033 0.81664 0.0
C725 C 0.23235 0.23322 0.797 0.0
C726 C 0.27536 0.27682 0.80454 0.0
C727 C 0.29458 0.26578 0.7722 0.0
C728 C 0.28126 0.23946 0.75106 0.0
C729 C 0.25019 0.2235 0.76371 0.0
C730 C 0.28843 0.30506 0.82766 0.0
C731 C 0.30087 0.22702 0.71642 0.0
C732 C 0.36823 0.32377 0.74298 0.0
C733 C 0.39603 0.31312 0.76655 0.0
C734 C 0.33547 0.30693 0.7416 0.0
C735 C 0.33093 0.27907 0.76435 0.0
C736 C 0.36049 0.26662 0.78484 0.0
C737 C 0.3926 0.28398 0.7859 0.0
C738 C 0.30488 0.32066 0.71878 0.0
C739 C 0.35721 0.23667 0.80883 0.0
H740 H 0.23056 0.26826 0.84205 0.0
H741 H 0.24058 0.20266 0.74831 0.0
H742 H 0.31386 0.29869 0.84227 0.0
H743 H 0.29413 0.32576 0.80871 0.0
H744 H 0.26864 0.31255 0.84962 0.0
H745 H 0.28405 0.21022 0.69952 0.0
H746 H 0.30955 0.24706 0.69772 0.0
H747 H 0.32539 0.21416 0.72567 0.0
H748 H 0.37099 0.34648 0.72822 0.0
H749 H 0.41433 0.27589 0.80408 0.0
H750 H 0.28711 0.33451 0.73808 0.0
H751 H 0.2885 0.30142 0.70556 0.0
H752 H 0.31472 0.33702 0.696 0.0
H753 H 0.34054 0.2418 0.83436 0.0
H754 H 0.38378 0.22787 0.81862 0.0
H755 H 0.34374 0.21729 0.79258 0.0
C756 C 0.73548 0.20889 0.74407 0.0
C757 C 0.75205 0.2174 0.70956 0.0
C758 C 0.70525 0.22552 0.75745 0.0
C759 C 0.69137 0.25122 0.73572 0.0
C760 C 0.70875 0.26052 0.70143 0.0
C761 C 0.73888 0.24349 0.68876 0.0
C762 C 0.68747 0.21489 0.79407 0.0
C763 C 0.69483 0.28786 0.67742 0.0
C764 C 0.59356 0.27428 0.73368 0.0
C765 C 0.59429 0.3039 0.75232 0.0
C766 C 0.62451 0.25549 0.73083 0.0
C767 C 0.65706 0.26689 0.74667 0.0
C768 C 0.65721 0.29562 0.76823 0.0
C769 C 0.62566 0.31392 0.77074 0.0
C770 C 0.62303 0.22492 0.70784 0.0
C771 C 0.69133 0.30838 0.78576 0.0
H772 H 0.74577 0.18878 0.76026 0.0
H773 H 0.75171 0.25036 0.66221 0.0
H774 H 0.68286 0.23571 0.8131 0.0
H775 H 0.66084 0.20426 0.7876 0.0
H776 H 0.7037 0.19683 0.80962 0.0
H777 H 0.71265 0.2933 0.6528 0.0
H778 H 0.66776 0.2818 0.66634 0.0
H779 H 0.69212 0.3098 0.69504 0.0
H780 H 0.56925 0.26678 0.71915 0.0
H781 H 0.62644 0.33729 0.7841 0.0
H782 H 0.63695 0.20525 0.72305 0.0
H783 H 0.63705 0.22862 0.68021 0.0
H784 H 0.59501 0.21731 0.70183 0.0
H785 H 0.70495 0.28936 0.8024 0.0
H786 H 0.68626 0.32918 0.80474 0.0
H787 H 0.71003 0.31604 0.76282 0.0
C788 C 0.77971 0.29159 0.24413 0.0
C789 C 0.75882 0.28091 0.21337 0.0
C790 C 0.80929 0.27379 0.25701 0.0
C791 C 0.81793 0.24459 0.23873 0.0
C792 C 0.79562 0.23287 0.20908 0.0
C793 C 0.76642 0.25124 0.19663 0.0
C794 C 0.83232 0.28704 0.28873 0.0
C795 C 0.80363 0.20161 0.18916 0.0
C796 C 0.91264 0.21593 0.22379 0.0
C797 C 0.91377 0.1889 0.2474 0.0
C798 C 0.88259 0.2359 0.22319 0.0
C799 C 0.85268 0.22837 0.24648 0.0
C800 C 0.85495 0.2027 0.27291 0.0
C801 C 0.88567 0.18315 0.27307 0.0
C802 C 0.88176 0.26344 0.1952 0.0
C803 C 0.82395 0.19415 0.2987 0.0
H804 H 0.77362 0.31442 0.25733 0.0
H805 H 0.75002 0.24261 0.17326 0.0
H806 H 0.83874 0.26809 0.30983 0.0
H807 H 0.85812 0.29576 0.27669 0.0
H808 H 0.8191 0.30726 0.30373 0.0
H809 H 0.78179 0.19434 0.16939 0.0
H810 H 0.82885 0.20399 0.17251 0.0
H811 H 0.80767 0.18225 0.21042 0.0
H812 H 0.93462 0.22049 0.20417 0.0
H813 H 0.88648 0.16207 0.29115 0.0
H814 H 0.87179 0.2855 0.20923 0.0
H815 H 0.86307 0.25762 0.17153 0.0
H816 H 0.90865 0.26848 0.18281 0.0
H817 H 0.81032 0.21592 0.30951 0.0
H818 H 0.83287 0.17948 0.3234 0.0
H819 H 0.80397 0.18004 0.28227 0.0
C820 C 0.75005 0.73668 0.7542 0.0
C821 C 0.74893 0.7266 0.71604 0.0
C822 C 0.77935 0.75438 0.76824 0.0
C823 C 0.80811 0.76201 0.74344 0.0
C824 C 0.80769 0.75074 0.70528 0.0
C825 C 0.77806 0.73324 0.69202 0.0
C826 C 0.77886 0.76596 0.80904 0.0
C827 C 0.83797 0.75818 0.67793 0.0
C828 C 0.86384 0.83712 0.74783 0.0
C829 C 0.89742 0.82481 0.75781 0.0
C830 C 0.83345 0.8174 0.74689 0.0
C831 C 0.83701 0.78445 0.75553 0.0
C832 C 0.87019 0.77265 0.76942 0.0
C833 C 0.90022 0.79313 0.77045 0.0
C834 C 0.79848 0.8312 0.73272 0.0
C835 C 0.87495 0.7378 0.77948 0.0
H836 H 0.7276 0.73134 0.77287 0.0
H837 H 0.77756 0.72518 0.66263 0.0
H838 H 0.80495 0.76114 0.82312 0.0
H839 H 0.77476 0.79227 0.80952 0.0
H840 H 0.75711 0.75448 0.82594 0.0
H841 H 0.83476 0.74572 0.65013 0.0
H842 H 0.83911 0.78436 0.67254 0.0
H843 H 0.86405 0.75107 0.69058 0.0
H844 H 0.86187 0.86174 0.73816 0.0
H845 H 0.92635 0.78368 0.77801 0.0
H846 H 0.77569 0.82269 0.75043 0.0
H847 H 0.79365 0.82305 0.70302 0.0
H848 H 0.79873 0.85781 0.73293 0.0
H849 H 0.85118 0.72841 0.79497 0.0
H850 H 0.89924 0.73396 0.79725 0.0
H851 H 0.87788 0.72368 0.75283 0.0
C852 C 0.75455 0.76601 0.25187 0.0
C853 C 0.7558 0.77183 0.21245 0.0
C854 C 0.72651 0.748 0.26821 0.0
C855 C 0.69912 0.73556 0.24448 0.0
C856 C 0.69969 0.7423 0.20479 0.0
C857 C 0.72803 0.76031 0.18927 0.0
C858 C 0.72683 0.74141 0.31057 0.0
C859 C 0.67092 0.7296 0.17842 0.0
C860 C 0.64821 0.65873 0.26079 0.0
C861 C 0.61347 0.67024 0.26721 0.0
C862 C 0.67736 0.67978 0.25734 0.0
C863 C 0.67142 0.71318 0.25989 0.0
C864 C 0.63709 0.72462 0.27079 0.0
C865 C 0.60837 0.70286 0.27451 0.0
C866 C 0.71359 0.66638 0.2466 0.0
C867 C 0.62972 0.75999 0.27441 0.0
H868 H 0.77594 0.77507 0.26989 0.0
H869 H 0.72862 0.76494 0.15884 0.0
H870 H 0.70018 0.74655 0.32326 0.0
H871 H 0.73248 0.71568 0.31561 0.0
H872 H 0.74748 0.75585 0.32567 0.0
H873 H 0.6741 0.73856 0.14874 0.0
H874 H 0.67186 0.70304 0.17789 0.0
H875 H 0.64399 0.7366 0.189 0.0
H876 H 0.65206 0.63341 0.25522 0.0
H877 H 0.58141 0.71175 0.27924 0.0
H878 H 0.73529 0.67845 0.26281 0.0
H879 H 0.71858 0.67074 0.2158 0.0
H880 H 0.71516 0.64018 0.25191 0.0
H881 H 0.65233 0.7725 0.28864 0.0
H882 H 0.60466 0.7646 0.29068 0.0
H883 H 0.62671 0.77048 0.24548 0.0
C884 C 0.27161 0.75517 0.32999 0.0
C885 C 0.24459 0.76648 0.30577 0.0
C886 C 0.30084 0.7379 0.31549 0.0
C887 C 0.30305 0.73161 0.27579 0.0
C888 C 0.27632 0.7437 0.25104 0.0
C889 C 0.24739 0.76108 0.26636 0.0
C890 C 0.32889 0.72563 0.34293 0.0
C891 C 0.27769 0.73745 0.20864 0.0
C892 C 0.39598 0.70209 0.25017 0.0
C893 C 0.39172 0.66932 0.25731 0.0
C894 C 0.36635 0.72285 0.25226 0.0
C895 C 0.332 0.71023 0.26134 0.0
C896 C 0.32715 0.67664 0.26359 0.0
C897 C 0.3572 0.65661 0.2619 0.0
C898 C 0.37263 0.75845 0.24912 0.0
C899 C 0.29097 0.662 0.27232 0.0
H900 H 0.26985 0.75954 0.36041 0.0
H901 H 0.22657 0.76997 0.24757 0.0
H902 H 0.32862 0.69905 0.34307 0.0
H903 H 0.35601 0.73343 0.33365 0.0
H904 H 0.32435 0.73416 0.37257 0.0
H905 H 0.25718 0.75143 0.19284 0.0
H906 H 0.30462 0.74343 0.19709 0.0
H907 H 0.273 0.71161 0.20315 0.0
H908 H 0.42279 0.71189 0.24687 0.0
H909 H 0.35404 0.63117 0.26738 0.0
H910 H 0.37407 0.76889 0.27819 0.0
H911 H 0.35023 0.7703 0.23386 0.0
H912 H 0.39818 0.76394 0.23406 0.0
H913 H 0.28454 0.66576 0.30292 0.0
H914 H 0.2905 0.63585 0.26649 0.0
H915 H 0.26958 0.67363 0.25528 0.0
C916 C 0.23323 0.73502 0.83068 0.0
C917 C 0.26357 0.72992 0.80791 0.0
C918 C 0.20451 0.75356 0.81739 0.0
C919 C 0.20632 0.76759 0.78057 0.0
C920 C 0.23626 0.7614 0.75685 0.0
C921 C 0.26453 0.7425 0.77081 0.0
C922 C 0.17283 0.75922 0.84345 0.0
C923 C 0.23919 0.77589 0.71749 0.0
C924 C 0.11693 0.80297 0.7511 0.0
C925 C 0.1198 0.83344 0.76752 0.0
C926 C 0.14618 0.78173 0.75191 0.0
C927 C 0.17876 0.79152 0.76933 0.0
C928 C 0.18276 0.82355 0.78185 0.0
C929 C 0.15313 0.84404 0.78103 0.0
C930 C 0.14091 0.74799 0.7376 0.0
C931 C 0.21724 0.83532 0.79971 0.0
H932 H 0.23209 0.72495 0.85917 0.0
H933 H 0.28792 0.73833 0.75307 0.0
H934 H 0.17198 0.78483 0.85186 0.0
H935 H 0.1474 0.7537 0.82833 0.0
H936 H 0.17411 0.74443 0.86977 0.0
H937 H 0.26143 0.76517 0.7007 0.0
H938 H 0.21373 0.77274 0.70152 0.0
H939 H 0.24416 0.80202 0.72001 0.0
H940 H 0.0911 0.79472 0.74076 0.0
H941 H 0.1554 0.8678 0.79334 0.0
H942 H 0.13453 0.73213 0.76212 0.0
H943 H 0.16563 0.73876 0.72387 0.0
H944 H 0.1184 0.74651 0.71687 0.0
H945 H 0.22018 0.82464 0.82855 0.0
H946 H 0.21776 0.86182 0.80262 0.0
H947 H 0.24074 0.82781 0.78249 0.0
loop_
_geom_bond_atom_site_label_1
_geom_bond_atom_site_label_2
_geom_bond_distance
_geom_bond_site_symmetry_2
_ccdc_geom_bond_type
H0 C5 0.930 . S
H1 C8 0.930 . S
H2 C10 0.930 . S
H3 C4 1.016 . S
C4 H3 1.016 . S
C4 N11 1.286 . S
C5 H0 0.930 . S
C5 C6 1.397 . S
C5 C7 1.361 . S
C6 C5 1.397 . S
C6 C10 1.390 . S
C7 C5 1.361 . S
C7 C8 1.393 . S
C7 N11 1.413 . S
C8 H1 0.930 . S
C8 C7 1.393 . S
C8 C9 1.399 . S
C9 C8 1.399 . S
C9 C10 1.381 . S
C10 H2 0.930 . S
C10 C6 1.390 . S
C10 C9 1.381 . S
N11 C4 1.286 . S
N11 C7 1.413 . S
H12 C17 0.930 . S
H13 C20 0.930 . S
H14 C22 0.930 . S
H15 C16 1.016 . S
C16 H15 1.016 . S
C16 N23 1.286 . S
C17 H12 0.930 . S
C17 C18 1.397 . S
C17 C19 1.361 . S
C18 C17 1.397 . S
C18 C22 1.390 . S
C19 C17 1.361 . S
C19 C20 1.393 . S
C19 N23 1.413 . S
C20 H13 0.930 . S
C20 C19 1.393 . S
C20 C21 1.399 . S
C21 C20 1.399 . S
C21 C22 1.381 . S
C22 H14 0.930 . S
C22 C18 1.390 . S
C22 C21 1.381 . S
N23 C16 1.286 . S
N23 C19 1.413 . S
H24 C29 0.930 . S
H25 C32 0.930 . S
H26 C34 0.930 . S
H27 C28 1.016 . S
C28 H27 1.016 . S
C28 N35 1.286 . S
C29 H24 0.930 . S
C29 C30 1.397 . S
C29 C31 1.361 . S
C30 C29 1.397 . S
C30 C34 1.390 . S
C31 C29 1.361 . S
C31 C32 1.393 . S
C31 N35 1.413 . S
C32 H25 0.930 . S
C32 C31 1.393 . S
C32 C33 1.399 . S
C33 C32 1.399 . S
C33 C34 1.381 . S
C34 H26 0.930 . S
C34 C30 1.390 . S
C34 C33 1.381 . S
N35 C28 1.286 . S
N35 C31 1.413 . S
H36 C41 0.930 . S
H37 C44 0.930 . S
H38 C46 0.930 . S
H39 C40 1.016 . S
C40 H39 1.016 . S
C40 N47 1.286 . S
C41 H36 0.930 . S
C41 C42 1.397 . S
C41 C43 1.361 . S
C42 C41 1.397 . S
C42 C46 1.390 . S
C43 C41 1.361 . S
C43 C44 1.393 . S
C43 N47 1.413 . S
C44 H37 0.930 . S
C44 C43 1.393 . S
C44 C45 1.399 . S
C45 C44 1.399 . S
C45 C46 1.381 . S
C46 H38 0.930 . S
C46 C42 1.390 . S
C46 C45 1.381 . S
N47 C40 1.286 . S
N47 C43 1.413 . S
H48 C53 0.930 . S
H49 C56 0.930 . S
H50 C58 0.930 . S
H51 C52 1.016 . S
C52 H51 1.016 . S
C52 N59 1.286 . S
C53 H48 0.930 . S
C53 C54 1.397 . S
C53 C55 1.361 . S
C54 C53 1.397 . S
C54 C58 1.390 . S
C55 C53 1.361 . S
C55 C56 1.393 . S
C55 N59 1.413 . S
C56 H49 0.930 . S
C56 C55 1.393 . S
C56 C57 1.399 . S
C57 C56 1.399 . S
C57 C58 1.381 . S
C58 H50 0.930 . S
C58 C54 1.390 . S
C58 C57 1.381 . S
N59 C52 1.286 . S
N59 C55 1.413 . S
H60 C65 0.930 . S
H61 C68 0.930 . S
H62 C70 0.930 . S
H63 C64 1.016 . S
C64 H63 1.016 . S
C64 N71 1.286 . S
C65 H60 0.930 . S
C65 C66 1.397 . S
C65 C67 1.361 . S
C66 C65 1.397 . S
C66 C70 1.390 . S
C67 C65 1.361 . S
C67 C68 1.393 . S
C67 N71 1.413 . S
C68 H61 0.930 . S
C68 C67 1.393 . S
C68 C69 1.399 . S
C69 C68 1.399 . S
C69 C70 1.381 . S
C70 H62 0.930 . S
C70 C66 1.390 . S
C70 C69 1.381 . S
N71 C64 1.286 . S
N71 C67 1.413 . S
H72 C77 0.930 . S
H73 C80 0.930 . S
H74 C82 0.930 . S
H75 C76 1.016 . S
C76 H75 1.016 . S
C76 N83 1.286 . S
C77 H72 0.930 . S
C77 C78 1.397 . S
C77 C79 1.361 . S
C78 C77 1.397 . S
C78 C82 1.390 . S
C79 C77 1.361 . S
C79 C80 1.393 . S
C79 N83 1.413 . S
C80 H73 0.930 . S
C80 C79 1.393 . S
C80 C81 1.399 . S
C81 C80 1.399 . S
C81 C82 1.381 . S
C82 H74 0.930 . S
C82 C78 1.390 . S
C82 C81 1.381 . S
N83 C76 1.286 . S
N83 C79 1.413 . S
H84 C89 0.930 . S
H85 C92 0.930 . S
H86 C94 0.930 . S
H87 C88 1.016 . S
C88 H87 1.016 . S
C88 N95 1.286 . S
C89 H84 0.930 . S
C89 C90 1.397 . S
C89 C91 1.361 . S
C90 C89 1.397 . S
C90 C94 1.390 . S
C91 C89 1.361 . S
C91 C92 1.393 . S
C91 N95 1.413 . S
C92 H85 0.930 . S
C92 C91 1.393 . S
C92 C93 1.399 . S
C93 C92 1.399 . S
C93 C94 1.381 . S
C94 H86 0.930 . S
C94 C90 1.390 . S
C94 C93 1.381 . S
N95 C88 1.286 . S
N95 C91 1.413 . S
Zn96 O102 1.920 1_455 S
Zn96 O108 1.898 . S
Zn96 O111 1.905 . S
Zn97 O105 1.905 1_655 S
Zn97 O106 1.898 . S
Zn97 O114 1.920 . S
Zn98 O101 2.080 1_455 S
Zn98 O104 2.114 . S
Zn98 O107 2.120 1_455 S
Zn98 O109 2.120 . S
Zn98 O110 2.114 . S
Zn98 O113 2.080 1_455 S
C99 O104 1.166 . S
C99 O105 1.182 . S
C100 O106 1.167 . S
C100 O107 1.299 . S
O101 Zn98 2.080 1_655 S
O101 C115 1.305 . S
O102 Zn96 1.920 1_655 S
O102 C115 1.234 . S
C103 O108 1.167 . S
C103 O109 1.299 . S
O104 Zn98 2.114 . S
O104 C99 1.166 . S
O105 Zn97 1.905 1_455 S
O105 C99 1.182 . S
O106 Zn97 1.898 . S
O106 C100 1.167 . S
O107 Zn98 2.120 1_655 S
O107 C100 1.299 . S
O108 Zn96 1.898 . S
O108 C103 1.167 . S
O109 Zn98 2.120 . S
O109 C103 1.299 . S
O110 Zn98 2.114 . S
O110 C112 1.166 . S
O111 Zn96 1.905 . S
O111 C112 1.182 . S
C112 O110 1.166 . S
C112 O111 1.182 . S
O113 Zn98 2.080 1_655 S
O113 C116 1.305 . S
O114 Zn97 1.920 . S
O114 C116 1.234 . S
C115 O101 1.305 . S
C115 O102 1.234 . S
C116 O113 1.305 . S
C116 O114 1.234 . S
Zn117 O123 1.920 . S
Zn117 O129 1.898 . S
Zn117 O132 1.905 . S
Zn118 O126 1.905 . S
Zn118 O127 1.898 . S
Zn118 O135 1.920 . S
Zn119 O122 2.080 . S
Zn119 O125 2.114 . S
Zn119 O128 2.120 . S
Zn119 O130 2.120 . S
Zn119 O131 2.114 . S
Zn119 O134 2.080 . S
C120 O125 1.166 . S
C120 O126 1.182 . S
C121 O127 1.167 . S
C121 O128 1.299 . S
O122 Zn119 2.080 . S
O122 C136 1.305 . S
O123 Zn117 1.920 . S
O123 C136 1.234 . S
C124 O129 1.167 . S
C124 O130 1.299 . S
O125 Zn119 2.114 . S
O125 C120 1.166 . S
O126 Zn118 1.905 . S
O126 C120 1.182 . S
O127 Zn118 1.898 . S
O127 C121 1.167 . S
O128 Zn119 2.120 . S
O128 C121 1.299 . S
O129 Zn117 1.898 . S
O129 C124 1.167 . S
O130 Zn119 2.120 . S
O130 C124 1.299 . S
O131 Zn119 2.114 . S
O131 C133 1.166 . S
O132 Zn117 1.905 . S
O132 C133 1.182 . S
C133 O131 1.166 . S
C133 O132 1.182 . S
O134 Zn119 2.080 . S
O134 C137 1.305 . S
O135 Zn118 1.920 . S
O135 C137 1.234 . S
C136 O122 1.305 . S
C136 O123 1.234 . S
C137 O134 1.305 . S
C137 O135 1.234 . S
Zn138 O144 1.920 . S
Zn138 O150 1.898 . S
Zn138 O153 1.905 1_455 S
Zn139 O147 1.905 . S
Zn139 O148 1.898 . S
Zn139 O156 1.920 1_655 S
Zn140 O143 2.080 . S
Zn140 O146 2.114 1_455 S
Zn140 O149 2.120 1_455 S
Zn140 O151 2.120 . S
Zn140 O152 2.114 1_455 S
Zn140 O155 2.080 . S
C141 O146 1.166 . S
C141 O147 1.182 . S
C142 O148 1.167 . S
C142 O149 1.299 . S
O143 Zn140 2.080 . S
O143 C157 1.305 . S
O144 Zn138 1.920 . S
O144 C157 1.234 . S
C145 O150 1.167 . S
C145 O151 1.299 . S
O146 Zn140 2.114 1_655 S
O146 C141 1.166 . S
O147 Zn139 1.905 . S
O147 C141 1.182 . S
O148 Zn139 1.898 . S
O148 C142 1.167 . S
O149 Zn140 2.120 1_655 S
O149 C142 1.299 . S
O150 Zn138 1.898 . S
O150 C145 1.167 . S
O151 Zn140 2.120 . S
O151 C145 1.299 . S
O152 Zn140 2.114 1_655 S
O152 C154 1.166 . S
O153 Zn138 1.905 1_655 S
O153 C154 1.182 . S
C154 O152 1.166 . S
C154 O153 1.182 . S
O155 Zn140 2.080 . S
O155 C158 1.305 . S
O156 Zn139 1.920 1_455 S
O156 C158 1.234 . S
C157 O143 1.305 . S
C157 O144 1.234 . S
C158 O155 1.305 . S
C158 O156 1.234 . S
Zn159 O165 1.920 . S
Zn159 O171 1.898 . S
Zn159 O174 1.905 . S
Zn160 O168 1.905 . S
Zn160 O169 1.898 . S
Zn160 O177 1.920 . S
Zn161 O164 2.080 . S
Zn161 O167 2.114 . S
Zn161 O170 2.120 . S
Zn161 O172 2.120 . S
Zn161 O173 2.114 . S
Zn161 O176 2.080 . S
C162 O167 1.166 . S
C162 O168 1.182 . S
C163 O169 1.167 . S
C163 O170 1.299 . S
O164 Zn161 2.080 . S
O164 C178 1.305 . S
O165 Zn159 1.920 . S
O165 C178 1.234 . S
C166 O171 1.167 . S
C166 O172 1.299 . S
O167 Zn161 2.114 . S
O167 C162 1.166 . S
O168 Zn160 1.905 . S
O168 C162 1.182 . S
O169 Zn160 1.898 . S
O169 C163 1.167 . S
O170 Zn161 2.120 . S
O170 C163 1.299 . S
O171 Zn159 1.898 . S
O171 C166 1.167 . S
O172 Zn161 2.120 . S
O172 C166 1.299 . S
O173 Zn161 2.114 . S
O173 C175 1.166 . S
O174 Zn159 1.905 . S
O174 C175 1.182 . S
C175 O173 1.166 . S
C175 O174 1.182 . S
O176 Zn161 2.080 . S
O176 C179 1.305 . S
O177 Zn160 1.920 . S
O177 C179 1.234 . S
C178 O164 1.305 . S
C178 O165 1.234 . S
C179 O176 1.305 . S
C179 O177 1.234 . S
C180 C181 1.391 . S
C180 C182 1.394 . S
C180 H196 0.931 . S
C181 C180 1.391 . S
C181 C185 1.376 . S
C182 C180 1.394 . S
C182 C183 1.369 . S
C182 C186 1.531 . S
C183 C182 1.369 . S
C183 C184 1.410 . S
C183 C191 1.503 . S
C184 C183 1.410 . S
C184 C185 1.392 . S
C184 C187 1.511 . S
C185 C181 1.376 . S
C185 C184 1.392 . S
C185 H197 0.929 . S
C186 C182 1.531 . S
C186 H198 0.960 . S
C186 H199 0.962 . S
C186 H200 0.960 . S
C187 C184 1.511 . S
C187 H201 0.961 . S
C187 H202 0.961 . S
C187 H203 0.961 . S
C188 C189 1.370 1_565 S
C188 C190 1.363 . S
C188 H204 0.931 . S
C189 C188 1.370 1_545 S
C189 C193 1.408 . S
C190 C188 1.363 . S
C190 C191 1.370 . S
C190 C194 1.524 . S
C191 C183 1.503 . S
C191 C190 1.370 . S
C191 C192 1.403 1_565 S
C192 C191 1.403 1_545 S
C192 C193 1.404 . S
C192 C195 1.539 . S
C193 C189 1.408 . S
C193 C192 1.404 . S
C193 H205 0.930 . S
C194 C190 1.524 . S
C194 H206 0.956 . S
C194 H207 0.961 . S
C194 H208 0.961 . S
C195 C192 1.539 . S
C195 H209 0.958 . S
C195 H210 0.961 . S
C195 H211 0.960 1_545 S
H196 C180 0.931 . S
H197 C185 0.929 . S
H198 C186 0.960 . S
H199 C186 0.962 . S
H200 C186 0.960 . S
H201 C187 0.961 . S
H202 C187 0.961 . S
H203 C187 0.961 . S
H204 C188 0.931 . S
H205 C193 0.930 . S
H206 C194 0.956 . S
H207 C194 0.961 . S
H208 C194 0.961 . S
H209 C195 0.958 . S
H210 C195 0.961 . S
H211 C195 0.960 1_565 S
C212 C213 1.391 . S
C212 C214 1.394 . S
C212 H228 0.931 . S
C213 C212 1.391 . S
C213 C217 1.376 . S
C214 C212 1.394 . S
C214 C215 1.369 . S
C214 C218 1.531 . S
C215 C214 1.369 . S
C215 C216 1.410 . S
C215 C223 1.503 . S
C216 C215 1.410 . S
C216 C217 1.392 . S
C216 C219 1.511 . S
C217 C213 1.376 . S
C217 C216 1.392 . S
C217 H229 0.929 . S
C218 C214 1.531 . S
C218 H230 0.960 . S
C218 H231 0.962 . S
C218 H232 0.960 . S
C219 C216 1.511 . S
C219 H233 0.961 . S
C219 H234 0.961 . S
C219 H235 0.961 . S
C220 C221 1.370 . S
C220 C222 1.363 . S
C220 H236 0.931 . S
C221 C220 1.370 . S
C221 C225 1.408 . S
C222 C220 1.363 . S
C222 C223 1.370 . S
C222 C226 1.524 . S
C223 C215 1.503 . S
C223 C222 1.370 . S
C223 C224 1.403 . S
C224 C223 1.403 . S
C224 C225 1.404 . S
C224 C227 1.539 . S
C225 C221 1.408 . S
C225 C224 1.404 . S
C225 H237 0.930 . S
C226 C222 1.524 . S
C226 H238 0.956 . S
C226 H239 0.961 . S
C226 H240 0.961 . S
C227 C224 1.539 . S
C227 H241 0.958 . S
C227 H242 0.961 . S
C227 H243 0.960 . S
H228 C212 0.931 . S
H229 C217 0.929 . S
H230 C218 0.960 . S
H231 C218 0.962 . S
H232 C218 0.960 . S
H233 C219 0.961 . S
H234 C219 0.961 . S
H235 C219 0.961 . S
H236 C220 0.931 . S
H237 C225 0.930 . S
H238 C226 0.956 . S
H239 C226 0.961 . S
H240 C226 0.961 . S
H241 C227 0.958 . S
H242 C227 0.961 . S
H243 C227 0.960 . S
C244 C245 1.391 . S
C244 C246 1.394 . S
C244 H260 0.931 . S
C245 C244 1.391 . S
C245 C249 1.376 . S
C246 C244 1.394 . S
C246 C247 1.369 . S
C246 C250 1.531 . S
C247 C246 1.369 . S
C247 C248 1.410 . S
C247 C255 1.503 . S
C248 C247 1.410 . S
C248 C249 1.392 . S
C248 C251 1.511 . S
C249 C245 1.376 . S
C249 C248 1.392 . S
C249 H261 0.929 . S
C250 C246 1.531 . S
C250 H262 0.960 . S
C250 H263 0.962 . S
C250 H264 0.960 . S
C251 C248 1.511 . S
C251 H265 0.961 . S
C251 H266 0.961 . S
C251 H267 0.961 . S
C252 C253 1.370 . S
C252 C254 1.363 . S
C252 H268 0.931 . S
C253 C252 1.370 . S
C253 C257 1.408 . S
C254 C252 1.363 . S
C254 C255 1.370 . S
C254 C258 1.524 . S
C255 C247 1.503 . S
C255 C254 1.370 . S
C255 C256 1.403 . S
C256 C255 1.403 . S
C256 C257 1.404 . S
C256 C259 1.539 . S
C257 C253 1.408 . S
C257 C256 1.404 . S
C257 H269 0.930 . S
C258 C254 1.524 . S
C258 H270 0.956 . S
C258 H271 0.961 . S
C258 H272 0.961 . S
C259 C256 1.539 . S
C259 H273 0.958 . S
C259 H274 0.961 . S
C259 H275 0.960 . S
H260 C244 0.931 . S
H261 C249 0.929 . S
H262 C250 0.960 . S
H263 C250 0.962 . S
H264 C250 0.960 . S
H265 C251 0.961 . S
H266 C251 0.961 . S
H267 C251 0.961 . S
H268 C252 0.931 . S
H269 C257 0.930 . S
H270 C258 0.956 . S
H271 C258 0.961 . S
H272 C258 0.961 . S
H273 C259 0.958 . S
H274 C259 0.961 . S
H275 C259 0.960 . S
C276 C277 1.391 . S
C276 C278 1.394 . S
C276 H292 0.931 . S
C277 C276 1.391 . S
C277 C281 1.376 . S
C278 C276 1.394 . S
C278 C279 1.369 . S
C278 C282 1.531 . S
C279 C278 1.369 . S
C279 C280 1.410 . S
C279 C287 1.503 . S
C280 C279 1.410 . S
C280 C281 1.392 . S
C280 C283 1.511 . S
C281 C277 1.376 . S
C281 C280 1.392 . S
C281 H293 0.929 . S
C282 C278 1.531 . S
C282 H294 0.960 . S
C282 H295 0.962 . S
C282 H296 0.960 . S
C283 C280 1.511 . S
C283 H297 0.961 . S
C283 H298 0.961 . S
C283 H299 0.961 . S
C284 C285 1.370 . S
C284 C286 1.363 1_545 S
C284 H300 0.931 . S
C285 C284 1.370 . S
C285 C289 1.408 1_545 S
C286 C284 1.363 1_565 S
C286 C287 1.370 . S
C286 C290 1.524 . S
C287 C279 1.503 . S
C287 C286 1.370 . S
C287 C288 1.403 . S
C288 C287 1.403 . S
C288 C289 1.404 . S
C288 C291 1.539 . S
C289 C285 1.408 1_565 S
C289 C288 1.404 . S
C289 H301 0.930 . S
C290 C286 1.524 . S
C290 H302 0.956 . S
C290 H303 0.961 . S
C290 H304 0.961 1_565 S
C291 C288 1.539 . S
C291 H305 0.958 . S
C291 H306 0.961 1_655 S
C291 H307 0.960 . S
H292 C276 0.931 . S
H293 C281 0.929 . S
H294 C282 0.960 . S
H295 C282 0.962 . S
H296 C282 0.960 . S
H297 C283 0.961 . S
H298 C283 0.961 . S
H299 C283 0.961 . S
H300 C284 0.931 . S
H301 C289 0.930 . S
H302 C290 0.956 . S
H303 C290 0.961 . S
H304 C290 0.961 1_545 S
H305 C291 0.958 . S
H306 C291 0.961 1_455 S
H307 C291 0.960 . S
C308 C309 1.391 . S
C308 C310 1.394 . S
C308 H324 0.931 . S
C309 C308 1.391 . S
C309 C313 1.376 . S
C310 C308 1.394 . S
C310 C311 1.369 . S
C310 C314 1.531 . S
C311 C310 1.369 . S
C311 C312 1.410 . S
C311 C319 1.503 . S
C312 C311 1.410 . S
C312 C313 1.392 . S
C312 C315 1.511 . S
C313 C309 1.376 . S
C313 C312 1.392 . S
C313 H325 0.929 . S
C314 C310 1.531 . S
C314 H326 0.960 . S
C314 H327 0.962 . S
C314 H328 0.960 . S
C315 C312 1.511 . S
C315 H329 0.961 . S
C315 H330 0.961 . S
C315 H331 0.961 . S
C316 C317 1.370 . S
C316 C318 1.363 1_565 S
C316 H332 0.931 . S
C317 C316 1.370 . S
C317 C321 1.408 . S
C318 C316 1.363 1_545 S
C318 C319 1.370 . S
C318 C322 1.524 . S
C319 C311 1.503 . S
C319 C318 1.370 . S
C319 C320 1.403 . S
C320 C319 1.403 . S
C320 C321 1.404 1_545 S
C320 C323 1.539 . S
C321 C317 1.408 . S
C321 C320 1.404 1_565 S
C321 H333 0.930 . S
C322 C318 1.524 . S
C322 H334 0.956 . S
C322 H335 0.961 . S
C322 H336 0.961 . S
C323 C320 1.539 . S
C323 H337 0.958 . S
C323 H338 0.961 . S
C323 H339 0.960 . S
H324 C308 0.931 . S
H325 C313 0.929 . S
H326 C314 0.960 . S
H327 C314 0.962 . S
H328 C314 0.960 . S
H329 C315 0.961 . S
H330 C315 0.961 . S
H331 C315 0.961 . S
H332 C316 0.931 . S
H333 C321 0.930 . S
H334 C322 0.956 . S
H335 C322 0.961 . S
H336 C322 0.961 . S
H337 C323 0.958 . S
H338 C323 0.961 . S
H339 C323 0.960 . S
C340 C341 1.391 . S
C340 C342 1.394 . S
C340 H356 0.931 . S
C341 C340 1.391 . S
C341 C345 1.376 . S
C342 C340 1.394 . S
C342 C343 1.369 . S
C342 C346 1.531 . S
C343 C342 1.369 . S
C343 C344 1.410 . S
C343 C351 1.503 . S
C344 C343 1.410 . S
C344 C345 1.392 . S
C344 C347 1.511 . S
C345 C341 1.376 . S
C345 C344 1.392 . S
C345 H357 0.929 . S
C346 C342 1.531 . S
C346 H358 0.960 . S
C346 H359 0.962 . S
C346 H360 0.960 . S
C347 C344 1.511 . S
C347 H361 0.961 . S
C347 H362 0.961 . S
C347 H363 0.961 . S
C348 C349 1.370 . S
C348 C350 1.363 . S
C348 H364 0.931 . S
C349 C348 1.370 . S
C349 C353 1.408 . S
C350 C348 1.363 . S
C350 C351 1.370 . S
C350 C354 1.524 . S
C351 C343 1.503 . S
C351 C350 1.370 . S
C351 C352 1.403 . S
C352 C351 1.403 . S
C352 C353 1.404 . S
C352 C355 1.539 . S
C353 C349 1.408 . S
C353 C352 1.404 . S
C353 H365 0.930 . S
C354 C350 1.524 . S
C354 H366 0.956 . S
C354 H367 0.961 . S
C354 H368 0.961 . S
C355 C352 1.539 . S
C355 H369 0.958 . S
C355 H370 0.961 . S
C355 H371 0.960 . S
H356 C340 0.931 . S
H357 C345 0.929 . S
H358 C346 0.960 . S
H359 C346 0.962 . S
H360 C346 0.960 . S
H361 C347 0.961 . S
H362 C347 0.961 . S
H363 C347 0.961 . S
H364 C348 0.931 . S
H365 C353 0.930 . S
H366 C354 0.956 . S
H367 C354 0.961 . S
H368 C354 0.961 . S
H369 C355 0.958 . S
H370 C355 0.961 . S
H371 C355 0.960 . S
C372 C373 1.391 . S
C372 C374 1.394 . S
C372 H388 0.931 . S
C373 C372 1.391 . S
C373 C377 1.376 . S
C374 C372 1.394 . S
C374 C375 1.369 . S
C374 C378 1.531 . S
C375 C374 1.369 . S
C375 C376 1.410 . S
C375 C383 1.503 . S
C376 C375 1.410 . S
C376 C377 1.392 . S
C376 C379 1.511 . S
C377 C373 1.376 . S
C377 C376 1.392 . S
C377 H389 0.929 . S
C378 C374 1.531 . S
C378 H390 0.960 . S
C378 H391 0.962 . S
C378 H392 0.960 . S
C379 C376 1.511 . S
C379 H393 0.961 . S
C379 H394 0.961 . S
C379 H395 0.961 . S
C380 C381 1.370 . S
C380 C382 1.363 . S
C380 H396 0.931 . S
C381 C380 1.370 . S
C381 C385 1.408 . S
C382 C380 1.363 . S
C382 C383 1.370 . S
C382 C386 1.524 . S
C383 C375 1.503 . S
C383 C382 1.370 . S
C383 C384 1.403 . S
C384 C383 1.403 . S
C384 C385 1.404 . S
C384 C387 1.539 . S
C385 C381 1.408 . S
C385 C384 1.404 . S
C385 H397 0.930 . S
C386 C382 1.524 . S
C386 H398 0.956 . S
C386 H399 0.961 . S
C386 H400 0.961 . S
C387 C384 1.539 . S
C387 H401 0.958 . S
C387 H402 0.961 . S
C387 H403 0.960 . S
H388 C372 0.931 . S
H389 C377 0.929 . S
H390 C378 0.960 . S
H391 C378 0.962 . S
H392 C378 0.960 . S
H393 C379 0.961 . S
H394 C379 0.961 . S
H395 C379 0.961 . S
H396 C380 0.931 . S
H397 C385 0.930 . S
H398 C386 0.956 . S
H399 C386 0.961 . S
H400 C386 0.961 . S
H401 C387 0.958 . S
H402 C387 0.961 . S
H403 C387 0.960 . S
C404 C405 1.391 . S
C404 C406 1.394 . S
C404 H420 0.931 . S
C405 C404 1.391 . S
C405 C409 1.376 . S
C406 C404 1.394 . S
C406 C407 1.369 . S
C406 C410 1.531 . S
C407 C406 1.369 . S
C407 C408 1.410 . S
C407 C415 1.503 . S
C408 C407 1.410 . S
C408 C409 1.392 . S
C408 C411 1.511 . S
C409 C405 1.376 . S
C409 C408 1.392 . S
C409 H421 0.929 . S
C410 C406 1.531 . S
C410 H422 0.960 . S
C410 H423 0.962 . S
C410 H424 0.960 . S
C411 C408 1.511 . S
C411 H425 0.961 . S
C411 H426 0.961 . S
C411 H427 0.961 . S
C412 C413 1.370 1_545 S
C412 C414 1.363 . S
C412 H428 0.931 . S
C413 C412 1.370 1_565 S
C413 C417 1.408 . S
C414 C412 1.363 . S
C414 C415 1.370 . S
C414 C418 1.524 . S
C415 C407 1.503 . S
C415 C414 1.370 . S
C415 C416 1.403 1_545 S
C416 C415 1.403 1_565 S
C416 C417 1.404 . S
C416 C419 1.539 . S
C417 C413 1.408 . S
C417 C416 1.404 . S
C417 H429 0.930 . S
C418 C414 1.524 . S
C418 H430 0.956 . S
C418 H431 0.961 . S
C418 H432 0.961 . S
C419 C416 1.539 . S
C419 H433 0.958 . S
C419 H434 0.961 . S
C419 H435 0.960 1_565 S
H420 C404 0.931 . S
H421 C409 0.929 . S
H422 C410 0.960 . S
H423 C410 0.962 . S
H424 C410 0.960 . S
H425 C411 0.961 . S
H426 C411 0.961 . S
H427 C411 0.961 . S
H428 C412 0.931 . S
H429 C417 0.930 . S
H430 C418 0.956 . S
H431 C418 0.961 . S
H432 C418 0.961 . S
H433 C419 0.958 . S
H434 C419 0.961 . S
H435 C419 0.960 1_545 S
C436 C437 1.391 1_554 S
C436 C438 1.394 . S
C436 H452 0.931 . S
C437 C436 1.391 1_556 S
C437 C441 1.376 . S
C438 C436 1.394 . S
C438 C439 1.369 . S
C438 C442 1.531 . S
C439 C438 1.369 . S
C439 C440 1.410 . S
C439 C447 1.503 . S
C440 C439 1.410 . S
C440 C441 1.392 1_554 S
C440 C443 1.511 . S
C441 C437 1.376 . S
C441 C440 1.392 1_556 S
C441 H453 0.929 . S
C442 C438 1.531 . S
C442 H454 0.960 . S
C442 H455 0.962 . S
C442 H456 0.960 . S
C443 C440 1.511 . S
C443 H457 0.961 1_554 S
C443 H458 0.961 . S
C443 H459 0.961 . S
C444 C445 1.370 . S
C444 C446 1.363 . S
C444 H460 0.931 . S
C445 C444 1.370 . S
C445 C449 1.408 . S
C446 C444 1.363 . S
C446 C447 1.370 . S
C446 C450 1.524 . S
C447 C439 1.503 . S
C447 C446 1.370 . S
C447 C448 1.403 . S
C448 C447 1.403 . S
C448 C449 1.404 . S
C448 C451 1.539 . S
C449 C445 1.408 . S
C449 C448 1.404 . S
C449 H461 0.930 . S
C450 C446 1.524 . S
C450 H462 0.956 . S
C450 H463 0.961 . S
C450 H464 0.961 . S
C451 C448 1.539 . S
C451 H465 0.958 . S
C451 H466 0.961 . S
C451 H467 0.960 . S
H452 C436 0.931 . S
H453 C441 0.929 . S
H454 C442 0.960 . S
H455 C442 0.962 . S
H456 C442 0.960 . S
H457 C443 0.961 1_556 S
H458 C443 0.961 . S
H459 C443 0.961 . S
H460 C444 0.931 . S
H461 C449 0.930 . S
H462 C450 0.956 . S
H463 C450 0.961 . S
H464 C450 0.961 . S
H465 C451 0.958 . S
H466 C451 0.961 . S
H467 C451 0.960 . S
C468 C469 1.391 . S
C468 C470 1.394 . S
C468 H484 0.931 . S
C469 C468 1.391 . S
C469 C473 1.376 . S
C470 C468 1.394 . S
C470 C471 1.369 . S
C470 C474 1.531 . S
C471 C470 1.369 . S
C471 C472 1.410 . S
C471 C479 1.503 . S
C472 C471 1.410 . S
C472 C473 1.392 . S
C472 C475 1.511 . S
C473 C469 1.376 . S
C473 C472 1.392 . S
C473 H485 0.929 . S
C474 C470 1.531 . S
C474 H486 0.960 . S
C474 H487 0.962 . S
C474 H488 0.960 . S
C475 C472 1.511 . S
C475 H489 0.961 . S
C475 H490 0.961 . S
C475 H491 0.961 . S
C476 C477 1.370 . S
C476 C478 1.363 . S
C476 H492 0.931 . S
C477 C476 1.370 . S
C477 C481 1.408 . S
C478 C476 1.363 . S
C478 C479 1.370 . S
C478 C482 1.524 . S
C479 C471 1.503 . S
C479 C478 1.370 . S
C479 C480 1.403 . S
C480 C479 1.403 . S
C480 C481 1.404 . S
C480 C483 1.539 . S
C481 C477 1.408 . S
C481 C480 1.404 . S
C481 H493 0.930 . S
C482 C478 1.524 . S
C482 H494 0.956 . S
C482 H495 0.961 . S
C482 H496 0.961 . S
C483 C480 1.539 . S
C483 H497 0.958 . S
C483 H498 0.961 . S
C483 H499 0.960 . S
H484 C468 0.931 . S
H485 C473 0.929 . S
H486 C474 0.960 . S
H487 C474 0.962 . S
H488 C474 0.960 . S
H489 C475 0.961 . S
H490 C475 0.961 . S
H491 C475 0.961 . S
H492 C476 0.931 . S
H493 C481 0.930 . S
H494 C482 0.956 . S
H495 C482 0.961 . S
H496 C482 0.961 . S
H497 C483 0.958 . S
H498 C483 0.961 . S
H499 C483 0.960 . S
C500 C501 1.391 . S
C500 C502 1.394 1_554 S
C500 H516 0.931 . S
C501 C500 1.391 . S
C501 C505 1.376 . S
C502 C500 1.394 1_556 S
C502 C503 1.369 . S
C502 C506 1.531 . S
C503 C502 1.369 . S
C503 C504 1.410 . S
C503 C511 1.503 . S
C504 C503 1.410 . S
C504 C505 1.392 1_556 S
C504 C507 1.511 . S
C505 C501 1.376 . S
C505 C504 1.392 1_554 S
C505 H517 0.929 . S
C506 C502 1.531 . S
C506 H518 0.960 . S
C506 H519 0.962 . S
C506 H520 0.960 . S
C507 C504 1.511 . S
C507 H521 0.961 . S
C507 H522 0.961 . S
C507 H523 0.961 . S
C508 C509 1.370 . S
C508 C510 1.363 . S
C508 H524 0.931 . S
C509 C508 1.370 . S
C509 C513 1.408 . S
C510 C508 1.363 . S
C510 C511 1.370 . S
C510 C514 1.524 . S
C511 C503 1.503 . S
C511 C510 1.370 . S
C511 C512 1.403 . S
C512 C511 1.403 . S
C512 C513 1.404 . S
C512 C515 1.539 . S
C513 C509 1.408 . S
C513 C512 1.404 . S
C513 H525 0.930 . S
C514 C510 1.524 . S
C514 H526 0.956 . S
C514 H527 0.961 . S
C514 H528 0.961 . S
C515 C512 1.539 . S
C515 H529 0.958 . S
C515 H530 0.961 . S
C515 H531 0.960 . S
H516 C500 0.931 . S
H517 C505 0.929 . S
H518 C506 0.960 . S
H519 C506 0.962 . S
H520 C506 0.960 . S
H521 C507 0.961 . S
H522 C507 0.961 . S
H523 C507 0.961 . S
H524 C508 0.931 . S
H525 C513 0.930 . S
H526 C514 0.956 . S
H527 C514 0.961 . S
H528 C514 0.961 . S
H529 C515 0.958 . S
H530 C515 0.961 . S
H531 C515 0.960 . S
C532 C533 1.391 . S
C532 C534 1.394 . S
C532 H548 0.931 . S
C533 C532 1.391 . S
C533 C537 1.376 . S
C534 C532 1.394 . S
C534 C535 1.369 . S
C534 C538 1.531 . S
C535 C534 1.369 . S
C535 C536 1.410 . S
C535 C543 1.503 . S
C536 C535 1.410 . S
C536 C537 1.392 . S
C536 C539 1.511 . S
C537 C533 1.376 . S
C537 C536 1.392 . S
C537 H549 0.929 . S
C538 C534 1.531 . S
C538 H550 0.960 . S
C538 H551 0.962 . S
C538 H552 0.960 . S
C539 C536 1.511 . S
C539 H553 0.961 . S
C539 H554 0.961 . S
C539 H555 0.961 . S
C540 C541 1.370 . S
C540 C542 1.363 . S
C540 H556 0.931 . S
C541 C540 1.370 . S
C541 C545 1.408 . S
C542 C540 1.363 . S
C542 C543 1.370 . S
C542 C546 1.524 . S
C543 C535 1.503 . S
C543 C542 1.370 . S
C543 C544 1.403 . S
C544 C543 1.403 . S
C544 C545 1.404 . S
C544 C547 1.539 . S
C545 C541 1.408 . S
C545 C544 1.404 . S
C545 H557 0.930 . S
C546 C542 1.524 . S
C546 H558 0.956 . S
C546 H559 0.961 . S
C546 H560 0.961 . S
C547 C544 1.539 . S
C547 H561 0.958 . S
C547 H562 0.961 . S
C547 H563 0.960 . S
H548 C532 0.931 . S
H549 C537 0.929 . S
H550 C538 0.960 . S
H551 C538 0.962 . S
H552 C538 0.960 . S
H553 C539 0.961 . S
H554 C539 0.961 . S
H555 C539 0.961 . S
H556 C540 0.931 . S
H557 C545 0.930 . S
H558 C546 0.956 . S
H559 C546 0.961 . S
H560 C546 0.961 . S
H561 C547 0.958 . S
H562 C547 0.961 . S
H563 C547 0.960 . S
C564 C565 1.391 . S
C564 C566 1.394 1_554 S
C564 H580 0.931 . S
C565 C564 1.391 . S
C565 C569 1.376 . S
C566 C564 1.394 1_556 S
C566 C567 1.369 . S
C566 C570 1.531 . S
C567 C566 1.369 . S
C567 C568 1.410 . S
C567 C575 1.503 . S
C568 C567 1.410 . S
C568 C569 1.392 1_556 S
C568 C571 1.511 . S
C569 C565 1.376 . S
C569 C568 1.392 1_554 S
C569 H581 0.929 . S
C570 C566 1.531 . S
C570 H582 0.960 . S
C570 H583 0.962 . S
C570 H584 0.960 . S
C571 C568 1.511 . S
C571 H585 0.961 . S
C571 H586 0.961 . S
C571 H587 0.961 . S
C572 C573 1.370 . S
C572 C574 1.363 . S
C572 H588 0.931 . S
C573 C572 1.370 . S
C573 C577 1.408 . S
C574 C572 1.363 . S
C574 C575 1.370 . S
C574 C578 1.524 . S
C575 C567 1.503 . S
C575 C574 1.370 . S
C575 C576 1.403 . S
C576 C575 1.403 . S
C576 C577 1.404 . S
C576 C579 1.539 . S
C577 C573 1.408 . S
C577 C576 1.404 . S
C577 H589 0.930 . S
C578 C574 1.524 . S
C578 H590 0.956 . S
C578 H591 0.961 . S
C578 H592 0.961 . S
C579 C576 1.539 . S
C579 H593 0.958 . S
C579 H594 0.961 . S
C579 H595 0.960 . S
H580 C564 0.931 . S
H581 C569 0.929 . S
H582 C570 0.960 . S
H583 C570 0.962 . S
H584 C570 0.960 . S
H585 C571 0.961 . S
H586 C571 0.961 . S
H587 C571 0.961 . S
H588 C572 0.931 . S
H589 C577 0.930 . S
H590 C578 0.956 . S
H591 C578 0.961 . S
H592 C578 0.961 . S
H593 C579 0.958 . S
H594 C579 0.961 . S
H595 C579 0.960 . S
C596 C597 1.391 . S
C596 C598 1.394 . S
C596 H612 0.931 . S
C597 C596 1.391 . S
C597 C601 1.376 . S
C598 C596 1.394 . S
C598 C599 1.369 . S
C598 C602 1.531 . S
C599 C598 1.369 . S
C599 C600 1.410 . S
C599 C607 1.503 . S
C600 C599 1.410 . S
C600 C601 1.392 . S
C600 C603 1.511 . S
C601 C597 1.376 . S
C601 C600 1.392 . S
C601 H613 0.929 . S
C602 C598 1.531 . S
C602 H614 0.960 . S
C602 H615 0.962 . S
C602 H616 0.960 . S
C603 C600 1.511 . S
C603 H617 0.961 . S
C603 H618 0.961 . S
C603 H619 0.961 . S
C604 C605 1.370 . S
C604 C606 1.363 . S
C604 H620 0.931 . S
C605 C604 1.370 . S
C605 C609 1.408 . S
C606 C604 1.363 . S
C606 C607 1.370 . S
C606 C610 1.524 . S
C607 C599 1.503 . S
C607 C606 1.370 . S
C607 C608 1.403 . S
C608 C607 1.403 . S
C608 C609 1.404 . S
C608 C611 1.539 . S
C609 C605 1.408 . S
C609 C608 1.404 . S
C609 H621 0.930 . S
C610 C606 1.524 . S
C610 H622 0.956 . S
C610 H623 0.961 . S
C610 H624 0.961 . S
C611 C608 1.539 . S
C611 H625 0.958 . S
C611 H626 0.961 . S
C611 H627 0.960 . S
H612 C596 0.931 . S
H613 C601 0.929 . S
H614 C602 0.960 . S
H615 C602 0.962 . S
H616 C602 0.960 . S
H617 C603 0.961 . S
H618 C603 0.961 . S
H619 C603 0.961 . S
H620 C604 0.931 . S
H621 C609 0.930 . S
H622 C610 0.956 . S
H623 C610 0.961 . S
H624 C610 0.961 . S
H625 C611 0.958 . S
H626 C611 0.961 . S
H627 C611 0.960 . S
C628 C629 1.391 . S
C628 C630 1.394 1_556 S
C628 H644 0.931 . S
C629 C628 1.391 . S
C629 C633 1.353 1_556 S
C630 C628 1.394 1_554 S
C630 C631 1.369 . S
C630 C634 1.531 . S
C631 C630 1.369 . S
C631 C632 1.410 . S
C631 C639 1.503 . S
C632 C631 1.410 . S
C632 C633 1.418 . S
C632 C635 1.511 . S
C633 C629 1.353 1_554 S
C633 C632 1.418 . S
C633 H645 0.927 1_554 S
C634 C630 1.531 . S
C634 H646 0.960 . S
C634 H647 0.962 . S
C634 H648 0.960 1_554 S
C635 C632 1.511 . S
C635 H649 0.961 . S
C635 H650 0.961 . S
C635 H651 0.961 . S
C636 C637 1.370 . S
C636 C638 1.363 . S
C636 H652 0.931 . S
C637 C636 1.370 . S
C637 C641 1.408 . S
C638 C636 1.363 . S
C638 C639 1.370 . S
C638 C642 1.524 . S
C639 C631 1.503 . S
C639 C638 1.370 . S
C639 C640 1.403 . S
C640 C639 1.403 . S
C640 C641 1.404 . S
C640 C643 1.539 . S
C641 C637 1.408 . S
C641 C640 1.404 . S
C641 H653 0.930 . S
C642 C638 1.524 . S
C642 H654 0.956 . S
C642 H655 0.961 . S
C642 H656 0.961 . S
C643 C640 1.539 . S
C643 H657 0.958 . S
C643 H658 0.961 . S
C643 H659 0.960 . S
H644 C628 0.931 . S
H645 C633 0.927 1_556 S
H646 C634 0.960 . S
H647 C634 0.962 . S
H648 C634 0.960 1_556 S
H649 C635 0.961 . S
H650 C635 0.961 . S
H651 C635 0.961 . S
H652 C636 0.931 . S
H653 C641 0.930 . S
H654 C642 0.956 . S
H655 C642 0.961 . S
H656 C642 0.961 . S
H657 C643 0.958 . S
H658 C643 0.961 . S
H659 C643 0.960 . S
C660 C661 1.391 . S
C660 C662 1.394 . S
C660 H676 0.931 . S
C661 C660 1.391 . S
C661 C665 1.376 . S
C662 C660 1.394 . S
C662 C663 1.369 . S
C662 C666 1.531 . S
C663 C662 1.369 . S
C663 C664 1.410 . S
C663 C671 1.503 . S
C664 C663 1.410 . S
C664 C665 1.392 . S
C664 C667 1.511 . S
C665 C661 1.376 . S
C665 C664 1.392 . S
C665 H677 0.929 . S
C666 C662 1.531 . S
C666 H678 0.960 . S
C666 H679 0.962 . S
C666 H680 0.960 . S
C667 C664 1.511 . S
C667 H681 0.961 . S
C667 H682 0.961 . S
C667 H683 0.961 . S
C668 C669 1.370 . S
C668 C670 1.363 . S
C668 H684 0.931 . S
C669 C668 1.370 . S
C669 C673 1.408 . S
C670 C668 1.363 . S
C670 C671 1.370 . S
C670 C674 1.524 . S
C671 C663 1.503 . S
C671 C670 1.370 . S
C671 C672 1.403 . S
C672 C671 1.403 . S
C672 C673 1.404 . S
C672 C675 1.539 . S
C673 C669 1.408 . S
C673 C672 1.404 . S
C673 H685 0.930 . S
C674 C670 1.524 . S
C674 H686 0.956 . S
C674 H687 0.961 . S
C674 H688 0.961 . S
C675 C672 1.539 . S
C675 H689 0.958 . S
C675 H690 0.961 . S
C675 H691 0.960 . S
H676 C660 0.931 . S
H677 C665 0.929 . S
H678 C666 0.960 . S
H679 C666 0.962 . S
H680 C666 0.960 . S
H681 C667 0.961 . S
H682 C667 0.961 . S
H683 C667 0.961 . S
H684 C668 0.931 . S
H685 C673 0.930 . S
H686 C674 0.956 . S
H687 C674 0.961 . S
H688 C674 0.961 . S
H689 C675 0.958 . S
H690 C675 0.961 . S
H691 C675 0.960 . S
C692 C693 1.391 . S
C692 C694 1.394 . S
C692 H708 0.931 . S
C693 C692 1.391 . S
C693 C697 1.376 . S
C694 C692 1.394 . S
C694 C695 1.369 . S
C694 C698 1.531 . S
C695 C694 1.369 . S
C695 C696 1.410 . S
C695 C703 1.503 . S
C696 C695 1.410 . S
C696 C697 1.392 . S
C696 C699 1.511 . S
C697 C693 1.376 . S
C697 C696 1.392 . S
C697 H709 0.929 . S
C698 C694 1.531 . S
C698 H710 0.960 . S
C698 H711 0.962 . S
C698 H712 0.960 . S
C699 C696 1.511 . S
C699 H713 0.961 . S
C699 H714 0.961 . S
C699 H715 0.961 . S
C700 C701 1.370 . S
C700 C702 1.363 . S
C700 H716 0.931 . S
C701 C700 1.370 . S
C701 C705 1.408 . S
C702 C700 1.363 . S
C702 C703 1.370 . S
C702 C706 1.524 . S
C703 C695 1.503 . S
C703 C702 1.370 . S
C703 C704 1.403 . S
C704 C703 1.403 . S
C704 C705 1.404 . S
C704 C707 1.539 . S
C705 C701 1.408 . S
C705 C704 1.404 . S
C705 H717 0.930 . S
C706 C702 1.524 . S
C706 H718 0.956 . S
C706 H719 0.961 . S
C706 H720 0.961 . S
C707 C704 1.539 . S
C707 H721 0.958 . S
C707 H722 0.961 . S
C707 H723 0.960 . S
H708 C692 0.931 . S
H709 C697 0.929 . S
H710 C698 0.960 . S
H711 C698 0.962 . S
H712 C698 0.960 . S
H713 C699 0.961 . S
H714 C699 0.961 . S
H715 C699 0.961 . S
H716 C700 0.931 . S
H717 C705 0.930 . S
H718 C706 0.956 . S
H719 C706 0.961 . S
H720 C706 0.961 . S
H721 C707 0.958 . S
H722 C707 0.961 . S
H723 C707 0.960 . S
C724 C725 1.391 . S
C724 C726 1.394 . S
C724 H740 0.931 . S
C725 C724 1.391 . S
C725 C729 1.376 . S
C726 C724 1.394 . S
C726 C727 1.369 . S
C726 C730 1.531 . S
C727 C726 1.369 . S
C727 C728 1.410 . S
C727 C735 1.503 . S
C728 C727 1.410 . S
C728 C729 1.392 . S
C728 C731 1.511 . S
C729 C725 1.376 . S
C729 C728 1.392 . S
C729 H741 0.929 . S
C730 C726 1.531 . S
C730 H742 0.960 . S
C730 H743 0.962 . S
C730 H744 0.960 . S
C731 C728 1.511 . S
C731 H745 0.961 . S
C731 H746 0.961 . S
C731 H747 0.961 . S
C732 C733 1.370 . S
C732 C734 1.363 . S
C732 H748 0.931 . S
C733 C732 1.370 . S
C733 C737 1.408 . S
C734 C732 1.363 . S
C734 C735 1.370 . S
C734 C738 1.524 . S
C735 C727 1.503 . S
C735 C734 1.370 . S
C735 C736 1.403 . S
C736 C735 1.403 . S
C736 C737 1.404 . S
C736 C739 1.539 . S
C737 C733 1.408 . S
C737 C736 1.404 . S
C737 H749 0.930 . S
C738 C734 1.524 . S
C738 H750 0.956 . S
C738 H751 0.961 . S
C738 H752 0.961 . S
C739 C736 1.539 . S
C739 H753 0.958 . S
C739 H754 0.961 . S
C739 H755 0.960 . S
H740 C724 0.931 . S
H741 C729 0.929 . S
H742 C730 0.960 . S
H743 C730 0.962 . S
H744 C730 0.960 . S
H745 C731 0.961 . S
H746 C731 0.961 . S
H747 C731 0.961 . S
H748 C732 0.931 . S
H749 C737 0.930 . S
H750 C738 0.956 . S
H751 C738 0.961 . S
H752 C738 0.961 . S
H753 C739 0.958 . S
H754 C739 0.961 . S
H755 C739 0.960 . S
C756 C757 1.391 . S
C756 C758 1.394 . S
C756 H772 0.931 . S
C757 C756 1.391 . S
C757 C761 1.376 . S
C758 C756 1.394 . S
C758 C759 1.369 . S
C758 C762 1.531 . S
C759 C758 1.369 . S
C759 C760 1.410 . S
C759 C767 1.503 . S
C760 C759 1.410 . S
C760 C761 1.392 . S
C760 C763 1.511 . S
C761 C757 1.376 . S
C761 C760 1.392 . S
C761 H773 0.929 . S
C762 C758 1.531 . S
C762 H774 0.960 . S
C762 H775 0.962 . S
C762 H776 0.960 . S
C763 C760 1.511 . S
C763 H777 0.961 . S
C763 H778 0.961 . S
C763 H779 0.961 . S
C764 C765 1.370 . S
C764 C766 1.363 . S
C764 H780 0.931 . S
C765 C764 1.370 . S
C765 C769 1.408 . S
C766 C764 1.363 . S
C766 C767 1.370 . S
C766 C770 1.524 . S
C767 C759 1.503 . S
C767 C766 1.370 . S
C767 C768 1.403 . S
C768 C767 1.403 . S
C768 C769 1.404 . S
C768 C771 1.539 . S
C769 C765 1.408 . S
C769 C768 1.404 . S
C769 H781 0.930 . S
C770 C766 1.524 . S
C770 H782 0.956 . S
C770 H783 0.961 . S
C770 H784 0.961 . S
C771 C768 1.539 . S
C771 H785 0.958 . S
C771 H786 0.961 . S
C771 H787 0.960 . S
H772 C756 0.931 . S
H773 C761 0.929 . S
H774 C762 0.960 . S
H775 C762 0.962 . S
H776 C762 0.960 . S
H777 C763 0.961 . S
H778 C763 0.961 . S
H779 C763 0.961 . S
H780 C764 0.931 . S
H781 C769 0.930 . S
H782 C770 0.956 . S
H783 C770 0.961 . S
H784 C770 0.961 . S
H785 C771 0.958 . S
H786 C771 0.961 . S
H787 C771 0.960 . S
C788 C789 1.391 . S
C788 C790 1.394 . S
C788 H804 0.931 . S
C789 C788 1.391 . S
C789 C793 1.376 . S
C790 C788 1.394 . S
C790 C791 1.369 . S
C790 C794 1.531 . S
C791 C790 1.369 . S
C791 C792 1.410 . S
C791 C799 1.503 . S
C792 C791 1.410 . S
C792 C793 1.392 . S
C792 C795 1.511 . S
C793 C789 1.376 . S
C793 C792 1.392 . S
C793 H805 0.929 . S
C794 C790 1.531 . S
C794 H806 0.960 . S
C794 H807 0.962 . S
C794 H808 0.960 . S
C795 C792 1.511 . S
C795 H809 0.961 . S
C795 H810 0.961 . S
C795 H811 0.961 . S
C796 C797 1.370 . S
C796 C798 1.363 . S
C796 H812 0.931 . S
C797 C796 1.370 . S
C797 C801 1.408 . S
C798 C796 1.363 . S
C798 C799 1.370 . S
C798 C802 1.524 . S
C799 C791 1.503 . S
C799 C798 1.370 . S
C799 C800 1.403 . S
C800 C799 1.403 . S
C800 C801 1.404 . S
C800 C803 1.539 . S
C801 C797 1.408 . S
C801 C800 1.404 . S
C801 H813 0.930 . S
C802 C798 1.524 . S
C802 H814 0.956 . S
C802 H815 0.961 . S
C802 H816 0.961 . S
C803 C800 1.539 . S
C803 H817 0.958 . S
C803 H818 0.961 . S
C803 H819 0.960 . S
H804 C788 0.931 . S
H805 C793 0.929 . S
H806 C794 0.960 . S
H807 C794 0.962 . S
H808 C794 0.960 . S
H809 C795 0.961 . S
H810 C795 0.961 . S
H811 C795 0.961 . S
H812 C796 0.931 . S
H813 C801 0.930 . S
H814 C802 0.956 . S
H815 C802 0.961 . S
H816 C802 0.961 . S
H817 C803 0.958 . S
H818 C803 0.961 . S
H819 C803 0.960 . S
C820 C821 1.391 . S
C820 C822 1.394 . S
C820 H836 0.931 . S
C821 C820 1.391 . S
C821 C825 1.376 . S
C822 C820 1.394 . S
C822 C823 1.369 . S
C822 C826 1.531 . S
C823 C822 1.369 . S
C823 C824 1.410 . S
C823 C831 1.503 . S
C824 C823 1.410 . S
C824 C825 1.392 . S
C824 C827 1.511 . S
C825 C821 1.376 . S
C825 C824 1.392 . S
C825 H837 0.929 . S
C826 C822 1.531 . S
C826 H838 0.960 . S
C826 H839 0.962 . S
C826 H840 0.960 . S
C827 C824 1.511 . S
C827 H841 0.961 . S
C827 H842 0.961 . S
C827 H843 0.961 . S
C828 C829 1.370 . S
C828 C830 1.363 . S
C828 H844 0.931 . S
C829 C828 1.370 . S
C829 C833 1.408 . S
C830 C828 1.363 . S
C830 C831 1.370 . S
C830 C834 1.524 . S
C831 C823 1.503 . S
C831 C830 1.370 . S
C831 C832 1.403 . S
C832 C831 1.403 . S
C832 C833 1.404 . S
C832 C835 1.539 . S
C833 C829 1.408 . S
C833 C832 1.404 . S
C833 H845 0.930 . S
C834 C830 1.524 . S
C834 H846 0.956 . S
C834 H847 0.961 . S
C834 H848 0.961 . S
C835 C832 1.539 . S
C835 H849 0.958 . S
C835 H850 0.961 . S
C835 H851 0.960 . S
H836 C820 0.931 . S
H837 C825 0.929 . S
H838 C826 0.960 . S
H839 C826 0.962 . S
H840 C826 0.960 . S
H841 C827 0.961 . S
H842 C827 0.961 . S
H843 C827 0.961 . S
H844 C828 0.931 . S
H845 C833 0.930 . S
H846 C834 0.956 . S
H847 C834 0.961 . S
H848 C834 0.961 . S
H849 C835 0.958 . S
H850 C835 0.961 . S
H851 C835 0.960 . S
C852 C853 1.391 . S
C852 C854 1.394 . S
C852 H868 0.931 . S
C853 C852 1.391 . S
C853 C857 1.376 . S
C854 C852 1.394 . S
C854 C855 1.369 . S
C854 C858 1.531 . S
C855 C854 1.369 . S
C855 C856 1.410 . S
C855 C863 1.503 . S
C856 C855 1.410 . S
C856 C857 1.392 . S
C856 C859 1.511 . S
C857 C853 1.376 . S
C857 C856 1.392 . S
C857 H869 0.929 . S
C858 C854 1.531 . S
C858 H870 0.960 . S
C858 H871 0.962 . S
C858 H872 0.960 . S
C859 C856 1.511 . S
C859 H873 0.961 . S
C859 H874 0.961 . S
C859 H875 0.961 . S
C860 C861 1.370 . S
C860 C862 1.363 . S
C860 H876 0.931 . S
C861 C860 1.370 . S
C861 C865 1.408 . S
C862 C860 1.363 . S
C862 C863 1.370 . S
C862 C866 1.524 . S
C863 C855 1.503 . S
C863 C862 1.370 . S
C863 C864 1.403 . S
C864 C863 1.403 . S
C864 C865 1.404 . S
C864 C867 1.539 . S
C865 C861 1.408 . S
C865 C864 1.404 . S
C865 H877 0.930 . S
C866 C862 1.524 . S
C866 H878 0.956 . S
C866 H879 0.961 . S
C866 H880 0.961 . S
C867 C864 1.539 . S
C867 H881 0.958 . S
C867 H882 0.961 . S
C867 H883 0.960 . S
H868 C852 0.931 . S
H869 C857 0.929 . S
H870 C858 0.960 . S
H871 C858 0.962 . S
H872 C858 0.960 . S
H873 C859 0.961 . S
H874 C859 0.961 . S
H875 C859 0.961 . S
H876 C860 0.931 . S
H877 C865 0.930 . S
H878 C866 0.956 . S
H879 C866 0.961 . S
H880 C866 0.961 . S
H881 C867 0.958 . S
H882 C867 0.961 . S
H883 C867 0.960 . S
C884 C885 1.391 . S
C884 C886 1.394 . S
C884 H900 0.931 . S
C885 C884 1.391 . S
C885 C889 1.376 . S
C886 C884 1.394 . S
C886 C887 1.369 . S
C886 C890 1.531 . S
C887 C886 1.369 . S
C887 C888 1.410 . S
C887 C895 1.503 . S
C888 C887 1.410 . S
C888 C889 1.392 . S
C888 C891 1.511 . S
C889 C885 1.376 . S
C889 C888 1.392 . S
C889 H901 0.929 . S
C890 C886 1.531 . S
C890 H902 0.960 . S
C890 H903 0.962 . S
C890 H904 0.960 . S
C891 C888 1.511 . S
C891 H905 0.961 . S
C891 H906 0.961 . S
C891 H907 0.961 . S
C892 C893 1.370 . S
C892 C894 1.363 . S
C892 H908 0.931 . S
C893 C892 1.370 . S
C893 C897 1.408 . S
C894 C892 1.363 . S
C894 C895 1.370 . S
C894 C898 1.524 . S
C895 C887 1.503 . S
C895 C894 1.370 . S
C895 C896 1.403 . S
C896 C895 1.403 . S
C896 C897 1.404 . S
C896 C899 1.539 . S
C897 C893 1.408 . S
C897 C896 1.404 . S
C897 H909 0.930 . S
C898 C894 1.524 . S
C898 H910 0.956 . S
C898 H911 0.961 . S
C898 H912 0.961 . S
C899 C896 1.539 . S
C899 H913 0.958 . S
C899 H914 0.961 . S
C899 H915 0.960 . S
H900 C884 0.931 . S
H901 C889 0.929 . S
H902 C890 0.960 . S
H903 C890 0.962 . S
H904 C890 0.960 . S
H905 C891 0.961 . S
H906 C891 0.961 . S
H907 C891 0.961 . S
H908 C892 0.931 . S
H909 C897 0.930 . S
H910 C898 0.956 . S
H911 C898 0.961 . S
H912 C898 0.961 . S
H913 C899 0.958 . S
H914 C899 0.961 . S
H915 C899 0.960 . S
C916 C917 1.391 . S
C916 C918 1.394 . S
C916 H932 0.931 . S
C917 C916 1.391 . S
C917 C921 1.376 . S
C918 C916 1.394 . S
C918 C919 1.369 . S
C918 C922 1.531 . S
C919 C918 1.369 . S
C919 C920 1.410 . S
C919 C927 1.503 . S
C920 C919 1.410 . S
C920 C921 1.392 . S
C920 C923 1.511 . S
C921 C917 1.376 . S
C921 C920 1.392 . S
C921 H933 0.929 . S
C922 C918 1.531 . S
C922 H934 0.960 . S
C922 H935 0.962 . S
C922 H936 0.960 . S
C923 C920 1.511 . S
C923 H937 0.961 . S
C923 H938 0.961 . S
C923 H939 0.961 . S
C924 C925 1.370 . S
C924 C926 1.363 . S
C924 H940 0.931 . S
C925 C924 1.370 . S
C925 C929 1.408 . S
C926 C924 1.363 . S
C926 C927 1.370 . S
C926 C930 1.524 . S
C927 C919 1.503 . S
C927 C926 1.370 . S
C927 C928 1.403 . S
C928 C927 1.403 . S
C928 C929 1.404 . S
C928 C931 1.539 . S
C929 C925 1.408 . S
C929 C928 1.404 . S
C929 H941 0.930 . S
C930 C926 1.524 . S
C930 H942 0.956 . S
C930 H943 0.961 . S
C930 H944 0.961 . S
C931 C928 1.539 . S
C931 H945 0.958 . S
C931 H946 0.961 . S
C931 H947 0.960 . S
H932 C916 0.931 . S
H933 C921 0.929 . S
H934 C922 0.960 . S
H935 C922 0.962 . S
H936 C922 0.960 . S
H937 C923 0.961 . S
H938 C923 0.961 . S
H939 C923 0.961 . S
H940 C924 0.931 . S
H941 C929 0.930 . S
H942 C930 0.956 . S
H943 C930 0.961 . S
H944 C930 0.961 . S
H945 C931 0.958 . S
H946 C931 0.961 . S
H947 C931 0.960 . S
C181 C81 1.408 . S
C189 C112 1.338 . S
C221 C120 1.333 . S
C213 C93 1.382 . S
C253 C124 1.322 . S
C245 C57 1.392 . S
C277 C69 1.410 . S
C285 C100 1.350 . S
C317 C141 1.341 . S
C309 C33 1.386 . S
C349 C175 1.331 . S
C341 C45 1.393 . S
C373 C9 1.387 . S
C381 C163 1.326 . S
C405 C21 1.399 . S
C413 C145 1.320 . S
C445 C99 1.335 . S
C437 C18 1.482 . S
C477 C133 1.351 . S
C469 C6 1.488 . S
C509 C137 1.321 . S
C501 C42 1.471 . S
C541 C115 1.332 . S
C533 C30 1.466 . S
C573 C154 1.366 . S
C565 C66 1.474 . S
C597 C54 1.471 . S
C605 C162 1.325 . S
C637 C178 1.334 . S
C629 C90 1.482 . S
C661 C78 1.484 . S
C669 C158 1.358 . S
C701 C103 1.340 . S
C693 C4 1.523 . S
C733 C121 1.349 . S
C725 C16 1.514 . S
C757 C28 1.504 . S
C765 C136 1.381 . S
C797 C116 1.379 . S
C789 C40 1.506 . S
C829 C142 1.383 . S
C821 C52 1.508 . S
C853 C64 1.506 . S
C861 C166 1.380 . S
C885 C76 1.519 . S
C893 C179 1.356 . S
C917 C88 1.523 . S
C925 C157 1.343 . S
