# Generated by pormake.
# Topology hwx, (6,3)-cn, num edge types: 1
# Building blocks:
#     Node 0, Type 0, BuildingBlock: IZENUY_clean_sbu_0, # of connection points: 6
#     Node 1, Type 0, BuildingBlock: IZENUY_clean_sbu_0, # of connection points: 6
#     Node 2, Type 0, BuildingBlock: IZENUY_clean_sbu_0, # of connection points: 6
#     Node 3, Type 0, BuildingBlock: IZENUY_clean_sbu_0, # of connection points: 6
#     Node 4, Type 1, BuildingBlock: CUQRIR_clean_linker_1, # of connection points: 3
#     Node 5, Type 1, BuildingBlock: CUQRIR_clean_linker_1, # of connection points: 3
#     Node 6, Type 1, BuildingBlock: CUQRIR_clean_linker_1, # of connection points: 3
#     Node 7, Type 1, BuildingBlock: CUQRIR_clean_linker_1, # of connection points: 3
#     Node 8, Type 1, BuildingBlock: CUQRIR_clean_linker_1, # of connection points: 3
#     Node 9, Type 1, BuildingBlock: CUQRIR_clean_linker_1, # of connection points: 3
#     Node 10, Type 1, BuildingBlock: CUQRIR_clean_linker_1, # of connection points: 3
#     Node 11, Type 1, BuildingBlock: CUQRIR_clean_linker_1, # of connection points: 3
#     Edge 12, Type (0, 1), BuildingBlock: OJICUG_clean_linker_0, # of connection points: 2
#     Edge 13, Type (0, 1), BuildingBlock: OJICUG_clean_linker_0, # of connection points: 2
#     Edge 14, Type (0, 1), BuildingBlock: OJICUG_clean_linker_0, # of connection points: 2
#     Edge 15, Type (0, 1), BuildingBlock: OJICUG_clean_linker_0, # of connection points: 2
#     Edge 16, Type (0, 1), BuildingBlock: OJICUG_clean_linker_0, # of connection points: 2
#     Edge 17, Type (0, 1), BuildingBlock: OJICUG_clean_linker_0, # of connection points: 2
#     Edge 18, Type (0, 1), BuildingBlock: OJICUG_clean_linker_0, # of connection points: 2
#     Edge 19, Type (0, 1), BuildingBlock: OJICUG_clean_linker_0, # of connection points: 2
#     Edge 20, Type (0, 1), BuildingBlock: OJICUG_clean_linker_0, # of connection points: 2
#     Edge 21, Type (0, 1), BuildingBlock: OJICUG_clean_linker_0, # of connection points: 2
#     Edge 22, Type (0, 1), BuildingBlock: OJICUG_clean_linker_0, # of connection points: 2
#     Edge 23, Type (0, 1), BuildingBlock: OJICUG_clean_linker_0, # of connection points: 2
#     Edge 24, Type (0, 1), BuildingBlock: OJICUG_clean_linker_0, # of connection points: 2
#     Edge 25, Type (0, 1), BuildingBlock: OJICUG_clean_linker_0, # of connection points: 2
#     Edge 26, Type (0, 1), BuildingBlock: OJICUG_clean_linker_0, # of connection points: 2
#     Edge 27, Type (0, 1), BuildingBlock: OJICUG_clean_linker_0, # of connection points: 2
#     Edge 28, Type (0, 1), BuildingBlock: OJICUG_clean_linker_0, # of connection points: 2
#     Edge 29, Type (0, 1), BuildingBlock: OJICUG_clean_linker_0, # of connection points: 2
#     Edge 30, Type (0, 1), BuildingBlock: OJICUG_clean_linker_0, # of connection points: 2
#     Edge 31, Type (0, 1), BuildingBlock: OJICUG_clean_linker_0, # of connection points: 2
#     Edge 32, Type (0, 1), BuildingBlock: OJICUG_clean_linker_0, # of connection points: 2
#     Edge 33, Type (0, 1), BuildingBlock: OJICUG_clean_linker_0, # of connection points: 2
#     Edge 34, Type (0, 1), BuildingBlock: OJICUG_clean_linker_0, # of connection points: 2
#     Edge 35, Type (0, 1), BuildingBlock: OJICUG_clean_linker_0, # of connection points: 2
# Relax obj value: 0.001
# Max RMSD: 0.068
# Mean RMSD: 0.051
data_MOF--net-hwx--node1-IZENUY_clean_sbu_0--node2-CUQRIR_clean_linker_1--edge1-OJICUG_clean_linker_0
_symmetry_space_group_name_H-M    P1
_symmetry_Int_Tables_number       1
_symmetry_cell_setting            triclinic
loop_
_symmetry_equiv_pos_as_xyz
'x, y, z'
_cell_length_a     34.227773
_cell_length_b     34.263839
_cell_length_c     12.847915
_cell_angle_alpha  90.039228
_cell_angle_beta   90.770811
_cell_angle_gamma 89.873757
loop_
_atom_site_label
_atom_site_type_symbol
_atom_site_fract_x
_atom_site_fract_y
_atom_site_fract_z
_atom_type_partial_charge
Fe0 Fe 0.24159 0.24393 0.14788 0.0
Fe1 Fe 0.23828 0.24729 0.90731 0.0
O2 O 0.22226 0.2269 1.0268 0.0
Fe3 Fe 0.1868 0.18913 1.02436 0.0
O4 O 0.1528 0.21804 0.09975 0.0
O5 O 0.19556 0.23827 0.21808 0.0
O6 O 0.22648 0.29368 0.12149 0.0
C7 C 0.23391 0.31293 0.04079 0.0
C8 C 0.23709 0.166 0.19167 0.0
O9 O 0.24592 0.29655 0.95911 0.0
C10 C 0.23224 0.16645 0.86211 0.0
O11 O 0.29085 0.25245 0.09863 0.0
O12 O 0.28862 0.23362 0.93426 0.0
O13 O 0.20495 0.1645 0.1421 0.0
O14 O 0.25854 0.1957 0.18595 0.0
C15 C 0.16087 0.23952 0.86081 0.0
O16 O 0.23344 0.20163 0.8323 0.0
O17 O 0.21875 0.15756 0.94984 0.0
C18 C 0.3076 0.2411 1.01674 0.0
O19 O 0.18917 0.26268 0.87163 0.0
O20 O 0.16142 0.20654 0.90548 0.0
C21 C 0.16058 0.23328 0.18729 0.0
Fe22 Fe 0.27361 0.74547 0.65539 0.0
Fe23 Fe 0.32815 0.68955 0.53737 0.0
O24 O 0.29103 0.72612 0.53591 0.0
Fe25 Fe 0.27152 0.74319 0.41494 0.0
O26 O 0.28516 0.79321 0.44292 0.0
O27 O 0.26559 0.79494 0.60551 0.0
O28 O 0.32205 0.76151 0.69518 0.0
C29 C 0.35139 0.73948 0.70451 0.0
C30 C 0.20492 0.73889 0.54333 0.0
O31 O 0.3527 0.70718 0.65674 0.0
C32 C 0.27854 0.66563 0.3692 0.0
O33 O 0.27845 0.69938 0.72743 0.0
O34 O 0.29812 0.65635 0.61156 0.0
O35 O 0.22185 0.75071 0.46249 0.0
O36 O 0.22371 0.73124 0.62583 0.0
C37 C 0.35283 0.73501 0.37589 0.0
O38 O 0.31086 0.66475 0.41829 0.0
O39 O 0.25608 0.69463 0.37665 0.0
C40 C 0.28282 0.66438 0.69795 0.0
O41 O 0.36099 0.72001 0.46331 0.0
O42 O 0.31775 0.73881 0.34484 0.0
C43 C 0.27718 0.81195 0.52433 0.0
Fe44 Fe 0.77188 0.77982 0.90946 0.0
Fe45 Fe 0.77258 0.77985 0.14852 0.0
O46 O 0.79068 0.79811 1.02937 0.0
Fe47 Fe 0.82739 0.83457 0.03011 0.0
O48 O 0.81012 0.85835 0.90961 0.0
O49 O 0.75542 0.82808 0.86853 0.0
O50 O 0.72226 0.77118 0.95766 0.0
C51 C 0.70466 0.78552 0.03489 0.0
C52 C 0.85277 0.78805 0.87112 0.0
O53 O 0.72329 0.79568 0.11569 0.0
C54 C 0.85018 0.78539 0.19951 0.0
O55 O 0.78742 0.73051 0.94135 0.0
O56 O 0.76349 0.73027 0.09911 0.0
O57 O 0.86067 0.80351 0.95822 0.0
O58 O 0.81782 0.78478 0.83918 0.0
C59 C 0.78144 0.86068 0.18878 0.0
O60 O 0.8209 0.76319 0.19031 0.0
O61 O 0.85144 0.81751 0.15075 0.0
C62 C 0.77729 0.71226 1.02168 0.0
O63 O 0.77802 0.82586 0.21983 0.0
O64 O 0.79675 0.86827 0.10214 0.0
C65 C 0.7778 0.85716 0.86038 0.0
Fe66 Fe 0.6852 0.33505 0.52783 0.0
Fe67 Fe 0.74041 0.27987 0.64861 0.0
O68 O 0.7218 0.29831 0.52864 0.0
Fe69 Fe 0.73997 0.27991 0.40957 0.0
O70 O 0.73479 0.32599 0.33845 0.0
O71 O 0.71601 0.36852 0.45616 0.0
O72 O 0.70245 0.35867 0.64854 0.0
C73 C 0.73474 0.35724 0.6979 0.0
C74 C 0.66243 0.28608 0.35804 0.0
O75 O 0.75703 0.32799 0.68975 0.0
C76 C 0.73488 0.21235 0.53618 0.0
O77 O 0.65176 0.30422 0.59935 0.0
O78 O 0.69446 0.28524 0.7186 0.0
O79 O 0.69164 0.26366 0.3673 0.0
O80 O 0.66121 0.31819 0.40697 0.0
C81 C 0.80777 0.28492 0.52376 0.0
O82 O 0.7247 0.23069 0.61646 0.0
O83 O 0.74879 0.23025 0.45885 0.0
C84 C 0.65955 0.28871 0.68643 0.0
O85 O 0.79 0.27077 0.60077 0.0
O86 O 0.7893 0.29531 0.44287 0.0
C87 C 0.73138 0.36083 0.36958 0.0
C88 C 0.24039 0.50237 0.95159 0.0
N89 N 0.24595 0.54022 0.97948 0.0
N90 N 0.23364 0.47998 0.03661 0.0
C91 C 0.2416 0.48681 0.84187 0.0
C92 C 0.23495 0.50569 0.11679 0.0
N93 N 0.24211 0.54218 0.08218 0.0
C94 C 0.22953 0.49532 0.22938 0.0
H95 H 0.21182 0.47763 0.81757 0.0
H96 H 0.26087 0.46076 0.83893 0.0
H97 H 0.25141 0.50861 0.78458 0.0
H98 H 0.25862 0.49087 0.26667 0.0
H99 H 0.21217 0.4682 0.2373 0.0
H100 H 0.21472 0.51948 0.27092 0.0
C101 C 0.01317 0.74116 0.6212 0.0
N102 N 0.9758 0.7482 0.59066 0.0
N103 N 0.03733 0.74062 0.53841 0.0
C104 C 0.02552 0.73184 0.73137 0.0
C105 C 0.01297 0.74695 0.45577 0.0
N106 N 0.97557 0.75111 0.48746 0.0
C107 C 0.02598 0.7516 0.34503 0.0
H108 H 0.03341 0.75918 0.77275 0.0
H109 H 0.05128 0.71212 0.7326 0.0
H110 H 1.00123 0.71784 0.77378 0.0
H111 H 0.02935 0.72227 0.30965 0.0
H112 H 0.05459 0.76669 0.34239 0.0
H113 H 1.00437 0.76818 0.29754 0.0
C114 C 0.77562 0.52144 0.11263 0.0
N115 N 0.76966 0.48374 0.08501 0.0
N116 N 0.77805 0.54456 1.02742 0.0
C117 C 0.78189 0.53533 0.2228 0.0
C118 C 0.77397 0.51935 0.94658 0.0
N119 N 0.76935 0.48236 0.98153 0.0
C120 C 0.77166 0.53127 0.83393 0.0
H121 H 0.75341 0.54362 0.25665 0.0
H122 H 0.80125 0.56127 0.22488 0.0
H123 H 0.79501 0.51187 0.27153 0.0
H124 H 0.80172 0.53549 0.80483 0.0
H125 H 0.75566 0.55931 0.82539 0.0
H126 H 0.75712 0.50876 0.78506 0.0
C127 C 0.99798 0.27509 0.43553 0.0
N128 N 0.03574 0.26949 0.46581 0.0
N129 N 0.9754 0.28316 0.51883 0.0
C130 C 0.98282 0.27069 0.3255 0.0
C131 C 1.00085 0.28257 0.6005 0.0
N132 N 0.03749 0.27471 0.56835 0.0
C133 C 0.98974 0.28802 0.71239 0.0
H134 H 0.95735 0.2898 0.30984 0.0
H135 H 0.97334 0.24007 0.31322 0.0
H136 H 1.0058 0.27774 0.26848 0.0
H137 H 0.98559 0.25893 0.74847 0.0
H138 H 0.96218 0.30492 0.71869 0.0
H139 H 0.01338 0.30322 0.75615 0.0
C140 C 0.73859 0.01948 0.61194 0.0
N141 N 0.74331 0.98246 0.57706 0.0
N142 N 0.7345 0.04464 0.53105 0.0
C143 C 0.7408 0.03147 0.72458 0.0
C144 C 0.73702 0.02146 0.44588 0.0
N145 N 0.74305 0.98376 0.47358 0.0
C146 C 0.73076 0.03528 0.33567 0.0
H147 H 0.71071 0.03575 0.75356 0.0
H148 H 0.75671 0.05949 0.73314 0.0
H149 H 0.75538 0.00897 0.77351 0.0
H150 H 0.75923 0.04347 0.30187 0.0
H151 H 0.71134 0.06126 0.3335 0.0
H152 H 0.71769 0.01181 0.28696 0.0
C153 C 0.49915 0.24301 0.9367 0.0
N154 N 0.53656 0.24981 0.967 0.0
N155 N 0.47511 0.24255 1.01968 0.0
C156 C 0.48667 0.2338 0.82656 0.0
C157 C 0.49956 0.24869 0.10218 0.0
N158 N 0.53692 0.25266 0.07022 0.0
C159 C 0.48669 0.25336 0.21307 0.0
H160 H 0.47872 0.2612 0.78548 0.0
H161 H 0.4609 0.21419 0.82541 0.0
H162 H 0.51089 0.21972 0.7838 0.0
H163 H 0.48348 0.22403 0.2484 0.0
H164 H 0.45803 0.26848 0.21607 0.0
H165 H 0.50831 0.26992 0.26039 0.0
C166 C 0.27818 1.00459 0.44767 0.0
N167 N 0.27115 0.04166 0.47881 0.0
N168 N 0.27497 0.9793 0.52813 0.0
C169 C 0.28988 0.99356 0.33901 0.0
C170 C 0.26594 1.00256 0.60998 0.0
N171 N 0.26402 0.04058 0.58039 0.0
C172 C 0.2537 0.98767 0.7149 0.0
H173 H 0.26326 0.98775 0.29133 0.0
H174 H 0.30847 0.96699 0.33962 0.0
H175 H 0.30599 0.01784 0.30196 0.0
H176 H 0.27992 0.9846 0.76596 0.0
H177 H 0.23952 0.95869 0.70774 0.0
H178 H 0.23301 0.00811 0.75239 0.0
C179 C 0.51456 0.77877 0.12622 0.0
N180 N 0.47673 0.77319 0.09683 0.0
N181 N 0.53699 0.78604 0.04217 0.0
C182 C 0.53001 0.77486 0.23611 0.0
C183 C 0.51134 0.78497 0.96096 0.0
N184 N 0.47476 0.7776 0.99406 0.0
C185 C 0.52218 0.78952 0.84863 0.0
H186 H 0.55489 0.79467 0.25125 0.0
H187 H 0.54048 0.74452 0.24835 0.0
H188 H 0.50696 0.78139 0.29346 0.0
H189 H 0.52652 0.76016 0.81411 0.0
H190 H 0.54957 0.80647 0.84104 0.0
H191 H 0.4983 0.80425 0.80442 0.0
C192 C 0.09437 0.21969 0.25936 0.0
C193 C 0.12863 0.24215 0.26002 0.0
H194 H 0.03878 0.2095 0.32908 0.0
C195 C 0.13268 0.27246 0.33326 0.0
H196 H 0.09079 0.19566 0.20527 0.0
C197 C 0.10246 0.28098 0.40204 0.0
C198 C 0.06803 0.25886 0.4004 0.0
H199 H 0.15886 0.29017 0.33567 0.0
H200 H 0.10554 0.30549 0.45463 0.0
C201 C 0.06466 0.22758 0.33006 0.0
C202 C 0.2976 0.59939 0.7781 0.0
C203 C 0.27361 0.63261 0.77128 0.0
H204 H 0.3085 0.54464 0.8545 0.0
C205 C 0.24145 0.63583 0.83771 0.0
H206 H 0.32302 0.59654 0.72932 0.0
C207 C 0.23262 0.60566 0.90695 0.0
C208 C 0.2563 0.57226 0.91265 0.0
H209 H 0.22261 0.66126 0.83431 0.0
H210 H 0.20683 0.60797 0.95432 0.0
C211 C 0.28943 0.56985 0.84963 0.0
C212 C 0.90556 0.80641 0.31655 0.0
C213 C 0.88157 0.77633 0.27695 0.0
H214 H 0.95389 0.82172 0.4172 0.0
C215 C 0.888 0.73797 0.31236 0.0
H216 H 0.90128 0.83633 0.29169 0.0
C217 C 0.91841 0.72984 0.38338 0.0
C218 C 0.9422 0.75996 0.42216 0.0
H219 H 0.87015 0.71417 0.28332 0.0
H220 H 0.92382 0.69998 0.40718 0.0
C221 C 0.93541 0.79829 0.38888 0.0
C222 C 0.78255 0.39522 0.80891 0.0
C223 C 0.74394 0.38835 0.77487 0.0
H224 H 0.82081 0.43141 0.90173 0.0
C225 C 0.71374 0.41169 0.81515 0.0
H226 H 0.80642 0.37785 0.77927 0.0
C227 C 0.72199 0.44143 0.88666 0.0
C228 C 0.76056 0.44876 0.91835 0.0
H229 H 0.68363 0.40701 0.7913 0.0
H230 H 0.69848 0.45951 0.91533 0.0
C231 C 0.7908 0.42557 0.87907 0.0
C232 C 0.62447 0.23891 0.24518 0.0
C233 C 0.63106 0.27724 0.28049 0.0
H234 H 0.58847 0.20115 0.15047 0.0
C235 C 0.60722 0.3075 0.24078 0.0
H236 H 0.6422 0.21497 0.27431 0.0
C237 C 0.57734 0.29958 0.16847 0.0
C238 C 0.57036 0.26128 0.13533 0.0
H239 H 0.61163 0.3374 0.26558 0.0
H240 H 0.55896 0.32315 0.14009 0.0
C241 C 0.59402 0.23098 0.17417 0.0
C242 C 0.26953 0.10685 0.81299 0.0
C243 C 0.24142 0.13516 0.78767 0.0
H244 H 0.30012 0.05564 0.76335 0.0
C245 C 0.22159 0.13299 0.69139 0.0
H246 H 0.28531 0.10816 0.88658 0.0
C247 C 0.22891 0.10211 0.62271 0.0
C248 C 0.25717 0.07369 0.64773 0.0
H249 H 0.19951 0.15446 0.6709 0.0
H250 H 0.21175 0.09998 0.55165 0.0
C251 C 0.27783 0.07684 0.74282 0.0
C252 C 0.38003 0.77511 0.23108 0.0
C253 C 0.38458 0.74457 0.30335 0.0
H254 H 0.40662 0.80884 0.11054 0.0
C255 C 0.41916 0.72246 0.30318 0.0
H256 H 0.35359 0.79256 0.22941 0.0
C257 C 0.44867 0.73085 0.23244 0.0
C258 C 0.44477 0.76229 0.16289 0.0
H259 H 0.42313 0.69827 0.35657 0.0
H260 H 0.4748 0.71301 0.23268 0.0
C261 C 0.41007 0.78416 0.16232 0.0
C262 C 0.73004 0.89541 0.74949 0.0
C263 C 0.76864 0.88836 0.7836 0.0
H264 H 0.69182 0.93177 0.65668 0.0
C265 C 0.79885 0.91157 0.74352 0.0
H266 H 0.70615 0.87814 0.77897 0.0
C267 C 0.79062 0.94136 0.67211 0.0
C268 C 0.75208 0.94885 0.64032 0.0
H269 H 0.82894 0.90675 0.76742 0.0
H270 H 0.81415 0.95933 0.64356 0.0
C271 C 0.72181 0.9258 0.67943 0.0
C272 C 0.92077 0.79641 0.80583 0.0
C273 C 0.88456 0.77742 0.79958 0.0
H274 H 0.97755 0.80305 0.74024 0.0
C275 C 0.87839 0.74914 0.72149 0.0
H276 H 0.92619 0.81872 0.86403 0.0
C277 C 0.90815 0.73962 0.65213 0.0
C278 C 0.94424 0.75873 0.65843 0.0
H279 H 0.85074 0.73395 0.71507 0.0
H280 H 0.90324 0.71683 0.59521 0.0
C281 C 0.9501 0.78748 0.73513 0.0
C282 C 0.7219 0.42858 0.30078 0.0
C283 C 0.74166 0.3927 0.29745 0.0
H284 H 0.71415 0.48496 0.23161 0.0
C285 C 0.77027 0.38682 0.22122 0.0
H286 H 0.69929 0.43373 0.35738 0.0
C287 C 0.77937 0.41652 0.15086 0.0
C288 C 0.75952 0.45231 0.15418 0.0
H289 H 0.78602 0.35942 0.21698 0.0
H290 H 0.80237 0.41181 0.09533 0.0
C291 C 0.7304 0.45786 0.22895 0.0
C292 C 0.1055 0.21884 0.74316 0.0
C293 C 0.12936 0.24872 0.78406 0.0
H294 H 0.05787 0.20403 0.63966 0.0
C295 C 0.12342 0.2872 0.74874 0.0
H296 H 0.10945 0.18886 0.76792 0.0
C297 C 0.0938 0.29561 0.6758 0.0
C298 C 0.07023 0.26568 0.63543 0.0
H299 H 0.14123 0.31088 0.77867 0.0
H300 H 0.08888 0.32551 0.65159 0.0
C301 C 0.07632 0.22728 0.66919 0.0
C302 C 0.23136 0.63112 0.24883 0.0
C303 C 0.26907 0.63428 0.29319 0.0
H304 H 0.19327 0.59867 0.14622 0.0
C305 C 0.29803 0.60754 0.26255 0.0
H306 H 0.20835 0.65112 0.27087 0.0
C307 C 0.28941 0.57828 0.18996 0.0
C308 C 0.25176 0.57506 0.147 0.0
H309 H 0.32742 0.60919 0.29457 0.0
H310 H 0.31186 0.55756 0.16865 0.0
C311 C 0.22272 0.60149 0.17702 0.0
C312 C 0.3867 0.7877 0.8197 0.0
C313 C 0.38274 0.74943 0.78098 0.0
H314 H 0.41982 0.82661 0.91837 0.0
C315 C 0.4087 0.72044 0.81757 0.0
H316 H 0.3673 0.81073 0.79298 0.0
C317 C 0.43796 0.72953 0.89063 0.0
C318 C 0.44203 0.76772 0.92791 0.0
H319 H 0.40638 0.69064 0.78999 0.0
H320 H 0.45801 0.70698 0.91676 0.0
C321 C 0.41641 0.79681 0.89173 0.0
C322 C 0.74256 0.88683 0.33721 0.0
C323 C 0.77117 0.89259 0.26103 0.0
H324 H 0.71041 0.91196 0.46311 0.0
C325 C 0.79093 0.92838 0.25786 0.0
H326 H 0.7268 0.85949 0.34132 0.0
C327 C 0.78241 0.95769 0.32977 0.0
C328 C 0.75327 0.95227 0.40447 0.0
H329 H 0.81355 0.93344 0.20129 0.0
H330 H 0.79864 0.98474 0.32721 0.0
C331 C 0.73343 0.91656 0.40765 0.0
C332 C 0.59157 0.29754 0.75165 0.0
C333 C 0.62772 0.27828 0.75778 0.0
H334 H 0.53486 0.30461 0.81747 0.0
C335 C 0.63384 0.24996 0.83576 0.0
H336 H 0.5862 0.31988 0.69354 0.0
C337 C 0.60411 0.24068 0.9052 0.0
C338 C 0.56808 0.26008 0.89908 0.0
H339 H 0.66145 0.23457 0.84206 0.0
H340 H 0.60897 0.21788 0.96208 0.0
C341 C 0.56225 0.28884 0.82244 0.0
C342 C 0.27818 0.1375 0.33813 0.0
C343 C 0.24709 0.13408 0.26549 0.0
H344 H 0.30997 0.11039 0.46509 0.0
C345 C 0.2242 0.10007 0.26627 0.0
H346 H 0.29624 0.16341 0.34004 0.0
C347 C 0.23208 0.07031 0.33732 0.0
C348 C 0.26294 0.07369 0.40947 0.0
H349 H 0.20002 0.09635 0.21194 0.0
H350 H 0.21399 0.04442 0.33635 0.0
C351 C 0.28595 0.10749 0.40996 0.0
C352 C 0.25712 0.37658 0.1112 0.0
C353 C 0.23214 0.35573 0.04423 0.0
H354 H 0.27814 0.43289 0.15794 0.0
C355 C 0.20657 0.37607 0.97744 0.0
H356 H 0.27729 0.3613 0.16263 0.0
C357 C 0.20599 0.4169 0.97765 0.0
C358 C 0.23194 0.43795 0.04192 0.0
H359 H 0.18692 0.36035 0.92564 0.0
H360 H 0.18535 0.43198 0.92747 0.0
C361 C 0.25741 0.41738 0.10896 0.0
C362 C 0.14155 0.76092 0.61566 0.0
C363 C 0.16197 0.73812 0.54395 0.0
H364 H 0.08578 0.78127 0.66576 0.0
C365 C 0.14107 0.71585 0.4704 0.0
H366 H 0.1572 0.77878 0.67192 0.0
C367 C 0.10014 0.71592 0.4698 0.0
C368 C 0.07954 0.73933 0.54036 0.0
H369 H 0.15642 0.69805 0.41437 0.0
H370 H 0.0846 0.6977 0.41439 0.0
C371 C 0.10075 0.76207 0.6126 0.0
C372 C 0.80363 0.64802 0.95888 0.0
C373 C 0.77765 0.66908 1.02171 0.0
H374 H 0.82493 0.59146 0.9141 0.0
C375 C 0.75174 0.64849 0.08519 0.0
H376 H 0.82404 0.66315 0.90947 0.0
C377 C 0.75165 0.60777 0.0856 0.0
C378 C 0.77809 0.58665 1.02466 0.0
H379 H 0.73102 0.66385 0.13341 0.0
H380 H 0.73061 0.5927 0.13302 0.0
C381 C 0.80408 0.60711 0.96112 0.0
C382 C 0.87214 0.25772 0.58332 0.0
C383 C 0.85096 0.28533 0.52444 0.0
H384 H 0.92866 0.23492 0.62487 0.0
C385 C 0.87144 0.31301 0.46586 0.0
H386 H 0.85715 0.23595 0.62893 0.0
C387 C 0.91234 0.313 0.46617 0.0
C388 C 0.93338 0.2846 0.52233 0.0
H389 H 0.85584 0.33492 0.42082 0.0
H390 H 0.92762 0.33504 0.42228 0.0
C391 C 0.91295 0.25714 0.58136 0.0
C392 C 0.70861 0.14822 0.59906 0.0
C393 C 0.73457 0.16917 0.53623 0.0
H394 H 0.68744 0.09176 0.64404 0.0
C395 C 0.76058 0.14845 0.47298 0.0
H396 H 0.68814 0.16346 0.64833 0.0
C397 C 0.76078 0.10774 0.47278 0.0
C398 C 0.73436 0.08673 0.5337 0.0
H399 H 0.7813 0.16371 0.42479 0.0
H400 H 0.78189 0.09257 0.42553 0.0
C401 C 0.70827 0.10732 0.59704 0.0
C402 C 0.37159 0.21792 0.08848 0.0
C403 C 0.35052 0.24031 1.01542 0.0
H404 H 0.42818 0.19961 0.14367 0.0
C405 C 0.37075 0.26314 0.9437 0.0
H406 H 0.35638 0.20008 0.14449 0.0
C407 C 0.41155 0.26421 0.94632 0.0
C408 C 0.43292 0.24136 1.01812 0.0
H409 H 0.35496 0.28108 0.8878 0.0
H410 H 0.4264 0.28343 0.89318 0.0
C411 C 0.4125 0.21791 0.08863 0.0
C412 C 0.29721 0.87551 0.60275 0.0
C413 C 0.27808 0.85487 0.52273 0.0
H414 H 0.3128 0.93169 0.66408 0.0
C415 C 0.25855 0.87553 0.44349 0.0
H416 H 0.31254 0.86003 0.66451 0.0
C417 C 0.25727 0.9163 0.44578 0.0
C418 C 0.27674 0.93718 0.52515 0.0
H419 H 0.24315 0.8601 0.38184 0.0
H420 H 0.24041 0.93147 0.38657 0.0
C421 C 0.29713 0.91635 0.60291 0.0
C422 C 0.64134 0.81473 0.09269 0.0
C423 C 0.66147 0.78651 0.0346 0.0
H424 H 0.58547 0.83775 0.13634 0.0
C425 C 0.63993 0.75894 0.97676 0.0
H426 H 0.65723 0.83662 0.1369 0.0
C427 C 0.59911 0.75891 0.97936 0.0
C428 C 0.57903 0.78692 0.03789 0.0
H429 H 0.65464 0.73677 0.93158 0.0
H430 H 0.58313 0.73668 0.93677 0.0
C431 C 0.60044 0.81528 0.09294 0.0
loop_
_geom_bond_atom_site_label_1
_geom_bond_atom_site_label_2
_geom_bond_distance
_geom_bond_site_symmetry_2
_ccdc_geom_bond_type
Fe0 O2 1.922 . S
Fe0 O5 1.997 . S
Fe0 O6 2.002 . S
Fe0 O11 1.976 . S
Fe0 O14 1.996 . S
Fe1 O2 1.915 1_556 S
Fe1 O9 1.997 . S
Fe1 O12 1.996 . S
Fe1 O16 1.976 . S
Fe1 O19 2.002 . S
O2 Fe0 1.922 . S
O2 Fe1 1.915 1_554 S
O2 Fe3 1.918 1_554 S
Fe3 O2 1.918 1_556 S
Fe3 O4 1.997 1_556 S
Fe3 O13 1.970 1_556 S
Fe3 O17 2.001 . S
Fe3 O20 2.002 . S
O4 Fe3 1.997 1_554 S
O4 C21 1.295 . S
O5 Fe0 1.997 . S
O5 C21 1.235 . S
O6 Fe0 2.002 . S
O6 C7 1.295 . S
C7 O6 1.295 . S
C7 O9 1.235 1_554 S
C8 O13 1.287 . S
C8 O14 1.255 . S
O9 Fe1 1.997 . S
O9 C7 1.235 1_556 S
C10 O16 1.287 . S
C10 O17 1.255 . S
O11 Fe0 1.976 . S
O11 C18 1.287 1_554 S
O12 Fe1 1.996 . S
O12 C18 1.255 . S
O13 Fe3 1.970 1_554 S
O13 C8 1.287 . S
O14 Fe0 1.996 . S
O14 C8 1.255 . S
C15 O19 1.295 . S
C15 O20 1.235 . S
O16 Fe1 1.976 . S
O16 C10 1.287 . S
O17 Fe3 2.001 . S
O17 C10 1.255 . S
C18 O11 1.287 1_556 S
C18 O12 1.255 . S
O19 Fe1 2.002 . S
O19 C15 1.295 . S
O20 Fe3 2.002 . S
O20 C15 1.235 . S
C21 O4 1.295 . S
C21 O5 1.235 . S
Fe22 O24 1.918 . S
Fe22 O27 1.997 . S
Fe22 O28 2.002 . S
Fe22 O33 1.976 . S
Fe22 O36 1.996 . S
Fe23 O24 1.918 . S
Fe23 O31 1.997 . S
Fe23 O34 1.996 . S
Fe23 O38 1.976 . S
Fe23 O41 2.002 . S
O24 Fe22 1.918 . S
O24 Fe23 1.918 . S
O24 Fe25 1.918 . S
Fe25 O24 1.918 . S
Fe25 O26 2.002 . S
Fe25 O35 1.976 . S
Fe25 O39 1.996 . S
Fe25 O42 1.997 . S
O26 Fe25 2.002 . S
O26 C43 1.295 . S
O27 Fe22 1.997 . S
O27 C43 1.235 . S
O28 Fe22 2.002 . S
O28 C29 1.295 . S
C29 O28 1.295 . S
C29 O31 1.235 . S
C30 O35 1.287 . S
C30 O36 1.255 . S
O31 Fe23 1.997 . S
O31 C29 1.235 . S
C32 O38 1.287 . S
C32 O39 1.255 . S
O33 Fe22 1.976 . S
O33 C40 1.287 . S
O34 Fe23 1.996 . S
O34 C40 1.255 . S
O35 Fe25 1.976 . S
O35 C30 1.287 . S
O36 Fe22 1.996 . S
O36 C30 1.255 . S
C37 O41 1.295 . S
C37 O42 1.235 . S
O38 Fe23 1.976 . S
O38 C32 1.287 . S
O39 Fe25 1.996 . S
O39 C32 1.255 . S
C40 O33 1.287 . S
C40 O34 1.255 . S
O41 Fe23 2.002 . S
O41 C37 1.295 . S
O42 Fe25 1.997 . S
O42 C37 1.235 . S
C43 O26 1.295 . S
C43 O27 1.235 . S
Fe44 O46 1.911 1_556 S
Fe44 O49 1.997 . S
Fe44 O50 2.002 . S
Fe44 O55 1.976 . S
Fe44 O58 1.996 . S
Fe45 O46 1.926 . S
Fe45 O53 1.997 . S
Fe45 O56 1.996 . S
Fe45 O60 1.976 . S
Fe45 O63 2.002 . S
O46 Fe44 1.911 1_554 S
O46 Fe45 1.926 . S
O46 Fe47 1.918 . S
Fe47 O46 1.918 . S
Fe47 O48 2.002 1_554 S
Fe47 O57 1.976 1_554 S
Fe47 O61 1.996 . S
Fe47 O64 1.997 . S
O48 Fe47 2.002 1_556 S
O48 C65 1.295 . S
O49 Fe44 1.997 . S
O49 C65 1.235 . S
O50 Fe44 2.002 . S
O50 C51 1.295 . S
C51 O50 1.295 . S
C51 O53 1.235 1_556 S
C52 O57 1.287 . S
C52 O58 1.255 . S
O53 Fe45 1.997 . S
O53 C51 1.235 1_554 S
C54 O60 1.287 . S
C54 O61 1.255 . S
O55 Fe44 1.976 . S
O55 C62 1.287 1_556 S
O56 Fe45 1.996 . S
O56 C62 1.255 . S
O57 Fe47 1.976 1_556 S
O57 C52 1.287 . S
O58 Fe44 1.996 . S
O58 C52 1.255 . S
C59 O63 1.295 . S
C59 O64 1.235 . S
O60 Fe45 1.976 . S
O60 C54 1.287 . S
O61 Fe47 1.996 . S
O61 C54 1.255 . S
C62 O55 1.287 1_554 S
C62 O56 1.255 . S
O63 Fe45 2.002 . S
O63 C59 1.295 . S
O64 Fe47 1.997 . S
O64 C59 1.235 . S
C65 O48 1.295 . S
C65 O49 1.235 . S
Fe66 O68 1.918 . S
Fe66 O71 1.997 . S
Fe66 O72 2.002 . S
Fe66 O77 1.976 . S
Fe66 O80 1.996 . S
Fe67 O68 1.918 . S
Fe67 O75 1.997 . S
Fe67 O78 1.996 . S
Fe67 O82 1.976 . S
Fe67 O85 2.002 . S
O68 Fe66 1.918 . S
O68 Fe67 1.918 . S
O68 Fe69 1.918 . S
Fe69 O68 1.918 . S
Fe69 O70 2.002 . S
Fe69 O79 1.976 . S
Fe69 O83 1.996 . S
Fe69 O86 1.997 . S
O70 Fe69 2.002 . S
O70 C87 1.295 . S
O71 Fe66 1.997 . S
O71 C87 1.235 . S
O72 Fe66 2.002 . S
O72 C73 1.295 . S
C73 O72 1.295 . S
C73 O75 1.235 . S
C74 O79 1.287 . S
C74 O80 1.255 . S
O75 Fe67 1.997 . S
O75 C73 1.235 . S
C76 O82 1.287 . S
C76 O83 1.255 . S
O77 Fe66 1.976 . S
O77 C84 1.287 . S
O78 Fe67 1.996 . S
O78 C84 1.255 . S
O79 Fe69 1.976 . S
O79 C74 1.287 . S
O80 Fe66 1.996 . S
O80 C74 1.255 . S
C81 O85 1.295 . S
C81 O86 1.235 . S
O82 Fe67 1.976 . S
O82 C76 1.287 . S
O83 Fe69 1.996 . S
O83 C76 1.255 . S
C84 O77 1.287 . S
C84 O78 1.255 . S
O85 Fe67 2.002 . S
O85 C81 1.295 . S
O86 Fe69 1.997 . S
O86 C81 1.235 . S
C87 O70 1.295 . S
C87 O71 1.235 . S
C88 N89 1.317 . S
C88 N90 1.348 . S
C88 C91 1.485 . S
N89 C88 1.317 . S
N89 N93 1.370 1_556 S
N90 C88 1.348 . S
N90 C92 1.346 1_556 S
C91 C88 1.485 . S
C91 H95 0.960 . S
C91 H96 0.961 . S
C91 H97 0.960 . S
C92 N90 1.346 1_554 S
C92 N93 1.307 . S
C92 C94 1.486 . S
N93 N89 1.370 1_554 S
N93 C92 1.307 . S
C94 C92 1.486 . S
C94 H98 0.960 . S
C94 H99 0.960 . S
C94 H100 0.959 . S
H95 C91 0.960 . S
H96 C91 0.961 . S
H97 C91 0.960 . S
H98 C94 0.960 . S
H99 C94 0.960 . S
H100 C94 0.959 . S
C101 N102 1.317 1_455 S
C101 N103 1.348 . S
C101 C104 1.485 . S
N102 C101 1.317 1_655 S
N102 N106 1.370 . S
N103 C101 1.348 . S
N103 C105 1.346 . S
C104 C101 1.485 . S
C104 H108 0.960 . S
C104 H109 0.961 . S
C104 H110 0.960 1_455 S
C105 N103 1.346 . S
C105 N106 1.307 1_455 S
C105 C107 1.486 . S
N106 N102 1.370 . S
N106 C105 1.307 1_655 S
C107 C105 1.486 . S
C107 H111 0.960 . S
C107 H112 0.960 . S
C107 H113 0.959 . S
H108 C104 0.960 . S
H109 C104 0.961 . S
H110 C104 0.960 1_655 S
H111 C107 0.960 . S
H112 C107 0.960 . S
H113 C107 0.959 . S
C114 N115 1.317 . S
C114 N116 1.348 . S
C114 C117 1.485 . S
N115 C114 1.317 . S
N115 N119 1.370 1_554 S
N116 C114 1.348 . S
N116 C118 1.346 1_554 S
C117 C114 1.485 . S
C117 H121 0.960 . S
C117 H122 0.961 . S
C117 H123 0.960 . S
C118 N116 1.346 1_556 S
C118 N119 1.307 . S
C118 C120 1.486 . S
N119 N115 1.370 1_556 S
N119 C118 1.307 . S
C120 C118 1.486 . S
C120 H124 0.960 . S
C120 H125 0.960 . S
C120 H126 0.959 . S
H121 C117 0.960 . S
H122 C117 0.961 . S
H123 C117 0.960 . S
H124 C120 0.960 . S
H125 C120 0.960 . S
H126 C120 0.959 . S
C127 N128 1.317 1_655 S
C127 N129 1.348 . S
C127 C130 1.485 . S
N128 C127 1.317 1_455 S
N128 N132 1.370 . S
N129 C127 1.348 . S
N129 C131 1.346 . S
C130 C127 1.485 . S
C130 H134 0.960 . S
C130 H135 0.961 . S
C130 H136 0.960 . S
C131 N129 1.346 . S
C131 N132 1.307 1_655 S
C131 C133 1.486 . S
N132 N128 1.370 . S
N132 C131 1.307 1_455 S
C133 C131 1.486 . S
C133 H137 0.960 . S
C133 H138 0.960 . S
C133 H139 0.959 . S
H134 C130 0.960 . S
H135 C130 0.961 . S
H136 C130 0.960 . S
H137 C133 0.960 . S
H138 C133 0.960 . S
H139 C133 0.959 . S
C140 N141 1.317 1_545 S
C140 N142 1.348 . S
C140 C143 1.485 . S
N141 C140 1.317 1_565 S
N141 N145 1.370 . S
N142 C140 1.348 . S
N142 C144 1.346 . S
C143 C140 1.485 . S
C143 H147 0.960 . S
C143 H148 0.961 . S
C143 H149 0.960 . S
C144 N142 1.346 . S
C144 N145 1.307 1_545 S
C144 C146 1.486 . S
N145 N141 1.370 . S
N145 C144 1.307 1_565 S
C146 C144 1.486 . S
C146 H150 0.960 . S
C146 H151 0.960 . S
C146 H152 0.959 . S
H147 C143 0.960 . S
H148 C143 0.961 . S
H149 C143 0.960 . S
H150 C146 0.960 . S
H151 C146 0.960 . S
H152 C146 0.959 . S
C153 N154 1.317 . S
C153 N155 1.348 . S
C153 C156 1.485 . S
N154 C153 1.317 . S
N154 N158 1.370 1_556 S
N155 C153 1.348 . S
N155 C157 1.346 1_556 S
C156 C153 1.485 . S
C156 H160 0.960 . S
C156 H161 0.961 . S
C156 H162 0.960 . S
C157 N155 1.346 1_554 S
C157 N158 1.307 . S
C157 C159 1.486 . S
N158 N154 1.370 1_554 S
N158 C157 1.307 . S
C159 C157 1.486 . S
C159 H163 0.960 . S
C159 H164 0.960 . S
C159 H165 0.959 . S
H160 C156 0.960 . S
H161 C156 0.961 . S
H162 C156 0.960 . S
H163 C159 0.960 . S
H164 C159 0.960 . S
H165 C159 0.959 . S
C166 N167 1.317 1_565 S
C166 N168 1.348 . S
C166 C169 1.485 . S
N167 C166 1.317 1_545 S
N167 N171 1.370 . S
N168 C166 1.348 . S
N168 C170 1.346 . S
C169 C166 1.485 . S
C169 H173 0.960 . S
C169 H174 0.961 . S
C169 H175 0.960 1_565 S
C170 N168 1.346 . S
C170 N171 1.307 1_565 S
C170 C172 1.486 . S
N171 N167 1.370 . S
N171 C170 1.307 1_545 S
C172 C170 1.486 . S
C172 H176 0.960 . S
C172 H177 0.960 . S
C172 H178 0.948 1_565 S
H173 C169 0.960 . S
H174 C169 0.961 . S
H175 C169 0.960 1_545 S
H176 C172 0.960 . S
H177 C172 0.960 . S
H178 C172 0.948 1_545 S
C179 N180 1.317 . S
C179 N181 1.348 . S
C179 C182 1.485 . S
N180 C179 1.317 . S
N180 N184 1.370 1_554 S
N181 C179 1.348 . S
N181 C183 1.346 1_554 S
C182 C179 1.485 . S
C182 H186 0.960 . S
C182 H187 0.961 . S
C182 H188 0.960 . S
C183 N181 1.346 1_556 S
C183 N184 1.307 . S
C183 C185 1.486 . S
N184 N180 1.370 1_556 S
N184 C183 1.307 . S
C185 C183 1.486 . S
C185 H189 0.960 . S
C185 H190 0.960 . S
C185 H191 0.959 . S
H186 C182 0.960 . S
H187 C182 0.961 . S
H188 C182 0.960 . S
H189 C185 0.960 . S
H190 C185 0.960 . S
H191 C185 0.959 . S
C192 C193 1.387 . S
C192 H196 0.950 . S
C192 C201 1.390 . S
C193 C192 1.387 . S
C193 C195 1.387 . S
H194 C201 0.950 . S
C195 C193 1.387 . S
C195 C197 1.390 . S
C195 H199 0.950 . S
H196 C192 0.950 . S
C197 C195 1.390 . S
C197 C198 1.387 . S
C197 H200 0.950 . S
C198 C197 1.387 . S
C198 C201 1.387 . S
H199 C195 0.950 . S
H200 C197 0.950 . S
C201 C192 1.390 . S
C201 H194 0.950 . S
C201 C198 1.387 . S
C202 C203 1.387 . S
C202 H206 0.950 . S
C202 C211 1.390 . S
C203 C202 1.387 . S
C203 C205 1.387 . S
H204 C211 0.950 . S
C205 C203 1.387 . S
C205 C207 1.390 . S
C205 H209 0.950 . S
H206 C202 0.950 . S
C207 C205 1.390 . S
C207 C208 1.387 . S
C207 H210 0.950 . S
C208 C207 1.387 . S
C208 C211 1.387 . S
H209 C205 0.950 . S
H210 C207 0.950 . S
C211 C202 1.390 . S
C211 H204 0.950 . S
C211 C208 1.387 . S
C212 C213 1.387 . S
C212 H216 0.950 . S
C212 C221 1.390 . S
C213 C212 1.387 . S
C213 C215 1.387 . S
H214 C221 0.950 . S
C215 C213 1.387 . S
C215 C217 1.390 . S
C215 H219 0.950 . S
H216 C212 0.950 . S
C217 C215 1.390 . S
C217 C218 1.387 . S
C217 H220 0.950 . S
C218 C217 1.387 . S
C218 C221 1.387 . S
H219 C215 0.950 . S
H220 C217 0.950 . S
C221 C212 1.390 . S
C221 H214 0.950 . S
C221 C218 1.387 . S
C222 C223 1.387 . S
C222 H226 0.950 . S
C222 C231 1.390 . S
C223 C222 1.387 . S
C223 C225 1.387 . S
H224 C231 0.950 . S
C225 C223 1.387 . S
C225 C227 1.390 . S
C225 H229 0.950 . S
H226 C222 0.950 . S
C227 C225 1.390 . S
C227 C228 1.387 . S
C227 H230 0.950 . S
C228 C227 1.387 . S
C228 C231 1.387 . S
H229 C225 0.950 . S
H230 C227 0.950 . S
C231 C222 1.390 . S
C231 H224 0.950 . S
C231 C228 1.387 . S
C232 C233 1.387 . S
C232 H236 0.950 . S
C232 C241 1.390 . S
C233 C232 1.387 . S
C233 C235 1.387 . S
H234 C241 0.950 . S
C235 C233 1.387 . S
C235 C237 1.390 . S
C235 H239 0.950 . S
H236 C232 0.950 . S
C237 C235 1.390 . S
C237 C238 1.387 . S
C237 H240 0.950 . S
C238 C237 1.387 . S
C238 C241 1.387 . S
H239 C235 0.950 . S
H240 C237 0.950 . S
C241 C232 1.390 . S
C241 H234 0.950 . S
C241 C238 1.387 . S
C242 C243 1.387 . S
C242 H246 0.950 . S
C242 C251 1.390 . S
C243 C242 1.387 . S
C243 C245 1.387 . S
H244 C251 0.950 . S
C245 C243 1.387 . S
C245 C247 1.390 . S
C245 H249 0.950 . S
H246 C242 0.950 . S
C247 C245 1.390 . S
C247 C248 1.387 . S
C247 H250 0.950 . S
C248 C247 1.387 . S
C248 C251 1.387 . S
H249 C245 0.950 . S
H250 C247 0.950 . S
C251 C242 1.390 . S
C251 H244 0.950 . S
C251 C248 1.387 . S
C252 C253 1.387 . S
C252 H256 0.950 . S
C252 C261 1.390 . S
C253 C252 1.387 . S
C253 C255 1.387 . S
H254 C261 0.950 . S
C255 C253 1.387 . S
C255 C257 1.390 . S
C255 H259 0.950 . S
H256 C252 0.950 . S
C257 C255 1.390 . S
C257 C258 1.387 . S
C257 H260 0.950 . S
C258 C257 1.387 . S
C258 C261 1.387 . S
H259 C255 0.950 . S
H260 C257 0.950 . S
C261 C252 1.390 . S
C261 H254 0.950 . S
C261 C258 1.387 . S
C262 C263 1.387 . S
C262 H266 0.950 . S
C262 C271 1.390 . S
C263 C262 1.387 . S
C263 C265 1.387 . S
H264 C271 0.950 . S
C265 C263 1.387 . S
C265 C267 1.390 . S
C265 H269 0.950 . S
H266 C262 0.950 . S
C267 C265 1.390 . S
C267 C268 1.387 . S
C267 H270 0.950 . S
C268 C267 1.387 . S
C268 C271 1.387 . S
H269 C265 0.950 . S
H270 C267 0.950 . S
C271 C262 1.390 . S
C271 H264 0.950 . S
C271 C268 1.387 . S
C272 C273 1.387 . S
C272 H276 0.950 . S
C272 C281 1.390 . S
C273 C272 1.387 . S
C273 C275 1.387 . S
H274 C281 0.950 . S
C275 C273 1.387 . S
C275 C277 1.390 . S
C275 H279 0.950 . S
H276 C272 0.950 . S
C277 C275 1.390 . S
C277 C278 1.387 . S
C277 H280 0.950 . S
C278 C277 1.387 . S
C278 C281 1.387 . S
H279 C275 0.950 . S
H280 C277 0.950 . S
C281 C272 1.390 . S
C281 H274 0.950 . S
C281 C278 1.387 . S
C282 C283 1.387 . S
C282 H286 0.950 . S
C282 C291 1.390 . S
C283 C282 1.387 . S
C283 C285 1.387 . S
H284 C291 0.950 . S
C285 C283 1.387 . S
C285 C287 1.390 . S
C285 H289 0.950 . S
H286 C282 0.950 . S
C287 C285 1.390 . S
C287 C288 1.387 . S
C287 H290 0.950 . S
C288 C287 1.387 . S
C288 C291 1.387 . S
H289 C285 0.950 . S
H290 C287 0.950 . S
C291 C282 1.390 . S
C291 H284 0.950 . S
C291 C288 1.387 . S
C292 C293 1.387 . S
C292 H296 0.950 . S
C292 C301 1.390 . S
C293 C292 1.387 . S
C293 C295 1.387 . S
H294 C301 0.950 . S
C295 C293 1.387 . S
C295 C297 1.390 . S
C295 H299 0.950 . S
H296 C292 0.950 . S
C297 C295 1.390 . S
C297 C298 1.387 . S
C297 H300 0.950 . S
C298 C297 1.387 . S
C298 C301 1.387 . S
H299 C295 0.950 . S
H300 C297 0.950 . S
C301 C292 1.390 . S
C301 H294 0.950 . S
C301 C298 1.387 . S
C302 C303 1.387 . S
C302 H306 0.950 . S
C302 C311 1.390 . S
C303 C302 1.387 . S
C303 C305 1.387 . S
H304 C311 0.950 . S
C305 C303 1.387 . S
C305 C307 1.390 . S
C305 H309 0.950 . S
H306 C302 0.950 . S
C307 C305 1.390 . S
C307 C308 1.387 . S
C307 H310 0.950 . S
C308 C307 1.387 . S
C308 C311 1.387 . S
H309 C305 0.950 . S
H310 C307 0.950 . S
C311 C302 1.390 . S
C311 H304 0.950 . S
C311 C308 1.387 . S
C312 C313 1.387 . S
C312 H316 0.950 . S
C312 C321 1.390 . S
C313 C312 1.387 . S
C313 C315 1.387 . S
H314 C321 0.950 . S
C315 C313 1.387 . S
C315 C317 1.390 . S
C315 H319 0.950 . S
H316 C312 0.950 . S
C317 C315 1.390 . S
C317 C318 1.387 . S
C317 H320 0.950 . S
C318 C317 1.387 . S
C318 C321 1.387 . S
H319 C315 0.950 . S
H320 C317 0.950 . S
C321 C312 1.390 . S
C321 H314 0.950 . S
C321 C318 1.387 . S
C322 C323 1.387 . S
C322 H326 0.950 . S
C322 C331 1.390 . S
C323 C322 1.387 . S
C323 C325 1.387 . S
H324 C331 0.950 . S
C325 C323 1.387 . S
C325 C327 1.390 . S
C325 H329 0.950 . S
H326 C322 0.950 . S
C327 C325 1.390 . S
C327 C328 1.387 . S
C327 H330 0.950 . S
C328 C327 1.387 . S
C328 C331 1.387 . S
H329 C325 0.950 . S
H330 C327 0.950 . S
C331 C322 1.390 . S
C331 H324 0.950 . S
C331 C328 1.387 . S
C332 C333 1.387 . S
C332 H336 0.950 . S
C332 C341 1.390 . S
C333 C332 1.387 . S
C333 C335 1.387 . S
H334 C341 0.950 . S
C335 C333 1.387 . S
C335 C337 1.390 . S
C335 H339 0.950 . S
H336 C332 0.950 . S
C337 C335 1.390 . S
C337 C338 1.387 . S
C337 H340 0.950 . S
C338 C337 1.387 . S
C338 C341 1.387 . S
H339 C335 0.950 . S
H340 C337 0.950 . S
C341 C332 1.390 . S
C341 H334 0.950 . S
C341 C338 1.387 . S
C342 C343 1.387 . S
C342 H346 0.950 . S
C342 C351 1.390 . S
C343 C342 1.387 . S
C343 C345 1.387 . S
H344 C351 0.950 . S
C345 C343 1.387 . S
C345 C347 1.390 . S
C345 H349 0.950 . S
H346 C342 0.950 . S
C347 C345 1.390 . S
C347 C348 1.387 . S
C347 H350 0.950 . S
C348 C347 1.387 . S
C348 C351 1.387 . S
H349 C345 0.950 . S
H350 C347 0.950 . S
C351 C342 1.390 . S
C351 H344 0.950 . S
C351 C348 1.387 . S
C352 C353 1.387 . S
C352 H356 0.950 . S
C352 C361 1.390 . S
C353 C352 1.387 . S
C353 C355 1.387 1_554 S
H354 C361 0.950 . S
C355 C353 1.387 1_556 S
C355 C357 1.390 . S
C355 H359 0.950 . S
H356 C352 0.950 . S
C357 C355 1.390 . S
C357 C358 1.380 1_556 S
C357 H360 0.950 . S
C358 C357 1.380 1_554 S
C358 C361 1.395 . S
H359 C355 0.950 . S
H360 C357 0.950 . S
C361 C352 1.390 . S
C361 H354 0.950 . S
C361 C358 1.395 . S
C362 C363 1.387 . S
C362 H366 0.950 . S
C362 C371 1.390 . S
C363 C362 1.387 . S
C363 C365 1.387 . S
H364 C371 0.950 . S
C365 C363 1.387 . S
C365 C367 1.390 . S
C365 H369 0.950 . S
H366 C362 0.950 . S
C367 C365 1.390 . S
C367 C368 1.387 . S
C367 H370 0.950 . S
C368 C367 1.387 . S
C368 C371 1.387 . S
H369 C365 0.950 . S
H370 C367 0.950 . S
C371 C362 1.390 . S
C371 H364 0.950 . S
C371 C368 1.387 . S
C372 C373 1.387 1_556 S
C372 H376 0.950 . S
C372 C381 1.390 . S
C373 C372 1.387 1_554 S
C373 C375 1.387 . S
H374 C381 0.950 . S
C375 C373 1.387 . S
C375 C377 1.390 . S
C375 H379 0.950 . S
H376 C372 0.950 . S
C377 C375 1.390 . S
C377 C378 1.396 . S
C377 H380 0.950 . S
C378 C377 1.396 . S
C378 C381 1.379 1_554 S
H379 C375 0.950 . S
H380 C377 0.950 . S
C381 C372 1.390 . S
C381 H374 0.950 . S
C381 C378 1.379 1_556 S
C382 C383 1.387 . S
C382 H386 0.950 . S
C382 C391 1.390 . S
C383 C382 1.387 . S
C383 C385 1.387 . S
H384 C391 0.950 . S
C385 C383 1.387 . S
C385 C387 1.390 . S
C385 H389 0.950 . S
H386 C382 0.950 . S
C387 C385 1.390 . S
C387 C388 1.387 . S
C387 H390 0.950 . S
C388 C387 1.387 . S
C388 C391 1.387 . S
H389 C385 0.950 . S
H390 C387 0.950 . S
C391 C382 1.390 . S
C391 H384 0.950 . S
C391 C388 1.387 . S
C392 C393 1.387 . S
C392 H396 0.950 . S
C392 C401 1.390 . S
C393 C392 1.387 . S
C393 C395 1.387 . S
H394 C401 0.950 . S
C395 C393 1.387 . S
C395 C397 1.390 . S
C395 H399 0.950 . S
H396 C392 0.950 . S
C397 C395 1.390 . S
C397 C398 1.387 . S
C397 H400 0.950 . S
C398 C397 1.387 . S
C398 C401 1.387 . S
H399 C395 0.950 . S
H400 C397 0.950 . S
C401 C392 1.390 . S
C401 H394 0.950 . S
C401 C398 1.387 . S
C402 C403 1.385 1_554 S
C402 H406 0.950 . S
C402 C411 1.390 . S
C403 C402 1.385 1_556 S
C403 C405 1.390 . S
H404 C411 0.950 . S
C405 C403 1.390 . S
C405 C407 1.390 . S
C405 H409 0.950 . S
H406 C402 0.950 . S
C407 C405 1.390 . S
C407 C408 1.384 1_556 S
C407 H410 0.950 . S
C408 C407 1.384 1_554 S
C408 C411 1.391 . S
H409 C405 0.950 . S
H410 C407 0.950 . S
C411 C402 1.390 . S
C411 H404 0.950 . S
C411 C408 1.391 . S
C412 C413 1.387 . S
C412 H416 0.950 . S
C412 C421 1.390 . S
C413 C412 1.387 . S
C413 C415 1.387 . S
H414 C421 0.950 . S
C415 C413 1.387 . S
C415 C417 1.390 . S
C415 H419 0.950 . S
H416 C412 0.950 . S
C417 C415 1.390 . S
C417 C418 1.387 . S
C417 H420 0.950 . S
C418 C417 1.387 . S
C418 C421 1.387 . S
H419 C415 0.950 . S
H420 C417 0.950 . S
C421 C412 1.390 . S
C421 H414 0.950 . S
C421 C418 1.387 . S
C422 C423 1.386 1_554 S
C422 H426 0.950 . S
C422 C431 1.390 . S
C423 C422 1.386 1_556 S
C423 C425 1.389 . S
H424 C431 0.950 . S
C425 C423 1.389 . S
C425 C427 1.390 . S
C425 H429 0.950 . S
H426 C422 0.950 . S
C427 C425 1.390 . S
C427 C428 1.384 1_556 S
C427 H430 0.950 . S
C428 C427 1.384 1_554 S
C428 C431 1.391 . S
H429 C425 0.950 . S
H430 C427 0.950 . S
C431 C422 1.390 . S
C431 H424 0.950 . S
C431 C428 1.391 . S
C193 C21 1.506 . S
C198 N128 1.513 . S
C203 C40 1.490 . S
C208 N89 1.479 . S
C218 N106 1.469 . S
C213 C54 1.469 . S
C223 C73 1.504 . S
C228 N119 1.510 . S
C238 N158 1.468 . S
C233 C74 1.469 . S
C248 N171 1.486 . S
C243 C10 1.490 . S
C258 N180 1.512 . S
C253 C37 1.506 . S
C268 N141 1.504 . S
C263 C65 1.504 . S
C273 C52 1.468 . S
C278 N102 1.465 . S
C283 C87 1.504 . S
C288 N115 1.512 . S
C293 C15 1.505 . S
C298 N132 1.515 . S
C308 N93 1.485 . S
C303 C32 1.489 . S
C313 C29 1.506 . S
C318 N184 1.515 . S
C328 N145 1.510 . S
C323 C59 1.504 . S
C338 N154 1.465 . S
C333 C84 1.468 . S
C343 C8 1.489 . S
C348 N167 1.487 . S
C358 N90 1.510 1_554 S
C353 C7 1.506 . S
C368 N103 1.485 . S
C363 C30 1.483 . S
C373 C62 1.505 . S
C378 N116 1.504 . S
C383 C81 1.502 . S
C388 N129 1.511 . S
C398 N142 1.499 . S
C393 C76 1.505 . S
C403 C18 1.482 . S
C408 N155 1.484 1_554 S
C413 C43 1.504 . S
C418 N168 1.515 . S
C423 C51 1.501 . S
C428 N181 1.512 . S
