# Generated by pormake.
# Topology zzz, (3,6)-cn, num edge types: 1
# Building blocks:
#     Node 0, Type 0, BuildingBlock: BETDAH_clean_linker_0, # of connection points: 3
#     Node 1, Type 0, BuildingBlock: BETDAH_clean_linker_0, # of connection points: 3
#     Node 2, Type 0, BuildingBlock: BETDAH_clean_linker_0, # of connection points: 3
#     Node 3, Type 0, BuildingBlock: BETDAH_clean_linker_0, # of connection points: 3
#     Node 4, Type 0, BuildingBlock: BETDAH_clean_linker_0, # of connection points: 3
#     Node 5, Type 0, BuildingBlock: BETDAH_clean_linker_0, # of connection points: 3
#     Node 6, Type 0, BuildingBlock: BETDAH_clean_linker_0, # of connection points: 3
#     Node 7, Type 0, BuildingBlock: BETDAH_clean_linker_0, # of connection points: 3
#     Node 8, Type 1, BuildingBlock: INOVEN_clean_sbu_0, # of connection points: 6
#     Node 9, Type 1, BuildingBlock: INOVEN_clean_sbu_0, # of connection points: 6
#     Node 10, Type 1, BuildingBlock: INOVEN_clean_sbu_0, # of connection points: 6
#     Node 11, Type 1, BuildingBlock: INOVEN_clean_sbu_0, # of connection points: 6
#     Edge 12, Type (0, 1), BuildingBlock: MIFKUJ_clean_linker_0, # of connection points: 2
#     Edge 13, Type (0, 1), BuildingBlock: MIFKUJ_clean_linker_0, # of connection points: 2
#     Edge 14, Type (0, 1), BuildingBlock: MIFKUJ_clean_linker_0, # of connection points: 2
#     Edge 15, Type (0, 1), BuildingBlock: MIFKUJ_clean_linker_0, # of connection points: 2
#     Edge 16, Type (0, 1), BuildingBlock: MIFKUJ_clean_linker_0, # of connection points: 2
#     Edge 17, Type (0, 1), BuildingBlock: MIFKUJ_clean_linker_0, # of connection points: 2
#     Edge 18, Type (0, 1), BuildingBlock: MIFKUJ_clean_linker_0, # of connection points: 2
#     Edge 19, Type (0, 1), BuildingBlock: MIFKUJ_clean_linker_0, # of connection points: 2
#     Edge 20, Type (0, 1), BuildingBlock: MIFKUJ_clean_linker_0, # of connection points: 2
#     Edge 21, Type (0, 1), BuildingBlock: MIFKUJ_clean_linker_0, # of connection points: 2
#     Edge 22, Type (0, 1), BuildingBlock: MIFKUJ_clean_linker_0, # of connection points: 2
#     Edge 23, Type (0, 1), BuildingBlock: MIFKUJ_clean_linker_0, # of connection points: 2
#     Edge 24, Type (0, 1), BuildingBlock: MIFKUJ_clean_linker_0, # of connection points: 2
#     Edge 25, Type (0, 1), BuildingBlock: MIFKUJ_clean_linker_0, # of connection points: 2
#     Edge 26, Type (0, 1), BuildingBlock: MIFKUJ_clean_linker_0, # of connection points: 2
#     Edge 27, Type (0, 1), BuildingBlock: MIFKUJ_clean_linker_0, # of connection points: 2
#     Edge 28, Type (0, 1), BuildingBlock: MIFKUJ_clean_linker_0, # of connection points: 2
#     Edge 29, Type (0, 1), BuildingBlock: MIFKUJ_clean_linker_0, # of connection points: 2
#     Edge 30, Type (0, 1), BuildingBlock: MIFKUJ_clean_linker_0, # of connection points: 2
#     Edge 31, Type (0, 1), BuildingBlock: MIFKUJ_clean_linker_0, # of connection points: 2
#     Edge 32, Type (0, 1), BuildingBlock: MIFKUJ_clean_linker_0, # of connection points: 2
#     Edge 33, Type (0, 1), BuildingBlock: MIFKUJ_clean_linker_0, # of connection points: 2
#     Edge 34, Type (0, 1), BuildingBlock: MIFKUJ_clean_linker_0, # of connection points: 2
#     Edge 35, Type (0, 1), BuildingBlock: MIFKUJ_clean_linker_0, # of connection points: 2
# Relax obj value: 0.219
# Max RMSD: 0.171
# Mean RMSD: 0.158
data_MOF--net-zzz--node1-INOVEN_clean_sbu_0--node2-BETDAH_clean_linker_0--edge1-MIFKUJ_clean_linker_0
_symmetry_space_group_name_H-M    P1
_symmetry_Int_Tables_number       1
_symmetry_cell_setting            triclinic
loop_
_symmetry_equiv_pos_as_xyz
'x, y, z'
_cell_length_a     68.760275
_cell_length_b     68.733433
_cell_length_c     17.288065
_cell_angle_alpha  90.156306
_cell_angle_beta   89.999944
_cell_angle_gamma 89.982721
loop_
_atom_site_label
_atom_site_type_symbol
_atom_site_fract_x
_atom_site_fract_y
_atom_site_fract_z
_atom_type_partial_charge
H0 H 0.79135 0.54022 0.27679 0.0
H1 H 0.73364 0.52988 0.19224 0.0
H2 H 0.75296 0.50309 0.40479 0.0
C3 C 0.77699 0.53404 0.28516 0.0
C4 C 0.77385 0.52194 0.34887 0.0
C5 C 0.76266 0.53694 0.22861 0.0
C6 C 0.74453 0.52785 0.23673 0.0
C7 C 0.74076 0.51579 0.30082 0.0
C8 C 0.75562 0.51267 0.35629 0.0
N9 N 0.72242 0.5063 0.3098 0.0
C10 C 0.70685 0.50796 0.258 0.0
H11 H 0.98317 0.78969 0.28198 0.0
H12 H 0.99316 0.73182 0.1984 0.0
H13 H 0.00923 0.74732 0.43244 0.0
C14 C 0.98776 0.77485 0.29322 0.0
C15 C 0.99597 0.77025 0.36491 0.0
C16 C 0.98693 0.7611 0.23342 0.0
C17 C 0.99359 0.74215 0.2458 0.0
C18 C 1.00122 0.73682 0.3183 0.0
C19 C 1.00276 0.7511 0.37736 0.0
N20 N 0.00786 0.71746 0.33235 0.0
C21 C 0.00698 0.70233 0.27799 0.0
H22 H 0.7344 0.99848 0.21175 0.0
H23 H 0.79579 0.9964 0.17544 0.0
H24 H 0.77294 0.00993 0.40267 0.0
C25 C 0.74895 1.00007 0.23509 0.0
C26 C 0.75142 1.00469 0.31338 0.0
C27 C 0.76483 0.99719 0.1859 0.0
C28 C 0.78372 0.99875 0.21452 0.0
C29 C 0.78687 1.00357 0.2928 0.0
C30 C 0.77061 1.00623 0.34245 0.0
N31 N 0.80612 1.00614 0.3221 0.0
C32 C 0.82282 1.00572 0.27568 0.0
H33 H 0.48885 0.72866 0.23244 0.0
H34 H 0.50266 0.78605 0.15205 0.0
H35 H 0.52688 0.76504 0.36665 0.0
C36 C 0.49585 0.74262 0.24169 0.0
C37 C 0.50763 0.74515 0.30699 0.0
C38 C 0.49419 0.7572 0.18533 0.0
C39 C 0.50396 0.7749 0.19588 0.0
C40 C 0.51556 0.77802 0.26188 0.0
C41 C 0.5176 0.76292 0.3167 0.0
N42 N 0.52558 0.79596 0.27363 0.0
C43 C 0.52452 0.81182 0.22328 0.0
H44 H 0.22787 0.53093 0.13777 0.0
H45 H 0.28744 0.52013 0.19569 0.0
H46 H 0.26577 0.50489 0.9688 0.0
C47 C 0.24226 0.5262 0.12016 0.0
C48 C 0.24485 0.51829 0.04609 0.0
C49 C 0.25751 0.52679 0.17398 0.0
C50 C 0.27588 0.5198 0.15321 0.0
C51 C 0.27916 0.51215 0.07876 0.0
C52 C 0.26345 0.51112 0.02568 0.0
N53 N 0.29794 0.50517 0.05673 0.0
C54 C 0.31438 0.50591 0.10458 0.0
H55 H 1.00497 0.22235 0.1501 0.0
H56 H 1.00481 0.28309 0.2059 0.0
H57 H 0.02235 0.26381 0.9777 0.0
C58 C 0.00766 0.23728 0.13277 0.0
C59 C 0.01408 0.24106 0.05764 0.0
C60 C 1.00432 0.25235 0.18574 0.0
C61 C 0.00744 0.27164 0.16403 0.0
C62 C 0.01421 0.276 0.08913 0.0
C63 C 0.0172 0.2606 0.03548 0.0
N64 N 0.01834 0.29558 0.06716 0.0
C65 C 0.01752 0.31147 0.11799 0.0
H66 H 0.30303 0.99237 0.13545 0.0
H67 H 0.24432 1.00274 0.20836 0.0
H68 H 0.26405 0.02377 0.98669 0.0
C69 C 0.28862 0.99797 0.12308 0.0
C70 C 0.2854 0.00787 0.05343 0.0
C71 C 0.27394 0.99613 0.17902 0.0
C72 C 0.25556 1.00417 0.1649 0.0
C73 C 0.25178 0.01404 0.09521 0.0
C74 C 0.26685 0.01603 0.04006 0.0
N75 N 0.23308 0.02214 0.07947 0.0
C76 C 0.2171 0.02085 0.12932 0.0
H77 H 0.53751 0.29696 0.12665 0.0
H78 H 0.53088 0.23681 0.18735 0.0
H79 H 0.4986 0.26084 0.99566 0.0
C80 C 0.53128 0.28274 0.11512 0.0
C81 C 0.51779 0.28084 0.05498 0.0
C82 C 0.53624 0.26693 0.16248 0.0
C83 C 0.52729 0.24888 0.14985 0.0
C84 C 0.51368 0.24651 0.08962 0.0
C85 C 0.50922 0.26251 0.04149 0.0
N86 N 0.50392 0.22843 0.07766 0.0
C87 C 0.50546 0.21244 0.12713 0.0
Gd88 Gd 0.02906 1.00192 0.76269 0.0
Gd89 Gd 0.00735 0.013 0.61089 0.0
C90 C 0.01361 0.96747 0.64322 0.0
C91 C 0.03952 0.98697 0.89265 0.0
C92 C 0.03431 0.9686 0.93138 0.0
C93 C 0.04482 0.95153 0.91556 0.0
C94 C 0.01755 0.96751 0.97787 0.0
C95 C 0.02015 0.93232 0.9805 0.0
C96 C 0.0105 0.9495 0.00196 0.0
C97 C 0.03777 0.93355 0.93962 0.0
C98 C 0.05196 0.01378 0.64468 0.0
C99 C 0.01799 0.04675 0.73983 0.0
C100 C 1.00136 0.02865 0.47836 0.0
C101 C 0.99343 0.04815 0.46181 0.0
C102 C 0.97807 0.0506 0.40912 0.0
C103 C 1.00003 0.06429 0.50444 0.0
C104 C 0.97545 0.0847 0.44584 0.0
C105 C 0.99103 0.08229 0.49703 0.0
C106 C 0.96925 0.06887 0.40049 0.0
C107 C 0.98088 0.00928 0.72769 0.0
O108 O 0.02056 0.97228 0.71256 0.0
O109 O 0.00842 0.98064 0.59134 0.0
O110 O 0.04992 0.9854 0.82936 0.0
O111 O 0.0255 0.99979 0.88643 0.0
O112 O 0.05509 0.01803 0.71684 0.0
O113 O 0.03714 1.00296 0.63891 0.0
O114 O 0.01303 0.04236 0.66776 0.0
O115 O 0.02327 0.03329 0.78998 0.0
O116 O 0.98909 0.01628 0.50917 0.0
O117 O 0.01852 0.02838 0.51161 0.0
O118 O 0.97639 0.01364 0.65696 0.0
O119 O 0.99904 1.00704 0.73099 0.0
H120 H 0.05794 0.95192 0.88087 0.0
H121 H 0.00932 0.98045 0.99239 0.0
H122 H 0.99707 0.94896 0.03469 0.0
H123 H 0.0455 0.92056 0.92187 0.0
H124 H 0.97272 0.03835 0.37575 0.0
H125 H 0.01202 0.06304 0.54459 0.0
H126 H 0.9964 0.09445 0.53094 0.0
H127 H 0.95742 0.07057 0.35972 0.0
Gd128 Gd 0.52345 0.02043 0.74837 0.0
Gd129 Gd 0.51061 1.00413 0.60005 0.0
C130 C 0.55556 0.00808 0.61882 0.0
C131 C 0.54257 0.02468 0.87497 0.0
C132 C 0.56063 0.01464 0.89607 0.0
C133 C 0.57541 0.02461 0.93512 0.0
C134 C 0.56417 0.99578 0.86758 0.0
C135 C 0.59749 0.99747 0.91251 0.0
C136 C 0.58243 0.98727 0.87579 0.0
C137 C 0.59373 0.01606 0.94354 0.0
C138 C 0.51427 0.04815 0.64365 0.0
C139 C 0.47787 0.01693 0.73013 0.0
C140 C 0.49115 0.99587 0.47734 0.0
C141 C 0.47051 0.98988 0.47264 0.0
C142 C 0.4656 0.97008 0.46537 0.0
C143 C 0.45563 1.00347 0.48686 0.0
C144 C 0.43192 0.97743 0.4963 0.0
C145 C 0.43658 0.99729 0.49892 0.0
C146 C 0.44643 0.96391 0.47691 0.0
C147 C 0.51967 0.97674 0.70704 0.0
O148 O 0.55104 0.00804 0.69323 0.0
O149 O 0.54167 0.00958 0.56651 0.0
O150 O 0.54422 0.03677 0.8171 0.0
O151 O 0.52717 0.01362 0.86961 0.0
O152 O 0.51087 0.04965 0.71733 0.0
O153 O 0.52334 0.03256 0.62937 0.0
O154 O 0.48187 0.01244 0.6573 0.0
O155 O 0.49192 0.01956 0.78104 0.0
O156 O 0.50285 0.98341 0.5104 0.0
O157 O 0.49439 0.01378 0.49992 0.0
O158 O 0.52386 0.97527 0.63418 0.0
O159 O 0.51035 0.99225 0.71907 0.0
H160 H 0.57303 0.03927 0.9563 0.0
H161 H 0.55304 0.98788 0.83621 0.0
H162 H 0.58489 0.97288 0.85199 0.0
H163 H 0.60517 0.02433 0.97142 0.0
H164 H 0.47673 0.95928 0.45412 0.0
H165 H 0.45878 0.01886 0.49213 0.0
H166 H 0.42551 0.00808 0.51142 0.0
H167 H 0.4431 0.94853 0.47347 0.0
Gd168 Gd 0.50278 0.5198 0.75185 0.0
Gd169 Gd 0.5222 0.50394 0.58987 0.0
C170 C 0.51406 0.55015 0.61063 0.0
C171 C 0.49883 0.53932 0.87667 0.0
C172 C 0.49158 0.5595 0.88266 0.0
C173 C 0.47436 0.56367 0.92311 0.0
C174 C 0.50051 0.57434 0.83936 0.0
C175 C 0.47464 0.59676 0.87311 0.0
C176 C 0.49211 0.59269 0.83451 0.0
C177 C 0.466 0.58223 0.91877 0.0
C178 C 0.47581 0.51561 0.6364 0.0
C179 C 0.50987 0.47356 0.73034 0.0
C180 C 0.527 0.48481 0.46403 0.0
C181 C 0.53519 0.46502 0.45463 0.0
C182 C 0.55516 0.46139 0.46576 0.0
C183 C 0.52247 0.44916 0.44642 0.0
C184 C 0.54899 0.42662 0.47015 0.0
C185 C 0.52927 0.43018 0.45485 0.0
C186 C 0.56202 0.44231 0.47294 0.0
C187 C 0.54914 0.50801 0.70559 0.0
O188 O 0.50898 0.54721 0.6838 0.0
O189 O 0.51881 0.53589 0.56196 0.0
O190 O 0.48593 0.52629 0.85497 0.0
O191 O 0.5157 0.53727 0.84197 0.0
O192 O 0.47165 0.52146 0.70595 0.0
O193 O 0.49381 0.51227 0.63471 0.0
O194 O 0.51495 0.47652 0.65697 0.0
O195 O 0.50571 0.48792 0.77944 0.0
O196 O 0.53905 0.49863 0.48576 0.0
O197 O 0.51033 0.48547 0.50076 0.0
O198 O 0.55335 0.50274 0.63541 0.0
O199 O 0.53109 0.51103 0.70743 0.0
H200 H 0.46713 0.55246 0.9563 0.0
H201 H 0.5138 0.57174 0.80735 0.0
H202 H 0.49941 0.60377 0.80076 0.0
H203 H 0.4526 0.58511 0.94974 0.0
H204 H 0.56539 0.47327 0.47232 0.0
H205 H 0.50704 0.45145 0.43738 0.0
H206 H 0.51902 0.41825 0.45073 0.0
H207 H 0.57733 0.43985 0.48396 0.0
Gd208 Gd 1.00237 0.50149 0.76306 0.0
Gd209 Gd 0.01645 0.5161 0.61508 0.0
C210 C 0.97007 0.51166 0.6392 0.0
C211 C 0.99047 0.49797 0.90307 0.0
C212 C 0.97182 0.50533 0.93434 0.0
C213 C 0.95567 0.49285 0.93829 0.0
C214 C 0.969 0.52541 0.94627 0.0
C215 C 0.93407 0.52065 0.9518 0.0
C216 C 0.95029 0.53301 0.95487 0.0
C217 C 0.93697 0.50045 0.94653 0.0
C218 C 1.00581 0.47324 0.65381 0.0
C219 C 0.04935 0.50531 0.73722 0.0
C220 C 0.02897 0.5241 0.47905 0.0
C221 C 0.04959 0.52727 0.458 0.0
C222 C 0.05838 0.54548 0.47104 0.0
C223 C 0.06145 0.51126 0.4393 0.0
C224 C 0.09038 0.53081 0.46042 0.0
C225 C 0.08165 0.51299 0.441 0.0
C226 C 0.07861 0.54722 0.47235 0.0
C227 C 0.01344 0.54361 0.72758 0.0
O228 O 0.97389 0.51188 0.71394 0.0
O229 O 0.98446 0.51078 0.58856 0.0
O230 O 0.98898 0.48391 0.85222 0.0
O231 O 1.00314 0.51119 0.8824 0.0
O232 O 0.99204 0.47397 0.7048 0.0
O233 O 0.01783 0.48682 0.66567 0.0
O234 O 0.0457 0.50801 0.66313 0.0
O235 O 0.03493 0.50355 0.78759 0.0
O236 O 0.02115 0.53726 0.52419 0.0
O237 O 0.02453 0.50638 0.50026 0.0
O238 O 0.02804 0.54209 0.68071 0.0
O239 O 1.00098 0.53068 0.71238 0.0
H240 H 0.95737 0.47731 0.93005 0.0
H241 H 0.98112 0.53543 0.94436 0.0
H242 H 0.94847 0.54862 0.95945 0.0
H243 H 0.9247 0.49057 0.94605 0.0
H244 H 0.04969 0.55815 0.48514 0.0
H245 H 0.05518 0.49707 0.42813 0.0
H246 H 0.09045 0.50023 0.42946 0.0
H247 H 0.08501 0.56116 0.4869 0.0
H248 H 0.18519 0.99829 0.11064 0.0
H249 H 0.15627 0.99715 0.19408 0.0
H250 H 0.18187 0.0405 0.34366 0.0
H251 H 0.21089 0.04134 0.26071 0.0
H252 H 0.16585 0.01267 0.42778 0.0
H253 H 0.14472 0.05127 0.21156 0.0
H254 H 0.13869 0.05836 0.07386 0.0
H255 H 0.10054 0.00906 0.05829 0.0
H256 H 0.10654 1.00152 0.19571 0.0
H257 H 0.08369 0.03734 0.64924 0.0
H258 H 0.11065 0.03891 0.55738 0.0
H259 H 0.08214 0.9964 0.41256 0.0
H260 H 0.05474 0.99526 0.50373 0.0
H261 H 0.09931 0.02271 0.32437 0.0
H262 H 0.12 0.98399 0.53887 0.0
H263 H 0.1258 0.97643 0.67632 0.0
H264 H 0.1648 0.02502 0.69438 0.0
H265 H 0.15902 0.03303 0.55724 0.0
C266 C 0.18458 0.00753 0.16147 0.0
C267 C 0.20016 0.01992 0.17946 0.0
C268 C 0.16801 1.00698 0.2089 0.0
C269 C 0.16666 0.01894 0.27494 0.0
C270 C 0.18246 0.03115 0.29316 0.0
C271 C 0.19902 0.03167 0.24576 0.0
C272 C 0.14897 0.01859 0.32565 0.0
C273 C 0.15134 0.01513 0.40515 0.0
C274 C 0.12988 0.0212 0.2963 0.0
C275 C 0.12624 0.02572 0.21372 0.0
C276 C 0.13517 0.04185 0.17862 0.0
C277 C 0.13173 0.04597 0.10065 0.0
C278 C 0.11928 0.03414 0.0573 0.0
C279 C 0.1102 0.01819 0.0919 0.0
C280 C 0.1136 0.014 0.16984 0.0
C281 C 0.08306 0.02846 0.59743 0.0
C282 C 0.06716 0.01605 0.58414 0.0
C283 C 0.09858 0.02926 0.54507 0.0
C284 C 0.09879 0.0174 0.47866 0.0
C285 C 0.08248 1.0056 0.4635 0.0
C286 C 0.0668 1.00495 0.51567 0.0
C287 C 0.11623 0.01699 0.4266 0.0
C288 C 0.11382 0.02024 0.34693 0.0
C289 C 0.13531 0.01408 0.45564 0.0
C290 C 0.13895 0.0092 0.53796 0.0
C291 C 0.12972 0.99313 0.57228 0.0
C292 C 0.13301 0.98876 0.65012 0.0
C293 C 0.14562 1.00027 0.6941 0.0
C294 C 0.15501 0.01613 0.66026 0.0
C295 C 0.15175 0.02058 0.58246 0.0
H296 H 0.14815 0.99686 0.75436 0.0
H297 H 0.11664 0.03735 0.99695 0.0
H298 H 0.51284 0.21245 0.28085 0.0
H299 H 0.51422 0.18411 0.36691 0.0
H300 H 0.50186 0.1463 0.17335 0.0
H301 H 0.50021 0.17474 0.0877 0.0
H302 H 0.48141 0.13485 0.294 0.0
H303 H 0.54799 0.15 0.25042 0.0
H304 H 0.5774 0.17043 0.24395 0.0
H305 H 0.57348 0.1817 0.48787 0.0
H306 H 0.54385 0.16154 0.49562 0.0
H307 H 0.51723 0.0474 0.48558 0.0
H308 H 0.51507 0.07507 0.39604 0.0
H309 H 0.50671 0.11403 0.58889 0.0
H310 H 0.50807 0.08642 0.67827 0.0
H311 H 0.53802 0.12389 0.46652 0.0
H312 H 0.47003 0.10819 0.50417 0.0
H313 H 0.44194 0.08592 0.50546 0.0
H314 H 0.45042 0.07367 0.26412 0.0
H315 H 0.47882 0.09563 0.26178 0.0
C316 C 0.51048 0.19806 0.25691 0.0
C317 C 0.50654 0.19567 0.17787 0.0
C318 C 0.51133 0.18185 0.30596 0.0
C319 C 0.50838 0.16293 0.27674 0.0
C320 C 0.50422 0.16066 0.19753 0.0
C321 C 0.50336 0.17689 0.14854 0.0
C322 C 0.50957 0.14557 0.32874 0.0
C323 C 0.49392 0.13239 0.33091 0.0
C324 C 0.52579 0.14226 0.37773 0.0
C325 C 0.54357 0.15443 0.37342 0.0
C326 C 0.55329 0.15697 0.30257 0.0
C327 C 0.57002 0.16848 0.29869 0.0
C328 C 0.57727 0.17741 0.36542 0.0
C329 C 0.56782 0.1748 0.43621 0.0
C330 C 0.55107 0.16333 0.44039 0.0
C331 C 0.51476 0.06184 0.50876 0.0
C332 C 0.51273 0.06471 0.58894 0.0
C333 C 0.51358 0.07763 0.45761 0.0
C334 C 0.51076 0.09661 0.48585 0.0
C335 C 0.50892 0.09952 0.56589 0.0
C336 C 0.50963 0.08371 0.61684 0.0
C337 C 0.50983 0.11347 0.43203 0.0
C338 C 0.52555 0.12646 0.42945 0.0
C339 C 0.49384 0.11644 0.38195 0.0
C340 C 0.47671 0.10335 0.38307 0.0
C341 C 0.46605 0.10058 0.45159 0.0
C342 C 0.45004 0.08805 0.45248 0.0
C343 C 0.44444 0.07832 0.38499 0.0
C344 C 0.45481 0.08117 0.31641 0.0
C345 C 0.47086 0.09366 0.31527 0.0
H346 H 0.43204 0.06863 0.38579 0.0
H347 H 0.59023 0.1863 0.36231 0.0
H348 H 0.34472 0.48082 0.10447 0.0
H349 H 0.37378 0.48195 0.18706 0.0
H350 H 0.35171 0.53368 0.29863 0.0
H351 H 0.32284 0.53267 0.21488 0.0
H352 H 0.38948 0.53781 0.27145 0.0
H353 H 0.34991 0.48786 0.38539 0.0
H354 H 0.33083 0.45749 0.38743 0.0
H355 H 0.38132 0.42501 0.3184 0.0
H356 H 0.40065 0.45525 0.31497 0.0
H357 H 0.44381 0.53789 0.61953 0.0
H358 H 0.41839 0.5357 0.52115 0.0
H359 H 0.44893 0.48821 0.41198 0.0
H360 H 0.47447 0.49036 0.51143 0.0
H361 H 0.40895 0.481 0.4301 0.0
H362 H 0.44914 0.53083 0.32685 0.0
H363 H 0.46832 0.56104 0.33079 0.0
H364 H 0.41673 0.59388 0.38169 0.0
H365 H 0.39726 0.56374 0.37993 0.0
C366 C 0.34613 0.4924 0.14673 0.0
C367 C 0.33156 0.5066 0.15374 0.0
C368 C 0.3627 0.49301 0.1942 0.0
C369 C 0.36497 0.50778 0.25014 0.0
C370 C 0.35041 0.52212 0.25622 0.0
C371 C 0.33386 0.52151 0.20861 0.0
C372 C 0.38241 0.5083 0.30232 0.0
C373 C 0.39357 0.52543 0.30665 0.0
C374 C 0.38825 0.49203 0.34705 0.0
C375 C 0.37666 0.47384 0.34908 0.0
C376 C 0.3569 0.47426 0.37003 0.0
C377 C 0.34605 0.45707 0.37155 0.0
C378 C 0.35484 0.43934 0.35283 0.0
C379 C 0.37452 0.43876 0.33275 0.0
C380 C 0.38543 0.45592 0.33105 0.0
C381 C 0.44525 0.52709 0.5741 0.0
C382 C 0.4614 0.51455 0.57236 0.0
C383 C 0.43069 0.52588 0.51773 0.0
C384 C 0.43175 0.51192 0.4584 0.0
C385 C 0.44782 0.49921 0.45673 0.0
C386 C 0.46259 0.50062 0.51291 0.0
C387 C 0.4158 0.51054 0.39969 0.0
C388 C 0.40493 0.4933 0.39429 0.0
C389 C 0.4102 0.52672 0.35413 0.0
C390 C 0.42175 0.54497 0.3539 0.0
C391 C 0.44189 0.54447 0.33947 0.0
C392 C 0.45282 0.5616 0.34124 0.0
C393 C 0.44377 0.57939 0.3565 0.0
C394 C 0.42374 0.58009 0.36991 0.0
C395 C 0.41273 0.56297 0.36854 0.0
H396 H 0.45227 0.59264 0.35785 0.0
H397 H 0.34642 0.42604 0.35406 0.0
H398 H 0.99115 0.31851 0.23099 0.0
H399 H 0.99003 0.3466 0.31899 0.0
H400 H 0.04132 0.37016 0.2101 0.0
H401 H 0.04255 0.34184 0.12299 0.0
H402 H 0.04401 0.37448 0.36254 0.0
H403 H 0.99523 0.38873 0.17359 0.0
H404 H 0.96616 0.3826 0.09368 0.0
H405 H 0.93136 0.37695 0.29862 0.0
H406 H 0.96029 0.38281 0.37983 0.0
H407 H 0.03448 0.46815 0.54403 0.0
H408 H 0.0373 0.44168 0.44893 0.0
H409 H 0.98516 0.41543 0.54019 0.0
H410 H 0.982 0.44207 0.63308 0.0
H411 H 0.98381 0.41361 0.39058 0.0
H412 H 0.03307 0.39806 0.57951 0.0
H413 H 0.06221 0.40446 0.65881 0.0
H414 H 0.09613 0.41288 0.45307 0.0
H415 H 0.06713 0.40675 0.37254 0.0
C416 C 1.00216 0.32971 0.22603 0.0
C417 C 0.01689 0.32811 0.17024 0.0
C418 C 1.00148 0.34582 0.27607 0.0
C419 C 0.01545 0.36077 0.27089 0.0
C420 C 0.03034 0.35894 0.21549 0.0
C421 C 0.03102 0.34279 0.16553 0.0
C422 C 0.01453 0.3782 0.32322 0.0
C423 C 0.03091 0.38318 0.36778 0.0
C424 C 0.9974 0.38952 0.33145 0.0
C425 C 0.97997 0.38603 0.28279 0.0
C426 C 0.98141 0.38604 0.20163 0.0
C427 C 0.96495 0.38264 0.1561 0.0
C428 C 0.94693 0.37934 0.19105 0.0
C429 C 0.94533 0.37949 0.27163 0.0
C430 C 0.96175 0.38286 0.31743 0.0
C431 C 0.02362 0.45674 0.5436 0.0
C432 C 0.00803 0.45721 0.59628 0.0
C433 C 0.0253 0.4415 0.48947 0.0
C434 C 0.01157 0.42627 0.48752 0.0
C435 C 0.99597 0.4269 0.54002 0.0
C436 C 0.99422 0.44214 0.59352 0.0
C437 C 0.01319 0.40973 0.43093 0.0
C438 C 0.99693 0.40494 0.38531 0.0
C439 C 0.03043 0.39861 0.42176 0.0
C440 C 0.04789 0.40214 0.47006 0.0
C441 C 0.04672 0.4014 0.55122 0.0
C442 C 0.06321 0.40496 0.59637 0.0
C443 C 0.081 0.40913 0.56101 0.0
C444 C 0.08234 0.40968 0.48039 0.0
C445 C 0.06589 0.40614 0.43496 0.0
H446 H 0.09375 0.41189 0.59607 0.0
H447 H 0.9342 0.37671 0.1557 0.0
H448 H 0.82448 0.01547 0.12454 0.0
H449 H 0.85304 0.01461 0.03956 0.0
H450 H 0.88833 0.99459 0.22975 0.0
H451 H 0.85964 0.99556 0.31498 0.0
H452 H 0.90753 0.02209 0.1458 0.0
H453 H 0.87372 0.96295 0.09042 0.0
H454 H 0.84536 0.94264 0.05711 0.0
H455 H 0.83943 0.97266 0.84091 0.0
H456 H 0.86759 0.99335 0.87341 0.0
H457 H 0.98649 0.99906 0.88136 0.0
H458 H 0.96152 0.99692 0.98332 0.0
H459 H 0.91772 0.01429 0.81871 0.0
H460 H 0.94231 0.01617 0.71786 0.0
H461 H 0.90466 0.98499 0.89964 0.0
H462 H 0.93723 0.04546 0.95847 0.0
H463 H 0.96501 0.06642 0.99317 0.0
H464 H 0.97312 0.03431 0.20347 0.0
H465 H 0.94561 0.01291 0.16924 0.0
C466 C 0.83834 0.01086 0.14804 0.0
C467 C 0.83989 1.00544 0.22596 0.0
C468 C 0.85466 0.01033 0.09947 0.0
C469 C 0.8729 1.0043 0.12774 0.0
C470 C 0.87448 0.99925 0.20632 0.0
C471 C 0.8581 0.99974 0.25491 0.0
C472 C 0.89012 1.00309 0.07483 0.0
C473 C 0.90703 0.01371 0.09256 0.0
C474 C 0.88951 0.99236 0.0048 0.0
C475 C 0.87268 0.9798 0.98466 0.0
C476 C 0.86629 0.96531 0.03599 0.0
C477 C 0.85026 0.95371 0.01723 0.0
C478 C 0.84057 0.95638 0.94701 0.0
C479 C 0.84693 0.97062 0.89531 0.0
C480 C 0.86295 0.98227 0.91384 0.0
C481 C 0.97154 1.00244 0.8673 0.0
C482 C 0.96642 0.00781 0.79152 0.0
C483 C 0.95726 1.00128 0.92561 0.0
C484 C 0.93762 1.00555 0.90915 0.0
C485 C 0.93265 0.01084 0.8333 0.0
C486 C 0.9468 0.01196 0.7755 0.0
C487 C 0.92196 1.00441 0.96937 0.0
C488 C 0.9053 0.99325 0.95315 0.0
C489 C 0.92285 0.01468 0.04061 0.0
C490 C 0.93953 0.0274 0.06073 0.0
C491 C 0.94508 0.04272 0.01166 0.0
C492 C 0.96076 0.0547 0.03131 0.0
C493 C 0.97088 0.05165 0.10032 0.0
C494 C 0.96532 0.03662 0.14988 0.0
C495 C 0.9497 0.02454 0.13035 0.0
H496 H 0.98298 0.06097 0.11551 0.0
H497 H 0.82816 0.9474 0.9326 0.0
H498 H 0.53042 0.81211 0.0686 0.0
H499 H 0.52982 0.84052 0.98254 0.0
H500 H 0.51646 0.87757 0.17731 0.0
H501 H 0.51688 0.84909 0.26301 0.0
H502 H 0.49448 0.88718 0.05417 0.0
H503 H 0.56255 0.87576 0.09966 0.0
H504 H 0.59269 0.85631 0.10289 0.0
H505 H 0.58828 0.84614 0.85833 0.0
H506 H 0.55798 0.86534 0.85382 0.0
H507 H 0.51117 0.97695 0.86194 0.0
H508 H 0.51279 0.94965 0.95244 0.0
H509 H 0.5321 0.91201 0.76752 0.0
H510 H 0.53144 0.93951 0.67813 0.0
H511 H 0.55123 0.90298 0.8888 0.0
H512 H 0.48309 0.91332 0.84161 0.0
H513 H 0.45276 0.93244 0.83602 0.0
H514 H 0.45665 0.9439 0.07982 0.0
H515 H 0.48715 0.92505 0.08666 0.0
C516 C 0.52735 0.82635 0.09273 0.0
C517 C 0.52377 0.82853 0.17215 0.0
C518 C 0.52708 0.84259 0.0437 0.0
C519 C 0.52333 0.86132 0.07337 0.0
C520 C 0.51942 0.86335 0.15287 0.0
C521 C 0.51971 0.8471 0.20184 0.0
C522 C 0.52352 0.87877 0.02175 0.0
C523 C 0.50699 0.89077 0.01874 0.0
C524 C 0.53964 0.88331 0.974 0.0
C525 C 0.5579 0.87184 0.97656 0.0
C526 C 0.56794 0.86926 0.04668 0.0
C527 C 0.58506 0.8583 0.04872 0.0
C528 C 0.59237 0.84996 0.98089 0.0
C529 C 0.58259 0.8526 0.91084 0.0
C530 C 0.56546 0.86353 0.90849 0.0
C531 C 0.5159 0.96288 0.84082 0.0
C532 C 0.52112 0.96039 0.7628 0.0
C533 C 0.51666 0.94719 0.89249 0.0
C534 C 0.52217 0.92851 0.8669 0.0
C535 C 0.52774 0.92616 0.78912 0.0
C536 C 0.52729 0.94191 0.73784 0.0
C537 C 0.52211 0.91139 0.92054 0.0
C538 C 0.53869 0.89944 0.92408 0.0
C539 C 0.50596 0.90681 0.96829 0.0
C540 C 0.48749 0.91793 0.96449 0.0
C541 C 0.47753 0.92001 0.89394 0.0
C542 C 0.4603 0.93079 0.89055 0.0
C543 C 0.45281 0.93942 0.95748 0.0
C544 C 0.46249 0.93723 0.028 0.0
C545 C 0.47973 0.92648 0.03168 0.0
H546 H 0.43948 0.94778 0.95473 0.0
H547 H 0.60562 0.84147 0.98259 0.0
H548 H 0.70698 0.50309 0.10259 0.0
H549 H 0.6789 0.50431 0.01489 0.0
H550 H 0.64121 0.51663 0.20853 0.0
H551 H 0.66933 0.51504 0.29625 0.0
H552 H 0.62421 0.49083 0.11445 0.0
H553 H 0.65527 0.55263 0.07962 0.0
H554 H 0.68272 0.57472 0.05319 0.0
H555 H 0.69003 0.54903 0.82839 0.0
H556 H 0.66278 0.52659 0.85389 0.0
H557 H 0.54358 0.51339 0.86353 0.0
H558 H 0.56884 0.51553 0.964 0.0
H559 H 0.61303 0.50691 0.79001 0.0
H560 H 0.5881 0.50583 0.69033 0.0
H561 H 0.62525 0.53317 0.88279 0.0
H562 H 0.59545 0.47012 0.91966 0.0
H563 H 0.56817 0.44777 0.94595 0.0
H564 H 0.55868 0.47529 0.16591 0.0
H565 H 0.58566 0.49805 0.1404 0.0
C566 C 0.69268 0.5061 0.12616 0.0
C567 C 0.69027 0.50909 0.20586 0.0
C568 C 0.67663 0.50687 0.07607 0.0
C569 C 0.65783 0.51081 0.10461 0.0
C570 C 0.65547 0.51359 0.18475 0.0
C571 C 0.67155 0.51278 0.23483 0.0
C572 C 0.64073 0.51207 0.0509 0.0
C573 C 0.62433 0.5003 0.06438 0.0
C574 C 0.64083 0.52421 0.98476 0.0
C575 C 0.65708 0.53783 0.96893 0.0
C576 C 0.6628 0.55162 0.02473 0.0
C577 C 0.67832 0.56421 0.00989 0.0
C578 C 0.68814 0.56325 0.93922 0.0
C579 C 0.68242 0.54974 0.88314 0.0
C580 C 0.66693 0.5371 0.89771 0.0
C581 C 0.55869 0.51242 0.84679 0.0
C582 C 0.56379 0.50981 0.7687 0.0
C583 C 0.57317 0.51332 0.90441 0.0
C584 C 0.59302 0.51124 0.88518 0.0
C585 C 0.59796 0.50868 0.80699 0.0
C586 C 0.58361 0.50799 0.7498 0.0
C587 C 0.60884 0.51159 0.94511 0.0
C588 C 0.62503 0.52374 0.93298 0.0
C589 C 0.60854 0.49973 0.01219 0.0
C590 C 0.59244 0.48593 0.02773 0.0
C591 C 0.58746 0.4715 0.97339 0.0
C592 C 0.57206 0.45875 0.98816 0.0
C593 C 0.56168 0.46014 0.05743 0.0
C594 C 0.56671 0.47425 0.1122 0.0
C595 C 0.58204 0.48709 0.09762 0.0
H596 H 0.54977 0.45025 0.06872 0.0
H597 H 0.70016 0.573 0.92787 0.0
H598 H 0.03714 0.68786 0.19583 0.0
H599 H 0.03655 0.66067 0.1035 0.0
H600 H 0.975 0.65356 0.14286 0.0
H601 H 0.97572 0.68066 0.23619 0.0
H602 H 0.99243 0.61863 0.13751 0.0
H603 H 0.99231 0.67512 0.97706 0.0
H604 H 1.00374 0.70693 0.92966 0.0
H605 H 0.05894 0.6818 0.87009 0.0
H606 H 0.04793 0.64989 0.91819 0.0
H607 H 0.981 0.55405 0.81142 0.0
H608 H 0.97804 0.58066 0.90586 0.0
H609 H 0.0386 0.5948 0.87231 0.0
H610 H 0.0414 0.56864 0.77709 0.0
H611 H 0.01906 0.62673 0.87302 0.0
H612 H 0.01976 0.57067 0.04166 0.0
H613 H 0.00838 0.53905 0.09145 0.0
H614 H 0.95181 0.5633 0.13398 0.0
H615 H 0.96284 0.59506 0.08409 0.0
C616 C 0.0235 0.68048 0.1845 0.0
C617 C 1.00646 0.68635 0.22259 0.0
C618 C 0.02314 0.66498 0.13155 0.0
C619 C 1.00567 0.65509 0.1151 0.0
C620 C 0.98866 0.66088 0.15418 0.0
C621 C 0.98904 0.67641 0.20723 0.0
C622 C 1.00523 0.6388 0.05715 0.0
C623 C 0.998 0.6205 0.07931 0.0
C624 C 0.01271 0.641 0.98127 0.0
C625 C 0.01935 0.66015 0.95187 0.0
C626 C 0.00693 0.67641 0.95437 0.0
C627 C 0.01333 0.69446 0.9273 0.0
C628 C 0.03207 0.6964 0.89704 0.0
C629 C 0.04443 0.68028 0.89361 0.0
C630 C 0.03812 0.66221 0.92071 0.0
C631 C 0.99368 0.5628 0.82467 0.0
C632 C 0.01144 0.55923 0.78684 0.0
C633 C 0.99202 0.57799 0.87898 0.0
C634 C 0.00815 0.5898 0.89729 0.0
C635 C 0.02589 0.58607 0.8595 0.0
C636 C 0.02749 0.57103 0.80502 0.0
C637 C 1.00667 0.60638 0.95376 0.0
C638 C 0.01345 0.62482 0.93115 0.0
C639 C 0.99876 0.60428 0.02909 0.0
C640 C 0.99209 0.58519 0.05866 0.0
C641 C 1.00487 0.56923 0.06131 0.0
C642 C 0.99851 0.55131 0.08984 0.0
C643 C 0.97941 0.5492 0.11612 0.0
C644 C 0.96663 0.56499 0.11391 0.0
C645 C 0.97293 0.58296 0.08562 0.0
H646 H 0.97448 0.53529 0.13783 0.0
H647 H 0.03699 0.71038 0.87611 0.0
H648 H 0.02331 0.23128 0.29261 0.0
H649 H 0.00743 0.21034 0.38573 0.0
H650 H 0.95303 0.24019 0.34648 0.0
H651 H 0.96903 0.26075 0.24969 0.0
H652 H 0.98599 0.20437 0.5022 0.0
H653 H 0.91886 0.20524 0.31067 0.0
H654 H 0.90773 0.21892 0.18624 0.0
H655 H 0.96604 0.21619 0.09772 0.0
H656 H 0.97732 0.20189 0.22059 0.0
H657 H 0.95946 0.10711 0.55925 0.0
H658 H 0.95244 0.14203 0.55208 0.0
H659 H 0.96669 0.14122 0.3087 0.0
H660 H 0.97277 0.1063 0.3154 0.0
H661 H 0.94174 0.16763 0.32865 0.0
H662 H 0.99996 0.1481 0.45921 0.0
H663 H 0.02182 0.13439 0.55798 0.0
H664 H 0.99678 0.17191 0.72996 0.0
H665 H 0.97403 0.18517 0.63315 0.0
C666 C 0.00819 0.23401 0.30682 0.0
C667 C 0.99721 0.24714 0.26312 0.0
C668 C 0.99906 0.22206 0.36034 0.0
C669 C 0.97882 0.22318 0.37086 0.0
C670 C 0.96856 0.23877 0.33767 0.0
C671 C 0.97771 0.25061 0.28287 0.0
C672 C 0.96869 0.20548 0.39886 0.0
C673 C 0.97582 0.19648 0.46574 0.0
C674 C 0.95575 0.19505 0.35015 0.0
C675 C 0.94894 0.20286 0.2751 0.0
C676 C 0.92924 0.20748 0.26442 0.0
C677 C 0.92291 0.21528 0.19414 0.0
C678 C 0.93618 0.21851 0.13425 0.0
C679 C 0.95578 0.21377 0.14423 0.0
C680 C 0.96212 0.20568 0.21392 0.0
C681 C 0.96039 0.11437 0.50382 0.0
C682 C 0.96676 0.1042 0.43786 0.0
C683 C 0.95648 0.13429 0.49983 0.0
C684 C 0.95947 0.14438 0.43034 0.0
C685 C 0.96425 0.13382 0.36308 0.0
C686 C 0.96776 0.11385 0.36676 0.0
C687 C 0.96037 0.16596 0.42867 0.0
C688 C 0.95112 0.17572 0.36766 0.0
C689 C 0.97266 0.17664 0.47935 0.0
C690 C 0.98493 0.16728 0.53927 0.0
C691 C 0.9987 0.15304 0.51855 0.0
C692 C 0.01128 0.14536 0.57417 0.0
C693 C 0.01055 0.15218 0.65026 0.0
C694 C 0.99708 0.16645 0.67127 0.0
C695 C 0.98426 0.17395 0.61618 0.0
H696 H 0.02061 0.14659 0.69262 0.0
H697 H 0.93127 0.22461 0.08003 0.0
H698 H 0.29266 0.96184 0.20281 0.0
H699 H 0.30938 0.95216 0.31998 0.0
H700 H 0.28274 0.99992 0.44368 0.0
H701 H 0.26656 0.01016 0.32437 0.0
H702 H 0.31887 1.00408 0.45101 0.0
H703 H 0.28093 0.9511 0.51742 0.0
H704 H 0.26016 0.92207 0.50422 0.0
H705 H 0.30806 0.88997 0.40855 0.0
H706 H 0.32907 0.91885 0.41988 0.0
H707 H 0.40899 0.98808 0.61773 0.0
H708 H 0.37373 0.98413 0.62716 0.0
H709 H 0.3742 0.94881 0.4207 0.0
H710 H 0.40942 0.95282 0.41072 0.0
H711 H 0.3437 0.93875 0.52172 0.0
H712 H 0.37368 0.99851 0.40971 0.0
H713 H 0.39481 0.02721 0.42714 0.0
H714 H 0.35967 0.04623 0.61834 0.0
H715 H 0.33833 0.01765 0.6016 0.0
C716 C 0.28988 0.96991 0.2556 0.0
C717 C 0.27874 0.987 0.25417 0.0
C718 C 0.29924 0.96419 0.32327 0.0
C719 C 0.29744 0.97533 0.39124 0.0
C720 C 0.28442 0.99111 0.39204 0.0
C721 C 0.27513 0.99693 0.32387 0.0
C722 C 0.31255 0.97328 0.45219 0.0
C723 C 0.32378 0.98981 0.46926 0.0
C724 C 0.3191 0.95478 0.47702 0.0
C725 C 0.30662 0.93722 0.4697 0.0
C726 C 0.28703 0.93789 0.49315 0.0
C727 C 0.27521 0.92144 0.48603 0.0
C728 C 0.28279 0.90419 0.45563 0.0
C729 C 0.30222 0.90334 0.43229 0.0
C730 C 0.31412 0.91974 0.43929 0.0
C731 C 0.40159 0.97905 0.57563 0.0
C732 C 0.41175 0.97119 0.51228 0.0
C733 C 0.38152 0.97656 0.58182 0.0
C734 C 0.37135 0.96637 0.52431 0.0
C735 C 0.38179 0.95671 0.46585 0.0
C736 C 0.40189 0.95911 0.45983 0.0
C737 C 0.3502 0.96926 0.51391 0.0
C738 C 0.33805 0.95298 0.50673 0.0
C739 C 0.3426 0.98801 0.49892 0.0
C740 C 0.35466 1.00581 0.50545 0.0
C741 C 0.37047 0.00884 0.45536 0.0
C742 C 0.38248 0.02508 0.46509 0.0
C743 C 0.37865 0.03849 0.52408 0.0
C744 C 0.36268 0.03579 0.5729 0.0
C745 C 0.35062 0.01958 0.56333 0.0
H746 H 0.38801 0.051 0.53177 0.0
H747 H 0.27361 0.89147 0.45013 0.0
H748 H 0.53067 0.25517 0.31227 0.0
H749 H 0.54333 0.27233 0.42541 0.0
H750 H 0.58213 0.30489 0.27852 0.0
H751 H 0.57046 0.28696 0.16647 0.0
H752 H 0.59401 0.30766 0.42652 0.0
H753 H 0.53128 0.31513 0.28268 0.0
H754 H 0.49943 0.3021 0.24145 0.0
H755 H 0.4842 0.2912 0.47817 0.0
H756 H 0.51611 0.30381 0.52066 0.0
H757 H 0.5785 0.40729 0.39788 0.0
H758 H 0.58497 0.37238 0.40254 0.0
H759 H 0.541 0.36581 0.57892 0.0
H760 H 0.53415 0.40064 0.57223 0.0
H761 H 0.5326 0.34393 0.4701 0.0
H762 H 0.59104 0.35025 0.60963 0.0
H763 H 0.6225 0.36467 0.64739 0.0
H764 H 0.64608 0.35063 0.42409 0.0
H765 H 0.61463 0.33653 0.38452 0.0
C766 C 0.54274 0.26511 0.30471 0.0
C767 C 0.54897 0.27046 0.23029 0.0
C768 C 0.54994 0.27498 0.36954 0.0
C769 C 0.56291 0.29058 0.35972 0.0
C770 C 0.57178 0.29322 0.28743 0.0
C771 C 0.56491 0.28311 0.22306 0.0
C772 C 0.56286 0.3073 0.41415 0.0
C773 C 0.58062 0.31553 0.43747 0.0
C774 C 0.54533 0.31738 0.43021 0.0
C775 C 0.52608 0.31017 0.40469 0.0
C776 C 0.52112 0.30993 0.32581 0.0
C777 C 0.5031 0.3026 0.30222 0.0
C778 C 0.48982 0.29583 0.35709 0.0
C779 C 0.49452 0.2964 0.43573 0.0
C780 C 0.51257 0.30359 0.4596 0.0
C781 C 0.57067 0.39843 0.43922 0.0
C782 C 0.55563 0.40648 0.48377 0.0
C783 C 0.5745 0.37848 0.44261 0.0
C784 C 0.5636 0.36635 0.49171 0.0
C785 C 0.54964 0.37479 0.54074 0.0
C786 C 0.54565 0.39466 0.53658 0.0
C787 C 0.56388 0.34492 0.4799 0.0
C788 C 0.54607 0.33584 0.46377 0.0
C789 C 0.58135 0.33423 0.47072 0.0
C790 C 0.60042 0.34247 0.49404 0.0
C791 C 0.60288 0.35044 0.56838 0.0
C792 C 0.62073 0.35851 0.59013 0.0
C793 C 0.63628 0.35859 0.53812 0.0
C794 C 0.63402 0.35055 0.46432 0.0
C795 C 0.61619 0.34249 0.44226 0.0
H796 H 0.65009 0.36485 0.55504 0.0
H797 H 0.47588 0.29016 0.33868 0.0
H798 H 0.23987 0.55994 0.22354 0.0
H799 H 0.22064 0.56254 0.34093 0.0
H800 H 0.24523 0.50865 0.42345 0.0
H801 H 0.26427 0.50587 0.30458 0.0
H802 H 0.20876 0.50436 0.387 0.0
H803 H 0.24124 0.54849 0.54818 0.0
H804 H 0.26045 0.57722 0.5861 0.0
H805 H 0.2146 0.61483 0.50856 0.0
H806 H 0.19521 0.58638 0.46897 0.0
H807 H 0.11357 0.50586 0.54069 0.0
H808 H 0.1491 0.50635 0.55002 0.0
H809 H 0.1506 0.55889 0.41414 0.0
H810 H 0.11509 0.55856 0.40519 0.0
H811 H 0.1785 0.55889 0.53148 0.0
H812 H 0.1553 0.51653 0.32373 0.0
H813 H 0.13682 0.48895 0.26922 0.0
H814 H 0.16637 0.44969 0.42222 0.0
H815 H 0.18491 0.47712 0.47808 0.0
C816 C 0.2419 0.54919 0.26856 0.0
C817 C 0.25305 0.53245 0.25447 0.0
C818 C 0.23104 0.55076 0.33629 0.0
C819 C 0.23122 0.5356 0.39065 0.0
C820 C 0.2448 0.52046 0.38209 0.0
C821 C 0.25568 0.51888 0.3141 0.0
C822 C 0.21358 0.53263 0.43836 0.0
C823 C 0.2025 0.51597 0.42164 0.0
C824 C 0.20517 0.54791 0.48194 0.0
C825 C 0.21673 0.56521 0.50562 0.0
C826 C 0.23527 0.56288 0.53876 0.0
C827 C 0.2462 0.57913 0.56062 0.0
C828 C 0.23875 0.59784 0.54979 0.0
C829 C 0.22034 0.60032 0.51709 0.0
C830 C 0.20934 0.58412 0.49512 0.0
C831 C 0.12152 0.51756 0.5132 0.0
C832 C 0.11168 0.53199 0.47096 0.0
C833 C 0.14174 0.51789 0.51908 0.0
C834 C 0.15243 0.53257 0.48229 0.0
C835 C 0.14258 0.54751 0.44331 0.0
C836 C 0.12234 0.54726 0.4379 0.0
C837 C 0.1738 0.53123 0.47591 0.0
C838 C 0.18528 0.54697 0.50042 0.0
C839 C 0.18264 0.51529 0.4381 0.0
C840 C 0.17123 0.49887 0.40591 0.0
C841 C 0.15768 0.50204 0.34632 0.0
C842 C 0.14724 0.48644 0.31507 0.0
C843 C 0.15035 0.46759 0.3425 0.0
C844 C 0.16393 0.4643 0.40121 0.0
C845 C 0.1744 0.47986 0.43271 0.0
H846 H 0.14231 0.45552 0.31805 0.0
H847 H 0.24724 0.6104 0.56673 0.0
H848 H 0.95141 0.77128 0.17683 0.0
H849 H 0.94648 0.7955 0.07532 0.0
H850 H 0.00793 0.79337 0.02309 0.0
H851 H 0.0123 0.76828 0.11938 0.0
H852 H 0.95913 0.82719 0.10799 0.0
H853 H 0.02374 0.81964 0.88113 0.0
H854 H 0.03465 0.79619 0.7825 0.0
H855 H 0.97815 0.76966 0.78067 0.0
H856 H 0.96668 0.79321 0.87818 0.0
H857 H 0.0374 0.89845 0.0265 0.0
H858 H 0.02303 0.8659 0.02427 0.0
H859 H 0.96771 0.8903 0.95814 0.0
H860 H 0.98209 0.92287 0.95745 0.0
H861 H 1.00169 0.84687 0.8907 0.0
H862 H 0.93522 0.86133 0.07399 0.0
H863 H 0.92264 0.88519 0.16859 0.0
H864 H 0.98069 0.89605 0.2495 0.0
H865 H 0.99353 0.87209 0.15626 0.0
C866 C 0.96349 0.7751 0.13961 0.0
C867 C 0.98223 0.76813 0.15551 0.0
C868 C 0.96075 0.78905 0.08201 0.0
C869 C 0.97686 0.79672 0.04217 0.0
C870 C 0.9951 0.78772 0.05144 0.0
C871 C 0.99769 0.77335 0.10719 0.0
C872 C 0.97613 0.81685 0.01084 0.0
C873 C 0.96789 0.83129 0.05863 0.0
C874 C 0.9874 0.82258 0.94607 0.0
C875 C 0.99431 0.80826 0.88741 0.0
C876 C 0.01354 0.80895 0.85937 0.0
C877 C 0.01985 0.79559 0.80366 0.0
C878 C 0.00711 0.78143 0.77538 0.0
C879 C 0.98802 0.78061 0.80276 0.0
C880 C 0.98161 0.79395 0.85839 0.0
C881 C 0.02217 0.89689 0.01175 0.0
C882 C 0.01087 0.91318 0.99216 0.0
C883 C 0.01406 0.87833 0.00972 0.0
C884 C 0.99447 0.87583 0.98954 0.0
C885 C 0.98292 0.89205 0.97289 0.0
C886 C 0.99107 0.91063 0.97401 0.0
C887 C 0.986 0.85621 0.9916 0.0
C888 C 0.99239 0.8423 0.93796 0.0
C889 C 0.97285 0.85088 0.0502 0.0
C890 C 0.96534 0.86519 0.10717 0.0
C891 C 0.94528 0.86885 0.11189 0.0
C892 C 0.93811 0.88239 0.16529 0.0
C893 C 0.95088 0.89227 0.2145 0.0
C894 C 0.97084 0.88857 0.21072 0.0
C895 C 0.97807 0.87504 0.15748 0.0
H896 H 0.94529 0.90269 0.25598 0.0
H897 H 0.01203 0.77111 0.73224 0.0
H898 H 0.74982 0.02148 0.08012 0.0
H899 H 0.72851 0.011 0.97647 0.0
H900 H 0.74869 0.95191 0.00402 0.0
H901 H 0.76943 0.96247 0.11162 0.0
H902 H 0.72022 0.99253 0.85205 0.0
H903 H 0.71356 0.92419 0.02182 0.0
H904 H 0.72368 0.90948 0.14582 0.0
H905 H 0.71872 0.96507 0.25826 0.0
H906 H 0.70858 0.98003 0.13478 0.0
H907 H 0.61752 0.97952 0.7956 0.0
H908 H 0.65155 0.96879 0.79731 0.0
H909 H 0.65608 0.98654 0.03638 0.0
H910 H 0.62219 0.99688 0.0353 0.0
H911 H 0.67512 0.95342 0.01266 0.0
H912 H 0.66641 0.01552 0.8872 0.0
H913 H 0.65573 0.03836 0.78618 0.0
H914 H 0.69026 0.00788 0.61859 0.0
H915 H 0.70009 0.98404 0.71702 0.0
C916 C 0.75048 1.00645 0.06118 0.0
C917 C 0.76078 0.99267 0.10438 0.0
C918 C 0.73829 1.00039 0.00165 0.0
C919 C 0.73635 0.98048 0.98468 0.0
C920 C 0.74952 0.96726 0.01793 0.0
C921 C 0.76151 0.9733 0.07882 0.0
C922 C 0.71761 0.97385 0.95118 0.0
C923 C 0.71045 0.98343 0.88542 0.0
C924 C 0.70475 0.96216 0.99529 0.0
C925 C 0.71058 0.95319 0.06937 0.0
C926 C 0.71464 0.93321 0.07312 0.0
C927 C 0.7204 0.92486 0.14316 0.0
C928 C 0.72196 0.93636 0.20973 0.0
C929 C 0.71762 0.95621 0.20657 0.0
C930 C 0.71188 0.96462 0.13667 0.0
C931 C 0.62572 0.98074 0.84887 0.0
C932 C 0.61733 0.98921 0.91522 0.0
C933 C 0.64512 0.97464 0.84964 0.0
C934 C 0.65633 0.97693 0.91682 0.0
C935 C 0.64766 0.98454 0.98398 0.0
C936 C 0.62837 0.99066 0.98315 0.0
C937 C 0.67752 0.97329 0.91713 0.0
C938 C 0.68504 0.96153 0.97601 0.0
C939 C 0.69044 0.98393 0.86945 0.0
C940 C 0.68355 0.99763 0.80915 0.0
C941 C 0.67126 0.0133 0.82825 0.0
C942 C 0.66532 0.02643 0.7713 0.0
C943 C 0.67204 0.02438 0.69552 0.0
C944 C 0.68466 0.00917 0.6766 0.0
C945 C 0.69032 0.99577 0.73285 0.0
H946 H 0.66771 0.03473 0.65176 0.0
H947 H 0.72645 0.92987 0.26382 0.0
H948 H 0.50767 0.7626 0.03851 0.0
H949 H 0.49643 0.74519 0.92342 0.0
H950 H 0.44765 0.72288 0.05294 0.0
H951 H 0.45848 0.7407 0.16662 0.0
H952 H 0.4993 0.70817 0.9359 0.0
H953 H 0.41382 0.70279 0.95043 0.0
H954 H 0.38592 0.72526 0.95281 0.0
H955 H 0.42097 0.77007 0.85091 0.0
H956 H 0.44904 0.7478 0.84668 0.0
H957 H 0.46198 0.61923 0.99258 0.0
H958 H 0.45681 0.65437 0.98996 0.0
H959 H 0.46422 0.65447 0.74243 0.0
H960 H 0.46947 0.6192 0.7444 0.0
H961 H 0.4339 0.6857 0.85387 0.0
H962 H 0.49991 0.66572 0.76747 0.0
H963 H 0.5269 0.64222 0.77286 0.0
H964 H 0.53057 0.64984 0.01911 0.0
H965 H 0.50336 0.67326 0.01496 0.0
C966 C 0.49399 0.75481 0.04111 0.0
C967 C 0.48415 0.75258 0.11177 0.0
C968 C 0.4876 0.74484 0.97528 0.0
C969 C 0.47131 0.73253 0.97947 0.0
C970 C 0.46013 0.7324 0.04749 0.0
C971 C 0.46646 0.7424 0.11302 0.0
C972 C 0.46906 0.71619 0.92393 0.0
C973 C 0.4851 0.70372 0.91507 0.0
C974 C 0.45058 0.71019 0.89654 0.0
C975 C 0.4336 0.72357 0.89821 0.0
C976 C 0.41557 0.71736 0.92778 0.0
C977 C 0.39972 0.7301 0.92968 0.0
C978 C 0.40167 0.74908 0.90205 0.0
C979 C 0.41948 0.75537 0.87242 0.0
C980 C 0.43538 0.7427 0.87039 0.0
C981 C 0.4617 0.62658 0.93724 0.0
C982 C 0.46646 0.61661 0.86893 0.0
C983 C 0.45867 0.64662 0.93576 0.0
C984 C 0.46026 0.65689 0.86603 0.0
C985 C 0.4629 0.64672 0.79659 0.0
C986 C 0.46607 0.62665 0.79804 0.0
C987 C 0.46389 0.67796 0.87002 0.0
C988 C 0.44818 0.69094 0.87033 0.0
C989 C 0.48271 0.68466 0.88868 0.0
C990 C 0.4996 0.67123 0.8908 0.0
C991 C 0.50647 0.66242 0.82266 0.0
C992 C 0.52179 0.64907 0.82552 0.0
C993 C 0.53046 0.64453 0.89631 0.0
C994 C 0.52385 0.65338 0.96429 0.0
C995 C 0.5085 0.66671 0.96168 0.0
H996 H 0.54229 0.63416 0.89848 0.0
H997 H 0.38938 0.75891 0.90362 0.0
H998 H 0.78167 0.57154 0.21281 0.0
H999 H 0.80561 0.57712 0.11226 0.0
H1000 H 0.781 0.5302 0.97779 0.0
H1001 H 0.75776 0.52382 0.08098 0.0
H1002 H 0.81434 0.52018 0.03207 0.0
H1003 H 0.79305 0.57584 0.89568 0.0
H1004 H 0.77944 0.60866 0.8767 0.0
H1005 H 0.82734 0.63357 0.00169 0.0
H1006 H 0.84112 0.6009 0.02252 0.0
H1007 H 0.90483 0.51069 0.85355 0.0
H1008 H 0.87092 0.52146 0.85829 0.0
H1009 H 0.8845 0.55984 0.04827 0.0
H1010 H 0.91855 0.54914 0.0441 0.0
H1011 H 0.85516 0.57447 0.9363 0.0
H1012 H 0.87164 0.5189 0.09438 0.0
H1013 H 0.88489 0.48623 0.11944 0.0
H1014 H 0.84427 0.46149 0.95822 0.0
H1015 H 0.83105 0.49414 0.93089 0.0
C1016 C 0.78071 0.56309 0.15994 0.0
C1017 C 0.76851 0.54671 0.15602 0.0
C1018 C 0.79437 0.56639 0.10185 0.0
C1019 C 0.79551 0.55368 0.03832 0.0
C1020 C 0.78059 0.53996 0.02708 0.0
C1021 C 0.76719 0.53638 0.08606 0.0
C1022 C 0.81469 0.5506 1.00088 0.0
C1023 C 0.82292 0.53199 0.00831 0.0
C1024 C 0.8263 0.56611 0.9732 0.0
C1025 C 0.8181 0.58585 0.96086 0.0
C1026 C 0.80063 0.58829 0.91963 0.0
C1027 C 0.79289 0.60689 0.90845 0.0
C1028 C 0.80251 0.62319 0.93801 0.0
C1029 C 0.81991 0.62093 0.97874 0.0
C1030 C 0.82772 0.60237 0.9901 0.0
C1031 C 0.90061 0.52151 0.89605 0.0
C1032 C 0.91414 0.52872 0.9499 0.0
C1033 C 0.88134 0.52779 0.89795 0.0
C1034 C 0.87529 0.54126 0.95392 0.0
C1035 C 0.88901 0.54952 0.0043 0.0
C1036 C 0.90836 0.54328 0.00231 0.0
C1037 C 0.85433 0.54423 0.96789 0.0
C1038 C 0.84609 0.5627 0.95721 0.0
C1039 C 0.84257 0.52866 0.99323 0.0
C1040 C 0.8506 0.50903 0.00945 0.0
C1041 C 0.86572 0.50655 0.06337 0.0
C1042 C 0.87318 0.48802 0.07819 0.0
C1043 C 0.8655 0.4718 0.04013 0.0
C1044 C 0.85024 0.47407 0.98753 0.0
C1045 C 0.84277 0.49259 0.97229 0.0
H1046 H 0.8713 0.45746 0.05166 0.0
H1047 H 0.7965 0.63757 0.9293 0.0
H1048 H 0.99556 0.23133 0.92159 0.0
H1049 H 0.9966 0.19962 0.85489 0.0
H1050 H 0.04023 0.17983 0.0158 0.0
H1051 H 0.03939 0.2114 0.08103 0.0
H1052 H 0.04876 0.16585 0.8809 0.0
H1053 H 0.99073 0.16472 0.03714 0.0
H1054 H 0.95893 0.17556 0.08693 0.0
H1055 H 0.93575 0.17561 0.85632 0.0
H1056 H 0.96721 0.16391 0.80557 0.0
H1057 H 0.03597 0.06298 0.86605 0.0
H1058 H 0.03593 0.09707 0.90722 0.0
H1059 H 0.99936 0.11188 0.7136 0.0
H1060 H 0.99932 0.07775 0.67205 0.0
H1061 H 0.98706 0.12915 0.85258 0.0
H1062 H 0.04644 0.12234 0.70801 0.0
H1063 H 0.07802 0.10759 0.67498 0.0
H1064 H 0.0996 0.12096 0.90203 0.0
H1065 H 0.06802 0.13558 0.93693 0.0
C1066 C 1.00578 0.22038 0.94099 0.0
C1067 C 0.01757 0.22395 0.00594 0.0
C1068 C 1.00614 0.20212 0.90373 0.0
C1069 C 0.01827 0.18704 0.93088 0.0
C1070 C 0.03073 0.19105 0.99335 0.0
C1071 C 0.03032 0.20918 0.0305 0.0
C1072 C 0.0177 0.16691 0.89664 0.0
C1073 C 0.03525 0.15783 0.8753 0.0
C1074 C 1.00015 0.15629 0.8881 0.0
C1075 C 0.9814 0.16384 0.91747 0.0
C1076 C 0.97889 0.16722 0.99702 0.0
C1077 C 0.9609 0.17343 0.02545 0.0
C1078 C 0.94541 0.17663 0.97473 0.0
C1079 C 0.9478 0.17328 0.89551 0.0
C1080 C 0.96566 0.16671 0.86692 0.0
C1081 C 0.0279 0.07345 0.83207 0.0
C1082 C 0.01779 0.06756 0.76515 0.0
C1083 C 0.02796 0.093 0.8556 0.0
C1084 C 0.01782 0.10718 0.8132 0.0
C1085 C 0.0074 0.1013 0.74717 0.0
C1086 C 0.0075 0.08176 0.72312 0.0
C1087 C 0.01812 0.12806 0.83807 0.0
C1088 C 1.00053 0.13726 0.85747 0.0
C1089 C 0.03572 0.1386 0.84659 0.0
C1090 C 0.05478 0.12997 0.82529 0.0
C1091 C 0.05786 0.12206 0.75112 0.0
C1092 C 0.07577 0.11372 0.73202 0.0
C1093 C 0.0908 0.11331 0.7864 0.0
C1094 C 0.08794 0.12128 0.85996 0.0
C1095 C 0.07004 0.12962 0.87941 0.0
H1096 H 0.10465 0.10684 0.7715 0.0
H1097 H 0.93152 0.18154 0.9969 0.0
H1098 H 0.29875 0.04093 0.98081 0.0
H1099 H 0.32932 0.04476 0.90859 0.0
H1100 H 0.34073 0.98338 0.93316 0.0
H1101 H 0.3102 0.97949 0.00324 0.0
H1102 H 0.365 0.03993 0.95779 0.0
H1103 H 0.36945 0.96616 0.79064 0.0
H1104 H 0.34784 0.94381 0.71915 0.0
H1105 H 0.30749 0.99038 0.67947 0.0
H1106 H 0.32891 0.01305 0.75006 0.0
H1107 H 0.46322 0.01588 0.87785 0.0
H1108 H 0.42914 0.01642 0.91823 0.0
H1109 H 0.41126 0.02181 0.68009 0.0
H1110 H 0.44534 0.02075 0.63941 0.0
H1111 H 0.38858 0.99686 0.74723 0.0
H1112 H 0.40941 0.06097 0.81143 0.0
H1113 H 0.43044 0.08605 0.87009 0.0
H1114 H 0.41831 0.06337 0.0962 0.0
H1115 H 0.3974 0.03799 0.0388 0.0
C1116 C 0.30753 0.02819 0.96882 0.0
C1117 C 0.30201 0.00992 0.99795 0.0
C1118 C 0.32512 0.03041 0.92818 0.0
C1119 C 0.33747 0.01437 0.91494 0.0
C1120 C 0.3315 0.99599 0.94128 0.0
C1121 C 0.31402 0.99379 0.98188 0.0
C1122 C 0.35719 0.01689 0.87907 0.0
C1123 C 0.37006 0.03056 0.91138 0.0
C1124 C 0.3639 1.00496 0.81749 0.0
C1125 C 0.35074 0.99128 0.77629 0.0
C1126 C 0.35595 0.97163 0.76684 0.0
C1127 C 0.34372 0.9589 0.72648 0.0
C1128 C 0.32623 0.96564 0.69534 0.0
C1129 C 0.32096 0.98514 0.70423 0.0
C1130 C 0.33311 0.99792 0.74458 0.0
C1131 C 0.45206 0.0173 0.83401 0.0
C1132 C 0.45711 0.01823 0.75521 0.0
C1133 C 0.4325 0.01767 0.85724 0.0
C1134 C 0.41743 0.01934 0.80247 0.0
C1135 C 0.42247 0.0204 0.72373 0.0
C1136 C 0.44203 0.01982 0.70044 0.0
C1137 C 0.3965 0.01954 0.82724 0.0
C1138 C 0.38343 1.00633 0.79304 0.0
C1139 C 0.38947 0.03219 0.8859 0.0
C1140 C 0.40196 0.04749 0.92073 0.0
C1141 C 0.41133 0.06125 0.87362 0.0
C1142 C 0.42321 0.07553 0.90665 0.0
C1143 C 0.42574 0.07628 0.9868 0.0
C1144 C 0.41635 0.06277 0.03411 0.0
C1145 C 0.40446 0.04845 1.00137 0.0
H1146 H 0.43495 0.08734 0.01226 0.0
H1147 H 0.31681 0.95577 0.66399 0.0
H1148 H 0.50305 0.31451 0.1125 0.0
H1149 H 0.49952 0.34572 0.04715 0.0
H1150 H 0.51789 0.31933 0.83263 0.0
H1151 H 0.52151 0.2878 0.89888 0.0
H1152 H 0.53764 0.35328 0.86232 0.0
H1153 H 0.47103 0.33389 0.85586 0.0
H1154 H 0.44005 0.32158 0.90828 0.0
H1155 H 0.43712 0.37009 0.06486 0.0
H1156 H 0.46823 0.38256 0.01414 0.0
H1157 H 0.51849 0.44007 0.64995 0.0
H1158 H 0.51774 0.40656 0.69661 0.0
H1159 H 0.49912 0.42665 0.92102 0.0
H1160 H 0.49959 0.46027 0.87485 0.0
H1161 H 0.47868 0.39478 0.87608 0.0
H1162 H 0.54578 0.41344 0.88737 0.0
H1163 H 0.57654 0.42624 0.8347 0.0
H1164 H 0.57876 0.37936 0.67082 0.0
H1165 H 0.54789 0.3663 0.72184 0.0
C1166 C 0.50593 0.31523 0.05104 0.0
C1167 C 0.5124 0.29865 0.01072 0.0
C1168 C 0.50391 0.33313 0.0136 0.0
C1169 C 0.50834 0.33498 0.93466 0.0
C1170 C 0.51435 0.3183 0.89352 0.0
C1171 C 0.51622 0.30025 0.93111 0.0
C1172 C 0.50759 0.35458 0.89716 0.0
C1173 C 0.52462 0.3622 0.86391 0.0
C1174 C 0.4908 0.36651 0.90096 0.0
C1175 C 0.47205 0.35908 0.93156 0.0
C1176 C 0.46386 0.34186 0.90188 0.0
C1177 C 0.44626 0.33487 0.93122 0.0
C1178 C 0.43664 0.34503 0.98997 0.0
C1179 C 0.44459 0.36223 0.01939 0.0
C1180 C 0.46219 0.36928 0.99029 0.0
C1181 C 0.51418 0.43745 0.70929 0.0
C1182 C 0.50913 0.45304 0.7586 0.0
C1183 C 0.51385 0.41821 0.73594 0.0
C1184 C 0.50857 0.414 0.8126 0.0
C1185 C 0.50325 0.42947 0.86163 0.0
C1186 C 0.50359 0.44874 0.83511 0.0
C1187 C 0.50874 0.39353 0.84182 0.0
C1188 C 0.49164 0.38579 0.87376 0.0
C1189 C 0.52549 0.38153 0.83705 0.0
C1190 C 0.54433 0.38906 0.8076 0.0
C1191 C 0.55273 0.40592 0.83969 0.0
C1192 C 0.57021 0.41319 0.81026 0.0
C1193 C 0.57954 0.40363 0.74928 0.0
C1194 C 0.57149 0.38671 0.71797 0.0
C1195 C 0.554 0.37937 0.7471 0.0
H1196 H 0.59305 0.4093 0.72645 0.0
H1197 H 0.42302 0.33959 0.0126 0.0
H1198 H 0.21939 0.54725 0.00917 0.0
H1199 H 0.18734 0.54413 0.94961 0.0
H1200 H 0.19808 0.48316 0.90809 0.0
H1201 H 0.23021 0.48623 0.96946 0.0
H1202 H 0.17166 0.53556 0.81955 0.0
H1203 H 0.15575 0.45752 0.93644 0.0
H1204 H 0.16442 0.43712 0.04857 0.0
H1205 H 0.17792 0.48827 0.18121 0.0
H1206 H 0.16906 0.50896 0.07041 0.0
H1207 H 0.08269 0.50602 0.64926 0.0
H1208 H 0.11643 0.50706 0.69354 0.0
H1209 H 0.09693 0.5054 0.93051 0.0
H1210 H 0.06314 0.50384 0.88656 0.0
H1211 H 0.12767 0.48468 0.9226 0.0
H1212 H 0.11106 0.54711 0.83778 0.0
H1213 H 0.09916 0.57307 0.75213 0.0
H1214 H 0.1469 0.56313 0.59756 0.0
H1215 H 0.15859 0.53626 0.67977 0.0
C1216 C 0.21509 0.53323 0.98604 0.0
C1217 C 0.22741 0.51698 0.9943 0.0
C1218 C 0.19669 0.53145 0.95185 0.0
C1219 C 0.18996 0.51334 0.92518 0.0
C1220 C 0.20269 0.49727 0.92921 0.0
C1221 C 0.22121 0.49907 0.9634 0.0
C1222 C 0.16934 0.51124 0.89714 0.0
C1223 C 0.16214 0.52427 0.84139 0.0
C1224 C 0.15644 0.49715 0.92808 0.0
C1225 C 0.16201 0.48476 0.99466 0.0
C1226 C 0.16057 0.4644 0.98953 0.0
C1227 C 0.16549 0.45279 0.05291 0.0
C1228 C 0.17177 0.46139 0.12189 0.0
C1229 C 0.17312 0.48162 0.12768 0.0
C1230 C 0.16819 0.49329 0.06455 0.0
C1231 C 0.08552 0.50571 0.71089 0.0
C1232 C 0.07004 0.50488 0.76426 0.0
C1233 C 0.10492 0.50641 0.73621 0.0
C1234 C 0.10944 0.50658 0.81565 0.0
C1235 C 0.09401 0.50526 0.86895 0.0
C1236 C 0.0746 0.50443 0.84365 0.0
C1237 C 0.13011 0.50865 0.84316 0.0
C1238 C 0.13729 0.49571 0.89932 0.0
C1239 C 0.14266 0.52353 0.8156 0.0
C1240 C 0.1355 0.53935 0.76444 0.0
C1241 C 0.11883 0.55013 0.78467 0.0
C1242 C 0.11209 0.56498 0.73655 0.0
C1243 C 0.12214 0.56954 0.66881 0.0
C1244 C 0.13898 0.5593 0.64926 0.0
C1245 C 0.14562 0.54419 0.69646 0.0
H1246 H 0.11698 0.58112 0.6318 0.0
H1247 H 0.17554 0.45238 0.17093 0.0
H1248 H 0.96754 0.79126 0.43609 0.0
H1249 H 0.97097 0.82319 0.49793 0.0
H1250 H 0.03329 0.81915 0.47587 0.0
H1251 H 0.02984 0.78684 0.41583 0.0
H1252 H 0.0212 0.83879 0.61277 0.0
H1253 H 1.00589 0.84067 0.33567 0.0
H1254 H 0.98413 0.82884 0.23227 0.0
H1255 H 0.93552 0.85662 0.34263 0.0
H1256 H 0.9569 0.86822 0.44764 0.0
H1257 H 0.04179 0.9395 0.65164 0.0
H1258 H 0.03985 0.90545 0.61079 0.0
H1259 H 0.97937 0.91353 0.55132 0.0
H1260 H 0.98207 0.94808 0.58485 0.0
H1261 H 0.99044 0.89072 0.45585 0.0
H1262 H 1.00033 0.88888 0.72619 0.0
H1263 H 0.01588 0.89593 0.85036 0.0
H1264 H 0.06715 0.86507 0.77913 0.0
H1265 H 0.05218 0.85863 0.65186 0.0
C1266 C 0.982 0.79686 0.44723 0.0
C1267 C 0.99842 0.78645 0.42176 0.0
C1268 C 0.98396 0.81523 0.48183 0.0
C1269 C 1.00238 0.8239 0.48997 0.0
C1270 C 0.01891 0.81289 0.46999 0.0
C1271 C 0.01695 0.79434 0.43613 0.0
C1272 C 1.00423 0.845 0.5117 0.0
C1273 C 0.01476 0.85022 0.57798 0.0
C1274 C 0.99516 0.85992 0.46812 0.0
C1275 C 0.98297 0.85519 0.39979 0.0
C1276 C 0.99059 0.84435 0.33759 0.0
C1277 C 0.97829 0.83753 0.27913 0.0
C1278 C 0.95842 0.84177 0.28152 0.0
C1279 C 0.95089 0.8532 0.34135 0.0
C1280 C 0.96309 0.85993 0.40025 0.0
C1281 C 0.02809 0.93395 0.62983 0.0
C1282 C 0.01204 0.94645 0.62205 0.0
C1283 C 0.02689 0.91432 0.60699 0.0
C1284 C 0.00927 0.90629 0.57949 0.0
C1285 C 0.99322 0.91896 0.57195 0.0
C1286 C 0.99468 0.93879 0.59177 0.0
C1287 C 0.00756 0.88493 0.55813 0.0
C1288 C 0.99709 0.87954 0.4912 0.0
C1289 C 0.0161 0.86976 0.60291 0.0
C1290 C 0.02522 0.87352 0.67911 0.0
C1291 C 0.015 0.88375 0.73659 0.0
C1292 C 0.02373 0.88762 0.80773 0.0
C1293 C 0.04249 0.88088 0.82329 0.0
C1294 C 0.05262 0.87031 0.76712 0.0
C1295 C 0.04406 0.86664 0.69518 0.0
H1296 H 0.04917 0.88384 0.87874 0.0
H1297 H 0.94885 0.83635 0.23674 0.0
H1298 H 0.74243 0.99022 0.4585 0.0
H1299 H 0.71073 0.99126 0.52378 0.0
H1300 H 0.68769 0.02611 0.33772 0.0
H1301 H 0.71936 0.026 0.27552 0.0
H1302 H 0.67211 0.03865 0.4574 0.0
H1303 H 0.6806 0.97253 0.36313 0.0
H1304 H 0.6969 0.94064 0.35293 0.0
H1305 H 0.69201 0.93293 0.59851 0.0
H1306 H 0.67563 0.96476 0.61019 0.0
H1307 H 0.57117 0.01628 0.47656 0.0
H1308 H 0.60549 0.01634 0.43864 0.0
H1309 H 0.62178 0.99778 0.66748 0.0
H1310 H 0.58742 0.99797 0.70643 0.0
H1311 H 0.64129 0.97704 0.54183 0.0
H1312 H 0.62966 0.04189 0.6312 0.0
H1313 H 0.61211 0.07311 0.63879 0.0
H1314 H 0.62237 0.08282 0.39695 0.0
H1315 H 0.63977 0.0515 0.38765 0.0
C1316 C 0.73071 0.9985 0.43272 0.0
C1317 C 0.73347 0.00784 0.36126 0.0
C1318 C 0.7124 0.99884 0.46943 0.0
C1319 C 0.69636 0.00835 0.43508 0.0
C1320 C 0.69953 0.01852 0.36584 0.0
C1321 C 0.71776 0.01837 0.3299 0.0
C1322 C 0.67618 0.00768 0.46917 0.0
C1323 C 0.6654 0.02506 0.47465 0.0
C1324 C 0.66727 0.99017 0.49461 0.0
C1325 C 0.67709 0.97108 0.48762 0.0
C1326 C 0.6831 0.96407 0.41497 0.0
C1327 C 0.69234 0.94601 0.40892 0.0
C1328 C 0.69559 0.93482 0.47504 0.0
C1329 C 0.68952 0.94163 0.54736 0.0
C1330 C 0.68022 0.95965 0.55373 0.0
C1331 C 0.58199 0.01208 0.51885 0.0
C1332 C 0.57643 0.00711 0.59462 0.0
C1333 C 0.60166 0.01218 0.49709 0.0
C1334 C 0.61629 0.00709 0.55018 0.0
C1335 C 0.61079 1.00169 0.6254 0.0
C1336 C 0.59111 1.00187 0.64762 0.0
C1337 C 0.63727 0.00783 0.52706 0.0
C1338 C 0.64813 0.99054 0.52419 0.0
C1339 C 0.64619 0.02536 0.50311 0.0
C1340 C 0.63587 0.04426 0.50858 0.0
C1341 C 0.62805 0.05061 0.57948 0.0
C1342 C 0.61815 0.06834 0.58413 0.0
C1343 C 0.61608 0.07992 0.51835 0.0
C1344 C 0.62396 0.07382 0.44784 0.0
C1345 C 0.63386 0.05609 0.44286 0.0
H1346 H 0.6084 0.09364 0.52206 0.0
H1347 H 0.70276 0.92085 0.47019 0.0
H1348 H 0.47959 0.72665 0.39031 0.0
H1349 H 0.482 0.69488 0.45383 0.0
H1350 H 0.54323 0.6928 0.40099 0.0
H1351 H 0.54088 0.72482 0.33838 0.0
H1352 H 0.52019 0.65998 0.34662 0.0
H1353 H 0.53197 0.69424 0.59632 0.0
H1354 H 0.52281 0.71913 0.69309 0.0
H1355 H 0.46505 0.69557 0.70398 0.0
H1356 H 0.47397 0.67042 0.608 0.0
H1357 H 0.53911 0.56771 0.50884 0.0
H1358 H 0.53946 0.6018 0.46862 0.0
H1359 H 0.48796 0.61259 0.60536 0.0
H1360 H 0.48873 0.57899 0.65059 0.0
H1361 H 0.5061 0.64221 0.6187 0.0
H1362 H 0.49021 0.60823 0.38824 0.0
H1363 H 0.49251 0.58441 0.28165 0.0
H1364 H 0.54796 0.6078 0.216 0.0
H1365 H 0.54605 0.63173 0.3224 0.0
C1366 C 0.49369 0.71969 0.39461 0.0
C1367 C 0.51011 0.72833 0.36031 0.0
C1368 C 0.49505 0.70151 0.43075 0.0
C1369 C 0.51281 0.6914 0.43247 0.0
C1370 C 0.52939 0.70034 0.40077 0.0
C1371 C 0.52809 0.71871 0.36563 0.0
C1372 C 0.51358 0.67084 0.46024 0.0
C1373 C 0.51751 0.65604 0.40642 0.0
C1374 C 0.50887 0.6656 0.53698 0.0
C1375 C 0.50364 0.6805 0.5953 0.0
C1376 C 0.51734 0.69438 0.61954 0.0
C1377 C 0.5122 0.7085 0.6743 0.0
C1378 C 0.49336 0.70893 0.70469 0.0
C1379 C 0.47963 0.69521 0.68048 0.0
C1380 C 0.48475 0.68097 0.62626 0.0
C1381 C 0.52785 0.57739 0.53001 0.0
C1382 C 0.51384 0.57061 0.58249 0.0
C1383 C 0.52792 0.59693 0.50644 0.0
C1384 C 0.51342 0.61003 0.5319 0.0
C1385 C 0.49938 0.6031 0.58439 0.0
C1386 C 0.49974 0.58376 0.61002 0.0
C1387 C 0.51303 0.63089 0.50503 0.0
C1388 C 0.50901 0.64586 0.55881 0.0
C1389 C 0.51668 0.63623 0.42694 0.0
C1390 C 0.5181 0.62161 0.36389 0.0
C1391 C 0.50298 0.60817 0.35152 0.0
C1392 C 0.50419 0.59468 0.29106 0.0
C1393 C 0.52041 0.59452 0.24238 0.0
C1394 C 0.53543 0.6079 0.25389 0.0
C1395 C 0.53428 0.62146 0.31418 0.0
H1396 H 0.5213 0.58407 0.19557 0.0
H1397 H 0.4894 0.71987 0.74697 0.0
H1398 H 0.7962 0.54934 0.41975 0.0
H1399 H 0.8286 0.54496 0.47494 0.0
H1400 H 0.82285 0.48279 0.45126 0.0
H1401 H 0.79029 0.48717 0.39429 0.0
H1402 H 0.84351 0.49463 0.58874 0.0
H1403 H 0.84532 0.50342 0.31808 0.0
H1404 H 0.83725 0.51862 0.1932 0.0
H1405 H 0.86561 0.57131 0.26463 0.0
H1406 H 0.87334 0.55663 0.39109 0.0
H1407 H 0.95588 0.50363 0.49402 0.0
H1408 H 0.92195 0.50278 0.45157 0.0
H1409 H 0.90348 0.52048 0.6797 0.0
H1410 H 0.93729 0.5205 0.72316 0.0
H1411 H 0.89475 0.52673 0.43228 0.0
H1412 H 0.85878 0.50411 0.72394 0.0
H1413 H 0.86716 0.48489 0.83942 0.0
H1414 H 0.90863 0.45201 0.70753 0.0
H1415 H 0.90028 0.47076 0.59074 0.0
C1416 C 0.80159 0.53468 0.42819 0.0
C1417 C 0.79065 0.5186 0.40227 0.0
C1418 C 0.82019 0.5322 0.45942 0.0
C1419 C 0.82837 0.51357 0.46612 0.0
C1420 C 0.81689 0.49733 0.4465 0.0
C1421 C 0.7982 0.49982 0.41449 0.0
C1422 C 0.84941 0.51149 0.48685 0.0
C1423 C 0.85473 0.50165 0.55469 0.0
C1424 C 0.86419 0.52004 0.44094 0.0
C1425 C 0.85972 0.52897 0.36464 0.0
C1426 C 0.84965 0.51833 0.30763 0.0
C1427 C 0.84514 0.52684 0.23648 0.0
C1428 C 0.85089 0.54592 0.22098 0.0
C1429 C 0.86114 0.55653 0.27674 0.0
C1430 C 0.86557 0.54813 0.34827 0.0
C1431 C 0.9446 0.50734 0.53522 0.0
C1432 C 0.94941 0.51205 0.61218 0.0
C1433 C 0.92511 0.50688 0.51077 0.0
C1434 C 0.90987 0.51125 0.56236 0.0
C1435 C 0.91474 0.51651 0.6388 0.0
C1436 C 0.93419 0.51667 0.66359 0.0
C1437 C 0.88899 0.51042 0.53616 0.0
C1438 C 0.88364 0.51969 0.4668 0.0
C1439 C 0.8743 0.50072 0.57926 0.0
C1440 C 0.87902 0.489 0.64874 0.0
C1441 C 0.86959 0.49269 0.7194 0.0
C1442 C 0.87433 0.48187 0.78512 0.0
C1443 C 0.88845 0.4673 0.78098 0.0
C1444 C 0.89775 0.46337 0.7108 0.0
C1445 C 0.89301 0.47408 0.64479 0.0
H1446 H 0.89216 0.45904 0.83211 0.0
H1447 H 0.84746 0.55246 0.16572 0.0
loop_
_geom_bond_atom_site_label_1
_geom_bond_atom_site_label_2
_geom_bond_distance
_geom_bond_site_symmetry_2
_ccdc_geom_bond_type
H0 C3 0.929 . S
H1 C6 0.929 . S
H2 C8 0.930 . S
C3 H0 0.929 . S
C3 C4 1.398 . S
C3 C5 1.396 . S
C4 C3 1.398 . S
C4 C8 1.407 . S
C5 C3 1.396 . S
C5 C6 1.394 . S
C6 H1 0.929 . S
C6 C5 1.394 . S
C6 C7 1.382 . S
C7 C6 1.382 . S
C7 C8 1.392 . S
C7 N9 1.420 . S
C8 H2 0.930 . S
C8 C4 1.407 . S
C8 C7 1.392 . S
N9 C7 1.420 . S
N9 C10 1.244 . S
C10 N9 1.244 . S
H11 C14 0.929 . S
H12 C17 0.929 . S
H13 C19 0.930 . S
C14 H11 0.929 . S
C14 C15 1.398 . S
C14 C16 1.396 . S
C15 C14 1.398 . S
C15 C19 1.407 1_655 S
C16 C14 1.396 . S
C16 C17 1.394 1_655 S
C17 H12 0.929 . S
C17 C16 1.394 1_455 S
C17 C18 1.382 . S
C18 C17 1.382 . S
C18 C19 1.392 . S
C18 N20 1.420 . S
C19 H13 0.930 . S
C19 C15 1.407 1_455 S
C19 C18 1.392 . S
N20 C18 1.420 . S
N20 C21 1.244 1_455 S
C21 N20 1.244 1_655 S
H22 C25 0.929 . S
H23 C28 0.932 . S
H24 C30 0.930 . S
C25 H22 0.929 . S
C25 C26 1.398 . S
C25 C27 1.396 . S
C26 C25 1.398 . S
C26 C30 1.407 1_565 S
C27 C25 1.396 . S
C27 C28 1.390 1_565 S
C28 H23 0.932 . S
C28 C27 1.390 1_545 S
C28 C29 1.384 . S
C29 C28 1.384 . S
C29 C30 1.392 . S
C29 N31 1.420 . S
C30 H24 0.930 . S
C30 C26 1.407 1_545 S
C30 C29 1.392 . S
N31 C29 1.420 . S
N31 C32 1.244 1_545 S
C32 N31 1.244 1_565 S
H33 C36 0.929 . S
H34 C39 0.929 . S
H35 C41 0.930 . S
C36 H33 0.929 . S
C36 C37 1.398 . S
C36 C38 1.396 . S
C37 C36 1.398 . S
C37 C41 1.407 . S
C38 C36 1.396 . S
C38 C39 1.394 . S
C39 H34 0.929 . S
C39 C38 1.394 . S
C39 C40 1.382 . S
C40 C39 1.382 . S
C40 C41 1.392 . S
C40 N42 1.420 . S
C41 H35 0.930 . S
C41 C37 1.407 . S
C41 C40 1.392 . S
N42 C40 1.420 . S
N42 C43 1.244 . S
C43 N42 1.244 . S
H44 C47 0.929 1_556 S
H45 C50 0.929 . S
H46 C52 0.930 . S
C47 H44 0.929 1_554 S
C47 C48 1.398 1_554 S
C47 C49 1.396 . S
C48 C47 1.398 1_556 S
C48 C52 1.407 . S
C49 C47 1.396 . S
C49 C50 1.394 . S
C50 H45 0.929 . S
C50 C49 1.394 . S
C50 C51 1.382 . S
C51 C50 1.382 . S
C51 C52 1.392 1_554 S
C51 N53 1.420 . S
C52 H46 0.930 . S
C52 C48 1.407 . S
C52 C51 1.392 1_556 S
N53 C51 1.420 . S
N53 C54 1.244 . S
C54 N53 1.244 . S
H55 C58 0.929 1_556 S
H56 C61 0.929 . S
H57 C63 0.930 . S
C58 H55 0.929 1_554 S
C58 C59 1.398 1_554 S
C58 C60 1.396 . S
C59 C58 1.398 1_556 S
C59 C63 1.407 . S
C60 C58 1.396 . S
C60 C61 1.394 . S
C61 H56 0.929 . S
C61 C60 1.394 . S
C61 C62 1.382 . S
C62 C61 1.382 . S
C62 C63 1.392 1_554 S
C62 N64 1.420 . S
C63 H57 0.930 . S
C63 C59 1.407 . S
C63 C62 1.392 1_556 S
N64 C62 1.420 . S
N64 C65 1.244 . S
C65 N64 1.244 . S
H66 C69 0.929 1_556 S
H67 C72 0.929 . S
H68 C74 0.930 . S
C69 H66 0.929 1_554 S
C69 C70 1.398 1_554 S
C69 C71 1.396 . S
C70 C69 1.398 1_556 S
C70 C74 1.407 . S
C71 C69 1.396 . S
C71 C72 1.394 . S
C72 H67 0.929 . S
C72 C71 1.394 . S
C72 C73 1.382 . S
C73 C72 1.382 . S
C73 C74 1.392 1_554 S
C73 N75 1.420 . S
C74 H68 0.930 . S
C74 C70 1.407 . S
C74 C73 1.392 1_556 S
N75 C73 1.420 . S
N75 C76 1.244 . S
C76 N75 1.244 . S
H77 C80 0.929 1_556 S
H78 C83 0.929 . S
H79 C85 0.930 . S
C80 H77 0.929 1_554 S
C80 C81 1.398 1_554 S
C80 C82 1.396 . S
C81 C80 1.398 1_556 S
C81 C85 1.407 . S
C82 C80 1.396 . S
C82 C83 1.394 . S
C83 H78 0.929 . S
C83 C82 1.394 . S
C83 C84 1.382 . S
C84 C83 1.382 . S
C84 C85 1.392 1_554 S
C84 N86 1.420 . S
C85 H79 0.930 . S
C85 C81 1.407 . S
C85 C84 1.392 1_556 S
N86 C84 1.420 . S
N86 C87 1.244 . S
C87 N86 1.244 . S
Gd88 C91 2.818 . S
Gd88 O108 2.377 . S
Gd88 O110 2.448 . S
Gd88 O111 2.506 . S
Gd88 O112 2.435 . S
Gd88 O113 2.717 1_565 S
Gd88 O115 2.395 1_565 S
Gd88 O119 2.327 1_455 S
Gd89 C100 2.818 . S
Gd89 O109 2.395 1_545 S
Gd89 O113 2.327 1_655 S
Gd89 O114 2.377 . S
Gd89 O116 2.448 . S
Gd89 O117 2.506 1_655 S
Gd89 O118 2.435 . S
Gd89 O119 2.717 1_545 S
C90 O108 1.240 1_655 S
C90 O109 1.240 . S
C91 Gd88 2.818 . S
C91 C92 1.510 . S
C91 O110 1.249 . S
C91 O111 1.252 . S
C92 C91 1.510 . S
C92 C93 1.404 . S
C92 C94 1.352 . S
C93 C92 1.404 . S
C93 C97 1.389 . S
C93 H120 0.930 . S
C94 C92 1.352 . S
C94 C96 1.374 . S
C94 H121 0.931 1_455 S
C95 C96 1.359 . S
C95 C97 1.364 . S
C96 C94 1.374 . S
C96 C95 1.359 . S
C96 H122 0.931 1_455 S
C97 C93 1.389 . S
C97 C95 1.364 . S
C97 H123 0.931 . S
C98 O112 1.256 1_545 S
C98 O113 1.257 . S
C99 O114 1.240 1_455 S
C99 O115 1.240 . S
C100 Gd89 2.818 . S
C100 C101 1.510 . S
C100 O116 1.249 . S
C100 O117 1.252 1_655 S
C101 C100 1.510 . S
C101 C102 1.404 . S
C101 C103 1.352 1_655 S
C102 C101 1.404 . S
C102 C106 1.389 . S
C102 H124 0.930 . S
C103 C101 1.352 1_455 S
C103 C105 1.374 . S
C103 H125 0.931 . S
C104 C105 1.359 1_655 S
C104 C106 1.364 . S
C105 C103 1.374 . S
C105 C104 1.359 1_455 S
C105 H126 0.931 . S
C106 C102 1.389 . S
C106 C104 1.364 . S
C106 H127 0.931 . S
C107 O118 1.256 . S
C107 O119 1.257 1_545 S
O108 Gd88 2.377 . S
O108 C90 1.240 1_455 S
O109 Gd89 2.395 1_565 S
O109 C90 1.240 . S
O110 Gd88 2.448 . S
O110 C91 1.249 . S
O111 Gd88 2.506 . S
O111 C91 1.252 . S
O112 Gd88 2.435 . S
O112 C98 1.256 1_565 S
O113 Gd88 2.717 1_545 S
O113 Gd89 2.327 1_455 S
O113 C98 1.257 . S
O114 Gd89 2.377 . S
O114 C99 1.240 1_655 S
O115 Gd88 2.395 1_545 S
O115 C99 1.240 . S
O116 Gd89 2.448 . S
O116 C100 1.249 . S
O117 Gd89 2.506 1_455 S
O117 C100 1.252 1_455 S
O118 Gd89 2.435 . S
O118 C107 1.256 . S
O119 Gd88 2.327 1_655 S
O119 Gd89 2.717 1_565 S
O119 C107 1.257 1_565 S
H120 C93 0.930 . S
H121 C94 0.931 1_655 S
H122 C96 0.931 1_655 S
H123 C97 0.931 . S
H124 C102 0.930 . S
H125 C103 0.931 . S
H126 C105 0.931 . S
H127 C106 0.931 . S
Gd128 C131 2.818 . S
Gd128 O148 2.377 . S
Gd128 O150 2.448 . S
Gd128 O151 2.506 . S
Gd128 O152 2.435 . S
Gd128 O153 2.717 . S
Gd128 O155 2.395 . S
Gd128 O159 2.327 1_545 S
Gd129 C140 2.818 . S
Gd129 O149 2.395 . S
Gd129 O153 2.327 1_565 S
Gd129 O154 2.377 . S
Gd129 O156 2.448 . S
Gd129 O157 2.506 1_565 S
Gd129 O158 2.435 . S
Gd129 O159 2.717 . S
C130 O148 1.240 1_565 S
C130 O149 1.240 . S
C131 Gd128 2.818 . S
C131 C132 1.510 . S
C131 O150 1.249 . S
C131 O151 1.252 . S
C132 C131 1.510 . S
C132 C133 1.404 . S
C132 C134 1.352 . S
C133 C132 1.404 . S
C133 C137 1.389 . S
C133 H160 0.930 . S
C134 C132 1.352 . S
C134 C136 1.374 . S
C134 H161 0.931 1_545 S
C135 C136 1.359 . S
C135 C137 1.364 . S
C136 C134 1.374 . S
C136 C135 1.359 . S
C136 H162 0.931 1_545 S
C137 C133 1.389 . S
C137 C135 1.364 . S
C137 H163 0.931 . S
C138 O152 1.256 . S
C138 O153 1.257 . S
C139 O154 1.240 1_545 S
C139 O155 1.240 . S
C140 Gd129 2.818 . S
C140 C141 1.510 . S
C140 O156 1.249 . S
C140 O157 1.252 1_565 S
C141 C140 1.510 . S
C141 C142 1.404 . S
C141 C143 1.352 1_565 S
C142 C141 1.404 . S
C142 C146 1.389 . S
C142 H164 0.930 . S
C143 C141 1.352 1_545 S
C143 C145 1.378 . S
C143 H165 0.931 . S
C144 C145 1.311 1_565 S
C144 C146 1.364 . S
C145 C143 1.378 . S
C145 C144 1.311 1_545 S
C145 H166 0.975 . S
C146 C142 1.389 . S
C146 C144 1.364 . S
C146 H167 0.931 . S
C147 O158 1.256 . S
C147 O159 1.257 . S
O148 Gd128 2.377 . S
O148 C130 1.240 1_545 S
O149 Gd129 2.395 . S
O149 C130 1.240 . S
O150 Gd128 2.448 . S
O150 C131 1.249 . S
O151 Gd128 2.506 . S
O151 C131 1.252 . S
O152 Gd128 2.435 . S
O152 C138 1.256 . S
O153 Gd128 2.717 . S
O153 Gd129 2.327 1_545 S
O153 C138 1.257 . S
O154 Gd129 2.377 . S
O154 C139 1.240 1_565 S
O155 Gd128 2.395 . S
O155 C139 1.240 . S
O156 Gd129 2.448 . S
O156 C140 1.249 . S
O157 Gd129 2.506 1_545 S
O157 C140 1.252 1_545 S
O158 Gd129 2.435 . S
O158 C147 1.256 . S
O159 Gd128 2.327 1_565 S
O159 Gd129 2.717 . S
O159 C147 1.257 . S
H160 C133 0.930 . S
H161 C134 0.931 1_565 S
H162 C136 0.931 1_565 S
H163 C137 0.931 . S
H164 C142 0.930 . S
H165 C143 0.931 . S
H166 C145 0.975 . S
H167 C146 0.931 . S
Gd168 C171 2.818 . S
Gd168 O188 2.377 . S
Gd168 O190 2.448 . S
Gd168 O191 2.506 . S
Gd168 O192 2.435 . S
Gd168 O193 2.717 . S
Gd168 O195 2.395 . S
Gd168 O199 2.327 . S
Gd169 C180 2.818 . S
Gd169 O189 2.395 . S
Gd169 O193 2.327 . S
Gd169 O194 2.377 . S
Gd169 O196 2.448 . S
Gd169 O197 2.506 . S
Gd169 O198 2.435 . S
Gd169 O199 2.717 . S
C170 O188 1.240 . S
C170 O189 1.240 . S
C171 Gd168 2.818 . S
C171 C172 1.510 . S
C171 O190 1.249 . S
C171 O191 1.252 . S
C172 C171 1.510 . S
C172 C173 1.404 . S
C172 C174 1.352 . S
C173 C172 1.404 . S
C173 C177 1.389 . S
C173 H200 0.930 . S
C174 C172 1.352 . S
C174 C176 1.374 . S
C174 H201 0.931 . S
C175 C176 1.359 . S
C175 C177 1.364 . S
C176 C174 1.374 . S
C176 C175 1.359 . S
C176 H202 0.931 . S
C177 C173 1.389 . S
C177 C175 1.364 . S
C177 H203 0.931 . S
C178 O192 1.256 . S
C178 O193 1.257 . S
C179 O194 1.240 . S
C179 O195 1.240 . S
C180 Gd169 2.818 . S
C180 C181 1.510 . S
C180 O196 1.249 . S
C180 O197 1.252 . S
C181 C180 1.510 . S
C181 C182 1.404 . S
C181 C183 1.352 . S
C182 C181 1.404 . S
C182 C186 1.389 . S
C182 H204 0.930 . S
C183 C181 1.352 . S
C183 C185 1.374 . S
C183 H205 0.931 . S
C184 C185 1.359 . S
C184 C186 1.364 . S
C185 C183 1.374 . S
C185 C184 1.359 . S
C185 H206 0.931 . S
C186 C182 1.389 . S
C186 C184 1.364 . S
C186 H207 0.931 . S
C187 O198 1.256 . S
C187 O199 1.257 . S
O188 Gd168 2.377 . S
O188 C170 1.240 . S
O189 Gd169 2.395 . S
O189 C170 1.240 . S
O190 Gd168 2.448 . S
O190 C171 1.249 . S
O191 Gd168 2.506 . S
O191 C171 1.252 . S
O192 Gd168 2.435 . S
O192 C178 1.256 . S
O193 Gd168 2.717 . S
O193 Gd169 2.327 . S
O193 C178 1.257 . S
O194 Gd169 2.377 . S
O194 C179 1.240 . S
O195 Gd168 2.395 . S
O195 C179 1.240 . S
O196 Gd169 2.448 . S
O196 C180 1.249 . S
O197 Gd169 2.506 . S
O197 C180 1.252 . S
O198 Gd169 2.435 . S
O198 C187 1.256 . S
O199 Gd168 2.327 . S
O199 Gd169 2.717 . S
O199 C187 1.257 . S
H200 C173 0.930 . S
H201 C174 0.931 . S
H202 C176 0.931 . S
H203 C177 0.931 . S
H204 C182 0.930 . S
H205 C183 0.931 . S
H206 C185 0.931 . S
H207 C186 0.931 . S
Gd208 C211 2.818 . S
Gd208 O228 2.377 . S
Gd208 O230 2.448 . S
Gd208 O231 2.506 . S
Gd208 O232 2.435 . S
Gd208 O233 2.717 1_655 S
Gd208 O235 2.395 1_655 S
Gd208 O239 2.334 . S
Gd209 C220 2.818 . S
Gd209 O229 2.395 1_455 S
Gd209 O233 2.327 . S
Gd209 O234 2.377 . S
Gd209 O236 2.448 . S
Gd209 O237 2.506 . S
Gd209 O238 2.435 . S
Gd209 O239 2.705 1_455 S
C210 O228 1.240 . S
C210 O229 1.240 . S
C211 Gd208 2.818 . S
C211 C212 1.510 . S
C211 O230 1.249 . S
C211 O231 1.252 . S
C212 C211 1.510 . S
C212 C213 1.404 . S
C212 C214 1.352 . S
C213 C212 1.404 . S
C213 C217 1.389 . S
C213 H240 0.930 . S
C214 C212 1.352 . S
C214 C216 1.374 . S
C214 H241 0.931 . S
C215 C216 1.359 . S
C215 C217 1.364 . S
C216 C214 1.374 . S
C216 C215 1.359 . S
C216 H242 0.931 . S
C217 C213 1.389 . S
C217 C215 1.364 . S
C217 H243 0.931 . S
C218 O232 1.256 1_455 S
C218 O233 1.257 . S
C219 O234 1.240 . S
C219 O235 1.240 . S
C220 Gd209 2.818 . S
C220 C221 1.510 . S
C220 O236 1.249 . S
C220 O237 1.252 . S
C221 C220 1.510 . S
C221 C222 1.404 . S
C221 C223 1.352 . S
C222 C221 1.404 . S
C222 C226 1.389 . S
C222 H244 0.930 . S
C223 C221 1.352 . S
C223 C225 1.374 . S
C223 H245 0.931 . S
C224 C225 1.359 . S
C224 C226 1.364 . S
C225 C223 1.374 . S
C225 C224 1.359 . S
C225 H246 0.931 . S
C226 C222 1.389 . S
C226 C224 1.364 . S
C226 H247 0.931 . S
C227 O238 1.256 . S
C227 O239 1.249 1_455 S
O228 Gd208 2.377 . S
O228 C210 1.240 . S
O229 Gd209 2.395 1_655 S
O229 C210 1.240 . S
O230 Gd208 2.448 . S
O230 C211 1.249 . S
O231 Gd208 2.506 . S
O231 C211 1.252 . S
O232 Gd208 2.435 . S
O232 C218 1.256 1_655 S
O233 Gd208 2.717 1_455 S
O233 Gd209 2.327 . S
O233 C218 1.257 . S
O234 Gd209 2.377 . S
O234 C219 1.240 . S
O235 Gd208 2.395 1_455 S
O235 C219 1.240 . S
O236 Gd209 2.448 . S
O236 C220 1.249 . S
O237 Gd209 2.506 . S
O237 C220 1.252 . S
O238 Gd209 2.435 . S
O238 C227 1.256 . S
O239 Gd208 2.334 . S
O239 Gd209 2.705 1_655 S
O239 C227 1.249 1_655 S
H240 C213 0.930 . S
H241 C214 0.931 . S
H242 C216 0.931 . S
H243 C217 0.931 . S
H244 C222 0.930 . S
H245 C223 0.931 . S
H246 C225 0.931 . S
H247 C226 0.931 . S
H248 C266 0.951 . S
H249 C268 0.951 . S
H250 C270 0.950 . S
H251 C271 0.950 . S
H252 C273 0.950 . S
H253 C276 0.950 . S
H254 C277 0.950 . S
H255 C279 0.950 . S
H256 C280 0.950 . S
H257 C281 0.951 . S
H258 C283 0.951 . S
H259 C285 0.950 . S
H260 C286 0.950 . S
H261 C288 0.950 . S
H262 C291 0.950 1_565 S
H263 C292 0.950 . S
H264 C294 0.950 . S
H265 C295 0.950 . S
C266 H248 0.951 . S
C266 C267 1.366 1_565 S
C266 C268 1.388 . S
C267 C266 1.366 1_545 S
C267 C271 1.385 . S
C268 H249 0.951 . S
C268 C266 1.388 . S
C268 C269 1.366 1_565 S
C269 C268 1.366 1_545 S
C269 C270 1.414 . S
C269 C272 1.499 . S
C270 H250 0.950 . S
C270 C269 1.414 . S
C270 C271 1.374 . S
C271 H251 0.950 . S
C271 C267 1.385 . S
C271 C270 1.374 . S
C272 C269 1.499 . S
C272 C273 1.373 . S
C272 C274 1.389 . S
C273 H252 0.950 . S
C273 C272 1.373 . S
C273 C289 1.377 . S
C274 C272 1.389 . S
C274 C275 1.525 1_545 S
C274 C288 1.377 1_545 S
C275 C274 1.525 1_565 S
C275 C276 1.397 1_565 S
C275 C280 1.363 . S
C276 H253 0.950 . S
C276 C275 1.397 1_545 S
C276 C277 1.334 . S
C277 H254 0.950 . S
C277 C276 1.334 . S
C277 C278 1.287 1_545 S
C278 C277 1.287 1_565 S
C278 C279 1.524 . S
C278 H297 0.913 1_554 S
C279 H255 0.950 . S
C279 C278 1.524 . S
C279 C280 1.415 . S
C280 H256 0.950 . S
C280 C275 1.363 . S
C280 C279 1.415 . S
C281 H257 0.951 . S
C281 C282 1.366 . S
C281 C283 1.388 . S
C282 C281 1.366 . S
C282 C286 1.385 1_545 S
C283 H258 0.951 . S
C283 C281 1.388 . S
C283 C284 1.366 . S
C284 C283 1.366 . S
C284 C285 1.414 1_545 S
C284 C287 1.499 . S
C285 H259 0.950 . S
C285 C284 1.414 1_565 S
C285 C286 1.374 . S
C286 H260 0.950 . S
C286 C282 1.385 1_565 S
C286 C285 1.374 . S
C287 C284 1.499 . S
C287 C288 1.373 1_545 S
C287 C289 1.389 . S
C288 H261 0.950 . S
C288 C274 1.377 1_565 S
C288 C287 1.373 1_565 S
C289 C273 1.377 . S
C289 C287 1.389 . S
C289 C290 1.524 . S
C290 C289 1.524 . S
C290 C291 1.397 . S
C290 C295 1.363 . S
C291 H262 0.950 1_545 S
C291 C290 1.397 . S
C291 C292 1.334 . S
C292 H263 0.950 . S
C292 C291 1.334 . S
C292 C293 1.287 . S
C293 C292 1.287 . S
C293 C294 1.524 . S
C293 H296 0.999 . S
C294 H264 0.950 . S
C294 C293 1.524 . S
C294 C295 1.415 . S
C295 H265 0.950 . S
C295 C290 1.363 . S
C295 C294 1.415 . S
H296 C293 0.999 . S
H297 C278 0.913 1_556 S
H298 C316 0.951 . S
H299 C318 0.951 . S
H300 C320 0.950 . S
H301 C321 0.950 . S
H302 C323 0.950 . S
H303 C326 0.950 . S
H304 C327 0.950 . S
H305 C329 0.950 . S
H306 C330 0.950 . S
H307 C331 0.951 . S
H308 C333 0.951 . S
H309 C335 0.950 . S
H310 C336 0.950 . S
H311 C338 0.950 . S
H312 C341 0.950 . S
H313 C342 0.950 . S
H314 C344 0.950 . S
H315 C345 0.950 . S
C316 H298 0.951 . S
C316 C317 1.366 . S
C316 C318 1.388 . S
C317 C316 1.366 . S
C317 C321 1.385 . S
C318 H299 0.951 . S
C318 C316 1.388 . S
C318 C319 1.366 . S
C319 C318 1.366 . S
C319 C320 1.414 . S
C319 C322 1.499 . S
C320 H300 0.950 . S
C320 C319 1.414 . S
C320 C321 1.374 . S
C321 H301 0.950 . S
C321 C317 1.385 . S
C321 C320 1.374 . S
C322 C319 1.499 . S
C322 C323 1.373 . S
C322 C324 1.389 . S
C323 H302 0.950 . S
C323 C322 1.373 . S
C323 C339 1.377 . S
C324 C322 1.389 . S
C324 C325 1.524 . S
C324 C338 1.377 . S
C325 C324 1.524 . S
C325 C326 1.397 . S
C325 C330 1.363 . S
C326 H303 0.950 . S
C326 C325 1.397 . S
C326 C327 1.334 . S
C327 H304 0.950 . S
C327 C326 1.334 . S
C327 C328 1.287 . S
C328 C327 1.287 . S
C328 C329 1.524 . S
C328 H347 0.913 . S
C329 H305 0.950 . S
C329 C328 1.524 . S
C329 C330 1.415 . S
C330 H306 0.950 . S
C330 C325 1.363 . S
C330 C329 1.415 . S
C331 H307 0.951 . S
C331 C332 1.366 . S
C331 C333 1.388 . S
C332 C331 1.366 . S
C332 C336 1.385 . S
C333 H308 0.951 . S
C333 C331 1.388 . S
C333 C334 1.366 . S
C334 C333 1.366 . S
C334 C335 1.414 . S
C334 C337 1.499 . S
C335 H309 0.950 . S
C335 C334 1.414 . S
C335 C336 1.374 . S
C336 H310 0.950 . S
C336 C332 1.385 . S
C336 C335 1.374 . S
C337 C334 1.499 . S
C337 C338 1.373 . S
C337 C339 1.389 . S
C338 H311 0.950 . S
C338 C324 1.377 . S
C338 C337 1.373 . S
C339 C323 1.377 . S
C339 C337 1.389 . S
C339 C340 1.524 . S
C340 C339 1.524 . S
C340 C341 1.397 . S
C340 C345 1.363 . S
C341 H312 0.950 . S
C341 C340 1.397 . S
C341 C342 1.334 . S
C342 H313 0.950 . S
C342 C341 1.334 . S
C342 C343 1.287 . S
C343 C342 1.287 . S
C343 C344 1.524 . S
C343 H346 0.999 . S
C344 H314 0.950 . S
C344 C343 1.524 . S
C344 C345 1.415 . S
C345 H315 0.950 . S
C345 C340 1.363 . S
C345 C344 1.415 . S
H346 C343 0.999 . S
H347 C328 0.913 . S
H348 C366 0.951 . S
H349 C368 0.951 . S
H350 C370 0.950 . S
H351 C371 0.950 . S
H352 C373 0.950 . S
H353 C376 0.950 . S
H354 C377 0.950 . S
H355 C379 0.950 . S
H356 C380 0.950 . S
H357 C381 0.951 . S
H358 C383 0.951 . S
H359 C385 0.950 . S
H360 C386 0.950 . S
H361 C388 0.950 . S
H362 C391 0.950 . S
H363 C392 0.950 . S
H364 C394 0.950 . S
H365 C395 0.950 . S
C366 H348 0.951 . S
C366 C367 1.366 . S
C366 C368 1.388 . S
C367 C366 1.366 . S
C367 C371 1.385 . S
C368 H349 0.951 . S
C368 C366 1.388 . S
C368 C369 1.366 . S
C369 C368 1.366 . S
C369 C370 1.414 . S
C369 C372 1.499 . S
C370 H350 0.950 . S
C370 C369 1.414 . S
C370 C371 1.374 . S
C371 H351 0.950 . S
C371 C367 1.385 . S
C371 C370 1.374 . S
C372 C369 1.499 . S
C372 C373 1.373 . S
C372 C374 1.389 . S
C373 H352 0.950 . S
C373 C372 1.373 . S
C373 C389 1.377 . S
C374 C372 1.389 . S
C374 C375 1.524 . S
C374 C388 1.377 . S
C375 C374 1.524 . S
C375 C376 1.397 . S
C375 C380 1.363 . S
C376 H353 0.950 . S
C376 C375 1.397 . S
C376 C377 1.334 . S
C377 H354 0.950 . S
C377 C376 1.334 . S
C377 C378 1.287 . S
C378 C377 1.287 . S
C378 C379 1.524 . S
C378 H397 0.913 . S
C379 H355 0.950 . S
C379 C378 1.524 . S
C379 C380 1.415 . S
C380 H356 0.950 . S
C380 C375 1.363 . S
C380 C379 1.415 . S
C381 H357 0.951 . S
C381 C382 1.366 . S
C381 C383 1.388 . S
C382 C381 1.366 . S
C382 C386 1.385 . S
C383 H358 0.951 . S
C383 C381 1.388 . S
C383 C384 1.366 . S
C384 C383 1.366 . S
C384 C385 1.414 . S
C384 C387 1.499 . S
C385 H359 0.950 . S
C385 C384 1.414 . S
C385 C386 1.374 . S
C386 H360 0.950 . S
C386 C382 1.385 . S
C386 C385 1.374 . S
C387 C384 1.499 . S
C387 C388 1.373 . S
C387 C389 1.389 . S
C388 H361 0.950 . S
C388 C374 1.377 . S
C388 C387 1.373 . S
C389 C373 1.377 . S
C389 C387 1.389 . S
C389 C390 1.524 . S
C390 C389 1.524 . S
C390 C391 1.397 . S
C390 C395 1.363 . S
C391 H362 0.950 . S
C391 C390 1.397 . S
C391 C392 1.334 . S
C392 H363 0.950 . S
C392 C391 1.334 . S
C392 C393 1.287 . S
C393 C392 1.287 . S
C393 C394 1.524 . S
C393 H396 0.999 . S
C394 H364 0.950 . S
C394 C393 1.524 . S
C394 C395 1.415 . S
C395 H365 0.950 . S
C395 C390 1.363 . S
C395 C394 1.415 . S
H396 C393 0.999 . S
H397 C378 0.913 . S
H398 C416 0.951 . S
H399 C418 0.951 . S
H400 C420 0.950 . S
H401 C421 0.950 . S
H402 C423 0.950 . S
H403 C426 0.950 . S
H404 C427 0.950 . S
H405 C429 0.950 . S
H406 C430 0.950 . S
H407 C431 0.951 . S
H408 C433 0.951 . S
H409 C435 0.950 . S
H410 C436 0.950 . S
H411 C438 0.950 . S
H412 C441 0.950 . S
H413 C442 0.950 . S
H414 C444 0.950 . S
H415 C445 0.950 . S
C416 H398 0.951 . S
C416 C417 1.366 1_655 S
C416 C418 1.388 . S
C417 C416 1.366 1_455 S
C417 C421 1.385 . S
C418 H399 0.951 . S
C418 C416 1.388 . S
C418 C419 1.366 1_655 S
C419 C418 1.366 1_455 S
C419 C420 1.414 . S
C419 C422 1.499 . S
C420 H400 0.950 . S
C420 C419 1.414 . S
C420 C421 1.374 . S
C421 H401 0.950 . S
C421 C417 1.385 . S
C421 C420 1.374 . S
C422 C419 1.499 . S
C422 C423 1.373 . S
C422 C424 1.389 1_455 S
C423 H402 0.950 . S
C423 C422 1.373 . S
C423 C439 1.377 . S
C424 C422 1.389 1_655 S
C424 C425 1.524 . S
C424 C438 1.377 . S
C425 C424 1.524 . S
C425 C426 1.397 . S
C425 C430 1.363 . S
C426 H403 0.950 . S
C426 C425 1.397 . S
C426 C427 1.334 . S
C427 H404 0.950 . S
C427 C426 1.334 . S
C427 C428 1.287 . S
C428 C427 1.287 . S
C428 C429 1.524 . S
C428 H447 0.913 . S
C429 H405 0.950 . S
C429 C428 1.524 . S
C429 C430 1.415 . S
C430 H406 0.950 . S
C430 C425 1.363 . S
C430 C429 1.415 . S
C431 H407 0.951 . S
C431 C432 1.366 . S
C431 C433 1.388 . S
C432 C431 1.366 . S
C432 C436 1.385 1_455 S
C433 H408 0.951 . S
C433 C431 1.388 . S
C433 C434 1.366 . S
C434 C433 1.366 . S
C434 C435 1.414 1_455 S
C434 C437 1.499 . S
C435 H409 0.950 . S
C435 C434 1.414 1_655 S
C435 C436 1.374 . S
C436 H410 0.950 . S
C436 C432 1.385 1_655 S
C436 C435 1.374 . S
C437 C434 1.499 . S
C437 C438 1.373 1_455 S
C437 C439 1.389 . S
C438 H411 0.950 . S
C438 C424 1.377 . S
C438 C437 1.373 1_655 S
C439 C423 1.377 . S
C439 C437 1.389 . S
C439 C440 1.524 . S
C440 C439 1.524 . S
C440 C441 1.397 . S
C440 C445 1.363 . S
C441 H412 0.950 . S
C441 C440 1.397 . S
C441 C442 1.334 . S
C442 H413 0.950 . S
C442 C441 1.334 . S
C442 C443 1.287 . S
C443 C442 1.287 . S
C443 C444 1.524 . S
C443 H446 0.999 . S
C444 H414 0.950 . S
C444 C443 1.524 . S
C444 C445 1.415 . S
C445 H415 0.950 . S
C445 C440 1.363 . S
C445 C444 1.415 . S
H446 C443 0.999 . S
H447 C428 0.913 . S
H448 C466 0.961 . S
H449 C468 0.960 . S
H450 C470 0.950 . S
H451 C471 0.950 . S
H452 C473 0.950 . S
H453 C476 0.950 . S
H454 C477 0.950 . S
H455 C479 0.950 . S
H456 C480 0.950 . S
H457 C481 0.951 . S
H458 C483 0.951 . S
H459 C485 0.950 . S
H460 C486 0.950 . S
H461 C488 0.950 . S
H462 C491 0.950 1_556 S
H463 C492 0.950 1_556 S
H464 C494 0.950 . S
H465 C495 0.950 . S
C466 H448 0.961 . S
C466 C467 1.358 1_545 S
C466 C468 1.388 . S
C467 C466 1.358 1_565 S
C467 C471 1.385 . S
C468 H449 0.960 . S
C468 C466 1.388 . S
C468 C469 1.358 1_545 S
C469 C468 1.358 1_565 S
C469 C470 1.414 . S
C469 C472 1.499 . S
C470 H450 0.950 . S
C470 C469 1.414 . S
C470 C471 1.374 . S
C471 H451 0.950 . S
C471 C467 1.385 . S
C471 C470 1.374 . S
C472 C469 1.499 . S
C472 C473 1.373 1_565 S
C472 C474 1.389 . S
C473 H452 0.950 . S
C473 C472 1.373 1_545 S
C473 C489 1.377 . S
C474 C472 1.389 . S
C474 C475 1.524 . S
C474 C488 1.377 1_554 S
C475 C474 1.524 . S
C475 C476 1.397 . S
C475 C480 1.363 1_554 S
C476 H453 0.950 . S
C476 C475 1.397 . S
C476 C477 1.334 . S
C477 H454 0.950 . S
C477 C476 1.334 . S
C477 C478 1.287 1_554 S
C478 C477 1.287 1_556 S
C478 C479 1.524 . S
C478 H497 0.913 . S
C479 H455 0.950 . S
C479 C478 1.524 . S
C479 C480 1.415 . S
C480 H456 0.950 . S
C480 C475 1.363 1_556 S
C480 C479 1.415 . S
C481 H457 0.951 . S
C481 C482 1.359 1_565 S
C481 C483 1.388 . S
C482 C481 1.359 1_545 S
C482 C486 1.393 . S
C483 H458 0.951 . S
C483 C481 1.388 . S
C483 C484 1.356 1_565 S
C484 C483 1.356 1_545 S
C484 C485 1.424 . S
C484 C487 1.499 . S
C485 H459 0.950 . S
C485 C484 1.424 . S
C485 C486 1.374 . S
C486 H460 0.950 . S
C486 C482 1.393 . S
C486 C485 1.374 . S
C487 C484 1.499 . S
C487 C488 1.353 1_545 S
C487 C489 1.407 1_556 S
C488 H461 0.950 . S
C488 C474 1.377 1_556 S
C488 C487 1.353 1_565 S
C489 C473 1.377 . S
C489 C487 1.407 1_554 S
C489 C490 1.524 . S
C490 C489 1.524 . S
C490 C491 1.397 . S
C490 C495 1.363 . S
C491 H462 0.950 1_554 S
C491 C490 1.397 . S
C491 C492 1.334 . S
C492 H463 0.950 1_554 S
C492 C491 1.334 . S
C492 C493 1.287 . S
C493 C492 1.287 . S
C493 C494 1.524 . S
C493 H496 0.999 . S
C494 H464 0.950 . S
C494 C493 1.524 . S
C494 C495 1.415 . S
C495 H465 0.950 . S
C495 C490 1.363 . S
C495 C494 1.415 . S
H496 C493 0.999 . S
H497 C478 0.913 . S
H498 C516 0.951 . S
H499 C518 0.951 . S
H500 C520 0.950 . S
H501 C521 0.950 . S
H502 C523 0.950 . S
H503 C526 0.950 . S
H504 C527 0.950 . S
H505 C529 0.950 . S
H506 C530 0.950 . S
H507 C531 0.951 . S
H508 C533 0.951 . S
H509 C535 0.950 . S
H510 C536 0.950 . S
H511 C538 0.950 . S
H512 C541 0.950 1_556 S
H513 C542 0.950 1_556 S
H514 C544 0.950 . S
H515 C545 0.950 . S
C516 H498 0.951 . S
C516 C517 1.366 . S
C516 C518 1.388 . S
C517 C516 1.366 . S
C517 C521 1.385 . S
C518 H499 0.951 . S
C518 C516 1.388 . S
C518 C519 1.366 . S
C519 C518 1.366 . S
C519 C520 1.414 . S
C519 C522 1.499 . S
C520 H500 0.950 . S
C520 C519 1.414 . S
C520 C521 1.374 . S
C521 H501 0.950 . S
C521 C517 1.385 . S
C521 C520 1.374 . S
C522 C519 1.499 . S
C522 C523 1.373 . S
C522 C524 1.389 . S
C523 H502 0.950 . S
C523 C522 1.373 . S
C523 C539 1.377 . S
C524 C522 1.389 . S
C524 C525 1.524 . S
C524 C538 1.377 1_554 S
C525 C524 1.524 . S
C525 C526 1.397 . S
C525 C530 1.363 1_554 S
C526 H503 0.950 . S
C526 C525 1.397 . S
C526 C527 1.334 . S
C527 H504 0.950 . S
C527 C526 1.334 . S
C527 C528 1.287 1_554 S
C528 C527 1.287 1_556 S
C528 C529 1.524 . S
C528 H547 0.913 . S
C529 H505 0.950 . S
C529 C528 1.524 . S
C529 C530 1.415 . S
C530 H506 0.950 . S
C530 C525 1.363 1_556 S
C530 C529 1.415 . S
C531 H507 0.951 . S
C531 C532 1.366 . S
C531 C533 1.388 . S
C532 C531 1.366 . S
C532 C536 1.385 . S
C533 H508 0.951 . S
C533 C531 1.388 . S
C533 C534 1.366 . S
C534 C533 1.366 . S
C534 C535 1.414 . S
C534 C537 1.499 . S
C535 H509 0.950 . S
C535 C534 1.414 . S
C535 C536 1.374 . S
C536 H510 0.950 . S
C536 C532 1.385 . S
C536 C535 1.374 . S
C537 C534 1.499 . S
C537 C538 1.373 . S
C537 C539 1.389 1_556 S
C538 H511 0.950 . S
C538 C524 1.377 1_556 S
C538 C537 1.373 . S
C539 C523 1.377 . S
C539 C537 1.389 1_554 S
C539 C540 1.524 . S
C540 C539 1.524 . S
C540 C541 1.397 . S
C540 C545 1.363 . S
C541 H512 0.950 1_554 S
C541 C540 1.397 . S
C541 C542 1.334 . S
C542 H513 0.950 1_554 S
C542 C541 1.334 . S
C542 C543 1.287 . S
C543 C542 1.287 . S
C543 C544 1.524 . S
C543 H546 0.999 . S
C544 H514 0.950 . S
C544 C543 1.524 . S
C544 C545 1.415 . S
C545 H515 0.950 . S
C545 C540 1.363 . S
C545 C544 1.415 . S
H546 C543 0.999 . S
H547 C528 0.913 . S
H548 C566 0.951 . S
H549 C568 0.951 . S
H550 C570 0.950 . S
H551 C571 0.950 . S
H552 C573 0.950 . S
H553 C576 0.950 . S
H554 C577 0.950 . S
H555 C579 0.950 . S
H556 C580 0.950 . S
H557 C581 0.951 . S
H558 C583 0.951 . S
H559 C585 0.950 . S
H560 C586 0.950 . S
H561 C588 0.950 . S
H562 C591 0.950 . S
H563 C592 0.950 . S
H564 C594 0.950 . S
H565 C595 0.950 . S
C566 H548 0.951 . S
C566 C567 1.366 . S
C566 C568 1.388 . S
C567 C566 1.366 . S
C567 C571 1.385 . S
C568 H549 0.951 . S
C568 C566 1.388 . S
C568 C569 1.366 . S
C569 C568 1.366 . S
C569 C570 1.414 . S
C569 C572 1.499 . S
C570 H550 0.950 . S
C570 C569 1.414 . S
C570 C571 1.374 . S
C571 H551 0.950 . S
C571 C567 1.385 . S
C571 C570 1.374 . S
C572 C569 1.499 . S
C572 C573 1.373 . S
C572 C574 1.389 . S
C573 H552 0.950 . S
C573 C572 1.373 . S
C573 C589 1.377 . S
C574 C572 1.389 . S
C574 C575 1.524 1_554 S
C574 C588 1.377 1_554 S
C575 C574 1.524 1_556 S
C575 C576 1.397 1_556 S
C575 C580 1.363 . S
C576 H553 0.950 . S
C576 C575 1.397 1_554 S
C576 C577 1.334 1_554 S
C577 H554 0.950 . S
C577 C576 1.334 1_556 S
C577 C578 1.287 . S
C578 C577 1.287 . S
C578 C579 1.524 . S
C578 H597 0.913 . S
C579 H555 0.950 . S
C579 C578 1.524 . S
C579 C580 1.415 . S
C580 H556 0.950 . S
C580 C575 1.363 . S
C580 C579 1.415 . S
C581 H557 0.951 . S
C581 C582 1.366 . S
C581 C583 1.388 . S
C582 C581 1.366 . S
C582 C586 1.385 . S
C583 H558 0.951 . S
C583 C581 1.388 . S
C583 C584 1.366 . S
C584 C583 1.366 . S
C584 C585 1.414 . S
C584 C587 1.499 . S
C585 H559 0.950 . S
C585 C584 1.414 . S
C585 C586 1.374 . S
C586 H560 0.950 . S
C586 C582 1.385 . S
C586 C585 1.374 . S
C587 C584 1.499 . S
C587 C588 1.373 . S
C587 C589 1.389 1_556 S
C588 H561 0.950 . S
C588 C574 1.377 1_556 S
C588 C587 1.373 . S
C589 C573 1.377 . S
C589 C587 1.389 1_554 S
C589 C590 1.524 . S
C590 C589 1.524 . S
C590 C591 1.397 . S
C590 C595 1.363 . S
C591 H562 0.950 . S
C591 C590 1.397 . S
C591 C592 1.334 . S
C592 H563 0.950 . S
C592 C591 1.334 . S
C592 C593 1.287 . S
C593 C592 1.287 . S
C593 C594 1.524 . S
C593 H596 0.999 . S
C594 H564 0.950 . S
C594 C593 1.524 . S
C594 C595 1.415 . S
C595 H565 0.950 . S
C595 C590 1.363 . S
C595 C594 1.415 . S
H596 C593 0.999 . S
H597 C578 0.913 . S
H598 C616 0.951 . S
H599 C618 0.951 . S
H600 C620 0.950 . S
H601 C621 0.950 . S
H602 C623 0.950 . S
H603 C626 0.949 1_554 S
H604 C627 0.950 . S
H605 C629 0.950 . S
H606 C630 0.950 1_554 S
H607 C631 0.951 . S
H608 C633 0.951 . S
H609 C635 0.950 . S
H610 C636 0.950 . S
H611 C638 0.950 . S
H612 C641 0.950 . S
H613 C642 0.950 . S
H614 C644 0.950 . S
H615 C645 0.950 . S
C616 H598 0.951 . S
C616 C617 1.366 1_455 S
C616 C618 1.388 . S
C617 C616 1.366 1_655 S
C617 C621 1.385 . S
C618 H599 0.951 . S
C618 C616 1.388 . S
C618 C619 1.314 1_455 S
C619 C618 1.314 1_655 S
C619 C620 1.468 . S
C619 C622 1.500 . S
C620 H600 0.950 . S
C620 C619 1.468 . S
C620 C621 1.374 . S
C621 H601 0.950 . S
C621 C617 1.385 . S
C621 C620 1.374 . S
C622 C619 1.500 . S
C622 C623 1.373 . S
C622 C624 1.389 1_655 S
C623 H602 0.950 . S
C623 C622 1.373 . S
C623 C639 1.377 . S
C624 C622 1.389 1_455 S
C624 C625 1.524 . S
C624 C638 1.377 1_554 S
C625 C624 1.524 . S
C625 C626 1.396 1_554 S
C625 C630 1.363 1_554 S
C626 H603 0.949 1_556 S
C626 C625 1.396 1_556 S
C626 C627 1.335 . S
C627 H604 0.950 . S
C627 C626 1.335 . S
C627 C628 1.287 . S
C628 C627 1.287 . S
C628 C629 1.524 . S
C628 H647 0.913 . S
C629 H605 0.950 . S
C629 C628 1.524 . S
C629 C630 1.415 . S
C630 H606 0.950 1_556 S
C630 C625 1.363 1_556 S
C630 C629 1.415 . S
C631 H607 0.951 . S
C631 C632 1.366 1_655 S
C631 C633 1.388 . S
C632 C631 1.366 1_455 S
C632 C636 1.385 . S
C633 H608 0.951 . S
C633 C631 1.388 . S
C633 C634 1.336 1_655 S
C634 C633 1.336 1_455 S
C634 C635 1.445 . S
C634 C637 1.499 . S
C635 H609 0.950 . S
C635 C634 1.445 . S
C635 C636 1.374 . S
C636 H610 0.950 . S
C636 C632 1.385 . S
C636 C635 1.374 . S
C637 C634 1.499 . S
C637 C638 1.401 . S
C637 C639 1.361 1_456 S
C638 H611 0.950 . S
C638 C624 1.377 1_556 S
C638 C637 1.401 . S
C639 C623 1.377 . S
C639 C637 1.361 1_654 S
C639 C640 1.524 . S
C640 C639 1.524 . S
C640 C641 1.397 . S
C640 C645 1.363 . S
C641 H612 0.950 . S
C641 C640 1.397 . S
C641 C642 1.334 . S
C642 H613 0.950 . S
C642 C641 1.334 . S
C642 C643 1.287 . S
C643 C642 1.287 . S
C643 C644 1.524 . S
C643 H646 0.999 . S
C644 H614 0.950 . S
C644 C643 1.524 . S
C644 C645 1.415 . S
C645 H615 0.950 . S
C645 C640 1.363 . S
C645 C644 1.415 . S
H646 C643 0.999 . S
H647 C628 0.913 . S
H648 C666 0.951 . S
H649 C668 0.951 . S
H650 C670 0.950 . S
H651 C671 0.950 . S
H652 C673 0.950 . S
H653 C676 0.950 . S
H654 C677 0.950 . S
H655 C679 0.950 1_556 S
H656 C680 0.950 . S
H657 C681 0.951 . S
H658 C683 0.951 . S
H659 C685 0.950 . S
H660 C686 0.950 . S
H661 C688 0.950 . S
H662 C691 0.950 . S
H663 C692 0.950 . S
H664 C694 0.950 . S
H665 C695 0.950 . S
C666 H648 0.951 . S
C666 C667 1.366 . S
C666 C668 1.388 . S
C667 C666 1.366 . S
C667 C671 1.385 . S
C668 H649 0.951 . S
C668 C666 1.388 . S
C668 C669 1.366 . S
C669 C668 1.366 . S
C669 C670 1.414 . S
C669 C672 1.499 1_455 S
C670 H650 0.950 . S
C670 C669 1.414 . S
C670 C671 1.374 . S
C671 H651 0.950 . S
C671 C667 1.385 . S
C671 C670 1.374 . S
C672 C669 1.499 1_655 S
C672 C673 1.373 1_655 S
C672 C674 1.389 . S
C673 H652 0.950 . S
C673 C672 1.373 1_455 S
C673 C689 1.377 . S
C674 C672 1.389 . S
C674 C675 1.524 . S
C674 C688 1.377 . S
C675 C674 1.524 . S
C675 C676 1.397 . S
C675 C680 1.363 . S
C676 H653 0.950 . S
C676 C675 1.397 . S
C676 C677 1.334 . S
C677 H654 0.950 . S
C677 C676 1.334 . S
C677 C678 1.287 . S
C678 C677 1.287 . S
C678 C679 1.524 . S
C678 H697 0.913 1_554 S
C679 H655 0.950 1_554 S
C679 C678 1.524 . S
C679 C680 1.415 . S
C680 H656 0.950 . S
C680 C675 1.363 . S
C680 C679 1.415 . S
C681 H657 0.951 . S
C681 C682 1.366 . S
C681 C683 1.388 . S
C682 C681 1.366 . S
C682 C686 1.385 . S
C683 H658 0.951 . S
C683 C681 1.388 . S
C683 C684 1.366 . S
C684 C683 1.366 . S
C684 C685 1.414 . S
C684 C687 1.499 . S
C685 H659 0.950 . S
C685 C684 1.414 . S
C685 C686 1.374 . S
C686 H660 0.950 . S
C686 C682 1.385 . S
C686 C685 1.374 . S
C687 C684 1.499 . S
C687 C688 1.373 . S
C687 C689 1.389 1_655 S
C688 H661 0.950 . S
C688 C674 1.377 . S
C688 C687 1.373 . S
C689 C673 1.377 . S
C689 C687 1.389 1_455 S
C689 C690 1.524 . S
C690 C689 1.524 . S
C690 C691 1.397 . S
C690 C695 1.363 . S
C691 H662 0.950 . S
C691 C690 1.397 . S
C691 C692 1.334 . S
C692 H663 0.950 . S
C692 C691 1.334 . S
C692 C693 1.287 . S
C693 C692 1.287 . S
C693 C694 1.524 . S
C693 H696 0.999 . S
C694 H664 0.950 . S
C694 C693 1.524 . S
C694 C695 1.415 . S
C695 H665 0.950 . S
C695 C690 1.363 . S
C695 C694 1.415 . S
H696 C693 0.999 . S
H697 C678 0.913 1_556 S
H698 C716 0.951 . S
H699 C718 0.943 1_565 S
H700 C720 0.950 . S
H701 C721 0.950 . S
H702 C723 0.950 . S
H703 C726 0.950 . S
H704 C727 0.950 . S
H705 C729 0.950 . S
H706 C730 0.950 . S
H707 C731 0.951 . S
H708 C733 0.951 . S
H709 C735 0.950 . S
H710 C736 0.950 . S
H711 C738 0.950 . S
H712 C741 0.950 . S
H713 C742 0.950 . S
H714 C744 0.950 . S
H715 C745 0.950 . S
C716 H698 0.951 . S
C716 C717 1.366 . S
C716 C718 1.394 . S
C717 C716 1.366 . S
C717 C721 1.385 . S
C718 H699 0.943 1_545 S
C718 C716 1.394 . S
C718 C719 1.368 . S
C719 C718 1.368 . S
C719 C720 1.414 . S
C719 C722 1.499 1_545 S
C720 H700 0.950 . S
C720 C719 1.414 . S
C720 C721 1.374 . S
C721 H701 0.950 . S
C721 C717 1.385 . S
C721 C720 1.374 . S
C722 C719 1.499 1_565 S
C722 C723 1.373 1_565 S
C722 C724 1.389 . S
C723 H702 0.950 . S
C723 C722 1.373 1_545 S
C723 C739 1.377 . S
C724 C722 1.389 . S
C724 C725 1.524 . S
C724 C738 1.377 . S
C725 C724 1.524 . S
C725 C726 1.397 . S
C725 C730 1.363 . S
C726 H703 0.950 . S
C726 C725 1.397 . S
C726 C727 1.334 . S
C727 H704 0.950 . S
C727 C726 1.334 . S
C727 C728 1.287 . S
C728 C727 1.287 . S
C728 C729 1.524 . S
C728 H747 0.913 . S
C729 H705 0.950 . S
C729 C728 1.524 . S
C729 C730 1.415 . S
C730 H706 0.950 . S
C730 C725 1.363 . S
C730 C729 1.415 . S
C731 H707 0.951 . S
C731 C732 1.366 . S
C731 C733 1.388 . S
C732 C731 1.366 . S
C732 C736 1.385 . S
C733 H708 0.951 . S
C733 C731 1.388 . S
C733 C734 1.366 . S
C734 C733 1.366 . S
C734 C735 1.414 . S
C734 C737 1.499 . S
C735 H709 0.950 . S
C735 C734 1.414 . S
C735 C736 1.374 . S
C736 H710 0.950 . S
C736 C732 1.385 . S
C736 C735 1.374 . S
C737 C734 1.499 . S
C737 C738 1.373 . S
C737 C739 1.389 1_565 S
C738 H711 0.950 . S
C738 C724 1.377 . S
C738 C737 1.373 . S
C739 C723 1.377 . S
C739 C737 1.389 1_545 S
C739 C740 1.524 . S
C740 C739 1.524 . S
C740 C741 1.397 . S
C740 C745 1.363 . S
C741 H712 0.950 . S
C741 C740 1.397 . S
C741 C742 1.334 . S
C742 H713 0.950 . S
C742 C741 1.334 . S
C742 C743 1.287 . S
C743 C742 1.287 . S
C743 C744 1.524 . S
C743 H746 0.999 . S
C744 H714 0.950 . S
C744 C743 1.524 . S
C744 C745 1.415 . S
C745 H715 0.950 . S
C745 C740 1.363 . S
C745 C744 1.415 . S
H746 C743 0.999 . S
H747 C728 0.913 . S
H748 C766 0.951 . S
H749 C768 0.951 . S
H750 C770 0.950 . S
H751 C771 0.950 . S
H752 C773 0.950 . S
H753 C776 0.950 . S
H754 C777 0.950 . S
H755 C779 0.950 . S
H756 C780 0.950 . S
H757 C781 0.951 . S
H758 C783 0.951 . S
H759 C785 0.950 . S
H760 C786 0.950 . S
H761 C788 0.950 . S
H762 C791 0.950 . S
H763 C792 0.950 . S
H764 C794 0.950 . S
H765 C795 0.950 . S
C766 H748 0.951 . S
C766 C767 1.366 . S
C766 C768 1.388 . S
C767 C766 1.366 . S
C767 C771 1.385 . S
C768 H749 0.951 . S
C768 C766 1.388 . S
C768 C769 1.366 . S
C769 C768 1.366 . S
C769 C770 1.414 . S
C769 C772 1.499 . S
C770 H750 0.950 . S
C770 C769 1.414 . S
C770 C771 1.374 . S
C771 H751 0.950 . S
C771 C767 1.385 . S
C771 C770 1.374 . S
C772 C769 1.499 . S
C772 C773 1.373 . S
C772 C774 1.389 . S
C773 H752 0.950 . S
C773 C772 1.373 . S
C773 C789 1.377 . S
C774 C772 1.389 . S
C774 C775 1.524 . S
C774 C788 1.377 . S
C775 C774 1.524 . S
C775 C776 1.397 . S
C775 C780 1.363 . S
C776 H753 0.950 . S
C776 C775 1.397 . S
C776 C777 1.334 . S
C777 H754 0.950 . S
C777 C776 1.334 . S
C777 C778 1.287 . S
C778 C777 1.287 . S
C778 C779 1.524 . S
C778 H797 0.913 . S
C779 H755 0.950 . S
C779 C778 1.524 . S
C779 C780 1.415 . S
C780 H756 0.950 . S
C780 C775 1.363 . S
C780 C779 1.415 . S
C781 H757 0.951 . S
C781 C782 1.366 . S
C781 C783 1.388 . S
C782 C781 1.366 . S
C782 C786 1.385 . S
C783 H758 0.951 . S
C783 C781 1.388 . S
C783 C784 1.366 . S
C784 C783 1.366 . S
C784 C785 1.414 . S
C784 C787 1.499 . S
C785 H759 0.950 . S
C785 C784 1.414 . S
C785 C786 1.374 . S
C786 H760 0.950 . S
C786 C782 1.385 . S
C786 C785 1.374 . S
C787 C784 1.499 . S
C787 C788 1.373 . S
C787 C789 1.389 . S
C788 H761 0.950 . S
C788 C774 1.377 . S
C788 C787 1.373 . S
C789 C773 1.377 . S
C789 C787 1.389 . S
C789 C790 1.524 . S
C790 C789 1.524 . S
C790 C791 1.397 . S
C790 C795 1.363 . S
C791 H762 0.950 . S
C791 C790 1.397 . S
C791 C792 1.334 . S
C792 H763 0.950 . S
C792 C791 1.334 . S
C792 C793 1.287 . S
C793 C792 1.287 . S
C793 C794 1.524 . S
C793 H796 0.999 . S
C794 H764 0.950 . S
C794 C793 1.524 . S
C794 C795 1.415 . S
C795 H765 0.950 . S
C795 C790 1.363 . S
C795 C794 1.415 . S
H796 C793 0.999 . S
H797 C778 0.913 . S
H798 C816 0.951 . S
H799 C818 0.951 . S
H800 C820 0.950 . S
H801 C821 0.950 . S
H802 C823 0.950 . S
H803 C826 0.950 . S
H804 C827 0.950 . S
H805 C829 0.950 . S
H806 C830 0.950 . S
H807 C831 0.951 . S
H808 C833 0.951 . S
H809 C835 0.950 . S
H810 C836 0.950 . S
H811 C838 0.950 . S
H812 C841 0.950 . S
H813 C842 0.950 . S
H814 C844 0.950 . S
H815 C845 0.950 . S
C816 H798 0.951 . S
C816 C817 1.366 . S
C816 C818 1.388 . S
C817 C816 1.366 . S
C817 C821 1.385 . S
C818 H799 0.951 . S
C818 C816 1.388 . S
C818 C819 1.366 . S
C819 C818 1.366 . S
C819 C820 1.414 . S
C819 C822 1.499 . S
C820 H800 0.950 . S
C820 C819 1.414 . S
C820 C821 1.374 . S
C821 H801 0.950 . S
C821 C817 1.385 . S
C821 C820 1.374 . S
C822 C819 1.499 . S
C822 C823 1.373 . S
C822 C824 1.389 . S
C823 H802 0.950 . S
C823 C822 1.373 . S
C823 C839 1.377 . S
C824 C822 1.389 . S
C824 C825 1.524 . S
C824 C838 1.377 . S
C825 C824 1.524 . S
C825 C826 1.397 . S
C825 C830 1.363 . S
C826 H803 0.950 . S
C826 C825 1.397 . S
C826 C827 1.334 . S
C827 H804 0.950 . S
C827 C826 1.334 . S
C827 C828 1.287 . S
C828 C827 1.287 . S
C828 C829 1.524 . S
C828 H847 0.913 . S
C829 H805 0.950 . S
C829 C828 1.524 . S
C829 C830 1.415 . S
C830 H806 0.950 . S
C830 C825 1.363 . S
C830 C829 1.415 . S
C831 H807 0.951 . S
C831 C832 1.366 . S
C831 C833 1.388 . S
C832 C831 1.366 . S
C832 C836 1.385 . S
C833 H808 0.951 . S
C833 C831 1.388 . S
C833 C834 1.366 . S
C834 C833 1.366 . S
C834 C835 1.414 . S
C834 C837 1.499 . S
C835 H809 0.950 . S
C835 C834 1.414 . S
C835 C836 1.374 . S
C836 H810 0.950 . S
C836 C832 1.385 . S
C836 C835 1.374 . S
C837 C834 1.499 . S
C837 C838 1.373 . S
C837 C839 1.389 . S
C838 H811 0.950 . S
C838 C824 1.377 . S
C838 C837 1.373 . S
C839 C823 1.377 . S
C839 C837 1.389 . S
C839 C840 1.524 . S
C840 C839 1.524 . S
C840 C841 1.397 . S
C840 C845 1.363 . S
C841 H812 0.950 . S
C841 C840 1.397 . S
C841 C842 1.334 . S
C842 H813 0.950 . S
C842 C841 1.334 . S
C842 C843 1.287 . S
C843 C842 1.287 . S
C843 C844 1.524 . S
C843 H846 0.999 . S
C844 H814 0.950 . S
C844 C843 1.524 . S
C844 C845 1.415 . S
C845 H815 0.950 . S
C845 C840 1.363 . S
C845 C844 1.415 . S
H846 C843 0.999 . S
H847 C828 0.913 . S
H848 C866 0.951 . S
H849 C868 0.951 . S
H850 C870 0.950 . S
H851 C871 0.950 . S
H852 C873 0.950 1_655 S
H853 C876 0.950 . S
H854 C877 0.950 . S
H855 C879 0.950 . S
H856 C880 0.950 . S
H857 C881 0.951 . S
H858 C883 0.951 . S
H859 C885 0.950 . S
H860 C886 0.950 . S
H861 C888 0.950 . S
H862 C891 0.950 . S
H863 C892 0.950 . S
H864 C894 0.950 . S
H865 C895 0.950 1_455 S
C866 H848 0.951 . S
C866 C867 1.366 . S
C866 C868 1.388 . S
C867 C866 1.366 . S
C867 C871 1.385 1_655 S
C868 H849 0.951 . S
C868 C866 1.388 . S
C868 C869 1.366 1_655 S
C869 C868 1.366 1_455 S
C869 C870 1.414 . S
C869 C872 1.499 . S
C870 H850 0.950 . S
C870 C869 1.414 . S
C870 C871 1.374 . S
C871 H851 0.950 . S
C871 C867 1.385 1_455 S
C871 C870 1.374 . S
C872 C869 1.499 . S
C872 C873 1.373 . S
C872 C874 1.389 . S
C873 H852 0.950 1_455 S
C873 C872 1.373 . S
C873 C889 1.377 . S
C874 C872 1.389 . S
C874 C875 1.524 . S
C874 C888 1.377 . S
C875 C874 1.524 . S
C875 C876 1.397 . S
C875 C880 1.363 1_554 S
C876 H853 0.950 . S
C876 C875 1.397 . S
C876 C877 1.334 . S
C877 H854 0.950 . S
C877 C876 1.334 . S
C877 C878 1.287 . S
C878 C877 1.287 . S
C878 C879 1.524 1_554 S
C878 H897 0.913 1_554 S
C879 H855 0.950 . S
C879 C878 1.524 1_556 S
C879 C880 1.415 . S
C880 H856 0.950 . S
C880 C875 1.363 1_556 S
C880 C879 1.415 . S
C881 H857 0.951 . S
C881 C882 1.366 1_554 S
C881 C883 1.388 . S
C882 C881 1.366 1_556 S
C882 C886 1.385 . S
C883 H858 0.951 . S
C883 C881 1.388 . S
C883 C884 1.366 . S
C884 C883 1.366 . S
C884 C885 1.414 1_554 S
C884 C887 1.499 . S
C885 H859 0.950 . S
C885 C884 1.414 1_556 S
C885 C886 1.374 . S
C886 H860 0.950 . S
C886 C882 1.385 . S
C886 C885 1.374 . S
C887 C884 1.499 . S
C887 C888 1.373 . S
C887 C889 1.389 . S
C888 H861 0.950 . S
C888 C874 1.377 . S
C888 C887 1.373 . S
C889 C873 1.377 . S
C889 C887 1.389 . S
C889 C890 1.524 1_455 S
C890 C889 1.524 1_655 S
C890 C891 1.397 . S
C890 C895 1.363 . S
C891 H862 0.950 . S
C891 C890 1.397 . S
C891 C892 1.334 . S
C892 H863 0.950 . S
C892 C891 1.334 . S
C892 C893 1.287 . S
C893 C892 1.287 . S
C893 C894 1.524 . S
C893 H896 0.999 . S
C894 H864 0.950 . S
C894 C893 1.524 . S
C894 C895 1.415 . S
C895 H865 0.950 1_655 S
C895 C890 1.363 . S
C895 C894 1.415 . S
H896 C893 0.999 . S
H897 C878 0.913 1_556 S
H898 C916 0.951 . S
H899 C918 0.951 . S
H900 C920 0.950 . S
H901 C921 0.950 . S
H902 C923 0.950 . S
H903 C926 0.950 . S
H904 C927 0.950 . S
H905 C929 0.950 . S
H906 C930 0.950 1_545 S
H907 C931 0.951 . S
H908 C933 0.951 . S
H909 C935 0.950 . S
H910 C936 0.950 . S
H911 C938 0.950 . S
H912 C941 0.950 1_554 S
H913 C942 0.950 . S
H914 C944 0.950 . S
H915 C945 0.950 . S
C916 H898 0.951 . S
C916 C917 1.366 1_545 S
C916 C918 1.388 . S
C917 C916 1.366 1_565 S
C917 C921 1.385 . S
C918 H899 0.951 . S
C918 C916 1.388 . S
C918 C919 1.366 . S
C919 C918 1.366 . S
C919 C920 1.414 1_545 S
C919 C922 1.499 . S
C920 H900 0.950 . S
C920 C919 1.414 1_565 S
C920 C921 1.374 . S
C921 H901 0.950 . S
C921 C917 1.385 . S
C921 C920 1.374 . S
C922 C919 1.499 . S
C922 C923 1.373 . S
C922 C924 1.397 . S
C923 H902 0.950 . S
C923 C922 1.373 . S
C923 C939 1.377 . S
C924 C922 1.397 . S
C924 C925 1.509 1_545 S
C924 C938 1.384 . S
C925 C924 1.509 1_565 S
C925 C926 1.397 . S
C925 C930 1.363 . S
C926 H903 0.950 . S
C926 C925 1.397 . S
C926 C927 1.334 . S
C927 H904 0.950 . S
C927 C926 1.334 . S
C927 C928 1.287 . S
C928 C927 1.287 . S
C928 C929 1.524 . S
C928 H947 0.913 . S
C929 H905 0.950 . S
C929 C928 1.524 . S
C929 C930 1.415 . S
C930 H906 0.950 1_565 S
C930 C925 1.363 . S
C930 C929 1.415 . S
C931 H907 0.951 . S
C931 C932 1.366 . S
C931 C933 1.388 . S
C932 C931 1.366 . S
C932 C936 1.385 1_556 S
C933 H908 0.951 . S
C933 C931 1.388 . S
C933 C934 1.366 1_556 S
C934 C933 1.366 1_554 S
C934 C935 1.414 . S
C934 C937 1.499 . S
C935 H909 0.950 . S
C935 C934 1.414 . S
C935 C936 1.374 . S
C936 H910 0.950 . S
C936 C932 1.385 1_554 S
C936 C935 1.374 . S
C937 C934 1.499 . S
C937 C938 1.373 . S
C937 C939 1.389 . S
C938 H911 0.950 . S
C938 C924 1.384 . S
C938 C937 1.373 . S
C939 C923 1.377 . S
C939 C937 1.389 . S
C939 C940 1.524 1_554 S
C940 C939 1.524 1_556 S
C940 C941 1.397 . S
C940 C945 1.363 . S
C941 H912 0.950 1_556 S
C941 C940 1.397 . S
C941 C942 1.334 . S
C942 H913 0.950 . S
C942 C941 1.334 . S
C942 C943 1.287 . S
C943 C942 1.287 . S
C943 C944 1.524 . S
C943 H946 0.999 . S
C944 H914 0.950 . S
C944 C943 1.524 . S
C944 C945 1.415 . S
C945 H915 0.950 . S
C945 C940 1.363 . S
C945 C944 1.415 . S
H946 C943 0.999 . S
H947 C928 0.913 . S
H948 C966 0.951 . S
H949 C968 0.951 . S
H950 C970 0.950 . S
H951 C971 0.950 . S
H952 C973 0.950 . S
H953 C976 0.950 . S
H954 C977 0.950 . S
H955 C979 0.950 . S
H956 C980 0.950 . S
H957 C981 0.951 . S
H958 C983 0.951 . S
H959 C985 0.950 . S
H960 C986 0.950 . S
H961 C988 0.950 1_556 S
H962 C991 0.950 . S
H963 C992 0.950 . S
H964 C994 0.950 . S
H965 C995 0.950 . S
C966 H948 0.951 . S
C966 C967 1.366 . S
C966 C968 1.388 . S
C967 C966 1.366 . S
C967 C971 1.385 . S
C968 H949 0.951 . S
C968 C966 1.388 . S
C968 C969 1.366 . S
C969 C968 1.366 . S
C969 C970 1.414 . S
C969 C972 1.499 . S
C970 H950 0.950 . S
C970 C969 1.414 . S
C970 C971 1.374 . S
C971 H951 0.950 . S
C971 C967 1.385 . S
C971 C970 1.374 . S
C972 C969 1.499 . S
C972 C973 1.373 . S
C972 C974 1.389 . S
C973 H952 0.950 . S
C973 C972 1.373 . S
C973 C989 1.377 . S
C974 C972 1.389 . S
C974 C975 1.524 . S
C974 C988 1.377 . S
C975 C974 1.524 . S
C975 C976 1.397 . S
C975 C980 1.363 1_554 S
C976 H953 0.950 . S
C976 C975 1.397 . S
C976 C977 1.334 . S
C977 H954 0.950 . S
C977 C976 1.334 . S
C977 C978 1.287 1_554 S
C978 C977 1.287 1_556 S
C978 C979 1.524 . S
C978 H997 0.913 . S
C979 H955 0.950 . S
C979 C978 1.524 . S
C979 C980 1.415 . S
C980 H956 0.950 . S
C980 C975 1.363 1_556 S
C980 C979 1.415 . S
C981 H957 0.951 . S
C981 C982 1.366 1_554 S
C981 C983 1.388 . S
C982 C981 1.366 1_556 S
C982 C986 1.385 . S
C983 H958 0.951 . S
C983 C981 1.388 . S
C983 C984 1.366 . S
C984 C983 1.366 . S
C984 C985 1.414 1_554 S
C984 C987 1.499 . S
C985 H959 0.950 . S
C985 C984 1.414 1_556 S
C985 C986 1.374 . S
C986 H960 0.950 . S
C986 C982 1.385 . S
C986 C985 1.374 . S
C987 C984 1.499 . S
C987 C988 1.373 . S
C987 C989 1.389 . S
C988 H961 0.950 1_554 S
C988 C974 1.377 . S
C988 C987 1.373 . S
C989 C973 1.377 . S
C989 C987 1.389 . S
C989 C990 1.524 . S
C990 C989 1.524 . S
C990 C991 1.397 . S
C990 C995 1.363 . S
C991 H962 0.950 . S
C991 C990 1.397 . S
C991 C992 1.334 . S
C992 H963 0.950 . S
C992 C991 1.334 . S
C992 C993 1.287 . S
C993 C992 1.287 . S
C993 C994 1.524 . S
C993 H996 0.999 . S
C994 H964 0.950 . S
C994 C993 1.524 . S
C994 C995 1.415 . S
C995 H965 0.950 . S
C995 C990 1.363 . S
C995 C994 1.415 . S
H996 C993 0.999 . S
H997 C978 0.913 . S
H998 C1016 0.951 . S
H999 C1018 0.951 . S
H1000 C1020 0.950 . S
H1001 C1021 0.950 . S
H1002 C1023 0.950 . S
H1003 C1026 0.950 . S
H1004 C1027 0.950 . S
H1005 C1029 0.950 . S
H1006 C1030 0.950 . S
H1007 C1031 0.951 . S
H1008 C1033 0.951 . S
H1009 C1035 0.950 . S
H1010 C1036 0.950 . S
H1011 C1038 0.950 . S
H1012 C1041 0.950 . S
H1013 C1042 0.950 . S
H1014 C1044 0.950 . S
H1015 C1045 0.950 . S
C1016 H998 0.951 . S
C1016 C1017 1.366 . S
C1016 C1018 1.388 . S
C1017 C1016 1.366 . S
C1017 C1021 1.385 . S
C1018 H999 0.951 . S
C1018 C1016 1.388 . S
C1018 C1019 1.366 . S
C1019 C1018 1.366 . S
C1019 C1020 1.414 . S
C1019 C1022 1.499 . S
C1020 H1000 0.950 . S
C1020 C1019 1.414 . S
C1020 C1021 1.374 . S
C1021 H1001 0.950 . S
C1021 C1017 1.385 . S
C1021 C1020 1.374 . S
C1022 C1019 1.499 . S
C1022 C1023 1.373 . S
C1022 C1024 1.389 . S
C1023 H1002 0.950 . S
C1023 C1022 1.373 . S
C1023 C1039 1.377 . S
C1024 C1022 1.389 . S
C1024 C1025 1.524 . S
C1024 C1038 1.377 . S
C1025 C1024 1.524 . S
C1025 C1026 1.397 . S
C1025 C1030 1.363 . S
C1026 H1003 0.950 . S
C1026 C1025 1.397 . S
C1026 C1027 1.334 . S
C1027 H1004 0.950 . S
C1027 C1026 1.334 . S
C1027 C1028 1.287 . S
C1028 C1027 1.287 . S
C1028 C1029 1.524 . S
C1028 H1047 0.913 . S
C1029 H1005 0.950 . S
C1029 C1028 1.524 . S
C1029 C1030 1.415 . S
C1030 H1006 0.950 . S
C1030 C1025 1.363 . S
C1030 C1029 1.415 . S
C1031 H1007 0.951 . S
C1031 C1032 1.366 . S
C1031 C1033 1.388 . S
C1032 C1031 1.366 . S
C1032 C1036 1.385 1_556 S
C1033 H1008 0.951 . S
C1033 C1031 1.388 . S
C1033 C1034 1.366 1_556 S
C1034 C1033 1.366 1_554 S
C1034 C1035 1.414 . S
C1034 C1037 1.499 . S
C1035 H1009 0.950 . S
C1035 C1034 1.414 . S
C1035 C1036 1.374 . S
C1036 H1010 0.950 . S
C1036 C1032 1.385 1_554 S
C1036 C1035 1.374 . S
C1037 C1034 1.499 . S
C1037 C1038 1.373 . S
C1037 C1039 1.389 . S
C1038 H1011 0.950 . S
C1038 C1024 1.377 . S
C1038 C1037 1.373 . S
C1039 C1023 1.377 . S
C1039 C1037 1.389 . S
C1039 C1040 1.524 . S
C1040 C1039 1.524 . S
C1040 C1041 1.397 . S
C1040 C1045 1.363 1_554 S
C1041 H1012 0.950 . S
C1041 C1040 1.397 . S
C1041 C1042 1.334 . S
C1042 H1013 0.950 . S
C1042 C1041 1.334 . S
C1042 C1043 1.287 1_554 S
C1043 C1042 1.287 1_556 S
C1043 C1044 1.524 . S
C1043 H1046 0.999 . S
C1044 H1014 0.950 . S
C1044 C1043 1.524 . S
C1044 C1045 1.415 . S
C1045 H1015 0.950 . S
C1045 C1040 1.363 1_556 S
C1045 C1044 1.415 . S
H1046 C1043 0.999 . S
H1047 C1028 0.913 . S
H1048 C1066 0.988 . S
H1049 C1068 0.985 . S
H1050 C1070 0.950 . S
H1051 C1071 0.950 . S
H1052 C1073 0.950 . S
H1053 C1076 0.950 . S
H1054 C1077 0.950 . S
H1055 C1079 0.950 . S
H1056 C1080 0.950 . S
H1057 C1081 0.951 . S
H1058 C1083 0.951 . S
H1059 C1085 0.950 1_655 S
H1060 C1086 0.950 1_655 S
H1061 C1088 0.950 . S
H1062 C1091 0.950 . S
H1063 C1092 0.950 . S
H1064 C1094 0.950 . S
H1065 C1095 0.950 . S
C1066 H1048 0.988 . S
C1066 C1067 1.331 1_655 S
C1066 C1068 1.388 . S
C1067 C1066 1.331 1_455 S
C1067 C1071 1.385 . S
C1068 H1049 0.985 . S
C1068 C1066 1.388 . S
C1068 C1069 1.333 1_655 S
C1069 C1068 1.333 1_455 S
C1069 C1070 1.414 . S
C1069 C1072 1.499 . S
C1070 H1050 0.950 . S
C1070 C1069 1.414 . S
C1070 C1071 1.374 . S
C1071 H1051 0.950 . S
C1071 C1067 1.385 . S
C1071 C1070 1.374 . S
C1072 C1069 1.499 . S
C1072 C1073 1.373 . S
C1072 C1074 1.389 1_455 S
C1073 H1052 0.950 . S
C1073 C1072 1.373 . S
C1073 C1089 1.377 . S
C1074 C1072 1.389 1_655 S
C1074 C1075 1.524 . S
C1074 C1088 1.377 . S
C1075 C1074 1.524 . S
C1075 C1076 1.397 . S
C1075 C1080 1.363 . S
C1076 H1053 0.950 . S
C1076 C1075 1.397 . S
C1076 C1077 1.334 . S
C1077 H1054 0.950 . S
C1077 C1076 1.334 . S
C1077 C1078 1.287 . S
C1078 C1077 1.287 . S
C1078 C1079 1.524 . S
C1078 H1097 0.913 . S
C1079 H1055 0.950 . S
C1079 C1078 1.524 . S
C1079 C1080 1.415 . S
C1080 H1056 0.950 . S
C1080 C1075 1.363 . S
C1080 C1079 1.415 . S
C1081 H1057 0.951 . S
C1081 C1082 1.366 . S
C1081 C1083 1.388 . S
C1082 C1081 1.366 . S
C1082 C1086 1.385 . S
C1083 H1058 0.951 . S
C1083 C1081 1.388 . S
C1083 C1084 1.366 . S
C1084 C1083 1.366 . S
C1084 C1085 1.414 . S
C1084 C1087 1.499 . S
C1085 H1059 0.950 1_455 S
C1085 C1084 1.414 . S
C1085 C1086 1.374 . S
C1086 H1060 0.950 1_455 S
C1086 C1082 1.385 . S
C1086 C1085 1.374 . S
C1087 C1084 1.499 . S
C1087 C1088 1.373 1_455 S
C1087 C1089 1.389 . S
C1088 H1061 0.950 . S
C1088 C1074 1.377 . S
C1088 C1087 1.373 1_655 S
C1089 C1073 1.377 . S
C1089 C1087 1.389 . S
C1089 C1090 1.524 . S
C1090 C1089 1.524 . S
C1090 C1091 1.397 . S
C1090 C1095 1.363 . S
C1091 H1062 0.950 . S
C1091 C1090 1.397 . S
C1091 C1092 1.334 . S
C1092 H1063 0.950 . S
C1092 C1091 1.334 . S
C1092 C1093 1.287 . S
C1093 C1092 1.287 . S
C1093 C1094 1.524 . S
C1093 H1096 0.999 . S
C1094 H1064 0.950 . S
C1094 C1093 1.524 . S
C1094 C1095 1.415 . S
C1095 H1065 0.950 . S
C1095 C1090 1.363 . S
C1095 C1094 1.415 . S
H1096 C1093 0.999 . S
H1097 C1078 0.913 . S
H1098 C1116 0.951 . S
H1099 C1118 0.951 . S
H1100 C1120 0.950 . S
H1101 C1121 0.966 . S
H1102 C1123 0.950 . S
H1103 C1126 0.950 . S
H1104 C1127 0.950 . S
H1105 C1129 0.950 . S
H1106 C1130 0.950 1_545 S
H1107 C1131 0.951 . S
H1108 C1133 0.951 . S
H1109 C1135 0.950 . S
H1110 C1136 0.950 . S
H1111 C1138 0.950 1_565 S
H1112 C1141 0.950 . S
H1113 C1142 0.950 . S
H1114 C1144 0.950 . S
H1115 C1145 0.950 . S
C1116 H1098 0.951 . S
C1116 C1117 1.366 . S
C1116 C1118 1.388 . S
C1117 C1116 1.366 . S
C1117 C1121 1.385 . S
C1118 H1099 0.951 . S
C1118 C1116 1.388 . S
C1118 C1119 1.366 . S
C1119 C1118 1.366 . S
C1119 C1120 1.414 . S
C1119 C1122 1.499 . S
C1120 H1100 0.950 . S
C1120 C1119 1.414 . S
C1120 C1121 1.374 . S
C1121 H1101 0.966 . S
C1121 C1117 1.385 . S
C1121 C1120 1.374 . S
C1122 C1119 1.499 . S
C1122 C1123 1.373 . S
C1122 C1124 1.389 . S
C1123 H1102 0.950 . S
C1123 C1122 1.373 . S
C1123 C1139 1.377 . S
C1124 C1122 1.389 . S
C1124 C1125 1.524 1_545 S
C1124 C1138 1.377 . S
C1125 C1124 1.524 1_565 S
C1125 C1126 1.397 . S
C1125 C1130 1.363 . S
C1126 H1103 0.950 . S
C1126 C1125 1.397 . S
C1126 C1127 1.334 . S
C1127 H1104 0.950 . S
C1127 C1126 1.334 . S
C1127 C1128 1.287 . S
C1128 C1127 1.287 . S
C1128 C1129 1.524 . S
C1128 H1147 0.913 . S
C1129 H1105 0.950 . S
C1129 C1128 1.524 . S
C1129 C1130 1.415 . S
C1130 H1106 0.950 1_565 S
C1130 C1125 1.363 . S
C1130 C1129 1.415 . S
C1131 H1107 0.951 . S
C1131 C1132 1.366 . S
C1131 C1133 1.388 . S
C1132 C1131 1.366 . S
C1132 C1136 1.385 . S
C1133 H1108 0.951 . S
C1133 C1131 1.388 . S
C1133 C1134 1.366 . S
C1134 C1133 1.366 . S
C1134 C1135 1.414 . S
C1134 C1137 1.499 . S
C1135 H1109 0.950 . S
C1135 C1134 1.414 . S
C1135 C1136 1.374 . S
C1136 H1110 0.950 . S
C1136 C1132 1.385 . S
C1136 C1135 1.374 . S
C1137 C1134 1.499 . S
C1137 C1138 1.373 . S
C1137 C1139 1.389 . S
C1138 H1111 0.950 1_545 S
C1138 C1124 1.377 . S
C1138 C1137 1.373 . S
C1139 C1123 1.377 . S
C1139 C1137 1.389 . S
C1139 C1140 1.524 . S
C1140 C1139 1.524 . S
C1140 C1141 1.397 . S
C1140 C1145 1.363 1_556 S
C1141 H1112 0.950 . S
C1141 C1140 1.397 . S
C1141 C1142 1.334 . S
C1142 H1113 0.950 . S
C1142 C1141 1.334 . S
C1142 C1143 1.287 1_556 S
C1143 C1142 1.287 1_554 S
C1143 C1144 1.524 . S
C1143 H1146 0.999 . S
C1144 H1114 0.950 . S
C1144 C1143 1.524 . S
C1144 C1145 1.415 . S
C1145 H1115 0.950 . S
C1145 C1140 1.363 1_554 S
C1145 C1144 1.415 . S
H1146 C1143 0.999 . S
H1147 C1128 0.913 . S
H1148 C1166 0.951 . S
H1149 C1168 0.951 . S
H1150 C1170 0.950 . S
H1151 C1171 0.950 . S
H1152 C1173 0.950 . S
H1153 C1176 0.950 . S
H1154 C1177 0.950 . S
H1155 C1179 0.950 . S
H1156 C1180 0.950 . S
H1157 C1181 0.951 . S
H1158 C1183 0.951 . S
H1159 C1185 0.950 . S
H1160 C1186 0.950 . S
H1161 C1188 0.950 . S
H1162 C1191 0.950 . S
H1163 C1192 0.950 . S
H1164 C1194 0.950 . S
H1165 C1195 0.950 . S
C1166 H1148 0.951 . S
C1166 C1167 1.366 . S
C1166 C1168 1.388 . S
C1167 C1166 1.366 . S
C1167 C1171 1.385 . S
C1168 H1149 0.951 . S
C1168 C1166 1.388 . S
C1168 C1169 1.366 . S
C1169 C1168 1.366 . S
C1169 C1170 1.414 . S
C1169 C1172 1.499 . S
C1170 H1150 0.950 . S
C1170 C1169 1.414 . S
C1170 C1171 1.374 . S
C1171 H1151 0.950 . S
C1171 C1167 1.385 . S
C1171 C1170 1.374 . S
C1172 C1169 1.499 . S
C1172 C1173 1.373 . S
C1172 C1174 1.389 . S
C1173 H1152 0.950 . S
C1173 C1172 1.373 . S
C1173 C1189 1.377 . S
C1174 C1172 1.389 . S
C1174 C1175 1.524 . S
C1174 C1188 1.377 . S
C1175 C1174 1.524 . S
C1175 C1176 1.397 . S
C1175 C1180 1.363 . S
C1176 H1153 0.950 . S
C1176 C1175 1.397 . S
C1176 C1177 1.334 . S
C1177 H1154 0.950 . S
C1177 C1176 1.334 . S
C1177 C1178 1.287 . S
C1178 C1177 1.287 . S
C1178 C1179 1.524 . S
C1178 H1197 0.913 . S
C1179 H1155 0.950 . S
C1179 C1178 1.524 . S
C1179 C1180 1.415 . S
C1180 H1156 0.950 . S
C1180 C1175 1.363 . S
C1180 C1179 1.415 . S
C1181 H1157 0.951 . S
C1181 C1182 1.366 . S
C1181 C1183 1.388 . S
C1182 C1181 1.366 . S
C1182 C1186 1.385 . S
C1183 H1158 0.951 . S
C1183 C1181 1.388 . S
C1183 C1184 1.366 . S
C1184 C1183 1.366 . S
C1184 C1185 1.414 . S
C1184 C1187 1.499 . S
C1185 H1159 0.950 . S
C1185 C1184 1.414 . S
C1185 C1186 1.374 . S
C1186 H1160 0.950 . S
C1186 C1182 1.385 . S
C1186 C1185 1.374 . S
C1187 C1184 1.499 . S
C1187 C1188 1.373 . S
C1187 C1189 1.389 . S
C1188 H1161 0.950 . S
C1188 C1174 1.377 . S
C1188 C1187 1.373 . S
C1189 C1173 1.377 . S
C1189 C1187 1.389 . S
C1189 C1190 1.524 . S
C1190 C1189 1.524 . S
C1190 C1191 1.397 . S
C1190 C1195 1.363 . S
C1191 H1162 0.950 . S
C1191 C1190 1.397 . S
C1191 C1192 1.334 . S
C1192 H1163 0.950 . S
C1192 C1191 1.334 . S
C1192 C1193 1.287 . S
C1193 C1192 1.287 . S
C1193 C1194 1.524 . S
C1193 H1196 0.999 . S
C1194 H1164 0.950 . S
C1194 C1193 1.524 . S
C1194 C1195 1.415 . S
C1195 H1165 0.950 . S
C1195 C1190 1.363 . S
C1195 C1194 1.415 . S
H1196 C1193 0.999 . S
H1197 C1178 0.913 . S
H1198 C1216 0.951 . S
H1199 C1218 0.951 . S
H1200 C1220 0.950 . S
H1201 C1221 0.950 . S
H1202 C1223 0.950 . S
H1203 C1226 0.950 . S
H1204 C1227 0.950 . S
H1205 C1229 0.950 . S
H1206 C1230 0.950 . S
H1207 C1231 0.951 . S
H1208 C1233 0.951 . S
H1209 C1235 0.950 . S
H1210 C1236 0.950 . S
H1211 C1238 0.950 . S
H1212 C1241 0.950 . S
H1213 C1242 0.950 . S
H1214 C1244 0.950 . S
H1215 C1245 0.950 . S
C1216 H1198 0.951 . S
C1216 C1217 1.366 . S
C1216 C1218 1.388 . S
C1217 C1216 1.366 . S
C1217 C1221 1.385 . S
C1218 H1199 0.951 . S
C1218 C1216 1.388 . S
C1218 C1219 1.366 . S
C1219 C1218 1.366 . S
C1219 C1220 1.414 . S
C1219 C1222 1.499 . S
C1220 H1200 0.950 . S
C1220 C1219 1.414 . S
C1220 C1221 1.374 . S
C1221 H1201 0.950 . S
C1221 C1217 1.385 . S
C1221 C1220 1.374 . S
C1222 C1219 1.499 . S
C1222 C1223 1.373 . S
C1222 C1224 1.389 . S
C1223 H1202 0.950 . S
C1223 C1222 1.373 . S
C1223 C1239 1.377 . S
C1224 C1222 1.389 . S
C1224 C1225 1.524 . S
C1224 C1238 1.377 . S
C1225 C1224 1.524 . S
C1225 C1226 1.397 . S
C1225 C1230 1.363 1_556 S
C1226 H1203 0.950 . S
C1226 C1225 1.397 . S
C1226 C1227 1.334 . S
C1227 H1204 0.950 . S
C1227 C1226 1.334 . S
C1227 C1228 1.287 1_556 S
C1228 C1227 1.287 1_554 S
C1228 C1229 1.524 . S
C1228 H1247 0.913 . S
C1229 H1205 0.950 . S
C1229 C1228 1.524 . S
C1229 C1230 1.415 . S
C1230 H1206 0.950 . S
C1230 C1225 1.363 1_554 S
C1230 C1229 1.415 . S
C1231 H1207 0.951 . S
C1231 C1232 1.366 . S
C1231 C1233 1.388 . S
C1232 C1231 1.366 . S
C1232 C1236 1.385 . S
C1233 H1208 0.951 . S
C1233 C1231 1.388 . S
C1233 C1234 1.366 . S
C1234 C1233 1.366 . S
C1234 C1235 1.414 . S
C1234 C1237 1.499 . S
C1235 H1209 0.950 . S
C1235 C1234 1.414 . S
C1235 C1236 1.374 . S
C1236 H1210 0.950 . S
C1236 C1232 1.385 . S
C1236 C1235 1.374 . S
C1237 C1234 1.499 . S
C1237 C1238 1.373 . S
C1237 C1239 1.389 . S
C1238 H1211 0.950 . S
C1238 C1224 1.377 . S
C1238 C1237 1.373 . S
C1239 C1223 1.377 . S
C1239 C1237 1.389 . S
C1239 C1240 1.524 . S
C1240 C1239 1.524 . S
C1240 C1241 1.397 . S
C1240 C1245 1.363 . S
C1241 H1212 0.950 . S
C1241 C1240 1.397 . S
C1241 C1242 1.334 . S
C1242 H1213 0.950 . S
C1242 C1241 1.334 . S
C1242 C1243 1.287 . S
C1243 C1242 1.287 . S
C1243 C1244 1.524 . S
C1243 H1246 0.999 . S
C1244 H1214 0.950 . S
C1244 C1243 1.524 . S
C1244 C1245 1.415 . S
C1245 H1215 0.950 . S
C1245 C1240 1.363 . S
C1245 C1244 1.415 . S
H1246 C1243 0.999 . S
H1247 C1228 0.913 . S
H1248 C1266 0.951 . S
H1249 C1268 0.951 . S
H1250 C1270 0.950 . S
H1251 C1271 0.950 . S
H1252 C1273 0.950 . S
H1253 C1276 0.950 . S
H1254 C1277 0.950 . S
H1255 C1279 0.950 . S
H1256 C1280 0.950 . S
H1257 C1281 0.951 . S
H1258 C1283 0.951 . S
H1259 C1285 0.950 . S
H1260 C1286 0.950 . S
H1261 C1288 0.950 . S
H1262 C1291 0.950 . S
H1263 C1292 0.950 . S
H1264 C1294 0.950 . S
H1265 C1295 0.950 . S
C1266 H1248 0.951 . S
C1266 C1267 1.366 . S
C1266 C1268 1.388 . S
C1267 C1266 1.366 . S
C1267 C1271 1.385 1_655 S
C1268 H1249 0.951 . S
C1268 C1266 1.388 . S
C1268 C1269 1.366 . S
C1269 C1268 1.366 . S
C1269 C1270 1.414 1_655 S
C1269 C1272 1.499 . S
C1270 H1250 0.950 . S
C1270 C1269 1.414 1_455 S
C1270 C1271 1.374 . S
C1271 H1251 0.950 . S
C1271 C1267 1.385 1_455 S
C1271 C1270 1.374 . S
C1272 C1269 1.499 . S
C1272 C1273 1.373 1_655 S
C1272 C1274 1.389 . S
C1273 H1252 0.950 . S
C1273 C1272 1.373 1_455 S
C1273 C1289 1.377 . S
C1274 C1272 1.389 . S
C1274 C1275 1.524 . S
C1274 C1288 1.377 . S
C1275 C1274 1.524 . S
C1275 C1276 1.397 . S
C1275 C1280 1.363 . S
C1276 H1253 0.950 . S
C1276 C1275 1.397 . S
C1276 C1277 1.334 . S
C1277 H1254 0.950 . S
C1277 C1276 1.334 . S
C1277 C1278 1.287 . S
C1278 C1277 1.287 . S
C1278 C1279 1.524 . S
C1278 H1297 0.913 . S
C1279 H1255 0.950 . S
C1279 C1278 1.524 . S
C1279 C1280 1.415 . S
C1280 H1256 0.950 . S
C1280 C1275 1.363 . S
C1280 C1279 1.415 . S
C1281 H1257 0.951 . S
C1281 C1282 1.366 1_455 S
C1281 C1283 1.388 . S
C1282 C1281 1.366 1_655 S
C1282 C1286 1.385 . S
C1283 H1258 0.951 . S
C1283 C1281 1.388 . S
C1283 C1284 1.366 1_455 S
C1284 C1283 1.366 1_655 S
C1284 C1285 1.414 . S
C1284 C1287 1.499 . S
C1285 H1259 0.950 . S
C1285 C1284 1.414 . S
C1285 C1286 1.374 . S
C1286 H1260 0.950 . S
C1286 C1282 1.385 . S
C1286 C1285 1.374 . S
C1287 C1284 1.499 . S
C1287 C1288 1.373 . S
C1287 C1289 1.389 1_655 S
C1288 H1261 0.950 . S
C1288 C1274 1.377 . S
C1288 C1287 1.373 . S
C1289 C1273 1.377 . S
C1289 C1287 1.389 1_455 S
C1289 C1290 1.524 . S
C1290 C1289 1.524 . S
C1290 C1291 1.397 . S
C1290 C1295 1.363 . S
C1291 H1262 0.950 . S
C1291 C1290 1.397 . S
C1291 C1292 1.334 . S
C1292 H1263 0.950 . S
C1292 C1291 1.334 . S
C1292 C1293 1.287 . S
C1293 C1292 1.287 . S
C1293 C1294 1.524 . S
C1293 H1296 0.999 . S
C1294 H1264 0.950 . S
C1294 C1293 1.524 . S
C1294 C1295 1.415 . S
C1295 H1265 0.950 . S
C1295 C1290 1.363 . S
C1295 C1294 1.415 . S
H1296 C1293 0.999 . S
H1297 C1278 0.913 . S
H1298 C1316 0.951 . S
H1299 C1318 0.951 . S
H1300 C1320 0.941 1_545 S
H1301 C1321 0.947 1_545 S
H1302 C1323 0.950 . S
H1303 C1326 0.950 . S
H1304 C1327 0.950 . S
H1305 C1329 0.950 . S
H1306 C1330 0.950 . S
H1307 C1331 0.958 . S
H1308 C1333 0.945 1_545 S
H1309 C1335 0.950 . S
H1310 C1336 0.950 . S
H1311 C1338 0.950 . S
H1312 C1341 0.950 . S
H1313 C1342 0.950 . S
H1314 C1344 0.950 . S
H1315 C1345 0.950 . S
C1316 H1298 0.951 . S
C1316 C1317 1.366 . S
C1316 C1318 1.388 . S
C1317 C1316 1.366 . S
C1317 C1321 1.387 . S
C1318 H1299 0.951 . S
C1318 C1316 1.388 . S
C1318 C1319 1.366 . S
C1319 C1318 1.366 . S
C1319 C1320 1.428 . S
C1319 C1322 1.499 . S
C1320 H1300 0.941 1_565 S
C1320 C1319 1.428 . S
C1320 C1321 1.373 . S
C1321 H1301 0.947 1_565 S
C1321 C1317 1.387 . S
C1321 C1320 1.373 . S
C1322 C1319 1.499 . S
C1322 C1323 1.373 1_565 S
C1322 C1324 1.389 . S
C1323 H1302 0.950 . S
C1323 C1322 1.373 1_545 S
C1323 C1339 1.377 . S
C1324 C1322 1.389 . S
C1324 C1325 1.524 . S
C1324 C1338 1.377 . S
C1325 C1324 1.524 . S
C1325 C1326 1.397 . S
C1325 C1330 1.363 . S
C1326 H1303 0.950 . S
C1326 C1325 1.397 . S
C1326 C1327 1.334 . S
C1327 H1304 0.950 . S
C1327 C1326 1.334 . S
C1327 C1328 1.287 . S
C1328 C1327 1.287 . S
C1328 C1329 1.524 . S
C1328 H1347 0.913 . S
C1329 H1305 0.950 . S
C1329 C1328 1.524 . S
C1329 C1330 1.415 . S
C1330 H1306 0.950 . S
C1330 C1325 1.363 . S
C1330 C1329 1.415 . S
C1331 H1307 0.958 . S
C1331 C1332 1.366 . S
C1331 C1333 1.388 . S
C1332 C1331 1.366 . S
C1332 C1336 1.385 . S
C1333 H1308 0.945 1_565 S
C1333 C1331 1.388 . S
C1333 C1334 1.366 . S
C1334 C1333 1.366 . S
C1334 C1335 1.414 . S
C1334 C1337 1.499 . S
C1335 H1309 0.950 . S
C1335 C1334 1.414 . S
C1335 C1336 1.374 . S
C1336 H1310 0.950 . S
C1336 C1332 1.385 . S
C1336 C1335 1.374 . S
C1337 C1334 1.499 . S
C1337 C1338 1.373 . S
C1337 C1339 1.389 1_565 S
C1338 H1311 0.950 . S
C1338 C1324 1.377 . S
C1338 C1337 1.373 . S
C1339 C1323 1.377 . S
C1339 C1337 1.389 1_545 S
C1339 C1340 1.524 . S
C1340 C1339 1.524 . S
C1340 C1341 1.397 . S
C1340 C1345 1.363 . S
C1341 H1312 0.950 . S
C1341 C1340 1.397 . S
C1341 C1342 1.334 . S
C1342 H1313 0.950 . S
C1342 C1341 1.334 . S
C1342 C1343 1.287 . S
C1343 C1342 1.287 . S
C1343 C1344 1.524 . S
C1343 H1346 0.999 . S
C1344 H1314 0.950 . S
C1344 C1343 1.524 . S
C1344 C1345 1.415 . S
C1345 H1315 0.950 . S
C1345 C1340 1.363 . S
C1345 C1344 1.415 . S
H1346 C1343 0.999 . S
H1347 C1328 0.913 . S
H1348 C1366 0.951 . S
H1349 C1368 0.951 . S
H1350 C1370 0.950 . S
H1351 C1371 0.950 . S
H1352 C1373 0.950 . S
H1353 C1376 0.950 . S
H1354 C1377 0.950 . S
H1355 C1379 0.950 . S
H1356 C1380 0.950 . S
H1357 C1381 0.951 . S
H1358 C1383 0.951 . S
H1359 C1385 0.950 . S
H1360 C1386 0.950 . S
H1361 C1388 0.950 . S
H1362 C1391 0.950 . S
H1363 C1392 0.950 . S
H1364 C1394 0.950 . S
H1365 C1395 0.950 . S
C1366 H1348 0.951 . S
C1366 C1367 1.366 . S
C1366 C1368 1.388 . S
C1367 C1366 1.366 . S
C1367 C1371 1.385 . S
C1368 H1349 0.951 . S
C1368 C1366 1.388 . S
C1368 C1369 1.366 . S
C1369 C1368 1.366 . S
C1369 C1370 1.414 . S
C1369 C1372 1.499 . S
C1370 H1350 0.950 . S
C1370 C1369 1.414 . S
C1370 C1371 1.374 . S
C1371 H1351 0.950 . S
C1371 C1367 1.385 . S
C1371 C1370 1.374 . S
C1372 C1369 1.499 . S
C1372 C1373 1.373 . S
C1372 C1374 1.389 . S
C1373 H1352 0.950 . S
C1373 C1372 1.373 . S
C1373 C1389 1.377 . S
C1374 C1372 1.389 . S
C1374 C1375 1.524 . S
C1374 C1388 1.377 . S
C1375 C1374 1.524 . S
C1375 C1376 1.397 . S
C1375 C1380 1.363 . S
C1376 H1353 0.950 . S
C1376 C1375 1.397 . S
C1376 C1377 1.334 . S
C1377 H1354 0.950 . S
C1377 C1376 1.334 . S
C1377 C1378 1.287 . S
C1378 C1377 1.287 . S
C1378 C1379 1.524 . S
C1378 H1397 0.913 . S
C1379 H1355 0.950 . S
C1379 C1378 1.524 . S
C1379 C1380 1.415 . S
C1380 H1356 0.950 . S
C1380 C1375 1.363 . S
C1380 C1379 1.415 . S
C1381 H1357 0.951 . S
C1381 C1382 1.366 . S
C1381 C1383 1.388 . S
C1382 C1381 1.366 . S
C1382 C1386 1.385 . S
C1383 H1358 0.951 . S
C1383 C1381 1.388 . S
C1383 C1384 1.366 . S
C1384 C1383 1.366 . S
C1384 C1385 1.414 . S
C1384 C1387 1.499 . S
C1385 H1359 0.950 . S
C1385 C1384 1.414 . S
C1385 C1386 1.374 . S
C1386 H1360 0.950 . S
C1386 C1382 1.385 . S
C1386 C1385 1.374 . S
C1387 C1384 1.499 . S
C1387 C1388 1.373 . S
C1387 C1389 1.389 . S
C1388 H1361 0.950 . S
C1388 C1374 1.377 . S
C1388 C1387 1.373 . S
C1389 C1373 1.377 . S
C1389 C1387 1.389 . S
C1389 C1390 1.524 . S
C1390 C1389 1.524 . S
C1390 C1391 1.397 . S
C1390 C1395 1.363 . S
C1391 H1362 0.950 . S
C1391 C1390 1.397 . S
C1391 C1392 1.334 . S
C1392 H1363 0.950 . S
C1392 C1391 1.334 . S
C1392 C1393 1.287 . S
C1393 C1392 1.287 . S
C1393 C1394 1.524 . S
C1393 H1396 0.999 . S
C1394 H1364 0.950 . S
C1394 C1393 1.524 . S
C1394 C1395 1.415 . S
C1395 H1365 0.950 . S
C1395 C1390 1.363 . S
C1395 C1394 1.415 . S
H1396 C1393 0.999 . S
H1397 C1378 0.913 . S
H1398 C1416 0.951 . S
H1399 C1418 0.951 . S
H1400 C1420 0.950 . S
H1401 C1421 0.950 . S
H1402 C1423 0.950 . S
H1403 C1426 0.950 . S
H1404 C1427 0.950 . S
H1405 C1429 0.950 . S
H1406 C1430 0.950 . S
H1407 C1431 0.951 . S
H1408 C1433 0.951 . S
H1409 C1435 0.950 . S
H1410 C1436 0.950 . S
H1411 C1438 0.950 . S
H1412 C1441 0.950 . S
H1413 C1442 0.950 . S
H1414 C1444 0.950 . S
H1415 C1445 0.950 . S
C1416 H1398 0.951 . S
C1416 C1417 1.366 . S
C1416 C1418 1.388 . S
C1417 C1416 1.366 . S
C1417 C1421 1.385 . S
C1418 H1399 0.951 . S
C1418 C1416 1.388 . S
C1418 C1419 1.366 . S
C1419 C1418 1.366 . S
C1419 C1420 1.414 . S
C1419 C1422 1.499 . S
C1420 H1400 0.950 . S
C1420 C1419 1.414 . S
C1420 C1421 1.374 . S
C1421 H1401 0.950 . S
C1421 C1417 1.385 . S
C1421 C1420 1.374 . S
C1422 C1419 1.499 . S
C1422 C1423 1.373 . S
C1422 C1424 1.389 . S
C1423 H1402 0.950 . S
C1423 C1422 1.373 . S
C1423 C1439 1.377 . S
C1424 C1422 1.389 . S
C1424 C1425 1.524 . S
C1424 C1438 1.377 . S
C1425 C1424 1.524 . S
C1425 C1426 1.397 . S
C1425 C1430 1.363 . S
C1426 H1403 0.950 . S
C1426 C1425 1.397 . S
C1426 C1427 1.334 . S
C1427 H1404 0.950 . S
C1427 C1426 1.334 . S
C1427 C1428 1.287 . S
C1428 C1427 1.287 . S
C1428 C1429 1.524 . S
C1428 H1447 0.913 . S
C1429 H1405 0.950 . S
C1429 C1428 1.524 . S
C1429 C1430 1.415 . S
C1430 H1406 0.950 . S
C1430 C1425 1.363 . S
C1430 C1429 1.415 . S
C1431 H1407 0.951 . S
C1431 C1432 1.366 . S
C1431 C1433 1.388 . S
C1432 C1431 1.366 . S
C1432 C1436 1.385 . S
C1433 H1408 0.951 . S
C1433 C1431 1.388 . S
C1433 C1434 1.366 . S
C1434 C1433 1.366 . S
C1434 C1435 1.414 . S
C1434 C1437 1.499 . S
C1435 H1409 0.950 . S
C1435 C1434 1.414 . S
C1435 C1436 1.374 . S
C1436 H1410 0.950 . S
C1436 C1432 1.385 . S
C1436 C1435 1.374 . S
C1437 C1434 1.499 . S
C1437 C1438 1.373 . S
C1437 C1439 1.389 . S
C1438 H1411 0.950 . S
C1438 C1424 1.377 . S
C1438 C1437 1.373 . S
C1439 C1423 1.377 . S
C1439 C1437 1.389 . S
C1439 C1440 1.524 . S
C1440 C1439 1.524 . S
C1440 C1441 1.397 . S
C1440 C1445 1.363 . S
C1441 H1412 0.950 . S
C1441 C1440 1.397 . S
C1441 C1442 1.334 . S
C1442 H1413 0.950 . S
C1442 C1441 1.334 . S
C1442 C1443 1.287 . S
C1443 C1442 1.287 . S
C1443 C1444 1.524 . S
C1443 H1446 0.999 . S
C1444 H1414 0.950 . S
C1444 C1443 1.524 . S
C1444 C1445 1.415 . S
C1445 H1415 0.950 . S
C1445 C1440 1.363 . S
C1445 C1444 1.415 . S
H1446 C1443 0.999 . S
H1447 C1428 0.913 . S
C267 C76 1.732 . S
C282 C98 1.815 . S
C332 C138 1.816 . S
C317 C87 1.733 . S
C382 C178 1.815 . S
C367 C54 1.733 . S
C432 C218 1.815 . S
C417 C65 1.733 . S
C482 C107 1.821 . S
C467 C32 1.735 . S
C517 C43 1.734 . S
C532 C147 1.815 . S
C567 C10 1.735 . S
C582 C187 1.816 . S
C617 C21 1.735 . S
C632 C227 1.815 . S
C682 C104 0.355 . S
C667 C60 0.397 . S
C732 C144 0.356 . S
C717 C71 0.397 . S
C782 C184 0.353 . S
C767 C82 0.395 . S
C817 C49 0.397 . S
C832 C224 0.356 . S
C867 C16 0.406 . S
C882 C95 0.356 . S
C932 C135 0.353 . S
C917 C27 0.407 . S
C982 C175 0.356 . S
C967 C38 0.406 . S
C1017 C5 0.406 . S
C1032 C215 0.352 . S
C1067 C59 1.858 . S
C1082 C99 2.057 . S
C1117 C70 1.857 . S
C1132 C139 2.057 . S
C1182 C179 2.057 . S
C1167 C81 1.857 . S
C1232 C219 2.057 . S
C1217 C48 1.858 . S
C1267 C15 1.860 . S
C1282 C90 2.058 . S
C1332 C130 2.056 . S
C1317 C26 1.857 . S
C1382 C170 2.056 . S
C1367 C37 1.857 . S
C1417 C4 1.858 . S
C1432 C210 2.057 . S
