# Generated by pormake.
# Topology wbl, (4,4)-cn, num edge types: 1
# Building blocks:
#     Node 0, Type 0, BuildingBlock: MIFKUJ_clean_linker_1, # of connection points: 4
#     Node 1, Type 0, BuildingBlock: MIFKUJ_clean_linker_1, # of connection points: 4
#     Node 2, Type 0, BuildingBlock: MIFKUJ_clean_linker_1, # of connection points: 4
#     Node 3, Type 0, BuildingBlock: MIFKUJ_clean_linker_1, # of connection points: 4
#     Node 4, Type 0, BuildingBlock: MIFKUJ_clean_linker_1, # of connection points: 4
#     Node 5, Type 0, BuildingBlock: MIFKUJ_clean_linker_1, # of connection points: 4
#     Node 6, Type 0, BuildingBlock: MIFKUJ_clean_linker_1, # of connection points: 4
#     Node 7, Type 0, BuildingBlock: MIFKUJ_clean_linker_1, # of connection points: 4
#     Node 8, Type 1, BuildingBlock: GALJAG_clean_sbu_0, # of connection points: 4
#     Node 9, Type 1, BuildingBlock: GALJAG_clean_sbu_0, # of connection points: 4
#     Node 10, Type 1, BuildingBlock: GALJAG_clean_sbu_0, # of connection points: 4
#     Node 11, Type 1, BuildingBlock: GALJAG_clean_sbu_0, # of connection points: 4
#     Node 12, Type 1, BuildingBlock: GALJAG_clean_sbu_0, # of connection points: 4
#     Node 13, Type 1, BuildingBlock: GALJAG_clean_sbu_0, # of connection points: 4
#     Node 14, Type 1, BuildingBlock: GALJAG_clean_sbu_0, # of connection points: 4
#     Node 15, Type 1, BuildingBlock: GALJAG_clean_sbu_0, # of connection points: 4
#     Edge 16, Type (0, 1), BuildingBlock: CIFDUS_clean_linker_0, # of connection points: 2
#     Edge 17, Type (0, 1), BuildingBlock: CIFDUS_clean_linker_0, # of connection points: 2
#     Edge 18, Type (0, 1), BuildingBlock: CIFDUS_clean_linker_0, # of connection points: 2
#     Edge 19, Type (0, 1), BuildingBlock: CIFDUS_clean_linker_0, # of connection points: 2
#     Edge 20, Type (0, 1), BuildingBlock: CIFDUS_clean_linker_0, # of connection points: 2
#     Edge 21, Type (0, 1), BuildingBlock: CIFDUS_clean_linker_0, # of connection points: 2
#     Edge 22, Type (0, 1), BuildingBlock: CIFDUS_clean_linker_0, # of connection points: 2
#     Edge 23, Type (0, 1), BuildingBlock: CIFDUS_clean_linker_0, # of connection points: 2
#     Edge 24, Type (0, 1), BuildingBlock: CIFDUS_clean_linker_0, # of connection points: 2
#     Edge 25, Type (0, 1), BuildingBlock: CIFDUS_clean_linker_0, # of connection points: 2
#     Edge 26, Type (0, 1), BuildingBlock: CIFDUS_clean_linker_0, # of connection points: 2
#     Edge 27, Type (0, 1), BuildingBlock: CIFDUS_clean_linker_0, # of connection points: 2
#     Edge 28, Type (0, 1), BuildingBlock: CIFDUS_clean_linker_0, # of connection points: 2
#     Edge 29, Type (0, 1), BuildingBlock: CIFDUS_clean_linker_0, # of connection points: 2
#     Edge 30, Type (0, 1), BuildingBlock: CIFDUS_clean_linker_0, # of connection points: 2
#     Edge 31, Type (0, 1), BuildingBlock: CIFDUS_clean_linker_0, # of connection points: 2
#     Edge 32, Type (0, 1), BuildingBlock: CIFDUS_clean_linker_0, # of connection points: 2
#     Edge 33, Type (0, 1), BuildingBlock: CIFDUS_clean_linker_0, # of connection points: 2
#     Edge 34, Type (0, 1), BuildingBlock: CIFDUS_clean_linker_0, # of connection points: 2
#     Edge 35, Type (0, 1), BuildingBlock: CIFDUS_clean_linker_0, # of connection points: 2
#     Edge 36, Type (0, 1), BuildingBlock: CIFDUS_clean_linker_0, # of connection points: 2
#     Edge 37, Type (0, 1), BuildingBlock: CIFDUS_clean_linker_0, # of connection points: 2
#     Edge 38, Type (0, 1), BuildingBlock: CIFDUS_clean_linker_0, # of connection points: 2
#     Edge 39, Type (0, 1), BuildingBlock: CIFDUS_clean_linker_0, # of connection points: 2
#     Edge 40, Type (0, 1), BuildingBlock: CIFDUS_clean_linker_0, # of connection points: 2
#     Edge 41, Type (0, 1), BuildingBlock: CIFDUS_clean_linker_0, # of connection points: 2
#     Edge 42, Type (0, 1), BuildingBlock: CIFDUS_clean_linker_0, # of connection points: 2
#     Edge 43, Type (0, 1), BuildingBlock: CIFDUS_clean_linker_0, # of connection points: 2
#     Edge 44, Type (0, 1), BuildingBlock: CIFDUS_clean_linker_0, # of connection points: 2
#     Edge 45, Type (0, 1), BuildingBlock: CIFDUS_clean_linker_0, # of connection points: 2
#     Edge 46, Type (0, 1), BuildingBlock: CIFDUS_clean_linker_0, # of connection points: 2
#     Edge 47, Type (0, 1), BuildingBlock: CIFDUS_clean_linker_0, # of connection points: 2
# Relax obj value: 0.140
# Max RMSD: 0.144
# Mean RMSD: 0.131
data_MOF--net-wbl--node1-GALJAG_clean_sbu_0--node2-MIFKUJ_clean_linker_1--edge1-CIFDUS_clean_linker_0
_symmetry_space_group_name_H-M    P1
_symmetry_Int_Tables_number       1
_symmetry_cell_setting            triclinic
loop_
_symmetry_equiv_pos_as_xyz
'x, y, z'
_cell_length_a     40.216956
_cell_length_b     40.318688
_cell_length_c     73.754058
_cell_angle_alpha  90.035754
_cell_angle_beta   90.101366
_cell_angle_gamma 90.031795
loop_
_atom_site_label
_atom_site_type_symbol
_atom_site_fract_x
_atom_site_fract_y
_atom_site_fract_z
_atom_type_partial_charge
H0 H 0.01396 0.08299 0.36445 0.0
H1 H 0.98775 0.11582 0.38831 0.0
H2 H 0.89453 0.06582 0.37828 0.0
H3 H 0.92104 0.03297 0.35422 0.0
H4 H 0.00899 0.01145 0.37213 0.0
H5 H 0.98179 0.0932 0.32497 0.0
H6 H 0.94292 0.12509 0.30623 0.0
H7 H 0.89741 0.03369 0.28812 0.0
H8 H 0.93647 0.00218 0.3066 0.0
H9 H 0.01324 0.93441 0.30415 0.0
H10 H 0.05256 0.89506 0.29029 0.0
H11 H 0.13276 0.93906 0.3209 0.0
H12 H 0.09417 0.9791 0.334 0.0
H13 H 0.00416 0.99881 0.30533 0.0
H14 H 0.02953 0.91636 0.34878 0.0
H15 H 0.05934 0.8798 0.36988 0.0
H16 H 0.09825 0.9654 0.39789 0.0
H17 H 0.06989 0.00193 0.37642 0.0
C18 C 0.96942 0.05559 0.35762 0.0
C19 C 0.98759 0.07993 0.36695 0.0
C20 C 0.97268 0.09846 0.38065 0.0
C21 C 0.93931 0.0929 0.38532 0.0
C22 C 0.92029 0.07061 0.3749 0.0
C23 C 0.93534 0.05192 0.36114 0.0
C24 C 0.98781 0.02999 0.3474 0.0
C25 C 0.00843 0.00896 0.35747 0.0
C26 C 0.98517 0.02554 0.32846 0.0
C27 C 0.96184 0.04531 0.31728 0.0
C28 C 0.9633 0.08011 0.31702 0.0
C29 C 0.9411 0.0983 0.30629 0.0
C30 C 0.91714 0.08196 0.29559 0.0
C31 C 0.91594 0.04709 0.29588 0.0
C32 C 0.93812 0.029 0.30655 0.0
C33 C 0.05063 0.95924 0.32043 0.0
C34 C 0.03936 0.93586 0.30767 0.0
C35 C 0.06168 0.91336 0.29985 0.0
C36 C 0.09536 0.9138 0.30488 0.0
C37 C 0.10673 0.9379 0.31713 0.0
C38 C 0.08469 0.9607 0.32461 0.0
C39 C 0.02705 0.98144 0.33003 0.0
C40 C 0.00505 0.00136 0.31996 0.0
C41 C 0.0277 0.98443 0.34915 0.0
C42 C 0.04748 0.96198 0.36097 0.0
C43 C 0.04514 0.9273 0.35917 0.0
C44 C 0.06205 0.90643 0.3712 0.0
C45 C 0.08085 0.91998 0.38542 0.0
C46 C 0.08373 0.95452 0.38702 0.0
C47 C 0.06741 0.97532 0.37482 0.0
H48 H 0.99471 0.43486 0.55862 0.0
H49 H 0.9589 0.39303 0.54448 0.0
H50 H 0.87268 0.43965 0.5683 0.0
H51 H 0.90858 0.48145 0.58229 0.0
H52 H 0.99873 0.5042 0.55781 0.0
H53 H 0.97604 0.41841 0.60489 0.0
H54 H 0.94268 0.38503 0.62583 0.0
H55 H 0.88967 0.47331 0.64233 0.0
H56 H 0.92396 0.50644 0.62196 0.0
H57 H 0.99807 0.56953 0.62882 0.0
H58 H 0.03333 0.59827 0.65034 0.0
H59 H 0.11994 0.57122 0.61889 0.0
H60 H 0.08448 0.53974 0.59828 0.0
H61 H 0.99502 0.50858 0.62497 0.0
H62 H 0.00765 0.59456 0.58131 0.0
H63 H 0.03648 0.63642 0.56315 0.0
H64 H 0.09916 0.56039 0.54023 0.0
H65 H 0.06961 0.51819 0.55823 0.0
C66 C 0.95439 0.46093 0.57175 0.0
C67 C 0.96805 0.43636 0.56054 0.0
C68 C 0.94753 0.41251 0.55245 0.0
C69 C 0.91296 0.41286 0.55541 0.0
C70 C 0.89925 0.43838 0.56601 0.0
C71 C 0.91974 0.46229 0.574 0.0
C72 C 0.9764 0.4839 0.58195 0.0
C73 C 0.99829 0.50492 0.57251 0.0
C74 C 0.97503 0.4858 0.60105 0.0
C75 C 0.95254 0.46484 0.61201 0.0
C76 C 0.95696 0.43038 0.61291 0.0
C77 C 0.93775 0.41136 0.62482 0.0
C78 C 0.91374 0.42654 0.63595 0.0
C79 C 0.90846 0.46091 0.63432 0.0
C80 C 0.92787 0.47987 0.62259 0.0
C81 C 0.03846 0.55223 0.61189 0.0
C82 C 0.02465 0.5699 0.62646 0.0
C83 C 0.04499 0.5868 0.63871 0.0
C84 C 0.07976 0.58711 0.63654 0.0
C85 C 0.0934 0.57103 0.62129 0.0
C86 C 0.07301 0.55348 0.60923 0.0
C87 C 0.01705 0.52962 0.60095 0.0
C88 C 0.99559 0.50817 0.61026 0.0
C89 C 0.01807 0.52829 0.58177 0.0
C90 C 0.03658 0.55335 0.57113 0.0
C91 C 0.02766 0.58688 0.57243 0.0
C92 C 0.04404 0.61071 0.56204 0.0
C93 C 0.06993 0.6015 0.55032 0.0
C94 C 0.07932 0.56801 0.54923 0.0
C95 C 0.06243 0.54399 0.55941 0.0
H96 H 0.50617 0.59222 0.86362 0.0
H97 H 0.47275 0.62707 0.88393 0.0
H98 H 0.39019 0.55943 0.87794 0.0
H99 H 0.4235 0.52506 0.85735 0.0
H100 H 0.5103 0.516 0.87473 0.0
H101 H 0.49239 0.59347 0.8239 0.0
H102 H 0.45314 0.62864 0.80742 0.0
H103 H 0.39185 0.5427 0.79643 0.0
H104 H 0.432 0.50769 0.81234 0.0
H105 H 0.51348 0.43517 0.80823 0.0
H106 H 0.55174 0.39481 0.7944 0.0
H107 H 0.63341 0.43807 0.82414 0.0
H108 H 0.59591 0.47923 0.83712 0.0
H109 H 0.50636 0.4997 0.80803 0.0
H110 H 0.52466 0.42092 0.8569 0.0
H111 H 0.55624 0.38618 0.87819 0.0
H112 H 0.61058 0.47253 0.89624 0.0
H113 H 0.57877 0.50712 0.87516 0.0
C114 C 0.46715 0.55625 0.85904 0.0
C115 C 0.48056 0.5855 0.8663 0.0
C116 C 0.46148 0.60536 0.87781 0.0
C117 C 0.42903 0.59576 0.88248 0.0
C118 C 0.41519 0.56725 0.87452 0.0
C119 C 0.43408 0.54772 0.86277 0.0
C120 C 0.48884 0.53241 0.84958 0.0
C121 C 0.5099 0.51268 0.86012 0.0
C122 C 0.48716 0.52746 0.83068 0.0
C123 C 0.465 0.54806 0.81931 0.0
C124 C 0.47069 0.58225 0.81769 0.0
C125 C 0.44808 0.60232 0.80838 0.0
C126 C 0.41911 0.58863 0.80066 0.0
C127 C 0.41407 0.55412 0.80192 0.0
C128 C 0.4369 0.53402 0.81108 0.0
C129 C 0.55163 0.45974 0.8241 0.0
C130 C 0.53967 0.43616 0.81163 0.0
C131 C 0.56141 0.41311 0.80379 0.0
C132 C 0.59523 0.41315 0.80853 0.0
C133 C 0.60726 0.43723 0.82059 0.0
C134 C 0.5858 0.4606 0.82807 0.0
C135 C 0.52872 0.48336 0.83318 0.0
C136 C 0.50706 0.50291 0.82263 0.0
C137 C 0.52949 0.48792 0.85224 0.0
C138 C 0.5495 0.46654 0.86443 0.0
C139 C 0.54353 0.43227 0.86537 0.0
C140 C 0.56142 0.41252 0.87756 0.0
C141 C 0.58586 0.42671 0.88879 0.0
C142 C 0.59209 0.46094 0.88761 0.0
C143 C 0.57386 0.48072 0.87566 0.0
H144 H 0.48757 0.93584 0.05761 0.0
H145 H 0.45235 0.89364 0.04352 0.0
H146 H 0.36485 0.9451 0.06248 0.0
H147 H 0.40023 0.98748 0.07641 0.0
H148 H 0.49545 0.00205 0.05419 0.0
H149 H 0.46066 0.92795 0.10497 0.0
H150 H 0.42554 0.90212 0.1281 0.0
H151 H 0.37675 0.99621 0.13716 0.0
H152 H 0.41268 0.02191 0.1145 0.0
H153 H 0.4974 0.08342 0.11898 0.0
H154 H 0.53428 0.11037 0.14078 0.0
H155 H 0.61613 0.05042 0.12169 0.0
H156 H 0.57907 0.02402 0.09956 0.0
H157 H 0.48407 0.01848 0.12051 0.0
H158 H 0.52479 0.09458 0.07941 0.0
H159 H 0.56384 0.12808 0.06203 0.0
H160 H 0.59515 0.04122 0.03254 0.0
H161 H 0.55735 0.00687 0.05083 0.0
C162 C 0.4466 0.96454 0.06831 0.0
C163 C 0.4608 0.93832 0.05851 0.0
C164 C 0.44062 0.91425 0.05042 0.0
C165 C 0.40581 0.91595 0.05198 0.0
C166 C 0.39159 0.94287 0.06128 0.0
C167 C 0.4118 0.96706 0.06926 0.0
C168 C 0.46829 0.98827 0.07819 0.0
C169 C 0.49337 0.0054 0.06873 0.0
C170 C 0.46452 0.99388 0.09698 0.0
C171 C 0.43927 0.9768 0.10813 0.0
C172 C 0.44185 0.94273 0.11168 0.0
C173 C 0.42169 0.92803 0.12487 0.0
C174 C 0.39864 0.94724 0.13467 0.0
C175 C 0.39472 0.98089 0.13015 0.0
C176 C 0.41503 0.99557 0.11712 0.0
C177 C 0.53546 0.05164 0.10771 0.0
C178 C 0.52342 0.07648 0.11929 0.0
C179 C 0.54449 0.09167 0.13183 0.0
C180 C 0.57801 0.08209 0.13321 0.0
C181 C 0.59048 0.05845 0.12093 0.0
C182 C 0.56934 0.04334 0.10828 0.0
C183 C 0.51178 0.03186 0.09669 0.0
C184 C 0.48632 0.01537 0.10594 0.0
C185 C 0.51489 0.02768 0.07769 0.0
C186 C 0.53865 0.0479 0.06687 0.0
C187 C 0.54064 0.08235 0.06963 0.0
C188 C 0.56273 0.10159 0.05958 0.0
C189 C 0.58256 0.08702 0.04616 0.0
C190 C 0.58013 0.05282 0.04294 0.0
C191 C 0.5585 0.03332 0.05333 0.0
H192 H 0.99426 0.58771 0.88557 0.0
H193 H 0.02378 0.6181 0.86193 0.0
H194 H 0.11156 0.55924 0.87188 0.0
H195 H 0.08165 0.5285 0.89563 0.0
H196 H 0.98781 0.51924 0.87908 0.0
H197 H 0.03894 0.59274 0.92293 0.0
H198 H 0.08692 0.61611 0.93854 0.0
H199 H 0.10669 0.52041 0.96277 0.0
H200 H 0.06108 0.49656 0.94561 0.0
H201 H 0.98097 0.43566 0.94367 0.0
H202 H 0.93839 0.40621 0.9614 0.0
H203 H 0.86306 0.47121 0.93951 0.0
H204 H 0.90535 0.50032 0.92193 0.0
H205 H 0.99925 0.5017 0.94526 0.0
H206 H 0.96532 0.42647 0.89837 0.0
H207 H 0.93656 0.39615 0.87419 0.0
H208 H 0.8914 0.4876 0.85612 0.0
H209 H 0.92072 0.51772 0.88002 0.0
C210 C 0.03576 0.55583 0.89229 0.0
C211 C 0.02015 0.58192 0.88302 0.0
C212 C 0.03694 0.59913 0.86947 0.0
C213 C 0.06972 0.59063 0.86495 0.0
C214 C 0.08629 0.56626 0.87518 0.0
C215 C 0.0693 0.54878 0.88874 0.0
C216 C 0.01498 0.5329 0.90309 0.0
C217 C 0.99007 0.5158 0.89363 0.0
C218 C 0.01939 0.52702 0.92188 0.0
C219 C 0.04684 0.54252 0.93253 0.0
C220 C 0.05408 0.57657 0.93124 0.0
C221 C 0.08125 0.59013 0.94055 0.0
C222 C 0.10125 0.57017 0.95181 0.0
C223 C 0.09272 0.53649 0.95382 0.0
C224 C 0.06617 0.52282 0.94417 0.0
C225 C 0.94625 0.47001 0.93142 0.0
C226 C 0.95524 0.44338 0.94267 0.0
C227 C 0.93097 0.42655 0.9527 0.0
C228 C 0.89754 0.43662 0.95188 0.0
C229 C 0.8887 0.46317 0.94053 0.0
C230 C 0.91279 0.47963 0.93038 0.0
C231 C 0.97161 0.48897 0.92122 0.0
C232 C 0.99722 0.50524 0.93073 0.0
C233 C 0.96872 0.49361 0.90234 0.0
C234 C 0.94531 0.47436 0.8909 0.0
C235 C 0.94843 0.43977 0.88953 0.0
C236 C 0.93202 0.42249 0.87568 0.0
C237 C 0.91224 0.4396 0.86301 0.0
C238 C 0.90709 0.47383 0.86539 0.0
C239 C 0.92359 0.49105 0.87913 0.0
H240 H 0.50787 0.55728 0.19899 0.0
H241 H 0.4845 0.60294 0.2163 0.0
H242 H 0.38713 0.58071 0.19436 0.0
H243 H 0.41018 0.53298 0.17861 0.0
H244 H 0.5037 0.49503 0.19806 0.0
H245 H 0.47764 0.57873 0.15108 0.0
H246 H 0.44478 0.61446 0.13091 0.0
H247 H 0.37796 0.53282 0.12018 0.0
H248 H 0.41089 0.49735 0.14023 0.0
H249 H 0.48389 0.41876 0.13274 0.0
H250 H 0.51238 0.39004 0.10811 0.0
H251 H 0.60395 0.4398 0.12252 0.0
H252 H 0.57534 0.4677 0.14752 0.0
H253 H 0.48021 0.48681 0.13225 0.0
H254 H 0.51896 0.4016 0.17 0.0
H255 H 0.55643 0.36358 0.18573 0.0
H256 H 0.6 0.44571 0.21474 0.0
H257 H 0.56402 0.48432 0.19811 0.0
C258 C 0.46102 0.54206 0.18706 0.0
C259 C 0.48136 0.5618 0.19818 0.0
C260 C 0.46796 0.58831 0.2079 0.0
C261 C 0.43395 0.59619 0.20649 0.0
C262 C 0.41338 0.5755 0.19593 0.0
C263 C 0.42669 0.54846 0.18656 0.0
C264 C 0.47611 0.51557 0.17568 0.0
C265 C 0.49902 0.4935 0.18361 0.0
C266 C 0.4689 0.51253 0.15698 0.0
C267 C 0.44657 0.5355 0.14715 0.0
C268 C 0.4555 0.56883 0.14467 0.0
C269 C 0.43685 0.5891 0.1331 0.0
C270 C 0.40887 0.57636 0.12398 0.0
C271 C 0.39916 0.54341 0.12719 0.0
C272 C 0.41801 0.52309 0.13856 0.0
C273 C 0.52751 0.44533 0.14193 0.0
C274 C 0.51028 0.42288 0.13082 0.0
C275 C 0.52654 0.40674 0.11665 0.0
C276 C 0.56031 0.41309 0.11312 0.0
C277 C 0.57799 0.4342 0.12491 0.0
C278 C 0.5617 0.45017 0.13922 0.0
C279 C 0.50877 0.46709 0.15445 0.0
C280 C 0.48503 0.48821 0.14673 0.0
C281 C 0.51563 0.46927 0.17325 0.0
C282 C 0.53895 0.44609 0.18252 0.0
C283 C 0.53719 0.41175 0.17929 0.0
C284 C 0.55837 0.38995 0.1884 0.0
C285 C 0.58103 0.40191 0.20132 0.0
C286 C 0.58267 0.43606 0.20479 0.0
C287 C 0.56204 0.45801 0.19534 0.0
H288 H 0.50471 0.92869 0.37818 0.0
H289 H 0.47006 0.89891 0.35645 0.0
H290 H 0.38229 0.94367 0.37963 0.0
H291 H 0.41741 0.9735 0.40162 0.0
H292 H 0.50608 0.99702 0.37899 0.0
H293 H 0.4721 0.90656 0.4168 0.0
H294 H 0.43006 0.87372 0.43202 0.0
H295 H 0.41221 0.95519 0.46902 0.0
H296 H 0.45077 0.98929 0.45206 0.0
H297 H 0.52582 0.05862 0.44947 0.0
H298 H 0.57056 0.08493 0.46713 0.0
H299 H 0.64341 0.03167 0.43553 0.0
H300 H 0.59889 0.00549 0.41809 0.0
H301 H 0.51139 0.99129 0.44602 0.0
H302 H 0.54162 0.08204 0.40631 0.0
H303 H 0.57249 0.11794 0.3855 0.0
H304 H 0.5979 0.03217 0.3531 0.0
H305 H 0.56891 0.99665 0.37437 0.0
C306 C 0.46363 0.95338 0.39144 0.0
C307 C 0.47797 0.93183 0.37873 0.0
C308 C 0.45816 0.91496 0.36627 0.0
C309 C 0.42353 0.91937 0.36616 0.0
C310 C 0.40893 0.93978 0.37944 0.0
C311 C 0.4289 0.95681 0.39197 0.0
C312 C 0.48577 0.97418 0.40282 0.0
C313 C 0.50746 0.99555 0.39367 0.0
C314 C 0.4865 0.9729 0.42203 0.0
C315 C 0.4637 0.95111 0.43264 0.0
C316 C 0.45839 0.91777 0.42783 0.0
C317 C 0.43474 0.89857 0.43694 0.0
C318 C 0.41681 0.91171 0.45168 0.0
C319 C 0.42418 0.94434 0.45732 0.0
C320 C 0.44686 0.96388 0.44776 0.0
C321 C 0.55905 0.03028 0.43239 0.0
C322 C 0.55146 0.05276 0.44635 0.0
C323 C 0.57698 0.06786 0.45635 0.0
C324 C 0.61043 0.06021 0.45275 0.0
C325 C 0.61786 0.03778 0.43873 0.0
C326 C 0.59246 0.02301 0.42866 0.0
C327 C 0.53231 0.01338 0.42204 0.0
C328 C 0.50976 0.99286 0.43137 0.0
C329 C 0.53082 0.01501 0.40292 0.0
C330 C 0.55295 0.0366 0.39193 0.0
C331 C 0.55468 0.07095 0.395 0.0
C332 C 0.57198 0.0915 0.38294 0.0
C333 C 0.58763 0.07809 0.36751 0.0
C334 C 0.58675 0.04351 0.36493 0.0
C335 C 0.56982 0.02308 0.37703 0.0
H336 H 0.00436 0.06653 0.6929 0.0
H337 H 0.97701 0.11094 0.70966 0.0
H338 H 0.88191 0.06326 0.70084 0.0
H339 H 0.90955 0.01973 0.68337 0.0
H340 H 0.00446 0.99676 0.69913 0.0
H341 H 0.97573 0.07482 0.6505 0.0
H342 H 0.94323 0.10812 0.62902 0.0
H343 H 0.87823 0.02457 0.61958 0.0
H344 H 0.91095 0.99136 0.64094 0.0
H345 H 0.99054 0.91331 0.63519 0.0
H346 H 0.02498 0.88024 0.61451 0.0
H347 H 0.11138 0.93694 0.63039 0.0
H348 H 0.07698 0.96977 0.65108 0.0
H349 H 0.9814 0.98194 0.63348 0.0
H350 H 0.01749 0.90153 0.67453 0.0
H351 H 0.06032 0.86467 0.68654 0.0
H352 H 0.11137 0.94851 0.70999 0.0
H353 H 0.06905 0.98595 0.69715 0.0
C354 C 0.95895 0.04 0.68686 0.0
C355 C 0.97763 0.06567 0.69465 0.0
C356 C 0.9619 0.09093 0.70434 0.0
C357 C 0.92716 0.09075 0.70671 0.0
C358 C 0.9086 0.06459 0.69907 0.0
C359 C 0.92434 0.03956 0.68916 0.0
C360 C 0.97577 0.01387 0.6762 0.0
C361 C 0.99957 0.9936 0.68477 0.0
C362 C 0.96856 0.00899 0.65763 0.0
C363 C 0.9456 0.03071 0.64736 0.0
C364 C 0.95399 0.06398 0.64414 0.0
C365 C 0.93559 0.08286 0.63178 0.0
C366 C 0.90832 0.06885 0.62258 0.0
C367 C 0.89894 0.03608 0.62658 0.0
C368 C 0.91761 0.01709 0.63874 0.0
C369 C 0.03127 0.94388 0.64464 0.0
C370 C 0.01696 0.91833 0.63432 0.0
C371 C 0.03664 0.89935 0.62267 0.0
C372 C 0.07076 0.9061 0.62093 0.0
C373 C 0.08511 0.93134 0.6315 0.0
C374 C 0.06554 0.94999 0.64331 0.0
C375 C 0.01036 0.96528 0.65627 0.0
C376 C 0.98583 0.98462 0.64793 0.0
C377 C 0.01668 0.96898 0.67504 0.0
C378 C 0.04043 0.94664 0.68454 0.0
C379 C 0.03793 0.91215 0.68216 0.0
C380 C 0.06233 0.89109 0.68904 0.0
C381 C 0.08925 0.90394 0.69891 0.0
C382 C 0.09085 0.93818 0.70231 0.0
C383 C 0.06665 0.95946 0.69507 0.0
In384 In 0.31737 0.68782 0.0032 0.0
O385 O 0.30972 0.73794 0.01719 0.0
O386 O 0.34318 0.73561 0.99496 0.0
C387 C 0.25437 0.66777 0.99614 0.0
C388 C 0.34622 0.66641 0.03417 0.0
C389 C 0.3458 0.6599 0.97387 0.0
O390 O 0.26275 0.6979 0.99515 0.0
O391 O 0.27711 0.64866 0.00142 0.0
O392 O 0.34461 0.64586 0.98913 0.0
O393 O 0.3332 0.68857 0.9734 0.0
C394 C 0.33044 0.75305 0.00733 0.0
O395 O 0.36251 0.67415 0.02021 0.0
O396 O 0.3151 0.66937 0.03257 0.0
In397 In 0.30956 0.81417 0.2485 0.0
O398 O 0.30278 0.75804 0.24412 0.0
O399 O 0.35165 0.77679 0.24745 0.0
C400 C 0.24454 0.82585 0.25533 0.0
C401 C 0.32162 0.84315 0.2163 0.0
C402 C 0.3427 0.84339 0.27626 0.0
O403 O 0.26238 0.80789 0.26539 0.0
O404 O 0.25913 0.83689 0.2415 0.0
O405 O 0.35075 0.84705 0.25989 0.0
O406 O 0.31796 0.82474 0.27875 0.0
C407 C 0.33353 0.7519 0.24453 0.0
O408 O 0.32303 0.85867 0.23117 0.0
O409 O 0.31321 0.81304 0.21761 0.0
In410 In 0.189 0.81482 0.50306 0.0
O411 O 0.17075 0.85897 0.5193 0.0
O412 O 0.17841 0.81387 0.53362 0.0
C413 C 0.15209 0.83525 0.4746 0.0
C414 C 0.17388 0.75041 0.50888 0.0
C415 C 0.25091 0.8384 0.49636 0.0
O416 O 0.14359 0.83937 0.49087 0.0
O417 O 0.1791 0.81977 0.47249 0.0
O418 O 0.24186 0.81019 0.49074 0.0
O419 O 0.22969 0.85307 0.50593 0.0
C420 C 0.16939 0.84383 0.53422 0.0
O421 O 0.20143 0.76269 0.51381 0.0
O422 O 0.15524 0.77017 0.50038 0.0
In423 In 0.19774 0.69524 0.75213 0.0
O424 O 0.15959 0.6647 0.76789 0.0
O425 O 0.19619 0.6905 0.78304 0.0
C426 C 0.16389 0.67309 0.7229 0.0
C427 C 0.25999 0.67056 0.75475 0.0
C428 C 0.19076 0.76111 0.74609 0.0
O429 O 0.15034 0.68941 0.73549 0.0
O430 O 0.19449 0.66733 0.72518 0.0
O431 O 0.20653 0.74234 0.73547 0.0
O432 O 0.18051 0.7471 0.76029 0.0
C433 C 0.17133 0.67151 0.7833 0.0
O434 O 0.25301 0.69991 0.75938 0.0
O435 O 0.23598 0.65439 0.74818 0.0
In436 In 0.81923 0.18856 0.50288 0.0
O437 O 0.81294 0.23749 0.51864 0.0
O438 O 0.84445 0.2374 0.49569 0.0
C439 C 0.75715 0.16477 0.49745 0.0
C440 C 0.84766 0.16045 0.53241 0.0
C441 C 0.84425 0.16909 0.47067 0.0
O442 O 0.76331 0.19554 0.49752 0.0
O443 O 0.78189 0.1466 0.50086 0.0
O444 O 0.85639 0.15988 0.48565 0.0
O445 O 0.81969 0.1884 0.47193 0.0
C446 C 0.83289 0.2536 0.50882 0.0
O447 O 0.86386 0.16838 0.51844 0.0
O448 O 0.81689 0.16635 0.53148 0.0
In449 In 0.80665 0.30946 0.75155 0.0
O450 O 0.82398 0.35798 0.73895 0.0
O451 O 0.8228 0.31541 0.72198 0.0
C452 C 0.83791 0.33076 0.78191 0.0
C453 C 0.82543 0.24719 0.74271 0.0
C454 C 0.74132 0.3215 0.75805 0.0
O455 O 0.84012 0.34529 0.76683 0.0
O456 O 0.82073 0.30455 0.78164 0.0
O457 O 0.75933 0.30449 0.76844 0.0
O458 O 0.75574 0.33117 0.74388 0.0
C459 C 0.82935 0.3459 0.72345 0.0
O460 O 0.79719 0.25872 0.73868 0.0
O461 O 0.84374 0.26672 0.75162 0.0
In462 In 0.69136 0.30486 0.00236 0.0
O463 O 0.70278 0.25945 0.01969 0.0
O464 O 0.67238 0.25199 0.99667 0.0
C465 C 0.75275 0.32723 0.99423 0.0
C466 C 0.6672 0.33646 0.03198 0.0
C467 C 0.65747 0.32399 0.97238 0.0
O468 O 0.74394 0.29764 0.99111 0.0
O469 O 0.73086 0.34495 0.00175 0.0
O470 O 0.64305 0.31415 0.98659 0.0
O471 O 0.68877 0.32332 0.97316 0.0
C472 C 0.68541 0.23949 0.01062 0.0
O473 O 0.65129 0.33427 0.0173 0.0
O474 O 0.69567 0.32347 0.03162 0.0
In475 In 0.696 0.18585 0.24967 0.0
O476 O 0.66693 0.18659 0.27643 0.0
O477 O 0.69161 0.14208 0.26871 0.0
C478 C 0.66258 0.15305 0.22335 0.0
C479 C 0.76121 0.1796 0.25754 0.0
C480 C 0.68384 0.24825 0.23808 0.0
O481 O 0.64905 0.16282 0.2378 0.0
O482 O 0.69329 0.15914 0.22228 0.0
O483 O 0.7029 0.2285 0.22989 0.0
O484 O 0.67212 0.23717 0.25275 0.0
C485 C 0.67419 0.15693 0.28038 0.0
O486 O 0.74305 0.20128 0.26492 0.0
O487 O 0.74686 0.16249 0.24552 0.0
H488 H 0.11211 0.90402 0.26973 0.0
H489 H 0.1323 0.86998 0.324 0.0
H490 H 0.17781 0.83533 0.31284 0.0
H491 H 0.21582 0.82022 0.2883 0.0
H492 H 0.19879 0.85789 0.23436 0.0
H493 H 0.14785 0.88517 0.24457 0.0
C494 C 0.12612 0.88842 0.27896 0.0
C495 C 0.11914 0.8894 0.29759 0.0
C496 C 0.15293 0.86946 0.27252 0.0
C497 C 0.13751 0.86952 0.30959 0.0
C498 C 0.1635 0.84983 0.30322 0.0
C499 C 0.20057 0.83381 0.2787 0.0
C500 C 0.21106 0.83719 0.26065 0.0
C501 C 0.17204 0.85038 0.28481 0.0
C502 C 0.19124 0.85507 0.24837 0.0
C503 C 0.16219 0.87077 0.25421 0.0
H504 H 0.13577 0.61736 0.54892 0.0
H505 H 0.04005 0.64304 0.52661 0.0
H506 H 0.06493 0.68913 0.50995 0.0
H507 H 0.11253 0.72488 0.50393 0.0
H508 H 0.20793 0.70252 0.52776 0.0
H509 H 0.18482 0.65209 0.54139 0.0
C510 C 0.12061 0.63284 0.54017 0.0
C511 C 0.08617 0.62705 0.53898 0.0
C512 C 0.13499 0.65988 0.53099 0.0
C513 C 0.06658 0.6473 0.52778 0.0
C514 C 0.08078 0.67359 0.51827 0.0
C515 C 0.12847 0.70874 0.51187 0.0
C516 C 0.16188 0.71747 0.51486 0.0
C517 C 0.11478 0.68053 0.52009 0.0
C518 C 0.18212 0.69633 0.52524 0.0
C519 C 0.16886 0.66759 0.53311 0.0
H520 H 0.38077 0.57599 0.77077 0.0
H521 H 0.39914 0.65034 0.81177 0.0
H522 H 0.35437 0.68431 0.79955 0.0
H523 H 0.30651 0.69067 0.77908 0.0
H524 H 0.2851 0.61418 0.73985 0.0
H525 H 0.33431 0.58333 0.74955 0.0
C526 C 0.37497 0.59957 0.77709 0.0
C527 C 0.39339 0.61038 0.79224 0.0
C528 C 0.34846 0.61863 0.77034 0.0
C529 C 0.38583 0.64143 0.79996 0.0
C530 C 0.35997 0.66084 0.79307 0.0
C531 C 0.313 0.66755 0.77244 0.0
C532 C 0.29227 0.65471 0.75877 0.0
C533 C 0.34072 0.64942 0.77848 0.0
C534 C 0.3007 0.62454 0.75042 0.0
C535 C 0.32875 0.60683 0.75601 0.0
H536 H 0.41086 0.88503 0.01929 0.0
H537 H 0.35344 0.88558 0.06863 0.0
H538 H 0.32218 0.8372 0.05822 0.0
H539 H 0.31486 0.79161 0.03638 0.0
H540 H 0.37366 0.79015 0.9875 0.0
H541 H 0.40049 0.842 0.99638 0.0
C542 C 0.39141 0.87461 0.02772 0.0
C543 C 0.38467 0.88873 0.04476 0.0
C544 C 0.37383 0.84654 0.02175 0.0
C545 C 0.35898 0.87533 0.0554 0.0
C546 C 0.34123 0.84753 0.0495 0.0
C547 C 0.33312 0.80296 0.02753 0.0
C548 C 0.34241 0.78694 0.01137 0.0
C549 C 0.34891 0.83251 0.03287 0.0
C550 C 0.36615 0.80192 1.00005 0.0
C551 C 0.38162 0.83151 0.00515 0.0
H552 H 0.1117 0.63308 0.9654 0.0
H553 H 0.1601 0.53818 0.9583 0.0
H554 H 0.20976 0.55936 0.97293 0.0
H555 H 0.24076 0.60497 0.98645 0.0
H556 H 0.19598 0.70176 0.9908 0.0
H557 H 0.14381 0.6798 0.97825 0.0
C558 C 0.13315 0.61704 0.96686 0.0
C559 C 0.13162 0.5838 0.96086 0.0
C560 C 0.16242 0.62975 0.97475 0.0
C561 C 0.15982 0.56351 0.96317 0.0
C562 C 0.18854 0.57569 0.9714 0.0
C563 C 0.21948 0.62124 0.98484 0.0
C564 C 0.22206 0.65485 0.98968 0.0
C565 C 0.19017 0.60874 0.97715 0.0
C566 C 0.19449 0.67574 0.98722 0.0
C567 C 0.16474 0.6632 0.98002 0.0
H568 H 0.37198 0.60637 0.22118 0.0
H569 H 0.46547 0.65588 0.21086 0.0
H570 H 0.44352 0.70685 0.22355 0.0
H571 H 0.39703 0.73873 0.23556 0.0
H572 H 0.30161 0.69189 0.24305 0.0
H573 H 0.32495 0.63868 0.2332 0.0
C574 C 0.38755 0.6283 0.22156 0.0
C575 C 0.42052 0.62689 0.21509 0.0
C576 C 0.37436 0.65817 0.22827 0.0
C577 C 0.44033 0.65566 0.21607 0.0
C578 C 0.42768 0.68509 0.22317 0.0
C579 C 0.38139 0.7168 0.23524 0.0
C580 C 0.3477 0.71914 0.24006 0.0
C581 C 0.39467 0.68673 0.22908 0.0
C582 C 0.32766 0.69064 0.23939 0.0
C583 C 0.34097 0.66028 0.23373 0.0
H584 H 0.36042 0.93556 0.4677 0.0
H585 H 0.41103 0.84353 0.4558 0.0
H586 H 0.36432 0.81249 0.46824 0.0
H587 H 0.30797 0.81146 0.48209 0.0
H588 H 0.2619 0.90432 0.49681 0.0
H589 H 0.30866 0.9348 0.48434 0.0
C590 C 0.36207 0.90877 0.46821 0.0
C591 C 0.38957 0.89227 0.46059 0.0
C592 C 0.33579 0.89101 0.47603 0.0
C593 C 0.39006 0.85728 0.46107 0.0
C594 C 0.3634 0.83935 0.46838 0.0
C595 C 0.30844 0.83833 0.4827 0.0
C596 C 0.28141 0.85556 0.49028 0.0
C597 C 0.33594 0.85596 0.47577 0.0
C598 C 0.2824 0.89039 0.49111 0.0
C599 C 0.30909 0.90793 0.48389 0.0
H600 H 0.1086 0.89146 0.73355 0.0
H601 H 0.12825 0.86505 0.67799 0.0
H602 H 0.16653 0.82153 0.68788 0.0
H603 H 0.18866 0.78668 0.71223 0.0
H604 H 0.16508 0.80946 0.76787 0.0
H605 H 0.13476 0.85902 0.75819 0.0
C606 C 0.12187 0.87654 0.7237 0.0
C607 C 0.11573 0.8812 0.70512 0.0
C608 C 0.143 0.85084 0.72952 0.0
C609 C 0.13264 0.86164 0.69237 0.0
C610 C 0.15445 0.83679 0.69802 0.0
C611 C 0.17763 0.80297 0.72227 0.0
C612 C 0.17907 0.79445 0.74073 0.0
C613 C 0.15906 0.83053 0.71655 0.0
C614 C 0.16429 0.81554 0.75357 0.0
C615 C 0.14678 0.84375 0.74803 0.0
H616 H 0.61101 0.40294 0.77323 0.0
H617 H 0.63194 0.36884 0.82741 0.0
H618 H 0.67636 0.33315 0.81595 0.0
H619 H 0.71318 0.31688 0.79117 0.0
H620 H 0.69575 0.35447 0.73725 0.0
H621 H 0.64572 0.3831 0.7478 0.0
C622 C 0.62494 0.38711 0.78238 0.0
C623 C 0.61846 0.38835 0.80107 0.0
C624 C 0.65115 0.36752 0.77575 0.0
C625 C 0.63675 0.36819 0.81296 0.0
C626 C 0.66211 0.34789 0.80642 0.0
C627 C 0.69806 0.33077 0.78164 0.0
C628 C 0.70817 0.33368 0.76349 0.0
C629 C 0.67014 0.34808 0.78793 0.0
C630 C 0.68847 0.35194 0.75132 0.0
C631 C 0.65997 0.36843 0.75736 0.0
H632 H 0.63588 0.12098 0.05819 0.0
H633 H 0.57808 0.10111 0.01021 0.0
H634 H 0.60823 0.14459 0.99375 0.0
H635 H 0.64586 0.19299 0.99455 0.0
H636 H 0.7038 0.2121 0.04276 0.0
H637 H 0.6794 0.1638 0.05748 0.0
C638 C 0.63053 0.12579 0.04401 0.0
C639 C 0.60486 0.10828 0.03536 0.0
C640 C 0.64783 0.15078 0.03475 0.0
C641 C 0.59792 0.1144 0.01702 0.0
C642 C 0.61499 0.13933 0.00769 0.0
C643 C 0.65368 0.18611 0.00812 0.0
C644 C 0.67622 0.20639 0.01764 0.0
C645 C 0.63927 0.1584 0.01661 0.0
C646 C 0.68632 0.19705 0.03517 0.0
C647 C 0.67224 0.16952 0.04365 0.0
H648 H 0.88434 0.13879 0.30478 0.0
H649 H 0.89505 0.06769 0.26139 0.0
H650 H 0.84987 0.0942 0.24476 0.0
H651 H 0.80382 0.13394 0.24395 0.0
H652 H 0.79287 0.2051 0.28723 0.0
H653 H 0.84235 0.18289 0.30219 0.0
C654 C 0.87731 0.12952 0.29151 0.0
C655 C 0.89272 0.1009 0.28452 0.0
C656 C 0.85125 0.1449 0.28198 0.0
C657 C 0.88308 0.08916 0.26732 0.0
C658 C 0.85736 0.10442 0.25773 0.0
C659 C 0.81263 0.14501 0.25648 0.0
C660 C 0.79453 0.1709 0.26455 0.0
C661 C 0.8407 0.13174 0.26516 0.0
C662 C 0.80633 0.1851 0.28074 0.0
C663 C 0.8345 0.17226 0.28937 0.0
H664 H 0.91436 0.38479 0.5218 0.0
H665 H 0.86372 0.37965 0.57323 0.0
H666 H 0.83161 0.33199 0.56265 0.0
H667 H 0.82138 0.28877 0.53972 0.0
H668 H 0.87336 0.29302 0.48864 0.0
H669 H 0.90124 0.34397 0.49809 0.0
C670 C 0.89623 0.37327 0.53066 0.0
C671 C 0.89161 0.38566 0.5483 0.0
C672 C 0.8781 0.34561 0.52456 0.0
C673 C 0.8676 0.3708 0.55953 0.0
C674 C 0.84935 0.34339 0.55353 0.0
C675 C 0.83837 0.30118 0.53054 0.0
C676 C 0.84541 0.28703 0.51355 0.0
C677 C 0.8548 0.33021 0.53619 0.0
C678 C 0.86758 0.30334 0.50183 0.0
C679 C 0.88366 0.33242 0.50725 0.0
H680 H 0.6196 0.12521 0.46205 0.0
H681 H 0.66262 0.02782 0.468 0.0
H682 H 0.71032 0.05149 0.48387 0.0
H683 H 0.74163 0.09988 0.49409 0.0
H684 H 0.70047 0.19788 0.48739 0.0
H685 H 0.64996 0.17398 0.4741 0.0
C686 C 0.63924 0.10921 0.46706 0.0
C687 C 0.63777 0.07485 0.4637 0.0
C688 C 0.66691 0.12308 0.476 0.0
C689 C 0.66345 0.05438 0.47016 0.0
C690 C 0.69067 0.06788 0.47929 0.0
C691 C 0.72145 0.11605 0.48995 0.0
C692 C 0.72485 0.15061 0.49167 0.0
C693 C 0.69295 0.10221 0.48198 0.0
C694 C 0.69846 0.17117 0.48621 0.0
C695 C 0.66965 0.15752 0.47854 0.0
H696 H 0.86698 0.11939 0.6994 0.0
H697 H 0.94964 0.12396 0.73681 0.0
H698 H 0.9248 0.17187 0.75167 0.0
H699 H 0.88103 0.21424 0.75312 0.0
H700 H 0.79715 0.20813 0.71674 0.0
H701 H 0.8206 0.15839 0.70278 0.0
C702 C 0.87933 0.13035 0.71102 0.0
C703 C 0.91046 0.11819 0.71674 0.0
C704 C 0.86464 0.15763 0.71975 0.0
C705 C 0.92612 0.1332 0.73175 0.0
C706 C 0.9118 0.16049 0.74038 0.0
C707 C 0.86772 0.20179 0.74227 0.0
C708 C 0.83754 0.21494 0.73588 0.0
C709 C 0.88134 0.17323 0.73432 0.0
C710 C 0.82043 0.19846 0.72191 0.0
C711 C 0.83391 0.17012 0.71386 0.0
H712 H 0.88507 0.37038 0.95481 0.0
H713 H 0.85194 0.46612 0.9736 0.0
H714 H 0.80584 0.44017 0.98975 0.0
H715 H 0.77272 0.39104 0.99665 0.0
H716 H 0.80375 0.29517 0.97698 0.0
H717 H 0.85316 0.32025 0.96328 0.0
C718 C 0.86798 0.3854 0.96267 0.0
C719 C 0.87167 0.42009 0.96293 0.0
C720 C 0.84114 0.37032 0.97169 0.0
C721 C 0.84929 0.43939 0.97304 0.0
C722 C 0.823 0.42458 0.98229 0.0
C723 C 0.79048 0.37553 0.98956 0.0
C724 C 0.78453 0.34134 0.98777 0.0
C725 C 0.81832 0.39018 0.98142 0.0
C726 C 0.80777 0.32159 0.97852 0.0
C727 C 0.83596 0.33593 0.97064 0.0
H728 H 0.62793 0.36102 0.18778 0.0
H729 H 0.58045 0.39021 0.23758 0.0
H730 H 0.61035 0.34654 0.25403 0.0
H731 H 0.64633 0.29696 0.2535 0.0
H732 H 0.69512 0.26932 0.20366 0.0
H733 H 0.66891 0.31574 0.18803 0.0
C734 C 0.62457 0.35796 0.20228 0.0
C735 C 0.602 0.37837 0.21151 0.0
C736 C 0.64201 0.33309 0.2116 0.0
C737 C 0.59782 0.37462 0.23029 0.0
C738 C 0.61479 0.34964 0.23964 0.0
C739 C 0.65162 0.30146 0.2393 0.0
C740 C 0.67236 0.27954 0.22972 0.0
C741 C 0.63644 0.32828 0.23035 0.0
C742 C 0.6792 0.28579 0.21135 0.0
C743 C 0.66408 0.31223 0.20235 0.0
H744 H 0.066 0.92036 0.42079 0.0
H745 H 0.12803 0.87181 0.38136 0.0
H746 H 0.15501 0.83956 0.40553 0.0
H747 H 0.16281 0.82794 0.43824 0.0
H748 H 0.09883 0.87605 0.47716 0.0
H749 H 0.07049 0.90552 0.45284 0.0
C750 C 0.08533 0.90254 0.41756 0.0
C751 C 0.09545 0.89854 0.39952 0.0
C752 C 0.10032 0.88412 0.43141 0.0
C753 C 0.12008 0.87518 0.39526 0.0
C754 C 0.13547 0.8569 0.40905 0.0
C755 C 0.14246 0.84463 0.44134 0.0
C756 C 0.13313 0.85002 0.45948 0.0
C757 C 0.1261 0.86153 0.42723 0.0
C758 C 0.10657 0.87153 0.46332 0.0
C759 C 0.09038 0.88849 0.44943 0.0
H760 H 0.06728 0.64146 0.65783 0.0
H761 H 0.14148 0.56613 0.64787 0.0
H762 H 0.17494 0.58754 0.67277 0.0
H763 H 0.18161 0.62524 0.6988 0.0
H764 H 0.10462 0.69646 0.71062 0.0
H765 H 0.07338 0.67832 0.68396 0.0
C766 C 0.09057 0.62937 0.66114 0.0
C767 C 0.10154 0.60204 0.65084 0.0
C768 C 0.10909 0.64082 0.67604 0.0
C769 C 0.13241 0.58754 0.6552 0.0
C770 C 0.15149 0.59952 0.66965 0.0
C771 C 0.15804 0.63683 0.69548 0.0
C772 C 0.14538 0.66207 0.70666 0.0
C773 C 0.13985 0.62579 0.68034 0.0
C774 C 0.11476 0.67679 0.70228 0.0
C775 C 0.09694 0.66652 0.687 0.0
H776 H 0.40499 0.56815 0.91286 0.0
H777 H 0.41498 0.66194 0.88545 0.0
H778 H 0.38884 0.69034 0.9112 0.0
H779 H 0.36468 0.68828 0.94199 0.0
H780 H 0.35853 0.59434 0.96981 0.0
H781 H 0.3816 0.56611 0.94343 0.0
C782 C 0.40099 0.59476 0.91246 0.0
C783 C 0.41139 0.61298 0.89729 0.0
C784 C 0.3869 0.61083 0.92743 0.0
C785 C 0.40692 0.64751 0.89702 0.0
C786 C 0.39208 0.66367 0.91172 0.0
C787 C 0.36835 0.66164 0.94221 0.0
C788 C 0.35996 0.64339 0.95779 0.0
C789 C 0.38223 0.6456 0.92708 0.0
C790 C 0.36499 0.60893 0.95799 0.0
C791 C 0.37808 0.59274 0.94291 0.0
H792 H 0.37055 0.88573 0.13844 0.0
H793 H 0.38857 0.97726 0.16728 0.0
H794 H 0.36399 0.95392 0.19453 0.0
H795 H 0.3408 0.90662 0.21085 0.0
H796 H 0.32435 0.81412 0.18281 0.0
H797 H 0.34501 0.83865 0.15465 0.0
C798 C 0.36904 0.90054 0.15068 0.0
C799 C 0.38131 0.93326 0.15073 0.0
C800 C 0.35534 0.88676 0.16651 0.0
C801 C 0.37882 0.95224 0.16669 0.0
C802 C 0.36502 0.93882 0.18238 0.0
C803 C 0.34145 0.89189 0.19854 0.0
C804 C 0.33121 0.8586 0.19892 0.0
C805 C 0.35364 0.90601 0.18251 0.0
C806 C 0.33214 0.83984 0.18286 0.0
C807 C 0.34403 0.85382 0.16677 0.0
H808 H 0.13053 0.62001 0.86116 0.0
H809 H 0.04249 0.59186 0.83143 0.0
H810 H 0.06622 0.61403 0.80354 0.0
H811 H 0.11182 0.64136 0.78754 0.0
H812 H 0.19929 0.67187 0.81707 0.0
H813 H 0.1761 0.64891 0.84505 0.0
C814 C 0.1167 0.61877 0.84854 0.0
C815 C 0.08481 0.60452 0.84832 0.0
C816 C 0.13036 0.63198 0.83254 0.0
C817 C 0.06695 0.60312 0.83194 0.0
C818 C 0.08053 0.61564 0.81598 0.0
C819 C 0.12581 0.64296 0.8001 0.0
C820 C 0.15721 0.65815 0.80025 0.0
C821 C 0.11216 0.63016 0.81612 0.0
C822 C 0.17498 0.6603 0.81664 0.0
C823 C 0.16178 0.64714 0.83263 0.0
H824 H 0.43733 0.61114 0.09678 0.0
H825 H 0.34195 0.5847 0.11912 0.0
H826 H 0.31384 0.61195 0.0937 0.0
H827 H 0.31666 0.64031 0.06413 0.0
H828 H 0.41246 0.66458 0.04144 0.0
H829 H 0.44012 0.64144 0.06804 0.0
C830 C 0.41038 0.61193 0.09626 0.0
C831 C 0.39171 0.59607 0.10981 0.0
C832 C 0.39449 0.627 0.08145 0.0
C833 C 0.35682 0.59667 0.10879 0.0
C834 C 0.34077 0.61221 0.09426 0.0
C835 C 0.34357 0.64074 0.0651 0.0
C836 C 0.36248 0.65399 0.05081 0.0
C837 C 0.35938 0.62694 0.08035 0.0
C838 C 0.39734 0.65436 0.05221 0.0
C839 C 0.41319 0.64116 0.06742 0.0
H840 H 0.43736 0.91912 0.33035 0.0
H841 H 0.36426 0.88597 0.36901 0.0
H842 H 0.33244 0.8595 0.34456 0.0
H843 H 0.32637 0.84479 0.31215 0.0
H844 H 0.39994 0.87879 0.27386 0.0
H845 H 0.43087 0.9056 0.29827 0.0
C846 C 0.41459 0.90587 0.33346 0.0
C847 C 0.40335 0.90415 0.35147 0.0
C848 C 0.39662 0.89079 0.31941 0.0
C849 C 0.37337 0.88766 0.35523 0.0
C850 C 0.35529 0.87241 0.34128 0.0
C851 C 0.34918 0.85805 0.30918 0.0
C852 C 0.36094 0.85967 0.29123 0.0
C853 C 0.36681 0.87364 0.32331 0.0
C854 C 0.39039 0.87713 0.28756 0.0
C855 C 0.40811 0.89248 0.3015 0.0
H856 H 0.10909 0.93417 0.59528 0.0
H857 H 0.07634 0.83931 0.61539 0.0
H858 H 0.10681 0.81111 0.59108 0.0
H859 H 0.14014 0.81397 0.56304 0.0
H860 H 0.16891 0.90949 0.54193 0.0
H861 H 0.14307 0.93701 0.56783 0.0
C862 C 0.10908 0.9073 0.59446 0.0
C863 C 0.09076 0.88874 0.60708 0.0
C864 C 0.12588 0.89147 0.58027 0.0
C865 C 0.09029 0.854 0.60574 0.0
C866 C 0.1077 0.83794 0.59189 0.0
C867 C 0.14109 0.84076 0.5643 0.0
C868 C 0.15641 0.85975 0.55071 0.0
C869 C 0.12523 0.85647 0.57893 0.0
C870 C 0.15715 0.89444 0.55227 0.0
C871 C 0.14237 0.91017 0.56703 0.0
H872 H 0.56025 0.38428 0.91372 0.0
H873 H 0.65282 0.42395 0.89382 0.0
H874 H 0.6834 0.39357 0.91719 0.0
H875 H 0.68349 0.35833 0.94426 0.0
H876 H 0.59079 0.32101 0.96538 0.0
H877 H 0.56055 0.34755 0.94047 0.0
C878 C 0.58715 0.38585 0.9144 0.0
C879 C 0.60433 0.40627 0.90211 0.0
C880 C 0.60447 0.36886 0.92811 0.0
C881 C 0.63912 0.40852 0.90323 0.0
C882 C 0.65658 0.39115 0.91656 0.0
C883 C 0.6567 0.3557 0.9433 0.0
C884 C 0.63938 0.33772 0.95662 0.0
C885 C 0.63947 0.37163 0.92922 0.0
C886 C 0.60466 0.33476 0.95529 0.0
C887 C 0.58737 0.34996 0.94108 0.0
H888 H 0.56013 0.09117 0.16827 0.0
H889 H 0.6434 0.10176 0.13192 0.0
H890 H 0.67759 0.12304 0.15685 0.0
H891 H 0.68316 0.14019 0.18888 0.0
H892 H 0.59878 0.13107 0.22462 0.0
H893 H 0.56559 0.10791 0.19995 0.0
C894 C 0.58564 0.09851 0.16571 0.0
C895 C 0.59906 0.09518 0.1482 0.0
C896 C 0.60496 0.11095 0.18002 0.0
C897 C 0.63247 0.10395 0.14528 0.0
C898 C 0.65199 0.11623 0.15951 0.0
C899 C 0.65758 0.1329 0.19127 0.0
C900 C 0.64344 0.13731 0.20855 0.0
C901 C 0.63844 0.11996 0.17693 0.0
C902 C 0.61022 0.12796 0.21144 0.0
C903 C 0.59121 0.11475 0.19734 0.0
H904 H 0.88022 0.12498 0.39075 0.0
H905 H 0.96867 0.09143 0.41834 0.0
H906 H 0.94722 0.11209 0.44709 0.0
H907 H 0.90309 0.13872 0.46457 0.0
H908 H 0.81505 0.17413 0.43733 0.0
H909 H 0.83645 0.15376 0.40832 0.0
C910 C 0.89471 0.12233 0.40308 0.0
C911 C 0.92604 0.10693 0.40242 0.0
C912 C 0.88229 0.1345 0.41962 0.0
C913 C 0.9447 0.10367 0.41846 0.0
C914 C 0.93238 0.11528 0.43493 0.0
C915 C 0.8886 0.14201 0.45228 0.0
C916 C 0.85752 0.15774 0.45308 0.0
C917 C 0.9012 0.13063 0.43569 0.0
C918 C 0.83912 0.1621 0.43703 0.0
C919 C 0.8513 0.15041 0.42046 0.0
H920 H 0.89877 0.44605 0.67022 0.0
H921 H 0.88862 0.36326 0.63348 0.0
H922 H 0.86124 0.33103 0.65724 0.0
H923 H 0.84098 0.3262 0.6887 0.0
H924 H 0.85004 0.41002 0.72482 0.0
H925 H 0.87637 0.4423 0.70085 0.0
C926 C 0.89004 0.42118 0.66723 0.0
C927 C 0.89571 0.40719 0.65003 0.0
C928 C 0.87407 0.40298 0.68086 0.0
C929 C 0.88494 0.37456 0.64664 0.0
C930 C 0.86911 0.35617 0.6602 0.0
C931 C 0.84857 0.35159 0.69127 0.0
C932 C 0.84364 0.36567 0.70851 0.0
C933 C 0.86372 0.37007 0.6774 0.0
C934 C 0.85354 0.3986 0.71166 0.0
C935 C 0.86866 0.41707 0.69798 0.0
H936 H 0.64343 0.06612 0.34763 0.0
H937 H 0.56609 0.13893 0.35547 0.0
H938 H 0.58756 0.1712 0.33006 0.0
H939 H 0.62558 0.17638 0.3039 0.0
H940 H 0.69945 0.10059 0.29486 0.0
H941 H 0.68153 0.07155 0.32212 0.0
C942 C 0.63107 0.08895 0.34377 0.0
C943 C 0.60296 0.09978 0.35344 0.0
C944 C 0.64269 0.10671 0.32871 0.0
C945 C 0.58798 0.13001 0.34847 0.0
C946 C 0.60002 0.14836 0.33378 0.0
C947 C 0.63782 0.15361 0.30799 0.0
C948 C 0.66364 0.14054 0.29733 0.0
C949 C 0.62694 0.1366 0.32355 0.0
C950 C 0.67929 0.111 0.30275 0.0
C951 C 0.66914 0.09441 0.31837 0.0
H952 H 0.93749 0.10091 0.5946 0.0
H953 H 0.84154 0.07689 0.617 0.0
H954 H 0.81407 0.10396 0.59128 0.0
H955 H 0.81755 0.13306 0.56191 0.0
H956 H 0.9139 0.15474 0.53912 0.0
H957 H 0.941 0.13014 0.56552 0.0
C958 C 0.91056 0.10205 0.59397 0.0
C959 C 0.89154 0.08719 0.60772 0.0
C960 C 0.89505 0.11704 0.57901 0.0
C961 C 0.85667 0.08818 0.60655 0.0
C962 C 0.841 0.10363 0.59186 0.0
C963 C 0.84447 0.13247 0.56277 0.0
C964 C 0.86368 0.14568 0.54857 0.0
C965 C 0.85994 0.11788 0.57792 0.0
C966 C 0.89854 0.14463 0.54983 0.0
C967 C 0.91407 0.13062 0.56494 0.0
H968 H 0.88375 0.37801 0.85986 0.0
H969 H 0.91397 0.46329 0.82856 0.0
H970 H 0.89484 0.43662 0.80086 0.0
H971 H 0.86911 0.38968 0.78542 0.0
H972 H 0.83804 0.3041 0.8161 0.0
H973 H 0.85847 0.32998 0.84406 0.0
C974 C 0.88622 0.39065 0.84696 0.0
C975 C 0.89987 0.42281 0.84636 0.0
C976 C 0.87525 0.37505 0.83094 0.0
C977 C 0.90285 0.43888 0.82952 0.0
C978 C 0.8922 0.42353 0.81361 0.0
C979 C 0.867 0.37654 0.7982 0.0
C980 C 0.85216 0.34501 0.79869 0.0
C981 C 0.87829 0.39172 0.81416 0.0
C982 C 0.84946 0.3284 0.81537 0.0
C983 C 0.86103 0.34323 0.83136 0.0
H984 H 0.62329 0.38837 0.10914 0.0
H985 H 0.53301 0.40853 0.07935 0.0
H986 H 0.55824 0.38722 0.05173 0.0
H987 H 0.60569 0.36271 0.03593 0.0
H988 H 0.69646 0.34308 0.06525 0.0
H989 H 0.67154 0.36494 0.09302 0.0
C990 C 0.60922 0.38829 0.09658 0.0
C991 C 0.57615 0.39971 0.09643 0.0
C992 C 0.62403 0.3763 0.08061 0.0
C993 C 0.55823 0.3992 0.08002 0.0
C994 C 0.57273 0.38729 0.06414 0.0
C995 C 0.62009 0.36338 0.04837 0.0
C996 C 0.65285 0.35133 0.04853 0.0
C997 C 0.60556 0.37573 0.06428 0.0
C998 C 0.67118 0.35228 0.06477 0.0
C999 C 0.65692 0.36469 0.08067 0.0
loop_
_geom_bond_atom_site_label_1
_geom_bond_atom_site_label_2
_geom_bond_distance
_geom_bond_site_symmetry_2
_ccdc_geom_bond_type
H0 C19 0.949 . S
H1 C20 0.950 . S
H2 C22 0.950 . S
H3 C23 0.950 . S
H4 C25 0.950 . S
H5 C28 0.950 . S
H6 C29 0.950 . S
H7 C31 0.951 . S
H8 C32 0.949 1_565 S
H9 C34 0.949 . S
H10 C35 0.950 . S
H11 C37 0.950 . S
H12 C38 0.950 . S
H13 C40 0.951 . S
H14 C43 0.950 . S
H15 C44 0.950 . S
H16 C46 0.951 . S
H17 C47 0.949 1_545 S
C18 C19 1.376 . S
C18 C23 1.386 . S
C18 C24 1.483 . S
C19 H0 0.949 . S
C19 C18 1.376 . S
C19 C20 1.397 . S
C20 H1 0.950 . S
C20 C19 1.397 . S
C20 C21 1.391 . S
C21 C20 1.391 . S
C21 C22 1.405 . S
C22 H2 0.950 . S
C22 C21 1.405 . S
C22 C23 1.367 . S
C23 H3 0.950 . S
C23 C18 1.386 . S
C23 C22 1.367 . S
C24 C18 1.483 . S
C24 C25 1.382 1_655 S
C24 C26 1.403 . S
C25 H4 0.950 . S
C25 C24 1.382 1_455 S
C25 C41 1.411 1_545 S
C26 C24 1.403 . S
C26 C27 1.489 . S
C26 C40 1.420 1_545 S
C27 C26 1.489 . S
C27 C28 1.383 . S
C27 C32 1.382 . S
C28 H5 0.950 . S
C28 C27 1.383 . S
C28 C29 1.395 . S
C29 H6 0.950 . S
C29 C28 1.395 . S
C29 C30 1.288 . S
C30 C29 1.288 . S
C30 C31 1.392 . S
C31 H7 0.951 . S
C31 C30 1.392 . S
C31 C32 1.392 . S
C32 H8 0.949 1_545 S
C32 C27 1.382 . S
C32 C31 1.392 . S
C33 C34 1.376 . S
C33 C38 1.386 . S
C33 C39 1.483 . S
C34 H9 0.949 . S
C34 C33 1.376 . S
C34 C35 1.397 . S
C35 H10 0.950 . S
C35 C34 1.397 . S
C35 C36 1.391 . S
C36 C35 1.391 . S
C36 C37 1.405 . S
C37 H11 0.950 . S
C37 C36 1.405 . S
C37 C38 1.367 . S
C38 H12 0.950 . S
C38 C33 1.386 . S
C38 C37 1.367 . S
C39 C33 1.483 . S
C39 C40 1.371 1_455 S
C39 C41 1.403 . S
C40 H13 0.951 . S
C40 C26 1.420 1_565 S
C40 C39 1.371 1_655 S
C41 C25 1.411 1_565 S
C41 C39 1.403 . S
C41 C42 1.489 . S
C42 C41 1.489 . S
C42 C43 1.383 . S
C42 C47 1.382 . S
C43 H14 0.950 . S
C43 C42 1.383 . S
C43 C44 1.395 . S
C44 H15 0.950 . S
C44 C43 1.395 . S
C44 C45 1.288 . S
C45 C44 1.288 . S
C45 C46 1.392 . S
C46 H16 0.951 . S
C46 C45 1.392 . S
C46 C47 1.392 . S
C47 H17 0.949 1_565 S
C47 C42 1.382 . S
C47 C46 1.392 . S
H48 C67 0.949 1_455 S
H49 C68 0.950 . S
H50 C70 0.950 . S
H51 C71 0.950 . S
H52 C73 0.950 . S
H53 C76 0.950 . S
H54 C77 0.950 . S
H55 C79 0.951 . S
H56 C80 0.949 . S
H57 C82 0.949 1_655 S
H58 C83 0.950 . S
H59 C85 0.950 . S
H60 C86 0.950 . S
H61 C88 0.950 . S
H62 C91 0.950 . S
H63 C92 0.950 . S
H64 C94 0.951 . S
H65 C95 0.949 . S
C66 C67 1.376 . S
C66 C71 1.386 . S
C66 C72 1.483 . S
C67 H48 0.949 1_655 S
C67 C66 1.376 . S
C67 C68 1.397 . S
C68 H49 0.950 . S
C68 C67 1.397 . S
C68 C69 1.391 . S
C69 C68 1.391 . S
C69 C70 1.405 . S
C70 H50 0.950 . S
C70 C69 1.405 . S
C70 C71 1.367 . S
C71 H51 0.950 . S
C71 C66 1.386 . S
C71 C70 1.367 . S
C72 C66 1.483 . S
C72 C73 1.382 1_655 S
C72 C74 1.403 . S
C73 H52 0.950 . S
C73 C72 1.382 1_455 S
C73 C89 1.411 . S
C74 C72 1.403 . S
C74 C75 1.489 . S
C74 C88 1.411 . S
C75 C74 1.489 . S
C75 C76 1.383 . S
C75 C80 1.382 . S
C76 H53 0.950 . S
C76 C75 1.383 . S
C76 C77 1.395 . S
C77 H54 0.950 . S
C77 C76 1.395 . S
C77 C78 1.288 . S
C78 C77 1.288 . S
C78 C79 1.392 . S
C79 H55 0.951 . S
C79 C78 1.392 . S
C79 C80 1.392 . S
C80 H56 0.949 . S
C80 C75 1.382 . S
C80 C79 1.392 . S
C81 C82 1.376 . S
C81 C86 1.386 . S
C81 C87 1.483 . S
C82 H57 0.949 1_455 S
C82 C81 1.376 . S
C82 C83 1.397 . S
C83 H58 0.950 . S
C83 C82 1.397 . S
C83 C84 1.391 . S
C84 C83 1.391 . S
C84 C85 1.405 . S
C85 H59 0.950 . S
C85 C84 1.405 . S
C85 C86 1.367 . S
C86 H60 0.950 . S
C86 C81 1.386 . S
C86 C85 1.367 . S
C87 C81 1.483 . S
C87 C88 1.382 1_455 S
C87 C89 1.403 . S
C88 H61 0.950 . S
C88 C74 1.411 . S
C88 C87 1.382 1_655 S
C89 C73 1.411 . S
C89 C87 1.403 . S
C89 C90 1.489 . S
C90 C89 1.489 . S
C90 C91 1.383 . S
C90 C95 1.382 . S
C91 H62 0.950 . S
C91 C90 1.383 . S
C91 C92 1.395 . S
C92 H63 0.950 . S
C92 C91 1.395 . S
C92 C93 1.288 . S
C93 C92 1.288 . S
C93 C94 1.392 . S
C94 H64 0.951 . S
C94 C93 1.392 . S
C94 C95 1.392 . S
C95 H65 0.949 . S
C95 C90 1.382 . S
C95 C94 1.392 . S
H96 C115 0.949 . S
H97 C116 0.950 . S
H98 C118 0.950 . S
H99 C119 0.950 . S
H100 C121 0.950 . S
H101 C124 0.950 . S
H102 C125 0.950 . S
H103 C127 0.951 . S
H104 C128 0.949 . S
H105 C130 0.949 . S
H106 C131 0.950 . S
H107 C133 0.950 . S
H108 C134 0.950 . S
H109 C136 0.950 . S
H110 C139 0.950 . S
H111 C140 0.950 . S
H112 C142 0.951 . S
H113 C143 0.949 . S
C114 C115 1.376 . S
C114 C119 1.386 . S
C114 C120 1.483 . S
C115 H96 0.949 . S
C115 C114 1.376 . S
C115 C116 1.397 . S
C116 H97 0.950 . S
C116 C115 1.397 . S
C116 C117 1.391 . S
C117 C116 1.391 . S
C117 C118 1.405 . S
C118 H98 0.950 . S
C118 C117 1.405 . S
C118 C119 1.367 . S
C119 H99 0.950 . S
C119 C114 1.386 . S
C119 C118 1.367 . S
C120 C114 1.483 . S
C120 C121 1.382 . S
C120 C122 1.403 . S
C121 H100 0.950 . S
C121 C120 1.382 . S
C121 C137 1.411 . S
C122 C120 1.403 . S
C122 C123 1.489 . S
C122 C136 1.411 . S
C123 C122 1.489 . S
C123 C124 1.383 . S
C123 C128 1.382 . S
C124 H101 0.950 . S
C124 C123 1.383 . S
C124 C125 1.395 . S
C125 H102 0.950 . S
C125 C124 1.395 . S
C125 C126 1.288 . S
C126 C125 1.288 . S
C126 C127 1.392 . S
C127 H103 0.951 . S
C127 C126 1.392 . S
C127 C128 1.392 . S
C128 H104 0.949 . S
C128 C123 1.382 . S
C128 C127 1.392 . S
C129 C130 1.376 . S
C129 C134 1.386 . S
C129 C135 1.483 . S
C130 H105 0.949 . S
C130 C129 1.376 . S
C130 C131 1.397 . S
C131 H106 0.950 . S
C131 C130 1.397 . S
C131 C132 1.391 . S
C132 C131 1.391 . S
C132 C133 1.405 . S
C133 H107 0.950 . S
C133 C132 1.405 . S
C133 C134 1.367 . S
C134 H108 0.950 . S
C134 C129 1.386 . S
C134 C133 1.367 . S
C135 C129 1.483 . S
C135 C136 1.382 . S
C135 C137 1.403 . S
C136 H109 0.950 . S
C136 C122 1.411 . S
C136 C135 1.382 . S
C137 C121 1.411 . S
C137 C135 1.403 . S
C137 C138 1.489 . S
C138 C137 1.489 . S
C138 C139 1.383 . S
C138 C143 1.382 . S
C139 H110 0.950 . S
C139 C138 1.383 . S
C139 C140 1.395 . S
C140 H111 0.950 . S
C140 C139 1.395 . S
C140 C141 1.288 . S
C141 C140 1.288 . S
C141 C142 1.392 . S
C142 H112 0.951 . S
C142 C141 1.392 . S
C142 C143 1.392 . S
C143 H113 0.949 . S
C143 C138 1.382 . S
C143 C142 1.392 . S
H144 C163 0.949 . S
H145 C164 0.950 . S
H146 C166 0.950 . S
H147 C167 0.950 . S
H148 C169 0.950 . S
H149 C172 0.950 . S
H150 C173 0.950 . S
H151 C175 0.951 . S
H152 C176 0.949 . S
H153 C178 0.949 . S
H154 C179 0.950 . S
H155 C181 0.950 . S
H156 C182 0.950 . S
H157 C184 0.950 . S
H158 C187 0.950 . S
H159 C188 0.950 . S
H160 C190 0.951 . S
H161 C191 0.949 . S
C162 C163 1.376 . S
C162 C167 1.386 . S
C162 C168 1.483 . S
C163 H144 0.949 . S
C163 C162 1.376 . S
C163 C164 1.397 . S
C164 H145 0.950 . S
C164 C163 1.397 . S
C164 C165 1.391 . S
C165 C164 1.391 . S
C165 C166 1.405 . S
C166 H146 0.950 . S
C166 C165 1.405 . S
C166 C167 1.367 . S
C167 H147 0.950 . S
C167 C162 1.386 . S
C167 C166 1.367 . S
C168 C162 1.483 . S
C168 C169 1.382 . S
C168 C170 1.403 . S
C169 H148 0.950 . S
C169 C168 1.382 . S
C169 C185 1.411 1_565 S
C170 C168 1.403 . S
C170 C171 1.489 . S
C170 C184 1.411 1_565 S
C171 C170 1.489 . S
C171 C172 1.383 . S
C171 C176 1.382 . S
C172 H149 0.950 . S
C172 C171 1.383 . S
C172 C173 1.395 . S
C173 H150 0.950 . S
C173 C172 1.395 . S
C173 C174 1.288 . S
C174 C173 1.288 . S
C174 C175 1.392 . S
C175 H151 0.951 . S
C175 C174 1.392 . S
C175 C176 1.392 . S
C176 H152 0.949 . S
C176 C171 1.382 . S
C176 C175 1.392 . S
C177 C178 1.376 . S
C177 C182 1.386 . S
C177 C183 1.483 . S
C178 H153 0.949 . S
C178 C177 1.376 . S
C178 C179 1.397 . S
C179 H154 0.950 . S
C179 C178 1.397 . S
C179 C180 1.391 . S
C180 C179 1.391 . S
C180 C181 1.405 . S
C181 H155 0.950 . S
C181 C180 1.405 . S
C181 C182 1.367 . S
C182 H156 0.950 . S
C182 C177 1.386 . S
C182 C181 1.367 . S
C183 C177 1.483 . S
C183 C184 1.382 . S
C183 C185 1.403 . S
C184 H157 0.950 . S
C184 C170 1.411 1_545 S
C184 C183 1.382 . S
C185 C169 1.411 1_545 S
C185 C183 1.403 . S
C185 C186 1.489 . S
C186 C185 1.489 . S
C186 C187 1.383 . S
C186 C191 1.382 . S
C187 H158 0.950 . S
C187 C186 1.383 . S
C187 C188 1.395 . S
C188 H159 0.950 . S
C188 C187 1.395 . S
C188 C189 1.288 . S
C189 C188 1.288 . S
C189 C190 1.392 . S
C190 H160 0.951 . S
C190 C189 1.392 . S
C190 C191 1.392 . S
C191 H161 0.949 . S
C191 C186 1.382 . S
C191 C190 1.392 . S
H192 C211 0.949 . S
H193 C212 0.950 . S
H194 C214 0.950 . S
H195 C215 0.950 . S
H196 C217 0.950 . S
H197 C220 0.950 . S
H198 C221 0.950 . S
H199 C223 0.951 . S
H200 C224 0.949 . S
H201 C226 0.949 . S
H202 C227 0.950 . S
H203 C229 0.950 . S
H204 C230 0.950 . S
H205 C232 0.950 . S
H206 C235 0.950 . S
H207 C236 0.950 . S
H208 C238 0.951 . S
H209 C239 0.949 . S
C210 C211 1.376 . S
C210 C215 1.386 . S
C210 C216 1.483 . S
C211 H192 0.949 . S
C211 C210 1.376 . S
C211 C212 1.397 . S
C212 H193 0.950 . S
C212 C211 1.397 . S
C212 C213 1.391 . S
C213 C212 1.391 . S
C213 C214 1.405 . S
C214 H194 0.950 . S
C214 C213 1.405 . S
C214 C215 1.367 . S
C215 H195 0.950 . S
C215 C210 1.386 . S
C215 C214 1.367 . S
C216 C210 1.483 . S
C216 C217 1.382 1_455 S
C216 C218 1.403 . S
C217 H196 0.950 . S
C217 C216 1.382 1_655 S
C217 C233 1.411 . S
C218 C216 1.403 . S
C218 C219 1.489 . S
C218 C232 1.411 . S
C219 C218 1.489 . S
C219 C220 1.383 . S
C219 C224 1.382 . S
C220 H197 0.950 . S
C220 C219 1.383 . S
C220 C221 1.395 . S
C221 H198 0.950 . S
C221 C220 1.395 . S
C221 C222 1.288 . S
C222 C221 1.288 . S
C222 C223 1.392 . S
C223 H199 0.951 . S
C223 C222 1.392 . S
C223 C224 1.392 . S
C224 H200 0.949 . S
C224 C219 1.382 . S
C224 C223 1.392 . S
C225 C226 1.376 . S
C225 C230 1.386 . S
C225 C231 1.483 . S
C226 H201 0.949 . S
C226 C225 1.376 . S
C226 C227 1.397 . S
C227 H202 0.950 . S
C227 C226 1.397 . S
C227 C228 1.391 . S
C228 C227 1.391 . S
C228 C229 1.405 . S
C229 H203 0.950 . S
C229 C228 1.405 . S
C229 C230 1.367 . S
C230 H204 0.950 . S
C230 C225 1.386 . S
C230 C229 1.367 . S
C231 C225 1.483 . S
C231 C232 1.382 1_655 S
C231 C233 1.403 . S
C232 H205 0.950 . S
C232 C218 1.411 . S
C232 C231 1.382 1_455 S
C233 C217 1.411 . S
C233 C231 1.403 . S
C233 C234 1.489 . S
C234 C233 1.489 . S
C234 C235 1.383 . S
C234 C239 1.382 . S
C235 H206 0.950 . S
C235 C234 1.383 . S
C235 C236 1.395 . S
C236 H207 0.950 . S
C236 C235 1.395 . S
C236 C237 1.288 . S
C237 C236 1.288 . S
C237 C238 1.392 . S
C238 H208 0.951 . S
C238 C237 1.392 . S
C238 C239 1.392 . S
C239 H209 0.949 . S
C239 C234 1.382 . S
C239 C238 1.392 . S
H240 C259 0.949 . S
H241 C260 0.950 . S
H242 C262 0.950 . S
H243 C263 0.950 . S
H244 C265 0.950 . S
H245 C268 0.950 . S
H246 C269 0.950 . S
H247 C271 0.951 . S
H248 C272 0.949 . S
H249 C274 0.949 . S
H250 C275 0.950 . S
H251 C277 0.950 . S
H252 C278 0.950 . S
H253 C280 0.950 . S
H254 C283 0.950 . S
H255 C284 0.950 . S
H256 C286 0.951 . S
H257 C287 0.949 . S
C258 C259 1.376 . S
C258 C263 1.386 . S
C258 C264 1.483 . S
C259 H240 0.949 . S
C259 C258 1.376 . S
C259 C260 1.397 . S
C260 H241 0.950 . S
C260 C259 1.397 . S
C260 C261 1.391 . S
C261 C260 1.391 . S
C261 C262 1.405 . S
C262 H242 0.950 . S
C262 C261 1.405 . S
C262 C263 1.367 . S
C263 H243 0.950 . S
C263 C258 1.386 . S
C263 C262 1.367 . S
C264 C258 1.483 . S
C264 C265 1.382 . S
C264 C266 1.403 . S
C265 H244 0.950 . S
C265 C264 1.382 . S
C265 C281 1.411 . S
C266 C264 1.403 . S
C266 C267 1.489 . S
C266 C280 1.411 . S
C267 C266 1.489 . S
C267 C268 1.383 . S
C267 C272 1.382 . S
C268 H245 0.950 . S
C268 C267 1.383 . S
C268 C269 1.395 . S
C269 H246 0.950 . S
C269 C268 1.395 . S
C269 C270 1.288 . S
C270 C269 1.288 . S
C270 C271 1.392 . S
C271 H247 0.951 . S
C271 C270 1.392 . S
C271 C272 1.392 . S
C272 H248 0.949 . S
C272 C267 1.382 . S
C272 C271 1.392 . S
C273 C274 1.376 . S
C273 C278 1.386 . S
C273 C279 1.483 . S
C274 H249 0.949 . S
C274 C273 1.376 . S
C274 C275 1.397 . S
C275 H250 0.950 . S
C275 C274 1.397 . S
C275 C276 1.391 . S
C276 C275 1.391 . S
C276 C277 1.405 . S
C277 H251 0.950 . S
C277 C276 1.405 . S
C277 C278 1.367 . S
C278 H252 0.950 . S
C278 C273 1.386 . S
C278 C277 1.367 . S
C279 C273 1.483 . S
C279 C280 1.382 . S
C279 C281 1.403 . S
C280 H253 0.950 . S
C280 C266 1.411 . S
C280 C279 1.382 . S
C281 C265 1.411 . S
C281 C279 1.403 . S
C281 C282 1.489 . S
C282 C281 1.489 . S
C282 C283 1.383 . S
C282 C287 1.382 . S
C283 H254 0.950 . S
C283 C282 1.383 . S
C283 C284 1.395 . S
C284 H255 0.950 . S
C284 C283 1.395 . S
C284 C285 1.288 . S
C285 C284 1.288 . S
C285 C286 1.392 . S
C286 H256 0.951 . S
C286 C285 1.392 . S
C286 C287 1.392 . S
C287 H257 0.949 . S
C287 C282 1.382 . S
C287 C286 1.392 . S
H288 C307 0.949 . S
H289 C308 0.950 . S
H290 C310 0.950 . S
H291 C311 0.950 . S
H292 C313 0.950 . S
H293 C316 0.950 . S
H294 C317 0.950 . S
H295 C319 0.951 . S
H296 C320 0.949 1_545 S
H297 C322 0.949 . S
H298 C323 0.950 . S
H299 C325 0.950 . S
H300 C326 0.950 . S
H301 C328 0.950 . S
H302 C331 0.950 . S
H303 C332 0.950 . S
H304 C334 0.951 . S
H305 C335 0.949 1_565 S
C306 C307 1.376 . S
C306 C311 1.386 . S
C306 C312 1.483 . S
C307 H288 0.949 . S
C307 C306 1.376 . S
C307 C308 1.397 . S
C308 H289 0.950 . S
C308 C307 1.397 . S
C308 C309 1.391 . S
C309 C308 1.391 . S
C309 C310 1.405 . S
C310 H290 0.950 . S
C310 C309 1.405 . S
C310 C311 1.367 . S
C311 H291 0.950 . S
C311 C306 1.386 . S
C311 C310 1.367 . S
C312 C306 1.483 . S
C312 C313 1.382 . S
C312 C314 1.403 . S
C313 H292 0.950 . S
C313 C312 1.382 . S
C313 C329 1.411 1_565 S
C314 C312 1.403 . S
C314 C315 1.489 . S
C314 C328 1.411 1_565 S
C315 C314 1.489 . S
C315 C316 1.383 . S
C315 C320 1.382 . S
C316 H293 0.950 . S
C316 C315 1.383 . S
C316 C317 1.395 . S
C317 H294 0.950 . S
C317 C316 1.395 . S
C317 C318 1.288 . S
C318 C317 1.288 . S
C318 C319 1.392 . S
C319 H295 0.951 . S
C319 C318 1.392 . S
C319 C320 1.392 . S
C320 H296 0.949 1_565 S
C320 C315 1.382 . S
C320 C319 1.392 . S
C321 C322 1.376 . S
C321 C326 1.386 . S
C321 C327 1.483 . S
C322 H297 0.949 . S
C322 C321 1.376 . S
C322 C323 1.397 . S
C323 H298 0.950 . S
C323 C322 1.397 . S
C323 C324 1.391 . S
C324 C323 1.391 . S
C324 C325 1.405 . S
C325 H299 0.950 . S
C325 C324 1.405 . S
C325 C326 1.367 . S
C326 H300 0.950 . S
C326 C321 1.386 . S
C326 C325 1.367 . S
C327 C321 1.483 . S
C327 C328 1.382 . S
C327 C329 1.403 . S
C328 H301 0.950 . S
C328 C314 1.411 1_545 S
C328 C327 1.382 . S
C329 C313 1.411 1_545 S
C329 C327 1.403 . S
C329 C330 1.489 . S
C330 C329 1.489 . S
C330 C331 1.383 . S
C330 C335 1.382 . S
C331 H302 0.950 . S
C331 C330 1.383 . S
C331 C332 1.395 . S
C332 H303 0.950 . S
C332 C331 1.395 . S
C332 C333 1.288 . S
C333 C332 1.288 . S
C333 C334 1.392 . S
C334 H304 0.951 . S
C334 C333 1.392 . S
C334 C335 1.392 . S
C335 H305 0.949 1_545 S
C335 C330 1.382 . S
C335 C334 1.392 . S
H336 C355 0.949 1_455 S
H337 C356 0.950 . S
H338 C358 0.950 . S
H339 C359 0.950 . S
H340 C361 0.950 . S
H341 C364 0.950 . S
H342 C365 0.950 . S
H343 C367 0.951 . S
H344 C368 0.949 . S
H345 C370 0.949 1_655 S
H346 C371 0.950 . S
H347 C373 0.950 . S
H348 C374 0.950 . S
H349 C376 0.950 . S
H350 C379 0.950 . S
H351 C380 0.950 . S
H352 C382 0.951 . S
H353 C383 0.949 . S
C354 C355 1.376 . S
C354 C359 1.386 . S
C354 C360 1.483 . S
C355 H336 0.949 1_655 S
C355 C354 1.376 . S
C355 C356 1.397 . S
C356 H337 0.950 . S
C356 C355 1.397 . S
C356 C357 1.391 . S
C357 C356 1.391 . S
C357 C358 1.405 . S
C358 H338 0.950 . S
C358 C357 1.405 . S
C358 C359 1.367 . S
C359 H339 0.950 . S
C359 C354 1.386 . S
C359 C358 1.367 . S
C360 C354 1.483 . S
C360 C361 1.382 1_655 S
C360 C362 1.403 . S
C361 H340 0.950 . S
C361 C360 1.382 1_455 S
C361 C377 1.411 1_545 S
C362 C360 1.403 . S
C362 C363 1.489 . S
C362 C376 1.411 1_545 S
C363 C362 1.489 . S
C363 C364 1.383 . S
C363 C368 1.382 . S
C364 H341 0.950 . S
C364 C363 1.383 . S
C364 C365 1.395 . S
C365 H342 0.950 . S
C365 C364 1.395 . S
C365 C366 1.288 . S
C366 C365 1.288 . S
C366 C367 1.392 . S
C367 H343 0.951 . S
C367 C366 1.392 . S
C367 C368 1.392 . S
C368 H344 0.949 . S
C368 C363 1.382 . S
C368 C367 1.392 . S
C369 C370 1.376 . S
C369 C374 1.386 . S
C369 C375 1.483 . S
C370 H345 0.949 1_455 S
C370 C369 1.376 . S
C370 C371 1.397 . S
C371 H346 0.950 . S
C371 C370 1.397 . S
C371 C372 1.391 . S
C372 C371 1.391 . S
C372 C373 1.405 . S
C373 H347 0.950 . S
C373 C372 1.405 . S
C373 C374 1.367 . S
C374 H348 0.950 . S
C374 C369 1.386 . S
C374 C373 1.367 . S
C375 C369 1.483 . S
C375 C376 1.382 1_455 S
C375 C377 1.403 . S
C376 H349 0.950 . S
C376 C362 1.411 1_565 S
C376 C375 1.382 1_655 S
C377 C361 1.411 1_565 S
C377 C375 1.403 . S
C377 C378 1.489 . S
C378 C377 1.489 . S
C378 C379 1.383 . S
C378 C383 1.382 . S
C379 H350 0.950 . S
C379 C378 1.383 . S
C379 C380 1.395 . S
C380 H351 0.950 . S
C380 C379 1.395 . S
C380 C381 1.288 . S
C381 C380 1.288 . S
C381 C382 1.392 . S
C382 H352 0.951 . S
C382 C381 1.392 . S
C382 C383 1.392 . S
C383 H353 0.949 . S
C383 C378 1.382 . S
C383 C382 1.392 . S
In384 O385 2.294 . S
In384 O386 2.326 . S
In384 O390 2.266 1_554 S
In384 O391 2.326 1_554 S
In384 O392 2.266 1_554 S
In384 O393 2.326 1_554 S
In384 O395 2.294 . S
In384 O396 2.326 . S
O385 In384 2.294 . S
O385 C394 1.240 . S
O386 In384 2.326 . S
O386 C394 1.252 . S
C387 O390 1.252 . S
C387 O391 1.260 . S
C388 O395 1.240 . S
C388 O396 1.252 . S
C389 O392 1.252 . S
C389 O393 1.260 . S
O390 In384 2.266 1_556 S
O390 C387 1.252 . S
O391 In384 2.326 1_556 S
O391 C387 1.260 . S
O392 In384 2.266 1_556 S
O392 C389 1.252 . S
O393 In384 2.326 1_556 S
O393 C389 1.260 . S
C394 O385 1.240 . S
C394 O386 1.252 . S
O395 In384 2.294 . S
O395 C388 1.240 . S
O396 In384 2.326 . S
O396 C388 1.252 . S
In397 O398 2.294 . S
In397 O399 2.326 . S
In397 O403 2.266 . S
In397 O404 2.326 . S
In397 O405 2.266 . S
In397 O406 2.326 . S
In397 O408 2.294 . S
In397 O409 2.326 . S
O398 In397 2.294 . S
O398 C407 1.240 . S
O399 In397 2.326 . S
O399 C407 1.252 . S
C400 O403 1.252 . S
C400 O404 1.260 . S
C401 O408 1.240 . S
C401 O409 1.252 . S
C402 O405 1.252 . S
C402 O406 1.260 . S
O403 In397 2.266 . S
O403 C400 1.252 . S
O404 In397 2.326 . S
O404 C400 1.260 . S
O405 In397 2.266 . S
O405 C402 1.252 . S
O406 In397 2.326 . S
O406 C402 1.260 . S
C407 O398 1.240 . S
C407 O399 1.252 . S
O408 In397 2.294 . S
O408 C401 1.240 . S
O409 In397 2.326 . S
O409 C401 1.252 . S
In410 O411 2.294 . S
In410 O412 2.326 . S
In410 O416 2.266 . S
In410 O417 2.326 . S
In410 O418 2.266 . S
In410 O419 2.326 . S
In410 O421 2.294 . S
In410 O422 2.326 . S
O411 In410 2.294 . S
O411 C420 1.240 . S
O412 In410 2.326 . S
O412 C420 1.252 . S
C413 O416 1.252 . S
C413 O417 1.260 . S
C414 O421 1.240 . S
C414 O422 1.252 . S
C415 O418 1.252 . S
C415 O419 1.260 . S
O416 In410 2.266 . S
O416 C413 1.252 . S
O417 In410 2.326 . S
O417 C413 1.260 . S
O418 In410 2.266 . S
O418 C415 1.252 . S
O419 In410 2.326 . S
O419 C415 1.260 . S
C420 O411 1.240 . S
C420 O412 1.252 . S
O421 In410 2.294 . S
O421 C414 1.240 . S
O422 In410 2.326 . S
O422 C414 1.252 . S
In423 O424 2.294 . S
In423 O425 2.326 . S
In423 O429 2.266 . S
In423 O430 2.326 . S
In423 O431 2.266 . S
In423 O432 2.326 . S
In423 O434 2.294 . S
In423 O435 2.326 . S
O424 In423 2.294 . S
O424 C433 1.240 . S
O425 In423 2.326 . S
O425 C433 1.252 . S
C426 O429 1.252 . S
C426 O430 1.260 . S
C427 O434 1.240 . S
C427 O435 1.252 . S
C428 O431 1.252 . S
C428 O432 1.260 . S
O429 In423 2.266 . S
O429 C426 1.252 . S
O430 In423 2.326 . S
O430 C426 1.260 . S
O431 In423 2.266 . S
O431 C428 1.252 . S
O432 In423 2.326 . S
O432 C428 1.260 . S
C433 O424 1.240 . S
C433 O425 1.252 . S
O434 In423 2.294 . S
O434 C427 1.240 . S
O435 In423 2.326 . S
O435 C427 1.252 . S
In436 O437 2.294 . S
In436 O438 2.326 . S
In436 O442 2.266 . S
In436 O443 2.326 . S
In436 O444 2.266 . S
In436 O445 2.326 . S
In436 O447 2.294 . S
In436 O448 2.326 . S
O437 In436 2.294 . S
O437 C446 1.240 . S
O438 In436 2.326 . S
O438 C446 1.252 . S
C439 O442 1.252 . S
C439 O443 1.260 . S
C440 O447 1.240 . S
C440 O448 1.252 . S
C441 O444 1.252 . S
C441 O445 1.260 . S
O442 In436 2.266 . S
O442 C439 1.252 . S
O443 In436 2.326 . S
O443 C439 1.260 . S
O444 In436 2.266 . S
O444 C441 1.252 . S
O445 In436 2.326 . S
O445 C441 1.260 . S
C446 O437 1.240 . S
C446 O438 1.252 . S
O447 In436 2.294 . S
O447 C440 1.240 . S
O448 In436 2.326 . S
O448 C440 1.252 . S
In449 O450 2.294 . S
In449 O451 2.326 . S
In449 O455 2.266 . S
In449 O456 2.326 . S
In449 O457 2.266 . S
In449 O458 2.326 . S
In449 O460 2.294 . S
In449 O461 2.326 . S
O450 In449 2.294 . S
O450 C459 1.240 . S
O451 In449 2.326 . S
O451 C459 1.252 . S
C452 O455 1.252 . S
C452 O456 1.260 . S
C453 O460 1.240 . S
C453 O461 1.252 . S
C454 O457 1.252 . S
C454 O458 1.260 . S
O455 In449 2.266 . S
O455 C452 1.252 . S
O456 In449 2.326 . S
O456 C452 1.260 . S
O457 In449 2.266 . S
O457 C454 1.252 . S
O458 In449 2.326 . S
O458 C454 1.260 . S
C459 O450 1.240 . S
C459 O451 1.252 . S
O460 In449 2.294 . S
O460 C453 1.240 . S
O461 In449 2.326 . S
O461 C453 1.252 . S
In462 O463 2.294 . S
In462 O464 2.326 . S
In462 O468 2.266 1_554 S
In462 O469 2.326 1_554 S
In462 O470 2.266 1_554 S
In462 O471 2.326 1_554 S
In462 O473 2.294 . S
In462 O474 2.326 . S
O463 In462 2.294 . S
O463 C472 1.240 . S
O464 In462 2.326 . S
O464 C472 1.252 . S
C465 O468 1.252 . S
C465 O469 1.260 . S
C466 O473 1.240 . S
C466 O474 1.252 . S
C467 O470 1.252 . S
C467 O471 1.260 . S
O468 In462 2.266 1_556 S
O468 C465 1.252 . S
O469 In462 2.326 1_556 S
O469 C465 1.260 . S
O470 In462 2.266 1_556 S
O470 C467 1.252 . S
O471 In462 2.326 1_556 S
O471 C467 1.260 . S
C472 O463 1.240 . S
C472 O464 1.252 . S
O473 In462 2.294 . S
O473 C466 1.240 . S
O474 In462 2.326 . S
O474 C466 1.252 . S
In475 O476 2.294 . S
In475 O477 2.326 . S
In475 O481 2.266 . S
In475 O482 2.326 . S
In475 O483 2.266 . S
In475 O484 2.326 . S
In475 O486 2.294 . S
In475 O487 2.326 . S
O476 In475 2.294 . S
O476 C485 1.240 . S
O477 In475 2.326 . S
O477 C485 1.252 . S
C478 O481 1.252 . S
C478 O482 1.260 . S
C479 O486 1.240 . S
C479 O487 1.252 . S
C480 O483 1.252 . S
C480 O484 1.260 . S
O481 In475 2.266 . S
O481 C478 1.252 . S
O482 In475 2.326 . S
O482 C478 1.260 . S
O483 In475 2.266 . S
O483 C480 1.252 . S
O484 In475 2.326 . S
O484 C480 1.260 . S
C485 O476 1.240 . S
C485 O477 1.252 . S
O486 In475 2.294 . S
O486 C479 1.240 . S
O487 In475 2.326 . S
O487 C479 1.252 . S
H488 C494 0.930 . S
H489 C497 0.930 . S
H490 C498 0.930 . S
H491 C499 0.930 . S
H492 C502 0.930 . S
H493 C503 0.930 . S
C494 H488 0.930 . S
C494 C495 1.355 . S
C494 C496 1.415 . S
C495 C494 1.355 . S
C495 C497 1.419 . S
C496 C494 1.415 . S
C496 C501 1.425 . S
C496 C503 1.409 . S
C497 H489 0.930 . S
C497 C495 1.419 . S
C497 C498 1.362 . S
C498 H490 0.930 . S
C498 C497 1.362 . S
C498 C501 1.409 . S
C499 H491 0.930 . S
C499 C500 1.355 . S
C499 C501 1.415 . S
C500 C499 1.355 . S
C500 C502 1.419 . S
C501 C496 1.425 . S
C501 C498 1.409 . S
C501 C499 1.415 . S
C502 H492 0.930 . S
C502 C500 1.419 . S
C502 C503 1.362 . S
C503 H493 0.930 . S
C503 C496 1.409 . S
C503 C502 1.362 . S
H504 C510 0.930 . S
H505 C513 0.930 . S
H506 C514 0.930 . S
H507 C515 0.930 . S
H508 C518 0.930 . S
H509 C519 0.930 . S
C510 H504 0.930 . S
C510 C511 1.355 . S
C510 C512 1.415 . S
C511 C510 1.355 . S
C511 C513 1.419 . S
C512 C510 1.415 . S
C512 C517 1.425 . S
C512 C519 1.409 . S
C513 H505 0.930 . S
C513 C511 1.419 . S
C513 C514 1.362 . S
C514 H506 0.930 . S
C514 C513 1.362 . S
C514 C517 1.409 . S
C515 H507 0.930 . S
C515 C516 1.355 . S
C515 C517 1.415 . S
C516 C515 1.355 . S
C516 C518 1.419 . S
C517 C512 1.425 . S
C517 C514 1.409 . S
C517 C515 1.415 . S
C518 H508 0.930 . S
C518 C516 1.419 . S
C518 C519 1.362 . S
C519 H509 0.930 . S
C519 C512 1.409 . S
C519 C518 1.362 . S
H520 C526 0.930 . S
H521 C529 0.930 . S
H522 C530 0.930 . S
H523 C531 0.930 . S
H524 C534 0.930 . S
H525 C535 0.930 . S
C526 H520 0.930 . S
C526 C527 1.355 . S
C526 C528 1.415 . S
C527 C526 1.355 . S
C527 C529 1.419 . S
C528 C526 1.415 . S
C528 C533 1.425 . S
C528 C535 1.409 . S
C529 H521 0.930 . S
C529 C527 1.419 . S
C529 C530 1.362 . S
C530 H522 0.930 . S
C530 C529 1.362 . S
C530 C533 1.409 . S
C531 H523 0.930 . S
C531 C532 1.355 . S
C531 C533 1.415 . S
C532 C531 1.355 . S
C532 C534 1.419 . S
C533 C528 1.425 . S
C533 C530 1.409 . S
C533 C531 1.415 . S
C534 H524 0.930 . S
C534 C532 1.419 . S
C534 C535 1.362 . S
C535 H525 0.930 . S
C535 C528 1.409 . S
C535 C534 1.362 . S
H536 C542 0.930 . S
H537 C545 0.930 . S
H538 C546 0.930 . S
H539 C547 0.930 . S
H540 C550 0.930 1_556 S
H541 C551 0.943 . S
C542 H536 0.930 . S
C542 C543 1.355 . S
C542 C544 1.415 . S
C543 C542 1.355 . S
C543 C545 1.419 . S
C544 C542 1.415 . S
C544 C549 1.425 . S
C544 C551 1.409 . S
C545 H537 0.930 . S
C545 C543 1.419 . S
C545 C546 1.362 . S
C546 H538 0.930 . S
C546 C545 1.362 . S
C546 C549 1.409 . S
C547 H539 0.930 . S
C547 C548 1.355 . S
C547 C549 1.415 . S
C548 C547 1.355 . S
C548 C550 1.419 . S
C549 C544 1.425 . S
C549 C546 1.409 . S
C549 C547 1.415 . S
C550 H540 0.930 1_554 S
C550 C548 1.419 . S
C550 C551 1.362 . S
C551 H541 0.943 . S
C551 C544 1.409 . S
C551 C550 1.362 . S
H552 C558 0.930 . S
H553 C561 0.930 . S
H554 C562 0.930 . S
H555 C563 0.930 . S
H556 C566 0.930 . S
H557 C567 0.930 . S
C558 H552 0.930 . S
C558 C559 1.355 . S
C558 C560 1.415 . S
C559 C558 1.355 . S
C559 C561 1.419 . S
C560 C558 1.415 . S
C560 C565 1.425 . S
C560 C567 1.409 . S
C561 H553 0.930 . S
C561 C559 1.419 . S
C561 C562 1.362 . S
C562 H554 0.930 . S
C562 C561 1.362 . S
C562 C565 1.409 . S
C563 H555 0.930 . S
C563 C564 1.355 . S
C563 C565 1.415 . S
C564 C563 1.355 . S
C564 C566 1.419 . S
C565 C560 1.425 . S
C565 C562 1.409 . S
C565 C563 1.415 . S
C566 H556 0.930 . S
C566 C564 1.419 . S
C566 C567 1.362 . S
C567 H557 0.930 . S
C567 C560 1.409 . S
C567 C566 1.362 . S
H568 C574 0.930 . S
H569 C577 0.930 . S
H570 C578 0.930 . S
H571 C579 0.930 . S
H572 C582 0.930 . S
H573 C583 0.930 . S
C574 H568 0.930 . S
C574 C575 1.355 . S
C574 C576 1.415 . S
C575 C574 1.355 . S
C575 C577 1.419 . S
C576 C574 1.415 . S
C576 C581 1.425 . S
C576 C583 1.409 . S
C577 H569 0.930 . S
C577 C575 1.419 . S
C577 C578 1.362 . S
C578 H570 0.930 . S
C578 C577 1.362 . S
C578 C581 1.409 . S
C579 H571 0.930 . S
C579 C580 1.355 . S
C579 C581 1.415 . S
C580 C579 1.355 . S
C580 C582 1.419 . S
C581 C576 1.425 . S
C581 C578 1.409 . S
C581 C579 1.415 . S
C582 H572 0.930 . S
C582 C580 1.419 . S
C582 C583 1.362 . S
C583 H573 0.930 . S
C583 C576 1.409 . S
C583 C582 1.362 . S
H584 C590 0.930 . S
H585 C593 0.930 . S
H586 C594 0.930 . S
H587 C595 0.930 . S
H588 C598 0.930 . S
H589 C599 0.930 . S
C590 H584 0.930 . S
C590 C591 1.355 . S
C590 C592 1.415 . S
C591 C590 1.355 . S
C591 C593 1.419 . S
C592 C590 1.415 . S
C592 C597 1.425 . S
C592 C599 1.409 . S
C593 H585 0.930 . S
C593 C591 1.419 . S
C593 C594 1.362 . S
C594 H586 0.930 . S
C594 C593 1.362 . S
C594 C597 1.409 . S
C595 H587 0.930 . S
C595 C596 1.355 . S
C595 C597 1.415 . S
C596 C595 1.355 . S
C596 C598 1.419 . S
C597 C592 1.425 . S
C597 C594 1.409 . S
C597 C595 1.415 . S
C598 H588 0.930 . S
C598 C596 1.419 . S
C598 C599 1.362 . S
C599 H589 0.930 . S
C599 C592 1.409 . S
C599 C598 1.362 . S
H600 C606 0.930 . S
H601 C609 0.930 . S
H602 C610 0.930 . S
H603 C611 0.930 . S
H604 C614 0.930 . S
H605 C615 0.930 . S
C606 H600 0.930 . S
C606 C607 1.355 . S
C606 C608 1.415 . S
C607 C606 1.355 . S
C607 C609 1.419 . S
C608 C606 1.415 . S
C608 C613 1.425 . S
C608 C615 1.409 . S
C609 H601 0.930 . S
C609 C607 1.419 . S
C609 C610 1.362 . S
C610 H602 0.930 . S
C610 C609 1.362 . S
C610 C613 1.409 . S
C611 H603 0.930 . S
C611 C612 1.355 . S
C611 C613 1.415 . S
C612 C611 1.355 . S
C612 C614 1.419 . S
C613 C608 1.425 . S
C613 C610 1.409 . S
C613 C611 1.415 . S
C614 H604 0.930 . S
C614 C612 1.419 . S
C614 C615 1.362 . S
C615 H605 0.930 . S
C615 C608 1.409 . S
C615 C614 1.362 . S
H616 C622 0.930 . S
H617 C625 0.930 . S
H618 C626 0.930 . S
H619 C627 0.930 . S
H620 C630 0.930 . S
H621 C631 0.930 . S
C622 H616 0.930 . S
C622 C623 1.355 . S
C622 C624 1.415 . S
C623 C622 1.355 . S
C623 C625 1.419 . S
C624 C622 1.415 . S
C624 C629 1.425 . S
C624 C631 1.409 . S
C625 H617 0.930 . S
C625 C623 1.419 . S
C625 C626 1.362 . S
C626 H618 0.930 . S
C626 C625 1.362 . S
C626 C629 1.409 . S
C627 H619 0.930 . S
C627 C628 1.355 . S
C627 C629 1.415 . S
C628 C627 1.355 . S
C628 C630 1.419 . S
C629 C624 1.425 . S
C629 C626 1.409 . S
C629 C627 1.415 . S
C630 H620 0.930 . S
C630 C628 1.419 . S
C630 C631 1.362 . S
C631 H621 0.930 . S
C631 C624 1.409 . S
C631 C630 1.362 . S
H632 C638 0.930 . S
H633 C641 0.930 . S
H634 C642 0.930 1_556 S
H635 C643 0.930 1_556 S
H636 C646 0.930 . S
H637 C647 0.930 . S
C638 H632 0.930 . S
C638 C639 1.355 . S
C638 C640 1.415 . S
C639 C638 1.355 . S
C639 C641 1.419 . S
C640 C638 1.415 . S
C640 C645 1.425 . S
C640 C647 1.409 . S
C641 H633 0.930 . S
C641 C639 1.419 . S
C641 C642 1.362 . S
C642 H634 0.930 1_554 S
C642 C641 1.362 . S
C642 C645 1.409 . S
C643 H635 0.930 1_554 S
C643 C644 1.355 . S
C643 C645 1.415 . S
C644 C643 1.355 . S
C644 C646 1.419 . S
C645 C640 1.425 . S
C645 C642 1.409 . S
C645 C643 1.415 . S
C646 H636 0.930 . S
C646 C644 1.419 . S
C646 C647 1.362 . S
C647 H637 0.930 . S
C647 C640 1.409 . S
C647 C646 1.362 . S
H648 C654 0.930 . S
H649 C657 0.930 . S
H650 C658 0.930 . S
H651 C659 0.930 . S
H652 C662 0.930 . S
H653 C663 0.930 . S
C654 H648 0.930 . S
C654 C655 1.355 . S
C654 C656 1.415 . S
C655 C654 1.355 . S
C655 C657 1.419 . S
C656 C654 1.415 . S
C656 C661 1.425 . S
C656 C663 1.409 . S
C657 H649 0.930 . S
C657 C655 1.419 . S
C657 C658 1.362 . S
C658 H650 0.930 . S
C658 C657 1.362 . S
C658 C661 1.409 . S
C659 H651 0.930 . S
C659 C660 1.355 . S
C659 C661 1.415 . S
C660 C659 1.355 . S
C660 C662 1.419 . S
C661 C656 1.425 . S
C661 C658 1.409 . S
C661 C659 1.415 . S
C662 H652 0.930 . S
C662 C660 1.419 . S
C662 C663 1.362 . S
C663 H653 0.930 . S
C663 C656 1.409 . S
C663 C662 1.362 . S
H664 C670 0.930 . S
H665 C673 0.930 . S
H666 C674 0.930 . S
H667 C675 0.930 . S
H668 C678 0.930 . S
H669 C679 0.930 . S
C670 H664 0.930 . S
C670 C671 1.355 . S
C670 C672 1.415 . S
C671 C670 1.355 . S
C671 C673 1.419 . S
C672 C670 1.415 . S
C672 C677 1.425 . S
C672 C679 1.409 . S
C673 H665 0.930 . S
C673 C671 1.419 . S
C673 C674 1.362 . S
C674 H666 0.930 . S
C674 C673 1.362 . S
C674 C677 1.409 . S
C675 H667 0.930 . S
C675 C676 1.355 . S
C675 C677 1.415 . S
C676 C675 1.355 . S
C676 C678 1.419 . S
C677 C672 1.425 . S
C677 C674 1.409 . S
C677 C675 1.415 . S
C678 H668 0.930 . S
C678 C676 1.419 . S
C678 C679 1.362 . S
C679 H669 0.930 . S
C679 C672 1.409 . S
C679 C678 1.362 . S
H680 C686 0.930 . S
H681 C689 0.930 . S
H682 C690 0.930 . S
H683 C691 0.930 . S
H684 C694 0.930 . S
H685 C695 0.930 . S
C686 H680 0.930 . S
C686 C687 1.355 . S
C686 C688 1.415 . S
C687 C686 1.355 . S
C687 C689 1.419 . S
C688 C686 1.415 . S
C688 C693 1.425 . S
C688 C695 1.409 . S
C689 H681 0.930 . S
C689 C687 1.419 . S
C689 C690 1.362 . S
C690 H682 0.930 . S
C690 C689 1.362 . S
C690 C693 1.409 . S
C691 H683 0.930 . S
C691 C692 1.355 . S
C691 C693 1.415 . S
C692 C691 1.355 . S
C692 C694 1.419 . S
C693 C688 1.425 . S
C693 C690 1.409 . S
C693 C691 1.415 . S
C694 H684 0.930 . S
C694 C692 1.419 . S
C694 C695 1.362 . S
C695 H685 0.930 . S
C695 C688 1.409 . S
C695 C694 1.362 . S
H696 C702 0.930 . S
H697 C705 0.930 . S
H698 C706 0.930 . S
H699 C707 0.930 . S
H700 C710 0.930 . S
H701 C711 0.930 . S
C702 H696 0.930 . S
C702 C703 1.355 . S
C702 C704 1.415 . S
C703 C702 1.355 . S
C703 C705 1.419 . S
C704 C702 1.415 . S
C704 C709 1.425 . S
C704 C711 1.409 . S
C705 H697 0.930 . S
C705 C703 1.419 . S
C705 C706 1.362 . S
C706 H698 0.930 . S
C706 C705 1.362 . S
C706 C709 1.409 . S
C707 H699 0.930 . S
C707 C708 1.355 . S
C707 C709 1.415 . S
C708 C707 1.355 . S
C708 C710 1.419 . S
C709 C704 1.425 . S
C709 C706 1.409 . S
C709 C707 1.415 . S
C710 H700 0.930 . S
C710 C708 1.419 . S
C710 C711 1.362 . S
C711 H701 0.930 . S
C711 C704 1.409 . S
C711 C710 1.362 . S
H712 C718 0.930 . S
H713 C721 0.930 . S
H714 C722 0.930 . S
H715 C723 0.930 . S
H716 C726 0.930 . S
H717 C727 0.930 . S
C718 H712 0.930 . S
C718 C719 1.355 . S
C718 C720 1.415 . S
C719 C718 1.355 . S
C719 C721 1.419 . S
C720 C718 1.415 . S
C720 C725 1.425 . S
C720 C727 1.409 . S
C721 H713 0.930 . S
C721 C719 1.419 . S
C721 C722 1.362 . S
C722 H714 0.930 . S
C722 C721 1.362 . S
C722 C725 1.409 . S
C723 H715 0.930 . S
C723 C724 1.355 . S
C723 C725 1.415 . S
C724 C723 1.355 . S
C724 C726 1.419 . S
C725 C720 1.425 . S
C725 C722 1.409 . S
C725 C723 1.415 . S
C726 H716 0.930 . S
C726 C724 1.419 . S
C726 C727 1.362 . S
C727 H717 0.930 . S
C727 C720 1.409 . S
C727 C726 1.362 . S
H728 C734 0.930 . S
H729 C737 0.930 . S
H730 C738 0.930 . S
H731 C739 0.930 . S
H732 C742 0.930 . S
H733 C743 0.930 . S
C734 H728 0.930 . S
C734 C735 1.355 . S
C734 C736 1.415 . S
C735 C734 1.355 . S
C735 C737 1.419 . S
C736 C734 1.415 . S
C736 C741 1.425 . S
C736 C743 1.409 . S
C737 H729 0.930 . S
C737 C735 1.419 . S
C737 C738 1.362 . S
C738 H730 0.930 . S
C738 C737 1.362 . S
C738 C741 1.409 . S
C739 H731 0.930 . S
C739 C740 1.355 . S
C739 C741 1.415 . S
C740 C739 1.355 . S
C740 C742 1.419 . S
C741 C736 1.425 . S
C741 C738 1.409 . S
C741 C739 1.415 . S
C742 H732 0.930 . S
C742 C740 1.419 . S
C742 C743 1.362 . S
C743 H733 0.930 . S
C743 C736 1.409 . S
C743 C742 1.362 . S
H744 C750 0.930 . S
H745 C753 0.930 . S
H746 C754 0.930 . S
H747 C755 0.930 . S
H748 C758 0.930 . S
H749 C759 0.930 . S
C750 H744 0.930 . S
C750 C751 1.355 . S
C750 C752 1.415 . S
C751 C750 1.355 . S
C751 C753 1.419 . S
C752 C750 1.415 . S
C752 C757 1.425 . S
C752 C759 1.409 . S
C753 H745 0.930 . S
C753 C751 1.419 . S
C753 C754 1.362 . S
C754 H746 0.930 . S
C754 C753 1.362 . S
C754 C757 1.409 . S
C755 H747 0.930 . S
C755 C756 1.355 . S
C755 C757 1.415 . S
C756 C755 1.355 . S
C756 C758 1.419 . S
C757 C752 1.425 . S
C757 C754 1.409 . S
C757 C755 1.415 . S
C758 H748 0.930 . S
C758 C756 1.419 . S
C758 C759 1.362 . S
C759 H749 0.930 . S
C759 C752 1.409 . S
C759 C758 1.362 . S
H760 C766 0.930 . S
H761 C769 0.930 . S
H762 C770 0.930 . S
H763 C771 0.930 . S
H764 C774 0.930 . S
H765 C775 0.930 . S
C766 H760 0.930 . S
C766 C767 1.355 . S
C766 C768 1.415 . S
C767 C766 1.355 . S
C767 C769 1.419 . S
C768 C766 1.415 . S
C768 C773 1.425 . S
C768 C775 1.409 . S
C769 H761 0.930 . S
C769 C767 1.419 . S
C769 C770 1.362 . S
C770 H762 0.930 . S
C770 C769 1.362 . S
C770 C773 1.409 . S
C771 H763 0.930 . S
C771 C772 1.355 . S
C771 C773 1.415 . S
C772 C771 1.355 . S
C772 C774 1.419 . S
C773 C768 1.425 . S
C773 C770 1.409 . S
C773 C771 1.415 . S
C774 H764 0.930 . S
C774 C772 1.419 . S
C774 C775 1.362 . S
C775 H765 0.930 . S
C775 C768 1.409 . S
C775 C774 1.362 . S
H776 C782 0.930 . S
H777 C785 0.930 . S
H778 C786 0.930 . S
H779 C787 0.930 . S
H780 C790 0.930 . S
H781 C791 0.930 . S
C782 H776 0.930 . S
C782 C783 1.355 . S
C782 C784 1.415 . S
C783 C782 1.355 . S
C783 C785 1.419 . S
C784 C782 1.415 . S
C784 C789 1.425 . S
C784 C791 1.409 . S
C785 H777 0.930 . S
C785 C783 1.419 . S
C785 C786 1.362 . S
C786 H778 0.930 . S
C786 C785 1.362 . S
C786 C789 1.409 . S
C787 H779 0.930 . S
C787 C788 1.355 . S
C787 C789 1.415 . S
C788 C787 1.355 . S
C788 C790 1.419 . S
C789 C784 1.425 . S
C789 C786 1.409 . S
C789 C787 1.415 . S
C790 H780 0.930 . S
C790 C788 1.419 . S
C790 C791 1.362 . S
C791 H781 0.930 . S
C791 C784 1.409 . S
C791 C790 1.362 . S
H792 C798 0.930 . S
H793 C801 0.930 . S
H794 C802 0.930 . S
H795 C803 0.930 . S
H796 C806 0.930 . S
H797 C807 0.930 . S
C798 H792 0.930 . S
C798 C799 1.355 . S
C798 C800 1.415 . S
C799 C798 1.355 . S
C799 C801 1.419 . S
C800 C798 1.415 . S
C800 C805 1.425 . S
C800 C807 1.409 . S
C801 H793 0.930 . S
C801 C799 1.419 . S
C801 C802 1.362 . S
C802 H794 0.930 . S
C802 C801 1.362 . S
C802 C805 1.409 . S
C803 H795 0.930 . S
C803 C804 1.355 . S
C803 C805 1.415 . S
C804 C803 1.355 . S
C804 C806 1.419 . S
C805 C800 1.425 . S
C805 C802 1.409 . S
C805 C803 1.415 . S
C806 H796 0.930 . S
C806 C804 1.419 . S
C806 C807 1.362 . S
C807 H797 0.930 . S
C807 C800 1.409 . S
C807 C806 1.362 . S
H808 C814 0.930 . S
H809 C817 0.930 . S
H810 C818 0.930 . S
H811 C819 0.930 . S
H812 C822 0.930 . S
H813 C823 0.930 . S
C814 H808 0.930 . S
C814 C815 1.355 . S
C814 C816 1.415 . S
C815 C814 1.355 . S
C815 C817 1.419 . S
C816 C814 1.415 . S
C816 C821 1.425 . S
C816 C823 1.409 . S
C817 H809 0.930 . S
C817 C815 1.419 . S
C817 C818 1.362 . S
C818 H810 0.930 . S
C818 C817 1.362 . S
C818 C821 1.409 . S
C819 H811 0.930 . S
C819 C820 1.355 . S
C819 C821 1.415 . S
C820 C819 1.355 . S
C820 C822 1.419 . S
C821 C816 1.425 . S
C821 C818 1.409 . S
C821 C819 1.415 . S
C822 H812 0.930 . S
C822 C820 1.419 . S
C822 C823 1.362 . S
C823 H813 0.930 . S
C823 C816 1.409 . S
C823 C822 1.362 . S
H824 C830 0.930 . S
H825 C833 0.930 . S
H826 C834 0.930 . S
H827 C835 0.930 . S
H828 C838 0.930 . S
H829 C839 0.930 . S
C830 H824 0.930 . S
C830 C831 1.355 . S
C830 C832 1.415 . S
C831 C830 1.355 . S
C831 C833 1.419 . S
C832 C830 1.415 . S
C832 C837 1.425 . S
C832 C839 1.409 . S
C833 H825 0.930 . S
C833 C831 1.419 . S
C833 C834 1.362 . S
C834 H826 0.930 . S
C834 C833 1.362 . S
C834 C837 1.409 . S
C835 H827 0.930 . S
C835 C836 1.355 . S
C835 C837 1.415 . S
C836 C835 1.355 . S
C836 C838 1.419 . S
C837 C832 1.425 . S
C837 C834 1.409 . S
C837 C835 1.415 . S
C838 H828 0.930 . S
C838 C836 1.419 . S
C838 C839 1.362 . S
C839 H829 0.930 . S
C839 C832 1.409 . S
C839 C838 1.362 . S
H840 C846 0.930 . S
H841 C849 0.930 . S
H842 C850 0.930 . S
H843 C851 0.930 . S
H844 C854 0.930 . S
H845 C855 0.930 . S
C846 H840 0.930 . S
C846 C847 1.355 . S
C846 C848 1.415 . S
C847 C846 1.355 . S
C847 C849 1.419 . S
C848 C846 1.415 . S
C848 C853 1.425 . S
C848 C855 1.409 . S
C849 H841 0.930 . S
C849 C847 1.419 . S
C849 C850 1.362 . S
C850 H842 0.930 . S
C850 C849 1.362 . S
C850 C853 1.409 . S
C851 H843 0.930 . S
C851 C852 1.355 . S
C851 C853 1.415 . S
C852 C851 1.355 . S
C852 C854 1.419 . S
C853 C848 1.425 . S
C853 C850 1.409 . S
C853 C851 1.415 . S
C854 H844 0.930 . S
C854 C852 1.419 . S
C854 C855 1.362 . S
C855 H845 0.930 . S
C855 C848 1.409 . S
C855 C854 1.362 . S
H856 C862 0.930 . S
H857 C865 0.930 . S
H858 C866 0.930 . S
H859 C867 0.930 . S
H860 C870 0.930 . S
H861 C871 0.930 . S
C862 H856 0.930 . S
C862 C863 1.355 . S
C862 C864 1.415 . S
C863 C862 1.355 . S
C863 C865 1.419 . S
C864 C862 1.415 . S
C864 C869 1.425 . S
C864 C871 1.409 . S
C865 H857 0.930 . S
C865 C863 1.419 . S
C865 C866 1.362 . S
C866 H858 0.930 . S
C866 C865 1.362 . S
C866 C869 1.409 . S
C867 H859 0.930 . S
C867 C868 1.355 . S
C867 C869 1.415 . S
C868 C867 1.355 . S
C868 C870 1.419 . S
C869 C864 1.425 . S
C869 C866 1.409 . S
C869 C867 1.415 . S
C870 H860 0.930 . S
C870 C868 1.419 . S
C870 C871 1.362 . S
C871 H861 0.930 . S
C871 C864 1.409 . S
C871 C870 1.362 . S
H872 C878 0.930 . S
H873 C881 0.930 . S
H874 C882 0.930 . S
H875 C883 0.930 . S
H876 C886 0.930 . S
H877 C887 0.930 . S
C878 H872 0.930 . S
C878 C879 1.355 . S
C878 C880 1.415 . S
C879 C878 1.355 . S
C879 C881 1.419 . S
C880 C878 1.415 . S
C880 C885 1.425 . S
C880 C887 1.409 . S
C881 H873 0.930 . S
C881 C879 1.419 . S
C881 C882 1.362 . S
C882 H874 0.930 . S
C882 C881 1.362 . S
C882 C885 1.409 . S
C883 H875 0.930 . S
C883 C884 1.355 . S
C883 C885 1.415 . S
C884 C883 1.355 . S
C884 C886 1.419 . S
C885 C880 1.425 . S
C885 C882 1.409 . S
C885 C883 1.415 . S
C886 H876 0.930 . S
C886 C884 1.419 . S
C886 C887 1.362 . S
C887 H877 0.930 . S
C887 C880 1.409 . S
C887 C886 1.362 . S
H888 C894 0.930 . S
H889 C897 0.930 . S
H890 C898 0.930 . S
H891 C899 0.930 . S
H892 C902 0.930 . S
H893 C903 0.930 . S
C894 H888 0.930 . S
C894 C895 1.355 . S
C894 C896 1.415 . S
C895 C894 1.355 . S
C895 C897 1.419 . S
C896 C894 1.415 . S
C896 C901 1.425 . S
C896 C903 1.409 . S
C897 H889 0.930 . S
C897 C895 1.419 . S
C897 C898 1.362 . S
C898 H890 0.930 . S
C898 C897 1.362 . S
C898 C901 1.409 . S
C899 H891 0.930 . S
C899 C900 1.355 . S
C899 C901 1.415 . S
C900 C899 1.355 . S
C900 C902 1.419 . S
C901 C896 1.425 . S
C901 C898 1.409 . S
C901 C899 1.415 . S
C902 H892 0.930 . S
C902 C900 1.419 . S
C902 C903 1.362 . S
C903 H893 0.930 . S
C903 C896 1.409 . S
C903 C902 1.362 . S
H904 C910 0.930 . S
H905 C913 0.930 . S
H906 C914 0.930 . S
H907 C915 0.930 . S
H908 C918 0.930 . S
H909 C919 0.930 . S
C910 H904 0.930 . S
C910 C911 1.355 . S
C910 C912 1.415 . S
C911 C910 1.355 . S
C911 C913 1.419 . S
C912 C910 1.415 . S
C912 C917 1.425 . S
C912 C919 1.409 . S
C913 H905 0.930 . S
C913 C911 1.419 . S
C913 C914 1.362 . S
C914 H906 0.930 . S
C914 C913 1.362 . S
C914 C917 1.409 . S
C915 H907 0.930 . S
C915 C916 1.355 . S
C915 C917 1.415 . S
C916 C915 1.355 . S
C916 C918 1.419 . S
C917 C912 1.425 . S
C917 C914 1.409 . S
C917 C915 1.415 . S
C918 H908 0.930 . S
C918 C916 1.419 . S
C918 C919 1.362 . S
C919 H909 0.930 . S
C919 C912 1.409 . S
C919 C918 1.362 . S
H920 C926 0.930 . S
H921 C929 0.930 . S
H922 C930 0.930 . S
H923 C931 0.930 . S
H924 C934 0.930 . S
H925 C935 0.930 . S
C926 H920 0.930 . S
C926 C927 1.355 . S
C926 C928 1.415 . S
C927 C926 1.355 . S
C927 C929 1.419 . S
C928 C926 1.415 . S
C928 C933 1.425 . S
C928 C935 1.409 . S
C929 H921 0.930 . S
C929 C927 1.419 . S
C929 C930 1.362 . S
C930 H922 0.930 . S
C930 C929 1.362 . S
C930 C933 1.409 . S
C931 H923 0.930 . S
C931 C932 1.355 . S
C931 C933 1.415 . S
C932 C931 1.355 . S
C932 C934 1.419 . S
C933 C928 1.425 . S
C933 C930 1.409 . S
C933 C931 1.415 . S
C934 H924 0.930 . S
C934 C932 1.419 . S
C934 C935 1.362 . S
C935 H925 0.930 . S
C935 C928 1.409 . S
C935 C934 1.362 . S
H936 C942 0.930 . S
H937 C945 0.930 . S
H938 C946 0.930 . S
H939 C947 0.930 . S
H940 C950 0.930 . S
H941 C951 0.930 . S
C942 H936 0.930 . S
C942 C943 1.355 . S
C942 C944 1.415 . S
C943 C942 1.355 . S
C943 C945 1.419 . S
C944 C942 1.415 . S
C944 C949 1.425 . S
C944 C951 1.409 . S
C945 H937 0.930 . S
C945 C943 1.419 . S
C945 C946 1.362 . S
C946 H938 0.930 . S
C946 C945 1.362 . S
C946 C949 1.409 . S
C947 H939 0.930 . S
C947 C948 1.355 . S
C947 C949 1.415 . S
C948 C947 1.355 . S
C948 C950 1.419 . S
C949 C944 1.425 . S
C949 C946 1.409 . S
C949 C947 1.415 . S
C950 H940 0.930 . S
C950 C948 1.419 . S
C950 C951 1.362 . S
C951 H941 0.930 . S
C951 C944 1.409 . S
C951 C950 1.362 . S
H952 C958 0.930 . S
H953 C961 0.930 . S
H954 C962 0.930 . S
H955 C963 0.930 . S
H956 C966 0.930 . S
H957 C967 0.930 . S
C958 H952 0.930 . S
C958 C959 1.355 . S
C958 C960 1.415 . S
C959 C958 1.355 . S
C959 C961 1.419 . S
C960 C958 1.415 . S
C960 C965 1.425 . S
C960 C967 1.409 . S
C961 H953 0.930 . S
C961 C959 1.419 . S
C961 C962 1.362 . S
C962 H954 0.930 . S
C962 C961 1.362 . S
C962 C965 1.409 . S
C963 H955 0.930 . S
C963 C964 1.355 . S
C963 C965 1.415 . S
C964 C963 1.355 . S
C964 C966 1.419 . S
C965 C960 1.425 . S
C965 C962 1.409 . S
C965 C963 1.415 . S
C966 H956 0.930 . S
C966 C964 1.419 . S
C966 C967 1.362 . S
C967 H957 0.930 . S
C967 C960 1.409 . S
C967 C966 1.362 . S
H968 C974 0.930 . S
H969 C977 0.930 . S
H970 C978 0.930 . S
H971 C979 0.930 . S
H972 C982 0.930 . S
H973 C983 0.930 . S
C974 H968 0.930 . S
C974 C975 1.355 . S
C974 C976 1.415 . S
C975 C974 1.355 . S
C975 C977 1.419 . S
C976 C974 1.415 . S
C976 C981 1.425 . S
C976 C983 1.409 . S
C977 H969 0.930 . S
C977 C975 1.419 . S
C977 C978 1.362 . S
C978 H970 0.930 . S
C978 C977 1.362 . S
C978 C981 1.409 . S
C979 H971 0.930 . S
C979 C980 1.355 . S
C979 C981 1.415 . S
C980 C979 1.355 . S
C980 C982 1.419 . S
C981 C976 1.425 . S
C981 C978 1.409 . S
C981 C979 1.415 . S
C982 H972 0.930 . S
C982 C980 1.419 . S
C982 C983 1.362 . S
C983 H973 0.930 . S
C983 C976 1.409 . S
C983 C982 1.362 . S
H984 C990 0.930 . S
H985 C993 0.930 . S
H986 C994 0.930 . S
H987 C995 0.930 . S
H988 C998 0.930 . S
H989 C999 0.930 . S
C990 H984 0.930 . S
C990 C991 1.355 . S
C990 C992 1.415 . S
C991 C990 1.355 . S
C991 C993 1.419 . S
C992 C990 1.415 . S
C992 C997 1.425 . S
C992 C999 1.409 . S
C993 H985 0.930 . S
C993 C991 1.419 . S
C993 C994 1.362 . S
C994 H986 0.930 . S
C994 C993 1.362 . S
C994 C997 1.409 . S
C995 H987 0.930 . S
C995 C996 1.355 . S
C995 C997 1.415 . S
C996 C995 1.355 . S
C996 C998 1.419 . S
C997 C992 1.425 . S
C997 C994 1.409 . S
C997 C995 1.415 . S
C998 H988 0.930 . S
C998 C996 1.419 . S
C998 C999 1.362 . S
C999 H989 0.930 . S
C999 C992 1.409 . S
C999 C998 1.362 . S
C500 C400 1.377 . S
C495 C36 1.337 . S
C516 C414 1.388 . S
C511 C93 1.388 . S
C532 C427 1.374 . S
C527 C126 1.364 . S
C543 C165 1.358 . S
C548 C394 1.374 . S
C559 C222 1.354 . S
C564 C387 1.406 . S
C575 C261 1.337 . S
C580 C407 1.399 . S
C596 C415 1.368 . S
C591 C318 1.392 . S
C612 C428 1.394 . S
C607 C381 1.365 . S
C623 C132 1.336 . S
C628 C454 1.384 . S
C644 C472 1.384 . S
C639 C189 1.392 . S
C655 C30 1.364 . S
C660 C479 1.391 . S
C676 C446 1.388 . S
C671 C69 1.334 . S
C687 C324 1.357 . S
C692 C439 1.404 . S
C703 C357 1.390 . S
C708 C453 1.387 . S
C724 C465 1.397 . S
C719 C228 1.369 . S
C735 C285 1.401 . S
C740 C480 1.391 . S
C756 C413 1.767 . S
C751 C45 1.807 . S
C772 C426 1.768 . S
C767 C84 1.803 . S
C783 C117 1.790 . S
C788 C389 1.763 . S
C799 C174 1.729 . S
C804 C401 1.779 . S
C815 C213 1.760 . S
C820 C433 1.751 . S
C836 C388 1.751 . S
C831 C270 1.765 . S
C852 C402 1.783 . S
C847 C309 1.804 . S
C868 C420 1.777 . S
C863 C372 1.807 . S
C884 C467 1.794 . S
C879 C141 1.799 . S
C900 C478 1.777 . S
C895 C180 1.814 . S
C911 C21 1.765 . S
C916 C441 1.780 . S
C932 C459 1.777 . S
C927 C78 1.780 . S
C948 C485 1.754 . S
C943 C333 1.770 . S
C959 C366 1.739 . S
C964 C440 1.747 . S
C980 C452 1.793 . S
C975 C237 1.768 . S
C996 C466 1.794 . S
C991 C276 1.786 . S
