# Generated by pormake.
# Topology nom, (4,4)-cn, num edge types: 1
# Building blocks:
#     Node 0, Type 0, BuildingBlock: MIFKUJ_clean_linker_1, # of connection points: 4
#     Node 1, Type 0, BuildingBlock: MIFKUJ_clean_linker_1, # of connection points: 4
#     Node 2, Type 0, BuildingBlock: MIFKUJ_clean_linker_1, # of connection points: 4
#     Node 3, Type 0, BuildingBlock: MIFKUJ_clean_linker_1, # of connection points: 4
#     Node 4, Type 0, BuildingBlock: MIFKUJ_clean_linker_1, # of connection points: 4
#     Node 5, Type 0, BuildingBlock: MIFKUJ_clean_linker_1, # of connection points: 4
#     Node 6, Type 1, BuildingBlock: NAHDIM_clean_sbu_0, # of connection points: 4
#     Node 7, Type 1, BuildingBlock: NAHDIM_clean_sbu_0, # of connection points: 4
#     Node 8, Type 1, BuildingBlock: NAHDIM_clean_sbu_0, # of connection points: 4
#     Node 9, Type 1, BuildingBlock: NAHDIM_clean_sbu_0, # of connection points: 4
#     Node 10, Type 1, BuildingBlock: NAHDIM_clean_sbu_0, # of connection points: 4
#     Node 11, Type 1, BuildingBlock: NAHDIM_clean_sbu_0, # of connection points: 4
#     Edge 12, Type (0, 1), BuildingBlock: UVAHIK_clean_linker_0, # of connection points: 2
#     Edge 13, Type (0, 1), BuildingBlock: UVAHIK_clean_linker_0, # of connection points: 2
#     Edge 14, Type (0, 1), BuildingBlock: UVAHIK_clean_linker_0, # of connection points: 2
#     Edge 15, Type (0, 1), BuildingBlock: UVAHIK_clean_linker_0, # of connection points: 2
#     Edge 16, Type (0, 1), BuildingBlock: UVAHIK_clean_linker_0, # of connection points: 2
#     Edge 17, Type (0, 1), BuildingBlock: UVAHIK_clean_linker_0, # of connection points: 2
#     Edge 18, Type (0, 1), BuildingBlock: UVAHIK_clean_linker_0, # of connection points: 2
#     Edge 19, Type (0, 1), BuildingBlock: UVAHIK_clean_linker_0, # of connection points: 2
#     Edge 20, Type (0, 1), BuildingBlock: UVAHIK_clean_linker_0, # of connection points: 2
#     Edge 21, Type (0, 1), BuildingBlock: UVAHIK_clean_linker_0, # of connection points: 2
#     Edge 22, Type (0, 1), BuildingBlock: UVAHIK_clean_linker_0, # of connection points: 2
#     Edge 23, Type (0, 1), BuildingBlock: UVAHIK_clean_linker_0, # of connection points: 2
#     Edge 24, Type (0, 1), BuildingBlock: UVAHIK_clean_linker_0, # of connection points: 2
#     Edge 25, Type (0, 1), BuildingBlock: UVAHIK_clean_linker_0, # of connection points: 2
#     Edge 26, Type (0, 1), BuildingBlock: UVAHIK_clean_linker_0, # of connection points: 2
#     Edge 27, Type (0, 1), BuildingBlock: UVAHIK_clean_linker_0, # of connection points: 2
#     Edge 28, Type (0, 1), BuildingBlock: UVAHIK_clean_linker_0, # of connection points: 2
#     Edge 29, Type (0, 1), BuildingBlock: UVAHIK_clean_linker_0, # of connection points: 2
#     Edge 30, Type (0, 1), BuildingBlock: UVAHIK_clean_linker_0, # of connection points: 2
#     Edge 31, Type (0, 1), BuildingBlock: UVAHIK_clean_linker_0, # of connection points: 2
#     Edge 32, Type (0, 1), BuildingBlock: UVAHIK_clean_linker_0, # of connection points: 2
#     Edge 33, Type (0, 1), BuildingBlock: UVAHIK_clean_linker_0, # of connection points: 2
#     Edge 34, Type (0, 1), BuildingBlock: UVAHIK_clean_linker_0, # of connection points: 2
#     Edge 35, Type (0, 1), BuildingBlock: UVAHIK_clean_linker_0, # of connection points: 2
# Relax obj value: 0.020
# Max RMSD: 0.118
# Mean RMSD: 0.104
data_MOF--net-nom--node1-NAHDIM_clean_sbu_0--node2-MIFKUJ_clean_linker_1--edge1-UVAHIK_clean_linker_0
_symmetry_space_group_name_H-M    P1
_symmetry_Int_Tables_number       1
_symmetry_cell_setting            triclinic
loop_
_symmetry_equiv_pos_as_xyz
'x, y, z'
_cell_length_a     65.318164
_cell_length_b     67.179904
_cell_length_c     70.255481
_cell_angle_alpha  90.029646
_cell_angle_beta   90.523367
_cell_angle_gamma 120.94699
loop_
_atom_site_label
_atom_site_type_symbol
_atom_site_fract_x
_atom_site_fract_y
_atom_site_fract_z
_atom_type_partial_charge
H0 H 0.98085 0.4644 0.27974 0.0
H1 H 0.95243 0.44825 0.25319 0.0
H2 H 0.927 0.49461 0.26665 0.0
H3 H 0.95522 0.51033 0.29346 0.0
H4 H 0.01714 0.51149 0.28472 0.0
H5 H 0.94283 0.45402 0.31646 0.0
H6 H 0.90149 0.43843 0.32654 0.0
H7 H 0.92227 0.50366 0.35426 0.0
H8 H 0.96329 0.51921 0.34398 0.0
H9 H 0.02824 0.54734 0.3622 0.0
H10 H 0.05699 0.56059 0.38862 0.0
H11 H 0.0879 0.52261 0.36509 0.0
H12 H 0.05873 0.50895 0.33896 0.0
H13 H 0.99408 0.5059 0.35245 0.0
H14 H 0.05929 0.56606 0.32268 0.0
H15 H 0.10003 0.5921 0.31223 0.0
H16 H 0.09765 0.536 0.28016 0.0
H17 H 0.05659 0.50992 0.29065 0.0
C18 C 0.97001 0.48843 0.2886 0.0
C19 C 0.96906 0.47099 0.27699 0.0
C20 C 0.95289 0.46188 0.26177 0.0
C21 C 0.93749 0.4702 0.25774 0.0
C22 C 0.93837 0.48759 0.26952 0.0
C23 C 0.95453 0.49665 0.2848 0.0
C24 C 0.98783 0.49846 0.30425 0.0
C25 C 0.01211 0.50989 0.29957 0.0
C26 C 0.98126 0.49773 0.32349 0.0
C27 C 0.95612 0.48784 0.32935 0.0
C28 C 0.93841 0.46501 0.32454 0.0
C29 C 0.91484 0.45612 0.33032 0.0
C30 C 0.90872 0.46981 0.34125 0.0
C31 C 0.92653 0.49259 0.34609 0.0
C32 C 0.94995 0.50151 0.34019 0.0
C33 C 0.04138 0.52722 0.34858 0.0
C34 C 0.04121 0.54187 0.36274 0.0
C35 C 0.05777 0.54958 0.37774 0.0
C36 C 0.07471 0.54265 0.37891 0.0
C37 C 0.07493 0.52808 0.36465 0.0
C38 C 0.05841 0.52043 0.34963 0.0
C39 C 0.02336 0.51847 0.33297 0.0
C40 C -0.00087 0.5073 0.33762 0.0
C41 C 0.02994 0.52061 0.31363 0.0
C42 C 0.05502 0.53595 0.30767 0.0
C43 C 0.06764 0.55924 0.31363 0.0
C44 C 0.09096 0.57412 0.30765 0.0
C45 C 0.10215 0.56608 0.29546 0.0
C46 C 0.08945 0.54275 0.28943 0.0
C47 C 0.06605 0.52782 0.29546 0.0
H48 H 0.46284 0.97467 0.51698 0.0
H49 H 0.43735 0.93439 0.52672 0.0
H50 H 0.48712 0.91745 0.50245 0.0
H51 H 0.51289 0.9581 0.49297 0.0
H52 H 0.50934 0.00587 0.52738 0.0
H53 H 0.46419 0.96754 0.46971 0.0
H54 H 0.45074 0.93795 0.44472 0.0
H55 H 0.52401 0.96493 0.42842 0.0
H56 H 0.53731 0.99453 0.45345 0.0
H57 H 0.56666 0.06763 0.46451 0.0
H58 H 0.58107 0.10761 0.45429 0.0
H59 H 0.52785 0.10931 0.48912 0.0
H60 H 0.51316 0.06943 0.49884 0.0
H61 H 0.5258 0.02908 0.45964 0.0
H62 H 0.57107 0.07021 0.51492 0.0
H63 H 0.5852 0.09827 0.54125 0.0
H64 H 0.5134 0.06524 0.56296 0.0
H65 H 0.49934 0.03758 0.53647 0.0
C66 C 0.48967 0.96931 0.5042 0.0
C67 C 0.4683 0.9623 0.5138 0.0
C68 C 0.45366 0.93925 0.51921 0.0
C69 C 0.46017 0.92275 0.51523 0.0
C70 C 0.48173 0.92983 0.50577 0.0
C71 C 0.49637 0.95296 0.50026 0.0
C72 C 0.50469 0.99384 0.4984 0.0
C73 C 0.5129 0.011 0.51257 0.0
C74 C 0.51007 0.00042 0.47915 0.0
C75 C 0.50177 0.98301 0.46358 0.0
C76 C 0.47734 0.96699 0.46081 0.0
C77 C 0.4697 0.95007 0.44655 0.0
C78 C 0.48633 0.949 0.43467 0.0
C79 C 0.51075 0.96541 0.43723 0.0
C80 C 0.51839 0.98229 0.45154 0.0
C81 C 0.53915 0.06566 0.48276 0.0
C82 C 0.55814 0.07665 0.46994 0.0
C83 C 0.56633 0.09943 0.46411 0.0
C84 C 0.55572 0.11159 0.47109 0.0
C85 C 0.53667 0.10052 0.48382 0.0
C86 C 0.52833 0.07774 0.48944 0.0
C87 C 0.52977 0.04127 0.48863 0.0
C88 C 0.52269 0.02409 0.47449 0.0
C89 C 0.52555 0.03462 0.50797 0.0
C90 C 0.53414 0.05187 0.52371 0.0
C91 C 0.55837 0.06916 0.52528 0.0
C92 C 0.56644 0.08505 0.54039 0.0
C93 C 0.55039 0.08395 0.55414 0.0
C94 C 0.52614 0.06669 0.55246 0.0
C95 C 0.51811 0.05076 0.53743 0.0
H96 H 0.54187 0.56984 0.6851 0.0
H97 H 0.5303 0.58659 0.71083 0.0
H98 H 0.45595 0.53817 0.69782 0.0
H99 H 0.46762 0.52136 0.67229 0.0
H100 H 0.53106 0.52382 0.67877 0.0
H101 H 0.51111 0.57882 0.64726 0.0
H102 H 0.48168 0.59046 0.64096 0.0
H103 H 0.43235 0.52181 0.61889 0.0
H104 H 0.46151 0.51024 0.62547 0.0
H105 H 0.49677 0.48558 0.60348 0.0
H106 H 0.50789 0.47059 0.57637 0.0
H107 H 0.58211 0.51194 0.59349 0.0
H108 H 0.57069 0.5264 0.62093 0.0
H109 H 0.5071 0.52755 0.61225 0.0
H110 H 0.51378 0.46953 0.63967 0.0
H111 H 0.52793 0.44375 0.64892 0.0
H112 H 0.58527 0.49924 0.68155 0.0
H113 H 0.57126 0.5254 0.67182 0.0
C114 C 0.50562 0.54464 0.67659 0.0
C115 C 0.52309 0.56274 0.68791 0.0
C116 C 0.51646 0.57226 0.7026 0.0
C117 C 0.49222 0.56382 0.70621 0.0
C118 C 0.47476 0.54531 0.69514 0.0
C119 C 0.4814 0.53568 0.68057 0.0
C120 C 0.51278 0.53546 0.66042 0.0
C121 C 0.52639 0.52513 0.66416 0.0
C122 C 0.50521 0.53572 0.64154 0.0
C123 C 0.4884 0.54365 0.63691 0.0
C124 C 0.49396 0.56635 0.64104 0.0
C125 C 0.47721 0.57298 0.63738 0.0
C126 C 0.45467 0.55696 0.62959 0.0
C127 C 0.44942 0.53441 0.62518 0.0
C128 C 0.46614 0.52785 0.62875 0.0
C129 C 0.53289 0.50712 0.6142 0.0
C130 C 0.51544 0.49144 0.60136 0.0
C131 C 0.52186 0.48296 0.58582 0.0
C132 C 0.54594 0.49019 0.58263 0.0
C133 C 0.56339 0.50579 0.59562 0.0
C134 C 0.55691 0.51415 0.61127 0.0
C135 C 0.52594 0.51637 0.63048 0.0
C136 C 0.51241 0.52674 0.62678 0.0
C137 C 0.53221 0.51471 0.6495 0.0
C138 C 0.54179 0.4996 0.65466 0.0
C139 C 0.52978 0.47641 0.6484 0.0
C140 C 0.53783 0.46163 0.65376 0.0
C141 C 0.55784 0.46956 0.6658 0.0
C142 C 0.56979 0.4927 0.67225 0.0
C143 C 0.56184 0.50764 0.66669 0.0
H144 H 0.02411 0.53136 0.77961 0.0
H145 H 0.05449 0.54975 0.75511 0.0
H146 H 0.08369 0.50724 0.77141 0.0
H147 H 0.05308 0.48875 0.79585 0.0
H148 H 0.98923 0.48547 0.7849 0.0
H149 H 0.06188 0.54456 0.8198 0.0
H150 H 0.10412 0.56019 0.82762 0.0
H151 H 0.08671 0.4937 0.85062 0.0
H152 H 0.04464 0.47812 0.84251 0.0
H153 H 0.97721 0.45389 0.86448 0.0
H154 H 0.94788 0.44309 0.88981 0.0
H155 H 0.91943 0.48096 0.86158 0.0
H156 H 0.9489 0.49196 0.83649 0.0
H157 H 0.01247 0.4929 0.85315 0.0
H158 H 0.94468 0.43308 0.82339 0.0
H159 H 0.90321 0.40901 0.81299 0.0
H160 H 0.91003 0.46576 0.77909 0.0
H161 H 0.95172 0.48979 0.78952 0.0
C162 C 0.0365 0.50889 0.78968 0.0
C163 C 0.03695 0.52588 0.7778 0.0
C164 C 0.05429 0.53634 0.7638 0.0
C165 C 0.07152 0.52998 0.76138 0.0
C166 C 0.07085 0.51271 0.77312 0.0
C167 C 0.05337 0.50213 0.78706 0.0
C168 C 0.01851 0.49864 0.80493 0.0
C169 C 0.99427 0.48737 0.79984 0.0
C170 C 0.02506 0.49992 0.82434 0.0
C171 C 0.05024 0.51016 0.83046 0.0
C172 C 0.0672 0.53344 0.82663 0.0
C173 C 0.09126 0.54234 0.83117 0.0
C174 C 0.09869 0.52809 0.83961 0.0
C175 C 0.08153 0.50497 0.84389 0.0
C176 C 0.0575 0.49613 0.83943 0.0
C177 C 0.96511 0.47352 0.84846 0.0
C178 C 0.9647 0.45992 0.86378 0.0
C179 C 0.94796 0.45377 0.87824 0.0
C180 C 0.93131 0.4611 0.87761 0.0
C181 C 0.93178 0.47474 0.86228 0.0
C182 C 0.94861 0.48102 0.84793 0.0
C183 C 0.98307 0.48042 0.83318 0.0
C184 C 0.0073 0.49102 0.83824 0.0
C185 C 0.97646 0.47766 0.81369 0.0
C186 C 0.9512 0.46332 0.80741 0.0
C187 C 0.93719 0.44043 0.81387 0.0
C188 C 0.91346 0.4267 0.80793 0.0
C189 C 0.90329 0.43552 0.7953 0.0
C190 C 0.91742 0.4584 0.7887 0.0
C191 C 0.9412 0.47216 0.79468 0.0
H192 H 0.53773 0.05252 0.02428 0.0
H193 H 0.56267 0.0924 0.03562 0.0
H194 H 0.51594 0.11103 0.00732 0.0
H195 H 0.49055 0.07079 0.99634 0.0
H196 H 0.49301 0.02034 0.03027 0.0
H197 H 0.53869 0.06385 0.9746 0.0
H198 H 0.5513 0.09414 0.9505 0.0
H199 H 0.4777 0.06551 0.93311 0.0
H200 H 0.46528 0.03525 0.95714 0.0
H201 H 0.43659 0.96102 0.96587 0.0
H202 H 0.4248 0.92271 0.95259 0.0
H203 H 0.483 0.92386 0.98331 0.0
H204 H 0.49479 0.96204 0.99631 0.0
H205 H 0.47861 0.00193 0.9613 0.0
H206 H 0.43294 0.95621 0.01319 0.0
H207 H 0.41809 0.92668 0.03807 0.0
H208 H 0.48874 0.95964 0.06329 0.0
H209 H 0.5036 0.98877 0.03814 0.0
C210 C 0.51239 0.05869 0.0093 0.0
C211 C 0.53264 0.06509 0.0207 0.0
C212 C 0.54687 0.08787 0.02718 0.0
C213 C 0.54123 0.10478 0.02233 0.0
C214 C 0.52079 0.09835 0.01111 0.0
C215 C 0.50634 0.07542 0.00481 0.0
C216 C 0.49807 0.0345 0.00205 0.0
C217 C 0.49002 0.01633 0.01517 0.0
C218 C 0.49317 0.02919 0.98242 0.0
C219 C 0.50103 0.04746 0.96776 0.0
C220 C 0.52529 0.06421 0.96565 0.0
C221 C 0.53245 0.08154 0.95192 0.0
C222 C 0.51548 0.08227 0.93993 0.0
C223 C 0.49122 0.06529 0.94198 0.0
C224 C 0.48409 0.04802 0.95573 0.0
C225 C 0.46641 0.96424 0.9822 0.0
C226 C 0.44669 0.95291 0.96979 0.0
C227 C 0.43993 0.93104 0.9623 0.0
C228 C 0.45306 0.92039 0.96688 0.0
C229 C 0.47271 0.93176 0.97938 0.0
C230 C 0.47931 0.95346 0.98696 0.0
C231 C 0.47455 0.98788 0.9895 0.0
C232 C 0.48134 0.00592 0.97641 0.0
C233 C 0.47817 0.99309 0.00917 0.0
C234 C 0.4694 0.97464 0.02377 0.0
C235 C 0.44529 0.95688 0.02394 0.0
C236 C 0.43678 0.94016 0.03825 0.0
C237 C 0.45224 0.94087 0.05265 0.0
C238 C 0.47644 0.95848 0.05228 0.0
C239 C 0.48492 0.97524 0.03801 0.0
H240 H 0.46364 0.45631 0.18659 0.0
H241 H 0.47817 0.44336 0.2133 0.0
H242 H 0.55081 0.49003 0.19571 0.0
H243 H 0.53619 0.50335 0.16942 0.0
H244 H 0.47449 0.50225 0.17942 0.0
H245 H 0.4879 0.44374 0.14706 0.0
H246 H 0.51438 0.4294 0.13821 0.0
H247 H 0.56334 0.49592 0.11332 0.0
H248 H 0.53711 0.51015 0.12233 0.0
H249 H 0.50145 0.53608 0.1025 0.0
H250 H 0.48824 0.55093 0.07634 0.0
H251 H 0.41643 0.51401 0.09816 0.0
H252 H 0.42967 0.49882 0.12412 0.0
H253 H 0.49064 0.49431 0.11183 0.0
H254 H 0.48956 0.5552 0.14041 0.0
H255 H 0.47701 0.58202 0.15021 0.0
H256 H 0.42102 0.52814 0.184 0.0
H257 H 0.43354 0.50104 0.17386 0.0
C258 C 0.49882 0.48058 0.17593 0.0
C259 C 0.48269 0.46369 0.18851 0.0
C260 C 0.491 0.4562 0.20367 0.0
C261 C 0.51564 0.46563 0.20659 0.0
C262 C 0.53175 0.48258 0.19394 0.0
C263 C 0.52341 0.49004 0.17881 0.0
C264 C 0.48995 0.48879 0.16013 0.0
C265 C 0.47742 0.49998 0.1646 0.0
C266 C 0.49529 0.48728 0.14092 0.0
C267 C 0.51062 0.47801 0.13539 0.0
C268 C 0.50437 0.45518 0.13973 0.0
C269 C 0.51942 0.447 0.1346 0.0
C270 C 0.54097 0.46161 0.12519 0.0
C271 C 0.54703 0.48439 0.1208 0.0
C272 C 0.53196 0.49246 0.12578 0.0
C273 C 0.46656 0.51637 0.11527 0.0
C274 C 0.48284 0.5311 0.1016 0.0
C275 C 0.47532 0.53975 0.08678 0.0
C276 C 0.45132 0.53368 0.08525 0.0
C277 C 0.435 0.51884 0.0989 0.0
C278 C 0.44257 0.51028 0.11379 0.0
C279 C 0.47468 0.50734 0.13104 0.0
C280 C 0.48707 0.49605 0.1266 0.0
C281 C 0.47057 0.5101 0.15034 0.0
C282 C 0.46216 0.52594 0.15606 0.0
C283 C 0.47426 0.54895 0.14961 0.0
C284 C 0.4671 0.5643 0.15525 0.0
C285 C 0.44788 0.55711 0.16772 0.0
C286 C 0.43592 0.53415 0.1744 0.0
C287 C 0.44301 0.51867 0.1686 0.0
C288 C 0.60798 0.33924 0.41708 0.0
O289 O 0.61729 0.35569 0.4301 0.0
O290 O 0.65372 0.39164 0.38742 0.0
Zn291 Zn 0.61924 0.37818 0.39388 0.0
O292 O 0.61565 0.39471 0.41645 0.0
C293 C 0.6113 0.40286 0.3655 0.0
O294 O 0.62973 0.41967 0.37468 0.0
O295 O 0.60605 0.34452 0.40005 0.0
C296 C 0.59662 0.39531 0.4181 0.0
O297 O 0.57988 0.38538 0.40494 0.0
C298 C 0.67047 0.39971 0.39974 0.0
O299 O 0.66548 0.40018 0.41775 0.0
O300 O 0.60281 0.3821 0.37109 0.0
C301 C 0.30126 0.68947 0.57835 0.0
O302 O 0.30914 0.67752 0.58732 0.0
O303 O 0.27973 0.63076 0.57652 0.0
Zn304 Zn 0.25872 0.64442 0.57405 0.0
O305 O 0.23862 0.63297 0.55023 0.0
C306 C 0.24535 0.63813 0.61363 0.0
O307 O 0.26832 0.64676 0.61642 0.0
O308 O 0.27991 0.67906 0.57202 0.0
C309 C 0.22816 0.61201 0.54454 0.0
O310 O 0.23047 0.59672 0.55447 0.0
C311 C 0.27405 0.61218 0.58541 0.0
O312 O 0.25267 0.6 0.59277 0.0
O313 O 0.23734 0.63594 0.59673 0.0
C314 C 0.59516 0.28552 0.72422 0.0
O315 O 0.59872 0.27403 0.71081 0.0
O316 O 0.64213 0.27581 0.75317 0.0
Zn317 Zn 0.60688 0.25796 0.7478 0.0
O318 O 0.59972 0.23643 0.72554 0.0
C319 C 0.59742 0.2471 0.7875 0.0
O320 O 0.61575 0.26832 0.78951 0.0
O321 O 0.59695 0.28114 0.74156 0.0
C322 C 0.61186 0.22699 0.72198 0.0
O323 O 0.6295 0.2308 0.73349 0.0
C324 C 0.65691 0.28797 0.74037 0.0
O325 O 0.64895 0.28836 0.72322 0.0
O326 O 0.58995 0.23912 0.77084 0.0
C327 C 0.39216 0.69187 0.90601 0.0
O328 O 0.3716 0.67443 0.91169 0.0
O329 O 0.36014 0.63734 0.88626 0.0
Zn330 Zn 0.3953 0.65391 0.8926 0.0
O331 O 0.40105 0.64097 0.91659 0.0
C332 C 0.40908 0.65259 0.85386 0.0
O333 O 0.39337 0.65871 0.84994 0.0
O334 O 0.40635 0.68759 0.89712 0.0
C335 C 0.38843 0.61964 0.92093 0.0
O336 O 0.37091 0.60543 0.90951 0.0
C337 C 0.34872 0.61907 0.87616 0.0
O338 O 0.36001 0.60928 0.8691 0.0
O339 O 0.41319 0.65007 0.87114 0.0
C340 C 0.70389 0.3911 0.06382 0.0
O341 O 0.69639 0.37197 0.05388 0.0
O342 O 0.72607 0.35439 0.06205 0.0
Zn343 Zn 0.74646 0.38854 0.06743 0.0
O344 O 0.76532 0.39413 0.09163 0.0
C345 C 0.76201 0.40053 0.0286 0.0
O346 O 0.73899 0.38833 0.02489 0.0
O347 O 0.72508 0.4017 0.07051 0.0
C348 C 0.78426 0.3932 0.09177 0.0
O349 O 0.7911 0.38801 0.07594 0.0
C350 C 0.71595 0.33954 0.07515 0.0
O351 O 0.71983 0.34645 0.093 0.0
O352 O 0.7692 0.40348 0.0458 0.0
C353 C 0.4049 0.73862 0.22232 0.0
O354 O 0.40068 0.74912 0.20842 0.0
O355 O 0.35552 0.74575 0.24961 0.0
Zn356 Zn 0.39067 0.76513 0.24455 0.0
O357 O 0.3967 0.78546 0.22177 0.0
C358 C 0.39992 0.77871 0.28408 0.0
O359 O 0.38173 0.75759 0.2866 0.0
O360 O 0.4025 0.74318 0.23944 0.0
C361 C 0.38359 0.79353 0.21697 0.0
O362 O 0.36509 0.78887 0.22743 0.0
C363 C 0.34109 0.73187 0.23707 0.0
O364 O 0.34923 0.73094 0.22027 0.0
O365 O 0.40727 0.78552 0.26729 0.0
C366 C 0.14409 0.59867 0.30143 0.0
C367 C 0.12679 0.58226 0.28883 0.0
C368 C 0.16686 0.61484 0.29501 0.0
C369 C 0.20963 0.62652 0.25675 0.0
H370 H 0.23765 0.69036 0.2737 0.0
C371 C 0.29973 0.70007 0.22821 0.0
C372 C 0.31572 0.71594 0.2418 0.0
C373 C 0.27609 0.68417 0.23304 0.0
C374 C 0.23017 0.67258 0.26897 0.0
H375 H 0.11995 0.56981 0.25962 0.0
H376 H 0.15989 0.59799 0.24844 0.0
H377 H 0.19774 0.6613 0.28406 0.0
H378 H 0.31934 0.72783 0.27104 0.0
H379 H 0.27828 0.7 0.2795 0.0
H380 H 0.2422 0.63774 0.24185 0.0
C381 C 0.15581 0.59821 0.26332 0.0
C382 C 0.20731 0.65593 0.27491 0.0
C383 C 0.13297 0.58204 0.26974 0.0
C384 C 0.30747 0.71588 0.26021 0.0
C385 C 0.28387 0.69999 0.26504 0.0
C386 C 0.23255 0.64317 0.25085 0.0
C387 C 0.1729 0.61495 0.27585 0.0
C388 C 0.19688 0.63268 0.269 0.0
C389 C 0.26795 0.68383 0.25156 0.0
C390 C 0.24315 0.66636 0.25703 0.0
H391 H 0.14004 0.59901 0.3163 0.0
H392 H 0.17981 0.62722 0.30509 0.0
H393 H 0.20214 0.6087 0.25211 0.0
H394 H 0.30551 0.69973 0.21387 0.0
H395 H 0.26418 0.67216 0.22226 0.0
C396 C 0.56745 0.1526 0.47829 0.0
C397 C 0.56395 0.13559 0.46488 0.0
C398 C 0.57362 0.17483 0.47242 0.0
C399 C 0.56826 0.20576 0.43176 0.0
H400 H 0.61635 0.26068 0.45872 0.0
C401 C 0.59665 0.29881 0.40763 0.0
C402 C 0.60168 0.31536 0.42196 0.0
C403 C 0.5924 0.27677 0.41229 0.0
C404 C 0.60265 0.24551 0.45118 0.0
H405 H 0.56448 0.12852 0.43485 0.0
H406 H 0.57525 0.16751 0.42452 0.0
H407 H 0.60924 0.22265 0.46783 0.0
H408 H 0.60542 0.32153 0.45245 0.0
H409 H 0.59742 0.283 0.4606 0.0
H410 H 0.56124 0.22849 0.41538 0.0
C411 C 0.57316 0.16357 0.43958 0.0
C412 C 0.59868 0.22375 0.45636 0.0
C413 C 0.56722 0.14137 0.44548 0.0
C414 C 0.60178 0.30923 0.44106 0.0
C415 C 0.59738 0.28719 0.44572 0.0
C416 C 0.5721 0.22752 0.42666 0.0
C417 C 0.57622 0.18045 0.45299 0.0
C418 C 0.58134 0.20364 0.44679 0.0
C419 C 0.59296 0.27078 0.43139 0.0
C420 C 0.58922 0.24765 0.43642 0.0
H421 H 0.56521 0.14864 0.49335 0.0
H422 H 0.57569 0.18743 0.48306 0.0
H423 H 0.55456 0.19051 0.42429 0.0
H424 H 0.59655 0.30304 0.39276 0.0
H425 H 0.58928 0.26466 0.40088 0.0
C426 C 0.41261 0.54826 0.63103 0.0
C427 C 0.43651 0.5635 0.62605 0.0
C428 C 0.39514 0.55369 0.62681 0.0
C429 C 0.38651 0.60232 0.61413 0.0
H430 H 0.32527 0.55298 0.59501 0.0
C431 C 0.31576 0.62015 0.58275 0.0
C432 C 0.29214 0.60556 0.58876 0.0
C433 C 0.33329 0.61479 0.58699 0.0
C434 C 0.34221 0.56688 0.60049 0.0
H435 H 0.46094 0.59651 0.613 0.0
H436 H 0.43034 0.60597 0.60544 0.0
H437 H 0.35629 0.5445 0.6034 0.0
H438 H 0.26829 0.57363 0.60358 0.0
H439 H 0.29897 0.56427 0.61096 0.0
H440 H 0.37242 0.62473 0.61106 0.0
C441 C 0.42516 0.58994 0.61283 0.0
C442 C 0.35997 0.56204 0.60534 0.0
C443 C 0.44268 0.58454 0.61714 0.0
C444 C 0.28631 0.58521 0.59874 0.0
C445 C 0.30386 0.5798 0.6029 0.0
C446 C 0.36878 0.60718 0.60921 0.0
C447 C 0.40114 0.57445 0.61745 0.0
C448 C 0.38231 0.57969 0.61226 0.0
C449 C 0.32758 0.59469 0.59726 0.0
C450 C 0.34643 0.58951 0.60235 0.0
H451 H 0.40742 0.5321 0.63821 0.0
H452 H 0.37691 0.54162 0.63093 0.0
H453 H 0.40339 0.61624 0.61968 0.0
H454 H 0.32085 0.63594 0.57501 0.0
H455 H 0.35135 0.62641 0.58222 0.0
C456 C 0.86047 0.40624 0.80198 0.0
C457 C 0.87807 0.42074 0.78897 0.0
C458 C 0.83688 0.3917 0.79596 0.0
C459 C 0.79405 0.38332 0.75791 0.0
H460 H 0.75926 0.32027 0.77689 0.0
C461 C 0.69914 0.31598 0.73102 0.0
C462 C 0.68267 0.30216 0.74498 0.0
C463 C 0.72338 0.32998 0.7356 0.0
C464 C 0.76866 0.33788 0.77159 0.0
H465 H 0.8847 0.43139 0.75943 0.0
H466 H 0.84339 0.40603 0.74893 0.0
H467 H 0.80078 0.34599 0.78648 0.0
H468 H 0.67873 0.29202 0.77467 0.0
H469 H 0.72088 0.31659 0.78269 0.0
H470 H 0.76184 0.37528 0.74317 0.0
C471 C 0.84785 0.40609 0.76382 0.0
C472 C 0.79244 0.35261 0.77709 0.0
C473 C 0.87149 0.42063 0.76984 0.0
C474 C 0.69096 0.30242 0.76356 0.0
C475 C 0.71516 0.3164 0.76813 0.0
C476 C 0.77023 0.36859 0.75243 0.0
C477 C 0.83034 0.39135 0.7768 0.0
C478 C 0.80532 0.37554 0.77043 0.0
C479 C 0.73163 0.33043 0.75424 0.0
C480 C 0.75722 0.34577 0.75934 0.0
H481 H 0.86488 0.40624 0.81687 0.0
H482 H 0.8237 0.38086 0.80636 0.0
H483 H 0.80345 0.40098 0.7527 0.0
H484 H 0.69333 0.31611 0.71655 0.0
H485 H 0.73567 0.34038 0.72453 0.0
C486 C 0.46448 0.89412 0.95112 0.0
C487 C 0.44664 0.89763 0.95848 0.0
C488 C 0.45872 0.8725 0.94384 0.0
C489 C 0.4079 0.8162 0.92667 0.0
H490 H 0.45077 0.79394 0.93862 0.0
C491 C 0.38159 0.72047 0.91797 0.0
C492 C 0.3986 0.716 0.91022 0.0
C493 C 0.38763 0.74311 0.92242 0.0
C494 C 0.43878 0.80003 0.93496 0.0
H495 H 0.40878 0.88135 0.96386 0.0
H496 H 0.39868 0.84336 0.95146 0.0
H497 H 0.46076 0.83246 0.94922 0.0
H498 H 0.43525 0.73183 0.90085 0.0
H499 H 0.44585 0.77148 0.90877 0.0
H500 H 0.38566 0.78342 0.91281 0.0
C501 C 0.41709 0.85744 0.95097 0.0
C502 C 0.4445 0.82213 0.941 0.0
C503 C 0.42285 0.87917 0.95812 0.0
C504 C 0.42175 0.73471 0.90684 0.0
C505 C 0.42785 0.75738 0.91144 0.0
C506 C 0.40211 0.79402 0.92074 0.0
C507 C 0.43499 0.8538 0.94388 0.0
C508 C 0.4291 0.83047 0.937 0.0
C509 C 0.41086 0.76179 0.91934 0.0
C510 C 0.41744 0.78568 0.9249 0.0
H511 H 0.48293 0.90817 0.95092 0.0
H512 H 0.47288 0.87046 0.93813 0.0
H513 H 0.39582 0.8222 0.92306 0.0
H514 H 0.36357 0.70645 0.92072 0.0
H515 H 0.37423 0.74595 0.92868 0.0
C516 C 0.5819 0.46747 0.12284 0.0
C517 C 0.55718 0.4533 0.11975 0.0
C518 C 0.59744 0.46041 0.11669 0.0
C519 C 0.5999 0.40902 0.10121 0.0
H520 H 0.65951 0.45544 0.07853 0.0
C521 C 0.66289 0.3854 0.06368 0.0
C522 C 0.68724 0.39908 0.06853 0.0
C523 C 0.64681 0.39208 0.06929 0.0
C524 C 0.64301 0.44233 0.08496 0.0
H525 H 0.52929 0.42049 0.10806 0.0
H526 H 0.55649 0.40818 0.09708 0.0
H527 H 0.63164 0.46653 0.09001 0.0
H528 H 0.7139 0.4308 0.08266 0.0
H529 H 0.68581 0.44247 0.09239 0.0
H530 H 0.61129 0.3848 0.096 0.0
C531 C 0.56384 0.42463 0.1045 0.0
C532 C 0.62706 0.44868 0.09159 0.0
C533 C 0.54825 0.43166 0.11077 0.0
C534 C 0.69526 0.41988 0.0787 0.0
C535 C 0.6792 0.42662 0.0842 0.0
C536 C 0.61581 0.40265 0.09448 0.0
C537 C 0.58865 0.43906 0.1072 0.0
C538 C 0.60538 0.43213 0.0999 0.0
C539 C 0.65477 0.41265 0.07975 0.0
C540 C 0.63758 0.41927 0.08638 0.0
H541 H 0.58923 0.48408 0.13002 0.0
H542 H 0.61639 0.47171 0.11939 0.0
H543 H 0.58351 0.39591 0.10776 0.0
H544 H 0.65613 0.36929 0.05584 0.0
H545 H 0.62813 0.38112 0.06546 0.0
C546 C 0.45404 0.88622 0.53024 0.0
C547 C 0.44448 0.89834 0.52119 0.0
C548 C 0.43898 0.86373 0.53696 0.0
C549 C 0.37649 0.82414 0.55128 0.0
H550 H 0.3928 0.77647 0.54622 0.0
C551 C 0.3093 0.72715 0.56454 0.0
C552 C 0.31767 0.71427 0.57406 0.0
C553 C 0.32512 0.75005 0.55919 0.0
C554 C 0.38816 0.78969 0.54795 0.0
H555 H 0.41181 0.8961 0.51131 0.0
H556 H 0.38557 0.85681 0.52282 0.0
H557 H 0.41987 0.81531 0.53404 0.0
H558 H 0.34916 0.71556 0.58588 0.0
H559 H 0.37675 0.75561 0.57658 0.0
H560 H 0.34464 0.79844 0.56498 0.0
C561 C 0.40463 0.86485 0.52518 0.0
C562 C 0.40365 0.81193 0.54097 0.0
C563 C 0.41965 0.88732 0.51853 0.0
C564 C 0.34213 0.72498 0.57853 0.0
C565 C 0.35797 0.74787 0.57309 0.0
C566 C 0.36098 0.8019 0.5582 0.0
C567 C 0.41408 0.8529 0.5347 0.0
C568 C 0.39792 0.82937 0.54244 0.0
C569 C 0.34966 0.76055 0.56319 0.0
C570 C 0.36658 0.78441 0.55652 0.0
H571 H 0.4731 0.89439 0.53264 0.0
H572 H 0.44681 0.85508 0.54439 0.0
H573 H 0.37177 0.83731 0.55298 0.0
H574 H 0.29056 0.71941 0.56089 0.0
H575 H 0.31822 0.75932 0.55143 0.0
C576 C 0.56615 0.43787 0.65893 0.0
C577 C 0.56535 0.45319 0.67208 0.0
C578 C 0.57054 0.42064 0.66505 0.0
C579 C 0.59309 0.40167 0.70543 0.0
H580 H 0.55295 0.34091 0.68246 0.0
C581 C 0.58997 0.31886 0.73308 0.0
C582 C 0.59062 0.30426 0.71906 0.0
C583 C 0.58685 0.33726 0.72794 0.0
C584 C 0.56443 0.35781 0.68891 0.0
H585 H 0.56932 0.46305 0.70187 0.0
H586 H 0.57687 0.4328 0.71264 0.0
H587 H 0.54883 0.37329 0.67222 0.0
H588 H 0.58823 0.29736 0.68869 0.0
H589 H 0.58282 0.32934 0.67978 0.0
H590 H 0.6086 0.38601 0.72218 0.0
C591 C 0.57433 0.43424 0.69756 0.0
C592 C 0.56213 0.37639 0.683 0.0
C593 C 0.57002 0.45158 0.6914 0.0
C594 C 0.58776 0.30823 0.69985 0.0
C595 C 0.58455 0.32652 0.69474 0.0
C596 C 0.59536 0.38302 0.71139 0.0
C597 C 0.57412 0.41827 0.68448 0.0
C598 C 0.57657 0.39859 0.69106 0.0
C599 C 0.58417 0.3413 0.7087 0.0
C600 C 0.58117 0.36094 0.70306 0.0
H601 H 0.563 0.43898 0.64391 0.0
H602 H 0.57084 0.40898 0.65456 0.0
H603 H 0.6046 0.41859 0.71182 0.0
H604 H 0.59215 0.31627 0.748 0.0
H605 H 0.5864 0.34823 0.73902 0.0
C606 C 0.13878 0.55904 0.85195 0.0
C607 C 0.12432 0.53708 0.84354 0.0
C608 C 0.16293 0.56741 0.85566 0.0
C609 C 0.213 0.56088 0.84096 0.0
H610 H 0.24078 0.59016 0.88957 0.0
C611 C 0.30943 0.58775 0.86284 0.0
C612 C 0.32292 0.60904 0.8725 0.0
C613 C 0.28502 0.5784 0.85947 0.0
C614 C 0.23337 0.58227 0.87584 0.0
H615 H 0.12384 0.50684 0.83212 0.0
H616 H 0.16601 0.52144 0.83869 0.0
H617 H 0.19855 0.57524 0.88324 0.0
H618 H 0.32142 0.63731 0.88605 0.0
H619 H 0.2791 0.62125 0.87986 0.0
H620 H 0.24784 0.56817 0.83342 0.0
C621 C 0.15868 0.53217 0.84239 0.0
C622 C 0.20918 0.57371 0.87224 0.0
C623 C 0.13451 0.52373 0.8388 0.0
C624 C 0.31152 0.6208 0.87866 0.0
C625 C 0.28719 0.61151 0.87522 0.0
C626 C 0.23723 0.56956 0.84451 0.0
C627 C 0.17312 0.55407 0.85089 0.0
C628 C 0.19876 0.56298 0.85475 0.0
C629 C 0.27362 0.59018 0.86562 0.0
C630 C 0.24773 0.58043 0.86198 0.0
H631 H 0.13136 0.56963 0.85585 0.0
H632 H 0.1737 0.58444 0.86208 0.0
H633 H 0.20549 0.55292 0.82726 0.0
H634 H 0.31766 0.57823 0.85798 0.0
H635 H 0.27502 0.56179 0.85225 0.0
C636 C 0.56574 0.13415 0.04743 0.0
C637 C 0.55711 0.12913 0.0286 0.0
C638 C 0.58204 0.15694 0.05305 0.0
C639 C 0.60769 0.21837 0.03861 0.0
H640 H 0.65976 0.22857 0.07217 0.0
C641 C 0.6909 0.30878 0.05118 0.0
C642 C 0.69849 0.3151 0.07017 0.0
C643 C 0.67341 0.28602 0.04651 0.0
C644 C 0.64519 0.22596 0.06294 0.0
H645 H 0.55855 0.14395 0.00092 0.0
H646 H 0.58735 0.18374 0.01059 0.0
H647 H 0.62917 0.18909 0.06328 0.0
H648 H 0.69403 0.30236 0.0991 0.0
H649 H 0.66356 0.26243 0.09087 0.0
H650 H 0.6241 0.25535 0.03799 0.0
C651 C 0.58119 0.17018 0.02116 0.0
C652 C 0.62761 0.20335 0.05788 0.0
C653 C 0.56472 0.14739 0.01558 0.0
C654 C 0.68855 0.29804 0.08434 0.0
C655 C 0.67118 0.27518 0.07964 0.0
C656 C 0.62538 0.24099 0.04355 0.0
C657 C 0.59025 0.1752 0.03992 0.0
C658 C 0.60865 0.19927 0.04562 0.0
C659 C 0.66327 0.26902 0.0607 0.0
C660 C 0.64434 0.245 0.05572 0.0
H661 H 0.55992 0.12041 0.05782 0.0
H662 H 0.58824 0.16023 0.06771 0.0
H663 H 0.59314 0.21588 0.02941 0.0
H664 H 0.69819 0.32151 0.03991 0.0
H665 H 0.66786 0.28168 0.03177 0.0
C666 C 0.43679 0.57587 0.19331 0.0
C667 C 0.44101 0.57393 0.17401 0.0
C668 C 0.43257 0.59327 0.19938 0.0
C669 C 0.44371 0.65068 0.18475 0.0
H670 H 0.39648 0.64038 0.22264 0.0
C671 C 0.41441 0.71655 0.19898 0.0
C672 C 0.41082 0.72063 0.21793 0.0
C673 C 0.4188 0.69885 0.19453 0.0
C674 C 0.40995 0.64358 0.21223 0.0
H675 H 0.44278 0.58777 0.14581 0.0
H676 H 0.43521 0.61793 0.15633 0.0
H677 H 0.40167 0.6083 0.21294 0.0
H678 H 0.40931 0.70949 0.24713 0.0
H679 H 0.41712 0.67854 0.23931 0.0
H680 H 0.45189 0.68584 0.18389 0.0
C681 C 0.43576 0.60644 0.16687 0.0
C682 C 0.4129 0.62521 0.20666 0.0
C683 C 0.44003 0.58913 0.16082 0.0
C684 C 0.41202 0.70679 0.23239 0.0
C685 C 0.41633 0.68897 0.22791 0.0
C686 C 0.44075 0.66898 0.19028 0.0
C687 C 0.43245 0.60901 0.18625 0.0
C688 C 0.42963 0.62852 0.1927 0.0
C689 C 0.41967 0.68478 0.20892 0.0
C690 C 0.42368 0.66559 0.20393 0.0
H691 H 0.43764 0.56451 0.20381 0.0
H692 H 0.43022 0.59489 0.21443 0.0
H693 H 0.45714 0.65394 0.17428 0.0
H694 H 0.41356 0.72685 0.18749 0.0
H695 H 0.42101 0.69588 0.17974 0.0
C696 C 0.87937 0.4645 0.36632 0.0
C697 C 0.88388 0.4606 0.34758 0.0
C698 C 0.85613 0.45702 0.37208 0.0
C699 C 0.79781 0.4431 0.35311 0.0
H700 H 0.77446 0.41415 0.40217 0.0
C701 C 0.69977 0.40448 0.37485 0.0
C702 C 0.69511 0.40737 0.39383 0.0
C703 C 0.7228 0.41087 0.36929 0.0
C704 C 0.78082 0.42249 0.38853 0.0
H705 H 0.86761 0.44553 0.32025 0.0
H706 H 0.82685 0.43232 0.33035 0.0
H707 H 0.81448 0.42466 0.39228 0.0
H708 H 0.71107 0.41958 0.4218 0.0
H709 H 0.75144 0.43117 0.41201 0.0
H710 H 0.76436 0.44127 0.34942 0.0
C711 C 0.84136 0.4413 0.34053 0.0
C712 C 0.8037 0.42842 0.38285 0.0
C713 C 0.86462 0.44865 0.3348 0.0
C714 C 0.71406 0.41705 0.40709 0.0
C715 C 0.73716 0.42355 0.4015 0.0
C716 C 0.77499 0.43729 0.35883 0.0
C717 C 0.83691 0.44558 0.35918 0.0
C718 C 0.81243 0.43877 0.36507 0.0
C719 C 0.74177 0.42042 0.38255 0.0
C720 C 0.7662 0.42689 0.3766 0.0
H721 H 0.89386 0.47347 0.37652 0.0
H722 H 0.85328 0.46071 0.3865 0.0
H723 H 0.80421 0.45141 0.33946 0.0
H724 H 0.68556 0.39697 0.36428 0.0
H725 H 0.72563 0.4079 0.35465 0.0
C726 C 0.10309 0.57314 0.40197 0.0
C727 C 0.09172 0.55016 0.39522 0.0
C728 C 0.11854 0.58002 0.41769 0.0
C729 C 0.15473 0.56324 0.44683 0.0
H730 H 0.15111 0.60338 0.48463 0.0
C731 C 0.20187 0.58193 0.52037 0.0
C732 C 0.21322 0.60496 0.52704 0.0
C733 C 0.1875 0.57529 0.50398 0.0
C734 C 0.15252 0.59236 0.4741 0.0
H735 H 0.08755 0.51634 0.39969 0.0
H736 H 0.1144 0.52828 0.42719 0.0
H737 H 0.12538 0.59184 0.45649 0.0
H738 H 0.21855 0.63912 0.52164 0.0
H739 H 0.1936 0.62754 0.49306 0.0
H740 H 0.18177 0.56366 0.46458 0.0
C741 C 0.11171 0.54111 0.42015 0.0
C742 C 0.1378 0.58578 0.45796 0.0
C743 C 0.09631 0.53426 0.4044 0.0
C744 C 0.21001 0.62122 0.51693 0.0
C745 C 0.1956 0.61456 0.5006 0.0
C746 C 0.16942 0.56979 0.46301 0.0
C747 C 0.1229 0.56404 0.42704 0.0
C748 C 0.13874 0.57116 0.44412 0.0
C749 C 0.18412 0.59152 0.49398 0.0
C750 C 0.16849 0.58445 0.47681 0.0
H751 H 0.10017 0.58588 0.39501 0.0
H752 H 0.1272 0.59791 0.42243 0.0
H753 H 0.15612 0.55221 0.43631 0.0
H754 H 0.20397 0.56898 0.52784 0.0
H755 H 0.1787 0.55735 0.49933 0.0
C756 C 0.54577 0.1106 0.57628 0.0
C757 C 0.55887 0.10045 0.57042 0.0
C758 C 0.55314 0.12535 0.59211 0.0
C759 C 0.5881 0.13868 0.6364 0.0
H760 H 0.58465 0.1946 0.63602 0.0
C761 C 0.62089 0.20328 0.69981 0.0
C762 C 0.60664 0.21258 0.70465 0.0
C763 C 0.61623 0.19018 0.68315 0.0
C764 C 0.58549 0.17892 0.63642 0.0
H765 H 0.59006 0.09791 0.57646 0.0
H766 H 0.60307 0.12388 0.60408 0.0
H767 H 0.57472 0.17106 0.6072 0.0
H768 H 0.57614 0.21517 0.69589 0.0
H769 H 0.56782 0.19206 0.66706 0.0
H770 H 0.59853 0.14635 0.66571 0.0
C771 C 0.58701 0.12029 0.59647 0.0
C772 C 0.57985 0.16547 0.6199 0.0
C773 C 0.5797 0.10562 0.58056 0.0
C774 C 0.58753 0.20834 0.69255 0.0
C775 C 0.58286 0.19523 0.67594 0.0
C776 C 0.59368 0.15211 0.65296 0.0
C777 C 0.57372 0.1302 0.60247 0.0
C778 C 0.58089 0.1451 0.61975 0.0
C779 C 0.59722 0.18608 0.67098 0.0
C780 C 0.59223 0.17227 0.65321 0.0
H781 H 0.52977 0.1071 0.56864 0.0
H782 H 0.5424 0.13255 0.59648 0.0
H783 H 0.58878 0.12291 0.63679 0.0
H784 H 0.6358 0.2063 0.70879 0.0
H785 H 0.62777 0.18357 0.67964 0.0
C786 C 0.49647 0.57977 0.73927 0.0
C787 C 0.48513 0.57445 0.72133 0.0
C788 C 0.48962 0.58962 0.75353 0.0
C789 C 0.4596 0.62267 0.7613 0.0
H790 H 0.44956 0.59742 0.81226 0.0
C791 C 0.41232 0.64482 0.81947 0.0
C792 C 0.42028 0.64665 0.83839 0.0
C793 C 0.42167 0.63751 0.80508 0.0
C794 C 0.45265 0.60496 0.79819 0.0
H795 H 0.45808 0.57569 0.70414 0.0
H796 H 0.44602 0.59277 0.72909 0.0
H797 H 0.46323 0.58181 0.78742 0.0
H798 H 0.44492 0.64308 0.85695 0.0
H799 H 0.46159 0.63086 0.83182 0.0
H800 H 0.4491 0.64588 0.77205 0.0
C801 C 0.46024 0.58939 0.7321 0.0
C802 C 0.46043 0.59595 0.78395 0.0
C803 C 0.46697 0.57939 0.71789 0.0
C804 C 0.43827 0.64168 0.84253 0.0
C805 C 0.44772 0.63452 0.82813 0.0
C806 C 0.45195 0.63179 0.77558 0.0
C807 C 0.47142 0.59452 0.7501 0.0
C808 C 0.46385 0.60461 0.76532 0.0
C809 C 0.43929 0.63201 0.80927 0.0
C810 C 0.44825 0.62295 0.79418 0.0
H811 H 0.51042 0.57603 0.74236 0.0
H812 H 0.49868 0.59355 0.76721 0.0
H813 H 0.46239 0.6299 0.74712 0.0
H814 H 0.39841 0.64843 0.81581 0.0
H815 H 0.41454 0.63552 0.79077 0.0
C816 C 0.92086 0.45678 0.9122 0.0
C817 C 0.91372 0.4549 0.89304 0.0
C818 C 0.90444 0.4515 0.92676 0.0
C819 C 0.8455 0.44468 0.93657 0.0
H820 H 0.84838 0.41255 0.98142 0.0
C821 C 0.77183 0.40605 0.99387 0.0
C822 C 0.7795 0.40905 0.01297 0.0
C823 C 0.78829 0.41266 0.97912 0.0
C824 C 0.84751 0.42175 0.96907 0.0
H825 H 0.88371 0.44558 0.87408 0.0
H826 H 0.85492 0.43601 0.89948 0.0
H827 H 0.8767 0.42146 0.95585 0.0
H828 H 0.81054 0.4219 0.03156 0.0
H829 H 0.83917 0.43341 0.00585 0.0
H830 H 0.81603 0.44462 0.94979 0.0
C831 C 0.87332 0.44205 0.90329 0.0
C832 C 0.86376 0.42688 0.95442 0.0
C833 C 0.88978 0.44746 0.88874 0.0
C834 C 0.80401 0.41928 0.01701 0.0
C835 C 0.82042 0.42574 0.00228 0.0
C836 C 0.82915 0.43942 0.9512 0.0
C837 C 0.88046 0.44408 0.92249 0.0
C838 C 0.86301 0.43847 0.938 0.0
C839 C 0.81271 0.42225 0.98319 0.0
C840 C 0.83004 0.42796 0.96763 0.0
H841 H 0.93927 0.4628 0.91595 0.0
H842 H 0.91065 0.45363 0.94138 0.0
H843 H 0.84464 0.45394 0.92427 0.0
H844 H 0.75308 0.39824 0.99027 0.0
H845 H 0.78182 0.40963 0.96454 0.0
C846 C 0.45618 0.91379 0.07488 0.0
C847 C 0.44308 0.92376 0.06834 0.0
C848 C 0.44806 0.89845 0.09019 0.0
C849 C 0.40999 0.88281 0.1323 0.0
H850 H 0.41506 0.82778 0.1321 0.0
C851 C 0.37445 0.81634 0.19373 0.0
C852 C 0.38907 0.80774 0.19959 0.0
C853 C 0.37969 0.82964 0.17721 0.0
C854 C 0.41372 0.84319 0.13245 0.0
H855 H 0.41114 0.92539 0.07269 0.0
H856 H 0.39682 0.89838 0.09933 0.0
H857 H 0.42656 0.85234 0.10398 0.0
H858 H 0.42069 0.80643 0.19272 0.0
H859 H 0.42996 0.82983 0.16416 0.0
H860 H 0.39748 0.87386 0.16086 0.0
C861 C 0.41345 0.90256 0.09267 0.0
C862 C 0.42028 0.85724 0.11633 0.0
C863 C 0.42152 0.91782 0.07729 0.0
C864 C 0.40901 0.81273 0.18859 0.0
C865 C 0.41424 0.82601 0.17212 0.0
C866 C 0.40347 0.86878 0.14845 0.0
C867 C 0.42671 0.89282 0.09936 0.0
C868 C 0.41868 0.87731 0.11614 0.0
C869 C 0.39964 0.83461 0.16622 0.0
C870 C 0.40548 0.84893 0.14877 0.0
H871 H 0.47275 0.91788 0.06816 0.0
H872 H 0.45879 0.8914 0.09513 0.0
H873 H 0.40884 0.89832 0.13268 0.0
H874 H 0.3589 0.81274 0.20185 0.0
H875 H 0.36795 0.83581 0.17294 0.0
C876 C 0.51335 0.4347 0.22811 0.0
C877 C 0.52455 0.45822 0.223 0.0
C878 C 0.52173 0.42783 0.24367 0.0
C879 C 0.55734 0.45052 0.28793 0.0
H880 H 0.56348 0.39622 0.28422 0.0
C881 C 0.61008 0.43131 0.34333 0.0
C882 C 0.60049 0.40822 0.34919 0.0
C883 C 0.59987 0.43661 0.32811 0.0
C884 C 0.56158 0.41125 0.28556 0.0
H885 H 0.55315 0.49298 0.23034 0.0
H886 H 0.56798 0.48099 0.25724 0.0
H887 H 0.54731 0.40694 0.25728 0.0
H888 H 0.57266 0.37255 0.34362 0.0
H889 H 0.5547 0.38187 0.31705 0.0
H890 H 0.57169 0.45493 0.31613 0.0
C891 C 0.55261 0.46786 0.24934 0.0
C892 C 0.55233 0.41739 0.27013 0.0
C893 C 0.54429 0.4747 0.23378 0.0
C894 C 0.5805 0.39051 0.33943 0.0
C895 C 0.57028 0.39583 0.32416 0.0
C896 C 0.56656 0.44438 0.30333 0.0
C897 C 0.54141 0.44436 0.25449 0.0
C898 C 0.55033 0.43723 0.27109 0.0
C899 C 0.57981 0.41896 0.31838 0.0
C900 C 0.56902 0.42481 0.30226 0.0
H901 H 0.49823 0.42156 0.21998 0.0
H902 H 0.51261 0.40962 0.24736 0.0
H903 H 0.55559 0.46564 0.28925 0.0
H904 H 0.62553 0.44537 0.35049 0.0
H905 H 0.60789 0.45457 0.32383 0.0
C906 C 0.46018 0.90781 0.42353 0.0
C907 C 0.47821 0.93077 0.41972 0.0
C908 C 0.45246 0.89066 0.40945 0.0
C909 C 0.47031 0.87695 0.36375 0.0
H910 H 0.40247 0.83304 0.35774 0.0
C911 C 0.42957 0.81779 0.29759 0.0
C912 C 0.41059 0.79496 0.30038 0.0
C913 C 0.43865 0.83359 0.31275 0.0
C914 C 0.4215 0.84496 0.3594 0.0
H915 H 0.50213 0.95376 0.39808 0.0
H916 H 0.48861 0.92386 0.37348 0.0
H917 H 0.41658 0.86217 0.38298 0.0
H918 H 0.3867 0.77066 0.32141 0.0
H919 H 0.40269 0.79821 0.34788 0.0
H920 H 0.47517 0.85986 0.34001 0.0
C921 C 0.4807 0.91903 0.38745 0.0
C922 C 0.42959 0.86167 0.37386 0.0
C923 C 0.48843 0.93617 0.40154 0.0
C924 C 0.40126 0.78814 0.31876 0.0
C925 C 0.41032 0.80396 0.33391 0.0
C926 C 0.46221 0.86024 0.34926 0.0
C927 C 0.46259 0.89608 0.39124 0.0
C928 C 0.45408 0.87794 0.37615 0.0
C929 C 0.42895 0.82694 0.33103 0.0
C930 C 0.4377 0.84413 0.34687 0.0
H931 H 0.45222 0.90301 0.43749 0.0
H932 H 0.43874 0.87308 0.41292 0.0
H933 H 0.48932 0.889 0.36531 0.0
H934 H 0.43716 0.82363 0.28361 0.0
H935 H 0.45283 0.85122 0.31001 0.0
C936 C 0.57076 0.47612 0.56692 0.0
C937 C 0.5527 0.48161 0.5657 0.0
C938 C 0.5766 0.46754 0.55103 0.0
C939 C 0.5511 0.43642 0.50614 0.0
H940 H 0.61677 0.46039 0.49146 0.0
C941 C 0.57377 0.41026 0.43513 0.0
C942 C 0.59295 0.40641 0.43484 0.0
C943 C 0.56973 0.42007 0.45111 0.0
C944 C 0.59835 0.45328 0.49551 0.0
H945 H 0.52727 0.48315 0.54656 0.0
H946 H 0.53714 0.46776 0.51905 0.0
H947 H 0.60819 0.47617 0.51958 0.0
H948 H 0.6231 0.41 0.45106 0.0
H949 H 0.61572 0.42662 0.47918 0.0
H950 H 0.54112 0.41327 0.4824 0.0
C951 C 0.54657 0.46986 0.53236 0.0
C952 C 0.59346 0.46237 0.51158 0.0
C953 C 0.54087 0.47861 0.54815 0.0
C954 C 0.6082 0.41283 0.45082 0.0
C955 C 0.60403 0.42247 0.46691 0.0
C956 C 0.55596 0.4272 0.4902 0.0
C957 C 0.56437 0.46411 0.53365 0.0
C958 C 0.56977 0.45415 0.51695 0.0
C959 C 0.58463 0.42605 0.4673 0.0
C960 C 0.57964 0.43564 0.48456 0.0
H961 H 0.58004 0.47796 0.58025 0.0
H962 H 0.59028 0.46306 0.55246 0.0
H963 H 0.53267 0.42948 0.51014 0.0
H964 H 0.56182 0.40572 0.42298 0.0
H965 H 0.55493 0.42304 0.45073 0.0
C966 C 0.08421 0.54567 0.72849 0.0
C967 C 0.09018 0.54151 0.74672 0.0
C968 C 0.10181 0.55712 0.71482 0.0
C969 C 0.16306 0.57259 0.70227 0.0
H970 H 0.15962 0.61716 0.66938 0.0
C971 C 0.23676 0.62839 0.64819 0.0
C972 C 0.22868 0.62947 0.62982 0.0
C973 C 0.22069 0.61896 0.66322 0.0
C974 C 0.16073 0.60466 0.67838 0.0
H975 H 0.1193 0.54613 0.76494 0.0
H976 H 0.15014 0.56628 0.74107 0.0
H977 H 0.12998 0.5979 0.69416 0.0
H978 H 0.19751 0.62195 0.61291 0.0
H979 H 0.16956 0.60555 0.63911 0.0
H980 H 0.19382 0.57939 0.68642 0.0
C981 C 0.13178 0.56039 0.73726 0.0
C982 C 0.14373 0.59358 0.69255 0.0
C983 C 0.11412 0.54885 0.75093 0.0
C984 C 0.20432 0.62138 0.62688 0.0
C985 C 0.18831 0.61209 0.64192 0.0
C986 C 0.18013 0.58376 0.68813 0.0
C987 C 0.12583 0.56476 0.71907 0.0
C988 C 0.14453 0.57722 0.70453 0.0
C989 C 0.19628 0.61059 0.66021 0.0
C990 C 0.17899 0.59973 0.67591 0.0
H991 H 0.06585 0.53989 0.72474 0.0
H992 H 0.09654 0.55977 0.70084 0.0
H993 H 0.16403 0.55989 0.7111 0.0
H994 H 0.25542 0.63449 0.65092 0.0
H995 H 0.22738 0.61824 0.67721 0.0
C996 C 0.51266 0.09488 0.9069 0.0
C997 C 0.52304 0.10051 0.9252 0.0
C998 C 0.51982 0.11195 0.89297 0.0
C999 C 0.56985 0.16955 0.87981 0.0
H1000 H 0.52321 0.16943 0.84516 0.0
C1001 C 0.59653 0.24004 0.82259 0.0
C1002 C 0.58689 0.23201 0.80428 0.0
C1003 C 0.58776 0.22521 0.83823 0.0
C1004 C 0.53646 0.1696 0.85466 0.0
H1005 H 0.54878 0.12859 0.94332 0.0
H1006 H 0.56132 0.15843 0.91896 0.0
H1007 H 0.50992 0.1412 0.87087 0.0
H1008 H 0.56001 0.20229 0.78815 0.0
H1009 H 0.54486 0.17643 0.81538 0.0
H1010 H 0.59641 0.19776 0.86346 0.0
C1011 C 0.54785 0.14073 0.91533 0.0
C1012 C 0.52885 0.15342 0.86937 0.0
C1013 C 0.54069 0.12363 0.92927 0.0
C1014 C 0.56784 0.20904 0.80205 0.0
C1015 C 0.55906 0.19424 0.81769 0.0
C1016 C 0.57745 0.18574 0.8651 0.0
C1017 C 0.53752 0.13507 0.897 0.0
C1018 C 0.54548 0.15305 0.88199 0.0
C1019 C 0.56913 0.20205 0.83591 0.0
C1020 C 0.56087 0.1858 0.85224 0.0
H1021 H 0.49929 0.07716 0.90321 0.0
H1022 H 0.51181 0.10693 0.8789 0.0
H1023 H 0.58314 0.16953 0.88912 0.0
H1024 H 0.61115 0.25767 0.82481 0.0
H1025 H 0.59568 0.23184 0.85213 0.0
C1026 C 0.45714 0.56595 0.06379 0.0
C1027 C 0.44335 0.54261 0.06929 0.0
C1028 C 0.45005 0.57421 0.04837 0.0
C1029 C 0.41404 0.55455 0.00443 0.0
H1030 H 0.41909 0.6146 0.00662 0.0
C1031 C 0.37934 0.58739 0.94355 0.0
C1032 C 0.39368 0.61084 0.93847 0.0
C1033 C 0.38451 0.57897 0.95995 0.0
C1034 C 0.41781 0.5979 0.00572 0.0
H1035 H 0.41128 0.50962 0.063 0.0
H1036 H 0.3988 0.52409 0.03612 0.0
H1037 H 0.42966 0.60008 0.03458 0.0
H1038 H 0.42466 0.64386 0.94668 0.0
H1039 H 0.43387 0.62908 0.97512 0.0
H1040 H 0.40253 0.55245 0.97552 0.0
C1041 C 0.41516 0.53597 0.04369 0.0
C1042 C 0.42382 0.58958 0.02174 0.0
C1043 C 0.42218 0.52774 0.05918 0.0
C1044 C 0.41322 0.62571 0.95022 0.0
C1045 C 0.41841 0.61727 0.96659 0.0
C1046 C 0.40811 0.5629 0.98839 0.0
C1047 C 0.42909 0.55926 0.03806 0.0
C1048 C 0.42208 0.56785 0.02124 0.0
C1049 C 0.40417 0.59378 0.97162 0.0
C1050 C 0.41 0.58471 0.98882 0.0
H1051 H 0.47342 0.57787 0.07143 0.0
H1052 H 0.46126 0.5922 0.04428 0.0
H1053 H 0.41286 0.53789 0.00352 0.0
H1054 H 0.3641 0.57549 0.93486 0.0
H1055 H 0.37298 0.56086 0.96356 0.0
C1056 C 0.89775 0.45717 0.24204 0.0
C1057 C 0.92107 0.4612 0.24099 0.0
C1058 C 0.88251 0.44899 0.22615 0.0
C1059 C 0.88337 0.4449 0.17368 0.0
H1060 H 0.8162 0.39891 0.17925 0.0
C1061 C 0.82136 0.40071 0.10894 0.0
C1062 C 0.79903 0.39906 0.10929 0.0
C1063 C 0.83584 0.40739 0.12525 0.0
C1064 C 0.83489 0.41189 0.1775 0.0
H1065 H 0.94668 0.45993 0.22234 0.0
H1066 H 0.91994 0.44506 0.19488 0.0
H1067 H 0.8423 0.41245 0.20731 0.0
H1068 H 0.77415 0.4026 0.12717 0.0
H1069 H 0.79947 0.41427 0.15562 0.0
H1070 H 0.87598 0.44427 0.14389 0.0
C1071 C 0.9135 0.44851 0.20789 0.0
C1072 C 0.84983 0.41968 0.19357 0.0
C1073 C 0.92874 0.45675 0.22373 0.0
C1074 C 0.79127 0.40374 0.12641 0.0
C1075 C 0.80571 0.4103 0.14274 0.0
C1076 C 0.86847 0.43704 0.15763 0.0
C1077 C 0.89024 0.44463 0.20887 0.0
C1078 C 0.87426 0.43629 0.19184 0.0
C1079 C 0.82826 0.41243 0.14228 0.0
C1080 C 0.84407 0.42046 0.15936 0.0
H1081 H 0.8912 0.46021 0.25518 0.0
H1082 H 0.86478 0.4464 0.22735 0.0
H1083 H 0.902 0.45802 0.17187 0.0
H1084 H 0.82784 0.39717 0.096 0.0
H1085 H 0.853 0.40859 0.12452 0.0
loop_
_geom_bond_atom_site_label_1
_geom_bond_atom_site_label_2
_geom_bond_distance
_geom_bond_site_symmetry_2
_ccdc_geom_bond_type
H0 C19 0.949 . S
H1 C20 0.950 . S
H2 C22 0.950 . S
H3 C23 0.950 . S
H4 C25 0.950 . S
H5 C28 0.950 . S
H6 C29 0.950 . S
H7 C31 0.951 . S
H8 C32 0.949 . S
H9 C34 0.949 . S
H10 C35 0.950 . S
H11 C37 0.950 . S
H12 C38 0.950 . S
H13 C40 0.950 . S
H14 C43 0.950 . S
H15 C44 0.950 . S
H16 C46 0.951 . S
H17 C47 0.949 . S
C18 C19 1.376 . S
C18 C23 1.386 . S
C18 C24 1.483 . S
C19 H0 0.949 . S
C19 C18 1.376 . S
C19 C20 1.397 . S
C20 H1 0.950 . S
C20 C19 1.397 . S
C20 C21 1.391 . S
C21 C20 1.391 . S
C21 C22 1.405 . S
C22 H2 0.950 . S
C22 C21 1.405 . S
C22 C23 1.367 . S
C23 H3 0.950 . S
C23 C18 1.386 . S
C23 C22 1.367 . S
C24 C18 1.483 . S
C24 C25 1.382 1_655 S
C24 C26 1.403 . S
C25 H4 0.950 . S
C25 C24 1.382 1_455 S
C25 C41 1.411 . S
C26 C24 1.403 . S
C26 C27 1.489 . S
C26 C40 1.411 . S
C27 C26 1.489 . S
C27 C28 1.383 . S
C27 C32 1.382 . S
C28 H5 0.950 . S
C28 C27 1.383 . S
C28 C29 1.395 . S
C29 H6 0.950 . S
C29 C28 1.395 . S
C29 C30 1.288 . S
C30 C29 1.288 . S
C30 C31 1.392 . S
C31 H7 0.951 . S
C31 C30 1.392 . S
C31 C32 1.392 . S
C32 H8 0.949 . S
C32 C27 1.382 . S
C32 C31 1.392 . S
C33 C34 1.376 . S
C33 C38 1.386 . S
C33 C39 1.483 . S
C34 H9 0.949 . S
C34 C33 1.376 . S
C34 C35 1.397 . S
C35 H10 0.950 . S
C35 C34 1.397 . S
C35 C36 1.391 . S
C36 C35 1.391 . S
C36 C37 1.405 . S
C37 H11 0.950 . S
C37 C36 1.405 . S
C37 C38 1.367 . S
C38 H12 0.950 . S
C38 C33 1.386 . S
C38 C37 1.367 . S
C39 C33 1.483 . S
C39 C40 1.382 1_455 S
C39 C41 1.403 . S
C40 H13 0.950 . S
C40 C26 1.411 . S
C40 C39 1.382 1_655 S
C41 C25 1.411 . S
C41 C39 1.403 . S
C41 C42 1.489 . S
C42 C41 1.489 . S
C42 C43 1.383 . S
C42 C47 1.382 . S
C43 H14 0.950 . S
C43 C42 1.383 . S
C43 C44 1.395 . S
C44 H15 0.950 . S
C44 C43 1.395 . S
C44 C45 1.288 . S
C45 C44 1.288 . S
C45 C46 1.392 . S
C46 H16 0.951 . S
C46 C45 1.392 . S
C46 C47 1.392 . S
C47 H17 0.949 . S
C47 C42 1.382 . S
C47 C46 1.392 . S
H48 C67 0.949 . S
H49 C68 0.950 . S
H50 C70 0.950 . S
H51 C71 0.950 . S
H52 C73 0.950 . S
H53 C76 0.950 . S
H54 C77 0.950 . S
H55 C79 0.951 . S
H56 C80 0.949 . S
H57 C82 0.949 . S
H58 C83 0.950 . S
H59 C85 0.950 . S
H60 C86 0.950 . S
H61 C88 0.950 . S
H62 C91 0.950 . S
H63 C92 0.950 . S
H64 C94 0.951 . S
H65 C95 0.949 . S
C66 C67 1.376 . S
C66 C71 1.386 . S
C66 C72 1.483 . S
C67 H48 0.949 . S
C67 C66 1.376 . S
C67 C68 1.397 . S
C68 H49 0.950 . S
C68 C67 1.397 . S
C68 C69 1.391 . S
C69 C68 1.391 . S
C69 C70 1.405 . S
C70 H50 0.950 . S
C70 C69 1.405 . S
C70 C71 1.367 . S
C71 H51 0.950 . S
C71 C66 1.386 . S
C71 C70 1.367 . S
C72 C66 1.483 . S
C72 C73 1.382 1_565 S
C72 C74 1.411 . S
C73 H52 0.950 . S
C73 C72 1.382 1_545 S
C73 C89 1.411 . S
C74 C72 1.411 . S
C74 C75 1.510 . S
C74 C88 1.380 1_565 S
C75 C74 1.510 . S
C75 C76 1.383 . S
C75 C80 1.382 . S
C76 H53 0.950 . S
C76 C75 1.383 . S
C76 C77 1.395 . S
C77 H54 0.950 . S
C77 C76 1.395 . S
C77 C78 1.288 . S
C78 C77 1.288 . S
C78 C79 1.392 . S
C79 H55 0.951 . S
C79 C78 1.392 . S
C79 C80 1.392 . S
C80 H56 0.949 . S
C80 C75 1.382 . S
C80 C79 1.392 . S
C81 C82 1.376 . S
C81 C86 1.386 . S
C81 C87 1.483 . S
C82 H57 0.949 . S
C82 C81 1.376 . S
C82 C83 1.397 . S
C83 H58 0.950 . S
C83 C82 1.397 . S
C83 C84 1.391 . S
C84 C83 1.391 . S
C84 C85 1.405 . S
C85 H59 0.950 . S
C85 C84 1.405 . S
C85 C86 1.367 . S
C86 H60 0.950 . S
C86 C81 1.386 . S
C86 C85 1.367 . S
C87 C81 1.483 . S
C87 C88 1.382 . S
C87 C89 1.403 . S
C88 H61 0.950 . S
C88 C74 1.380 1_545 S
C88 C87 1.382 . S
C89 C73 1.411 . S
C89 C87 1.403 . S
C89 C90 1.489 . S
C90 C89 1.489 . S
C90 C91 1.383 . S
C90 C95 1.382 . S
C91 H62 0.950 . S
C91 C90 1.383 . S
C91 C92 1.395 . S
C92 H63 0.950 . S
C92 C91 1.395 . S
C92 C93 1.288 . S
C93 C92 1.288 . S
C93 C94 1.392 . S
C94 H64 0.951 . S
C94 C93 1.392 . S
C94 C95 1.392 . S
C95 H65 0.949 . S
C95 C90 1.382 . S
C95 C94 1.392 . S
H96 C115 0.949 . S
H97 C116 0.950 . S
H98 C118 0.950 . S
H99 C119 0.950 . S
H100 C121 0.950 . S
H101 C124 0.950 . S
H102 C125 0.950 . S
H103 C127 0.951 . S
H104 C128 0.949 . S
H105 C130 0.949 . S
H106 C131 0.950 . S
H107 C133 0.950 . S
H108 C134 0.950 . S
H109 C136 0.950 . S
H110 C139 0.950 . S
H111 C140 0.950 . S
H112 C142 0.951 . S
H113 C143 0.949 . S
C114 C115 1.376 . S
C114 C119 1.386 . S
C114 C120 1.483 . S
C115 H96 0.949 . S
C115 C114 1.376 . S
C115 C116 1.397 . S
C116 H97 0.950 . S
C116 C115 1.397 . S
C116 C117 1.391 . S
C117 C116 1.391 . S
C117 C118 1.405 . S
C118 H98 0.950 . S
C118 C117 1.405 . S
C118 C119 1.367 . S
C119 H99 0.950 . S
C119 C114 1.386 . S
C119 C118 1.367 . S
C120 C114 1.483 . S
C120 C121 1.382 . S
C120 C122 1.403 . S
C121 H100 0.950 . S
C121 C120 1.382 . S
C121 C137 1.411 . S
C122 C120 1.403 . S
C122 C123 1.489 . S
C122 C136 1.411 . S
C123 C122 1.489 . S
C123 C124 1.383 . S
C123 C128 1.382 . S
C124 H101 0.950 . S
C124 C123 1.383 . S
C124 C125 1.395 . S
C125 H102 0.950 . S
C125 C124 1.395 . S
C125 C126 1.288 . S
C126 C125 1.288 . S
C126 C127 1.392 . S
C127 H103 0.951 . S
C127 C126 1.392 . S
C127 C128 1.392 . S
C128 H104 0.949 . S
C128 C123 1.382 . S
C128 C127 1.392 . S
C129 C130 1.376 . S
C129 C134 1.386 . S
C129 C135 1.483 . S
C130 H105 0.949 . S
C130 C129 1.376 . S
C130 C131 1.397 . S
C131 H106 0.950 . S
C131 C130 1.397 . S
C131 C132 1.391 . S
C132 C131 1.391 . S
C132 C133 1.405 . S
C133 H107 0.950 . S
C133 C132 1.405 . S
C133 C134 1.367 . S
C134 H108 0.950 . S
C134 C129 1.386 . S
C134 C133 1.367 . S
C135 C129 1.483 . S
C135 C136 1.382 . S
C135 C137 1.403 . S
C136 H109 0.950 . S
C136 C122 1.411 . S
C136 C135 1.382 . S
C137 C121 1.411 . S
C137 C135 1.403 . S
C137 C138 1.489 . S
C138 C137 1.489 . S
C138 C139 1.383 . S
C138 C143 1.382 . S
C139 H110 0.950 . S
C139 C138 1.383 . S
C139 C140 1.395 . S
C140 H111 0.950 . S
C140 C139 1.395 . S
C140 C141 1.288 . S
C141 C140 1.288 . S
C141 C142 1.392 . S
C142 H112 0.951 . S
C142 C141 1.392 . S
C142 C143 1.392 . S
C143 H113 0.949 . S
C143 C138 1.382 . S
C143 C142 1.392 . S
H144 C163 0.949 . S
H145 C164 0.950 . S
H146 C166 0.950 . S
H147 C167 0.950 . S
H148 C169 0.950 . S
H149 C172 0.950 . S
H150 C173 0.950 . S
H151 C175 0.951 . S
H152 C176 0.949 . S
H153 C178 0.949 . S
H154 C179 0.950 . S
H155 C181 0.950 . S
H156 C182 0.950 . S
H157 C184 0.950 . S
H158 C187 0.950 . S
H159 C188 0.950 . S
H160 C190 0.951 . S
H161 C191 0.949 . S
C162 C163 1.376 . S
C162 C167 1.386 . S
C162 C168 1.483 . S
C163 H144 0.949 . S
C163 C162 1.376 . S
C163 C164 1.397 . S
C164 H145 0.950 . S
C164 C163 1.397 . S
C164 C165 1.391 . S
C165 C164 1.391 . S
C165 C166 1.405 . S
C166 H146 0.950 . S
C166 C165 1.405 . S
C166 C167 1.367 . S
C167 H147 0.950 . S
C167 C162 1.386 . S
C167 C166 1.367 . S
C168 C162 1.483 . S
C168 C169 1.382 1_455 S
C168 C170 1.403 . S
C169 H148 0.950 . S
C169 C168 1.382 1_655 S
C169 C185 1.411 . S
C170 C168 1.403 . S
C170 C171 1.489 . S
C170 C184 1.411 . S
C171 C170 1.489 . S
C171 C172 1.383 . S
C171 C176 1.382 . S
C172 H149 0.950 . S
C172 C171 1.383 . S
C172 C173 1.395 . S
C173 H150 0.950 . S
C173 C172 1.395 . S
C173 C174 1.288 . S
C174 C173 1.288 . S
C174 C175 1.392 . S
C175 H151 0.951 . S
C175 C174 1.392 . S
C175 C176 1.392 . S
C176 H152 0.949 . S
C176 C171 1.382 . S
C176 C175 1.392 . S
C177 C178 1.376 . S
C177 C182 1.386 . S
C177 C183 1.483 . S
C178 H153 0.949 . S
C178 C177 1.376 . S
C178 C179 1.397 . S
C179 H154 0.950 . S
C179 C178 1.397 . S
C179 C180 1.391 . S
C180 C179 1.391 . S
C180 C181 1.405 . S
C181 H155 0.950 . S
C181 C180 1.405 . S
C181 C182 1.367 . S
C182 H156 0.950 . S
C182 C177 1.386 . S
C182 C181 1.367 . S
C183 C177 1.483 . S
C183 C184 1.382 1_655 S
C183 C185 1.403 . S
C184 H157 0.950 . S
C184 C170 1.411 . S
C184 C183 1.382 1_455 S
C185 C169 1.411 . S
C185 C183 1.403 . S
C185 C186 1.489 . S
C186 C185 1.489 . S
C186 C187 1.383 . S
C186 C191 1.382 . S
C187 H158 0.950 . S
C187 C186 1.383 . S
C187 C188 1.395 . S
C188 H159 0.950 . S
C188 C187 1.395 . S
C188 C189 1.288 . S
C189 C188 1.288 . S
C189 C190 1.392 . S
C190 H160 0.951 . S
C190 C189 1.392 . S
C190 C191 1.392 . S
C191 H161 0.949 . S
C191 C186 1.382 . S
C191 C190 1.392 . S
H192 C211 0.949 . S
H193 C212 0.950 . S
H194 C214 0.950 . S
H195 C215 0.950 . S
H196 C217 0.950 . S
H197 C220 0.950 . S
H198 C221 0.950 . S
H199 C223 0.951 . S
H200 C224 0.949 . S
H201 C226 0.949 . S
H202 C227 0.950 . S
H203 C229 0.950 . S
H204 C230 0.950 . S
H205 C232 0.946 1_565 S
H206 C235 0.950 . S
H207 C236 0.950 . S
H208 C238 0.951 . S
H209 C239 0.949 . S
C210 C211 1.376 . S
C210 C215 1.386 1_554 S
C210 C216 1.483 1_554 S
C211 H192 0.949 . S
C211 C210 1.376 . S
C211 C212 1.397 . S
C212 H193 0.950 . S
C212 C211 1.397 . S
C212 C213 1.391 . S
C213 C212 1.391 . S
C213 C214 1.405 . S
C214 H194 0.950 . S
C214 C213 1.405 . S
C214 C215 1.367 1_554 S
C215 H195 0.950 . S
C215 C210 1.386 1_556 S
C215 C214 1.367 1_556 S
C216 C210 1.483 1_556 S
C216 C217 1.382 1_556 S
C216 C218 1.403 . S
C217 H196 0.950 . S
C217 C216 1.382 1_554 S
C217 C233 1.411 1_545 S
C218 C216 1.403 . S
C218 C219 1.489 . S
C218 C232 1.411 . S
C219 C218 1.489 . S
C219 C220 1.383 . S
C219 C224 1.382 . S
C220 H197 0.950 . S
C220 C219 1.383 . S
C220 C221 1.395 . S
C221 H198 0.950 . S
C221 C220 1.395 . S
C221 C222 1.288 . S
C222 C221 1.288 . S
C222 C223 1.392 . S
C223 H199 0.951 . S
C223 C222 1.392 . S
C223 C224 1.392 . S
C224 H200 0.949 . S
C224 C219 1.382 . S
C224 C223 1.392 . S
C225 C226 1.376 . S
C225 C230 1.386 . S
C225 C231 1.483 . S
C226 H201 0.949 . S
C226 C225 1.376 . S
C226 C227 1.397 . S
C227 H202 0.950 . S
C227 C226 1.397 . S
C227 C228 1.391 . S
C228 C227 1.391 . S
C228 C229 1.405 . S
C229 H203 0.950 . S
C229 C228 1.405 . S
C229 C230 1.367 . S
C230 H204 0.950 . S
C230 C225 1.386 . S
C230 C229 1.367 . S
C231 C225 1.483 . S
C231 C232 1.382 1_565 S
C231 C233 1.403 1_556 S
C232 H205 0.946 1_545 S
C232 C218 1.411 . S
C232 C231 1.382 1_545 S
C233 C217 1.411 1_565 S
C233 C231 1.403 1_554 S
C233 C234 1.489 . S
C234 C233 1.489 . S
C234 C235 1.383 . S
C234 C239 1.382 . S
C235 H206 0.950 . S
C235 C234 1.383 . S
C235 C236 1.395 . S
C236 H207 0.950 . S
C236 C235 1.395 . S
C236 C237 1.288 . S
C237 C236 1.288 . S
C237 C238 1.392 . S
C238 H208 0.951 . S
C238 C237 1.392 . S
C238 C239 1.392 . S
C239 H209 0.949 . S
C239 C234 1.382 . S
C239 C238 1.392 . S
H240 C259 0.949 . S
H241 C260 0.950 . S
H242 C262 0.950 . S
H243 C263 0.950 . S
H244 C265 0.950 . S
H245 C268 0.950 . S
H246 C269 0.950 . S
H247 C271 0.951 . S
H248 C272 0.949 . S
H249 C274 0.949 . S
H250 C275 0.950 . S
H251 C277 0.950 . S
H252 C278 0.950 . S
H253 C280 0.950 . S
H254 C283 0.950 . S
H255 C284 0.950 . S
H256 C286 0.951 . S
H257 C287 0.949 . S
C258 C259 1.376 . S
C258 C263 1.386 . S
C258 C264 1.483 . S
C259 H240 0.949 . S
C259 C258 1.376 . S
C259 C260 1.397 . S
C260 H241 0.950 . S
C260 C259 1.397 . S
C260 C261 1.391 . S
C261 C260 1.391 . S
C261 C262 1.405 . S
C262 H242 0.950 . S
C262 C261 1.405 . S
C262 C263 1.367 . S
C263 H243 0.950 . S
C263 C258 1.386 . S
C263 C262 1.367 . S
C264 C258 1.483 . S
C264 C265 1.382 . S
C264 C266 1.403 . S
C265 H244 0.950 . S
C265 C264 1.382 . S
C265 C281 1.411 . S
C266 C264 1.403 . S
C266 C267 1.489 . S
C266 C280 1.411 . S
C267 C266 1.489 . S
C267 C268 1.383 . S
C267 C272 1.382 . S
C268 H245 0.950 . S
C268 C267 1.383 . S
C268 C269 1.395 . S
C269 H246 0.950 . S
C269 C268 1.395 . S
C269 C270 1.288 . S
C270 C269 1.288 . S
C270 C271 1.392 . S
C271 H247 0.951 . S
C271 C270 1.392 . S
C271 C272 1.392 . S
C272 H248 0.949 . S
C272 C267 1.382 . S
C272 C271 1.392 . S
C273 C274 1.376 . S
C273 C278 1.386 . S
C273 C279 1.483 . S
C274 H249 0.949 . S
C274 C273 1.376 . S
C274 C275 1.397 . S
C275 H250 0.950 . S
C275 C274 1.397 . S
C275 C276 1.391 . S
C276 C275 1.391 . S
C276 C277 1.405 . S
C277 H251 0.950 . S
C277 C276 1.405 . S
C277 C278 1.367 . S
C278 H252 0.950 . S
C278 C273 1.386 . S
C278 C277 1.367 . S
C279 C273 1.483 . S
C279 C280 1.382 . S
C279 C281 1.403 . S
C280 H253 0.950 . S
C280 C266 1.411 . S
C280 C279 1.382 . S
C281 C265 1.411 . S
C281 C279 1.403 . S
C281 C282 1.489 . S
C282 C281 1.489 . S
C282 C283 1.383 . S
C282 C287 1.382 . S
C283 H254 0.950 . S
C283 C282 1.383 . S
C283 C284 1.395 . S
C284 H255 0.950 . S
C284 C283 1.395 . S
C284 C285 1.288 . S
C285 C284 1.288 . S
C285 C286 1.392 . S
C286 H256 0.951 . S
C286 C285 1.392 . S
C286 C287 1.392 . S
C287 H257 0.949 . S
C287 C282 1.382 . S
C287 C286 1.392 . S
C288 O289 1.160 . S
C288 O295 1.185 . S
O289 C288 1.160 . S
O290 Zn291 1.899 . S
O290 C298 1.284 . S
Zn291 O290 1.899 . S
Zn291 O292 2.032 . S
Zn291 O295 2.086 . S
Zn291 O300 1.977 . S
O292 Zn291 2.032 . S
O292 C296 1.278 . S
C293 O294 1.203 . S
C293 O300 1.267 . S
O294 C293 1.203 . S
O295 C288 1.185 . S
O295 Zn291 2.086 . S
C296 O292 1.278 . S
C296 O297 1.211 . S
O297 C296 1.211 . S
C298 O290 1.284 . S
C298 O299 1.273 . S
O299 C298 1.273 . S
O300 Zn291 1.977 . S
O300 C293 1.267 . S
C301 O302 1.160 . S
C301 O308 1.185 . S
O302 C301 1.160 . S
O303 Zn304 1.899 . S
O303 C311 1.284 . S
Zn304 O303 1.899 . S
Zn304 O305 2.032 . S
Zn304 O308 2.086 . S
Zn304 O313 1.977 . S
O305 Zn304 2.032 . S
O305 C309 1.278 . S
C306 O307 1.203 . S
C306 O313 1.267 . S
O307 C306 1.203 . S
O308 C301 1.185 . S
O308 Zn304 2.086 . S
C309 O305 1.278 . S
C309 O310 1.211 . S
O310 C309 1.211 . S
C311 O303 1.284 . S
C311 O312 1.273 . S
O312 C311 1.273 . S
O313 Zn304 1.977 . S
O313 C306 1.267 . S
C314 O315 1.160 . S
C314 O321 1.185 . S
O315 C314 1.160 . S
O316 Zn317 1.899 . S
O316 C324 1.284 . S
Zn317 O316 1.899 . S
Zn317 O318 2.032 . S
Zn317 O321 2.086 . S
Zn317 O326 1.977 . S
O318 Zn317 2.032 . S
O318 C322 1.278 . S
C319 O320 1.203 . S
C319 O326 1.267 . S
O320 C319 1.203 . S
O321 C314 1.185 . S
O321 Zn317 2.086 . S
C322 O318 1.278 . S
C322 O323 1.211 . S
O323 C322 1.211 . S
C324 O316 1.284 . S
C324 O325 1.273 . S
O325 C324 1.273 . S
O326 Zn317 1.977 . S
O326 C319 1.267 . S
C327 O328 1.160 . S
C327 O334 1.185 . S
O328 C327 1.160 . S
O329 Zn330 1.899 . S
O329 C337 1.284 . S
Zn330 O329 1.899 . S
Zn330 O331 2.032 . S
Zn330 O334 2.086 . S
Zn330 O339 1.977 . S
O331 Zn330 2.032 . S
O331 C335 1.278 . S
C332 O333 1.203 . S
C332 O339 1.267 . S
O333 C332 1.203 . S
O334 C327 1.185 . S
O334 Zn330 2.086 . S
C335 O331 1.278 . S
C335 O336 1.211 . S
O336 C335 1.211 . S
C337 O329 1.284 . S
C337 O338 1.273 . S
O338 C337 1.273 . S
O339 Zn330 1.977 . S
O339 C332 1.267 . S
C340 O341 1.160 . S
C340 O347 1.185 . S
O341 C340 1.160 . S
O342 Zn343 1.899 . S
O342 C350 1.284 . S
Zn343 O342 1.899 . S
Zn343 O344 2.032 . S
Zn343 O347 2.086 . S
Zn343 O352 1.977 . S
O344 Zn343 2.032 . S
O344 C348 1.278 . S
C345 O346 1.203 . S
C345 O352 1.267 . S
O346 C345 1.203 . S
O347 C340 1.185 . S
O347 Zn343 2.086 . S
C348 O344 1.278 . S
C348 O349 1.211 . S
O349 C348 1.211 . S
C350 O342 1.284 . S
C350 O351 1.273 . S
O351 C350 1.273 . S
O352 Zn343 1.977 . S
O352 C345 1.267 . S
C353 O354 1.160 . S
C353 O360 1.185 . S
O354 C353 1.160 . S
O355 Zn356 1.899 . S
O355 C363 1.284 . S
Zn356 O355 1.899 . S
Zn356 O357 2.032 . S
Zn356 O360 2.086 . S
Zn356 O365 1.977 . S
O357 Zn356 2.032 . S
O357 C361 1.278 . S
C358 O359 1.203 . S
C358 O365 1.267 . S
O359 C358 1.203 . S
O360 C353 1.185 . S
O360 Zn356 2.086 . S
C361 O357 1.278 . S
C361 O362 1.211 . S
O362 C361 1.211 . S
C363 O355 1.284 . S
C363 O364 1.273 . S
O364 C363 1.273 . S
O365 Zn356 1.977 . S
O365 C358 1.267 . S
C366 C367 1.349 . S
C366 C368 1.327 . S
C366 H391 0.950 . S
C367 C366 1.349 . S
C367 C383 1.349 . S
C368 C366 1.327 . S
C368 C387 1.429 . S
C368 H392 0.950 . S
C369 C386 1.574 . S
C369 C388 1.368 . S
C369 H393 0.949 . S
H370 C374 0.949 . S
C371 C372 1.349 . S
C371 C373 1.327 . S
C371 H394 0.950 . S
C372 C371 1.349 . S
C372 C384 1.349 . S
C373 C371 1.327 . S
C373 C389 1.429 . S
C373 H395 0.950 . S
C374 H370 0.949 . S
C374 C382 1.574 . S
C374 C390 1.368 . S
H375 C383 0.950 . S
H376 C381 0.950 . S
H377 C382 0.949 . S
H378 C384 0.950 . S
H379 C385 0.950 . S
H380 C386 0.949 . S
C381 H376 0.950 . S
C381 C383 1.327 . S
C381 C387 1.429 . S
C382 C374 1.574 . S
C382 H377 0.949 . S
C382 C388 1.368 . S
C383 C367 1.349 . S
C383 H375 0.950 . S
C383 C381 1.327 . S
C384 C372 1.349 . S
C384 H378 0.950 . S
C384 C385 1.327 . S
C385 H379 0.950 . S
C385 C384 1.327 . S
C385 C389 1.429 . S
C386 C369 1.574 . S
C386 H380 0.949 . S
C386 C390 1.368 . S
C387 C368 1.429 . S
C387 C381 1.429 . S
C387 C388 1.523 . S
C388 C369 1.368 . S
C388 C382 1.368 . S
C388 C387 1.523 . S
C389 C373 1.429 . S
C389 C385 1.429 . S
C389 C390 1.523 . S
C390 C374 1.368 . S
C390 C386 1.368 . S
C390 C389 1.523 . S
H391 C366 0.950 . S
H392 C368 0.950 . S
H393 C369 0.949 . S
H394 C371 0.950 . S
H395 C373 0.950 . S
C396 C397 1.349 . S
C396 C398 1.327 . S
C396 H421 0.950 . S
C397 C396 1.349 . S
C397 C413 1.349 . S
C398 C396 1.327 . S
C398 C417 1.429 . S
C398 H422 0.950 . S
C399 C416 1.574 . S
C399 C418 1.368 . S
C399 H423 0.949 . S
H400 C404 0.949 . S
C401 C402 1.349 . S
C401 C403 1.327 . S
C401 H424 0.950 . S
C402 C401 1.349 . S
C402 C414 1.349 . S
C403 C401 1.327 . S
C403 C419 1.429 . S
C403 H425 0.950 . S
C404 H400 0.949 . S
C404 C412 1.574 . S
C404 C420 1.368 . S
H405 C413 0.950 . S
H406 C411 0.950 . S
H407 C412 0.949 . S
H408 C414 0.950 . S
H409 C415 0.950 . S
H410 C416 0.949 . S
C411 H406 0.950 . S
C411 C413 1.327 . S
C411 C417 1.429 . S
C412 C404 1.574 . S
C412 H407 0.949 . S
C412 C418 1.368 . S
C413 C397 1.349 . S
C413 H405 0.950 . S
C413 C411 1.327 . S
C414 C402 1.349 . S
C414 H408 0.950 . S
C414 C415 1.327 . S
C415 H409 0.950 . S
C415 C414 1.327 . S
C415 C419 1.429 . S
C416 C399 1.574 . S
C416 H410 0.949 . S
C416 C420 1.368 . S
C417 C398 1.429 . S
C417 C411 1.429 . S
C417 C418 1.523 . S
C418 C399 1.368 . S
C418 C412 1.368 . S
C418 C417 1.523 . S
C419 C403 1.429 . S
C419 C415 1.429 . S
C419 C420 1.523 . S
C420 C404 1.368 . S
C420 C416 1.368 . S
C420 C419 1.523 . S
H421 C396 0.950 . S
H422 C398 0.950 . S
H423 C399 0.949 . S
H424 C401 0.950 . S
H425 C403 0.950 . S
C426 C427 1.349 . S
C426 C428 1.327 . S
C426 H451 0.950 . S
C427 C426 1.349 . S
C427 C443 1.349 . S
C428 C426 1.327 . S
C428 C447 1.429 . S
C428 H452 0.950 . S
C429 C446 1.574 . S
C429 C448 1.368 . S
C429 H453 0.949 . S
H430 C434 0.949 . S
C431 C432 1.349 . S
C431 C433 1.327 . S
C431 H454 0.950 . S
C432 C431 1.349 . S
C432 C444 1.349 . S
C433 C431 1.327 . S
C433 C449 1.429 . S
C433 H455 0.950 . S
C434 H430 0.949 . S
C434 C442 1.574 . S
C434 C450 1.368 . S
H435 C443 0.950 . S
H436 C441 0.950 . S
H437 C442 0.949 . S
H438 C444 0.950 . S
H439 C445 0.950 . S
H440 C446 0.949 . S
C441 H436 0.950 . S
C441 C443 1.327 . S
C441 C447 1.429 . S
C442 C434 1.574 . S
C442 H437 0.949 . S
C442 C448 1.368 . S
C443 C427 1.349 . S
C443 H435 0.950 . S
C443 C441 1.327 . S
C444 C432 1.349 . S
C444 H438 0.950 . S
C444 C445 1.327 . S
C445 H439 0.950 . S
C445 C444 1.327 . S
C445 C449 1.429 . S
C446 C429 1.574 . S
C446 H440 0.949 . S
C446 C450 1.368 . S
C447 C428 1.429 . S
C447 C441 1.429 . S
C447 C448 1.523 . S
C448 C429 1.368 . S
C448 C442 1.368 . S
C448 C447 1.523 . S
C449 C433 1.429 . S
C449 C445 1.429 . S
C449 C450 1.523 . S
C450 C434 1.368 . S
C450 C446 1.368 . S
C450 C449 1.523 . S
H451 C426 0.950 . S
H452 C428 0.950 . S
H453 C429 0.949 . S
H454 C431 0.950 . S
H455 C433 0.950 . S
C456 C457 1.349 . S
C456 C458 1.327 . S
C456 H481 0.950 . S
C457 C456 1.349 . S
C457 C473 1.349 . S
C458 C456 1.327 . S
C458 C477 1.429 . S
C458 H482 0.950 . S
C459 C476 1.574 . S
C459 C478 1.368 . S
C459 H483 0.949 . S
H460 C464 0.949 . S
C461 C462 1.349 . S
C461 C463 1.327 . S
C461 H484 0.950 . S
C462 C461 1.349 . S
C462 C474 1.349 . S
C463 C461 1.327 . S
C463 C479 1.429 . S
C463 H485 0.950 . S
C464 H460 0.949 . S
C464 C472 1.574 . S
C464 C480 1.368 . S
H465 C473 0.950 . S
H466 C471 0.950 . S
H467 C472 0.949 . S
H468 C474 0.950 . S
H469 C475 0.950 . S
H470 C476 0.949 . S
C471 H466 0.950 . S
C471 C473 1.327 . S
C471 C477 1.429 . S
C472 C464 1.574 . S
C472 H467 0.949 . S
C472 C478 1.368 . S
C473 C457 1.349 . S
C473 H465 0.950 . S
C473 C471 1.327 . S
C474 C462 1.349 . S
C474 H468 0.950 . S
C474 C475 1.327 . S
C475 H469 0.950 . S
C475 C474 1.327 . S
C475 C479 1.429 . S
C476 C459 1.574 . S
C476 H470 0.949 . S
C476 C480 1.368 . S
C477 C458 1.429 . S
C477 C471 1.429 . S
C477 C478 1.523 . S
C478 C459 1.368 . S
C478 C472 1.368 . S
C478 C477 1.523 . S
C479 C463 1.429 . S
C479 C475 1.429 . S
C479 C480 1.523 . S
C480 C464 1.368 . S
C480 C476 1.368 . S
C480 C479 1.523 . S
H481 C456 0.950 . S
H482 C458 0.950 . S
H483 C459 0.949 . S
H484 C461 0.950 . S
H485 C463 0.950 . S
C486 C487 1.349 . S
C486 C488 1.327 . S
C486 H511 0.950 . S
C487 C486 1.349 . S
C487 C503 1.349 . S
C488 C486 1.327 . S
C488 C507 1.429 . S
C488 H512 0.950 . S
C489 C506 1.574 . S
C489 C508 1.368 . S
C489 H513 0.949 . S
H490 C494 0.949 . S
C491 C492 1.349 . S
C491 C493 1.327 . S
C491 H514 0.950 . S
C492 C491 1.349 . S
C492 C504 1.349 . S
C493 C491 1.327 . S
C493 C509 1.429 . S
C493 H515 0.950 . S
C494 H490 0.949 . S
C494 C502 1.574 . S
C494 C510 1.368 . S
H495 C503 0.950 . S
H496 C501 0.950 . S
H497 C502 0.949 . S
H498 C504 0.950 . S
H499 C505 0.950 . S
H500 C506 0.949 . S
C501 H496 0.950 . S
C501 C503 1.327 . S
C501 C507 1.429 . S
C502 C494 1.574 . S
C502 H497 0.949 . S
C502 C508 1.368 . S
C503 C487 1.349 . S
C503 H495 0.950 . S
C503 C501 1.327 . S
C504 C492 1.349 . S
C504 H498 0.950 . S
C504 C505 1.327 . S
C505 H499 0.950 . S
C505 C504 1.327 . S
C505 C509 1.429 . S
C506 C489 1.574 . S
C506 H500 0.949 . S
C506 C510 1.368 . S
C507 C488 1.429 . S
C507 C501 1.429 . S
C507 C508 1.523 . S
C508 C489 1.368 . S
C508 C502 1.368 . S
C508 C507 1.523 . S
C509 C493 1.429 . S
C509 C505 1.429 . S
C509 C510 1.523 . S
C510 C494 1.368 . S
C510 C506 1.368 . S
C510 C509 1.523 . S
H511 C486 0.950 . S
H512 C488 0.950 . S
H513 C489 0.949 . S
H514 C491 0.950 . S
H515 C493 0.950 . S
C516 C517 1.349 . S
C516 C518 1.327 . S
C516 H541 0.950 . S
C517 C516 1.349 . S
C517 C533 1.349 . S
C518 C516 1.327 . S
C518 C537 1.429 . S
C518 H542 0.950 . S
C519 C536 1.574 . S
C519 C538 1.368 . S
C519 H543 0.949 . S
H520 C524 0.949 . S
C521 C522 1.349 . S
C521 C523 1.327 . S
C521 H544 0.950 . S
C522 C521 1.349 . S
C522 C534 1.349 . S
C523 C521 1.327 . S
C523 C539 1.429 . S
C523 H545 0.950 . S
C524 H520 0.949 . S
C524 C532 1.574 . S
C524 C540 1.368 . S
H525 C533 0.950 . S
H526 C531 0.950 . S
H527 C532 0.949 . S
H528 C534 0.950 . S
H529 C535 0.950 . S
H530 C536 0.949 . S
C531 H526 0.950 . S
C531 C533 1.327 . S
C531 C537 1.429 . S
C532 C524 1.574 . S
C532 H527 0.949 . S
C532 C538 1.368 . S
C533 C517 1.349 . S
C533 H525 0.950 . S
C533 C531 1.327 . S
C534 C522 1.349 . S
C534 H528 0.950 . S
C534 C535 1.327 . S
C535 H529 0.950 . S
C535 C534 1.327 . S
C535 C539 1.429 . S
C536 C519 1.574 . S
C536 H530 0.949 . S
C536 C540 1.368 . S
C537 C518 1.429 . S
C537 C531 1.429 . S
C537 C538 1.523 . S
C538 C519 1.368 . S
C538 C532 1.368 . S
C538 C537 1.523 . S
C539 C523 1.429 . S
C539 C535 1.429 . S
C539 C540 1.523 . S
C540 C524 1.368 . S
C540 C536 1.368 . S
C540 C539 1.523 . S
H541 C516 0.950 . S
H542 C518 0.950 . S
H543 C519 0.949 . S
H544 C521 0.950 . S
H545 C523 0.950 . S
C546 C547 1.349 . S
C546 C548 1.327 . S
C546 H571 0.950 . S
C547 C546 1.349 . S
C547 C563 1.349 . S
C548 C546 1.327 . S
C548 C567 1.429 . S
C548 H572 0.950 . S
C549 C566 1.574 . S
C549 C568 1.368 . S
C549 H573 0.949 . S
H550 C554 0.949 . S
C551 C552 1.349 . S
C551 C553 1.327 . S
C551 H574 0.950 . S
C552 C551 1.349 . S
C552 C564 1.349 . S
C553 C551 1.327 . S
C553 C569 1.429 . S
C553 H575 0.950 . S
C554 H550 0.949 . S
C554 C562 1.574 . S
C554 C570 1.368 . S
H555 C563 0.950 . S
H556 C561 0.950 . S
H557 C562 0.949 . S
H558 C564 0.950 . S
H559 C565 0.950 . S
H560 C566 0.949 . S
C561 H556 0.950 . S
C561 C563 1.327 . S
C561 C567 1.429 . S
C562 C554 1.574 . S
C562 H557 0.949 . S
C562 C568 1.368 . S
C563 C547 1.349 . S
C563 H555 0.950 . S
C563 C561 1.327 . S
C564 C552 1.349 . S
C564 H558 0.950 . S
C564 C565 1.327 . S
C565 H559 0.950 . S
C565 C564 1.327 . S
C565 C569 1.429 . S
C566 C549 1.574 . S
C566 H560 0.949 . S
C566 C570 1.368 . S
C567 C548 1.429 . S
C567 C561 1.429 . S
C567 C568 1.523 . S
C568 C549 1.368 . S
C568 C562 1.368 . S
C568 C567 1.523 . S
C569 C553 1.429 . S
C569 C565 1.429 . S
C569 C570 1.523 . S
C570 C554 1.368 . S
C570 C566 1.368 . S
C570 C569 1.523 . S
H571 C546 0.950 . S
H572 C548 0.950 . S
H573 C549 0.949 . S
H574 C551 0.950 . S
H575 C553 0.950 . S
C576 C577 1.349 . S
C576 C578 1.327 . S
C576 H601 0.950 . S
C577 C576 1.349 . S
C577 C593 1.349 . S
C578 C576 1.327 . S
C578 C597 1.429 . S
C578 H602 0.950 . S
C579 C596 1.574 . S
C579 C598 1.368 . S
C579 H603 0.949 . S
H580 C584 0.949 . S
C581 C582 1.349 . S
C581 C583 1.327 . S
C581 H604 0.950 . S
C582 C581 1.349 . S
C582 C594 1.349 . S
C583 C581 1.327 . S
C583 C599 1.429 . S
C583 H605 0.950 . S
C584 H580 0.949 . S
C584 C592 1.574 . S
C584 C600 1.368 . S
H585 C593 0.950 . S
H586 C591 0.950 . S
H587 C592 0.949 . S
H588 C594 0.950 . S
H589 C595 0.950 . S
H590 C596 0.949 . S
C591 H586 0.950 . S
C591 C593 1.327 . S
C591 C597 1.429 . S
C592 C584 1.574 . S
C592 H587 0.949 . S
C592 C598 1.368 . S
C593 C577 1.349 . S
C593 H585 0.950 . S
C593 C591 1.327 . S
C594 C582 1.349 . S
C594 H588 0.950 . S
C594 C595 1.327 . S
C595 H589 0.950 . S
C595 C594 1.327 . S
C595 C599 1.429 . S
C596 C579 1.574 . S
C596 H590 0.949 . S
C596 C600 1.368 . S
C597 C578 1.429 . S
C597 C591 1.429 . S
C597 C598 1.523 . S
C598 C579 1.368 . S
C598 C592 1.368 . S
C598 C597 1.523 . S
C599 C583 1.429 . S
C599 C595 1.429 . S
C599 C600 1.523 . S
C600 C584 1.368 . S
C600 C596 1.368 . S
C600 C599 1.523 . S
H601 C576 0.950 . S
H602 C578 0.950 . S
H603 C579 0.949 . S
H604 C581 0.950 . S
H605 C583 0.950 . S
C606 C607 1.349 . S
C606 C608 1.327 . S
C606 H631 0.950 . S
C607 C606 1.349 . S
C607 C623 1.349 . S
C608 C606 1.327 . S
C608 C627 1.429 . S
C608 H632 0.950 . S
C609 C626 1.574 . S
C609 C628 1.368 . S
C609 H633 0.949 . S
H610 C614 0.949 . S
C611 C612 1.349 . S
C611 C613 1.327 . S
C611 H634 0.950 . S
C612 C611 1.349 . S
C612 C624 1.349 . S
C613 C611 1.327 . S
C613 C629 1.429 . S
C613 H635 0.950 . S
C614 H610 0.949 . S
C614 C622 1.574 . S
C614 C630 1.368 . S
H615 C623 0.950 . S
H616 C621 0.950 . S
H617 C622 0.949 . S
H618 C624 0.950 . S
H619 C625 0.950 . S
H620 C626 0.949 . S
C621 H616 0.950 . S
C621 C623 1.327 . S
C621 C627 1.429 . S
C622 C614 1.574 . S
C622 H617 0.949 . S
C622 C628 1.368 . S
C623 C607 1.349 . S
C623 H615 0.950 . S
C623 C621 1.327 . S
C624 C612 1.349 . S
C624 H618 0.950 . S
C624 C625 1.327 . S
C625 H619 0.950 . S
C625 C624 1.327 . S
C625 C629 1.429 . S
C626 C609 1.574 . S
C626 H620 0.949 . S
C626 C630 1.368 . S
C627 C608 1.429 . S
C627 C621 1.429 . S
C627 C628 1.523 . S
C628 C609 1.368 . S
C628 C622 1.368 . S
C628 C627 1.523 . S
C629 C613 1.429 . S
C629 C625 1.429 . S
C629 C630 1.523 . S
C630 C614 1.368 . S
C630 C626 1.368 . S
C630 C629 1.523 . S
H631 C606 0.950 . S
H632 C608 0.950 . S
H633 C609 0.949 . S
H634 C611 0.950 . S
H635 C613 0.950 . S
C636 C637 1.349 . S
C636 C638 1.327 . S
C636 H661 0.950 . S
C637 C636 1.349 . S
C637 C653 1.349 . S
C638 C636 1.327 . S
C638 C657 1.429 . S
C638 H662 0.950 . S
C639 C656 1.574 . S
C639 C658 1.368 . S
C639 H663 0.949 . S
H640 C644 0.949 . S
C641 C642 1.349 . S
C641 C643 1.327 . S
C641 H664 0.950 . S
C642 C641 1.349 . S
C642 C654 1.349 . S
C643 C641 1.327 . S
C643 C659 1.429 . S
C643 H665 0.950 . S
C644 H640 0.949 . S
C644 C652 1.574 . S
C644 C660 1.368 . S
H645 C653 0.950 1_556 S
H646 C651 0.950 . S
H647 C652 0.949 . S
H648 C654 0.950 . S
H649 C655 0.950 . S
H650 C656 0.949 . S
C651 H646 0.950 . S
C651 C653 1.327 . S
C651 C657 1.429 . S
C652 C644 1.574 . S
C652 H647 0.949 . S
C652 C658 1.368 . S
C653 C637 1.349 . S
C653 H645 0.950 1_554 S
C653 C651 1.327 . S
C654 C642 1.349 . S
C654 H648 0.950 . S
C654 C655 1.327 . S
C655 H649 0.950 . S
C655 C654 1.327 . S
C655 C659 1.429 . S
C656 C639 1.574 . S
C656 H650 0.949 . S
C656 C660 1.368 . S
C657 C638 1.429 . S
C657 C651 1.429 . S
C657 C658 1.523 . S
C658 C639 1.368 . S
C658 C652 1.368 . S
C658 C657 1.523 . S
C659 C643 1.429 . S
C659 C655 1.429 . S
C659 C660 1.523 . S
C660 C644 1.368 . S
C660 C656 1.368 . S
C660 C659 1.523 . S
H661 C636 0.950 . S
H662 C638 0.950 . S
H663 C639 0.949 . S
H664 C641 0.950 . S
H665 C643 0.950 . S
C666 C667 1.349 . S
C666 C668 1.327 . S
C666 H691 0.950 . S
C667 C666 1.349 . S
C667 C683 1.349 . S
C668 C666 1.327 . S
C668 C687 1.429 . S
C668 H692 0.950 . S
C669 C686 1.574 . S
C669 C688 1.368 . S
C669 H693 0.949 . S
H670 C674 0.949 . S
C671 C672 1.349 . S
C671 C673 1.327 . S
C671 H694 0.950 . S
C672 C671 1.349 . S
C672 C684 1.349 . S
C673 C671 1.327 . S
C673 C689 1.429 . S
C673 H695 0.950 . S
C674 H670 0.949 . S
C674 C682 1.574 . S
C674 C690 1.368 . S
H675 C683 0.950 . S
H676 C681 0.950 . S
H677 C682 0.949 . S
H678 C684 0.950 . S
H679 C685 0.950 . S
H680 C686 0.949 . S
C681 H676 0.950 . S
C681 C683 1.327 . S
C681 C687 1.429 . S
C682 C674 1.574 . S
C682 H677 0.949 . S
C682 C688 1.368 . S
C683 C667 1.349 . S
C683 H675 0.950 . S
C683 C681 1.327 . S
C684 C672 1.349 . S
C684 H678 0.950 . S
C684 C685 1.327 . S
C685 H679 0.950 . S
C685 C684 1.327 . S
C685 C689 1.429 . S
C686 C669 1.574 . S
C686 H680 0.949 . S
C686 C690 1.368 . S
C687 C668 1.429 . S
C687 C681 1.429 . S
C687 C688 1.523 . S
C688 C669 1.368 . S
C688 C682 1.368 . S
C688 C687 1.523 . S
C689 C673 1.429 . S
C689 C685 1.429 . S
C689 C690 1.523 . S
C690 C674 1.368 . S
C690 C686 1.368 . S
C690 C689 1.523 . S
H691 C666 0.950 . S
H692 C668 0.950 . S
H693 C669 0.949 . S
H694 C671 0.950 . S
H695 C673 0.950 . S
C696 C697 1.349 . S
C696 C698 1.327 . S
C696 H721 0.950 . S
C697 C696 1.349 . S
C697 C713 1.349 . S
C698 C696 1.327 . S
C698 C717 1.429 . S
C698 H722 0.950 . S
C699 C716 1.574 . S
C699 C718 1.368 . S
C699 H723 0.949 . S
H700 C704 0.949 . S
C701 C702 1.349 . S
C701 C703 1.327 . S
C701 H724 0.950 . S
C702 C701 1.349 . S
C702 C714 1.349 . S
C703 C701 1.327 . S
C703 C719 1.429 . S
C703 H725 0.950 . S
C704 H700 0.949 . S
C704 C712 1.574 . S
C704 C720 1.368 . S
H705 C713 0.950 . S
H706 C711 0.950 . S
H707 C712 0.949 . S
H708 C714 0.950 . S
H709 C715 0.950 . S
H710 C716 0.949 . S
C711 H706 0.950 . S
C711 C713 1.327 . S
C711 C717 1.429 . S
C712 C704 1.574 . S
C712 H707 0.949 . S
C712 C718 1.368 . S
C713 C697 1.349 . S
C713 H705 0.950 . S
C713 C711 1.327 . S
C714 C702 1.349 . S
C714 H708 0.950 . S
C714 C715 1.327 . S
C715 H709 0.950 . S
C715 C714 1.327 . S
C715 C719 1.429 . S
C716 C699 1.574 . S
C716 H710 0.949 . S
C716 C720 1.368 . S
C717 C698 1.429 . S
C717 C711 1.429 . S
C717 C718 1.523 . S
C718 C699 1.368 . S
C718 C712 1.368 . S
C718 C717 1.523 . S
C719 C703 1.429 . S
C719 C715 1.429 . S
C719 C720 1.523 . S
C720 C704 1.368 . S
C720 C716 1.368 . S
C720 C719 1.523 . S
H721 C696 0.950 . S
H722 C698 0.950 . S
H723 C699 0.949 . S
H724 C701 0.950 . S
H725 C703 0.950 . S
C726 C727 1.349 . S
C726 C728 1.327 . S
C726 H751 0.950 . S
C727 C726 1.349 . S
C727 C743 1.349 . S
C728 C726 1.327 . S
C728 C747 1.429 . S
C728 H752 0.950 . S
C729 C746 1.574 . S
C729 C748 1.368 . S
C729 H753 0.949 . S
H730 C734 0.949 . S
C731 C732 1.349 . S
C731 C733 1.327 . S
C731 H754 0.950 . S
C732 C731 1.349 . S
C732 C744 1.349 . S
C733 C731 1.327 . S
C733 C749 1.429 . S
C733 H755 0.950 . S
C734 H730 0.949 . S
C734 C742 1.574 . S
C734 C750 1.368 . S
H735 C743 0.950 . S
H736 C741 0.950 . S
H737 C742 0.949 . S
H738 C744 0.950 . S
H739 C745 0.950 . S
H740 C746 0.949 . S
C741 H736 0.950 . S
C741 C743 1.327 . S
C741 C747 1.429 . S
C742 C734 1.574 . S
C742 H737 0.949 . S
C742 C748 1.368 . S
C743 C727 1.349 . S
C743 H735 0.950 . S
C743 C741 1.327 . S
C744 C732 1.349 . S
C744 H738 0.950 . S
C744 C745 1.327 . S
C745 H739 0.950 . S
C745 C744 1.327 . S
C745 C749 1.429 . S
C746 C729 1.574 . S
C746 H740 0.949 . S
C746 C750 1.368 . S
C747 C728 1.429 . S
C747 C741 1.429 . S
C747 C748 1.523 . S
C748 C729 1.368 . S
C748 C742 1.368 . S
C748 C747 1.523 . S
C749 C733 1.429 . S
C749 C745 1.429 . S
C749 C750 1.523 . S
C750 C734 1.368 . S
C750 C746 1.368 . S
C750 C749 1.523 . S
H751 C726 0.950 . S
H752 C728 0.950 . S
H753 C729 0.949 . S
H754 C731 0.950 . S
H755 C733 0.950 . S
C756 C757 1.349 . S
C756 C758 1.327 . S
C756 H781 0.950 . S
C757 C756 1.349 . S
C757 C773 1.349 . S
C758 C756 1.327 . S
C758 C777 1.429 . S
C758 H782 0.950 . S
C759 C776 1.574 . S
C759 C778 1.368 . S
C759 H783 0.949 . S
H760 C764 0.949 . S
C761 C762 1.349 . S
C761 C763 1.327 . S
C761 H784 0.950 . S
C762 C761 1.349 . S
C762 C774 1.349 . S
C763 C761 1.327 . S
C763 C779 1.429 . S
C763 H785 0.950 . S
C764 H760 0.949 . S
C764 C772 1.574 . S
C764 C780 1.368 . S
H765 C773 0.950 . S
H766 C771 0.950 . S
H767 C772 0.949 . S
H768 C774 0.950 . S
H769 C775 0.950 . S
H770 C776 0.949 . S
C771 H766 0.950 . S
C771 C773 1.327 . S
C771 C777 1.429 . S
C772 C764 1.574 . S
C772 H767 0.949 . S
C772 C778 1.368 . S
C773 C757 1.349 . S
C773 H765 0.950 . S
C773 C771 1.327 . S
C774 C762 1.349 . S
C774 H768 0.950 . S
C774 C775 1.327 . S
C775 H769 0.950 . S
C775 C774 1.327 . S
C775 C779 1.429 . S
C776 C759 1.574 . S
C776 H770 0.949 . S
C776 C780 1.368 . S
C777 C758 1.429 . S
C777 C771 1.429 . S
C777 C778 1.523 . S
C778 C759 1.368 . S
C778 C772 1.368 . S
C778 C777 1.523 . S
C779 C763 1.429 . S
C779 C775 1.429 . S
C779 C780 1.523 . S
C780 C764 1.368 . S
C780 C776 1.368 . S
C780 C779 1.523 . S
H781 C756 0.950 . S
H782 C758 0.950 . S
H783 C759 0.949 . S
H784 C761 0.950 . S
H785 C763 0.950 . S
C786 C787 1.349 . S
C786 C788 1.327 . S
C786 H811 0.950 . S
C787 C786 1.349 . S
C787 C803 1.349 . S
C788 C786 1.327 . S
C788 C807 1.429 . S
C788 H812 0.950 . S
C789 C806 1.574 . S
C789 C808 1.368 . S
C789 H813 0.949 . S
H790 C794 0.949 . S
C791 C792 1.349 . S
C791 C793 1.327 . S
C791 H814 0.950 . S
C792 C791 1.349 . S
C792 C804 1.349 . S
C793 C791 1.327 . S
C793 C809 1.429 . S
C793 H815 0.950 . S
C794 H790 0.949 . S
C794 C802 1.574 . S
C794 C810 1.368 . S
H795 C803 0.950 . S
H796 C801 0.950 . S
H797 C802 0.949 . S
H798 C804 0.950 . S
H799 C805 0.950 . S
H800 C806 0.949 . S
C801 H796 0.950 . S
C801 C803 1.327 . S
C801 C807 1.429 . S
C802 C794 1.574 . S
C802 H797 0.949 . S
C802 C808 1.368 . S
C803 C787 1.349 . S
C803 H795 0.950 . S
C803 C801 1.327 . S
C804 C792 1.349 . S
C804 H798 0.950 . S
C804 C805 1.327 . S
C805 H799 0.950 . S
C805 C804 1.327 . S
C805 C809 1.429 . S
C806 C789 1.574 . S
C806 H800 0.949 . S
C806 C810 1.368 . S
C807 C788 1.429 . S
C807 C801 1.429 . S
C807 C808 1.523 . S
C808 C789 1.368 . S
C808 C802 1.368 . S
C808 C807 1.523 . S
C809 C793 1.429 . S
C809 C805 1.429 . S
C809 C810 1.523 . S
C810 C794 1.368 . S
C810 C806 1.368 . S
C810 C809 1.523 . S
H811 C786 0.950 . S
H812 C788 0.950 . S
H813 C789 0.949 . S
H814 C791 0.950 . S
H815 C793 0.950 . S
C816 C817 1.349 . S
C816 C818 1.327 . S
C816 H841 0.950 . S
C817 C816 1.349 . S
C817 C833 1.349 . S
C818 C816 1.327 . S
C818 C837 1.429 . S
C818 H842 0.950 . S
C819 C836 1.574 . S
C819 C838 1.368 . S
C819 H843 0.949 . S
H820 C824 0.949 . S
C821 C822 1.349 . S
C821 C823 1.327 1_554 S
C821 H844 0.950 . S
C822 C821 1.349 . S
C822 C834 1.349 . S
C823 C821 1.327 1_556 S
C823 C839 1.429 . S
C823 H845 0.950 . S
C824 H820 0.949 . S
C824 C832 1.574 . S
C824 C840 1.368 . S
H825 C833 0.950 . S
H826 C831 0.950 . S
H827 C832 0.949 . S
H828 C834 0.950 . S
H829 C835 0.950 . S
H830 C836 0.949 . S
C831 H826 0.950 . S
C831 C833 1.327 . S
C831 C837 1.429 . S
C832 C824 1.574 . S
C832 H827 0.949 . S
C832 C838 1.368 . S
C833 C817 1.349 . S
C833 H825 0.950 . S
C833 C831 1.327 . S
C834 C822 1.349 . S
C834 H828 0.950 . S
C834 C835 1.327 . S
C835 H829 0.950 . S
C835 C834 1.327 . S
C835 C839 1.429 1_554 S
C836 C819 1.574 . S
C836 H830 0.949 . S
C836 C840 1.368 . S
C837 C818 1.429 . S
C837 C831 1.429 . S
C837 C838 1.523 . S
C838 C819 1.368 . S
C838 C832 1.368 . S
C838 C837 1.523 . S
C839 C823 1.429 . S
C839 C835 1.429 1_556 S
C839 C840 1.523 . S
C840 C824 1.368 . S
C840 C836 1.368 . S
C840 C839 1.523 . S
H841 C816 0.950 . S
H842 C818 0.950 . S
H843 C819 0.949 . S
H844 C821 0.950 . S
H845 C823 0.950 . S
C846 C847 1.349 . S
C846 C848 1.327 . S
C846 H871 0.950 . S
C847 C846 1.349 . S
C847 C863 1.349 . S
C848 C846 1.327 . S
C848 C867 1.429 . S
C848 H872 0.950 . S
C849 C866 1.574 . S
C849 C868 1.368 . S
C849 H873 0.949 . S
H850 C854 0.949 . S
C851 C852 1.349 . S
C851 C853 1.327 . S
C851 H874 0.950 . S
C852 C851 1.349 . S
C852 C864 1.349 . S
C853 C851 1.327 . S
C853 C869 1.429 . S
C853 H875 0.950 . S
C854 H850 0.949 . S
C854 C862 1.574 . S
C854 C870 1.368 . S
H855 C863 0.950 . S
H856 C861 0.950 . S
H857 C862 0.949 . S
H858 C864 0.950 . S
H859 C865 0.950 . S
H860 C866 0.949 . S
C861 H856 0.950 . S
C861 C863 1.327 . S
C861 C867 1.429 . S
C862 C854 1.574 . S
C862 H857 0.949 . S
C862 C868 1.368 . S
C863 C847 1.349 . S
C863 H855 0.950 . S
C863 C861 1.327 . S
C864 C852 1.349 . S
C864 H858 0.950 . S
C864 C865 1.327 . S
C865 H859 0.950 . S
C865 C864 1.327 . S
C865 C869 1.429 . S
C866 C849 1.574 . S
C866 H860 0.949 . S
C866 C870 1.368 . S
C867 C848 1.429 . S
C867 C861 1.429 . S
C867 C868 1.523 . S
C868 C849 1.368 . S
C868 C862 1.368 . S
C868 C867 1.523 . S
C869 C853 1.429 . S
C869 C865 1.429 . S
C869 C870 1.523 . S
C870 C854 1.368 . S
C870 C866 1.368 . S
C870 C869 1.523 . S
H871 C846 0.950 . S
H872 C848 0.950 . S
H873 C849 0.949 . S
H874 C851 0.950 . S
H875 C853 0.950 . S
C876 C877 1.349 . S
C876 C878 1.327 . S
C876 H901 0.950 . S
C877 C876 1.349 . S
C877 C893 1.349 . S
C878 C876 1.327 . S
C878 C897 1.429 . S
C878 H902 0.950 . S
C879 C896 1.574 . S
C879 C898 1.368 . S
C879 H903 0.949 . S
H880 C884 0.949 . S
C881 C882 1.349 . S
C881 C883 1.327 . S
C881 H904 0.950 . S
C882 C881 1.349 . S
C882 C894 1.349 . S
C883 C881 1.327 . S
C883 C899 1.429 . S
C883 H905 0.950 . S
C884 H880 0.949 . S
C884 C892 1.574 . S
C884 C900 1.368 . S
H885 C893 0.950 . S
H886 C891 0.950 . S
H887 C892 0.949 . S
H888 C894 0.950 . S
H889 C895 0.950 . S
H890 C896 0.949 . S
C891 H886 0.950 . S
C891 C893 1.327 . S
C891 C897 1.429 . S
C892 C884 1.574 . S
C892 H887 0.949 . S
C892 C898 1.368 . S
C893 C877 1.349 . S
C893 H885 0.950 . S
C893 C891 1.327 . S
C894 C882 1.349 . S
C894 H888 0.950 . S
C894 C895 1.327 . S
C895 H889 0.950 . S
C895 C894 1.327 . S
C895 C899 1.429 . S
C896 C879 1.574 . S
C896 H890 0.949 . S
C896 C900 1.368 . S
C897 C878 1.429 . S
C897 C891 1.429 . S
C897 C898 1.523 . S
C898 C879 1.368 . S
C898 C892 1.368 . S
C898 C897 1.523 . S
C899 C883 1.429 . S
C899 C895 1.429 . S
C899 C900 1.523 . S
C900 C884 1.368 . S
C900 C896 1.368 . S
C900 C899 1.523 . S
H901 C876 0.950 . S
H902 C878 0.950 . S
H903 C879 0.949 . S
H904 C881 0.950 . S
H905 C883 0.950 . S
C906 C907 1.349 . S
C906 C908 1.327 . S
C906 H931 0.950 . S
C907 C906 1.349 . S
C907 C923 1.349 . S
C908 C906 1.327 . S
C908 C927 1.429 . S
C908 H932 0.950 . S
C909 C926 1.574 . S
C909 C928 1.368 . S
C909 H933 0.949 . S
H910 C914 0.949 . S
C911 C912 1.349 . S
C911 C913 1.327 . S
C911 H934 0.950 . S
C912 C911 1.349 . S
C912 C924 1.349 . S
C913 C911 1.327 . S
C913 C929 1.429 . S
C913 H935 0.950 . S
C914 H910 0.949 . S
C914 C922 1.574 . S
C914 C930 1.368 . S
H915 C923 0.950 . S
H916 C921 0.950 . S
H917 C922 0.949 . S
H918 C924 0.950 . S
H919 C925 0.950 . S
H920 C926 0.949 . S
C921 H916 0.950 . S
C921 C923 1.327 . S
C921 C927 1.429 . S
C922 C914 1.574 . S
C922 H917 0.949 . S
C922 C928 1.368 . S
C923 C907 1.349 . S
C923 H915 0.950 . S
C923 C921 1.327 . S
C924 C912 1.349 . S
C924 H918 0.950 . S
C924 C925 1.327 . S
C925 H919 0.950 . S
C925 C924 1.327 . S
C925 C929 1.429 . S
C926 C909 1.574 . S
C926 H920 0.949 . S
C926 C930 1.368 . S
C927 C908 1.429 . S
C927 C921 1.429 . S
C927 C928 1.523 . S
C928 C909 1.368 . S
C928 C922 1.368 . S
C928 C927 1.523 . S
C929 C913 1.429 . S
C929 C925 1.429 . S
C929 C930 1.523 . S
C930 C914 1.368 . S
C930 C926 1.368 . S
C930 C929 1.523 . S
H931 C906 0.950 . S
H932 C908 0.950 . S
H933 C909 0.949 . S
H934 C911 0.950 . S
H935 C913 0.950 . S
C936 C937 1.349 . S
C936 C938 1.327 . S
C936 H961 0.950 . S
C937 C936 1.349 . S
C937 C953 1.349 . S
C938 C936 1.327 . S
C938 C957 1.429 . S
C938 H962 0.950 . S
C939 C956 1.574 . S
C939 C958 1.368 . S
C939 H963 0.949 . S
H940 C944 0.949 . S
C941 C942 1.349 . S
C941 C943 1.327 . S
C941 H964 0.950 . S
C942 C941 1.349 . S
C942 C954 1.349 . S
C943 C941 1.327 . S
C943 C959 1.429 . S
C943 H965 0.950 . S
C944 H940 0.949 . S
C944 C952 1.574 . S
C944 C960 1.368 . S
H945 C953 0.950 . S
H946 C951 0.950 . S
H947 C952 0.949 . S
H948 C954 0.950 . S
H949 C955 0.950 . S
H950 C956 0.949 . S
C951 H946 0.950 . S
C951 C953 1.327 . S
C951 C957 1.429 . S
C952 C944 1.574 . S
C952 H947 0.949 . S
C952 C958 1.368 . S
C953 C937 1.349 . S
C953 H945 0.950 . S
C953 C951 1.327 . S
C954 C942 1.349 . S
C954 H948 0.950 . S
C954 C955 1.327 . S
C955 H949 0.950 . S
C955 C954 1.327 . S
C955 C959 1.429 . S
C956 C939 1.574 . S
C956 H950 0.949 . S
C956 C960 1.368 . S
C957 C938 1.429 . S
C957 C951 1.429 . S
C957 C958 1.523 . S
C958 C939 1.368 . S
C958 C952 1.368 . S
C958 C957 1.523 . S
C959 C943 1.429 . S
C959 C955 1.429 . S
C959 C960 1.523 . S
C960 C944 1.368 . S
C960 C956 1.368 . S
C960 C959 1.523 . S
H961 C936 0.950 . S
H962 C938 0.950 . S
H963 C939 0.949 . S
H964 C941 0.950 . S
H965 C943 0.950 . S
C966 C967 1.349 . S
C966 C968 1.327 . S
C966 H991 0.950 . S
C967 C966 1.349 . S
C967 C983 1.349 . S
C968 C966 1.327 . S
C968 C987 1.429 . S
C968 H992 0.950 . S
C969 C986 1.574 . S
C969 C988 1.368 . S
C969 H993 0.949 . S
H970 C974 0.949 . S
C971 C972 1.349 . S
C971 C973 1.327 . S
C971 H994 0.950 . S
C972 C971 1.349 . S
C972 C984 1.349 . S
C973 C971 1.327 . S
C973 C989 1.429 . S
C973 H995 0.950 . S
C974 H970 0.949 . S
C974 C982 1.574 . S
C974 C990 1.368 . S
H975 C983 0.950 . S
H976 C981 0.950 . S
H977 C982 0.949 . S
H978 C984 0.950 . S
H979 C985 0.950 . S
H980 C986 0.949 . S
C981 H976 0.950 . S
C981 C983 1.327 . S
C981 C987 1.429 . S
C982 C974 1.574 . S
C982 H977 0.949 . S
C982 C988 1.368 . S
C983 C967 1.349 . S
C983 H975 0.950 . S
C983 C981 1.327 . S
C984 C972 1.349 . S
C984 H978 0.950 . S
C984 C985 1.327 . S
C985 H979 0.950 . S
C985 C984 1.327 . S
C985 C989 1.429 . S
C986 C969 1.574 . S
C986 H980 0.949 . S
C986 C990 1.368 . S
C987 C968 1.429 . S
C987 C981 1.429 . S
C987 C988 1.523 . S
C988 C969 1.368 . S
C988 C982 1.368 . S
C988 C987 1.523 . S
C989 C973 1.429 . S
C989 C985 1.429 . S
C989 C990 1.523 . S
C990 C974 1.368 . S
C990 C986 1.368 . S
C990 C989 1.523 . S
H991 C966 0.950 . S
H992 C968 0.950 . S
H993 C969 0.949 . S
H994 C971 0.950 . S
H995 C973 0.950 . S
C996 C997 1.349 . S
C996 C998 1.327 . S
C996 H1021 0.950 . S
C997 C996 1.349 . S
C997 C1013 1.349 . S
C998 C996 1.327 . S
C998 C1017 1.429 . S
C998 H1022 0.950 . S
C999 C1016 1.574 . S
C999 C1018 1.368 . S
C999 H1023 0.949 . S
H1000 C1004 0.949 . S
C1001 C1002 1.349 . S
C1001 C1003 1.327 . S
C1001 H1024 0.950 . S
C1002 C1001 1.349 . S
C1002 C1014 1.349 . S
C1003 C1001 1.327 . S
C1003 C1019 1.429 . S
C1003 H1025 0.950 . S
C1004 H1000 0.949 . S
C1004 C1012 1.574 . S
C1004 C1020 1.368 . S
H1005 C1013 0.950 . S
H1006 C1011 0.950 . S
H1007 C1012 0.949 . S
H1008 C1014 0.950 . S
H1009 C1015 0.950 . S
H1010 C1016 0.949 . S
C1011 H1006 0.950 . S
C1011 C1013 1.327 . S
C1011 C1017 1.429 . S
C1012 C1004 1.574 . S
C1012 H1007 0.949 . S
C1012 C1018 1.368 . S
C1013 C997 1.349 . S
C1013 H1005 0.950 . S
C1013 C1011 1.327 . S
C1014 C1002 1.349 . S
C1014 H1008 0.950 . S
C1014 C1015 1.327 . S
C1015 H1009 0.950 . S
C1015 C1014 1.327 . S
C1015 C1019 1.429 . S
C1016 C999 1.574 . S
C1016 H1010 0.949 . S
C1016 C1020 1.368 . S
C1017 C998 1.429 . S
C1017 C1011 1.429 . S
C1017 C1018 1.523 . S
C1018 C999 1.368 . S
C1018 C1012 1.368 . S
C1018 C1017 1.523 . S
C1019 C1003 1.429 . S
C1019 C1015 1.429 . S
C1019 C1020 1.523 . S
C1020 C1004 1.368 . S
C1020 C1016 1.368 . S
C1020 C1019 1.523 . S
H1021 C996 0.950 . S
H1022 C998 0.950 . S
H1023 C999 0.949 . S
H1024 C1001 0.950 . S
H1025 C1003 0.950 . S
C1026 C1027 1.349 . S
C1026 C1028 1.327 . S
C1026 H1051 0.950 . S
C1027 C1026 1.349 . S
C1027 C1043 1.349 . S
C1028 C1026 1.327 . S
C1028 C1047 1.429 . S
C1028 H1052 0.950 . S
C1029 C1046 1.574 1_554 S
C1029 C1048 1.368 . S
C1029 H1053 0.949 . S
H1030 C1034 0.949 . S
C1031 C1032 1.349 . S
C1031 C1033 1.327 . S
C1031 H1054 0.950 . S
C1032 C1031 1.349 . S
C1032 C1044 1.349 . S
C1033 C1031 1.327 . S
C1033 C1049 1.429 . S
C1033 H1055 0.950 . S
C1034 H1030 0.949 . S
C1034 C1042 1.574 . S
C1034 C1050 1.368 1_554 S
H1035 C1043 0.950 . S
H1036 C1041 0.950 . S
H1037 C1042 0.949 . S
H1038 C1044 0.950 . S
H1039 C1045 0.950 . S
H1040 C1046 0.949 . S
C1041 H1036 0.950 . S
C1041 C1043 1.327 . S
C1041 C1047 1.429 . S
C1042 C1034 1.574 . S
C1042 H1037 0.949 . S
C1042 C1048 1.368 . S
C1043 C1027 1.349 . S
C1043 H1035 0.950 . S
C1043 C1041 1.327 . S
C1044 C1032 1.349 . S
C1044 H1038 0.950 . S
C1044 C1045 1.327 . S
C1045 H1039 0.950 . S
C1045 C1044 1.327 . S
C1045 C1049 1.429 . S
C1046 C1029 1.574 1_556 S
C1046 H1040 0.949 . S
C1046 C1050 1.368 . S
C1047 C1028 1.429 . S
C1047 C1041 1.429 . S
C1047 C1048 1.523 . S
C1048 C1029 1.368 . S
C1048 C1042 1.368 . S
C1048 C1047 1.523 . S
C1049 C1033 1.429 . S
C1049 C1045 1.429 . S
C1049 C1050 1.523 . S
C1050 C1034 1.368 1_556 S
C1050 C1046 1.368 . S
C1050 C1049 1.523 . S
H1051 C1026 0.950 . S
H1052 C1028 0.950 . S
H1053 C1029 0.949 . S
H1054 C1031 0.950 . S
H1055 C1033 0.950 . S
C1056 C1057 1.349 . S
C1056 C1058 1.327 . S
C1056 H1081 0.950 . S
C1057 C1056 1.349 . S
C1057 C1073 1.349 . S
C1058 C1056 1.327 . S
C1058 C1077 1.429 . S
C1058 H1082 0.950 . S
C1059 C1076 1.574 . S
C1059 C1078 1.368 . S
C1059 H1083 0.949 . S
H1060 C1064 0.949 . S
C1061 C1062 1.349 . S
C1061 C1063 1.327 . S
C1061 H1084 0.950 . S
C1062 C1061 1.349 . S
C1062 C1074 1.349 . S
C1063 C1061 1.327 . S
C1063 C1079 1.429 . S
C1063 H1085 0.950 . S
C1064 H1060 0.949 . S
C1064 C1072 1.574 . S
C1064 C1080 1.368 . S
H1065 C1073 0.950 . S
H1066 C1071 0.950 . S
H1067 C1072 0.949 . S
H1068 C1074 0.950 . S
H1069 C1075 0.950 . S
H1070 C1076 0.949 . S
C1071 H1066 0.950 . S
C1071 C1073 1.327 . S
C1071 C1077 1.429 . S
C1072 C1064 1.574 . S
C1072 H1067 0.949 . S
C1072 C1078 1.368 . S
C1073 C1057 1.349 . S
C1073 H1065 0.950 . S
C1073 C1071 1.327 . S
C1074 C1062 1.349 . S
C1074 H1068 0.950 . S
C1074 C1075 1.327 . S
C1075 H1069 0.950 . S
C1075 C1074 1.327 . S
C1075 C1079 1.429 . S
C1076 C1059 1.574 . S
C1076 H1070 0.949 . S
C1076 C1080 1.368 . S
C1077 C1058 1.429 . S
C1077 C1071 1.429 . S
C1077 C1078 1.523 . S
C1078 C1059 1.368 . S
C1078 C1072 1.368 . S
C1078 C1077 1.523 . S
C1079 C1063 1.429 . S
C1079 C1075 1.429 . S
C1079 C1080 1.523 . S
C1080 C1064 1.368 . S
C1080 C1076 1.368 . S
C1080 C1079 1.523 . S
H1081 C1056 0.950 . S
H1082 C1058 0.950 . S
H1083 C1059 0.949 . S
H1084 C1061 0.950 . S
H1085 C1063 0.950 . S
C372 C363 1.571 . S
C367 C45 1.570 . S
C397 C84 1.540 . S
C402 C288 1.485 . S
C427 C126 1.553 . S
C432 C311 1.595 . S
C457 C189 1.435 . S
C462 C324 1.433 . S
C492 C327 1.531 . S
C487 C228 1.585 . S
C517 C270 1.439 . S
C522 C340 1.420 . S
C547 C69 1.453 . S
C552 C301 1.419 . S
C577 C141 1.590 . S
C582 C314 1.529 . S
C607 C174 1.414 . S
C612 C337 1.435 . S
C642 C350 1.595 . S
C637 C213 1.569 . S
C672 C353 1.483 . S
C667 C285 1.546 . S
C702 C298 1.573 . S
C697 C30 1.537 . S
C727 C36 1.464 . S
C732 C309 1.428 . S
C757 C93 1.446 . S
C762 C322 1.414 . S
C792 C332 1.450 . S
C787 C117 1.491 . S
C817 C180 1.456 . S
C822 C345 1.412 . S
C852 C361 1.459 . S
C847 C237 1.496 . S
C882 C293 1.410 . S
C877 C261 1.448 . S
C912 C358 1.407 . S
C907 C78 1.442 . S
C937 C132 1.500 . S
C942 C296 1.463 . S
C972 C306 1.412 . S
C967 C165 1.450 . S
C997 C222 1.484 . S
C1002 C319 1.447 . S
C1027 C276 1.451 . S
C1032 C335 1.418 . S
C1057 C21 1.460 . S
C1062 C348 1.427 . S
