# Generated by pormake.
# Topology hwx, (6,3)-cn, num edge types: 1
# Building blocks:
#     Node 0, Type 0, BuildingBlock: OJICUG_clean_sbu_0, # of connection points: 6
#     Node 1, Type 0, BuildingBlock: OJICUG_clean_sbu_0, # of connection points: 6
#     Node 2, Type 0, BuildingBlock: OJICUG_clean_sbu_0, # of connection points: 6
#     Node 3, Type 0, BuildingBlock: OJICUG_clean_sbu_0, # of connection points: 6
#     Node 4, Type 1, BuildingBlock: KAKCAD_clean_linker_0, # of connection points: 3
#     Node 5, Type 1, BuildingBlock: KAKCAD_clean_linker_0, # of connection points: 3
#     Node 6, Type 1, BuildingBlock: KAKCAD_clean_linker_0, # of connection points: 3
#     Node 7, Type 1, BuildingBlock: KAKCAD_clean_linker_0, # of connection points: 3
#     Node 8, Type 1, BuildingBlock: KAKCAD_clean_linker_0, # of connection points: 3
#     Node 9, Type 1, BuildingBlock: KAKCAD_clean_linker_0, # of connection points: 3
#     Node 10, Type 1, BuildingBlock: KAKCAD_clean_linker_0, # of connection points: 3
#     Node 11, Type 1, BuildingBlock: KAKCAD_clean_linker_0, # of connection points: 3
#     Edge 12, Type (0, 1), BuildingBlock: XUDNAN_clean_linker_2, # of connection points: 2
#     Edge 13, Type (0, 1), BuildingBlock: XUDNAN_clean_linker_2, # of connection points: 2
#     Edge 14, Type (0, 1), BuildingBlock: XUDNAN_clean_linker_2, # of connection points: 2
#     Edge 15, Type (0, 1), BuildingBlock: XUDNAN_clean_linker_2, # of connection points: 2
#     Edge 16, Type (0, 1), BuildingBlock: XUDNAN_clean_linker_2, # of connection points: 2
#     Edge 17, Type (0, 1), BuildingBlock: XUDNAN_clean_linker_2, # of connection points: 2
#     Edge 18, Type (0, 1), BuildingBlock: XUDNAN_clean_linker_2, # of connection points: 2
#     Edge 19, Type (0, 1), BuildingBlock: XUDNAN_clean_linker_2, # of connection points: 2
#     Edge 20, Type (0, 1), BuildingBlock: XUDNAN_clean_linker_2, # of connection points: 2
#     Edge 21, Type (0, 1), BuildingBlock: XUDNAN_clean_linker_2, # of connection points: 2
#     Edge 22, Type (0, 1), BuildingBlock: XUDNAN_clean_linker_2, # of connection points: 2
#     Edge 23, Type (0, 1), BuildingBlock: XUDNAN_clean_linker_2, # of connection points: 2
#     Edge 24, Type (0, 1), BuildingBlock: XUDNAN_clean_linker_2, # of connection points: 2
#     Edge 25, Type (0, 1), BuildingBlock: XUDNAN_clean_linker_2, # of connection points: 2
#     Edge 26, Type (0, 1), BuildingBlock: XUDNAN_clean_linker_2, # of connection points: 2
#     Edge 27, Type (0, 1), BuildingBlock: XUDNAN_clean_linker_2, # of connection points: 2
#     Edge 28, Type (0, 1), BuildingBlock: XUDNAN_clean_linker_2, # of connection points: 2
#     Edge 29, Type (0, 1), BuildingBlock: XUDNAN_clean_linker_2, # of connection points: 2
#     Edge 30, Type (0, 1), BuildingBlock: XUDNAN_clean_linker_2, # of connection points: 2
#     Edge 31, Type (0, 1), BuildingBlock: XUDNAN_clean_linker_2, # of connection points: 2
#     Edge 32, Type (0, 1), BuildingBlock: XUDNAN_clean_linker_2, # of connection points: 2
#     Edge 33, Type (0, 1), BuildingBlock: XUDNAN_clean_linker_2, # of connection points: 2
#     Edge 34, Type (0, 1), BuildingBlock: XUDNAN_clean_linker_2, # of connection points: 2
#     Edge 35, Type (0, 1), BuildingBlock: XUDNAN_clean_linker_2, # of connection points: 2
# Relax obj value: 0.076
# Max RMSD: 0.101
# Mean RMSD: 0.093
data_MOF--net-hwx--node1-OJICUG_clean_sbu_0--node2-KAKCAD_clean_linker_0--edge1-XUDNAN_clean_linker_2
_symmetry_space_group_name_H-M    P1
_symmetry_Int_Tables_number       1
_symmetry_cell_setting            triclinic
loop_
_symmetry_equiv_pos_as_xyz
'x, y, z'
_cell_length_a     61.204459
_cell_length_b     61.11421
_cell_length_c     27.600492
_cell_angle_alpha  90.001543
_cell_angle_beta   90.039493
_cell_angle_gamma 90.077336
loop_
_atom_site_label
_atom_site_type_symbol
_atom_site_fract_x
_atom_site_fract_y
_atom_site_fract_z
_atom_type_partial_charge
Sc0 Sc 0.21776 0.21652 0.03825 0.0
Sc1 Sc 0.17878 0.1855 0.97413 0.0
Sc2 Sc 0.2111 0.22425 0.9124 0.0
O3 O 0.20256 0.20876 0.97495 0.0
C4 C 0.2109 0.26336 0.98921 0.0
C5 C 0.16883 0.20928 0.07452 0.0
C6 C 0.1591 0.22081 0.90188 0.0
C7 C 0.214 0.16447 0.04541 0.0
C8 C 0.25756 0.21878 0.96366 0.0
C9 C 0.20445 0.17535 0.87571 0.0
O10 O 0.21435 0.25086 0.02518 0.0
O11 O 0.1637 0.19702 0.03923 0.0
O12 O 0.17772 0.22818 0.8896 0.0
O13 O 0.22238 0.18274 0.0575 0.0
O14 O 0.24542 0.2221 0.92712 0.0
O15 O 0.19088 0.17076 0.90897 0.0
O16 O 0.25 0.21613 0.00618 0.0
O17 O 0.19843 0.16277 0.01502 0.0
O18 O 0.2141 0.19377 0.87285 0.0
O19 O 0.18752 0.21818 0.07875 0.0
O20 O 0.2092 0.25636 0.94586 0.0
O21 O 0.1566 0.20599 0.93374 0.0
Sc22 Sc 0.27218 0.72326 0.45084 0.0
Sc23 Sc 0.31054 0.69127 0.51496 0.0
Sc24 Sc 0.28124 0.73339 0.57396 0.0
O25 O 0.28798 0.71586 0.5133 0.0
C26 C 0.28183 0.77081 0.49538 0.0
C27 C 0.32146 0.71688 0.41704 0.0
C28 C 0.33266 0.7262 0.58486 0.0
C29 C 0.27548 0.67126 0.44187 0.0
C30 C 0.23386 0.72834 0.52622 0.0
C31 C 0.28307 0.68406 0.61208 0.0
O32 O 0.27542 0.75804 0.46191 0.0
O33 O 0.32682 0.70355 0.45055 0.0
O34 O 0.31491 0.73587 0.59476 0.0
O35 O 0.26756 0.68966 0.42985 0.0
O36 O 0.24666 0.73395 0.56027 0.0
O37 O 0.29611 0.67725 0.57942 0.0
O38 O 0.2405 0.72229 0.48471 0.0
O39 O 0.29057 0.66922 0.47311 0.0
O40 O 0.27625 0.70371 0.61446 0.0
O41 O 0.30252 0.72515 0.41295 0.0
O42 O 0.28561 0.76433 0.53827 0.0
O43 O 0.33377 0.70975 0.55696 0.0
Sc44 Sc 0.77226 0.76797 0.96086 0.0
Sc45 Sc 0.81447 0.80356 0.99885 0.0
Sc46 Sc 0.7831 0.7749 0.0851 0.0
O47 O 0.78995 0.78214 0.01493 0.0
C48 C 0.73531 0.77768 0.039 0.0
C49 C 0.77754 0.81719 0.92353 0.0
C50 C 0.79252 0.82607 0.09143 0.0
C51 C 0.82032 0.76671 0.91742 0.0
C52 C 0.77797 0.72821 0.03522 0.0
C53 C 0.83539 0.77647 0.08552 0.0
O54 O 0.74164 0.77475 0.99564 0.0
O55 O 0.79397 0.82148 0.94999 0.0
O56 O 0.78353 0.80861 0.10646 0.0
O57 O 0.80101 0.75934 0.92124 0.0
O58 O 0.78193 0.74033 0.07156 0.0
O59 O 0.83729 0.78789 0.04723 0.0
O60 O 0.77386 0.73585 0.99333 0.0
O61 O 0.8273 0.78307 0.94146 0.0
O62 O 0.81699 0.77109 0.10327 0.0
O63 O 0.76852 0.79844 0.92182 0.0
O64 O 0.74836 0.77784 0.07486 0.0
O65 O 0.80452 0.82672 0.05384 0.0
Sc66 Sc 0.72332 0.2754 0.55809 0.0
Sc67 Sc 0.6844 0.30788 0.49671 0.0
Sc68 Sc 0.70868 0.26274 0.43855 0.0
O69 O 0.70541 0.28202 0.49786 0.0
C70 C 0.75802 0.26678 0.47386 0.0
C71 C 0.72469 0.32724 0.5576 0.0
C72 C 0.70553 0.31069 0.39192 0.0
C73 C 0.6767 0.28882 0.60232 0.0
C74 C 0.71003 0.22761 0.52393 0.0
C75 C 0.65776 0.27165 0.43677 0.0
O76 O 0.75283 0.26975 0.51792 0.0
O77 O 0.70652 0.32921 0.53564 0.0
O78 O 0.70917 0.29024 0.39042 0.0
O79 O 0.69591 0.28098 0.60513 0.0
O80 O 0.70799 0.23303 0.47982 0.0
O81 O 0.65929 0.29014 0.45772 0.0
O82 O 0.71497 0.24102 0.55738 0.0
O83 O 0.66922 0.29787 0.56416 0.0
O84 O 0.67403 0.25915 0.4301 0.0
O85 O 0.73365 0.30885 0.56555 0.0
O86 O 0.74389 0.2645 0.44044 0.0
O87 O 0.6978 0.32025 0.4292 0.0
C88 C 0.23306 0.55343 0.85154 0.0
C89 C 0.25085 0.5678 0.84634 0.0
C90 C 0.23208 0.53903 0.89085 0.0
C91 C 0.24869 0.53909 0.92594 0.0
C92 C 0.26684 0.55289 0.91979 0.0
C93 C 0.26799 0.56701 0.88013 0.0
C94 C 0.24629 0.52625 0.971 0.0
C95 C 0.2421 0.5037 0.96955 0.0
C96 C 0.23978 0.49169 0.01272 0.0
C97 C 0.24142 0.50269 0.05745 0.0
C98 C 0.24544 0.52532 0.05943 0.0
C99 C 0.24783 0.53691 0.01583 0.0
C100 C 0.24701 0.537 0.10672 0.0
C101 C 0.23343 0.53124 0.14592 0.0
C102 C 0.26189 0.55437 0.1127 0.0
C103 C 0.26275 0.56605 0.15609 0.0
C104 C 0.24905 0.56041 0.19487 0.0
C105 C 0.23565 0.46769 0.01149 0.0
C106 C 0.22147 0.45843 0.97689 0.0
C107 C 0.24551 0.45389 0.0459 0.0
C108 C 0.24067 0.4316 0.04693 0.0
C109 C 0.22609 0.42249 0.01322 0.0
C110 C 0.21683 0.436 0.9776 0.0
C111 C 0.23458 0.54273 0.18971 0.0
H112 H 0.2197 0.5537 0.8258 0.0
H113 H 0.2179 0.52858 0.89504 0.0
H114 H 0.27987 0.55314 0.94638 0.0
H115 H 0.2818 0.57804 0.87715 0.0
H116 H 0.24119 0.49549 0.9348 0.0
H117 H 0.25031 0.55447 0.0165 0.0
H118 H 0.23954 0.49361 0.09086 0.0
H119 H 0.22155 0.51819 0.14252 0.0
H120 H 0.27298 0.55895 0.08389 0.0
H121 H 0.27429 0.57941 0.15951 0.0
H122 H 0.21345 0.46859 0.95013 0.0
H123 H 0.25696 0.46032 0.07225 0.0
H124 H 0.22378 0.53817 0.21912 0.0
H125 H 0.20545 0.42935 0.95134 0.0
H126 H 0.24833 0.42144 0.07424 0.0
C127 C 0.9383 0.71 0.34837 0.0
C128 C 0.94512 0.72802 0.32048 0.0
C129 C 0.94793 0.70568 0.39316 0.0
C130 C 0.96478 0.71909 0.41071 0.0
C131 C 0.97244 0.7364 0.38186 0.0
C132 C 0.96265 0.74088 0.3372 0.0
C133 C 0.97338 0.71582 0.46024 0.0
C134 C 0.99594 0.71534 0.46893 0.0
C135 C 0.00417 0.71265 0.51624 0.0
C136 C 0.98926 0.71064 0.55488 0.0
C137 C 0.96669 0.71223 0.54682 0.0
C138 C 0.95887 0.71436 0.49934 0.0
C139 C 0.9514 0.7137 0.58819 0.0
C140 C 0.95235 0.69865 0.6266 0.0
C141 C 0.93621 0.73088 0.59013 0.0
C142 C 0.92232 0.73309 0.62983 0.0
C143 C 0.92319 0.71806 0.66822 0.0
C144 C 0.02817 0.71348 0.52543 0.0
C145 C 0.04311 0.70587 0.49057 0.0
C146 C 0.03643 0.7229 0.56822 0.0
C147 C 0.05888 0.72502 0.57548 0.0
C148 C 0.07379 0.71849 0.53952 0.0
C149 C 0.06557 0.70863 0.49717 0.0
C150 C 0.93821 0.70071 0.66615 0.0
H151 H 0.92517 0.69948 0.33607 0.0
H152 H 0.94197 0.69204 0.41451 0.0
H153 H 0.98533 0.74707 0.39481 0.0
H154 H 0.96814 0.75502 0.31693 0.0
H155 H 0.00699 0.71751 0.43867 0.0
H156 H 0.94142 0.71556 0.49296 0.0
H157 H 0.99513 0.70863 0.59163 0.0
H158 H 0.96394 0.68527 0.62589 0.0
H159 H 0.93533 0.74286 0.56126 0.0
H160 H 0.91073 0.74648 0.63031 0.0
H161 H 0.03752 0.69803 0.45764 0.0
H162 H 0.02564 0.7293 0.59581 0.0
H163 H 0.93923 0.68894 0.69541 0.0
H164 H 0.07635 0.70354 0.46825 0.0
H165 H 0.06446 0.73212 0.60923 0.0
C166 C 0.7332 0.43388 0.13296 0.0
C167 C 0.74447 0.41385 0.13166 0.0
C168 C 0.73721 0.44992 0.09784 0.0
C169 C 0.75246 0.44614 0.06074 0.0
C170 C 0.76446 0.4266 0.06089 0.0
C171 C 0.7606 0.41069 0.09607 0.0
C172 C 0.75493 0.46182 0.02016 0.0
C173 C 0.75751 0.48427 0.02887 0.0
C174 C 0.75971 0.49912 0.99013 0.0
C175 C 0.75931 0.49112 0.94227 0.0
C176 C 0.75647 0.4687 0.93315 0.0
C177 C 0.7544 0.4542 0.97227 0.0
C178 C 0.75542 0.46015 0.88298 0.0
C179 C 0.73879 0.44545 0.86986 0.0
C180 C 0.77163 0.46546 0.84892 0.0
C181 C 0.77174 0.45543 0.80329 0.0
C182 C 0.75547 0.44016 0.7908 0.0
C183 C 0.76222 0.52292 -0.00013 0.0
C184 C 0.75036 0.5329 0.03746 0.0
C185 C 0.7766 0.5358 0.97212 0.0
C186 C 0.77919 0.55809 0.98209 0.0
C187 C 0.7676 0.56789 0.02023 0.0
C188 C 0.7531 0.5551 0.04765 0.0
C189 C 0.73878 0.43562 0.82427 0.0
H190 H 0.72061 0.43678 0.15974 0.0
H191 H 0.72769 0.46485 0.09842 0.0
H192 H 0.77661 0.42346 0.03322 0.0
H193 H 0.76996 0.39568 0.09478 0.0
H194 H 0.75827 0.49008 0.06593 0.0
H195 H 0.75225 0.43686 0.96537 0.0
H196 H 0.76051 0.50237 0.91202 0.0
H197 H 0.72599 0.44122 0.89531 0.0
H198 H 0.78467 0.47671 0.85825 0.0
H199 H 0.78475 0.45932 0.77811 0.0
H200 H 0.7388 0.5236 0.05888 0.0
H201 H 0.78619 0.52859 0.9433 0.0
H202 H 0.72616 0.42373 0.81604 0.0
H203 H 0.74367 0.56232 0.07673 0.0
H204 H 0.79062 0.56754 0.96064 0.0
C205 C 0.03123 0.26187 0.65647 0.0
C206 C 0.05061 0.27314 0.66803 0.0
C207 C 0.02064 0.26556 0.61238 0.0
C208 C 0.02933 0.28038 0.57866 0.0
C209 C 0.04823 0.29222 0.59067 0.0
C210 C 0.05865 0.28879 0.63508 0.0
C211 C 0.01961 0.2822 0.52971 0.0
C212 C 0.997 0.28474 0.524 0.0
C213 C 0.98746 0.28438 0.4777 0.0
C214 C 0.00096 0.28185 0.4369 0.0
C215 C 0.02363 0.2787 0.44196 0.0
C216 C 0.0328 0.27925 0.48867 0.0
C217 C 0.03729 0.27236 0.39948 0.0
C218 C 0.02863 0.25865 0.36329 0.0
C219 C 0.05944 0.27847 0.39644 0.0
C220 C 0.0728 0.27016 0.35965 0.0
C221 C 0.06426 0.25576 0.32468 0.0
C222 C 0.96331 0.28454 0.4721 0.0
C223 C 0.95017 0.27209 0.50353 0.0
C224 C 0.95329 0.29597 0.43386 0.0
C225 C 0.9307 0.29463 0.42671 0.0
C226 C 0.91766 0.28191 0.45777 0.0
C227 C 0.92763 0.27083 0.4965 0.0
C228 C 0.04185 0.2507 0.32618 0.0
H229 H 0.0247 0.24946 0.68044 0.0
H230 H 0.0062 0.25604 0.60371 0.0
H231 H 0.05511 0.3039 0.56538 0.0
H232 H 0.07324 0.29814 0.64314 0.0
H233 H 0.98681 0.28674 0.5558 0.0
H234 H 0.05005 0.27596 0.49363 0.0
H235 H 0.99362 0.28134 0.40121 0.0
H236 H 0.0118 0.25324 0.36445 0.0
H237 H 0.06662 0.28931 0.42311 0.0
H238 H 0.08998 0.27442 0.35975 0.0
H239 H 0.95738 0.26271 0.53273 0.0
H240 H 0.96293 0.30589 0.40934 0.0
H241 H 0.03452 0.24013 0.29918 0.0
H242 H 0.91808 0.26062 0.52061 0.0
H243 H 0.92344 0.3036 0.39694 0.0
C244 C 0.71616 0.93881 0.67419 0.0
C245 C 0.73194 0.92225 0.67803 0.0
C246 C 0.71515 0.95192 0.6327 0.0
C247 C 0.73015 0.94894 0.59462 0.0
C248 C 0.74584 0.93221 0.5987 0.0
C249 C 0.74659 0.91892 0.63971 0.0
C250 C 0.73002 0.96351 0.55134 0.0
C251 C 0.72545 0.98593 0.5558 0.0
C252 C 0.72655 -9e-05 0.51541 0.0
C253 C 0.7328 0.99132 0.47019 0.0
C254 C 0.73759 0.96897 0.46515 0.0
C255 C 0.73555 0.95518 0.5056 0.0
C256 C 0.7453 0.95976 0.41836 0.0
C257 C 0.73559 0.96573 0.37407 0.0
C258 C 0.76209 0.94408 0.4182 0.0
C259 C 0.7682 0.93372 0.37537 0.0
C260 C 0.75787 0.93896 0.33152 0.0
C261 C 0.72163 0.02356 0.52106 0.0
C262 C 0.70365 0.03034 0.54891 0.0
C263 C 0.73498 0.0395 0.49933 0.0
C264 C 0.73045 0.06174 0.50538 0.0
C265 C 0.71243 0.06851 0.53314 0.0
C266 C 0.69909 0.05256 0.55483 0.0
C267 C 0.74189 0.95544 0.3309 0.0
H268 H 0.70465 0.94161 0.70332 0.0
H269 H 0.70263 0.96438 0.63055 0.0
H270 H 0.75802 0.92972 0.57082 0.0
H271 H 0.75918 0.90652 0.6422 0.0
H272 H 0.72175 0.99274 0.5911 0.0
H273 H 0.73832 0.93778 0.50135 0.0
H274 H 0.73412 0.00205 0.43908 0.0
H275 H 0.72258 0.97772 0.37302 0.0
H276 H 0.77035 0.93954 0.45143 0.0
H277 H 0.78084 0.92134 0.37663 0.0
H278 H 0.69296 0.01844 0.5658 0.0
H279 H 0.74909 0.03479 0.4781 0.0
H280 H 0.73366 0.95971 0.29745 0.0
H281 H 0.68518 0.05726 0.57673 0.0
H282 H 0.7409 0.07363 0.48773 0.0
C283 C 0.5251 0.2461 0.1883 0.0
C284 C 0.54123 0.26114 0.2029 0.0
C285 C 0.51524 0.24787 0.14274 0.0
C286 C 0.52123 0.26477 0.11082 0.0
C287 C 0.53655 0.28042 0.1264 0.0
C288 C 0.54649 0.27858 0.17173 0.0
C289 C 0.51263 0.26535 0.06042 0.0
C290 C 0.49072 0.26021 0.05042 0.0
C291 C 0.4829 0.25983 0.00248 0.0
C292 C 0.49727 0.26501 0.96432 0.0
C293 C 0.51917 0.27046 0.97371 0.0
C294 C 0.52668 0.27038 0.0218 0.0
C295 C 0.5346 0.27565 0.93368 0.0
C296 C 0.53486 0.26315 0.89084 0.0
C297 C 0.55016 0.29239 0.93946 0.0
C298 C 0.56636 0.29573 0.90473 0.0
C299 C 0.5673 0.28252 0.86316 0.0
C300 C 0.45978 0.25383 0.99231 0.0
C301 C 0.44943 0.23703 0.01861 0.0
C302 C 0.44787 0.2648 0.95613 0.0
C303 C 0.42625 0.259 0.94625 0.0
C304 C 0.41596 0.24222 0.97255 0.0
C305 C 0.42773 0.23136 0.00899 0.0
C306 C 0.55105 0.26661 0.8558 0.0
H307 H 0.52044 0.23264 0.21165 0.0
H308 H 0.50356 0.23548 0.13184 0.0
H309 H 0.54126 0.29386 0.10305 0.0
H310 H 0.559 0.29035 0.18137 0.0
H311 H 0.47967 0.25681 0.08014 0.0
H312 H 0.5438 0.27353 0.02906 0.0
H313 H 0.49147 0.26469 0.92724 0.0
H314 H 0.5232 0.25004 0.88538 0.0
H315 H 0.5501 0.30266 0.97146 0.0
H316 H 0.5785 0.30835 0.9109 0.0
H317 H 0.45821 0.22799 0.04618 0.0
H318 H 0.45517 0.27808 0.93579 0.0
H319 H 0.55149 0.25613 0.82417 0.0
H320 H 0.42027 0.21821 0.02947 0.0
H321 H 0.41745 0.26788 0.91845 0.0
C322 C 0.26835 0.03993 0.29431 0.0
C323 C 0.2694 0.06273 0.28811 0.0
C324 C 0.2745 0.03032 0.33803 0.0
C325 C 0.28256 0.04313 0.37652 0.0
C326 C 0.28473 0.06583 0.36944 0.0
C327 C 0.27802 0.07553 0.32604 0.0
C328 C 0.28722 0.03292 0.42456 0.0
C329 C 0.29419 0.01112 0.42736 0.0
C330 C 0.2946 -0.00011 0.4717 0.0
C331 C 0.29036 0.01144 0.51469 0.0
C332 C 0.28435 0.03368 0.51314 0.0
C333 C 0.28247 0.04408 0.46779 0.0
C334 C 0.27781 0.04568 0.55787 0.0
C335 C 0.26568 0.0352 0.59437 0.0
C336 C 0.28216 0.0682 0.56261 0.0
C337 C 0.27344 0.08019 0.60111 0.0
C338 C 0.2604 0.0699 0.63633 0.0
C339 C 0.29669 0.97567 0.47152 0.0
C340 C 0.2854 0.96354 0.43617 0.0
C341 C 0.30926 0.96443 0.50618 0.0
C342 C 0.31091 0.94154 0.50452 0.0
C343 C 0.30006 0.92962 0.46811 0.0
C344 C 0.28712 0.94088 0.4344 0.0
C345 C 0.25725 0.04712 0.63328 0.0
H346 H 0.26233 0.02941 0.26569 0.0
H347 H 0.27214 0.01286 0.34192 0.0
H348 H 0.29121 0.07624 0.39776 0.0
H349 H 0.27893 0.09316 0.32306 0.0
H350 H 0.29845 0.0024 0.39453 0.0
H351 H 0.27601 0.06054 0.46608 0.0
H352 H 0.29089 0.00287 0.54902 0.0
H353 H 0.26183 0.01794 0.59198 0.0
H354 H 0.29182 0.07675 0.53573 0.0
H355 H 0.27619 0.09768 0.60197 0.0
H356 H 0.27496 0.97156 0.40992 0.0
H357 H 0.31806 0.97334 0.53397 0.0
H358 H 0.24776 0.0385 0.66035 0.0
H359 H 0.27806 0.93212 0.40679 0.0
H360 H 0.32095 0.93321 0.53106 0.0
C361 C 0.46705 0.74186 0.81646 0.0
C362 C 0.449 0.7557 0.80921 0.0
C363 C 0.47691 0.74042 0.86214 0.0
C364 C 0.46859 0.7525 0.90127 0.0
C365 C 0.4509 0.76665 0.89366 0.0
C366 C 0.44124 0.76828 0.84814 0.0
C367 C 0.47771 0.7501 0.95056 0.0
C368 C 0.50013 0.7528 0.95908 0.0
C369 C 0.50829 0.75281 0.00668 0.0
C370 C 0.4939 0.74947 0.0456 0.0
C371 C 0.47147 0.74646 0.0375 0.0
C372 C 0.46356 0.74663 0.98979 0.0
C373 C 0.45612 0.74474 0.07888 0.0
C374 C 0.46141 0.73229 0.12011 0.0
C375 C 0.4363 0.75629 0.078 0.0
C376 C 0.42224 0.7557 0.11763 0.0
C377 C 0.42771 0.74369 0.1593 0.0
C378 C 0.53159 0.75762 0.01612 0.0
C379 C 0.54804 0.74719 0.98934 0.0
C380 C 0.53748 0.77281 0.05205 0.0
C381 C 0.55942 0.77737 0.06131 0.0
C382 C 0.57594 0.76678 0.03495 0.0
C383 C 0.57001 0.75166 0.99879 0.0
C384 C 0.44731 0.73175 0.15995 0.0
H385 H 0.47333 0.732 0.78699 0.0
H386 H 0.49057 0.7294 0.86726 0.0
H387 H 0.44434 0.77631 0.92319 0.0
H388 H 0.42716 0.77883 0.8439 0.0
H389 H 0.51102 0.75605 0.92894 0.0
H390 H 0.44627 0.74426 0.98304 0.0
H391 H 0.50012 0.7498 0.08237 0.0
H392 H 0.47648 0.72305 0.12165 0.0
H393 H 0.43184 0.76625 0.04709 0.0
H394 H 0.40708 0.76478 0.11567 0.0
H395 H 0.54391 0.7353 0.96169 0.0
H396 H 0.52509 0.78138 0.07263 0.0
H397 H 0.45199 0.7224 0.19163 0.0
H398 H 0.58235 0.74297 0.97834 0.0
H399 H 0.56342 0.78939 0.08878 0.0
H400 H 0.1623 0.24546 0.13256 0.0
H401 H 0.13806 0.18004 0.10269 0.0
H402 H 0.10975 0.18461 0.16519 0.0
H403 H 0.15242 0.24523 0.26278 0.0
H404 H 0.14348 0.27331 0.26456 0.0
H405 H 0.16284 0.26464 0.21933 0.0
H406 H 0.13735 0.27914 0.15165 0.0
H407 H 0.11792 0.28786 0.19662 0.0
H408 H 0.10948 0.26963 0.14876 0.0
H409 H 0.08441 0.19573 0.23013 0.0
H410 H 0.06163 0.21364 0.29154 0.0
H411 H 0.09998 0.27318 0.27632 0.0
C412 C 0.15115 0.23207 0.13965 0.0
C413 C 0.15239 0.21236 0.113 0.0
C414 C 0.13732 0.1953 0.12259 0.0
C415 C 0.12125 0.19769 0.15815 0.0
C416 C 0.1203 0.21733 0.18348 0.0
C417 C 0.13467 0.23432 0.17459 0.0
C418 C 0.12919 0.25409 0.20553 0.0
C419 C 0.14811 0.25964 0.2401 0.0
C420 C 0.12312 0.27384 0.17373 0.0
C421 C 0.1095 0.24548 0.23299 0.0
C422 C 0.10488 0.22417 0.21992 0.0
C423 C 0.08769 0.21251 0.24037 0.0
C424 C 0.07469 0.22296 0.27494 0.0
C425 C 0.07866 0.24502 0.28834 0.0
C426 C 0.09648 0.25632 0.26714 0.0
H427 H 0.30287 0.64689 0.64684 0.0
H428 H 0.24345 0.68535 0.65678 0.0
H429 H 0.22793 0.65836 0.71367 0.0
H430 H 0.27781 0.5933 0.65463 0.0
H431 H 0.29914 0.58201 0.69207 0.0
H432 H 0.3053 0.60372 0.65007 0.0
H433 H 0.32121 0.62711 0.72008 0.0
H434 H 0.31524 0.60542 0.7622 0.0
H435 H 0.30463 0.63251 0.77271 0.0
H436 H 0.21868 0.62725 0.76859 0.0
H437 H 0.21782 0.59601 0.82536 0.0
H438 H 0.28385 0.57865 0.78339 0.0
C439 C 0.28656 0.64954 0.66087 0.0
C440 C 0.27432 0.66815 0.64735 0.0
C441 C 0.25316 0.67125 0.66691 0.0
C442 C 0.24414 0.65595 0.69895 0.0
C443 C 0.25658 0.63776 0.71146 0.0
C444 C 0.27745 0.63462 0.69362 0.0
C445 C 0.2878 0.61432 0.71516 0.0
C446 C 0.2928 0.59733 0.67562 0.0
C447 C 0.30844 0.6202 0.74427 0.0
C448 C 0.26952 0.60662 0.74801 0.0
C449 C 0.25154 0.62019 0.74468 0.0
C450 C 0.23264 0.61648 0.77153 0.0
C451 C 0.23224 0.59865 0.80339 0.0
C452 C 0.25073 0.58495 0.80852 0.0
C453 C 0.26951 0.58891 0.78011 0.0
H454 H 0.83756 0.75496 0.17212 0.0
H455 H 0.87838 0.78184 0.05795 0.0
H456 H 0.91134 0.7705 0.10337 0.0
H457 H 0.87025 0.77232 0.26979 0.0
H458 H 0.86517 0.74824 0.3058 0.0
H459 H 0.84509 0.75728 0.26264 0.0
H460 H 0.84579 0.71913 0.22147 0.0
H461 H 0.86596 0.70998 0.26448 0.0
H462 H 0.87141 0.70813 0.20044 0.0
H463 H 0.93989 0.75727 0.16378 0.0
H464 H 0.96125 0.74407 0.23412 0.0
H465 H 0.90091 0.72713 0.30781 0.0
C466 C 0.85338 0.75834 0.15621 0.0
C467 C 0.85534 0.76927 0.11134 0.0
C468 C 0.87644 0.77348 0.09226 0.0
C469 C 0.89525 0.76705 0.11772 0.0
C470 C 0.89265 0.75642 0.16205 0.0
C471 C 0.8722 0.75213 0.18103 0.0
C472 C 0.87364 0.74136 0.23016 0.0
C473 C 0.86291 0.75566 0.2694 0.0
C474 C 0.86361 0.71828 0.22904 0.0
C475 C 0.89813 0.74046 0.23629 0.0
C476 C 0.90889 0.74905 0.1966 0.0
C477 C 0.93162 0.75043 0.19495 0.0
C478 C 0.94359 0.74301 0.23514 0.0
C479 C 0.93278 0.73442 0.2764 0.0
C480 C 0.90975 0.73309 0.2765 0.0
H481 H 0.70403 0.36385 0.59035 0.0
H482 H 0.76804 0.33419 0.5765 0.0
H483 H 0.78411 0.3644 0.62425 0.0
H484 H 0.72232 0.42283 0.59305 0.0
H485 H 0.70219 0.42951 0.63832 0.0
H486 H 0.6966 0.40844 0.59427 0.0
H487 H 0.68859 0.38102 0.66368 0.0
H488 H 0.69427 0.40187 0.70781 0.0
H489 H 0.70906 0.3764 0.70955 0.0
H490 H 0.79224 0.39451 0.68291 0.0
H491 H 0.79145 0.42072 0.75096 0.0
H492 H 0.72195 0.4302 0.72864 0.0
C493 C 0.72156 0.36419 0.59575 0.0
C494 C 0.73487 0.34689 0.57916 0.0
C495 C 0.75761 0.34741 0.58858 0.0
C496 C 0.76688 0.36455 0.61545 0.0
C497 C 0.75318 0.381 0.63274 0.0
C498 C 0.73099 0.38097 0.62319 0.0
C499 C 0.71937 0.3987 0.65151 0.0
C500 C 0.70954 0.41589 0.61723 0.0
C501 C 0.7018 0.3889 0.68512 0.0
C502 C 0.7383 0.40807 0.68006 0.0
C503 C 0.75776 0.39804 0.66784 0.0
C504 C 0.77719 0.4028 0.69209 0.0
C505 C 0.7766 0.41777 0.7306 0.0
C506 C 0.75666 0.42756 0.74492 0.0
C507 C 0.73744 0.42302 0.71836 0.0
H508 H 0.62505 0.29847 0.40477 0.0
H509 H 0.64353 0.2302 0.41717 0.0
H510 H 0.61132 0.21964 0.36866 0.0
H511 H 0.56382 0.28977 0.40171 0.0
H512 H 0.56044 0.31111 0.35727 0.0
H513 H 0.58208 0.31294 0.40148 0.0
H514 H 0.61036 0.31714 0.33228 0.0
H515 H 0.58894 0.31512 0.28797 0.0
H516 H 0.61175 0.29652 0.28564 0.0
H517 H 0.5812 0.21695 0.30855 0.0
H518 H 0.55579 0.22229 0.24046 0.0
H519 H 0.55636 0.29234 0.26679 0.0
C520 C 0.62183 0.28124 0.39887 0.0
C521 C 0.63664 0.26513 0.41511 0.0
C522 C 0.63231 0.2428 0.40523 0.0
C523 C 0.61401 0.23664 0.37792 0.0
C524 C 0.60016 0.25299 0.36083 0.0
C525 C 0.60375 0.27485 0.37116 0.0
C526 C 0.58811 0.28937 0.34332 0.0
C527 C 0.57269 0.30151 0.37803 0.0
C528 C 0.60054 0.30547 0.31036 0.0
C529 C 0.57589 0.27234 0.31403 0.0
C530 C 0.58276 0.25144 0.32543 0.0
C531 C 0.57527 0.23318 0.30013 0.0
C532 C 0.56073 0.23639 0.26155 0.0
C533 C 0.5539 0.25774 0.24831 0.0
C534 C 0.56123 0.27582 0.27591 0.0
H535 H 0.24153 0.16993 0.82012 0.0
H536 H 0.17774 0.14175 0.84974 0.0
H537 H 0.18535 0.11188 0.79239 0.0
H538 H 0.24338 0.15649 0.69212 0.0
H539 H 0.27206 0.14983 0.69266 0.0
H540 H 0.26142 0.16959 0.73492 0.0
H541 H 0.27727 0.1471 0.80628 0.0
H542 H 0.28788 0.12722 0.76427 0.0
H543 H 0.26995 0.11865 0.81248 0.0
H544 H 0.19937 0.08533 0.73213 0.0
H545 H 0.21922 0.06319 0.67237 0.0
H546 H 0.27507 0.10688 0.68466 0.0
C547 C 0.22911 0.15759 0.81408 0.0
C548 C 0.20901 0.15821 0.83928 0.0
C549 C 0.19328 0.14158 0.83097 0.0
C550 C 0.19742 0.12456 0.79841 0.0
C551 C 0.21744 0.12424 0.77465 0.0
C552 C 0.23308 0.14023 0.78204 0.0
C553 C 0.25348 0.13555 0.75265 0.0
C554 C 0.25783 0.15396 0.7159 0.0
C555 C 0.27331 0.13191 0.78591 0.0
C556 C 0.24674 0.11453 0.7275 0.0
C557 C 0.22587 0.10839 0.7407 0.0
C558 C 0.21583 0.08982 0.72179 0.0
C559 C 0.22738 0.0772 0.68816 0.0
C560 C 0.24889 0.08303 0.67398 0.0
C561 C 0.25865 0.10196 0.69432 0.0
H562 H 0.35396 0.69347 0.37138 0.0
H563 H 0.32627 0.75845 0.38635 0.0
H564 H 0.35272 0.77275 0.32704 0.0
H565 H 0.41123 0.71055 0.35192 0.0
H566 H 0.41614 0.68982 0.30677 0.0
H567 H 0.39669 0.6849 0.35457 0.0
H568 H 0.36678 0.6765 0.29071 0.0
H569 H 0.38611 0.68139 0.24279 0.0
H570 H 0.36082 0.69646 0.24446 0.0
H571 H 0.3803 0.77985 0.26419 0.0
H572 H 0.40672 0.77914 0.19703 0.0
H573 H 0.41567 0.70929 0.21812 0.0
C574 C 0.35382 0.71074 0.36265 0.0
C575 C 0.33824 0.72493 0.38338 0.0
C576 C 0.3381 0.74736 0.37058 0.0
C577 C 0.35311 0.75565 0.33723 0.0
C578 C 0.36805 0.74126 0.31673 0.0
C579 C 0.36852 0.71928 0.32858 0.0
C580 C 0.38513 0.70716 0.29795 0.0
C581 C 0.40338 0.69754 0.32971 0.0
C582 C 0.37404 0.68933 0.26715 0.0
C583 C 0.39358 0.72574 0.26671 0.0
C584 C 0.38369 0.74528 0.27877 0.0
C585 C 0.38822 0.76467 0.25435 0.0
C586 C 0.40311 0.76406 0.21602 0.0
C587 C 0.4131 0.74414 0.20206 0.0
C588 C 0.40846 0.7248 0.22828 0.0
H589 H 0.76156 0.81586 0.83078 0.0
H590 H 0.77269 0.85927 0.95263 0.0
H591 H 0.75791 0.89024 0.90539 0.0
H592 H 0.7797 0.85315 0.74259 0.0
H593 H 0.76029 0.84501 0.69684 0.0
H594 H 0.76885 0.82571 0.74223 0.0
H595 H 0.72844 0.81927 0.76649 0.0
H596 H 0.71976 0.83865 0.72118 0.0
H597 H 0.71169 0.84227 0.78346 0.0
H598 H 0.74372 0.9167 0.84426 0.0
H599 H 0.73482 0.93773 0.77033 0.0
H600 H 0.73508 0.87774 0.68644 0.0
C601 C 0.76047 0.83183 0.84763 0.0
C602 C 0.76802 0.83526 0.89532 0.0
C603 C 0.76694 0.85641 0.91603 0.0
C604 C 0.75843 0.87402 0.88966 0.0
C605 C 0.75132 0.87022 0.84248 0.0
C606 C 0.75247 0.84972 0.82139 0.0
C607 C 0.74591 0.85056 0.76851 0.0
C608 C 0.76482 0.84318 0.73562 0.0
C609 C 0.72521 0.83688 0.75939 0.0
C610 C 0.74134 0.87478 0.763 0.0
C611 C 0.74407 0.88573 0.80639 0.0
C612 C 0.74137 0.90831 0.81012 0.0
C613 C 0.73624 0.9201 0.76809 0.0
C614 C 0.73424 0.9093 0.72296 0.0
C615 C 0.73649 0.88633 0.72063 0.0
H616 H 0.85495 0.78378 0.86657 0.0
H617 H 0.81923 0.72357 0.89318 0.0
H618 H 0.8434 0.70399 0.83639 0.0
H619 H 0.86127 0.7753 0.74027 0.0
H620 H 0.88821 0.78715 0.73704 0.0
H621 H 0.8694 0.79607 0.78305 0.0
H622 H 0.89779 0.78661 0.84954 0.0
H623 H 0.91671 0.77765 0.80368 0.0
H624 H 0.9091 0.75941 0.85215 0.0
H625 H 0.87068 0.6911 0.77536 0.0
H626 H 0.89772 0.68644 0.70959 0.0
H627 H 0.91469 0.75522 0.72009 0.0
C628 C 0.85244 0.76642 0.86087 0.0
C629 C 0.83532 0.75515 0.88437 0.0
C630 C 0.83223 0.73252 0.87537 0.0
C631 C 0.84594 0.72123 0.84343 0.0
C632 C 0.86254 0.73283 0.82047 0.0
C633 C 0.86576 0.75495 0.82844 0.0
C634 C 0.88384 0.76383 0.79658 0.0
C635 C 0.87515 0.78163 0.7622 0.0
C636 C 0.90299 0.77238 0.82734 0.0
C637 C 0.89009 0.74331 0.76918 0.0
C638 C 0.87783 0.72554 0.78401 0.0
C639 C 0.88046 0.70487 0.76353 0.0
C640 C 0.89588 0.70234 0.72641 0.0
C641 C 0.9082 0.72047 0.70988 0.0
C642 C 0.90537 0.74113 0.73193 0.0
H643 H 0.71078 0.35558 0.3818 0.0
H644 H 0.71149 0.29446 0.30119 0.0
H645 H 0.72086 0.31443 0.22701 0.0
H646 H 0.68768 0.38908 0.28523 0.0
H647 H 0.70436 0.4126 0.299 0.0
H648 H 0.69692 0.39375 0.34641 0.0
H649 H 0.7378 0.38829 0.36745 0.0
H650 H 0.74537 0.40709 0.32006 0.0
H651 H 0.75652 0.37981 0.32069 0.0
H652 H 0.73054 0.3401 0.16197 0.0
H653 H 0.7403 0.37071 0.10844 0.0
H654 H 0.73457 0.4158 0.22949 0.0
C655 C 0.71273 0.34646 0.34845 0.0
C656 C 0.71041 0.32341 0.34751 0.0
C657 C 0.71329 0.31207 0.30312 0.0
C658 C 0.71857 0.32326 0.26061 0.0
C659 C 0.72097 0.34584 0.26282 0.0
C660 C 0.71817 0.35741 0.30538 0.0
C661 C 0.7223 0.38165 0.29738 0.0
C662 C 0.70158 0.39506 0.30761 0.0
C663 C 0.74165 0.38967 0.32823 0.0
C664 C 0.72789 0.38174 0.24379 0.0
C665 C 0.72694 0.36086 0.22478 0.0
C666 C 0.73146 0.35654 0.17636 0.0
C667 C 0.73718 0.37405 0.14634 0.0
C668 C 0.73848 0.39565 0.1648 0.0
C669 C 0.73364 0.3995 0.21424 0.0
H670 H 0.15793 0.24125 0.81406 0.0
H671 H 0.11627 0.21951 0.93187 0.0
H672 H 0.08388 0.23319 0.88752 0.0
H673 H 0.12763 0.29035 0.78197 0.0
H674 H 0.13207 0.2866 0.71796 0.0
H675 H 0.15197 0.27678 0.76087 0.0
H676 H 0.14903 0.23782 0.72421 0.0
H677 H 0.12923 0.24753 0.68111 0.0
H678 H 0.12264 0.2248 0.72011 0.0
H679 H 0.05597 0.24846 0.82854 0.0
H680 H 0.03478 0.26167 0.75822 0.0
H681 H 0.09515 0.27099 0.67813 0.0
C682 C 0.14205 0.23964 0.83098 0.0
C683 C 0.13963 0.22949 0.87662 0.0
C684 C 0.11849 0.22728 0.89695 0.0
C685 C 0.10003 0.23509 0.87215 0.0
C686 C 0.10302 0.24491 0.82702 0.0
C687 C 0.12351 0.24705 0.80656 0.0
C688 C 0.1223 0.25679 0.75629 0.0
C689 C 0.13419 0.27895 0.75418 0.0
C690 C 0.13132 0.24077 0.7182 0.0
C691 C 0.09788 0.25961 0.75132 0.0
C692 C 0.08702 0.25296 0.79265 0.0
C693 C 0.06432 0.25369 0.79597 0.0
C694 C 0.05242 0.26108 0.75567 0.0
C695 C 0.06322 0.26738 0.71238 0.0
C696 C 0.0863 0.26678 0.71076 0.0
H697 H 0.25996 0.66931 0.34947 0.0
H698 H 0.27559 0.62873 0.47364 0.0
H699 H 0.26681 0.5956 0.42576 0.0
H700 H 0.21581 0.63504 0.29844 0.0
H701 H 0.22446 0.64022 0.23709 0.0
H702 H 0.2288 0.66063 0.28326 0.0
H703 H 0.27013 0.66126 0.26287 0.0
H704 H 0.26597 0.6408 0.21695 0.0
H705 H 0.28547 0.63611 0.26479 0.0
H706 H 0.25866 0.56685 0.36225 0.0
H707 H 0.25416 0.54496 0.28724 0.0
H708 H 0.24612 0.60465 0.20437 0.0
C709 C 0.26095 0.65349 0.36702 0.0
C710 C 0.26814 0.65156 0.41543 0.0
C711 C 0.26995 0.63054 0.43665 0.0
C712 C 0.26493 0.61167 0.40981 0.0
C713 C 0.25832 0.61414 0.36176 0.0
C714 C 0.25641 0.63454 0.34055 0.0
C715 C 0.25121 0.63277 0.28711 0.0
C716 C 0.22873 0.64275 0.27583 0.0
C717 C 0.26927 0.64335 0.25613 0.0
C718 C 0.25091 0.60818 0.28126 0.0
C719 C 0.25461 0.59767 0.32484 0.0
C720 C 0.2556 0.57491 0.32801 0.0
C721 C 0.253 0.56263 0.28538 0.0
C722 C 0.24988 0.5732 0.24029 0.0
C723 C 0.24858 0.59622 0.23846 0.0
H724 H 0.36662 0.70293 0.62319 0.0
H725 H 0.3435 0.76889 0.597 0.0
H726 H 0.37575 0.78379 0.63953 0.0
H727 H 0.38159 0.71214 0.74106 0.0
H728 H 0.4053 0.69466 0.74114 0.0
H729 H 0.38323 0.6893 0.69988 0.0
H730 H 0.41021 0.69106 0.62763 0.0
H731 H 0.43242 0.69656 0.66886 0.0
H732 H 0.42701 0.71503 0.61939 0.0
H733 H 0.40725 0.79145 0.69285 0.0
H734 H 0.43395 0.79138 0.75984 0.0
H735 H 0.43583 0.72047 0.75559 0.0
C736 C 0.3688 0.7205 0.62521 0.0
C737 C 0.35286 0.73483 0.6065 0.0
C738 C 0.35568 0.75771 0.61108 0.0
C739 C 0.37401 0.7663 0.63473 0.0
C740 C 0.38927 0.75176 0.65383 0.0
C741 C 0.38682 0.72933 0.64964 0.0
C742 C 0.40374 0.71732 0.67957 0.0
C743 C 0.39281 0.7025 0.71766 0.0
C744 C 0.41927 0.70422 0.6469 0.0
C745 C 0.41542 0.73649 0.70289 0.0
C746 C 0.40721 0.7562 0.68642 0.0
C747 C 0.41406 0.77616 0.70553 0.0
C748 C 0.42913 0.77595 0.74368 0.0
C749 C 0.43694 0.75592 0.76272 0.0
C750 C 0.43053 0.73602 0.74094 0.0
H751 H 0.77872 0.82937 0.18499 0.0
H752 H 0.79756 0.86869 0.06086 0.0
H753 H 0.78979 0.90237 0.10774 0.0
H754 H 0.73474 0.86312 0.22588 0.0
H755 H 0.74066 0.85873 0.28912 0.0
H756 H 0.74741 0.83799 0.2453 0.0
H757 H 0.78772 0.8385 0.27432 0.0
H758 H 0.78108 0.85918 0.31833 0.0
H759 H 0.80255 0.86401 0.27494 0.0
H760 H 0.77891 0.93186 0.16905 0.0
H761 H 0.76868 0.95415 0.24082 0.0
H762 H 0.75834 0.89475 0.32352 0.0
C763 C 0.78117 0.84504 0.16746 0.0
C764 C 0.78865 0.8464 0.11919 0.0
C765 C 0.7919 0.86726 0.0979 0.0
C766 C 0.78743 0.88646 0.12415 0.0
C767 C 0.77993 0.88446 0.17166 0.0
C768 C 0.77704 0.86423 0.19313 0.0
C769 C 0.76941 0.86632 0.24495 0.0
C770 C 0.74671 0.85593 0.25168 0.0
C771 C 0.7862 0.85642 0.2802 0.0
C772 C 0.76845 0.89091 0.2495 0.0
C773 C 0.77435 0.90119 0.20685 0.0
C774 C 0.77436 0.92396 0.20266 0.0
C775 C 0.76847 0.93647 0.24338 0.0
C776 C 0.76296 0.92611 0.28758 0.0
C777 C 0.76279 0.90307 0.29029 0.0
H778 H 0.6316 0.2894 0.61005 0.0
H779 H 0.6913 0.28674 0.69509 0.0
H780 H 0.66965 0.28564 0.77002 0.0
H781 H 0.60046 0.32309 0.69311 0.0
H782 H 0.57518 0.30853 0.68361 0.0
H783 H 0.59523 0.30981 0.63592 0.0
H784 H 0.5957 0.26748 0.63116 0.0
H785 H 0.57565 0.26607 0.67881 0.0
H786 H 0.60125 0.2518 0.6851 0.0
H787 H 0.64229 0.28521 0.83555 0.0
H788 H 0.61008 0.28342 0.88892 0.0
H789 H 0.56746 0.28484 0.76319 0.0
C790 C 0.64006 0.2887 0.64449 0.0
C791 C 0.66315 0.28817 0.64668 0.0
C792 C 0.67364 0.28701 0.69241 0.0
C793 C 0.6615 0.28648 0.73527 0.0
C794 C 0.63885 0.28691 0.73193 0.0
C795 C 0.62814 0.28782 0.68788 0.0
C796 C 0.60354 0.28735 0.69495 0.0
C797 C 0.59298 0.30845 0.67576 0.0
C798 C 0.59345 0.26696 0.67109 0.0
C799 C 0.60222 0.28608 0.7498 0.0
C800 C 0.62283 0.28605 0.77022 0.0
C801 C 0.62603 0.28523 0.8201 0.0
C802 C 0.60765 0.28433 0.85009 0.0
C803 C 0.58633 0.28411 0.83018 0.0
C804 C 0.5836 0.28492 0.77931 0.0
H805 H 0.25081 0.15992 0.10117 0.0
H806 H 0.19433 0.12415 0.04782 0.0
H807 H 0.20462 0.09259 0.09856 0.0
H808 H 0.28781 0.11163 0.11099 0.0
H809 H 0.30037 0.1221 0.16534 0.0
H810 H 0.29014 0.14075 0.12012 0.0
H811 H 0.26627 0.15965 0.1853 0.0
H812 H 0.27619 0.14096 0.23055 0.0
H813 H 0.24723 0.14349 0.22007 0.0
H814 H 0.21767 0.06751 0.16362 0.0
H815 H 0.23395 0.04941 0.2343 0.0
H816 H 0.28363 0.10023 0.24166 0.0
C817 C 0.24084 0.1453 0.09932 0.0
C818 C 0.22173 0.14455 0.07054 0.0
C819 C 0.2091 0.1251 0.06935 0.0
C820 C 0.2148 0.10708 0.09807 0.0
C821 C 0.23336 0.10864 0.12711 0.0
C822 C 0.2464 0.1271 0.12737 0.0
C823 C 0.26474 0.12509 0.16395 0.0
C824 C 0.28709 0.12487 0.13857 0.0
C825 C 0.26352 0.14338 0.20222 0.0
C826 C 0.25943 0.10298 0.18566 0.0
C827 C 0.24136 0.09372 0.16368 0.0
C828 C 0.23222 0.07427 0.18022 0.0
C829 C 0.24173 0.06402 0.22038 0.0
C830 C 0.26038 0.07311 0.24352 0.0
C831 C 0.26942 0.09276 0.22519 0.0
H832 H 0.21674 0.29804 0.92621 0.0
H833 H 0.20088 0.28225 0.0756 0.0
H834 H 0.20039 0.3214 0.09578 0.0
H835 H 0.25316 0.34081 0.9527 0.0
H836 H 0.24524 0.3581 0.90279 0.0
H837 H 0.24216 0.32888 0.89812 0.0
H838 H 0.20103 0.33362 0.87857 0.0
H839 H 0.20401 0.36291 0.88298 0.0
H840 H 0.18395 0.34895 0.91948 0.0
H841 H 0.20472 0.36141 0.10227 0.0
H842 H 0.21299 0.40075 0.09399 0.0
H843 H 0.22587 0.39156 0.94078 0.0
C844 C 0.21275 0.30287 0.9629 0.0
C845 C 0.20889 0.28705 0.9993 0.0
C846 C 0.20405 0.29403 0.04711 0.0
C847 C 0.20361 0.31625 0.05896 0.0
C848 C 0.20797 0.33139 0.02263 0.0
C849 C 0.21234 0.32511 0.97551 0.0
C850 C 0.21774 0.34481 0.94425 0.0
C851 C 0.24096 0.34304 0.92325 0.0
C852 C 0.20066 0.34774 0.90393 0.0
C853 C 0.21622 0.36299 0.98153 0.0
C854 C 0.2104 0.35481 0.02638 0.0
C855 C 0.20905 0.36809 0.06725 0.0
C856 C 0.2139 0.39034 0.06228 0.0
C857 C 0.22003 0.3991 0.0168 0.0
C858 C 0.22093 0.38528 0.9758 0.0
H859 H 0.20159 0.70154 0.49096 0.0
H860 H 0.21299 0.75832 0.58201 0.0
H861 H 0.17332 0.76161 0.59634 0.0
H862 H 0.15191 0.71937 0.43614 0.0
H863 H 0.13905 0.69283 0.43748 0.0
H864 H 0.16835 0.69493 0.43401 0.0
H865 H 0.17207 0.67095 0.51101 0.0
H866 H 0.14276 0.66871 0.51464 0.0
H867 H 0.15808 0.67892 0.56568 0.0
H868 H 0.13267 0.76035 0.59595 0.0
H869 H 0.09348 0.75294 0.5869 0.0
H870 H 0.10854 0.69429 0.50401 0.0
C871 C 0.19567 0.71465 0.51383 0.0
C872 C 0.21022 0.72977 0.53517 0.0
C873 C 0.20202 0.74656 0.56547 0.0
C874 C 0.17956 0.74859 0.5737 0.0
C875 C 0.16562 0.73346 0.55211 0.0
C876 C 0.17331 0.71662 0.52339 0.0
C877 C 0.1548 0.70223 0.50569 0.0
C878 C 0.15346 0.70236 0.45003 0.0
C879 C 0.15707 0.67882 0.52545 0.0
C880 C 0.13549 0.71391 0.52816 0.0
C881 C 0.14212 0.73195 0.55445 0.0
C882 C 0.12725 0.74599 0.57635 0.0
C883 C 0.10495 0.74146 0.57135 0.0
C884 C 0.09763 0.72277 0.54538 0.0
C885 C 0.11331 0.7088 0.52383 0.0
H886 H 0.77415 0.69604 0.96582 0.0
H887 H 0.78167 0.70587 0.12091 0.0
H888 H 0.78081 0.66599 0.13339 0.0
H889 H 0.73699 0.65123 0.97294 0.0
H890 H 0.74851 0.63678 0.92209 0.0
H891 H 0.75032 0.66616 0.92498 0.0
H892 H 0.79242 0.6639 0.91626 0.0
H893 H 0.79074 0.63449 0.91333 0.0
H894 H 0.80786 0.64739 0.95819 0.0
H895 H 0.77775 0.62526 0.12973 0.0
H896 H 0.77357 0.58609 0.10963 0.0
H897 H 0.76849 0.60259 0.95712 0.0
C898 C 0.77568 0.68984 0.00242 0.0
C899 C 0.77793 0.70417 0.04237 0.0
C900 C 0.77995 0.6953 0.08965 0.0
C901 C 0.77948 0.67264 0.09717 0.0
C902 C 0.77712 0.65904 0.05708 0.0
C903 C 0.77535 0.66725 0.01062 0.0
C904 C 0.77276 0.64902 0.97386 0.0
C905 C 0.75084 0.65092 0.9469 0.0
C906 C 0.7921 0.64869 0.93832 0.0
C907 C 0.77311 0.62929 0.00705 0.0
C908 C 0.77563 0.63545 0.0549 0.0
C909 C 0.77585 0.62021 0.09239 0.0
C910 C 0.77335 0.59804 0.08066 0.0
C911 C 0.77072 0.59135 0.03187 0.0
C912 C 0.77074 0.60722 0.99466 0.0
H913 H 0.79278 0.27257 0.53516 0.0
H914 H 0.77661 0.26237 0.38351 0.0
H915 H 0.81574 0.26539 0.36246 0.0
H916 H 0.83421 0.31245 0.51598 0.0
H917 H 0.85132 0.30274 0.5646 0.0
H918 H 0.82216 0.2991 0.56773 0.0
H919 H 0.82737 0.25731 0.57916 0.0
H920 H 0.85655 0.26084 0.57633 0.0
H921 H 0.84314 0.24215 0.53543 0.0
H922 H 0.85679 0.27048 0.35809 0.0
H923 H 0.89644 0.27568 0.37124 0.0
H924 H 0.88502 0.28298 0.52555 0.0
C925 C 0.79737 0.27078 0.49749 0.0
C926 C 0.78154 0.26718 0.46101 0.0
C927 C 0.7884 0.26507 0.41217 0.0
C928 C 0.81059 0.26681 0.39983 0.0
C929 C 0.82568 0.27065 0.43672 0.0
C930 C 0.81935 0.27249 0.48456 0.0
C931 C 0.83866 0.27682 0.51741 0.0
C932 C 0.83645 0.2991 0.54292 0.0
C933 C 0.8416 0.25817 0.55424 0.0
C934 C 0.85693 0.27709 0.4806 0.0
C935 C 0.84915 0.27357 0.43422 0.0
C936 C 0.86305 0.27324 0.39426 0.0
C937 C 0.88551 0.27636 0.40203 0.0
C938 C 0.89381 0.27971 0.44941 0.0
C939 C 0.87921 0.28021 0.48899 0.0
H940 H 0.73948 0.19609 0.54829 0.0
H941 H 0.67066 0.20777 0.52281 0.0
H942 H 0.66318 0.16811 0.53071 0.0
H943 H 0.74277 0.14969 0.47683 0.0
H944 H 0.76192 0.13506 0.51438 0.0
H945 H 0.7615 0.16448 0.51524 0.0
H946 H 0.75565 0.16417 0.6082 0.0
H947 H 0.7563 0.13468 0.60776 0.0
H948 H 0.73322 0.14881 0.63348 0.0
H949 H 0.66375 0.12735 0.53271 0.0
H950 H 0.67227 0.08796 0.52764 0.0
H951 H 0.74101 0.10244 0.54981 0.0
C952 C 0.72279 0.19024 0.54615 0.0
C953 C 0.70549 0.20475 0.53624 0.0
C954 C 0.68395 0.19673 0.53145 0.0
C955 C 0.67959 0.17431 0.53584 0.0
C956 C 0.69704 0.16023 0.54458 0.0
C957 C 0.71822 0.16784 0.54981 0.0
C958 C 0.73426 0.14907 0.55405 0.0
C959 C 0.75109 0.14962 0.51265 0.0
C960 C 0.74551 0.14919 0.60384 0.0
C961 C 0.71887 0.12977 0.54905 0.0
C962 C 0.69745 0.13657 0.54436 0.0
C963 C 0.68042 0.12179 0.5371 0.0
C964 C 0.68541 0.09945 0.53439 0.0
C965 C 0.70728 0.09211 0.53852 0.0
C966 C 0.72415 0.10755 0.54633 0.0
H967 H 0.29016 0.22096 0.03254 0.0
H968 H 0.27924 0.21719 0.87717 0.0
H969 H 0.31881 0.22044 0.86318 0.0
H970 H 0.33116 0.26105 0.02829 0.0
H971 H 0.34737 0.24977 0.07675 0.0
H972 H 0.31835 0.24506 0.07528 0.0
H973 H 0.32484 0.20318 0.07822 0.0
H974 H 0.35392 0.20777 0.07994 0.0
H975 H 0.34224 0.19057 0.03359 0.0
H976 H 0.35893 0.2271 0.86517 0.0
H977 H 0.39748 0.23576 0.88359 0.0
H978 H 0.38268 0.23517 0.03733 0.0
C979 C 0.29611 0.22042 0.99561 0.0
C980 C 0.28152 0.21883 0.956 0.0
C981 C 0.29002 0.21847 0.90819 0.0
C982 C 0.3125 0.22024 0.8998 0.0
C983 C 0.32635 0.22225 0.93953 0.0
C984 C 0.31855 0.22221 0.98652 0.0
C985 C 0.33691 0.22571 0.02259 0.0
C986 C 0.33322 0.24664 0.05247 0.0
C987 C 0.33964 0.20561 0.05552 0.0
C988 C 0.35612 0.22819 0.98842 0.0
C989 C 0.34966 0.22601 0.94069 0.0
C990 C 0.36425 0.22864 0.90242 0.0
C991 C 0.38605 0.2337 0.91319 0.0
C992 C 0.39303 0.23609 0.96182 0.0
C993 C 0.37786 0.2331 -0.00016 0.0
H994 H 0.28448 0.80624 0.55684 0.0
H995 H 0.28943 0.78755 0.40538 0.0
H996 H 0.29786 0.82571 0.38366 0.0
H997 H 0.25769 0.85704 0.53562 0.0
H998 H 0.27151 0.87138 0.58381 0.0
H999 H 0.26728 0.8423 0.58804 0.0
H1000 H 0.30889 0.83669 0.60024 0.0
H1001 H 0.31327 0.86578 0.5956 0.0
H1002 H 0.32772 0.84738 0.55594 0.0
H1003 H 0.30492 0.86553 0.3776 0.0
H1004 H 0.30707 0.90559 0.38653 0.0
H1005 H 0.29646 0.89923 0.54136 0.0
C1006 C 0.28747 0.81017 0.51916 0.0
C1007 C 0.28629 0.7939 0.4828 0.0
C1008 C 0.29007 0.79974 0.43383 0.0
C1009 C 0.29506 0.82134 0.42115 0.0
C1010 C 0.29613 0.83695 0.45779 0.0
C1011 C 0.29225 0.83175 0.50573 0.0
C1012 C 0.29316 0.85198 0.5375 0.0
C1013 C 0.2711 0.8559 0.56271 0.0
C1014 C 0.31188 0.85035 0.57451 0.0
C1015 C 0.29783 0.86938 0.49974 0.0
C1016 C 0.29978 0.86023 0.45414 0.0
C1017 C 0.30344 0.87291 0.41309 0.0
C1018 C 0.30456 0.89563 0.41851 0.0
C1019 C 0.30181 0.90549 0.46457 0.0
C1020 C 0.29889 0.89212 0.50584 0.0
H1021 H 0.70215 0.77772 0.97219 0.0
H1022 H 0.71473 0.7821 0.12688 0.0
H1023 H 0.67505 0.78232 0.14238 0.0
H1024 H 0.65293 0.81226 0.97122 0.0
H1025 H 0.63977 0.79562 0.92583 0.0
H1026 H 0.66912 0.79798 0.92681 0.0
H1027 H 0.67235 0.75573 0.9313 0.0
H1028 H 0.64306 0.75324 0.93077 0.0
H1029 H 0.65864 0.74117 0.97931 0.0
H1030 H 0.63422 0.77864 0.14144 0.0
H1031 H 0.59519 0.77228 0.1239 0.0
H1032 H 0.60949 0.77118 0.96984 0.0
C1033 C 0.69664 0.77908 0.00934 0.0
C1034 C 0.71161 0.77987 0.04829 0.0
C1035 C 0.70361 0.7815 0.09636 0.0
C1036 C 0.6811 0.78167 0.10557 0.0
C1037 C 0.66683 0.78036 0.06635 0.0
C1038 C 0.67428 0.77929 0.01917 0.0
C1039 C 0.65562 0.7769 0.98361 0.0
C1040 C 0.65428 0.79688 0.94988 0.0
C1041 C 0.65754 0.75549 0.95457 0.0
C1042 C 0.63653 0.7762 0.01827 0.0
C1043 C 0.6433 0.7784 0.06579 0.0
C1044 C 0.62867 0.77725 0.10433 0.0
C1045 C 0.60653 0.77371 0.09398 0.0
C1046 C 0.59926 0.77132 0.04548 0.0
C1047 C 0.61453 0.77279 0.00729 0.0
loop_
_geom_bond_atom_site_label_1
_geom_bond_atom_site_label_2
_geom_bond_distance
_geom_bond_site_symmetry_2
_ccdc_geom_bond_type
Sc0 O3 2.031 . S
Sc0 O10 2.105 . S
Sc0 O13 2.105 . S
Sc0 O16 2.105 . S
Sc0 O19 2.105 . S
Sc1 O3 2.025 . S
Sc1 O11 2.110 . S
Sc1 O15 2.100 1_554 S
Sc1 O17 2.110 . S
Sc1 O21 2.100 1_554 S
Sc2 O3 2.020 1_556 S
Sc2 O12 2.105 . S
Sc2 O14 2.105 . S
Sc2 O18 2.105 . S
Sc2 O20 2.105 . S
O3 Sc0 2.031 . S
O3 Sc1 2.025 . S
O3 Sc2 2.020 1_554 S
C4 O10 1.272 . S
C4 O20 1.264 1_554 S
C5 O11 1.268 . S
C5 O19 1.268 . S
C6 O12 1.268 . S
C6 O21 1.268 . S
C7 O13 1.268 . S
C7 O17 1.268 . S
C8 O14 1.260 1_554 S
C8 O16 1.276 . S
C9 O15 1.268 . S
C9 O18 1.268 . S
O10 Sc0 2.105 . S
O10 C4 1.272 . S
O11 Sc1 2.110 . S
O11 C5 1.268 . S
O12 Sc2 2.105 . S
O12 C6 1.268 . S
O13 Sc0 2.105 . S
O13 C7 1.268 . S
O14 Sc2 2.105 . S
O14 C8 1.260 1_556 S
O15 Sc1 2.100 1_556 S
O15 C9 1.268 . S
O16 Sc0 2.105 . S
O16 C8 1.276 . S
O17 Sc1 2.110 . S
O17 C7 1.268 . S
O18 Sc2 2.105 . S
O18 C9 1.268 . S
O19 Sc0 2.105 . S
O19 C5 1.268 . S
O20 Sc2 2.105 . S
O20 C4 1.264 1_556 S
O21 Sc1 2.100 1_556 S
O21 C6 1.268 . S
Sc22 O25 2.025 . S
Sc22 O32 2.105 . S
Sc22 O35 2.105 . S
Sc22 O38 2.105 . S
Sc22 O41 2.105 . S
Sc23 O25 2.025 . S
Sc23 O33 2.105 . S
Sc23 O37 2.105 . S
Sc23 O39 2.105 . S
Sc23 O43 2.105 . S
Sc24 O25 2.025 . S
Sc24 O34 2.105 . S
Sc24 O36 2.105 . S
Sc24 O40 2.105 . S
Sc24 O42 2.105 . S
O25 Sc22 2.025 . S
O25 Sc23 2.025 . S
O25 Sc24 2.025 . S
C26 O32 1.268 . S
C26 O42 1.268 . S
C27 O33 1.268 . S
C27 O41 1.268 . S
C28 O34 1.268 . S
C28 O43 1.268 . S
C29 O35 1.268 . S
C29 O39 1.268 . S
C30 O36 1.268 . S
C30 O38 1.268 . S
C31 O37 1.268 . S
C31 O40 1.268 . S
O32 Sc22 2.105 . S
O32 C26 1.268 . S
O33 Sc23 2.105 . S
O33 C27 1.268 . S
O34 Sc24 2.105 . S
O34 C28 1.268 . S
O35 Sc22 2.105 . S
O35 C29 1.268 . S
O36 Sc24 2.105 . S
O36 C30 1.268 . S
O37 Sc23 2.105 . S
O37 C31 1.268 . S
O38 Sc22 2.105 . S
O38 C30 1.268 . S
O39 Sc23 2.105 . S
O39 C29 1.268 . S
O40 Sc24 2.105 . S
O40 C31 1.268 . S
O41 Sc22 2.105 . S
O41 C27 1.268 . S
O42 Sc24 2.105 . S
O42 C26 1.268 . S
O43 Sc23 2.105 . S
O43 C28 1.268 . S
Sc44 O47 2.020 1_556 S
Sc44 O54 2.105 . S
Sc44 O57 2.105 . S
Sc44 O60 2.105 . S
Sc44 O63 2.105 . S
Sc45 O47 2.025 . S
Sc45 O55 2.100 1_554 S
Sc45 O59 2.110 . S
Sc45 O61 2.100 1_554 S
Sc45 O65 2.110 . S
Sc46 O47 2.031 . S
Sc46 O56 2.105 . S
Sc46 O58 2.105 . S
Sc46 O62 2.105 . S
Sc46 O64 2.105 . S
O47 Sc44 2.020 1_554 S
O47 Sc45 2.025 . S
O47 Sc46 2.031 . S
C48 O54 1.264 1_554 S
C48 O64 1.272 . S
C49 O55 1.268 . S
C49 O63 1.268 . S
C50 O56 1.268 . S
C50 O65 1.268 . S
C51 O57 1.268 . S
C51 O61 1.268 . S
C52 O58 1.276 . S
C52 O60 1.260 1_554 S
C53 O59 1.268 . S
C53 O62 1.268 . S
O54 Sc44 2.105 . S
O54 C48 1.264 1_556 S
O55 Sc45 2.100 1_556 S
O55 C49 1.268 . S
O56 Sc46 2.105 . S
O56 C50 1.268 . S
O57 Sc44 2.105 . S
O57 C51 1.268 . S
O58 Sc46 2.105 . S
O58 C52 1.276 . S
O59 Sc45 2.110 . S
O59 C53 1.268 . S
O60 Sc44 2.105 . S
O60 C52 1.260 1_556 S
O61 Sc45 2.100 1_556 S
O61 C51 1.268 . S
O62 Sc46 2.105 . S
O62 C53 1.268 . S
O63 Sc44 2.105 . S
O63 C49 1.268 . S
O64 Sc46 2.105 . S
O64 C48 1.272 . S
O65 Sc45 2.110 . S
O65 C50 1.268 . S
Sc66 O69 2.025 . S
Sc66 O76 2.105 . S
Sc66 O79 2.105 . S
Sc66 O82 2.105 . S
Sc66 O85 2.105 . S
Sc67 O69 2.025 . S
Sc67 O77 2.105 . S
Sc67 O81 2.105 . S
Sc67 O83 2.105 . S
Sc67 O87 2.105 . S
Sc68 O69 2.025 . S
Sc68 O78 2.105 . S
Sc68 O80 2.105 . S
Sc68 O84 2.105 . S
Sc68 O86 2.105 . S
O69 Sc66 2.025 . S
O69 Sc67 2.025 . S
O69 Sc68 2.025 . S
C70 O76 1.268 . S
C70 O86 1.268 . S
C71 O77 1.268 . S
C71 O85 1.268 . S
C72 O78 1.268 . S
C72 O87 1.268 . S
C73 O79 1.268 . S
C73 O83 1.268 . S
C74 O80 1.268 . S
C74 O82 1.268 . S
C75 O81 1.268 . S
C75 O84 1.268 . S
O76 Sc66 2.105 . S
O76 C70 1.268 . S
O77 Sc67 2.105 . S
O77 C71 1.268 . S
O78 Sc68 2.105 . S
O78 C72 1.268 . S
O79 Sc66 2.105 . S
O79 C73 1.268 . S
O80 Sc68 2.105 . S
O80 C74 1.268 . S
O81 Sc67 2.105 . S
O81 C75 1.268 . S
O82 Sc66 2.105 . S
O82 C74 1.268 . S
O83 Sc67 2.105 . S
O83 C73 1.268 . S
O84 Sc68 2.105 . S
O84 C75 1.268 . S
O85 Sc66 2.105 . S
O85 C71 1.268 . S
O86 Sc68 2.105 . S
O86 C70 1.268 . S
O87 Sc67 2.105 . S
O87 C72 1.268 . S
C88 C89 1.386 . S
C88 C90 1.397 . S
C88 H112 0.931 . S
C89 C88 1.386 . S
C89 C93 1.397 . S
C90 C88 1.397 . S
C90 C91 1.384 . S
C90 H113 0.930 . S
C91 C90 1.384 . S
C91 C92 1.377 . S
C91 C94 1.481 . S
C92 C91 1.377 . S
C92 C93 1.389 . S
C92 H114 0.929 . S
C93 C89 1.397 . S
C93 C92 1.389 . S
C93 H115 0.931 . S
C94 C91 1.481 . S
C94 C95 1.387 . S
C94 C99 1.390 1_556 S
C95 C94 1.387 . S
C95 C96 1.401 1_556 S
C95 H116 0.930 . S
C96 C95 1.401 1_554 S
C96 C97 1.376 . S
C96 C105 1.511 . S
C97 C96 1.376 . S
C97 C98 1.392 . S
C97 H118 0.931 . S
C98 C97 1.392 . S
C98 C99 1.361 . S
C98 C100 1.500 . S
C99 C94 1.390 1_554 S
C99 C98 1.361 . S
C99 H117 0.931 . S
C100 C98 1.500 . S
C100 C101 1.371 . S
C100 C102 1.365 . S
C101 C100 1.371 . S
C101 C111 1.386 . S
C101 H119 0.931 . S
C102 C100 1.365 . S
C102 C103 1.409 . S
C102 H120 0.929 . S
C103 C102 1.409 . S
C103 C104 1.380 . S
C103 H121 0.930 . S
C104 C103 1.380 . S
C104 C111 1.357 . S
C105 C96 1.511 . S
C105 C106 1.341 1_554 S
C105 C107 1.371 . S
C106 C105 1.341 1_556 S
C106 C110 1.394 . S
C106 H122 0.930 . S
C107 C105 1.371 . S
C107 C108 1.392 . S
C107 H123 0.931 . S
C108 C107 1.392 . S
C108 C109 1.347 . S
C108 H126 0.932 . S
C109 C108 1.347 . S
C109 C110 1.320 1_554 S
C110 C106 1.394 . S
C110 C109 1.320 1_556 S
C110 H125 0.929 . S
C111 C101 1.386 . S
C111 C104 1.357 . S
C111 H124 0.928 . S
H112 C88 0.931 . S
H113 C90 0.930 . S
H114 C92 0.929 . S
H115 C93 0.931 . S
H116 C95 0.930 . S
H117 C99 0.931 . S
H118 C97 0.931 . S
H119 C101 0.931 . S
H120 C102 0.929 . S
H121 C103 0.930 . S
H122 C106 0.930 . S
H123 C107 0.931 . S
H124 C111 0.928 . S
H125 C110 0.929 . S
H126 C108 0.932 . S
C127 C128 1.386 . S
C127 C129 1.397 . S
C127 H151 0.931 . S
C128 C127 1.386 . S
C128 C132 1.397 . S
C129 C127 1.397 . S
C129 C130 1.384 . S
C129 H152 0.930 . S
C130 C129 1.384 . S
C130 C131 1.377 . S
C130 C133 1.481 . S
C131 C130 1.377 . S
C131 C132 1.389 . S
C131 H153 0.929 . S
C132 C128 1.397 . S
C132 C131 1.389 . S
C132 H154 0.931 . S
C133 C130 1.481 . S
C133 C134 1.387 . S
C133 C138 1.390 . S
C134 C133 1.387 . S
C134 C135 1.401 1_655 S
C134 H155 0.948 . S
C135 C134 1.401 1_455 S
C135 C136 1.376 1_455 S
C135 C144 1.511 . S
C136 C135 1.376 1_655 S
C136 C137 1.392 . S
C136 H157 0.931 . S
C137 C136 1.392 . S
C137 C138 1.361 . S
C137 C139 1.500 . S
C138 C133 1.390 . S
C138 C137 1.361 . S
C138 H156 0.931 . S
C139 C137 1.500 . S
C139 C140 1.371 . S
C139 C141 1.365 . S
C140 C139 1.371 . S
C140 C150 1.386 . S
C140 H158 0.931 . S
C141 C139 1.365 . S
C141 C142 1.409 . S
C141 H159 0.929 . S
C142 C141 1.409 . S
C142 C143 1.380 . S
C142 H160 0.930 . S
C143 C142 1.380 . S
C143 C150 1.357 . S
C144 C135 1.511 . S
C144 C145 1.341 . S
C144 C146 1.371 . S
C145 C144 1.341 . S
C145 C149 1.394 . S
C145 H161 0.930 . S
C146 C144 1.371 . S
C146 C147 1.392 . S
C146 H162 0.931 . S
C147 C146 1.392 . S
C147 C148 1.331 . S
C147 H165 0.932 . S
C148 C147 1.331 . S
C148 C149 1.336 . S
C149 C145 1.394 . S
C149 C148 1.336 . S
C149 H164 0.929 . S
C150 C140 1.386 . S
C150 C143 1.357 . S
C150 H163 0.928 . S
H151 C127 0.931 . S
H152 C129 0.930 . S
H153 C131 0.929 . S
H154 C132 0.931 . S
H155 C134 0.948 . S
H156 C138 0.931 . S
H157 C136 0.931 . S
H158 C140 0.931 . S
H159 C141 0.929 . S
H160 C142 0.930 . S
H161 C145 0.930 . S
H162 C146 0.931 . S
H163 C150 0.928 . S
H164 C149 0.929 . S
H165 C147 0.932 . S
C166 C167 1.386 . S
C166 C168 1.397 . S
C166 H190 0.931 . S
C167 C166 1.386 . S
C167 C171 1.397 . S
C168 C166 1.397 . S
C168 C169 1.384 . S
C168 H191 0.930 . S
C169 C168 1.384 . S
C169 C170 1.377 . S
C169 C172 1.481 . S
C170 C169 1.377 . S
C170 C171 1.389 . S
C170 H192 0.929 . S
C171 C167 1.397 . S
C171 C170 1.389 . S
C171 H193 0.931 . S
C172 C169 1.481 . S
C172 C173 1.387 . S
C172 C177 1.381 1_554 S
C173 C172 1.387 . S
C173 C174 1.401 1_554 S
C173 H194 0.930 . S
C174 C173 1.401 1_556 S
C174 C175 1.376 . S
C174 C183 1.511 . S
C175 C174 1.376 . S
C175 C176 1.392 . S
C175 H196 0.931 . S
C176 C175 1.392 . S
C176 C177 1.370 . S
C176 C178 1.500 . S
C177 C172 1.381 1_556 S
C177 C176 1.370 . S
C177 H195 0.931 . S
C178 C176 1.500 . S
C178 C179 1.371 . S
C178 C180 1.365 . S
C179 C178 1.371 . S
C179 C189 1.386 . S
C179 H197 0.931 . S
C180 C178 1.365 . S
C180 C181 1.409 . S
C180 H198 0.929 . S
C181 C180 1.409 . S
C181 C182 1.380 . S
C181 H199 0.930 . S
C182 C181 1.380 . S
C182 C189 1.357 . S
C183 C174 1.511 . S
C183 C184 1.341 1_556 S
C183 C185 1.371 . S
C184 C183 1.341 1_554 S
C184 C188 1.394 . S
C184 H200 0.930 . S
C185 C183 1.371 . S
C185 C186 1.392 . S
C185 H201 0.931 . S
C186 C185 1.392 . S
C186 C187 1.333 . S
C186 H204 0.932 . S
C187 C186 1.333 . S
C187 C188 1.334 1_556 S
C188 C184 1.394 . S
C188 C187 1.334 1_554 S
C188 H203 0.929 . S
C189 C179 1.386 . S
C189 C182 1.357 . S
C189 H202 0.928 . S
H190 C166 0.931 . S
H191 C168 0.930 . S
H192 C170 0.929 . S
H193 C171 0.931 . S
H194 C173 0.930 . S
H195 C177 0.931 . S
H196 C175 0.931 . S
H197 C179 0.931 . S
H198 C180 0.929 . S
H199 C181 0.930 . S
H200 C184 0.930 . S
H201 C185 0.931 . S
H202 C189 0.928 . S
H203 C188 0.929 . S
H204 C186 0.932 . S
C205 C206 1.386 . S
C205 C207 1.397 . S
C205 H229 0.931 . S
C206 C205 1.386 . S
C206 C210 1.397 . S
C207 C205 1.397 . S
C207 C208 1.384 . S
C207 H230 0.930 . S
C208 C207 1.384 . S
C208 C209 1.377 . S
C208 C211 1.481 . S
C209 C208 1.377 . S
C209 C210 1.389 . S
C209 H231 0.929 . S
C210 C206 1.397 . S
C210 C209 1.389 . S
C210 H232 0.931 . S
C211 C208 1.481 . S
C211 C212 1.387 . S
C211 C216 1.390 . S
C212 C211 1.387 . S
C212 C213 1.401 1_455 S
C212 H233 0.928 . S
C213 C212 1.401 1_655 S
C213 C214 1.376 1_655 S
C213 C222 1.511 . S
C214 C213 1.376 1_455 S
C214 C215 1.392 . S
C214 H235 0.951 . S
C215 C214 1.392 . S
C215 C216 1.361 . S
C215 C217 1.500 . S
C216 C211 1.390 . S
C216 C215 1.361 . S
C216 H234 0.931 . S
C217 C215 1.500 . S
C217 C218 1.371 . S
C217 C219 1.365 . S
C218 C217 1.371 . S
C218 C228 1.386 . S
C218 H236 0.931 . S
C219 C217 1.365 . S
C219 C220 1.409 . S
C219 H237 0.929 . S
C220 C219 1.409 . S
C220 C221 1.380 . S
C220 H238 0.930 . S
C221 C220 1.380 . S
C221 C228 1.357 . S
C222 C213 1.511 . S
C222 C223 1.341 . S
C222 C224 1.371 . S
C223 C222 1.341 . S
C223 C227 1.394 . S
C223 H239 0.930 . S
C224 C222 1.371 . S
C224 C225 1.392 . S
C224 H240 0.931 . S
C225 C224 1.392 . S
C225 C226 1.331 . S
C225 H243 0.932 . S
C226 C225 1.331 . S
C226 C227 1.336 . S
C227 C223 1.394 . S
C227 C226 1.336 . S
C227 H242 0.929 . S
C228 C218 1.386 . S
C228 C221 1.357 . S
C228 H241 0.928 . S
H229 C205 0.931 . S
H230 C207 0.930 . S
H231 C209 0.929 . S
H232 C210 0.931 . S
H233 C212 0.928 . S
H234 C216 0.931 . S
H235 C214 0.951 . S
H236 C218 0.931 . S
H237 C219 0.929 . S
H238 C220 0.930 . S
H239 C223 0.930 . S
H240 C224 0.931 . S
H241 C228 0.928 . S
H242 C227 0.929 . S
H243 C225 0.932 . S
C244 C245 1.386 . S
C244 C246 1.397 . S
C244 H268 0.931 . S
C245 C244 1.386 . S
C245 C249 1.397 . S
C246 C244 1.397 . S
C246 C247 1.384 . S
C246 H269 0.930 . S
C247 C246 1.384 . S
C247 C248 1.377 . S
C247 C250 1.481 . S
C248 C247 1.377 . S
C248 C249 1.389 . S
C248 H270 0.929 . S
C249 C245 1.397 . S
C249 C248 1.389 . S
C249 H271 0.931 . S
C250 C247 1.481 . S
C250 C251 1.387 . S
C250 C255 1.390 . S
C251 C250 1.387 . S
C251 C252 1.401 1_565 S
C251 H272 0.948 . S
C252 C251 1.401 1_545 S
C252 C253 1.376 1_545 S
C252 C261 1.511 . S
C253 C252 1.376 1_565 S
C253 C254 1.392 . S
C253 H274 0.931 . S
C254 C253 1.392 . S
C254 C255 1.361 . S
C254 C256 1.500 . S
C255 C250 1.390 . S
C255 C254 1.361 . S
C255 H273 0.931 . S
C256 C254 1.500 . S
C256 C257 1.371 . S
C256 C258 1.365 . S
C257 C256 1.371 . S
C257 C267 1.386 . S
C257 H275 0.931 . S
C258 C256 1.365 . S
C258 C259 1.409 . S
C258 H276 0.929 . S
C259 C258 1.409 . S
C259 C260 1.380 . S
C259 H277 0.930 . S
C260 C259 1.380 . S
C260 C267 1.357 . S
C261 C252 1.511 . S
C261 C262 1.341 . S
C261 C263 1.371 . S
C262 C261 1.341 . S
C262 C266 1.394 . S
C262 H278 0.930 . S
C263 C261 1.371 . S
C263 C264 1.392 . S
C263 H279 0.931 . S
C264 C263 1.392 . S
C264 C265 1.331 . S
C264 H282 0.932 . S
C265 C264 1.331 . S
C265 C266 1.336 . S
C266 C262 1.394 . S
C266 C265 1.336 . S
C266 H281 0.929 . S
C267 C257 1.386 . S
C267 C260 1.357 . S
C267 H280 0.928 . S
H268 C244 0.931 . S
H269 C246 0.930 . S
H270 C248 0.929 . S
H271 C249 0.931 . S
H272 C251 0.948 . S
H273 C255 0.931 . S
H274 C253 0.931 . S
H275 C257 0.931 . S
H276 C258 0.929 . S
H277 C259 0.930 . S
H278 C262 0.930 . S
H279 C263 0.931 . S
H280 C267 0.928 . S
H281 C266 0.929 . S
H282 C264 0.932 . S
C283 C284 1.386 . S
C283 C285 1.397 . S
C283 H307 0.931 . S
C284 C283 1.386 . S
C284 C288 1.397 . S
C285 C283 1.397 . S
C285 C286 1.384 . S
C285 H308 0.930 . S
C286 C285 1.384 . S
C286 C287 1.377 . S
C286 C289 1.481 . S
C287 C286 1.377 . S
C287 C288 1.389 . S
C287 H309 0.929 . S
C288 C284 1.397 . S
C288 C287 1.389 . S
C288 H310 0.931 . S
C289 C286 1.481 . S
C289 C290 1.387 . S
C289 C294 1.381 1_554 S
C290 C289 1.387 . S
C290 C291 1.401 1_554 S
C290 H311 0.930 . S
C291 C290 1.401 1_556 S
C291 C292 1.376 . S
C291 C300 1.511 . S
C292 C291 1.376 . S
C292 C293 1.392 . S
C292 H313 0.931 . S
C293 C292 1.392 . S
C293 C294 1.370 . S
C293 C295 1.500 . S
C294 C289 1.381 1_556 S
C294 C293 1.370 . S
C294 H312 0.931 . S
C295 C293 1.500 . S
C295 C296 1.371 . S
C295 C297 1.365 . S
C296 C295 1.371 . S
C296 C306 1.386 . S
C296 H314 0.931 . S
C297 C295 1.365 . S
C297 C298 1.409 . S
C297 H315 0.929 . S
C298 C297 1.409 . S
C298 C299 1.380 . S
C298 H316 0.930 . S
C299 C298 1.380 . S
C299 C306 1.357 . S
C300 C291 1.511 . S
C300 C301 1.341 1_556 S
C300 C302 1.371 . S
C301 C300 1.341 1_554 S
C301 C305 1.394 . S
C301 H317 0.930 . S
C302 C300 1.371 . S
C302 C303 1.392 . S
C302 H318 0.931 . S
C303 C302 1.392 . S
C303 C304 1.333 . S
C303 H321 0.932 . S
C304 C303 1.333 . S
C304 C305 1.334 1_556 S
C305 C301 1.394 . S
C305 C304 1.334 1_554 S
C305 H320 0.929 . S
C306 C296 1.386 . S
C306 C299 1.357 . S
C306 H319 0.928 . S
H307 C283 0.931 . S
H308 C285 0.930 . S
H309 C287 0.929 . S
H310 C288 0.931 . S
H311 C290 0.930 . S
H312 C294 0.931 . S
H313 C292 0.931 . S
H314 C296 0.931 . S
H315 C297 0.929 . S
H316 C298 0.930 . S
H317 C301 0.930 . S
H318 C302 0.931 . S
H319 C306 0.928 . S
H320 C305 0.929 . S
H321 C303 0.932 . S
C322 C323 1.386 . S
C322 C324 1.397 . S
C322 H346 0.931 . S
C323 C322 1.386 . S
C323 C327 1.397 . S
C324 C322 1.397 . S
C324 C325 1.384 . S
C324 H347 0.930 . S
C325 C324 1.384 . S
C325 C326 1.377 . S
C325 C328 1.481 . S
C326 C325 1.377 . S
C326 C327 1.389 . S
C326 H348 0.929 . S
C327 C323 1.397 . S
C327 C326 1.389 . S
C327 H349 0.931 . S
C328 C325 1.481 . S
C328 C329 1.387 . S
C328 C333 1.390 . S
C329 C328 1.387 . S
C329 C330 1.401 1_545 S
C329 H350 0.928 . S
C330 C329 1.401 1_565 S
C330 C331 1.376 1_565 S
C330 C339 1.511 . S
C331 C330 1.376 1_545 S
C331 C332 1.392 . S
C331 H352 0.951 . S
C332 C331 1.392 . S
C332 C333 1.361 . S
C332 C334 1.500 . S
C333 C328 1.390 . S
C333 C332 1.361 . S
C333 H351 0.931 . S
C334 C332 1.500 . S
C334 C335 1.371 . S
C334 C336 1.365 . S
C335 C334 1.371 . S
C335 C345 1.386 . S
C335 H353 0.931 . S
C336 C334 1.365 . S
C336 C337 1.409 . S
C336 H354 0.929 . S
C337 C336 1.409 . S
C337 C338 1.380 . S
C337 H355 0.930 . S
C338 C337 1.380 . S
C338 C345 1.357 . S
C339 C330 1.511 . S
C339 C340 1.341 . S
C339 C341 1.371 . S
C340 C339 1.341 . S
C340 C344 1.394 . S
C340 H356 0.930 . S
C341 C339 1.371 . S
C341 C342 1.392 . S
C341 H357 0.931 . S
C342 C341 1.392 . S
C342 C343 1.331 . S
C342 H360 0.932 . S
C343 C342 1.331 . S
C343 C344 1.336 . S
C344 C340 1.394 . S
C344 C343 1.336 . S
C344 H359 0.929 . S
C345 C335 1.386 . S
C345 C338 1.357 . S
C345 H358 0.928 . S
H346 C322 0.931 . S
H347 C324 0.930 . S
H348 C326 0.929 . S
H349 C327 0.931 . S
H350 C329 0.928 . S
H351 C333 0.931 . S
H352 C331 0.951 . S
H353 C335 0.931 . S
H354 C336 0.929 . S
H355 C337 0.930 . S
H356 C340 0.930 . S
H357 C341 0.931 . S
H358 C345 0.928 . S
H359 C344 0.929 . S
H360 C342 0.932 . S
C361 C362 1.386 . S
C361 C363 1.397 . S
C361 H385 0.931 . S
C362 C361 1.386 . S
C362 C366 1.397 . S
C363 C361 1.397 . S
C363 C364 1.384 . S
C363 H386 0.930 . S
C364 C363 1.384 . S
C364 C365 1.377 . S
C364 C367 1.481 . S
C365 C364 1.377 . S
C365 C366 1.389 . S
C365 H387 0.929 . S
C366 C362 1.397 . S
C366 C365 1.389 . S
C366 H388 0.931 . S
C367 C364 1.481 . S
C367 C368 1.387 . S
C367 C372 1.390 1_556 S
C368 C367 1.387 . S
C368 C369 1.401 1_556 S
C368 H389 0.930 . S
C369 C368 1.401 1_554 S
C369 C370 1.376 . S
C369 C378 1.511 . S
C370 C369 1.376 . S
C370 C371 1.392 . S
C370 H391 0.931 . S
C371 C370 1.392 . S
C371 C372 1.361 . S
C371 C373 1.500 . S
C372 C367 1.390 1_554 S
C372 C371 1.361 . S
C372 H390 0.931 . S
C373 C371 1.500 . S
C373 C374 1.371 . S
C373 C375 1.365 . S
C374 C373 1.371 . S
C374 C384 1.386 . S
C374 H392 0.931 . S
C375 C373 1.365 . S
C375 C376 1.409 . S
C375 H393 0.929 . S
C376 C375 1.409 . S
C376 C377 1.380 . S
C376 H394 0.930 . S
C377 C376 1.380 . S
C377 C384 1.357 . S
C378 C369 1.511 . S
C378 C379 1.341 1_554 S
C378 C380 1.371 . S
C379 C378 1.341 1_556 S
C379 C383 1.394 . S
C379 H395 0.930 . S
C380 C378 1.371 . S
C380 C381 1.392 . S
C380 H396 0.931 . S
C381 C380 1.392 . S
C381 C382 1.347 . S
C381 H399 0.932 . S
C382 C381 1.347 . S
C382 C383 1.320 1_554 S
C383 C379 1.394 . S
C383 C382 1.320 1_556 S
C383 H398 0.929 . S
C384 C374 1.386 . S
C384 C377 1.357 . S
C384 H397 0.928 . S
H385 C361 0.931 . S
H386 C363 0.930 . S
H387 C365 0.929 . S
H388 C366 0.931 . S
H389 C368 0.930 . S
H390 C372 0.931 . S
H391 C370 0.931 . S
H392 C374 0.931 . S
H393 C375 0.929 . S
H394 C376 0.930 . S
H395 C379 0.930 . S
H396 C380 0.931 . S
H397 C384 0.928 . S
H398 C383 0.929 . S
H399 C381 0.932 . S
H400 C412 0.930 . S
H401 C414 0.930 . S
H402 C415 0.930 . S
H403 C419 0.959 . S
H404 C419 0.959 . S
H405 C419 0.961 . S
H406 C420 0.960 . S
H407 C420 0.961 . S
H408 C420 0.959 . S
H409 C423 0.929 . S
H410 C424 0.931 . S
H411 C426 0.930 . S
C412 H400 0.930 . S
C412 C413 1.399 . S
C412 C417 1.399 . S
C413 C412 1.399 . S
C413 C414 1.376 . S
C414 H401 0.930 . S
C414 C413 1.376 . S
C414 C415 1.388 . S
C415 H402 0.930 . S
C415 C414 1.388 . S
C415 C416 1.390 . S
C416 C415 1.390 . S
C416 C417 1.394 . S
C416 C422 1.465 . S
C417 C412 1.399 . S
C417 C416 1.394 . S
C417 C418 1.516 . S
C418 C417 1.516 . S
C418 C419 1.502 . S
C418 C420 1.561 . S
C418 C421 1.526 . S
C419 H403 0.959 . S
C419 H404 0.959 . S
C419 H405 0.961 . S
C419 C418 1.502 . S
C420 H406 0.960 . S
C420 H407 0.961 . S
C420 H408 0.959 . S
C420 C418 1.561 . S
C421 C418 1.526 . S
C421 C422 1.396 . S
C421 C426 1.390 . S
C422 C416 1.465 . S
C422 C421 1.396 . S
C422 C423 1.399 . S
C423 H409 0.929 . S
C423 C422 1.399 . S
C423 C424 1.385 . S
C424 H410 0.931 . S
C424 C423 1.385 . S
C424 C425 1.389 . S
C425 C424 1.389 . S
C425 C426 1.387 . S
C426 H411 0.930 . S
C426 C421 1.390 . S
C426 C425 1.387 . S
H427 C439 0.930 . S
H428 C441 0.930 . S
H429 C442 0.930 . S
H430 C446 0.959 . S
H431 C446 0.959 . S
H432 C446 0.961 . S
H433 C447 0.960 . S
H434 C447 0.961 . S
H435 C447 0.959 . S
H436 C450 0.929 . S
H437 C451 0.931 . S
H438 C453 0.930 . S
C439 H427 0.930 . S
C439 C440 1.399 . S
C439 C444 1.399 . S
C440 C439 1.399 . S
C440 C441 1.376 . S
C441 H428 0.930 . S
C441 C440 1.376 . S
C441 C442 1.388 . S
C442 H429 0.930 . S
C442 C441 1.388 . S
C442 C443 1.390 . S
C443 C442 1.390 . S
C443 C444 1.394 . S
C443 C449 1.465 . S
C444 C439 1.399 . S
C444 C443 1.394 . S
C444 C445 1.516 . S
C445 C444 1.516 . S
C445 C446 1.502 . S
C445 C447 1.561 . S
C445 C448 1.526 . S
C446 H430 0.959 . S
C446 H431 0.959 . S
C446 H432 0.961 . S
C446 C445 1.502 . S
C447 H433 0.960 . S
C447 H434 0.961 . S
C447 H435 0.959 . S
C447 C445 1.561 . S
C448 C445 1.526 . S
C448 C449 1.396 . S
C448 C453 1.390 . S
C449 C443 1.465 . S
C449 C448 1.396 . S
C449 C450 1.399 . S
C450 H436 0.929 . S
C450 C449 1.399 . S
C450 C451 1.385 . S
C451 H437 0.931 . S
C451 C450 1.385 . S
C451 C452 1.389 . S
C452 C451 1.389 . S
C452 C453 1.387 . S
C453 H438 0.930 . S
C453 C448 1.390 . S
C453 C452 1.387 . S
H454 C466 0.930 . S
H455 C468 0.930 . S
H456 C469 0.930 . S
H457 C473 0.959 . S
H458 C473 0.959 . S
H459 C473 0.961 . S
H460 C474 0.960 . S
H461 C474 0.961 . S
H462 C474 0.959 . S
H463 C477 0.929 . S
H464 C478 0.931 . S
H465 C480 0.930 . S
C466 H454 0.930 . S
C466 C467 1.399 . S
C466 C471 1.399 . S
C467 C466 1.399 . S
C467 C468 1.376 . S
C468 H455 0.930 . S
C468 C467 1.376 . S
C468 C469 1.388 . S
C469 H456 0.930 . S
C469 C468 1.388 . S
C469 C470 1.390 . S
C470 C469 1.390 . S
C470 C471 1.394 . S
C470 C476 1.465 . S
C471 C466 1.399 . S
C471 C470 1.394 . S
C471 C472 1.516 . S
C472 C471 1.516 . S
C472 C473 1.502 . S
C472 C474 1.561 . S
C472 C475 1.526 . S
C473 H457 0.959 . S
C473 H458 0.959 . S
C473 H459 0.961 . S
C473 C472 1.502 . S
C474 H460 0.960 . S
C474 H461 0.961 . S
C474 H462 0.959 . S
C474 C472 1.561 . S
C475 C472 1.526 . S
C475 C476 1.396 . S
C475 C480 1.390 . S
C476 C470 1.465 . S
C476 C475 1.396 . S
C476 C477 1.399 . S
C477 H463 0.929 . S
C477 C476 1.399 . S
C477 C478 1.385 . S
C478 H464 0.931 . S
C478 C477 1.385 . S
C478 C479 1.389 . S
C479 C478 1.389 . S
C479 C480 1.387 . S
C480 H465 0.930 . S
C480 C475 1.390 . S
C480 C479 1.387 . S
H481 C493 0.930 . S
H482 C495 0.930 . S
H483 C496 0.930 . S
H484 C500 0.959 . S
H485 C500 0.959 . S
H486 C500 0.961 . S
H487 C501 0.960 . S
H488 C501 0.961 . S
H489 C501 0.959 . S
H490 C504 0.929 . S
H491 C505 0.931 . S
H492 C507 0.930 . S
C493 H481 0.930 . S
C493 C494 1.399 . S
C493 C498 1.399 . S
C494 C493 1.399 . S
C494 C495 1.376 . S
C495 H482 0.930 . S
C495 C494 1.376 . S
C495 C496 1.388 . S
C496 H483 0.930 . S
C496 C495 1.388 . S
C496 C497 1.390 . S
C497 C496 1.390 . S
C497 C498 1.394 . S
C497 C503 1.465 . S
C498 C493 1.399 . S
C498 C497 1.394 . S
C498 C499 1.516 . S
C499 C498 1.516 . S
C499 C500 1.502 . S
C499 C501 1.561 . S
C499 C502 1.526 . S
C500 H484 0.959 . S
C500 H485 0.959 . S
C500 H486 0.961 . S
C500 C499 1.502 . S
C501 H487 0.960 . S
C501 H488 0.961 . S
C501 H489 0.959 . S
C501 C499 1.561 . S
C502 C499 1.526 . S
C502 C503 1.396 . S
C502 C507 1.390 . S
C503 C497 1.465 . S
C503 C502 1.396 . S
C503 C504 1.399 . S
C504 H490 0.929 . S
C504 C503 1.399 . S
C504 C505 1.385 . S
C505 H491 0.931 . S
C505 C504 1.385 . S
C505 C506 1.389 . S
C506 C505 1.389 . S
C506 C507 1.387 . S
C507 H492 0.930 . S
C507 C502 1.390 . S
C507 C506 1.387 . S
H508 C520 0.930 . S
H509 C522 0.930 . S
H510 C523 0.930 . S
H511 C527 0.959 . S
H512 C527 0.959 . S
H513 C527 0.961 . S
H514 C528 0.960 . S
H515 C528 0.961 . S
H516 C528 0.959 . S
H517 C531 0.929 . S
H518 C532 0.931 . S
H519 C534 0.930 . S
C520 H508 0.930 . S
C520 C521 1.399 . S
C520 C525 1.399 . S
C521 C520 1.399 . S
C521 C522 1.376 . S
C522 H509 0.930 . S
C522 C521 1.376 . S
C522 C523 1.388 . S
C523 H510 0.930 . S
C523 C522 1.388 . S
C523 C524 1.390 . S
C524 C523 1.390 . S
C524 C525 1.394 . S
C524 C530 1.465 . S
C525 C520 1.399 . S
C525 C524 1.394 . S
C525 C526 1.516 . S
C526 C525 1.516 . S
C526 C527 1.502 . S
C526 C528 1.561 . S
C526 C529 1.526 . S
C527 H511 0.959 . S
C527 H512 0.959 . S
C527 H513 0.961 . S
C527 C526 1.502 . S
C528 H514 0.960 . S
C528 H515 0.961 . S
C528 H516 0.959 . S
C528 C526 1.561 . S
C529 C526 1.526 . S
C529 C530 1.396 . S
C529 C534 1.390 . S
C530 C524 1.465 . S
C530 C529 1.396 . S
C530 C531 1.399 . S
C531 H517 0.929 . S
C531 C530 1.399 . S
C531 C532 1.385 . S
C532 H518 0.931 . S
C532 C531 1.385 . S
C532 C533 1.389 . S
C533 C532 1.389 . S
C533 C534 1.387 . S
C534 H519 0.930 . S
C534 C529 1.390 . S
C534 C533 1.387 . S
H535 C547 0.930 . S
H536 C549 0.930 . S
H537 C550 0.930 . S
H538 C554 0.959 . S
H539 C554 0.959 . S
H540 C554 0.961 . S
H541 C555 0.960 . S
H542 C555 0.961 . S
H543 C555 0.959 . S
H544 C558 0.929 . S
H545 C559 0.931 . S
H546 C561 0.930 . S
C547 H535 0.930 . S
C547 C548 1.399 . S
C547 C552 1.399 . S
C548 C547 1.399 . S
C548 C549 1.376 . S
C549 H536 0.930 . S
C549 C548 1.376 . S
C549 C550 1.388 . S
C550 H537 0.930 . S
C550 C549 1.388 . S
C550 C551 1.390 . S
C551 C550 1.390 . S
C551 C552 1.394 . S
C551 C557 1.465 . S
C552 C547 1.399 . S
C552 C551 1.394 . S
C552 C553 1.516 . S
C553 C552 1.516 . S
C553 C554 1.502 . S
C553 C555 1.561 . S
C553 C556 1.526 . S
C554 H538 0.959 . S
C554 H539 0.959 . S
C554 H540 0.961 . S
C554 C553 1.502 . S
C555 H541 0.960 . S
C555 H542 0.961 . S
C555 H543 0.959 . S
C555 C553 1.561 . S
C556 C553 1.526 . S
C556 C557 1.396 . S
C556 C561 1.390 . S
C557 C551 1.465 . S
C557 C556 1.396 . S
C557 C558 1.399 . S
C558 H544 0.929 . S
C558 C557 1.399 . S
C558 C559 1.385 . S
C559 H545 0.931 . S
C559 C558 1.385 . S
C559 C560 1.389 . S
C560 C559 1.389 . S
C560 C561 1.387 . S
C561 H546 0.930 . S
C561 C556 1.390 . S
C561 C560 1.387 . S
H562 C574 0.930 . S
H563 C576 0.930 . S
H564 C577 0.930 . S
H565 C581 0.959 . S
H566 C581 0.959 . S
H567 C581 0.961 . S
H568 C582 0.960 . S
H569 C582 0.961 . S
H570 C582 0.959 . S
H571 C585 0.929 . S
H572 C586 0.931 . S
H573 C588 0.930 . S
C574 H562 0.930 . S
C574 C575 1.399 . S
C574 C579 1.399 . S
C575 C574 1.399 . S
C575 C576 1.376 . S
C576 H563 0.930 . S
C576 C575 1.376 . S
C576 C577 1.388 . S
C577 H564 0.930 . S
C577 C576 1.388 . S
C577 C578 1.390 . S
C578 C577 1.390 . S
C578 C579 1.394 . S
C578 C584 1.465 . S
C579 C574 1.399 . S
C579 C578 1.394 . S
C579 C580 1.516 . S
C580 C579 1.516 . S
C580 C581 1.502 . S
C580 C582 1.561 . S
C580 C583 1.526 . S
C581 H565 0.959 . S
C581 H566 0.959 . S
C581 H567 0.961 . S
C581 C580 1.502 . S
C582 H568 0.960 . S
C582 H569 0.961 . S
C582 H570 0.959 . S
C582 C580 1.561 . S
C583 C580 1.526 . S
C583 C584 1.396 . S
C583 C588 1.390 . S
C584 C578 1.465 . S
C584 C583 1.396 . S
C584 C585 1.399 . S
C585 H571 0.929 . S
C585 C584 1.399 . S
C585 C586 1.385 . S
C586 H572 0.931 . S
C586 C585 1.385 . S
C586 C587 1.389 . S
C587 C586 1.389 . S
C587 C588 1.387 . S
C588 H573 0.930 . S
C588 C583 1.390 . S
C588 C587 1.387 . S
H589 C601 0.930 . S
H590 C603 0.930 . S
H591 C604 0.930 . S
H592 C608 0.959 . S
H593 C608 0.959 . S
H594 C608 0.961 . S
H595 C609 0.960 . S
H596 C609 0.961 . S
H597 C609 0.959 . S
H598 C612 0.929 . S
H599 C613 0.931 . S
H600 C615 0.930 . S
C601 H589 0.930 . S
C601 C602 1.399 . S
C601 C606 1.399 . S
C602 C601 1.399 . S
C602 C603 1.376 . S
C603 H590 0.930 . S
C603 C602 1.376 . S
C603 C604 1.388 . S
C604 H591 0.930 . S
C604 C603 1.388 . S
C604 C605 1.390 . S
C605 C604 1.390 . S
C605 C606 1.394 . S
C605 C611 1.465 . S
C606 C601 1.399 . S
C606 C605 1.394 . S
C606 C607 1.516 . S
C607 C606 1.516 . S
C607 C608 1.502 . S
C607 C609 1.561 . S
C607 C610 1.526 . S
C608 H592 0.959 . S
C608 H593 0.959 . S
C608 H594 0.961 . S
C608 C607 1.502 . S
C609 H595 0.960 . S
C609 H596 0.961 . S
C609 H597 0.959 . S
C609 C607 1.561 . S
C610 C607 1.526 . S
C610 C611 1.396 . S
C610 C615 1.390 . S
C611 C605 1.465 . S
C611 C610 1.396 . S
C611 C612 1.399 . S
C612 H598 0.929 . S
C612 C611 1.399 . S
C612 C613 1.385 . S
C613 H599 0.931 . S
C613 C612 1.385 . S
C613 C614 1.389 . S
C614 C613 1.389 . S
C614 C615 1.387 . S
C615 H600 0.930 . S
C615 C610 1.390 . S
C615 C614 1.387 . S
H616 C628 0.930 . S
H617 C630 0.930 . S
H618 C631 0.930 . S
H619 C635 0.959 . S
H620 C635 0.959 . S
H621 C635 0.961 . S
H622 C636 0.960 . S
H623 C636 0.961 . S
H624 C636 0.959 . S
H625 C639 0.929 . S
H626 C640 0.931 . S
H627 C642 0.930 . S
C628 H616 0.930 . S
C628 C629 1.399 . S
C628 C633 1.399 . S
C629 C628 1.399 . S
C629 C630 1.376 . S
C630 H617 0.930 . S
C630 C629 1.376 . S
C630 C631 1.388 . S
C631 H618 0.930 . S
C631 C630 1.388 . S
C631 C632 1.390 . S
C632 C631 1.390 . S
C632 C633 1.394 . S
C632 C638 1.465 . S
C633 C628 1.399 . S
C633 C632 1.394 . S
C633 C634 1.516 . S
C634 C633 1.516 . S
C634 C635 1.502 . S
C634 C636 1.561 . S
C634 C637 1.526 . S
C635 H619 0.959 . S
C635 H620 0.959 . S
C635 H621 0.961 . S
C635 C634 1.502 . S
C636 H622 0.960 . S
C636 H623 0.961 . S
C636 H624 0.959 . S
C636 C634 1.561 . S
C637 C634 1.526 . S
C637 C638 1.396 . S
C637 C642 1.390 . S
C638 C632 1.465 . S
C638 C637 1.396 . S
C638 C639 1.399 . S
C639 H625 0.929 . S
C639 C638 1.399 . S
C639 C640 1.385 . S
C640 H626 0.931 . S
C640 C639 1.385 . S
C640 C641 1.389 . S
C641 C640 1.389 . S
C641 C642 1.387 . S
C642 H627 0.930 . S
C642 C637 1.390 . S
C642 C641 1.387 . S
H643 C655 0.930 . S
H644 C657 0.930 . S
H645 C658 0.930 . S
H646 C662 0.959 . S
H647 C662 0.959 . S
H648 C662 0.961 . S
H649 C663 0.960 . S
H650 C663 0.961 . S
H651 C663 0.959 . S
H652 C666 0.929 . S
H653 C667 0.931 . S
H654 C669 0.930 . S
C655 H643 0.930 . S
C655 C656 1.399 . S
C655 C660 1.399 . S
C656 C655 1.399 . S
C656 C657 1.376 . S
C657 H644 0.930 . S
C657 C656 1.376 . S
C657 C658 1.388 . S
C658 H645 0.930 . S
C658 C657 1.388 . S
C658 C659 1.390 . S
C659 C658 1.390 . S
C659 C660 1.394 . S
C659 C665 1.465 . S
C660 C655 1.399 . S
C660 C659 1.394 . S
C660 C661 1.516 . S
C661 C660 1.516 . S
C661 C662 1.502 . S
C661 C663 1.561 . S
C661 C664 1.526 . S
C662 H646 0.959 . S
C662 H647 0.959 . S
C662 H648 0.961 . S
C662 C661 1.502 . S
C663 H649 0.960 . S
C663 H650 0.961 . S
C663 H651 0.959 . S
C663 C661 1.561 . S
C664 C661 1.526 . S
C664 C665 1.396 . S
C664 C669 1.390 . S
C665 C659 1.465 . S
C665 C664 1.396 . S
C665 C666 1.399 . S
C666 H652 0.929 . S
C666 C665 1.399 . S
C666 C667 1.385 . S
C667 H653 0.931 . S
C667 C666 1.385 . S
C667 C668 1.389 . S
C668 C667 1.389 . S
C668 C669 1.387 . S
C669 H654 0.930 . S
C669 C664 1.390 . S
C669 C668 1.387 . S
H670 C682 0.930 . S
H671 C684 0.930 . S
H672 C685 0.930 . S
H673 C689 0.959 . S
H674 C689 0.959 . S
H675 C689 0.961 . S
H676 C690 0.960 . S
H677 C690 0.961 . S
H678 C690 0.959 . S
H679 C693 0.929 . S
H680 C694 0.931 . S
H681 C696 0.930 . S
C682 H670 0.930 . S
C682 C683 1.399 . S
C682 C687 1.399 . S
C683 C682 1.399 . S
C683 C684 1.376 . S
C684 H671 0.930 . S
C684 C683 1.376 . S
C684 C685 1.388 . S
C685 H672 0.930 . S
C685 C684 1.388 . S
C685 C686 1.390 . S
C686 C685 1.390 . S
C686 C687 1.394 . S
C686 C692 1.465 . S
C687 C682 1.399 . S
C687 C686 1.394 . S
C687 C688 1.516 . S
C688 C687 1.516 . S
C688 C689 1.502 . S
C688 C690 1.561 . S
C688 C691 1.526 . S
C689 H673 0.959 . S
C689 H674 0.959 . S
C689 H675 0.961 . S
C689 C688 1.502 . S
C690 H676 0.960 . S
C690 H677 0.961 . S
C690 H678 0.959 . S
C690 C688 1.561 . S
C691 C688 1.526 . S
C691 C692 1.396 . S
C691 C696 1.390 . S
C692 C686 1.465 . S
C692 C691 1.396 . S
C692 C693 1.399 . S
C693 H679 0.929 . S
C693 C692 1.399 . S
C693 C694 1.385 . S
C694 H680 0.931 . S
C694 C693 1.385 . S
C694 C695 1.389 . S
C695 C694 1.389 . S
C695 C696 1.387 . S
C696 H681 0.930 . S
C696 C691 1.390 . S
C696 C695 1.387 . S
H697 C709 0.930 . S
H698 C711 0.930 . S
H699 C712 0.930 . S
H700 C716 0.959 . S
H701 C716 0.959 . S
H702 C716 0.961 . S
H703 C717 0.960 . S
H704 C717 0.961 . S
H705 C717 0.959 . S
H706 C720 0.929 . S
H707 C721 0.931 . S
H708 C723 0.930 . S
C709 H697 0.930 . S
C709 C710 1.399 . S
C709 C714 1.399 . S
C710 C709 1.399 . S
C710 C711 1.376 . S
C711 H698 0.930 . S
C711 C710 1.376 . S
C711 C712 1.388 . S
C712 H699 0.930 . S
C712 C711 1.388 . S
C712 C713 1.390 . S
C713 C712 1.390 . S
C713 C714 1.394 . S
C713 C719 1.465 . S
C714 C709 1.399 . S
C714 C713 1.394 . S
C714 C715 1.516 . S
C715 C714 1.516 . S
C715 C716 1.502 . S
C715 C717 1.561 . S
C715 C718 1.526 . S
C716 H700 0.959 . S
C716 H701 0.959 . S
C716 H702 0.961 . S
C716 C715 1.502 . S
C717 H703 0.960 . S
C717 H704 0.961 . S
C717 H705 0.959 . S
C717 C715 1.561 . S
C718 C715 1.526 . S
C718 C719 1.396 . S
C718 C723 1.390 . S
C719 C713 1.465 . S
C719 C718 1.396 . S
C719 C720 1.399 . S
C720 H706 0.929 . S
C720 C719 1.399 . S
C720 C721 1.385 . S
C721 H707 0.931 . S
C721 C720 1.385 . S
C721 C722 1.389 . S
C722 C721 1.389 . S
C722 C723 1.387 . S
C723 H708 0.930 . S
C723 C718 1.390 . S
C723 C722 1.387 . S
H724 C736 0.930 . S
H725 C738 0.930 . S
H726 C739 0.930 . S
H727 C743 0.959 . S
H728 C743 0.959 . S
H729 C743 0.961 . S
H730 C744 0.960 . S
H731 C744 0.961 . S
H732 C744 0.959 . S
H733 C747 0.929 . S
H734 C748 0.931 . S
H735 C750 0.930 . S
C736 H724 0.930 . S
C736 C737 1.399 . S
C736 C741 1.399 . S
C737 C736 1.399 . S
C737 C738 1.376 . S
C738 H725 0.930 . S
C738 C737 1.376 . S
C738 C739 1.388 . S
C739 H726 0.930 . S
C739 C738 1.388 . S
C739 C740 1.390 . S
C740 C739 1.390 . S
C740 C741 1.394 . S
C740 C746 1.465 . S
C741 C736 1.399 . S
C741 C740 1.394 . S
C741 C742 1.516 . S
C742 C741 1.516 . S
C742 C743 1.502 . S
C742 C744 1.561 . S
C742 C745 1.526 . S
C743 H727 0.959 . S
C743 H728 0.959 . S
C743 H729 0.961 . S
C743 C742 1.502 . S
C744 H730 0.960 . S
C744 H731 0.961 . S
C744 H732 0.959 . S
C744 C742 1.561 . S
C745 C742 1.526 . S
C745 C746 1.396 . S
C745 C750 1.390 . S
C746 C740 1.465 . S
C746 C745 1.396 . S
C746 C747 1.399 . S
C747 H733 0.929 . S
C747 C746 1.399 . S
C747 C748 1.385 . S
C748 H734 0.931 . S
C748 C747 1.385 . S
C748 C749 1.389 . S
C749 C748 1.389 . S
C749 C750 1.387 . S
C750 H735 0.930 . S
C750 C745 1.390 . S
C750 C749 1.387 . S
H751 C763 0.930 . S
H752 C765 0.930 . S
H753 C766 0.930 . S
H754 C770 0.959 . S
H755 C770 0.959 . S
H756 C770 0.961 . S
H757 C771 0.960 . S
H758 C771 0.961 . S
H759 C771 0.959 . S
H760 C774 0.929 . S
H761 C775 0.931 . S
H762 C777 0.930 . S
C763 H751 0.930 . S
C763 C764 1.399 . S
C763 C768 1.399 . S
C764 C763 1.399 . S
C764 C765 1.376 . S
C765 H752 0.930 . S
C765 C764 1.376 . S
C765 C766 1.388 . S
C766 H753 0.930 . S
C766 C765 1.388 . S
C766 C767 1.390 . S
C767 C766 1.390 . S
C767 C768 1.394 . S
C767 C773 1.465 . S
C768 C763 1.399 . S
C768 C767 1.394 . S
C768 C769 1.516 . S
C769 C768 1.516 . S
C769 C770 1.502 . S
C769 C771 1.561 . S
C769 C772 1.526 . S
C770 H754 0.959 . S
C770 H755 0.959 . S
C770 H756 0.961 . S
C770 C769 1.502 . S
C771 H757 0.960 . S
C771 H758 0.961 . S
C771 H759 0.959 . S
C771 C769 1.561 . S
C772 C769 1.526 . S
C772 C773 1.396 . S
C772 C777 1.390 . S
C773 C767 1.465 . S
C773 C772 1.396 . S
C773 C774 1.399 . S
C774 H760 0.929 . S
C774 C773 1.399 . S
C774 C775 1.385 . S
C775 H761 0.931 . S
C775 C774 1.385 . S
C775 C776 1.389 . S
C776 C775 1.389 . S
C776 C777 1.387 . S
C777 H762 0.930 . S
C777 C772 1.390 . S
C777 C776 1.387 . S
H778 C790 0.930 . S
H779 C792 0.930 . S
H780 C793 0.930 . S
H781 C797 0.959 . S
H782 C797 0.959 . S
H783 C797 0.961 . S
H784 C798 0.960 . S
H785 C798 0.961 . S
H786 C798 0.959 . S
H787 C801 0.929 . S
H788 C802 0.931 . S
H789 C804 0.930 . S
C790 H778 0.930 . S
C790 C791 1.399 . S
C790 C795 1.399 . S
C791 C790 1.399 . S
C791 C792 1.376 . S
C792 H779 0.930 . S
C792 C791 1.376 . S
C792 C793 1.388 . S
C793 H780 0.930 . S
C793 C792 1.388 . S
C793 C794 1.390 . S
C794 C793 1.390 . S
C794 C795 1.394 . S
C794 C800 1.465 . S
C795 C790 1.399 . S
C795 C794 1.394 . S
C795 C796 1.516 . S
C796 C795 1.516 . S
C796 C797 1.502 . S
C796 C798 1.561 . S
C796 C799 1.526 . S
C797 H781 0.959 . S
C797 H782 0.959 . S
C797 H783 0.961 . S
C797 C796 1.502 . S
C798 H784 0.960 . S
C798 H785 0.961 . S
C798 H786 0.959 . S
C798 C796 1.561 . S
C799 C796 1.526 . S
C799 C800 1.396 . S
C799 C804 1.390 . S
C800 C794 1.465 . S
C800 C799 1.396 . S
C800 C801 1.399 . S
C801 H787 0.929 . S
C801 C800 1.399 . S
C801 C802 1.385 . S
C802 H788 0.931 . S
C802 C801 1.385 . S
C802 C803 1.389 . S
C803 C802 1.389 . S
C803 C804 1.387 . S
C804 H789 0.930 . S
C804 C799 1.390 . S
C804 C803 1.387 . S
H805 C817 0.930 . S
H806 C819 0.930 . S
H807 C820 0.930 . S
H808 C824 0.959 . S
H809 C824 0.959 . S
H810 C824 0.961 . S
H811 C825 0.960 . S
H812 C825 0.961 . S
H813 C825 0.959 . S
H814 C828 0.929 . S
H815 C829 0.931 . S
H816 C831 0.930 . S
C817 H805 0.930 . S
C817 C818 1.399 . S
C817 C822 1.399 . S
C818 C817 1.399 . S
C818 C819 1.376 . S
C819 H806 0.930 . S
C819 C818 1.376 . S
C819 C820 1.388 . S
C820 H807 0.930 . S
C820 C819 1.388 . S
C820 C821 1.390 . S
C821 C820 1.390 . S
C821 C822 1.394 . S
C821 C827 1.465 . S
C822 C817 1.399 . S
C822 C821 1.394 . S
C822 C823 1.516 . S
C823 C822 1.516 . S
C823 C824 1.502 . S
C823 C825 1.561 . S
C823 C826 1.526 . S
C824 H808 0.959 . S
C824 H809 0.959 . S
C824 H810 0.961 . S
C824 C823 1.502 . S
C825 H811 0.960 . S
C825 H812 0.961 . S
C825 H813 0.959 . S
C825 C823 1.561 . S
C826 C823 1.526 . S
C826 C827 1.396 . S
C826 C831 1.390 . S
C827 C821 1.465 . S
C827 C826 1.396 . S
C827 C828 1.399 . S
C828 H814 0.929 . S
C828 C827 1.399 . S
C828 C829 1.385 . S
C829 H815 0.931 . S
C829 C828 1.385 . S
C829 C830 1.389 . S
C830 C829 1.389 . S
C830 C831 1.387 . S
C831 H816 0.930 . S
C831 C826 1.390 . S
C831 C830 1.387 . S
H832 C844 0.930 . S
H833 C846 0.930 . S
H834 C847 0.930 . S
H835 C851 0.959 . S
H836 C851 0.959 . S
H837 C851 0.961 . S
H838 C852 0.960 . S
H839 C852 0.961 . S
H840 C852 0.959 . S
H841 C855 0.929 . S
H842 C856 0.931 . S
H843 C858 0.930 . S
C844 H832 0.930 . S
C844 C845 1.399 1_556 S
C844 C849 1.399 . S
C845 C844 1.399 1_554 S
C845 C846 1.376 . S
C846 H833 0.930 . S
C846 C845 1.376 . S
C846 C847 1.388 . S
C847 H834 0.930 . S
C847 C846 1.388 . S
C847 C848 1.390 . S
C848 C847 1.390 . S
C848 C849 1.394 1_554 S
C848 C854 1.465 . S
C849 C844 1.399 . S
C849 C848 1.394 1_556 S
C849 C850 1.516 . S
C850 C849 1.516 . S
C850 C851 1.502 . S
C850 C852 1.561 . S
C850 C853 1.526 . S
C851 H835 0.959 . S
C851 H836 0.959 . S
C851 H837 0.961 . S
C851 C850 1.502 . S
C852 H838 0.960 . S
C852 H839 0.961 . S
C852 H840 0.959 . S
C852 C850 1.561 . S
C853 C850 1.526 . S
C853 C854 1.396 1_556 S
C853 C858 1.390 . S
C854 C848 1.465 . S
C854 C853 1.396 1_554 S
C854 C855 1.399 . S
C855 H841 0.929 . S
C855 C854 1.399 . S
C855 C856 1.385 . S
C856 H842 0.931 . S
C856 C855 1.385 . S
C856 C857 1.389 . S
C857 C856 1.389 . S
C857 C858 1.387 1_554 S
C858 H843 0.930 . S
C858 C853 1.390 . S
C858 C857 1.387 1_556 S
H859 C871 0.930 . S
H860 C873 0.930 . S
H861 C874 0.930 . S
H862 C878 0.959 . S
H863 C878 0.959 . S
H864 C878 0.961 . S
H865 C879 0.960 . S
H866 C879 0.961 . S
H867 C879 0.959 . S
H868 C882 0.929 . S
H869 C883 0.931 . S
H870 C885 0.930 . S
C871 H859 0.930 . S
C871 C872 1.399 . S
C871 C876 1.399 . S
C872 C871 1.399 . S
C872 C873 1.376 . S
C873 H860 0.930 . S
C873 C872 1.376 . S
C873 C874 1.388 . S
C874 H861 0.930 . S
C874 C873 1.388 . S
C874 C875 1.390 . S
C875 C874 1.390 . S
C875 C876 1.394 . S
C875 C881 1.465 . S
C876 C871 1.399 . S
C876 C875 1.394 . S
C876 C877 1.516 . S
C877 C876 1.516 . S
C877 C878 1.502 . S
C877 C879 1.561 . S
C877 C880 1.526 . S
C878 H862 0.959 . S
C878 H863 0.959 . S
C878 H864 0.961 . S
C878 C877 1.502 . S
C879 H865 0.960 . S
C879 H866 0.961 . S
C879 H867 0.959 . S
C879 C877 1.561 . S
C880 C877 1.526 . S
C880 C881 1.396 . S
C880 C885 1.390 . S
C881 C875 1.465 . S
C881 C880 1.396 . S
C881 C882 1.399 . S
C882 H868 0.929 . S
C882 C881 1.399 . S
C882 C883 1.385 . S
C883 H869 0.931 . S
C883 C882 1.385 . S
C883 C884 1.389 . S
C884 C883 1.389 . S
C884 C885 1.387 . S
C885 H870 0.930 . S
C885 C880 1.390 . S
C885 C884 1.387 . S
H886 C898 0.930 . S
H887 C900 0.930 . S
H888 C901 0.930 . S
H889 C905 0.959 . S
H890 C905 0.959 . S
H891 C905 0.961 . S
H892 C906 0.960 . S
H893 C906 0.961 . S
H894 C906 0.959 . S
H895 C909 0.929 . S
H896 C910 0.931 . S
H897 C912 0.930 . S
C898 H886 0.930 . S
C898 C899 1.399 1_556 S
C898 C903 1.399 . S
C899 C898 1.399 1_554 S
C899 C900 1.376 . S
C900 H887 0.930 . S
C900 C899 1.376 . S
C900 C901 1.388 . S
C901 H888 0.930 . S
C901 C900 1.388 . S
C901 C902 1.390 . S
C902 C901 1.390 . S
C902 C903 1.394 1_554 S
C902 C908 1.465 . S
C903 C898 1.399 . S
C903 C902 1.394 1_556 S
C903 C904 1.516 . S
C904 C903 1.516 . S
C904 C905 1.502 . S
C904 C906 1.561 . S
C904 C907 1.526 . S
C905 H889 0.959 . S
C905 H890 0.959 . S
C905 H891 0.961 . S
C905 C904 1.502 . S
C906 H892 0.960 . S
C906 H893 0.961 . S
C906 H894 0.959 . S
C906 C904 1.561 . S
C907 C904 1.526 . S
C907 C908 1.396 1_556 S
C907 C912 1.390 . S
C908 C902 1.465 . S
C908 C907 1.396 1_554 S
C908 C909 1.399 . S
C909 H895 0.929 . S
C909 C908 1.399 . S
C909 C910 1.385 . S
C910 H896 0.931 . S
C910 C909 1.385 . S
C910 C911 1.389 . S
C911 C910 1.389 . S
C911 C912 1.387 1_554 S
C912 H897 0.930 . S
C912 C907 1.390 . S
C912 C911 1.387 1_556 S
H913 C925 0.930 . S
H914 C927 0.930 . S
H915 C928 0.930 . S
H916 C932 0.959 . S
H917 C932 0.959 . S
H918 C932 0.961 . S
H919 C933 0.960 . S
H920 C933 0.961 . S
H921 C933 0.959 . S
H922 C936 0.929 . S
H923 C937 0.931 . S
H924 C939 0.930 . S
C925 H913 0.930 . S
C925 C926 1.399 . S
C925 C930 1.399 . S
C926 C925 1.399 . S
C926 C927 1.376 . S
C927 H914 0.930 . S
C927 C926 1.376 . S
C927 C928 1.388 . S
C928 H915 0.930 . S
C928 C927 1.388 . S
C928 C929 1.390 . S
C929 C928 1.390 . S
C929 C930 1.394 . S
C929 C935 1.465 . S
C930 C925 1.399 . S
C930 C929 1.394 . S
C930 C931 1.516 . S
C931 C930 1.516 . S
C931 C932 1.502 . S
C931 C933 1.561 . S
C931 C934 1.526 . S
C932 H916 0.959 . S
C932 H917 0.959 . S
C932 H918 0.961 . S
C932 C931 1.502 . S
C933 H919 0.960 . S
C933 H920 0.961 . S
C933 H921 0.959 . S
C933 C931 1.561 . S
C934 C931 1.526 . S
C934 C935 1.396 . S
C934 C939 1.390 . S
C935 C929 1.465 . S
C935 C934 1.396 . S
C935 C936 1.399 . S
C936 H922 0.929 . S
C936 C935 1.399 . S
C936 C937 1.385 . S
C937 H923 0.931 . S
C937 C936 1.385 . S
C937 C938 1.389 . S
C938 C937 1.389 . S
C938 C939 1.387 . S
C939 H924 0.930 . S
C939 C934 1.390 . S
C939 C938 1.387 . S
H940 C952 0.930 . S
H941 C954 0.930 . S
H942 C955 0.930 . S
H943 C959 0.959 . S
H944 C959 0.959 . S
H945 C959 0.961 . S
H946 C960 0.960 . S
H947 C960 0.961 . S
H948 C960 0.959 . S
H949 C963 0.929 . S
H950 C964 0.931 . S
H951 C966 0.930 . S
C952 H940 0.930 . S
C952 C953 1.399 . S
C952 C957 1.399 . S
C953 C952 1.399 . S
C953 C954 1.376 . S
C954 H941 0.930 . S
C954 C953 1.376 . S
C954 C955 1.388 . S
C955 H942 0.930 . S
C955 C954 1.388 . S
C955 C956 1.390 . S
C956 C955 1.390 . S
C956 C957 1.394 . S
C956 C962 1.465 . S
C957 C952 1.399 . S
C957 C956 1.394 . S
C957 C958 1.516 . S
C958 C957 1.516 . S
C958 C959 1.502 . S
C958 C960 1.561 . S
C958 C961 1.526 . S
C959 H943 0.959 . S
C959 H944 0.959 . S
C959 H945 0.961 . S
C959 C958 1.502 . S
C960 H946 0.960 . S
C960 H947 0.961 . S
C960 H948 0.959 . S
C960 C958 1.561 . S
C961 C958 1.526 . S
C961 C962 1.396 . S
C961 C966 1.390 . S
C962 C956 1.465 . S
C962 C961 1.396 . S
C962 C963 1.399 . S
C963 H949 0.929 . S
C963 C962 1.399 . S
C963 C964 1.385 . S
C964 H950 0.931 . S
C964 C963 1.385 . S
C964 C965 1.389 . S
C965 C964 1.389 . S
C965 C966 1.387 . S
C966 H951 0.930 . S
C966 C961 1.390 . S
C966 C965 1.387 . S
H967 C979 0.930 . S
H968 C981 0.930 . S
H969 C982 0.930 . S
H970 C986 0.959 . S
H971 C986 0.959 . S
H972 C986 0.961 . S
H973 C987 0.960 . S
H974 C987 0.961 . S
H975 C987 0.959 . S
H976 C990 0.929 . S
H977 C991 0.931 . S
H978 C993 0.930 . S
C979 H967 0.930 . S
C979 C980 1.399 1_554 S
C979 C984 1.399 . S
C980 C979 1.399 1_556 S
C980 C981 1.376 . S
C981 H968 0.930 . S
C981 C980 1.376 . S
C981 C982 1.388 . S
C982 H969 0.930 . S
C982 C981 1.388 . S
C982 C983 1.390 . S
C983 C982 1.390 . S
C983 C984 1.394 1_556 S
C983 C989 1.465 . S
C984 C979 1.399 . S
C984 C983 1.394 1_554 S
C984 C985 1.516 . S
C985 C984 1.516 . S
C985 C986 1.502 . S
C985 C987 1.561 . S
C985 C988 1.526 . S
C986 H970 0.959 . S
C986 H971 0.959 . S
C986 H972 0.961 . S
C986 C985 1.502 . S
C987 H973 0.960 . S
C987 H974 0.961 . S
C987 H975 0.959 . S
C987 C985 1.561 . S
C988 C985 1.526 . S
C988 C989 1.396 1_554 S
C988 C993 1.390 . S
C989 C983 1.465 . S
C989 C988 1.396 1_556 S
C989 C990 1.399 . S
C990 H976 0.929 . S
C990 C989 1.399 . S
C990 C991 1.385 . S
C991 H977 0.931 . S
C991 C990 1.385 . S
C991 C992 1.389 . S
C992 C991 1.389 . S
C992 C993 1.387 1_556 S
C993 H978 0.930 . S
C993 C988 1.390 . S
C993 C992 1.387 1_554 S
H994 C1006 0.930 . S
H995 C1008 0.930 . S
H996 C1009 0.930 . S
H997 C1013 0.959 . S
H998 C1013 0.959 . S
H999 C1013 0.961 . S
H1000 C1014 0.960 . S
H1001 C1014 0.961 . S
H1002 C1014 0.959 . S
H1003 C1017 0.929 . S
H1004 C1018 0.931 . S
H1005 C1020 0.930 . S
C1006 H994 0.930 . S
C1006 C1007 1.399 . S
C1006 C1011 1.399 . S
C1007 C1006 1.399 . S
C1007 C1008 1.376 . S
C1008 H995 0.930 . S
C1008 C1007 1.376 . S
C1008 C1009 1.388 . S
C1009 H996 0.930 . S
C1009 C1008 1.388 . S
C1009 C1010 1.390 . S
C1010 C1009 1.390 . S
C1010 C1011 1.394 . S
C1010 C1016 1.465 . S
C1011 C1006 1.399 . S
C1011 C1010 1.394 . S
C1011 C1012 1.516 . S
C1012 C1011 1.516 . S
C1012 C1013 1.502 . S
C1012 C1014 1.561 . S
C1012 C1015 1.526 . S
C1013 H997 0.959 . S
C1013 H998 0.959 . S
C1013 H999 0.961 . S
C1013 C1012 1.502 . S
C1014 H1000 0.960 . S
C1014 H1001 0.961 . S
C1014 H1002 0.959 . S
C1014 C1012 1.561 . S
C1015 C1012 1.526 . S
C1015 C1016 1.396 . S
C1015 C1020 1.390 . S
C1016 C1010 1.465 . S
C1016 C1015 1.396 . S
C1016 C1017 1.399 . S
C1017 H1003 0.929 . S
C1017 C1016 1.399 . S
C1017 C1018 1.385 . S
C1018 H1004 0.931 . S
C1018 C1017 1.385 . S
C1018 C1019 1.389 . S
C1019 C1018 1.389 . S
C1019 C1020 1.387 . S
C1020 H1005 0.930 . S
C1020 C1015 1.390 . S
C1020 C1019 1.387 . S
H1021 C1033 0.930 . S
H1022 C1035 0.930 . S
H1023 C1036 0.930 . S
H1024 C1040 0.959 . S
H1025 C1040 0.959 . S
H1026 C1040 0.961 . S
H1027 C1041 0.960 . S
H1028 C1041 0.961 . S
H1029 C1041 0.959 . S
H1030 C1044 0.929 . S
H1031 C1045 0.931 . S
H1032 C1047 0.930 . S
C1033 H1021 0.930 . S
C1033 C1034 1.399 1_556 S
C1033 C1038 1.399 . S
C1034 C1033 1.399 1_554 S
C1034 C1035 1.376 . S
C1035 H1022 0.930 . S
C1035 C1034 1.376 . S
C1035 C1036 1.388 . S
C1036 H1023 0.930 . S
C1036 C1035 1.388 . S
C1036 C1037 1.390 . S
C1037 C1036 1.390 . S
C1037 C1038 1.394 1_554 S
C1037 C1043 1.465 . S
C1038 C1033 1.399 . S
C1038 C1037 1.394 1_556 S
C1038 C1039 1.516 . S
C1039 C1038 1.516 . S
C1039 C1040 1.502 . S
C1039 C1041 1.561 . S
C1039 C1042 1.526 . S
C1040 H1024 0.959 . S
C1040 H1025 0.959 . S
C1040 H1026 0.961 . S
C1040 C1039 1.502 . S
C1041 H1027 0.960 . S
C1041 H1028 0.961 . S
C1041 H1029 0.959 . S
C1041 C1039 1.561 . S
C1042 C1039 1.526 . S
C1042 C1043 1.396 1_556 S
C1042 C1047 1.390 . S
C1043 C1037 1.465 . S
C1043 C1042 1.396 1_554 S
C1043 C1044 1.399 . S
C1044 H1030 0.929 . S
C1044 C1043 1.399 . S
C1044 C1045 1.385 . S
C1045 H1031 0.931 . S
C1045 C1044 1.385 . S
C1045 C1046 1.389 . S
C1046 C1045 1.389 . S
C1046 C1047 1.387 1_554 S
C1047 H1032 0.930 . S
C1047 C1042 1.390 . S
C1047 C1046 1.387 1_556 S
C413 C5 1.461 . S
C425 C221 1.447 . S
C440 C31 1.455 . S
C452 C89 1.452 . S
C479 C128 1.462 . S
C467 C53 1.477 . S
C494 C71 1.451 . S
C506 C182 1.454 . S
C533 C284 1.467 . S
C521 C75 1.458 . S
C560 C338 1.464 . S
C548 C9 1.481 . S
C587 C377 1.472 . S
C575 C27 1.462 . S
C614 C245 1.471 . S
C602 C49 1.486 . S
C629 C51 1.495 . S
C641 C143 1.493 . S
C656 C72 1.465 . S
C668 C167 1.459 . S
C683 C6 1.497 . S
C695 C206 1.494 . S
C722 C104 1.462 . S
C710 C29 1.468 . S
C737 C28 1.492 . S
C749 C362 1.490 . S
C776 C260 1.472 . S
C764 C50 1.478 . S
C803 C299 1.449 . S
C791 C73 1.456 . S
C818 C7 1.455 . S
C830 C323 1.449 . S
C857 C109 1.503 . S
C845 C4 1.507 . S
C884 C148 1.486 . S
C872 C30 1.487 . S
C899 C52 1.509 . S
C911 C187 1.504 1_554 S
C926 C70 1.490 . S
C938 C226 1.480 . S
C965 C265 1.503 . S
C953 C74 1.508 . S
C980 C8 1.504 1_556 S
C992 C304 1.500 . S
C1007 C26 1.509 . S
C1019 C343 1.506 . S
C1034 C48 1.488 . S
C1046 C382 1.485 . S
