# Generated by pormake.
# Topology ant, (3,6)-cn, num edge types: 1
# Building blocks:
#     Node 0, Type 0, BuildingBlock: MIDCAF_clean_linker_0, # of connection points: 3
#     Node 1, Type 0, BuildingBlock: MIDCAF_clean_linker_0, # of connection points: 3
#     Node 2, Type 0, BuildingBlock: MIDCAF_clean_linker_0, # of connection points: 3
#     Node 3, Type 0, BuildingBlock: MIDCAF_clean_linker_0, # of connection points: 3
#     Node 4, Type 0, BuildingBlock: MIDCAF_clean_linker_0, # of connection points: 3
#     Node 5, Type 0, BuildingBlock: MIDCAF_clean_linker_0, # of connection points: 3
#     Node 6, Type 0, BuildingBlock: MIDCAF_clean_linker_0, # of connection points: 3
#     Node 7, Type 0, BuildingBlock: MIDCAF_clean_linker_0, # of connection points: 3
#     Node 8, Type 1, BuildingBlock: MIDCAF_clean_sbu_0, # of connection points: 6
#     Node 9, Type 1, BuildingBlock: MIDCAF_clean_sbu_0, # of connection points: 6
#     Node 10, Type 1, BuildingBlock: MIDCAF_clean_sbu_0, # of connection points: 6
#     Node 11, Type 1, BuildingBlock: MIDCAF_clean_sbu_0, # of connection points: 6
#     Edge 12, Type (0, 1), BuildingBlock: CIFDUS_clean_linker_0, # of connection points: 2
#     Edge 13, Type (0, 1), BuildingBlock: CIFDUS_clean_linker_0, # of connection points: 2
#     Edge 14, Type (0, 1), BuildingBlock: CIFDUS_clean_linker_0, # of connection points: 2
#     Edge 15, Type (0, 1), BuildingBlock: CIFDUS_clean_linker_0, # of connection points: 2
#     Edge 16, Type (0, 1), BuildingBlock: CIFDUS_clean_linker_0, # of connection points: 2
#     Edge 17, Type (0, 1), BuildingBlock: CIFDUS_clean_linker_0, # of connection points: 2
#     Edge 18, Type (0, 1), BuildingBlock: CIFDUS_clean_linker_0, # of connection points: 2
#     Edge 19, Type (0, 1), BuildingBlock: CIFDUS_clean_linker_0, # of connection points: 2
#     Edge 20, Type (0, 1), BuildingBlock: CIFDUS_clean_linker_0, # of connection points: 2
#     Edge 21, Type (0, 1), BuildingBlock: CIFDUS_clean_linker_0, # of connection points: 2
#     Edge 22, Type (0, 1), BuildingBlock: CIFDUS_clean_linker_0, # of connection points: 2
#     Edge 23, Type (0, 1), BuildingBlock: CIFDUS_clean_linker_0, # of connection points: 2
#     Edge 24, Type (0, 1), BuildingBlock: CIFDUS_clean_linker_0, # of connection points: 2
#     Edge 25, Type (0, 1), BuildingBlock: CIFDUS_clean_linker_0, # of connection points: 2
#     Edge 26, Type (0, 1), BuildingBlock: CIFDUS_clean_linker_0, # of connection points: 2
#     Edge 27, Type (0, 1), BuildingBlock: CIFDUS_clean_linker_0, # of connection points: 2
#     Edge 28, Type (0, 1), BuildingBlock: CIFDUS_clean_linker_0, # of connection points: 2
#     Edge 29, Type (0, 1), BuildingBlock: CIFDUS_clean_linker_0, # of connection points: 2
#     Edge 30, Type (0, 1), BuildingBlock: CIFDUS_clean_linker_0, # of connection points: 2
#     Edge 31, Type (0, 1), BuildingBlock: CIFDUS_clean_linker_0, # of connection points: 2
#     Edge 32, Type (0, 1), BuildingBlock: CIFDUS_clean_linker_0, # of connection points: 2
#     Edge 33, Type (0, 1), BuildingBlock: CIFDUS_clean_linker_0, # of connection points: 2
#     Edge 34, Type (0, 1), BuildingBlock: CIFDUS_clean_linker_0, # of connection points: 2
#     Edge 35, Type (0, 1), BuildingBlock: CIFDUS_clean_linker_0, # of connection points: 2
# Relax obj value: 0.104
# Max RMSD: 0.159
# Mean RMSD: 0.105
data_MOF--net-ant--node1-MIDCAF_clean_sbu_0--node2-MIDCAF_clean_linker_0--edge1-CIFDUS_clean_linker_0
_symmetry_space_group_name_H-M    P1
_symmetry_Int_Tables_number       1
_symmetry_cell_setting            triclinic
loop_
_symmetry_equiv_pos_as_xyz
'x, y, z'
_cell_length_a     30.50701
_cell_length_b     30.316763
_cell_length_c     83.940246
_cell_angle_alpha  90.172565
_cell_angle_beta   93.829522
_cell_angle_gamma 89.778297
loop_
_atom_site_label
_atom_site_type_symbol
_atom_site_fract_x
_atom_site_fract_y
_atom_site_fract_z
_atom_type_partial_charge
C0 C 0.23772 0.40299 0.05362 0.0
C1 C 0.25343 0.41341 0.06929 0.0
C2 C 0.26733 0.37886 0.0796 0.0
C3 C 0.26666 0.33513 0.07432 0.0
H4 H 0.27723 0.20356 0.09085 0.0
H5 H 0.2888 0.14 0.10855 0.0
H6 H 0.29708 0.05495 0.06745 0.0
H7 H 0.28669 0.11786 0.04997 0.0
H8 H 0.20146 0.14801 0.02182 0.0
H9 H 0.17731 0.12793 0.99433 0.0
H10 H 0.21899 0.255 0.97815 0.0
H11 H 0.24209 0.27579 0.00565 0.0
H12 H 0.2254 0.3523 0.03606 0.0
H13 H 0.22692 0.42886 0.04538 0.0
H14 H 0.27887 0.38563 0.09185 0.0
H15 H 0.27799 0.30966 0.08264 0.0
N16 N 0.26608 0.24496 0.06308 0.0
N17 N 0.25258 0.19288 0.0427 0.0
N18 N 0.23909 0.2678 0.03753 0.0
C19 C 0.26654 0.20232 0.05799 0.0
C20 C 0.23888 0.2252 0.03241 0.0
C21 C 0.25245 0.27798 0.0529 0.0
C22 C 0.28007 0.16572 0.06897 0.0
C23 C 0.28252 0.17141 0.08564 0.0
C24 C 0.28908 0.13498 0.09578 0.0
C25 C 0.29357 0.09223 0.08945 0.0
C26 C 0.29431 0.08728 0.07282 0.0
C27 C 0.28765 0.12348 0.06273 0.0
C28 C 0.22367 0.21352 0.01586 0.0
C29 C 0.20544 0.17169 0.01239 0.0
C30 C 0.19158 0.16014 -0.00327 0.0
C31 C 0.19678 0.18979 0.98424 0.0
C32 C 0.21511 0.23149 0.98764 0.0
C33 C 0.22801 0.24346 0.00335 0.0
C34 C 0.252 0.3246 0.05854 0.0
C35 C 0.23714 0.35908 0.04828 0.0
C36 C 0.22337 0.80249 0.32617 0.0
C37 C 0.22563 0.78822 0.34211 0.0
C38 C 0.18624 0.77872 0.34921 0.0
C39 C 0.14592 0.77999 0.3402 0.0
H40 H 0.99499 0.80032 0.33613 0.0
H41 H 0.92252 0.789 0.34585 0.0
H42 H 0.89485 0.69084 0.30904 0.0
H43 H 0.96619 0.70459 0.29877 0.0
H44 H 0.02459 0.71123 0.26733 0.0
H45 H 0.03705 0.69591 0.23932 0.0
H46 H 0.14107 0.7922 0.24115 0.0
H47 H 0.12942 0.807 0.26918 0.0
H48 H 0.18311 0.81245 0.30466 0.0
H49 H 0.25301 0.8098 0.32028 0.0
H50 H 0.18685 0.76818 0.36154 0.0
H51 H 0.11658 0.77009 0.34582 0.0
N52 N 0.0645 0.77464 0.31971 0.0
N53 N 0.03286 0.75804 0.2941 0.0
N54 N 0.10671 0.77893 0.29741 0.0
C55 C 0.0289 0.76251 0.31005 0.0
C56 C 0.07153 0.76665 0.28769 0.0
C57 C 0.1037 0.78276 0.31343 0.0
C58 C 0.98617 0.75348 0.31668 0.0
C59 C 0.97339 0.77623 0.33019 0.0
C60 C 0.93182 0.76943 0.33581 0.0
C61 C 0.90241 0.73884 0.32829 0.0
C62 C 0.9159 0.71536 0.31497 0.0
C63 C 0.95704 0.72296 0.30914 0.0
C64 C 0.07621 0.76017 0.27045 0.0
C65 C 0.04975 0.7295 0.26169 0.0
C66 C 0.0569 0.72061 0.24572 0.0
C67 C 0.08988 0.74299 0.23816 0.0
C68 C 0.11517 0.77482 0.24671 0.0
C69 C 0.10869 0.78304 0.26276 0.0
C70 C 0.14422 0.79052 0.32387 0.0
C71 C 0.18318 0.80357 0.31715 0.0
C72 C 0.72604 0.8989 0.5628 0.0
C73 C 0.73615 0.91074 0.57879 0.0
C74 C 0.74758 0.8772 0.58991 0.0
C75 C 0.7482 0.83279 0.58517 0.0
H76 H 0.77587 0.69613 0.60017 0.0
H77 H 0.7969 0.63102 0.61618 0.0
H78 H 0.78756 0.55073 0.57347 0.0
H79 H 0.76791 0.61511 0.55764 0.0
H80 H 0.69956 0.6414 0.52945 0.0
H81 H 0.65761 0.62529 0.50428 0.0
H82 H 0.61748 0.76189 0.50077 0.0
H83 H 0.65856 0.77796 0.5258 0.0
H84 H 0.71759 0.84695 0.54568 0.0
H85 H 0.71682 0.9238 0.55396 0.0
H86 H 0.75604 0.88532 0.60231 0.0
H87 H 0.75659 0.80777 0.59405 0.0
N88 N 0.75318 0.74075 0.57319 0.0
N89 N 0.72776 0.68896 0.55383 0.0
N90 N 0.71202 0.76376 0.55002 0.0
C91 C 0.75028 0.69806 0.56798 0.0
C92 C 0.70835 0.72149 0.54483 0.0
C93 C 0.73435 0.77391 0.56408 0.0
C94 C 0.76943 0.66081 0.57765 0.0
C95 C 0.77932 0.66471 0.59419 0.0
C96 C 0.7912 0.62733 0.60337 0.0
C97 C 0.79374 0.58539 0.59617 0.0
C98 C 0.78661 0.58232 0.57949 0.0
C99 C 0.77466 0.61941 0.57039 0.0
C100 C 0.68263 0.71106 0.52967 0.0
C101 C 0.68156 0.66795 0.52335 0.0
C102 C 0.65758 0.65866 0.50893 0.0
C103 C 0.63389 0.69219 0.50061 0.0
C104 C 0.63461 0.73507 0.50704 0.0
C105 C 0.65865 0.7444 0.52135 0.0
C106 C 0.7369 0.82092 0.56923 0.0
C107 C 0.72623 0.85465 0.5581 0.0
C108 C 0.70105 0.34415 0.82008 0.0
C109 C 0.70428 0.31768 0.83381 0.0
C110 C 0.66532 0.30356 0.84029 0.0
C111 C 0.62423 0.31329 0.83261 0.0
H112 H 0.48016 0.32957 0.83572 0.0
H113 H 0.40839 0.31349 0.84566 0.0
H114 H 0.35658 0.28503 0.79764 0.0
H115 H 0.42796 0.30105 0.78765 0.0
H116 H 0.48967 0.3101 0.75898 0.0
H117 H 0.50431 0.30363 0.73078 0.0
H118 H 0.61799 0.38695 0.73874 0.0
H119 H 0.60418 0.39278 0.76702 0.0
H120 H 0.65918 0.37253 0.80142 0.0
H121 H 0.73028 0.35534 0.81468 0.0
H122 H 0.66666 0.28361 0.851 0.0
H123 H 0.59504 0.30014 0.8375 0.0
N124 N 0.54014 0.32996 0.81434 0.0
N125 N 0.50458 0.33665 0.78875 0.0
N126 N 0.5802 0.34905 0.79249 0.0
C127 C 0.50257 0.32849 0.80459 0.0
C128 C 0.54316 0.34732 0.78265 0.0
C129 C 0.57918 0.34031 0.80832 0.0
C130 C 0.45982 0.31689 0.81088 0.0
C131 C 0.45358 0.31963 0.82729 0.0
C132 C 0.41245 0.31064 0.83297 0.0
C133 C 0.37693 0.29814 0.82239 0.0
C134 C 0.38343 0.29431 0.80606 0.0
C135 C 0.42432 0.30382 0.80036 0.0
C136 C 0.54619 0.35144 0.76524 0.0
C137 C 0.51704 0.32811 0.75465 0.0
C138 C 0.52531 0.32439 0.73852 0.0
C139 C 0.56218 0.34482 0.7327 0.0
C140 C 0.5891 0.37129 0.74297 0.0
C141 C 0.58139 0.37428 0.75915 0.0
C142 C 0.62129 0.33709 0.81822 0.0
C143 C 0.66013 0.35369 0.81238 0.0
C144 C 0.94446 0.57294 0.91417 0.0
C145 C 0.94116 0.56882 0.89743 0.0
C146 C 0.95133 0.60596 0.88827 0.0
C147 C 0.96687 0.64506 0.89573 0.0
H148 H 0.99242 0.78655 0.89198 0.0
H149 H 1.00008 0.85944 0.88035 0.0
H150 H 0.06982 0.90445 0.92379 0.0
H151 H 0.06161 0.83197 0.93557 0.0
H152 H 0.09512 0.76001 0.96236 0.0
H153 H 0.12055 0.74768 0.99027 0.0
H154 H 0.03903 0.63192 0.99148 0.0
H155 H 0.0138 0.64368 0.96368 0.0
H156 H 0.96282 0.61249 0.93445 0.0
H157 H 0.93795 0.54535 0.9218 0.0
H158 H 0.94865 0.60443 0.87536 0.0
H159 H 0.97625 0.67233 0.88839 0.0
N160 N 1.00015 0.72529 0.91379 0.0
N161 N 0.03907 0.75114 0.93714 0.0
N162 N 0.01251 0.679 0.93597 0.0
C163 C 0.02189 0.7586 0.92198 0.0
C164 C 0.03452 0.71135 0.94419 0.0
C165 C 0.99527 0.68531 0.92085 0.0
C166 C 0.0265 0.80302 0.91472 0.0
C167 C 0.00937 0.81189 0.89909 0.0
C168 C 0.01393 0.85375 0.89238 0.0
C169 C 0.03574 0.88788 0.90111 0.0
C170 C 0.05245 0.87917 0.91679 0.0
C171 C 0.04796 0.83733 0.92349 0.0
C172 C 0.05213 0.70311 0.9608 0.0
C173 C 0.08293 0.73172 0.96852 0.0
C174 C 0.09784 0.72442 0.98443 0.0
C175 C 0.08178 0.68877 0.99295 0.0
C176 C 0.05189 0.65961 0.98515 0.0
C177 C 0.03746 0.66649 0.96922 0.0
C178 C 0.97256 0.64769 0.91246 0.0
C179 C 0.9596 0.61167 0.92152 0.0
C180 C 0.55264 0.83909 0.16551 0.0
C181 C 0.55262 0.83034 0.14907 0.0
C182 C 0.59313 0.82429 0.14224 0.0
C183 C 0.63254 0.82416 0.15183 0.0
H184 H 0.77219 0.8438 0.15445 0.0
H185 H 0.84502 0.84602 0.14435 0.0
H186 H 0.90026 0.78752 0.18806 0.0
H187 H 0.82717 0.78482 0.19823 0.0
H188 H 0.76256 0.79565 0.23032 0.0
H189 H 0.75073 0.76627 0.25696 0.0
H190 H 0.61803 0.73141 0.24094 0.0
H191 H 0.62916 0.76104 0.21465 0.0
H192 H 0.59035 0.84323 0.18784 0.0
H193 H 0.52205 0.84345 0.17119 0.0
H194 H 0.59414 0.81774 0.12958 0.0
H195 H 0.66297 0.81731 0.14633 0.0
N196 N 0.7129 0.82309 0.17358 0.0
N197 N 0.74384 0.80004 0.19861 0.0
N198 N 0.6676 0.80822 0.19435 0.0
C199 C 0.74906 0.81284 0.18332 0.0
C200 C 0.70313 0.79758 0.20417 0.0
C201 C 0.67204 0.82119 0.1791 0.0
C202 C 0.79363 0.8143 0.1772 0.0
C203 C 0.79972 0.83137 0.16196 0.0
C204 C 0.84157 0.83286 0.15618 0.0
C205 C 0.87844 0.81718 0.16545 0.0
C206 C 0.87245 0.79961 0.18061 0.0
C207 C 0.83054 0.79836 0.18645 0.0
C208 C 0.69679 0.78073 0.22038 0.0
C209 C 0.73089 0.78176 0.23253 0.0
C210 C 0.72417 0.76512 0.24774 0.0
C211 C 0.68364 0.74633 0.25087 0.0
C212 C 0.64973 0.74532 0.23875 0.0
C213 C 0.65609 0.7626 0.22373 0.0
C214 C 0.63207 0.82946 0.16846 0.0
C215 C 0.59185 0.83847 0.1751 0.0
C216 C 0.499 0.04693 0.41726 0.0
C217 C 0.49784 0.05247 0.40062 0.0
C218 C 0.49941 0.09539 0.39441 0.0
C219 C 0.50423 0.1318 0.40464 0.0
H220 H 0.50788 0.26629 0.40532 0.0
H221 H 0.50714 0.34041 0.3945 0.0
H222 H 0.545 0.3929 0.44127 0.0
H223 H 0.5465 0.31826 0.4522 0.0
H224 H 0.53012 0.24832 0.48254 0.0
H225 H 0.54967 0.23593 0.51083 0.0
H226 H 0.59613 0.10518 0.50029 0.0
H227 H 0.57557 0.11701 0.47181 0.0
H228 H 0.50636 0.07749 0.44024 0.0
H229 H 0.49848 0.01426 0.42244 0.0
H230 H 0.49836 0.10067 0.38163 0.0
H231 H 0.50668 0.16427 0.39944 0.0
N232 N 0.51726 0.20574 0.42641 0.0
N233 N 0.53803 0.23314 0.45193 0.0
N234 N 0.52915 0.15698 0.4479 0.0
C235 C 0.5273 0.24058 0.43619 0.0
C236 C 0.53915 0.19141 0.45784 0.0
C237 C 0.51786 0.16389 0.43216 0.0
C238 C 0.52701 0.2861 0.42968 0.0
C239 C 0.51606 0.29345 0.41337 0.0
C240 C 0.51543 0.33608 0.40715 0.0
C241 C 0.52563 0.37261 0.41705 0.0
C242 C 0.53721 0.36541 0.43332 0.0
C243 C 0.5378 0.32261 0.43958 0.0
C244 C 0.55121 0.18363 0.47496 0.0
C245 C 0.5444 0.21688 0.48621 0.0
C246 C 0.55535 0.20973 0.50239 0.0
C247 C 0.57407 0.16952 0.50765 0.0
C248 C 0.58157 0.13636 0.49646 0.0
C249 C 0.5697 0.14316 0.48024 0.0
C250 C 0.50795 0.126 0.42131 0.0
C251 C 0.50409 0.08323 0.42748 0.0
C252 C 0.05758 0.37966 0.67277 0.0
C253 C 0.05155 0.36054 0.65751 0.0
C254 C 0.08882 0.34534 0.65005 0.0
C255 C 0.13075 0.34728 0.658 0.0
H256 H 0.27363 0.35627 0.65397 0.0
H257 H 0.34489 0.35004 0.64251 0.0
H258 H 0.40579 0.31736 0.6889 0.0
H259 H 0.33481 0.32296 0.70035 0.0
H260 H 0.27264 0.30909 0.72983 0.0
H261 H 0.26378 0.29662 0.75825 0.0
H262 H 0.14832 0.37966 0.75554 0.0
H263 H 0.15658 0.39164 0.72718 0.0
H264 H 0.10218 0.39473 0.69272 0.0
H265 H 0.02972 0.39129 0.67896 0.0
H266 H 0.08537 0.33078 0.63824 0.0
H267 H 0.15846 0.33377 0.65217 0.0
N268 N 0.2174 0.35301 0.67627 0.0
N269 N 0.25457 0.34655 0.70162 0.0
N270 N 0.1789 0.36029 0.69944 0.0
C271 C 0.25558 0.34669 0.68545 0.0
C272 C 0.21645 0.35354 0.70869 0.0
C273 C 0.17884 0.35991 0.68326 0.0
C274 C 0.29829 0.34045 0.67812 0.0
C275 C 0.30209 0.34743 0.66172 0.0
C276 C 0.34303 0.34411 0.65517 0.0
C277 C 0.38112 0.33348 0.66482 0.0
C278 C 0.37712 0.32528 0.68111 0.0
C279 C 0.33631 0.32883 0.68768 0.0
C280 C 0.215 0.35096 0.72624 0.0
C281 C 0.24587 0.32537 0.73538 0.0
C282 C 0.24084 0.31817 0.75161 0.0
C283 C 0.20544 0.33724 0.75905 0.0
C284 C 0.17618 0.36496 0.75014 0.0
C285 C 0.18069 0.37147 0.73387 0.0
C286 C 0.13622 0.36398 0.67365 0.0
C287 C 0.09925 0.38123 0.68073 0.0
Zn288 Zn 0.25159 0.69752 0.13494 0.0
Zn289 Zn 0.15355 0.80882 0.10063 0.0
Zn290 Zn 0.20469 0.75348 0.11656 0.0
C291 C 0.16641 0.73617 0.08074 0.0
C292 C 0.23126 0.85356 0.10847 0.0
O293 O 0.17393 0.74548 0.13937 0.0
O294 O 0.21695 0.70059 0.15421 0.0
C295 C 0.22786 0.65211 0.10681 0.0
O296 O 0.18828 0.72151 0.09328 0.0
O297 O 0.14891 0.77395 0.0807 0.0
O298 O 0.19269 0.8602 0.1026 0.0
O299 O 0.24313 0.81499 0.11357 0.0
O300 O 0.24589 0.64623 0.12062 0.0
O301 O 0.211 0.69002 0.10289 0.0
O302 O 0.27029 0.78397 0.12141 0.0
O303 O 0.30737 0.73087 0.13447 0.0
C304 C 0.3064 0.76853 0.12808 0.0
O305 O 0.1424 0.76615 0.12898 0.0
O306 O 0.10194 0.81076 0.11322 0.0
C307 C 0.18354 0.7253 0.15265 0.0
C308 C 0.10651 0.78815 0.12579 0.0
Zn309 Zn 0.53452 0.6611 0.35272 0.0
Zn310 Zn 0.6132 0.76143 0.38952 0.0
Zn311 Zn 0.57628 0.71272 0.37249 0.0
C312 C 0.55328 0.81393 0.37643 0.0
C313 C 0.67842 0.73127 0.37276 0.0
O314 O 0.56989 0.64776 0.38454 0.0
O315 O 0.54298 0.60563 0.36471 0.0
C316 C 0.47515 0.72681 0.36027 0.0
O317 O 0.53728 0.77471 0.37492 0.0
O318 O 0.59373 0.81856 0.3801 0.0
O319 O 0.67455 0.74327 0.38698 0.0
O320 O 0.64327 0.72386 0.36371 0.0
O321 O 0.47589 0.68926 0.35377 0.0
O322 O 0.51059 0.74329 0.36701 0.0
O323 O 0.6137 0.71249 0.3509 0.0
O324 O 0.56962 0.67408 0.33413 0.0
C325 C 0.60345 0.6976 0.33673 0.0
O326 O 0.58677 0.67965 0.3959 0.0
O327 O 0.58697 0.742 0.4094 0.0
C328 C 0.55709 0.60978 0.37912 0.0
C329 C 0.58532 0.70043 0.40926 0.0
Zn330 Zn 0.67119 0.30206 0.60705 0.0
Zn331 Zn 0.75384 0.19798 0.64739 0.0
Zn332 Zn 0.7152 0.2492 0.62617 0.0
C333 C 0.81801 0.25523 0.63673 0.0
C334 C 0.72247 0.14293 0.62286 0.0
O335 O 0.65192 0.27027 0.6366 0.0
O336 O 0.61691 0.31116 0.61807 0.0
C337 C 0.75046 0.34384 0.61474 0.0
O338 O 0.78372 0.27444 0.63008 0.0
O339 O 0.81414 0.21948 0.64419 0.0
O340 O 0.73567 0.14148 0.63742 0.0
O341 O 0.71606 0.18054 0.61588 0.0
O342 O 0.71333 0.35087 0.60769 0.0
O343 O 0.75898 0.30661 0.62171 0.0
O344 O 0.69751 0.20991 0.60441 0.0
O345 O 0.66699 0.26148 0.58863 0.0
C346 C 0.67938 0.22209 0.59084 0.0
O347 O 0.68112 0.25297 0.64849 0.0
O348 O 0.72332 0.2163 0.66644 0.0
C349 C 0.61762 0.29263 0.6315 0.0
C350 C 0.69007 0.24012 0.66297 0.0
Zn351 Zn 0.02098 0.18918 0.84335 0.0
Zn352 Zn 0.0871 0.29706 0.88682 0.0
Zn353 Zn 0.05517 0.2427 0.86556 0.0
C354 C 0.08109 0.21744 0.90227 0.0
C355 C 0.01176 0.33736 0.87562 0.0
O356 O 0.09659 0.24439 0.84498 0.0
O357 O 0.06098 0.20375 0.8264 0.0
C358 C 0.04288 0.13658 0.86985 0.0
O359 O 0.06866 0.20449 0.88804 0.0
O360 O 0.08919 0.2575 0.90511 0.0
O361 O 0.04326 0.34408 0.88579 0.0
O362 O 0.00996 0.30132 0.86735 0.0
O363 O 0.03203 0.13375 0.85511 0.0
O364 O 0.0506 0.17481 0.8763 0.0
O365 O 0.98836 0.26777 0.8585 0.0
O366 O 0.96035 0.21453 0.84289 0.0
C367 C 0.95564 0.25055 0.85019 0.0
O368 O 0.11956 0.26582 0.85776 0.0
O369 O 0.1436 0.30968 0.87749 0.0
C370 C 0.09278 0.22855 0.83069 0.0
C371 C 0.14952 0.29122 0.86431 0.0
H372 H 0.19313 0.48096 0.06486 0.0
H373 H 0.3224 0.45076 0.08625 0.0
H374 H 0.3271 0.52386 0.09822 0.0
H375 H 0.29256 0.59334 0.10467 0.0
H376 H 0.16345 0.62591 0.08405 0.0
H377 H 0.16105 0.55559 0.06929 0.0
C378 C 0.22253 0.49071 0.07194 0.0
C379 C 0.25699 0.45997 0.07494 0.0
C380 C 0.22505 0.53318 0.0789 0.0
C381 C 0.29494 0.47322 0.0841 0.0
C382 C 0.2978 0.51515 0.09088 0.0
C383 C 0.26403 0.58531 0.09678 0.0
C384 C 0.22808 0.61448 0.09554 0.0
C385 C 0.2627 0.54487 0.0887 0.0
C386 C 0.19164 0.60407 0.08511 0.0
C387 C 0.19015 0.56366 0.07683 0.0
H388 H 0.87861 0.74254 0.35907 0.0
H389 H 0.82499 0.71937 0.31083 0.0
H390 H 0.75216 0.70951 0.32053 0.0
H391 H 0.7031 0.71028 0.34276 0.0
H392 H 0.7559 0.7445 0.39005 0.0
H393 H 0.82951 0.74644 0.38074 0.0
C394 C 0.85108 0.73605 0.35056 0.0
C395 C 0.8578 0.73192 0.3342 0.0
C396 C 0.80888 0.73224 0.35609 0.0
C397 C 0.82142 0.72208 0.32354 0.0
C398 C 0.77948 0.71678 0.32905 0.0
C399 C 0.73037 0.71932 0.35088 0.0
C400 C 0.72329 0.72875 0.3669 0.0
C401 C 0.77273 0.72234 0.34529 0.0
C402 C 0.75987 0.73776 0.37755 0.0
C403 C 0.80218 0.73899 0.37225 0.0
H404 H 0.83885 0.50916 0.59011 0.0
H405 H 0.7556 0.56817 0.62401 0.0
H406 H 0.74483 0.49641 0.63596 0.0
H407 H 0.74472 0.41607 0.63264 0.0
H408 H 0.82163 0.35583 0.59731 0.0
H409 H 0.84983 0.42836 0.59022 0.0
C410 C 0.819 0.50644 0.6003 0.0
C411 C 0.79733 0.54414 0.60588 0.0
C412 C 0.81151 0.46455 0.60678 0.0
C413 C 0.77274 0.54005 0.61939 0.0
C414 C 0.76616 0.49878 0.62617 0.0
C415 C 0.76933 0.41878 0.62393 0.0
C416 C 0.78139 0.38096 0.61554 0.0
C417 C 0.78344 0.46066 0.61942 0.0
C418 C 0.81251 0.38456 0.60406 0.0
C419 C 0.82799 0.42612 0.59984 0.0
H420 H 0.78202 0.36274 0.83796 0.0
H421 H 0.72499 0.23396 0.84336 0.0
H422 H 0.79757 0.20276 0.84998 0.0
H423 H 0.87769 0.21037 0.85183 0.0
H424 H 0.93584 0.33786 0.84573 0.0
H425 H 0.86264 0.37138 0.84187 0.0
C426 C 0.78548 0.32793 0.84071 0.0
C427 C 0.74797 0.30077 0.84009 0.0
C428 C 0.82759 0.30993 0.8443 0.0
C429 C 0.75305 0.25582 0.84392 0.0
C430 C 0.79466 0.23779 0.84755 0.0
C431 C 0.87422 0.24558 0.84979 0.0
C432 C 0.91193 0.27181 0.84921 0.0
C433 C 0.83216 0.26429 0.84741 0.0
C434 C 0.90721 0.31733 0.84664 0.0
C435 C 0.86537 0.33632 0.84424 0.0
H436 H 0.97538 0.53365 0.87073 0.0
H437 H 0.88777 0.50254 0.90742 0.0
H438 H 0.89499 0.42426 0.90159 0.0
H439 H 0.94022 0.36515 0.89043 0.0
H440 H 0.02368 0.39651 0.85273 0.0
H441 H 1.00243 0.47411 0.85409 0.0
C442 C 0.9563 0.51019 0.87706 0.0
C443 C 0.93297 0.52421 0.89012 0.0
C444 C 0.96002 0.46499 0.8735 0.0
C445 C 0.90801 0.49277 0.89789 0.0
C446 C 0.91183 0.44782 0.89451 0.0
C447 C 0.95179 0.38868 0.88196 0.0
C448 C 0.98345 0.37547 0.87153 0.0
C449 C 0.93992 0.43346 0.88301 0.0
C450 C 0.99886 0.40611 0.86074 0.0
C451 C 0.98724 0.4506 0.86169 0.0
H452 H 0.94287 0.7538 0.16632 0.0
H453 H 0.91383 0.88694 0.15074 0.0
H454 H 0.9837 0.89049 0.13835 0.0
H455 H 0.05024 0.8545 0.1303 0.0
H456 H 0.07974 0.72076 0.14473 0.0
H457 H 0.01325 0.71908 0.15967 0.0
C458 C 0.9522 0.78376 0.1604 0.0
C459 C 0.92287 0.81986 0.15925 0.0
C460 C 0.99251 0.78549 0.15316 0.0
C461 C 0.93535 0.85841 0.15151 0.0
C462 C 0.9754 0.86056 0.14448 0.0
C463 C 0.04231 0.82504 0.13682 0.0
C464 C 0.06984 0.78784 0.13646 0.0
C465 C 0.00373 0.82405 0.14496 0.0
C466 C 0.05935 0.75002 0.14502 0.0
C467 C 0.02112 0.74896 0.15342 0.0
H468 H 0.58371 0.44071 0.42257 0.0
H469 H 0.4619 0.40633 0.39639 0.0
H470 H 0.46015 0.47771 0.38317 0.0
H471 H 0.49495 0.5477 0.37777 0.0
H472 H 0.61667 0.58373 0.40329 0.0
H473 H 0.61627 0.51448 0.41844 0.0
C474 C 0.55651 0.44916 0.41415 0.0
C475 C 0.52335 0.41788 0.41028 0.0
C476 C 0.55565 0.49053 0.40653 0.0
C477 C 0.48835 0.42932 0.39931 0.0
C478 C 0.48717 0.47023 0.3918 0.0
C479 C 0.52128 0.54051 0.38674 0.0
C480 C 0.55577 0.57069 0.38951 0.0
C481 C 0.521 0.50065 0.39509 0.0
C482 C 0.58941 0.56131 0.40123 0.0
C483 C 0.58937 0.52151 0.40971 0.0
H484 H 0.02085 0.2858 0.64295 0.0
H485 H 0.97977 0.41606 0.65652 0.0
H486 H 0.90313 0.3972 0.64905 0.0
H487 H 0.84686 0.34009 0.64182 0.0
H488 H 0.88968 0.20914 0.62988 0.0
H489 H 0.96623 0.23208 0.63311 0.0
C490 C 0.99536 0.31054 0.64388 0.0
C491 C 0.00616 0.35218 0.65039 0.0
C492 C 0.95137 0.29915 0.63991 0.0
C493 C 0.97238 0.38351 0.65173 0.0
C494 C 0.92849 0.37276 0.64745 0.0
C495 C 0.87304 0.31708 0.63954 0.0
C496 C 0.86277 0.27298 0.63566 0.0
C497 C 0.91738 0.33016 0.642 0.0
C498 C 0.89691 0.24321 0.63295 0.0
C499 C 0.9407 0.25625 0.63485 0.0
H500 H 0.44762 0.27315 0.67023 0.0
H501 H 0.41361 0.39258 0.64432 0.0
H502 H 0.48479 0.39181 0.63274 0.0
H503 H 0.55555 0.35642 0.62925 0.0
H504 H 0.58896 0.23482 0.65372 0.0
H505 H 0.52005 0.23813 0.66707 0.0
C506 C 0.45597 0.29919 0.66215 0.0
C507 C 0.42503 0.33267 0.65804 0.0
C508 C 0.49709 0.29846 0.65544 0.0
C509 C 0.43633 0.36597 0.64746 0.0
C510 C 0.47719 0.36575 0.64091 0.0
C511 C 0.54794 0.33072 0.63759 0.0
C512 C 0.57787 0.29588 0.64073 0.0
C513 C 0.50761 0.33199 0.6447 0.0
C514 C 0.56724 0.26273 0.65147 0.0
C515 C 0.52749 0.2643 0.65893 0.0
H516 H 0.47507 0.87664 0.14869 0.0
H517 H 0.53514 0.76111 0.12914 0.0
H518 H 0.46351 0.73501 0.11873 0.0
H519 H 0.38346 0.73882 0.11902 0.0
H520 H 0.3217 0.85323 0.13834 0.0
H521 H 0.39415 0.88636 0.14485 0.0
C522 C 0.47244 0.84622 0.14187 0.0
C523 C 0.51042 0.82064 0.13985 0.0
C524 C 0.43083 0.831 0.13605 0.0
C525 C 0.50663 0.78159 0.1308 0.0
C526 C 0.46556 0.76637 0.12496 0.0
C527 C 0.38597 0.77152 0.1243 0.0
C528 C 0.34773 0.7935 0.12839 0.0
C529 C 0.42744 0.7899 0.12807 0.0
C530 C 0.35093 0.83589 0.13509 0.0
C531 C 0.3923 0.85456 0.13892 0.0
H532 H 0.3335 0.35069 0.84215 0.0
H533 H 0.32117 0.22907 0.81553 0.0
H534 H 0.24877 0.21647 0.82567 0.0
H535 H 0.19093 0.23835 0.84344 0.0
H536 H 0.20271 0.36212 0.86885 0.0
H537 H 0.27389 0.37491 0.85824 0.0
C538 C 0.31506 0.32129 0.83866 0.0
C539 C 0.33284 0.29057 0.82831 0.0
C540 C 0.27353 0.31448 0.84442 0.0
C541 C 0.30816 0.25313 0.82355 0.0
C542 C 0.26687 0.24586 0.82938 0.0
C543 C 0.20854 0.26861 0.8463 0.0
C544 C 0.1912 0.29943 0.85676 0.0
C545 C 0.24938 0.27615 0.83995 0.0
C546 C 0.21526 0.3378 0.86082 0.0
C547 C 0.25598 0.34523 0.85474 0.0
H548 H 0.30275 0.83509 0.34294 0.0
H549 H 0.24618 0.71426 0.35919 0.0
H550 H 0.31876 0.6872 0.36815 0.0
H551 H 0.39856 0.69305 0.3679 0.0
H552 H 0.45701 0.81248 0.35172 0.0
H553 H 0.38365 0.84515 0.34631 0.0
C554 C 0.30634 0.80316 0.34868 0.0
C555 C 0.26897 0.77665 0.35027 0.0
C556 C 0.34854 0.78737 0.35365 0.0
C557 C 0.27413 0.73559 0.35793 0.0
C558 C 0.31575 0.71982 0.36292 0.0
C559 C 0.39514 0.72659 0.36348 0.0
C560 C 0.43276 0.75033 0.36007 0.0
C561 C 0.35317 0.74473 0.36034 0.0
C562 C 0.42831 0.7938 0.35449 0.0
C563 C 0.38641 0.81224 0.35128 0.0
H564 H 0.69894 0.94331 0.60484 0.0
H565 H 0.76675 0.984 0.56394 0.0
H566 H 0.7635 0.06104 0.57269 0.0
H567 H 0.74639 0.11642 0.59335 0.0
H568 H 0.68066 0.07356 0.63446 0.0
H569 H 0.67764 0.9983 0.62421 0.0
C570 C 0.71322 0.96899 0.59788 0.0
C571 C 0.73358 0.95777 0.58389 0.0
C572 C 0.71136 0.01307 0.60299 0.0
C573 C 0.75092 0.99168 0.57479 0.0
C574 C 0.74913 0.03578 0.57979 0.0
C575 C 0.73049 0.09072 0.59979 0.0
C576 C 0.71371 0.10044 0.61461 0.0
C577 C 0.72993 0.04689 0.59402 0.0
C578 C 0.69383 0.06676 0.62302 0.0
C579 C 0.69231 0.02365 0.61723 0.0
H580 H 0.33853 0.01385 0.08784 0.0
H581 H 0.23959 0.08036 0.11362 0.0
H582 H 0.21831 0.01065 0.12495 0.0
H583 H 0.21634 0.93031 0.12267 0.0
H584 H 0.31117 0.86207 0.09583 0.0
H585 H 0.3459 0.93263 0.08989 0.0
C586 C 0.31294 0.01315 0.0962 0.0
C587 C 0.29011 0.05231 0.09958 0.0
C588 C 0.29969 0.97248 0.10229 0.0
C589 C 0.25782 0.05098 0.11077 0.0
C590 C 0.24522 0.01094 0.11714 0.0
C591 C 0.24561 0.93092 0.116 0.0
C592 C 0.26106 0.89157 0.10951 0.0
C593 C 0.26426 0.97142 0.11229 0.0
C594 C 0.29893 0.89221 0.10093 0.0
C595 C 0.31837 0.93255 0.0974 0.0
H596 H 0.45254 0.97482 0.40125 0.0
H597 H 0.55247 0.04205 0.37663 0.0
H598 H 0.57216 0.97334 0.36383 0.0
H599 H 0.57135 0.89271 0.36407 0.0
H600 H 0.47394 0.82396 0.38923 0.0
H601 H 0.44216 0.89453 0.39709 0.0
C602 C 0.47795 0.97448 0.39281 0.0
C603 C 0.50151 0.01334 0.39012 0.0
C604 C 0.48981 0.9345 0.38571 0.0
C605 C 0.53378 0.0127 0.37892 0.0
C606 C 0.54536 0.97329 0.37168 0.0
C607 C 0.54222 0.89331 0.37082 0.0
C608 C 0.52531 0.85357 0.37631 0.0
C609 C 0.52509 0.93377 0.37561 0.0
C610 C 0.48742 0.85434 0.38491 0.0
C611 C 0.46964 0.89466 0.38955 0.0
H612 H 0.02832 0.97015 0.91464 0.0
H613 H 0.05801 0.90469 0.87085 0.0
H614 H 0.06567 0.97577 0.85794 0.0
H615 H 0.06108 0.05593 0.85856 0.0
H616 H 0.02975 0.12314 0.90165 0.0
H617 H 0.0272 0.05214 0.91557 0.0
C618 C 0.03693 0.97147 0.90232 0.0
C619 C 0.04197 0.9319 0.89368 0.0
C620 C 0.04141 0.01277 0.89491 0.0
C621 C 0.05292 0.93438 0.8777 0.0
C622 C 0.05766 0.97509 0.87033 0.0
C623 C 0.05397 0.05519 0.87105 0.0
C624 C 0.04597 0.0949 0.87912 0.0
C625 C 0.05145 0.01438 0.87874 0.0
C626 C 0.03708 0.09324 0.8953 0.0
C627 C 0.03501 0.05253 0.90316 0.0
H628 H 0.1142 0.17054 0.97255 0.0
H629 H 0.24708 0.18448 0.95891 0.0
H630 H 0.22175 0.17943 0.9307 0.0
H631 H 0.16099 0.18723 0.91041 0.0
H632 H 0.02769 0.18532 0.92412 0.0
H633 H 0.05333 0.16731 0.95163 0.0
C634 C 0.13752 0.17119 0.96334 0.0
C635 C 0.18227 0.17825 0.96763 0.0
C636 C 0.12241 0.17023 0.94715 0.0
C637 C 0.21244 0.17946 0.95575 0.0
C638 C 0.19795 0.17656 0.93966 0.0
C639 C 0.13762 0.18051 0.9193 0.0
C640 C 0.09264 0.18676 0.91532 0.0
C641 C 0.15288 0.17403 0.93524 0.0
C642 C 0.06243 0.17958 0.92692 0.0
C643 C 0.0772 0.17023 0.94269 0.0
H644 H 0.0951 0.79794 0.21296 0.0
H645 H 0.10872 0.6616 0.22688 0.0
H646 H 0.13624 0.64307 0.20095 0.0
H647 H 0.16291 0.66719 0.17536 0.0
H648 H 0.14818 0.80335 0.16128 0.0
H649 H 0.11399 0.82047 0.1861 0.0
C650 C 0.1036 0.76414 0.21017 0.0
C651 C 0.10036 0.7312 0.22175 0.0
C652 C 0.11929 0.7538 0.19527 0.0
C653 C 0.11092 0.68739 0.21806 0.0
C654 C 0.12687 0.67687 0.20331 0.0
C655 C 0.15169 0.70044 0.17769 0.0
C656 C 0.15801 0.734 0.16661 0.0
C657 C 0.13219 0.71 0.19198 0.0
C658 C 0.14325 0.77695 0.16963 0.0
C659 C 0.12399 0.7868 0.18385 0.0
H660 H 0.66315 0.64447 0.47585 0.0
H661 H 0.55279 0.72174 0.48972 0.0
H662 H 0.52231 0.72288 0.4621 0.0
H663 H 0.53463 0.71407 0.4337 0.0
H664 H 0.64669 0.64043 0.41967 0.0
H665 H 0.66793 0.62386 0.44762 0.0
C666 C 0.63173 0.66033 0.47292 0.0
C667 C 0.61081 0.68393 0.48475 0.0
C668 C 0.61469 0.6614 0.45695 0.0
C669 C 0.57011 0.70435 0.48074 0.0
C670 C 0.55259 0.70491 0.46497 0.0
C671 C 0.56264 0.69286 0.4368 0.0
C672 C 0.58872 0.67782 0.42474 0.0
C673 C 0.57567 0.68535 0.4529 0.0
C674 C 0.62535 0.65102 0.42876 0.0
C675 C 0.63801 0.64241 0.44477 0.0
H676 H 0.58122 0.26315 0.72327 0.0
H677 H 0.57942 0.39839 0.70768 0.0
H678 H 0.61568 0.37699 0.68353 0.0
H679 H 0.65436 0.32042 0.66837 0.0
H680 H 0.66197 0.18685 0.68584 0.0
H681 H 0.61702 0.20673 0.70782 0.0
C682 C 0.58793 0.2877 0.71437 0.0
C683 C 0.57743 0.33207 0.71703 0.0
C684 C 0.61042 0.27546 0.70105 0.0
C685 C 0.5871 0.36397 0.70571 0.0
C686 C 0.60798 0.35176 0.69201 0.0
C687 C 0.64571 0.29577 0.67695 0.0
C688 C 0.66126 0.25233 0.67562 0.0
C689 C 0.62087 0.30777 0.68979 0.0
C690 C 0.65043 0.22054 0.68679 0.0
C691 C 0.62467 0.23184 0.69928 0.0
H692 H 0.16277 0.68827 0.00889 0.0
H693 H 0.02421 0.68104 0.01592 0.0
H694 H 0.03944 0.68636 0.04476 0.0
H695 H 0.09094 0.70524 0.06736 0.0
H696 H 0.22941 0.7129 0.06087 0.0
H697 H 0.2159 0.69403 0.03249 0.0
C698 C 0.13613 0.68711 0.01681 0.0
C699 C 0.09244 0.68489 0.01035 0.0
C700 C 0.14516 0.6902 0.03342 0.0
C701 C 0.05809 0.68277 0.02066 0.0
C702 C 0.06675 0.68597 0.03713 0.0
C703 C 0.11819 0.70106 0.0598 0.0
C704 C 0.16097 0.7103 0.06599 0.0
C705 C 0.10996 0.69125 0.04357 0.0
C706 C 0.19626 0.70535 0.05625 0.0
C707 C 0.18842 0.69521 0.04003 0.0
H708 H 0.69323 0.78744 0.27971 0.0
H709 H 0.65524 0.66415 0.25721 0.0
H710 H 0.63127 0.63634 0.28248 0.0
H711 H 0.6142 0.64985 0.31013 0.0
H712 H 0.64743 0.7746 0.33247 0.0
H713 H 0.6808 0.79898 0.30826 0.0
C714 C 0.68053 0.75421 0.2805 0.0
C715 C 0.67573 0.72785 0.26669 0.0
C716 C 0.6657 0.7389 0.29499 0.0
C717 C 0.65887 0.685 0.26772 0.0
C718 C 0.64513 0.66916 0.28213 0.0
C719 C 0.62924 0.68217 0.30974 0.0
C720 C 0.62861 0.7103 0.32304 0.0
C721 C 0.64724 0.69627 0.29571 0.0
C722 C 0.64795 0.75221 0.3224 0.0
C723 C 0.66681 0.76621 0.30855 0.0
H724 H 0.65498 0.152 0.52185 0.0
H725 H 0.51996 0.17483 0.53179 0.0
H726 H 0.54111 0.18187 0.56025 0.0
H727 H 0.59898 0.19677 0.58102 0.0
H728 H 0.73473 0.1814 0.57111 0.0
H729 H 0.71278 0.15467 0.5441 0.0
C730 C 0.63024 0.15715 0.53037 0.0
C731 C 0.5861 0.16343 0.52484 0.0
C732 C 0.64294 0.1627 0.54668 0.0
C733 C 0.55414 0.17036 0.53586 0.0
C734 C 0.56624 0.17444 0.55209 0.0
C735 C 0.6236 0.18571 0.57312 0.0
C736 C 0.66821 0.1907 0.57789 0.0
C737 C 0.61068 0.17281 0.55749 0.0
C738 C 0.70015 0.17713 0.56765 0.0
C739 C 0.68755 0.16256 0.55216 0.0
H740 H 0.19875 0.25438 0.7701 0.0
H741 H 0.18765 0.39055 0.78418 0.0
H742 H 0.15718 0.36809 0.80919 0.0
H743 H 0.12412 0.3101 0.82507 0.0
H744 H 0.12941 0.17475 0.80946 0.0
H745 H 0.17212 0.1962 0.78711 0.0
C746 C 0.19074 0.27903 0.77885 0.0
C747 C 0.19529 0.32398 0.77536 0.0
C748 C 0.17164 0.26594 0.79281 0.0
C749 C 0.18417 0.35573 0.78664 0.0
C750 C 0.16663 0.3429 0.80088 0.0
C751 C 0.13549 0.28535 0.81692 0.0
C752 C 0.12378 0.241 0.81879 0.0
C753 C 0.1587 0.29818 0.80381 0.0
C754 C 0.13804 0.20911 0.80813 0.0
C755 C 0.16239 0.22136 0.79539 0.0
loop_
_geom_bond_atom_site_label_1
_geom_bond_atom_site_label_2
_geom_bond_distance
_geom_bond_site_symmetry_2
_ccdc_geom_bond_type
C0 C1 1.384 . S
C0 H13 0.947 . S
C0 C35 1.382 . S
C1 C0 1.384 . S
C1 C2 1.378 . S
C2 C1 1.378 . S
C2 C3 1.378 . S
C2 H14 0.952 . S
C3 C2 1.378 . S
C3 H15 0.950 . S
C3 C34 1.383 . S
H4 C23 0.947 . S
H5 C24 0.946 . S
H6 C26 0.953 . S
H7 C27 0.945 . S
H8 C29 0.952 . S
H9 C30 0.949 . S
H10 C32 0.950 . S
H11 C33 0.948 . S
H12 C35 0.951 . S
H13 C0 0.947 . S
H14 C2 0.952 . S
H15 C3 0.950 . S
N16 C19 1.382 . S
N16 C21 1.363 . S
N17 C19 1.371 . S
N17 C20 1.372 . S
N18 C20 1.361 . S
N18 C21 1.377 . S
C19 N16 1.382 . S
C19 N17 1.371 . S
C19 C22 1.480 . S
C20 N17 1.372 . S
C20 N18 1.361 . S
C20 C28 1.457 . S
C21 N16 1.363 . S
C21 N18 1.377 . S
C21 C34 1.479 . S
C22 C19 1.480 . S
C22 C23 1.383 . S
C22 C27 1.385 . S
C23 H4 0.947 . S
C23 C22 1.383 . S
C23 C24 1.388 . S
C24 H5 0.946 . S
C24 C23 1.388 . S
C24 C25 1.384 . S
C25 C24 1.384 . S
C25 C26 1.377 . S
C26 H6 0.953 . S
C26 C25 1.377 . S
C26 C27 1.369 . S
C27 H7 0.945 . S
C27 C22 1.385 . S
C27 C26 1.369 . S
C28 C20 1.457 . S
C28 C29 1.372 . S
C28 C33 1.364 . S
C29 H8 0.952 . S
C29 C28 1.372 . S
C29 C30 1.389 . S
C30 H9 0.949 . S
C30 C29 1.389 . S
C30 C31 1.387 . S
C31 C30 1.387 . S
C31 C32 1.372 . S
C32 H10 0.950 . S
C32 C31 1.372 . S
C32 C33 1.379 . S
C33 H11 0.948 . S
C33 C28 1.364 . S
C33 C32 1.379 . S
C34 C3 1.383 . S
C34 C21 1.479 . S
C34 C35 1.398 . S
C35 C0 1.382 . S
C35 H12 0.951 . S
C35 C34 1.398 . S
C36 C37 1.384 . S
C36 H49 0.947 . S
C36 C71 1.382 . S
C37 C36 1.384 . S
C37 C38 1.378 . S
C38 C37 1.378 . S
C38 C39 1.378 . S
C38 H50 0.952 . S
C39 C38 1.378 . S
C39 H51 0.950 . S
C39 C70 1.383 . S
H40 C59 0.947 . S
H41 C60 0.947 . S
H42 C62 0.953 . S
H43 C63 0.945 . S
H44 C65 0.952 . S
H45 C66 0.949 . S
H46 C68 0.950 . S
H47 C69 0.948 . S
H48 C71 0.951 . S
H49 C36 0.947 . S
H50 C38 0.952 . S
H51 C39 0.950 . S
N52 C55 1.382 . S
N52 C57 1.363 . S
N53 C55 1.371 . S
N53 C56 1.372 . S
N54 C56 1.361 . S
N54 C57 1.377 . S
C55 N52 1.382 . S
C55 N53 1.371 . S
C55 C58 1.480 . S
C56 N53 1.372 . S
C56 N54 1.361 . S
C56 C64 1.457 . S
C57 N52 1.363 . S
C57 N54 1.377 . S
C57 C70 1.479 . S
C58 C55 1.480 . S
C58 C59 1.383 . S
C58 C63 1.385 1_455 S
C59 H40 0.947 . S
C59 C58 1.383 . S
C59 C60 1.393 . S
C60 H41 0.947 . S
C60 C59 1.393 . S
C60 C61 1.380 1_455 S
C61 C60 1.380 1_655 S
C61 C62 1.377 . S
C62 H42 0.953 . S
C62 C61 1.377 . S
C62 C63 1.369 . S
C63 H43 0.945 . S
C63 C58 1.385 1_655 S
C63 C62 1.369 . S
C64 C56 1.457 . S
C64 C65 1.372 . S
C64 C69 1.364 . S
C65 H44 0.952 . S
C65 C64 1.372 . S
C65 C66 1.389 . S
C66 H45 0.949 . S
C66 C65 1.389 . S
C66 C67 1.387 . S
C67 C66 1.387 . S
C67 C68 1.372 . S
C68 H46 0.950 . S
C68 C67 1.372 . S
C68 C69 1.379 . S
C69 H47 0.948 . S
C69 C64 1.364 . S
C69 C68 1.379 . S
C70 C39 1.383 . S
C70 C57 1.479 . S
C70 C71 1.398 . S
C71 C36 1.382 . S
C71 H48 0.951 . S
C71 C70 1.398 . S
C72 C73 1.384 . S
C72 H85 0.947 . S
C72 C107 1.382 . S
C73 C72 1.384 . S
C73 C74 1.378 . S
C74 C73 1.378 . S
C74 C75 1.378 . S
C74 H86 0.952 . S
C75 C74 1.378 . S
C75 H87 0.950 . S
C75 C106 1.383 . S
H76 C95 0.947 . S
H77 C96 0.946 . S
H78 C98 0.953 . S
H79 C99 0.945 . S
H80 C101 0.952 . S
H81 C102 0.949 . S
H82 C104 0.950 . S
H83 C105 0.948 . S
H84 C107 0.951 . S
H85 C72 0.947 . S
H86 C74 0.952 . S
H87 C75 0.950 . S
N88 C91 1.382 . S
N88 C93 1.363 . S
N89 C91 1.371 . S
N89 C92 1.372 . S
N90 C92 1.361 . S
N90 C93 1.377 . S
C91 N88 1.382 . S
C91 N89 1.371 . S
C91 C94 1.480 . S
C92 N89 1.372 . S
C92 N90 1.361 . S
C92 C100 1.457 . S
C93 N88 1.363 . S
C93 N90 1.377 . S
C93 C106 1.479 . S
C94 C91 1.480 . S
C94 C95 1.383 . S
C94 C99 1.385 . S
C95 H76 0.947 . S
C95 C94 1.383 . S
C95 C96 1.388 . S
C96 H77 0.946 . S
C96 C95 1.388 . S
C96 C97 1.384 . S
C97 C96 1.384 . S
C97 C98 1.377 . S
C98 H78 0.953 . S
C98 C97 1.377 . S
C98 C99 1.369 . S
C99 H79 0.945 . S
C99 C94 1.385 . S
C99 C98 1.369 . S
C100 C92 1.457 . S
C100 C101 1.372 . S
C100 C105 1.364 . S
C101 H80 0.952 . S
C101 C100 1.372 . S
C101 C102 1.389 . S
C102 H81 0.949 . S
C102 C101 1.389 . S
C102 C103 1.387 . S
C103 C102 1.387 . S
C103 C104 1.372 . S
C104 H82 0.950 . S
C104 C103 1.372 . S
C104 C105 1.379 . S
C105 H83 0.948 . S
C105 C100 1.364 . S
C105 C104 1.379 . S
C106 C75 1.383 . S
C106 C93 1.479 . S
C106 C107 1.398 . S
C107 C72 1.382 . S
C107 H84 0.951 . S
C107 C106 1.398 . S
C108 C109 1.384 . S
C108 H121 0.947 . S
C108 C143 1.382 . S
C109 C108 1.384 . S
C109 C110 1.378 . S
C110 C109 1.378 . S
C110 C111 1.378 . S
C110 H122 0.952 . S
C111 C110 1.378 . S
C111 H123 0.950 . S
C111 C142 1.383 . S
H112 C131 0.947 . S
H113 C132 0.946 . S
H114 C134 0.953 . S
H115 C135 0.945 . S
H116 C137 0.952 . S
H117 C138 0.949 . S
H118 C140 0.950 . S
H119 C141 0.948 . S
H120 C143 0.951 . S
H121 C108 0.947 . S
H122 C110 0.952 . S
H123 C111 0.950 . S
N124 C127 1.382 . S
N124 C129 1.363 . S
N125 C127 1.371 . S
N125 C128 1.372 . S
N126 C128 1.361 . S
N126 C129 1.377 . S
C127 N124 1.382 . S
C127 N125 1.371 . S
C127 C130 1.480 . S
C128 N125 1.372 . S
C128 N126 1.361 . S
C128 C136 1.457 . S
C129 N124 1.363 . S
C129 N126 1.377 . S
C129 C142 1.479 . S
C130 C127 1.480 . S
C130 C131 1.383 . S
C130 C135 1.385 . S
C131 H112 0.947 . S
C131 C130 1.383 . S
C131 C132 1.388 . S
C132 H113 0.946 . S
C132 C131 1.388 . S
C132 C133 1.384 . S
C133 C132 1.384 . S
C133 C134 1.377 . S
C134 H114 0.953 . S
C134 C133 1.377 . S
C134 C135 1.369 . S
C135 H115 0.945 . S
C135 C130 1.385 . S
C135 C134 1.369 . S
C136 C128 1.457 . S
C136 C137 1.372 . S
C136 C141 1.364 . S
C137 H116 0.952 . S
C137 C136 1.372 . S
C137 C138 1.389 . S
C138 H117 0.949 . S
C138 C137 1.389 . S
C138 C139 1.387 . S
C139 C138 1.387 . S
C139 C140 1.372 . S
C140 H118 0.950 . S
C140 C139 1.372 . S
C140 C141 1.379 . S
C141 H119 0.948 . S
C141 C136 1.364 . S
C141 C140 1.379 . S
C142 C111 1.383 . S
C142 C129 1.479 . S
C142 C143 1.398 . S
C143 C108 1.382 . S
C143 H120 0.951 . S
C143 C142 1.398 . S
C144 C145 1.384 . S
C144 H157 0.947 . S
C144 C179 1.382 . S
C145 C144 1.384 . S
C145 C146 1.378 . S
C146 C145 1.378 . S
C146 C147 1.378 . S
C146 H158 0.952 . S
C147 C146 1.378 . S
C147 H159 0.950 . S
C147 C178 1.383 . S
H148 C167 0.947 . S
H149 C168 0.946 . S
H150 C170 0.953 . S
H151 C171 0.945 . S
H152 C173 0.952 . S
H153 C174 0.949 . S
H154 C176 0.950 . S
H155 C177 0.948 . S
H156 C179 0.951 . S
H157 C144 0.947 . S
H158 C146 0.952 . S
H159 C147 0.950 . S
N160 C163 1.382 . S
N160 C165 1.363 . S
N161 C163 1.371 . S
N161 C164 1.372 . S
N162 C164 1.361 . S
N162 C165 1.377 . S
C163 N160 1.382 . S
C163 N161 1.371 . S
C163 C166 1.480 . S
C164 N161 1.372 . S
C164 N162 1.361 . S
C164 C172 1.457 . S
C165 N160 1.363 . S
C165 N162 1.377 . S
C165 C178 1.479 . S
C166 C163 1.480 . S
C166 C167 1.383 . S
C166 C171 1.385 . S
C167 H148 0.947 . S
C167 C166 1.383 . S
C167 C168 1.388 . S
C168 H149 0.946 . S
C168 C167 1.388 . S
C168 C169 1.384 . S
C169 C168 1.384 . S
C169 C170 1.377 . S
C170 H150 0.953 . S
C170 C169 1.377 . S
C170 C171 1.369 . S
C171 H151 0.945 . S
C171 C166 1.385 . S
C171 C170 1.369 . S
C172 C164 1.457 . S
C172 C173 1.372 . S
C172 C177 1.364 . S
C173 H152 0.952 . S
C173 C172 1.372 . S
C173 C174 1.389 . S
C174 H153 0.949 . S
C174 C173 1.389 . S
C174 C175 1.387 . S
C175 C174 1.387 . S
C175 C176 1.372 . S
C176 H154 0.950 . S
C176 C175 1.372 . S
C176 C177 1.379 . S
C177 H155 0.948 . S
C177 C172 1.364 . S
C177 C176 1.379 . S
C178 C147 1.383 . S
C178 C165 1.479 . S
C178 C179 1.398 . S
C179 C144 1.382 . S
C179 H156 0.951 . S
C179 C178 1.398 . S
C180 C181 1.384 . S
C180 H193 0.947 . S
C180 C215 1.382 . S
C181 C180 1.384 . S
C181 C182 1.378 . S
C182 C181 1.378 . S
C182 C183 1.378 . S
C182 H194 0.952 . S
C183 C182 1.378 . S
C183 H195 0.950 . S
C183 C214 1.383 . S
H184 C203 0.947 . S
H185 C204 0.946 . S
H186 C206 0.953 . S
H187 C207 0.945 . S
H188 C209 0.952 . S
H189 C210 0.949 . S
H190 C212 0.950 . S
H191 C213 0.948 . S
H192 C215 0.951 . S
H193 C180 0.947 . S
H194 C182 0.952 . S
H195 C183 0.950 . S
N196 C199 1.382 . S
N196 C201 1.363 . S
N197 C199 1.371 . S
N197 C200 1.372 . S
N198 C200 1.361 . S
N198 C201 1.377 . S
C199 N196 1.382 . S
C199 N197 1.371 . S
C199 C202 1.480 . S
C200 N197 1.372 . S
C200 N198 1.361 . S
C200 C208 1.457 . S
C201 N196 1.363 . S
C201 N198 1.377 . S
C201 C214 1.479 . S
C202 C199 1.480 . S
C202 C203 1.383 . S
C202 C207 1.385 . S
C203 H184 0.947 . S
C203 C202 1.383 . S
C203 C204 1.388 . S
C204 H185 0.946 . S
C204 C203 1.388 . S
C204 C205 1.384 . S
C205 C204 1.384 . S
C205 C206 1.377 . S
C206 H186 0.953 . S
C206 C205 1.377 . S
C206 C207 1.369 . S
C207 H187 0.945 . S
C207 C202 1.385 . S
C207 C206 1.369 . S
C208 C200 1.457 . S
C208 C209 1.372 . S
C208 C213 1.364 . S
C209 H188 0.952 . S
C209 C208 1.372 . S
C209 C210 1.389 . S
C210 H189 0.949 . S
C210 C209 1.389 . S
C210 C211 1.387 . S
C211 C210 1.387 . S
C211 C212 1.372 . S
C212 H190 0.950 . S
C212 C211 1.372 . S
C212 C213 1.379 . S
C213 H191 0.948 . S
C213 C208 1.364 . S
C213 C212 1.379 . S
C214 C183 1.383 . S
C214 C201 1.479 . S
C214 C215 1.398 . S
C215 C180 1.382 . S
C215 H192 0.951 . S
C215 C214 1.398 . S
C216 C217 1.384 . S
C216 H229 0.947 . S
C216 C251 1.382 . S
C217 C216 1.384 . S
C217 C218 1.378 . S
C218 C217 1.378 . S
C218 C219 1.378 . S
C218 H230 0.952 . S
C219 C218 1.378 . S
C219 H231 0.950 . S
C219 C250 1.383 . S
H220 C239 0.947 . S
H221 C240 0.946 . S
H222 C242 0.953 . S
H223 C243 0.945 . S
H224 C245 0.952 . S
H225 C246 0.949 . S
H226 C248 0.950 . S
H227 C249 0.948 . S
H228 C251 0.951 . S
H229 C216 0.947 . S
H230 C218 0.952 . S
H231 C219 0.950 . S
N232 C235 1.382 . S
N232 C237 1.363 . S
N233 C235 1.371 . S
N233 C236 1.372 . S
N234 C236 1.361 . S
N234 C237 1.377 . S
C235 N232 1.382 . S
C235 N233 1.371 . S
C235 C238 1.480 . S
C236 N233 1.372 . S
C236 N234 1.361 . S
C236 C244 1.457 . S
C237 N232 1.363 . S
C237 N234 1.377 . S
C237 C250 1.479 . S
C238 C235 1.480 . S
C238 C239 1.383 . S
C238 C243 1.385 . S
C239 H220 0.947 . S
C239 C238 1.383 . S
C239 C240 1.388 . S
C240 H221 0.946 . S
C240 C239 1.388 . S
C240 C241 1.384 . S
C241 C240 1.384 . S
C241 C242 1.377 . S
C242 H222 0.953 . S
C242 C241 1.377 . S
C242 C243 1.369 . S
C243 H223 0.945 . S
C243 C238 1.385 . S
C243 C242 1.369 . S
C244 C236 1.457 . S
C244 C245 1.372 . S
C244 C249 1.364 . S
C245 H224 0.952 . S
C245 C244 1.372 . S
C245 C246 1.389 . S
C246 H225 0.949 . S
C246 C245 1.389 . S
C246 C247 1.387 . S
C247 C246 1.387 . S
C247 C248 1.372 . S
C248 H226 0.950 . S
C248 C247 1.372 . S
C248 C249 1.379 . S
C249 H227 0.948 . S
C249 C244 1.364 . S
C249 C248 1.379 . S
C250 C219 1.383 . S
C250 C237 1.479 . S
C250 C251 1.398 . S
C251 C216 1.382 . S
C251 H228 0.951 . S
C251 C250 1.398 . S
C252 C253 1.384 . S
C252 H265 0.947 . S
C252 C287 1.382 1_655 S
C253 C252 1.384 . S
C253 C254 1.378 1_655 S
C254 C253 1.378 1_455 S
C254 C255 1.378 . S
C254 H266 0.952 . S
C255 C254 1.378 . S
C255 H267 0.950 . S
C255 C286 1.383 . S
H256 C275 0.947 . S
H257 C276 0.946 . S
H258 C278 0.953 . S
H259 C279 0.945 . S
H260 C281 0.952 . S
H261 C282 0.949 . S
H262 C284 0.950 . S
H263 C285 0.948 . S
H264 C287 0.951 . S
H265 C252 0.947 . S
H266 C254 0.952 . S
H267 C255 0.950 . S
N268 C271 1.382 . S
N268 C273 1.363 . S
N269 C271 1.371 . S
N269 C272 1.372 . S
N270 C272 1.361 . S
N270 C273 1.377 . S
C271 N268 1.382 . S
C271 N269 1.371 . S
C271 C274 1.480 . S
C272 N269 1.372 . S
C272 N270 1.361 . S
C272 C280 1.457 . S
C273 N268 1.363 . S
C273 N270 1.377 . S
C273 C286 1.479 . S
C274 C271 1.480 . S
C274 C275 1.383 . S
C274 C279 1.385 . S
C275 H256 0.947 . S
C275 C274 1.383 . S
C275 C276 1.388 . S
C276 H257 0.946 . S
C276 C275 1.388 . S
C276 C277 1.384 . S
C277 C276 1.384 . S
C277 C278 1.377 . S
C278 H258 0.953 . S
C278 C277 1.377 . S
C278 C279 1.369 . S
C279 H259 0.945 . S
C279 C274 1.385 . S
C279 C278 1.369 . S
C280 C272 1.457 . S
C280 C281 1.372 . S
C280 C285 1.364 . S
C281 H260 0.952 . S
C281 C280 1.372 . S
C281 C282 1.389 . S
C282 H261 0.949 . S
C282 C281 1.389 . S
C282 C283 1.387 . S
C283 C282 1.387 . S
C283 C284 1.372 . S
C284 H262 0.950 . S
C284 C283 1.372 . S
C284 C285 1.379 . S
C285 H263 0.948 . S
C285 C280 1.364 . S
C285 C284 1.379 . S
C286 C255 1.383 . S
C286 C273 1.479 . S
C286 C287 1.398 . S
C287 C252 1.382 1_455 S
C287 H264 0.951 . S
C287 C286 1.398 . S
Zn288 O294 1.920 . S
Zn288 O300 1.898 . S
Zn288 O303 1.905 . S
Zn289 O297 1.905 . S
Zn289 O298 1.898 . S
Zn289 O306 1.920 . S
Zn290 O293 2.080 . S
Zn290 O296 2.114 . S
Zn290 O299 2.120 . S
Zn290 O301 2.120 . S
Zn290 O302 2.114 . S
Zn290 O305 2.080 . S
C291 O296 1.166 . S
C291 O297 1.182 . S
C292 O298 1.167 . S
C292 O299 1.299 . S
O293 Zn290 2.080 . S
O293 C307 1.305 . S
O294 Zn288 1.920 . S
O294 C307 1.234 . S
C295 O300 1.167 . S
C295 O301 1.299 . S
O296 Zn290 2.114 . S
O296 C291 1.166 . S
O297 Zn289 1.905 . S
O297 C291 1.182 . S
O298 Zn289 1.898 . S
O298 C292 1.167 . S
O299 Zn290 2.120 . S
O299 C292 1.299 . S
O300 Zn288 1.898 . S
O300 C295 1.167 . S
O301 Zn290 2.120 . S
O301 C295 1.299 . S
O302 Zn290 2.114 . S
O302 C304 1.166 . S
O303 Zn288 1.905 . S
O303 C304 1.182 . S
C304 O302 1.166 . S
C304 O303 1.182 . S
O305 Zn290 2.080 . S
O305 C308 1.305 . S
O306 Zn289 1.920 . S
O306 C308 1.234 . S
C307 O293 1.305 . S
C307 O294 1.234 . S
C308 O305 1.305 . S
C308 O306 1.234 . S
Zn309 O315 1.920 . S
Zn309 O321 1.898 . S
Zn309 O324 1.905 . S
Zn310 O318 1.905 . S
Zn310 O319 1.898 . S
Zn310 O327 1.920 . S
Zn311 O314 2.080 . S
Zn311 O317 2.114 . S
Zn311 O320 2.120 . S
Zn311 O322 2.120 . S
Zn311 O323 2.114 . S
Zn311 O326 2.080 . S
C312 O317 1.166 . S
C312 O318 1.182 . S
C313 O319 1.167 . S
C313 O320 1.299 . S
O314 Zn311 2.080 . S
O314 C328 1.305 . S
O315 Zn309 1.920 . S
O315 C328 1.234 . S
C316 O321 1.167 . S
C316 O322 1.299 . S
O317 Zn311 2.114 . S
O317 C312 1.166 . S
O318 Zn310 1.905 . S
O318 C312 1.182 . S
O319 Zn310 1.898 . S
O319 C313 1.167 . S
O320 Zn311 2.120 . S
O320 C313 1.299 . S
O321 Zn309 1.898 . S
O321 C316 1.167 . S
O322 Zn311 2.120 . S
O322 C316 1.299 . S
O323 Zn311 2.114 . S
O323 C325 1.166 . S
O324 Zn309 1.905 . S
O324 C325 1.182 . S
C325 O323 1.166 . S
C325 O324 1.182 . S
O326 Zn311 2.080 . S
O326 C329 1.305 . S
O327 Zn310 1.920 . S
O327 C329 1.234 . S
C328 O314 1.305 . S
C328 O315 1.234 . S
C329 O326 1.305 . S
C329 O327 1.234 . S
Zn330 O336 1.920 . S
Zn330 O342 1.898 . S
Zn330 O345 1.905 . S
Zn331 O339 1.905 . S
Zn331 O340 1.898 . S
Zn331 O348 1.920 . S
Zn332 O335 2.080 . S
Zn332 O338 2.114 . S
Zn332 O341 2.120 . S
Zn332 O343 2.120 . S
Zn332 O344 2.114 . S
Zn332 O347 2.080 . S
C333 O338 1.166 . S
C333 O339 1.182 . S
C334 O340 1.167 . S
C334 O341 1.299 . S
O335 Zn332 2.080 . S
O335 C349 1.305 . S
O336 Zn330 1.920 . S
O336 C349 1.234 . S
C337 O342 1.167 . S
C337 O343 1.299 . S
O338 Zn332 2.114 . S
O338 C333 1.166 . S
O339 Zn331 1.905 . S
O339 C333 1.182 . S
O340 Zn331 1.898 . S
O340 C334 1.167 . S
O341 Zn332 2.120 . S
O341 C334 1.299 . S
O342 Zn330 1.898 . S
O342 C337 1.167 . S
O343 Zn332 2.120 . S
O343 C337 1.299 . S
O344 Zn332 2.114 . S
O344 C346 1.166 . S
O345 Zn330 1.905 . S
O345 C346 1.182 . S
C346 O344 1.166 . S
C346 O345 1.182 . S
O347 Zn332 2.080 . S
O347 C350 1.305 . S
O348 Zn331 1.920 . S
O348 C350 1.234 . S
C349 O335 1.305 . S
C349 O336 1.234 . S
C350 O347 1.305 . S
C350 O348 1.234 . S
Zn351 O357 1.920 . S
Zn351 O363 1.898 . S
Zn351 O366 1.905 . S
Zn352 O360 1.905 . S
Zn352 O361 1.898 . S
Zn352 O369 1.920 . S
Zn353 O356 2.080 . S
Zn353 O359 2.114 . S
Zn353 O362 2.120 . S
Zn353 O364 2.120 . S
Zn353 O365 2.114 . S
Zn353 O368 2.080 . S
C354 O359 1.166 . S
C354 O360 1.182 . S
C355 O361 1.167 . S
C355 O362 1.299 . S
O356 Zn353 2.080 . S
O356 C370 1.305 . S
O357 Zn351 1.920 . S
O357 C370 1.234 . S
C358 O363 1.167 . S
C358 O364 1.299 . S
O359 Zn353 2.114 . S
O359 C354 1.166 . S
O360 Zn352 1.905 . S
O360 C354 1.182 . S
O361 Zn352 1.898 . S
O361 C355 1.167 . S
O362 Zn353 2.120 . S
O362 C355 1.299 . S
O363 Zn351 1.898 . S
O363 C358 1.167 . S
O364 Zn353 2.120 . S
O364 C358 1.299 . S
O365 Zn353 2.114 . S
O365 C367 1.166 . S
O366 Zn351 1.905 . S
O366 C367 1.182 . S
C367 O365 1.166 . S
C367 O366 1.182 . S
O368 Zn353 2.080 . S
O368 C371 1.305 . S
O369 Zn352 1.920 . S
O369 C371 1.234 . S
C370 O356 1.305 . S
C370 O357 1.234 . S
C371 O368 1.305 . S
C371 O369 1.234 . S
H372 C378 0.930 . S
H373 C381 0.930 . S
H374 C382 0.930 . S
H375 C383 0.930 . S
H376 C386 0.930 . S
H377 C387 0.930 . S
C378 H372 0.930 . S
C378 C379 1.355 . S
C378 C380 1.415 . S
C379 C378 1.355 . S
C379 C381 1.419 . S
C380 C378 1.415 . S
C380 C385 1.425 . S
C380 C387 1.409 . S
C381 H373 0.930 . S
C381 C379 1.419 . S
C381 C382 1.362 . S
C382 H374 0.930 . S
C382 C381 1.362 . S
C382 C385 1.409 . S
C383 H375 0.930 . S
C383 C384 1.355 . S
C383 C385 1.415 . S
C384 C383 1.355 . S
C384 C386 1.419 . S
C385 C380 1.425 . S
C385 C382 1.409 . S
C385 C383 1.415 . S
C386 H376 0.930 . S
C386 C384 1.419 . S
C386 C387 1.362 . S
C387 H377 0.930 . S
C387 C380 1.409 . S
C387 C386 1.362 . S
H388 C394 0.930 . S
H389 C397 0.930 . S
H390 C398 0.930 . S
H391 C399 0.930 . S
H392 C402 0.930 . S
H393 C403 0.930 . S
C394 H388 0.930 . S
C394 C395 1.355 . S
C394 C396 1.415 . S
C395 C394 1.355 . S
C395 C397 1.419 . S
C396 C394 1.415 . S
C396 C401 1.425 . S
C396 C403 1.409 . S
C397 H389 0.930 . S
C397 C395 1.419 . S
C397 C398 1.362 . S
C398 H390 0.930 . S
C398 C397 1.362 . S
C398 C401 1.409 . S
C399 H391 0.930 . S
C399 C400 1.355 . S
C399 C401 1.415 . S
C400 C399 1.355 . S
C400 C402 1.419 . S
C401 C396 1.425 . S
C401 C398 1.409 . S
C401 C399 1.415 . S
C402 H392 0.930 . S
C402 C400 1.419 . S
C402 C403 1.362 . S
C403 H393 0.930 . S
C403 C396 1.409 . S
C403 C402 1.362 . S
H404 C410 0.930 . S
H405 C413 0.930 . S
H406 C414 0.930 . S
H407 C415 0.930 . S
H408 C418 0.930 . S
H409 C419 0.930 . S
C410 H404 0.930 . S
C410 C411 1.355 . S
C410 C412 1.415 . S
C411 C410 1.355 . S
C411 C413 1.419 . S
C412 C410 1.415 . S
C412 C417 1.425 . S
C412 C419 1.409 . S
C413 H405 0.930 . S
C413 C411 1.419 . S
C413 C414 1.362 . S
C414 H406 0.930 . S
C414 C413 1.362 . S
C414 C417 1.409 . S
C415 H407 0.930 . S
C415 C416 1.355 . S
C415 C417 1.415 . S
C416 C415 1.355 . S
C416 C418 1.419 . S
C417 C412 1.425 . S
C417 C414 1.409 . S
C417 C415 1.415 . S
C418 H408 0.930 . S
C418 C416 1.419 . S
C418 C419 1.362 . S
C419 H409 0.930 . S
C419 C412 1.409 . S
C419 C418 1.362 . S
H420 C426 0.930 . S
H421 C429 0.930 . S
H422 C430 0.930 . S
H423 C431 0.930 . S
H424 C434 0.945 . S
H425 C435 0.930 . S
C426 H420 0.930 . S
C426 C427 1.355 . S
C426 C428 1.415 . S
C427 C426 1.355 . S
C427 C429 1.419 . S
C428 C426 1.415 . S
C428 C433 1.425 . S
C428 C435 1.409 . S
C429 H421 0.930 . S
C429 C427 1.419 . S
C429 C430 1.362 . S
C430 H422 0.930 . S
C430 C429 1.362 . S
C430 C433 1.409 . S
C431 H423 0.930 . S
C431 C432 1.355 . S
C431 C433 1.415 . S
C432 C431 1.355 . S
C432 C434 1.419 . S
C433 C428 1.425 . S
C433 C430 1.409 . S
C433 C431 1.415 . S
C434 H424 0.945 . S
C434 C432 1.419 . S
C434 C435 1.362 . S
C435 H425 0.930 . S
C435 C428 1.409 . S
C435 C434 1.362 . S
H436 C442 0.930 . S
H437 C445 0.930 1_655 S
H438 C446 0.930 1_655 S
H439 C447 0.930 . S
H440 C450 0.930 . S
H441 C451 0.930 . S
C442 H436 0.930 . S
C442 C443 1.355 . S
C442 C444 1.415 . S
C443 C442 1.355 . S
C443 C445 1.419 . S
C444 C442 1.415 . S
C444 C449 1.425 . S
C444 C451 1.409 . S
C445 H437 0.930 1_455 S
C445 C443 1.419 . S
C445 C446 1.362 . S
C446 H438 0.930 1_455 S
C446 C445 1.362 . S
C446 C449 1.409 . S
C447 H439 0.930 . S
C447 C448 1.355 . S
C447 C449 1.415 . S
C448 C447 1.355 . S
C448 C450 1.419 . S
C449 C444 1.425 . S
C449 C446 1.409 . S
C449 C447 1.415 . S
C450 H440 0.930 . S
C450 C448 1.419 . S
C450 C451 1.362 . S
C451 H441 0.930 . S
C451 C444 1.409 . S
C451 C450 1.362 . S
H452 C458 0.930 . S
H453 C461 0.930 . S
H454 C462 0.930 . S
H455 C463 0.930 . S
H456 C466 0.930 . S
H457 C467 0.930 . S
C458 H452 0.930 . S
C458 C459 1.355 . S
C458 C460 1.415 . S
C459 C458 1.355 . S
C459 C461 1.419 . S
C460 C458 1.415 . S
C460 C465 1.425 . S
C460 C467 1.409 . S
C461 H453 0.930 . S
C461 C459 1.419 . S
C461 C462 1.362 . S
C462 H454 0.930 . S
C462 C461 1.362 . S
C462 C465 1.409 . S
C463 H455 0.930 . S
C463 C464 1.355 . S
C463 C465 1.415 . S
C464 C463 1.355 . S
C464 C466 1.419 . S
C465 C460 1.425 . S
C465 C462 1.409 . S
C465 C463 1.415 . S
C466 H456 0.930 . S
C466 C464 1.419 . S
C466 C467 1.362 . S
C467 H457 0.930 . S
C467 C460 1.409 . S
C467 C466 1.362 . S
H468 C474 0.930 . S
H469 C477 0.930 . S
H470 C478 0.930 . S
H471 C479 0.930 . S
H472 C482 0.930 . S
H473 C483 0.930 . S
C474 H468 0.930 . S
C474 C475 1.355 . S
C474 C476 1.415 . S
C475 C474 1.355 . S
C475 C477 1.419 . S
C476 C474 1.415 . S
C476 C481 1.425 . S
C476 C483 1.409 . S
C477 H469 0.930 . S
C477 C475 1.419 . S
C477 C478 1.362 . S
C478 H470 0.930 . S
C478 C477 1.362 . S
C478 C481 1.409 . S
C479 H471 0.930 . S
C479 C480 1.355 . S
C479 C481 1.415 . S
C480 C479 1.355 . S
C480 C482 1.419 . S
C481 C476 1.425 . S
C481 C478 1.409 . S
C481 C479 1.415 . S
C482 H472 0.930 . S
C482 C480 1.419 . S
C482 C483 1.362 . S
C483 H473 0.930 . S
C483 C476 1.409 . S
C483 C482 1.362 . S
H484 C490 0.930 . S
H485 C493 0.930 . S
H486 C494 0.930 . S
H487 C495 0.930 . S
H488 C498 0.930 . S
H489 C499 0.930 . S
C490 H484 0.930 . S
C490 C491 1.355 . S
C490 C492 1.415 . S
C491 C490 1.355 . S
C491 C493 1.419 . S
C492 C490 1.415 . S
C492 C497 1.425 . S
C492 C499 1.409 . S
C493 H485 0.930 . S
C493 C491 1.419 . S
C493 C494 1.362 . S
C494 H486 0.930 . S
C494 C493 1.362 . S
C494 C497 1.409 . S
C495 H487 0.930 . S
C495 C496 1.355 . S
C495 C497 1.415 . S
C496 C495 1.355 . S
C496 C498 1.419 . S
C497 C492 1.425 . S
C497 C494 1.409 . S
C497 C495 1.415 . S
C498 H488 0.930 . S
C498 C496 1.419 . S
C498 C499 1.362 . S
C499 H489 0.930 . S
C499 C492 1.409 . S
C499 C498 1.362 . S
H500 C506 0.930 . S
H501 C509 0.930 . S
H502 C510 0.930 . S
H503 C511 0.930 . S
H504 C514 0.930 . S
H505 C515 0.930 . S
C506 H500 0.930 . S
C506 C507 1.355 . S
C506 C508 1.415 . S
C507 C506 1.355 . S
C507 C509 1.419 . S
C508 C506 1.415 . S
C508 C513 1.425 . S
C508 C515 1.409 . S
C509 H501 0.930 . S
C509 C507 1.419 . S
C509 C510 1.362 . S
C510 H502 0.930 . S
C510 C509 1.362 . S
C510 C513 1.409 . S
C511 H503 0.930 . S
C511 C512 1.355 . S
C511 C513 1.415 . S
C512 C511 1.355 . S
C512 C514 1.419 . S
C513 C508 1.425 . S
C513 C510 1.409 . S
C513 C511 1.415 . S
C514 H504 0.930 . S
C514 C512 1.419 . S
C514 C515 1.362 . S
C515 H505 0.930 . S
C515 C508 1.409 . S
C515 C514 1.362 . S
H516 C522 0.930 . S
H517 C525 0.930 . S
H518 C526 0.930 . S
H519 C527 0.930 . S
H520 C530 0.930 . S
H521 C531 0.930 . S
C522 H516 0.930 . S
C522 C523 1.355 . S
C522 C524 1.415 . S
C523 C522 1.355 . S
C523 C525 1.419 . S
C524 C522 1.415 . S
C524 C529 1.425 . S
C524 C531 1.409 . S
C525 H517 0.930 . S
C525 C523 1.419 . S
C525 C526 1.362 . S
C526 H518 0.930 . S
C526 C525 1.362 . S
C526 C529 1.409 . S
C527 H519 0.930 . S
C527 C528 1.355 . S
C527 C529 1.415 . S
C528 C527 1.355 . S
C528 C530 1.419 . S
C529 C524 1.425 . S
C529 C526 1.409 . S
C529 C527 1.415 . S
C530 H520 0.930 . S
C530 C528 1.419 . S
C530 C531 1.362 . S
C531 H521 0.930 . S
C531 C524 1.409 . S
C531 C530 1.362 . S
H532 C538 0.930 . S
H533 C541 0.930 . S
H534 C542 0.930 . S
H535 C543 0.930 . S
H536 C546 0.930 . S
H537 C547 0.930 . S
C538 H532 0.930 . S
C538 C539 1.355 . S
C538 C540 1.415 . S
C539 C538 1.355 . S
C539 C541 1.419 . S
C540 C538 1.415 . S
C540 C545 1.425 . S
C540 C547 1.409 . S
C541 H533 0.930 . S
C541 C539 1.419 . S
C541 C542 1.362 . S
C542 H534 0.930 . S
C542 C541 1.362 . S
C542 C545 1.409 . S
C543 H535 0.930 . S
C543 C544 1.355 . S
C543 C545 1.415 . S
C544 C543 1.355 . S
C544 C546 1.419 . S
C545 C540 1.425 . S
C545 C542 1.409 . S
C545 C543 1.415 . S
C546 H536 0.930 . S
C546 C544 1.419 . S
C546 C547 1.362 . S
C547 H537 0.930 . S
C547 C540 1.409 . S
C547 C546 1.362 . S
H548 C554 0.930 . S
H549 C557 0.930 . S
H550 C558 0.930 . S
H551 C559 0.930 . S
H552 C562 0.930 . S
H553 C563 0.930 . S
C554 H548 0.930 . S
C554 C555 1.355 . S
C554 C556 1.415 . S
C555 C554 1.355 . S
C555 C557 1.419 . S
C556 C554 1.415 . S
C556 C561 1.425 . S
C556 C563 1.409 . S
C557 H549 0.930 . S
C557 C555 1.419 . S
C557 C558 1.362 . S
C558 H550 0.930 . S
C558 C557 1.362 . S
C558 C561 1.409 . S
C559 H551 0.930 . S
C559 C560 1.355 . S
C559 C561 1.415 . S
C560 C559 1.355 . S
C560 C562 1.419 . S
C561 C556 1.425 . S
C561 C558 1.409 . S
C561 C559 1.415 . S
C562 H552 0.930 . S
C562 C560 1.419 . S
C562 C563 1.362 . S
C563 H553 0.930 . S
C563 C556 1.409 . S
C563 C562 1.362 . S
H564 C570 0.930 . S
H565 C573 0.930 . S
H566 C574 0.930 . S
H567 C575 0.930 . S
H568 C578 0.930 . S
H569 C579 0.930 . S
C570 H564 0.930 . S
C570 C571 1.355 . S
C570 C572 1.415 1_565 S
C571 C570 1.355 . S
C571 C573 1.419 . S
C572 C570 1.415 1_545 S
C572 C577 1.425 . S
C572 C579 1.409 . S
C573 H565 0.930 . S
C573 C571 1.419 . S
C573 C574 1.362 1_565 S
C574 H566 0.930 . S
C574 C573 1.362 1_545 S
C574 C577 1.409 . S
C575 H567 0.930 . S
C575 C576 1.355 . S
C575 C577 1.415 . S
C576 C575 1.355 . S
C576 C578 1.419 . S
C577 C572 1.425 . S
C577 C574 1.409 . S
C577 C575 1.415 . S
C578 H568 0.930 . S
C578 C576 1.419 . S
C578 C579 1.362 . S
C579 H569 0.930 . S
C579 C572 1.409 . S
C579 C578 1.362 . S
H580 C586 0.930 . S
H581 C589 0.930 . S
H582 C590 0.930 . S
H583 C591 0.930 . S
H584 C594 0.930 . S
H585 C595 0.930 . S
C586 H580 0.930 . S
C586 C587 1.355 . S
C586 C588 1.415 1_545 S
C587 C586 1.355 . S
C587 C589 1.419 . S
C588 C586 1.415 1_565 S
C588 C593 1.425 . S
C588 C595 1.409 . S
C589 H581 0.930 . S
C589 C587 1.419 . S
C589 C590 1.361 1_545 S
C590 H582 0.930 . S
C590 C589 1.361 1_565 S
C590 C593 1.410 . S
C591 H583 0.930 . S
C591 C592 1.355 . S
C591 C593 1.415 . S
C592 C591 1.355 . S
C592 C594 1.419 . S
C593 C588 1.425 . S
C593 C590 1.410 . S
C593 C591 1.415 . S
C594 H584 0.930 . S
C594 C592 1.419 . S
C594 C595 1.362 . S
C595 H585 0.930 . S
C595 C588 1.409 . S
C595 C594 1.362 . S
H596 C602 0.930 . S
H597 C605 0.930 . S
H598 C606 0.930 . S
H599 C607 0.930 . S
H600 C610 0.930 . S
H601 C611 0.930 . S
C602 H596 0.930 . S
C602 C603 1.355 1_565 S
C602 C604 1.415 . S
C603 C602 1.355 1_545 S
C603 C605 1.419 . S
C604 C602 1.415 . S
C604 C609 1.425 . S
C604 C611 1.409 . S
C605 H597 0.930 . S
C605 C603 1.419 . S
C605 C606 1.362 1_545 S
C606 H598 0.930 . S
C606 C605 1.362 1_565 S
C606 C609 1.409 . S
C607 H599 0.930 . S
C607 C608 1.355 . S
C607 C609 1.415 . S
C608 C607 1.355 . S
C608 C610 1.419 . S
C609 C604 1.425 . S
C609 C606 1.409 . S
C609 C607 1.415 . S
C610 H600 0.930 . S
C610 C608 1.419 . S
C610 C611 1.362 . S
C611 H601 0.930 . S
C611 C604 1.409 . S
C611 C610 1.362 . S
H612 C618 0.930 . S
H613 C621 0.930 . S
H614 C622 0.930 . S
H615 C623 0.930 . S
H616 C626 0.930 . S
H617 C627 0.930 . S
C618 H612 0.930 . S
C618 C619 1.355 . S
C618 C620 1.415 1_565 S
C619 C618 1.355 . S
C619 C621 1.419 . S
C620 C618 1.415 1_545 S
C620 C625 1.425 . S
C620 C627 1.409 . S
C621 H613 0.930 . S
C621 C619 1.419 . S
C621 C622 1.362 . S
C622 H614 0.930 . S
C622 C621 1.362 . S
C622 C625 1.409 1_565 S
C623 H615 0.930 . S
C623 C624 1.355 . S
C623 C625 1.415 . S
C624 C623 1.355 . S
C624 C626 1.419 . S
C625 C620 1.425 . S
C625 C622 1.409 1_545 S
C625 C623 1.415 . S
C626 H616 0.930 . S
C626 C624 1.419 . S
C626 C627 1.362 . S
C627 H617 0.930 . S
C627 C620 1.409 . S
C627 C626 1.362 . S
H628 C634 0.930 . S
H629 C637 0.930 . S
H630 C638 0.930 . S
H631 C639 0.930 . S
H632 C642 0.930 . S
H633 C643 0.930 . S
C634 H628 0.930 . S
C634 C635 1.355 . S
C634 C636 1.415 . S
C635 C634 1.355 . S
C635 C637 1.419 . S
C636 C634 1.415 . S
C636 C641 1.425 . S
C636 C643 1.409 . S
C637 H629 0.930 . S
C637 C635 1.419 . S
C637 C638 1.362 . S
C638 H630 0.930 . S
C638 C637 1.362 . S
C638 C641 1.409 . S
C639 H631 0.930 . S
C639 C640 1.355 . S
C639 C641 1.415 . S
C640 C639 1.355 . S
C640 C642 1.419 . S
C641 C636 1.425 . S
C641 C638 1.409 . S
C641 C639 1.415 . S
C642 H632 0.930 . S
C642 C640 1.419 . S
C642 C643 1.362 . S
C643 H633 0.930 . S
C643 C636 1.409 . S
C643 C642 1.362 . S
H644 C650 0.930 . S
H645 C653 0.930 . S
H646 C654 0.930 . S
H647 C655 0.930 . S
H648 C658 0.930 . S
H649 C659 0.930 . S
C650 H644 0.930 . S
C650 C651 1.355 . S
C650 C652 1.415 . S
C651 C650 1.355 . S
C651 C653 1.419 . S
C652 C650 1.415 . S
C652 C657 1.425 . S
C652 C659 1.409 . S
C653 H645 0.930 . S
C653 C651 1.419 . S
C653 C654 1.362 . S
C654 H646 0.930 . S
C654 C653 1.362 . S
C654 C657 1.409 . S
C655 H647 0.930 . S
C655 C656 1.355 . S
C655 C657 1.415 . S
C656 C655 1.355 . S
C656 C658 1.419 . S
C657 C652 1.425 . S
C657 C654 1.409 . S
C657 C655 1.415 . S
C658 H648 0.930 . S
C658 C656 1.419 . S
C658 C659 1.362 . S
C659 H649 0.930 . S
C659 C652 1.409 . S
C659 C658 1.362 . S
H660 C666 0.930 . S
H661 C669 0.930 . S
H662 C670 0.930 . S
H663 C671 0.930 . S
H664 C674 0.930 . S
H665 C675 0.930 . S
C666 H660 0.930 . S
C666 C667 1.355 . S
C666 C668 1.415 . S
C667 C666 1.355 . S
C667 C669 1.419 . S
C668 C666 1.415 . S
C668 C673 1.425 . S
C668 C675 1.409 . S
C669 H661 0.930 . S
C669 C667 1.419 . S
C669 C670 1.362 . S
C670 H662 0.930 . S
C670 C669 1.362 . S
C670 C673 1.409 . S
C671 H663 0.930 . S
C671 C672 1.355 . S
C671 C673 1.415 . S
C672 C671 1.355 . S
C672 C674 1.419 . S
C673 C668 1.425 . S
C673 C670 1.409 . S
C673 C671 1.415 . S
C674 H664 0.930 . S
C674 C672 1.419 . S
C674 C675 1.362 . S
C675 H665 0.930 . S
C675 C668 1.409 . S
C675 C674 1.362 . S
H676 C682 0.930 . S
H677 C685 0.930 . S
H678 C686 0.930 . S
H679 C687 0.930 . S
H680 C690 0.930 . S
H681 C691 0.930 . S
C682 H676 0.930 . S
C682 C683 1.355 . S
C682 C684 1.415 . S
C683 C682 1.355 . S
C683 C685 1.419 . S
C684 C682 1.415 . S
C684 C689 1.425 . S
C684 C691 1.409 . S
C685 H677 0.930 . S
C685 C683 1.419 . S
C685 C686 1.362 . S
C686 H678 0.930 . S
C686 C685 1.362 . S
C686 C689 1.409 . S
C687 H679 0.930 . S
C687 C688 1.355 . S
C687 C689 1.415 . S
C688 C687 1.355 . S
C688 C690 1.419 . S
C689 C684 1.425 . S
C689 C686 1.409 . S
C689 C687 1.415 . S
C690 H680 0.930 . S
C690 C688 1.419 . S
C690 C691 1.362 . S
C691 H681 0.930 . S
C691 C684 1.409 . S
C691 C690 1.362 . S
H692 C698 0.930 . S
H693 C701 0.930 1_655 S
H694 C702 0.930 1_655 S
H695 C703 0.930 . S
H696 C706 0.930 . S
H697 C707 0.930 . S
C698 H692 0.930 . S
C698 C699 1.355 . S
C698 C700 1.415 . S
C699 C698 1.355 . S
C699 C701 1.419 . S
C700 C698 1.415 . S
C700 C705 1.425 . S
C700 C707 1.409 . S
C701 H693 0.930 1_455 S
C701 C699 1.419 . S
C701 C702 1.362 . S
C702 H694 0.930 1_455 S
C702 C701 1.362 . S
C702 C705 1.409 . S
C703 H695 0.930 . S
C703 C704 1.355 . S
C703 C705 1.415 . S
C704 C703 1.355 . S
C704 C706 1.419 . S
C705 C700 1.425 . S
C705 C702 1.409 . S
C705 C703 1.415 . S
C706 H696 0.930 . S
C706 C704 1.419 . S
C706 C707 1.362 . S
C707 H697 0.930 . S
C707 C700 1.409 . S
C707 C706 1.362 . S
H708 C714 0.930 . S
H709 C717 0.930 . S
H710 C718 0.930 . S
H711 C719 0.930 . S
H712 C722 0.930 . S
H713 C723 0.930 . S
C714 H708 0.930 . S
C714 C715 1.355 . S
C714 C716 1.415 . S
C715 C714 1.355 . S
C715 C717 1.419 . S
C716 C714 1.415 . S
C716 C721 1.425 . S
C716 C723 1.409 . S
C717 H709 0.930 . S
C717 C715 1.419 . S
C717 C718 1.362 . S
C718 H710 0.930 . S
C718 C717 1.362 . S
C718 C721 1.409 . S
C719 H711 0.930 . S
C719 C720 1.355 . S
C719 C721 1.415 . S
C720 C719 1.355 . S
C720 C722 1.419 . S
C721 C716 1.425 . S
C721 C718 1.409 . S
C721 C719 1.415 . S
C722 H712 0.930 . S
C722 C720 1.419 . S
C722 C723 1.362 . S
C723 H713 0.930 . S
C723 C716 1.409 . S
C723 C722 1.362 . S
H724 C730 0.930 . S
H725 C733 0.930 . S
H726 C734 0.930 . S
H727 C735 0.930 . S
H728 C738 0.930 . S
H729 C739 0.930 . S
C730 H724 0.930 . S
C730 C731 1.355 . S
C730 C732 1.415 . S
C731 C730 1.355 . S
C731 C733 1.419 . S
C732 C730 1.415 . S
C732 C737 1.425 . S
C732 C739 1.409 . S
C733 H725 0.930 . S
C733 C731 1.419 . S
C733 C734 1.362 . S
C734 H726 0.930 . S
C734 C733 1.362 . S
C734 C737 1.409 . S
C735 H727 0.930 . S
C735 C736 1.355 . S
C735 C737 1.415 . S
C736 C735 1.355 . S
C736 C738 1.419 . S
C737 C732 1.425 . S
C737 C734 1.409 . S
C737 C735 1.415 . S
C738 H728 0.930 . S
C738 C736 1.419 . S
C738 C739 1.362 . S
C739 H729 0.930 . S
C739 C732 1.409 . S
C739 C738 1.362 . S
H740 C746 0.930 . S
H741 C749 0.930 . S
H742 C750 0.930 . S
H743 C751 0.930 . S
H744 C754 0.930 . S
H745 C755 0.930 . S
C746 H740 0.930 . S
C746 C747 1.355 . S
C746 C748 1.415 . S
C747 C746 1.355 . S
C747 C749 1.419 . S
C748 C746 1.415 . S
C748 C753 1.425 . S
C748 C755 1.409 . S
C749 H741 0.930 . S
C749 C747 1.419 . S
C749 C750 1.362 . S
C750 H742 0.930 . S
C750 C749 1.362 . S
C750 C753 1.409 . S
C751 H743 0.930 . S
C751 C752 1.355 . S
C751 C753 1.415 . S
C752 C751 1.355 . S
C752 C754 1.419 . S
C753 C748 1.425 . S
C753 C750 1.409 . S
C753 C751 1.415 . S
C754 H744 0.930 . S
C754 C752 1.419 . S
C754 C755 1.362 . S
C755 H745 0.930 . S
C755 C748 1.409 . S
C755 C754 1.362 . S
C384 C295 1.450 . S
C379 C1 1.652 . S
C400 C313 1.260 . S
C395 C61 1.366 . S
C411 C97 1.419 . S
C416 C337 1.405 . S
C432 C367 1.376 1_655 S
C427 C109 1.485 . S
C448 C355 1.328 . S
C443 C145 1.455 . S
C459 C205 1.400 . S
C464 C308 1.322 1_655 S
C475 C241 1.643 . S
C480 C328 1.553 . S
C491 C253 1.471 . S
C496 C333 1.336 . S
C507 C277 1.396 . S
C512 C349 1.322 . S
C523 C181 1.492 . S
C528 C304 1.354 . S
C544 C371 1.273 . S
C539 C133 1.372 . S
C560 C316 1.397 . S
C555 C37 1.464 . S
C571 C73 1.647 . S
C576 C334 1.446 . S
C587 C25 1.449 . S
C592 C292 1.387 . S
C608 C312 1.404 . S
C603 C217 1.395 . S
C624 C358 1.460 . S
C619 C169 1.591 . S
C640 C354 1.362 . S
C635 C31 1.531 1_556 S
C656 C307 1.330 . S
C651 C67 1.445 . S
C667 C103 1.504 . S
C672 C329 1.361 . S
C683 C139 1.479 . S
C688 C350 1.393 . S
C704 C291 1.349 . S
C699 C175 1.518 1_554 S
C715 C211 1.461 . S
C720 C325 1.439 . S
C736 C346 1.403 . S
C731 C247 1.526 . S
C752 C370 1.378 . S
C747 C283 1.483 . S
