# Generated by pormake.
# Topology anh, (6,3)-cn, num edge types: 1
# Building blocks:
#     Node 0, Type 0, BuildingBlock: HISSIN_clean_sbu_0, # of connection points: 6
#     Node 1, Type 0, BuildingBlock: HISSIN_clean_sbu_0, # of connection points: 6
#     Node 2, Type 0, BuildingBlock: HISSIN_clean_sbu_0, # of connection points: 6
#     Node 3, Type 1, BuildingBlock: QEWDON_clean_linker_0, # of connection points: 3
#     Node 4, Type 1, BuildingBlock: QEWDON_clean_linker_0, # of connection points: 3
#     Node 5, Type 1, BuildingBlock: QEWDON_clean_linker_0, # of connection points: 3
#     Node 6, Type 1, BuildingBlock: QEWDON_clean_linker_0, # of connection points: 3
#     Node 7, Type 1, BuildingBlock: QEWDON_clean_linker_0, # of connection points: 3
#     Node 8, Type 1, BuildingBlock: QEWDON_clean_linker_0, # of connection points: 3
#     Edge 9, Type (0, 1), BuildingBlock: XIVTED_clean_linker_0, # of connection points: 2
#     Edge 10, Type (0, 1), BuildingBlock: XIVTED_clean_linker_0, # of connection points: 2
#     Edge 11, Type (0, 1), BuildingBlock: XIVTED_clean_linker_0, # of connection points: 2
#     Edge 12, Type (0, 1), BuildingBlock: XIVTED_clean_linker_0, # of connection points: 2
#     Edge 13, Type (0, 1), BuildingBlock: XIVTED_clean_linker_0, # of connection points: 2
#     Edge 14, Type (0, 1), BuildingBlock: XIVTED_clean_linker_0, # of connection points: 2
#     Edge 15, Type (0, 1), BuildingBlock: XIVTED_clean_linker_0, # of connection points: 2
#     Edge 16, Type (0, 1), BuildingBlock: XIVTED_clean_linker_0, # of connection points: 2
#     Edge 17, Type (0, 1), BuildingBlock: XIVTED_clean_linker_0, # of connection points: 2
#     Edge 18, Type (0, 1), BuildingBlock: XIVTED_clean_linker_0, # of connection points: 2
#     Edge 19, Type (0, 1), BuildingBlock: XIVTED_clean_linker_0, # of connection points: 2
#     Edge 20, Type (0, 1), BuildingBlock: XIVTED_clean_linker_0, # of connection points: 2
#     Edge 21, Type (0, 1), BuildingBlock: XIVTED_clean_linker_0, # of connection points: 2
#     Edge 22, Type (0, 1), BuildingBlock: XIVTED_clean_linker_0, # of connection points: 2
#     Edge 23, Type (0, 1), BuildingBlock: XIVTED_clean_linker_0, # of connection points: 2
#     Edge 24, Type (0, 1), BuildingBlock: XIVTED_clean_linker_0, # of connection points: 2
#     Edge 25, Type (0, 1), BuildingBlock: XIVTED_clean_linker_0, # of connection points: 2
#     Edge 26, Type (0, 1), BuildingBlock: XIVTED_clean_linker_0, # of connection points: 2
# Relax obj value: 0.215
# Max RMSD: 0.136
# Mean RMSD: 0.120
data_MOF--net-anh--node1-HISSIN_clean_sbu_0--node2-QEWDON_clean_linker_0--edge1-XIVTED_clean_linker_0
_symmetry_space_group_name_H-M    P1
_symmetry_Int_Tables_number       1
_symmetry_cell_setting            triclinic
loop_
_symmetry_equiv_pos_as_xyz
'x, y, z'
_cell_length_a     31.755419
_cell_length_b     31.891267
_cell_length_c     50.37322
_cell_angle_alpha  95.452866
_cell_angle_beta   92.199522
_cell_angle_gamma 119.88903
loop_
_atom_site_label
_atom_site_type_symbol
_atom_site_fract_x
_atom_site_fract_y
_atom_site_fract_z
_atom_type_partial_charge
Eu0 Eu 0.12758 0.53809 0.14128 0.0
Eu1 Eu 0.18493 0.65626 0.15562 0.0
C2 C 0.14612 0.58871 0.20166 0.0
C3 C 1.02887 0.42084 0.10785 0.0
C4 C 0.98742 0.38053 0.11515 0.0
C5 C 0.97748 0.43109 0.07511 0.0
C6 C 0.94108 0.3671 0.10344 0.0
C7 C 1.02371 0.44443 0.08678 0.0
C8 C 0.93559 0.39408 0.08438 0.0
C9 C 1.07451 0.44495 0.12583 0.0
O10 O 0.24512 0.63743 0.15996 0.0
O11 O 0.2068 0.55805 0.13956 0.0
C12 C 0.24679 0.59877 0.14955 0.0
O13 O 0.12896 0.56942 0.10272 0.0
O14 O 0.23661 0.7221 0.18224 0.0
O15 O 0.19963 0.7273 0.14655 0.0
O16 O 0.20017 0.64105 0.11413 0.0
C17 C 0.16721 0.60769 0.09592 0.0
O18 O 1.0664 0.55572 0.14381 0.0
O19 O 1.108 0.63823 0.14195 0.0
O20 O 0.14693 0.62527 0.19142 0.0
O21 O 1.11417 0.47316 0.1151 0.0
O22 O 1.07194 0.46555 0.14891 0.0
O23 O 0.14896 0.5546 0.18632 0.0
C24 C 0.28298 0.78647 0.15746 0.0
C25 C 0.29087 0.78976 0.13022 0.0
C26 C 0.36741 0.84925 0.16981 0.0
C27 C 0.33653 0.8231 0.12289 0.0
C28 C 0.32169 0.81633 0.17714 0.0
C29 C 0.37516 0.85317 0.14263 0.0
C30 C 0.23547 0.75064 0.16559 0.0
C31 C 1.06671 0.59664 0.14128 0.0
H32 H 0.99052 0.36217 0.13151 0.0
H33 H 0.9744 0.4522 0.06032 0.0
H34 H 0.90952 0.33868 0.11124 0.0
H35 H 1.05505 0.47584 0.08077 0.0
H36 H 0.26184 0.76676 0.11453 0.0
H37 H 0.39632 0.87279 0.18547 0.0
H38 H 0.34158 0.8256 0.10183 0.0
H39 H 0.31651 0.81428 0.19822 0.0
Eu40 Eu 0.67471 0.08235 0.47319 0.0
Eu41 Eu 0.62211 0.1446 0.48614 0.0
C42 C 0.65455 0.10484 0.53267 0.0
C43 C 0.68592 0.97647 0.4467 0.0
C44 C 0.63773 0.95583 0.43509 0.0
C45 C 0.68185 0.89892 0.43577 0.0
C46 C 0.61123 0.90661 0.42459 0.0
C47 C 0.70828 0.94819 0.44643 0.0
C48 C 0.63261 0.87736 0.42548 0.0
C49 C 0.71052 1.02593 0.46118 0.0
O50 O 0.70377 0.20051 0.49387 0.0
O51 O 0.73566 0.15962 0.47049 0.0
C52 C 0.74021 0.2006 0.48211 0.0
O53 O 0.63969 0.08382 0.43349 0.0
O54 O 0.61296 0.19412 0.515 0.0
O55 O 0.57607 0.17419 0.47472 0.0
O56 O 0.64675 0.1576 0.44543 0.0
C57 C 0.64138 0.12342 0.42692 0.0
O58 O 0.59549 1.02477 0.47622 0.0
O59 O 0.55709 1.06884 0.47139 0.0
O60 O 0.61708 0.1052 0.52131 0.0
O61 O 0.7151 1.05989 0.44706 0.0
O62 O 0.69483 1.02978 0.48432 0.0
O63 O 0.68927 0.10769 0.51819 0.0
C64 C 0.62397 0.25793 0.49169 0.0
C65 C 0.64623 0.269 0.46766 0.0
C66 C 0.67978 0.34121 0.51177 0.0
C67 C 0.68544 0.31543 0.46589 0.0
C68 C 0.64037 0.29485 0.51349 0.0
C69 C 0.70345 0.35155 0.48818 0.0
C70 C 0.59368 0.20664 0.49615 0.0
C71 C 0.55521 1.02665 0.47219 0.0
H72 H 0.61997 0.97733 0.43514 0.0
H73 H 0.69905 0.87707 0.43708 0.0
H74 H 0.57348 0.891 0.4167 0.0
H75 H 0.74537 0.96363 0.45544 0.0
H76 H 0.63516 0.24115 0.45061 0.0
H77 H 0.69207 0.3689 0.52904 0.0
H78 H 0.70271 0.32257 0.44742 0.0
H79 H 0.62446 0.28707 0.53233 0.0
Eu80 Eu 0.61056 0.57843 0.8092 0.0
Eu81 Eu 0.73005 0.63751 0.81434 0.0
C82 C 0.67279 0.61161 0.8674 0.0
C83 C 0.49027 0.55535 0.78419 0.0
C84 C 0.44544 0.54875 0.79143 0.0
C85 C 0.49528 0.61379 0.75497 0.0
C86 C 0.42628 0.5756 0.78103 0.0
C87 C 0.51411 0.58678 0.76518 0.0
C88 C 0.45212 0.60977 0.76353 0.0
C89 C 0.51648 0.53674 0.79937 0.0
O90 O 0.71058 0.55906 0.81658 0.0
O91 O 0.62923 0.51821 0.8011 0.0
C92 C 0.66984 0.51822 0.80776 0.0
O93 O 0.6356 0.61013 0.77107 0.0
O94 O 0.80184 0.6575 0.83287 0.0
O95 O 0.79578 0.68571 0.79636 0.0
O96 O 0.70271 0.60267 0.77177 0.0
C97 C 0.66937 0.60717 0.75854 0.0
O98 O 0.62995 0.6578 0.81525 0.0
O99 O 0.71233 0.69806 0.81083 0.0
O100 O 0.71192 0.64277 0.85691 0.0
O101 O 0.54292 0.52362 0.78553 0.0
O102 O 0.54004 0.56359 0.82203 0.0
O103 O 0.63212 0.57953 0.85264 0.0
C104 C 0.8511 0.65799 0.79953 0.0
C105 C 0.82587 0.60956 0.78688 0.0
C106 C 0.92766 0.66292 0.7908 0.0
C107 C 0.85148 0.58731 0.77715 0.0
C108 C 0.90197 0.68502 0.80077 0.0
C109 C 0.90268 0.61338 0.7797 0.0
C110 C 0.82391 0.67863 0.81259 0.0
C111 C 0.67101 0.69805 0.81277 0.0
H112 H 0.42682 0.52515 0.80629 0.0
H113 H 0.5158 0.63973 0.74148 0.0
H114 H 0.39317 0.57229 0.78822 0.0
H115 H 0.54888 0.59275 0.75938 0.0
H116 H 0.7864 0.58836 0.78551 0.0
H117 H 0.96718 0.68369 0.79347 0.0
H118 H 0.8314 0.54917 0.76874 0.0
H119 H 0.92186 0.72246 0.81038 0.0
H120 H 0.65657 0.27809 0.24765 0.0
C121 C 0.64571 0.24754 0.23221 0.0
C122 C 0.63993 0.20335 0.23924 0.0
C123 C 0.63835 0.25254 0.20521 0.0
H124 H 0.61952 0.12949 0.22438 0.0
C125 C 0.62673 0.1644 0.21897 0.0
C126 C 0.61908 0.16867 0.19202 0.0
C127 C 0.62483 0.2127 0.18537 0.0
C128 C 0.64474 0.2989 0.19713 0.0
H129 H 0.61785 0.21559 0.16459 0.0
C130 C 0.66584 0.31443 0.17339 0.0
C131 C 0.66972 0.35607 0.16393 0.0
C132 C 0.62878 0.32693 0.21208 0.0
H133 H 0.61189 0.31577 0.23036 0.0
C134 C 0.63362 0.36928 0.20313 0.0
H135 H 0.68043 0.29445 0.16237 0.0
C136 C 0.65407 0.38394 0.17917 0.0
H137 H 0.65749 0.41672 0.17252 0.0
H138 H 0.62122 0.39065 0.21474 0.0
H139 H 0.61031 0.59995 0.54881 0.0
C140 C 0.64512 0.60552 0.54312 0.0
C141 C 0.68571 0.62486 0.56243 0.0
C142 C 0.64832 0.59023 0.5167 0.0
H143 H 0.76164 0.64537 0.56891 0.0
C144 C 0.73049 0.63188 0.55422 0.0
C145 C 0.7341 0.61663 0.52772 0.0
C146 C 0.69261 0.59621 0.50907 0.0
C147 C 0.60451 0.56374 0.49735 0.0
H148 H 0.69342 0.58159 0.48889 0.0
C149 C 0.58729 0.58962 0.48412 0.0
C150 C 0.54971 0.56559 0.4631 0.0
C151 C 0.58282 0.51314 0.49013 0.0
H152 H 0.59608 0.49265 0.50004 0.0
C153 C 0.54454 0.48892 0.46962 0.0
H154 H 0.60494 0.62891 0.48919 0.0
C155 C 0.5284 0.51515 0.45583 0.0
H156 H 0.49984 0.49635 0.43939 0.0
H157 H 0.52818 0.44998 0.46399 0.0
H158 H 0.26914 0.72977 0.90994 0.0
C159 C 0.23992 0.70236 0.89549 0.0
C160 C 0.20518 0.65749 0.90322 0.0
C161 C 0.23754 0.71183 0.86904 0.0
H162 H 0.14193 0.58712 0.88971 0.0
C163 C 0.16885 0.62157 0.88385 0.0
C164 C 0.16522 0.63082 0.85738 0.0
C165 C 0.19986 0.67624 0.85033 0.0
C166 C 0.27471 0.75826 0.86033 0.0
H167 H 0.19663 0.68517 0.83042 0.0
C168 C 0.29503 0.75667 0.83634 0.0
C169 C 0.33083 0.79942 0.82735 0.0
C170 C 0.2904 0.80369 0.8755 0.0
H171 H 0.27507 0.806 0.89405 0.0
C172 C 0.32588 0.84663 0.8666 0.0
H173 H 0.28448 0.72148 0.82522 0.0
C174 C 0.34641 0.84459 0.84273 0.0
H175 H 0.37463 0.87801 0.83644 0.0
H176 H 0.3379 0.88154 0.87839 0.0
H177 H 0.12595 0.57111 0.41261 0.0
C178 C 0.15569 0.60701 0.42063 0.0
C179 C 0.18185 0.63985 0.40262 0.0
C180 C 0.16784 0.62015 0.4486 0.0
H181 H 0.24217 0.71077 0.39842 0.0
C182 C 0.22145 0.68621 0.41249 0.0
C183 C 0.23602 0.70074 0.44002 0.0
C184 C 0.20872 0.66763 0.45798 0.0
C185 C 0.13927 0.58389 0.46775 0.0
H186 H 0.21909 0.67969 0.47921 0.0
C187 C 1.08936 0.54539 0.46154 0.0
C188 C 1.06436 0.51265 0.48035 0.0
C189 C 0.16289 0.58709 0.49276 0.0
H190 H 0.20105 0.61365 0.49822 0.0
C191 C 0.1383 0.55535 0.51118 0.0
H192 H 1.06955 0.54128 0.44261 0.0
C193 C 1.08968 0.51887 0.50517 0.0
H194 H 1.07192 0.49458 0.5199 0.0
H195 H 0.15736 0.5588 0.53027 0.0
H196 H 0.66549 1.07748 0.7432 0.0
C197 C 0.66957 0.11206 0.7514 0.0
C198 C 0.67026 0.14356 0.73344 0.0
C199 C 0.6704 0.12341 0.77932 0.0
H200 H 0.67104 0.21048 0.72923 0.0
C201 C 0.67156 0.18691 0.74326 0.0
C202 C 0.67324 0.20036 0.77074 0.0
C203 C 0.67433 0.16927 0.78872 0.0
C204 C 0.66181 0.08559 0.79808 0.0
H205 H 0.67657 0.1805 0.8099 0.0
C206 C 0.67058 1.0458 0.79192 0.0
C207 C 0.65717 1.00883 0.80906 0.0
C208 C 0.64056 0.08709 0.822 0.0
H209 H 0.63082 0.11451 0.82744 0.0
C210 C 0.6292 1.05197 0.83915 0.0
H211 H 0.68663 1.04268 0.77383 0.0
C212 C 0.63713 1.01328 0.83276 0.0
H213 H 0.62697 0.98617 0.84639 0.0
H214 H 0.61294 1.05415 0.85736 0.0
H215 H 0.6408 0.61128 0.07724 0.0
C216 C 0.67104 0.6076 0.08463 0.0
C217 C 0.7003 0.60078 0.06618 0.0
C218 C 0.68137 0.61132 0.11256 0.0
H219 H 0.76456 0.59404 0.06262 0.0
C220 C 0.74023 0.59695 0.07619 0.0
C221 C 0.75125 0.59935 0.10371 0.0
C222 C 0.72152 0.60623 0.12171 0.0
C223 C 0.65338 0.62479 0.13216 0.0
H224 H 0.72996 0.60738 0.14288 0.0
C225 C 0.60399 0.61364 0.12623 0.0
C226 C 0.58116 0.63061 0.14477 0.0
C227 C 0.67805 0.65242 0.15704 0.0
H228 H 0.71593 0.66395 0.16233 0.0
C229 C 0.65518 0.66745 0.17548 0.0
H230 H 0.58367 0.59283 0.10731 0.0
C231 C 0.60753 0.6568 0.16948 0.0
H232 H 0.59122 0.66956 0.18432 0.0
H233 H 0.67499 0.68844 0.19448 0.0
H234 H 0.33832 0.67943 0.16287 0.0
H235 H 0.49205 0.54552 0.12845 0.0
H236 H 0.26801 0.52659 0.13204 0.0
H237 H 0.55517 0.70042 0.15017 0.0
H238 H 0.40992 0.53622 0.12842 0.0
H239 H 0.41761 0.68604 0.15848 0.0
C240 C 0.33934 0.64704 0.15531 0.0
C241 C 0.29578 0.60229 0.14797 0.0
C242 C 0.44181 0.57229 0.13292 0.0
C243 C 0.3879 0.60978 0.14266 0.0
C244 C 0.48876 0.57764 0.13265 0.0
C245 C 0.53091 0.62383 0.13938 0.0
C246 C 0.43683 0.6134 0.14002 0.0
C247 C 0.52401 0.66402 0.14504 0.0
C248 C 0.38496 0.65093 0.15266 0.0
C249 C 0.30027 0.56189 0.13808 0.0
N250 N 0.47837 0.65783 0.14543 0.0
N251 N 0.34524 0.56655 0.1358 0.0
H252 H 0.76618 0.29375 0.50529 0.0
H253 H 1.02521 0.43007 0.443 0.0
H254 H 0.82077 0.21734 0.45554 0.0
H255 H 0.98622 0.49801 0.5078 0.0
H256 H 0.94547 0.35487 0.44221 0.0
H257 H 0.84146 0.37079 0.50206 0.0
C258 C 0.79395 0.29291 0.49379 0.0
C259 C 0.78681 0.24827 0.48098 0.0
C260 C 0.954 0.38647 0.45634 0.0
C261 C 0.87365 0.33751 0.47678 0.0
C262 C 0.99936 0.4297 0.45653 0.0
C263 C 1.01241 0.47089 0.47522 0.0
C264 C 0.92097 0.38417 0.4749 0.0
C265 C 0.97766 0.46749 0.49281 0.0
C266 C 0.83706 0.33717 0.49189 0.0
C267 C 0.82438 0.25035 0.46606 0.0
N268 N 0.93393 0.42522 0.49224 0.0
N269 N 0.86578 0.29387 0.46437 0.0
H270 H 0.59109 0.71046 0.81057 0.0
H271 H 0.73928 1.00025 0.80252 0.0
H272 H 0.74755 0.79182 0.80971 0.0
H273 H 0.58349 0.9141 0.80374 0.0
H274 H 0.74395 0.92508 0.80208 0.0
H275 H 0.58852 0.7847 0.80606 0.0
C276 C 0.62511 0.74393 0.80962 0.0
C277 C 0.6697 0.74436 0.81081 0.0
C278 C 0.70866 0.92255 0.80207 0.0
C279 C 0.66689 0.83081 0.80534 0.0
C280 C 0.70597 0.96547 0.80199 0.0
C281 C 0.66087 0.96366 0.80293 0.0
C282 C 0.66595 0.87732 0.80314 0.0
C283 C 0.61904 0.91743 0.80286 0.0
C284 C 0.62356 0.78658 0.80689 0.0
C285 C 0.71227 0.78935 0.80906 0.0
N286 N 0.62263 0.87659 0.80313 0.0
N287 N 0.70983 0.83052 0.80651 0.0
H288 H 0.97372 0.51702 0.12906 0.0
H289 H 0.83119 0.66634 0.13849 0.0
H290 H 1.04981 0.67411 0.14503 0.0
H291 H 0.77326 0.52758 0.08936 0.0
H292 H 0.90744 0.66579 0.14894 0.0
H293 H 0.89645 0.51658 0.12247 0.0
C294 C 0.97438 0.55147 0.13121 0.0
C295 C 1.01892 0.59573 0.13749 0.0
C296 C 0.87787 0.63528 0.13606 0.0
C297 C 0.92966 0.59519 0.1299 0.0
C298 C 0.83415 0.63537 0.13028 0.0
C299 C 0.79551 0.59688 0.11307 0.0
C300 C 0.88293 0.59594 0.12501 0.0
C301 C 0.80193 0.55804 0.10271 0.0
C302 C 0.9301 0.55111 0.12728 0.0
C303 C 1.01677 0.63905 0.14004 0.0
N304 N 0.84445 0.55848 0.10889 0.0
N305 N 0.97314 0.63768 0.13635 0.0
H306 H 0.46342 1.01011 0.45516 0.0
H307 H 0.31761 0.72456 0.47409 0.0
H308 H 0.53532 0.9349 0.48175 0.0
H309 H 0.25747 0.78997 0.42558 0.0
H310 H 0.39432 0.80373 0.48306 0.0
H311 H 0.38531 0.93263 0.44962 0.0
C312 C 0.46296 0.97751 0.45995 0.0
C313 C 0.50661 0.97961 0.46892 0.0
C314 C 0.36419 0.80088 0.47063 0.0
C315 C 0.41628 0.89 0.46286 0.0
C316 C 0.32011 0.75569 0.46572 0.0
C317 C 0.28063 0.75022 0.44905 0.0
C318 C 0.36899 0.84153 0.45916 0.0
C319 C 0.28673 0.79211 0.43848 0.0
C320 C 0.41816 0.93308 0.45673 0.0
C321 C 0.50303 0.93555 0.47471 0.0
N322 N 0.32966 0.8356 0.4437 0.0
N323 N 0.459 0.89298 0.47171 0.0
H324 H 0.74377 0.50065 0.82326 0.0
H325 H 0.60513 0.22249 0.7531 0.0
H326 H 0.59675 0.42684 0.78464 0.0
H327 H 0.73493 0.2815 0.80784 0.0
H328 H 0.60361 0.29821 0.76343 0.0
H329 H 0.74373 0.42327 0.81674 0.0
C330 C 0.71134 0.46829 0.81349 0.0
C331 C 0.6701 0.4708 0.80457 0.0
C332 C 0.63233 0.29475 0.7734 0.0
C333 C 0.67011 0.3814 0.7968 0.0
C334 C 0.63323 0.25134 0.76749 0.0
C335 C 0.67019 0.24526 0.7796 0.0
C336 C 0.66913 0.33347 0.79135 0.0
C337 C 0.70552 0.28421 0.79814 0.0
C338 C 0.71139 0.42394 0.80982 0.0
C339 C 0.62941 0.42718 0.79198 0.0
N340 N 0.70442 0.32668 0.80323 0.0
N341 N 0.63061 0.38476 0.78838 0.0
H342 H 0.54237 0.81861 0.44098 0.0
H343 H 0.57154 0.58593 0.41274 0.0
H344 H 0.65416 0.81395 0.39689 0.0
H345 H 0.50323 0.61435 0.47883 0.0
H346 H 0.57467 0.65482 0.39303 0.0
H347 H 0.5017 0.73028 0.44032 0.0
C348 C 0.55756 0.79883 0.43041 0.0
C349 C 0.60225 0.82367 0.41942 0.0
C350 C 0.55748 0.64489 0.41136 0.0
C351 C 0.55618 0.72291 0.41892 0.0
C352 C 0.55539 0.60554 0.42246 0.0
C353 C 0.53737 0.59512 0.4474 0.0
C354 C 0.54136 0.67358 0.42541 0.0
C355 C 0.51749 0.62167 0.45957 0.0
C356 C 0.53442 0.74846 0.43017 0.0
C357 C 0.62035 0.7962 0.40612 0.0
N358 N 0.52064 0.66028 0.44863 0.0
N359 N 0.59765 0.74726 0.40662 0.0
H360 H 0.98563 0.64094 0.7542 0.0
H361 H 1.07075 0.56965 0.86833 0.0
H362 H 0.88316 0.52777 0.79708 0.0
H363 H 0.1594 0.61308 0.80207 0.0
H364 H 0.99852 0.53507 0.8373 0.0
H365 H 1.04479 0.61519 0.76326 0.0
C366 C 0.97502 0.60954 0.76469 0.0
C367 C 0.93028 0.5876 0.77577 0.0
C368 C 1.03367 0.55093 0.82933 0.0
C369 C 0.99782 0.55873 0.78676 0.0
C370 C 1.07544 0.57076 0.84721 0.0
C371 C 1.12185 0.59672 0.83813 0.0
C372 C 1.03823 0.55885 0.80239 0.0
C373 C 1.12451 0.59611 0.81027 0.0
C374 C 1.00869 0.59462 0.76979 0.0
C375 C 0.91775 0.54639 0.78867 0.0
N376 N 1.08333 0.57934 0.79346 0.0
N377 N 0.95203 0.5343 0.79465 0.0
H378 H 0.38917 0.91805 0.10754 0.0
H379 H 0.64578 0.09875 0.18666 0.0
H380 H 0.4675 0.87779 0.16169 0.0
H381 H 0.54763 0.139 0.15066 0.0
H382 H 0.598 1.01744 0.1611 0.0
H383 H 0.46395 0.99581 0.10627 0.0
C384 C 0.42253 0.9249 0.11844 0.0
C385 C 0.42201 0.89234 0.13545 0.0
C386 C 0.58785 1.04461 0.15825 0.0
C387 C 0.50705 0.98118 0.13445 0.0
C388 C 0.61485 0.09086 0.17295 0.0
C389 C 0.59959 0.12511 0.17154 0.0
C390 C 0.54532 1.03266 0.14217 0.0
C391 C 0.5604 0.11361 0.15274 0.0
C392 C 0.46513 0.96936 0.1178 0.0
C393 C 0.46621 0.9028 0.14901 0.0
N394 N 0.53393 1.06794 0.13923 0.0
N395 N 0.50682 0.9469 0.14872 0.0
H396 H 0.71877 0.40788 0.44793 0.0
H397 H 0.77725 0.62707 0.48014 0.0
H398 H 0.78312 0.40759 0.52474 0.0
H399 H 0.78783 0.59116 0.55966 0.0
H400 H 0.81114 0.57673 0.46374 0.0
H401 H 0.77028 0.49565 0.45241 0.0
C402 C 0.74513 0.42628 0.46538 0.0
C403 C 0.7449 0.401 0.48669 0.0
C404 C 0.80691 0.58061 0.48489 0.0
C405 C 0.80383 0.50207 0.49238 0.0
C406 C 0.78791 0.60974 0.49433 0.0
C407 C 0.77584 0.61009 0.52088 0.0
C408 C 0.81275 0.55136 0.50218 0.0
C409 C 0.79375 0.58999 0.53868 0.0
C410 C 0.77504 0.47685 0.46798 0.0
C411 C 0.78047 0.42636 0.5085 0.0
N412 N 0.80974 0.55999 0.52882 0.0
N413 N 0.80756 0.47575 0.51118 0.0
H414 H 0.36186 0.59437 0.74666 0.0
H415 H 0.42867 0.83977 0.82349 0.0
H416 H 0.51135 0.70838 0.76848 0.0
H417 H 0.2886 0.74594 0.77833 0.0
H418 H 0.46451 0.80396 0.79377 0.0
H419 H 0.33757 0.65612 0.74839 0.0
C420 C 0.38965 0.63254 0.75118 0.0
C421 C 0.4384 0.6463 0.75794 0.0
C422 C 0.42623 0.79225 0.7897 0.0
C423 C 0.41106 0.71709 0.76056 0.0
C424 C 0.40586 0.81311 0.80659 0.0
C425 C 0.35534 0.79441 0.80389 0.0
C426 C 0.39545 0.75192 0.77053 0.0
C427 C 0.32753 0.76011 0.78155 0.0
C428 C 0.37593 0.66789 0.75205 0.0
C429 C 0.47323 0.69623 0.76331 0.0
N430 N 0.34759 0.73867 0.76624 0.0
N431 N 0.45872 0.72978 0.7652 0.0
H432 H 0.84486 0.31169 0.07356 0.0
H433 H 0.74436 0.44572 0.15585 0.0
H434 H 0.917 0.46882 0.08373 0.0
H435 H 0.65043 0.29949 0.11591 0.0
H436 H 0.80093 0.45977 0.12173 0.0
H437 H 0.76749 0.30829 0.08 0.0
C438 C 0.84416 0.34543 0.07639 0.0
C439 C 0.88762 0.39056 0.07899 0.0
C440 C 0.76713 0.42514 0.11981 0.0
C441 C 0.79961 0.38717 0.08697 0.0
C442 C 0.73472 0.41724 0.13929 0.0
C443 C 0.69367 0.37087 0.13912 0.0
C444 C 0.75859 0.38606 0.10055 0.0
C445 C 0.68269 0.3353 0.11714 0.0
C446 C 0.79995 0.34357 0.08 0.0
C447 C 0.88451 0.43318 0.08208 0.0
N448 N 0.71575 0.34307 0.09917 0.0
N449 N 0.84151 0.43051 0.08685 0.0
H450 H 0.22591 0.69211 0.07603 0.0
H451 H 0.18132 0.57251 0.9244 0.0
H452 H 1.1237 0.53908 0.05134 0.0
H453 H 0.22566 0.72392 0.9475 0.0
H454 H 0.17174 0.55911 0.97136 0.0
H455 H 0.23806 0.70374 0.02926 0.0
C456 C 0.20603 0.66088 0.06075 0.0
C457 C 0.17362 0.61453 0.06754 0.0
C458 C 0.18374 0.59522 0.96602 0.0
C459 C 0.18782 0.62766 0.01399 0.0
C460 C 0.18915 0.60297 0.93925 0.0
C461 C 0.20413 0.64945 0.93184 0.0
C462 C 0.19413 0.63434 -0.01446 0.0
C463 C 0.2148 0.68767 0.95216 0.0
C464 C 0.21294 0.66763 0.03407 0.0
C465 C 0.14877 0.57545 0.0469 0.0
N466 N 0.20961 0.67925 -0.02196 0.0
N467 N 0.15659 0.58284 0.02094 0.0
H468 H 0.65918 0.07971 0.38225 0.0
H469 H 0.60805 0.23426 0.28263 0.0
H470 H 0.61851 0.18675 0.40748 0.0
H471 H 0.681 0.15433 0.26056 0.0
H472 H 0.60766 0.21362 0.3281 0.0
H473 H 0.661 0.10076 0.33642 0.0
C474 C 0.65026 0.10725 0.37811 0.0
C475 C 0.63898 0.13172 0.39869 0.0
C476 C 0.62398 0.20079 0.31333 0.0
C477 C 0.64119 0.15606 0.34667 0.0
C478 C 0.62464 0.213 0.28741 0.0
C479 C 0.64439 0.19587 0.26767 0.0
C480 C 0.64295 0.17098 0.31956 0.0
C481 C 0.66463 0.16766 0.27501 0.0
C482 C 0.65166 0.11952 0.35206 0.0
C483 C 0.62792 0.1673 0.3923 0.0
N484 N 0.66309 0.15582 0.3003 0.0
N485 N 0.62929 0.17835 0.36691 0.0
H486 H 0.74939 0.64026 0.73044 0.0
H487 H 0.6055 0.56834 0.58833 0.0
H488 H 0.59447 0.5866 0.72157 0.0
H489 H 0.75258 0.69162 0.60355 0.0
H490 H 0.60069 0.56854 0.63634 0.0
H491 H 0.75232 0.65135 0.68287 0.0
C492 C 0.71601 0.6306 0.71844 0.0
C493 C 0.67157 0.61235 0.72983 0.0
C494 C 0.63375 0.59589 0.62909 0.0
C495 C 0.67471 0.62481 0.67575 0.0
C496 C 0.63649 0.59627 0.60159 0.0
C497 C 0.67973 0.62993 0.59156 0.0
C498 C 0.67481 0.62852 0.64679 0.0
C499 C 0.7189 0.66418 0.61017 0.0
C500 C 0.71781 0.63741 0.69146 0.0
C501 C 0.62945 0.60087 0.71353 0.0
N502 N 0.71583 0.66205 0.63689 0.0
N503 N 0.63193 0.6068 0.68719 0.0
H504 H 0.73003 0.11398 0.56716 0.0
H505 H 0.60108 0.13573 0.6968 0.0
H506 H 0.58462 0.09286 0.56558 0.0
H507 H 0.72915 0.12182 0.70317 0.0
H508 H 0.59675 0.12121 0.64815 0.0
H509 H 0.73305 0.1177 0.61641 0.0
C510 C 0.69871 0.10974 0.57705 0.0
C511 C 0.65721 0.10355 0.56212 0.0
C512 C 0.62571 0.1209 0.66004 0.0
C513 C 0.66053 0.10801 0.61823 0.0
C514 C 0.62816 0.12927 0.68785 0.0
C515 C 0.66556 0.13008 0.70397 0.0
C516 C 0.66133 0.11387 0.648 0.0
C517 C 0.69964 0.12127 0.69136 0.0
C518 C 0.70045 0.11186 0.60512 0.0
C519 C 0.61767 0.09819 0.57606 0.0
N520 N 0.69707 0.11403 0.66404 0.0
N521 N 0.6205 0.10088 0.60314 0.0
H522 H 0.74978 0.62456 0.90007 0.0
H523 H 0.66059 0.64784 0.03971 0.0
H524 H 0.60237 0.59666 0.90141 0.0
H525 H 0.71886 0.55182 0.02404 0.0
H526 H 0.65048 0.64877 -0.0086 0.0
H527 H 0.75328 0.6197 0.94843 0.0
C528 C 0.71836 0.61792 0.91061 0.0
C529 C 0.67569 0.61095 0.89677 0.0
C530 C 0.66537 0.62753 -0.00123 0.0
C531 C 0.67993 0.60639 0.95198 0.0
C532 C 0.67086 0.62651 0.0264 0.0
C533 C 0.69111 0.59996 0.03653 0.0
C534 C 0.6815 0.60311 -0.0189 0.0
C535 C 0.7046 0.57419 0.01772 0.0
C536 C 0.72031 0.61488 0.93808 0.0
C537 C 0.63584 0.60203 0.91137 0.0
N538 N 0.70032 0.57708 -0.00892 0.0
N539 N 0.63908 0.60056 0.93831 0.0
H540 H 0.15768 0.52903 0.23436 0.0
H541 H 0.16586 0.69168 0.3678 0.0
H542 H 0.12933 0.64832 0.2363 0.0
H543 H 0.16832 0.55823 0.37051 0.0
H544 H 0.15144 0.67424 0.31911 0.0
H545 H 0.16037 0.53632 0.28365 0.0
C546 C 0.15158 0.55635 0.24504 0.0
C547 C 0.14375 0.58839 0.23108 0.0
C548 C 0.15473 0.6484 0.33022 0.0
C549 C 0.14703 0.59707 0.28728 0.0
C550 C 0.16306 0.65847 0.35806 0.0
C551 C 0.16848 0.62648 0.37318 0.0
C552 C 0.15234 0.60619 0.31713 0.0
C553 C 0.16414 0.58373 0.35954 0.0
C554 C 0.15317 0.56053 0.27314 0.0
C555 C 0.13605 0.62308 0.24602 0.0
N556 N 0.15683 0.57503 0.33222 0.0
N557 N 0.13822 0.62663 0.27313 0.0
loop_
_geom_bond_atom_site_label_1
_geom_bond_atom_site_label_2
_geom_bond_distance
_geom_bond_site_symmetry_2
_ccdc_geom_bond_type
Eu0 C9 2.828 . S
Eu0 O11 2.392 1_655 S
Eu0 O13 2.418 . S
Eu0 O18 2.373 . S
Eu0 O21 2.488 . S
Eu0 O22 2.471 . S
Eu0 O23 2.349 1_655 S
Eu1 O10 2.373 . S
Eu1 O14 2.488 . S
Eu1 O15 2.471 . S
Eu1 O16 2.349 . S
Eu1 O19 2.392 1_455 S
Eu1 O20 2.418 . S
Eu1 C30 2.828 . S
C2 O20 1.244 . S
C2 O23 1.265 . S
C3 C4 1.379 . S
C3 C7 1.373 . S
C3 C9 1.505 . S
C4 C3 1.379 . S
C4 C6 1.369 . S
C4 H32 0.930 . S
C5 C7 1.383 . S
C5 C8 1.382 . S
C5 H33 0.930 . S
C6 C4 1.369 . S
C6 C8 1.392 . S
C6 H34 0.930 . S
C7 C3 1.373 . S
C7 C5 1.383 . S
C7 H35 0.931 . S
C8 C5 1.382 . S
C8 C6 1.392 . S
C9 Eu0 2.828 . S
C9 C3 1.505 . S
C9 O21 1.249 . S
C9 O22 1.244 . S
O10 Eu1 2.373 . S
O10 C12 1.258 . S
O11 Eu0 2.392 1_455 S
O11 C12 1.242 . S
C12 O10 1.258 . S
C12 O11 1.242 . S
O13 Eu0 2.418 . S
O13 C17 1.244 1_655 S
O14 Eu1 2.488 . S
O14 C30 1.249 . S
O15 Eu1 2.471 . S
O15 C30 1.244 . S
O16 Eu1 2.349 . S
O16 C17 1.265 . S
C17 O13 1.244 1_455 S
C17 O16 1.265 . S
O18 Eu0 2.373 . S
O18 C31 1.258 . S
O19 Eu1 2.392 1_655 S
O19 C31 1.242 . S
O20 Eu1 2.418 . S
O20 C2 1.244 . S
O21 Eu0 2.488 . S
O21 C9 1.249 . S
O22 Eu0 2.471 . S
O22 C9 1.244 . S
O23 Eu0 2.349 1_455 S
O23 C2 1.265 . S
C24 C25 1.379 . S
C24 C28 1.373 . S
C24 C30 1.505 . S
C25 C24 1.379 . S
C25 C27 1.369 . S
C25 H36 0.930 . S
C26 C28 1.383 . S
C26 C29 1.382 . S
C26 H37 0.930 . S
C27 C25 1.369 . S
C27 C29 1.392 . S
C27 H38 0.930 . S
C28 C24 1.373 . S
C28 C26 1.383 . S
C28 H39 0.931 . S
C29 C26 1.382 . S
C29 C27 1.392 . S
C30 Eu1 2.828 . S
C30 O14 1.249 . S
C30 O15 1.244 . S
C30 C24 1.505 . S
C31 O18 1.258 . S
C31 O19 1.242 . S
H32 C4 0.930 . S
H33 C5 0.930 . S
H34 C6 0.930 . S
H35 C7 0.931 . S
H36 C25 0.930 . S
H37 C26 0.930 . S
H38 C27 0.930 . S
H39 C28 0.931 . S
Eu40 C49 2.828 1_545 S
Eu40 O51 2.392 . S
Eu40 O53 2.418 . S
Eu40 O58 2.373 1_545 S
Eu40 O61 2.488 1_545 S
Eu40 O62 2.471 1_545 S
Eu40 O63 2.349 . S
Eu41 O50 2.373 . S
Eu41 O54 2.488 . S
Eu41 O55 2.471 . S
Eu41 O56 2.349 . S
Eu41 O59 2.392 1_545 S
Eu41 O60 2.418 . S
Eu41 C70 2.828 . S
C42 O60 1.244 . S
C42 O63 1.265 . S
C43 C44 1.379 . S
C43 C47 1.373 . S
C43 C49 1.505 . S
C44 C43 1.379 . S
C44 C46 1.369 . S
C44 H72 0.930 . S
C45 C47 1.383 . S
C45 C48 1.382 . S
C45 H73 0.930 . S
C46 C44 1.369 . S
C46 C48 1.392 . S
C46 H74 0.930 . S
C47 C43 1.373 . S
C47 C45 1.383 . S
C47 H75 0.931 . S
C48 C45 1.382 . S
C48 C46 1.392 . S
C49 Eu40 2.828 1_565 S
C49 C43 1.505 . S
C49 O61 1.249 . S
C49 O62 1.244 . S
O50 Eu41 2.373 . S
O50 C52 1.258 . S
O51 Eu40 2.392 . S
O51 C52 1.242 . S
C52 O50 1.258 . S
C52 O51 1.242 . S
O53 Eu40 2.418 . S
O53 C57 1.244 . S
O54 Eu41 2.488 . S
O54 C70 1.249 . S
O55 Eu41 2.471 . S
O55 C70 1.244 . S
O56 Eu41 2.349 . S
O56 C57 1.265 . S
C57 O53 1.244 . S
C57 O56 1.265 . S
O58 Eu40 2.373 1_565 S
O58 C71 1.258 . S
O59 Eu41 2.392 1_565 S
O59 C71 1.242 . S
O60 Eu41 2.418 . S
O60 C42 1.244 . S
O61 Eu40 2.488 1_565 S
O61 C49 1.249 . S
O62 Eu40 2.471 1_565 S
O62 C49 1.244 . S
O63 Eu40 2.349 . S
O63 C42 1.265 . S
C64 C65 1.379 . S
C64 C68 1.373 . S
C64 C70 1.505 . S
C65 C64 1.379 . S
C65 C67 1.369 . S
C65 H76 0.930 . S
C66 C68 1.383 . S
C66 C69 1.382 . S
C66 H77 0.930 . S
C67 C65 1.369 . S
C67 C69 1.392 . S
C67 H78 0.930 . S
C68 C64 1.373 . S
C68 C66 1.383 . S
C68 H79 0.931 . S
C69 C66 1.382 . S
C69 C67 1.392 . S
C70 Eu41 2.828 . S
C70 O54 1.249 . S
C70 O55 1.244 . S
C70 C64 1.505 . S
C71 O58 1.258 . S
C71 O59 1.242 . S
H72 C44 0.930 . S
H73 C45 0.930 . S
H74 C46 0.930 . S
H75 C47 0.931 . S
H76 C65 0.930 . S
H77 C66 0.930 . S
H78 C67 0.930 . S
H79 C68 0.931 . S
Eu80 C89 2.828 . S
Eu80 O91 2.392 . S
Eu80 O93 2.418 . S
Eu80 O98 2.373 . S
Eu80 O101 2.488 . S
Eu80 O102 2.471 . S
Eu80 O103 2.349 . S
Eu81 O90 2.373 . S
Eu81 O94 2.488 . S
Eu81 O95 2.471 . S
Eu81 O96 2.349 . S
Eu81 O99 2.392 . S
Eu81 O100 2.418 . S
Eu81 C110 2.828 . S
C82 O100 1.244 . S
C82 O103 1.265 . S
C83 C84 1.379 . S
C83 C87 1.373 . S
C83 C89 1.505 . S
C84 C83 1.379 . S
C84 C86 1.369 . S
C84 H112 0.930 . S
C85 C87 1.383 . S
C85 C88 1.382 . S
C85 H113 0.930 . S
C86 C84 1.369 . S
C86 C88 1.392 . S
C86 H114 0.930 . S
C87 C83 1.373 . S
C87 C85 1.383 . S
C87 H115 0.931 . S
C88 C85 1.382 . S
C88 C86 1.392 . S
C89 Eu80 2.828 . S
C89 C83 1.505 . S
C89 O101 1.249 . S
C89 O102 1.244 . S
O90 Eu81 2.373 . S
O90 C92 1.258 . S
O91 Eu80 2.392 . S
O91 C92 1.242 . S
C92 O90 1.258 . S
C92 O91 1.242 . S
O93 Eu80 2.418 . S
O93 C97 1.244 . S
O94 Eu81 2.488 . S
O94 C110 1.249 . S
O95 Eu81 2.471 . S
O95 C110 1.244 . S
O96 Eu81 2.349 . S
O96 C97 1.265 . S
C97 O93 1.244 . S
C97 O96 1.265 . S
O98 Eu80 2.373 . S
O98 C111 1.258 . S
O99 Eu81 2.392 . S
O99 C111 1.242 . S
O100 Eu81 2.418 . S
O100 C82 1.244 . S
O101 Eu80 2.488 . S
O101 C89 1.249 . S
O102 Eu80 2.471 . S
O102 C89 1.244 . S
O103 Eu80 2.349 . S
O103 C82 1.265 . S
C104 C105 1.379 . S
C104 C108 1.373 . S
C104 C110 1.505 . S
C105 C104 1.379 . S
C105 C107 1.369 . S
C105 H116 0.930 . S
C106 C108 1.383 . S
C106 C109 1.382 . S
C106 H117 0.930 . S
C107 C105 1.369 . S
C107 C109 1.392 . S
C107 H118 0.930 . S
C108 C104 1.373 . S
C108 C106 1.383 . S
C108 H119 0.931 . S
C109 C106 1.382 . S
C109 C107 1.392 . S
C110 Eu81 2.828 . S
C110 O94 1.249 . S
C110 O95 1.244 . S
C110 C104 1.505 . S
C111 O98 1.258 . S
C111 O99 1.242 . S
H112 C84 0.930 . S
H113 C85 0.930 . S
H114 C86 0.930 . S
H115 C87 0.931 . S
H116 C105 0.930 . S
H117 C106 0.930 . S
H118 C107 0.930 . S
H119 C108 0.931 . S
H120 C121 0.949 . S
C121 H120 0.949 . S
C121 C122 1.395 . S
C121 C123 1.391 . S
C122 C121 1.395 . S
C122 C125 1.390 . S
C123 C121 1.391 . S
C123 C127 1.387 . S
C123 C128 1.491 . S
H124 C125 0.950 1_565 S
C125 C122 1.390 . S
C125 H124 0.950 1_545 S
C125 C126 1.378 1_545 S
C126 C125 1.378 1_565 S
C126 C127 1.409 1_565 S
C127 C123 1.387 . S
C127 C126 1.409 1_545 S
C127 H129 0.951 . S
C128 C123 1.491 . S
C128 C130 1.382 . S
C128 C132 1.404 . S
H129 C127 0.951 . S
C130 C128 1.382 . S
C130 C131 1.390 . S
C130 H135 0.949 . S
C131 C130 1.390 . S
C131 C136 1.399 . S
C132 C128 1.404 . S
C132 H133 0.950 . S
C132 C134 1.375 . S
H133 C132 0.950 . S
C134 C132 1.375 . S
C134 C136 1.382 . S
C134 H138 0.950 . S
H135 C130 0.949 . S
C136 C131 1.399 . S
C136 C134 1.382 . S
C136 H137 0.952 . S
H137 C136 0.952 . S
H138 C134 0.950 . S
H139 C140 0.949 . S
C140 H139 0.949 . S
C140 C141 1.395 . S
C140 C142 1.391 . S
C141 C140 1.395 . S
C141 C144 1.390 . S
C142 C140 1.391 . S
C142 C146 1.387 . S
C142 C147 1.491 . S
H143 C144 0.950 . S
C144 C141 1.390 . S
C144 H143 0.950 . S
C144 C145 1.378 . S
C145 C144 1.378 . S
C145 C146 1.409 . S
C146 C142 1.387 . S
C146 C145 1.409 . S
C146 H148 0.951 . S
C147 C142 1.491 . S
C147 C149 1.382 . S
C147 C151 1.404 . S
H148 C146 0.951 . S
C149 C147 1.382 . S
C149 C150 1.390 . S
C149 H154 0.949 . S
C150 C149 1.390 . S
C150 C155 1.399 . S
C151 C147 1.404 . S
C151 H152 0.950 . S
C151 C153 1.375 . S
H152 C151 0.950 . S
C153 C151 1.375 . S
C153 C155 1.382 . S
C153 H157 0.950 . S
H154 C149 0.949 . S
C155 C150 1.399 . S
C155 C153 1.382 . S
C155 H156 0.952 . S
H156 C155 0.952 . S
H157 C153 0.950 . S
H158 C159 0.949 . S
C159 H158 0.949 . S
C159 C160 1.395 . S
C159 C161 1.391 . S
C160 C159 1.395 . S
C160 C163 1.390 . S
C161 C159 1.391 . S
C161 C165 1.387 . S
C161 C166 1.491 . S
H162 C163 0.950 1_655 S
C163 C160 1.390 . S
C163 H162 0.950 1_455 S
C163 C164 1.378 1_455 S
C164 C163 1.378 1_655 S
C164 C165 1.409 1_655 S
C165 C161 1.387 . S
C165 C164 1.409 1_455 S
C165 H167 0.951 . S
C166 C161 1.491 . S
C166 C168 1.382 . S
C166 C170 1.404 . S
H167 C165 0.951 . S
C168 C166 1.382 . S
C168 C169 1.390 . S
C168 H173 0.949 . S
C169 C168 1.390 . S
C169 C174 1.399 . S
C170 C166 1.404 . S
C170 H171 0.950 . S
C170 C172 1.375 . S
H171 C170 0.950 . S
C172 C170 1.375 . S
C172 C174 1.382 . S
C172 H176 0.950 . S
H173 C168 0.949 . S
C174 C169 1.399 . S
C174 C172 1.382 . S
C174 H175 0.952 . S
H175 C174 0.952 . S
H176 C172 0.950 . S
H177 C178 0.949 1_655 S
C178 H177 0.949 1_455 S
C178 C179 1.395 . S
C178 C180 1.391 . S
C179 C178 1.395 . S
C179 C182 1.390 . S
C180 C178 1.391 . S
C180 C184 1.387 . S
C180 C185 1.491 1_455 S
H181 C182 0.950 . S
C182 C179 1.390 . S
C182 H181 0.950 . S
C182 C183 1.378 . S
C183 C182 1.378 . S
C183 C184 1.409 . S
C184 C180 1.387 . S
C184 C183 1.409 . S
C184 H186 0.951 . S
C185 C180 1.491 1_655 S
C185 C187 1.382 . S
C185 C189 1.404 . S
H186 C184 0.951 . S
C187 C185 1.382 . S
C187 C188 1.390 . S
C187 H192 0.949 . S
C188 C187 1.390 . S
C188 C193 1.399 . S
C189 C185 1.404 . S
C189 H190 0.950 . S
C189 C191 1.375 . S
H190 C189 0.950 . S
C191 C189 1.375 . S
C191 C193 1.382 . S
C191 H195 0.950 . S
H192 C187 0.949 . S
C193 C188 1.399 . S
C193 C191 1.382 . S
C193 H194 0.952 . S
H194 C193 0.952 . S
H195 C191 0.950 . S
H196 C197 0.949 . S
C197 H196 0.949 . S
C197 C198 1.395 . S
C197 C199 1.391 . S
C198 C197 1.395 . S
C198 C201 1.390 . S
C199 C197 1.391 . S
C199 C203 1.387 . S
C199 C204 1.491 . S
H200 C201 0.950 . S
C201 C198 1.390 . S
C201 H200 0.950 . S
C201 C202 1.378 . S
C202 C201 1.378 . S
C202 C203 1.409 . S
C203 C199 1.387 . S
C203 C202 1.409 . S
C203 H205 0.951 . S
C204 C199 1.491 . S
C204 C206 1.382 1_545 S
C204 C208 1.404 1_545 S
H205 C203 0.951 . S
C206 C204 1.382 1_565 S
C206 C207 1.390 . S
C206 H211 0.949 . S
C207 C206 1.390 . S
C207 C212 1.399 . S
C208 C204 1.404 1_565 S
C208 H209 0.950 1_565 S
C208 C210 1.375 . S
H209 C208 0.950 1_545 S
C210 C208 1.375 . S
C210 C212 1.382 . S
C210 H214 0.950 . S
H211 C206 0.949 . S
C212 C207 1.399 . S
C212 C210 1.382 . S
C212 H213 0.952 . S
H213 C212 0.952 . S
H214 C210 0.950 . S
H215 C216 0.949 . S
C216 H215 0.949 . S
C216 C217 1.395 . S
C216 C218 1.391 . S
C217 C216 1.395 . S
C217 C220 1.390 . S
C218 C216 1.391 . S
C218 C222 1.387 . S
C218 C223 1.491 . S
H219 C220 0.950 . S
C220 C217 1.390 . S
C220 H219 0.950 . S
C220 C221 1.378 . S
C221 C220 1.378 . S
C221 C222 1.409 . S
C222 C218 1.387 . S
C222 C221 1.409 . S
C222 H224 0.951 . S
C223 C218 1.491 . S
C223 C225 1.382 . S
C223 C227 1.404 . S
H224 C222 0.951 . S
C225 C223 1.382 . S
C225 C226 1.390 . S
C225 H230 0.949 . S
C226 C225 1.390 . S
C226 C231 1.399 . S
C227 C223 1.404 . S
C227 H228 0.950 . S
C227 C229 1.375 . S
H228 C227 0.950 . S
C229 C227 1.375 . S
C229 C231 1.382 . S
C229 H233 0.950 . S
H230 C225 0.949 . S
C231 C226 1.399 . S
C231 C229 1.382 . S
C231 H232 0.952 . S
H232 C231 0.952 . S
H233 C229 0.950 . S
H234 C240 0.930 . S
H235 C244 0.930 . S
H236 C249 0.929 . S
H237 C247 0.929 . S
H238 C242 0.929 . S
H239 C248 0.929 . S
C240 H234 0.930 . S
C240 C241 1.367 . S
C240 C248 1.378 . S
C241 C240 1.367 . S
C241 C249 1.433 . S
C242 H238 0.929 . S
C242 C244 1.378 . S
C242 C246 1.350 . S
C243 C246 1.463 . S
C243 C248 1.350 . S
C243 N251 1.427 . S
C244 H235 0.930 . S
C244 C242 1.378 . S
C244 C245 1.367 . S
C245 C244 1.367 . S
C245 C247 1.433 . S
C246 C242 1.350 . S
C246 C243 1.463 . S
C246 N250 1.427 . S
C247 H237 0.929 . S
C247 C245 1.433 . S
C247 N250 1.384 . S
C248 H239 0.929 . S
C248 C240 1.378 . S
C248 C243 1.350 . S
C249 H236 0.929 . S
C249 C241 1.433 . S
C249 N251 1.384 . S
N250 C246 1.427 . S
N250 C247 1.384 . S
N251 C243 1.427 . S
N251 C249 1.384 . S
H252 C258 0.930 . S
H253 C262 0.930 . S
H254 C267 0.929 . S
H255 C265 0.929 . S
H256 C260 0.929 . S
H257 C266 0.929 . S
C258 H252 0.930 . S
C258 C259 1.367 . S
C258 C266 1.378 . S
C259 C258 1.367 . S
C259 C267 1.433 . S
C260 H256 0.929 . S
C260 C262 1.378 . S
C260 C264 1.350 . S
C261 C264 1.463 . S
C261 C266 1.350 . S
C261 N269 1.427 . S
C262 H253 0.930 . S
C262 C260 1.378 . S
C262 C263 1.367 . S
C263 C262 1.367 . S
C263 C265 1.433 . S
C264 C260 1.350 . S
C264 C261 1.463 . S
C264 N268 1.427 . S
C265 H255 0.929 . S
C265 C263 1.433 . S
C265 N268 1.384 . S
C266 H257 0.929 . S
C266 C258 1.378 . S
C266 C261 1.350 . S
C267 H254 0.929 . S
C267 C259 1.433 . S
C267 N269 1.384 . S
N268 C264 1.427 . S
N268 C265 1.384 . S
N269 C261 1.427 . S
N269 C267 1.384 . S
H270 C276 0.930 . S
H271 C280 0.930 . S
H272 C285 0.929 . S
H273 C283 0.929 . S
H274 C278 0.929 . S
H275 C284 0.929 . S
C276 H270 0.930 . S
C276 C277 1.367 . S
C276 C284 1.378 . S
C277 C276 1.367 . S
C277 C285 1.433 . S
C278 H274 0.929 . S
C278 C280 1.378 . S
C278 C282 1.350 . S
C279 C282 1.463 . S
C279 C284 1.350 . S
C279 N287 1.427 . S
C280 H271 0.930 . S
C280 C278 1.378 . S
C280 C281 1.367 . S
C281 C280 1.367 . S
C281 C283 1.433 . S
C282 C278 1.350 . S
C282 C279 1.463 . S
C282 N286 1.427 . S
C283 H273 0.929 . S
C283 C281 1.433 . S
C283 N286 1.384 . S
C284 H275 0.929 . S
C284 C276 1.378 . S
C284 C279 1.350 . S
C285 H272 0.929 . S
C285 C277 1.433 . S
C285 N287 1.384 . S
N286 C282 1.427 . S
N286 C283 1.384 . S
N287 C279 1.427 . S
N287 C285 1.384 . S
H288 C294 0.930 . S
H289 C298 0.930 . S
H290 C303 0.929 . S
H291 C301 0.929 . S
H292 C296 0.929 . S
H293 C302 0.929 . S
C294 H288 0.930 . S
C294 C295 1.367 . S
C294 C302 1.378 . S
C295 C294 1.367 . S
C295 C303 1.433 . S
C296 H292 0.929 . S
C296 C298 1.378 . S
C296 C300 1.350 . S
C297 C300 1.463 . S
C297 C302 1.350 . S
C297 N305 1.427 . S
C298 H289 0.930 . S
C298 C296 1.378 . S
C298 C299 1.367 . S
C299 C298 1.367 . S
C299 C301 1.433 . S
C300 C296 1.350 . S
C300 C297 1.463 . S
C300 N304 1.427 . S
C301 H291 0.929 . S
C301 C299 1.433 . S
C301 N304 1.384 . S
C302 H293 0.929 . S
C302 C294 1.378 . S
C302 C297 1.350 . S
C303 H290 0.929 . S
C303 C295 1.433 . S
C303 N305 1.384 . S
N304 C300 1.427 . S
N304 C301 1.384 . S
N305 C297 1.427 . S
N305 C303 1.384 . S
H306 C312 0.930 . S
H307 C316 0.930 . S
H308 C321 0.929 . S
H309 C319 0.929 . S
H310 C314 0.929 . S
H311 C320 0.929 . S
C312 H306 0.930 . S
C312 C313 1.367 . S
C312 C320 1.378 . S
C313 C312 1.367 . S
C313 C321 1.433 . S
C314 H310 0.929 . S
C314 C316 1.378 . S
C314 C318 1.350 . S
C315 C318 1.463 . S
C315 C320 1.350 . S
C315 N323 1.427 . S
C316 H307 0.930 . S
C316 C314 1.378 . S
C316 C317 1.367 . S
C317 C316 1.367 . S
C317 C319 1.433 . S
C318 C314 1.350 . S
C318 C315 1.463 . S
C318 N322 1.427 . S
C319 H309 0.929 . S
C319 C317 1.433 . S
C319 N322 1.384 . S
C320 H311 0.929 . S
C320 C312 1.378 . S
C320 C315 1.350 . S
C321 H308 0.929 . S
C321 C313 1.433 . S
C321 N323 1.384 . S
N322 C318 1.427 . S
N322 C319 1.384 . S
N323 C315 1.427 . S
N323 C321 1.384 . S
H324 C330 0.930 . S
H325 C334 0.930 . S
H326 C339 0.929 . S
H327 C337 0.929 . S
H328 C332 0.929 . S
H329 C338 0.929 . S
C330 H324 0.930 . S
C330 C331 1.367 . S
C330 C338 1.378 . S
C331 C330 1.367 . S
C331 C339 1.433 . S
C332 H328 0.929 . S
C332 C334 1.378 . S
C332 C336 1.350 . S
C333 C336 1.463 . S
C333 C338 1.350 . S
C333 N341 1.427 . S
C334 H325 0.930 . S
C334 C332 1.378 . S
C334 C335 1.367 . S
C335 C334 1.367 . S
C335 C337 1.433 . S
C336 C332 1.350 . S
C336 C333 1.463 . S
C336 N340 1.427 . S
C337 H327 0.929 . S
C337 C335 1.433 . S
C337 N340 1.384 . S
C338 H329 0.929 . S
C338 C330 1.378 . S
C338 C333 1.350 . S
C339 H326 0.929 . S
C339 C331 1.433 . S
C339 N341 1.384 . S
N340 C336 1.427 . S
N340 C337 1.384 . S
N341 C333 1.427 . S
N341 C339 1.384 . S
H342 C348 0.930 . S
H343 C352 0.930 . S
H344 C357 0.929 . S
H345 C355 0.929 . S
H346 C350 0.929 . S
H347 C356 0.929 . S
C348 H342 0.930 . S
C348 C349 1.367 . S
C348 C356 1.378 . S
C349 C348 1.367 . S
C349 C357 1.433 . S
C350 H346 0.929 . S
C350 C352 1.378 . S
C350 C354 1.350 . S
C351 C354 1.463 . S
C351 C356 1.350 . S
C351 N359 1.427 . S
C352 H343 0.930 . S
C352 C350 1.378 . S
C352 C353 1.367 . S
C353 C352 1.367 . S
C353 C355 1.433 . S
C354 C350 1.350 . S
C354 C351 1.463 . S
C354 N358 1.427 . S
C355 H345 0.929 . S
C355 C353 1.433 . S
C355 N358 1.384 . S
C356 H347 0.929 . S
C356 C348 1.378 . S
C356 C351 1.350 . S
C357 H344 0.929 . S
C357 C349 1.433 . S
C357 N359 1.384 . S
N358 C354 1.427 . S
N358 C355 1.384 . S
N359 C351 1.427 . S
N359 C357 1.384 . S
H360 C366 0.930 . S
H361 C370 0.930 . S
H362 C375 0.929 . S
H363 C373 0.929 . S
H364 C368 0.929 . S
H365 C374 0.929 . S
C366 H360 0.930 . S
C366 C367 1.367 . S
C366 C374 1.378 . S
C367 C366 1.367 . S
C367 C375 1.433 . S
C368 H364 0.929 . S
C368 C370 1.378 . S
C368 C372 1.350 . S
C369 C372 1.463 . S
C369 C374 1.350 . S
C369 N377 1.427 . S
C370 H361 0.930 . S
C370 C368 1.378 . S
C370 C371 1.367 . S
C371 C370 1.367 . S
C371 C373 1.433 . S
C372 C368 1.350 . S
C372 C369 1.463 . S
C372 N376 1.427 . S
C373 H363 0.929 . S
C373 C371 1.433 . S
C373 N376 1.384 . S
C374 H365 0.929 . S
C374 C366 1.378 . S
C374 C369 1.350 . S
C375 H362 0.929 . S
C375 C367 1.433 . S
C375 N377 1.384 . S
N376 C372 1.427 . S
N376 C373 1.384 . S
N377 C369 1.427 . S
N377 C375 1.384 . S
H378 C384 0.930 . S
H379 C388 0.930 . S
H380 C393 0.929 . S
H381 C391 0.929 1_545 S
H382 C386 0.929 . S
H383 C392 0.929 . S
C384 H378 0.930 . S
C384 C385 1.367 . S
C384 C392 1.378 . S
C385 C384 1.367 . S
C385 C393 1.433 . S
C386 H382 0.929 . S
C386 C388 1.378 . S
C386 C390 1.350 . S
C387 C390 1.463 . S
C387 C392 1.350 . S
C387 N395 1.427 . S
C388 H379 0.930 . S
C388 C386 1.378 . S
C388 C389 1.367 . S
C389 C388 1.367 . S
C389 C391 1.433 . S
C390 C386 1.350 . S
C390 C387 1.463 . S
C390 N394 1.427 . S
C391 H381 0.929 1_565 S
C391 C389 1.433 . S
C391 N394 1.384 . S
C392 H383 0.929 . S
C392 C384 1.378 . S
C392 C387 1.350 . S
C393 H380 0.929 . S
C393 C385 1.433 . S
C393 N395 1.384 . S
N394 C390 1.427 . S
N394 C391 1.384 . S
N395 C387 1.427 . S
N395 C393 1.384 . S
H396 C402 0.930 . S
H397 C406 0.930 . S
H398 C411 0.929 . S
H399 C409 0.929 . S
H400 C404 0.929 . S
H401 C410 0.929 . S
C402 H396 0.930 . S
C402 C403 1.367 . S
C402 C410 1.378 . S
C403 C402 1.367 . S
C403 C411 1.433 . S
C404 H400 0.929 . S
C404 C406 1.378 . S
C404 C408 1.350 . S
C405 C408 1.463 . S
C405 C410 1.350 . S
C405 N413 1.427 . S
C406 H397 0.930 . S
C406 C404 1.378 . S
C406 C407 1.367 . S
C407 C406 1.367 . S
C407 C409 1.433 . S
C408 C404 1.350 . S
C408 C405 1.463 . S
C408 N412 1.427 . S
C409 H399 0.929 . S
C409 C407 1.433 . S
C409 N412 1.384 . S
C410 H401 0.929 . S
C410 C402 1.378 . S
C410 C405 1.350 . S
C411 H398 0.929 . S
C411 C403 1.433 . S
C411 N413 1.384 . S
N412 C408 1.427 . S
N412 C409 1.384 . S
N413 C405 1.427 . S
N413 C411 1.384 . S
H414 C420 0.930 . S
H415 C424 0.930 . S
H416 C429 0.929 . S
H417 C427 0.929 . S
H418 C422 0.929 . S
H419 C428 0.929 . S
C420 H414 0.930 . S
C420 C421 1.367 . S
C420 C428 1.378 . S
C421 C420 1.367 . S
C421 C429 1.433 . S
C422 H418 0.929 . S
C422 C424 1.378 . S
C422 C426 1.350 . S
C423 C426 1.463 . S
C423 C428 1.350 . S
C423 N431 1.427 . S
C424 H415 0.930 . S
C424 C422 1.378 . S
C424 C425 1.367 . S
C425 C424 1.367 . S
C425 C427 1.433 . S
C426 C422 1.350 . S
C426 C423 1.463 . S
C426 N430 1.427 . S
C427 H417 0.929 . S
C427 C425 1.433 . S
C427 N430 1.384 . S
C428 H419 0.929 . S
C428 C420 1.378 . S
C428 C423 1.350 . S
C429 H416 0.929 . S
C429 C421 1.433 . S
C429 N431 1.384 . S
N430 C426 1.427 . S
N430 C427 1.384 . S
N431 C423 1.427 . S
N431 C429 1.384 . S
H432 C438 0.930 . S
H433 C442 0.930 . S
H434 C447 0.929 . S
H435 C445 0.929 . S
H436 C440 0.929 . S
H437 C446 0.929 . S
C438 H432 0.930 . S
C438 C439 1.367 . S
C438 C446 1.378 . S
C439 C438 1.367 . S
C439 C447 1.433 . S
C440 H436 0.929 . S
C440 C442 1.378 . S
C440 C444 1.350 . S
C441 C444 1.463 . S
C441 C446 1.350 . S
C441 N449 1.427 . S
C442 H433 0.930 . S
C442 C440 1.378 . S
C442 C443 1.367 . S
C443 C442 1.367 . S
C443 C445 1.433 . S
C444 C440 1.350 . S
C444 C441 1.463 . S
C444 N448 1.427 . S
C445 H435 0.929 . S
C445 C443 1.433 . S
C445 N448 1.384 . S
C446 H437 0.929 . S
C446 C438 1.378 . S
C446 C441 1.350 . S
C447 H434 0.929 . S
C447 C439 1.433 . S
C447 N449 1.384 . S
N448 C444 1.427 . S
N448 C445 1.384 . S
N449 C441 1.427 . S
N449 C447 1.384 . S
H450 C456 0.930 . S
H451 C460 0.930 1_655 S
H452 C465 0.929 . S
H453 C463 0.929 . S
H454 C458 0.929 1_655 S
H455 C464 0.929 . S
C456 H450 0.930 . S
C456 C457 1.367 . S
C456 C464 1.378 . S
C457 C456 1.367 . S
C457 C465 1.433 1_455 S
C458 H454 0.929 1_455 S
C458 C460 1.378 . S
C458 C462 1.350 . S
C459 C462 1.463 1_554 S
C459 C464 1.350 . S
C459 N467 1.427 1_455 S
C460 H451 0.930 1_455 S
C460 C458 1.378 . S
C460 C461 1.367 . S
C461 C460 1.367 . S
C461 C463 1.433 . S
C462 C458 1.350 . S
C462 C459 1.463 1_556 S
C462 N466 1.427 . S
C463 H453 0.929 . S
C463 C461 1.433 . S
C463 N466 1.384 . S
C464 H455 0.929 . S
C464 C456 1.378 . S
C464 C459 1.350 . S
C465 H452 0.929 . S
C465 C457 1.433 1_655 S
C465 N467 1.384 . S
N466 C462 1.427 . S
N466 C463 1.384 . S
N467 C459 1.427 1_655 S
N467 C465 1.384 . S
H468 C474 0.930 . S
H469 C478 0.930 . S
H470 C483 0.929 . S
H471 C481 0.929 1_565 S
H472 C476 0.929 . S
H473 C482 0.929 . S
C474 H468 0.930 . S
C474 C475 1.367 1_565 S
C474 C482 1.378 . S
C475 C474 1.367 1_545 S
C475 C483 1.433 . S
C476 H472 0.929 . S
C476 C478 1.378 . S
C476 C480 1.350 . S
C477 C480 1.463 . S
C477 C482 1.350 1_545 S
C477 N485 1.427 . S
C478 H469 0.930 . S
C478 C476 1.378 . S
C478 C479 1.367 . S
C479 C478 1.367 . S
C479 C481 1.433 . S
C480 C476 1.350 . S
C480 C477 1.463 . S
C480 N484 1.427 . S
C481 H471 0.929 1_545 S
C481 C479 1.433 . S
C481 N484 1.384 . S
C482 H473 0.929 . S
C482 C474 1.378 . S
C482 C477 1.350 1_565 S
C483 H470 0.929 . S
C483 C475 1.433 . S
C483 N485 1.384 . S
N484 C480 1.427 . S
N484 C481 1.384 . S
N485 C477 1.427 . S
N485 C483 1.384 . S
H486 C492 0.930 . S
H487 C496 0.930 . S
H488 C501 0.929 . S
H489 C499 0.929 . S
H490 C494 0.929 . S
H491 C500 0.929 . S
C492 H486 0.930 . S
C492 C493 1.367 . S
C492 C500 1.378 . S
C493 C492 1.367 . S
C493 C501 1.433 . S
C494 H490 0.929 . S
C494 C496 1.378 . S
C494 C498 1.350 . S
C495 C498 1.463 . S
C495 C500 1.350 . S
C495 N503 1.427 . S
C496 H487 0.930 . S
C496 C494 1.378 . S
C496 C497 1.367 . S
C497 C496 1.367 . S
C497 C499 1.433 . S
C498 C494 1.350 . S
C498 C495 1.463 . S
C498 N502 1.427 . S
C499 H489 0.929 . S
C499 C497 1.433 . S
C499 N502 1.384 . S
C500 H491 0.929 . S
C500 C492 1.378 . S
C500 C495 1.350 . S
C501 H488 0.929 . S
C501 C493 1.433 . S
C501 N503 1.384 . S
N502 C498 1.427 . S
N502 C499 1.384 . S
N503 C495 1.427 . S
N503 C501 1.384 . S
H504 C510 0.930 1_565 S
H505 C514 0.930 . S
H506 C519 0.929 . S
H507 C517 0.929 1_565 S
H508 C512 0.929 . S
H509 C518 0.929 1_565 S
C510 H504 0.930 1_545 S
C510 C511 1.367 . S
C510 C518 1.378 . S
C511 C510 1.367 . S
C511 C519 1.433 . S
C512 H508 0.929 . S
C512 C514 1.378 . S
C512 C516 1.350 . S
C513 C516 1.463 . S
C513 C518 1.350 . S
C513 N521 1.427 . S
C514 H505 0.930 . S
C514 C512 1.378 . S
C514 C515 1.367 . S
C515 C514 1.367 . S
C515 C517 1.433 . S
C516 C512 1.350 . S
C516 C513 1.463 . S
C516 N520 1.427 . S
C517 H507 0.929 1_545 S
C517 C515 1.433 . S
C517 N520 1.384 . S
C518 H509 0.929 1_545 S
C518 C510 1.378 . S
C518 C513 1.350 . S
C519 H506 0.929 . S
C519 C511 1.433 . S
C519 N521 1.384 . S
N520 C516 1.427 . S
N520 C517 1.384 . S
N521 C513 1.427 . S
N521 C519 1.384 . S
H522 C528 0.930 . S
H523 C532 0.930 . S
H524 C537 0.929 . S
H525 C535 0.929 . S
H526 C530 0.929 . S
H527 C536 0.929 . S
C528 H522 0.930 . S
C528 C529 1.367 . S
C528 C536 1.378 . S
C529 C528 1.367 . S
C529 C537 1.433 . S
C530 H526 0.929 . S
C530 C532 1.378 . S
C530 C534 1.350 . S
C531 C534 1.463 1_556 S
C531 C536 1.350 . S
C531 N539 1.427 . S
C532 H523 0.930 . S
C532 C530 1.378 . S
C532 C533 1.367 . S
C533 C532 1.367 . S
C533 C535 1.433 . S
C534 C530 1.350 . S
C534 C531 1.463 1_554 S
C534 N538 1.427 . S
C535 H525 0.929 . S
C535 C533 1.433 . S
C535 N538 1.384 . S
C536 H527 0.929 . S
C536 C528 1.378 . S
C536 C531 1.350 . S
C537 H524 0.929 . S
C537 C529 1.433 . S
C537 N539 1.384 . S
N538 C534 1.427 . S
N538 C535 1.384 . S
N539 C531 1.427 . S
N539 C537 1.384 . S
H540 C546 0.930 . S
H541 C550 0.930 . S
H542 C555 0.929 . S
H543 C553 0.929 . S
H544 C548 0.929 . S
H545 C554 0.929 . S
C546 H540 0.930 . S
C546 C547 1.367 . S
C546 C554 1.378 . S
C547 C546 1.367 . S
C547 C555 1.433 . S
C548 H544 0.929 . S
C548 C550 1.378 . S
C548 C552 1.350 . S
C549 C552 1.463 . S
C549 C554 1.350 . S
C549 N557 1.427 . S
C550 H541 0.930 . S
C550 C548 1.378 . S
C550 C551 1.367 . S
C551 C550 1.367 . S
C551 C553 1.433 . S
C552 C548 1.350 . S
C552 C549 1.463 . S
C552 N556 1.427 . S
C553 H543 0.929 . S
C553 C551 1.433 . S
C553 N556 1.384 . S
C554 H545 0.929 . S
C554 C546 1.378 . S
C554 C549 1.350 . S
C555 H542 0.929 . S
C555 C547 1.433 . S
C555 N557 1.384 . S
N556 C552 1.427 . S
N556 C553 1.384 . S
N557 C549 1.427 . S
N557 C555 1.384 . S
C241 C12 3.094 . S
C245 C226 3.006 . S
C259 C52 3.091 . S
C263 C188 3.003 . S
C277 C111 3.116 . S
C281 C207 3.027 . S
C295 C31 3.044 . S
C299 C221 2.996 . S
C317 C183 3.000 . S
C313 C71 3.049 . S
C335 C202 2.960 . S
C331 C92 3.008 . S
C349 C48 0.664 . S
C353 C150 0.690 . S
C367 C109 0.341 . S
C371 C164 0.157 . S
C385 C29 0.247 . S
C389 C126 0.169 . S
C407 C145 0.312 . S
C403 C69 0.264 . S
C425 C169 0.481 . S
C421 C88 0.345 . S
C439 C8 0.435 . S
C443 C131 0.543 . S
C461 C160 1.339 . S
C457 C17 1.310 . S
C475 C57 1.278 . S
C479 C122 1.315 . S
C493 C97 1.323 . S
C497 C141 1.332 . S
C515 C198 1.715 . S
C511 C42 1.713 . S
C533 C217 1.741 . S
C529 C82 1.725 . S
C547 C2 1.747 . S
C551 C179 1.742 . S
