# Generated by pormake.
# Topology ftw, (4,12)-cn, num edge types: 1
# Building blocks:
#     Node 0, Type 0, BuildingBlock: GIZVER_clean_linker_0, # of connection points: 4
#     Node 1, Type 0, BuildingBlock: GIZVER_clean_linker_0, # of connection points: 4
#     Node 2, Type 0, BuildingBlock: GIZVER_clean_linker_0, # of connection points: 4
#     Node 3, Type 1, BuildingBlock: QEWDON_clean_sbu_0, # of connection points: 12
#     Edge 4, Type (0, 1), BuildingBlock: FUNLAD_clean_linker_0, # of connection points: 2
#     Edge 5, Type (0, 1), BuildingBlock: FUNLAD_clean_linker_0, # of connection points: 2
#     Edge 6, Type (0, 1), BuildingBlock: FUNLAD_clean_linker_0, # of connection points: 2
#     Edge 7, Type (0, 1), BuildingBlock: FUNLAD_clean_linker_0, # of connection points: 2
#     Edge 8, Type (0, 1), BuildingBlock: FUNLAD_clean_linker_0, # of connection points: 2
#     Edge 9, Type (0, 1), BuildingBlock: FUNLAD_clean_linker_0, # of connection points: 2
#     Edge 10, Type (0, 1), BuildingBlock: FUNLAD_clean_linker_0, # of connection points: 2
#     Edge 11, Type (0, 1), BuildingBlock: FUNLAD_clean_linker_0, # of connection points: 2
#     Edge 12, Type (0, 1), BuildingBlock: FUNLAD_clean_linker_0, # of connection points: 2
#     Edge 13, Type (0, 1), BuildingBlock: FUNLAD_clean_linker_0, # of connection points: 2
#     Edge 14, Type (0, 1), BuildingBlock: FUNLAD_clean_linker_0, # of connection points: 2
#     Edge 15, Type (0, 1), BuildingBlock: FUNLAD_clean_linker_0, # of connection points: 2
# Relax obj value: 0.120
# Max RMSD: 0.266
# Mean RMSD: 0.216
data_MOF--net-ftw--node1-QEWDON_clean_sbu_0--node2-GIZVER_clean_linker_0--edge1-FUNLAD_clean_linker_0
_symmetry_space_group_name_H-M    P1
_symmetry_Int_Tables_number       1
_symmetry_cell_setting            triclinic
loop_
_symmetry_equiv_pos_as_xyz
'x, y, z'
_cell_length_a     29.63913
_cell_length_b     27.918211
_cell_length_c     27.182175
_cell_angle_alpha  89.70578
_cell_angle_beta   89.826354
_cell_angle_gamma 90.055241
loop_
_atom_site_label
_atom_site_type_symbol
_atom_site_fract_x
_atom_site_fract_y
_atom_site_fract_z
_atom_type_partial_charge
H0 H 0.91899 0.44976 0.43083 0.0
H1 H 0.93296 0.43816 0.58748 0.0
H2 H 0.00611 0.34224 0.49303 0.0
H3 H 0.86381 0.48742 0.4857 0.0
H4 H 0.86932 0.48228 0.55108 0.0
H5 H 0.91331 0.54356 0.43833 0.0
H6 H 0.97691 0.65658 0.51942 0.0
H7 H 0.91765 0.53698 0.59647 0.0
C8 C 0.93422 0.43254 0.46249 0.0
C9 C 0.96407 0.39397 0.45593 0.0
C10 C 0.92296 0.44852 0.5098 0.0
C11 C 0.94261 0.42648 0.55097 0.0
C12 C 0.97282 0.38812 0.54527 0.0
C13 C 0.98364 0.37248 0.49758 0.0
C14 C 0.88864 0.48781 0.51634 0.0
C15 C 0.91199 0.53567 0.51738 0.0
C16 C 0.92279 0.55934 0.47316 0.0
C17 C 0.94676 0.60264 0.47376 0.0
C18 C 0.95946 0.62243 0.51896 0.0
C19 C 0.94881 0.59932 0.56349 0.0
C20 C 0.92524 0.5557 0.5624 0.0
H21 H 0.47326 0.05191 0.41126 0.0
H22 H 0.46201 0.07451 0.56675 0.0
H23 H 0.35285 0.00833 0.48851 0.0
H24 H 0.51344 0.11938 0.45381 0.0
H25 H 0.51407 0.12196 0.51917 0.0
H26 H 0.56408 0.06685 0.40937 0.0
H27 H 0.67564 0.0085 0.49044 0.0
H28 H 0.56061 0.06508 0.56766 0.0
C29 C 0.45439 0.0474 0.44517 0.0
C30 C 0.41126 0.02618 0.44449 0.0
C31 C 0.47249 0.06546 0.48902 0.0
C32 C 0.44811 0.06021 0.53303 0.0
C33 C 0.405 0.03917 0.53333 0.0
C34 C 0.3871 0.02191 0.48896 0.0
C35 C 0.51407 0.09671 0.48761 0.0
C36 C 0.5571 0.06792 0.48843 0.0
C37 C 0.57933 0.05694 0.44416 0.0
C38 C 0.62243 0.03621 0.44472 0.0
C39 C 0.64256 0.02504 0.49 0.0
C40 C 0.62054 0.03494 0.53463 0.0
C41 C 0.57742 0.05587 0.53352 0.0
H42 H 0.53586 0.38967 0.12414 0.0
H43 H 0.5867 0.53407 0.12412 0.0
H44 H 0.65269 0.42631 0.0375 0.0
H45 H 0.51151 0.44601 0.18728 0.0
H46 H 0.53593 0.50445 0.19058 0.0
H47 H 0.45007 0.42915 0.12706 0.0
H48 H 0.37167 0.55098 0.08163 0.0
H49 H 0.50168 0.57208 0.14764 0.0
C50 C 0.55973 0.41616 0.11073 0.0
C51 C 0.59398 0.40252 0.07783 0.0
C52 C 0.55681 0.46368 0.12728 0.0
C53 C 0.58853 0.49758 0.11081 0.0
C54 C 0.62302 0.4844 0.07806 0.0
C55 C 0.62506 0.43704 0.06123 0.0
C56 C 0.52168 0.47764 0.16474 0.0
C57 C 0.48061 0.49824 0.13985 0.0
C58 C 0.44635 0.46759 0.12299 0.0
C59 C 0.40719 0.48643 0.10139 0.0
C60 C 0.40242 0.53615 0.09698 0.0
C61 C 0.43618 0.56712 0.11378 0.0
C62 C 0.4757 0.54813 0.13429 0.0
Zn63 Zn 0.09108 0.11614 0.95783 0.0
Zn64 Zn 0.07527 0.10233 0.07426 0.0
O65 O 0.08603 0.06611 0.01212 0.0
H66 H 0.08258 0.032 0.00768 0.0
C67 C 0.98941 0.12687 0.89507 0.0
O68 O 0.99294 0.14393 0.93986 0.0
Zn69 Zn 0.94871 0.88126 0.06472 0.0
Zn70 Zn 0.92974 0.87409 0.94752 0.0
O71 O 0.94679 0.91965 0.00231 0.0
H72 H 0.95981 0.95106 0.9976 0.0
Zn73 Zn 0.9308 0.0591 0.94623 0.0
O74 O 0.96607 0.0503 0.00919 0.0
Zn75 Zn 0.92015 0.04823 0.06277 0.0
H76 H 0.99571 0.03597 0.01092 0.0
Zn77 Zn 0.12807 0.91243 0.97198 0.0
O78 O 0.07795 0.9266 0.02047 0.0
H79 H 0.0483 0.93835 0.01196 0.0
Zn80 Zn 0.1075 0.9331 0.08557 0.0
C81 C 0.0733 0.8503 0.91099 0.0
O82 O 0.04858 0.8501 0.9512 0.0
O83 O 0.10683 0.18287 0.98527 0.0
O84 O 0.09292 0.17214 0.06506 0.0
O85 O 0.91223 0.80684 0.97252 0.0
O86 O 0.9302 0.81192 0.05178 0.0
O87 O 0.86477 0.08065 0.95719 0.0
O88 O 0.85939 0.07217 0.03836 0.0
C89 C 0.12509 0.03128 0.12927 0.0
O90 O 0.189 0.89596 0.0047 0.0
O91 O 0.17298 0.91126 0.08306 0.0
O92 O 0.89567 0.90071 0.88643 0.0
C93 C 0.10567 0.19865 0.02919 0.0
O94 O 0.12393 0.09687 0.89319 0.0
C95 C 0.89403 0.95239 0.11262 0.0
O96 O 0.96515 0.09001 0.88786 0.0
C97 C 0.91518 0.78814 0.01527 0.0
O98 O 0.10958 0.87461 0.90999 0.0
C99 C 0.98015 0.10784 0.12111 0.0
O100 O 0.11668 0.07575 0.12619 0.0
O101 O 0.10309 0.00293 0.10187 0.0
C102 C 0.84214 0.08373 0.99701 0.0
O103 O 0.90262 0.90789 0.11214 0.0
O104 O 0.91653 0.9792 0.08362 0.0
C105 C 0.03425 0.87646 0.13022 0.0
O106 O 0.94011 0.09198 0.1174 0.0
O107 O 0.00966 0.09231 0.09115 0.0
C108 C 0.20058 0.89761 0.0498 0.0
O109 O 0.07452 0.89158 0.13482 0.0
O110 O 0.01192 0.88951 0.09246 0.0
C111 C 0.85897 0.92376 0.89147 0.0
O112 O 0.84323 0.93144 0.93598 0.0
C113 C 0.14135 0.05563 0.88762 0.0
O114 O 0.13715 0.02367 0.92299 0.0
C115 C 0.01349 0.35385 0.39262 0.0
C116 C 0.97136 0.37296 0.40631 0.0
C117 C 0.01847 0.3288 0.34843 0.0
C118 C 0.98133 0.32257 0.31698 0.0
C119 C 0.94007 0.34403 0.32939 0.0
C120 C 0.935 0.36857 0.37358 0.0
C121 C 0.98263 0.29183 0.27256 0.0
C122 C 0.01229 0.25592 0.26536 0.0
C123 C 1.00459 0.21889 0.22726 0.0
C124 C 0.04121 0.19624 0.20416 0.0
C125 C 0.03384 0.16005 0.16945 0.0
C126 C 0.98973 0.14547 0.1579 0.0
H127 H 0.93155 0.21873 0.23471 0.0
C128 C 0.95332 0.1676 0.18199 0.0
C129 C 0.9606 0.20365 0.21619 0.0
H130 H 0.91882 0.15715 0.17449 0.0
H131 H 0.04249 0.35754 0.41644 0.0
H132 H 0.05121 0.31409 0.33953 0.0
H133 H 0.91089 0.33996 0.30583 0.0
H134 H 0.90189 0.38216 0.38299 0.0
H135 H 0.95485 0.29596 0.24685 0.0
H136 H 0.04121 0.25143 0.2893 0.0
H137 H 0.07548 0.2067 0.2128 0.0
H138 H 0.06258 0.14332 0.15228 0.0
C139 C 0.69288 0.04381 0.39444 0.0
C140 C 0.64782 0.02857 0.39834 0.0
C141 C 0.71781 0.03506 0.35177 0.0
C142 C 0.6982 0.01072 0.31201 0.0
C143 C 0.653 -0.00413 0.31575 0.0
C144 C 0.62784 0.00517 0.35831 0.0
C145 C 0.72528 -0.00338 0.26836 0.0
C146 C 0.76163 0.02139 0.25249 0.0
C147 C 0.79264 0.00342 0.21374 0.0
C148 C 0.81813 0.03611 0.18573 0.0
C149 C 0.85031 0.0199 0.15187 0.0
C150 C 0.85833 0.9707 0.14602 0.0
H151 H 0.78199 0.92778 0.22906 0.0
C152 C 0.83237 0.93804 0.17381 0.0
C153 C 0.79997 0.95413 0.20719 0.0
H154 H 0.83752 0.89979 0.17045 0.0
H155 H 0.70902 0.06223 0.42466 0.0
H156 H 0.75287 0.04592 0.35088 0.0
H157 H 0.63726 0.97657 0.28587 0.0
H158 H 0.59322 0.99284 0.36051 0.0
H159 H 0.71496 0.9645 0.24897 0.0
H160 H 0.76931 0.05598 0.26859 0.0
H161 H 0.81341 0.07431 0.19033 0.0
H162 H 0.86926 0.04599 0.13113 0.0
C163 C 0.92674 0.63722 0.39126 0.0
C164 C 0.95923 0.62745 0.42746 0.0
C165 C 0.93823 0.66411 0.34944 0.0
C166 C 0.98258 0.68125 0.34311 0.0
C167 C 0.0153 0.66954 0.37837 0.0
C168 C 1.00371 0.64329 0.42028 0.0
C169 C 0.99641 0.71193 0.301 0.0
C170 C 0.96832 0.74166 0.27671 0.0
C171 C 0.98497 0.77681 0.23964 0.0
C172 C 0.95645 0.7921 0.20155 0.0
C173 C 0.97178 0.82505 0.16621 0.0
C174 C 0.01578 0.84362 0.16844 0.0
H175 H 0.05077 0.7878 0.27299 0.0
C176 C 0.04362 0.82947 0.20773 0.0
C177 C 0.02842 0.79677 0.24293 0.0
H178 H 0.07755 0.84345 0.21139 0.0
H179 H 0.89223 0.6252 0.39598 0.0
H180 H 0.91241 0.6713 0.32236 0.0
H181 H 0.04978 0.68187 0.37416 0.0
H182 H 0.02951 0.63566 0.44737 0.0
H183 H 0.03213 0.71217 0.29194 0.0
H184 H 0.93241 0.74125 0.28463 0.0
H185 H 0.92247 0.77805 0.19873 0.0
H186 H 0.94919 0.83557 0.13732 0.0
C187 C 0.35879 0.97531 0.39345 0.0
C188 C 0.38883 0.01427 0.39698 0.0
C189 C 0.33311 0.96834 0.35086 0.0
C190 C 0.33714 0.00016 0.31075 0.0
C191 C 0.36912 0.03718 0.31323 0.0
C192 C 0.39435 0.04443 0.35581 0.0
C193 C 0.30715 -0.00138 0.26695 0.0
C194 C 0.26553 0.97893 0.26672 0.0
C195 C 0.232 0.99006 0.22759 0.0
C196 C 0.19694 0.95765 0.21733 0.0
C197 C 0.16268 0.96989 0.18398 0.0
C198 C 0.16249 0.01516 0.16122 0.0
H199 H 0.2572 0.06181 0.21208 0.0
C200 C 0.1977 0.04729 0.17132 0.0
C201 C 0.23195 0.03499 0.20395 0.0
H202 H 0.19846 0.08256 0.15451 0.0
H203 H 0.3544 0.9507 0.42402 0.0
H204 H 0.30989 0.93846 0.34992 0.0
H205 H 0.37312 0.0622 0.2829 0.0
H206 H 0.41653 0.07523 0.3571 0.0
H207 H 0.3181 0.01917 0.23503 0.0
H208 H 0.25409 0.95708 0.29742 0.0
H209 H 0.19574 0.9231 0.23561 0.0
H210 H 0.13563 0.94474 0.17748 0.0
C211 C 1.00488 0.64248 0.61583 0.0
C212 C 0.96208 0.62145 0.61079 0.0
C213 C 0.01633 0.66683 0.6587 0.0
C214 C 0.98502 0.671 0.69745 0.0
C215 C 0.94304 0.64805 0.69338 0.0
C216 C 0.93155 0.62365 0.65038 0.0
C217 C 0.99527 0.69884 0.74246 0.0
C218 C 0.02321 0.73697 0.74202 0.0
C219 C 0.03465 0.76569 0.78613 0.0
C220 C 0.07388 0.79389 0.78472 0.0
C221 C 0.08633 0.82149 0.82513 0.0
C222 C 0.05958 0.82179 0.86786 0.0
H223 H 0.97611 0.74672 0.83078 0.0
C224 C 0.01981 0.79434 0.86908 0.0
C225 C 0.00737 0.76662 0.82862 0.0
H226 H 0.99819 0.79422 0.90129 0.0
H227 H 0.02956 0.64024 0.58645 0.0
H228 H 0.04979 0.68211 0.6613 0.0
H229 H 0.91856 0.65018 0.72298 0.0
H230 H 0.89827 0.60786 0.64754 0.0
H231 H 0.97834 0.68806 0.77618 0.0
H232 H 0.03925 0.74768 0.70772 0.0
H233 H 0.0953 0.79425 0.75234 0.0
H234 H 0.11706 0.84244 0.82287 0.0
C235 C 0.34765 0.00205 0.59066 0.0
C236 C 0.37641 0.04044 0.57843 0.0
C237 C 0.31792 0.0053 0.63064 0.0
C238 C 0.31649 0.04708 0.65947 0.0
C239 C 0.34583 0.08497 0.64765 0.0
C240 C 0.37538 0.08175 0.60776 0.0
C241 C 0.28362 0.05413 0.70035 0.0
C242 C 0.25977 0.01878 0.72225 0.0
C243 C 0.22739 0.02806 0.76304 0.0
C244 C 0.21962 0.99227 0.79854 0.0
C245 C 0.19093 0.00076 0.83852 0.0
C246 C 0.16903 0.04515 0.84352 0.0
H247 H 0.20761 0.09951 0.73932 0.0
C248 C 0.17527 0.08021 0.80683 0.0
C249 C 0.20399 0.07174 0.76698 0.0
H250 H 0.1584 0.11453 0.80914 0.0
H251 H 0.34769 0.96968 0.56887 0.0
H252 H 0.29543 0.97553 0.63766 0.0
H253 H 0.34536 0.11772 0.66888 0.0
H254 H 0.3963 0.11246 0.59891 0.0
H255 H 0.28004 0.09044 0.71397 0.0
H256 H 0.26571 0.98174 0.71232 0.0
H257 H 0.23666 0.95804 0.796 0.0
H258 H 0.18656 0.97281 0.86591 0.0
C259 C 0.991 0.31137 0.58903 0.0
C260 C 0.9899 0.36169 0.58903 0.0
C261 C 1.00364 0.28597 0.63108 0.0
C262 C 0.01567 0.31029 0.67435 0.0
C263 C 0.01527 0.3606 0.67416 0.0
C264 C 1.00274 0.38608 0.6319 0.0
C265 C 0.02346 0.28432 0.72144 0.0
C266 C 0.03604 0.23797 0.72376 0.0
C267 C 0.03161 0.20865 0.76921 0.0
C268 C 0.02046 0.16004 0.76445 0.0
C269 C 0.00866 0.13278 0.8057 0.0
C270 C 0.00852 0.15343 0.8527 0.0
H271 H 0.0448 0.26532 0.82178 0.0
C272 C 0.0234 0.20095 0.85801 0.0
C273 C 0.03472 0.22843 0.8166 0.0
H274 H 0.02437 0.21763 0.89388 0.0
H275 H 0.98017 0.29136 0.55713 0.0
H276 H 1.00164 0.24731 0.62998 0.0
H277 H 0.02388 0.38025 0.70711 0.0
H278 H 1.00254 0.42486 0.63301 0.0
H279 H 0.01506 0.30332 0.75499 0.0
H280 H 0.04472 0.21915 0.6902 0.0
H281 H 0.01841 0.14375 0.72843 0.0
H282 H 0.9981 0.096 0.80051 0.0
C283 C 0.68982 0.03753 0.58716 0.0
C284 C 0.64397 0.02566 0.58202 0.0
C285 C 0.71277 0.02742 0.63075 0.0
C286 C 0.6905 0.00472 0.6703 0.0
C287 C 0.64427 0.99437 0.66582 0.0
C288 C 0.62122 0.00464 0.6221 0.0
C289 C 0.71438 0.99193 0.71669 0.0
C290 C 0.75915 0.98333 0.71848 0.0
C291 C 0.78378 0.96885 0.76382 0.0
C292 C 0.82551 0.94558 0.75875 0.0
C293 C 0.85001 0.93124 0.8001 0.0
C294 C 0.8335 0.94019 0.84768 0.0
H295 H 0.73629 -0.0022 0.81708 0.0
C296 C 0.79216 0.96436 0.85291 0.0
C297 C 0.76756 0.97863 0.81147 0.0
H298 H 0.77869 0.97225 0.88906 0.0
H299 H 0.70799 0.05506 0.55746 0.0
H300 H 0.74781 0.03796 0.63333 0.0
H301 H 0.62611 0.97744 0.69588 0.0
H302 H 0.58588 -0.00484 0.61929 0.0
H303 H 0.69388 0.9867 0.74944 0.0
H304 H 0.77865 0.98425 0.68462 0.0
H305 H 0.83909 0.93799 0.72256 0.0
H306 H 0.88181 0.91291 0.79468 0.0
C307 C 0.35176 0.42071 0.11832 0.0
C308 C 0.36986 0.45484 0.08569 0.0
C309 C 0.31409 0.39364 0.10493 0.0
C310 C 0.29411 0.4 0.05844 0.0
C311 C 0.31319 0.43299 0.02529 0.0
C312 C 0.35039 0.4606 0.03898 0.0
C313 C 0.25489 0.37092 0.04271 0.0
C314 C 0.22227 0.35657 0.07418 0.0
C315 C 0.1859 0.32215 0.06108 0.0
C316 C 0.16407 0.2971 0.09924 0.0
C317 C 0.13491 0.25916 0.08887 0.0
C318 C 0.12692 0.24548 0.03994 0.0
H319 H 0.18864 0.3313 0.98148 0.0
C320 C 0.14537 0.27345 0.00169 0.0
C321 C 0.17442 0.3115 0.01209 0.0
H322 H 0.13922 0.26451 0.96356 0.0
H323 H 0.36611 0.41575 0.15459 0.0
H324 H 0.30109 0.36737 0.13076 0.0
H325 H 0.29883 0.43795 0.98901 0.0
H326 H 0.36396 0.48654 0.01309 0.0
H327 H 0.25374 0.36096 0.00425 0.0
H328 H 0.22404 0.3679 0.11233 0.0
H329 H 0.1715 0.3051 0.13734 0.0
H330 H 0.12087 0.23882 0.11933 0.0
C331 C 0.39065 0.63738 0.13868 0.0
C332 C 0.4277 0.61915 0.11272 0.0
C333 C 0.37722 0.68479 0.13211 0.0
C334 C 0.4006 0.71508 0.09918 0.0
C335 C 0.4389 0.69722 0.07472 0.0
C336 C 0.45263 0.64965 0.08177 0.0
C337 C 0.38158 0.76227 0.08436 0.0
C338 C 0.35293 0.78706 0.11323 0.0
C339 C 0.32086 0.82403 0.09484 0.0
C340 C 0.29466 0.849 0.12938 0.0
C341 C 0.25719 0.87569 0.11451 0.0
C342 C 0.245 0.87794 0.06461 0.0
H343 H 0.32941 0.81067 0.01641 0.0
C344 C 0.2733 0.85624 0.02964 0.0
C345 C 0.31069 0.82943 0.0445 0.0
H346 H 0.26513 0.8575 0.99083 0.0
H347 H 0.37081 0.61421 0.16246 0.0
H348 H 0.34676 0.69635 0.15055 0.0
H349 H 0.45715 0.71953 0.0487 0.0
H350 H 0.4811 0.63599 0.06107 0.0
H351 H 0.38886 0.77458 0.04727 0.0
H352 H 0.3496 0.77678 0.15168 0.0
H353 H 0.3016 0.84566 0.16837 0.0
H354 H 0.23645 0.89232 0.14245 0.0
C355 C 0.61146 0.33883 0.01603 0.0
C356 C 0.60093 0.35157 0.06463 0.0
C357 C 0.62643 0.29263 0.00512 0.0
C358 C 0.63192 0.25838 0.04291 0.0
C359 C 0.61771 0.27012 0.09072 0.0
C360 C 0.60242 0.31624 0.10154 0.0
C361 C 0.65611 0.21218 0.03547 0.0
C362 C 0.68551 0.20481 0.99828 0.0
C363 C 0.71951 0.16561 0.99759 0.0
C364 C 0.74177 0.15564 0.95313 0.0
C365 C 0.77994 0.1263 0.95231 0.0
C366 C 0.797 0.10659 0.99615 0.0
H367 H 0.71936 0.15038 0.07628 0.0
C368 C 0.77298 0.11387 0.04018 0.0
C369 C 0.73476 0.14316 0.04099 0.0
H370 H 0.78505 0.0991 0.07465 0.0
H371 H 0.60966 0.36519 0.9867 0.0
H372 H 0.63485 0.28468 0.96732 0.0
H373 H 0.621 0.24442 0.12051 0.0
H374 H 0.59457 0.32503 0.13937 0.0
H375 H 0.65328 0.18566 0.06465 0.0
H376 H 0.68811 0.23078 0.96863 0.0
H377 H 0.73088 0.17245 0.91917 0.0
H378 H 0.79739 0.12124 0.91766 0.0
C379 C 0.68066 0.54608 0.10058 0.0
C380 C 0.65913 0.51877 0.06428 0.0
C381 C 0.71669 0.57618 0.08826 0.0
C382 C 0.73188 0.57962 0.03926 0.0
C383 C 0.70956 0.55327 0.00283 0.0
C384 C 0.67382 0.52277 0.01524 0.0
C385 C 0.76915 0.61232 0.02465 0.0
C386 C 0.80352 0.62373 0.05484 0.0
C387 C 0.83788 0.66089 0.04282 0.0
C388 C 0.85989 0.68417 0.08165 0.0
C389 C 0.88771 0.72369 0.07253 0.0
C390 C 0.89425 0.74065 0.02423 0.0
H391 H 0.83312 0.65693 0.96306 0.0
C392 C 0.87534 0.71482 0.98507 0.0
C393 C 0.84759 0.67526 0.99421 0.0
H394 H 0.88036 0.72633 0.94733 0.0
H395 H 0.67019 0.5435 0.13872 0.0
H396 H 0.73204 0.59717 0.1171 0.0
H397 H 0.72014 0.55588 0.96471 0.0
H398 H 0.65759 0.50236 0.98647 0.0
H399 H 0.76736 0.62776 0.98801 0.0
H400 H 0.80495 0.60762 0.09126 0.0
H401 H 0.85372 0.67334 0.11942 0.0
H402 H 0.90206 0.74241 0.10361 0.0
loop_
_geom_bond_atom_site_label_1
_geom_bond_atom_site_label_2
_geom_bond_distance
_geom_bond_site_symmetry_2
_ccdc_geom_bond_type
H0 C8 0.930 . S
H1 C11 0.930 . S
H2 C13 0.930 . S
H3 C14 0.970 . S
H4 C14 0.970 . S
H5 C16 0.930 . S
H6 C18 0.930 . S
H7 C20 0.930 . S
C8 H0 0.930 . S
C8 C9 1.382 . S
C8 C10 1.426 . S
C9 C8 1.382 . S
C9 C13 1.389 1_655 S
C10 C8 1.426 . S
C10 C11 1.375 . S
C10 C14 1.532 . S
C11 H1 0.930 . S
C11 C10 1.375 . S
C11 C12 1.416 . S
C12 C11 1.416 . S
C12 C13 1.371 1_655 S
C13 H2 0.930 . S
C13 C9 1.389 1_455 S
C13 C12 1.371 1_455 S
C14 H3 0.970 . S
C14 H4 0.970 . S
C14 C10 1.532 . S
C14 C15 1.499 . S
C15 C14 1.499 . S
C15 C16 1.370 . S
C15 C20 1.415 . S
C16 H5 0.930 . S
C16 C15 1.370 . S
C16 C17 1.407 . S
C17 C16 1.407 . S
C17 C18 1.365 1_655 S
C18 H6 0.930 . S
C18 C17 1.365 1_455 S
C18 C19 1.393 1_455 S
C19 C18 1.393 1_655 S
C19 C20 1.387 . S
C20 H7 0.930 . S
C20 C15 1.415 . S
C20 C19 1.387 . S
H21 C29 0.930 . S
H22 C32 0.930 . S
H23 C34 0.930 . S
H24 C35 0.970 . S
H25 C35 0.970 . S
H26 C37 0.930 . S
H27 C39 0.930 . S
H28 C41 0.930 . S
C29 H21 0.930 . S
C29 C30 1.382 . S
C29 C31 1.426 . S
C30 C29 1.382 . S
C30 C34 1.389 1_545 S
C31 C29 1.426 . S
C31 C32 1.375 . S
C31 C35 1.532 . S
C32 H22 0.930 . S
C32 C31 1.375 . S
C32 C33 1.416 . S
C33 C32 1.416 . S
C33 C34 1.371 1_545 S
C34 H23 0.930 . S
C34 C30 1.389 1_565 S
C34 C33 1.371 1_565 S
C35 H24 0.970 . S
C35 H25 0.970 . S
C35 C31 1.532 . S
C35 C36 1.499 . S
C36 C35 1.499 . S
C36 C37 1.370 . S
C36 C41 1.415 . S
C37 H26 0.930 . S
C37 C36 1.370 . S
C37 C38 1.407 . S
C38 C37 1.407 . S
C38 C39 1.365 1_545 S
C39 H27 0.930 . S
C39 C38 1.365 1_565 S
C39 C40 1.393 1_565 S
C40 C39 1.393 1_545 S
C40 C41 1.387 . S
C41 H28 0.930 . S
C41 C36 1.415 . S
C41 C40 1.387 . S
H42 C50 0.930 . S
H43 C53 0.930 . S
H44 C55 0.930 1_556 S
H45 C56 0.970 . S
H46 C56 0.970 . S
H47 C58 0.930 . S
H48 C60 0.930 1_556 S
H49 C62 0.930 . S
C50 H42 0.930 . S
C50 C51 1.382 . S
C50 C52 1.426 . S
C51 C50 1.382 . S
C51 C55 1.389 . S
C52 C50 1.426 . S
C52 C53 1.375 . S
C52 C56 1.532 . S
C53 H43 0.930 . S
C53 C52 1.375 . S
C53 C54 1.416 . S
C54 C53 1.416 . S
C54 C55 1.371 . S
C55 H44 0.930 1_554 S
C55 C51 1.389 . S
C55 C54 1.371 . S
C56 H45 0.970 . S
C56 H46 0.970 . S
C56 C52 1.532 . S
C56 C57 1.499 . S
C57 C56 1.499 . S
C57 C58 1.370 . S
C57 C62 1.415 . S
C58 H47 0.930 . S
C58 C57 1.370 . S
C58 C59 1.407 . S
C59 C58 1.407 . S
C59 C60 1.365 . S
C60 H48 0.930 1_554 S
C60 C59 1.365 . S
C60 C61 1.393 . S
C61 C60 1.393 . S
C61 C62 1.387 . S
C62 H49 0.930 . S
C62 C57 1.415 . S
C62 C61 1.387 . S
Zn63 O65 1.933 1_556 S
Zn63 O83 1.985 . S
Zn63 O94 1.955 . S
Zn64 O65 1.911 . S
Zn64 O84 1.970 . S
Zn64 O100 1.945 . S
Zn64 O107 1.981 . S
O65 Zn63 1.933 1_554 S
O65 Zn64 1.911 . S
O65 H66 0.841 . S
H66 O65 0.841 . S
C67 O68 1.246 . S
C67 O96 1.276 1_455 S
O68 C67 1.246 . S
Zn69 O71 1.911 . S
Zn69 O86 1.970 . S
Zn69 O103 1.945 . S
Zn69 O110 1.981 . S
Zn70 O71 1.933 1_556 S
Zn70 O85 1.985 . S
Zn70 O92 1.955 . S
O71 Zn69 1.911 . S
O71 Zn70 1.933 1_554 S
O71 H72 0.841 . S
H72 O71 0.841 . S
Zn73 O74 1.933 1_556 S
Zn73 O87 1.985 . S
Zn73 O96 1.955 . S
O74 Zn73 1.933 1_554 S
O74 Zn75 1.911 . S
O74 H76 0.841 . S
Zn75 O74 1.911 . S
Zn75 O88 1.970 . S
Zn75 O104 1.981 . S
Zn75 O106 1.945 . S
H76 O74 0.841 . S
Zn77 O78 1.933 1_556 S
Zn77 O90 1.985 . S
Zn77 O98 1.955 . S
O78 Zn77 1.933 1_554 S
O78 H79 0.841 . S
O78 Zn80 1.911 . S
H79 O78 0.841 . S
Zn80 O78 1.911 . S
Zn80 O91 1.970 . S
Zn80 O101 1.981 . S
Zn80 O109 1.945 . S
C81 O82 1.246 . S
C81 O98 1.276 1_655 S
O82 C81 1.246 . S
O83 Zn63 1.985 . S
O83 C93 1.245 1_556 S
O84 Zn64 1.970 . S
O84 C93 1.263 . S
O85 Zn70 1.985 . S
O85 C97 1.245 1_556 S
O86 Zn69 1.970 . S
O86 C97 1.263 . S
O87 Zn73 1.985 . S
O87 C102 1.245 1_556 S
O88 Zn75 1.970 . S
O88 C102 1.263 . S
C89 O100 1.281 . S
C89 O101 1.234 1_545 S
O90 Zn77 1.985 . S
O90 C108 1.245 1_556 S
O91 Zn80 1.970 . S
O91 C108 1.263 . S
O92 Zn70 1.955 . S
O92 C111 1.276 1_565 S
C93 O83 1.245 1_554 S
C93 O84 1.263 . S
O94 Zn63 1.955 . S
O94 C113 1.276 1_545 S
C95 O103 1.272 . S
C95 O104 1.240 1_565 S
O96 C67 1.276 1_655 S
O96 Zn73 1.955 . S
C97 O85 1.245 1_554 S
C97 O86 1.263 . S
O98 Zn77 1.955 . S
O98 C81 1.276 1_455 S
C99 O106 1.260 . S
C99 O107 1.246 1_655 S
O100 Zn64 1.945 . S
O100 C89 1.281 . S
O101 Zn80 1.981 . S
O101 C89 1.234 1_565 S
C102 O87 1.245 1_554 S
C102 O88 1.263 . S
O103 Zn69 1.945 . S
O103 C95 1.272 . S
O104 Zn75 1.981 . S
O104 C95 1.240 1_545 S
C105 O109 1.265 . S
C105 O110 1.243 1_455 S
O106 Zn75 1.945 . S
O106 C99 1.260 . S
O107 Zn64 1.981 . S
O107 C99 1.246 1_455 S
C108 O90 1.245 1_554 S
C108 O91 1.263 . S
O109 Zn80 1.945 . S
O109 C105 1.265 . S
O110 Zn69 1.981 . S
O110 C105 1.243 1_655 S
C111 O92 1.276 1_545 S
C111 O112 1.246 . S
O112 C111 1.246 . S
C113 O94 1.276 1_565 S
C113 O114 1.246 . S
O114 C113 1.246 . S
C115 C116 1.386 1_455 S
C115 C117 1.383 . S
C115 H131 0.951 . S
C116 C115 1.386 1_655 S
C116 C120 1.383 . S
C117 C115 1.383 . S
C117 C118 1.402 1_455 S
C117 H132 0.951 . S
C118 C117 1.402 1_655 S
C118 C119 1.375 . S
C118 C121 1.481 . S
C119 C118 1.375 . S
C119 C120 1.367 . S
C119 H133 0.951 . S
C120 C116 1.383 . S
C120 C119 1.367 . S
C120 H134 0.950 . S
C121 C118 1.481 . S
C121 C122 1.297 1_655 S
C121 H135 0.950 . S
C122 C121 1.297 1_455 S
C122 C123 1.479 . S
C122 H136 0.950 . S
C123 C122 1.479 . S
C123 C124 1.375 . S
C123 C129 1.404 1_455 S
C124 C123 1.375 . S
C124 C125 1.369 . S
C124 H137 0.950 . S
C125 C124 1.369 . S
C125 C126 1.392 . S
C125 H138 0.951 . S
C126 C125 1.392 . S
C126 C128 1.384 1_455 S
H127 C129 0.949 . S
C128 C126 1.384 1_655 S
C128 C129 1.385 . S
C128 H130 0.950 . S
C129 C123 1.404 1_655 S
C129 H127 0.949 . S
C129 C128 1.385 . S
H130 C128 0.950 . S
H131 C115 0.951 . S
H132 C117 0.951 . S
H133 C119 0.951 . S
H134 C120 0.950 . S
H135 C121 0.950 . S
H136 C122 0.950 . S
H137 C124 0.950 . S
H138 C125 0.951 . S
C139 C140 1.387 . S
C139 C141 1.384 . S
C139 H155 0.948 1_565 S
C140 C139 1.387 . S
C140 C144 1.383 . S
C141 C139 1.384 . S
C141 C142 1.402 . S
C141 H156 0.952 . S
C142 C141 1.402 . S
C142 C143 1.375 . S
C142 C145 1.481 . S
C143 C142 1.375 . S
C143 C144 1.367 . S
C143 H157 0.951 . S
C144 C140 1.383 . S
C144 C143 1.367 . S
C144 H158 0.950 . S
C145 C142 1.481 . S
C145 C146 1.297 . S
C145 H159 0.950 . S
C146 C145 1.297 . S
C146 C147 1.479 . S
C146 H160 0.950 . S
C147 C146 1.479 . S
C147 C148 1.375 . S
C147 C153 1.404 . S
C148 C147 1.375 . S
C148 C149 1.369 1_565 S
C148 H161 0.950 1_565 S
C149 C148 1.369 1_545 S
C149 C150 1.392 . S
C149 H162 0.951 . S
C150 C149 1.392 . S
C150 C152 1.384 1_545 S
H151 C153 0.949 . S
C152 C150 1.384 1_565 S
C152 C153 1.385 . S
C152 H154 0.950 . S
C153 C147 1.404 . S
C153 H151 0.949 . S
C153 C152 1.385 . S
H154 C152 0.950 . S
H155 C139 0.948 1_545 S
H156 C141 0.952 . S
H157 C143 0.951 . S
H158 C144 0.950 . S
H159 C145 0.950 . S
H160 C146 0.950 . S
H161 C148 0.950 1_545 S
H162 C149 0.951 . S
C163 C164 1.386 1_655 S
C163 C165 1.383 . S
C163 H179 0.951 . S
C164 C163 1.386 1_455 S
C164 C168 1.383 . S
C165 C163 1.383 . S
C165 C166 1.402 1_655 S
C165 H180 0.951 . S
C166 C165 1.402 1_455 S
C166 C167 1.375 . S
C166 C169 1.481 . S
C167 C166 1.375 . S
C167 C168 1.367 . S
C167 H181 0.951 . S
C168 C164 1.383 . S
C168 C167 1.367 . S
C168 H182 0.950 . S
C169 C166 1.481 . S
C169 C170 1.297 1_455 S
C169 H183 0.950 . S
C170 C169 1.297 1_655 S
C170 C171 1.479 . S
C170 H184 0.950 . S
C171 C170 1.479 . S
C171 C172 1.375 . S
C171 C177 1.404 1_655 S
C172 C171 1.375 . S
C172 C173 1.369 . S
C172 H185 0.950 . S
C173 C172 1.369 . S
C173 C174 1.392 . S
C173 H186 0.951 . S
C174 C173 1.392 . S
C174 C176 1.384 1_655 S
H175 C177 0.949 . S
C176 C174 1.384 1_455 S
C176 C177 1.385 . S
C176 H178 0.950 . S
C177 C171 1.404 1_455 S
C177 H175 0.949 . S
C177 C176 1.385 . S
H178 C176 0.950 . S
H179 C163 0.951 . S
H180 C165 0.951 . S
H181 C167 0.951 . S
H182 C168 0.950 . S
H183 C169 0.950 . S
H184 C170 0.950 . S
H185 C172 0.950 . S
H186 C173 0.951 . S
C187 C188 1.386 1_565 S
C187 C189 1.383 . S
C187 H203 0.951 . S
C188 C187 1.386 1_545 S
C188 C192 1.383 . S
C189 C187 1.383 . S
C189 C190 1.402 1_565 S
C189 H204 0.951 . S
C190 C189 1.402 1_545 S
C190 C191 1.375 . S
C190 C193 1.481 . S
C191 C190 1.375 . S
C191 C192 1.367 . S
C191 H205 0.951 . S
C192 C188 1.383 . S
C192 C191 1.367 . S
C192 H206 0.950 . S
C193 C190 1.481 . S
C193 C194 1.297 1_545 S
C193 H207 0.950 . S
C194 C193 1.297 1_565 S
C194 C195 1.479 . S
C194 H208 0.950 . S
C195 C194 1.479 . S
C195 C196 1.375 . S
C195 C201 1.404 1_565 S
C196 C195 1.375 . S
C196 C197 1.369 . S
C196 H209 0.950 . S
C197 C196 1.369 . S
C197 C198 1.392 . S
C197 H210 0.951 . S
C198 C197 1.392 . S
C198 C200 1.384 1_565 S
H199 C201 0.949 . S
C200 C198 1.384 1_545 S
C200 C201 1.385 . S
C200 H202 0.950 . S
C201 C195 1.404 1_545 S
C201 H199 0.949 . S
C201 C200 1.385 . S
H202 C200 0.950 . S
H203 C187 0.951 . S
H204 C189 0.951 . S
H205 C191 0.951 . S
H206 C192 0.950 . S
H207 C193 0.950 . S
H208 C194 0.950 . S
H209 C196 0.950 . S
H210 C197 0.951 . S
C211 C212 1.386 1_455 S
C211 C213 1.383 . S
C211 H227 0.951 . S
C212 C211 1.386 1_655 S
C212 C216 1.383 . S
C213 C211 1.383 . S
C213 C214 1.402 1_455 S
C213 H228 0.951 . S
C214 C213 1.402 1_655 S
C214 C215 1.375 . S
C214 C217 1.481 . S
C215 C214 1.375 . S
C215 C216 1.367 . S
C215 H229 0.951 . S
C216 C212 1.383 . S
C216 C215 1.367 . S
C216 H230 0.950 . S
C217 C214 1.481 . S
C217 C218 1.297 1_655 S
C217 H231 0.950 . S
C218 C217 1.297 1_455 S
C218 C219 1.479 . S
C218 H232 0.950 . S
C219 C218 1.479 . S
C219 C220 1.375 . S
C219 C225 1.404 1_455 S
C220 C219 1.375 . S
C220 C221 1.369 . S
C220 H233 0.950 . S
C221 C220 1.369 . S
C221 C222 1.392 1_455 S
C221 H234 0.951 . S
C222 C221 1.392 1_655 S
C222 C224 1.384 . S
H223 C225 0.949 . S
C224 C222 1.384 . S
C224 C225 1.385 . S
C224 H226 0.950 . S
C225 C219 1.404 1_655 S
C225 H223 0.949 . S
C225 C224 1.385 . S
H226 C224 0.950 . S
H227 C211 0.951 . S
H228 C213 0.951 . S
H229 C215 0.951 . S
H230 C216 0.950 . S
H231 C217 0.950 . S
H232 C218 0.950 . S
H233 C220 0.950 . S
H234 C221 0.951 . S
C235 C236 1.386 . S
C235 C237 1.383 . S
C235 H251 0.951 . S
C236 C235 1.386 . S
C236 C240 1.383 1_565 S
C237 C235 1.383 . S
C237 C238 1.402 1_565 S
C237 H252 0.951 . S
C238 C237 1.402 1_545 S
C238 C239 1.375 . S
C238 C241 1.481 . S
C239 C238 1.375 . S
C239 C240 1.367 . S
C239 H253 0.951 . S
C240 C236 1.383 1_545 S
C240 C239 1.367 . S
C240 H254 0.950 . S
C241 C238 1.481 . S
C241 C242 1.297 1_545 S
C241 H255 0.950 . S
C242 C241 1.297 1_565 S
C242 C243 1.479 . S
C242 H256 0.950 . S
C243 C242 1.479 . S
C243 C244 1.375 . S
C243 C249 1.404 1_565 S
C244 C243 1.375 . S
C244 C245 1.369 . S
C244 H257 0.950 . S
C245 C244 1.369 . S
C245 C246 1.392 . S
C245 H258 0.951 . S
C246 C245 1.392 . S
C246 C248 1.384 1_565 S
H247 C249 0.949 . S
C248 C246 1.384 1_545 S
C248 C249 1.385 . S
C248 H250 0.950 . S
C249 C243 1.404 1_545 S
C249 H247 0.949 . S
C249 C248 1.385 . S
H250 C248 0.950 . S
H251 C235 0.951 . S
H252 C237 0.951 . S
H253 C239 0.951 . S
H254 C240 0.950 . S
H255 C241 0.950 . S
H256 C242 0.950 . S
H257 C244 0.950 . S
H258 C245 0.951 . S
C259 C260 1.386 . S
C259 C261 1.383 . S
C259 H275 0.951 . S
C260 C259 1.386 . S
C260 C264 1.383 1_455 S
C261 C259 1.383 . S
C261 C262 1.402 . S
C261 H276 0.951 . S
C262 C261 1.402 . S
C262 C263 1.375 1_455 S
C262 C265 1.481 . S
C263 C262 1.375 1_655 S
C263 C264 1.367 . S
C263 H277 0.951 . S
C264 C260 1.383 1_655 S
C264 C263 1.367 . S
C264 H278 0.950 . S
C265 C262 1.481 . S
C265 C266 1.297 . S
C265 H279 0.960 . S
C266 C265 1.297 . S
C266 C267 1.479 . S
C266 H280 0.950 . S
C267 C266 1.479 . S
C267 C268 1.375 . S
C267 C273 1.404 . S
C268 C267 1.375 . S
C268 C269 1.369 . S
C268 H281 0.950 . S
C269 C268 1.369 . S
C269 C270 1.392 . S
C269 H282 0.951 . S
C270 C269 1.392 . S
C270 C272 1.384 . S
H271 C273 0.949 . S
C272 C270 1.384 . S
C272 C273 1.385 . S
C272 H274 0.950 . S
C273 C267 1.404 . S
C273 H271 0.949 . S
C273 C272 1.385 . S
H274 C272 0.950 . S
H275 C259 0.951 . S
H276 C261 0.951 . S
H277 C263 0.951 . S
H278 C264 0.950 . S
H279 C265 0.960 . S
H280 C266 0.950 . S
H281 C268 0.950 . S
H282 C269 0.951 . S
C283 C284 1.386 . S
C283 C285 1.383 . S
C283 H299 0.951 . S
C284 C283 1.386 . S
C284 C288 1.383 1_545 S
C285 C283 1.383 . S
C285 C286 1.402 . S
C285 H300 0.951 . S
C286 C285 1.402 . S
C286 C287 1.375 1_545 S
C286 C289 1.481 . S
C287 C286 1.375 1_565 S
C287 C288 1.367 . S
C287 H301 0.951 . S
C288 C284 1.383 1_565 S
C288 C287 1.367 . S
C288 H302 0.950 . S
C289 C286 1.481 . S
C289 C290 1.297 . S
C289 H303 0.950 1_545 S
C290 C289 1.297 . S
C290 C291 1.479 . S
C290 H304 0.950 . S
C291 C290 1.479 . S
C291 C292 1.375 . S
C291 C297 1.404 . S
C292 C291 1.375 . S
C292 C293 1.369 . S
C292 H305 0.950 . S
C293 C292 1.369 . S
C293 C294 1.392 . S
C293 H306 0.951 . S
C294 C293 1.392 . S
C294 C296 1.384 . S
H295 C297 0.949 . S
C296 C294 1.384 . S
C296 C297 1.385 . S
C296 H298 0.950 1_545 S
C297 C291 1.404 . S
C297 H295 0.949 . S
C297 C296 1.385 . S
H298 C296 0.950 1_565 S
H299 C283 0.951 . S
H300 C285 0.951 . S
H301 C287 0.951 . S
H302 C288 0.950 . S
H303 C289 0.950 1_565 S
H304 C290 0.950 . S
H305 C292 0.950 . S
H306 C293 0.951 . S
C307 C308 1.386 . S
C307 C309 1.383 . S
C307 H323 0.951 . S
C308 C307 1.386 . S
C308 C312 1.383 1_554 S
C309 C307 1.383 . S
C309 C310 1.402 . S
C309 H324 0.951 . S
C310 C309 1.402 . S
C310 C311 1.375 1_554 S
C310 C313 1.481 . S
C311 C310 1.375 1_556 S
C311 C312 1.367 . S
C311 H325 0.951 . S
C312 C308 1.383 1_556 S
C312 C311 1.367 . S
C312 H326 0.950 . S
C313 C310 1.481 . S
C313 C314 1.297 . S
C313 H327 0.950 1_554 S
C314 C313 1.297 . S
C314 C315 1.479 . S
C314 H328 0.950 . S
C315 C314 1.479 . S
C315 C316 1.375 . S
C315 C321 1.404 1_554 S
C316 C315 1.375 . S
C316 C317 1.369 . S
C316 H329 0.950 . S
C317 C316 1.369 . S
C317 C318 1.392 . S
C317 H330 0.951 . S
C318 C317 1.392 . S
C318 C320 1.384 1_554 S
H319 C321 0.949 . S
C320 C318 1.384 1_556 S
C320 C321 1.385 . S
C320 H322 0.950 . S
C321 C315 1.404 1_556 S
C321 H319 0.949 . S
C321 C320 1.385 . S
H322 C320 0.950 . S
H323 C307 0.951 . S
H324 C309 0.951 . S
H325 C311 0.951 . S
H326 C312 0.950 . S
H327 C313 0.950 1_556 S
H328 C314 0.950 . S
H329 C316 0.950 . S
H330 C317 0.951 . S
C331 C332 1.386 . S
C331 C333 1.383 . S
C331 H347 0.951 . S
C332 C331 1.386 . S
C332 C336 1.383 . S
C333 C331 1.383 . S
C333 C334 1.402 . S
C333 H348 0.951 . S
C334 C333 1.402 . S
C334 C335 1.375 . S
C334 C337 1.481 . S
C335 C334 1.375 . S
C335 C336 1.367 . S
C335 H349 0.951 . S
C336 C332 1.383 . S
C336 C335 1.367 . S
C336 H350 0.950 . S
C337 C334 1.481 . S
C337 C338 1.297 . S
C337 H351 0.950 . S
C338 C337 1.297 . S
C338 C339 1.479 . S
C338 H352 0.950 . S
C339 C338 1.479 . S
C339 C340 1.375 . S
C339 C345 1.404 . S
C340 C339 1.375 . S
C340 C341 1.369 . S
C340 H353 0.950 . S
C341 C340 1.369 . S
C341 C342 1.392 . S
C341 H354 0.951 . S
C342 C341 1.392 . S
C342 C344 1.384 . S
H343 C345 0.949 . S
C344 C342 1.384 . S
C344 C345 1.385 . S
C344 H346 0.950 . S
C345 C339 1.404 . S
C345 H343 0.949 . S
C345 C344 1.385 . S
H346 C344 0.950 . S
H347 C331 0.951 . S
H348 C333 0.951 . S
H349 C335 0.951 . S
H350 C336 0.950 . S
H351 C337 0.950 . S
H352 C338 0.950 . S
H353 C340 0.950 . S
H354 C341 0.951 . S
C355 C356 1.386 1_556 S
C355 C357 1.383 . S
C355 H371 0.951 . S
C356 C355 1.386 1_554 S
C356 C360 1.383 . S
C357 C355 1.383 . S
C357 C358 1.402 1_556 S
C357 H372 0.951 . S
C358 C357 1.402 1_554 S
C358 C359 1.375 . S
C358 C361 1.481 . S
C359 C358 1.375 . S
C359 C360 1.367 . S
C359 H373 0.951 . S
C360 C356 1.383 . S
C360 C359 1.367 . S
C360 H374 0.950 . S
C361 C358 1.481 . S
C361 C362 1.297 . S
C361 H375 0.950 . S
C362 C361 1.297 . S
C362 C363 1.479 . S
C362 H376 0.950 1_554 S
C363 C362 1.479 . S
C363 C364 1.375 1_554 S
C363 C369 1.404 . S
C364 C363 1.375 1_556 S
C364 C365 1.369 . S
C364 H377 0.950 . S
C365 C364 1.369 . S
C365 C366 1.392 1_556 S
C365 H378 0.951 . S
C366 C365 1.392 1_554 S
C366 C368 1.384 . S
H367 C369 0.949 . S
C368 C366 1.384 . S
C368 C369 1.385 . S
C368 H370 0.950 . S
C369 C363 1.404 . S
C369 H367 0.949 . S
C369 C368 1.385 . S
H370 C368 0.950 . S
H371 C355 0.951 . S
H372 C357 0.951 . S
H373 C359 0.951 . S
H374 C360 0.950 . S
H375 C361 0.950 . S
H376 C362 0.950 1_556 S
H377 C364 0.950 . S
H378 C365 0.951 . S
C379 C380 1.386 . S
C379 C381 1.383 . S
C379 H395 0.951 . S
C380 C379 1.386 . S
C380 C384 1.383 1_554 S
C381 C379 1.383 . S
C381 C382 1.394 1_554 S
C381 H396 0.951 . S
C382 C381 1.394 1_556 S
C382 C383 1.381 . S
C382 C385 1.482 . S
C383 C382 1.381 . S
C383 C384 1.367 . S
C383 H397 0.951 . S
C384 C380 1.383 1_556 S
C384 C383 1.367 . S
C384 H398 0.950 . S
C385 C382 1.482 . S
C385 C386 1.297 1_556 S
C385 H399 0.950 . S
C386 C385 1.297 1_554 S
C386 C387 1.479 . S
C386 H400 0.950 . S
C387 C386 1.479 . S
C387 C388 1.375 . S
C387 C393 1.404 1_554 S
C388 C387 1.375 . S
C388 C389 1.369 . S
C388 H401 0.950 . S
C389 C388 1.369 . S
C389 C390 1.392 . S
C389 H402 0.951 . S
C390 C389 1.392 . S
C390 C392 1.384 1_554 S
H391 C393 0.949 . S
C392 C390 1.384 1_556 S
C392 C393 1.385 . S
C392 H394 0.950 . S
C393 C387 1.404 1_556 S
C393 H391 0.949 . S
C393 C392 1.385 . S
H394 C392 0.950 . S
H395 C379 0.951 . S
H396 C381 0.951 . S
H397 C383 0.951 . S
H398 C384 0.950 . S
H399 C385 0.950 . S
H400 C386 0.950 . S
H401 C388 0.950 . S
H402 C389 0.951 . S
C126 C99 1.317 1_455 S
C116 C9 1.287 . S
C150 C95 1.641 1_545 S
C140 C38 1.735 1_565 S
C174 C105 1.312 1_655 S
C164 C17 1.325 1_455 S
C198 C89 1.699 1_565 S
C188 C30 1.693 . S
C212 C19 1.404 . S
C222 C81 1.366 . S
C246 C113 1.740 . S
C236 C33 1.827 1_565 S
C260 C12 1.453 1_455 S
C270 C67 1.417 . S
C284 C40 1.842 . S
C294 C111 1.772 . S
C308 C59 1.386 . S
C318 C93 1.445 . S
C332 C61 1.422 . S
C342 C108 1.397 . S
C366 C102 1.352 . S
C356 C51 1.393 . S
C390 C97 1.435 . S
C380 C54 1.410 . S
