# Generated by pormake.
# Topology pyr, (3,6)-cn, num edge types: 1
# Building blocks:
#     Node 0, Type 0, BuildingBlock: ESEHIV_clean_linker_0, # of connection points: 3
#     Node 1, Type 0, BuildingBlock: ESEHIV_clean_linker_0, # of connection points: 3
#     Node 2, Type 0, BuildingBlock: ESEHIV_clean_linker_0, # of connection points: 3
#     Node 3, Type 0, BuildingBlock: ESEHIV_clean_linker_0, # of connection points: 3
#     Node 4, Type 0, BuildingBlock: ESEHIV_clean_linker_0, # of connection points: 3
#     Node 5, Type 0, BuildingBlock: ESEHIV_clean_linker_0, # of connection points: 3
#     Node 6, Type 0, BuildingBlock: ESEHIV_clean_linker_0, # of connection points: 3
#     Node 7, Type 0, BuildingBlock: ESEHIV_clean_linker_0, # of connection points: 3
#     Node 8, Type 1, BuildingBlock: LEVNOQ01_clean_sbu_1, # of connection points: 6
#     Node 9, Type 1, BuildingBlock: LEVNOQ01_clean_sbu_1, # of connection points: 6
#     Node 10, Type 1, BuildingBlock: LEVNOQ01_clean_sbu_1, # of connection points: 6
#     Node 11, Type 1, BuildingBlock: LEVNOQ01_clean_sbu_1, # of connection points: 6
#     Edge 12, Type (0, 1), BuildingBlock: XIVTED_clean_linker_0, # of connection points: 2
#     Edge 13, Type (0, 1), BuildingBlock: XIVTED_clean_linker_0, # of connection points: 2
#     Edge 14, Type (0, 1), BuildingBlock: XIVTED_clean_linker_0, # of connection points: 2
#     Edge 15, Type (0, 1), BuildingBlock: XIVTED_clean_linker_0, # of connection points: 2
#     Edge 16, Type (0, 1), BuildingBlock: XIVTED_clean_linker_0, # of connection points: 2
#     Edge 17, Type (0, 1), BuildingBlock: XIVTED_clean_linker_0, # of connection points: 2
#     Edge 18, Type (0, 1), BuildingBlock: XIVTED_clean_linker_0, # of connection points: 2
#     Edge 19, Type (0, 1), BuildingBlock: XIVTED_clean_linker_0, # of connection points: 2
#     Edge 20, Type (0, 1), BuildingBlock: XIVTED_clean_linker_0, # of connection points: 2
#     Edge 21, Type (0, 1), BuildingBlock: XIVTED_clean_linker_0, # of connection points: 2
#     Edge 22, Type (0, 1), BuildingBlock: XIVTED_clean_linker_0, # of connection points: 2
#     Edge 23, Type (0, 1), BuildingBlock: XIVTED_clean_linker_0, # of connection points: 2
#     Edge 24, Type (0, 1), BuildingBlock: XIVTED_clean_linker_0, # of connection points: 2
#     Edge 25, Type (0, 1), BuildingBlock: XIVTED_clean_linker_0, # of connection points: 2
#     Edge 26, Type (0, 1), BuildingBlock: XIVTED_clean_linker_0, # of connection points: 2
#     Edge 27, Type (0, 1), BuildingBlock: XIVTED_clean_linker_0, # of connection points: 2
#     Edge 28, Type (0, 1), BuildingBlock: XIVTED_clean_linker_0, # of connection points: 2
#     Edge 29, Type (0, 1), BuildingBlock: XIVTED_clean_linker_0, # of connection points: 2
#     Edge 30, Type (0, 1), BuildingBlock: XIVTED_clean_linker_0, # of connection points: 2
#     Edge 31, Type (0, 1), BuildingBlock: XIVTED_clean_linker_0, # of connection points: 2
#     Edge 32, Type (0, 1), BuildingBlock: XIVTED_clean_linker_0, # of connection points: 2
#     Edge 33, Type (0, 1), BuildingBlock: XIVTED_clean_linker_0, # of connection points: 2
#     Edge 34, Type (0, 1), BuildingBlock: XIVTED_clean_linker_0, # of connection points: 2
#     Edge 35, Type (0, 1), BuildingBlock: XIVTED_clean_linker_0, # of connection points: 2
# Relax obj value: 0.035
# Max RMSD: 0.110
# Mean RMSD: 0.045
data_MOF--net-pry--node1-LEVNOQ01_clean_sbu_1--node2-ESEHIV_clean_linker_0--edge1-XIVTED_clean_linker_0
_symmetry_space_group_name_H-M    P1
_symmetry_Int_Tables_number       1
_symmetry_cell_setting            triclinic
loop_
_symmetry_equiv_pos_as_xyz
'x, y, z'
_cell_length_a     35.483302
_cell_length_b     33.952142
_cell_length_c     33.794726
_cell_angle_alpha  92.125404
_cell_angle_beta   91.327108
_cell_angle_gamma 93.90045
loop_
_atom_site_label
_atom_site_type_symbol
_atom_site_fract_x
_atom_site_fract_y
_atom_site_fract_z
_atom_type_partial_charge
H0 H 0.08748 0.16767 0.16388 0.0
H1 H 0.17126 0.08249 0.166 0.0
H2 H 0.16225 0.15678 0.06622 0.0
C3 C 0.11049 0.15361 0.14981 0.0
C4 C 0.12221 0.16529 0.11225 0.0
C5 C 0.12816 0.12386 0.16939 0.0
C6 C 0.15793 0.10573 0.15103 0.0
C7 C 0.17087 0.11741 0.11395 0.0
C8 C 0.15266 0.14729 0.09474 0.0
H9 H 0.34806 0.94119 0.64431 0.0
H10 H 0.42972 0.85481 0.62738 0.0
H11 H 0.34468 0.86839 0.53713 0.0
C12 C 0.36045 0.91923 0.62552 0.0
C13 C 0.34337 0.90807 0.58844 0.0
C14 C 0.39145 0.9 0.63993 0.0
C15 C 0.4062 0.87024 0.61614 0.0
C16 C 0.38935 0.85836 0.57922 0.0
C17 C 0.358 0.87757 0.56548 0.0
H18 H 0.71445 0.27955 0.87698 0.0
H19 H 0.68844 0.39185 0.83458 0.0
H20 H 0.62843 0.2871 0.78575 0.0
C21 C 0.69694 0.2966 0.8586 0.0
C22 C 0.6687 0.27737 0.83336 0.0
C23 C 0.70287 0.33792 0.86101 0.0
C24 C 0.68369 0.36002 0.8338 0.0
C25 C 0.65849 0.34148 0.80519 0.0
C26 C 0.65024 0.30037 0.80584 0.0
H27 H 0.86192 0.6656 0.47163 0.0
H28 H 0.95623 0.6534 0.39466 0.0
H29 H 0.84918 0.59245 0.36534 0.0
C30 C 0.87455 0.65245 0.44595 0.0
C31 C 0.85159 0.62689 0.42041 0.0
C32 C 0.91254 0.66294 0.437 0.0
C33 C 0.92713 0.64646 0.40209 0.0
C34 C 0.90407 0.62243 0.37535 0.0
C35 C 0.86664 0.6122 0.38519 0.0
H36 H 0.83097 0.93018 0.86489 0.0
H37 H 0.91158 0.84232 0.85018 0.0
H38 H 0.8412 0.84144 0.95172 0.0
C39 C 0.84475 0.90529 0.87625 0.0
C40 C 0.83231 0.88819 0.91135 0.0
C41 C 0.8737 0.88939 0.85432 0.0
C42 C 0.8896 0.85514 0.86714 0.0
C43 C 0.87777 0.83766 0.9022 0.0
C44 C 0.84997 0.85496 0.92461 0.0
H45 H 0.55932 0.13223 0.37687 0.0
H46 H 0.66454 0.07904 0.36679 0.0
H47 H 0.64986 0.1624 0.46285 0.0
C48 C 0.58737 0.12859 0.38883 0.0
C49 C 0.60126 0.15102 0.42277 0.0
C50 C 0.61058 0.10395 0.36778 0.0
C51 C 0.64671 0.09836 0.383 0.0
C52 C 0.66061 0.11852 0.4179 0.0
C53 C 0.63786 0.14489 0.43764 0.0
H54 H 0.26417 0.74629 0.16543 0.0
H55 H 0.29618 0.64238 0.22209 0.0
H56 H 0.36076 0.75151 0.2466 0.0
C57 C 0.28295 0.73246 0.18548 0.0
C58 C 0.31369 0.75481 0.20454 0.0
C59 C 0.27692 0.69173 0.19078 0.0
C60 C 0.29985 0.67394 0.21819 0.0
C61 C 0.3291 0.69576 0.23925 0.0
C62 C 0.33616 0.73602 0.23231 0.0
H63 H 0.04623 0.40032 0.62904 0.0
H64 H 0.12909 0.38 0.54008 0.0
H65 H 0.1593 0.4522 0.644 0.0
C66 C 0.07428 0.40505 0.61746 0.0
C67 C 0.10162 0.42792 0.64058 0.0
C68 C 0.08345 0.38701 0.58095 0.0
C69 C 0.12025 0.39484 0.56684 0.0
C70 C 0.14742 0.41872 0.58913 0.0
C71 C 0.13786 0.43529 0.62587 0.0
O72 O 0.00379 0.05213 0.62707 0.0
Mg73 Mg 0.03863 0.07672 0.58392 0.0
O74 O 0.97982 0.00778 0.58246 0.0
Mg75 Mg 0.00242 0.02364 0.51965 0.0
O76 O 0.01144 0.09184 0.53284 0.0
O77 O 0.03739 0.1355 0.579 0.0
O78 O 0.02635 0.0403 0.45647 0.0
O79 O 0.94023 0.0395 0.5037 0.0
Mg80 Mg 0.97297 0.97263 0.45556 0.0
O81 O 0.99174 0.9546 0.50918 0.0
O82 O 0.01503 0.98787 0.41666 0.0
O83 O 0.9228 0.00123 0.45151 0.0
O84 O 0.96502 0.91417 0.46038 0.0
C85 C 0.0941 0.02399 0.554 0.0
C86 C 0.98237 0.02166 0.61813 0.0
C87 C 0.01936 0.12815 0.54568 0.0
C88 C 0.03106 0.02178 0.4235 0.0
C89 C 0.91606 0.02845 0.47629 0.0
C90 C 0.98134 0.91925 0.49487 0.0
O91 O 0.0915 0.05477 0.57568 0.0
O92 O 0.06521 0.0084 0.53448 0.0
O93 O 0.43091 0.07956 0.0088 0.0
Mg94 Mg 0.48973 0.0915 0.01293 0.0
O95 O 0.43484 0.01489 0.01318 0.0
Mg96 Mg 0.49808 -0.00081 0.00535 0.0
O97 O 0.51552 0.05596 0.9733 0.0
O98 O 0.51535 0.12123 0.96811 0.0
O99 O 0.56164 0.9828 0.99846 0.0
O100 O 0.48059 0.97148 0.94273 0.0
Mg101 Mg 0.50625 0.9036 1.00173 0.0
O102 O 0.48064 0.94312 0.03622 0.0
O103 O 0.5644 0.91853 0.00795 0.0
O104 O 0.48242 0.90618 0.94378 0.0
O105 O 0.47649 0.87944 0.04837 0.0
C106 C 0.52231 0.05879 0.08648 0.0
C107 C 0.41534 0.04517 0.01186 0.0
C108 C 0.52563 0.08761 0.95485 0.0
C109 C 0.5806 0.95236 1.00282 0.0
C110 C 0.4757 0.93719 0.92564 0.0
C111 C 0.4677 0.91478 0.05752 0.0
O112 O 0.51674 0.09075 0.06962 0.0
O113 O 0.51563 0.02535 0.0683 0.0
O114 O 0.45745 0.57348 0.56659 0.0
Mg115 Mg 0.47587 0.51781 0.57958 0.0
O116 O 0.49188 0.57344 0.51354 0.0
Mg117 Mg 0.50269 0.5062 0.50687 0.0
O118 O 0.52879 0.49892 0.57159 0.0
O119 O 0.50698 0.52103 0.62986 0.0
O120 O 0.51368 0.43747 0.50248 0.0
O121 O 0.5655 0.52704 0.49259 0.0
Mg122 Mg 0.51611 0.47625 0.43121 0.0
O123 O 0.47875 0.51796 0.44258 0.0
O124 O 0.49879 0.41815 0.44126 0.0
O125 O 0.57341 0.49698 0.4347 0.0
O126 O 0.49047 0.49314 0.38189 0.0
C127 C 0.42036 0.46808 0.54555 0.0
C128 C 0.47073 0.59107 0.53725 0.0
C129 C 0.53234 0.50399 0.61002 0.0
C130 C 0.50607 0.40973 0.47641 0.0
C131 C 0.58636 0.51933 0.46337 0.0
C132 C 0.47264 0.51671 0.40435 0.0
O133 O 0.43497 0.47159 0.57989 0.0
O134 O 0.43792 0.48375 0.51681 0.0
O135 O 0.99111 0.42012 0.06484 0.0
Mg136 Mg 0.01882 0.47726 0.06891 0.0
O137 O 0.02305 0.43638 0.0136 0.0
Mg138 Mg 0.0022 0.50352 0.01283 0.0
O139 O 0.98782 0.5238 0.08149 0.0
O140 O 0.0191 0.49087 0.12677 0.0
O141 O 0.98196 0.56562 1.00069 0.0
O142 O 0.93823 0.47653 0.01554 0.0
Mg143 Mg 0.9656 0.48804 0.95298 0.0
O144 O 0.02188 0.4925 0.94486 0.0
O145 O 0.93737 0.54151 0.95886 0.0
O146 O 0.94187 0.43216 0.9687 0.0
O147 O 0.97779 0.48333 0.89563 0.0
C148 C 0.08775 0.5165 0.0395 0.0
C149 C 0.00923 0.40941 0.03531 0.0
C150 C -0.00242 0.51845 0.11827 0.0
C151 C 0.95342 0.57081 0.9784 0.0
C152 C 0.92501 0.44444 0.99845 0.0
C153 C 0.01263 0.48713 0.90736 0.0
O154 O 0.07805 0.48631 0.05868 0.0
O155 O 0.06258 0.53236 0.01948 0.0
H156 H 0.1088 0.17022 0.23355 0.0
H157 H 0.06895 0.98327 0.36745 0.0
H158 H 0.119 0.04872 0.19547 0.0
H159 H 0.04239 0.1005 0.40599 0.0
H160 H 0.09559 0.00977 0.30773 0.0
H161 H 0.08993 0.1479 0.29898 0.0
C162 C 0.10693 0.13889 0.23885 0.0
C163 C 0.11568 0.11129 0.20897 0.0
C164 C 0.08422 0.02994 0.32921 0.0
C165 C 0.09483 0.08577 0.28376 0.0
C166 C 0.06914 0.01481 0.36347 0.0
C167 C 0.05308 0.03968 0.39146 0.0
C168 C 0.083 0.07035 0.32241 0.0
C169 C 0.05451 0.08036 0.38503 0.0
C170 C 0.09647 0.12625 0.27627 0.0
C171 C 0.11322 0.07115 0.21768 0.0
N172 N 0.06879 0.09447 0.35078 0.0
N173 N 0.10309 0.05971 0.25415 0.0
H174 H 0.40449 0.97145 0.68127 0.0
H175 H 0.46132 0.86876 0.88151 0.0
H176 H 0.4096 0.84583 0.69362 0.0
H177 H 0.46091 0.99543 0.87356 0.0
H178 H 0.44195 0.86102 0.81229 0.0
H179 H 0.42488 0.98203 0.75104 0.0
C180 C 0.41002 0.94615 0.69857 0.0
C181 C 0.40563 0.90771 0.68143 0.0
C182 C 0.44603 0.89058 0.82552 0.0
C183 C 0.4288 0.91957 0.76105 0.0
C184 C 0.45709 0.89507 0.86525 0.0
C185 C 0.4628 0.93286 0.88357 0.0
C186 C 0.4405 0.92407 0.80353 0.0
C187 C 0.45679 0.96573 0.86071 0.0
C188 C 0.42171 0.95222 0.73831 0.0
C189 C 0.41331 0.87603 0.70519 0.0
N190 N 0.44596 0.96058 0.8218 0.0
N191 N 0.4244 0.88269 0.74365 0.0
H192 H 0.62807 0.41281 0.8166 0.0
H193 H 0.568 0.43697 0.59012 0.0
H194 H 0.6491 0.32556 0.72511 0.0
H195 H 0.56162 0.52709 0.68265 0.0
H196 H 0.60197 0.39718 0.63661 0.0
H197 H 0.6051 0.45532 0.76635 0.0
C198 C 0.62791 0.40261 0.78584 0.0
C199 C 0.64083 0.36568 0.77504 0.0
C200 C 0.59372 0.42599 0.64646 0.0
C201 C 0.61427 0.41435 0.71698 0.0
C202 C 0.57478 0.4489 0.6198 0.0
C203 C 0.56172 0.48518 0.63275 0.0
C204 C 0.59943 0.43962 0.68611 0.0
C205 C 0.57084 0.49908 0.6716 0.0
C206 C 0.61482 0.42695 0.75706 0.0
C207 C 0.63916 0.3537 0.73474 0.0
N208 N 0.58867 0.4761 0.69698 0.0
N209 N 0.62615 0.378 0.7071 0.0
H210 H 0.97378 0.59655 0.35859 0.0
H211 H 0.92944 0.55252 0.12698 0.0
H212 H 0.86746 0.62013 0.30267 0.0
H213 H 0.03658 0.53883 0.18599 0.0
H214 H 0.90658 0.58188 0.18906 0.0
H215 H -0.00244 0.57831 0.29395 0.0
C216 C 0.95545 0.59805 0.33269 0.0
C217 C 0.91852 0.60981 0.3362 0.0
C218 C 0.93524 0.57285 0.18813 0.0
C219 C 0.94551 0.58854 0.26169 0.0
C220 C 0.94831 0.55646 0.15269 0.0
C221 C 0.98472 0.54287 0.15164 0.0
C222 C 0.95894 0.57561 0.22232 0.0
C223 C 0.00807 0.54837 0.18574 0.0
C224 C 0.96902 0.58754 0.29568 0.0
C225 C 0.89592 0.61061 0.30148 0.0
N226 N 0.99471 0.56396 0.21963 0.0
N227 N 0.90972 0.60002 0.26569 0.0
H228 H 0.2333 0.09112 0.15218 0.0
H229 H 0.36087 0.07947 0.9704 0.0
H230 H 0.18466 0.10157 0.03484 0.0
H231 H 0.37787 0.00634 0.06991 0.0
H232 H 0.2966 0.08901 0.99208 0.0
H233 H 0.28727 0.06196 0.12288 0.0
C234 C 0.23343 0.08678 0.1203 0.0
C235 C 0.20389 0.09892 0.0961 0.0
C236 C 0.31401 0.07002 0.00858 0.0
C237 C 0.26684 0.06653 0.06235 0.0
C238 C 0.35056 0.06448 0.99618 0.0
C239 C 0.37443 0.04197 0.01838 0.0
C240 C 0.30186 0.05405 0.04416 0.0
C241 C 0.36008 0.02353 0.05181 0.0
C242 C 0.2645 0.07016 0.10362 0.0
C243 C 0.20686 0.09352 0.05482 0.0
N244 N 0.32494 0.03077 0.0643 0.0
N245 N 0.23801 0.07825 0.03924 0.0
H246 H 0.32911 0.98618 0.59254 0.0
H247 H 0.11069 0.94977 0.52598 0.0
H248 H 0.278 0.87138 0.55553 0.0
H249 H 0.16245 0.05921 0.5774 0.0
H250 H 0.17286 0.92182 0.52799 0.0
H251 H 0.26937 0.0149 0.5782 0.0
C252 C 0.30532 0.96705 0.58117 0.0
C253 C 0.30846 0.9263 0.57556 0.0
C254 C 0.17049 0.95202 0.53857 0.0
C255 C 0.23975 0.95894 0.55909 0.0
C256 C 0.13509 0.96798 0.53736 0.0
C257 C 0.13126 0.00672 0.55197 0.0
C258 C 0.20217 0.97516 0.55419 0.0
C259 C 0.16384 0.02904 0.5663 0.0
C260 C 0.2712 0.98344 0.57291 0.0
C261 C 0.27687 0.903 0.56011 0.0
N262 N 0.19774 0.01291 0.56716 0.0
N263 N 0.24369 0.91959 0.55275 0.0
H264 H 0.74727 0.40789 0.85774 0.0
H265 H 0.89641 0.36852 0.00294 0.0
H266 H 0.71762 0.31371 0.93658 0.0
H267 H 0.8643 0.48844 0.99831 0.0
H268 H 0.83206 0.34497 0.98143 0.0
H269 H 0.79144 0.43739 0.9082 0.0
C270 C 0.74935 0.39358 0.8857 0.0
C271 C 0.72876 0.35767 0.89229 0.0
C272 C 0.83872 0.37637 0.98672 0.0
C273 C 0.78049 0.39107 0.94973 0.0
C274 C 0.87526 0.38974 0.99914 0.0
C275 C 0.88538 0.43035 1.00221 0.0
C276 C 0.81306 0.40394 0.97583 0.0
C277 C 0.85734 0.45686 0.99638 0.0
C278 C 0.77468 0.41059 0.91454 0.0
C279 C 0.73375 0.34052 0.92927 0.0
N280 N 0.82267 0.44323 0.98194 0.0
N281 N 0.75985 0.35682 0.95621 0.0
H282 H 0.79068 0.62408 0.3693 0.0
H283 H 0.63528 0.55091 0.52331 0.0
H284 H 0.82054 0.60685 0.49166 0.0
H285 H 0.62522 0.5316 0.39643 0.0
H286 H 0.6997 0.58144 0.5153 0.0
H287 H 0.72571 0.60141 0.38203 0.0
C288 C 0.78358 0.61542 0.39889 0.0
C289 C 0.81131 0.6166 0.42925 0.0
C290 C 0.68318 0.57049 0.48937 0.0
C291 C 0.73652 0.59091 0.44421 0.0
C292 C 0.64652 0.55319 0.49389 0.0
C293 C 0.62499 0.53836 0.46053 0.0
C294 C 0.69782 0.57362 0.4512 0.0
C295 C 0.64086 0.54211 0.42307 0.0
C296 C 0.7464 0.60259 0.40619 0.0
C297 C 0.80007 0.60625 0.46736 0.0
N298 N 0.67609 0.55941 0.41948 0.0
N299 N 0.76351 0.59352 0.47375 0.0
H300 H 0.04632 0.17589 0.10777 0.0
H301 H 0.07267 0.38248 1.00164 0.0
H302 H 0.15389 0.22639 0.06999 0.0
H303 H 0.97314 0.34372 0.06429 0.0
H304 H 0.09849 0.31838 0.01231 0.0
H305 H 0.01555 0.23077 0.07916 0.0
C306 C 0.0635 0.19848 0.0934 0.0
C307 C 0.10288 0.19676 0.09186 0.0
C308 C 0.07071 0.3237 0.02309 0.0
C309 C 0.06763 0.25949 0.05842 0.0
C310 C 0.05581 0.3601 0.01666 0.0
C311 C 0.02093 0.36851 0.03253 0.0
C312 C 0.05038 0.29556 0.04522 0.0
C313 C 0.00036 0.33856 0.05198 0.0
C314 C 0.04585 0.22967 0.07683 0.0
C315 C 0.12348 0.22637 0.07184 0.0
N316 N 0.01555 0.3036 0.05813 0.0
N317 N 0.10566 0.25669 0.05622 0.0
H318 H 0.62889 0.22244 0.78097 0.0
H319 H 0.59963 0.07298 0.95442 0.0
H320 H 0.67924 0.23267 0.89942 0.0
H321 H 0.50806 0.10635 0.87981 0.0
H322 H 0.64458 0.10598 0.91036 0.0
H323 H 0.59941 0.15809 0.79727 0.0
C324 C 0.63453 0.21156 0.81001 0.0
C325 C 0.65642 0.23461 0.83889 0.0
C326 C 0.61471 0.10433 0.90256 0.0
C327 C 0.62462 0.1593 0.85629 0.0
C328 C 0.58913 0.08514 0.92742 0.0
C329 C 0.55031 0.08748 0.92073 0.0
C330 C 0.60105 0.12584 0.87115 0.0
C331 C 0.53796 0.10427 0.88586 0.0
C332 C 0.61809 0.17431 0.81887 0.0
C333 C 0.66346 0.21706 0.87534 0.0
N334 N 0.56326 0.12378 0.86274 0.0
N335 N 0.64749 0.18087 0.88289 0.0
H336 H 0.90724 0.68436 0.51709 0.0
H337 H 0.04209 0.8764 0.48826 0.0
H338 H 0.97113 0.7143 0.41342 0.0
H339 H 0.93473 0.87951 0.54456 0.0
H340 H 0.037 0.80427 0.48993 0.0
H341 H 0.93642 0.74402 0.55126 0.0
C342 C 0.92757 0.70274 0.50145 0.0
C343 C 0.93551 0.69416 0.46145 0.0
C344 C 0.01546 0.82083 0.50375 0.0
C345 C 0.97077 0.76103 0.50177 0.0
C346 C 0.01859 0.86197 0.50328 0.0
C347 C 0.9886 0.88359 0.51599 0.0
C348 C 0.98202 0.80157 0.51682 0.0
C349 C 0.95837 0.86362 0.53444 0.0
C350 C 0.94464 0.73644 0.52142 0.0
C351 C 0.96368 0.7186 0.44399 0.0
N352 N 0.95525 0.82344 0.53334 0.0
N353 N 0.97989 0.75089 0.46411 0.0
H354 H 0.34471 0.79648 0.54645 0.0
H355 H 0.51434 0.65593 0.51389 0.0
H356 H 0.4617 0.83796 0.56499 0.0
H357 H 0.40112 0.61686 0.54508 0.0
H358 H 0.49468 0.72427 0.51216 0.0
H359 H 0.36477 0.73231 0.52375 0.0
C360 C 0.37466 0.79245 0.54476 0.0
C361 C 0.40157 0.82248 0.55808 0.0
C362 C 0.47414 0.7005 0.51872 0.0
C363 C 0.42466 0.74884 0.53275 0.0
C364 C 0.48527 0.6617 0.51958 0.0
C365 C 0.45936 0.63113 0.53021 0.0
C366 C 0.43674 0.70816 0.52765 0.0
C367 C 0.42204 0.63984 0.53736 0.0
C368 C 0.38608 0.75569 0.53213 0.0
C369 C 0.44003 0.81533 0.5556 0.0
N370 N 0.41188 0.67752 0.53608 0.0
N371 N 0.45048 0.77903 0.54367 0.0
H372 H 0.88837 0.96819 0.84413 0.0
H373 H 0.9501 0.94545 0.61822 0.0
H374 H 0.88963 0.85492 0.78204 0.0
H375 H 0.96784 0.05254 0.69113 0.0
H376 H 0.92096 0.91245 0.67461 0.0
H377 H 0.91071 0.00025 0.78494 0.0
C378 C 0.89313 0.95006 0.8179 0.0
C379 C 0.88714 0.90881 0.81807 0.0
C380 C 0.9311 0.94322 0.67806 0.0
C381 C 0.91311 0.94539 0.75002 0.0
C382 C 0.94751 0.9621 0.64588 0.0
C383 C 0.96163 0.00173 0.65008 0.0
C384 C 0.92851 0.96432 0.71439 0.0
C385 C 0.95768 0.02187 0.68661 0.0
C386 C 0.90609 0.96837 0.78413 0.0
C387 C 0.89429 0.88679 0.78333 0.0
N388 N 0.94159 0.00296 0.71725 0.0
N389 N 0.90689 0.90536 0.75063 0.0
H390 H 0.65164 0.11494 0.30202 0.0
H391 H 0.50674 0.00636 0.14471 0.0
H392 H 0.54481 0.06303 0.34002 0.0
H393 H 0.57058 0.1156 0.12212 0.0
H394 H 0.52928 0.0126 0.21438 0.0
H395 H 0.63155 0.09982 0.23314 0.0
C396 C 0.62423 0.09959 0.29585 0.0
C397 C 0.59985 0.09007 0.32669 0.0
C398 C 0.53835 0.03497 0.19395 0.0
C399 C 0.57679 0.07287 0.24803 0.0
C400 C 0.52575 0.03139 0.15435 0.0
C401 C 0.53677 0.06065 0.12783 0.0
C402 C 0.56296 0.06735 0.20652 0.0
C403 C 0.56123 0.09259 0.14172 0.0
C404 C 0.61273 0.09132 0.2566 0.0
C405 C 0.56436 0.07085 0.317 0.0
N406 N 0.57374 0.09494 0.18004 0.0
N407 N 0.55382 0.06275 0.27836 0.0
H408 H 0.36885 0.63403 0.2173 0.0
H409 H 0.44902 0.58841 0.43263 0.0
H410 H 0.34618 0.70842 0.3189 0.0
H411 H 0.43976 0.5064 0.33159 0.0
H412 H 0.41548 0.63593 0.39366 0.0
H413 H 0.40257 0.59159 0.26002 0.0
C414 C 0.37138 0.64153 0.24875 0.0
C415 C 0.35451 0.67438 0.26477 0.0
C416 C 0.42063 0.60735 0.38036 0.0
C417 C 0.39259 0.62553 0.31428 0.0
C418 C 0.43945 0.58019 0.4026 0.0
C419 C 0.44754 0.54362 0.3851 0.0
C420 C 0.41018 0.5976 0.3406 0.0
C421 C 0.43469 0.53445 0.34612 0.0
C422 C 0.39039 0.61719 0.27324 0.0
C423 C 0.35889 0.68319 0.30561 0.0
N424 N 0.417 0.56128 0.32524 0.0
N425 N 0.37735 0.65861 0.32923 0.0
H426 H 0.1131 0.50105 0.67829 0.0
H427 H 0.04713 0.42104 0.88739 0.0
H428 H 0.07417 0.38038 0.69766 0.0
H429 H 0.03816 0.54192 0.85625 0.0
H430 H 0.07563 0.40747 0.82328 0.0
H431 H 0.10151 0.51796 0.74828 0.0
C432 C 0.10213 0.47821 0.69731 0.0
C433 C 0.09395 0.43945 0.68219 0.0
C434 C 0.0684 0.43724 0.83092 0.0
C435 C 0.08181 0.45817 0.76196 0.0
C436 C 0.05276 0.44508 0.86767 0.0
C437 C 0.04104 0.48274 0.87707 0.0
C438 C 0.07216 0.46733 0.80354 0.0
C439 C 0.04757 0.51268 0.85012 0.0
C440 C 0.09567 0.4878 0.7371 0.0
C441 C 0.08012 0.41078 0.70803 0.0
N442 N 0.06248 0.5043 0.81431 0.0
N443 N 0.07457 0.42069 0.74664 0.0
H444 H 0.77796 0.84526 0.95131 0.0
H445 H 0.62657 0.00189 0.95846 0.0
H446 H 0.80932 0.96475 0.91843 0.0
H447 H 0.62902 0.90623 0.03883 0.0
H448 H 0.6927 0.99173 0.94211 0.0
H449 H 0.722 0.86822 0.98152 0.0
C450 C 0.77372 0.87651 0.95099 0.0
C451 C 0.79901 0.90296 0.93222 0.0
C452 C 0.67887 0.97366 0.96398 0.0
C453 C 0.73324 0.92931 0.96582 0.0
C454 C 0.64129 0.97958 0.97345 0.0
C455 C 0.62215 0.95436 0.99947 0.0
C456 C 0.69684 0.9422 0.9805 0.0
C457 C 0.64244 0.92579 0.01796 0.0
C458 C 0.74134 0.88958 0.96811 0.0
C459 C 0.7905 0.94295 0.93182 0.0
N460 N 0.67836 0.92007 0.00763 0.0
N461 N 0.75806 0.95484 0.94788 0.0
H462 H 0.68851 0.1048 0.49262 0.0
H463 H 0.88164 0.04134 0.40664 0.0
H464 H 0.72298 0.12309 0.37277 0.0
H465 H 0.87075 0.06153 0.5325 0.0
H466 H 0.82194 0.07028 0.39527 0.0
H467 H 0.75357 0.08928 0.51021 0.0
C468 C 0.70988 0.1061 0.47024 0.0
C469 C 0.70027 0.11434 0.431 0.0
C470 C 0.83253 0.0688 0.42546 0.0
C471 C 0.77405 0.09657 0.45068 0.0
C472 C 0.86659 0.05203 0.43198 0.0
C473 C 0.88097 0.04877 0.47058 0.0
C474 C 0.81197 0.08191 0.45778 0.0
C475 C 0.8605 0.06355 0.50227 0.0
C476 C 0.74686 0.09724 0.48025 0.0
C477 C 0.72892 0.11584 0.40312 0.0
N478 N 0.82656 0.07905 0.49523 0.0
N479 N 0.76427 0.10659 0.41339 0.0
H480 H 0.23223 0.62681 0.21117 0.0
H481 H 0.11459 0.589 0.01423 0.0
H482 H 0.25947 0.69873 0.11152 0.0
H483 H 0.1441 0.49427 0.08838 0.0
H484 H 0.16481 0.63206 0.04759 0.0
H485 H 0.19397 0.58113 0.16705 0.0
C486 C 0.23026 0.63307 0.18004 0.0
C487 C 0.24953 0.66661 0.16512 0.0
C488 C 0.16072 0.60156 0.0558 0.0
C489 C 0.20504 0.61453 0.11449 0.0
C490 C 0.13226 0.57688 0.03666 0.0
C491 C 0.12453 0.53821 0.04918 0.0
C492 C 0.18089 0.5875 0.08793 0.0
C493 C 0.14851 0.52407 0.07824 0.0
C494 C 0.20847 0.60687 0.15485 0.0
C495 C 0.24483 0.67357 0.12454 0.0
N496 N 0.17498 0.549 0.09732 0.0
N497 N 0.22286 0.64781 0.10059 0.0
H498 H 0.1758 0.44239 0.5181 0.0
H499 H 0.38782 0.41017 0.58861 0.0
H500 H 0.20913 0.40095 0.6319 0.0
H501 H 0.36367 0.4872 0.49398 0.0
H502 H 0.32053 0.39247 0.59359 0.0
H503 H 0.24279 0.44747 0.49962 0.0
C504 C 0.19724 0.43428 0.53904 0.0
C505 C 0.18721 0.42182 0.57676 0.0
C506 C 0.32985 0.41289 0.57136 0.0
C507 C 0.26306 0.42662 0.5557 0.0
C508 C 0.36829 0.4228 0.56833 0.0
C509 C 0.3812 0.45061 0.54124 0.0
C510 C 0.30392 0.43116 0.5474 0.0
C511 C 0.35475 0.46572 0.51534 0.0
C512 C 0.23527 0.43714 0.52852 0.0
C513 C 0.2158 0.41138 0.60281 0.0
N514 N 0.3171 0.45629 0.51949 0.0
N515 N 0.25233 0.41399 0.59179 0.0
H516 H 0.88264 0.77105 0.85578 0.0
H517 H 0.97488 0.64124 0.01896 0.0
H518 H 0.90463 0.81749 0.97522 0.0
H519 H 0.90497 0.59201 0.92056 0.0
H520 H 0.958 0.70767 1.00138 0.0
H521 H 0.90126 0.70665 0.87612 0.0
C522 C 0.89188 0.76777 0.88619 0.0
C523 C 0.89211 0.79959 0.91387 0.0
C524 C 0.94628 0.68215 0.98394 0.0
C525 C 0.91323 0.72592 0.93743 0.0
C526 C 0.95582 0.64431 0.99394 0.0
C527 C 0.94131 0.61095 0.97126 0.0
C528 C 0.92274 0.68654 0.95059 0.0
C529 C 0.9168 0.61672 0.93905 0.0
C530 C 0.90215 0.73096 0.89787 0.0
C531 C 0.90386 0.79357 0.95306 0.0
N532 N 0.90863 0.65371 0.9295 0.0
N533 N 0.9141 0.75741 0.96372 0.0
H534 H 0.30015 0.78672 0.13174 0.0
H535 H 0.48174 0.90847 0.13592 0.0
H536 H 0.35502 0.81681 0.24571 0.0
H537 H 0.39381 0.92913 0.05088 0.0
H538 H 0.4338 0.88564 0.18219 0.0
H539 H 0.32871 0.84636 0.10637 0.0
C540 C 0.31721 0.80605 0.15218 0.0
C541 C 0.32545 0.7954 0.19119 0.0
C542 C 0.42477 0.89685 0.15417 0.0
C543 C 0.36029 0.86402 0.16064 0.0
C544 C 0.45216 0.91014 0.12789 0.0
C545 C 0.44147 0.92037 0.08969 0.0
C546 C 0.38676 0.89244 0.14127 0.0
C547 C 0.40298 0.92142 0.08022 0.0
C548 C 0.33386 0.84047 0.13724 0.0
C549 C 0.34888 0.82237 0.21502 0.0
N550 N 0.37691 0.90628 0.10537 0.0
N551 N 0.36641 0.85475 0.19903 0.0
H552 H 0.07835 0.36184 0.50139 0.0
H553 H 0.95826 0.16868 0.56018 0.0
H554 H 0.02759 0.33873 0.61425 0.0
H555 H 0.05606 0.16676 0.48735 0.0
H556 H 0.95871 0.24023 0.55394 0.0
H557 H 0.04726 0.29969 0.4746 0.0
C558 C 0.06041 0.34443 0.52055 0.0
C559 C 0.05717 0.35548 0.56092 0.0
C560 C 0.97896 0.22392 0.5377 0.0
C561 C 0.01963 0.28554 0.52925 0.0
C562 C 0.97842 0.18306 0.54084 0.0
C563 C 0.00733 0.16213 0.52446 0.0
C564 C 0.00887 0.24369 0.51841 0.0
C565 C 0.03331 0.18209 0.50037 0.0
C566 C 0.04223 0.30922 0.50485 0.0
C567 C 0.03163 0.33227 0.58317 0.0
N568 N 0.03417 0.22213 0.49892 0.0
N569 N 0.01436 0.29833 0.56718 0.0
H570 H 0.5527 0.196 0.38225 0.0
H571 H 0.55787 0.37751 0.52562 0.0
H572 H 0.60155 0.18453 0.49949 0.0
H573 H 0.46451 0.34682 0.44382 0.0
H574 H 0.57519 0.3084 0.52085 0.0
H575 H 0.52152 0.25242 0.40617 0.0
C576 C 0.55629 0.20433 0.41337 0.0
C577 C 0.57975 0.18435 0.43881 0.0
C578 C 0.55024 0.31667 0.50501 0.0
C579 C 0.54499 0.25167 0.46603 0.0
C580 C 0.54026 0.35596 0.50786 0.0
C581 C 0.51018 0.36783 0.48444 0.0
C582 C 0.53005 0.28977 0.47838 0.0
C583 C 0.48836 0.33895 0.46173 0.0
C584 C 0.53854 0.23721 0.42694 0.0
C585 C 0.58428 0.19896 0.47841 0.0
N586 N 0.49916 0.3015 0.45865 0.0
N587 N 0.56758 0.23218 0.49067 0.0
loop_
_geom_bond_atom_site_label_1
_geom_bond_atom_site_label_2
_geom_bond_distance
_geom_bond_site_symmetry_2
_ccdc_geom_bond_type
H0 C3 0.931 . S
H1 C6 0.928 . S
H2 C8 0.930 . S
C3 H0 0.931 . S
C3 C4 1.413 . S
C3 C5 1.360 . S
C4 C3 1.413 . S
C4 C8 1.429 . S
C5 C3 1.360 . S
C5 C6 1.372 . S
C6 H1 0.928 . S
C6 C5 1.372 . S
C6 C7 1.404 . S
C7 C6 1.404 . S
C7 C8 1.391 . S
C8 H2 0.930 . S
C8 C4 1.429 . S
C8 C7 1.391 . S
H9 C12 0.931 . S
H10 C15 0.928 . S
H11 C17 0.930 . S
C12 H9 0.931 . S
C12 C13 1.413 . S
C12 C14 1.360 . S
C13 C12 1.413 . S
C13 C17 1.429 . S
C14 C12 1.360 . S
C14 C15 1.372 . S
C15 H10 0.928 . S
C15 C14 1.372 . S
C15 C16 1.404 . S
C16 C15 1.404 . S
C16 C17 1.391 . S
C17 H11 0.930 . S
C17 C13 1.429 . S
C17 C16 1.391 . S
H18 C21 0.931 . S
H19 C24 0.928 . S
H20 C26 0.930 . S
C21 H18 0.931 . S
C21 C22 1.413 . S
C21 C23 1.360 . S
C22 C21 1.413 . S
C22 C26 1.429 . S
C23 C21 1.360 . S
C23 C24 1.372 . S
C24 H19 0.928 . S
C24 C23 1.372 . S
C24 C25 1.404 . S
C25 C24 1.404 . S
C25 C26 1.391 . S
C26 H20 0.930 . S
C26 C22 1.429 . S
C26 C25 1.391 . S
H27 C30 0.931 . S
H28 C33 0.928 . S
H29 C35 0.930 . S
C30 H27 0.931 . S
C30 C31 1.413 . S
C30 C32 1.360 . S
C31 C30 1.413 . S
C31 C35 1.429 . S
C32 C30 1.360 . S
C32 C33 1.372 . S
C33 H28 0.928 . S
C33 C32 1.372 . S
C33 C34 1.404 . S
C34 C33 1.404 . S
C34 C35 1.391 . S
C35 H29 0.930 . S
C35 C31 1.429 . S
C35 C34 1.391 . S
H36 C39 0.931 . S
H37 C42 0.928 . S
H38 C44 0.930 . S
C39 H36 0.931 . S
C39 C40 1.413 . S
C39 C41 1.360 . S
C40 C39 1.413 . S
C40 C44 1.429 . S
C41 C39 1.360 . S
C41 C42 1.372 . S
C42 H37 0.928 . S
C42 C41 1.372 . S
C42 C43 1.404 . S
C43 C42 1.404 . S
C43 C44 1.391 . S
C44 H38 0.930 . S
C44 C40 1.429 . S
C44 C43 1.391 . S
H45 C48 0.931 . S
H46 C51 0.928 . S
H47 C53 0.930 . S
C48 H45 0.931 . S
C48 C49 1.413 . S
C48 C50 1.360 . S
C49 C48 1.413 . S
C49 C53 1.429 . S
C50 C48 1.360 . S
C50 C51 1.372 . S
C51 H46 0.928 . S
C51 C50 1.372 . S
C51 C52 1.404 . S
C52 C51 1.404 . S
C52 C53 1.391 . S
C53 H47 0.930 . S
C53 C49 1.429 . S
C53 C52 1.391 . S
H54 C57 0.931 . S
H55 C60 0.928 . S
H56 C62 0.930 . S
C57 H54 0.931 . S
C57 C58 1.413 . S
C57 C59 1.360 . S
C58 C57 1.413 . S
C58 C62 1.429 . S
C59 C57 1.360 . S
C59 C60 1.372 . S
C60 H55 0.928 . S
C60 C59 1.372 . S
C60 C61 1.404 . S
C61 C60 1.404 . S
C61 C62 1.391 . S
C62 H56 0.930 . S
C62 C58 1.429 . S
C62 C61 1.391 . S
H63 C66 0.931 . S
H64 C69 0.928 . S
H65 C71 0.930 . S
C66 H63 0.931 . S
C66 C67 1.413 . S
C66 C68 1.360 . S
C67 C66 1.413 . S
C67 C71 1.429 . S
C68 C66 1.360 . S
C68 C69 1.372 . S
C69 H64 0.928 . S
C69 C68 1.372 . S
C69 C70 1.404 . S
C70 C69 1.404 . S
C70 C71 1.391 . S
C71 H65 0.930 . S
C71 C67 1.429 . S
C71 C70 1.391 . S
O72 Mg73 1.990 . S
O72 C86 1.253 1_445 S
Mg73 O72 1.990 . S
Mg73 O76 2.180 . S
Mg73 O77 2.117 . S
Mg73 O91 2.030 1_545 S
O74 Mg75 2.072 1_665 S
O74 C86 1.260 . S
Mg75 O74 2.072 1_445 S
Mg75 O76 2.099 . S
Mg75 O78 2.079 . S
Mg75 O79 2.072 1_455 S
Mg75 O81 2.099 1_445 S
Mg75 O92 2.079 1_545 S
O76 Mg73 2.180 . S
O76 Mg75 2.099 . S
O76 C87 1.279 . S
O77 Mg73 2.117 . S
O77 C87 1.250 . S
O78 Mg75 2.079 . S
O78 C88 1.264 . S
O79 Mg75 2.072 1_655 S
O79 C89 1.260 . S
Mg80 O81 2.180 . S
Mg80 O82 2.030 1_565 S
Mg80 O83 1.990 1_565 S
Mg80 O84 2.117 . S
O81 Mg75 2.099 1_665 S
O81 Mg80 2.180 . S
O81 C90 1.279 . S
O82 Mg80 2.030 1_545 S
O82 C88 1.248 1_655 S
O83 Mg80 1.990 1_545 S
O83 C89 1.253 . S
O84 Mg80 2.117 . S
O84 C90 1.250 . S
C85 O91 1.248 . S
C85 O92 1.264 . S
C86 O72 1.253 1_665 S
C86 O74 1.260 . S
C87 O76 1.279 . S
C87 O77 1.250 . S
C88 O78 1.264 . S
C88 O82 1.248 1_455 S
C89 O79 1.260 . S
C89 O83 1.253 . S
C90 O81 1.279 . S
C90 O84 1.250 . S
O91 Mg73 2.030 1_565 S
O91 C85 1.248 . S
O92 Mg75 2.079 1_565 S
O92 C85 1.264 . S
O93 Mg94 1.990 . S
O93 C107 1.253 . S
Mg94 O93 1.990 . S
Mg94 O97 2.181 1_554 S
Mg94 O98 2.117 1_554 S
Mg94 O112 2.030 . S
O95 Mg96 2.072 . S
O95 C107 1.260 . S
Mg96 O95 2.072 . S
Mg96 O97 2.099 1_554 S
Mg96 O99 2.079 1_544 S
Mg96 O100 2.072 1_554 S
Mg96 O102 2.099 1_545 S
Mg96 O113 2.079 . S
O97 Mg94 2.181 1_556 S
O97 Mg96 2.099 1_556 S
O97 C108 1.278 . S
O98 Mg94 2.117 1_556 S
O98 C108 1.250 . S
O99 Mg96 2.079 1_566 S
O99 C109 1.264 . S
O100 Mg96 2.072 1_556 S
O100 C110 1.260 1_545 S
Mg101 O102 2.180 1_556 S
Mg101 O103 2.030 . S
Mg101 O104 1.990 . S
Mg101 O105 2.117 1_556 S
O102 Mg96 2.099 1_565 S
O102 Mg101 2.180 1_554 S
O102 C111 1.279 . S
O103 Mg101 2.030 . S
O103 C109 1.248 . S
O104 Mg101 1.990 . S
O104 C110 1.253 . S
O105 Mg101 2.117 1_554 S
O105 C111 1.250 . S
C106 O112 1.248 . S
C106 O113 1.264 . S
C107 O93 1.253 . S
C107 O95 1.260 . S
C108 O97 1.278 . S
C108 O98 1.250 . S
C109 O99 1.264 . S
C109 O103 1.248 . S
C110 O100 1.260 1_565 S
C110 O104 1.253 . S
C111 O102 1.279 . S
C111 O105 1.250 . S
O112 Mg94 2.030 . S
O112 C106 1.248 . S
O113 Mg96 2.079 . S
O113 C106 1.264 . S
O114 Mg115 1.990 . S
O114 C128 1.253 . S
Mg115 O114 1.990 . S
Mg115 O118 2.180 . S
Mg115 O119 2.117 . S
Mg115 O133 2.030 . S
O116 Mg117 2.072 . S
O116 C128 1.260 . S
Mg117 O116 2.072 . S
Mg117 O118 2.099 . S
Mg117 O120 2.079 . S
Mg117 O121 2.072 . S
Mg117 O123 2.099 . S
Mg117 O134 2.079 . S
O118 Mg115 2.180 . S
O118 Mg117 2.099 . S
O118 C129 1.279 . S
O119 Mg115 2.117 . S
O119 C129 1.250 . S
O120 Mg117 2.079 . S
O120 C130 1.264 . S
O121 Mg117 2.072 . S
O121 C131 1.260 . S
Mg122 O123 2.180 . S
Mg122 O124 2.030 . S
Mg122 O125 1.990 . S
Mg122 O126 2.117 . S
O123 Mg117 2.099 . S
O123 Mg122 2.180 . S
O123 C132 1.279 . S
O124 Mg122 2.030 . S
O124 C130 1.248 . S
O125 Mg122 1.990 . S
O125 C131 1.253 . S
O126 Mg122 2.117 . S
O126 C132 1.250 . S
C127 O133 1.248 . S
C127 O134 1.264 . S
C128 O114 1.253 . S
C128 O116 1.260 . S
C129 O118 1.279 . S
C129 O119 1.250 . S
C130 O120 1.264 . S
C130 O124 1.248 . S
C131 O121 1.260 . S
C131 O125 1.253 . S
C132 O123 1.279 . S
C132 O126 1.250 . S
O133 Mg115 2.030 . S
O133 C127 1.248 . S
O134 Mg117 2.079 . S
O134 C127 1.264 . S
O135 Mg136 1.990 . S
O135 C149 1.253 . S
Mg136 O135 1.990 . S
Mg136 O139 2.180 1_455 S
Mg136 O140 2.117 1_455 S
Mg136 O154 2.030 . S
O137 Mg138 2.072 . S
O137 C149 1.260 . S
Mg138 O137 2.072 . S
Mg138 O139 2.099 1_455 S
Mg138 O141 2.079 1_454 S
Mg138 O142 2.072 1_455 S
Mg138 O144 2.099 1_554 S
Mg138 O155 2.079 . S
O139 Mg136 2.180 1_655 S
O139 Mg138 2.099 1_655 S
O139 C150 1.279 . S
O140 Mg136 2.117 1_655 S
O140 C150 1.250 . S
O141 Mg138 2.079 1_656 S
O141 C151 1.264 . S
O142 Mg138 2.072 1_655 S
O142 C152 1.260 1_554 S
Mg143 O144 2.180 1_655 S
Mg143 O145 2.030 . S
Mg143 O146 1.990 . S
Mg143 O147 2.117 . S
O144 Mg138 2.099 1_556 S
O144 Mg143 2.180 1_455 S
O144 C153 1.279 . S
O145 Mg143 2.030 . S
O145 C151 1.248 . S
O146 Mg143 1.990 . S
O146 C152 1.253 . S
O147 Mg143 2.117 . S
O147 C153 1.250 1_655 S
C148 O154 1.248 . S
C148 O155 1.264 . S
C149 O135 1.253 . S
C149 O137 1.260 . S
C150 O139 1.279 . S
C150 O140 1.250 . S
C151 O141 1.264 . S
C151 O145 1.248 . S
C152 O142 1.260 1_556 S
C152 O146 1.253 . S
C153 O144 1.279 . S
C153 O147 1.250 1_455 S
O154 Mg136 2.030 . S
O154 C148 1.248 . S
O155 Mg138 2.079 . S
O155 C148 1.264 . S
H156 C162 0.930 . S
H157 C166 0.930 1_565 S
H158 C171 0.929 . S
H159 C169 0.929 . S
H160 C164 0.929 . S
H161 C170 0.929 . S
C162 H156 0.930 . S
C162 C163 1.367 . S
C162 C170 1.378 . S
C163 C162 1.367 . S
C163 C171 1.433 . S
C164 H160 0.929 . S
C164 C166 1.378 . S
C164 C168 1.350 . S
C165 C168 1.463 . S
C165 C170 1.350 . S
C165 N173 1.427 . S
C166 H157 0.930 1_545 S
C166 C164 1.378 . S
C166 C167 1.367 . S
C167 C166 1.367 . S
C167 C169 1.433 . S
C168 C164 1.350 . S
C168 C165 1.463 . S
C168 N172 1.427 . S
C169 H159 0.929 . S
C169 C167 1.433 . S
C169 N172 1.384 . S
C170 H161 0.929 . S
C170 C162 1.378 . S
C170 C165 1.350 . S
C171 H158 0.929 . S
C171 C163 1.433 . S
C171 N173 1.384 . S
N172 C168 1.427 . S
N172 C169 1.384 . S
N173 C165 1.427 . S
N173 C171 1.384 . S
H174 C180 0.930 . S
H175 C184 0.930 . S
H176 C189 0.929 . S
H177 C187 0.929 . S
H178 C182 0.929 . S
H179 C188 0.929 . S
C180 H174 0.930 . S
C180 C181 1.367 . S
C180 C188 1.378 . S
C181 C180 1.367 . S
C181 C189 1.433 . S
C182 H178 0.929 . S
C182 C184 1.378 . S
C182 C186 1.350 . S
C183 C186 1.463 . S
C183 C188 1.350 . S
C183 N191 1.427 . S
C184 H175 0.930 . S
C184 C182 1.378 . S
C184 C185 1.367 . S
C185 C184 1.367 . S
C185 C187 1.433 1_565 S
C186 C182 1.350 . S
C186 C183 1.463 . S
C186 N190 1.427 . S
C187 H177 0.929 . S
C187 C185 1.433 1_545 S
C187 N190 1.384 1_545 S
C188 H179 0.929 . S
C188 C180 1.378 . S
C188 C183 1.350 . S
C189 H176 0.929 . S
C189 C181 1.433 . S
C189 N191 1.384 . S
N190 C186 1.427 . S
N190 C187 1.384 1_565 S
N191 C183 1.427 . S
N191 C189 1.384 . S
H192 C198 0.930 . S
H193 C202 0.930 . S
H194 C207 0.929 . S
H195 C205 0.929 . S
H196 C200 0.929 . S
H197 C206 0.929 . S
C198 H192 0.930 . S
C198 C199 1.367 . S
C198 C206 1.378 . S
C199 C198 1.367 . S
C199 C207 1.433 . S
C200 H196 0.929 . S
C200 C202 1.378 . S
C200 C204 1.350 . S
C201 C204 1.463 . S
C201 C206 1.350 . S
C201 N209 1.427 . S
C202 H193 0.930 . S
C202 C200 1.378 . S
C202 C203 1.367 . S
C203 C202 1.367 . S
C203 C205 1.433 . S
C204 C200 1.350 . S
C204 C201 1.463 . S
C204 N208 1.427 . S
C205 H195 0.929 . S
C205 C203 1.433 . S
C205 N208 1.384 . S
C206 H197 0.929 . S
C206 C198 1.378 . S
C206 C201 1.350 . S
C207 H194 0.929 . S
C207 C199 1.433 . S
C207 N209 1.384 . S
N208 C204 1.427 . S
N208 C205 1.384 . S
N209 C201 1.427 . S
N209 C207 1.384 . S
H210 C216 0.930 . S
H211 C220 0.930 . S
H212 C225 0.929 . S
H213 C223 0.929 . S
H214 C218 0.929 . S
H215 C224 0.929 . S
C216 H210 0.930 . S
C216 C217 1.367 . S
C216 C224 1.378 . S
C217 C216 1.367 . S
C217 C225 1.433 . S
C218 H214 0.929 . S
C218 C220 1.378 . S
C218 C222 1.350 . S
C219 C222 1.463 . S
C219 C224 1.350 . S
C219 N227 1.427 . S
C220 H211 0.930 . S
C220 C218 1.378 . S
C220 C221 1.367 . S
C221 C220 1.367 . S
C221 C223 1.433 . S
C222 C218 1.350 . S
C222 C219 1.463 . S
C222 N226 1.427 . S
C223 H213 0.929 . S
C223 C221 1.433 . S
C223 N226 1.384 . S
C224 H215 0.929 . S
C224 C216 1.378 . S
C224 C219 1.350 . S
C225 H212 0.929 . S
C225 C217 1.433 . S
C225 N227 1.384 . S
N226 C222 1.427 . S
N226 C223 1.384 . S
N227 C219 1.427 . S
N227 C225 1.384 . S
H228 C234 0.930 . S
H229 C238 0.930 . S
H230 C243 0.929 . S
H231 C241 0.929 . S
H232 C236 0.929 . S
H233 C242 0.929 . S
C234 H228 0.930 . S
C234 C235 1.367 . S
C234 C242 1.378 . S
C235 C234 1.367 . S
C235 C243 1.433 . S
C236 H232 0.929 . S
C236 C238 1.378 . S
C236 C240 1.350 . S
C237 C240 1.463 . S
C237 C242 1.350 . S
C237 N245 1.427 . S
C238 H229 0.930 . S
C238 C236 1.378 . S
C238 C239 1.367 . S
C239 C238 1.367 . S
C239 C241 1.433 . S
C240 C236 1.350 . S
C240 C237 1.463 . S
C240 N244 1.427 . S
C241 H231 0.929 . S
C241 C239 1.433 . S
C241 N244 1.384 . S
C242 H233 0.929 . S
C242 C234 1.378 . S
C242 C237 1.350 . S
C243 H230 0.929 . S
C243 C235 1.433 . S
C243 N245 1.384 . S
N244 C240 1.427 . S
N244 C241 1.384 . S
N245 C237 1.427 . S
N245 C243 1.384 . S
H246 C252 0.930 . S
H247 C256 0.930 . S
H248 C261 0.929 . S
H249 C259 0.929 1_545 S
H250 C254 0.929 . S
H251 C260 0.929 . S
C252 H246 0.930 . S
C252 C253 1.367 . S
C252 C260 1.378 . S
C253 C252 1.367 . S
C253 C261 1.433 . S
C254 H250 0.929 . S
C254 C256 1.378 . S
C254 C258 1.350 . S
C255 C258 1.463 . S
C255 C260 1.350 . S
C255 N263 1.427 . S
C256 H247 0.930 . S
C256 C254 1.378 . S
C256 C257 1.367 . S
C257 C256 1.367 . S
C257 C259 1.433 . S
C258 C254 1.350 . S
C258 C255 1.463 . S
C258 N262 1.427 . S
C259 H249 0.929 1_565 S
C259 C257 1.433 . S
C259 N262 1.384 . S
C260 H251 0.929 . S
C260 C252 1.378 . S
C260 C255 1.350 . S
C261 H248 0.929 . S
C261 C253 1.433 . S
C261 N263 1.384 . S
N262 C258 1.427 . S
N262 C259 1.384 . S
N263 C255 1.427 . S
N263 C261 1.384 . S
H264 C270 0.930 . S
H265 C274 0.930 1_554 S
H266 C279 0.929 . S
H267 C277 0.929 . S
H268 C272 0.929 . S
H269 C278 0.929 . S
C270 H264 0.930 . S
C270 C271 1.367 . S
C270 C278 1.378 . S
C271 C270 1.367 . S
C271 C279 1.433 . S
C272 H268 0.929 . S
C272 C274 1.378 . S
C272 C276 1.350 . S
C273 C276 1.463 . S
C273 C278 1.350 . S
C273 N281 1.427 . S
C274 H265 0.930 1_556 S
C274 C272 1.378 . S
C274 C275 1.367 . S
C275 C274 1.367 . S
C275 C277 1.433 . S
C276 C272 1.350 . S
C276 C273 1.463 . S
C276 N280 1.427 . S
C277 H267 0.929 . S
C277 C275 1.433 . S
C277 N280 1.384 . S
C278 H269 0.929 . S
C278 C270 1.378 . S
C278 C273 1.350 . S
C279 H266 0.929 . S
C279 C271 1.433 . S
C279 N281 1.384 . S
N280 C276 1.427 . S
N280 C277 1.384 . S
N281 C273 1.427 . S
N281 C279 1.384 . S
H282 C288 0.930 . S
H283 C292 0.930 . S
H284 C297 0.929 . S
H285 C295 0.929 . S
H286 C290 0.929 . S
H287 C296 0.929 . S
C288 H282 0.930 . S
C288 C289 1.367 . S
C288 C296 1.378 . S
C289 C288 1.367 . S
C289 C297 1.433 . S
C290 H286 0.929 . S
C290 C292 1.378 . S
C290 C294 1.350 . S
C291 C294 1.463 . S
C291 C296 1.350 . S
C291 N299 1.427 . S
C292 H283 0.930 . S
C292 C290 1.378 . S
C292 C293 1.367 . S
C293 C292 1.367 . S
C293 C295 1.433 . S
C294 C290 1.350 . S
C294 C291 1.463 . S
C294 N298 1.427 . S
C295 H285 0.929 . S
C295 C293 1.433 . S
C295 N298 1.384 . S
C296 H287 0.929 . S
C296 C288 1.378 . S
C296 C291 1.350 . S
C297 H284 0.929 . S
C297 C289 1.433 . S
C297 N299 1.384 . S
N298 C294 1.427 . S
N298 C295 1.384 . S
N299 C291 1.427 . S
N299 C297 1.384 . S
H300 C306 0.930 . S
H301 C310 0.930 . S
H302 C315 0.929 . S
H303 C313 0.929 . S
H304 C308 0.929 . S
H305 C314 0.929 . S
C306 H300 0.930 . S
C306 C307 1.367 . S
C306 C314 1.378 . S
C307 C306 1.367 . S
C307 C315 1.433 . S
C308 H304 0.929 . S
C308 C310 1.378 . S
C308 C312 1.350 . S
C309 C312 1.463 . S
C309 C314 1.350 . S
C309 N317 1.427 . S
C310 H301 0.930 . S
C310 C308 1.378 . S
C310 C311 1.367 . S
C311 C310 1.367 . S
C311 C313 1.433 . S
C312 C308 1.350 . S
C312 C309 1.463 . S
C312 N316 1.427 . S
C313 H303 0.929 . S
C313 C311 1.433 . S
C313 N316 1.384 . S
C314 H305 0.929 . S
C314 C306 1.378 . S
C314 C309 1.350 . S
C315 H302 0.929 . S
C315 C307 1.433 . S
C315 N317 1.384 . S
N316 C312 1.427 . S
N316 C313 1.384 . S
N317 C309 1.427 . S
N317 C315 1.384 . S
H318 C324 0.930 . S
H319 C328 0.930 1_554 S
H320 C333 0.929 . S
H321 C331 0.929 . S
H322 C326 0.929 . S
H323 C332 0.929 . S
C324 H318 0.930 . S
C324 C325 1.367 . S
C324 C332 1.378 . S
C325 C324 1.367 . S
C325 C333 1.433 . S
C326 H322 0.929 . S
C326 C328 1.378 . S
C326 C330 1.350 . S
C327 C330 1.463 . S
C327 C332 1.350 . S
C327 N335 1.427 . S
C328 H319 0.930 1_556 S
C328 C326 1.378 . S
C328 C329 1.367 . S
C329 C328 1.367 . S
C329 C331 1.433 . S
C330 C326 1.350 . S
C330 C327 1.463 . S
C330 N334 1.427 . S
C331 H321 0.929 . S
C331 C329 1.433 . S
C331 N334 1.384 . S
C332 H323 0.929 . S
C332 C324 1.378 . S
C332 C327 1.350 . S
C333 H320 0.929 . S
C333 C325 1.433 . S
C333 N335 1.384 . S
N334 C330 1.427 . S
N334 C331 1.384 . S
N335 C327 1.427 . S
N335 C333 1.384 . S
H336 C342 0.930 . S
H337 C346 0.930 . S
H338 C351 0.929 . S
H339 C349 0.929 . S
H340 C344 0.929 . S
H341 C350 0.929 . S
C342 H336 0.930 . S
C342 C343 1.367 . S
C342 C350 1.378 . S
C343 C342 1.367 . S
C343 C351 1.433 . S
C344 H340 0.929 . S
C344 C346 1.378 . S
C344 C348 1.350 . S
C345 C348 1.463 . S
C345 C350 1.350 . S
C345 N353 1.427 . S
C346 H337 0.930 . S
C346 C344 1.378 . S
C346 C347 1.367 . S
C347 C346 1.367 . S
C347 C349 1.433 . S
C348 C344 1.350 . S
C348 C345 1.463 . S
C348 N352 1.427 . S
C349 H339 0.929 . S
C349 C347 1.433 . S
C349 N352 1.384 . S
C350 H341 0.929 . S
C350 C342 1.378 . S
C350 C345 1.350 . S
C351 H338 0.929 . S
C351 C343 1.433 . S
C351 N353 1.384 . S
N352 C348 1.427 . S
N352 C349 1.384 . S
N353 C345 1.427 . S
N353 C351 1.384 . S
H354 C360 0.930 . S
H355 C364 0.930 . S
H356 C369 0.929 . S
H357 C367 0.929 . S
H358 C362 0.929 . S
H359 C368 0.929 . S
C360 H354 0.930 . S
C360 C361 1.367 . S
C360 C368 1.378 . S
C361 C360 1.367 . S
C361 C369 1.433 . S
C362 H358 0.929 . S
C362 C364 1.378 . S
C362 C366 1.350 . S
C363 C366 1.463 . S
C363 C368 1.350 . S
C363 N371 1.427 . S
C364 H355 0.930 . S
C364 C362 1.378 . S
C364 C365 1.367 . S
C365 C364 1.367 . S
C365 C367 1.433 . S
C366 C362 1.350 . S
C366 C363 1.463 . S
C366 N370 1.427 . S
C367 H357 0.929 . S
C367 C365 1.433 . S
C367 N370 1.384 . S
C368 H359 0.929 . S
C368 C360 1.378 . S
C368 C363 1.350 . S
C369 H356 0.929 . S
C369 C361 1.433 . S
C369 N371 1.384 . S
N370 C366 1.427 . S
N370 C367 1.384 . S
N371 C363 1.427 . S
N371 C369 1.384 . S
H372 C378 0.930 . S
H373 C382 0.930 . S
H374 C387 0.929 . S
H375 C385 0.914 1_445 S
H376 C380 0.929 . S
H377 C386 0.929 . S
C378 H372 0.930 . S
C378 C379 1.367 . S
C378 C386 1.378 . S
C379 C378 1.367 . S
C379 C387 1.433 . S
C380 H376 0.929 . S
C380 C382 1.378 . S
C380 C384 1.350 . S
C381 C384 1.463 . S
C381 C386 1.350 . S
C381 N389 1.427 . S
C382 H373 0.930 . S
C382 C380 1.378 . S
C382 C383 1.367 . S
C383 C382 1.367 . S
C383 C385 1.433 . S
C384 C380 1.350 . S
C384 C381 1.463 . S
C384 N388 1.427 . S
C385 H375 0.914 1_665 S
C385 C383 1.433 . S
C385 N388 1.384 . S
C386 H377 0.929 . S
C386 C378 1.378 . S
C386 C381 1.350 . S
C387 H374 0.929 . S
C387 C379 1.433 . S
C387 N389 1.384 . S
N388 C384 1.427 . S
N388 C385 1.384 . S
N389 C381 1.427 . S
N389 C387 1.384 . S
H390 C396 0.930 . S
H391 C400 0.930 . S
H392 C405 0.929 . S
H393 C403 0.929 . S
H394 C398 0.929 . S
H395 C404 0.929 . S
C396 H390 0.930 . S
C396 C397 1.367 . S
C396 C404 1.378 . S
C397 C396 1.367 . S
C397 C405 1.433 . S
C398 H394 0.929 . S
C398 C400 1.378 . S
C398 C402 1.350 . S
C399 C402 1.463 . S
C399 C404 1.350 . S
C399 N407 1.427 . S
C400 H391 0.930 . S
C400 C398 1.378 . S
C400 C401 1.367 . S
C401 C400 1.367 . S
C401 C403 1.433 . S
C402 C398 1.350 . S
C402 C399 1.463 . S
C402 N406 1.427 . S
C403 H393 0.929 . S
C403 C401 1.433 . S
C403 N406 1.384 . S
C404 H395 0.929 . S
C404 C396 1.378 . S
C404 C399 1.350 . S
C405 H392 0.929 . S
C405 C397 1.433 . S
C405 N407 1.384 . S
N406 C402 1.427 . S
N406 C403 1.384 . S
N407 C399 1.427 . S
N407 C405 1.384 . S
H408 C414 0.930 . S
H409 C418 0.930 . S
H410 C423 0.929 . S
H411 C421 0.929 . S
H412 C416 0.929 . S
H413 C422 0.929 . S
C414 H408 0.930 . S
C414 C415 1.367 . S
C414 C422 1.378 . S
C415 C414 1.367 . S
C415 C423 1.433 . S
C416 H412 0.929 . S
C416 C418 1.378 . S
C416 C420 1.350 . S
C417 C420 1.463 . S
C417 C422 1.350 . S
C417 N425 1.427 . S
C418 H409 0.930 . S
C418 C416 1.378 . S
C418 C419 1.367 . S
C419 C418 1.367 . S
C419 C421 1.433 . S
C420 C416 1.350 . S
C420 C417 1.463 . S
C420 N424 1.427 . S
C421 H411 0.929 . S
C421 C419 1.433 . S
C421 N424 1.384 . S
C422 H413 0.929 . S
C422 C414 1.378 . S
C422 C417 1.350 . S
C423 H410 0.929 . S
C423 C415 1.433 . S
C423 N425 1.384 . S
N424 C420 1.427 . S
N424 C421 1.384 . S
N425 C417 1.427 . S
N425 C423 1.384 . S
H426 C432 0.930 . S
H427 C436 0.930 . S
H428 C441 0.929 . S
H429 C439 0.929 . S
H430 C434 0.929 . S
H431 C440 0.929 . S
C432 H426 0.930 . S
C432 C433 1.367 . S
C432 C440 1.378 . S
C433 C432 1.367 . S
C433 C441 1.433 . S
C434 H430 0.929 . S
C434 C436 1.378 . S
C434 C438 1.350 . S
C435 C438 1.463 . S
C435 C440 1.350 . S
C435 N443 1.427 . S
C436 H427 0.930 . S
C436 C434 1.378 . S
C436 C437 1.367 . S
C437 C436 1.367 . S
C437 C439 1.433 . S
C438 C434 1.350 . S
C438 C435 1.463 . S
C438 N442 1.427 . S
C439 H429 0.929 . S
C439 C437 1.433 . S
C439 N442 1.384 . S
C440 H431 0.929 . S
C440 C432 1.378 . S
C440 C435 1.350 . S
C441 H428 0.929 . S
C441 C433 1.433 . S
C441 N443 1.384 . S
N442 C438 1.427 . S
N442 C439 1.384 . S
N443 C435 1.427 . S
N443 C441 1.384 . S
H444 C450 0.930 . S
H445 C454 0.930 1_545 S
H446 C459 0.929 . S
H447 C457 0.929 . S
H448 C452 0.929 1_545 S
H449 C458 0.929 . S
C450 H444 0.930 . S
C450 C451 1.367 . S
C450 C458 1.378 . S
C451 C450 1.367 . S
C451 C459 1.433 . S
C452 H448 0.929 1_565 S
C452 C454 1.378 . S
C452 C456 1.350 . S
C453 C456 1.463 . S
C453 C458 1.350 . S
C453 N461 1.427 . S
C454 H445 0.930 1_565 S
C454 C452 1.378 . S
C454 C455 1.367 . S
C455 C454 1.367 . S
C455 C457 1.433 . S
C456 C452 1.350 . S
C456 C453 1.463 . S
C456 N460 1.427 . S
C457 H447 0.929 . S
C457 C455 1.433 . S
C457 N460 1.384 . S
C458 H449 0.929 . S
C458 C450 1.378 . S
C458 C453 1.350 . S
C459 H446 0.929 . S
C459 C451 1.433 . S
C459 N461 1.384 . S
N460 C456 1.427 . S
N460 C457 1.384 . S
N461 C453 1.427 . S
N461 C459 1.384 . S
H462 C468 0.930 . S
H463 C472 0.930 . S
H464 C477 0.929 . S
H465 C475 0.929 . S
H466 C470 0.929 . S
H467 C476 0.929 . S
C468 H462 0.930 . S
C468 C469 1.367 . S
C468 C476 1.378 . S
C469 C468 1.367 . S
C469 C477 1.433 . S
C470 H466 0.929 . S
C470 C472 1.378 . S
C470 C474 1.350 . S
C471 C474 1.463 . S
C471 C476 1.350 . S
C471 N479 1.427 . S
C472 H463 0.930 . S
C472 C470 1.378 . S
C472 C473 1.367 . S
C473 C472 1.367 . S
C473 C475 1.433 . S
C474 C470 1.350 . S
C474 C471 1.463 . S
C474 N478 1.427 . S
C475 H465 0.929 . S
C475 C473 1.433 . S
C475 N478 1.384 . S
C476 H467 0.929 . S
C476 C468 1.378 . S
C476 C471 1.350 . S
C477 H464 0.929 . S
C477 C469 1.433 . S
C477 N479 1.384 . S
N478 C474 1.427 . S
N478 C475 1.384 . S
N479 C471 1.427 . S
N479 C477 1.384 . S
H480 C486 0.930 . S
H481 C490 0.930 1_556 S
H482 C495 0.929 . S
H483 C493 0.929 . S
H484 C488 0.929 . S
H485 C494 0.929 . S
C486 H480 0.930 . S
C486 C487 1.367 . S
C486 C494 1.378 . S
C487 C486 1.367 . S
C487 C495 1.433 . S
C488 H484 0.929 . S
C488 C490 1.378 . S
C488 C492 1.350 . S
C489 C492 1.463 . S
C489 C494 1.350 . S
C489 N497 1.427 . S
C490 H481 0.930 1_554 S
C490 C488 1.378 . S
C490 C491 1.367 . S
C491 C490 1.367 . S
C491 C493 1.433 . S
C492 C488 1.350 . S
C492 C489 1.463 . S
C492 N496 1.427 . S
C493 H483 0.929 . S
C493 C491 1.433 . S
C493 N496 1.384 . S
C494 H485 0.929 . S
C494 C486 1.378 . S
C494 C489 1.350 . S
C495 H482 0.929 . S
C495 C487 1.433 . S
C495 N497 1.384 . S
N496 C492 1.427 . S
N496 C493 1.384 . S
N497 C489 1.427 . S
N497 C495 1.384 . S
H498 C504 0.930 . S
H499 C508 0.930 . S
H500 C513 0.929 . S
H501 C511 0.929 . S
H502 C506 0.929 . S
H503 C512 0.929 . S
C504 H498 0.930 . S
C504 C505 1.367 . S
C504 C512 1.378 . S
C505 C504 1.367 . S
C505 C513 1.433 . S
C506 H502 0.929 . S
C506 C508 1.378 . S
C506 C510 1.350 . S
C507 C510 1.463 . S
C507 C512 1.350 . S
C507 N515 1.427 . S
C508 H499 0.930 . S
C508 C506 1.378 . S
C508 C509 1.367 . S
C509 C508 1.367 . S
C509 C511 1.433 . S
C510 C506 1.350 . S
C510 C507 1.463 . S
C510 N514 1.427 . S
C511 H501 0.929 . S
C511 C509 1.433 . S
C511 N514 1.384 . S
C512 H503 0.929 . S
C512 C504 1.378 . S
C512 C507 1.350 . S
C513 H500 0.929 . S
C513 C505 1.433 . S
C513 N515 1.384 . S
N514 C510 1.427 . S
N514 C511 1.384 . S
N515 C507 1.427 . S
N515 C513 1.384 . S
H516 C522 0.930 . S
H517 C526 0.930 1_554 S
H518 C531 0.929 . S
H519 C529 0.929 . S
H520 C524 0.929 1_554 S
H521 C530 0.929 . S
C522 H516 0.930 . S
C522 C523 1.367 . S
C522 C530 1.378 . S
C523 C522 1.367 . S
C523 C531 1.433 . S
C524 H520 0.929 1_556 S
C524 C526 1.378 . S
C524 C528 1.350 . S
C525 C528 1.463 . S
C525 C530 1.350 . S
C525 N533 1.427 . S
C526 H517 0.930 1_556 S
C526 C524 1.378 . S
C526 C527 1.367 . S
C527 C526 1.367 . S
C527 C529 1.433 . S
C528 C524 1.350 . S
C528 C525 1.463 . S
C528 N532 1.427 . S
C529 H519 0.929 . S
C529 C527 1.433 . S
C529 N532 1.384 . S
C530 H521 0.929 . S
C530 C522 1.378 . S
C530 C525 1.350 . S
C531 H518 0.929 . S
C531 C523 1.433 . S
C531 N533 1.384 . S
N532 C528 1.427 . S
N532 C529 1.384 . S
N533 C525 1.427 . S
N533 C531 1.384 . S
H534 C540 0.930 . S
H535 C544 0.930 . S
H536 C549 0.929 . S
H537 C547 0.929 . S
H538 C542 0.929 . S
H539 C548 0.929 . S
C540 H534 0.930 . S
C540 C541 1.367 . S
C540 C548 1.378 . S
C541 C540 1.367 . S
C541 C549 1.433 . S
C542 H538 0.929 . S
C542 C544 1.378 . S
C542 C546 1.350 . S
C543 C546 1.463 . S
C543 C548 1.350 . S
C543 N551 1.427 . S
C544 H535 0.930 . S
C544 C542 1.378 . S
C544 C545 1.367 . S
C545 C544 1.367 . S
C545 C547 1.433 . S
C546 C542 1.350 . S
C546 C543 1.463 . S
C546 N550 1.427 . S
C547 H537 0.929 . S
C547 C545 1.433 . S
C547 N550 1.384 . S
C548 H539 0.929 . S
C548 C540 1.378 . S
C548 C543 1.350 . S
C549 H536 0.929 . S
C549 C541 1.433 . S
C549 N551 1.384 . S
N550 C546 1.427 . S
N550 C547 1.384 . S
N551 C543 1.427 . S
N551 C549 1.384 . S
H552 C558 0.930 . S
H553 C562 0.930 . S
H554 C567 0.929 . S
H555 C565 0.929 . S
H556 C560 0.929 . S
H557 C566 0.929 . S
C558 H552 0.930 . S
C558 C559 1.367 . S
C558 C566 1.378 . S
C559 C558 1.367 . S
C559 C567 1.433 . S
C560 H556 0.929 . S
C560 C562 1.378 . S
C560 C564 1.350 . S
C561 C564 1.463 . S
C561 C566 1.350 . S
C561 N569 1.427 . S
C562 H553 0.930 . S
C562 C560 1.378 . S
C562 C563 1.367 . S
C563 C562 1.367 . S
C563 C565 1.433 . S
C564 C560 1.350 . S
C564 C561 1.463 . S
C564 N568 1.427 . S
C565 H555 0.929 . S
C565 C563 1.433 . S
C565 N568 1.384 . S
C566 H557 0.929 . S
C566 C558 1.378 . S
C566 C561 1.350 . S
C567 H554 0.929 . S
C567 C559 1.433 . S
C567 N569 1.384 . S
N568 C564 1.427 . S
N568 C565 1.384 . S
N569 C561 1.427 . S
N569 C567 1.384 . S
H570 C576 0.930 . S
H571 C580 0.930 . S
H572 C585 0.929 . S
H573 C583 0.929 . S
H574 C578 0.929 . S
H575 C584 0.929 . S
C576 H570 0.930 . S
C576 C577 1.367 . S
C576 C584 1.378 . S
C577 C576 1.367 . S
C577 C585 1.433 . S
C578 H574 0.929 . S
C578 C580 1.378 . S
C578 C582 1.350 . S
C579 C582 1.463 . S
C579 C584 1.350 . S
C579 N587 1.427 . S
C580 H571 0.930 . S
C580 C578 1.378 . S
C580 C581 1.367 . S
C581 C580 1.367 . S
C581 C583 1.433 . S
C582 C578 1.350 . S
C582 C579 1.463 . S
C582 N586 1.427 . S
C583 H573 0.929 . S
C583 C581 1.433 . S
C583 N586 1.384 . S
C584 H575 0.929 . S
C584 C576 1.378 . S
C584 C579 1.350 . S
C585 H572 0.929 . S
C585 C577 1.433 . S
C585 N587 1.384 . S
N586 C582 1.427 . S
N586 C583 1.384 . S
N587 C579 1.427 . S
N587 C585 1.384 . S
C163 C5 1.569 . S
C167 C88 1.530 . S
C181 C14 1.474 . S
C185 C110 1.396 . S
C203 C129 1.238 . S
C199 C25 1.454 . S
C217 C34 1.701 . S
C221 C150 1.414 . S
C239 C107 1.662 . S
C235 C7 1.720 . S
C257 C85 1.593 . S
C253 C13 1.639 . S
C275 C152 1.315 . S
C271 C23 1.383 . S
C293 C131 1.384 . S
C289 C31 1.437 . S
C307 C4 1.674 . S
C311 C149 1.609 . S
C329 C108 1.285 . S
C325 C22 1.569 . S
C343 C32 1.594 . S
C347 C90 1.382 . S
C361 C16 1.468 . S
C365 C128 1.444 . S
C383 C86 1.526 . S
C379 C41 1.577 . S
C397 C50 1.341 . S
C401 C106 1.302 . S
C415 C61 1.499 . S
C419 C132 1.283 . S
C433 C67 1.635 . S
C437 C153 1.350 . S
C451 C40 1.667 . S
C455 C109 1.632 . S
C473 C89 1.620 . S
C469 C52 1.692 . S
C491 C148 1.258 . S
C487 C59 1.307 . S
C509 C127 1.435 . S
C505 C70 1.500 . S
C523 C43 1.515 . S
C527 C151 1.476 . S
C545 C111 1.273 . S
C541 C58 1.504 . S
C563 C87 1.258 . S
C559 C68 1.454 . S
C577 C49 1.422 . S
C581 C130 1.397 . S
