# Generated by pormake.
# Topology nom, (4,4)-cn, num edge types: 1
# Building blocks:
#     Node 0, Type 0, BuildingBlock: MUDLON_clean_linker_0, # of connection points: 4
#     Node 1, Type 0, BuildingBlock: MUDLON_clean_linker_0, # of connection points: 4
#     Node 2, Type 0, BuildingBlock: MUDLON_clean_linker_0, # of connection points: 4
#     Node 3, Type 0, BuildingBlock: MUDLON_clean_linker_0, # of connection points: 4
#     Node 4, Type 0, BuildingBlock: MUDLON_clean_linker_0, # of connection points: 4
#     Node 5, Type 0, BuildingBlock: MUDLON_clean_linker_0, # of connection points: 4
#     Node 6, Type 1, BuildingBlock: QUQFOY_clean_sbu_3, # of connection points: 4
#     Node 7, Type 1, BuildingBlock: QUQFOY_clean_sbu_3, # of connection points: 4
#     Node 8, Type 1, BuildingBlock: QUQFOY_clean_sbu_3, # of connection points: 4
#     Node 9, Type 1, BuildingBlock: QUQFOY_clean_sbu_3, # of connection points: 4
#     Node 10, Type 1, BuildingBlock: QUQFOY_clean_sbu_3, # of connection points: 4
#     Node 11, Type 1, BuildingBlock: QUQFOY_clean_sbu_3, # of connection points: 4
#     Edge 12, Type (0, 1), BuildingBlock: MIFKUJ_clean_linker_0, # of connection points: 2
#     Edge 13, Type (0, 1), BuildingBlock: MIFKUJ_clean_linker_0, # of connection points: 2
#     Edge 14, Type (0, 1), BuildingBlock: MIFKUJ_clean_linker_0, # of connection points: 2
#     Edge 15, Type (0, 1), BuildingBlock: MIFKUJ_clean_linker_0, # of connection points: 2
#     Edge 16, Type (0, 1), BuildingBlock: MIFKUJ_clean_linker_0, # of connection points: 2
#     Edge 17, Type (0, 1), BuildingBlock: MIFKUJ_clean_linker_0, # of connection points: 2
#     Edge 18, Type (0, 1), BuildingBlock: MIFKUJ_clean_linker_0, # of connection points: 2
#     Edge 19, Type (0, 1), BuildingBlock: MIFKUJ_clean_linker_0, # of connection points: 2
#     Edge 20, Type (0, 1), BuildingBlock: MIFKUJ_clean_linker_0, # of connection points: 2
#     Edge 21, Type (0, 1), BuildingBlock: MIFKUJ_clean_linker_0, # of connection points: 2
#     Edge 22, Type (0, 1), BuildingBlock: MIFKUJ_clean_linker_0, # of connection points: 2
#     Edge 23, Type (0, 1), BuildingBlock: MIFKUJ_clean_linker_0, # of connection points: 2
#     Edge 24, Type (0, 1), BuildingBlock: MIFKUJ_clean_linker_0, # of connection points: 2
#     Edge 25, Type (0, 1), BuildingBlock: MIFKUJ_clean_linker_0, # of connection points: 2
#     Edge 26, Type (0, 1), BuildingBlock: MIFKUJ_clean_linker_0, # of connection points: 2
#     Edge 27, Type (0, 1), BuildingBlock: MIFKUJ_clean_linker_0, # of connection points: 2
#     Edge 28, Type (0, 1), BuildingBlock: MIFKUJ_clean_linker_0, # of connection points: 2
#     Edge 29, Type (0, 1), BuildingBlock: MIFKUJ_clean_linker_0, # of connection points: 2
#     Edge 30, Type (0, 1), BuildingBlock: MIFKUJ_clean_linker_0, # of connection points: 2
#     Edge 31, Type (0, 1), BuildingBlock: MIFKUJ_clean_linker_0, # of connection points: 2
#     Edge 32, Type (0, 1), BuildingBlock: MIFKUJ_clean_linker_0, # of connection points: 2
#     Edge 33, Type (0, 1), BuildingBlock: MIFKUJ_clean_linker_0, # of connection points: 2
#     Edge 34, Type (0, 1), BuildingBlock: MIFKUJ_clean_linker_0, # of connection points: 2
#     Edge 35, Type (0, 1), BuildingBlock: MIFKUJ_clean_linker_0, # of connection points: 2
# Relax obj value: 0.006
# Max RMSD: 0.103
# Mean RMSD: 0.061
data_MOF--net-nom--node1-QUQFOY_clean_sbu_3--node2-MUDLON_clean_linker_0--edge1-MIFKUJ_clean_linker_0
_symmetry_space_group_name_H-M    P1
_symmetry_Int_Tables_number       1
_symmetry_cell_setting            triclinic
loop_
_symmetry_equiv_pos_as_xyz
'x, y, z'
_cell_length_a     73.736989
_cell_length_b     76.443673
_cell_length_c     74.198324
_cell_angle_alpha  90.328287
_cell_angle_beta   89.850098
_cell_angle_gamma 120.49073
loop_
_atom_site_label
_atom_site_type_symbol
_atom_site_fract_x
_atom_site_fract_y
_atom_site_fract_z
_atom_type_partial_charge
H0 H 0.09367 0.55125 0.32427 0.0
N1 N 0.07019 0.56826 0.33434 0.0
H2 H 0.12327 0.56567 0.30347 0.0
H3 H 0.08297 0.60066 0.31372 0.0
H4 H 0.11333 0.61588 0.29352 0.0
H5 H 0.08566 0.59952 0.35683 0.0
H6 H 0.1035 0.60313 0.38548 0.0
H7 H 0.07269 0.53807 0.35166 0.0
H8 H 0.09039 0.5414 0.3805 0.0
H9 H 0.05813 0.53273 0.31547 0.0
H10 H 0.03486 0.56634 0.34455 0.0
H11 H 0.02239 0.50691 0.30772 0.0
H12 H -0.0012 0.53981 0.33789 0.0
H13 H 0.90419 0.42793 0.28124 0.0
H14 H 0.89086 0.42302 0.25034 0.0
H15 H 0.91897 0.48793 0.24481 0.0
H16 H 0.93176 0.49266 0.27556 0.0
H17 H 0.90523 0.48615 0.29948 0.0
H18 H 0.8754 0.48138 0.31704 0.0
H19 H 0.87045 0.4276 0.34091 0.0
H20 H 0.90182 0.43373 0.32432 0.0
H21 H 0.95413 0.45538 0.30781 0.0
H22 H 0.98995 0.47994 0.31766 0.0
H23 H 0.97536 0.52792 0.31386 0.0
N24 N 0.92322 0.46229 0.29997 0.0
H25 H 0.93978 0.50343 0.30527 0.0
C26 C 0.08595 0.57484 0.32041 0.0
C27 C 0.09746 0.56505 0.31724 0.0
C28 C 0.11461 0.57348 0.30548 0.0
C29 C 0.12088 0.59207 0.29691 0.0
C30 C 0.10883 0.60141 0.29963 0.0
C31 C 0.09151 0.59281 0.31123 0.0
C32 C 0.07796 0.56864 0.35218 0.0
C33 C 0.08632 0.58668 0.36214 0.0
C34 C 0.09641 0.58865 0.37852 0.0
C35 C 0.09838 0.57254 0.38526 0.0
C36 C 0.08929 0.55414 0.37555 0.0
C37 C 0.07911 0.55217 0.35914 0.0
C38 C 0.04926 0.55185 0.3303 0.0
C39 C 0.0454 0.53457 0.32033 0.0
C40 C 0.02478 0.51957 0.31606 0.0
C41 C 0.00759 0.5213 0.32197 0.0
C42 C 0.01158 0.53818 0.33263 0.0
C43 C 0.03216 0.5533 0.3366 0.0
C44 C 0.91896 0.46055 0.28086 0.0
C45 C 0.90784 0.44109 0.27319 0.0
C46 C 0.90028 0.43834 0.25554 0.0
C47 C 0.90369 0.45509 0.24519 0.0
C48 C 0.91579 0.47469 0.25255 0.0
C49 C 0.9233 0.47742 0.2702 0.0
C50 C 0.90616 0.46052 0.31089 0.0
C51 C 0.89829 0.47374 0.30892 0.0
C52 C 0.88078 0.47069 0.31876 0.0
C53 C 0.87023 0.45396 0.33036 0.0
C54 C 0.87828 0.44086 0.3324 0.0
C55 C 0.89614 0.44423 0.32285 0.0
C56 C 0.94417 0.47738 0.30565 0.0
C57 C 0.95874 0.47122 0.30922 0.0
C58 C 0.97924 0.48532 0.31473 0.0
C59 C 0.98566 0.506 0.31658 0.0
C60 C 0.97097 0.51211 0.31297 0.0
C61 C 0.95046 0.49799 0.30777 0.0
H62 H 0.50108 0.90297 0.471 0.0
N63 N 0.49551 0.93321 0.46152 0.0
H64 H 0.48011 0.87564 0.492 0.0
H65 H 0.46511 0.93143 0.48439 0.0
H66 H 0.44485 0.90488 0.50617 0.0
H67 H 0.45563 0.92088 0.44994 0.0
H68 H 0.44025 0.90439 0.42109 0.0
H69 H 0.51542 0.92868 0.43373 0.0
H70 H 0.50039 0.91266 0.40464 0.0
H71 H 0.53581 0.95915 0.46757 0.0
H72 H 0.47596 0.95562 0.46176 0.0
H73 H 0.55302 0.99579 0.47176 0.0
H74 H 0.49258 0.99201 0.46744 0.0
H75 H 0.59866 0.11033 0.50244 0.0
H76 H 0.59727 0.12331 0.53221 0.0
H77 H 0.52981 0.08275 0.53335 0.0
H78 H 0.5314 0.07048 0.50315 0.0
H79 H 0.53588 0.09263 0.47618 0.0
H80 H 0.53997 0.12133 0.45867 0.0
H81 H 0.60136 0.13387 0.44115 0.0
H82 H 0.5973 0.10538 0.45921 0.0
H83 H 0.57646 0.05741 0.49601 0.0
H84 H 0.55829 0.0208 0.49186 0.0
H85 H 0.51405 0.02429 0.456 0.0
N86 N 0.56672 0.08355 0.4825 0.0
H87 H 0.53136 0.06064 0.46137 0.0
C88 C 0.48487 0.91933 0.47612 0.0
C89 C 0.48906 0.90362 0.4789 0.0
C90 C 0.47708 0.88806 0.49102 0.0
C91 C 0.46068 0.88795 0.50088 0.0
C92 C 0.4571 0.90424 0.49864 0.0
C93 C 0.46891 0.91966 0.48627 0.0
C94 C 0.48667 0.92587 0.44393 0.0
C95 C 0.46555 0.9194 0.44001 0.0
C96 C 0.4568 0.91002 0.42349 0.0
C97 C 0.46905 0.90701 0.41065 0.0
C98 C 0.49043 0.91439 0.41437 0.0
C99 C 0.49911 0.9237 0.43087 0.0
C100 C 0.50464 0.95463 0.46476 0.0
C101 C 0.52635 0.96632 0.46759 0.0
C102 C 0.5361 0.98727 0.47013 0.0
C103 C 0.52423 0.99703 0.47023 0.0
C104 C 0.50235 0.98519 0.46731 0.0
C105 C 0.49269 0.96423 0.46436 0.0
C106 C 0.56526 0.08942 0.50069 0.0
C107 C 0.58365 0.10414 0.50924 0.0
C108 C 0.58278 0.11142 0.5263 0.0
C109 C 0.56342 0.104 0.53528 0.0
C110 C 0.54495 0.08895 0.52677 0.0
C111 C 0.54583 0.08178 0.50958 0.0
C112 C 0.56643 0.09699 0.46909 0.0
C113 C 0.54999 0.10123 0.46822 0.0
C114 C 0.55233 0.11764 0.45812 0.0
C115 C 0.57113 0.13009 0.44871 0.0
C116 C 0.58684 0.1248 0.44851 0.0
C117 C 0.58449 0.10843 0.45865 0.0
C118 C 0.55554 0.06195 0.47898 0.0
C119 C 0.56278 0.05022 0.48729 0.0
C120 C 0.55243 0.02926 0.48474 0.0
C121 C 0.53474 0.01941 0.47338 0.0
C122 C 0.52742 0.03119 0.46503 0.0
C123 C 0.53754 0.05219 0.46795 0.0
H124 H 0.49791 0.60912 0.65942 0.0
N125 N 0.49595 0.57547 0.671 0.0
H126 H 0.47456 0.61202 0.63801 0.0
H127 H 0.46621 0.54457 0.64996 0.0
H128 H 0.44343 0.54739 0.62781 0.0
H129 H 0.45506 0.55166 0.68224 0.0
H130 H 0.44043 0.55457 0.71092 0.0
H131 H 0.51701 0.59809 0.69939 0.0
H132 H 0.50242 0.60057 0.72848 0.0
H133 H 0.52951 0.58354 0.65163 0.0
H134 H 0.48012 0.53651 0.68362 0.0
H135 H 0.54418 0.56174 0.64602 0.0
H136 H 0.49548 0.51518 0.67925 0.0
H137 H 0.59221 0.49717 0.62754 0.0
H138 H 0.59264 0.48442 0.59739 0.0
H139 H 0.52466 0.45357 0.59579 0.0
H140 H 0.52445 0.46568 0.62615 0.0
H141 H 0.52752 0.44917 0.65392 0.0
H142 H 0.53125 0.42375 0.67071 0.0
H143 H 0.59386 0.46991 0.68693 0.0
H144 H 0.59008 0.49516 0.66981 0.0
H145 H 0.57861 0.52791 0.65266 0.0
H146 H 0.56315 0.54884 0.65941 0.0
H147 H 0.50119 0.49498 0.65924 0.0
N148 N 0.55896 0.4882 0.64771 0.0
H149 H 0.5171 0.4742 0.65395 0.0
C150 C 0.48394 0.57676 0.65626 0.0
C151 C 0.48628 0.59568 0.6523 0.0
C152 C 0.47296 0.59728 0.63996 0.0
C153 C 0.45703 0.57992 0.63114 0.0
C154 C 0.4553 0.56103 0.63453 0.0
C155 C 0.46851 0.55942 0.64706 0.0
C156 C 0.48718 0.575 0.68855 0.0
C157 C 0.46557 0.56238 0.6922 0.0
C158 C 0.4572 0.56401 0.70859 0.0
C159 C 0.4703 0.5779 0.72177 0.0
C160 C 0.49202 0.58972 0.71851 0.0
C161 C 0.50035 0.58834 0.70197 0.0
C162 C 0.50399 0.56193 0.66824 0.0
C163 C 0.52202 0.56859 0.65764 0.0
C164 C 0.53048 0.55613 0.65461 0.0
C165 C 0.52127 0.53671 0.6624 0.0
C166 C 0.50296 0.52992 0.67288 0.0
C167 C 0.49426 0.54228 0.6756 0.0
C168 C 0.55842 0.48256 0.62909 0.0
C169 C 0.57746 0.48792 0.62052 0.0
C170 C 0.57763 0.48067 0.60325 0.0
C171 C 0.55865 0.46792 0.59411 0.0
C172 C 0.53955 0.46312 0.60251 0.0
C173 C 0.53941 0.47025 0.61987 0.0
C174 C 0.55865 0.47406 0.66057 0.0
C175 C 0.54178 0.45394 0.66152 0.0
C176 C 0.54394 0.43941 0.67115 0.0
C177 C 0.56297 0.44478 0.67992 0.0
C178 C 0.57914 0.46525 0.68006 0.0
C179 C 0.57696 0.47972 0.67045 0.0
C180 C 0.54906 0.49963 0.6525 0.0
C181 C 0.56171 0.52069 0.65426 0.0
C182 C 0.55277 0.53262 0.6579 0.0
C183 C 0.5308 0.52373 0.65955 0.0
C184 C 0.51815 0.50244 0.65818 0.0
C185 C 0.52721 0.49048 0.65489 0.0
H186 H 0.11091 0.59484 0.80948 0.0
N187 N 0.0797 0.56013 0.79644 0.0
H188 H 0.13827 0.59945 0.83067 0.0
H189 H 0.08033 0.52994 0.81624 0.0
H190 H 0.1067 0.53445 0.83814 0.0
H191 H 0.10308 0.54377 0.78398 0.0
H192 H 0.12237 0.5518 0.75557 0.0
H193 H 0.07787 0.58178 0.76921 0.0
H194 H 0.09672 0.58926 0.74029 0.0
H195 H 0.04883 0.56116 0.81396 0.0
H196 H 0.06241 0.52126 0.78295 0.0
H197 H 0.01302 0.53295 0.81939 0.0
H198 H 0.02686 0.49317 0.78833 0.0
H199 H 0.92458 0.46611 0.83557 0.0
H200 H 0.90588 0.46255 0.86375 0.0
H201 H 0.9097 0.40943 0.87668 0.0
H202 H 0.92892 0.41351 0.84862 0.0
H203 H 0.91638 0.40209 0.81155 0.0
H204 H 0.885 0.38586 0.79253 0.0
H205 H 0.88975 0.44404 0.78462 0.0
H206 H 0.92094 0.46003 0.80394 0.0
H207 H 0.96484 0.47164 0.84516 0.0
H208 H 0.998 0.50107 0.8371 0.0
H209 H 0.98929 0.4806 0.78182 0.0
N210 N 0.93736 0.44042 0.8227 0.0
H211 H 0.95583 0.45087 0.78972 0.0
C212 C 0.09347 0.56217 0.8112 0.0
C213 C 0.10975 0.58164 0.81594 0.0
C214 C 0.12533 0.58422 0.82814 0.0
C215 C 0.12482 0.5673 0.83608 0.0
C216 C 0.10787 0.54781 0.83204 0.0
C217 C 0.0925 0.54523 0.81961 0.0
C218 C 0.08928 0.56254 0.7789 0.0
C219 C 0.10152 0.55371 0.7746 0.0
C220 C 0.11255 0.55827 0.75836 0.0
C221 C 0.11114 0.57128 0.74592 0.0
C222 C 0.09803 0.5792 0.74973 0.0
C223 C 0.0873 0.57496 0.76617 0.0
C224 C 0.05828 0.54349 0.79798 0.0
C225 C 0.04399 0.5464 0.80815 0.0
C226 C 0.02363 0.53027 0.81131 0.0
C227 C 0.01714 0.51085 0.80429 0.0
C228 C 0.0313 0.50802 0.7937 0.0
C229 C 0.05169 0.52413 0.79062 0.0
C230 C 0.92821 0.44005 0.84005 0.0
C231 C 0.92155 0.45382 0.84455 0.0
C232 C 0.91077 0.4517 0.86065 0.0
C233 C 0.90618 0.43564 0.87246 0.0
C234 C 0.91324 0.42215 0.86806 0.0
C235 C 0.92416 0.42439 0.85202 0.0
C236 C 0.92096 0.43217 0.80919 0.0
C237 C 0.91085 0.41135 0.8054 0.0
C238 C 0.89296 0.40215 0.79449 0.0
C239 C 0.8848 0.41364 0.7871 0.0
C240 C 0.89545 0.43471 0.79032 0.0
C241 C 0.91335 0.4439 0.80129 0.0
C242 C 0.95652 0.4592 0.81788 0.0
C243 C 0.96932 0.47355 0.83111 0.0
C244 C 0.98859 0.49052 0.82654 0.0
C245 C 0.99608 0.49338 0.80877 0.0
C246 C 0.98383 0.47892 0.79562 0.0
C247 C 0.96447 0.46199 0.80014 0.0
H248 H 0.55411 0.1106 0.97098 0.0
N249 N 0.57417 0.08912 0.96505 0.0
H250 H 0.56387 0.13711 0.99335 0.0
H251 H 0.59866 0.09612 0.99359 0.0
H252 H 0.60719 0.1214 0.01729 0.0
H253 H 0.60817 0.11036 0.94494 0.0
H254 H 0.61047 0.12601 0.91566 0.0
H255 H 0.54108 0.08567 0.9455 0.0
H256 H 0.54318 0.10119 0.91622 0.0
H257 H 0.53227 0.06636 0.97281 0.0
H258 H 0.58834 0.06367 0.96295 0.0
H259 H 0.51191 0.02932 0.97616 0.0
H260 H 0.56868 0.02701 0.96721 0.0
H261 H 0.46282 0.92949 0.00125 0.0
H262 H 0.44867 0.91496 0.03077 0.0
H263 H 0.50853 0.92128 0.04514 0.0
H264 H 0.52264 0.93636 0.0157 0.0
H265 H 0.51498 0.91557 0.97799 0.0
H266 H 0.49644 0.88558 0.95871 0.0
H267 H 0.44743 0.89976 0.94964 0.0
H268 H 0.46634 0.92995 0.96903 0.0
H269 H 0.49072 0.96726 0.00291 0.0
H270 H 0.50684 0.00299 0.996 0.0
H271 H 0.54362 0.99629 0.95399 0.0
N272 N 0.50195 0.9405 0.98841 0.0
H273 H 0.52838 0.96064 0.96174 0.0
C274 C 0.57627 0.10185 0.98023 0.0
C275 C 0.56569 0.1128 0.98102 0.0
C276 C 0.57113 0.12789 0.99411 0.0
C277 C 0.58678 0.13191 0.00703 0.0
C278 C 0.59569 0.11939 0.00722 0.0
C279 C 0.59066 0.10473 0.99381 0.0
C280 C 0.57455 0.09689 0.94734 0.0
C281 C 0.59394 0.10816 0.93861 0.0
C282 C 0.59518 0.117 0.9219 0.0
C283 C 0.57698 0.1148 0.91367 0.0
C284 C 0.55746 0.10325 0.92233 0.0
C285 C 0.55623 0.09427 0.939 0.0
C286 C 0.56173 0.06756 0.96744 0.0
C287 C 0.54013 0.05772 0.97133 0.0
C288 C 0.5286 0.0366 0.97339 0.0
C289 C 0.53857 0.02506 0.97178 0.0
C290 C 0.56028 0.0352 0.96806 0.0
C291 C 0.57165 0.05617 0.96581 0.0
C292 C 0.49385 0.93403 0.00635 0.0
C293 C 0.47294 0.92798 0.01085 0.0
C294 C 0.46486 0.91959 0.02771 0.0
C295 C 0.47741 0.91684 0.04032 0.0
C296 C 0.4985 0.92346 0.0359 0.0
C297 C 0.50659 0.93199 0.01909 0.0
C298 C 0.49196 0.92479 0.97499 0.0
C299 C 0.50047 0.9124 0.97151 0.0
C300 C 0.48989 0.89535 0.96043 0.0
C301 C 0.47045 0.89029 0.95265 0.0
C302 C 0.4623 0.90321 0.95557 0.0
C303 C 0.47305 0.92042 0.9666 0.0
C304 C 0.50843 0.96099 0.98293 0.0
C305 C 0.50206 0.9732 0.99209 0.0
C306 C 0.51125 0.99383 0.98803 0.0
C307 C 0.52681 0.00269 0.97462 0.0
C308 C 0.53213 0.99017 0.96474 0.0
C309 C 0.52323 0.96968 0.969 0.0
H310 H 0.51116 0.42165 0.14668 0.0
N311 N 0.52192 0.45637 0.16348 0.0
H312 H 0.53285 0.41462 0.12625 0.0
H313 H 0.55983 0.48472 0.14886 0.0
H314 H 0.58177 0.47779 0.12906 0.0
H315 H 0.56076 0.47073 0.17921 0.0
H316 H 0.56776 0.46058 0.20815 0.0
H317 H 0.49394 0.43309 0.18827 0.0
H318 H 0.50103 0.42325 0.21777 0.0
H319 H 0.49292 0.45849 0.14415 0.0
H320 H 0.54665 0.49448 0.17832 0.0
H321 H 0.48919 0.48819 0.13918 0.0
H322 H 0.54289 0.52402 0.17353 0.0
H323 H 0.47271 0.55383 0.12658 0.0
H324 H 0.45824 0.55831 0.09864 0.0
H325 H 0.51644 0.61455 0.08909 0.0
H326 H 0.53099 0.60956 0.1169 0.0
H327 H 0.52895 0.61773 0.15442 0.0
H328 H 0.51195 0.63219 0.17251 0.0
H329 H 0.45613 0.57282 0.17647 0.0
H330 H 0.47322 0.55856 0.15821 0.0
H331 H 0.50964 0.55197 0.1169 0.0
H332 H 0.51116 0.52182 0.12345 0.0
H333 H 0.51776 0.53657 0.18012 0.0
N334 N 0.51134 0.58029 0.14113 0.0
H335 H 0.51599 0.56688 0.1738 0.0
C336 C 0.53379 0.4536 0.14937 0.0
C337 C 0.52636 0.43402 0.1425 0.0
C338 C 0.53886 0.43003 0.13097 0.0
C339 C 0.55917 0.4456 0.12617 0.0
C340 C 0.56614 0.46547 0.13229 0.0
C341 C 0.55358 0.46946 0.14373 0.0
C342 C 0.52668 0.45237 0.18135 0.0
C343 C 0.54753 0.46034 0.18739 0.0
C344 C 0.55158 0.45453 0.20398 0.0
C345 C 0.53493 0.44097 0.21504 0.0
C346 C 0.51412 0.43373 0.20944 0.0
C347 C 0.51006 0.43931 0.19266 0.0
C348 C 0.51985 0.47408 0.16168 0.0
C349 C 0.50377 0.47273 0.15068 0.0
C350 C 0.50173 0.48969 0.14781 0.0
C351 C 0.51573 0.50839 0.15601 0.0
C352 C 0.53171 0.50973 0.16724 0.0
C353 C 0.53387 0.49279 0.16996 0.0
C354 C 0.50305 0.58139 0.12379 0.0
C355 C 0.48242 0.56702 0.1184 0.0
C356 C 0.47413 0.56967 0.10244 0.0
C357 C 0.48612 0.58686 0.09165 0.0
C358 C 0.50687 0.60098 0.09691 0.0
C359 C 0.51521 0.59822 0.11281 0.0
C360 C 0.50241 0.58718 0.15486 0.0
C361 C 0.51327 0.60778 0.15963 0.0
C362 C 0.50351 0.61598 0.16999 0.0
C363 C 0.4826 0.60368 0.17579 0.0
C364 C 0.47214 0.58275 0.17196 0.0
C365 C 0.48192 0.57456 0.16158 0.0
C366 C 0.51099 0.56139 0.14495 0.0
C367 C 0.51056 0.54861 0.1309 0.0
C368 C 0.51164 0.53128 0.13459 0.0
C369 C 0.51409 0.52659 0.15232 0.0
C370 C 0.51558 0.53968 0.16632 0.0
C371 C 0.51426 0.55693 0.16267 0.0
C372 C 0.66986 0.40871 0.40124 0.0
O373 O 0.6666 0.42311 0.40505 0.0
Cd374 Cd 0.63393 0.41847 0.41661 0.0
O375 O 0.65512 0.39024 0.40238 0.0
Cd376 Cd 0.61705 0.37049 0.40964 0.0
C377 C 0.60326 0.39545 0.37965 0.0
O378 O 0.62127 0.3903 0.43647 0.0
O379 O 0.58931 0.36733 0.4306 0.0
O380 O 0.62504 0.3446 0.41888 0.0
C381 C 0.60207 0.3815 0.44092 0.0
O382 O 0.61078 0.41024 0.39075 0.0
C383 C 0.60926 0.32985 0.41123 0.0
O384 O 0.60507 0.37994 0.38234 0.0
O385 O 0.59698 0.33396 0.40269 0.0
C386 C 0.29469 0.61091 0.56215 0.0
O387 O 0.27718 0.59613 0.55689 0.0
Cd388 Cd 0.24806 0.59972 0.54744 0.0
O389 O 0.29752 0.62878 0.56316 0.0
Cd390 Cd 0.278 0.64681 0.5579 0.0
C391 C 0.2386 0.61752 0.58685 0.0
O392 O 0.26258 0.62961 0.52935 0.0
O393 O 0.25142 0.64879 0.53978 0.0
O394 O 0.313 0.67479 0.55038 0.0
C395 C 0.25101 0.63728 0.52726 0.0
O396 O 0.23196 0.60383 0.57468 0.0
C397 C 0.31071 0.68855 0.55779 0.0
O398 O 0.25607 0.63408 0.58508 0.0
O399 O 0.29323 0.68294 0.56552 0.0
C400 C 0.6784 0.27708 0.72026 0.0
O401 O 0.67647 0.26083 0.71369 0.0
Cd402 Cd 0.6438 0.2311 0.70618 0.0
O403 O 0.66228 0.27888 0.72274 0.0
Cd404 Cd 0.62334 0.25922 0.71772 0.0
C405 C 0.61868 0.22339 0.74738 0.0
O406 O 0.62541 0.24392 0.6899 0.0
O407 O 0.59388 0.23297 0.69938 0.0
O408 O 0.62749 0.29142 0.70829 0.0
C409 C 0.60587 0.23229 0.68747 0.0
O410 O 0.62732 0.21802 0.73538 0.0
C411 C 0.6123 0.29005 0.71751 0.0
O412 O 0.61597 0.23839 0.74482 0.0
O413 O 0.60223 0.27432 0.7272 0.0
C414 C 0.32039 0.60376 0.90901 0.0
O415 O 0.32313 0.58937 0.91393 0.0
Cd416 Cd 0.357 0.59458 0.92267 0.0
O417 O 0.33592 0.62182 0.90791 0.0
Cd418 Cd 0.37446 0.64048 0.91223 0.0
C419 C 0.38312 0.61149 0.88275 0.0
O420 O 0.37416 0.62472 0.94089 0.0
O421 O 0.40464 0.64358 0.92882 0.0
O422 O 0.37003 0.66865 0.92175 0.0
C423 C 0.39398 0.63296 0.9421 0.0
O424 O 0.37672 0.59819 0.89513 0.0
C425 C 0.38464 0.68191 0.91197 0.0
O426 O 0.38213 0.62756 0.88463 0.0
O427 O 0.39456 0.6759 0.90214 0.0
C428 C 0.72262 0.41331 0.05888 0.0
O429 O 0.73883 0.42775 0.05149 0.0
Cd430 Cd 0.76872 0.42488 0.04306 0.0
O431 O 0.72133 0.39626 0.06149 0.0
Cd432 Cd 0.74157 0.37901 0.05562 0.0
C433 C 0.78071 0.41115 0.08346 0.0
O434 O 0.75543 0.39397 0.02606 0.0
O435 O 0.76872 0.37734 0.03801 0.0
O436 O 0.70715 0.3496 0.0489 0.0
C437 C 0.76771 0.38697 0.0246 0.0
O438 O 0.78602 0.42433 0.07106 0.0
C439 C 0.71008 0.33699 0.05758 0.0
O440 O 0.76426 0.39371 0.08186 0.0
O441 O 0.72767 0.34391 0.06552 0.0
C442 C 0.32105 0.73266 0.22202 0.0
O443 O 0.32206 0.74849 0.21558 0.0
Cd444 Cd 0.35446 0.77893 0.20901 0.0
O445 O 0.33774 0.73189 0.22448 0.0
Cd446 Cd 0.37629 0.75323 0.21917 0.0
C447 C 0.37987 0.78781 0.2499 0.0
O448 O 0.37474 0.76891 0.19115 0.0
O449 O 0.40528 0.78216 0.20368 0.0
O450 O 0.37558 0.72291 0.2078 0.0
C451 C 0.39427 0.78175 0.19043 0.0
O452 O 0.37098 0.79312 0.23822 0.0
C453 C 0.39039 0.72458 0.21772 0.0
O454 O 0.3828 0.773 0.24684 0.0
O455 O 0.39858 0.73954 0.2286 0.0
H456 H 0.12921 0.61474 0.2661 0.0
H457 H 0.16319 0.63518 0.25131 0.0
H458 H 0.19152 0.61293 0.28864 0.0
H459 H 0.158 0.5935 0.30418 0.0
H460 H 0.21444 0.65181 0.28675 0.0
H461 H 0.18345 0.59874 0.24296 0.0
H462 H 0.15645 0.57496 0.22166 0.0
H463 H 0.16292 0.62506 0.19063 0.0
H464 H 0.18977 0.64916 0.21189 0.0
H465 H 0.31315 0.69957 0.24206 0.0
H466 H 0.27894 0.67218 0.25243 0.0
H467 H 0.24799 0.69887 0.22409 0.0
H468 H 0.28208 0.72637 0.2137 0.0
H469 H 0.2273 0.65584 0.22083 0.0
H470 H 0.25637 0.70837 0.26672 0.0
H471 H 0.28376 0.73163 0.28803 0.0
H472 H 0.28104 0.68086 0.31511 0.0
H473 H 0.25383 0.6573 0.29377 0.0
C474 C 0.14266 0.61417 0.27117 0.0
C475 C 0.14082 0.6025 0.28641 0.0
C476 C 0.16205 0.62567 0.26253 0.0
C477 C 0.17992 0.62547 0.26875 0.0
C478 C 0.17796 0.61331 0.28357 0.0
C479 C 0.15867 0.602 0.29233 0.0
C480 C 0.20094 0.63915 0.26077 0.0
C481 C 0.2173 0.65235 0.27236 0.0
C482 C 0.20465 0.64021 0.24196 0.0
C483 C 0.18851 0.62577 0.22912 0.0
C484 C 0.179 0.6047 0.23168 0.0
C485 C 0.16374 0.59115 0.21959 0.0
C486 C 0.15794 0.59849 0.20482 0.0
C487 C 0.16742 0.61939 0.20209 0.0
C488 C 0.18268 0.633 0.21414 0.0
C489 C 0.29907 0.69952 0.23788 0.0
C490 C 0.30035 0.71525 0.22719 0.0
C491 C 0.27955 0.68387 0.24382 0.0
C492 C 0.26101 0.68363 0.2391 0.0
C493 C 0.26215 0.69882 0.22784 0.0
C494 C 0.28165 0.71457 0.22203 0.0
C495 C 0.24054 0.66832 0.24684 0.0
C496 C 0.22436 0.65498 0.23522 0.0
C497 C 0.23699 0.66695 0.26564 0.0
C498 C 0.25325 0.6811 0.27853 0.0
C499 C 0.26175 0.70218 0.27712 0.0
C500 C 0.27721 0.71541 0.28922 0.0
C501 C 0.28419 0.70773 0.30288 0.0
C502 C 0.27566 0.68679 0.3045 0.0
C503 C 0.26021 0.67349 0.29242 0.0
H504 H 0.29616 0.718 0.31224 0.0
H505 H 0.14612 0.58798 0.19548 0.0
H506 H 0.54414 0.13813 0.42977 0.0
H507 H 0.55019 0.17149 0.42074 0.0
H508 H 0.61351 0.19973 0.44148 0.0
H509 H 0.60747 0.16672 0.45091 0.0
H510 H 0.59244 0.21755 0.4544 0.0
H511 H 0.6044 0.19623 0.39654 0.0
H512 H 0.59529 0.17332 0.37031 0.0
H513 H 0.54156 0.1794 0.35956 0.0
H514 H 0.5502 0.20215 0.38588 0.0
H515 H 0.6353 0.31773 0.4251 0.0
H516 H 0.62818 0.28311 0.4288 0.0
H517 H 0.56695 0.25979 0.40464 0.0
H518 H 0.57421 0.29456 0.40047 0.0
H519 H 0.58475 0.23865 0.39314 0.0
H520 H 0.57231 0.25978 0.45032 0.0
H521 H 0.58046 0.28231 0.47672 0.0
H522 H 0.63353 0.27575 0.48922 0.0
H523 H 0.62587 0.2534 0.46274 0.0
C524 C 0.5594 0.15144 0.43226 0.0
C525 C 0.57533 0.14973 0.44104 0.0
C526 C 0.56288 0.17047 0.42699 0.0
C527 C 0.58232 0.18808 0.43041 0.0
C528 C 0.5984 0.18633 0.43869 0.0
C529 C 0.59497 0.16739 0.44391 0.0
C530 C 0.58561 0.20851 0.42655 0.0
C531 C 0.59103 0.22225 0.44096 0.0
C532 C 0.58301 0.21437 0.40913 0.0
C533 C 0.57782 0.20072 0.3933 0.0
C534 C 0.59054 0.19254 0.38868 0.0
C535 C 0.58548 0.17961 0.37377 0.0
C536 C 0.56782 0.17486 0.36331 0.0
C537 C 0.55522 0.18307 0.3677 0.0
C538 C 0.56019 0.19599 0.3826 0.0
C539 C 0.62034 0.30526 0.42049 0.0
C540 C 0.60523 0.30887 0.41264 0.0
C541 C 0.61627 0.28546 0.42266 0.0
C542 C 0.59687 0.26883 0.4173 0.0
C543 C 0.58199 0.27239 0.40894 0.0
C544 C 0.58613 0.29225 0.40661 0.0
C545 C 0.592 0.2478 0.42095 0.0
C546 C 0.58615 0.23393 0.40657 0.0
C547 C 0.59403 0.2417 0.43845 0.0
C548 C 0.59862 0.25505 0.45445 0.0
C549 C 0.58581 0.26325 0.45863 0.0
C550 C 0.59033 0.27598 0.47361 0.0
C551 C 0.60753 0.2805 0.48461 0.0
C552 C 0.62023 0.27226 0.48067 0.0
C553 C 0.61579 0.25954 0.46569 0.0
H554 H 0.61101 0.29035 0.49621 0.0
H555 H 0.56394 0.16485 0.35177 0.0
H556 H 0.46365 0.61055 0.60796 0.0
H557 H 0.43696 0.61527 0.59297 0.0
H558 H 0.38828 0.55737 0.61285 0.0
H559 H 0.41464 0.55283 0.62853 0.0
H560 H 0.38321 0.5667 0.57545 0.0
H561 H 0.39644 0.59516 0.63603 0.0
H562 H 0.41953 0.61716 0.66043 0.0
H563 H 0.4404 0.66954 0.62687 0.0
H564 H 0.41766 0.64777 0.60215 0.0
H565 H 0.29205 0.57494 0.57069 0.0
H566 H 0.32069 0.56941 0.57928 0.0
H567 H 0.36528 0.63329 0.57245 0.0
H568 H 0.33657 0.63903 0.56461 0.0
H569 H 0.37419 0.62177 0.60147 0.0
H570 H 0.36015 0.59531 0.54157 0.0
H571 H 0.33878 0.5744 0.51593 0.0
H572 H 0.32145 0.52014 0.54573 0.0
H573 H 0.34249 0.54073 0.57165 0.0
C574 C 0.44728 0.59876 0.60913 0.0
C575 C 0.44133 0.58142 0.61968 0.0
C576 C 0.43209 0.60143 0.60042 0.0
C577 C 0.4107 0.58672 0.60194 0.0
C578 C 0.40475 0.56884 0.61148 0.0
C579 C 0.4199 0.56626 0.62038 0.0
C580 C 0.39441 0.5908 0.59506 0.0
C581 C 0.38105 0.57862 0.58116 0.0
C582 C 0.39209 0.60671 0.60226 0.0
C583 C 0.40554 0.61982 0.61719 0.0
C584 C 0.40608 0.61135 0.63381 0.0
C585 C 0.41909 0.62377 0.6477 0.0
C586 C 0.43147 0.64473 0.64519 0.0
C587 C 0.43083 0.6533 0.62879 0.0
C588 C 0.41788 0.64093 0.61484 0.0
C589 C 0.30797 0.58779 0.57096 0.0
C590 C 0.31205 0.60742 0.56699 0.0
C591 C 0.32437 0.58459 0.57575 0.0
C592 C 0.34525 0.60087 0.57623 0.0
C593 C 0.34934 0.62047 0.57217 0.0
C594 C 0.3329 0.62374 0.56769 0.0
C595 C 0.3627 0.59763 0.58173 0.0
C596 C 0.37632 0.60995 0.5955 0.0
C597 C 0.36542 0.58203 0.57418 0.0
C598 C 0.35276 0.56958 0.55862 0.0
C599 C 0.35166 0.57892 0.54271 0.0
C600 C 0.33963 0.56713 0.52812 0.0
C601 C 0.32873 0.54596 0.52922 0.0
C602 C 0.32989 0.53654 0.5449 0.0
C603 C 0.34188 0.54826 0.55954 0.0
H604 H 0.31942 0.53686 0.5179 0.0
H605 H 0.44153 0.65433 0.65596 0.0
H606 H 0.85242 0.42135 0.78934 0.0
H607 H 0.81765 0.40218 0.77546 0.0
H608 H 0.83589 0.36288 0.74935 0.0
H609 H 0.87101 0.38251 0.76257 0.0
H610 H 0.81213 0.37077 0.72732 0.0
H611 H 0.80849 0.34951 0.78904 0.0
H612 H 0.81295 0.35466 0.82194 0.0
H613 H 0.77111 0.3783 0.82242 0.0
H614 H 0.76663 0.37354 0.78946 0.0
H615 H 0.71611 0.27919 0.7148 0.0
H616 H 0.75097 0.30622 0.7239 0.0
H617 H 0.72399 0.34023 0.74606 0.0
H618 H 0.68884 0.31307 0.73711 0.0
H619 H 0.75139 0.3384 0.76925 0.0
H620 H 0.75202 0.35568 0.70747 0.0
H621 H 0.74745 0.34964 0.67468 0.0
H622 H 0.79471 0.33262 0.67427 0.0
H623 H 0.79936 0.33828 0.70711 0.0
C624 C 0.84923 0.40894 0.7803 0.0
C625 C 0.86447 0.40337 0.77718 0.0
C626 C 0.82926 0.39786 0.77253 0.0
C627 C 0.82406 0.38087 0.76164 0.0
C628 C 0.83953 0.37586 0.7578 0.0
C629 C 0.85953 0.38699 0.76549 0.0
C630 C 0.80223 0.36762 0.75502 0.0
C631 C 0.79886 0.36359 0.73648 0.0
C632 C 0.78484 0.35864 0.76695 0.0
C633 C 0.78742 0.36139 0.78677 0.0
C634 C 0.80037 0.35595 0.79615 0.0
C635 C 0.80288 0.35877 0.8148 0.0
C636 C 0.79237 0.36686 0.82425 0.0
C637 C 0.77927 0.37208 0.81507 0.0
C638 C 0.77674 0.36931 0.79641 0.0
C639 C 0.71752 0.29244 0.72152 0.0
C640 C 0.69963 0.29394 0.72523 0.0
C641 C 0.73752 0.30796 0.72661 0.0
C642 C 0.74011 0.32535 0.73546 0.0
C643 C 0.72233 0.32696 0.73917 0.0
C644 C 0.70227 0.31144 0.73402 0.0
C645 C 0.76132 0.3413 0.74155 0.0
C646 C 0.76459 0.34581 0.76003 0.0
C647 C 0.77861 0.35063 0.72957 0.0
C648 C 0.77593 0.34727 0.70979 0.0
C649 C 0.76133 0.35051 0.70042 0.0
C650 C 0.75875 0.34717 0.68181 0.0
C651 C 0.77076 0.34071 0.6724 0.0
C652 C 0.78541 0.33762 0.68157 0.0
C653 C 0.78805 0.34091 0.70018 0.0
H654 H 0.76873 0.33814 0.658 0.0
H655 H 0.79433 0.36903 0.8387 0.0
H656 H 0.4285 0.86269 0.95606 0.0
H657 H 0.4097 0.82777 0.94474 0.0
H658 H 0.46573 0.83805 0.91701 0.0
H659 H 0.48449 0.87316 0.9279 0.0
H660 H 0.42928 0.81237 0.89783 0.0
H661 H 0.45666 0.81944 0.95834 0.0
H662 H 0.46093 0.8302 0.9902 0.0
H663 H 0.39425 0.79298 -0.00165 0.0
H664 H 0.38956 0.78224 0.96644 0.0
H665 H 0.41858 0.71454 0.89652 0.0
H666 H 0.42913 0.75033 0.89959 0.0
H667 H 0.37372 0.73365 0.93151 0.0
H668 H 0.36339 0.69791 0.92889 0.0
H669 H 0.40672 0.76253 0.94761 0.0
H670 H 0.37959 0.75233 0.88772 0.0
H671 H 0.37536 0.74167 0.85585 0.0
H672 H 0.44077 0.78419 0.84622 0.0
H673 H 0.44546 0.79492 0.87811 0.0
C674 C 0.43663 0.85773 0.94708 0.0
C675 C 0.45805 0.8706 0.94305 0.0
C676 C 0.4259 0.83772 0.94073 0.0
C677 C 0.43644 0.83024 0.93031 0.0
C678 C 0.45734 0.8435 0.9251 0.0
C679 C 0.46807 0.8635 0.93145 0.0
C680 C 0.42659 0.80821 0.92657 0.0
C681 C 0.4244 0.80142 0.90866 0.0
C682 C 0.4199 0.79395 0.94074 0.0
C683 C 0.42274 0.80022 0.95997 0.0
C684 C 0.4429 0.81367 0.9669 0.0
C685 C 0.44539 0.81975 0.98497 0.0
C686 C 0.42787 0.81233 0.99628 0.0
C687 C 0.40781 0.79875 0.98956 0.0
C688 C 0.40522 0.79266 0.97149 0.0
C689 C 0.40853 0.71849 0.90403 0.0
C690 C 0.39021 0.70342 0.91254 0.0
C691 C 0.41451 0.73896 0.90568 0.0
C692 C 0.40211 0.74471 0.91564 0.0
C693 C 0.38353 0.7296 0.92376 0.0
C694 C 0.37765 0.70917 0.92224 0.0
C695 C 0.40933 0.76649 0.91878 0.0
C696 C 0.4112 0.77331 0.93666 0.0
C697 C 0.41567 0.7807 0.90456 0.0
C698 C 0.41291 0.77431 0.88536 0.0
C699 C 0.39311 0.7593 0.87885 0.0
C700 C 0.39062 0.75327 0.86077 0.0
C701 C 0.40779 0.76222 0.84903 0.0
C702 C 0.42748 0.77726 0.85533 0.0
C703 C 0.43006 0.78334 0.87341 0.0
H704 H 0.40584 0.75753 0.83503 0.0
H705 H 0.42983 0.81705 0.01026 0.0
H706 H 0.56393 0.41267 0.13051 0.0
H707 H 0.5903 0.40657 0.11683 0.0
H708 H 0.61479 0.46212 0.08669 0.0
H709 H 0.58777 0.46796 0.09978 0.0
H710 H 0.61492 0.4323 0.06663 0.0
H711 H 0.63822 0.46155 0.12527 0.0
H712 H 0.63532 0.46462 0.15811 0.0
H713 H 0.6281 0.40576 0.16564 0.0
H714 H 0.63064 0.40221 0.1328 0.0
H715 H 0.71695 0.44522 0.05108 0.0
H716 H 0.68793 0.44996 0.06063 0.0
H717 H 0.65959 0.39293 0.08886 0.0
H718 H 0.68846 0.38801 0.07938 0.0
H719 H 0.66179 0.42426 0.10941 0.0
H720 H 0.6389 0.39553 0.05024 0.0
H721 H 0.64227 0.39321 0.01737 0.0
H722 H 0.64983 0.45233 0.01086 0.0
H723 H 0.6468 0.45513 0.04374 0.0
C724 C 0.57454 0.42337 0.12063 0.0
C725 C 0.57378 0.44088 0.11632 0.0
C726 C 0.58978 0.41996 0.11297 0.0
C727 C 0.60475 0.43409 0.10102 0.0
C728 C 0.60346 0.45109 0.09599 0.0
C729 C 0.58813 0.45448 0.1036 0.0
C730 C 0.62237 0.4316 0.09457 0.0
C731 C 0.62534 0.4308 0.07596 0.0
C732 C 0.63579 0.42939 0.10678 0.0
C733 C 0.63442 0.43154 0.12656 0.0
C734 C 0.63586 0.4492 0.13391 0.0
C735 C 0.6343 0.45103 0.15253 0.0
C736 C 0.63147 0.43537 0.16395 0.0
C737 C 0.63026 0.41786 0.15678 0.0
C738 C 0.63177 0.41594 0.13816 0.0
C739 C 0.70453 0.43366 0.0593 0.0
C740 C 0.70503 0.41623 0.06447 0.0
C741 C 0.68792 0.43636 0.06466 0.0
C742 C 0.67157 0.42173 0.07534 0.0
C743 C 0.67206 0.40438 0.08059 0.0
C744 C 0.68855 0.40158 0.07512 0.0
C745 C 0.65422 0.42474 0.08149 0.0
C746 C 0.65136 0.42574 0.10007 0.0
C747 C 0.64105 0.42728 0.06925 0.0
C748 C 0.64285 0.42562 0.04948 0.0
C749 C 0.64147 0.40811 0.04182 0.0
C750 C 0.64328 0.4067 0.02318 0.0
C751 C 0.64632 0.42264 0.01204 0.0
C752 C 0.6475 0.44001 0.01951 0.0
C753 C 0.64573 0.44151 0.03815 0.0
H754 H 0.64771 0.42151 0.99761 0.0
H755 H 0.63027 0.43682 0.17836 0.0
H756 H 0.47084 0.86434 0.52154 0.0
H757 H 0.44656 0.83199 0.53581 0.0
H758 H 0.39416 0.839 0.521 0.0
H759 H 0.41804 0.87078 0.50582 0.0
H760 H 0.39377 0.82217 0.55854 0.0
H761 H 0.40122 0.81331 0.49411 0.0
H762 H 0.42254 0.81799 0.46695 0.0
H763 H 0.45053 0.78712 0.49253 0.0
H764 H 0.42959 0.78256 0.51997 0.0
H765 H 0.30612 0.72174 0.55971 0.0
H766 H 0.33311 0.75714 0.55458 0.0
H767 H 0.37997 0.73947 0.54903 0.0
H768 H 0.35273 0.70394 0.55307 0.0
H769 H 0.38534 0.76286 0.52374 0.0
H770 H 0.3766 0.76792 0.58679 0.0
H771 H 0.35772 0.76402 0.61532 0.0
H772 H 0.33513 0.80207 0.59521 0.0
H773 H 0.35365 0.80598 0.56646 0.0
C774 C 0.45417 0.85909 0.52131 0.0
C775 C 0.44645 0.87012 0.51223 0.0
C776 C 0.44036 0.8407 0.52967 0.0
C777 C 0.41863 0.83316 0.52938 0.0
C778 C 0.41093 0.84471 0.52146 0.0
C779 C 0.42468 0.86294 0.51283 0.0
C780 C 0.4038 0.81223 0.5354 0.0
C781 C 0.39173 0.80912 0.55095 0.0
C782 C 0.40172 0.79535 0.52572 0.0
C783 C 0.41404 0.79781 0.50914 0.0
C784 C 0.41206 0.80768 0.49399 0.0
C785 C 0.42405 0.81028 0.47854 0.0
C786 C 0.43793 0.80291 0.47803 0.0
C787 C 0.4398 0.79285 0.49295 0.0
C788 C 0.42787 0.79025 0.50845 0.0
C789 C 0.32224 0.72548 0.55761 0.0
C790 C 0.32735 0.71013 0.55672 0.0
C791 C 0.33772 0.74576 0.55481 0.0
C792 C 0.35874 0.75114 0.55162 0.0
C793 C 0.36391 0.73579 0.55139 0.0
C794 C 0.34835 0.71548 0.55374 0.0
C795 C 0.37497 0.77242 0.54709 0.0
C796 C 0.38736 0.77572 0.53165 0.0
C797 C 0.37757 0.78941 0.55713 0.0
C798 C 0.36638 0.78709 0.5744 0.0
C799 C 0.36748 0.77533 0.58839 0.0
C800 C 0.35686 0.77314 0.60462 0.0
C801 C 0.34519 0.78275 0.60706 0.0
C802 C 0.34416 0.79461 0.59329 0.0
C803 C 0.35474 0.79684 0.57704 0.0
H804 H 0.33698 0.78104 0.61963 0.0
H805 H 0.4472 0.80494 0.46606 0.0
H806 H 0.53679 0.41121 0.70022 0.0
H807 H 0.54283 0.38366 0.70917 0.0
H808 H 0.6039 0.41478 0.68387 0.0
H809 H 0.59796 0.44207 0.6748 0.0
H810 H 0.57932 0.37442 0.67324 0.0
H811 H 0.60072 0.41441 0.72824 0.0
H812 H 0.59536 0.43127 0.75444 0.0
H813 H 0.5439 0.37412 0.7722 0.0
H814 H 0.54877 0.35696 0.74594 0.0
H815 H 0.63327 0.32633 0.7002 0.0
H816 H 0.62233 0.35128 0.69634 0.0
H817 H 0.56655 0.31427 0.72786 0.0
H818 H 0.57766 0.28926 0.73211 0.0
H819 H 0.58342 0.35431 0.73589 0.0
H820 H 0.56295 0.31364 0.68272 0.0
H821 H 0.56722 0.29607 0.65652 0.0
H822 H 0.61476 0.3532 0.63496 0.0
H823 H 0.611 0.37111 0.66118 0.0
C824 C 0.55154 0.4122 0.69671 0.0
C825 C 0.56695 0.42887 0.68691 0.0
C826 C 0.555 0.39653 0.70188 0.0
C827 C 0.57383 0.39724 0.69719 0.0
C828 C 0.58928 0.41397 0.68764 0.0
C829 C 0.58593 0.42965 0.68262 0.0
C830 C 0.57728 0.38022 0.70137 0.0
C831 C 0.58038 0.37011 0.68694 0.0
C832 C 0.57784 0.37414 0.71923 0.0
C833 C 0.57494 0.38445 0.73501 0.0
C834 C 0.58813 0.40547 0.73763 0.0
C835 C 0.58521 0.41507 0.75251 0.0
C836 C 0.56925 0.40379 0.76494 0.0
C837 C 0.55622 0.38285 0.76254 0.0
C838 C 0.55906 0.37318 0.74767 0.0
C839 C 0.61873 0.32351 0.70642 0.0
C840 C 0.60623 0.30573 0.71633 0.0
C841 C 0.61246 0.33777 0.70415 0.0
C842 C 0.59341 0.33444 0.71152 0.0
C843 C 0.58124 0.31707 0.72199 0.0
C844 C 0.58759 0.3028 0.72436 0.0
C845 C 0.58612 0.34893 0.70774 0.0
C846 C 0.58216 0.35846 0.72219 0.0
C847 C 0.58454 0.35439 0.68986 0.0
C848 C 0.5868 0.3437 0.674 0.0
C849 C 0.57442 0.32245 0.67246 0.0
C850 C 0.57674 0.31243 0.65759 0.0
C851 C 0.59128 0.32351 0.6441 0.0
C852 C 0.60351 0.34464 0.64543 0.0
C853 C 0.60128 0.35474 0.66028 0.0
H854 H 0.59305 0.31572 0.6326 0.0
H855 H 0.56703 0.41125 0.77646 0.0
H856 H 0.14863 0.59787 0.86032 0.0
H857 H 0.18045 0.60386 0.87602 0.0
H858 H 0.17305 0.54846 0.85361 0.0
H859 H 0.14188 0.54273 0.83726 0.0
H860 H 0.18495 0.55543 0.89136 0.0
H861 H 0.20472 0.58912 0.83326 0.0
H862 H 0.2054 0.61259 0.81024 0.0
H863 H 0.23511 0.66218 0.84786 0.0
H864 H 0.23431 0.63891 0.87119 0.0
H865 H 0.28639 0.56763 0.8986 0.0
H866 H 0.25176 0.56133 0.88947 0.0
H867 H 0.27141 0.624 0.90053 0.0
H868 H 0.30636 0.63057 0.9088 0.0
H869 H 0.25222 0.61437 0.87069 0.0
H870 H 0.23558 0.58263 0.92831 0.0
H871 H 0.23434 0.55995 0.95239 0.0
H872 H 0.19844 0.50814 0.91813 0.0
H873 H 0.1997 0.53053 0.89374 0.0
C874 C 0.15375 0.58694 0.8587 0.0
C875 C 0.14269 0.56988 0.84738 0.0
C876 C 0.17183 0.59032 0.8678 0.0
C877 C 0.17907 0.57662 0.86589 0.0
C878 C 0.16759 0.55913 0.85534 0.0
C879 C 0.14969 0.55585 0.84606 0.0
C880 C 0.19944 0.58122 0.87373 0.0
C881 C 0.19972 0.56823 0.88684 0.0
C882 C 0.21856 0.59823 0.86809 0.0
C883 C 0.21923 0.61224 0.85402 0.0
C884 C 0.21123 0.605 0.83666 0.0
C885 C 0.21167 0.61827 0.82355 0.0
C886 C 0.22023 0.63885 0.8276 0.0
C887 C 0.22844 0.64622 0.84475 0.0
C888 C 0.22801 0.633 0.85792 0.0
C889 C 0.28326 0.58002 0.89919 0.0
C890 C 0.29908 0.5996 0.90438 0.0
C891 C 0.26339 0.57638 0.89409 0.0
C892 C 0.25879 0.59211 0.89456 0.0
C893 C 0.27453 0.61161 0.90002 0.0
C894 C 0.29451 0.61535 0.90477 0.0
C895 C 0.23797 0.58854 0.88846 0.0
C896 C 0.23755 0.60169 0.87554 0.0
C897 C 0.21872 0.57182 0.8945 0.0
C898 C 0.21789 0.55829 0.90914 0.0
C899 C 0.22755 0.56641 0.92586 0.0
C900 C 0.22682 0.5536 0.93957 0.0
C901 C 0.21636 0.53262 0.93678 0.0
C902 C 0.20656 0.5244 0.92027 0.0
C903 C 0.20725 0.53714 0.90651 0.0
H904 H 0.21582 0.52273 0.94741 0.0
H905 H 0.22056 0.6491 0.81743 0.0
H906 H 0.62742 0.15591 0.01897 0.0
H907 H 0.64263 0.18838 0.03444 0.0
H908 H 0.58198 0.18383 0.03594 0.0
H909 H 0.56603 0.15039 0.02154 0.0
H910 H 0.61756 0.21941 0.01723 0.0
H911 H 0.59887 0.18439 0.07347 0.0
H912 H 0.59652 0.15953 0.09575 0.0
H913 H 0.66394 0.18942 0.09792 0.0
H914 H 0.66672 0.21429 0.07543 0.0
H915 H 0.66809 0.31944 0.0507 0.0
H916 H 0.64223 0.2832 0.04829 0.0
H917 H 0.69042 0.26909 0.06132 0.0
H918 H 0.71603 0.30529 0.06466 0.0
H919 H 0.65556 0.24177 0.07555 0.0
H920 H 0.67529 0.2716 0.01658 0.0
H921 H 0.68017 0.2956 0.99238 0.0
H922 H 0.614 0.27461 0.99304 0.0
H923 H 0.60877 0.25064 0.01741 0.0
C924 C 0.61697 0.16122 0.02318 0.0
C925 C 0.59538 0.15034 0.0188 0.0
C926 C 0.62582 0.17996 0.03194 0.0
C927 C 0.61341 0.18844 0.03628 0.0
C928 C 0.59178 0.17745 0.03266 0.0
C929 C 0.58276 0.15843 0.02424 0.0
C930 C 0.62374 0.20977 0.04249 0.0
C931 C 0.62542 0.22434 0.03018 0.0
C932 C 0.63457 0.21605 0.0591 0.0
C933 C 0.63299 0.20113 0.07265 0.0
C934 C 0.6132 0.18556 0.07857 0.0
C935 C 0.61179 0.17149 0.09127 0.0
C936 C 0.63007 0.17287 0.09822 0.0
C937 C 0.6498 0.18836 0.09252 0.0
C938 C 0.6513 0.20247 0.07981 0.0
C939 C 0.67308 0.30858 0.05326 0.0
C940 C 0.6941 0.31515 0.05766 0.0
C941 C 0.65831 0.28787 0.05182 0.0
C942 C 0.66446 0.27339 0.05419 0.0
C943 C 0.68527 0.27994 0.05938 0.0
C944 C 0.69993 0.30064 0.06121 0.0
C945 C 0.64969 0.25157 0.05014 0.0
C946 C 0.64731 0.2369 0.06277 0.0
C947 C 0.63859 0.24513 0.03359 0.0
C948 C 0.64169 0.25952 0.01896 0.0
C949 C 0.66181 0.27222 0.01165 0.0
C950 C 0.66464 0.28579 0.9979 0.0
C951 C 0.64742 0.28668 0.99122 0.0
C952 C 0.62733 0.27394 0.99825 0.0
C953 C 0.62442 0.26035 0.01203 0.0
H954 H 0.64963 0.2972 0.98057 0.0
H955 H 0.62894 0.16196 0.10806 0.0
H956 H 0.44258 0.59496 0.16852 0.0
H957 H 0.42538 0.61332 0.17881 0.0
H958 H 0.47963 0.65265 0.21124 0.0
H959 H 0.49683 0.63397 0.20134 0.0
H960 H 0.44139 0.64248 0.22816 0.0
H961 H 0.47583 0.66822 0.17117 0.0
H962 H 0.484 0.66537 0.13942 0.0
H963 H 0.41904 0.64066 0.12523 0.0
H964 H 0.41043 0.64307 0.15697 0.0
H965 H 0.42429 0.72642 0.23462 0.0
H966 H 0.43835 0.70378 0.23024 0.0
H967 H 0.388 0.6675 0.19302 0.0
H968 H 0.37413 0.69027 0.19706 0.0
H969 H 0.42434 0.67576 0.1792 0.0
H970 H 0.38969 0.65067 0.23588 0.0
H971 H 0.38113 0.65286 0.26765 0.0
H972 H 0.4456 0.67581 0.28253 0.0
H973 H 0.45462 0.67403 0.25078 0.0
C974 C 0.45067 0.60715 0.17822 0.0
C975 C 0.47115 0.61307 0.18404 0.0
C976 C 0.44087 0.61774 0.18397 0.0
C977 C 0.45136 0.63452 0.19557 0.0
C978 C 0.4713 0.63979 0.20222 0.0
C979 C 0.48116 0.6292 0.19645 0.0
C980 C 0.44219 0.64745 0.19957 0.0
C981 C 0.43784 0.64996 0.21751 0.0
C982 C 0.43726 0.65689 0.18561 0.0
C983 C 0.44245 0.65564 0.16648 0.0
C984 C 0.46326 0.66204 0.1613 0.0
C985 C 0.46798 0.66052 0.14331 0.0
C986 C 0.45204 0.65279 0.13032 0.0
C987 C 0.43137 0.64662 0.13531 0.0
C988 C 0.42656 0.64807 0.1533 0.0
C989 C 0.41612 0.71351 0.22563 0.0
C990 C 0.39814 0.71017 0.21615 0.0
C991 C 0.42411 0.70052 0.2232 0.0
C992 C 0.41415 0.68383 0.21139 0.0
C993 C 0.39597 0.68029 0.20218 0.0
C994 C 0.38804 0.6933 0.20453 0.0
C995 C 0.42325 0.67071 0.20783 0.0
C996 C 0.42773 0.66824 0.18991 0.0
C997 C 0.42823 0.66131 0.22182 0.0
C998 C 0.42287 0.66241 0.24092 0.0
C999 C 0.40208 0.65635 0.2459 0.0
C1000 C 0.39714 0.65748 0.26391 0.0
C1001 C 0.41282 0.66452 0.27709 0.0
C1002 C 0.43347 0.67039 0.2723 0.0
C1003 C 0.43851 0.6693 0.2543 0.0
H1004 H 0.40896 0.66538 0.29103 0.0
H1005 H 0.45572 0.65162 0.1164 0.0
H1006 H 0.85564 0.43713 0.36389 0.0
H1007 H 0.82226 0.42897 0.37809 0.0
H1008 H 0.80708 0.454 0.33265 0.0
H1009 H 0.8395 0.46094 0.31772 0.0
H1010 H 0.80407 0.46609 0.37478 0.0
H1011 H 0.78208 0.41216 0.32817 0.0
H1012 H 0.78492 0.38432 0.3141 0.0
H1013 H 0.77218 0.35403 0.36511 0.0
H1014 H 0.76958 0.38188 0.37951 0.0
H1015 H 0.69888 0.44165 0.3825 0.0
H1016 H 0.73374 0.44917 0.37269 0.0
H1017 H 0.72396 0.39451 0.39847 0.0
H1018 H 0.68849 0.38629 0.40718 0.0
H1019 H 0.74162 0.39686 0.3694 0.0
H1020 H 0.75787 0.44542 0.41597 0.0
H1021 H 0.75694 0.47266 0.43314 0.0
H1022 H 0.78286 0.5126 0.38784 0.0
H1023 H 0.7837 0.48551 0.3703 0.0
C1024 C 0.84514 0.44069 0.35676 0.0
C1025 C 0.85043 0.44976 0.33959 0.0
C1026 C 0.82618 0.43618 0.365 0.0
C1027 C 0.81239 0.44098 0.35639 0.0
C1028 C 0.8177 0.45035 0.33952 0.0
C1029 C 0.83637 0.45446 0.33109 0.0
C1030 C 0.79209 0.43579 0.36467 0.0
C1031 C 0.7903 0.45103 0.37358 0.0
C1032 C 0.77454 0.41595 0.36364 0.0
C1033 C 0.77591 0.39919 0.35494 0.0
C1034 C 0.78011 0.39966 0.33641 0.0
C1035 C 0.78162 0.38387 0.32837 0.0
C1036 C 0.7788 0.36745 0.33871 0.0
C1037 C 0.7744 0.36677 0.35711 0.0
C1038 C 0.7729 0.38255 0.36522 0.0
C1039 C 0.70423 0.43128 0.38607 0.0
C1040 C 0.69106 0.41342 0.3956 0.0
C1041 C 0.72424 0.43567 0.38061 0.0
C1042 C 0.7318 0.42268 0.38518 0.0
C1043 C 0.71859 0.40482 0.39477 0.0
C1044 C 0.69833 0.40013 0.39976 0.0
C1045 C 0.75314 0.42734 0.37937 0.0
C1046 C 0.75525 0.41196 0.3709 0.0
C1047 C 0.77115 0.44699 0.38128 0.0
C1048 C 0.77068 0.46336 0.39177 0.0
C1049 C 0.76324 0.45996 0.40962 0.0
C1050 C 0.76275 0.47539 0.41943 0.0
C1051 C 0.76979 0.49434 0.41157 0.0
C1052 C 0.77739 0.49791 0.3939 0.0
C1053 C 0.7779 0.48253 0.38403 0.0
H1054 H 0.7694 0.50626 0.41919 0.0
H1055 H 0.77997 0.35523 0.33247 0.0
H1056 H 0.09893 0.59179 0.41665 0.0
H1057 H 0.12377 0.60118 0.44166 0.0
H1058 H 0.15187 0.56997 0.41583 0.0
H1059 H 0.12722 0.56068 0.39068 0.0
H1060 H 0.14839 0.56433 0.45277 0.0
H1061 H 0.17409 0.61974 0.41079 0.0
H1062 H 0.17162 0.64507 0.39218 0.0
H1063 H 0.16158 0.67138 0.4397 0.0
H1064 H 0.16367 0.64599 0.45857 0.0
H1065 H 0.24603 0.61216 0.49897 0.0
H1066 H 0.21915 0.59996 0.4754 0.0
H1067 H 0.19388 0.63497 0.49872 0.0
H1068 H 0.22098 0.64758 0.52208 0.0
H1069 H 0.1955 0.63825 0.46319 0.0
H1070 H 0.17021 0.58347 0.50538 0.0
H1071 H 0.17223 0.55806 0.52424 0.0
H1072 H 0.18098 0.5305 0.47697 0.0
H1073 H 0.17931 0.55595 0.45783 0.0
C1074 C 0.1103 0.5868 0.41636 0.0
C1075 C 0.11126 0.57567 0.4016 0.0
C1076 C 0.12444 0.59214 0.43066 0.0
C1077 C 0.13986 0.58654 0.43042 0.0
C1078 C 0.1401 0.57446 0.41623 0.0
C1079 C 0.12595 0.5691 0.40191 0.0
C1080 C 0.15652 0.59435 0.44437 0.0
C1081 C 0.15886 0.58048 0.45495 0.0
C1082 C 0.16988 0.61543 0.44738 0.0
C1083 C 0.16883 0.63084 0.43607 0.0
C1084 C 0.1712 0.63083 0.41726 0.0
C1085 C 0.16989 0.64521 0.40666 0.0
C1086 C 0.16639 0.6598 0.41475 0.0
C1087 C 0.16426 0.66006 0.43345 0.0
C1088 C 0.16552 0.64568 0.44411 0.0
C1089 C 0.23482 0.61734 0.49901 0.0
C1090 C 0.23556 0.63075 0.51242 0.0
C1091 C 0.21939 0.61026 0.48561 0.0
C1092 C 0.20429 0.61628 0.48549 0.0
C1093 C 0.20533 0.63007 0.4986 0.0
C1094 C 0.22081 0.63724 0.51195 0.0
C1095 C 0.18738 0.60824 0.47171 0.0
C1096 C 0.18502 0.62208 0.4611 0.0
C1097 C 0.17396 0.58714 0.46873 0.0
C1098 C 0.17484 0.57174 0.48019 0.0
C1099 C 0.17272 0.57209 0.49902 0.0
C1100 C 0.17378 0.55766 0.50975 0.0
C1101 C 0.17679 0.54271 0.50181 0.0
C1102 C 0.17868 0.54211 0.4831 0.0
C1103 C 0.17766 0.55652 0.4723 0.0
H1104 H 0.1776 0.53156 0.51015 0.0
H1105 H 0.16538 0.67092 0.40653 0.0
H1106 H 0.59155 0.11517 0.56309 0.0
H1107 H 0.59266 0.133 0.59067 0.0
H1108 H 0.53414 0.12927 0.57615 0.0
H1109 H 0.53367 0.11257 0.54782 0.0
H1110 H 0.55995 0.16554 0.58659 0.0
H1111 H 0.53805 0.10144 0.61223 0.0
H1112 H 0.53756 0.0695 0.61815 0.0
H1113 H 0.59982 0.10303 0.64047 0.0
H1114 H 0.60083 0.1352 0.63445 0.0
H1115 H 0.5656 0.21057 0.67447 0.0
H1116 H 0.55254 0.18496 0.65026 0.0
H1117 H 0.61468 0.19351 0.64392 0.0
H1118 H 0.62791 0.2193 0.66771 0.0
H1119 H 0.57973 0.15121 0.64622 0.0
H1120 H 0.60158 0.21529 0.61537 0.0
H1121 H 0.60017 0.24639 0.61001 0.0
H1122 H 0.53402 0.21041 0.59868 0.0
H1123 H 0.53501 0.17909 0.60422 0.0
C1124 C 0.5789 0.11815 0.5657 0.0
C1125 C 0.56262 0.11258 0.55311 0.0
C1126 C 0.57937 0.12808 0.58167 0.0
C1127 C 0.56332 0.13227 0.58567 0.0
C1128 C 0.54667 0.12614 0.57341 0.0
C1129 C 0.54632 0.11641 0.55728 0.0
C1130 C 0.56499 0.14445 0.60192 0.0
C1131 C 0.56375 0.16207 0.59971 0.0
C1132 C 0.57005 0.14009 0.61909 0.0
C1133 C 0.56955 0.12076 0.62278 0.0
C1134 C 0.5517 0.10202 0.61829 0.0
C1135 C 0.55132 0.08387 0.62168 0.0
C1136 C 0.56866 0.08424 0.62966 0.0
C1137 C 0.5864 0.10277 0.63429 0.0
C1138 C 0.58687 0.12097 0.63092 0.0
C1139 C 0.57644 0.20697 0.66788 0.0
C1140 C 0.59777 0.21696 0.6729 0.0
C1141 C 0.56897 0.19237 0.65411 0.0
C1142 C 0.58267 0.18738 0.64541 0.0
C1143 C 0.60388 0.19714 0.65057 0.0
C1144 C 0.61142 0.21195 0.66406 0.0
C1145 C 0.57525 0.17233 0.63059 0.0
C1146 C 0.57543 0.15426 0.63313 0.0
C1147 C 0.56885 0.17607 0.61384 0.0
C1148 C 0.56831 0.19488 0.61044 0.0
C1149 C 0.58669 0.21402 0.61191 0.0
C1150 C 0.58598 0.23168 0.6088 0.0
C1151 C 0.567 0.23038 0.60407 0.0
C1152 C 0.5487 0.2114 0.60238 0.0
C1153 C 0.54933 0.19369 0.6055 0.0
H1154 H 0.56648 0.24407 0.60167 0.0
H1155 H 0.56833 0.07017 0.63227 0.0
H1156 H 0.43838 0.58577 0.7245 0.0
H1157 H 0.42371 0.59161 0.75206 0.0
H1158 H 0.46669 0.58219 0.78412 0.0
H1159 H 0.48176 0.57676 0.75651 0.0
H1160 H 0.42003 0.55982 0.79434 0.0
H1161 H 0.47999 0.62654 0.78119 0.0
H1162 H 0.5011 0.65568 0.76126 0.0
H1163 H 0.44824 0.66413 0.75432 0.0
H1164 H 0.42671 0.63481 0.774 0.0
H1165 H 0.40397 0.59082 0.87928 0.0
H1166 H 0.41894 0.58535 0.85196 0.0
H1167 H 0.39646 0.61835 0.82118 0.0
H1168 H 0.38263 0.62495 0.84881 0.0
H1169 H 0.4324 0.62836 0.80944 0.0
H1170 H 0.37192 0.56378 0.82112 0.0
H1171 H 0.34773 0.53347 0.83871 0.0
H1172 H 0.39653 0.51912 0.84562 0.0
H1173 H 0.42111 0.5495 0.82827 0.0
C1174 C 0.4446 0.58485 0.73745 0.0
C1175 C 0.46114 0.58079 0.73847 0.0
C1176 C 0.43629 0.58825 0.75311 0.0
C1177 C 0.44418 0.58734 0.77003 0.0
C1178 C 0.46044 0.58293 0.77113 0.0
C1179 C 0.46905 0.57992 0.75543 0.0
C1180 C 0.43553 0.59119 0.78656 0.0
C1181 C 0.42291 0.57482 0.79786 0.0
C1182 C 0.43868 0.61061 0.79059 0.0
C1183 C 0.45168 0.62836 0.77892 0.0
C1184 C 0.47281 0.63449 0.77528 0.0
C1185 C 0.48486 0.65107 0.76406 0.0
C1186 C 0.476 0.66172 0.75649 0.0
C1187 C 0.45508 0.65585 0.76017 0.0
C1188 C 0.44295 0.63927 0.77137 0.0
C1189 C 0.40222 0.59689 0.86667 0.0
C1190 C 0.39203 0.6082 0.86611 0.0
C1191 C 0.41065 0.59364 0.85101 0.0
C1192 C 0.40841 0.60098 0.83435 0.0
C1193 C 0.39837 0.61246 0.83383 0.0
C1194 C 0.39043 0.61619 0.8496 0.0
C1195 C 0.41683 0.59696 0.81756 0.0
C1196 C 0.42939 0.61329 0.80609 0.0
C1197 C 0.41315 0.57734 0.81311 0.0
C1198 C 0.39841 0.55903 0.82354 0.0
C1199 C 0.37754 0.55424 0.8265 0.0
C1200 C 0.36375 0.53704 0.83641 0.0
C1201 C 0.3706 0.52441 0.84332 0.0
C1202 C 0.39125 0.52893 0.84029 0.0
C1203 C 0.40511 0.54613 0.8304 0.0
H1204 H 0.35991 0.51109 0.85099 0.0
H1205 H 0.48536 0.67454 0.7478 0.0
H1206 H 0.91106 0.42351 0.90595 0.0
H1207 H 0.88816 0.41586 0.93221 0.0
H1208 H 0.84933 0.43291 0.90253 0.0
H1209 H 0.87179 0.44013 0.8761 0.0
H1210 H 0.85779 0.44827 0.93764 0.0
H1211 H 0.83345 0.38433 0.90685 0.0
H1212 H 0.83765 0.35712 0.89316 0.0
H1213 H 0.85838 0.34684 0.94395 0.0
H1214 H 0.85459 0.37421 0.95789 0.0
H1215 H 0.76732 0.40509 0.99308 0.0
H1216 H 0.79149 0.41388 0.96761 0.0
H1217 H 0.82457 0.38902 0.99551 0.0
H1218 H 0.80008 0.37964 0.02076 0.0
H1219 H 0.81999 0.3781 0.96166 0.0
H1220 H 0.84422 0.44097 0.99298 0.0
H1221 H 0.84129 0.46862 0.00729 0.0
H1222 H 0.82259 0.4817 0.95674 0.0
H1223 H 0.82512 0.45392 0.94218 0.0
C1224 C 0.89761 0.42555 0.90497 0.0
C1225 C 0.89323 0.43234 0.88887 0.0
C1226 C 0.88459 0.42126 0.92001 0.0
C1227 C 0.86697 0.42366 0.91923 0.0
C1228 C 0.8629 0.43101 0.9034 0.0
C1229 C 0.87583 0.43521 0.88833 0.0
C1230 C 0.85239 0.41796 0.93473 0.0
C1231 C 0.84933 0.43289 0.9428 0.0
C1232 C 0.84183 0.39801 0.94169 0.0
C1233 C 0.84394 0.38145 0.93336 0.0
C1234 C 0.83906 0.37637 0.91506 0.0
C1235 C 0.84134 0.36091 0.90726 0.0
C1236 C 0.84833 0.3503 0.91766 0.0
C1237 C 0.853 0.35509 0.9359 0.0
C1238 C 0.85077 0.37057 0.94376 0.0
C1239 C 0.77971 0.40144 0.99375 0.0
C1240 C 0.78186 0.39175 0.00894 0.0
C1241 C 0.79359 0.40658 0.97924 0.0
C1242 C 0.81008 0.40243 0.97978 0.0
C1243 C 0.81201 0.39242 0.99481 0.0
C1244 C 0.79802 0.3871 0.00924 0.0
C1245 C 0.82527 0.40841 0.96465 0.0
C1246 C 0.82847 0.39352 0.9566 0.0
C1247 C 0.83613 0.42846 0.95783 0.0
C1248 C 0.83467 0.44523 0.96653 0.0
C1249 C 0.83933 0.44964 0.98495 0.0
C1250 C 0.83777 0.46535 0.9931 0.0
C1251 C 0.83171 0.47688 0.98295 0.0
C1252 C 0.82725 0.47274 0.9646 0.0
C1253 C 0.82877 0.45702 0.95638 0.0
H1254 H 0.83051 0.48904 0.98928 0.0
H1255 H 0.85009 0.33833 0.9116 0.0
H1256 H 0.49579 0.92503 0.07381 0.0
H1257 H 0.48193 0.90459 0.10109 0.0
H1258 H 0.42449 0.86364 0.07302 0.0
H1259 H 0.43834 0.88361 0.0456 0.0
H1260 H 0.41783 0.87259 0.10836 0.0
H1261 H 0.46094 0.85136 0.07644 0.0
H1262 H 0.49374 0.85718 0.06207 0.0
H1263 H 0.52681 0.87976 0.11216 0.0
H1264 H 0.49425 0.87434 0.12676 0.0
H1265 H 0.37497 0.7829 0.15952 0.0
H1266 H 0.38961 0.80837 0.13574 0.0
H1267 H 0.44823 0.84071 0.16492 0.0
H1268 H 0.43386 0.81494 0.18852 0.0
H1269 H 0.45577 0.83885 0.13075 0.0
H1270 H 0.41283 0.85788 0.16369 0.0
H1271 H 0.38064 0.85301 0.17852 0.0
H1272 H 0.34802 0.83609 0.12784 0.0
H1273 H 0.37994 0.84058 0.11273 0.0
C1274 C 0.4802 0.91169 0.07344 0.0
C1275 C 0.46825 0.90589 0.05746 0.0
C1276 C 0.47228 0.90011 0.08905 0.0
C1277 C 0.45228 0.88254 0.08898 0.0
C1278 C 0.43994 0.87721 0.07334 0.0
C1279 C 0.44787 0.8887 0.0577 0.0
C1280 C 0.4447 0.86894 0.10478 0.0
C1281 C 0.426 0.86507 0.11322 0.0
C1282 C 0.45572 0.85962 0.11135 0.0
C1283 C 0.47523 0.86266 0.10263 0.0
C1284 C 0.47525 0.85771 0.08435 0.0
C1285 C 0.49379 0.86091 0.07617 0.0
C1286 C 0.51236 0.86889 0.08619 0.0
C1287 C 0.51242 0.87361 0.10442 0.0
C1288 C 0.49393 0.87047 0.11265 0.0
C1289 C 0.39098 0.79543 0.16086 0.0
C1290 C 0.40325 0.79696 0.1759 0.0
C1291 C 0.39929 0.81006 0.14733 0.0
C1292 C 0.4199 0.82666 0.1487 0.0
C1293 C 0.43226 0.82808 0.16361 0.0
C1294 C 0.42403 0.81335 0.17709 0.0
C1295 C 0.42869 0.84224 0.13434 0.0
C1296 C 0.44764 0.84648 0.1261 0.0
C1297 C 0.41797 0.85204 0.12809 0.0
C1298 C 0.39874 0.8494 0.1371 0.0
C1299 C 0.39875 0.85297 0.15573 0.0
C1300 C 0.38056 0.8503 0.16418 0.0
C1301 C 0.36228 0.8442 0.15414 0.0
C1302 C 0.36218 0.8408 0.13561 0.0
C1303 C 0.38033 0.84343 0.12708 0.0
H1304 H 0.34821 0.84214 0.16071 0.0
H1305 H 0.5267 0.87135 0.07983 0.0
H1306 H 0.56053 0.42543 0.21995 0.0
H1307 H 0.56911 0.41504 0.24835 0.0
H1308 H 0.52847 0.43088 0.27705 0.0
H1309 H 0.51958 0.44105 0.24856 0.0
H1310 H 0.57143 0.44784 0.29101 0.0
H1311 H 0.51129 0.38393 0.27252 0.0
H1312 H 0.49103 0.3559 0.25107 0.0
H1313 H 0.54132 0.34302 0.24917 0.0
H1314 H 0.56202 0.37119 0.27041 0.0
H1315 H 0.58037 0.41398 0.37601 0.0
H1316 H 0.56569 0.41896 0.34838 0.0
H1317 H 0.58947 0.38633 0.31823 0.0
H1318 H 0.60306 0.38026 0.34617 0.0
H1319 H 0.55414 0.37754 0.30466 0.0
H1320 H 0.61541 0.44038 0.32022 0.0
H1321 H 0.63901 0.46952 0.33951 0.0
H1322 H 0.59159 0.48609 0.34433 0.0
H1323 H 0.56759 0.45688 0.32525 0.0
C1324 C 0.55338 0.42662 0.23233 0.0
C1325 C 0.53945 0.43407 0.23215 0.0
C1326 C 0.55821 0.4206 0.24848 0.0
C1327 C 0.54935 0.42215 0.26472 0.0
C1328 C 0.53539 0.42954 0.26459 0.0
C1329 C 0.53028 0.43526 0.24838 0.0
C1330 C 0.55538 0.4168 0.28191 0.0
C1331 C 0.56737 0.43243 0.2942 0.0
C1332 C 0.55079 0.39684 0.28558 0.0
C1333 C 0.53827 0.37979 0.27293 0.0
C1334 C 0.5181 0.37523 0.26741 0.0
C1335 C 0.50653 0.3593 0.25532 0.0
C1336 C 0.51491 0.34772 0.24873 0.0
C1337 C 0.53486 0.35202 0.25427 0.0
C1338 C 0.54651 0.36795 0.26635 0.0
C1339 C 0.58226 0.4077 0.3635 0.0
C1340 C 0.59299 0.3969 0.36315 0.0
C1341 C 0.57401 0.41067 0.34769 0.0
C1342 C 0.577 0.40356 0.33109 0.0
C1343 C 0.58705 0.39208 0.33084 0.0
C1344 C 0.59483 0.38863 0.34678 0.0
C1345 C 0.57018 0.4086 0.31401 0.0
C1346 C 0.55814 0.39296 0.30164 0.0
C1347 C 0.57523 0.42871 0.31 0.0
C1348 C 0.58963 0.44632 0.32146 0.0
C1349 C 0.60996 0.45016 0.3255 0.0
C1350 C 0.62342 0.4667 0.33638 0.0
C1351 C 0.61678 0.47962 0.34318 0.0
C1352 C 0.5967 0.47605 0.33907 0.0
C1353 C 0.58317 0.45951 0.32821 0.0
H1354 H 0.62722 0.49241 0.3516 0.0
H1355 H 0.50592 0.33539 0.23936 0.0
H1356 H 0.44045 0.90893 0.38834 0.0
H1357 H 0.42422 0.88883 0.36105 0.0
H1358 H 0.45947 0.85834 0.36794 0.0
H1359 H 0.47561 0.87822 0.39517 0.0
H1360 H 0.46078 0.86952 0.33369 0.0
H1361 H 0.40754 0.83517 0.37881 0.0
H1362 H 0.38314 0.83233 0.40294 0.0
H1363 H 0.35181 0.85169 0.36636 0.0
H1364 H 0.37623 0.85493 0.34206 0.0
H1365 H 0.40518 0.78527 0.27541 0.0
H1366 H 0.4193 0.80588 0.3027 0.0
H1367 H 0.3861 0.83729 0.29037 0.0
H1368 H 0.37188 0.81677 0.26302 0.0
H1369 H 0.38333 0.82667 0.32669 0.0
H1370 H 0.43635 0.86011 0.28137 0.0
H1371 H 0.46063 0.86241 0.25736 0.0
H1372 H 0.49234 0.84419 0.29463 0.0
H1373 H 0.46803 0.84148 0.31882 0.0
C1374 C 0.44464 0.89786 0.38407 0.0
C1375 C 0.45938 0.89523 0.39388 0.0
C1376 C 0.43537 0.8864 0.36849 0.0
C1377 C 0.44054 0.87199 0.36254 0.0
C1378 C 0.45533 0.86944 0.37224 0.0
C1379 C 0.46461 0.88089 0.38776 0.0
C1380 C 0.43069 0.85956 0.34615 0.0
C1381 C 0.44386 0.85998 0.33226 0.0
C1382 C 0.40858 0.84747 0.3441 0.0
C1383 C 0.39386 0.84551 0.35868 0.0
C1384 C 0.39556 0.83899 0.37595 0.0
C1385 C 0.38171 0.83728 0.38965 0.0
C1386 C 0.36597 0.84188 0.3862 0.0
C1387 C 0.36403 0.84816 0.36902 0.0
C1388 C 0.37786 0.84993 0.35528 0.0
C1389 C 0.40076 0.79646 0.27854 0.0
C1390 C 0.3875 0.79945 0.26697 0.0
C1391 C 0.4089 0.80827 0.29411 0.0
C1392 C 0.4039 0.82323 0.29843 0.0
C1393 C 0.39017 0.82584 0.28723 0.0
C1394 C 0.38214 0.81415 0.27158 0.0
C1395 C 0.41346 0.8365 0.31439 0.0
C1396 C 0.40025 0.83627 0.32814 0.0
C1397 C 0.43554 0.84872 0.31636 0.0
C1398 C 0.45023 0.8504 0.30186 0.0
C1399 C 0.44839 0.85643 0.28441 0.0
C1400 C 0.46217 0.85784 0.27077 0.0
C1401 C 0.47798 0.8534 0.27445 0.0
C1402 C 0.48007 0.84759 0.29179 0.0
C1403 C 0.4663 0.84614 0.30547 0.0
H1404 H 0.48865 0.8545 0.26387 0.0
H1405 H 0.35526 0.84054 0.39682 0.0
H1406 H 0.58658 0.48562 0.56625 0.0
H1407 H 0.58928 0.46935 0.53888 0.0
H1408 H 0.53348 0.41348 0.55399 0.0
H1409 H 0.53144 0.42929 0.58198 0.0
H1410 H 0.56181 0.40542 0.54402 0.0
H1411 H 0.53408 0.44338 0.51795 0.0
H1412 H 0.53073 0.47322 0.51151 0.0
H1413 H 0.59239 0.50356 0.48788 0.0
H1414 H 0.59626 0.47402 0.4944 0.0
H1415 H 0.56351 0.36262 0.45736 0.0
H1416 H 0.55173 0.37586 0.48218 0.0
H1417 H 0.6123 0.43095 0.48281 0.0
H1418 H 0.62428 0.41777 0.45831 0.0
H1419 H 0.57629 0.43658 0.48332 0.0
H1420 H 0.604 0.39852 0.51324 0.0
H1421 H 0.60563 0.36764 0.51918 0.0
H1422 H 0.54054 0.33602 0.53472 0.0
H1423 H 0.53846 0.36666 0.52861 0.0
C1424 C 0.57487 0.46986 0.56379 0.0
C1425 C 0.55886 0.45877 0.57642 0.0
C1426 C 0.57625 0.46064 0.54796 0.0
C1427 C 0.56143 0.44022 0.54422 0.0
C1428 C 0.54506 0.42926 0.55654 0.0
C1429 C 0.5438 0.43842 0.57247 0.0
C1430 C 0.56399 0.42999 0.52815 0.0
C1431 C 0.5645 0.41204 0.53069 0.0
C1432 C 0.56772 0.43866 0.51074 0.0
C1433 C 0.56551 0.45652 0.50679 0.0
C1434 C 0.547 0.45647 0.51151 0.0
C1435 C 0.54499 0.47333 0.50782 0.0
C1436 C 0.56135 0.49029 0.49932 0.0
C1437 C 0.57974 0.49042 0.49447 0.0
C1438 C 0.58183 0.47361 0.49813 0.0
C1439 C 0.57429 0.37753 0.46283 0.0
C1440 C 0.59483 0.38913 0.45598 0.0
C1441 C 0.56755 0.38505 0.47696 0.0
C1442 C 0.58117 0.40437 0.48425 0.0
C1443 C 0.60156 0.41604 0.47729 0.0
C1444 C 0.60841 0.40843 0.46339 0.0
C1445 C 0.57446 0.41241 0.4994 0.0
C1446 C 0.57321 0.42989 0.49665 0.0
C1447 C 0.56973 0.40317 0.51654 0.0
C1448 C 0.57101 0.38479 0.52025 0.0
C1449 C 0.58999 0.38493 0.51775 0.0
C1450 C 0.59101 0.36748 0.52119 0.0
C1451 C 0.57318 0.34986 0.52726 0.0
C1452 C 0.55432 0.34967 0.52997 0.0
C1453 C 0.55321 0.36707 0.52654 0.0
H1454 H 0.574 0.33637 0.52992 0.0
H1455 H 0.55977 0.50332 0.49648 0.0
H1456 H 0.09786 0.56732 0.71105 0.0
H1457 H 0.11965 0.5763 0.68369 0.0
H1458 H 0.17531 0.59813 0.71647 0.0
H1459 H 0.15356 0.58869 0.74378 0.0
H1460 H 0.17627 0.62472 0.68564 0.0
H1461 H 0.16115 0.5568 0.7008 0.0
H1462 H 0.1373 0.52069 0.70797 0.0
H1463 H 0.10569 0.51186 0.6573 0.0
H1464 H 0.12918 0.54803 0.64996 0.0
H1465 H 0.25142 0.63489 0.62025 0.0
H1466 H 0.2297 0.62803 0.64722 0.0
H1467 H 0.17455 0.58618 0.61676 0.0
H1468 H 0.19633 0.5922 0.59011 0.0
H1469 H 0.1726 0.57002 0.64673 0.0
H1470 H 0.18642 0.63597 0.63012 0.0
H1471 H 0.20793 0.67214 0.62205 0.0
H1472 H 0.23886 0.68526 0.67345 0.0
H1473 H 0.21773 0.64911 0.68174 0.0
C1474 C 0.11475 0.5741 0.71234 0.0
C1475 C 0.1241 0.57724 0.72941 0.0
C1476 C 0.12713 0.5792 0.69678 0.0
C1477 C 0.14903 0.58785 0.69815 0.0
C1478 C 0.15843 0.59149 0.71521 0.0
C1479 C 0.14603 0.58601 0.73073 0.0
C1480 C 0.16209 0.59249 0.68178 0.0
C1481 C 0.1757 0.61284 0.67717 0.0
C1482 C 0.16078 0.57691 0.67057 0.0
C1483 C 0.14675 0.55516 0.67493 0.0
C1484 C 0.14898 0.54721 0.69127 0.0
C1485 C 0.13556 0.52672 0.69535 0.0
C1486 C 0.11995 0.514 0.68313 0.0
C1487 C 0.11777 0.52174 0.66678 0.0
C1488 C 0.13113 0.54222 0.66265 0.0
C1489 C 0.23465 0.62428 0.61934 0.0
C1490 C 0.22558 0.61406 0.60309 0.0
C1491 C 0.22221 0.62045 0.63473 0.0
C1492 C 0.20037 0.60679 0.63402 0.0
C1493 C 0.19133 0.59673 0.61772 0.0
C1494 C 0.2038 0.60022 0.60247 0.0
C1495 C 0.18698 0.60243 0.65032 0.0
C1496 C 0.17325 0.58205 0.65503 0.0
C1497 C 0.1879 0.61804 0.6614 0.0
C1498 C 0.20063 0.6398 0.65648 0.0
C1499 C 0.19792 0.64654 0.63965 0.0
C1500 C 0.21003 0.66704 0.63504 0.0
C1501 C 0.22479 0.68098 0.64721 0.0
C1502 C 0.22744 0.67445 0.66403 0.0
C1503 C 0.21539 0.65396 0.6687 0.0
H1504 H 0.23415 0.69684 0.64362 0.0
H1505 H 0.10957 0.49815 0.6863 0.0
H1506 H 0.5992 0.11605 0.88378 0.0
H1507 H 0.60409 0.13507 0.85607 0.0
H1508 H 0.56357 0.15596 0.87674 0.0
H1509 H 0.55845 0.13674 0.90449 0.0
H1510 H 0.55613 0.14658 0.84153 0.0
H1511 H 0.61637 0.18691 0.87806 0.0
H1512 H 0.6467 0.19429 0.89728 0.0
H1513 H 0.67511 0.18014 0.85329 0.0
H1514 H 0.64479 0.17236 0.83387 0.0
H1515 H 0.59509 0.22634 0.7747 0.0
H1516 H 0.58574 0.20828 0.80355 0.0
H1517 H 0.61888 0.17757 0.788 0.0
H1518 H 0.62819 0.19532 0.75928 0.0
H1519 H 0.6294 0.19482 0.82231 0.0
H1520 H 0.56705 0.15261 0.78656 0.0
H1521 H 0.53658 0.14601 0.76789 0.0
H1522 H 0.51236 0.16562 0.81129 0.0
H1523 H 0.54287 0.1726 0.83015 0.0
C1524 C 0.59132 0.12468 0.88241 0.0
C1525 C 0.57861 0.12507 0.89635 0.0
C1526 C 0.59412 0.13554 0.86659 0.0
C1527 C 0.58452 0.14725 0.8645 0.0
C1528 C 0.57118 0.14708 0.87811 0.0
C1529 C 0.56824 0.13607 0.89392 0.0
C1530 C 0.58897 0.16006 0.84828 0.0
C1531 C 0.57213 0.15737 0.83747 0.0
C1532 C 0.60986 0.1741 0.84296 0.0
C1533 C 0.62822 0.1789 0.85455 0.0
C1534 C 0.62902 0.18523 0.87252 0.0
C1535 C 0.64621 0.1895 0.88344 0.0
C1536 C 0.6628 0.18764 0.87652 0.0
C1537 C 0.66224 0.18155 0.85864 0.0
C1538 C 0.64506 0.17723 0.84766 0.0
C1539 C 0.60032 0.21569 0.77742 0.0
C1540 C 0.61239 0.21228 0.76468 0.0
C1541 C 0.59491 0.20536 0.79386 0.0
C1542 C 0.6016 0.19158 0.79785 0.0
C1543 C 0.6136 0.18816 0.78517 0.0
C1544 C 0.61884 0.1983 0.76873 0.0
C1545 C 0.59662 0.18094 0.81535 0.0
C1546 C 0.6134 0.18415 0.82646 0.0
C1547 C 0.5757 0.16759 0.821 0.0
C1548 C 0.55736 0.16336 0.80968 0.0
C1549 C 0.55533 0.1557 0.79207 0.0
C1550 C 0.53803 0.15184 0.78146 0.0
C1551 C 0.52258 0.15545 0.78838 0.0
C1552 C 0.52436 0.16287 0.80594 0.0
C1553 C 0.54165 0.16676 0.81659 0.0
H1554 H 0.50919 0.15245 0.78015 0.0
H1555 H 0.6761 0.19096 0.885 0.0
H1556 H 0.50491 0.60231 0.05899 0.0
H1557 H 0.48978 0.60987 0.03296 0.0
H1558 H 0.43098 0.58697 0.06137 0.0
H1559 H 0.44607 0.57982 0.08758 0.0
H1560 H 0.42581 0.57336 0.02585 0.0
H1561 H 0.46315 0.63649 0.05895 0.0
H1562 H 0.49423 0.66471 0.07374 0.0
H1563 H 0.5279 0.67975 0.02358 0.0
H1564 H 0.49709 0.65142 0.00854 0.0
H1565 H 0.37535 0.61271 0.97313 0.0
H1566 H 0.39165 0.60464 0.99787 0.0
H1567 H 0.45125 0.63476 0.97 0.0
H1568 H 0.43516 0.64338 0.94544 0.0
H1569 H 0.45702 0.64428 0.00443 0.0
H1570 H 0.42016 0.58241 0.97079 0.0
H1571 H 0.38975 0.55394 0.95552 0.0
H1572 H 0.35611 0.53599 0.00567 0.0
H1573 H 0.38622 0.56454 0.0212 0.0
C1574 C 0.4888 0.59899 0.05975 0.0
C1575 C 0.47673 0.5905 0.07542 0.0
C1576 C 0.48016 0.60324 0.04484 0.0
C1577 C 0.45932 0.59909 0.04532 0.0
C1578 C 0.44708 0.5902 0.06073 0.0
C1579 C 0.45572 0.58605 0.07567 0.0
C1580 C 0.45034 0.60441 0.02991 0.0
C1581 C 0.43247 0.58888 0.02125 0.0
C1582 C 0.45942 0.62458 0.02367 0.0
C1583 C 0.47789 0.64171 0.03267 0.0
C1584 C 0.47724 0.64572 0.05111 0.0
C1585 C 0.49479 0.66175 0.05953 0.0
C1586 C 0.51305 0.67398 0.04962 0.0
C1587 C 0.51376 0.67024 0.03125 0.0
C1588 C 0.49625 0.65421 0.02276 0.0
C1589 C 0.39194 0.61766 0.9723 0.0
C1590 C 0.40396 0.6286 0.95731 0.0
C1591 C 0.40122 0.61293 0.98639 0.0
C1592 C 0.4226 0.61878 0.98565 0.0
C1593 C 0.43471 0.63003 0.97084 0.0
C1594 C 0.42549 0.63492 0.95681 0.0
C1595 C 0.43233 0.61324 0.00036 0.0
C1596 C 0.45036 0.62872 0.00891 0.0
C1597 C 0.42349 0.59298 0.0064 0.0
C1598 C 0.40538 0.57573 0.99712 0.0
C1599 C 0.40622 0.57248 0.97854 0.0
C1600 C 0.38905 0.55632 0.96984 0.0
C1601 C 0.37099 0.54319 0.97961 0.0
C1602 C 0.3701 0.54618 0.99812 0.0
C1603 C 0.38722 0.56234 0.00688 0.0
H1604 H 0.35771 0.53069 0.97285 0.0
H1605 H 0.52663 0.68639 0.05617 0.0
H1606 H 0.89932 0.42856 0.21812 0.0
H1607 H 0.87959 0.422 0.18993 0.0
H1608 H 0.86477 0.46817 0.20401 0.0
H1609 H 0.88387 0.47439 0.23233 0.0
H1610 H 0.83043 0.43418 0.19309 0.0
H1611 H 0.90106 0.47689 0.17192 0.0
H1612 H 0.93843 0.48753 0.16762 0.0
H1613 H 0.92054 0.432 0.13919 0.0
H1614 H 0.88304 0.42091 0.14354 0.0
H1615 H 0.81756 0.44631 0.09093 0.0
H1616 H 0.83942 0.45445 0.11788 0.0
H1617 H 0.79622 0.39542 0.13972 0.0
H1618 H 0.77411 0.38719 0.11291 0.0
H1619 H 0.86019 0.43716 0.13237 0.0
H1620 H 0.79366 0.40033 0.18527 0.0
H1621 H 0.75703 0.39235 0.18943 0.0
H1622 H 0.76827 0.44122 0.15419 0.0
H1623 H 0.80502 0.44966 0.15002 0.0
C1624 C 0.89188 0.43732 0.21518 0.0
C1625 C 0.89323 0.45204 0.22743 0.0
C1626 C 0.88075 0.43366 0.19903 0.0
C1627 C 0.87081 0.44467 0.19485 0.0
C1628 C 0.87234 0.45951 0.20696 0.0
C1629 C 0.88346 0.4632 0.22306 0.0
C1630 C 0.85815 0.4403 0.17819 0.0
C1631 C 0.83694 0.43481 0.17982 0.0
C1632 C 0.86671 0.44135 0.16087 0.0
C1633 C 0.88924 0.44799 0.15822 0.0
C1634 C 0.90509 0.46688 0.16489 0.0
C1635 C 0.9263 0.473 0.16241 0.0
C1636 C 0.93186 0.46042 0.15318 0.0
C1637 C 0.91621 0.44172 0.14636 0.0
C1638 C 0.89498 0.43551 0.14881 0.0
C1639 C 0.81265 0.43504 0.10147 0.0
C1640 C 0.794 0.41612 0.09979 0.0
C1641 C 0.82525 0.4397 0.11682 0.0
C1642 C 0.81938 0.4256 0.13083 0.0
C1643 C 0.80091 0.40662 0.12913 0.0
C1644 C 0.7883 0.40192 0.11379 0.0
C1645 C 0.83246 0.43088 0.14732 0.0
C1646 C 0.8537 0.43648 0.14566 0.0
C1647 C 0.82403 0.43026 0.16462 0.0
C1648 C 0.80202 0.42547 0.16719 0.0
C1649 C 0.78832 0.40941 0.17846 0.0
C1650 C 0.76754 0.4048 0.18082 0.0
C1651 C 0.7603 0.41623 0.17203 0.0
C1652 C 0.77386 0.43233 0.16093 0.0
C1653 C 0.79467 0.43701 0.15854 0.0
H1654 H 0.74421 0.41263 0.17387 0.0
H1655 H 0.94828 0.4652 0.15128 0.0
loop_
_geom_bond_atom_site_label_1
_geom_bond_atom_site_label_2
_geom_bond_distance
_geom_bond_site_symmetry_2
_ccdc_geom_bond_type
H0 C27 0.929 . S
N1 C26 1.433 . S
N1 C32 1.435 . S
N1 C38 1.423 . S
H2 C28 0.930 . S
H3 C31 0.931 . S
H4 C30 0.929 . S
H5 C33 0.930 . S
H6 C34 0.932 . S
H7 C37 0.929 . S
H8 C36 0.931 . S
H9 C39 0.929 . S
H10 C43 0.932 . S
H11 C40 0.931 . S
H12 C42 0.929 . S
H13 C45 0.929 . S
H14 C46 0.930 . S
H15 C48 0.929 . S
H16 C49 0.931 . S
H17 C51 0.930 . S
H18 C52 0.932 . S
H19 C54 0.931 . S
H20 C55 0.929 . S
H21 C57 0.929 . S
H22 C58 0.913 1_455 S
H23 C60 0.929 . S
N24 C44 1.433 . S
N24 C50 1.435 . S
N24 C56 1.423 . S
H25 C61 0.932 . S
C26 N1 1.433 . S
C26 C27 1.363 . S
C26 C31 1.370 . S
C27 H0 0.929 . S
C27 C26 1.363 . S
C27 C28 1.385 . S
C28 H2 0.930 . S
C28 C27 1.385 . S
C28 C29 1.357 . S
C29 C28 1.357 . S
C29 C30 1.406 . S
C30 H4 0.929 . S
C30 C29 1.406 . S
C30 C31 1.391 . S
C31 H3 0.931 . S
C31 C26 1.370 . S
C31 C30 1.391 . S
C32 N1 1.435 . S
C32 C33 1.358 . S
C32 C37 1.371 . S
C33 H5 0.930 . S
C33 C32 1.358 . S
C33 C34 1.405 . S
C34 H6 0.932 . S
C34 C33 1.405 . S
C34 C35 1.383 . S
C35 C34 1.383 . S
C35 C36 1.393 . S
C36 H8 0.931 . S
C36 C35 1.393 . S
C36 C37 1.382 . S
C37 H7 0.929 . S
C37 C32 1.371 . S
C37 C36 1.382 . S
C38 N1 1.423 . S
C38 C39 1.362 . S
C38 C43 1.388 . S
C39 H9 0.929 . S
C39 C38 1.362 . S
C39 C40 1.376 . S
C40 H11 0.931 . S
C40 C39 1.376 . S
C40 C41 1.396 . S
C41 C40 1.396 . S
C41 C42 1.348 . S
C41 C59 1.472 1_455 S
C42 H12 0.929 . S
C42 C41 1.348 . S
C42 C43 1.443 . S
C43 H10 0.932 . S
C43 C38 1.388 . S
C43 C42 1.443 . S
C44 N24 1.433 . S
C44 C45 1.363 . S
C44 C49 1.370 . S
C45 H13 0.929 . S
C45 C44 1.363 . S
C45 C46 1.385 . S
C46 H14 0.930 . S
C46 C45 1.385 . S
C46 C47 1.357 . S
C47 C46 1.357 . S
C47 C48 1.406 . S
C48 H15 0.929 . S
C48 C47 1.406 . S
C48 C49 1.391 . S
C49 H16 0.931 . S
C49 C44 1.370 . S
C49 C48 1.391 . S
C50 N24 1.435 . S
C50 C51 1.358 . S
C50 C55 1.371 . S
C51 H17 0.930 . S
C51 C50 1.358 . S
C51 C52 1.405 . S
C52 H18 0.932 . S
C52 C51 1.405 . S
C52 C53 1.383 . S
C53 C52 1.383 . S
C53 C54 1.393 . S
C54 H19 0.931 . S
C54 C53 1.393 . S
C54 C55 1.382 . S
C55 H20 0.929 . S
C55 C50 1.371 . S
C55 C54 1.382 . S
C56 N24 1.423 . S
C56 C57 1.362 . S
C56 C61 1.388 . S
C57 H21 0.929 . S
C57 C56 1.362 . S
C57 C58 1.376 . S
C58 H22 0.913 1_655 S
C58 C57 1.376 . S
C58 C59 1.396 . S
C59 C41 1.472 1_655 S
C59 C58 1.396 . S
C59 C60 1.348 . S
C60 H23 0.929 . S
C60 C59 1.348 . S
C60 C61 1.443 . S
C61 H25 0.932 . S
C61 C56 1.388 . S
C61 C60 1.443 . S
H62 C89 0.929 . S
N63 C88 1.433 . S
N63 C94 1.435 . S
N63 C100 1.423 . S
H64 C90 0.930 . S
H65 C93 0.931 . S
H66 C92 0.929 . S
H67 C95 0.930 . S
H68 C96 0.932 . S
H69 C99 0.929 . S
H70 C98 0.931 . S
H71 C101 0.929 . S
H72 C105 0.932 . S
H73 C102 0.931 . S
H74 C104 0.928 1_545 S
H75 C107 0.929 . S
H76 C108 0.930 . S
H77 C110 0.929 . S
H78 C111 0.931 . S
H79 C113 0.930 . S
H80 C114 0.932 . S
H81 C116 0.931 . S
H82 C117 0.929 . S
H83 C119 0.929 . S
H84 C120 0.931 . S
H85 C122 0.929 . S
N86 C106 1.433 . S
N86 C112 1.435 . S
N86 C118 1.423 . S
H87 C123 0.932 . S
C88 N63 1.433 . S
C88 C89 1.363 . S
C88 C93 1.370 . S
C89 H62 0.929 . S
C89 C88 1.363 . S
C89 C90 1.385 . S
C90 H64 0.930 . S
C90 C89 1.385 . S
C90 C91 1.357 . S
C91 C90 1.357 . S
C91 C92 1.406 . S
C92 H66 0.929 . S
C92 C91 1.406 . S
C92 C93 1.391 . S
C93 H65 0.931 . S
C93 C88 1.370 . S
C93 C92 1.391 . S
C94 N63 1.435 . S
C94 C95 1.358 . S
C94 C99 1.371 . S
C95 H67 0.930 . S
C95 C94 1.358 . S
C95 C96 1.405 . S
C96 H68 0.932 . S
C96 C95 1.405 . S
C96 C97 1.383 . S
C97 C96 1.383 . S
C97 C98 1.393 . S
C98 H70 0.931 . S
C98 C97 1.393 . S
C98 C99 1.382 . S
C99 H69 0.929 . S
C99 C94 1.371 . S
C99 C98 1.382 . S
C100 N63 1.423 . S
C100 C101 1.362 . S
C100 C105 1.388 . S
C101 H71 0.929 . S
C101 C100 1.362 . S
C101 C102 1.376 . S
C102 H73 0.931 . S
C102 C101 1.376 . S
C102 C103 1.396 1_565 S
C103 C102 1.396 1_545 S
C103 C104 1.348 1_545 S
C103 C121 1.472 . S
C104 H74 0.928 1_565 S
C104 C103 1.348 1_565 S
C104 C105 1.444 . S
C105 H72 0.932 . S
C105 C100 1.388 . S
C105 C104 1.444 . S
C106 N86 1.433 . S
C106 C107 1.363 . S
C106 C111 1.370 . S
C107 H75 0.929 . S
C107 C106 1.363 . S
C107 C108 1.385 . S
C108 H76 0.930 . S
C108 C107 1.385 . S
C108 C109 1.357 . S
C109 C108 1.357 . S
C109 C110 1.406 . S
C110 H77 0.929 . S
C110 C109 1.406 . S
C110 C111 1.391 . S
C111 H78 0.931 . S
C111 C106 1.370 . S
C111 C110 1.391 . S
C112 N86 1.435 . S
C112 C113 1.358 . S
C112 C117 1.371 . S
C113 H79 0.930 . S
C113 C112 1.358 . S
C113 C114 1.405 . S
C114 H80 0.932 . S
C114 C113 1.405 . S
C114 C115 1.383 . S
C115 C114 1.383 . S
C115 C116 1.393 . S
C116 H81 0.931 . S
C116 C115 1.393 . S
C116 C117 1.382 . S
C117 H82 0.929 . S
C117 C112 1.371 . S
C117 C116 1.382 . S
C118 N86 1.423 . S
C118 C119 1.362 . S
C118 C123 1.388 . S
C119 H83 0.929 . S
C119 C118 1.362 . S
C119 C120 1.376 . S
C120 H84 0.931 . S
C120 C119 1.376 . S
C120 C121 1.396 . S
C121 C103 1.472 . S
C121 C120 1.396 . S
C121 C122 1.348 . S
C122 H85 0.929 . S
C122 C121 1.348 . S
C122 C123 1.443 . S
C123 H87 0.932 . S
C123 C118 1.388 . S
C123 C122 1.443 . S
H124 C151 0.929 . S
N125 C150 1.433 . S
N125 C156 1.435 . S
N125 C162 1.423 . S
H126 C152 0.930 . S
H127 C155 0.931 . S
H128 C154 0.929 . S
H129 C157 0.930 . S
H130 C158 0.932 . S
H131 C161 0.929 . S
H132 C160 0.931 . S
H133 C163 0.929 . S
H134 C167 0.932 . S
H135 C164 0.931 . S
H136 C166 0.929 . S
H137 C169 0.929 . S
H138 C170 0.930 . S
H139 C172 0.929 . S
H140 C173 0.931 . S
H141 C175 0.930 . S
H142 C176 0.932 . S
H143 C178 0.931 . S
H144 C179 0.929 . S
H145 C181 0.929 . S
H146 C182 0.931 . S
H147 C184 0.929 . S
N148 C168 1.433 . S
N148 C174 1.435 . S
N148 C180 1.423 . S
H149 C185 0.932 . S
C150 N125 1.433 . S
C150 C151 1.363 . S
C150 C155 1.370 . S
C151 H124 0.929 . S
C151 C150 1.363 . S
C151 C152 1.385 . S
C152 H126 0.930 . S
C152 C151 1.385 . S
C152 C153 1.357 . S
C153 C152 1.357 . S
C153 C154 1.406 . S
C154 H128 0.929 . S
C154 C153 1.406 . S
C154 C155 1.391 . S
C155 H127 0.931 . S
C155 C150 1.370 . S
C155 C154 1.391 . S
C156 N125 1.435 . S
C156 C157 1.358 . S
C156 C161 1.371 . S
C157 H129 0.930 . S
C157 C156 1.358 . S
C157 C158 1.405 . S
C158 H130 0.932 . S
C158 C157 1.405 . S
C158 C159 1.383 . S
C159 C158 1.383 . S
C159 C160 1.393 . S
C160 H132 0.931 . S
C160 C159 1.393 . S
C160 C161 1.382 . S
C161 H131 0.929 . S
C161 C156 1.371 . S
C161 C160 1.382 . S
C162 N125 1.423 . S
C162 C163 1.362 . S
C162 C167 1.388 . S
C163 H133 0.929 . S
C163 C162 1.362 . S
C163 C164 1.376 . S
C164 H135 0.931 . S
C164 C163 1.376 . S
C164 C165 1.396 . S
C165 C164 1.396 . S
C165 C166 1.348 . S
C165 C183 1.472 . S
C166 H136 0.929 . S
C166 C165 1.348 . S
C166 C167 1.443 . S
C167 H134 0.932 . S
C167 C162 1.388 . S
C167 C166 1.443 . S
C168 N148 1.433 . S
C168 C169 1.363 . S
C168 C173 1.370 . S
C169 H137 0.929 . S
C169 C168 1.363 . S
C169 C170 1.385 . S
C170 H138 0.930 . S
C170 C169 1.385 . S
C170 C171 1.357 . S
C171 C170 1.357 . S
C171 C172 1.406 . S
C172 H139 0.929 . S
C172 C171 1.406 . S
C172 C173 1.391 . S
C173 H140 0.931 . S
C173 C168 1.370 . S
C173 C172 1.391 . S
C174 N148 1.435 . S
C174 C175 1.358 . S
C174 C179 1.371 . S
C175 H141 0.930 . S
C175 C174 1.358 . S
C175 C176 1.405 . S
C176 H142 0.932 . S
C176 C175 1.405 . S
C176 C177 1.383 . S
C177 C176 1.383 . S
C177 C178 1.393 . S
C178 H143 0.931 . S
C178 C177 1.393 . S
C178 C179 1.382 . S
C179 H144 0.929 . S
C179 C174 1.371 . S
C179 C178 1.382 . S
C180 N148 1.423 . S
C180 C181 1.362 . S
C180 C185 1.388 . S
C181 H145 0.929 . S
C181 C180 1.362 . S
C181 C182 1.376 . S
C182 H146 0.931 . S
C182 C181 1.376 . S
C182 C183 1.396 . S
C183 C165 1.472 . S
C183 C182 1.396 . S
C183 C184 1.348 . S
C184 H147 0.929 . S
C184 C183 1.348 . S
C184 C185 1.443 . S
C185 H149 0.932 . S
C185 C180 1.388 . S
C185 C184 1.443 . S
H186 C213 0.929 . S
N187 C212 1.433 . S
N187 C218 1.435 . S
N187 C224 1.423 . S
H188 C214 0.930 . S
H189 C217 0.931 . S
H190 C216 0.929 . S
H191 C219 0.930 . S
H192 C220 0.932 . S
H193 C223 0.929 . S
H194 C222 0.931 . S
H195 C225 0.929 . S
H196 C229 0.932 . S
H197 C226 0.931 . S
H198 C228 0.929 . S
H199 C231 0.929 . S
H200 C232 0.930 . S
H201 C234 0.929 . S
H202 C235 0.931 . S
H203 C237 0.930 . S
H204 C238 0.932 . S
H205 C240 0.931 . S
H206 C241 0.929 . S
H207 C243 0.929 . S
H208 C244 0.931 . S
H209 C246 0.929 . S
N210 C230 1.433 . S
N210 C236 1.435 . S
N210 C242 1.423 . S
H211 C247 0.932 . S
C212 N187 1.433 . S
C212 C213 1.363 . S
C212 C217 1.370 . S
C213 H186 0.929 . S
C213 C212 1.363 . S
C213 C214 1.385 . S
C214 H188 0.930 . S
C214 C213 1.385 . S
C214 C215 1.357 . S
C215 C214 1.357 . S
C215 C216 1.406 . S
C216 H190 0.929 . S
C216 C215 1.406 . S
C216 C217 1.391 . S
C217 H189 0.931 . S
C217 C212 1.370 . S
C217 C216 1.391 . S
C218 N187 1.435 . S
C218 C219 1.358 . S
C218 C223 1.371 . S
C219 H191 0.930 . S
C219 C218 1.358 . S
C219 C220 1.405 . S
C220 H192 0.932 . S
C220 C219 1.405 . S
C220 C221 1.383 . S
C221 C220 1.383 . S
C221 C222 1.393 . S
C222 H194 0.931 . S
C222 C221 1.393 . S
C222 C223 1.382 . S
C223 H193 0.929 . S
C223 C218 1.371 . S
C223 C222 1.382 . S
C224 N187 1.423 . S
C224 C225 1.362 . S
C224 C229 1.388 . S
C225 H195 0.929 . S
C225 C224 1.362 . S
C225 C226 1.376 . S
C226 H197 0.931 . S
C226 C225 1.376 . S
C226 C227 1.396 . S
C227 C226 1.396 . S
C227 C228 1.348 . S
C227 C245 1.472 1_455 S
C228 H198 0.929 . S
C228 C227 1.348 . S
C228 C229 1.443 . S
C229 H196 0.932 . S
C229 C224 1.388 . S
C229 C228 1.443 . S
C230 N210 1.433 . S
C230 C231 1.363 . S
C230 C235 1.370 . S
C231 H199 0.929 . S
C231 C230 1.363 . S
C231 C232 1.385 . S
C232 H200 0.930 . S
C232 C231 1.385 . S
C232 C233 1.357 . S
C233 C232 1.357 . S
C233 C234 1.406 . S
C234 H201 0.929 . S
C234 C233 1.406 . S
C234 C235 1.391 . S
C235 H202 0.931 . S
C235 C230 1.370 . S
C235 C234 1.391 . S
C236 N210 1.435 . S
C236 C237 1.358 . S
C236 C241 1.371 . S
C237 H203 0.930 . S
C237 C236 1.358 . S
C237 C238 1.405 . S
C238 H204 0.932 . S
C238 C237 1.405 . S
C238 C239 1.383 . S
C239 C238 1.383 . S
C239 C240 1.393 . S
C240 H205 0.931 . S
C240 C239 1.393 . S
C240 C241 1.382 . S
C241 H206 0.929 . S
C241 C236 1.371 . S
C241 C240 1.382 . S
C242 N210 1.423 . S
C242 C243 1.362 . S
C242 C247 1.388 . S
C243 H207 0.929 . S
C243 C242 1.362 . S
C243 C244 1.376 . S
C244 H208 0.931 . S
C244 C243 1.376 . S
C244 C245 1.396 . S
C245 C227 1.472 1_655 S
C245 C244 1.396 . S
C245 C246 1.348 . S
C246 H209 0.929 . S
C246 C245 1.348 . S
C246 C247 1.443 . S
C247 H211 0.932 . S
C247 C242 1.388 . S
C247 C246 1.443 . S
H248 C275 0.929 . S
N249 C274 1.433 . S
N249 C280 1.435 . S
N249 C286 1.423 . S
H250 C276 0.930 . S
H251 C279 0.931 . S
H252 C278 0.929 . S
H253 C281 0.930 . S
H254 C282 0.932 . S
H255 C285 0.929 . S
H256 C284 0.931 . S
H257 C287 0.929 . S
H258 C291 0.932 . S
H259 C288 0.931 . S
H260 C290 0.929 . S
H261 C293 0.929 . S
H262 C294 0.930 . S
H263 C296 0.929 . S
H264 C297 0.931 . S
H265 C299 0.930 1_554 S
H266 C300 0.932 . S
H267 C302 0.931 . S
H268 C303 0.929 . S
H269 C305 0.929 . S
H270 C306 0.913 1_554 S
H271 C308 0.929 . S
N272 C292 1.433 . S
N272 C298 1.435 1_554 S
N272 C304 1.423 1_554 S
H273 C309 0.932 . S
C274 N249 1.433 . S
C274 C275 1.363 . S
C274 C279 1.370 . S
C275 H248 0.929 . S
C275 C274 1.363 . S
C275 C276 1.385 . S
C276 H250 0.930 . S
C276 C275 1.385 . S
C276 C277 1.357 1_556 S
C277 C276 1.357 1_554 S
C277 C278 1.406 . S
C278 H252 0.929 . S
C278 C277 1.406 . S
C278 C279 1.391 1_554 S
C279 H251 0.931 . S
C279 C274 1.370 . S
C279 C278 1.391 1_556 S
C280 N249 1.435 . S
C280 C281 1.358 . S
C280 C285 1.371 . S
C281 H253 0.930 . S
C281 C280 1.358 . S
C281 C282 1.405 . S
C282 H254 0.932 . S
C282 C281 1.405 . S
C282 C283 1.383 . S
C283 C282 1.383 . S
C283 C284 1.393 . S
C284 H256 0.931 . S
C284 C283 1.393 . S
C284 C285 1.382 . S
C285 H255 0.929 . S
C285 C280 1.371 . S
C285 C284 1.382 . S
C286 N249 1.423 . S
C286 C287 1.362 . S
C286 C291 1.388 . S
C287 H257 0.929 . S
C287 C286 1.362 . S
C287 C288 1.376 . S
C288 H259 0.931 . S
C288 C287 1.376 . S
C288 C289 1.396 . S
C289 C288 1.396 . S
C289 C290 1.348 . S
C289 C307 1.472 1_545 S
C290 H260 0.929 . S
C290 C289 1.348 . S
C290 C291 1.443 . S
C291 H258 0.932 . S
C291 C286 1.388 . S
C291 C290 1.443 . S
C292 N272 1.433 . S
C292 C293 1.363 . S
C292 C297 1.370 . S
C293 H261 0.929 . S
C293 C292 1.363 . S
C293 C294 1.385 . S
C294 H262 0.930 . S
C294 C293 1.385 . S
C294 C295 1.357 . S
C295 C294 1.357 . S
C295 C296 1.406 . S
C296 H263 0.929 . S
C296 C295 1.406 . S
C296 C297 1.391 . S
C297 H264 0.931 . S
C297 C292 1.370 . S
C297 C296 1.391 . S
C298 N272 1.435 1_556 S
C298 C299 1.358 . S
C298 C303 1.371 . S
C299 H265 0.930 1_556 S
C299 C298 1.358 . S
C299 C300 1.405 . S
C300 H266 0.932 . S
C300 C299 1.405 . S
C300 C301 1.383 . S
C301 C300 1.383 . S
C301 C302 1.393 . S
C302 H267 0.931 . S
C302 C301 1.393 . S
C302 C303 1.382 . S
C303 H268 0.929 . S
C303 C298 1.371 . S
C303 C302 1.382 . S
C304 N272 1.423 1_556 S
C304 C305 1.362 1_556 S
C304 C309 1.388 . S
C305 H269 0.929 . S
C305 C304 1.362 1_554 S
C305 C306 1.376 1_554 S
C306 H270 0.913 1_556 S
C306 C305 1.376 1_556 S
C306 C307 1.396 . S
C307 C289 1.472 1_565 S
C307 C306 1.396 . S
C307 C308 1.348 . S
C308 H271 0.929 . S
C308 C307 1.348 . S
C308 C309 1.443 . S
C309 H273 0.932 . S
C309 C304 1.388 . S
C309 C308 1.443 . S
H310 C337 0.929 . S
N311 C336 1.433 . S
N311 C342 1.435 . S
N311 C348 1.423 . S
H312 C338 0.930 . S
H313 C341 0.931 . S
H314 C340 0.929 . S
H315 C343 0.930 . S
H316 C344 0.932 . S
H317 C347 0.929 . S
H318 C346 0.931 . S
H319 C349 0.929 . S
H320 C353 0.932 . S
H321 C350 0.931 . S
H322 C352 0.929 . S
H323 C355 0.929 . S
H324 C356 0.930 . S
H325 C358 0.929 . S
H326 C359 0.931 . S
H327 C361 0.930 . S
H328 C362 0.932 . S
H329 C364 0.931 . S
H330 C365 0.929 . S
H331 C367 0.929 . S
H332 C368 0.931 . S
H333 C370 0.929 . S
N334 C354 1.433 . S
N334 C360 1.435 . S
N334 C366 1.423 . S
H335 C371 0.932 . S
C336 N311 1.433 . S
C336 C337 1.363 . S
C336 C341 1.370 . S
C337 H310 0.929 . S
C337 C336 1.363 . S
C337 C338 1.385 . S
C338 H312 0.930 . S
C338 C337 1.385 . S
C338 C339 1.357 . S
C339 C338 1.357 . S
C339 C340 1.406 . S
C340 H314 0.929 . S
C340 C339 1.406 . S
C340 C341 1.391 . S
C341 H313 0.931 . S
C341 C336 1.370 . S
C341 C340 1.391 . S
C342 N311 1.435 . S
C342 C343 1.358 . S
C342 C347 1.371 . S
C343 H315 0.930 . S
C343 C342 1.358 . S
C343 C344 1.405 . S
C344 H316 0.932 . S
C344 C343 1.405 . S
C344 C345 1.383 . S
C345 C344 1.383 . S
C345 C346 1.393 . S
C346 H318 0.931 . S
C346 C345 1.393 . S
C346 C347 1.382 . S
C347 H317 0.929 . S
C347 C342 1.371 . S
C347 C346 1.382 . S
C348 N311 1.423 . S
C348 C349 1.362 . S
C348 C353 1.388 . S
C349 H319 0.929 . S
C349 C348 1.362 . S
C349 C350 1.376 . S
C350 H321 0.931 . S
C350 C349 1.376 . S
C350 C351 1.396 . S
C351 C350 1.396 . S
C351 C352 1.348 . S
C351 C369 1.472 . S
C352 H322 0.929 . S
C352 C351 1.348 . S
C352 C353 1.443 . S
C353 H320 0.932 . S
C353 C348 1.388 . S
C353 C352 1.443 . S
C354 N334 1.433 . S
C354 C355 1.363 . S
C354 C359 1.370 . S
C355 H323 0.929 . S
C355 C354 1.363 . S
C355 C356 1.385 . S
C356 H324 0.930 . S
C356 C355 1.385 . S
C356 C357 1.357 . S
C357 C356 1.357 . S
C357 C358 1.406 . S
C358 H325 0.929 . S
C358 C357 1.406 . S
C358 C359 1.391 . S
C359 H326 0.931 . S
C359 C354 1.370 . S
C359 C358 1.391 . S
C360 N334 1.435 . S
C360 C361 1.358 . S
C360 C365 1.371 . S
C361 H327 0.930 . S
C361 C360 1.358 . S
C361 C362 1.405 . S
C362 H328 0.932 . S
C362 C361 1.405 . S
C362 C363 1.383 . S
C363 C362 1.383 . S
C363 C364 1.393 . S
C364 H329 0.931 . S
C364 C363 1.393 . S
C364 C365 1.382 . S
C365 H330 0.929 . S
C365 C360 1.371 . S
C365 C364 1.382 . S
C366 N334 1.423 . S
C366 C367 1.362 . S
C366 C371 1.388 . S
C367 H331 0.929 . S
C367 C366 1.362 . S
C367 C368 1.376 . S
C368 H332 0.931 . S
C368 C367 1.376 . S
C368 C369 1.396 . S
C369 C351 1.472 . S
C369 C368 1.396 . S
C369 C370 1.348 . S
C370 H333 0.929 . S
C370 C369 1.348 . S
C370 C371 1.443 . S
C371 H335 0.932 . S
C371 C366 1.388 . S
C371 C370 1.443 . S
C372 O373 1.306 . S
C372 O375 1.160 . S
O373 C372 1.306 . S
O373 Cd374 2.228 . S
Cd374 O373 2.228 . S
Cd374 O378 2.273 . S
Cd374 O382 2.277 . S
O375 C372 1.160 . S
O375 Cd376 2.203 . S
Cd376 O375 2.203 . S
Cd376 O378 2.411 . S
Cd376 O379 2.333 . S
Cd376 O380 2.352 . S
Cd376 O384 2.277 . S
Cd376 O385 2.356 . S
C377 O382 1.209 . S
C377 O384 1.226 . S
O378 Cd374 2.273 . S
O378 Cd376 2.411 . S
O378 C381 1.320 . S
O379 Cd376 2.333 . S
O379 C381 1.214 . S
O380 Cd376 2.352 . S
O380 C383 1.258 . S
C381 O378 1.320 . S
C381 O379 1.214 . S
O382 Cd374 2.277 . S
O382 C377 1.209 . S
C383 O380 1.258 . S
C383 O385 1.282 . S
O384 Cd376 2.277 . S
O384 C377 1.226 . S
O385 Cd376 2.356 . S
O385 C383 1.282 . S
C386 O387 1.306 . S
C386 O389 1.160 . S
O387 C386 1.306 . S
O387 Cd388 2.228 . S
Cd388 O387 2.228 . S
Cd388 O392 2.273 . S
Cd388 O396 2.277 . S
O389 C386 1.160 . S
O389 Cd390 2.203 . S
Cd390 O389 2.203 . S
Cd390 O392 2.411 . S
Cd390 O393 2.333 . S
Cd390 O394 2.352 . S
Cd390 O398 2.277 . S
Cd390 O399 2.356 . S
C391 O396 1.209 . S
C391 O398 1.226 . S
O392 Cd388 2.273 . S
O392 Cd390 2.411 . S
O392 C395 1.320 . S
O393 Cd390 2.333 . S
O393 C395 1.214 . S
O394 Cd390 2.352 . S
O394 C397 1.258 . S
C395 O392 1.320 . S
C395 O393 1.214 . S
O396 Cd388 2.277 . S
O396 C391 1.209 . S
C397 O394 1.258 . S
C397 O399 1.282 . S
O398 Cd390 2.277 . S
O398 C391 1.226 . S
O399 Cd390 2.356 . S
O399 C397 1.282 . S
C400 O401 1.306 . S
C400 O403 1.160 . S
O401 C400 1.306 . S
O401 Cd402 2.228 . S
Cd402 O401 2.228 . S
Cd402 O406 2.273 . S
Cd402 O410 2.277 . S
O403 C400 1.160 . S
O403 Cd404 2.203 . S
Cd404 O403 2.203 . S
Cd404 O406 2.411 . S
Cd404 O407 2.333 . S
Cd404 O408 2.352 . S
Cd404 O412 2.277 . S
Cd404 O413 2.356 . S
C405 O410 1.209 . S
C405 O412 1.226 . S
O406 Cd402 2.273 . S
O406 Cd404 2.411 . S
O406 C409 1.320 . S
O407 Cd404 2.333 . S
O407 C409 1.214 . S
O408 Cd404 2.352 . S
O408 C411 1.258 . S
C409 O406 1.320 . S
C409 O407 1.214 . S
O410 Cd402 2.277 . S
O410 C405 1.209 . S
C411 O408 1.258 . S
C411 O413 1.282 . S
O412 Cd404 2.277 . S
O412 C405 1.226 . S
O413 Cd404 2.356 . S
O413 C411 1.282 . S
C414 O415 1.306 . S
C414 O417 1.160 . S
O415 C414 1.306 . S
O415 Cd416 2.228 . S
Cd416 O415 2.228 . S
Cd416 O420 2.273 . S
Cd416 O424 2.277 . S
O417 C414 1.160 . S
O417 Cd418 2.203 . S
Cd418 O417 2.203 . S
Cd418 O420 2.411 . S
Cd418 O421 2.333 . S
Cd418 O422 2.352 . S
Cd418 O426 2.277 . S
Cd418 O427 2.356 . S
C419 O424 1.209 . S
C419 O426 1.226 . S
O420 Cd416 2.273 . S
O420 Cd418 2.411 . S
O420 C423 1.320 . S
O421 Cd418 2.333 . S
O421 C423 1.214 . S
O422 Cd418 2.352 . S
O422 C425 1.258 . S
C423 O420 1.320 . S
C423 O421 1.214 . S
O424 Cd416 2.277 . S
O424 C419 1.209 . S
C425 O422 1.258 . S
C425 O427 1.282 . S
O426 Cd418 2.277 . S
O426 C419 1.226 . S
O427 Cd418 2.356 . S
O427 C425 1.282 . S
C428 O429 1.306 . S
C428 O431 1.160 . S
O429 C428 1.306 . S
O429 Cd430 2.228 . S
Cd430 O429 2.228 . S
Cd430 O434 2.273 . S
Cd430 O438 2.277 . S
O431 C428 1.160 . S
O431 Cd432 2.203 . S
Cd432 O431 2.203 . S
Cd432 O434 2.411 . S
Cd432 O435 2.333 . S
Cd432 O436 2.352 . S
Cd432 O440 2.277 . S
Cd432 O441 2.356 . S
C433 O438 1.209 . S
C433 O440 1.226 . S
O434 Cd430 2.273 . S
O434 Cd432 2.411 . S
O434 C437 1.320 . S
O435 Cd432 2.333 . S
O435 C437 1.214 . S
O436 Cd432 2.352 . S
O436 C439 1.258 . S
C437 O434 1.320 . S
C437 O435 1.214 . S
O438 Cd430 2.277 . S
O438 C433 1.209 . S
C439 O436 1.258 . S
C439 O441 1.282 . S
O440 Cd432 2.277 . S
O440 C433 1.226 . S
O441 Cd432 2.356 . S
O441 C439 1.282 . S
C442 O443 1.306 . S
C442 O445 1.160 . S
O443 C442 1.306 . S
O443 Cd444 2.228 . S
Cd444 O443 2.228 . S
Cd444 O448 2.273 . S
Cd444 O452 2.277 . S
O445 C442 1.160 . S
O445 Cd446 2.203 . S
Cd446 O445 2.203 . S
Cd446 O448 2.411 . S
Cd446 O449 2.333 . S
Cd446 O450 2.352 . S
Cd446 O454 2.277 . S
Cd446 O455 2.356 . S
C447 O452 1.209 . S
C447 O454 1.226 . S
O448 Cd444 2.273 . S
O448 Cd446 2.411 . S
O448 C451 1.320 . S
O449 Cd446 2.333 . S
O449 C451 1.214 . S
O450 Cd446 2.352 . S
O450 C453 1.258 . S
C451 O448 1.320 . S
C451 O449 1.214 . S
O452 Cd444 2.277 . S
O452 C447 1.209 . S
C453 O450 1.258 . S
C453 O455 1.282 . S
O454 Cd446 2.277 . S
O454 C447 1.226 . S
O455 Cd446 2.356 . S
O455 C453 1.282 . S
H456 C474 0.951 . S
H457 C476 0.951 . S
H458 C478 0.950 . S
H459 C479 0.950 . S
H460 C481 0.950 . S
H461 C484 0.950 . S
H462 C485 0.950 . S
H463 C487 0.950 . S
H464 C488 0.950 . S
H465 C489 0.951 . S
H466 C491 0.951 . S
H467 C493 0.950 . S
H468 C494 0.950 . S
H469 C496 0.950 . S
H470 C499 0.950 . S
H471 C500 0.950 . S
H472 C502 0.950 . S
H473 C503 0.950 . S
C474 H456 0.951 . S
C474 C475 1.366 . S
C474 C476 1.388 . S
C475 C474 1.366 . S
C475 C479 1.385 . S
C476 H457 0.951 . S
C476 C474 1.388 . S
C476 C477 1.366 . S
C477 C476 1.366 . S
C477 C478 1.414 . S
C477 C480 1.499 . S
C478 H458 0.950 . S
C478 C477 1.414 . S
C478 C479 1.374 . S
C479 H459 0.950 . S
C479 C475 1.385 . S
C479 C478 1.374 . S
C480 C477 1.499 . S
C480 C481 1.373 . S
C480 C482 1.389 . S
C481 H460 0.950 . S
C481 C480 1.373 . S
C481 C497 1.377 . S
C482 C480 1.389 . S
C482 C483 1.524 . S
C482 C496 1.377 . S
C483 C482 1.524 . S
C483 C484 1.397 . S
C483 C488 1.363 . S
C484 H461 0.950 . S
C484 C483 1.397 . S
C484 C485 1.334 . S
C485 H462 0.950 . S
C485 C484 1.334 . S
C485 C486 1.287 . S
C486 C485 1.287 . S
C486 C487 1.524 . S
C486 H505 0.913 . S
C487 H463 0.950 . S
C487 C486 1.524 . S
C487 C488 1.415 . S
C488 H464 0.950 . S
C488 C483 1.363 . S
C488 C487 1.415 . S
C489 H465 0.951 . S
C489 C490 1.366 . S
C489 C491 1.388 . S
C490 C489 1.366 . S
C490 C494 1.385 . S
C491 H466 0.951 . S
C491 C489 1.388 . S
C491 C492 1.366 . S
C492 C491 1.366 . S
C492 C493 1.414 . S
C492 C495 1.499 . S
C493 H467 0.950 . S
C493 C492 1.414 . S
C493 C494 1.374 . S
C494 H468 0.950 . S
C494 C490 1.385 . S
C494 C493 1.374 . S
C495 C492 1.499 . S
C495 C496 1.373 . S
C495 C497 1.389 . S
C496 H469 0.950 . S
C496 C482 1.377 . S
C496 C495 1.373 . S
C497 C481 1.377 . S
C497 C495 1.389 . S
C497 C498 1.524 . S
C498 C497 1.524 . S
C498 C499 1.397 . S
C498 C503 1.363 . S
C499 H470 0.950 . S
C499 C498 1.397 . S
C499 C500 1.334 . S
C500 H471 0.950 . S
C500 C499 1.334 . S
C500 C501 1.287 . S
C501 C500 1.287 . S
C501 C502 1.524 . S
C501 H504 0.999 . S
C502 H472 0.950 . S
C502 C501 1.524 . S
C502 C503 1.415 . S
C503 H473 0.950 . S
C503 C498 1.363 . S
C503 C502 1.415 . S
H504 C501 0.999 . S
H505 C486 0.913 . S
H506 C524 0.951 . S
H507 C526 0.951 . S
H508 C528 0.950 . S
H509 C529 0.950 . S
H510 C531 0.950 . S
H511 C534 0.950 . S
H512 C535 0.950 . S
H513 C537 0.950 . S
H514 C538 0.950 . S
H515 C539 0.951 . S
H516 C541 0.951 . S
H517 C543 0.950 . S
H518 C544 0.950 . S
H519 C546 0.950 . S
H520 C549 0.950 . S
H521 C550 0.950 . S
H522 C552 0.950 . S
H523 C553 0.950 . S
C524 H506 0.951 . S
C524 C525 1.366 . S
C524 C526 1.388 . S
C525 C524 1.366 . S
C525 C529 1.385 . S
C526 H507 0.951 . S
C526 C524 1.388 . S
C526 C527 1.366 . S
C527 C526 1.366 . S
C527 C528 1.414 . S
C527 C530 1.499 . S
C528 H508 0.950 . S
C528 C527 1.414 . S
C528 C529 1.374 . S
C529 H509 0.950 . S
C529 C525 1.385 . S
C529 C528 1.374 . S
C530 C527 1.499 . S
C530 C531 1.373 . S
C530 C532 1.389 . S
C531 H510 0.950 . S
C531 C530 1.373 . S
C531 C547 1.377 . S
C532 C530 1.389 . S
C532 C533 1.524 . S
C532 C546 1.377 . S
C533 C532 1.524 . S
C533 C534 1.397 . S
C533 C538 1.363 . S
C534 H511 0.950 . S
C534 C533 1.397 . S
C534 C535 1.334 . S
C535 H512 0.950 . S
C535 C534 1.334 . S
C535 C536 1.287 . S
C536 C535 1.287 . S
C536 C537 1.524 . S
C536 H555 0.913 . S
C537 H513 0.950 . S
C537 C536 1.524 . S
C537 C538 1.415 . S
C538 H514 0.950 . S
C538 C533 1.363 . S
C538 C537 1.415 . S
C539 H515 0.951 . S
C539 C540 1.366 . S
C539 C541 1.388 . S
C540 C539 1.366 . S
C540 C544 1.385 . S
C541 H516 0.951 . S
C541 C539 1.388 . S
C541 C542 1.366 . S
C542 C541 1.366 . S
C542 C543 1.414 . S
C542 C545 1.499 . S
C543 H517 0.950 . S
C543 C542 1.414 . S
C543 C544 1.374 . S
C544 H518 0.950 . S
C544 C540 1.385 . S
C544 C543 1.374 . S
C545 C542 1.499 . S
C545 C546 1.373 . S
C545 C547 1.389 . S
C546 H519 0.950 . S
C546 C532 1.377 . S
C546 C545 1.373 . S
C547 C531 1.377 . S
C547 C545 1.389 . S
C547 C548 1.524 . S
C548 C547 1.524 . S
C548 C549 1.397 . S
C548 C553 1.363 . S
C549 H520 0.950 . S
C549 C548 1.397 . S
C549 C550 1.334 . S
C550 H521 0.950 . S
C550 C549 1.334 . S
C550 C551 1.287 . S
C551 C550 1.287 . S
C551 C552 1.524 . S
C551 H554 0.999 . S
C552 H522 0.950 . S
C552 C551 1.524 . S
C552 C553 1.415 . S
C553 H523 0.950 . S
C553 C548 1.363 . S
C553 C552 1.415 . S
H554 C551 0.999 . S
H555 C536 0.913 . S
H556 C574 0.951 . S
H557 C576 0.951 . S
H558 C578 0.950 . S
H559 C579 0.950 . S
H560 C581 0.950 . S
H561 C584 0.950 . S
H562 C585 0.950 . S
H563 C587 0.950 . S
H564 C588 0.950 . S
H565 C589 0.951 . S
H566 C591 0.951 . S
H567 C593 0.950 . S
H568 C594 0.950 . S
H569 C596 0.950 . S
H570 C599 0.950 . S
H571 C600 0.950 . S
H572 C602 0.950 . S
H573 C603 0.950 . S
C574 H556 0.951 . S
C574 C575 1.366 . S
C574 C576 1.388 . S
C575 C574 1.366 . S
C575 C579 1.385 . S
C576 H557 0.951 . S
C576 C574 1.388 . S
C576 C577 1.366 . S
C577 C576 1.366 . S
C577 C578 1.414 . S
C577 C580 1.499 . S
C578 H558 0.950 . S
C578 C577 1.414 . S
C578 C579 1.374 . S
C579 H559 0.950 . S
C579 C575 1.385 . S
C579 C578 1.374 . S
C580 C577 1.499 . S
C580 C581 1.373 . S
C580 C582 1.389 . S
C581 H560 0.950 . S
C581 C580 1.373 . S
C581 C597 1.377 . S
C582 C580 1.389 . S
C582 C583 1.524 . S
C582 C596 1.377 . S
C583 C582 1.524 . S
C583 C584 1.397 . S
C583 C588 1.363 . S
C584 H561 0.950 . S
C584 C583 1.397 . S
C584 C585 1.334 . S
C585 H562 0.950 . S
C585 C584 1.334 . S
C585 C586 1.287 . S
C586 C585 1.287 . S
C586 C587 1.524 . S
C586 H605 0.913 . S
C587 H563 0.950 . S
C587 C586 1.524 . S
C587 C588 1.415 . S
C588 H564 0.950 . S
C588 C583 1.363 . S
C588 C587 1.415 . S
C589 H565 0.951 . S
C589 C590 1.366 . S
C589 C591 1.388 . S
C590 C589 1.366 . S
C590 C594 1.385 . S
C591 H566 0.951 . S
C591 C589 1.388 . S
C591 C592 1.366 . S
C592 C591 1.366 . S
C592 C593 1.414 . S
C592 C595 1.499 . S
C593 H567 0.950 . S
C593 C592 1.414 . S
C593 C594 1.374 . S
C594 H568 0.950 . S
C594 C590 1.385 . S
C594 C593 1.374 . S
C595 C592 1.499 . S
C595 C596 1.373 . S
C595 C597 1.389 . S
C596 H569 0.950 . S
C596 C582 1.377 . S
C596 C595 1.373 . S
C597 C581 1.377 . S
C597 C595 1.389 . S
C597 C598 1.524 . S
C598 C597 1.524 . S
C598 C599 1.397 . S
C598 C603 1.363 . S
C599 H570 0.950 . S
C599 C598 1.397 . S
C599 C600 1.334 . S
C600 H571 0.950 . S
C600 C599 1.334 . S
C600 C601 1.287 . S
C601 C600 1.287 . S
C601 C602 1.524 . S
C601 H604 0.999 . S
C602 H572 0.950 . S
C602 C601 1.524 . S
C602 C603 1.415 . S
C603 H573 0.950 . S
C603 C598 1.363 . S
C603 C602 1.415 . S
H604 C601 0.999 . S
H605 C586 0.913 . S
H606 C624 0.951 . S
H607 C626 0.951 . S
H608 C628 0.950 . S
H609 C629 0.950 . S
H610 C631 0.950 . S
H611 C634 0.950 . S
H612 C635 0.950 . S
H613 C637 0.950 . S
H614 C638 0.950 . S
H615 C639 0.951 . S
H616 C641 0.951 . S
H617 C643 0.950 . S
H618 C644 0.950 . S
H619 C646 0.950 . S
H620 C649 0.950 . S
H621 C650 0.950 . S
H622 C652 0.950 . S
H623 C653 0.950 . S
C624 H606 0.951 . S
C624 C625 1.366 . S
C624 C626 1.388 . S
C625 C624 1.366 . S
C625 C629 1.385 . S
C626 H607 0.951 . S
C626 C624 1.388 . S
C626 C627 1.366 . S
C627 C626 1.366 . S
C627 C628 1.414 . S
C627 C630 1.499 . S
C628 H608 0.950 . S
C628 C627 1.414 . S
C628 C629 1.374 . S
C629 H609 0.950 . S
C629 C625 1.385 . S
C629 C628 1.374 . S
C630 C627 1.499 . S
C630 C631 1.373 . S
C630 C632 1.389 . S
C631 H610 0.950 . S
C631 C630 1.373 . S
C631 C647 1.377 . S
C632 C630 1.389 . S
C632 C633 1.524 . S
C632 C646 1.377 . S
C633 C632 1.524 . S
C633 C634 1.397 . S
C633 C638 1.363 . S
C634 H611 0.950 . S
C634 C633 1.397 . S
C634 C635 1.334 . S
C635 H612 0.950 . S
C635 C634 1.334 . S
C635 C636 1.287 . S
C636 C635 1.287 . S
C636 C637 1.524 . S
C636 H655 0.913 . S
C637 H613 0.950 . S
C637 C636 1.524 . S
C637 C638 1.415 . S
C638 H614 0.950 . S
C638 C633 1.363 . S
C638 C637 1.415 . S
C639 H615 0.951 . S
C639 C640 1.366 . S
C639 C641 1.388 . S
C640 C639 1.366 . S
C640 C644 1.385 . S
C641 H616 0.951 . S
C641 C639 1.388 . S
C641 C642 1.366 . S
C642 C641 1.366 . S
C642 C643 1.414 . S
C642 C645 1.499 . S
C643 H617 0.950 . S
C643 C642 1.414 . S
C643 C644 1.374 . S
C644 H618 0.950 . S
C644 C640 1.385 . S
C644 C643 1.374 . S
C645 C642 1.499 . S
C645 C646 1.373 . S
C645 C647 1.389 . S
C646 H619 0.950 . S
C646 C632 1.377 . S
C646 C645 1.373 . S
C647 C631 1.377 . S
C647 C645 1.389 . S
C647 C648 1.524 . S
C648 C647 1.524 . S
C648 C649 1.397 . S
C648 C653 1.363 . S
C649 H620 0.950 . S
C649 C648 1.397 . S
C649 C650 1.334 . S
C650 H621 0.950 . S
C650 C649 1.334 . S
C650 C651 1.287 . S
C651 C650 1.287 . S
C651 C652 1.524 . S
C651 H654 0.999 . S
C652 H622 0.950 . S
C652 C651 1.524 . S
C652 C653 1.415 . S
C653 H623 0.950 . S
C653 C648 1.363 . S
C653 C652 1.415 . S
H654 C651 0.999 . S
H655 C636 0.913 . S
H656 C674 0.951 . S
H657 C676 0.951 . S
H658 C678 0.950 . S
H659 C679 0.950 . S
H660 C681 0.950 . S
H661 C684 0.950 . S
H662 C685 0.950 . S
H663 C687 0.950 . S
H664 C688 0.950 . S
H665 C689 0.951 . S
H666 C691 0.951 . S
H667 C693 0.950 . S
H668 C694 0.950 . S
H669 C696 0.950 . S
H670 C699 0.950 . S
H671 C700 0.950 . S
H672 C702 0.950 . S
H673 C703 0.950 . S
C674 H656 0.951 . S
C674 C675 1.366 . S
C674 C676 1.388 . S
C675 C674 1.366 . S
C675 C679 1.385 . S
C676 H657 0.951 . S
C676 C674 1.388 . S
C676 C677 1.366 . S
C677 C676 1.366 . S
C677 C678 1.414 . S
C677 C680 1.499 . S
C678 H658 0.950 . S
C678 C677 1.414 . S
C678 C679 1.374 . S
C679 H659 0.950 . S
C679 C675 1.385 . S
C679 C678 1.374 . S
C680 C677 1.499 . S
C680 C681 1.373 . S
C680 C682 1.389 . S
C681 H660 0.950 . S
C681 C680 1.373 . S
C681 C697 1.377 . S
C682 C680 1.389 . S
C682 C683 1.524 . S
C682 C696 1.377 . S
C683 C682 1.524 . S
C683 C684 1.397 . S
C683 C688 1.363 . S
C684 H661 0.950 . S
C684 C683 1.397 . S
C684 C685 1.334 1_556 S
C685 H662 0.950 . S
C685 C684 1.334 1_554 S
C685 C686 1.287 . S
C686 C685 1.287 . S
C686 C687 1.524 1_554 S
C686 H705 0.913 . S
C687 H663 0.950 . S
C687 C686 1.524 1_556 S
C687 C688 1.415 . S
C688 H664 0.950 . S
C688 C683 1.363 . S
C688 C687 1.415 . S
C689 H665 0.951 . S
C689 C690 1.366 . S
C689 C691 1.388 . S
C690 C689 1.366 . S
C690 C694 1.385 . S
C691 H666 0.951 . S
C691 C689 1.388 . S
C691 C692 1.366 . S
C692 C691 1.366 . S
C692 C693 1.414 . S
C692 C695 1.499 . S
C693 H667 0.950 . S
C693 C692 1.414 . S
C693 C694 1.374 . S
C694 H668 0.950 . S
C694 C690 1.385 . S
C694 C693 1.374 . S
C695 C692 1.499 . S
C695 C696 1.373 . S
C695 C697 1.389 . S
C696 H669 0.950 . S
C696 C682 1.377 . S
C696 C695 1.373 . S
C697 C681 1.377 . S
C697 C695 1.389 . S
C697 C698 1.524 . S
C698 C697 1.524 . S
C698 C699 1.397 . S
C698 C703 1.363 . S
C699 H670 0.950 . S
C699 C698 1.397 . S
C699 C700 1.334 . S
C700 H671 0.950 . S
C700 C699 1.334 . S
C700 C701 1.287 . S
C701 C700 1.287 . S
C701 C702 1.524 . S
C701 H704 0.999 . S
C702 H672 0.950 . S
C702 C701 1.524 . S
C702 C703 1.415 . S
C703 H673 0.950 . S
C703 C698 1.363 . S
C703 C702 1.415 . S
H704 C701 0.999 . S
H705 C686 0.913 . S
H706 C724 0.951 . S
H707 C726 0.951 . S
H708 C728 0.950 . S
H709 C729 0.950 . S
H710 C731 0.950 . S
H711 C734 0.950 . S
H712 C735 0.950 . S
H713 C737 0.950 . S
H714 C738 0.950 . S
H715 C739 0.951 . S
H716 C741 0.951 . S
H717 C743 0.950 . S
H718 C744 0.950 . S
H719 C746 0.950 . S
H720 C749 0.950 . S
H721 C750 0.950 . S
H722 C752 0.950 . S
H723 C753 0.950 . S
C724 H706 0.951 . S
C724 C725 1.366 . S
C724 C726 1.388 . S
C725 C724 1.366 . S
C725 C729 1.385 . S
C726 H707 0.951 . S
C726 C724 1.388 . S
C726 C727 1.366 . S
C727 C726 1.366 . S
C727 C728 1.414 . S
C727 C730 1.499 . S
C728 H708 0.950 . S
C728 C727 1.414 . S
C728 C729 1.374 . S
C729 H709 0.950 . S
C729 C725 1.385 . S
C729 C728 1.374 . S
C730 C727 1.499 . S
C730 C731 1.373 . S
C730 C732 1.389 . S
C731 H710 0.950 . S
C731 C730 1.373 . S
C731 C747 1.377 . S
C732 C730 1.389 . S
C732 C733 1.524 . S
C732 C746 1.377 . S
C733 C732 1.524 . S
C733 C734 1.397 . S
C733 C738 1.363 . S
C734 H711 0.950 . S
C734 C733 1.397 . S
C734 C735 1.334 . S
C735 H712 0.950 . S
C735 C734 1.334 . S
C735 C736 1.287 . S
C736 C735 1.287 . S
C736 C737 1.524 . S
C736 H755 0.913 . S
C737 H713 0.950 . S
C737 C736 1.524 . S
C737 C738 1.415 . S
C738 H714 0.950 . S
C738 C733 1.363 . S
C738 C737 1.415 . S
C739 H715 0.951 . S
C739 C740 1.366 . S
C739 C741 1.388 . S
C740 C739 1.366 . S
C740 C744 1.385 . S
C741 H716 0.951 . S
C741 C739 1.388 . S
C741 C742 1.366 . S
C742 C741 1.366 . S
C742 C743 1.414 . S
C742 C745 1.499 . S
C743 H717 0.950 . S
C743 C742 1.414 . S
C743 C744 1.374 . S
C744 H718 0.950 . S
C744 C740 1.385 . S
C744 C743 1.374 . S
C745 C742 1.499 . S
C745 C746 1.373 . S
C745 C747 1.389 . S
C746 H719 0.950 . S
C746 C732 1.377 . S
C746 C745 1.373 . S
C747 C731 1.377 . S
C747 C745 1.389 . S
C747 C748 1.524 . S
C748 C747 1.524 . S
C748 C749 1.397 . S
C748 C753 1.363 . S
C749 H720 0.950 . S
C749 C748 1.397 . S
C749 C750 1.334 . S
C750 H721 0.950 . S
C750 C749 1.334 . S
C750 C751 1.287 . S
C751 C750 1.287 . S
C751 C752 1.524 . S
C751 H754 0.999 . S
C752 H722 0.950 . S
C752 C751 1.524 . S
C752 C753 1.415 . S
C753 H723 0.950 . S
C753 C748 1.363 . S
C753 C752 1.415 . S
H754 C751 0.999 . S
H755 C736 0.913 . S
H756 C774 0.951 . S
H757 C776 0.951 . S
H758 C778 0.950 . S
H759 C779 0.950 . S
H760 C781 0.950 . S
H761 C784 0.950 . S
H762 C785 0.950 . S
H763 C787 0.950 . S
H764 C788 0.950 . S
H765 C789 0.951 . S
H766 C791 0.951 . S
H767 C793 0.950 . S
H768 C794 0.950 . S
H769 C796 0.950 . S
H770 C799 0.950 . S
H771 C800 0.950 . S
H772 C802 0.950 . S
H773 C803 0.950 . S
C774 H756 0.951 . S
C774 C775 1.366 . S
C774 C776 1.388 . S
C775 C774 1.366 . S
C775 C779 1.385 . S
C776 H757 0.951 . S
C776 C774 1.388 . S
C776 C777 1.366 . S
C777 C776 1.366 . S
C777 C778 1.414 . S
C777 C780 1.499 . S
C778 H758 0.950 . S
C778 C777 1.414 . S
C778 C779 1.374 . S
C779 H759 0.950 . S
C779 C775 1.385 . S
C779 C778 1.374 . S
C780 C777 1.499 . S
C780 C781 1.373 . S
C780 C782 1.389 . S
C781 H760 0.950 . S
C781 C780 1.373 . S
C781 C797 1.377 . S
C782 C780 1.389 . S
C782 C783 1.524 . S
C782 C796 1.377 . S
C783 C782 1.524 . S
C783 C784 1.397 . S
C783 C788 1.363 . S
C784 H761 0.950 . S
C784 C783 1.397 . S
C784 C785 1.334 . S
C785 H762 0.950 . S
C785 C784 1.334 . S
C785 C786 1.287 . S
C786 C785 1.287 . S
C786 C787 1.524 . S
C786 H805 0.913 . S
C787 H763 0.950 . S
C787 C786 1.524 . S
C787 C788 1.415 . S
C788 H764 0.950 . S
C788 C783 1.363 . S
C788 C787 1.415 . S
C789 H765 0.951 . S
C789 C790 1.366 . S
C789 C791 1.388 . S
C790 C789 1.366 . S
C790 C794 1.385 . S
C791 H766 0.951 . S
C791 C789 1.388 . S
C791 C792 1.366 . S
C792 C791 1.366 . S
C792 C793 1.414 . S
C792 C795 1.499 . S
C793 H767 0.950 . S
C793 C792 1.414 . S
C793 C794 1.374 . S
C794 H768 0.950 . S
C794 C790 1.385 . S
C794 C793 1.374 . S
C795 C792 1.499 . S
C795 C796 1.373 . S
C795 C797 1.389 . S
C796 H769 0.950 . S
C796 C782 1.377 . S
C796 C795 1.373 . S
C797 C781 1.377 . S
C797 C795 1.389 . S
C797 C798 1.524 . S
C798 C797 1.524 . S
C798 C799 1.397 . S
C798 C803 1.363 . S
C799 H770 0.950 . S
C799 C798 1.397 . S
C799 C800 1.334 . S
C800 H771 0.950 . S
C800 C799 1.334 . S
C800 C801 1.287 . S
C801 C800 1.287 . S
C801 C802 1.524 . S
C801 H804 0.999 . S
C802 H772 0.950 . S
C802 C801 1.524 . S
C802 C803 1.415 . S
C803 H773 0.950 . S
C803 C798 1.363 . S
C803 C802 1.415 . S
H804 C801 0.999 . S
H805 C786 0.913 . S
H806 C824 0.951 . S
H807 C826 0.951 . S
H808 C828 0.950 . S
H809 C829 0.950 . S
H810 C831 0.950 . S
H811 C834 0.950 . S
H812 C835 0.950 . S
H813 C837 0.950 . S
H814 C838 0.950 . S
H815 C839 0.951 . S
H816 C841 0.951 . S
H817 C843 0.950 . S
H818 C844 0.950 . S
H819 C846 0.950 . S
H820 C849 0.950 . S
H821 C850 0.950 . S
H822 C852 0.950 . S
H823 C853 0.950 . S
C824 H806 0.951 . S
C824 C825 1.366 . S
C824 C826 1.388 . S
C825 C824 1.366 . S
C825 C829 1.385 . S
C826 H807 0.951 . S
C826 C824 1.388 . S
C826 C827 1.366 . S
C827 C826 1.366 . S
C827 C828 1.414 . S
C827 C830 1.499 . S
C828 H808 0.950 . S
C828 C827 1.414 . S
C828 C829 1.374 . S
C829 H809 0.950 . S
C829 C825 1.385 . S
C829 C828 1.374 . S
C830 C827 1.499 . S
C830 C831 1.373 . S
C830 C832 1.389 . S
C831 H810 0.950 . S
C831 C830 1.373 . S
C831 C847 1.377 . S
C832 C830 1.389 . S
C832 C833 1.524 . S
C832 C846 1.377 . S
C833 C832 1.524 . S
C833 C834 1.397 . S
C833 C838 1.363 . S
C834 H811 0.950 . S
C834 C833 1.397 . S
C834 C835 1.334 . S
C835 H812 0.950 . S
C835 C834 1.334 . S
C835 C836 1.287 . S
C836 C835 1.287 . S
C836 C837 1.524 . S
C836 H855 0.913 . S
C837 H813 0.950 . S
C837 C836 1.524 . S
C837 C838 1.415 . S
C838 H814 0.950 . S
C838 C833 1.363 . S
C838 C837 1.415 . S
C839 H815 0.951 . S
C839 C840 1.366 . S
C839 C841 1.388 . S
C840 C839 1.366 . S
C840 C844 1.385 . S
C841 H816 0.951 . S
C841 C839 1.388 . S
C841 C842 1.366 . S
C842 C841 1.366 . S
C842 C843 1.414 . S
C842 C845 1.499 . S
C843 H817 0.950 . S
C843 C842 1.414 . S
C843 C844 1.374 . S
C844 H818 0.950 . S
C844 C840 1.385 . S
C844 C843 1.374 . S
C845 C842 1.499 . S
C845 C846 1.373 . S
C845 C847 1.389 . S
C846 H819 0.950 . S
C846 C832 1.377 . S
C846 C845 1.373 . S
C847 C831 1.377 . S
C847 C845 1.389 . S
C847 C848 1.524 . S
C848 C847 1.524 . S
C848 C849 1.397 . S
C848 C853 1.363 . S
C849 H820 0.950 . S
C849 C848 1.397 . S
C849 C850 1.334 . S
C850 H821 0.950 . S
C850 C849 1.334 . S
C850 C851 1.287 . S
C851 C850 1.287 . S
C851 C852 1.524 . S
C851 H854 0.999 . S
C852 H822 0.950 . S
C852 C851 1.524 . S
C852 C853 1.415 . S
C853 H823 0.950 . S
C853 C848 1.363 . S
C853 C852 1.415 . S
H854 C851 0.999 . S
H855 C836 0.913 . S
H856 C874 0.951 . S
H857 C876 0.951 . S
H858 C878 0.950 . S
H859 C879 0.950 . S
H860 C881 0.950 . S
H861 C884 0.950 . S
H862 C885 0.950 . S
H863 C887 0.950 . S
H864 C888 0.950 . S
H865 C889 0.951 . S
H866 C891 0.951 . S
H867 C893 0.950 . S
H868 C894 0.950 . S
H869 C896 0.950 . S
H870 C899 0.950 . S
H871 C900 0.950 . S
H872 C902 0.950 . S
H873 C903 0.950 . S
C874 H856 0.951 . S
C874 C875 1.366 . S
C874 C876 1.388 . S
C875 C874 1.366 . S
C875 C879 1.385 . S
C876 H857 0.951 . S
C876 C874 1.388 . S
C876 C877 1.366 . S
C877 C876 1.366 . S
C877 C878 1.414 . S
C877 C880 1.499 . S
C878 H858 0.950 . S
C878 C877 1.414 . S
C878 C879 1.374 . S
C879 H859 0.950 . S
C879 C875 1.385 . S
C879 C878 1.374 . S
C880 C877 1.499 . S
C880 C881 1.373 . S
C880 C882 1.389 . S
C881 H860 0.950 . S
C881 C880 1.373 . S
C881 C897 1.377 . S
C882 C880 1.389 . S
C882 C883 1.524 . S
C882 C896 1.377 . S
C883 C882 1.524 . S
C883 C884 1.397 . S
C883 C888 1.363 . S
C884 H861 0.950 . S
C884 C883 1.397 . S
C884 C885 1.334 . S
C885 H862 0.950 . S
C885 C884 1.334 . S
C885 C886 1.287 . S
C886 C885 1.287 . S
C886 C887 1.524 . S
C886 H905 0.913 . S
C887 H863 0.950 . S
C887 C886 1.524 . S
C887 C888 1.415 . S
C888 H864 0.950 . S
C888 C883 1.363 . S
C888 C887 1.415 . S
C889 H865 0.951 . S
C889 C890 1.366 . S
C889 C891 1.388 . S
C890 C889 1.366 . S
C890 C894 1.385 . S
C891 H866 0.951 . S
C891 C889 1.388 . S
C891 C892 1.366 . S
C892 C891 1.366 . S
C892 C893 1.414 . S
C892 C895 1.499 . S
C893 H867 0.950 . S
C893 C892 1.414 . S
C893 C894 1.374 . S
C894 H868 0.950 . S
C894 C890 1.385 . S
C894 C893 1.374 . S
C895 C892 1.499 . S
C895 C896 1.373 . S
C895 C897 1.389 . S
C896 H869 0.950 . S
C896 C882 1.377 . S
C896 C895 1.373 . S
C897 C881 1.377 . S
C897 C895 1.389 . S
C897 C898 1.524 . S
C898 C897 1.524 . S
C898 C899 1.397 . S
C898 C903 1.363 . S
C899 H870 0.950 . S
C899 C898 1.397 . S
C899 C900 1.334 . S
C900 H871 0.950 . S
C900 C899 1.334 . S
C900 C901 1.287 . S
C901 C900 1.287 . S
C901 C902 1.524 . S
C901 H904 0.999 . S
C902 H872 0.950 . S
C902 C901 1.524 . S
C902 C903 1.415 . S
C903 H873 0.950 . S
C903 C898 1.363 . S
C903 C902 1.415 . S
H904 C901 0.999 . S
H905 C886 0.913 . S
H906 C924 0.951 . S
H907 C926 0.951 . S
H908 C928 0.950 . S
H909 C929 0.950 . S
H910 C931 0.950 . S
H911 C934 0.950 . S
H912 C935 0.950 . S
H913 C937 0.950 . S
H914 C938 0.950 . S
H915 C939 0.951 . S
H916 C941 0.951 . S
H917 C943 0.950 . S
H918 C944 0.950 . S
H919 C946 0.950 . S
H920 C949 0.950 . S
H921 C950 0.950 . S
H922 C952 0.950 . S
H923 C953 0.950 . S
C924 H906 0.951 . S
C924 C925 1.366 . S
C924 C926 1.388 . S
C925 C924 1.366 . S
C925 C929 1.385 . S
C926 H907 0.951 . S
C926 C924 1.388 . S
C926 C927 1.366 . S
C927 C926 1.366 . S
C927 C928 1.414 . S
C927 C930 1.499 . S
C928 H908 0.950 . S
C928 C927 1.414 . S
C928 C929 1.374 . S
C929 H909 0.950 . S
C929 C925 1.385 . S
C929 C928 1.374 . S
C930 C927 1.499 . S
C930 C931 1.373 . S
C930 C932 1.389 . S
C931 H910 0.950 . S
C931 C930 1.373 . S
C931 C947 1.377 . S
C932 C930 1.389 . S
C932 C933 1.524 . S
C932 C946 1.377 . S
C933 C932 1.524 . S
C933 C934 1.397 . S
C933 C938 1.363 . S
C934 H911 0.950 . S
C934 C933 1.397 . S
C934 C935 1.334 . S
C935 H912 0.950 . S
C935 C934 1.334 . S
C935 C936 1.287 . S
C936 C935 1.287 . S
C936 C937 1.524 . S
C936 H955 0.913 . S
C937 H913 0.950 . S
C937 C936 1.524 . S
C937 C938 1.415 . S
C938 H914 0.950 . S
C938 C933 1.363 . S
C938 C937 1.415 . S
C939 H915 0.951 . S
C939 C940 1.366 . S
C939 C941 1.388 . S
C940 C939 1.366 . S
C940 C944 1.385 . S
C941 H916 0.951 . S
C941 C939 1.388 . S
C941 C942 1.366 . S
C942 C941 1.366 . S
C942 C943 1.414 . S
C942 C945 1.499 . S
C943 H917 0.950 . S
C943 C942 1.414 . S
C943 C944 1.374 . S
C944 H918 0.950 . S
C944 C940 1.385 . S
C944 C943 1.374 . S
C945 C942 1.499 . S
C945 C946 1.373 . S
C945 C947 1.389 . S
C946 H919 0.950 . S
C946 C932 1.377 . S
C946 C945 1.373 . S
C947 C931 1.377 . S
C947 C945 1.389 . S
C947 C948 1.524 . S
C948 C947 1.524 . S
C948 C949 1.397 . S
C948 C953 1.363 1_554 S
C949 H920 0.950 . S
C949 C948 1.397 . S
C949 C950 1.334 1_554 S
C950 H921 0.950 . S
C950 C949 1.334 1_556 S
C950 C951 1.287 . S
C951 C950 1.287 . S
C951 C952 1.524 . S
C951 H954 0.999 . S
C952 H922 0.950 . S
C952 C951 1.524 . S
C952 C953 1.415 . S
C953 H923 0.950 . S
C953 C948 1.363 1_556 S
C953 C952 1.415 . S
H954 C951 0.999 . S
H955 C936 0.913 . S
H956 C974 0.951 . S
H957 C976 0.951 . S
H958 C978 0.950 . S
H959 C979 0.950 . S
H960 C981 0.950 . S
H961 C984 0.950 . S
H962 C985 0.950 . S
H963 C987 0.950 . S
H964 C988 0.950 . S
H965 C989 0.951 . S
H966 C991 0.951 . S
H967 C993 0.950 . S
H968 C994 0.950 . S
H969 C996 0.950 . S
H970 C999 0.950 . S
H971 C1000 0.950 . S
H972 C1002 0.950 . S
H973 C1003 0.950 . S
C974 H956 0.951 . S
C974 C975 1.366 . S
C974 C976 1.388 . S
C975 C974 1.366 . S
C975 C979 1.385 . S
C976 H957 0.951 . S
C976 C974 1.388 . S
C976 C977 1.366 . S
C977 C976 1.366 . S
C977 C978 1.414 . S
C977 C980 1.499 . S
C978 H958 0.950 . S
C978 C977 1.414 . S
C978 C979 1.374 . S
C979 H959 0.950 . S
C979 C975 1.385 . S
C979 C978 1.374 . S
C980 C977 1.499 . S
C980 C981 1.373 . S
C980 C982 1.389 . S
C981 H960 0.950 . S
C981 C980 1.373 . S
C981 C997 1.377 . S
C982 C980 1.389 . S
C982 C983 1.524 . S
C982 C996 1.377 . S
C983 C982 1.524 . S
C983 C984 1.397 . S
C983 C988 1.363 . S
C984 H961 0.950 . S
C984 C983 1.397 . S
C984 C985 1.334 . S
C985 H962 0.950 . S
C985 C984 1.334 . S
C985 C986 1.287 . S
C986 C985 1.287 . S
C986 C987 1.524 . S
C986 H1005 0.913 . S
C987 H963 0.950 . S
C987 C986 1.524 . S
C987 C988 1.415 . S
C988 H964 0.950 . S
C988 C983 1.363 . S
C988 C987 1.415 . S
C989 H965 0.951 . S
C989 C990 1.366 . S
C989 C991 1.388 . S
C990 C989 1.366 . S
C990 C994 1.385 . S
C991 H966 0.951 . S
C991 C989 1.388 . S
C991 C992 1.366 . S
C992 C991 1.366 . S
C992 C993 1.414 . S
C992 C995 1.499 . S
C993 H967 0.950 . S
C993 C992 1.414 . S
C993 C994 1.374 . S
C994 H968 0.950 . S
C994 C990 1.385 . S
C994 C993 1.374 . S
C995 C992 1.499 . S
C995 C996 1.373 . S
C995 C997 1.389 . S
C996 H969 0.950 . S
C996 C982 1.377 . S
C996 C995 1.373 . S
C997 C981 1.377 . S
C997 C995 1.389 . S
C997 C998 1.524 . S
C998 C997 1.524 . S
C998 C999 1.397 . S
C998 C1003 1.363 . S
C999 H970 0.950 . S
C999 C998 1.397 . S
C999 C1000 1.334 . S
C1000 H971 0.950 . S
C1000 C999 1.334 . S
C1000 C1001 1.287 . S
C1001 C1000 1.287 . S
C1001 C1002 1.524 . S
C1001 H1004 0.999 . S
C1002 H972 0.950 . S
C1002 C1001 1.524 . S
C1002 C1003 1.415 . S
C1003 H973 0.950 . S
C1003 C998 1.363 . S
C1003 C1002 1.415 . S
H1004 C1001 0.999 . S
H1005 C986 0.913 . S
H1006 C1024 0.951 . S
H1007 C1026 0.951 . S
H1008 C1028 0.950 . S
H1009 C1029 0.950 . S
H1010 C1031 0.950 . S
H1011 C1034 0.950 . S
H1012 C1035 0.950 . S
H1013 C1037 0.950 . S
H1014 C1038 0.950 . S
H1015 C1039 0.951 . S
H1016 C1041 0.951 . S
H1017 C1043 0.950 . S
H1018 C1044 0.950 . S
H1019 C1046 0.950 . S
H1020 C1049 0.950 . S
H1021 C1050 0.950 . S
H1022 C1052 0.950 . S
H1023 C1053 0.950 . S
C1024 H1006 0.951 . S
C1024 C1025 1.366 . S
C1024 C1026 1.388 . S
C1025 C1024 1.366 . S
C1025 C1029 1.385 . S
C1026 H1007 0.951 . S
C1026 C1024 1.388 . S
C1026 C1027 1.366 . S
C1027 C1026 1.366 . S
C1027 C1028 1.414 . S
C1027 C1030 1.499 . S
C1028 H1008 0.950 . S
C1028 C1027 1.414 . S
C1028 C1029 1.374 . S
C1029 H1009 0.950 . S
C1029 C1025 1.385 . S
C1029 C1028 1.374 . S
C1030 C1027 1.499 . S
C1030 C1031 1.373 . S
C1030 C1032 1.389 . S
C1031 H1010 0.950 . S
C1031 C1030 1.373 . S
C1031 C1047 1.377 . S
C1032 C1030 1.389 . S
C1032 C1033 1.524 . S
C1032 C1046 1.377 . S
C1033 C1032 1.524 . S
C1033 C1034 1.397 . S
C1033 C1038 1.363 . S
C1034 H1011 0.950 . S
C1034 C1033 1.397 . S
C1034 C1035 1.334 . S
C1035 H1012 0.950 . S
C1035 C1034 1.334 . S
C1035 C1036 1.287 . S
C1036 C1035 1.287 . S
C1036 C1037 1.524 . S
C1036 H1055 0.913 . S
C1037 H1013 0.950 . S
C1037 C1036 1.524 . S
C1037 C1038 1.415 . S
C1038 H1014 0.950 . S
C1038 C1033 1.363 . S
C1038 C1037 1.415 . S
C1039 H1015 0.951 . S
C1039 C1040 1.366 . S
C1039 C1041 1.388 . S
C1040 C1039 1.366 . S
C1040 C1044 1.385 . S
C1041 H1016 0.951 . S
C1041 C1039 1.388 . S
C1041 C1042 1.366 . S
C1042 C1041 1.366 . S
C1042 C1043 1.414 . S
C1042 C1045 1.499 . S
C1043 H1017 0.950 . S
C1043 C1042 1.414 . S
C1043 C1044 1.374 . S
C1044 H1018 0.950 . S
C1044 C1040 1.385 . S
C1044 C1043 1.374 . S
C1045 C1042 1.499 . S
C1045 C1046 1.373 . S
C1045 C1047 1.389 . S
C1046 H1019 0.950 . S
C1046 C1032 1.377 . S
C1046 C1045 1.373 . S
C1047 C1031 1.377 . S
C1047 C1045 1.389 . S
C1047 C1048 1.524 . S
C1048 C1047 1.524 . S
C1048 C1049 1.397 . S
C1048 C1053 1.363 . S
C1049 H1020 0.950 . S
C1049 C1048 1.397 . S
C1049 C1050 1.334 . S
C1050 H1021 0.950 . S
C1050 C1049 1.334 . S
C1050 C1051 1.287 . S
C1051 C1050 1.287 . S
C1051 C1052 1.524 . S
C1051 H1054 0.999 . S
C1052 H1022 0.950 . S
C1052 C1051 1.524 . S
C1052 C1053 1.415 . S
C1053 H1023 0.950 . S
C1053 C1048 1.363 . S
C1053 C1052 1.415 . S
H1054 C1051 0.999 . S
H1055 C1036 0.913 . S
H1056 C1074 0.951 . S
H1057 C1076 0.951 . S
H1058 C1078 0.950 . S
H1059 C1079 0.950 . S
H1060 C1081 0.950 . S
H1061 C1084 0.950 . S
H1062 C1085 0.950 . S
H1063 C1087 0.950 . S
H1064 C1088 0.950 . S
H1065 C1089 0.951 . S
H1066 C1091 0.951 . S
H1067 C1093 0.950 . S
H1068 C1094 0.950 . S
H1069 C1096 0.950 . S
H1070 C1099 0.950 . S
H1071 C1100 0.950 . S
H1072 C1102 0.950 . S
H1073 C1103 0.950 . S
C1074 H1056 0.951 . S
C1074 C1075 1.366 . S
C1074 C1076 1.388 . S
C1075 C1074 1.366 . S
C1075 C1079 1.385 . S
C1076 H1057 0.951 . S
C1076 C1074 1.388 . S
C1076 C1077 1.366 . S
C1077 C1076 1.366 . S
C1077 C1078 1.414 . S
C1077 C1080 1.499 . S
C1078 H1058 0.950 . S
C1078 C1077 1.414 . S
C1078 C1079 1.374 . S
C1079 H1059 0.950 . S
C1079 C1075 1.385 . S
C1079 C1078 1.374 . S
C1080 C1077 1.499 . S
C1080 C1081 1.373 . S
C1080 C1082 1.389 . S
C1081 H1060 0.950 . S
C1081 C1080 1.373 . S
C1081 C1097 1.377 . S
C1082 C1080 1.389 . S
C1082 C1083 1.524 . S
C1082 C1096 1.377 . S
C1083 C1082 1.524 . S
C1083 C1084 1.397 . S
C1083 C1088 1.363 . S
C1084 H1061 0.950 . S
C1084 C1083 1.397 . S
C1084 C1085 1.334 . S
C1085 H1062 0.950 . S
C1085 C1084 1.334 . S
C1085 C1086 1.287 . S
C1086 C1085 1.287 . S
C1086 C1087 1.524 . S
C1086 H1105 0.913 . S
C1087 H1063 0.950 . S
C1087 C1086 1.524 . S
C1087 C1088 1.415 . S
C1088 H1064 0.950 . S
C1088 C1083 1.363 . S
C1088 C1087 1.415 . S
C1089 H1065 0.951 . S
C1089 C1090 1.366 . S
C1089 C1091 1.388 . S
C1090 C1089 1.366 . S
C1090 C1094 1.385 . S
C1091 H1066 0.951 . S
C1091 C1089 1.388 . S
C1091 C1092 1.366 . S
C1092 C1091 1.366 . S
C1092 C1093 1.414 . S
C1092 C1095 1.499 . S
C1093 H1067 0.950 . S
C1093 C1092 1.414 . S
C1093 C1094 1.374 . S
C1094 H1068 0.950 . S
C1094 C1090 1.385 . S
C1094 C1093 1.374 . S
C1095 C1092 1.499 . S
C1095 C1096 1.373 . S
C1095 C1097 1.389 . S
C1096 H1069 0.950 . S
C1096 C1082 1.377 . S
C1096 C1095 1.373 . S
C1097 C1081 1.377 . S
C1097 C1095 1.389 . S
C1097 C1098 1.524 . S
C1098 C1097 1.524 . S
C1098 C1099 1.397 . S
C1098 C1103 1.363 . S
C1099 H1070 0.950 . S
C1099 C1098 1.397 . S
C1099 C1100 1.334 . S
C1100 H1071 0.950 . S
C1100 C1099 1.334 . S
C1100 C1101 1.287 . S
C1101 C1100 1.287 . S
C1101 C1102 1.524 . S
C1101 H1104 0.999 . S
C1102 H1072 0.950 . S
C1102 C1101 1.524 . S
C1102 C1103 1.415 . S
C1103 H1073 0.950 . S
C1103 C1098 1.363 . S
C1103 C1102 1.415 . S
H1104 C1101 0.999 . S
H1105 C1086 0.913 . S
H1106 C1124 0.951 . S
H1107 C1126 0.951 . S
H1108 C1128 0.950 . S
H1109 C1129 0.950 . S
H1110 C1131 0.950 . S
H1111 C1134 0.950 . S
H1112 C1135 0.950 . S
H1113 C1137 0.950 . S
H1114 C1138 0.950 . S
H1115 C1139 0.951 . S
H1116 C1141 0.951 . S
H1117 C1143 0.950 . S
H1118 C1144 0.950 . S
H1119 C1146 0.950 . S
H1120 C1149 0.950 . S
H1121 C1150 0.950 . S
H1122 C1152 0.950 . S
H1123 C1153 0.950 . S
C1124 H1106 0.951 . S
C1124 C1125 1.366 . S
C1124 C1126 1.388 . S
C1125 C1124 1.366 . S
C1125 C1129 1.385 . S
C1126 H1107 0.951 . S
C1126 C1124 1.388 . S
C1126 C1127 1.366 . S
C1127 C1126 1.366 . S
C1127 C1128 1.414 . S
C1127 C1130 1.499 . S
C1128 H1108 0.950 . S
C1128 C1127 1.414 . S
C1128 C1129 1.374 . S
C1129 H1109 0.950 . S
C1129 C1125 1.385 . S
C1129 C1128 1.374 . S
C1130 C1127 1.499 . S
C1130 C1131 1.373 . S
C1130 C1132 1.389 . S
C1131 H1110 0.950 . S
C1131 C1130 1.373 . S
C1131 C1147 1.377 . S
C1132 C1130 1.389 . S
C1132 C1133 1.524 . S
C1132 C1146 1.377 . S
C1133 C1132 1.524 . S
C1133 C1134 1.397 . S
C1133 C1138 1.363 . S
C1134 H1111 0.950 . S
C1134 C1133 1.397 . S
C1134 C1135 1.334 . S
C1135 H1112 0.950 . S
C1135 C1134 1.334 . S
C1135 C1136 1.287 . S
C1136 C1135 1.287 . S
C1136 C1137 1.524 . S
C1136 H1155 0.913 . S
C1137 H1113 0.950 . S
C1137 C1136 1.524 . S
C1137 C1138 1.415 . S
C1138 H1114 0.950 . S
C1138 C1133 1.363 . S
C1138 C1137 1.415 . S
C1139 H1115 0.951 . S
C1139 C1140 1.366 . S
C1139 C1141 1.388 . S
C1140 C1139 1.366 . S
C1140 C1144 1.385 . S
C1141 H1116 0.951 . S
C1141 C1139 1.388 . S
C1141 C1142 1.366 . S
C1142 C1141 1.366 . S
C1142 C1143 1.414 . S
C1142 C1145 1.499 . S
C1143 H1117 0.950 . S
C1143 C1142 1.414 . S
C1143 C1144 1.374 . S
C1144 H1118 0.950 . S
C1144 C1140 1.385 . S
C1144 C1143 1.374 . S
C1145 C1142 1.499 . S
C1145 C1146 1.373 . S
C1145 C1147 1.389 . S
C1146 H1119 0.950 . S
C1146 C1132 1.377 . S
C1146 C1145 1.373 . S
C1147 C1131 1.377 . S
C1147 C1145 1.389 . S
C1147 C1148 1.524 . S
C1148 C1147 1.524 . S
C1148 C1149 1.397 . S
C1148 C1153 1.363 . S
C1149 H1120 0.950 . S
C1149 C1148 1.397 . S
C1149 C1150 1.334 . S
C1150 H1121 0.950 . S
C1150 C1149 1.334 . S
C1150 C1151 1.287 . S
C1151 C1150 1.287 . S
C1151 C1152 1.524 . S
C1151 H1154 0.999 . S
C1152 H1122 0.950 . S
C1152 C1151 1.524 . S
C1152 C1153 1.415 . S
C1153 H1123 0.950 . S
C1153 C1148 1.363 . S
C1153 C1152 1.415 . S
H1154 C1151 0.999 . S
H1155 C1136 0.913 . S
H1156 C1174 0.951 . S
H1157 C1176 0.951 . S
H1158 C1178 0.950 . S
H1159 C1179 0.950 . S
H1160 C1181 0.950 . S
H1161 C1184 0.950 . S
H1162 C1185 0.950 . S
H1163 C1187 0.950 . S
H1164 C1188 0.950 . S
H1165 C1189 0.951 . S
H1166 C1191 0.951 . S
H1167 C1193 0.950 . S
H1168 C1194 0.950 . S
H1169 C1196 0.950 . S
H1170 C1199 0.950 . S
H1171 C1200 0.950 . S
H1172 C1202 0.950 . S
H1173 C1203 0.950 . S
C1174 H1156 0.951 . S
C1174 C1175 1.366 . S
C1174 C1176 1.388 . S
C1175 C1174 1.366 . S
C1175 C1179 1.385 . S
C1176 H1157 0.951 . S
C1176 C1174 1.388 . S
C1176 C1177 1.366 . S
C1177 C1176 1.366 . S
C1177 C1178 1.414 . S
C1177 C1180 1.499 . S
C1178 H1158 0.950 . S
C1178 C1177 1.414 . S
C1178 C1179 1.374 . S
C1179 H1159 0.950 . S
C1179 C1175 1.385 . S
C1179 C1178 1.374 . S
C1180 C1177 1.499 . S
C1180 C1181 1.373 . S
C1180 C1182 1.389 . S
C1181 H1160 0.950 . S
C1181 C1180 1.373 . S
C1181 C1197 1.377 . S
C1182 C1180 1.389 . S
C1182 C1183 1.524 . S
C1182 C1196 1.377 . S
C1183 C1182 1.524 . S
C1183 C1184 1.397 . S
C1183 C1188 1.363 . S
C1184 H1161 0.950 . S
C1184 C1183 1.397 . S
C1184 C1185 1.334 . S
C1185 H1162 0.950 . S
C1185 C1184 1.334 . S
C1185 C1186 1.287 . S
C1186 C1185 1.287 . S
C1186 C1187 1.524 . S
C1186 H1205 0.913 . S
C1187 H1163 0.950 . S
C1187 C1186 1.524 . S
C1187 C1188 1.415 . S
C1188 H1164 0.950 . S
C1188 C1183 1.363 . S
C1188 C1187 1.415 . S
C1189 H1165 0.951 . S
C1189 C1190 1.366 . S
C1189 C1191 1.388 . S
C1190 C1189 1.366 . S
C1190 C1194 1.385 . S
C1191 H1166 0.951 . S
C1191 C1189 1.388 . S
C1191 C1192 1.366 . S
C1192 C1191 1.366 . S
C1192 C1193 1.414 . S
C1192 C1195 1.499 . S
C1193 H1167 0.950 . S
C1193 C1192 1.414 . S
C1193 C1194 1.374 . S
C1194 H1168 0.950 . S
C1194 C1190 1.385 . S
C1194 C1193 1.374 . S
C1195 C1192 1.499 . S
C1195 C1196 1.373 . S
C1195 C1197 1.389 . S
C1196 H1169 0.950 . S
C1196 C1182 1.377 . S
C1196 C1195 1.373 . S
C1197 C1181 1.377 . S
C1197 C1195 1.389 . S
C1197 C1198 1.524 . S
C1198 C1197 1.524 . S
C1198 C1199 1.397 . S
C1198 C1203 1.363 . S
C1199 H1170 0.950 . S
C1199 C1198 1.397 . S
C1199 C1200 1.334 . S
C1200 H1171 0.950 . S
C1200 C1199 1.334 . S
C1200 C1201 1.287 . S
C1201 C1200 1.287 . S
C1201 C1202 1.524 . S
C1201 H1204 0.999 . S
C1202 H1172 0.950 . S
C1202 C1201 1.524 . S
C1202 C1203 1.415 . S
C1203 H1173 0.950 . S
C1203 C1198 1.363 . S
C1203 C1202 1.415 . S
H1204 C1201 0.999 . S
H1205 C1186 0.913 . S
H1206 C1224 0.951 . S
H1207 C1226 0.951 . S
H1208 C1228 0.950 . S
H1209 C1229 0.950 . S
H1210 C1231 0.950 . S
H1211 C1234 0.950 . S
H1212 C1235 0.950 . S
H1213 C1237 0.950 . S
H1214 C1238 0.950 . S
H1215 C1239 0.951 . S
H1216 C1241 0.951 . S
H1217 C1243 0.950 . S
H1218 C1244 0.950 . S
H1219 C1246 0.950 . S
H1220 C1249 0.950 . S
H1221 C1250 0.950 1_554 S
H1222 C1252 0.950 . S
H1223 C1253 0.950 . S
C1224 H1206 0.951 . S
C1224 C1225 1.366 . S
C1224 C1226 1.388 . S
C1225 C1224 1.366 . S
C1225 C1229 1.385 . S
C1226 H1207 0.951 . S
C1226 C1224 1.388 . S
C1226 C1227 1.366 . S
C1227 C1226 1.366 . S
C1227 C1228 1.414 . S
C1227 C1230 1.499 . S
C1228 H1208 0.950 . S
C1228 C1227 1.414 . S
C1228 C1229 1.374 . S
C1229 H1209 0.950 . S
C1229 C1225 1.385 . S
C1229 C1228 1.374 . S
C1230 C1227 1.499 . S
C1230 C1231 1.373 . S
C1230 C1232 1.389 . S
C1231 H1210 0.950 . S
C1231 C1230 1.373 . S
C1231 C1247 1.377 . S
C1232 C1230 1.389 . S
C1232 C1233 1.524 . S
C1232 C1246 1.377 . S
C1233 C1232 1.524 . S
C1233 C1234 1.397 . S
C1233 C1238 1.363 . S
C1234 H1211 0.950 . S
C1234 C1233 1.397 . S
C1234 C1235 1.334 . S
C1235 H1212 0.950 . S
C1235 C1234 1.334 . S
C1235 C1236 1.287 . S
C1236 C1235 1.287 . S
C1236 C1237 1.524 . S
C1236 H1255 0.913 . S
C1237 H1213 0.950 . S
C1237 C1236 1.524 . S
C1237 C1238 1.415 . S
C1238 H1214 0.950 . S
C1238 C1233 1.363 . S
C1238 C1237 1.415 . S
C1239 H1215 0.951 . S
C1239 C1240 1.366 . S
C1239 C1241 1.388 1_554 S
C1240 C1239 1.366 . S
C1240 C1244 1.385 . S
C1241 H1216 0.951 . S
C1241 C1239 1.388 1_556 S
C1241 C1242 1.366 . S
C1242 C1241 1.366 . S
C1242 C1243 1.414 1_556 S
C1242 C1245 1.499 . S
C1243 H1217 0.950 . S
C1243 C1242 1.414 1_554 S
C1243 C1244 1.374 . S
C1244 H1218 0.950 . S
C1244 C1240 1.385 . S
C1244 C1243 1.374 . S
C1245 C1242 1.499 . S
C1245 C1246 1.373 . S
C1245 C1247 1.389 . S
C1246 H1219 0.950 . S
C1246 C1232 1.377 . S
C1246 C1245 1.373 . S
C1247 C1231 1.377 . S
C1247 C1245 1.389 . S
C1247 C1248 1.524 . S
C1248 C1247 1.524 . S
C1248 C1249 1.397 . S
C1248 C1253 1.363 . S
C1249 H1220 0.950 . S
C1249 C1248 1.397 . S
C1249 C1250 1.334 . S
C1250 H1221 0.950 1_556 S
C1250 C1249 1.334 . S
C1250 C1251 1.287 . S
C1251 C1250 1.287 . S
C1251 C1252 1.524 . S
C1251 H1254 0.999 . S
C1252 H1222 0.950 . S
C1252 C1251 1.524 . S
C1252 C1253 1.415 . S
C1253 H1223 0.950 . S
C1253 C1248 1.363 . S
C1253 C1252 1.415 . S
H1254 C1251 0.999 . S
H1255 C1236 0.913 . S
H1256 C1274 0.951 . S
H1257 C1276 0.951 . S
H1258 C1278 0.950 . S
H1259 C1279 0.950 . S
H1260 C1281 0.950 . S
H1261 C1284 0.950 . S
H1262 C1285 0.950 . S
H1263 C1287 0.950 . S
H1264 C1288 0.950 . S
H1265 C1289 0.951 . S
H1266 C1291 0.951 . S
H1267 C1293 0.950 . S
H1268 C1294 0.950 . S
H1269 C1296 0.950 . S
H1270 C1299 0.950 . S
H1271 C1300 0.950 . S
H1272 C1302 0.950 . S
H1273 C1303 0.950 . S
C1274 H1256 0.951 . S
C1274 C1275 1.366 . S
C1274 C1276 1.388 . S
C1275 C1274 1.366 . S
C1275 C1279 1.385 . S
C1276 H1257 0.951 . S
C1276 C1274 1.388 . S
C1276 C1277 1.366 . S
C1277 C1276 1.366 . S
C1277 C1278 1.414 . S
C1277 C1280 1.499 . S
C1278 H1258 0.950 . S
C1278 C1277 1.414 . S
C1278 C1279 1.374 . S
C1279 H1259 0.950 . S
C1279 C1275 1.385 . S
C1279 C1278 1.374 . S
C1280 C1277 1.499 . S
C1280 C1281 1.373 . S
C1280 C1282 1.389 . S
C1281 H1260 0.950 . S
C1281 C1280 1.373 . S
C1281 C1297 1.377 . S
C1282 C1280 1.389 . S
C1282 C1283 1.524 . S
C1282 C1296 1.377 . S
C1283 C1282 1.524 . S
C1283 C1284 1.397 . S
C1283 C1288 1.363 . S
C1284 H1261 0.950 . S
C1284 C1283 1.397 . S
C1284 C1285 1.334 . S
C1285 H1262 0.950 . S
C1285 C1284 1.334 . S
C1285 C1286 1.287 . S
C1286 C1285 1.287 . S
C1286 C1287 1.524 . S
C1286 H1305 0.913 . S
C1287 H1263 0.950 . S
C1287 C1286 1.524 . S
C1287 C1288 1.415 . S
C1288 H1264 0.950 . S
C1288 C1283 1.363 . S
C1288 C1287 1.415 . S
C1289 H1265 0.951 . S
C1289 C1290 1.366 . S
C1289 C1291 1.388 . S
C1290 C1289 1.366 . S
C1290 C1294 1.385 . S
C1291 H1266 0.951 . S
C1291 C1289 1.388 . S
C1291 C1292 1.366 . S
C1292 C1291 1.366 . S
C1292 C1293 1.414 . S
C1292 C1295 1.499 . S
C1293 H1267 0.950 . S
C1293 C1292 1.414 . S
C1293 C1294 1.374 . S
C1294 H1268 0.950 . S
C1294 C1290 1.385 . S
C1294 C1293 1.374 . S
C1295 C1292 1.499 . S
C1295 C1296 1.373 . S
C1295 C1297 1.389 . S
C1296 H1269 0.950 . S
C1296 C1282 1.377 . S
C1296 C1295 1.373 . S
C1297 C1281 1.377 . S
C1297 C1295 1.389 . S
C1297 C1298 1.524 . S
C1298 C1297 1.524 . S
C1298 C1299 1.397 . S
C1298 C1303 1.363 . S
C1299 H1270 0.950 . S
C1299 C1298 1.397 . S
C1299 C1300 1.334 . S
C1300 H1271 0.950 . S
C1300 C1299 1.334 . S
C1300 C1301 1.287 . S
C1301 C1300 1.287 . S
C1301 C1302 1.524 . S
C1301 H1304 0.999 . S
C1302 H1272 0.950 . S
C1302 C1301 1.524 . S
C1302 C1303 1.415 . S
C1303 H1273 0.950 . S
C1303 C1298 1.363 . S
C1303 C1302 1.415 . S
H1304 C1301 0.999 . S
H1305 C1286 0.913 . S
H1306 C1324 0.951 . S
H1307 C1326 0.951 . S
H1308 C1328 0.950 . S
H1309 C1329 0.950 . S
H1310 C1331 0.950 . S
H1311 C1334 0.950 . S
H1312 C1335 0.950 . S
H1313 C1337 0.950 . S
H1314 C1338 0.950 . S
H1315 C1339 0.951 . S
H1316 C1341 0.951 . S
H1317 C1343 0.950 . S
H1318 C1344 0.950 . S
H1319 C1346 0.950 . S
H1320 C1349 0.950 . S
H1321 C1350 0.950 . S
H1322 C1352 0.950 . S
H1323 C1353 0.950 . S
C1324 H1306 0.951 . S
C1324 C1325 1.366 . S
C1324 C1326 1.388 . S
C1325 C1324 1.366 . S
C1325 C1329 1.385 . S
C1326 H1307 0.951 . S
C1326 C1324 1.388 . S
C1326 C1327 1.366 . S
C1327 C1326 1.366 . S
C1327 C1328 1.414 . S
C1327 C1330 1.499 . S
C1328 H1308 0.950 . S
C1328 C1327 1.414 . S
C1328 C1329 1.374 . S
C1329 H1309 0.950 . S
C1329 C1325 1.385 . S
C1329 C1328 1.374 . S
C1330 C1327 1.499 . S
C1330 C1331 1.373 . S
C1330 C1332 1.389 . S
C1331 H1310 0.950 . S
C1331 C1330 1.373 . S
C1331 C1347 1.377 . S
C1332 C1330 1.389 . S
C1332 C1333 1.524 . S
C1332 C1346 1.377 . S
C1333 C1332 1.524 . S
C1333 C1334 1.397 . S
C1333 C1338 1.363 . S
C1334 H1311 0.950 . S
C1334 C1333 1.397 . S
C1334 C1335 1.334 . S
C1335 H1312 0.950 . S
C1335 C1334 1.334 . S
C1335 C1336 1.287 . S
C1336 C1335 1.287 . S
C1336 C1337 1.524 . S
C1336 H1355 0.913 . S
C1337 H1313 0.950 . S
C1337 C1336 1.524 . S
C1337 C1338 1.415 . S
C1338 H1314 0.950 . S
C1338 C1333 1.363 . S
C1338 C1337 1.415 . S
C1339 H1315 0.951 . S
C1339 C1340 1.366 . S
C1339 C1341 1.388 . S
C1340 C1339 1.366 . S
C1340 C1344 1.385 . S
C1341 H1316 0.951 . S
C1341 C1339 1.388 . S
C1341 C1342 1.366 . S
C1342 C1341 1.366 . S
C1342 C1343 1.414 . S
C1342 C1345 1.499 . S
C1343 H1317 0.950 . S
C1343 C1342 1.414 . S
C1343 C1344 1.374 . S
C1344 H1318 0.950 . S
C1344 C1340 1.385 . S
C1344 C1343 1.374 . S
C1345 C1342 1.499 . S
C1345 C1346 1.373 . S
C1345 C1347 1.389 . S
C1346 H1319 0.950 . S
C1346 C1332 1.377 . S
C1346 C1345 1.373 . S
C1347 C1331 1.377 . S
C1347 C1345 1.389 . S
C1347 C1348 1.524 . S
C1348 C1347 1.524 . S
C1348 C1349 1.397 . S
C1348 C1353 1.363 . S
C1349 H1320 0.950 . S
C1349 C1348 1.397 . S
C1349 C1350 1.334 . S
C1350 H1321 0.950 . S
C1350 C1349 1.334 . S
C1350 C1351 1.287 . S
C1351 C1350 1.287 . S
C1351 C1352 1.524 . S
C1351 H1354 0.999 . S
C1352 H1322 0.950 . S
C1352 C1351 1.524 . S
C1352 C1353 1.415 . S
C1353 H1323 0.950 . S
C1353 C1348 1.363 . S
C1353 C1352 1.415 . S
H1354 C1351 0.999 . S
H1355 C1336 0.913 . S
H1356 C1374 0.951 . S
H1357 C1376 0.951 . S
H1358 C1378 0.950 . S
H1359 C1379 0.950 . S
H1360 C1381 0.950 . S
H1361 C1384 0.950 . S
H1362 C1385 0.950 . S
H1363 C1387 0.950 . S
H1364 C1388 0.950 . S
H1365 C1389 0.951 . S
H1366 C1391 0.951 . S
H1367 C1393 0.950 . S
H1368 C1394 0.950 . S
H1369 C1396 0.950 . S
H1370 C1399 0.950 . S
H1371 C1400 0.950 . S
H1372 C1402 0.950 . S
H1373 C1403 0.950 . S
C1374 H1356 0.951 . S
C1374 C1375 1.366 . S
C1374 C1376 1.388 . S
C1375 C1374 1.366 . S
C1375 C1379 1.385 . S
C1376 H1357 0.951 . S
C1376 C1374 1.388 . S
C1376 C1377 1.366 . S
C1377 C1376 1.366 . S
C1377 C1378 1.414 . S
C1377 C1380 1.499 . S
C1378 H1358 0.950 . S
C1378 C1377 1.414 . S
C1378 C1379 1.374 . S
C1379 H1359 0.950 . S
C1379 C1375 1.385 . S
C1379 C1378 1.374 . S
C1380 C1377 1.499 . S
C1380 C1381 1.373 . S
C1380 C1382 1.389 . S
C1381 H1360 0.950 . S
C1381 C1380 1.373 . S
C1381 C1397 1.377 . S
C1382 C1380 1.389 . S
C1382 C1383 1.524 . S
C1382 C1396 1.377 . S
C1383 C1382 1.524 . S
C1383 C1384 1.397 . S
C1383 C1388 1.363 . S
C1384 H1361 0.950 . S
C1384 C1383 1.397 . S
C1384 C1385 1.334 . S
C1385 H1362 0.950 . S
C1385 C1384 1.334 . S
C1385 C1386 1.287 . S
C1386 C1385 1.287 . S
C1386 C1387 1.524 . S
C1386 H1405 0.913 . S
C1387 H1363 0.950 . S
C1387 C1386 1.524 . S
C1387 C1388 1.415 . S
C1388 H1364 0.950 . S
C1388 C1383 1.363 . S
C1388 C1387 1.415 . S
C1389 H1365 0.951 . S
C1389 C1390 1.366 . S
C1389 C1391 1.388 . S
C1390 C1389 1.366 . S
C1390 C1394 1.385 . S
C1391 H1366 0.951 . S
C1391 C1389 1.388 . S
C1391 C1392 1.366 . S
C1392 C1391 1.366 . S
C1392 C1393 1.414 . S
C1392 C1395 1.499 . S
C1393 H1367 0.950 . S
C1393 C1392 1.414 . S
C1393 C1394 1.374 . S
C1394 H1368 0.950 . S
C1394 C1390 1.385 . S
C1394 C1393 1.374 . S
C1395 C1392 1.499 . S
C1395 C1396 1.373 . S
C1395 C1397 1.389 . S
C1396 H1369 0.950 . S
C1396 C1382 1.377 . S
C1396 C1395 1.373 . S
C1397 C1381 1.377 . S
C1397 C1395 1.389 . S
C1397 C1398 1.524 . S
C1398 C1397 1.524 . S
C1398 C1399 1.397 . S
C1398 C1403 1.363 . S
C1399 H1370 0.950 . S
C1399 C1398 1.397 . S
C1399 C1400 1.334 . S
C1400 H1371 0.950 . S
C1400 C1399 1.334 . S
C1400 C1401 1.287 . S
C1401 C1400 1.287 . S
C1401 C1402 1.524 . S
C1401 H1404 0.999 . S
C1402 H1372 0.950 . S
C1402 C1401 1.524 . S
C1402 C1403 1.415 . S
C1403 H1373 0.950 . S
C1403 C1398 1.363 . S
C1403 C1402 1.415 . S
H1404 C1401 0.999 . S
H1405 C1386 0.913 . S
H1406 C1424 0.951 . S
H1407 C1426 0.951 . S
H1408 C1428 0.950 . S
H1409 C1429 0.950 . S
H1410 C1431 0.950 . S
H1411 C1434 0.950 . S
H1412 C1435 0.950 . S
H1413 C1437 0.950 . S
H1414 C1438 0.950 . S
H1415 C1439 0.951 . S
H1416 C1441 0.951 . S
H1417 C1443 0.950 . S
H1418 C1444 0.950 . S
H1419 C1446 0.950 . S
H1420 C1449 0.950 . S
H1421 C1450 0.950 . S
H1422 C1452 0.950 . S
H1423 C1453 0.950 . S
C1424 H1406 0.951 . S
C1424 C1425 1.366 . S
C1424 C1426 1.388 . S
C1425 C1424 1.366 . S
C1425 C1429 1.385 . S
C1426 H1407 0.951 . S
C1426 C1424 1.388 . S
C1426 C1427 1.366 . S
C1427 C1426 1.366 . S
C1427 C1428 1.414 . S
C1427 C1430 1.499 . S
C1428 H1408 0.950 . S
C1428 C1427 1.414 . S
C1428 C1429 1.374 . S
C1429 H1409 0.950 . S
C1429 C1425 1.385 . S
C1429 C1428 1.374 . S
C1430 C1427 1.499 . S
C1430 C1431 1.373 . S
C1430 C1432 1.389 . S
C1431 H1410 0.950 . S
C1431 C1430 1.373 . S
C1431 C1447 1.377 . S
C1432 C1430 1.389 . S
C1432 C1433 1.524 . S
C1432 C1446 1.377 . S
C1433 C1432 1.524 . S
C1433 C1434 1.397 . S
C1433 C1438 1.363 . S
C1434 H1411 0.950 . S
C1434 C1433 1.397 . S
C1434 C1435 1.334 . S
C1435 H1412 0.950 . S
C1435 C1434 1.334 . S
C1435 C1436 1.287 . S
C1436 C1435 1.287 . S
C1436 C1437 1.524 . S
C1436 H1455 0.913 . S
C1437 H1413 0.950 . S
C1437 C1436 1.524 . S
C1437 C1438 1.415 . S
C1438 H1414 0.950 . S
C1438 C1433 1.363 . S
C1438 C1437 1.415 . S
C1439 H1415 0.951 . S
C1439 C1440 1.366 . S
C1439 C1441 1.388 . S
C1440 C1439 1.366 . S
C1440 C1444 1.385 . S
C1441 H1416 0.951 . S
C1441 C1439 1.388 . S
C1441 C1442 1.366 . S
C1442 C1441 1.366 . S
C1442 C1443 1.414 . S
C1442 C1445 1.499 . S
C1443 H1417 0.950 . S
C1443 C1442 1.414 . S
C1443 C1444 1.374 . S
C1444 H1418 0.950 . S
C1444 C1440 1.385 . S
C1444 C1443 1.374 . S
C1445 C1442 1.499 . S
C1445 C1446 1.373 . S
C1445 C1447 1.389 . S
C1446 H1419 0.950 . S
C1446 C1432 1.377 . S
C1446 C1445 1.373 . S
C1447 C1431 1.377 . S
C1447 C1445 1.389 . S
C1447 C1448 1.524 . S
C1448 C1447 1.524 . S
C1448 C1449 1.397 . S
C1448 C1453 1.363 . S
C1449 H1420 0.950 . S
C1449 C1448 1.397 . S
C1449 C1450 1.334 . S
C1450 H1421 0.950 . S
C1450 C1449 1.334 . S
C1450 C1451 1.287 . S
C1451 C1450 1.287 . S
C1451 C1452 1.524 . S
C1451 H1454 0.999 . S
C1452 H1422 0.950 . S
C1452 C1451 1.524 . S
C1452 C1453 1.415 . S
C1453 H1423 0.950 . S
C1453 C1448 1.363 . S
C1453 C1452 1.415 . S
H1454 C1451 0.999 . S
H1455 C1436 0.913 . S
H1456 C1474 0.951 . S
H1457 C1476 0.951 . S
H1458 C1478 0.950 . S
H1459 C1479 0.950 . S
H1460 C1481 0.950 . S
H1461 C1484 0.950 . S
H1462 C1485 0.950 . S
H1463 C1487 0.950 . S
H1464 C1488 0.950 . S
H1465 C1489 0.951 . S
H1466 C1491 0.951 . S
H1467 C1493 0.950 . S
H1468 C1494 0.950 . S
H1469 C1496 0.950 . S
H1470 C1499 0.950 . S
H1471 C1500 0.950 . S
H1472 C1502 0.950 . S
H1473 C1503 0.950 . S
C1474 H1456 0.951 . S
C1474 C1475 1.366 . S
C1474 C1476 1.388 . S
C1475 C1474 1.366 . S
C1475 C1479 1.385 . S
C1476 H1457 0.951 . S
C1476 C1474 1.388 . S
C1476 C1477 1.366 . S
C1477 C1476 1.366 . S
C1477 C1478 1.414 . S
C1477 C1480 1.499 . S
C1478 H1458 0.950 . S
C1478 C1477 1.414 . S
C1478 C1479 1.374 . S
C1479 H1459 0.950 . S
C1479 C1475 1.385 . S
C1479 C1478 1.374 . S
C1480 C1477 1.499 . S
C1480 C1481 1.373 . S
C1480 C1482 1.389 . S
C1481 H1460 0.950 . S
C1481 C1480 1.373 . S
C1481 C1497 1.377 . S
C1482 C1480 1.389 . S
C1482 C1483 1.524 . S
C1482 C1496 1.377 . S
C1483 C1482 1.524 . S
C1483 C1484 1.397 . S
C1483 C1488 1.363 . S
C1484 H1461 0.950 . S
C1484 C1483 1.397 . S
C1484 C1485 1.334 . S
C1485 H1462 0.950 . S
C1485 C1484 1.334 . S
C1485 C1486 1.287 . S
C1486 C1485 1.287 . S
C1486 C1487 1.524 . S
C1486 H1505 0.913 . S
C1487 H1463 0.950 . S
C1487 C1486 1.524 . S
C1487 C1488 1.415 . S
C1488 H1464 0.950 . S
C1488 C1483 1.363 . S
C1488 C1487 1.415 . S
C1489 H1465 0.951 . S
C1489 C1490 1.366 . S
C1489 C1491 1.388 . S
C1490 C1489 1.366 . S
C1490 C1494 1.385 . S
C1491 H1466 0.951 . S
C1491 C1489 1.388 . S
C1491 C1492 1.366 . S
C1492 C1491 1.366 . S
C1492 C1493 1.414 . S
C1492 C1495 1.499 . S
C1493 H1467 0.950 . S
C1493 C1492 1.414 . S
C1493 C1494 1.374 . S
C1494 H1468 0.950 . S
C1494 C1490 1.385 . S
C1494 C1493 1.374 . S
C1495 C1492 1.499 . S
C1495 C1496 1.373 . S
C1495 C1497 1.389 . S
C1496 H1469 0.950 . S
C1496 C1482 1.377 . S
C1496 C1495 1.373 . S
C1497 C1481 1.377 . S
C1497 C1495 1.389 . S
C1497 C1498 1.524 . S
C1498 C1497 1.524 . S
C1498 C1499 1.397 . S
C1498 C1503 1.363 . S
C1499 H1470 0.950 . S
C1499 C1498 1.397 . S
C1499 C1500 1.334 . S
C1500 H1471 0.950 . S
C1500 C1499 1.334 . S
C1500 C1501 1.287 . S
C1501 C1500 1.287 . S
C1501 C1502 1.524 . S
C1501 H1504 0.999 . S
C1502 H1472 0.950 . S
C1502 C1501 1.524 . S
C1502 C1503 1.415 . S
C1503 H1473 0.950 . S
C1503 C1498 1.363 . S
C1503 C1502 1.415 . S
H1504 C1501 0.999 . S
H1505 C1486 0.913 . S
H1506 C1524 0.951 . S
H1507 C1526 0.951 . S
H1508 C1528 0.950 . S
H1509 C1529 0.950 . S
H1510 C1531 0.950 . S
H1511 C1534 0.950 . S
H1512 C1535 0.950 . S
H1513 C1537 0.950 . S
H1514 C1538 0.950 . S
H1515 C1539 0.951 . S
H1516 C1541 0.951 . S
H1517 C1543 0.950 . S
H1518 C1544 0.950 . S
H1519 C1546 0.950 . S
H1520 C1549 0.950 . S
H1521 C1550 0.950 . S
H1522 C1552 0.950 . S
H1523 C1553 0.950 . S
C1524 H1506 0.951 . S
C1524 C1525 1.366 . S
C1524 C1526 1.388 . S
C1525 C1524 1.366 . S
C1525 C1529 1.385 . S
C1526 H1507 0.951 . S
C1526 C1524 1.388 . S
C1526 C1527 1.366 . S
C1527 C1526 1.366 . S
C1527 C1528 1.414 . S
C1527 C1530 1.499 . S
C1528 H1508 0.950 . S
C1528 C1527 1.414 . S
C1528 C1529 1.374 . S
C1529 H1509 0.950 . S
C1529 C1525 1.385 . S
C1529 C1528 1.374 . S
C1530 C1527 1.499 . S
C1530 C1531 1.373 . S
C1530 C1532 1.389 . S
C1531 H1510 0.950 . S
C1531 C1530 1.373 . S
C1531 C1547 1.377 . S
C1532 C1530 1.389 . S
C1532 C1533 1.524 . S
C1532 C1546 1.377 . S
C1533 C1532 1.524 . S
C1533 C1534 1.397 . S
C1533 C1538 1.363 . S
C1534 H1511 0.950 . S
C1534 C1533 1.397 . S
C1534 C1535 1.334 . S
C1535 H1512 0.950 . S
C1535 C1534 1.334 . S
C1535 C1536 1.287 . S
C1536 C1535 1.287 . S
C1536 C1537 1.524 . S
C1536 H1555 0.913 . S
C1537 H1513 0.950 . S
C1537 C1536 1.524 . S
C1537 C1538 1.415 . S
C1538 H1514 0.950 . S
C1538 C1533 1.363 . S
C1538 C1537 1.415 . S
C1539 H1515 0.951 . S
C1539 C1540 1.366 . S
C1539 C1541 1.388 . S
C1540 C1539 1.366 . S
C1540 C1544 1.385 . S
C1541 H1516 0.951 . S
C1541 C1539 1.388 . S
C1541 C1542 1.366 . S
C1542 C1541 1.366 . S
C1542 C1543 1.414 . S
C1542 C1545 1.499 . S
C1543 H1517 0.950 . S
C1543 C1542 1.414 . S
C1543 C1544 1.374 . S
C1544 H1518 0.950 . S
C1544 C1540 1.385 . S
C1544 C1543 1.374 . S
C1545 C1542 1.499 . S
C1545 C1546 1.373 . S
C1545 C1547 1.389 . S
C1546 H1519 0.950 . S
C1546 C1532 1.377 . S
C1546 C1545 1.373 . S
C1547 C1531 1.377 . S
C1547 C1545 1.389 . S
C1547 C1548 1.524 . S
C1548 C1547 1.524 . S
C1548 C1549 1.397 . S
C1548 C1553 1.363 . S
C1549 H1520 0.950 . S
C1549 C1548 1.397 . S
C1549 C1550 1.334 . S
C1550 H1521 0.950 . S
C1550 C1549 1.334 . S
C1550 C1551 1.287 . S
C1551 C1550 1.287 . S
C1551 C1552 1.524 . S
C1551 H1554 0.999 . S
C1552 H1522 0.950 . S
C1552 C1551 1.524 . S
C1552 C1553 1.415 . S
C1553 H1523 0.950 . S
C1553 C1548 1.363 . S
C1553 C1552 1.415 . S
H1554 C1551 0.999 . S
H1555 C1536 0.913 . S
H1556 C1574 0.951 . S
H1557 C1576 0.951 . S
H1558 C1578 0.950 . S
H1559 C1579 0.950 . S
H1560 C1581 0.950 . S
H1561 C1584 0.950 . S
H1562 C1585 0.950 . S
H1563 C1587 0.990 . S
H1564 C1588 0.950 . S
H1565 C1589 0.951 . S
H1566 C1591 0.951 . S
H1567 C1593 0.950 . S
H1568 C1594 0.950 . S
H1569 C1596 0.950 . S
H1570 C1599 0.950 . S
H1571 C1600 0.950 . S
H1572 C1602 0.950 . S
H1573 C1603 0.950 . S
C1574 H1556 0.951 . S
C1574 C1575 1.366 . S
C1574 C1576 1.388 . S
C1575 C1574 1.366 . S
C1575 C1579 1.385 . S
C1576 H1557 0.951 . S
C1576 C1574 1.388 . S
C1576 C1577 1.366 . S
C1577 C1576 1.366 . S
C1577 C1578 1.414 . S
C1577 C1580 1.499 . S
C1578 H1558 0.950 . S
C1578 C1577 1.414 . S
C1578 C1579 1.374 . S
C1579 H1559 0.950 . S
C1579 C1575 1.385 . S
C1579 C1578 1.374 . S
C1580 C1577 1.499 . S
C1580 C1581 1.373 . S
C1580 C1582 1.389 . S
C1581 H1560 0.950 . S
C1581 C1580 1.373 . S
C1581 C1597 1.377 1_554 S
C1582 C1580 1.389 . S
C1582 C1583 1.524 . S
C1582 C1596 1.377 1_554 S
C1583 C1582 1.524 . S
C1583 C1584 1.397 . S
C1583 C1588 1.363 1_554 S
C1584 H1561 0.950 . S
C1584 C1583 1.397 . S
C1584 C1585 1.334 . S
C1585 H1562 0.950 . S
C1585 C1584 1.334 . S
C1585 C1586 1.287 . S
C1586 C1585 1.287 . S
C1586 C1587 1.467 1_554 S
C1586 H1605 0.913 . S
C1587 H1563 0.990 . S
C1587 C1586 1.467 1_556 S
C1587 C1588 1.428 . S
C1588 H1564 0.950 . S
C1588 C1583 1.363 1_556 S
C1588 C1587 1.428 . S
C1589 H1565 0.951 . S
C1589 C1590 1.366 . S
C1589 C1591 1.388 . S
C1590 C1589 1.366 . S
C1590 C1594 1.385 . S
C1591 H1566 0.951 . S
C1591 C1589 1.388 . S
C1591 C1592 1.366 . S
C1592 C1591 1.366 . S
C1592 C1593 1.414 . S
C1592 C1595 1.499 . S
C1593 H1567 0.950 . S
C1593 C1592 1.414 . S
C1593 C1594 1.374 . S
C1594 H1568 0.950 . S
C1594 C1590 1.385 . S
C1594 C1593 1.374 . S
C1595 C1592 1.499 . S
C1595 C1596 1.373 . S
C1595 C1597 1.389 . S
C1596 H1569 0.950 . S
C1596 C1582 1.377 1_556 S
C1596 C1595 1.373 . S
C1597 C1581 1.377 1_556 S
C1597 C1595 1.389 . S
C1597 C1598 1.524 . S
C1598 C1597 1.524 . S
C1598 C1599 1.397 . S
C1598 C1603 1.363 1_556 S
C1599 H1570 0.950 . S
C1599 C1598 1.397 . S
C1599 C1600 1.334 . S
C1600 H1571 0.950 . S
C1600 C1599 1.334 . S
C1600 C1601 1.287 . S
C1601 C1600 1.287 . S
C1601 C1602 1.524 1_556 S
C1601 H1604 0.999 . S
C1602 H1572 0.950 . S
C1602 C1601 1.524 1_554 S
C1602 C1603 1.415 . S
C1603 H1573 0.950 . S
C1603 C1598 1.363 1_554 S
C1603 C1602 1.415 . S
H1604 C1601 0.999 . S
H1605 C1586 0.913 . S
H1606 C1624 0.951 . S
H1607 C1626 0.951 . S
H1608 C1628 0.950 . S
H1609 C1629 0.950 . S
H1610 C1631 0.950 . S
H1611 C1634 0.950 . S
H1612 C1635 0.950 . S
H1613 C1637 0.950 . S
H1614 C1638 0.950 . S
H1615 C1639 0.951 . S
H1616 C1641 0.951 . S
H1617 C1643 0.950 . S
H1618 C1644 0.950 . S
H1619 C1646 0.950 . S
H1620 C1649 0.950 . S
H1621 C1650 0.950 . S
H1622 C1652 0.950 . S
H1623 C1653 0.950 . S
C1624 H1606 0.951 . S
C1624 C1625 1.366 . S
C1624 C1626 1.388 . S
C1625 C1624 1.366 . S
C1625 C1629 1.385 . S
C1626 H1607 0.951 . S
C1626 C1624 1.388 . S
C1626 C1627 1.366 . S
C1627 C1626 1.366 . S
C1627 C1628 1.414 . S
C1627 C1630 1.499 . S
C1628 H1608 0.950 . S
C1628 C1627 1.414 . S
C1628 C1629 1.374 . S
C1629 H1609 0.950 . S
C1629 C1625 1.385 . S
C1629 C1628 1.374 . S
C1630 C1627 1.499 . S
C1630 C1631 1.373 . S
C1630 C1632 1.389 . S
C1631 H1610 0.950 . S
C1631 C1630 1.373 . S
C1631 C1647 1.377 . S
C1632 C1630 1.389 . S
C1632 C1633 1.524 . S
C1632 C1646 1.377 . S
C1633 C1632 1.524 . S
C1633 C1634 1.397 . S
C1633 C1638 1.363 . S
C1634 H1611 0.950 . S
C1634 C1633 1.397 . S
C1634 C1635 1.334 . S
C1635 H1612 0.950 . S
C1635 C1634 1.334 . S
C1635 C1636 1.287 . S
C1636 C1635 1.287 . S
C1636 C1637 1.524 . S
C1636 H1655 0.913 . S
C1637 H1613 0.950 . S
C1637 C1636 1.524 . S
C1637 C1638 1.415 . S
C1638 H1614 0.950 . S
C1638 C1633 1.363 . S
C1638 C1637 1.415 . S
C1639 H1615 0.951 . S
C1639 C1640 1.366 . S
C1639 C1641 1.388 . S
C1640 C1639 1.366 . S
C1640 C1644 1.385 . S
C1641 H1616 0.951 . S
C1641 C1639 1.388 . S
C1641 C1642 1.366 . S
C1642 C1641 1.366 . S
C1642 C1643 1.414 . S
C1642 C1645 1.499 . S
C1643 H1617 0.950 . S
C1643 C1642 1.414 . S
C1643 C1644 1.374 . S
C1644 H1618 0.950 . S
C1644 C1640 1.385 . S
C1644 C1643 1.374 . S
C1645 C1642 1.499 . S
C1645 C1646 1.373 . S
C1645 C1647 1.389 . S
C1646 H1619 0.950 . S
C1646 C1632 1.377 . S
C1646 C1645 1.373 . S
C1647 C1631 1.377 . S
C1647 C1645 1.389 . S
C1647 C1648 1.524 . S
C1648 C1647 1.524 . S
C1648 C1649 1.397 . S
C1648 C1653 1.363 . S
C1649 H1620 0.950 . S
C1649 C1648 1.397 . S
C1649 C1650 1.334 . S
C1650 H1621 0.950 . S
C1650 C1649 1.334 . S
C1650 C1651 1.287 . S
C1651 C1650 1.287 . S
C1651 C1652 1.524 . S
C1651 H1654 0.999 . S
C1652 H1622 0.950 . S
C1652 C1651 1.524 . S
C1652 C1653 1.415 . S
C1653 H1623 0.950 . S
C1653 C1648 1.363 . S
C1653 C1652 1.415 . S
H1654 C1651 0.999 . S
H1655 C1636 0.913 . S
C490 C442 1.686 . S
C475 C29 1.586 . S
C525 C115 1.548 . S
C540 C383 1.577 . S
C575 C153 1.582 . S
C590 C386 1.683 . S
C625 C239 1.548 . S
C640 C400 1.572 . S
C690 C425 1.627 . S
C675 C301 1.595 . S
C725 C339 1.834 . S
C740 C428 1.955 . S
C775 C91 1.572 . S
C790 C397 1.673 . S
C825 C177 1.526 . S
C840 C411 1.552 . S
C875 C215 1.547 . S
C890 C414 1.647 . S
C940 C439 1.938 . S
C925 C277 1.817 . S
C990 C453 1.607 . S
C975 C363 1.578 . S
C1040 C372 1.526 . S
C1025 C53 1.502 . S
C1075 C35 1.532 . S
C1090 C395 1.559 . S
C1125 C109 1.409 . S
C1140 C409 1.515 . S
C1190 C419 1.457 . S
C1175 C159 1.435 . S
C1225 C233 1.594 . S
C1240 C437 1.710 . S
C1290 C451 1.537 . S
C1275 C295 1.416 . S
C1340 C377 1.398 . S
C1325 C345 1.377 . S
C1390 C447 1.484 . S
C1375 C97 1.461 . S
C1425 C171 1.416 . S
C1440 C381 1.528 . S
C1490 C391 1.593 . S
C1475 C221 1.560 . S
C1525 C283 1.399 . S
C1540 C405 1.422 . S
C1575 C357 1.425 . S
C1590 C423 1.552 . S
C1625 C47 1.626 . S
C1640 C433 1.751 . S
