# Generated by pormake.
# Topology pyr, (3,6)-cn, num edge types: 1
# Building blocks:
#     Node 0, Type 0, BuildingBlock: MIDCAF_clean_linker_0, # of connection points: 3
#     Node 1, Type 0, BuildingBlock: MIDCAF_clean_linker_0, # of connection points: 3
#     Node 2, Type 0, BuildingBlock: MIDCAF_clean_linker_0, # of connection points: 3
#     Node 3, Type 0, BuildingBlock: MIDCAF_clean_linker_0, # of connection points: 3
#     Node 4, Type 0, BuildingBlock: MIDCAF_clean_linker_0, # of connection points: 3
#     Node 5, Type 0, BuildingBlock: MIDCAF_clean_linker_0, # of connection points: 3
#     Node 6, Type 0, BuildingBlock: MIDCAF_clean_linker_0, # of connection points: 3
#     Node 7, Type 0, BuildingBlock: MIDCAF_clean_linker_0, # of connection points: 3
#     Node 8, Type 1, BuildingBlock: JUFBIX_clean_sbu_0, # of connection points: 6
#     Node 9, Type 1, BuildingBlock: JUFBIX_clean_sbu_0, # of connection points: 6
#     Node 10, Type 1, BuildingBlock: JUFBIX_clean_sbu_0, # of connection points: 6
#     Node 11, Type 1, BuildingBlock: JUFBIX_clean_sbu_0, # of connection points: 6
#     Edge 12, Type (0, 1), BuildingBlock: KIFKEQ_clean_linker_1, # of connection points: 2
#     Edge 13, Type (0, 1), BuildingBlock: KIFKEQ_clean_linker_1, # of connection points: 2
#     Edge 14, Type (0, 1), BuildingBlock: KIFKEQ_clean_linker_1, # of connection points: 2
#     Edge 15, Type (0, 1), BuildingBlock: KIFKEQ_clean_linker_1, # of connection points: 2
#     Edge 16, Type (0, 1), BuildingBlock: KIFKEQ_clean_linker_1, # of connection points: 2
#     Edge 17, Type (0, 1), BuildingBlock: KIFKEQ_clean_linker_1, # of connection points: 2
#     Edge 18, Type (0, 1), BuildingBlock: KIFKEQ_clean_linker_1, # of connection points: 2
#     Edge 19, Type (0, 1), BuildingBlock: KIFKEQ_clean_linker_1, # of connection points: 2
#     Edge 20, Type (0, 1), BuildingBlock: KIFKEQ_clean_linker_1, # of connection points: 2
#     Edge 21, Type (0, 1), BuildingBlock: KIFKEQ_clean_linker_1, # of connection points: 2
#     Edge 22, Type (0, 1), BuildingBlock: KIFKEQ_clean_linker_1, # of connection points: 2
#     Edge 23, Type (0, 1), BuildingBlock: KIFKEQ_clean_linker_1, # of connection points: 2
#     Edge 24, Type (0, 1), BuildingBlock: KIFKEQ_clean_linker_1, # of connection points: 2
#     Edge 25, Type (0, 1), BuildingBlock: KIFKEQ_clean_linker_1, # of connection points: 2
#     Edge 26, Type (0, 1), BuildingBlock: KIFKEQ_clean_linker_1, # of connection points: 2
#     Edge 27, Type (0, 1), BuildingBlock: KIFKEQ_clean_linker_1, # of connection points: 2
#     Edge 28, Type (0, 1), BuildingBlock: KIFKEQ_clean_linker_1, # of connection points: 2
#     Edge 29, Type (0, 1), BuildingBlock: KIFKEQ_clean_linker_1, # of connection points: 2
#     Edge 30, Type (0, 1), BuildingBlock: KIFKEQ_clean_linker_1, # of connection points: 2
#     Edge 31, Type (0, 1), BuildingBlock: KIFKEQ_clean_linker_1, # of connection points: 2
#     Edge 32, Type (0, 1), BuildingBlock: KIFKEQ_clean_linker_1, # of connection points: 2
#     Edge 33, Type (0, 1), BuildingBlock: KIFKEQ_clean_linker_1, # of connection points: 2
#     Edge 34, Type (0, 1), BuildingBlock: KIFKEQ_clean_linker_1, # of connection points: 2
#     Edge 35, Type (0, 1), BuildingBlock: KIFKEQ_clean_linker_1, # of connection points: 2
# Relax obj value: 0.045
# Max RMSD: 0.092
# Mean RMSD: 0.031
data_MOF--net-pry--node1-JUFBIX_clean_sbu_0--node2-MIDCAF_clean_linker_0--edge1-KIFKEQ_clean_linker_1
_symmetry_space_group_name_H-M    P1
_symmetry_Int_Tables_number       1
_symmetry_cell_setting            triclinic
loop_
_symmetry_equiv_pos_as_xyz
'x, y, z'
_cell_length_a     46.312286
_cell_length_b     44.316977
_cell_length_c     46.216372
_cell_angle_alpha  84.151372
_cell_angle_beta   89.495831
_cell_angle_gamma 91.385274
loop_
_atom_site_label
_atom_site_type_symbol
_atom_site_fract_x
_atom_site_fract_y
_atom_site_fract_z
_atom_type_partial_charge
C0 C 0.12384 0.12819 0.25518 0.0
C1 C 0.13945 0.10911 0.27516 0.0
C2 C 0.16839 0.10329 0.26854 0.0
C3 C 0.18135 0.11624 0.24246 0.0
H4 H 0.24422 0.10122 0.17687 0.0
H5 H 0.28755 0.08171 0.15595 0.0
H6 H 0.29415 0.16163 0.09414 0.0
H7 H 0.25037 0.18065 0.1144 0.0
H8 H 0.19408 0.22216 0.1042 0.0
H9 H 0.16985 0.26574 0.07957 0.0
H10 H 0.10703 0.26133 0.14961 0.0
H11 H 0.13062 0.21761 0.17378 0.0
H12 H 0.12408 0.15618 0.21471 0.0
H13 H 0.10162 0.13338 0.25973 0.0
H14 H 0.18094 0.08853 0.28343 0.0
H15 H 0.20367 0.11138 0.23805 0.0
N16 N 0.20435 0.14027 0.18457 0.0
N17 N 0.20354 0.17871 0.14555 0.0
N18 N 0.16686 0.17505 0.18103 0.0
C19 C 0.21654 0.15417 0.15955 0.0
C20 C 0.17868 0.18932 0.15618 0.0
C21 C 0.17944 0.15062 0.19543 0.0
C22 C 0.24357 0.14253 0.14735 0.0
C23 C 0.25489 0.1147 0.15884 0.0
C24 C 0.27994 0.10354 0.1469 0.0
C25 C 0.29453 0.11998 0.12322 0.0
C26 C 0.28334 0.14798 0.11197 0.0
C27 C 0.25821 0.15903 0.12377 0.0
C28 C 0.16435 0.21615 0.14101 0.0
C29 C 0.17507 0.23044 0.11434 0.0
C30 C 0.16124 0.25558 0.10025 0.0
C31 C 0.13634 0.26706 0.11248 0.0
C32 C 0.12578 0.25284 0.1392 0.0
C33 C 0.13952 0.22777 0.15322 0.0
C34 C 0.16578 0.1357 0.22267 0.0
C35 C 0.13684 0.14142 0.2294 0.0
C36 C 0.32176 0.91904 0.61314 0.0
C37 C 0.30465 0.90166 0.59577 0.0
C38 C 0.31635 0.87583 0.58535 0.0
C39 C 0.34461 0.86752 0.59231 0.0
H40 H 0.41268 0.81273 0.57174 0.0
H41 H 0.42922 0.76475 0.5573 0.0
H42 H 0.48772 0.7569 0.62976 0.0
H43 H 0.47112 0.80511 0.64446 0.0
H44 H 0.48146 0.86656 0.67812 0.0
H45 H 0.50188 0.89129 0.71847 0.0
H46 H 0.43487 0.95771 0.70931 0.0
H47 H 0.41523 0.93394 0.66883 0.0
H48 H 0.36218 0.92466 0.63379 0.0
H49 H 0.31322 0.93879 0.62192 0.0
H50 H 0.30373 0.86215 0.57172 0.0
H51 H 0.35295 0.84737 0.58413 0.0
N52 N 0.40261 0.85038 0.60945 0.0
N53 N 0.44328 0.85628 0.63861 0.0
N54 N 0.40571 0.89078 0.63814 0.0
C55 C 0.4288 0.84074 0.61908 0.0
C56 C 0.43187 0.88156 0.64805 0.0
C57 C 0.39091 0.87538 0.61893 0.0
C58 C 0.4405 0.81269 0.60934 0.0
C59 C 0.42919 0.80093 0.58456 0.0
C60 C 0.43877 0.77353 0.57615 0.0
C61 C 0.4597 0.75714 0.59244 0.0
C62 C 0.47139 0.76903 0.61697 0.0
C63 C 0.46202 0.79669 0.62523 0.0
C64 C 0.44647 0.89799 0.6704 0.0
C65 C 0.47141 0.88674 0.68443 0.0
C66 C 0.48304 0.90083 0.70765 0.0
C67 C 0.46997 0.92642 0.71726 0.0
C68 C 0.44584 0.93835 0.70231 0.0
C69 C 0.43432 0.92442 0.67918 0.0
C70 C 0.3616 0.88483 0.60996 0.0
C71 C 0.34986 0.91079 0.62009 0.0
C72 C 0.66671 0.25369 0.90308 0.0
C73 C 0.63661 0.24993 0.90126 0.0
C74 C 0.62069 0.27273 0.88586 0.0
C75 C 0.63469 0.29864 0.87207 0.0
H76 H 0.62609 0.36198 0.80153 0.0
H77 H 0.60519 0.38405 0.75658 0.0
H78 H 0.68498 0.43401 0.73465 0.0
H79 H 0.70587 0.41239 0.78029 0.0
H80 H 0.7443 0.42164 0.8439 0.0
H81 H 0.78826 0.4409 0.86528 0.0
H82 H 0.79947 0.35366 0.914 0.0
H83 H 0.7556 0.33432 0.89282 0.0
H84 H 0.70391 0.28222 0.89153 0.0
H85 H 0.6794 0.23642 0.91495 0.0
H86 H 0.59747 0.27023 0.88407 0.0
H87 H 0.62187 0.31572 0.86011 0.0
N88 N 0.66751 0.34501 0.83535 0.0
N89 N 0.70654 0.37997 0.83122 0.0
N90 N 0.70532 0.33988 0.86866 0.0
C91 C 0.68088 0.36994 0.82117 0.0
C92 C 0.71883 0.36508 0.85507 0.0
C93 C 0.67958 0.32983 0.85901 0.0
C94 C 0.6678 0.38516 0.7945 0.0
C95 C 0.63926 0.37773 0.78725 0.0
C96 C 0.62728 0.39028 0.76131 0.0
C97 C 0.64353 0.41046 0.74172 0.0
C98 C 0.67181 0.41864 0.74929 0.0
C99 C 0.68381 0.40617 0.77544 0.0
C100 C 0.74633 0.37645 0.8667 0.0
C101 C 0.75623 0.40648 0.859 0.0
C102 C 0.7813 0.41759 0.87137 0.0
C103 C 0.79723 0.3988 0.89135 0.0
C104 C 0.78774 0.3686 0.89851 0.0
C105 C 0.7625 0.35761 0.88647 0.0
C106 C 0.66482 0.30253 0.87392 0.0
C107 C 0.68067 0.27992 0.8898 0.0
C108 C 0.83929 0.61618 0.4782 0.0
C109 C 0.8262 0.58944 0.46998 0.0
C110 C 0.8421 0.57106 0.45298 0.0
C111 C 0.86971 0.58024 0.44277 0.0
H112 H 0.91545 0.57261 0.37056 0.0
H113 H 0.92482 0.55513 0.32359 0.0
H114 H 0.99388 0.62227 0.30774 0.0
H115 H 0.98391 0.64062 0.35481 0.0
H116 H 0.989 0.69246 0.39789 0.0
H117 H 1.00942 0.74075 0.40998 0.0
H118 H 0.9567 0.73423 0.48801 0.0
H119 H 0.93652 0.68586 0.47629 0.0
H120 H 0.87599 0.64668 0.47383 0.0
H121 H 0.82766 0.63062 0.49158 0.0
H122 H 0.83258 0.55044 0.44609 0.0
H123 H 0.88081 0.56613 0.42865 0.0
N124 N 0.91812 0.60803 0.41017 0.0
N125 N 0.95515 0.64504 0.40301 0.0
N126 N 0.92331 0.64469 0.44292 0.0
C127 C 0.94106 0.62032 0.3943 0.0
C128 C 0.94653 0.65724 0.42745 0.0
C129 C 0.9091 0.61994 0.43447 0.0
C130 C 0.94882 0.60819 0.36656 0.0
C131 C 0.93281 0.58364 0.35729 0.0
C132 C 0.93833 0.5734 0.3303 0.0
C133 C 0.96016 0.58723 0.31184 0.0
C134 C 0.97667 0.61134 0.32129 0.0
C135 C 0.97108 0.62172 0.34838 0.0
C136 C 0.96087 0.68529 0.43597 0.0
C137 C 0.98195 0.7011 0.41781 0.0
C138 C 0.9936 0.72887 0.42465 0.0
C139 C 0.98458 0.7414 0.44987 0.0
C140 C 0.96434 0.72507 0.46857 0.0
C141 C 0.9526 0.69739 0.46169 0.0
C142 C 0.88212 0.60795 0.44941 0.0
C143 C 0.86704 0.62529 0.46813 0.0
C144 C 0.75252 0.91432 0.88192 0.0
C145 C 0.73591 0.89616 0.90293 0.0
C146 C 0.74462 0.86638 0.91123 0.0
C147 C 0.76959 0.85521 0.89923 0.0
H148 H 0.82544 0.77944 0.90448 0.0
H149 H 0.8483 0.73444 0.9286 0.0
H150 H 0.93161 0.76908 0.89638 0.0
H151 H 0.90882 0.81368 0.87164 0.0
H152 H 0.9068 0.86007 0.8119 0.0
H153 H 0.92884 0.88215 0.76655 0.0
H154 H 0.84892 0.92604 0.7427 0.0
H155 H 0.82716 0.90478 0.78882 0.0
H156 H 0.78963 0.9177 0.85362 0.0
H157 H 0.74625 0.93727 0.87488 0.0
H158 H 0.73244 0.85188 0.9275 0.0
H159 H 0.77577 0.83228 0.90645 0.0
N160 N 0.82611 0.83709 0.88045 0.0
N161 N 0.86401 0.84147 0.84619 0.0
N162 N 0.82621 0.87594 0.84181 0.0
C163 C 0.85146 0.82691 0.87057 0.0
C164 C 0.85148 0.86581 0.83149 0.0
C165 C 0.81345 0.86177 0.8664 0.0
C166 C 0.8653 0.80011 0.88607 0.0
C167 C 0.84864 0.77751 0.90262 0.0
C168 C 0.86167 0.75173 0.91633 0.0
C169 C 0.8917 0.74837 0.91438 0.0
C170 C 0.90844 0.77122 0.89837 0.0
C171 C 0.89535 0.79664 0.88409 0.0
C172 C 0.8651 0.8805 0.8041 0.0
C173 C 0.89387 0.87451 0.79708 0.0
C174 C 0.90651 0.88705 0.77083 0.0
C175 C 0.89068 0.90572 0.75056 0.0
C176 C 0.86198 0.91209 0.75778 0.0
C177 C 0.84941 0.89976 0.78425 0.0
C178 C 0.78633 0.87339 0.87831 0.0
C179 C 0.77729 0.903 0.8696 0.0
C180 C 0.58526 0.05953 0.33681 0.0
C181 C 0.56171 0.07136 0.32077 0.0
C182 C 0.54584 0.09447 0.3317 0.0
C183 C 0.55405 0.10628 0.35742 0.0
H184 H 0.55703 0.19018 0.39264 0.0
H185 H 0.54418 0.24166 0.40153 0.0
H186 H 0.58713 0.2305 0.48434 0.0
H187 H 0.59978 0.17926 0.47576 0.0
H188 H 0.65601 0.13825 0.47524 0.0
H189 H 0.70317 0.12266 0.49323 0.0
H190 H 0.69537 0.0411 0.44988 0.0
H191 H 0.64813 0.05647 0.43182 0.0
H192 H 0.61207 0.06191 0.37383 0.0
H193 H 0.59832 0.0421 0.3289 0.0
H194 H 0.52728 0.10377 0.32017 0.0
H195 H 0.54174 0.12453 0.36485 0.0
N196 N 0.5782 0.13623 0.40512 0.0
N197 N 0.61139 0.13747 0.44301 0.0
N198 N 0.61087 0.09686 0.41442 0.0
C199 C 0.58935 0.15033 0.42746 0.0
C200 C 0.62225 0.11073 0.43673 0.0
C201 C 0.58875 0.10932 0.3986 0.0
C202 C 0.57947 0.18059 0.43347 0.0
C203 C 0.56346 0.1986 0.41288 0.0
C204 C 0.55631 0.22815 0.41782 0.0
C205 C 0.56473 0.24006 0.44358 0.0
C206 C 0.58014 0.22182 0.4644 0.0
C207 C 0.58749 0.19248 0.45939 0.0
C208 C 0.64844 0.09886 0.45163 0.0
C209 C 0.66401 0.11669 0.46994 0.0
C210 C 0.69108 0.10785 0.48023 0.0
C211 C 0.703 0.08086 0.4727 0.0
C212 C 0.68662 0.06196 0.45615 0.0
C213 C 0.65963 0.07091 0.44563 0.0
C214 C 0.57821 0.09508 0.37289 0.0
C215 C 0.59331 0.07112 0.36259 0.0
C216 C 0.24118 0.60554 0.15842 0.0
C217 C 0.23558 0.6139 0.12889 0.0
C218 C 0.25546 0.63313 0.1124 0.0
C219 C 0.28031 0.64404 0.12523 0.0
H220 H 0.32846 0.73 0.13176 0.0
H221 H 0.35345 0.77587 0.11017 0.0
H222 H 0.43331 0.7439 0.1488 0.0
H223 H 0.4078 0.69903 0.17172 0.0
H224 H 0.37943 0.66975 0.24603 0.0
H225 H 0.39926 0.64506 0.29085 0.0
H226 H 0.36011 0.55977 0.27273 0.0
H227 H 0.33967 0.58458 0.2279 0.0
H228 H 0.27002 0.60918 0.19396 0.0
H229 H 0.22629 0.59058 0.17157 0.0
H230 H 0.25156 0.64009 0.08965 0.0
H231 H 0.2951 0.65895 0.1119 0.0
N232 N 0.32656 0.67257 0.15545 0.0
N233 N 0.36069 0.66929 0.19269 0.0
N234 N 0.32268 0.63321 0.19348 0.0
C235 C 0.35074 0.6836 0.16752 0.0
C236 C 0.3468 0.64415 0.20583 0.0
C237 C 0.31243 0.64736 0.16824 0.0
C238 C 0.36612 0.71098 0.15353 0.0
C239 C 0.35136 0.73284 0.1356 0.0
C240 C 0.36581 0.75909 0.12305 0.0
C241 C 0.39555 0.76383 0.12764 0.0
C242 C 0.41033 0.74156 0.14524 0.0
C243 C 0.39574 0.71565 0.15826 0.0
C244 C 0.35801 0.6291 0.23339 0.0
C245 C 0.37493 0.64575 0.2516 0.0
C246 C 0.38615 0.6317 0.27734 0.0
C247 C 0.38117 0.60057 0.28518 0.0
C248 C 0.3643 0.58381 0.26706 0.0
C249 C 0.35253 0.59803 0.24153 0.0
C250 C 0.28607 0.63559 0.15474 0.0
C251 C 0.2663 0.61606 0.17116 0.0
C252 C 0.0595 0.29955 0.54842 0.0
C253 C 0.04185 0.28032 0.56751 0.0
C254 C 0.03378 0.29004 0.59438 0.0
C255 C 0.04462 0.3176 0.6027 0.0
H256 H 0.04393 0.37501 0.66985 0.0
H257 H 0.03738 0.38844 0.71956 0.0
H258 H 0.10918 0.45249 0.70682 0.0
H259 H 0.11586 0.43939 0.65763 0.0
H260 H 0.14753 0.45133 0.59646 0.0
H261 H 0.19656 0.46527 0.5795 0.0
H262 H 0.19837 0.38599 0.53255 0.0
H263 H 0.14928 0.37197 0.54929 0.0
H264 H 0.08463 0.3407 0.54173 0.0
H265 H 0.06564 0.29295 0.52733 0.0
H266 H 0.0203 0.27564 0.60961 0.0
H267 H 0.039 0.3238 0.62407 0.0
N268 N 0.07136 0.37303 0.62029 0.0
N269 N 0.10954 0.40893 0.61475 0.0
N270 N 0.10192 0.37573 0.57923 0.0
C271 C 0.08664 0.39626 0.63048 0.0
C272 C 0.11733 0.39889 0.58916 0.0
C273 C 0.07873 0.36284 0.59446 0.0
C274 C 0.08057 0.4059 0.65971 0.0
C275 C 0.05817 0.39213 0.67758 0.0
C276 C 0.05437 0.39981 0.70602 0.0
C277 C 0.07305 0.42116 0.71714 0.0
C278 C 0.09482 0.4355 0.69902 0.0
C279 C 0.09849 0.42806 0.67068 0.0
C280 C 0.14462 0.41031 0.57457 0.0
C281 C 0.15812 0.43718 0.58203 0.0
C282 C 0.18613 0.4453 0.5722 0.0
C283 C 0.20127 0.42652 0.55499 0.0
C284 C 0.18718 0.40069 0.54603 0.0
C285 C 0.15904 0.39277 0.55554 0.0
C286 C 0.06377 0.33593 0.5843 0.0
C287 C 0.07034 0.32699 0.5567 0.0
Co288 Co 0.99165 0.01333 0.50169 0.0
C289 C 0.01536 0.95589 0.49761 0.0
Co290 Co 0.03376 0.00579 0.52271 0.0
C291 C 0.93129 0.02591 0.49366 0.0
C292 C 0.95104 0.01081 0.45579 0.0
N293 N 0.95656 0.01669 0.4833 0.0
N294 N 0.91034 0.02628 0.47357 0.0
C295 C 0.92266 0.01686 0.44969 0.0
H296 H 0.92849 0.03285 0.51528 0.0
H297 H 0.96671 1.00276 0.44106 0.0
C298 C 1.00965 0.0633 0.52669 0.0
N299 N 0.06953 1.00325 0.54048 0.0
C300 C 0.08454 0.97883 0.55109 0.0
C301 C 0.08722 0.02731 0.5438 0.0
N302 N 0.11056 0.98698 0.5612 0.0
C303 C 0.1122 0.01743 0.55668 0.0
C304 C 0.03836 0.02996 0.46467 0.0
O305 O 0.98896 0.05364 0.51205 0.0
O306 O 0.03042 0.04589 0.53337 0.0
O307 O 0.05267 0.0211 0.48714 0.0
O308 O 1.01094 0.02868 0.4662 0.0
O309 O 0.03628 0.96571 0.51192 0.0
H310 H 0.08288 0.05064 0.53631 0.0
H311 H 0.07686 0.95559 0.55093 0.0
O312 O 0.99428 0.97307 0.4912 0.0
O313 O 0.97282 0.998 0.53757 0.0
O314 O 0.01491 0.99035 0.55816 0.0
C315 C 0.98745 0.989 0.55989 0.0
H316 H 0.91184 0.01433 0.42938 0.0
H317 H 0.13084 0.03147 0.56096 0.0
Co318 Co 0.50493 0.00502 0.99513 0.0
C319 C 0.49578 0.95712 0.03783 0.0
Co320 Co 0.52853 0.0105 0.03558 0.0
C321 C 0.49616 0.99882 0.93451 0.0
C322 C 0.45615 0.99684 0.95826 0.0
N323 N 0.48493 1.0005 0.96132 0.0
N324 N 0.4756 0.99412 0.9149 0.0
C325 C 0.45034 0.99303 0.92968 0.0
H326 H 0.51903 1.00073 0.92946 0.0
H327 H 0.44045 0.99618 0.97578 0.0
C328 C 0.53769 0.05836 0.9928 0.0
N329 N 0.54869 0.01501 0.06929 0.0
C330 C 0.53799 0.0153 0.09652 0.0
C331 C 0.57744 0.01949 0.07179 0.0
N332 N 0.5589 0.01976 0.11586 0.0
C333 C 0.58379 0.02228 0.10042 0.0
C334 C 0.55991 0.98107 0.99521 0.0
O335 O 0.52079 0.0428 0.97828 0.0
O336 O 0.54381 0.04847 0.01875 0.0
O337 O 0.56085 0.99047 0.02029 0.0
O338 O 0.53701 0.98476 0.98052 0.0
O339 O 0.51289 0.97249 0.05233 0.0
H340 H 0.59277 0.02117 0.05387 0.0
H341 H 0.51526 0.01235 0.10206 0.0
O342 O 0.48943 0.96725 1.01201 0.0
O343 O 0.47281 0.02531 1.01024 0.0
O344 O 0.49624 0.03046 0.05042 0.0
C345 C 0.47349 0.0344 0.03546 0.0
H346 H 0.42932 0.98858 0.92074 0.0
H347 H 0.60494 0.02682 0.10905 0.0
Co348 Co 0.53479 0.51148 0.4997 0.0
C349 C 0.48586 0.51715 0.4647 0.0
Co350 Co 0.4945 0.49279 0.52116 0.0
C351 C 0.59553 0.52513 0.48628 0.0
C352 C 0.56701 0.55621 0.46335 0.0
N353 N 0.56726 0.53067 0.48187 0.0
N354 N 0.61291 0.54633 0.47129 0.0
C355 C 0.59489 0.56582 0.4568 0.0
H356 H 0.60315 0.50632 0.50074 0.0
H357 H 0.54777 0.56794 0.45606 0.0
C358 C 0.54317 0.48697 0.55629 0.0
N359 N 0.46197 0.47361 0.53874 0.0
C360 C 0.43386 0.48036 0.53503 0.0
C361 C 0.46165 0.44632 0.55467 0.0
N362 N 0.41618 0.45804 0.54755 0.0
C363 C 0.43354 0.43664 0.55997 0.0
C364 C 0.52633 0.45218 0.49123 0.0
O365 O 0.55613 0.50082 0.53428 0.0
O366 O 0.51626 0.48117 0.55489 0.0
O367 O 0.50367 0.45616 0.5059 0.0
O368 O 0.54439 0.47413 0.48566 0.0
O369 O 0.47296 0.50466 0.48731 0.0
H370 H 0.48064 0.43346 0.56059 0.0
H371 H 0.42649 0.50018 0.52177 0.0
O372 O 0.51302 0.52178 0.4653 0.0
O373 O 0.52492 0.54865 0.51391 0.0
O374 O 0.4856 0.52952 0.53625 0.0
C375 C 0.50282 0.55197 0.52967 0.0
H376 H 0.60125 0.58647 0.44351 0.0
H377 H 0.42637 0.41504 0.57109 0.0
Co378 Co 0.02607 0.50854 0.99179 0.0
C379 C 0.97141 0.48171 0.98997 0.0
Co380 Co 1.00198 0.50711 0.03325 0.0
C381 C 0.0451 0.49056 0.93677 0.0
C382 C 0.06145 0.53471 0.94402 0.0
N383 N 0.04552 0.51097 0.95653 0.0
N384 N 0.05993 0.50068 0.91227 0.0
C385 C 0.07037 0.52845 0.91686 0.0
H386 H 0.03374 0.46884 0.94021 0.0
H387 H 0.06554 0.55562 0.95366 0.0
C388 C 0.05668 0.53388 0.03504 0.0
N389 N 0.98246 0.50442 0.06855 0.0
C390 C 0.98388 0.52367 0.08935 0.0
C391 C 0.96581 0.48083 0.08016 0.0
N392 N 0.969 0.5129 0.11369 0.0
C393 C 0.95751 0.48595 0.10782 0.0
C394 C 0.03634 0.45661 0.02807 0.0
O395 O 0.05746 0.52916 1.00838 0.0
O396 O 0.03426 0.52574 0.05013 0.0
O397 O 0.018 0.46826 0.04402 0.0
O398 O 0.04342 0.47072 1.00359 0.0
O399 O 0.96979 0.48842 0.01601 0.0
H400 H 0.96097 0.46062 0.06963 0.0
H401 H 0.99615 0.54486 0.08682 0.0
O402 O 0.9946 0.48796 0.97553 0.0
O403 O 1.00849 0.54625 0.98016 0.0
O404 O 0.98614 0.54604 0.02223 0.0
C405 C 0.99162 0.55892 0.99682 0.0
H406 H 0.08259 0.54371 0.90128 0.0
H407 H 0.9451 0.47029 0.12285 0.0
H408 H 0.08596 0.08184 0.28281 0.0
H409 H 0.16128 0.10654 0.33025 0.0
H410 H 0.0621 0.06203 0.32822 0.0
H411 H 0.13717 0.08766 0.37592 0.0
H412 H 0.09591 0.02702 0.45146 0.0
H413 H 0.12058 0.04451 0.40585 0.0
H414 H 0.03986 0.07713 0.37001 0.0
H415 H 0.01508 0.05845 0.41523 0.0
C416 C 0.09735 0.08319 0.30303 0.0
C417 C 0.1255 0.09582 0.30291 0.0
C418 C 0.08361 0.07197 0.32916 0.0
C419 C 0.09749 0.07337 0.356 0.0
C420 C 0.12584 0.08571 0.35579 0.0
C421 C 0.13971 0.09663 0.32958 0.0
C422 C 0.08342 0.03791 0.43382 0.0
C423 C 0.05348 0.04127 0.43703 0.0
C424 C 0.09763 0.04815 0.40764 0.0
C425 C 0.08234 0.06231 0.384 0.0
C426 C 0.05238 0.06585 0.38739 0.0
C427 C 0.03813 0.05533 0.41347 0.0
H428 H 0.47311 0.98617 0.72804 0.0
H429 H 0.48753 0.89534 0.76803 0.0
H430 H 0.47897 0.00571 0.77521 0.0
H431 H 0.49428 0.91514 0.81482 0.0
H432 H 0.51991 0.9647 0.89288 0.0
H433 H 0.52492 0.95109 0.84309 0.0
H434 H 0.44565 0.9965 0.82009 0.0
H435 H 0.44071 0.01009 0.86982 0.0
C436 C 0.47796 0.97043 0.74676 0.0
C437 C 0.47938 0.9391 0.74431 0.0
C438 C 0.48139 0.98166 0.77369 0.0
C439 C 0.48677 0.96187 0.79863 0.0
C440 C 0.49034 0.93092 0.79587 0.0
C441 C 0.48657 0.91961 0.76899 0.0
C442 C 0.50387 0.97221 0.87702 0.0
C443 C 0.47985 0.98835 0.88514 0.0
C444 C 0.50666 0.96428 0.84865 0.0
C445 C 0.48571 0.9728 0.82781 0.0
C446 C 0.46228 0.98993 0.83567 0.0
C447 C 0.45928 0.99745 0.86412 0.0
H448 H 0.64864 0.46801 0.71312 0.0
H449 H 0.61026 0.37931 0.70573 0.0
H450 H 0.62583 0.48725 0.66755 0.0
H451 H 0.58726 0.39863 0.66074 0.0
H452 H 0.5223 0.45223 0.60424 0.0
H453 H 0.54801 0.43463 0.64814 0.0
H454 H 0.62572 0.48122 0.61347 0.0
H455 H 0.59984 0.49913 0.56921 0.0
C456 C 0.6356 0.45256 0.7017 0.0
C457 C 0.63098 0.4222 0.71334 0.0
C458 C 0.62253 0.46359 0.67562 0.0
C459 C 0.60449 0.44453 0.66077 0.0
C460 C 0.60055 0.41403 0.672 0.0
C461 C 0.61368 0.403 0.69786 0.0
C462 C 0.54485 0.45884 0.6059 0.0
C463 C 0.55903 0.47703 0.58315 0.0
C464 C 0.55963 0.44858 0.63103 0.0
C465 C 0.58894 0.45635 0.63417 0.0
C466 C 0.60309 0.47499 0.61169 0.0
C467 C 0.58831 0.48511 0.58633 0.0
H468 H 0.95859 0.52906 0.29684 0.0
H469 H 0.97189 0.62215 0.26033 0.0
H470 H 0.96097 0.51253 0.24823 0.0
H471 H 0.97497 0.60534 0.21165 0.0
H472 H 1.00658 0.5542 0.13355 0.0
H473 H 1.00595 0.57324 0.18122 0.0
H474 H 0.92875 0.51939 0.20438 0.0
H475 H 0.92881 0.50088 0.15663 0.0
C476 C 0.96204 0.54602 0.27847 0.0
C477 C 0.96471 0.57699 0.2825 0.0
C478 C 0.96343 0.53651 0.25063 0.0
C479 C 0.96782 0.55769 0.22617 0.0
C480 C 0.97168 0.58852 0.23017 0.0
C481 C 0.97003 0.5981 0.25806 0.0
C482 C 0.98917 0.54674 0.14853 0.0
C483 C 0.96785 0.52573 0.14117 0.0
C484 C 0.98892 0.55762 0.17592 0.0
C485 C 0.96751 0.54751 0.19659 0.0
C486 C 0.94586 0.5271 0.18905 0.0
C487 C 0.94594 0.51646 0.16166 0.0
H488 H 0.31123 0.12433 0.06562 0.0
H489 H 0.3384 0.08822 0.15115 0.0
H490 H 0.3547 0.10552 0.04451 0.0
H491 H 0.38104 0.06783 0.12982 0.0
H492 H 0.469 0.0599 0.08688 0.0
H493 H 0.42649 0.08133 0.10763 0.0
H494 H 0.37674 0.06054 0.03318 0.0
H495 H 0.4195 0.04009 1.01204 0.0
C496 C 0.32645 0.11243 0.08 0.0
C497 C 0.32113 0.10796 0.11021 0.0
C498 C 0.3513 0.10121 0.06778 0.0
C499 C 0.37156 0.085 0.08535 0.0
C500 C 0.36623 0.0805 0.11555 0.0
C501 C 0.34145 0.09186 0.12779 0.0
C502 C 0.44903 0.06007 0.07484 0.0
C503 C 0.44776 0.04831 0.04772 0.0
C504 C 0.42451 0.07216 0.08688 0.0
C505 C 0.39795 0.07267 0.07222 0.0
C506 C 0.3968 0.06104 0.04498 0.0
C507 C 0.42136 0.04912 0.03287 0.0
H508 H 0.28555 0.95854 0.58048 0.0
H509 H 0.25591 0.865 0.59591 0.0
H510 H 0.23587 0.97445 0.57489 0.0
H511 H 0.20581 0.88113 0.58965 0.0
H512 H 0.12628 0.93454 0.54067 0.0
H513 H 0.17263 0.90955 0.54958 0.0
H514 H 0.19413 0.97253 0.61194 0.0
H515 H 0.14813 0.99721 0.60308 0.0
C516 C 0.2684 0.94137 0.58267 0.0
C517 C 0.2746 0.91058 0.58913 0.0
C518 C 0.23998 0.95048 0.57947 0.0
C519 C 0.21708 0.92902 0.58244 0.0
C520 C 0.22317 0.89807 0.5874 0.0
C521 C 0.25177 0.88889 0.59084 0.0
C522 C 0.1406 0.94231 0.55691 0.0
C523 C 0.134 0.96805 0.57089 0.0
C524 C 0.16707 0.92815 0.56191 0.0
C525 C 0.18709 0.93965 0.58093 0.0
C526 C 0.1793 0.9637 0.59668 0.0
C527 C 0.15302 0.97774 0.59171 0.0
H528 H 0.80315 0.4519 0.91613 0.0
H529 H 0.8499 0.37261 0.8983 0.0
H530 H 0.84554 0.47107 0.94035 0.0
H531 H 0.8923 0.39175 0.92263 0.0
H532 H 0.97022 0.4566 0.93835 0.0
H533 H 0.92829 0.43613 0.91446 0.0
H534 H 0.87379 0.45563 0.98615 0.0
H535 H 0.91569 0.47599 1.0102 0.0
C536 C 0.82256 0.43869 0.91723 0.0
C537 C 0.82326 0.41079 0.9053 0.0
C538 C 0.84671 0.44951 0.93132 0.0
C539 C 0.87217 0.43285 0.93345 0.0
C540 C 0.873 0.40513 0.92119 0.0
C541 C 0.84872 0.39411 0.90743 0.0
C542 C 0.94932 0.45638 0.9491 0.0
C543 C 0.94627 0.46795 0.97617 0.0
C544 C 0.92536 0.44455 0.93546 0.0
C545 C 0.89778 0.44441 0.9484 0.0
C546 C 0.89475 0.45575 0.97555 0.0
C547 C 0.91877 0.46722 0.98938 0.0
H548 H 0.80002 0.53431 0.48798 0.0
H549 H 0.78192 0.62878 0.46453 0.0
H550 H 0.74806 0.52224 0.49023 0.0
H551 H 0.73032 0.61677 0.46718 0.0
H552 H 0.64808 0.5769 0.43073 0.0
H553 H 0.69962 0.58692 0.43431 0.0
H554 H 0.70068 0.53293 0.51743 0.0
H555 H 0.64859 0.52341 0.51434 0.0
C556 C 0.78497 0.55252 0.48376 0.0
C557 C 0.79506 0.58248 0.47597 0.0
C558 C 0.75529 0.54563 0.48519 0.0
C559 C 0.73525 0.56853 0.47852 0.0
C560 C 0.74534 0.59863 0.47206 0.0
C561 C 0.77489 0.60554 0.47088 0.0
C562 C 0.6591 0.56732 0.44993 0.0
C563 C 0.64396 0.5497 0.47242 0.0
C564 C 0.68869 0.57306 0.45194 0.0
C565 C 0.70403 0.56109 0.47635 0.0
C566 C 0.68931 0.54245 0.49838 0.0
C567 C 0.6595 0.5369 0.49651 0.0
H568 H 0.07808 0.27612 0.10826 0.0
H569 H 0.16064 0.31876 0.08314 0.0
H570 H 0.05362 0.3208 0.08658 0.0
H571 H 0.13606 0.36341 0.06116 0.0
H572 H 0.08028 0.42807 1.0024 0.0
H573 H 0.1041 0.38153 0.02104 0.0
H574 H 0.04766 0.3734 0.09646 0.0
H575 H 0.0237 0.41957 0.07777 0.0
C576 C 0.09107 0.29506 0.09823 0.0
C577 C 0.12141 0.29383 0.09772 0.0
C578 C 0.077 0.3207 0.08574 0.0
C579 C 0.09285 0.34581 0.07225 0.0
C580 C 0.12315 0.34435 0.07109 0.0
C581 C 0.13726 0.31871 0.08369 0.0
C582 C 0.07283 0.41624 0.02287 0.0
C583 C 0.05005 0.4276 0.03857 0.0
C584 C 0.08662 0.38966 0.03364 0.0
C585 C 0.07783 0.3737 0.06027 0.0
C586 C 0.05478 0.38487 0.07572 0.0
C587 C 0.04111 0.41148 0.06505 0.0
H588 H 0.59124 0.24589 0.93953 0.0
H589 H 0.64867 0.19141 0.89376 0.0
H590 H 0.56651 0.19964 0.96201 0.0
H591 H 0.62356 0.14522 0.91575 0.0
H592 H 0.54519 0.07657 0.93498 0.0
H593 H 0.56913 0.12328 0.91288 0.0
H594 H 0.58358 0.15201 0.99812 0.0
H595 H 0.56025 0.10502 0.02038 0.0
C596 C 0.59846 0.224 0.93426 0.0
C597 C 0.62183 0.22208 0.91502 0.0
C598 C 0.58443 0.19765 0.94715 0.0
C599 C 0.59315 0.169 0.94049 0.0
C600 C 0.61637 0.1671 0.92107 0.0
C601 C 0.63079 0.19341 0.90867 0.0
C602 C 0.55336 0.09292 0.94899 0.0
C603 C 0.55089 0.08718 0.9794 0.0
C604 C 0.56716 0.1195 0.93635 0.0
C605 C 0.57816 0.1411 0.95385 0.0
C606 C 0.57515 0.1357 0.9842 0.0
C607 C 0.56191 0.10882 0.99689 0.0
H608 H 0.99048 0.79194 0.41106 0.0
H609 H 1.00094 0.76082 0.50193 0.0
H610 H 1.00216 0.84371 0.4212 0.0
H611 H 1.01195 0.81287 0.51219 0.0
H612 H 0.05073 0.90898 0.51577 0.0
H613 H 0.04746 0.85667 0.50302 0.0
H614 H 0.97525 0.88021 0.4474 0.0
H615 H 0.97853 0.93213 0.45988 0.0
C616 C 0.99573 0.79606 0.43312 0.0
C617 C 0.99463 0.77228 0.45572 0.0
C618 C 1.00215 0.82577 0.43897 0.0
C619 C 1.00773 0.8324 0.46752 0.0
C620 C 1.00789 0.80846 0.48994 0.0
C621 C 1.00131 0.77871 0.48411 0.0
C622 C 0.03434 0.90299 0.50063 0.0
C623 C 0.01483 0.92466 0.48891 0.0
C624 C 0.03239 0.87304 0.49346 0.0
C625 C 1.01114 0.86437 0.47417 0.0
C626 C 0.9921 0.88626 0.46201 0.0
C627 C 0.99387 0.916 0.46935 0.0
H628 H 0.46458 0.70439 0.62785 0.0
H629 H 0.47414 0.74257 0.53841 0.0
H630 H 0.47609 0.65432 0.61361 0.0
H631 H 0.48521 0.69257 0.52412 0.0
H632 H 0.53275 0.60504 0.51485 0.0
H633 H 0.52396 0.65454 0.53122 0.0
H634 H 0.45208 0.61622 0.58399 0.0
H635 H 0.46093 0.56642 0.56776 0.0
C636 C 0.46943 0.70209 0.60522 0.0
C637 C 0.46848 0.72728 0.58421 0.0
C638 C 0.47571 0.67345 0.59705 0.0
C639 C 0.48143 0.66959 0.56777 0.0
C640 C 0.48108 0.69493 0.54688 0.0
C641 C 0.47457 0.72347 0.55501 0.0
C642 C 0.5151 0.60709 0.53 0.0
C643 C 0.49747 0.58182 0.53996 0.0
C644 C 0.51002 0.63548 0.53927 0.0
C645 C 0.48733 0.6392 0.55881 0.0
C646 C 0.46991 0.6139 0.56911 0.0
C647 C 0.47485 0.58547 0.55968 0.0
H648 H 0.88283 0.96138 0.71934 0.0
H649 H 0.92887 0.87801 0.71649 0.0
H650 H 0.90527 0.98131 0.67307 0.0
H651 H 0.95181 0.89839 0.67085 0.0
H652 H 1.0116 0.95932 0.60819 0.0
H653 H 0.98769 0.9395 0.65368 0.0
H654 H 0.90611 0.97174 0.62013 0.0
H655 H 0.93002 0.99158 0.57444 0.0
C656 C 0.89752 0.94716 0.70886 0.0
C657 C 0.90406 0.91805 0.72199 0.0
C658 C 0.91046 0.95867 0.68232 0.0
C659 C 0.93048 0.94153 0.66834 0.0
C660 C 0.93686 0.91241 0.68128 0.0
C661 C 0.92374 0.90077 0.7076 0.0
C662 C 0.98857 0.96222 0.61046 0.0
C663 C 0.97275 0.97703 0.5876 0.0
C664 C 0.97483 0.9507 0.63651 0.0
C665 C 0.94497 0.95398 0.64054 0.0
C666 C 0.92917 0.96904 0.6178 0.0
C667 C 0.94286 0.98026 0.59157 0.0
H668 H 0.56438 0.01366 0.30427 0.0
H669 H 0.54472 0.10568 0.27146 0.0
H670 H 0.56034 0.99834 0.25518 0.0
H671 H 0.53977 0.08999 0.22274 0.0
H672 H 0.51428 0.04563 0.14131 0.0
H673 H 0.51028 0.05545 0.19236 0.0
H674 H 0.59179 0.01232 0.2099 0.0
H675 H 0.59569 1.00246 0.15897 0.0
C676 C 0.55897 0.03057 0.28671 0.0
C677 C 0.55521 0.061 0.29184 0.0
C678 C 0.55654 0.02173 0.25865 0.0
C679 C 0.5499 0.04302 0.23521 0.0
C680 C 0.54463 0.07305 0.2405 0.0
C681 C 0.54738 0.08199 0.26848 0.0
C682 C 0.53106 0.03783 0.15622 0.0
C683 C 0.55537 0.0234 0.14624 0.0
C684 C 0.52887 0.04362 0.18532 0.0
C685 C 0.55072 0.03464 0.20502 0.0
C686 C 0.5745 0.01925 0.19523 0.0
C687 C 0.57688 0.01386 0.16608 0.0
H688 H 0.41419 0.55022 0.29041 0.0
H689 H 0.37791 0.61781 0.34001 0.0
H690 H 0.43876 0.52794 0.33401 0.0
H691 H 0.4021 0.59532 0.38364 0.0
H692 H 0.42774 0.52531 0.46021 0.0
H693 H 0.40089 0.5436 0.41681 0.0
H694 H 0.47982 0.54894 0.36601 0.0
H695 H 0.50684 0.53116 0.40943 0.0
C696 C 0.41119 0.56001 0.31074 0.0
C697 C 0.39423 0.58571 0.31193 0.0
C698 C 0.42535 0.54742 0.33556 0.0
C699 C 0.4223 0.55996 0.36211 0.0
C700 C 0.40465 0.58512 0.36347 0.0
C701 C 0.39095 0.59804 0.33855 0.0
C702 C 0.43934 0.53023 0.43976 0.0
C703 C 0.46941 0.52687 0.43823 0.0
C704 C 0.42398 0.54079 0.41499 0.0
C705 C 0.43831 0.54762 0.38813 0.0
C706 C 0.46824 0.5436 0.38644 0.0
C707 C 0.4837 0.53358 0.4113 0.0
H708 H 0.0241 0.43384 0.74682 0.0
H709 H 0.11623 0.42482 0.75623 0.0
H710 H 0.02095 0.45052 0.79556 0.0
H711 H 0.11314 0.44089 0.80498 0.0
H712 H 0.10224 0.50953 0.87131 0.0
H713 H 0.10471 0.48769 0.82526 0.0
H714 H 0.02592 0.43593 0.84737 0.0
H715 H 0.02276 0.4589 0.89298 0.0
C716 C 0.04357 0.43495 0.75952 0.0
C717 C 0.07044 0.42844 0.74764 0.0
C718 C 0.0418 0.44444 0.78744 0.0
C719 C 0.06686 0.44738 0.80405 0.0
C720 C 0.09352 0.43956 0.79253 0.0
C721 C 0.0953 0.43029 0.76464 0.0
C722 C 0.08537 0.49362 0.86634 0.0
C723 C 0.06227 0.48612 0.88585 0.0
C724 C 0.08696 0.48077 0.84005 0.0
C725 C 0.06554 0.45998 0.83262 0.0
C726 C 0.04264 0.45208 0.85231 0.0
C727 C 0.04103 0.46498 0.87864 0.0
H728 H 0.6826 0.86854 0.91244 0.0
H729 H 0.7303 0.95119 0.92425 0.0
H730 H 0.6401 0.88817 0.93537 0.0
H731 H 0.68778 0.97085 0.94711 0.0
H732 H 0.61547 0.98008 0.01524 0.0
H733 H 0.65783 0.95933 0.9931 0.0
H734 H 0.60462 0.93006 0.9245 0.0
H735 H 0.5623 0.95093 0.94644 0.0
C736 C 0.68403 0.89087 0.91999 0.0
C737 C 0.70984 0.90831 0.91649 0.0
C738 C 0.65962 0.90219 0.93296 0.0
C739 C 0.66056 0.93105 0.94312 0.0
C740 C 0.68642 0.94843 0.93974 0.0
C741 C 0.71069 0.93728 0.92641 0.0
C742 C 0.61276 0.96907 0.99552 0.0
C743 C 0.58545 0.96716 0.98266 0.0
C744 C 0.63708 0.95737 0.98274 0.0
C745 C 0.63462 0.94309 0.957 0.0
C746 C 0.60722 0.9407 0.94444 0.0
C747 C 0.58298 0.95276 0.95698 0.0
H748 H 0.72583 0.02689 0.49461 0.0
H749 H 0.74917 0.11972 0.46407 0.0
H750 H 0.77717 0.01483 0.49834 0.0
H751 H 0.80021 0.10765 0.46778 0.0
H752 H 0.87887 0.05747 0.43262 0.0
H753 H 0.8286 0.07202 0.43681 0.0
H754 H 0.82514 0.03022 0.52537 0.0
H755 H 0.87581 0.01583 0.52118 0.0
C756 C 0.74193 0.04475 0.48916 0.0
C757 C 0.73358 0.0742 0.47903 0.0
C758 C 0.77119 0.03792 0.49144 0.0
C759 C 0.79248 0.06032 0.48317 0.0
C760 C 0.78413 0.08999 0.47414 0.0
C761 C 0.75497 0.09691 0.47224 0.0
C762 C 0.86736 0.05144 0.45296 0.0
C763 C 0.88106 0.0355 0.47655 0.0
C764 C 0.83875 0.05996 0.45544 0.0
C765 C 0.82316 0.05229 0.48145 0.0
C766 C 0.83679 0.03634 0.50512 0.0
C767 C 0.86568 0.02829 0.50278 0.0
H768 H 0.23136 0.58816 0.07792 0.0
H769 H 0.18004 0.61447 0.14909 0.0
H770 H 0.18795 0.56953 0.05543 0.0
H771 H 0.1363 0.5971 0.12615 0.0
H772 H 0.06722 0.5346 0.09298 0.0
H773 H 0.11019 0.55383 0.11559 0.0
H774 H 0.14598 0.58418 0.03053 0.0
H775 H 0.10353 0.56353 1.00799 0.0
C776 C 0.21068 0.59023 0.08857 0.0
C777 C 0.20905 0.60269 0.11525 0.0
C778 C 0.18571 0.57973 0.07561 0.0
C779 C 0.15842 0.58185 0.08883 0.0
C780 C 0.15689 0.59454 0.11552 0.0
C781 C 0.18193 0.60462 0.12867 0.0
C782 C 0.08424 0.54548 0.07912 0.0
C783 C 0.08202 0.54742 0.04869 0.0
C784 C 0.10888 0.5567 0.0921 0.0
C785 C 0.13178 0.57057 0.07498 0.0
C786 C 0.12916 0.5731 0.04449 0.0
C787 C 0.10469 0.56148 0.03151 0.0
H788 H 0.24359 0.38585 0.56483 0.0
H789 H 0.22951 0.47939 0.5337 0.0
H790 H 0.29535 0.39473 0.56062 0.0
H791 H 0.2817 0.48827 0.52796 0.0
H792 H 0.3768 0.50033 0.55563 0.0
H793 H 0.32417 0.49365 0.55456 0.0
H794 H 0.33443 0.40305 0.52935 0.0
H795 H 0.38661 0.40946 0.53234 0.0
C796 C 0.25166 0.40818 0.55634 0.0
C797 C 0.23259 0.43187 0.54939 0.0
C798 C 0.28142 0.41333 0.55379 0.0
C799 C 0.29294 0.44223 0.54374 0.0
C800 C 0.27372 0.46584 0.53617 0.0
C801 C 0.24383 0.46076 0.53922 0.0
C802 C 0.36753 0.47914 0.54981 0.0
C803 C 0.38546 0.45521 0.54458 0.0
C804 C 0.33745 0.47529 0.54896 0.0
C805 C 0.32486 0.4476 0.54224 0.0
C806 C 0.34316 0.42432 0.53553 0.0
C807 C 0.37306 0.42797 0.53707 0.0
H808 H 0.87789 0.68941 0.90759 0.0
H809 H 0.9368 0.74513 0.95225 0.0
H810 H 0.90219 0.6438 0.9285 0.0
H811 H 0.96064 0.69937 0.97381 0.0
H812 H 0.96813 0.60168 0.02845 0.0
H813 H 0.94366 0.64813 1.00965 0.0
H814 H 0.9575 0.62612 0.92189 0.0
H815 H 0.98259 0.58036 0.94042 0.0
C816 C 0.89581 0.69183 0.92215 0.0
C817 C 0.90551 0.72074 0.9283 0.0
C818 C 0.90975 0.6658 0.93399 0.0
C819 C 0.93324 0.66814 0.95275 0.0
C820 C 0.94249 0.69699 0.95952 0.0
C821 C 0.92897 0.72309 0.94712 0.0
C822 C 0.96607 0.60688 1.00515 0.0
C823 C 0.97737 0.58741 0.98592 0.0
C824 C 0.95215 0.63344 0.99444 0.0
C825 C 0.94862 0.64055 0.96435 0.0
C826 C 0.9598 0.62104 0.94518 0.0
C827 C 0.97428 0.59496 0.95581 0.0
H828 H 0.38588 0.79618 0.07471 0.0
H829 H 0.44048 0.79546 0.1502 0.0
H830 H 0.40983 0.84267 0.05391 0.0
H831 H 0.46632 0.84025 0.12808 0.0
H832 H 0.48778 0.93852 0.0955 0.0
H833 H 0.46357 0.89216 0.11709 0.0
H834 H 0.45146 0.86326 0.03126 0.0
H835 H 0.47406 0.91052 1.00982 0.0
C836 C 0.40303 0.80581 0.08692 0.0
C837 C 0.41102 0.79188 0.1143 0.0
C838 C 0.41723 0.83231 0.07466 0.0
C839 C 0.44024 0.8454 0.08914 0.0
C840 C 0.44846 0.83127 0.11637 0.0
C841 C 0.4339 0.80509 0.12888 0.0
C842 C 0.47998 0.92216 0.08132 0.0
C843 C 0.4827 0.92816 0.051 0.0
C844 C 0.46622 0.89542 0.09368 0.0
C845 C 0.45538 0.87374 0.07601 0.0
C846 C 0.45882 0.87959 0.04563 0.0
C847 C 0.47202 0.90661 0.03328 0.0
H848 H 0.98964 0.24921 0.57476 0.0
H849 H 0.07746 0.24072 0.54492 0.0
H850 H 0.97914 0.19638 0.56573 0.0
H851 H 0.06689 0.18865 0.53558 0.0
H852 H 0.05056 0.08867 0.55908 0.0
H853 H 0.0558 0.14125 0.56891 0.0
H854 H 0.977 0.16239 0.52279 0.0
H855 H 0.97158 0.10921 0.51274 0.0
C856 C 1.00659 0.23616 0.56614 0.0
C857 C 0.03436 0.24913 0.56049 0.0
C858 C 1.00053 0.20608 0.5608 0.0
C859 C 0.02227 0.18842 0.55018 0.0
C860 C 0.0498 0.20162 0.54409 0.0
C861 C 0.05576 0.23158 0.54915 0.0
C862 C 0.03419 0.10436 0.55108 0.0
C863 C 1.01083 0.09478 0.53477 0.0
C864 C 0.03728 0.13454 0.55668 0.0
C865 C 0.01704 0.15596 0.54625 0.0
C866 C 0.99291 0.14629 0.53107 0.0
C867 C 0.98988 0.11592 0.52527 0.0
H868 H 0.57098 0.29156 0.40578 0.0
H869 H 0.54337 0.25953 0.49329 0.0
H870 H 0.5613 0.34375 0.41539 0.0
H871 H 0.53429 0.31147 0.50304 0.0
H872 H 0.49142 0.40192 0.50068 0.0
H873 H 0.49994 0.35136 0.48719 0.0
H874 H 0.58112 0.38276 0.44679 0.0
H875 H 0.57248 0.43394 0.46008 0.0
C876 C 0.56266 0.29568 0.42696 0.0
C877 C 0.55788 0.27153 0.4488 0.0
C878 C 0.55743 0.32551 0.43254 0.0
C879 C 0.54704 0.33163 0.45994 0.0
C880 C 0.54203 0.30741 0.48162 0.0
C881 C 0.54742 0.27771 0.47612 0.0
C882 C 0.51107 0.39821 0.4888 0.0
C883 C 0.5314 0.42194 0.48162 0.0
C884 C 0.51598 0.36916 0.48119 0.0
C885 C 0.54129 0.36307 0.46618 0.0
C886 C 0.56133 0.3869 0.45824 0.0
C887 C 0.55646 0.41611 0.46597 0.0
loop_
_geom_bond_atom_site_label_1
_geom_bond_atom_site_label_2
_geom_bond_distance
_geom_bond_site_symmetry_2
_ccdc_geom_bond_type
C0 C1 1.384 . S
C0 H13 0.947 . S
C0 C35 1.382 . S
C1 C0 1.384 . S
C1 C2 1.378 . S
C2 C1 1.378 . S
C2 C3 1.378 . S
C2 H14 0.952 . S
C3 C2 1.378 . S
C3 H15 0.950 . S
C3 C34 1.383 . S
H4 C23 0.947 . S
H5 C24 0.946 . S
H6 C26 0.953 . S
H7 C27 0.945 . S
H8 C29 0.952 . S
H9 C30 0.949 . S
H10 C32 0.950 . S
H11 C33 0.948 . S
H12 C35 0.951 . S
H13 C0 0.947 . S
H14 C2 0.952 . S
H15 C3 0.950 . S
N16 C19 1.382 . S
N16 C21 1.363 . S
N17 C19 1.371 . S
N17 C20 1.372 . S
N18 C20 1.361 . S
N18 C21 1.377 . S
C19 N16 1.382 . S
C19 N17 1.371 . S
C19 C22 1.480 . S
C20 N17 1.372 . S
C20 N18 1.361 . S
C20 C28 1.457 . S
C21 N16 1.363 . S
C21 N18 1.377 . S
C21 C34 1.479 . S
C22 C19 1.480 . S
C22 C23 1.383 . S
C22 C27 1.385 . S
C23 H4 0.947 . S
C23 C22 1.383 . S
C23 C24 1.388 . S
C24 H5 0.946 . S
C24 C23 1.388 . S
C24 C25 1.384 . S
C25 C24 1.384 . S
C25 C26 1.377 . S
C26 H6 0.953 . S
C26 C25 1.377 . S
C26 C27 1.369 . S
C27 H7 0.945 . S
C27 C22 1.385 . S
C27 C26 1.369 . S
C28 C20 1.457 . S
C28 C29 1.372 . S
C28 C33 1.364 . S
C29 H8 0.952 . S
C29 C28 1.372 . S
C29 C30 1.389 . S
C30 H9 0.949 . S
C30 C29 1.389 . S
C30 C31 1.387 . S
C31 C30 1.387 . S
C31 C32 1.372 . S
C32 H10 0.950 . S
C32 C31 1.372 . S
C32 C33 1.379 . S
C33 H11 0.948 . S
C33 C28 1.364 . S
C33 C32 1.379 . S
C34 C3 1.383 . S
C34 C21 1.479 . S
C34 C35 1.398 . S
C35 C0 1.382 . S
C35 H12 0.951 . S
C35 C34 1.398 . S
C36 C37 1.384 . S
C36 H49 0.947 . S
C36 C71 1.382 . S
C37 C36 1.384 . S
C37 C38 1.378 . S
C38 C37 1.378 . S
C38 C39 1.378 . S
C38 H50 0.952 . S
C39 C38 1.378 . S
C39 H51 0.950 . S
C39 C70 1.383 . S
H40 C59 0.947 . S
H41 C60 0.946 . S
H42 C62 0.953 . S
H43 C63 0.945 . S
H44 C65 0.952 . S
H45 C66 0.949 . S
H46 C68 0.950 . S
H47 C69 0.948 . S
H48 C71 0.951 . S
H49 C36 0.947 . S
H50 C38 0.952 . S
H51 C39 0.950 . S
N52 C55 1.382 . S
N52 C57 1.363 . S
N53 C55 1.371 . S
N53 C56 1.372 . S
N54 C56 1.361 . S
N54 C57 1.377 . S
C55 N52 1.382 . S
C55 N53 1.371 . S
C55 C58 1.480 . S
C56 N53 1.372 . S
C56 N54 1.361 . S
C56 C64 1.457 . S
C57 N52 1.363 . S
C57 N54 1.377 . S
C57 C70 1.479 . S
C58 C55 1.480 . S
C58 C59 1.383 . S
C58 C63 1.385 . S
C59 H40 0.947 . S
C59 C58 1.383 . S
C59 C60 1.388 . S
C60 H41 0.946 . S
C60 C59 1.388 . S
C60 C61 1.384 . S
C61 C60 1.384 . S
C61 C62 1.377 . S
C62 H42 0.953 . S
C62 C61 1.377 . S
C62 C63 1.369 . S
C63 H43 0.945 . S
C63 C58 1.385 . S
C63 C62 1.369 . S
C64 C56 1.457 . S
C64 C65 1.372 . S
C64 C69 1.364 . S
C65 H44 0.952 . S
C65 C64 1.372 . S
C65 C66 1.389 . S
C66 H45 0.949 . S
C66 C65 1.389 . S
C66 C67 1.387 . S
C67 C66 1.387 . S
C67 C68 1.372 . S
C68 H46 0.950 . S
C68 C67 1.372 . S
C68 C69 1.379 . S
C69 H47 0.948 . S
C69 C64 1.364 . S
C69 C68 1.379 . S
C70 C39 1.383 . S
C70 C57 1.479 . S
C70 C71 1.398 . S
C71 C36 1.382 . S
C71 H48 0.951 . S
C71 C70 1.398 . S
C72 C73 1.384 . S
C72 H85 0.947 . S
C72 C107 1.382 . S
C73 C72 1.384 . S
C73 C74 1.378 . S
C74 C73 1.378 . S
C74 C75 1.378 . S
C74 H86 0.952 . S
C75 C74 1.378 . S
C75 H87 0.950 . S
C75 C106 1.383 . S
H76 C95 0.947 . S
H77 C96 0.946 . S
H78 C98 0.953 . S
H79 C99 0.945 . S
H80 C101 0.952 . S
H81 C102 0.949 . S
H82 C104 0.950 . S
H83 C105 0.948 . S
H84 C107 0.951 . S
H85 C72 0.947 . S
H86 C74 0.952 . S
H87 C75 0.950 . S
N88 C91 1.382 . S
N88 C93 1.363 . S
N89 C91 1.371 . S
N89 C92 1.372 . S
N90 C92 1.361 . S
N90 C93 1.377 . S
C91 N88 1.382 . S
C91 N89 1.371 . S
C91 C94 1.480 . S
C92 N89 1.372 . S
C92 N90 1.361 . S
C92 C100 1.457 . S
C93 N88 1.363 . S
C93 N90 1.377 . S
C93 C106 1.479 . S
C94 C91 1.480 . S
C94 C95 1.383 . S
C94 C99 1.385 . S
C95 H76 0.947 . S
C95 C94 1.383 . S
C95 C96 1.388 . S
C96 H77 0.946 . S
C96 C95 1.388 . S
C96 C97 1.384 . S
C97 C96 1.384 . S
C97 C98 1.377 . S
C98 H78 0.953 . S
C98 C97 1.377 . S
C98 C99 1.369 . S
C99 H79 0.945 . S
C99 C94 1.385 . S
C99 C98 1.369 . S
C100 C92 1.457 . S
C100 C101 1.372 . S
C100 C105 1.364 . S
C101 H80 0.952 . S
C101 C100 1.372 . S
C101 C102 1.389 . S
C102 H81 0.949 . S
C102 C101 1.389 . S
C102 C103 1.387 . S
C103 C102 1.387 . S
C103 C104 1.372 . S
C104 H82 0.950 . S
C104 C103 1.372 . S
C104 C105 1.379 . S
C105 H83 0.948 . S
C105 C100 1.364 . S
C105 C104 1.379 . S
C106 C75 1.383 . S
C106 C93 1.479 . S
C106 C107 1.398 . S
C107 C72 1.382 . S
C107 H84 0.951 . S
C107 C106 1.398 . S
C108 C109 1.384 . S
C108 H121 0.947 . S
C108 C143 1.382 . S
C109 C108 1.384 . S
C109 C110 1.378 . S
C110 C109 1.378 . S
C110 C111 1.378 . S
C110 H122 0.952 . S
C111 C110 1.378 . S
C111 H123 0.950 . S
C111 C142 1.383 . S
H112 C131 0.947 . S
H113 C132 0.946 . S
H114 C134 0.953 . S
H115 C135 0.945 . S
H116 C137 0.952 . S
H117 C138 0.949 . S
H118 C140 0.950 . S
H119 C141 0.948 . S
H120 C143 0.951 . S
H121 C108 0.947 . S
H122 C110 0.952 . S
H123 C111 0.950 . S
N124 C127 1.382 . S
N124 C129 1.363 . S
N125 C127 1.371 . S
N125 C128 1.372 . S
N126 C128 1.361 . S
N126 C129 1.377 . S
C127 N124 1.382 . S
C127 N125 1.371 . S
C127 C130 1.480 . S
C128 N125 1.372 . S
C128 N126 1.361 . S
C128 C136 1.457 . S
C129 N124 1.363 . S
C129 N126 1.377 . S
C129 C142 1.479 . S
C130 C127 1.480 . S
C130 C131 1.383 . S
C130 C135 1.385 . S
C131 H112 0.947 . S
C131 C130 1.383 . S
C131 C132 1.388 . S
C132 H113 0.946 . S
C132 C131 1.388 . S
C132 C133 1.384 . S
C133 C132 1.384 . S
C133 C134 1.377 . S
C134 H114 0.953 . S
C134 C133 1.377 . S
C134 C135 1.369 . S
C135 H115 0.945 . S
C135 C130 1.385 . S
C135 C134 1.369 . S
C136 C128 1.457 . S
C136 C137 1.372 . S
C136 C141 1.364 . S
C137 H116 0.952 . S
C137 C136 1.372 . S
C137 C138 1.389 . S
C138 H117 0.949 . S
C138 C137 1.389 . S
C138 C139 1.387 . S
C139 C138 1.387 . S
C139 C140 1.372 . S
C140 H118 0.950 . S
C140 C139 1.372 . S
C140 C141 1.379 . S
C141 H119 0.948 . S
C141 C136 1.364 . S
C141 C140 1.379 . S
C142 C111 1.383 . S
C142 C129 1.479 . S
C142 C143 1.398 . S
C143 C108 1.382 . S
C143 H120 0.951 . S
C143 C142 1.398 . S
C144 C145 1.384 . S
C144 H157 0.947 . S
C144 C179 1.382 . S
C145 C144 1.384 . S
C145 C146 1.378 . S
C146 C145 1.378 . S
C146 C147 1.378 . S
C146 H158 0.952 . S
C147 C146 1.378 . S
C147 H159 0.950 . S
C147 C178 1.383 . S
H148 C167 0.947 . S
H149 C168 0.946 . S
H150 C170 0.953 . S
H151 C171 0.945 . S
H152 C173 0.952 . S
H153 C174 0.949 . S
H154 C176 0.950 . S
H155 C177 0.948 . S
H156 C179 0.951 . S
H157 C144 0.947 . S
H158 C146 0.952 . S
H159 C147 0.950 . S
N160 C163 1.382 . S
N160 C165 1.363 . S
N161 C163 1.371 . S
N161 C164 1.372 . S
N162 C164 1.361 . S
N162 C165 1.377 . S
C163 N160 1.382 . S
C163 N161 1.371 . S
C163 C166 1.480 . S
C164 N161 1.372 . S
C164 N162 1.361 . S
C164 C172 1.457 . S
C165 N160 1.363 . S
C165 N162 1.377 . S
C165 C178 1.479 . S
C166 C163 1.480 . S
C166 C167 1.383 . S
C166 C171 1.385 . S
C167 H148 0.947 . S
C167 C166 1.383 . S
C167 C168 1.388 . S
C168 H149 0.946 . S
C168 C167 1.388 . S
C168 C169 1.384 . S
C169 C168 1.384 . S
C169 C170 1.377 . S
C170 H150 0.953 . S
C170 C169 1.377 . S
C170 C171 1.369 . S
C171 H151 0.945 . S
C171 C166 1.385 . S
C171 C170 1.369 . S
C172 C164 1.457 . S
C172 C173 1.372 . S
C172 C177 1.364 . S
C173 H152 0.952 . S
C173 C172 1.372 . S
C173 C174 1.389 . S
C174 H153 0.949 . S
C174 C173 1.389 . S
C174 C175 1.387 . S
C175 C174 1.387 . S
C175 C176 1.372 . S
C176 H154 0.950 . S
C176 C175 1.372 . S
C176 C177 1.379 . S
C177 H155 0.948 . S
C177 C172 1.364 . S
C177 C176 1.379 . S
C178 C147 1.383 . S
C178 C165 1.479 . S
C178 C179 1.398 . S
C179 C144 1.382 . S
C179 H156 0.951 . S
C179 C178 1.398 . S
C180 C181 1.384 . S
C180 H193 0.947 . S
C180 C215 1.382 . S
C181 C180 1.384 . S
C181 C182 1.378 . S
C182 C181 1.378 . S
C182 C183 1.378 . S
C182 H194 0.952 . S
C183 C182 1.378 . S
C183 H195 0.950 . S
C183 C214 1.383 . S
H184 C203 0.947 . S
H185 C204 0.946 . S
H186 C206 0.953 . S
H187 C207 0.945 . S
H188 C209 0.952 . S
H189 C210 0.949 . S
H190 C212 0.950 . S
H191 C213 0.948 . S
H192 C215 0.951 . S
H193 C180 0.947 . S
H194 C182 0.952 . S
H195 C183 0.950 . S
N196 C199 1.382 . S
N196 C201 1.363 . S
N197 C199 1.371 . S
N197 C200 1.372 . S
N198 C200 1.361 . S
N198 C201 1.377 . S
C199 N196 1.382 . S
C199 N197 1.371 . S
C199 C202 1.480 . S
C200 N197 1.372 . S
C200 N198 1.361 . S
C200 C208 1.457 . S
C201 N196 1.363 . S
C201 N198 1.377 . S
C201 C214 1.479 . S
C202 C199 1.480 . S
C202 C203 1.383 . S
C202 C207 1.385 . S
C203 H184 0.947 . S
C203 C202 1.383 . S
C203 C204 1.388 . S
C204 H185 0.946 . S
C204 C203 1.388 . S
C204 C205 1.384 . S
C205 C204 1.384 . S
C205 C206 1.377 . S
C206 H186 0.953 . S
C206 C205 1.377 . S
C206 C207 1.369 . S
C207 H187 0.945 . S
C207 C202 1.385 . S
C207 C206 1.369 . S
C208 C200 1.457 . S
C208 C209 1.372 . S
C208 C213 1.364 . S
C209 H188 0.952 . S
C209 C208 1.372 . S
C209 C210 1.389 . S
C210 H189 0.949 . S
C210 C209 1.389 . S
C210 C211 1.387 . S
C211 C210 1.387 . S
C211 C212 1.372 . S
C212 H190 0.950 . S
C212 C211 1.372 . S
C212 C213 1.379 . S
C213 H191 0.948 . S
C213 C208 1.364 . S
C213 C212 1.379 . S
C214 C183 1.383 . S
C214 C201 1.479 . S
C214 C215 1.398 . S
C215 C180 1.382 . S
C215 H192 0.951 . S
C215 C214 1.398 . S
C216 C217 1.384 . S
C216 H229 0.947 . S
C216 C251 1.382 . S
C217 C216 1.384 . S
C217 C218 1.378 . S
C218 C217 1.378 . S
C218 C219 1.378 . S
C218 H230 0.952 . S
C219 C218 1.378 . S
C219 H231 0.950 . S
C219 C250 1.383 . S
H220 C239 0.947 . S
H221 C240 0.946 . S
H222 C242 0.953 . S
H223 C243 0.945 . S
H224 C245 0.952 . S
H225 C246 0.949 . S
H226 C248 0.950 . S
H227 C249 0.948 . S
H228 C251 0.951 . S
H229 C216 0.947 . S
H230 C218 0.952 . S
H231 C219 0.950 . S
N232 C235 1.382 . S
N232 C237 1.363 . S
N233 C235 1.371 . S
N233 C236 1.372 . S
N234 C236 1.361 . S
N234 C237 1.377 . S
C235 N232 1.382 . S
C235 N233 1.371 . S
C235 C238 1.480 . S
C236 N233 1.372 . S
C236 N234 1.361 . S
C236 C244 1.457 . S
C237 N232 1.363 . S
C237 N234 1.377 . S
C237 C250 1.479 . S
C238 C235 1.480 . S
C238 C239 1.383 . S
C238 C243 1.385 . S
C239 H220 0.947 . S
C239 C238 1.383 . S
C239 C240 1.388 . S
C240 H221 0.946 . S
C240 C239 1.388 . S
C240 C241 1.384 . S
C241 C240 1.384 . S
C241 C242 1.377 . S
C242 H222 0.953 . S
C242 C241 1.377 . S
C242 C243 1.369 . S
C243 H223 0.945 . S
C243 C238 1.385 . S
C243 C242 1.369 . S
C244 C236 1.457 . S
C244 C245 1.372 . S
C244 C249 1.364 . S
C245 H224 0.952 . S
C245 C244 1.372 . S
C245 C246 1.389 . S
C246 H225 0.949 . S
C246 C245 1.389 . S
C246 C247 1.387 . S
C247 C246 1.387 . S
C247 C248 1.372 . S
C248 H226 0.950 . S
C248 C247 1.372 . S
C248 C249 1.379 . S
C249 H227 0.948 . S
C249 C244 1.364 . S
C249 C248 1.379 . S
C250 C219 1.383 . S
C250 C237 1.479 . S
C250 C251 1.398 . S
C251 C216 1.382 . S
C251 H228 0.951 . S
C251 C250 1.398 . S
C252 C253 1.384 . S
C252 H265 0.947 . S
C252 C287 1.382 . S
C253 C252 1.384 . S
C253 C254 1.378 . S
C254 C253 1.378 . S
C254 C255 1.378 . S
C254 H266 0.952 . S
C255 C254 1.378 . S
C255 H267 0.950 . S
C255 C286 1.383 . S
H256 C275 0.947 . S
H257 C276 0.946 . S
H258 C278 0.953 . S
H259 C279 0.945 . S
H260 C281 0.952 . S
H261 C282 0.949 . S
H262 C284 0.950 . S
H263 C285 0.948 . S
H264 C287 0.951 . S
H265 C252 0.947 . S
H266 C254 0.952 . S
H267 C255 0.950 . S
N268 C271 1.382 . S
N268 C273 1.363 . S
N269 C271 1.371 . S
N269 C272 1.372 . S
N270 C272 1.361 . S
N270 C273 1.377 . S
C271 N268 1.382 . S
C271 N269 1.371 . S
C271 C274 1.480 . S
C272 N269 1.372 . S
C272 N270 1.361 . S
C272 C280 1.457 . S
C273 N268 1.363 . S
C273 N270 1.377 . S
C273 C286 1.479 . S
C274 C271 1.480 . S
C274 C275 1.383 . S
C274 C279 1.385 . S
C275 H256 0.947 . S
C275 C274 1.383 . S
C275 C276 1.388 . S
C276 H257 0.946 . S
C276 C275 1.388 . S
C276 C277 1.384 . S
C277 C276 1.384 . S
C277 C278 1.377 . S
C278 H258 0.953 . S
C278 C277 1.377 . S
C278 C279 1.369 . S
C279 H259 0.945 . S
C279 C274 1.385 . S
C279 C278 1.369 . S
C280 C272 1.457 . S
C280 C281 1.372 . S
C280 C285 1.364 . S
C281 H260 0.952 . S
C281 C280 1.372 . S
C281 C282 1.389 . S
C282 H261 0.949 . S
C282 C281 1.389 . S
C282 C283 1.387 . S
C283 C282 1.387 . S
C283 C284 1.372 . S
C284 H262 0.950 . S
C284 C283 1.372 . S
C284 C285 1.379 . S
C285 H263 0.948 . S
C285 C280 1.364 . S
C285 C284 1.379 . S
C286 C255 1.383 . S
C286 C273 1.479 . S
C286 C287 1.398 . S
C287 C252 1.382 . S
C287 H264 0.951 . S
C287 C286 1.398 . S
Co288 N293 2.057 . S
Co288 O305 2.021 . S
Co288 O308 2.062 . S
Co288 O312 2.117 1_545 S
Co288 O313 2.020 1_545 S
C289 O309 1.259 1_655 S
C289 O312 1.258 . S
Co290 N299 2.057 . S
Co290 O306 2.117 1_565 S
Co290 O307 2.020 1_565 S
Co290 O309 2.021 . S
Co290 O314 2.062 . S
C291 N293 1.316 . S
C291 N294 1.347 . S
C291 H296 0.931 . S
C292 N293 1.375 1_565 S
C292 C295 1.350 1_565 S
C292 H297 0.930 . S
N293 Co288 2.057 . S
N293 C291 1.316 . S
N293 C292 1.375 1_545 S
N294 C291 1.347 . S
N294 C295 1.373 . S
C295 C292 1.350 1_545 S
C295 N294 1.373 . S
C295 H316 0.931 1_545 S
H296 C291 0.931 . S
H297 C292 0.930 . S
C298 O305 1.259 1_455 S
C298 O306 1.258 . S
N299 Co290 2.057 . S
N299 C300 1.316 . S
N299 C301 1.375 1_565 S
C300 N299 1.316 . S
C300 N302 1.347 . S
C300 H311 0.931 . S
C301 N299 1.375 1_545 S
C301 C303 1.350 1_545 S
C301 H310 0.930 . S
N302 C300 1.347 . S
N302 C303 1.373 . S
C303 C301 1.350 1_565 S
C303 N302 1.373 . S
C303 H317 0.931 1_565 S
C304 O307 1.256 . S
C304 O308 1.255 1_455 S
O305 Co288 2.021 . S
O305 C298 1.259 1_655 S
O306 Co290 2.117 1_545 S
O306 C298 1.258 . S
O307 Co290 2.020 1_545 S
O307 C304 1.256 . S
O308 Co288 2.062 . S
O308 C304 1.255 1_655 S
O309 C289 1.259 1_455 S
O309 Co290 2.021 . S
H310 C301 0.930 . S
H311 C300 0.931 . S
O312 Co288 2.117 1_565 S
O312 C289 1.258 . S
O313 Co288 2.020 1_565 S
O313 C315 1.256 . S
O314 Co290 2.062 . S
O314 C315 1.255 1_455 S
C315 O313 1.256 . S
C315 O314 1.255 1_655 S
H316 C295 0.931 1_565 S
H317 C303 0.931 1_545 S
Co318 N323 2.057 . S
Co318 O335 2.021 1_565 S
Co318 O338 2.062 . S
Co318 O342 2.117 . S
Co318 O343 2.020 1_565 S
C319 O339 1.259 . S
C319 O342 1.258 1_554 S
Co320 N329 2.057 . S
Co320 O336 2.117 . S
Co320 O337 2.020 1_545 S
Co320 O339 2.021 1_545 S
Co320 O344 2.062 . S
C321 N323 1.316 . S
C321 N324 1.347 . S
C321 H326 0.931 1_565 S
C322 N323 1.375 . S
C322 C325 1.350 . S
C322 H327 0.930 . S
N323 Co318 2.057 . S
N323 C321 1.316 . S
N323 C322 1.375 . S
N324 C321 1.347 . S
N324 C325 1.373 . S
C325 C322 1.350 . S
C325 N324 1.373 . S
C325 H346 0.931 . S
H326 C321 0.931 1_545 S
H327 C322 0.930 . S
C328 O335 1.259 . S
C328 O336 1.258 1_556 S
N329 Co320 2.057 . S
N329 C330 1.316 . S
N329 C331 1.375 . S
C330 N329 1.316 . S
C330 N332 1.347 . S
C330 H341 0.931 1_545 S
C331 N329 1.375 . S
C331 C333 1.350 . S
C331 H340 0.930 . S
N332 C330 1.347 . S
N332 C333 1.373 . S
C333 C331 1.350 . S
C333 N332 1.373 . S
C333 H347 0.931 . S
C334 O337 1.256 1_556 S
C334 O338 1.255 . S
O335 Co318 2.021 1_545 S
O335 C328 1.259 . S
O336 Co320 2.117 . S
O336 C328 1.258 1_554 S
O337 Co320 2.020 1_565 S
O337 C334 1.256 1_554 S
O338 Co318 2.062 . S
O338 C334 1.255 . S
O339 C319 1.259 . S
O339 Co320 2.021 1_565 S
H340 C331 0.930 . S
H341 C330 0.931 1_565 S
O342 Co318 2.117 . S
O342 C319 1.258 1_556 S
O343 Co318 2.020 1_545 S
O343 C345 1.256 1_556 S
O344 Co320 2.062 . S
O344 C345 1.255 . S
C345 O343 1.256 1_554 S
C345 O344 1.255 . S
H346 C325 0.931 . S
H347 C333 0.931 . S
Co348 N353 2.057 . S
Co348 O365 2.021 . S
Co348 O368 2.062 . S
Co348 O372 2.117 . S
Co348 O373 2.020 . S
C349 O369 1.259 . S
C349 O372 1.258 . S
Co350 N359 2.057 . S
Co350 O366 2.117 . S
Co350 O367 2.020 . S
Co350 O369 2.021 . S
Co350 O374 2.062 . S
C351 N353 1.316 . S
C351 N354 1.347 . S
C351 H356 0.931 . S
C352 N353 1.375 . S
C352 C355 1.350 . S
C352 H357 0.930 . S
N353 Co348 2.057 . S
N353 C351 1.316 . S
N353 C352 1.375 . S
N354 C351 1.347 . S
N354 C355 1.373 . S
C355 C352 1.350 . S
C355 N354 1.373 . S
C355 H376 0.931 . S
H356 C351 0.931 . S
H357 C352 0.930 . S
C358 O365 1.259 . S
C358 O366 1.258 . S
N359 Co350 2.057 . S
N359 C360 1.316 . S
N359 C361 1.375 . S
C360 N359 1.316 . S
C360 N362 1.347 . S
C360 H371 0.931 . S
C361 N359 1.375 . S
C361 C363 1.350 . S
C361 H370 0.930 . S
N362 C360 1.347 . S
N362 C363 1.373 . S
C363 C361 1.350 . S
C363 N362 1.373 . S
C363 H377 0.931 . S
C364 O367 1.256 . S
C364 O368 1.255 . S
O365 Co348 2.021 . S
O365 C358 1.259 . S
O366 Co350 2.117 . S
O366 C358 1.258 . S
O367 Co350 2.020 . S
O367 C364 1.256 . S
O368 Co348 2.062 . S
O368 C364 1.255 . S
O369 C349 1.259 . S
O369 Co350 2.021 . S
H370 C361 0.930 . S
H371 C360 0.931 . S
O372 Co348 2.117 . S
O372 C349 1.258 . S
O373 Co348 2.020 . S
O373 C375 1.256 . S
O374 Co350 2.062 . S
O374 C375 1.255 . S
C375 O373 1.256 . S
C375 O374 1.255 . S
H376 C355 0.931 . S
H377 C363 0.931 . S
Co378 N383 2.057 . S
Co378 O395 2.021 . S
Co378 O398 2.062 . S
Co378 O402 2.117 1_455 S
Co378 O403 2.020 1_455 S
C379 O399 1.259 1_556 S
C379 O402 1.258 . S
Co380 N389 2.057 . S
Co380 O396 2.117 1_655 S
Co380 O397 2.020 1_655 S
Co380 O399 2.021 . S
Co380 O404 2.062 . S
C381 N383 1.316 . S
C381 N384 1.347 . S
C381 H386 0.931 . S
C382 N383 1.375 1_655 S
C382 C385 1.350 1_655 S
C382 H387 0.930 . S
N383 Co378 2.057 . S
N383 C381 1.316 . S
N383 C382 1.375 1_455 S
N384 C381 1.347 . S
N384 C385 1.373 . S
C385 C382 1.350 1_455 S
C385 N384 1.373 . S
C385 H406 0.931 1_455 S
H386 C381 0.931 . S
H387 C382 0.930 . S
C388 O395 1.259 1_554 S
C388 O396 1.258 . S
N389 Co380 2.057 . S
N389 C390 1.316 . S
N389 C391 1.375 1_655 S
C390 N389 1.316 . S
C390 N392 1.347 . S
C390 H401 0.931 . S
C391 N389 1.375 1_455 S
C391 C393 1.350 1_455 S
C391 H400 0.930 . S
N392 C390 1.347 . S
N392 C393 1.373 . S
C393 C391 1.350 1_655 S
C393 N392 1.373 . S
C393 H407 0.931 1_655 S
C394 O397 1.256 . S
C394 O398 1.255 1_554 S
O395 Co378 2.021 . S
O395 C388 1.259 1_556 S
O396 Co380 2.117 1_455 S
O396 C388 1.258 . S
O397 Co380 2.020 1_455 S
O397 C394 1.256 . S
O398 Co378 2.062 . S
O398 C394 1.255 1_556 S
O399 C379 1.259 1_554 S
O399 Co380 2.021 . S
H400 C391 0.930 . S
H401 C390 0.931 . S
O402 Co378 2.117 1_655 S
O402 C379 1.258 . S
O403 Co378 2.020 1_655 S
O403 C405 1.256 . S
O404 Co380 2.062 . S
O404 C405 1.255 1_554 S
C405 O403 1.256 . S
C405 O404 1.255 1_556 S
H406 C385 0.931 1_655 S
H407 C393 0.931 1_455 S
H408 C416 0.950 . S
H409 C421 0.950 . S
H410 C418 0.950 . S
H411 C420 0.950 . S
H412 C422 0.950 . S
H413 C424 0.950 . S
H414 C426 0.950 . S
H415 C427 0.947 1_665 S
C416 H408 0.950 . S
C416 C417 1.386 . S
C416 C418 1.391 . S
C417 C416 1.386 . S
C417 C421 1.393 . S
C418 H410 0.950 . S
C418 C416 1.391 . S
C418 C419 1.400 . S
C419 C418 1.400 . S
C419 C420 1.398 . S
C419 C425 1.491 . S
C420 H411 0.950 . S
C420 C419 1.398 . S
C420 C421 1.391 . S
C421 H409 0.950 . S
C421 C417 1.393 . S
C421 C420 1.391 . S
C422 H412 0.950 . S
C422 C423 1.386 . S
C422 C424 1.391 . S
C423 C422 1.386 . S
C423 C427 1.393 . S
C424 H413 0.950 . S
C424 C422 1.391 . S
C424 C425 1.400 . S
C425 C419 1.491 . S
C425 C424 1.400 . S
C425 C426 1.398 . S
C426 H414 0.950 . S
C426 C425 1.398 . S
C426 C427 1.391 . S
C427 H415 0.947 1_445 S
C427 C423 1.393 . S
C427 C426 1.391 . S
H428 C436 0.950 . S
H429 C441 0.950 . S
H430 C438 0.950 . S
H431 C440 0.950 . S
H432 C442 0.950 . S
H433 C444 0.950 . S
H434 C446 0.950 . S
H435 C447 0.950 1_545 S
C436 H428 0.950 . S
C436 C437 1.386 . S
C436 C438 1.391 . S
C437 C436 1.386 . S
C437 C441 1.393 . S
C438 H430 0.950 . S
C438 C436 1.391 . S
C438 C439 1.400 . S
C439 C438 1.400 . S
C439 C440 1.398 . S
C439 C445 1.491 . S
C440 H431 0.950 . S
C440 C439 1.398 . S
C440 C441 1.391 . S
C441 H429 0.950 . S
C441 C437 1.393 . S
C441 C440 1.391 . S
C442 H432 0.950 . S
C442 C443 1.386 . S
C442 C444 1.391 . S
C443 C442 1.386 . S
C443 C447 1.393 . S
C444 H433 0.950 . S
C444 C442 1.391 . S
C444 C445 1.400 . S
C445 C439 1.491 . S
C445 C444 1.400 . S
C445 C446 1.398 . S
C446 H434 0.950 . S
C446 C445 1.398 . S
C446 C447 1.391 . S
C447 H435 0.950 1_565 S
C447 C443 1.393 . S
C447 C446 1.391 . S
H448 C456 0.950 . S
H449 C461 0.950 . S
H450 C458 0.950 . S
H451 C460 0.950 . S
H452 C462 0.950 . S
H453 C464 0.950 . S
H454 C466 0.950 . S
H455 C467 0.950 . S
C456 H448 0.950 . S
C456 C457 1.386 . S
C456 C458 1.391 . S
C457 C456 1.386 . S
C457 C461 1.393 . S
C458 H450 0.950 . S
C458 C456 1.391 . S
C458 C459 1.400 . S
C459 C458 1.400 . S
C459 C460 1.398 . S
C459 C465 1.491 . S
C460 H451 0.950 . S
C460 C459 1.398 . S
C460 C461 1.391 . S
C461 H449 0.950 . S
C461 C457 1.393 . S
C461 C460 1.391 . S
C462 H452 0.950 . S
C462 C463 1.386 . S
C462 C464 1.391 . S
C463 C462 1.386 . S
C463 C467 1.393 . S
C464 H453 0.950 . S
C464 C462 1.391 . S
C464 C465 1.400 . S
C465 C459 1.491 . S
C465 C464 1.400 . S
C465 C466 1.398 . S
C466 H454 0.950 . S
C466 C465 1.398 . S
C466 C467 1.391 . S
C467 H455 0.950 . S
C467 C463 1.393 . S
C467 C466 1.391 . S
H468 C476 0.950 . S
H469 C481 0.950 . S
H470 C478 0.950 . S
H471 C480 0.950 . S
H472 C482 0.950 . S
H473 C484 0.950 . S
H474 C486 0.950 . S
H475 C487 0.950 . S
C476 H468 0.950 . S
C476 C477 1.386 . S
C476 C478 1.391 . S
C477 C476 1.386 . S
C477 C481 1.393 . S
C478 H470 0.950 . S
C478 C476 1.391 . S
C478 C479 1.400 . S
C479 C478 1.400 . S
C479 C480 1.398 . S
C479 C485 1.491 . S
C480 H471 0.950 . S
C480 C479 1.398 . S
C480 C481 1.391 . S
C481 H469 0.950 . S
C481 C477 1.393 . S
C481 C480 1.391 . S
C482 H472 0.950 . S
C482 C483 1.386 . S
C482 C484 1.391 . S
C483 C482 1.386 . S
C483 C487 1.393 . S
C484 H473 0.950 . S
C484 C482 1.391 . S
C484 C485 1.400 . S
C485 C479 1.491 . S
C485 C484 1.400 . S
C485 C486 1.398 . S
C486 H474 0.950 . S
C486 C485 1.398 . S
C486 C487 1.391 . S
C487 H475 0.950 . S
C487 C483 1.393 . S
C487 C486 1.391 . S
H488 C496 0.950 . S
H489 C501 0.950 . S
H490 C498 0.950 . S
H491 C500 0.950 . S
H492 C502 0.942 1_565 S
H493 C504 0.950 . S
H494 C506 0.950 . S
H495 C507 0.950 1_556 S
C496 H488 0.950 . S
C496 C497 1.386 . S
C496 C498 1.391 . S
C497 C496 1.386 . S
C497 C501 1.393 . S
C498 H490 0.950 . S
C498 C496 1.391 . S
C498 C499 1.400 . S
C499 C498 1.400 . S
C499 C500 1.398 . S
C499 C505 1.491 . S
C500 H491 0.950 . S
C500 C499 1.398 . S
C500 C501 1.391 . S
C501 H489 0.950 . S
C501 C497 1.393 . S
C501 C500 1.391 . S
C502 H492 0.942 1_545 S
C502 C503 1.386 . S
C502 C504 1.391 . S
C503 C502 1.386 . S
C503 C507 1.393 . S
C504 H493 0.950 . S
C504 C502 1.391 . S
C504 C505 1.400 . S
C505 C499 1.491 . S
C505 C504 1.400 . S
C505 C506 1.398 . S
C506 H494 0.950 . S
C506 C505 1.398 . S
C506 C507 1.391 . S
C507 H495 0.950 1_554 S
C507 C503 1.393 . S
C507 C506 1.391 . S
H508 C516 0.950 . S
H509 C521 0.950 . S
H510 C518 0.950 . S
H511 C520 0.950 . S
H512 C522 0.950 . S
H513 C524 0.950 . S
H514 C526 0.950 . S
H515 C527 0.950 . S
C516 H508 0.950 . S
C516 C517 1.386 . S
C516 C518 1.391 . S
C517 C516 1.386 . S
C517 C521 1.393 . S
C518 H510 0.950 . S
C518 C516 1.391 . S
C518 C519 1.400 . S
C519 C518 1.400 . S
C519 C520 1.398 . S
C519 C525 1.491 . S
C520 H511 0.950 . S
C520 C519 1.398 . S
C520 C521 1.391 . S
C521 H509 0.950 . S
C521 C517 1.393 . S
C521 C520 1.391 . S
C522 H512 0.950 . S
C522 C523 1.386 . S
C522 C524 1.391 . S
C523 C522 1.386 . S
C523 C527 1.393 . S
C524 H513 0.950 . S
C524 C522 1.391 . S
C524 C525 1.400 . S
C525 C519 1.491 . S
C525 C524 1.400 . S
C525 C526 1.398 . S
C526 H514 0.950 . S
C526 C525 1.398 . S
C526 C527 1.391 . S
C527 H515 0.950 . S
C527 C523 1.393 . S
C527 C526 1.391 . S
H528 C536 0.950 . S
H529 C541 0.950 . S
H530 C538 0.950 . S
H531 C540 0.950 . S
H532 C542 0.950 . S
H533 C544 0.950 . S
H534 C546 0.950 . S
H535 C547 0.950 . S
C536 H528 0.950 . S
C536 C537 1.386 . S
C536 C538 1.391 . S
C537 C536 1.386 . S
C537 C541 1.393 . S
C538 H530 0.950 . S
C538 C536 1.391 . S
C538 C539 1.400 . S
C539 C538 1.400 . S
C539 C540 1.398 . S
C539 C545 1.491 . S
C540 H531 0.950 . S
C540 C539 1.398 . S
C540 C541 1.391 . S
C541 H529 0.950 . S
C541 C537 1.393 . S
C541 C540 1.391 . S
C542 H532 0.950 . S
C542 C543 1.386 . S
C542 C544 1.391 . S
C543 C542 1.386 . S
C543 C547 1.393 . S
C544 H533 0.950 . S
C544 C542 1.391 . S
C544 C545 1.400 . S
C545 C539 1.491 . S
C545 C544 1.400 . S
C545 C546 1.398 . S
C546 H534 0.950 . S
C546 C545 1.398 . S
C546 C547 1.391 . S
C547 H535 0.950 . S
C547 C543 1.393 . S
C547 C546 1.391 . S
H548 C556 0.950 . S
H549 C561 0.950 . S
H550 C558 0.950 . S
H551 C560 0.950 . S
H552 C562 0.950 . S
H553 C564 0.950 . S
H554 C566 0.950 . S
H555 C567 0.950 . S
C556 H548 0.950 . S
C556 C557 1.386 . S
C556 C558 1.391 . S
C557 C556 1.386 . S
C557 C561 1.393 . S
C558 H550 0.950 . S
C558 C556 1.391 . S
C558 C559 1.400 . S
C559 C558 1.400 . S
C559 C560 1.398 . S
C559 C565 1.491 . S
C560 H551 0.950 . S
C560 C559 1.398 . S
C560 C561 1.391 . S
C561 H549 0.950 . S
C561 C557 1.393 . S
C561 C560 1.391 . S
C562 H552 0.950 . S
C562 C563 1.386 . S
C562 C564 1.391 . S
C563 C562 1.386 . S
C563 C567 1.393 . S
C564 H553 0.950 . S
C564 C562 1.391 . S
C564 C565 1.400 . S
C565 C559 1.491 . S
C565 C564 1.400 . S
C565 C566 1.398 . S
C566 H554 0.950 . S
C566 C565 1.398 . S
C566 C567 1.391 . S
C567 H555 0.950 . S
C567 C563 1.393 . S
C567 C566 1.391 . S
H568 C576 0.950 . S
H569 C581 0.950 . S
H570 C578 0.950 . S
H571 C580 0.950 . S
H572 C582 0.950 . S
H573 C584 0.950 . S
H574 C586 0.950 . S
H575 C587 0.950 1_655 S
C576 H568 0.950 . S
C576 C577 1.386 . S
C576 C578 1.391 . S
C577 C576 1.386 . S
C577 C581 1.393 . S
C578 H570 0.950 . S
C578 C576 1.391 . S
C578 C579 1.400 . S
C579 C578 1.400 . S
C579 C580 1.398 . S
C579 C585 1.491 . S
C580 H571 0.950 . S
C580 C579 1.398 . S
C580 C581 1.391 . S
C581 H569 0.950 . S
C581 C577 1.393 . S
C581 C580 1.391 . S
C582 H572 0.950 . S
C582 C583 1.386 . S
C582 C584 1.391 . S
C583 C582 1.386 . S
C583 C587 1.393 . S
C584 H573 0.950 . S
C584 C582 1.391 . S
C584 C585 1.400 . S
C585 C579 1.491 . S
C585 C584 1.400 . S
C585 C586 1.398 . S
C586 H574 0.950 . S
C586 C585 1.398 . S
C586 C587 1.391 . S
C587 H575 0.950 1_455 S
C587 C583 1.393 . S
C587 C586 1.391 . S
H588 C596 0.950 . S
H589 C601 0.950 . S
H590 C598 0.950 . S
H591 C600 0.950 . S
H592 C602 0.950 . S
H593 C604 0.950 . S
H594 C606 0.950 . S
H595 C607 0.950 . S
C596 H588 0.950 . S
C596 C597 1.386 . S
C596 C598 1.391 . S
C597 C596 1.386 . S
C597 C601 1.393 . S
C598 H590 0.950 . S
C598 C596 1.391 . S
C598 C599 1.400 . S
C599 C598 1.400 . S
C599 C600 1.398 . S
C599 C605 1.491 . S
C600 H591 0.950 . S
C600 C599 1.398 . S
C600 C601 1.391 . S
C601 H589 0.950 . S
C601 C597 1.393 . S
C601 C600 1.391 . S
C602 H592 0.950 . S
C602 C603 1.386 . S
C602 C604 1.391 . S
C603 C602 1.386 . S
C603 C607 1.393 . S
C604 H593 0.950 . S
C604 C602 1.391 . S
C604 C605 1.400 . S
C605 C599 1.491 . S
C605 C604 1.400 . S
C605 C606 1.398 . S
C606 H594 0.950 . S
C606 C605 1.398 . S
C606 C607 1.391 . S
C607 H595 0.950 . S
C607 C603 1.393 . S
C607 C606 1.391 . S
H608 C616 0.950 . S
H609 C621 0.950 . S
H610 C618 0.950 . S
H611 C620 0.950 . S
H612 C622 0.950 1_455 S
H613 C624 0.950 . S
H614 C626 0.950 . S
H615 C627 0.950 . S
C616 H608 0.950 . S
C616 C617 1.386 . S
C616 C618 1.391 . S
C617 C616 1.386 . S
C617 C621 1.393 . S
C618 H610 0.950 . S
C618 C616 1.391 . S
C618 C619 1.400 . S
C619 C618 1.400 . S
C619 C620 1.398 . S
C619 C625 1.491 . S
C620 H611 0.950 . S
C620 C619 1.398 . S
C620 C621 1.391 . S
C621 H609 0.950 . S
C621 C617 1.393 . S
C621 C620 1.391 . S
C622 H612 0.950 1_655 S
C622 C623 1.386 . S
C622 C624 1.391 . S
C623 C622 1.386 . S
C623 C627 1.393 . S
C624 H613 0.950 . S
C624 C622 1.391 . S
C624 C625 1.400 . S
C625 C619 1.491 . S
C625 C624 1.400 . S
C625 C626 1.398 . S
C626 H614 0.950 . S
C626 C625 1.398 . S
C626 C627 1.391 . S
C627 H615 0.950 . S
C627 C623 1.393 . S
C627 C626 1.391 . S
H628 C636 0.950 . S
H629 C641 0.950 . S
H630 C638 0.950 . S
H631 C640 0.950 . S
H632 C642 0.950 . S
H633 C644 0.950 . S
H634 C646 0.950 . S
H635 C647 0.950 . S
C636 H628 0.950 . S
C636 C637 1.386 . S
C636 C638 1.391 . S
C637 C636 1.386 . S
C637 C641 1.393 . S
C638 H630 0.950 . S
C638 C636 1.391 . S
C638 C639 1.400 . S
C639 C638 1.400 . S
C639 C640 1.398 . S
C639 C645 1.491 . S
C640 H631 0.950 . S
C640 C639 1.398 . S
C640 C641 1.391 . S
C641 H629 0.950 . S
C641 C637 1.393 . S
C641 C640 1.391 . S
C642 H632 0.950 . S
C642 C643 1.386 . S
C642 C644 1.391 . S
C643 C642 1.386 . S
C643 C647 1.393 . S
C644 H633 0.950 . S
C644 C642 1.391 . S
C644 C645 1.400 . S
C645 C639 1.491 . S
C645 C644 1.400 . S
C645 C646 1.398 . S
C646 H634 0.950 . S
C646 C645 1.398 . S
C646 C647 1.391 . S
C647 H635 0.950 . S
C647 C643 1.393 . S
C647 C646 1.391 . S
H648 C656 0.950 . S
H649 C661 0.950 . S
H650 C658 0.950 . S
H651 C660 0.950 . S
H652 C662 0.950 . S
H653 C664 0.950 . S
H654 C666 0.950 1_545 S
H655 C667 0.950 1_545 S
C656 H648 0.950 . S
C656 C657 1.386 . S
C656 C658 1.391 . S
C657 C656 1.386 . S
C657 C661 1.393 . S
C658 H650 0.950 . S
C658 C656 1.391 . S
C658 C659 1.400 . S
C659 C658 1.400 . S
C659 C660 1.398 . S
C659 C665 1.491 . S
C660 H651 0.950 . S
C660 C659 1.398 . S
C660 C661 1.391 . S
C661 H649 0.950 . S
C661 C657 1.393 . S
C661 C660 1.391 . S
C662 H652 0.950 . S
C662 C663 1.386 . S
C662 C664 1.391 . S
C663 C662 1.386 . S
C663 C667 1.393 . S
C664 H653 0.950 . S
C664 C662 1.391 . S
C664 C665 1.400 . S
C665 C659 1.491 . S
C665 C664 1.400 . S
C665 C666 1.398 . S
C666 H654 0.950 1_565 S
C666 C665 1.398 . S
C666 C667 1.391 . S
C667 H655 0.950 1_565 S
C667 C663 1.393 . S
C667 C666 1.391 . S
H668 C676 0.950 . S
H669 C681 0.950 . S
H670 C678 0.950 . S
H671 C680 0.950 . S
H672 C682 0.950 . S
H673 C684 0.950 . S
H674 C686 0.950 . S
H675 C687 0.950 1_565 S
C676 H668 0.950 . S
C676 C677 1.386 . S
C676 C678 1.391 . S
C677 C676 1.386 . S
C677 C681 1.393 . S
C678 H670 0.950 . S
C678 C676 1.391 . S
C678 C679 1.400 . S
C679 C678 1.400 . S
C679 C680 1.398 . S
C679 C685 1.491 . S
C680 H671 0.950 . S
C680 C679 1.398 . S
C680 C681 1.391 . S
C681 H669 0.950 . S
C681 C677 1.393 . S
C681 C680 1.391 . S
C682 H672 0.950 . S
C682 C683 1.386 . S
C682 C684 1.391 . S
C683 C682 1.386 . S
C683 C687 1.393 . S
C684 H673 0.950 . S
C684 C682 1.391 . S
C684 C685 1.400 . S
C685 C679 1.491 . S
C685 C684 1.400 . S
C685 C686 1.398 . S
C686 H674 0.950 . S
C686 C685 1.398 . S
C686 C687 1.391 . S
C687 H675 0.950 1_545 S
C687 C683 1.393 . S
C687 C686 1.391 . S
H688 C696 0.950 . S
H689 C701 0.950 . S
H690 C698 0.950 . S
H691 C700 0.950 . S
H692 C702 0.950 . S
H693 C704 0.950 . S
H694 C706 0.950 . S
H695 C707 0.950 . S
C696 H688 0.950 . S
C696 C697 1.386 . S
C696 C698 1.391 . S
C697 C696 1.386 . S
C697 C701 1.393 . S
C698 H690 0.950 . S
C698 C696 1.391 . S
C698 C699 1.400 . S
C699 C698 1.400 . S
C699 C700 1.398 . S
C699 C705 1.491 . S
C700 H691 0.950 . S
C700 C699 1.398 . S
C700 C701 1.391 . S
C701 H689 0.950 . S
C701 C697 1.393 . S
C701 C700 1.391 . S
C702 H692 0.950 . S
C702 C703 1.386 . S
C702 C704 1.391 . S
C703 C702 1.386 . S
C703 C707 1.393 . S
C704 H693 0.950 . S
C704 C702 1.391 . S
C704 C705 1.400 . S
C705 C699 1.491 . S
C705 C704 1.400 . S
C705 C706 1.398 . S
C706 H694 0.950 . S
C706 C705 1.398 . S
C706 C707 1.391 . S
C707 H695 0.950 . S
C707 C703 1.393 . S
C707 C706 1.391 . S
H708 C716 0.950 . S
H709 C721 0.950 . S
H710 C718 0.950 . S
H711 C720 0.950 . S
H712 C722 0.950 . S
H713 C724 0.950 . S
H714 C726 0.950 . S
H715 C727 0.950 . S
C716 H708 0.950 . S
C716 C717 1.386 . S
C716 C718 1.391 . S
C717 C716 1.386 . S
C717 C721 1.393 . S
C718 H710 0.950 . S
C718 C716 1.391 . S
C718 C719 1.400 . S
C719 C718 1.400 . S
C719 C720 1.398 . S
C719 C725 1.491 . S
C720 H711 0.950 . S
C720 C719 1.398 . S
C720 C721 1.391 . S
C721 H709 0.950 . S
C721 C717 1.393 . S
C721 C720 1.391 . S
C722 H712 0.950 . S
C722 C723 1.386 . S
C722 C724 1.391 . S
C723 C722 1.386 . S
C723 C727 1.393 . S
C724 H713 0.950 . S
C724 C722 1.391 . S
C724 C725 1.400 . S
C725 C719 1.491 . S
C725 C724 1.400 . S
C725 C726 1.398 . S
C726 H714 0.950 . S
C726 C725 1.398 . S
C726 C727 1.391 . S
C727 H715 0.950 . S
C727 C723 1.393 . S
C727 C726 1.391 . S
H728 C736 0.950 . S
H729 C741 0.950 . S
H730 C738 0.950 . S
H731 C740 0.950 . S
H732 C742 0.950 1_545 S
H733 C744 0.954 . S
H734 C746 0.950 . S
H735 C747 0.950 . S
C736 H728 0.950 . S
C736 C737 1.386 . S
C736 C738 1.391 . S
C737 C736 1.386 . S
C737 C741 1.393 . S
C738 H730 0.950 . S
C738 C736 1.391 . S
C738 C739 1.400 . S
C739 C738 1.400 . S
C739 C740 1.398 . S
C739 C745 1.491 . S
C740 H731 0.950 . S
C740 C739 1.398 . S
C740 C741 1.391 . S
C741 H729 0.950 . S
C741 C737 1.393 . S
C741 C740 1.391 . S
C742 H732 0.950 1_565 S
C742 C743 1.386 . S
C742 C744 1.391 . S
C743 C742 1.386 . S
C743 C747 1.393 . S
C744 H733 0.954 . S
C744 C742 1.391 . S
C744 C745 1.400 . S
C745 C739 1.491 . S
C745 C744 1.400 . S
C745 C746 1.398 . S
C746 H734 0.950 . S
C746 C745 1.398 . S
C746 C747 1.391 . S
C747 H735 0.950 . S
C747 C743 1.393 . S
C747 C746 1.391 . S
H748 C756 0.950 . S
H749 C761 0.950 . S
H750 C758 0.950 . S
H751 C760 0.950 . S
H752 C762 0.950 . S
H753 C764 0.950 . S
H754 C766 0.950 . S
H755 C767 0.950 . S
C756 H748 0.950 . S
C756 C757 1.386 . S
C756 C758 1.391 . S
C757 C756 1.386 . S
C757 C761 1.393 . S
C758 H750 0.950 . S
C758 C756 1.391 . S
C758 C759 1.400 . S
C759 C758 1.400 . S
C759 C760 1.398 . S
C759 C765 1.491 . S
C760 H751 0.950 . S
C760 C759 1.398 . S
C760 C761 1.391 . S
C761 H749 0.950 . S
C761 C757 1.393 . S
C761 C760 1.391 . S
C762 H752 0.950 . S
C762 C763 1.386 . S
C762 C764 1.391 . S
C763 C762 1.386 . S
C763 C767 1.393 . S
C764 H753 0.950 . S
C764 C762 1.391 . S
C764 C765 1.400 . S
C765 C759 1.491 . S
C765 C764 1.400 . S
C765 C766 1.398 . S
C766 H754 0.950 . S
C766 C765 1.398 . S
C766 C767 1.391 . S
C767 H755 0.950 . S
C767 C763 1.393 . S
C767 C766 1.391 . S
H768 C776 0.950 . S
H769 C781 0.950 . S
H770 C778 0.950 . S
H771 C780 0.950 . S
H772 C782 0.950 . S
H773 C784 0.950 . S
H774 C786 0.950 . S
H775 C787 0.950 1_556 S
C776 H768 0.950 . S
C776 C777 1.386 . S
C776 C778 1.391 . S
C777 C776 1.386 . S
C777 C781 1.393 . S
C778 H770 0.950 . S
C778 C776 1.391 . S
C778 C779 1.400 . S
C779 C778 1.400 . S
C779 C780 1.398 . S
C779 C785 1.491 . S
C780 H771 0.950 . S
C780 C779 1.398 . S
C780 C781 1.391 . S
C781 H769 0.950 . S
C781 C777 1.393 . S
C781 C780 1.391 . S
C782 H772 0.950 . S
C782 C783 1.386 . S
C782 C784 1.391 . S
C783 C782 1.386 . S
C783 C787 1.393 . S
C784 H773 0.950 . S
C784 C782 1.391 . S
C784 C785 1.400 . S
C785 C779 1.491 . S
C785 C784 1.400 . S
C785 C786 1.398 . S
C786 H774 0.950 . S
C786 C785 1.398 . S
C786 C787 1.391 . S
C787 H775 0.950 1_554 S
C787 C783 1.393 . S
C787 C786 1.391 . S
H788 C796 0.950 . S
H789 C801 0.950 . S
H790 C798 0.950 . S
H791 C800 0.950 . S
H792 C802 0.950 . S
H793 C804 0.950 . S
H794 C806 0.950 . S
H795 C807 0.950 . S
C796 H788 0.950 . S
C796 C797 1.386 . S
C796 C798 1.391 . S
C797 C796 1.386 . S
C797 C801 1.393 . S
C798 H790 0.950 . S
C798 C796 1.391 . S
C798 C799 1.400 . S
C799 C798 1.400 . S
C799 C800 1.398 . S
C799 C805 1.491 . S
C800 H791 0.950 . S
C800 C799 1.398 . S
C800 C801 1.391 . S
C801 H789 0.950 . S
C801 C797 1.393 . S
C801 C800 1.391 . S
C802 H792 0.950 . S
C802 C803 1.386 . S
C802 C804 1.391 . S
C803 C802 1.386 . S
C803 C807 1.393 . S
C804 H793 0.950 . S
C804 C802 1.391 . S
C804 C805 1.400 . S
C805 C799 1.491 . S
C805 C804 1.400 . S
C805 C806 1.398 . S
C806 H794 0.950 . S
C806 C805 1.398 . S
C806 C807 1.391 . S
C807 H795 0.950 . S
C807 C803 1.393 . S
C807 C806 1.391 . S
H808 C816 0.950 . S
H809 C821 0.950 . S
H810 C818 0.950 . S
H811 C820 0.950 . S
H812 C822 0.950 1_455 S
H813 C824 0.950 . S
H814 C826 0.950 . S
H815 C827 0.950 . S
C816 H808 0.950 . S
C816 C817 1.386 . S
C816 C818 1.391 . S
C817 C816 1.386 . S
C817 C821 1.393 . S
C818 H810 0.950 . S
C818 C816 1.391 . S
C818 C819 1.400 . S
C819 C818 1.400 . S
C819 C820 1.398 . S
C819 C825 1.491 . S
C820 H811 0.950 . S
C820 C819 1.398 . S
C820 C821 1.391 . S
C821 H809 0.950 . S
C821 C817 1.393 . S
C821 C820 1.391 . S
C822 H812 0.950 1_655 S
C822 C823 1.386 . S
C822 C824 1.391 . S
C823 C822 1.386 . S
C823 C827 1.393 . S
C824 H813 0.950 . S
C824 C822 1.391 . S
C824 C825 1.400 . S
C825 C819 1.491 . S
C825 C824 1.400 . S
C825 C826 1.398 . S
C826 H814 0.950 . S
C826 C825 1.398 . S
C826 C827 1.391 . S
C827 H815 0.950 . S
C827 C823 1.393 . S
C827 C826 1.391 . S
H828 C836 0.950 . S
H829 C841 0.950 . S
H830 C838 0.950 . S
H831 C840 0.950 . S
H832 C842 0.950 . S
H833 C844 0.950 . S
H834 C846 0.950 . S
H835 C847 0.950 1_556 S
C836 H828 0.950 . S
C836 C837 1.386 . S
C836 C838 1.391 . S
C837 C836 1.386 . S
C837 C841 1.393 . S
C838 H830 0.950 . S
C838 C836 1.391 . S
C838 C839 1.400 . S
C839 C838 1.400 . S
C839 C840 1.398 . S
C839 C845 1.491 . S
C840 H831 0.950 . S
C840 C839 1.398 . S
C840 C841 1.391 . S
C841 H829 0.950 . S
C841 C837 1.393 . S
C841 C840 1.391 . S
C842 H832 0.950 . S
C842 C843 1.386 . S
C842 C844 1.391 . S
C843 C842 1.386 . S
C843 C847 1.393 . S
C844 H833 0.950 . S
C844 C842 1.391 . S
C844 C845 1.400 . S
C845 C839 1.491 . S
C845 C844 1.400 . S
C845 C846 1.398 . S
C846 H834 0.950 . S
C846 C845 1.398 . S
C846 C847 1.391 . S
C847 H835 0.950 1_554 S
C847 C843 1.393 . S
C847 C846 1.391 . S
H848 C856 0.950 . S
H849 C861 0.950 . S
H850 C858 0.950 1_655 S
H851 C860 0.950 . S
H852 C862 0.950 . S
H853 C864 0.950 . S
H854 C866 0.950 1_655 S
H855 C867 0.950 . S
C856 H848 0.950 . S
C856 C857 1.386 . S
C856 C858 1.391 . S
C857 C856 1.386 . S
C857 C861 1.393 . S
C858 H850 0.950 1_455 S
C858 C856 1.391 . S
C858 C859 1.400 . S
C859 C858 1.400 . S
C859 C860 1.398 . S
C859 C865 1.491 . S
C860 H851 0.950 . S
C860 C859 1.398 . S
C860 C861 1.391 . S
C861 H849 0.950 . S
C861 C857 1.393 . S
C861 C860 1.391 . S
C862 H852 0.950 . S
C862 C863 1.386 . S
C862 C864 1.391 . S
C863 C862 1.386 . S
C863 C867 1.393 1_455 S
C864 H853 0.950 . S
C864 C862 1.391 . S
C864 C865 1.400 . S
C865 C859 1.491 . S
C865 C864 1.400 . S
C865 C866 1.398 . S
C866 H854 0.950 1_455 S
C866 C865 1.398 . S
C866 C867 1.391 1_455 S
C867 H855 0.950 . S
C867 C863 1.393 1_655 S
C867 C866 1.391 1_655 S
H868 C876 0.950 . S
H869 C881 0.950 . S
H870 C878 0.950 . S
H871 C880 0.950 . S
H872 C882 0.950 . S
H873 C884 0.950 . S
H874 C886 0.950 . S
H875 C887 0.950 . S
C876 H868 0.950 . S
C876 C877 1.386 . S
C876 C878 1.391 . S
C877 C876 1.386 . S
C877 C881 1.393 . S
C878 H870 0.950 . S
C878 C876 1.391 . S
C878 C879 1.400 . S
C879 C878 1.400 . S
C879 C880 1.398 . S
C879 C885 1.491 . S
C880 H871 0.950 . S
C880 C879 1.398 . S
C880 C881 1.391 . S
C881 H869 0.950 . S
C881 C877 1.393 . S
C881 C880 1.391 . S
C882 H872 0.950 . S
C882 C883 1.386 . S
C882 C884 1.391 . S
C883 C882 1.386 . S
C883 C887 1.393 . S
C884 H873 0.950 . S
C884 C882 1.391 . S
C884 C885 1.400 . S
C885 C879 1.491 . S
C885 C884 1.400 . S
C885 C886 1.398 . S
C886 H874 0.950 . S
C886 C885 1.398 . S
C886 C887 1.391 . S
C887 H875 0.950 . S
C887 C883 1.393 . S
C887 C886 1.391 . S
C417 C1 2.137 . S
C423 C304 2.175 . S
C437 C67 1.102 . S
C443 N324 1.123 . S
C463 C358 1.986 . S
C457 C97 1.945 . S
C477 C133 1.358 . S
C483 N392 1.265 . S
C503 C345 2.346 . S
C497 C25 2.299 . S
C523 N302 1.186 . S
C517 C37 1.213 . S
C543 C379 2.008 . S
C537 C103 1.973 . S
C563 N354 1.051 . S
C557 C109 1.046 . S
C577 C31 1.804 . S
C583 C394 1.854 . S
C603 C328 1.716 . S
C597 C73 1.675 . S
C617 C139 1.502 . S
C623 C289 1.503 . S
C637 C61 1.431 . S
C643 C375 1.467 . S
C663 C315 2.183 . S
C657 C175 2.182 . S
C677 C181 1.121 . S
C683 N332 1.098 . S
C697 C247 2.011 . S
C703 C349 2.006 . S
C717 C277 1.345 . S
C723 N384 1.259 . S
C737 C145 2.339 . S
C743 C334 2.343 . S
C763 N294 1.181 . S
C757 C211 1.192 . S
C783 C388 1.991 . S
C777 C217 1.986 . S
C803 N362 1.056 . S
C797 C283 1.069 . S
C817 C169 1.836 . S
C823 C405 1.847 . S
C843 C319 1.716 . S
C837 C241 1.713 . S
C863 C298 1.492 . S
C857 C253 1.493 . S
C877 C205 1.442 . S
C883 C364 1.476 . S
