# Generated by pormake.
# Topology zzz, (3,6)-cn, num edge types: 1
# Building blocks:
#     Node 0, Type 0, BuildingBlock: MIDCAF_clean_linker_0, # of connection points: 3
#     Node 1, Type 0, BuildingBlock: MIDCAF_clean_linker_0, # of connection points: 3
#     Node 2, Type 0, BuildingBlock: MIDCAF_clean_linker_0, # of connection points: 3
#     Node 3, Type 0, BuildingBlock: MIDCAF_clean_linker_0, # of connection points: 3
#     Node 4, Type 0, BuildingBlock: MIDCAF_clean_linker_0, # of connection points: 3
#     Node 5, Type 0, BuildingBlock: MIDCAF_clean_linker_0, # of connection points: 3
#     Node 6, Type 0, BuildingBlock: MIDCAF_clean_linker_0, # of connection points: 3
#     Node 7, Type 0, BuildingBlock: MIDCAF_clean_linker_0, # of connection points: 3
#     Node 8, Type 1, BuildingBlock: FUNLAD_clean_sbu_0, # of connection points: 6
#     Node 9, Type 1, BuildingBlock: FUNLAD_clean_sbu_0, # of connection points: 6
#     Node 10, Type 1, BuildingBlock: FUNLAD_clean_sbu_0, # of connection points: 6
#     Node 11, Type 1, BuildingBlock: FUNLAD_clean_sbu_0, # of connection points: 6
#     Edge 12, Type (0, 1), BuildingBlock: XUDNAN_clean_linker_2, # of connection points: 2
#     Edge 13, Type (0, 1), BuildingBlock: XUDNAN_clean_linker_2, # of connection points: 2
#     Edge 14, Type (0, 1), BuildingBlock: XUDNAN_clean_linker_2, # of connection points: 2
#     Edge 15, Type (0, 1), BuildingBlock: XUDNAN_clean_linker_2, # of connection points: 2
#     Edge 16, Type (0, 1), BuildingBlock: XUDNAN_clean_linker_2, # of connection points: 2
#     Edge 17, Type (0, 1), BuildingBlock: XUDNAN_clean_linker_2, # of connection points: 2
#     Edge 18, Type (0, 1), BuildingBlock: XUDNAN_clean_linker_2, # of connection points: 2
#     Edge 19, Type (0, 1), BuildingBlock: XUDNAN_clean_linker_2, # of connection points: 2
#     Edge 20, Type (0, 1), BuildingBlock: XUDNAN_clean_linker_2, # of connection points: 2
#     Edge 21, Type (0, 1), BuildingBlock: XUDNAN_clean_linker_2, # of connection points: 2
#     Edge 22, Type (0, 1), BuildingBlock: XUDNAN_clean_linker_2, # of connection points: 2
#     Edge 23, Type (0, 1), BuildingBlock: XUDNAN_clean_linker_2, # of connection points: 2
#     Edge 24, Type (0, 1), BuildingBlock: XUDNAN_clean_linker_2, # of connection points: 2
#     Edge 25, Type (0, 1), BuildingBlock: XUDNAN_clean_linker_2, # of connection points: 2
#     Edge 26, Type (0, 1), BuildingBlock: XUDNAN_clean_linker_2, # of connection points: 2
#     Edge 27, Type (0, 1), BuildingBlock: XUDNAN_clean_linker_2, # of connection points: 2
#     Edge 28, Type (0, 1), BuildingBlock: XUDNAN_clean_linker_2, # of connection points: 2
#     Edge 29, Type (0, 1), BuildingBlock: XUDNAN_clean_linker_2, # of connection points: 2
#     Edge 30, Type (0, 1), BuildingBlock: XUDNAN_clean_linker_2, # of connection points: 2
#     Edge 31, Type (0, 1), BuildingBlock: XUDNAN_clean_linker_2, # of connection points: 2
#     Edge 32, Type (0, 1), BuildingBlock: XUDNAN_clean_linker_2, # of connection points: 2
#     Edge 33, Type (0, 1), BuildingBlock: XUDNAN_clean_linker_2, # of connection points: 2
#     Edge 34, Type (0, 1), BuildingBlock: XUDNAN_clean_linker_2, # of connection points: 2
#     Edge 35, Type (0, 1), BuildingBlock: XUDNAN_clean_linker_2, # of connection points: 2
# Relax obj value: 0.281
# Max RMSD: 0.227
# Mean RMSD: 0.193
data_MOF--net-zzz--node1-FUNLAD_clean_sbu_0--node2-MIDCAF_clean_linker_0--edge1-XUDNAN_clean_linker_2
_symmetry_space_group_name_H-M    P1
_symmetry_Int_Tables_number       1
_symmetry_cell_setting            triclinic
loop_
_symmetry_equiv_pos_as_xyz
'x, y, z'
_cell_length_a     57.44197
_cell_length_b     62.41624
_cell_length_c     22.601142
_cell_angle_alpha  86.823065
_cell_angle_beta   86.885813
_cell_angle_gamma 92.283066
loop_
_atom_site_label
_atom_site_type_symbol
_atom_site_fract_x
_atom_site_fract_y
_atom_site_fract_z
_atom_type_partial_charge
C0 C 0.86371 0.44623 0.36535 0.0
C1 C 0.85252 0.45985 0.40422 0.0
C2 C 0.82905 0.46444 0.39597 0.0
C3 C 0.8172 0.45565 0.34958 0.0
H4 H 0.76352 0.46786 0.22763 0.0
H5 H 0.72921 0.48294 0.18434 0.0
H6 H 0.72598 0.43091 0.06646 0.0
H7 H 0.76001 0.4158 0.10955 0.0
H8 H 0.81679 0.40965 0.05304 0.0
H9 H 0.84849 0.403 0.98074 0.0
H10 H 0.89357 0.38899 0.1231 0.0
H11 H 0.86207 0.39532 0.19553 0.0
H12 H 0.86153 0.42715 0.29093 0.0
H13 H 0.88192 0.44277 0.36885 0.0
H14 H 0.81986 0.4748 0.42529 0.0
H15 H 0.79926 0.45964 0.34385 0.0
N16 N 0.79595 0.43972 0.24296 0.0
N17 N 0.79991 0.4203 0.15682 0.0
N18 N 0.82959 0.42075 0.22327 0.0
C19 C 0.78704 0.43289 0.19217 0.0
C20 C 0.8212 0.41406 0.17234 0.0
C21 C 0.81729 0.4335 0.25892 0.0
C22 C 0.76464 0.44071 0.17173 0.0
C23 C 0.75526 0.45945 0.19317 0.0
C24 C 0.73571 0.46817 0.16815 0.0
C25 C 0.72499 0.45816 0.12183 0.0
C26 C 0.73373 0.4389 0.10241 0.0
C27 C 0.75336 0.43033 0.12689 0.0
C28 C 0.83711 0.40365 0.13003 0.0
C29 C 0.83314 0.40431 0.06908 0.0
C30 C 0.85125 0.40042 0.0276 0.0
C31 C 0.87348 0.39583 0.04662 0.0
C32 C 0.8766 0.39269 0.10752 0.0
C33 C 0.85855 0.39644 0.14888 0.0
C34 C 0.82861 0.44206 0.3108 0.0
C35 C 0.85193 0.43736 0.31989 0.0
C36 C 0.92197 0.83321 0.27009 0.0
C37 C 0.92736 0.82693 0.32811 0.0
C38 C 0.93461 0.80596 0.34039 0.0
C39 C 0.9388 0.79233 0.29394 0.0
H40 H 0.94545 0.72535 0.211 0.0
H41 H 0.94448 0.68702 0.19119 0.0
H42 H 0.96138 0.70353 0.00532 0.0
H43 H 0.96233 0.74135 0.02469 0.0
H44 H 0.00548 0.78273 0.01461 0.0
H45 H 0.03084 0.80684 0.94827 0.0
H46 H 0.99866 0.86149 0.02275 0.0
H47 H 0.97407 0.83768 0.08969 0.0
H48 H 0.92363 0.82568 0.17899 0.0
H49 H 0.91613 0.84921 0.25967 0.0
H50 H 0.93895 0.80082 0.38487 0.0
H51 H 0.94641 0.777 0.30338 0.0
N52 N 0.94545 0.76788 0.17816 0.0
N53 N 0.97027 0.7726 0.09152 0.0
N54 N 0.9608 0.80218 0.1452 0.0
C55 C 0.95668 0.75947 0.13053 0.0
C56 C 0.97253 0.79395 0.09883 0.0
C57 C 0.94732 0.78942 0.18489 0.0
C58 C 0.95417 0.73636 0.11954 0.0
C59 C 0.94866 0.72072 0.1659 0.0
C60 C 0.94819 0.69884 0.15462 0.0
C61 C 0.95277 0.69231 0.09668 0.0
C62 C 0.95746 0.70802 0.05028 0.0
C63 C 0.95825 0.72973 0.06158 0.0
C64 C 0.98775 0.80826 0.05753 0.0
C65 C 1.00391 0.79991 0.01685 0.0
C66 C 0.01844 0.81371 0.97886 0.0
C67 C 0.01701 0.83611 0.98062 0.0
C68 C 1.00076 0.84437 0.02122 0.0
C69 C 0.98643 0.83064 0.05933 0.0
C70 C 0.9358 0.79966 0.23509 0.0
C71 C 0.92619 0.81973 0.22404 0.0
C72 C 0.70293 0.01586 0.30951 0.0
C73 C 0.70489 0.99672 0.34445 0.0
C74 C 0.72402 0.98387 0.33093 0.0
C75 C 0.73939 0.98913 0.28102 0.0
H76 H 0.79021 0.98882 0.00551 0.0
H77 H 0.82959 0.98363 0.96582 0.0
H78 H 0.85709 0.00971 0.1225 0.0
H79 H 0.81737 0.01348 0.16354 0.0
H80 H 0.74516 0.02078 0.96012 0.0
H81 H 0.71466 0.02809 0.89039 0.0
H82 H 0.66741 0.04253 0.03617 0.0
H83 H 0.6974 0.03578 0.10539 0.0
H84 H 0.71533 0.03555 0.23343 0.0
H85 H 0.68854 0.02623 0.31689 0.0
H86 H 0.72665 0.96928 0.35741 0.0
H87 H 0.7528 0.97815 0.26927 0.0
N88 N 0.76886 0.00468 0.16642 0.0
N89 N 0.76211 0.01429 0.06629 0.0
N90 N 0.73301 0.01806 0.14042 0.0
C91 C 0.77661 0.00682 0.10779 0.0
C92 C 0.74029 0.02009 0.08255 0.0
C93 C 0.74678 0.0104 0.18264 0.0
C94 C 0.80067 0.00153 0.08774 0.0
C95 C 0.80471 0.99314 0.03184 0.0
C96 C 0.82743 0.99042 0.0087 0.0
C97 C 0.84691 0.99654 0.04008 0.0
C98 C 0.84276 0.00447 0.09692 0.0
C99 C 0.81992 0.00671 0.12068 0.0
C100 C 0.72364 0.0273 0.0385 0.0
C101 C 0.72843 0.02595 0.97711 0.0
C102 C 0.71108 0.03018 0.93723 0.0
C103 C 0.6888 0.03567 0.95842 0.0
C104 C 0.68447 0.03818 0.01909 0.0
C105 C 0.7017 0.03419 0.05863 0.0
C106 C 0.73606 0.00745 0.24405 0.0
C107 C 0.71835 0.02121 0.26074 0.0
C108 C 0.4778 0.63881 0.1352 0.0
C109 C 0.4828 0.6361 0.07454 0.0
C110 C 0.49703 0.65186 0.04134 0.0
C111 C 0.50733 0.66901 0.06911 0.0
H112 H 0.55077 0.72568 0.04706 0.0
H113 H 0.56143 0.75973 0.99281 0.0
H114 H 0.55843 0.79204 0.15685 0.0
H115 H 0.5481 0.75751 0.21201 0.0
H116 H 0.54765 0.7134 0.34747 0.0
H117 H 0.55589 0.69617 0.44434 0.0
H118 H 0.56019 0.63512 0.36373 0.0
H119 H 0.55244 0.65218 0.26877 0.0
H120 H 0.48526 0.65668 0.21052 0.0
H121 H 0.46642 0.62735 0.16182 0.0
H122 H 0.5015 0.65025 0.9947 0.0
H123 H 0.51923 0.68022 0.04313 0.0
N124 N 0.52598 0.70495 0.13599 0.0
N125 N 0.5472 0.71232 0.21951 0.0
N126 N 0.5256 0.67969 0.21615 0.0
C127 C 0.54015 0.71843 0.16458 0.0
C128 C 0.5401 0.69267 0.24496 0.0
C129 C 0.51831 0.68574 0.16213 0.0
C130 C 0.54854 0.739 0.13371 0.0
C131 C 0.55261 0.73999 0.07176 0.0
C132 C 0.55886 0.75945 0.0407 0.0
C133 C 0.56079 0.77846 0.0707 0.0
C134 C 0.55704 0.77755 0.13283 0.0
C135 C 0.55126 0.75786 0.16427 0.0
C136 C 0.5491 0.68405 0.30102 0.0
C137 C 0.55101 0.69644 0.35064 0.0
C138 C 0.55559 0.68654 0.40595 0.0
C139 C 0.55867 0.66423 0.41196 0.0
C140 C 0.55831 0.65234 0.36102 0.0
C141 C 0.55355 0.6621 0.30648 0.0
C142 C 0.50392 0.67049 0.13066 0.0
C143 C 0.48848 0.65567 0.16309 0.0
C144 C 0.18024 0.56909 0.03483 0.0
C145 C 0.18465 0.54815 0.01855 0.0
C146 C 0.20288 0.53732 0.04467 0.0
C147 C 0.21523 0.54664 0.08916 0.0
H148 H 0.28511 0.56063 0.17796 0.0
H149 H 0.32054 0.54762 0.2205 0.0
H150 H 0.28938 0.55413 0.39682 0.0
H151 H 0.25489 0.568 0.35453 0.0
H152 H 0.21631 0.60093 0.36881 0.0
H153 H 0.18535 0.60599 0.44385 0.0
H154 H 0.13507 0.60822 0.30891 0.0
H155 H 0.16594 0.60312 0.23325 0.0
H156 H 0.18769 0.594 0.09308 0.0
H157 H 0.16682 0.57816 0.01437 0.0
H158 H 0.20671 0.52116 0.03326 0.0
H159 H 0.22824 0.53743 0.11089 0.0
N160 N 0.23911 0.56825 0.18385 0.0
N161 N 0.23135 0.58522 0.27249 0.0
N162 N 0.20438 0.58638 0.19883 0.0
C163 C 0.24575 0.57369 0.23815 0.0
C164 C 0.21069 0.59173 0.25322 0.0
C165 C 0.21845 0.57476 0.16379 0.0
C166 C 0.26729 0.56556 0.26277 0.0
C167 C 0.28598 0.55935 0.22577 0.0
C168 C 0.30622 0.55177 0.25025 0.0
C169 C 0.30801 0.54996 0.31225 0.0
C170 C 0.28905 0.55585 0.34894 0.0
C171 C 0.2691 0.56372 0.32458 0.0
C172 C 0.19353 0.60091 0.29512 0.0
C173 C 0.19882 0.60313 0.35458 0.0
C174 C 0.18112 0.60611 0.39769 0.0
C175 C 0.15784 0.60715 0.38214 0.0
C176 C 0.15291 0.60751 0.32198 0.0
C177 C 0.17061 0.6044 0.27874 0.0
C178 C 0.20941 0.56686 0.10863 0.0
C179 C 0.19234 0.57826 0.07962 0.0
C180 C 0.13293 0.19936 0.08752 0.0
C181 C 0.11586 0.18844 0.05675 0.0
C182 C 0.09221 0.19233 0.06953 0.0
C183 C 0.0857 0.20537 0.11508 0.0
H184 H 0.09673 0.2873 0.20675 0.0
H185 H 0.09771 0.32375 0.24192 0.0
H186 H 0.10458 0.29762 0.42099 0.0
H187 H 0.10262 0.26149 0.38621 0.0
H188 H 0.04582 0.22515 0.39308 0.0
H189 H 0.02386 0.19983 0.46328 0.0
H190 H 0.05216 0.14697 0.37078 0.0
H191 H 0.07293 0.17218 0.29941 0.0
H192 H 0.13966 0.2198 0.15883 0.0
H193 H 0.15128 0.19674 0.07848 0.0
H194 H 0.07855 0.18398 0.04755 0.0
H195 H 0.0673 0.20678 0.12686 0.0
N196 N 0.10122 0.24325 0.22145 0.0
N197 N 0.0809 0.23587 0.31415 0.0
N198 N 0.08212 0.20957 0.24469 0.0
C199 C 0.09398 0.24967 0.27591 0.0
C200 C 0.07492 0.21581 0.29881 0.0
C201 C 0.09521 0.22308 0.206 0.0
C202 C 0.09922 0.27163 0.29394 0.0
C203 C 0.0989 0.28948 0.25338 0.0
C204 C 0.09948 0.31032 0.27357 0.0
C205 C 0.10067 0.31359 0.33453 0.0
C206 C 0.10289 0.29569 0.37406 0.0
C207 C 0.10194 0.27497 0.35411 0.0
C208 C 0.06113 0.20065 0.3408 0.0
C209 C 0.04715 0.2081 0.38764 0.0
C210 C 0.03461 0.19357 0.42795 0.0
C211 C 0.03612 0.17128 0.42285 0.0
C212 C 0.05 0.16395 0.3755 0.0
C213 C 0.06215 0.17844 0.33472 0.0
C214 C 0.10263 0.21506 0.14839 0.0
C215 C 0.12635 0.21272 0.13292 0.0
C216 C 0.34681 0.01318 0.05923 0.0
C217 C 0.33941 0.00374 0.00807 0.0
C218 C 0.31633 0.995 0.0089 0.0
C219 C 0.3019 0.99383 0.06133 0.0
H220 H 0.24276 0.02266 0.22635 0.0
H221 H 0.20633 0.031 0.28049 0.0
H222 H 0.20558 0.96943 0.37753 0.0
H223 H 0.24189 0.96122 0.32423 0.0
H224 H 0.301 0.96166 0.38096 0.0
H225 H 0.33129 0.94818 0.44385 0.0
H226 H 0.37777 0.94411 0.28871 0.0
H227 H 0.34789 0.95745 0.22608 0.0
H228 H 0.33955 0.01751 0.15162 0.0
H229 H 0.36444 0.0199 0.06062 0.0
H230 H 0.30994 0.98783 0.97002 0.0
H231 H 0.28507 0.98531 0.06209 0.0
N232 N 0.27746 0.99605 0.19167 0.0
N233 N 0.28357 0.97578 0.28042 0.0
N234 N 0.31379 0.98135 0.20725 0.0
C235 C 0.26921 0.98741 0.24626 0.0
C236 C 0.30586 0.97262 0.26098 0.0
C237 C 0.29996 0.99294 0.17231 0.0
C238 C 0.24533 0.99134 0.27118 0.0
C239 C 0.23455 0.01075 0.25834 0.0
C240 C 0.21378 0.01557 0.28964 0.0
C241 C 0.2031 0.00091 0.33356 0.0
C242 C 0.21321 0.98102 0.34379 0.0
C243 C 0.23412 0.97637 0.31339 0.0
C244 C 0.32218 0.96109 0.29864 0.0
C245 C 0.3175 0.95745 0.3602 0.0
C246 C 0.33477 0.94965 0.39618 0.0
C247 C 0.35692 0.94542 0.37105 0.0
C248 C 0.36094 0.94757 0.30922 0.0
C249 C 0.34379 0.95528 0.27344 0.0
C250 C 0.31034 0.00131 0.11383 0.0
C251 C 0.3325 0.01185 0.11151 0.0
C252 C 0.50254 0.36005 0.36799 0.0
C253 C 0.5254 0.3597 0.38771 0.0
C254 C 0.53898 0.34207 0.3745 0.0
C255 C 0.53 0.32542 0.34238 0.0
H256 H 0.5043 0.25606 0.36688 0.0
H257 H 0.50705 0.21834 0.39689 0.0
H258 H 0.49205 0.20107 0.22016 0.0
H259 H 0.48933 0.23908 0.18949 0.0
H260 H 0.4982 0.29155 0.08219 0.0
H261 H 0.49172 0.3121 0.98903 0.0
H262 H 0.44233 0.35021 0.08259 0.0
H263 H 0.44933 0.33021 0.17547 0.0
H264 H 0.47646 0.34472 0.31852 0.0
H265 H 0.49111 0.37282 0.37867 0.0
H266 H 0.55677 0.34125 0.38769 0.0
H267 H 0.54094 0.31222 0.33208 0.0
N268 N 0.50176 0.28887 0.2956 0.0
N269 N 0.48562 0.2803 0.20599 0.0
N270 N 0.48918 0.31622 0.23148 0.0
C271 C 0.49475 0.27383 0.25821 0.0
C272 C 0.48267 0.30154 0.1929 0.0
C273 C 0.49898 0.31002 0.28241 0.0
C274 C 0.49665 0.2507 0.27557 0.0
C275 C 0.50161 0.24432 0.33411 0.0
C276 C 0.50299 0.22264 0.35162 0.0
C277 C 0.49964 0.20674 0.31102 0.0
C278 C 0.49482 0.21301 0.25236 0.0
C279 C 0.4932 0.23477 0.23488 0.0
C280 C 0.47421 0.30935 0.13566 0.0
C281 C 0.48536 0.30381 0.08221 0.0
C282 C 0.48177 0.31561 0.02917 0.0
C283 C 0.46655 0.33271 0.02883 0.0
C284 C 0.45396 0.33697 0.08153 0.0
C285 C 0.45798 0.32557 0.13461 0.0
C286 C 0.50756 0.32637 0.32122 0.0
C287 C 0.49391 0.34378 0.33419 0.0
C288 C 0.04887 0.9655 0.74992 0.0
N289 N 1.00178 0.97684 0.61901 0.0
C290 C 0.01326 0.96217 0.58737 0.0
C291 C 1.00087 0.94696 0.55721 0.0
C292 C 0.97641 0.94649 0.56062 0.0
C293 C 0.96494 0.96208 0.59223 0.0
C294 C 0.97806 0.97736 0.62078 0.0
Zn295 Zn 0.02085 0.99524 0.67305 0.0
C296 C 0.99461 0.99866 0.79239 0.0
N297 N 0.06068 0.02953 0.79385 0.0
C298 C 0.08427 0.02856 0.79571 0.0
C299 C 0.04889 0.04482 0.82216 0.0
C300 C 0.06088 0.06054 0.85126 0.0
C301 C 0.08532 0.06066 0.85129 0.0
C302 C 0.09703 0.04404 0.82464 0.0
Zn303 Zn 0.04203 0.01109 0.73934 0.0
O304 O 0.0343 0.96682 0.70971 0.0
C305 C 0.06857 0.0081 0.62104 0.0
O306 O 0.05625 0.98244 0.7729 0.0
H307 H 0.03017 0.04544 0.81996 0.0
H308 H 0.03203 0.96162 0.58753 0.0
H309 H 0.09332 0.01635 0.77259 0.0
O310 O 0.04991 0.99816 0.60817 0.0
O311 O 0.06974 0.01545 0.67221 0.0
H312 H 0.96923 0.9891 0.64617 0.0
O313 O 0.02724 0.03934 0.70519 0.0
O314 O 0.00795 0.02402 0.63645 0.0
O315 O 0.01428 0.00655 0.8054 0.0
O316 O 0.9921 0.99284 0.73991 0.0
C317 C 0.01397 0.04082 0.66213 0.0
H318 H 0.0103 0.93502 0.53377 0.0
H319 H 0.94606 0.96223 0.5955 0.0
H320 H 0.05113 0.07282 0.87234 0.0
H321 H 0.11587 0.04358 0.82376 0.0
C322 C 0.4921 0.96294 0.60498 0.0
N323 N 0.51173 0.02877 0.59739 0.0
C324 C 0.51153 0.02658 0.53785 0.0
C325 C 0.50973 0.04445 0.49884 0.0
C326 C 0.50866 0.06504 0.52079 0.0
C327 C 0.50835 0.06681 0.58267 0.0
C328 C 0.50981 0.04837 0.62033 0.0
Zn329 Zn 0.51753 0.00179 0.64995 0.0
C330 C 0.48104 0.99171 0.7478 0.0
N331 N 0.53053 0.94362 0.74936 0.0
C332 C 0.53716 0.92576 0.72213 0.0
C333 C 0.52981 0.94427 0.80955 0.0
C334 C 0.53637 0.92664 0.84472 0.0
C335 C 0.54391 0.90821 0.81766 0.0
C336 C 0.54397 0.90783 0.75555 0.0
Zn337 Zn 0.52363 0.97059 0.69864 0.0
O338 O 0.49621 0.98309 0.59722 0.0
C339 C 0.55996 0.98006 0.60073 0.0
O340 O 0.50185 0.95247 0.64587 0.0
H341 H 0.52462 0.95867 0.83029 0.0
H342 H 0.51334 0.01096 0.52016 0.0
H343 H 0.53759 0.92557 0.67426 0.0
O344 O 0.54804 0.99669 0.59397 0.0
O345 O 0.55337 0.96576 0.641 0.0
H346 H 0.51008 0.04982 0.66776 0.0
O347 O 0.5453 0.98922 0.75119 0.0
O348 O 0.53903 0.01973 0.70279 0.0
O349 O 0.49371 0.97557 0.75415 0.0
O350 O 0.48699 0.00646 0.70788 0.0
C351 C 0.54926 0.00939 0.74297 0.0
H352 H 0.50948 0.0421 0.45178 0.0
H353 H 0.5078 0.0823 0.60185 0.0
H354 H 0.53622 0.92766 0.89242 0.0
H355 H 0.54931 0.89383 0.73294 0.0
C356 C 0.53648 0.48006 0.6345 0.0
N357 N 0.47033 0.50595 0.64646 0.0
C358 C 0.46227 0.48848 0.6191 0.0
C359 C 0.44492 0.49047 0.5784 0.0
C360 C 0.43596 0.5107 0.56488 0.0
C361 C 0.44431 0.52835 0.59489 0.0
C362 C 0.46143 0.52558 0.63589 0.0
Zn363 Zn 0.49823 0.5031 0.69862 0.0
C364 C 0.4965 0.46194 0.77145 0.0
N365 N 0.55861 0.49666 0.79974 0.0
C366 C 0.58018 0.50386 0.77748 0.0
C367 C 0.55523 0.4881 0.85644 0.0
C368 C 0.57394 0.48659 0.89318 0.0
C369 C 0.59626 0.49429 0.87169 0.0
C370 C 0.5993 0.50298 0.81303 0.0
Zn371 Zn 0.53049 0.49951 0.74836 0.0
O372 O 0.5159 0.48663 0.63116 0.0
C373 C 0.53175 0.5409 0.6768 0.0
O374 O 0.54788 0.48403 0.67955 0.0
H375 H 0.53794 0.48265 0.87354 0.0
H376 H 0.46965 0.47303 0.62784 0.0
H377 H 0.58253 0.51049 0.73221 0.0
O378 O 0.51241 0.53292 0.66202 0.0
O379 O 0.54384 0.53035 0.71271 0.0
H380 H 0.46808 0.53928 0.65798 0.0
O381 O 0.51234 0.51448 0.81741 0.0
O382 O 0.48119 0.51948 0.76658 0.0
O383 O 0.51669 0.46912 0.78277 0.0
O384 O 0.48415 0.47316 0.73762 0.0
C385 C 0.49202 0.52158 0.81357 0.0
H386 H 0.43877 0.47628 0.55749 0.0
H387 H 0.43828 0.54433 0.58559 0.0
H388 H 0.5709 0.47992 0.93835 0.0
H389 H 0.61633 0.50889 0.79475 0.0
C390 C 0.0393 0.5337 0.65049 0.0
N391 N 0.03887 0.46729 0.63333 0.0
C392 C 0.03846 0.47193 0.57383 0.0
C393 C 0.04784 0.45793 0.5336 0.0
C394 C 0.05758 0.43892 0.55481 0.0
C395 C 0.05787 0.4346 0.61644 0.0
C396 C 0.04843 0.44909 0.65506 0.0
Zn397 Zn 0.02503 0.48808 0.69115 0.0
C398 C 0.05639 0.49881 0.78432 0.0
N399 N 0.99613 0.5335 0.80644 0.0
C400 C 0.98959 0.55335 0.78786 0.0
C401 C 0.99555 0.52734 0.86524 0.0
C402 C 0.98852 0.54141 0.90791 0.0
C403 C 0.98256 0.56235 0.89038 0.0
C404 C 0.9829 0.56814 0.8292 0.0
Zn405 Zn 0.00931 0.5127 0.74719 0.0
O406 O 0.04169 0.51408 0.64025 0.0
C407 C 0.97791 0.50204 0.65442 0.0
O408 O 0.02576 0.53864 0.69344 0.0
H409 H 1.00106 0.51161 0.87942 0.0
H410 H 0.03074 0.48647 0.55751 0.0
H411 H 0.99018 0.55798 0.74096 0.0
O412 O 0.99469 0.49003 0.64207 0.0
O413 O 0.97922 0.51434 0.69724 0.0
H414 H 0.0487 0.44578 0.70249 0.0
O415 O 0.99314 0.4862 0.79929 0.0
O416 O 0.00826 0.46225 0.74268 0.0
O417 O 0.03964 0.51087 0.79611 0.0
O418 O 0.05504 0.48649 0.74163 0.0
C419 C 0.9953 0.4667 0.78719 0.0
H420 H 0.04703 0.46175 0.48644 0.0
H421 H 0.06545 0.42024 0.63465 0.0
H422 H 0.9881 0.53593 0.95425 0.0
H423 H 0.97883 0.58414 0.81316 0.0
H424 H 0.16255 0.97691 0.36762 0.0
H425 H 0.19823 0.03832 0.3892 0.0
H426 H 0.16693 0.04732 0.46173 0.0
H427 H 0.10294 0.99683 0.38018 0.0
H428 H 0.09108 0.97267 0.41997 0.0
H429 H 0.11569 0.97145 0.36748 0.0
H430 H 0.13925 0.95315 0.44922 0.0
H431 H 0.11477 0.95442 0.50198 0.0
H432 H 0.14279 0.96615 0.51765 0.0
H433 H 0.13407 0.04812 0.53942 0.0
H434 H 0.09971 0.04224 0.6099 0.0
H435 H 0.08337 0.98145 0.53427 0.0
C436 C 0.1636 0.99235 0.38713 0.0
C437 C 0.18285 0.00697 0.37245 0.0
C438 C 0.18355 0.027 0.39899 0.0
C439 C 0.16591 0.0322 0.44056 0.0
C440 C 0.1474 0.01735 0.45468 0.0
C441 C 0.14589 0.99797 0.4281 0.0
C442 C 0.12416 0.98483 0.45165 0.0
C443 C 0.10748 0.98124 0.40185 0.0
C444 C 0.13064 0.96337 0.48192 0.0
C445 C 0.11398 0.99965 0.49651 0.0
C446 C 0.12779 0.01825 0.49774 0.0
C447 C 0.12291 0.03378 0.53812 0.0
C448 C 0.10341 0.03027 0.57815 0.0
C449 C 0.08873 0.01153 0.57711 0.0
C450 C 0.09403 0.99611 0.53532 0.0
H451 H 0.4811 0.18536 0.4133 0.0
H452 H 0.52322 0.17638 0.25204 0.0
H453 H 0.52903 0.1388 0.28675 0.0
H454 H 0.51483 0.1551 0.51147 0.0
H455 H 0.49022 0.14365 0.55702 0.0
H456 H 0.48827 0.16943 0.51817 0.0
H457 H 0.45166 0.15552 0.46745 0.0
H458 H 0.45342 0.12972 0.50646 0.0
H459 H 0.45312 0.13156 0.42663 0.0
H460 H 0.5327 0.1033 0.34234 0.0
H461 H 0.53222 0.07152 0.41176 0.0
H462 H 0.48613 0.10296 0.53544 0.0
C463 C 0.49147 0.17544 0.3852 0.0
C464 C 0.50174 0.18377 0.32995 0.0
C465 C 0.515 0.17025 0.29419 0.0
C466 C 0.51848 0.14894 0.31368 0.0
C467 C 0.5084 0.14136 0.36876 0.0
C468 C 0.49496 0.15411 0.40375 0.0
C469 C 0.48633 0.14212 0.46144 0.0
C470 C 0.49547 0.15324 0.51519 0.0
C471 C 0.45954 0.13958 0.46572 0.0
C472 C 0.49738 0.12073 0.45392 0.0
C473 C 0.51003 0.12065 0.40016 0.0
C474 C 0.52252 0.10303 0.38411 0.0
C475 C 0.52197 0.08495 0.42386 0.0
C476 C 0.50885 0.08445 0.47905 0.0
C477 C 0.49642 0.10271 0.49393 0.0
H478 H 0.3279 0.56294 0.4131 0.0
H479 H 0.33647 0.51842 0.27317 0.0
H480 H 0.37081 0.50422 0.32073 0.0
H481 H 0.38855 0.57354 0.43606 0.0
H482 H 0.38398 0.57409 0.51548 0.0
H483 H 0.36111 0.58171 0.46812 0.0
H484 H 0.33276 0.55326 0.5245 0.0
H485 H 0.35552 0.54557 0.57205 0.0
H486 H 0.34083 0.52565 0.53097 0.0
H487 H 0.40401 0.49452 0.38512 0.0
H488 H 0.43278 0.48972 0.46125 0.0
H489 H 0.39965 0.53829 0.56325 0.0
C490 C 0.3368 0.5501 0.3924 0.0
C491 C 0.32935 0.54186 0.33916 0.0
C492 C 0.34197 0.52532 0.31332 0.0
C493 C 0.36142 0.51702 0.34026 0.0
C494 C 0.36796 0.52531 0.39321 0.0
C495 C 0.35596 0.54143 0.41905 0.0
C496 C 0.36591 0.54705 0.47714 0.0
C497 C 0.37545 0.57049 0.47398 0.0
C498 C 0.34767 0.54261 0.52924 0.0
C499 C 0.3854 0.53151 0.48014 0.0
C500 C 0.38644 0.51922 0.43116 0.0
C501 C 0.40323 0.50395 0.42389 0.0
C502 C 0.41939 0.5012 0.4678 0.0
C503 C 0.41852 0.5135 0.51884 0.0
C504 C 0.40113 0.52878 0.52472 0.0
H505 H 0.0755 0.32305 0.43506 0.0
H506 H 0.11835 0.35302 0.2867 0.0
H507 H 0.11197 0.3887 0.32621 0.0
H508 H 0.03371 0.36322 0.44473 0.0
H509 H 0.03068 0.36101 0.52466 0.0
H510 H 0.03871 0.3381 0.48431 0.0
H511 H 0.07575 0.33459 0.5442 0.0
H512 H 0.06781 0.35746 0.58488 0.0
H513 H 0.096 0.35735 0.54577 0.0
H514 H 0.10028 0.42125 0.38291 0.0
H515 H 0.08506 0.44746 0.45211 0.0
H516 H 0.05085 0.39525 0.56305 0.0
C517 C 0.08393 0.33702 0.41117 0.0
C518 C 0.09763 0.33517 0.35797 0.0
C519 C 0.1077 0.35403 0.32738 0.0
C520 C 0.10424 0.37433 0.34962 0.0
C521 C 0.0907 0.37547 0.40243 0.0
C522 C 0.08078 0.35726 0.43276 0.0
C523 C 0.06691 0.36261 0.48837 0.0
C524 C 0.04097 0.35584 0.48529 0.0
C525 C 0.07724 0.3524 0.54409 0.0
C526 C 0.07054 0.38675 0.48484 0.0
C527 C 0.08422 0.39395 0.43494 0.0
C528 C 0.0896 0.41576 0.42214 0.0
C529 C 0.08079 0.43052 0.4615 0.0
C530 C 0.06688 0.42337 0.5131 0.0
C531 C 0.06174 0.40119 0.52454 0.0
H532 H 0.86215 0.001 0.92093 0.0
H533 H 0.88751 0.98879 0.09694 0.0
H534 H 0.92756 0.98795 0.05277 0.0
H535 H 0.90096 0.96459 0.84781 0.0
H536 H 0.90467 0.98152 0.78043 0.0
H537 H 0.87794 0.98164 0.82595 0.0
H538 H 0.88332 0.02283 0.8324 0.0
H539 H 0.91009 0.02283 0.78711 0.0
H540 H 0.90997 0.03395 0.85904 0.0
H541 H 0.96538 0.99018 0.98972 0.0
H542 H 0.99756 0.99285 0.91213 0.0
H543 H 0.9474 -0.0 0.77647 0.0
C544 C 0.87592 0.99775 0.95053 0.0
C545 C 0.87129 0.99513 0.01299 0.0
C546 C 0.8903 0.99138 0.04931 0.0
C547 C 0.91322 0.99067 0.02452 0.0
C548 C 0.91702 0.99339 0.96307 0.0
C549 C 0.89886 0.99658 0.92648 0.0
C550 C 0.90762 0.99874 0.86169 0.0
C551 C 0.89718 0.98054 0.82693 0.0
C552 C 0.90244 0.02091 0.83342 0.0
C553 C 0.93362 0.99648 0.86757 0.0
C554 C 0.93867 0.99358 0.92653 0.0
C555 C 0.96157 0.99217 0.94341 0.0
C556 C 0.97975 0.99376 0.89902 0.0
C557 C 0.97499 0.99641 0.83824 0.0
C558 C 0.95155 0.99761 0.82248 0.0
H559 H 0.53531 0.81452 0.07422 0.0
H560 H 0.5959 0.78832 0.98645 0.0
H561 H 0.60014 0.82045 0.91709 0.0
H562 H 0.5111 0.83413 0.94639 0.0
H563 H 0.50013 0.85818 0.97628 0.0
H564 H 0.50385 0.8349 0.02485 0.0
H565 H 0.53039 0.8574 0.08926 0.0
H566 H 0.52655 0.88087 0.04119 0.0
H567 H 0.5555 0.87237 0.05475 0.0
H568 H 0.59521 0.8531 0.85091 0.0
H569 H 0.58218 0.88479 0.7936 0.0
H570 H 0.52421 0.88965 0.92286 0.0
C571 C 0.54991 0.81596 0.04164 0.0
C572 C 0.56546 0.79913 0.03592 0.0
C573 C 0.58392 0.80115 0.99159 0.0
C574 C 0.58647 0.81932 0.95215 0.0
C575 C 0.57041 0.83534 0.95768 0.0
C576 C 0.55258 0.83395 0.00156 0.0
C577 C 0.53653 0.85252 0.99459 0.0
C578 C 0.51143 0.84444 0.98494 0.0
C579 C 0.5373 0.86663 0.04814 0.0
C580 C 0.54775 0.86421 0.93906 0.0
C581 C 0.56739 0.85414 0.91886 0.0
C582 C 0.58001 0.86127 0.86663 0.0
C583 C 0.57234 0.87915 0.8341 0.0
C584 C 0.55216 0.88968 0.85369 0.0
C585 C 0.53989 0.88215 0.90722 0.0
H586 H 0.6844 0.43894 0.0878 0.0
H587 H 0.72277 0.50035 0.08394 0.0
H588 H 0.69304 0.51674 0.02293 0.0
H589 H 0.66822 0.44273 0.93993 0.0
H590 H 0.63956 0.43015 0.9551 0.0
H591 H 0.66279 0.42361 0.00242 0.0
H592 H 0.63772 0.43426 0.09414 0.0
H593 H 0.61432 0.4407 0.04712 0.0
H594 H 0.62577 0.46054 0.09408 0.0
H595 H 0.66123 0.52556 0.95457 0.0
H596 H 0.6278 0.52683 0.89004 0.0
H597 H 0.60973 0.45992 0.94025 0.0
C598 C 0.68639 0.4559 0.07465 0.0
C599 C 0.70584 0.46841 0.09075 0.0
C600 C 0.70783 0.49055 0.07284 0.0
C601 C 0.69111 0.49996 0.03788 0.0
C602 C 0.67241 0.48707 0.02175 0.0
C603 C 0.66978 0.46558 0.04017 0.0
C604 C 0.64841 0.45514 0.01546 0.0
C605 C 0.65516 0.43683 0.97588 0.0
C606 C 0.63049 0.4472 0.0657 0.0
C607 C 0.63969 0.47401 0.9793 0.0
C608 C 0.65379 0.49227 0.98342 0.0
C609 C 0.64989 0.51144 0.95157 0.0
C610 C 0.631 0.51198 0.9148 0.0
C611 C 0.61619 0.49351 0.91054 0.0
C612 C 0.62059 0.47435 0.94345 0.0
H613 H 0.9345 0.67144 0.00512 0.0
H614 H 0.9759 0.6617 0.15845 0.0
H615 H 0.98469 0.62538 0.12763 0.0
H616 H 0.91197 0.61431 0.00075 0.0
H617 H 0.91377 0.61572 0.92074 0.0
H618 H 0.90775 0.63941 0.96012 0.0
H619 H 0.94302 0.65961 0.90259 0.0
H620 H 0.94936 0.63598 0.86371 0.0
H621 H 0.97152 0.64859 0.90518 0.0
H622 H 0.99425 0.59309 0.07151 0.0
H623 H 1.00151 0.56591 0.99894 0.0
H624 H 0.95221 0.59563 0.88394 0.0
C625 C 0.94494 0.66143 0.03296 0.0
C626 C 0.95447 0.66931 0.08429 0.0
C627 C 0.96814 0.65584 0.1195 0.0
C628 C 0.97331 0.63523 0.10216 0.0
C629 C 0.96438 0.62827 0.05003 0.0
C630 C 0.95013 0.64081 0.01649 0.0
C631 C 0.94415 0.63023 0.9602 0.0
C632 C 0.91785 0.62458 0.9605 0.0
C633 C 0.95252 0.64445 0.90467 0.0
C634 C 0.95807 0.61021 0.96603 0.0
C635 C 0.96946 0.60931 0.01834 0.0
C636 C 0.98489 0.59329 0.03121 0.0
C637 C 0.98879 0.5778 0.9896 0.0
C638 C 0.97721 0.57827 0.93562 0.0
C639 C 0.96144 0.59467 0.92442 0.0
H640 H 0.01682 0.13103 0.407 0.0
H641 H 0.03062 0.17564 0.54302 0.0
H642 H 0.01736 0.14785 0.62001 0.0
H643 H 0.96699 0.09865 0.48965 0.0
H644 H 0.97745 0.07399 0.46235 0.0
H645 H 0.98192 0.09874 0.41737 0.0
H646 H 0.0264 0.09301 0.40887 0.0
H647 H 0.02207 0.06835 0.45357 0.0
H648 H 0.04192 0.08915 0.47562 0.0
H649 H 0.0107 0.11418 0.68182 0.0
H650 H 0.01211 0.07699 0.72354 0.0
H651 H 1.00395 0.05331 0.54875 0.0
C652 C 0.01662 0.13514 0.45292 0.0
C653 C 0.0247 0.15566 0.46865 0.0
C654 C 0.02405 0.16029 0.52939 0.0
C655 C 0.01657 0.14454 0.57365 0.0
C656 C 0.0097 0.12424 0.55662 0.0
C657 C 0.00954 0.11951 0.49764 0.0
C658 C 0.00488 0.0957 0.49127 0.0
C659 C 0.98141 0.09153 0.46352 0.0
C660 C 0.02502 0.086 0.45525 0.0
C661 C 1.00384 0.08761 0.5558 0.0
C662 C 0.00604 0.10442 0.59281 0.0
C663 C 0.00836 0.10092 0.65354 0.0
C664 C 0.00923 0.07974 0.6768 0.0
C665 C 0.0079 0.06234 0.63934 0.0
C666 C 1.00433 0.06631 0.57853 0.0
H667 H 0.3991 0.96654 0.36194 0.0
H668 H 0.3589 0.91633 0.46681 0.0
H669 H 0.39203 0.91179 0.53199 0.0
H670 H 0.45713 0.94431 0.37418 0.0
H671 H 0.47092 0.97049 0.38011 0.0
H672 H 0.44533 0.96761 0.338 0.0
H673 H 0.42454 0.99533 0.40147 0.0
H674 H 0.45005 0.99835 0.44343 0.0
H675 H 0.42219 0.99093 0.48113 0.0
H676 H 0.42904 0.91466 0.58889 0.0
H677 H 0.4642 0.92716 0.6381 0.0
H678 H 0.47863 0.97634 0.49629 0.0
C679 C 0.3975 0.95418 0.39769 0.0
C680 C 0.37671 0.94147 0.40886 0.0
C681 C 0.37484 0.92606 0.4574 0.0
C682 C 0.39358 0.92331 0.49425 0.0
C683 C 0.4139 0.9362 0.48194 0.0
C684 C 0.41581 0.95144 0.43497 0.0
C685 C 0.43829 0.96487 0.43439 0.0
C686 C 0.45384 0.96161 0.37834 0.0
C687 C 0.43347 0.98877 0.4405 0.0
C688 C 0.44862 0.95517 0.48918 0.0
C689 C 0.43462 0.93835 0.51547 0.0
C690 C 0.44023 0.92765 0.56831 0.0
C691 C 0.46028 0.93477 0.59576 0.0
C692 C 0.4741 0.95264 0.57074 0.0
C693 C 0.46844 0.96254 0.51613 0.0
H694 H 0.51453 0.40248 0.38005 0.0
H695 H 0.55737 0.35771 0.47487 0.0
H696 H 0.57127 0.38687 0.53437 0.0
H697 H 0.55158 0.45189 0.38823 0.0
H698 H 0.52671 0.46793 0.40265 0.0
H699 H 0.52403 0.44497 0.35812 0.0
H700 H 0.48966 0.42916 0.42849 0.0
H701 H 0.49209 0.45214 0.47255 0.0
H702 H 0.49373 0.42552 0.5069 0.0
H703 H 0.57723 0.41961 0.59149 0.0
H704 H 0.57048 0.45121 0.64997 0.0
H705 H 0.52073 0.47335 0.52492 0.0
C706 C 0.52689 0.39863 0.41304 0.0
C707 C 0.53489 0.37759 0.4219 0.0
C708 C 0.55133 0.37367 0.46552 0.0
C709 C 0.55935 0.39019 0.49986 0.0
C710 C 0.55068 0.41055 0.49062 0.0
C711 C 0.53458 0.41474 0.44873 0.0
C712 C 0.5253 0.43698 0.45341 0.0
C713 C 0.53234 0.45129 0.39726 0.0
C714 C 0.49863 0.43587 0.46613 0.0
C715 C 0.53798 0.44432 0.50613 0.0
C716 C 0.55314 0.42915 0.52569 0.0
C717 C 0.56564 0.43172 0.57616 0.0
C718 C 0.56177 0.44979 0.60896 0.0
C719 C 0.54511 0.46473 0.59186 0.0
C720 C 0.53375 0.4623 0.53864 0.0
H721 H 0.15413 0.57427 0.46459 0.0
H722 H 0.11783 0.62962 0.40005 0.0
H723 H 0.08395 0.61883 0.47004 0.0
H724 H 0.10654 0.53895 0.46828 0.0
H725 H 0.11418 0.52319 0.53306 0.0
H726 H 0.13666 0.53733 0.48609 0.0
H727 H 0.15127 0.55699 0.5761 0.0
H728 H 0.12895 0.5427 0.62365 0.0
H729 H 0.13107 0.57164 0.62052 0.0
H730 H 0.05312 0.60007 0.54473 0.0
H731 H 0.02774 0.57402 0.60899 0.0
H732 H 0.08429 0.53018 0.6147 0.0
C733 C 0.13939 0.58456 0.4667 0.0
C734 C 0.13873 0.60307 0.42835 0.0
C735 C 0.11872 0.61559 0.4301 0.0
C736 C 0.09949 0.60958 0.46967 0.0
C737 C 0.10058 0.59091 0.5063 0.0
C738 C 0.12007 0.57858 0.50469 0.0
C739 C 0.11621 0.55798 0.54274 0.0
C740 C 0.11852 0.53821 0.50529 0.0
C741 C 0.13286 0.5573 0.59378 0.0
C742 C 0.09134 0.56035 0.56543 0.0
C743 C 0.08264 0.57959 0.54529 0.0
C744 C 0.05981 0.58499 0.56072 0.0
C745 C 0.04555 0.57018 0.59708 0.0
C746 C 0.05411 0.55013 0.61583 0.0
C747 C 0.07729 0.54535 0.60021 0.0
H748 H 0.03727 0.87525 0.00198 0.0
H749 H 0.02775 0.83115 0.8626 0.0
H750 H 0.04476 0.85865 0.78877 0.0
H751 H 0.01655 0.91767 0.92902 0.0
H752 H 0.03595 0.93798 0.95547 0.0
H753 H 0.02972 0.91333 0.99908 0.0
H754 H 0.07393 0.90652 0.99979 0.0
H755 H 0.08032 0.93131 0.95601 0.0
H756 H 0.09105 0.90648 0.93054 0.0
H757 H 0.05329 0.89243 0.7288 0.0
H758 H 0.05273 0.92979 0.68757 0.0
H759 H 0.05653 0.95281 0.86427 0.0
C760 C 0.03936 0.87118 0.95611 0.0
C761 C 0.0312 0.85102 0.93816 0.0
C762 C 0.03424 0.84631 0.87773 0.0
C763 C 0.04388 0.86188 0.83537 0.0
C764 C 0.05062 0.88199 0.85418 0.0
C765 C 0.04872 0.88662 0.9133 0.0
C766 C 0.05363 0.9103 0.92099 0.0
C767 C 0.03271 0.9204 0.95297 0.0
C768 C 0.07607 0.91386 0.95377 0.0
C769 C 0.05693 0.91854 0.8567 0.0
C770 C 0.05576 0.90184 0.81894 0.0
C771 C 0.055 0.90557 0.75775 0.0
C772 C 0.05461 0.92683 0.73474 0.0
C773 C 0.05497 0.94406 0.77284 0.0
C774 C 0.05706 0.9399 0.83419 0.0
H775 H 0.64991 0.00981 0.96833 0.0
H776 H 0.68372 0.063 0.86098 0.0
H777 H 0.64923 0.06462 0.79914 0.0
H778 H 0.62576 0.98368 0.84863 0.0
H779 H 0.59946 0.97435 0.89099 0.0
H780 H 0.62606 0.97871 0.92793 0.0
H781 H 0.60498 0.00443 0.99732 0.0
H782 H 0.57838 0.00036 0.95994 0.0
H783 H 0.59067 0.02715 0.96548 0.0
H784 H 0.6108 0.05993 0.74961 0.0
H785 H 0.57447 0.04646 0.70782 0.0
H786 H 0.56731 0.99531 0.84646 0.0
C787 C 0.64992 0.02187 0.93195 0.0
C788 C 0.66914 0.03644 0.91932 0.0
C789 C 0.66897 0.05178 0.87099 0.0
C790 C 0.64946 0.05288 0.83616 0.0
C791 C 0.63056 0.03839 0.85031 0.0
C792 C 0.63085 0.02298 0.89657 0.0
C793 C 0.60922 0.00827 0.90033 0.0
C794 C 0.61551 0.98488 0.89141 0.0
C795 C 0.59497 0.01018 0.95927 0.0
C796 C 0.59669 0.01764 0.84855 0.0
C797 C 0.60901 0.03524 0.82084 0.0
C798 C 0.601 0.04621 0.77107 0.0
C799 C 0.58027 0.03854 0.74792 0.0
C800 C 0.5681 0.01988 0.77408 0.0
C801 C 0.5762 0.00967 0.82576 0.0
H802 H 0.46998 0.63006 0.96031 0.0
H803 H 0.48145 0.59563 0.12784 0.0
H804 H 0.47666 0.56141 0.08092 0.0
H805 H 0.42897 0.58801 0.90146 0.0
H806 H 0.44199 0.59271 0.82726 0.0
H807 H 0.44054 0.61444 0.87651 0.0
H808 H 0.48529 0.62142 0.86069 0.0
H809 H 0.48687 0.59976 0.81173 0.0
H810 H 0.50435 0.59974 0.87561 0.0
H811 H 0.48004 0.53203 0.01387 0.0
H812 H 0.4894 0.50929 0.93048 0.0
H813 H 0.4749 0.56146 0.80536 0.0
C814 C 0.47087 0.61532 0.9875 0.0
C815 C 0.47585 0.61567 0.04806 0.0
C816 C 0.47702 0.59595 0.08187 0.0
C817 C 0.47442 0.57632 0.0555 0.0
C818 C 0.47046 0.57657 0.9953 0.0
C819 C 0.4684 0.59552 0.9617 0.0
C820 C 0.46719 0.59142 0.89643 0.0
C821 C 0.44324 0.59697 0.87411 0.0
C822 C 0.48711 0.60381 0.85896 0.0
C823 C 0.47033 0.56741 0.89833 0.0
C824 C 0.47182 0.55913 0.956 0.0
C825 C 0.47806 0.53808 0.9687 0.0
C826 C 0.48341 0.52531 0.92126 0.0
C827 C 0.48218 0.53357 0.86214 0.0
C828 C 0.47496 0.55463 0.85048 0.0
H829 H 0.90959 0.424 0.0555 0.0
H830 H 0.88261 0.37638 0.94177 0.0
H831 H 0.91528 0.38603 0.86719 0.0
H832 H 0.92155 0.46293 0.94414 0.0
H833 H 0.94728 0.47433 0.97467 0.0
H834 H 0.9249 0.46073 0.02308 0.0
H835 H 0.95527 0.4352 0.06521 0.0
H836 H 0.97785 0.44882 0.01696 0.0
H837 H 0.97287 0.42017 0.01518 0.0
H838 H 0.94909 0.40335 0.80209 0.0
H839 H 0.97797 0.42891 0.74821 0.0
H840 H 0.9801 0.46673 0.90317 0.0
C841 C 0.91108 0.41505 0.01583 0.0
C842 C 0.89411 0.39905 0.00477 0.0
C843 C 0.89582 0.38839 0.95122 0.0
C844 C 0.9143 0.39373 0.90893 0.0
C845 C 0.93062 0.4099 0.92089 0.0
C846 C 0.92901 0.42048 0.97302 0.0
C847 C 0.94656 0.43921 0.97224 0.0
C848 C 0.93433 0.46055 0.97889 0.0
C849 C 0.96418 0.43562 0.02025 0.0
C850 C 0.95796 0.43796 0.91086 0.0
C851 C 0.94903 0.42064 0.88239 0.0
C852 C 0.95634 0.41682 0.82421 0.0
C853 C 0.97277 0.43136 0.79405 0.0
C854 C 0.98118 0.4497 0.82178 0.0
C855 C 0.97398 0.45276 0.88115 0.0
H856 H 0.09723 0.17932 0.9516 0.0
H857 H 0.14682 0.1569 0.07651 0.0
H858 H 0.1493 0.12296 0.02594 0.0
H859 H 0.06489 0.13334 0.95541 0.0
H860 H 0.05812 0.1343 0.87839 0.0
H861 H 0.06475 0.15876 0.91343 0.0
H862 H 0.09803 0.16884 0.83349 0.0
H863 H 0.09124 0.1445 0.79739 0.0
H864 H 0.12046 0.15009 0.81933 0.0
H865 H 0.14042 0.08893 0.97449 0.0
H866 H 0.12192 0.05875 0.92483 0.0
H867 H 0.07752 0.10331 0.83576 0.0
C868 C 0.10922 0.16756 0.96703 0.0
C869 C 0.12191 0.17082 0.0178 0.0
C870 C 0.13727 0.15498 0.03699 0.0
C871 C 0.1387 0.13556 0.0087 0.0
C872 C 0.12485 0.13234 0.9609 0.0
C873 C 0.11068 0.14809 0.93963 0.0
C874 C 0.09529 0.13983 0.8929 0.0
C875 C 0.06924 0.14166 0.91118 0.0
C876 C 0.10165 0.15151 0.83217 0.0
C877 C 0.10205 0.11667 0.89352 0.0
C878 C 0.11947 0.11268 0.932 0.0
C879 C 0.12714 0.09198 0.94327 0.0
C880 C 0.11654 0.07493 0.91498 0.0
C881 C 0.09824 0.07871 0.87673 0.0
C882 C 0.09138 0.09993 0.86508 0.0
H883 H 0.37498 0.03139 0.95633 0.0
H884 H 0.3442 0.96693 0.94983 0.0
H885 H 0.37586 0.95807 0.87896 0.0
H886 H 0.39648 0.03691 0.79744 0.0
H887 H 0.42287 0.05156 0.81345 0.0
H888 H 0.39661 0.0537 0.85983 0.0
H889 H 0.41879 0.04201 0.95214 0.0
H890 H 0.44503 0.03964 0.90607 0.0
H891 H 0.43352 0.01703 0.95331 0.0
H892 H 0.41289 0.95437 0.81986 0.0
H893 H 0.45142 0.95724 0.76598 0.0
H894 H 0.45852 0.0245 0.80371 0.0
C895 C 0.37468 0.01554 0.9391 0.0
C896 C 0.35681 -6e-05 0.95845 0.0
C897 C 0.35724 0.97935 0.93497 0.0
C898 C 0.37533 0.97408 0.89496 0.0
C899 C 0.39287 0.98959 0.87799 0.0
C900 C 0.39257 0.01004 0.89832 0.0
C901 C 0.41406 0.02342 0.87384 0.0
C902 C 0.40708 0.04253 0.83375 0.0
C903 C 0.42871 0.03096 0.92436 0.0
C904 C 0.42675 0.00708 0.83798 0.0
C905 C 0.41413 0.98766 0.84146 0.0
C906 C 0.42273 0.96958 0.81591 0.0
C907 C 0.44471 0.97134 0.78573 0.0
C908 C 0.45788 0.99109 0.78039 0.0
C909 C 0.44866 0.0093 0.8064 0.0
H910 H 0.50398 0.35429 0.97228 0.0
H911 H 0.42866 0.34722 0.97227 0.0
H912 H 0.42842 0.37762 0.89693 0.0
H913 H 0.50632 0.40938 0.97042 0.0
H914 H 0.53284 0.41347 0.92408 0.0
H915 H 0.52757 0.38889 0.96895 0.0
H916 H 0.53279 0.36683 0.87565 0.0
H917 H 0.53837 0.39139 0.83043 0.0
H918 H 0.51553 0.37254 0.81284 0.0
H919 H 0.43632 0.41109 0.82916 0.0
H920 H 0.45139 0.44527 0.77759 0.0
H921 H 0.52134 0.43113 0.82711 0.0
C922 C 0.48754 0.35863 0.95462 0.0
C923 C 0.46638 0.34818 0.97683 0.0
C924 C 0.44506 0.35487 0.95489 0.0
C925 C 0.44479 0.37208 0.91218 0.0
C926 C 0.46597 0.38248 0.89236 0.0
C927 C 0.48696 0.37595 0.91287 0.0
C928 C 0.507 0.3912 0.88998 0.0
C929 C 0.51913 0.40133 0.94143 0.0
C930 C 0.52445 0.37981 0.84983 0.0
C931 C 0.49397 0.40763 0.85463 0.0
C932 C 0.47039 0.40217 0.85555 0.0
C933 C 0.45478 0.41541 0.82769 0.0
C934 C 0.46349 0.43479 0.79859 0.0
C935 C 0.48752 0.44088 0.79848 0.0
C936 C 0.50288 0.42694 0.8264 0.0
H937 H 0.13727 0.55025 0.01671 0.0
H938 H 0.19633 0.52097 0.9302 0.0
H939 H 0.16953 0.50269 0.86498 0.0
H940 H 0.09581 0.50571 0.01215 0.0
H941 H 0.07184 0.52264 0.99745 0.0
H942 H 0.09558 0.53238 0.03895 0.0
H943 H 0.1024 0.56537 0.96416 0.0
H944 H 0.07856 0.55582 0.92285 0.0
H945 H 0.10701 0.56121 0.88616 0.0
H946 H 0.13581 0.48869 0.80667 0.0
H947 H 0.09885 0.4816 0.75826 0.0
H948 H 0.06283 0.521 0.8832 0.0
C949 C 0.14471 0.54018 0.98373 0.0
C950 C 0.16897 0.53718 0.97836 0.0
C951 C 0.1778 0.52341 0.93544 0.0
C952 C 0.16271 0.513 0.89816 0.0
C953 C 0.13888 0.51646 0.9046 0.0
C954 C 0.13 0.52978 0.9463 0.0
C955 C 0.10392 0.53153 0.94336 0.0
C956 C 0.09104 0.52252 0.00143 0.0
C957 C 0.09762 0.55486 0.92821 0.0
C958 C 0.09945 0.51733 0.89284 0.0
C959 C 0.11972 0.50858 0.87128 0.0
C960 C 0.11982 0.49537 0.82346 0.0
C961 C 0.09874 0.49138 0.79639 0.0
C962 C 0.07794 0.50071 0.817 0.0
C963 C 0.07838 0.51355 0.86646 0.0
H964 H 0.95271 0.86436 0.3131 0.0
H965 H 0.90771 0.82637 0.44243 0.0
H966 H 0.91277 0.85457 0.51488 0.0
H967 H 0.99337 0.88121 0.41401 0.0
H968 H 0.99898 0.90744 0.3774 0.0
H969 H 0.98998 0.88522 0.33538 0.0
H970 H 0.95527 0.90661 0.29848 0.0
H971 H 0.96413 0.92892 0.34058 0.0
H972 H 0.93493 0.91719 0.35182 0.0
H973 H 0.92365 0.88726 0.57291 0.0
H974 H 0.94226 0.9192 0.61457 0.0
H975 H 0.98143 0.93409 0.44708 0.0
C976 C 0.94357 0.86216 0.35636 0.0
C977 C 0.92944 0.84349 0.37209 0.0
C978 C 0.9184 0.84074 0.42963 0.0
C979 C 0.92112 0.85667 0.47074 0.0
C980 C 0.93516 0.87501 0.45354 0.0
C981 C 0.94637 0.87764 0.3978 0.0
C982 C 0.96186 0.89788 0.39113 0.0
C983 C 0.98756 0.89261 0.37878 0.0
C984 C 0.95354 0.91358 0.34263 0.0
C985 C 0.95783 0.90628 0.45203 0.0
C986 C 0.9421 0.89312 0.48724 0.0
C987 C 0.93593 0.89766 0.54562 0.0
C988 C 0.94646 0.91586 0.56879 0.0
C989 C 0.9632 0.92902 0.53386 0.0
C990 C 0.96868 0.92425 0.47462 0.0
H991 H 0.67596 0.02185 0.41195 0.0
H992 H 0.68942 0.95522 0.38073 0.0
H993 H 0.65516 0.94371 0.44657 0.0
H994 H 0.65195 0.01434 0.56402 0.0
H995 H 0.62994 0.03374 0.55299 0.0
H996 H 0.65737 0.03662 0.51013 0.0
H997 H 0.63529 0.03753 0.4131 0.0
H998 H 0.60782 0.03449 0.45561 0.0
H999 H 0.61499 0.01572 0.40031 0.0
H1000 H 0.61788 0.93941 0.51327 0.0
H1001 H 0.58068 0.94297 0.57195 0.0
H1002 H 0.58925 0.01233 0.54877 0.0
C1003 C 0.67189 0.00479 0.41846 0.0
C1004 C 0.68582 0.98956 0.39045 0.0
C1005 C 0.67967 0.96739 0.40216 0.0
C1006 C 0.65997 0.96062 0.43922 0.0
C1007 C 0.64628 0.97614 0.46401 0.0
C1008 C 0.65197 0.99778 0.45393 0.0
C1009 C 0.63353 0.01133 0.48217 0.0
C1010 C 0.64382 0.0248 0.53018 0.0
C1011 C 0.62224 0.0256 0.43498 0.0
C1012 C 0.61641 0.99394 0.50928 0.0
C1013 C 0.62424 0.97373 0.4992 0.0
C1014 C 0.61158 0.95517 0.52116 0.0
C1015 C 0.59046 0.95734 0.55436 0.0
C1016 C 0.58193 0.9779 0.56428 0.0
C1017 C 0.59512 0.99638 0.54112 0.0
H1018 H 0.58492 0.62997 0.44354 0.0
H1019 H 0.53197 0.67107 0.5126 0.0
H1020 H 0.5248 0.64606 0.60037 0.0
H1021 H 0.55409 0.58387 0.4721 0.0
H1022 H 0.57759 0.56721 0.49282 0.0
H1023 H 0.58363 0.59082 0.44454 0.0
H1024 H 0.61334 0.60532 0.51635 0.0
H1025 H 0.60766 0.58151 0.56473 0.0
H1026 H 0.60442 0.60768 0.59334 0.0
H1027 H 0.51643 0.61324 0.66598 0.0
H1028 H 0.50958 0.57602 0.70853 0.0
H1029 H 0.56756 0.55546 0.59833 0.0
C1030 C 0.5724 0.63408 0.47819 0.0
C1031 C 0.55905 0.65254 0.47113 0.0
C1032 C 0.54275 0.6573 0.51732 0.0
C1033 C 0.53846 0.64308 0.56733 0.0
C1034 C 0.55082 0.62431 0.57095 0.0
C1035 C 0.5678 0.61996 0.52812 0.0
C1036 C 0.57629 0.59739 0.53805 0.0
C1037 C 0.57266 0.58405 0.48367 0.0
C1038 C 0.60195 0.59802 0.55409 0.0
C1039 C 0.56035 0.58923 0.59075 0.0
C1040 C 0.5461 0.60517 0.60975 0.0
C1041 C 0.52798 0.60085 0.65286 0.0
C1042 C 0.52414 0.57971 0.67655 0.0
C1043 C 0.5384 0.56322 0.65733 0.0
C1044 C 0.55699 0.56806 0.61487 0.0
H1045 H 0.88542 0.4409 0.4704 0.0
H1046 H 0.85071 0.50091 0.44364 0.0
H1047 H 0.87726 0.51799 0.51156 0.0
H1048 H 0.90031 0.44639 0.62452 0.0
H1049 H 0.92831 0.4349 0.61186 0.0
H1050 H 0.90411 0.42678 0.56954 0.0
H1051 H 0.92884 0.43717 0.47201 0.0
H1052 H 0.953 0.44553 0.51391 0.0
H1053 H 0.94156 0.46404 0.45987 0.0
H1054 H 0.91009 0.52904 0.57772 0.0
H1055 H 0.94618 0.533 0.63265 0.0
H1056 H 0.96083 0.46658 0.60489 0.0
C1057 C 0.88319 0.45761 0.47893 0.0
C1058 C 0.86597 0.46955 0.45132 0.0
C1059 C 0.86352 0.49129 0.4648 0.0
C1060 C 0.87864 0.50118 0.50306 0.0
C1061 C 0.8961 0.48911 0.52731 0.0
C1062 C 0.89835 0.46777 0.51569 0.0
C1063 C 0.91965 0.45868 0.54243 0.0
C1064 C 0.91267 0.44062 0.58991 0.0
C1065 C 0.93677 0.45091 0.49417 0.0
C1066 C 0.92943 0.47835 0.56993 0.0
C1067 C 0.91544 0.49568 0.56199 0.0
C1068 C 0.92113 0.51555 0.58413 0.0
C1069 C 0.94163 0.51768 0.61508 0.0
C1070 C 0.95636 0.50018 0.62213 0.0
C1071 C 0.95007 0.48034 0.59929 0.0
loop_
_geom_bond_atom_site_label_1
_geom_bond_atom_site_label_2
_geom_bond_distance
_geom_bond_site_symmetry_2
_ccdc_geom_bond_type
C0 C1 1.384 . S
C0 H13 0.947 . S
C0 C35 1.382 . S
C1 C0 1.384 . S
C1 C2 1.378 . S
C2 C1 1.378 . S
C2 C3 1.378 . S
C2 H14 0.952 . S
C3 C2 1.378 . S
C3 H15 0.950 . S
C3 C34 1.383 . S
H4 C23 0.947 . S
H5 C24 0.946 . S
H6 C26 0.939 1_556 S
H7 C27 0.945 . S
H8 C29 0.952 . S
H9 C30 0.949 . S
H10 C32 0.950 . S
H11 C33 0.948 . S
H12 C35 0.951 . S
H13 C0 0.947 . S
H14 C2 0.952 . S
H15 C3 0.950 . S
N16 C19 1.382 . S
N16 C21 1.363 . S
N17 C19 1.371 . S
N17 C20 1.372 . S
N18 C20 1.361 . S
N18 C21 1.377 . S
C19 N16 1.382 . S
C19 N17 1.371 . S
C19 C22 1.480 . S
C20 N17 1.372 . S
C20 N18 1.361 . S
C20 C28 1.457 . S
C21 N16 1.363 . S
C21 N18 1.377 . S
C21 C34 1.479 . S
C22 C19 1.480 . S
C22 C23 1.383 . S
C22 C27 1.385 . S
C23 H4 0.947 . S
C23 C22 1.383 . S
C23 C24 1.388 . S
C24 H5 0.946 . S
C24 C23 1.388 . S
C24 C25 1.384 . S
C25 C24 1.384 . S
C25 C26 1.377 . S
C26 H6 0.939 1_554 S
C26 C25 1.377 . S
C26 C27 1.369 . S
C27 H7 0.945 . S
C27 C22 1.385 . S
C27 C26 1.369 . S
C28 C20 1.457 . S
C28 C29 1.372 1_554 S
C28 C33 1.364 . S
C29 H8 0.952 . S
C29 C28 1.372 1_556 S
C29 C30 1.389 . S
C30 H9 0.949 . S
C30 C29 1.389 . S
C30 C31 1.387 . S
C31 C30 1.387 . S
C31 C32 1.372 1_556 S
C32 H10 0.950 . S
C32 C31 1.372 1_554 S
C32 C33 1.379 . S
C33 H11 0.948 . S
C33 C28 1.364 . S
C33 C32 1.379 . S
C34 C3 1.383 . S
C34 C21 1.479 . S
C34 C35 1.398 . S
C35 C0 1.382 . S
C35 H12 0.951 . S
C35 C34 1.398 . S
C36 C37 1.384 . S
C36 H49 0.947 . S
C36 C71 1.382 . S
C37 C36 1.384 . S
C37 C38 1.378 . S
C38 C37 1.378 . S
C38 C39 1.378 . S
C38 H50 0.952 . S
C39 C38 1.378 . S
C39 H51 0.950 . S
C39 C70 1.383 . S
H40 C59 0.947 . S
H41 C60 0.946 . S
H42 C62 0.953 . S
H43 C63 0.945 . S
H44 C65 0.952 . S
H45 C66 0.949 . S
H46 C68 0.950 . S
H47 C69 0.948 . S
H48 C71 0.951 . S
H49 C36 0.947 . S
H50 C38 0.952 . S
H51 C39 0.950 . S
N52 C55 1.382 1_554 S
N52 C57 1.363 . S
N53 C55 1.371 . S
N53 C56 1.372 . S
N54 C56 1.361 1_554 S
N54 C57 1.377 . S
C55 N52 1.382 1_556 S
C55 N53 1.371 . S
C55 C58 1.480 . S
C56 N53 1.372 . S
C56 N54 1.361 1_556 S
C56 C64 1.457 . S
C57 N52 1.363 . S
C57 N54 1.377 . S
C57 C70 1.479 . S
C58 C55 1.480 . S
C58 C59 1.383 1_556 S
C58 C63 1.385 . S
C59 H40 0.947 . S
C59 C58 1.383 1_554 S
C59 C60 1.388 . S
C60 H41 0.946 . S
C60 C59 1.388 . S
C60 C61 1.384 1_554 S
C61 C60 1.384 1_556 S
C61 C62 1.377 . S
C62 H42 0.953 . S
C62 C61 1.377 . S
C62 C63 1.369 . S
C63 H43 0.945 . S
C63 C58 1.385 . S
C63 C62 1.369 . S
C64 C56 1.457 . S
C64 C65 1.372 . S
C64 C69 1.364 . S
C65 H44 0.952 . S
C65 C64 1.372 . S
C65 C66 1.389 . S
C66 H45 0.949 . S
C66 C65 1.389 . S
C66 C67 1.387 . S
C67 C66 1.387 . S
C67 C68 1.372 . S
C68 H46 0.950 . S
C68 C67 1.372 . S
C68 C69 1.379 . S
C69 H47 0.948 . S
C69 C64 1.364 . S
C69 C68 1.379 . S
C70 C39 1.383 . S
C70 C57 1.479 . S
C70 C71 1.398 . S
C71 C36 1.382 . S
C71 H48 0.951 . S
C71 C70 1.398 . S
C72 C73 1.383 1_565 S
C72 H85 0.947 . S
C72 C107 1.382 1_565 S
C73 C72 1.383 1_545 S
C73 C74 1.378 . S
C74 C73 1.378 . S
C74 C75 1.378 . S
C74 H86 0.952 . S
C75 C74 1.378 . S
C75 H87 0.950 . S
C75 C106 1.383 . S
H76 C95 0.947 . S
H77 C96 0.951 . S
H78 C98 0.953 . S
H79 C99 0.945 . S
H80 C101 0.948 1_565 S
H81 C102 0.959 . S
H82 C104 0.950 . S
H83 C105 0.948 . S
H84 C107 0.951 1_565 S
H85 C72 0.947 . S
H86 C74 0.952 . S
H87 C75 0.950 . S
N88 C91 1.382 . S
N88 C93 1.363 . S
N89 C91 1.371 . S
N89 C92 1.372 . S
N90 C92 1.361 . S
N90 C93 1.377 . S
C91 N88 1.382 . S
C91 N89 1.371 . S
C91 C94 1.480 . S
C92 N89 1.372 . S
C92 N90 1.361 . S
C92 C100 1.457 1_554 S
C93 N88 1.363 . S
C93 N90 1.377 . S
C93 C106 1.479 . S
C94 C91 1.480 . S
C94 C95 1.383 . S
C94 C99 1.385 1_554 S
C95 H76 0.947 . S
C95 C94 1.383 . S
C95 C96 1.384 1_545 S
C96 H77 0.951 . S
C96 C95 1.384 1_565 S
C96 C97 1.383 1_565 S
C97 C96 1.383 1_545 S
C97 C98 1.377 1_554 S
C98 H78 0.953 . S
C98 C97 1.377 1_556 S
C98 C99 1.369 . S
C99 H79 0.945 . S
C99 C94 1.385 1_556 S
C99 C98 1.369 . S
C100 C92 1.457 1_556 S
C100 C101 1.377 . S
C100 C105 1.364 1_556 S
C101 H80 0.948 1_545 S
C101 C100 1.377 . S
C101 C102 1.386 1_545 S
C102 H81 0.959 . S
C102 C101 1.386 1_565 S
C102 C103 1.380 1_565 S
C103 C102 1.380 1_545 S
C103 C104 1.372 . S
C104 H82 0.950 . S
C104 C103 1.372 . S
C104 C105 1.379 1_556 S
C105 H83 0.948 . S
C105 C100 1.364 1_554 S
C105 C104 1.379 1_554 S
C106 C75 1.383 . S
C106 C93 1.479 . S
C106 C107 1.398 . S
C107 C72 1.382 1_545 S
C107 H84 0.951 1_545 S
C107 C106 1.398 . S
C108 C109 1.384 . S
C108 H121 0.947 . S
C108 C143 1.382 1_556 S
C109 C108 1.384 . S
C109 C110 1.378 . S
C110 C109 1.378 . S
C110 C111 1.378 . S
C110 H122 0.952 . S
C111 C110 1.378 . S
C111 H123 0.950 . S
C111 C142 1.383 1_556 S
H112 C131 0.947 1_556 S
H113 C132 0.946 . S
H114 C134 0.953 . S
H115 C135 0.945 . S
H116 C137 0.952 . S
H117 C138 0.949 . S
H118 C140 0.950 . S
H119 C141 0.948 . S
H120 C143 0.951 . S
H121 C108 0.947 . S
H122 C110 0.952 . S
H123 C111 0.950 . S
N124 C127 1.382 . S
N124 C129 1.363 . S
N125 C127 1.371 . S
N125 C128 1.372 . S
N126 C128 1.361 . S
N126 C129 1.377 . S
C127 N124 1.382 . S
C127 N125 1.371 . S
C127 C130 1.480 . S
C128 N125 1.372 . S
C128 N126 1.361 . S
C128 C136 1.457 . S
C129 N124 1.363 . S
C129 N126 1.377 . S
C129 C142 1.479 . S
C130 C127 1.480 . S
C130 C131 1.383 . S
C130 C135 1.385 . S
C131 H112 0.947 1_554 S
C131 C130 1.383 . S
C131 C132 1.388 1_554 S
C132 H113 0.946 . S
C132 C131 1.388 1_556 S
C132 C133 1.384 1_556 S
C133 C132 1.384 1_554 S
C133 C134 1.377 . S
C134 H114 0.953 . S
C134 C133 1.377 . S
C134 C135 1.369 . S
C135 H115 0.945 . S
C135 C130 1.385 . S
C135 C134 1.369 . S
C136 C128 1.457 . S
C136 C137 1.372 . S
C136 C141 1.364 . S
C137 H116 0.952 . S
C137 C136 1.372 . S
C137 C138 1.389 . S
C138 H117 0.949 . S
C138 C137 1.389 . S
C138 C139 1.387 . S
C139 C138 1.387 . S
C139 C140 1.372 . S
C140 H118 0.950 . S
C140 C139 1.372 . S
C140 C141 1.379 . S
C141 H119 0.948 . S
C141 C136 1.364 . S
C141 C140 1.379 . S
C142 C111 1.383 1_554 S
C142 C129 1.479 . S
C142 C143 1.398 . S
C143 C108 1.382 1_554 S
C143 H120 0.951 . S
C143 C142 1.398 . S
C144 C145 1.384 . S
C144 H157 0.947 . S
C144 C179 1.382 . S
C145 C144 1.384 . S
C145 C146 1.378 . S
C146 C145 1.378 . S
C146 C147 1.378 . S
C146 H158 0.952 . S
C147 C146 1.378 . S
C147 H159 0.950 . S
C147 C178 1.383 . S
H148 C167 0.947 . S
H149 C168 0.946 . S
H150 C170 0.953 . S
H151 C171 0.945 . S
H152 C173 0.952 . S
H153 C174 0.949 . S
H154 C176 0.950 . S
H155 C177 0.948 . S
H156 C179 0.951 . S
H157 C144 0.947 . S
H158 C146 0.952 . S
H159 C147 0.950 . S
N160 C163 1.382 . S
N160 C165 1.363 . S
N161 C163 1.371 . S
N161 C164 1.372 . S
N162 C164 1.361 . S
N162 C165 1.377 . S
C163 N160 1.382 . S
C163 N161 1.371 . S
C163 C166 1.480 . S
C164 N161 1.372 . S
C164 N162 1.361 . S
C164 C172 1.457 . S
C165 N160 1.363 . S
C165 N162 1.377 . S
C165 C178 1.479 . S
C166 C163 1.480 . S
C166 C167 1.383 . S
C166 C171 1.385 . S
C167 H148 0.947 . S
C167 C166 1.383 . S
C167 C168 1.388 . S
C168 H149 0.946 . S
C168 C167 1.388 . S
C168 C169 1.384 . S
C169 C168 1.384 . S
C169 C170 1.377 . S
C170 H150 0.953 . S
C170 C169 1.377 . S
C170 C171 1.369 . S
C171 H151 0.945 . S
C171 C166 1.385 . S
C171 C170 1.369 . S
C172 C164 1.457 . S
C172 C173 1.372 . S
C172 C177 1.364 . S
C173 H152 0.952 . S
C173 C172 1.372 . S
C173 C174 1.389 . S
C174 H153 0.949 . S
C174 C173 1.389 . S
C174 C175 1.387 . S
C175 C174 1.387 . S
C175 C176 1.372 . S
C176 H154 0.950 . S
C176 C175 1.372 . S
C176 C177 1.379 . S
C177 H155 0.948 . S
C177 C172 1.364 . S
C177 C176 1.379 . S
C178 C147 1.383 . S
C178 C165 1.479 . S
C178 C179 1.398 . S
C179 C144 1.382 . S
C179 H156 0.951 . S
C179 C178 1.398 . S
C180 C181 1.384 . S
C180 H193 0.947 . S
C180 C215 1.382 . S
C181 C180 1.384 . S
C181 C182 1.378 . S
C182 C181 1.378 . S
C182 C183 1.378 . S
C182 H194 0.952 . S
C183 C182 1.378 . S
C183 H195 0.950 . S
C183 C214 1.383 . S
H184 C203 0.947 . S
H185 C204 0.946 . S
H186 C206 0.953 . S
H187 C207 0.945 . S
H188 C209 0.952 . S
H189 C210 0.949 . S
H190 C212 0.950 . S
H191 C213 0.948 . S
H192 C215 0.951 . S
H193 C180 0.947 . S
H194 C182 0.952 . S
H195 C183 0.950 . S
N196 C199 1.382 . S
N196 C201 1.363 . S
N197 C199 1.371 . S
N197 C200 1.372 . S
N198 C200 1.361 . S
N198 C201 1.377 . S
C199 N196 1.382 . S
C199 N197 1.371 . S
C199 C202 1.480 . S
C200 N197 1.372 . S
C200 N198 1.361 . S
C200 C208 1.457 . S
C201 N196 1.363 . S
C201 N198 1.377 . S
C201 C214 1.479 . S
C202 C199 1.480 . S
C202 C203 1.383 . S
C202 C207 1.385 . S
C203 H184 0.947 . S
C203 C202 1.383 . S
C203 C204 1.388 . S
C204 H185 0.946 . S
C204 C203 1.388 . S
C204 C205 1.384 . S
C205 C204 1.384 . S
C205 C206 1.377 . S
C206 H186 0.953 . S
C206 C205 1.377 . S
C206 C207 1.369 . S
C207 H187 0.945 . S
C207 C202 1.385 . S
C207 C206 1.369 . S
C208 C200 1.457 . S
C208 C209 1.372 . S
C208 C213 1.364 . S
C209 H188 0.952 . S
C209 C208 1.372 . S
C209 C210 1.389 . S
C210 H189 0.949 . S
C210 C209 1.389 . S
C210 C211 1.387 . S
C211 C210 1.387 . S
C211 C212 1.372 . S
C212 H190 0.950 . S
C212 C211 1.372 . S
C212 C213 1.379 . S
C213 H191 0.948 . S
C213 C208 1.364 . S
C213 C212 1.379 . S
C214 C183 1.383 . S
C214 C201 1.479 . S
C214 C215 1.398 . S
C215 C180 1.382 . S
C215 H192 0.951 . S
C215 C214 1.398 . S
C216 C217 1.384 . S
C216 H229 0.948 1_545 S
C216 C251 1.381 . S
C217 C216 1.384 . S
C217 C218 1.378 . S
C218 C217 1.378 . S
C218 C219 1.378 . S
C218 H230 0.952 . S
C219 C218 1.378 . S
C219 H231 0.950 . S
C219 C250 1.383 . S
H220 C239 0.947 . S
H221 C240 0.949 . S
H222 C242 0.953 . S
H223 C243 0.945 . S
H224 C245 0.949 1_565 S
H225 C246 0.952 . S
H226 C248 0.950 . S
H227 C249 0.948 . S
H228 C251 0.950 1_565 S
H229 C216 0.948 1_565 S
H230 C218 0.952 . S
H231 C219 0.950 . S
N232 C235 1.382 . S
N232 C237 1.363 . S
N233 C235 1.371 . S
N233 C236 1.372 . S
N234 C236 1.361 . S
N234 C237 1.377 . S
C235 N232 1.382 . S
C235 N233 1.371 . S
C235 C238 1.480 . S
C236 N233 1.372 . S
C236 N234 1.361 . S
C236 C244 1.457 . S
C237 N232 1.363 . S
C237 N234 1.377 . S
C237 C250 1.479 . S
C238 C235 1.480 . S
C238 C239 1.383 . S
C238 C243 1.385 . S
C239 H220 0.947 . S
C239 C238 1.383 . S
C239 C240 1.388 1_545 S
C240 H221 0.949 . S
C240 C239 1.388 1_565 S
C240 C241 1.381 1_565 S
C241 C240 1.381 1_545 S
C241 C242 1.377 . S
C242 H222 0.953 . S
C242 C241 1.377 . S
C242 C243 1.369 . S
C243 H223 0.945 . S
C243 C238 1.385 . S
C243 C242 1.369 . S
C244 C236 1.457 . S
C244 C245 1.377 . S
C244 C249 1.364 . S
C245 H224 0.949 1_545 S
C245 C244 1.377 . S
C245 C246 1.387 1_545 S
C246 H225 0.952 . S
C246 C245 1.387 1_565 S
C246 C247 1.385 1_565 S
C247 C246 1.385 1_545 S
C247 C248 1.372 . S
C248 H226 0.950 . S
C248 C247 1.372 . S
C248 C249 1.379 . S
C249 H227 0.948 . S
C249 C244 1.364 . S
C249 C248 1.379 . S
C250 C219 1.383 . S
C250 C237 1.479 . S
C250 C251 1.400 . S
C251 C216 1.381 . S
C251 H228 0.950 1_545 S
C251 C250 1.400 . S
C252 C253 1.384 . S
C252 H265 0.947 . S
C252 C287 1.382 . S
C253 C252 1.384 . S
C253 C254 1.378 . S
C254 C253 1.378 . S
C254 C255 1.378 . S
C254 H266 0.952 . S
C255 C254 1.378 . S
C255 H267 0.950 . S
C255 C286 1.383 . S
H256 C275 0.947 . S
H257 C276 0.946 . S
H258 C278 0.953 . S
H259 C279 0.945 . S
H260 C281 0.952 . S
H261 C282 0.949 . S
H262 C284 0.950 . S
H263 C285 0.948 . S
H264 C287 0.951 . S
H265 C252 0.947 . S
H266 C254 0.952 . S
H267 C255 0.950 . S
N268 C271 1.382 . S
N268 C273 1.363 . S
N269 C271 1.371 . S
N269 C272 1.372 . S
N270 C272 1.361 . S
N270 C273 1.377 . S
C271 N268 1.382 . S
C271 N269 1.371 . S
C271 C274 1.480 . S
C272 N269 1.372 . S
C272 N270 1.361 . S
C272 C280 1.457 . S
C273 N268 1.363 . S
C273 N270 1.377 . S
C273 C286 1.479 . S
C274 C271 1.480 . S
C274 C275 1.383 . S
C274 C279 1.385 . S
C275 H256 0.947 . S
C275 C274 1.383 . S
C275 C276 1.388 . S
C276 H257 0.946 . S
C276 C275 1.388 . S
C276 C277 1.384 . S
C277 C276 1.384 . S
C277 C278 1.377 . S
C278 H258 0.953 . S
C278 C277 1.377 . S
C278 C279 1.369 . S
C279 H259 0.945 . S
C279 C274 1.385 . S
C279 C278 1.369 . S
C280 C272 1.457 . S
C280 C281 1.372 . S
C280 C285 1.364 . S
C281 H260 0.952 . S
C281 C280 1.372 . S
C281 C282 1.389 . S
C282 H261 0.949 . S
C282 C281 1.389 . S
C282 C283 1.387 . S
C283 C282 1.387 . S
C283 C284 1.372 . S
C284 H262 0.950 . S
C284 C283 1.372 . S
C284 C285 1.379 . S
C285 H263 0.948 . S
C285 C280 1.364 . S
C285 C284 1.379 . S
C286 C255 1.383 . S
C286 C273 1.479 . S
C286 C287 1.398 . S
C287 C252 1.382 . S
C287 H264 0.951 . S
C287 C286 1.398 . S
C288 O304 1.251 . S
C288 O306 1.254 . S
N289 C290 1.333 . S
N289 C294 1.307 . S
N289 Zn295 2.020 1_655 S
C290 N289 1.333 . S
C290 C291 1.379 . S
C290 H308 0.952 1_655 S
C291 C290 1.379 . S
C291 C292 1.390 . S
C291 H318 0.949 . S
C292 C291 1.390 . S
C292 C293 1.357 . S
C293 C292 1.357 . S
C293 C294 1.370 . S
C293 H319 0.950 . S
C294 N289 1.307 . S
C294 C293 1.370 . S
C294 H312 0.946 . S
Zn295 N289 2.020 1_455 S
Zn295 O304 2.039 . S
Zn295 O310 2.034 . S
Zn295 O314 2.025 1_565 S
Zn295 O316 2.036 1_455 S
C296 O315 1.246 . S
C296 O316 1.233 1_545 S
N297 C298 1.307 . S
N297 C299 1.333 . S
N297 Zn303 2.020 . S
C298 N297 1.307 . S
C298 C302 1.370 . S
C298 H309 0.958 . S
C299 N297 1.333 . S
C299 C300 1.379 . S
C299 H307 0.952 . S
C300 C299 1.379 . S
C300 C301 1.390 . S
C300 H320 0.949 . S
C301 C300 1.390 . S
C301 C302 1.357 . S
C302 C298 1.370 . S
C302 C301 1.357 . S
C302 H321 0.950 . S
Zn303 N297 2.020 . S
Zn303 O306 2.025 1_545 S
Zn303 O311 2.040 . S
Zn303 O313 2.039 . S
Zn303 O315 2.034 1_455 S
O304 C288 1.251 . S
O304 Zn295 2.039 . S
C305 O310 1.246 . S
C305 O311 1.228 1_565 S
O306 C288 1.254 . S
O306 Zn303 2.025 1_565 S
H307 C299 0.952 . S
H308 C290 0.952 1_455 S
H309 C298 0.958 . S
O310 Zn295 2.034 . S
O310 C305 1.246 . S
O311 Zn303 2.040 . S
O311 C305 1.228 1_545 S
H312 C294 0.946 . S
O313 Zn303 2.039 . S
O313 C317 1.251 . S
O314 Zn295 2.025 1_545 S
O314 C317 1.254 . S
O315 C296 1.246 . S
O315 Zn303 2.034 1_655 S
O316 Zn295 2.036 1_655 S
O316 C296 1.233 1_565 S
C317 O313 1.251 . S
C317 O314 1.254 . S
H318 C291 0.949 . S
H319 C293 0.950 . S
H320 C300 0.949 . S
H321 C302 0.950 . S
C322 O338 1.251 1_565 S
C322 O340 1.254 . S
N323 C324 1.333 . S
N323 C328 1.307 . S
N323 Zn329 2.020 . S
C324 N323 1.333 . S
C324 C325 1.379 . S
C324 H342 0.952 . S
C325 C324 1.379 . S
C325 C326 1.390 . S
C325 H352 0.949 . S
C326 C325 1.390 . S
C326 C327 1.357 . S
C327 C326 1.357 . S
C327 C328 1.370 . S
C327 H353 0.950 . S
C328 N323 1.307 . S
C328 C327 1.370 . S
C328 H346 0.948 . S
Zn329 N323 2.020 . S
Zn329 O338 2.039 . S
Zn329 O344 2.034 . S
Zn329 O348 2.025 . S
Zn329 O350 2.024 . S
C330 O349 1.246 1_545 S
C330 O350 1.249 . S
N331 C332 1.307 . S
N331 C333 1.333 . S
N331 Zn337 2.020 . S
C332 N331 1.307 . S
C332 C336 1.370 . S
C332 H343 0.948 . S
C333 N331 1.333 . S
C333 C334 1.379 . S
C333 H341 0.952 . S
C334 C333 1.379 . S
C334 C335 1.390 . S
C334 H354 0.949 . S
C335 C334 1.390 . S
C335 C336 1.357 . S
C336 C332 1.370 . S
C336 C335 1.357 . S
C336 H355 0.950 . S
Zn337 N331 2.020 . S
Zn337 O340 2.025 . S
Zn337 O345 2.024 . S
Zn337 O347 2.039 . S
Zn337 O349 2.034 . S
O338 C322 1.251 1_545 S
O338 Zn329 2.039 . S
C339 O344 1.246 1_565 S
C339 O345 1.249 . S
O340 C322 1.254 . S
O340 Zn337 2.025 . S
H341 C333 0.952 . S
H342 C324 0.952 . S
H343 C332 0.948 . S
O344 Zn329 2.034 . S
O344 C339 1.246 1_545 S
O345 Zn337 2.024 . S
O345 C339 1.249 . S
H346 C328 0.948 . S
O347 Zn337 2.039 . S
O347 C351 1.251 1_565 S
O348 Zn329 2.025 . S
O348 C351 1.254 . S
O349 C330 1.246 1_565 S
O349 Zn337 2.034 . S
O350 Zn329 2.024 . S
O350 C330 1.249 . S
C351 O347 1.251 1_545 S
C351 O348 1.254 . S
H352 C325 0.949 . S
H353 C327 0.950 . S
H354 C334 0.949 . S
H355 C336 0.950 . S
C356 O372 1.251 . S
C356 O374 1.254 . S
N357 C358 1.333 . S
N357 C362 1.307 . S
N357 Zn363 2.020 . S
C358 N357 1.333 . S
C358 C359 1.379 . S
C358 H376 0.952 . S
C359 C358 1.379 . S
C359 C360 1.390 . S
C359 H386 0.949 . S
C360 C359 1.390 . S
C360 C361 1.357 . S
C361 C360 1.357 . S
C361 C362 1.370 . S
C361 H387 0.950 . S
C362 N357 1.307 . S
C362 C361 1.370 . S
C362 H380 0.948 . S
Zn363 N357 2.020 . S
Zn363 O372 2.039 . S
Zn363 O378 2.034 . S
Zn363 O382 2.025 . S
Zn363 O384 2.024 . S
C364 O383 1.246 . S
C364 O384 1.249 . S
N365 C366 1.307 . S
N365 C367 1.333 . S
N365 Zn371 2.020 . S
C366 N365 1.307 . S
C366 C370 1.370 . S
C366 H377 0.948 . S
C367 N365 1.333 . S
C367 C368 1.379 . S
C367 H375 0.952 . S
C368 C367 1.379 . S
C368 C369 1.390 . S
C368 H388 0.949 . S
C369 C368 1.390 . S
C369 C370 1.357 . S
C370 C366 1.370 . S
C370 C369 1.357 . S
C370 H389 0.950 . S
Zn371 N365 2.020 . S
Zn371 O374 2.025 . S
Zn371 O379 2.024 . S
Zn371 O381 2.039 . S
Zn371 O383 2.034 . S
O372 C356 1.251 . S
O372 Zn363 2.039 . S
C373 O378 1.246 . S
C373 O379 1.249 . S
O374 C356 1.254 . S
O374 Zn371 2.025 . S
H375 C367 0.952 . S
H376 C358 0.952 . S
H377 C366 0.948 . S
O378 Zn363 2.034 . S
O378 C373 1.246 . S
O379 Zn371 2.024 . S
O379 C373 1.249 . S
H380 C362 0.948 . S
O381 Zn371 2.039 . S
O381 C385 1.251 . S
O382 Zn363 2.025 . S
O382 C385 1.254 . S
O383 C364 1.246 . S
O383 Zn371 2.034 . S
O384 Zn363 2.024 . S
O384 C364 1.249 . S
C385 O381 1.251 . S
C385 O382 1.254 . S
H386 C359 0.949 . S
H387 C361 0.950 . S
H388 C368 0.949 . S
H389 C370 0.950 . S
C390 O406 1.251 . S
C390 O408 1.254 . S
N391 C392 1.333 . S
N391 C396 1.307 . S
N391 Zn397 2.020 . S
C392 N391 1.333 . S
C392 C393 1.379 . S
C392 H410 0.952 . S
C393 C392 1.379 . S
C393 C394 1.390 . S
C393 H420 0.949 . S
C394 C393 1.390 . S
C394 C395 1.357 . S
C395 C394 1.357 . S
C395 C396 1.370 . S
C395 H421 0.950 . S
C396 N391 1.307 . S
C396 C395 1.370 . S
C396 H414 0.948 . S
Zn397 N391 2.020 . S
Zn397 O406 2.039 . S
Zn397 O412 2.034 1_455 S
Zn397 O416 2.025 1_455 S
Zn397 O418 2.024 . S
C398 O417 1.246 . S
C398 O418 1.249 . S
N399 C400 1.307 . S
N399 C401 1.333 1_455 S
N399 Zn405 2.020 . S
C400 N399 1.307 . S
C400 C404 1.370 1_455 S
C400 H411 0.948 . S
C401 N399 1.333 1_655 S
C401 C402 1.379 . S
C401 H409 0.952 . S
C402 C401 1.379 . S
C402 C403 1.390 . S
C402 H422 0.949 . S
C403 C402 1.390 . S
C403 C404 1.357 . S
C404 C400 1.370 1_655 S
C404 C403 1.357 . S
C404 H423 0.950 . S
Zn405 N399 2.020 . S
Zn405 O408 2.025 . S
Zn405 O413 2.024 1_455 S
Zn405 O415 2.039 1_455 S
Zn405 O417 2.034 . S
O406 C390 1.251 . S
O406 Zn397 2.039 . S
C407 O412 1.246 . S
C407 O413 1.249 . S
O408 C390 1.254 . S
O408 Zn405 2.025 . S
H409 C401 0.952 . S
H410 C392 0.952 . S
H411 C400 0.948 . S
O412 Zn397 2.034 1_655 S
O412 C407 1.246 . S
O413 Zn405 2.024 1_655 S
O413 C407 1.249 . S
H414 C396 0.948 . S
O415 Zn405 2.039 1_655 S
O415 C419 1.251 . S
O416 Zn397 2.025 1_655 S
O416 C419 1.254 . S
O417 C398 1.246 . S
O417 Zn405 2.034 . S
O418 Zn397 2.024 . S
O418 C398 1.249 . S
C419 O415 1.251 . S
C419 O416 1.254 . S
H420 C393 0.949 . S
H421 C395 0.950 . S
H422 C402 0.949 . S
H423 C404 0.950 . S
H424 C436 0.930 . S
H425 C438 0.930 . S
H426 C439 0.930 . S
H427 C443 0.959 . S
H428 C443 0.959 . S
H429 C443 0.961 . S
H430 C444 0.960 . S
H431 C444 0.961 . S
H432 C444 0.959 . S
H433 C447 0.929 . S
H434 C448 0.931 . S
H435 C450 0.930 . S
C436 H424 0.930 . S
C436 C437 1.392 1_565 S
C436 C441 1.399 . S
C437 C436 1.392 1_545 S
C437 C438 1.385 . S
C438 H425 0.930 . S
C438 C437 1.385 . S
C438 C439 1.388 . S
C439 H426 0.930 . S
C439 C438 1.388 . S
C439 C440 1.390 . S
C440 C439 1.390 . S
C440 C441 1.394 1_545 S
C440 C446 1.465 . S
C441 C436 1.399 . S
C441 C440 1.394 1_565 S
C441 C442 1.516 . S
C442 C441 1.516 . S
C442 C443 1.502 . S
C442 C444 1.561 . S
C442 C445 1.526 . S
C443 H427 0.959 . S
C443 H428 0.959 . S
C443 H429 0.961 . S
C443 C442 1.502 . S
C444 H430 0.960 . S
C444 H431 0.961 . S
C444 H432 0.959 . S
C444 C442 1.561 . S
C445 C442 1.526 . S
C445 C446 1.396 1_565 S
C445 C450 1.390 . S
C446 C440 1.465 . S
C446 C445 1.396 1_545 S
C446 C447 1.399 . S
C447 H433 0.929 . S
C447 C446 1.399 . S
C447 C448 1.385 . S
C448 H434 0.931 . S
C448 C447 1.385 . S
C448 C449 1.389 1_545 S
C449 C448 1.389 1_565 S
C449 C450 1.387 . S
C450 H435 0.930 . S
C450 C445 1.390 . S
C450 C449 1.387 . S
H451 C463 0.930 . S
H452 C465 0.930 . S
H453 C466 0.930 . S
H454 C470 0.959 . S
H455 C470 0.959 . S
H456 C470 0.961 . S
H457 C471 0.960 . S
H458 C471 0.961 . S
H459 C471 0.959 . S
H460 C474 0.929 . S
H461 C475 0.931 . S
H462 C477 0.930 . S
C463 H451 0.930 . S
C463 C464 1.399 . S
C463 C468 1.399 . S
C464 C463 1.399 . S
C464 C465 1.376 . S
C465 H452 0.930 . S
C465 C464 1.376 . S
C465 C466 1.388 . S
C466 H453 0.930 . S
C466 C465 1.388 . S
C466 C467 1.390 . S
C467 C466 1.390 . S
C467 C468 1.394 . S
C467 C473 1.465 . S
C468 C463 1.399 . S
C468 C467 1.394 . S
C468 C469 1.516 . S
C469 C468 1.516 . S
C469 C470 1.502 . S
C469 C471 1.561 . S
C469 C472 1.526 . S
C470 H454 0.959 . S
C470 H455 0.959 . S
C470 H456 0.961 . S
C470 C469 1.502 . S
C471 H457 0.960 . S
C471 H458 0.961 . S
C471 H459 0.959 . S
C471 C469 1.561 . S
C472 C469 1.526 . S
C472 C473 1.396 . S
C472 C477 1.390 . S
C473 C467 1.465 . S
C473 C472 1.396 . S
C473 C474 1.399 . S
C474 H460 0.929 . S
C474 C473 1.399 . S
C474 C475 1.385 . S
C475 H461 0.931 . S
C475 C474 1.385 . S
C475 C476 1.389 . S
C476 C475 1.389 . S
C476 C477 1.387 . S
C477 H462 0.930 . S
C477 C472 1.390 . S
C477 C476 1.387 . S
H478 C490 0.930 . S
H479 C492 0.930 . S
H480 C493 0.930 . S
H481 C497 0.959 . S
H482 C497 0.959 . S
H483 C497 0.961 . S
H484 C498 0.960 . S
H485 C498 0.961 . S
H486 C498 0.959 . S
H487 C501 0.929 . S
H488 C502 0.931 . S
H489 C504 0.930 . S
C490 H478 0.930 . S
C490 C491 1.399 . S
C490 C495 1.399 . S
C491 C490 1.399 . S
C491 C492 1.376 . S
C492 H479 0.930 . S
C492 C491 1.376 . S
C492 C493 1.388 . S
C493 H480 0.930 . S
C493 C492 1.388 . S
C493 C494 1.390 . S
C494 C493 1.390 . S
C494 C495 1.394 . S
C494 C500 1.465 . S
C495 C490 1.399 . S
C495 C494 1.394 . S
C495 C496 1.516 . S
C496 C495 1.516 . S
C496 C497 1.502 . S
C496 C498 1.561 . S
C496 C499 1.526 . S
C497 H481 0.959 . S
C497 H482 0.959 . S
C497 H483 0.961 . S
C497 C496 1.502 . S
C498 H484 0.960 . S
C498 H485 0.961 . S
C498 H486 0.959 . S
C498 C496 1.561 . S
C499 C496 1.526 . S
C499 C500 1.396 . S
C499 C504 1.390 . S
C500 C494 1.465 . S
C500 C499 1.396 . S
C500 C501 1.399 . S
C501 H487 0.929 . S
C501 C500 1.399 . S
C501 C502 1.385 . S
C502 H488 0.931 . S
C502 C501 1.385 . S
C502 C503 1.389 . S
C503 C502 1.389 . S
C503 C504 1.387 . S
C504 H489 0.930 . S
C504 C499 1.390 . S
C504 C503 1.387 . S
H505 C517 0.930 . S
H506 C519 0.930 . S
H507 C520 0.930 . S
H508 C524 0.959 . S
H509 C524 0.959 . S
H510 C524 0.961 . S
H511 C525 0.960 . S
H512 C525 0.961 . S
H513 C525 0.959 . S
H514 C528 0.929 . S
H515 C529 0.931 . S
H516 C531 0.930 . S
C517 H505 0.930 . S
C517 C518 1.399 . S
C517 C522 1.399 . S
C518 C517 1.399 . S
C518 C519 1.376 . S
C519 H506 0.930 . S
C519 C518 1.376 . S
C519 C520 1.388 . S
C520 H507 0.930 . S
C520 C519 1.388 . S
C520 C521 1.390 . S
C521 C520 1.390 . S
C521 C522 1.394 . S
C521 C527 1.465 . S
C522 C517 1.399 . S
C522 C521 1.394 . S
C522 C523 1.516 . S
C523 C522 1.516 . S
C523 C524 1.502 . S
C523 C525 1.561 . S
C523 C526 1.526 . S
C524 H508 0.959 . S
C524 H509 0.959 . S
C524 H510 0.961 . S
C524 C523 1.502 . S
C525 H511 0.960 . S
C525 H512 0.961 . S
C525 H513 0.959 . S
C525 C523 1.561 . S
C526 C523 1.526 . S
C526 C527 1.396 . S
C526 C531 1.390 . S
C527 C521 1.465 . S
C527 C526 1.396 . S
C527 C528 1.399 . S
C528 H514 0.929 . S
C528 C527 1.399 . S
C528 C529 1.385 . S
C529 H515 0.931 . S
C529 C528 1.385 . S
C529 C530 1.389 . S
C530 C529 1.389 . S
C530 C531 1.387 . S
C531 H516 0.930 . S
C531 C526 1.390 . S
C531 C530 1.387 . S
H532 C544 0.930 . S
H533 C546 0.930 . S
H534 C547 0.930 . S
H535 C551 0.959 . S
H536 C551 0.959 . S
H537 C551 0.961 . S
H538 C552 0.960 . S
H539 C552 0.961 . S
H540 C552 0.959 . S
H541 C555 0.929 . S
H542 C556 0.931 . S
H543 C558 0.930 . S
C544 H532 0.930 . S
C544 C545 1.399 1_565 S
C544 C549 1.399 . S
C545 C544 1.399 1_545 S
C545 C546 1.376 . S
C546 H533 0.930 . S
C546 C545 1.376 . S
C546 C547 1.388 . S
C547 H534 0.930 . S
C547 C546 1.388 . S
C547 C548 1.390 . S
C548 C547 1.390 . S
C548 C549 1.394 1_545 S
C548 C554 1.465 . S
C549 C544 1.399 . S
C549 C548 1.394 1_565 S
C549 C550 1.516 . S
C550 C549 1.516 . S
C550 C551 1.502 . S
C550 C552 1.561 . S
C550 C553 1.526 . S
C551 H535 0.959 . S
C551 H536 0.959 . S
C551 H537 0.961 . S
C551 C550 1.502 . S
C552 H538 0.960 . S
C552 H539 0.961 . S
C552 H540 0.959 . S
C552 C550 1.561 . S
C553 C550 1.526 . S
C553 C554 1.396 1_565 S
C553 C558 1.390 . S
C554 C548 1.465 . S
C554 C553 1.396 1_545 S
C554 C555 1.399 . S
C555 H541 0.929 . S
C555 C554 1.399 . S
C555 C556 1.385 . S
C556 H542 0.931 . S
C556 C555 1.385 . S
C556 C557 1.389 . S
C557 C556 1.389 . S
C557 C558 1.387 1_545 S
C558 H543 0.930 . S
C558 C553 1.390 . S
C558 C557 1.387 1_565 S
H559 C571 0.930 . S
H560 C573 0.930 . S
H561 C574 0.930 . S
H562 C578 0.959 . S
H563 C578 0.959 . S
H564 C578 0.961 1_554 S
H565 C579 0.960 . S
H566 C579 0.961 . S
H567 C579 0.959 1_556 S
H568 C582 0.929 . S
H569 C583 0.931 . S
H570 C585 0.930 . S
C571 H559 0.930 . S
C571 C572 1.399 1_554 S
C571 C576 1.399 1_554 S
C572 C571 1.399 1_556 S
C572 C573 1.376 . S
C573 H560 0.930 . S
C573 C572 1.376 . S
C573 C574 1.388 . S
C574 H561 0.930 . S
C574 C573 1.388 . S
C574 C575 1.390 . S
C575 C574 1.390 . S
C575 C576 1.394 . S
C575 C581 1.465 . S
C576 C571 1.399 1_556 S
C576 C575 1.394 . S
C576 C577 1.516 . S
C577 C576 1.516 . S
C577 C578 1.502 . S
C577 C579 1.561 1_556 S
C577 C580 1.526 . S
C578 H562 0.959 . S
C578 H563 0.959 . S
C578 H564 0.961 1_556 S
C578 C577 1.502 . S
C579 H565 0.960 . S
C579 H566 0.961 . S
C579 H567 0.959 1_554 S
C579 C577 1.561 1_554 S
C580 C577 1.526 . S
C580 C581 1.396 . S
C580 C585 1.390 . S
C581 C575 1.465 . S
C581 C580 1.396 . S
C581 C582 1.399 . S
C582 H568 0.929 . S
C582 C581 1.399 . S
C582 C583 1.385 . S
C583 H569 0.931 . S
C583 C582 1.385 . S
C583 C584 1.389 . S
C584 C583 1.389 . S
C584 C585 1.387 . S
C585 H570 0.930 . S
C585 C580 1.390 . S
C585 C584 1.387 . S
H586 C598 0.930 . S
H587 C600 0.930 . S
H588 C601 0.930 . S
H589 C605 0.959 . S
H590 C605 0.959 . S
H591 C605 0.961 . S
H592 C606 0.960 . S
H593 C606 0.961 . S
H594 C606 0.959 . S
H595 C609 0.929 . S
H596 C610 0.931 . S
H597 C612 0.930 . S
C598 H586 0.930 . S
C598 C599 1.399 1_556 S
C598 C603 1.399 . S
C599 C598 1.399 1_554 S
C599 C600 1.376 . S
C600 H587 0.930 . S
C600 C599 1.376 . S
C600 C601 1.388 . S
C601 H588 0.930 . S
C601 C600 1.388 . S
C601 C602 1.390 1_554 S
C602 C601 1.390 1_556 S
C602 C603 1.394 . S
C602 C608 1.465 . S
C603 C598 1.399 . S
C603 C602 1.394 . S
C603 C604 1.516 . S
C604 C603 1.516 . S
C604 C605 1.502 . S
C604 C606 1.561 . S
C604 C607 1.526 . S
C605 H589 0.959 . S
C605 H590 0.959 . S
C605 H591 0.961 . S
C605 C604 1.502 . S
C606 H592 0.960 . S
C606 H593 0.961 . S
C606 H594 0.959 . S
C606 C604 1.561 . S
C607 C604 1.526 . S
C607 C608 1.396 . S
C607 C612 1.390 . S
C608 C602 1.465 . S
C608 C607 1.396 . S
C608 C609 1.399 . S
C609 H595 0.929 . S
C609 C608 1.399 . S
C609 C610 1.385 . S
C610 H596 0.931 . S
C610 C609 1.385 . S
C610 C611 1.389 . S
C611 C610 1.389 . S
C611 C612 1.387 . S
C612 H597 0.930 . S
C612 C607 1.390 . S
C612 C611 1.387 . S
H613 C625 0.930 . S
H614 C627 0.930 . S
H615 C628 0.930 . S
H616 C632 0.959 . S
H617 C632 0.959 . S
H618 C632 0.961 . S
H619 C633 0.960 . S
H620 C633 0.961 . S
H621 C633 0.959 . S
H622 C636 0.929 1_455 S
H623 C637 0.931 1_455 S
H624 C639 0.930 . S
C625 H613 0.930 . S
C625 C626 1.399 . S
C625 C630 1.399 . S
C626 C625 1.399 . S
C626 C627 1.376 . S
C627 H614 0.930 . S
C627 C626 1.376 . S
C627 C628 1.388 . S
C628 H615 0.930 . S
C628 C627 1.388 . S
C628 C629 1.390 . S
C629 C628 1.390 . S
C629 C630 1.394 . S
C629 C635 1.465 . S
C630 C625 1.399 . S
C630 C629 1.394 . S
C630 C631 1.516 . S
C631 C630 1.516 . S
C631 C632 1.502 . S
C631 C633 1.561 . S
C631 C634 1.526 . S
C632 H616 0.959 . S
C632 H617 0.959 . S
C632 H618 0.961 . S
C632 C631 1.502 . S
C633 H619 0.960 . S
C633 H620 0.961 . S
C633 H621 0.959 . S
C633 C631 1.561 . S
C634 C631 1.526 . S
C634 C635 1.396 . S
C634 C639 1.390 . S
C635 C629 1.465 . S
C635 C634 1.396 . S
C635 C636 1.399 . S
C636 H622 0.929 1_655 S
C636 C635 1.399 . S
C636 C637 1.385 . S
C637 H623 0.931 1_655 S
C637 C636 1.385 . S
C637 C638 1.389 . S
C638 C637 1.389 . S
C638 C639 1.387 . S
C639 H624 0.930 . S
C639 C634 1.390 . S
C639 C638 1.387 . S
H640 C652 0.930 . S
H641 C654 0.930 . S
H642 C655 0.930 . S
H643 C659 0.959 . S
H644 C659 0.959 . S
H645 C659 0.961 . S
H646 C660 0.960 . S
H647 C660 0.961 . S
H648 C660 0.959 . S
H649 C663 0.929 . S
H650 C664 0.931 . S
H651 C666 0.930 . S
C652 H640 0.930 . S
C652 C653 1.399 . S
C652 C657 1.399 . S
C653 C652 1.399 . S
C653 C654 1.376 . S
C654 H641 0.930 . S
C654 C653 1.376 . S
C654 C655 1.388 . S
C655 H642 0.930 . S
C655 C654 1.388 . S
C655 C656 1.390 . S
C656 C655 1.390 . S
C656 C657 1.394 . S
C656 C662 1.465 . S
C657 C652 1.399 . S
C657 C656 1.394 . S
C657 C658 1.516 . S
C658 C657 1.516 . S
C658 C659 1.502 . S
C658 C660 1.561 . S
C658 C661 1.526 . S
C659 H643 0.959 . S
C659 H644 0.959 . S
C659 H645 0.961 . S
C659 C658 1.502 . S
C660 H646 0.960 . S
C660 H647 0.961 . S
C660 H648 0.959 . S
C660 C658 1.561 . S
C661 C658 1.526 . S
C661 C662 1.396 . S
C661 C666 1.390 . S
C662 C656 1.465 . S
C662 C661 1.396 . S
C662 C663 1.399 . S
C663 H649 0.929 . S
C663 C662 1.399 . S
C663 C664 1.385 . S
C664 H650 0.931 . S
C664 C663 1.385 . S
C664 C665 1.389 . S
C665 C664 1.389 . S
C665 C666 1.387 . S
C666 H651 0.930 . S
C666 C661 1.390 . S
C666 C665 1.387 . S
H667 C679 0.930 . S
H668 C681 0.930 . S
H669 C682 0.930 . S
H670 C686 0.959 . S
H671 C686 0.959 . S
H672 C686 0.961 . S
H673 C687 0.960 . S
H674 C687 0.961 . S
H675 C687 0.959 . S
H676 C690 0.929 . S
H677 C691 0.931 . S
H678 C693 0.930 . S
C679 H667 0.930 . S
C679 C680 1.399 1_545 S
C679 C684 1.399 . S
C680 C679 1.399 1_565 S
C680 C681 1.376 . S
C681 H668 0.930 . S
C681 C680 1.376 . S
C681 C682 1.388 . S
C682 H669 0.930 . S
C682 C681 1.388 . S
C682 C683 1.390 . S
C683 C682 1.390 . S
C683 C684 1.394 1_565 S
C683 C689 1.465 . S
C684 C679 1.399 . S
C684 C683 1.394 1_545 S
C684 C685 1.516 . S
C685 C684 1.516 . S
C685 C686 1.502 . S
C685 C687 1.561 . S
C685 C688 1.526 . S
C686 H670 0.959 . S
C686 H671 0.959 . S
C686 H672 0.961 . S
C686 C685 1.502 . S
C687 H673 0.960 . S
C687 H674 0.961 . S
C687 H675 0.959 . S
C687 C685 1.561 . S
C688 C685 1.526 . S
C688 C689 1.396 1_545 S
C688 C693 1.390 . S
C689 C683 1.465 . S
C689 C688 1.396 1_565 S
C689 C690 1.399 . S
C690 H676 0.929 . S
C690 C689 1.399 . S
C690 C691 1.385 . S
C691 H677 0.931 . S
C691 C690 1.385 . S
C691 C692 1.389 . S
C692 C691 1.389 . S
C692 C693 1.387 1_565 S
C693 H678 0.930 . S
C693 C688 1.390 . S
C693 C692 1.387 1_545 S
H694 C706 0.930 . S
H695 C708 0.930 . S
H696 C709 0.930 . S
H697 C713 0.959 . S
H698 C713 0.959 . S
H699 C713 0.961 . S
H700 C714 0.960 . S
H701 C714 0.961 . S
H702 C714 0.959 . S
H703 C717 0.929 . S
H704 C718 0.931 . S
H705 C720 0.930 . S
C706 H694 0.930 . S
C706 C707 1.399 . S
C706 C711 1.399 . S
C707 C706 1.399 . S
C707 C708 1.376 . S
C708 H695 0.930 . S
C708 C707 1.376 . S
C708 C709 1.388 . S
C709 H696 0.930 . S
C709 C708 1.388 . S
C709 C710 1.390 . S
C710 C709 1.390 . S
C710 C711 1.394 . S
C710 C716 1.465 . S
C711 C706 1.399 . S
C711 C710 1.394 . S
C711 C712 1.516 . S
C712 C711 1.516 . S
C712 C713 1.502 . S
C712 C714 1.561 . S
C712 C715 1.526 . S
C713 H697 0.959 . S
C713 H698 0.959 . S
C713 H699 0.961 . S
C713 C712 1.502 . S
C714 H700 0.960 . S
C714 H701 0.961 . S
C714 H702 0.959 . S
C714 C712 1.561 . S
C715 C712 1.526 . S
C715 C716 1.396 . S
C715 C720 1.390 . S
C716 C710 1.465 . S
C716 C715 1.396 . S
C716 C717 1.399 . S
C717 H703 0.929 . S
C717 C716 1.399 . S
C717 C718 1.385 . S
C718 H704 0.931 . S
C718 C717 1.385 . S
C718 C719 1.389 . S
C719 C718 1.389 . S
C719 C720 1.387 . S
C720 H705 0.930 . S
C720 C715 1.390 . S
C720 C719 1.387 . S
H721 C733 0.930 . S
H722 C735 0.930 . S
H723 C736 0.930 . S
H724 C740 0.959 . S
H725 C740 0.959 . S
H726 C740 0.961 . S
H727 C741 0.960 . S
H728 C741 0.961 . S
H729 C741 0.959 . S
H730 C744 0.929 . S
H731 C745 0.931 . S
H732 C747 0.930 . S
C733 H721 0.930 . S
C733 C734 1.399 . S
C733 C738 1.399 . S
C734 C733 1.399 . S
C734 C735 1.376 . S
C735 H722 0.930 . S
C735 C734 1.376 . S
C735 C736 1.388 . S
C736 H723 0.930 . S
C736 C735 1.388 . S
C736 C737 1.390 . S
C737 C736 1.390 . S
C737 C738 1.394 . S
C737 C743 1.465 . S
C738 C733 1.399 . S
C738 C737 1.394 . S
C738 C739 1.516 . S
C739 C738 1.516 . S
C739 C740 1.502 . S
C739 C741 1.561 . S
C739 C742 1.526 . S
C740 H724 0.959 . S
C740 H725 0.959 . S
C740 H726 0.961 . S
C740 C739 1.502 . S
C741 H727 0.960 . S
C741 H728 0.961 . S
C741 H729 0.959 . S
C741 C739 1.561 . S
C742 C739 1.526 . S
C742 C743 1.396 . S
C742 C747 1.390 . S
C743 C737 1.465 . S
C743 C742 1.396 . S
C743 C744 1.399 . S
C744 H730 0.929 . S
C744 C743 1.399 . S
C744 C745 1.385 . S
C745 H731 0.931 . S
C745 C744 1.385 . S
C745 C746 1.389 . S
C746 C745 1.389 . S
C746 C747 1.387 . S
C747 H732 0.930 . S
C747 C742 1.390 . S
C747 C746 1.387 . S
H748 C760 0.930 . S
H749 C762 0.930 . S
H750 C763 0.930 . S
H751 C767 0.959 . S
H752 C767 0.959 . S
H753 C767 0.961 . S
H754 C768 0.960 . S
H755 C768 0.961 . S
H756 C768 0.959 . S
H757 C771 0.929 . S
H758 C772 0.931 . S
H759 C774 0.930 . S
C760 H748 0.930 . S
C760 C761 1.399 . S
C760 C765 1.399 . S
C761 C760 1.399 . S
C761 C762 1.376 . S
C762 H749 0.930 . S
C762 C761 1.376 . S
C762 C763 1.388 . S
C763 H750 0.930 . S
C763 C762 1.388 . S
C763 C764 1.390 . S
C764 C763 1.390 . S
C764 C765 1.394 . S
C764 C770 1.465 . S
C765 C760 1.399 . S
C765 C764 1.394 . S
C765 C766 1.516 . S
C766 C765 1.516 . S
C766 C767 1.502 . S
C766 C768 1.561 . S
C766 C769 1.526 . S
C767 H751 0.959 . S
C767 H752 0.959 . S
C767 H753 0.961 . S
C767 C766 1.502 . S
C768 H754 0.960 . S
C768 H755 0.961 . S
C768 H756 0.959 . S
C768 C766 1.561 . S
C769 C766 1.526 . S
C769 C770 1.396 . S
C769 C774 1.390 . S
C770 C764 1.465 . S
C770 C769 1.396 . S
C770 C771 1.399 . S
C771 H757 0.929 . S
C771 C770 1.399 . S
C771 C772 1.385 1_655 S
C772 H758 0.931 . S
C772 C771 1.385 1_455 S
C772 C773 1.389 . S
C773 C772 1.389 . S
C773 C774 1.387 1_455 S
C774 H759 0.930 . S
C774 C769 1.390 . S
C774 C773 1.387 1_655 S
H775 C787 0.930 . S
H776 C789 0.930 . S
H777 C790 0.930 . S
H778 C794 0.959 . S
H779 C794 0.959 . S
H780 C794 0.961 . S
H781 C795 0.960 . S
H782 C795 0.961 . S
H783 C795 0.959 . S
H784 C798 0.929 . S
H785 C799 0.931 . S
H786 C801 0.930 . S
C787 H775 0.930 . S
C787 C788 1.399 1_565 S
C787 C792 1.399 . S
C788 C787 1.399 1_545 S
C788 C789 1.376 . S
C789 H776 0.930 . S
C789 C788 1.376 . S
C789 C790 1.388 . S
C790 H777 0.930 . S
C790 C789 1.388 . S
C790 C791 1.390 . S
C791 C790 1.390 . S
C791 C792 1.394 1_545 S
C791 C797 1.465 . S
C792 C787 1.399 . S
C792 C791 1.394 1_565 S
C792 C793 1.516 . S
C793 C792 1.516 . S
C793 C794 1.502 . S
C793 C795 1.561 . S
C793 C796 1.526 . S
C794 H778 0.959 . S
C794 H779 0.959 . S
C794 H780 0.961 . S
C794 C793 1.502 . S
C795 H781 0.960 . S
C795 H782 0.961 . S
C795 H783 0.959 . S
C795 C793 1.561 . S
C796 C793 1.526 . S
C796 C797 1.396 1_565 S
C796 C801 1.390 . S
C797 C791 1.465 . S
C797 C796 1.396 1_545 S
C797 C798 1.399 . S
C798 H784 0.929 . S
C798 C797 1.399 . S
C798 C799 1.385 . S
C799 H785 0.931 . S
C799 C798 1.385 . S
C799 C800 1.389 . S
C800 C799 1.389 . S
C800 C801 1.387 1_545 S
C801 H786 0.930 . S
C801 C796 1.390 . S
C801 C800 1.387 1_565 S
H802 C814 0.930 . S
H803 C816 0.930 . S
H804 C817 0.930 . S
H805 C821 0.959 . S
H806 C821 0.959 . S
H807 C821 0.961 . S
H808 C822 0.960 . S
H809 C822 0.961 . S
H810 C822 0.959 . S
H811 C825 0.929 . S
H812 C826 0.931 . S
H813 C828 0.930 . S
C814 H802 0.930 . S
C814 C815 1.399 . S
C814 C819 1.399 . S
C815 C814 1.399 . S
C815 C816 1.376 . S
C816 H803 0.930 . S
C816 C815 1.376 . S
C816 C817 1.388 . S
C817 H804 0.930 . S
C817 C816 1.388 . S
C817 C818 1.390 . S
C818 C817 1.390 . S
C818 C819 1.394 . S
C818 C824 1.465 . S
C819 C814 1.399 . S
C819 C818 1.394 . S
C819 C820 1.516 . S
C820 C819 1.516 . S
C820 C821 1.502 . S
C820 C822 1.561 . S
C820 C823 1.526 . S
C821 H805 0.959 . S
C821 H806 0.959 . S
C821 H807 0.961 . S
C821 C820 1.502 . S
C822 H808 0.960 . S
C822 H809 0.961 . S
C822 H810 0.959 . S
C822 C820 1.561 . S
C823 C820 1.526 . S
C823 C824 1.396 . S
C823 C828 1.390 . S
C824 C818 1.465 . S
C824 C823 1.396 . S
C824 C825 1.399 . S
C825 H811 0.929 . S
C825 C824 1.399 . S
C825 C826 1.385 . S
C826 H812 0.931 . S
C826 C825 1.385 . S
C826 C827 1.389 . S
C827 C826 1.389 . S
C827 C828 1.387 . S
C828 H813 0.930 . S
C828 C823 1.390 . S
C828 C827 1.387 . S
H829 C841 0.930 1_554 S
H830 C843 0.930 . S
H831 C844 0.930 . S
H832 C848 0.959 . S
H833 C848 0.959 . S
H834 C848 0.961 1_554 S
H835 C849 0.960 . S
H836 C849 0.961 . S
H837 C849 0.959 . S
H838 C852 0.929 . S
H839 C853 0.931 . S
H840 C855 0.930 . S
C841 H829 0.930 1_556 S
C841 C842 1.399 . S
C841 C846 1.399 . S
C842 C841 1.399 . S
C842 C843 1.376 . S
C843 H830 0.930 . S
C843 C842 1.376 . S
C843 C844 1.388 . S
C844 H831 0.930 . S
C844 C843 1.388 . S
C844 C845 1.390 . S
C845 C844 1.390 . S
C845 C846 1.394 . S
C845 C851 1.465 . S
C846 C841 1.399 . S
C846 C845 1.394 . S
C846 C847 1.516 . S
C847 C846 1.516 . S
C847 C848 1.502 . S
C847 C849 1.561 . S
C847 C850 1.526 . S
C848 H832 0.959 . S
C848 H833 0.959 . S
C848 H834 0.961 1_556 S
C848 C847 1.502 . S
C849 H835 0.960 . S
C849 H836 0.961 . S
C849 H837 0.959 . S
C849 C847 1.561 . S
C850 C847 1.526 . S
C850 C851 1.396 . S
C850 C855 1.390 . S
C851 C845 1.465 . S
C851 C850 1.396 . S
C851 C852 1.399 . S
C852 H838 0.929 . S
C852 C851 1.399 . S
C852 C853 1.385 . S
C853 H839 0.931 . S
C853 C852 1.385 . S
C853 C854 1.389 . S
C854 C853 1.389 . S
C854 C855 1.387 . S
C855 H840 0.930 . S
C855 C850 1.390 . S
C855 C854 1.387 . S
H856 C868 0.930 . S
H857 C870 0.930 . S
H858 C871 0.930 . S
H859 C875 0.959 . S
H860 C875 0.959 . S
H861 C875 0.961 . S
H862 C876 0.960 . S
H863 C876 0.961 . S
H864 C876 0.959 . S
H865 C879 0.929 . S
H866 C880 0.931 . S
H867 C882 0.930 . S
C868 H856 0.930 . S
C868 C869 1.399 . S
C868 C873 1.399 . S
C869 C868 1.399 . S
C869 C870 1.376 . S
C870 H857 0.930 . S
C870 C869 1.376 . S
C870 C871 1.388 . S
C871 H858 0.930 . S
C871 C870 1.388 . S
C871 C872 1.390 . S
C872 C871 1.390 . S
C872 C873 1.394 . S
C872 C878 1.465 . S
C873 C868 1.399 . S
C873 C872 1.394 . S
C873 C874 1.516 1_554 S
C874 C873 1.516 1_556 S
C874 C875 1.502 . S
C874 C876 1.561 . S
C874 C877 1.526 . S
C875 H859 0.959 . S
C875 H860 0.959 . S
C875 H861 0.961 . S
C875 C874 1.502 . S
C876 H862 0.960 . S
C876 H863 0.961 . S
C876 H864 0.959 . S
C876 C874 1.561 . S
C877 C874 1.526 . S
C877 C878 1.396 1_556 S
C877 C882 1.390 . S
C878 C872 1.465 . S
C878 C877 1.396 1_554 S
C878 C879 1.399 . S
C879 H865 0.929 . S
C879 C878 1.399 . S
C879 C880 1.385 . S
C880 H866 0.931 . S
C880 C879 1.385 . S
C880 C881 1.389 1_554 S
C881 C880 1.389 1_556 S
C881 C882 1.387 . S
C882 H867 0.930 . S
C882 C877 1.390 . S
C882 C881 1.387 . S
H883 C895 0.930 . S
H884 C897 0.930 1_554 S
H885 C898 0.930 . S
H886 C902 0.959 . S
H887 C902 0.959 . S
H888 C902 0.961 . S
H889 C903 0.960 . S
H890 C903 0.961 1_556 S
H891 C903 0.959 . S
H892 C906 0.929 . S
H893 C907 0.931 . S
H894 C909 0.930 . S
C895 H883 0.930 . S
C895 C896 1.399 1_545 S
C895 C900 1.399 1_554 S
C896 C895 1.399 1_565 S
C896 C897 1.376 1_554 S
C897 H884 0.930 1_556 S
C897 C896 1.376 1_556 S
C897 C898 1.388 . S
C898 H885 0.930 . S
C898 C897 1.388 . S
C898 C899 1.390 . S
C899 C898 1.390 . S
C899 C900 1.394 1_565 S
C899 C905 1.465 . S
C900 C895 1.399 1_556 S
C900 C899 1.394 1_545 S
C900 C901 1.516 . S
C901 C900 1.516 . S
C901 C902 1.502 . S
C901 C903 1.561 1_556 S
C901 C904 1.526 . S
C902 H886 0.959 . S
C902 H887 0.959 . S
C902 H888 0.961 . S
C902 C901 1.502 . S
C903 H889 0.960 . S
C903 H890 0.961 1_554 S
C903 H891 0.959 . S
C903 C901 1.561 1_554 S
C904 C901 1.526 . S
C904 C905 1.396 1_545 S
C904 C909 1.390 . S
C905 C899 1.465 . S
C905 C904 1.396 1_565 S
C905 C906 1.399 . S
C906 H892 0.929 . S
C906 C905 1.399 . S
C906 C907 1.385 . S
C907 H893 0.931 . S
C907 C906 1.385 . S
C907 C908 1.350 1_565 S
C908 C907 1.350 1_545 S
C908 C909 1.420 . S
C909 H894 0.930 . S
C909 C904 1.390 . S
C909 C908 1.420 . S
H910 C922 0.930 . S
H911 C924 0.930 . S
H912 C925 0.930 . S
H913 C929 0.959 . S
H914 C929 0.959 . S
H915 C929 0.961 . S
H916 C930 0.960 . S
H917 C930 0.961 . S
H918 C930 0.959 1_556 S
H919 C933 0.929 . S
H920 C934 0.931 . S
H921 C936 0.930 . S
C922 H910 0.930 . S
C922 C923 1.399 . S
C922 C927 1.399 1_554 S
C923 C922 1.399 . S
C923 C924 1.376 1_554 S
C924 H911 0.930 . S
C924 C923 1.376 1_556 S
C924 C925 1.388 . S
C925 H912 0.930 . S
C925 C924 1.388 . S
C925 C926 1.390 . S
C926 C925 1.390 . S
C926 C927 1.394 . S
C926 C932 1.465 . S
C927 C922 1.399 1_556 S
C927 C926 1.394 . S
C927 C928 1.516 . S
C928 C927 1.516 . S
C928 C929 1.502 1_556 S
C928 C930 1.561 1_556 S
C928 C931 1.526 . S
C929 H913 0.959 . S
C929 H914 0.959 . S
C929 H915 0.961 . S
C929 C928 1.502 1_554 S
C930 H916 0.960 . S
C930 H917 0.961 . S
C930 H918 0.959 1_554 S
C930 C928 1.561 1_554 S
C931 C928 1.526 . S
C931 C932 1.396 . S
C931 C936 1.390 . S
C932 C926 1.465 . S
C932 C931 1.396 . S
C932 C933 1.399 . S
C933 H919 0.929 . S
C933 C932 1.399 . S
C933 C934 1.385 . S
C934 H920 0.931 . S
C934 C933 1.385 . S
C934 C935 1.389 . S
C935 C934 1.389 . S
C935 C936 1.387 . S
C936 H921 0.930 . S
C936 C931 1.390 . S
C936 C935 1.387 . S
H937 C949 0.930 . S
H938 C951 0.930 . S
H939 C952 0.930 . S
H940 C956 0.959 . S
H941 C956 0.959 . S
H942 C956 0.961 . S
H943 C957 0.960 1_554 S
H944 C957 0.961 . S
H945 C957 0.959 1_554 S
H946 C960 0.929 . S
H947 C961 0.931 . S
H948 C963 0.930 . S
C949 H937 0.930 . S
C949 C950 1.399 . S
C949 C954 1.399 . S
C950 C949 1.399 . S
C950 C951 1.376 . S
C951 H938 0.930 . S
C951 C950 1.376 . S
C951 C952 1.388 . S
C952 H939 0.930 . S
C952 C951 1.388 . S
C952 C953 1.390 . S
C953 C952 1.390 . S
C953 C954 1.394 . S
C953 C959 1.465 . S
C954 C949 1.399 . S
C954 C953 1.394 . S
C954 C955 1.516 . S
C955 C954 1.516 . S
C955 C956 1.502 . S
C955 C957 1.561 . S
C955 C958 1.526 . S
C956 H940 0.959 . S
C956 H941 0.959 . S
C956 H942 0.961 . S
C956 C955 1.502 . S
C957 H943 0.960 1_556 S
C957 H944 0.961 . S
C957 H945 0.959 1_556 S
C957 C955 1.561 . S
C958 C955 1.526 . S
C958 C959 1.396 . S
C958 C963 1.390 . S
C959 C953 1.465 . S
C959 C958 1.396 . S
C959 C960 1.399 . S
C960 H946 0.929 . S
C960 C959 1.399 . S
C960 C961 1.385 . S
C961 H947 0.931 . S
C961 C960 1.385 . S
C961 C962 1.389 . S
C962 C961 1.389 . S
C962 C963 1.387 . S
C963 H948 0.930 . S
C963 C958 1.390 . S
C963 C962 1.387 . S
H964 C976 0.930 . S
H965 C978 0.930 . S
H966 C979 0.930 . S
H967 C983 0.959 . S
H968 C983 0.959 . S
H969 C983 0.961 . S
H970 C984 0.960 . S
H971 C984 0.961 . S
H972 C984 0.959 . S
H973 C987 0.929 . S
H974 C988 0.931 . S
H975 C990 0.930 . S
C976 H964 0.930 . S
C976 C977 1.399 . S
C976 C981 1.399 . S
C977 C976 1.399 . S
C977 C978 1.376 . S
C978 H965 0.930 . S
C978 C977 1.376 . S
C978 C979 1.388 . S
C979 H966 0.930 . S
C979 C978 1.388 . S
C979 C980 1.390 . S
C980 C979 1.390 . S
C980 C981 1.394 . S
C980 C986 1.465 . S
C981 C976 1.399 . S
C981 C980 1.394 . S
C981 C982 1.516 . S
C982 C981 1.516 . S
C982 C983 1.502 . S
C982 C984 1.561 . S
C982 C985 1.526 . S
C983 H967 0.959 . S
C983 H968 0.959 . S
C983 H969 0.961 . S
C983 C982 1.502 . S
C984 H970 0.960 . S
C984 H971 0.961 . S
C984 H972 0.959 . S
C984 C982 1.561 . S
C985 C982 1.526 . S
C985 C986 1.396 . S
C985 C990 1.390 . S
C986 C980 1.465 . S
C986 C985 1.396 . S
C986 C987 1.399 . S
C987 H973 0.929 . S
C987 C986 1.399 . S
C987 C988 1.385 . S
C988 H974 0.931 . S
C988 C987 1.385 . S
C988 C989 1.389 . S
C989 C988 1.389 . S
C989 C990 1.387 . S
C990 H975 0.930 . S
C990 C985 1.390 . S
C990 C989 1.387 . S
H991 C1003 0.930 . S
H992 C1005 0.930 . S
H993 C1006 0.930 . S
H994 C1010 0.959 . S
H995 C1010 0.959 . S
H996 C1010 0.961 . S
H997 C1011 0.960 . S
H998 C1011 0.961 . S
H999 C1011 0.959 . S
H1000 C1014 0.929 . S
H1001 C1015 0.931 . S
H1002 C1017 0.930 . S
C1003 H991 0.930 . S
C1003 C1004 1.399 1_545 S
C1003 C1008 1.399 . S
C1004 C1003 1.399 1_565 S
C1004 C1005 1.376 . S
C1005 H992 0.930 . S
C1005 C1004 1.376 . S
C1005 C1006 1.388 . S
C1006 H993 0.930 . S
C1006 C1005 1.388 . S
C1006 C1007 1.390 . S
C1007 C1006 1.390 . S
C1007 C1008 1.394 1_565 S
C1007 C1013 1.465 . S
C1008 C1003 1.399 . S
C1008 C1007 1.394 1_545 S
C1008 C1009 1.516 . S
C1009 C1008 1.516 . S
C1009 C1010 1.502 . S
C1009 C1011 1.561 . S
C1009 C1012 1.526 . S
C1010 H994 0.959 . S
C1010 H995 0.959 . S
C1010 H996 0.961 . S
C1010 C1009 1.502 . S
C1011 H997 0.960 . S
C1011 H998 0.961 . S
C1011 H999 0.959 . S
C1011 C1009 1.561 . S
C1012 C1009 1.526 . S
C1012 C1013 1.396 1_545 S
C1012 C1017 1.390 . S
C1013 C1007 1.465 . S
C1013 C1012 1.396 1_565 S
C1013 C1014 1.399 . S
C1014 H1000 0.929 . S
C1014 C1013 1.399 . S
C1014 C1015 1.385 . S
C1015 H1001 0.931 . S
C1015 C1014 1.385 . S
C1015 C1016 1.389 . S
C1016 C1015 1.389 . S
C1016 C1017 1.387 1_565 S
C1017 H1002 0.930 . S
C1017 C1012 1.390 . S
C1017 C1016 1.387 1_545 S
H1018 C1030 0.930 . S
H1019 C1032 0.930 . S
H1020 C1033 0.930 . S
H1021 C1037 0.959 . S
H1022 C1037 0.959 . S
H1023 C1037 0.961 . S
H1024 C1038 0.960 . S
H1025 C1038 0.961 . S
H1026 C1038 0.959 . S
H1027 C1041 0.929 . S
H1028 C1042 0.931 . S
H1029 C1044 0.930 . S
C1030 H1018 0.930 . S
C1030 C1031 1.399 . S
C1030 C1035 1.399 . S
C1031 C1030 1.399 . S
C1031 C1032 1.376 . S
C1032 H1019 0.930 . S
C1032 C1031 1.376 . S
C1032 C1033 1.388 . S
C1033 H1020 0.930 . S
C1033 C1032 1.388 . S
C1033 C1034 1.390 . S
C1034 C1033 1.390 . S
C1034 C1035 1.394 . S
C1034 C1040 1.465 . S
C1035 C1030 1.399 . S
C1035 C1034 1.394 . S
C1035 C1036 1.516 . S
C1036 C1035 1.516 . S
C1036 C1037 1.502 . S
C1036 C1038 1.561 . S
C1036 C1039 1.526 . S
C1037 H1021 0.959 . S
C1037 H1022 0.959 . S
C1037 H1023 0.961 . S
C1037 C1036 1.502 . S
C1038 H1024 0.960 . S
C1038 H1025 0.961 . S
C1038 H1026 0.959 . S
C1038 C1036 1.561 . S
C1039 C1036 1.526 . S
C1039 C1040 1.396 . S
C1039 C1044 1.390 . S
C1040 C1034 1.465 . S
C1040 C1039 1.396 . S
C1040 C1041 1.399 . S
C1041 H1027 0.929 . S
C1041 C1040 1.399 . S
C1041 C1042 1.385 . S
C1042 H1028 0.931 . S
C1042 C1041 1.385 . S
C1042 C1043 1.389 . S
C1043 C1042 1.389 . S
C1043 C1044 1.387 . S
C1044 H1029 0.930 . S
C1044 C1039 1.390 . S
C1044 C1043 1.387 . S
H1045 C1057 0.930 . S
H1046 C1059 0.930 . S
H1047 C1060 0.930 . S
H1048 C1064 0.959 . S
H1049 C1064 0.959 . S
H1050 C1064 0.961 . S
H1051 C1065 0.960 . S
H1052 C1065 0.961 . S
H1053 C1065 0.959 . S
H1054 C1068 0.929 . S
H1055 C1069 0.931 . S
H1056 C1071 0.930 . S
C1057 H1045 0.930 . S
C1057 C1058 1.399 . S
C1057 C1062 1.399 . S
C1058 C1057 1.399 . S
C1058 C1059 1.376 . S
C1059 H1046 0.930 . S
C1059 C1058 1.376 . S
C1059 C1060 1.388 . S
C1060 H1047 0.930 . S
C1060 C1059 1.388 . S
C1060 C1061 1.390 . S
C1061 C1060 1.390 . S
C1061 C1062 1.394 . S
C1061 C1067 1.465 . S
C1062 C1057 1.399 . S
C1062 C1061 1.394 . S
C1062 C1063 1.516 . S
C1063 C1062 1.516 . S
C1063 C1064 1.502 . S
C1063 C1065 1.561 . S
C1063 C1066 1.526 . S
C1064 H1048 0.959 . S
C1064 H1049 0.959 . S
C1064 H1050 0.961 . S
C1064 C1063 1.502 . S
C1065 H1051 0.960 . S
C1065 H1052 0.961 . S
C1065 H1053 0.959 . S
C1065 C1063 1.561 . S
C1066 C1063 1.526 . S
C1066 C1067 1.396 . S
C1066 C1071 1.390 . S
C1067 C1061 1.465 . S
C1067 C1066 1.396 . S
C1067 C1068 1.399 . S
C1068 H1054 0.929 . S
C1068 C1067 1.399 . S
C1068 C1069 1.385 . S
C1069 H1055 0.931 . S
C1069 C1068 1.385 . S
C1069 C1070 1.389 . S
C1070 C1069 1.389 . S
C1070 C1071 1.387 . S
C1071 H1056 0.930 . S
C1071 C1066 1.390 . S
C1071 C1070 1.387 . S
C437 C241 1.815 . S
C449 C305 1.887 . S
C476 C326 1.760 . S
C464 C277 1.640 . S
C503 C360 1.524 . S
C491 C169 1.516 . S
C530 C394 1.693 . S
C518 C205 1.708 . S
C557 C296 1.896 . S
C545 C97 1.806 1_556 S
C572 C133 1.731 1_556 S
C584 C335 1.746 . S
C599 C25 1.560 . S
C611 C369 1.532 . S
C626 C61 1.590 . S
C638 C403 1.717 . S
C665 C317 0.519 . S
C653 C211 0.794 . S
C692 C322 0.516 . S
C680 C247 0.507 1_565 S
C719 C356 0.551 . S
C707 C253 0.740 . S
C734 C175 0.450 . S
C746 C390 0.232 . S
C761 C67 0.752 . S
C773 C288 0.610 . S
C800 C351 0.522 . S
C788 C103 0.379 . S
C827 C385 0.575 . S
C815 C109 0.657 . S
C842 C31 0.410 . S
C854 C419 0.161 . S
C869 C181 1.649 . S
C881 C301 1.769 . S
C896 C217 2.036 1_565 S
C908 C330 2.127 . S
C935 C364 1.874 . S
C923 C283 1.772 . S
C962 C398 1.915 . S
C950 C145 1.815 1_556 S
C977 C37 1.694 . S
C989 C292 1.742 . S
C1016 C339 2.134 . S
C1004 C73 2.015 1_565 S
C1043 C373 1.890 . S
C1031 C139 1.742 . S
C1058 C1 1.800 . S
C1070 C407 1.937 . S
