# Generated by pormake.
# Topology tbo, (3,4)-cn, num edge types: 1
# Building blocks:
#     Node 0, Type 0, BuildingBlock: WUSLED_clean_sbu_0, # of connection points: 3
#     Node 1, Type 0, BuildingBlock: WUSLED_clean_sbu_0, # of connection points: 3
#     Node 2, Type 0, BuildingBlock: WUSLED_clean_sbu_0, # of connection points: 3
#     Node 3, Type 0, BuildingBlock: WUSLED_clean_sbu_0, # of connection points: 3
#     Node 4, Type 0, BuildingBlock: WUSLED_clean_sbu_0, # of connection points: 3
#     Node 5, Type 0, BuildingBlock: WUSLED_clean_sbu_0, # of connection points: 3
#     Node 6, Type 0, BuildingBlock: WUSLED_clean_sbu_0, # of connection points: 3
#     Node 7, Type 0, BuildingBlock: WUSLED_clean_sbu_0, # of connection points: 3
#     Node 8, Type 0, BuildingBlock: WUSLED_clean_sbu_0, # of connection points: 3
#     Node 9, Type 0, BuildingBlock: WUSLED_clean_sbu_0, # of connection points: 3
#     Node 10, Type 0, BuildingBlock: WUSLED_clean_sbu_0, # of connection points: 3
#     Node 11, Type 0, BuildingBlock: WUSLED_clean_sbu_0, # of connection points: 3
#     Node 12, Type 0, BuildingBlock: WUSLED_clean_sbu_0, # of connection points: 3
#     Node 13, Type 0, BuildingBlock: WUSLED_clean_sbu_0, # of connection points: 3
#     Node 14, Type 0, BuildingBlock: WUSLED_clean_sbu_0, # of connection points: 3
#     Node 15, Type 0, BuildingBlock: WUSLED_clean_sbu_0, # of connection points: 3
#     Node 16, Type 0, BuildingBlock: WUSLED_clean_sbu_0, # of connection points: 3
#     Node 17, Type 0, BuildingBlock: WUSLED_clean_sbu_0, # of connection points: 3
#     Node 18, Type 0, BuildingBlock: WUSLED_clean_sbu_0, # of connection points: 3
#     Node 19, Type 0, BuildingBlock: WUSLED_clean_sbu_0, # of connection points: 3
#     Node 20, Type 0, BuildingBlock: WUSLED_clean_sbu_0, # of connection points: 3
#     Node 21, Type 0, BuildingBlock: WUSLED_clean_sbu_0, # of connection points: 3
#     Node 22, Type 0, BuildingBlock: WUSLED_clean_sbu_0, # of connection points: 3
#     Node 23, Type 0, BuildingBlock: WUSLED_clean_sbu_0, # of connection points: 3
#     Node 24, Type 0, BuildingBlock: WUSLED_clean_sbu_0, # of connection points: 3
#     Node 25, Type 0, BuildingBlock: WUSLED_clean_sbu_0, # of connection points: 3
#     Node 26, Type 0, BuildingBlock: WUSLED_clean_sbu_0, # of connection points: 3
#     Node 27, Type 0, BuildingBlock: WUSLED_clean_sbu_0, # of connection points: 3
#     Node 28, Type 0, BuildingBlock: WUSLED_clean_sbu_0, # of connection points: 3
#     Node 29, Type 0, BuildingBlock: WUSLED_clean_sbu_0, # of connection points: 3
#     Node 30, Type 0, BuildingBlock: WUSLED_clean_sbu_0, # of connection points: 3
#     Node 31, Type 0, BuildingBlock: WUSLED_clean_sbu_0, # of connection points: 3
#     Node 32, Type 1, BuildingBlock: NAWXER_clean_linker_0, # of connection points: 4
#     Node 33, Type 1, BuildingBlock: NAWXER_clean_linker_0, # of connection points: 4
#     Node 34, Type 1, BuildingBlock: NAWXER_clean_linker_0, # of connection points: 4
#     Node 35, Type 1, BuildingBlock: NAWXER_clean_linker_0, # of connection points: 4
#     Node 36, Type 1, BuildingBlock: NAWXER_clean_linker_0, # of connection points: 4
#     Node 37, Type 1, BuildingBlock: NAWXER_clean_linker_0, # of connection points: 4
#     Node 38, Type 1, BuildingBlock: NAWXER_clean_linker_0, # of connection points: 4
#     Node 39, Type 1, BuildingBlock: NAWXER_clean_linker_0, # of connection points: 4
#     Node 40, Type 1, BuildingBlock: NAWXER_clean_linker_0, # of connection points: 4
#     Node 41, Type 1, BuildingBlock: NAWXER_clean_linker_0, # of connection points: 4
#     Node 42, Type 1, BuildingBlock: NAWXER_clean_linker_0, # of connection points: 4
#     Node 43, Type 1, BuildingBlock: NAWXER_clean_linker_0, # of connection points: 4
#     Node 44, Type 1, BuildingBlock: NAWXER_clean_linker_0, # of connection points: 4
#     Node 45, Type 1, BuildingBlock: NAWXER_clean_linker_0, # of connection points: 4
#     Node 46, Type 1, BuildingBlock: NAWXER_clean_linker_0, # of connection points: 4
#     Node 47, Type 1, BuildingBlock: NAWXER_clean_linker_0, # of connection points: 4
#     Node 48, Type 1, BuildingBlock: NAWXER_clean_linker_0, # of connection points: 4
#     Node 49, Type 1, BuildingBlock: NAWXER_clean_linker_0, # of connection points: 4
#     Node 50, Type 1, BuildingBlock: NAWXER_clean_linker_0, # of connection points: 4
#     Node 51, Type 1, BuildingBlock: NAWXER_clean_linker_0, # of connection points: 4
#     Node 52, Type 1, BuildingBlock: NAWXER_clean_linker_0, # of connection points: 4
#     Node 53, Type 1, BuildingBlock: NAWXER_clean_linker_0, # of connection points: 4
#     Node 54, Type 1, BuildingBlock: NAWXER_clean_linker_0, # of connection points: 4
#     Node 55, Type 1, BuildingBlock: NAWXER_clean_linker_0, # of connection points: 4
#     Edge 56, Type (0, 1), BuildingBlock: ZUJKAS_clean_linker_0, # of connection points: 2
#     Edge 57, Type (0, 1), BuildingBlock: ZUJKAS_clean_linker_0, # of connection points: 2
#     Edge 58, Type (0, 1), BuildingBlock: ZUJKAS_clean_linker_0, # of connection points: 2
#     Edge 59, Type (0, 1), BuildingBlock: ZUJKAS_clean_linker_0, # of connection points: 2
#     Edge 60, Type (0, 1), BuildingBlock: ZUJKAS_clean_linker_0, # of connection points: 2
#     Edge 61, Type (0, 1), BuildingBlock: ZUJKAS_clean_linker_0, # of connection points: 2
#     Edge 62, Type (0, 1), BuildingBlock: ZUJKAS_clean_linker_0, # of connection points: 2
#     Edge 63, Type (0, 1), BuildingBlock: ZUJKAS_clean_linker_0, # of connection points: 2
#     Edge 64, Type (0, 1), BuildingBlock: ZUJKAS_clean_linker_0, # of connection points: 2
#     Edge 65, Type (0, 1), BuildingBlock: ZUJKAS_clean_linker_0, # of connection points: 2
#     Edge 66, Type (0, 1), BuildingBlock: ZUJKAS_clean_linker_0, # of connection points: 2
#     Edge 67, Type (0, 1), BuildingBlock: ZUJKAS_clean_linker_0, # of connection points: 2
#     Edge 68, Type (0, 1), BuildingBlock: ZUJKAS_clean_linker_0, # of connection points: 2
#     Edge 69, Type (0, 1), BuildingBlock: ZUJKAS_clean_linker_0, # of connection points: 2
#     Edge 70, Type (0, 1), BuildingBlock: ZUJKAS_clean_linker_0, # of connection points: 2
#     Edge 71, Type (0, 1), BuildingBlock: ZUJKAS_clean_linker_0, # of connection points: 2
#     Edge 72, Type (0, 1), BuildingBlock: ZUJKAS_clean_linker_0, # of connection points: 2
#     Edge 73, Type (0, 1), BuildingBlock: ZUJKAS_clean_linker_0, # of connection points: 2
#     Edge 74, Type (0, 1), BuildingBlock: ZUJKAS_clean_linker_0, # of connection points: 2
#     Edge 75, Type (0, 1), BuildingBlock: ZUJKAS_clean_linker_0, # of connection points: 2
#     Edge 76, Type (0, 1), BuildingBlock: ZUJKAS_clean_linker_0, # of connection points: 2
#     Edge 77, Type (0, 1), BuildingBlock: ZUJKAS_clean_linker_0, # of connection points: 2
#     Edge 78, Type (0, 1), BuildingBlock: ZUJKAS_clean_linker_0, # of connection points: 2
#     Edge 79, Type (0, 1), BuildingBlock: ZUJKAS_clean_linker_0, # of connection points: 2
#     Edge 80, Type (0, 1), BuildingBlock: ZUJKAS_clean_linker_0, # of connection points: 2
#     Edge 81, Type (0, 1), BuildingBlock: ZUJKAS_clean_linker_0, # of connection points: 2
#     Edge 82, Type (0, 1), BuildingBlock: ZUJKAS_clean_linker_0, # of connection points: 2
#     Edge 83, Type (0, 1), BuildingBlock: ZUJKAS_clean_linker_0, # of connection points: 2
#     Edge 84, Type (0, 1), BuildingBlock: ZUJKAS_clean_linker_0, # of connection points: 2
#     Edge 85, Type (0, 1), BuildingBlock: ZUJKAS_clean_linker_0, # of connection points: 2
#     Edge 86, Type (0, 1), BuildingBlock: ZUJKAS_clean_linker_0, # of connection points: 2
#     Edge 87, Type (0, 1), BuildingBlock: ZUJKAS_clean_linker_0, # of connection points: 2
#     Edge 88, Type (0, 1), BuildingBlock: ZUJKAS_clean_linker_0, # of connection points: 2
#     Edge 89, Type (0, 1), BuildingBlock: ZUJKAS_clean_linker_0, # of connection points: 2
#     Edge 90, Type (0, 1), BuildingBlock: ZUJKAS_clean_linker_0, # of connection points: 2
#     Edge 91, Type (0, 1), BuildingBlock: ZUJKAS_clean_linker_0, # of connection points: 2
#     Edge 92, Type (0, 1), BuildingBlock: ZUJKAS_clean_linker_0, # of connection points: 2
#     Edge 93, Type (0, 1), BuildingBlock: ZUJKAS_clean_linker_0, # of connection points: 2
#     Edge 94, Type (0, 1), BuildingBlock: ZUJKAS_clean_linker_0, # of connection points: 2
#     Edge 95, Type (0, 1), BuildingBlock: ZUJKAS_clean_linker_0, # of connection points: 2
#     Edge 96, Type (0, 1), BuildingBlock: ZUJKAS_clean_linker_0, # of connection points: 2
#     Edge 97, Type (0, 1), BuildingBlock: ZUJKAS_clean_linker_0, # of connection points: 2
#     Edge 98, Type (0, 1), BuildingBlock: ZUJKAS_clean_linker_0, # of connection points: 2
#     Edge 99, Type (0, 1), BuildingBlock: ZUJKAS_clean_linker_0, # of connection points: 2
#     Edge 100, Type (0, 1), BuildingBlock: ZUJKAS_clean_linker_0, # of connection points: 2
#     Edge 101, Type (0, 1), BuildingBlock: ZUJKAS_clean_linker_0, # of connection points: 2
#     Edge 102, Type (0, 1), BuildingBlock: ZUJKAS_clean_linker_0, # of connection points: 2
#     Edge 103, Type (0, 1), BuildingBlock: ZUJKAS_clean_linker_0, # of connection points: 2
#     Edge 104, Type (0, 1), BuildingBlock: ZUJKAS_clean_linker_0, # of connection points: 2
#     Edge 105, Type (0, 1), BuildingBlock: ZUJKAS_clean_linker_0, # of connection points: 2
#     Edge 106, Type (0, 1), BuildingBlock: ZUJKAS_clean_linker_0, # of connection points: 2
#     Edge 107, Type (0, 1), BuildingBlock: ZUJKAS_clean_linker_0, # of connection points: 2
#     Edge 108, Type (0, 1), BuildingBlock: ZUJKAS_clean_linker_0, # of connection points: 2
#     Edge 109, Type (0, 1), BuildingBlock: ZUJKAS_clean_linker_0, # of connection points: 2
#     Edge 110, Type (0, 1), BuildingBlock: ZUJKAS_clean_linker_0, # of connection points: 2
#     Edge 111, Type (0, 1), BuildingBlock: ZUJKAS_clean_linker_0, # of connection points: 2
#     Edge 112, Type (0, 1), BuildingBlock: ZUJKAS_clean_linker_0, # of connection points: 2
#     Edge 113, Type (0, 1), BuildingBlock: ZUJKAS_clean_linker_0, # of connection points: 2
#     Edge 114, Type (0, 1), BuildingBlock: ZUJKAS_clean_linker_0, # of connection points: 2
#     Edge 115, Type (0, 1), BuildingBlock: ZUJKAS_clean_linker_0, # of connection points: 2
#     Edge 116, Type (0, 1), BuildingBlock: ZUJKAS_clean_linker_0, # of connection points: 2
#     Edge 117, Type (0, 1), BuildingBlock: ZUJKAS_clean_linker_0, # of connection points: 2
#     Edge 118, Type (0, 1), BuildingBlock: ZUJKAS_clean_linker_0, # of connection points: 2
#     Edge 119, Type (0, 1), BuildingBlock: ZUJKAS_clean_linker_0, # of connection points: 2
#     Edge 120, Type (0, 1), BuildingBlock: ZUJKAS_clean_linker_0, # of connection points: 2
#     Edge 121, Type (0, 1), BuildingBlock: ZUJKAS_clean_linker_0, # of connection points: 2
#     Edge 122, Type (0, 1), BuildingBlock: ZUJKAS_clean_linker_0, # of connection points: 2
#     Edge 123, Type (0, 1), BuildingBlock: ZUJKAS_clean_linker_0, # of connection points: 2
#     Edge 124, Type (0, 1), BuildingBlock: ZUJKAS_clean_linker_0, # of connection points: 2
#     Edge 125, Type (0, 1), BuildingBlock: ZUJKAS_clean_linker_0, # of connection points: 2
#     Edge 126, Type (0, 1), BuildingBlock: ZUJKAS_clean_linker_0, # of connection points: 2
#     Edge 127, Type (0, 1), BuildingBlock: ZUJKAS_clean_linker_0, # of connection points: 2
#     Edge 128, Type (0, 1), BuildingBlock: ZUJKAS_clean_linker_0, # of connection points: 2
#     Edge 129, Type (0, 1), BuildingBlock: ZUJKAS_clean_linker_0, # of connection points: 2
#     Edge 130, Type (0, 1), BuildingBlock: ZUJKAS_clean_linker_0, # of connection points: 2
#     Edge 131, Type (0, 1), BuildingBlock: ZUJKAS_clean_linker_0, # of connection points: 2
#     Edge 132, Type (0, 1), BuildingBlock: ZUJKAS_clean_linker_0, # of connection points: 2
#     Edge 133, Type (0, 1), BuildingBlock: ZUJKAS_clean_linker_0, # of connection points: 2
#     Edge 134, Type (0, 1), BuildingBlock: ZUJKAS_clean_linker_0, # of connection points: 2
#     Edge 135, Type (0, 1), BuildingBlock: ZUJKAS_clean_linker_0, # of connection points: 2
#     Edge 136, Type (0, 1), BuildingBlock: ZUJKAS_clean_linker_0, # of connection points: 2
#     Edge 137, Type (0, 1), BuildingBlock: ZUJKAS_clean_linker_0, # of connection points: 2
#     Edge 138, Type (0, 1), BuildingBlock: ZUJKAS_clean_linker_0, # of connection points: 2
#     Edge 139, Type (0, 1), BuildingBlock: ZUJKAS_clean_linker_0, # of connection points: 2
#     Edge 140, Type (0, 1), BuildingBlock: ZUJKAS_clean_linker_0, # of connection points: 2
#     Edge 141, Type (0, 1), BuildingBlock: ZUJKAS_clean_linker_0, # of connection points: 2
#     Edge 142, Type (0, 1), BuildingBlock: ZUJKAS_clean_linker_0, # of connection points: 2
#     Edge 143, Type (0, 1), BuildingBlock: ZUJKAS_clean_linker_0, # of connection points: 2
#     Edge 144, Type (0, 1), BuildingBlock: ZUJKAS_clean_linker_0, # of connection points: 2
#     Edge 145, Type (0, 1), BuildingBlock: ZUJKAS_clean_linker_0, # of connection points: 2
#     Edge 146, Type (0, 1), BuildingBlock: ZUJKAS_clean_linker_0, # of connection points: 2
#     Edge 147, Type (0, 1), BuildingBlock: ZUJKAS_clean_linker_0, # of connection points: 2
#     Edge 148, Type (0, 1), BuildingBlock: ZUJKAS_clean_linker_0, # of connection points: 2
#     Edge 149, Type (0, 1), BuildingBlock: ZUJKAS_clean_linker_0, # of connection points: 2
#     Edge 150, Type (0, 1), BuildingBlock: ZUJKAS_clean_linker_0, # of connection points: 2
#     Edge 151, Type (0, 1), BuildingBlock: ZUJKAS_clean_linker_0, # of connection points: 2
# Relax obj value: 0.000
# Max RMSD: 0.012
# Mean RMSD: 0.006
data_MOF--net-tbo--node1-WUSLED_clean_sbu_0--node2-NAWXER_clean_linker_0--edge1-ZUJKAS_clean_linker_0
_symmetry_space_group_name_H-M    P1
_symmetry_Int_Tables_number       1
_symmetry_cell_setting            triclinic
loop_
_symmetry_equiv_pos_as_xyz
'x, y, z'
_cell_length_a     129.94643
_cell_length_b     130.24222
_cell_length_c     130.05322
_cell_angle_alpha  89.695776
_cell_angle_beta   90.300963
_cell_angle_gamma 90.650033
loop_
_atom_site_label
_atom_site_type_symbol
_atom_site_fract_x
_atom_site_fract_y
_atom_site_fract_z
_atom_type_partial_charge
C0 C 0.18126 0.15437 0.196 0.0
C1 C 0.18671 0.1483 0.18904 0.0
C2 C 0.19201 0.13687 0.203 0.0
C3 C 0.19202 0.13963 0.19251 0.0
C4 C 0.18669 0.14313 0.20994 0.0
C5 C 0.18136 0.15176 0.20646 0.0
U6 U 0.17569 0.17671 0.17739 0.0
O7 O 0.1608 0.18219 0.17146 0.0
O8 O 0.17064 0.1924 0.18072 0.0
C9 C 0.16166 0.19105 0.17619 0.0
C10 C 0.17524 0.16329 0.19255 0.0
C11 C 0.15258 0.19426 0.18206 0.0
C12 C 0.14303 0.19557 0.19804 0.0
C13 C 0.15163 0.19218 0.19262 0.0
C14 C 0.13613 0.20297 0.18237 0.0
C15 C 0.13518 0.20103 0.19298 0.0
C16 C 0.14475 0.19963 0.17698 0.0
C17 C 0.19322 0.18145 0.15408 0.0
C18 C 0.19288 0.19677 0.14329 0.0
C19 C 0.20325 0.18227 0.13837 0.0
C20 C 0.20001 0.17693 0.14715 0.0
C21 C 0.19976 0.19228 0.13634 0.0
C22 C 0.18962 0.19139 0.15207 0.0
C23 C 0.19018 0.17573 0.1634 0.0
O24 O 0.1799 0.17227 0.19323 0.0
O25 O 0.17 0.16214 0.18394 0.0
O26 O 0.18147 0.17054 0.16279 0.0
O27 O 0.1913 0.18067 0.17213 0.0
H28 H 0.18676 0.1502 0.18092 0.0
H29 H 0.19595 0.13496 0.18693 0.0
H30 H 0.18667 0.14139 0.21809 0.0
H31 H 0.17725 0.15638 0.21196 0.0
H32 H 0.14248 0.19385 0.20618 0.0
H33 H 0.15757 0.18798 0.19668 0.0
H34 H 0.13031 0.20726 0.17825 0.0
H35 H 0.14534 0.20132 0.16884 0.0
H36 H 0.18996 0.20441 0.1419 0.0
H37 H 0.20865 0.17863 0.13327 0.0
H38 H 0.2029 0.16928 0.14858 0.0
H39 H 0.18432 0.19499 0.15732 0.0
C40 C 0.82428 0.18133 0.15532 0.0
C41 C 0.82629 0.19189 0.15424 0.0
C42 C 0.81746 0.19201 0.13764 0.0
C43 C 0.82288 0.19719 0.1455 0.0
C44 C 0.81565 0.18138 0.13871 0.0
C45 C 0.81901 0.17611 0.14748 0.0
U46 U 0.84232 0.17749 0.17827 0.0
O47 O 0.83877 0.17317 0.19427 0.0
O48 O 0.84861 0.16334 0.18495 0.0
C49 C 0.84355 0.16436 0.1936 0.0
C50 C 0.82751 0.17566 0.16459 0.0
C51 C 0.83761 0.1553 0.197 0.0
C52 C 0.82574 0.14116 0.1935 0.0
C53 C 0.83123 0.14985 0.19014 0.0
C54 C 0.83278 0.14341 0.21064 0.0
C55 C 0.82647 0.13783 0.20379 0.0
C56 C 0.83831 0.15205 0.20726 0.0
C57 C 0.86503 0.19606 0.18227 0.0
C58 C 0.87499 0.19746 0.19809 0.0
C59 C 0.88131 0.2054 0.18242 0.0
C60 C 0.8726 0.20181 0.17714 0.0
C61 C 0.88259 0.20333 0.19298 0.0
C62 C 0.8663 0.19383 0.19277 0.0
C63 C 0.8559 0.19247 0.17654 0.0
O64 O 0.83629 0.17081 0.16389 0.0
O65 O 0.82644 0.18051 0.17335 0.0
O66 O 0.84702 0.19348 0.1812 0.0
O67 O 0.85684 0.18359 0.17191 0.0
H68 H 0.8304 0.19606 0.16019 0.0
H69 H 0.82432 0.20538 0.145 0.0
H70 H 0.81169 0.1771 0.13275 0.0
H71 H 0.81746 0.16794 0.14815 0.0
H72 H 0.82085 0.13711 0.18807 0.0
H73 H 0.83052 0.1523 0.1822 0.0
H74 H 0.83359 0.14098 0.21858 0.0
H75 H 0.84319 0.15617 0.21266 0.0
H76 H 0.87567 0.19581 0.20623 0.0
H77 H 0.88708 0.20972 0.17819 0.0
H78 H 0.87178 0.20353 0.16901 0.0
H79 H 0.86055 0.18935 0.19687 0.0
C80 C 0.82542 0.83889 0.15402 0.0
C81 C 0.8292 0.82903 0.15211 0.0
C82 C 0.81904 0.82801 0.1363 0.0
C83 C 0.82602 0.82362 0.14334 0.0
C84 C 0.81537 0.83794 0.13824 0.0
C85 C 0.81852 0.84331 0.14701 0.0
U86 U 0.84298 0.84384 0.17739 0.0
O87 O 0.8485 0.85847 0.18386 0.0
O88 O 0.83881 0.84816 0.19318 0.0
C89 C 0.84334 0.85721 0.19246 0.0
C90 C 0.82841 0.84465 0.16331 0.0
C91 C 0.83721 0.86603 0.19585 0.0
C92 C 0.82631 0.88072 0.19228 0.0
C93 C 0.83179 0.87219 0.18883 0.0
C94 C 0.83145 0.87688 0.20979 0.0
C95 C 0.8261 0.88318 0.20281 0.0
C96 C 0.83695 0.86841 0.20634 0.0
C97 C 0.86628 0.82649 0.18227 0.0
C98 C 0.87693 0.82697 0.19771 0.0
C99 C 0.88183 0.81635 0.18336 0.0
C100 C 0.87314 0.81957 0.17789 0.0
C101 C 0.88385 0.81999 0.19335 0.0
C102 C 0.86824 0.83022 0.19221 0.0
C103 C 0.85714 0.82963 0.17635 0.0
O104 O 0.82739 0.83969 0.17209 0.0
O105 O 0.83704 0.84996 0.16271 0.0
O106 O 0.85789 0.83853 0.17159 0.0
O107 O 0.84822 0.8282 0.1809 0.0
H108 H 0.83458 0.82551 0.15742 0.0
H109 H 0.82908 0.81605 0.14203 0.0
H110 H 0.80989 0.8415 0.13307 0.0
H111 H 0.8155 0.8509 0.14836 0.0
H112 H 0.82219 0.88534 0.18671 0.0
H113 H 0.83182 0.87045 0.1807 0.0
H114 H 0.83156 0.87862 0.21793 0.0
H115 H 0.8411 0.86376 0.21188 0.0
H116 H 0.8783 0.83001 0.20534 0.0
H117 H 0.88689 0.81086 0.17981 0.0
H118 H 0.87175 0.81659 0.17024 0.0
H119 H 0.86304 0.83561 0.1957 0.0
C120 C 0.15405 0.82507 0.18238 0.0
C121 C 0.15307 0.82701 0.19294 0.0
C122 C 0.1364 0.81818 0.19315 0.0
C123 C 0.14434 0.82358 0.19828 0.0
C124 C 0.13736 0.81646 0.18252 0.0
C125 C 0.1461 0.81985 0.17721 0.0
U126 U 0.17748 0.84273 0.17797 0.0
O127 O 0.19327 0.83878 0.17348 0.0
O128 O 0.18397 0.84873 0.16353 0.0
C129 C 0.19254 0.84354 0.16458 0.0
C130 C 0.16332 0.82823 0.17664 0.0
C131 C 0.19579 0.83762 0.15556 0.0
C132 C 0.19198 0.82663 0.14091 0.0
C133 C 0.18868 0.83206 0.14954 0.0
C134 C 0.20954 0.83208 0.14433 0.0
C135 C 0.20246 0.82658 0.1382 0.0
C136 C 0.20623 0.83755 0.15291 0.0
C137 C 0.18255 0.86533 0.19625 0.0
C138 C 0.19517 0.87894 0.19323 0.0
C139 C 0.18633 0.87785 0.20956 0.0
C140 C 0.18092 0.86917 0.20613 0.0
C141 C 0.19347 0.88291 0.20314 0.0
C142 C 0.18976 0.87022 0.18982 0.0
C143 C 0.17655 0.85633 0.19278 0.0
O144 O 0.16274 0.837 0.17164 0.0
O145 O 0.17215 0.82703 0.18146 0.0
O146 O 0.18108 0.84741 0.19385 0.0
O147 O 0.17174 0.85734 0.18393 0.0
H148 H 0.15911 0.83107 0.19707 0.0
H149 H 0.14393 0.82496 0.20646 0.0
H150 H 0.13133 0.81252 0.17826 0.0
H151 H 0.14668 0.81834 0.16905 0.0
H152 H 0.18634 0.82238 0.13642 0.0
H153 H 0.18059 0.83194 0.1515 0.0
H154 H 0.21764 0.83232 0.1424 0.0
H155 H 0.21184 0.84179 0.15745 0.0
H156 H 0.20054 0.88268 0.18805 0.0
H157 H 0.18495 0.88055 0.21729 0.0
H158 H 0.17543 0.86546 0.21122 0.0
H159 H 0.19113 0.86735 0.18215 0.0
C160 C 0.15423 0.82486 0.8399 0.0
C161 C 0.15283 0.82783 0.8296 0.0
C162 C 0.13662 0.81825 0.82888 0.0
C163 C 0.14412 0.82451 0.82412 0.0
C164 C 0.13803 0.81541 0.83925 0.0
C165 C 0.14677 0.81868 0.84469 0.0
U166 U 0.17717 0.84293 0.84402 0.0
O167 O 0.18373 0.84934 0.85824 0.0
O168 O 0.19315 0.8395 0.84847 0.0
C169 C 0.19242 0.84438 0.85726 0.0
C170 C 0.16345 0.82808 0.84571 0.0
C171 C 0.19591 0.83865 0.86639 0.0
C172 C 0.19251 0.82747 0.88104 0.0
C173 C 0.18904 0.83266 0.87225 0.0
C174 C 0.20977 0.83402 0.87806 0.0
C175 C 0.20291 0.82812 0.88409 0.0
C176 C 0.20629 0.83924 0.86932 0.0
C177 C 0.18152 0.86547 0.82563 0.0
C178 C 0.19683 0.87634 0.8264 0.0
C179 C 0.18274 0.88081 0.815 0.0
C180 C 0.17727 0.8721 0.81828 0.0
C181 C 0.19259 0.88303 0.81901 0.0
C182 C 0.19132 0.86764 0.8297 0.0
C183 C 0.17561 0.85639 0.829 0.0
O184 O 0.17226 0.82705 0.84091 0.0
O185 O 0.16272 0.83686 0.85058 0.0
O186 O 0.17086 0.85732 0.83784 0.0
O187 O 0.18028 0.84755 0.82803 0.0
H188 H 0.15848 0.83268 0.82579 0.0
H189 H 0.1432 0.82693 0.81619 0.0
H190 H 0.13246 0.81051 0.8431 0.0
H191 H 0.14773 0.81632 0.85264 0.0
H192 H 0.18699 0.82309 0.88554 0.0
H193 H 0.181 0.83208 0.87008 0.0
H194 H 0.21786 0.83455 0.88005 0.0
H195 H 0.21171 0.84377 0.86484 0.0
H196 H 0.20434 0.87789 0.82971 0.0
H197 H 0.17932 0.88572 0.8092 0.0
H198 H 0.16971 0.87053 0.81505 0.0
H199 H 0.19468 0.86263 0.83545 0.0
C200 C 0.15264 0.17979 0.82621 0.0
C201 C 0.15206 0.19045 0.82764 0.0
C202 C 0.13515 0.19069 0.81935 0.0
C203 C 0.14341 0.19585 0.82422 0.0
C204 C 0.13573 0.17997 0.81814 0.0
C205 C 0.14438 0.1746 0.8215 0.0
U206 U 0.17591 0.17458 0.84389 0.0
O207 O 0.18172 0.15978 0.84966 0.0
O208 O 0.19151 0.16962 0.83995 0.0
C209 C 0.19039 0.16066 0.84455 0.0
C210 C 0.1618 0.17391 0.82934 0.0
C211 C 0.19342 0.15157 0.8386 0.0
C212 C 0.1949 0.14229 0.82249 0.0
C213 C 0.19163 0.15089 0.82797 0.0
C214 C 0.20158 0.13487 0.83824 0.0
C215 C 0.19994 0.13418 0.82756 0.0
C216 C 0.19837 0.14348 0.84368 0.0
C217 C 0.18125 0.19224 0.86708 0.0
C218 C 0.19735 0.19434 0.87654 0.0
C219 C 0.18147 0.20054 0.88378 0.0
C220 C 0.17608 0.19705 0.87513 0.0
C221 C 0.1922 0.19934 0.88457 0.0
C222 C 0.19192 0.19081 0.86788 0.0
C223 C 0.17534 0.18904 0.85789 0.0
O224 O 0.17076 0.17858 0.82825 0.0
O225 O 0.16101 0.16876 0.83802 0.0
O226 O 0.17022 0.18031 0.85871 0.0
O227 O 0.17996 0.19019 0.84898 0.0
H228 H 0.15834 0.19461 0.83129 0.0
H229 H 0.14329 0.2041 0.82522 0.0
H230 H 0.12945 0.17569 0.81462 0.0
H231 H 0.14465 0.16637 0.82038 0.0
H232 H 0.19341 0.14195 0.81429 0.0
H233 H 0.18775 0.15702 0.82389 0.0
H234 H 0.20554 0.12883 0.84237 0.0
H235 H 0.19984 0.14386 0.85188 0.0
H236 H 0.20561 0.19335 0.87683 0.0
H237 H 0.1772 0.20414 0.88988 0.0
H238 H 0.16783 0.19817 0.87469 0.0
H239 H 0.19607 0.18709 0.86176 0.0
C240 C 0.82363 0.15442 0.84034 0.0
C241 C 0.82855 0.15159 0.83122 0.0
C242 C 0.81689 0.13687 0.82942 0.0
C243 C 0.8252 0.14289 0.8258 0.0
C244 C 0.81201 0.1398 0.83857 0.0
C245 C 0.81535 0.14848 0.84396 0.0
U246 U 0.84177 0.17741 0.84495 0.0
O247 O 0.83825 0.19306 0.84996 0.0
O248 O 0.84813 0.18331 0.85954 0.0
C249 C 0.84313 0.192 0.85878 0.0
C250 C 0.82701 0.1635 0.84619 0.0
C251 C 0.83747 0.19515 0.86801 0.0
C252 C 0.82165 0.19639 0.87785 0.0
C253 C 0.82694 0.19291 0.8692 0.0
C254 C 0.83741 0.20415 0.88433 0.0
C255 C 0.8268 0.20214 0.88549 0.0
C256 C 0.84266 0.20071 0.87567 0.0
C257 C 0.86417 0.18287 0.82652 0.0
C258 C 0.87881 0.19411 0.83015 0.0
C259 C 0.87548 0.18847 0.81271 0.0
C260 C 0.86687 0.1829 0.81611 0.0
C261 C 0.88158 0.19411 0.81969 0.0
C262 C 0.87015 0.18857 0.83353 0.0
C263 C 0.85514 0.17679 0.82989 0.0
O264 O 0.83589 0.16267 0.85099 0.0
O265 O 0.8259 0.1724 0.84152 0.0
O266 O 0.84623 0.18139 0.82908 0.0
O267 O 0.85621 0.17164 0.83855 0.0
H268 H 0.83499 0.15609 0.82832 0.0
H269 H 0.8292 0.14081 0.81884 0.0
H270 H 0.80549 0.13545 0.84151 0.0
H271 H 0.81145 0.15058 0.85098 0.0
H272 H 0.81349 0.19477 0.87842 0.0
H273 H 0.82279 0.18859 0.86338 0.0
H274 H 0.84168 0.20837 0.89013 0.0
H275 H 0.8508 0.20245 0.87492 0.0
H276 H 0.88328 0.19847 0.8357 0.0
H277 H 0.87746 0.18821 0.80464 0.0
H278 H 0.86235 0.17854 0.81059 0.0
H279 H 0.86815 0.18872 0.8416 0.0
C280 C 0.83843 0.86687 0.82561 0.0
C281 C 0.82803 0.86798 0.82821 0.0
C282 C 0.82753 0.88448 0.81921 0.0
C283 C 0.82261 0.8767 0.82499 0.0
C284 C 0.83799 0.88334 0.81674 0.0
C285 C 0.84336 0.87462 0.8199 0.0
U286 U 0.84363 0.84353 0.8431 0.0
O287 O 0.84855 0.82798 0.83902 0.0
O288 O 0.85846 0.83765 0.84878 0.0
C289 C 0.85752 0.82903 0.84363 0.0
C290 C 0.84429 0.8577 0.82865 0.0
C291 C 0.86664 0.82592 0.83773 0.0
C292 C 0.87586 0.82392 0.82163 0.0
C293 C 0.86727 0.82736 0.82704 0.0
C294 C 0.88338 0.81778 0.83756 0.0
C295 C 0.88399 0.81899 0.82681 0.0
C296 C 0.87479 0.82118 0.84294 0.0
C297 C 0.82622 0.83784 0.86641 0.0
C298 C 0.82156 0.82167 0.87476 0.0
C299 C 0.82098 0.83752 0.88436 0.0
C300 C 0.82427 0.84297 0.87565 0.0
C301 C 0.81951 0.82681 0.88401 0.0
C302 C 0.82492 0.82711 0.86606 0.0
C303 C 0.82927 0.84391 0.85724 0.0
O304 O 0.84948 0.85841 0.83732 0.0
O305 O 0.83955 0.84881 0.82753 0.0
O306 O 0.82799 0.83951 0.84824 0.0
O307 O 0.83797 0.84909 0.858 0.0
H308 H 0.82409 0.86211 0.83267 0.0
H309 H 0.8146 0.87738 0.82712 0.0
H310 H 0.84198 0.8891 0.81218 0.0
H311 H 0.85138 0.8739 0.8178 0.0
H312 H 0.87602 0.82491 0.81336 0.0
H313 H 0.86107 0.83103 0.82286 0.0
H314 H 0.88956 0.81422 0.84184 0.0
H315 H 0.87449 0.82005 0.85119 0.0
H316 H 0.82061 0.81341 0.87427 0.0
H317 H 0.81937 0.84174 0.89131 0.0
H318 H 0.82517 0.85124 0.8761 0.0
H319 H 0.82642 0.82293 0.85906 0.0
C320 C 0.18104 0.65281 0.69446 0.0
C321 C 0.19165 0.65209 0.69259 0.0
C322 C 0.19198 0.63521 0.70082 0.0
C323 C 0.19707 0.64339 0.69578 0.0
C324 C 0.18132 0.63591 0.70249 0.0
C325 C 0.17593 0.64463 0.69936 0.0
U326 U 0.17576 0.67643 0.67738 0.0
O327 O 0.16102 0.68282 0.6722 0.0
O328 O 0.17137 0.69206 0.68192 0.0
C329 C 0.16224 0.69128 0.67758 0.0
C330 C 0.17521 0.66208 0.69166 0.0
C331 C 0.15342 0.69449 0.6839 0.0
C332 C 0.13706 0.69097 0.69236 0.0
C333 C 0.1456 0.68755 0.68685 0.0
C334 C 0.14416 0.70823 0.69228 0.0
C335 C 0.13622 0.70137 0.6951 0.0
C336 C 0.15264 0.70483 0.68672 0.0
C337 C 0.19286 0.68196 0.65378 0.0
C338 C 0.19698 0.69821 0.64531 0.0
C339 C 0.19884 0.68225 0.63608 0.0
C340 C 0.19548 0.67679 0.64474 0.0
C341 C 0.19972 0.69302 0.63627 0.0
C342 C 0.19354 0.69273 0.65397 0.0
C343 C 0.1898 0.67589 0.66292 0.0
O344 O 0.18007 0.67091 0.69279 0.0
O345 O 0.16979 0.66156 0.68311 0.0
O346 O 0.18093 0.67098 0.66226 0.0
O347 O 0.19136 0.68017 0.67194 0.0
H348 H 0.19575 0.65829 0.68875 0.0
H349 H 0.20525 0.64304 0.69427 0.0
H350 H 0.17718 0.62982 0.70645 0.0
H351 H 0.16775 0.64504 0.70089 0.0
H352 H 0.13114 0.68546 0.69451 0.0
H353 H 0.14601 0.67951 0.68484 0.0
H354 H 0.1437 0.71631 0.69415 0.0
H355 H 0.15855 0.71033 0.68449 0.0
H356 H 0.19745 0.7065 0.64567 0.0
H357 H 0.201 0.678 0.6293 0.0
H358 H 0.19505 0.66848 0.64443 0.0
H359 H 0.19151 0.69693 0.66082 0.0
C360 C 0.82385 0.68108 0.65544 0.0
C361 C 0.82666 0.69142 0.65398 0.0
C362 C 0.81729 0.69178 0.6377 0.0
C363 C 0.82337 0.69674 0.6452 0.0
C364 C 0.8146 0.68138 0.63917 0.0
C365 C 0.81784 0.6761 0.64797 0.0
U366 U 0.84186 0.67747 0.6784 0.0
O367 O 0.83841 0.67287 0.69434 0.0
O368 O 0.84854 0.66342 0.68492 0.0
C369 C 0.84348 0.66423 0.6936 0.0
C370 C 0.82713 0.67538 0.66466 0.0
C371 C 0.83788 0.65497 0.69703 0.0
C372 C 0.82649 0.64042 0.69367 0.0
C373 C 0.83171 0.64924 0.69022 0.0
C374 C 0.83342 0.64309 0.71079 0.0
C375 C 0.8273 0.63721 0.704 0.0
C376 C 0.83866 0.65186 0.70733 0.0
C377 C 0.86396 0.6966 0.68286 0.0
C378 C 0.87886 0.69349 0.69379 0.0
C379 C 0.87508 0.71078 0.68807 0.0
C380 C 0.86644 0.70709 0.68274 0.0
C381 C 0.88146 0.70402 0.6936 0.0
C382 C 0.87017 0.68982 0.68849 0.0
C383 C 0.85496 0.6929 0.67699 0.0
O384 O 0.83604 0.67077 0.66395 0.0
O385 O 0.82591 0.68014 0.67346 0.0
O386 O 0.84606 0.69357 0.68168 0.0
O387 O 0.85611 0.68416 0.67212 0.0
H388 H 0.83138 0.69538 0.65963 0.0
H389 H 0.82567 0.70471 0.64424 0.0
H390 H 0.80983 0.67738 0.6336 0.0
H391 H 0.81561 0.66811 0.64897 0.0
H392 H 0.82194 0.63604 0.6882 0.0
H393 H 0.83098 0.65156 0.68224 0.0
H394 H 0.83407 0.64098 0.71883 0.0
H395 H 0.84332 0.65624 0.71271 0.0
H396 H 0.88364 0.68804 0.69786 0.0
H397 H 0.87671 0.71895 0.68791 0.0
H398 H 0.86169 0.71245 0.67849 0.0
H399 H 0.86836 0.68168 0.68872 0.0
C400 C 0.82551 0.33804 0.65346 0.0
C401 C 0.82691 0.32738 0.65288 0.0
C402 C 0.81857 0.32702 0.636 0.0
C403 C 0.82346 0.32192 0.64424 0.0
C404 C 0.8174 0.33773 0.63657 0.0
C405 C 0.82082 0.34316 0.6452 0.0
U406 U 0.84273 0.34344 0.67714 0.0
O407 O 0.84851 0.35835 0.68289 0.0
O408 O 0.8384 0.34876 0.69252 0.0
C409 C 0.84307 0.3577 0.69136 0.0
C410 C 0.82861 0.34399 0.66261 0.0
C411 C 0.83712 0.36691 0.6941 0.0
C412 C 0.82097 0.37533 0.69799 0.0
C413 C 0.82632 0.36666 0.69477 0.0
C414 C 0.83706 0.38474 0.69965 0.0
C415 C 0.82628 0.38446 0.70054 0.0
C416 C 0.84242 0.37605 0.6965 0.0
C417 C 0.8653 0.32559 0.68392 0.0
C418 C 0.88183 0.32907 0.69221 0.0
C419 C 0.87447 0.31192 0.69278 0.0
C420 C 0.86596 0.31531 0.68711 0.0
C421 C 0.88255 0.31873 0.69532 0.0
C422 C 0.87327 0.33248 0.6866 0.0
C423 C 0.85644 0.32877 0.6775 0.0
O424 O 0.82717 0.33952 0.67158 0.0
O425 O 0.83744 0.34896 0.66198 0.0
O426 O 0.85755 0.33729 0.67211 0.0
O427 O 0.84732 0.32782 0.68175 0.0
H428 H 0.83054 0.32327 0.65916 0.0
H429 H 0.82442 0.31367 0.64411 0.0
H430 H 0.81388 0.34196 0.63031 0.0
H431 H 0.81972 0.35139 0.64547 0.0
H432 H 0.81265 0.37491 0.69848 0.0
H433 H 0.82202 0.35974 0.6929 0.0
H434 H 0.8414 0.39159 0.70166 0.0
H435 H 0.85074 0.37642 0.69609 0.0
H436 H 0.88786 0.33454 0.69414 0.0
H437 H 0.87483 0.30389 0.69494 0.0
H438 H 0.85995 0.30984 0.6851 0.0
H439 H 0.87296 0.34047 0.68429 0.0
C440 C 0.15389 0.32464 0.6823 0.0
C441 C 0.15291 0.32667 0.69284 0.0
C442 C 0.13633 0.31767 0.69316 0.0
C443 C 0.14422 0.3232 0.69822 0.0
C444 C 0.1373 0.31585 0.68254 0.0
C445 C 0.14599 0.31929 0.67719 0.0
U446 U 0.17734 0.34227 0.67787 0.0
O447 O 0.1931 0.3383 0.67328 0.0
O448 O 0.18378 0.34832 0.66342 0.0
C449 C 0.19234 0.34311 0.66441 0.0
C450 C 0.16314 0.32782 0.67653 0.0
C451 C 0.19557 0.33722 0.65535 0.0
C452 C 0.19172 0.32626 0.6407 0.0
C453 C 0.18844 0.33168 0.64935 0.0
C454 C 0.20929 0.33172 0.64409 0.0
C455 C 0.20219 0.32621 0.63797 0.0
C456 C 0.206 0.33717 0.65267 0.0
C457 C 0.18268 0.36474 0.69628 0.0
C458 C 0.19338 0.37983 0.69289 0.0
C459 C 0.18833 0.3757 0.71034 0.0
C460 C 0.18294 0.36705 0.70679 0.0
C461 C 0.19353 0.38227 0.70343 0.0
C462 C 0.18802 0.37113 0.68935 0.0
C463 C 0.17661 0.35578 0.69276 0.0
O464 O 0.16254 0.33663 0.6716 0.0
O465 O 0.17199 0.32656 0.68129 0.0
O466 O 0.18107 0.34682 0.69377 0.0
O467 O 0.17169 0.35685 0.68397 0.0
H468 H 0.15891 0.33083 0.69693 0.0
H469 H 0.1438 0.32466 0.7064 0.0
H470 H 0.1313 0.31181 0.67833 0.0
H471 H 0.14658 0.3177 0.66904 0.0
H472 H 0.18607 0.32201 0.63622 0.0
H473 H 0.18035 0.33155 0.65133 0.0
H474 H 0.21738 0.33195 0.64213 0.0
H475 H 0.21161 0.34141 0.65721 0.0
H476 H 0.19721 0.38475 0.68733 0.0
H477 H 0.18844 0.3772 0.71852 0.0
H478 H 0.17893 0.36218 0.71226 0.0
H479 H 0.18795 0.36947 0.68119 0.0
C480 C 0.15474 0.32468 0.34009 0.0
C481 C 0.15333 0.32723 0.32968 0.0
C482 C 0.13709 0.31765 0.32935 0.0
C483 C 0.1446 0.32372 0.32435 0.0
C484 C 0.1385 0.31528 0.33984 0.0
C485 C 0.14724 0.31875 0.34514 0.0
U486 U 0.1778 0.34278 0.34379 0.0
O487 O 0.18438 0.34936 0.35793 0.0
O488 O 0.19374 0.33933 0.34832 0.0
C489 C 0.19303 0.3443 0.35704 0.0
C490 C 0.16398 0.32805 0.34577 0.0
C491 C 0.19641 0.3386 0.36623 0.0
C492 C 0.1929 0.32707 0.38058 0.0
C493 C 0.1895 0.33247 0.3719 0.0
C494 C 0.21017 0.33374 0.37791 0.0
C495 C 0.20329 0.32762 0.38367 0.0
C496 C 0.20675 0.33918 0.36928 0.0
C497 C 0.18248 0.36485 0.32485 0.0
C498 C 0.19415 0.37922 0.32808 0.0
C499 C 0.18757 0.37623 0.31088 0.0
C500 C 0.18202 0.36768 0.31446 0.0
C501 C 0.19366 0.38212 0.31765 0.0
C502 C 0.18864 0.37063 0.33164 0.0
C503 C 0.17649 0.3559 0.32846 0.0
O504 O 0.17278 0.32687 0.34099 0.0
O505 O 0.16329 0.33695 0.35042 0.0
O506 O 0.17165 0.35704 0.33722 0.0
O507 O 0.18108 0.347 0.3277 0.0
H508 H 0.15903 0.33184 0.32565 0.0
H509 H 0.14384 0.32561 0.31626 0.0
H510 H 0.1328 0.3108 0.344 0.0
H511 H 0.14817 0.31678 0.35319 0.0
H512 H 0.18744 0.32234 0.38479 0.0
H513 H 0.18149 0.33186 0.3696 0.0
H514 H 0.21819 0.33442 0.38015 0.0
H515 H 0.21219 0.34386 0.36498 0.0
H516 H 0.19886 0.38354 0.33346 0.0
H517 H 0.18694 0.37832 0.30283 0.0
H518 H 0.17731 0.36331 0.30911 0.0
H519 H 0.18917 0.3685 0.3397 0.0
C520 C 0.15266 0.68007 0.32546 0.0
C521 C 0.15066 0.68982 0.32947 0.0
C522 C 0.135 0.69093 0.31907 0.0
C523 C 0.14192 0.69523 0.32628 0.0
C524 C 0.13704 0.68111 0.31516 0.0
C525 C 0.14578 0.67575 0.31832 0.0
U526 U 0.17582 0.67522 0.34321 0.0
O527 O 0.18214 0.6606 0.3488 0.0
O528 O 0.19165 0.67088 0.33929 0.0
C529 C 0.19087 0.66189 0.34387 0.0
C530 C 0.16189 0.67431 0.3285 0.0
C531 C 0.1944 0.65304 0.33789 0.0
C532 C 0.19219 0.64064 0.3241 0.0
C533 C 0.18862 0.6491 0.32963 0.0
C534 C 0.20731 0.64003 0.33505 0.0
C535 C 0.2016 0.63601 0.32674 0.0
C536 C 0.20374 0.64845 0.34056 0.0
C537 C 0.18071 0.69262 0.36651 0.0
C538 C 0.1962 0.6921 0.37707 0.0
C539 C 0.18192 0.7027 0.38215 0.0
C540 C 0.17639 0.69951 0.37346 0.0
C541 C 0.19191 0.69906 0.38407 0.0
C542 C 0.19063 0.68888 0.36839 0.0
C543 C 0.17475 0.6895 0.35736 0.0
O544 O 0.17071 0.67926 0.32757 0.0
O545 O 0.16117 0.66904 0.33712 0.0
O546 O 0.1699 0.68062 0.35805 0.0
O547 O 0.17934 0.6909 0.34847 0.0
H548 H 0.15586 0.69326 0.33504 0.0
H549 H 0.14053 0.70272 0.32954 0.0
H550 H 0.13197 0.67763 0.3095 0.0
H551 H 0.14721 0.66824 0.31512 0.0
H552 H 0.18764 0.63782 0.31769 0.0
H553 H 0.18139 0.65258 0.32745 0.0
H554 H 0.21449 0.63657 0.33741 0.0
H555 H 0.20828 0.65136 0.34694 0.0
H556 H 0.20382 0.68906 0.37837 0.0
H557 H 0.17843 0.70817 0.38727 0.0
H558 H 0.16874 0.70249 0.37212 0.0
H559 H 0.19408 0.68351 0.36312 0.0
C560 C 0.82317 0.65507 0.3399 0.0
C561 C 0.83005 0.64927 0.33409 0.0
C562 C 0.81612 0.63755 0.32907 0.0
C563 C 0.82656 0.64058 0.32874 0.0
C564 C 0.80926 0.64352 0.3348 0.0
C565 C 0.81276 0.65217 0.34017 0.0
U566 U 0.84184 0.67756 0.34495 0.0
O567 O 0.83855 0.69336 0.34975 0.0
O568 O 0.84798 0.68345 0.3596 0.0
C569 C 0.84327 0.69227 0.35865 0.0
C570 C 0.82665 0.66411 0.34581 0.0
C571 C 0.8375 0.6956 0.36773 0.0
C572 C 0.82297 0.69399 0.37937 0.0
C573 C 0.82828 0.69071 0.37064 0.0
C574 C 0.83607 0.70704 0.38232 0.0
C575 C 0.82683 0.70218 0.38534 0.0
C576 C 0.84134 0.70378 0.37361 0.0
C577 C 0.86498 0.68207 0.32716 0.0
C578 C 0.87476 0.698 0.32522 0.0
C579 C 0.88169 0.68209 0.31884 0.0
C580 C 0.87292 0.67681 0.32228 0.0
C581 C 0.88269 0.69278 0.32017 0.0
C582 C 0.866 0.6927 0.32871 0.0
C583 C 0.85567 0.67634 0.33036 0.0
O584 O 0.83531 0.6631 0.35096 0.0
O585 O 0.82591 0.67299 0.34105 0.0
O586 O 0.84689 0.68114 0.32922 0.0
O587 O 0.85637 0.67131 0.33912 0.0
H588 H 0.83812 0.65141 0.33376 0.0
H589 H 0.83209 0.63613 0.3245 0.0
H590 H 0.80114 0.64157 0.33508 0.0
H591 H 0.80732 0.65659 0.34455 0.0
H592 H 0.81594 0.69001 0.38153 0.0
H593 H 0.82522 0.68435 0.36619 0.0
H594 H 0.83918 0.71347 0.38663 0.0
H595 H 0.84843 0.70766 0.37145 0.0
H596 H 0.87521 0.70624 0.3263 0.0
H597 H 0.8877 0.67777 0.31518 0.0
H598 H 0.87231 0.6686 0.32107 0.0
H599 H 0.85998 0.69691 0.3325 0.0
C600 C 0.838 0.36589 0.32429 0.0
C601 C 0.83107 0.37064 0.33096 0.0
C602 C 0.82669 0.38312 0.31762 0.0
C603 C 0.82548 0.3792 0.32766 0.0
C604 C 0.8336 0.37826 0.31097 0.0
C605 C 0.83919 0.36974 0.31429 0.0
U606 U 0.84371 0.34341 0.34262 0.0
O607 O 0.84886 0.32779 0.33913 0.0
O608 O 0.85863 0.33795 0.34851 0.0
C609 C 0.85782 0.32913 0.34371 0.0
C610 C 0.84413 0.35701 0.32761 0.0
C611 C 0.86695 0.32594 0.3379 0.0
C612 C 0.87639 0.32414 0.3219 0.0
C613 C 0.86779 0.32765 0.32726 0.0
C614 C 0.88348 0.31739 0.33778 0.0
C615 C 0.88431 0.31887 0.32708 0.0
C616 C 0.87489 0.32087 0.34311 0.0
C617 C 0.82612 0.33827 0.36587 0.0
C618 C 0.8242 0.32224 0.37543 0.0
C619 C 0.81784 0.33806 0.38259 0.0
C620 C 0.82127 0.34343 0.3739 0.0
C621 C 0.81915 0.32737 0.38344 0.0
C622 C 0.82767 0.32764 0.36674 0.0
C623 C 0.82921 0.34409 0.3566 0.0
O624 O 0.8493 0.35811 0.33626 0.0
O625 O 0.83955 0.34799 0.32682 0.0
O626 O 0.82811 0.33932 0.34777 0.0
O627 O 0.83787 0.34935 0.3573 0.0
H628 H 0.83001 0.36773 0.33871 0.0
H629 H 0.82015 0.38268 0.33294 0.0
H630 H 0.83483 0.38115 0.30325 0.0
H631 H 0.84452 0.36619 0.30904 0.0
H632 H 0.87672 0.32534 0.31366 0.0
H633 H 0.86176 0.33158 0.32309 0.0
H634 H 0.8895 0.31357 0.34207 0.0
H635 H 0.87442 0.31953 0.35132 0.0
H636 H 0.82527 0.31401 0.37576 0.0
H637 H 0.81419 0.34231 0.38867 0.0
H638 H 0.82006 0.35163 0.37341 0.0
H639 H 0.83143 0.32349 0.36064 0.0
C640 C 0.68125 0.1544 0.69601 0.0
C641 C 0.68631 0.14801 0.68904 0.0
C642 C 0.69202 0.13697 0.70316 0.0
C643 C 0.69162 0.13936 0.69258 0.0
C644 C 0.6871 0.14355 0.71009 0.0
C645 C 0.68176 0.15215 0.70654 0.0
U646 U 0.67598 0.17701 0.67761 0.0
O647 O 0.66122 0.18249 0.67135 0.0
O648 O 0.67069 0.19259 0.68109 0.0
C649 C 0.66188 0.19129 0.67623 0.0
C650 C 0.67522 0.16332 0.69251 0.0
C651 C 0.65262 0.19435 0.68189 0.0
C652 C 0.64198 0.19415 0.69723 0.0
C653 C 0.65072 0.19087 0.69194 0.0
C654 C 0.63691 0.20428 0.68242 0.0
C655 C 0.63497 0.20092 0.69253 0.0
C656 C 0.64564 0.20103 0.67716 0.0
C657 C 0.69436 0.18239 0.655 0.0
C658 C 0.6908 0.19238 0.63953 0.0
C659 C 0.70838 0.18826 0.64407 0.0
C660 C 0.70489 0.18304 0.65282 0.0
C661 C 0.70138 0.19292 0.63723 0.0
C662 C 0.68732 0.18718 0.64834 0.0
C663 C 0.69096 0.17651 0.66413 0.0
O664 O 0.67973 0.17235 0.69351 0.0
O665 O 0.67025 0.16227 0.68373 0.0
O666 O 0.68235 0.17119 0.66317 0.0
O667 O 0.69174 0.18131 0.67297 0.0
H668 H 0.68606 0.14962 0.68087 0.0
H669 H 0.69523 0.13444 0.687 0.0
H670 H 0.6874 0.14209 0.71829 0.0
H671 H 0.67796 0.15702 0.71205 0.0
H672 H 0.64067 0.19132 0.70496 0.0
H673 H 0.656 0.18567 0.6957 0.0
H674 H 0.63178 0.20959 0.67861 0.0
H675 H 0.647 0.20382 0.66942 0.0
H676 H 0.68518 0.19579 0.63442 0.0
H677 H 0.71658 0.18868 0.64268 0.0
H678 H 0.71045 0.17945 0.65789 0.0
H679 H 0.67914 0.1868 0.64989 0.0
C680 C 0.32315 0.18162 0.65561 0.0
C681 C 0.33004 0.18777 0.64994 0.0
C682 C 0.31629 0.19237 0.638 0.0
C683 C 0.32665 0.19307 0.64119 0.0
C684 C 0.30942 0.18626 0.6438 0.0
C685 C 0.31284 0.18093 0.6525 0.0
U686 U 0.3418 0.17763 0.67803 0.0
O687 O 0.33859 0.17344 0.69414 0.0
O688 O 0.34808 0.16344 0.68463 0.0
C689 C 0.34326 0.16458 0.69341 0.0
C690 C 0.32654 0.17597 0.66482 0.0
C691 C 0.33737 0.15558 0.69708 0.0
C692 C 0.3259 0.14104 0.69396 0.0
C693 C 0.33122 0.14973 0.69036 0.0
C694 C 0.33264 0.14411 0.71109 0.0
C695 C 0.32658 0.13809 0.70438 0.0
C696 C 0.33799 0.15275 0.70746 0.0
C697 C 0.36485 0.1958 0.68151 0.0
C698 C 0.3748 0.19749 0.6973 0.0
C699 C 0.38145 0.20455 0.68136 0.0
C700 C 0.37265 0.20106 0.67618 0.0
C701 C 0.38262 0.20288 0.69201 0.0
C702 C 0.36602 0.19395 0.69209 0.0
C703 C 0.35557 0.19237 0.67591 0.0
O704 O 0.3352 0.17092 0.66396 0.0
O705 O 0.32584 0.181 0.67352 0.0
O706 O 0.34679 0.19356 0.68072 0.0
O707 O 0.35626 0.18346 0.67128 0.0
H708 H 0.33804 0.18843 0.65226 0.0
H709 H 0.33217 0.19761 0.63687 0.0
H710 H 0.30137 0.18569 0.64169 0.0
H711 H 0.3074 0.17629 0.65684 0.0
H712 H 0.3214 0.13654 0.68855 0.0
H713 H 0.33062 0.15183 0.6823 0.0
H714 H 0.33319 0.14219 0.71919 0.0
H715 H 0.34264 0.15722 0.71278 0.0
H716 H 0.37538 0.19616 0.70551 0.0
H717 H 0.38738 0.20849 0.67699 0.0
H718 H 0.37191 0.20248 0.66799 0.0
H719 H 0.3601 0.18986 0.69634 0.0
C720 C 0.32404 0.83733 0.65474 0.0
C721 C 0.33116 0.83212 0.64864 0.0
C722 C 0.31731 0.82618 0.6373 0.0
C723 C 0.32782 0.82663 0.63997 0.0
C724 C 0.31023 0.83134 0.64352 0.0
C725 C 0.31357 0.83687 0.65213 0.0
U726 U 0.34194 0.84297 0.67778 0.0
O727 O 0.34764 0.85776 0.68373 0.0
O728 O 0.3379 0.84786 0.69343 0.0
C729 C 0.34252 0.85683 0.69239 0.0
C730 C 0.3273 0.84339 0.66377 0.0
C731 C 0.33651 0.86581 0.6956 0.0
C732 C 0.32594 0.88068 0.69174 0.0
C733 C 0.33135 0.87205 0.68844 0.0
C734 C 0.33062 0.8768 0.70937 0.0
C735 C 0.32551 0.88316 0.70226 0.0
C736 C 0.33606 0.86824 0.70607 0.0
C737 C 0.36484 0.82525 0.68352 0.0
C738 C 0.37978 0.82913 0.69425 0.0
C739 C 0.37585 0.81152 0.68964 0.0
C740 C 0.36726 0.8148 0.68407 0.0
C741 C 0.38225 0.81863 0.69477 0.0
C742 C 0.37113 0.83241 0.6887 0.0
C743 C 0.35581 0.82844 0.6774 0.0
O744 O 0.32623 0.83882 0.67274 0.0
O745 O 0.336 0.84857 0.66293 0.0
O746 O 0.35673 0.83712 0.67225 0.0
O747 O 0.34684 0.82733 0.68191 0.0
H748 H 0.33928 0.83231 0.65055 0.0
H749 H 0.33346 0.82265 0.63541 0.0
H750 H 0.3021 0.83128 0.64163 0.0
H751 H 0.30796 0.84085 0.65673 0.0
H752 H 0.322 0.88534 0.68607 0.0
H753 H 0.33154 0.87029 0.68031 0.0
H754 H 0.33057 0.87855 0.71751 0.0
H755 H 0.34001 0.86354 0.71171 0.0
H756 H 0.38449 0.83479 0.6982 0.0
H757 H 0.37759 0.80341 0.68976 0.0
H758 H 0.36252 0.80916 0.68011 0.0
H759 H 0.36937 0.84051 0.68845 0.0
C760 C 0.65398 0.82463 0.68207 0.0
C761 C 0.65309 0.82658 0.69264 0.0
C762 C 0.63646 0.81767 0.69301 0.0
C763 C 0.64443 0.82311 0.69806 0.0
C764 C 0.63735 0.81591 0.68238 0.0
C765 C 0.64603 0.81933 0.67699 0.0
U766 U 0.67693 0.8428 0.67718 0.0
O767 O 0.69269 0.83935 0.67231 0.0
O768 O 0.68286 0.84893 0.66251 0.0
C769 C 0.69161 0.84405 0.6634 0.0
C770 C 0.66312 0.82794 0.67621 0.0
C771 C 0.69486 0.83829 0.65426 0.0
C772 C 0.69639 0.8224 0.64466 0.0
C773 C 0.69298 0.8277 0.65333 0.0
C774 C 0.7034 0.83826 0.63768 0.0
C775 C 0.70166 0.82763 0.63673 0.0
C776 C 0.70005 0.84353 0.64636 0.0
C777 C 0.68169 0.86581 0.69504 0.0
C778 C 0.69765 0.87565 0.6967 0.0
C779 C 0.68177 0.88247 0.70337 0.0
C780 C 0.67647 0.87369 0.70005 0.0
C781 C 0.69243 0.88355 0.70179 0.0
C782 C 0.69232 0.86687 0.69332 0.0
C783 C 0.6759 0.85656 0.69182 0.0
O784 O 0.66225 0.83665 0.67114 0.0
O785 O 0.67205 0.827 0.68091 0.0
O786 O 0.68064 0.84776 0.69292 0.0
O787 O 0.67085 0.85734 0.68307 0.0
H788 H 0.65914 0.8307 0.69671 0.0
H789 H 0.64407 0.82453 0.70625 0.0
H790 H 0.63131 0.81194 0.67819 0.0
H791 H 0.64654 0.81781 0.66883 0.0
H792 H 0.69483 0.81424 0.64411 0.0
H793 H 0.68891 0.82352 0.65931 0.0
H794 H 0.70754 0.8425 0.6318 0.0
H795 H 0.70158 0.8517 0.64695 0.0
H796 H 0.70583 0.87629 0.69526 0.0
H797 H 0.67754 0.88834 0.70737 0.0
H798 H 0.66828 0.87301 0.70146 0.0
H799 H 0.69649 0.86091 0.68939 0.0
C800 C 0.65457 0.82428 0.34042 0.0
C801 C 0.6531 0.82707 0.33008 0.0
C802 C 0.63713 0.81706 0.32948 0.0
C803 C 0.64447 0.82347 0.32465 0.0
C804 C 0.6386 0.81443 0.3399 0.0
C805 C 0.64725 0.81799 0.34529 0.0
U806 U 0.67703 0.84301 0.34461 0.0
O807 O 0.68317 0.84956 0.35899 0.0
O808 O 0.69301 0.84011 0.34928 0.0
C809 C 0.69201 0.84486 0.35811 0.0
C810 C 0.66367 0.82782 0.34623 0.0
C811 C 0.69542 0.83913 0.36727 0.0
C812 C 0.69598 0.82347 0.37749 0.0
C813 C 0.69255 0.82882 0.36878 0.0
C814 C 0.70503 0.83875 0.38332 0.0
C815 C 0.70228 0.82837 0.38485 0.0
C816 C 0.70164 0.84406 0.3746 0.0
C817 C 0.68102 0.86561 0.32609 0.0
C818 C 0.69688 0.87555 0.32443 0.0
C819 C 0.68101 0.88205 0.3172 0.0
C820 C 0.67576 0.8733 0.32073 0.0
C821 C 0.69166 0.88326 0.31893 0.0
C822 C 0.6916 0.86682 0.32801 0.0
C823 C 0.67533 0.85639 0.32956 0.0
O824 O 0.67254 0.827 0.34149 0.0
O825 O 0.66266 0.8366 0.35103 0.0
O826 O 0.67047 0.85727 0.33834 0.0
O827 O 0.68016 0.84763 0.32865 0.0
H828 H 0.65866 0.83196 0.32619 0.0
H829 H 0.64364 0.82558 0.31662 0.0
H830 H 0.63303 0.80968 0.34393 0.0
H831 H 0.64823 0.81582 0.35329 0.0
H832 H 0.69363 0.81552 0.3785 0.0
H833 H 0.68767 0.8249 0.36324 0.0
H834 H 0.70995 0.84271 0.38879 0.0
H835 H 0.70393 0.85203 0.37355 0.0
H836 H 0.70509 0.87615 0.32582 0.0
H837 H 0.67669 0.8879 0.31318 0.0
H838 H 0.66757 0.87254 0.31924 0.0
H839 H 0.6958 0.86098 0.33219 0.0
C840 C 0.65322 0.18009 0.32439 0.0
C841 C 0.64968 0.18842 0.33013 0.0
C842 C 0.6361 0.19145 0.31744 0.0
C843 C 0.64118 0.19405 0.32669 0.0
C844 C 0.63971 0.18306 0.31177 0.0
C845 C 0.64818 0.17745 0.31522 0.0
U846 U 0.67573 0.17467 0.34283 0.0
O847 O 0.68128 0.15987 0.34882 0.0
O848 O 0.69142 0.16959 0.33937 0.0
C849 C 0.69013 0.16069 0.34402 0.0
C850 C 0.66213 0.17405 0.3278 0.0
C851 C 0.69327 0.15159 0.33819 0.0
C852 C 0.69279 0.14105 0.3228 0.0
C853 C 0.68954 0.14969 0.32823 0.0
C854 C 0.70343 0.13606 0.3373 0.0
C855 C 0.69978 0.13412 0.32728 0.0
C856 C 0.7002 0.14471 0.34269 0.0
C857 C 0.68073 0.19239 0.36599 0.0
C858 C 0.69674 0.1945 0.37559 0.0
C859 C 0.68078 0.2006 0.38273 0.0
C860 C 0.67547 0.19714 0.37401 0.0
C861 C 0.69151 0.19943 0.38361 0.0
C862 C 0.6914 0.19099 0.36687 0.0
C863 C 0.67494 0.18923 0.35671 0.0
O864 O 0.67114 0.17866 0.327 0.0
O865 O 0.661 0.169 0.33651 0.0
O866 O 0.66971 0.18056 0.35745 0.0
O867 O 0.67975 0.19029 0.34789 0.0
H868 H 0.6535 0.19059 0.33723 0.0
H869 H 0.63867 0.20052 0.33119 0.0
H870 H 0.63591 0.18073 0.30472 0.0
H871 H 0.65078 0.17101 0.31072 0.0
H872 H 0.68975 0.13973 0.31515 0.0
H873 H 0.68414 0.1549 0.32465 0.0
H874 H 0.70892 0.13099 0.34093 0.0
H875 H 0.70318 0.14606 0.35037 0.0
H876 H 0.705 0.19354 0.37594 0.0
H877 H 0.67645 0.20416 0.38882 0.0
H878 H 0.66723 0.19823 0.37351 0.0
H879 H 0.69563 0.18731 0.36078 0.0
C880 C 0.32299 0.15525 0.34024 0.0
C881 C 0.32989 0.14931 0.33459 0.0
C882 C 0.31592 0.13767 0.32952 0.0
C883 C 0.32639 0.14059 0.3293 0.0
C884 C 0.30904 0.14377 0.33509 0.0
C885 C 0.31256 0.15245 0.3404 0.0
U886 U 0.34167 0.17779 0.34503 0.0
O887 O 0.33833 0.1937 0.34949 0.0
O888 O 0.34772 0.18398 0.35958 0.0
C889 C 0.34298 0.19278 0.35844 0.0
C890 C 0.32647 0.16436 0.34603 0.0
C891 C 0.33716 0.19632 0.3674 0.0
C892 C 0.32459 0.19345 0.38095 0.0
C893 C 0.32986 0.18997 0.37228 0.0
C894 C 0.33378 0.2097 0.37983 0.0
C895 C 0.32653 0.20336 0.38487 0.0
C896 C 0.33904 0.20621 0.37121 0.0
C897 C 0.36484 0.18204 0.32724 0.0
C898 C 0.37479 0.19791 0.32565 0.0
C899 C 0.38123 0.18219 0.31833 0.0
C900 C 0.37251 0.17689 0.32186 0.0
C901 C 0.38245 0.1928 0.32008 0.0
C902 C 0.36608 0.19258 0.32922 0.0
C903 C 0.35556 0.17633 0.33052 0.0
O904 O 0.33511 0.16342 0.35123 0.0
O905 O 0.32576 0.17318 0.34113 0.0
O906 O 0.34677 0.18109 0.32925 0.0
O907 O 0.35625 0.17148 0.33938 0.0
H908 H 0.33799 0.15137 0.33433 0.0
H909 H 0.33193 0.13604 0.32518 0.0
H910 H 0.30091 0.1419 0.33529 0.0
H911 H 0.3071 0.15698 0.34465 0.0
H912 H 0.31914 0.18833 0.38468 0.0
H913 H 0.32829 0.1823 0.36944 0.0
H914 H 0.33534 0.21743 0.3825 0.0
H915 H 0.34461 0.21123 0.3675 0.0
H916 H 0.37541 0.20608 0.32707 0.0
H917 H 0.38704 0.17795 0.31425 0.0
H918 H 0.37173 0.16875 0.32032 0.0
H919 H 0.36026 0.1967 0.3334 0.0
C920 C 0.33786 0.86575 0.32396 0.0
C921 C 0.33274 0.87206 0.33096 0.0
C922 C 0.32699 0.88315 0.31691 0.0
C923 C 0.32737 0.88069 0.32747 0.0
C924 C 0.33197 0.87665 0.30994 0.0
C925 C 0.33735 0.86807 0.31344 0.0
U926 U 0.34367 0.8433 0.34243 0.0
O927 O 0.34895 0.82772 0.33893 0.0
O928 O 0.35862 0.83796 0.34833 0.0
C929 C 0.3579 0.82914 0.3435 0.0
C930 C 0.34397 0.85687 0.3274 0.0
C931 C 0.36706 0.82611 0.33765 0.0
C932 C 0.3766 0.82476 0.32167 0.0
C933 C 0.3679 0.82798 0.32704 0.0
C934 C 0.38379 0.81795 0.33747 0.0
C935 C 0.38465 0.81969 0.32682 0.0
C936 C 0.37508 0.82112 0.34282 0.0
C937 C 0.32617 0.83808 0.36573 0.0
C938 C 0.32421 0.82205 0.37528 0.0
C939 C 0.31812 0.83791 0.38257 0.0
C940 C 0.32148 0.84327 0.37384 0.0
C941 C 0.31933 0.82721 0.38337 0.0
C942 C 0.32762 0.82743 0.36656 0.0
C943 C 0.32919 0.8439 0.35644 0.0
O944 O 0.34917 0.85801 0.33603 0.0
O945 O 0.33943 0.84783 0.32662 0.0
O946 O 0.32811 0.8391 0.34762 0.0
O947 O 0.33781 0.84924 0.3571 0.0
H948 H 0.333 0.87039 0.33913 0.0
H949 H 0.32371 0.88555 0.33307 0.0
H950 H 0.33168 0.87816 0.30175 0.0
H951 H 0.3412 0.86327 0.30791 0.0
H952 H 0.37707 0.82632 0.31349 0.0
H953 H 0.36182 0.83189 0.32292 0.0
H954 H 0.38977 0.81396 0.34167 0.0
H955 H 0.37458 0.81959 0.351 0.0
H956 H 0.3252 0.81381 0.37557 0.0
H957 H 0.31459 0.84219 0.38871 0.0
H958 H 0.32034 0.85149 0.37339 0.0
H959 H 0.33126 0.82326 0.3604 0.0
C960 C 0.68116 0.65404 0.19636 0.0
C961 C 0.68964 0.65052 0.1908 0.0
C962 C 0.69239 0.63694 0.20352 0.0
C963 C 0.6952 0.64202 0.19434 0.0
C964 C 0.68387 0.64054 0.20902 0.0
C965 C 0.67832 0.649 0.20547 0.0
U966 U 0.67609 0.67669 0.178 0.0
O967 O 0.66134 0.68215 0.17169 0.0
O968 O 0.67077 0.69224 0.18149 0.0
C969 C 0.66194 0.6909 0.17666 0.0
C970 C 0.67516 0.66292 0.19283 0.0
C971 C 0.65265 0.69386 0.18236 0.0
C972 C 0.64289 0.6951 0.19821 0.0
C973 C 0.65161 0.69181 0.19292 0.0
C974 C 0.63605 0.70229 0.18242 0.0
C975 C 0.63502 0.70042 0.19303 0.0
C976 C 0.64479 0.69906 0.17715 0.0
C977 C 0.69458 0.68234 0.15559 0.0
C978 C 0.69101 0.69296 0.14056 0.0
C979 C 0.70855 0.68826 0.14463 0.0
C980 C 0.70509 0.68279 0.15324 0.0
C981 C 0.70157 0.69339 0.13815 0.0
C982 C 0.68755 0.68752 0.14923 0.0
C983 C 0.69118 0.67633 0.16463 0.0
O984 O 0.67966 0.67194 0.19389 0.0
O985 O 0.6704 0.66184 0.18395 0.0
O986 O 0.68259 0.67099 0.16356 0.0
O987 O 0.69189 0.68104 0.17352 0.0
H988 H 0.69195 0.65434 0.18375 0.0
H989 H 0.70177 0.63953 0.18997 0.0
H990 H 0.68137 0.63673 0.21601 0.0
H991 H 0.67177 0.65159 0.20984 0.0
H992 H 0.64228 0.69342 0.20636 0.0
H993 H 0.65757 0.68775 0.19708 0.0
H994 H 0.63021 0.70646 0.17821 0.0
H995 H 0.64545 0.70072 0.16901 0.0
H996 H 0.68544 0.69691 0.1358 0.0
H997 H 0.71671 0.68831 0.14294 0.0
H998 H 0.71063 0.67883 0.15805 0.0
H999 H 0.6794 0.68733 0.15094 0.0
C1000 C 0.32343 0.68211 0.1557 0.0
C1001 C 0.33032 0.68836 0.15015 0.0
C1002 C 0.31665 0.69287 0.13807 0.0
C1003 C 0.32696 0.69368 0.14138 0.0
C1004 C 0.30979 0.68666 0.14376 0.0
C1005 C 0.31316 0.68133 0.15248 0.0
U1006 U 0.34197 0.67799 0.17822 0.0
O1007 O 0.33864 0.67372 0.19429 0.0
O1008 O 0.34815 0.66374 0.18478 0.0
C1009 C 0.34326 0.66484 0.19352 0.0
C1010 C 0.32678 0.67644 0.16492 0.0
C1011 C 0.33724 0.65585 0.197 0.0
C1012 C 0.32519 0.64184 0.1936 0.0
C1013 C 0.3307 0.6505 0.19021 0.0
C1014 C 0.33253 0.64392 0.21064 0.0
C1015 C 0.32607 0.63844 0.20386 0.0
C1016 C 0.33807 0.65254 0.20723 0.0
C1017 C 0.36505 0.69614 0.18185 0.0
C1018 C 0.37519 0.69741 0.19756 0.0
C1019 C 0.38139 0.70537 0.18186 0.0
C1020 C 0.37261 0.70185 0.17665 0.0
C1021 C 0.38276 0.70327 0.19241 0.0
C1022 C 0.36642 0.69386 0.19232 0.0
C1023 C 0.35578 0.69272 0.17623 0.0
O1024 O 0.33543 0.67138 0.16407 0.0
O1025 O 0.32605 0.68145 0.17363 0.0
O1026 O 0.347 0.6939 0.18104 0.0
O1027 O 0.35647 0.68382 0.17158 0.0
H1028 H 0.33829 0.6891 0.15256 0.0
H1029 H 0.33248 0.6983 0.13714 0.0
H1030 H 0.30176 0.68601 0.14157 0.0
H1031 H 0.30772 0.67661 0.15673 0.0
H1032 H 0.32019 0.63785 0.18823 0.0
H1033 H 0.32989 0.653 0.18229 0.0
H1034 H 0.33345 0.64144 0.21855 0.0
H1035 H 0.34308 0.65658 0.21257 0.0
H1036 H 0.37593 0.69573 0.20569 0.0
H1037 H 0.38714 0.70968 0.1776 0.0
H1038 H 0.37171 0.70362 0.16855 0.0
H1039 H 0.36068 0.68941 0.19646 0.0
C1040 C 0.32421 0.33793 0.15535 0.0
C1041 C 0.33134 0.33288 0.14913 0.0
C1042 C 0.31752 0.3272 0.13761 0.0
C1043 C 0.32803 0.32758 0.14033 0.0
C1044 C 0.31042 0.33214 0.14399 0.0
C1045 C 0.31374 0.33745 0.15274 0.0
U1046 U 0.34214 0.34338 0.17842 0.0
O1047 O 0.34782 0.35814 0.18446 0.0
O1048 O 0.33812 0.34816 0.19411 0.0
C1049 C 0.34271 0.35715 0.19312 0.0
C1050 C 0.32744 0.34388 0.16446 0.0
C1051 C 0.33668 0.3661 0.19636 0.0
C1052 C 0.32606 0.38094 0.19256 0.0
C1053 C 0.33148 0.37233 0.18923 0.0
C1054 C 0.33081 0.37706 0.21017 0.0
C1055 C 0.32567 0.38342 0.20308 0.0
C1056 C 0.33626 0.36851 0.20684 0.0
C1057 C 0.36518 0.32569 0.18376 0.0
C1058 C 0.38015 0.32948 0.19449 0.0
C1059 C 0.37663 0.31201 0.18912 0.0
C1060 C 0.36786 0.3153 0.18383 0.0
C1061 C 0.38296 0.31906 0.19445 0.0
C1062 C 0.37133 0.33276 0.18921 0.0
C1063 C 0.35607 0.32892 0.1778 0.0
O1064 O 0.32643 0.33918 0.17337 0.0
O1065 O 0.33612 0.34913 0.16366 0.0
O1066 O 0.3569 0.33765 0.17274 0.0
O1067 O 0.34715 0.32774 0.18241 0.0
H1068 H 0.33947 0.33312 0.15102 0.0
H1069 H 0.33374 0.32396 0.13557 0.0
H1070 H 0.30226 0.33185 0.14228 0.0
H1071 H 0.3081 0.34125 0.15747 0.0
H1072 H 0.32209 0.3856 0.18691 0.0
H1073 H 0.33163 0.37057 0.1811 0.0
H1074 H 0.3308 0.37881 0.21831 0.0
H1075 H 0.34024 0.36382 0.21246 0.0
H1076 H 0.38487 0.33514 0.19843 0.0
H1077 H 0.37841 0.30391 0.18907 0.0
H1078 H 0.36318 0.30971 0.17973 0.0
H1079 H 0.36938 0.34083 0.18929 0.0
C1080 C 0.65492 0.32378 0.18373 0.0
C1081 C 0.64923 0.33088 0.18939 0.0
C1082 C 0.63747 0.31724 0.19498 0.0
C1083 C 0.64055 0.32764 0.19493 0.0
C1084 C 0.64328 0.31017 0.18937 0.0
C1085 C 0.6519 0.31341 0.18379 0.0
U1086 U 0.67757 0.34208 0.17811 0.0
O1087 O 0.69344 0.33849 0.17354 0.0
O1088 O 0.68363 0.34768 0.16334 0.0
C1089 C 0.6924 0.34287 0.16447 0.0
C1090 C 0.664 0.32698 0.17771 0.0
C1091 C 0.69578 0.33677 0.15561 0.0
C1092 C 0.69215 0.32541 0.14121 0.0
C1093 C 0.68879 0.33084 0.14982 0.0
C1094 C 0.70955 0.33158 0.14426 0.0
C1095 C 0.70258 0.32574 0.13831 0.0
C1096 C 0.70617 0.33704 0.1528 0.0
C1097 C 0.68208 0.36573 0.19517 0.0
C1098 C 0.698 0.37566 0.19655 0.0
C1099 C 0.68215 0.38252 0.20324 0.0
C1100 C 0.67686 0.37366 0.20008 0.0
C1101 C 0.69279 0.3836 0.20157 0.0
C1102 C 0.69268 0.36681 0.19334 0.0
C1103 C 0.67634 0.35636 0.19223 0.0
O1104 O 0.66306 0.33545 0.17226 0.0
O1105 O 0.67289 0.32636 0.18252 0.0
O1106 O 0.68112 0.34762 0.19368 0.0
O1107 O 0.67135 0.3568 0.18342 0.0
H1108 H 0.65149 0.33891 0.1895 0.0
H1109 H 0.63632 0.33326 0.19927 0.0
H1110 H 0.64106 0.30213 0.18913 0.0
H1111 H 0.6562 0.30782 0.17947 0.0
H1112 H 0.68661 0.32089 0.13687 0.0
H1113 H 0.68073 0.33046 0.1519 0.0
H1114 H 0.7176 0.33211 0.14217 0.0
H1115 H 0.71168 0.34159 0.15717 0.0
H1116 H 0.70617 0.37631 0.19505 0.0
H1117 H 0.67792 0.38842 0.20719 0.0
H1118 H 0.66868 0.37296 0.20157 0.0
H1119 H 0.69685 0.3608 0.18949 0.0
C1120 C 0.65409 0.32453 0.84 0.0
C1121 C 0.65372 0.32549 0.82924 0.0
C1122 C 0.63664 0.31758 0.82892 0.0
C1123 C 0.64509 0.32199 0.82375 0.0
C1124 C 0.637 0.31677 0.83971 0.0
C1125 C 0.64566 0.32019 0.84518 0.0
U1126 U 0.67665 0.34307 0.84449 0.0
O1127 O 0.68263 0.34965 0.85893 0.0
O1128 O 0.69256 0.34013 0.84936 0.0
C1129 C 0.69148 0.34493 0.85815 0.0
C1130 C 0.66315 0.328 0.84594 0.0
C1131 C 0.69486 0.33929 0.86739 0.0
C1132 C 0.69645 0.32349 0.87727 0.0
C1133 C 0.6929 0.32873 0.86855 0.0
C1134 C 0.70372 0.33935 0.88387 0.0
C1135 C 0.70196 0.32872 0.88503 0.0
C1136 C 0.70023 0.34457 0.87513 0.0
C1137 C 0.68106 0.36553 0.826 0.0
C1138 C 0.69633 0.37646 0.82674 0.0
C1139 C 0.68222 0.38085 0.81534 0.0
C1140 C 0.67678 0.37214 0.81865 0.0
C1141 C 0.69207 0.38311 0.81933 0.0
C1142 C 0.69085 0.36776 0.83007 0.0
C1143 C 0.67522 0.35639 0.82934 0.0
O1144 O 0.67212 0.32707 0.84141 0.0
O1145 O 0.66215 0.33679 0.85074 0.0
O1146 O 0.67026 0.35732 0.83805 0.0
O1147 O 0.68005 0.34762 0.82855 0.0
H1148 H 0.6601 0.32892 0.82507 0.0
H1149 H 0.64498 0.32283 0.81545 0.0
H1150 H 0.63065 0.31333 0.84391 0.0
H1151 H 0.64579 0.3194 0.85348 0.0
H1152 H 0.69503 0.31529 0.87784 0.0
H1153 H 0.68872 0.32452 0.86267 0.0
H1154 H 0.70776 0.34368 0.88976 0.0
H1155 H 0.70175 0.35274 0.8744 0.0
H1156 H 0.70385 0.37804 0.83004 0.0
H1157 H 0.67878 0.38574 0.80954 0.0
H1158 H 0.66923 0.37052 0.81542 0.0
H1159 H 0.69425 0.36276 0.83582 0.0
C1160 C 0.6525 0.68077 0.82608 0.0
C1161 C 0.65182 0.69132 0.82814 0.0
C1162 C 0.63488 0.69185 0.81996 0.0
C1163 C 0.64311 0.69681 0.82507 0.0
C1164 C 0.63556 0.68125 0.81808 0.0
C1165 C 0.64428 0.67578 0.82109 0.0
U1166 U 0.67638 0.67568 0.84283 0.0
O1167 O 0.68274 0.66105 0.84833 0.0
O1168 O 0.69193 0.67103 0.83819 0.0
C1169 C 0.69114 0.66205 0.8428 0.0
C1170 C 0.66175 0.67486 0.82883 0.0
C1171 C 0.69424 0.65307 0.83667 0.0
C1172 C 0.69066 0.63643 0.82887 0.0
C1173 C 0.68732 0.64505 0.83427 0.0
C1174 C 0.70781 0.64382 0.82798 0.0
C1175 C 0.70096 0.63569 0.82569 0.0
C1176 C 0.70449 0.65238 0.83343 0.0
C1177 C 0.68254 0.69363 0.86562 0.0
C1178 C 0.69289 0.69003 0.88085 0.0
C1179 C 0.68871 0.70758 0.87645 0.0
C1180 C 0.68329 0.70414 0.86779 0.0
C1181 C 0.69348 0.70057 0.88318 0.0
C1182 C 0.68748 0.68659 0.87215 0.0
C1183 C 0.67627 0.69026 0.85673 0.0
O1184 O 0.67064 0.67956 0.82738 0.0
O1185 O 0.66132 0.66973 0.83754 0.0
O1186 O 0.67125 0.68149 0.85777 0.0
O1187 O 0.68053 0.69141 0.84765 0.0
H1188 H 0.65805 0.69531 0.83204 0.0
H1189 H 0.64279 0.70494 0.82674 0.0
H1190 H 0.62943 0.6772 0.81406 0.0
H1191 H 0.64466 0.66765 0.81942 0.0
H1192 H 0.68517 0.63036 0.82714 0.0
H1193 H 0.67935 0.64538 0.83663 0.0
H1194 H 0.71582 0.64345 0.82576 0.0
H1195 H 0.70998 0.65844 0.83523 0.0
H1196 H 0.69639 0.6844 0.88589 0.0
H1197 H 0.68917 0.71576 0.87785 0.0
H1198 H 0.67958 0.7097 0.86283 0.0
H1199 H 0.68704 0.67843 0.87061 0.0
C1200 C 0.32309 0.65518 0.83979 0.0
C1201 C 0.33003 0.6493 0.83412 0.0
C1202 C 0.31609 0.63768 0.8289 0.0
C1203 C 0.32656 0.64061 0.82874 0.0
C1204 C 0.30918 0.64374 0.83447 0.0
C1205 C 0.31266 0.65237 0.83987 0.0
U1206 U 0.34178 0.67759 0.84513 0.0
O1207 O 0.3386 0.69334 0.85012 0.0
O1208 O 0.34791 0.68324 0.85991 0.0
C1209 C 0.34322 0.69209 0.85905 0.0
C1210 C 0.32656 0.66415 0.8458 0.0
C1211 C 0.33749 0.69542 0.86818 0.0
C1212 C 0.32155 0.69742 0.87767 0.0
C1213 C 0.32682 0.69386 0.86904 0.0
C1214 C 0.3376 0.70394 0.88476 0.0
C1215 C 0.32687 0.70258 0.88562 0.0
C1216 C 0.34283 0.70041 0.87613 0.0
C1217 C 0.36496 0.6823 0.82749 0.0
C1218 C 0.37503 0.69814 0.82654 0.0
C1219 C 0.38143 0.68264 0.81873 0.0
C1220 C 0.37263 0.67729 0.82197 0.0
C1221 C 0.38272 0.69314 0.82092 0.0
C1222 C 0.36625 0.69275 0.82984 0.0
C1223 C 0.35564 0.67652 0.83056 0.0
O1224 O 0.33521 0.66308 0.85097 0.0
O1225 O 0.32586 0.67309 0.84113 0.0
O1226 O 0.34688 0.68136 0.82946 0.0
O1227 O 0.35631 0.67137 0.83925 0.0
H1228 H 0.33812 0.65135 0.83393 0.0
H1229 H 0.33212 0.63609 0.82463 0.0
H1230 H 0.30104 0.64185 0.83462 0.0
H1231 H 0.30718 0.65686 0.84414 0.0
H1232 H 0.31329 0.69632 0.87801 0.0
H1233 H 0.32255 0.68998 0.863 0.0
H1234 H 0.34198 0.70768 0.8908 0.0
H1235 H 0.35108 0.70163 0.87565 0.0
H1236 H 0.37585 0.70619 0.82846 0.0
H1237 H 0.38713 0.67859 0.81431 0.0
H1238 H 0.37177 0.66923 0.82007 0.0
H1239 H 0.36044 0.69675 0.83416 0.0
C1240 C 0.33908 0.36682 0.82579 0.0
C1241 C 0.32843 0.3675 0.82742 0.0
C1242 C 0.32824 0.38443 0.81928 0.0
C1243 C 0.32305 0.37621 0.82416 0.0
C1244 C 0.33893 0.38374 0.8178 0.0
C1245 C 0.34427 0.37502 0.821 0.0
U1246 U 0.34409 0.34352 0.84335 0.0
O1247 O 0.34892 0.32791 0.83939 0.0
O1248 O 0.35884 0.33756 0.84916 0.0
C1249 C 0.35788 0.32891 0.84405 0.0
C1250 C 0.34493 0.35764 0.82885 0.0
C1251 C 0.36699 0.32571 0.8382 0.0
C1252 C 0.37633 0.32381 0.82215 0.0
C1253 C 0.36776 0.32734 0.82754 0.0
C1254 C 0.38355 0.31722 0.83804 0.0
C1255 C 0.3843 0.31861 0.82732 0.0
C1256 C 0.37498 0.32072 0.8434 0.0
C1257 C 0.3263 0.33817 0.86641 0.0
C1258 C 0.32438 0.32204 0.87577 0.0
C1259 C 0.31775 0.33772 0.88299 0.0
C1260 C 0.32127 0.3432 0.8744 0.0
C1261 C 0.31916 0.32704 0.88375 0.0
C1262 C 0.32793 0.32755 0.86719 0.0
C1263 C 0.32955 0.34415 0.85729 0.0
O1264 O 0.35008 0.35834 0.83755 0.0
O1265 O 0.3402 0.34873 0.82771 0.0
O1266 O 0.32839 0.33962 0.84834 0.0
O1267 O 0.33834 0.34918 0.85816 0.0
H1268 H 0.32427 0.36129 0.83118 0.0
H1269 H 0.31485 0.37655 0.82552 0.0
H1270 H 0.34314 0.38986 0.81396 0.0
H1271 H 0.35248 0.37464 0.81966 0.0
H1272 H 0.37659 0.32495 0.81391 0.0
H1273 H 0.36169 0.33122 0.82337 0.0
H1274 H 0.38961 0.31346 0.84232 0.0
H1275 H 0.37457 0.31945 0.85163 0.0
H1276 H 0.32553 0.31382 0.87604 0.0
H1277 H 0.31397 0.34188 0.88905 0.0
H1278 H 0.31999 0.3514 0.87398 0.0
H1279 H 0.33184 0.32351 0.86111 0.0
C1280 C 0.25411 0.2429 0.04597 0.0
C1281 C 0.24335 0.2423 0.04711 0.0
C1282 C 0.25847 0.24718 0.03708 0.0
C1283 C 0.25218 0.25108 0.02918 0.0
C1284 C 0.23708 0.24608 0.03911 0.0
C1285 C 0.24145 0.25037 0.03024 0.0
C1286 C 0.25667 0.25546 0.01961 0.0
C1287 C 0.26699 0.27641 0.0452 0.0
C1288 C 0.27772 0.27688 0.04672 0.0
C1289 C 0.2628 0.27177 0.03641 0.0
C1290 C 0.26924 0.26742 0.02899 0.0
C1291 C 0.28414 0.27262 0.03922 0.0
C1292 C 0.27994 0.268 0.03043 0.0
C1293 C 0.2649 0.26267 0.01953 0.0
C1294 C 0.26713 0.27523 0.97485 0.0
C1295 C 0.27787 0.27597 0.97361 0.0
C1296 C 0.2629 0.27084 0.98374 0.0
C1297 C 0.2693 0.26692 0.99153 0.0
C1298 C 0.28426 0.27219 0.98151 0.0
C1299 C 0.28002 0.26776 0.99038 0.0
C1300 C 0.26493 0.26243 1.00112 0.0
C1301 C 0.25404 0.24202 0.97526 0.0
C1302 C 0.24328 0.24172 0.97392 0.0
C1303 C 0.25844 0.24638 0.98409 0.0
C1304 C 0.25219 0.25062 0.99174 0.0
C1305 C 0.23705 0.24581 0.98168 0.0
C1306 C 0.24146 0.25015 0.9905 0.0
C1307 C 0.2567 0.25521 1.0012 0.0
H1308 H 0.25918 0.24012 0.05197 0.0
H1309 H 0.26677 0.24735 0.03636 0.0
H1310 H 0.22877 0.24558 0.03963 0.0
H1311 H 0.23643 0.25319 0.02421 0.0
H1312 H 0.26181 0.27956 0.05083 0.0
H1313 H 0.25453 0.27168 0.03538 0.0
H1314 H 0.29243 0.273 0.04006 0.0
H1315 H 0.28507 0.26483 0.02476 0.0
H1316 H 0.26196 0.278 0.96892 0.0
H1317 H 0.25461 0.27061 0.98454 0.0
H1318 H 0.29255 0.27279 0.98093 0.0
H1319 H 0.28512 0.26494 0.99634 0.0
H1320 H 0.25907 0.23898 0.96944 0.0
H1321 H 0.26673 0.2464 0.98497 0.0
H1322 H 0.22874 0.24554 0.981 0.0
H1323 H 0.23646 0.25323 0.99635 0.0
N1324 N 0.25287 0.25208 0.01044 0.0
N1325 N 0.26873 0.2658 0.01029 0.0
C1326 C 0.76641 0.24338 0.97635 0.0
C1327 C 0.77715 0.24334 0.97502 0.0
C1328 C 0.76208 0.24768 0.98514 0.0
C1329 C 0.7684 0.2521 0.99276 0.0
C1330 C 0.78345 0.24763 0.98276 0.0
C1331 C 0.77912 0.2519 0.99156 0.0
C1332 C 0.76394 0.25664 1.00217 0.0
C1333 C 0.75392 0.27663 0.97574 0.0
C1334 C 0.7432 0.27734 0.9744 0.0
C1335 C 0.75806 0.27222 0.98465 0.0
C1336 C 0.75157 0.26825 0.99235 0.0
C1337 C 0.73673 0.2735 0.9822 0.0
C1338 C 0.74087 0.26904 0.99108 0.0
C1339 C 0.75583 0.2638 1.00197 0.0
C1340 C 0.75354 0.27736 0.04613 0.0
C1341 C 0.7428 0.27749 0.04755 0.0
C1342 C 0.75776 0.27299 0.03732 0.0
C1343 C 0.75135 0.26858 0.02977 0.0
C1344 C 0.73641 0.27321 0.03988 0.0
C1345 C 0.74065 0.26887 0.03106 0.0
C1346 C 0.75572 0.26398 0.02035 0.0
C1347 C 0.7657 0.24407 0.04683 0.0
C1348 C 0.77642 0.24335 0.04818 0.0
C1349 C 0.76157 0.24844 0.03789 0.0
C1350 C 0.76808 0.25236 0.03018 0.0
C1351 C 0.7829 0.24714 0.04036 0.0
C1352 C 0.77877 0.25156 0.03145 0.0
C1353 C 0.76382 0.25681 0.02055 0.0
H1354 H 0.76134 0.24017 0.97053 0.0
H1355 H 0.7538 0.24752 0.98599 0.0
H1356 H 0.79175 0.24758 0.98207 0.0
H1357 H 0.78415 0.25514 0.99739 0.0
H1358 H 0.75915 0.27944 0.96988 0.0
H1359 H 0.76634 0.27202 0.98555 0.0
H1360 H 0.72844 0.27409 0.98154 0.0
H1361 H 0.7357 0.26618 0.99698 0.0
H1362 H 0.75869 0.28077 0.05175 0.0
H1363 H 0.76603 0.27315 0.03637 0.0
H1364 H 0.72813 0.27308 0.04075 0.0
H1365 H 0.73554 0.26559 0.02531 0.0
H1366 H 0.76046 0.2413 0.0527 0.0
H1367 H 0.75329 0.24865 0.03698 0.0
H1368 H 0.79118 0.24654 0.04104 0.0
H1369 H 0.78394 0.25438 0.02554 0.0
N1370 N 0.76765 0.25349 0.01145 0.0
N1371 N 0.75201 0.26712 0.01108 0.0
C1372 C 0.76692 0.77576 0.04551 0.0
C1373 C 0.77766 0.77647 0.04687 0.0
C1374 C 0.76269 0.7712 0.03671 0.0
C1375 C 0.76909 0.76712 0.02911 0.0
C1376 C 0.78404 0.77249 0.03918 0.0
C1377 C 0.7798 0.76792 0.03039 0.0
C1378 C 0.76472 0.76246 0.01961 0.0
C1379 C 0.75421 0.74224 0.04581 0.0
C1380 C 0.74347 0.74177 0.04712 0.0
C1381 C 0.75848 0.7466 0.03692 0.0
C1382 C 0.75212 0.7507 0.02919 0.0
C1383 C 0.73712 0.74575 0.03929 0.0
C1384 C 0.7414 0.75011 0.03041 0.0
C1385 C 0.75653 0.7552 0.01964 0.0
C1386 C 0.75392 0.74224 0.97513 0.0
C1387 C 0.74315 0.74166 0.97389 0.0
C1388 C 0.7583 0.74658 0.98398 0.0
C1389 C 0.75202 0.75056 0.99174 0.0
C1390 C 0.73691 0.74546 0.98179 0.0
C1391 C 0.74129 0.74982 0.99061 0.0
C1392 C 0.75651 0.75512 1.00123 0.0
C1393 C 0.76695 0.77537 0.97501 0.0
C1394 C 0.77769 0.77609 0.97381 0.0
C1395 C 0.7627 0.77093 0.98387 0.0
C1396 C 0.76908 0.76696 0.99166 0.0
C1397 C 0.78406 0.77227 0.98169 0.0
C1398 C 0.7798 0.76779 0.99053 0.0
C1399 C 0.7647 0.76239 1.0012 0.0
H1400 H 0.76175 0.77868 0.05128 0.0
H1401 H 0.7544 0.77097 0.0358 0.0
H1402 H 0.79234 0.77305 0.03987 0.0
H1403 H 0.78491 0.76496 0.02458 0.0
H1404 H 0.75933 0.73906 0.05157 0.0
H1405 H 0.76677 0.74666 0.03605 0.0
H1406 H 0.72883 0.74561 0.04007 0.0
H1407 H 0.73633 0.75314 0.02452 0.0
H1408 H 0.75898 0.73944 0.9692 0.0
H1409 H 0.7666 0.74676 0.98477 0.0
H1410 H 0.7286 0.74496 0.98122 0.0
H1411 H 0.73628 0.75268 0.99655 0.0
H1412 H 0.76182 0.77842 0.96919 0.0
H1413 H 0.75441 0.77073 0.98468 0.0
H1414 H 0.79236 0.77264 0.98099 0.0
H1415 H 0.7849 0.76488 0.99645 0.0
N1416 N 0.76851 0.7657 0.01039 0.0
N1417 N 0.75273 0.75189 0.01046 0.0
C1418 C 0.2668 0.74468 0.97626 0.0
C1419 C 0.27754 0.74463 0.97498 0.0
C1420 C 0.26244 0.7489 0.98508 0.0
C1421 C 0.26872 0.75324 0.99278 0.0
C1422 C 0.28381 0.74884 0.98279 0.0
C1423 C 0.27944 0.75303 0.99161 0.0
C1424 C 0.26421 0.75762 1.00224 0.0
C1425 C 0.25401 0.77802 0.97619 0.0
C1426 C 0.2433 0.77804 0.97453 0.0
C1427 C 0.25815 0.77361 0.98509 0.0
C1428 C 0.25168 0.76907 0.99249 0.0
C1429 C 0.23684 0.77357 0.98199 0.0
C1430 C 0.24099 0.7692 0.99092 0.0
C1431 C 0.25596 0.76462 1.00209 0.0
C1432 C 0.25341 0.77778 0.04634 0.0
C1433 C 0.24267 0.77795 0.04767 0.0
C1434 C 0.2577 0.77344 0.03755 0.0
C1435 C 0.25135 0.76907 0.02992 0.0
C1436 C 0.23634 0.77368 0.03995 0.0
C1437 C 0.24063 0.76935 0.03115 0.0
C1438 C 0.25579 0.76463 0.02047 0.0
C1439 C 0.26581 0.74413 0.04647 0.0
C1440 C 0.27651 0.74408 0.0482 0.0
C1441 C 0.26174 0.74859 0.03756 0.0
C1442 C 0.26826 0.75313 0.03021 0.0
C1443 C 0.28303 0.74858 0.0408 0.0
C1444 C 0.27894 0.75299 0.03186 0.0
C1445 C 0.26404 0.75762 0.02061 0.0
H1446 H 0.26174 0.74155 0.97039 0.0
H1447 H 0.25415 0.7487 0.9859 0.0
H1448 H 0.29212 0.74877 0.98214 0.0
H1449 H 0.28446 0.7562 0.9975 0.0
H1450 H 0.2592 0.78136 0.97057 0.0
H1451 H 0.26641 0.77385 0.98624 0.0
H1452 H 0.22856 0.77361 0.98102 0.0
H1453 H 0.23585 0.76586 0.99658 0.0
H1454 H 0.25853 0.7812 0.052 0.0
H1455 H 0.26598 0.77362 0.03666 0.0
H1456 H 0.22805 0.77358 0.04074 0.0
H1457 H 0.23557 0.7661 0.02534 0.0
H1458 H 0.26058 0.74078 0.05204 0.0
H1459 H 0.25348 0.74837 0.03636 0.0
H1460 H 0.2913 0.74852 0.04183 0.0
H1461 H 0.28413 0.75634 0.02624 0.0
N1462 N 0.26796 0.75446 0.0115 0.0
N1463 N 0.25204 0.76779 0.01121 0.0
C1464 C 0.9748 0.2446 0.25328 0.0
C1465 C 0.97322 0.24486 0.24257 0.0
C1466 C 0.98378 0.24875 0.25762 0.0
C1467 C 0.99134 0.25333 0.25135 0.0
C1468 C 0.98087 0.24932 0.23631 0.0
C1469 C 0.98987 0.25344 0.24065 0.0
C1470 C 1.00097 0.2576 0.25583 0.0
C1471 C 0.97531 0.27763 0.26684 0.0
C1472 C 0.97392 0.27758 0.27756 0.0
C1473 C 0.9841 0.27336 0.26249 0.0
C1474 C 0.99167 0.26886 0.26876 0.0
C1475 C 0.9816 0.27321 0.28382 0.0
C1476 C 0.9904 0.26896 0.27947 0.0
C1477 C 1.00112 0.26442 0.26427 0.0
C1478 C 0.04575 0.27691 0.2675 0.0
C1479 C 0.0471 0.27657 0.27823 0.0
C1480 C 0.03684 0.27283 0.26294 0.0
C1481 C 0.02913 0.26826 0.26903 0.0
C1482 C 0.03932 0.27208 0.2843 0.0
C1483 C 0.0304 0.26803 0.27975 0.0
C1484 C 0.01951 0.26414 0.26437 0.0
C1485 C 0.04504 0.24392 0.25327 0.0
C1486 C 0.04639 0.24394 0.24253 0.0
C1487 C 0.03632 0.24831 0.25764 0.0
C1488 C 0.0288 0.25292 0.2514 0.0
C1489 C 0.03878 0.24847 0.2363 0.0
C1490 C 0.03006 0.25286 0.24069 0.0
C1491 C 0.01936 0.25737 0.2559 0.0
H1492 H 0.96904 0.24126 0.25832 0.0
H1493 H 0.98484 0.24833 0.26587 0.0
H1494 H 0.97997 0.2495 0.22803 0.0
H1495 H 0.99566 0.2568 0.23566 0.0
H1496 H 0.96954 0.28088 0.26178 0.0
H1497 H 0.98501 0.27365 0.25422 0.0
H1498 H 0.98089 0.2732 0.29211 0.0
H1499 H 0.99619 0.26567 0.28448 0.0
H1500 H 0.05162 0.28029 0.26261 0.0
H1501 H 0.03593 0.27333 0.25467 0.0
H1502 H 0.04004 0.27184 0.2926 0.0
H1503 H 0.02449 0.26467 0.28461 0.0
H1504 H 0.05062 0.24032 0.25829 0.0
H1505 H 0.03539 0.24795 0.26591 0.0
H1506 H 0.0396 0.24874 0.22803 0.0
H1507 H 0.02434 0.25629 0.2357 0.0
N1508 N 0.01009 0.25442 0.25194 0.0
N1509 N 0.01039 0.26735 0.26824 0.0
C1510 C 0.74369 0.974 0.26638 0.0
C1511 C 0.74301 0.97274 0.27711 0.0
C1512 C 0.74804 0.98292 0.26214 0.0
C1513 C 0.752 0.9907 0.26853 0.0
C1514 C 0.74685 0.98061 0.28348 0.0
C1515 C 0.75126 0.9895 0.27923 0.0
C1516 C 0.75639 1.00033 0.26416 0.0
C1517 C 0.77702 0.97491 0.25379 0.0
C1518 C 0.77722 0.97347 0.24307 0.0
C1519 C 0.77259 0.98367 0.25799 0.0
C1520 C 0.76817 0.99116 0.25159 0.0
C1521 C 0.77293 0.98108 0.23668 0.0
C1522 C 0.76851 0.98985 0.24089 0.0
C1523 C 0.76351 1.00054 0.25595 0.0
C1524 C 0.77635 0.04499 0.25382 0.0
C1525 C 0.77632 0.04664 0.24311 0.0
C1526 C 0.77207 0.03602 0.25802 0.0
C1527 C 0.7676 0.02853 0.25161 0.0
C1528 C 0.77192 0.03906 0.23672 0.0
C1529 C 0.76767 0.03008 0.24093 0.0
C1530 C 0.76323 0.0189 0.25595 0.0
C1531 C 0.74298 0.04449 0.26668 0.0
C1532 C 0.74268 0.04572 0.27742 0.0
C1533 C 0.74734 0.03575 0.26235 0.0
C1534 C 0.75161 0.02808 0.26865 0.0
C1535 C 0.74682 0.03794 0.28371 0.0
C1536 C 0.75118 0.02921 0.27937 0.0
C1537 C 0.75615 0.01869 0.26418 0.0
H1538 H 0.74088 0.96808 0.26123 0.0
H1539 H 0.74821 0.98376 0.25385 0.0
H1540 H 0.74629 0.98 0.29177 0.0
H1541 H 0.75411 0.99546 0.28432 0.0
H1542 H 0.78045 0.96934 0.25894 0.0
H1543 H 0.77272 0.98464 0.26626 0.0
H1544 H 0.77285 0.9802 0.2284 0.0
H1545 H 0.76522 0.99555 0.23579 0.0
H1546 H 0.77986 0.05054 0.25896 0.0
H1547 H 0.77238 0.03487 0.26627 0.0
H1548 H 0.77166 0.04011 0.22846 0.0
H1549 H 0.76433 0.02437 0.23584 0.0
H1550 H 0.73992 0.05033 0.2616 0.0
H1551 H 0.7473 0.03496 0.25406 0.0
H1552 H 0.74656 0.03853 0.292 0.0
H1553 H 0.75428 0.02334 0.2844 0.0
N1554 N 0.75306 0.00941 0.26798 0.0
N1555 N 0.76658 0.00982 0.25213 0.0
C1556 C 0.04518 0.77679 0.25477 0.0
C1557 C 0.04646 0.7769 0.24403 0.0
C1558 C 0.03622 0.77265 0.25916 0.0
C1559 C 0.02839 0.76848 0.25291 0.0
C1560 C 0.03853 0.77285 0.2378 0.0
C1561 C 0.02957 0.76876 0.24219 0.0
C1562 C 0.01879 0.76417 0.25741 0.0
C1563 C 0.04441 0.74345 0.26768 0.0
C1564 C 0.04579 0.74274 0.2784 0.0
C1565 C 0.03566 0.74807 0.26349 0.0
C1566 C 0.02813 0.75224 0.26993 0.0
C1567 C 0.03816 0.74679 0.28482 0.0
C1568 C 0.02942 0.75144 0.28062 0.0
C1569 C 0.01868 0.75697 0.2656 0.0
C1570 C 0.97395 0.74429 0.26764 0.0
C1571 C 0.97266 0.74356 0.27836 0.0
C1572 C 0.98287 0.7487 0.26347 0.0
C1573 C 0.99065 0.75267 0.26991 0.0
C1574 C 0.98055 0.74738 0.28479 0.0
C1575 C 0.98946 0.75184 0.28061 0.0
C1576 C 1.00026 0.75719 0.2656 0.0
C1577 C 0.97444 0.77748 0.25479 0.0
C1578 C 0.97317 0.7779 0.24404 0.0
C1579 C 0.98324 0.77312 0.25918 0.0
C1580 C 0.99093 0.76899 0.25292 0.0
C1581 C 0.98099 0.77393 0.23781 0.0
C1582 C 0.98978 0.76958 0.2422 0.0
C1583 C 1.00038 0.76441 0.25742 0.0
H1584 H 0.05114 0.77981 0.25979 0.0
H1585 H 0.0354 0.77276 0.26744 0.0
H1586 H 0.03919 0.77297 0.2295 0.0
H1587 H 0.02358 0.76571 0.2372 0.0
H1588 H 0.05013 0.74048 0.26248 0.0
H1589 H 0.03473 0.74829 0.25522 0.0
H1590 H 0.03885 0.74622 0.2931 0.0
H1591 H 0.02366 0.75445 0.28576 0.0
H1592 H 0.96803 0.74149 0.26244 0.0
H1593 H 0.9837 0.74893 0.25519 0.0
H1594 H 0.97994 0.74678 0.29307 0.0
H1595 H 0.99541 0.75469 0.28575 0.0
H1596 H 0.96857 0.78042 0.25984 0.0
H1597 H 0.98405 0.77303 0.26747 0.0
H1598 H 0.98038 0.7743 0.22951 0.0
H1599 H 0.99566 0.76658 0.2372 0.0
N1600 N 0.00964 0.76754 0.25362 0.0
N1601 N 0.00941 0.75383 0.2694 0.0
C1602 C 0.25408 0.97539 0.24361 0.0
C1603 C 0.24335 0.9739 0.24307 0.0
C1604 C 0.25828 0.98429 0.24801 0.0
C1605 C 0.25185 0.99182 0.25212 0.0
C1606 C 0.23694 0.98155 0.24701 0.0
C1607 C 0.24114 0.99043 0.25145 0.0
C1608 C 0.25615 1.00136 0.25676 0.0
C1609 C 0.26699 0.97513 0.27659 0.0
C1610 C 0.27775 0.97411 0.27713 0.0
C1611 C 0.26259 0.98399 0.27239 0.0
C1612 C 0.26884 0.99196 0.26848 0.0
C1613 C 0.28398 0.98222 0.27342 0.0
C1614 C 0.27957 0.99105 0.26919 0.0
C1615 C 0.2643 1.00144 0.26403 0.0
C1616 C 0.26565 0.04541 0.27809 0.0
C1617 C 0.27634 0.0472 0.27846 0.0
C1618 C 0.26161 0.03656 0.27346 0.0
C1619 C 0.26817 0.02933 0.26902 0.0
C1620 C 0.28289 0.03989 0.27412 0.0
C1621 C 0.27885 0.03102 0.26952 0.0
C1622 C 0.26401 0.0198 0.26427 0.0
C1623 C 0.25294 0.04612 0.24467 0.0
C1624 C 0.24217 0.04695 0.24394 0.0
C1625 C 0.25743 0.03731 0.24888 0.0
C1626 C 0.25125 0.0292 0.25263 0.0
C1627 C 0.23602 0.03872 0.2475 0.0
C1628 C 0.24051 0.02995 0.25176 0.0
C1629 C 0.25586 0.01973 0.25701 0.0
H1630 H 0.25924 0.96975 0.24047 0.0
H1631 H 0.26657 0.98532 0.24811 0.0
H1632 H 0.22865 0.98062 0.24681 0.0
H1633 H 0.23601 0.99616 0.25448 0.0
H1634 H 0.26194 0.96905 0.27932 0.0
H1635 H 0.25428 0.9846 0.27224 0.0
H1636 H 0.29229 0.98181 0.27389 0.0
H1637 H 0.28457 0.99715 0.26639 0.0
H1638 H 0.26038 0.0509 0.28131 0.0
H1639 H 0.25335 0.03532 0.27342 0.0
H1640 H 0.29117 0.04093 0.27442 0.0
H1641 H 0.28407 0.02549 0.26627 0.0
H1642 H 0.25793 0.0523 0.24205 0.0
H1643 H 0.26574 0.03683 0.24914 0.0
H1644 H 0.22771 0.03898 0.24688 0.0
H1645 H 0.23557 0.02374 0.25443 0.0
N1646 N 0.25223 0.0105 0.25361 0.0
N1647 N 0.26794 0.01066 0.26743 0.0
C1648 C 0.97429 0.74451 0.75342 0.0
C1649 C 0.97307 0.74412 0.74267 0.0
C1650 C 0.98324 0.74868 0.75781 0.0
C1651 C 0.9911 0.75272 0.75155 0.0
C1652 C 0.98108 0.74794 0.73643 0.0
C1653 C 0.99 0.75217 0.74083 0.0
C1654 C 1.00068 0.75712 0.75606 0.0
C1655 C 0.97485 0.77728 0.76654 0.0
C1656 C 0.97341 0.77736 0.77726 0.0
C1657 C 0.98371 0.77303 0.7623 0.0
C1658 C 0.99128 0.76868 0.76867 0.0
C1659 C 0.98112 0.77317 0.78362 0.0
C1660 C 0.98997 0.76894 0.77937 0.0
C1661 C 1.00076 0.76419 0.7643 0.0
C1662 C 0.04517 0.77743 0.76707 0.0
C1663 C 0.04659 0.77739 0.7778 0.0
C1664 C 0.0363 0.77308 0.76267 0.0
C1665 C 0.02872 0.76852 0.76892 0.0
C1666 C 0.03893 0.77289 0.78402 0.0
C1667 C 0.03006 0.76857 0.77963 0.0
C1668 C 0.01916 0.7641 0.76442 0.0
C1669 C 0.04519 0.74434 0.75373 0.0
C1670 C 0.04632 0.74383 0.74299 0.0
C1671 C 0.03638 0.74861 0.75805 0.0
C1672 C 0.02858 0.75264 0.75173 0.0
C1673 C 0.03841 0.74769 0.73669 0.0
C1674 C 0.02963 0.75202 0.74101 0.0
C1675 C 0.01909 0.75707 0.75616 0.0
H1676 H 0.96828 0.74169 0.75847 0.0
H1677 H 0.98402 0.7487 0.7661 0.0
H1678 H 0.98052 0.74758 0.72813 0.0
H1679 H 0.99602 0.75507 0.73583 0.0
H1680 H 0.96907 0.78039 0.76141 0.0
H1681 H 0.98464 0.77318 0.75403 0.0
H1682 H 0.98037 0.77327 0.79191 0.0
H1683 H 0.99577 0.76577 0.78445 0.0
H1684 H 0.05081 0.781 0.76205 0.0
H1685 H 0.03531 0.77339 0.7544 0.0
H1686 H 0.03982 0.7726 0.7923 0.0
H1687 H 0.02428 0.76516 0.7846 0.0
H1688 H 0.05103 0.74125 0.75881 0.0
H1689 H 0.03562 0.74863 0.76634 0.0
H1690 H 0.03906 0.74749 0.72839 0.0
H1691 H 0.0237 0.75497 0.73596 0.0
N1692 N 0.00984 0.75392 0.75229 0.0
N1693 N 0.01 0.76732 0.76819 0.0
C1694 C 0.24384 0.97398 0.76648 0.0
C1695 C 0.24338 0.97262 0.77722 0.0
C1696 C 0.2481 0.98295 0.76225 0.0
C1697 C 0.25213 0.99069 0.76865 0.0
C1698 C 0.24729 0.98045 0.78359 0.0
C1699 C 0.25157 0.9894 0.77935 0.0
C1700 C 0.25649 1.00033 0.76429 0.0
C1701 C 0.27706 0.97491 0.75385 0.0
C1702 C 0.27733 0.97354 0.74312 0.0
C1703 C 0.27264 0.98367 0.75808 0.0
C1704 C 0.26827 0.99121 0.75169 0.0
C1705 C 0.27313 0.98121 0.73675 0.0
C1706 C 0.2687 0.98997 0.74099 0.0
C1707 C 0.26361 1.00058 0.75609 0.0
C1708 C 0.27666 0.04496 0.75444 0.0
C1709 C 0.27678 0.04669 0.74375 0.0
C1710 C 0.27226 0.03599 0.75851 0.0
C1711 C 0.26782 0.02859 0.75199 0.0
C1712 C 0.2724 0.03922 0.73724 0.0
C1713 C 0.26803 0.03023 0.74132 0.0
C1714 C 0.26337 0.01893 0.7562 0.0
C1715 C 0.24307 0.04446 0.76704 0.0
C1716 C 0.24282 0.04566 0.77779 0.0
C1717 C 0.24744 0.03574 0.76267 0.0
C1718 C 0.25174 0.02806 0.76893 0.0
C1719 C 0.24702 0.03788 0.78403 0.0
C1720 C 0.25137 0.02916 0.77965 0.0
C1721 C 0.25627 0.01869 0.76441 0.0
H1722 H 0.24096 0.9681 0.76134 0.0
H1723 H 0.24815 0.98386 0.75397 0.0
H1724 H 0.24688 0.97975 0.79188 0.0
H1725 H 0.25449 0.99532 0.78445 0.0
H1726 H 0.28042 0.96929 0.75899 0.0
H1727 H 0.27272 0.98458 0.76635 0.0
H1728 H 0.27312 0.98039 0.72847 0.0
H1729 H 0.26547 0.99571 0.7359 0.0
H1730 H 0.27992 0.05058 0.75967 0.0
H1731 H 0.27242 0.0348 0.76675 0.0
H1732 H 0.2725 0.04024 0.72897 0.0
H1733 H 0.26476 0.02456 0.73613 0.0
H1734 H 0.23973 0.05017 0.762 0.0
H1735 H 0.24732 0.03495 0.75438 0.0
H1736 H 0.24707 0.03857 0.79233 0.0
H1737 H 0.25457 0.02332 0.78465 0.0
N1738 N 0.25317 0.00939 0.76816 0.0
N1739 N 0.26671 0.00988 0.75233 0.0
C1740 C 0.04504 0.27677 0.75492 0.0
C1741 C 0.04627 0.27686 0.74417 0.0
C1742 C 0.03614 0.27257 0.75937 0.0
C1743 C 0.02832 0.26831 0.75317 0.0
C1744 C 0.03834 0.27272 0.738 0.0
C1745 C 0.02944 0.26856 0.74245 0.0
C1746 C 0.01877 0.26394 0.75774 0.0
C1747 C 0.0446 0.24348 0.76799 0.0
C1748 C 0.04603 0.2428 0.77871 0.0
C1749 C 0.0358 0.24803 0.76384 0.0
C1750 C 0.02827 0.25217 0.77029 0.0
C1751 C 0.03841 0.24682 0.78516 0.0
C1752 C 0.02962 0.2514 0.78099 0.0
C1753 C 0.01876 0.25681 0.766 0.0
C1754 C 0.97431 0.24354 0.76842 0.0
C1755 C 0.97287 0.24337 0.77915 0.0
C1756 C 0.98319 0.24795 0.76416 0.0
C1757 C 0.9908 0.25238 0.77051 0.0
C1758 C 0.98057 0.24771 0.78548 0.0
C1759 C 0.98946 0.2521 0.7812 0.0
C1760 C 1.00034 0.25691 0.7661 0.0
C1761 C 0.97423 0.27674 0.75524 0.0
C1762 C 0.97305 0.27736 0.7445 0.0
C1763 C 0.98306 0.27244 0.75962 0.0
C1764 C 0.99084 0.26848 0.75335 0.0
C1765 C 0.98093 0.27356 0.73824 0.0
C1766 C 0.98973 0.26921 0.74262 0.0
C1767 C 1.00036 0.26403 0.75784 0.0
H1768 H 0.051 0.27986 0.75991 0.0
H1769 H 0.03536 0.27271 0.76765 0.0
H1770 H 0.03896 0.27282 0.72969 0.0
H1771 H 0.02346 0.26544 0.7375 0.0
H1772 H 0.05032 0.24053 0.76278 0.0
H1773 H 0.03483 0.24821 0.75557 0.0
H1774 H 0.03913 0.24626 0.79344 0.0
H1775 H 0.02386 0.25439 0.78614 0.0
H1776 H 0.96867 0.24008 0.76332 0.0
H1777 H 0.98417 0.24779 0.7559 0.0
H1778 H 0.97969 0.24781 0.79375 0.0
H1779 H 0.99525 0.2554 0.78626 0.0
H1780 H 0.96841 0.27978 0.76029 0.0
H1781 H 0.98386 0.27234 0.76791 0.0
H1782 H 0.98024 0.27383 0.72995 0.0
H1783 H 0.99565 0.2663 0.73761 0.0
N1784 N 0.00958 0.2672 0.75396 0.0
N1785 N 0.00954 0.25365 0.76988 0.0
C1786 C 0.75296 0.97513 0.74416 0.0
C1787 C 0.74221 0.97364 0.74406 0.0
C1788 C 0.75734 0.98401 0.74844 0.0
C1789 C 0.75109 0.99153 0.75283 0.0
C1790 C 0.73598 0.98125 0.74838 0.0
C1791 C 0.74037 0.99011 0.75265 0.0
C1792 C 0.75559 1.00111 0.75717 0.0
C1793 C 0.76697 0.97533 0.77733 0.0
C1794 C 0.77772 0.97409 0.77724 0.0
C1795 C 0.76248 0.9841 0.77304 0.0
C1796 C 0.76863 0.9918 0.76849 0.0
C1797 C 0.78384 0.98188 0.77276 0.0
C1798 C 0.77935 0.99065 0.7685 0.0
C1799 C 0.76401 1.00125 0.76411 0.0
C1800 C 0.76592 0.04545 0.77751 0.0
C1801 C 0.77664 0.04712 0.77771 0.0
C1802 C 0.76172 0.03655 0.7731 0.0
C1803 C 0.76813 0.02918 0.76868 0.0
C1804 C 0.78304 0.03964 0.77342 0.0
C1805 C 0.77883 0.03075 0.769 0.0
C1806 C 0.7638 0.01962 0.76415 0.0
C1807 C 0.75229 0.04569 0.74449 0.0
C1808 C 0.74151 0.04662 0.74412 0.0
C1809 C 0.75684 0.03692 0.7487 0.0
C1810 C 0.75072 0.02893 0.75279 0.0
C1811 C 0.73541 0.03851 0.74803 0.0
C1812 C 0.73997 0.02976 0.75227 0.0
C1813 C 0.7554 0.01948 0.75717 0.0
H1814 H 0.75798 0.96954 0.74073 0.0
H1815 H 0.76562 0.98505 0.74817 0.0
H1816 H 0.72769 0.98031 0.74855 0.0
H1817 H 0.73538 0.99583 0.75592 0.0
H1818 H 0.76201 0.96961 0.78089 0.0
H1819 H 0.75421 0.98492 0.77341 0.0
H1820 H 0.79213 0.98115 0.77242 0.0
H1821 H 0.78427 0.99651 0.7651 0.0
H1822 H 0.76077 0.05092 0.78093 0.0
H1823 H 0.75346 0.03538 0.77327 0.0
H1824 H 0.79132 0.0407 0.77337 0.0
H1825 H 0.78394 0.02514 0.76573 0.0
H1826 H 0.75724 0.05179 0.74161 0.0
H1827 H 0.76515 0.03637 0.7487 0.0
H1828 H 0.7271 0.03884 0.74769 0.0
H1829 H 0.73507 0.02364 0.75521 0.0
N1830 N 0.7516 0.01023 0.75403 0.0
N1831 N 0.76781 0.0105 0.76727 0.0
C1832 C 0.2537 0.74287 0.54532 0.0
C1833 C 0.24294 0.74214 0.54634 0.0
C1834 C 0.25811 0.74711 0.53644 0.0
C1835 C 0.25185 0.7509 0.52845 0.0
C1836 C 0.23671 0.74577 0.53826 0.0
C1837 C 0.24111 0.75007 0.52941 0.0
C1838 C 0.25637 0.75528 0.51889 0.0
C1839 C 0.26676 0.77604 0.54459 0.0
C1840 C 0.27749 0.77638 0.54617 0.0
C1841 C 0.26255 0.77156 0.53574 0.0
C1842 C 0.26896 0.7672 0.52831 0.0
C1843 C 0.28388 0.77215 0.53862 0.0
C1844 C 0.27966 0.76767 0.52977 0.0
C1845 C 0.2646 0.76251 0.51883 0.0
C1846 C 0.26673 0.77526 0.4742 0.0
C1847 C 0.27747 0.77601 0.47293 0.0
C1848 C 0.26253 0.77083 0.48309 0.0
C1849 C 0.26896 0.76688 0.49085 0.0
C1850 C 0.28388 0.77219 0.4808 0.0
C1851 C 0.27967 0.76773 0.48966 0.0
C1852 C 0.26461 0.76233 0.50042 0.0
C1853 C 0.25383 0.74199 0.4745 0.0
C1854 C 0.24307 0.74157 0.47317 0.0
C1855 C 0.2582 0.74635 0.48334 0.0
C1856 C 0.25191 0.7505 0.491 0.0
C1857 C 0.23681 0.74557 0.48095 0.0
C1858 C 0.24119 0.74992 0.48978 0.0
C1859 C 0.2564 0.75509 0.50048 0.0
H1860 H 0.25873 0.73996 0.5513 0.0
H1861 H 0.26641 0.7473 0.53577 0.0
H1862 H 0.2284 0.74539 0.53882 0.0
H1863 H 0.23611 0.75284 0.52333 0.0
H1864 H 0.26161 0.77942 0.55011 0.0
H1865 H 0.25428 0.77159 0.53466 0.0
H1866 H 0.29216 0.77218 0.5396 0.0
H1867 H 0.28477 0.76444 0.52411 0.0
H1868 H 0.26154 0.77804 0.4683 0.0
H1869 H 0.25425 0.77058 0.48392 0.0
H1870 H 0.29217 0.77281 0.48019 0.0
H1871 H 0.2848 0.76489 0.4956 0.0
H1872 H 0.25889 0.73903 0.46865 0.0
H1873 H 0.26649 0.74644 0.4842 0.0
H1874 H 0.2285 0.74521 0.48029 0.0
H1875 H 0.23617 0.75293 0.49565 0.0
N1876 N 0.25258 0.75193 0.50971 0.0
N1877 N 0.26842 0.76568 0.5096 0.0
C1878 C 0.77662 0.7528 0.54633 0.0
C1879 C 0.77625 0.74207 0.54769 0.0
C1880 C 0.77242 0.75734 0.53752 0.0
C1881 C 0.76766 0.75127 0.52993 0.0
C1882 C 0.77155 0.73602 0.54001 0.0
C1883 C 0.76737 0.74057 0.5312 0.0
C1884 C 0.76341 0.75594 0.52042 0.0
C1885 C 0.74373 0.76721 0.54637 0.0
C1886 C 0.7439 0.77793 0.54769 0.0
C1887 C 0.74793 0.76279 0.53758 0.0
C1888 C 0.75251 0.76898 0.52995 0.0
C1889 C 0.74842 0.7841 0.53998 0.0
C1890 C 0.75262 0.77967 0.5312 0.0
C1891 C 0.75674 0.76445 0.52043 0.0
C1892 C 0.74338 0.76749 0.47617 0.0
C1893 C 0.74369 0.7782 0.47473 0.0
C1894 C 0.74764 0.76303 0.485 0.0
C1895 C 0.75239 0.76917 0.49253 0.0
C1896 C 0.74838 0.78433 0.48235 0.0
C1897 C 0.75261 0.77987 0.49118 0.0
C1898 C 0.7567 0.76458 0.50204 0.0
C1899 C 0.77651 0.75369 0.47611 0.0
C1900 C 0.77649 0.74298 0.4747 0.0
C1901 C 0.77223 0.75798 0.48493 0.0
C1902 C 0.76772 0.75166 0.4925 0.0
C1903 C 0.77207 0.73668 0.48236 0.0
C1904 C 0.76779 0.74098 0.49118 0.0
C1905 C 0.76341 0.75609 0.50203 0.0
H1906 H 0.78035 0.75768 0.55198 0.0
H1907 H 0.77302 0.7656 0.53658 0.0
H1908 H 0.77101 0.72776 0.54085 0.0
H1909 H 0.7638 0.73573 0.52542 0.0
H1910 H 0.74014 0.76223 0.55204 0.0
H1911 H 0.74745 0.75453 0.53667 0.0
H1912 H 0.7488 0.79237 0.54078 0.0
H1913 H 0.75603 0.78462 0.52539 0.0
H1914 H 0.73965 0.76254 0.47057 0.0
H1915 H 0.74709 0.75478 0.486 0.0
H1916 H 0.74887 0.79259 0.48145 0.0
H1917 H 0.75617 0.78477 0.49693 0.0
H1918 H 0.78004 0.75877 0.47049 0.0
H1919 H 0.77261 0.76623 0.4859 0.0
H1920 H 0.77184 0.72841 0.4815 0.0
H1921 H 0.76444 0.73594 0.49695 0.0
N1922 N 0.76643 0.75207 0.51123 0.0
N1923 N 0.7537 0.76845 0.51123 0.0
C1924 C 0.77665 0.26571 0.47428 0.0
C1925 C 0.77682 0.27644 0.47289 0.0
C1926 C 0.7724 0.26131 0.48316 0.0
C1927 C 0.76814 0.26753 0.49081 0.0
C1928 C 0.77271 0.28264 0.48065 0.0
C1929 C 0.76848 0.27823 0.48953 0.0
C1930 C 0.7637 0.263 0.50033 0.0
C1931 C 0.74333 0.25232 0.47428 0.0
C1932 C 0.74265 0.24159 0.47309 0.0
C1933 C 0.74787 0.2566 0.48307 0.0
C1934 C 0.75199 0.25028 0.49082 0.0
C1935 C 0.74666 0.23528 0.48093 0.0
C1936 C 0.75123 0.23958 0.4897 0.0
C1937 C 0.75657 0.2547 0.50034 0.0
C1938 C 0.74365 0.25201 0.54484 0.0
C1939 C 0.74316 0.24127 0.54609 0.0
C1940 C 0.748 0.2564 0.536 0.0
C1941 C 0.75211 0.25017 0.52828 0.0
C1942 C 0.7471 0.23506 0.53824 0.0
C1943 C 0.75148 0.23946 0.52943 0.0
C1944 C 0.75659 0.25468 0.51875 0.0
C1945 C 0.77669 0.26583 0.54488 0.0
C1946 C 0.77686 0.27656 0.54611 0.0
C1947 C 0.77242 0.26138 0.53604 0.0
C1948 C 0.76814 0.26756 0.52826 0.0
C1949 C 0.77272 0.28272 0.53822 0.0
C1950 C 0.76846 0.27827 0.52938 0.0
C1951 C 0.76371 0.263 0.51874 0.0
H1952 H 0.7797 0.2607 0.46845 0.0
H1953 H 0.77248 0.25304 0.48406 0.0
H1954 H 0.77287 0.29093 0.47993 0.0
H1955 H 0.76538 0.2832 0.49538 0.0
H1956 H 0.7404 0.25743 0.4684 0.0
H1957 H 0.74804 0.26488 0.48385 0.0
H1958 H 0.74611 0.227 0.48039 0.0
H1959 H 0.7542 0.23452 0.49563 0.0
H1960 H 0.74074 0.25704 0.55072 0.0
H1961 H 0.74807 0.26468 0.53518 0.0
H1962 H 0.74668 0.22677 0.53883 0.0
H1963 H 0.75444 0.23448 0.52352 0.0
H1964 H 0.77978 0.26085 0.55081 0.0
H1965 H 0.77253 0.25311 0.53525 0.0
H1966 H 0.77289 0.29101 0.5388 0.0
H1967 H 0.76535 0.28321 0.52343 0.0
N1968 N 0.76691 0.26685 0.50953 0.0
N1969 N 0.75338 0.25084 0.50955 0.0
C1970 C 0.25394 0.2775 0.47603 0.0
C1971 C 0.24324 0.27761 0.47433 0.0
C1972 C 0.25803 0.27309 0.48496 0.0
C1973 C 0.25151 0.26861 0.49235 0.0
C1974 C 0.23673 0.27321 0.48181 0.0
C1975 C 0.24083 0.26882 0.49075 0.0
C1976 C 0.25574 0.26411 0.50195 0.0
C1977 C 0.26641 0.2442 0.47604 0.0
C1978 C 0.27716 0.24377 0.47492 0.0
C1979 C 0.26208 0.24848 0.48484 0.0
C1980 C 0.26839 0.25256 0.49266 0.0
C1981 C 0.28346 0.24769 0.48285 0.0
C1982 C 0.27912 0.25199 0.49163 0.0
C1983 C 0.26392 0.25703 0.5021 0.0
C1984 C 0.26544 0.24367 0.5464 0.0
C1985 C 0.27613 0.24353 0.54811 0.0
C1986 C 0.26138 0.2481 0.53747 0.0
C1987 C 0.26793 0.25257 0.53009 0.0
C1988 C 0.28267 0.24794 0.54067 0.0
C1989 C 0.27861 0.25235 0.53172 0.0
C1990 C 0.26373 0.25706 0.52048 0.0
C1991 C 0.25318 0.27732 0.54617 0.0
C1992 C 0.24243 0.27753 0.54748 0.0
C1993 C 0.25746 0.27295 0.5374 0.0
C1994 C 0.25111 0.2686 0.52976 0.0
C1995 C 0.2361 0.27327 0.53976 0.0
C1996 C 0.24039 0.26891 0.53098 0.0
C1997 C 0.25554 0.26413 0.52032 0.0
H1998 H 0.25917 0.28101 0.47055 0.0
H1999 H 0.26629 0.2733 0.48615 0.0
H2000 H 0.22847 0.27305 0.48072 0.0
H2001 H 0.23566 0.26547 0.49639 0.0
H2002 H 0.26133 0.24107 0.47019 0.0
H2003 H 0.25378 0.24848 0.48558 0.0
H2004 H 0.29177 0.24755 0.48221 0.0
H2005 H 0.28416 0.255 0.49758 0.0
H2006 H 0.26019 0.24038 0.55199 0.0
H2007 H 0.25313 0.24795 0.53628 0.0
H2008 H 0.29095 0.24783 0.54169 0.0
H2009 H 0.28381 0.25563 0.52608 0.0
H2010 H 0.25829 0.28073 0.55184 0.0
H2011 H 0.26574 0.27311 0.53651 0.0
H2012 H 0.2278 0.27319 0.54054 0.0
H2013 H 0.23533 0.26568 0.52516 0.0
N2014 N 0.25183 0.26732 0.51106 0.0
N2015 N 0.26763 0.25384 0.51137 0.0
C2016 C 0.74327 0.47389 0.76635 0.0
C2017 C 0.7428 0.47252 0.77708 0.0
C2018 C 0.74755 0.48285 0.76212 0.0
C2019 C 0.7516 0.49057 0.76852 0.0
C2020 C 0.74671 0.48035 0.78346 0.0
C2021 C 0.75102 0.48929 0.77922 0.0
C2022 C 0.75604 0.50019 0.76418 0.0
C2023 C 0.77639 0.47455 0.75378 0.0
C2024 C 0.77708 0.47344 0.74305 0.0
C2025 C 0.77194 0.48328 0.75803 0.0
C2026 C 0.7679 0.49102 0.75166 0.0
C2027 C 0.77323 0.48129 0.73669 0.0
C2028 C 0.76872 0.48999 0.74095 0.0
C2029 C 0.76324 0.5004 0.75605 0.0
C2030 C 0.77654 0.54469 0.75435 0.0
C2031 C 0.77667 0.54639 0.74366 0.0
C2032 C 0.77207 0.53576 0.75844 0.0
C2033 C 0.76758 0.52838 0.75193 0.0
C2034 C 0.77224 0.53894 0.73716 0.0
C2035 C 0.76781 0.52999 0.74126 0.0
C2036 C 0.76306 0.51876 0.75615 0.0
C2037 C 0.743 0.54451 0.76685 0.0
C2038 C 0.74238 0.54553 0.77759 0.0
C2039 C 0.74736 0.53578 0.76249 0.0
C2040 C 0.75135 0.52794 0.76877 0.0
C2041 C 0.7462 0.53759 0.78386 0.0
C2042 C 0.7506 0.52888 0.77949 0.0
C2043 C 0.75588 0.51855 0.76429 0.0
H2044 H 0.74038 0.46801 0.7612 0.0
H2045 H 0.74763 0.48376 0.75384 0.0
H2046 H 0.7463 0.47965 0.79175 0.0
H2047 H 0.75395 0.4952 0.78432 0.0
H2048 H 0.77947 0.46875 0.7589 0.0
H2049 H 0.77177 0.48403 0.76632 0.0
H2050 H 0.77358 0.48066 0.7284 0.0
H2051 H 0.76576 0.49589 0.73586 0.0
H2052 H 0.77985 0.5503 0.75956 0.0
H2053 H 0.7722 0.53459 0.76669 0.0
H2054 H 0.77235 0.53995 0.72889 0.0
H2055 H 0.7645 0.52434 0.73608 0.0
H2056 H 0.73995 0.55038 0.76179 0.0
H2057 H 0.74749 0.53511 0.7542 0.0
H2058 H 0.74592 0.53815 0.79216 0.0
H2059 H 0.75353 0.52291 0.78452 0.0
N2060 N 0.75271 0.50926 0.768 0.0
N2061 N 0.7664 0.50969 0.75232 0.0
C2062 C 0.25353 0.47464 0.74493 0.0
C2063 C 0.24278 0.47322 0.7445 0.0
C2064 C 0.25784 0.4836 0.74908 0.0
C2065 C 0.25152 0.49129 0.75307 0.0
C2066 C 0.23647 0.48105 0.74828 0.0
C2067 C 0.2408 0.48999 0.75248 0.0
C2068 C 0.25594 0.5009 0.75744 0.0
C2069 C 0.26705 0.47516 0.7778 0.0
C2070 C 0.27781 0.47402 0.77798 0.0
C2071 C 0.2626 0.48393 0.77346 0.0
C2072 C 0.2688 0.4917 0.76909 0.0
C2073 C 0.28399 0.4819 0.77374 0.0
C2074 C 0.27953 0.49065 0.7694 0.0
C2075 C 0.26422 0.5011 0.76456 0.0
C2076 C 0.26553 0.54527 0.77796 0.0
C2077 C 0.27622 0.54709 0.7783 0.0
C2078 C 0.26152 0.53634 0.77345 0.0
C2079 C 0.26809 0.52908 0.76909 0.0
C2080 C 0.28279 0.53975 0.77402 0.0
C2081 C 0.27877 0.53081 0.76953 0.0
C2082 C 0.26393 0.51947 0.76451 0.0
C2083 C 0.25281 0.54528 0.7443 0.0
C2084 C 0.24205 0.54635 0.74399 0.0
C2085 C 0.25727 0.53653 0.74866 0.0
C2086 C 0.25107 0.52869 0.75289 0.0
C2087 C 0.23587 0.53841 0.74812 0.0
C2088 C 0.24033 0.52966 0.75246 0.0
C2089 C 0.25568 0.51927 0.75738 0.0
H2090 H 0.25863 0.46877 0.74214 0.0
H2091 H 0.26614 0.48453 0.74913 0.0
H2092 H 0.22817 0.48034 0.74789 0.0
H2093 H 0.23574 0.49587 0.75534 0.0
H2094 H 0.26206 0.46936 0.78117 0.0
H2095 H 0.25431 0.48468 0.77362 0.0
H2096 H 0.29229 0.48125 0.77364 0.0
H2097 H 0.28449 0.49657 0.76616 0.0
H2098 H 0.26025 0.55077 0.78113 0.0
H2099 H 0.25327 0.53508 0.77347 0.0
H2100 H 0.29107 0.54084 0.77429 0.0
H2101 H 0.284 0.52526 0.76635 0.0
H2102 H 0.25781 0.55112 0.74101 0.0
H2103 H 0.26557 0.53584 0.74859 0.0
H2104 H 0.22756 0.539 0.74813 0.0
H2105 H 0.23538 0.52369 0.75561 0.0
N2106 N 0.25197 0.51 0.75419 0.0
N2107 N 0.26792 0.51038 0.76775 0.0
C2108 C 0.2435 0.47466 0.26675 0.0
C2109 C 0.24361 0.47306 0.27746 0.0
C2110 C 0.24771 0.48364 0.26249 0.0
C2111 C 0.2522 0.49117 0.26883 0.0
C2112 C 0.24802 0.48068 0.28379 0.0
C2113 C 0.2522 0.48966 0.27952 0.0
C2114 C 0.25648 0.50081 0.26442 0.0
C2115 C 0.27678 0.47534 0.25368 0.0
C2116 C 0.27688 0.47393 0.24295 0.0
C2117 C 0.27243 0.48411 0.25795 0.0
C2118 C 0.26797 0.49163 0.25162 0.0
C2119 C 0.27256 0.48157 0.23663 0.0
C2120 C 0.26821 0.49035 0.24091 0.0
C2121 C 0.26341 0.50103 0.25606 0.0
C2122 C 0.27624 0.54548 0.2539 0.0
C2123 C 0.27606 0.54717 0.2432 0.0
C2124 C 0.27201 0.53649 0.25812 0.0
C2125 C 0.26745 0.52903 0.25174 0.0
C2126 C 0.27157 0.53962 0.23684 0.0
C2127 C 0.26738 0.53062 0.24107 0.0
C2128 C 0.26314 0.51938 0.25611 0.0
C2129 C 0.24297 0.5449 0.26718 0.0
C2130 C 0.24288 0.54615 0.27792 0.0
C2131 C 0.24729 0.53617 0.26278 0.0
C2132 C 0.25173 0.52854 0.26901 0.0
C2133 C 0.2472 0.53842 0.28414 0.0
C2134 C 0.25152 0.5297 0.27973 0.0
C2135 C 0.25621 0.51916 0.26447 0.0
H2136 H 0.23997 0.46908 0.26166 0.0
H2137 H 0.24733 0.48475 0.25423 0.0
H2138 H 0.24833 0.47966 0.29206 0.0
H2139 H 0.25556 0.4954 0.28456 0.0
H2140 H 0.28023 0.46974 0.25878 0.0
H2141 H 0.27267 0.48505 0.26622 0.0
H2142 H 0.27242 0.48072 0.22835 0.0
H2143 H 0.2649 0.49608 0.23586 0.0
H2144 H 0.27982 0.551 0.25901 0.0
H2145 H 0.27244 0.53531 0.26636 0.0
H2146 H 0.2712 0.5407 0.22858 0.0
H2147 H 0.26396 0.52494 0.236 0.0
H2148 H 0.23954 0.55058 0.26216 0.0
H2149 H 0.24704 0.53533 0.2545 0.0
H2150 H 0.24737 0.53916 0.29243 0.0
H2151 H 0.25481 0.52389 0.28471 0.0
N2152 N 0.25321 0.50987 0.26833 0.0
N2153 N 0.26641 0.51032 0.2522 0.0
C2154 C 0.75344 0.47521 0.24377 0.0
C2155 C 0.7427 0.47373 0.24359 0.0
C2156 C 0.75781 0.48405 0.24816 0.0
C2157 C 0.75153 0.49155 0.25256 0.0
C2158 C 0.73644 0.48131 0.24792 0.0
C2159 C 0.74081 0.49014 0.25229 0.0
C2160 C 0.75599 0.50108 0.25703 0.0
C2161 C 0.76707 0.47499 0.27691 0.0
C2162 C 0.77783 0.47389 0.27725 0.0
C2163 C 0.76265 0.48381 0.27265 0.0
C2164 C 0.76888 0.49168 0.2685 0.0
C2165 C 0.78404 0.48187 0.27325 0.0
C2166 C 0.77961 0.49068 0.26897 0.0
C2167 C 0.76432 0.50116 0.26409 0.0
C2168 C 0.76596 0.54517 0.27794 0.0
C2169 C 0.77666 0.54696 0.27817 0.0
C2170 C 0.76186 0.53631 0.27338 0.0
C2171 C 0.76836 0.52908 0.26887 0.0
C2172 C 0.78315 0.53965 0.27374 0.0
C2173 C 0.77904 0.53077 0.26921 0.0
C2174 C 0.76412 0.51953 0.26423 0.0
C2175 C 0.75292 0.54563 0.24443 0.0
C2176 C 0.74215 0.54667 0.24409 0.0
C2177 C 0.75739 0.53684 0.24867 0.0
C2178 C 0.7512 0.52892 0.25279 0.0
C2179 C 0.73598 0.53865 0.24809 0.0
C2180 C 0.74046 0.52987 0.25234 0.0
C2181 C 0.75581 0.51945 0.25715 0.0
H2182 H 0.75849 0.46964 0.24035 0.0
H2183 H 0.76609 0.48508 0.24798 0.0
H2184 H 0.72815 0.48039 0.24803 0.0
H2185 H 0.7358 0.49584 0.25557 0.0
H2186 H 0.76203 0.469 0.27987 0.0
H2187 H 0.75435 0.4845 0.27268 0.0
H2188 H 0.79235 0.48139 0.27354 0.0
H2189 H 0.78459 0.4967 0.26597 0.0
H2190 H 0.76073 0.55066 0.28123 0.0
H2191 H 0.7536 0.53508 0.27347 0.0
H2192 H 0.79143 0.54071 0.27392 0.0
H2193 H 0.78422 0.52524 0.2659 0.0
H2194 H 0.7579 0.55154 0.24123 0.0
H2195 H 0.76569 0.53617 0.24861 0.0
H2196 H 0.72767 0.53922 0.24807 0.0
H2197 H 0.73551 0.52384 0.25539 0.0
N2198 N 0.75204 0.51022 0.2539 0.0
N2199 N 0.76808 0.51039 0.26735 0.0
C2200 C 0.545 0.25403 0.74306 0.0
C2201 C 0.54613 0.2433 0.74253 0.0
C2202 C 0.53625 0.25829 0.74752 0.0
C2203 C 0.52849 0.25192 0.75166 0.0
C2204 C 0.53826 0.23697 0.74655 0.0
C2205 C 0.52952 0.24123 0.751 0.0
C2206 C 0.51908 0.2563 0.75627 0.0
C2207 C 0.54558 0.26636 0.77637 0.0
C2208 C 0.54682 0.27705 0.77728 0.0
C2209 C 0.53665 0.26217 0.77194 0.0
C2210 C 0.52888 0.2686 0.76814 0.0
C2211 C 0.53895 0.28346 0.77365 0.0
C2212 C 0.53007 0.27927 0.76914 0.0
C2213 C 0.51926 0.26431 0.7636 0.0
C2214 C 0.47478 0.26659 0.77663 0.0
C2215 C 0.4737 0.2773 0.77738 0.0
C2216 C 0.48357 0.26237 0.77223 0.0
C2217 C 0.49143 0.26876 0.76831 0.0
C2218 C 0.48168 0.28367 0.77363 0.0
C2219 C 0.49045 0.27944 0.7692 0.0
C2220 C 0.50085 0.26441 0.76368 0.0
C2221 C 0.47445 0.25471 0.74335 0.0
C2222 C 0.473 0.24402 0.74253 0.0
C2223 C 0.48342 0.25877 0.74779 0.0
C2224 C 0.49105 0.25225 0.7517 0.0
C2225 C 0.48075 0.23751 0.74627 0.0
C2226 C 0.48969 0.24159 0.75077 0.0
C2227 C 0.50067 0.25643 0.75632 0.0
H2228 H 0.55091 0.25915 0.7401 0.0
H2229 H 0.53554 0.26656 0.74767 0.0
H2230 H 0.53877 0.22869 0.7461 0.0
H2231 H 0.52358 0.23616 0.754 0.0
H2232 H 0.55142 0.26121 0.77928 0.0
H2233 H 0.53578 0.2539 0.77163 0.0
H2234 H 0.5397 0.29173 0.77419 0.0
H2235 H 0.52414 0.28439 0.76637 0.0
H2236 H 0.46879 0.26143 0.77937 0.0
H2237 H 0.48424 0.25409 0.77193 0.0
H2238 H 0.48123 0.29194 0.77425 0.0
H2239 H 0.49646 0.28454 0.76638 0.0
H2240 H 0.46863 0.25996 0.74061 0.0
H2241 H 0.4844 0.26703 0.74812 0.0
H2242 H 0.48 0.22925 0.74559 0.0
H2243 H 0.49554 0.23639 0.75358 0.0
N2244 N 0.50978 0.25266 0.75299 0.0
N2245 N 0.51015 0.26806 0.76694 0.0
C2246 C 0.47418 0.7671 0.74452 0.0
C2247 C 0.47291 0.77781 0.74421 0.0
C2248 C 0.48301 0.76281 0.74892 0.0
C2249 C 0.49071 0.76913 0.75324 0.0
C2250 C 0.48072 0.78412 0.74839 0.0
C2251 C 0.48954 0.77983 0.7528 0.0
C2252 C 0.50019 0.76468 0.75779 0.0
C2253 C 0.47404 0.7537 0.77789 0.0
C2254 C 0.47262 0.74297 0.77806 0.0
C2255 C 0.4829 0.75811 0.77356 0.0
C2256 C 0.49048 0.75189 0.76922 0.0
C2257 C 0.48028 0.73678 0.77376 0.0
C2258 C 0.48913 0.74119 0.76945 0.0
C2259 C 0.50007 0.7564 0.76487 0.0
C2260 C 0.54452 0.75344 0.77808 0.0
C2261 C 0.54564 0.74269 0.77829 0.0
C2262 C 0.53574 0.75789 0.77375 0.0
C2263 C 0.52792 0.75171 0.76944 0.0
C2264 C 0.53772 0.73654 0.77407 0.0
C2265 C 0.52895 0.741 0.76976 0.0
C2266 C 0.51848 0.75629 0.76495 0.0
C2267 C 0.54472 0.76643 0.74483 0.0
C2268 C 0.54623 0.77713 0.74408 0.0
C2269 C 0.53579 0.76232 0.74926 0.0
C2270 C 0.52823 0.7688 0.75325 0.0
C2271 C 0.53855 0.7836 0.74791 0.0
C2272 C 0.52964 0.77947 0.75241 0.0
C2273 C 0.51862 0.76454 0.75782 0.0
H2274 H 0.46845 0.76201 0.74117 0.0
H2275 H 0.48386 0.75455 0.74883 0.0
H2276 H 0.47998 0.7924 0.74836 0.0
H2277 H 0.49542 0.78487 0.75599 0.0
H2278 H 0.46841 0.7587 0.7813 0.0
H2279 H 0.48388 0.76638 0.77375 0.0
H2280 H 0.4794 0.7285 0.77362 0.0
H2281 H 0.49489 0.73623 0.76621 0.0
H2282 H 0.55035 0.75841 0.78144 0.0
H2283 H 0.53501 0.76616 0.77388 0.0
H2284 H 0.53835 0.72826 0.77397 0.0
H2285 H 0.52299 0.73607 0.76654 0.0
H2286 H 0.55047 0.7612 0.74204 0.0
H2287 H 0.53477 0.75406 0.74948 0.0
H2288 H 0.53933 0.79186 0.7473 0.0
H2289 H 0.52385 0.78464 0.75527 0.0
N2290 N 0.50947 0.76845 0.7546 0.0
N2291 N 0.50921 0.75251 0.76811 0.0
C2292 C 0.47534 0.77747 0.26704 0.0
C2293 C 0.47407 0.77745 0.27779 0.0
C2294 C 0.48407 0.77317 0.26261 0.0
C2295 C 0.49169 0.76863 0.2688 0.0
C2296 C 0.48178 0.77302 0.28397 0.0
C2297 C 0.4905 0.76871 0.27952 0.0
C2298 C 0.50111 0.76422 0.26424 0.0
C2299 C 0.47474 0.74453 0.25307 0.0
C2300 C 0.47318 0.74487 0.24237 0.0
C2301 C 0.48372 0.74865 0.25745 0.0
C2302 C 0.49129 0.75327 0.25122 0.0
C2303 C 0.48083 0.74938 0.23614 0.0
C2304 C 0.48982 0.75347 0.24052 0.0
C2305 C 0.50093 0.75748 0.25574 0.0
C2306 C 0.54499 0.7438 0.25298 0.0
C2307 C 0.54635 0.74395 0.24225 0.0
C2308 C 0.53626 0.74813 0.2574 0.0
C2309 C 0.52875 0.75281 0.25121 0.0
C2310 C 0.53874 0.74854 0.23607 0.0
C2311 C 0.53001 0.75286 0.2405 0.0
C2312 C 0.51932 0.75722 0.25576 0.0
C2313 C 0.54574 0.77669 0.26744 0.0
C2314 C 0.54715 0.77619 0.27816 0.0
C2315 C 0.5368 0.77265 0.26288 0.0
C2316 C 0.52913 0.76799 0.26896 0.0
C2317 C 0.53942 0.7716 0.28421 0.0
C2318 C 0.53047 0.76761 0.27966 0.0
C2319 C 0.5195 0.76392 0.26429 0.0
H2320 H 0.46967 0.78099 0.26206 0.0
H2321 H 0.48494 0.77352 0.25434 0.0
H2322 H 0.48102 0.77276 0.29225 0.0
H2323 H 0.4963 0.76534 0.28448 0.0
H2324 H 0.46898 0.74115 0.25808 0.0
H2325 H 0.48478 0.74816 0.2657 0.0
H2326 H 0.47994 0.74962 0.22786 0.0
H2327 H 0.49561 0.75687 0.23556 0.0
H2328 H 0.55057 0.74015 0.25797 0.0
H2329 H 0.53533 0.74767 0.26566 0.0
H2330 H 0.53956 0.7489 0.22779 0.0
H2331 H 0.52429 0.75635 0.23555 0.0
H2332 H 0.55157 0.78014 0.26256 0.0
H2333 H 0.53585 0.77326 0.25462 0.0
H2334 H 0.5402 0.77124 0.2925 0.0
H2335 H 0.5246 0.76417 0.28451 0.0
N2336 N 0.5104 0.7671 0.26822 0.0
N2337 N 0.51003 0.75432 0.2518 0.0
C2338 C 0.4744 0.26764 0.24502 0.0
C2339 C 0.4731 0.27835 0.24489 0.0
C2340 C 0.48317 0.2633 0.24948 0.0
C2341 C 0.4908 0.26956 0.25401 0.0
C2342 C 0.4808 0.2846 0.24935 0.0
C2343 C 0.48959 0.28025 0.25379 0.0
C2344 C 0.50029 0.26506 0.2585 0.0
C2345 C 0.47411 0.25393 0.27837 0.0
C2346 C 0.47259 0.24322 0.27835 0.0
C2347 C 0.48302 0.25833 0.27415 0.0
C2348 C 0.49057 0.25212 0.26974 0.0
C2349 C 0.48023 0.23702 0.27405 0.0
C2350 C 0.48915 0.24142 0.26986 0.0
C2351 C 0.50017 0.25663 0.26542 0.0
C2352 C 0.54482 0.2532 0.27804 0.0
C2353 C 0.54583 0.24245 0.2781 0.0
C2354 C 0.53601 0.25779 0.27392 0.0
C2355 C 0.52806 0.25174 0.26965 0.0
C2356 C 0.53778 0.23642 0.27395 0.0
C2357 C 0.52898 0.24101 0.26983 0.0
C2358 C 0.51858 0.25646 0.26539 0.0
C2359 C 0.54448 0.26709 0.24495 0.0
C2360 C 0.54624 0.27778 0.24493 0.0
C2361 C 0.53558 0.26288 0.24938 0.0
C2362 C 0.52829 0.26925 0.25398 0.0
C2363 C 0.53885 0.28413 0.24945 0.0
C2364 C 0.52995 0.27991 0.25387 0.0
C2365 C 0.5187 0.2649 0.25848 0.0
H2366 H 0.46861 0.26258 0.24171 0.0
H2367 H 0.48403 0.25504 0.24929 0.0
H2368 H 0.48014 0.29288 0.24924 0.0
H2369 H 0.49543 0.28526 0.2571 0.0
H2370 H 0.46836 0.25894 0.28157 0.0
H2371 H 0.48404 0.26659 0.2744 0.0
H2372 H 0.47939 0.22873 0.27406 0.0
H2373 H 0.49492 0.23645 0.26664 0.0
H2374 H 0.55076 0.25807 0.28135 0.0
H2375 H 0.53537 0.26606 0.27419 0.0
H2376 H 0.53832 0.22813 0.27376 0.0
H2377 H 0.52293 0.23617 0.26666 0.0
H2378 H 0.54988 0.26197 0.24135 0.0
H2379 H 0.53435 0.25465 0.24907 0.0
H2380 H 0.53998 0.29238 0.24968 0.0
H2381 H 0.52439 0.28498 0.25729 0.0
N2382 N 0.50955 0.26889 0.25537 0.0
N2383 N 0.50931 0.25264 0.26852 0.0
H2384 H 0.2056 0.21255 0.13493 0.0
H2385 H 0.21224 0.22177 0.11985 0.0
H2386 H 0.20929 0.19417 0.10186 0.0
H2387 H 0.20242 0.18498 0.1168 0.0
H2388 H 0.22987 0.21731 0.10859 0.0
H2389 H 0.19506 0.21569 0.08377 0.0
H2390 H 0.19466 0.21309 0.09742 0.0
H2391 H 0.19894 0.2034 0.08868 0.0
C2392 C 0.2062 0.20848 0.12772 0.0
C2393 C 0.20345 0.19802 0.12708 0.0
C2394 C 0.21006 0.21375 0.11913 0.0
C2395 C 0.21115 0.2087 0.10969 0.0
C2396 C 0.20836 0.19828 0.10901 0.0
H2397 H 0.24962 0.22523 0.05778 0.0
H2398 H 0.24189 0.21755 0.07314 0.0
C2399 C 0.20454 0.193 0.1176 0.0
C2400 C 0.2156 0.2142 0.10067 0.0
H2401 H 0.21068 0.22102 0.07573 0.0
C2402 C 0.22566 0.21817 0.10142 0.0
C2403 C 0.21005 0.21543 0.09136 0.0
C2404 C 0.19905 0.21177 0.09025 0.0
C2405 C 0.23042 0.22312 0.09304 0.0
C2406 C 0.22501 0.22399 0.0836 0.0
C2407 C 0.21486 0.22025 0.08293 0.0
C2408 C 0.22978 0.22874 0.07433 0.0
C2409 C 0.24115 0.22745 0.09439 0.0
C2410 C 0.22543 0.23747 0.06976 0.0
C2411 C 0.22985 0.2419 0.06097 0.0
C2412 C 0.23868 0.23764 0.05652 0.0
C2413 C 0.24296 0.22883 0.0611 0.0
C2414 C 0.23854 0.22442 0.06989 0.0
H2415 H 0.24313 0.22857 0.10263 0.0
H2416 H 0.24676 0.22201 0.09112 0.0
H2417 H 0.24203 0.23491 0.0903 0.0
H2418 H 0.21866 0.24091 0.07304 0.0
H2419 H 0.22641 0.24873 0.05774 0.0
H2420 H 0.79909 0.18923 0.12751 0.0
H2421 H 0.79279 0.19834 0.11232 0.0
H2422 H 0.82031 0.21715 0.11207 0.0
H2423 H 0.82692 0.20774 0.12697 0.0
H2424 H 0.78851 0.21858 0.10986 0.0
H2425 H 0.81911 0.20737 0.08262 0.0
H2426 H 0.81745 0.2012 0.09497 0.0
H2427 H 0.82387 0.21348 0.09406 0.0
C2428 C 0.80391 0.19518 0.12413 0.0
C2429 C 0.81357 0.19767 0.12844 0.0
C2430 C 0.80025 0.20044 0.11549 0.0
C2431 C 0.80614 0.20832 0.11095 0.0
C2432 C 0.81572 0.21095 0.11531 0.0
H2433 H 0.79361 0.24926 0.05911 0.0
H2434 H 0.8009 0.24108 0.07447 0.0
C2435 C 0.81943 0.20565 0.12392 0.0
C2436 C 0.80212 0.2139 0.10182 0.0
H2437 H 0.80717 0.21973 0.07668 0.0
C2438 C 0.79258 0.21881 0.1026 0.0
C2439 C 0.80745 0.21422 0.09235 0.0
C2440 C 0.81749 0.20871 0.09088 0.0
C2441 C 0.78826 0.22404 0.09419 0.0
C2442 C 0.79356 0.2243 0.08473 0.0
C2443 C 0.80315 0.21952 0.08396 0.0
C2444 C 0.78913 0.22925 0.07545 0.0
C2445 C 0.77809 0.22934 0.0955 0.0
C2446 C 0.78019 0.22521 0.07086 0.0
C2447 C 0.77606 0.22979 0.06204 0.0
C2448 C 0.78081 0.23851 0.05761 0.0
C2449 C 0.78982 0.2425 0.06223 0.0
C2450 C 0.79397 0.23787 0.07104 0.0
H2451 H 0.77619 0.23045 0.10374 0.0
H2452 H 0.77815 0.23694 0.09158 0.0
H2453 H 0.77189 0.22458 0.09198 0.0
H2454 H 0.77645 0.21844 0.07405 0.0
H2455 H 0.76925 0.22638 0.05858 0.0
H2456 H 0.81628 0.83535 0.11669 0.0
H2457 H 0.80952 0.82612 0.10173 0.0
H2458 H 0.80715 0.79838 0.11983 0.0
H2459 H 0.81366 0.80761 0.13492 0.0
H2460 H 0.81706 0.80859 0.09172 0.0
H2461 H 0.778 0.80168 0.1077 0.0
H2462 H 0.78696 0.81084 0.1132 0.0
H2463 H 0.78842 0.79736 0.11569 0.0
C2464 C 0.81425 0.8273 0.11752 0.0
C2465 C 0.81544 0.82225 0.12705 0.0
C2466 C 0.81046 0.82202 0.10894 0.0
C2467 C 0.80769 0.8116 0.10969 0.0
C2468 C 0.80908 0.80646 0.11911 0.0
H2469 H 0.79447 0.77049 0.05821 0.0
H2470 H 0.80196 0.77886 0.07335 0.0
C2471 C 0.81291 0.81173 0.1277 0.0
C2472 C 0.80332 0.80616 0.10062 0.0
H2473 H 0.78165 0.79394 0.09172 0.0
C2474 C 0.80932 0.80537 0.09172 0.0
C2475 C 0.79318 0.80207 0.10059 0.0
C2476 C 0.78621 0.80308 0.10976 0.0
C2477 C 0.80549 0.80054 0.08282 0.0
C2478 C 0.79542 0.79628 0.08286 0.0
C2479 C 0.78939 0.79714 0.09173 0.0
C2480 C 0.7909 0.79114 0.07368 0.0
C2481 C 0.81217 0.80023 0.07337 0.0
C2482 C 0.78206 0.79513 0.06895 0.0
C2483 C 0.77776 0.79037 0.06028 0.0
C2484 C 0.78218 0.78147 0.05618 0.0
C2485 C 0.79098 0.77743 0.06103 0.0
C2486 C 0.79527 0.7822 0.0697 0.0
H2487 H 0.81862 0.8059 0.0738 0.0
H2488 H 0.81552 0.79247 0.07266 0.0
H2489 H 0.80758 0.8018 0.06632 0.0
H2490 H 0.77855 0.80201 0.0719 0.0
H2491 H 0.77107 0.79378 0.0567 0.0
H2492 H 0.19348 0.82587 0.11909 0.0
H2493 H 0.1997 0.81703 0.10377 0.0
H2494 H 0.22579 0.80597 0.121 0.0
H2495 H 0.21955 0.81462 0.13638 0.0
H2496 H 0.21917 0.82023 0.09407 0.0
H2497 H 0.21392 0.77987 0.10716 0.0
H2498 H 0.20758 0.79049 0.11325 0.0
H2499 H 0.2209 0.78799 0.11595 0.0
C2500 C 0.20046 0.82143 0.11966 0.0
C2501 C 0.20601 0.82094 0.12897 0.0
C2502 C 0.20403 0.81643 0.11089 0.0
C2503 C 0.21314 0.81075 0.11128 0.0
C2504 C 0.21866 0.81018 0.12057 0.0
H2505 H 0.24958 0.77681 0.06762 0.0
H2506 H 0.24234 0.78497 0.08281 0.0
C2507 C 0.21513 0.81522 0.12932 0.0
C2508 C 0.21711 0.80576 0.10188 0.0
H2509 H 0.22327 0.7825 0.09172 0.0
C2510 C 0.22001 0.81198 0.09352 0.0
C2511 C 0.21823 0.79499 0.10121 0.0
C2512 C 0.21492 0.78791 0.10982 0.0
C2513 C 0.22423 0.80775 0.08458 0.0
C2514 C 0.22537 0.79697 0.0839 0.0
C2515 C 0.22241 0.79075 0.09225 0.0
C2516 C 0.2297 0.79202 0.07462 0.0
C2517 C 0.22772 0.8149 0.07609 0.0
C2518 C 0.22493 0.79314 0.06498 0.0
C2519 C 0.22911 0.78857 0.05625 0.0
C2520 C 0.23811 0.78269 0.05699 0.0
C2521 C 0.24275 0.78143 0.06672 0.0
C2522 C 0.23858 0.78603 0.07543 0.0
H2523 H 0.22893 0.82286 0.0789 0.0
H2524 H 0.23499 0.81222 0.0726 0.0
H2525 H 0.22172 0.81511 0.06999 0.0
H2526 H 0.21795 0.79756 0.06419 0.0
H2527 H 0.22536 0.78978 0.0489 0.0
H2528 H 0.1974 0.80897 0.89127 0.0
H2529 H 0.20347 0.80033 0.90689 0.0
H2530 H 0.22322 0.82629 0.91365 0.0
H2531 H 0.21687 0.83515 0.89835 0.0
H2532 H 0.22302 0.79457 0.91214 0.0
H2533 H 0.20841 0.82219 0.94069 0.0
H2534 H 0.20429 0.82229 0.92741 0.0
H2535 H 0.21635 0.82816 0.93107 0.0
C2536 C 0.20291 0.81292 0.89617 0.0
C2537 C 0.2066 0.82279 0.89356 0.0
C2538 C 0.20643 0.80793 0.90505 0.0
C2539 C 0.21368 0.81273 0.91153 0.0
C2540 C 0.21746 0.82252 0.9089 0.0
H2541 H 0.24892 0.79629 0.96552 0.0
H2542 H 0.2416 0.80426 0.95009 0.0
C2543 C 0.21392 0.82752 0.90005 0.0
C2544 C 0.21753 0.80738 0.92087 0.0
H2545 H 0.22044 0.80988 0.94687 0.0
C2546 C 0.22238 0.79787 0.91975 0.0
C2547 C 0.21667 0.81169 0.9308 0.0
C2548 C 0.21106 0.82159 0.93261 0.0
C2549 C 0.22665 0.7927 0.92824 0.0
C2550 C 0.22595 0.79711 0.93812 0.0
C2551 C 0.22101 0.80655 0.93927 0.0
C2552 C 0.23044 0.79213 0.94735 0.0
C2553 C 0.23211 0.78269 0.92655 0.0
C2554 C 0.22653 0.7827 0.95096 0.0
C2555 C 0.23071 0.77811 0.95976 0.0
C2556 C 0.23888 0.78287 0.96513 0.0
C2557 C 0.24274 0.79234 0.96149 0.0
C2558 C 0.23853 0.79694 0.95272 0.0
H2559 H 0.23387 0.78144 0.9183 0.0
H2560 H 0.2394 0.78246 0.93103 0.0
H2561 H 0.22713 0.77625 0.92922 0.0
H2562 H 0.22019 0.77892 0.947 0.0
H2563 H 0.22761 0.77078 0.96232 0.0
H2564 H 0.20845 0.19063 0.89499 0.0
H2565 H 0.21759 0.19736 0.9101 0.0
H2566 H 0.19812 0.22393 0.90991 0.0
H2567 H 0.18908 0.2174 0.89475 0.0
H2568 H 0.22825 0.21661 0.91269 0.0
H2569 H 0.19533 0.21244 0.93944 0.0
H2570 H 0.19573 0.20599 0.9272 0.0
H2571 H 0.19244 0.21934 0.92781 0.0
C2572 C 0.20616 0.19795 0.8981 0.0
C2573 C 0.19795 0.20342 0.89368 0.0
C2574 C 0.21136 0.20175 0.90677 0.0
C2575 C 0.20842 0.21105 0.91124 0.0
C2576 C 0.20037 0.21662 0.90674 0.0
H2577 H 0.22691 0.24884 0.96269 0.0
H2578 H 0.21892 0.24114 0.94747 0.0
C2579 C 0.19519 0.21285 0.89807 0.0
C2580 C 0.21379 0.21504 0.92054 0.0
H2581 H 0.2098 0.22197 0.94549 0.0
C2582 C 0.22426 0.21771 0.91989 0.0
C2583 C 0.20855 0.21647 0.92992 0.0
C2584 C 0.19741 0.21333 0.93121 0.0
C2585 C 0.22955 0.22209 0.92829 0.0
C2586 C 0.22427 0.22364 0.93764 0.0
C2587 C 0.21384 0.22082 0.93831 0.0
C2588 C 0.22935 0.22834 0.94678 0.0
C2589 C 0.24066 0.22532 0.92696 0.0
C2590 C 0.23784 0.22367 0.95153 0.0
C2591 C 0.24242 0.22804 0.96027 0.0
C2592 C 0.23855 0.23714 0.9645 0.0
C2593 C 0.23002 0.24177 0.95973 0.0
C2594 C 0.22547 0.23741 0.95099 0.0
H2595 H 0.24277 0.22604 0.91872 0.0
H2596 H 0.24225 0.23277 0.9308 0.0
H2597 H 0.24569 0.21944 0.93052 0.0
H2598 H 0.24083 0.21654 0.94858 0.0
H2599 H 0.24886 0.22417 0.96384 0.0
H2600 H 0.81151 0.19264 0.89673 0.0
H2601 H 0.80222 0.19946 0.91148 0.0
H2602 H 0.8203 0.22738 0.90981 0.0
H2603 H 0.8293 0.22084 0.89483 0.0
H2604 H 0.80959 0.20539 0.93035 0.0
H2605 H 0.79137 0.23847 0.91079 0.0
H2606 H 0.79734 0.2282 0.9038 0.0
H2607 H 0.80508 0.23835 0.90928 0.0
C2608 C 0.81341 0.2003 0.89939 0.0
C2609 C 0.82115 0.20619 0.89454 0.0
C2610 C 0.80814 0.20416 0.90788 0.0
C2611 C 0.81044 0.214 0.91166 0.0
C2612 C 0.81822 0.21985 0.90691 0.0
H2613 H 0.79308 0.25106 0.96353 0.0
H2614 H 0.80087 0.24354 0.94826 0.0
C2615 C 0.82347 0.21603 0.89841 0.0
C2616 C 0.80494 0.21806 0.92075 0.0
H2617 H 0.79091 0.23839 0.92913 0.0
C2618 C 0.80542 0.21255 0.93006 0.0
C2619 C 0.79948 0.22741 0.92038 0.0
C2620 C 0.79819 0.2334 0.9105 0.0
C2621 C 0.80086 0.21629 0.93906 0.0
C2622 C 0.79559 0.22574 0.93871 0.0
C2623 C 0.795 0.23118 0.92939 0.0
C2624 C 0.79081 0.2302 0.94799 0.0
C2625 C 0.80197 0.21027 0.94893 0.0
C2626 C 0.78249 0.22525 0.95284 0.0
C2627 C 0.77802 0.22952 0.96158 0.0
C2628 C 0.7818 0.23884 0.96564 0.0
C2629 C 0.79008 0.24381 0.96069 0.0
C2630 C 0.7945 0.23956 0.95193 0.0
H2631 H 0.80803 0.20436 0.9484 0.0
H2632 H 0.80385 0.21545 0.95545 0.0
H2633 H 0.79457 0.20632 0.95067 0.0
H2634 H 0.77943 0.2181 0.94984 0.0
H2635 H 0.7717 0.22546 0.96524 0.0
H2636 H 0.8048 0.81158 0.88472 0.0
H2637 H 0.79793 0.80277 0.89993 0.0
H2638 H 0.81867 0.82022 0.91926 0.0
H2639 H 0.8255 0.82912 0.9041 0.0
H2640 H 0.8071 0.79077 0.91459 0.0
H2641 H 0.79125 0.82561 0.93268 0.0
H2642 H 0.79564 0.82549 0.91954 0.0
H2643 H 0.80474 0.82666 0.92995 0.0
C2644 C 0.80794 0.81349 0.8922 0.0
C2645 C 0.81564 0.82111 0.8932 0.0
C2646 C 0.80398 0.80848 0.9009 0.0
C2647 C 0.80762 0.81098 0.91077 0.0
C2648 C 0.81552 0.81836 0.91176 0.0
H2649 H 0.7941 0.78946 0.97266 0.0
H2650 H 0.80149 0.79749 0.95728 0.0
C2651 C 0.81944 0.82343 0.90308 0.0
C2652 C 0.8032 0.80582 0.92001 0.0
H2653 H 0.79125 0.81042 0.94286 0.0
C2654 C 0.80359 0.79506 0.92075 0.0
C2655 C 0.7986 0.81141 0.92805 0.0
C2656 C 0.79743 0.82292 0.9275 0.0
C2657 C 0.79968 0.78978 0.92937 0.0
C2658 C 0.79516 0.79539 0.93743 0.0
C2659 C 0.79476 0.80613 0.93669 0.0
C2660 C 0.79079 0.79028 0.94669 0.0
C2661 C 0.80061 0.77825 0.92989 0.0
C2662 C 0.78226 0.78361 0.94586 0.0
C2663 C 0.77802 0.77899 0.95464 0.0
C2664 C 0.78223 0.78095 0.96444 0.0
C2665 C 0.79076 0.78766 0.96523 0.0
C2666 C 0.79496 0.79231 0.95645 0.0
H2667 H 0.80636 0.77537 0.92434 0.0
H2668 H 0.80284 0.77572 0.93775 0.0
H2669 H 0.79305 0.77468 0.928 0.0
H2670 H 0.77881 0.78206 0.93842 0.0
H2671 H 0.7715 0.77382 0.95374 0.0
H2672 H 0.11493 0.2007 0.18694 0.0
H2673 H 0.10014 0.20774 0.19598 0.0
H2674 H 0.11995 0.21685 0.22109 0.0
H2675 H 0.13483 0.21002 0.21201 0.0
H2676 H 0.09237 0.20275 0.21595 0.0
H2677 H 0.10498 0.24358 0.21299 0.0
H2678 H 0.11045 0.2336 0.20521 0.0
H2679 H 0.11427 0.23497 0.21843 0.0
C2680 C 0.11616 0.20426 0.19436 0.0
C2681 C 0.12609 0.20486 0.19871 0.0
C2682 C 0.10769 0.20823 0.19954 0.0
C2683 C 0.10896 0.21295 0.20914 0.0
C2684 C 0.11882 0.21338 0.21362 0.0
H2685 H 0.06641 0.2447 0.24941 0.0
H2686 H 0.0815 0.23675 0.24174 0.0
C2687 C 0.1273 0.20938 0.20846 0.0
C2688 C 0.09997 0.21744 0.21443 0.0
H2689 H 0.09 0.24011 0.22268 0.0
C2690 C 0.09183 0.21092 0.21742 0.0
C2691 C 0.09931 0.22809 0.21637 0.0
C2692 C 0.10767 0.23551 0.21302 0.0
C2693 C 0.0831 0.21475 0.22237 0.0
C2694 C 0.08237 0.22542 0.22419 0.0
C2695 C 0.09056 0.23193 0.22128 0.0
C2696 C 0.07313 0.23003 0.22896 0.0
C2697 C 0.07481 0.20729 0.22578 0.0
C2698 C 0.06341 0.22901 0.22429 0.0
C2699 C 0.05475 0.23347 0.2287 0.0
C2700 C 0.05563 0.23916 0.23785 0.0
C2701 C 0.06541 0.24025 0.24246 0.0
C2702 C 0.07406 0.23576 0.23804 0.0
H2703 H 0.0778 0.19936 0.22654 0.0
H2704 H 0.07149 0.20959 0.23326 0.0
H2705 H 0.06854 0.20716 0.21996 0.0
H2706 H 0.06253 0.22481 0.21717 0.0
H2707 H 0.04735 0.23239 0.22497 0.0
H2708 H 0.81568 0.13526 0.22166 0.0
H2709 H 0.80684 0.1197 0.22781 0.0
H2710 H 0.81534 0.1039 0.20014 0.0
H2711 H 0.82434 0.11937 0.19399 0.0
H2712 H 0.79039 0.10799 0.21758 0.0
H2713 H 0.82593 0.08544 0.22428 0.0
H2714 H 0.82611 0.09926 0.22301 0.0
H2715 H 0.82468 0.09136 0.21181 0.0
C2716 C 0.81572 0.12845 0.21691 0.0
C2717 C 0.82077 0.12853 0.20736 0.0
C2718 C 0.81062 0.1196 0.22041 0.0
C2719 C 0.81054 0.11064 0.21448 0.0
C2720 C 0.81542 0.11072 0.20488 0.0
H2721 H 0.78789 0.04854 0.22561 0.0
H2722 H 0.79558 0.06415 0.21832 0.0
C2723 C 0.82048 0.11958 0.20134 0.0
C2724 C 0.80539 0.10119 0.21837 0.0
H2725 H 0.81007 0.0768 0.22674 0.0
C2726 C 0.79467 0.10116 0.2196 0.0
C2727 C 0.81102 0.09231 0.22096 0.0
C2728 C 0.82258 0.09205 0.22004 0.0
C2729 C 0.78939 0.09241 0.22324 0.0
C2730 C 0.79503 0.08355 0.22595 0.0
C2731 C 0.80576 0.08359 0.22467 0.0
C2732 C 0.79 0.07417 0.23022 0.0
C2733 C 0.77781 0.09267 0.22393 0.0
C2734 C 0.78435 0.07459 0.23938 0.0
C2735 C 0.77984 0.06569 0.24351 0.0
C2736 C 0.78097 0.05616 0.23863 0.0
C2737 C 0.7867 0.05577 0.22948 0.0
C2738 C 0.79117 0.06467 0.22534 0.0
H2739 H 0.77453 0.09869 0.21884 0.0
H2740 H 0.77432 0.08515 0.22183 0.0
H2741 H 0.77558 0.09445 0.23195 0.0
H2742 H 0.78352 0.08178 0.24341 0.0
H2743 H 0.77541 0.06631 0.25051 0.0
H2744 H 0.90337 0.81714 0.1861 0.0
H2745 H 0.91824 0.81033 0.19538 0.0
H2746 H 0.90025 0.80816 0.22308 0.0
H2747 H 0.88524 0.81471 0.21378 0.0
H2748 H 0.92865 0.81769 0.21276 0.0
H2749 H 0.91156 0.77904 0.21994 0.0
H2750 H 0.90613 0.788 0.21082 0.0
H2751 H 0.90397 0.78957 0.22435 0.0
C2752 C 0.90254 0.81514 0.19415 0.0
C2753 C 0.89306 0.81639 0.19916 0.0
C2754 C 0.91107 0.81132 0.19946 0.0
C2755 C 0.91032 0.80859 0.20988 0.0
C2756 C 0.90096 0.81005 0.215 0.0
H2757 H 0.96287 0.79517 0.25005 0.0
H2758 H 0.94755 0.80271 0.24217 0.0
C2759 C 0.89241 0.8139 0.20969 0.0
C2760 C 0.91934 0.80416 0.21534 0.0
H2761 H 0.92778 0.78252 0.22758 0.0
C2762 C 0.92846 0.81001 0.21603 0.0
C2763 C 0.91912 0.79408 0.21948 0.0
C2764 C 0.90971 0.78725 0.21856 0.0
C2765 C 0.93734 0.80609 0.22078 0.0
C2766 C 0.93707 0.79609 0.22508 0.0
C2767 C 0.92796 0.79022 0.22435 0.0
C2768 C 0.94624 0.79143 0.23006 0.0
C2769 C 0.94703 0.8126 0.2209 0.0
C2770 C 0.95044 0.78241 0.22606 0.0
C2771 C 0.95913 0.77802 0.23062 0.0
C2772 C 0.96379 0.78251 0.23932 0.0
C2773 C 0.95946 0.79146 0.2434 0.0
C2774 C 0.95076 0.79585 0.23883 0.0
H2775 H 0.9467 0.81893 0.21516 0.0
H2776 H 0.94801 0.81607 0.22862 0.0
H2777 H 0.95389 0.80787 0.21932 0.0
H2778 H 0.94704 0.77882 0.21935 0.0
H2779 H 0.96214 0.77104 0.22736 0.0
H2780 H 0.21372 0.88841 0.19998 0.0
H2781 H 0.22286 0.90366 0.20638 0.0
H2782 H 0.1951 0.91385 0.22095 0.0
H2783 H 0.18586 0.89876 0.21448 0.0
H2784 H 0.2185 0.92488 0.20327 0.0
H2785 H 0.2166 0.91376 0.24448 0.0
H2786 H 0.21417 0.90476 0.23421 0.0
H2787 H 0.20438 0.91361 0.23794 0.0
C2788 C 0.20952 0.89393 0.20447 0.0
C2789 C 0.19906 0.89228 0.20679 0.0
C2790 C 0.21478 0.90262 0.20816 0.0
C2791 C 0.2097 0.9098 0.21428 0.0
C2792 C 0.19923 0.9083 0.21643 0.0
H2793 H 0.22662 0.97224 0.23022 0.0
H2794 H 0.21896 0.9566 0.22302 0.0
C2795 C 0.19396 0.89964 0.21274 0.0
C2796 C 0.21532 0.9189 0.21839 0.0
H2797 H 0.22228 0.93079 0.24077 0.0
C2798 C 0.21938 0.92616 0.21146 0.0
C2799 C 0.21657 0.92048 0.22909 0.0
C2800 C 0.21279 0.91271 0.23688 0.0
C2801 C 0.22443 0.9351 0.21495 0.0
C2802 C 0.22533 0.93687 0.22565 0.0
C2803 C 0.2215 0.92947 0.23257 0.0
C2804 C 0.23012 0.94639 0.22984 0.0
C2805 C 0.22882 0.94255 0.20716 0.0
C2806 C 0.23883 0.94583 0.23624 0.0
C2807 C 0.24319 0.95475 0.24045 0.0
C2808 C 0.23886 0.96442 0.23842 0.0
C2809 C 0.23011 0.96493 0.23202 0.0
C2810 C 0.22578 0.956 0.22779 0.0
H2811 H 0.22991 0.93886 0.19956 0.0
H2812 H 0.22343 0.94901 0.2061 0.0
H2813 H 0.23633 0.94574 0.20982 0.0
H2814 H 0.24226 0.93848 0.238 0.0
H2815 H 0.24983 0.95406 0.24546 0.0
H2816 H 0.1166 0.81749 0.83529 0.0
H2817 H 0.10157 0.81087 0.82587 0.0
H2818 H 0.12079 0.80421 0.79987 0.0
H2819 H 0.13588 0.81068 0.80929 0.0
H2820 H 0.09389 0.81758 0.80564 0.0
H2821 H 0.10547 0.77659 0.80683 0.0
H2822 H 0.11086 0.78608 0.81544 0.0
H2823 H 0.11499 0.78564 0.80231 0.0
C2824 C 0.11764 0.81456 0.82759 0.0
C2825 C 0.12744 0.81456 0.82305 0.0
C2826 C 0.10904 0.81084 0.8222 0.0
C2827 C 0.1101 0.80696 0.81223 0.0
C2828 C 0.11984 0.80707 0.80761 0.0
H2829 H 0.06651 0.77659 0.77093 0.0
H2830 H 0.08189 0.78433 0.77874 0.0
C2831 C 0.12843 0.81085 0.81297 0.0
C2832 C 0.10101 0.80278 0.80668 0.0
H2833 H 0.09037 0.78052 0.79754 0.0
C2834 C 0.0931 0.80948 0.80386 0.0
C2835 C 0.10006 0.79222 0.80433 0.0
C2836 C 0.10824 0.78466 0.80743 0.0
C2837 C 0.08426 0.80592 0.79866 0.0
C2838 C 0.08321 0.79532 0.79648 0.0
C2839 C 0.09119 0.78864 0.79922 0.0
C2840 C 0.0738 0.79095 0.79156 0.0
C2841 C 0.07624 0.81358 0.79541 0.0
C2842 C 0.06416 0.79202 0.79621 0.0
C2843 C 0.05534 0.78771 0.79171 0.0
C2844 C 0.05599 0.78211 0.78251 0.0
C2845 C 0.06569 0.78098 0.77792 0.0
C2846 C 0.0745 0.78534 0.78241 0.0
H2847 H 0.07954 0.82147 0.79481 0.0
H2848 H 0.07274 0.81149 0.78789 0.0
H2849 H 0.07004 0.8137 0.80125 0.0
H2850 H 0.06345 0.79612 0.80339 0.0
H2851 H 0.04799 0.78882 0.79542 0.0
H2852 H 0.20965 0.13391 0.80889 0.0
H2853 H 0.2163 0.119 0.79973 0.0
H2854 H 0.20556 0.09908 0.82407 0.0
H2855 H 0.19872 0.11389 0.83317 0.0
H2856 H 0.2312 0.10498 0.80715 0.0
H2857 H 0.19427 0.0852 0.79789 0.0
H2858 H 0.19497 0.09852 0.80164 0.0
H2859 H 0.19584 0.08854 0.81119 0.0
C2860 C 0.20856 0.12634 0.81222 0.0
C2861 C 0.20363 0.1251 0.82176 0.0
C2862 C 0.21242 0.11783 0.807 0.0
C2863 C 0.21133 0.10791 0.81116 0.0
C2864 C 0.20635 0.10664 0.82064 0.0
H2865 H 0.23082 0.04669 0.79506 0.0
H2866 H 0.22348 0.06195 0.80293 0.0
C2867 C 0.20254 0.11513 0.82588 0.0
C2868 C 0.21577 0.09894 0.80581 0.0
H2869 H 0.20955 0.07579 0.79506 0.0
C2870 C 0.22647 0.09863 0.80443 0.0
C2871 C 0.20958 0.09065 0.80231 0.0
C2872 C 0.19802 0.09074 0.80324 0.0
C2873 C 0.23118 0.09012 0.79989 0.0
C2874 C 0.225 0.0818 0.79642 0.0
C2875 C 0.21429 0.08216 0.79772 0.0
C2876 C 0.22951 0.07257 0.79156 0.0
C2877 C 0.24277 0.09 0.79914 0.0
C2878 C 0.23526 0.07343 0.78248 0.0
C2879 C 0.23956 0.06472 0.77801 0.0
C2880 C 0.23815 0.05494 0.78248 0.0
C2881 C 0.23223 0.0541 0.7915 0.0
C2882 C 0.22795 0.06281 0.79597 0.0
H2883 H 0.24644 0.09555 0.80453 0.0
H2884 H 0.24579 0.08222 0.80081 0.0
H2885 H 0.24507 0.09219 0.79122 0.0
H2886 H 0.2364 0.08084 0.77882 0.0
H2887 H 0.24412 0.06568 0.77111 0.0
H2888 H 0.90065 0.19513 0.82877 0.0
H2889 H 0.91607 0.20409 0.82244 0.0
H2890 H 0.89906 0.21474 0.79599 0.0
H2891 H 0.88358 0.20596 0.80234 0.0
H2892 H 0.92586 0.2008 0.8031 0.0
H2893 H 0.91302 0.24108 0.80729 0.0
H2894 H 0.90683 0.23045 0.81386 0.0
H2895 H 0.90421 0.2328 0.80048 0.0
C2896 C 0.90015 0.1995 0.82168 0.0
C2897 C 0.89087 0.19984 0.81607 0.0
C2898 C 0.90898 0.20457 0.81805 0.0
C2899 C 0.90868 0.21017 0.8088 0.0
C2900 C 0.89943 0.21059 0.80321 0.0
H2901 H 0.95298 0.24432 0.77202 0.0
H2902 H 0.93763 0.23606 0.77927 0.0
C2903 C 0.89061 0.20548 0.80681 0.0
C2904 C 0.91815 0.21522 0.80477 0.0
H2905 H 0.92854 0.23853 0.79816 0.0
C2906 C 0.92649 0.20905 0.80208 0.0
C2907 C 0.91891 0.22598 0.8034 0.0
C2908 C 0.91031 0.233 0.80648 0.0
C2909 C 0.9355 0.21334 0.79783 0.0
C2910 C 0.93628 0.22411 0.79646 0.0
C2911 C 0.92794 0.23028 0.7992 0.0
C2912 C 0.94564 0.22912 0.79212 0.0
C2913 C 0.94397 0.20624 0.79457 0.0
C2914 C 0.95524 0.22809 0.79699 0.0
C2915 C 0.96406 0.23271 0.79281 0.0
C2916 C 0.96345 0.23856 0.78369 0.0
C2917 C 0.95378 0.23973 0.77894 0.0
C2918 C 0.94497 0.23508 0.78312 0.0
H2919 H 0.94109 0.19825 0.79349 0.0
H2920 H 0.94756 0.20892 0.78729 0.0
H2921 H 0.95001 0.20609 0.80063 0.0
H2922 H 0.95593 0.22371 0.80406 0.0
H2923 H 0.97137 0.23157 0.79665 0.0
H2924 H 0.83414 0.90453 0.8191 0.0
H2925 H 0.8251 0.91955 0.81245 0.0
H2926 H 0.79905 0.90038 0.8044 0.0
H2927 H 0.80803 0.88531 0.81107 0.0
H2928 H 0.8184 0.92314 0.79289 0.0
H2929 H 0.78527 0.92353 0.81961 0.0
H2930 H 0.79655 0.91589 0.82198 0.0
H2931 H 0.78681 0.91153 0.81309 0.0
C2932 C 0.82648 0.9035 0.81593 0.0
C2933 C 0.82181 0.8937 0.81563 0.0
C2934 C 0.8213 0.91211 0.81216 0.0
C2935 C 0.81133 0.91114 0.80804 0.0
C2936 C 0.80663 0.90138 0.80776 0.0
H2937 H 0.77072 0.95409 0.77655 0.0
H2938 H 0.77875 0.93885 0.78405 0.0
C2939 C 0.81179 0.89276 0.81157 0.0
C2940 C 0.80611 0.92028 0.80361 0.0
H2941 H 0.78451 0.93492 0.80529 0.0
C2942 C 0.81102 0.92574 0.79565 0.0
C2943 C 0.79644 0.92366 0.80717 0.0
C2944 C 0.79099 0.91841 0.81599 0.0
C2945 C 0.80649 0.9344 0.79108 0.0
C2946 C 0.79685 0.93778 0.79465 0.0
C2947 C 0.79189 0.9323 0.80256 0.0
C2948 C 0.79187 0.94708 0.79033 0.0
C2949 C 0.81199 0.93978 0.78236 0.0
C2950 C 0.79649 0.95679 0.79152 0.0
C2951 C 0.79188 0.96554 0.78733 0.0
C2952 C 0.78253 0.96477 0.78185 0.0
C2953 C 0.77785 0.95501 0.7808 0.0
C2954 C 0.78246 0.94627 0.78504 0.0
H2955 H 0.81803 0.93489 0.77896 0.0
H2956 H 0.80648 0.94201 0.77621 0.0
H2957 H 0.81576 0.94688 0.78529 0.0
H2958 H 0.80365 0.95762 0.79575 0.0
H2959 H 0.79561 0.97292 0.78849 0.0
H2960 H 0.21061 0.12924 0.19674 0.0
H2961 H 0.21924 0.11374 0.20287 0.0
H2962 H 0.19446 0.10795 0.22411 0.0
H2963 H 0.18558 0.12313 0.21775 0.0
H2964 H 0.22628 0.10893 0.22216 0.0
H2965 H 0.19671 0.08042 0.21014 0.0
H2966 H 0.1967 0.09354 0.2056 0.0
H2967 H 0.19158 0.09035 0.21806 0.0
C2968 C 0.20691 0.12459 0.2026 0.0
C2969 C 0.19736 0.12745 0.20671 0.0
C2970 C 0.2119 0.11576 0.20615 0.0
C2971 C 0.20743 0.10957 0.21384 0.0
C2972 C 0.19797 0.11246 0.21802 0.0
H2973 H 0.2247 0.05672 0.25025 0.0
H2974 H 0.21665 0.07187 0.24265 0.0
C2975 C 0.19296 0.12125 0.21446 0.0
C2976 C 0.21278 0.10027 0.21772 0.0
H2977 H 0.20963 0.07447 0.22176 0.0
C2978 C 0.22268 0.10138 0.22199 0.0
C2979 C 0.20809 0.0904 0.21748 0.0
C2980 C 0.19773 0.08857 0.21248 0.0
C2981 C 0.22789 0.09296 0.22629 0.0
C2982 C 0.2231 0.08315 0.22623 0.0
C2983 C 0.21326 0.08201 0.22185 0.0
C2984 C 0.2281 0.07399 0.2308 0.0
C2985 C 0.23834 0.09467 0.23112 0.0
C2986 C 0.23717 0.07008 0.2266 0.0
C2987 C 0.24175 0.06134 0.23086 0.0
C2988 C 0.23735 0.05632 0.23942 0.0
C2989 C 0.22824 0.06028 0.24359 0.0
C2990 C 0.22365 0.06898 0.23929 0.0
H2991 H 0.23999 0.10294 0.23248 0.0
H2992 H 0.23895 0.09047 0.23855 0.0
H2993 H 0.24434 0.09169 0.22591 0.0
H2994 H 0.24063 0.0737 0.21993 0.0
H2995 H 0.24865 0.05843 0.22733 0.0
H2996 H 0.21306 0.88453 0.8142 0.0
H2997 H 0.22251 0.89966 0.80791 0.0
H2998 H 0.19474 0.9174 0.80911 0.0
H2999 H 0.18529 0.90239 0.81562 0.0
H3000 H 0.21837 0.91097 0.78981 0.0
H3001 H 0.21599 0.93539 0.82454 0.0
H3002 H 0.21351 0.92171 0.82486 0.0
H3003 H 0.20381 0.93033 0.82019 0.0
C3004 C 0.209 0.89169 0.81327 0.0
C3005 C 0.19842 0.89226 0.81543 0.0
C3006 C 0.2144 0.90031 0.80962 0.0
C3007 C 0.20935 0.90968 0.80816 0.0
C3008 C 0.19881 0.91029 0.81034 0.0
H3009 H 0.22613 0.96216 0.77073 0.0
H3010 H 0.21844 0.94664 0.7782 0.0
C3011 C 0.1934 0.90167 0.81395 0.0
C3012 C 0.215 0.91872 0.80396 0.0
H3013 H 0.22178 0.94357 0.80917 0.0
C3014 C 0.21917 0.91808 0.79406 0.0
C3015 C 0.21613 0.92794 0.80957 0.0
C3016 C 0.21221 0.9289 0.82042 0.0
C3017 C 0.22422 0.92652 0.7895 0.0
C3018 C 0.22501 0.93587 0.79495 0.0
C3019 C 0.22108 0.93642 0.80497 0.0
C3020 C 0.22978 0.9452 0.79035 0.0
C3021 C 0.22873 0.92536 0.77891 0.0
C3022 C 0.23861 0.94964 0.7948 0.0
C3023 C 0.24306 0.95849 0.79052 0.0
C3024 C 0.23871 0.96313 0.78174 0.0
C3025 C 0.2298 0.95869 0.77736 0.0
C3026 C 0.22538 0.94982 0.78163 0.0
H3027 H 0.22978 0.91716 0.77688 0.0
H3028 H 0.22343 0.9288 0.77316 0.0
H3029 H 0.23627 0.92941 0.77833 0.0
H3030 H 0.2421 0.94619 0.80155 0.0
H3031 H 0.24997 0.96164 0.79402 0.0
H3032 H 0.12534 0.20703 0.82821 0.0
H3033 H 0.11026 0.21621 0.82172 0.0
H3034 H 0.10913 0.19648 0.79523 0.0
H3035 H 0.12429 0.18741 0.8015 0.0
H3036 H 0.10755 0.22659 0.80219 0.0
H3037 H 0.07978 0.19431 0.80748 0.0
H3038 H 0.0922 0.19468 0.81376 0.0
H3039 H 0.09118 0.19114 0.80046 0.0
C3040 C 0.12195 0.20469 0.82095 0.0
C3041 C 0.12602 0.19641 0.81543 0.0
C3042 C 0.11329 0.20992 0.81729 0.0
C3043 C 0.10848 0.20692 0.80808 0.0
C3044 C 0.11259 0.19878 0.80247 0.0
H3045 H 0.05577 0.22554 0.7719 0.0
H3046 H 0.07105 0.21738 0.7791 0.0
C3047 C 0.12126 0.19358 0.80609 0.0
C3048 C 0.09922 0.21236 0.80423 0.0
H3049 H 0.07384 0.20877 0.79811 0.0
C3050 C 0.10015 0.22273 0.80136 0.0
C3051 C 0.0896 0.20729 0.80313 0.0
C3052 C 0.08805 0.19627 0.80645 0.0
C3053 C 0.09178 0.2281 0.79714 0.0
C3054 C 0.08215 0.22301 0.79598 0.0
C3055 C 0.08122 0.21266 0.79897 0.0
C3056 C 0.07299 0.2282 0.79154 0.0
C3057 C 0.09342 0.23907 0.79367 0.0
C3058 C 0.06891 0.23697 0.79618 0.0
C3059 C 0.06022 0.24173 0.792 0.0
C3060 C 0.05534 0.23778 0.78315 0.0
C3061 C 0.0594 0.22892 0.7786 0.0
C3062 C 0.06811 0.22419 0.78276 0.0
H3063 H 0.1017 0.2409 0.79251 0.0
H3064 H 0.08921 0.24063 0.78639 0.0
H3065 H 0.09048 0.24431 0.79965 0.0
H3066 H 0.0724 0.24009 0.80308 0.0
H3067 H 0.05737 0.24857 0.79568 0.0
H3068 H 0.81473 0.13448 0.80855 0.0
H3069 H 0.80813 0.11942 0.7993 0.0
H3070 H 0.80421 0.10328 0.82806 0.0
H3071 H 0.81086 0.11823 0.83735 0.0
H3072 H 0.81512 0.09909 0.79888 0.0
H3073 H 0.77562 0.10109 0.81467 0.0
H3074 H 0.78476 0.11158 0.81569 0.0
H3075 H 0.78556 0.10078 0.82431 0.0
C3076 C 0.81255 0.12769 0.8129 0.0
C3077 C 0.81324 0.12761 0.82371 0.0
C3078 C 0.80874 0.11911 0.80761 0.0
C3079 C 0.8055 0.1103 0.813 0.0
C3080 C 0.80643 0.11009 0.82376 0.0
H3081 H 0.79383 0.04877 0.78996 0.0
H3082 H 0.801 0.06421 0.798 0.0
C3083 C 0.81023 0.11865 0.82906 0.0
C3084 C 0.80117 0.10131 0.8074 0.0
H3085 H 0.77969 0.08608 0.80529 0.0
C3086 C 0.80736 0.09626 0.80024 0.0
C3087 C 0.791 0.09771 0.80909 0.0
C3088 C 0.7838 0.10311 0.81628 0.0
C3089 C 0.80373 0.08758 0.7949 0.0
C3090 C 0.79368 0.08377 0.79687 0.0
C3091 C 0.78742 0.08895 0.80386 0.0
C3092 C 0.78949 0.07442 0.79176 0.0
C3093 C 0.81063 0.08265 0.78709 0.0
C3094 C 0.78052 0.07496 0.78573 0.0
C3095 C 0.77639 0.06614 0.78113 0.0
C3096 C 0.78112 0.05655 0.7825 0.0
C3097 C 0.79009 0.05604 0.78858 0.0
C3098 C 0.79421 0.06487 0.79318 0.0
H3099 H 0.81684 0.08799 0.78451 0.0
H3100 H 0.81431 0.07583 0.79062 0.0
H3101 H 0.80616 0.08007 0.78026 0.0
H3102 H 0.77673 0.08225 0.78455 0.0
H3103 H 0.76954 0.06684 0.77641 0.0
H3104 H 0.89428 0.80101 0.83016 0.0
H3105 H 0.9093 0.7946 0.82112 0.0
H3106 H 0.90893 0.82108 0.80109 0.0
H3107 H 0.89412 0.82778 0.81037 0.0
H3108 H 0.91146 0.78947 0.8008 0.0
H3109 H 0.93866 0.82105 0.811 0.0
H3110 H 0.92645 0.81927 0.81734 0.0
H3111 H 0.92702 0.82518 0.80483 0.0
C3112 C 0.89747 0.80557 0.82394 0.0
C3113 C 0.89302 0.81499 0.82109 0.0
C3114 C 0.90602 0.80184 0.81872 0.0
C3115 C 0.91036 0.80743 0.81053 0.0
C3116 C 0.90585 0.81673 0.80752 0.0
H3117 H 0.96338 0.79494 0.77152 0.0
H3118 H 0.94781 0.80215 0.77905 0.0
C3119 C 0.8973 0.82049 0.81276 0.0
C3120 C 0.91949 0.80337 0.80509 0.0
H3121 H 0.94467 0.80857 0.79939 0.0
C3122 C 0.91872 0.79365 0.80049 0.0
C3123 C 0.92896 0.80883 0.80466 0.0
C3124 C 0.9304 0.81912 0.80979 0.0
C3125 C 0.92714 0.78926 0.79548 0.0
C3126 C 0.93665 0.79466 0.79518 0.0
C3127 C 0.93738 0.80444 0.79963 0.0
C3128 C 0.94599 0.79018 0.7905 0.0
C3129 C 0.92575 0.77893 0.79044 0.0
C3130 C 0.9502 0.78111 0.7945 0.0
C3131 C 0.95906 0.77694 0.7902 0.0
C3132 C 0.96394 0.78179 0.78181 0.0
C3133 C 0.95974 0.79093 0.77787 0.0
C3134 C 0.95088 0.7951 0.7822 0.0
H3135 H 0.9175 0.77714 0.78889 0.0
H3136 H 0.93003 0.77859 0.78308 0.0
H3137 H 0.92878 0.77288 0.79563 0.0
H3138 H 0.94667 0.77727 0.80102 0.0
H3139 H 0.96203 0.76987 0.79338 0.0
H3140 H 0.82555 0.90244 0.19417 0.0
H3141 H 0.81698 0.91769 0.20078 0.0
H3142 H 0.80536 0.89995 0.22638 0.0
H3143 H 0.81392 0.8847 0.21985 0.0
H3144 H 0.79654 0.92156 0.20478 0.0
H3145 H 0.81953 0.92388 0.24076 0.0
H3146 H 0.82306 0.91576 0.23017 0.0
H3147 H 0.81318 0.91171 0.23899 0.0
C3148 C 0.8211 0.90176 0.20117 0.0
C3149 C 0.8205 0.89236 0.20653 0.0
C3150 C 0.81624 0.9105 0.20496 0.0
C3151 C 0.8107 0.91003 0.21419 0.0
C3152 C 0.80982 0.90058 0.2194 0.0
H3153 H 0.77607 0.95361 0.25023 0.0
H3154 H 0.78403 0.93835 0.24299 0.0
C3155 C 0.81471 0.89186 0.21564 0.0
C3156 C 0.8058 0.91939 0.21837 0.0
H3157 H 0.80517 0.93494 0.23945 0.0
C3158 C 0.79846 0.92452 0.21234 0.0
C3159 C 0.80833 0.92326 0.22824 0.0
C3160 C 0.81653 0.91844 0.23488 0.0
C3161 C 0.79342 0.93327 0.21598 0.0
C3162 C 0.7959 0.93708 0.22587 0.0
C3163 C 0.80325 0.93198 0.23189 0.0
C3164 C 0.79097 0.94638 0.23013 0.0
C3165 C 0.78534 0.93824 0.20931 0.0
C3166 C 0.79231 0.956 0.22538 0.0
C3167 C 0.78783 0.96476 0.22954 0.0
C3168 C 0.78194 0.96411 0.23858 0.0
C3169 C 0.78065 0.95445 0.24334 0.0
C3170 C 0.78515 0.94569 0.23918 0.0
H3171 H 0.78256 0.93301 0.20314 0.0
H3172 H 0.77865 0.94063 0.21398 0.0
H3173 H 0.78867 0.9452 0.2056 0.0
H3174 H 0.79696 0.95675 0.21852 0.0
H3175 H 0.78916 0.97209 0.22577 0.0
H3176 H 0.1262 0.79982 0.19055 0.0
H3177 H 0.11102 0.79343 0.19964 0.0
H3178 H 0.1109 0.8208 0.21815 0.0
H3179 H 0.12583 0.82748 0.20878 0.0
H3180 H 0.10852 0.78909 0.22004 0.0
H3181 H 0.08137 0.81953 0.20796 0.0
H3182 H 0.09371 0.81788 0.20193 0.0
H3183 H 0.09286 0.82428 0.21411 0.0
C3184 C 0.12286 0.80458 0.19643 0.0
C3185 C 0.12722 0.81423 0.19884 0.0
C3186 C 0.11422 0.80087 0.20169 0.0
C3187 C 0.1097 0.8067 0.20947 0.0
C3188 C 0.11411 0.81625 0.21203 0.0
H3189 H 0.05693 0.79453 0.24929 0.0
H3190 H 0.07253 0.80169 0.24139 0.0
C3191 C 0.12274 0.82 0.20674 0.0
C3192 C 0.10053 0.80263 0.21501 0.0
H3193 H 0.07533 0.80754 0.22037 0.0
C3194 C 0.10126 0.79312 0.2201 0.0
C3195 C 0.09105 0.8079 0.2151 0.0
C3196 C 0.08963 0.81792 0.20941 0.0
C3197 C 0.09281 0.78877 0.2253 0.0
C3198 C 0.08333 0.794 0.22532 0.0
C3199 C 0.08262 0.80356 0.22035 0.0
C3200 C 0.07399 0.78955 0.23023 0.0
C3201 C 0.09413 0.77866 0.23084 0.0
C3202 C 0.06959 0.78039 0.22652 0.0
C3203 C 0.06069 0.77627 0.23102 0.0
C3204 C 0.056 0.78124 0.23932 0.0
C3205 C 0.06042 0.79044 0.243 0.0
C3206 C 0.0693 0.79457 0.23846 0.0
H3207 H 0.10237 0.77697 0.23232 0.0
H3208 H 0.08998 0.77862 0.23829 0.0
H3209 H 0.09088 0.77239 0.22603 0.0
H3210 H 0.07299 0.77646 0.22007 0.0
H3211 H 0.05754 0.76915 0.22804 0.0
H3212 H 0.89204 0.22213 0.1908 0.0
H3213 H 0.90738 0.22858 0.19968 0.0
H3214 H 0.90903 0.20045 0.21722 0.0
H3215 H 0.89394 0.19373 0.20804 0.0
H3216 H 0.91061 0.23204 0.22018 0.0
H3217 H 0.93803 0.20301 0.20599 0.0
H3218 H 0.92538 0.20461 0.20044 0.0
H3219 H 0.92694 0.19766 0.21232 0.0
C3220 C 0.89574 0.21723 0.19643 0.0
C3221 C 0.89179 0.20736 0.19862 0.0
C3222 C 0.90447 0.22097 0.20156 0.0
C3223 C 0.90945 0.21494 0.20899 0.0
C3224 C 0.90544 0.20516 0.21136 0.0
H3225 H 0.96346 0.22676 0.2475 0.0
H3226 H 0.94773 0.21954 0.23981 0.0
C3227 C 0.89672 0.20139 0.20619 0.0
C3228 C 0.91875 0.219 0.21435 0.0
H3229 H 0.9443 0.21459 0.2186 0.0
C3230 C 0.91798 0.22823 0.21983 0.0
C3231 C 0.92836 0.21402 0.21389 0.0
C3232 C 0.92979 0.20433 0.20777 0.0
C3233 C 0.92653 0.23258 0.22488 0.0
C3234 C 0.93614 0.22763 0.22435 0.0
C3235 C 0.93691 0.21835 0.219 0.0
C3236 C 0.94556 0.2321 0.22911 0.0
C3237 C 0.9252 0.24237 0.23085 0.0
C3238 C 0.94959 0.24151 0.22556 0.0
C3239 C 0.95855 0.24565 0.22994 0.0
C3240 C 0.96367 0.24046 0.23794 0.0
C3241 C 0.95963 0.23101 0.24145 0.0
C3242 C 0.95068 0.22685 0.23703 0.0
H3243 H 0.91699 0.24379 0.23263 0.0
H3244 H 0.92964 0.24215 0.23817 0.0
H3245 H 0.92813 0.24894 0.2262 0.0
H3246 H 0.94583 0.24561 0.21935 0.0
H3247 H 0.96142 0.25298 0.22712 0.0
H3248 H 0.1949 0.69 0.61596 0.0
H3249 H 0.20215 0.69887 0.60095 0.0
H3250 H 0.2207 0.71794 0.62089 0.0
H3251 H 0.21362 0.70901 0.63594 0.0
H3252 H 0.2022 0.72074 0.59614 0.0
H3253 H 0.24154 0.70492 0.60062 0.0
H3254 H 0.23045 0.69928 0.60688 0.0
H3255 H 0.23624 0.71082 0.61185 0.0
C3256 C 0.20056 0.69605 0.61715 0.0
C3257 C 0.20372 0.69875 0.62716 0.0
C3258 C 0.20465 0.70114 0.60857 0.0
C3259 C 0.21205 0.70897 0.6098 0.0
C3260 C 0.21509 0.71183 0.61977 0.0
H3261 H 0.24868 0.74502 0.56645 0.0
H3262 H 0.24096 0.73733 0.58185 0.0
C3263 C 0.21096 0.70678 0.62836 0.0
C3264 C 0.21663 0.7141 0.60065 0.0
H3265 H 0.23913 0.71725 0.58749 0.0
C3266 C 0.21027 0.71998 0.59422 0.0
C3267 C 0.22716 0.71311 0.59821 0.0
C3268 C 0.23427 0.70663 0.60468 0.0
C3269 C 0.21419 0.72502 0.58547 0.0
C3270 C 0.22472 0.72394 0.58294 0.0
C3271 C 0.23108 0.71809 0.58942 0.0
C3272 C 0.22928 0.72871 0.57356 0.0
C3273 C 0.20707 0.73164 0.57915 0.0
C3274 C 0.22538 0.72634 0.56376 0.0
C3275 C 0.22977 0.73073 0.55495 0.0
C3276 C 0.23824 0.73751 0.55573 0.0
C3277 C 0.24222 0.73977 0.56556 0.0
C3278 C 0.23778 0.73542 0.57437 0.0
H3279 H 0.20031 0.73409 0.58368 0.0
H3280 H 0.21113 0.73859 0.5762 0.0
H3281 H 0.20417 0.72717 0.57248 0.0
H3282 H 0.21901 0.72097 0.5629 0.0
H3283 H 0.22664 0.72867 0.54749 0.0
H3284 H 0.81695 0.68512 0.61778 0.0
H3285 H 0.81049 0.69419 0.60258 0.0
H3286 H 0.80284 0.72015 0.62141 0.0
H3287 H 0.80936 0.71115 0.63663 0.0
H3288 H 0.79108 0.70098 0.59885 0.0
H3289 H 0.81858 0.73388 0.5982 0.0
H3290 H 0.82065 0.72258 0.606 0.0
H3291 H 0.81198 0.73234 0.61021 0.0
C3292 C 0.8139 0.69276 0.61868 0.0
C3293 C 0.81368 0.69742 0.62841 0.0
C3294 C 0.81025 0.69795 0.60999 0.0
C3295 C 0.80632 0.70791 0.61082 0.0
C3296 C 0.80608 0.71258 0.62053 0.0
H3297 H 0.77563 0.74883 0.56764 0.0
H3298 H 0.78299 0.74063 0.58295 0.0
C3299 C 0.80979 0.70742 0.62922 0.0
C3300 C 0.80206 0.71318 0.60161 0.0
H3301 H 0.80424 0.73485 0.5868 0.0
C3302 C 0.794 0.70836 0.59618 0.0
C3303 C 0.80585 0.72283 0.59816 0.0
C3304 C 0.8148 0.72818 0.60338 0.0
C3305 C 0.78955 0.71297 0.58748 0.0
C3306 C 0.79333 0.7226 0.58404 0.0
C3307 C 0.80135 0.72746 0.58948 0.0
C3308 C 0.78912 0.72768 0.57473 0.0
C3309 C 0.78072 0.70757 0.58211 0.0
C3310 C 0.79028 0.7232 0.56503 0.0
C3311 C 0.78616 0.72789 0.55627 0.0
C3312 C 0.7808 0.73719 0.55702 0.0
C3313 C 0.77979 0.74173 0.56676 0.0
C3314 C 0.78395 0.73704 0.57552 0.0
H3315 H 0.7772 0.70148 0.58702 0.0
H3316 H 0.77466 0.71311 0.57988 0.0
H3317 H 0.78358 0.70392 0.575 0.0
H3318 H 0.79442 0.71608 0.56424 0.0
H3319 H 0.78728 0.72429 0.54888 0.0
H3320 H 0.80059 0.33013 0.62537 0.0
H3321 H 0.79418 0.32102 0.61024 0.0
H3322 H 0.82081 0.3016 0.6109 0.0
H3323 H 0.8274 0.31079 0.62599 0.0
H3324 H 0.80405 0.31898 0.59099 0.0
H3325 H 0.79644 0.28103 0.60935 0.0
H3326 H 0.79831 0.29262 0.61671 0.0
H3327 H 0.80916 0.28625 0.61126 0.0
C3328 C 0.80515 0.32397 0.62228 0.0
C3329 C 0.81455 0.32123 0.62692 0.0
C3330 C 0.80143 0.31873 0.61365 0.0
C3331 C 0.80695 0.31056 0.6095 0.0
C3332 C 0.81632 0.30776 0.61409 0.0
H3333 H 0.79445 0.27114 0.55653 0.0
H3334 H 0.802 0.2793 0.57178 0.0
C3335 C 0.82007 0.31302 0.62273 0.0
C3336 C 0.80301 0.30522 0.60018 0.0
H3337 H 0.79396 0.28213 0.59136 0.0
C3338 C 0.80184 0.31092 0.59107 0.0
C3339 C 0.80018 0.2947 0.60028 0.0
C3340 C 0.80099 0.28827 0.60993 0.0
C3341 C 0.79796 0.30639 0.58204 0.0
C3342 C 0.79494 0.29591 0.58219 0.0
C3343 C 0.79625 0.29016 0.59126 0.0
C3344 C 0.79024 0.29084 0.57305 0.0
C3345 C 0.79727 0.31284 0.57239 0.0
C3346 C 0.78101 0.29448 0.56881 0.0
C3347 C 0.77666 0.28983 0.56012 0.0
C3348 C 0.7814 0.28136 0.55551 0.0
C3349 C 0.79054 0.27759 0.55992 0.0
C3350 C 0.7949 0.28227 0.56861 0.0
H3351 H 0.8025 0.31964 0.57275 0.0
H3352 H 0.79921 0.30828 0.56549 0.0
H3353 H 0.78929 0.31565 0.57147 0.0
H3354 H 0.77713 0.30092 0.57225 0.0
H3355 H 0.76951 0.2928 0.55707 0.0
H3356 H 0.19319 0.32548 0.61887 0.0
H3357 H 0.19939 0.31663 0.60355 0.0
H3358 H 0.2255 0.30559 0.62076 0.0
H3359 H 0.21927 0.31425 0.63614 0.0
H3360 H 0.21887 0.31985 0.59384 0.0
H3361 H 0.21363 0.27949 0.60693 0.0
H3362 H 0.2073 0.29011 0.61302 0.0
H3363 H 0.22061 0.28761 0.61572 0.0
C3364 C 0.20017 0.32104 0.61943 0.0
C3365 C 0.20573 0.32056 0.62874 0.0
C3366 C 0.20373 0.31604 0.61066 0.0
C3367 C 0.21285 0.31036 0.61105 0.0
C3368 C 0.21837 0.30981 0.62033 0.0
H3369 H 0.24932 0.2764 0.56745 0.0
H3370 H 0.24206 0.28458 0.58262 0.0
C3371 C 0.21485 0.31484 0.62908 0.0
C3372 C 0.21681 0.30537 0.60165 0.0
H3373 H 0.223 0.28211 0.59151 0.0
C3374 C 0.21971 0.31159 0.59329 0.0
C3375 C 0.21795 0.29461 0.60098 0.0
C3376 C 0.21463 0.28753 0.6096 0.0
C3377 C 0.22395 0.30737 0.58436 0.0
C3378 C 0.22509 0.29659 0.58368 0.0
C3379 C 0.22213 0.29037 0.59203 0.0
C3380 C 0.22944 0.29163 0.57441 0.0
C3381 C 0.22744 0.31452 0.57586 0.0
C3382 C 0.22469 0.29276 0.56476 0.0
C3383 C 0.22888 0.28818 0.55604 0.0
C3384 C 0.23787 0.28229 0.5568 0.0
C3385 C 0.2425 0.28103 0.56653 0.0
C3386 C 0.23831 0.28564 0.57524 0.0
H3387 H 0.22865 0.32248 0.57868 0.0
H3388 H 0.23471 0.31184 0.57238 0.0
H3389 H 0.22145 0.31473 0.56976 0.0
H3390 H 0.21772 0.29718 0.56396 0.0
H3391 H 0.22514 0.28939 0.54868 0.0
H3392 H 0.22094 0.31652 0.3857 0.0
H3393 H 0.22725 0.30751 0.40099 0.0
H3394 H 0.20042 0.31688 0.41776 0.0
H3395 H 0.19403 0.32585 0.40247 0.0
H3396 H 0.23219 0.31541 0.41972 0.0
H3397 H 0.20092 0.28638 0.42394 0.0
H3398 H 0.20253 0.294 0.41242 0.0
H3399 H 0.19641 0.29935 0.42351 0.0
C3400 C 0.21638 0.31666 0.39265 0.0
C3401 C 0.20697 0.32188 0.39287 0.0
C3402 C 0.21997 0.31147 0.40136 0.0
C3403 C 0.21424 0.31138 0.41048 0.0
C3404 C 0.20486 0.31661 0.41074 0.0
H3405 H 0.22595 0.28941 0.47255 0.0
H3406 H 0.21894 0.29743 0.457 0.0
C3407 C 0.20122 0.32176 0.402 0.0
C3408 C 0.21833 0.30619 0.41982 0.0
H3409 H 0.21284 0.28775 0.43783 0.0
C3410 C 0.22799 0.30932 0.42364 0.0
C3411 C 0.21282 0.29826 0.42494 0.0
C3412 C 0.20264 0.29422 0.42095 0.0
C3413 C 0.23223 0.30484 0.43252 0.0
C3414 C 0.2267 0.29695 0.43766 0.0
C3415 C 0.21704 0.29382 0.43387 0.0
C3416 C 0.23085 0.29186 0.44699 0.0
C3417 C 0.24249 0.30872 0.43646 0.0
C3418 C 0.23978 0.28593 0.44646 0.0
C3419 C 0.24377 0.28126 0.45531 0.0
C3420 C 0.23888 0.28241 0.46487 0.0
C3421 C 0.22984 0.28825 0.46531 0.0
C3422 C 0.22585 0.29289 0.45645 0.0
H3423 H 0.24464 0.31626 0.43301 0.0
H3424 H 0.2424 0.30948 0.44496 0.0
H3425 H 0.24854 0.30313 0.43445 0.0
H3426 H 0.24365 0.28489 0.43919 0.0
H3427 H 0.25062 0.27666 0.45464 0.0
H3428 H 0.21236 0.70446 0.3853 0.0
H3429 H 0.22187 0.71083 0.40032 0.0
H3430 H 0.19431 0.70851 0.41853 0.0
H3431 H 0.18482 0.70188 0.40366 0.0
H3432 H 0.21805 0.72845 0.4116 0.0
H3433 H 0.21555 0.69384 0.4365 0.0
H3434 H 0.21279 0.69349 0.42288 0.0
H3435 H 0.2033 0.69804 0.43173 0.0
C3436 C 0.20836 0.70514 0.39254 0.0
C3437 C 0.19782 0.70263 0.39327 0.0
C3438 C 0.21379 0.70885 0.4011 0.0
C3439 C 0.20884 0.71003 0.41059 0.0
C3440 C 0.19834 0.7075 0.41135 0.0
H3441 H 0.22652 0.74845 0.46204 0.0
H3442 H 0.21863 0.74072 0.44678 0.0
C3443 C 0.1929 0.70381 0.4028 0.0
C3444 C 0.21452 0.71433 0.41957 0.0
H3445 H 0.22121 0.70933 0.44454 0.0
C3446 C 0.2188 0.72425 0.41878 0.0
C3447 C 0.21561 0.70879 0.42891 0.0
C3448 C 0.21166 0.69791 0.43006 0.0
C3449 C 0.22389 0.72888 0.42714 0.0
C3450 C 0.2246 0.72352 0.43661 0.0
C3451 C 0.22057 0.71349 0.43732 0.0
C3452 C 0.22941 0.72821 0.44589 0.0
C3453 C 0.22855 0.73946 0.42573 0.0
C3454 C 0.23794 0.72362 0.45063 0.0
C3455 C 0.24241 0.72797 0.45943 0.0
C3456 C 0.23839 0.73697 0.46374 0.0
C3457 C 0.22978 0.74149 0.459 0.0
C3458 C 0.22533 0.73714 0.45019 0.0
H3459 H 0.22985 0.74129 0.41748 0.0
H3460 H 0.2232 0.74525 0.42884 0.0
H3461 H 0.23599 0.74019 0.42993 0.0
H3462 H 0.24117 0.71669 0.4475 0.0
H3463 H 0.24893 0.7242 0.46296 0.0
H3464 H 0.8351 0.70787 0.4039 0.0
H3465 H 0.82611 0.71427 0.41899 0.0
H3466 H 0.79708 0.71089 0.40309 0.0
H3467 H 0.80602 0.70453 0.38792 0.0
H3468 H 0.81392 0.73151 0.42036 0.0
H3469 H 0.79164 0.69632 0.43055 0.0
H3470 H 0.80235 0.69619 0.42176 0.0
H3471 H 0.78997 0.70057 0.41749 0.0
C3472 C 0.8268 0.70851 0.40359 0.0
C3473 C 0.82129 0.70569 0.39467 0.0
C3474 C 0.82167 0.71212 0.41225 0.0
C3475 C 0.81091 0.71295 0.41222 0.0
C3476 C 0.80536 0.71011 0.40337 0.0
H3477 H 0.77536 0.74987 0.45475 0.0
H3478 H 0.78356 0.74262 0.43958 0.0
C3479 C 0.81049 0.70648 0.3947 0.0
C3480 C 0.80559 0.71716 0.42134 0.0
H3481 H 0.78768 0.71147 0.43973 0.0
C3482 C 0.80819 0.72713 0.4246 0.0
C3483 C 0.79819 0.71139 0.42694 0.0
C3484 C 0.79542 0.70049 0.42409 0.0
C3485 C 0.80353 0.73151 0.43323 0.0
C3486 C 0.79595 0.72585 0.43867 0.0
C3487 C 0.79342 0.71584 0.43549 0.0
C3488 C 0.79073 0.7301 0.44782 0.0
C3489 C 0.80692 0.74211 0.43656 0.0
C3490 C 0.79181 0.72533 0.45745 0.0
C3491 C 0.78714 0.72945 0.46615 0.0
C3492 C 0.78123 0.73842 0.46539 0.0
C3493 C 0.78001 0.74307 0.45567 0.0
C3494 C 0.78468 0.73893 0.44697 0.0
H3495 H 0.81447 0.74435 0.43319 0.0
H3496 H 0.80114 0.74778 0.43396 0.0
H3497 H 0.80754 0.74255 0.44507 0.0
H3498 H 0.79643 0.7185 0.45828 0.0
H3499 H 0.78834 0.72573 0.47352 0.0
H3500 H 0.80102 0.33039 0.39364 0.0
H3501 H 0.79447 0.32123 0.40871 0.0
H3502 H 0.82111 0.30179 0.40869 0.0
H3503 H 0.82796 0.3112 0.39384 0.0
H3504 H 0.78935 0.3009 0.41101 0.0
H3505 H 0.82067 0.31148 0.4383 0.0
H3506 H 0.81906 0.31781 0.42603 0.0
H3507 H 0.82499 0.30542 0.42676 0.0
C3508 C 0.8056 0.32428 0.39692 0.0
C3509 C 0.81509 0.32162 0.39255 0.0
C3510 C 0.80178 0.31899 0.4055 0.0
C3511 C 0.80736 0.31092 0.40995 0.0
C3512 C 0.81676 0.30812 0.40553 0.0
H3513 H 0.79443 0.27106 0.46276 0.0
H3514 H 0.80174 0.27891 0.44723 0.0
C3515 C 0.8206 0.31344 0.39695 0.0
C3516 C 0.8032 0.30536 0.41907 0.0
H3517 H 0.80819 0.29949 0.44425 0.0
C3518 C 0.79347 0.3006 0.41828 0.0
C3519 C 0.80858 0.30495 0.42856 0.0
C3520 C 0.81886 0.31026 0.43004 0.0
C3521 C 0.78901 0.29542 0.42668 0.0
C3522 C 0.79434 0.29511 0.43619 0.0
C3523 C 0.80412 0.29974 0.43696 0.0
C3524 C 0.78979 0.29023 0.4455 0.0
C3525 C 0.77867 0.29021 0.42527 0.0
C3526 C 0.78069 0.29403 0.44974 0.0
C3527 C 0.77647 0.28954 0.45858 0.0
C3528 C 0.78129 0.28116 0.46341 0.0
C3529 C 0.79044 0.2774 0.45916 0.0
C3530 C 0.79466 0.28192 0.45033 0.0
H3531 H 0.77692 0.28879 0.41702 0.0
H3532 H 0.77833 0.28278 0.42949 0.0
H3533 H 0.77258 0.29523 0.42835 0.0
H3534 H 0.77688 0.30055 0.44625 0.0
H3535 H 0.76938 0.29259 0.46159 0.0
H3536 H 0.13559 0.71486 0.71118 0.0
H3537 H 0.12039 0.72151 0.71983 0.0
H3538 H 0.1008 0.70327 0.70006 0.0
H3539 H 0.11596 0.69651 0.69145 0.0
H3540 H 0.10478 0.73266 0.71188 0.0
H3541 H 0.08907 0.69626 0.72792 0.0
H3542 H 0.1019 0.69729 0.72275 0.0
H3543 H 0.09099 0.69581 0.71428 0.0
C3544 C 0.12804 0.71224 0.7087 0.0
C3545 C 0.127 0.70511 0.70065 0.0
C3546 C 0.11936 0.71603 0.71367 0.0
C3547 C 0.10943 0.71278 0.71072 0.0
C3548 C 0.10836 0.70569 0.70267 0.0
H3549 H 0.04737 0.7308 0.72656 0.0
H3550 H 0.06277 0.72345 0.71885 0.0
C3551 C 0.11705 0.70184 0.69774 0.0
C3552 C 0.10022 0.71717 0.71575 0.0
H3553 H 0.07811 0.7108 0.72856 0.0
C3554 C 0.09899 0.72788 0.7156 0.0
C3555 C 0.09264 0.71094 0.72059 0.0
C3556 C 0.09374 0.69945 0.7215 0.0
C3557 C 0.09033 0.73249 0.71996 0.0
C3558 C 0.08273 0.72625 0.7247 0.0
C3559 C 0.08394 0.71556 0.72489 0.0
C3560 C 0.07342 0.73069 0.72947 0.0
C3561 C 0.08926 0.744 0.71925 0.0
C3562 C 0.07429 0.73711 0.73807 0.0
C3563 C 0.06551 0.74134 0.74249 0.0
C3564 C 0.05567 0.73923 0.73838 0.0
C3565 C 0.05483 0.7327 0.72982 0.0
C3566 C 0.06362 0.72844 0.72544 0.0
H3567 H 0.09451 0.74743 0.71342 0.0
H3568 H 0.08123 0.74611 0.71727 0.0
H3569 H 0.09119 0.74744 0.72681 0.0
H3570 H 0.08177 0.73884 0.74139 0.0
H3571 H 0.06643 0.74638 0.74903 0.0
H3572 H 0.80789 0.63033 0.69881 0.0
H3573 H 0.79889 0.61497 0.7052 0.0
H3574 H 0.82516 0.60753 0.72407 0.0
H3575 H 0.83431 0.62269 0.71757 0.0
H3576 H 0.80568 0.5936 0.70454 0.0
H3577 H 0.80029 0.60799 0.74427 0.0
H3578 H 0.80321 0.6164 0.73357 0.0
H3579 H 0.8132 0.60893 0.73944 0.0
C3580 C 0.81181 0.62537 0.70424 0.0
C3581 C 0.82182 0.6278 0.70772 0.0
C3582 C 0.80662 0.61663 0.70792 0.0
C3583 C 0.81131 0.61021 0.71522 0.0
C3584 C 0.82134 0.6125 0.71859 0.0
H3585 H 0.79496 0.55537 0.74931 0.0
H3586 H 0.80307 0.57081 0.74207 0.0
C3587 C 0.82654 0.6212 0.71489 0.0
C3588 C 0.80578 0.60105 0.71926 0.0
H3589 H 0.79605 0.59051 0.7413 0.0
C3590 C 0.8035 0.59293 0.71256 0.0
C3591 C 0.80299 0.60022 0.72973 0.0
C3592 C 0.80496 0.60887 0.73718 0.0
C3593 C 0.79875 0.58384 0.71611 0.0
C3594 C 0.79599 0.58298 0.7266 0.0
C3595 C 0.79818 0.59117 0.73327 0.0
C3596 C 0.79101 0.57359 0.73089 0.0
C3597 C 0.79702 0.57514 0.70866 0.0
C3598 C 0.78147 0.57008 0.7271 0.0
C3599 C 0.77682 0.56124 0.73122 0.0
C3600 C 0.78157 0.55581 0.73929 0.0
C3601 C 0.79106 0.55943 0.74316 0.0
C3602 C 0.79572 0.56823 0.739 0.0
H3603 H 0.80198 0.57595 0.70176 0.0
H3604 H 0.79857 0.56761 0.71237 0.0
H3605 H 0.78888 0.57514 0.70603 0.0
H3606 H 0.77756 0.57423 0.72102 0.0
H3607 H 0.76944 0.55874 0.72818 0.0
H3608 H 0.90283 0.32328 0.69152 0.0
H3609 H 0.91802 0.31646 0.70031 0.0
H3610 H 0.89841 0.29899 0.72073 0.0
H3611 H 0.8832 0.3057 0.71192 0.0
H3612 H 0.92452 0.31762 0.72033 0.0
H3613 H 0.91714 0.27695 0.7099 0.0
H3614 H 0.91026 0.28742 0.70401 0.0
H3615 H 0.90665 0.28275 0.71654 0.0
C3616 C 0.90175 0.31804 0.69793 0.0
C3617 C 0.89179 0.31497 0.70097 0.0
C3618 C 0.91044 0.31412 0.70293 0.0
C3619 C 0.90937 0.30704 0.71105 0.0
C3620 C 0.89945 0.3042 0.71429 0.0
H3621 H 0.95295 0.27471 0.75038 0.0
H3622 H 0.93757 0.28226 0.74258 0.0
C3623 C 0.89075 0.30807 0.70927 0.0
C3624 C 0.91865 0.30269 0.71614 0.0
H3625 H 0.93067 0.28012 0.72183 0.0
C3626 C 0.92588 0.30943 0.72062 0.0
C3627 C 0.92044 0.29198 0.71652 0.0
C3628 C 0.91327 0.28435 0.71141 0.0
C3629 C 0.93476 0.30575 0.72559 0.0
C3630 C 0.93652 0.29506 0.72599 0.0
C3631 C 0.92928 0.28831 0.72155 0.0
C3632 C 0.94589 0.2907 0.73085 0.0
C3633 C 0.9421 0.31334 0.73052 0.0
C3634 C 0.95567 0.29287 0.72679 0.0
C3635 C 0.96447 0.28857 0.73123 0.0
C3636 C 0.96368 0.282 0.73982 0.0
C3637 C 0.95385 0.27984 0.74386 0.0
C3638 C 0.94505 0.2841 0.73938 0.0
H3639 H 0.93846 0.32091 0.73173 0.0
H3640 H 0.94494 0.31039 0.73803 0.0
H3641 H 0.94884 0.31452 0.72543 0.0
H3642 H 0.95649 0.29781 0.72011 0.0
H3643 H 0.97191 0.29047 0.72797 0.0
H3644 H 0.18739 0.39543 0.71855 0.0
H3645 H 0.19643 0.41062 0.72506 0.0
H3646 H 0.22089 0.40588 0.7034 0.0
H3647 H 0.21202 0.3905 0.69696 0.0
H3648 H 0.2171 0.41148 0.73353 0.0
H3649 H 0.21235 0.43637 0.69897 0.0
H3650 H 0.20447 0.42506 0.70119 0.0
H3651 H 0.21746 0.42379 0.6968 0.0
C3652 C 0.19474 0.39753 0.71521 0.0
C3653 C 0.19897 0.39168 0.70723 0.0
C3654 C 0.19986 0.40627 0.71891 0.0
C3655 C 0.20928 0.40943 0.71465 0.0
C3656 C 0.21354 0.40366 0.70668 0.0
H3657 H 0.24908 0.46234 0.72765 0.0
H3658 H 0.24148 0.44658 0.72062 0.0
C3659 C 0.20844 0.39488 0.703 0.0
C3660 C 0.21471 0.41862 0.71876 0.0
H3661 H 0.22224 0.44312 0.71268 0.0
C3662 C 0.21823 0.41841 0.72898 0.0
C3663 C 0.21623 0.42761 0.71278 0.0
C3664 C 0.21238 0.42832 0.70184 0.0
C3665 C 0.22328 0.42692 0.73338 0.0
C3666 C 0.2246 0.43601 0.72748 0.0
C3667 C 0.2212 0.43617 0.71721 0.0
C3668 C 0.22931 0.44548 0.73188 0.0
C3669 C 0.22729 0.42603 0.74425 0.0
C3670 C 0.22495 0.45018 0.74049 0.0
C3671 C 0.22935 0.45912 0.7446 0.0
C3672 C 0.23814 0.46365 0.74013 0.0
C3673 C 0.24242 0.45898 0.73142 0.0
C3674 C 0.23804 0.45001 0.72733 0.0
H3675 H 0.22847 0.41789 0.74652 0.0
H3676 H 0.23469 0.43029 0.74521 0.0
H3677 H 0.22159 0.42933 0.7496 0.0
H3678 H 0.2181 0.44696 0.74401 0.0
H3679 H 0.22588 0.46242 0.75136 0.0
H3680 H 0.12778 0.29873 0.33111 0.0
H3681 H 0.11252 0.29235 0.32201 0.0
H3682 H 0.11037 0.32103 0.30549 0.0
H3683 H 0.12552 0.3276 0.31472 0.0
H3684 H 0.09234 0.30166 0.32163 0.0
H3685 H 0.10967 0.29852 0.28276 0.0
H3686 H 0.11738 0.29934 0.29434 0.0
H3687 H 0.11142 0.31062 0.28917 0.0
C3688 C 0.12403 0.30374 0.32561 0.0
C3689 C 0.12789 0.3137 0.32367 0.0
C3690 C 0.11534 0.30004 0.32037 0.0
C3691 C 0.11039 0.30618 0.31301 0.0
C3692 C 0.11419 0.31611 0.31102 0.0
H3693 H 0.05694 0.29474 0.27367 0.0
H3694 H 0.07218 0.30215 0.28211 0.0
C3695 C 0.12286 0.31984 0.31629 0.0
C3696 C 0.10109 0.30223 0.30763 0.0
H3697 H 0.0919 0.29483 0.28413 0.0
C3698 C 0.09223 0.30015 0.31343 0.0
C3699 C 0.10097 0.30035 0.29693 0.0
C3700 C 0.11037 0.30224 0.2904 0.0
C3701 C 0.08321 0.29629 0.30881 0.0
C3702 C 0.08314 0.2942 0.29813 0.0
C3703 C 0.09197 0.29641 0.29231 0.0
C3704 C 0.07402 0.28961 0.29291 0.0
C3705 C 0.07378 0.29465 0.31538 0.0
C3706 C 0.07012 0.28 0.29604 0.0
C3707 C 0.06143 0.27575 0.29124 0.0
C3708 C 0.05652 0.28097 0.28313 0.0
C3709 C 0.06059 0.29049 0.27984 0.0
C3710 C 0.06926 0.29475 0.28468 0.0
H3711 H 0.07415 0.29934 0.32249 0.0
H3712 H 0.06666 0.29662 0.31108 0.0
H3713 H 0.07327 0.28646 0.31771 0.0
H3714 H 0.07383 0.27576 0.30218 0.0
H3715 H 0.05861 0.26832 0.29382 0.0
H3716 H 0.22141 0.63223 0.32084 0.0
H3717 H 0.22795 0.61713 0.31205 0.0
H3718 H 0.19726 0.60428 0.31065 0.0
H3719 H 0.19064 0.61935 0.31953 0.0
H3720 H 0.22695 0.59685 0.31859 0.0
H3721 H 0.20719 0.60159 0.28094 0.0
H3722 H 0.20817 0.61181 0.29023 0.0
H3723 H 0.19879 0.6017 0.29186 0.0
C3724 C 0.21603 0.62619 0.31869 0.0
C3725 C 0.20549 0.62702 0.32092 0.0
C3726 C 0.21979 0.61758 0.31361 0.0
C3727 C 0.21309 0.60961 0.31059 0.0
C3728 C 0.20255 0.61042 0.31272 0.0
H3729 H 0.23107 0.54727 0.29532 0.0
H3730 H 0.22384 0.56257 0.3032 0.0
C3731 C 0.19877 0.61905 0.3178 0.0
C3732 C 0.21725 0.6003 0.30558 0.0
H3733 H 0.21607 0.58596 0.28366 0.0
C3734 C 0.22458 0.59448 0.31095 0.0
C3735 C 0.21423 0.59726 0.29557 0.0
C3736 C 0.20674 0.60345 0.28925 0.0
C3737 C 0.22889 0.58566 0.30663 0.0
C3738 C 0.22569 0.58247 0.29672 0.0
C3739 C 0.21845 0.58836 0.29129 0.0
C3740 C 0.22989 0.57314 0.2918 0.0
C3741 C 0.23698 0.57992 0.31264 0.0
C3742 C 0.2355 0.57396 0.28264 0.0
C3743 C 0.23968 0.56522 0.27812 0.0
C3744 C 0.23828 0.55546 0.28264 0.0
C3745 C 0.23249 0.55467 0.29173 0.0
C3746 C 0.22832 0.56341 0.29625 0.0
H3747 H 0.24037 0.58469 0.31888 0.0
H3748 H 0.23342 0.57299 0.3162 0.0
H3749 H 0.24327 0.57738 0.30752 0.0
H3750 H 0.2368 0.58139 0.27907 0.0
H3751 H 0.24418 0.56615 0.27118 0.0
H3752 H 0.89293 0.68957 0.3021 0.0
H3753 H 0.90817 0.69857 0.29563 0.0
H3754 H 0.90827 0.71819 0.32223 0.0
H3755 H 0.89328 0.70891 0.32902 0.0
H3756 H 0.91078 0.7187 0.29044 0.0
H3757 H 0.93775 0.70846 0.32201 0.0
H3758 H 0.9254 0.7022 0.3204 0.0
H3759 H 0.92628 0.71466 0.32626 0.0
C3760 C 0.89628 0.69568 0.30669 0.0
C3761 C 0.8919 0.69842 0.31615 0.0
C3762 C 0.90495 0.70088 0.30292 0.0
C3763 C 0.90948 0.70895 0.30851 0.0
C3764 C 0.90505 0.71184 0.31788 0.0
H3765 H 0.96187 0.74948 0.29542 0.0
H3766 H 0.94646 0.74137 0.30275 0.0
C3767 C 0.89639 0.70661 0.32168 0.0
C3768 C 0.91869 0.71443 0.30439 0.0
H3769 H 0.94385 0.72045 0.30962 0.0
C3770 C 0.91802 0.71906 0.29463 0.0
C3771 C 0.92813 0.71492 0.30987 0.0
C3772 C 0.9295 0.70972 0.32017 0.0
C3773 C 0.92649 0.72419 0.29023 0.0
C3774 C 0.93593 0.72462 0.29567 0.0
C3775 C 0.93659 0.72012 0.30547 0.0
C3776 C 0.94528 0.72952 0.29121 0.0
C3777 C 0.92524 0.72923 0.27982 0.0
C3778 C 0.94981 0.72546 0.28237 0.0
C3779 C 0.95867 0.73001 0.27821 0.0
C3780 C 0.96321 0.73872 0.28281 0.0
C3781 C 0.95867 0.74272 0.29173 0.0
C3782 C 0.94982 0.73813 0.2959 0.0
H3783 H 0.91701 0.73038 0.27782 0.0
H3784 H 0.9293 0.73677 0.27957 0.0
H3785 H 0.92865 0.72425 0.27387 0.0
H3786 H 0.94655 0.71869 0.27874 0.0
H3787 H 0.96205 0.72658 0.27147 0.0
H3788 H 0.8229 0.40082 0.32825 0.0
H3789 H 0.81384 0.41611 0.32217 0.0
H3790 H 0.80861 0.4017 0.29281 0.0
H3791 H 0.81741 0.38631 0.2989 0.0
H3792 H 0.81902 0.42868 0.30545 0.0
H3793 H 0.77992 0.41186 0.30048 0.0
H3794 H 0.78987 0.4056 0.30786 0.0
H3795 H 0.78983 0.40488 0.29406 0.0
C3796 C 0.81968 0.40083 0.32056 0.0
C3797 C 0.82088 0.39231 0.31408 0.0
C3798 C 0.81456 0.40961 0.31707 0.0
C3799 C 0.81044 0.41001 0.30707 0.0
C3800 C 0.81158 0.40151 0.3006 0.0
H3801 H 0.79455 0.46331 0.27033 0.0
H3802 H 0.80242 0.44807 0.27794 0.0
C3803 C 0.81671 0.39275 0.30407 0.0
C3804 C 0.80534 0.41946 0.30325 0.0
H3805 H 0.78281 0.42846 0.29318 0.0
C3806 C 0.81109 0.42864 0.30282 0.0
C3807 C 0.79495 0.41944 0.29993 0.0
C3808 C 0.78823 0.40995 0.30068 0.0
C3809 C 0.80681 0.43774 0.29892 0.0
C3810 C 0.79655 0.43763 0.29522 0.0
C3811 C 0.79071 0.42851 0.29591 0.0
C3812 C 0.79174 0.44689 0.2906 0.0
C3813 C 0.81329 0.44743 0.29888 0.0
C3814 C 0.78297 0.45117 0.29505 0.0
C3815 C 0.77845 0.45991 0.29073 0.0
C3816 C 0.78257 0.46452 0.28181 0.0
C3817 C 0.79128 0.4601 0.27731 0.0
C3818 C 0.7958 0.45138 0.28164 0.0
H3819 H 0.81987 0.4469 0.30434 0.0
H3820 H 0.81646 0.4487 0.29106 0.0
H3821 H 0.80862 0.4542 0.30091 0.0
H3822 H 0.77969 0.44782 0.30195 0.0
H3823 H 0.77182 0.46314 0.29448 0.0
H3824 H 0.21074 0.63481 0.71055 0.0
H3825 H 0.21987 0.61982 0.71726 0.0
H3826 H 0.19529 0.60003 0.70656 0.0
H3827 H 0.18621 0.61493 0.69966 0.0
H3828 H 0.21238 0.60557 0.7322 0.0
H3829 H 0.22142 0.58636 0.69538 0.0
H3830 H 0.21777 0.59968 0.69603 0.0
H3831 H 0.20814 0.58971 0.69689 0.0
C3832 C 0.20735 0.62725 0.70947 0.0
C3833 C 0.19775 0.62607 0.70454 0.0
C3834 C 0.21255 0.6187 0.71337 0.0
C3835 C 0.20832 0.60879 0.71231 0.0
C3836 C 0.19878 0.60758 0.70733 0.0
H3837 H 0.2247 0.54738 0.7319 0.0
H3838 H 0.2167 0.56267 0.72453 0.0
C3839 C 0.19355 0.61612 0.70347 0.0
C3840 C 0.21366 0.59978 0.7168 0.0
H3841 H 0.22441 0.5768 0.71068 0.0
C3842 C 0.21508 0.59931 0.7275 0.0
C3843 C 0.21713 0.5916 0.71065 0.0
C3844 C 0.21613 0.59185 0.69909 0.0
C3845 C 0.21966 0.59077 0.73224 0.0
C3846 C 0.22312 0.58256 0.7261 0.0
C3847 C 0.22176 0.58307 0.71539 0.0
C3848 C 0.22805 0.57332 0.73064 0.0
C3849 C 0.22046 0.59048 0.74382 0.0
C3850 C 0.23716 0.57418 0.73644 0.0
C3851 C 0.2417 0.56546 0.74077 0.0
C3852 C 0.23727 0.55565 0.73931 0.0
C3853 C 0.22823 0.55481 0.73335 0.0
C3854 C 0.22368 0.56354 0.72905 0.0
H3855 H 0.21505 0.5959 0.74745 0.0
H3856 H 0.21885 0.58263 0.74684 0.0
H3857 H 0.22839 0.59272 0.74617 0.0
H3858 H 0.24079 0.58162 0.73761 0.0
H3859 H 0.24861 0.56643 0.74536 0.0
H3860 H 0.19532 0.40102 0.32668 0.0
H3861 H 0.20418 0.41635 0.32002 0.0
H3862 H 0.21386 0.39933 0.29349 0.0
H3863 H 0.20496 0.38402 0.30004 0.0
H3864 H 0.22449 0.41995 0.31528 0.0
H3865 H 0.20014 0.42399 0.28036 0.0
H3866 H 0.19673 0.41552 0.29086 0.0
H3867 H 0.20607 0.41165 0.28152 0.0
C3868 C 0.19939 0.40053 0.31945 0.0
C3869 C 0.19937 0.39133 0.31384 0.0
C3870 C 0.20442 0.4093 0.31565 0.0
C3871 C 0.20951 0.40905 0.30616 0.0
C3872 C 0.20974 0.39979 0.30068 0.0
H3873 H 0.24461 0.45336 0.27018 0.0
H3874 H 0.23658 0.43787 0.2774 0.0
C3875 C 0.20467 0.39104 0.30445 0.0
C3876 C 0.21461 0.41844 0.30202 0.0
H3877 H 0.215 0.43473 0.28134 0.0
C3878 C 0.22239 0.42322 0.30788 0.0
C3879 C 0.21184 0.4227 0.29237 0.0
C3880 C 0.20317 0.41827 0.28595 0.0
C3881 C 0.22759 0.43202 0.30427 0.0
C3882 C 0.22488 0.43621 0.29459 0.0
C3883 C 0.2171 0.43146 0.28874 0.0
C3884 C 0.22994 0.44559 0.29042 0.0
C3885 C 0.23609 0.43668 0.31075 0.0
C3886 C 0.22879 0.45508 0.29531 0.0
C3887 C 0.23328 0.46397 0.29116 0.0
C3888 C 0.239 0.46355 0.28201 0.0
C3889 C 0.24015 0.454 0.27715 0.0
C3890 C 0.23562 0.44512 0.2813 0.0
H3891 H 0.2388 0.43128 0.3168 0.0
H3892 H 0.24274 0.439 0.30589 0.0
H3893 H 0.23319 0.44366 0.31458 0.0
H3894 H 0.22426 0.45563 0.30225 0.0
H3895 H 0.23207 0.47121 0.295 0.0
H3896 H 0.11545 0.68346 0.31583 0.0
H3897 H 0.10051 0.6927 0.30919 0.0
H3898 H 0.11854 0.72066 0.30786 0.0
H3899 H 0.1336 0.71143 0.31427 0.0
H3900 H 0.09038 0.71002 0.31721 0.0
H3901 H 0.10666 0.7179 0.27851 0.0
H3902 H 0.11209 0.70856 0.28722 0.0
H3903 H 0.11458 0.72201 0.28911 0.0
C3904 C 0.11627 0.69156 0.31406 0.0
C3905 C 0.12577 0.69668 0.31551 0.0
C3906 C 0.1077 0.69685 0.31033 0.0
C3907 C 0.10844 0.70734 0.3079 0.0
C3908 C 0.11783 0.71253 0.30954 0.0
H3909 H 0.05716 0.74853 0.29532 0.0
H3910 H 0.07223 0.74006 0.30269 0.0
C3911 C 0.12641 0.70726 0.3133 0.0
C3912 C 0.09938 0.7128 0.30361 0.0
H3913 H 0.09061 0.7254 0.28223 0.0
C3914 C 0.09043 0.7134 0.30957 0.0
C3915 C 0.09942 0.7171 0.29359 0.0
C3916 C 0.10866 0.71631 0.28667 0.0
C3917 C 0.08155 0.71826 0.30582 0.0
C3918 C 0.08165 0.72272 0.29588 0.0
C3919 C 0.09057 0.72205 0.28988 0.0
C3920 C 0.07249 0.7279 0.29144 0.0
C3921 C 0.07205 0.71838 0.31244 0.0
C3922 C 0.06773 0.72399 0.28255 0.0
C3923 C 0.05909 0.72879 0.27833 0.0
C3924 C 0.05505 0.73766 0.28287 0.0
C3925 C 0.05993 0.74161 0.29172 0.0
C3926 C 0.06856 0.73679 0.29595 0.0
H3927 H 0.07246 0.71265 0.31879 0.0
H3928 H 0.07128 0.7261 0.31591 0.0
H3929 H 0.06504 0.7168 0.30777 0.0
H3930 H 0.07064 0.71714 0.27894 0.0
H3931 H 0.05548 0.72544 0.2716 0.0
H3932 H 0.8219 0.63052 0.31006 0.0
H3933 H 0.81551 0.61523 0.30105 0.0
H3934 H 0.79544 0.60818 0.32646 0.0
H3935 H 0.8019 0.62327 0.33562 0.0
H3936 H 0.81557 0.59406 0.30789 0.0
H3937 H 0.77607 0.6085 0.301 0.0
H3938 H 0.78673 0.61686 0.30439 0.0
H3939 H 0.78044 0.60925 0.31411 0.0
C3940 C 0.8162 0.62567 0.31379 0.0
C3941 C 0.81237 0.6282 0.32356 0.0
C3942 C 0.81252 0.61697 0.3086 0.0
C3943 C 0.80489 0.61067 0.31302 0.0
C3944 C 0.80117 0.61306 0.32282 0.0
H3945 H 0.77081 0.55576 0.29629 0.0
H3946 H 0.77798 0.57115 0.30445 0.0
C3947 C 0.80486 0.62172 0.32803 0.0
C3948 C 0.80088 0.60151 0.30748 0.0
H3949 H 0.77895 0.59098 0.29724 0.0
C3950 C 0.80758 0.59339 0.30549 0.0
C3951 C 0.79045 0.60067 0.30438 0.0
C3952 C 0.783 0.60931 0.30598 0.0
C3953 C 0.80407 0.58432 0.30074 0.0
C3954 C 0.79361 0.58345 0.29769 0.0
C3955 C 0.78695 0.59163 0.29959 0.0
C3956 C 0.78937 0.57407 0.29268 0.0
C3957 C 0.81151 0.57564 0.29932 0.0
C3958 C 0.7933 0.57064 0.28328 0.0
C3959 C 0.78921 0.56184 0.27859 0.0
C3960 C 0.78103 0.55634 0.28315 0.0
C3961 C 0.77704 0.55986 0.29251 0.0
C3962 C 0.78116 0.56864 0.29721 0.0
H3963 H 0.81834 0.57644 0.30445 0.0
H3964 H 0.80774 0.5681 0.30087 0.0
H3965 H 0.81426 0.57568 0.29126 0.0
H3966 H 0.79946 0.57484 0.2795 0.0
H3967 H 0.79234 0.55943 0.2713 0.0
H3968 H 0.895 0.32789 0.31113 0.0
H3969 H 0.90977 0.32104 0.30188 0.0
H3970 H 0.90908 0.29401 0.32114 0.0
H3971 H 0.89411 0.30057 0.33014 0.0
H3972 H 0.92897 0.31596 0.30928 0.0
H3973 H 0.90981 0.28161 0.29264 0.0
H3974 H 0.9027 0.29199 0.29824 0.0
H3975 H 0.90845 0.28236 0.30634 0.0
C3976 C 0.89789 0.32042 0.3133 0.0
C3977 C 0.89332 0.31478 0.32138 0.0
C3978 C 0.90638 0.31655 0.30805 0.0
C3979 C 0.91044 0.30694 0.3107 0.0
C3980 C 0.90596 0.30134 0.3188 0.0
H3981 H 0.96243 0.27001 0.29357 0.0
H3982 H 0.94719 0.27754 0.30135 0.0
C3983 C 0.89747 0.30518 0.32404 0.0
C3984 C 0.91955 0.30287 0.30523 0.0
H3985 H 0.92814 0.28215 0.29187 0.0
C3986 C 0.92877 0.30861 0.30539 0.0
C3987 C 0.91929 0.29328 0.30015 0.0
C3988 C 0.90951 0.28699 0.29923 0.0
C3989 C 0.9378 0.30488 0.30088 0.0
C3990 C 0.93757 0.29521 0.29596 0.0
C3991 C 0.92832 0.28954 0.29569 0.0
C3992 C 0.94688 0.29075 0.29121 0.0
C3993 C 0.94758 0.31118 0.30169 0.0
C3994 C 0.95172 0.29562 0.28285 0.0
C3995 C 0.96047 0.29135 0.27841 0.0
C3996 C 0.96455 0.28211 0.28222 0.0
C3997 C 0.9596 0.27721 0.29054 0.0
C3998 C 0.95084 0.28147 0.29496 0.0
H3999 H 0.94706 0.31718 0.30769 0.0
H4000 H 0.95426 0.30621 0.30348 0.0
H4001 H 0.94906 0.31506 0.29421 0.0
H4002 H 0.94869 0.3027 0.27972 0.0
H4003 H 0.96411 0.29537 0.27206 0.0
H4004 H 0.81063 0.38485 0.71456 0.0
H4005 H 0.80181 0.39989 0.72133 0.0
H4006 H 0.82053 0.4197 0.70225 0.0
H4007 H 0.82929 0.4047 0.69533 0.0
H4008 H 0.81157 0.41704 0.73173 0.0
H4009 H 0.79051 0.429 0.69643 0.0
H4010 H 0.79563 0.41626 0.6981 0.0
H4011 H 0.80404 0.42681 0.69486 0.0
C4012 C 0.81277 0.3924 0.71169 0.0
C4013 C 0.82065 0.39357 0.70438 0.0
C4014 C 0.80776 0.40098 0.71561 0.0
C4015 C 0.81044 0.4109 0.71222 0.0
C4016 C 0.81825 0.4121 0.70488 0.0
H4017 H 0.79048 0.47255 0.72687 0.0
H4018 H 0.79851 0.45733 0.71959 0.0
C4019 C 0.82331 0.40353 0.701 0.0
C4020 C 0.80535 0.42001 0.71666 0.0
H4021 H 0.79003 0.44033 0.7106 0.0
C4022 C 0.80682 0.42211 0.72714 0.0
C4023 C 0.79921 0.42663 0.71062 0.0
C4024 C 0.79715 0.42456 0.69939 0.0
C4025 C 0.80246 0.43079 0.73172 0.0
C4026 C 0.79625 0.4374 0.7257 0.0
C4027 C 0.79478 0.43527 0.71521 0.0
C4028 C 0.79126 0.4466 0.73013 0.0
C4029 C 0.80481 0.43293 0.74288 0.0
C4030 C 0.78438 0.44564 0.73838 0.0
C4031 C 0.7798 0.45434 0.74258 0.0
C4032 C 0.78189 0.46417 0.73853 0.0
C4033 C 0.78864 0.46509 0.73013 0.0
C4034 C 0.79326 0.4564 0.72598 0.0
H4035 H 0.81187 0.42895 0.74551 0.0
H4036 H 0.80582 0.44129 0.74425 0.0
H4037 H 0.79831 0.4301 0.74767 0.0
H4038 H 0.78249 0.43815 0.74155 0.0
H4039 H 0.7745 0.45334 0.74892 0.0
H4040 H 0.1256 0.32702 0.70862 0.0
H4041 H 0.11077 0.32023 0.71811 0.0
H4042 H 0.11128 0.29267 0.69991 0.0
H4043 H 0.12634 0.29917 0.69072 0.0
H4044 H 0.09159 0.31471 0.71103 0.0
H4045 H 0.11045 0.28101 0.7288 0.0
H4046 H 0.11765 0.2913 0.72276 0.0
H4047 H 0.11173 0.28139 0.71508 0.0
C4048 C 0.12266 0.31945 0.70674 0.0
C4049 C 0.12722 0.31364 0.69891 0.0
C4050 C 0.11413 0.31561 0.71213 0.0
C4051 C 0.11001 0.30586 0.70985 0.0
C4052 C 0.11446 0.30011 0.70197 0.0
H4053 H 0.05735 0.26916 0.72817 0.0
H4054 H 0.07273 0.27659 0.72012 0.0
C4055 C 0.12299 0.30391 0.69661 0.0
C4056 C 0.10088 0.30182 0.71548 0.0
H4057 H 0.09212 0.28136 0.72963 0.0
C4058 C 0.09173 0.30747 0.71518 0.0
C4059 C 0.10106 0.29237 0.72091 0.0
C4060 C 0.11078 0.28621 0.72201 0.0
C4061 C 0.0827 0.30377 0.71989 0.0
C4062 C 0.08285 0.29423 0.72514 0.0
C4063 C 0.09202 0.28865 0.72556 0.0
C4064 C 0.07352 0.28981 0.73009 0.0
C4065 C 0.07299 0.30996 0.71897 0.0
C4066 C 0.06893 0.29472 0.73845 0.0
C4067 C 0.06012 0.29051 0.74306 0.0
C4068 C 0.05574 0.28129 0.7394 0.0
C4069 C 0.06044 0.27634 0.73109 0.0
C4070 C 0.06926 0.28054 0.72651 0.0
H4071 H 0.07358 0.31593 0.71286 0.0
H4072 H 0.06627 0.30489 0.71726 0.0
H4073 H 0.07153 0.31385 0.72638 0.0
H4074 H 0.07218 0.30181 0.74143 0.0
H4075 H 0.05666 0.29455 0.74941 0.0
H4076 H 0.88922 0.69794 0.71235 0.0
H4077 H 0.90466 0.70445 0.72114 0.0
H4078 H 0.91024 0.72555 0.6961 0.0
H4079 H 0.89502 0.71894 0.68711 0.0
H4080 H 0.92581 0.70535 0.71306 0.0
H4081 H 0.91013 0.74363 0.72267 0.0
H4082 H 0.90199 0.73278 0.71941 0.0
H4083 H 0.90865 0.73977 0.70948 0.0
C4084 C 0.89378 0.7039 0.70865 0.0
C4085 C 0.89082 0.70794 0.69903 0.0
C4086 C 0.90256 0.70764 0.71372 0.0
C4087 C 0.90849 0.71557 0.70932 0.0
C4088 C 0.90565 0.71956 0.6997 0.0
H4089 H 0.9626 0.75103 0.72568 0.0
H4090 H 0.94714 0.74364 0.71778 0.0
C4091 C 0.89692 0.71579 0.6946 0.0
C4092 C 0.91776 0.71959 0.7147 0.0
H4093 H 0.92792 0.74118 0.72574 0.0
C4094 C 0.92628 0.71316 0.71591 0.0
C4095 C 0.91832 0.72978 0.71835 0.0
C4096 C 0.90927 0.7369 0.71751 0.0
C4097 C 0.93547 0.71675 0.72044 0.0
C4098 C 0.93605 0.72697 0.72407 0.0
C4099 C 0.92747 0.73335 0.72295 0.0
C4100 C 0.94554 0.73129 0.72887 0.0
C4101 C 0.94457 0.70966 0.72098 0.0
C4102 C 0.94973 0.72687 0.73779 0.0
C4103 C 0.95867 0.731 0.74226 0.0
C4104 C 0.96353 0.73971 0.73796 0.0
C4105 C 0.95919 0.74421 0.7291 0.0
C4106 C 0.95029 0.74004 0.72462 0.0
H4107 H 0.94378 0.70322 0.71544 0.0
H4108 H 0.95186 0.71388 0.71936 0.0
H4109 H 0.9451 0.70631 0.72882 0.0
H4110 H 0.94608 0.72024 0.74134 0.0
H4111 H 0.96182 0.72728 0.74903 0.0
H4112 H 0.7169 0.18696 0.62444 0.0
H4113 H 0.7234 0.19575 0.60914 0.0
H4114 H 0.70063 0.21927 0.61271 0.0
H4115 H 0.69434 0.21075 0.62832 0.0
H4116 H 0.71367 0.20021 0.59105 0.0
H4117 H 0.72682 0.23625 0.60985 0.0
H4118 H 0.72336 0.22487 0.61708 0.0
H4119 H 0.71352 0.23308 0.61198 0.0
C4120 C 0.71336 0.19409 0.6221 0.0
C4121 C 0.70515 0.19819 0.62772 0.0
C4122 C 0.71704 0.19907 0.61328 0.0
C4123 C 0.71263 0.20827 0.60986 0.0
C4124 C 0.70431 0.2123 0.61532 0.0
H4125 H 0.72606 0.24746 0.55668 0.0
H4126 H 0.71842 0.23957 0.57201 0.0
C4127 C 0.70063 0.20734 0.62418 0.0
C4128 C 0.71666 0.21348 0.60047 0.0
H4129 H 0.72769 0.23579 0.59167 0.0
C4130 C 0.71675 0.20798 0.5912 0.0
C4131 C 0.72066 0.22364 0.60064 0.0
C4132 C 0.72119 0.22979 0.61043 0.0
C4133 C 0.72068 0.21237 0.58212 0.0
C4134 C 0.72477 0.22248 0.58232 0.0
C4135 C 0.72455 0.22804 0.59154 0.0
C4136 C 0.72949 0.22734 0.57309 0.0
C4137 C 0.72033 0.20619 0.57234 0.0
C4138 C 0.73836 0.22319 0.56871 0.0
C4139 C 0.74281 0.22772 0.56001 0.0
C4140 C 0.7385 0.23654 0.55549 0.0
C4141 C 0.72967 0.24076 0.56 0.0
C4142 C 0.72525 0.23622 0.56873 0.0
H4143 H 0.7147 0.19972 0.57285 0.0
H4144 H 0.71828 0.2111 0.56565 0.0
H4145 H 0.72804 0.20292 0.57093 0.0
H4146 H 0.7419 0.21646 0.57208 0.0
H4147 H 0.74971 0.22438 0.55689 0.0
H4148 H 0.30252 0.18568 0.62339 0.0
H4149 H 0.29614 0.19503 0.60836 0.0
H4150 H 0.31544 0.22097 0.61624 0.0
H4151 H 0.32171 0.21178 0.63145 0.0
H4152 H 0.28613 0.21497 0.6085 0.0
H4153 H 0.3221 0.21477 0.58546 0.0
H4154 H 0.31987 0.20596 0.59601 0.0
H4155 H 0.32327 0.2191 0.59853 0.0
C4156 C 0.30536 0.1934 0.622 0.0
C4157 C 0.31263 0.19797 0.62867 0.0
C4158 C 0.30175 0.19871 0.61336 0.0
C4159 C 0.30539 0.20864 0.61115 0.0
C4160 C 0.31266 0.21324 0.61773 0.0
H4161 H 0.29179 0.25065 0.56045 0.0
H4162 H 0.29882 0.24256 0.57598 0.0
C4163 C 0.31625 0.20796 0.62641 0.0
C4164 C 0.30134 0.21427 0.60209 0.0
H4165 H 0.30803 0.22384 0.57853 0.0
C4166 C 0.29091 0.21692 0.60194 0.0
C4167 C 0.30762 0.21685 0.5936 0.0
C4168 C 0.31883 0.21398 0.59331 0.0
C4169 C 0.28657 0.22212 0.59351 0.0
C4170 C 0.29279 0.2245 0.5849 0.0
C4171 C 0.30327 0.22198 0.58512 0.0
C4172 C 0.28851 0.22941 0.5755 0.0
C4173 C 0.27541 0.22516 0.594 0.0
C4174 C 0.28049 0.22463 0.56998 0.0
C4175 C 0.27646 0.22923 0.56113 0.0
C4176 C 0.28044 0.23866 0.55753 0.0
C4177 C 0.2886 0.24336 0.56298 0.0
C4178 C 0.2926 0.23876 0.57187 0.0
H4179 H 0.27268 0.22557 0.60207 0.0
H4180 H 0.27416 0.23271 0.59023 0.0
H4181 H 0.27064 0.21931 0.58996 0.0
H4182 H 0.2774 0.21727 0.57247 0.0
H4183 H 0.27032 0.22531 0.557 0.0
H4184 H 0.32607 0.82582 0.61815 0.0
H4185 H 0.31959 0.81711 0.60272 0.0
H4186 H 0.29396 0.80493 0.62002 0.0
H4187 H 0.30035 0.81362 0.63543 0.0
H4188 H 0.31571 0.7966 0.59865 0.0
H4189 H 0.27961 0.81879 0.59593 0.0
H4190 H 0.29015 0.82254 0.60423 0.0
H4191 H 0.28135 0.81251 0.60812 0.0
C4192 C 0.3191 0.82122 0.61869 0.0
C4193 C 0.31368 0.8205 0.62802 0.0
C4194 C 0.31538 0.81628 0.60985 0.0
C4195 C 0.30617 0.81054 0.61015 0.0
C4196 C 0.30092 0.80955 0.61952 0.0
H4197 H 0.2703 0.77519 0.56596 0.0
H4198 H 0.27752 0.78332 0.58135 0.0
C4199 C 0.3046 0.81451 0.62834 0.0
C4200 C 0.30206 0.80557 0.60068 0.0
H4201 H 0.281 0.80445 0.58484 0.0
C4202 C 0.30814 0.79836 0.5956 0.0
C4203 C 0.29218 0.80787 0.59668 0.0
C4204 C 0.28548 0.81592 0.60145 0.0
C4205 C 0.30454 0.79323 0.58677 0.0
C4206 C 0.29464 0.79547 0.58284 0.0
C4207 C 0.28857 0.8027 0.58789 0.0
C4208 C 0.29041 0.79041 0.57347 0.0
C4209 C 0.31127 0.78528 0.58186 0.0
C4210 C 0.29518 0.79179 0.5639 0.0
C4211 C 0.29103 0.78721 0.55507 0.0
C4212 C 0.28198 0.78119 0.5556 0.0
C4213 C 0.2772 0.77986 0.56522 0.0
C4214 C 0.28135 0.78446 0.57404 0.0
H4215 H 0.31744 0.78266 0.58717 0.0
H4216 H 0.30663 0.7785 0.57939 0.0
H4217 H 0.31498 0.78867 0.57495 0.0
H4218 H 0.30204 0.79654 0.56323 0.0
H4219 H 0.29482 0.78856 0.54778 0.0
H4220 H 0.71117 0.80894 0.63617 0.0
H4221 H 0.71816 0.8002 0.62114 0.0
H4222 H 0.70772 0.82485 0.60159 0.0
H4223 H 0.70076 0.83364 0.61655 0.0
H4224 H 0.70888 0.79322 0.60327 0.0
H4225 H 0.73804 0.82333 0.59429 0.0
H4226 H 0.73116 0.82294 0.60631 0.0
H4227 H 0.72516 0.8281 0.59494 0.0
C4228 C 0.71029 0.81246 0.62865 0.0
C4229 C 0.70549 0.82204 0.62757 0.0
C4230 C 0.71433 0.80748 0.62008 0.0
C4231 C 0.71366 0.81197 0.61027 0.0
C4232 C 0.70859 0.82137 0.60912 0.0
H4233 H 0.73248 0.79547 0.54876 0.0
H4234 H 0.72512 0.80336 0.56403 0.0
C4235 C 0.70459 0.82638 0.61768 0.0
C4236 C 0.71823 0.80682 0.60122 0.0
H4237 H 0.73558 0.81026 0.58181 0.0
C4238 C 0.71476 0.79692 0.59861 0.0
C4239 C 0.72593 0.81164 0.59515 0.0
C4240 C 0.73037 0.82205 0.59785 0.0
C4241 C 0.7186 0.79181 0.58995 0.0
C4242 C 0.7262 0.79669 0.58383 0.0
C4243 C 0.72972 0.80656 0.58648 0.0
C4244 C 0.73059 0.79173 0.5746 0.0
C4245 C 0.7143 0.78134 0.58729 0.0
C4246 C 0.7362 0.78262 0.57547 0.0
C4247 C 0.74049 0.77812 0.56676 0.0
C4248 C 0.73929 0.78267 0.55698 0.0
C4249 C 0.73368 0.79182 0.55616 0.0
C4250 C 0.72941 0.79632 0.56488 0.0
H4251 H 0.70688 0.77975 0.59123 0.0
H4252 H 0.71309 0.78062 0.57886 0.0
H4253 H 0.71985 0.77539 0.58974 0.0
H4254 H 0.73739 0.77906 0.58293 0.0
H4255 H 0.7449 0.77117 0.56771 0.0
H4256 H 0.70312 0.83501 0.40478 0.0
H4257 H 0.70992 0.82587 0.41981 0.0
H4258 H 0.71659 0.79975 0.40085 0.0
H4259 H 0.70996 0.80889 0.38573 0.0
H4260 H 0.70338 0.80588 0.42791 0.0
H4261 H 0.74433 0.807 0.41564 0.0
H4262 H 0.73476 0.81541 0.4102 0.0
H4263 H 0.7352 0.80221 0.40636 0.0
C4264 C 0.7061 0.82734 0.40379 0.0
C4265 C 0.70606 0.8227 0.39405 0.0
C4266 C 0.70992 0.82212 0.41239 0.0
C4267 C 0.71386 0.81219 0.41141 0.0
C4268 C 0.7137 0.80746 0.40174 0.0
H4269 H 0.74428 0.77128 0.45485 0.0
H4270 H 0.73653 0.77909 0.43956 0.0
C4271 C 0.70982 0.81266 0.39314 0.0
C4272 C 0.71814 0.80681 0.42051 0.0
H4273 H 0.74051 0.79783 0.43087 0.0
C4274 C 0.7115 0.80411 0.42858 0.0
C4275 C 0.72871 0.80449 0.42131 0.0
C4276 C 0.73622 0.80748 0.41297 0.0
C4277 C 0.71514 0.79906 0.43742 0.0
C4278 C 0.72576 0.79688 0.43831 0.0
C4279 C 0.73238 0.79951 0.43018 0.0
C4280 C 0.73021 0.79202 0.44766 0.0
C4281 C 0.70755 0.79593 0.44563 0.0
C4282 C 0.72932 0.79674 0.45728 0.0
C4283 C 0.73364 0.79224 0.46606 0.0
C4284 C 0.73906 0.78297 0.46538 0.0
C4285 C 0.74003 0.77832 0.45569 0.0
C4286 C 0.73566 0.78281 0.44692 0.0
H4287 H 0.69959 0.79536 0.44251 0.0
H4288 H 0.7096 0.78843 0.44913 0.0
H4289 H 0.7076 0.8018 0.45177 0.0
H4290 H 0.72534 0.80396 0.45801 0.0
H4291 H 0.73266 0.796 0.47339 0.0
H4292 H 0.68816 0.21736 0.39399 0.0
H4293 H 0.69722 0.22389 0.40915 0.0
H4294 H 0.71691 0.19749 0.4091 0.0
H4295 H 0.70775 0.19075 0.39403 0.0
H4296 H 0.69958 0.21383 0.42873 0.0
H4297 H 0.73716 0.22239 0.41012 0.0
H4298 H 0.72543 0.22047 0.40283 0.0
H4299 H 0.73204 0.20965 0.40821 0.0
C4300 C 0.69435 0.21287 0.39723 0.0
C4301 C 0.69719 0.20349 0.39276 0.0
C4302 C 0.69957 0.21666 0.40587 0.0
C4303 C 0.70781 0.21124 0.41019 0.0
C4304 C 0.71069 0.20189 0.40578 0.0
H4305 H 0.74847 0.22459 0.46222 0.0
H4306 H 0.73991 0.21688 0.44729 0.0
C4307 C 0.70545 0.19806 0.39715 0.0
C4308 C 0.71318 0.21529 0.41945 0.0
H4309 H 0.73624 0.22484 0.42807 0.0
C4310 C 0.70759 0.21624 0.4286 0.0
C4311 C 0.72365 0.21837 0.41927 0.0
C4312 C 0.72994 0.21776 0.40958 0.0
C4313 C 0.7122 0.22015 0.43758 0.0
C4314 C 0.72263 0.22342 0.43736 0.0
C4315 C 0.72825 0.22235 0.42824 0.0
C4316 C 0.72779 0.22811 0.44647 0.0
C4317 C 0.7059 0.22053 0.44728 0.0
C4318 C 0.72392 0.23707 0.4509 0.0
C4319 C 0.72873 0.24144 0.45951 0.0
C4320 C 0.73761 0.23701 0.46382 0.0
C4321 C 0.74157 0.22812 0.45923 0.0
C4322 C 0.73672 0.22374 0.45064 0.0
H4323 H 0.69928 0.21506 0.447 0.0
H4324 H 0.71066 0.21874 0.45417 0.0
H4325 H 0.70278 0.22837 0.44818 0.0
H4326 H 0.71717 0.24072 0.44769 0.0
H4327 H 0.7254 0.24822 0.46286 0.0
H4328 H 0.30626 0.20035 0.3902 0.0
H4329 H 0.29735 0.20688 0.40533 0.0
H4330 H 0.32549 0.22137 0.41573 0.0
H4331 H 0.33449 0.21477 0.40075 0.0
H4332 H 0.30174 0.2039 0.42663 0.0
H4333 H 0.30452 0.24497 0.41527 0.0
H4334 H 0.30669 0.23466 0.40634 0.0
H4335 H 0.31659 0.23837 0.41533 0.0
C4336 C 0.31058 0.20484 0.39574 0.0
C4337 C 0.32109 0.2071 0.39419 0.0
C4338 C 0.30546 0.20861 0.40436 0.0
C4339 C 0.31071 0.21476 0.41156 0.0
C4340 C 0.32123 0.21684 0.41015 0.0
H4341 H 0.29382 0.23108 0.47375 0.0
H4342 H 0.30156 0.22387 0.45832 0.0
C4343 C 0.32636 0.21307 0.40156 0.0
C4344 C 0.30524 0.21895 0.42059 0.0
H4345 H 0.29875 0.2414 0.43224 0.0
C4346 C 0.30104 0.21209 0.42784 0.0
C4347 C 0.30422 0.22964 0.42209 0.0
C4348 C 0.30815 0.23736 0.41431 0.0
C4349 C 0.29607 0.21566 0.43669 0.0
C4350 C 0.29539 0.22636 0.43838 0.0
C4351 C 0.29937 0.2332 0.43099 0.0
C4352 C 0.2906 0.23062 0.44776 0.0
C4353 C 0.29151 0.20794 0.44412 0.0
C4354 C 0.282 0.237 0.44695 0.0
C4355 C 0.2776 0.24121 0.45575 0.0
C4356 C 0.28178 0.2392 0.46556 0.0
C4357 C 0.29045 0.23285 0.46632 0.0
C4358 C 0.29482 0.22862 0.45752 0.0
H4359 H 0.2903 0.20032 0.44047 0.0
H4360 H 0.29685 0.20694 0.45072 0.0
H4361 H 0.28403 0.21063 0.44713 0.0
H4362 H 0.27868 0.23871 0.43949 0.0
H4363 H 0.27103 0.24618 0.45486 0.0
H4364 H 0.3014 0.83041 0.39385 0.0
H4365 H 0.29495 0.82128 0.40898 0.0
H4366 H 0.32131 0.80149 0.40847 0.0
H4367 H 0.32807 0.81088 0.39358 0.0
H4368 H 0.28953 0.80112 0.41129 0.0
H4369 H 0.32149 0.8109 0.43813 0.0
H4370 H 0.31983 0.81731 0.42591 0.0
H4371 H 0.32553 0.80481 0.4265 0.0
C4372 C 0.30594 0.82423 0.39704 0.0
C4373 C 0.31533 0.82148 0.39252 0.0
C4374 C 0.30218 0.81896 0.40565 0.0
C4375 C 0.30772 0.8108 0.40998 0.0
C4376 C 0.31701 0.8079 0.40541 0.0
H4377 H 0.29453 0.77014 0.4621 0.0
H4378 H 0.30189 0.77826 0.44675 0.0
C4379 C 0.3208 0.8132 0.3968 0.0
C4380 C 0.3036 0.80524 0.41914 0.0
H4381 H 0.30894 0.79902 0.44417 0.0
C4382 C 0.29377 0.80068 0.41848 0.0
C4383 C 0.30915 0.80464 0.42853 0.0
C4384 C 0.31954 0.80975 0.42988 0.0
C4385 C 0.28936 0.79552 0.42691 0.0
C4386 C 0.29486 0.79499 0.43631 0.0
C4387 C 0.30474 0.79942 0.43695 0.0
C4388 C 0.29038 0.79009 0.44564 0.0
C4389 C 0.27888 0.79055 0.42566 0.0
C4390 C 0.28156 0.79413 0.4502 0.0
C4391 C 0.27737 0.78957 0.45903 0.0
C4392 C 0.28195 0.78086 0.46351 0.0
C4393 C 0.29085 0.77689 0.45895 0.0
C4394 C 0.29505 0.78148 0.45013 0.0
H4395 H 0.27686 0.78939 0.41744 0.0
H4396 H 0.27853 0.78301 0.42969 0.0
H4397 H 0.273 0.79558 0.42909 0.0
H4398 H 0.27795 0.8009 0.44699 0.0
H4399 H 0.27065 0.79298 0.46243 0.0
H4400 H 0.61536 0.20336 0.68511 0.0
H4401 H 0.6005 0.21034 0.69405 0.0
H4402 H 0.61869 0.21356 0.72168 0.0
H4403 H 0.63369 0.20685 0.71271 0.0
H4404 H 0.59035 0.20339 0.71181 0.0
H4405 H 0.60701 0.24246 0.7172 0.0
H4406 H 0.61243 0.23328 0.70846 0.0
H4407 H 0.61482 0.2322 0.72204 0.0
C4408 C 0.61624 0.20562 0.69307 0.0
C4409 C 0.62576 0.20462 0.69816 0.0
C4410 C 0.60771 0.20955 0.69819 0.0
C4411 C 0.60852 0.21262 0.70849 0.0
C4412 C 0.61793 0.21141 0.71368 0.0
H4413 H 0.55709 0.22655 0.74899 0.0
H4414 H 0.57213 0.21894 0.74089 0.0
C4415 C 0.62647 0.20746 0.70857 0.0
C4416 C 0.59951 0.21712 0.71374 0.0
H4417 H 0.59099 0.23901 0.72515 0.0
C4418 C 0.59048 0.21117 0.71474 0.0
C4419 C 0.59965 0.22733 0.71745 0.0
C4420 C 0.60895 0.23425 0.71617 0.0
C4421 C 0.58164 0.21511 0.71941 0.0
C4422 C 0.58186 0.22524 0.72331 0.0
C4423 C 0.59086 0.23122 0.72224 0.0
C4424 C 0.57276 0.22987 0.72831 0.0
C4425 C 0.57206 0.20848 0.71993 0.0
C4426 C 0.56825 0.23869 0.72409 0.0
C4427 C 0.55965 0.24306 0.7287 0.0
C4428 C 0.55539 0.23874 0.73769 0.0
C4429 C 0.56003 0.22997 0.74198 0.0
C4430 C 0.56864 0.22561 0.73735 0.0
H4431 H 0.57234 0.202 0.71442 0.0
H4432 H 0.57132 0.2052 0.72779 0.0
H4433 H 0.56508 0.21305 0.71827 0.0
H4434 H 0.57131 0.24212 0.71712 0.0
H4435 H 0.55622 0.24973 0.72512 0.0
H4436 H 0.30728 0.13096 0.69907 0.0
H4437 H 0.29839 0.11555 0.70549 0.0
H4438 H 0.32446 0.10867 0.72485 0.0
H4439 H 0.33351 0.12388 0.71834 0.0
H4440 H 0.30551 0.09438 0.70499 0.0
H4441 H 0.29931 0.10865 0.74464 0.0
H4442 H 0.30229 0.1171 0.73398 0.0
H4443 H 0.31229 0.10978 0.74003 0.0
C4444 C 0.31117 0.12613 0.70463 0.0
C4445 C 0.32111 0.12872 0.70822 0.0
C4446 C 0.30605 0.11736 0.70832 0.0
C4447 C 0.31072 0.11107 0.71574 0.0
C4448 C 0.32065 0.11354 0.71927 0.0
H4449 H 0.29494 0.05587 0.74951 0.0
H4450 H 0.30287 0.07145 0.74238 0.0
C4451 C 0.3258 0.12227 0.71555 0.0
C4452 C 0.30529 0.10182 0.71972 0.0
H4453 H 0.29546 0.09108 0.74162 0.0
C4454 C 0.30324 0.09366 0.71298 0.0
C4455 C 0.30237 0.10092 0.73014 0.0
C4456 C 0.30408 0.1096 0.73763 0.0
C4457 C 0.2986 0.08449 0.71646 0.0
C4458 C 0.29572 0.08357 0.72692 0.0
C4459 C 0.29768 0.09179 0.73362 0.0
C4460 C 0.29085 0.07409 0.73113 0.0
C4461 C 0.29711 0.07577 0.70899 0.0
C4462 C 0.28139 0.07046 0.72725 0.0
C4463 C 0.27684 0.06155 0.73132 0.0
C4464 C 0.2816 0.05616 0.73941 0.0
C4465 C 0.29102 0.05989 0.74335 0.0
C4466 C 0.29558 0.06877 0.73925 0.0
H4467 H 0.30212 0.07669 0.70213 0.0
H4468 H 0.29878 0.06827 0.7127 0.0
H4469 H 0.289 0.07561 0.70629 0.0
H4470 H 0.27747 0.07457 0.72116 0.0
H4471 H 0.2695 0.05896 0.72823 0.0
H4472 H 0.38392 0.80184 0.70742 0.0
H4473 H 0.3993 0.79554 0.71622 0.0
H4474 H 0.41698 0.82091 0.70384 0.0
H4475 H 0.40161 0.82728 0.69505 0.0
H4476 H 0.41736 0.78935 0.70769 0.0
H4477 H 0.42487 0.82197 0.73404 0.0
H4478 H 0.41284 0.82037 0.7272 0.0
H4479 H 0.42393 0.82565 0.72075 0.0
C4480 C 0.39108 0.80609 0.70658 0.0
C4481 C 0.39152 0.81508 0.70053 0.0
C4482 C 0.39986 0.8025 0.71165 0.0
C4483 C 0.40928 0.80781 0.71082 0.0
C4484 C 0.40975 0.8168 0.70481 0.0
H4485 H 0.47159 0.79501 0.73195 0.0
H4486 H 0.45619 0.80227 0.72395 0.0
C4487 C 0.40095 0.82043 0.69977 0.0
C4488 C 0.41868 0.80365 0.71585 0.0
H4489 H 0.43787 0.80932 0.73307 0.0
C4490 C 0.42181 0.7937 0.71328 0.0
C4491 C 0.42452 0.80934 0.72311 0.0
C4492 C 0.42134 0.81989 0.72653 0.0
C4493 C 0.43066 0.78934 0.71766 0.0
C4494 C 0.43648 0.79502 0.72494 0.0
C4495 C 0.4334 0.80498 0.72748 0.0
C4496 C 0.44577 0.79071 0.73003 0.0
C4497 C 0.43382 0.77877 0.7143 0.0
C4498 C 0.445 0.7819 0.73625 0.0
C4499 C 0.45378 0.77776 0.74088 0.0
C4500 C 0.46352 0.78237 0.73944 0.0
C4501 C 0.46422 0.79131 0.73333 0.0
C4502 C 0.45543 0.79545 0.7287 0.0
H4503 H 0.43016 0.77657 0.70688 0.0
H4504 H 0.44231 0.77833 0.71347 0.0
H4505 H 0.4314 0.77306 0.7202 0.0
H4506 H 0.4376 0.77825 0.73757 0.0
H4507 H 0.45291 0.77099 0.74569 0.0
H4508 H 0.71115 0.8845 0.71161 0.0
H4509 H 0.71993 0.89971 0.71857 0.0
H4510 H 0.6953 0.91876 0.70744 0.0
H4511 H 0.68646 0.90361 0.70051 0.0
H4512 H 0.72699 0.91756 0.70924 0.0
H4513 H 0.69674 0.92639 0.73768 0.0
H4514 H 0.69713 0.91432 0.73094 0.0
H4515 H 0.69199 0.92553 0.72472 0.0
C4516 C 0.70764 0.89194 0.71057 0.0
C4517 C 0.69805 0.89283 0.70558 0.0
C4518 C 0.71265 0.90062 0.71459 0.0
C4519 C 0.70817 0.91035 0.71372 0.0
C4520 C 0.69877 0.9113 0.70846 0.0
H4521 H 0.72473 0.9722 0.73222 0.0
H4522 H 0.71686 0.95676 0.72482 0.0
C4523 C 0.69373 0.90263 0.70449 0.0
C4524 C 0.71333 0.91951 0.71829 0.0
H4525 H 0.70986 0.93902 0.73534 0.0
C4526 C 0.72328 0.92222 0.71499 0.0
C4527 C 0.70849 0.92557 0.72582 0.0
C4528 C 0.69804 0.92277 0.73008 0.0
C4529 C 0.7284 0.93098 0.71883 0.0
C4530 C 0.7235 0.9371 0.72627 0.0
C4531 C 0.71359 0.93435 0.72961 0.0
C4532 C 0.72846 0.94644 0.73064 0.0
C4533 C 0.73891 0.93375 0.71472 0.0
C4534 C 0.73756 0.94576 0.73647 0.0
C4535 C 0.74205 0.95457 0.74078 0.0
C4536 C 0.7375 0.96425 0.7394 0.0
C4537 C 0.72837 0.96487 0.73356 0.0
C4538 C 0.72389 0.95606 0.72927 0.0
H4539 H 0.74053 0.92976 0.70739 0.0
H4540 H 0.73965 0.94217 0.71343 0.0
H4541 H 0.74485 0.93146 0.72042 0.0
H4542 H 0.7411 0.93838 0.73781 0.0
H4543 H 0.74898 0.95377 0.74536 0.0
H4544 H 0.62823 0.79791 0.3307 0.0
H4545 H 0.61301 0.79151 0.32154 0.0
H4546 H 0.61018 0.8206 0.30589 0.0
H4547 H 0.62528 0.82719 0.31518 0.0
H4548 H 0.59265 0.80059 0.32167 0.0
H4549 H 0.60959 0.79866 0.28253 0.0
H4550 H 0.61741 0.79922 0.29404 0.0
H4551 H 0.61128 0.81059 0.28927 0.0
C4552 C 0.62434 0.803 0.32537 0.0
C4553 C 0.62799 0.81309 0.3237 0.0
C4554 C 0.61568 0.79929 0.3201 0.0
C4555 C 0.61055 0.80554 0.31297 0.0
C4556 C 0.61415 0.8156 0.31124 0.0
H4557 H 0.55686 0.79449 0.27386 0.0
H4558 H 0.57213 0.80182 0.28232 0.0
C4559 C 0.6228 0.81934 0.31655 0.0
C4560 C 0.60124 0.8016 0.30759 0.0
H4561 H 0.59188 0.79469 0.28401 0.0
C4562 C 0.59247 0.79928 0.31344 0.0
C4563 C 0.60103 0.79999 0.29685 0.0
C4564 C 0.61033 0.80216 0.29027 0.0
C4565 C 0.58344 0.79544 0.30882 0.0
C4566 C 0.58327 0.79362 0.29809 0.0
C4567 C 0.59202 0.79606 0.29223 0.0
C4568 C 0.57414 0.78907 0.29285 0.0
C4569 C 0.5741 0.79355 0.31545 0.0
C4570 C 0.57032 0.77938 0.29581 0.0
C4571 C 0.5616 0.77518 0.29101 0.0
C4572 C 0.55659 0.78054 0.28305 0.0
C4573 C 0.56059 0.79014 0.27992 0.0
C4574 C 0.56928 0.79435 0.28477 0.0
H4575 H 0.57449 0.79809 0.32266 0.0
H4576 H 0.56691 0.79553 0.31127 0.0
H4577 H 0.5737 0.78531 0.31761 0.0
H4578 H 0.57411 0.77503 0.30183 0.0
H4579 H 0.55883 0.76769 0.29347 0.0
H4580 H 0.70519 0.13293 0.30694 0.0
H4581 H 0.71165 0.11799 0.29772 0.0
H4582 H 0.70939 0.0998 0.32542 0.0
H4583 H 0.70267 0.11458 0.33462 0.0
H4584 H 0.72935 0.10692 0.30194 0.0
H4585 H 0.69478 0.08168 0.30418 0.0
H4586 H 0.69437 0.09527 0.30679 0.0
H4587 H 0.69898 0.08649 0.31644 0.0
C4588 C 0.7059 0.1257 0.31103 0.0
C4589 C 0.70338 0.12496 0.32153 0.0
C4590 C 0.70966 0.11719 0.30576 0.0
C4591 C 0.71089 0.10773 0.31084 0.0
C4592 C 0.70834 0.10696 0.32129 0.0
H4593 H 0.74962 0.05678 0.29402 0.0
H4594 H 0.74184 0.07187 0.30176 0.0
C4595 C 0.70461 0.11546 0.32657 0.0
C4596 C 0.71523 0.0988 0.30534 0.0
H4597 H 0.71033 0.07382 0.29883 0.0
C4598 C 0.72517 0.0997 0.30121 0.0
C4599 C 0.70973 0.08942 0.30427 0.0
C4600 C 0.69884 0.08815 0.30806 0.0
C4601 C 0.72985 0.0914 0.29627 0.0
C4602 C 0.72451 0.08189 0.29558 0.0
C4603 C 0.71447 0.08107 0.29946 0.0
C4604 C 0.72922 0.07269 0.29088 0.0
C4605 C 0.74043 0.09292 0.29175 0.0
C4606 C 0.72458 0.06795 0.28233 0.0
C4607 C 0.72896 0.05924 0.27794 0.0
C4608 C 0.73803 0.05503 0.28206 0.0
C4609 C 0.7426 0.05976 0.29069 0.0
C4610 C 0.73822 0.06847 0.29506 0.0
H4611 H 0.74223 0.10118 0.29041 0.0
H4612 H 0.74625 0.08987 0.2972 0.0
H4613 H 0.74115 0.08877 0.28436 0.0
H4614 H 0.71759 0.07102 0.27903 0.0
H4615 H 0.72514 0.05572 0.27141 0.0
H4616 H 0.39372 0.20825 0.32929 0.0
H4617 H 0.40859 0.21762 0.32233 0.0
H4618 H 0.40701 0.19934 0.29481 0.0
H4619 H 0.39192 0.19025 0.30149 0.0
H4620 H 0.42748 0.2104 0.31667 0.0
H4621 H 0.40818 0.22816 0.28303 0.0
H4622 H 0.4011 0.22221 0.29342 0.0
H4623 H 0.4066 0.21446 0.28348 0.0
C4624 C 0.39643 0.20632 0.32169 0.0
C4625 C 0.39157 0.1985 0.31594 0.0
C4626 C 0.40498 0.21164 0.31775 0.0
C4627 C 0.40882 0.20931 0.30797 0.0
C4628 C 0.40406 0.20144 0.30228 0.0
H4629 H 0.46089 0.22737 0.27067 0.0
H4630 H 0.44553 0.2194 0.27824 0.0
C4631 C 0.39551 0.19614 0.30618 0.0
C4632 C 0.41797 0.21487 0.30383 0.0
H4633 H 0.42653 0.2289 0.28324 0.0
C4634 C 0.42725 0.21453 0.30941 0.0
C4635 C 0.41767 0.22027 0.29436 0.0
C4636 C 0.40783 0.2214 0.28827 0.0
C4637 C 0.4363 0.21917 0.30562 0.0
C4638 C 0.43603 0.22439 0.29606 0.0
C4639 C 0.42673 0.22485 0.29054 0.0
C4640 C 0.44535 0.22929 0.29154 0.0
C4641 C 0.44614 0.21819 0.31173 0.0
C4642 C 0.45028 0.23758 0.29645 0.0
C4643 C 0.45908 0.24214 0.29216 0.0
C4644 C 0.46312 0.2385 0.28285 0.0
C4645 C 0.45808 0.23026 0.27791 0.0
C4646 C 0.44926 0.22574 0.28219 0.0
H4647 H 0.44558 0.21207 0.31769 0.0
H4648 H 0.45271 0.21649 0.3066 0.0
H4649 H 0.44783 0.22557 0.31566 0.0
H4650 H 0.4473 0.24055 0.30359 0.0
H4651 H 0.46281 0.24842 0.2962 0.0
H4652 H 0.30876 0.89121 0.32374 0.0
H4653 H 0.29992 0.90651 0.31734 0.0
H4654 H 0.32399 0.91155 0.29514 0.0
H4655 H 0.33298 0.89644 0.30159 0.0
H4656 H 0.30755 0.92735 0.31594 0.0
H4657 H 0.29721 0.91138 0.27772 0.0
H4658 H 0.30106 0.90339 0.28843 0.0
H4659 H 0.31058 0.91034 0.28112 0.0
C4660 C 0.31223 0.89561 0.31755 0.0
C4661 C 0.32156 0.89251 0.31314 0.0
C4662 C 0.30713 0.90432 0.31387 0.0
C4663 C 0.31121 0.91006 0.30566 0.0
C4664 C 0.32058 0.9071 0.30134 0.0
H4665 H 0.29478 0.96393 0.27036 0.0
H4666 H 0.30267 0.9486 0.27773 0.0
C4667 C 0.3257 0.89843 0.30503 0.0
C4668 C 0.30578 0.91925 0.30166 0.0
H4669 H 0.29457 0.92921 0.28004 0.0
C4670 C 0.30463 0.92775 0.30812 0.0
C4671 C 0.30201 0.91974 0.29145 0.0
C4672 C 0.30267 0.9107 0.28428 0.0
C4673 C 0.30008 0.93686 0.30455 0.0
C4674 C 0.29638 0.93739 0.2943 0.0
C4675 C 0.29742 0.92882 0.28789 0.0
C4676 C 0.29158 0.94681 0.28999 0.0
C4677 C 0.2996 0.94593 0.31169 0.0
C4678 C 0.28265 0.95087 0.29435 0.0
C4679 C 0.27817 0.95972 0.29021 0.0
C4680 C 0.28248 0.96465 0.28155 0.0
C4681 C 0.29135 0.96046 0.27713 0.0
C4682 C 0.29583 0.95164 0.28129 0.0
H4683 H 0.30512 0.94522 0.31819 0.0
H4684 H 0.30126 0.95322 0.30752 0.0
H4685 H 0.29174 0.94639 0.31495 0.0
H4686 H 0.2791 0.94717 0.30093 0.0
H4687 H 0.27139 0.96275 0.29387 0.0
H4688 H 0.68606 0.12384 0.71864 0.0
H4689 H 0.695 0.10874 0.72515 0.0
H4690 H 0.71877 0.1133 0.70253 0.0
H4691 H 0.71012 0.12872 0.69625 0.0
H4692 H 0.69975 0.09096 0.71544 0.0
H4693 H 0.73559 0.11049 0.72868 0.0
H4694 H 0.72415 0.11745 0.7252 0.0
H4695 H 0.73254 0.11273 0.71539 0.0
C4696 C 0.69328 0.12176 0.71514 0.0
C4697 C 0.69741 0.1276 0.70697 0.0
C4698 C 0.69834 0.11305 0.71883 0.0
C4699 C 0.70765 0.10996 0.71446 0.0
C4700 C 0.71172 0.11565 0.70618 0.0
H4701 H 0.74752 0.05776 0.72711 0.0
H4702 H 0.73938 0.073 0.71973 0.0
C4703 C 0.70668 0.1244 0.70251 0.0
C4704 C 0.71294 0.10067 0.71845 0.0
H4705 H 0.73538 0.09229 0.72931 0.0
C4706 C 0.70754 0.09126 0.71849 0.0
C4707 C 0.72311 0.10105 0.72242 0.0
C4708 C 0.72917 0.11098 0.72303 0.0
C4709 C 0.71202 0.08224 0.72232 0.0
C4710 C 0.72215 0.08264 0.72635 0.0
C4711 C 0.72762 0.092 0.72621 0.0
C4712 C 0.72714 0.07346 0.73091 0.0
C4713 C 0.70594 0.07232 0.72191 0.0
C4714 C 0.72306 0.06876 0.73975 0.0
C4715 C 0.72773 0.0601 0.74405 0.0
C4716 C 0.73662 0.05595 0.73961 0.0
C4717 C 0.74076 0.06078 0.73081 0.0
C4718 C 0.73609 0.06947 0.72654 0.0
H4719 H 0.69943 0.07276 0.71635 0.0
H4720 H 0.71093 0.06582 0.71973 0.0
H4721 H 0.7027 0.07064 0.72963 0.0
H4722 H 0.71629 0.07184 0.74339 0.0
H4723 H 0.72445 0.05673 0.75093 0.0
H4724 H 0.70728 0.89426 0.32822 0.0
H4725 H 0.71639 0.90943 0.32152 0.0
H4726 H 0.69781 0.90839 0.294 0.0
H4727 H 0.68884 0.89311 0.30046 0.0
H4728 H 0.72739 0.91142 0.30179 0.0
H4729 H 0.69463 0.93819 0.3055 0.0
H4730 H 0.69525 0.92617 0.31246 0.0
H4731 H 0.69176 0.92629 0.29908 0.0
C4732 C 0.70519 0.89719 0.3207 0.0
C4733 C 0.69727 0.89247 0.31491 0.0
C4734 C 0.71037 0.90589 0.31691 0.0
C4735 C 0.70767 0.91009 0.30733 0.0
C4736 C 0.69987 0.90536 0.30149 0.0
H4737 H 0.72591 0.96227 0.27023 0.0
H4738 H 0.71792 0.94689 0.27765 0.0
C4739 C 0.69473 0.89665 0.30523 0.0
C4740 C 0.71306 0.91936 0.30335 0.0
H4741 H 0.70927 0.94438 0.29653 0.0
C4742 C 0.72348 0.91866 0.30069 0.0
C4743 C 0.70789 0.92875 0.30192 0.0
C4744 C 0.69679 0.92998 0.30496 0.0
C4745 C 0.7288 0.92706 0.29635 0.0
C4746 C 0.72362 0.93646 0.29486 0.0
C4747 C 0.71323 0.93717 0.29765 0.0
C4748 C 0.72875 0.94563 0.29027 0.0
C4749 C 0.73983 0.92568 0.29309 0.0
C4750 C 0.73747 0.95009 0.29493 0.0
C4751 C 0.74216 0.95882 0.29063 0.0
C4752 C 0.73814 0.96335 0.28163 0.0
C4753 C 0.72934 0.9589 0.27705 0.0
C4754 C 0.7247 0.95015 0.28133 0.0
H4755 H 0.74173 0.91744 0.29215 0.0
H4756 H 0.74141 0.92976 0.28574 0.0
H4757 H 0.74503 0.92891 0.29908 0.0
H4758 H 0.74062 0.94687 0.30195 0.0
H4759 H 0.74896 0.96198 0.29433 0.0
H4760 H 0.63164 0.19733 0.29766 0.0
H4761 H 0.61652 0.20647 0.29138 0.0
H4762 H 0.60495 0.20823 0.32232 0.0
H4763 H 0.62004 0.19901 0.32868 0.0
H4764 H 0.59606 0.20056 0.29289 0.0
H4765 H 0.60286 0.23795 0.31219 0.0
H4766 H 0.61273 0.22839 0.31109 0.0
H4767 H 0.60292 0.22704 0.3207 0.0
C4768 C 0.62588 0.19963 0.30314 0.0
C4769 C 0.62707 0.19741 0.31369 0.0
C4770 C 0.61725 0.2049 0.29954 0.0
C4771 C 0.60965 0.20815 0.30638 0.0
C4772 C 0.61082 0.206 0.31692 0.0
H4773 H 0.54697 0.22496 0.28991 0.0
H4774 H 0.56237 0.2167 0.29675 0.0
C4775 C 0.61946 0.20072 0.32054 0.0
C4776 C 0.60033 0.21341 0.3024 0.0
H4777 H 0.58672 0.23567 0.3038 0.0
C4778 C 0.59403 0.20824 0.29527 0.0
C4779 C 0.59774 0.22348 0.30542 0.0
C4780 C 0.60445 0.2296 0.3127 0.0
C4781 C 0.58515 0.2128 0.29116 0.0
C4782 C 0.58241 0.22276 0.29438 0.0
C4783 C 0.58878 0.228 0.30141 0.0
C4784 C 0.57302 0.22791 0.29041 0.0
C4785 C 0.57888 0.20699 0.28326 0.0
C4786 C 0.57385 0.23711 0.28478 0.0
C4787 C 0.56505 0.24185 0.28083 0.0
C4788 C 0.55521 0.23752 0.28248 0.0
C4789 C 0.55441 0.2284 0.2883 0.0
C4790 C 0.56322 0.22367 0.29224 0.0
H4791 H 0.58334 0.20068 0.27976 0.0
H4792 H 0.57202 0.20354 0.28702 0.0
H4793 H 0.57619 0.21219 0.27704 0.0
H4794 H 0.58134 0.24053 0.2833 0.0
H4795 H 0.56597 0.24881 0.27632 0.0
H4796 H 0.32189 0.13041 0.31066 0.0
H4797 H 0.31544 0.11513 0.30168 0.0
H4798 H 0.29492 0.10852 0.32685 0.0
H4799 H 0.30144 0.12361 0.33598 0.0
H4800 H 0.31514 0.09403 0.30865 0.0
H4801 H 0.27591 0.10887 0.30112 0.0
H4802 H 0.28661 0.11713 0.30461 0.0
H4803 H 0.28011 0.10965 0.31429 0.0
C4804 C 0.31607 0.12566 0.31434 0.0
C4805 C 0.31214 0.12831 0.32404 0.0
C4806 C 0.31236 0.11696 0.30916 0.0
C4807 C 0.30459 0.11079 0.31352 0.0
C4808 C 0.30077 0.1133 0.32325 0.0
H4809 H 0.27025 0.05608 0.29646 0.0
H4810 H 0.27739 0.07144 0.3047 0.0
C4811 C 0.30449 0.12196 0.32844 0.0
C4812 C 0.30055 0.10164 0.30799 0.0
H4813 H 0.27865 0.0913 0.29748 0.0
C4814 C 0.30719 0.09344 0.30614 0.0
C4815 C 0.29016 0.1009 0.30475 0.0
C4816 C 0.28278 0.10963 0.3062 0.0
C4817 C 0.30364 0.08439 0.30138 0.0
C4818 C 0.29323 0.08362 0.29818 0.0
C4819 C 0.28662 0.09188 0.29995 0.0
C4820 C 0.28897 0.07427 0.29311 0.0
C4821 C 0.31101 0.07561 0.30011 0.0
C4822 C 0.29301 0.07082 0.28376 0.0
C4823 C 0.28894 0.06203 0.27902 0.0
C4824 C 0.28066 0.05658 0.28347 0.0
C4825 C 0.27655 0.06015 0.29276 0.0
C4826 C 0.28065 0.06891 0.29751 0.0
H4827 H 0.31776 0.07635 0.30534 0.0
H4828 H 0.30713 0.06812 0.30162 0.0
H4829 H 0.31389 0.07559 0.29209 0.0
H4830 H 0.29926 0.07497 0.28008 0.0
H4831 H 0.29217 0.0596 0.27179 0.0
H4832 H 0.40488 0.82086 0.33282 0.0
H4833 H 0.4199 0.81416 0.32393 0.0
H4834 H 0.40035 0.8035 0.29921 0.0
H4835 H 0.38528 0.81021 0.30805 0.0
H4836 H 0.42372 0.79423 0.31873 0.0
H4837 H 0.42294 0.81858 0.2836 0.0
H4838 H 0.41551 0.82149 0.29489 0.0
H4839 H 0.41108 0.81182 0.28604 0.0
C4840 C 0.40377 0.8171 0.32548 0.0
C4841 C 0.39386 0.81608 0.32115 0.0
C4842 C 0.41237 0.81331 0.32039 0.0
C4843 C 0.41129 0.80844 0.31083 0.0
C4844 C 0.40142 0.80744 0.30645 0.0
H4845 H 0.454 0.77638 0.27108 0.0
H4846 H 0.43882 0.78389 0.27904 0.0
C4847 C 0.39281 0.81127 0.31153 0.0
C4848 C 0.42043 0.80398 0.30573 0.0
H4849 H 0.43463 0.80468 0.28367 0.0
C4850 C 0.42613 0.79656 0.31108 0.0
C4851 C 0.42356 0.80698 0.29573 0.0
C4852 C 0.41802 0.81522 0.28975 0.0
C4853 C 0.43478 0.79197 0.30669 0.0
C4854 C 0.43793 0.79499 0.29671 0.0
C4855 C 0.43221 0.80237 0.29132 0.0
C4856 C 0.4472 0.79063 0.29178 0.0
C4857 C 0.44037 0.78378 0.31269 0.0
C4858 C 0.45698 0.79206 0.29621 0.0
C4859 C 0.46568 0.78782 0.29166 0.0
C4860 C 0.4648 0.78209 0.28254 0.0
C4861 C 0.45499 0.78082 0.27804 0.0
C4862 C 0.44629 0.78507 0.2826 0.0
H4863 H 0.43553 0.7805 0.31894 0.0
H4864 H 0.44278 0.77745 0.30757 0.0
H4865 H 0.44738 0.78719 0.31625 0.0
H4866 H 0.4579 0.79652 0.30317 0.0
H4867 H 0.47312 0.78915 0.29523 0.0
H4868 H 0.31302 0.88483 0.71906 0.0
H4869 H 0.30448 0.90017 0.7254 0.0
H4870 H 0.31688 0.91777 0.70007 0.0
H4871 H 0.32542 0.90244 0.69366 0.0
H4872 H 0.31331 0.91826 0.73166 0.0
H4873 H 0.28673 0.9255 0.69897 0.0
H4874 H 0.29344 0.91353 0.70056 0.0
H4875 H 0.29998 0.9246 0.69531 0.0
C4876 C 0.31393 0.89196 0.71482 0.0
C4877 C 0.31991 0.8924 0.70584 0.0
C4878 C 0.309 0.90072 0.71844 0.0
C4879 C 0.30991 0.91011 0.71315 0.0
C4880 C 0.31585 0.91057 0.70416 0.0
H4881 H 0.28949 0.97222 0.72597 0.0
H4882 H 0.29733 0.95687 0.71874 0.0
C4883 C 0.32074 0.9018 0.70051 0.0
C4884 C 0.30503 0.91948 0.71733 0.0
H4885 H 0.28797 0.93852 0.71166 0.0
C4886 C 0.30773 0.92266 0.7273 0.0
C4887 C 0.29777 0.92525 0.71163 0.0
C4888 C 0.29422 0.92201 0.70106 0.0
C4889 C 0.30348 0.93149 0.73168 0.0
C4890 C 0.29622 0.93724 0.72599 0.0
C4891 C 0.29354 0.93411 0.716 0.0
C4892 C 0.29127 0.9465 0.73031 0.0
C4893 C 0.30698 0.93471 0.74228 0.0
C4894 C 0.28512 0.94575 0.73913 0.0
C4895 C 0.28058 0.9545 0.74326 0.0
C4896 C 0.28205 0.9642 0.73862 0.0
C4897 C 0.2881 0.96488 0.72969 0.0
C4898 C 0.29263 0.95612 0.72556 0.0
H4899 H 0.31439 0.9311 0.74447 0.0
H4900 H 0.30791 0.94318 0.74274 0.0
H4901 H 0.30111 0.93227 0.74798 0.0
H4902 H 0.28377 0.93838 0.74279 0.0
H4903 H 0.27581 0.95364 0.75002 0.0
H4904 H 0.62617 0.79934 0.69052 0.0
H4905 H 0.61091 0.79312 0.6996 0.0
H4906 H 0.61103 0.82052 0.71806 0.0
H4907 H 0.62602 0.82705 0.70868 0.0
H4908 H 0.6082 0.78875 0.71984 0.0
H4909 H 0.58157 0.81967 0.70789 0.0
H4910 H 0.59392 0.81791 0.70192 0.0
H4911 H 0.59307 0.82425 0.71413 0.0
C4912 C 0.62287 0.80415 0.69639 0.0
C4913 C 0.62729 0.81377 0.69877 0.0
C4914 C 0.61418 0.80052 0.70164 0.0
C4915 C 0.60971 0.80641 0.7094 0.0
C4916 C 0.6142 0.81593 0.71195 0.0
H4917 H 0.55743 0.79422 0.74985 0.0
H4918 H 0.57289 0.80139 0.74173 0.0
C4919 C 0.62287 0.81959 0.70666 0.0
C4920 C 0.60045 0.80246 0.7149 0.0
H4921 H 0.57534 0.80776 0.72029 0.0
C4922 C 0.60102 0.7929 0.71992 0.0
C4923 C 0.59106 0.80789 0.71502 0.0
C4924 C 0.5898 0.81795 0.70937 0.0
C4925 C 0.59248 0.78865 0.72507 0.0
C4926 C 0.58311 0.79405 0.72513 0.0
C4927 C 0.58256 0.80366 0.72024 0.0
C4928 C 0.57371 0.78971 0.73002 0.0
C4929 C 0.59358 0.77845 0.73049 0.0
C4930 C 0.56896 0.78085 0.72603 0.0
C4931 C 0.56006 0.77679 0.73057 0.0
C4932 C 0.55571 0.78151 0.73922 0.0
C4933 C 0.56047 0.79044 0.74314 0.0
C4934 C 0.56935 0.79453 0.73855 0.0
H4935 H 0.60179 0.77644 0.73174 0.0
H4936 H 0.58964 0.77852 0.73804 0.0
H4937 H 0.58995 0.77234 0.72574 0.0
H4938 H 0.5721 0.77713 0.71933 0.0
H4939 H 0.55651 0.77004 0.72719 0.0
H4940 H 0.39276 0.22123 0.68904 0.0
H4941 H 0.40812 0.22763 0.69791 0.0
H4942 H 0.40854 0.20035 0.71683 0.0
H4943 H 0.39346 0.19364 0.70766 0.0
H4944 H 0.41097 0.23209 0.71813 0.0
H4945 H 0.43785 0.20149 0.70651 0.0
H4946 H 0.4254 0.20309 0.70054 0.0
H4947 H 0.42649 0.19677 0.71282 0.0
C4948 C 0.39621 0.21649 0.69496 0.0
C4949 C 0.3919 0.20686 0.69756 0.0
C4950 C 0.40495 0.22021 0.70009 0.0
C4951 C 0.40959 0.2144 0.70792 0.0
C4952 C 0.40523 0.20487 0.71066 0.0
H4953 H 0.4619 0.22691 0.74839 0.0
H4954 H 0.44643 0.21971 0.74024 0.0
C4955 C 0.39651 0.2011 0.7055 0.0
C4956 C 0.41884 0.21848 0.71335 0.0
H4957 H 0.44404 0.21344 0.71885 0.0
C4958 C 0.4182 0.22802 0.71826 0.0
C4959 C 0.42829 0.21315 0.71352 0.0
C4960 C 0.42961 0.2031 0.70799 0.0
C4961 C 0.42672 0.23236 0.7234 0.0
C4962 C 0.43614 0.22705 0.72354 0.0
C4963 C 0.43678 0.21746 0.71873 0.0
C4964 C 0.4455 0.23144 0.72846 0.0
C4965 C 0.42555 0.24254 0.72873 0.0
C4966 C 0.45017 0.24035 0.72445 0.0
C4967 C 0.45907 0.24443 0.72901 0.0
C4968 C 0.46349 0.23968 0.73769 0.0
C4969 C 0.4588 0.23071 0.74165 0.0
C4970 C 0.44992 0.22661 0.73705 0.0
H4971 H 0.41733 0.24447 0.7299 0.0
H4972 H 0.42952 0.24248 0.73631 0.0
H4973 H 0.42912 0.24868 0.72395 0.0
H4974 H 0.44698 0.24408 0.7177 0.0
H4975 H 0.46257 0.25122 0.72561 0.0
H4976 H 0.71858 0.70589 0.13646 0.0
H4977 H 0.72515 0.71452 0.12105 0.0
H4978 H 0.69977 0.70215 0.10337 0.0
H4979 H 0.69313 0.69353 0.11877 0.0
H4980 H 0.73146 0.7059 0.1031 0.0
H4981 H 0.69906 0.73225 0.0953 0.0
H4982 H 0.70048 0.72548 0.10736 0.0
H4983 H 0.69523 0.719 0.0963 0.0
C4984 C 0.71438 0.70502 0.1293 0.0
C4985 C 0.70531 0.69902 0.12886 0.0
C4986 C 0.71813 0.70999 0.1205 0.0
C4987 C 0.71289 0.70912 0.11107 0.0
C4988 C 0.70382 0.70316 0.11061 0.0
H4989 H 0.7263 0.72936 0.04863 0.0
H4990 H 0.71894 0.72155 0.06413 0.0
C4991 C 0.70003 0.69822 0.11942 0.0
C4992 C 0.7172 0.71406 0.10166 0.0
H4993 H 0.7118 0.73107 0.08231 0.0
C4994 C 0.72718 0.71145 0.09859 0.0
C4995 C 0.7116 0.72128 0.09575 0.0
C4996 C 0.70104 0.72475 0.09888 0.0
C4997 C 0.73165 0.71573 0.08971 0.0
C4998 C 0.72606 0.72293 0.0838 0.0
C4999 C 0.71607 0.72553 0.08684 0.0
C5000 C 0.73046 0.72786 0.07445 0.0
C5001 C 0.74225 0.71233 0.08661 0.0
C5002 C 0.73929 0.73414 0.07511 0.0
C5003 C 0.74349 0.73866 0.06627 0.0
C5004 C 0.73891 0.73705 0.05657 0.0
C5005 C 0.72997 0.73087 0.05597 0.0
C5006 C 0.72577 0.72635 0.06482 0.0
H5007 H 0.74441 0.705 0.09041 0.0
H5008 H 0.74272 0.71134 0.07815 0.0
H5009 H 0.74798 0.71828 0.0889 0.0
H5010 H 0.74291 0.73559 0.08249 0.0
H5011 H 0.75025 0.74353 0.06707 0.0
H5012 H 0.30313 0.68608 0.12328 0.0
H5013 H 0.29678 0.69543 0.10824 0.0
H5014 H 0.31567 0.72157 0.11644 0.0
H5015 H 0.32191 0.71237 0.13167 0.0
H5016 H 0.2865 0.71523 0.10844 0.0
H5017 H 0.32265 0.71568 0.08567 0.0
H5018 H 0.32046 0.70676 0.09614 0.0
H5019 H 0.32366 0.71992 0.09878 0.0
C5020 C 0.30589 0.69384 0.12195 0.0
C5021 C 0.31303 0.69847 0.12872 0.0
C5022 C 0.30229 0.69915 0.11331 0.0
C5023 C 0.30583 0.70915 0.11119 0.0
C5024 C 0.31298 0.71379 0.11786 0.0
H5025 H 0.29205 0.75128 0.06064 0.0
H5026 H 0.29909 0.74317 0.07615 0.0
C5027 C 0.31655 0.70851 0.12655 0.0
C5028 C 0.30177 0.71478 0.10214 0.0
H5029 H 0.3085 0.72458 0.07868 0.0
C5030 C 0.2913 0.71729 0.10193 0.0
C5031 C 0.30808 0.7175 0.09371 0.0
C5032 C 0.31933 0.71479 0.09348 0.0
C5033 C 0.28695 0.72248 0.0935 0.0
C5034 C 0.2932 0.725 0.08495 0.0
C5035 C 0.30372 0.72262 0.08523 0.0
C5036 C 0.28892 0.72991 0.07555 0.0
C5037 C 0.27575 0.72537 0.09394 0.0
C5038 C 0.28098 0.72508 0.06996 0.0
C5039 C 0.27694 0.72969 0.06112 0.0
C5040 C 0.28084 0.73919 0.0576 0.0
C5041 C 0.28892 0.74393 0.06311 0.0
C5042 C 0.29293 0.73933 0.07199 0.0
H5043 H 0.27296 0.72571 0.10199 0.0
H5044 H 0.27442 0.73293 0.09019 0.0
H5045 H 0.27108 0.71948 0.08984 0.0
H5046 H 0.27797 0.71767 0.07239 0.0
H5047 H 0.27086 0.72574 0.05694 0.0
H5048 H 0.30253 0.33316 0.12397 0.0
H5049 H 0.29632 0.32414 0.10871 0.0
H5050 H 0.31849 0.30028 0.11403 0.0
H5051 H 0.32447 0.30904 0.12958 0.0
H5052 H 0.30654 0.31899 0.09116 0.0
H5053 H 0.29199 0.28378 0.11075 0.0
H5054 H 0.29546 0.29529 0.11768 0.0
H5055 H 0.30528 0.28674 0.11335 0.0
C5056 C 0.306 0.32592 0.12201 0.0
C5057 C 0.31395 0.3218 0.12811 0.0
C5058 C 0.30248 0.3208 0.11322 0.0
C5059 C 0.30681 0.31144 0.1103 0.0
C5060 C 0.31487 0.30739 0.11623 0.0
H5061 H 0.29395 0.2705 0.05864 0.0
H5062 H 0.30139 0.27894 0.07379 0.0
C5063 C 0.31838 0.31248 0.12507 0.0
C5064 C 0.30295 0.30607 0.10094 0.0
H5065 H 0.29174 0.28373 0.09254 0.0
C5066 C 0.30329 0.31129 0.09147 0.0
C5067 C 0.29872 0.296 0.10134 0.0
C5068 C 0.29774 0.29014 0.11133 0.0
C5069 C 0.29958 0.30671 0.08239 0.0
C5070 C 0.29528 0.29669 0.0828 0.0
C5071 C 0.29505 0.29141 0.09224 0.0
C5072 C 0.2908 0.29163 0.07356 0.0
C5073 C 0.30044 0.3126 0.0724 0.0
C5074 C 0.2823 0.29589 0.06846 0.0
C5075 C 0.27805 0.29111 0.05978 0.0
C5076 C 0.2822 0.28193 0.05603 0.0
C5077 C 0.29066 0.27763 0.06123 0.0
C5078 C 0.29488 0.28241 0.06993 0.0
H5079 H 0.30628 0.31888 0.07289 0.0
H5080 H 0.30251 0.30744 0.06598 0.0
H5081 H 0.29291 0.3161 0.07055 0.0
H5082 H 0.2789 0.30291 0.07122 0.0
H5083 H 0.2716 0.29469 0.05593 0.0
H5084 H 0.72011 0.31447 0.13617 0.0
H5085 H 0.72641 0.30606 0.12067 0.0
H5086 H 0.69947 0.3159 0.104 0.0
H5087 H 0.6932 0.32449 0.11942 0.0
H5088 H 0.71644 0.29042 0.10832 0.0
H5089 H 0.72406 0.32646 0.08642 0.0
H5090 H 0.7223 0.32627 0.10018 0.0
H5091 H 0.71137 0.32514 0.09174 0.0
C5092 C 0.71555 0.3149 0.12919 0.0
C5093 C 0.70618 0.32021 0.12902 0.0
C5094 C 0.71913 0.31004 0.12036 0.0
C5095 C 0.71348 0.31047 0.11115 0.0
C5096 C 0.70403 0.31559 0.11099 0.0
H5097 H 0.72546 0.28924 0.04904 0.0
H5098 H 0.71805 0.2967 0.0645 0.0
C5099 C 0.70041 0.32041 0.11984 0.0
C5100 C 0.71749 0.30558 0.10172 0.0
H5101 H 0.72638 0.31087 0.07758 0.0
C5102 C 0.71863 0.29488 0.1016 0.0
C5103 C 0.72031 0.31142 0.09296 0.0
C5104 C 0.71954 0.32297 0.0928 0.0
C5105 C 0.7224 0.28983 0.09288 0.0
C5106 C 0.72533 0.29569 0.08415 0.0
C5107 C 0.72414 0.30639 0.08427 0.0
C5108 C 0.72974 0.29088 0.07482 0.0
C5109 C 0.72298 0.27827 0.09305 0.0
C5110 C 0.73884 0.2852 0.07545 0.0
C5111 C 0.74305 0.28082 0.06663 0.0
C5112 C 0.7383 0.28212 0.05696 0.0
C5113 C 0.72923 0.28792 0.05636 0.0
C5114 C 0.72502 0.29227 0.06519 0.0
H5115 H 0.71776 0.27485 0.09891 0.0
H5116 H 0.72097 0.275 0.08542 0.0
H5117 H 0.73095 0.27598 0.09501 0.0
H5118 H 0.74275 0.28421 0.08275 0.0
H5119 H 0.74998 0.27634 0.06742 0.0
H5120 H 0.6926 0.31313 0.89598 0.0
H5121 H 0.69928 0.30406 0.9111 0.0
H5122 H 0.72691 0.32266 0.91015 0.0
H5123 H 0.72045 0.33159 0.8949 0.0
H5124 H 0.71894 0.29312 0.91301 0.0
H5125 H 0.7155 0.32582 0.94002 0.0
H5126 H 0.70852 0.32521 0.92799 0.0
H5127 H 0.72194 0.32866 0.92812 0.0
C5128 C 0.70014 0.31524 0.89891 0.0
C5129 C 0.70596 0.32315 0.89423 0.0
C5130 C 0.70392 0.31008 0.90759 0.0
C5131 C 0.71352 0.3128 0.91181 0.0
C5132 C 0.71939 0.32059 0.90711 0.0
H5133 H 0.75032 0.29441 0.96411 0.0
H5134 H 0.74309 0.30245 0.94873 0.0
C5135 C 0.71566 0.32571 0.89842 0.0
C5136 C 0.71749 0.30742 0.92105 0.0
H5137 H 0.72432 0.31118 0.94614 0.0
C5138 C 0.72007 0.29702 0.92029 0.0
C5139 C 0.71897 0.31257 0.93049 0.0
C5140 C 0.71602 0.32366 0.93179 0.0
C5141 C 0.72436 0.29169 0.92867 0.0
C5142 C 0.72587 0.29685 0.93812 0.0
C5143 C 0.72318 0.30723 0.93889 0.0
C5144 C 0.73036 0.2917 0.94729 0.0
C5145 C 0.72752 0.28068 0.92721 0.0
C5146 C 0.72557 0.283 0.95165 0.0
C5147 C 0.72977 0.27829 0.96038 0.0
C5148 C 0.73879 0.28225 0.96501 0.0
C5149 C 0.74349 0.29103 0.96066 0.0
C5150 C 0.73932 0.2957 0.95191 0.0
H5151 H 0.7285 0.27881 0.91895 0.0
H5152 H 0.73484 0.27907 0.93133 0.0
H5153 H 0.72146 0.27551 0.93036 0.0
H5154 H 0.71853 0.27991 0.94836 0.0
H5155 H 0.72598 0.27151 0.96346 0.0
H5156 H 0.7115 0.6936 0.89181 0.0
H5157 H 0.7201 0.6997 0.90748 0.0
H5158 H 0.69647 0.72229 0.91144 0.0
H5159 H 0.68762 0.71599 0.8961 0.0
H5160 H 0.72808 0.71881 0.91193 0.0
H5161 H 0.69721 0.70882 0.93955 0.0
H5162 H 0.69733 0.70395 0.92658 0.0
H5163 H 0.69277 0.71669 0.92911 0.0
C5164 C 0.70805 0.69976 0.8961 0.0
C5165 C 0.69884 0.70427 0.89267 0.0
C5166 C 0.71302 0.70329 0.90502 0.0
C5167 C 0.70885 0.71135 0.91074 0.0
C5168 C 0.69973 0.71592 0.90729 0.0
H5169 H 0.72616 0.74818 0.96319 0.0
H5170 H 0.71825 0.74049 0.94793 0.0
C5171 C 0.69475 0.71239 0.89841 0.0
C5172 C 0.71416 0.71518 0.92015 0.0
H5173 H 0.71053 0.72 0.94568 0.0
C5174 C 0.72428 0.71898 0.91933 0.0
C5175 C 0.70921 0.71539 0.92982 0.0
C5176 C 0.69857 0.7109 0.93137 0.0
C5177 C 0.72946 0.72328 0.92783 0.0
C5178 C 0.72442 0.72368 0.93744 0.0
C5179 C 0.71436 0.71974 0.9383 0.0
C5180 C 0.72936 0.72833 0.94666 0.0
C5181 C 0.74017 0.72764 0.92641 0.0
C5182 C 0.73819 0.72399 0.95108 0.0
C5183 C 0.7427 0.72833 0.95987 0.0
C5184 C 0.73845 0.73708 0.96445 0.0
C5185 C 0.72958 0.74138 0.95998 0.0
C5186 C 0.72507 0.73702 0.95122 0.0
H5187 H 0.74206 0.72877 0.91815 0.0
H5188 H 0.74104 0.73511 0.93042 0.0
H5189 H 0.74583 0.72225 0.92977 0.0
H5190 H 0.74152 0.71717 0.94781 0.0
H5191 H 0.74941 0.7247 0.96319 0.0
H5192 H 0.33027 0.72079 0.89562 0.0
H5193 H 0.32145 0.72733 0.91072 0.0
H5194 H 0.30164 0.70055 0.91102 0.0
H5195 H 0.31072 0.69372 0.89616 0.0
H5196 H 0.30115 0.73221 0.91318 0.0
H5197 H 0.31202 0.70126 0.94054 0.0
H5198 H 0.31813 0.70289 0.9282 0.0
H5199 H 0.30568 0.69679 0.92908 0.0
C5200 C 0.32415 0.71619 0.89898 0.0
C5201 C 0.32129 0.70666 0.8947 0.0
C5202 C 0.31905 0.71999 0.90757 0.0
C5203 C 0.31099 0.71436 0.91212 0.0
C5204 C 0.30798 0.70493 0.90779 0.0
H5205 H 0.27194 0.72694 0.96494 0.0
H5206 H 0.27962 0.7197 0.94946 0.0
C5207 C 0.3131 0.7011 0.89919 0.0
C5208 C 0.30565 0.7185 0.92127 0.0
H5209 H 0.30021 0.71356 0.94652 0.0
C5210 C 0.30096 0.72814 0.92047 0.0
C5211 C 0.30539 0.71317 0.93079 0.0
C5212 C 0.31065 0.703 0.93227 0.0
C5213 C 0.29597 0.73256 0.92889 0.0
C5214 C 0.29579 0.72728 0.93842 0.0
C5215 C 0.30036 0.71759 0.9392 0.0
C5216 C 0.29105 0.73177 0.94772 0.0
C5217 C 0.29082 0.7428 0.92747 0.0
C5218 C 0.295 0.7409 0.95195 0.0
C5219 C 0.29061 0.74508 0.96077 0.0
C5220 C 0.2822 0.74018 0.96558 0.0
C5221 C 0.27831 0.73099 0.96136 0.0
C5222 C 0.28273 0.7268 0.95255 0.0
H5223 H 0.28931 0.74453 0.91923 0.0
H5224 H 0.28342 0.74302 0.9317 0.0
H5225 H 0.29592 0.74895 0.93056 0.0
H5226 H 0.30153 0.74478 0.94845 0.0
H5227 H 0.29376 0.7522 0.96376 0.0
H5228 H 0.32808 0.31098 0.89422 0.0
H5229 H 0.3212 0.30143 0.90898 0.0
H5230 H 0.29434 0.32056 0.90878 0.0
H5231 H 0.30091 0.32982 0.8938 0.0
H5232 H 0.31644 0.30827 0.92821 0.0
H5233 H 0.28144 0.29219 0.90958 0.0
H5234 H 0.29181 0.29798 0.90233 0.0
H5235 H 0.28235 0.30589 0.90839 0.0
C5236 C 0.32063 0.31305 0.8972 0.0
C5237 C 0.31505 0.32117 0.89277 0.0
C5238 C 0.31674 0.30763 0.9057 0.0
C5239 C 0.30717 0.31016 0.9099 0.0
C5240 C 0.30163 0.31831 0.90555 0.0
H5241 H 0.27104 0.29285 0.96293 0.0
H5242 H 0.27842 0.30069 0.94748 0.0
C5243 C 0.30549 0.3237 0.89706 0.0
C5244 C 0.3031 0.30452 0.91903 0.0
H5245 H 0.28214 0.29114 0.92791 0.0
C5246 C 0.30899 0.30444 0.92812 0.0
C5247 C 0.29337 0.2995 0.9189 0.0
C5248 C 0.28692 0.29879 0.90925 0.0
C5249 C 0.30528 0.29976 0.93716 0.0
C5250 C 0.29547 0.29494 0.93708 0.0
C5251 C 0.28964 0.29489 0.92796 0.0
C5252 C 0.29102 0.29005 0.94643 0.0
C5253 C 0.31175 0.30025 0.94681 0.0
C5254 C 0.29558 0.28138 0.95089 0.0
C5255 C 0.29132 0.2768 0.95968 0.0
C5256 C 0.28239 0.2808 0.96419 0.0
C5257 C 0.27782 0.28946 0.95962 0.0
C5258 C 0.28207 0.294 0.95082 0.0
H5259 H 0.31807 0.30603 0.94617 0.0
H5260 H 0.30695 0.30215 0.95356 0.0
H5261 H 0.31525 0.29264 0.94824 0.0
H5262 H 0.30239 0.27809 0.94752 0.0
H5263 H 0.29495 0.27004 0.96286 0.0
H5264 H 0.63448 0.70968 0.21191 0.0
H5265 H 0.61948 0.71645 0.22084 0.0
H5266 H 0.5999 0.70682 0.19574 0.0
H5267 H 0.61481 0.69985 0.18686 0.0
H5268 H 0.60599 0.73183 0.21344 0.0
H5269 H 0.58507 0.69525 0.2213 0.0
H5270 H 0.59853 0.69572 0.21789 0.0
H5271 H 0.5888 0.69709 0.20812 0.0
C5272 C 0.62696 0.70885 0.20836 0.0
C5273 C 0.62585 0.70419 0.19867 0.0
C5274 C 0.61841 0.71279 0.21345 0.0
C5275 C 0.60856 0.71204 0.20902 0.0
C5276 C 0.60741 0.70734 0.19938 0.0
H5277 H 0.54737 0.73258 0.22458 0.0
H5278 H 0.5626 0.72514 0.21669 0.0
C5279 C 0.61596 0.70345 0.19427 0.0
C5280 C 0.59955 0.71656 0.21425 0.0
H5281 H 0.57599 0.71065 0.22439 0.0
C5282 C 0.59946 0.7272 0.2159 0.0
C5283 C 0.59102 0.71051 0.21742 0.0
C5284 C 0.59085 0.69899 0.21619 0.0
C5285 C 0.59096 0.73199 0.22041 0.0
C5286 C 0.58241 0.72594 0.22356 0.0
C5287 C 0.58254 0.71528 0.22197 0.0
C5288 C 0.5732 0.73053 0.22841 0.0
C5289 C 0.59111 0.74353 0.22147 0.0
C5290 C 0.57406 0.73595 0.23768 0.0
C5291 C 0.56538 0.7403 0.24217 0.0
C5292 C 0.55562 0.73927 0.23751 0.0
C5293 C 0.55478 0.7337 0.22829 0.0
C5294 C 0.56347 0.72936 0.22381 0.0
H5295 H 0.59685 0.7472 0.21628 0.0
H5296 H 0.58342 0.74677 0.21976 0.0
H5297 H 0.59321 0.74556 0.22949 0.0
H5298 H 0.58145 0.73679 0.24149 0.0
H5299 H 0.56634 0.74459 0.24923 0.0
H5300 H 0.31556 0.63576 0.22189 0.0
H5301 H 0.30673 0.6202 0.22804 0.0
H5302 H 0.31474 0.60458 0.20011 0.0
H5303 H 0.32371 0.62005 0.19395 0.0
H5304 H 0.29006 0.60865 0.2179 0.0
H5305 H 0.32557 0.58588 0.22399 0.0
H5306 H 0.3258 0.59971 0.22285 0.0
H5307 H 0.3242 0.59193 0.2116 0.0
C5308 C 0.31549 0.629 0.21708 0.0
C5309 C 0.32038 0.62912 0.20745 0.0
C5310 C 0.3104 0.62014 0.22058 0.0
C5311 C 0.31019 0.61123 0.21458 0.0
C5312 C 0.31492 0.61136 0.20491 0.0
H5313 H 0.28741 0.54914 0.22555 0.0
H5314 H 0.29506 0.56476 0.21826 0.0
C5315 C 0.31997 0.62023 0.20137 0.0
C5316 C 0.30504 0.60178 0.21847 0.0
H5317 H 0.3097 0.5773 0.22659 0.0
C5318 C 0.29434 0.60178 0.21982 0.0
C5319 C 0.31065 0.59285 0.22091 0.0
C5320 C 0.3222 0.59255 0.21985 0.0
C5321 C 0.28906 0.59303 0.22345 0.0
C5322 C 0.29468 0.58412 0.22603 0.0
C5323 C 0.30539 0.58412 0.22462 0.0
C5324 C 0.28966 0.57473 0.23029 0.0
C5325 C 0.27749 0.59333 0.22427 0.0
C5326 C 0.28412 0.57512 0.23952 0.0
C5327 C 0.27962 0.56622 0.24365 0.0
C5328 C 0.28067 0.5567 0.2387 0.0
C5329 C 0.28629 0.55634 0.22948 0.0
C5330 C 0.29074 0.56526 0.22534 0.0
H5331 H 0.27418 0.5994 0.21925 0.0
H5332 H 0.27394 0.58583 0.22216 0.0
H5333 H 0.27536 0.59508 0.23232 0.0
H5334 H 0.28336 0.58229 0.2436 0.0
H5335 H 0.27528 0.5668 0.2507 0.0
H5336 H 0.39086 0.32536 0.21309 0.0
H5337 H 0.40648 0.31941 0.22176 0.0
H5338 H 0.41202 0.2985 0.19686 0.0
H5339 H 0.39671 0.30467 0.18795 0.0
H5340 H 0.41124 0.30005 0.22862 0.0
H5341 H 0.4397 0.3128 0.19954 0.0
H5342 H 0.42658 0.31719 0.19948 0.0
H5343 H 0.42967 0.30485 0.19422 0.0
C5344 C 0.39549 0.31961 0.20937 0.0
C5345 C 0.3925 0.31553 0.19979 0.0
C5346 C 0.40438 0.31617 0.21438 0.0
C5347 C 0.41053 0.30862 0.2099 0.0
C5348 C 0.40754 0.30448 0.20038 0.0
H5349 H 0.46367 0.27284 0.22681 0.0
H5350 H 0.44843 0.28039 0.2188 0.0
C5351 C 0.39868 0.30793 0.19536 0.0
C5352 C 0.41987 0.30479 0.2153 0.0
H5353 H 0.44569 0.30109 0.21237 0.0
C5354 C 0.41879 0.30037 0.22512 0.0
C5355 C 0.42974 0.30521 0.21073 0.0
C5356 C 0.43153 0.31036 0.20046 0.0
C5357 C 0.42724 0.29607 0.23033 0.0
C5358 C 0.43705 0.29631 0.22566 0.0
C5359 C 0.43816 0.30086 0.21591 0.0
C5360 C 0.44623 0.29172 0.23067 0.0
C5361 C 0.42553 0.29103 0.24066 0.0
C5362 C 0.45012 0.29564 0.23996 0.0
C5363 C 0.45883 0.29131 0.24459 0.0
C5364 C 0.46383 0.28298 0.24 0.0
C5365 C 0.45993 0.27913 0.23064 0.0
C5366 C 0.45126 0.28349 0.22601 0.0
H5367 H 0.41724 0.28944 0.24212 0.0
H5368 H 0.42979 0.2837 0.24123 0.0
H5369 H 0.42844 0.2962 0.2468 0.0
H5370 H 0.44647 0.30209 0.24361 0.0
H5371 H 0.46158 0.29442 0.25181 0.0
H5372 H 0.71156 0.38465 0.21128 0.0
H5373 H 0.72036 0.39991 0.2181 0.0
H5374 H 0.69564 0.41886 0.20698 0.0
H5375 H 0.68679 0.40366 0.20018 0.0
H5376 H 0.72736 0.41772 0.20865 0.0
H5377 H 0.6972 0.42663 0.23717 0.0
H5378 H 0.69758 0.41454 0.23049 0.0
H5379 H 0.69242 0.42572 0.22424 0.0
C5380 C 0.70804 0.39208 0.21021 0.0
C5381 C 0.69843 0.39292 0.20526 0.0
C5382 C 0.71306 0.40079 0.21415 0.0
C5383 C 0.70856 0.4105 0.21324 0.0
C5384 C 0.69913 0.41141 0.20802 0.0
H5385 H 0.72526 0.47237 0.23166 0.0
H5386 H 0.71737 0.45697 0.22422 0.0
C5387 C 0.69409 0.40271 0.20412 0.0
C5388 C 0.71373 0.41969 0.21775 0.0
H5389 H 0.71034 0.43923 0.23479 0.0
C5390 C 0.72366 0.4224 0.21441 0.0
C5391 C 0.70892 0.42577 0.22528 0.0
C5392 C 0.69848 0.42298 0.22959 0.0
C5393 C 0.72881 0.43115 0.21822 0.0
C5394 C 0.72394 0.43728 0.22566 0.0
C5395 C 0.71404 0.43455 0.22904 0.0
C5396 C 0.72894 0.44661 0.23004 0.0
C5397 C 0.73931 0.43391 0.21407 0.0
C5398 C 0.73803 0.44589 0.23586 0.0
C5399 C 0.74254 0.45468 0.2402 0.0
C5400 C 0.73801 0.46437 0.23885 0.0
C5401 C 0.72889 0.46503 0.23299 0.0
C5402 C 0.72439 0.45624 0.22868 0.0
H5403 H 0.7409 0.4299 0.20674 0.0
H5404 H 0.74005 0.44232 0.21277 0.0
H5405 H 0.74526 0.43162 0.21976 0.0
H5406 H 0.74156 0.4385 0.23719 0.0
H5407 H 0.74945 0.45385 0.2448 0.0
H5408 H 0.6163 0.32044 0.83331 0.0
H5409 H 0.60128 0.31368 0.82397 0.0
H5410 H 0.62128 0.29936 0.80209 0.0
H5411 H 0.63636 0.30604 0.81141 0.0
H5412 H 0.59671 0.31657 0.80118 0.0
H5413 H 0.60134 0.27602 0.81401 0.0
H5414 H 0.60689 0.2867 0.821 0.0
H5415 H 0.61258 0.28262 0.80919 0.0
C5416 C 0.6175 0.31582 0.82653 0.0
C5417 C 0.62751 0.31374 0.82311 0.0
C5418 C 0.60892 0.31201 0.82119 0.0
C5419 C 0.6102 0.30597 0.81241 0.0
C5420 C 0.62016 0.30395 0.8089 0.0
H5421 H 0.56686 0.27164 0.7742 0.0
H5422 H 0.58231 0.27896 0.78231 0.0
C5423 C 0.62875 0.30783 0.81419 0.0
C5424 C 0.6011 0.30173 0.80693 0.0
H5425 H 0.58789 0.27942 0.80231 0.0
C5426 C 0.59475 0.30846 0.80141 0.0
C5427 C 0.59865 0.29114 0.80722 0.0
C5428 C 0.60516 0.28366 0.81321 0.0
C5429 C 0.58603 0.30484 0.79606 0.0
C5430 C 0.58344 0.29425 0.7965 0.0
C5431 C 0.58986 0.28753 0.80198 0.0
C5432 C 0.57406 0.28998 0.79144 0.0
C5433 C 0.57981 0.31237 0.78982 0.0
C5434 C 0.56428 0.29365 0.79396 0.0
C5435 C 0.55546 0.28951 0.78931 0.0
C5436 C 0.55622 0.28151 0.78215 0.0
C5437 C 0.56601 0.27775 0.77973 0.0
C5438 C 0.57485 0.28195 0.78434 0.0
H5439 H 0.58444 0.31929 0.78773 0.0
H5440 H 0.57681 0.30881 0.78265 0.0
H5441 H 0.57317 0.31493 0.79444 0.0
H5442 H 0.56345 0.29963 0.79964 0.0
H5443 H 0.54801 0.29245 0.79146 0.0
H5444 H 0.69655 0.61548 0.82994 0.0
H5445 H 0.70332 0.60026 0.82144 0.0
H5446 H 0.7204 0.61968 0.80052 0.0
H5447 H 0.71373 0.63492 0.80902 0.0
H5448 H 0.70192 0.59357 0.80148 0.0
H5449 H 0.74275 0.60125 0.81178 0.0
H5450 H 0.73228 0.60808 0.81755 0.0
H5451 H 0.7368 0.61164 0.80497 0.0
C5452 C 0.70169 0.61651 0.82348 0.0
C5453 C 0.70466 0.62642 0.82021 0.0
C5454 C 0.70559 0.6078 0.81865 0.0
C5455 C 0.71254 0.60882 0.81047 0.0
C5456 C 0.71528 0.6187 0.80699 0.0
H5457 H 0.74492 0.56565 0.77172 0.0
H5458 H 0.7373 0.58088 0.77944 0.0
C5459 C 0.71143 0.6274 0.81185 0.0
C5460 C 0.7169 0.59954 0.80556 0.0
H5461 H 0.73954 0.58768 0.80003 0.0
C5462 C 0.71014 0.59226 0.8012 0.0
C5463 C 0.72764 0.59782 0.80521 0.0
C5464 C 0.73529 0.60505 0.81021 0.0
C5465 C 0.71383 0.58342 0.79635 0.0
C5466 C 0.72456 0.58174 0.79595 0.0
C5467 C 0.73132 0.58901 0.8003 0.0
C5468 C 0.72894 0.57244 0.79114 0.0
C5469 C 0.70622 0.57604 0.7915 0.0
C5470 C 0.72685 0.56264 0.79521 0.0
C5471 C 0.73117 0.55392 0.79081 0.0
C5472 C 0.73771 0.55481 0.78225 0.0
C5473 C 0.73982 0.56466 0.77821 0.0
C5474 C 0.73552 0.57338 0.78265 0.0
H5475 H 0.6986 0.57963 0.79024 0.0
H5476 H 0.70911 0.57321 0.78403 0.0
H5477 H 0.70511 0.56932 0.79668 0.0
H5478 H 0.72193 0.56174 0.80187 0.0
H5479 H 0.72932 0.54645 0.79406 0.0
H5480 H 0.40276 0.68686 0.82116 0.0
H5481 H 0.41786 0.69594 0.81436 0.0
H5482 H 0.39875 0.72131 0.80526 0.0
H5483 H 0.38362 0.7123 0.81211 0.0
H5484 H 0.42146 0.70205 0.79464 0.0
H5485 H 0.42197 0.73599 0.82023 0.0
H5486 H 0.41427 0.72468 0.82291 0.0
H5487 H 0.40994 0.73402 0.81366 0.0
C5488 C 0.40177 0.69439 0.81773 0.0
C5489 C 0.39198 0.69886 0.8172 0.0
C5490 C 0.41042 0.69958 0.81388 0.0
C5491 C 0.40948 0.70937 0.80942 0.0
C5492 C 0.39972 0.71388 0.80889 0.0
H5493 H 0.45265 0.74967 0.77704 0.0
H5494 H 0.43733 0.74165 0.78466 0.0
C5495 C 0.39107 0.70871 0.8128 0.0
C5496 C 0.41864 0.71462 0.80491 0.0
H5497 H 0.43337 0.73652 0.80599 0.0
C5498 C 0.42408 0.70956 0.79716 0.0
C5499 C 0.42205 0.72444 0.80817 0.0
C5500 C 0.41682 0.73007 0.81676 0.0
C5501 C 0.43276 0.7141 0.79252 0.0
C5502 C 0.43618 0.7239 0.7958 0.0
C5503 C 0.43071 0.729 0.80348 0.0
C5504 C 0.44551 0.7289 0.79142 0.0
C5505 C 0.43812 0.70843 0.78404 0.0
C5506 C 0.45521 0.72449 0.79285 0.0
C5507 C 0.46399 0.72908 0.78858 0.0
C5508 C 0.46326 0.73821 0.78279 0.0
C5509 C 0.45353 0.7427 0.78152 0.0
C5510 C 0.44475 0.73811 0.78583 0.0
H5511 H 0.43318 0.70222 0.78077 0.0
H5512 H 0.4404 0.71377 0.77774 0.0
H5513 H 0.44521 0.70487 0.78716 0.0
H5514 H 0.456 0.71749 0.79731 0.0
H5515 H 0.47137 0.72552 0.78991 0.0
H5516 H 0.30957 0.38509 0.80935 0.0
H5517 H 0.3007 0.40022 0.8026 0.0
H5518 H 0.32511 0.41971 0.81421 0.0
H5519 H 0.33403 0.40465 0.82093 0.0
H5520 H 0.29341 0.41757 0.81217 0.0
H5521 H 0.32377 0.42822 0.78414 0.0
H5522 H 0.32346 0.41595 0.79065 0.0
H5523 H 0.32843 0.42715 0.79711 0.0
C5524 C 0.31301 0.39261 0.81054 0.0
C5525 C 0.32256 0.39364 0.8156 0.0
C5526 C 0.30795 0.40124 0.80664 0.0
C5527 C 0.31234 0.41109 0.80771 0.0
C5528 C 0.32171 0.41218 0.81303 0.0
H5529 H 0.29526 0.4729 0.7899 0.0
H5530 H 0.30325 0.45757 0.79718 0.0
C5531 C 0.32679 0.40355 0.81689 0.0
C5532 C 0.30712 0.42022 0.80327 0.0
H5533 H 0.3105 0.44033 0.78659 0.0
C5534 C 0.29712 0.42252 0.80653 0.0
C5535 C 0.31195 0.42667 0.79589 0.0
C5536 C 0.32245 0.42434 0.79166 0.0
C5537 C 0.29193 0.43121 0.80281 0.0
C5538 C 0.29682 0.43771 0.79552 0.0
C5539 C 0.30678 0.43538 0.79221 0.0
C5540 C 0.29176 0.44699 0.79123 0.0
C5541 C 0.28136 0.43351 0.80689 0.0
C5542 C 0.28269 0.44614 0.78538 0.0
C5543 C 0.27812 0.4549 0.78114 0.0
C5544 C 0.28257 0.46469 0.78262 0.0
C5545 C 0.29168 0.46549 0.78848 0.0
C5546 C 0.29624 0.45673 0.7927 0.0
H5547 H 0.27976 0.4293 0.81417 0.0
H5548 H 0.28049 0.44187 0.80826 0.0
H5549 H 0.27549 0.43112 0.80114 0.0
H5550 H 0.27921 0.43868 0.78395 0.0
H5551 H 0.27122 0.45396 0.77652 0.0
H5552 H 0.69786 0.63244 0.22341 0.0
H5553 H 0.70681 0.61729 0.22985 0.0
H5554 H 0.70916 0.60579 0.19894 0.0
H5555 H 0.70014 0.62092 0.19241 0.0
H5556 H 0.70075 0.59692 0.22816 0.0
H5557 H 0.73871 0.60348 0.20973 0.0
H5558 H 0.72917 0.6134 0.21065 0.0
H5559 H 0.72796 0.60363 0.20099 0.0
C5560 C 0.70026 0.62669 0.21796 0.0
C5561 C 0.69826 0.62791 0.20738 0.0
C5562 C 0.70542 0.61805 0.22166 0.0
C5563 C 0.70876 0.61045 0.21488 0.0
C5564 C 0.70684 0.61165 0.2043 0.0
H5565 H 0.72494 0.54782 0.23183 0.0
H5566 H 0.71688 0.56321 0.22473 0.0
C5567 C 0.70168 0.62031 0.20058 0.0
C5568 C 0.71388 0.60111 0.21896 0.0
H5569 H 0.73614 0.58741 0.2181 0.0
C5570 C 0.70849 0.59485 0.22597 0.0
C5571 C 0.72403 0.59847 0.21618 0.0
C5572 C 0.73037 0.60513 0.20905 0.0
C5573 C 0.71291 0.58597 0.23019 0.0
C5574 C 0.72296 0.58318 0.22721 0.0
C5575 C 0.72841 0.5895 0.2203 0.0
C5576 C 0.72799 0.57381 0.23133 0.0
C5577 C 0.70686 0.57975 0.23794 0.0
C5578 C 0.73705 0.57462 0.2372 0.0
C5579 C 0.74167 0.56583 0.2413 0.0
C5580 C 0.73735 0.55603 0.23956 0.0
C5581 C 0.72836 0.55525 0.2335 0.0
C5582 C 0.72375 0.56404 0.22942 0.0
H5583 H 0.70047 0.58422 0.24127 0.0
H5584 H 0.70348 0.5729 0.2341 0.0
H5585 H 0.71191 0.57706 0.2443 0.0
H5586 H 0.74046 0.58209 0.23875 0.0
H5587 H 0.74853 0.56675 0.24599 0.0
H5588 H 0.71252 0.38458 0.81444 0.0
H5589 H 0.72195 0.39968 0.80803 0.0
H5590 H 0.69418 0.41744 0.80926 0.0
H5591 H 0.68476 0.40246 0.81587 0.0
H5592 H 0.7177 0.41092 0.78987 0.0
H5593 H 0.71554 0.43546 0.82453 0.0
H5594 H 0.71308 0.42179 0.82492 0.0
H5595 H 0.70335 0.43037 0.82028 0.0
C5596 C 0.70846 0.39174 0.81349 0.0
C5597 C 0.69789 0.39233 0.81569 0.0
C5598 C 0.71384 0.40034 0.80977 0.0
C5599 C 0.70879 0.4097 0.80828 0.0
C5600 C 0.69826 0.41033 0.8105 0.0
H5601 H 0.72554 0.46206 0.77062 0.0
H5602 H 0.71784 0.44656 0.77813 0.0
C5603 C 0.69286 0.40173 0.81418 0.0
C5604 C 0.71442 0.41872 0.80402 0.0
H5605 H 0.72129 0.44357 0.80911 0.0
C5606 C 0.71854 0.41804 0.79409 0.0
C5607 C 0.71561 0.42795 0.80959 0.0
C5608 C 0.71175 0.42895 0.82046 0.0
C5609 C 0.72358 0.42646 0.78948 0.0
C5610 C 0.72442 0.43582 0.7949 0.0
C5611 C 0.72055 0.43641 0.80494 0.0
C5612 C 0.7292 0.44512 0.79026 0.0
C5613 C 0.72803 0.42525 0.77887 0.0
C5614 C 0.73805 0.44956 0.79468 0.0
C5615 C 0.7425 0.4584 0.79038 0.0
C5616 C 0.73814 0.46304 0.7816 0.0
C5617 C 0.72922 0.45859 0.77724 0.0
C5618 C 0.72479 0.44974 0.78154 0.0
H5619 H 0.72905 0.41705 0.77687 0.0
H5620 H 0.72272 0.42869 0.77313 0.0
H5621 H 0.73558 0.42928 0.77824 0.0
H5622 H 0.74156 0.44612 0.80143 0.0
H5623 H 0.74943 0.46154 0.79387 0.0
H5624 H 0.63446 0.71077 0.81063 0.0
H5625 H 0.61942 0.72005 0.80422 0.0
H5626 H 0.5996 0.69534 0.81451 0.0
H5627 H 0.61456 0.6861 0.82111 0.0
H5628 H 0.60502 0.71295 0.78922 0.0
H5629 H 0.58603 0.72118 0.82637 0.0
H5630 H 0.59937 0.71753 0.82554 0.0
H5631 H 0.58935 0.70796 0.82454 0.0
C5632 C 0.62689 0.70738 0.81168 0.0
C5633 C 0.62572 0.69769 0.81641 0.0
C5634 C 0.61831 0.71267 0.80795 0.0
C5635 C 0.60838 0.70845 0.80899 0.0
C5636 C 0.60717 0.69882 0.81377 0.0
H5637 H 0.54675 0.72523 0.79014 0.0
H5638 H 0.5621 0.71716 0.79731 0.0
C5639 C 0.61574 0.6935 0.81745 0.0
C5640 C 0.59932 0.71389 0.80469 0.0
H5641 H 0.57636 0.72453 0.8112 0.0
C5642 C 0.59878 0.71555 0.79403 0.0
C5643 C 0.59117 0.71724 0.81097 0.0
C5644 C 0.5915 0.71598 0.8225 0.0
C5645 C 0.5902 0.72024 0.78944 0.0
C5646 C 0.58203 0.72358 0.79571 0.0
C5647 C 0.58261 0.72198 0.80639 0.0
C5648 C 0.57274 0.72859 0.79134 0.0
C5649 C 0.58983 0.72128 0.77788 0.0
C5650 C 0.57357 0.73778 0.7857 0.0
C5651 C 0.5648 0.74237 0.78149 0.0
C5652 C 0.55499 0.73791 0.7829 0.0
C5653 C 0.55418 0.72879 0.78873 0.0
C5654 C 0.56295 0.7242 0.79291 0.0
H5655 H 0.59524 0.71596 0.77409 0.0
H5656 H 0.58195 0.71975 0.77488 0.0
H5657 H 0.59208 0.72924 0.77568 0.0
H5658 H 0.58101 0.74143 0.78456 0.0
H5659 H 0.56574 0.74934 0.77701 0.0
H5660 H 0.30161 0.62357 0.83528 0.0
H5661 H 0.29526 0.60841 0.82614 0.0
H5662 H 0.31583 0.61516 0.80105 0.0
H5663 H 0.32211 0.63049 0.81004 0.0
H5664 H 0.28597 0.60774 0.80608 0.0
H5665 H 0.32169 0.58472 0.80843 0.0
H5666 H 0.31949 0.59565 0.81658 0.0
H5667 H 0.32318 0.59754 0.80342 0.0
C5668 C 0.30475 0.62191 0.82778 0.0
C5669 C 0.31238 0.6283 0.8234 0.0
C5670 C 0.30114 0.61319 0.8226 0.0
C5671 C 0.30515 0.61059 0.81298 0.0
C5672 C 0.31277 0.61692 0.80856 0.0
H5673 H 0.29206 0.55947 0.77155 0.0
H5674 H 0.299 0.57502 0.77967 0.0
C5675 C 0.31636 0.62568 0.81372 0.0
C5676 C 0.30114 0.60141 0.80748 0.0
H5677 H 0.30787 0.57772 0.79877 0.0
C5678 C 0.29075 0.60117 0.80448 0.0
C5679 C 0.30741 0.59287 0.80536 0.0
C5680 C 0.31855 0.59261 0.80867 0.0
C5681 C 0.28646 0.59266 0.79936 0.0
C5682 C 0.29268 0.58403 0.7974 0.0
C5683 C 0.30311 0.58432 0.80029 0.0
C5684 C 0.28846 0.57458 0.79249 0.0
C5685 C 0.27536 0.59306 0.79594 0.0
C5686 C 0.28034 0.56906 0.79708 0.0
C5687 C 0.27636 0.56017 0.79247 0.0
C5688 C 0.28049 0.55655 0.78321 0.0
C5689 C 0.28875 0.562 0.77872 0.0
C5690 C 0.2927 0.57092 0.78332 0.0
H5691 H 0.27263 0.60109 0.7953 0.0
H5692 H 0.27424 0.58924 0.7884 0.0
H5693 H 0.27048 0.58902 0.80169 0.0
H5694 H 0.27712 0.57157 0.8043 0.0
H5695 H 0.27015 0.55605 0.79625 0.0
H5696 H 0.3948 0.32749 0.81117 0.0
H5697 H 0.40951 0.3206 0.80186 0.0
H5698 H 0.40917 0.29382 0.82149 0.0
H5699 H 0.39425 0.3004 0.83052 0.0
H5700 H 0.42876 0.31581 0.80897 0.0
H5701 H 0.40976 0.28094 0.79328 0.0
H5702 H 0.40261 0.29131 0.79884 0.0
H5703 H 0.40861 0.28187 0.80698 0.0
C5704 C 0.39774 0.32005 0.8134 0.0
C5705 C 0.39328 0.3145 0.8216 0.0
C5706 C 0.40621 0.31616 0.80811 0.0
C5707 C 0.41035 0.30661 0.81085 0.0
C5708 C 0.40598 0.3011 0.81908 0.0
H5709 H 0.46297 0.27034 0.79422 0.0
H5710 H 0.44763 0.27773 0.80193 0.0
C5711 C 0.39752 0.30496 0.82434 0.0
C5712 C 0.41944 0.30253 0.80535 0.0
H5713 H 0.4281 0.28161 0.79233 0.0
C5714 C 0.42859 0.30838 0.80525 0.0
C5715 C 0.41922 0.29283 0.80047 0.0
C5716 C 0.4095 0.28641 0.79979 0.0
C5717 C 0.43759 0.30466 0.80069 0.0
C5718 C 0.43741 0.29488 0.796 0.0
C5719 C 0.42824 0.28909 0.79598 0.0
C5720 C 0.44671 0.29044 0.79121 0.0
C5721 C 0.44731 0.31109 0.80117 0.0
C5722 C 0.45121 0.29506 0.78254 0.0
C5723 C 0.45995 0.2908 0.77805 0.0
C5724 C 0.46435 0.28181 0.78212 0.0
C5725 C 0.45974 0.27718 0.79078 0.0
C5726 C 0.451 0.28142 0.79524 0.0
H5727 H 0.44676 0.31734 0.80692 0.0
H5728 H 0.45404 0.30627 0.80312 0.0
H5729 H 0.44871 0.31466 0.79353 0.0
H5730 H 0.44791 0.30191 0.77918 0.0
H5731 H 0.46315 0.29448 0.77128 0.0
H5732 H 0.32545 0.40269 0.19443 0.0
H5733 H 0.3169 0.41802 0.20089 0.0
H5734 H 0.30466 0.40039 0.22627 0.0
H5735 H 0.31319 0.38506 0.21989 0.0
H5736 H 0.29639 0.42208 0.20457 0.0
H5737 H 0.31888 0.42418 0.24087 0.0
H5738 H 0.3225 0.41605 0.23033 0.0
H5739 H 0.31247 0.41205 0.239 0.0
C5740 C 0.32087 0.40205 0.20134 0.0
C5741 C 0.32008 0.39265 0.20669 0.0
C5742 C 0.31602 0.41083 0.20505 0.0
C5743 C 0.31031 0.41041 0.21418 0.0
C5744 C 0.30926 0.40098 0.21936 0.0
H5745 H 0.27564 0.45405 0.25002 0.0
H5746 H 0.28358 0.4388 0.24276 0.0
C5747 C 0.31413 0.39221 0.21569 0.0
C5748 C 0.30544 0.41982 0.21829 0.0
H5749 H 0.3046 0.43532 0.23939 0.0
C5750 C 0.29822 0.42501 0.21216 0.0
C5751 C 0.30785 0.42366 0.22819 0.0
C5752 C 0.31592 0.41876 0.23495 0.0
C5753 C 0.29318 0.43379 0.21576 0.0
C5754 C 0.29553 0.43756 0.22569 0.0
C5755 C 0.30278 0.4324 0.2318 0.0
C5756 C 0.29056 0.44685 0.22993 0.0
C5757 C 0.2852 0.4388 0.20898 0.0
C5758 C 0.29192 0.45648 0.2252 0.0
C5759 C 0.28744 0.46524 0.22937 0.0
C5760 C 0.28154 0.46457 0.23841 0.0
C5761 C 0.28022 0.4549 0.24313 0.0
C5762 C 0.28472 0.44615 0.23896 0.0
H5763 H 0.28247 0.43359 0.20279 0.0
H5764 H 0.27848 0.44124 0.21356 0.0
H5765 H 0.28864 0.44573 0.20531 0.0
H5766 H 0.29659 0.45725 0.21836 0.0
H5767 H 0.28878 0.47258 0.22562 0.0
H5768 H 0.61869 0.32655 0.19606 0.0
H5769 H 0.60329 0.32046 0.20514 0.0
H5770 H 0.61974 0.29385 0.21579 0.0
H5771 H 0.63521 0.29997 0.20691 0.0
H5772 H 0.59279 0.30137 0.20201 0.0
H5773 H 0.60679 0.30532 0.24222 0.0
H5774 H 0.61296 0.31173 0.23152 0.0
H5775 H 0.61516 0.29833 0.2339 0.0
C5776 C 0.61908 0.31948 0.20046 0.0
C5777 C 0.6282 0.31375 0.20077 0.0
C5778 C 0.61025 0.31598 0.20559 0.0
C5779 C 0.6104 0.30677 0.21123 0.0
C5780 C 0.6195 0.30107 0.21161 0.0
H5781 H 0.56594 0.27041 0.24562 0.0
H5782 H 0.58127 0.27755 0.23725 0.0
C5783 C 0.6283 0.30452 0.20644 0.0
C5784 C 0.60094 0.30289 0.21637 0.0
H5785 H 0.59096 0.29634 0.23979 0.0
C5786 C 0.59235 0.30034 0.21027 0.0
C5787 C 0.60042 0.3015 0.22715 0.0
C5788 C 0.60928 0.30444 0.23411 0.0
C5789 C 0.58333 0.2962 0.21463 0.0
C5790 C 0.5828 0.2948 0.22542 0.0
C5791 C 0.59138 0.29741 0.23153 0.0
C5792 C 0.57345 0.29055 0.23052 0.0
C5793 C 0.57457 0.2931 0.20761 0.0
C5794 C 0.56397 0.29555 0.22964 0.0
C5795 C 0.55516 0.29143 0.23433 0.0
C5796 C 0.55566 0.28226 0.24008 0.0
C5797 C 0.56523 0.27738 0.2411 0.0
C5798 C 0.57402 0.28149 0.23639 0.0
H5799 H 0.57719 0.29206 0.19956 0.0
H5800 H 0.57086 0.28585 0.21027 0.0
H5801 H 0.56869 0.29921 0.20759 0.0
H5802 H 0.56337 0.30265 0.22532 0.0
H5803 H 0.54793 0.29537 0.23331 0.0
H5804 H 0.39221 0.72206 0.1902 0.0
H5805 H 0.40754 0.72853 0.19909 0.0
H5806 H 0.40927 0.70037 0.21656 0.0
H5807 H 0.39419 0.69364 0.20738 0.0
H5808 H 0.41069 0.73195 0.21962 0.0
H5809 H 0.4383 0.70311 0.20543 0.0
H5810 H 0.42566 0.70466 0.19985 0.0
H5811 H 0.42722 0.69767 0.21171 0.0
C5812 C 0.39594 0.71716 0.19581 0.0
C5813 C 0.392 0.70728 0.19799 0.0
C5814 C 0.40466 0.72092 0.20095 0.0
C5815 C 0.40965 0.71488 0.20837 0.0
C5816 C 0.40567 0.70509 0.21071 0.0
H5817 H 0.46344 0.72671 0.24716 0.0
H5818 H 0.44777 0.71949 0.23936 0.0
C5819 C 0.39696 0.7013 0.20554 0.0
C5820 C 0.41891 0.71897 0.21377 0.0
H5821 H 0.44446 0.71465 0.21813 0.0
C5822 C 0.41808 0.72817 0.21928 0.0
C5823 C 0.42855 0.71403 0.21334 0.0
C5824 C 0.43005 0.70437 0.20719 0.0
C5825 C 0.42659 0.73254 0.2244 0.0
C5826 C 0.43622 0.72763 0.22389 0.0
C5827 C 0.43705 0.71838 0.21851 0.0
C5828 C 0.44559 0.73211 0.22873 0.0
C5829 C 0.42518 0.7423 0.2304 0.0
C5830 C 0.4496 0.74155 0.22526 0.0
C5831 C 0.45853 0.74571 0.2297 0.0
C5832 C 0.46364 0.74048 0.23769 0.0
C5833 C 0.45961 0.731 0.24112 0.0
C5834 C 0.4507 0.72683 0.23664 0.0
H5835 H 0.41695 0.74367 0.23214 0.0
H5836 H 0.42959 0.74206 0.23774 0.0
H5837 H 0.4281 0.7489 0.2258 0.0
H5838 H 0.44586 0.74568 0.21906 0.0
H5839 H 0.46139 0.75305 0.22693 0.0
loop_
_geom_bond_atom_site_label_1
_geom_bond_atom_site_label_2
_geom_bond_distance
_geom_bond_site_symmetry_2
_ccdc_geom_bond_type
C0 C1 1.264 . S
C0 C5 1.479 . S
C0 C10 1.465 . S
C1 C0 1.264 . S
C1 C3 1.339 . S
C1 H28 0.931 . S
C2 C3 1.395 . S
C2 C4 1.320 . S
C3 C1 1.339 . S
C3 C2 1.395 . S
C3 H29 0.929 . S
C4 C2 1.320 . S
C4 C5 1.405 . S
C4 H30 0.930 . S
C5 C0 1.479 . S
C5 C4 1.405 . S
C5 H31 0.931 . S
U6 O7 2.454 . S
U6 O8 2.458 . S
U6 C9 2.984 . S
U6 C10 2.847 . S
U6 C23 2.882 . S
U6 O24 2.441 . S
U6 O25 2.420 . S
U6 O26 2.455 . S
U6 O27 2.449 . S
O7 U6 2.454 . S
O7 C9 1.353 . S
O8 U6 2.458 . S
O8 C9 1.286 . S
C9 U6 2.984 . S
C9 O7 1.353 . S
C9 O8 1.286 . S
C9 C11 1.363 . S
C10 C0 1.465 . S
C10 U6 2.847 . S
C10 O24 1.249 . S
C10 O25 1.202 . S
C11 C9 1.363 . S
C11 C13 1.408 . S
C11 C16 1.342 . S
C12 C13 1.310 . S
C12 C15 1.461 . S
C12 H32 0.932 . S
C13 C11 1.408 . S
C13 C12 1.310 . S
C13 H33 0.930 . S
C14 C15 1.474 . S
C14 C16 1.285 . S
C14 H34 0.929 . S
C15 C12 1.461 . S
C15 C14 1.474 . S
C16 C11 1.342 . S
C16 C14 1.285 . S
C16 H35 0.930 . S
C17 C20 1.424 . S
C17 C22 1.245 . S
C17 C23 1.428 . S
C18 C21 1.260 . S
C18 C22 1.477 . S
C18 H36 0.932 . S
C19 C20 1.384 . S
C19 C21 1.479 . S
C19 H37 0.929 . S
C20 C17 1.424 . S
C20 C19 1.384 . S
C20 H38 0.928 . S
C21 C18 1.260 . S
C21 C19 1.479 . S
C22 C17 1.245 . S
C22 C18 1.477 . S
C22 H39 0.932 . S
C23 U6 2.882 . S
C23 C17 1.428 . S
C23 O26 1.301 . S
C23 O27 1.282 . S
O24 U6 2.441 . S
O24 C10 1.249 . S
O25 U6 2.420 . S
O25 C10 1.202 . S
O26 U6 2.455 . S
O26 C23 1.301 . S
O27 U6 2.449 . S
O27 C23 1.282 . S
H28 C1 0.931 . S
H29 C3 0.929 . S
H30 C4 0.930 . S
H31 C5 0.931 . S
H32 C12 0.932 . S
H33 C13 0.930 . S
H34 C14 0.929 . S
H35 C16 0.930 . S
H36 C18 0.932 . S
H37 C19 0.929 . S
H38 C20 0.928 . S
H39 C22 0.932 . S
C40 C41 1.264 . S
C40 C45 1.479 . S
C40 C50 1.465 . S
C41 C40 1.264 . S
C41 C43 1.339 . S
C41 H68 0.931 . S
C42 C43 1.395 . S
C42 C44 1.320 . S
C43 C41 1.339 . S
C43 C42 1.395 . S
C43 H69 0.929 . S
C44 C42 1.320 . S
C44 C45 1.405 . S
C44 H70 0.930 . S
C45 C40 1.479 . S
C45 C44 1.405 . S
C45 H71 0.931 . S
U46 O47 2.454 . S
U46 O48 2.458 . S
U46 C49 2.984 . S
U46 C50 2.847 . S
U46 C63 2.882 . S
U46 O64 2.441 . S
U46 O65 2.420 . S
U46 O66 2.455 . S
U46 O67 2.449 . S
O47 U46 2.454 . S
O47 C49 1.353 . S
O48 U46 2.458 . S
O48 C49 1.286 . S
C49 U46 2.984 . S
C49 O47 1.353 . S
C49 O48 1.286 . S
C49 C51 1.363 . S
C50 C40 1.465 . S
C50 U46 2.847 . S
C50 O64 1.249 . S
C50 O65 1.202 . S
C51 C49 1.363 . S
C51 C53 1.408 . S
C51 C56 1.342 . S
C52 C53 1.310 . S
C52 C55 1.461 . S
C52 H72 0.932 . S
C53 C51 1.408 . S
C53 C52 1.310 . S
C53 H73 0.930 . S
C54 C55 1.474 . S
C54 C56 1.285 . S
C54 H74 0.929 . S
C55 C52 1.461 . S
C55 C54 1.474 . S
C56 C51 1.342 . S
C56 C54 1.285 . S
C56 H75 0.930 . S
C57 C60 1.424 . S
C57 C62 1.245 . S
C57 C63 1.428 . S
C58 C61 1.260 . S
C58 C62 1.477 . S
C58 H76 0.932 . S
C59 C60 1.384 . S
C59 C61 1.479 . S
C59 H77 0.929 . S
C60 C57 1.424 . S
C60 C59 1.384 . S
C60 H78 0.928 . S
C61 C58 1.260 . S
C61 C59 1.479 . S
C62 C57 1.245 . S
C62 C58 1.477 . S
C62 H79 0.932 . S
C63 U46 2.882 . S
C63 C57 1.428 . S
C63 O66 1.301 . S
C63 O67 1.282 . S
O64 U46 2.441 . S
O64 C50 1.249 . S
O65 U46 2.420 . S
O65 C50 1.202 . S
O66 U46 2.455 . S
O66 C63 1.301 . S
O67 U46 2.449 . S
O67 C63 1.282 . S
H68 C41 0.931 . S
H69 C43 0.929 . S
H70 C44 0.930 . S
H71 C45 0.931 . S
H72 C52 0.932 . S
H73 C53 0.930 . S
H74 C54 0.929 . S
H75 C56 0.930 . S
H76 C58 0.932 . S
H77 C59 0.929 . S
H78 C60 0.928 . S
H79 C62 0.932 . S
C80 C81 1.264 . S
C80 C85 1.479 . S
C80 C90 1.465 . S
C81 C80 1.264 . S
C81 C83 1.339 . S
C81 H108 0.931 . S
C82 C83 1.395 . S
C82 C84 1.320 . S
C83 C81 1.339 . S
C83 C82 1.395 . S
C83 H109 0.929 . S
C84 C82 1.320 . S
C84 C85 1.405 . S
C84 H110 0.930 . S
C85 C80 1.479 . S
C85 C84 1.405 . S
C85 H111 0.931 . S
U86 O87 2.454 . S
U86 O88 2.458 . S
U86 C89 2.984 . S
U86 C90 2.847 . S
U86 C103 2.882 . S
U86 O104 2.441 . S
U86 O105 2.420 . S
U86 O106 2.455 . S
U86 O107 2.449 . S
O87 U86 2.454 . S
O87 C89 1.353 . S
O88 U86 2.458 . S
O88 C89 1.286 . S
C89 U86 2.984 . S
C89 O87 1.353 . S
C89 O88 1.286 . S
C89 C91 1.363 . S
C90 C80 1.465 . S
C90 U86 2.847 . S
C90 O104 1.249 . S
C90 O105 1.202 . S
C91 C89 1.363 . S
C91 C93 1.408 . S
C91 C96 1.342 . S
C92 C93 1.310 . S
C92 C95 1.461 . S
C92 H112 0.932 . S
C93 C91 1.408 . S
C93 C92 1.310 . S
C93 H113 0.930 . S
C94 C95 1.474 . S
C94 C96 1.285 . S
C94 H114 0.929 . S
C95 C92 1.461 . S
C95 C94 1.474 . S
C96 C91 1.342 . S
C96 C94 1.285 . S
C96 H115 0.930 . S
C97 C100 1.424 . S
C97 C102 1.245 . S
C97 C103 1.428 . S
C98 C101 1.260 . S
C98 C102 1.477 . S
C98 H116 0.932 . S
C99 C100 1.384 . S
C99 C101 1.479 . S
C99 H117 0.929 . S
C100 C97 1.424 . S
C100 C99 1.384 . S
C100 H118 0.928 . S
C101 C98 1.260 . S
C101 C99 1.479 . S
C102 C97 1.245 . S
C102 C98 1.477 . S
C102 H119 0.932 . S
C103 U86 2.882 . S
C103 C97 1.428 . S
C103 O106 1.301 . S
C103 O107 1.282 . S
O104 U86 2.441 . S
O104 C90 1.249 . S
O105 U86 2.420 . S
O105 C90 1.202 . S
O106 U86 2.455 . S
O106 C103 1.301 . S
O107 U86 2.449 . S
O107 C103 1.282 . S
H108 C81 0.931 . S
H109 C83 0.929 . S
H110 C84 0.930 . S
H111 C85 0.931 . S
H112 C92 0.932 . S
H113 C93 0.930 . S
H114 C94 0.929 . S
H115 C96 0.930 . S
H116 C98 0.932 . S
H117 C99 0.929 . S
H118 C100 0.928 . S
H119 C102 0.932 . S
C120 C121 1.264 . S
C120 C125 1.479 . S
C120 C130 1.465 . S
C121 C120 1.264 . S
C121 C123 1.339 . S
C121 H148 0.931 . S
C122 C123 1.395 . S
C122 C124 1.320 . S
C123 C121 1.339 . S
C123 C122 1.395 . S
C123 H149 0.929 . S
C124 C122 1.320 . S
C124 C125 1.405 . S
C124 H150 0.930 . S
C125 C120 1.479 . S
C125 C124 1.405 . S
C125 H151 0.931 . S
U126 O127 2.454 . S
U126 O128 2.458 . S
U126 C129 2.984 . S
U126 C130 2.847 . S
U126 C143 2.882 . S
U126 O144 2.441 . S
U126 O145 2.420 . S
U126 O146 2.455 . S
U126 O147 2.449 . S
O127 U126 2.454 . S
O127 C129 1.353 . S
O128 U126 2.458 . S
O128 C129 1.286 . S
C129 U126 2.984 . S
C129 O127 1.353 . S
C129 O128 1.286 . S
C129 C131 1.363 . S
C130 C120 1.465 . S
C130 U126 2.847 . S
C130 O144 1.249 . S
C130 O145 1.202 . S
C131 C129 1.363 . S
C131 C133 1.408 . S
C131 C136 1.342 . S
C132 C133 1.310 . S
C132 C135 1.461 . S
C132 H152 0.932 . S
C133 C131 1.408 . S
C133 C132 1.310 . S
C133 H153 0.930 . S
C134 C135 1.474 . S
C134 C136 1.285 . S
C134 H154 0.929 . S
C135 C132 1.461 . S
C135 C134 1.474 . S
C136 C131 1.342 . S
C136 C134 1.285 . S
C136 H155 0.930 . S
C137 C140 1.424 . S
C137 C142 1.245 . S
C137 C143 1.428 . S
C138 C141 1.260 . S
C138 C142 1.477 . S
C138 H156 0.932 . S
C139 C140 1.384 . S
C139 C141 1.479 . S
C139 H157 0.929 . S
C140 C137 1.424 . S
C140 C139 1.384 . S
C140 H158 0.928 . S
C141 C138 1.260 . S
C141 C139 1.479 . S
C142 C137 1.245 . S
C142 C138 1.477 . S
C142 H159 0.932 . S
C143 U126 2.882 . S
C143 C137 1.428 . S
C143 O146 1.301 . S
C143 O147 1.282 . S
O144 U126 2.441 . S
O144 C130 1.249 . S
O145 U126 2.420 . S
O145 C130 1.202 . S
O146 U126 2.455 . S
O146 C143 1.301 . S
O147 U126 2.449 . S
O147 C143 1.282 . S
H148 C121 0.931 . S
H149 C123 0.929 . S
H150 C124 0.930 . S
H151 C125 0.931 . S
H152 C132 0.932 . S
H153 C133 0.930 . S
H154 C134 0.929 . S
H155 C136 0.930 . S
H156 C138 0.932 . S
H157 C139 0.929 . S
H158 C140 0.928 . S
H159 C142 0.932 . S
C160 C161 1.264 . S
C160 C165 1.479 . S
C160 C170 1.465 . S
C161 C160 1.264 . S
C161 C163 1.339 . S
C161 H188 0.931 . S
C162 C163 1.395 . S
C162 C164 1.320 . S
C163 C161 1.339 . S
C163 C162 1.395 . S
C163 H189 0.929 . S
C164 C162 1.320 . S
C164 C165 1.405 . S
C164 H190 0.930 . S
C165 C160 1.479 . S
C165 C164 1.405 . S
C165 H191 0.931 . S
U166 O167 2.454 . S
U166 O168 2.458 . S
U166 C169 2.984 . S
U166 C170 2.847 . S
U166 C183 2.882 . S
U166 O184 2.441 . S
U166 O185 2.420 . S
U166 O186 2.455 . S
U166 O187 2.449 . S
O167 U166 2.454 . S
O167 C169 1.353 . S
O168 U166 2.458 . S
O168 C169 1.286 . S
C169 U166 2.984 . S
C169 O167 1.353 . S
C169 O168 1.286 . S
C169 C171 1.363 . S
C170 C160 1.465 . S
C170 U166 2.847 . S
C170 O184 1.249 . S
C170 O185 1.202 . S
C171 C169 1.363 . S
C171 C173 1.408 . S
C171 C176 1.342 . S
C172 C173 1.310 . S
C172 C175 1.461 . S
C172 H192 0.932 . S
C173 C171 1.408 . S
C173 C172 1.310 . S
C173 H193 0.930 . S
C174 C175 1.474 . S
C174 C176 1.285 . S
C174 H194 0.929 . S
C175 C172 1.461 . S
C175 C174 1.474 . S
C176 C171 1.342 . S
C176 C174 1.285 . S
C176 H195 0.930 . S
C177 C180 1.424 . S
C177 C182 1.245 . S
C177 C183 1.428 . S
C178 C181 1.260 . S
C178 C182 1.477 . S
C178 H196 0.932 . S
C179 C180 1.384 . S
C179 C181 1.479 . S
C179 H197 0.929 . S
C180 C177 1.424 . S
C180 C179 1.384 . S
C180 H198 0.928 . S
C181 C178 1.260 . S
C181 C179 1.479 . S
C182 C177 1.245 . S
C182 C178 1.477 . S
C182 H199 0.932 . S
C183 U166 2.882 . S
C183 C177 1.428 . S
C183 O186 1.301 . S
C183 O187 1.282 . S
O184 U166 2.441 . S
O184 C170 1.249 . S
O185 U166 2.420 . S
O185 C170 1.202 . S
O186 U166 2.455 . S
O186 C183 1.301 . S
O187 U166 2.449 . S
O187 C183 1.282 . S
H188 C161 0.931 . S
H189 C163 0.929 . S
H190 C164 0.930 . S
H191 C165 0.931 . S
H192 C172 0.932 . S
H193 C173 0.930 . S
H194 C174 0.929 . S
H195 C176 0.930 . S
H196 C178 0.932 . S
H197 C179 0.929 . S
H198 C180 0.928 . S
H199 C182 0.932 . S
C200 C201 1.264 . S
C200 C205 1.479 . S
C200 C210 1.465 . S
C201 C200 1.264 . S
C201 C203 1.339 . S
C201 H228 0.931 . S
C202 C203 1.395 . S
C202 C204 1.320 . S
C203 C201 1.339 . S
C203 C202 1.395 . S
C203 H229 0.929 . S
C204 C202 1.320 . S
C204 C205 1.405 . S
C204 H230 0.930 . S
C205 C200 1.479 . S
C205 C204 1.405 . S
C205 H231 0.931 . S
U206 O207 2.454 . S
U206 O208 2.458 . S
U206 C209 2.984 . S
U206 C210 2.847 . S
U206 C223 2.882 . S
U206 O224 2.441 . S
U206 O225 2.420 . S
U206 O226 2.455 . S
U206 O227 2.449 . S
O207 U206 2.454 . S
O207 C209 1.353 . S
O208 U206 2.458 . S
O208 C209 1.286 . S
C209 U206 2.984 . S
C209 O207 1.353 . S
C209 O208 1.286 . S
C209 C211 1.363 . S
C210 C200 1.465 . S
C210 U206 2.847 . S
C210 O224 1.249 . S
C210 O225 1.202 . S
C211 C209 1.363 . S
C211 C213 1.408 . S
C211 C216 1.342 . S
C212 C213 1.310 . S
C212 C215 1.461 . S
C212 H232 0.932 . S
C213 C211 1.408 . S
C213 C212 1.310 . S
C213 H233 0.930 . S
C214 C215 1.474 . S
C214 C216 1.285 . S
C214 H234 0.929 . S
C215 C212 1.461 . S
C215 C214 1.474 . S
C216 C211 1.342 . S
C216 C214 1.285 . S
C216 H235 0.930 . S
C217 C220 1.424 . S
C217 C222 1.245 . S
C217 C223 1.428 . S
C218 C221 1.260 . S
C218 C222 1.477 . S
C218 H236 0.932 . S
C219 C220 1.384 . S
C219 C221 1.479 . S
C219 H237 0.929 . S
C220 C217 1.424 . S
C220 C219 1.384 . S
C220 H238 0.928 . S
C221 C218 1.260 . S
C221 C219 1.479 . S
C222 C217 1.245 . S
C222 C218 1.477 . S
C222 H239 0.932 . S
C223 U206 2.882 . S
C223 C217 1.428 . S
C223 O226 1.301 . S
C223 O227 1.282 . S
O224 U206 2.441 . S
O224 C210 1.249 . S
O225 U206 2.420 . S
O225 C210 1.202 . S
O226 U206 2.455 . S
O226 C223 1.301 . S
O227 U206 2.449 . S
O227 C223 1.282 . S
H228 C201 0.931 . S
H229 C203 0.929 . S
H230 C204 0.930 . S
H231 C205 0.931 . S
H232 C212 0.932 . S
H233 C213 0.930 . S
H234 C214 0.929 . S
H235 C216 0.930 . S
H236 C218 0.932 . S
H237 C219 0.929 . S
H238 C220 0.928 . S
H239 C222 0.932 . S
C240 C241 1.264 . S
C240 C245 1.479 . S
C240 C250 1.465 . S
C241 C240 1.264 . S
C241 C243 1.339 . S
C241 H268 0.931 . S
C242 C243 1.395 . S
C242 C244 1.320 . S
C243 C241 1.339 . S
C243 C242 1.395 . S
C243 H269 0.929 . S
C244 C242 1.320 . S
C244 C245 1.405 . S
C244 H270 0.930 . S
C245 C240 1.479 . S
C245 C244 1.405 . S
C245 H271 0.931 . S
U246 O247 2.454 . S
U246 O248 2.458 . S
U246 C249 2.984 . S
U246 C250 2.847 . S
U246 C263 2.882 . S
U246 O264 2.441 . S
U246 O265 2.420 . S
U246 O266 2.455 . S
U246 O267 2.449 . S
O247 U246 2.454 . S
O247 C249 1.353 . S
O248 U246 2.458 . S
O248 C249 1.286 . S
C249 U246 2.984 . S
C249 O247 1.353 . S
C249 O248 1.286 . S
C249 C251 1.363 . S
C250 C240 1.465 . S
C250 U246 2.847 . S
C250 O264 1.249 . S
C250 O265 1.202 . S
C251 C249 1.363 . S
C251 C253 1.408 . S
C251 C256 1.342 . S
C252 C253 1.310 . S
C252 C255 1.461 . S
C252 H272 0.932 . S
C253 C251 1.408 . S
C253 C252 1.310 . S
C253 H273 0.930 . S
C254 C255 1.474 . S
C254 C256 1.285 . S
C254 H274 0.929 . S
C255 C252 1.461 . S
C255 C254 1.474 . S
C256 C251 1.342 . S
C256 C254 1.285 . S
C256 H275 0.930 . S
C257 C260 1.424 . S
C257 C262 1.245 . S
C257 C263 1.428 . S
C258 C261 1.260 . S
C258 C262 1.477 . S
C258 H276 0.932 . S
C259 C260 1.384 . S
C259 C261 1.479 . S
C259 H277 0.929 . S
C260 C257 1.424 . S
C260 C259 1.384 . S
C260 H278 0.928 . S
C261 C258 1.260 . S
C261 C259 1.479 . S
C262 C257 1.245 . S
C262 C258 1.477 . S
C262 H279 0.932 . S
C263 U246 2.882 . S
C263 C257 1.428 . S
C263 O266 1.301 . S
C263 O267 1.282 . S
O264 U246 2.441 . S
O264 C250 1.249 . S
O265 U246 2.420 . S
O265 C250 1.202 . S
O266 U246 2.455 . S
O266 C263 1.301 . S
O267 U246 2.449 . S
O267 C263 1.282 . S
H268 C241 0.931 . S
H269 C243 0.929 . S
H270 C244 0.930 . S
H271 C245 0.931 . S
H272 C252 0.932 . S
H273 C253 0.930 . S
H274 C254 0.929 . S
H275 C256 0.930 . S
H276 C258 0.932 . S
H277 C259 0.929 . S
H278 C260 0.928 . S
H279 C262 0.932 . S
C280 C281 1.264 . S
C280 C285 1.479 . S
C280 C290 1.465 . S
C281 C280 1.264 . S
C281 C283 1.339 . S
C281 H308 0.931 . S
C282 C283 1.395 . S
C282 C284 1.320 . S
C283 C281 1.339 . S
C283 C282 1.395 . S
C283 H309 0.929 . S
C284 C282 1.320 . S
C284 C285 1.405 . S
C284 H310 0.930 . S
C285 C280 1.479 . S
C285 C284 1.405 . S
C285 H311 0.931 . S
U286 O287 2.454 . S
U286 O288 2.458 . S
U286 C289 2.984 . S
U286 C290 2.847 . S
U286 C303 2.882 . S
U286 O304 2.441 . S
U286 O305 2.420 . S
U286 O306 2.455 . S
U286 O307 2.449 . S
O287 U286 2.454 . S
O287 C289 1.353 . S
O288 U286 2.458 . S
O288 C289 1.286 . S
C289 U286 2.984 . S
C289 O287 1.353 . S
C289 O288 1.286 . S
C289 C291 1.363 . S
C290 C280 1.465 . S
C290 U286 2.847 . S
C290 O304 1.249 . S
C290 O305 1.202 . S
C291 C289 1.363 . S
C291 C293 1.408 . S
C291 C296 1.342 . S
C292 C293 1.310 . S
C292 C295 1.461 . S
C292 H312 0.932 . S
C293 C291 1.408 . S
C293 C292 1.310 . S
C293 H313 0.930 . S
C294 C295 1.474 . S
C294 C296 1.285 . S
C294 H314 0.929 . S
C295 C292 1.461 . S
C295 C294 1.474 . S
C296 C291 1.342 . S
C296 C294 1.285 . S
C296 H315 0.930 . S
C297 C300 1.424 . S
C297 C302 1.245 . S
C297 C303 1.428 . S
C298 C301 1.260 . S
C298 C302 1.477 . S
C298 H316 0.932 . S
C299 C300 1.384 . S
C299 C301 1.479 . S
C299 H317 0.929 . S
C300 C297 1.424 . S
C300 C299 1.384 . S
C300 H318 0.928 . S
C301 C298 1.260 . S
C301 C299 1.479 . S
C302 C297 1.245 . S
C302 C298 1.477 . S
C302 H319 0.932 . S
C303 U286 2.882 . S
C303 C297 1.428 . S
C303 O306 1.301 . S
C303 O307 1.282 . S
O304 U286 2.441 . S
O304 C290 1.249 . S
O305 U286 2.420 . S
O305 C290 1.202 . S
O306 U286 2.455 . S
O306 C303 1.301 . S
O307 U286 2.449 . S
O307 C303 1.282 . S
H308 C281 0.931 . S
H309 C283 0.929 . S
H310 C284 0.930 . S
H311 C285 0.931 . S
H312 C292 0.932 . S
H313 C293 0.930 . S
H314 C294 0.929 . S
H315 C296 0.930 . S
H316 C298 0.932 . S
H317 C299 0.929 . S
H318 C300 0.928 . S
H319 C302 0.932 . S
C320 C321 1.264 . S
C320 C325 1.479 . S
C320 C330 1.465 . S
C321 C320 1.264 . S
C321 C323 1.339 . S
C321 H348 0.931 . S
C322 C323 1.395 . S
C322 C324 1.320 . S
C323 C321 1.339 . S
C323 C322 1.395 . S
C323 H349 0.929 . S
C324 C322 1.320 . S
C324 C325 1.405 . S
C324 H350 0.930 . S
C325 C320 1.479 . S
C325 C324 1.405 . S
C325 H351 0.931 . S
U326 O327 2.454 . S
U326 O328 2.458 . S
U326 C329 2.984 . S
U326 C330 2.847 . S
U326 C343 2.882 . S
U326 O344 2.441 . S
U326 O345 2.420 . S
U326 O346 2.455 . S
U326 O347 2.449 . S
O327 U326 2.454 . S
O327 C329 1.353 . S
O328 U326 2.458 . S
O328 C329 1.286 . S
C329 U326 2.984 . S
C329 O327 1.353 . S
C329 O328 1.286 . S
C329 C331 1.363 . S
C330 C320 1.465 . S
C330 U326 2.847 . S
C330 O344 1.249 . S
C330 O345 1.202 . S
C331 C329 1.363 . S
C331 C333 1.408 . S
C331 C336 1.342 . S
C332 C333 1.310 . S
C332 C335 1.461 . S
C332 H352 0.932 . S
C333 C331 1.408 . S
C333 C332 1.310 . S
C333 H353 0.930 . S
C334 C335 1.474 . S
C334 C336 1.285 . S
C334 H354 0.929 . S
C335 C332 1.461 . S
C335 C334 1.474 . S
C336 C331 1.342 . S
C336 C334 1.285 . S
C336 H355 0.930 . S
C337 C340 1.424 . S
C337 C342 1.245 . S
C337 C343 1.428 . S
C338 C341 1.260 . S
C338 C342 1.477 . S
C338 H356 0.932 . S
C339 C340 1.384 . S
C339 C341 1.479 . S
C339 H357 0.929 . S
C340 C337 1.424 . S
C340 C339 1.384 . S
C340 H358 0.928 . S
C341 C338 1.260 . S
C341 C339 1.479 . S
C342 C337 1.245 . S
C342 C338 1.477 . S
C342 H359 0.932 . S
C343 U326 2.882 . S
C343 C337 1.428 . S
C343 O346 1.301 . S
C343 O347 1.282 . S
O344 U326 2.441 . S
O344 C330 1.249 . S
O345 U326 2.420 . S
O345 C330 1.202 . S
O346 U326 2.455 . S
O346 C343 1.301 . S
O347 U326 2.449 . S
O347 C343 1.282 . S
H348 C321 0.931 . S
H349 C323 0.929 . S
H350 C324 0.930 . S
H351 C325 0.931 . S
H352 C332 0.932 . S
H353 C333 0.930 . S
H354 C334 0.929 . S
H355 C336 0.930 . S
H356 C338 0.932 . S
H357 C339 0.929 . S
H358 C340 0.928 . S
H359 C342 0.932 . S
C360 C361 1.264 . S
C360 C365 1.479 . S
C360 C370 1.465 . S
C361 C360 1.264 . S
C361 C363 1.339 . S
C361 H388 0.931 . S
C362 C363 1.395 . S
C362 C364 1.320 . S
C363 C361 1.339 . S
C363 C362 1.395 . S
C363 H389 0.929 . S
C364 C362 1.320 . S
C364 C365 1.405 . S
C364 H390 0.930 . S
C365 C360 1.479 . S
C365 C364 1.405 . S
C365 H391 0.931 . S
U366 O367 2.454 . S
U366 O368 2.458 . S
U366 C369 2.984 . S
U366 C370 2.847 . S
U366 C383 2.882 . S
U366 O384 2.441 . S
U366 O385 2.420 . S
U366 O386 2.455 . S
U366 O387 2.449 . S
O367 U366 2.454 . S
O367 C369 1.353 . S
O368 U366 2.458 . S
O368 C369 1.286 . S
C369 U366 2.984 . S
C369 O367 1.353 . S
C369 O368 1.286 . S
C369 C371 1.363 . S
C370 C360 1.465 . S
C370 U366 2.847 . S
C370 O384 1.249 . S
C370 O385 1.202 . S
C371 C369 1.363 . S
C371 C373 1.408 . S
C371 C376 1.342 . S
C372 C373 1.310 . S
C372 C375 1.461 . S
C372 H392 0.932 . S
C373 C371 1.408 . S
C373 C372 1.310 . S
C373 H393 0.930 . S
C374 C375 1.474 . S
C374 C376 1.285 . S
C374 H394 0.929 . S
C375 C372 1.461 . S
C375 C374 1.474 . S
C376 C371 1.342 . S
C376 C374 1.285 . S
C376 H395 0.930 . S
C377 C380 1.424 . S
C377 C382 1.245 . S
C377 C383 1.428 . S
C378 C381 1.260 . S
C378 C382 1.477 . S
C378 H396 0.932 . S
C379 C380 1.384 . S
C379 C381 1.479 . S
C379 H397 0.929 . S
C380 C377 1.424 . S
C380 C379 1.384 . S
C380 H398 0.928 . S
C381 C378 1.260 . S
C381 C379 1.479 . S
C382 C377 1.245 . S
C382 C378 1.477 . S
C382 H399 0.932 . S
C383 U366 2.882 . S
C383 C377 1.428 . S
C383 O386 1.301 . S
C383 O387 1.282 . S
O384 U366 2.441 . S
O384 C370 1.249 . S
O385 U366 2.420 . S
O385 C370 1.202 . S
O386 U366 2.455 . S
O386 C383 1.301 . S
O387 U366 2.449 . S
O387 C383 1.282 . S
H388 C361 0.931 . S
H389 C363 0.929 . S
H390 C364 0.930 . S
H391 C365 0.931 . S
H392 C372 0.932 . S
H393 C373 0.930 . S
H394 C374 0.929 . S
H395 C376 0.930 . S
H396 C378 0.932 . S
H397 C379 0.929 . S
H398 C380 0.928 . S
H399 C382 0.932 . S
C400 C401 1.264 . S
C400 C405 1.479 . S
C400 C410 1.465 . S
C401 C400 1.264 . S
C401 C403 1.339 . S
C401 H428 0.931 . S
C402 C403 1.395 . S
C402 C404 1.320 . S
C403 C401 1.339 . S
C403 C402 1.395 . S
C403 H429 0.929 . S
C404 C402 1.320 . S
C404 C405 1.405 . S
C404 H430 0.930 . S
C405 C400 1.479 . S
C405 C404 1.405 . S
C405 H431 0.931 . S
U406 O407 2.454 . S
U406 O408 2.458 . S
U406 C409 2.984 . S
U406 C410 2.847 . S
U406 C423 2.882 . S
U406 O424 2.441 . S
U406 O425 2.420 . S
U406 O426 2.455 . S
U406 O427 2.449 . S
O407 U406 2.454 . S
O407 C409 1.353 . S
O408 U406 2.458 . S
O408 C409 1.286 . S
C409 U406 2.984 . S
C409 O407 1.353 . S
C409 O408 1.286 . S
C409 C411 1.363 . S
C410 C400 1.465 . S
C410 U406 2.847 . S
C410 O424 1.249 . S
C410 O425 1.202 . S
C411 C409 1.363 . S
C411 C413 1.408 . S
C411 C416 1.342 . S
C412 C413 1.310 . S
C412 C415 1.461 . S
C412 H432 0.932 . S
C413 C411 1.408 . S
C413 C412 1.310 . S
C413 H433 0.930 . S
C414 C415 1.474 . S
C414 C416 1.285 . S
C414 H434 0.929 . S
C415 C412 1.461 . S
C415 C414 1.474 . S
C416 C411 1.342 . S
C416 C414 1.285 . S
C416 H435 0.930 . S
C417 C420 1.424 . S
C417 C422 1.245 . S
C417 C423 1.428 . S
C418 C421 1.260 . S
C418 C422 1.477 . S
C418 H436 0.932 . S
C419 C420 1.384 . S
C419 C421 1.479 . S
C419 H437 0.929 . S
C420 C417 1.424 . S
C420 C419 1.384 . S
C420 H438 0.928 . S
C421 C418 1.260 . S
C421 C419 1.479 . S
C422 C417 1.245 . S
C422 C418 1.477 . S
C422 H439 0.932 . S
C423 U406 2.882 . S
C423 C417 1.428 . S
C423 O426 1.301 . S
C423 O427 1.282 . S
O424 U406 2.441 . S
O424 C410 1.249 . S
O425 U406 2.420 . S
O425 C410 1.202 . S
O426 U406 2.455 . S
O426 C423 1.301 . S
O427 U406 2.449 . S
O427 C423 1.282 . S
H428 C401 0.931 . S
H429 C403 0.929 . S
H430 C404 0.930 . S
H431 C405 0.931 . S
H432 C412 0.932 . S
H433 C413 0.930 . S
H434 C414 0.929 . S
H435 C416 0.930 . S
H436 C418 0.932 . S
H437 C419 0.929 . S
H438 C420 0.928 . S
H439 C422 0.932 . S
C440 C441 1.264 . S
C440 C445 1.479 . S
C440 C450 1.465 . S
C441 C440 1.264 . S
C441 C443 1.339 . S
C441 H468 0.931 . S
C442 C443 1.395 . S
C442 C444 1.320 . S
C443 C441 1.339 . S
C443 C442 1.395 . S
C443 H469 0.929 . S
C444 C442 1.320 . S
C444 C445 1.405 . S
C444 H470 0.930 . S
C445 C440 1.479 . S
C445 C444 1.405 . S
C445 H471 0.931 . S
U446 O447 2.454 . S
U446 O448 2.458 . S
U446 C449 2.984 . S
U446 C450 2.847 . S
U446 C463 2.882 . S
U446 O464 2.441 . S
U446 O465 2.420 . S
U446 O466 2.455 . S
U446 O467 2.449 . S
O447 U446 2.454 . S
O447 C449 1.353 . S
O448 U446 2.458 . S
O448 C449 1.286 . S
C449 U446 2.984 . S
C449 O447 1.353 . S
C449 O448 1.286 . S
C449 C451 1.363 . S
C450 C440 1.465 . S
C450 U446 2.847 . S
C450 O464 1.249 . S
C450 O465 1.202 . S
C451 C449 1.363 . S
C451 C453 1.408 . S
C451 C456 1.342 . S
C452 C453 1.310 . S
C452 C455 1.461 . S
C452 H472 0.932 . S
C453 C451 1.408 . S
C453 C452 1.310 . S
C453 H473 0.930 . S
C454 C455 1.474 . S
C454 C456 1.285 . S
C454 H474 0.929 . S
C455 C452 1.461 . S
C455 C454 1.474 . S
C456 C451 1.342 . S
C456 C454 1.285 . S
C456 H475 0.930 . S
C457 C460 1.424 . S
C457 C462 1.245 . S
C457 C463 1.428 . S
C458 C461 1.260 . S
C458 C462 1.477 . S
C458 H476 0.932 . S
C459 C460 1.384 . S
C459 C461 1.479 . S
C459 H477 0.929 . S
C460 C457 1.424 . S
C460 C459 1.384 . S
C460 H478 0.928 . S
C461 C458 1.260 . S
C461 C459 1.479 . S
C462 C457 1.245 . S
C462 C458 1.477 . S
C462 H479 0.932 . S
C463 U446 2.882 . S
C463 C457 1.428 . S
C463 O466 1.301 . S
C463 O467 1.282 . S
O464 U446 2.441 . S
O464 C450 1.249 . S
O465 U446 2.420 . S
O465 C450 1.202 . S
O466 U446 2.455 . S
O466 C463 1.301 . S
O467 U446 2.449 . S
O467 C463 1.282 . S
H468 C441 0.931 . S
H469 C443 0.929 . S
H470 C444 0.930 . S
H471 C445 0.931 . S
H472 C452 0.932 . S
H473 C453 0.930 . S
H474 C454 0.929 . S
H475 C456 0.930 . S
H476 C458 0.932 . S
H477 C459 0.929 . S
H478 C460 0.928 . S
H479 C462 0.932 . S
C480 C481 1.264 . S
C480 C485 1.479 . S
C480 C490 1.465 . S
C481 C480 1.264 . S
C481 C483 1.339 . S
C481 H508 0.931 . S
C482 C483 1.395 . S
C482 C484 1.320 . S
C483 C481 1.339 . S
C483 C482 1.395 . S
C483 H509 0.929 . S
C484 C482 1.320 . S
C484 C485 1.405 . S
C484 H510 0.930 . S
C485 C480 1.479 . S
C485 C484 1.405 . S
C485 H511 0.931 . S
U486 O487 2.454 . S
U486 O488 2.458 . S
U486 C489 2.984 . S
U486 C490 2.847 . S
U486 C503 2.882 . S
U486 O504 2.441 . S
U486 O505 2.420 . S
U486 O506 2.455 . S
U486 O507 2.449 . S
O487 U486 2.454 . S
O487 C489 1.353 . S
O488 U486 2.458 . S
O488 C489 1.286 . S
C489 U486 2.984 . S
C489 O487 1.353 . S
C489 O488 1.286 . S
C489 C491 1.363 . S
C490 C480 1.465 . S
C490 U486 2.847 . S
C490 O504 1.249 . S
C490 O505 1.202 . S
C491 C489 1.363 . S
C491 C493 1.408 . S
C491 C496 1.342 . S
C492 C493 1.310 . S
C492 C495 1.461 . S
C492 H512 0.932 . S
C493 C491 1.408 . S
C493 C492 1.310 . S
C493 H513 0.930 . S
C494 C495 1.474 . S
C494 C496 1.285 . S
C494 H514 0.929 . S
C495 C492 1.461 . S
C495 C494 1.474 . S
C496 C491 1.342 . S
C496 C494 1.285 . S
C496 H515 0.930 . S
C497 C500 1.424 . S
C497 C502 1.245 . S
C497 C503 1.428 . S
C498 C501 1.260 . S
C498 C502 1.477 . S
C498 H516 0.932 . S
C499 C500 1.384 . S
C499 C501 1.479 . S
C499 H517 0.929 . S
C500 C497 1.424 . S
C500 C499 1.384 . S
C500 H518 0.928 . S
C501 C498 1.260 . S
C501 C499 1.479 . S
C502 C497 1.245 . S
C502 C498 1.477 . S
C502 H519 0.932 . S
C503 U486 2.882 . S
C503 C497 1.428 . S
C503 O506 1.301 . S
C503 O507 1.282 . S
O504 U486 2.441 . S
O504 C490 1.249 . S
O505 U486 2.420 . S
O505 C490 1.202 . S
O506 U486 2.455 . S
O506 C503 1.301 . S
O507 U486 2.449 . S
O507 C503 1.282 . S
H508 C481 0.931 . S
H509 C483 0.929 . S
H510 C484 0.930 . S
H511 C485 0.931 . S
H512 C492 0.932 . S
H513 C493 0.930 . S
H514 C494 0.929 . S
H515 C496 0.930 . S
H516 C498 0.932 . S
H517 C499 0.929 . S
H518 C500 0.928 . S
H519 C502 0.932 . S
C520 C521 1.264 . S
C520 C525 1.479 . S
C520 C530 1.465 . S
C521 C520 1.264 . S
C521 C523 1.339 . S
C521 H548 0.931 . S
C522 C523 1.395 . S
C522 C524 1.320 . S
C523 C521 1.339 . S
C523 C522 1.395 . S
C523 H549 0.929 . S
C524 C522 1.320 . S
C524 C525 1.405 . S
C524 H550 0.930 . S
C525 C520 1.479 . S
C525 C524 1.405 . S
C525 H551 0.931 . S
U526 O527 2.454 . S
U526 O528 2.458 . S
U526 C529 2.984 . S
U526 C530 2.847 . S
U526 C543 2.882 . S
U526 O544 2.441 . S
U526 O545 2.420 . S
U526 O546 2.455 . S
U526 O547 2.449 . S
O527 U526 2.454 . S
O527 C529 1.353 . S
O528 U526 2.458 . S
O528 C529 1.286 . S
C529 U526 2.984 . S
C529 O527 1.353 . S
C529 O528 1.286 . S
C529 C531 1.363 . S
C530 C520 1.465 . S
C530 U526 2.847 . S
C530 O544 1.249 . S
C530 O545 1.202 . S
C531 C529 1.363 . S
C531 C533 1.408 . S
C531 C536 1.342 . S
C532 C533 1.310 . S
C532 C535 1.461 . S
C532 H552 0.932 . S
C533 C531 1.408 . S
C533 C532 1.310 . S
C533 H553 0.930 . S
C534 C535 1.474 . S
C534 C536 1.285 . S
C534 H554 0.929 . S
C535 C532 1.461 . S
C535 C534 1.474 . S
C536 C531 1.342 . S
C536 C534 1.285 . S
C536 H555 0.930 . S
C537 C540 1.424 . S
C537 C542 1.245 . S
C537 C543 1.428 . S
C538 C541 1.260 . S
C538 C542 1.477 . S
C538 H556 0.932 . S
C539 C540 1.384 . S
C539 C541 1.479 . S
C539 H557 0.929 . S
C540 C537 1.424 . S
C540 C539 1.384 . S
C540 H558 0.928 . S
C541 C538 1.260 . S
C541 C539 1.479 . S
C542 C537 1.245 . S
C542 C538 1.477 . S
C542 H559 0.932 . S
C543 U526 2.882 . S
C543 C537 1.428 . S
C543 O546 1.301 . S
C543 O547 1.282 . S
O544 U526 2.441 . S
O544 C530 1.249 . S
O545 U526 2.420 . S
O545 C530 1.202 . S
O546 U526 2.455 . S
O546 C543 1.301 . S
O547 U526 2.449 . S
O547 C543 1.282 . S
H548 C521 0.931 . S
H549 C523 0.929 . S
H550 C524 0.930 . S
H551 C525 0.931 . S
H552 C532 0.932 . S
H553 C533 0.930 . S
H554 C534 0.929 . S
H555 C536 0.930 . S
H556 C538 0.932 . S
H557 C539 0.929 . S
H558 C540 0.928 . S
H559 C542 0.932 . S
C560 C561 1.264 . S
C560 C565 1.479 . S
C560 C570 1.465 . S
C561 C560 1.264 . S
C561 C563 1.339 . S
C561 H588 0.931 . S
C562 C563 1.395 . S
C562 C564 1.320 . S
C563 C561 1.339 . S
C563 C562 1.395 . S
C563 H589 0.929 . S
C564 C562 1.320 . S
C564 C565 1.405 . S
C564 H590 0.930 . S
C565 C560 1.479 . S
C565 C564 1.405 . S
C565 H591 0.931 . S
U566 O567 2.454 . S
U566 O568 2.458 . S
U566 C569 2.984 . S
U566 C570 2.847 . S
U566 C583 2.882 . S
U566 O584 2.441 . S
U566 O585 2.420 . S
U566 O586 2.455 . S
U566 O587 2.449 . S
O567 U566 2.454 . S
O567 C569 1.353 . S
O568 U566 2.458 . S
O568 C569 1.286 . S
C569 U566 2.984 . S
C569 O567 1.353 . S
C569 O568 1.286 . S
C569 C571 1.363 . S
C570 C560 1.465 . S
C570 U566 2.847 . S
C570 O584 1.249 . S
C570 O585 1.202 . S
C571 C569 1.363 . S
C571 C573 1.408 . S
C571 C576 1.342 . S
C572 C573 1.310 . S
C572 C575 1.461 . S
C572 H592 0.932 . S
C573 C571 1.408 . S
C573 C572 1.310 . S
C573 H593 0.930 . S
C574 C575 1.474 . S
C574 C576 1.285 . S
C574 H594 0.929 . S
C575 C572 1.461 . S
C575 C574 1.474 . S
C576 C571 1.342 . S
C576 C574 1.285 . S
C576 H595 0.930 . S
C577 C580 1.424 . S
C577 C582 1.245 . S
C577 C583 1.428 . S
C578 C581 1.260 . S
C578 C582 1.477 . S
C578 H596 0.932 . S
C579 C580 1.384 . S
C579 C581 1.479 . S
C579 H597 0.929 . S
C580 C577 1.424 . S
C580 C579 1.384 . S
C580 H598 0.928 . S
C581 C578 1.260 . S
C581 C579 1.479 . S
C582 C577 1.245 . S
C582 C578 1.477 . S
C582 H599 0.932 . S
C583 U566 2.882 . S
C583 C577 1.428 . S
C583 O586 1.301 . S
C583 O587 1.282 . S
O584 U566 2.441 . S
O584 C570 1.249 . S
O585 U566 2.420 . S
O585 C570 1.202 . S
O586 U566 2.455 . S
O586 C583 1.301 . S
O587 U566 2.449 . S
O587 C583 1.282 . S
H588 C561 0.931 . S
H589 C563 0.929 . S
H590 C564 0.930 . S
H591 C565 0.931 . S
H592 C572 0.932 . S
H593 C573 0.930 . S
H594 C574 0.929 . S
H595 C576 0.930 . S
H596 C578 0.932 . S
H597 C579 0.929 . S
H598 C580 0.928 . S
H599 C582 0.932 . S
C600 C601 1.264 . S
C600 C605 1.479 . S
C600 C610 1.465 . S
C601 C600 1.264 . S
C601 C603 1.339 . S
C601 H628 0.931 . S
C602 C603 1.395 . S
C602 C604 1.320 . S
C603 C601 1.339 . S
C603 C602 1.395 . S
C603 H629 0.929 . S
C604 C602 1.320 . S
C604 C605 1.405 . S
C604 H630 0.930 . S
C605 C600 1.479 . S
C605 C604 1.405 . S
C605 H631 0.931 . S
U606 O607 2.454 . S
U606 O608 2.458 . S
U606 C609 2.984 . S
U606 C610 2.847 . S
U606 C623 2.882 . S
U606 O624 2.441 . S
U606 O625 2.420 . S
U606 O626 2.455 . S
U606 O627 2.449 . S
O607 U606 2.454 . S
O607 C609 1.353 . S
O608 U606 2.458 . S
O608 C609 1.286 . S
C609 U606 2.984 . S
C609 O607 1.353 . S
C609 O608 1.286 . S
C609 C611 1.363 . S
C610 C600 1.465 . S
C610 U606 2.847 . S
C610 O624 1.249 . S
C610 O625 1.202 . S
C611 C609 1.363 . S
C611 C613 1.408 . S
C611 C616 1.342 . S
C612 C613 1.310 . S
C612 C615 1.461 . S
C612 H632 0.932 . S
C613 C611 1.408 . S
C613 C612 1.310 . S
C613 H633 0.930 . S
C614 C615 1.474 . S
C614 C616 1.285 . S
C614 H634 0.929 . S
C615 C612 1.461 . S
C615 C614 1.474 . S
C616 C611 1.342 . S
C616 C614 1.285 . S
C616 H635 0.930 . S
C617 C620 1.424 . S
C617 C622 1.245 . S
C617 C623 1.428 . S
C618 C621 1.260 . S
C618 C622 1.477 . S
C618 H636 0.932 . S
C619 C620 1.384 . S
C619 C621 1.479 . S
C619 H637 0.929 . S
C620 C617 1.424 . S
C620 C619 1.384 . S
C620 H638 0.928 . S
C621 C618 1.260 . S
C621 C619 1.479 . S
C622 C617 1.245 . S
C622 C618 1.477 . S
C622 H639 0.932 . S
C623 U606 2.882 . S
C623 C617 1.428 . S
C623 O626 1.301 . S
C623 O627 1.282 . S
O624 U606 2.441 . S
O624 C610 1.249 . S
O625 U606 2.420 . S
O625 C610 1.202 . S
O626 U606 2.455 . S
O626 C623 1.301 . S
O627 U606 2.449 . S
O627 C623 1.282 . S
H628 C601 0.931 . S
H629 C603 0.929 . S
H630 C604 0.930 . S
H631 C605 0.931 . S
H632 C612 0.932 . S
H633 C613 0.930 . S
H634 C614 0.929 . S
H635 C616 0.930 . S
H636 C618 0.932 . S
H637 C619 0.929 . S
H638 C620 0.928 . S
H639 C622 0.932 . S
C640 C641 1.264 . S
C640 C645 1.479 . S
C640 C650 1.465 . S
C641 C640 1.264 . S
C641 C643 1.339 . S
C641 H668 0.931 . S
C642 C643 1.395 . S
C642 C644 1.320 . S
C643 C641 1.339 . S
C643 C642 1.395 . S
C643 H669 0.929 . S
C644 C642 1.320 . S
C644 C645 1.405 . S
C644 H670 0.930 . S
C645 C640 1.479 . S
C645 C644 1.405 . S
C645 H671 0.931 . S
U646 O647 2.454 . S
U646 O648 2.458 . S
U646 C649 2.984 . S
U646 C650 2.847 . S
U646 C663 2.882 . S
U646 O664 2.441 . S
U646 O665 2.420 . S
U646 O666 2.455 . S
U646 O667 2.449 . S
O647 U646 2.454 . S
O647 C649 1.353 . S
O648 U646 2.458 . S
O648 C649 1.286 . S
C649 U646 2.984 . S
C649 O647 1.353 . S
C649 O648 1.286 . S
C649 C651 1.363 . S
C650 C640 1.465 . S
C650 U646 2.847 . S
C650 O664 1.249 . S
C650 O665 1.202 . S
C651 C649 1.363 . S
C651 C653 1.408 . S
C651 C656 1.342 . S
C652 C653 1.310 . S
C652 C655 1.461 . S
C652 H672 0.932 . S
C653 C651 1.408 . S
C653 C652 1.310 . S
C653 H673 0.930 . S
C654 C655 1.474 . S
C654 C656 1.285 . S
C654 H674 0.929 . S
C655 C652 1.461 . S
C655 C654 1.474 . S
C656 C651 1.342 . S
C656 C654 1.285 . S
C656 H675 0.930 . S
C657 C660 1.424 . S
C657 C662 1.245 . S
C657 C663 1.428 . S
C658 C661 1.260 . S
C658 C662 1.477 . S
C658 H676 0.932 . S
C659 C660 1.384 . S
C659 C661 1.479 . S
C659 H677 0.929 . S
C660 C657 1.424 . S
C660 C659 1.384 . S
C660 H678 0.928 . S
C661 C658 1.260 . S
C661 C659 1.479 . S
C662 C657 1.245 . S
C662 C658 1.477 . S
C662 H679 0.932 . S
C663 U646 2.882 . S
C663 C657 1.428 . S
C663 O666 1.301 . S
C663 O667 1.282 . S
O664 U646 2.441 . S
O664 C650 1.249 . S
O665 U646 2.420 . S
O665 C650 1.202 . S
O666 U646 2.455 . S
O666 C663 1.301 . S
O667 U646 2.449 . S
O667 C663 1.282 . S
H668 C641 0.931 . S
H669 C643 0.929 . S
H670 C644 0.930 . S
H671 C645 0.931 . S
H672 C652 0.932 . S
H673 C653 0.930 . S
H674 C654 0.929 . S
H675 C656 0.930 . S
H676 C658 0.932 . S
H677 C659 0.929 . S
H678 C660 0.928 . S
H679 C662 0.932 . S
C680 C681 1.264 . S
C680 C685 1.479 . S
C680 C690 1.465 . S
C681 C680 1.264 . S
C681 C683 1.339 . S
C681 H708 0.931 . S
C682 C683 1.395 . S
C682 C684 1.320 . S
C683 C681 1.339 . S
C683 C682 1.395 . S
C683 H709 0.929 . S
C684 C682 1.320 . S
C684 C685 1.405 . S
C684 H710 0.930 . S
C685 C680 1.479 . S
C685 C684 1.405 . S
C685 H711 0.931 . S
U686 O687 2.454 . S
U686 O688 2.458 . S
U686 C689 2.984 . S
U686 C690 2.847 . S
U686 C703 2.882 . S
U686 O704 2.441 . S
U686 O705 2.420 . S
U686 O706 2.455 . S
U686 O707 2.449 . S
O687 U686 2.454 . S
O687 C689 1.353 . S
O688 U686 2.458 . S
O688 C689 1.286 . S
C689 U686 2.984 . S
C689 O687 1.353 . S
C689 O688 1.286 . S
C689 C691 1.363 . S
C690 C680 1.465 . S
C690 U686 2.847 . S
C690 O704 1.249 . S
C690 O705 1.202 . S
C691 C689 1.363 . S
C691 C693 1.408 . S
C691 C696 1.342 . S
C692 C693 1.310 . S
C692 C695 1.461 . S
C692 H712 0.932 . S
C693 C691 1.408 . S
C693 C692 1.310 . S
C693 H713 0.930 . S
C694 C695 1.474 . S
C694 C696 1.285 . S
C694 H714 0.929 . S
C695 C692 1.461 . S
C695 C694 1.474 . S
C696 C691 1.342 . S
C696 C694 1.285 . S
C696 H715 0.930 . S
C697 C700 1.424 . S
C697 C702 1.245 . S
C697 C703 1.428 . S
C698 C701 1.260 . S
C698 C702 1.477 . S
C698 H716 0.932 . S
C699 C700 1.384 . S
C699 C701 1.479 . S
C699 H717 0.929 . S
C700 C697 1.424 . S
C700 C699 1.384 . S
C700 H718 0.928 . S
C701 C698 1.260 . S
C701 C699 1.479 . S
C702 C697 1.245 . S
C702 C698 1.477 . S
C702 H719 0.932 . S
C703 U686 2.882 . S
C703 C697 1.428 . S
C703 O706 1.301 . S
C703 O707 1.282 . S
O704 U686 2.441 . S
O704 C690 1.249 . S
O705 U686 2.420 . S
O705 C690 1.202 . S
O706 U686 2.455 . S
O706 C703 1.301 . S
O707 U686 2.449 . S
O707 C703 1.282 . S
H708 C681 0.931 . S
H709 C683 0.929 . S
H710 C684 0.930 . S
H711 C685 0.931 . S
H712 C692 0.932 . S
H713 C693 0.930 . S
H714 C694 0.929 . S
H715 C696 0.930 . S
H716 C698 0.932 . S
H717 C699 0.929 . S
H718 C700 0.928 . S
H719 C702 0.932 . S
C720 C721 1.264 . S
C720 C725 1.479 . S
C720 C730 1.465 . S
C721 C720 1.264 . S
C721 C723 1.339 . S
C721 H748 0.931 . S
C722 C723 1.395 . S
C722 C724 1.320 . S
C723 C721 1.339 . S
C723 C722 1.395 . S
C723 H749 0.929 . S
C724 C722 1.320 . S
C724 C725 1.405 . S
C724 H750 0.930 . S
C725 C720 1.479 . S
C725 C724 1.405 . S
C725 H751 0.931 . S
U726 O727 2.454 . S
U726 O728 2.458 . S
U726 C729 2.984 . S
U726 C730 2.847 . S
U726 C743 2.882 . S
U726 O744 2.441 . S
U726 O745 2.420 . S
U726 O746 2.455 . S
U726 O747 2.449 . S
O727 U726 2.454 . S
O727 C729 1.353 . S
O728 U726 2.458 . S
O728 C729 1.286 . S
C729 U726 2.984 . S
C729 O727 1.353 . S
C729 O728 1.286 . S
C729 C731 1.363 . S
C730 C720 1.465 . S
C730 U726 2.847 . S
C730 O744 1.249 . S
C730 O745 1.202 . S
C731 C729 1.363 . S
C731 C733 1.408 . S
C731 C736 1.342 . S
C732 C733 1.310 . S
C732 C735 1.461 . S
C732 H752 0.932 . S
C733 C731 1.408 . S
C733 C732 1.310 . S
C733 H753 0.930 . S
C734 C735 1.474 . S
C734 C736 1.285 . S
C734 H754 0.929 . S
C735 C732 1.461 . S
C735 C734 1.474 . S
C736 C731 1.342 . S
C736 C734 1.285 . S
C736 H755 0.930 . S
C737 C740 1.424 . S
C737 C742 1.245 . S
C737 C743 1.428 . S
C738 C741 1.260 . S
C738 C742 1.477 . S
C738 H756 0.932 . S
C739 C740 1.384 . S
C739 C741 1.479 . S
C739 H757 0.929 . S
C740 C737 1.424 . S
C740 C739 1.384 . S
C740 H758 0.928 . S
C741 C738 1.260 . S
C741 C739 1.479 . S
C742 C737 1.245 . S
C742 C738 1.477 . S
C742 H759 0.932 . S
C743 U726 2.882 . S
C743 C737 1.428 . S
C743 O746 1.301 . S
C743 O747 1.282 . S
O744 U726 2.441 . S
O744 C730 1.249 . S
O745 U726 2.420 . S
O745 C730 1.202 . S
O746 U726 2.455 . S
O746 C743 1.301 . S
O747 U726 2.449 . S
O747 C743 1.282 . S
H748 C721 0.931 . S
H749 C723 0.929 . S
H750 C724 0.930 . S
H751 C725 0.931 . S
H752 C732 0.932 . S
H753 C733 0.930 . S
H754 C734 0.929 . S
H755 C736 0.930 . S
H756 C738 0.932 . S
H757 C739 0.929 . S
H758 C740 0.928 . S
H759 C742 0.932 . S
C760 C761 1.264 . S
C760 C765 1.479 . S
C760 C770 1.465 . S
C761 C760 1.264 . S
C761 C763 1.339 . S
C761 H788 0.931 . S
C762 C763 1.395 . S
C762 C764 1.320 . S
C763 C761 1.339 . S
C763 C762 1.395 . S
C763 H789 0.929 . S
C764 C762 1.320 . S
C764 C765 1.405 . S
C764 H790 0.930 . S
C765 C760 1.479 . S
C765 C764 1.405 . S
C765 H791 0.931 . S
U766 O767 2.454 . S
U766 O768 2.458 . S
U766 C769 2.984 . S
U766 C770 2.847 . S
U766 C783 2.882 . S
U766 O784 2.441 . S
U766 O785 2.420 . S
U766 O786 2.455 . S
U766 O787 2.449 . S
O767 U766 2.454 . S
O767 C769 1.353 . S
O768 U766 2.458 . S
O768 C769 1.286 . S
C769 U766 2.984 . S
C769 O767 1.353 . S
C769 O768 1.286 . S
C769 C771 1.363 . S
C770 C760 1.465 . S
C770 U766 2.847 . S
C770 O784 1.249 . S
C770 O785 1.202 . S
C771 C769 1.363 . S
C771 C773 1.408 . S
C771 C776 1.342 . S
C772 C773 1.310 . S
C772 C775 1.461 . S
C772 H792 0.932 . S
C773 C771 1.408 . S
C773 C772 1.310 . S
C773 H793 0.930 . S
C774 C775 1.474 . S
C774 C776 1.285 . S
C774 H794 0.929 . S
C775 C772 1.461 . S
C775 C774 1.474 . S
C776 C771 1.342 . S
C776 C774 1.285 . S
C776 H795 0.930 . S
C777 C780 1.424 . S
C777 C782 1.245 . S
C777 C783 1.428 . S
C778 C781 1.260 . S
C778 C782 1.477 . S
C778 H796 0.932 . S
C779 C780 1.384 . S
C779 C781 1.479 . S
C779 H797 0.929 . S
C780 C777 1.424 . S
C780 C779 1.384 . S
C780 H798 0.928 . S
C781 C778 1.260 . S
C781 C779 1.479 . S
C782 C777 1.245 . S
C782 C778 1.477 . S
C782 H799 0.932 . S
C783 U766 2.882 . S
C783 C777 1.428 . S
C783 O786 1.301 . S
C783 O787 1.282 . S
O784 U766 2.441 . S
O784 C770 1.249 . S
O785 U766 2.420 . S
O785 C770 1.202 . S
O786 U766 2.455 . S
O786 C783 1.301 . S
O787 U766 2.449 . S
O787 C783 1.282 . S
H788 C761 0.931 . S
H789 C763 0.929 . S
H790 C764 0.930 . S
H791 C765 0.931 . S
H792 C772 0.932 . S
H793 C773 0.930 . S
H794 C774 0.929 . S
H795 C776 0.930 . S
H796 C778 0.932 . S
H797 C779 0.929 . S
H798 C780 0.928 . S
H799 C782 0.932 . S
C800 C801 1.264 . S
C800 C805 1.479 . S
C800 C810 1.465 . S
C801 C800 1.264 . S
C801 C803 1.339 . S
C801 H828 0.931 . S
C802 C803 1.395 . S
C802 C804 1.320 . S
C803 C801 1.339 . S
C803 C802 1.395 . S
C803 H829 0.929 . S
C804 C802 1.320 . S
C804 C805 1.405 . S
C804 H830 0.930 . S
C805 C800 1.479 . S
C805 C804 1.405 . S
C805 H831 0.931 . S
U806 O807 2.454 . S
U806 O808 2.458 . S
U806 C809 2.984 . S
U806 C810 2.847 . S
U806 C823 2.882 . S
U806 O824 2.441 . S
U806 O825 2.420 . S
U806 O826 2.455 . S
U806 O827 2.449 . S
O807 U806 2.454 . S
O807 C809 1.353 . S
O808 U806 2.458 . S
O808 C809 1.286 . S
C809 U806 2.984 . S
C809 O807 1.353 . S
C809 O808 1.286 . S
C809 C811 1.363 . S
C810 C800 1.465 . S
C810 U806 2.847 . S
C810 O824 1.249 . S
C810 O825 1.202 . S
C811 C809 1.363 . S
C811 C813 1.408 . S
C811 C816 1.342 . S
C812 C813 1.310 . S
C812 C815 1.461 . S
C812 H832 0.932 . S
C813 C811 1.408 . S
C813 C812 1.310 . S
C813 H833 0.930 . S
C814 C815 1.474 . S
C814 C816 1.285 . S
C814 H834 0.929 . S
C815 C812 1.461 . S
C815 C814 1.474 . S
C816 C811 1.342 . S
C816 C814 1.285 . S
C816 H835 0.930 . S
C817 C820 1.424 . S
C817 C822 1.245 . S
C817 C823 1.428 . S
C818 C821 1.260 . S
C818 C822 1.477 . S
C818 H836 0.932 . S
C819 C820 1.384 . S
C819 C821 1.479 . S
C819 H837 0.929 . S
C820 C817 1.424 . S
C820 C819 1.384 . S
C820 H838 0.928 . S
C821 C818 1.260 . S
C821 C819 1.479 . S
C822 C817 1.245 . S
C822 C818 1.477 . S
C822 H839 0.932 . S
C823 U806 2.882 . S
C823 C817 1.428 . S
C823 O826 1.301 . S
C823 O827 1.282 . S
O824 U806 2.441 . S
O824 C810 1.249 . S
O825 U806 2.420 . S
O825 C810 1.202 . S
O826 U806 2.455 . S
O826 C823 1.301 . S
O827 U806 2.449 . S
O827 C823 1.282 . S
H828 C801 0.931 . S
H829 C803 0.929 . S
H830 C804 0.930 . S
H831 C805 0.931 . S
H832 C812 0.932 . S
H833 C813 0.930 . S
H834 C814 0.929 . S
H835 C816 0.930 . S
H836 C818 0.932 . S
H837 C819 0.929 . S
H838 C820 0.928 . S
H839 C822 0.932 . S
C840 C841 1.264 . S
C840 C845 1.479 . S
C840 C850 1.465 . S
C841 C840 1.264 . S
C841 C843 1.339 . S
C841 H868 0.931 . S
C842 C843 1.395 . S
C842 C844 1.320 . S
C843 C841 1.339 . S
C843 C842 1.395 . S
C843 H869 0.929 . S
C844 C842 1.320 . S
C844 C845 1.405 . S
C844 H870 0.930 . S
C845 C840 1.479 . S
C845 C844 1.405 . S
C845 H871 0.931 . S
U846 O847 2.454 . S
U846 O848 2.458 . S
U846 C849 2.984 . S
U846 C850 2.847 . S
U846 C863 2.882 . S
U846 O864 2.441 . S
U846 O865 2.420 . S
U846 O866 2.455 . S
U846 O867 2.449 . S
O847 U846 2.454 . S
O847 C849 1.353 . S
O848 U846 2.458 . S
O848 C849 1.286 . S
C849 U846 2.984 . S
C849 O847 1.353 . S
C849 O848 1.286 . S
C849 C851 1.363 . S
C850 C840 1.465 . S
C850 U846 2.847 . S
C850 O864 1.249 . S
C850 O865 1.202 . S
C851 C849 1.363 . S
C851 C853 1.408 . S
C851 C856 1.342 . S
C852 C853 1.310 . S
C852 C855 1.461 . S
C852 H872 0.932 . S
C853 C851 1.408 . S
C853 C852 1.310 . S
C853 H873 0.930 . S
C854 C855 1.474 . S
C854 C856 1.285 . S
C854 H874 0.929 . S
C855 C852 1.461 . S
C855 C854 1.474 . S
C856 C851 1.342 . S
C856 C854 1.285 . S
C856 H875 0.930 . S
C857 C860 1.424 . S
C857 C862 1.245 . S
C857 C863 1.428 . S
C858 C861 1.260 . S
C858 C862 1.477 . S
C858 H876 0.932 . S
C859 C860 1.384 . S
C859 C861 1.479 . S
C859 H877 0.929 . S
C860 C857 1.424 . S
C860 C859 1.384 . S
C860 H878 0.928 . S
C861 C858 1.260 . S
C861 C859 1.479 . S
C862 C857 1.245 . S
C862 C858 1.477 . S
C862 H879 0.932 . S
C863 U846 2.882 . S
C863 C857 1.428 . S
C863 O866 1.301 . S
C863 O867 1.282 . S
O864 U846 2.441 . S
O864 C850 1.249 . S
O865 U846 2.420 . S
O865 C850 1.202 . S
O866 U846 2.455 . S
O866 C863 1.301 . S
O867 U846 2.449 . S
O867 C863 1.282 . S
H868 C841 0.931 . S
H869 C843 0.929 . S
H870 C844 0.930 . S
H871 C845 0.931 . S
H872 C852 0.932 . S
H873 C853 0.930 . S
H874 C854 0.929 . S
H875 C856 0.930 . S
H876 C858 0.932 . S
H877 C859 0.929 . S
H878 C860 0.928 . S
H879 C862 0.932 . S
C880 C881 1.264 . S
C880 C885 1.479 . S
C880 C890 1.465 . S
C881 C880 1.264 . S
C881 C883 1.339 . S
C881 H908 0.931 . S
C882 C883 1.395 . S
C882 C884 1.320 . S
C883 C881 1.339 . S
C883 C882 1.395 . S
C883 H909 0.929 . S
C884 C882 1.320 . S
C884 C885 1.405 . S
C884 H910 0.930 . S
C885 C880 1.479 . S
C885 C884 1.405 . S
C885 H911 0.931 . S
U886 O887 2.454 . S
U886 O888 2.458 . S
U886 C889 2.984 . S
U886 C890 2.847 . S
U886 C903 2.882 . S
U886 O904 2.441 . S
U886 O905 2.420 . S
U886 O906 2.455 . S
U886 O907 2.449 . S
O887 U886 2.454 . S
O887 C889 1.353 . S
O888 U886 2.458 . S
O888 C889 1.286 . S
C889 U886 2.984 . S
C889 O887 1.353 . S
C889 O888 1.286 . S
C889 C891 1.363 . S
C890 C880 1.465 . S
C890 U886 2.847 . S
C890 O904 1.249 . S
C890 O905 1.202 . S
C891 C889 1.363 . S
C891 C893 1.408 . S
C891 C896 1.342 . S
C892 C893 1.310 . S
C892 C895 1.461 . S
C892 H912 0.932 . S
C893 C891 1.408 . S
C893 C892 1.310 . S
C893 H913 0.930 . S
C894 C895 1.474 . S
C894 C896 1.285 . S
C894 H914 0.929 . S
C895 C892 1.461 . S
C895 C894 1.474 . S
C896 C891 1.342 . S
C896 C894 1.285 . S
C896 H915 0.930 . S
C897 C900 1.424 . S
C897 C902 1.245 . S
C897 C903 1.428 . S
C898 C901 1.260 . S
C898 C902 1.477 . S
C898 H916 0.932 . S
C899 C900 1.384 . S
C899 C901 1.479 . S
C899 H917 0.929 . S
C900 C897 1.424 . S
C900 C899 1.384 . S
C900 H918 0.928 . S
C901 C898 1.260 . S
C901 C899 1.479 . S
C902 C897 1.245 . S
C902 C898 1.477 . S
C902 H919 0.932 . S
C903 U886 2.882 . S
C903 C897 1.428 . S
C903 O906 1.301 . S
C903 O907 1.282 . S
O904 U886 2.441 . S
O904 C890 1.249 . S
O905 U886 2.420 . S
O905 C890 1.202 . S
O906 U886 2.455 . S
O906 C903 1.301 . S
O907 U886 2.449 . S
O907 C903 1.282 . S
H908 C881 0.931 . S
H909 C883 0.929 . S
H910 C884 0.930 . S
H911 C885 0.931 . S
H912 C892 0.932 . S
H913 C893 0.930 . S
H914 C894 0.929 . S
H915 C896 0.930 . S
H916 C898 0.932 . S
H917 C899 0.929 . S
H918 C900 0.928 . S
H919 C902 0.932 . S
C920 C921 1.264 . S
C920 C925 1.479 . S
C920 C930 1.465 . S
C921 C920 1.264 . S
C921 C923 1.339 . S
C921 H948 0.931 . S
C922 C923 1.395 . S
C922 C924 1.320 . S
C923 C921 1.339 . S
C923 C922 1.395 . S
C923 H949 0.929 . S
C924 C922 1.320 . S
C924 C925 1.405 . S
C924 H950 0.930 . S
C925 C920 1.479 . S
C925 C924 1.405 . S
C925 H951 0.931 . S
U926 O927 2.454 . S
U926 O928 2.458 . S
U926 C929 2.984 . S
U926 C930 2.847 . S
U926 C943 2.882 . S
U926 O944 2.441 . S
U926 O945 2.420 . S
U926 O946 2.455 . S
U926 O947 2.449 . S
O927 U926 2.454 . S
O927 C929 1.353 . S
O928 U926 2.458 . S
O928 C929 1.286 . S
C929 U926 2.984 . S
C929 O927 1.353 . S
C929 O928 1.286 . S
C929 C931 1.363 . S
C930 C920 1.465 . S
C930 U926 2.847 . S
C930 O944 1.249 . S
C930 O945 1.202 . S
C931 C929 1.363 . S
C931 C933 1.408 . S
C931 C936 1.342 . S
C932 C933 1.310 . S
C932 C935 1.461 . S
C932 H952 0.932 . S
C933 C931 1.408 . S
C933 C932 1.310 . S
C933 H953 0.930 . S
C934 C935 1.474 . S
C934 C936 1.285 . S
C934 H954 0.929 . S
C935 C932 1.461 . S
C935 C934 1.474 . S
C936 C931 1.342 . S
C936 C934 1.285 . S
C936 H955 0.930 . S
C937 C940 1.424 . S
C937 C942 1.245 . S
C937 C943 1.428 . S
C938 C941 1.260 . S
C938 C942 1.477 . S
C938 H956 0.932 . S
C939 C940 1.384 . S
C939 C941 1.479 . S
C939 H957 0.929 . S
C940 C937 1.424 . S
C940 C939 1.384 . S
C940 H958 0.928 . S
C941 C938 1.260 . S
C941 C939 1.479 . S
C942 C937 1.245 . S
C942 C938 1.477 . S
C942 H959 0.932 . S
C943 U926 2.882 . S
C943 C937 1.428 . S
C943 O946 1.301 . S
C943 O947 1.282 . S
O944 U926 2.441 . S
O944 C930 1.249 . S
O945 U926 2.420 . S
O945 C930 1.202 . S
O946 U926 2.455 . S
O946 C943 1.301 . S
O947 U926 2.449 . S
O947 C943 1.282 . S
H948 C921 0.931 . S
H949 C923 0.929 . S
H950 C924 0.930 . S
H951 C925 0.931 . S
H952 C932 0.932 . S
H953 C933 0.930 . S
H954 C934 0.929 . S
H955 C936 0.930 . S
H956 C938 0.932 . S
H957 C939 0.929 . S
H958 C940 0.928 . S
H959 C942 0.932 . S
C960 C961 1.264 . S
C960 C965 1.479 . S
C960 C970 1.465 . S
C961 C960 1.264 . S
C961 C963 1.339 . S
C961 H988 0.931 . S
C962 C963 1.395 . S
C962 C964 1.320 . S
C963 C961 1.339 . S
C963 C962 1.395 . S
C963 H989 0.929 . S
C964 C962 1.320 . S
C964 C965 1.405 . S
C964 H990 0.930 . S
C965 C960 1.479 . S
C965 C964 1.405 . S
C965 H991 0.931 . S
U966 O967 2.454 . S
U966 O968 2.458 . S
U966 C969 2.984 . S
U966 C970 2.847 . S
U966 C983 2.882 . S
U966 O984 2.441 . S
U966 O985 2.420 . S
U966 O986 2.455 . S
U966 O987 2.449 . S
O967 U966 2.454 . S
O967 C969 1.353 . S
O968 U966 2.458 . S
O968 C969 1.286 . S
C969 U966 2.984 . S
C969 O967 1.353 . S
C969 O968 1.286 . S
C969 C971 1.363 . S
C970 C960 1.465 . S
C970 U966 2.847 . S
C970 O984 1.249 . S
C970 O985 1.202 . S
C971 C969 1.363 . S
C971 C973 1.408 . S
C971 C976 1.342 . S
C972 C973 1.310 . S
C972 C975 1.461 . S
C972 H992 0.932 . S
C973 C971 1.408 . S
C973 C972 1.310 . S
C973 H993 0.930 . S
C974 C975 1.474 . S
C974 C976 1.285 . S
C974 H994 0.929 . S
C975 C972 1.461 . S
C975 C974 1.474 . S
C976 C971 1.342 . S
C976 C974 1.285 . S
C976 H995 0.930 . S
C977 C980 1.424 . S
C977 C982 1.245 . S
C977 C983 1.428 . S
C978 C981 1.260 . S
C978 C982 1.477 . S
C978 H996 0.932 . S
C979 C980 1.384 . S
C979 C981 1.479 . S
C979 H997 0.929 . S
C980 C977 1.424 . S
C980 C979 1.384 . S
C980 H998 0.928 . S
C981 C978 1.260 . S
C981 C979 1.479 . S
C982 C977 1.245 . S
C982 C978 1.477 . S
C982 H999 0.932 . S
C983 U966 2.882 . S
C983 C977 1.428 . S
C983 O986 1.301 . S
C983 O987 1.282 . S
O984 U966 2.441 . S
O984 C970 1.249 . S
O985 U966 2.420 . S
O985 C970 1.202 . S
O986 U966 2.455 . S
O986 C983 1.301 . S
O987 U966 2.449 . S
O987 C983 1.282 . S
H988 C961 0.931 . S
H989 C963 0.929 . S
H990 C964 0.930 . S
H991 C965 0.931 . S
H992 C972 0.932 . S
H993 C973 0.930 . S
H994 C974 0.929 . S
H995 C976 0.930 . S
H996 C978 0.932 . S
H997 C979 0.929 . S
H998 C980 0.928 . S
H999 C982 0.932 . S
C1000 C1001 1.264 . S
C1000 C1005 1.479 . S
C1000 C1010 1.465 . S
C1001 C1000 1.264 . S
C1001 C1003 1.339 . S
C1001 H1028 0.931 . S
C1002 C1003 1.395 . S
C1002 C1004 1.320 . S
C1003 C1001 1.339 . S
C1003 C1002 1.395 . S
C1003 H1029 0.929 . S
C1004 C1002 1.320 . S
C1004 C1005 1.405 . S
C1004 H1030 0.930 . S
C1005 C1000 1.479 . S
C1005 C1004 1.405 . S
C1005 H1031 0.931 . S
U1006 O1007 2.454 . S
U1006 O1008 2.458 . S
U1006 C1009 2.984 . S
U1006 C1010 2.847 . S
U1006 C1023 2.882 . S
U1006 O1024 2.441 . S
U1006 O1025 2.420 . S
U1006 O1026 2.455 . S
U1006 O1027 2.449 . S
O1007 U1006 2.454 . S
O1007 C1009 1.353 . S
O1008 U1006 2.458 . S
O1008 C1009 1.286 . S
C1009 U1006 2.984 . S
C1009 O1007 1.353 . S
C1009 O1008 1.286 . S
C1009 C1011 1.363 . S
C1010 C1000 1.465 . S
C1010 U1006 2.847 . S
C1010 O1024 1.249 . S
C1010 O1025 1.202 . S
C1011 C1009 1.363 . S
C1011 C1013 1.408 . S
C1011 C1016 1.342 . S
C1012 C1013 1.310 . S
C1012 C1015 1.461 . S
C1012 H1032 0.932 . S
C1013 C1011 1.408 . S
C1013 C1012 1.310 . S
C1013 H1033 0.930 . S
C1014 C1015 1.474 . S
C1014 C1016 1.285 . S
C1014 H1034 0.929 . S
C1015 C1012 1.461 . S
C1015 C1014 1.474 . S
C1016 C1011 1.342 . S
C1016 C1014 1.285 . S
C1016 H1035 0.930 . S
C1017 C1020 1.424 . S
C1017 C1022 1.245 . S
C1017 C1023 1.428 . S
C1018 C1021 1.260 . S
C1018 C1022 1.477 . S
C1018 H1036 0.932 . S
C1019 C1020 1.384 . S
C1019 C1021 1.479 . S
C1019 H1037 0.929 . S
C1020 C1017 1.424 . S
C1020 C1019 1.384 . S
C1020 H1038 0.928 . S
C1021 C1018 1.260 . S
C1021 C1019 1.479 . S
C1022 C1017 1.245 . S
C1022 C1018 1.477 . S
C1022 H1039 0.932 . S
C1023 U1006 2.882 . S
C1023 C1017 1.428 . S
C1023 O1026 1.301 . S
C1023 O1027 1.282 . S
O1024 U1006 2.441 . S
O1024 C1010 1.249 . S
O1025 U1006 2.420 . S
O1025 C1010 1.202 . S
O1026 U1006 2.455 . S
O1026 C1023 1.301 . S
O1027 U1006 2.449 . S
O1027 C1023 1.282 . S
H1028 C1001 0.931 . S
H1029 C1003 0.929 . S
H1030 C1004 0.930 . S
H1031 C1005 0.931 . S
H1032 C1012 0.932 . S
H1033 C1013 0.930 . S
H1034 C1014 0.929 . S
H1035 C1016 0.930 . S
H1036 C1018 0.932 . S
H1037 C1019 0.929 . S
H1038 C1020 0.928 . S
H1039 C1022 0.932 . S
C1040 C1041 1.264 . S
C1040 C1045 1.479 . S
C1040 C1050 1.465 . S
C1041 C1040 1.264 . S
C1041 C1043 1.339 . S
C1041 H1068 0.931 . S
C1042 C1043 1.395 . S
C1042 C1044 1.320 . S
C1043 C1041 1.339 . S
C1043 C1042 1.395 . S
C1043 H1069 0.929 . S
C1044 C1042 1.320 . S
C1044 C1045 1.405 . S
C1044 H1070 0.930 . S
C1045 C1040 1.479 . S
C1045 C1044 1.405 . S
C1045 H1071 0.931 . S
U1046 O1047 2.454 . S
U1046 O1048 2.458 . S
U1046 C1049 2.984 . S
U1046 C1050 2.847 . S
U1046 C1063 2.882 . S
U1046 O1064 2.441 . S
U1046 O1065 2.420 . S
U1046 O1066 2.455 . S
U1046 O1067 2.449 . S
O1047 U1046 2.454 . S
O1047 C1049 1.353 . S
O1048 U1046 2.458 . S
O1048 C1049 1.286 . S
C1049 U1046 2.984 . S
C1049 O1047 1.353 . S
C1049 O1048 1.286 . S
C1049 C1051 1.363 . S
C1050 C1040 1.465 . S
C1050 U1046 2.847 . S
C1050 O1064 1.249 . S
C1050 O1065 1.202 . S
C1051 C1049 1.363 . S
C1051 C1053 1.408 . S
C1051 C1056 1.342 . S
C1052 C1053 1.310 . S
C1052 C1055 1.461 . S
C1052 H1072 0.932 . S
C1053 C1051 1.408 . S
C1053 C1052 1.310 . S
C1053 H1073 0.930 . S
C1054 C1055 1.474 . S
C1054 C1056 1.285 . S
C1054 H1074 0.929 . S
C1055 C1052 1.461 . S
C1055 C1054 1.474 . S
C1056 C1051 1.342 . S
C1056 C1054 1.285 . S
C1056 H1075 0.930 . S
C1057 C1060 1.424 . S
C1057 C1062 1.245 . S
C1057 C1063 1.428 . S
C1058 C1061 1.260 . S
C1058 C1062 1.477 . S
C1058 H1076 0.932 . S
C1059 C1060 1.384 . S
C1059 C1061 1.479 . S
C1059 H1077 0.929 . S
C1060 C1057 1.424 . S
C1060 C1059 1.384 . S
C1060 H1078 0.928 . S
C1061 C1058 1.260 . S
C1061 C1059 1.479 . S
C1062 C1057 1.245 . S
C1062 C1058 1.477 . S
C1062 H1079 0.932 . S
C1063 U1046 2.882 . S
C1063 C1057 1.428 . S
C1063 O1066 1.301 . S
C1063 O1067 1.282 . S
O1064 U1046 2.441 . S
O1064 C1050 1.249 . S
O1065 U1046 2.420 . S
O1065 C1050 1.202 . S
O1066 U1046 2.455 . S
O1066 C1063 1.301 . S
O1067 U1046 2.449 . S
O1067 C1063 1.282 . S
H1068 C1041 0.931 . S
H1069 C1043 0.929 . S
H1070 C1044 0.930 . S
H1071 C1045 0.931 . S
H1072 C1052 0.932 . S
H1073 C1053 0.930 . S
H1074 C1054 0.929 . S
H1075 C1056 0.930 . S
H1076 C1058 0.932 . S
H1077 C1059 0.929 . S
H1078 C1060 0.928 . S
H1079 C1062 0.932 . S
C1080 C1081 1.264 . S
C1080 C1085 1.479 . S
C1080 C1090 1.465 . S
C1081 C1080 1.264 . S
C1081 C1083 1.339 . S
C1081 H1108 0.931 . S
C1082 C1083 1.395 . S
C1082 C1084 1.320 . S
C1083 C1081 1.339 . S
C1083 C1082 1.395 . S
C1083 H1109 0.929 . S
C1084 C1082 1.320 . S
C1084 C1085 1.405 . S
C1084 H1110 0.930 . S
C1085 C1080 1.479 . S
C1085 C1084 1.405 . S
C1085 H1111 0.931 . S
U1086 O1087 2.454 . S
U1086 O1088 2.458 . S
U1086 C1089 2.984 . S
U1086 C1090 2.847 . S
U1086 C1103 2.882 . S
U1086 O1104 2.441 . S
U1086 O1105 2.420 . S
U1086 O1106 2.455 . S
U1086 O1107 2.449 . S
O1087 U1086 2.454 . S
O1087 C1089 1.353 . S
O1088 U1086 2.458 . S
O1088 C1089 1.286 . S
C1089 U1086 2.984 . S
C1089 O1087 1.353 . S
C1089 O1088 1.286 . S
C1089 C1091 1.363 . S
C1090 C1080 1.465 . S
C1090 U1086 2.847 . S
C1090 O1104 1.249 . S
C1090 O1105 1.202 . S
C1091 C1089 1.363 . S
C1091 C1093 1.408 . S
C1091 C1096 1.342 . S
C1092 C1093 1.310 . S
C1092 C1095 1.461 . S
C1092 H1112 0.932 . S
C1093 C1091 1.408 . S
C1093 C1092 1.310 . S
C1093 H1113 0.930 . S
C1094 C1095 1.474 . S
C1094 C1096 1.285 . S
C1094 H1114 0.929 . S
C1095 C1092 1.461 . S
C1095 C1094 1.474 . S
C1096 C1091 1.342 . S
C1096 C1094 1.285 . S
C1096 H1115 0.930 . S
C1097 C1100 1.424 . S
C1097 C1102 1.245 . S
C1097 C1103 1.428 . S
C1098 C1101 1.260 . S
C1098 C1102 1.477 . S
C1098 H1116 0.932 . S
C1099 C1100 1.384 . S
C1099 C1101 1.479 . S
C1099 H1117 0.929 . S
C1100 C1097 1.424 . S
C1100 C1099 1.384 . S
C1100 H1118 0.928 . S
C1101 C1098 1.260 . S
C1101 C1099 1.479 . S
C1102 C1097 1.245 . S
C1102 C1098 1.477 . S
C1102 H1119 0.932 . S
C1103 U1086 2.882 . S
C1103 C1097 1.428 . S
C1103 O1106 1.301 . S
C1103 O1107 1.282 . S
O1104 U1086 2.441 . S
O1104 C1090 1.249 . S
O1105 U1086 2.420 . S
O1105 C1090 1.202 . S
O1106 U1086 2.455 . S
O1106 C1103 1.301 . S
O1107 U1086 2.449 . S
O1107 C1103 1.282 . S
H1108 C1081 0.931 . S
H1109 C1083 0.929 . S
H1110 C1084 0.930 . S
H1111 C1085 0.931 . S
H1112 C1092 0.932 . S
H1113 C1093 0.930 . S
H1114 C1094 0.929 . S
H1115 C1096 0.930 . S
H1116 C1098 0.932 . S
H1117 C1099 0.929 . S
H1118 C1100 0.928 . S
H1119 C1102 0.932 . S
C1120 C1121 1.264 . S
C1120 C1125 1.479 . S
C1120 C1130 1.465 . S
C1121 C1120 1.264 . S
C1121 C1123 1.339 . S
C1121 H1148 0.931 . S
C1122 C1123 1.395 . S
C1122 C1124 1.320 . S
C1123 C1121 1.339 . S
C1123 C1122 1.395 . S
C1123 H1149 0.929 . S
C1124 C1122 1.320 . S
C1124 C1125 1.405 . S
C1124 H1150 0.930 . S
C1125 C1120 1.479 . S
C1125 C1124 1.405 . S
C1125 H1151 0.931 . S
U1126 O1127 2.454 . S
U1126 O1128 2.458 . S
U1126 C1129 2.984 . S
U1126 C1130 2.847 . S
U1126 C1143 2.882 . S
U1126 O1144 2.441 . S
U1126 O1145 2.420 . S
U1126 O1146 2.455 . S
U1126 O1147 2.449 . S
O1127 U1126 2.454 . S
O1127 C1129 1.353 . S
O1128 U1126 2.458 . S
O1128 C1129 1.286 . S
C1129 U1126 2.984 . S
C1129 O1127 1.353 . S
C1129 O1128 1.286 . S
C1129 C1131 1.363 . S
C1130 C1120 1.465 . S
C1130 U1126 2.847 . S
C1130 O1144 1.249 . S
C1130 O1145 1.202 . S
C1131 C1129 1.363 . S
C1131 C1133 1.408 . S
C1131 C1136 1.342 . S
C1132 C1133 1.310 . S
C1132 C1135 1.461 . S
C1132 H1152 0.932 . S
C1133 C1131 1.408 . S
C1133 C1132 1.310 . S
C1133 H1153 0.930 . S
C1134 C1135 1.474 . S
C1134 C1136 1.285 . S
C1134 H1154 0.929 . S
C1135 C1132 1.461 . S
C1135 C1134 1.474 . S
C1136 C1131 1.342 . S
C1136 C1134 1.285 . S
C1136 H1155 0.930 . S
C1137 C1140 1.424 . S
C1137 C1142 1.245 . S
C1137 C1143 1.428 . S
C1138 C1141 1.260 . S
C1138 C1142 1.477 . S
C1138 H1156 0.932 . S
C1139 C1140 1.384 . S
C1139 C1141 1.479 . S
C1139 H1157 0.929 . S
C1140 C1137 1.424 . S
C1140 C1139 1.384 . S
C1140 H1158 0.928 . S
C1141 C1138 1.260 . S
C1141 C1139 1.479 . S
C1142 C1137 1.245 . S
C1142 C1138 1.477 . S
C1142 H1159 0.932 . S
C1143 U1126 2.882 . S
C1143 C1137 1.428 . S
C1143 O1146 1.301 . S
C1143 O1147 1.282 . S
O1144 U1126 2.441 . S
O1144 C1130 1.249 . S
O1145 U1126 2.420 . S
O1145 C1130 1.202 . S
O1146 U1126 2.455 . S
O1146 C1143 1.301 . S
O1147 U1126 2.449 . S
O1147 C1143 1.282 . S
H1148 C1121 0.931 . S
H1149 C1123 0.929 . S
H1150 C1124 0.930 . S
H1151 C1125 0.931 . S
H1152 C1132 0.932 . S
H1153 C1133 0.930 . S
H1154 C1134 0.929 . S
H1155 C1136 0.930 . S
H1156 C1138 0.932 . S
H1157 C1139 0.929 . S
H1158 C1140 0.928 . S
H1159 C1142 0.932 . S
C1160 C1161 1.264 . S
C1160 C1165 1.479 . S
C1160 C1170 1.465 . S
C1161 C1160 1.264 . S
C1161 C1163 1.339 . S
C1161 H1188 0.931 . S
C1162 C1163 1.395 . S
C1162 C1164 1.320 . S
C1163 C1161 1.339 . S
C1163 C1162 1.395 . S
C1163 H1189 0.929 . S
C1164 C1162 1.320 . S
C1164 C1165 1.405 . S
C1164 H1190 0.930 . S
C1165 C1160 1.479 . S
C1165 C1164 1.405 . S
C1165 H1191 0.931 . S
U1166 O1167 2.454 . S
U1166 O1168 2.458 . S
U1166 C1169 2.984 . S
U1166 C1170 2.847 . S
U1166 C1183 2.882 . S
U1166 O1184 2.441 . S
U1166 O1185 2.420 . S
U1166 O1186 2.455 . S
U1166 O1187 2.449 . S
O1167 U1166 2.454 . S
O1167 C1169 1.353 . S
O1168 U1166 2.458 . S
O1168 C1169 1.286 . S
C1169 U1166 2.984 . S
C1169 O1167 1.353 . S
C1169 O1168 1.286 . S
C1169 C1171 1.363 . S
C1170 C1160 1.465 . S
C1170 U1166 2.847 . S
C1170 O1184 1.249 . S
C1170 O1185 1.202 . S
C1171 C1169 1.363 . S
C1171 C1173 1.408 . S
C1171 C1176 1.342 . S
C1172 C1173 1.310 . S
C1172 C1175 1.461 . S
C1172 H1192 0.932 . S
C1173 C1171 1.408 . S
C1173 C1172 1.310 . S
C1173 H1193 0.930 . S
C1174 C1175 1.474 . S
C1174 C1176 1.285 . S
C1174 H1194 0.929 . S
C1175 C1172 1.461 . S
C1175 C1174 1.474 . S
C1176 C1171 1.342 . S
C1176 C1174 1.285 . S
C1176 H1195 0.930 . S
C1177 C1180 1.424 . S
C1177 C1182 1.245 . S
C1177 C1183 1.428 . S
C1178 C1181 1.260 . S
C1178 C1182 1.477 . S
C1178 H1196 0.932 . S
C1179 C1180 1.384 . S
C1179 C1181 1.479 . S
C1179 H1197 0.929 . S
C1180 C1177 1.424 . S
C1180 C1179 1.384 . S
C1180 H1198 0.928 . S
C1181 C1178 1.260 . S
C1181 C1179 1.479 . S
C1182 C1177 1.245 . S
C1182 C1178 1.477 . S
C1182 H1199 0.932 . S
C1183 U1166 2.882 . S
C1183 C1177 1.428 . S
C1183 O1186 1.301 . S
C1183 O1187 1.282 . S
O1184 U1166 2.441 . S
O1184 C1170 1.249 . S
O1185 U1166 2.420 . S
O1185 C1170 1.202 . S
O1186 U1166 2.455 . S
O1186 C1183 1.301 . S
O1187 U1166 2.449 . S
O1187 C1183 1.282 . S
H1188 C1161 0.931 . S
H1189 C1163 0.929 . S
H1190 C1164 0.930 . S
H1191 C1165 0.931 . S
H1192 C1172 0.932 . S
H1193 C1173 0.930 . S
H1194 C1174 0.929 . S
H1195 C1176 0.930 . S
H1196 C1178 0.932 . S
H1197 C1179 0.929 . S
H1198 C1180 0.928 . S
H1199 C1182 0.932 . S
C1200 C1201 1.264 . S
C1200 C1205 1.479 . S
C1200 C1210 1.465 . S
C1201 C1200 1.264 . S
C1201 C1203 1.339 . S
C1201 H1228 0.931 . S
C1202 C1203 1.395 . S
C1202 C1204 1.320 . S
C1203 C1201 1.339 . S
C1203 C1202 1.395 . S
C1203 H1229 0.929 . S
C1204 C1202 1.320 . S
C1204 C1205 1.405 . S
C1204 H1230 0.930 . S
C1205 C1200 1.479 . S
C1205 C1204 1.405 . S
C1205 H1231 0.931 . S
U1206 O1207 2.454 . S
U1206 O1208 2.458 . S
U1206 C1209 2.984 . S
U1206 C1210 2.847 . S
U1206 C1223 2.882 . S
U1206 O1224 2.441 . S
U1206 O1225 2.420 . S
U1206 O1226 2.455 . S
U1206 O1227 2.449 . S
O1207 U1206 2.454 . S
O1207 C1209 1.353 . S
O1208 U1206 2.458 . S
O1208 C1209 1.286 . S
C1209 U1206 2.984 . S
C1209 O1207 1.353 . S
C1209 O1208 1.286 . S
C1209 C1211 1.363 . S
C1210 C1200 1.465 . S
C1210 U1206 2.847 . S
C1210 O1224 1.249 . S
C1210 O1225 1.202 . S
C1211 C1209 1.363 . S
C1211 C1213 1.408 . S
C1211 C1216 1.342 . S
C1212 C1213 1.310 . S
C1212 C1215 1.461 . S
C1212 H1232 0.932 . S
C1213 C1211 1.408 . S
C1213 C1212 1.310 . S
C1213 H1233 0.930 . S
C1214 C1215 1.474 . S
C1214 C1216 1.285 . S
C1214 H1234 0.929 . S
C1215 C1212 1.461 . S
C1215 C1214 1.474 . S
C1216 C1211 1.342 . S
C1216 C1214 1.285 . S
C1216 H1235 0.930 . S
C1217 C1220 1.424 . S
C1217 C1222 1.245 . S
C1217 C1223 1.428 . S
C1218 C1221 1.260 . S
C1218 C1222 1.477 . S
C1218 H1236 0.932 . S
C1219 C1220 1.384 . S
C1219 C1221 1.479 . S
C1219 H1237 0.929 . S
C1220 C1217 1.424 . S
C1220 C1219 1.384 . S
C1220 H1238 0.928 . S
C1221 C1218 1.260 . S
C1221 C1219 1.479 . S
C1222 C1217 1.245 . S
C1222 C1218 1.477 . S
C1222 H1239 0.932 . S
C1223 U1206 2.882 . S
C1223 C1217 1.428 . S
C1223 O1226 1.301 . S
C1223 O1227 1.282 . S
O1224 U1206 2.441 . S
O1224 C1210 1.249 . S
O1225 U1206 2.420 . S
O1225 C1210 1.202 . S
O1226 U1206 2.455 . S
O1226 C1223 1.301 . S
O1227 U1206 2.449 . S
O1227 C1223 1.282 . S
H1228 C1201 0.931 . S
H1229 C1203 0.929 . S
H1230 C1204 0.930 . S
H1231 C1205 0.931 . S
H1232 C1212 0.932 . S
H1233 C1213 0.930 . S
H1234 C1214 0.929 . S
H1235 C1216 0.930 . S
H1236 C1218 0.932 . S
H1237 C1219 0.929 . S
H1238 C1220 0.928 . S
H1239 C1222 0.932 . S
C1240 C1241 1.264 . S
C1240 C1245 1.479 . S
C1240 C1250 1.465 . S
C1241 C1240 1.264 . S
C1241 C1243 1.339 . S
C1241 H1268 0.931 . S
C1242 C1243 1.395 . S
C1242 C1244 1.320 . S
C1243 C1241 1.339 . S
C1243 C1242 1.395 . S
C1243 H1269 0.929 . S
C1244 C1242 1.320 . S
C1244 C1245 1.405 . S
C1244 H1270 0.930 . S
C1245 C1240 1.479 . S
C1245 C1244 1.405 . S
C1245 H1271 0.931 . S
U1246 O1247 2.454 . S
U1246 O1248 2.458 . S
U1246 C1249 2.984 . S
U1246 C1250 2.847 . S
U1246 C1263 2.882 . S
U1246 O1264 2.441 . S
U1246 O1265 2.420 . S
U1246 O1266 2.455 . S
U1246 O1267 2.449 . S
O1247 U1246 2.454 . S
O1247 C1249 1.353 . S
O1248 U1246 2.458 . S
O1248 C1249 1.286 . S
C1249 U1246 2.984 . S
C1249 O1247 1.353 . S
C1249 O1248 1.286 . S
C1249 C1251 1.363 . S
C1250 C1240 1.465 . S
C1250 U1246 2.847 . S
C1250 O1264 1.249 . S
C1250 O1265 1.202 . S
C1251 C1249 1.363 . S
C1251 C1253 1.408 . S
C1251 C1256 1.342 . S
C1252 C1253 1.310 . S
C1252 C1255 1.461 . S
C1252 H1272 0.932 . S
C1253 C1251 1.408 . S
C1253 C1252 1.310 . S
C1253 H1273 0.930 . S
C1254 C1255 1.474 . S
C1254 C1256 1.285 . S
C1254 H1274 0.929 . S
C1255 C1252 1.461 . S
C1255 C1254 1.474 . S
C1256 C1251 1.342 . S
C1256 C1254 1.285 . S
C1256 H1275 0.930 . S
C1257 C1260 1.424 . S
C1257 C1262 1.245 . S
C1257 C1263 1.428 . S
C1258 C1261 1.260 . S
C1258 C1262 1.477 . S
C1258 H1276 0.932 . S
C1259 C1260 1.384 . S
C1259 C1261 1.479 . S
C1259 H1277 0.929 . S
C1260 C1257 1.424 . S
C1260 C1259 1.384 . S
C1260 H1278 0.928 . S
C1261 C1258 1.260 . S
C1261 C1259 1.479 . S
C1262 C1257 1.245 . S
C1262 C1258 1.477 . S
C1262 H1279 0.932 . S
C1263 U1246 2.882 . S
C1263 C1257 1.428 . S
C1263 O1266 1.301 . S
C1263 O1267 1.282 . S
O1264 U1246 2.441 . S
O1264 C1250 1.249 . S
O1265 U1246 2.420 . S
O1265 C1250 1.202 . S
O1266 U1246 2.455 . S
O1266 C1263 1.301 . S
O1267 U1246 2.449 . S
O1267 C1263 1.282 . S
H1268 C1241 0.931 . S
H1269 C1243 0.929 . S
H1270 C1244 0.930 . S
H1271 C1245 0.931 . S
H1272 C1252 0.932 . S
H1273 C1253 0.930 . S
H1274 C1254 0.929 . S
H1275 C1256 0.930 . S
H1276 C1258 0.932 . S
H1277 C1259 0.929 . S
H1278 C1260 0.928 . S
H1279 C1262 0.932 . S
C1280 C1281 1.384 . S
C1280 C1282 1.384 . S
C1280 H1308 0.931 . S
C1281 C1280 1.384 . S
C1281 C1284 1.382 . S
C1282 C1280 1.384 . S
C1282 C1283 1.381 . S
C1282 H1309 0.930 . S
C1283 C1282 1.381 . S
C1283 C1285 1.381 . S
C1283 C1286 1.487 . S
C1284 C1281 1.382 . S
C1284 C1285 1.387 . S
C1284 H1310 0.930 . S
C1285 C1283 1.381 . S
C1285 C1284 1.387 . S
C1285 H1311 0.931 . S
C1286 C1283 1.487 . S
C1286 C1293 1.399 . S
C1286 N1324 1.343 . S
C1287 C1288 1.384 . S
C1287 C1289 1.384 . S
C1287 H1312 0.931 . S
C1288 C1287 1.384 . S
C1288 C1291 1.382 . S
C1289 C1287 1.384 . S
C1289 C1290 1.381 . S
C1289 H1313 0.930 . S
C1290 C1289 1.381 . S
C1290 C1292 1.381 . S
C1290 C1293 1.487 . S
C1291 C1288 1.382 . S
C1291 C1292 1.387 . S
C1291 H1314 0.930 . S
C1292 C1290 1.381 . S
C1292 C1291 1.387 . S
C1292 H1315 0.931 . S
C1293 C1286 1.399 . S
C1293 C1290 1.487 . S
C1293 N1325 1.343 . S
C1294 C1295 1.384 . S
C1294 C1296 1.384 . S
C1294 H1316 0.931 . S
C1295 C1294 1.384 . S
C1295 C1298 1.382 . S
C1296 C1294 1.384 . S
C1296 C1297 1.381 . S
C1296 H1317 0.930 . S
C1297 C1296 1.381 . S
C1297 C1299 1.381 . S
C1297 C1300 1.487 . S
C1298 C1295 1.382 . S
C1298 C1299 1.387 . S
C1298 H1318 0.930 . S
C1299 C1297 1.381 . S
C1299 C1298 1.387 . S
C1299 H1319 0.931 . S
C1300 C1297 1.487 . S
C1300 C1307 1.399 . S
C1300 N1325 1.343 1_556 S
C1301 C1302 1.384 . S
C1301 C1303 1.384 . S
C1301 H1320 0.931 . S
C1302 C1301 1.384 . S
C1302 C1305 1.382 . S
C1303 C1301 1.384 . S
C1303 C1304 1.381 . S
C1303 H1321 0.930 . S
C1304 C1303 1.381 . S
C1304 C1306 1.381 . S
C1304 C1307 1.487 . S
C1305 C1302 1.382 . S
C1305 C1306 1.387 . S
C1305 H1322 0.930 . S
C1306 C1304 1.381 . S
C1306 C1305 1.387 . S
C1306 H1323 0.931 . S
C1307 C1300 1.399 . S
C1307 C1304 1.487 . S
C1307 N1324 1.343 1_556 S
H1308 C1280 0.931 . S
H1309 C1282 0.930 . S
H1310 C1284 0.930 . S
H1311 C1285 0.931 . S
H1312 C1287 0.931 . S
H1313 C1289 0.930 . S
H1314 C1291 0.930 . S
H1315 C1292 0.931 . S
H1316 C1294 0.931 . S
H1317 C1296 0.930 . S
H1318 C1298 0.930 . S
H1319 C1299 0.931 . S
H1320 C1301 0.931 . S
H1321 C1303 0.930 . S
H1322 C1305 0.930 . S
H1323 C1306 0.931 . S
N1324 C1286 1.343 . S
N1324 C1307 1.343 1_554 S
N1325 C1293 1.343 . S
N1325 C1300 1.343 1_554 S
C1326 C1327 1.384 . S
C1326 C1328 1.384 . S
C1326 H1354 0.931 . S
C1327 C1326 1.384 . S
C1327 C1330 1.382 . S
C1328 C1326 1.384 . S
C1328 C1329 1.381 . S
C1328 H1355 0.930 . S
C1329 C1328 1.381 . S
C1329 C1331 1.381 . S
C1329 C1332 1.487 . S
C1330 C1327 1.382 . S
C1330 C1331 1.387 . S
C1330 H1356 0.930 . S
C1331 C1329 1.381 . S
C1331 C1330 1.387 . S
C1331 H1357 0.931 . S
C1332 C1329 1.487 . S
C1332 C1339 1.399 . S
C1332 N1370 1.343 1_556 S
C1333 C1334 1.384 . S
C1333 C1335 1.384 . S
C1333 H1358 0.931 . S
C1334 C1333 1.384 . S
C1334 C1337 1.382 . S
C1335 C1333 1.384 . S
C1335 C1336 1.381 . S
C1335 H1359 0.930 . S
C1336 C1335 1.381 . S
C1336 C1338 1.381 . S
C1336 C1339 1.487 . S
C1337 C1334 1.382 . S
C1337 C1338 1.387 . S
C1337 H1360 0.930 . S
C1338 C1336 1.381 . S
C1338 C1337 1.387 . S
C1338 H1361 0.931 . S
C1339 C1332 1.399 . S
C1339 C1336 1.487 . S
C1339 N1371 1.343 1_556 S
C1340 C1341 1.384 . S
C1340 C1342 1.384 . S
C1340 H1362 0.931 . S
C1341 C1340 1.384 . S
C1341 C1344 1.382 . S
C1342 C1340 1.384 . S
C1342 C1343 1.381 . S
C1342 H1363 0.930 . S
C1343 C1342 1.381 . S
C1343 C1345 1.381 . S
C1343 C1346 1.487 . S
C1344 C1341 1.382 . S
C1344 C1345 1.387 . S
C1344 H1364 0.930 . S
C1345 C1343 1.381 . S
C1345 C1344 1.387 . S
C1345 H1365 0.931 . S
C1346 C1343 1.487 . S
C1346 C1353 1.399 . S
C1346 N1371 1.343 . S
C1347 C1348 1.384 . S
C1347 C1349 1.384 . S
C1347 H1366 0.931 . S
C1348 C1347 1.384 . S
C1348 C1351 1.382 . S
C1349 C1347 1.384 . S
C1349 C1350 1.381 . S
C1349 H1367 0.930 . S
C1350 C1349 1.381 . S
C1350 C1352 1.381 . S
C1350 C1353 1.487 . S
C1351 C1348 1.382 . S
C1351 C1352 1.387 . S
C1351 H1368 0.930 . S
C1352 C1350 1.381 . S
C1352 C1351 1.387 . S
C1352 H1369 0.931 . S
C1353 C1346 1.399 . S
C1353 C1350 1.487 . S
C1353 N1370 1.343 . S
H1354 C1326 0.931 . S
H1355 C1328 0.930 . S
H1356 C1330 0.930 . S
H1357 C1331 0.931 . S
H1358 C1333 0.931 . S
H1359 C1335 0.930 . S
H1360 C1337 0.930 . S
H1361 C1338 0.931 . S
H1362 C1340 0.931 . S
H1363 C1342 0.930 . S
H1364 C1344 0.930 . S
H1365 C1345 0.931 . S
H1366 C1347 0.931 . S
H1367 C1349 0.930 . S
H1368 C1351 0.930 . S
H1369 C1352 0.931 . S
N1370 C1332 1.343 1_554 S
N1370 C1353 1.343 . S
N1371 C1339 1.343 1_554 S
N1371 C1346 1.343 . S
C1372 C1373 1.384 . S
C1372 C1374 1.384 . S
C1372 H1400 0.931 . S
C1373 C1372 1.384 . S
C1373 C1376 1.382 . S
C1374 C1372 1.384 . S
C1374 C1375 1.381 . S
C1374 H1401 0.930 . S
C1375 C1374 1.381 . S
C1375 C1377 1.381 . S
C1375 C1378 1.487 . S
C1376 C1373 1.382 . S
C1376 C1377 1.387 . S
C1376 H1402 0.930 . S
C1377 C1375 1.381 . S
C1377 C1376 1.387 . S
C1377 H1403 0.931 . S
C1378 C1375 1.487 . S
C1378 C1385 1.399 . S
C1378 N1416 1.343 . S
C1379 C1380 1.384 . S
C1379 C1381 1.384 . S
C1379 H1404 0.931 . S
C1380 C1379 1.384 . S
C1380 C1383 1.382 . S
C1381 C1379 1.384 . S
C1381 C1382 1.381 . S
C1381 H1405 0.930 . S
C1382 C1381 1.381 . S
C1382 C1384 1.381 . S
C1382 C1385 1.487 . S
C1383 C1380 1.382 . S
C1383 C1384 1.387 . S
C1383 H1406 0.930 . S
C1384 C1382 1.381 . S
C1384 C1383 1.387 . S
C1384 H1407 0.931 . S
C1385 C1378 1.399 . S
C1385 C1382 1.487 . S
C1385 N1417 1.343 . S
C1386 C1387 1.384 . S
C1386 C1388 1.384 . S
C1386 H1408 0.931 . S
C1387 C1386 1.384 . S
C1387 C1390 1.382 . S
C1388 C1386 1.384 . S
C1388 C1389 1.381 . S
C1388 H1409 0.930 . S
C1389 C1388 1.381 . S
C1389 C1391 1.381 . S
C1389 C1392 1.487 . S
C1390 C1387 1.382 . S
C1390 C1391 1.387 . S
C1390 H1410 0.930 . S
C1391 C1389 1.381 . S
C1391 C1390 1.387 . S
C1391 H1411 0.931 . S
C1392 C1389 1.487 . S
C1392 C1399 1.399 . S
C1392 N1417 1.343 1_556 S
C1393 C1394 1.384 . S
C1393 C1395 1.384 . S
C1393 H1412 0.931 . S
C1394 C1393 1.384 . S
C1394 C1397 1.382 . S
C1395 C1393 1.384 . S
C1395 C1396 1.381 . S
C1395 H1413 0.930 . S
C1396 C1395 1.381 . S
C1396 C1398 1.381 . S
C1396 C1399 1.487 . S
C1397 C1394 1.382 . S
C1397 C1398 1.387 . S
C1397 H1414 0.930 . S
C1398 C1396 1.381 . S
C1398 C1397 1.387 . S
C1398 H1415 0.931 . S
C1399 C1392 1.399 . S
C1399 C1396 1.487 . S
C1399 N1416 1.343 1_556 S
H1400 C1372 0.931 . S
H1401 C1374 0.930 . S
H1402 C1376 0.930 . S
H1403 C1377 0.931 . S
H1404 C1379 0.931 . S
H1405 C1381 0.930 . S
H1406 C1383 0.930 . S
H1407 C1384 0.931 . S
H1408 C1386 0.931 . S
H1409 C1388 0.930 . S
H1410 C1390 0.930 . S
H1411 C1391 0.931 . S
H1412 C1393 0.931 . S
H1413 C1395 0.930 . S
H1414 C1397 0.930 . S
H1415 C1398 0.931 . S
N1416 C1378 1.343 . S
N1416 C1399 1.343 1_554 S
N1417 C1385 1.343 . S
N1417 C1392 1.343 1_554 S
C1418 C1419 1.384 . S
C1418 C1420 1.384 . S
C1418 H1446 0.931 . S
C1419 C1418 1.384 . S
C1419 C1422 1.382 . S
C1420 C1418 1.384 . S
C1420 C1421 1.381 . S
C1420 H1447 0.930 . S
C1421 C1420 1.381 . S
C1421 C1423 1.381 . S
C1421 C1424 1.487 . S
C1422 C1419 1.382 . S
C1422 C1423 1.387 . S
C1422 H1448 0.930 . S
C1423 C1421 1.381 . S
C1423 C1422 1.387 . S
C1423 H1449 0.931 . S
C1424 C1421 1.487 . S
C1424 C1431 1.399 . S
C1424 N1462 1.343 1_556 S
C1425 C1426 1.384 . S
C1425 C1427 1.384 . S
C1425 H1450 0.931 . S
C1426 C1425 1.384 . S
C1426 C1429 1.382 . S
C1427 C1425 1.384 . S
C1427 C1428 1.381 . S
C1427 H1451 0.930 . S
C1428 C1427 1.381 . S
C1428 C1430 1.381 . S
C1428 C1431 1.487 . S
C1429 C1426 1.382 . S
C1429 C1430 1.387 . S
C1429 H1452 0.930 . S
C1430 C1428 1.381 . S
C1430 C1429 1.387 . S
C1430 H1453 0.931 . S
C1431 C1424 1.399 . S
C1431 C1428 1.487 . S
C1431 N1463 1.343 1_556 S
C1432 C1433 1.384 . S
C1432 C1434 1.384 . S
C1432 H1454 0.931 . S
C1433 C1432 1.384 . S
C1433 C1436 1.382 . S
C1434 C1432 1.384 . S
C1434 C1435 1.381 . S
C1434 H1455 0.930 . S
C1435 C1434 1.381 . S
C1435 C1437 1.381 . S
C1435 C1438 1.487 . S
C1436 C1433 1.382 . S
C1436 C1437 1.387 . S
C1436 H1456 0.930 . S
C1437 C1435 1.381 . S
C1437 C1436 1.387 . S
C1437 H1457 0.931 . S
C1438 C1435 1.487 . S
C1438 C1445 1.399 . S
C1438 N1463 1.343 . S
C1439 C1440 1.384 . S
C1439 C1441 1.384 . S
C1439 H1458 0.931 . S
C1440 C1439 1.384 . S
C1440 C1443 1.382 . S
C1441 C1439 1.384 . S
C1441 C1442 1.381 . S
C1441 H1459 0.930 . S
C1442 C1441 1.381 . S
C1442 C1444 1.381 . S
C1442 C1445 1.487 . S
C1443 C1440 1.382 . S
C1443 C1444 1.387 . S
C1443 H1460 0.930 . S
C1444 C1442 1.381 . S
C1444 C1443 1.387 . S
C1444 H1461 0.931 . S
C1445 C1438 1.399 . S
C1445 C1442 1.487 . S
C1445 N1462 1.343 . S
H1446 C1418 0.931 . S
H1447 C1420 0.930 . S
H1448 C1422 0.930 . S
H1449 C1423 0.931 . S
H1450 C1425 0.931 . S
H1451 C1427 0.930 . S
H1452 C1429 0.930 . S
H1453 C1430 0.931 . S
H1454 C1432 0.931 . S
H1455 C1434 0.930 . S
H1456 C1436 0.930 . S
H1457 C1437 0.931 . S
H1458 C1439 0.931 . S
H1459 C1441 0.930 . S
H1460 C1443 0.930 . S
H1461 C1444 0.931 . S
N1462 C1424 1.343 1_554 S
N1462 C1445 1.343 . S
N1463 C1431 1.343 1_554 S
N1463 C1438 1.343 . S
C1464 C1465 1.384 . S
C1464 C1466 1.384 . S
C1464 H1492 0.931 . S
C1465 C1464 1.384 . S
C1465 C1468 1.382 . S
C1466 C1464 1.384 . S
C1466 C1467 1.381 . S
C1466 H1493 0.930 . S
C1467 C1466 1.381 . S
C1467 C1469 1.381 . S
C1467 C1470 1.487 . S
C1468 C1465 1.382 . S
C1468 C1469 1.387 . S
C1468 H1494 0.930 . S
C1469 C1467 1.381 . S
C1469 C1468 1.387 . S
C1469 H1495 0.931 . S
C1470 C1467 1.487 . S
C1470 C1477 1.399 . S
C1470 N1508 1.343 1_655 S
C1471 C1472 1.384 . S
C1471 C1473 1.384 . S
C1471 H1496 0.931 . S
C1472 C1471 1.384 . S
C1472 C1475 1.382 . S
C1473 C1471 1.384 . S
C1473 C1474 1.381 . S
C1473 H1497 0.930 . S
C1474 C1473 1.381 . S
C1474 C1476 1.381 . S
C1474 C1477 1.487 . S
C1475 C1472 1.382 . S
C1475 C1476 1.387 . S
C1475 H1498 0.930 . S
C1476 C1474 1.381 . S
C1476 C1475 1.387 . S
C1476 H1499 0.931 . S
C1477 C1470 1.399 . S
C1477 C1474 1.487 . S
C1477 N1509 1.343 1_655 S
C1478 C1479 1.384 . S
C1478 C1480 1.384 . S
C1478 H1500 0.931 . S
C1479 C1478 1.384 . S
C1479 C1482 1.382 . S
C1480 C1478 1.384 . S
C1480 C1481 1.381 . S
C1480 H1501 0.930 . S
C1481 C1480 1.381 . S
C1481 C1483 1.381 . S
C1481 C1484 1.487 . S
C1482 C1479 1.382 . S
C1482 C1483 1.387 . S
C1482 H1502 0.930 . S
C1483 C1481 1.381 . S
C1483 C1482 1.387 . S
C1483 H1503 0.931 . S
C1484 C1481 1.487 . S
C1484 C1491 1.399 . S
C1484 N1509 1.343 . S
C1485 C1486 1.384 . S
C1485 C1487 1.384 . S
C1485 H1504 0.931 . S
C1486 C1485 1.384 . S
C1486 C1489 1.382 . S
C1487 C1485 1.384 . S
C1487 C1488 1.381 . S
C1487 H1505 0.930 . S
C1488 C1487 1.381 . S
C1488 C1490 1.381 . S
C1488 C1491 1.487 . S
C1489 C1486 1.382 . S
C1489 C1490 1.387 . S
C1489 H1506 0.930 . S
C1490 C1488 1.381 . S
C1490 C1489 1.387 . S
C1490 H1507 0.931 . S
C1491 C1484 1.399 . S
C1491 C1488 1.487 . S
C1491 N1508 1.343 . S
H1492 C1464 0.931 . S
H1493 C1466 0.930 . S
H1494 C1468 0.930 . S
H1495 C1469 0.931 . S
H1496 C1471 0.931 . S
H1497 C1473 0.930 . S
H1498 C1475 0.930 . S
H1499 C1476 0.931 . S
H1500 C1478 0.931 . S
H1501 C1480 0.930 . S
H1502 C1482 0.930 . S
H1503 C1483 0.931 . S
H1504 C1485 0.931 . S
H1505 C1487 0.930 . S
H1506 C1489 0.930 . S
H1507 C1490 0.931 . S
N1508 C1470 1.343 1_455 S
N1508 C1491 1.343 . S
N1509 C1477 1.343 1_455 S
N1509 C1484 1.343 . S
C1510 C1511 1.384 . S
C1510 C1512 1.384 . S
C1510 H1538 0.931 . S
C1511 C1510 1.384 . S
C1511 C1514 1.382 . S
C1512 C1510 1.384 . S
C1512 C1513 1.381 . S
C1512 H1539 0.930 . S
C1513 C1512 1.381 . S
C1513 C1515 1.381 . S
C1513 C1516 1.487 . S
C1514 C1511 1.382 . S
C1514 C1515 1.387 . S
C1514 H1540 0.930 . S
C1515 C1513 1.381 . S
C1515 C1514 1.387 . S
C1515 H1541 0.931 . S
C1516 C1513 1.487 . S
C1516 C1523 1.399 . S
C1516 N1554 1.266 1_565 S
C1517 C1518 1.384 . S
C1517 C1519 1.384 . S
C1517 H1542 0.931 . S
C1518 C1517 1.384 . S
C1518 C1521 1.382 . S
C1519 C1517 1.384 . S
C1519 C1520 1.381 . S
C1519 H1543 0.930 . S
C1520 C1519 1.381 . S
C1520 C1522 1.381 . S
C1520 C1523 1.487 . S
C1521 C1518 1.382 . S
C1521 C1522 1.387 . S
C1521 H1544 0.930 . S
C1522 C1520 1.381 . S
C1522 C1521 1.387 . S
C1522 H1545 0.931 . S
C1523 C1516 1.399 . S
C1523 C1520 1.487 . S
C1523 N1555 1.343 1_565 S
C1524 C1525 1.384 . S
C1524 C1526 1.384 . S
C1524 H1546 0.931 . S
C1525 C1524 1.384 . S
C1525 C1528 1.382 . S
C1526 C1524 1.384 . S
C1526 C1527 1.381 . S
C1526 H1547 0.930 . S
C1527 C1526 1.381 . S
C1527 C1529 1.381 . S
C1527 C1530 1.487 . S
C1528 C1525 1.382 . S
C1528 C1529 1.387 . S
C1528 H1548 0.930 . S
C1529 C1527 1.381 . S
C1529 C1528 1.387 . S
C1529 H1549 0.931 . S
C1530 C1527 1.487 . S
C1530 C1537 1.399 . S
C1530 N1555 1.343 . S
C1531 C1532 1.384 . S
C1531 C1533 1.384 . S
C1531 H1550 0.931 . S
C1532 C1531 1.384 . S
C1532 C1535 1.382 . S
C1533 C1531 1.384 . S
C1533 C1534 1.381 . S
C1533 H1551 0.930 . S
C1534 C1533 1.381 . S
C1534 C1536 1.381 . S
C1534 C1537 1.487 . S
C1535 C1532 1.382 . S
C1535 C1536 1.387 . S
C1535 H1552 0.930 . S
C1536 C1534 1.381 . S
C1536 C1535 1.387 . S
C1536 H1553 0.931 . S
C1537 C1530 1.399 . S
C1537 C1534 1.487 . S
C1537 N1554 1.422 . S
H1538 C1510 0.931 . S
H1539 C1512 0.930 . S
H1540 C1514 0.930 . S
H1541 C1515 0.931 . S
H1542 C1517 0.931 . S
H1543 C1519 0.930 . S
H1544 C1521 0.930 . S
H1545 C1522 0.931 . S
H1546 C1524 0.931 . S
H1547 C1526 0.930 . S
H1548 C1528 0.930 . S
H1549 C1529 0.931 . S
H1550 C1531 0.931 . S
H1551 C1533 0.930 . S
H1552 C1535 0.930 . S
H1553 C1536 0.931 . S
N1554 C1516 1.266 1_545 S
N1554 C1537 1.422 . S
N1555 C1523 1.343 1_545 S
N1555 C1530 1.343 . S
C1556 C1557 1.384 . S
C1556 C1558 1.384 . S
C1556 H1584 0.931 . S
C1557 C1556 1.384 . S
C1557 C1560 1.382 . S
C1558 C1556 1.384 . S
C1558 C1559 1.381 . S
C1558 H1585 0.930 . S
C1559 C1558 1.381 . S
C1559 C1561 1.381 . S
C1559 C1562 1.487 . S
C1560 C1557 1.382 . S
C1560 C1561 1.387 . S
C1560 H1586 0.930 . S
C1561 C1559 1.381 . S
C1561 C1560 1.387 . S
C1561 H1587 0.931 . S
C1562 C1559 1.487 . S
C1562 C1569 1.399 . S
C1562 N1600 1.343 . S
C1563 C1564 1.384 . S
C1563 C1565 1.384 . S
C1563 H1588 0.931 . S
C1564 C1563 1.384 . S
C1564 C1567 1.382 . S
C1565 C1563 1.384 . S
C1565 C1566 1.381 . S
C1565 H1589 0.930 . S
C1566 C1565 1.381 . S
C1566 C1568 1.381 . S
C1566 C1569 1.487 . S
C1567 C1564 1.382 . S
C1567 C1568 1.387 . S
C1567 H1590 0.930 . S
C1568 C1566 1.381 . S
C1568 C1567 1.387 . S
C1568 H1591 0.931 . S
C1569 C1562 1.399 . S
C1569 C1566 1.487 . S
C1569 N1601 1.442 . S
C1570 C1571 1.384 . S
C1570 C1572 1.384 . S
C1570 H1592 0.931 . S
C1571 C1570 1.384 . S
C1571 C1574 1.382 . S
C1572 C1570 1.384 . S
C1572 C1573 1.381 . S
C1572 H1593 0.930 . S
C1573 C1572 1.381 . S
C1573 C1575 1.381 . S
C1573 C1576 1.487 . S
C1574 C1571 1.382 . S
C1574 C1575 1.387 . S
C1574 H1594 0.930 . S
C1575 C1573 1.381 . S
C1575 C1574 1.387 . S
C1575 H1595 0.931 . S
C1576 C1573 1.487 . S
C1576 C1583 1.399 . S
C1576 N1601 1.247 1_655 S
C1577 C1578 1.384 . S
C1577 C1579 1.384 . S
C1577 H1596 0.931 . S
C1578 C1577 1.384 . S
C1578 C1581 1.382 . S
C1579 C1577 1.384 . S
C1579 C1580 1.381 . S
C1579 H1597 0.930 . S
C1580 C1579 1.381 . S
C1580 C1582 1.381 . S
C1580 C1583 1.487 . S
C1581 C1578 1.382 . S
C1581 C1582 1.387 . S
C1581 H1598 0.930 . S
C1582 C1580 1.381 . S
C1582 C1581 1.387 . S
C1582 H1599 0.931 . S
C1583 C1576 1.399 . S
C1583 C1580 1.487 . S
C1583 N1600 1.343 1_655 S
H1584 C1556 0.931 . S
H1585 C1558 0.930 . S
H1586 C1560 0.930 . S
H1587 C1561 0.931 . S
H1588 C1563 0.931 . S
H1589 C1565 0.930 . S
H1590 C1567 0.930 . S
H1591 C1568 0.931 . S
H1592 C1570 0.931 . S
H1593 C1572 0.930 . S
H1594 C1574 0.930 . S
H1595 C1575 0.931 . S
H1596 C1577 0.931 . S
H1597 C1579 0.930 . S
H1598 C1581 0.930 . S
H1599 C1582 0.931 . S
N1600 C1562 1.343 . S
N1600 C1583 1.343 1_455 S
N1601 C1569 1.442 . S
N1601 C1576 1.247 1_455 S
C1602 C1603 1.384 . S
C1602 C1604 1.384 . S
C1602 H1630 0.931 . S
C1603 C1602 1.384 . S
C1603 C1606 1.382 . S
C1604 C1602 1.384 . S
C1604 C1605 1.381 . S
C1604 H1631 0.930 . S
C1605 C1604 1.381 . S
C1605 C1607 1.381 . S
C1605 C1608 1.487 . S
C1606 C1603 1.382 . S
C1606 C1607 1.387 . S
C1606 H1632 0.930 . S
C1607 C1605 1.381 . S
C1607 C1606 1.387 . S
C1607 H1633 0.931 . S
C1608 C1605 1.487 . S
C1608 C1615 1.399 . S
C1608 N1646 1.343 1_565 S
C1609 C1610 1.384 . S
C1609 C1611 1.384 . S
C1609 H1634 0.931 . S
C1610 C1609 1.384 . S
C1610 C1613 1.382 . S
C1611 C1609 1.384 . S
C1611 C1612 1.381 . S
C1611 H1635 0.930 . S
C1612 C1611 1.381 . S
C1612 C1614 1.381 . S
C1612 C1615 1.487 . S
C1613 C1610 1.382 . S
C1613 C1614 1.387 . S
C1613 H1636 0.930 . S
C1614 C1612 1.381 . S
C1614 C1613 1.387 . S
C1614 H1637 0.931 . S
C1615 C1608 1.399 . S
C1615 C1612 1.487 . S
C1615 N1647 1.343 1_565 S
C1616 C1617 1.384 . S
C1616 C1618 1.384 . S
C1616 H1638 0.931 . S
C1617 C1616 1.384 . S
C1617 C1620 1.382 . S
C1618 C1616 1.384 . S
C1618 C1619 1.381 . S
C1618 H1639 0.930 . S
C1619 C1618 1.381 . S
C1619 C1621 1.381 . S
C1619 C1622 1.487 . S
C1620 C1617 1.382 . S
C1620 C1621 1.387 . S
C1620 H1640 0.930 . S
C1621 C1619 1.381 . S
C1621 C1620 1.387 . S
C1621 H1641 0.931 . S
C1622 C1619 1.487 . S
C1622 C1629 1.399 . S
C1622 N1647 1.343 . S
C1623 C1624 1.384 . S
C1623 C1625 1.384 . S
C1623 H1642 0.931 . S
C1624 C1623 1.384 . S
C1624 C1627 1.382 . S
C1625 C1623 1.384 . S
C1625 C1626 1.381 . S
C1625 H1643 0.930 . S
C1626 C1625 1.381 . S
C1626 C1628 1.381 . S
C1626 C1629 1.487 . S
C1627 C1624 1.382 . S
C1627 C1628 1.387 . S
C1627 H1644 0.930 . S
C1628 C1626 1.381 . S
C1628 C1627 1.387 . S
C1628 H1645 0.931 . S
C1629 C1622 1.399 . S
C1629 C1626 1.487 . S
C1629 N1646 1.343 . S
H1630 C1602 0.931 . S
H1631 C1604 0.930 . S
H1632 C1606 0.930 . S
H1633 C1607 0.931 . S
H1634 C1609 0.931 . S
H1635 C1611 0.930 . S
H1636 C1613 0.930 . S
H1637 C1614 0.931 . S
H1638 C1616 0.931 . S
H1639 C1618 0.930 . S
H1640 C1620 0.930 . S
H1641 C1621 0.931 . S
H1642 C1623 0.931 . S
H1643 C1625 0.930 . S
H1644 C1627 0.930 . S
H1645 C1628 0.931 . S
N1646 C1608 1.343 1_545 S
N1646 C1629 1.343 . S
N1647 C1615 1.343 1_545 S
N1647 C1622 1.343 . S
C1648 C1649 1.384 . S
C1648 C1650 1.384 . S
C1648 H1676 0.931 . S
C1649 C1648 1.384 . S
C1649 C1652 1.382 . S
C1650 C1648 1.384 . S
C1650 C1651 1.381 . S
C1650 H1677 0.930 . S
C1651 C1650 1.381 . S
C1651 C1653 1.381 . S
C1651 C1654 1.487 . S
C1652 C1649 1.382 . S
C1652 C1653 1.387 . S
C1652 H1678 0.930 . S
C1653 C1651 1.381 . S
C1653 C1652 1.387 . S
C1653 H1679 0.931 . S
C1654 C1651 1.487 . S
C1654 C1661 1.399 . S
C1654 N1692 1.343 1_655 S
C1655 C1656 1.384 . S
C1655 C1657 1.384 . S
C1655 H1680 0.931 . S
C1656 C1655 1.384 . S
C1656 C1659 1.382 . S
C1657 C1655 1.384 . S
C1657 C1658 1.381 . S
C1657 H1681 0.930 . S
C1658 C1657 1.381 . S
C1658 C1660 1.381 . S
C1658 C1661 1.487 . S
C1659 C1656 1.382 . S
C1659 C1660 1.387 . S
C1659 H1682 0.930 . S
C1660 C1658 1.381 . S
C1660 C1659 1.387 . S
C1660 H1683 0.931 . S
C1661 C1654 1.399 . S
C1661 C1658 1.487 . S
C1661 N1693 1.343 1_655 S
C1662 C1663 1.384 . S
C1662 C1664 1.384 . S
C1662 H1684 0.931 . S
C1663 C1662 1.384 . S
C1663 C1666 1.382 . S
C1664 C1662 1.384 . S
C1664 C1665 1.381 . S
C1664 H1685 0.930 . S
C1665 C1664 1.381 . S
C1665 C1667 1.381 . S
C1665 C1668 1.487 . S
C1666 C1663 1.382 . S
C1666 C1667 1.387 . S
C1666 H1686 0.930 . S
C1667 C1665 1.381 . S
C1667 C1666 1.387 . S
C1667 H1687 0.931 . S
C1668 C1665 1.487 . S
C1668 C1675 1.399 . S
C1668 N1693 1.343 . S
C1669 C1670 1.384 . S
C1669 C1671 1.384 . S
C1669 H1688 0.931 . S
C1670 C1669 1.384 . S
C1670 C1673 1.382 . S
C1671 C1669 1.384 . S
C1671 C1672 1.381 . S
C1671 H1689 0.930 . S
C1672 C1671 1.381 . S
C1672 C1674 1.381 . S
C1672 C1675 1.487 . S
C1673 C1670 1.382 . S
C1673 C1674 1.387 . S
C1673 H1690 0.930 . S
C1674 C1672 1.381 . S
C1674 C1673 1.387 . S
C1674 H1691 0.931 . S
C1675 C1668 1.399 . S
C1675 C1672 1.487 . S
C1675 N1692 1.343 . S
H1676 C1648 0.931 . S
H1677 C1650 0.930 . S
H1678 C1652 0.930 . S
H1679 C1653 0.931 . S
H1680 C1655 0.931 . S
H1681 C1657 0.930 . S
H1682 C1659 0.930 . S
H1683 C1660 0.931 . S
H1684 C1662 0.931 . S
H1685 C1664 0.930 . S
H1686 C1666 0.930 . S
H1687 C1667 0.931 . S
H1688 C1669 0.931 . S
H1689 C1671 0.930 . S
H1690 C1673 0.930 . S
H1691 C1674 0.931 . S
N1692 C1654 1.343 1_455 S
N1692 C1675 1.343 . S
N1693 C1661 1.343 1_455 S
N1693 C1668 1.343 . S
C1694 C1695 1.384 . S
C1694 C1696 1.384 . S
C1694 H1722 0.931 . S
C1695 C1694 1.384 . S
C1695 C1698 1.382 . S
C1696 C1694 1.384 . S
C1696 C1697 1.381 . S
C1696 H1723 0.930 . S
C1697 C1696 1.381 . S
C1697 C1699 1.381 . S
C1697 C1700 1.487 . S
C1698 C1695 1.382 . S
C1698 C1699 1.387 . S
C1698 H1724 0.930 . S
C1699 C1697 1.381 . S
C1699 C1698 1.387 . S
C1699 H1725 0.931 . S
C1700 C1697 1.487 . S
C1700 C1707 1.399 . S
C1700 N1738 1.265 1_565 S
C1701 C1702 1.384 . S
C1701 C1703 1.384 . S
C1701 H1726 0.931 . S
C1702 C1701 1.384 . S
C1702 C1705 1.382 . S
C1703 C1701 1.384 . S
C1703 C1704 1.381 . S
C1703 H1727 0.930 . S
C1704 C1703 1.381 . S
C1704 C1706 1.381 . S
C1704 C1707 1.487 . S
C1705 C1702 1.382 . S
C1705 C1706 1.387 . S
C1705 H1728 0.930 . S
C1706 C1704 1.381 . S
C1706 C1705 1.387 . S
C1706 H1729 0.931 . S
C1707 C1700 1.399 . S
C1707 C1704 1.487 . S
C1707 N1739 1.343 1_565 S
C1708 C1709 1.384 . S
C1708 C1710 1.384 . S
C1708 H1730 0.931 . S
C1709 C1708 1.384 . S
C1709 C1712 1.382 . S
C1710 C1708 1.384 . S
C1710 C1711 1.381 . S
C1710 H1731 0.930 . S
C1711 C1710 1.381 . S
C1711 C1713 1.381 . S
C1711 C1714 1.487 . S
C1712 C1709 1.382 . S
C1712 C1713 1.387 . S
C1712 H1732 0.930 . S
C1713 C1711 1.381 . S
C1713 C1712 1.387 . S
C1713 H1733 0.931 . S
C1714 C1711 1.487 . S
C1714 C1721 1.399 . S
C1714 N1739 1.343 . S
C1715 C1716 1.384 . S
C1715 C1717 1.384 . S
C1715 H1734 0.931 . S
C1716 C1715 1.384 . S
C1716 C1719 1.382 . S
C1717 C1715 1.384 . S
C1717 C1718 1.381 . S
C1717 H1735 0.930 . S
C1718 C1717 1.381 . S
C1718 C1720 1.381 . S
C1718 C1721 1.487 . S
C1719 C1716 1.382 . S
C1719 C1720 1.387 . S
C1719 H1736 0.930 . S
C1720 C1718 1.381 . S
C1720 C1719 1.387 . S
C1720 H1737 0.931 . S
C1721 C1714 1.399 . S
C1721 C1718 1.487 . S
C1721 N1738 1.423 . S
H1722 C1694 0.931 . S
H1723 C1696 0.930 . S
H1724 C1698 0.930 . S
H1725 C1699 0.931 . S
H1726 C1701 0.931 . S
H1727 C1703 0.930 . S
H1728 C1705 0.930 . S
H1729 C1706 0.931 . S
H1730 C1708 0.931 . S
H1731 C1710 0.930 . S
H1732 C1712 0.930 . S
H1733 C1713 0.931 . S
H1734 C1715 0.931 . S
H1735 C1717 0.930 . S
H1736 C1719 0.930 . S
H1737 C1720 0.931 . S
N1738 C1700 1.265 1_545 S
N1738 C1721 1.423 . S
N1739 C1707 1.343 1_545 S
N1739 C1714 1.343 . S
C1740 C1741 1.384 . S
C1740 C1742 1.384 . S
C1740 H1768 0.931 . S
C1741 C1740 1.384 . S
C1741 C1744 1.382 . S
C1742 C1740 1.384 . S
C1742 C1743 1.381 . S
C1742 H1769 0.930 . S
C1743 C1742 1.381 . S
C1743 C1745 1.381 . S
C1743 C1746 1.487 . S
C1744 C1741 1.382 . S
C1744 C1745 1.387 . S
C1744 H1770 0.930 . S
C1745 C1743 1.381 . S
C1745 C1744 1.387 . S
C1745 H1771 0.931 . S
C1746 C1743 1.487 . S
C1746 C1753 1.399 . S
C1746 N1784 1.343 . S
C1747 C1748 1.384 . S
C1747 C1749 1.384 . S
C1747 H1772 0.931 . S
C1748 C1747 1.384 . S
C1748 C1751 1.382 . S
C1749 C1747 1.384 . S
C1749 C1750 1.381 . S
C1749 H1773 0.930 . S
C1750 C1749 1.381 . S
C1750 C1752 1.381 . S
C1750 C1753 1.487 . S
C1751 C1748 1.382 . S
C1751 C1752 1.387 . S
C1751 H1774 0.930 . S
C1752 C1750 1.381 . S
C1752 C1751 1.387 . S
C1752 H1775 0.931 . S
C1753 C1746 1.399 . S
C1753 C1750 1.487 . S
C1753 N1785 1.445 . S
C1754 C1755 1.384 . S
C1754 C1756 1.384 . S
C1754 H1776 0.931 . S
C1755 C1754 1.384 . S
C1755 C1758 1.382 . S
C1756 C1754 1.384 . S
C1756 C1757 1.381 . S
C1756 H1777 0.930 . S
C1757 C1756 1.381 . S
C1757 C1759 1.381 . S
C1757 C1760 1.487 . S
C1758 C1755 1.382 . S
C1758 C1759 1.387 . S
C1758 H1778 0.930 . S
C1759 C1757 1.381 . S
C1759 C1758 1.387 . S
C1759 H1779 0.931 . S
C1760 C1757 1.487 . S
C1760 C1767 1.399 . S
C1760 N1785 1.244 1_655 S
C1761 C1762 1.384 . S
C1761 C1763 1.384 . S
C1761 H1780 0.931 . S
C1762 C1761 1.384 . S
C1762 C1765 1.382 . S
C1763 C1761 1.384 . S
C1763 C1764 1.381 . S
C1763 H1781 0.930 . S
C1764 C1763 1.381 . S
C1764 C1766 1.381 . S
C1764 C1767 1.487 . S
C1765 C1762 1.382 . S
C1765 C1766 1.387 . S
C1765 H1782 0.930 . S
C1766 C1764 1.381 . S
C1766 C1765 1.387 . S
C1766 H1783 0.931 . S
C1767 C1760 1.399 . S
C1767 C1764 1.487 . S
C1767 N1784 1.343 1_655 S
H1768 C1740 0.931 . S
H1769 C1742 0.930 . S
H1770 C1744 0.930 . S
H1771 C1745 0.931 . S
H1772 C1747 0.931 . S
H1773 C1749 0.930 . S
H1774 C1751 0.930 . S
H1775 C1752 0.931 . S
H1776 C1754 0.931 . S
H1777 C1756 0.930 . S
H1778 C1758 0.930 . S
H1779 C1759 0.931 . S
H1780 C1761 0.931 . S
H1781 C1763 0.930 . S
H1782 C1765 0.930 . S
H1783 C1766 0.931 . S
N1784 C1746 1.343 . S
N1784 C1767 1.343 1_455 S
N1785 C1753 1.445 . S
N1785 C1760 1.244 1_455 S
C1786 C1787 1.384 . S
C1786 C1788 1.384 . S
C1786 H1814 0.931 . S
C1787 C1786 1.384 . S
C1787 C1790 1.382 . S
C1788 C1786 1.384 . S
C1788 C1789 1.381 . S
C1788 H1815 0.930 . S
C1789 C1788 1.381 . S
C1789 C1791 1.381 . S
C1789 C1792 1.487 . S
C1790 C1787 1.382 . S
C1790 C1791 1.387 . S
C1790 H1816 0.930 . S
C1791 C1789 1.381 . S
C1791 C1790 1.387 . S
C1791 H1817 0.931 . S
C1792 C1789 1.487 . S
C1792 C1799 1.399 . S
C1792 N1830 1.343 1_565 S
C1793 C1794 1.384 . S
C1793 C1795 1.384 . S
C1793 H1818 0.931 . S
C1794 C1793 1.384 . S
C1794 C1797 1.382 . S
C1795 C1793 1.384 . S
C1795 C1796 1.381 . S
C1795 H1819 0.930 . S
C1796 C1795 1.381 . S
C1796 C1798 1.381 . S
C1796 C1799 1.487 . S
C1797 C1794 1.382 . S
C1797 C1798 1.387 . S
C1797 H1820 0.930 . S
C1798 C1796 1.381 . S
C1798 C1797 1.387 . S
C1798 H1821 0.931 . S
C1799 C1792 1.399 . S
C1799 C1796 1.487 . S
C1799 N1831 1.343 1_565 S
C1800 C1801 1.384 . S
C1800 C1802 1.384 . S
C1800 H1822 0.931 . S
C1801 C1800 1.384 . S
C1801 C1804 1.382 . S
C1802 C1800 1.384 . S
C1802 C1803 1.381 . S
C1802 H1823 0.930 . S
C1803 C1802 1.381 . S
C1803 C1805 1.381 . S
C1803 C1806 1.487 . S
C1804 C1801 1.382 . S
C1804 C1805 1.387 . S
C1804 H1824 0.930 . S
C1805 C1803 1.381 . S
C1805 C1804 1.387 . S
C1805 H1825 0.931 . S
C1806 C1803 1.487 . S
C1806 C1813 1.399 . S
C1806 N1831 1.343 . S
C1807 C1808 1.384 . S
C1807 C1809 1.384 . S
C1807 H1826 0.931 . S
C1808 C1807 1.384 . S
C1808 C1811 1.382 . S
C1809 C1807 1.384 . S
C1809 C1810 1.381 . S
C1809 H1827 0.930 . S
C1810 C1809 1.381 . S
C1810 C1812 1.381 . S
C1810 C1813 1.487 . S
C1811 C1808 1.382 . S
C1811 C1812 1.387 . S
C1811 H1828 0.930 . S
C1812 C1810 1.381 . S
C1812 C1811 1.387 . S
C1812 H1829 0.931 . S
C1813 C1806 1.399 . S
C1813 C1810 1.487 . S
C1813 N1830 1.343 . S
H1814 C1786 0.931 . S
H1815 C1788 0.930 . S
H1816 C1790 0.930 . S
H1817 C1791 0.931 . S
H1818 C1793 0.931 . S
H1819 C1795 0.930 . S
H1820 C1797 0.930 . S
H1821 C1798 0.931 . S
H1822 C1800 0.931 . S
H1823 C1802 0.930 . S
H1824 C1804 0.930 . S
H1825 C1805 0.931 . S
H1826 C1807 0.931 . S
H1827 C1809 0.930 . S
H1828 C1811 0.930 . S
H1829 C1812 0.931 . S
N1830 C1792 1.343 1_545 S
N1830 C1813 1.343 . S
N1831 C1799 1.343 1_545 S
N1831 C1806 1.343 . S
C1832 C1833 1.384 . S
C1832 C1834 1.384 . S
C1832 H1860 0.931 . S
C1833 C1832 1.384 . S
C1833 C1836 1.382 . S
C1834 C1832 1.384 . S
C1834 C1835 1.381 . S
C1834 H1861 0.930 . S
C1835 C1834 1.381 . S
C1835 C1837 1.381 . S
C1835 C1838 1.487 . S
C1836 C1833 1.382 . S
C1836 C1837 1.387 . S
C1836 H1862 0.930 . S
C1837 C1835 1.381 . S
C1837 C1836 1.387 . S
C1837 H1863 0.931 . S
C1838 C1835 1.487 . S
C1838 C1845 1.399 . S
C1838 N1876 1.343 . S
C1839 C1840 1.384 . S
C1839 C1841 1.384 . S
C1839 H1864 0.931 . S
C1840 C1839 1.384 . S
C1840 C1843 1.382 . S
C1841 C1839 1.384 . S
C1841 C1842 1.381 . S
C1841 H1865 0.930 . S
C1842 C1841 1.381 . S
C1842 C1844 1.381 . S
C1842 C1845 1.487 . S
C1843 C1840 1.382 . S
C1843 C1844 1.387 . S
C1843 H1866 0.930 . S
C1844 C1842 1.381 . S
C1844 C1843 1.387 . S
C1844 H1867 0.931 . S
C1845 C1838 1.399 . S
C1845 C1842 1.487 . S
C1845 N1877 1.343 . S
C1846 C1847 1.384 . S
C1846 C1848 1.384 . S
C1846 H1868 0.931 . S
C1847 C1846 1.384 . S
C1847 C1850 1.382 . S
C1848 C1846 1.384 . S
C1848 C1849 1.381 . S
C1848 H1869 0.930 . S
C1849 C1848 1.381 . S
C1849 C1851 1.381 . S
C1849 C1852 1.487 . S
C1850 C1847 1.382 . S
C1850 C1851 1.387 . S
C1850 H1870 0.930 . S
C1851 C1849 1.381 . S
C1851 C1850 1.387 . S
C1851 H1871 0.931 . S
C1852 C1849 1.487 . S
C1852 C1859 1.399 . S
C1852 N1877 1.343 . S
C1853 C1854 1.384 . S
C1853 C1855 1.384 . S
C1853 H1872 0.931 . S
C1854 C1853 1.384 . S
C1854 C1857 1.382 . S
C1855 C1853 1.384 . S
C1855 C1856 1.381 . S
C1855 H1873 0.930 . S
C1856 C1855 1.381 . S
C1856 C1858 1.381 . S
C1856 C1859 1.487 . S
C1857 C1854 1.382 . S
C1857 C1858 1.387 . S
C1857 H1874 0.930 . S
C1858 C1856 1.381 . S
C1858 C1857 1.387 . S
C1858 H1875 0.931 . S
C1859 C1852 1.399 . S
C1859 C1856 1.487 . S
C1859 N1876 1.343 . S
H1860 C1832 0.931 . S
H1861 C1834 0.930 . S
H1862 C1836 0.930 . S
H1863 C1837 0.931 . S
H1864 C1839 0.931 . S
H1865 C1841 0.930 . S
H1866 C1843 0.930 . S
H1867 C1844 0.931 . S
H1868 C1846 0.931 . S
H1869 C1848 0.930 . S
H1870 C1850 0.930 . S
H1871 C1851 0.931 . S
H1872 C1853 0.931 . S
H1873 C1855 0.930 . S
H1874 C1857 0.930 . S
H1875 C1858 0.931 . S
N1876 C1838 1.343 . S
N1876 C1859 1.343 . S
N1877 C1845 1.343 . S
N1877 C1852 1.343 . S
C1878 C1879 1.384 . S
C1878 C1880 1.384 . S
C1878 H1906 0.931 . S
C1879 C1878 1.384 . S
C1879 C1882 1.382 . S
C1880 C1878 1.384 . S
C1880 C1881 1.381 . S
C1880 H1907 0.930 . S
C1881 C1880 1.381 . S
C1881 C1883 1.381 . S
C1881 C1884 1.487 . S
C1882 C1879 1.382 . S
C1882 C1883 1.387 . S
C1882 H1908 0.930 . S
C1883 C1881 1.381 . S
C1883 C1882 1.387 . S
C1883 H1909 0.931 . S
C1884 C1881 1.487 . S
C1884 C1891 1.399 . S
C1884 N1922 1.343 . S
C1885 C1886 1.384 . S
C1885 C1887 1.384 . S
C1885 H1910 0.931 . S
C1886 C1885 1.384 . S
C1886 C1889 1.382 . S
C1887 C1885 1.384 . S
C1887 C1888 1.381 . S
C1887 H1911 0.930 . S
C1888 C1887 1.381 . S
C1888 C1890 1.381 . S
C1888 C1891 1.487 . S
C1889 C1886 1.382 . S
C1889 C1890 1.387 . S
C1889 H1912 0.930 . S
C1890 C1888 1.381 . S
C1890 C1889 1.387 . S
C1890 H1913 0.931 . S
C1891 C1884 1.399 . S
C1891 C1888 1.487 . S
C1891 N1923 1.343 . S
C1892 C1893 1.384 . S
C1892 C1894 1.384 . S
C1892 H1914 0.931 . S
C1893 C1892 1.384 . S
C1893 C1896 1.382 . S
C1894 C1892 1.384 . S
C1894 C1895 1.381 . S
C1894 H1915 0.930 . S
C1895 C1894 1.381 . S
C1895 C1897 1.381 . S
C1895 C1898 1.487 . S
C1896 C1893 1.382 . S
C1896 C1897 1.387 . S
C1896 H1916 0.930 . S
C1897 C1895 1.381 . S
C1897 C1896 1.387 . S
C1897 H1917 0.931 . S
C1898 C1895 1.487 . S
C1898 C1905 1.399 . S
C1898 N1923 1.343 . S
C1899 C1900 1.384 . S
C1899 C1901 1.384 . S
C1899 H1918 0.931 . S
C1900 C1899 1.384 . S
C1900 C1903 1.382 . S
C1901 C1899 1.384 . S
C1901 C1902 1.381 . S
C1901 H1919 0.930 . S
C1902 C1901 1.381 . S
C1902 C1904 1.381 . S
C1902 C1905 1.487 . S
C1903 C1900 1.382 . S
C1903 C1904 1.387 . S
C1903 H1920 0.930 . S
C1904 C1902 1.381 . S
C1904 C1903 1.387 . S
C1904 H1921 0.931 . S
C1905 C1898 1.399 . S
C1905 C1902 1.487 . S
C1905 N1922 1.343 . S
H1906 C1878 0.931 . S
H1907 C1880 0.930 . S
H1908 C1882 0.930 . S
H1909 C1883 0.931 . S
H1910 C1885 0.931 . S
H1911 C1887 0.930 . S
H1912 C1889 0.930 . S
H1913 C1890 0.931 . S
H1914 C1892 0.931 . S
H1915 C1894 0.930 . S
H1916 C1896 0.930 . S
H1917 C1897 0.931 . S
H1918 C1899 0.931 . S
H1919 C1901 0.930 . S
H1920 C1903 0.930 . S
H1921 C1904 0.931 . S
N1922 C1884 1.343 . S
N1922 C1905 1.343 . S
N1923 C1891 1.343 . S
N1923 C1898 1.343 . S
C1924 C1925 1.384 . S
C1924 C1926 1.384 . S
C1924 H1952 0.931 . S
C1925 C1924 1.384 . S
C1925 C1928 1.382 . S
C1926 C1924 1.384 . S
C1926 C1927 1.381 . S
C1926 H1953 0.930 . S
C1927 C1926 1.381 . S
C1927 C1929 1.381 . S
C1927 C1930 1.487 . S
C1928 C1925 1.382 . S
C1928 C1929 1.387 . S
C1928 H1954 0.930 . S
C1929 C1927 1.381 . S
C1929 C1928 1.387 . S
C1929 H1955 0.931 . S
C1930 C1927 1.487 . S
C1930 C1937 1.399 . S
C1930 N1968 1.343 . S
C1931 C1932 1.384 . S
C1931 C1933 1.384 . S
C1931 H1956 0.931 . S
C1932 C1931 1.384 . S
C1932 C1935 1.382 . S
C1933 C1931 1.384 . S
C1933 C1934 1.381 . S
C1933 H1957 0.930 . S
C1934 C1933 1.381 . S
C1934 C1936 1.381 . S
C1934 C1937 1.487 . S
C1935 C1932 1.382 . S
C1935 C1936 1.387 . S
C1935 H1958 0.930 . S
C1936 C1934 1.381 . S
C1936 C1935 1.387 . S
C1936 H1959 0.931 . S
C1937 C1930 1.399 . S
C1937 C1934 1.487 . S
C1937 N1969 1.343 . S
C1938 C1939 1.384 . S
C1938 C1940 1.384 . S
C1938 H1960 0.931 . S
C1939 C1938 1.384 . S
C1939 C1942 1.382 . S
C1940 C1938 1.384 . S
C1940 C1941 1.381 . S
C1940 H1961 0.930 . S
C1941 C1940 1.381 . S
C1941 C1943 1.381 . S
C1941 C1944 1.487 . S
C1942 C1939 1.382 . S
C1942 C1943 1.387 . S
C1942 H1962 0.930 . S
C1943 C1941 1.381 . S
C1943 C1942 1.387 . S
C1943 H1963 0.931 . S
C1944 C1941 1.487 . S
C1944 C1951 1.399 . S
C1944 N1969 1.343 . S
C1945 C1946 1.384 . S
C1945 C1947 1.384 . S
C1945 H1964 0.931 . S
C1946 C1945 1.384 . S
C1946 C1949 1.382 . S
C1947 C1945 1.384 . S
C1947 C1948 1.381 . S
C1947 H1965 0.930 . S
C1948 C1947 1.381 . S
C1948 C1950 1.381 . S
C1948 C1951 1.487 . S
C1949 C1946 1.382 . S
C1949 C1950 1.387 . S
C1949 H1966 0.930 . S
C1950 C1948 1.381 . S
C1950 C1949 1.387 . S
C1950 H1967 0.931 . S
C1951 C1944 1.399 . S
C1951 C1948 1.487 . S
C1951 N1968 1.343 . S
H1952 C1924 0.931 . S
H1953 C1926 0.930 . S
H1954 C1928 0.930 . S
H1955 C1929 0.931 . S
H1956 C1931 0.931 . S
H1957 C1933 0.930 . S
H1958 C1935 0.930 . S
H1959 C1936 0.931 . S
H1960 C1938 0.931 . S
H1961 C1940 0.930 . S
H1962 C1942 0.930 . S
H1963 C1943 0.931 . S
H1964 C1945 0.931 . S
H1965 C1947 0.930 . S
H1966 C1949 0.930 . S
H1967 C1950 0.931 . S
N1968 C1930 1.343 . S
N1968 C1951 1.343 . S
N1969 C1937 1.343 . S
N1969 C1944 1.343 . S
C1970 C1971 1.384 . S
C1970 C1972 1.384 . S
C1970 H1998 0.931 . S
C1971 C1970 1.384 . S
C1971 C1974 1.382 . S
C1972 C1970 1.384 . S
C1972 C1973 1.381 . S
C1972 H1999 0.930 . S
C1973 C1972 1.381 . S
C1973 C1975 1.381 . S
C1973 C1976 1.487 . S
C1974 C1971 1.382 . S
C1974 C1975 1.387 . S
C1974 H2000 0.930 . S
C1975 C1973 1.381 . S
C1975 C1974 1.387 . S
C1975 H2001 0.931 . S
C1976 C1973 1.487 . S
C1976 C1983 1.399 . S
C1976 N2014 1.343 . S
C1977 C1978 1.384 . S
C1977 C1979 1.384 . S
C1977 H2002 0.931 . S
C1978 C1977 1.384 . S
C1978 C1981 1.382 . S
C1979 C1977 1.384 . S
C1979 C1980 1.381 . S
C1979 H2003 0.930 . S
C1980 C1979 1.381 . S
C1980 C1982 1.381 . S
C1980 C1983 1.487 . S
C1981 C1978 1.382 . S
C1981 C1982 1.387 . S
C1981 H2004 0.930 . S
C1982 C1980 1.381 . S
C1982 C1981 1.387 . S
C1982 H2005 0.931 . S
C1983 C1976 1.399 . S
C1983 C1980 1.487 . S
C1983 N2015 1.343 . S
C1984 C1985 1.384 . S
C1984 C1986 1.384 . S
C1984 H2006 0.931 . S
C1985 C1984 1.384 . S
C1985 C1988 1.382 . S
C1986 C1984 1.384 . S
C1986 C1987 1.381 . S
C1986 H2007 0.930 . S
C1987 C1986 1.381 . S
C1987 C1989 1.381 . S
C1987 C1990 1.487 . S
C1988 C1985 1.382 . S
C1988 C1989 1.387 . S
C1988 H2008 0.930 . S
C1989 C1987 1.381 . S
C1989 C1988 1.387 . S
C1989 H2009 0.931 . S
C1990 C1987 1.487 . S
C1990 C1997 1.399 . S
C1990 N2015 1.343 . S
C1991 C1992 1.384 . S
C1991 C1993 1.384 . S
C1991 H2010 0.931 . S
C1992 C1991 1.384 . S
C1992 C1995 1.382 . S
C1993 C1991 1.384 . S
C1993 C1994 1.381 . S
C1993 H2011 0.930 . S
C1994 C1993 1.381 . S
C1994 C1996 1.381 . S
C1994 C1997 1.487 . S
C1995 C1992 1.382 . S
C1995 C1996 1.387 . S
C1995 H2012 0.930 . S
C1996 C1994 1.381 . S
C1996 C1995 1.387 . S
C1996 H2013 0.931 . S
C1997 C1990 1.399 . S
C1997 C1994 1.487 . S
C1997 N2014 1.343 . S
H1998 C1970 0.931 . S
H1999 C1972 0.930 . S
H2000 C1974 0.930 . S
H2001 C1975 0.931 . S
H2002 C1977 0.931 . S
H2003 C1979 0.930 . S
H2004 C1981 0.930 . S
H2005 C1982 0.931 . S
H2006 C1984 0.931 . S
H2007 C1986 0.930 . S
H2008 C1988 0.930 . S
H2009 C1989 0.931 . S
H2010 C1991 0.931 . S
H2011 C1993 0.930 . S
H2012 C1995 0.930 . S
H2013 C1996 0.931 . S
N2014 C1976 1.343 . S
N2014 C1997 1.343 . S
N2015 C1983 1.343 . S
N2015 C1990 1.343 . S
C2016 C2017 1.384 . S
C2016 C2018 1.384 . S
C2016 H2044 0.931 . S
C2017 C2016 1.384 . S
C2017 C2020 1.382 . S
C2018 C2016 1.384 . S
C2018 C2019 1.381 . S
C2018 H2045 0.930 . S
C2019 C2018 1.381 . S
C2019 C2021 1.381 . S
C2019 C2022 1.487 . S
C2020 C2017 1.382 . S
C2020 C2021 1.387 . S
C2020 H2046 0.930 . S
C2021 C2019 1.381 . S
C2021 C2020 1.387 . S
C2021 H2047 0.931 . S
C2022 C2019 1.487 . S
C2022 C2029 1.399 . S
C2022 N2060 1.343 . S
C2023 C2024 1.384 . S
C2023 C2025 1.384 . S
C2023 H2048 0.931 . S
C2024 C2023 1.384 . S
C2024 C2027 1.382 . S
C2025 C2023 1.384 . S
C2025 C2026 1.381 . S
C2025 H2049 0.930 . S
C2026 C2025 1.381 . S
C2026 C2028 1.381 . S
C2026 C2029 1.487 . S
C2027 C2024 1.382 . S
C2027 C2028 1.387 . S
C2027 H2050 0.930 . S
C2028 C2026 1.381 . S
C2028 C2027 1.387 . S
C2028 H2051 0.931 . S
C2029 C2022 1.399 . S
C2029 C2026 1.487 . S
C2029 N2061 1.343 . S
C2030 C2031 1.384 . S
C2030 C2032 1.384 . S
C2030 H2052 0.931 . S
C2031 C2030 1.384 . S
C2031 C2034 1.382 . S
C2032 C2030 1.384 . S
C2032 C2033 1.381 . S
C2032 H2053 0.930 . S
C2033 C2032 1.381 . S
C2033 C2035 1.381 . S
C2033 C2036 1.487 . S
C2034 C2031 1.382 . S
C2034 C2035 1.387 . S
C2034 H2054 0.930 . S
C2035 C2033 1.381 . S
C2035 C2034 1.387 . S
C2035 H2055 0.931 . S
C2036 C2033 1.487 . S
C2036 C2043 1.399 . S
C2036 N2061 1.343 . S
C2037 C2038 1.384 . S
C2037 C2039 1.384 . S
C2037 H2056 0.931 . S
C2038 C2037 1.384 . S
C2038 C2041 1.382 . S
C2039 C2037 1.384 . S
C2039 C2040 1.381 . S
C2039 H2057 0.930 . S
C2040 C2039 1.381 . S
C2040 C2042 1.381 . S
C2040 C2043 1.487 . S
C2041 C2038 1.382 . S
C2041 C2042 1.387 . S
C2041 H2058 0.930 . S
C2042 C2040 1.381 . S
C2042 C2041 1.387 . S
C2042 H2059 0.931 . S
C2043 C2036 1.399 . S
C2043 C2040 1.487 . S
C2043 N2060 1.343 . S
H2044 C2016 0.931 . S
H2045 C2018 0.930 . S
H2046 C2020 0.930 . S
H2047 C2021 0.931 . S
H2048 C2023 0.931 . S
H2049 C2025 0.930 . S
H2050 C2027 0.930 . S
H2051 C2028 0.931 . S
H2052 C2030 0.931 . S
H2053 C2032 0.930 . S
H2054 C2034 0.930 . S
H2055 C2035 0.931 . S
H2056 C2037 0.931 . S
H2057 C2039 0.930 . S
H2058 C2041 0.930 . S
H2059 C2042 0.931 . S
N2060 C2022 1.343 . S
N2060 C2043 1.343 . S
N2061 C2029 1.343 . S
N2061 C2036 1.343 . S
C2062 C2063 1.384 . S
C2062 C2064 1.384 . S
C2062 H2090 0.931 . S
C2063 C2062 1.384 . S
C2063 C2066 1.382 . S
C2064 C2062 1.384 . S
C2064 C2065 1.381 . S
C2064 H2091 0.930 . S
C2065 C2064 1.381 . S
C2065 C2067 1.381 . S
C2065 C2068 1.487 . S
C2066 C2063 1.382 . S
C2066 C2067 1.387 . S
C2066 H2092 0.930 . S
C2067 C2065 1.381 . S
C2067 C2066 1.387 . S
C2067 H2093 0.931 . S
C2068 C2065 1.487 . S
C2068 C2075 1.399 . S
C2068 N2106 1.343 . S
C2069 C2070 1.384 . S
C2069 C2071 1.384 . S
C2069 H2094 0.931 . S
C2070 C2069 1.384 . S
C2070 C2073 1.382 . S
C2071 C2069 1.384 . S
C2071 C2072 1.381 . S
C2071 H2095 0.930 . S
C2072 C2071 1.381 . S
C2072 C2074 1.381 . S
C2072 C2075 1.487 . S
C2073 C2070 1.382 . S
C2073 C2074 1.387 . S
C2073 H2096 0.930 . S
C2074 C2072 1.381 . S
C2074 C2073 1.387 . S
C2074 H2097 0.931 . S
C2075 C2068 1.399 . S
C2075 C2072 1.487 . S
C2075 N2107 1.343 . S
C2076 C2077 1.384 . S
C2076 C2078 1.384 . S
C2076 H2098 0.931 . S
C2077 C2076 1.384 . S
C2077 C2080 1.382 . S
C2078 C2076 1.384 . S
C2078 C2079 1.381 . S
C2078 H2099 0.930 . S
C2079 C2078 1.381 . S
C2079 C2081 1.381 . S
C2079 C2082 1.487 . S
C2080 C2077 1.382 . S
C2080 C2081 1.387 . S
C2080 H2100 0.930 . S
C2081 C2079 1.381 . S
C2081 C2080 1.387 . S
C2081 H2101 0.931 . S
C2082 C2079 1.487 . S
C2082 C2089 1.399 . S
C2082 N2107 1.343 . S
C2083 C2084 1.384 . S
C2083 C2085 1.384 . S
C2083 H2102 0.931 . S
C2084 C2083 1.384 . S
C2084 C2087 1.382 . S
C2085 C2083 1.384 . S
C2085 C2086 1.381 . S
C2085 H2103 0.930 . S
C2086 C2085 1.381 . S
C2086 C2088 1.381 . S
C2086 C2089 1.487 . S
C2087 C2084 1.382 . S
C2087 C2088 1.387 . S
C2087 H2104 0.930 . S
C2088 C2086 1.381 . S
C2088 C2087 1.387 . S
C2088 H2105 0.931 . S
C2089 C2082 1.399 . S
C2089 C2086 1.487 . S
C2089 N2106 1.343 . S
H2090 C2062 0.931 . S
H2091 C2064 0.930 . S
H2092 C2066 0.930 . S
H2093 C2067 0.931 . S
H2094 C2069 0.931 . S
H2095 C2071 0.930 . S
H2096 C2073 0.930 . S
H2097 C2074 0.931 . S
H2098 C2076 0.931 . S
H2099 C2078 0.930 . S
H2100 C2080 0.930 . S
H2101 C2081 0.931 . S
H2102 C2083 0.931 . S
H2103 C2085 0.930 . S
H2104 C2087 0.930 . S
H2105 C2088 0.931 . S
N2106 C2068 1.343 . S
N2106 C2089 1.343 . S
N2107 C2075 1.343 . S
N2107 C2082 1.343 . S
C2108 C2109 1.384 . S
C2108 C2110 1.384 . S
C2108 H2136 0.931 . S
C2109 C2108 1.384 . S
C2109 C2112 1.382 . S
C2110 C2108 1.384 . S
C2110 C2111 1.381 . S
C2110 H2137 0.930 . S
C2111 C2110 1.381 . S
C2111 C2113 1.381 . S
C2111 C2114 1.487 . S
C2112 C2109 1.382 . S
C2112 C2113 1.387 . S
C2112 H2138 0.930 . S
C2113 C2111 1.381 . S
C2113 C2112 1.387 . S
C2113 H2139 0.931 . S
C2114 C2111 1.487 . S
C2114 C2121 1.399 . S
C2114 N2152 1.343 . S
C2115 C2116 1.384 . S
C2115 C2117 1.384 . S
C2115 H2140 0.931 . S
C2116 C2115 1.384 . S
C2116 C2119 1.382 . S
C2117 C2115 1.384 . S
C2117 C2118 1.381 . S
C2117 H2141 0.930 . S
C2118 C2117 1.381 . S
C2118 C2120 1.381 . S
C2118 C2121 1.487 . S
C2119 C2116 1.382 . S
C2119 C2120 1.387 . S
C2119 H2142 0.930 . S
C2120 C2118 1.381 . S
C2120 C2119 1.387 . S
C2120 H2143 0.931 . S
C2121 C2114 1.399 . S
C2121 C2118 1.487 . S
C2121 N2153 1.343 . S
C2122 C2123 1.384 . S
C2122 C2124 1.384 . S
C2122 H2144 0.931 . S
C2123 C2122 1.384 . S
C2123 C2126 1.382 . S
C2124 C2122 1.384 . S
C2124 C2125 1.381 . S
C2124 H2145 0.930 . S
C2125 C2124 1.381 . S
C2125 C2127 1.381 . S
C2125 C2128 1.487 . S
C2126 C2123 1.382 . S
C2126 C2127 1.387 . S
C2126 H2146 0.930 . S
C2127 C2125 1.381 . S
C2127 C2126 1.387 . S
C2127 H2147 0.931 . S
C2128 C2125 1.487 . S
C2128 C2135 1.399 . S
C2128 N2153 1.343 . S
C2129 C2130 1.384 . S
C2129 C2131 1.384 . S
C2129 H2148 0.931 . S
C2130 C2129 1.384 . S
C2130 C2133 1.382 . S
C2131 C2129 1.384 . S
C2131 C2132 1.381 . S
C2131 H2149 0.930 . S
C2132 C2131 1.381 . S
C2132 C2134 1.381 . S
C2132 C2135 1.487 . S
C2133 C2130 1.382 . S
C2133 C2134 1.387 . S
C2133 H2150 0.930 . S
C2134 C2132 1.381 . S
C2134 C2133 1.387 . S
C2134 H2151 0.931 . S
C2135 C2128 1.399 . S
C2135 C2132 1.487 . S
C2135 N2152 1.343 . S
H2136 C2108 0.931 . S
H2137 C2110 0.930 . S
H2138 C2112 0.930 . S
H2139 C2113 0.931 . S
H2140 C2115 0.931 . S
H2141 C2117 0.930 . S
H2142 C2119 0.930 . S
H2143 C2120 0.931 . S
H2144 C2122 0.931 . S
H2145 C2124 0.930 . S
H2146 C2126 0.930 . S
H2147 C2127 0.931 . S
H2148 C2129 0.931 . S
H2149 C2131 0.930 . S
H2150 C2133 0.930 . S
H2151 C2134 0.931 . S
N2152 C2114 1.343 . S
N2152 C2135 1.343 . S
N2153 C2121 1.343 . S
N2153 C2128 1.343 . S
C2154 C2155 1.384 . S
C2154 C2156 1.384 . S
C2154 H2182 0.931 . S
C2155 C2154 1.384 . S
C2155 C2158 1.382 . S
C2156 C2154 1.384 . S
C2156 C2157 1.381 . S
C2156 H2183 0.930 . S
C2157 C2156 1.381 . S
C2157 C2159 1.381 . S
C2157 C2160 1.487 . S
C2158 C2155 1.382 . S
C2158 C2159 1.387 . S
C2158 H2184 0.930 . S
C2159 C2157 1.381 . S
C2159 C2158 1.387 . S
C2159 H2185 0.931 . S
C2160 C2157 1.487 . S
C2160 C2167 1.399 . S
C2160 N2198 1.343 . S
C2161 C2162 1.384 . S
C2161 C2163 1.384 . S
C2161 H2186 0.931 . S
C2162 C2161 1.384 . S
C2162 C2165 1.382 . S
C2163 C2161 1.384 . S
C2163 C2164 1.381 . S
C2163 H2187 0.930 . S
C2164 C2163 1.381 . S
C2164 C2166 1.381 . S
C2164 C2167 1.487 . S
C2165 C2162 1.382 . S
C2165 C2166 1.387 . S
C2165 H2188 0.930 . S
C2166 C2164 1.381 . S
C2166 C2165 1.387 . S
C2166 H2189 0.931 . S
C2167 C2160 1.399 . S
C2167 C2164 1.487 . S
C2167 N2199 1.343 . S
C2168 C2169 1.384 . S
C2168 C2170 1.384 . S
C2168 H2190 0.931 . S
C2169 C2168 1.384 . S
C2169 C2172 1.382 . S
C2170 C2168 1.384 . S
C2170 C2171 1.381 . S
C2170 H2191 0.930 . S
C2171 C2170 1.381 . S
C2171 C2173 1.381 . S
C2171 C2174 1.487 . S
C2172 C2169 1.382 . S
C2172 C2173 1.387 . S
C2172 H2192 0.930 . S
C2173 C2171 1.381 . S
C2173 C2172 1.387 . S
C2173 H2193 0.931 . S
C2174 C2171 1.487 . S
C2174 C2181 1.399 . S
C2174 N2199 1.343 . S
C2175 C2176 1.384 . S
C2175 C2177 1.384 . S
C2175 H2194 0.931 . S
C2176 C2175 1.384 . S
C2176 C2179 1.382 . S
C2177 C2175 1.384 . S
C2177 C2178 1.381 . S
C2177 H2195 0.930 . S
C2178 C2177 1.381 . S
C2178 C2180 1.381 . S
C2178 C2181 1.487 . S
C2179 C2176 1.382 . S
C2179 C2180 1.387 . S
C2179 H2196 0.930 . S
C2180 C2178 1.381 . S
C2180 C2179 1.387 . S
C2180 H2197 0.931 . S
C2181 C2174 1.399 . S
C2181 C2178 1.487 . S
C2181 N2198 1.343 . S
H2182 C2154 0.931 . S
H2183 C2156 0.930 . S
H2184 C2158 0.930 . S
H2185 C2159 0.931 . S
H2186 C2161 0.931 . S
H2187 C2163 0.930 . S
H2188 C2165 0.930 . S
H2189 C2166 0.931 . S
H2190 C2168 0.931 . S
H2191 C2170 0.930 . S
H2192 C2172 0.930 . S
H2193 C2173 0.931 . S
H2194 C2175 0.931 . S
H2195 C2177 0.930 . S
H2196 C2179 0.930 . S
H2197 C2180 0.931 . S
N2198 C2160 1.343 . S
N2198 C2181 1.343 . S
N2199 C2167 1.343 . S
N2199 C2174 1.343 . S
C2200 C2201 1.384 . S
C2200 C2202 1.384 . S
C2200 H2228 0.931 . S
C2201 C2200 1.384 . S
C2201 C2204 1.382 . S
C2202 C2200 1.384 . S
C2202 C2203 1.381 . S
C2202 H2229 0.930 . S
C2203 C2202 1.381 . S
C2203 C2205 1.381 . S
C2203 C2206 1.487 . S
C2204 C2201 1.382 . S
C2204 C2205 1.387 . S
C2204 H2230 0.930 . S
C2205 C2203 1.381 . S
C2205 C2204 1.387 . S
C2205 H2231 0.931 . S
C2206 C2203 1.487 . S
C2206 C2213 1.399 . S
C2206 N2244 1.343 . S
C2207 C2208 1.384 . S
C2207 C2209 1.384 . S
C2207 H2232 0.931 . S
C2208 C2207 1.384 . S
C2208 C2211 1.382 . S
C2209 C2207 1.384 . S
C2209 C2210 1.381 . S
C2209 H2233 0.930 . S
C2210 C2209 1.381 . S
C2210 C2212 1.381 . S
C2210 C2213 1.487 . S
C2211 C2208 1.382 . S
C2211 C2212 1.387 . S
C2211 H2234 0.930 . S
C2212 C2210 1.381 . S
C2212 C2211 1.387 . S
C2212 H2235 0.931 . S
C2213 C2206 1.399 . S
C2213 C2210 1.487 . S
C2213 N2245 1.343 . S
C2214 C2215 1.384 . S
C2214 C2216 1.384 . S
C2214 H2236 0.931 . S
C2215 C2214 1.384 . S
C2215 C2218 1.382 . S
C2216 C2214 1.384 . S
C2216 C2217 1.381 . S
C2216 H2237 0.930 . S
C2217 C2216 1.381 . S
C2217 C2219 1.381 . S
C2217 C2220 1.487 . S
C2218 C2215 1.382 . S
C2218 C2219 1.387 . S
C2218 H2238 0.930 . S
C2219 C2217 1.381 . S
C2219 C2218 1.387 . S
C2219 H2239 0.931 . S
C2220 C2217 1.487 . S
C2220 C2227 1.399 . S
C2220 N2245 1.343 . S
C2221 C2222 1.384 . S
C2221 C2223 1.384 . S
C2221 H2240 0.931 . S
C2222 C2221 1.384 . S
C2222 C2225 1.382 . S
C2223 C2221 1.384 . S
C2223 C2224 1.381 . S
C2223 H2241 0.930 . S
C2224 C2223 1.381 . S
C2224 C2226 1.381 . S
C2224 C2227 1.487 . S
C2225 C2222 1.382 . S
C2225 C2226 1.387 . S
C2225 H2242 0.930 . S
C2226 C2224 1.381 . S
C2226 C2225 1.387 . S
C2226 H2243 0.931 . S
C2227 C2220 1.399 . S
C2227 C2224 1.487 . S
C2227 N2244 1.343 . S
H2228 C2200 0.931 . S
H2229 C2202 0.930 . S
H2230 C2204 0.930 . S
H2231 C2205 0.931 . S
H2232 C2207 0.931 . S
H2233 C2209 0.930 . S
H2234 C2211 0.930 . S
H2235 C2212 0.931 . S
H2236 C2214 0.931 . S
H2237 C2216 0.930 . S
H2238 C2218 0.930 . S
H2239 C2219 0.931 . S
H2240 C2221 0.931 . S
H2241 C2223 0.930 . S
H2242 C2225 0.930 . S
H2243 C2226 0.931 . S
N2244 C2206 1.343 . S
N2244 C2227 1.343 . S
N2245 C2213 1.343 . S
N2245 C2220 1.343 . S
C2246 C2247 1.384 . S
C2246 C2248 1.384 . S
C2246 H2274 0.931 . S
C2247 C2246 1.384 . S
C2247 C2250 1.382 . S
C2248 C2246 1.384 . S
C2248 C2249 1.381 . S
C2248 H2275 0.930 . S
C2249 C2248 1.381 . S
C2249 C2251 1.381 . S
C2249 C2252 1.487 . S
C2250 C2247 1.382 . S
C2250 C2251 1.387 . S
C2250 H2276 0.930 . S
C2251 C2249 1.381 . S
C2251 C2250 1.387 . S
C2251 H2277 0.931 . S
C2252 C2249 1.487 . S
C2252 C2259 1.399 . S
C2252 N2290 1.343 . S
C2253 C2254 1.384 . S
C2253 C2255 1.384 . S
C2253 H2278 0.931 . S
C2254 C2253 1.384 . S
C2254 C2257 1.382 . S
C2255 C2253 1.384 . S
C2255 C2256 1.381 . S
C2255 H2279 0.930 . S
C2256 C2255 1.381 . S
C2256 C2258 1.381 . S
C2256 C2259 1.487 . S
C2257 C2254 1.382 . S
C2257 C2258 1.387 . S
C2257 H2280 0.930 . S
C2258 C2256 1.381 . S
C2258 C2257 1.387 . S
C2258 H2281 0.931 . S
C2259 C2252 1.399 . S
C2259 C2256 1.487 . S
C2259 N2291 1.343 . S
C2260 C2261 1.384 . S
C2260 C2262 1.384 . S
C2260 H2282 0.931 . S
C2261 C2260 1.384 . S
C2261 C2264 1.382 . S
C2262 C2260 1.384 . S
C2262 C2263 1.381 . S
C2262 H2283 0.930 . S
C2263 C2262 1.381 . S
C2263 C2265 1.381 . S
C2263 C2266 1.487 . S
C2264 C2261 1.382 . S
C2264 C2265 1.387 . S
C2264 H2284 0.930 . S
C2265 C2263 1.381 . S
C2265 C2264 1.387 . S
C2265 H2285 0.931 . S
C2266 C2263 1.487 . S
C2266 C2273 1.399 . S
C2266 N2291 1.343 . S
C2267 C2268 1.384 . S
C2267 C2269 1.384 . S
C2267 H2286 0.931 . S
C2268 C2267 1.384 . S
C2268 C2271 1.382 . S
C2269 C2267 1.384 . S
C2269 C2270 1.381 . S
C2269 H2287 0.930 . S
C2270 C2269 1.381 . S
C2270 C2272 1.381 . S
C2270 C2273 1.487 . S
C2271 C2268 1.382 . S
C2271 C2272 1.387 . S
C2271 H2288 0.930 . S
C2272 C2270 1.381 . S
C2272 C2271 1.387 . S
C2272 H2289 0.931 . S
C2273 C2266 1.399 . S
C2273 C2270 1.487 . S
C2273 N2290 1.343 . S
H2274 C2246 0.931 . S
H2275 C2248 0.930 . S
H2276 C2250 0.930 . S
H2277 C2251 0.931 . S
H2278 C2253 0.931 . S
H2279 C2255 0.930 . S
H2280 C2257 0.930 . S
H2281 C2258 0.931 . S
H2282 C2260 0.931 . S
H2283 C2262 0.930 . S
H2284 C2264 0.930 . S
H2285 C2265 0.931 . S
H2286 C2267 0.931 . S
H2287 C2269 0.930 . S
H2288 C2271 0.930 . S
H2289 C2272 0.931 . S
N2290 C2252 1.343 . S
N2290 C2273 1.343 . S
N2291 C2259 1.343 . S
N2291 C2266 1.343 . S
C2292 C2293 1.384 . S
C2292 C2294 1.384 . S
C2292 H2320 0.931 . S
C2293 C2292 1.384 . S
C2293 C2296 1.382 . S
C2294 C2292 1.384 . S
C2294 C2295 1.381 . S
C2294 H2321 0.930 . S
C2295 C2294 1.381 . S
C2295 C2297 1.381 . S
C2295 C2298 1.487 . S
C2296 C2293 1.382 . S
C2296 C2297 1.387 . S
C2296 H2322 0.930 . S
C2297 C2295 1.381 . S
C2297 C2296 1.387 . S
C2297 H2323 0.931 . S
C2298 C2295 1.487 . S
C2298 C2305 1.399 . S
C2298 N2336 1.343 . S
C2299 C2300 1.384 . S
C2299 C2301 1.384 . S
C2299 H2324 0.931 . S
C2300 C2299 1.384 . S
C2300 C2303 1.382 . S
C2301 C2299 1.384 . S
C2301 C2302 1.381 . S
C2301 H2325 0.930 . S
C2302 C2301 1.381 . S
C2302 C2304 1.381 . S
C2302 C2305 1.487 . S
C2303 C2300 1.382 . S
C2303 C2304 1.387 . S
C2303 H2326 0.930 . S
C2304 C2302 1.381 . S
C2304 C2303 1.387 . S
C2304 H2327 0.931 . S
C2305 C2298 1.399 . S
C2305 C2302 1.487 . S
C2305 N2337 1.343 . S
C2306 C2307 1.384 . S
C2306 C2308 1.384 . S
C2306 H2328 0.931 . S
C2307 C2306 1.384 . S
C2307 C2310 1.382 . S
C2308 C2306 1.384 . S
C2308 C2309 1.381 . S
C2308 H2329 0.930 . S
C2309 C2308 1.381 . S
C2309 C2311 1.381 . S
C2309 C2312 1.487 . S
C2310 C2307 1.382 . S
C2310 C2311 1.387 . S
C2310 H2330 0.930 . S
C2311 C2309 1.381 . S
C2311 C2310 1.387 . S
C2311 H2331 0.931 . S
C2312 C2309 1.487 . S
C2312 C2319 1.399 . S
C2312 N2337 1.343 . S
C2313 C2314 1.384 . S
C2313 C2315 1.384 . S
C2313 H2332 0.931 . S
C2314 C2313 1.384 . S
C2314 C2317 1.382 . S
C2315 C2313 1.384 . S
C2315 C2316 1.381 . S
C2315 H2333 0.930 . S
C2316 C2315 1.381 . S
C2316 C2318 1.381 . S
C2316 C2319 1.487 . S
C2317 C2314 1.382 . S
C2317 C2318 1.387 . S
C2317 H2334 0.930 . S
C2318 C2316 1.381 . S
C2318 C2317 1.387 . S
C2318 H2335 0.931 . S
C2319 C2312 1.399 . S
C2319 C2316 1.487 . S
C2319 N2336 1.343 . S
H2320 C2292 0.931 . S
H2321 C2294 0.930 . S
H2322 C2296 0.930 . S
H2323 C2297 0.931 . S
H2324 C2299 0.931 . S
H2325 C2301 0.930 . S
H2326 C2303 0.930 . S
H2327 C2304 0.931 . S
H2328 C2306 0.931 . S
H2329 C2308 0.930 . S
H2330 C2310 0.930 . S
H2331 C2311 0.931 . S
H2332 C2313 0.931 . S
H2333 C2315 0.930 . S
H2334 C2317 0.930 . S
H2335 C2318 0.931 . S
N2336 C2298 1.343 . S
N2336 C2319 1.343 . S
N2337 C2305 1.343 . S
N2337 C2312 1.343 . S
C2338 C2339 1.384 . S
C2338 C2340 1.384 . S
C2338 H2366 0.931 . S
C2339 C2338 1.384 . S
C2339 C2342 1.382 . S
C2340 C2338 1.384 . S
C2340 C2341 1.381 . S
C2340 H2367 0.930 . S
C2341 C2340 1.381 . S
C2341 C2343 1.381 . S
C2341 C2344 1.487 . S
C2342 C2339 1.382 . S
C2342 C2343 1.387 . S
C2342 H2368 0.930 . S
C2343 C2341 1.381 . S
C2343 C2342 1.387 . S
C2343 H2369 0.931 . S
C2344 C2341 1.487 . S
C2344 C2351 1.399 . S
C2344 N2382 1.343 . S
C2345 C2346 1.384 . S
C2345 C2347 1.384 . S
C2345 H2370 0.931 . S
C2346 C2345 1.384 . S
C2346 C2349 1.382 . S
C2347 C2345 1.384 . S
C2347 C2348 1.381 . S
C2347 H2371 0.930 . S
C2348 C2347 1.381 . S
C2348 C2350 1.381 . S
C2348 C2351 1.487 . S
C2349 C2346 1.382 . S
C2349 C2350 1.387 . S
C2349 H2372 0.930 . S
C2350 C2348 1.381 . S
C2350 C2349 1.387 . S
C2350 H2373 0.931 . S
C2351 C2344 1.399 . S
C2351 C2348 1.487 . S
C2351 N2383 1.343 . S
C2352 C2353 1.384 . S
C2352 C2354 1.384 . S
C2352 H2374 0.931 . S
C2353 C2352 1.384 . S
C2353 C2356 1.382 . S
C2354 C2352 1.384 . S
C2354 C2355 1.381 . S
C2354 H2375 0.930 . S
C2355 C2354 1.381 . S
C2355 C2357 1.381 . S
C2355 C2358 1.487 . S
C2356 C2353 1.382 . S
C2356 C2357 1.387 . S
C2356 H2376 0.930 . S
C2357 C2355 1.381 . S
C2357 C2356 1.387 . S
C2357 H2377 0.931 . S
C2358 C2355 1.487 . S
C2358 C2365 1.399 . S
C2358 N2383 1.343 . S
C2359 C2360 1.384 . S
C2359 C2361 1.384 . S
C2359 H2378 0.931 . S
C2360 C2359 1.384 . S
C2360 C2363 1.382 . S
C2361 C2359 1.384 . S
C2361 C2362 1.381 . S
C2361 H2379 0.930 . S
C2362 C2361 1.381 . S
C2362 C2364 1.381 . S
C2362 C2365 1.487 . S
C2363 C2360 1.382 . S
C2363 C2364 1.387 . S
C2363 H2380 0.930 . S
C2364 C2362 1.381 . S
C2364 C2363 1.387 . S
C2364 H2381 0.931 . S
C2365 C2358 1.399 . S
C2365 C2362 1.487 . S
C2365 N2382 1.343 . S
H2366 C2338 0.931 . S
H2367 C2340 0.930 . S
H2368 C2342 0.930 . S
H2369 C2343 0.931 . S
H2370 C2345 0.931 . S
H2371 C2347 0.930 . S
H2372 C2349 0.930 . S
H2373 C2350 0.931 . S
H2374 C2352 0.931 . S
H2375 C2354 0.930 . S
H2376 C2356 0.930 . S
H2377 C2357 0.931 . S
H2378 C2359 0.931 . S
H2379 C2361 0.930 . S
H2380 C2363 0.930 . S
H2381 C2364 0.931 . S
N2382 C2344 1.343 . S
N2382 C2365 1.343 . S
N2383 C2351 1.343 . S
N2383 C2358 1.343 . S
H2384 C2392 0.929 . S
H2385 C2394 0.930 . S
H2386 C2396 0.930 . S
H2387 C2399 0.929 . S
H2388 C2402 0.930 . S
H2389 C2404 0.960 . S
H2390 C2404 0.960 . S
H2391 C2404 0.960 . S
C2392 H2384 0.929 . S
C2392 C2393 1.377 . S
C2392 C2394 1.384 . S
C2393 C2392 1.377 . S
C2393 C2399 1.390 . S
C2394 H2385 0.930 . S
C2394 C2392 1.384 . S
C2394 C2395 1.372 . S
C2395 C2394 1.372 . S
C2395 C2396 1.400 . S
C2395 C2400 1.490 . S
C2396 H2386 0.930 . S
C2396 C2395 1.400 . S
C2396 C2399 1.386 . S
H2397 C2413 0.930 . S
H2398 C2414 0.931 . S
C2399 H2387 0.929 . S
C2399 C2393 1.390 . S
C2399 C2396 1.386 . S
C2400 C2395 1.490 . S
C2400 C2402 1.395 . S
C2400 C2403 1.403 . S
H2401 C2407 0.930 . S
C2402 H2388 0.930 . S
C2402 C2400 1.395 . S
C2402 C2405 1.403 . S
C2403 C2400 1.403 . S
C2403 C2404 1.524 . S
C2403 C2407 1.400 . S
C2404 H2389 0.960 . S
C2404 H2390 0.960 . S
C2404 H2391 0.960 . S
C2404 C2403 1.524 . S
C2405 C2402 1.403 . S
C2405 C2406 1.392 . S
C2405 C2409 1.495 . S
C2406 C2405 1.392 . S
C2406 C2407 1.385 . S
C2406 C2408 1.478 . S
C2407 H2401 0.930 . S
C2407 C2403 1.400 . S
C2407 C2406 1.385 . S
C2408 C2406 1.478 . S
C2408 C2410 1.381 . S
C2408 C2414 1.383 . S
C2409 C2405 1.495 . S
C2409 H2415 0.959 . S
C2409 H2416 0.961 . S
C2409 H2417 0.960 . S
C2410 C2408 1.381 . S
C2410 C2411 1.394 . S
C2410 H2418 0.930 . S
C2411 C2410 1.394 . S
C2411 C2412 1.383 . S
C2411 H2419 0.929 . S
C2412 C2411 1.383 . S
C2412 C2413 1.377 . S
C2413 H2397 0.930 . S
C2413 C2412 1.377 . S
C2413 C2414 1.379 . S
C2414 H2398 0.931 . S
C2414 C2408 1.383 . S
C2414 C2413 1.379 . S
H2415 C2409 0.959 . S
H2416 C2409 0.961 . S
H2417 C2409 0.960 . S
H2418 C2410 0.930 . S
H2419 C2411 0.929 . S
H2420 C2428 0.929 . S
H2421 C2430 0.930 . S
H2422 C2432 0.930 . S
H2423 C2435 0.929 . S
H2424 C2438 0.930 . S
H2425 C2440 0.960 . S
H2426 C2440 0.960 . S
H2427 C2440 0.960 . S
C2428 H2420 0.929 . S
C2428 C2429 1.377 . S
C2428 C2430 1.384 . S
C2429 C2428 1.377 . S
C2429 C2435 1.390 . S
C2430 H2421 0.930 . S
C2430 C2428 1.384 . S
C2430 C2431 1.372 . S
C2431 C2430 1.372 . S
C2431 C2432 1.400 . S
C2431 C2436 1.490 . S
C2432 H2422 0.930 . S
C2432 C2431 1.400 . S
C2432 C2435 1.386 . S
H2433 C2449 0.930 . S
H2434 C2450 0.931 . S
C2435 H2423 0.929 . S
C2435 C2429 1.390 . S
C2435 C2432 1.386 . S
C2436 C2431 1.490 . S
C2436 C2438 1.395 . S
C2436 C2439 1.403 . S
H2437 C2443 0.930 . S
C2438 H2424 0.930 . S
C2438 C2436 1.395 . S
C2438 C2441 1.403 . S
C2439 C2436 1.403 . S
C2439 C2440 1.524 . S
C2439 C2443 1.400 . S
C2440 H2425 0.960 . S
C2440 H2426 0.960 . S
C2440 H2427 0.960 . S
C2440 C2439 1.524 . S
C2441 C2438 1.403 . S
C2441 C2442 1.392 . S
C2441 C2445 1.495 . S
C2442 C2441 1.392 . S
C2442 C2443 1.385 . S
C2442 C2444 1.478 . S
C2443 H2437 0.930 . S
C2443 C2439 1.400 . S
C2443 C2442 1.385 . S
C2444 C2442 1.478 . S
C2444 C2446 1.381 . S
C2444 C2450 1.383 . S
C2445 C2441 1.495 . S
C2445 H2451 0.959 . S
C2445 H2452 0.961 . S
C2445 H2453 0.960 . S
C2446 C2444 1.381 . S
C2446 C2447 1.394 . S
C2446 H2454 0.930 . S
C2447 C2446 1.394 . S
C2447 C2448 1.383 . S
C2447 H2455 0.929 . S
C2448 C2447 1.383 . S
C2448 C2449 1.377 . S
C2449 H2433 0.930 . S
C2449 C2448 1.377 . S
C2449 C2450 1.379 . S
C2450 H2434 0.931 . S
C2450 C2444 1.383 . S
C2450 C2449 1.379 . S
H2451 C2445 0.959 . S
H2452 C2445 0.961 . S
H2453 C2445 0.960 . S
H2454 C2446 0.930 . S
H2455 C2447 0.929 . S
H2456 C2464 0.929 . S
H2457 C2466 0.930 . S
H2458 C2468 0.930 . S
H2459 C2471 0.929 . S
H2460 C2474 0.930 . S
H2461 C2476 0.960 . S
H2462 C2476 0.960 . S
H2463 C2476 0.960 . S
C2464 H2456 0.929 . S
C2464 C2465 1.377 . S
C2464 C2466 1.384 . S
C2465 C2464 1.377 . S
C2465 C2471 1.390 . S
C2466 H2457 0.930 . S
C2466 C2464 1.384 . S
C2466 C2467 1.372 . S
C2467 C2466 1.372 . S
C2467 C2468 1.400 . S
C2467 C2472 1.490 . S
C2468 H2458 0.930 . S
C2468 C2467 1.400 . S
C2468 C2471 1.386 . S
H2469 C2485 0.930 . S
H2470 C2486 0.931 . S
C2471 H2459 0.929 . S
C2471 C2465 1.390 . S
C2471 C2468 1.386 . S
C2472 C2467 1.490 . S
C2472 C2474 1.395 . S
C2472 C2475 1.403 . S
H2473 C2479 0.930 . S
C2474 H2460 0.930 . S
C2474 C2472 1.395 . S
C2474 C2477 1.403 . S
C2475 C2472 1.403 . S
C2475 C2476 1.524 . S
C2475 C2479 1.400 . S
C2476 H2461 0.960 . S
C2476 H2462 0.960 . S
C2476 H2463 0.960 . S
C2476 C2475 1.524 . S
C2477 C2474 1.403 . S
C2477 C2478 1.392 . S
C2477 C2481 1.495 . S
C2478 C2477 1.392 . S
C2478 C2479 1.385 . S
C2478 C2480 1.478 . S
C2479 H2473 0.930 . S
C2479 C2475 1.400 . S
C2479 C2478 1.385 . S
C2480 C2478 1.478 . S
C2480 C2482 1.381 . S
C2480 C2486 1.383 . S
C2481 C2477 1.495 . S
C2481 H2487 0.959 . S
C2481 H2488 0.961 . S
C2481 H2489 0.960 . S
C2482 C2480 1.381 . S
C2482 C2483 1.394 . S
C2482 H2490 0.930 . S
C2483 C2482 1.394 . S
C2483 C2484 1.383 . S
C2483 H2491 0.929 . S
C2484 C2483 1.383 . S
C2484 C2485 1.377 . S
C2485 H2469 0.930 . S
C2485 C2484 1.377 . S
C2485 C2486 1.379 . S
C2486 H2470 0.931 . S
C2486 C2480 1.383 . S
C2486 C2485 1.379 . S
H2487 C2481 0.959 . S
H2488 C2481 0.961 . S
H2489 C2481 0.960 . S
H2490 C2482 0.930 . S
H2491 C2483 0.929 . S
H2492 C2500 0.929 . S
H2493 C2502 0.930 . S
H2494 C2504 0.930 . S
H2495 C2507 0.929 . S
H2496 C2510 0.930 . S
H2497 C2512 0.960 . S
H2498 C2512 0.960 . S
H2499 C2512 0.960 . S
C2500 H2492 0.929 . S
C2500 C2501 1.377 . S
C2500 C2502 1.384 . S
C2501 C2500 1.377 . S
C2501 C2507 1.390 . S
C2502 H2493 0.930 . S
C2502 C2500 1.384 . S
C2502 C2503 1.372 . S
C2503 C2502 1.372 . S
C2503 C2504 1.400 . S
C2503 C2508 1.490 . S
C2504 H2494 0.930 . S
C2504 C2503 1.400 . S
C2504 C2507 1.386 . S
H2505 C2521 0.930 . S
H2506 C2522 0.931 . S
C2507 H2495 0.929 . S
C2507 C2501 1.390 . S
C2507 C2504 1.386 . S
C2508 C2503 1.490 . S
C2508 C2510 1.395 . S
C2508 C2511 1.403 . S
H2509 C2515 0.930 . S
C2510 H2496 0.930 . S
C2510 C2508 1.395 . S
C2510 C2513 1.403 . S
C2511 C2508 1.403 . S
C2511 C2512 1.524 . S
C2511 C2515 1.400 . S
C2512 H2497 0.960 . S
C2512 H2498 0.960 . S
C2512 H2499 0.960 . S
C2512 C2511 1.524 . S
C2513 C2510 1.403 . S
C2513 C2514 1.392 . S
C2513 C2517 1.495 . S
C2514 C2513 1.392 . S
C2514 C2515 1.385 . S
C2514 C2516 1.478 . S
C2515 H2509 0.930 . S
C2515 C2511 1.400 . S
C2515 C2514 1.385 . S
C2516 C2514 1.478 . S
C2516 C2518 1.381 . S
C2516 C2522 1.383 . S
C2517 C2513 1.495 . S
C2517 H2523 0.959 . S
C2517 H2524 0.961 . S
C2517 H2525 0.960 . S
C2518 C2516 1.381 . S
C2518 C2519 1.394 . S
C2518 H2526 0.930 . S
C2519 C2518 1.394 . S
C2519 C2520 1.383 . S
C2519 H2527 0.929 . S
C2520 C2519 1.383 . S
C2520 C2521 1.377 . S
C2521 H2505 0.930 . S
C2521 C2520 1.377 . S
C2521 C2522 1.379 . S
C2522 H2506 0.931 . S
C2522 C2516 1.383 . S
C2522 C2521 1.379 . S
H2523 C2517 0.959 . S
H2524 C2517 0.961 . S
H2525 C2517 0.960 . S
H2526 C2518 0.930 . S
H2527 C2519 0.929 . S
H2528 C2536 0.929 . S
H2529 C2538 0.930 . S
H2530 C2540 0.930 . S
H2531 C2543 0.929 . S
H2532 C2546 0.930 . S
H2533 C2548 0.960 . S
H2534 C2548 0.960 . S
H2535 C2548 0.960 . S
C2536 H2528 0.929 . S
C2536 C2537 1.377 . S
C2536 C2538 1.384 . S
C2537 C2536 1.377 . S
C2537 C2543 1.390 . S
C2538 H2529 0.930 . S
C2538 C2536 1.384 . S
C2538 C2539 1.372 . S
C2539 C2538 1.372 . S
C2539 C2540 1.400 . S
C2539 C2544 1.490 . S
C2540 H2530 0.930 . S
C2540 C2539 1.400 . S
C2540 C2543 1.386 . S
H2541 C2557 0.930 . S
H2542 C2558 0.931 . S
C2543 H2531 0.929 . S
C2543 C2537 1.390 . S
C2543 C2540 1.386 . S
C2544 C2539 1.490 . S
C2544 C2546 1.395 . S
C2544 C2547 1.403 . S
H2545 C2551 0.930 . S
C2546 H2532 0.930 . S
C2546 C2544 1.395 . S
C2546 C2549 1.403 . S
C2547 C2544 1.403 . S
C2547 C2548 1.524 . S
C2547 C2551 1.400 . S
C2548 H2533 0.960 . S
C2548 H2534 0.960 . S
C2548 H2535 0.960 . S
C2548 C2547 1.524 . S
C2549 C2546 1.403 . S
C2549 C2550 1.392 . S
C2549 C2553 1.495 . S
C2550 C2549 1.392 . S
C2550 C2551 1.385 . S
C2550 C2552 1.478 . S
C2551 H2545 0.930 . S
C2551 C2547 1.400 . S
C2551 C2550 1.385 . S
C2552 C2550 1.478 . S
C2552 C2554 1.381 . S
C2552 C2558 1.383 . S
C2553 C2549 1.495 . S
C2553 H2559 0.959 . S
C2553 H2560 0.961 . S
C2553 H2561 0.960 . S
C2554 C2552 1.381 . S
C2554 C2555 1.394 . S
C2554 H2562 0.930 . S
C2555 C2554 1.394 . S
C2555 C2556 1.383 . S
C2555 H2563 0.929 . S
C2556 C2555 1.383 . S
C2556 C2557 1.377 . S
C2557 H2541 0.930 . S
C2557 C2556 1.377 . S
C2557 C2558 1.379 . S
C2558 H2542 0.931 . S
C2558 C2552 1.383 . S
C2558 C2557 1.379 . S
H2559 C2553 0.959 . S
H2560 C2553 0.961 . S
H2561 C2553 0.960 . S
H2562 C2554 0.930 . S
H2563 C2555 0.929 . S
H2564 C2572 0.929 . S
H2565 C2574 0.930 . S
H2566 C2576 0.930 . S
H2567 C2579 0.929 . S
H2568 C2582 0.930 . S
H2569 C2584 0.960 . S
H2570 C2584 0.960 . S
H2571 C2584 0.960 . S
C2572 H2564 0.929 . S
C2572 C2573 1.377 . S
C2572 C2574 1.384 . S
C2573 C2572 1.377 . S
C2573 C2579 1.390 . S
C2574 H2565 0.930 . S
C2574 C2572 1.384 . S
C2574 C2575 1.372 . S
C2575 C2574 1.372 . S
C2575 C2576 1.400 . S
C2575 C2580 1.490 . S
C2576 H2566 0.930 . S
C2576 C2575 1.400 . S
C2576 C2579 1.386 . S
H2577 C2593 0.930 . S
H2578 C2594 0.931 . S
C2579 H2567 0.929 . S
C2579 C2573 1.390 . S
C2579 C2576 1.386 . S
C2580 C2575 1.490 . S
C2580 C2582 1.395 . S
C2580 C2583 1.403 . S
H2581 C2587 0.930 . S
C2582 H2568 0.930 . S
C2582 C2580 1.395 . S
C2582 C2585 1.403 . S
C2583 C2580 1.403 . S
C2583 C2584 1.524 . S
C2583 C2587 1.400 . S
C2584 H2569 0.960 . S
C2584 H2570 0.960 . S
C2584 H2571 0.960 . S
C2584 C2583 1.524 . S
C2585 C2582 1.403 . S
C2585 C2586 1.392 . S
C2585 C2589 1.495 . S
C2586 C2585 1.392 . S
C2586 C2587 1.385 . S
C2586 C2588 1.478 . S
C2587 H2581 0.930 . S
C2587 C2583 1.400 . S
C2587 C2586 1.385 . S
C2588 C2586 1.478 . S
C2588 C2590 1.381 . S
C2588 C2594 1.383 . S
C2589 C2585 1.495 . S
C2589 H2595 0.959 . S
C2589 H2596 0.961 . S
C2589 H2597 0.960 . S
C2590 C2588 1.381 . S
C2590 C2591 1.394 . S
C2590 H2598 0.930 . S
C2591 C2590 1.394 . S
C2591 C2592 1.383 . S
C2591 H2599 0.929 . S
C2592 C2591 1.383 . S
C2592 C2593 1.377 . S
C2593 H2577 0.930 . S
C2593 C2592 1.377 . S
C2593 C2594 1.379 . S
C2594 H2578 0.931 . S
C2594 C2588 1.383 . S
C2594 C2593 1.379 . S
H2595 C2589 0.959 . S
H2596 C2589 0.961 . S
H2597 C2589 0.960 . S
H2598 C2590 0.930 . S
H2599 C2591 0.929 . S
H2600 C2608 0.929 . S
H2601 C2610 0.930 . S
H2602 C2612 0.930 . S
H2603 C2615 0.929 . S
H2604 C2618 0.930 . S
H2605 C2620 0.960 . S
H2606 C2620 0.960 . S
H2607 C2620 0.960 . S
C2608 H2600 0.929 . S
C2608 C2609 1.377 . S
C2608 C2610 1.384 . S
C2609 C2608 1.377 . S
C2609 C2615 1.390 . S
C2610 H2601 0.930 . S
C2610 C2608 1.384 . S
C2610 C2611 1.372 . S
C2611 C2610 1.372 . S
C2611 C2612 1.400 . S
C2611 C2616 1.490 . S
C2612 H2602 0.930 . S
C2612 C2611 1.400 . S
C2612 C2615 1.386 . S
H2613 C2629 0.930 . S
H2614 C2630 0.931 . S
C2615 H2603 0.929 . S
C2615 C2609 1.390 . S
C2615 C2612 1.386 . S
C2616 C2611 1.490 . S
C2616 C2618 1.395 . S
C2616 C2619 1.403 . S
H2617 C2623 0.930 . S
C2618 H2604 0.930 . S
C2618 C2616 1.395 . S
C2618 C2621 1.403 . S
C2619 C2616 1.403 . S
C2619 C2620 1.524 . S
C2619 C2623 1.400 . S
C2620 H2605 0.960 . S
C2620 H2606 0.960 . S
C2620 H2607 0.960 . S
C2620 C2619 1.524 . S
C2621 C2618 1.403 . S
C2621 C2622 1.392 . S
C2621 C2625 1.495 . S
C2622 C2621 1.392 . S
C2622 C2623 1.385 . S
C2622 C2624 1.478 . S
C2623 H2617 0.930 . S
C2623 C2619 1.400 . S
C2623 C2622 1.385 . S
C2624 C2622 1.478 . S
C2624 C2626 1.381 . S
C2624 C2630 1.383 . S
C2625 C2621 1.495 . S
C2625 H2631 0.959 . S
C2625 H2632 0.961 . S
C2625 H2633 0.960 . S
C2626 C2624 1.381 . S
C2626 C2627 1.394 . S
C2626 H2634 0.930 . S
C2627 C2626 1.394 . S
C2627 C2628 1.383 . S
C2627 H2635 0.929 . S
C2628 C2627 1.383 . S
C2628 C2629 1.377 . S
C2629 H2613 0.930 . S
C2629 C2628 1.377 . S
C2629 C2630 1.379 . S
C2630 H2614 0.931 . S
C2630 C2624 1.383 . S
C2630 C2629 1.379 . S
H2631 C2625 0.959 . S
H2632 C2625 0.961 . S
H2633 C2625 0.960 . S
H2634 C2626 0.930 . S
H2635 C2627 0.929 . S
H2636 C2644 0.929 . S
H2637 C2646 0.930 . S
H2638 C2648 0.930 . S
H2639 C2651 0.929 . S
H2640 C2654 0.930 . S
H2641 C2656 0.960 . S
H2642 C2656 0.960 . S
H2643 C2656 0.960 . S
C2644 H2636 0.929 . S
C2644 C2645 1.377 . S
C2644 C2646 1.384 . S
C2645 C2644 1.377 . S
C2645 C2651 1.390 . S
C2646 H2637 0.930 . S
C2646 C2644 1.384 . S
C2646 C2647 1.372 . S
C2647 C2646 1.372 . S
C2647 C2648 1.400 . S
C2647 C2652 1.490 . S
C2648 H2638 0.930 . S
C2648 C2647 1.400 . S
C2648 C2651 1.386 . S
H2649 C2665 0.930 . S
H2650 C2666 0.931 . S
C2651 H2639 0.929 . S
C2651 C2645 1.390 . S
C2651 C2648 1.386 . S
C2652 C2647 1.490 . S
C2652 C2654 1.395 . S
C2652 C2655 1.403 . S
H2653 C2659 0.930 . S
C2654 H2640 0.930 . S
C2654 C2652 1.395 . S
C2654 C2657 1.403 . S
C2655 C2652 1.403 . S
C2655 C2656 1.524 . S
C2655 C2659 1.400 . S
C2656 H2641 0.960 . S
C2656 H2642 0.960 . S
C2656 H2643 0.960 . S
C2656 C2655 1.524 . S
C2657 C2654 1.403 . S
C2657 C2658 1.392 . S
C2657 C2661 1.495 . S
C2658 C2657 1.392 . S
C2658 C2659 1.385 . S
C2658 C2660 1.478 . S
C2659 H2653 0.930 . S
C2659 C2655 1.400 . S
C2659 C2658 1.385 . S
C2660 C2658 1.478 . S
C2660 C2662 1.381 . S
C2660 C2666 1.383 . S
C2661 C2657 1.495 . S
C2661 H2667 0.959 . S
C2661 H2668 0.961 . S
C2661 H2669 0.960 . S
C2662 C2660 1.381 . S
C2662 C2663 1.394 . S
C2662 H2670 0.930 . S
C2663 C2662 1.394 . S
C2663 C2664 1.383 . S
C2663 H2671 0.929 . S
C2664 C2663 1.383 . S
C2664 C2665 1.377 . S
C2665 H2649 0.930 . S
C2665 C2664 1.377 . S
C2665 C2666 1.379 . S
C2666 H2650 0.931 . S
C2666 C2660 1.383 . S
C2666 C2665 1.379 . S
H2667 C2661 0.959 . S
H2668 C2661 0.961 . S
H2669 C2661 0.960 . S
H2670 C2662 0.930 . S
H2671 C2663 0.929 . S
H2672 C2680 0.929 . S
H2673 C2682 0.930 . S
H2674 C2684 0.930 . S
H2675 C2687 0.929 . S
H2676 C2690 0.930 . S
H2677 C2692 0.960 . S
H2678 C2692 0.960 . S
H2679 C2692 0.960 . S
C2680 H2672 0.929 . S
C2680 C2681 1.377 . S
C2680 C2682 1.384 . S
C2681 C2680 1.377 . S
C2681 C2687 1.390 . S
C2682 H2673 0.930 . S
C2682 C2680 1.384 . S
C2682 C2683 1.372 . S
C2683 C2682 1.372 . S
C2683 C2684 1.400 . S
C2683 C2688 1.490 . S
C2684 H2674 0.930 . S
C2684 C2683 1.400 . S
C2684 C2687 1.386 . S
H2685 C2701 0.930 . S
H2686 C2702 0.931 . S
C2687 H2675 0.929 . S
C2687 C2681 1.390 . S
C2687 C2684 1.386 . S
C2688 C2683 1.490 . S
C2688 C2690 1.395 . S
C2688 C2691 1.403 . S
H2689 C2695 0.930 . S
C2690 H2676 0.930 . S
C2690 C2688 1.395 . S
C2690 C2693 1.403 . S
C2691 C2688 1.403 . S
C2691 C2692 1.524 . S
C2691 C2695 1.400 . S
C2692 H2677 0.960 . S
C2692 H2678 0.960 . S
C2692 H2679 0.960 . S
C2692 C2691 1.524 . S
C2693 C2690 1.403 . S
C2693 C2694 1.392 . S
C2693 C2697 1.495 . S
C2694 C2693 1.392 . S
C2694 C2695 1.385 . S
C2694 C2696 1.478 . S
C2695 H2689 0.930 . S
C2695 C2691 1.400 . S
C2695 C2694 1.385 . S
C2696 C2694 1.478 . S
C2696 C2698 1.381 . S
C2696 C2702 1.383 . S
C2697 C2693 1.495 . S
C2697 H2703 0.959 . S
C2697 H2704 0.961 . S
C2697 H2705 0.960 . S
C2698 C2696 1.381 . S
C2698 C2699 1.394 . S
C2698 H2706 0.930 . S
C2699 C2698 1.394 . S
C2699 C2700 1.383 . S
C2699 H2707 0.929 . S
C2700 C2699 1.383 . S
C2700 C2701 1.377 . S
C2701 H2685 0.930 . S
C2701 C2700 1.377 . S
C2701 C2702 1.379 . S
C2702 H2686 0.931 . S
C2702 C2696 1.383 . S
C2702 C2701 1.379 . S
H2703 C2697 0.959 . S
H2704 C2697 0.961 . S
H2705 C2697 0.960 . S
H2706 C2698 0.930 . S
H2707 C2699 0.929 . S
H2708 C2716 0.929 . S
H2709 C2718 0.930 . S
H2710 C2720 0.930 . S
H2711 C2723 0.929 . S
H2712 C2726 0.930 . S
H2713 C2728 0.960 . S
H2714 C2728 0.960 . S
H2715 C2728 0.960 . S
C2716 H2708 0.929 . S
C2716 C2717 1.377 . S
C2716 C2718 1.384 . S
C2717 C2716 1.377 . S
C2717 C2723 1.390 . S
C2718 H2709 0.930 . S
C2718 C2716 1.384 . S
C2718 C2719 1.372 . S
C2719 C2718 1.372 . S
C2719 C2720 1.400 . S
C2719 C2724 1.490 . S
C2720 H2710 0.930 . S
C2720 C2719 1.400 . S
C2720 C2723 1.386 . S
H2721 C2737 0.930 . S
H2722 C2738 0.931 . S
C2723 H2711 0.929 . S
C2723 C2717 1.390 . S
C2723 C2720 1.386 . S
C2724 C2719 1.490 . S
C2724 C2726 1.395 . S
C2724 C2727 1.403 . S
H2725 C2731 0.930 . S
C2726 H2712 0.930 . S
C2726 C2724 1.395 . S
C2726 C2729 1.403 . S
C2727 C2724 1.403 . S
C2727 C2728 1.524 . S
C2727 C2731 1.400 . S
C2728 H2713 0.960 . S
C2728 H2714 0.960 . S
C2728 H2715 0.960 . S
C2728 C2727 1.524 . S
C2729 C2726 1.403 . S
C2729 C2730 1.392 . S
C2729 C2733 1.495 . S
C2730 C2729 1.392 . S
C2730 C2731 1.385 . S
C2730 C2732 1.478 . S
C2731 H2725 0.930 . S
C2731 C2727 1.400 . S
C2731 C2730 1.385 . S
C2732 C2730 1.478 . S
C2732 C2734 1.381 . S
C2732 C2738 1.383 . S
C2733 C2729 1.495 . S
C2733 H2739 0.959 . S
C2733 H2740 0.961 . S
C2733 H2741 0.960 . S
C2734 C2732 1.381 . S
C2734 C2735 1.394 . S
C2734 H2742 0.930 . S
C2735 C2734 1.394 . S
C2735 C2736 1.383 . S
C2735 H2743 0.929 . S
C2736 C2735 1.383 . S
C2736 C2737 1.377 . S
C2737 H2721 0.930 . S
C2737 C2736 1.377 . S
C2737 C2738 1.379 . S
C2738 H2722 0.931 . S
C2738 C2732 1.383 . S
C2738 C2737 1.379 . S
H2739 C2733 0.959 . S
H2740 C2733 0.961 . S
H2741 C2733 0.960 . S
H2742 C2734 0.930 . S
H2743 C2735 0.929 . S
H2744 C2752 0.929 . S
H2745 C2754 0.930 . S
H2746 C2756 0.930 . S
H2747 C2759 0.929 . S
H2748 C2762 0.930 . S
H2749 C2764 0.960 . S
H2750 C2764 0.960 . S
H2751 C2764 0.960 . S
C2752 H2744 0.929 . S
C2752 C2753 1.377 . S
C2752 C2754 1.384 . S
C2753 C2752 1.377 . S
C2753 C2759 1.390 . S
C2754 H2745 0.930 . S
C2754 C2752 1.384 . S
C2754 C2755 1.372 . S
C2755 C2754 1.372 . S
C2755 C2756 1.400 . S
C2755 C2760 1.490 . S
C2756 H2746 0.930 . S
C2756 C2755 1.400 . S
C2756 C2759 1.386 . S
H2757 C2773 0.930 . S
H2758 C2774 0.931 . S
C2759 H2747 0.929 . S
C2759 C2753 1.390 . S
C2759 C2756 1.386 . S
C2760 C2755 1.490 . S
C2760 C2762 1.395 . S
C2760 C2763 1.403 . S
H2761 C2767 0.930 . S
C2762 H2748 0.930 . S
C2762 C2760 1.395 . S
C2762 C2765 1.403 . S
C2763 C2760 1.403 . S
C2763 C2764 1.524 . S
C2763 C2767 1.400 . S
C2764 H2749 0.960 . S
C2764 H2750 0.960 . S
C2764 H2751 0.960 . S
C2764 C2763 1.524 . S
C2765 C2762 1.403 . S
C2765 C2766 1.392 . S
C2765 C2769 1.495 . S
C2766 C2765 1.392 . S
C2766 C2767 1.385 . S
C2766 C2768 1.478 . S
C2767 H2761 0.930 . S
C2767 C2763 1.400 . S
C2767 C2766 1.385 . S
C2768 C2766 1.478 . S
C2768 C2770 1.381 . S
C2768 C2774 1.383 . S
C2769 C2765 1.495 . S
C2769 H2775 0.959 . S
C2769 H2776 0.961 . S
C2769 H2777 0.960 . S
C2770 C2768 1.381 . S
C2770 C2771 1.394 . S
C2770 H2778 0.930 . S
C2771 C2770 1.394 . S
C2771 C2772 1.383 . S
C2771 H2779 0.929 . S
C2772 C2771 1.383 . S
C2772 C2773 1.377 . S
C2773 H2757 0.930 . S
C2773 C2772 1.377 . S
C2773 C2774 1.379 . S
C2774 H2758 0.931 . S
C2774 C2768 1.383 . S
C2774 C2773 1.379 . S
H2775 C2769 0.959 . S
H2776 C2769 0.961 . S
H2777 C2769 0.960 . S
H2778 C2770 0.930 . S
H2779 C2771 0.929 . S
H2780 C2788 0.929 . S
H2781 C2790 0.930 . S
H2782 C2792 0.930 . S
H2783 C2795 0.929 . S
H2784 C2798 0.930 . S
H2785 C2800 0.960 . S
H2786 C2800 0.960 . S
H2787 C2800 0.960 . S
C2788 H2780 0.929 . S
C2788 C2789 1.377 . S
C2788 C2790 1.384 . S
C2789 C2788 1.377 . S
C2789 C2795 1.390 . S
C2790 H2781 0.930 . S
C2790 C2788 1.384 . S
C2790 C2791 1.372 . S
C2791 C2790 1.372 . S
C2791 C2792 1.400 . S
C2791 C2796 1.490 . S
C2792 H2782 0.930 . S
C2792 C2791 1.400 . S
C2792 C2795 1.386 . S
H2793 C2809 0.930 . S
H2794 C2810 0.931 . S
C2795 H2783 0.929 . S
C2795 C2789 1.390 . S
C2795 C2792 1.386 . S
C2796 C2791 1.490 . S
C2796 C2798 1.395 . S
C2796 C2799 1.403 . S
H2797 C2803 0.930 . S
C2798 H2784 0.930 . S
C2798 C2796 1.395 . S
C2798 C2801 1.403 . S
C2799 C2796 1.403 . S
C2799 C2800 1.524 . S
C2799 C2803 1.400 . S
C2800 H2785 0.960 . S
C2800 H2786 0.960 . S
C2800 H2787 0.960 . S
C2800 C2799 1.524 . S
C2801 C2798 1.403 . S
C2801 C2802 1.392 . S
C2801 C2805 1.495 . S
C2802 C2801 1.392 . S
C2802 C2803 1.385 . S
C2802 C2804 1.478 . S
C2803 H2797 0.930 . S
C2803 C2799 1.400 . S
C2803 C2802 1.385 . S
C2804 C2802 1.478 . S
C2804 C2806 1.381 . S
C2804 C2810 1.383 . S
C2805 C2801 1.495 . S
C2805 H2811 0.959 . S
C2805 H2812 0.961 . S
C2805 H2813 0.960 . S
C2806 C2804 1.381 . S
C2806 C2807 1.394 . S
C2806 H2814 0.930 . S
C2807 C2806 1.394 . S
C2807 C2808 1.383 . S
C2807 H2815 0.929 . S
C2808 C2807 1.383 . S
C2808 C2809 1.377 . S
C2809 H2793 0.930 . S
C2809 C2808 1.377 . S
C2809 C2810 1.379 . S
C2810 H2794 0.931 . S
C2810 C2804 1.383 . S
C2810 C2809 1.379 . S
H2811 C2805 0.959 . S
H2812 C2805 0.961 . S
H2813 C2805 0.960 . S
H2814 C2806 0.930 . S
H2815 C2807 0.929 . S
H2816 C2824 0.929 . S
H2817 C2826 0.930 . S
H2818 C2828 0.930 . S
H2819 C2831 0.929 . S
H2820 C2834 0.930 . S
H2821 C2836 0.960 . S
H2822 C2836 0.960 . S
H2823 C2836 0.960 . S
C2824 H2816 0.929 . S
C2824 C2825 1.377 . S
C2824 C2826 1.384 . S
C2825 C2824 1.377 . S
C2825 C2831 1.390 . S
C2826 H2817 0.930 . S
C2826 C2824 1.384 . S
C2826 C2827 1.372 . S
C2827 C2826 1.372 . S
C2827 C2828 1.400 . S
C2827 C2832 1.490 . S
C2828 H2818 0.930 . S
C2828 C2827 1.400 . S
C2828 C2831 1.386 . S
H2829 C2845 0.930 . S
H2830 C2846 0.931 . S
C2831 H2819 0.929 . S
C2831 C2825 1.390 . S
C2831 C2828 1.386 . S
C2832 C2827 1.490 . S
C2832 C2834 1.395 . S
C2832 C2835 1.403 . S
H2833 C2839 0.930 . S
C2834 H2820 0.930 . S
C2834 C2832 1.395 . S
C2834 C2837 1.403 . S
C2835 C2832 1.403 . S
C2835 C2836 1.524 . S
C2835 C2839 1.400 . S
C2836 H2821 0.960 . S
C2836 H2822 0.960 . S
C2836 H2823 0.960 . S
C2836 C2835 1.524 . S
C2837 C2834 1.403 . S
C2837 C2838 1.392 . S
C2837 C2841 1.495 . S
C2838 C2837 1.392 . S
C2838 C2839 1.385 . S
C2838 C2840 1.478 . S
C2839 H2833 0.930 . S
C2839 C2835 1.400 . S
C2839 C2838 1.385 . S
C2840 C2838 1.478 . S
C2840 C2842 1.381 . S
C2840 C2846 1.383 . S
C2841 C2837 1.495 . S
C2841 H2847 0.959 . S
C2841 H2848 0.961 . S
C2841 H2849 0.960 . S
C2842 C2840 1.381 . S
C2842 C2843 1.394 . S
C2842 H2850 0.930 . S
C2843 C2842 1.394 . S
C2843 C2844 1.383 . S
C2843 H2851 0.929 . S
C2844 C2843 1.383 . S
C2844 C2845 1.377 . S
C2845 H2829 0.930 . S
C2845 C2844 1.377 . S
C2845 C2846 1.379 . S
C2846 H2830 0.931 . S
C2846 C2840 1.383 . S
C2846 C2845 1.379 . S
H2847 C2841 0.959 . S
H2848 C2841 0.961 . S
H2849 C2841 0.960 . S
H2850 C2842 0.930 . S
H2851 C2843 0.929 . S
H2852 C2860 0.929 . S
H2853 C2862 0.930 . S
H2854 C2864 0.930 . S
H2855 C2867 0.929 . S
H2856 C2870 0.930 . S
H2857 C2872 0.960 . S
H2858 C2872 0.960 . S
H2859 C2872 0.960 . S
C2860 H2852 0.929 . S
C2860 C2861 1.377 . S
C2860 C2862 1.384 . S
C2861 C2860 1.377 . S
C2861 C2867 1.390 . S
C2862 H2853 0.930 . S
C2862 C2860 1.384 . S
C2862 C2863 1.372 . S
C2863 C2862 1.372 . S
C2863 C2864 1.400 . S
C2863 C2868 1.490 . S
C2864 H2854 0.930 . S
C2864 C2863 1.400 . S
C2864 C2867 1.386 . S
H2865 C2881 0.930 . S
H2866 C2882 0.931 . S
C2867 H2855 0.929 . S
C2867 C2861 1.390 . S
C2867 C2864 1.386 . S
C2868 C2863 1.490 . S
C2868 C2870 1.395 . S
C2868 C2871 1.403 . S
H2869 C2875 0.930 . S
C2870 H2856 0.930 . S
C2870 C2868 1.395 . S
C2870 C2873 1.403 . S
C2871 C2868 1.403 . S
C2871 C2872 1.524 . S
C2871 C2875 1.400 . S
C2872 H2857 0.960 . S
C2872 H2858 0.960 . S
C2872 H2859 0.960 . S
C2872 C2871 1.524 . S
C2873 C2870 1.403 . S
C2873 C2874 1.392 . S
C2873 C2877 1.495 . S
C2874 C2873 1.392 . S
C2874 C2875 1.385 . S
C2874 C2876 1.478 . S
C2875 H2869 0.930 . S
C2875 C2871 1.400 . S
C2875 C2874 1.385 . S
C2876 C2874 1.478 . S
C2876 C2878 1.381 . S
C2876 C2882 1.383 . S
C2877 C2873 1.495 . S
C2877 H2883 0.959 . S
C2877 H2884 0.961 . S
C2877 H2885 0.960 . S
C2878 C2876 1.381 . S
C2878 C2879 1.394 . S
C2878 H2886 0.930 . S
C2879 C2878 1.394 . S
C2879 C2880 1.383 . S
C2879 H2887 0.929 . S
C2880 C2879 1.383 . S
C2880 C2881 1.377 . S
C2881 H2865 0.930 . S
C2881 C2880 1.377 . S
C2881 C2882 1.379 . S
C2882 H2866 0.931 . S
C2882 C2876 1.383 . S
C2882 C2881 1.379 . S
H2883 C2877 0.959 . S
H2884 C2877 0.961 . S
H2885 C2877 0.960 . S
H2886 C2878 0.930 . S
H2887 C2879 0.929 . S
H2888 C2896 0.929 . S
H2889 C2898 0.930 . S
H2890 C2900 0.930 . S
H2891 C2903 0.929 . S
H2892 C2906 0.930 . S
H2893 C2908 0.960 . S
H2894 C2908 0.960 . S
H2895 C2908 0.960 . S
C2896 H2888 0.929 . S
C2896 C2897 1.377 . S
C2896 C2898 1.384 . S
C2897 C2896 1.377 . S
C2897 C2903 1.390 . S
C2898 H2889 0.930 . S
C2898 C2896 1.384 . S
C2898 C2899 1.372 . S
C2899 C2898 1.372 . S
C2899 C2900 1.400 . S
C2899 C2904 1.490 . S
C2900 H2890 0.930 . S
C2900 C2899 1.400 . S
C2900 C2903 1.386 . S
H2901 C2917 0.930 . S
H2902 C2918 0.931 . S
C2903 H2891 0.929 . S
C2903 C2897 1.390 . S
C2903 C2900 1.386 . S
C2904 C2899 1.490 . S
C2904 C2906 1.395 . S
C2904 C2907 1.403 . S
H2905 C2911 0.930 . S
C2906 H2892 0.930 . S
C2906 C2904 1.395 . S
C2906 C2909 1.403 . S
C2907 C2904 1.403 . S
C2907 C2908 1.524 . S
C2907 C2911 1.400 . S
C2908 H2893 0.960 . S
C2908 H2894 0.960 . S
C2908 H2895 0.960 . S
C2908 C2907 1.524 . S
C2909 C2906 1.403 . S
C2909 C2910 1.392 . S
C2909 C2913 1.495 . S
C2910 C2909 1.392 . S
C2910 C2911 1.385 . S
C2910 C2912 1.478 . S
C2911 H2905 0.930 . S
C2911 C2907 1.400 . S
C2911 C2910 1.385 . S
C2912 C2910 1.478 . S
C2912 C2914 1.381 . S
C2912 C2918 1.383 . S
C2913 C2909 1.495 . S
C2913 H2919 0.959 . S
C2913 H2920 0.961 . S
C2913 H2921 0.960 . S
C2914 C2912 1.381 . S
C2914 C2915 1.394 . S
C2914 H2922 0.930 . S
C2915 C2914 1.394 . S
C2915 C2916 1.383 . S
C2915 H2923 0.929 . S
C2916 C2915 1.383 . S
C2916 C2917 1.377 . S
C2917 H2901 0.930 . S
C2917 C2916 1.377 . S
C2917 C2918 1.379 . S
C2918 H2902 0.931 . S
C2918 C2912 1.383 . S
C2918 C2917 1.379 . S
H2919 C2913 0.959 . S
H2920 C2913 0.961 . S
H2921 C2913 0.960 . S
H2922 C2914 0.930 . S
H2923 C2915 0.929 . S
H2924 C2932 0.929 . S
H2925 C2934 0.930 . S
H2926 C2936 0.930 . S
H2927 C2939 0.929 . S
H2928 C2942 0.930 . S
H2929 C2944 0.960 . S
H2930 C2944 0.960 . S
H2931 C2944 0.960 . S
C2932 H2924 0.929 . S
C2932 C2933 1.377 . S
C2932 C2934 1.384 . S
C2933 C2932 1.377 . S
C2933 C2939 1.390 . S
C2934 H2925 0.930 . S
C2934 C2932 1.384 . S
C2934 C2935 1.372 . S
C2935 C2934 1.372 . S
C2935 C2936 1.400 . S
C2935 C2940 1.490 . S
C2936 H2926 0.930 . S
C2936 C2935 1.400 . S
C2936 C2939 1.386 . S
H2937 C2953 0.930 . S
H2938 C2954 0.931 . S
C2939 H2927 0.929 . S
C2939 C2933 1.390 . S
C2939 C2936 1.386 . S
C2940 C2935 1.490 . S
C2940 C2942 1.395 . S
C2940 C2943 1.403 . S
H2941 C2947 0.930 . S
C2942 H2928 0.930 . S
C2942 C2940 1.395 . S
C2942 C2945 1.403 . S
C2943 C2940 1.403 . S
C2943 C2944 1.524 . S
C2943 C2947 1.400 . S
C2944 H2929 0.960 . S
C2944 H2930 0.960 . S
C2944 H2931 0.960 . S
C2944 C2943 1.524 . S
C2945 C2942 1.403 . S
C2945 C2946 1.392 . S
C2945 C2949 1.495 . S
C2946 C2945 1.392 . S
C2946 C2947 1.385 . S
C2946 C2948 1.478 . S
C2947 H2941 0.930 . S
C2947 C2943 1.400 . S
C2947 C2946 1.385 . S
C2948 C2946 1.478 . S
C2948 C2950 1.381 . S
C2948 C2954 1.383 . S
C2949 C2945 1.495 . S
C2949 H2955 0.959 . S
C2949 H2956 0.961 . S
C2949 H2957 0.960 . S
C2950 C2948 1.381 . S
C2950 C2951 1.394 . S
C2950 H2958 0.930 . S
C2951 C2950 1.394 . S
C2951 C2952 1.383 . S
C2951 H2959 0.929 . S
C2952 C2951 1.383 . S
C2952 C2953 1.377 . S
C2953 H2937 0.930 . S
C2953 C2952 1.377 . S
C2953 C2954 1.379 . S
C2954 H2938 0.931 . S
C2954 C2948 1.383 . S
C2954 C2953 1.379 . S
H2955 C2949 0.959 . S
H2956 C2949 0.961 . S
H2957 C2949 0.960 . S
H2958 C2950 0.930 . S
H2959 C2951 0.929 . S
H2960 C2968 0.929 . S
H2961 C2970 0.930 . S
H2962 C2972 0.930 . S
H2963 C2975 0.929 . S
H2964 C2978 0.930 . S
H2965 C2980 0.960 . S
H2966 C2980 0.960 . S
H2967 C2980 0.960 . S
C2968 H2960 0.929 . S
C2968 C2969 1.377 . S
C2968 C2970 1.384 . S
C2969 C2968 1.377 . S
C2969 C2975 1.390 . S
C2970 H2961 0.930 . S
C2970 C2968 1.384 . S
C2970 C2971 1.372 . S
C2971 C2970 1.372 . S
C2971 C2972 1.400 . S
C2971 C2976 1.490 . S
C2972 H2962 0.930 . S
C2972 C2971 1.400 . S
C2972 C2975 1.386 . S
H2973 C2989 0.930 . S
H2974 C2990 0.931 . S
C2975 H2963 0.929 . S
C2975 C2969 1.390 . S
C2975 C2972 1.386 . S
C2976 C2971 1.490 . S
C2976 C2978 1.395 . S
C2976 C2979 1.403 . S
H2977 C2983 0.930 . S
C2978 H2964 0.930 . S
C2978 C2976 1.395 . S
C2978 C2981 1.403 . S
C2979 C2976 1.403 . S
C2979 C2980 1.524 . S
C2979 C2983 1.400 . S
C2980 H2965 0.960 . S
C2980 H2966 0.960 . S
C2980 H2967 0.960 . S
C2980 C2979 1.524 . S
C2981 C2978 1.403 . S
C2981 C2982 1.392 . S
C2981 C2985 1.495 . S
C2982 C2981 1.392 . S
C2982 C2983 1.385 . S
C2982 C2984 1.478 . S
C2983 H2977 0.930 . S
C2983 C2979 1.400 . S
C2983 C2982 1.385 . S
C2984 C2982 1.478 . S
C2984 C2986 1.381 . S
C2984 C2990 1.383 . S
C2985 C2981 1.495 . S
C2985 H2991 0.959 . S
C2985 H2992 0.961 . S
C2985 H2993 0.960 . S
C2986 C2984 1.381 . S
C2986 C2987 1.394 . S
C2986 H2994 0.930 . S
C2987 C2986 1.394 . S
C2987 C2988 1.383 . S
C2987 H2995 0.929 . S
C2988 C2987 1.383 . S
C2988 C2989 1.377 . S
C2989 H2973 0.930 . S
C2989 C2988 1.377 . S
C2989 C2990 1.379 . S
C2990 H2974 0.931 . S
C2990 C2984 1.383 . S
C2990 C2989 1.379 . S
H2991 C2985 0.959 . S
H2992 C2985 0.961 . S
H2993 C2985 0.960 . S
H2994 C2986 0.930 . S
H2995 C2987 0.929 . S
H2996 C3004 0.929 . S
H2997 C3006 0.930 . S
H2998 C3008 0.930 . S
H2999 C3011 0.929 . S
H3000 C3014 0.930 . S
H3001 C3016 0.960 . S
H3002 C3016 0.960 . S
H3003 C3016 0.960 . S
C3004 H2996 0.929 . S
C3004 C3005 1.377 . S
C3004 C3006 1.384 . S
C3005 C3004 1.377 . S
C3005 C3011 1.390 . S
C3006 H2997 0.930 . S
C3006 C3004 1.384 . S
C3006 C3007 1.372 . S
C3007 C3006 1.372 . S
C3007 C3008 1.400 . S
C3007 C3012 1.490 . S
C3008 H2998 0.930 . S
C3008 C3007 1.400 . S
C3008 C3011 1.386 . S
H3009 C3025 0.930 . S
H3010 C3026 0.931 . S
C3011 H2999 0.929 . S
C3011 C3005 1.390 . S
C3011 C3008 1.386 . S
C3012 C3007 1.490 . S
C3012 C3014 1.395 . S
C3012 C3015 1.403 . S
H3013 C3019 0.930 . S
C3014 H3000 0.930 . S
C3014 C3012 1.395 . S
C3014 C3017 1.403 . S
C3015 C3012 1.403 . S
C3015 C3016 1.524 . S
C3015 C3019 1.400 . S
C3016 H3001 0.960 . S
C3016 H3002 0.960 . S
C3016 H3003 0.960 . S
C3016 C3015 1.524 . S
C3017 C3014 1.403 . S
C3017 C3018 1.392 . S
C3017 C3021 1.495 . S
C3018 C3017 1.392 . S
C3018 C3019 1.385 . S
C3018 C3020 1.478 . S
C3019 H3013 0.930 . S
C3019 C3015 1.400 . S
C3019 C3018 1.385 . S
C3020 C3018 1.478 . S
C3020 C3022 1.381 . S
C3020 C3026 1.383 . S
C3021 C3017 1.495 . S
C3021 H3027 0.959 . S
C3021 H3028 0.961 . S
C3021 H3029 0.960 . S
C3022 C3020 1.381 . S
C3022 C3023 1.394 . S
C3022 H3030 0.930 . S
C3023 C3022 1.394 . S
C3023 C3024 1.383 . S
C3023 H3031 0.929 . S
C3024 C3023 1.383 . S
C3024 C3025 1.377 . S
C3025 H3009 0.930 . S
C3025 C3024 1.377 . S
C3025 C3026 1.379 . S
C3026 H3010 0.931 . S
C3026 C3020 1.383 . S
C3026 C3025 1.379 . S
H3027 C3021 0.959 . S
H3028 C3021 0.961 . S
H3029 C3021 0.960 . S
H3030 C3022 0.930 . S
H3031 C3023 0.929 . S
H3032 C3040 0.929 . S
H3033 C3042 0.930 . S
H3034 C3044 0.930 . S
H3035 C3047 0.929 . S
H3036 C3050 0.930 . S
H3037 C3052 0.960 . S
H3038 C3052 0.960 . S
H3039 C3052 0.960 . S
C3040 H3032 0.929 . S
C3040 C3041 1.377 . S
C3040 C3042 1.384 . S
C3041 C3040 1.377 . S
C3041 C3047 1.390 . S
C3042 H3033 0.930 . S
C3042 C3040 1.384 . S
C3042 C3043 1.372 . S
C3043 C3042 1.372 . S
C3043 C3044 1.400 . S
C3043 C3048 1.490 . S
C3044 H3034 0.930 . S
C3044 C3043 1.400 . S
C3044 C3047 1.386 . S
H3045 C3061 0.930 . S
H3046 C3062 0.931 . S
C3047 H3035 0.929 . S
C3047 C3041 1.390 . S
C3047 C3044 1.386 . S
C3048 C3043 1.490 . S
C3048 C3050 1.395 . S
C3048 C3051 1.403 . S
H3049 C3055 0.930 . S
C3050 H3036 0.930 . S
C3050 C3048 1.395 . S
C3050 C3053 1.403 . S
C3051 C3048 1.403 . S
C3051 C3052 1.524 . S
C3051 C3055 1.400 . S
C3052 H3037 0.960 . S
C3052 H3038 0.960 . S
C3052 H3039 0.960 . S
C3052 C3051 1.524 . S
C3053 C3050 1.403 . S
C3053 C3054 1.392 . S
C3053 C3057 1.495 . S
C3054 C3053 1.392 . S
C3054 C3055 1.385 . S
C3054 C3056 1.478 . S
C3055 H3049 0.930 . S
C3055 C3051 1.400 . S
C3055 C3054 1.385 . S
C3056 C3054 1.478 . S
C3056 C3058 1.381 . S
C3056 C3062 1.383 . S
C3057 C3053 1.495 . S
C3057 H3063 0.959 . S
C3057 H3064 0.961 . S
C3057 H3065 0.960 . S
C3058 C3056 1.381 . S
C3058 C3059 1.394 . S
C3058 H3066 0.930 . S
C3059 C3058 1.394 . S
C3059 C3060 1.383 . S
C3059 H3067 0.929 . S
C3060 C3059 1.383 . S
C3060 C3061 1.377 . S
C3061 H3045 0.930 . S
C3061 C3060 1.377 . S
C3061 C3062 1.379 . S
C3062 H3046 0.931 . S
C3062 C3056 1.383 . S
C3062 C3061 1.379 . S
H3063 C3057 0.959 . S
H3064 C3057 0.961 . S
H3065 C3057 0.960 . S
H3066 C3058 0.930 . S
H3067 C3059 0.929 . S
H3068 C3076 0.929 . S
H3069 C3078 0.930 . S
H3070 C3080 0.930 . S
H3071 C3083 0.929 . S
H3072 C3086 0.930 . S
H3073 C3088 0.960 . S
H3074 C3088 0.960 . S
H3075 C3088 0.960 . S
C3076 H3068 0.929 . S
C3076 C3077 1.377 . S
C3076 C3078 1.384 . S
C3077 C3076 1.377 . S
C3077 C3083 1.390 . S
C3078 H3069 0.930 . S
C3078 C3076 1.384 . S
C3078 C3079 1.372 . S
C3079 C3078 1.372 . S
C3079 C3080 1.400 . S
C3079 C3084 1.490 . S
C3080 H3070 0.930 . S
C3080 C3079 1.400 . S
C3080 C3083 1.386 . S
H3081 C3097 0.930 . S
H3082 C3098 0.931 . S
C3083 H3071 0.929 . S
C3083 C3077 1.390 . S
C3083 C3080 1.386 . S
C3084 C3079 1.490 . S
C3084 C3086 1.395 . S
C3084 C3087 1.403 . S
H3085 C3091 0.930 . S
C3086 H3072 0.930 . S
C3086 C3084 1.395 . S
C3086 C3089 1.403 . S
C3087 C3084 1.403 . S
C3087 C3088 1.524 . S
C3087 C3091 1.400 . S
C3088 H3073 0.960 . S
C3088 H3074 0.960 . S
C3088 H3075 0.960 . S
C3088 C3087 1.524 . S
C3089 C3086 1.403 . S
C3089 C3090 1.392 . S
C3089 C3093 1.495 . S
C3090 C3089 1.392 . S
C3090 C3091 1.385 . S
C3090 C3092 1.478 . S
C3091 H3085 0.930 . S
C3091 C3087 1.400 . S
C3091 C3090 1.385 . S
C3092 C3090 1.478 . S
C3092 C3094 1.381 . S
C3092 C3098 1.383 . S
C3093 C3089 1.495 . S
C3093 H3099 0.959 . S
C3093 H3100 0.961 . S
C3093 H3101 0.960 . S
C3094 C3092 1.381 . S
C3094 C3095 1.394 . S
C3094 H3102 0.930 . S
C3095 C3094 1.394 . S
C3095 C3096 1.383 . S
C3095 H3103 0.929 . S
C3096 C3095 1.383 . S
C3096 C3097 1.377 . S
C3097 H3081 0.930 . S
C3097 C3096 1.377 . S
C3097 C3098 1.379 . S
C3098 H3082 0.931 . S
C3098 C3092 1.383 . S
C3098 C3097 1.379 . S
H3099 C3093 0.959 . S
H3100 C3093 0.961 . S
H3101 C3093 0.960 . S
H3102 C3094 0.930 . S
H3103 C3095 0.929 . S
H3104 C3112 0.929 . S
H3105 C3114 0.930 . S
H3106 C3116 0.930 . S
H3107 C3119 0.929 . S
H3108 C3122 0.930 . S
H3109 C3124 0.960 . S
H3110 C3124 0.960 . S
H3111 C3124 0.960 . S
C3112 H3104 0.929 . S
C3112 C3113 1.377 . S
C3112 C3114 1.384 . S
C3113 C3112 1.377 . S
C3113 C3119 1.390 . S
C3114 H3105 0.930 . S
C3114 C3112 1.384 . S
C3114 C3115 1.372 . S
C3115 C3114 1.372 . S
C3115 C3116 1.400 . S
C3115 C3120 1.490 . S
C3116 H3106 0.930 . S
C3116 C3115 1.400 . S
C3116 C3119 1.386 . S
H3117 C3133 0.930 . S
H3118 C3134 0.931 . S
C3119 H3107 0.929 . S
C3119 C3113 1.390 . S
C3119 C3116 1.386 . S
C3120 C3115 1.490 . S
C3120 C3122 1.395 . S
C3120 C3123 1.403 . S
H3121 C3127 0.930 . S
C3122 H3108 0.930 . S
C3122 C3120 1.395 . S
C3122 C3125 1.403 . S
C3123 C3120 1.403 . S
C3123 C3124 1.524 . S
C3123 C3127 1.400 . S
C3124 H3109 0.960 . S
C3124 H3110 0.960 . S
C3124 H3111 0.960 . S
C3124 C3123 1.524 . S
C3125 C3122 1.403 . S
C3125 C3126 1.392 . S
C3125 C3129 1.495 . S
C3126 C3125 1.392 . S
C3126 C3127 1.385 . S
C3126 C3128 1.478 . S
C3127 H3121 0.930 . S
C3127 C3123 1.400 . S
C3127 C3126 1.385 . S
C3128 C3126 1.478 . S
C3128 C3130 1.381 . S
C3128 C3134 1.383 . S
C3129 C3125 1.495 . S
C3129 H3135 0.959 . S
C3129 H3136 0.961 . S
C3129 H3137 0.960 . S
C3130 C3128 1.381 . S
C3130 C3131 1.394 . S
C3130 H3138 0.930 . S
C3131 C3130 1.394 . S
C3131 C3132 1.383 . S
C3131 H3139 0.929 . S
C3132 C3131 1.383 . S
C3132 C3133 1.377 . S
C3133 H3117 0.930 . S
C3133 C3132 1.377 . S
C3133 C3134 1.379 . S
C3134 H3118 0.931 . S
C3134 C3128 1.383 . S
C3134 C3133 1.379 . S
H3135 C3129 0.959 . S
H3136 C3129 0.961 . S
H3137 C3129 0.960 . S
H3138 C3130 0.930 . S
H3139 C3131 0.929 . S
H3140 C3148 0.929 . S
H3141 C3150 0.930 . S
H3142 C3152 0.930 . S
H3143 C3155 0.929 . S
H3144 C3158 0.930 . S
H3145 C3160 0.960 . S
H3146 C3160 0.960 . S
H3147 C3160 0.960 . S
C3148 H3140 0.929 . S
C3148 C3149 1.377 . S
C3148 C3150 1.384 . S
C3149 C3148 1.377 . S
C3149 C3155 1.390 . S
C3150 H3141 0.930 . S
C3150 C3148 1.384 . S
C3150 C3151 1.372 . S
C3151 C3150 1.372 . S
C3151 C3152 1.400 . S
C3151 C3156 1.490 . S
C3152 H3142 0.930 . S
C3152 C3151 1.400 . S
C3152 C3155 1.386 . S
H3153 C3169 0.930 . S
H3154 C3170 0.931 . S
C3155 H3143 0.929 . S
C3155 C3149 1.390 . S
C3155 C3152 1.386 . S
C3156 C3151 1.490 . S
C3156 C3158 1.395 . S
C3156 C3159 1.403 . S
H3157 C3163 0.930 . S
C3158 H3144 0.930 . S
C3158 C3156 1.395 . S
C3158 C3161 1.403 . S
C3159 C3156 1.403 . S
C3159 C3160 1.524 . S
C3159 C3163 1.400 . S
C3160 H3145 0.960 . S
C3160 H3146 0.960 . S
C3160 H3147 0.960 . S
C3160 C3159 1.524 . S
C3161 C3158 1.403 . S
C3161 C3162 1.392 . S
C3161 C3165 1.495 . S
C3162 C3161 1.392 . S
C3162 C3163 1.385 . S
C3162 C3164 1.478 . S
C3163 H3157 0.930 . S
C3163 C3159 1.400 . S
C3163 C3162 1.385 . S
C3164 C3162 1.478 . S
C3164 C3166 1.381 . S
C3164 C3170 1.383 . S
C3165 C3161 1.495 . S
C3165 H3171 0.959 . S
C3165 H3172 0.961 . S
C3165 H3173 0.960 . S
C3166 C3164 1.381 . S
C3166 C3167 1.394 . S
C3166 H3174 0.930 . S
C3167 C3166 1.394 . S
C3167 C3168 1.383 . S
C3167 H3175 0.929 . S
C3168 C3167 1.383 . S
C3168 C3169 1.377 . S
C3169 H3153 0.930 . S
C3169 C3168 1.377 . S
C3169 C3170 1.379 . S
C3170 H3154 0.931 . S
C3170 C3164 1.383 . S
C3170 C3169 1.379 . S
H3171 C3165 0.959 . S
H3172 C3165 0.961 . S
H3173 C3165 0.960 . S
H3174 C3166 0.930 . S
H3175 C3167 0.929 . S
H3176 C3184 0.929 . S
H3177 C3186 0.930 . S
H3178 C3188 0.930 . S
H3179 C3191 0.929 . S
H3180 C3194 0.930 . S
H3181 C3196 0.960 . S
H3182 C3196 0.960 . S
H3183 C3196 0.960 . S
C3184 H3176 0.929 . S
C3184 C3185 1.377 . S
C3184 C3186 1.384 . S
C3185 C3184 1.377 . S
C3185 C3191 1.390 . S
C3186 H3177 0.930 . S
C3186 C3184 1.384 . S
C3186 C3187 1.372 . S
C3187 C3186 1.372 . S
C3187 C3188 1.400 . S
C3187 C3192 1.490 . S
C3188 H3178 0.930 . S
C3188 C3187 1.400 . S
C3188 C3191 1.386 . S
H3189 C3205 0.930 . S
H3190 C3206 0.931 . S
C3191 H3179 0.929 . S
C3191 C3185 1.390 . S
C3191 C3188 1.386 . S
C3192 C3187 1.490 . S
C3192 C3194 1.395 . S
C3192 C3195 1.403 . S
H3193 C3199 0.930 . S
C3194 H3180 0.930 . S
C3194 C3192 1.395 . S
C3194 C3197 1.403 . S
C3195 C3192 1.403 . S
C3195 C3196 1.524 . S
C3195 C3199 1.400 . S
C3196 H3181 0.960 . S
C3196 H3182 0.960 . S
C3196 H3183 0.960 . S
C3196 C3195 1.524 . S
C3197 C3194 1.403 . S
C3197 C3198 1.392 . S
C3197 C3201 1.495 . S
C3198 C3197 1.392 . S
C3198 C3199 1.385 . S
C3198 C3200 1.478 . S
C3199 H3193 0.930 . S
C3199 C3195 1.400 . S
C3199 C3198 1.385 . S
C3200 C3198 1.478 . S
C3200 C3202 1.381 . S
C3200 C3206 1.383 . S
C3201 C3197 1.495 . S
C3201 H3207 0.959 . S
C3201 H3208 0.961 . S
C3201 H3209 0.960 . S
C3202 C3200 1.381 . S
C3202 C3203 1.394 . S
C3202 H3210 0.930 . S
C3203 C3202 1.394 . S
C3203 C3204 1.383 . S
C3203 H3211 0.929 . S
C3204 C3203 1.383 . S
C3204 C3205 1.377 . S
C3205 H3189 0.930 . S
C3205 C3204 1.377 . S
C3205 C3206 1.379 . S
C3206 H3190 0.931 . S
C3206 C3200 1.383 . S
C3206 C3205 1.379 . S
H3207 C3201 0.959 . S
H3208 C3201 0.961 . S
H3209 C3201 0.960 . S
H3210 C3202 0.930 . S
H3211 C3203 0.929 . S
H3212 C3220 0.929 . S
H3213 C3222 0.930 . S
H3214 C3224 0.930 . S
H3215 C3227 0.929 . S
H3216 C3230 0.930 . S
H3217 C3232 0.960 . S
H3218 C3232 0.960 . S
H3219 C3232 0.960 . S
C3220 H3212 0.929 . S
C3220 C3221 1.377 . S
C3220 C3222 1.384 . S
C3221 C3220 1.377 . S
C3221 C3227 1.390 . S
C3222 H3213 0.930 . S
C3222 C3220 1.384 . S
C3222 C3223 1.372 . S
C3223 C3222 1.372 . S
C3223 C3224 1.400 . S
C3223 C3228 1.490 . S
C3224 H3214 0.930 . S
C3224 C3223 1.400 . S
C3224 C3227 1.386 . S
H3225 C3241 0.930 . S
H3226 C3242 0.931 . S
C3227 H3215 0.929 . S
C3227 C3221 1.390 . S
C3227 C3224 1.386 . S
C3228 C3223 1.490 . S
C3228 C3230 1.395 . S
C3228 C3231 1.403 . S
H3229 C3235 0.930 . S
C3230 H3216 0.930 . S
C3230 C3228 1.395 . S
C3230 C3233 1.403 . S
C3231 C3228 1.403 . S
C3231 C3232 1.524 . S
C3231 C3235 1.400 . S
C3232 H3217 0.960 . S
C3232 H3218 0.960 . S
C3232 H3219 0.960 . S
C3232 C3231 1.524 . S
C3233 C3230 1.403 . S
C3233 C3234 1.392 . S
C3233 C3237 1.495 . S
C3234 C3233 1.392 . S
C3234 C3235 1.385 . S
C3234 C3236 1.478 . S
C3235 H3229 0.930 . S
C3235 C3231 1.400 . S
C3235 C3234 1.385 . S
C3236 C3234 1.478 . S
C3236 C3238 1.381 . S
C3236 C3242 1.383 . S
C3237 C3233 1.495 . S
C3237 H3243 0.959 . S
C3237 H3244 0.961 . S
C3237 H3245 0.960 . S
C3238 C3236 1.381 . S
C3238 C3239 1.394 . S
C3238 H3246 0.930 . S
C3239 C3238 1.394 . S
C3239 C3240 1.383 . S
C3239 H3247 0.929 . S
C3240 C3239 1.383 . S
C3240 C3241 1.377 . S
C3241 H3225 0.930 . S
C3241 C3240 1.377 . S
C3241 C3242 1.379 . S
C3242 H3226 0.931 . S
C3242 C3236 1.383 . S
C3242 C3241 1.379 . S
H3243 C3237 0.959 . S
H3244 C3237 0.961 . S
H3245 C3237 0.960 . S
H3246 C3238 0.930 . S
H3247 C3239 0.929 . S
H3248 C3256 0.929 . S
H3249 C3258 0.930 . S
H3250 C3260 0.930 . S
H3251 C3263 0.929 . S
H3252 C3266 0.930 . S
H3253 C3268 0.960 . S
H3254 C3268 0.960 . S
H3255 C3268 0.960 . S
C3256 H3248 0.929 . S
C3256 C3257 1.377 . S
C3256 C3258 1.384 . S
C3257 C3256 1.377 . S
C3257 C3263 1.390 . S
C3258 H3249 0.930 . S
C3258 C3256 1.384 . S
C3258 C3259 1.372 . S
C3259 C3258 1.372 . S
C3259 C3260 1.400 . S
C3259 C3264 1.490 . S
C3260 H3250 0.930 . S
C3260 C3259 1.400 . S
C3260 C3263 1.386 . S
H3261 C3277 0.930 . S
H3262 C3278 0.931 . S
C3263 H3251 0.929 . S
C3263 C3257 1.390 . S
C3263 C3260 1.386 . S
C3264 C3259 1.490 . S
C3264 C3266 1.395 . S
C3264 C3267 1.403 . S
H3265 C3271 0.930 . S
C3266 H3252 0.930 . S
C3266 C3264 1.395 . S
C3266 C3269 1.403 . S
C3267 C3264 1.403 . S
C3267 C3268 1.524 . S
C3267 C3271 1.400 . S
C3268 H3253 0.960 . S
C3268 H3254 0.960 . S
C3268 H3255 0.960 . S
C3268 C3267 1.524 . S
C3269 C3266 1.403 . S
C3269 C3270 1.392 . S
C3269 C3273 1.495 . S
C3270 C3269 1.392 . S
C3270 C3271 1.385 . S
C3270 C3272 1.478 . S
C3271 H3265 0.930 . S
C3271 C3267 1.400 . S
C3271 C3270 1.385 . S
C3272 C3270 1.478 . S
C3272 C3274 1.381 . S
C3272 C3278 1.383 . S
C3273 C3269 1.495 . S
C3273 H3279 0.959 . S
C3273 H3280 0.961 . S
C3273 H3281 0.960 . S
C3274 C3272 1.381 . S
C3274 C3275 1.394 . S
C3274 H3282 0.930 . S
C3275 C3274 1.394 . S
C3275 C3276 1.383 . S
C3275 H3283 0.929 . S
C3276 C3275 1.383 . S
C3276 C3277 1.377 . S
C3277 H3261 0.930 . S
C3277 C3276 1.377 . S
C3277 C3278 1.379 . S
C3278 H3262 0.931 . S
C3278 C3272 1.383 . S
C3278 C3277 1.379 . S
H3279 C3273 0.959 . S
H3280 C3273 0.961 . S
H3281 C3273 0.960 . S
H3282 C3274 0.930 . S
H3283 C3275 0.929 . S
H3284 C3292 0.929 . S
H3285 C3294 0.930 . S
H3286 C3296 0.930 . S
H3287 C3299 0.929 . S
H3288 C3302 0.930 . S
H3289 C3304 0.960 . S
H3290 C3304 0.960 . S
H3291 C3304 0.960 . S
C3292 H3284 0.929 . S
C3292 C3293 1.377 . S
C3292 C3294 1.384 . S
C3293 C3292 1.377 . S
C3293 C3299 1.390 . S
C3294 H3285 0.930 . S
C3294 C3292 1.384 . S
C3294 C3295 1.372 . S
C3295 C3294 1.372 . S
C3295 C3296 1.400 . S
C3295 C3300 1.490 . S
C3296 H3286 0.930 . S
C3296 C3295 1.400 . S
C3296 C3299 1.386 . S
H3297 C3313 0.930 . S
H3298 C3314 0.931 . S
C3299 H3287 0.929 . S
C3299 C3293 1.390 . S
C3299 C3296 1.386 . S
C3300 C3295 1.490 . S
C3300 C3302 1.395 . S
C3300 C3303 1.403 . S
H3301 C3307 0.930 . S
C3302 H3288 0.930 . S
C3302 C3300 1.395 . S
C3302 C3305 1.403 . S
C3303 C3300 1.403 . S
C3303 C3304 1.524 . S
C3303 C3307 1.400 . S
C3304 H3289 0.960 . S
C3304 H3290 0.960 . S
C3304 H3291 0.960 . S
C3304 C3303 1.524 . S
C3305 C3302 1.403 . S
C3305 C3306 1.392 . S
C3305 C3309 1.495 . S
C3306 C3305 1.392 . S
C3306 C3307 1.385 . S
C3306 C3308 1.478 . S
C3307 H3301 0.930 . S
C3307 C3303 1.400 . S
C3307 C3306 1.385 . S
C3308 C3306 1.478 . S
C3308 C3310 1.381 . S
C3308 C3314 1.383 . S
C3309 C3305 1.495 . S
C3309 H3315 0.959 . S
C3309 H3316 0.961 . S
C3309 H3317 0.960 . S
C3310 C3308 1.381 . S
C3310 C3311 1.394 . S
C3310 H3318 0.930 . S
C3311 C3310 1.394 . S
C3311 C3312 1.383 . S
C3311 H3319 0.929 . S
C3312 C3311 1.383 . S
C3312 C3313 1.377 . S
C3313 H3297 0.930 . S
C3313 C3312 1.377 . S
C3313 C3314 1.379 . S
C3314 H3298 0.931 . S
C3314 C3308 1.383 . S
C3314 C3313 1.379 . S
H3315 C3309 0.959 . S
H3316 C3309 0.961 . S
H3317 C3309 0.960 . S
H3318 C3310 0.930 . S
H3319 C3311 0.929 . S
H3320 C3328 0.929 . S
H3321 C3330 0.930 . S
H3322 C3332 0.930 . S
H3323 C3335 0.929 . S
H3324 C3338 0.930 . S
H3325 C3340 0.960 . S
H3326 C3340 0.960 . S
H3327 C3340 0.960 . S
C3328 H3320 0.929 . S
C3328 C3329 1.377 . S
C3328 C3330 1.384 . S
C3329 C3328 1.377 . S
C3329 C3335 1.390 . S
C3330 H3321 0.930 . S
C3330 C3328 1.384 . S
C3330 C3331 1.372 . S
C3331 C3330 1.372 . S
C3331 C3332 1.400 . S
C3331 C3336 1.490 . S
C3332 H3322 0.930 . S
C3332 C3331 1.400 . S
C3332 C3335 1.386 . S
H3333 C3349 0.930 . S
H3334 C3350 0.931 . S
C3335 H3323 0.929 . S
C3335 C3329 1.390 . S
C3335 C3332 1.386 . S
C3336 C3331 1.490 . S
C3336 C3338 1.395 . S
C3336 C3339 1.403 . S
H3337 C3343 0.930 . S
C3338 H3324 0.930 . S
C3338 C3336 1.395 . S
C3338 C3341 1.403 . S
C3339 C3336 1.403 . S
C3339 C3340 1.524 . S
C3339 C3343 1.400 . S
C3340 H3325 0.960 . S
C3340 H3326 0.960 . S
C3340 H3327 0.960 . S
C3340 C3339 1.524 . S
C3341 C3338 1.403 . S
C3341 C3342 1.392 . S
C3341 C3345 1.495 . S
C3342 C3341 1.392 . S
C3342 C3343 1.385 . S
C3342 C3344 1.478 . S
C3343 H3337 0.930 . S
C3343 C3339 1.400 . S
C3343 C3342 1.385 . S
C3344 C3342 1.478 . S
C3344 C3346 1.381 . S
C3344 C3350 1.383 . S
C3345 C3341 1.495 . S
C3345 H3351 0.959 . S
C3345 H3352 0.961 . S
C3345 H3353 0.960 . S
C3346 C3344 1.381 . S
C3346 C3347 1.394 . S
C3346 H3354 0.930 . S
C3347 C3346 1.394 . S
C3347 C3348 1.383 . S
C3347 H3355 0.929 . S
C3348 C3347 1.383 . S
C3348 C3349 1.377 . S
C3349 H3333 0.930 . S
C3349 C3348 1.377 . S
C3349 C3350 1.379 . S
C3350 H3334 0.931 . S
C3350 C3344 1.383 . S
C3350 C3349 1.379 . S
H3351 C3345 0.959 . S
H3352 C3345 0.961 . S
H3353 C3345 0.960 . S
H3354 C3346 0.930 . S
H3355 C3347 0.929 . S
H3356 C3364 0.929 . S
H3357 C3366 0.930 . S
H3358 C3368 0.930 . S
H3359 C3371 0.929 . S
H3360 C3374 0.930 . S
H3361 C3376 0.960 . S
H3362 C3376 0.960 . S
H3363 C3376 0.960 . S
C3364 H3356 0.929 . S
C3364 C3365 1.377 . S
C3364 C3366 1.384 . S
C3365 C3364 1.377 . S
C3365 C3371 1.390 . S
C3366 H3357 0.930 . S
C3366 C3364 1.384 . S
C3366 C3367 1.372 . S
C3367 C3366 1.372 . S
C3367 C3368 1.400 . S
C3367 C3372 1.490 . S
C3368 H3358 0.930 . S
C3368 C3367 1.400 . S
C3368 C3371 1.386 . S
H3369 C3385 0.930 . S
H3370 C3386 0.931 . S
C3371 H3359 0.929 . S
C3371 C3365 1.390 . S
C3371 C3368 1.386 . S
C3372 C3367 1.490 . S
C3372 C3374 1.395 . S
C3372 C3375 1.403 . S
H3373 C3379 0.930 . S
C3374 H3360 0.930 . S
C3374 C3372 1.395 . S
C3374 C3377 1.403 . S
C3375 C3372 1.403 . S
C3375 C3376 1.524 . S
C3375 C3379 1.400 . S
C3376 H3361 0.960 . S
C3376 H3362 0.960 . S
C3376 H3363 0.960 . S
C3376 C3375 1.524 . S
C3377 C3374 1.403 . S
C3377 C3378 1.392 . S
C3377 C3381 1.495 . S
C3378 C3377 1.392 . S
C3378 C3379 1.385 . S
C3378 C3380 1.478 . S
C3379 H3373 0.930 . S
C3379 C3375 1.400 . S
C3379 C3378 1.385 . S
C3380 C3378 1.478 . S
C3380 C3382 1.381 . S
C3380 C3386 1.383 . S
C3381 C3377 1.495 . S
C3381 H3387 0.959 . S
C3381 H3388 0.961 . S
C3381 H3389 0.960 . S
C3382 C3380 1.381 . S
C3382 C3383 1.394 . S
C3382 H3390 0.930 . S
C3383 C3382 1.394 . S
C3383 C3384 1.383 . S
C3383 H3391 0.929 . S
C3384 C3383 1.383 . S
C3384 C3385 1.377 . S
C3385 H3369 0.930 . S
C3385 C3384 1.377 . S
C3385 C3386 1.379 . S
C3386 H3370 0.931 . S
C3386 C3380 1.383 . S
C3386 C3385 1.379 . S
H3387 C3381 0.959 . S
H3388 C3381 0.961 . S
H3389 C3381 0.960 . S
H3390 C3382 0.930 . S
H3391 C3383 0.929 . S
H3392 C3400 0.929 . S
H3393 C3402 0.930 . S
H3394 C3404 0.930 . S
H3395 C3407 0.929 . S
H3396 C3410 0.930 . S
H3397 C3412 0.960 . S
H3398 C3412 0.960 . S
H3399 C3412 0.960 . S
C3400 H3392 0.929 . S
C3400 C3401 1.377 . S
C3400 C3402 1.384 . S
C3401 C3400 1.377 . S
C3401 C3407 1.390 . S
C3402 H3393 0.930 . S
C3402 C3400 1.384 . S
C3402 C3403 1.372 . S
C3403 C3402 1.372 . S
C3403 C3404 1.400 . S
C3403 C3408 1.490 . S
C3404 H3394 0.930 . S
C3404 C3403 1.400 . S
C3404 C3407 1.386 . S
H3405 C3421 0.930 . S
H3406 C3422 0.931 . S
C3407 H3395 0.929 . S
C3407 C3401 1.390 . S
C3407 C3404 1.386 . S
C3408 C3403 1.490 . S
C3408 C3410 1.395 . S
C3408 C3411 1.403 . S
H3409 C3415 0.930 . S
C3410 H3396 0.930 . S
C3410 C3408 1.395 . S
C3410 C3413 1.403 . S
C3411 C3408 1.403 . S
C3411 C3412 1.524 . S
C3411 C3415 1.400 . S
C3412 H3397 0.960 . S
C3412 H3398 0.960 . S
C3412 H3399 0.960 . S
C3412 C3411 1.524 . S
C3413 C3410 1.403 . S
C3413 C3414 1.392 . S
C3413 C3417 1.495 . S
C3414 C3413 1.392 . S
C3414 C3415 1.385 . S
C3414 C3416 1.478 . S
C3415 H3409 0.930 . S
C3415 C3411 1.400 . S
C3415 C3414 1.385 . S
C3416 C3414 1.478 . S
C3416 C3418 1.381 . S
C3416 C3422 1.383 . S
C3417 C3413 1.495 . S
C3417 H3423 0.959 . S
C3417 H3424 0.961 . S
C3417 H3425 0.960 . S
C3418 C3416 1.381 . S
C3418 C3419 1.394 . S
C3418 H3426 0.930 . S
C3419 C3418 1.394 . S
C3419 C3420 1.383 . S
C3419 H3427 0.929 . S
C3420 C3419 1.383 . S
C3420 C3421 1.377 . S
C3421 H3405 0.930 . S
C3421 C3420 1.377 . S
C3421 C3422 1.379 . S
C3422 H3406 0.931 . S
C3422 C3416 1.383 . S
C3422 C3421 1.379 . S
H3423 C3417 0.959 . S
H3424 C3417 0.961 . S
H3425 C3417 0.960 . S
H3426 C3418 0.930 . S
H3427 C3419 0.929 . S
H3428 C3436 0.929 . S
H3429 C3438 0.930 . S
H3430 C3440 0.930 . S
H3431 C3443 0.929 . S
H3432 C3446 0.930 . S
H3433 C3448 0.960 . S
H3434 C3448 0.960 . S
H3435 C3448 0.960 . S
C3436 H3428 0.929 . S
C3436 C3437 1.377 . S
C3436 C3438 1.384 . S
C3437 C3436 1.377 . S
C3437 C3443 1.390 . S
C3438 H3429 0.930 . S
C3438 C3436 1.384 . S
C3438 C3439 1.372 . S
C3439 C3438 1.372 . S
C3439 C3440 1.400 . S
C3439 C3444 1.490 . S
C3440 H3430 0.930 . S
C3440 C3439 1.400 . S
C3440 C3443 1.386 . S
H3441 C3457 0.930 . S
H3442 C3458 0.931 . S
C3443 H3431 0.929 . S
C3443 C3437 1.390 . S
C3443 C3440 1.386 . S
C3444 C3439 1.490 . S
C3444 C3446 1.395 . S
C3444 C3447 1.403 . S
H3445 C3451 0.930 . S
C3446 H3432 0.930 . S
C3446 C3444 1.395 . S
C3446 C3449 1.403 . S
C3447 C3444 1.403 . S
C3447 C3448 1.524 . S
C3447 C3451 1.400 . S
C3448 H3433 0.960 . S
C3448 H3434 0.960 . S
C3448 H3435 0.960 . S
C3448 C3447 1.524 . S
C3449 C3446 1.403 . S
C3449 C3450 1.392 . S
C3449 C3453 1.495 . S
C3450 C3449 1.392 . S
C3450 C3451 1.385 . S
C3450 C3452 1.478 . S
C3451 H3445 0.930 . S
C3451 C3447 1.400 . S
C3451 C3450 1.385 . S
C3452 C3450 1.478 . S
C3452 C3454 1.381 . S
C3452 C3458 1.383 . S
C3453 C3449 1.495 . S
C3453 H3459 0.959 . S
C3453 H3460 0.961 . S
C3453 H3461 0.960 . S
C3454 C3452 1.381 . S
C3454 C3455 1.394 . S
C3454 H3462 0.930 . S
C3455 C3454 1.394 . S
C3455 C3456 1.383 . S
C3455 H3463 0.929 . S
C3456 C3455 1.383 . S
C3456 C3457 1.377 . S
C3457 H3441 0.930 . S
C3457 C3456 1.377 . S
C3457 C3458 1.379 . S
C3458 H3442 0.931 . S
C3458 C3452 1.383 . S
C3458 C3457 1.379 . S
H3459 C3453 0.959 . S
H3460 C3453 0.961 . S
H3461 C3453 0.960 . S
H3462 C3454 0.930 . S
H3463 C3455 0.929 . S
H3464 C3472 0.929 . S
H3465 C3474 0.930 . S
H3466 C3476 0.930 . S
H3467 C3479 0.929 . S
H3468 C3482 0.930 . S
H3469 C3484 0.960 . S
H3470 C3484 0.960 . S
H3471 C3484 0.960 . S
C3472 H3464 0.929 . S
C3472 C3473 1.377 . S
C3472 C3474 1.384 . S
C3473 C3472 1.377 . S
C3473 C3479 1.390 . S
C3474 H3465 0.930 . S
C3474 C3472 1.384 . S
C3474 C3475 1.372 . S
C3475 C3474 1.372 . S
C3475 C3476 1.400 . S
C3475 C3480 1.490 . S
C3476 H3466 0.930 . S
C3476 C3475 1.400 . S
C3476 C3479 1.386 . S
H3477 C3493 0.930 . S
H3478 C3494 0.931 . S
C3479 H3467 0.929 . S
C3479 C3473 1.390 . S
C3479 C3476 1.386 . S
C3480 C3475 1.490 . S
C3480 C3482 1.395 . S
C3480 C3483 1.403 . S
H3481 C3487 0.930 . S
C3482 H3468 0.930 . S
C3482 C3480 1.395 . S
C3482 C3485 1.403 . S
C3483 C3480 1.403 . S
C3483 C3484 1.524 . S
C3483 C3487 1.400 . S
C3484 H3469 0.960 . S
C3484 H3470 0.960 . S
C3484 H3471 0.960 . S
C3484 C3483 1.524 . S
C3485 C3482 1.403 . S
C3485 C3486 1.392 . S
C3485 C3489 1.495 . S
C3486 C3485 1.392 . S
C3486 C3487 1.385 . S
C3486 C3488 1.478 . S
C3487 H3481 0.930 . S
C3487 C3483 1.400 . S
C3487 C3486 1.385 . S
C3488 C3486 1.478 . S
C3488 C3490 1.381 . S
C3488 C3494 1.383 . S
C3489 C3485 1.495 . S
C3489 H3495 0.959 . S
C3489 H3496 0.961 . S
C3489 H3497 0.960 . S
C3490 C3488 1.381 . S
C3490 C3491 1.394 . S
C3490 H3498 0.930 . S
C3491 C3490 1.394 . S
C3491 C3492 1.383 . S
C3491 H3499 0.929 . S
C3492 C3491 1.383 . S
C3492 C3493 1.377 . S
C3493 H3477 0.930 . S
C3493 C3492 1.377 . S
C3493 C3494 1.379 . S
C3494 H3478 0.931 . S
C3494 C3488 1.383 . S
C3494 C3493 1.379 . S
H3495 C3489 0.959 . S
H3496 C3489 0.961 . S
H3497 C3489 0.960 . S
H3498 C3490 0.930 . S
H3499 C3491 0.929 . S
H3500 C3508 0.929 . S
H3501 C3510 0.930 . S
H3502 C3512 0.930 . S
H3503 C3515 0.929 . S
H3504 C3518 0.930 . S
H3505 C3520 0.960 . S
H3506 C3520 0.960 . S
H3507 C3520 0.960 . S
C3508 H3500 0.929 . S
C3508 C3509 1.377 . S
C3508 C3510 1.384 . S
C3509 C3508 1.377 . S
C3509 C3515 1.390 . S
C3510 H3501 0.930 . S
C3510 C3508 1.384 . S
C3510 C3511 1.372 . S
C3511 C3510 1.372 . S
C3511 C3512 1.400 . S
C3511 C3516 1.490 . S
C3512 H3502 0.930 . S
C3512 C3511 1.400 . S
C3512 C3515 1.386 . S
H3513 C3529 0.930 . S
H3514 C3530 0.931 . S
C3515 H3503 0.929 . S
C3515 C3509 1.390 . S
C3515 C3512 1.386 . S
C3516 C3511 1.490 . S
C3516 C3518 1.395 . S
C3516 C3519 1.403 . S
H3517 C3523 0.930 . S
C3518 H3504 0.930 . S
C3518 C3516 1.395 . S
C3518 C3521 1.403 . S
C3519 C3516 1.403 . S
C3519 C3520 1.524 . S
C3519 C3523 1.400 . S
C3520 H3505 0.960 . S
C3520 H3506 0.960 . S
C3520 H3507 0.960 . S
C3520 C3519 1.524 . S
C3521 C3518 1.403 . S
C3521 C3522 1.392 . S
C3521 C3525 1.495 . S
C3522 C3521 1.392 . S
C3522 C3523 1.385 . S
C3522 C3524 1.478 . S
C3523 H3517 0.930 . S
C3523 C3519 1.400 . S
C3523 C3522 1.385 . S
C3524 C3522 1.478 . S
C3524 C3526 1.381 . S
C3524 C3530 1.383 . S
C3525 C3521 1.495 . S
C3525 H3531 0.959 . S
C3525 H3532 0.961 . S
C3525 H3533 0.960 . S
C3526 C3524 1.381 . S
C3526 C3527 1.394 . S
C3526 H3534 0.930 . S
C3527 C3526 1.394 . S
C3527 C3528 1.383 . S
C3527 H3535 0.929 . S
C3528 C3527 1.383 . S
C3528 C3529 1.377 . S
C3529 H3513 0.930 . S
C3529 C3528 1.377 . S
C3529 C3530 1.379 . S
C3530 H3514 0.931 . S
C3530 C3524 1.383 . S
C3530 C3529 1.379 . S
H3531 C3525 0.959 . S
H3532 C3525 0.961 . S
H3533 C3525 0.960 . S
H3534 C3526 0.930 . S
H3535 C3527 0.929 . S
H3536 C3544 0.929 . S
H3537 C3546 0.930 . S
H3538 C3548 0.930 . S
H3539 C3551 0.929 . S
H3540 C3554 0.930 . S
H3541 C3556 0.960 . S
H3542 C3556 0.960 . S
H3543 C3556 0.960 . S
C3544 H3536 0.929 . S
C3544 C3545 1.377 . S
C3544 C3546 1.384 . S
C3545 C3544 1.377 . S
C3545 C3551 1.390 . S
C3546 H3537 0.930 . S
C3546 C3544 1.384 . S
C3546 C3547 1.372 . S
C3547 C3546 1.372 . S
C3547 C3548 1.400 . S
C3547 C3552 1.490 . S
C3548 H3538 0.930 . S
C3548 C3547 1.400 . S
C3548 C3551 1.386 . S
H3549 C3565 0.930 . S
H3550 C3566 0.931 . S
C3551 H3539 0.929 . S
C3551 C3545 1.390 . S
C3551 C3548 1.386 . S
C3552 C3547 1.490 . S
C3552 C3554 1.395 . S
C3552 C3555 1.403 . S
H3553 C3559 0.930 . S
C3554 H3540 0.930 . S
C3554 C3552 1.395 . S
C3554 C3557 1.403 . S
C3555 C3552 1.403 . S
C3555 C3556 1.524 . S
C3555 C3559 1.400 . S
C3556 H3541 0.960 . S
C3556 H3542 0.960 . S
C3556 H3543 0.960 . S
C3556 C3555 1.524 . S
C3557 C3554 1.403 . S
C3557 C3558 1.392 . S
C3557 C3561 1.495 . S
C3558 C3557 1.392 . S
C3558 C3559 1.385 . S
C3558 C3560 1.478 . S
C3559 H3553 0.930 . S
C3559 C3555 1.400 . S
C3559 C3558 1.385 . S
C3560 C3558 1.478 . S
C3560 C3562 1.381 . S
C3560 C3566 1.383 . S
C3561 C3557 1.495 . S
C3561 H3567 0.959 . S
C3561 H3568 0.961 . S
C3561 H3569 0.960 . S
C3562 C3560 1.381 . S
C3562 C3563 1.394 . S
C3562 H3570 0.930 . S
C3563 C3562 1.394 . S
C3563 C3564 1.383 . S
C3563 H3571 0.929 . S
C3564 C3563 1.383 . S
C3564 C3565 1.377 . S
C3565 H3549 0.930 . S
C3565 C3564 1.377 . S
C3565 C3566 1.379 . S
C3566 H3550 0.931 . S
C3566 C3560 1.383 . S
C3566 C3565 1.379 . S
H3567 C3561 0.959 . S
H3568 C3561 0.961 . S
H3569 C3561 0.960 . S
H3570 C3562 0.930 . S
H3571 C3563 0.929 . S
H3572 C3580 0.929 . S
H3573 C3582 0.930 . S
H3574 C3584 0.930 . S
H3575 C3587 0.929 . S
H3576 C3590 0.930 . S
H3577 C3592 0.960 . S
H3578 C3592 0.960 . S
H3579 C3592 0.960 . S
C3580 H3572 0.929 . S
C3580 C3581 1.377 . S
C3580 C3582 1.384 . S
C3581 C3580 1.377 . S
C3581 C3587 1.390 . S
C3582 H3573 0.930 . S
C3582 C3580 1.384 . S
C3582 C3583 1.372 . S
C3583 C3582 1.372 . S
C3583 C3584 1.400 . S
C3583 C3588 1.490 . S
C3584 H3574 0.930 . S
C3584 C3583 1.400 . S
C3584 C3587 1.386 . S
H3585 C3601 0.930 . S
H3586 C3602 0.931 . S
C3587 H3575 0.929 . S
C3587 C3581 1.390 . S
C3587 C3584 1.386 . S
C3588 C3583 1.490 . S
C3588 C3590 1.395 . S
C3588 C3591 1.403 . S
H3589 C3595 0.930 . S
C3590 H3576 0.930 . S
C3590 C3588 1.395 . S
C3590 C3593 1.403 . S
C3591 C3588 1.403 . S
C3591 C3592 1.524 . S
C3591 C3595 1.400 . S
C3592 H3577 0.960 . S
C3592 H3578 0.960 . S
C3592 H3579 0.960 . S
C3592 C3591 1.524 . S
C3593 C3590 1.403 . S
C3593 C3594 1.392 . S
C3593 C3597 1.495 . S
C3594 C3593 1.392 . S
C3594 C3595 1.385 . S
C3594 C3596 1.478 . S
C3595 H3589 0.930 . S
C3595 C3591 1.400 . S
C3595 C3594 1.385 . S
C3596 C3594 1.478 . S
C3596 C3598 1.381 . S
C3596 C3602 1.383 . S
C3597 C3593 1.495 . S
C3597 H3603 0.959 . S
C3597 H3604 0.961 . S
C3597 H3605 0.960 . S
C3598 C3596 1.381 . S
C3598 C3599 1.394 . S
C3598 H3606 0.930 . S
C3599 C3598 1.394 . S
C3599 C3600 1.383 . S
C3599 H3607 0.929 . S
C3600 C3599 1.383 . S
C3600 C3601 1.377 . S
C3601 H3585 0.930 . S
C3601 C3600 1.377 . S
C3601 C3602 1.379 . S
C3602 H3586 0.931 . S
C3602 C3596 1.383 . S
C3602 C3601 1.379 . S
H3603 C3597 0.959 . S
H3604 C3597 0.961 . S
H3605 C3597 0.960 . S
H3606 C3598 0.930 . S
H3607 C3599 0.929 . S
H3608 C3616 0.929 . S
H3609 C3618 0.930 . S
H3610 C3620 0.930 . S
H3611 C3623 0.929 . S
H3612 C3626 0.930 . S
H3613 C3628 0.960 . S
H3614 C3628 0.960 . S
H3615 C3628 0.960 . S
C3616 H3608 0.929 . S
C3616 C3617 1.377 . S
C3616 C3618 1.384 . S
C3617 C3616 1.377 . S
C3617 C3623 1.390 . S
C3618 H3609 0.930 . S
C3618 C3616 1.384 . S
C3618 C3619 1.372 . S
C3619 C3618 1.372 . S
C3619 C3620 1.400 . S
C3619 C3624 1.490 . S
C3620 H3610 0.930 . S
C3620 C3619 1.400 . S
C3620 C3623 1.386 . S
H3621 C3637 0.930 . S
H3622 C3638 0.931 . S
C3623 H3611 0.929 . S
C3623 C3617 1.390 . S
C3623 C3620 1.386 . S
C3624 C3619 1.490 . S
C3624 C3626 1.395 . S
C3624 C3627 1.403 . S
H3625 C3631 0.930 . S
C3626 H3612 0.930 . S
C3626 C3624 1.395 . S
C3626 C3629 1.403 . S
C3627 C3624 1.403 . S
C3627 C3628 1.524 . S
C3627 C3631 1.400 . S
C3628 H3613 0.960 . S
C3628 H3614 0.960 . S
C3628 H3615 0.960 . S
C3628 C3627 1.524 . S
C3629 C3626 1.403 . S
C3629 C3630 1.392 . S
C3629 C3633 1.495 . S
C3630 C3629 1.392 . S
C3630 C3631 1.385 . S
C3630 C3632 1.478 . S
C3631 H3625 0.930 . S
C3631 C3627 1.400 . S
C3631 C3630 1.385 . S
C3632 C3630 1.478 . S
C3632 C3634 1.381 . S
C3632 C3638 1.383 . S
C3633 C3629 1.495 . S
C3633 H3639 0.959 . S
C3633 H3640 0.961 . S
C3633 H3641 0.960 . S
C3634 C3632 1.381 . S
C3634 C3635 1.394 . S
C3634 H3642 0.930 . S
C3635 C3634 1.394 . S
C3635 C3636 1.383 . S
C3635 H3643 0.929 . S
C3636 C3635 1.383 . S
C3636 C3637 1.377 . S
C3637 H3621 0.930 . S
C3637 C3636 1.377 . S
C3637 C3638 1.379 . S
C3638 H3622 0.931 . S
C3638 C3632 1.383 . S
C3638 C3637 1.379 . S
H3639 C3633 0.959 . S
H3640 C3633 0.961 . S
H3641 C3633 0.960 . S
H3642 C3634 0.930 . S
H3643 C3635 0.929 . S
H3644 C3652 0.929 . S
H3645 C3654 0.930 . S
H3646 C3656 0.930 . S
H3647 C3659 0.929 . S
H3648 C3662 0.930 . S
H3649 C3664 0.960 . S
H3650 C3664 0.960 . S
H3651 C3664 0.960 . S
C3652 H3644 0.929 . S
C3652 C3653 1.377 . S
C3652 C3654 1.384 . S
C3653 C3652 1.377 . S
C3653 C3659 1.390 . S
C3654 H3645 0.930 . S
C3654 C3652 1.384 . S
C3654 C3655 1.372 . S
C3655 C3654 1.372 . S
C3655 C3656 1.400 . S
C3655 C3660 1.490 . S
C3656 H3646 0.930 . S
C3656 C3655 1.400 . S
C3656 C3659 1.386 . S
H3657 C3673 0.930 . S
H3658 C3674 0.931 . S
C3659 H3647 0.929 . S
C3659 C3653 1.390 . S
C3659 C3656 1.386 . S
C3660 C3655 1.490 . S
C3660 C3662 1.395 . S
C3660 C3663 1.403 . S
H3661 C3667 0.930 . S
C3662 H3648 0.930 . S
C3662 C3660 1.395 . S
C3662 C3665 1.403 . S
C3663 C3660 1.403 . S
C3663 C3664 1.524 . S
C3663 C3667 1.400 . S
C3664 H3649 0.960 . S
C3664 H3650 0.960 . S
C3664 H3651 0.960 . S
C3664 C3663 1.524 . S
C3665 C3662 1.403 . S
C3665 C3666 1.392 . S
C3665 C3669 1.495 . S
C3666 C3665 1.392 . S
C3666 C3667 1.385 . S
C3666 C3668 1.478 . S
C3667 H3661 0.930 . S
C3667 C3663 1.400 . S
C3667 C3666 1.385 . S
C3668 C3666 1.478 . S
C3668 C3670 1.381 . S
C3668 C3674 1.383 . S
C3669 C3665 1.495 . S
C3669 H3675 0.959 . S
C3669 H3676 0.961 . S
C3669 H3677 0.960 . S
C3670 C3668 1.381 . S
C3670 C3671 1.394 . S
C3670 H3678 0.930 . S
C3671 C3670 1.394 . S
C3671 C3672 1.383 . S
C3671 H3679 0.929 . S
C3672 C3671 1.383 . S
C3672 C3673 1.377 . S
C3673 H3657 0.930 . S
C3673 C3672 1.377 . S
C3673 C3674 1.379 . S
C3674 H3658 0.931 . S
C3674 C3668 1.383 . S
C3674 C3673 1.379 . S
H3675 C3669 0.959 . S
H3676 C3669 0.961 . S
H3677 C3669 0.960 . S
H3678 C3670 0.930 . S
H3679 C3671 0.929 . S
H3680 C3688 0.929 . S
H3681 C3690 0.930 . S
H3682 C3692 0.930 . S
H3683 C3695 0.929 . S
H3684 C3698 0.930 . S
H3685 C3700 0.960 . S
H3686 C3700 0.960 . S
H3687 C3700 0.960 . S
C3688 H3680 0.929 . S
C3688 C3689 1.377 . S
C3688 C3690 1.384 . S
C3689 C3688 1.377 . S
C3689 C3695 1.390 . S
C3690 H3681 0.930 . S
C3690 C3688 1.384 . S
C3690 C3691 1.372 . S
C3691 C3690 1.372 . S
C3691 C3692 1.400 . S
C3691 C3696 1.490 . S
C3692 H3682 0.930 . S
C3692 C3691 1.400 . S
C3692 C3695 1.386 . S
H3693 C3709 0.930 . S
H3694 C3710 0.931 . S
C3695 H3683 0.929 . S
C3695 C3689 1.390 . S
C3695 C3692 1.386 . S
C3696 C3691 1.490 . S
C3696 C3698 1.395 . S
C3696 C3699 1.403 . S
H3697 C3703 0.930 . S
C3698 H3684 0.930 . S
C3698 C3696 1.395 . S
C3698 C3701 1.403 . S
C3699 C3696 1.403 . S
C3699 C3700 1.524 . S
C3699 C3703 1.400 . S
C3700 H3685 0.960 . S
C3700 H3686 0.960 . S
C3700 H3687 0.960 . S
C3700 C3699 1.524 . S
C3701 C3698 1.403 . S
C3701 C3702 1.392 . S
C3701 C3705 1.495 . S
C3702 C3701 1.392 . S
C3702 C3703 1.385 . S
C3702 C3704 1.478 . S
C3703 H3697 0.930 . S
C3703 C3699 1.400 . S
C3703 C3702 1.385 . S
C3704 C3702 1.478 . S
C3704 C3706 1.381 . S
C3704 C3710 1.383 . S
C3705 C3701 1.495 . S
C3705 H3711 0.959 . S
C3705 H3712 0.961 . S
C3705 H3713 0.960 . S
C3706 C3704 1.381 . S
C3706 C3707 1.394 . S
C3706 H3714 0.930 . S
C3707 C3706 1.394 . S
C3707 C3708 1.383 . S
C3707 H3715 0.929 . S
C3708 C3707 1.383 . S
C3708 C3709 1.377 . S
C3709 H3693 0.930 . S
C3709 C3708 1.377 . S
C3709 C3710 1.379 . S
C3710 H3694 0.931 . S
C3710 C3704 1.383 . S
C3710 C3709 1.379 . S
H3711 C3705 0.959 . S
H3712 C3705 0.961 . S
H3713 C3705 0.960 . S
H3714 C3706 0.930 . S
H3715 C3707 0.929 . S
H3716 C3724 0.929 . S
H3717 C3726 0.930 . S
H3718 C3728 0.930 . S
H3719 C3731 0.929 . S
H3720 C3734 0.930 . S
H3721 C3736 0.960 . S
H3722 C3736 0.960 . S
H3723 C3736 0.960 . S
C3724 H3716 0.929 . S
C3724 C3725 1.377 . S
C3724 C3726 1.384 . S
C3725 C3724 1.377 . S
C3725 C3731 1.390 . S
C3726 H3717 0.930 . S
C3726 C3724 1.384 . S
C3726 C3727 1.372 . S
C3727 C3726 1.372 . S
C3727 C3728 1.400 . S
C3727 C3732 1.490 . S
C3728 H3718 0.930 . S
C3728 C3727 1.400 . S
C3728 C3731 1.386 . S
H3729 C3745 0.930 . S
H3730 C3746 0.931 . S
C3731 H3719 0.929 . S
C3731 C3725 1.390 . S
C3731 C3728 1.386 . S
C3732 C3727 1.490 . S
C3732 C3734 1.395 . S
C3732 C3735 1.403 . S
H3733 C3739 0.930 . S
C3734 H3720 0.930 . S
C3734 C3732 1.395 . S
C3734 C3737 1.403 . S
C3735 C3732 1.403 . S
C3735 C3736 1.524 . S
C3735 C3739 1.400 . S
C3736 H3721 0.960 . S
C3736 H3722 0.960 . S
C3736 H3723 0.960 . S
C3736 C3735 1.524 . S
C3737 C3734 1.403 . S
C3737 C3738 1.392 . S
C3737 C3741 1.495 . S
C3738 C3737 1.392 . S
C3738 C3739 1.385 . S
C3738 C3740 1.478 . S
C3739 H3733 0.930 . S
C3739 C3735 1.400 . S
C3739 C3738 1.385 . S
C3740 C3738 1.478 . S
C3740 C3742 1.381 . S
C3740 C3746 1.383 . S
C3741 C3737 1.495 . S
C3741 H3747 0.959 . S
C3741 H3748 0.961 . S
C3741 H3749 0.960 . S
C3742 C3740 1.381 . S
C3742 C3743 1.394 . S
C3742 H3750 0.930 . S
C3743 C3742 1.394 . S
C3743 C3744 1.383 . S
C3743 H3751 0.929 . S
C3744 C3743 1.383 . S
C3744 C3745 1.377 . S
C3745 H3729 0.930 . S
C3745 C3744 1.377 . S
C3745 C3746 1.379 . S
C3746 H3730 0.931 . S
C3746 C3740 1.383 . S
C3746 C3745 1.379 . S
H3747 C3741 0.959 . S
H3748 C3741 0.961 . S
H3749 C3741 0.960 . S
H3750 C3742 0.930 . S
H3751 C3743 0.929 . S
H3752 C3760 0.929 . S
H3753 C3762 0.930 . S
H3754 C3764 0.930 . S
H3755 C3767 0.929 . S
H3756 C3770 0.930 . S
H3757 C3772 0.960 . S
H3758 C3772 0.960 . S
H3759 C3772 0.960 . S
C3760 H3752 0.929 . S
C3760 C3761 1.377 . S
C3760 C3762 1.384 . S
C3761 C3760 1.377 . S
C3761 C3767 1.390 . S
C3762 H3753 0.930 . S
C3762 C3760 1.384 . S
C3762 C3763 1.372 . S
C3763 C3762 1.372 . S
C3763 C3764 1.400 . S
C3763 C3768 1.490 . S
C3764 H3754 0.930 . S
C3764 C3763 1.400 . S
C3764 C3767 1.386 . S
H3765 C3781 0.930 . S
H3766 C3782 0.931 . S
C3767 H3755 0.929 . S
C3767 C3761 1.390 . S
C3767 C3764 1.386 . S
C3768 C3763 1.490 . S
C3768 C3770 1.395 . S
C3768 C3771 1.403 . S
H3769 C3775 0.930 . S
C3770 H3756 0.930 . S
C3770 C3768 1.395 . S
C3770 C3773 1.403 . S
C3771 C3768 1.403 . S
C3771 C3772 1.524 . S
C3771 C3775 1.400 . S
C3772 H3757 0.960 . S
C3772 H3758 0.960 . S
C3772 H3759 0.960 . S
C3772 C3771 1.524 . S
C3773 C3770 1.403 . S
C3773 C3774 1.392 . S
C3773 C3777 1.495 . S
C3774 C3773 1.392 . S
C3774 C3775 1.385 . S
C3774 C3776 1.478 . S
C3775 H3769 0.930 . S
C3775 C3771 1.400 . S
C3775 C3774 1.385 . S
C3776 C3774 1.478 . S
C3776 C3778 1.381 . S
C3776 C3782 1.383 . S
C3777 C3773 1.495 . S
C3777 H3783 0.959 . S
C3777 H3784 0.961 . S
C3777 H3785 0.960 . S
C3778 C3776 1.381 . S
C3778 C3779 1.394 . S
C3778 H3786 0.930 . S
C3779 C3778 1.394 . S
C3779 C3780 1.383 . S
C3779 H3787 0.929 . S
C3780 C3779 1.383 . S
C3780 C3781 1.377 . S
C3781 H3765 0.930 . S
C3781 C3780 1.377 . S
C3781 C3782 1.379 . S
C3782 H3766 0.931 . S
C3782 C3776 1.383 . S
C3782 C3781 1.379 . S
H3783 C3777 0.959 . S
H3784 C3777 0.961 . S
H3785 C3777 0.960 . S
H3786 C3778 0.930 . S
H3787 C3779 0.929 . S
H3788 C3796 0.929 . S
H3789 C3798 0.930 . S
H3790 C3800 0.930 . S
H3791 C3803 0.929 . S
H3792 C3806 0.930 . S
H3793 C3808 0.960 . S
H3794 C3808 0.960 . S
H3795 C3808 0.960 . S
C3796 H3788 0.929 . S
C3796 C3797 1.377 . S
C3796 C3798 1.384 . S
C3797 C3796 1.377 . S
C3797 C3803 1.390 . S
C3798 H3789 0.930 . S
C3798 C3796 1.384 . S
C3798 C3799 1.372 . S
C3799 C3798 1.372 . S
C3799 C3800 1.400 . S
C3799 C3804 1.490 . S
C3800 H3790 0.930 . S
C3800 C3799 1.400 . S
C3800 C3803 1.386 . S
H3801 C3817 0.930 . S
H3802 C3818 0.931 . S
C3803 H3791 0.929 . S
C3803 C3797 1.390 . S
C3803 C3800 1.386 . S
C3804 C3799 1.490 . S
C3804 C3806 1.395 . S
C3804 C3807 1.403 . S
H3805 C3811 0.930 . S
C3806 H3792 0.930 . S
C3806 C3804 1.395 . S
C3806 C3809 1.403 . S
C3807 C3804 1.403 . S
C3807 C3808 1.524 . S
C3807 C3811 1.400 . S
C3808 H3793 0.960 . S
C3808 H3794 0.960 . S
C3808 H3795 0.960 . S
C3808 C3807 1.524 . S
C3809 C3806 1.403 . S
C3809 C3810 1.392 . S
C3809 C3813 1.495 . S
C3810 C3809 1.392 . S
C3810 C3811 1.385 . S
C3810 C3812 1.478 . S
C3811 H3805 0.930 . S
C3811 C3807 1.400 . S
C3811 C3810 1.385 . S
C3812 C3810 1.478 . S
C3812 C3814 1.381 . S
C3812 C3818 1.383 . S
C3813 C3809 1.495 . S
C3813 H3819 0.959 . S
C3813 H3820 0.961 . S
C3813 H3821 0.960 . S
C3814 C3812 1.381 . S
C3814 C3815 1.394 . S
C3814 H3822 0.930 . S
C3815 C3814 1.394 . S
C3815 C3816 1.383 . S
C3815 H3823 0.929 . S
C3816 C3815 1.383 . S
C3816 C3817 1.377 . S
C3817 H3801 0.930 . S
C3817 C3816 1.377 . S
C3817 C3818 1.379 . S
C3818 H3802 0.931 . S
C3818 C3812 1.383 . S
C3818 C3817 1.379 . S
H3819 C3813 0.959 . S
H3820 C3813 0.961 . S
H3821 C3813 0.960 . S
H3822 C3814 0.930 . S
H3823 C3815 0.929 . S
H3824 C3832 0.929 . S
H3825 C3834 0.930 . S
H3826 C3836 0.930 . S
H3827 C3839 0.929 . S
H3828 C3842 0.930 . S
H3829 C3844 0.960 . S
H3830 C3844 0.960 . S
H3831 C3844 0.960 . S
C3832 H3824 0.929 . S
C3832 C3833 1.377 . S
C3832 C3834 1.384 . S
C3833 C3832 1.377 . S
C3833 C3839 1.390 . S
C3834 H3825 0.930 . S
C3834 C3832 1.384 . S
C3834 C3835 1.372 . S
C3835 C3834 1.372 . S
C3835 C3836 1.400 . S
C3835 C3840 1.490 . S
C3836 H3826 0.930 . S
C3836 C3835 1.400 . S
C3836 C3839 1.386 . S
H3837 C3853 0.930 . S
H3838 C3854 0.931 . S
C3839 H3827 0.929 . S
C3839 C3833 1.390 . S
C3839 C3836 1.386 . S
C3840 C3835 1.490 . S
C3840 C3842 1.395 . S
C3840 C3843 1.403 . S
H3841 C3847 0.930 . S
C3842 H3828 0.930 . S
C3842 C3840 1.395 . S
C3842 C3845 1.403 . S
C3843 C3840 1.403 . S
C3843 C3844 1.524 . S
C3843 C3847 1.400 . S
C3844 H3829 0.960 . S
C3844 H3830 0.960 . S
C3844 H3831 0.960 . S
C3844 C3843 1.524 . S
C3845 C3842 1.403 . S
C3845 C3846 1.392 . S
C3845 C3849 1.495 . S
C3846 C3845 1.392 . S
C3846 C3847 1.385 . S
C3846 C3848 1.478 . S
C3847 H3841 0.930 . S
C3847 C3843 1.400 . S
C3847 C3846 1.385 . S
C3848 C3846 1.478 . S
C3848 C3850 1.381 . S
C3848 C3854 1.383 . S
C3849 C3845 1.495 . S
C3849 H3855 0.959 . S
C3849 H3856 0.961 . S
C3849 H3857 0.960 . S
C3850 C3848 1.381 . S
C3850 C3851 1.394 . S
C3850 H3858 0.930 . S
C3851 C3850 1.394 . S
C3851 C3852 1.383 . S
C3851 H3859 0.929 . S
C3852 C3851 1.383 . S
C3852 C3853 1.377 . S
C3853 H3837 0.930 . S
C3853 C3852 1.377 . S
C3853 C3854 1.379 . S
C3854 H3838 0.931 . S
C3854 C3848 1.383 . S
C3854 C3853 1.379 . S
H3855 C3849 0.959 . S
H3856 C3849 0.961 . S
H3857 C3849 0.960 . S
H3858 C3850 0.930 . S
H3859 C3851 0.929 . S
H3860 C3868 0.929 . S
H3861 C3870 0.930 . S
H3862 C3872 0.930 . S
H3863 C3875 0.929 . S
H3864 C3878 0.930 . S
H3865 C3880 0.960 . S
H3866 C3880 0.960 . S
H3867 C3880 0.960 . S
C3868 H3860 0.929 . S
C3868 C3869 1.377 . S
C3868 C3870 1.384 . S
C3869 C3868 1.377 . S
C3869 C3875 1.390 . S
C3870 H3861 0.930 . S
C3870 C3868 1.384 . S
C3870 C3871 1.372 . S
C3871 C3870 1.372 . S
C3871 C3872 1.400 . S
C3871 C3876 1.490 . S
C3872 H3862 0.930 . S
C3872 C3871 1.400 . S
C3872 C3875 1.386 . S
H3873 C3889 0.930 . S
H3874 C3890 0.931 . S
C3875 H3863 0.929 . S
C3875 C3869 1.390 . S
C3875 C3872 1.386 . S
C3876 C3871 1.490 . S
C3876 C3878 1.395 . S
C3876 C3879 1.403 . S
H3877 C3883 0.930 . S
C3878 H3864 0.930 . S
C3878 C3876 1.395 . S
C3878 C3881 1.403 . S
C3879 C3876 1.403 . S
C3879 C3880 1.524 . S
C3879 C3883 1.400 . S
C3880 H3865 0.960 . S
C3880 H3866 0.960 . S
C3880 H3867 0.960 . S
C3880 C3879 1.524 . S
C3881 C3878 1.403 . S
C3881 C3882 1.392 . S
C3881 C3885 1.495 . S
C3882 C3881 1.392 . S
C3882 C3883 1.385 . S
C3882 C3884 1.478 . S
C3883 H3877 0.930 . S
C3883 C3879 1.400 . S
C3883 C3882 1.385 . S
C3884 C3882 1.478 . S
C3884 C3886 1.381 . S
C3884 C3890 1.383 . S
C3885 C3881 1.495 . S
C3885 H3891 0.959 . S
C3885 H3892 0.961 . S
C3885 H3893 0.960 . S
C3886 C3884 1.381 . S
C3886 C3887 1.394 . S
C3886 H3894 0.930 . S
C3887 C3886 1.394 . S
C3887 C3888 1.383 . S
C3887 H3895 0.929 . S
C3888 C3887 1.383 . S
C3888 C3889 1.377 . S
C3889 H3873 0.930 . S
C3889 C3888 1.377 . S
C3889 C3890 1.379 . S
C3890 H3874 0.931 . S
C3890 C3884 1.383 . S
C3890 C3889 1.379 . S
H3891 C3885 0.959 . S
H3892 C3885 0.961 . S
H3893 C3885 0.960 . S
H3894 C3886 0.930 . S
H3895 C3887 0.929 . S
H3896 C3904 0.929 . S
H3897 C3906 0.930 . S
H3898 C3908 0.930 . S
H3899 C3911 0.929 . S
H3900 C3914 0.930 . S
H3901 C3916 0.960 . S
H3902 C3916 0.960 . S
H3903 C3916 0.960 . S
C3904 H3896 0.929 . S
C3904 C3905 1.377 . S
C3904 C3906 1.384 . S
C3905 C3904 1.377 . S
C3905 C3911 1.390 . S
C3906 H3897 0.930 . S
C3906 C3904 1.384 . S
C3906 C3907 1.372 . S
C3907 C3906 1.372 . S
C3907 C3908 1.400 . S
C3907 C3912 1.490 . S
C3908 H3898 0.930 . S
C3908 C3907 1.400 . S
C3908 C3911 1.386 . S
H3909 C3925 0.930 . S
H3910 C3926 0.931 . S
C3911 H3899 0.929 . S
C3911 C3905 1.390 . S
C3911 C3908 1.386 . S
C3912 C3907 1.490 . S
C3912 C3914 1.395 . S
C3912 C3915 1.403 . S
H3913 C3919 0.930 . S
C3914 H3900 0.930 . S
C3914 C3912 1.395 . S
C3914 C3917 1.403 . S
C3915 C3912 1.403 . S
C3915 C3916 1.524 . S
C3915 C3919 1.400 . S
C3916 H3901 0.960 . S
C3916 H3902 0.960 . S
C3916 H3903 0.960 . S
C3916 C3915 1.524 . S
C3917 C3914 1.403 . S
C3917 C3918 1.392 . S
C3917 C3921 1.495 . S
C3918 C3917 1.392 . S
C3918 C3919 1.385 . S
C3918 C3920 1.478 . S
C3919 H3913 0.930 . S
C3919 C3915 1.400 . S
C3919 C3918 1.385 . S
C3920 C3918 1.478 . S
C3920 C3922 1.381 . S
C3920 C3926 1.383 . S
C3921 C3917 1.495 . S
C3921 H3927 0.959 . S
C3921 H3928 0.961 . S
C3921 H3929 0.960 . S
C3922 C3920 1.381 . S
C3922 C3923 1.394 . S
C3922 H3930 0.930 . S
C3923 C3922 1.394 . S
C3923 C3924 1.383 . S
C3923 H3931 0.929 . S
C3924 C3923 1.383 . S
C3924 C3925 1.377 . S
C3925 H3909 0.930 . S
C3925 C3924 1.377 . S
C3925 C3926 1.379 . S
C3926 H3910 0.931 . S
C3926 C3920 1.383 . S
C3926 C3925 1.379 . S
H3927 C3921 0.959 . S
H3928 C3921 0.961 . S
H3929 C3921 0.960 . S
H3930 C3922 0.930 . S
H3931 C3923 0.929 . S
H3932 C3940 0.929 . S
H3933 C3942 0.930 . S
H3934 C3944 0.930 . S
H3935 C3947 0.929 . S
H3936 C3950 0.930 . S
H3937 C3952 0.960 . S
H3938 C3952 0.960 . S
H3939 C3952 0.960 . S
C3940 H3932 0.929 . S
C3940 C3941 1.377 . S
C3940 C3942 1.384 . S
C3941 C3940 1.377 . S
C3941 C3947 1.390 . S
C3942 H3933 0.930 . S
C3942 C3940 1.384 . S
C3942 C3943 1.372 . S
C3943 C3942 1.372 . S
C3943 C3944 1.400 . S
C3943 C3948 1.490 . S
C3944 H3934 0.930 . S
C3944 C3943 1.400 . S
C3944 C3947 1.386 . S
H3945 C3961 0.930 . S
H3946 C3962 0.931 . S
C3947 H3935 0.929 . S
C3947 C3941 1.390 . S
C3947 C3944 1.386 . S
C3948 C3943 1.490 . S
C3948 C3950 1.395 . S
C3948 C3951 1.403 . S
H3949 C3955 0.930 . S
C3950 H3936 0.930 . S
C3950 C3948 1.395 . S
C3950 C3953 1.403 . S
C3951 C3948 1.403 . S
C3951 C3952 1.524 . S
C3951 C3955 1.400 . S
C3952 H3937 0.960 . S
C3952 H3938 0.960 . S
C3952 H3939 0.960 . S
C3952 C3951 1.524 . S
C3953 C3950 1.403 . S
C3953 C3954 1.392 . S
C3953 C3957 1.495 . S
C3954 C3953 1.392 . S
C3954 C3955 1.385 . S
C3954 C3956 1.478 . S
C3955 H3949 0.930 . S
C3955 C3951 1.400 . S
C3955 C3954 1.385 . S
C3956 C3954 1.478 . S
C3956 C3958 1.381 . S
C3956 C3962 1.383 . S
C3957 C3953 1.495 . S
C3957 H3963 0.959 . S
C3957 H3964 0.961 . S
C3957 H3965 0.960 . S
C3958 C3956 1.381 . S
C3958 C3959 1.394 . S
C3958 H3966 0.930 . S
C3959 C3958 1.394 . S
C3959 C3960 1.383 . S
C3959 H3967 0.929 . S
C3960 C3959 1.383 . S
C3960 C3961 1.377 . S
C3961 H3945 0.930 . S
C3961 C3960 1.377 . S
C3961 C3962 1.379 . S
C3962 H3946 0.931 . S
C3962 C3956 1.383 . S
C3962 C3961 1.379 . S
H3963 C3957 0.959 . S
H3964 C3957 0.961 . S
H3965 C3957 0.960 . S
H3966 C3958 0.930 . S
H3967 C3959 0.929 . S
H3968 C3976 0.929 . S
H3969 C3978 0.930 . S
H3970 C3980 0.930 . S
H3971 C3983 0.929 . S
H3972 C3986 0.930 . S
H3973 C3988 0.960 . S
H3974 C3988 0.960 . S
H3975 C3988 0.960 . S
C3976 H3968 0.929 . S
C3976 C3977 1.377 . S
C3976 C3978 1.384 . S
C3977 C3976 1.377 . S
C3977 C3983 1.390 . S
C3978 H3969 0.930 . S
C3978 C3976 1.384 . S
C3978 C3979 1.372 . S
C3979 C3978 1.372 . S
C3979 C3980 1.400 . S
C3979 C3984 1.490 . S
C3980 H3970 0.930 . S
C3980 C3979 1.400 . S
C3980 C3983 1.386 . S
H3981 C3997 0.930 . S
H3982 C3998 0.931 . S
C3983 H3971 0.929 . S
C3983 C3977 1.390 . S
C3983 C3980 1.386 . S
C3984 C3979 1.490 . S
C3984 C3986 1.395 . S
C3984 C3987 1.403 . S
H3985 C3991 0.930 . S
C3986 H3972 0.930 . S
C3986 C3984 1.395 . S
C3986 C3989 1.403 . S
C3987 C3984 1.403 . S
C3987 C3988 1.524 . S
C3987 C3991 1.400 . S
C3988 H3973 0.960 . S
C3988 H3974 0.960 . S
C3988 H3975 0.960 . S
C3988 C3987 1.524 . S
C3989 C3986 1.403 . S
C3989 C3990 1.392 . S
C3989 C3993 1.495 . S
C3990 C3989 1.392 . S
C3990 C3991 1.385 . S
C3990 C3992 1.478 . S
C3991 H3985 0.930 . S
C3991 C3987 1.400 . S
C3991 C3990 1.385 . S
C3992 C3990 1.478 . S
C3992 C3994 1.381 . S
C3992 C3998 1.383 . S
C3993 C3989 1.495 . S
C3993 H3999 0.959 . S
C3993 H4000 0.961 . S
C3993 H4001 0.960 . S
C3994 C3992 1.381 . S
C3994 C3995 1.394 . S
C3994 H4002 0.930 . S
C3995 C3994 1.394 . S
C3995 C3996 1.383 . S
C3995 H4003 0.929 . S
C3996 C3995 1.383 . S
C3996 C3997 1.377 . S
C3997 H3981 0.930 . S
C3997 C3996 1.377 . S
C3997 C3998 1.379 . S
C3998 H3982 0.931 . S
C3998 C3992 1.383 . S
C3998 C3997 1.379 . S
H3999 C3993 0.959 . S
H4000 C3993 0.961 . S
H4001 C3993 0.960 . S
H4002 C3994 0.930 . S
H4003 C3995 0.929 . S
H4004 C4012 0.929 . S
H4005 C4014 0.930 . S
H4006 C4016 0.930 . S
H4007 C4019 0.929 . S
H4008 C4022 0.930 . S
H4009 C4024 0.960 . S
H4010 C4024 0.960 . S
H4011 C4024 0.960 . S
C4012 H4004 0.929 . S
C4012 C4013 1.377 . S
C4012 C4014 1.384 . S
C4013 C4012 1.377 . S
C4013 C4019 1.390 . S
C4014 H4005 0.930 . S
C4014 C4012 1.384 . S
C4014 C4015 1.372 . S
C4015 C4014 1.372 . S
C4015 C4016 1.400 . S
C4015 C4020 1.490 . S
C4016 H4006 0.930 . S
C4016 C4015 1.400 . S
C4016 C4019 1.386 . S
H4017 C4033 0.930 . S
H4018 C4034 0.931 . S
C4019 H4007 0.929 . S
C4019 C4013 1.390 . S
C4019 C4016 1.386 . S
C4020 C4015 1.490 . S
C4020 C4022 1.395 . S
C4020 C4023 1.403 . S
H4021 C4027 0.930 . S
C4022 H4008 0.930 . S
C4022 C4020 1.395 . S
C4022 C4025 1.403 . S
C4023 C4020 1.403 . S
C4023 C4024 1.524 . S
C4023 C4027 1.400 . S
C4024 H4009 0.960 . S
C4024 H4010 0.960 . S
C4024 H4011 0.960 . S
C4024 C4023 1.524 . S
C4025 C4022 1.403 . S
C4025 C4026 1.392 . S
C4025 C4029 1.495 . S
C4026 C4025 1.392 . S
C4026 C4027 1.385 . S
C4026 C4028 1.478 . S
C4027 H4021 0.930 . S
C4027 C4023 1.400 . S
C4027 C4026 1.385 . S
C4028 C4026 1.478 . S
C4028 C4030 1.381 . S
C4028 C4034 1.383 . S
C4029 C4025 1.495 . S
C4029 H4035 0.959 . S
C4029 H4036 0.961 . S
C4029 H4037 0.960 . S
C4030 C4028 1.381 . S
C4030 C4031 1.394 . S
C4030 H4038 0.930 . S
C4031 C4030 1.394 . S
C4031 C4032 1.383 . S
C4031 H4039 0.929 . S
C4032 C4031 1.383 . S
C4032 C4033 1.377 . S
C4033 H4017 0.930 . S
C4033 C4032 1.377 . S
C4033 C4034 1.379 . S
C4034 H4018 0.931 . S
C4034 C4028 1.383 . S
C4034 C4033 1.379 . S
H4035 C4029 0.959 . S
H4036 C4029 0.961 . S
H4037 C4029 0.960 . S
H4038 C4030 0.930 . S
H4039 C4031 0.929 . S
H4040 C4048 0.929 . S
H4041 C4050 0.930 . S
H4042 C4052 0.930 . S
H4043 C4055 0.929 . S
H4044 C4058 0.930 . S
H4045 C4060 0.960 . S
H4046 C4060 0.960 . S
H4047 C4060 0.960 . S
C4048 H4040 0.929 . S
C4048 C4049 1.377 . S
C4048 C4050 1.384 . S
C4049 C4048 1.377 . S
C4049 C4055 1.390 . S
C4050 H4041 0.930 . S
C4050 C4048 1.384 . S
C4050 C4051 1.372 . S
C4051 C4050 1.372 . S
C4051 C4052 1.400 . S
C4051 C4056 1.490 . S
C4052 H4042 0.930 . S
C4052 C4051 1.400 . S
C4052 C4055 1.386 . S
H4053 C4069 0.930 . S
H4054 C4070 0.931 . S
C4055 H4043 0.929 . S
C4055 C4049 1.390 . S
C4055 C4052 1.386 . S
C4056 C4051 1.490 . S
C4056 C4058 1.395 . S
C4056 C4059 1.403 . S
H4057 C4063 0.930 . S
C4058 H4044 0.930 . S
C4058 C4056 1.395 . S
C4058 C4061 1.403 . S
C4059 C4056 1.403 . S
C4059 C4060 1.524 . S
C4059 C4063 1.400 . S
C4060 H4045 0.960 . S
C4060 H4046 0.960 . S
C4060 H4047 0.960 . S
C4060 C4059 1.524 . S
C4061 C4058 1.403 . S
C4061 C4062 1.392 . S
C4061 C4065 1.495 . S
C4062 C4061 1.392 . S
C4062 C4063 1.385 . S
C4062 C4064 1.478 . S
C4063 H4057 0.930 . S
C4063 C4059 1.400 . S
C4063 C4062 1.385 . S
C4064 C4062 1.478 . S
C4064 C4066 1.381 . S
C4064 C4070 1.383 . S
C4065 C4061 1.495 . S
C4065 H4071 0.959 . S
C4065 H4072 0.961 . S
C4065 H4073 0.960 . S
C4066 C4064 1.381 . S
C4066 C4067 1.394 . S
C4066 H4074 0.930 . S
C4067 C4066 1.394 . S
C4067 C4068 1.383 . S
C4067 H4075 0.929 . S
C4068 C4067 1.383 . S
C4068 C4069 1.377 . S
C4069 H4053 0.930 . S
C4069 C4068 1.377 . S
C4069 C4070 1.379 . S
C4070 H4054 0.931 . S
C4070 C4064 1.383 . S
C4070 C4069 1.379 . S
H4071 C4065 0.959 . S
H4072 C4065 0.961 . S
H4073 C4065 0.960 . S
H4074 C4066 0.930 . S
H4075 C4067 0.929 . S
H4076 C4084 0.929 . S
H4077 C4086 0.930 . S
H4078 C4088 0.930 . S
H4079 C4091 0.929 . S
H4080 C4094 0.930 . S
H4081 C4096 0.960 . S
H4082 C4096 0.960 . S
H4083 C4096 0.960 . S
C4084 H4076 0.929 . S
C4084 C4085 1.377 . S
C4084 C4086 1.384 . S
C4085 C4084 1.377 . S
C4085 C4091 1.390 . S
C4086 H4077 0.930 . S
C4086 C4084 1.384 . S
C4086 C4087 1.372 . S
C4087 C4086 1.372 . S
C4087 C4088 1.400 . S
C4087 C4092 1.490 . S
C4088 H4078 0.930 . S
C4088 C4087 1.400 . S
C4088 C4091 1.386 . S
H4089 C4105 0.930 . S
H4090 C4106 0.931 . S
C4091 H4079 0.929 . S
C4091 C4085 1.390 . S
C4091 C4088 1.386 . S
C4092 C4087 1.490 . S
C4092 C4094 1.395 . S
C4092 C4095 1.403 . S
H4093 C4099 0.930 . S
C4094 H4080 0.930 . S
C4094 C4092 1.395 . S
C4094 C4097 1.403 . S
C4095 C4092 1.403 . S
C4095 C4096 1.524 . S
C4095 C4099 1.400 . S
C4096 H4081 0.960 . S
C4096 H4082 0.960 . S
C4096 H4083 0.960 . S
C4096 C4095 1.524 . S
C4097 C4094 1.403 . S
C4097 C4098 1.392 . S
C4097 C4101 1.495 . S
C4098 C4097 1.392 . S
C4098 C4099 1.385 . S
C4098 C4100 1.478 . S
C4099 H4093 0.930 . S
C4099 C4095 1.400 . S
C4099 C4098 1.385 . S
C4100 C4098 1.478 . S
C4100 C4102 1.381 . S
C4100 C4106 1.383 . S
C4101 C4097 1.495 . S
C4101 H4107 0.959 . S
C4101 H4108 0.961 . S
C4101 H4109 0.960 . S
C4102 C4100 1.381 . S
C4102 C4103 1.394 . S
C4102 H4110 0.930 . S
C4103 C4102 1.394 . S
C4103 C4104 1.383 . S
C4103 H4111 0.929 . S
C4104 C4103 1.383 . S
C4104 C4105 1.377 . S
C4105 H4089 0.930 . S
C4105 C4104 1.377 . S
C4105 C4106 1.379 . S
C4106 H4090 0.931 . S
C4106 C4100 1.383 . S
C4106 C4105 1.379 . S
H4107 C4101 0.959 . S
H4108 C4101 0.961 . S
H4109 C4101 0.960 . S
H4110 C4102 0.930 . S
H4111 C4103 0.929 . S
H4112 C4120 0.929 . S
H4113 C4122 0.930 . S
H4114 C4124 0.930 . S
H4115 C4127 0.929 . S
H4116 C4130 0.930 . S
H4117 C4132 0.960 . S
H4118 C4132 0.960 . S
H4119 C4132 0.960 . S
C4120 H4112 0.929 . S
C4120 C4121 1.377 . S
C4120 C4122 1.384 . S
C4121 C4120 1.377 . S
C4121 C4127 1.390 . S
C4122 H4113 0.930 . S
C4122 C4120 1.384 . S
C4122 C4123 1.372 . S
C4123 C4122 1.372 . S
C4123 C4124 1.400 . S
C4123 C4128 1.490 . S
C4124 H4114 0.930 . S
C4124 C4123 1.400 . S
C4124 C4127 1.386 . S
H4125 C4141 0.930 . S
H4126 C4142 0.931 . S
C4127 H4115 0.929 . S
C4127 C4121 1.390 . S
C4127 C4124 1.386 . S
C4128 C4123 1.490 . S
C4128 C4130 1.395 . S
C4128 C4131 1.403 . S
H4129 C4135 0.930 . S
C4130 H4116 0.930 . S
C4130 C4128 1.395 . S
C4130 C4133 1.403 . S
C4131 C4128 1.403 . S
C4131 C4132 1.524 . S
C4131 C4135 1.400 . S
C4132 H4117 0.960 . S
C4132 H4118 0.960 . S
C4132 H4119 0.960 . S
C4132 C4131 1.524 . S
C4133 C4130 1.403 . S
C4133 C4134 1.392 . S
C4133 C4137 1.495 . S
C4134 C4133 1.392 . S
C4134 C4135 1.385 . S
C4134 C4136 1.478 . S
C4135 H4129 0.930 . S
C4135 C4131 1.400 . S
C4135 C4134 1.385 . S
C4136 C4134 1.478 . S
C4136 C4138 1.381 . S
C4136 C4142 1.383 . S
C4137 C4133 1.495 . S
C4137 H4143 0.959 . S
C4137 H4144 0.961 . S
C4137 H4145 0.960 . S
C4138 C4136 1.381 . S
C4138 C4139 1.394 . S
C4138 H4146 0.930 . S
C4139 C4138 1.394 . S
C4139 C4140 1.383 . S
C4139 H4147 0.929 . S
C4140 C4139 1.383 . S
C4140 C4141 1.377 . S
C4141 H4125 0.930 . S
C4141 C4140 1.377 . S
C4141 C4142 1.379 . S
C4142 H4126 0.931 . S
C4142 C4136 1.383 . S
C4142 C4141 1.379 . S
H4143 C4137 0.959 . S
H4144 C4137 0.961 . S
H4145 C4137 0.960 . S
H4146 C4138 0.930 . S
H4147 C4139 0.929 . S
H4148 C4156 0.929 . S
H4149 C4158 0.930 . S
H4150 C4160 0.930 . S
H4151 C4163 0.929 . S
H4152 C4166 0.930 . S
H4153 C4168 0.960 . S
H4154 C4168 0.960 . S
H4155 C4168 0.960 . S
C4156 H4148 0.929 . S
C4156 C4157 1.377 . S
C4156 C4158 1.384 . S
C4157 C4156 1.377 . S
C4157 C4163 1.390 . S
C4158 H4149 0.930 . S
C4158 C4156 1.384 . S
C4158 C4159 1.372 . S
C4159 C4158 1.372 . S
C4159 C4160 1.400 . S
C4159 C4164 1.490 . S
C4160 H4150 0.930 . S
C4160 C4159 1.400 . S
C4160 C4163 1.386 . S
H4161 C4177 0.930 . S
H4162 C4178 0.931 . S
C4163 H4151 0.929 . S
C4163 C4157 1.390 . S
C4163 C4160 1.386 . S
C4164 C4159 1.490 . S
C4164 C4166 1.395 . S
C4164 C4167 1.403 . S
H4165 C4171 0.930 . S
C4166 H4152 0.930 . S
C4166 C4164 1.395 . S
C4166 C4169 1.403 . S
C4167 C4164 1.403 . S
C4167 C4168 1.524 . S
C4167 C4171 1.400 . S
C4168 H4153 0.960 . S
C4168 H4154 0.960 . S
C4168 H4155 0.960 . S
C4168 C4167 1.524 . S
C4169 C4166 1.403 . S
C4169 C4170 1.392 . S
C4169 C4173 1.495 . S
C4170 C4169 1.392 . S
C4170 C4171 1.385 . S
C4170 C4172 1.478 . S
C4171 H4165 0.930 . S
C4171 C4167 1.400 . S
C4171 C4170 1.385 . S
C4172 C4170 1.478 . S
C4172 C4174 1.381 . S
C4172 C4178 1.383 . S
C4173 C4169 1.495 . S
C4173 H4179 0.959 . S
C4173 H4180 0.961 . S
C4173 H4181 0.960 . S
C4174 C4172 1.381 . S
C4174 C4175 1.394 . S
C4174 H4182 0.930 . S
C4175 C4174 1.394 . S
C4175 C4176 1.383 . S
C4175 H4183 0.929 . S
C4176 C4175 1.383 . S
C4176 C4177 1.377 . S
C4177 H4161 0.930 . S
C4177 C4176 1.377 . S
C4177 C4178 1.379 . S
C4178 H4162 0.931 . S
C4178 C4172 1.383 . S
C4178 C4177 1.379 . S
H4179 C4173 0.959 . S
H4180 C4173 0.961 . S
H4181 C4173 0.960 . S
H4182 C4174 0.930 . S
H4183 C4175 0.929 . S
H4184 C4192 0.929 . S
H4185 C4194 0.930 . S
H4186 C4196 0.930 . S
H4187 C4199 0.929 . S
H4188 C4202 0.930 . S
H4189 C4204 0.960 . S
H4190 C4204 0.960 . S
H4191 C4204 0.960 . S
C4192 H4184 0.929 . S
C4192 C4193 1.377 . S
C4192 C4194 1.384 . S
C4193 C4192 1.377 . S
C4193 C4199 1.390 . S
C4194 H4185 0.930 . S
C4194 C4192 1.384 . S
C4194 C4195 1.372 . S
C4195 C4194 1.372 . S
C4195 C4196 1.400 . S
C4195 C4200 1.490 . S
C4196 H4186 0.930 . S
C4196 C4195 1.400 . S
C4196 C4199 1.386 . S
H4197 C4213 0.930 . S
H4198 C4214 0.931 . S
C4199 H4187 0.929 . S
C4199 C4193 1.390 . S
C4199 C4196 1.386 . S
C4200 C4195 1.490 . S
C4200 C4202 1.395 . S
C4200 C4203 1.403 . S
H4201 C4207 0.930 . S
C4202 H4188 0.930 . S
C4202 C4200 1.395 . S
C4202 C4205 1.403 . S
C4203 C4200 1.403 . S
C4203 C4204 1.524 . S
C4203 C4207 1.400 . S
C4204 H4189 0.960 . S
C4204 H4190 0.960 . S
C4204 H4191 0.960 . S
C4204 C4203 1.524 . S
C4205 C4202 1.403 . S
C4205 C4206 1.392 . S
C4205 C4209 1.495 . S
C4206 C4205 1.392 . S
C4206 C4207 1.385 . S
C4206 C4208 1.478 . S
C4207 H4201 0.930 . S
C4207 C4203 1.400 . S
C4207 C4206 1.385 . S
C4208 C4206 1.478 . S
C4208 C4210 1.381 . S
C4208 C4214 1.383 . S
C4209 C4205 1.495 . S
C4209 H4215 0.959 . S
C4209 H4216 0.961 . S
C4209 H4217 0.960 . S
C4210 C4208 1.381 . S
C4210 C4211 1.394 . S
C4210 H4218 0.930 . S
C4211 C4210 1.394 . S
C4211 C4212 1.383 . S
C4211 H4219 0.929 . S
C4212 C4211 1.383 . S
C4212 C4213 1.377 . S
C4213 H4197 0.930 . S
C4213 C4212 1.377 . S
C4213 C4214 1.379 . S
C4214 H4198 0.931 . S
C4214 C4208 1.383 . S
C4214 C4213 1.379 . S
H4215 C4209 0.959 . S
H4216 C4209 0.961 . S
H4217 C4209 0.960 . S
H4218 C4210 0.930 . S
H4219 C4211 0.929 . S
H4220 C4228 0.929 . S
H4221 C4230 0.930 . S
H4222 C4232 0.930 . S
H4223 C4235 0.929 . S
H4224 C4238 0.930 . S
H4225 C4240 0.960 . S
H4226 C4240 0.960 . S
H4227 C4240 0.960 . S
C4228 H4220 0.929 . S
C4228 C4229 1.377 . S
C4228 C4230 1.384 . S
C4229 C4228 1.377 . S
C4229 C4235 1.390 . S
C4230 H4221 0.930 . S
C4230 C4228 1.384 . S
C4230 C4231 1.372 . S
C4231 C4230 1.372 . S
C4231 C4232 1.400 . S
C4231 C4236 1.490 . S
C4232 H4222 0.930 . S
C4232 C4231 1.400 . S
C4232 C4235 1.386 . S
H4233 C4249 0.930 . S
H4234 C4250 0.931 . S
C4235 H4223 0.929 . S
C4235 C4229 1.390 . S
C4235 C4232 1.386 . S
C4236 C4231 1.490 . S
C4236 C4238 1.395 . S
C4236 C4239 1.403 . S
H4237 C4243 0.930 . S
C4238 H4224 0.930 . S
C4238 C4236 1.395 . S
C4238 C4241 1.403 . S
C4239 C4236 1.403 . S
C4239 C4240 1.524 . S
C4239 C4243 1.400 . S
C4240 H4225 0.960 . S
C4240 H4226 0.960 . S
C4240 H4227 0.960 . S
C4240 C4239 1.524 . S
C4241 C4238 1.403 . S
C4241 C4242 1.392 . S
C4241 C4245 1.495 . S
C4242 C4241 1.392 . S
C4242 C4243 1.385 . S
C4242 C4244 1.478 . S
C4243 H4237 0.930 . S
C4243 C4239 1.400 . S
C4243 C4242 1.385 . S
C4244 C4242 1.478 . S
C4244 C4246 1.381 . S
C4244 C4250 1.383 . S
C4245 C4241 1.495 . S
C4245 H4251 0.959 . S
C4245 H4252 0.961 . S
C4245 H4253 0.960 . S
C4246 C4244 1.381 . S
C4246 C4247 1.394 . S
C4246 H4254 0.930 . S
C4247 C4246 1.394 . S
C4247 C4248 1.383 . S
C4247 H4255 0.929 . S
C4248 C4247 1.383 . S
C4248 C4249 1.377 . S
C4249 H4233 0.930 . S
C4249 C4248 1.377 . S
C4249 C4250 1.379 . S
C4250 H4234 0.931 . S
C4250 C4244 1.383 . S
C4250 C4249 1.379 . S
H4251 C4245 0.959 . S
H4252 C4245 0.961 . S
H4253 C4245 0.960 . S
H4254 C4246 0.930 . S
H4255 C4247 0.929 . S
H4256 C4264 0.929 . S
H4257 C4266 0.930 . S
H4258 C4268 0.930 . S
H4259 C4271 0.929 . S
H4260 C4274 0.930 . S
H4261 C4276 0.960 . S
H4262 C4276 0.960 . S
H4263 C4276 0.960 . S
C4264 H4256 0.929 . S
C4264 C4265 1.377 . S
C4264 C4266 1.384 . S
C4265 C4264 1.377 . S
C4265 C4271 1.390 . S
C4266 H4257 0.930 . S
C4266 C4264 1.384 . S
C4266 C4267 1.372 . S
C4267 C4266 1.372 . S
C4267 C4268 1.400 . S
C4267 C4272 1.490 . S
C4268 H4258 0.930 . S
C4268 C4267 1.400 . S
C4268 C4271 1.386 . S
H4269 C4285 0.930 . S
H4270 C4286 0.931 . S
C4271 H4259 0.929 . S
C4271 C4265 1.390 . S
C4271 C4268 1.386 . S
C4272 C4267 1.490 . S
C4272 C4274 1.395 . S
C4272 C4275 1.403 . S
H4273 C4279 0.930 . S
C4274 H4260 0.930 . S
C4274 C4272 1.395 . S
C4274 C4277 1.403 . S
C4275 C4272 1.403 . S
C4275 C4276 1.524 . S
C4275 C4279 1.400 . S
C4276 H4261 0.960 . S
C4276 H4262 0.960 . S
C4276 H4263 0.960 . S
C4276 C4275 1.524 . S
C4277 C4274 1.403 . S
C4277 C4278 1.392 . S
C4277 C4281 1.495 . S
C4278 C4277 1.392 . S
C4278 C4279 1.385 . S
C4278 C4280 1.478 . S
C4279 H4273 0.930 . S
C4279 C4275 1.400 . S
C4279 C4278 1.385 . S
C4280 C4278 1.478 . S
C4280 C4282 1.381 . S
C4280 C4286 1.383 . S
C4281 C4277 1.495 . S
C4281 H4287 0.959 . S
C4281 H4288 0.961 . S
C4281 H4289 0.960 . S
C4282 C4280 1.381 . S
C4282 C4283 1.394 . S
C4282 H4290 0.930 . S
C4283 C4282 1.394 . S
C4283 C4284 1.383 . S
C4283 H4291 0.929 . S
C4284 C4283 1.383 . S
C4284 C4285 1.377 . S
C4285 H4269 0.930 . S
C4285 C4284 1.377 . S
C4285 C4286 1.379 . S
C4286 H4270 0.931 . S
C4286 C4280 1.383 . S
C4286 C4285 1.379 . S
H4287 C4281 0.959 . S
H4288 C4281 0.961 . S
H4289 C4281 0.960 . S
H4290 C4282 0.930 . S
H4291 C4283 0.929 . S
H4292 C4300 0.929 . S
H4293 C4302 0.930 . S
H4294 C4304 0.930 . S
H4295 C4307 0.929 . S
H4296 C4310 0.930 . S
H4297 C4312 0.960 . S
H4298 C4312 0.960 . S
H4299 C4312 0.960 . S
C4300 H4292 0.929 . S
C4300 C4301 1.377 . S
C4300 C4302 1.384 . S
C4301 C4300 1.377 . S
C4301 C4307 1.390 . S
C4302 H4293 0.930 . S
C4302 C4300 1.384 . S
C4302 C4303 1.372 . S
C4303 C4302 1.372 . S
C4303 C4304 1.400 . S
C4303 C4308 1.490 . S
C4304 H4294 0.930 . S
C4304 C4303 1.400 . S
C4304 C4307 1.386 . S
H4305 C4321 0.930 . S
H4306 C4322 0.931 . S
C4307 H4295 0.929 . S
C4307 C4301 1.390 . S
C4307 C4304 1.386 . S
C4308 C4303 1.490 . S
C4308 C4310 1.395 . S
C4308 C4311 1.403 . S
H4309 C4315 0.930 . S
C4310 H4296 0.930 . S
C4310 C4308 1.395 . S
C4310 C4313 1.403 . S
C4311 C4308 1.403 . S
C4311 C4312 1.524 . S
C4311 C4315 1.400 . S
C4312 H4297 0.960 . S
C4312 H4298 0.960 . S
C4312 H4299 0.960 . S
C4312 C4311 1.524 . S
C4313 C4310 1.403 . S
C4313 C4314 1.392 . S
C4313 C4317 1.495 . S
C4314 C4313 1.392 . S
C4314 C4315 1.385 . S
C4314 C4316 1.478 . S
C4315 H4309 0.930 . S
C4315 C4311 1.400 . S
C4315 C4314 1.385 . S
C4316 C4314 1.478 . S
C4316 C4318 1.381 . S
C4316 C4322 1.383 . S
C4317 C4313 1.495 . S
C4317 H4323 0.959 . S
C4317 H4324 0.961 . S
C4317 H4325 0.960 . S
C4318 C4316 1.381 . S
C4318 C4319 1.394 . S
C4318 H4326 0.930 . S
C4319 C4318 1.394 . S
C4319 C4320 1.383 . S
C4319 H4327 0.929 . S
C4320 C4319 1.383 . S
C4320 C4321 1.377 . S
C4321 H4305 0.930 . S
C4321 C4320 1.377 . S
C4321 C4322 1.379 . S
C4322 H4306 0.931 . S
C4322 C4316 1.383 . S
C4322 C4321 1.379 . S
H4323 C4317 0.959 . S
H4324 C4317 0.961 . S
H4325 C4317 0.960 . S
H4326 C4318 0.930 . S
H4327 C4319 0.929 . S
H4328 C4336 0.929 . S
H4329 C4338 0.930 . S
H4330 C4340 0.930 . S
H4331 C4343 0.929 . S
H4332 C4346 0.930 . S
H4333 C4348 0.960 . S
H4334 C4348 0.960 . S
H4335 C4348 0.960 . S
C4336 H4328 0.929 . S
C4336 C4337 1.377 . S
C4336 C4338 1.384 . S
C4337 C4336 1.377 . S
C4337 C4343 1.390 . S
C4338 H4329 0.930 . S
C4338 C4336 1.384 . S
C4338 C4339 1.372 . S
C4339 C4338 1.372 . S
C4339 C4340 1.400 . S
C4339 C4344 1.490 . S
C4340 H4330 0.930 . S
C4340 C4339 1.400 . S
C4340 C4343 1.386 . S
H4341 C4357 0.930 . S
H4342 C4358 0.931 . S
C4343 H4331 0.929 . S
C4343 C4337 1.390 . S
C4343 C4340 1.386 . S
C4344 C4339 1.490 . S
C4344 C4346 1.395 . S
C4344 C4347 1.403 . S
H4345 C4351 0.930 . S
C4346 H4332 0.930 . S
C4346 C4344 1.395 . S
C4346 C4349 1.403 . S
C4347 C4344 1.403 . S
C4347 C4348 1.524 . S
C4347 C4351 1.400 . S
C4348 H4333 0.960 . S
C4348 H4334 0.960 . S
C4348 H4335 0.960 . S
C4348 C4347 1.524 . S
C4349 C4346 1.403 . S
C4349 C4350 1.392 . S
C4349 C4353 1.495 . S
C4350 C4349 1.392 . S
C4350 C4351 1.385 . S
C4350 C4352 1.478 . S
C4351 H4345 0.930 . S
C4351 C4347 1.400 . S
C4351 C4350 1.385 . S
C4352 C4350 1.478 . S
C4352 C4354 1.381 . S
C4352 C4358 1.383 . S
C4353 C4349 1.495 . S
C4353 H4359 0.959 . S
C4353 H4360 0.961 . S
C4353 H4361 0.960 . S
C4354 C4352 1.381 . S
C4354 C4355 1.394 . S
C4354 H4362 0.930 . S
C4355 C4354 1.394 . S
C4355 C4356 1.383 . S
C4355 H4363 0.929 . S
C4356 C4355 1.383 . S
C4356 C4357 1.377 . S
C4357 H4341 0.930 . S
C4357 C4356 1.377 . S
C4357 C4358 1.379 . S
C4358 H4342 0.931 . S
C4358 C4352 1.383 . S
C4358 C4357 1.379 . S
H4359 C4353 0.959 . S
H4360 C4353 0.961 . S
H4361 C4353 0.960 . S
H4362 C4354 0.930 . S
H4363 C4355 0.929 . S
H4364 C4372 0.929 . S
H4365 C4374 0.930 . S
H4366 C4376 0.930 . S
H4367 C4379 0.929 . S
H4368 C4382 0.930 . S
H4369 C4384 0.960 . S
H4370 C4384 0.960 . S
H4371 C4384 0.960 . S
C4372 H4364 0.929 . S
C4372 C4373 1.377 . S
C4372 C4374 1.384 . S
C4373 C4372 1.377 . S
C4373 C4379 1.390 . S
C4374 H4365 0.930 . S
C4374 C4372 1.384 . S
C4374 C4375 1.372 . S
C4375 C4374 1.372 . S
C4375 C4376 1.400 . S
C4375 C4380 1.490 . S
C4376 H4366 0.930 . S
C4376 C4375 1.400 . S
C4376 C4379 1.386 . S
H4377 C4393 0.930 . S
H4378 C4394 0.931 . S
C4379 H4367 0.929 . S
C4379 C4373 1.390 . S
C4379 C4376 1.386 . S
C4380 C4375 1.490 . S
C4380 C4382 1.395 . S
C4380 C4383 1.403 . S
H4381 C4387 0.930 . S
C4382 H4368 0.930 . S
C4382 C4380 1.395 . S
C4382 C4385 1.403 . S
C4383 C4380 1.403 . S
C4383 C4384 1.524 . S
C4383 C4387 1.400 . S
C4384 H4369 0.960 . S
C4384 H4370 0.960 . S
C4384 H4371 0.960 . S
C4384 C4383 1.524 . S
C4385 C4382 1.403 . S
C4385 C4386 1.392 . S
C4385 C4389 1.495 . S
C4386 C4385 1.392 . S
C4386 C4387 1.385 . S
C4386 C4388 1.478 . S
C4387 H4381 0.930 . S
C4387 C4383 1.400 . S
C4387 C4386 1.385 . S
C4388 C4386 1.478 . S
C4388 C4390 1.381 . S
C4388 C4394 1.383 . S
C4389 C4385 1.495 . S
C4389 H4395 0.959 . S
C4389 H4396 0.961 . S
C4389 H4397 0.960 . S
C4390 C4388 1.381 . S
C4390 C4391 1.394 . S
C4390 H4398 0.930 . S
C4391 C4390 1.394 . S
C4391 C4392 1.383 . S
C4391 H4399 0.929 . S
C4392 C4391 1.383 . S
C4392 C4393 1.377 . S
C4393 H4377 0.930 . S
C4393 C4392 1.377 . S
C4393 C4394 1.379 . S
C4394 H4378 0.931 . S
C4394 C4388 1.383 . S
C4394 C4393 1.379 . S
H4395 C4389 0.959 . S
H4396 C4389 0.961 . S
H4397 C4389 0.960 . S
H4398 C4390 0.930 . S
H4399 C4391 0.929 . S
H4400 C4408 0.929 . S
H4401 C4410 0.930 . S
H4402 C4412 0.930 . S
H4403 C4415 0.929 . S
H4404 C4418 0.930 . S
H4405 C4420 0.960 . S
H4406 C4420 0.960 . S
H4407 C4420 0.960 . S
C4408 H4400 0.929 . S
C4408 C4409 1.377 . S
C4408 C4410 1.384 . S
C4409 C4408 1.377 . S
C4409 C4415 1.390 . S
C4410 H4401 0.930 . S
C4410 C4408 1.384 . S
C4410 C4411 1.372 . S
C4411 C4410 1.372 . S
C4411 C4412 1.400 . S
C4411 C4416 1.490 . S
C4412 H4402 0.930 . S
C4412 C4411 1.400 . S
C4412 C4415 1.386 . S
H4413 C4429 0.930 . S
H4414 C4430 0.931 . S
C4415 H4403 0.929 . S
C4415 C4409 1.390 . S
C4415 C4412 1.386 . S
C4416 C4411 1.490 . S
C4416 C4418 1.395 . S
C4416 C4419 1.403 . S
H4417 C4423 0.930 . S
C4418 H4404 0.930 . S
C4418 C4416 1.395 . S
C4418 C4421 1.403 . S
C4419 C4416 1.403 . S
C4419 C4420 1.524 . S
C4419 C4423 1.400 . S
C4420 H4405 0.960 . S
C4420 H4406 0.960 . S
C4420 H4407 0.960 . S
C4420 C4419 1.524 . S
C4421 C4418 1.403 . S
C4421 C4422 1.392 . S
C4421 C4425 1.495 . S
C4422 C4421 1.392 . S
C4422 C4423 1.385 . S
C4422 C4424 1.478 . S
C4423 H4417 0.930 . S
C4423 C4419 1.400 . S
C4423 C4422 1.385 . S
C4424 C4422 1.478 . S
C4424 C4426 1.381 . S
C4424 C4430 1.383 . S
C4425 C4421 1.495 . S
C4425 H4431 0.959 . S
C4425 H4432 0.961 . S
C4425 H4433 0.960 . S
C4426 C4424 1.381 . S
C4426 C4427 1.394 . S
C4426 H4434 0.930 . S
C4427 C4426 1.394 . S
C4427 C4428 1.383 . S
C4427 H4435 0.929 . S
C4428 C4427 1.383 . S
C4428 C4429 1.377 . S
C4429 H4413 0.930 . S
C4429 C4428 1.377 . S
C4429 C4430 1.379 . S
C4430 H4414 0.931 . S
C4430 C4424 1.383 . S
C4430 C4429 1.379 . S
H4431 C4425 0.959 . S
H4432 C4425 0.961 . S
H4433 C4425 0.960 . S
H4434 C4426 0.930 . S
H4435 C4427 0.929 . S
H4436 C4444 0.929 . S
H4437 C4446 0.930 . S
H4438 C4448 0.930 . S
H4439 C4451 0.929 . S
H4440 C4454 0.930 . S
H4441 C4456 0.960 . S
H4442 C4456 0.960 . S
H4443 C4456 0.960 . S
C4444 H4436 0.929 . S
C4444 C4445 1.377 . S
C4444 C4446 1.384 . S
C4445 C4444 1.377 . S
C4445 C4451 1.390 . S
C4446 H4437 0.930 . S
C4446 C4444 1.384 . S
C4446 C4447 1.372 . S
C4447 C4446 1.372 . S
C4447 C4448 1.400 . S
C4447 C4452 1.490 . S
C4448 H4438 0.930 . S
C4448 C4447 1.400 . S
C4448 C4451 1.386 . S
H4449 C4465 0.930 . S
H4450 C4466 0.931 . S
C4451 H4439 0.929 . S
C4451 C4445 1.390 . S
C4451 C4448 1.386 . S
C4452 C4447 1.490 . S
C4452 C4454 1.395 . S
C4452 C4455 1.403 . S
H4453 C4459 0.930 . S
C4454 H4440 0.930 . S
C4454 C4452 1.395 . S
C4454 C4457 1.403 . S
C4455 C4452 1.403 . S
C4455 C4456 1.524 . S
C4455 C4459 1.400 . S
C4456 H4441 0.960 . S
C4456 H4442 0.960 . S
C4456 H4443 0.960 . S
C4456 C4455 1.524 . S
C4457 C4454 1.403 . S
C4457 C4458 1.392 . S
C4457 C4461 1.495 . S
C4458 C4457 1.392 . S
C4458 C4459 1.385 . S
C4458 C4460 1.478 . S
C4459 H4453 0.930 . S
C4459 C4455 1.400 . S
C4459 C4458 1.385 . S
C4460 C4458 1.478 . S
C4460 C4462 1.381 . S
C4460 C4466 1.383 . S
C4461 C4457 1.495 . S
C4461 H4467 0.959 . S
C4461 H4468 0.961 . S
C4461 H4469 0.960 . S
C4462 C4460 1.381 . S
C4462 C4463 1.394 . S
C4462 H4470 0.930 . S
C4463 C4462 1.394 . S
C4463 C4464 1.383 . S
C4463 H4471 0.929 . S
C4464 C4463 1.383 . S
C4464 C4465 1.377 . S
C4465 H4449 0.930 . S
C4465 C4464 1.377 . S
C4465 C4466 1.379 . S
C4466 H4450 0.931 . S
C4466 C4460 1.383 . S
C4466 C4465 1.379 . S
H4467 C4461 0.959 . S
H4468 C4461 0.961 . S
H4469 C4461 0.960 . S
H4470 C4462 0.930 . S
H4471 C4463 0.929 . S
H4472 C4480 0.929 . S
H4473 C4482 0.930 . S
H4474 C4484 0.930 . S
H4475 C4487 0.929 . S
H4476 C4490 0.930 . S
H4477 C4492 0.960 . S
H4478 C4492 0.960 . S
H4479 C4492 0.960 . S
C4480 H4472 0.929 . S
C4480 C4481 1.377 . S
C4480 C4482 1.384 . S
C4481 C4480 1.377 . S
C4481 C4487 1.390 . S
C4482 H4473 0.930 . S
C4482 C4480 1.384 . S
C4482 C4483 1.372 . S
C4483 C4482 1.372 . S
C4483 C4484 1.400 . S
C4483 C4488 1.490 . S
C4484 H4474 0.930 . S
C4484 C4483 1.400 . S
C4484 C4487 1.386 . S
H4485 C4501 0.930 . S
H4486 C4502 0.931 . S
C4487 H4475 0.929 . S
C4487 C4481 1.390 . S
C4487 C4484 1.386 . S
C4488 C4483 1.490 . S
C4488 C4490 1.395 . S
C4488 C4491 1.403 . S
H4489 C4495 0.930 . S
C4490 H4476 0.930 . S
C4490 C4488 1.395 . S
C4490 C4493 1.403 . S
C4491 C4488 1.403 . S
C4491 C4492 1.524 . S
C4491 C4495 1.400 . S
C4492 H4477 0.960 . S
C4492 H4478 0.960 . S
C4492 H4479 0.960 . S
C4492 C4491 1.524 . S
C4493 C4490 1.403 . S
C4493 C4494 1.392 . S
C4493 C4497 1.495 . S
C4494 C4493 1.392 . S
C4494 C4495 1.385 . S
C4494 C4496 1.478 . S
C4495 H4489 0.930 . S
C4495 C4491 1.400 . S
C4495 C4494 1.385 . S
C4496 C4494 1.478 . S
C4496 C4498 1.381 . S
C4496 C4502 1.383 . S
C4497 C4493 1.495 . S
C4497 H4503 0.959 . S
C4497 H4504 0.961 . S
C4497 H4505 0.960 . S
C4498 C4496 1.381 . S
C4498 C4499 1.394 . S
C4498 H4506 0.930 . S
C4499 C4498 1.394 . S
C4499 C4500 1.383 . S
C4499 H4507 0.929 . S
C4500 C4499 1.383 . S
C4500 C4501 1.377 . S
C4501 H4485 0.930 . S
C4501 C4500 1.377 . S
C4501 C4502 1.379 . S
C4502 H4486 0.931 . S
C4502 C4496 1.383 . S
C4502 C4501 1.379 . S
H4503 C4497 0.959 . S
H4504 C4497 0.961 . S
H4505 C4497 0.960 . S
H4506 C4498 0.930 . S
H4507 C4499 0.929 . S
H4508 C4516 0.929 . S
H4509 C4518 0.930 . S
H4510 C4520 0.930 . S
H4511 C4523 0.929 . S
H4512 C4526 0.930 . S
H4513 C4528 0.960 . S
H4514 C4528 0.960 . S
H4515 C4528 0.960 . S
C4516 H4508 0.929 . S
C4516 C4517 1.377 . S
C4516 C4518 1.384 . S
C4517 C4516 1.377 . S
C4517 C4523 1.390 . S
C4518 H4509 0.930 . S
C4518 C4516 1.384 . S
C4518 C4519 1.372 . S
C4519 C4518 1.372 . S
C4519 C4520 1.400 . S
C4519 C4524 1.490 . S
C4520 H4510 0.930 . S
C4520 C4519 1.400 . S
C4520 C4523 1.386 . S
H4521 C4537 0.930 . S
H4522 C4538 0.931 . S
C4523 H4511 0.929 . S
C4523 C4517 1.390 . S
C4523 C4520 1.386 . S
C4524 C4519 1.490 . S
C4524 C4526 1.395 . S
C4524 C4527 1.403 . S
H4525 C4531 0.930 . S
C4526 H4512 0.930 . S
C4526 C4524 1.395 . S
C4526 C4529 1.403 . S
C4527 C4524 1.403 . S
C4527 C4528 1.524 . S
C4527 C4531 1.400 . S
C4528 H4513 0.960 . S
C4528 H4514 0.960 . S
C4528 H4515 0.960 . S
C4528 C4527 1.524 . S
C4529 C4526 1.403 . S
C4529 C4530 1.392 . S
C4529 C4533 1.495 . S
C4530 C4529 1.392 . S
C4530 C4531 1.385 . S
C4530 C4532 1.478 . S
C4531 H4525 0.930 . S
C4531 C4527 1.400 . S
C4531 C4530 1.385 . S
C4532 C4530 1.478 . S
C4532 C4534 1.381 . S
C4532 C4538 1.383 . S
C4533 C4529 1.495 . S
C4533 H4539 0.959 . S
C4533 H4540 0.961 . S
C4533 H4541 0.960 . S
C4534 C4532 1.381 . S
C4534 C4535 1.394 . S
C4534 H4542 0.930 . S
C4535 C4534 1.394 . S
C4535 C4536 1.383 . S
C4535 H4543 0.929 . S
C4536 C4535 1.383 . S
C4536 C4537 1.377 . S
C4537 H4521 0.930 . S
C4537 C4536 1.377 . S
C4537 C4538 1.379 . S
C4538 H4522 0.931 . S
C4538 C4532 1.383 . S
C4538 C4537 1.379 . S
H4539 C4533 0.959 . S
H4540 C4533 0.961 . S
H4541 C4533 0.960 . S
H4542 C4534 0.930 . S
H4543 C4535 0.929 . S
H4544 C4552 0.929 . S
H4545 C4554 0.930 . S
H4546 C4556 0.930 . S
H4547 C4559 0.929 . S
H4548 C4562 0.930 . S
H4549 C4564 0.960 . S
H4550 C4564 0.960 . S
H4551 C4564 0.960 . S
C4552 H4544 0.929 . S
C4552 C4553 1.377 . S
C4552 C4554 1.384 . S
C4553 C4552 1.377 . S
C4553 C4559 1.390 . S
C4554 H4545 0.930 . S
C4554 C4552 1.384 . S
C4554 C4555 1.372 . S
C4555 C4554 1.372 . S
C4555 C4556 1.400 . S
C4555 C4560 1.490 . S
C4556 H4546 0.930 . S
C4556 C4555 1.400 . S
C4556 C4559 1.386 . S
H4557 C4573 0.930 . S
H4558 C4574 0.931 . S
C4559 H4547 0.929 . S
C4559 C4553 1.390 . S
C4559 C4556 1.386 . S
C4560 C4555 1.490 . S
C4560 C4562 1.395 . S
C4560 C4563 1.403 . S
H4561 C4567 0.930 . S
C4562 H4548 0.930 . S
C4562 C4560 1.395 . S
C4562 C4565 1.403 . S
C4563 C4560 1.403 . S
C4563 C4564 1.524 . S
C4563 C4567 1.400 . S
C4564 H4549 0.960 . S
C4564 H4550 0.960 . S
C4564 H4551 0.960 . S
C4564 C4563 1.524 . S
C4565 C4562 1.403 . S
C4565 C4566 1.392 . S
C4565 C4569 1.495 . S
C4566 C4565 1.392 . S
C4566 C4567 1.385 . S
C4566 C4568 1.478 . S
C4567 H4561 0.930 . S
C4567 C4563 1.400 . S
C4567 C4566 1.385 . S
C4568 C4566 1.478 . S
C4568 C4570 1.381 . S
C4568 C4574 1.383 . S
C4569 C4565 1.495 . S
C4569 H4575 0.959 . S
C4569 H4576 0.961 . S
C4569 H4577 0.960 . S
C4570 C4568 1.381 . S
C4570 C4571 1.394 . S
C4570 H4578 0.930 . S
C4571 C4570 1.394 . S
C4571 C4572 1.383 . S
C4571 H4579 0.929 . S
C4572 C4571 1.383 . S
C4572 C4573 1.377 . S
C4573 H4557 0.930 . S
C4573 C4572 1.377 . S
C4573 C4574 1.379 . S
C4574 H4558 0.931 . S
C4574 C4568 1.383 . S
C4574 C4573 1.379 . S
H4575 C4569 0.959 . S
H4576 C4569 0.961 . S
H4577 C4569 0.960 . S
H4578 C4570 0.930 . S
H4579 C4571 0.929 . S
H4580 C4588 0.929 . S
H4581 C4590 0.930 . S
H4582 C4592 0.930 . S
H4583 C4595 0.929 . S
H4584 C4598 0.930 . S
H4585 C4600 0.960 . S
H4586 C4600 0.960 . S
H4587 C4600 0.960 . S
C4588 H4580 0.929 . S
C4588 C4589 1.377 . S
C4588 C4590 1.384 . S
C4589 C4588 1.377 . S
C4589 C4595 1.390 . S
C4590 H4581 0.930 . S
C4590 C4588 1.384 . S
C4590 C4591 1.372 . S
C4591 C4590 1.372 . S
C4591 C4592 1.400 . S
C4591 C4596 1.490 . S
C4592 H4582 0.930 . S
C4592 C4591 1.400 . S
C4592 C4595 1.386 . S
H4593 C4609 0.930 . S
H4594 C4610 0.931 . S
C4595 H4583 0.929 . S
C4595 C4589 1.390 . S
C4595 C4592 1.386 . S
C4596 C4591 1.490 . S
C4596 C4598 1.395 . S
C4596 C4599 1.403 . S
H4597 C4603 0.930 . S
C4598 H4584 0.930 . S
C4598 C4596 1.395 . S
C4598 C4601 1.403 . S
C4599 C4596 1.403 . S
C4599 C4600 1.524 . S
C4599 C4603 1.400 . S
C4600 H4585 0.960 . S
C4600 H4586 0.960 . S
C4600 H4587 0.960 . S
C4600 C4599 1.524 . S
C4601 C4598 1.403 . S
C4601 C4602 1.392 . S
C4601 C4605 1.495 . S
C4602 C4601 1.392 . S
C4602 C4603 1.385 . S
C4602 C4604 1.478 . S
C4603 H4597 0.930 . S
C4603 C4599 1.400 . S
C4603 C4602 1.385 . S
C4604 C4602 1.478 . S
C4604 C4606 1.381 . S
C4604 C4610 1.383 . S
C4605 C4601 1.495 . S
C4605 H4611 0.959 . S
C4605 H4612 0.961 . S
C4605 H4613 0.960 . S
C4606 C4604 1.381 . S
C4606 C4607 1.394 . S
C4606 H4614 0.930 . S
C4607 C4606 1.394 . S
C4607 C4608 1.383 . S
C4607 H4615 0.929 . S
C4608 C4607 1.383 . S
C4608 C4609 1.377 . S
C4609 H4593 0.930 . S
C4609 C4608 1.377 . S
C4609 C4610 1.379 . S
C4610 H4594 0.931 . S
C4610 C4604 1.383 . S
C4610 C4609 1.379 . S
H4611 C4605 0.959 . S
H4612 C4605 0.961 . S
H4613 C4605 0.960 . S
H4614 C4606 0.930 . S
H4615 C4607 0.929 . S
H4616 C4624 0.929 . S
H4617 C4626 0.930 . S
H4618 C4628 0.930 . S
H4619 C4631 0.929 . S
H4620 C4634 0.930 . S
H4621 C4636 0.960 . S
H4622 C4636 0.960 . S
H4623 C4636 0.960 . S
C4624 H4616 0.929 . S
C4624 C4625 1.377 . S
C4624 C4626 1.384 . S
C4625 C4624 1.377 . S
C4625 C4631 1.390 . S
C4626 H4617 0.930 . S
C4626 C4624 1.384 . S
C4626 C4627 1.372 . S
C4627 C4626 1.372 . S
C4627 C4628 1.400 . S
C4627 C4632 1.490 . S
C4628 H4618 0.930 . S
C4628 C4627 1.400 . S
C4628 C4631 1.386 . S
H4629 C4645 0.930 . S
H4630 C4646 0.931 . S
C4631 H4619 0.929 . S
C4631 C4625 1.390 . S
C4631 C4628 1.386 . S
C4632 C4627 1.490 . S
C4632 C4634 1.395 . S
C4632 C4635 1.403 . S
H4633 C4639 0.930 . S
C4634 H4620 0.930 . S
C4634 C4632 1.395 . S
C4634 C4637 1.403 . S
C4635 C4632 1.403 . S
C4635 C4636 1.524 . S
C4635 C4639 1.400 . S
C4636 H4621 0.960 . S
C4636 H4622 0.960 . S
C4636 H4623 0.960 . S
C4636 C4635 1.524 . S
C4637 C4634 1.403 . S
C4637 C4638 1.392 . S
C4637 C4641 1.495 . S
C4638 C4637 1.392 . S
C4638 C4639 1.385 . S
C4638 C4640 1.478 . S
C4639 H4633 0.930 . S
C4639 C4635 1.400 . S
C4639 C4638 1.385 . S
C4640 C4638 1.478 . S
C4640 C4642 1.381 . S
C4640 C4646 1.383 . S
C4641 C4637 1.495 . S
C4641 H4647 0.959 . S
C4641 H4648 0.961 . S
C4641 H4649 0.960 . S
C4642 C4640 1.381 . S
C4642 C4643 1.394 . S
C4642 H4650 0.930 . S
C4643 C4642 1.394 . S
C4643 C4644 1.383 . S
C4643 H4651 0.929 . S
C4644 C4643 1.383 . S
C4644 C4645 1.377 . S
C4645 H4629 0.930 . S
C4645 C4644 1.377 . S
C4645 C4646 1.379 . S
C4646 H4630 0.931 . S
C4646 C4640 1.383 . S
C4646 C4645 1.379 . S
H4647 C4641 0.959 . S
H4648 C4641 0.961 . S
H4649 C4641 0.960 . S
H4650 C4642 0.930 . S
H4651 C4643 0.929 . S
H4652 C4660 0.929 . S
H4653 C4662 0.930 . S
H4654 C4664 0.930 . S
H4655 C4667 0.929 . S
H4656 C4670 0.930 . S
H4657 C4672 0.960 . S
H4658 C4672 0.960 . S
H4659 C4672 0.960 . S
C4660 H4652 0.929 . S
C4660 C4661 1.377 . S
C4660 C4662 1.384 . S
C4661 C4660 1.377 . S
C4661 C4667 1.390 . S
C4662 H4653 0.930 . S
C4662 C4660 1.384 . S
C4662 C4663 1.372 . S
C4663 C4662 1.372 . S
C4663 C4664 1.400 . S
C4663 C4668 1.490 . S
C4664 H4654 0.930 . S
C4664 C4663 1.400 . S
C4664 C4667 1.386 . S
H4665 C4681 0.930 . S
H4666 C4682 0.931 . S
C4667 H4655 0.929 . S
C4667 C4661 1.390 . S
C4667 C4664 1.386 . S
C4668 C4663 1.490 . S
C4668 C4670 1.395 . S
C4668 C4671 1.403 . S
H4669 C4675 0.930 . S
C4670 H4656 0.930 . S
C4670 C4668 1.395 . S
C4670 C4673 1.403 . S
C4671 C4668 1.403 . S
C4671 C4672 1.524 . S
C4671 C4675 1.400 . S
C4672 H4657 0.960 . S
C4672 H4658 0.960 . S
C4672 H4659 0.960 . S
C4672 C4671 1.524 . S
C4673 C4670 1.403 . S
C4673 C4674 1.392 . S
C4673 C4677 1.495 . S
C4674 C4673 1.392 . S
C4674 C4675 1.385 . S
C4674 C4676 1.478 . S
C4675 H4669 0.930 . S
C4675 C4671 1.400 . S
C4675 C4674 1.385 . S
C4676 C4674 1.478 . S
C4676 C4678 1.381 . S
C4676 C4682 1.383 . S
C4677 C4673 1.495 . S
C4677 H4683 0.959 . S
C4677 H4684 0.961 . S
C4677 H4685 0.960 . S
C4678 C4676 1.381 . S
C4678 C4679 1.394 . S
C4678 H4686 0.930 . S
C4679 C4678 1.394 . S
C4679 C4680 1.383 . S
C4679 H4687 0.929 . S
C4680 C4679 1.383 . S
C4680 C4681 1.377 . S
C4681 H4665 0.930 . S
C4681 C4680 1.377 . S
C4681 C4682 1.379 . S
C4682 H4666 0.931 . S
C4682 C4676 1.383 . S
C4682 C4681 1.379 . S
H4683 C4677 0.959 . S
H4684 C4677 0.961 . S
H4685 C4677 0.960 . S
H4686 C4678 0.930 . S
H4687 C4679 0.929 . S
H4688 C4696 0.929 . S
H4689 C4698 0.930 . S
H4690 C4700 0.930 . S
H4691 C4703 0.929 . S
H4692 C4706 0.930 . S
H4693 C4708 0.960 . S
H4694 C4708 0.960 . S
H4695 C4708 0.960 . S
C4696 H4688 0.929 . S
C4696 C4697 1.377 . S
C4696 C4698 1.384 . S
C4697 C4696 1.377 . S
C4697 C4703 1.390 . S
C4698 H4689 0.930 . S
C4698 C4696 1.384 . S
C4698 C4699 1.372 . S
C4699 C4698 1.372 . S
C4699 C4700 1.400 . S
C4699 C4704 1.490 . S
C4700 H4690 0.930 . S
C4700 C4699 1.400 . S
C4700 C4703 1.386 . S
H4701 C4717 0.930 . S
H4702 C4718 0.931 . S
C4703 H4691 0.929 . S
C4703 C4697 1.390 . S
C4703 C4700 1.386 . S
C4704 C4699 1.490 . S
C4704 C4706 1.395 . S
C4704 C4707 1.403 . S
H4705 C4711 0.930 . S
C4706 H4692 0.930 . S
C4706 C4704 1.395 . S
C4706 C4709 1.403 . S
C4707 C4704 1.403 . S
C4707 C4708 1.524 . S
C4707 C4711 1.400 . S
C4708 H4693 0.960 . S
C4708 H4694 0.960 . S
C4708 H4695 0.960 . S
C4708 C4707 1.524 . S
C4709 C4706 1.403 . S
C4709 C4710 1.392 . S
C4709 C4713 1.495 . S
C4710 C4709 1.392 . S
C4710 C4711 1.385 . S
C4710 C4712 1.478 . S
C4711 H4705 0.930 . S
C4711 C4707 1.400 . S
C4711 C4710 1.385 . S
C4712 C4710 1.478 . S
C4712 C4714 1.381 . S
C4712 C4718 1.383 . S
C4713 C4709 1.495 . S
C4713 H4719 0.959 . S
C4713 H4720 0.961 . S
C4713 H4721 0.960 . S
C4714 C4712 1.381 . S
C4714 C4715 1.394 . S
C4714 H4722 0.930 . S
C4715 C4714 1.394 . S
C4715 C4716 1.383 . S
C4715 H4723 0.929 . S
C4716 C4715 1.383 . S
C4716 C4717 1.377 . S
C4717 H4701 0.930 . S
C4717 C4716 1.377 . S
C4717 C4718 1.379 . S
C4718 H4702 0.931 . S
C4718 C4712 1.383 . S
C4718 C4717 1.379 . S
H4719 C4713 0.959 . S
H4720 C4713 0.961 . S
H4721 C4713 0.960 . S
H4722 C4714 0.930 . S
H4723 C4715 0.929 . S
H4724 C4732 0.929 . S
H4725 C4734 0.930 . S
H4726 C4736 0.930 . S
H4727 C4739 0.929 . S
H4728 C4742 0.930 . S
H4729 C4744 0.960 . S
H4730 C4744 0.960 . S
H4731 C4744 0.960 . S
C4732 H4724 0.929 . S
C4732 C4733 1.377 . S
C4732 C4734 1.384 . S
C4733 C4732 1.377 . S
C4733 C4739 1.390 . S
C4734 H4725 0.930 . S
C4734 C4732 1.384 . S
C4734 C4735 1.372 . S
C4735 C4734 1.372 . S
C4735 C4736 1.400 . S
C4735 C4740 1.490 . S
C4736 H4726 0.930 . S
C4736 C4735 1.400 . S
C4736 C4739 1.386 . S
H4737 C4753 0.930 . S
H4738 C4754 0.931 . S
C4739 H4727 0.929 . S
C4739 C4733 1.390 . S
C4739 C4736 1.386 . S
C4740 C4735 1.490 . S
C4740 C4742 1.395 . S
C4740 C4743 1.403 . S
H4741 C4747 0.930 . S
C4742 H4728 0.930 . S
C4742 C4740 1.395 . S
C4742 C4745 1.403 . S
C4743 C4740 1.403 . S
C4743 C4744 1.524 . S
C4743 C4747 1.400 . S
C4744 H4729 0.960 . S
C4744 H4730 0.960 . S
C4744 H4731 0.960 . S
C4744 C4743 1.524 . S
C4745 C4742 1.403 . S
C4745 C4746 1.392 . S
C4745 C4749 1.495 . S
C4746 C4745 1.392 . S
C4746 C4747 1.385 . S
C4746 C4748 1.478 . S
C4747 H4741 0.930 . S
C4747 C4743 1.400 . S
C4747 C4746 1.385 . S
C4748 C4746 1.478 . S
C4748 C4750 1.381 . S
C4748 C4754 1.383 . S
C4749 C4745 1.495 . S
C4749 H4755 0.959 . S
C4749 H4756 0.961 . S
C4749 H4757 0.960 . S
C4750 C4748 1.381 . S
C4750 C4751 1.394 . S
C4750 H4758 0.930 . S
C4751 C4750 1.394 . S
C4751 C4752 1.383 . S
C4751 H4759 0.929 . S
C4752 C4751 1.383 . S
C4752 C4753 1.377 . S
C4753 H4737 0.930 . S
C4753 C4752 1.377 . S
C4753 C4754 1.379 . S
C4754 H4738 0.931 . S
C4754 C4748 1.383 . S
C4754 C4753 1.379 . S
H4755 C4749 0.959 . S
H4756 C4749 0.961 . S
H4757 C4749 0.960 . S
H4758 C4750 0.930 . S
H4759 C4751 0.929 . S
H4760 C4768 0.929 . S
H4761 C4770 0.930 . S
H4762 C4772 0.930 . S
H4763 C4775 0.929 . S
H4764 C4778 0.930 . S
H4765 C4780 0.960 . S
H4766 C4780 0.960 . S
H4767 C4780 0.960 . S
C4768 H4760 0.929 . S
C4768 C4769 1.377 . S
C4768 C4770 1.384 . S
C4769 C4768 1.377 . S
C4769 C4775 1.390 . S
C4770 H4761 0.930 . S
C4770 C4768 1.384 . S
C4770 C4771 1.372 . S
C4771 C4770 1.372 . S
C4771 C4772 1.400 . S
C4771 C4776 1.490 . S
C4772 H4762 0.930 . S
C4772 C4771 1.400 . S
C4772 C4775 1.386 . S
H4773 C4789 0.930 . S
H4774 C4790 0.931 . S
C4775 H4763 0.929 . S
C4775 C4769 1.390 . S
C4775 C4772 1.386 . S
C4776 C4771 1.490 . S
C4776 C4778 1.395 . S
C4776 C4779 1.403 . S
H4777 C4783 0.930 . S
C4778 H4764 0.930 . S
C4778 C4776 1.395 . S
C4778 C4781 1.403 . S
C4779 C4776 1.403 . S
C4779 C4780 1.524 . S
C4779 C4783 1.400 . S
C4780 H4765 0.960 . S
C4780 H4766 0.960 . S
C4780 H4767 0.960 . S
C4780 C4779 1.524 . S
C4781 C4778 1.403 . S
C4781 C4782 1.392 . S
C4781 C4785 1.495 . S
C4782 C4781 1.392 . S
C4782 C4783 1.385 . S
C4782 C4784 1.478 . S
C4783 H4777 0.930 . S
C4783 C4779 1.400 . S
C4783 C4782 1.385 . S
C4784 C4782 1.478 . S
C4784 C4786 1.381 . S
C4784 C4790 1.383 . S
C4785 C4781 1.495 . S
C4785 H4791 0.959 . S
C4785 H4792 0.961 . S
C4785 H4793 0.960 . S
C4786 C4784 1.381 . S
C4786 C4787 1.394 . S
C4786 H4794 0.930 . S
C4787 C4786 1.394 . S
C4787 C4788 1.383 . S
C4787 H4795 0.929 . S
C4788 C4787 1.383 . S
C4788 C4789 1.377 . S
C4789 H4773 0.930 . S
C4789 C4788 1.377 . S
C4789 C4790 1.379 . S
C4790 H4774 0.931 . S
C4790 C4784 1.383 . S
C4790 C4789 1.379 . S
H4791 C4785 0.959 . S
H4792 C4785 0.961 . S
H4793 C4785 0.960 . S
H4794 C4786 0.930 . S
H4795 C4787 0.929 . S
H4796 C4804 0.929 . S
H4797 C4806 0.930 . S
H4798 C4808 0.930 . S
H4799 C4811 0.929 . S
H4800 C4814 0.930 . S
H4801 C4816 0.960 . S
H4802 C4816 0.960 . S
H4803 C4816 0.960 . S
C4804 H4796 0.929 . S
C4804 C4805 1.377 . S
C4804 C4806 1.384 . S
C4805 C4804 1.377 . S
C4805 C4811 1.390 . S
C4806 H4797 0.930 . S
C4806 C4804 1.384 . S
C4806 C4807 1.372 . S
C4807 C4806 1.372 . S
C4807 C4808 1.400 . S
C4807 C4812 1.490 . S
C4808 H4798 0.930 . S
C4808 C4807 1.400 . S
C4808 C4811 1.386 . S
H4809 C4825 0.930 . S
H4810 C4826 0.931 . S
C4811 H4799 0.929 . S
C4811 C4805 1.390 . S
C4811 C4808 1.386 . S
C4812 C4807 1.490 . S
C4812 C4814 1.395 . S
C4812 C4815 1.403 . S
H4813 C4819 0.930 . S
C4814 H4800 0.930 . S
C4814 C4812 1.395 . S
C4814 C4817 1.403 . S
C4815 C4812 1.403 . S
C4815 C4816 1.524 . S
C4815 C4819 1.400 . S
C4816 H4801 0.960 . S
C4816 H4802 0.960 . S
C4816 H4803 0.960 . S
C4816 C4815 1.524 . S
C4817 C4814 1.403 . S
C4817 C4818 1.392 . S
C4817 C4821 1.495 . S
C4818 C4817 1.392 . S
C4818 C4819 1.385 . S
C4818 C4820 1.478 . S
C4819 H4813 0.930 . S
C4819 C4815 1.400 . S
C4819 C4818 1.385 . S
C4820 C4818 1.478 . S
C4820 C4822 1.381 . S
C4820 C4826 1.383 . S
C4821 C4817 1.495 . S
C4821 H4827 0.959 . S
C4821 H4828 0.961 . S
C4821 H4829 0.960 . S
C4822 C4820 1.381 . S
C4822 C4823 1.394 . S
C4822 H4830 0.930 . S
C4823 C4822 1.394 . S
C4823 C4824 1.383 . S
C4823 H4831 0.929 . S
C4824 C4823 1.383 . S
C4824 C4825 1.377 . S
C4825 H4809 0.930 . S
C4825 C4824 1.377 . S
C4825 C4826 1.379 . S
C4826 H4810 0.931 . S
C4826 C4820 1.383 . S
C4826 C4825 1.379 . S
H4827 C4821 0.959 . S
H4828 C4821 0.961 . S
H4829 C4821 0.960 . S
H4830 C4822 0.930 . S
H4831 C4823 0.929 . S
H4832 C4840 0.929 . S
H4833 C4842 0.930 . S
H4834 C4844 0.930 . S
H4835 C4847 0.929 . S
H4836 C4850 0.930 . S
H4837 C4852 0.960 . S
H4838 C4852 0.960 . S
H4839 C4852 0.960 . S
C4840 H4832 0.929 . S
C4840 C4841 1.377 . S
C4840 C4842 1.384 . S
C4841 C4840 1.377 . S
C4841 C4847 1.390 . S
C4842 H4833 0.930 . S
C4842 C4840 1.384 . S
C4842 C4843 1.372 . S
C4843 C4842 1.372 . S
C4843 C4844 1.400 . S
C4843 C4848 1.490 . S
C4844 H4834 0.930 . S
C4844 C4843 1.400 . S
C4844 C4847 1.386 . S
H4845 C4861 0.930 . S
H4846 C4862 0.931 . S
C4847 H4835 0.929 . S
C4847 C4841 1.390 . S
C4847 C4844 1.386 . S
C4848 C4843 1.490 . S
C4848 C4850 1.395 . S
C4848 C4851 1.403 . S
H4849 C4855 0.930 . S
C4850 H4836 0.930 . S
C4850 C4848 1.395 . S
C4850 C4853 1.403 . S
C4851 C4848 1.403 . S
C4851 C4852 1.524 . S
C4851 C4855 1.400 . S
C4852 H4837 0.960 . S
C4852 H4838 0.960 . S
C4852 H4839 0.960 . S
C4852 C4851 1.524 . S
C4853 C4850 1.403 . S
C4853 C4854 1.392 . S
C4853 C4857 1.495 . S
C4854 C4853 1.392 . S
C4854 C4855 1.385 . S
C4854 C4856 1.478 . S
C4855 H4849 0.930 . S
C4855 C4851 1.400 . S
C4855 C4854 1.385 . S
C4856 C4854 1.478 . S
C4856 C4858 1.381 . S
C4856 C4862 1.383 . S
C4857 C4853 1.495 . S
C4857 H4863 0.959 . S
C4857 H4864 0.961 . S
C4857 H4865 0.960 . S
C4858 C4856 1.381 . S
C4858 C4859 1.394 . S
C4858 H4866 0.930 . S
C4859 C4858 1.394 . S
C4859 C4860 1.383 . S
C4859 H4867 0.929 . S
C4860 C4859 1.383 . S
C4860 C4861 1.377 . S
C4861 H4845 0.930 . S
C4861 C4860 1.377 . S
C4861 C4862 1.379 . S
C4862 H4846 0.931 . S
C4862 C4856 1.383 . S
C4862 C4861 1.379 . S
H4863 C4857 0.959 . S
H4864 C4857 0.961 . S
H4865 C4857 0.960 . S
H4866 C4858 0.930 . S
H4867 C4859 0.929 . S
H4868 C4876 0.929 . S
H4869 C4878 0.930 . S
H4870 C4880 0.930 . S
H4871 C4883 0.929 . S
H4872 C4886 0.930 . S
H4873 C4888 0.960 . S
H4874 C4888 0.960 . S
H4875 C4888 0.960 . S
C4876 H4868 0.929 . S
C4876 C4877 1.377 . S
C4876 C4878 1.384 . S
C4877 C4876 1.377 . S
C4877 C4883 1.390 . S
C4878 H4869 0.930 . S
C4878 C4876 1.384 . S
C4878 C4879 1.372 . S
C4879 C4878 1.372 . S
C4879 C4880 1.400 . S
C4879 C4884 1.490 . S
C4880 H4870 0.930 . S
C4880 C4879 1.400 . S
C4880 C4883 1.386 . S
H4881 C4897 0.930 . S
H4882 C4898 0.931 . S
C4883 H4871 0.929 . S
C4883 C4877 1.390 . S
C4883 C4880 1.386 . S
C4884 C4879 1.490 . S
C4884 C4886 1.395 . S
C4884 C4887 1.403 . S
H4885 C4891 0.930 . S
C4886 H4872 0.930 . S
C4886 C4884 1.395 . S
C4886 C4889 1.403 . S
C4887 C4884 1.403 . S
C4887 C4888 1.524 . S
C4887 C4891 1.400 . S
C4888 H4873 0.960 . S
C4888 H4874 0.960 . S
C4888 H4875 0.960 . S
C4888 C4887 1.524 . S
C4889 C4886 1.403 . S
C4889 C4890 1.392 . S
C4889 C4893 1.495 . S
C4890 C4889 1.392 . S
C4890 C4891 1.385 . S
C4890 C4892 1.478 . S
C4891 H4885 0.930 . S
C4891 C4887 1.400 . S
C4891 C4890 1.385 . S
C4892 C4890 1.478 . S
C4892 C4894 1.381 . S
C4892 C4898 1.383 . S
C4893 C4889 1.495 . S
C4893 H4899 0.959 . S
C4893 H4900 0.961 . S
C4893 H4901 0.960 . S
C4894 C4892 1.381 . S
C4894 C4895 1.394 . S
C4894 H4902 0.930 . S
C4895 C4894 1.394 . S
C4895 C4896 1.383 . S
C4895 H4903 0.929 . S
C4896 C4895 1.383 . S
C4896 C4897 1.377 . S
C4897 H4881 0.930 . S
C4897 C4896 1.377 . S
C4897 C4898 1.379 . S
C4898 H4882 0.931 . S
C4898 C4892 1.383 . S
C4898 C4897 1.379 . S
H4899 C4893 0.959 . S
H4900 C4893 0.961 . S
H4901 C4893 0.960 . S
H4902 C4894 0.930 . S
H4903 C4895 0.929 . S
H4904 C4912 0.929 . S
H4905 C4914 0.930 . S
H4906 C4916 0.930 . S
H4907 C4919 0.929 . S
H4908 C4922 0.930 . S
H4909 C4924 0.960 . S
H4910 C4924 0.960 . S
H4911 C4924 0.960 . S
C4912 H4904 0.929 . S
C4912 C4913 1.377 . S
C4912 C4914 1.384 . S
C4913 C4912 1.377 . S
C4913 C4919 1.390 . S
C4914 H4905 0.930 . S
C4914 C4912 1.384 . S
C4914 C4915 1.372 . S
C4915 C4914 1.372 . S
C4915 C4916 1.400 . S
C4915 C4920 1.490 . S
C4916 H4906 0.930 . S
C4916 C4915 1.400 . S
C4916 C4919 1.386 . S
H4917 C4933 0.930 . S
H4918 C4934 0.931 . S
C4919 H4907 0.929 . S
C4919 C4913 1.390 . S
C4919 C4916 1.386 . S
C4920 C4915 1.490 . S
C4920 C4922 1.395 . S
C4920 C4923 1.403 . S
H4921 C4927 0.930 . S
C4922 H4908 0.930 . S
C4922 C4920 1.395 . S
C4922 C4925 1.403 . S
C4923 C4920 1.403 . S
C4923 C4924 1.524 . S
C4923 C4927 1.400 . S
C4924 H4909 0.960 . S
C4924 H4910 0.960 . S
C4924 H4911 0.960 . S
C4924 C4923 1.524 . S
C4925 C4922 1.403 . S
C4925 C4926 1.392 . S
C4925 C4929 1.495 . S
C4926 C4925 1.392 . S
C4926 C4927 1.385 . S
C4926 C4928 1.478 . S
C4927 H4921 0.930 . S
C4927 C4923 1.400 . S
C4927 C4926 1.385 . S
C4928 C4926 1.478 . S
C4928 C4930 1.381 . S
C4928 C4934 1.383 . S
C4929 C4925 1.495 . S
C4929 H4935 0.959 . S
C4929 H4936 0.961 . S
C4929 H4937 0.960 . S
C4930 C4928 1.381 . S
C4930 C4931 1.394 . S
C4930 H4938 0.930 . S
C4931 C4930 1.394 . S
C4931 C4932 1.383 . S
C4931 H4939 0.929 . S
C4932 C4931 1.383 . S
C4932 C4933 1.377 . S
C4933 H4917 0.930 . S
C4933 C4932 1.377 . S
C4933 C4934 1.379 . S
C4934 H4918 0.931 . S
C4934 C4928 1.383 . S
C4934 C4933 1.379 . S
H4935 C4929 0.959 . S
H4936 C4929 0.961 . S
H4937 C4929 0.960 . S
H4938 C4930 0.930 . S
H4939 C4931 0.929 . S
H4940 C4948 0.929 . S
H4941 C4950 0.930 . S
H4942 C4952 0.930 . S
H4943 C4955 0.929 . S
H4944 C4958 0.930 . S
H4945 C4960 0.960 . S
H4946 C4960 0.960 . S
H4947 C4960 0.960 . S
C4948 H4940 0.929 . S
C4948 C4949 1.377 . S
C4948 C4950 1.384 . S
C4949 C4948 1.377 . S
C4949 C4955 1.390 . S
C4950 H4941 0.930 . S
C4950 C4948 1.384 . S
C4950 C4951 1.372 . S
C4951 C4950 1.372 . S
C4951 C4952 1.400 . S
C4951 C4956 1.490 . S
C4952 H4942 0.930 . S
C4952 C4951 1.400 . S
C4952 C4955 1.386 . S
H4953 C4969 0.930 . S
H4954 C4970 0.931 . S
C4955 H4943 0.929 . S
C4955 C4949 1.390 . S
C4955 C4952 1.386 . S
C4956 C4951 1.490 . S
C4956 C4958 1.395 . S
C4956 C4959 1.403 . S
H4957 C4963 0.930 . S
C4958 H4944 0.930 . S
C4958 C4956 1.395 . S
C4958 C4961 1.403 . S
C4959 C4956 1.403 . S
C4959 C4960 1.524 . S
C4959 C4963 1.400 . S
C4960 H4945 0.960 . S
C4960 H4946 0.960 . S
C4960 H4947 0.960 . S
C4960 C4959 1.524 . S
C4961 C4958 1.403 . S
C4961 C4962 1.392 . S
C4961 C4965 1.495 . S
C4962 C4961 1.392 . S
C4962 C4963 1.385 . S
C4962 C4964 1.478 . S
C4963 H4957 0.930 . S
C4963 C4959 1.400 . S
C4963 C4962 1.385 . S
C4964 C4962 1.478 . S
C4964 C4966 1.381 . S
C4964 C4970 1.383 . S
C4965 C4961 1.495 . S
C4965 H4971 0.959 . S
C4965 H4972 0.961 . S
C4965 H4973 0.960 . S
C4966 C4964 1.381 . S
C4966 C4967 1.394 . S
C4966 H4974 0.930 . S
C4967 C4966 1.394 . S
C4967 C4968 1.383 . S
C4967 H4975 0.929 . S
C4968 C4967 1.383 . S
C4968 C4969 1.377 . S
C4969 H4953 0.930 . S
C4969 C4968 1.377 . S
C4969 C4970 1.379 . S
C4970 H4954 0.931 . S
C4970 C4964 1.383 . S
C4970 C4969 1.379 . S
H4971 C4965 0.959 . S
H4972 C4965 0.961 . S
H4973 C4965 0.960 . S
H4974 C4966 0.930 . S
H4975 C4967 0.929 . S
H4976 C4984 0.929 . S
H4977 C4986 0.930 . S
H4978 C4988 0.930 . S
H4979 C4991 0.929 . S
H4980 C4994 0.930 . S
H4981 C4996 0.960 . S
H4982 C4996 0.960 . S
H4983 C4996 0.960 . S
C4984 H4976 0.929 . S
C4984 C4985 1.377 . S
C4984 C4986 1.384 . S
C4985 C4984 1.377 . S
C4985 C4991 1.390 . S
C4986 H4977 0.930 . S
C4986 C4984 1.384 . S
C4986 C4987 1.372 . S
C4987 C4986 1.372 . S
C4987 C4988 1.400 . S
C4987 C4992 1.490 . S
C4988 H4978 0.930 . S
C4988 C4987 1.400 . S
C4988 C4991 1.386 . S
H4989 C5005 0.930 . S
H4990 C5006 0.931 . S
C4991 H4979 0.929 . S
C4991 C4985 1.390 . S
C4991 C4988 1.386 . S
C4992 C4987 1.490 . S
C4992 C4994 1.395 . S
C4992 C4995 1.403 . S
H4993 C4999 0.930 . S
C4994 H4980 0.930 . S
C4994 C4992 1.395 . S
C4994 C4997 1.403 . S
C4995 C4992 1.403 . S
C4995 C4996 1.524 . S
C4995 C4999 1.400 . S
C4996 H4981 0.960 . S
C4996 H4982 0.960 . S
C4996 H4983 0.960 . S
C4996 C4995 1.524 . S
C4997 C4994 1.403 . S
C4997 C4998 1.392 . S
C4997 C5001 1.495 . S
C4998 C4997 1.392 . S
C4998 C4999 1.385 . S
C4998 C5000 1.478 . S
C4999 H4993 0.930 . S
C4999 C4995 1.400 . S
C4999 C4998 1.385 . S
C5000 C4998 1.478 . S
C5000 C5002 1.381 . S
C5000 C5006 1.383 . S
C5001 C4997 1.495 . S
C5001 H5007 0.959 . S
C5001 H5008 0.961 . S
C5001 H5009 0.960 . S
C5002 C5000 1.381 . S
C5002 C5003 1.394 . S
C5002 H5010 0.930 . S
C5003 C5002 1.394 . S
C5003 C5004 1.383 . S
C5003 H5011 0.929 . S
C5004 C5003 1.383 . S
C5004 C5005 1.377 . S
C5005 H4989 0.930 . S
C5005 C5004 1.377 . S
C5005 C5006 1.379 . S
C5006 H4990 0.931 . S
C5006 C5000 1.383 . S
C5006 C5005 1.379 . S
H5007 C5001 0.959 . S
H5008 C5001 0.961 . S
H5009 C5001 0.960 . S
H5010 C5002 0.930 . S
H5011 C5003 0.929 . S
H5012 C5020 0.929 . S
H5013 C5022 0.930 . S
H5014 C5024 0.930 . S
H5015 C5027 0.929 . S
H5016 C5030 0.930 . S
H5017 C5032 0.960 . S
H5018 C5032 0.960 . S
H5019 C5032 0.960 . S
C5020 H5012 0.929 . S
C5020 C5021 1.377 . S
C5020 C5022 1.384 . S
C5021 C5020 1.377 . S
C5021 C5027 1.390 . S
C5022 H5013 0.930 . S
C5022 C5020 1.384 . S
C5022 C5023 1.372 . S
C5023 C5022 1.372 . S
C5023 C5024 1.400 . S
C5023 C5028 1.490 . S
C5024 H5014 0.930 . S
C5024 C5023 1.400 . S
C5024 C5027 1.386 . S
H5025 C5041 0.930 . S
H5026 C5042 0.931 . S
C5027 H5015 0.929 . S
C5027 C5021 1.390 . S
C5027 C5024 1.386 . S
C5028 C5023 1.490 . S
C5028 C5030 1.395 . S
C5028 C5031 1.403 . S
H5029 C5035 0.930 . S
C5030 H5016 0.930 . S
C5030 C5028 1.395 . S
C5030 C5033 1.403 . S
C5031 C5028 1.403 . S
C5031 C5032 1.524 . S
C5031 C5035 1.400 . S
C5032 H5017 0.960 . S
C5032 H5018 0.960 . S
C5032 H5019 0.960 . S
C5032 C5031 1.524 . S
C5033 C5030 1.403 . S
C5033 C5034 1.392 . S
C5033 C5037 1.495 . S
C5034 C5033 1.392 . S
C5034 C5035 1.385 . S
C5034 C5036 1.478 . S
C5035 H5029 0.930 . S
C5035 C5031 1.400 . S
C5035 C5034 1.385 . S
C5036 C5034 1.478 . S
C5036 C5038 1.381 . S
C5036 C5042 1.383 . S
C5037 C5033 1.495 . S
C5037 H5043 0.959 . S
C5037 H5044 0.961 . S
C5037 H5045 0.960 . S
C5038 C5036 1.381 . S
C5038 C5039 1.394 . S
C5038 H5046 0.930 . S
C5039 C5038 1.394 . S
C5039 C5040 1.383 . S
C5039 H5047 0.929 . S
C5040 C5039 1.383 . S
C5040 C5041 1.377 . S
C5041 H5025 0.930 . S
C5041 C5040 1.377 . S
C5041 C5042 1.379 . S
C5042 H5026 0.931 . S
C5042 C5036 1.383 . S
C5042 C5041 1.379 . S
H5043 C5037 0.959 . S
H5044 C5037 0.961 . S
H5045 C5037 0.960 . S
H5046 C5038 0.930 . S
H5047 C5039 0.929 . S
H5048 C5056 0.929 . S
H5049 C5058 0.930 . S
H5050 C5060 0.930 . S
H5051 C5063 0.929 . S
H5052 C5066 0.930 . S
H5053 C5068 0.960 . S
H5054 C5068 0.960 . S
H5055 C5068 0.960 . S
C5056 H5048 0.929 . S
C5056 C5057 1.377 . S
C5056 C5058 1.384 . S
C5057 C5056 1.377 . S
C5057 C5063 1.390 . S
C5058 H5049 0.930 . S
C5058 C5056 1.384 . S
C5058 C5059 1.372 . S
C5059 C5058 1.372 . S
C5059 C5060 1.400 . S
C5059 C5064 1.490 . S
C5060 H5050 0.930 . S
C5060 C5059 1.400 . S
C5060 C5063 1.386 . S
H5061 C5077 0.930 . S
H5062 C5078 0.931 . S
C5063 H5051 0.929 . S
C5063 C5057 1.390 . S
C5063 C5060 1.386 . S
C5064 C5059 1.490 . S
C5064 C5066 1.395 . S
C5064 C5067 1.403 . S
H5065 C5071 0.930 . S
C5066 H5052 0.930 . S
C5066 C5064 1.395 . S
C5066 C5069 1.403 . S
C5067 C5064 1.403 . S
C5067 C5068 1.524 . S
C5067 C5071 1.400 . S
C5068 H5053 0.960 . S
C5068 H5054 0.960 . S
C5068 H5055 0.960 . S
C5068 C5067 1.524 . S
C5069 C5066 1.403 . S
C5069 C5070 1.392 . S
C5069 C5073 1.495 . S
C5070 C5069 1.392 . S
C5070 C5071 1.385 . S
C5070 C5072 1.478 . S
C5071 H5065 0.930 . S
C5071 C5067 1.400 . S
C5071 C5070 1.385 . S
C5072 C5070 1.478 . S
C5072 C5074 1.381 . S
C5072 C5078 1.383 . S
C5073 C5069 1.495 . S
C5073 H5079 0.959 . S
C5073 H5080 0.961 . S
C5073 H5081 0.960 . S
C5074 C5072 1.381 . S
C5074 C5075 1.394 . S
C5074 H5082 0.930 . S
C5075 C5074 1.394 . S
C5075 C5076 1.383 . S
C5075 H5083 0.929 . S
C5076 C5075 1.383 . S
C5076 C5077 1.377 . S
C5077 H5061 0.930 . S
C5077 C5076 1.377 . S
C5077 C5078 1.379 . S
C5078 H5062 0.931 . S
C5078 C5072 1.383 . S
C5078 C5077 1.379 . S
H5079 C5073 0.959 . S
H5080 C5073 0.961 . S
H5081 C5073 0.960 . S
H5082 C5074 0.930 . S
H5083 C5075 0.929 . S
H5084 C5092 0.929 . S
H5085 C5094 0.930 . S
H5086 C5096 0.930 . S
H5087 C5099 0.929 . S
H5088 C5102 0.930 . S
H5089 C5104 0.960 . S
H5090 C5104 0.960 . S
H5091 C5104 0.960 . S
C5092 H5084 0.929 . S
C5092 C5093 1.377 . S
C5092 C5094 1.384 . S
C5093 C5092 1.377 . S
C5093 C5099 1.390 . S
C5094 H5085 0.930 . S
C5094 C5092 1.384 . S
C5094 C5095 1.372 . S
C5095 C5094 1.372 . S
C5095 C5096 1.400 . S
C5095 C5100 1.490 . S
C5096 H5086 0.930 . S
C5096 C5095 1.400 . S
C5096 C5099 1.386 . S
H5097 C5113 0.930 . S
H5098 C5114 0.931 . S
C5099 H5087 0.929 . S
C5099 C5093 1.390 . S
C5099 C5096 1.386 . S
C5100 C5095 1.490 . S
C5100 C5102 1.395 . S
C5100 C5103 1.403 . S
H5101 C5107 0.930 . S
C5102 H5088 0.930 . S
C5102 C5100 1.395 . S
C5102 C5105 1.403 . S
C5103 C5100 1.403 . S
C5103 C5104 1.524 . S
C5103 C5107 1.400 . S
C5104 H5089 0.960 . S
C5104 H5090 0.960 . S
C5104 H5091 0.960 . S
C5104 C5103 1.524 . S
C5105 C5102 1.403 . S
C5105 C5106 1.392 . S
C5105 C5109 1.495 . S
C5106 C5105 1.392 . S
C5106 C5107 1.385 . S
C5106 C5108 1.478 . S
C5107 H5101 0.930 . S
C5107 C5103 1.400 . S
C5107 C5106 1.385 . S
C5108 C5106 1.478 . S
C5108 C5110 1.381 . S
C5108 C5114 1.383 . S
C5109 C5105 1.495 . S
C5109 H5115 0.959 . S
C5109 H5116 0.961 . S
C5109 H5117 0.960 . S
C5110 C5108 1.381 . S
C5110 C5111 1.394 . S
C5110 H5118 0.930 . S
C5111 C5110 1.394 . S
C5111 C5112 1.383 . S
C5111 H5119 0.929 . S
C5112 C5111 1.383 . S
C5112 C5113 1.377 . S
C5113 H5097 0.930 . S
C5113 C5112 1.377 . S
C5113 C5114 1.379 . S
C5114 H5098 0.931 . S
C5114 C5108 1.383 . S
C5114 C5113 1.379 . S
H5115 C5109 0.959 . S
H5116 C5109 0.961 . S
H5117 C5109 0.960 . S
H5118 C5110 0.930 . S
H5119 C5111 0.929 . S
H5120 C5128 0.929 . S
H5121 C5130 0.930 . S
H5122 C5132 0.930 . S
H5123 C5135 0.929 . S
H5124 C5138 0.930 . S
H5125 C5140 0.960 . S
H5126 C5140 0.960 . S
H5127 C5140 0.960 . S
C5128 H5120 0.929 . S
C5128 C5129 1.377 . S
C5128 C5130 1.384 . S
C5129 C5128 1.377 . S
C5129 C5135 1.390 . S
C5130 H5121 0.930 . S
C5130 C5128 1.384 . S
C5130 C5131 1.372 . S
C5131 C5130 1.372 . S
C5131 C5132 1.400 . S
C5131 C5136 1.490 . S
C5132 H5122 0.930 . S
C5132 C5131 1.400 . S
C5132 C5135 1.386 . S
H5133 C5149 0.930 . S
H5134 C5150 0.931 . S
C5135 H5123 0.929 . S
C5135 C5129 1.390 . S
C5135 C5132 1.386 . S
C5136 C5131 1.490 . S
C5136 C5138 1.395 . S
C5136 C5139 1.403 . S
H5137 C5143 0.930 . S
C5138 H5124 0.930 . S
C5138 C5136 1.395 . S
C5138 C5141 1.403 . S
C5139 C5136 1.403 . S
C5139 C5140 1.524 . S
C5139 C5143 1.400 . S
C5140 H5125 0.960 . S
C5140 H5126 0.960 . S
C5140 H5127 0.960 . S
C5140 C5139 1.524 . S
C5141 C5138 1.403 . S
C5141 C5142 1.392 . S
C5141 C5145 1.495 . S
C5142 C5141 1.392 . S
C5142 C5143 1.385 . S
C5142 C5144 1.478 . S
C5143 H5137 0.930 . S
C5143 C5139 1.400 . S
C5143 C5142 1.385 . S
C5144 C5142 1.478 . S
C5144 C5146 1.381 . S
C5144 C5150 1.383 . S
C5145 C5141 1.495 . S
C5145 H5151 0.959 . S
C5145 H5152 0.961 . S
C5145 H5153 0.960 . S
C5146 C5144 1.381 . S
C5146 C5147 1.394 . S
C5146 H5154 0.930 . S
C5147 C5146 1.394 . S
C5147 C5148 1.383 . S
C5147 H5155 0.929 . S
C5148 C5147 1.383 . S
C5148 C5149 1.377 . S
C5149 H5133 0.930 . S
C5149 C5148 1.377 . S
C5149 C5150 1.379 . S
C5150 H5134 0.931 . S
C5150 C5144 1.383 . S
C5150 C5149 1.379 . S
H5151 C5145 0.959 . S
H5152 C5145 0.961 . S
H5153 C5145 0.960 . S
H5154 C5146 0.930 . S
H5155 C5147 0.929 . S
H5156 C5164 0.929 . S
H5157 C5166 0.930 . S
H5158 C5168 0.930 . S
H5159 C5171 0.929 . S
H5160 C5174 0.930 . S
H5161 C5176 0.960 . S
H5162 C5176 0.960 . S
H5163 C5176 0.960 . S
C5164 H5156 0.929 . S
C5164 C5165 1.377 . S
C5164 C5166 1.384 . S
C5165 C5164 1.377 . S
C5165 C5171 1.390 . S
C5166 H5157 0.930 . S
C5166 C5164 1.384 . S
C5166 C5167 1.372 . S
C5167 C5166 1.372 . S
C5167 C5168 1.400 . S
C5167 C5172 1.490 . S
C5168 H5158 0.930 . S
C5168 C5167 1.400 . S
C5168 C5171 1.386 . S
H5169 C5185 0.930 . S
H5170 C5186 0.931 . S
C5171 H5159 0.929 . S
C5171 C5165 1.390 . S
C5171 C5168 1.386 . S
C5172 C5167 1.490 . S
C5172 C5174 1.395 . S
C5172 C5175 1.403 . S
H5173 C5179 0.930 . S
C5174 H5160 0.930 . S
C5174 C5172 1.395 . S
C5174 C5177 1.403 . S
C5175 C5172 1.403 . S
C5175 C5176 1.524 . S
C5175 C5179 1.400 . S
C5176 H5161 0.960 . S
C5176 H5162 0.960 . S
C5176 H5163 0.960 . S
C5176 C5175 1.524 . S
C5177 C5174 1.403 . S
C5177 C5178 1.392 . S
C5177 C5181 1.495 . S
C5178 C5177 1.392 . S
C5178 C5179 1.385 . S
C5178 C5180 1.478 . S
C5179 H5173 0.930 . S
C5179 C5175 1.400 . S
C5179 C5178 1.385 . S
C5180 C5178 1.478 . S
C5180 C5182 1.381 . S
C5180 C5186 1.383 . S
C5181 C5177 1.495 . S
C5181 H5187 0.959 . S
C5181 H5188 0.961 . S
C5181 H5189 0.960 . S
C5182 C5180 1.381 . S
C5182 C5183 1.394 . S
C5182 H5190 0.930 . S
C5183 C5182 1.394 . S
C5183 C5184 1.383 . S
C5183 H5191 0.929 . S
C5184 C5183 1.383 . S
C5184 C5185 1.377 . S
C5185 H5169 0.930 . S
C5185 C5184 1.377 . S
C5185 C5186 1.379 . S
C5186 H5170 0.931 . S
C5186 C5180 1.383 . S
C5186 C5185 1.379 . S
H5187 C5181 0.959 . S
H5188 C5181 0.961 . S
H5189 C5181 0.960 . S
H5190 C5182 0.930 . S
H5191 C5183 0.929 . S
H5192 C5200 0.929 . S
H5193 C5202 0.930 . S
H5194 C5204 0.930 . S
H5195 C5207 0.929 . S
H5196 C5210 0.930 . S
H5197 C5212 0.960 . S
H5198 C5212 0.960 . S
H5199 C5212 0.960 . S
C5200 H5192 0.929 . S
C5200 C5201 1.377 . S
C5200 C5202 1.384 . S
C5201 C5200 1.377 . S
C5201 C5207 1.390 . S
C5202 H5193 0.930 . S
C5202 C5200 1.384 . S
C5202 C5203 1.372 . S
C5203 C5202 1.372 . S
C5203 C5204 1.400 . S
C5203 C5208 1.490 . S
C5204 H5194 0.930 . S
C5204 C5203 1.400 . S
C5204 C5207 1.386 . S
H5205 C5221 0.930 . S
H5206 C5222 0.931 . S
C5207 H5195 0.929 . S
C5207 C5201 1.390 . S
C5207 C5204 1.386 . S
C5208 C5203 1.490 . S
C5208 C5210 1.395 . S
C5208 C5211 1.403 . S
H5209 C5215 0.930 . S
C5210 H5196 0.930 . S
C5210 C5208 1.395 . S
C5210 C5213 1.403 . S
C5211 C5208 1.403 . S
C5211 C5212 1.524 . S
C5211 C5215 1.400 . S
C5212 H5197 0.960 . S
C5212 H5198 0.960 . S
C5212 H5199 0.960 . S
C5212 C5211 1.524 . S
C5213 C5210 1.403 . S
C5213 C5214 1.392 . S
C5213 C5217 1.495 . S
C5214 C5213 1.392 . S
C5214 C5215 1.385 . S
C5214 C5216 1.478 . S
C5215 H5209 0.930 . S
C5215 C5211 1.400 . S
C5215 C5214 1.385 . S
C5216 C5214 1.478 . S
C5216 C5218 1.381 . S
C5216 C5222 1.383 . S
C5217 C5213 1.495 . S
C5217 H5223 0.959 . S
C5217 H5224 0.961 . S
C5217 H5225 0.960 . S
C5218 C5216 1.381 . S
C5218 C5219 1.394 . S
C5218 H5226 0.930 . S
C5219 C5218 1.394 . S
C5219 C5220 1.383 . S
C5219 H5227 0.929 . S
C5220 C5219 1.383 . S
C5220 C5221 1.377 . S
C5221 H5205 0.930 . S
C5221 C5220 1.377 . S
C5221 C5222 1.379 . S
C5222 H5206 0.931 . S
C5222 C5216 1.383 . S
C5222 C5221 1.379 . S
H5223 C5217 0.959 . S
H5224 C5217 0.961 . S
H5225 C5217 0.960 . S
H5226 C5218 0.930 . S
H5227 C5219 0.929 . S
H5228 C5236 0.929 . S
H5229 C5238 0.930 . S
H5230 C5240 0.930 . S
H5231 C5243 0.929 . S
H5232 C5246 0.930 . S
H5233 C5248 0.960 . S
H5234 C5248 0.960 . S
H5235 C5248 0.960 . S
C5236 H5228 0.929 . S
C5236 C5237 1.377 . S
C5236 C5238 1.384 . S
C5237 C5236 1.377 . S
C5237 C5243 1.390 . S
C5238 H5229 0.930 . S
C5238 C5236 1.384 . S
C5238 C5239 1.372 . S
C5239 C5238 1.372 . S
C5239 C5240 1.400 . S
C5239 C5244 1.490 . S
C5240 H5230 0.930 . S
C5240 C5239 1.400 . S
C5240 C5243 1.386 . S
H5241 C5257 0.930 . S
H5242 C5258 0.931 . S
C5243 H5231 0.929 . S
C5243 C5237 1.390 . S
C5243 C5240 1.386 . S
C5244 C5239 1.490 . S
C5244 C5246 1.395 . S
C5244 C5247 1.403 . S
H5245 C5251 0.930 . S
C5246 H5232 0.930 . S
C5246 C5244 1.395 . S
C5246 C5249 1.403 . S
C5247 C5244 1.403 . S
C5247 C5248 1.524 . S
C5247 C5251 1.400 . S
C5248 H5233 0.960 . S
C5248 H5234 0.960 . S
C5248 H5235 0.960 . S
C5248 C5247 1.524 . S
C5249 C5246 1.403 . S
C5249 C5250 1.392 . S
C5249 C5253 1.495 . S
C5250 C5249 1.392 . S
C5250 C5251 1.385 . S
C5250 C5252 1.478 . S
C5251 H5245 0.930 . S
C5251 C5247 1.400 . S
C5251 C5250 1.385 . S
C5252 C5250 1.478 . S
C5252 C5254 1.381 . S
C5252 C5258 1.383 . S
C5253 C5249 1.495 . S
C5253 H5259 0.959 . S
C5253 H5260 0.961 . S
C5253 H5261 0.960 . S
C5254 C5252 1.381 . S
C5254 C5255 1.394 . S
C5254 H5262 0.930 . S
C5255 C5254 1.394 . S
C5255 C5256 1.383 . S
C5255 H5263 0.929 . S
C5256 C5255 1.383 . S
C5256 C5257 1.377 . S
C5257 H5241 0.930 . S
C5257 C5256 1.377 . S
C5257 C5258 1.379 . S
C5258 H5242 0.931 . S
C5258 C5252 1.383 . S
C5258 C5257 1.379 . S
H5259 C5253 0.959 . S
H5260 C5253 0.961 . S
H5261 C5253 0.960 . S
H5262 C5254 0.930 . S
H5263 C5255 0.929 . S
H5264 C5272 0.929 . S
H5265 C5274 0.930 . S
H5266 C5276 0.930 . S
H5267 C5279 0.929 . S
H5268 C5282 0.930 . S
H5269 C5284 0.960 . S
H5270 C5284 0.960 . S
H5271 C5284 0.960 . S
C5272 H5264 0.929 . S
C5272 C5273 1.377 . S
C5272 C5274 1.384 . S
C5273 C5272 1.377 . S
C5273 C5279 1.390 . S
C5274 H5265 0.930 . S
C5274 C5272 1.384 . S
C5274 C5275 1.372 . S
C5275 C5274 1.372 . S
C5275 C5276 1.400 . S
C5275 C5280 1.490 . S
C5276 H5266 0.930 . S
C5276 C5275 1.400 . S
C5276 C5279 1.386 . S
H5277 C5293 0.930 . S
H5278 C5294 0.931 . S
C5279 H5267 0.929 . S
C5279 C5273 1.390 . S
C5279 C5276 1.386 . S
C5280 C5275 1.490 . S
C5280 C5282 1.395 . S
C5280 C5283 1.403 . S
H5281 C5287 0.930 . S
C5282 H5268 0.930 . S
C5282 C5280 1.395 . S
C5282 C5285 1.403 . S
C5283 C5280 1.403 . S
C5283 C5284 1.524 . S
C5283 C5287 1.400 . S
C5284 H5269 0.960 . S
C5284 H5270 0.960 . S
C5284 H5271 0.960 . S
C5284 C5283 1.524 . S
C5285 C5282 1.403 . S
C5285 C5286 1.392 . S
C5285 C5289 1.495 . S
C5286 C5285 1.392 . S
C5286 C5287 1.385 . S
C5286 C5288 1.478 . S
C5287 H5281 0.930 . S
C5287 C5283 1.400 . S
C5287 C5286 1.385 . S
C5288 C5286 1.478 . S
C5288 C5290 1.381 . S
C5288 C5294 1.383 . S
C5289 C5285 1.495 . S
C5289 H5295 0.959 . S
C5289 H5296 0.961 . S
C5289 H5297 0.960 . S
C5290 C5288 1.381 . S
C5290 C5291 1.394 . S
C5290 H5298 0.930 . S
C5291 C5290 1.394 . S
C5291 C5292 1.383 . S
C5291 H5299 0.929 . S
C5292 C5291 1.383 . S
C5292 C5293 1.377 . S
C5293 H5277 0.930 . S
C5293 C5292 1.377 . S
C5293 C5294 1.379 . S
C5294 H5278 0.931 . S
C5294 C5288 1.383 . S
C5294 C5293 1.379 . S
H5295 C5289 0.959 . S
H5296 C5289 0.961 . S
H5297 C5289 0.960 . S
H5298 C5290 0.930 . S
H5299 C5291 0.929 . S
H5300 C5308 0.929 . S
H5301 C5310 0.930 . S
H5302 C5312 0.930 . S
H5303 C5315 0.929 . S
H5304 C5318 0.930 . S
H5305 C5320 0.960 . S
H5306 C5320 0.960 . S
H5307 C5320 0.960 . S
C5308 H5300 0.929 . S
C5308 C5309 1.377 . S
C5308 C5310 1.384 . S
C5309 C5308 1.377 . S
C5309 C5315 1.390 . S
C5310 H5301 0.930 . S
C5310 C5308 1.384 . S
C5310 C5311 1.372 . S
C5311 C5310 1.372 . S
C5311 C5312 1.400 . S
C5311 C5316 1.490 . S
C5312 H5302 0.930 . S
C5312 C5311 1.400 . S
C5312 C5315 1.386 . S
H5313 C5329 0.930 . S
H5314 C5330 0.931 . S
C5315 H5303 0.929 . S
C5315 C5309 1.390 . S
C5315 C5312 1.386 . S
C5316 C5311 1.490 . S
C5316 C5318 1.395 . S
C5316 C5319 1.403 . S
H5317 C5323 0.930 . S
C5318 H5304 0.930 . S
C5318 C5316 1.395 . S
C5318 C5321 1.403 . S
C5319 C5316 1.403 . S
C5319 C5320 1.524 . S
C5319 C5323 1.400 . S
C5320 H5305 0.960 . S
C5320 H5306 0.960 . S
C5320 H5307 0.960 . S
C5320 C5319 1.524 . S
C5321 C5318 1.403 . S
C5321 C5322 1.392 . S
C5321 C5325 1.495 . S
C5322 C5321 1.392 . S
C5322 C5323 1.385 . S
C5322 C5324 1.478 . S
C5323 H5317 0.930 . S
C5323 C5319 1.400 . S
C5323 C5322 1.385 . S
C5324 C5322 1.478 . S
C5324 C5326 1.381 . S
C5324 C5330 1.383 . S
C5325 C5321 1.495 . S
C5325 H5331 0.959 . S
C5325 H5332 0.961 . S
C5325 H5333 0.960 . S
C5326 C5324 1.381 . S
C5326 C5327 1.394 . S
C5326 H5334 0.930 . S
C5327 C5326 1.394 . S
C5327 C5328 1.383 . S
C5327 H5335 0.929 . S
C5328 C5327 1.383 . S
C5328 C5329 1.377 . S
C5329 H5313 0.930 . S
C5329 C5328 1.377 . S
C5329 C5330 1.379 . S
C5330 H5314 0.931 . S
C5330 C5324 1.383 . S
C5330 C5329 1.379 . S
H5331 C5325 0.959 . S
H5332 C5325 0.961 . S
H5333 C5325 0.960 . S
H5334 C5326 0.930 . S
H5335 C5327 0.929 . S
H5336 C5344 0.929 . S
H5337 C5346 0.930 . S
H5338 C5348 0.930 . S
H5339 C5351 0.929 . S
H5340 C5354 0.930 . S
H5341 C5356 0.960 . S
H5342 C5356 0.960 . S
H5343 C5356 0.960 . S
C5344 H5336 0.929 . S
C5344 C5345 1.377 . S
C5344 C5346 1.384 . S
C5345 C5344 1.377 . S
C5345 C5351 1.390 . S
C5346 H5337 0.930 . S
C5346 C5344 1.384 . S
C5346 C5347 1.372 . S
C5347 C5346 1.372 . S
C5347 C5348 1.400 . S
C5347 C5352 1.490 . S
C5348 H5338 0.930 . S
C5348 C5347 1.400 . S
C5348 C5351 1.386 . S
H5349 C5365 0.930 . S
H5350 C5366 0.931 . S
C5351 H5339 0.929 . S
C5351 C5345 1.390 . S
C5351 C5348 1.386 . S
C5352 C5347 1.490 . S
C5352 C5354 1.395 . S
C5352 C5355 1.403 . S
H5353 C5359 0.930 . S
C5354 H5340 0.930 . S
C5354 C5352 1.395 . S
C5354 C5357 1.403 . S
C5355 C5352 1.403 . S
C5355 C5356 1.524 . S
C5355 C5359 1.400 . S
C5356 H5341 0.960 . S
C5356 H5342 0.960 . S
C5356 H5343 0.960 . S
C5356 C5355 1.524 . S
C5357 C5354 1.403 . S
C5357 C5358 1.392 . S
C5357 C5361 1.495 . S
C5358 C5357 1.392 . S
C5358 C5359 1.385 . S
C5358 C5360 1.478 . S
C5359 H5353 0.930 . S
C5359 C5355 1.400 . S
C5359 C5358 1.385 . S
C5360 C5358 1.478 . S
C5360 C5362 1.381 . S
C5360 C5366 1.383 . S
C5361 C5357 1.495 . S
C5361 H5367 0.959 . S
C5361 H5368 0.961 . S
C5361 H5369 0.960 . S
C5362 C5360 1.381 . S
C5362 C5363 1.394 . S
C5362 H5370 0.930 . S
C5363 C5362 1.394 . S
C5363 C5364 1.383 . S
C5363 H5371 0.929 . S
C5364 C5363 1.383 . S
C5364 C5365 1.377 . S
C5365 H5349 0.930 . S
C5365 C5364 1.377 . S
C5365 C5366 1.379 . S
C5366 H5350 0.931 . S
C5366 C5360 1.383 . S
C5366 C5365 1.379 . S
H5367 C5361 0.959 . S
H5368 C5361 0.961 . S
H5369 C5361 0.960 . S
H5370 C5362 0.930 . S
H5371 C5363 0.929 . S
H5372 C5380 0.929 . S
H5373 C5382 0.930 . S
H5374 C5384 0.930 . S
H5375 C5387 0.929 . S
H5376 C5390 0.930 . S
H5377 C5392 0.960 . S
H5378 C5392 0.960 . S
H5379 C5392 0.960 . S
C5380 H5372 0.929 . S
C5380 C5381 1.377 . S
C5380 C5382 1.384 . S
C5381 C5380 1.377 . S
C5381 C5387 1.390 . S
C5382 H5373 0.930 . S
C5382 C5380 1.384 . S
C5382 C5383 1.372 . S
C5383 C5382 1.372 . S
C5383 C5384 1.400 . S
C5383 C5388 1.490 . S
C5384 H5374 0.930 . S
C5384 C5383 1.400 . S
C5384 C5387 1.386 . S
H5385 C5401 0.930 . S
H5386 C5402 0.931 . S
C5387 H5375 0.929 . S
C5387 C5381 1.390 . S
C5387 C5384 1.386 . S
C5388 C5383 1.490 . S
C5388 C5390 1.395 . S
C5388 C5391 1.403 . S
H5389 C5395 0.930 . S
C5390 H5376 0.930 . S
C5390 C5388 1.395 . S
C5390 C5393 1.403 . S
C5391 C5388 1.403 . S
C5391 C5392 1.524 . S
C5391 C5395 1.400 . S
C5392 H5377 0.960 . S
C5392 H5378 0.960 . S
C5392 H5379 0.960 . S
C5392 C5391 1.524 . S
C5393 C5390 1.403 . S
C5393 C5394 1.392 . S
C5393 C5397 1.495 . S
C5394 C5393 1.392 . S
C5394 C5395 1.385 . S
C5394 C5396 1.478 . S
C5395 H5389 0.930 . S
C5395 C5391 1.400 . S
C5395 C5394 1.385 . S
C5396 C5394 1.478 . S
C5396 C5398 1.381 . S
C5396 C5402 1.383 . S
C5397 C5393 1.495 . S
C5397 H5403 0.959 . S
C5397 H5404 0.961 . S
C5397 H5405 0.960 . S
C5398 C5396 1.381 . S
C5398 C5399 1.394 . S
C5398 H5406 0.930 . S
C5399 C5398 1.394 . S
C5399 C5400 1.383 . S
C5399 H5407 0.929 . S
C5400 C5399 1.383 . S
C5400 C5401 1.377 . S
C5401 H5385 0.930 . S
C5401 C5400 1.377 . S
C5401 C5402 1.379 . S
C5402 H5386 0.931 . S
C5402 C5396 1.383 . S
C5402 C5401 1.379 . S
H5403 C5397 0.959 . S
H5404 C5397 0.961 . S
H5405 C5397 0.960 . S
H5406 C5398 0.930 . S
H5407 C5399 0.929 . S
H5408 C5416 0.929 . S
H5409 C5418 0.930 . S
H5410 C5420 0.930 . S
H5411 C5423 0.929 . S
H5412 C5426 0.930 . S
H5413 C5428 0.960 . S
H5414 C5428 0.960 . S
H5415 C5428 0.960 . S
C5416 H5408 0.929 . S
C5416 C5417 1.377 . S
C5416 C5418 1.384 . S
C5417 C5416 1.377 . S
C5417 C5423 1.390 . S
C5418 H5409 0.930 . S
C5418 C5416 1.384 . S
C5418 C5419 1.372 . S
C5419 C5418 1.372 . S
C5419 C5420 1.400 . S
C5419 C5424 1.490 . S
C5420 H5410 0.930 . S
C5420 C5419 1.400 . S
C5420 C5423 1.386 . S
H5421 C5437 0.930 . S
H5422 C5438 0.931 . S
C5423 H5411 0.929 . S
C5423 C5417 1.390 . S
C5423 C5420 1.386 . S
C5424 C5419 1.490 . S
C5424 C5426 1.395 . S
C5424 C5427 1.403 . S
H5425 C5431 0.930 . S
C5426 H5412 0.930 . S
C5426 C5424 1.395 . S
C5426 C5429 1.403 . S
C5427 C5424 1.403 . S
C5427 C5428 1.524 . S
C5427 C5431 1.400 . S
C5428 H5413 0.960 . S
C5428 H5414 0.960 . S
C5428 H5415 0.960 . S
C5428 C5427 1.524 . S
C5429 C5426 1.403 . S
C5429 C5430 1.392 . S
C5429 C5433 1.495 . S
C5430 C5429 1.392 . S
C5430 C5431 1.385 . S
C5430 C5432 1.478 . S
C5431 H5425 0.930 . S
C5431 C5427 1.400 . S
C5431 C5430 1.385 . S
C5432 C5430 1.478 . S
C5432 C5434 1.381 . S
C5432 C5438 1.383 . S
C5433 C5429 1.495 . S
C5433 H5439 0.959 . S
C5433 H5440 0.961 . S
C5433 H5441 0.960 . S
C5434 C5432 1.381 . S
C5434 C5435 1.394 . S
C5434 H5442 0.930 . S
C5435 C5434 1.394 . S
C5435 C5436 1.383 . S
C5435 H5443 0.929 . S
C5436 C5435 1.383 . S
C5436 C5437 1.377 . S
C5437 H5421 0.930 . S
C5437 C5436 1.377 . S
C5437 C5438 1.379 . S
C5438 H5422 0.931 . S
C5438 C5432 1.383 . S
C5438 C5437 1.379 . S
H5439 C5433 0.959 . S
H5440 C5433 0.961 . S
H5441 C5433 0.960 . S
H5442 C5434 0.930 . S
H5443 C5435 0.929 . S
H5444 C5452 0.929 . S
H5445 C5454 0.930 . S
H5446 C5456 0.930 . S
H5447 C5459 0.929 . S
H5448 C5462 0.930 . S
H5449 C5464 0.960 . S
H5450 C5464 0.960 . S
H5451 C5464 0.960 . S
C5452 H5444 0.929 . S
C5452 C5453 1.377 . S
C5452 C5454 1.384 . S
C5453 C5452 1.377 . S
C5453 C5459 1.390 . S
C5454 H5445 0.930 . S
C5454 C5452 1.384 . S
C5454 C5455 1.372 . S
C5455 C5454 1.372 . S
C5455 C5456 1.400 . S
C5455 C5460 1.490 . S
C5456 H5446 0.930 . S
C5456 C5455 1.400 . S
C5456 C5459 1.386 . S
H5457 C5473 0.930 . S
H5458 C5474 0.931 . S
C5459 H5447 0.929 . S
C5459 C5453 1.390 . S
C5459 C5456 1.386 . S
C5460 C5455 1.490 . S
C5460 C5462 1.395 . S
C5460 C5463 1.403 . S
H5461 C5467 0.930 . S
C5462 H5448 0.930 . S
C5462 C5460 1.395 . S
C5462 C5465 1.403 . S
C5463 C5460 1.403 . S
C5463 C5464 1.524 . S
C5463 C5467 1.400 . S
C5464 H5449 0.960 . S
C5464 H5450 0.960 . S
C5464 H5451 0.960 . S
C5464 C5463 1.524 . S
C5465 C5462 1.403 . S
C5465 C5466 1.392 . S
C5465 C5469 1.495 . S
C5466 C5465 1.392 . S
C5466 C5467 1.385 . S
C5466 C5468 1.478 . S
C5467 H5461 0.930 . S
C5467 C5463 1.400 . S
C5467 C5466 1.385 . S
C5468 C5466 1.478 . S
C5468 C5470 1.381 . S
C5468 C5474 1.383 . S
C5469 C5465 1.495 . S
C5469 H5475 0.959 . S
C5469 H5476 0.961 . S
C5469 H5477 0.960 . S
C5470 C5468 1.381 . S
C5470 C5471 1.394 . S
C5470 H5478 0.930 . S
C5471 C5470 1.394 . S
C5471 C5472 1.383 . S
C5471 H5479 0.929 . S
C5472 C5471 1.383 . S
C5472 C5473 1.377 . S
C5473 H5457 0.930 . S
C5473 C5472 1.377 . S
C5473 C5474 1.379 . S
C5474 H5458 0.931 . S
C5474 C5468 1.383 . S
C5474 C5473 1.379 . S
H5475 C5469 0.959 . S
H5476 C5469 0.961 . S
H5477 C5469 0.960 . S
H5478 C5470 0.930 . S
H5479 C5471 0.929 . S
H5480 C5488 0.929 . S
H5481 C5490 0.930 . S
H5482 C5492 0.930 . S
H5483 C5495 0.929 . S
H5484 C5498 0.930 . S
H5485 C5500 0.960 . S
H5486 C5500 0.960 . S
H5487 C5500 0.960 . S
C5488 H5480 0.929 . S
C5488 C5489 1.377 . S
C5488 C5490 1.384 . S
C5489 C5488 1.377 . S
C5489 C5495 1.390 . S
C5490 H5481 0.930 . S
C5490 C5488 1.384 . S
C5490 C5491 1.372 . S
C5491 C5490 1.372 . S
C5491 C5492 1.400 . S
C5491 C5496 1.490 . S
C5492 H5482 0.930 . S
C5492 C5491 1.400 . S
C5492 C5495 1.386 . S
H5493 C5509 0.930 . S
H5494 C5510 0.931 . S
C5495 H5483 0.929 . S
C5495 C5489 1.390 . S
C5495 C5492 1.386 . S
C5496 C5491 1.490 . S
C5496 C5498 1.395 . S
C5496 C5499 1.403 . S
H5497 C5503 0.930 . S
C5498 H5484 0.930 . S
C5498 C5496 1.395 . S
C5498 C5501 1.403 . S
C5499 C5496 1.403 . S
C5499 C5500 1.524 . S
C5499 C5503 1.400 . S
C5500 H5485 0.960 . S
C5500 H5486 0.960 . S
C5500 H5487 0.960 . S
C5500 C5499 1.524 . S
C5501 C5498 1.403 . S
C5501 C5502 1.392 . S
C5501 C5505 1.495 . S
C5502 C5501 1.392 . S
C5502 C5503 1.385 . S
C5502 C5504 1.478 . S
C5503 H5497 0.930 . S
C5503 C5499 1.400 . S
C5503 C5502 1.385 . S
C5504 C5502 1.478 . S
C5504 C5506 1.381 . S
C5504 C5510 1.383 . S
C5505 C5501 1.495 . S
C5505 H5511 0.959 . S
C5505 H5512 0.961 . S
C5505 H5513 0.960 . S
C5506 C5504 1.381 . S
C5506 C5507 1.394 . S
C5506 H5514 0.930 . S
C5507 C5506 1.394 . S
C5507 C5508 1.383 . S
C5507 H5515 0.929 . S
C5508 C5507 1.383 . S
C5508 C5509 1.377 . S
C5509 H5493 0.930 . S
C5509 C5508 1.377 . S
C5509 C5510 1.379 . S
C5510 H5494 0.931 . S
C5510 C5504 1.383 . S
C5510 C5509 1.379 . S
H5511 C5505 0.959 . S
H5512 C5505 0.961 . S
H5513 C5505 0.960 . S
H5514 C5506 0.930 . S
H5515 C5507 0.929 . S
H5516 C5524 0.929 . S
H5517 C5526 0.930 . S
H5518 C5528 0.930 . S
H5519 C5531 0.929 . S
H5520 C5534 0.930 . S
H5521 C5536 0.960 . S
H5522 C5536 0.960 . S
H5523 C5536 0.960 . S
C5524 H5516 0.929 . S
C5524 C5525 1.377 . S
C5524 C5526 1.384 . S
C5525 C5524 1.377 . S
C5525 C5531 1.390 . S
C5526 H5517 0.930 . S
C5526 C5524 1.384 . S
C5526 C5527 1.372 . S
C5527 C5526 1.372 . S
C5527 C5528 1.400 . S
C5527 C5532 1.490 . S
C5528 H5518 0.930 . S
C5528 C5527 1.400 . S
C5528 C5531 1.386 . S
H5529 C5545 0.930 . S
H5530 C5546 0.931 . S
C5531 H5519 0.929 . S
C5531 C5525 1.390 . S
C5531 C5528 1.386 . S
C5532 C5527 1.490 . S
C5532 C5534 1.395 . S
C5532 C5535 1.403 . S
H5533 C5539 0.930 . S
C5534 H5520 0.930 . S
C5534 C5532 1.395 . S
C5534 C5537 1.403 . S
C5535 C5532 1.403 . S
C5535 C5536 1.524 . S
C5535 C5539 1.400 . S
C5536 H5521 0.960 . S
C5536 H5522 0.960 . S
C5536 H5523 0.960 . S
C5536 C5535 1.524 . S
C5537 C5534 1.403 . S
C5537 C5538 1.392 . S
C5537 C5541 1.495 . S
C5538 C5537 1.392 . S
C5538 C5539 1.385 . S
C5538 C5540 1.478 . S
C5539 H5533 0.930 . S
C5539 C5535 1.400 . S
C5539 C5538 1.385 . S
C5540 C5538 1.478 . S
C5540 C5542 1.381 . S
C5540 C5546 1.383 . S
C5541 C5537 1.495 . S
C5541 H5547 0.959 . S
C5541 H5548 0.961 . S
C5541 H5549 0.960 . S
C5542 C5540 1.381 . S
C5542 C5543 1.394 . S
C5542 H5550 0.930 . S
C5543 C5542 1.394 . S
C5543 C5544 1.383 . S
C5543 H5551 0.929 . S
C5544 C5543 1.383 . S
C5544 C5545 1.377 . S
C5545 H5529 0.930 . S
C5545 C5544 1.377 . S
C5545 C5546 1.379 . S
C5546 H5530 0.931 . S
C5546 C5540 1.383 . S
C5546 C5545 1.379 . S
H5547 C5541 0.959 . S
H5548 C5541 0.961 . S
H5549 C5541 0.960 . S
H5550 C5542 0.930 . S
H5551 C5543 0.929 . S
H5552 C5560 0.929 . S
H5553 C5562 0.930 . S
H5554 C5564 0.930 . S
H5555 C5567 0.929 . S
H5556 C5570 0.930 . S
H5557 C5572 0.960 . S
H5558 C5572 0.960 . S
H5559 C5572 0.960 . S
C5560 H5552 0.929 . S
C5560 C5561 1.377 . S
C5560 C5562 1.384 . S
C5561 C5560 1.377 . S
C5561 C5567 1.390 . S
C5562 H5553 0.930 . S
C5562 C5560 1.384 . S
C5562 C5563 1.372 . S
C5563 C5562 1.372 . S
C5563 C5564 1.400 . S
C5563 C5568 1.490 . S
C5564 H5554 0.930 . S
C5564 C5563 1.400 . S
C5564 C5567 1.386 . S
H5565 C5581 0.930 . S
H5566 C5582 0.931 . S
C5567 H5555 0.929 . S
C5567 C5561 1.390 . S
C5567 C5564 1.386 . S
C5568 C5563 1.490 . S
C5568 C5570 1.395 . S
C5568 C5571 1.403 . S
H5569 C5575 0.930 . S
C5570 H5556 0.930 . S
C5570 C5568 1.395 . S
C5570 C5573 1.403 . S
C5571 C5568 1.403 . S
C5571 C5572 1.524 . S
C5571 C5575 1.400 . S
C5572 H5557 0.960 . S
C5572 H5558 0.960 . S
C5572 H5559 0.960 . S
C5572 C5571 1.524 . S
C5573 C5570 1.403 . S
C5573 C5574 1.392 . S
C5573 C5577 1.495 . S
C5574 C5573 1.392 . S
C5574 C5575 1.385 . S
C5574 C5576 1.478 . S
C5575 H5569 0.930 . S
C5575 C5571 1.400 . S
C5575 C5574 1.385 . S
C5576 C5574 1.478 . S
C5576 C5578 1.381 . S
C5576 C5582 1.383 . S
C5577 C5573 1.495 . S
C5577 H5583 0.959 . S
C5577 H5584 0.961 . S
C5577 H5585 0.960 . S
C5578 C5576 1.381 . S
C5578 C5579 1.394 . S
C5578 H5586 0.930 . S
C5579 C5578 1.394 . S
C5579 C5580 1.383 . S
C5579 H5587 0.929 . S
C5580 C5579 1.383 . S
C5580 C5581 1.377 . S
C5581 H5565 0.930 . S
C5581 C5580 1.377 . S
C5581 C5582 1.379 . S
C5582 H5566 0.931 . S
C5582 C5576 1.383 . S
C5582 C5581 1.379 . S
H5583 C5577 0.959 . S
H5584 C5577 0.961 . S
H5585 C5577 0.960 . S
H5586 C5578 0.930 . S
H5587 C5579 0.929 . S
H5588 C5596 0.929 . S
H5589 C5598 0.930 . S
H5590 C5600 0.930 . S
H5591 C5603 0.929 . S
H5592 C5606 0.930 . S
H5593 C5608 0.960 . S
H5594 C5608 0.960 . S
H5595 C5608 0.960 . S
C5596 H5588 0.929 . S
C5596 C5597 1.377 . S
C5596 C5598 1.384 . S
C5597 C5596 1.377 . S
C5597 C5603 1.390 . S
C5598 H5589 0.930 . S
C5598 C5596 1.384 . S
C5598 C5599 1.372 . S
C5599 C5598 1.372 . S
C5599 C5600 1.400 . S
C5599 C5604 1.490 . S
C5600 H5590 0.930 . S
C5600 C5599 1.400 . S
C5600 C5603 1.386 . S
H5601 C5617 0.930 . S
H5602 C5618 0.931 . S
C5603 H5591 0.929 . S
C5603 C5597 1.390 . S
C5603 C5600 1.386 . S
C5604 C5599 1.490 . S
C5604 C5606 1.395 . S
C5604 C5607 1.403 . S
H5605 C5611 0.930 . S
C5606 H5592 0.930 . S
C5606 C5604 1.395 . S
C5606 C5609 1.403 . S
C5607 C5604 1.403 . S
C5607 C5608 1.524 . S
C5607 C5611 1.400 . S
C5608 H5593 0.960 . S
C5608 H5594 0.960 . S
C5608 H5595 0.960 . S
C5608 C5607 1.524 . S
C5609 C5606 1.403 . S
C5609 C5610 1.392 . S
C5609 C5613 1.495 . S
C5610 C5609 1.392 . S
C5610 C5611 1.385 . S
C5610 C5612 1.478 . S
C5611 H5605 0.930 . S
C5611 C5607 1.400 . S
C5611 C5610 1.385 . S
C5612 C5610 1.478 . S
C5612 C5614 1.381 . S
C5612 C5618 1.383 . S
C5613 C5609 1.495 . S
C5613 H5619 0.959 . S
C5613 H5620 0.961 . S
C5613 H5621 0.960 . S
C5614 C5612 1.381 . S
C5614 C5615 1.394 . S
C5614 H5622 0.930 . S
C5615 C5614 1.394 . S
C5615 C5616 1.383 . S
C5615 H5623 0.929 . S
C5616 C5615 1.383 . S
C5616 C5617 1.377 . S
C5617 H5601 0.930 . S
C5617 C5616 1.377 . S
C5617 C5618 1.379 . S
C5618 H5602 0.931 . S
C5618 C5612 1.383 . S
C5618 C5617 1.379 . S
H5619 C5613 0.959 . S
H5620 C5613 0.961 . S
H5621 C5613 0.960 . S
H5622 C5614 0.930 . S
H5623 C5615 0.929 . S
H5624 C5632 0.929 . S
H5625 C5634 0.930 . S
H5626 C5636 0.930 . S
H5627 C5639 0.929 . S
H5628 C5642 0.930 . S
H5629 C5644 0.960 . S
H5630 C5644 0.960 . S
H5631 C5644 0.960 . S
C5632 H5624 0.929 . S
C5632 C5633 1.377 . S
C5632 C5634 1.384 . S
C5633 C5632 1.377 . S
C5633 C5639 1.390 . S
C5634 H5625 0.930 . S
C5634 C5632 1.384 . S
C5634 C5635 1.372 . S
C5635 C5634 1.372 . S
C5635 C5636 1.400 . S
C5635 C5640 1.490 . S
C5636 H5626 0.930 . S
C5636 C5635 1.400 . S
C5636 C5639 1.386 . S
H5637 C5653 0.930 . S
H5638 C5654 0.931 . S
C5639 H5627 0.929 . S
C5639 C5633 1.390 . S
C5639 C5636 1.386 . S
C5640 C5635 1.490 . S
C5640 C5642 1.395 . S
C5640 C5643 1.403 . S
H5641 C5647 0.930 . S
C5642 H5628 0.930 . S
C5642 C5640 1.395 . S
C5642 C5645 1.403 . S
C5643 C5640 1.403 . S
C5643 C5644 1.524 . S
C5643 C5647 1.400 . S
C5644 H5629 0.960 . S
C5644 H5630 0.960 . S
C5644 H5631 0.960 . S
C5644 C5643 1.524 . S
C5645 C5642 1.403 . S
C5645 C5646 1.392 . S
C5645 C5649 1.495 . S
C5646 C5645 1.392 . S
C5646 C5647 1.385 . S
C5646 C5648 1.478 . S
C5647 H5641 0.930 . S
C5647 C5643 1.400 . S
C5647 C5646 1.385 . S
C5648 C5646 1.478 . S
C5648 C5650 1.381 . S
C5648 C5654 1.383 . S
C5649 C5645 1.495 . S
C5649 H5655 0.959 . S
C5649 H5656 0.961 . S
C5649 H5657 0.960 . S
C5650 C5648 1.381 . S
C5650 C5651 1.394 . S
C5650 H5658 0.930 . S
C5651 C5650 1.394 . S
C5651 C5652 1.383 . S
C5651 H5659 0.929 . S
C5652 C5651 1.383 . S
C5652 C5653 1.377 . S
C5653 H5637 0.930 . S
C5653 C5652 1.377 . S
C5653 C5654 1.379 . S
C5654 H5638 0.931 . S
C5654 C5648 1.383 . S
C5654 C5653 1.379 . S
H5655 C5649 0.959 . S
H5656 C5649 0.961 . S
H5657 C5649 0.960 . S
H5658 C5650 0.930 . S
H5659 C5651 0.929 . S
H5660 C5668 0.929 . S
H5661 C5670 0.930 . S
H5662 C5672 0.930 . S
H5663 C5675 0.929 . S
H5664 C5678 0.930 . S
H5665 C5680 0.960 . S
H5666 C5680 0.960 . S
H5667 C5680 0.960 . S
C5668 H5660 0.929 . S
C5668 C5669 1.377 . S
C5668 C5670 1.384 . S
C5669 C5668 1.377 . S
C5669 C5675 1.390 . S
C5670 H5661 0.930 . S
C5670 C5668 1.384 . S
C5670 C5671 1.372 . S
C5671 C5670 1.372 . S
C5671 C5672 1.400 . S
C5671 C5676 1.490 . S
C5672 H5662 0.930 . S
C5672 C5671 1.400 . S
C5672 C5675 1.386 . S
H5673 C5689 0.930 . S
H5674 C5690 0.931 . S
C5675 H5663 0.929 . S
C5675 C5669 1.390 . S
C5675 C5672 1.386 . S
C5676 C5671 1.490 . S
C5676 C5678 1.395 . S
C5676 C5679 1.403 . S
H5677 C5683 0.930 . S
C5678 H5664 0.930 . S
C5678 C5676 1.395 . S
C5678 C5681 1.403 . S
C5679 C5676 1.403 . S
C5679 C5680 1.524 . S
C5679 C5683 1.400 . S
C5680 H5665 0.960 . S
C5680 H5666 0.960 . S
C5680 H5667 0.960 . S
C5680 C5679 1.524 . S
C5681 C5678 1.403 . S
C5681 C5682 1.392 . S
C5681 C5685 1.495 . S
C5682 C5681 1.392 . S
C5682 C5683 1.385 . S
C5682 C5684 1.478 . S
C5683 H5677 0.930 . S
C5683 C5679 1.400 . S
C5683 C5682 1.385 . S
C5684 C5682 1.478 . S
C5684 C5686 1.381 . S
C5684 C5690 1.383 . S
C5685 C5681 1.495 . S
C5685 H5691 0.959 . S
C5685 H5692 0.961 . S
C5685 H5693 0.960 . S
C5686 C5684 1.381 . S
C5686 C5687 1.394 . S
C5686 H5694 0.930 . S
C5687 C5686 1.394 . S
C5687 C5688 1.383 . S
C5687 H5695 0.929 . S
C5688 C5687 1.383 . S
C5688 C5689 1.377 . S
C5689 H5673 0.930 . S
C5689 C5688 1.377 . S
C5689 C5690 1.379 . S
C5690 H5674 0.931 . S
C5690 C5684 1.383 . S
C5690 C5689 1.379 . S
H5691 C5685 0.959 . S
H5692 C5685 0.961 . S
H5693 C5685 0.960 . S
H5694 C5686 0.930 . S
H5695 C5687 0.929 . S
H5696 C5704 0.929 . S
H5697 C5706 0.930 . S
H5698 C5708 0.930 . S
H5699 C5711 0.929 . S
H5700 C5714 0.930 . S
H5701 C5716 0.960 . S
H5702 C5716 0.960 . S
H5703 C5716 0.960 . S
C5704 H5696 0.929 . S
C5704 C5705 1.377 . S
C5704 C5706 1.384 . S
C5705 C5704 1.377 . S
C5705 C5711 1.390 . S
C5706 H5697 0.930 . S
C5706 C5704 1.384 . S
C5706 C5707 1.372 . S
C5707 C5706 1.372 . S
C5707 C5708 1.400 . S
C5707 C5712 1.490 . S
C5708 H5698 0.930 . S
C5708 C5707 1.400 . S
C5708 C5711 1.386 . S
H5709 C5725 0.930 . S
H5710 C5726 0.931 . S
C5711 H5699 0.929 . S
C5711 C5705 1.390 . S
C5711 C5708 1.386 . S
C5712 C5707 1.490 . S
C5712 C5714 1.395 . S
C5712 C5715 1.403 . S
H5713 C5719 0.930 . S
C5714 H5700 0.930 . S
C5714 C5712 1.395 . S
C5714 C5717 1.403 . S
C5715 C5712 1.403 . S
C5715 C5716 1.524 . S
C5715 C5719 1.400 . S
C5716 H5701 0.960 . S
C5716 H5702 0.960 . S
C5716 H5703 0.960 . S
C5716 C5715 1.524 . S
C5717 C5714 1.403 . S
C5717 C5718 1.392 . S
C5717 C5721 1.495 . S
C5718 C5717 1.392 . S
C5718 C5719 1.385 . S
C5718 C5720 1.478 . S
C5719 H5713 0.930 . S
C5719 C5715 1.400 . S
C5719 C5718 1.385 . S
C5720 C5718 1.478 . S
C5720 C5722 1.381 . S
C5720 C5726 1.383 . S
C5721 C5717 1.495 . S
C5721 H5727 0.959 . S
C5721 H5728 0.961 . S
C5721 H5729 0.960 . S
C5722 C5720 1.381 . S
C5722 C5723 1.394 . S
C5722 H5730 0.930 . S
C5723 C5722 1.394 . S
C5723 C5724 1.383 . S
C5723 H5731 0.929 . S
C5724 C5723 1.383 . S
C5724 C5725 1.377 . S
C5725 H5709 0.930 . S
C5725 C5724 1.377 . S
C5725 C5726 1.379 . S
C5726 H5710 0.931 . S
C5726 C5720 1.383 . S
C5726 C5725 1.379 . S
H5727 C5721 0.959 . S
H5728 C5721 0.961 . S
H5729 C5721 0.960 . S
H5730 C5722 0.930 . S
H5731 C5723 0.929 . S
H5732 C5740 0.929 . S
H5733 C5742 0.930 . S
H5734 C5744 0.930 . S
H5735 C5747 0.929 . S
H5736 C5750 0.930 . S
H5737 C5752 0.960 . S
H5738 C5752 0.960 . S
H5739 C5752 0.960 . S
C5740 H5732 0.929 . S
C5740 C5741 1.377 . S
C5740 C5742 1.384 . S
C5741 C5740 1.377 . S
C5741 C5747 1.390 . S
C5742 H5733 0.930 . S
C5742 C5740 1.384 . S
C5742 C5743 1.372 . S
C5743 C5742 1.372 . S
C5743 C5744 1.400 . S
C5743 C5748 1.490 . S
C5744 H5734 0.930 . S
C5744 C5743 1.400 . S
C5744 C5747 1.386 . S
H5745 C5761 0.930 . S
H5746 C5762 0.931 . S
C5747 H5735 0.929 . S
C5747 C5741 1.390 . S
C5747 C5744 1.386 . S
C5748 C5743 1.490 . S
C5748 C5750 1.395 . S
C5748 C5751 1.403 . S
H5749 C5755 0.930 . S
C5750 H5736 0.930 . S
C5750 C5748 1.395 . S
C5750 C5753 1.403 . S
C5751 C5748 1.403 . S
C5751 C5752 1.524 . S
C5751 C5755 1.400 . S
C5752 H5737 0.960 . S
C5752 H5738 0.960 . S
C5752 H5739 0.960 . S
C5752 C5751 1.524 . S
C5753 C5750 1.403 . S
C5753 C5754 1.392 . S
C5753 C5757 1.495 . S
C5754 C5753 1.392 . S
C5754 C5755 1.385 . S
C5754 C5756 1.478 . S
C5755 H5749 0.930 . S
C5755 C5751 1.400 . S
C5755 C5754 1.385 . S
C5756 C5754 1.478 . S
C5756 C5758 1.381 . S
C5756 C5762 1.383 . S
C5757 C5753 1.495 . S
C5757 H5763 0.959 . S
C5757 H5764 0.961 . S
C5757 H5765 0.960 . S
C5758 C5756 1.381 . S
C5758 C5759 1.394 . S
C5758 H5766 0.930 . S
C5759 C5758 1.394 . S
C5759 C5760 1.383 . S
C5759 H5767 0.929 . S
C5760 C5759 1.383 . S
C5760 C5761 1.377 . S
C5761 H5745 0.930 . S
C5761 C5760 1.377 . S
C5761 C5762 1.379 . S
C5762 H5746 0.931 . S
C5762 C5756 1.383 . S
C5762 C5761 1.379 . S
H5763 C5757 0.959 . S
H5764 C5757 0.961 . S
H5765 C5757 0.960 . S
H5766 C5758 0.930 . S
H5767 C5759 0.929 . S
H5768 C5776 0.929 . S
H5769 C5778 0.930 . S
H5770 C5780 0.930 . S
H5771 C5783 0.929 . S
H5772 C5786 0.930 . S
H5773 C5788 0.960 . S
H5774 C5788 0.960 . S
H5775 C5788 0.960 . S
C5776 H5768 0.929 . S
C5776 C5777 1.377 . S
C5776 C5778 1.384 . S
C5777 C5776 1.377 . S
C5777 C5783 1.390 . S
C5778 H5769 0.930 . S
C5778 C5776 1.384 . S
C5778 C5779 1.372 . S
C5779 C5778 1.372 . S
C5779 C5780 1.400 . S
C5779 C5784 1.490 . S
C5780 H5770 0.930 . S
C5780 C5779 1.400 . S
C5780 C5783 1.386 . S
H5781 C5797 0.930 . S
H5782 C5798 0.931 . S
C5783 H5771 0.929 . S
C5783 C5777 1.390 . S
C5783 C5780 1.386 . S
C5784 C5779 1.490 . S
C5784 C5786 1.395 . S
C5784 C5787 1.403 . S
H5785 C5791 0.930 . S
C5786 H5772 0.930 . S
C5786 C5784 1.395 . S
C5786 C5789 1.403 . S
C5787 C5784 1.403 . S
C5787 C5788 1.524 . S
C5787 C5791 1.400 . S
C5788 H5773 0.960 . S
C5788 H5774 0.960 . S
C5788 H5775 0.960 . S
C5788 C5787 1.524 . S
C5789 C5786 1.403 . S
C5789 C5790 1.392 . S
C5789 C5793 1.495 . S
C5790 C5789 1.392 . S
C5790 C5791 1.385 . S
C5790 C5792 1.478 . S
C5791 H5785 0.930 . S
C5791 C5787 1.400 . S
C5791 C5790 1.385 . S
C5792 C5790 1.478 . S
C5792 C5794 1.381 . S
C5792 C5798 1.383 . S
C5793 C5789 1.495 . S
C5793 H5799 0.959 . S
C5793 H5800 0.961 . S
C5793 H5801 0.960 . S
C5794 C5792 1.381 . S
C5794 C5795 1.394 . S
C5794 H5802 0.930 . S
C5795 C5794 1.394 . S
C5795 C5796 1.383 . S
C5795 H5803 0.929 . S
C5796 C5795 1.383 . S
C5796 C5797 1.377 . S
C5797 H5781 0.930 . S
C5797 C5796 1.377 . S
C5797 C5798 1.379 . S
C5798 H5782 0.931 . S
C5798 C5792 1.383 . S
C5798 C5797 1.379 . S
H5799 C5793 0.959 . S
H5800 C5793 0.961 . S
H5801 C5793 0.960 . S
H5802 C5794 0.930 . S
H5803 C5795 0.929 . S
H5804 C5812 0.929 . S
H5805 C5814 0.930 . S
H5806 C5816 0.930 . S
H5807 C5819 0.929 . S
H5808 C5822 0.930 . S
H5809 C5824 0.960 . S
H5810 C5824 0.960 . S
H5811 C5824 0.960 . S
C5812 H5804 0.929 . S
C5812 C5813 1.377 . S
C5812 C5814 1.384 . S
C5813 C5812 1.377 . S
C5813 C5819 1.390 . S
C5814 H5805 0.930 . S
C5814 C5812 1.384 . S
C5814 C5815 1.372 . S
C5815 C5814 1.372 . S
C5815 C5816 1.400 . S
C5815 C5820 1.490 . S
C5816 H5806 0.930 . S
C5816 C5815 1.400 . S
C5816 C5819 1.386 . S
H5817 C5833 0.930 . S
H5818 C5834 0.931 . S
C5819 H5807 0.929 . S
C5819 C5813 1.390 . S
C5819 C5816 1.386 . S
C5820 C5815 1.490 . S
C5820 C5822 1.395 . S
C5820 C5823 1.403 . S
H5821 C5827 0.930 . S
C5822 H5808 0.930 . S
C5822 C5820 1.395 . S
C5822 C5825 1.403 . S
C5823 C5820 1.403 . S
C5823 C5824 1.524 . S
C5823 C5827 1.400 . S
C5824 H5809 0.960 . S
C5824 H5810 0.960 . S
C5824 H5811 0.960 . S
C5824 C5823 1.524 . S
C5825 C5822 1.403 . S
C5825 C5826 1.392 . S
C5825 C5829 1.495 . S
C5826 C5825 1.392 . S
C5826 C5827 1.385 . S
C5826 C5828 1.478 . S
C5827 H5821 0.930 . S
C5827 C5823 1.400 . S
C5827 C5826 1.385 . S
C5828 C5826 1.478 . S
C5828 C5830 1.381 . S
C5828 C5834 1.383 . S
C5829 C5825 1.495 . S
C5829 H5835 0.959 . S
C5829 H5836 0.961 . S
C5829 H5837 0.960 . S
C5830 C5828 1.381 . S
C5830 C5831 1.394 . S
C5830 H5838 0.930 . S
C5831 C5830 1.394 . S
C5831 C5832 1.383 . S
C5831 H5839 0.929 . S
C5832 C5831 1.383 . S
C5832 C5833 1.377 . S
C5833 H5817 0.930 . S
C5833 C5832 1.377 . S
C5833 C5834 1.379 . S
C5834 H5818 0.931 . S
C5834 C5828 1.383 . S
C5834 C5833 1.379 . S
H5835 C5829 0.959 . S
H5836 C5829 0.961 . S
H5837 C5829 0.960 . S
H5838 C5830 0.930 . S
H5839 C5831 0.929 . S
C2412 C1281 1.551 . S
C2393 C21 1.549 . S
C2448 C1348 1.418 . S
C2429 C42 1.412 . S
C2465 C82 1.524 . S
C2484 C1373 1.534 . S
C2520 C1433 1.493 . S
C2501 C135 1.493 . S
C2537 C175 1.410 . S
C2556 C1426 1.400 . S
C2573 C221 1.541 . S
C2592 C1302 1.547 . S
C2609 C255 1.480 . S
C2628 C1327 1.479 . S
C2664 C1394 1.566 . S
C2645 C301 1.555 . S
C2700 C1486 1.520 . S
C2681 C15 1.522 . S
C2717 C55 1.422 . S
C2736 C1525 1.414 . S
C2753 C101 1.554 . S
C2772 C1578 1.561 . S
C2808 C1603 1.503 . S
C2789 C141 1.487 . S
C2825 C162 1.436 . S
C2844 C1663 1.449 . S
C2880 C1716 1.513 . S
C2861 C215 1.520 . S
C2897 C261 1.494 . S
C2916 C1755 1.507 . S
C2952 C1794 1.522 . S
C2933 C282 1.516 . S
C2969 C2 1.526 . S
C2988 C1624 1.530 . S
C3005 C181 1.417 . S
C3024 C1695 1.421 . S
C3060 C1748 1.546 . S
C3041 C202 1.541 . S
C3077 C242 1.492 . S
C3096 C1801 1.505 . S
C3132 C1656 1.507 . S
C3113 C295 1.516 . S
C3168 C1518 1.519 . S
C3149 C95 1.527 . S
C3185 C122 1.484 . S
C3204 C1557 1.493 . S
C3240 C1465 1.433 . S
C3221 C61 1.429 . S
C3276 C1833 1.554 . S
C3257 C341 1.548 . S
C3293 C362 1.414 . S
C3312 C1879 1.415 . S
C3329 C402 1.526 . S
C3348 C1946 1.532 . S
C3384 C1992 1.493 . S
C3365 C455 1.493 . S
C3401 C495 1.410 . S
C3420 C1971 1.410 . S
C3437 C541 1.543 . S
C3456 C1854 1.543 . S
C3473 C575 1.480 . S
C3492 C1900 1.478 . S
C3509 C621 1.559 . S
C3528 C1925 1.564 . S
C3564 C1670 1.515 . S
C3545 C335 1.521 . S
C3581 C375 1.422 . S
C3600 C2031 1.417 . S
C3636 C1762 1.562 . S
C3617 C421 1.552 . S
C3653 C461 1.493 . S
C3672 C2063 1.496 . S
C3689 C482 1.439 . S
C3708 C1479 1.444 . S
C3744 C2130 1.514 . S
C3725 C535 1.519 . S
C3761 C581 1.494 . S
C3780 C1571 1.501 . S
C3816 C2162 1.527 . S
C3797 C602 1.513 . S
C3833 C322 1.527 . S
C3852 C2084 1.530 . S
C3888 C2109 1.422 . S
C3869 C501 1.416 . S
C3905 C522 1.542 . S
C3924 C1564 1.551 . S
C3960 C2169 1.506 . S
C3941 C562 1.493 . S
C3977 C615 1.514 . S
C3996 C1472 1.513 . S
C4013 C415 1.526 . S
C4032 C2024 1.521 . S
C4049 C442 1.483 . S
C4068 C1741 1.498 . S
C4085 C381 1.426 . S
C4104 C1649 1.440 . S
C4121 C661 1.550 . S
C4140 C1939 1.556 . S
C4176 C1985 1.418 . S
C4157 C682 1.412 . S
C4193 C722 1.522 . S
C4212 C1840 1.529 . S
C4229 C775 1.493 . S
C4248 C1886 1.490 . S
C4265 C815 1.409 . S
C4284 C1893 1.409 . S
C4301 C861 1.544 . S
C4320 C1932 1.550 . S
C4356 C1978 1.478 . S
C4337 C895 1.479 . S
C4373 C941 1.558 . S
C4392 C1847 1.566 . S
C4428 C2201 1.519 . S
C4409 C655 1.523 . S
C4445 C695 1.422 . S
C4464 C1709 1.420 . S
C4500 C2247 1.560 . S
C4481 C741 1.556 . S
C4517 C781 1.488 . S
C4536 C1787 1.502 . S
C4553 C802 1.440 . S
C4572 C2314 1.442 . S
C4589 C855 1.520 . S
C4608 C1532 1.512 . S
C4644 C2346 1.506 . S
C4625 C901 1.491 . S
C4661 C922 1.510 . S
C4680 C1610 1.529 . S
C4716 C1808 1.534 . S
C4697 C642 1.525 . S
C4752 C1511 1.420 . S
C4733 C821 1.416 . S
C4769 C842 1.544 . S
C4788 C2353 1.547 . S
C4805 C882 1.493 . S
C4824 C1617 1.507 . S
C4860 C2293 1.506 . S
C4841 C935 1.515 . S
C4896 C1702 1.524 . S
C4877 C735 1.526 . S
C4932 C2268 1.492 . S
C4913 C762 1.483 . S
C4968 C2222 1.431 . S
C4949 C701 1.428 . S
C4985 C981 1.551 . S
C5004 C1380 1.556 . S
C5021 C1002 1.413 . S
C5040 C1440 1.420 . S
C5076 C1288 1.534 . S
C5057 C1042 1.525 . S
C5112 C1341 1.484 . S
C5093 C1095 1.493 . S
C5148 C1334 1.400 . S
C5129 C1135 1.410 . S
C5184 C1387 1.546 . S
C5165 C1181 1.541 . S
C5220 C1419 1.473 . S
C5201 C1215 1.480 . S
C5237 C1261 1.556 . S
C5256 C1295 1.571 . S
C5273 C975 1.522 . S
C5292 C2307 1.515 . S
C5328 C2123 1.413 . S
C5309 C1015 1.422 . S
C5364 C2339 1.556 . S
C5345 C1061 1.553 . S
C5400 C2155 1.502 . S
C5381 C1101 1.487 . S
C5417 C1122 1.436 . S
C5436 C2208 1.447 . S
C5472 C2038 1.518 . S
C5453 C1175 1.520 . S
C5508 C2254 1.500 . S
C5489 C1221 1.496 . S
C5525 C1242 1.509 . S
C5544 C2070 1.526 . S
C5580 C2176 1.532 . S
C5561 C962 1.527 . S
C5616 C2017 1.421 . S
C5597 C1141 1.417 . S
C5652 C2261 1.545 . S
C5633 C1162 1.544 . S
C5669 C1202 1.497 . S
C5688 C2077 1.506 . S
C5705 C1255 1.513 . S
C5724 C2215 1.514 . S
C5741 C1055 1.527 . S
C5760 C2116 1.519 . S
C5777 C1082 1.486 . S
C5796 C2360 1.499 . S
C5832 C2300 1.432 . S
C5813 C1021 1.429 . S
