# Generated by pormake.
# Topology zzz, (3,6)-cn, num edge types: 1
# Building blocks:
#     Node 0, Type 0, BuildingBlock: BELTOD_clean_linker_0, # of connection points: 3
#     Node 1, Type 0, BuildingBlock: BELTOD_clean_linker_0, # of connection points: 3
#     Node 2, Type 0, BuildingBlock: BELTOD_clean_linker_0, # of connection points: 3
#     Node 3, Type 0, BuildingBlock: BELTOD_clean_linker_0, # of connection points: 3
#     Node 4, Type 0, BuildingBlock: BELTOD_clean_linker_0, # of connection points: 3
#     Node 5, Type 0, BuildingBlock: BELTOD_clean_linker_0, # of connection points: 3
#     Node 6, Type 0, BuildingBlock: BELTOD_clean_linker_0, # of connection points: 3
#     Node 7, Type 0, BuildingBlock: BELTOD_clean_linker_0, # of connection points: 3
#     Node 8, Type 1, BuildingBlock: PAMTUU_clean_sbu_0, # of connection points: 6
#     Node 9, Type 1, BuildingBlock: PAMTUU_clean_sbu_0, # of connection points: 6
#     Node 10, Type 1, BuildingBlock: PAMTUU_clean_sbu_0, # of connection points: 6
#     Node 11, Type 1, BuildingBlock: PAMTUU_clean_sbu_0, # of connection points: 6
#     Edge 12, Type (0, 1), BuildingBlock: UVAHIK_clean_linker_0, # of connection points: 2
#     Edge 13, Type (0, 1), BuildingBlock: UVAHIK_clean_linker_0, # of connection points: 2
#     Edge 14, Type (0, 1), BuildingBlock: UVAHIK_clean_linker_0, # of connection points: 2
#     Edge 15, Type (0, 1), BuildingBlock: UVAHIK_clean_linker_0, # of connection points: 2
#     Edge 16, Type (0, 1), BuildingBlock: UVAHIK_clean_linker_0, # of connection points: 2
#     Edge 17, Type (0, 1), BuildingBlock: UVAHIK_clean_linker_0, # of connection points: 2
#     Edge 18, Type (0, 1), BuildingBlock: UVAHIK_clean_linker_0, # of connection points: 2
#     Edge 19, Type (0, 1), BuildingBlock: UVAHIK_clean_linker_0, # of connection points: 2
#     Edge 20, Type (0, 1), BuildingBlock: UVAHIK_clean_linker_0, # of connection points: 2
#     Edge 21, Type (0, 1), BuildingBlock: UVAHIK_clean_linker_0, # of connection points: 2
#     Edge 22, Type (0, 1), BuildingBlock: UVAHIK_clean_linker_0, # of connection points: 2
#     Edge 23, Type (0, 1), BuildingBlock: UVAHIK_clean_linker_0, # of connection points: 2
#     Edge 24, Type (0, 1), BuildingBlock: UVAHIK_clean_linker_0, # of connection points: 2
#     Edge 25, Type (0, 1), BuildingBlock: UVAHIK_clean_linker_0, # of connection points: 2
#     Edge 26, Type (0, 1), BuildingBlock: UVAHIK_clean_linker_0, # of connection points: 2
#     Edge 27, Type (0, 1), BuildingBlock: UVAHIK_clean_linker_0, # of connection points: 2
#     Edge 28, Type (0, 1), BuildingBlock: UVAHIK_clean_linker_0, # of connection points: 2
#     Edge 29, Type (0, 1), BuildingBlock: UVAHIK_clean_linker_0, # of connection points: 2
#     Edge 30, Type (0, 1), BuildingBlock: UVAHIK_clean_linker_0, # of connection points: 2
#     Edge 31, Type (0, 1), BuildingBlock: UVAHIK_clean_linker_0, # of connection points: 2
#     Edge 32, Type (0, 1), BuildingBlock: UVAHIK_clean_linker_0, # of connection points: 2
#     Edge 33, Type (0, 1), BuildingBlock: UVAHIK_clean_linker_0, # of connection points: 2
#     Edge 34, Type (0, 1), BuildingBlock: UVAHIK_clean_linker_0, # of connection points: 2
#     Edge 35, Type (0, 1), BuildingBlock: UVAHIK_clean_linker_0, # of connection points: 2
# Relax obj value: 0.341
# Max RMSD: 0.246
# Mean RMSD: 0.210
data_MOF--net-zzz--node1-PAMTUU_clean_sbu_0--node2-BELTOD_clean_linker_0--edge1-UVAHIK_clean_linker_0
_symmetry_space_group_name_H-M    P1
_symmetry_Int_Tables_number       1
_symmetry_cell_setting            triclinic
loop_
_symmetry_equiv_pos_as_xyz
'x, y, z'
_cell_length_a     69.052519
_cell_length_b     71.560271
_cell_length_c     23.888794
_cell_angle_alpha  97.478141
_cell_angle_beta   90.077779
_cell_angle_gamma 90.43283
loop_
_atom_site_label
_atom_site_type_symbol
_atom_site_fract_x
_atom_site_fract_y
_atom_site_fract_z
_atom_type_partial_charge
P0 P 0.73517 0.46341 0.35469 0.0
H1 H 0.74225 0.47432 0.47552 0.0
H2 H 0.77153 0.48566 0.52679 0.0
H3 H 0.79856 0.49486 0.3696 0.0
H4 H 0.76905 0.48382 0.3187 0.0
H5 H 0.694 0.45574 0.34019 0.0
H6 H 0.66956 0.46708 0.27977 0.0
H7 H 0.71042 0.50786 0.23036 0.0
H8 H 0.735 0.49645 0.29202 0.0
H9 H 0.76212 0.4331 0.36481 0.0
H10 H 0.73761 0.46014 0.2301 0.0
O11 O 0.72482 0.45012 0.39896 0.0
H12 H 0.78468 0.41614 0.29795 0.0
H13 H 0.76032 0.44384 0.164 0.0
C14 C 0.75349 0.47802 0.39316 0.0
C15 C 0.75422 0.47934 0.45218 0.0
C16 C 0.77109 0.48564 0.48146 0.0
C17 C 0.78759 0.49075 0.45222 0.0
C18 C 0.78616 0.49105 0.39355 0.0
C19 C 0.76924 0.48476 0.36431 0.0
C20 C 0.71628 0.4754 0.32134 0.0
C21 C 0.6976 0.46754 0.31792 0.0
C22 C 0.68358 0.47404 0.28315 0.0
C23 C 0.68802 0.48836 0.25012 0.0
C24 C 0.70658 0.49674 0.25512 0.0
C25 C 0.72057 0.49038 0.29077 0.0
C26 C 0.74815 0.44788 0.30266 0.0
C27 C 0.76127 0.43506 0.32067 0.0
C28 C 0.77426 0.4255 0.28251 0.0
C29 C 0.77442 0.42875 0.22569 0.0
C30 C 0.76046 0.44081 0.20724 0.0
C31 C 0.74748 0.45031 0.24539 0.0
P32 P 0.00549 0.73136 0.37361 0.0
H33 H 0.0122 0.74386 0.49329 0.0
H34 H 0.99776 0.76954 0.55528 0.0
H35 H 0.95151 0.77245 0.43471 0.0
H36 H 0.96643 0.74695 0.37203 0.0
H37 H 0.00842 0.69074 0.37499 0.0
H38 H 0.9966 0.66388 0.31046 0.0
H39 H 0.96353 0.70149 0.22032 0.0
H40 H 0.97586 0.72839 0.28438 0.0
H41 H 0.01196 0.77213 0.3957 0.0
H42 H 0.01632 0.72859 0.25323 0.0
O43 O 0.02548 0.72379 0.40262 0.0
H44 H 0.01938 0.79593 0.33502 0.0
H45 H 0.02357 0.7526 0.19176 0.0
C46 C 0.99042 0.74346 0.42792 0.0
C47 C 0.9985 0.74941 0.48115 0.0
C48 C 0.99017 0.76419 0.51675 0.0
C49 C 0.97364 0.77333 0.49955 0.0
C50 C 0.96444 0.76595 0.44876 0.0
C51 C 0.97283 0.75116 0.41312 0.0
C52 C 0.99332 0.71158 0.3338 0.0
C53 C 0.99836 0.6932 0.34197 0.0
C54 C 0.99144 0.6778 0.30522 0.0
C55 C 0.97929 0.68054 0.25974 0.0
C56 C 0.97312 0.69893 0.25436 0.0
C57 C 0.98005 0.71432 0.29121 0.0
C58 C 0.01271 0.74859 0.32866 0.0
C59 C 0.01432 0.76763 0.35125 0.0
C60 C 0.01857 0.7813 0.31645 0.0
C61 C 0.02162 0.77619 0.25837 0.0
C62 C 0.02116 0.75698 0.23631 0.0
C63 C 0.01684 0.74327 0.27133 0.0
P64 P 0.79273 0.03226 0.36779 0.0
H65 H 0.77846 0.04417 0.48111 0.0
H66 H 0.75025 0.03438 0.53101 0.0
H67 H 0.74267 0.98618 0.40392 0.0
H68 H 0.77134 0.99598 0.35408 0.0
H69 H 0.83483 0.03071 0.38008 0.0
H70 H 0.8599 0.01864 0.31398 0.0
H71 H 0.81619 0.9903 0.20344 0.0
H72 H 0.79105 0.00306 0.26934 0.0
H73 H 0.75036 0.03375 0.34941 0.0
H74 H 0.8025 0.05208 0.27217 0.0
O75 O 0.80376 0.05048 0.40603 0.0
H76 H 0.73112 0.04388 0.27403 0.0
H77 H 0.7829 0.06273 0.19657 0.0
C78 C 0.77717 0.02077 0.4139 0.0
C79 C 0.77128 0.03108 0.46489 0.0
C80 C 0.75494 0.02559 0.49316 0.0
C81 C 0.74399 0.00973 0.47082 0.0
C82 C 0.75083 0.99845 0.42226 0.0
C83 C 0.76731 0.00397 0.39389 0.0
C84 C 0.81102 0.01791 0.32956 0.0
C85 C 0.83063 0.02148 0.34242 0.0
C86 C 0.84503 0.01449 0.30438 0.0
C87 C 0.84012 0.00373 0.25266 0.0
C88 C 0.82051 0.99889 0.24221 0.0
C89 C 0.8061 0.00594 0.28031 0.0
C90 C 0.77803 0.04171 0.31589 0.0
C91 C 0.75778 0.03991 0.31643 0.0
C92 C 0.7467 0.04576 0.27325 0.0
C93 C 0.75559 0.05383 0.22925 0.0
C94 C 0.77575 0.05651 0.23007 0.0
C95 C 0.78691 0.05041 0.27308 0.0
P96 P 0.5145 0.76912 0.2074 0.0
H97 H 0.51319 0.76285 0.3259 0.0
H98 H 0.53055 0.74113 0.37783 0.0
H99 H 0.56889 0.72746 0.23573 0.0
H100 H 0.55103 0.7488 0.18333 0.0
H101 H 0.49521 0.80378 0.19082 0.0
H102 H 0.50594 0.83227 0.15399 0.0
H103 H 0.56437 0.81102 0.14141 0.0
H104 H 0.55354 0.78248 0.17932 0.0
H105 H 0.48415 0.74083 0.1798 0.0
H106 H 0.53463 0.76089 0.09886 0.0
O107 O 0.49374 0.77343 0.24236 0.0
H108 H 0.48037 0.71524 0.10195 0.0
H109 H 0.53109 0.73514 0.0216 0.0
C110 C 0.53063 0.75733 0.25044 0.0
C111 C 0.52558 0.75551 0.30626 0.0
C112 C 0.53563 0.74311 0.33613 0.0
C113 C 0.55099 0.73232 0.3107 0.0
C114 C 0.5569 0.73527 0.25618 0.0
C115 C 0.54678 0.74763 0.22629 0.0
C116 C 0.52359 0.79108 0.18851 0.0
C117 C 0.51043 0.80539 0.18154 0.0
C118 C 0.51659 0.82172 0.16053 0.0
C119 C 0.53602 0.82391 0.1451 0.0
C120 C 0.5493 0.80968 0.15297 0.0
C121 C 0.54314 0.7934 0.17482 0.0
C122 C 0.50953 0.75291 0.14488 0.0
C123 C 0.49412 0.74004 0.14463 0.0
C124 C 0.49196 0.72543 0.10016 0.0
C125 C 0.50545 0.72325 0.0559 0.0
C126 C 0.52052 0.73652 0.05532 0.0
C127 C 0.52249 0.75128 0.09937 0.0
P128 P 0.28856 0.46792 0.14748 0.0
H129 H 0.26861 0.4444 0.05625 0.0
H130 H 0.24129 0.45099 0.99764 0.0
H131 H 0.24852 0.51054 0.05181 0.0
H132 H 0.2761 0.50384 0.1109 0.0
H133 H 0.32869 0.45493 0.13496 0.0
H134 H 0.35775 0.46665 0.18676 0.0
H135 H 0.32822 0.51828 0.24708 0.0
H136 H 0.29924 0.50664 0.19415 0.0
H137 H 0.24683 0.47517 0.16606 0.0
H138 H 0.29819 0.47265 0.26819 0.0
O139 O 0.29222 0.4447 0.14008 0.0
H140 H 0.22891 0.48841 0.24896 0.0
H141 H 0.28024 0.48635 0.3515 0.0
C142 C 0.2746 0.47362 0.08786 0.0
C143 C 0.26492 0.45896 0.05401 0.0
C144 C 0.24909 0.46272 0.0209 0.0
C145 C 0.24252 0.48125 0.02088 0.0
C146 C 0.25326 0.49612 0.05083 0.0
C147 C 0.26916 0.49231 0.0843 0.0
C148 C 0.31164 0.47978 0.16119 0.0
C149 C 0.32868 0.46912 0.15713 0.0
C150 C 0.34532 0.47581 0.18703 0.0
C151 C 0.3451 0.49321 0.22195 0.0
C152 C 0.3287 0.50471 0.22106 0.0
C153 C 0.3122 0.49815 0.1902 0.0
C154 C 0.27419 0.47383 0.21021 0.0
C155 C 0.25436 0.47751 0.2061 0.0
C156 C 0.24407 0.48514 0.25367 0.0
C157 C 0.25336 0.48902 0.30633 0.0
C158 C 0.27276 0.48373 0.31134 0.0
C159 C 0.28305 0.47601 0.26363 0.0
P160 P 0.11143 0.25748 0.18922 0.0
H161 H 0.12545 0.24011 0.0793 0.0
H162 H 0.11022 0.21699 0.00893 0.0
H163 H 0.05492 0.22785 0.09076 0.0
H164 H 0.07045 0.25046 0.16239 0.0
H165 H 0.13024 0.28375 0.27386 0.0
H166 H 0.12066 0.3139 0.32522 0.0
H167 H 0.06933 0.31345 0.2214 0.0
H168 H 0.07938 0.2834 0.1688 0.0
H169 H 0.12501 0.22045 0.20859 0.0
H170 H 0.08187 0.26016 0.27785 0.0
O171 O 0.13534 0.25629 0.17924 0.0
H172 H 0.1117 0.19691 0.26389 0.0
H173 H 0.06838 0.23674 0.33238 0.0
C174 C 0.0991 0.24721 0.12598 0.0
C175 C 0.10992 0.2381 0.08098 0.0
C176 C 0.10115 0.22479 0.04059 0.0
C177 C 0.08137 0.2203 0.04463 0.0
C178 C 0.07025 0.23071 0.08695 0.0
C179 C 0.07907 0.24394 0.12744 0.0
C180 C 0.10559 0.28134 0.21742 0.0
C181 C 0.11715 0.29033 0.2612 0.0
C182 C 0.11153 0.30748 0.29099 0.0
C183 C 0.09407 0.31594 0.27798 0.0
C184 C 0.08289 0.30732 0.23232 0.0
C185 C 0.08858 0.29008 0.20233 0.0
C186 C 0.10474 0.24218 0.24007 0.0
C187 C 0.11305 0.22428 0.23693 0.0
C188 C 0.10527 0.21078 0.26801 0.0
C189 C 0.08894 0.21495 0.30237 0.0
C190 C 0.08114 0.23317 0.30703 0.0
C191 C 0.0889 0.24662 0.27586 0.0
P192 P 0.24177 0.03996 0.1709 0.0
H193 H 0.24944 0.04825 0.05583 0.0
H194 H 0.27584 0.03887 0.99083 0.0
H195 H 0.29409 0.99805 0.09842 0.0
H196 H 0.26675 0.0065 0.16021 0.0
H197 H 0.20477 0.05857 0.19346 0.0
H198 H 0.17548 0.04827 0.23641 0.0
H199 H 0.19617 0.99094 0.2132 0.0
H200 H 0.22592 0.0016 0.17067 0.0
H201 H 0.28214 0.04696 0.20365 0.0
H202 H 0.22985 0.02989 0.28283 0.0
O203 O 0.24048 0.06277 0.1633 0.0
H204 H 0.30118 0.03794 0.28194 0.0
H205 H 0.24877 0.02095 0.36065 0.0
C206 C 0.25635 0.02842 0.11369 0.0
C207 C 0.25873 0.03682 0.06431 0.0
C208 C 0.27416 0.03164 0.02761 0.0
C209 C 0.2878 0.01817 0.04007 0.0
C210 C 0.28414 0.00851 0.08689 0.0
C211 C 0.26841 0.0134 0.12273 0.0
C212 C 0.21754 0.03085 0.17818 0.0
C213 C 0.20274 0.04364 0.19522 0.0
C214 C 0.18588 0.03769 0.22018 0.0
C215 C 0.18345 0.01877 0.22913 0.0
C216 C 0.19765 0.00567 0.2078 0.0
C217 C 0.21454 0.01167 0.18246 0.0
C218 C 0.25467 0.03827 0.23577 0.0
C219 C 0.2747 0.04161 0.23825 0.0
C220 C 0.28556 0.03655 0.2832 0.0
C221 C 0.27646 0.02831 0.32667 0.0
C222 C 0.25619 0.02678 0.32686 0.0
C223 C 0.24536 0.03185 0.28196 0.0
P224 P 0.4258 0.23132 0.3419 0.0
H225 H 0.39725 0.24789 0.27426 0.0
H226 H 0.40108 0.26811 0.20061 0.0
H227 H 0.46198 0.25471 0.18956 0.0
H228 H 0.45775 0.23367 0.26168 0.0
H229 H 0.44934 0.22186 0.43554 0.0
H230 H 0.46426 0.19305 0.45577 0.0
H231 H 0.44527 0.16482 0.29401 0.0
H232 H 0.43046 0.19437 0.27293 0.0
H233 H 0.40768 0.25857 0.42903 0.0
H234 H 0.46444 0.24745 0.35784 0.0
O235 O 0.40269 0.22732 0.35735 0.0
H236 H 0.42073 0.2858 0.49056 0.0
H237 H 0.47738 0.27492 0.41696 0.0
C238 C 0.4272 0.23922 0.27347 0.0
C239 C 0.41126 0.2486 0.25431 0.0
C240 C 0.41355 0.26045 0.21273 0.0
C241 C 0.43195 0.26347 0.19023 0.0
C242 C 0.4476 0.25275 0.20593 0.0
C243 C 0.44521 0.24068 0.24723 0.0
C244 C 0.43933 0.21054 0.3517 0.0
C245 C 0.44889 0.2098 0.40319 0.0
C246 C 0.45742 0.19319 0.41499 0.0
C247 C 0.45618 0.17671 0.37621 0.0
C248 C 0.44655 0.17736 0.32451 0.0
C249 C 0.43822 0.19422 0.3123 0.0
C250 C 0.43512 0.25099 0.38905 0.0
C251 C 0.42293 0.26198 0.42665 0.0
C252 C 0.4304 0.27761 0.4615 0.0
C253 C 0.45013 0.28252 0.45885 0.0
C254 C 0.46221 0.27138 0.42097 0.0
C255 C 0.45478 0.25577 0.38655 0.0
Tb256 Tb 0.99821 0.00834 0.7021 0.0
Tb257 Tb 0.03089 0.99251 0.78379 0.0
C258 C 0.98717 0.99873 0.82224 0.0
C259 C 0.97826 0.04021 0.61155 0.0
C260 C 0.9877 0.07167 0.55702 0.0
C261 C 0.97517 0.0575 0.53106 0.0
C262 C 0.97047 0.04187 0.55823 0.0
C263 C 0.99039 0.05454 0.63799 0.0
C264 C 0.99498 0.07015 0.61117 0.0
C265 C 0.97566 0.02275 0.63705 0.0
O266 O 0.00794 0.03209 0.76186 0.0
O267 O 0.03823 0.02206 0.7828 0.0
O268 O 0.0429 0.98985 0.6987 0.0
O269 O 0.0263 0.01371 0.66622 0.0
O270 O 0.04533 0.99385 0.86178 0.0
O271 O 0.05283 0.97295 0.79202 0.0
O272 O 0.01089 0.96934 0.76062 0.0
O273 O 0.9993 0.97793 0.67774 0.0
O274 O 0.98155 0.99834 0.76948 0.0
O275 O 0.00559 -0.00014 0.83673 0.0
C276 C 0.02558 0.0356 0.78128 0.0
O277 O 0.9879 0.00947 0.6198 0.0
O278 O 0.97378 0.02487 0.69183 0.0
C279 C 0.04087 0.00199 0.66243 0.0
C280 C 0.05288 0.96337 0.8816 0.0
C281 C 0.04901 0.93201 0.94097 0.0
C282 C 0.06744 0.93947 0.93119 0.0
C283 C 0.06934 0.95502 0.90158 0.0
C284 C 0.03445 0.95624 0.89221 0.0
C285 C 0.03253 0.94073 0.92173 0.0
C286 C 0.05491 0.97844 0.84583 0.0
C287 C 1.00215 0.96518 0.7118 0.0
H288 H 0.9693 0.05834 0.48941 0.0
H289 H 0.96127 0.03083 0.53694 0.0
H290 H 0.99689 0.05337 0.67862 0.0
H291 H 0.00496 0.0806 0.63186 0.0
H292 H 0.08042 0.93297 0.94493 0.0
H293 H 0.08367 0.96024 0.89316 0.0
H294 H 0.02157 0.96247 0.87675 0.0
H295 H 0.01813 0.93552 0.92928 0.0
Tb296 Tb 0.50879 0.98303 0.69862 0.0
Tb297 Tb 0.52402 0.01578 0.7977 0.0
C298 C 0.52572 0.9734 0.81053 0.0
C299 C 0.47407 0.95676 0.60724 0.0
C300 C 0.43471 0.95409 0.57719 0.0
C301 C 0.44782 0.9403 0.55358 0.0
C302 C 0.46744 0.94157 0.56889 0.0
C303 C 0.46102 0.97053 0.63042 0.0
C304 C 0.44154 0.96918 0.61578 0.0
C305 C 0.49437 0.95852 0.62498 0.0
O306 O 0.48507 0.98727 0.75911 0.0
O307 O 0.49263 0.01653 0.80642 0.0
O308 O 0.52247 0.02776 0.71874 0.0
O309 O 0.49727 0.00976 0.68063 0.0
O310 O 0.53784 0.02279 0.87569 0.0
O311 O 0.52696 0.04452 0.82971 0.0
O312 O 0.55024 0.00405 0.75661 0.0
O313 O 0.53758 0.99058 0.67142 0.0
O314 O 0.52709 0.96974 0.75554 0.0
O315 O 0.51941 0.98979 0.83404 0.0
C316 C 0.48031 0.00256 0.79287 0.0
O317 O 0.50318 0.9737 0.61308 0.0
O318 O 0.49738 0.95577 0.67717 0.0
C319 C 0.5078 0.02515 0.68362 0.0
C320 C 0.55601 0.05071 0.88089 0.0
C321 C 0.59257 0.06722 0.90791 0.0
C322 C 0.57561 0.07556 0.93208 0.0
C323 C 0.55748 0.0673 0.91883 0.0
C324 C 0.57271 0.04297 0.85409 0.0
C325 C 0.59083 0.05108 0.86763 0.0
C326 C 0.53733 0.04081 0.87243 0.0
C327 C 0.5524 0.99681 0.70345 0.0
H328 H 0.44289 0.92858 0.52352 0.0
H329 H 0.47738 0.93081 0.55077 0.0
H330 H 0.46595 0.98245 0.65967 0.0
H331 H 0.43192 0.98027 0.63361 0.0
H332 H 0.57638 0.08816 0.96248 0.0
H333 H 0.54468 0.07354 0.93953 0.0
H334 H 0.57184 0.03018 0.82447 0.0
H335 H 0.60352 0.04409 0.84866 0.0
Tb336 Tb 0.49818 0.49327 0.78764 0.0
Tb337 Tb 0.53212 0.50309 0.69785 0.0
C338 C 0.48852 0.50286 0.66436 0.0
C339 C 0.47114 0.46529 0.88198 0.0
C340 C 0.46623 0.43106 0.9274 0.0
C341 C 0.4505 0.44326 0.92381 0.0
C342 C 0.45295 0.4602 0.90127 0.0
C343 C 0.48698 0.45337 0.88632 0.0
C344 C 0.48457 0.43643 0.90906 0.0
C345 C 0.47301 0.48212 0.85295 0.0
O346 O 0.51446 0.4679 0.76283 0.0
O347 O 0.52365 0.4737 0.67495 0.0
O348 O 0.54677 0.49231 0.76754 0.0
O349 O 0.52438 0.50084 0.83658 0.0
O350 O 0.54249 0.50211 0.61479 0.0
O351 O 0.55983 0.51406 0.68573 0.0
O352 O 0.52492 0.52964 0.74866 0.0
O353 O 0.49506 0.52325 0.786 0.0
O354 O 0.48451 0.49257 0.70474 0.0
O355 O 0.50526 0.51148 0.66179 0.0
C356 C 0.51922 0.46187 0.71067 0.0
O357 O 0.48692 0.49394 0.86976 0.0
O358 O 0.47218 0.47882 0.79817 0.0
C359 C 0.54221 0.49651 0.82103 0.0
C360 C 0.56082 0.52923 0.60487 0.0
C361 C 0.56709 0.56319 0.55964 0.0
C362 C 0.57932 0.54769 0.54495 0.0
C363 C 0.57625 0.53083 0.56774 0.0
C364 C 0.54835 0.54451 0.61852 0.0
C365 C 0.55151 0.56137 0.59638 0.0
C366 C 0.55791 0.51197 0.631 0.0
C367 C 0.50868 0.53509 0.7745 0.0
H368 H 0.43625 0.43966 0.93824 0.0
H369 H 0.44054 0.46916 0.89788 0.0
H370 H 0.50111 0.45697 0.87098 0.0
H371 H 0.49692 0.42729 0.91071 0.0
H372 H 0.59145 0.54873 0.51682 0.0
H373 H 0.58601 0.51914 0.55682 0.0
H374 H 0.53623 0.54341 0.64666 0.0
H375 H 0.54166 0.57296 0.6077 0.0
Tb376 Tb 0.02153 0.51528 0.70807 0.0
Tb377 Tb 0.00812 0.48288 0.7861 0.0
C378 C 1.00092 0.52543 0.82568 0.0
C379 C 0.05528 0.54153 0.63328 0.0
C380 C 0.09521 0.54585 0.61577 0.0
C381 C 0.08269 0.5612 0.61442 0.0
C382 C 0.06281 0.55907 0.62364 0.0
C383 C 0.06771 0.5261 0.63287 0.0
C384 C 0.08747 0.52825 0.62428 0.0
C385 C 0.0352 0.53963 0.65141 0.0
O386 O 0.04815 0.50474 0.74106 0.0
O387 O 0.03602 0.49358 0.8198 0.0
O388 O 0.02785 0.46971 0.72242 0.0
O389 O 0.02159 0.48835 0.65412 0.0
O390 O 0.00358 0.4737 0.86513 0.0
O391 O 0.99919 0.45492 0.78773 0.0
O392 O 0.98465 0.48513 0.7259 0.0
O393 O 0.9902 0.51472 0.70079 0.0
O394 O 0.01465 0.52951 0.79126 0.0
O395 O 0.99378 0.50834 0.82393 0.0
C396 C 0.05065 0.49932 0.791 0.0
O397 O 0.02598 0.52452 0.62895 0.0
O398 O 0.03296 0.54243 0.70586 0.0
C399 C 0.02775 0.47246 0.66925 0.0
C400 C 0.97857 0.45122 0.86334 0.0
C401 C 0.94283 0.43948 0.90391 0.0
C402 C 0.96034 0.43247 0.92273 0.0
C403 C 0.97806 0.43829 0.90251 0.0
C404 C 0.96121 0.45826 0.84427 0.0
C405 C 0.94348 0.4524 0.86425 0.0
C406 C 0.99724 0.45723 0.84245 0.0
C407 C 0.9789 0.49997 0.70314 0.0
H408 H 0.08833 0.5749 0.60776 0.0
H409 H 0.05342 0.57118 0.62471 0.0
H410 H 0.0622 0.51246 0.64064 0.0
H411 H 0.09672 0.51608 0.62432 0.0
H412 H 0.96037 0.42275 0.95391 0.0
H413 H 0.99138 0.43278 0.9177 0.0
H414 H 0.9614 0.46828 0.81393 0.0
H415 H 0.93028 0.4579 0.84841 0.0
C416 C 0.14907 0.02189 0.26503 0.0
C417 C 0.16738 0.01342 0.26605 0.0
C418 C 0.13494 0.01897 0.30509 0.0
C419 C 0.13032 0.00492 0.44894 0.0
H420 H 0.07541 0.00389 0.41458 0.0
C421 C 0.07192 0.99122 0.61364 0.0
C422 C 0.05526 0.00249 0.61626 0.0
C423 C 0.08537 0.99163 0.56992 0.0
C424 C 0.09069 0.00431 0.42499 0.0
H425 H 0.18478 0.99463 0.30944 0.0
H426 H 0.15998 0.98902 0.37774 0.0
H427 H 0.09888 0.00537 0.33901 0.0
H428 H 0.03974 0.02304 0.57447 0.0
H429 H 0.06318 0.02377 0.4985 0.0
H430 H 0.12209 0.00382 0.53491 0.0
C431 C 0.15666 0.99828 0.34669 0.0
C432 C 0.10418 0.00517 0.3816 0.0
C433 C 0.17082 0.00126 0.30675 0.0
C434 C 0.05239 0.01416 0.57392 0.0
C435 C 0.06578 0.01448 0.53003 0.0
C436 C 0.11683 0.00395 0.49224 0.0
C437 C 0.13866 0.00742 0.34726 0.0
C438 C 0.12421 0.00561 0.39296 0.0
C439 C 0.08246 0.00324 0.52745 0.0
C440 C 0.09683 0.00376 0.48095 0.0
H441 H 0.14577 0.03117 0.23399 0.0
H442 H 0.12134 0.02636 0.30417 0.0
H443 H 0.14556 0.0056 0.45975 0.0
H444 H 0.07462 0.98204 0.6454 0.0
H445 H 0.09795 0.98265 0.56899 0.0
C446 C 0.48185 0.15877 0.41994 0.0
C447 C 0.46383 0.15885 0.39259 0.0
C448 C 0.48766 0.14311 0.44478 0.0
C449 C 0.47772 0.09268 0.45447 0.0
H450 H 0.49763 0.1057 0.60655 0.0
C451 C 0.4869 0.03777 0.61117 0.0
C452 C 0.50328 0.03964 0.64661 0.0
C453 C 0.48258 0.05161 0.57679 0.0
C454 C 0.49237 0.10177 0.56388 0.0
H455 H 0.43825 0.14217 0.36699 0.0
H456 H 0.44843 0.11468 0.41043 0.0
H457 H 0.48987 0.13056 0.55019 0.0
H458 H 0.52814 0.05738 0.67281 0.0
H459 H 0.52078 0.08128 0.61249 0.0
H460 H 0.48019 0.06381 0.46852 0.0
C461 C 0.4581 0.12674 0.41243 0.0
C462 C 0.48792 0.11604 0.5315 0.0
C463 C 0.45228 0.14246 0.38743 0.0
C464 C 0.51533 0.05554 0.64639 0.0
C465 C 0.51105 0.06932 0.61194 0.0
C466 C 0.48226 0.07833 0.48691 0.0
C467 C 0.47557 0.12715 0.44297 0.0
C468 C 0.48059 0.1117 0.47636 0.0
C469 C 0.49455 0.06761 0.577 0.0
C470 C 0.48968 0.08272 0.54202 0.0
H471 H 0.49119 0.17111 0.42382 0.0
H472 H 0.50142 0.14371 0.46681 0.0
H473 H 0.47219 0.08887 0.41203 0.0
H474 H 0.47729 0.0257 0.61032 0.0
H475 H 0.46964 0.04994 0.55091 0.0
C476 C 0.35559 0.50239 0.32208 0.0
C477 C 0.36059 0.49791 0.26496 0.0
C478 C 0.36987 0.50458 0.36406 0.0
C479 C 0.4218 0.49314 0.38859 0.0
H480 H 0.41317 0.52485 0.53064 0.0
C481 C 0.48 0.50814 0.56547 0.0
C482 C 0.47406 0.50408 0.61893 0.0
C483 C 0.46655 0.5084 0.52165 0.0
C484 C 0.41574 0.51591 0.49119 0.0
H485 H 0.38454 0.49282 0.20683 0.0
H486 H 0.40963 0.49763 0.27961 0.0
H487 H 0.38959 0.52453 0.45449 0.0
H488 H 0.44925 0.49755 0.66859 0.0
H489 H 0.42565 0.49863 0.59239 0.0
H490 H 0.44836 0.4851 0.42539 0.0
C491 C 0.39463 0.49881 0.29253 0.0
C492 C 0.40215 0.51559 0.44746 0.0
C493 C 0.38027 0.49625 0.25056 0.0
C494 C 0.45429 0.50069 0.62789 0.0
C495 C 0.44078 0.50137 0.58439 0.0
C496 C 0.43557 0.49379 0.43194 0.0
C497 C 0.38964 0.50267 0.35014 0.0
C498 C 0.40481 0.50399 0.39563 0.0
C499 C 0.4468 0.50503 0.53067 0.0
C500 C 0.43256 0.50499 0.48391 0.0
H501 H 0.34052 0.50336 0.33461 0.0
H502 H 0.36523 0.5071 0.40762 0.0
H503 H 0.42434 0.48372 0.35012 0.0
H504 H 0.49513 0.51073 0.55706 0.0
H505 H 0.47156 0.51133 0.48071 0.0
C506 C 0.08895 0.33418 0.37342 0.0
C507 C 0.08718 0.33302 0.31444 0.0
C508 C 0.08286 0.35017 0.4084 0.0
C509 C 0.05126 0.39173 0.41401 0.0
H510 H 0.08257 0.40929 0.54561 0.0
C511 C 0.03361 0.45923 0.56802 0.0
C512 C 0.03499 0.45746 0.62586 0.0
C513 C 0.04033 0.44491 0.5273 0.0
C514 C 0.0736 0.40449 0.50925 0.0
H515 H 0.07732 0.3477 0.24599 0.0
H516 H 0.06669 0.37585 0.3074 0.0
H517 H 0.09362 0.38289 0.47897 0.0
H518 H 0.04458 0.43923 0.68613 0.0
H519 H 0.05625 0.41437 0.61531 0.0
H520 H 0.0312 0.41339 0.44476 0.0
C521 C 0.07272 0.36425 0.32645 0.0
C522 C 0.07991 0.38934 0.47105 0.0
C523 C 0.07882 0.34815 0.29129 0.0
C524 C 0.0433 0.4411 0.64201 0.0
C525 C 0.05011 0.42688 0.6014 0.0
C526 C 0.04496 0.40697 0.45224 0.0
C527 C 0.07483 0.36549 0.38545 0.0
C528 C 0.06867 0.38255 0.42348 0.0
C529 C 0.04871 0.4286 0.54358 0.0
C530 C 0.05592 0.41331 0.50078 0.0
H531 H 0.09487 0.32258 0.39275 0.0
H532 H 0.08425 0.35041 0.45366 0.0
H533 H 0.04218 0.38676 0.37807 0.0
H534 H 0.02729 0.47164 0.55411 0.0
H535 H 0.03918 0.4467 0.48309 0.0
C536 C 0.87429 0.99516 0.22187 0.0
C537 C 0.85512 0.9993 0.20791 0.0
C538 C 0.88876 0.99315 0.1805 0.0
C539 C 0.89687 0.9852 0.02558 0.0
H540 H 0.94553 0.01131 0.06265 0.0
C541 C 0.95248 0.99856 0.85407 0.0
C542 C 0.97231 0.99758 0.86671 0.0
C543 C 0.93848 0.99757 0.89595 0.0
C544 C 0.93217 0.00368 0.0517 0.0
H545 H 0.83625 0.00428 0.13868 0.0
H546 H 0.86132 0.0005 0.06681 0.0
H547 H 0.9207 0.01095 0.13489 0.0
H548 H 0.99291 0.99448 0.9335 0.0
H549 H 0.96853 0.99248 0.00619 0.0
H550 H 0.90828 0.97795 0.94237 0.0
C551 C 0.86515 0.99864 0.10971 0.0
C552 C 0.9179 0.00348 0.09323 0.0
C553 C 0.85072 0.00074 0.15106 0.0
C554 C 0.97778 0.99544 0.92226 0.0
C555 C 0.96377 0.99438 0.9641 0.0
C556 C 0.91116 0.98532 0.9841 0.0
C557 C 0.88442 0.99514 0.12402 0.0
C558 C 0.9 0.99438 0.08059 0.0
C559 C 0.94392 0.99548 0.95159 0.0
C560 C 0.92895 0.99472 0.99641 0.0
H561 H 0.8782 0.99366 0.26496 0.0
H562 H 0.9034 0.99015 0.19282 0.0
H563 H 0.88336 0.97783 0.01459 0.0
H564 H 0.9477 0.00027 0.81184 0.0
H565 H 0.92338 0.99877 0.88481 0.0
C566 C 0.55218 0.8377 0.06593 0.0
C567 C 0.54177 0.84034 0.11681 0.0
C568 C 0.55486 0.85266 0.03441 0.0
C569 C 0.55153 0.9045 0.03879 0.0
H570 H 0.53548 0.89245 0.88258 0.0
C571 C 0.52686 0.96127 0.90421 0.0
C572 C 0.53102 0.9588 0.84618 0.0
C573 C 0.5313 0.9472 0.93749 0.0
C574 C 0.54038 0.89606 0.92574 0.0
H575 H 0.5272 0.8609 0.17656 0.0
H576 H 0.53187 0.88702 0.12158 0.0
H577 H 0.53885 0.86732 0.94119 0.0
H578 H 0.54372 0.93988 0.77792 0.0
H579 H 0.5518 0.91551 0.83612 0.0
H580 H 0.5528 0.9333 0.02352 0.0
C581 C 0.53794 0.87343 0.10596 0.0
C582 C 0.54232 0.88162 0.95936 0.0
C583 C 0.53514 0.85845 0.13724 0.0
C584 C 0.54013 0.94215 0.8224 0.0
C585 C 0.5447 0.92814 0.85575 0.0
C586 C 0.54972 0.91896 0.00502 0.0
C587 C 0.54733 0.87056 0.05341 0.0
C588 C 0.54758 0.88571 0.0165 0.0
C589 C 0.54015 0.93039 0.9136 0.0
C590 C 0.54377 0.91495 0.94834 0.0
H591 H 0.55735 0.82387 0.049 0.0
H592 H 0.56233 0.8501 0.99432 0.0
H593 H 0.55581 0.90804 0.08255 0.0
H594 H 0.51981 0.97392 0.92383 0.0
H595 H 0.52731 0.94931 0.98167 0.0
C596 C 0.67961 0.49446 0.15169 0.0
C597 C 0.67378 0.49321 0.20748 0.0
C598 C 0.66587 0.4965 0.10975 0.0
C599 C 0.61498 0.50984 0.08608 0.0
H600 H 0.62025 0.47664 0.94524 0.0
C601 C 0.55273 0.49864 0.92249 0.0
C602 C 0.55753 0.49651 0.86482 0.0
C603 C 0.56719 0.49902 0.96378 0.0
C604 C 0.61865 0.48623 0.9839 0.0
H605 H 0.64903 0.49409 0.26343 0.0
H606 H 0.62509 0.4977 0.19038 0.0
H607 H 0.64511 0.47695 0.01777 0.0
H608 H 0.58141 0.49325 0.80554 0.0
H609 H 0.60659 0.49425 0.87738 0.0
H610 H 0.58856 0.51917 0.05227 0.0
C611 C 0.64027 0.49707 0.17897 0.0
C612 C 0.63295 0.4864 0.02557 0.0
C613 C 0.65398 0.49488 0.22079 0.0
C614 C 0.57715 0.49477 0.84951 0.0
C615 C 0.59162 0.49526 0.89082 0.0
C616 C 0.60074 0.50976 0.04426 0.0
C617 C 0.646 0.49751 0.12268 0.0
C618 C 0.63124 0.49811 0.07734 0.0
C619 C 0.58686 0.4974 0.94858 0.0
C620 C 0.60229 0.49785 0.9927 0.0
H621 H 0.69472 0.49305 0.1399 0.0
H622 H 0.6708 0.49702 0.06695 0.0
H623 H 0.61333 0.51919 0.1252 0.0
H624 H 0.53777 0.49993 0.93588 0.0
H625 H 0.56289 0.50036 0.00769 0.0
C626 C 0.97688 0.66742 0.15764 0.0
C627 C 0.97514 0.66466 0.21461 0.0
C628 C 0.97617 0.65213 0.11501 0.0
C629 C 0.96314 0.60195 0.07873 0.0
H630 H 0.00679 0.60217 0.9769 0.0
C631 C 0.98594 0.53697 0.91967 0.0
C632 C 0.99393 0.54073 0.86819 0.0
C633 C 0.98126 0.55184 0.9616 0.0
C634 C 0.9943 0.60196 0.00418 0.0
H635 H 0.96992 0.64377 0.2711 0.0
H636 H 0.9688 0.61693 0.1962 0.0
H637 H 1.00206 0.62865 0.04968 0.0
H638 H 1.00195 0.56288 0.81857 0.0
H639 H 0.99323 0.5886 0.89027 0.0
H640 H 0.95537 0.57517 0.03266 0.0
C641 C 0.97073 0.63099 0.1848 0.0
C642 C 0.99163 0.61717 0.04607 0.0
C643 C 0.97153 0.64633 0.22765 0.0
C644 C 0.99617 0.55953 0.85826 0.0
C645 C 0.99126 0.57429 0.89957 0.0
C646 C 0.96571 0.58671 0.03622 0.0
C647 C 0.97368 0.63371 0.12823 0.0
C648 C 0.97599 0.61741 0.08361 0.0
C649 C 0.98429 0.57068 0.95242 0.0
C650 C 0.98128 0.58661 0.9982 0.0
H651 H 0.97987 0.68129 0.14601 0.0
H652 H 0.97823 0.65467 0.07167 0.0
H653 H 0.95096 0.60179 0.10719 0.0
H654 H 0.98405 0.5226 0.92841 0.0
H655 H 0.97599 0.54853 0.00186 0.0
C656 C 0.07145 0.20387 0.38429 0.0
C657 C 0.07905 0.19999 0.3295 0.0
C658 C 0.0609 0.19012 0.40796 0.0
C659 C 0.0517 0.1388 0.39425 0.0
H660 H 0.0048 0.15344 0.47727 0.0
C661 C 1.00063 0.08354 0.47015 0.0
C662 C 0.99452 0.08726 0.52656 0.0
C663 C 0.00953 0.09765 0.44378 0.0
C664 C 0.01792 0.14916 0.4545 0.0
H665 H 0.08148 0.17867 0.25654 0.0
H666 H 0.06317 0.15471 0.29785 0.0
H667 H 0.02401 0.17724 0.43745 0.0
H668 H 0.99194 0.10894 0.59848 0.0
H669 H 0.00768 0.13351 0.55267 0.0
H670 H 0.04569 0.11075 0.41148 0.0
C671 C 0.0656 0.16826 0.32289 0.0
C672 C 0.02896 0.16279 0.43186 0.0
C673 C 0.07614 0.18199 0.29927 0.0
C674 C 0.99668 0.10561 0.55514 0.0
C675 C 0.00555 0.11972 0.52875 0.0
C676 C 0.04066 0.12517 0.41682 0.0
C677 C 0.05771 0.17222 0.37731 0.0
C678 C 0.046 0.15777 0.4016 0.0
C679 C 0.01247 0.11577 0.47321 0.0
C680 C 0.02367 0.1302 0.4473 0.0
H681 H 0.07362 0.21755 0.40884 0.0
H682 H 0.05529 0.1935 0.45036 0.0
H683 H 0.06489 0.13451 0.37187 0.0
H684 H 0.99931 0.06951 0.44714 0.0
H685 H 0.01446 0.09426 0.40065 0.0
C686 C 0.30492 0.0283 0.39198 0.0
C687 C 0.28818 0.01939 0.36767 0.0
C688 C 0.31726 0.01873 0.42459 0.0
C689 C 0.33289 0.97102 0.43635 0.0
H690 H 0.36013 0.99508 0.56874 0.0
C691 C 0.40942 0.95153 0.5016 0.0
C692 C 0.4142 0.9539 0.55922 0.0
C693 C 0.39077 0.95558 0.48425 0.0
C694 C 0.35241 0.98799 0.53245 0.0
H695 H 0.27093 0.9937 0.35973 0.0
H696 H 0.29246 0.97705 0.417 0.0
H697 H 0.33318 0.01122 0.5304 0.0
H698 H 0.40283 0.96035 0.64405 0.0
H699 H 0.37023 0.96743 0.61369 0.0
H700 H 0.35257 0.94806 0.43734 0.0
C701 C 0.29602 0.9914 0.41073 0.0
C702 C 0.33713 0.99734 0.5102 0.0
C703 C 0.28362 0.00101 0.37846 0.0
C704 C 0.39958 0.95875 0.59928 0.0
C705 C 0.38097 0.96282 0.58197 0.0
C706 C 0.34827 0.96171 0.45842 0.0
C707 C 0.31316 3e-05 0.43311 0.0
C708 C 0.32753 0.98914 0.46118 0.0
C709 C 0.37662 0.96205 0.52429 0.0
C710 C 0.35846 0.9703 0.50592 0.0
H711 H 0.30871 0.04248 0.38455 0.0
H712 H 0.33047 0.02567 0.44096 0.0
H713 H 0.32582 0.96442 0.39825 0.0
H714 H 0.42043 0.94792 0.46985 0.0
H715 H 0.38788 0.95498 0.43947 0.0
C716 C 0.47687 0.2994 0.51679 0.0
C717 C 0.4581 0.29953 0.4938 0.0
C718 C 0.48501 0.31581 0.5456 0.0
C719 C 0.47312 0.3623 0.62058 0.0
H720 H 0.52442 0.37686 0.57509 0.0
C721 C 0.52003 0.43448 0.63373 0.0
C722 C 0.51725 0.4415 0.69084 0.0
C723 C 0.51518 0.4158 0.61369 0.0
C724 C 0.51012 0.37292 0.58827 0.0
H725 H 0.43305 0.31699 0.48424 0.0
H726 H 0.44715 0.34553 0.53565 0.0
H727 H 0.51035 0.34672 0.53349 0.0
H728 H 0.50841 0.43404 0.77244 0.0
H729 H 0.49996 0.40158 0.73732 0.0
H730 H 0.47267 0.3886 0.67445 0.0
C731 C 0.45551 0.33268 0.53132 0.0
C732 C 0.50214 0.35565 0.56485 0.0
C733 C 0.44742 0.31631 0.50204 0.0
C734 C 0.51059 0.42917 0.72807 0.0
C735 C 0.50565 0.41058 0.70799 0.0
C736 C 0.48116 0.37945 0.64439 0.0
C737 C 0.47448 0.33264 0.55261 0.0
C738 C 0.48346 0.35031 0.58026 0.0
C739 C 0.50739 0.40386 0.65038 0.0
C740 C 0.49965 0.38503 0.62798 0.0
H741 H 0.48534 0.28662 0.5122 0.0
H742 H 0.49956 0.31536 0.56234 0.0
H743 H 0.45874 0.35845 0.63343 0.0
H744 H 0.52516 0.4436 0.604 0.0
H745 H 0.5166 0.41099 0.56899 0.0
C746 C 0.23126 0.51474 0.34658 0.0
C747 C 0.24295 0.49935 0.35484 0.0
C748 C 0.22042 0.5239 0.39084 0.0
C749 C 0.19681 0.51373 0.51947 0.0
H750 H 0.18212 0.56625 0.52819 0.0
C751 C 0.1294 0.53932 0.64085 0.0
C752 C 0.11627 0.54771 0.60682 0.0
C753 C 0.14892 0.53783 0.62623 0.0
C754 C 0.1862 0.5516 0.52663 0.0
H755 H 0.25326 0.48211 0.41671 0.0
H756 H 0.23434 0.4983 0.49467 0.0
H757 H 0.21018 0.55485 0.47195 0.0
H758 H 0.11344 0.56249 0.53372 0.0
H759 H 0.14752 0.55972 0.50763 0.0
H760 H 0.17238 0.5102 0.57172 0.0
C761 C 0.23343 0.5031 0.45358 0.0
C762 C 0.20222 0.54506 0.49441 0.0
C763 C 0.24431 0.49388 0.40909 0.0
C764 C 0.12328 0.55599 0.56068 0.0
C765 C 0.14282 0.55445 0.54592 0.0
C766 C 0.18088 0.52027 0.55182 0.0
C767 C 0.22106 0.51796 0.44459 0.0
C768 C 0.20716 0.52587 0.48853 0.0
C769 C 0.15566 0.54466 0.57723 0.0
C770 C 0.17493 0.53909 0.55384 0.0
H771 H 0.23025 0.51954 0.3055 0.0
H772 H 0.21087 0.53512 0.38214 0.0
H773 H 0.20007 0.49883 0.51546 0.0
H774 H 0.12439 0.53317 0.6774 0.0
H775 H 0.15856 0.53052 0.65168 0.0
C776 C 0.01318 0.8073 0.22806 0.0
C777 C 0.02465 0.79102 0.22115 0.0
C778 C 0.01607 0.82153 0.19414 0.0
C779 C 0.01785 0.8444 0.09627 0.0
H780 H 0.0701 0.86123 0.06894 0.0
C781 C 0.03341 0.9008 0.95034 0.0
C782 C 0.04694 0.91494 0.96989 0.0
C783 C 0.03119 0.88485 0.97783 0.0
C784 C 0.05542 0.85672 0.07639 0.0
H785 H 0.04807 0.77684 0.17293 0.0
H786 H 0.05306 0.80176 0.11308 0.0
H787 H 0.06504 0.83482 0.12279 0.0
H788 H 0.06883 0.92334 0.03358 0.0
H789 H 0.06494 0.89547 0.08168 0.0
H790 H 0.00818 0.86654 0.05121 0.0
C791 C 0.04192 0.80351 0.14518 0.0
C792 C 0.05253 0.84147 0.10666 0.0
C793 C 0.03896 0.78919 0.17905 0.0
C794 C 0.05842 0.91262 0.01712 0.0
C795 C 0.0562 0.89664 0.04462 0.0
C796 C 0.02073 0.85958 0.06589 0.0
C797 C 0.03051 0.81985 0.15244 0.0
C798 C 0.0337 0.83528 0.11744 0.0
C799 C 0.04247 0.88263 0.02549 0.0
C800 C 0.03954 0.86603 0.056 0.0
H801 H 1.00187 0.80903 0.25964 0.0
H802 H 0.00717 0.83401 0.20122 0.0
H803 H 0.00316 0.83984 0.10335 0.0
H804 H 0.02462 0.90196 0.91338 0.0
H805 H 0.02071 0.87417 0.96148 0.0
C806 C 0.73077 0.04531 0.15455 0.0
C807 C 0.74369 0.05873 0.18194 0.0
C808 C 0.7183 0.05009 0.11288 0.0
C809 C 0.6986 0.06168 0.0098 0.0
H810 H 0.66589 0.1045 0.05883 0.0
C811 C 0.62812 0.07287 0.89257 0.0
C812 C 0.61204 0.07389 0.92895 0.0
C813 C 0.64686 0.07589 0.91428 0.0
C814 C 0.67506 0.09265 0.04418 0.0
H815 H 0.75423 0.08746 0.1864 0.0
H816 H 0.73197 0.09603 0.11363 0.0
H817 H 0.69507 0.09932 0.11257 0.0
H818 H 0.6031 0.08002 0.01651 0.0
H819 H 0.63557 0.08553 0.05393 0.0
H820 H 0.67803 0.05431 0.94354 0.0
C821 C 0.73165 0.08178 0.12437 0.0
C822 C 0.69183 0.08977 0.07465 0.0
C823 C 0.74438 0.07689 0.16569 0.0
C824 C 0.61505 0.07936 0.98703 0.0
C825 C 0.63373 0.08252 0.00861 0.0
C826 C 0.68192 0.06462 0.97916 0.0
C827 C 0.71835 0.06846 0.09805 0.0
C828 C 0.7033 0.07382 0.05904 0.0
C829 C 0.64988 0.08018 0.97273 0.0
C830 C 0.66956 0.0797 0.99738 0.0
H831 H 0.73008 0.03118 0.16612 0.0
H832 H 0.70804 0.0396 0.09393 0.0
H833 H 0.70731 0.04937 0.99659 0.0
H834 H 0.6263 0.06907 0.84748 0.0
H835 H 0.65904 0.07421 0.88558 0.0
C836 C 0.48769 0.70002 0.98605 0.0
C837 C 0.50496 0.70614 0.01389 0.0
C838 C 0.48704 0.68293 0.95019 0.0
C839 C 0.48584 0.64106 0.90982 0.0
H840 H 0.53176 0.6207 0.83207 0.0
C841 C 0.49424 0.56155 0.83929 0.0
C842 C 0.50598 0.55542 0.79271 0.0
C843 C 0.49275 0.58075 0.85894 0.0
C844 C 0.51863 0.62619 0.85249 0.0
H845 H 0.53503 0.69935 0.02629 0.0
H846 H 0.53382 0.66935 0.96585 0.0
H847 H 0.53176 0.6532 0.87551 0.0
H848 H 0.5246 0.56455 0.7284 0.0
H849 H 0.52128 0.59802 0.76068 0.0
H850 H 0.47246 0.61426 0.88486 0.0
C851 C 0.5209 0.67789 0.96961 0.0
C852 C 0.51875 0.64483 0.87843 0.0
C853 C 0.52162 0.69508 0.00457 0.0
C854 C 0.51563 0.56886 0.76485 0.0
C855 C 0.51381 0.58807 0.78369 0.0
C856 C 0.48559 0.62251 0.88293 0.0
C857 C 0.50355 0.67145 0.94235 0.0
C858 C 0.50256 0.65238 0.90881 0.0
C859 C 0.50265 0.59429 0.83171 0.0
C860 C 0.50215 0.61465 0.85514 0.0
H861 H 0.47468 0.70838 0.99239 0.0
H862 H 0.47352 0.67865 0.92915 0.0
H863 H 0.47311 0.64625 0.93308 0.0
H864 H 0.48674 0.55149 0.86187 0.0
H865 H 0.48433 0.58485 0.89665 0.0
C866 C 0.80958 0.42244 0.20744 0.0
C867 C 0.7904 0.42158 0.18744 0.0
C868 C 0.82502 0.41887 0.1701 0.0
C869 C 0.85583 0.40585 0.08394 0.0
H870 H 0.85181 0.43392 0.9561 0.0
C871 C 0.92073 0.4151 0.93711 0.0
C872 C 0.92403 0.43378 0.92689 0.0
C873 C 0.90337 0.41005 0.96145 0.0
C874 C 0.85312 0.42594 0.99145 0.0
H875 H 0.77235 0.41485 0.11307 0.0
H876 H 0.79942 0.4087 0.04763 0.0
H877 H 0.82339 0.43016 0.014 0.0
H878 H 0.91162 0.46176 0.934 0.0
H879 H 0.88141 0.45294 0.97604 0.0
H880 H 0.88585 0.40252 0.06304 0.0
C881 C 0.80246 0.4124 0.09221 0.0
C882 C 0.83679 0.42358 0.02423 0.0
C883 C 0.78698 0.41593 0.12964 0.0
C884 C 0.90944 0.44718 0.9404 0.0
C885 C 0.89209 0.44212 0.96449 0.0
C886 C 0.87217 0.40818 0.05103 0.0
C887 C 0.82166 0.41439 0.11186 0.0
C888 C 0.8381 0.41398 0.07181 0.0
C889 C 0.88894 0.42355 0.97579 0.0
C890 C 0.8711 0.41873 0.00547 0.0
H891 H 0.81278 0.42704 0.2515 0.0
H892 H 0.83963 0.42078 0.18656 0.0
H893 H 0.85723 0.39821 0.12001 0.0
H894 H 0.93156 0.40437 0.92636 0.0
H895 H 0.90127 0.39559 0.96919 0.0
C896 C 0.06085 0.19099 0.03508 0.0
C897 C 0.0731 0.2033 0.00991 0.0
C898 C 0.05475 0.17391 0.0051 0.0
C899 C 0.0691 0.13867 0.88673 0.0
H900 H 0.01766 0.11851 0.90681 0.0
C901 C 0.01782 0.07002 0.79943 0.0
C902 C 0.0311 0.05535 0.80226 0.0
C903 C 0.02273 0.08862 0.82014 0.0
C904 C 0.03203 0.12398 0.90019 0.0
H905 H 0.08793 0.20747 0.9325 0.0
H906 H 0.07724 0.17754 0.88001 0.0
H907 H 0.02573 0.15042 0.94921 0.0
H908 H 0.06009 0.04886 0.82859 0.0
H909 H 0.06855 0.08131 0.86552 0.0
H910 H 0.07535 0.11221 0.83744 0.0
C911 C 0.07258 0.18109 0.92333 0.0
C912 C 0.03671 0.14222 0.92501 0.0
C913 C 0.07866 0.19826 0.95336 0.0
C914 C 0.04951 0.05979 0.8257 0.0
C915 C 0.05441 0.07843 0.84654 0.0
C916 C 0.06441 0.12038 0.86192 0.0
C917 C 0.06076 0.1686 0.94914 0.0
C918 C 0.05536 0.14973 0.91912 0.0
C919 C 0.04102 0.09305 0.84438 0.0
C920 C 0.04587 0.11275 0.86877 0.0
H921 H 0.05662 0.19414 0.07891 0.0
H922 H 0.04593 0.16451 0.02664 0.0
H923 H 0.08366 0.14393 0.8818 0.0
H924 H 0.00353 0.06718 0.78144 0.0
H925 H 0.01217 0.09955 0.81699 0.0
C926 C 0.31527 0.03072 0.98527 0.0
C927 C 0.30651 0.01551 0.00789 0.0
C928 C 0.33344 0.02888 0.9593 0.0
C929 C 0.37072 0.99329 0.90286 0.0
H930 H 0.40397 0.03751 0.91801 0.0
C931 C 0.44528 0.99258 0.7909 0.0
C932 C 0.46037 0.00392 0.81658 0.0
C933 C 0.42645 0.99392 0.81286 0.0
C934 C 0.39508 0.02488 0.91388 0.0
H935 H 0.31029 0.98607 0.01847 0.0
H936 H 0.34228 0.98321 0.97649 0.0
H937 H 0.37197 0.03953 0.95923 0.0
H938 H 0.46751 0.02532 0.88641 0.0
H939 H 0.43507 0.02707 0.92627 0.0
H940 H 0.39432 0.97837 0.86038 0.0
C941 C 0.33489 0.99653 0.97755 0.0
C942 C 0.3764 0.02615 0.93674 0.0
C943 C 0.31651 0.99827 0.00266 0.0
C944 C 0.4562 0.0165 0.86518 0.0
C945 C 0.43746 0.01759 0.88784 0.0
C946 C 0.38955 0.99194 0.88081 0.0
C947 C 0.34377 0.01189 0.95598 0.0
C948 C 0.36382 0.0104 0.93141 0.0
C949 C 0.42221 0.00639 0.86191 0.0
C950 C 0.40206 0.00774 0.88577 0.0
H951 H 0.30843 0.04438 0.98895 0.0
H952 H 0.3394 0.04096 0.94217 0.0
H953 H 0.36155 0.98085 0.89699 0.0
H954 H 0.44791 0.98279 0.75322 0.0
H955 H 0.4152 0.9853 0.79068 0.0
C956 C 0.42585 0.29661 0.17184 0.0
C957 C 0.43511 0.27927 0.1562 0.0
C958 C 0.42932 0.31193 0.14253 0.0
C959 C 0.46487 0.3315 0.05028 0.0
H960 H 0.42243 0.36467 0.02564 0.0
C961 C 0.47675 0.40617 0.98622 0.0
C962 C 0.46334 0.41264 0.94895 0.0
C963 C 0.47368 0.38904 0.00738 0.0
C964 C 0.43444 0.35548 0.03151 0.0
H965 H 0.45533 0.26454 0.09702 0.0
H966 H 0.46137 0.29142 0.04538 0.0
H967 H 0.41607 0.33609 0.06768 0.0
H968 H 0.43659 0.4058 0.90292 0.0
H969 H 0.43131 0.37593 0.93933 0.0
H970 H 0.48321 0.35086 0.01339 0.0
C971 C 0.45149 0.29311 0.08082 0.0
C972 C 0.43082 0.33917 0.0563 0.0
C973 C 0.448 0.2777 0.11029 0.0
C974 C 0.447 0.40141 0.93246 0.0
C975 C 0.44398 0.38427 0.95337 0.0
C976 C 0.46851 0.34784 0.02535 0.0
C977 C 0.44218 0.31042 0.09668 0.0
C978 C 0.446 0.32707 0.06665 0.0
C979 C 0.45717 0.37793 0.99156 0.0
C980 C 0.45335 0.36013 0.01608 0.0
H981 H 0.41627 0.29857 0.20795 0.0
H982 H 0.42224 0.32514 0.15683 0.0
H983 H 0.47693 0.32258 0.05802 0.0
H984 H 0.4894 0.41456 1.00011 0.0
H985 H 0.48401 0.38474 0.03728 0.0
C986 C 0.20722 0.47371 0.00741 0.0
C987 C 0.22335 0.48463 0.99539 0.0
C988 C 0.18897 0.47686 0.98533 0.0
C989 C 0.16395 0.49515 0.86924 0.0
H990 H 0.11973 0.49775 0.96969 0.0
C991 C 0.08602 0.50821 0.79071 0.0
C992 C 0.07059 0.49902 0.81456 0.0
C993 C 0.10482 0.50779 0.81279 0.0
C994 C 0.13181 0.49678 0.94068 0.0
H995 H 0.2329 0.50744 0.95055 0.0
H996 H 0.20083 0.51274 0.91064 0.0
H997 H 0.15212 0.49449 0.00732 0.0
H998 H 0.063 0.48192 0.87992 0.0
H999 H 0.09565 0.48064 0.9171 0.0
H1000 H 0.14367 0.49675 0.80216 0.0
C1001 C 0.20245 0.50176 0.93749 0.0
C1002 C 0.15044 0.49504 0.96247 0.0
C1003 C 0.22075 0.4988 0.96047 0.0
C1004 C 0.07446 0.48932 0.86081 0.0
C1005 C 0.09327 0.48871 0.88243 0.0
C1006 C 0.14525 0.49664 0.8472 0.0
C1007 C 0.18633 0.4909 0.95007 0.0
C1008 C 0.16671 0.49402 0.92699 0.0
C1009 C 0.10876 0.49799 0.85899 0.0
C1010 C 0.12886 0.49727 0.88253 0.0
H1011 H 0.20866 0.46286 0.03479 0.0
H1012 H 0.17689 0.46817 0.99549 0.0
H1013 H 0.1762 0.49425 0.84075 0.0
H1014 H 0.08357 0.51589 0.75519 0.0
H1015 H 0.11621 0.51535 0.79393 0.0
C1016 C 0.96991 0.79617 0.58838 0.0
C1017 C 0.96826 0.79213 0.52935 0.0
C1018 C 0.96895 0.81477 0.6148 0.0
C1019 C 0.9571 0.86397 0.59251 0.0
H1020 H 1.00095 0.87675 0.69203 0.0
C1021 C 0.98753 0.93981 0.64146 0.0
C1022 C 0.995 0.94565 0.69572 0.0
C1023 C 0.98134 0.92118 0.62622 0.0
C1024 C 0.9884 0.87346 0.66521 0.0
H1025 H 0.96313 0.80448 0.45233 0.0
H1026 H 0.96127 0.83668 0.49831 0.0
H1027 H 0.99389 0.84391 0.65847 0.0
H1028 H 1.00122 0.93659 0.77715 0.0
H1029 H 0.9902 0.90431 0.75083 0.0
H1030 H 0.95191 0.89364 0.59837 0.0
C1031 C 0.96317 0.82552 0.52434 0.0
C1032 C 0.98432 0.85457 0.64603 0.0
C1033 C 0.96419 0.80696 0.49793 0.0
C1034 C 0.99574 0.93255 0.73476 0.0
C1035 C 0.98947 0.91399 0.71962 0.0
C1036 C 0.96114 0.8829 0.61188 0.0
C1037 C 0.96626 0.82971 0.58277 0.0
C1038 C 0.96883 0.84961 0.60868 0.0
C1039 C 0.9824 0.90799 0.66498 0.0
C1040 C 0.97706 0.88788 0.64771 0.0
H1041 H 0.97276 0.78505 0.61391 0.0
H1042 H 0.97103 0.81753 0.66008 0.0
H1043 H 0.94494 0.86058 0.56421 0.0
H1044 H 0.98676 0.94953 0.61038 0.0
H1045 H 0.97622 0.91699 0.58353 0.0
C1046 C 0.71175 0.02169 0.50657 0.0
C1047 C 0.72448 0.00645 0.49447 0.0
C1048 C 0.6932 0.01901 0.52745 0.0
C1049 C 0.66382 0.98823 0.60489 0.0
H1050 H 0.6207 0.01274 0.54076 0.0
C1051 C 0.58867 0.99914 0.71324 0.0
C1052 C 0.57216 0.99587 0.67863 0.0
C1053 C 0.60725 0.99872 0.6896 0.0
C1054 C 0.63254 0.00568 0.55889 0.0
H1055 H 0.72763 0.97638 0.49486 0.0
H1056 H 0.69506 0.97168 0.53238 0.0
H1057 H 0.65304 0.01493 0.50094 0.0
H1058 H 0.56236 0.98944 0.59187 0.0
H1059 H 0.59472 0.98893 0.55078 0.0
H1060 H 0.64327 0.97925 0.66348 0.0
C1061 C 0.69959 0.98573 0.52556 0.0
C1062 C 0.6511 0.00706 0.53634 0.0
C1063 C 0.71816 0.98839 0.50385 0.0
C1064 C 0.57472 0.99202 0.61986 0.0
C1065 C 0.59327 0.99181 0.59622 0.0
C1066 C 0.64525 0.98705 0.62795 0.0
C1067 C 0.68686 0.00102 0.5372 0.0
C1068 C 0.66699 0.99848 0.55931 0.0
C1069 C 0.60975 0.99524 0.63076 0.0
C1070 C 0.62941 0.99585 0.60536 0.0
H1071 H 0.71603 0.03574 0.49903 0.0
H1072 H 0.68384 0.0311 0.53643 0.0
H1073 H 0.67579 0.98157 0.62368 0.0
H1074 H 0.58728 0.00209 0.75867 0.0
H1075 H 0.61964 0.00159 0.71734 0.0
C1076 C 0.56176 0.71859 0.39738 0.0
C1077 C 0.55923 0.71671 0.33849 0.0
C1078 C 0.56673 0.70302 0.42405 0.0
C1079 C 0.58491 0.65396 0.39987 0.0
H1080 H 0.55142 0.6468 0.52555 0.0
C1081 C 0.57377 0.58162 0.47915 0.0
C1082 C 0.57042 0.58127 0.53698 0.0
C1083 C 0.5754 0.5988 0.45742 0.0
C1084 C 0.56119 0.64868 0.49128 0.0
H1085 H 0.56073 0.69703 0.26135 0.0
H1086 H 0.56958 0.67004 0.30778 0.0
H1087 H 0.54981 0.67594 0.48389 0.0
H1088 H 0.56725 0.59854 0.6179 0.0
H1089 H 0.57049 0.62848 0.58037 0.0
H1090 H 0.59611 0.62653 0.40687 0.0
C1091 C 0.56787 0.68358 0.33332 0.0
C1092 C 0.56025 0.66543 0.46735 0.0
C1093 C 0.56283 0.69911 0.30668 0.0
C1094 C 0.56949 0.5984 0.57297 0.0
C1095 C 0.57129 0.61555 0.5514 0.0
C1096 C 0.58594 0.6372 0.42406 0.0
C1097 C 0.56935 0.68524 0.3924 0.0
C1098 C 0.5719 0.66818 0.42093 0.0
C1099 C 0.57388 0.61599 0.49319 0.0
C1100 C 0.5739 0.63426 0.46963 0.0
H1101 H 0.55944 0.73201 0.42305 0.0
H1102 H 0.56808 0.7048 0.46962 0.0
H1103 H 0.5942 0.65575 0.36442 0.0
H1104 H 0.57441 0.56862 0.45041 0.0
H1105 H 0.57714 0.59858 0.4123 0.0
C1106 C 0.81236 0.48154 0.52044 0.0
C1107 C 0.80667 0.49368 0.48168 0.0
C1108 C 0.83077 0.48306 0.54505 0.0
C1109 C 0.87272 0.51501 0.57692 0.0
H1110 H 0.90052 0.4685 0.58408 0.0
C1111 C 0.95329 0.5141 0.64671 0.0
C1112 C 0.95905 0.49993 0.67877 0.0
C1113 C 0.93471 0.51384 0.62295 0.0
C1114 C 0.8929 0.48164 0.58325 0.0
H1115 H 0.81589 0.51729 0.43956 0.0
H1116 H 0.84816 0.51996 0.48274 0.0
H1117 H 0.8682 0.46743 0.54305 0.0
H1118 H 0.94951 0.47457 0.71181 0.0
H1119 H 0.91712 0.47434 0.67161 0.0
H1120 H 0.89736 0.52922 0.61774 0.0
C1121 C 0.83825 0.50927 0.49408 0.0
C1122 C 0.87434 0.48101 0.55953 0.0
C1123 C 0.81981 0.50766 0.46906 0.0
C1124 C 0.94568 0.48563 0.68701 0.0
C1125 C 0.92707 0.48544 0.66358 0.0
C1126 C 0.89128 0.51564 0.60104 0.0
C1127 C 0.84404 0.4968 0.53178 0.0
C1128 C 0.86397 0.49767 0.55626 0.0
C1129 C 0.92134 0.49947 0.63087 0.0
C1130 C 0.90161 0.49894 0.60475 0.0
H1131 H 0.80277 0.47041 0.53058 0.0
H1132 H 0.83465 0.47337 0.5744 0.0
H1133 H 0.86505 0.5281 0.57553 0.0
H1134 H 0.96321 0.5253 0.63927 0.0
H1135 H 0.93096 0.52474 0.59748 0.0
loop_
_geom_bond_atom_site_label_1
_geom_bond_atom_site_label_2
_geom_bond_distance
_geom_bond_site_symmetry_2
_ccdc_geom_bond_type
P0 O11 1.490 . S
P0 C14 1.812 . S
P0 C20 1.803 . S
P0 C26 1.819 . S
H1 C15 0.941 . S
H2 C16 0.939 . S
H3 C18 0.940 . S
H4 C19 0.940 . S
H5 C21 0.939 . S
H6 C22 0.942 . S
H7 C24 0.940 . S
H8 C25 0.939 . S
H9 C27 0.941 . S
H10 C31 0.939 . S
O11 P0 1.490 . S
H12 C28 0.939 . S
H13 C30 0.940 . S
C14 P0 1.812 . S
C14 C15 1.389 . S
C14 C19 1.391 . S
C15 H1 0.941 . S
C15 C14 1.389 . S
C15 C16 1.397 . S
C16 H2 0.939 . S
C16 C15 1.397 . S
C16 C17 1.378 . S
C17 C16 1.378 . S
C17 C18 1.378 . S
C18 H3 0.940 . S
C18 C17 1.378 . S
C18 C19 1.396 . S
C19 H4 0.940 . S
C19 C14 1.391 . S
C19 C18 1.396 . S
C20 P0 1.803 . S
C20 C21 1.378 . S
C20 C25 1.400 . S
C21 H5 0.939 . S
C21 C20 1.378 . S
C21 C22 1.361 . S
C22 H6 0.942 . S
C22 C21 1.361 . S
C22 C23 1.369 . S
C23 C22 1.369 . S
C23 C24 1.404 . S
C24 H7 0.940 . S
C24 C23 1.404 . S
C24 C25 1.389 . S
C25 H8 0.939 . S
C25 C20 1.400 . S
C25 C24 1.389 . S
C26 P0 1.819 . S
C26 C27 1.391 . S
C26 C31 1.391 . S
C27 H9 0.941 . S
C27 C26 1.391 . S
C27 C28 1.396 . S
C28 H12 0.939 . S
C28 C27 1.396 . S
C28 C29 1.397 . S
C29 C28 1.397 . S
C29 C30 1.385 . S
C30 H13 0.940 . S
C30 C29 1.385 . S
C30 C31 1.388 . S
C31 H10 0.939 . S
C31 C26 1.391 . S
C31 C30 1.388 . S
P32 O43 1.490 1_655 S
P32 C46 1.812 . S
P32 C52 1.803 . S
P32 C58 1.819 . S
H33 C47 0.941 1_455 S
H34 C48 0.939 . S
H35 C50 0.940 . S
H36 C51 0.940 . S
H37 C53 0.939 1_455 S
H38 C54 0.942 . S
H39 C56 0.940 . S
H40 C57 0.939 . S
H41 C59 0.941 . S
H42 C63 0.939 . S
O43 P32 1.490 1_455 S
H44 C60 0.939 . S
H45 C62 0.940 . S
C46 P32 1.812 . S
C46 C47 1.389 . S
C46 C51 1.391 . S
C47 H33 0.941 1_655 S
C47 C46 1.389 . S
C47 C48 1.397 . S
C48 H34 0.939 . S
C48 C47 1.397 . S
C48 C49 1.378 . S
C49 C48 1.378 . S
C49 C50 1.378 . S
C50 H35 0.940 . S
C50 C49 1.378 . S
C50 C51 1.396 . S
C51 H36 0.940 . S
C51 C46 1.391 . S
C51 C50 1.396 . S
C52 P32 1.803 . S
C52 C53 1.378 . S
C52 C57 1.400 . S
C53 H37 0.939 1_655 S
C53 C52 1.378 . S
C53 C54 1.361 . S
C54 H38 0.942 . S
C54 C53 1.361 . S
C54 C55 1.369 . S
C55 C54 1.369 . S
C55 C56 1.404 . S
C56 H39 0.940 . S
C56 C55 1.404 . S
C56 C57 1.389 . S
C57 H40 0.939 . S
C57 C52 1.400 . S
C57 C56 1.389 . S
C58 P32 1.819 . S
C58 C59 1.391 . S
C58 C63 1.391 . S
C59 H41 0.941 . S
C59 C58 1.391 . S
C59 C60 1.396 . S
C60 H44 0.939 . S
C60 C59 1.396 . S
C60 C61 1.397 . S
C61 C60 1.397 . S
C61 C62 1.385 . S
C62 H45 0.940 . S
C62 C61 1.385 . S
C62 C63 1.388 . S
C63 H42 0.939 . S
C63 C58 1.391 . S
C63 C62 1.388 . S
P64 O75 1.490 . S
P64 C78 1.812 . S
P64 C84 1.803 . S
P64 C90 1.819 . S
H65 C79 0.941 . S
H66 C80 0.939 . S
H67 C82 0.940 . S
H68 C83 0.948 . S
H69 C85 0.939 . S
H70 C86 0.942 . S
H71 C88 0.940 . S
H72 C89 0.962 . S
H73 C91 0.941 . S
H74 C95 0.929 1_565 S
O75 P64 1.490 . S
H76 C92 0.939 . S
H77 C94 0.940 . S
C78 P64 1.812 . S
C78 C79 1.389 . S
C78 C83 1.375 1_545 S
C79 H65 0.941 . S
C79 C78 1.389 . S
C79 C80 1.397 . S
C80 H66 0.939 . S
C80 C79 1.397 . S
C80 C81 1.378 . S
C81 C80 1.378 . S
C81 C82 1.378 1_545 S
C82 H67 0.940 . S
C82 C81 1.378 1_565 S
C82 C83 1.405 . S
C83 H68 0.948 . S
C83 C78 1.375 1_565 S
C83 C82 1.405 . S
C84 P64 1.803 . S
C84 C85 1.378 . S
C84 C89 1.367 1_545 S
C85 H69 0.939 . S
C85 C84 1.378 . S
C85 C86 1.361 . S
C86 H70 0.942 . S
C86 C85 1.361 . S
C86 C87 1.369 . S
C87 C86 1.369 . S
C87 C88 1.404 1_545 S
C88 H71 0.940 . S
C88 C87 1.404 1_565 S
C88 C89 1.401 . S
C89 H72 0.962 . S
C89 C84 1.367 1_565 S
C89 C88 1.401 . S
C90 P64 1.819 . S
C90 C91 1.391 . S
C90 C95 1.391 . S
C91 H73 0.941 . S
C91 C90 1.391 . S
C91 C92 1.396 . S
C92 H76 0.939 . S
C92 C91 1.396 . S
C92 C93 1.397 . S
C93 C92 1.397 . S
C93 C94 1.385 1_545 S
C94 H77 0.940 . S
C94 C93 1.385 1_565 S
C94 C95 1.388 1_565 S
C95 H74 0.929 1_545 S
C95 C90 1.391 . S
C95 C94 1.388 1_545 S
P96 O107 1.490 . S
P96 C110 1.812 . S
P96 C116 1.803 1_554 S
P96 C122 1.819 1_554 S
H97 C111 0.941 . S
H98 C112 0.939 . S
H99 C114 0.940 . S
H100 C115 0.940 . S
H101 C117 0.939 . S
H102 C118 0.942 . S
H103 C120 0.940 1_554 S
H104 C121 0.939 . S
H105 C123 0.941 . S
H106 C127 0.939 . S
O107 P96 1.490 . S
H108 C124 0.939 . S
H109 C126 0.940 . S
C110 P96 1.812 . S
C110 C111 1.389 . S
C110 C115 1.391 . S
C111 H97 0.941 . S
C111 C110 1.389 . S
C111 C112 1.397 . S
C112 H98 0.939 . S
C112 C111 1.397 . S
C112 C113 1.378 . S
C113 C112 1.378 . S
C113 C114 1.378 . S
C114 H99 0.940 . S
C114 C113 1.378 . S
C114 C115 1.396 . S
C115 H100 0.940 . S
C115 C110 1.391 . S
C115 C114 1.396 . S
C116 P96 1.803 1_556 S
C116 C117 1.378 . S
C116 C121 1.400 1_556 S
C117 H101 0.939 . S
C117 C116 1.378 . S
C117 C118 1.361 . S
C118 H102 0.942 . S
C118 C117 1.361 . S
C118 C119 1.369 . S
C119 C118 1.369 . S
C119 C120 1.404 . S
C120 H103 0.940 1_556 S
C120 C119 1.404 . S
C120 C121 1.389 1_556 S
C121 H104 0.939 . S
C121 C116 1.400 1_554 S
C121 C120 1.389 1_554 S
C122 P96 1.819 1_556 S
C122 C123 1.391 . S
C122 C127 1.391 . S
C123 H105 0.941 . S
C123 C122 1.391 . S
C123 C124 1.396 . S
C124 H108 0.939 . S
C124 C123 1.396 . S
C124 C125 1.397 . S
C125 C124 1.397 . S
C125 C126 1.385 . S
C126 H109 0.940 . S
C126 C125 1.385 . S
C126 C127 1.388 . S
C127 H106 0.939 . S
C127 C122 1.391 . S
C127 C126 1.388 . S
P128 O139 1.490 . S
P128 C142 1.812 . S
P128 C148 1.803 . S
P128 C154 1.819 . S
H129 C143 0.941 . S
H130 C144 0.939 . S
H131 C146 0.940 . S
H132 C147 0.940 . S
H133 C149 0.939 . S
H134 C150 0.942 . S
H135 C152 0.940 . S
H136 C153 0.939 . S
H137 C155 0.941 . S
H138 C159 0.939 . S
O139 P128 1.490 . S
H140 C156 0.939 . S
H141 C158 0.940 . S
C142 P128 1.812 . S
C142 C143 1.389 . S
C142 C147 1.391 . S
C143 H129 0.941 . S
C143 C142 1.389 . S
C143 C144 1.397 1_554 S
C144 H130 0.939 . S
C144 C143 1.397 1_556 S
C144 C145 1.378 1_556 S
C145 C144 1.378 1_554 S
C145 C146 1.378 . S
C146 H131 0.940 . S
C146 C145 1.378 . S
C146 C147 1.396 . S
C147 H132 0.940 . S
C147 C142 1.391 . S
C147 C146 1.396 . S
C148 P128 1.803 . S
C148 C149 1.378 . S
C148 C153 1.400 . S
C149 H133 0.939 . S
C149 C148 1.378 . S
C149 C150 1.361 . S
C150 H134 0.942 . S
C150 C149 1.361 . S
C150 C151 1.369 . S
C151 C150 1.369 . S
C151 C152 1.404 . S
C152 H135 0.940 . S
C152 C151 1.404 . S
C152 C153 1.389 . S
C153 H136 0.939 . S
C153 C148 1.400 . S
C153 C152 1.389 . S
C154 P128 1.819 . S
C154 C155 1.391 . S
C154 C159 1.391 . S
C155 H137 0.941 . S
C155 C154 1.391 . S
C155 C156 1.396 . S
C156 H140 0.939 . S
C156 C155 1.396 . S
C156 C157 1.397 . S
C157 C156 1.397 . S
C157 C158 1.385 . S
C158 H141 0.940 . S
C158 C157 1.385 . S
C158 C159 1.388 . S
C159 H138 0.939 . S
C159 C154 1.391 . S
C159 C158 1.388 . S
P160 O171 1.490 . S
P160 C174 1.812 . S
P160 C180 1.803 . S
P160 C186 1.819 . S
H161 C175 0.941 . S
H162 C176 0.939 . S
H163 C178 0.940 . S
H164 C179 0.940 . S
H165 C181 0.939 . S
H166 C182 0.942 . S
H167 C184 0.940 . S
H168 C185 0.939 . S
H169 C187 0.941 . S
H170 C191 0.939 . S
O171 P160 1.490 . S
H172 C188 0.939 . S
H173 C190 0.940 . S
C174 P160 1.812 . S
C174 C175 1.389 . S
C174 C179 1.391 . S
C175 H161 0.941 . S
C175 C174 1.389 . S
C175 C176 1.397 . S
C176 H162 0.939 . S
C176 C175 1.397 . S
C176 C177 1.378 . S
C177 C176 1.378 . S
C177 C178 1.378 . S
C178 H163 0.940 . S
C178 C177 1.378 . S
C178 C179 1.396 . S
C179 H164 0.940 . S
C179 C174 1.391 . S
C179 C178 1.396 . S
C180 P160 1.803 . S
C180 C181 1.378 . S
C180 C185 1.400 . S
C181 H165 0.939 . S
C181 C180 1.378 . S
C181 C182 1.361 . S
C182 H166 0.942 . S
C182 C181 1.361 . S
C182 C183 1.369 . S
C183 C182 1.369 . S
C183 C184 1.404 . S
C184 H167 0.940 . S
C184 C183 1.404 . S
C184 C185 1.389 . S
C185 H168 0.939 . S
C185 C180 1.400 . S
C185 C184 1.389 . S
C186 P160 1.819 . S
C186 C187 1.391 . S
C186 C191 1.391 . S
C187 H169 0.941 . S
C187 C186 1.391 . S
C187 C188 1.396 . S
C188 H172 0.939 . S
C188 C187 1.396 . S
C188 C189 1.397 . S
C189 C188 1.397 . S
C189 C190 1.385 . S
C190 H173 0.940 . S
C190 C189 1.385 . S
C190 C191 1.388 . S
C191 H170 0.939 . S
C191 C186 1.391 . S
C191 C190 1.388 . S
P192 O203 1.490 . S
P192 C206 1.812 . S
P192 C212 1.803 . S
P192 C218 1.819 . S
H193 C207 0.941 . S
H194 C208 0.939 1_556 S
H195 C210 0.940 . S
H196 C211 0.943 . S
H197 C213 0.939 . S
H198 C214 0.942 . S
H199 C216 0.940 . S
H200 C217 0.950 . S
H201 C219 0.941 . S
H202 C223 0.934 1_565 S
O203 P192 1.490 . S
H204 C220 0.939 . S
H205 C222 0.940 . S
C206 P192 1.812 . S
C206 C207 1.389 . S
C206 C211 1.388 1_545 S
C207 H193 0.941 . S
C207 C206 1.389 . S
C207 C208 1.397 . S
C208 H194 0.939 1_554 S
C208 C207 1.397 . S
C208 C209 1.378 . S
C209 C208 1.378 . S
C209 C210 1.378 1_545 S
C210 H195 0.940 . S
C210 C209 1.378 1_565 S
C210 C211 1.397 . S
C211 H196 0.943 . S
C211 C206 1.388 1_565 S
C211 C210 1.397 . S
C212 P192 1.803 . S
C212 C213 1.378 . S
C212 C217 1.382 1_545 S
C213 H197 0.939 . S
C213 C212 1.378 . S
C213 C214 1.361 . S
C214 H198 0.942 . S
C214 C213 1.361 . S
C214 C215 1.369 . S
C215 C214 1.369 . S
C215 C216 1.404 1_545 S
C216 H199 0.940 . S
C216 C215 1.404 1_565 S
C216 C217 1.397 . S
C217 H200 0.950 . S
C217 C212 1.382 1_565 S
C217 C216 1.397 . S
C218 P192 1.819 . S
C218 C219 1.391 . S
C218 C223 1.391 . S
C219 H201 0.941 . S
C219 C218 1.391 . S
C219 C220 1.396 . S
C220 H204 0.939 . S
C220 C219 1.396 . S
C220 C221 1.397 . S
C221 C220 1.397 . S
C221 C222 1.385 1_545 S
C222 H205 0.940 . S
C222 C221 1.385 1_565 S
C222 C223 1.388 1_565 S
C223 H202 0.934 1_545 S
C223 C218 1.391 . S
C223 C222 1.388 1_545 S
P224 O235 1.490 . S
P224 C238 1.812 . S
P224 C244 1.803 . S
P224 C250 1.819 . S
H225 C239 0.941 . S
H226 C240 0.939 . S
H227 C242 0.940 . S
H228 C243 0.940 . S
H229 C245 0.939 . S
H230 C246 0.942 . S
H231 C248 0.940 . S
H232 C249 0.939 . S
H233 C251 0.941 . S
H234 C255 0.939 . S
O235 P224 1.490 . S
H236 C252 0.939 . S
H237 C254 0.940 . S
C238 P224 1.812 . S
C238 C239 1.389 . S
C238 C243 1.391 . S
C239 H225 0.941 . S
C239 C238 1.389 . S
C239 C240 1.397 . S
C240 H226 0.939 . S
C240 C239 1.397 . S
C240 C241 1.378 . S
C241 C240 1.378 . S
C241 C242 1.378 . S
C242 H227 0.940 . S
C242 C241 1.378 . S
C242 C243 1.396 . S
C243 H228 0.940 . S
C243 C238 1.391 . S
C243 C242 1.396 . S
C244 P224 1.803 . S
C244 C245 1.378 . S
C244 C249 1.400 . S
C245 H229 0.939 . S
C245 C244 1.378 . S
C245 C246 1.361 . S
C246 H230 0.942 . S
C246 C245 1.361 . S
C246 C247 1.369 . S
C247 C246 1.369 . S
C247 C248 1.404 . S
C248 H231 0.940 . S
C248 C247 1.404 . S
C248 C249 1.389 . S
C249 H232 0.939 . S
C249 C244 1.400 . S
C249 C248 1.389 . S
C250 P224 1.819 . S
C250 C251 1.391 . S
C250 C255 1.391 . S
C251 H233 0.941 . S
C251 C250 1.391 . S
C251 C252 1.396 . S
C252 H236 0.939 . S
C252 C251 1.396 . S
C252 C253 1.397 . S
C253 C252 1.397 . S
C253 C254 1.385 . S
C254 H237 0.940 . S
C254 C253 1.385 . S
C254 C255 1.388 . S
C255 H234 0.939 . S
C255 C250 1.391 . S
C255 C254 1.388 . S
Tb256 C265 2.764 1_655 S
Tb256 O266 2.304 1_655 S
Tb256 O269 2.249 1_655 S
Tb256 O273 2.333 1_545 S
Tb256 O274 2.395 . S
Tb256 O277 2.389 1_655 S
Tb256 O278 2.424 . S
Tb257 O267 2.322 1_565 S
Tb257 O268 2.349 . S
Tb257 O270 2.415 . S
Tb257 O271 2.399 . S
Tb257 O272 2.325 . S
Tb257 O275 2.303 1_455 S
Tb257 C286 2.764 . S
C258 O274 1.261 . S
C258 O275 1.257 1_545 S
C259 C262 1.330 1_455 S
C259 C263 1.359 . S
C259 C265 1.503 . S
C260 C261 1.373 1_455 S
C260 C264 1.308 . S
C261 C260 1.373 1_655 S
C261 C262 1.429 . S
C261 H288 0.932 . S
C262 C259 1.330 1_655 S
C262 C261 1.429 . S
C262 H289 0.930 . S
C263 C259 1.359 . S
C263 C264 1.394 . S
C263 H290 0.932 . S
C264 C260 1.308 . S
C264 C263 1.394 . S
C264 H291 0.929 . S
C265 Tb256 2.764 1_455 S
C265 C259 1.503 . S
C265 O277 1.234 . S
C265 O278 1.268 1_455 S
O266 Tb256 2.304 1_455 S
O266 C276 1.236 . S
O267 Tb257 2.322 1_545 S
O267 C276 1.257 . S
O268 Tb257 2.349 . S
O268 C279 1.261 . S
O269 Tb256 2.249 1_455 S
O269 C279 1.257 1_545 S
O270 Tb257 2.415 . S
O270 C286 1.239 . S
O271 Tb257 2.399 . S
O271 C286 1.263 . S
O272 Tb257 2.325 . S
O272 C287 1.213 1_455 S
O273 Tb256 2.333 1_565 S
O273 C287 1.269 . S
O274 Tb256 2.395 . S
O274 C258 1.261 . S
O275 Tb257 2.303 1_655 S
O275 C258 1.257 1_565 S
C276 O266 1.236 . S
C276 O267 1.257 . S
O277 Tb256 2.389 1_455 S
O277 C265 1.234 . S
O278 Tb256 2.424 . S
O278 C265 1.268 1_655 S
C279 O268 1.261 . S
C279 O269 1.257 1_565 S
C280 C283 1.358 . S
C280 C284 1.332 . S
C280 C286 1.504 . S
C281 C282 1.373 . S
C281 C285 1.308 . S
C282 C281 1.373 . S
C282 C283 1.429 . S
C282 H292 0.932 . S
C283 C280 1.358 . S
C283 C282 1.429 . S
C283 H293 0.930 . S
C284 C280 1.332 . S
C284 C285 1.394 . S
C284 H294 0.932 1_455 S
C285 C281 1.308 . S
C285 C284 1.394 . S
C285 H295 0.929 1_455 S
C286 Tb257 2.764 . S
C286 O270 1.239 . S
C286 O271 1.263 . S
C286 C280 1.504 . S
C287 O272 1.213 1_655 S
C287 O273 1.269 . S
H288 C261 0.932 . S
H289 C262 0.930 . S
H290 C263 0.932 . S
H291 C264 0.929 . S
H292 C282 0.932 . S
H293 C283 0.930 . S
H294 C284 0.932 1_655 S
H295 C285 0.929 1_655 S
Tb296 C305 2.764 . S
Tb296 O306 2.325 . S
Tb296 O309 2.303 1_565 S
Tb296 O313 2.322 . S
Tb296 O314 2.349 . S
Tb296 O317 2.415 1_565 S
Tb296 O318 2.399 . S
Tb297 O307 2.322 . S
Tb297 O308 2.349 . S
Tb297 O310 2.415 1_545 S
Tb297 O311 2.399 . S
Tb297 O312 2.325 . S
Tb297 O315 2.303 1_545 S
Tb297 C326 2.764 . S
C298 O314 1.261 . S
C298 O315 1.257 . S
C299 C302 1.358 . S
C299 C303 1.354 . S
C299 C305 1.504 . S
C300 C301 1.373 . S
C300 C304 1.308 . S
C301 C300 1.373 . S
C301 C302 1.429 . S
C301 H328 0.932 . S
C302 C299 1.358 . S
C302 C301 1.429 . S
C302 H329 0.930 . S
C303 C299 1.354 . S
C303 C304 1.395 . S
C303 H330 0.909 1_565 S
C304 C300 1.308 . S
C304 C303 1.395 . S
C304 H331 0.929 1_565 S
C305 Tb296 2.764 . S
C305 C299 1.504 . S
C305 O317 1.239 1_565 S
C305 O318 1.263 . S
O306 Tb296 2.325 . S
O306 C316 1.236 1_565 S
O307 Tb297 2.322 . S
O307 C316 1.257 . S
O308 Tb297 2.349 . S
O308 C319 1.261 . S
O309 Tb296 2.303 1_545 S
O309 C319 1.257 . S
O310 Tb297 2.415 1_565 S
O310 C326 1.239 1_565 S
O311 Tb297 2.399 . S
O311 C326 1.263 . S
O312 Tb297 2.325 . S
O312 C327 1.236 1_545 S
O313 Tb296 2.322 . S
O313 C327 1.257 . S
O314 Tb296 2.349 . S
O314 C298 1.261 . S
O315 Tb297 2.303 1_565 S
O315 C298 1.257 . S
C316 O306 1.236 1_545 S
C316 O307 1.257 . S
O317 Tb296 2.415 1_545 S
O317 C305 1.239 1_545 S
O318 Tb296 2.399 . S
O318 C305 1.263 . S
C319 O308 1.261 . S
C319 O309 1.257 . S
C320 C323 1.358 . S
C320 C324 1.366 . S
C320 C326 1.504 . S
C321 C322 1.373 . S
C321 C325 1.308 . S
C322 C321 1.373 . S
C322 C323 1.429 . S
C322 H332 0.932 . S
C323 C320 1.358 . S
C323 C322 1.429 . S
C323 H333 0.930 . S
C324 C320 1.366 . S
C324 C325 1.395 . S
C324 H334 0.898 1_545 S
C325 C321 1.308 . S
C325 C324 1.395 . S
C325 H335 0.929 1_545 S
C326 Tb297 2.764 . S
C326 O310 1.239 1_545 S
C326 O311 1.263 . S
C326 C320 1.504 . S
C327 O312 1.236 1_565 S
C327 O313 1.257 . S
H328 C301 0.932 . S
H329 C302 0.930 . S
H330 C303 0.909 1_545 S
H331 C304 0.929 1_545 S
H332 C322 0.932 . S
H333 C323 0.930 . S
H334 C324 0.898 1_565 S
H335 C325 0.929 1_565 S
Tb336 C345 2.764 . S
Tb336 O346 2.325 . S
Tb336 O349 2.303 . S
Tb336 O353 2.322 . S
Tb336 O354 2.349 . S
Tb336 O357 2.415 . S
Tb336 O358 2.399 . S
Tb337 O347 2.322 . S
Tb337 O348 2.349 . S
Tb337 O350 2.415 . S
Tb337 O351 2.399 . S
Tb337 O352 2.325 . S
Tb337 O355 2.303 . S
Tb337 C366 2.764 . S
C338 O354 1.261 . S
C338 O355 1.257 . S
C339 C342 1.358 . S
C339 C343 1.332 . S
C339 C345 1.504 . S
C340 C341 1.373 . S
C340 C344 1.308 . S
C341 C340 1.373 . S
C341 C342 1.429 . S
C341 H368 0.932 . S
C342 C339 1.358 . S
C342 C341 1.429 . S
C342 H369 0.930 . S
C343 C339 1.332 . S
C343 C344 1.394 . S
C343 H370 0.932 . S
C344 C340 1.308 . S
C344 C343 1.394 . S
C344 H371 0.929 . S
C345 Tb336 2.764 . S
C345 C339 1.504 . S
C345 O357 1.239 . S
C345 O358 1.263 . S
O346 Tb336 2.325 . S
O346 C356 1.236 . S
O347 Tb337 2.322 . S
O347 C356 1.257 . S
O348 Tb337 2.349 . S
O348 C359 1.261 . S
O349 Tb336 2.303 . S
O349 C359 1.257 . S
O350 Tb337 2.415 . S
O350 C366 1.239 . S
O351 Tb337 2.399 . S
O351 C366 1.263 . S
O352 Tb337 2.325 . S
O352 C367 1.236 . S
O353 Tb336 2.322 . S
O353 C367 1.257 . S
O354 Tb336 2.349 . S
O354 C338 1.261 . S
O355 Tb337 2.303 . S
O355 C338 1.257 . S
C356 O346 1.236 . S
C356 O347 1.257 . S
O357 Tb336 2.415 . S
O357 C345 1.239 . S
O358 Tb336 2.399 . S
O358 C345 1.263 . S
C359 O348 1.261 . S
C359 O349 1.257 . S
C360 C363 1.358 . S
C360 C364 1.332 . S
C360 C366 1.504 . S
C361 C362 1.373 . S
C361 C365 1.308 . S
C362 C361 1.373 . S
C362 C363 1.429 . S
C362 H372 0.932 . S
C363 C360 1.358 . S
C363 C362 1.429 . S
C363 H373 0.930 . S
C364 C360 1.332 . S
C364 C365 1.394 . S
C364 H374 0.932 . S
C365 C361 1.308 . S
C365 C364 1.394 . S
C365 H375 0.929 . S
C366 Tb337 2.764 . S
C366 O350 1.239 . S
C366 O351 1.263 . S
C366 C360 1.504 . S
C367 O352 1.236 . S
C367 O353 1.257 . S
H368 C341 0.932 . S
H369 C342 0.930 . S
H370 C343 0.932 . S
H371 C344 0.929 . S
H372 C362 0.932 . S
H373 C363 0.930 . S
H374 C364 0.932 . S
H375 C365 0.929 . S
Tb376 C385 2.764 . S
Tb376 O386 2.325 . S
Tb376 O389 2.303 . S
Tb376 O393 2.322 1_455 S
Tb376 O394 2.349 . S
Tb376 O397 2.415 . S
Tb376 O398 2.399 . S
Tb377 O387 2.329 . S
Tb377 O388 2.351 . S
Tb377 O390 2.409 1_455 S
Tb377 O391 2.394 1_455 S
Tb377 O392 2.321 1_455 S
Tb377 O395 2.304 . S
Tb377 C406 2.758 1_455 S
C378 O394 1.261 . S
C378 O395 1.257 . S
C379 C382 1.358 . S
C379 C383 1.332 . S
C379 C385 1.504 . S
C380 C381 1.373 . S
C380 C384 1.308 . S
C381 C380 1.373 . S
C381 C382 1.429 . S
C381 H408 0.932 . S
C382 C379 1.358 . S
C382 C381 1.429 . S
C382 H409 0.930 . S
C383 C379 1.332 . S
C383 C384 1.394 . S
C383 H410 0.932 . S
C384 C380 1.308 . S
C384 C383 1.394 . S
C384 H411 0.929 . S
C385 Tb376 2.764 . S
C385 C379 1.504 . S
C385 O397 1.239 . S
C385 O398 1.263 . S
O386 Tb376 2.325 . S
O386 C396 1.236 . S
O387 Tb377 2.329 . S
O387 C396 1.257 . S
O388 Tb377 2.351 . S
O388 C399 1.261 . S
O389 Tb376 2.303 . S
O389 C399 1.257 . S
O390 Tb377 2.409 1_655 S
O390 C406 1.239 . S
O391 Tb377 2.394 1_655 S
O391 C406 1.263 . S
O392 Tb377 2.321 1_655 S
O392 C407 1.236 . S
O393 Tb376 2.322 1_655 S
O393 C407 1.257 . S
O394 Tb376 2.349 . S
O394 C378 1.261 . S
O395 Tb377 2.304 . S
O395 C378 1.257 . S
C396 O386 1.236 . S
C396 O387 1.257 . S
O397 Tb376 2.415 . S
O397 C385 1.239 . S
O398 Tb376 2.399 . S
O398 C385 1.263 . S
C399 O388 1.261 . S
C399 O389 1.257 . S
C400 C403 1.358 . S
C400 C404 1.332 . S
C400 C406 1.504 . S
C401 C402 1.373 . S
C401 C405 1.308 . S
C402 C401 1.373 . S
C402 C403 1.429 . S
C402 H412 0.932 . S
C403 C400 1.358 . S
C403 C402 1.429 . S
C403 H413 0.930 . S
C404 C400 1.332 . S
C404 C405 1.394 . S
C404 H414 0.932 . S
C405 C401 1.308 . S
C405 C404 1.394 . S
C405 H415 0.929 . S
C406 Tb377 2.758 1_655 S
C406 O390 1.239 . S
C406 O391 1.263 . S
C406 C400 1.504 . S
C407 O392 1.236 . S
C407 O393 1.257 . S
H408 C381 0.932 . S
H409 C382 0.930 . S
H410 C383 0.932 . S
H411 C384 0.929 . S
H412 C402 0.932 . S
H413 C403 0.930 . S
H414 C404 0.932 . S
H415 C405 0.929 . S
C416 C417 1.345 . S
C416 C418 1.327 . S
C416 H441 0.950 . S
C417 C416 1.345 . S
C417 C433 1.354 1_545 S
C418 C416 1.327 . S
C418 C437 1.423 1_545 S
C418 H442 0.950 . S
C419 C436 1.574 . S
C419 C438 1.381 . S
C419 H443 0.949 . S
H420 C424 0.949 . S
C421 C422 1.384 . S
C421 C423 1.327 . S
C421 H444 0.950 . S
C422 C421 1.384 . S
C422 C434 1.309 1_565 S
C423 C421 1.327 . S
C423 C439 1.458 . S
C423 H445 0.950 . S
C424 H420 0.949 . S
C424 C432 1.574 . S
C424 C440 1.344 1_545 S
H425 C433 0.950 . S
H426 C431 0.950 . S
H427 C432 0.949 . S
H428 C434 0.950 . S
H429 C435 0.950 . S
H430 C436 0.949 . S
C431 H426 0.950 . S
C431 C433 1.327 . S
C431 C437 1.434 . S
C432 C424 1.574 . S
C432 H427 0.949 . S
C432 C438 1.357 1_545 S
C433 C417 1.354 1_565 S
C433 H425 0.950 . S
C433 C431 1.327 . S
C434 C422 1.309 1_545 S
C434 H428 0.950 . S
C434 C435 1.327 . S
C435 H429 0.950 . S
C435 C434 1.327 . S
C435 C439 1.405 1_545 S
C436 C419 1.574 . S
C436 H430 0.949 . S
C436 C440 1.390 . S
C437 C418 1.423 1_565 S
C437 C431 1.434 . S
C437 C438 1.522 . S
C438 C419 1.381 . S
C438 C432 1.357 1_565 S
C438 C437 1.522 . S
C439 C423 1.458 . S
C439 C435 1.405 1_565 S
C439 C440 1.522 . S
C440 C424 1.344 1_565 S
C440 C436 1.390 . S
C440 C439 1.522 . S
H441 C416 0.950 . S
H442 C418 0.950 . S
H443 C419 0.949 . S
H444 C421 0.950 . S
H445 C423 0.950 . S
C446 C447 1.349 . S
C446 C448 1.327 . S
C446 H471 0.950 . S
C447 C446 1.349 . S
C447 C463 1.349 . S
C448 C446 1.327 . S
C448 C467 1.429 . S
C448 H472 0.950 . S
C449 C466 1.574 . S
C449 C468 1.368 . S
C449 H473 0.949 . S
H450 C454 0.949 . S
C451 C452 1.349 . S
C451 C453 1.327 . S
C451 H474 0.950 . S
C452 C451 1.349 . S
C452 C464 1.349 . S
C453 C451 1.327 . S
C453 C469 1.429 . S
C453 H475 0.950 . S
C454 H450 0.949 . S
C454 C462 1.574 . S
C454 C470 1.368 . S
H455 C463 0.950 . S
H456 C461 0.950 . S
H457 C462 0.949 . S
H458 C464 0.950 . S
H459 C465 0.950 . S
H460 C466 0.949 . S
C461 H456 0.950 . S
C461 C463 1.327 . S
C461 C467 1.429 . S
C462 C454 1.574 . S
C462 H457 0.949 . S
C462 C468 1.368 . S
C463 C447 1.349 . S
C463 H455 0.950 . S
C463 C461 1.327 . S
C464 C452 1.349 . S
C464 H458 0.950 . S
C464 C465 1.327 . S
C465 H459 0.950 . S
C465 C464 1.327 . S
C465 C469 1.429 . S
C466 C449 1.574 . S
C466 H460 0.949 . S
C466 C470 1.368 . S
C467 C448 1.429 . S
C467 C461 1.429 . S
C467 C468 1.523 . S
C468 C449 1.368 . S
C468 C462 1.368 . S
C468 C467 1.523 . S
C469 C453 1.429 . S
C469 C465 1.429 . S
C469 C470 1.523 . S
C470 C454 1.368 . S
C470 C466 1.368 . S
C470 C469 1.523 . S
H471 C446 0.950 . S
H472 C448 0.950 . S
H473 C449 0.949 . S
H474 C451 0.950 . S
H475 C453 0.950 . S
C476 C477 1.349 . S
C476 C478 1.327 . S
C476 H501 0.950 . S
C477 C476 1.349 . S
C477 C493 1.349 . S
C478 C476 1.327 . S
C478 C497 1.429 . S
C478 H502 0.950 . S
C479 C496 1.574 . S
C479 C498 1.368 . S
C479 H503 0.949 . S
H480 C484 0.949 . S
C481 C482 1.349 . S
C481 C483 1.327 . S
C481 H504 0.950 . S
C482 C481 1.349 . S
C482 C494 1.349 . S
C483 C481 1.327 . S
C483 C499 1.429 . S
C483 H505 0.950 . S
C484 H480 0.949 . S
C484 C492 1.574 . S
C484 C500 1.368 . S
H485 C493 0.950 . S
H486 C491 0.950 . S
H487 C492 0.949 . S
H488 C494 0.950 . S
H489 C495 0.950 . S
H490 C496 0.949 . S
C491 H486 0.950 . S
C491 C493 1.327 . S
C491 C497 1.429 . S
C492 C484 1.574 . S
C492 H487 0.949 . S
C492 C498 1.368 . S
C493 C477 1.349 . S
C493 H485 0.950 . S
C493 C491 1.327 . S
C494 C482 1.349 . S
C494 H488 0.950 . S
C494 C495 1.327 . S
C495 H489 0.950 . S
C495 C494 1.327 . S
C495 C499 1.429 . S
C496 C479 1.574 . S
C496 H490 0.949 . S
C496 C500 1.368 . S
C497 C478 1.429 . S
C497 C491 1.429 . S
C497 C498 1.523 . S
C498 C479 1.368 . S
C498 C492 1.368 . S
C498 C497 1.523 . S
C499 C483 1.429 . S
C499 C495 1.429 . S
C499 C500 1.523 . S
C500 C484 1.368 . S
C500 C496 1.368 . S
C500 C499 1.523 . S
H501 C476 0.950 . S
H502 C478 0.950 . S
H503 C479 0.949 . S
H504 C481 0.950 . S
H505 C483 0.950 . S
C506 C507 1.349 . S
C506 C508 1.327 . S
C506 H531 0.950 . S
C507 C506 1.349 . S
C507 C523 1.349 . S
C508 C506 1.327 . S
C508 C527 1.429 . S
C508 H532 0.950 . S
C509 C526 1.574 . S
C509 C528 1.368 . S
C509 H533 0.949 . S
H510 C514 0.949 . S
C511 C512 1.349 . S
C511 C513 1.327 . S
C511 H534 0.950 . S
C512 C511 1.349 . S
C512 C524 1.349 . S
C513 C511 1.327 . S
C513 C529 1.429 . S
C513 H535 0.950 . S
C514 H510 0.949 . S
C514 C522 1.574 . S
C514 C530 1.368 . S
H515 C523 0.950 . S
H516 C521 0.950 . S
H517 C522 0.949 . S
H518 C524 0.950 . S
H519 C525 0.950 . S
H520 C526 0.949 . S
C521 H516 0.950 . S
C521 C523 1.327 . S
C521 C527 1.429 . S
C522 C514 1.574 . S
C522 H517 0.949 . S
C522 C528 1.368 . S
C523 C507 1.349 . S
C523 H515 0.950 . S
C523 C521 1.327 . S
C524 C512 1.349 . S
C524 H518 0.950 . S
C524 C525 1.327 . S
C525 H519 0.950 . S
C525 C524 1.327 . S
C525 C529 1.429 . S
C526 C509 1.574 . S
C526 H520 0.949 . S
C526 C530 1.368 . S
C527 C508 1.429 . S
C527 C521 1.429 . S
C527 C528 1.523 . S
C528 C509 1.368 . S
C528 C522 1.368 . S
C528 C527 1.523 . S
C529 C513 1.429 . S
C529 C525 1.429 . S
C529 C530 1.523 . S
C530 C514 1.368 . S
C530 C526 1.368 . S
C530 C529 1.523 . S
H531 C506 0.950 . S
H532 C508 0.950 . S
H533 C509 0.949 . S
H534 C511 0.950 . S
H535 C513 0.950 . S
C536 C537 1.353 . S
C536 C538 1.327 . S
C536 H561 0.950 . S
C537 C536 1.353 . S
C537 C553 1.346 1_545 S
C538 C536 1.327 . S
C538 C557 1.438 . S
C538 H562 0.950 . S
C539 C556 1.574 1_554 S
C539 C558 1.353 1_565 S
C539 H563 0.949 . S
H540 C544 0.949 . S
C541 C542 1.349 1_565 S
C541 C543 1.327 . S
C541 H564 0.950 . S
C542 C541 1.349 1_545 S
C542 C554 1.349 . S
C543 C541 1.327 . S
C543 C559 1.406 1_565 S
C543 H565 0.950 . S
C544 H540 0.949 . S
C544 C552 1.574 . S
C544 C560 1.392 . S
H545 C553 0.950 . S
H546 C551 0.950 . S
H547 C552 0.949 . S
H548 C554 0.950 . S
H549 C555 0.950 . S
H550 C556 0.949 . S
C551 H546 0.950 . S
C551 C553 1.327 . S
C551 C557 1.416 1_565 S
C552 C544 1.574 . S
C552 H547 0.949 . S
C552 C558 1.387 . S
C553 C537 1.346 1_565 S
C553 H545 0.950 . S
C553 C551 1.327 . S
C554 C542 1.349 . S
C554 H548 0.950 . S
C554 C555 1.327 . S
C555 H549 0.950 . S
C555 C554 1.327 . S
C555 C559 1.460 . S
C556 C539 1.574 1_556 S
C556 H550 0.949 . S
C556 C560 1.342 1_566 S
C557 C538 1.438 . S
C557 C551 1.416 1_545 S
C557 C558 1.522 . S
C558 C539 1.353 1_545 S
C558 C552 1.387 . S
C558 C557 1.522 . S
C559 C543 1.406 1_545 S
C559 C555 1.460 . S
C559 C560 1.522 1_556 S
C560 C544 1.392 . S
C560 C556 1.342 1_544 S
C560 C559 1.522 1_554 S
H561 C536 0.950 . S
H562 C538 0.950 . S
H563 C539 0.949 . S
H564 C541 0.950 . S
H565 C543 0.950 . S
C566 C567 1.349 . S
C566 C568 1.327 . S
C566 H591 0.950 . S
C567 C566 1.349 . S
C567 C583 1.349 . S
C568 C566 1.327 . S
C568 C587 1.429 . S
C568 H592 0.950 . S
C569 C586 1.574 . S
C569 C588 1.368 . S
C569 H593 0.949 . S
H570 C574 0.949 . S
C571 C572 1.349 . S
C571 C573 1.327 . S
C571 H594 0.950 . S
C572 C571 1.349 . S
C572 C584 1.349 . S
C573 C571 1.327 . S
C573 C589 1.429 . S
C573 H595 0.950 . S
C574 H570 0.949 . S
C574 C582 1.574 . S
C574 C590 1.368 . S
H575 C583 0.950 1_554 S
H576 C581 0.950 . S
H577 C582 0.949 . S
H578 C584 0.950 . S
H579 C585 0.950 . S
H580 C586 0.949 . S
C581 H576 0.950 . S
C581 C583 1.327 . S
C581 C587 1.429 . S
C582 C574 1.574 . S
C582 H577 0.949 . S
C582 C588 1.368 . S
C583 C567 1.349 . S
C583 H575 0.950 1_556 S
C583 C581 1.327 . S
C584 C572 1.349 . S
C584 H578 0.950 . S
C584 C585 1.327 . S
C585 H579 0.950 . S
C585 C584 1.327 . S
C585 C589 1.429 . S
C586 C569 1.574 . S
C586 H580 0.949 . S
C586 C590 1.368 . S
C587 C568 1.429 . S
C587 C581 1.429 . S
C587 C588 1.523 . S
C588 C569 1.368 . S
C588 C582 1.368 . S
C588 C587 1.523 . S
C589 C573 1.429 . S
C589 C585 1.429 . S
C589 C590 1.523 . S
C590 C574 1.368 . S
C590 C586 1.368 . S
C590 C589 1.523 . S
H591 C566 0.950 . S
H592 C568 0.950 . S
H593 C569 0.949 . S
H594 C571 0.950 . S
H595 C573 0.950 . S
C596 C597 1.349 . S
C596 C598 1.327 . S
C596 H621 0.950 . S
C597 C596 1.349 . S
C597 C613 1.349 . S
C598 C596 1.327 . S
C598 C617 1.429 . S
C598 H622 0.950 . S
C599 C616 1.574 . S
C599 C618 1.368 . S
C599 H623 0.949 . S
H600 C604 0.947 1_556 S
C601 C602 1.349 . S
C601 C603 1.327 . S
C601 H624 0.950 . S
C602 C601 1.349 . S
C602 C614 1.349 . S
C603 C601 1.327 . S
C603 C619 1.429 . S
C603 H625 0.950 . S
C604 H600 0.947 1_554 S
C604 C612 1.576 . S
C604 C620 1.369 . S
H605 C613 0.950 . S
H606 C611 0.950 . S
H607 C612 0.949 . S
H608 C614 0.950 . S
H609 C615 0.950 . S
H610 C616 0.949 . S
C611 H606 0.950 . S
C611 C613 1.327 . S
C611 C617 1.429 . S
C612 C604 1.576 . S
C612 H607 0.949 . S
C612 C618 1.368 . S
C613 C597 1.349 . S
C613 H605 0.950 . S
C613 C611 1.327 . S
C614 C602 1.349 . S
C614 H608 0.950 . S
C614 C615 1.327 . S
C615 H609 0.950 . S
C615 C614 1.327 . S
C615 C619 1.429 . S
C616 C599 1.574 . S
C616 H610 0.949 . S
C616 C620 1.368 . S
C617 C598 1.429 . S
C617 C611 1.429 . S
C617 C618 1.523 . S
C618 C599 1.368 . S
C618 C612 1.368 . S
C618 C617 1.523 . S
C619 C603 1.429 . S
C619 C615 1.429 . S
C619 C620 1.523 1_556 S
C620 C604 1.369 . S
C620 C616 1.368 . S
C620 C619 1.523 1_554 S
H621 C596 0.950 . S
H622 C598 0.950 . S
H623 C599 0.949 . S
H624 C601 0.950 . S
H625 C603 0.950 . S
C626 C627 1.349 . S
C626 C628 1.327 . S
C626 H651 0.950 . S
C627 C626 1.349 . S
C627 C643 1.349 . S
C628 C626 1.327 . S
C628 C647 1.429 . S
C628 H652 0.950 . S
C629 C646 1.574 . S
C629 C648 1.368 . S
C629 H653 0.949 . S
H630 C634 0.949 1_455 S
C631 C632 1.313 1_655 S
C631 C633 1.327 . S
C631 H654 0.950 . S
C632 C631 1.313 1_455 S
C632 C644 1.375 . S
C633 C631 1.327 . S
C633 C649 1.429 . S
C633 H655 0.950 . S
C634 H630 0.949 1_655 S
C634 C642 1.574 1_556 S
C634 C650 1.368 . S
H635 C643 0.950 . S
H636 C641 0.950 . S
H637 C642 0.961 . S
H638 C644 0.950 . S
H639 C645 0.950 . S
H640 C646 0.949 . S
C641 H636 0.950 . S
C641 C643 1.327 . S
C641 C647 1.429 . S
C642 C634 1.574 1_554 S
C642 H637 0.961 . S
C642 C648 1.368 . S
C643 C627 1.349 . S
C643 H635 0.950 . S
C643 C641 1.327 . S
C644 C632 1.375 . S
C644 H638 0.950 . S
C644 C645 1.327 . S
C645 H639 0.950 . S
C645 C644 1.327 . S
C645 C649 1.429 1_455 S
C646 C629 1.574 . S
C646 H640 0.949 . S
C646 C650 1.368 1_554 S
C647 C628 1.429 . S
C647 C641 1.429 . S
C647 C648 1.523 . S
C648 C629 1.368 . S
C648 C642 1.368 . S
C648 C647 1.523 . S
C649 C633 1.429 . S
C649 C645 1.429 1_655 S
C649 C650 1.523 . S
C650 C634 1.368 . S
C650 C646 1.368 1_556 S
C650 C649 1.523 . S
H651 C626 0.950 . S
H652 C628 0.950 . S
H653 C629 0.949 . S
H654 C631 0.950 . S
H655 C633 0.950 . S
C656 C657 1.349 . S
C656 C658 1.327 . S
C656 H681 0.950 . S
C657 C656 1.349 . S
C657 C673 1.349 . S
C658 C656 1.327 . S
C658 C677 1.429 . S
C658 H682 0.950 . S
C659 C676 1.574 . S
C659 C678 1.368 . S
C659 H683 0.949 . S
H660 C664 0.949 . S
C661 C662 1.349 1_455 S
C661 C663 1.327 . S
C661 H684 0.950 . S
C662 C661 1.349 1_655 S
C662 C674 1.349 . S
C663 C661 1.327 . S
C663 C679 1.429 . S
C663 H685 0.950 . S
C664 H660 0.949 . S
C664 C672 1.574 . S
C664 C680 1.368 . S
H665 C673 0.950 . S
H666 C671 0.950 . S
H667 C672 0.949 . S
H668 C674 0.950 . S
H669 C675 0.953 . S
H670 C676 0.949 . S
C671 H666 0.950 . S
C671 C673 1.327 . S
C671 C677 1.429 . S
C672 C664 1.574 . S
C672 H667 0.949 . S
C672 C678 1.368 . S
C673 C657 1.349 . S
C673 H665 0.950 . S
C673 C671 1.327 . S
C674 C662 1.349 . S
C674 H668 0.950 . S
C674 C675 1.327 1_655 S
C675 H669 0.953 . S
C675 C674 1.327 1_455 S
C675 C679 1.429 . S
C676 C659 1.574 . S
C676 H670 0.949 . S
C676 C680 1.368 . S
C677 C658 1.429 . S
C677 C671 1.429 . S
C677 C678 1.523 . S
C678 C659 1.368 . S
C678 C672 1.368 . S
C678 C677 1.523 . S
C679 C663 1.429 . S
C679 C675 1.429 . S
C679 C680 1.523 . S
C680 C664 1.368 . S
C680 C676 1.368 . S
C680 C679 1.523 . S
H681 C656 0.950 . S
H682 C658 0.950 . S
H683 C659 0.949 . S
H684 C661 0.950 . S
H685 C663 0.950 . S
C686 C687 1.349 . S
C686 C688 1.337 . S
C686 H711 0.950 . S
C687 C686 1.349 . S
C687 C703 1.349 1_545 S
C688 C686 1.337 . S
C688 C707 1.422 1_545 S
C688 H712 0.949 . S
C689 C706 1.574 . S
C689 C708 1.368 . S
C689 H713 0.949 . S
H690 C694 0.949 . S
C691 C692 1.349 . S
C691 C693 1.327 . S
C691 H714 0.950 . S
C692 C691 1.349 . S
C692 C704 1.349 . S
C693 C691 1.327 . S
C693 C709 1.429 . S
C693 H715 0.950 . S
C694 H690 0.949 . S
C694 C702 1.574 . S
C694 C710 1.368 . S
H695 C703 0.950 . S
H696 C701 0.950 . S
H697 C702 0.949 . S
H698 C704 0.950 . S
H699 C705 0.950 . S
H700 C706 0.949 . S
C701 H696 0.950 . S
C701 C703 1.327 . S
C701 C707 1.429 . S
C702 C694 1.574 . S
C702 H697 0.949 . S
C702 C708 1.368 . S
C703 C687 1.349 1_565 S
C703 H695 0.950 . S
C703 C701 1.327 . S
C704 C692 1.349 . S
C704 H698 0.950 . S
C704 C705 1.327 . S
C705 H699 0.950 . S
C705 C704 1.327 . S
C705 C709 1.429 . S
C706 C689 1.574 . S
C706 H700 0.949 . S
C706 C710 1.368 . S
C707 C688 1.422 1_565 S
C707 C701 1.429 . S
C707 C708 1.523 . S
C708 C689 1.368 . S
C708 C702 1.368 . S
C708 C707 1.523 . S
C709 C693 1.429 . S
C709 C705 1.429 . S
C709 C710 1.523 . S
C710 C694 1.368 . S
C710 C706 1.368 . S
C710 C709 1.523 . S
H711 C686 0.950 . S
H712 C688 0.949 . S
H713 C689 0.949 . S
H714 C691 0.950 . S
H715 C693 0.950 . S
C716 C717 1.349 . S
C716 C718 1.327 . S
C716 H741 0.950 . S
C717 C716 1.349 . S
C717 C733 1.349 . S
C718 C716 1.327 . S
C718 C737 1.429 . S
C718 H742 0.950 . S
C719 C736 1.574 . S
C719 C738 1.368 . S
C719 H743 0.949 . S
H720 C724 0.949 . S
C721 C722 1.349 . S
C721 C723 1.327 . S
C721 H744 0.950 . S
C722 C721 1.349 . S
C722 C734 1.349 . S
C723 C721 1.327 . S
C723 C739 1.429 . S
C723 H745 0.950 . S
C724 H720 0.949 . S
C724 C732 1.574 . S
C724 C740 1.368 . S
H725 C733 0.950 . S
H726 C731 0.950 . S
H727 C732 0.949 . S
H728 C734 0.950 . S
H729 C735 0.950 . S
H730 C736 0.949 . S
C731 H726 0.950 . S
C731 C733 1.327 . S
C731 C737 1.429 . S
C732 C724 1.574 . S
C732 H727 0.949 . S
C732 C738 1.368 . S
C733 C717 1.349 . S
C733 H725 0.950 . S
C733 C731 1.327 . S
C734 C722 1.349 . S
C734 H728 0.950 . S
C734 C735 1.327 . S
C735 H729 0.950 . S
C735 C734 1.327 . S
C735 C739 1.429 . S
C736 C719 1.574 . S
C736 H730 0.949 . S
C736 C740 1.368 . S
C737 C718 1.429 . S
C737 C731 1.429 . S
C737 C738 1.523 . S
C738 C719 1.368 . S
C738 C732 1.368 . S
C738 C737 1.523 . S
C739 C723 1.429 . S
C739 C735 1.429 . S
C739 C740 1.523 . S
C740 C724 1.368 . S
C740 C736 1.368 . S
C740 C739 1.523 . S
H741 C716 0.950 . S
H742 C718 0.950 . S
H743 C719 0.949 . S
H744 C721 0.950 . S
H745 C723 0.950 . S
C746 C747 1.349 . S
C746 C748 1.327 . S
C746 H771 0.950 . S
C747 C746 1.349 . S
C747 C763 1.349 . S
C748 C746 1.327 . S
C748 C767 1.429 . S
C748 H772 0.950 . S
C749 C766 1.574 . S
C749 C768 1.368 . S
C749 H773 0.949 . S
H750 C754 0.949 . S
C751 C752 1.349 . S
C751 C753 1.327 . S
C751 H774 0.950 . S
C752 C751 1.349 . S
C752 C764 1.349 . S
C753 C751 1.327 . S
C753 C769 1.429 . S
C753 H775 0.950 . S
C754 H750 0.949 . S
C754 C762 1.574 . S
C754 C770 1.368 . S
H755 C763 0.950 . S
H756 C761 0.950 . S
H757 C762 0.949 . S
H758 C764 0.950 . S
H759 C765 0.950 . S
H760 C766 0.949 . S
C761 H756 0.950 . S
C761 C763 1.327 . S
C761 C767 1.429 . S
C762 C754 1.574 . S
C762 H757 0.949 . S
C762 C768 1.368 . S
C763 C747 1.349 . S
C763 H755 0.950 . S
C763 C761 1.327 . S
C764 C752 1.349 . S
C764 H758 0.950 . S
C764 C765 1.327 . S
C765 H759 0.950 . S
C765 C764 1.327 . S
C765 C769 1.429 . S
C766 C749 1.574 . S
C766 H760 0.949 . S
C766 C770 1.368 . S
C767 C748 1.429 . S
C767 C761 1.429 . S
C767 C768 1.523 . S
C768 C749 1.368 . S
C768 C762 1.368 . S
C768 C767 1.523 . S
C769 C753 1.429 . S
C769 C765 1.429 . S
C769 C770 1.523 . S
C770 C754 1.368 . S
C770 C766 1.368 . S
C770 C769 1.523 . S
H771 C746 0.950 . S
H772 C748 0.950 . S
H773 C749 0.949 . S
H774 C751 0.950 . S
H775 C753 0.950 . S
C776 C777 1.349 . S
C776 C778 1.327 . S
C776 H801 0.950 . S
C777 C776 1.349 . S
C777 C793 1.349 . S
C778 C776 1.327 . S
C778 C797 1.429 . S
C778 H802 0.950 . S
C779 C796 1.574 1_554 S
C779 C798 1.368 . S
C779 H803 0.949 1_554 S
H780 C784 0.949 . S
C781 C782 1.349 . S
C781 C783 1.327 . S
C781 H804 0.950 . S
C782 C781 1.349 . S
C782 C794 1.349 . S
C783 C781 1.327 . S
C783 C799 1.429 . S
C783 H805 0.925 1_455 S
C784 H780 0.949 . S
C784 C792 1.574 1_455 S
C784 C800 1.368 . S
H785 C793 0.950 . S
H786 C791 0.950 . S
H787 C792 0.949 . S
H788 C794 0.950 1_554 S
H789 C795 0.950 . S
H790 C796 0.949 . S
C791 H786 0.950 . S
C791 C793 1.327 . S
C791 C797 1.429 . S
C792 C784 1.574 1_655 S
C792 H787 0.949 . S
C792 C798 1.368 . S
C793 C777 1.349 . S
C793 H785 0.950 . S
C793 C791 1.327 . S
C794 C782 1.349 . S
C794 H788 0.950 1_556 S
C794 C795 1.327 1_556 S
C795 H789 0.950 . S
C795 C794 1.327 1_554 S
C795 C799 1.429 1_554 S
C796 C779 1.574 1_556 S
C796 H790 0.949 . S
C796 C800 1.368 1_656 S
C797 C778 1.429 . S
C797 C791 1.429 . S
C797 C798 1.523 . S
C798 C779 1.368 . S
C798 C792 1.368 . S
C798 C797 1.523 . S
C799 C783 1.429 . S
C799 C795 1.429 1_556 S
C799 C800 1.523 1_556 S
C800 C784 1.368 . S
C800 C796 1.368 1_454 S
C800 C799 1.523 1_554 S
H801 C776 0.950 . S
H802 C778 0.950 . S
H803 C779 0.949 1_556 S
H804 C781 0.950 . S
H805 C783 0.925 1_655 S
C806 C807 1.349 1_545 S
C806 C808 1.327 . S
C806 H831 0.950 . S
C807 C806 1.349 1_565 S
C807 C823 1.349 . S
C808 C806 1.327 . S
C808 C827 1.429 . S
C808 H832 0.950 . S
C809 C826 1.574 1_565 S
C809 C828 1.369 1_565 S
C809 H833 0.948 . S
H810 C814 0.949 . S
C811 C812 1.349 . S
C811 C813 1.327 . S
C811 H834 0.950 . S
C812 C811 1.349 . S
C812 C824 1.349 1_556 S
C813 C811 1.327 . S
C813 C829 1.429 1_556 S
C813 H835 0.950 . S
C814 H810 0.949 . S
C814 C822 1.574 . S
C814 C830 1.368 . S
H815 C823 0.950 . S
H816 C821 0.950 . S
H817 C822 0.949 . S
H818 C824 0.950 . S
H819 C825 0.950 . S
H820 C826 0.949 1_566 S
C821 H816 0.950 . S
C821 C823 1.327 . S
C821 C827 1.429 1_565 S
C822 C814 1.574 . S
C822 H817 0.949 . S
C822 C828 1.368 . S
C823 C807 1.349 . S
C823 H815 0.950 . S
C823 C821 1.327 . S
C824 C812 1.349 1_554 S
C824 H818 0.950 . S
C824 C825 1.327 . S
C825 H819 0.950 . S
C825 C824 1.327 . S
C825 C829 1.429 . S
C826 C809 1.574 1_545 S
C826 H820 0.949 1_544 S
C826 C830 1.368 . S
C827 C808 1.429 . S
C827 C821 1.429 1_545 S
C827 C828 1.523 . S
C828 C809 1.369 1_545 S
C828 C822 1.368 . S
C828 C827 1.523 . S
C829 C813 1.429 1_554 S
C829 C825 1.429 . S
C829 C830 1.523 . S
C830 C814 1.368 . S
C830 C826 1.368 . S
C830 C829 1.523 . S
H831 C806 0.950 . S
H832 C808 0.950 . S
H833 C809 0.948 . S
H834 C811 0.950 . S
H835 C813 0.950 . S
C836 C837 1.349 . S
C836 C838 1.327 . S
C836 H861 0.950 . S
C837 C836 1.349 . S
C837 C853 1.349 . S
C838 C836 1.327 . S
C838 C857 1.429 . S
C838 H862 0.950 . S
C839 C856 1.574 . S
C839 C858 1.368 . S
C839 H863 0.949 . S
H840 C844 0.949 . S
C841 C842 1.349 . S
C841 C843 1.327 . S
C841 H864 0.950 . S
C842 C841 1.349 . S
C842 C854 1.349 . S
C843 C841 1.327 . S
C843 C859 1.429 . S
C843 H865 0.950 . S
C844 H840 0.949 . S
C844 C852 1.574 . S
C844 C860 1.368 . S
H845 C853 0.950 . S
H846 C851 0.950 . S
H847 C852 0.949 . S
H848 C854 0.950 . S
H849 C855 0.950 . S
H850 C856 0.949 . S
C851 H846 0.950 . S
C851 C853 1.327 . S
C851 C857 1.429 . S
C852 C844 1.574 . S
C852 H847 0.949 . S
C852 C858 1.368 . S
C853 C837 1.349 . S
C853 H845 0.950 . S
C853 C851 1.327 . S
C854 C842 1.349 . S
C854 H848 0.950 . S
C854 C855 1.327 . S
C855 H849 0.950 . S
C855 C854 1.327 . S
C855 C859 1.429 . S
C856 C839 1.574 . S
C856 H850 0.949 . S
C856 C860 1.368 . S
C857 C838 1.429 . S
C857 C851 1.429 . S
C857 C858 1.523 . S
C858 C839 1.368 . S
C858 C852 1.368 . S
C858 C857 1.523 . S
C859 C843 1.429 . S
C859 C855 1.429 . S
C859 C860 1.523 . S
C860 C844 1.368 . S
C860 C856 1.368 . S
C860 C859 1.523 . S
H861 C836 0.950 . S
H862 C838 0.950 . S
H863 C839 0.949 . S
H864 C841 0.950 . S
H865 C843 0.950 . S
C866 C867 1.349 . S
C866 C868 1.327 . S
C866 H891 0.950 . S
C867 C866 1.349 . S
C867 C883 1.349 . S
C868 C866 1.327 . S
C868 C887 1.429 . S
C868 H892 0.950 . S
C869 C886 1.574 . S
C869 C888 1.368 . S
C869 H893 0.949 . S
H870 C874 0.949 . S
C871 C872 1.349 . S
C871 C873 1.327 . S
C871 H894 0.950 . S
C872 C871 1.349 . S
C872 C884 1.349 . S
C873 C871 1.327 . S
C873 C889 1.429 1_556 S
C873 H895 0.950 . S
C874 H870 0.949 . S
C874 C882 1.574 . S
C874 C890 1.368 . S
H875 C883 0.950 . S
H876 C881 0.950 . S
H877 C882 0.949 . S
H878 C884 0.950 . S
H879 C885 0.950 . S
H880 C886 0.961 . S
C881 H876 0.950 . S
C881 C883 1.327 . S
C881 C887 1.429 . S
C882 C874 1.574 . S
C882 H877 0.949 . S
C882 C888 1.368 . S
C883 C867 1.349 . S
C883 H875 0.950 . S
C883 C881 1.327 . S
C884 C872 1.349 . S
C884 H878 0.950 . S
C884 C885 1.327 1_556 S
C885 H879 0.950 . S
C885 C884 1.327 1_554 S
C885 C889 1.429 . S
C886 C869 1.574 . S
C886 H880 0.961 . S
C886 C890 1.368 . S
C887 C868 1.429 . S
C887 C881 1.429 . S
C887 C888 1.523 . S
C888 C869 1.368 . S
C888 C882 1.368 . S
C888 C887 1.523 . S
C889 C873 1.429 1_554 S
C889 C885 1.429 . S
C889 C890 1.523 . S
C890 C874 1.368 . S
C890 C886 1.368 . S
C890 C889 1.523 . S
H891 C866 0.950 . S
H892 C868 0.950 . S
H893 C869 0.949 . S
H894 C871 0.950 . S
H895 C873 0.950 . S
C896 C897 1.349 1_554 S
C896 C898 1.327 . S
C896 H921 0.950 . S
C897 C896 1.349 1_556 S
C897 C913 1.349 . S
C898 C896 1.327 . S
C898 C917 1.429 1_554 S
C898 H922 0.950 . S
C899 C916 1.574 . S
C899 C918 1.368 . S
C899 H923 0.949 . S
H900 C904 0.949 . S
C901 C902 1.349 . S
C901 C903 1.327 . S
C901 H924 0.950 . S
C902 C901 1.349 . S
C902 C914 1.349 . S
C903 C901 1.327 . S
C903 C919 1.429 . S
C903 H925 0.950 . S
C904 H900 0.949 . S
C904 C912 1.574 . S
C904 C920 1.368 . S
H905 C913 0.950 . S
H906 C911 0.950 . S
H907 C912 0.949 1_554 S
H908 C914 0.950 . S
H909 C915 0.950 . S
H910 C916 0.949 . S
C911 H906 0.950 . S
C911 C913 1.327 . S
C911 C917 1.429 . S
C912 C904 1.574 . S
C912 H907 0.949 1_556 S
C912 C918 1.368 . S
C913 C897 1.349 . S
C913 H905 0.950 . S
C913 C911 1.327 . S
C914 C902 1.349 . S
C914 H908 0.950 . S
C914 C915 1.327 . S
C915 H909 0.950 . S
C915 C914 1.327 . S
C915 C919 1.429 . S
C916 C899 1.574 . S
C916 H910 0.949 . S
C916 C920 1.368 . S
C917 C898 1.429 1_556 S
C917 C911 1.429 . S
C917 C918 1.523 . S
C918 C899 1.368 . S
C918 C912 1.368 . S
C918 C917 1.523 . S
C919 C903 1.429 . S
C919 C915 1.429 . S
C919 C920 1.523 . S
C920 C904 1.368 . S
C920 C916 1.368 . S
C920 C919 1.523 . S
H921 C896 0.950 . S
H922 C898 0.950 . S
H923 C899 0.949 . S
H924 C901 0.950 . S
H925 C903 0.950 . S
C926 C927 1.381 . S
C926 C928 1.327 . S
C926 H951 0.950 . S
C927 C926 1.381 . S
C927 C943 1.320 1_545 S
C928 C926 1.327 . S
C928 C947 1.429 . S
C928 H952 0.950 . S
C929 C946 1.574 . S
C929 C948 1.368 1_565 S
C929 H953 0.949 . S
H930 C934 0.949 . S
C931 C932 1.349 1_565 S
C931 C933 1.327 . S
C931 H954 0.950 . S
C932 C931 1.349 1_545 S
C932 C944 1.349 . S
C933 C931 1.327 . S
C933 C949 1.429 1_565 S
C933 H955 0.950 . S
C934 H930 0.949 . S
C934 C942 1.574 . S
C934 C950 1.368 . S
H935 C943 0.950 . S
H936 C941 0.950 . S
H937 C942 0.949 . S
H938 C944 0.950 . S
H939 C945 0.950 . S
H940 C946 0.949 . S
C941 H936 0.950 . S
C941 C943 1.327 . S
C941 C947 1.429 1_565 S
C942 C934 1.574 . S
C942 H937 0.949 . S
C942 C948 1.368 . S
C943 C927 1.320 1_565 S
C943 H935 0.950 . S
C943 C941 1.327 . S
C944 C932 1.349 . S
C944 H938 0.950 . S
C944 C945 1.327 . S
C945 H939 0.950 . S
C945 C944 1.327 . S
C945 C949 1.429 . S
C946 C929 1.574 . S
C946 H940 0.949 . S
C946 C950 1.368 1_565 S
C947 C928 1.429 . S
C947 C941 1.429 1_545 S
C947 C948 1.523 . S
C948 C929 1.368 1_545 S
C948 C942 1.368 . S
C948 C947 1.523 . S
C949 C933 1.429 1_545 S
C949 C945 1.429 . S
C949 C950 1.523 . S
C950 C934 1.368 . S
C950 C946 1.368 1_545 S
C950 C949 1.523 . S
H951 C926 0.950 . S
H952 C928 0.950 . S
H953 C929 0.949 . S
H954 C931 0.950 . S
H955 C933 0.950 . S
C956 C957 1.349 . S
C956 C958 1.327 . S
C956 H981 0.950 . S
C957 C956 1.349 . S
C957 C973 1.349 . S
C958 C956 1.327 . S
C958 C977 1.429 . S
C958 H982 0.950 . S
C959 C976 1.574 . S
C959 C978 1.368 . S
C959 H983 0.949 . S
H960 C964 0.949 . S
C961 C962 1.349 . S
C961 C963 1.327 . S
C961 H984 0.950 . S
C962 C961 1.349 . S
C962 C974 1.349 . S
C963 C961 1.327 . S
C963 C979 1.429 . S
C963 H985 0.950 . S
C964 H960 0.949 . S
C964 C972 1.574 . S
C964 C980 1.368 . S
H965 C973 0.950 . S
H966 C971 0.950 . S
H967 C972 0.949 . S
H968 C974 0.950 . S
H969 C975 0.950 . S
H970 C976 0.949 . S
C971 H966 0.950 . S
C971 C973 1.327 . S
C971 C977 1.429 . S
C972 C964 1.574 . S
C972 H967 0.949 . S
C972 C978 1.368 . S
C973 C957 1.349 . S
C973 H965 0.950 . S
C973 C971 1.327 . S
C974 C962 1.349 . S
C974 H968 0.950 . S
C974 C975 1.327 . S
C975 H969 0.950 . S
C975 C974 1.327 . S
C975 C979 1.429 . S
C976 C959 1.574 . S
C976 H970 0.949 . S
C976 C980 1.368 . S
C977 C958 1.429 . S
C977 C971 1.429 . S
C977 C978 1.523 . S
C978 C959 1.368 . S
C978 C972 1.368 . S
C978 C977 1.523 . S
C979 C963 1.429 . S
C979 C975 1.429 . S
C979 C980 1.523 . S
C980 C964 1.368 . S
C980 C976 1.368 . S
C980 C979 1.523 . S
H981 C956 0.950 . S
H982 C958 0.950 . S
H983 C959 0.949 . S
H984 C961 0.950 . S
H985 C963 0.950 . S
C986 C987 1.349 . S
C986 C988 1.327 . S
C986 H1011 0.950 1_556 S
C987 C986 1.349 . S
C987 C1003 1.349 . S
C988 C986 1.327 . S
C988 C1007 1.429 . S
C988 H1012 0.950 . S
C989 C1006 1.574 . S
C989 C1008 1.368 . S
C989 H1013 0.949 . S
H990 C994 0.949 . S
C991 C992 1.349 . S
C991 C993 1.327 . S
C991 H1014 0.950 . S
C992 C991 1.349 . S
C992 C1004 1.349 . S
C993 C991 1.327 . S
C993 C1009 1.429 . S
C993 H1015 0.950 . S
C994 H990 0.949 . S
C994 C1002 1.574 . S
C994 C1010 1.368 . S
H995 C1003 0.950 . S
H996 C1001 0.950 . S
H997 C1002 0.949 . S
H998 C1004 0.950 . S
H999 C1005 0.950 . S
H1000 C1006 0.949 . S
C1001 H996 0.950 . S
C1001 C1003 1.327 . S
C1001 C1007 1.429 . S
C1002 C994 1.574 . S
C1002 H997 0.949 . S
C1002 C1008 1.368 . S
C1003 C987 1.349 . S
C1003 H995 0.950 . S
C1003 C1001 1.327 . S
C1004 C992 1.349 . S
C1004 H998 0.950 . S
C1004 C1005 1.327 . S
C1005 H999 0.950 . S
C1005 C1004 1.327 . S
C1005 C1009 1.429 . S
C1006 C989 1.574 . S
C1006 H1000 0.949 . S
C1006 C1010 1.368 . S
C1007 C988 1.429 . S
C1007 C1001 1.429 . S
C1007 C1008 1.523 . S
C1008 C989 1.368 . S
C1008 C1002 1.368 . S
C1008 C1007 1.523 . S
C1009 C993 1.429 . S
C1009 C1005 1.429 . S
C1009 C1010 1.523 . S
C1010 C994 1.368 . S
C1010 C1006 1.368 . S
C1010 C1009 1.523 . S
H1011 C986 0.950 1_554 S
H1012 C988 0.950 . S
H1013 C989 0.949 . S
H1014 C991 0.950 . S
H1015 C993 0.950 . S
C1016 C1017 1.349 . S
C1016 C1018 1.327 . S
C1016 H1041 0.950 . S
C1017 C1016 1.349 . S
C1017 C1033 1.349 . S
C1018 C1016 1.327 . S
C1018 C1037 1.429 . S
C1018 H1042 0.950 . S
C1019 C1036 1.574 . S
C1019 C1038 1.368 . S
C1019 H1043 0.949 . S
H1020 C1024 0.949 1_455 S
C1021 C1022 1.349 . S
C1021 C1023 1.327 . S
C1021 H1044 0.950 . S
C1022 C1021 1.349 . S
C1022 C1034 1.349 1_655 S
C1023 C1021 1.327 . S
C1023 C1039 1.429 . S
C1023 H1045 0.950 . S
C1024 H1020 0.949 1_655 S
C1024 C1032 1.574 . S
C1024 C1040 1.368 . S
H1025 C1033 0.950 . S
H1026 C1031 0.950 . S
H1027 C1032 0.985 . S
H1028 C1034 0.950 . S
H1029 C1035 0.978 . S
H1030 C1036 0.949 . S
C1031 H1026 0.950 . S
C1031 C1033 1.327 . S
C1031 C1037 1.429 . S
C1032 C1024 1.574 . S
C1032 H1027 0.985 . S
C1032 C1038 1.368 . S
C1033 C1017 1.349 . S
C1033 H1025 0.950 . S
C1033 C1031 1.327 . S
C1034 C1022 1.349 1_455 S
C1034 H1028 0.950 . S
C1034 C1035 1.334 . S
C1035 H1029 0.978 . S
C1035 C1034 1.334 . S
C1035 C1039 1.396 1_455 S
C1036 C1019 1.574 . S
C1036 H1030 0.949 . S
C1036 C1040 1.368 . S
C1037 C1018 1.429 . S
C1037 C1031 1.429 . S
C1037 C1038 1.523 . S
C1038 C1019 1.368 . S
C1038 C1032 1.368 . S
C1038 C1037 1.523 . S
C1039 C1023 1.429 . S
C1039 C1035 1.396 1_655 S
C1039 C1040 1.523 . S
C1040 C1024 1.368 . S
C1040 C1036 1.368 . S
C1040 C1039 1.523 . S
H1041 C1016 0.950 . S
H1042 C1018 0.950 . S
H1043 C1019 0.949 . S
H1044 C1021 0.950 . S
H1045 C1023 0.950 . S
C1046 C1047 1.329 1_545 S
C1046 C1048 1.327 . S
C1046 H1071 0.950 . S
C1047 C1046 1.329 1_565 S
C1047 C1063 1.370 . S
C1048 C1046 1.327 . S
C1048 C1067 1.429 1_545 S
C1048 H1072 0.950 . S
C1049 C1066 1.574 . S
C1049 C1068 1.368 . S
C1049 H1073 0.949 . S
H1050 C1054 0.949 . S
C1051 C1052 1.349 . S
C1051 C1053 1.327 . S
C1051 H1074 0.950 . S
C1052 C1051 1.349 . S
C1052 C1064 1.349 1_565 S
C1053 C1051 1.327 . S
C1053 C1069 1.429 . S
C1053 H1075 0.950 . S
C1054 H1050 0.949 . S
C1054 C1062 1.574 . S
C1054 C1070 1.368 1_545 S
H1055 C1063 0.950 . S
H1056 C1061 0.950 . S
H1057 C1062 0.949 . S
H1058 C1064 0.950 . S
H1059 C1065 0.950 . S
H1060 C1066 0.949 . S
C1061 H1056 0.950 . S
C1061 C1063 1.327 . S
C1061 C1067 1.429 . S
C1062 C1054 1.574 . S
C1062 H1057 0.949 . S
C1062 C1068 1.368 1_545 S
C1063 C1047 1.370 . S
C1063 H1055 0.950 . S
C1063 C1061 1.327 . S
C1064 C1052 1.349 1_545 S
C1064 H1058 0.950 . S
C1064 C1065 1.327 . S
C1065 H1059 0.950 . S
C1065 C1064 1.327 . S
C1065 C1069 1.429 1_545 S
C1066 C1049 1.574 . S
C1066 H1060 0.949 . S
C1066 C1070 1.368 . S
C1067 C1048 1.429 1_565 S
C1067 C1061 1.429 . S
C1067 C1068 1.523 . S
C1068 C1049 1.368 . S
C1068 C1062 1.368 1_565 S
C1068 C1067 1.523 . S
C1069 C1053 1.429 . S
C1069 C1065 1.429 1_565 S
C1069 C1070 1.523 . S
C1070 C1054 1.368 1_565 S
C1070 C1066 1.368 . S
C1070 C1069 1.523 . S
H1071 C1046 0.950 . S
H1072 C1048 0.950 . S
H1073 C1049 0.949 . S
H1074 C1051 0.950 . S
H1075 C1053 0.950 . S
C1076 C1077 1.349 . S
C1076 C1078 1.327 . S
C1076 H1101 0.950 . S
C1077 C1076 1.349 . S
C1077 C1093 1.349 . S
C1078 C1076 1.327 . S
C1078 C1097 1.429 . S
C1078 H1102 0.950 . S
C1079 C1096 1.574 . S
C1079 C1098 1.368 . S
C1079 H1103 0.949 . S
H1080 C1084 0.949 . S
C1081 C1082 1.349 . S
C1081 C1083 1.327 . S
C1081 H1104 0.950 . S
C1082 C1081 1.349 . S
C1082 C1094 1.349 . S
C1083 C1081 1.327 . S
C1083 C1099 1.429 . S
C1083 H1105 0.950 . S
C1084 H1080 0.949 . S
C1084 C1092 1.574 . S
C1084 C1100 1.368 . S
H1085 C1093 0.950 . S
H1086 C1091 0.950 . S
H1087 C1092 0.949 . S
H1088 C1094 0.950 . S
H1089 C1095 0.950 . S
H1090 C1096 0.949 . S
C1091 H1086 0.950 . S
C1091 C1093 1.327 . S
C1091 C1097 1.429 . S
C1092 C1084 1.574 . S
C1092 H1087 0.949 . S
C1092 C1098 1.368 . S
C1093 C1077 1.349 . S
C1093 H1085 0.950 . S
C1093 C1091 1.327 . S
C1094 C1082 1.349 . S
C1094 H1088 0.950 . S
C1094 C1095 1.327 . S
C1095 H1089 0.950 . S
C1095 C1094 1.327 . S
C1095 C1099 1.429 . S
C1096 C1079 1.574 . S
C1096 H1090 0.949 . S
C1096 C1100 1.368 . S
C1097 C1078 1.429 . S
C1097 C1091 1.429 . S
C1097 C1098 1.523 . S
C1098 C1079 1.368 . S
C1098 C1092 1.368 . S
C1098 C1097 1.523 . S
C1099 C1083 1.429 . S
C1099 C1095 1.429 . S
C1099 C1100 1.523 . S
C1100 C1084 1.368 . S
C1100 C1096 1.368 . S
C1100 C1099 1.523 . S
H1101 C1076 0.950 . S
H1102 C1078 0.950 . S
H1103 C1079 0.949 . S
H1104 C1081 0.950 . S
H1105 C1083 0.950 . S
C1106 C1107 1.349 . S
C1106 C1108 1.327 . S
C1106 H1131 0.950 . S
C1107 C1106 1.349 . S
C1107 C1123 1.349 . S
C1108 C1106 1.327 . S
C1108 C1127 1.429 . S
C1108 H1132 0.950 . S
C1109 C1126 1.574 . S
C1109 C1128 1.368 . S
C1109 H1133 0.949 . S
H1110 C1114 0.949 . S
C1111 C1112 1.349 . S
C1111 C1113 1.327 . S
C1111 H1134 0.950 . S
C1112 C1111 1.349 . S
C1112 C1124 1.349 . S
C1113 C1111 1.327 . S
C1113 C1129 1.429 . S
C1113 H1135 0.950 . S
C1114 H1110 0.949 . S
C1114 C1122 1.574 . S
C1114 C1130 1.368 . S
H1115 C1123 0.950 . S
H1116 C1121 0.950 . S
H1117 C1122 0.949 . S
H1118 C1124 0.950 . S
H1119 C1125 0.950 . S
H1120 C1126 0.949 . S
C1121 H1116 0.950 . S
C1121 C1123 1.327 . S
C1121 C1127 1.429 . S
C1122 C1114 1.574 . S
C1122 H1117 0.949 . S
C1122 C1128 1.368 . S
C1123 C1107 1.349 . S
C1123 H1115 0.950 . S
C1123 C1121 1.327 . S
C1124 C1112 1.349 . S
C1124 H1118 0.950 . S
C1124 C1125 1.327 . S
C1125 H1119 0.950 . S
C1125 C1124 1.327 . S
C1125 C1129 1.429 . S
C1126 C1109 1.574 . S
C1126 H1120 0.949 . S
C1126 C1130 1.368 . S
C1127 C1108 1.429 . S
C1127 C1121 1.429 . S
C1127 C1128 1.523 . S
C1128 C1109 1.368 . S
C1128 C1122 1.368 . S
C1128 C1127 1.523 . S
C1129 C1113 1.429 . S
C1129 C1125 1.429 . S
C1129 C1130 1.523 . S
C1130 C1114 1.368 . S
C1130 C1126 1.368 . S
C1130 C1129 1.523 . S
H1131 C1106 0.950 . S
H1132 C1108 0.950 . S
H1133 C1109 0.949 . S
H1134 C1111 0.950 . S
H1135 C1113 0.950 . S
C417 C215 1.798 . S
C422 C279 1.915 . S
C452 C319 1.534 . S
C447 C247 1.532 . S
C482 C338 1.960 . S
C477 C151 1.846 . S
C512 C399 1.492 . S
C507 C183 1.447 . S
C542 C258 1.903 . S
C537 C87 1.798 . S
C567 C119 1.456 . S
C572 C298 1.540 . S
C597 C23 1.861 . S
C602 C359 1.960 . S
C627 C55 1.381 . S
C632 C378 1.509 . S
C662 C260 0.534 1_655 S
C657 C189 0.469 . S
C692 C300 0.285 . S
C687 C221 0.253 . S
C722 C356 0.490 . S
C717 C253 0.510 . S
C747 C157 0.258 . S
C752 C380 0.264 . S
C777 C61 0.600 . S
C782 C281 0.540 . S
C812 C321 0.286 . S
C807 C93 0.448 1_565 S
C842 C367 0.490 . S
C837 C125 0.644 . S
C867 C29 0.382 . S
C872 C401 0.264 . S
C897 C177 1.909 1_556 S
C902 C276 2.042 . S
C927 C209 2.376 1_556 S
C932 C316 2.587 . S
C962 C340 1.693 1_554 S
C957 C241 1.657 . S
C992 C396 2.557 . S
C987 C145 2.334 1_556 S
C1017 C49 1.850 . S
C1022 C287 2.063 . S
C1052 C327 2.588 . S
C1047 C81 2.377 1_565 S
C1082 C361 1.694 . S
C1077 C113 1.640 . S
C1107 C17 2.374 . S
C1112 C407 2.556 . S
