# Generated by pormake.
# Topology the, (3,8)-cn, num edge types: 1
# Building blocks:
#     Node 0, Type 0, BuildingBlock: BELTOD_clean_linker_0, # of connection points: 3
#     Node 1, Type 0, BuildingBlock: BELTOD_clean_linker_0, # of connection points: 3
#     Node 2, Type 0, BuildingBlock: BELTOD_clean_linker_0, # of connection points: 3
#     Node 3, Type 0, BuildingBlock: BELTOD_clean_linker_0, # of connection points: 3
#     Node 4, Type 0, BuildingBlock: BELTOD_clean_linker_0, # of connection points: 3
#     Node 5, Type 0, BuildingBlock: BELTOD_clean_linker_0, # of connection points: 3
#     Node 6, Type 0, BuildingBlock: BELTOD_clean_linker_0, # of connection points: 3
#     Node 7, Type 0, BuildingBlock: BELTOD_clean_linker_0, # of connection points: 3
#     Node 8, Type 1, BuildingBlock: GIZVER_clean_sbu_0, # of connection points: 8
#     Node 9, Type 1, BuildingBlock: GIZVER_clean_sbu_0, # of connection points: 8
#     Node 10, Type 1, BuildingBlock: GIZVER_clean_sbu_0, # of connection points: 8
#     Edge 11, Type (0, 1), BuildingBlock: XUDNAN_clean_linker_2, # of connection points: 2
#     Edge 12, Type (0, 1), BuildingBlock: XUDNAN_clean_linker_2, # of connection points: 2
#     Edge 13, Type (0, 1), BuildingBlock: XUDNAN_clean_linker_2, # of connection points: 2
#     Edge 14, Type (0, 1), BuildingBlock: XUDNAN_clean_linker_2, # of connection points: 2
#     Edge 15, Type (0, 1), BuildingBlock: XUDNAN_clean_linker_2, # of connection points: 2
#     Edge 16, Type (0, 1), BuildingBlock: XUDNAN_clean_linker_2, # of connection points: 2
#     Edge 17, Type (0, 1), BuildingBlock: XUDNAN_clean_linker_2, # of connection points: 2
#     Edge 18, Type (0, 1), BuildingBlock: XUDNAN_clean_linker_2, # of connection points: 2
#     Edge 19, Type (0, 1), BuildingBlock: XUDNAN_clean_linker_2, # of connection points: 2
#     Edge 20, Type (0, 1), BuildingBlock: XUDNAN_clean_linker_2, # of connection points: 2
#     Edge 21, Type (0, 1), BuildingBlock: XUDNAN_clean_linker_2, # of connection points: 2
#     Edge 22, Type (0, 1), BuildingBlock: XUDNAN_clean_linker_2, # of connection points: 2
#     Edge 23, Type (0, 1), BuildingBlock: XUDNAN_clean_linker_2, # of connection points: 2
#     Edge 24, Type (0, 1), BuildingBlock: XUDNAN_clean_linker_2, # of connection points: 2
#     Edge 25, Type (0, 1), BuildingBlock: XUDNAN_clean_linker_2, # of connection points: 2
#     Edge 26, Type (0, 1), BuildingBlock: XUDNAN_clean_linker_2, # of connection points: 2
#     Edge 27, Type (0, 1), BuildingBlock: XUDNAN_clean_linker_2, # of connection points: 2
#     Edge 28, Type (0, 1), BuildingBlock: XUDNAN_clean_linker_2, # of connection points: 2
#     Edge 29, Type (0, 1), BuildingBlock: XUDNAN_clean_linker_2, # of connection points: 2
#     Edge 30, Type (0, 1), BuildingBlock: XUDNAN_clean_linker_2, # of connection points: 2
#     Edge 31, Type (0, 1), BuildingBlock: XUDNAN_clean_linker_2, # of connection points: 2
#     Edge 32, Type (0, 1), BuildingBlock: XUDNAN_clean_linker_2, # of connection points: 2
#     Edge 33, Type (0, 1), BuildingBlock: XUDNAN_clean_linker_2, # of connection points: 2
#     Edge 34, Type (0, 1), BuildingBlock: XUDNAN_clean_linker_2, # of connection points: 2
# Relax obj value: 0.046
# Max RMSD: 0.141
# Mean RMSD: 0.071
data_MOF--net-the--node1-GIZVER_clean_sbu_0--node2-BELTOD_clean_linker_0--edge1-XUDNAN_clean_linker_2
_symmetry_space_group_name_H-M    P1
_symmetry_Int_Tables_number       1
_symmetry_cell_setting            triclinic
loop_
_symmetry_equiv_pos_as_xyz
'x, y, z'
_cell_length_a     46.83693
_cell_length_b     44.489996
_cell_length_c     40.55396
_cell_angle_alpha  86.498852
_cell_angle_beta   94.287902
_cell_angle_gamma 102.01945
loop_
_atom_site_label
_atom_site_type_symbol
_atom_site_fract_x
_atom_site_fract_y
_atom_site_fract_z
_atom_type_partial_charge
P0 P 0.35872 0.37286 0.4335 0.0
H1 H 0.32219 0.41619 0.40783 0.0
H2 H 0.27149 0.41831 0.41447 0.0
H3 H 0.26386 0.33861 0.48248 0.0
H4 H 0.31398 0.33543 0.47373 0.0
H5 H 0.34553 0.32245 0.38785 0.0
H6 H 0.35015 0.26876 0.39393 0.0
H7 H 0.38297 0.28215 0.49561 0.0
H8 H 0.37912 0.33612 0.48895 0.0
H9 H 0.41375 0.40968 0.41193 0.0
H10 H 0.32857 0.37121 0.36716 0.0
O11 O 0.37989 0.39284 0.46295 0.0
H12 H 0.42875 0.43387 0.35866 0.0
H13 H 0.34309 0.39617 0.31383 0.0
C14 C 0.32148 0.37488 0.43914 0.0
C15 C 0.30942 0.39877 0.4236 0.0
C16 C 0.28047 0.40025 0.4279 0.0
C17 C 0.26333 0.37844 0.4488 0.0
C18 C 0.27602 0.35526 0.46542 0.0
C19 C 0.30481 0.35349 0.46058 0.0
C20 C 0.36274 0.33347 0.43767 0.0
C21 C 0.35404 0.31396 0.41132 0.0
C22 C 0.35634 0.28311 0.41498 0.0
C23 C 0.36704 0.27116 0.44524 0.0
C24 C 0.37516 0.29074 0.4718 0.0
C25 C 0.37297 0.32161 0.46803 0.0
C26 C 0.36984 0.38935 0.39366 0.0
C27 C 0.39819 0.40663 0.39066 0.0
C28 C 0.40666 0.4206 0.36019 0.0
C29 C 0.38691 0.41747 0.3321 0.0
C30 C 0.35882 0.39908 0.33495 0.0
C31 C 0.35043 0.38498 0.36547 0.0
P32 P 0.71883 0.29833 0.2734 0.0
H33 H 0.74448 0.28098 0.33828 0.0
H34 H 0.78653 0.30608 0.37311 0.0
H35 H 0.79815 0.38546 0.30513 0.0
H36 H 0.75679 0.35981 0.2695 0.0
H37 H 0.72046 0.23297 0.27873 0.0
H38 H 0.69136 0.18873 0.30748 0.0
H39 H 0.63951 0.24776 0.34416 0.0
H40 H 0.66859 0.2921 0.31449 0.0
H41 H 0.68038 0.28774 0.21403 0.0
H42 H 0.70542 0.35941 0.2838 0.0
O43 O 0.73667 0.28508 0.24519 0.0
H44 H 0.65234 0.31998 0.17961 0.0
H45 H 0.67834 0.39224 0.24869 0.0
C46 C 0.74663 0.31895 0.3018 0.0
C47 C 0.7556 0.30402 0.33107 0.0
C48 C 0.7798 0.31826 0.3509 0.0
C49 C 0.79537 0.34779 0.34193 0.0
C50 C 0.78619 0.36289 0.31287 0.0
C51 C 0.7624 0.34833 0.29265 0.0
C52 C 0.69642 0.26576 0.2941 0.0
C53 C 0.70268 0.23643 0.29269 0.0
C54 C 0.68614 0.21112 0.30943 0.0
C55 C 0.66309 0.21463 0.32825 0.0
C56 C 0.65685 0.24415 0.32957 0.0
C57 C 0.6735 0.26954 0.31275 0.0
C58 C 0.69578 0.32153 0.25091 0.0
C59 C 0.67981 0.31041 0.22197 0.0
C60 C 0.66373 0.32878 0.20237 0.0
C61 C 0.66355 0.35876 0.21125 0.0
C62 C 0.67855 0.3694 0.24101 0.0
C63 C 0.69416 0.3507 0.26099 0.0
P64 P 0.73791 0.7498 0.2966 0.0
H65 H 0.76016 0.7944 0.34626 0.0
H66 H 0.73837 0.82947 0.37532 0.0
H67 H 0.65471 0.79483 0.32431 0.0
H68 H 0.67655 0.75922 0.29593 0.0
H69 H 0.77177 0.70538 0.28107 0.0
H70 H 0.80461 0.67788 0.31469 0.0
H71 H 0.78024 0.71298 0.40306 0.0
H72 H 0.74661 0.73945 0.3696 0.0
H73 H 0.74507 0.7444 0.22653 0.0
H74 H 0.68157 0.70482 0.29691 0.0
O75 O 0.76397 0.77477 0.27766 0.0
H76 H 0.71615 0.71432 0.18341 0.0
H77 H 0.65103 0.67588 0.25302 0.0
C78 C 0.71993 0.77336 0.31963 0.0
C79 C 0.73697 0.79387 0.3418 0.0
C80 C 0.72452 0.81424 0.35813 0.0
C81 C 0.69472 0.8151 0.3522 0.0
C82 C 0.6776 0.79445 0.32997 0.0
C83 C 0.69012 0.77392 0.31369 0.0
C84 C 0.75686 0.72479 0.32263 0.0
C85 C 0.7729 0.70656 0.30775 0.0
C86 C 0.79172 0.69089 0.32697 0.0
C87 C 0.79521 0.6936 0.36145 0.0
C88 C 0.77825 0.71085 0.37648 0.0
C89 C 0.75902 0.72608 0.35726 0.0
C90 C 0.71505 0.72776 0.26481 0.0
C91 C 0.72449 0.7297 0.23261 0.0
C92 C 0.70768 0.71248 0.20773 0.0
C93 C 0.6807 0.69298 0.2142 0.0
C94 C 0.67163 0.6905 0.24686 0.0
C95 C 0.68887 0.70739 0.27199 0.0
P96 P 0.29177 0.70784 0.29389 0.0
H97 H 0.34304 0.75578 0.28037 0.0
H98 H 0.37178 0.79761 0.31287 0.0
H99 H 0.3186 0.76629 0.39544 0.0
H100 H 0.29087 0.72344 0.36365 0.0
H101 H 0.26844 0.65011 0.26252 0.0
H102 H 0.29014 0.61702 0.23071 0.0
H103 H 0.37561 0.67389 0.25184 0.0
H104 H 0.35392 0.70552 0.28557 0.0
H105 H 0.23371 0.72115 0.29777 0.0
H106 H 0.28027 0.65159 0.33725 0.0
O107 O 0.27977 0.72776 0.26147 0.0
H108 H 0.19011 0.69433 0.32469 0.0
H109 H 0.23665 0.62467 0.36488 0.0
C110 C 0.31524 0.73585 0.31973 0.0
C111 C 0.33818 0.75717 0.30586 0.0
C112 C 0.35444 0.78124 0.3243 0.0
C113 C 0.34737 0.78506 0.3566 0.0
C114 C 0.32446 0.76374 0.37057 0.0
C115 C 0.3087 0.73917 0.3524 0.0
C116 C 0.30942 0.68036 0.27668 0.0
C117 C 0.29197 0.65497 0.26117 0.0
C118 C 0.30443 0.63628 0.24245 0.0
C119 C 0.33466 0.643 0.238 0.0
C120 C 0.3523 0.66776 0.25475 0.0
C121 C 0.3398 0.68619 0.27394 0.0
C122 C 0.26005 0.68805 0.31498 0.0
C123 C 0.23454 0.70005 0.31226 0.0
C124 C 0.20964 0.68477 0.32791 0.0
C125 C 0.20977 0.65723 0.34688 0.0
C126 C 0.23562 0.64553 0.35002 0.0
C127 C 0.26061 0.66096 0.33438 0.0
P128 P 0.33741 0.67304 0.68944 0.0
H129 H 0.29713 0.69875 0.64248 0.0
H130 H 0.2454 0.68103 0.62555 0.0
H131 H 0.23954 0.60722 0.70033 0.0
H132 H 0.29079 0.62572 0.71833 0.0
H133 H 0.39163 0.70384 0.66082 0.0
H134 H 0.41192 0.75738 0.64521 0.0
H135 H 0.33795 0.78466 0.68349 0.0
H136 H 0.31762 0.73062 0.69899 0.0
H137 H 0.33861 0.6124 0.7203 0.0
H138 H 0.36653 0.70668 0.74776 0.0
O139 O 0.34997 0.65289 0.66243 0.0
H140 H 0.35904 0.59496 0.77359 0.0
H141 H 0.38814 0.68923 0.80064 0.0
C142 C 0.29796 0.66413 0.68231 0.0
C143 C 0.28453 0.67951 0.65622 0.0
C144 C 0.25496 0.66927 0.64636 0.0
C145 C 0.23852 0.6428 0.66168 0.0
C146 C 0.25176 0.62773 0.68817 0.0
C147 C 0.28114 0.63841 0.6985 0.0
C148 C 0.35273 0.71315 0.68021 0.0
C149 C 0.37975 0.7213 0.66591 0.0
C150 C 0.39147 0.75202 0.65725 0.0
C151 C 0.37649 0.77535 0.66292 0.0
C152 C 0.34981 0.7672 0.67833 0.0
C153 C 0.33819 0.73636 0.68722 0.0
C154 C 0.35057 0.66081 0.73012 0.0
C155 C 0.34876 0.62935 0.73795 0.0
C156 C 0.36056 0.61939 0.76834 0.0
C157 C 0.37512 0.64076 0.79122 0.0
C158 C 0.37706 0.67231 0.78338 0.0
C159 C 0.36461 0.68226 0.7532 0.0
P160 P 0.33146 0.30929 0.6907 0.0
H161 H 0.34747 0.37211 0.71053 0.0
H162 H 0.36744 0.39569 0.76218 0.0
H163 H 0.36096 0.30545 0.81061 0.0
H164 H 0.33961 0.28201 0.75882 0.0
H165 H 0.37561 0.2747 0.71738 0.0
H166 H 0.38578 0.22557 0.70372 0.0
H167 H 0.30805 0.21076 0.63714 0.0
H168 H 0.29693 0.25832 0.65311 0.0
H169 H 0.27932 0.31129 0.7267 0.0
H170 H 0.30348 0.31835 0.62559 0.0
O171 O 0.35404 0.33007 0.66402 0.0
H172 H 0.23124 0.32209 0.7079 0.0
H173 H 0.25555 0.32812 0.60659 0.0
C174 C 0.34295 0.32532 0.73054 0.0
C175 C 0.35016 0.35737 0.73232 0.0
C176 C 0.36179 0.37083 0.76188 0.0
C177 C 0.36659 0.3525 0.79046 0.0
C178 C 0.35773 0.32029 0.7891 0.0
C179 C 0.34578 0.30681 0.75938 0.0
C180 C 0.33506 0.27 0.68708 0.0
C181 C 0.36007 0.26019 0.701 0.0
C182 C 0.36619 0.23224 0.69254 0.0
C183 C 0.34798 0.21399 0.66892 0.0
C184 C 0.32242 0.22356 0.65587 0.0
C185 C 0.31603 0.25114 0.66493 0.0
C186 C 0.29516 0.31473 0.67757 0.0
C187 C 0.27421 0.31496 0.70047 0.0
C188 C 0.24666 0.32088 0.68966 0.0
C189 C 0.23965 0.32642 0.65575 0.0
C190 C 0.2604 0.32474 0.63293 0.0
C191 C 0.28784 0.31906 0.64375 0.0
P192 P 0.72233 0.29894 0.72933 0.0
H193 H 0.73793 0.25971 0.68193 0.0
H194 H 0.70963 0.21832 0.64914 0.0
H195 H 0.62973 0.23623 0.68288 0.0
H196 H 0.65836 0.27821 0.71547 0.0
H197 H 0.78468 0.30423 0.7493 0.0
H198 H 0.82945 0.32891 0.72282 0.0
H199 H 0.77781 0.36149 0.64109 0.0
H200 H 0.73283 0.33562 0.66705 0.0
H201 H 0.68098 0.29257 0.78094 0.0
H202 H 0.72216 0.36503 0.71405 0.0
O203 O 0.73197 0.27727 0.7616 0.0
H204 H 0.65815 0.32924 0.80663 0.0
H205 H 0.69994 0.4017 0.73981 0.0
C206 C 0.70032 0.27251 0.70077 0.0
C207 C 0.71429 0.2553 0.68174 0.0
C208 C 0.69806 0.23133 0.66324 0.0
C209 C 0.66739 0.22372 0.66358 0.0
C210 C 0.6533 0.24164 0.68186 0.0
C211 C 0.66966 0.26567 0.70053 0.0
C212 C 0.75535 0.31828 0.71027 0.0
C213 C 0.78286 0.31659 0.72566 0.0
C214 C 0.80847 0.33062 0.71051 0.0
C215 C 0.80702 0.34711 0.68001 0.0
C216 C 0.77947 0.34906 0.66474 0.0
C217 C 0.75384 0.33438 0.67955 0.0
C218 C 0.70341 0.3259 0.74556 0.0
C219 C 0.68505 0.31632 0.77166 0.0
C220 C 0.67222 0.3374 0.78656 0.0
C221 C 0.67735 0.36855 0.77552 0.0
C222 C 0.69526 0.37788 0.74882 0.0
C223 C 0.7081 0.35679 0.734 0.0
P224 P 0.7515 0.72452 0.67202 0.0
H225 H 0.80971 0.71055 0.67758 0.0
H226 H 0.83681 0.68801 0.64007 0.0
H227 H 0.76502 0.68327 0.5657 0.0
H228 H 0.73759 0.70467 0.60402 0.0
H229 H 0.76561 0.78764 0.64596 0.0
H230 H 0.73763 0.81966 0.61146 0.0
H231 H 0.66194 0.74494 0.61147 0.0
H232 H 0.69051 0.71276 0.6448 0.0
H233 H 0.75344 0.65911 0.68462 0.0
H234 H 0.70266 0.72274 0.71309 0.0
O235 O 0.77472 0.74634 0.69842 0.0
H236 H 0.72685 0.61902 0.72121 0.0
H237 H 0.67592 0.68263 0.7497 0.0
C238 C 0.77193 0.70977 0.64335 0.0
C239 C 0.79997 0.70497 0.65307 0.0
C240 C 0.81551 0.69229 0.63144 0.0
C241 C 0.80324 0.68422 0.59963 0.0
C242 C 0.77506 0.68916 0.59001 0.0
C243 C 0.75944 0.7016 0.61183 0.0
C244 C 0.7298 0.74828 0.64881 0.0
C245 C 0.7429 0.77832 0.63876 0.0
C246 C 0.72689 0.79655 0.61902 0.0
C247 C 0.69747 0.78494 0.6089 0.0
C248 C 0.68461 0.75452 0.61859 0.0
C249 C 0.70075 0.73625 0.63814 0.0
C250 C 0.72966 0.69381 0.69568 0.0
C251 C 0.73623 0.66436 0.69824 0.0
C252 C 0.72109 0.64144 0.71927 0.0
C253 C 0.69918 0.64763 0.73813 0.0
C254 C 0.6923 0.677 0.735 0.0
C255 C 0.70763 0.69997 0.71419 0.0
Co256 Co 0.06393 0.46119 0.53536 0.0
Co257 Co 0.03977 0.45545 0.47487 0.0
Co258 Co 0.00894 0.49947 0.51112 0.0
O259 O 0.02563 0.46155 0.51549 0.0
H260 H 0.01143 0.44359 0.52218 0.0
O261 O 0.99227 0.53746 0.50631 0.0
Co262 Co 0.95548 0.53882 0.48249 0.0
Co263 Co 0.97527 0.54399 0.54462 0.0
H264 H 0.00699 0.55544 0.50095 0.0
O265 O 0.04773 0.41763 0.46479 0.0
O266 O 0.07758 0.45607 0.49155 0.0
O267 O 0.0446 0.48922 0.44214 0.0
O268 O 0.03758 0.52196 0.47849 0.0
O269 O 0.98177 0.47972 0.4744 0.0
O270 O 0.92275 0.54397 0.45982 0.0
O271 O 0.96263 0.58002 0.47342 0.0
O272 O 0.94293 0.49582 0.4882 0.0
O273 O 0.98009 0.47694 0.544 0.0
O274 O 0.96904 0.51068 0.5769 0.0
O275 O 0.93867 0.54431 0.52428 0.0
O276 O 0.96693 0.5819 0.55349 0.0
C277 C 0.08533 0.42833 0.55679 0.0
C278 C 0.0644 0.52132 0.54728 0.0
C279 C 0.04738 0.51644 0.45141 0.0
C280 C 0.0735 0.43012 0.47718 0.0
C281 C 0.93619 0.57267 0.45948 0.0
C282 C 0.95412 0.47741 0.47307 0.0
C283 C 0.96825 0.48324 0.56952 0.0
C284 C 0.94215 0.57056 0.53796 0.0
O285 O 0.09843 0.45709 0.55422 0.0
O286 O 0.0582 0.42001 0.54523 0.0
O287 O 0.03675 0.51907 0.54764 0.0
O288 O 0.07466 0.50424 0.52924 0.0
Co289 Co 0.54534 0.95428 0.47871 0.0
Co290 Co 0.55263 0.96822 0.54067 0.0
Co291 Co 0.50836 0.00731 0.50371 0.0
O292 O 0.54421 0.98998 0.50215 0.0
H293 H 0.56107 0.00609 0.49808 0.0
O294 O 0.47282 0.0253 0.5051 0.0
Co295 Co 0.47386 0.06224 0.52775 0.0
Co296 Co 0.46536 0.0476 0.46636 0.0
H297 H 0.45573 0.00967 0.50973 0.0
O298 O 0.58986 0.96138 0.55282 0.0
O299 O 0.55465 0.93246 0.52081 0.0
O300 O 0.52242 0.95759 0.57084 0.0
O301 O 0.48894 0.97563 0.53789 0.0
O302 O 0.52978 0.03444 0.53923 0.0
O303 O 0.47168 0.09479 0.54987 0.0
O304 O 0.43607 0.05353 0.53871 0.0
O305 O 0.51396 0.0761 0.52049 0.0
O306 O 0.52792 0.03854 0.46953 0.0
O307 O 0.49616 0.05912 0.43657 0.0
O308 O 0.46269 0.08326 0.48567 0.0
O309 O 0.42798 0.0531 0.45394 0.0
C310 C 0.57682 0.93839 0.45606 0.0
C311 C 0.48514 0.95102 0.46873 0.0
C312 C 0.49609 0.95954 0.56329 0.0
C313 C 0.58015 0.9365 0.53682 0.0
C314 C 0.44491 0.07991 0.55263 0.0
C315 C 0.53248 0.06364 0.53783 0.0
C316 C 0.52198 0.05553 0.44441 0.0
C317 C 0.43704 0.0782 0.46974 0.0
O318 O 0.55008 0.92268 0.4563 0.0
O319 O 0.5837 0.96467 0.47042 0.0
O320 O 0.48671 0.98006 0.46834 0.0
O321 O 0.50515 0.93887 0.4834 0.0
Co322 Co 0.48508 0.53369 0.07652 0.0
Co323 Co 0.47804 0.47464 0.06762 0.0
Co324 Co 0.51959 0.51401 0.01198 0.0
O325 O 0.48481 0.50965 0.03894 0.0
H326 H 0.46733 0.50962 0.02469 0.0
O327 O 0.55429 0.51768 0.98504 0.0
Co328 Co 0.551 0.49943 0.94275 0.0
Co329 Co 0.5611 0.55585 0.96227 0.0
H330 H 0.57164 0.51486 0.9983 0.0
O331 O 0.4428 0.45871 0.08881 0.0
O332 O 0.47962 0.49625 0.10572 0.0
O333 O 0.50943 0.45284 0.07295 0.0
O334 O 0.54065 0.48749 0.0439 0.0
O335 O 0.49825 0.47746 0.98698 0.0
O336 O 0.55078 0.48273 0.90413 0.0
O337 O 0.58872 0.49454 0.94189 0.0
O338 O 0.51091 0.50032 0.93878 0.0
O339 O 0.49845 0.54067 0.98057 0.0
O340 O 0.53054 0.57922 0.95845 0.0
O341 O 0.56162 0.54108 0.92084 0.0
O342 O 0.59818 0.57242 0.94922 0.0
C343 C 0.45373 0.55022 0.09858 0.0
C344 C 0.54453 0.55338 0.06673 0.0
C345 C 0.53505 0.46396 0.06408 0.0
C346 C 0.45514 0.47757 0.1113 0.0
C347 C 0.57808 0.48355 0.91332 0.0
C348 C 0.49435 0.4794 0.95539 0.0
C349 C 0.50439 0.5662 0.96367 0.0
C350 C 0.5879 0.55807 0.92258 0.0
O351 O 0.4809 0.55621 0.11021 0.0
O352 O 0.44646 0.53329 0.07291 0.0
O353 O 0.54125 0.55139 0.03541 0.0
O354 O 0.52585 0.5375 0.08525 0.0
H355 H 0.23965 0.43001 0.45064 0.0
H356 H 0.21672 0.33008 0.45665 0.0
H357 H 0.16564 0.33244 0.46464 0.0
H358 H 0.19461 0.44764 0.50865 0.0
H359 H 0.1837 0.47872 0.48404 0.0
H360 H 0.21843 0.46897 0.47881 0.0
H361 H 0.20437 0.46329 0.41629 0.0
H362 H 0.16954 0.47279 0.4218 0.0
H363 H 0.171 0.43752 0.40305 0.0
H364 H 0.11699 0.3455 0.47184 0.0
H365 H 0.07422 0.36887 0.47836 0.0
H366 H 0.12912 0.45982 0.46715 0.0
C367 C 0.22392 0.40855 0.4532 0.0
C368 C 0.23241 0.37984 0.45322 0.0
C369 C 0.21101 0.35239 0.45718 0.0
C370 C 0.18183 0.35346 0.46136 0.0
C371 C 0.17428 0.38211 0.46105 0.0
C372 C 0.19466 0.40918 0.45692 0.0
C373 C 0.18072 0.43698 0.45689 0.0
C374 C 0.19521 0.45929 0.48372 0.0
C375 C 0.18145 0.45361 0.42246 0.0
C376 C 0.14982 0.42131 0.46419 0.0
C377 C 0.14632 0.38964 0.46554 0.0
C378 C 0.1194 0.37025 0.47077 0.0
C379 C 0.0953 0.38364 0.47441 0.0
C380 C 0.09863 0.41598 0.47346 0.0
C381 C 0.12621 0.43498 0.46845 0.0
H382 H 0.60356 0.19957 0.33557 0.0
H383 H 0.68438 0.16853 0.36333 0.0
H384 H 0.65673 0.1231 0.39321 0.0
H385 H 0.57051 0.17691 0.41293 0.0
H386 H 0.53411 0.16514 0.39403 0.0
H387 H 0.56022 0.1948 0.374 0.0
H388 H 0.55248 0.1636 0.321 0.0
H389 H 0.52652 0.13372 0.341 0.0
H390 H 0.5578 0.12451 0.32363 0.0
H391 H 0.62064 0.08173 0.42144 0.0
H392 H 0.57871 0.04799 0.44718 0.0
H393 H 0.52115 0.10566 0.40124 0.0
C394 C 0.61548 0.18331 0.34807 0.0
C395 C 0.64619 0.18759 0.34682 0.0
C396 C 0.66084 0.16556 0.36336 0.0
C397 C 0.64534 0.13971 0.38055 0.0
C398 C 0.61512 0.13608 0.38104 0.0
C399 C 0.60031 0.15729 0.36535 0.0
C400 C 0.56781 0.14818 0.37026 0.0
C401 C 0.55757 0.17272 0.38892 0.0
C402 C 0.55011 0.14214 0.33699 0.0
C403 C 0.56671 0.11866 0.39135 0.0
C404 C 0.59424 0.11208 0.39721 0.0
C405 C 0.59894 0.08655 0.41688 0.0
C406 C 0.57495 0.0675 0.43138 0.0
C407 C 0.54653 0.07397 0.42612 0.0
C408 C 0.54246 0.09975 0.40542 0.0
H409 H 0.80468 0.63479 0.36093 0.0
H410 H 0.83713 0.72224 0.40611 0.0
H411 H 0.87742 0.70133 0.43578 0.0
H412 H 0.82145 0.58729 0.43399 0.0
H413 H 0.83098 0.55875 0.40957 0.0
H414 H 0.80442 0.58062 0.39299 0.0
H415 H 0.83519 0.59786 0.34198 0.0
H416 H 0.86199 0.57638 0.35871 0.0
H417 H 0.87299 0.6169 0.34819 0.0
H418 H 0.9162 0.67151 0.45766 0.0
H419 H 0.94707 0.63355 0.47442 0.0
H420 H 0.88782 0.56529 0.41653 0.0
C421 C 0.8202 0.64944 0.37722 0.0
C422 C 0.81787 0.68013 0.38121 0.0
C423 C 0.83842 0.69857 0.40294 0.0
C424 C 0.86145 0.68696 0.41972 0.0
C425 C 0.86342 0.65673 0.41481 0.0
C426 C 0.84304 0.63808 0.39452 0.0
C427 C 0.84978 0.6063 0.39384 0.0
C428 C 0.82519 0.5818 0.40847 0.0
C429 C 0.85532 0.59895 0.35858 0.0
C430 C 0.87752 0.6102 0.41621 0.0
C431 C 0.88514 0.63945 0.42804 0.0
C432 C 0.91033 0.64849 0.44866 0.0
C433 C 0.92788 0.62689 0.45779 0.0
C434 C 0.91994 0.59655 0.44663 0.0
C435 C 0.8945 0.58833 0.42543 0.0
H436 H 0.4059 0.80095 0.37424 0.0
H437 H 0.32381 0.83008 0.37995 0.0
H438 H 0.34997 0.87685 0.40809 0.0
H439 H 0.43603 0.82591 0.45535 0.0
H440 H 0.4729 0.83745 0.44251 0.0
H441 H 0.44762 0.80694 0.42222 0.0
H442 H 0.45688 0.83631 0.36557 0.0
H443 H 0.48204 0.86697 0.38576 0.0
H444 H 0.45136 0.87526 0.3599 0.0
H445 H 0.3861 0.92199 0.43336 0.0
H446 H 0.42817 0.95842 0.4591 0.0
H447 H 0.48557 0.89733 0.44022 0.0
C448 C 0.39352 0.81722 0.3815 0.0
C449 C 0.36293 0.81214 0.37491 0.0
C450 C 0.34729 0.83365 0.38496 0.0
C451 C 0.36197 0.86029 0.40078 0.0
C452 C 0.39224 0.86478 0.40679 0.0
C453 C 0.40776 0.84356 0.39792 0.0
C454 C 0.43995 0.85312 0.40832 0.0
C455 C 0.44968 0.82945 0.43361 0.0
C456 C 0.45865 0.85822 0.37808 0.0
C457 C 0.44021 0.88315 0.42412 0.0
C458 C 0.4126 0.88977 0.42268 0.0
C459 C 0.40777 0.91688 0.43487 0.0
C460 C 0.43175 0.9375 0.44929 0.0
C461 C 0.46001 0.93057 0.45185 0.0
C462 C 0.46414 0.90308 0.43895 0.0
H463 H 0.21898 0.58504 0.63994 0.0
H464 H 0.19122 0.67057 0.65143 0.0
H465 H 0.14195 0.64808 0.62633 0.0
H466 H 0.18313 0.5712 0.56057 0.0
H467 H 0.17404 0.53001 0.56754 0.0
H468 H 0.20579 0.5521 0.589 0.0
H469 H 0.18618 0.52912 0.64522 0.0
H470 H 0.15435 0.50698 0.62383 0.0
H471 H 0.15013 0.53248 0.65518 0.0
H472 H 0.09523 0.61518 0.59921 0.0
H473 H 0.05777 0.57722 0.56843 0.0
H474 H 0.11859 0.51559 0.57193 0.0
C475 C 0.20234 0.59882 0.63768 0.0
C476 C 0.2086 0.62931 0.64808 0.0
C477 C 0.18664 0.64704 0.64383 0.0
C478 C 0.15864 0.63442 0.62971 0.0
C479 C 0.15317 0.60421 0.61954 0.0
C480 C 0.1746 0.58681 0.62309 0.0
C481 C 0.16414 0.55582 0.60811 0.0
C482 C 0.18288 0.55208 0.57961 0.0
C483 C 0.16366 0.52955 0.63468 0.0
C484 C 0.13351 0.55842 0.59546 0.0
C485 C 0.12725 0.58622 0.60264 0.0
C486 C 0.09999 0.59339 0.59341 0.0
C487 C 0.07882 0.57171 0.57606 0.0
C488 C 0.08533 0.54357 0.56763 0.0
C489 C 0.11298 0.53698 0.57776 0.0
H490 H 0.40382 0.20601 0.66054 0.0
H491 H 0.31255 0.1605 0.64595 0.0
H492 H 0.32732 0.12008 0.61621 0.0
H493 H 0.42616 0.19632 0.58854 0.0
H494 H 0.46096 0.18569 0.59939 0.0
H495 H 0.44665 0.20908 0.62603 0.0
H496 H 0.4466 0.17252 0.67662 0.0
H497 H 0.46473 0.14956 0.6534 0.0
H498 H 0.43165 0.13203 0.67305 0.0
H499 H 0.35212 0.0866 0.58391 0.0
H500 H 0.38505 0.06217 0.55426 0.0
H501 H 0.45955 0.12928 0.59187 0.0
C502 C 0.38682 0.18709 0.65228 0.0
C503 C 0.35689 0.1869 0.65554 0.0
C504 C 0.33559 0.16181 0.64326 0.0
C505 C 0.34378 0.13847 0.62657 0.0
C506 C 0.3734 0.14002 0.62296 0.0
C507 C 0.39461 0.16331 0.63621 0.0
C508 C 0.42491 0.1604 0.62807 0.0
C509 C 0.44062 0.18954 0.60933 0.0
C510 C 0.44304 0.15319 0.65966 0.0
C511 C 0.4173 0.13293 0.60642 0.0
C512 C 0.38756 0.121 0.60435 0.0
C513 C 0.37548 0.09556 0.58567 0.0
C514 C 0.39433 0.08182 0.56891 0.0
C515 C 0.42486 0.09373 0.57075 0.0
C516 C 0.43631 0.11962 0.58983 0.0
H517 H 0.82372 0.40773 0.66043 0.0
H518 H 0.85159 0.32056 0.66446 0.0
H519 H 0.89694 0.34575 0.63768 0.0
H520 H 0.85117 0.4367 0.58213 0.0
H521 H 0.86278 0.47577 0.59467 0.0
H522 H 0.83262 0.45057 0.61361 0.0
H523 H 0.85902 0.46097 0.67154 0.0
H524 H 0.88933 0.48611 0.65273 0.0
H525 H 0.89553 0.45405 0.6797 0.0
H526 H 0.93803 0.38056 0.60714 0.0
H527 H 0.97273 0.42258 0.57929 0.0
H528 H 0.91934 0.4872 0.59985 0.0
C529 C 0.83938 0.39401 0.65554 0.0
C530 C 0.8342 0.36223 0.6642 0.0
C531 C 0.85528 0.34498 0.65794 0.0
C532 C 0.88101 0.35907 0.64273 0.0
C533 C 0.88552 0.39053 0.63447 0.0
C534 C 0.8654 0.40782 0.64102 0.0
C535 C 0.87566 0.44132 0.63047 0.0
C536 C 0.85429 0.45169 0.60363 0.0
C537 C 0.88016 0.46181 0.6604 0.0
C538 C 0.90453 0.44017 0.61662 0.0
C539 C 0.90978 0.41067 0.61881 0.0
C540 C 0.93434 0.40383 0.60578 0.0
C541 C 0.95392 0.42777 0.59003 0.0
C542 C 0.94906 0.45821 0.58803 0.0
C543 C 0.92411 0.46433 0.60178 0.0
H544 H 0.69846 0.84577 0.61674 0.0
H545 H 0.6566 0.76895 0.55728 0.0
H546 H 0.62472 0.80124 0.52824 0.0
H547 H 0.63675 0.87294 0.62892 0.0
H548 H 0.65373 0.9132 0.62598 0.0
H549 H 0.67537 0.88523 0.63934 0.0
H550 H 0.71037 0.90502 0.59253 0.0
H551 H 0.68889 0.93327 0.57912 0.0
H552 H 0.69566 0.9067 0.55025 0.0
H553 H 0.59374 0.83985 0.51076 0.0
H554 H 0.56702 0.88229 0.50481 0.0
H555 H 0.63115 0.93461 0.57361 0.0
C556 C 0.68319 0.83592 0.59697 0.0
C557 C 0.68003 0.80482 0.5893 0.0
C558 C 0.65917 0.79263 0.56387 0.0
C559 C 0.64116 0.81085 0.54703 0.0
C560 C 0.64455 0.84128 0.55568 0.0
C561 C 0.66526 0.8538 0.57982 0.0
C562 C 0.66329 0.88646 0.586 0.0
C563 C 0.65689 0.88961 0.62219 0.0
C564 C 0.69121 0.90921 0.57639 0.0
C565 C 0.6375 0.88997 0.56247 0.0
C566 C 0.62715 0.86379 0.54495 0.0
C567 C 0.60204 0.86074 0.52374 0.0
C568 C 0.58699 0.88498 0.52058 0.0
C569 C 0.59721 0.91197 0.53842 0.0
C570 C 0.62303 0.91453 0.55923 0.0
H571 H 0.41243 0.24868 0.47707 0.0
H572 H 0.32945 0.22014 0.42111 0.0
H573 H 0.33667 0.16655 0.42452 0.0
H574 H 0.45101 0.20181 0.44057 0.0
H575 H 0.47152 0.19298 0.47802 0.0
H576 H 0.45873 0.22852 0.47335 0.0
H577 H 0.43197 0.21488 0.52769 0.0
H578 H 0.44482 0.17928 0.53248 0.0
H579 H 0.40623 0.17877 0.53208 0.0
H580 H 0.35456 0.1167 0.43121 0.0
H581 H 0.38199 0.07481 0.43998 0.0
H582 H 0.45251 0.13626 0.49273 0.0
C583 C 0.39544 0.2311 0.46613 0.0
C584 C 0.37036 0.23863 0.44885 0.0
C585 C 0.349 0.21498 0.43419 0.0
C586 C 0.35278 0.18445 0.43623 0.0
C587 C 0.37793 0.17793 0.4532 0.0
C588 C 0.39881 0.20058 0.46801 0.0
C589 C 0.42451 0.18786 0.48342 0.0
C590 C 0.45312 0.20373 0.4679 0.0
C591 C 0.42702 0.19036 0.52115 0.0
C592 C 0.41523 0.15471 0.47421 0.0
C593 C 0.38816 0.1493 0.45709 0.0
C594 C 0.37564 0.12061 0.44488 0.0
C595 C 0.39141 0.09698 0.44996 0.0
C596 C 0.41942 0.10227 0.46701 0.0
C597 C 0.43112 0.1314 0.47974 0.0
H598 H 0.80727 0.40454 0.36862 0.0
H599 H 0.8433 0.32335 0.36029 0.0
H600 H 0.88842 0.34766 0.39238 0.0
H601 H 0.87395 0.4609 0.36228 0.0
H602 H 0.8654 0.48503 0.3927 0.0
H603 H 0.83635 0.46145 0.36855 0.0
H604 H 0.81356 0.43622 0.42241 0.0
H605 H 0.84253 0.4598 0.44667 0.0
H606 H 0.8356 0.41853 0.45298 0.0
H607 H 0.93065 0.38217 0.42354 0.0
H608 H 0.96454 0.42215 0.45541 0.0
H609 H 0.89923 0.47897 0.44624 0.0
C610 C 0.82473 0.39198 0.37355 0.0
C611 C 0.82197 0.36217 0.36194 0.0
C612 C 0.84504 0.34619 0.36914 0.0
C613 C 0.87075 0.35985 0.38719 0.0
C614 C 0.87285 0.38934 0.39826 0.0
C615 C 0.85029 0.40505 0.39207 0.0
C616 C 0.85759 0.43601 0.40769 0.0
C617 C 0.85838 0.4624 0.38122 0.0
C618 C 0.83604 0.43772 0.434 0.0
C619 C 0.88787 0.4354 0.42336 0.0
C620 C 0.89647 0.40846 0.4174 0.0
C621 C 0.92402 0.40324 0.42861 0.0
C622 C 0.94316 0.42607 0.44657 0.0
C623 C 0.93444 0.4535 0.45355 0.0
C624 C 0.90641 0.45807 0.44169 0.0
H625 H 0.64028 0.80748 0.37727 0.0
H626 H 0.72018 0.87535 0.36315 0.0
H627 H 0.69954 0.91374 0.38967 0.0
H628 H 0.59112 0.85862 0.35891 0.0
H629 H 0.56613 0.8411 0.38963 0.0
H630 H 0.58773 0.81842 0.37104 0.0
H631 H 0.60856 0.80292 0.42928 0.0
H632 H 0.58679 0.82543 0.44786 0.0
H633 H 0.62581 0.83255 0.45695 0.0
H634 H 0.66987 0.94523 0.41743 0.0
H635 H 0.63278 0.9674 0.44255 0.0
H636 H 0.57181 0.8796 0.43645 0.0
C637 C 0.65342 0.83043 0.3796 0.0
C638 C 0.68201 0.8382 0.36827 0.0
C639 C 0.69848 0.86853 0.37216 0.0
C640 C 0.68688 0.89062 0.38706 0.0
C641 C 0.6587 0.88217 0.39796 0.0
C642 C 0.64217 0.85281 0.39439 0.0
C643 C 0.61225 0.84982 0.40764 0.0
C644 C 0.58787 0.84151 0.38016 0.0
C645 C 0.60813 0.82629 0.43719 0.0
C646 C 0.61436 0.88221 0.41859 0.0
C647 C 0.64144 0.90045 0.41319 0.0
C648 C 0.64855 0.93117 0.42169 0.0
C649 C 0.62736 0.94358 0.43593 0.0
C650 C 0.5993 0.92539 0.44118 0.0
C651 C 0.59292 0.89428 0.43242 0.0
H652 H 0.1869 0.59482 0.35213 0.0
H653 H 0.17215 0.68302 0.37921 0.0
H654 H 0.12717 0.65677 0.40533 0.0
H655 H 0.11113 0.55934 0.3339 0.0
H656 H 0.11494 0.52202 0.35132 0.0
H657 H 0.14575 0.54764 0.33397 0.0
H658 H 0.17651 0.54385 0.38927 0.0
H659 H 0.14583 0.51822 0.40681 0.0
H660 H 0.16292 0.55294 0.42711 0.0
H661 H 0.0848 0.621 0.4304 0.0
H662 H 0.04869 0.57798 0.45384 0.0
H663 H 0.09036 0.51292 0.41002 0.0
C664 C 0.17431 0.60861 0.36371 0.0
C665 C 0.18304 0.64107 0.36338 0.0
C666 C 0.16573 0.65822 0.37861 0.0
C667 C 0.14016 0.6435 0.39363 0.0
C668 C 0.13207 0.61157 0.39324 0.0
C669 C 0.14864 0.59429 0.37878 0.0
C670 C 0.13532 0.56021 0.38239 0.0
C671 C 0.12624 0.5465 0.34837 0.0
C672 C 0.15641 0.54279 0.4026 0.0
C673 C 0.10881 0.56106 0.40134 0.0
C674 C 0.10733 0.59093 0.4073 0.0
C675 C 0.08558 0.59752 0.42564 0.0
C676 C 0.06512 0.57293 0.4388 0.0
C677 C 0.06642 0.54208 0.43344 0.0
C678 C 0.08833 0.53622 0.41396 0.0
H679 H 0.43352 0.80689 0.66793 0.0
H680 H 0.3464 0.81672 0.63124 0.0
H681 H 0.36692 0.86838 0.60703 0.0
H682 H 0.46225 0.8886 0.68603 0.0
H683 H 0.49787 0.88775 0.67256 0.0
H684 H 0.4758 0.8534 0.69045 0.0
H685 H 0.47983 0.82408 0.63822 0.0
H686 H 0.50189 0.85825 0.62026 0.0
H687 H 0.46892 0.83925 0.59809 0.0
H688 H 0.39799 0.91634 0.58083 0.0
H689 H 0.4365 0.95614 0.55608 0.0
H690 H 0.50289 0.91478 0.61095 0.0
C691 C 0.41868 0.82006 0.65518 0.0
C692 C 0.38832 0.80774 0.65156 0.0
C693 C 0.36967 0.82581 0.63477 0.0
C694 C 0.38116 0.85516 0.62083 0.0
C695 C 0.4113 0.8663 0.62421 0.0
C696 C 0.42975 0.84936 0.64127 0.0
C697 C 0.46146 0.86548 0.63963 0.0
C698 C 0.47514 0.87433 0.67423 0.0
C699 C 0.47904 0.84558 0.62305 0.0
C700 C 0.45811 0.89368 0.61807 0.0
C701 C 0.42904 0.89397 0.60961 0.0
C702 C 0.4208 0.91662 0.5878 0.0
C703 C 0.44285 0.93917 0.57385 0.0
C704 C 0.47281 0.93889 0.58172 0.0
C705 C 0.48028 0.91613 0.60475 0.0
H706 H 0.23177 0.37059 0.6082 0.0
H707 H 0.18416 0.3034 0.67695 0.0
H708 H 0.13809 0.31957 0.65676 0.0
H709 H 0.19426 0.42983 0.61494 0.0
H710 H 0.1946 0.44154 0.57163 0.0
H711 H 0.22307 0.42355 0.59073 0.0
H712 H 0.21164 0.38291 0.5466 0.0
H713 H 0.18145 0.39845 0.52788 0.0
H714 H 0.17557 0.35886 0.54211 0.0
H715 H 0.09687 0.3444 0.62823 0.0
H716 H 0.06625 0.37791 0.59802 0.0
H717 H 0.14224 0.4281 0.54925 0.0
C718 C 0.21165 0.35888 0.6188 0.0
C719 C 0.21161 0.33553 0.644 0.0
C720 C 0.18479 0.32144 0.65769 0.0
C721 C 0.15849 0.33033 0.64621 0.0
C722 C 0.1594 0.35334 0.62107 0.0
C723 C 0.18542 0.36743 0.60776 0.0
C724 C 0.18102 0.39178 0.58143 0.0
C725 C 0.19932 0.42354 0.59022 0.0
C726 C 0.1879 0.38242 0.54753 0.0
C727 C 0.14868 0.39049 0.58299 0.0
C728 C 0.13626 0.36766 0.60534 0.0
C729 C 0.10646 0.36231 0.61071 0.0
C730 C 0.08921 0.38131 0.5934 0.0
C731 C 0.10203 0.40564 0.57165 0.0
C732 C 0.13198 0.40982 0.56605 0.0
H733 H 0.61526 0.21751 0.62519 0.0
H734 H 0.6815 0.16712 0.66372 0.0
H735 H 0.65469 0.12112 0.63545 0.0
H736 H 0.5532 0.15409 0.63248 0.0
H737 H 0.53437 0.16479 0.59459 0.0
H738 H 0.55869 0.19387 0.61797 0.0
H739 H 0.58805 0.21176 0.56613 0.0
H740 H 0.56384 0.18269 0.54265 0.0
H741 H 0.6027 0.18423 0.54526 0.0
H742 H 0.62034 0.08008 0.60368 0.0
H743 H 0.58121 0.04742 0.5698 0.0
H744 H 0.53766 0.12448 0.55106 0.0
C745 C 0.62402 0.19674 0.62782 0.0
C746 C 0.65064 0.19606 0.64655 0.0
C747 C 0.66144 0.16843 0.64911 0.0
C748 C 0.64627 0.14208 0.63329 0.0
C749 C 0.62026 0.14358 0.61486 0.0
C750 C 0.6092 0.17019 0.61197 0.0
C751 C 0.5809 0.16565 0.59035 0.0
C752 C 0.55528 0.16984 0.61003 0.0
C753 C 0.58408 0.18737 0.55925 0.0
C754 C 0.57783 0.13239 0.58163 0.0
C755 C 0.60069 0.12004 0.59613 0.0
C756 C 0.60236 0.08953 0.59211 0.0
C757 C 0.58002 0.07114 0.57284 0.0
C758 C 0.5564 0.08333 0.55761 0.0
C759 C 0.55551 0.11446 0.56209 0.0
H760 H 0.862 0.69711 0.59065 0.0
H761 H 0.78072 0.63592 0.5601 0.0
H762 H 0.80826 0.60535 0.531 0.0
H763 H 0.90379 0.68853 0.51583 0.0
H764 H 0.93696 0.68902 0.54155 0.0
H765 H 0.91094 0.71102 0.55215 0.0
H766 H 0.90832 0.68353 0.61037 0.0
H767 H 0.93415 0.66145 0.60015 0.0
H768 H 0.89899 0.64209 0.61385 0.0
H769 H 0.84426 0.57594 0.51499 0.0
H770 H 0.88571 0.54985 0.51408 0.0
H771 H 0.94376 0.62875 0.55721 0.0
C772 C 0.84994 0.6777 0.57716 0.0
C773 C 0.81921 0.66896 0.57763 0.0
C774 C 0.80421 0.64344 0.55964 0.0
C775 C 0.81969 0.62589 0.54302 0.0
C776 C 0.8501 0.63429 0.54441 0.0
C777 C 0.86508 0.65981 0.56076 0.0
C778 C 0.89775 0.66143 0.56276 0.0
C779 C 0.91327 0.68915 0.54182 0.0
C780 C 0.91052 0.66214 0.59892 0.0
C781 C 0.89862 0.63155 0.54742 0.0
C782 C 0.87105 0.61677 0.5359 0.0
C783 C 0.86603 0.58757 0.52332 0.0
C784 C 0.88969 0.57285 0.52313 0.0
C785 C 0.91792 0.58725 0.53577 0.0
C786 C 0.92244 0.61722 0.54735 0.0
H787 H 0.37494 0.39589 0.26916 0.0
H788 H 0.41874 0.4759 0.32288 0.0
H789 H 0.43679 0.50177 0.27083 0.0
H790 H 0.42886 0.39624 0.21512 0.0
H791 H 0.40462 0.38536 0.17925 0.0
H792 H 0.39241 0.3741 0.22004 0.0
H793 H 0.34808 0.40028 0.20706 0.0
H794 H 0.36011 0.41154 0.16607 0.0
H795 H 0.35416 0.44018 0.19292 0.0
H796 H 0.45593 0.5156 0.21585 0.0
H797 H 0.47247 0.51865 0.15972 0.0
H798 H 0.41295 0.43225 0.13884 0.0
C799 C 0.38774 0.41913 0.26986 0.0
C800 C 0.39566 0.43374 0.3002 0.0
C801 C 0.41287 0.46398 0.30009 0.0
C802 C 0.42299 0.47901 0.2706 0.0
C803 C 0.41536 0.46371 0.24131 0.0
C804 C 0.39784 0.43463 0.24053 0.0
C805 C 0.39427 0.4228 0.20583 0.0
C806 C 0.40574 0.39286 0.20504 0.0
C807 C 0.36225 0.41845 0.19216 0.0
C808 C 0.41351 0.4493 0.18761 0.0
C809 C 0.42527 0.47267 0.20864 0.0
C810 C 0.44609 0.49804 0.19878 0.0
C811 C 0.45528 0.4996 0.16664 0.0
C812 C 0.44327 0.47628 0.14429 0.0
C813 C 0.42185 0.45093 0.15494 0.0
H814 H 0.43209 0.65766 0.81569 0.0
H815 H 0.34906 0.59831 0.83688 0.0
H816 H 0.37233 0.57682 0.88716 0.0
H817 H 0.47461 0.60228 0.83751 0.0
H818 H 0.50566 0.62876 0.85515 0.0
H819 H 0.48181 0.64218 0.82334 0.0
H820 H 0.47321 0.68339 0.86186 0.0
H821 H 0.49705 0.67003 0.89385 0.0
H822 H 0.4602 0.67171 0.90234 0.0
H823 H 0.40519 0.55918 0.93269 0.0
H824 H 0.44551 0.54449 0.96833 0.0
H825 H 0.50783 0.61433 0.91688 0.0
C826 C 0.41874 0.64068 0.83142 0.0
C827 C 0.38871 0.62986 0.82274 0.0
C828 C 0.37206 0.60695 0.84328 0.0
C829 C 0.38506 0.59474 0.87191 0.0
C830 C 0.41482 0.60555 0.87959 0.0
C831 C 0.4315 0.62793 0.85989 0.0
C832 C 0.46351 0.63353 0.87207 0.0
C833 C 0.48251 0.62624 0.84544 0.0
C834 C 0.47411 0.66664 0.8832 0.0
C835 C 0.46229 0.61046 0.90133 0.0
C836 C 0.43393 0.59487 0.90549 0.0
C837 C 0.42745 0.57145 0.92986 0.0
C838 C 0.45057 0.56328 0.95004 0.0
C839 C 0.47996 0.57829 0.94565 0.0
C840 C 0.48566 0.60263 0.9213 0.0
H841 H 0.41296 0.40146 0.79359 0.0
H842 H 0.35564 0.33667 0.85605 0.0
H843 H 0.38183 0.36167 0.90575 0.0
H844 H 0.47827 0.40598 0.84578 0.0
H845 H 0.49112 0.44648 0.83656 0.0
H846 H 0.46799 0.42309 0.8064 0.0
H847 H 0.43128 0.45963 0.8038 0.0
H848 H 0.45434 0.48316 0.83392 0.0
H849 H 0.41656 0.46755 0.84142 0.0
H850 H 0.41521 0.39488 0.94904 0.0
H851 H 0.45209 0.43246 0.98079 0.0
H852 H 0.48535 0.47533 0.88847 0.0
C853 C 0.40555 0.39265 0.81764 0.0
C854 C 0.38203 0.36716 0.82078 0.0
C855 C 0.3737 0.35601 0.85292 0.0
C856 C 0.38837 0.37018 0.8813 0.0
C857 C 0.41132 0.39546 0.87716 0.0
C858 C 0.41978 0.40651 0.84603 0.0
C859 C 0.445 0.4339 0.84789 0.0
C860 C 0.4722 0.42693 0.8333 0.0
C861 C 0.43626 0.46276 0.83075 0.0
C862 C 0.44948 0.43669 0.88495 0.0
C863 C 0.43 0.41437 0.9016 0.0
C864 C 0.43051 0.41247 0.93616 0.0
C865 C 0.45151 0.4339 0.954 0.0
C866 C 0.47161 0.45693 0.93721 0.0
C867 C 0.4703 0.45817 0.90222 0.0
H868 H 0.67067 0.37317 0.84213 0.0
H869 H 0.65332 0.41505 0.74516 0.0
H870 H 0.6307 0.45227 0.77104 0.0
H871 H 0.60375 0.37821 0.87478 0.0
H872 H 0.61939 0.38673 0.91598 0.0
H873 H 0.63627 0.36484 0.89014 0.0
H874 H 0.68528 0.40417 0.8977 0.0
H875 H 0.66846 0.4263 0.92342 0.0
H876 H 0.68634 0.44435 0.88732 0.0
H877 H 0.60648 0.48216 0.80637 0.0
H878 H 0.58145 0.50222 0.84902 0.0
H879 H 0.61504 0.44256 0.92389 0.0
C880 C 0.66215 0.39019 0.82632 0.0
C881 C 0.66398 0.3912 0.79151 0.0
C882 C 0.65269 0.41403 0.77185 0.0
C883 C 0.6397 0.43527 0.78633 0.0
C884 C 0.63827 0.43361 0.82061 0.0
C885 C 0.64919 0.4117 0.84041 0.0
C886 C 0.64369 0.41418 0.87651 0.0
C887 C 0.62464 0.38422 0.89014 0.0
C888 C 0.67268 0.42276 0.89747 0.0
C889 C 0.62729 0.44038 0.87378 0.0
C890 C 0.62463 0.45134 0.84125 0.0
C891 C 0.60876 0.47405 0.83195 0.0
C892 C 0.59463 0.48531 0.85631 0.0
C893 C 0.59673 0.47422 0.88968 0.0
C894 C 0.61376 0.45193 0.89867 0.0
H895 H 0.64102 0.63129 0.75053 0.0
H896 H 0.72638 0.61311 0.78309 0.0
H897 H 0.70482 0.58051 0.82997 0.0
H898 H 0.61896 0.64108 0.82609 0.0
H899 H 0.58114 0.62236 0.8192 0.0
H900 H 0.60183 0.6392 0.78473 0.0
H901 H 0.58947 0.58689 0.75647 0.0
H902 H 0.56849 0.56995 0.7909 0.0
H903 H 0.59761 0.55302 0.77869 0.0
H904 H 0.67675 0.55928 0.87852 0.0
H905 H 0.64296 0.54795 0.92378 0.0
H906 H 0.57481 0.57677 0.85913 0.0
C907 C 0.65496 0.61976 0.76709 0.0
C908 C 0.68532 0.62456 0.76313 0.0
C909 C 0.70299 0.60932 0.78536 0.0
C910 C 0.69094 0.59079 0.81208 0.0
C911 C 0.6611 0.58726 0.81589 0.0
C912 C 0.64319 0.60086 0.79369 0.0
C913 C 0.61237 0.59565 0.80507 0.0
C914 C 0.60305 0.6264 0.80902 0.0
C915 C 0.59071 0.57515 0.78136 0.0
C916 C 0.61627 0.57886 0.83818 0.0
C917 C 0.64446 0.57385 0.84371 0.0
C918 C 0.65439 0.56221 0.87412 0.0
C919 C 0.6352 0.55604 0.8997 0.0
C920 C 0.6064 0.56114 0.89448 0.0
C921 C 0.59657 0.57193 0.8632 0.0
H922 H 0.64402 0.63525 0.21763 0.0
H923 H 0.67499 0.71147 0.14834 0.0
H924 H 0.64663 0.68256 0.10281 0.0
H925 H 0.64194 0.57361 0.16351 0.0
H926 H 0.60839 0.55082 0.17807 0.0
H927 H 0.63254 0.57662 0.20532 0.0
H928 H 0.59023 0.60361 0.2156 0.0
H929 H 0.5659 0.5777 0.18865 0.0
H930 H 0.57045 0.61868 0.18076 0.0
H931 H 0.61481 0.64515 0.06416 0.0
H932 H 0.57815 0.60435 0.03689 0.0
H933 H 0.56525 0.55443 0.13174 0.0
C934 C 0.64476 0.6461 0.19301 0.0
C935 C 0.66239 0.67563 0.18684 0.0
C936 C 0.66256 0.68859 0.15392 0.0
C937 C 0.6463 0.6724 0.12775 0.0
C938 C 0.62952 0.64332 0.13471 0.0
C939 C 0.62831 0.63045 0.16659 0.0
C940 C 0.60737 0.59947 0.16761 0.0
C941 C 0.62353 0.57361 0.17932 0.0
C942 C 0.58198 0.59991 0.18944 0.0
C943 C 0.59693 0.59707 0.13138 0.0
C944 C 0.61027 0.62239 0.11271 0.0
C945 C 0.60415 0.62524 0.07857 0.0
C946 C 0.58341 0.60189 0.06325 0.0
C947 C 0.56873 0.57626 0.08214 0.0
C948 C 0.57598 0.57379 0.11659 0.0
H949 H 0.38908 0.62696 0.24212 0.0
H950 H 0.30918 0.62071 0.17882 0.0
H951 H 0.32996 0.59405 0.13813 0.0
H952 H 0.43742 0.64449 0.1771 0.0
H953 H 0.46333 0.62258 0.19549 0.0
H954 H 0.44136 0.63865 0.22146 0.0
H955 H 0.42187 0.58441 0.24842 0.0
H956 H 0.44441 0.56866 0.22282 0.0
H957 H 0.40564 0.55319 0.22225 0.0
H958 H 0.35977 0.56956 0.10305 0.0
H959 H 0.39733 0.55042 0.07552 0.0
H960 H 0.45891 0.57508 0.15973 0.0
C961 C 0.37586 0.61996 0.21977 0.0
C962 C 0.3472 0.6257 0.21413 0.0
C963 C 0.33081 0.61596 0.18442 0.0
C964 C 0.34251 0.60094 0.16091 0.0
C965 C 0.37078 0.59586 0.16718 0.0
C966 C 0.3873 0.60509 0.19584 0.0
C967 C 0.41764 0.59807 0.19573 0.0
C968 C 0.44133 0.62772 0.19755 0.0
C969 C 0.42266 0.57469 0.22398 0.0
C970 C 0.41572 0.58406 0.16227 0.0
C971 C 0.38836 0.58262 0.14641 0.0
C972 C 0.38128 0.57055 0.11523 0.0
C973 C 0.40277 0.55975 0.09977 0.0
C974 C 0.43112 0.56141 0.11531 0.0
C975 C 0.43753 0.5737 0.14704 0.0
H976 H 0.60742 0.34661 0.18311 0.0
H977 H 0.68685 0.41696 0.18826 0.0
H978 H 0.66366 0.45034 0.14827 0.0
H979 H 0.58727 0.35825 0.09641 0.0
H980 H 0.54867 0.35238 0.10214 0.0
H981 H 0.57177 0.33364 0.13032 0.0
H982 H 0.55459 0.35784 0.17991 0.0
H983 H 0.53123 0.37637 0.15192 0.0
H984 H 0.55797 0.39897 0.17966 0.0
H985 H 0.632 0.47552 0.10667 0.0
H986 H 0.59253 0.4932 0.0719 0.0
H987 H 0.53297 0.40731 0.09597 0.0
C988 C 0.61989 0.36903 0.17572 0.0
C989 C 0.64894 0.37924 0.18863 0.0
C990 C 0.66451 0.40884 0.17877 0.0
C991 C 0.6516 0.42782 0.15591 0.0
C992 C 0.62299 0.41698 0.1434 0.0
C993 C 0.60718 0.38846 0.15332 0.0
C994 C 0.57633 0.38289 0.1374 0.0
C995 C 0.57069 0.35514 0.11525 0.0
C996 C 0.5537 0.37879 0.1638 0.0
C997 C 0.57724 0.41272 0.11698 0.0
C998 C 0.60447 0.4319 0.12039 0.0
C999 C 0.61057 0.4607 0.10386 0.0
C1000 C 0.58805 0.47046 0.08396 0.0
C1001 C 0.55964 0.45165 0.08112 0.0
C1002 C 0.55443 0.42224 0.09758 0.0
loop_
_geom_bond_atom_site_label_1
_geom_bond_atom_site_label_2
_geom_bond_distance
_geom_bond_site_symmetry_2
_ccdc_geom_bond_type
P0 O11 1.490 . S
P0 C14 1.812 . S
P0 C20 1.803 . S
P0 C26 1.819 . S
H1 C15 0.941 . S
H2 C16 0.939 . S
H3 C18 0.940 . S
H4 C19 0.940 . S
H5 C21 0.939 . S
H6 C22 0.942 . S
H7 C24 0.940 . S
H8 C25 0.939 . S
H9 C27 0.941 . S
H10 C31 0.939 . S
O11 P0 1.490 . S
H12 C28 0.939 . S
H13 C30 0.940 . S
C14 P0 1.812 . S
C14 C15 1.389 . S
C14 C19 1.391 . S
C15 H1 0.941 . S
C15 C14 1.389 . S
C15 C16 1.397 . S
C16 H2 0.939 . S
C16 C15 1.397 . S
C16 C17 1.378 . S
C17 C16 1.378 . S
C17 C18 1.378 . S
C18 H3 0.940 . S
C18 C17 1.378 . S
C18 C19 1.396 . S
C19 H4 0.940 . S
C19 C14 1.391 . S
C19 C18 1.396 . S
C20 P0 1.803 . S
C20 C21 1.378 . S
C20 C25 1.400 . S
C21 H5 0.939 . S
C21 C20 1.378 . S
C21 C22 1.361 . S
C22 H6 0.942 . S
C22 C21 1.361 . S
C22 C23 1.369 . S
C23 C22 1.369 . S
C23 C24 1.404 . S
C24 H7 0.940 . S
C24 C23 1.404 . S
C24 C25 1.389 . S
C25 H8 0.939 . S
C25 C20 1.400 . S
C25 C24 1.389 . S
C26 P0 1.819 . S
C26 C27 1.391 . S
C26 C31 1.391 . S
C27 H9 0.941 . S
C27 C26 1.391 . S
C27 C28 1.396 . S
C28 H12 0.939 . S
C28 C27 1.396 . S
C28 C29 1.397 . S
C29 C28 1.397 . S
C29 C30 1.385 . S
C30 H13 0.940 . S
C30 C29 1.385 . S
C30 C31 1.388 . S
C31 H10 0.939 . S
C31 C26 1.391 . S
C31 C30 1.388 . S
P32 O43 1.490 . S
P32 C46 1.812 . S
P32 C52 1.803 . S
P32 C58 1.819 . S
H33 C47 0.941 . S
H34 C48 0.939 . S
H35 C50 0.940 . S
H36 C51 0.940 . S
H37 C53 0.939 . S
H38 C54 0.942 . S
H39 C56 0.940 . S
H40 C57 0.939 . S
H41 C59 0.941 . S
H42 C63 0.939 . S
O43 P32 1.490 . S
H44 C60 0.939 . S
H45 C62 0.940 . S
C46 P32 1.812 . S
C46 C47 1.389 . S
C46 C51 1.391 . S
C47 H33 0.941 . S
C47 C46 1.389 . S
C47 C48 1.397 . S
C48 H34 0.939 . S
C48 C47 1.397 . S
C48 C49 1.378 . S
C49 C48 1.378 . S
C49 C50 1.378 . S
C50 H35 0.940 . S
C50 C49 1.378 . S
C50 C51 1.396 . S
C51 H36 0.940 . S
C51 C46 1.391 . S
C51 C50 1.396 . S
C52 P32 1.803 . S
C52 C53 1.378 . S
C52 C57 1.400 . S
C53 H37 0.939 . S
C53 C52 1.378 . S
C53 C54 1.361 . S
C54 H38 0.942 . S
C54 C53 1.361 . S
C54 C55 1.369 . S
C55 C54 1.369 . S
C55 C56 1.404 . S
C56 H39 0.940 . S
C56 C55 1.404 . S
C56 C57 1.389 . S
C57 H40 0.939 . S
C57 C52 1.400 . S
C57 C56 1.389 . S
C58 P32 1.819 . S
C58 C59 1.391 . S
C58 C63 1.391 . S
C59 H41 0.941 . S
C59 C58 1.391 . S
C59 C60 1.396 . S
C60 H44 0.939 . S
C60 C59 1.396 . S
C60 C61 1.397 . S
C61 C60 1.397 . S
C61 C62 1.385 . S
C62 H45 0.940 . S
C62 C61 1.385 . S
C62 C63 1.388 . S
C63 H42 0.939 . S
C63 C58 1.391 . S
C63 C62 1.388 . S
P64 O75 1.490 . S
P64 C78 1.812 . S
P64 C84 1.803 . S
P64 C90 1.819 . S
H65 C79 0.941 . S
H66 C80 0.939 . S
H67 C82 0.940 . S
H68 C83 0.940 . S
H69 C85 0.939 . S
H70 C86 0.942 . S
H71 C88 0.940 . S
H72 C89 0.939 . S
H73 C91 0.941 . S
H74 C95 0.939 . S
O75 P64 1.490 . S
H76 C92 0.939 . S
H77 C94 0.940 . S
C78 P64 1.812 . S
C78 C79 1.389 . S
C78 C83 1.391 . S
C79 H65 0.941 . S
C79 C78 1.389 . S
C79 C80 1.397 . S
C80 H66 0.939 . S
C80 C79 1.397 . S
C80 C81 1.378 . S
C81 C80 1.378 . S
C81 C82 1.378 . S
C82 H67 0.940 . S
C82 C81 1.378 . S
C82 C83 1.396 . S
C83 H68 0.940 . S
C83 C78 1.391 . S
C83 C82 1.396 . S
C84 P64 1.803 . S
C84 C85 1.378 . S
C84 C89 1.400 . S
C85 H69 0.939 . S
C85 C84 1.378 . S
C85 C86 1.361 . S
C86 H70 0.942 . S
C86 C85 1.361 . S
C86 C87 1.369 . S
C87 C86 1.369 . S
C87 C88 1.404 . S
C88 H71 0.940 . S
C88 C87 1.404 . S
C88 C89 1.389 . S
C89 H72 0.939 . S
C89 C84 1.400 . S
C89 C88 1.389 . S
C90 P64 1.819 . S
C90 C91 1.391 . S
C90 C95 1.391 . S
C91 H73 0.941 . S
C91 C90 1.391 . S
C91 C92 1.396 . S
C92 H76 0.939 . S
C92 C91 1.396 . S
C92 C93 1.397 . S
C93 C92 1.397 . S
C93 C94 1.385 . S
C94 H77 0.940 . S
C94 C93 1.385 . S
C94 C95 1.388 . S
C95 H74 0.939 . S
C95 C90 1.391 . S
C95 C94 1.388 . S
P96 O107 1.490 . S
P96 C110 1.812 . S
P96 C116 1.803 . S
P96 C122 1.819 . S
H97 C111 0.941 . S
H98 C112 0.939 . S
H99 C114 0.940 . S
H100 C115 0.940 . S
H101 C117 0.939 . S
H102 C118 0.942 . S
H103 C120 0.940 . S
H104 C121 0.939 . S
H105 C123 0.941 . S
H106 C127 0.939 . S
O107 P96 1.490 . S
H108 C124 0.939 . S
H109 C126 0.940 . S
C110 P96 1.812 . S
C110 C111 1.389 . S
C110 C115 1.391 . S
C111 H97 0.941 . S
C111 C110 1.389 . S
C111 C112 1.397 . S
C112 H98 0.939 . S
C112 C111 1.397 . S
C112 C113 1.378 . S
C113 C112 1.378 . S
C113 C114 1.378 . S
C114 H99 0.940 . S
C114 C113 1.378 . S
C114 C115 1.396 . S
C115 H100 0.940 . S
C115 C110 1.391 . S
C115 C114 1.396 . S
C116 P96 1.803 . S
C116 C117 1.378 . S
C116 C121 1.400 . S
C117 H101 0.939 . S
C117 C116 1.378 . S
C117 C118 1.361 . S
C118 H102 0.942 . S
C118 C117 1.361 . S
C118 C119 1.369 . S
C119 C118 1.369 . S
C119 C120 1.404 . S
C120 H103 0.940 . S
C120 C119 1.404 . S
C120 C121 1.389 . S
C121 H104 0.939 . S
C121 C116 1.400 . S
C121 C120 1.389 . S
C122 P96 1.819 . S
C122 C123 1.391 . S
C122 C127 1.391 . S
C123 H105 0.941 . S
C123 C122 1.391 . S
C123 C124 1.396 . S
C124 H108 0.939 . S
C124 C123 1.396 . S
C124 C125 1.397 . S
C125 C124 1.397 . S
C125 C126 1.385 . S
C126 H109 0.940 . S
C126 C125 1.385 . S
C126 C127 1.388 . S
C127 H106 0.939 . S
C127 C122 1.391 . S
C127 C126 1.388 . S
P128 O139 1.490 . S
P128 C142 1.812 . S
P128 C148 1.803 . S
P128 C154 1.819 . S
H129 C143 0.941 . S
H130 C144 0.939 . S
H131 C146 0.940 . S
H132 C147 0.940 . S
H133 C149 0.939 . S
H134 C150 0.942 . S
H135 C152 0.940 . S
H136 C153 0.939 . S
H137 C155 0.941 . S
H138 C159 0.939 . S
O139 P128 1.490 . S
H140 C156 0.939 . S
H141 C158 0.940 . S
C142 P128 1.812 . S
C142 C143 1.389 . S
C142 C147 1.391 . S
C143 H129 0.941 . S
C143 C142 1.389 . S
C143 C144 1.397 . S
C144 H130 0.939 . S
C144 C143 1.397 . S
C144 C145 1.378 . S
C145 C144 1.378 . S
C145 C146 1.378 . S
C146 H131 0.940 . S
C146 C145 1.378 . S
C146 C147 1.396 . S
C147 H132 0.940 . S
C147 C142 1.391 . S
C147 C146 1.396 . S
C148 P128 1.803 . S
C148 C149 1.378 . S
C148 C153 1.400 . S
C149 H133 0.939 . S
C149 C148 1.378 . S
C149 C150 1.361 . S
C150 H134 0.942 . S
C150 C149 1.361 . S
C150 C151 1.369 . S
C151 C150 1.369 . S
C151 C152 1.404 . S
C152 H135 0.940 . S
C152 C151 1.404 . S
C152 C153 1.389 . S
C153 H136 0.939 . S
C153 C148 1.400 . S
C153 C152 1.389 . S
C154 P128 1.819 . S
C154 C155 1.391 . S
C154 C159 1.391 . S
C155 H137 0.941 . S
C155 C154 1.391 . S
C155 C156 1.396 . S
C156 H140 0.939 . S
C156 C155 1.396 . S
C156 C157 1.397 . S
C157 C156 1.397 . S
C157 C158 1.385 . S
C158 H141 0.940 . S
C158 C157 1.385 . S
C158 C159 1.388 . S
C159 H138 0.939 . S
C159 C154 1.391 . S
C159 C158 1.388 . S
P160 O171 1.490 . S
P160 C174 1.812 . S
P160 C180 1.803 . S
P160 C186 1.819 . S
H161 C175 0.941 . S
H162 C176 0.939 . S
H163 C178 0.940 . S
H164 C179 0.940 . S
H165 C181 0.939 . S
H166 C182 0.942 . S
H167 C184 0.940 . S
H168 C185 0.939 . S
H169 C187 0.941 . S
H170 C191 0.939 . S
O171 P160 1.490 . S
H172 C188 0.939 . S
H173 C190 0.940 . S
C174 P160 1.812 . S
C174 C175 1.389 . S
C174 C179 1.391 . S
C175 H161 0.941 . S
C175 C174 1.389 . S
C175 C176 1.397 . S
C176 H162 0.939 . S
C176 C175 1.397 . S
C176 C177 1.378 . S
C177 C176 1.378 . S
C177 C178 1.378 . S
C178 H163 0.940 . S
C178 C177 1.378 . S
C178 C179 1.396 . S
C179 H164 0.940 . S
C179 C174 1.391 . S
C179 C178 1.396 . S
C180 P160 1.803 . S
C180 C181 1.378 . S
C180 C185 1.400 . S
C181 H165 0.939 . S
C181 C180 1.378 . S
C181 C182 1.361 . S
C182 H166 0.942 . S
C182 C181 1.361 . S
C182 C183 1.369 . S
C183 C182 1.369 . S
C183 C184 1.404 . S
C184 H167 0.940 . S
C184 C183 1.404 . S
C184 C185 1.389 . S
C185 H168 0.939 . S
C185 C180 1.400 . S
C185 C184 1.389 . S
C186 P160 1.819 . S
C186 C187 1.391 . S
C186 C191 1.391 . S
C187 H169 0.941 . S
C187 C186 1.391 . S
C187 C188 1.396 . S
C188 H172 0.939 . S
C188 C187 1.396 . S
C188 C189 1.397 . S
C189 C188 1.397 . S
C189 C190 1.385 . S
C190 H173 0.940 . S
C190 C189 1.385 . S
C190 C191 1.388 . S
C191 H170 0.939 . S
C191 C186 1.391 . S
C191 C190 1.388 . S
P192 O203 1.490 . S
P192 C206 1.812 . S
P192 C212 1.803 . S
P192 C218 1.819 . S
H193 C207 0.941 . S
H194 C208 0.939 . S
H195 C210 0.940 . S
H196 C211 0.940 . S
H197 C213 0.939 . S
H198 C214 0.942 . S
H199 C216 0.940 . S
H200 C217 0.939 . S
H201 C219 0.941 . S
H202 C223 0.939 . S
O203 P192 1.490 . S
H204 C220 0.939 . S
H205 C222 0.940 . S
C206 P192 1.812 . S
C206 C207 1.389 . S
C206 C211 1.391 . S
C207 H193 0.941 . S
C207 C206 1.389 . S
C207 C208 1.397 . S
C208 H194 0.939 . S
C208 C207 1.397 . S
C208 C209 1.378 . S
C209 C208 1.378 . S
C209 C210 1.378 . S
C210 H195 0.940 . S
C210 C209 1.378 . S
C210 C211 1.396 . S
C211 H196 0.940 . S
C211 C206 1.391 . S
C211 C210 1.396 . S
C212 P192 1.803 . S
C212 C213 1.378 . S
C212 C217 1.400 . S
C213 H197 0.939 . S
C213 C212 1.378 . S
C213 C214 1.361 . S
C214 H198 0.942 . S
C214 C213 1.361 . S
C214 C215 1.369 . S
C215 C214 1.369 . S
C215 C216 1.404 . S
C216 H199 0.940 . S
C216 C215 1.404 . S
C216 C217 1.389 . S
C217 H200 0.939 . S
C217 C212 1.400 . S
C217 C216 1.389 . S
C218 P192 1.819 . S
C218 C219 1.391 . S
C218 C223 1.391 . S
C219 H201 0.941 . S
C219 C218 1.391 . S
C219 C220 1.396 . S
C220 H204 0.939 . S
C220 C219 1.396 . S
C220 C221 1.397 . S
C221 C220 1.397 . S
C221 C222 1.385 . S
C222 H205 0.940 . S
C222 C221 1.385 . S
C222 C223 1.388 . S
C223 H202 0.939 . S
C223 C218 1.391 . S
C223 C222 1.388 . S
P224 O235 1.490 . S
P224 C238 1.812 . S
P224 C244 1.803 . S
P224 C250 1.819 . S
H225 C239 0.941 . S
H226 C240 0.939 . S
H227 C242 0.940 . S
H228 C243 0.940 . S
H229 C245 0.939 . S
H230 C246 0.942 . S
H231 C248 0.940 . S
H232 C249 0.939 . S
H233 C251 0.941 . S
H234 C255 0.939 . S
O235 P224 1.490 . S
H236 C252 0.939 . S
H237 C254 0.940 . S
C238 P224 1.812 . S
C238 C239 1.389 . S
C238 C243 1.391 . S
C239 H225 0.941 . S
C239 C238 1.389 . S
C239 C240 1.397 . S
C240 H226 0.939 . S
C240 C239 1.397 . S
C240 C241 1.378 . S
C241 C240 1.378 . S
C241 C242 1.378 . S
C242 H227 0.940 . S
C242 C241 1.378 . S
C242 C243 1.396 . S
C243 H228 0.940 . S
C243 C238 1.391 . S
C243 C242 1.396 . S
C244 P224 1.803 . S
C244 C245 1.378 . S
C244 C249 1.400 . S
C245 H229 0.939 . S
C245 C244 1.378 . S
C245 C246 1.361 . S
C246 H230 0.942 . S
C246 C245 1.361 . S
C246 C247 1.369 . S
C247 C246 1.369 . S
C247 C248 1.404 . S
C248 H231 0.940 . S
C248 C247 1.404 . S
C248 C249 1.389 . S
C249 H232 0.939 . S
C249 C244 1.400 . S
C249 C248 1.389 . S
C250 P224 1.819 . S
C250 C251 1.391 . S
C250 C255 1.391 . S
C251 H233 0.941 . S
C251 C250 1.391 . S
C251 C252 1.396 . S
C252 H236 0.939 . S
C252 C251 1.396 . S
C252 C253 1.397 . S
C253 C252 1.397 . S
C253 C254 1.385 . S
C254 H237 0.940 . S
C254 C253 1.385 . S
C254 C255 1.388 . S
C255 H234 0.939 . S
C255 C250 1.391 . S
C255 C254 1.388 . S
Co256 O259 2.042 . S
Co256 O266 2.264 . S
Co256 O285 2.286 . S
Co256 O286 2.069 . S
Co256 O288 2.015 . S
Co257 O259 2.122 . S
Co257 O265 2.073 . S
Co257 O266 2.327 . S
Co257 O267 1.976 . S
Co258 O259 2.087 . S
Co258 O261 2.087 1_455 S
Co258 O268 2.111 . S
Co258 O269 2.143 1_455 S
Co258 O273 2.111 1_455 S
Co258 O287 2.143 . S
O259 Co256 2.042 . S
O259 Co257 2.122 . S
O259 Co258 2.087 . S
O259 H260 0.980 . S
H260 O259 0.980 . S
O261 Co258 2.087 1_655 S
O261 Co262 2.042 . S
O261 Co263 2.122 . S
O261 H264 0.980 . S
Co262 O261 2.042 . S
Co262 O270 2.286 . S
Co262 O271 2.069 . S
Co262 O272 2.015 . S
Co262 O275 2.264 . S
Co263 O261 2.122 . S
Co263 O274 1.976 . S
Co263 O275 2.327 . S
Co263 O276 2.073 . S
H264 O261 0.980 . S
O265 Co257 2.073 . S
O265 C280 1.245 . S
O266 Co256 2.264 . S
O266 Co257 2.327 . S
O266 C280 1.257 . S
O267 Co257 1.976 . S
O267 C279 1.251 . S
O268 Co258 2.111 . S
O268 C279 1.274 . S
O269 Co258 2.143 1_655 S
O269 C282 1.246 . S
O270 Co262 2.286 . S
O270 C281 1.259 . S
O271 Co262 2.069 . S
O271 C281 1.289 . S
O272 Co262 2.015 . S
O272 C282 1.257 . S
O273 Co258 2.111 1_655 S
O273 C283 1.274 . S
O274 Co263 1.976 . S
O274 C283 1.251 . S
O275 Co262 2.264 . S
O275 Co263 2.327 . S
O275 C284 1.257 . S
O276 Co263 2.073 . S
O276 C284 1.245 . S
C277 O285 1.259 . S
C277 O286 1.289 . S
C278 O287 1.246 . S
C278 O288 1.257 . S
C279 O267 1.251 . S
C279 O268 1.274 . S
C280 O265 1.245 . S
C280 O266 1.257 . S
C281 O270 1.259 . S
C281 O271 1.289 . S
C282 O269 1.246 . S
C282 O272 1.257 . S
C283 O273 1.274 . S
C283 O274 1.251 . S
C284 O275 1.257 . S
C284 O276 1.245 . S
O285 Co256 2.286 . S
O285 C277 1.259 . S
O286 Co256 2.069 . S
O286 C277 1.289 . S
O287 Co258 2.143 . S
O287 C278 1.246 . S
O288 Co256 2.015 . S
O288 C278 1.257 . S
Co289 O292 2.042 . S
Co289 O299 2.264 . S
Co289 O318 2.286 . S
Co289 O319 2.069 . S
Co289 O321 2.015 . S
Co290 O292 2.122 . S
Co290 O298 2.073 . S
Co290 O299 2.327 . S
Co290 O300 1.976 . S
Co291 O292 2.087 1_545 S
Co291 O294 2.087 . S
Co291 O301 2.111 1_545 S
Co291 O302 2.143 . S
Co291 O306 2.111 . S
Co291 O320 2.143 1_545 S
O292 Co289 2.042 . S
O292 Co290 2.122 . S
O292 Co291 2.087 1_565 S
O292 H293 0.980 . S
H293 O292 0.980 . S
O294 Co291 2.087 . S
O294 Co295 2.042 . S
O294 Co296 2.122 . S
O294 H297 0.980 . S
Co295 O294 2.042 . S
Co295 O303 2.286 . S
Co295 O304 2.069 . S
Co295 O305 2.015 . S
Co295 O308 2.264 . S
Co296 O294 2.122 . S
Co296 O307 1.976 . S
Co296 O308 2.327 . S
Co296 O309 2.073 . S
H297 O294 0.980 . S
O298 Co290 2.073 . S
O298 C313 1.245 . S
O299 Co289 2.264 . S
O299 Co290 2.327 . S
O299 C313 1.257 . S
O300 Co290 1.976 . S
O300 C312 1.251 . S
O301 Co291 2.111 1_565 S
O301 C312 1.274 . S
O302 Co291 2.143 . S
O302 C315 1.246 . S
O303 Co295 2.286 . S
O303 C314 1.259 . S
O304 Co295 2.069 . S
O304 C314 1.289 . S
O305 Co295 2.015 . S
O305 C315 1.257 . S
O306 Co291 2.111 . S
O306 C316 1.274 . S
O307 Co296 1.976 . S
O307 C316 1.251 . S
O308 Co295 2.264 . S
O308 Co296 2.327 . S
O308 C317 1.257 . S
O309 Co296 2.073 . S
O309 C317 1.245 . S
C310 O318 1.259 . S
C310 O319 1.289 . S
C311 O320 1.246 . S
C311 O321 1.257 . S
C312 O300 1.251 . S
C312 O301 1.274 . S
C313 O298 1.245 . S
C313 O299 1.257 . S
C314 O303 1.259 . S
C314 O304 1.289 . S
C315 O302 1.246 . S
C315 O305 1.257 . S
C316 O306 1.274 . S
C316 O307 1.251 . S
C317 O308 1.257 . S
C317 O309 1.245 . S
O318 Co289 2.286 . S
O318 C310 1.259 . S
O319 Co289 2.069 . S
O319 C310 1.289 . S
O320 Co291 2.143 1_565 S
O320 C311 1.246 . S
O321 Co289 2.015 . S
O321 C311 1.257 . S
Co322 O325 2.042 . S
Co322 O332 2.264 . S
Co322 O351 2.286 . S
Co322 O352 2.069 . S
Co322 O354 2.015 . S
Co323 O325 2.122 . S
Co323 O331 2.073 . S
Co323 O332 2.327 . S
Co323 O333 1.976 . S
Co324 O325 2.087 . S
Co324 O327 2.087 1_554 S
Co324 O334 2.111 . S
Co324 O335 2.143 1_554 S
Co324 O339 2.111 1_554 S
Co324 O353 2.143 . S
O325 Co322 2.042 . S
O325 Co323 2.122 . S
O325 Co324 2.087 . S
O325 H326 0.980 . S
H326 O325 0.980 . S
O327 Co324 2.087 1_556 S
O327 Co328 2.042 . S
O327 Co329 2.122 . S
O327 H330 0.980 . S
Co328 O327 2.042 . S
Co328 O336 2.286 . S
Co328 O337 2.069 . S
Co328 O338 2.015 . S
Co328 O341 2.264 . S
Co329 O327 2.122 . S
Co329 O340 1.976 . S
Co329 O341 2.327 . S
Co329 O342 2.073 . S
H330 O327 0.980 . S
O331 Co323 2.073 . S
O331 C346 1.245 . S
O332 Co322 2.264 . S
O332 Co323 2.327 . S
O332 C346 1.257 . S
O333 Co323 1.976 . S
O333 C345 1.251 . S
O334 Co324 2.111 . S
O334 C345 1.274 . S
O335 Co324 2.143 1_556 S
O335 C348 1.246 . S
O336 Co328 2.286 . S
O336 C347 1.259 . S
O337 Co328 2.069 . S
O337 C347 1.289 . S
O338 Co328 2.015 . S
O338 C348 1.257 . S
O339 Co324 2.111 1_556 S
O339 C349 1.274 . S
O340 Co329 1.976 . S
O340 C349 1.251 . S
O341 Co328 2.264 . S
O341 Co329 2.327 . S
O341 C350 1.257 . S
O342 Co329 2.073 . S
O342 C350 1.245 . S
C343 O351 1.259 . S
C343 O352 1.289 . S
C344 O353 1.246 . S
C344 O354 1.257 . S
C345 O333 1.251 . S
C345 O334 1.274 . S
C346 O331 1.245 . S
C346 O332 1.257 . S
C347 O336 1.259 . S
C347 O337 1.289 . S
C348 O335 1.246 . S
C348 O338 1.257 . S
C349 O339 1.274 . S
C349 O340 1.251 . S
C350 O341 1.257 . S
C350 O342 1.245 . S
O351 Co322 2.286 . S
O351 C343 1.259 . S
O352 Co322 2.069 . S
O352 C343 1.289 . S
O353 Co324 2.143 . S
O353 C344 1.246 . S
O354 Co322 2.015 . S
O354 C344 1.257 . S
H355 C367 0.930 . S
H356 C369 0.930 . S
H357 C370 0.930 . S
H358 C374 0.959 . S
H359 C374 0.959 . S
H360 C374 0.961 . S
H361 C375 0.960 . S
H362 C375 0.961 . S
H363 C375 0.959 . S
H364 C378 0.929 . S
H365 C379 0.931 . S
H366 C381 0.930 . S
C367 H355 0.930 . S
C367 C368 1.399 . S
C367 C372 1.399 . S
C368 C367 1.399 . S
C368 C369 1.376 . S
C369 H356 0.930 . S
C369 C368 1.376 . S
C369 C370 1.388 . S
C370 H357 0.930 . S
C370 C369 1.388 . S
C370 C371 1.390 . S
C371 C370 1.390 . S
C371 C372 1.394 . S
C371 C377 1.465 . S
C372 C367 1.399 . S
C372 C371 1.394 . S
C372 C373 1.516 . S
C373 C372 1.516 . S
C373 C374 1.502 . S
C373 C375 1.561 . S
C373 C376 1.526 . S
C374 H358 0.959 . S
C374 H359 0.959 . S
C374 H360 0.961 . S
C374 C373 1.502 . S
C375 H361 0.960 . S
C375 H362 0.961 . S
C375 H363 0.959 . S
C375 C373 1.561 . S
C376 C373 1.526 . S
C376 C377 1.396 . S
C376 C381 1.390 . S
C377 C371 1.465 . S
C377 C376 1.396 . S
C377 C378 1.399 . S
C378 H364 0.929 . S
C378 C377 1.399 . S
C378 C379 1.385 . S
C379 H365 0.931 . S
C379 C378 1.385 . S
C379 C380 1.389 . S
C380 C379 1.389 . S
C380 C381 1.387 . S
C381 H366 0.930 . S
C381 C376 1.390 . S
C381 C380 1.387 . S
H382 C394 0.930 . S
H383 C396 0.930 . S
H384 C397 0.930 . S
H385 C401 0.959 . S
H386 C401 0.959 . S
H387 C401 0.961 . S
H388 C402 0.960 . S
H389 C402 0.961 . S
H390 C402 0.959 . S
H391 C405 0.929 . S
H392 C406 0.931 . S
H393 C408 0.930 . S
C394 H382 0.930 . S
C394 C395 1.399 . S
C394 C399 1.399 . S
C395 C394 1.399 . S
C395 C396 1.376 . S
C396 H383 0.930 . S
C396 C395 1.376 . S
C396 C397 1.388 . S
C397 H384 0.930 . S
C397 C396 1.388 . S
C397 C398 1.390 . S
C398 C397 1.390 . S
C398 C399 1.394 . S
C398 C404 1.465 . S
C399 C394 1.399 . S
C399 C398 1.394 . S
C399 C400 1.516 . S
C400 C399 1.516 . S
C400 C401 1.502 . S
C400 C402 1.561 . S
C400 C403 1.526 . S
C401 H385 0.959 . S
C401 H386 0.959 . S
C401 H387 0.961 . S
C401 C400 1.502 . S
C402 H388 0.960 . S
C402 H389 0.961 . S
C402 H390 0.959 . S
C402 C400 1.561 . S
C403 C400 1.526 . S
C403 C404 1.396 . S
C403 C408 1.390 . S
C404 C398 1.465 . S
C404 C403 1.396 . S
C404 C405 1.399 . S
C405 H391 0.929 . S
C405 C404 1.399 . S
C405 C406 1.385 . S
C406 H392 0.931 . S
C406 C405 1.385 . S
C406 C407 1.389 . S
C407 C406 1.389 . S
C407 C408 1.387 . S
C408 H393 0.930 . S
C408 C403 1.390 . S
C408 C407 1.387 . S
H409 C421 0.930 . S
H410 C423 0.930 . S
H411 C424 0.930 . S
H412 C428 0.959 . S
H413 C428 0.959 . S
H414 C428 0.961 . S
H415 C429 0.960 . S
H416 C429 0.961 . S
H417 C429 0.959 . S
H418 C432 0.929 . S
H419 C433 0.931 . S
H420 C435 0.930 . S
C421 H409 0.930 . S
C421 C422 1.399 . S
C421 C426 1.399 . S
C422 C421 1.399 . S
C422 C423 1.376 . S
C423 H410 0.930 . S
C423 C422 1.376 . S
C423 C424 1.388 . S
C424 H411 0.930 . S
C424 C423 1.388 . S
C424 C425 1.390 . S
C425 C424 1.390 . S
C425 C426 1.394 . S
C425 C431 1.465 . S
C426 C421 1.399 . S
C426 C425 1.394 . S
C426 C427 1.516 . S
C427 C426 1.516 . S
C427 C428 1.502 . S
C427 C429 1.561 . S
C427 C430 1.526 . S
C428 H412 0.959 . S
C428 H413 0.959 . S
C428 H414 0.961 . S
C428 C427 1.502 . S
C429 H415 0.960 . S
C429 H416 0.961 . S
C429 H417 0.959 . S
C429 C427 1.561 . S
C430 C427 1.526 . S
C430 C431 1.396 . S
C430 C435 1.390 . S
C431 C425 1.465 . S
C431 C430 1.396 . S
C431 C432 1.399 . S
C432 H418 0.929 . S
C432 C431 1.399 . S
C432 C433 1.385 . S
C433 H419 0.931 . S
C433 C432 1.385 . S
C433 C434 1.389 . S
C434 C433 1.389 . S
C434 C435 1.387 . S
C435 H420 0.930 . S
C435 C430 1.390 . S
C435 C434 1.387 . S
H436 C448 0.930 . S
H437 C450 0.930 . S
H438 C451 0.930 . S
H439 C455 0.959 . S
H440 C455 0.959 . S
H441 C455 0.961 . S
H442 C456 0.960 . S
H443 C456 0.961 . S
H444 C456 0.959 . S
H445 C459 0.929 . S
H446 C460 0.931 . S
H447 C462 0.930 . S
C448 H436 0.930 . S
C448 C449 1.399 . S
C448 C453 1.399 . S
C449 C448 1.399 . S
C449 C450 1.376 . S
C450 H437 0.930 . S
C450 C449 1.376 . S
C450 C451 1.388 . S
C451 H438 0.930 . S
C451 C450 1.388 . S
C451 C452 1.390 . S
C452 C451 1.390 . S
C452 C453 1.394 . S
C452 C458 1.465 . S
C453 C448 1.399 . S
C453 C452 1.394 . S
C453 C454 1.516 . S
C454 C453 1.516 . S
C454 C455 1.502 . S
C454 C456 1.561 . S
C454 C457 1.526 . S
C455 H439 0.959 . S
C455 H440 0.959 . S
C455 H441 0.961 . S
C455 C454 1.502 . S
C456 H442 0.960 . S
C456 H443 0.961 . S
C456 H444 0.959 . S
C456 C454 1.561 . S
C457 C454 1.526 . S
C457 C458 1.396 . S
C457 C462 1.390 . S
C458 C452 1.465 . S
C458 C457 1.396 . S
C458 C459 1.399 . S
C459 H445 0.929 . S
C459 C458 1.399 . S
C459 C460 1.385 . S
C460 H446 0.931 . S
C460 C459 1.385 . S
C460 C461 1.389 . S
C461 C460 1.389 . S
C461 C462 1.387 . S
C462 H447 0.930 . S
C462 C457 1.390 . S
C462 C461 1.387 . S
H463 C475 0.930 . S
H464 C477 0.930 . S
H465 C478 0.930 . S
H466 C482 0.959 . S
H467 C482 0.959 . S
H468 C482 0.961 . S
H469 C483 0.960 . S
H470 C483 0.961 . S
H471 C483 0.959 . S
H472 C486 0.929 . S
H473 C487 0.931 . S
H474 C489 0.930 . S
C475 H463 0.930 . S
C475 C476 1.399 . S
C475 C480 1.399 . S
C476 C475 1.399 . S
C476 C477 1.376 . S
C477 H464 0.930 . S
C477 C476 1.376 . S
C477 C478 1.388 . S
C478 H465 0.930 . S
C478 C477 1.388 . S
C478 C479 1.390 . S
C479 C478 1.390 . S
C479 C480 1.394 . S
C479 C485 1.465 . S
C480 C475 1.399 . S
C480 C479 1.394 . S
C480 C481 1.516 . S
C481 C480 1.516 . S
C481 C482 1.502 . S
C481 C483 1.561 . S
C481 C484 1.526 . S
C482 H466 0.959 . S
C482 H467 0.959 . S
C482 H468 0.961 . S
C482 C481 1.502 . S
C483 H469 0.960 . S
C483 H470 0.961 . S
C483 H471 0.959 . S
C483 C481 1.561 . S
C484 C481 1.526 . S
C484 C485 1.396 . S
C484 C489 1.390 . S
C485 C479 1.465 . S
C485 C484 1.396 . S
C485 C486 1.399 . S
C486 H472 0.929 . S
C486 C485 1.399 . S
C486 C487 1.385 . S
C487 H473 0.931 . S
C487 C486 1.385 . S
C487 C488 1.389 . S
C488 C487 1.389 . S
C488 C489 1.387 . S
C489 H474 0.930 . S
C489 C484 1.390 . S
C489 C488 1.387 . S
H490 C502 0.930 . S
H491 C504 0.930 . S
H492 C505 0.930 . S
H493 C509 0.959 . S
H494 C509 0.959 . S
H495 C509 0.961 . S
H496 C510 0.960 . S
H497 C510 0.961 . S
H498 C510 0.959 . S
H499 C513 0.929 . S
H500 C514 0.931 . S
H501 C516 0.930 . S
C502 H490 0.930 . S
C502 C503 1.399 . S
C502 C507 1.399 . S
C503 C502 1.399 . S
C503 C504 1.376 . S
C504 H491 0.930 . S
C504 C503 1.376 . S
C504 C505 1.388 . S
C505 H492 0.930 . S
C505 C504 1.388 . S
C505 C506 1.390 . S
C506 C505 1.390 . S
C506 C507 1.394 . S
C506 C512 1.465 . S
C507 C502 1.399 . S
C507 C506 1.394 . S
C507 C508 1.516 . S
C508 C507 1.516 . S
C508 C509 1.502 . S
C508 C510 1.561 . S
C508 C511 1.526 . S
C509 H493 0.959 . S
C509 H494 0.959 . S
C509 H495 0.961 . S
C509 C508 1.502 . S
C510 H496 0.960 . S
C510 H497 0.961 . S
C510 H498 0.959 . S
C510 C508 1.561 . S
C511 C508 1.526 . S
C511 C512 1.396 . S
C511 C516 1.390 . S
C512 C506 1.465 . S
C512 C511 1.396 . S
C512 C513 1.399 . S
C513 H499 0.929 . S
C513 C512 1.399 . S
C513 C514 1.385 . S
C514 H500 0.931 . S
C514 C513 1.385 . S
C514 C515 1.389 . S
C515 C514 1.389 . S
C515 C516 1.387 . S
C516 H501 0.930 . S
C516 C511 1.390 . S
C516 C515 1.387 . S
H517 C529 0.930 . S
H518 C531 0.930 . S
H519 C532 0.930 . S
H520 C536 0.959 . S
H521 C536 0.959 . S
H522 C536 0.961 . S
H523 C537 0.960 . S
H524 C537 0.961 . S
H525 C537 0.959 . S
H526 C540 0.929 . S
H527 C541 0.931 . S
H528 C543 0.930 . S
C529 H517 0.930 . S
C529 C530 1.399 . S
C529 C534 1.399 . S
C530 C529 1.399 . S
C530 C531 1.376 . S
C531 H518 0.930 . S
C531 C530 1.376 . S
C531 C532 1.388 . S
C532 H519 0.930 . S
C532 C531 1.388 . S
C532 C533 1.390 . S
C533 C532 1.390 . S
C533 C534 1.394 . S
C533 C539 1.465 . S
C534 C529 1.399 . S
C534 C533 1.394 . S
C534 C535 1.516 . S
C535 C534 1.516 . S
C535 C536 1.502 . S
C535 C537 1.561 . S
C535 C538 1.526 . S
C536 H520 0.959 . S
C536 H521 0.959 . S
C536 H522 0.961 . S
C536 C535 1.502 . S
C537 H523 0.960 . S
C537 H524 0.961 . S
C537 H525 0.959 . S
C537 C535 1.561 . S
C538 C535 1.526 . S
C538 C539 1.396 . S
C538 C543 1.390 . S
C539 C533 1.465 . S
C539 C538 1.396 . S
C539 C540 1.399 . S
C540 H526 0.929 . S
C540 C539 1.399 . S
C540 C541 1.385 . S
C541 H527 0.931 . S
C541 C540 1.385 . S
C541 C542 1.389 . S
C542 C541 1.389 . S
C542 C543 1.387 . S
C543 H528 0.930 . S
C543 C538 1.390 . S
C543 C542 1.387 . S
H544 C556 0.930 . S
H545 C558 0.930 . S
H546 C559 0.930 . S
H547 C563 0.959 . S
H548 C563 0.959 . S
H549 C563 0.961 . S
H550 C564 0.960 . S
H551 C564 0.961 . S
H552 C564 0.959 . S
H553 C567 0.929 . S
H554 C568 0.931 . S
H555 C570 0.930 . S
C556 H544 0.930 . S
C556 C557 1.399 . S
C556 C561 1.399 . S
C557 C556 1.399 . S
C557 C558 1.376 . S
C558 H545 0.930 . S
C558 C557 1.376 . S
C558 C559 1.388 . S
C559 H546 0.930 . S
C559 C558 1.388 . S
C559 C560 1.390 . S
C560 C559 1.390 . S
C560 C561 1.394 . S
C560 C566 1.465 . S
C561 C556 1.399 . S
C561 C560 1.394 . S
C561 C562 1.516 . S
C562 C561 1.516 . S
C562 C563 1.502 . S
C562 C564 1.561 . S
C562 C565 1.526 . S
C563 H547 0.959 . S
C563 H548 0.959 . S
C563 H549 0.961 . S
C563 C562 1.502 . S
C564 H550 0.960 . S
C564 H551 0.961 . S
C564 H552 0.959 . S
C564 C562 1.561 . S
C565 C562 1.526 . S
C565 C566 1.396 . S
C565 C570 1.390 . S
C566 C560 1.465 . S
C566 C565 1.396 . S
C566 C567 1.399 . S
C567 H553 0.929 . S
C567 C566 1.399 . S
C567 C568 1.385 . S
C568 H554 0.931 . S
C568 C567 1.385 . S
C568 C569 1.389 . S
C569 C568 1.389 . S
C569 C570 1.387 . S
C570 H555 0.930 . S
C570 C565 1.390 . S
C570 C569 1.387 . S
H571 C583 0.930 . S
H572 C585 0.930 . S
H573 C586 0.930 . S
H574 C590 0.959 . S
H575 C590 0.959 . S
H576 C590 0.961 . S
H577 C591 0.960 . S
H578 C591 0.961 . S
H579 C591 0.959 . S
H580 C594 0.929 . S
H581 C595 0.931 . S
H582 C597 0.930 . S
C583 H571 0.930 . S
C583 C584 1.399 . S
C583 C588 1.399 . S
C584 C583 1.399 . S
C584 C585 1.376 . S
C585 H572 0.930 . S
C585 C584 1.376 . S
C585 C586 1.388 . S
C586 H573 0.930 . S
C586 C585 1.388 . S
C586 C587 1.390 . S
C587 C586 1.390 . S
C587 C588 1.394 . S
C587 C593 1.465 . S
C588 C583 1.399 . S
C588 C587 1.394 . S
C588 C589 1.516 . S
C589 C588 1.516 . S
C589 C590 1.502 . S
C589 C591 1.561 . S
C589 C592 1.526 . S
C590 H574 0.959 . S
C590 H575 0.959 . S
C590 H576 0.961 . S
C590 C589 1.502 . S
C591 H577 0.960 . S
C591 H578 0.961 . S
C591 H579 0.959 . S
C591 C589 1.561 . S
C592 C589 1.526 . S
C592 C593 1.396 . S
C592 C597 1.390 . S
C593 C587 1.465 . S
C593 C592 1.396 . S
C593 C594 1.399 . S
C594 H580 0.929 . S
C594 C593 1.399 . S
C594 C595 1.385 . S
C595 H581 0.931 . S
C595 C594 1.385 . S
C595 C596 1.389 . S
C596 C595 1.389 . S
C596 C597 1.387 . S
C597 H582 0.930 . S
C597 C592 1.390 . S
C597 C596 1.387 . S
H598 C610 0.930 . S
H599 C612 0.930 . S
H600 C613 0.930 . S
H601 C617 0.959 . S
H602 C617 0.959 . S
H603 C617 0.961 . S
H604 C618 0.960 . S
H605 C618 0.961 . S
H606 C618 0.959 . S
H607 C621 0.929 . S
H608 C622 0.931 . S
H609 C624 0.930 . S
C610 H598 0.930 . S
C610 C611 1.399 . S
C610 C615 1.399 . S
C611 C610 1.399 . S
C611 C612 1.376 . S
C612 H599 0.930 . S
C612 C611 1.376 . S
C612 C613 1.388 . S
C613 H600 0.930 . S
C613 C612 1.388 . S
C613 C614 1.390 . S
C614 C613 1.390 . S
C614 C615 1.394 . S
C614 C620 1.465 . S
C615 C610 1.399 . S
C615 C614 1.394 . S
C615 C616 1.516 . S
C616 C615 1.516 . S
C616 C617 1.502 . S
C616 C618 1.561 . S
C616 C619 1.526 . S
C617 H601 0.959 . S
C617 H602 0.959 . S
C617 H603 0.961 . S
C617 C616 1.502 . S
C618 H604 0.960 . S
C618 H605 0.961 . S
C618 H606 0.959 . S
C618 C616 1.561 . S
C619 C616 1.526 . S
C619 C620 1.396 . S
C619 C624 1.390 . S
C620 C614 1.465 . S
C620 C619 1.396 . S
C620 C621 1.399 . S
C621 H607 0.929 . S
C621 C620 1.399 . S
C621 C622 1.385 . S
C622 H608 0.931 . S
C622 C621 1.385 . S
C622 C623 1.389 . S
C623 C622 1.389 . S
C623 C624 1.387 . S
C624 H609 0.930 . S
C624 C619 1.390 . S
C624 C623 1.387 . S
H625 C637 0.930 . S
H626 C639 0.930 . S
H627 C640 0.930 . S
H628 C644 0.959 . S
H629 C644 0.959 . S
H630 C644 0.961 . S
H631 C645 0.960 . S
H632 C645 0.961 . S
H633 C645 0.959 . S
H634 C648 0.929 . S
H635 C649 0.931 . S
H636 C651 0.930 . S
C637 H625 0.930 . S
C637 C638 1.399 . S
C637 C642 1.399 . S
C638 C637 1.399 . S
C638 C639 1.376 . S
C639 H626 0.930 . S
C639 C638 1.376 . S
C639 C640 1.388 . S
C640 H627 0.930 . S
C640 C639 1.388 . S
C640 C641 1.390 . S
C641 C640 1.390 . S
C641 C642 1.394 . S
C641 C647 1.465 . S
C642 C637 1.399 . S
C642 C641 1.394 . S
C642 C643 1.516 . S
C643 C642 1.516 . S
C643 C644 1.502 . S
C643 C645 1.561 . S
C643 C646 1.526 . S
C644 H628 0.959 . S
C644 H629 0.959 . S
C644 H630 0.961 . S
C644 C643 1.502 . S
C645 H631 0.960 . S
C645 H632 0.961 . S
C645 H633 0.959 . S
C645 C643 1.561 . S
C646 C643 1.526 . S
C646 C647 1.396 . S
C646 C651 1.390 . S
C647 C641 1.465 . S
C647 C646 1.396 . S
C647 C648 1.399 . S
C648 H634 0.929 . S
C648 C647 1.399 . S
C648 C649 1.385 . S
C649 H635 0.931 . S
C649 C648 1.385 . S
C649 C650 1.389 . S
C650 C649 1.389 . S
C650 C651 1.387 . S
C651 H636 0.930 . S
C651 C646 1.390 . S
C651 C650 1.387 . S
H652 C664 0.930 . S
H653 C666 0.930 . S
H654 C667 0.930 . S
H655 C671 0.959 . S
H656 C671 0.959 . S
H657 C671 0.961 . S
H658 C672 0.960 . S
H659 C672 0.961 . S
H660 C672 0.959 . S
H661 C675 0.929 . S
H662 C676 0.931 . S
H663 C678 0.930 . S
C664 H652 0.930 . S
C664 C665 1.399 . S
C664 C669 1.399 . S
C665 C664 1.399 . S
C665 C666 1.376 . S
C666 H653 0.930 . S
C666 C665 1.376 . S
C666 C667 1.388 . S
C667 H654 0.930 . S
C667 C666 1.388 . S
C667 C668 1.390 . S
C668 C667 1.390 . S
C668 C669 1.394 . S
C668 C674 1.465 . S
C669 C664 1.399 . S
C669 C668 1.394 . S
C669 C670 1.516 . S
C670 C669 1.516 . S
C670 C671 1.502 . S
C670 C672 1.561 . S
C670 C673 1.526 . S
C671 H655 0.959 . S
C671 H656 0.959 . S
C671 H657 0.961 . S
C671 C670 1.502 . S
C672 H658 0.960 . S
C672 H659 0.961 . S
C672 H660 0.959 . S
C672 C670 1.561 . S
C673 C670 1.526 . S
C673 C674 1.396 . S
C673 C678 1.390 . S
C674 C668 1.465 . S
C674 C673 1.396 . S
C674 C675 1.399 . S
C675 H661 0.929 . S
C675 C674 1.399 . S
C675 C676 1.385 . S
C676 H662 0.931 . S
C676 C675 1.385 . S
C676 C677 1.389 . S
C677 C676 1.389 . S
C677 C678 1.387 . S
C678 H663 0.930 . S
C678 C673 1.390 . S
C678 C677 1.387 . S
H679 C691 0.930 . S
H680 C693 0.930 . S
H681 C694 0.930 . S
H682 C698 0.959 . S
H683 C698 0.959 . S
H684 C698 0.961 . S
H685 C699 0.960 . S
H686 C699 0.961 . S
H687 C699 0.959 . S
H688 C702 0.929 . S
H689 C703 0.931 . S
H690 C705 0.930 . S
C691 H679 0.930 . S
C691 C692 1.399 . S
C691 C696 1.399 . S
C692 C691 1.399 . S
C692 C693 1.376 . S
C693 H680 0.930 . S
C693 C692 1.376 . S
C693 C694 1.388 . S
C694 H681 0.930 . S
C694 C693 1.388 . S
C694 C695 1.390 . S
C695 C694 1.390 . S
C695 C696 1.394 . S
C695 C701 1.465 . S
C696 C691 1.399 . S
C696 C695 1.394 . S
C696 C697 1.516 . S
C697 C696 1.516 . S
C697 C698 1.502 . S
C697 C699 1.561 . S
C697 C700 1.526 . S
C698 H682 0.959 . S
C698 H683 0.959 . S
C698 H684 0.961 . S
C698 C697 1.502 . S
C699 H685 0.960 . S
C699 H686 0.961 . S
C699 H687 0.959 . S
C699 C697 1.561 . S
C700 C697 1.526 . S
C700 C701 1.396 . S
C700 C705 1.390 . S
C701 C695 1.465 . S
C701 C700 1.396 . S
C701 C702 1.399 . S
C702 H688 0.929 . S
C702 C701 1.399 . S
C702 C703 1.385 . S
C703 H689 0.931 . S
C703 C702 1.385 . S
C703 C704 1.389 . S
C704 C703 1.389 . S
C704 C705 1.387 . S
C705 H690 0.930 . S
C705 C700 1.390 . S
C705 C704 1.387 . S
H706 C718 0.930 . S
H707 C720 0.930 . S
H708 C721 0.930 . S
H709 C725 0.959 . S
H710 C725 0.959 . S
H711 C725 0.961 . S
H712 C726 0.960 . S
H713 C726 0.961 . S
H714 C726 0.959 . S
H715 C729 0.929 . S
H716 C730 0.931 . S
H717 C732 0.930 . S
C718 H706 0.930 . S
C718 C719 1.399 . S
C718 C723 1.399 . S
C719 C718 1.399 . S
C719 C720 1.376 . S
C720 H707 0.930 . S
C720 C719 1.376 . S
C720 C721 1.388 . S
C721 H708 0.930 . S
C721 C720 1.388 . S
C721 C722 1.390 . S
C722 C721 1.390 . S
C722 C723 1.394 . S
C722 C728 1.465 . S
C723 C718 1.399 . S
C723 C722 1.394 . S
C723 C724 1.516 . S
C724 C723 1.516 . S
C724 C725 1.502 . S
C724 C726 1.561 . S
C724 C727 1.526 . S
C725 H709 0.959 . S
C725 H710 0.959 . S
C725 H711 0.961 . S
C725 C724 1.502 . S
C726 H712 0.960 . S
C726 H713 0.961 . S
C726 H714 0.959 . S
C726 C724 1.561 . S
C727 C724 1.526 . S
C727 C728 1.396 . S
C727 C732 1.390 . S
C728 C722 1.465 . S
C728 C727 1.396 . S
C728 C729 1.399 . S
C729 H715 0.929 . S
C729 C728 1.399 . S
C729 C730 1.385 . S
C730 H716 0.931 . S
C730 C729 1.385 . S
C730 C731 1.389 . S
C731 C730 1.389 . S
C731 C732 1.387 . S
C732 H717 0.930 . S
C732 C727 1.390 . S
C732 C731 1.387 . S
H733 C745 0.930 . S
H734 C747 0.930 . S
H735 C748 0.930 . S
H736 C752 0.959 . S
H737 C752 0.959 . S
H738 C752 0.961 . S
H739 C753 0.960 . S
H740 C753 0.961 . S
H741 C753 0.959 . S
H742 C756 0.929 . S
H743 C757 0.931 . S
H744 C759 0.930 . S
C745 H733 0.930 . S
C745 C746 1.399 . S
C745 C750 1.399 . S
C746 C745 1.399 . S
C746 C747 1.376 . S
C747 H734 0.930 . S
C747 C746 1.376 . S
C747 C748 1.388 . S
C748 H735 0.930 . S
C748 C747 1.388 . S
C748 C749 1.390 . S
C749 C748 1.390 . S
C749 C750 1.394 . S
C749 C755 1.465 . S
C750 C745 1.399 . S
C750 C749 1.394 . S
C750 C751 1.516 . S
C751 C750 1.516 . S
C751 C752 1.502 . S
C751 C753 1.561 . S
C751 C754 1.526 . S
C752 H736 0.959 . S
C752 H737 0.959 . S
C752 H738 0.961 . S
C752 C751 1.502 . S
C753 H739 0.960 . S
C753 H740 0.961 . S
C753 H741 0.959 . S
C753 C751 1.561 . S
C754 C751 1.526 . S
C754 C755 1.396 . S
C754 C759 1.390 . S
C755 C749 1.465 . S
C755 C754 1.396 . S
C755 C756 1.399 . S
C756 H742 0.929 . S
C756 C755 1.399 . S
C756 C757 1.385 . S
C757 H743 0.931 . S
C757 C756 1.385 . S
C757 C758 1.389 . S
C758 C757 1.389 . S
C758 C759 1.387 . S
C759 H744 0.930 . S
C759 C754 1.390 . S
C759 C758 1.387 . S
H760 C772 0.930 . S
H761 C774 0.930 . S
H762 C775 0.930 . S
H763 C779 0.959 . S
H764 C779 0.959 . S
H765 C779 0.961 . S
H766 C780 0.960 . S
H767 C780 0.961 . S
H768 C780 0.959 . S
H769 C783 0.929 . S
H770 C784 0.931 . S
H771 C786 0.930 . S
C772 H760 0.930 . S
C772 C773 1.399 . S
C772 C777 1.399 . S
C773 C772 1.399 . S
C773 C774 1.376 . S
C774 H761 0.930 . S
C774 C773 1.376 . S
C774 C775 1.388 . S
C775 H762 0.930 . S
C775 C774 1.388 . S
C775 C776 1.390 . S
C776 C775 1.390 . S
C776 C777 1.394 . S
C776 C782 1.465 . S
C777 C772 1.399 . S
C777 C776 1.394 . S
C777 C778 1.516 . S
C778 C777 1.516 . S
C778 C779 1.502 . S
C778 C780 1.561 . S
C778 C781 1.526 . S
C779 H763 0.959 . S
C779 H764 0.959 . S
C779 H765 0.961 . S
C779 C778 1.502 . S
C780 H766 0.960 . S
C780 H767 0.961 . S
C780 H768 0.959 . S
C780 C778 1.561 . S
C781 C778 1.526 . S
C781 C782 1.396 . S
C781 C786 1.390 . S
C782 C776 1.465 . S
C782 C781 1.396 . S
C782 C783 1.399 . S
C783 H769 0.929 . S
C783 C782 1.399 . S
C783 C784 1.385 . S
C784 H770 0.931 . S
C784 C783 1.385 . S
C784 C785 1.389 . S
C785 C784 1.389 . S
C785 C786 1.387 . S
C786 H771 0.930 . S
C786 C781 1.390 . S
C786 C785 1.387 . S
H787 C799 0.930 . S
H788 C801 0.930 . S
H789 C802 0.930 . S
H790 C806 0.959 . S
H791 C806 0.959 . S
H792 C806 0.961 . S
H793 C807 0.960 . S
H794 C807 0.961 . S
H795 C807 0.959 . S
H796 C810 0.929 . S
H797 C811 0.931 . S
H798 C813 0.930 . S
C799 H787 0.930 . S
C799 C800 1.399 . S
C799 C804 1.399 . S
C800 C799 1.399 . S
C800 C801 1.376 . S
C801 H788 0.930 . S
C801 C800 1.376 . S
C801 C802 1.388 . S
C802 H789 0.930 . S
C802 C801 1.388 . S
C802 C803 1.390 . S
C803 C802 1.390 . S
C803 C804 1.394 . S
C803 C809 1.465 . S
C804 C799 1.399 . S
C804 C803 1.394 . S
C804 C805 1.516 . S
C805 C804 1.516 . S
C805 C806 1.502 . S
C805 C807 1.561 . S
C805 C808 1.526 . S
C806 H790 0.959 . S
C806 H791 0.959 . S
C806 H792 0.961 . S
C806 C805 1.502 . S
C807 H793 0.960 . S
C807 H794 0.961 . S
C807 H795 0.959 . S
C807 C805 1.561 . S
C808 C805 1.526 . S
C808 C809 1.396 . S
C808 C813 1.390 . S
C809 C803 1.465 . S
C809 C808 1.396 . S
C809 C810 1.399 . S
C810 H796 0.929 . S
C810 C809 1.399 . S
C810 C811 1.385 . S
C811 H797 0.931 . S
C811 C810 1.385 . S
C811 C812 1.389 . S
C812 C811 1.389 . S
C812 C813 1.387 . S
C813 H798 0.930 . S
C813 C808 1.390 . S
C813 C812 1.387 . S
H814 C826 0.930 . S
H815 C828 0.930 . S
H816 C829 0.930 . S
H817 C833 0.959 . S
H818 C833 0.959 . S
H819 C833 0.961 . S
H820 C834 0.960 . S
H821 C834 0.961 . S
H822 C834 0.959 . S
H823 C837 0.929 . S
H824 C838 0.931 . S
H825 C840 0.930 . S
C826 H814 0.930 . S
C826 C827 1.399 . S
C826 C831 1.399 . S
C827 C826 1.399 . S
C827 C828 1.376 . S
C828 H815 0.930 . S
C828 C827 1.376 . S
C828 C829 1.388 . S
C829 H816 0.930 . S
C829 C828 1.388 . S
C829 C830 1.390 . S
C830 C829 1.390 . S
C830 C831 1.394 . S
C830 C836 1.465 . S
C831 C826 1.399 . S
C831 C830 1.394 . S
C831 C832 1.516 . S
C832 C831 1.516 . S
C832 C833 1.502 . S
C832 C834 1.561 . S
C832 C835 1.526 . S
C833 H817 0.959 . S
C833 H818 0.959 . S
C833 H819 0.961 . S
C833 C832 1.502 . S
C834 H820 0.960 . S
C834 H821 0.961 . S
C834 H822 0.959 . S
C834 C832 1.561 . S
C835 C832 1.526 . S
C835 C836 1.396 . S
C835 C840 1.390 . S
C836 C830 1.465 . S
C836 C835 1.396 . S
C836 C837 1.399 . S
C837 H823 0.929 . S
C837 C836 1.399 . S
C837 C838 1.385 . S
C838 H824 0.931 . S
C838 C837 1.385 . S
C838 C839 1.389 . S
C839 C838 1.389 . S
C839 C840 1.387 . S
C840 H825 0.930 . S
C840 C835 1.390 . S
C840 C839 1.387 . S
H841 C853 0.930 . S
H842 C855 0.930 . S
H843 C856 0.930 . S
H844 C860 0.959 . S
H845 C860 0.959 . S
H846 C860 0.961 . S
H847 C861 0.960 . S
H848 C861 0.961 . S
H849 C861 0.959 . S
H850 C864 0.929 . S
H851 C865 0.931 . S
H852 C867 0.930 . S
C853 H841 0.930 . S
C853 C854 1.399 . S
C853 C858 1.399 . S
C854 C853 1.399 . S
C854 C855 1.376 . S
C855 H842 0.930 . S
C855 C854 1.376 . S
C855 C856 1.388 . S
C856 H843 0.930 . S
C856 C855 1.388 . S
C856 C857 1.390 . S
C857 C856 1.390 . S
C857 C858 1.394 . S
C857 C863 1.465 . S
C858 C853 1.399 . S
C858 C857 1.394 . S
C858 C859 1.516 . S
C859 C858 1.516 . S
C859 C860 1.502 . S
C859 C861 1.561 . S
C859 C862 1.526 . S
C860 H844 0.959 . S
C860 H845 0.959 . S
C860 H846 0.961 . S
C860 C859 1.502 . S
C861 H847 0.960 . S
C861 H848 0.961 . S
C861 H849 0.959 . S
C861 C859 1.561 . S
C862 C859 1.526 . S
C862 C863 1.396 . S
C862 C867 1.390 . S
C863 C857 1.465 . S
C863 C862 1.396 . S
C863 C864 1.399 . S
C864 H850 0.929 . S
C864 C863 1.399 . S
C864 C865 1.385 . S
C865 H851 0.931 . S
C865 C864 1.385 . S
C865 C866 1.389 . S
C866 C865 1.389 . S
C866 C867 1.387 . S
C867 H852 0.930 . S
C867 C862 1.390 . S
C867 C866 1.387 . S
H868 C880 0.930 . S
H869 C882 0.930 . S
H870 C883 0.930 . S
H871 C887 0.959 . S
H872 C887 0.959 . S
H873 C887 0.961 . S
H874 C888 0.960 . S
H875 C888 0.961 . S
H876 C888 0.959 . S
H877 C891 0.929 . S
H878 C892 0.931 . S
H879 C894 0.930 . S
C880 H868 0.930 . S
C880 C881 1.399 . S
C880 C885 1.399 . S
C881 C880 1.399 . S
C881 C882 1.376 . S
C882 H869 0.930 . S
C882 C881 1.376 . S
C882 C883 1.388 . S
C883 H870 0.930 . S
C883 C882 1.388 . S
C883 C884 1.390 . S
C884 C883 1.390 . S
C884 C885 1.394 . S
C884 C890 1.465 . S
C885 C880 1.399 . S
C885 C884 1.394 . S
C885 C886 1.516 . S
C886 C885 1.516 . S
C886 C887 1.502 . S
C886 C888 1.561 . S
C886 C889 1.526 . S
C887 H871 0.959 . S
C887 H872 0.959 . S
C887 H873 0.961 . S
C887 C886 1.502 . S
C888 H874 0.960 . S
C888 H875 0.961 . S
C888 H876 0.959 . S
C888 C886 1.561 . S
C889 C886 1.526 . S
C889 C890 1.396 . S
C889 C894 1.390 . S
C890 C884 1.465 . S
C890 C889 1.396 . S
C890 C891 1.399 . S
C891 H877 0.929 . S
C891 C890 1.399 . S
C891 C892 1.385 . S
C892 H878 0.931 . S
C892 C891 1.385 . S
C892 C893 1.389 . S
C893 C892 1.389 . S
C893 C894 1.387 . S
C894 H879 0.930 . S
C894 C889 1.390 . S
C894 C893 1.387 . S
H895 C907 0.930 . S
H896 C909 0.930 . S
H897 C910 0.930 . S
H898 C914 0.959 . S
H899 C914 0.959 . S
H900 C914 0.961 . S
H901 C915 0.960 . S
H902 C915 0.961 . S
H903 C915 0.959 . S
H904 C918 0.929 . S
H905 C919 0.931 . S
H906 C921 0.930 . S
C907 H895 0.930 . S
C907 C908 1.399 . S
C907 C912 1.399 . S
C908 C907 1.399 . S
C908 C909 1.376 . S
C909 H896 0.930 . S
C909 C908 1.376 . S
C909 C910 1.388 . S
C910 H897 0.930 . S
C910 C909 1.388 . S
C910 C911 1.390 . S
C911 C910 1.390 . S
C911 C912 1.394 . S
C911 C917 1.465 . S
C912 C907 1.399 . S
C912 C911 1.394 . S
C912 C913 1.516 . S
C913 C912 1.516 . S
C913 C914 1.502 . S
C913 C915 1.561 . S
C913 C916 1.526 . S
C914 H898 0.959 . S
C914 H899 0.959 . S
C914 H900 0.961 . S
C914 C913 1.502 . S
C915 H901 0.960 . S
C915 H902 0.961 . S
C915 H903 0.959 . S
C915 C913 1.561 . S
C916 C913 1.526 . S
C916 C917 1.396 . S
C916 C921 1.390 . S
C917 C911 1.465 . S
C917 C916 1.396 . S
C917 C918 1.399 . S
C918 H904 0.929 . S
C918 C917 1.399 . S
C918 C919 1.385 . S
C919 H905 0.931 . S
C919 C918 1.385 . S
C919 C920 1.389 . S
C920 C919 1.389 . S
C920 C921 1.387 . S
C921 H906 0.930 . S
C921 C916 1.390 . S
C921 C920 1.387 . S
H922 C934 0.930 . S
H923 C936 0.930 . S
H924 C937 0.930 . S
H925 C941 0.959 . S
H926 C941 0.959 . S
H927 C941 0.961 . S
H928 C942 0.960 . S
H929 C942 0.961 . S
H930 C942 0.959 . S
H931 C945 0.929 . S
H932 C946 0.931 . S
H933 C948 0.930 . S
C934 H922 0.930 . S
C934 C935 1.399 . S
C934 C939 1.399 . S
C935 C934 1.399 . S
C935 C936 1.376 . S
C936 H923 0.930 . S
C936 C935 1.376 . S
C936 C937 1.388 . S
C937 H924 0.930 . S
C937 C936 1.388 . S
C937 C938 1.390 . S
C938 C937 1.390 . S
C938 C939 1.394 . S
C938 C944 1.465 . S
C939 C934 1.399 . S
C939 C938 1.394 . S
C939 C940 1.516 . S
C940 C939 1.516 . S
C940 C941 1.502 . S
C940 C942 1.561 . S
C940 C943 1.526 . S
C941 H925 0.959 . S
C941 H926 0.959 . S
C941 H927 0.961 . S
C941 C940 1.502 . S
C942 H928 0.960 . S
C942 H929 0.961 . S
C942 H930 0.959 . S
C942 C940 1.561 . S
C943 C940 1.526 . S
C943 C944 1.396 . S
C943 C948 1.390 . S
C944 C938 1.465 . S
C944 C943 1.396 . S
C944 C945 1.399 . S
C945 H931 0.929 . S
C945 C944 1.399 . S
C945 C946 1.385 . S
C946 H932 0.931 . S
C946 C945 1.385 . S
C946 C947 1.389 . S
C947 C946 1.389 . S
C947 C948 1.387 . S
C948 H933 0.930 . S
C948 C943 1.390 . S
C948 C947 1.387 . S
H949 C961 0.930 . S
H950 C963 0.930 . S
H951 C964 0.930 . S
H952 C968 0.959 . S
H953 C968 0.959 . S
H954 C968 0.961 . S
H955 C969 0.960 . S
H956 C969 0.961 . S
H957 C969 0.959 . S
H958 C972 0.929 . S
H959 C973 0.931 . S
H960 C975 0.930 . S
C961 H949 0.930 . S
C961 C962 1.399 . S
C961 C966 1.399 . S
C962 C961 1.399 . S
C962 C963 1.376 . S
C963 H950 0.930 . S
C963 C962 1.376 . S
C963 C964 1.388 . S
C964 H951 0.930 . S
C964 C963 1.388 . S
C964 C965 1.390 . S
C965 C964 1.390 . S
C965 C966 1.394 . S
C965 C971 1.465 . S
C966 C961 1.399 . S
C966 C965 1.394 . S
C966 C967 1.516 . S
C967 C966 1.516 . S
C967 C968 1.502 . S
C967 C969 1.561 . S
C967 C970 1.526 . S
C968 H952 0.959 . S
C968 H953 0.959 . S
C968 H954 0.961 . S
C968 C967 1.502 . S
C969 H955 0.960 . S
C969 H956 0.961 . S
C969 H957 0.959 . S
C969 C967 1.561 . S
C970 C967 1.526 . S
C970 C971 1.396 . S
C970 C975 1.390 . S
C971 C965 1.465 . S
C971 C970 1.396 . S
C971 C972 1.399 . S
C972 H958 0.929 . S
C972 C971 1.399 . S
C972 C973 1.385 . S
C973 H959 0.931 . S
C973 C972 1.385 . S
C973 C974 1.389 . S
C974 C973 1.389 . S
C974 C975 1.387 . S
C975 H960 0.930 . S
C975 C970 1.390 . S
C975 C974 1.387 . S
H976 C988 0.930 . S
H977 C990 0.930 . S
H978 C991 0.930 . S
H979 C995 0.959 . S
H980 C995 0.959 . S
H981 C995 0.961 . S
H982 C996 0.960 . S
H983 C996 0.961 . S
H984 C996 0.959 . S
H985 C999 0.929 . S
H986 C1000 0.931 . S
H987 C1002 0.930 . S
C988 H976 0.930 . S
C988 C989 1.399 . S
C988 C993 1.399 . S
C989 C988 1.399 . S
C989 C990 1.376 . S
C990 H977 0.930 . S
C990 C989 1.376 . S
C990 C991 1.388 . S
C991 H978 0.930 . S
C991 C990 1.388 . S
C991 C992 1.390 . S
C992 C991 1.390 . S
C992 C993 1.394 . S
C992 C998 1.465 . S
C993 C988 1.399 . S
C993 C992 1.394 . S
C993 C994 1.516 . S
C994 C993 1.516 . S
C994 C995 1.502 . S
C994 C996 1.561 . S
C994 C997 1.526 . S
C995 H979 0.959 . S
C995 H980 0.959 . S
C995 H981 0.961 . S
C995 C994 1.502 . S
C996 H982 0.960 . S
C996 H983 0.961 . S
C996 H984 0.959 . S
C996 C994 1.561 . S
C997 C994 1.526 . S
C997 C998 1.396 . S
C997 C1002 1.390 . S
C998 C992 1.465 . S
C998 C997 1.396 . S
C998 C999 1.399 . S
C999 H985 0.929 . S
C999 C998 1.399 . S
C999 C1000 1.385 . S
C1000 H986 0.931 . S
C1000 C999 1.385 . S
C1000 C1001 1.389 . S
C1001 C1000 1.389 . S
C1001 C1002 1.387 . S
C1002 H987 0.930 . S
C1002 C997 1.390 . S
C1002 C1001 1.387 . S
C380 C280 1.027 . S
C368 C17 1.123 . S
C407 C316 1.635 . S
C395 C55 1.716 . S
C434 C281 1.372 . S
C422 C87 1.363 . S
C461 C311 1.520 . S
C449 C113 1.539 . S
C488 C278 1.427 . S
C476 C145 1.369 . S
C503 C183 1.539 . S
C515 C314 1.613 . S
C530 C215 1.182 . S
C542 C283 1.133 . S
C569 C313 1.426 . S
C557 C247 1.435 . S
C596 C317 1.318 . S
C584 C23 1.367 . S
C623 C282 1.470 . S
C611 C49 1.560 . S
C650 C310 1.684 . S
C638 C81 1.686 . S
C677 C279 1.195 . S
C665 C125 1.247 . S
C704 C312 1.572 . S
C692 C151 1.551 . S
C719 C189 1.376 . S
C731 C277 1.387 . S
C746 C209 1.573 . S
C758 C315 1.544 . S
C785 C284 1.052 . S
C773 C241 1.154 . S
C812 C346 1.710 . S
C800 C29 1.722 . S
C827 C157 1.916 . S
C839 C349 1.919 . S
C866 C348 1.605 . S
C854 C177 1.543 . S
C881 C221 2.090 . S
C893 C347 2.069 . S
C920 C350 1.683 . S
C908 C253 1.750 . S
C935 C93 1.777 . S
C947 C344 1.669 . S
C974 C343 1.954 . S
C962 C119 1.979 . S
C989 C61 2.048 . S
C1001 C345 1.901 . S
