# Generated by pormake.
# Topology nom, (4,4)-cn, num edge types: 1
# Building blocks:
#     Node 0, Type 0, BuildingBlock: NAWXER_clean_linker_0, # of connection points: 4
#     Node 1, Type 0, BuildingBlock: NAWXER_clean_linker_0, # of connection points: 4
#     Node 2, Type 0, BuildingBlock: NAWXER_clean_linker_0, # of connection points: 4
#     Node 3, Type 0, BuildingBlock: NAWXER_clean_linker_0, # of connection points: 4
#     Node 4, Type 0, BuildingBlock: NAWXER_clean_linker_0, # of connection points: 4
#     Node 5, Type 0, BuildingBlock: NAWXER_clean_linker_0, # of connection points: 4
#     Node 6, Type 1, BuildingBlock: AZAVOO_clean_sbu_0, # of connection points: 4
#     Node 7, Type 1, BuildingBlock: AZAVOO_clean_sbu_0, # of connection points: 4
#     Node 8, Type 1, BuildingBlock: AZAVOO_clean_sbu_0, # of connection points: 4
#     Node 9, Type 1, BuildingBlock: AZAVOO_clean_sbu_0, # of connection points: 4
#     Node 10, Type 1, BuildingBlock: AZAVOO_clean_sbu_0, # of connection points: 4
#     Node 11, Type 1, BuildingBlock: AZAVOO_clean_sbu_0, # of connection points: 4
#     Edge 12, Type (0, 1), None
#     Edge 13, Type (0, 1), None
#     Edge 14, Type (0, 1), None
#     Edge 15, Type (0, 1), None
#     Edge 16, Type (0, 1), None
#     Edge 17, Type (0, 1), None
#     Edge 18, Type (0, 1), None
#     Edge 19, Type (0, 1), None
#     Edge 20, Type (0, 1), None
#     Edge 21, Type (0, 1), None
#     Edge 22, Type (0, 1), None
#     Edge 23, Type (0, 1), None
#     Edge 24, Type (0, 1), None
#     Edge 25, Type (0, 1), None
#     Edge 26, Type (0, 1), None
#     Edge 27, Type (0, 1), None
#     Edge 28, Type (0, 1), None
#     Edge 29, Type (0, 1), None
#     Edge 30, Type (0, 1), None
#     Edge 31, Type (0, 1), None
#     Edge 32, Type (0, 1), None
#     Edge 33, Type (0, 1), None
#     Edge 34, Type (0, 1), None
#     Edge 35, Type (0, 1), None
# Relax obj value: 0.045
# Max RMSD: 0.161
# Mean RMSD: 0.133
data_MOF--net-nom--node1-AZAVOO_clean_sbu_0--node2-NAWXER_clean_linker_0--edge1-none
_symmetry_space_group_name_H-M    P1
_symmetry_Int_Tables_number       1
_symmetry_cell_setting            triclinic
loop_
_symmetry_equiv_pos_as_xyz
'x, y, z'
_cell_length_a     29.054643
_cell_length_b     29.319395
_cell_length_c     29.129484
_cell_angle_alpha  92.477326
_cell_angle_beta   92.041147
_cell_angle_gamma 120.05282
loop_
_atom_site_label
_atom_site_type_symbol
_atom_site_fract_x
_atom_site_fract_y
_atom_site_fract_z
_atom_type_partial_charge
C0 C 0.81184 0.46657 0.40522 0.0
C1 C 0.76868 0.4189 0.38601 0.0
C2 C 0.86385 0.47761 0.40035 0.0
C3 C 0.87354 0.44172 0.37529 0.0
C4 C 0.77824 0.38086 0.36445 0.0
C5 C 0.83056 0.3924 0.3588 0.0
C6 C 0.92851 0.45934 0.36348 0.0
C7 C 0.87918 0.39233 0.20308 0.0
C8 C 0.84262 0.40909 0.19213 0.0
C9 C 0.91044 0.40987 0.24449 0.0
C10 C 0.90568 0.44406 0.27652 0.0
C11 C 0.83698 0.44262 0.22474 0.0
C12 C 0.86839 0.46009 0.26656 0.0
C13 C 0.94372 0.46584 0.31768 0.0
C14 C 0.18441 0.57834 0.33339 0.0
C15 C 0.1931 0.62075 0.30699 0.0
C16 C 0.13317 0.54302 0.34651 0.0
C17 C 0.0902 0.55006 0.33372 0.0
C18 C 0.14984 0.62751 0.29461 0.0
C19 C 0.09904 0.59248 0.30768 0.0
C20 C 0.03521 0.51352 0.3455 0.0
C21 C 0.13311 0.58328 0.4823 0.0
C22 C 0.12766 0.54376 0.51118 0.0
C23 C 0.09859 0.57052 0.44293 0.0
C24 C 0.05845 0.51795 0.43145 0.0
C25 C 0.08734 0.49124 0.49936 0.0
C26 C 0.05308 0.47862 0.46013 0.0
C27 C 0.02005 0.50298 0.39106 0.0
H28 H 0.80538 0.49643 0.422 0.0
H29 H 0.89657 0.51578 0.41352 0.0
H30 H 0.7455 0.34398 0.34903 0.0
H31 H 0.83743 0.36403 0.33977 0.0
H32 H 0.88478 0.36649 0.17913 0.0
H33 H 0.93914 0.39726 0.25127 0.0
H34 H 0.80941 0.45647 0.21749 0.0
H35 H 0.86469 0.48728 0.2904 0.0
H36 H 0.21691 0.57192 0.34324 0.0
H37 H 0.12702 0.51003 0.36604 0.0
H38 H 0.15498 0.65969 0.27435 0.0
H39 H 0.06643 0.59863 0.29745 0.0
H40 H 0.16337 0.62418 0.49052 0.0
H41 H 0.10275 0.60179 0.42191 0.0
H42 H 0.0817 0.45971 0.52069 0.0
H43 H 0.02218 0.43787 0.45213 0.0
N44 N 0.96718 0.47722 0.39834 0.0
N45 N -0.00351 0.49348 0.31062 0.0
C46 C 0.36528 0.81187 0.53663 0.0
C47 C 0.38959 0.79577 0.56966 0.0
C48 C 0.39396 0.86134 0.51904 0.0
C49 C 0.44773 0.89552 0.53367 0.0
C50 C 0.44386 0.82929 0.58324 0.0
C51 C 0.47255 0.8789 0.56562 0.0
C52 C 0.47546 0.95078 0.52064 0.0
C53 C 0.46803 0.8692 0.38169 0.0
C54 C 0.42359 0.85979 0.35335 0.0
C55 C 0.48208 0.90119 0.42269 0.0
C56 C 0.45293 0.92563 0.4352 0.0
C57 C 0.39302 0.88235 0.36698 0.0
C58 C 0.40823 0.91589 0.40717 0.0
C59 C 0.47192 0.96445 0.47548 0.0
C60 C 0.59994 0.20216 0.48665 0.0
C61 C 0.5657 0.21044 0.45728 0.0
C62 C 0.58341 0.15209 0.50226 0.0
C63 C 0.5319 0.10983 0.48964 0.0
C64 C 0.51421 0.16814 0.44491 0.0
C65 C 0.49754 0.11845 0.46095 0.0
C66 C 0.51427 0.05543 0.50237 0.0
C67 C 0.55377 0.15141 0.64023 0.0
C68 C 0.59018 0.14679 0.67018 0.0
C69 C 0.53194 0.11846 0.59965 0.0
C70 C 0.54674 0.08082 0.58777 0.0
C71 C 0.60531 0.10948 0.65779 0.0
C72 C 0.58372 0.07686 0.61722 0.0
C73 C 0.52086 0.04206 0.54735 0.0
H74 H 0.3235 0.78711 0.52557 0.0
H75 H 0.37313 0.87382 0.49582 0.0
H76 H 0.46376 0.81805 0.60866 0.0
H77 H 0.51378 0.90486 0.57785 0.0
H78 H 0.49242 0.85256 0.37167 0.0
H79 H 0.51702 0.90866 0.44368 0.0
H80 H 0.35906 0.87629 0.34531 0.0
H81 H 0.38549 0.9347 0.41616 0.0
H82 H 0.64008 0.2339 0.49638 0.0
H83 H 0.61136 0.1462 0.52309 0.0
H84 H 0.48686 0.17324 0.42242 0.0
H85 H 0.45776 0.08641 0.45044 0.0
H86 H 0.54079 0.17933 0.64879 0.0
H87 H 0.50235 0.1214 0.57835 0.0
H88 H 0.63315 0.10468 0.67988 0.0
H89 H 0.59547 0.04786 0.60909 0.0
N90 N 0.5006 -0.00991 0.55463 0.0
N91 N 0.49068 0.01605 0.46817 0.0
C92 C 0.61722 0.48328 0.52139 0.0
C93 C 0.58082 0.44061 0.49117 0.0
C94 C 0.60019 0.49684 0.56132 0.0
C95 C 0.54624 0.46895 0.57079 0.0
C96 C 0.52734 0.41107 0.50192 0.0
C97 C 0.50996 0.42581 0.54102 0.0
C98 C 0.52715 0.48817 0.60913 0.0
C99 C 0.56837 0.38071 0.68144 0.0
C100 C 0.60745 0.40383 0.71813 0.0
C101 C 0.55121 0.41083 0.65853 0.0
C102 C 0.57312 0.46479 0.67158 0.0
C103 C 0.63138 0.45839 0.72959 0.0
C104 C 0.61401 0.48851 0.70672 0.0
C105 C 0.54624 0.49307 0.65531 0.0
C106 C 0.41128 0.55336 0.76207 0.0
C107 C 0.44863 0.59962 0.78837 0.0
C108 C 0.42723 0.53227 0.72631 0.0
C109 C 0.48085 0.55706 0.71587 0.0
C110 C 0.50264 0.62347 0.77883 0.0
C111 C 0.51865 0.60205 0.74308 0.0
C112 C 0.49762 0.53506 0.67755 0.0
C113 C 0.40148 0.60087 0.61838 0.0
C114 C 0.34942 0.55888 0.60685 0.0
C115 C 0.44354 0.59106 0.62469 0.0
C116 C 0.43419 0.53935 0.61866 0.0
C117 C 0.34093 0.50765 0.59818 0.0
C118 C 0.38322 0.4981 0.60347 0.0
C119 C 0.47586 0.52696 0.63177 0.0
H120 H 0.6586 0.50669 0.51365 0.0
H121 H 0.62863 0.53062 0.58368 0.0
H122 H 0.49848 0.37837 0.47882 0.0
H123 H 0.46812 0.40408 0.5477 0.0
H124 H 0.54927 0.33881 0.6717 0.0
H125 H 0.51823 0.39092 0.63279 0.0
H126 H 0.66177 0.47739 0.75761 0.0
H127 H 0.63091 0.52986 0.71781 0.0
H128 H 0.36933 0.53396 0.76832 0.0
H129 H 0.39757 0.49666 0.70662 0.0
H130 H 0.53237 0.65913 0.7984 0.0
H131 H 0.56038 0.62129 0.73598 0.0
H132 H 0.40909 0.64069 0.62565 0.0
H133 H 0.48283 0.62338 0.6361 0.0
H134 H 0.30121 0.47465 0.58926 0.0
H135 H 0.37548 0.45795 0.59852 0.0
N136 N 0.49183 0.50438 0.5991 0.0
N137 N 0.53156 0.51726 0.68769 0.0
C138 C 0.83351 0.35992 0.82056 0.0
C139 C 0.79294 0.36343 0.79614 0.0
C140 C 0.88164 0.40518 0.83417 0.0
C141 C 0.89074 0.45501 0.82335 0.0
C142 C 0.80293 0.41341 0.78364 0.0
C143 C 0.85189 0.45895 0.7968 0.0
C144 C 0.94301 0.50124 0.83766 0.0
C145 C 0.854 0.50201 0.96022 0.0
C146 C 0.85112 0.46487 0.99053 0.0
C147 C 0.88957 0.51724 0.92543 0.0
C148 C 0.92372 0.49667 0.92138 0.0
C149 C 0.88577 0.44473 0.98673 0.0
C150 C 0.92256 0.46128 0.95279 0.0
C151 C 0.96095 0.51295 0.88457 0.0
C152 C 0.20051 0.62527 0.87397 0.0
C153 C 0.20833 0.58357 0.88609 0.0
C154 C 0.14903 0.61761 0.86904 0.0
C155 C 0.10515 0.56859 0.87719 0.0
C156 C 0.16451 0.53563 0.89667 0.0
C157 C 0.11334 0.52847 0.89282 0.0
C158 C 0.05035 0.55529 0.86376 0.0
C159 C 0.13248 0.55547 0.73575 0.0
C160 C 0.14371 0.60045 0.71222 0.0
C161 C 0.09537 0.53841 0.76919 0.0
C162 C 0.06919 0.56623 0.77994 0.0
C163 C 0.11605 0.62727 0.72207 0.0
C164 C 0.07879 0.61006 0.75566 0.0
C165 C 0.03242 0.54986 0.81706 0.0
H166 H 0.82757 0.32236 0.8308 0.0
H167 H 0.91194 0.40128 0.85349 0.0
H168 H 0.7725 0.41752 0.76487 0.0
H169 H 0.85892 0.49712 0.78728 0.0
H170 H 0.82715 0.51751 0.96213 0.0
H171 H 0.89038 0.54496 0.90159 0.0
H172 H 0.88415 0.41601 1.00974 0.0
H173 H 0.94898 0.44534 0.95016 0.0
H174 H 0.23373 0.66254 0.86533 0.0
H175 H 0.14327 0.6489 0.85684 0.0
H176 H 0.1696 0.50304 0.90621 0.0
H177 H 0.07975 0.49027 0.89904 0.0
H178 H 0.15328 0.53409 0.72926 0.0
H179 H 0.08785 0.50409 0.78735 0.0
H180 H 0.1239 0.66203 0.70451 0.0
H181 H 0.05846 0.63166 0.7635 0.0
N182 N 0.97932 0.52145 0.80541 0.0
N183 N 0.01399 0.53773 0.89611 0.0
C184 C 0.42405 0.82871 0.97438 0.0
C185 C 0.3916 0.80922 0.93325 0.0
C186 C 0.43327 0.87568 0.99737 0.0
C187 C 0.4101 0.90404 0.97974 0.0
C188 C 0.36662 0.83641 0.91676 0.0
C189 C 0.37617 0.88356 0.93957 0.0
C190 C 0.42996 0.95932 0.99731 0.0
C191 C 0.34006 0.86869 0.11405 0.0
C192 C 0.37299 0.87022 0.15118 0.0
C193 C 0.36199 0.90298 0.07903 0.0
C194 C 0.41688 0.93959 0.08127 0.0
C195 C 0.42739 0.90822 0.15426 0.0
C196 C 0.44908 0.94314 0.11983 0.0
C197 C 0.4406 0.97592 0.04462 0.0
C198 C 0.57959 0.21266 0.04836 0.0
C199 C 0.62826 0.21814 0.06519 0.0
C200 C 0.53566 0.16257 0.03644 0.0
C201 C 0.53967 0.11748 0.04214 0.0
C202 C 0.6314 0.17277 0.07237 0.0
C203 C 0.58713 0.12277 0.06155 0.0
C204 C 0.49609 0.06454 0.02594 0.0
C205 C 0.57531 0.14691 0.90047 0.0
C206 C 0.54093 0.15585 0.8719 0.0
C207 C 0.5555 0.11219 0.93527 0.0
C208 C 0.501 0.08591 0.94234 0.0
C209 C 0.48605 0.12835 0.87825 0.0
C210 C 0.46618 0.09323 0.91306 0.0
C211 C 0.48002 0.04897 0.97891 0.0
H212 H 0.44367 0.80859 0.98809 0.0
H213 H 0.46115 0.89136 0.02736 0.0
H214 H 0.34111 0.82233 0.88528 0.0
H215 H 0.35861 0.90511 0.92485 0.0
H216 H 0.29808 0.83909 0.11079 0.0
H217 H 0.33626 0.90058 0.05006 0.0
H218 H 0.4534 0.91004 0.18272 0.0
H219 H 0.49137 0.9717 0.12252 0.0
H220 H 0.57636 0.24706 0.04182 0.0
H221 H 0.49918 0.15905 0.02166 0.0
H222 H 0.6685 0.176 0.08507 0.0
H223 H 0.59073 0.08819 0.06621 0.0
H224 H 0.61785 0.16757 0.8967 0.0
H225 H 0.5828 0.10594 0.95674 0.0
H226 H 0.45865 0.13447 0.85681 0.0
H227 H 0.42378 0.07248 0.91769 0.0
N228 N 0.44852 -0.00322 0.96621 0.0
N229 N 0.4748 0.02767 0.05718 0.0
C230 C 0.46216 0.66799 0.19098 0.0
C231 C 0.41666 0.65918 0.21349 0.0
C232 C 0.4672 0.62584 0.17398 0.0
C233 C 0.42728 0.57385 0.1794 0.0
C234 C 0.37724 0.60687 0.22024 0.0
C235 C 0.38293 0.56442 0.20379 0.0
C236 C 0.43682 0.53101 0.16453 0.0
C237 C 0.36256 0.52532 0.0184 0.0
C238 C 0.39947 0.569 0.99568 0.0
C239 C 0.37752 0.51303 0.06014 0.0
C240 C 0.4299 0.54348 0.07943 0.0
C241 C 0.4513 0.60101 0.01617 0.0
C242 C 0.46669 0.58773 0.05736 0.0
C243 C 0.4473 0.52414 0.11857 0.0
C244 C 0.53503 0.37872 0.11775 0.0
C245 C 0.5896 0.41371 0.11333 0.0
C246 C 0.50105 0.39817 0.12782 0.0
C247 C 0.52109 0.45275 0.13249 0.0
C248 C 0.60964 0.46836 0.11941 0.0
C249 C 0.57546 0.4877 0.12836 0.0
C250 C 0.48629 0.47424 0.14312 0.0
C251 C 0.5593 0.45799 0.27334 0.0
C252 C 0.52341 0.40898 0.28986 0.0
C253 C 0.54168 0.48135 0.24202 0.0
C254 C 0.488 0.45593 0.22618 0.0
C255 C 0.46899 0.38485 0.27566 0.0
C256 C 0.4514 0.40824 0.24388 0.0
C257 C 0.47165 0.4772 0.18819 0.0
H258 H 0.49353 0.70753 0.18516 0.0
H259 H 0.50287 0.63396 0.15702 0.0
H260 H 0.34168 0.59873 0.23738 0.0
H261 H 0.35256 0.5244 0.20951 0.0
H262 H 0.32232 0.5001 1.00342 0.0
H263 H 0.34882 0.47829 0.07634 0.0
H264 H 0.4806 0.63463 0.99917 0.0
H265 H 0.5076 0.6111 0.07131 0.0
H266 H 0.51864 0.33639 0.11324 0.0
H267 H 0.45917 0.37078 0.13141 0.0
H268 H 0.65138 0.4962 0.11578 0.0
H269 H 0.59149 0.53001 0.13235 0.0
H270 H 0.60147 0.47759 0.28314 0.0
H271 H 0.57036 0.51832 0.2287 0.0
H272 H 0.44042 0.34705 0.28769 0.0
H273 H 0.40974 0.38816 0.23178 0.0
N274 N 0.44855 0.50656 0.19775 0.0
N275 N 0.47267 0.4968 0.10955 0.0
Mg276 Mg 0.58648 0.34072 0.36527 0.0
O277 O 0.57976 0.38273 0.43103 0.0
O278 O 0.62525 0.46975 0.42303 0.0
Mg279 Mg 0.65608 0.48316 0.35103 0.0
C280 C 0.5972 0.43038 0.44643 0.0
C281 C 0.58419 0.26207 0.43776 0.0
O282 O 0.62809 0.30414 0.45495 0.0
O283 O 0.67407 0.36807 0.38257 0.0
O284 O 0.71335 0.45413 0.3707 0.0
O285 O 0.51263 0.33594 0.33352 0.0
O286 O 0.59429 0.40195 0.32714 0.0
C287 C 0.71559 0.41344 0.38122 0.0
C288 C 0.54389 0.38163 0.31825 0.0
O289 O 0.55893 0.26537 0.40266 0.0
Mg290 Mg 0.26024 0.64914 0.62614 0.0
O291 O 0.19878 0.60459 0.56478 0.0
O292 O 0.15143 0.52031 0.58156 0.0
Mg293 Mg 0.18028 0.51102 0.65268 0.0
C294 C 0.16173 0.55695 0.55455 0.0
C295 C 0.35759 0.74608 0.59213 0.0
O296 O 0.37994 0.73168 0.62398 0.0
O297 O 0.31026 0.61293 0.60612 0.0
O298 O 0.2617 0.5303 0.62726 0.0
O299 O 0.20206 0.66504 0.66122 0.0
O300 O 0.21086 0.59536 0.67062 0.0
C301 C 0.30375 0.56717 0.61145 0.0
C302 C 0.18654 0.62077 0.67998 0.0
O303 O 0.30739 0.71903 0.58366 0.0
Mg304 Mg 0.61176 0.27142 0.78684 0.0
O305 O 0.5975 0.21346 0.725 0.0
O306 O 0.63524 0.16643 0.74468 0.0
Mg307 Mg 0.66749 0.18946 0.82042 0.0
C308 C 0.60956 0.178 0.71541 0.0
C309 C 0.62046 0.37055 0.74617 0.0
O310 O 0.65825 0.39217 0.77955 0.0
O311 O 0.7 0.32204 0.77624 0.0
O312 O 0.73161 0.27348 0.80609 0.0
O313 O 0.53521 0.21229 0.81594 0.0
O314 O 0.61364 0.22033 0.83254 0.0
C315 C 0.73883 0.31636 0.79012 0.0
C316 C 0.56356 0.19668 0.83835 0.0
O317 O 0.59285 0.3205 0.74029 0.0
Mg318 Mg 0.38863 0.6637 0.87491 0.0
O319 O 0.40194 0.62573 0.93826 0.0
O320 O 0.35537 0.53833 0.92152 0.0
Mg321 Mg 0.32163 0.52108 0.84648 0.0
C322 C 0.38466 0.57841 0.94938 0.0
C323 C 0.38449 0.76154 0.90689 0.0
O324 O 0.35056 0.74149 0.8706 0.0
O325 O 0.30242 0.63296 0.88947 0.0
O326 O 0.26199 0.54712 0.86643 0.0
O327 O 0.46149 0.6711 0.8428 0.0
O328 O 0.38064 0.60224 0.83106 0.0
C329 C 0.26062 0.58783 0.88197 0.0
C330 C 0.43006 0.62466 0.82262 0.0
O331 O 0.41092 0.73942 0.9184 0.0
Mg332 Mg 0.72783 0.39768 0.06853 0.0
O333 O 0.78066 0.40913 0.13497 0.0
O334 O 0.82452 0.36693 0.11696 0.0
Mg335 Mg 0.8063 0.33472 0.04162 0.0
C336 C 0.81351 0.39362 0.1458 0.0
C337 C 0.62456 0.39359 0.09865 0.0
O338 O 0.60422 0.34919 0.07283 0.0
O339 O 0.67298 0.31104 0.07874 0.0
O340 O 0.71974 0.2738 0.05494 0.0
O341 O 0.79056 0.47186 0.04095 0.0
O342 O 0.78291 0.39347 0.02828 0.0
C343 C 0.67691 0.27046 0.06862 0.0
C344 C 0.80798 0.44309 0.02209 0.0
O345 O 0.67491 0.42185 0.10586 0.0
Mg346 Mg 0.32431 0.74622 0.22594 0.0
O347 O 0.36502 0.79858 0.29295 0.0
O348 O 0.45205 0.8465 0.28173 0.0
Mg349 Mg 0.46521 0.83481 0.206 0.0
C350 C 0.41297 0.8321 0.30731 0.0
C351 C 0.24612 0.65681 0.2905 0.0
O352 O 0.28756 0.65224 0.30243 0.0
O353 O 0.36265 0.69544 0.23536 0.0
O354 O 0.44404 0.74958 0.21263 0.0
O355 O 0.30651 0.8063 0.1976 0.0
O356 O 0.38049 0.80403 0.18874 0.0
C357 C 0.40815 0.7042 0.22356 0.0
C358 C 0.35312 0.82653 0.18134 0.0
O359 O 0.25083 0.69082 0.26252 0.0
loop_
_geom_bond_atom_site_label_1
_geom_bond_atom_site_label_2
_geom_bond_distance
_geom_bond_site_symmetry_2
_ccdc_geom_bond_type
C0 C1 1.384 . S
C0 C2 1.384 . S
C0 H28 0.931 . S
C1 C0 1.384 . S
C1 C4 1.382 . S
C2 C0 1.384 . S
C2 C3 1.381 . S
C2 H29 0.930 . S
C3 C2 1.381 . S
C3 C5 1.381 . S
C3 C6 1.487 . S
C4 C1 1.382 . S
C4 C5 1.387 . S
C4 H30 0.930 . S
C5 C3 1.381 . S
C5 C4 1.387 . S
C5 H31 0.931 . S
C6 C3 1.487 . S
C6 C13 1.399 . S
C6 N44 1.343 . S
C7 C8 1.384 . S
C7 C9 1.384 . S
C7 H32 0.931 . S
C8 C7 1.384 . S
C8 C11 1.382 . S
C9 C7 1.384 . S
C9 C10 1.381 . S
C9 H33 0.930 . S
C10 C9 1.381 . S
C10 C12 1.381 . S
C10 C13 1.487 . S
C11 C8 1.382 . S
C11 C12 1.387 . S
C11 H34 0.930 . S
C12 C10 1.381 . S
C12 C11 1.387 . S
C12 H35 0.931 . S
C13 C6 1.399 . S
C13 C10 1.487 . S
C13 N45 1.343 1_655 S
C14 C15 1.384 . S
C14 C16 1.384 . S
C14 H36 0.931 . S
C15 C14 1.384 . S
C15 C18 1.382 . S
C16 C14 1.384 . S
C16 C17 1.381 . S
C16 H37 0.930 . S
C17 C16 1.381 . S
C17 C19 1.381 . S
C17 C20 1.487 . S
C18 C15 1.382 . S
C18 C19 1.387 . S
C18 H38 0.930 . S
C19 C17 1.381 . S
C19 C18 1.387 . S
C19 H39 0.931 . S
C20 C17 1.487 . S
C20 C27 1.399 . S
C20 N45 1.343 . S
C21 C22 1.384 . S
C21 C23 1.384 . S
C21 H40 0.931 . S
C22 C21 1.384 . S
C22 C25 1.382 . S
C23 C21 1.384 . S
C23 C24 1.381 . S
C23 H41 0.930 . S
C24 C23 1.381 . S
C24 C26 1.381 . S
C24 C27 1.487 . S
C25 C22 1.382 . S
C25 C26 1.387 . S
C25 H42 0.930 . S
C26 C24 1.381 . S
C26 C25 1.387 . S
C26 H43 0.931 . S
C27 C20 1.399 . S
C27 C24 1.487 . S
C27 N44 1.343 1_455 S
H28 C0 0.931 . S
H29 C2 0.930 . S
H30 C4 0.930 . S
H31 C5 0.931 . S
H32 C7 0.931 . S
H33 C9 0.930 . S
H34 C11 0.930 . S
H35 C12 0.931 . S
H36 C14 0.931 . S
H37 C16 0.930 . S
H38 C18 0.930 . S
H39 C19 0.931 . S
H40 C21 0.931 . S
H41 C23 0.930 . S
H42 C25 0.930 . S
H43 C26 0.931 . S
N44 C6 1.343 . S
N44 C27 1.343 1_655 S
N45 C13 1.343 1_455 S
N45 C20 1.343 . S
C46 C47 1.384 . S
C46 C48 1.384 . S
C46 H74 0.931 . S
C47 C46 1.384 . S
C47 C50 1.382 . S
C48 C46 1.384 . S
C48 C49 1.381 . S
C48 H75 0.930 . S
C49 C48 1.381 . S
C49 C51 1.381 . S
C49 C52 1.487 . S
C50 C47 1.382 . S
C50 C51 1.387 . S
C50 H76 0.930 . S
C51 C49 1.381 . S
C51 C50 1.387 . S
C51 H77 0.931 . S
C52 C49 1.487 . S
C52 C59 1.399 . S
C52 N90 1.343 . S
C53 C54 1.384 . S
C53 C55 1.384 . S
C53 H78 0.931 . S
C54 C53 1.384 . S
C54 C57 1.382 . S
C55 C53 1.384 . S
C55 C56 1.381 . S
C55 H79 0.930 . S
C56 C55 1.381 . S
C56 C58 1.381 . S
C56 C59 1.487 . S
C57 C54 1.382 . S
C57 C58 1.387 . S
C57 H80 0.930 . S
C58 C56 1.381 . S
C58 C57 1.387 . S
C58 H81 0.931 . S
C59 C52 1.399 . S
C59 C56 1.487 . S
C59 N91 1.343 1_565 S
C60 C61 1.384 . S
C60 C62 1.384 . S
C60 H82 0.931 . S
C61 C60 1.384 . S
C61 C64 1.382 . S
C62 C60 1.384 . S
C62 C63 1.381 . S
C62 H83 0.930 . S
C63 C62 1.381 . S
C63 C65 1.381 . S
C63 C66 1.487 . S
C64 C61 1.382 . S
C64 C65 1.387 . S
C64 H84 0.930 . S
C65 C63 1.381 . S
C65 C64 1.387 . S
C65 H85 0.931 . S
C66 C63 1.487 . S
C66 C73 1.399 . S
C66 N91 1.343 . S
C67 C68 1.384 . S
C67 C69 1.384 . S
C67 H86 0.931 . S
C68 C67 1.384 . S
C68 C71 1.382 . S
C69 C67 1.384 . S
C69 C70 1.381 . S
C69 H87 0.930 . S
C70 C69 1.381 . S
C70 C72 1.381 . S
C70 C73 1.487 . S
C71 C68 1.382 . S
C71 C72 1.387 . S
C71 H88 0.930 . S
C72 C70 1.381 . S
C72 C71 1.387 . S
C72 H89 0.931 . S
C73 C66 1.399 . S
C73 C70 1.487 . S
C73 N90 1.343 1_545 S
H74 C46 0.931 . S
H75 C48 0.930 . S
H76 C50 0.930 . S
H77 C51 0.931 . S
H78 C53 0.931 . S
H79 C55 0.930 . S
H80 C57 0.930 . S
H81 C58 0.931 . S
H82 C60 0.931 . S
H83 C62 0.930 . S
H84 C64 0.930 . S
H85 C65 0.931 . S
H86 C67 0.931 . S
H87 C69 0.930 . S
H88 C71 0.930 . S
H89 C72 0.931 . S
N90 C52 1.343 . S
N90 C73 1.343 1_565 S
N91 C59 1.343 1_545 S
N91 C66 1.343 . S
C92 C93 1.384 . S
C92 C94 1.384 . S
C92 H120 0.931 . S
C93 C92 1.384 . S
C93 C96 1.382 . S
C94 C92 1.384 . S
C94 C95 1.381 . S
C94 H121 0.930 . S
C95 C94 1.381 . S
C95 C97 1.381 . S
C95 C98 1.487 . S
C96 C93 1.382 . S
C96 C97 1.387 . S
C96 H122 0.930 . S
C97 C95 1.381 . S
C97 C96 1.387 . S
C97 H123 0.931 . S
C98 C95 1.487 . S
C98 C105 1.399 . S
C98 N136 1.343 . S
C99 C100 1.384 . S
C99 C101 1.384 . S
C99 H124 0.931 . S
C100 C99 1.384 . S
C100 C103 1.382 . S
C101 C99 1.384 . S
C101 C102 1.381 . S
C101 H125 0.930 . S
C102 C101 1.381 . S
C102 C104 1.381 . S
C102 C105 1.487 . S
C103 C100 1.382 . S
C103 C104 1.387 . S
C103 H126 0.930 . S
C104 C102 1.381 . S
C104 C103 1.387 . S
C104 H127 0.931 . S
C105 C98 1.399 . S
C105 C102 1.487 . S
C105 N137 1.343 . S
C106 C107 1.384 . S
C106 C108 1.384 . S
C106 H128 0.931 . S
C107 C106 1.384 . S
C107 C110 1.382 . S
C108 C106 1.384 . S
C108 C109 1.381 . S
C108 H129 0.930 . S
C109 C108 1.381 . S
C109 C111 1.381 . S
C109 C112 1.487 . S
C110 C107 1.382 . S
C110 C111 1.387 . S
C110 H130 0.930 . S
C111 C109 1.381 . S
C111 C110 1.387 . S
C111 H131 0.931 . S
C112 C109 1.487 . S
C112 C119 1.399 . S
C112 N137 1.343 . S
C113 C114 1.384 . S
C113 C115 1.384 . S
C113 H132 0.931 . S
C114 C113 1.384 . S
C114 C117 1.382 . S
C115 C113 1.384 . S
C115 C116 1.381 . S
C115 H133 0.930 . S
C116 C115 1.381 . S
C116 C118 1.381 . S
C116 C119 1.487 . S
C117 C114 1.382 . S
C117 C118 1.387 . S
C117 H134 0.930 . S
C118 C116 1.381 . S
C118 C117 1.387 . S
C118 H135 0.931 . S
C119 C112 1.399 . S
C119 C116 1.487 . S
C119 N136 1.343 . S
H120 C92 0.931 . S
H121 C94 0.930 . S
H122 C96 0.930 . S
H123 C97 0.931 . S
H124 C99 0.931 . S
H125 C101 0.930 . S
H126 C103 0.930 . S
H127 C104 0.931 . S
H128 C106 0.931 . S
H129 C108 0.930 . S
H130 C110 0.930 . S
H131 C111 0.931 . S
H132 C113 0.931 . S
H133 C115 0.930 . S
H134 C117 0.930 . S
H135 C118 0.931 . S
N136 C98 1.343 . S
N136 C119 1.343 . S
N137 C105 1.343 . S
N137 C112 1.343 . S
C138 C139 1.384 . S
C138 C140 1.384 . S
C138 H166 0.931 . S
C139 C138 1.384 . S
C139 C142 1.382 . S
C140 C138 1.384 . S
C140 C141 1.381 . S
C140 H167 0.930 . S
C141 C140 1.381 . S
C141 C143 1.381 . S
C141 C144 1.487 . S
C142 C139 1.382 . S
C142 C143 1.387 . S
C142 H168 0.930 . S
C143 C141 1.381 . S
C143 C142 1.387 . S
C143 H169 0.931 . S
C144 C141 1.487 . S
C144 C151 1.399 . S
C144 N182 1.343 . S
C145 C146 1.384 . S
C145 C147 1.384 . S
C145 H170 0.931 . S
C146 C145 1.384 . S
C146 C149 1.382 . S
C147 C145 1.384 . S
C147 C148 1.381 . S
C147 H171 0.930 . S
C148 C147 1.381 . S
C148 C150 1.381 . S
C148 C151 1.487 . S
C149 C146 1.382 . S
C149 C150 1.387 . S
C149 H172 0.930 . S
C150 C148 1.381 . S
C150 C149 1.387 . S
C150 H173 0.931 . S
C151 C144 1.399 . S
C151 C148 1.487 . S
C151 N183 1.343 1_655 S
C152 C153 1.384 . S
C152 C154 1.384 . S
C152 H174 0.931 . S
C153 C152 1.384 . S
C153 C156 1.382 . S
C154 C152 1.384 . S
C154 C155 1.381 . S
C154 H175 0.930 . S
C155 C154 1.381 . S
C155 C157 1.381 . S
C155 C158 1.487 . S
C156 C153 1.382 . S
C156 C157 1.387 . S
C156 H176 0.930 . S
C157 C155 1.381 . S
C157 C156 1.387 . S
C157 H177 0.931 . S
C158 C155 1.487 . S
C158 C165 1.399 . S
C158 N183 1.343 . S
C159 C160 1.384 . S
C159 C161 1.384 . S
C159 H178 0.931 . S
C160 C159 1.384 . S
C160 C163 1.382 . S
C161 C159 1.384 . S
C161 C162 1.381 . S
C161 H179 0.930 . S
C162 C161 1.381 . S
C162 C164 1.381 . S
C162 C165 1.487 . S
C163 C160 1.382 . S
C163 C164 1.387 . S
C163 H180 0.930 . S
C164 C162 1.381 . S
C164 C163 1.387 . S
C164 H181 0.931 . S
C165 C158 1.399 . S
C165 C162 1.487 . S
C165 N182 1.343 1_455 S
H166 C138 0.931 . S
H167 C140 0.930 . S
H168 C142 0.930 . S
H169 C143 0.931 . S
H170 C145 0.931 . S
H171 C147 0.930 . S
H172 C149 0.930 . S
H173 C150 0.931 . S
H174 C152 0.931 . S
H175 C154 0.930 . S
H176 C156 0.930 . S
H177 C157 0.931 . S
H178 C159 0.931 . S
H179 C161 0.930 . S
H180 C163 0.930 . S
H181 C164 0.931 . S
N182 C144 1.343 . S
N182 C165 1.343 1_655 S
N183 C151 1.343 1_455 S
N183 C158 1.343 . S
C184 C185 1.384 . S
C184 C186 1.384 . S
C184 H212 0.931 . S
C185 C184 1.384 . S
C185 C188 1.382 . S
C186 C184 1.384 . S
C186 C187 1.381 . S
C186 H213 0.930 1_556 S
C187 C186 1.381 . S
C187 C189 1.381 . S
C187 C190 1.487 . S
C188 C185 1.382 . S
C188 C189 1.387 . S
C188 H214 0.930 . S
C189 C187 1.381 . S
C189 C188 1.387 . S
C189 H215 0.931 . S
C190 C187 1.487 . S
C190 C197 1.399 1_556 S
C190 N228 1.329 1_565 S
C191 C192 1.384 . S
C191 C193 1.384 . S
C191 H216 0.931 . S
C192 C191 1.384 . S
C192 C195 1.382 . S
C193 C191 1.384 . S
C193 C194 1.381 . S
C193 H217 0.930 . S
C194 C193 1.381 . S
C194 C196 1.381 . S
C194 C197 1.487 . S
C195 C192 1.382 . S
C195 C196 1.387 . S
C195 H218 0.930 . S
C196 C194 1.381 . S
C196 C195 1.387 . S
C196 H219 0.931 . S
C197 C190 1.399 1_554 S
C197 C194 1.487 . S
C197 N229 1.343 1_565 S
C198 C199 1.384 . S
C198 C200 1.384 . S
C198 H220 0.931 . S
C199 C198 1.384 . S
C199 C202 1.382 . S
C200 C198 1.384 . S
C200 C201 1.381 . S
C200 H221 0.930 1_554 S
C201 C200 1.381 . S
C201 C203 1.381 . S
C201 C204 1.487 . S
C202 C199 1.382 . S
C202 C203 1.387 . S
C202 H222 0.930 . S
C203 C201 1.381 . S
C203 C202 1.387 . S
C203 H223 0.931 . S
C204 C201 1.487 . S
C204 C211 1.399 1_554 S
C204 N229 1.343 . S
C205 C206 1.384 . S
C205 C207 1.384 . S
C205 H224 0.931 . S
C206 C205 1.384 . S
C206 C209 1.382 . S
C207 C205 1.384 . S
C207 C208 1.381 . S
C207 H225 0.930 . S
C208 C207 1.381 . S
C208 C210 1.381 . S
C208 C211 1.487 . S
C209 C206 1.382 . S
C209 C210 1.387 . S
C209 H226 0.930 . S
C210 C208 1.381 . S
C210 C209 1.387 . S
C210 H227 0.931 . S
C211 C204 1.399 1_556 S
C211 C208 1.487 . S
C211 N228 1.363 . S
H212 C184 0.931 . S
H213 C186 0.930 1_554 S
H214 C188 0.930 . S
H215 C189 0.931 . S
H216 C191 0.931 . S
H217 C193 0.930 . S
H218 C195 0.930 . S
H219 C196 0.931 . S
H220 C198 0.931 . S
H221 C200 0.930 1_556 S
H222 C202 0.930 . S
H223 C203 0.931 . S
H224 C205 0.931 . S
H225 C207 0.930 . S
H226 C209 0.930 . S
H227 C210 0.931 . S
N228 C190 1.329 1_545 S
N228 C211 1.363 . S
N229 C197 1.343 1_545 S
N229 C204 1.343 . S
C230 C231 1.384 . S
C230 C232 1.384 . S
C230 H258 0.931 . S
C231 C230 1.384 . S
C231 C234 1.382 . S
C232 C230 1.384 . S
C232 C233 1.381 . S
C232 H259 0.930 . S
C233 C232 1.381 . S
C233 C235 1.381 . S
C233 C236 1.487 . S
C234 C231 1.382 . S
C234 C235 1.387 . S
C234 H260 0.930 . S
C235 C233 1.381 . S
C235 C234 1.387 . S
C235 H261 0.931 . S
C236 C233 1.487 . S
C236 C243 1.399 . S
C236 N274 1.343 . S
C237 C238 1.384 . S
C237 C239 1.384 . S
C237 H262 0.931 . S
C238 C237 1.384 . S
C238 C241 1.382 . S
C239 C237 1.384 . S
C239 C240 1.381 . S
C239 H263 0.930 . S
C240 C239 1.381 . S
C240 C242 1.381 . S
C240 C243 1.487 . S
C241 C238 1.382 . S
C241 C242 1.387 . S
C241 H264 0.930 1_554 S
C242 C240 1.381 . S
C242 C241 1.387 . S
C242 H265 0.931 . S
C243 C236 1.399 . S
C243 C240 1.487 . S
C243 N275 1.343 . S
C244 C245 1.384 . S
C244 C246 1.384 . S
C244 H266 0.931 . S
C245 C244 1.384 . S
C245 C248 1.382 . S
C246 C244 1.384 . S
C246 C247 1.381 . S
C246 H267 0.930 . S
C247 C246 1.381 . S
C247 C249 1.381 . S
C247 C250 1.487 . S
C248 C245 1.382 . S
C248 C249 1.387 . S
C248 H268 0.930 . S
C249 C247 1.381 . S
C249 C248 1.387 . S
C249 H269 0.931 . S
C250 C247 1.487 . S
C250 C257 1.399 . S
C250 N275 1.343 . S
C251 C252 1.384 . S
C251 C253 1.384 . S
C251 H270 0.931 . S
C252 C251 1.384 . S
C252 C255 1.382 . S
C253 C251 1.384 . S
C253 C254 1.381 . S
C253 H271 0.930 . S
C254 C253 1.381 . S
C254 C256 1.381 . S
C254 C257 1.487 . S
C255 C252 1.382 . S
C255 C256 1.387 . S
C255 H272 0.930 . S
C256 C254 1.381 . S
C256 C255 1.387 . S
C256 H273 0.931 . S
C257 C250 1.399 . S
C257 C254 1.487 . S
C257 N274 1.343 . S
H258 C230 0.931 . S
H259 C232 0.930 . S
H260 C234 0.930 . S
H261 C235 0.931 . S
H262 C237 0.931 . S
H263 C239 0.930 . S
H264 C241 0.930 1_556 S
H265 C242 0.931 . S
H266 C244 0.931 . S
H267 C246 0.930 . S
H268 C248 0.930 . S
H269 C249 0.931 . S
H270 C251 0.931 . S
H271 C253 0.930 . S
H272 C255 0.930 . S
H273 C256 0.931 . S
N274 C236 1.343 . S
N274 C257 1.343 . S
N275 C243 1.343 . S
N275 C250 1.343 . S
Mg276 O277 2.028 . S
Mg276 O283 1.986 . S
Mg276 O285 2.114 . S
Mg276 O286 2.251 . S
Mg276 O289 2.010 . S
O277 Mg276 2.028 . S
O277 C280 1.250 . S
O278 Mg279 2.028 . S
O278 C280 1.248 . S
Mg279 O278 2.028 . S
Mg279 O284 2.032 . S
Mg279 O286 2.079 . S
C280 O277 1.250 . S
C280 O278 1.248 . S
C281 O282 1.264 . S
C281 O289 1.249 . S
O282 C281 1.264 . S
O283 Mg276 1.986 . S
O283 C287 1.246 . S
O284 Mg279 2.032 . S
O284 C287 1.259 . S
O285 Mg276 2.114 . S
O285 C288 1.252 . S
O286 Mg276 2.251 . S
O286 Mg279 2.079 . S
O286 C288 1.273 . S
C287 O283 1.246 . S
C287 O284 1.259 . S
C288 O285 1.252 . S
C288 O286 1.273 . S
O289 Mg276 2.010 . S
O289 C281 1.249 . S
Mg290 O291 2.028 . S
Mg290 O297 1.986 . S
Mg290 O299 2.114 . S
Mg290 O300 2.251 . S
Mg290 O303 2.010 . S
O291 Mg290 2.028 . S
O291 C294 1.250 . S
O292 Mg293 2.028 . S
O292 C294 1.248 . S
Mg293 O292 2.028 . S
Mg293 O298 2.032 . S
Mg293 O300 2.079 . S
C294 O291 1.250 . S
C294 O292 1.248 . S
C295 O296 1.264 . S
C295 O303 1.249 . S
O296 C295 1.264 . S
O297 Mg290 1.986 . S
O297 C301 1.246 . S
O298 Mg293 2.032 . S
O298 C301 1.259 . S
O299 Mg290 2.114 . S
O299 C302 1.252 . S
O300 Mg290 2.251 . S
O300 Mg293 2.079 . S
O300 C302 1.273 . S
C301 O297 1.246 . S
C301 O298 1.259 . S
C302 O299 1.252 . S
C302 O300 1.273 . S
O303 Mg290 2.010 . S
O303 C295 1.249 . S
Mg304 O305 2.028 . S
Mg304 O311 1.986 . S
Mg304 O313 2.114 . S
Mg304 O314 2.251 . S
Mg304 O317 2.010 . S
O305 Mg304 2.028 . S
O305 C308 1.250 . S
O306 Mg307 2.028 . S
O306 C308 1.248 . S
Mg307 O306 2.028 . S
Mg307 O312 2.032 . S
Mg307 O314 2.079 . S
C308 O305 1.250 . S
C308 O306 1.248 . S
C309 O310 1.264 . S
C309 O317 1.249 . S
O310 C309 1.264 . S
O311 Mg304 1.986 . S
O311 C315 1.246 . S
O312 Mg307 2.032 . S
O312 C315 1.259 . S
O313 Mg304 2.114 . S
O313 C316 1.252 . S
O314 Mg304 2.251 . S
O314 Mg307 2.079 . S
O314 C316 1.273 . S
C315 O311 1.246 . S
C315 O312 1.259 . S
C316 O313 1.252 . S
C316 O314 1.273 . S
O317 Mg304 2.010 . S
O317 C309 1.249 . S
Mg318 O319 2.028 . S
Mg318 O325 1.986 . S
Mg318 O327 2.114 . S
Mg318 O328 2.251 . S
Mg318 O331 2.010 . S
O319 Mg318 2.028 . S
O319 C322 1.250 . S
O320 Mg321 2.028 . S
O320 C322 1.248 . S
Mg321 O320 2.028 . S
Mg321 O326 2.032 . S
Mg321 O328 2.079 . S
C322 O319 1.250 . S
C322 O320 1.248 . S
C323 O324 1.264 . S
C323 O331 1.249 . S
O324 C323 1.264 . S
O325 Mg318 1.986 . S
O325 C329 1.246 . S
O326 Mg321 2.032 . S
O326 C329 1.259 . S
O327 Mg318 2.114 . S
O327 C330 1.252 . S
O328 Mg318 2.251 . S
O328 Mg321 2.079 . S
O328 C330 1.273 . S
C329 O325 1.246 . S
C329 O326 1.259 . S
C330 O327 1.252 . S
C330 O328 1.273 . S
O331 Mg318 2.010 . S
O331 C323 1.249 . S
Mg332 O333 2.028 . S
Mg332 O339 1.986 . S
Mg332 O341 2.114 . S
Mg332 O342 2.251 . S
Mg332 O345 2.010 . S
O333 Mg332 2.028 . S
O333 C336 1.250 . S
O334 Mg335 2.028 . S
O334 C336 1.248 . S
Mg335 O334 2.028 . S
Mg335 O340 2.032 . S
Mg335 O342 2.079 . S
C336 O333 1.250 . S
C336 O334 1.248 . S
C337 O338 1.264 . S
C337 O345 1.249 . S
O338 C337 1.264 . S
O339 Mg332 1.986 . S
O339 C343 1.246 . S
O340 Mg335 2.032 . S
O340 C343 1.259 . S
O341 Mg332 2.114 . S
O341 C344 1.252 . S
O342 Mg332 2.251 . S
O342 Mg335 2.079 . S
O342 C344 1.273 . S
C343 O339 1.246 . S
C343 O340 1.259 . S
C344 O341 1.252 . S
C344 O342 1.273 . S
O345 Mg332 2.010 . S
O345 C337 1.249 . S
Mg346 O347 2.028 . S
Mg346 O353 1.986 . S
Mg346 O355 2.114 . S
Mg346 O356 2.251 . S
Mg346 O359 2.010 . S
O347 Mg346 2.028 . S
O347 C350 1.250 . S
O348 Mg349 2.028 . S
O348 C350 1.248 . S
Mg349 O348 2.028 . S
Mg349 O354 2.032 . S
Mg349 O356 2.079 . S
C350 O347 1.250 . S
C350 O348 1.248 . S
C351 O352 1.264 . S
C351 O359 1.249 . S
O352 C351 1.264 . S
O353 Mg346 1.986 . S
O353 C357 1.246 . S
O354 Mg349 2.032 . S
O354 C357 1.259 . S
O355 Mg346 2.114 . S
O355 C358 1.252 . S
O356 Mg346 2.251 . S
O356 Mg349 2.079 . S
O356 C358 1.273 . S
C357 O353 1.246 . S
C357 O354 1.259 . S
C358 O355 1.252 . S
C358 O356 1.273 . S
O359 Mg346 2.010 . S
O359 C351 1.249 . S
C351 C15 1.781 . S
C61 C281 1.830 . S
C114 C301 2.251 . S
C139 C315 2.216 . S
C323 C185 1.764 . S
C245 C337 1.647 . S
C47 C295 1.807 . S
C100 C309 1.805 . S
C153 C329 2.116 . S
C343 C199 2.223 . S
C357 C231 2.304 . S
C287 C1 2.306 . S
C22 C294 1.581 . S
C68 C308 1.533 . S
C330 C107 1.514 . S
C146 C344 1.595 1_556 S
C358 C192 1.520 . S
C288 C252 1.509 . S
C350 C54 1.553 . S
C93 C280 1.599 . S
C302 C160 1.556 . S
C206 C316 1.499 . S
C238 C322 1.639 1_554 S
C8 C336 1.633 . S
