# Generated by pormake.
# Topology apo, (3,6)-cn, num edge types: 1
# Building blocks:
#     Node 0, Type 0, BuildingBlock: BETDAH_clean_linker_0, # of connection points: 3
#     Node 1, Type 0, BuildingBlock: BETDAH_clean_linker_0, # of connection points: 3
#     Node 2, Type 0, BuildingBlock: BETDAH_clean_linker_0, # of connection points: 3
#     Node 3, Type 0, BuildingBlock: BETDAH_clean_linker_0, # of connection points: 3
#     Node 4, Type 0, BuildingBlock: BETDAH_clean_linker_0, # of connection points: 3
#     Node 5, Type 0, BuildingBlock: BETDAH_clean_linker_0, # of connection points: 3
#     Node 6, Type 0, BuildingBlock: BETDAH_clean_linker_0, # of connection points: 3
#     Node 7, Type 0, BuildingBlock: BETDAH_clean_linker_0, # of connection points: 3
#     Node 8, Type 1, BuildingBlock: MIDCAF_clean_sbu_0, # of connection points: 6
#     Node 9, Type 1, BuildingBlock: MIDCAF_clean_sbu_0, # of connection points: 6
#     Node 10, Type 1, BuildingBlock: MIDCAF_clean_sbu_0, # of connection points: 6
#     Node 11, Type 1, BuildingBlock: MIDCAF_clean_sbu_0, # of connection points: 6
#     Edge 12, Type (0, 1), BuildingBlock: AJUNOK_clean_linker_0, # of connection points: 2
#     Edge 13, Type (0, 1), BuildingBlock: AJUNOK_clean_linker_0, # of connection points: 2
#     Edge 14, Type (0, 1), BuildingBlock: AJUNOK_clean_linker_0, # of connection points: 2
#     Edge 15, Type (0, 1), BuildingBlock: AJUNOK_clean_linker_0, # of connection points: 2
#     Edge 16, Type (0, 1), BuildingBlock: AJUNOK_clean_linker_0, # of connection points: 2
#     Edge 17, Type (0, 1), BuildingBlock: AJUNOK_clean_linker_0, # of connection points: 2
#     Edge 18, Type (0, 1), BuildingBlock: AJUNOK_clean_linker_0, # of connection points: 2
#     Edge 19, Type (0, 1), BuildingBlock: AJUNOK_clean_linker_0, # of connection points: 2
#     Edge 20, Type (0, 1), BuildingBlock: AJUNOK_clean_linker_0, # of connection points: 2
#     Edge 21, Type (0, 1), BuildingBlock: AJUNOK_clean_linker_0, # of connection points: 2
#     Edge 22, Type (0, 1), BuildingBlock: AJUNOK_clean_linker_0, # of connection points: 2
#     Edge 23, Type (0, 1), BuildingBlock: AJUNOK_clean_linker_0, # of connection points: 2
#     Edge 24, Type (0, 1), BuildingBlock: AJUNOK_clean_linker_0, # of connection points: 2
#     Edge 25, Type (0, 1), BuildingBlock: AJUNOK_clean_linker_0, # of connection points: 2
#     Edge 26, Type (0, 1), BuildingBlock: AJUNOK_clean_linker_0, # of connection points: 2
#     Edge 27, Type (0, 1), BuildingBlock: AJUNOK_clean_linker_0, # of connection points: 2
#     Edge 28, Type (0, 1), BuildingBlock: AJUNOK_clean_linker_0, # of connection points: 2
#     Edge 29, Type (0, 1), BuildingBlock: AJUNOK_clean_linker_0, # of connection points: 2
#     Edge 30, Type (0, 1), BuildingBlock: AJUNOK_clean_linker_0, # of connection points: 2
#     Edge 31, Type (0, 1), BuildingBlock: AJUNOK_clean_linker_0, # of connection points: 2
#     Edge 32, Type (0, 1), BuildingBlock: AJUNOK_clean_linker_0, # of connection points: 2
#     Edge 33, Type (0, 1), BuildingBlock: AJUNOK_clean_linker_0, # of connection points: 2
#     Edge 34, Type (0, 1), BuildingBlock: AJUNOK_clean_linker_0, # of connection points: 2
#     Edge 35, Type (0, 1), BuildingBlock: AJUNOK_clean_linker_0, # of connection points: 2
# Relax obj value: 0.013
# Max RMSD: 0.063
# Mean RMSD: 0.050
data_MOF--net-apo--node1-MIDCAF_clean_sbu_0--node2-BETDAH_clean_linker_0--edge1-AJUNOK_clean_linker_0
_symmetry_space_group_name_H-M    P1
_symmetry_Int_Tables_number       1
_symmetry_cell_setting            triclinic
loop_
_symmetry_equiv_pos_as_xyz
'x, y, z'
_cell_length_a     26.957015
_cell_length_b     30.452097
_cell_length_c     24.550498
_cell_angle_alpha  88.660769
_cell_angle_beta   90.440623
_cell_angle_gamma 90.314728
loop_
_atom_site_label
_atom_site_type_symbol
_atom_site_fract_x
_atom_site_fract_y
_atom_site_fract_z
_atom_type_partial_charge
H0 H 0.42069 0.39189 0.45872 0.0
H1 H 0.37306 0.34069 0.30504 0.0
H2 H 0.37791 0.25591 0.44761 0.0
C3 C 0.40633 0.36481 0.43528 0.0
C4 C 0.3981 0.32365 0.46096 0.0
C5 C 0.39777 0.37105 0.37914 0.0
C6 C 0.37954 0.33613 0.34842 0.0
C7 C 0.37267 0.29451 0.37309 0.0
C8 C 0.38264 0.28828 0.42901 0.0
N9 N 0.3595 0.25787 0.34142 0.0
C10 C 0.31621 0.25651 0.31034 0.0
H11 H 0.11795 0.10041 0.94831 0.0
H12 H 0.14883 0.13569 0.78169 0.0
H13 H 0.19192 0.22297 0.90963 0.0
C14 C 0.13394 0.12325 0.91864 0.0
C15 C 0.1561 0.16238 0.9361 0.0
C16 C 0.13119 0.11354 0.8633 0.0
C17 C 0.15094 0.14309 0.82463 0.0
C18 C 0.17359 0.1822 0.84107 0.0
C19 C 0.17592 0.1921 0.89696 0.0
N20 N 0.19068 0.21236 0.80045 0.0
C21 C 0.24041 0.22389 0.79552 0.0
H22 H 0.92814 0.09605 0.59234 0.0
H23 H 0.87802 0.1519 0.74124 0.0
H24 H 0.87855 0.23017 0.5929 0.0
C25 C 0.91267 0.12358 0.61359 0.0
C26 C 0.90214 0.16291 0.58481 0.0
C27 C 0.90439 0.11945 0.66985 0.0
C28 C 0.88446 0.15486 0.69779 0.0
C29 C 0.87569 0.19501 0.67009 0.0
C30 C 0.88517 0.19904 0.61393 0.0
N31 N 0.86059 0.23252 0.69867 0.0
C32 C 0.81916 0.23263 0.73208 0.0
H33 H 0.62031 0.39353 0.09509 0.0
H34 H 0.64811 0.36195 0.2639 0.0
H35 H 0.70279 0.27719 0.14026 0.0
C36 C 0.63715 0.37234 0.12609 0.0
C37 C 0.66259 0.33445 0.11064 0.0
C38 C 0.63214 0.38274 0.1811 0.0
C39 C 0.65251 0.35466 0.22119 0.0
C40 C 0.67909 0.31737 0.20691 0.0
C41 C 0.68395 0.30696 0.15143 0.0
N42 N 0.69811 0.28999 0.24962 0.0
C43 C 0.74519 0.27174 0.2493 0.0
H44 H 0.60183 0.59724 0.58633 0.0
H45 H 0.66077 0.64335 0.73862 0.0
H46 H 0.64623 0.7321 0.60091 0.0
C47 C 0.6179 0.62316 0.61042 0.0
C48 C 0.62446 0.66497 0.58602 0.0
C49 C 0.63031 0.6146 0.66557 0.0
C50 C 0.64992 0.64906 0.69652 0.0
C51 C 0.65476 0.69152 0.67338 0.0
C52 C 0.64183 0.69934 0.61843 0.0
N53 N 0.66941 0.72742 0.70567 0.0
C54 C 0.7136 0.72828 0.73528 0.0
H55 H 0.91153 0.88627 0.10052 0.0
H56 H 0.83647 0.76393 0.13766 0.0
H57 H 0.88017 0.84976 0.2667 0.0
C58 C 0.89531 0.86334 0.12991 0.0
C59 C 0.8979 0.8727 0.18542 0.0
C60 C 0.87286 0.82446 0.11193 0.0
C61 C 0.85268 0.79461 0.1507 0.0
C62 C 0.85503 0.80407 0.2067 0.0
C63 C 0.87796 0.84285 0.22362 0.0
N64 N 0.83784 0.77377 0.24708 0.0
C65 C 0.78836 0.76124 0.25105 0.0
H66 H 0.10121 0.88926 0.45637 0.0
H67 H 0.15283 0.83543 0.30685 0.0
H68 H 0.14734 0.75414 0.45243 0.0
C69 C 0.11586 0.86173 0.43444 0.0
C70 C 0.12415 0.8214 0.46204 0.0
C71 C 0.12583 0.86693 0.37861 0.0
C72 C 0.14515 0.83162 0.34998 0.0
C73 C 0.15222 0.79074 0.37651 0.0
C74 C 0.14134 0.78571 0.43224 0.0
N75 N 0.16753 0.75363 0.34728 0.0
C76 C 0.20789 0.75436 0.3123 0.0
H77 H 0.40729 0.59719 0.95384 0.0
H78 H 0.32993 0.71328 0.89876 0.0
H79 H 0.36945 0.61444 0.78438 0.0
C80 C 0.38914 0.61587 0.92133 0.0
C81 C 0.38905 0.59973 0.86822 0.0
C82 C 0.36725 0.6562 0.93327 0.0
C83 C 0.34613 0.68168 0.89046 0.0
C84 C 0.34756 0.66658 0.83645 0.0
C85 C 0.36938 0.62602 0.82578 0.0
N86 N 0.32886 0.69195 0.79169 0.0
C87 C 0.28218 0.71101 0.79143 0.0
Zn88 Zn 0.08043 0.12844 0.34003 0.0
Zn89 Zn 0.98315 0.13104 0.17664 0.0
Zn90 Zn 0.0312 0.13021 0.26018 0.0
C91 C 0.07364 0.15721 0.14138 0.0
C92 C 0.97484 0.04655 0.21556 0.0
O93 O 0.98487 0.1593 0.32568 0.0
O94 O 0.02796 0.13108 0.39478 0.0
C95 C 0.12643 0.19012 0.27982 0.0
O96 O 0.07917 0.15987 0.19354 0.0
O97 O 0.03472 0.14042 0.12195 0.0
O98 O 0.95114 0.07242 0.18427 0.0
O99 O 0.0114 0.06094 0.24422 0.0
O100 O 0.11854 0.18299 0.32971 0.0
O101 O 0.10113 0.16884 0.2441 0.0
O102 O 0.04908 0.06035 0.2826 0.0
O103 O 0.11572 0.07162 0.33293 0.0
C104 C 0.08758 0.04534 0.3083 0.0
O105 O 0.96152 0.16857 0.27447 0.0
O106 O 0.94098 0.18183 0.18853 0.0
C107 C 0.99002 0.15098 0.37723 0.0
C108 C 0.934 0.18833 0.23834 0.0
Zn109 Zn 0.57861 0.34862 0.70796 0.0
Zn110 Zn 0.49022 0.33725 0.86608 0.0
Zn111 Zn 0.53368 0.35173 0.78632 0.0
C112 C 0.47283 0.42571 0.83547 0.0
C113 C 0.43983 0.2857 0.80287 0.0
O114 O 0.60507 0.31483 0.8022 0.0
O115 O 0.61613 0.29401 0.71805 0.0
C116 C 0.58904 0.43415 0.73837 0.0
O117 O 0.51091 0.41911 0.80541 0.0
O118 O 0.45378 0.39356 0.86121 0.0
O119 O 0.45167 0.28417 0.85253 0.0
O120 O 0.46364 0.31207 0.77015 0.0
O121 O 0.61426 0.40516 0.71544 0.0
O122 O 0.55032 0.42222 0.76567 0.0
O123 O 0.48588 0.32276 0.7195 0.0
O124 O 0.52975 0.34676 0.64936 0.0
C125 C 0.49094 0.32885 0.66754 0.0
O126 O 0.58562 0.32469 0.85309 0.0
O127 O 0.53793 0.33107 0.92504 0.0
C128 C 0.62798 0.29101 0.76763 0.0
C129 C 0.5796 0.32256 0.90535 0.0
Zn130 Zn 0.0474 0.85308 0.87211 0.0
Zn131 Zn 0.95065 0.85961 0.70891 0.0
Zn132 Zn 0.99876 0.85542 0.78847 0.0
C133 C 0.94513 0.94188 0.74069 0.0
C134 C 0.90322 0.79707 0.76655 0.0
O135 O 0.06695 0.81525 0.77333 0.0
O136 O 0.08936 0.80254 0.85882 0.0
C137 C 0.0561 0.93821 0.83613 0.0
O138 O 0.98326 0.92584 0.76616 0.0
O139 O 0.91554 0.91631 0.71695 0.0
O140 O 0.91213 0.80499 0.71703 0.0
O141 O 0.92792 0.81771 0.80334 0.0
O142 O 0.07953 0.9117 0.86684 0.0
O143 O 0.01995 0.92429 0.8064 0.0
O144 O 0.94959 0.82634 0.85429 0.0
O145 O 0.99543 0.84271 0.92613 0.0
C146 C 0.95567 0.82767 0.90649 0.0
O147 O 0.04404 0.82557 0.72251 0.0
O148 O 1.00357 0.85801 0.65437 0.0
C149 C 0.09469 0.7952 0.80897 0.0
C150 C 0.04008 0.83582 0.67133 0.0
Zn151 Zn 0.54093 0.63937 0.17441 0.0
Zn152 Zn 0.44303 0.63388 0.3382 0.0
Zn153 Zn 0.49253 0.63547 0.25874 0.0
C154 C 0.53247 0.65884 0.37775 0.0
C155 C 0.43847 0.54969 0.30881 0.0
O156 O 0.44403 0.66441 0.1903 0.0
O157 O 0.49144 0.65339 0.11888 0.0
C158 C 0.59231 0.69276 0.24109 0.0
O159 O 0.53861 0.66523 0.32597 0.0
O160 O 0.49387 0.63979 0.39491 0.0
O161 O 0.41003 0.5756 0.33272 0.0
O162 O 0.47585 0.56535 0.28199 0.0
O163 O 0.58668 0.68715 0.19079 0.0
O164 O 0.5627 0.67349 0.27532 0.0
O165 O 0.51213 0.56686 0.24164 0.0
O166 O 0.56805 0.57897 0.17756 0.0
C167 C 0.54583 0.55277 0.20966 0.0
O168 O 0.42237 0.67309 0.24075 0.0
O169 O 0.40295 0.68656 0.32571 0.0
C170 C 0.45093 0.666 0.13814 0.0
C171 C 0.39593 0.6936 0.27555 0.0
C172 C 0.06717 0.92565 0.34653 0.0
C173 C 0.11601 0.90976 0.35101 0.0
C174 C 0.05769 0.96884 0.32806 0.0
C175 C 0.09688 0.9977 0.31477 0.0
H176 H 0.0363 0.90503 0.35929 0.0
H177 H 0.01979 0.9805 0.32768 0.0
S178 S 0.23088 0.97053 0.31499 0.0
N179 N 0.20341 0.92477 0.33647 0.0
N180 N 0.18593 0.00628 0.30323 0.0
C181 C 0.14562 0.98139 0.31652 0.0
C182 C 0.15512 0.93728 0.3343 0.0
C183 C 0.43935 0.54676 0.81329 0.0
C184 C 0.40849 0.55491 0.85804 0.0
C185 C 0.45962 0.50485 0.80541 0.0
C186 C 0.4507 0.46991 0.84262 0.0
H187 H 0.44861 0.57306 0.78464 0.0
H188 H 0.48241 0.49987 0.77001 0.0
S189 S 0.36688 0.47287 0.96243 0.0
N190 N 0.36493 0.52303 0.93584 0.0
N191 N 0.40539 0.44582 0.9238 0.0
C192 C 0.41837 0.47746 0.88643 0.0
C193 C 0.39689 0.51954 0.89353 0.0
C194 C 0.6343 0.53315 0.65683 0.0
C195 C 0.62289 0.56923 0.68906 0.0
C196 C 0.6235 0.49019 0.67403 0.0
C197 C 0.60137 0.48078 0.7248 0.0
H198 H 0.65127 0.53803 0.61728 0.0
H199 H 0.63183 0.46408 0.64634 0.0
S200 S 0.57162 0.56231 0.82922 0.0
N201 N 0.59169 0.59228 0.77683 0.0
N202 N 0.57469 0.51061 0.81052 0.0
C203 C 0.59248 0.51604 0.75921 0.0
C204 C 0.60268 0.56038 0.74118 0.0
C205 C 0.96985 0.92484 0.19098 0.0
C206 C 0.91996 0.91472 0.20268 0.0
C207 C 0.98916 0.96709 0.19962 0.0
C208 C 0.95872 0.00043 0.21909 0.0
H209 H 0.99347 0.90039 0.17326 0.0
H210 H 0.02704 0.9744 0.1879 0.0
S211 S 0.82694 0.98983 0.25923 0.0
N212 N 0.84181 0.94052 0.23818 0.0
N213 N 0.87767 0.02015 0.25295 0.0
C214 C 0.9096 0.99013 0.2332 0.0
C215 C 0.89028 0.94712 0.22538 0.0
C216 C 0.87878 0.04986 0.71768 0.0
C217 C 0.91687 0.07759 0.69844 0.0
C218 C 0.88884 0.00648 0.73467 0.0
C219 C 0.9374 0.98968 0.73378 0.0
H220 H 0.84065 0.06093 0.71652 0.0
H221 H 0.8581 0.98534 0.74646 0.0
S222 S 0.05054 0.05069 0.69137 0.0
N223 N 1.00525 0.08662 0.68306 0.0
N224 N 0.02417 0.005 0.71478 0.0
C225 C 0.97615 0.01797 0.71763 0.0
C226 C 0.96584 0.062 0.69998 0.0
C227 C 0.55931 0.43366 0.17475 0.0
C228 C 0.6067 0.42374 0.19616 0.0
C229 C 0.53746 0.47474 0.18288 0.0
C230 C 0.56254 0.50703 0.2124 0.0
H231 H 0.53975 0.41002 0.1501 0.0
H232 H 0.50207 0.48208 0.16364 0.0
S233 S 0.68571 0.49702 0.27908 0.0
N234 N 0.67665 0.4491 0.25033 0.0
N235 N 0.63562 0.52628 0.26502 0.0
C236 C 0.60878 0.49698 0.23585 0.0
C237 C 0.63084 0.45522 0.22802 0.0
C238 C 0.37083 0.44241 0.3368 0.0
C239 C 0.40938 0.41407 0.35288 0.0
C240 C 0.38094 0.48573 0.31937 0.0
C241 C 0.42997 0.50191 0.31655 0.0
H242 H 0.33257 0.43167 0.3402 0.0
H243 H 0.35003 0.50725 0.30985 0.0
S244 S 0.54398 0.43933 0.35102 0.0
N245 N 0.49831 0.40397 0.36242 0.0
N246 N 0.51741 0.48535 0.32938 0.0
C247 C 0.46892 0.47305 0.32988 0.0
C248 C 0.45856 0.42912 0.34826 0.0
C249 C 0.14144 0.03673 0.83401 0.0
C250 C 0.10962 0.07116 0.84698 0.0
C251 C 0.12311 0.99398 0.82813 0.0
C252 C 0.0723 0.98446 0.83422 0.0
H253 H 0.18105 0.04248 0.83111 0.0
H254 H 0.1491 0.96787 0.82039 0.0
S255 S 0.97342 0.06398 0.86452 0.0
N256 N 0.02485 0.0938 0.8631 0.0
N257 N 0.99021 0.01319 0.85153 0.0
C258 C 0.03977 0.019 0.84465 0.0
C259 C 0.05854 0.06251 0.8512 0.0
C260 C 0.11899 0.20523 1.0106 0.0
C261 C 0.15241 0.17273 0.99482 0.0
C262 C 0.09872 0.20442 0.0632 0.0
C263 C 0.11172 0.17148 0.10186 0.0
H264 H 0.10407 0.22823 0.98045 0.0
H265 H 0.0686 0.22664 0.07159 0.0
S266 S 0.20496 0.08444 0.08393 0.0
N267 N 0.20332 0.11098 0.02445 0.0
N268 N 0.16548 0.10988 0.12337 0.0
C269 C 0.14974 0.14244 0.08875 0.0
C270 C 0.17002 0.14293 0.03509 0.0
C271 C 0.44442 0.28473 0.53661 0.0
C272 C 0.41034 0.3173 0.51998 0.0
C273 C 0.46571 0.28466 0.58902 0.0
C274 C 0.45311 0.31663 0.62694 0.0
H275 H 0.45799 0.26152 0.50753 0.0
H276 H 0.49564 0.26198 0.59816 0.0
S277 S 0.35946 0.40405 0.60693 0.0
N278 N 0.35986 0.37853 0.54826 0.0
N279 N 0.40022 0.37827 0.64661 0.0
C280 C 0.4155 0.34647 0.61274 0.0
C281 C 0.39407 0.34688 0.55925 0.0
C282 C 0.63276 0.28484 0.03778 0.0
C283 C 0.66031 0.32216 0.05229 0.0
C284 C 0.61279 0.28114 0.98502 0.0
C285 C 0.62021 0.31431 0.94489 0.0
H286 H 0.6217 0.26096 0.06883 0.0
H287 H 0.58662 0.25477 0.97754 0.0
S288 S 0.69866 0.41351 0.95911 0.0
N289 N 0.70107 0.38903 1.01986 0.0
N290 N 0.66375 0.38172 0.92071 0.0
C291 C 0.65326 0.34854 0.95681 0.0
C292 C 0.67317 0.35262 1.01065 0.0
C293 C 0.94327 0.20029 0.50454 0.0
C294 C 0.91257 0.16636 0.52522 0.0
C295 C 0.9634 0.19834 0.45197 0.0
C296 C 0.95303 0.16276 0.41811 0.0
H297 H 0.95524 0.22654 0.53068 0.0
H298 H 0.9908 0.22272 0.43971 0.0
S299 S 0.86869 0.06935 0.44942 0.0
N300 N 0.86728 0.09938 0.50456 0.0
N301 N 0.9065 0.09524 0.40672 0.0
C302 C 0.91903 0.1308 0.43642 0.0
C303 C 0.89838 0.13277 0.4897 0.0
C304 C 0.90878 0.7809 0.03726 0.0
C305 C 0.87662 0.81436 0.05311 0.0
C306 C 0.92896 0.78113 0.98462 0.0
C307 C 0.9171 0.81442 0.94597 0.0
H308 H 0.92284 0.75743 0.06734 0.0
H309 H 0.95821 0.75804 0.97618 0.0
S310 S 0.82715 0.90411 0.96408 0.0
N311 N 0.82794 0.87754 0.02355 0.0
N312 N 0.86559 0.87754 0.92457 0.0
C313 C 0.88021 0.84455 0.95916 0.0
C314 C 0.86005 0.84467 1.01287 0.0
C315 C 0.62599 0.64112 0.48862 0.0
C316 C 0.61098 0.67191 0.52721 0.0
C317 C 0.60521 0.64079 0.43593 0.0
C318 C 0.56914 0.67158 0.41951 0.0
H319 H 0.65159 0.61523 0.50042 0.0
H320 H 0.61404 0.61382 0.40973 0.0
S321 S 0.52063 0.76174 0.50233 0.0
N322 N 0.56063 0.73625 0.54322 0.0
N323 N 0.52217 0.73568 0.44412 0.0
C324 C 0.55694 0.70468 0.45595 0.0
C325 C 0.57782 0.70496 0.50974 0.0
C326 C 0.35527 0.64329 0.03346 0.0
C327 C 0.37124 0.67138 0.99045 0.0
C328 C 0.37514 0.64669 0.0864 0.0
C329 C 0.41197 0.67803 0.09788 0.0
H330 H 0.33123 0.61563 0.02481 0.0
H331 H 0.36638 0.62117 0.11635 0.0
S332 S 0.45923 0.76444 1.00265 0.0
N333 N 0.41995 0.73582 0.9654 0.0
N334 N 0.45762 0.74188 0.06447 0.0
C335 C 0.42329 0.70968 0.0571 0.0
C336 C 0.40288 0.70642 1.00338 0.0
C337 C 0.12891 0.85018 0.55704 0.0
C338 C 0.11296 0.81718 0.52145 0.0
C339 C 0.11031 0.8525 0.6102 0.0
C340 C 0.07544 0.82171 0.62988 0.0
H341 H 0.15354 0.87606 0.54252 0.0
H342 H 0.11983 0.8808 0.63419 0.0
S343 S 0.02563 0.72631 0.55589 0.0
N344 N 0.06345 0.75077 0.51194 0.0
N345 N 0.0289 0.75526 0.61188 0.0
C346 C 0.06255 0.78649 0.59662 0.0
C347 C 0.08127 0.78412 0.54239 0.0
C348 C 0.26 0.21228 0.25349 0.0
C349 C 0.26799 0.24909 0.28603 0.0
C350 C 0.21168 0.1966 0.24336 0.0
C351 C 0.17039 0.21705 0.26631 0.0
H352 H 0.29125 0.19335 0.23977 0.0
H353 H 0.20716 0.1656 0.22305 0.0
S354 S 0.17193 0.31858 0.34669 0.0
N355 N 0.23102 0.30893 0.33453 0.0
N356 N 0.14039 0.27929 0.31635 0.0
C357 C 0.17799 0.25654 0.29382 0.0
C358 C 0.22693 0.27255 0.30375 0.0
C359 C 0.30663 0.27262 0.75872 0.0
C360 C 0.29225 0.23511 0.78926 0.0
C361 C 0.35653 0.28651 0.75765 0.0
C362 C 0.39314 0.26334 0.78749 0.0
H363 H 0.27892 0.29243 0.73763 0.0
H364 H 0.36567 0.31734 0.73711 0.0
S365 S 0.37454 0.15963 0.86739 0.0
N366 N 0.31851 0.17254 0.84475 0.0
N367 N 0.41203 0.19841 0.84328 0.0
C368 C 0.37932 0.22393 0.81464 0.0
C369 C 0.32881 0.20991 0.81556 0.0
C370 C 0.76379 0.27662 0.78862 0.0
C371 C 0.772 0.23868 0.75847 0.0
C372 C 0.7153 0.2904 0.80007 0.0
C373 C 0.67397 0.26687 0.78075 0.0
H374 H 0.79467 0.29776 0.79927 0.0
H375 H 0.71026 0.32213 0.81829 0.0
S376 S 0.67667 0.16145 0.70836 0.0
N377 N 0.73574 0.17465 0.71662 0.0
N378 N 0.64472 0.20067 0.73723 0.0
C379 C 0.6822 0.2264 0.75595 0.0
C380 C 0.73135 0.21234 0.74472 0.0
C381 C 0.83151 0.27043 0.21805 0.0
C382 C 0.79458 0.25378 0.25267 0.0
C383 C 0.87863 0.25129 0.2176 0.0
C384 C 0.89043 0.21501 0.25195 0.0
H385 H 0.82343 0.29737 0.18978 0.0
H386 H 0.90533 0.26356 0.1881 0.0
S387 S 0.80665 0.16142 0.35259 0.0
N388 N 0.7729 0.20115 0.32447 0.0
N389 N 0.86152 0.16464 0.32315 0.0
C390 C 0.85439 0.19967 0.28884 0.0
C391 C 0.80628 0.21916 0.28917 0.0
C392 C 0.76976 0.77216 0.79274 0.0
C393 C 0.76215 0.73618 0.75869 0.0
C394 C 0.81786 0.78846 0.80283 0.0
C395 C 0.85932 0.76946 0.77841 0.0
H396 H 0.73827 0.79 0.80793 0.0
H397 H 0.82195 0.81881 0.82465 0.0
S398 S 0.85899 0.67052 0.69321 0.0
N399 N 0.79985 0.67869 0.70671 0.0
N400 N 0.89002 0.70941 0.72491 0.0
C401 C 0.85221 0.73078 0.74902 0.0
C402 C 0.80351 0.71417 0.7391 0.0
C403 C 0.70023 0.77003 0.22698 0.0
C404 C 0.73713 0.74807 0.25722 0.0
C405 C 0.6512 0.75449 0.22706 0.0
C406 C 0.63749 0.71664 0.25762 0.0
H407 H 0.70975 0.79808 0.20105 0.0
H408 H 0.62446 0.77047 0.20014 0.0
S409 S 0.72039 0.64972 0.34691 0.0
N410 N 0.7568 0.68885 0.32156 0.0
N411 N 0.66453 0.65925 0.32123 0.0
C412 C 0.67359 0.6962 0.29083 0.0
C413 C 0.72362 0.71198 0.29058 0.0
C414 C 0.26156 0.71099 0.25333 0.0
C415 C 0.25432 0.74863 0.28433 0.0
C416 C 0.30968 0.69667 0.24119 0.0
C417 C 0.35158 0.71932 0.26061 0.0
H418 H 0.23024 0.6903 0.24284 0.0
H419 H 0.31397 0.66495 0.22272 0.0
S420 S 0.35149 0.82389 0.33483 0.0
N421 N 0.29211 0.81171 0.3268 0.0
N422 N 0.38244 0.78456 0.30494 0.0
C423 C 0.34433 0.7597 0.28592 0.0
C424 C 0.29555 0.77435 0.29789 0.0
C425 C 0.21924 0.76282 0.75398 0.0
C426 C 0.23241 0.72827 0.7902 0.0
C427 C 0.17188 0.78201 0.75593 0.0
C428 C 0.13681 0.76714 0.79439 0.0
H429 H 0.24622 0.77614 0.72549 0.0
H430 H 0.164 0.81045 0.73001 0.0
S431 S 0.1521 0.67393 0.89316 0.0
N432 N 0.20584 0.67727 0.86145 0.0
N433 N 0.11718 0.71307 0.86561 0.0
C434 C 0.14891 0.73068 0.82816 0.0
C435 C 0.19677 0.71132 0.82604 0.0
loop_
_geom_bond_atom_site_label_1
_geom_bond_atom_site_label_2
_geom_bond_distance
_geom_bond_site_symmetry_2
_ccdc_geom_bond_type
H0 C3 0.929 . S
H1 C6 0.929 . S
H2 C8 0.930 . S
C3 H0 0.929 . S
C3 C4 1.398 . S
C3 C5 1.396 . S
C4 C3 1.398 . S
C4 C8 1.407 . S
C5 C3 1.396 . S
C5 C6 1.394 . S
C6 H1 0.929 . S
C6 C5 1.394 . S
C6 C7 1.382 . S
C7 C6 1.382 . S
C7 C8 1.392 . S
C7 N9 1.420 . S
C8 H2 0.930 . S
C8 C4 1.407 . S
C8 C7 1.392 . S
N9 C7 1.420 . S
N9 C10 1.244 . S
C10 N9 1.244 . S
H11 C14 0.929 . S
H12 C17 0.929 . S
H13 C19 0.930 . S
C14 H11 0.929 . S
C14 C15 1.398 . S
C14 C16 1.396 . S
C15 C14 1.398 . S
C15 C19 1.407 . S
C16 C14 1.396 . S
C16 C17 1.394 . S
C17 H12 0.929 . S
C17 C16 1.394 . S
C17 C18 1.382 . S
C18 C17 1.382 . S
C18 C19 1.392 . S
C18 N20 1.420 . S
C19 H13 0.930 . S
C19 C15 1.407 . S
C19 C18 1.392 . S
N20 C18 1.420 . S
N20 C21 1.244 . S
C21 N20 1.244 . S
H22 C25 0.929 . S
H23 C28 0.929 . S
H24 C30 0.930 . S
C25 H22 0.929 . S
C25 C26 1.398 . S
C25 C27 1.396 . S
C26 C25 1.398 . S
C26 C30 1.407 . S
C27 C25 1.396 . S
C27 C28 1.394 . S
C28 H23 0.929 . S
C28 C27 1.394 . S
C28 C29 1.382 . S
C29 C28 1.382 . S
C29 C30 1.392 . S
C29 N31 1.420 . S
C30 H24 0.930 . S
C30 C26 1.407 . S
C30 C29 1.392 . S
N31 C29 1.420 . S
N31 C32 1.244 . S
C32 N31 1.244 . S
H33 C36 0.929 . S
H34 C39 0.929 . S
H35 C41 0.930 . S
C36 H33 0.929 . S
C36 C37 1.398 . S
C36 C38 1.396 . S
C37 C36 1.398 . S
C37 C41 1.407 . S
C38 C36 1.396 . S
C38 C39 1.394 . S
C39 H34 0.929 . S
C39 C38 1.394 . S
C39 C40 1.382 . S
C40 C39 1.382 . S
C40 C41 1.392 . S
C40 N42 1.420 . S
C41 H35 0.930 . S
C41 C37 1.407 . S
C41 C40 1.392 . S
N42 C40 1.420 . S
N42 C43 1.244 . S
C43 N42 1.244 . S
H44 C47 0.929 . S
H45 C50 0.929 . S
H46 C52 0.930 . S
C47 H44 0.929 . S
C47 C48 1.398 . S
C47 C49 1.396 . S
C48 C47 1.398 . S
C48 C52 1.407 . S
C49 C47 1.396 . S
C49 C50 1.394 . S
C50 H45 0.929 . S
C50 C49 1.394 . S
C50 C51 1.382 . S
C51 C50 1.382 . S
C51 C52 1.392 . S
C51 N53 1.420 . S
C52 H46 0.930 . S
C52 C48 1.407 . S
C52 C51 1.392 . S
N53 C51 1.420 . S
N53 C54 1.244 . S
C54 N53 1.244 . S
H55 C58 0.929 . S
H56 C61 0.929 . S
H57 C63 0.930 . S
C58 H55 0.929 . S
C58 C59 1.398 . S
C58 C60 1.396 . S
C59 C58 1.398 . S
C59 C63 1.407 . S
C60 C58 1.396 . S
C60 C61 1.394 . S
C61 H56 0.929 . S
C61 C60 1.394 . S
C61 C62 1.382 . S
C62 C61 1.382 . S
C62 C63 1.392 . S
C62 N64 1.420 . S
C63 H57 0.930 . S
C63 C59 1.407 . S
C63 C62 1.392 . S
N64 C62 1.420 . S
N64 C65 1.244 . S
C65 N64 1.244 . S
H66 C69 0.929 . S
H67 C72 0.929 . S
H68 C74 0.930 . S
C69 H66 0.929 . S
C69 C70 1.398 . S
C69 C71 1.396 . S
C70 C69 1.398 . S
C70 C74 1.407 . S
C71 C69 1.396 . S
C71 C72 1.394 . S
C72 H67 0.929 . S
C72 C71 1.394 . S
C72 C73 1.382 . S
C73 C72 1.382 . S
C73 C74 1.392 . S
C73 N75 1.420 . S
C74 H68 0.930 . S
C74 C70 1.407 . S
C74 C73 1.392 . S
N75 C73 1.420 . S
N75 C76 1.244 . S
C76 N75 1.244 . S
H77 C80 0.929 . S
H78 C83 0.929 . S
H79 C85 0.930 . S
C80 H77 0.929 . S
C80 C81 1.398 . S
C80 C82 1.396 . S
C81 C80 1.398 . S
C81 C85 1.407 . S
C82 C80 1.396 . S
C82 C83 1.394 . S
C83 H78 0.929 . S
C83 C82 1.394 . S
C83 C84 1.382 . S
C84 C83 1.382 . S
C84 C85 1.392 . S
C84 N86 1.420 . S
C85 H79 0.930 . S
C85 C81 1.407 . S
C85 C84 1.392 . S
N86 C84 1.420 . S
N86 C87 1.244 . S
C87 N86 1.244 . S
Zn88 O94 1.920 . S
Zn88 O100 1.898 . S
Zn88 O103 1.905 . S
Zn89 O97 1.905 1_655 S
Zn89 O98 1.898 . S
Zn89 O106 1.920 . S
Zn90 O93 2.080 1_455 S
Zn90 O96 2.114 . S
Zn90 O99 2.120 1_455 S
Zn90 O101 2.120 . S
Zn90 O102 2.114 . S
Zn90 O105 2.080 1_455 S
C91 O96 1.166 . S
C91 O97 1.182 . S
C92 O98 1.167 . S
C92 O99 1.299 . S
O93 Zn90 2.080 1_655 S
O93 C107 1.305 . S
O94 Zn88 1.920 . S
O94 C107 1.234 1_455 S
C95 O100 1.167 . S
C95 O101 1.299 . S
O96 Zn90 2.114 . S
O96 C91 1.166 . S
O97 Zn89 1.905 1_455 S
O97 C91 1.182 . S
O98 Zn89 1.898 . S
O98 C92 1.167 . S
O99 Zn90 2.120 1_655 S
O99 C92 1.299 . S
O100 Zn88 1.898 . S
O100 C95 1.167 . S
O101 Zn90 2.120 . S
O101 C95 1.299 . S
O102 Zn90 2.114 . S
O102 C104 1.166 . S
O103 Zn88 1.905 . S
O103 C104 1.182 . S
C104 O102 1.166 . S
C104 O103 1.182 . S
O105 Zn90 2.080 1_655 S
O105 C108 1.305 . S
O106 Zn89 1.920 . S
O106 C108 1.234 . S
C107 O93 1.305 . S
C107 O94 1.234 1_655 S
C108 O105 1.305 . S
C108 O106 1.234 . S
Zn109 O115 1.920 . S
Zn109 O121 1.898 . S
Zn109 O124 1.905 . S
Zn110 O118 1.905 . S
Zn110 O119 1.898 . S
Zn110 O127 1.920 . S
Zn111 O114 2.080 . S
Zn111 O117 2.114 . S
Zn111 O120 2.120 . S
Zn111 O122 2.120 . S
Zn111 O123 2.114 . S
Zn111 O126 2.080 . S
C112 O117 1.166 . S
C112 O118 1.182 . S
C113 O119 1.167 . S
C113 O120 1.299 . S
O114 Zn111 2.080 . S
O114 C128 1.305 . S
O115 Zn109 1.920 . S
O115 C128 1.234 . S
C116 O121 1.167 . S
C116 O122 1.299 . S
O117 Zn111 2.114 . S
O117 C112 1.166 . S
O118 Zn110 1.905 . S
O118 C112 1.182 . S
O119 Zn110 1.898 . S
O119 C113 1.167 . S
O120 Zn111 2.120 . S
O120 C113 1.299 . S
O121 Zn109 1.898 . S
O121 C116 1.167 . S
O122 Zn111 2.120 . S
O122 C116 1.299 . S
O123 Zn111 2.114 . S
O123 C125 1.166 . S
O124 Zn109 1.905 . S
O124 C125 1.182 . S
C125 O123 1.166 . S
C125 O124 1.182 . S
O126 Zn111 2.080 . S
O126 C129 1.305 . S
O127 Zn110 1.920 . S
O127 C129 1.234 . S
C128 O114 1.305 . S
C128 O115 1.234 . S
C129 O126 1.305 . S
C129 O127 1.234 . S
Zn130 O136 1.920 . S
Zn130 O142 1.898 . S
Zn130 O145 1.905 1_455 S
Zn131 O139 1.905 . S
Zn131 O140 1.898 . S
Zn131 O148 1.920 1_655 S
Zn132 O135 2.080 . S
Zn132 O138 2.114 1_455 S
Zn132 O141 2.120 1_455 S
Zn132 O143 2.120 . S
Zn132 O144 2.114 1_455 S
Zn132 O147 2.080 . S
C133 O138 1.166 . S
C133 O139 1.182 . S
C134 O140 1.167 . S
C134 O141 1.299 . S
O135 Zn132 2.080 . S
O135 C149 1.305 . S
O136 Zn130 1.920 . S
O136 C149 1.234 . S
C137 O142 1.167 . S
C137 O143 1.299 . S
O138 Zn132 2.114 1_655 S
O138 C133 1.166 . S
O139 Zn131 1.905 . S
O139 C133 1.182 . S
O140 Zn131 1.898 . S
O140 C134 1.167 . S
O141 Zn132 2.120 1_655 S
O141 C134 1.299 . S
O142 Zn130 1.898 . S
O142 C137 1.167 . S
O143 Zn132 2.120 . S
O143 C137 1.299 . S
O144 Zn132 2.114 1_655 S
O144 C146 1.166 . S
O145 Zn130 1.905 1_655 S
O145 C146 1.182 . S
C146 O144 1.166 . S
C146 O145 1.182 . S
O147 Zn132 2.080 . S
O147 C150 1.305 . S
O148 Zn131 1.920 1_455 S
O148 C150 1.234 . S
C149 O135 1.305 . S
C149 O136 1.234 . S
C150 O147 1.305 . S
C150 O148 1.234 . S
Zn151 O157 1.920 . S
Zn151 O163 1.898 . S
Zn151 O166 1.905 . S
Zn152 O160 1.905 . S
Zn152 O161 1.898 . S
Zn152 O169 1.920 . S
Zn153 O156 2.080 . S
Zn153 O159 2.114 . S
Zn153 O162 2.120 . S
Zn153 O164 2.120 . S
Zn153 O165 2.114 . S
Zn153 O168 2.080 . S
C154 O159 1.166 . S
C154 O160 1.182 . S
C155 O161 1.167 . S
C155 O162 1.299 . S
O156 Zn153 2.080 . S
O156 C170 1.305 . S
O157 Zn151 1.920 . S
O157 C170 1.234 . S
C158 O163 1.167 . S
C158 O164 1.299 . S
O159 Zn153 2.114 . S
O159 C154 1.166 . S
O160 Zn152 1.905 . S
O160 C154 1.182 . S
O161 Zn152 1.898 . S
O161 C155 1.167 . S
O162 Zn153 2.120 . S
O162 C155 1.299 . S
O163 Zn151 1.898 . S
O163 C158 1.167 . S
O164 Zn153 2.120 . S
O164 C158 1.299 . S
O165 Zn153 2.114 . S
O165 C167 1.166 . S
O166 Zn151 1.905 . S
O166 C167 1.182 . S
C167 O165 1.166 . S
C167 O166 1.182 . S
O168 Zn153 2.080 . S
O168 C171 1.305 . S
O169 Zn152 1.920 . S
O169 C171 1.234 . S
C170 O156 1.305 . S
C170 O157 1.234 . S
C171 O168 1.305 . S
C171 O169 1.234 . S
C172 C173 1.369 . S
C172 C174 1.419 . S
C172 H176 0.930 . S
C173 C172 1.369 . S
C173 C182 1.429 . S
C174 C172 1.419 . S
C174 C175 1.363 . S
C174 H177 0.929 . S
C175 C174 1.363 . S
C175 C181 1.428 . S
H176 C172 0.930 . S
H177 C174 0.929 . S
S178 N179 1.613 . S
S178 N180 1.610 . S
N179 S178 1.613 . S
N179 C182 1.350 . S
N180 S178 1.610 . S
N180 C181 1.351 . S
C181 C175 1.428 . S
C181 N180 1.351 . S
C181 C182 1.434 . S
C182 C173 1.429 . S
C182 N179 1.350 . S
C182 C181 1.434 . S
C183 C184 1.369 . S
C183 C185 1.419 . S
C183 H187 0.930 . S
C184 C183 1.369 . S
C184 C193 1.429 . S
C185 C183 1.419 . S
C185 C186 1.363 . S
C185 H188 0.929 . S
C186 C185 1.363 . S
C186 C192 1.428 . S
H187 C183 0.930 . S
H188 C185 0.929 . S
S189 N190 1.613 . S
S189 N191 1.610 . S
N190 S189 1.613 . S
N190 C193 1.350 . S
N191 S189 1.610 . S
N191 C192 1.351 . S
C192 C186 1.428 . S
C192 N191 1.351 . S
C192 C193 1.434 . S
C193 C184 1.429 . S
C193 N190 1.350 . S
C193 C192 1.434 . S
C194 C195 1.369 . S
C194 C196 1.419 . S
C194 H198 0.930 . S
C195 C194 1.369 . S
C195 C204 1.429 . S
C196 C194 1.419 . S
C196 C197 1.363 . S
C196 H199 0.929 . S
C197 C196 1.363 . S
C197 C203 1.428 . S
H198 C194 0.930 . S
H199 C196 0.929 . S
S200 N201 1.613 . S
S200 N202 1.610 . S
N201 S200 1.613 . S
N201 C204 1.350 . S
N202 S200 1.610 . S
N202 C203 1.351 . S
C203 C197 1.428 . S
C203 N202 1.351 . S
C203 C204 1.434 . S
C204 C195 1.429 . S
C204 N201 1.350 . S
C204 C203 1.434 . S
C205 C206 1.369 . S
C205 C207 1.419 . S
C205 H209 0.930 . S
C206 C205 1.369 . S
C206 C215 1.429 . S
C207 C205 1.419 . S
C207 C208 1.363 . S
C207 H210 0.929 . S
C208 C207 1.363 . S
C208 C214 1.428 . S
H209 C205 0.930 . S
H210 C207 0.929 . S
S211 N212 1.613 1_545 S
S211 N213 1.610 . S
N212 S211 1.613 1_565 S
N212 C215 1.350 . S
N213 S211 1.610 . S
N213 C214 1.351 1_545 S
C214 C208 1.428 . S
C214 N213 1.351 1_565 S
C214 C215 1.434 . S
C215 C206 1.429 . S
C215 N212 1.350 . S
C215 C214 1.434 . S
C216 C217 1.369 . S
C216 C218 1.419 . S
C216 H220 0.930 . S
C217 C216 1.369 . S
C217 C226 1.429 . S
C218 C216 1.419 . S
C218 C219 1.362 1_545 S
C218 H221 0.929 1_545 S
C219 C218 1.362 1_565 S
C219 C225 1.427 1_565 S
H220 C216 0.930 . S
H221 C218 0.929 1_565 S
S222 N223 1.613 . S
S222 N224 1.610 . S
N223 S222 1.613 . S
N223 C226 1.350 . S
N224 S222 1.610 . S
N224 C225 1.351 . S
C225 C219 1.427 1_545 S
C225 N224 1.351 . S
C225 C226 1.434 . S
C226 C217 1.429 . S
C226 N223 1.350 . S
C226 C225 1.434 . S
C227 C228 1.369 . S
C227 C229 1.419 . S
C227 H231 0.930 . S
C228 C227 1.369 . S
C228 C237 1.429 . S
C229 C227 1.419 . S
C229 C230 1.363 . S
C229 H232 0.929 . S
C230 C229 1.363 . S
C230 C236 1.428 . S
H231 C227 0.930 . S
H232 C229 0.929 . S
S233 N234 1.613 . S
S233 N235 1.610 . S
N234 S233 1.613 . S
N234 C237 1.350 . S
N235 S233 1.610 . S
N235 C236 1.351 . S
C236 C230 1.428 . S
C236 N235 1.351 . S
C236 C237 1.434 . S
C237 C228 1.429 . S
C237 N234 1.350 . S
C237 C236 1.434 . S
C238 C239 1.369 . S
C238 C240 1.419 . S
C238 H242 0.930 . S
C239 C238 1.369 . S
C239 C248 1.429 . S
C240 C238 1.419 . S
C240 C241 1.363 . S
C240 H243 0.929 . S
C241 C240 1.363 . S
C241 C247 1.428 . S
H242 C238 0.930 . S
H243 C240 0.929 . S
S244 N245 1.613 . S
S244 N246 1.610 . S
N245 S244 1.613 . S
N245 C248 1.350 . S
N246 S244 1.610 . S
N246 C247 1.351 . S
C247 C241 1.428 . S
C247 N246 1.351 . S
C247 C248 1.434 . S
C248 C239 1.429 . S
C248 N245 1.350 . S
C248 C247 1.434 . S
C249 C250 1.369 . S
C249 C251 1.419 . S
C249 H253 0.930 . S
C250 C249 1.369 . S
C250 C259 1.429 . S
C251 C249 1.419 . S
C251 C252 1.363 . S
C251 H254 0.929 1_545 S
C252 C251 1.363 . S
C252 C258 1.428 . S
H253 C249 0.930 . S
H254 C251 0.929 1_565 S
S255 N256 1.607 1_655 S
S255 N257 1.609 1_655 S
N256 S255 1.607 1_455 S
N256 C259 1.350 . S
N257 S255 1.609 1_455 S
N257 C258 1.351 . S
C258 C252 1.428 . S
C258 N257 1.351 . S
C258 C259 1.434 . S
C259 C250 1.429 . S
C259 N256 1.350 . S
C259 C258 1.434 . S
C260 C261 1.369 . S
C260 C262 1.419 . S
C260 H264 0.930 1_554 S
C261 C260 1.369 . S
C261 C270 1.429 . S
C262 C260 1.419 . S
C262 C263 1.363 . S
C262 H265 0.929 . S
C263 C262 1.363 . S
C263 C269 1.428 . S
H264 C260 0.930 1_556 S
H265 C262 0.929 . S
S266 N267 1.613 . S
S266 N268 1.610 . S
N267 S266 1.613 . S
N267 C270 1.350 . S
N268 S266 1.610 . S
N268 C269 1.351 . S
C269 C263 1.428 . S
C269 N268 1.351 . S
C269 C270 1.434 . S
C270 C261 1.429 . S
C270 N267 1.350 . S
C270 C269 1.434 . S
C271 C272 1.369 . S
C271 C273 1.419 . S
C271 H275 0.930 . S
C272 C271 1.369 . S
C272 C281 1.429 . S
C273 C271 1.419 . S
C273 C274 1.363 . S
C273 H276 0.929 . S
C274 C273 1.363 . S
C274 C280 1.428 . S
H275 C271 0.930 . S
H276 C273 0.929 . S
S277 N278 1.613 . S
S277 N279 1.610 . S
N278 S277 1.613 . S
N278 C281 1.350 . S
N279 S277 1.610 . S
N279 C280 1.351 . S
C280 C274 1.428 . S
C280 N279 1.351 . S
C280 C281 1.434 . S
C281 C272 1.429 . S
C281 N278 1.350 . S
C281 C280 1.434 . S
C282 C283 1.369 . S
C282 C284 1.419 . S
C282 H286 0.930 . S
C283 C282 1.369 . S
C283 C292 1.429 . S
C284 C282 1.419 . S
C284 C285 1.363 . S
C284 H287 0.929 . S
C285 C284 1.363 . S
C285 C291 1.428 . S
H286 C282 0.930 . S
H287 C284 0.929 . S
S288 N289 1.613 . S
S288 N290 1.610 . S
N289 S288 1.613 . S
N289 C292 1.350 . S
N290 S288 1.610 . S
N290 C291 1.351 . S
C291 C285 1.428 . S
C291 N290 1.351 . S
C291 C292 1.434 . S
C292 C283 1.429 . S
C292 N289 1.350 . S
C292 C291 1.434 . S
C293 C294 1.369 . S
C293 C295 1.419 . S
C293 H297 0.930 . S
C294 C293 1.369 . S
C294 C303 1.429 . S
C295 C293 1.419 . S
C295 C296 1.363 . S
C295 H298 0.929 . S
C296 C295 1.363 . S
C296 C302 1.428 . S
H297 C293 0.930 . S
H298 C295 0.929 . S
S299 N300 1.613 . S
S299 N301 1.610 . S
N300 S299 1.613 . S
N300 C303 1.350 . S
N301 S299 1.610 . S
N301 C302 1.351 . S
C302 C296 1.428 . S
C302 N301 1.351 . S
C302 C303 1.434 . S
C303 C294 1.429 . S
C303 N300 1.350 . S
C303 C302 1.434 . S
C304 C305 1.369 . S
C304 C306 1.419 . S
C304 H308 0.930 1_556 S
C305 C304 1.369 . S
C305 C314 1.431 . S
C306 C304 1.419 . S
C306 C307 1.363 . S
C306 H309 0.929 . S
C307 C306 1.363 . S
C307 C313 1.428 . S
H308 C304 0.930 1_554 S
H309 C306 0.929 . S
S310 N311 1.613 . S
S310 N312 1.610 . S
N311 S310 1.613 . S
N311 C314 1.350 . S
N312 S310 1.610 . S
N312 C313 1.351 . S
C313 C307 1.428 . S
C313 N312 1.351 . S
C313 C314 1.434 . S
C314 C305 1.431 . S
C314 N311 1.350 . S
C314 C313 1.434 . S
C315 C316 1.369 . S
C315 C317 1.419 . S
C315 H319 0.930 . S
C316 C315 1.369 . S
C316 C325 1.429 . S
C317 C315 1.419 . S
C317 C318 1.363 . S
C317 H320 0.929 . S
C318 C317 1.363 . S
C318 C324 1.428 . S
H319 C315 0.930 . S
H320 C317 0.929 . S
S321 N322 1.613 . S
S321 N323 1.610 . S
N322 S321 1.613 . S
N322 C325 1.350 . S
N323 S321 1.610 . S
N323 C324 1.351 . S
C324 C318 1.428 . S
C324 N323 1.351 . S
C324 C325 1.434 . S
C325 C316 1.429 . S
C325 N322 1.350 . S
C325 C324 1.434 . S
C326 C327 1.369 1_554 S
C326 C328 1.419 . S
C326 H330 0.930 . S
C327 C326 1.369 1_556 S
C327 C336 1.429 1_556 S
C328 C326 1.419 . S
C328 C329 1.363 . S
C328 H331 0.929 . S
C329 C328 1.363 . S
C329 C335 1.428 . S
H330 C326 0.930 . S
H331 C328 0.929 . S
S332 N333 1.613 1_554 S
S332 N334 1.610 . S
N333 S332 1.613 1_556 S
N333 C336 1.350 1_556 S
N334 S332 1.610 . S
N334 C335 1.351 . S
C335 C329 1.428 . S
C335 N334 1.351 . S
C335 C336 1.434 . S
C336 C327 1.429 1_554 S
C336 N333 1.350 1_554 S
C336 C335 1.434 . S
C337 C338 1.369 . S
C337 C339 1.419 . S
C337 H341 0.930 . S
C338 C337 1.369 . S
C338 C347 1.429 . S
C339 C337 1.419 . S
C339 C340 1.363 . S
C339 H342 0.929 . S
C340 C339 1.363 . S
C340 C346 1.428 . S
H341 C337 0.930 . S
H342 C339 0.929 . S
S343 N344 1.613 . S
S343 N345 1.610 . S
N344 S343 1.613 . S
N344 C347 1.350 . S
N345 S343 1.610 . S
N345 C346 1.351 . S
C346 C340 1.428 . S
C346 N345 1.351 . S
C346 C347 1.434 . S
C347 C338 1.429 . S
C347 N344 1.350 . S
C347 C346 1.434 . S
C348 C349 1.369 . S
C348 C350 1.419 . S
C348 H352 0.930 . S
C349 C348 1.369 . S
C349 C358 1.429 . S
C350 C348 1.419 . S
C350 C351 1.363 . S
C350 H353 0.929 . S
C351 C350 1.363 . S
C351 C357 1.428 . S
H352 C348 0.930 . S
H353 C350 0.929 . S
S354 N355 1.613 . S
S354 N356 1.610 . S
N355 S354 1.613 . S
N355 C358 1.350 . S
N356 S354 1.610 . S
N356 C357 1.351 . S
C357 C351 1.428 . S
C357 N356 1.351 . S
C357 C358 1.434 . S
C358 C349 1.429 . S
C358 N355 1.350 . S
C358 C357 1.434 . S
C359 C360 1.369 . S
C359 C361 1.419 . S
C359 H363 0.930 . S
C360 C359 1.369 . S
C360 C369 1.429 . S
C361 C359 1.419 . S
C361 C362 1.363 . S
C361 H364 0.929 . S
C362 C361 1.363 . S
C362 C368 1.428 . S
H363 C359 0.930 . S
H364 C361 0.929 . S
S365 N366 1.613 . S
S365 N367 1.610 . S
N366 S365 1.613 . S
N366 C369 1.350 . S
N367 S365 1.610 . S
N367 C368 1.351 . S
C368 C362 1.428 . S
C368 N367 1.351 . S
C368 C369 1.434 . S
C369 C360 1.429 . S
C369 N366 1.350 . S
C369 C368 1.434 . S
C370 C371 1.369 . S
C370 C372 1.419 . S
C370 H374 0.930 . S
C371 C370 1.369 . S
C371 C380 1.429 . S
C372 C370 1.419 . S
C372 C373 1.363 . S
C372 H375 0.929 . S
C373 C372 1.363 . S
C373 C379 1.428 . S
H374 C370 0.930 . S
H375 C372 0.929 . S
S376 N377 1.613 . S
S376 N378 1.610 . S
N377 S376 1.613 . S
N377 C380 1.350 . S
N378 S376 1.610 . S
N378 C379 1.351 . S
C379 C373 1.428 . S
C379 N378 1.351 . S
C379 C380 1.434 . S
C380 C371 1.429 . S
C380 N377 1.350 . S
C380 C379 1.434 . S
C381 C382 1.369 . S
C381 C383 1.419 . S
C381 H385 0.930 . S
C382 C381 1.369 . S
C382 C391 1.429 . S
C383 C381 1.419 . S
C383 C384 1.363 . S
C383 H386 0.929 . S
C384 C383 1.363 . S
C384 C390 1.428 . S
H385 C381 0.930 . S
H386 C383 0.929 . S
S387 N388 1.613 . S
S387 N389 1.610 . S
N388 S387 1.613 . S
N388 C391 1.350 . S
N389 S387 1.610 . S
N389 C390 1.351 . S
C390 C384 1.428 . S
C390 N389 1.351 . S
C390 C391 1.434 . S
C391 C382 1.429 . S
C391 N388 1.350 . S
C391 C390 1.434 . S
C392 C393 1.369 . S
C392 C394 1.419 . S
C392 H396 0.930 . S
C393 C392 1.369 . S
C393 C402 1.429 . S
C394 C392 1.419 . S
C394 C395 1.363 . S
C394 H397 0.929 . S
C395 C394 1.363 . S
C395 C401 1.428 . S
H396 C392 0.930 . S
H397 C394 0.929 . S
S398 N399 1.613 . S
S398 N400 1.610 . S
N399 S398 1.613 . S
N399 C402 1.350 . S
N400 S398 1.610 . S
N400 C401 1.351 . S
C401 C395 1.428 . S
C401 N400 1.351 . S
C401 C402 1.434 . S
C402 C393 1.429 . S
C402 N399 1.350 . S
C402 C401 1.434 . S
C403 C404 1.369 . S
C403 C405 1.419 . S
C403 H407 0.930 . S
C404 C403 1.369 . S
C404 C413 1.429 . S
C405 C403 1.419 . S
C405 C406 1.363 . S
C405 H408 0.929 . S
C406 C405 1.363 . S
C406 C412 1.428 . S
H407 C403 0.930 . S
H408 C405 0.929 . S
S409 N410 1.613 . S
S409 N411 1.610 . S
N410 S409 1.613 . S
N410 C413 1.350 . S
N411 S409 1.610 . S
N411 C412 1.351 . S
C412 C406 1.428 . S
C412 N411 1.351 . S
C412 C413 1.434 . S
C413 C404 1.429 . S
C413 N410 1.350 . S
C413 C412 1.434 . S
C414 C415 1.369 . S
C414 C416 1.419 . S
C414 H418 0.930 . S
C415 C414 1.369 . S
C415 C424 1.429 . S
C416 C414 1.419 . S
C416 C417 1.363 . S
C416 H419 0.929 . S
C417 C416 1.363 . S
C417 C423 1.428 . S
H418 C414 0.930 . S
H419 C416 0.929 . S
S420 N421 1.613 . S
S420 N422 1.610 . S
N421 S420 1.613 . S
N421 C424 1.350 . S
N422 S420 1.610 . S
N422 C423 1.351 . S
C423 C417 1.428 . S
C423 N422 1.351 . S
C423 C424 1.434 . S
C424 C415 1.429 . S
C424 N421 1.350 . S
C424 C423 1.434 . S
C425 C426 1.369 . S
C425 C427 1.419 . S
C425 H429 0.930 . S
C426 C425 1.369 . S
C426 C435 1.429 . S
C427 C425 1.419 . S
C427 C428 1.363 . S
C427 H430 0.929 . S
C428 C427 1.363 . S
C428 C434 1.428 . S
H429 C425 0.930 . S
H430 C427 0.929 . S
S431 N432 1.613 . S
S431 N433 1.610 . S
N432 S431 1.613 . S
N432 C435 1.350 . S
N433 S431 1.610 . S
N433 C434 1.351 . S
C434 C428 1.428 . S
C434 N433 1.351 . S
C434 C435 1.434 . S
C435 C426 1.429 . S
C435 N432 1.350 . S
C435 C434 1.434 . S
C173 C71 1.443 . S
C175 C104 1.405 1_565 S
C186 C112 1.308 . S
C184 C81 1.389 . S
C197 C116 1.403 . S
C195 C49 1.450 . S
C206 C59 1.392 . S
C208 C92 1.301 1_565 S
C219 C133 1.380 . S
C217 C27 1.421 . S
C230 C167 1.426 . S
C228 C38 1.468 . S
C239 C5 1.430 . S
C241 C155 1.377 . S
C250 C16 1.462 . S
C252 C137 1.420 1_545 S
C263 C91 1.300 . S
C261 C15 1.442 1_554 S
C274 C125 1.321 . S
C272 C4 1.465 . S
C285 C129 1.293 . S
C283 C37 1.440 1_556 S
C296 C107 1.316 . S
C294 C26 1.464 . S
C307 C146 1.390 . S
C305 C60 1.500 1_556 S
C316 C48 1.504 . S
C318 C154 1.362 . S
C329 C170 1.379 . S
C327 C82 1.498 . S
C338 C70 1.506 . S
C340 C150 1.366 . S
C351 C95 1.328 . S
C349 C10 1.486 . S
C362 C113 1.366 . S
C360 C21 1.529 . S
C371 C32 1.482 . S
C373 C128 1.334 . S
C384 C108 1.382 . S
C382 C43 1.526 . S
C395 C134 1.381 . S
C393 C54 1.553 . S
C404 C65 1.516 . S
C406 C158 1.339 . S
C415 C76 1.550 . S
C417 C171 1.382 . S
C426 C87 1.507 . S
C428 C149 1.339 . S
