# Generated by pormake.
# Topology hwx, (6,3)-cn, num edge types: 1
# Building blocks:
#     Node 0, Type 0, BuildingBlock: OJICUG_clean_sbu_0, # of connection points: 6
#     Node 1, Type 0, BuildingBlock: OJICUG_clean_sbu_0, # of connection points: 6
#     Node 2, Type 0, BuildingBlock: OJICUG_clean_sbu_0, # of connection points: 6
#     Node 3, Type 0, BuildingBlock: OJICUG_clean_sbu_0, # of connection points: 6
#     Node 4, Type 1, BuildingBlock: CUQRIR_clean_linker_1, # of connection points: 3
#     Node 5, Type 1, BuildingBlock: CUQRIR_clean_linker_1, # of connection points: 3
#     Node 6, Type 1, BuildingBlock: CUQRIR_clean_linker_1, # of connection points: 3
#     Node 7, Type 1, BuildingBlock: CUQRIR_clean_linker_1, # of connection points: 3
#     Node 8, Type 1, BuildingBlock: CUQRIR_clean_linker_1, # of connection points: 3
#     Node 9, Type 1, BuildingBlock: CUQRIR_clean_linker_1, # of connection points: 3
#     Node 10, Type 1, BuildingBlock: CUQRIR_clean_linker_1, # of connection points: 3
#     Node 11, Type 1, BuildingBlock: CUQRIR_clean_linker_1, # of connection points: 3
#     Edge 12, Type (0, 1), BuildingBlock: ZUJKAS_clean_linker_0, # of connection points: 2
#     Edge 13, Type (0, 1), BuildingBlock: ZUJKAS_clean_linker_0, # of connection points: 2
#     Edge 14, Type (0, 1), BuildingBlock: ZUJKAS_clean_linker_0, # of connection points: 2
#     Edge 15, Type (0, 1), BuildingBlock: ZUJKAS_clean_linker_0, # of connection points: 2
#     Edge 16, Type (0, 1), BuildingBlock: ZUJKAS_clean_linker_0, # of connection points: 2
#     Edge 17, Type (0, 1), BuildingBlock: ZUJKAS_clean_linker_0, # of connection points: 2
#     Edge 18, Type (0, 1), BuildingBlock: ZUJKAS_clean_linker_0, # of connection points: 2
#     Edge 19, Type (0, 1), BuildingBlock: ZUJKAS_clean_linker_0, # of connection points: 2
#     Edge 20, Type (0, 1), BuildingBlock: ZUJKAS_clean_linker_0, # of connection points: 2
#     Edge 21, Type (0, 1), BuildingBlock: ZUJKAS_clean_linker_0, # of connection points: 2
#     Edge 22, Type (0, 1), BuildingBlock: ZUJKAS_clean_linker_0, # of connection points: 2
#     Edge 23, Type (0, 1), BuildingBlock: ZUJKAS_clean_linker_0, # of connection points: 2
#     Edge 24, Type (0, 1), BuildingBlock: ZUJKAS_clean_linker_0, # of connection points: 2
#     Edge 25, Type (0, 1), BuildingBlock: ZUJKAS_clean_linker_0, # of connection points: 2
#     Edge 26, Type (0, 1), BuildingBlock: ZUJKAS_clean_linker_0, # of connection points: 2
#     Edge 27, Type (0, 1), BuildingBlock: ZUJKAS_clean_linker_0, # of connection points: 2
#     Edge 28, Type (0, 1), BuildingBlock: ZUJKAS_clean_linker_0, # of connection points: 2
#     Edge 29, Type (0, 1), BuildingBlock: ZUJKAS_clean_linker_0, # of connection points: 2
#     Edge 30, Type (0, 1), BuildingBlock: ZUJKAS_clean_linker_0, # of connection points: 2
#     Edge 31, Type (0, 1), BuildingBlock: ZUJKAS_clean_linker_0, # of connection points: 2
#     Edge 32, Type (0, 1), BuildingBlock: ZUJKAS_clean_linker_0, # of connection points: 2
#     Edge 33, Type (0, 1), BuildingBlock: ZUJKAS_clean_linker_0, # of connection points: 2
#     Edge 34, Type (0, 1), BuildingBlock: ZUJKAS_clean_linker_0, # of connection points: 2
#     Edge 35, Type (0, 1), BuildingBlock: ZUJKAS_clean_linker_0, # of connection points: 2
# Relax obj value: 0.003
# Max RMSD: 0.058
# Mean RMSD: 0.045
data_MOF--net-hwx--node1-OJICUG_clean_sbu_0--node2-CUQRIR_clean_linker_1--edge1-ZUJKAS_clean_linker_0
_symmetry_space_group_name_H-M    P1
_symmetry_Int_Tables_number       1
_symmetry_cell_setting            triclinic
loop_
_symmetry_equiv_pos_as_xyz
'x, y, z'
_cell_length_a     64.929749
_cell_length_b     64.910675
_cell_length_c     24.60466
_cell_angle_alpha  90.009798
_cell_angle_beta   90.021615
_cell_angle_gamma 90.004871
loop_
_atom_site_label
_atom_site_type_symbol
_atom_site_fract_x
_atom_site_fract_y
_atom_site_fract_z
_atom_type_partial_charge
Sc0 Sc 0.21762 0.21671 0.06975 0.0
Sc1 Sc 0.18386 0.18352 0.99863 0.0
Sc2 Sc 0.21784 0.21615 0.92695 0.0
O3 O 0.20641 0.20542 0.99847 0.0
C4 C 0.2156 0.2574 0.99724 0.0
C5 C 0.16957 0.21298 0.09594 0.0
C6 C 0.16989 0.21244 0.89996 0.0
C7 C 0.21238 0.1689 0.09745 0.0
C8 C 0.25861 0.21289 0.99883 0.0
C9 C 0.21259 0.16823 0.90103 0.0
O10 O 0.21602 0.24823 0.04286 0.0
O11 O 0.16592 0.1995 0.05958 0.0
O12 O 0.18775 0.21987 0.89229 0.0
O13 O 0.22034 0.18656 0.10497 0.0
O14 O 0.24928 0.21349 0.95344 0.0
O15 O 0.19915 0.16494 0.9377 0.0
O16 O 0.24924 0.21399 0.04411 0.0
O17 O 0.19909 0.16537 0.06054 0.0
O18 O 0.22062 0.18582 0.89312 0.0
O19 O 0.18737 0.2206 0.10368 0.0
O20 O 0.21623 0.24783 0.95223 0.0
O21 O 0.16602 0.19921 0.93679 0.0
Sc22 Sc 0.27691 0.71824 0.42516 0.0
Sc23 Sc 0.30958 0.68394 0.49551 0.0
Sc24 Sc 0.2776 0.71833 0.56807 0.0
O25 O 0.28806 0.70681 0.49626 0.0
C26 C 0.28097 0.75912 0.496 0.0
C27 C 0.32469 0.71255 0.39766 0.0
C28 C 0.32534 0.7126 0.59331 0.0
C29 C 0.27994 0.67035 0.39778 0.0
C30 C 0.23631 0.71621 0.49826 0.0
C31 C 0.28102 0.67021 0.59462 0.0
O32 O 0.2804 0.74971 0.45076 0.0
O33 O 0.32817 0.69936 0.43487 0.0
O34 O 0.30811 0.72145 0.60047 0.0
O35 O 0.27228 0.68817 0.39104 0.0
O36 O 0.24586 0.71626 0.54338 0.0
O37 O 0.29328 0.666 0.5558 0.0
O38 O 0.24548 0.71721 0.4527 0.0
O39 O 0.29364 0.66654 0.43341 0.0
O40 O 0.27449 0.68832 0.60402 0.0
O41 O 0.30702 0.7204 0.38962 0.0
O42 O 0.27974 0.74985 0.54136 0.0
O43 O 0.3281 0.69861 0.55772 0.0
Sc44 Sc 0.77611 0.77792 0.9336 0.0
Sc45 Sc 0.81166 0.80962 0.00317 0.0
Sc46 Sc 0.77701 0.77822 0.0764 0.0
O47 O 0.78831 0.78861 0.00438 0.0
C48 C 0.73583 0.78248 0.00623 0.0
C49 C 0.78284 0.82563 0.90663 0.0
C50 C 0.78368 0.82584 0.10167 0.0
C51 C 0.82394 0.77987 0.90455 0.0
C52 C 0.77788 0.73706 0.00596 0.0
C53 C 0.82525 0.78083 0.10186 0.0
O54 O 0.74486 0.78197 0.96048 0.0
O55 O 0.79641 0.82863 0.94316 0.0
O56 O 0.77451 0.80876 0.1088 0.0
O57 O 0.80588 0.77275 0.89817 0.0
O58 O 0.77852 0.74649 0.05123 0.0
O59 O 0.82959 0.79295 0.06287 0.0
O60 O 0.77657 0.74637 0.96063 0.0
O61 O 0.82834 0.79331 0.94041 0.0
O62 O 0.80706 0.77464 0.11155 0.0
O63 O 0.77439 0.80822 0.89875 0.0
O64 O 0.74543 0.78088 0.05099 0.0
O65 O 0.79768 0.82839 0.06603 0.0
Sc66 Sc 0.71807 0.27643 0.57541 0.0
Sc67 Sc 0.6861 0.31098 0.5035 0.0
Sc68 Sc 0.71903 0.27704 0.43251 0.0
O69 O 0.70771 0.28819 0.5038 0.0
C70 C 0.75951 0.279 0.50629 0.0
C71 C 0.71421 0.32432 0.60393 0.0
C72 C 0.71587 0.32513 0.40675 0.0
C73 C 0.67017 0.28168 0.59968 0.0
C74 C 0.71516 0.23588 0.50225 0.0
C75 C 0.67133 0.2828 0.40422 0.0
O76 O 0.74988 0.27871 0.5513 0.0
O77 O 0.70201 0.32868 0.56509 0.0
O78 O 0.72346 0.30731 0.39925 0.0
O79 O 0.68749 0.27301 0.60704 0.0
O80 O 0.71583 0.24537 0.45712 0.0
O81 O 0.66784 0.29591 0.44162 0.0
O82 O 0.71611 0.24509 0.54772 0.0
O83 O 0.66738 0.29581 0.5645 0.0
O84 O 0.68896 0.27482 0.39642 0.0
O85 O 0.72093 0.30624 0.61254 0.0
O86 O 0.75041 0.27819 0.46058 0.0
O87 O 0.70223 0.3288 0.44261 0.0
C88 C 0.22324 0.49017 0.95355 0.0
N89 N 0.22713 0.50978 0.96949 0.0
N90 N 0.22126 0.47767 0.99729 0.0
C91 C 0.22366 0.48277 0.89555 0.0
C92 C 0.22424 0.49029 0.04033 0.0
N93 N 0.22796 0.50977 0.0235 0.0
C94 C 0.22249 0.48372 0.0988 0.0
H95 H 0.20789 0.48382 0.87839 0.0
H96 H 0.22876 0.46649 0.89311 0.0
H97 H 0.23409 0.49238 0.87043 0.0
H98 H 0.23794 0.47925 0.114 0.0
H99 H 0.21205 0.47027 0.10287 0.0
H100 H 0.21665 0.49655 0.12434 0.0
C101 C 0.00352 0.7206 0.54931 0.0
N102 N 0.98405 0.72447 0.53269 0.0
N103 N 0.01611 0.71787 0.50613 0.0
C104 C 0.01012 0.71854 0.60769 0.0
C105 C 0.0036 0.72016 0.4625 0.0
N106 N 0.98401 0.72399 0.47865 0.0
C107 C 0.01097 0.72097 0.40452 0.0
H108 H 0.01463 0.73391 0.62344 0.0
H109 H 0.02356 0.70807 0.61132 0.0
H110 H 0.99731 0.71258 0.63306 0.0
H111 H 0.01 0.70529 0.38671 0.0
H112 H 0.02722 0.72618 0.40227 0.0
H113 H 0.00131 0.7315 0.37982 0.0
C114 C 0.77374 0.50471 0.04644 0.0
N115 N 0.76989 0.485 0.03169 0.0
N116 N 0.77693 0.51658 0.00208 0.0
C117 C 0.77368 0.51262 0.10393 0.0
C118 C 0.77489 0.50343 0.95973 0.0
N119 N 0.77087 0.48413 0.97774 0.0
C120 C 0.77574 0.50964 0.90082 0.0
H121 H 0.75799 0.5182 0.11401 0.0
H122 H 0.7845 0.5257 0.10868 0.0
H123 H 0.77795 0.50027 0.13299 0.0
H124 H 0.77432 0.52653 0.89547 0.0
H125 H 0.76335 0.50179 0.8776 0.0
H126 H 0.79074 0.50479 0.88353 0.0
C127 C 0.99128 0.27427 0.45716 0.0
N128 N 0.01102 0.27031 0.47146 0.0
N129 N 0.97989 0.27893 0.50156 0.0
C130 C 0.98283 0.27266 0.40038 0.0
C131 C 0.9934 0.27772 0.54333 0.0
N132 N 0.01238 0.27271 0.52496 0.0
C133 C 0.98777 0.27978 0.6024 0.0
H134 H 0.97 0.28366 0.39409 0.0
H135 H 0.97676 0.25686 0.39402 0.0
H136 H 0.995 0.27569 0.36976 0.0
H137 H 0.99033 0.2648 0.62309 0.0
H138 H 0.97153 0.2846 0.60793 0.0
H139 H -0.0021 0.29131 0.62215 0.0
C140 C 0.72097 0.00345 0.54647 0.0
N141 N 0.72582 0.98406 0.53088 0.0
N142 N 0.71825 0.01569 0.5025 0.0
C143 C 0.72087 0.01092 0.60433 0.0
C144 C 0.72178 0.00309 0.45973 0.0
N145 N 0.72625 0.98385 0.47694 0.0
C146 C 0.7216 0.00975 0.40123 0.0
H147 H 0.70833 0.02224 0.61082 0.0
H148 H 0.73571 0.01876 0.61289 0.0
H149 H 0.71895 -0.00203 0.63329 0.0
H150 H 0.73744 0.01421 0.38914 0.0
H151 H 0.7113 0.02321 0.39537 0.0
H152 H 0.71655 0.9969 0.37461 0.0
C153 C 0.49093 0.22466 0.96069 0.0
N154 N 0.51022 0.22979 0.97659 0.0
N155 N 0.47826 0.22329 0.00425 0.0
C156 C 0.48399 0.22298 0.90248 0.0
C157 C 0.49048 0.22791 0.04711 0.0
N158 N 0.50989 0.23201 0.03029 0.0
C159 C 0.48368 0.22723 0.10553 0.0
H160 H 0.49337 0.233 0.87563 0.0
H161 H 0.46753 0.22728 0.89818 0.0
H162 H 0.48586 0.2068 0.88885 0.0
H163 H 0.47051 0.21652 0.11078 0.0
H164 H 0.47869 0.24286 0.11818 0.0
H165 H 0.49652 0.22233 0.13231 0.0
C166 C 0.27566 0.99081 0.45574 0.0
N167 N 0.27071 0.01017 0.47146 0.0
N168 N 0.28075 0.97916 0.49931 0.0
C169 C 0.27464 0.98293 0.39829 0.0
C170 C 0.27876 0.99211 0.5421 0.0
N171 N 0.27291 0.01104 0.52509 0.0
C172 C 0.28089 0.98591 0.60075 0.0
H173 H 0.25916 0.97622 0.39102 0.0
H174 H 0.28623 0.97068 0.39136 0.0
H175 H 0.27722 0.99556 0.36869 0.0
H176 H 0.28538 0.96952 0.60522 0.0
H177 H 0.2661 0.98867 0.62211 0.0
H178 H 0.29276 0.99561 0.62063 0.0
C179 C 0.50346 0.77265 0.04033 0.0
N180 N 0.48444 0.76715 0.02308 0.0
N181 N 0.51657 0.77409 0.99771 0.0
C182 C 0.50974 0.77457 0.09902 0.0
C183 C 0.5049 0.76912 0.95405 0.0
N184 N 0.4854 0.76475 0.96951 0.0
C185 C 0.51233 0.76963 0.89616 0.0
H186 H 0.50757 0.79078 0.11213 0.0
H187 H 0.52618 0.77044 0.10467 0.0
H188 H 0.50016 0.76455 0.12537 0.0
H189 H 0.51766 0.75401 0.88439 0.0
H190 H 0.5254 0.7805 0.89156 0.0
H191 H 0.49971 0.77422 0.86827 0.0
H192 H 0.13064 0.19675 0.10444 0.0
H193 H 0.10351 0.20683 0.16824 0.0
H194 H 0.14301 0.25401 0.23413 0.0
H195 H 0.17015 0.24422 0.17063 0.0
H196 H 0.10723 0.20736 0.28539 0.0
H197 H 0.08832 0.28438 0.2003 0.0
H198 H 0.10193 0.26497 0.16188 0.0
H199 H 0.11523 0.27981 0.21254 0.0
C200 C 0.13351 0.20941 0.1321 0.0
C201 C 0.15261 0.21967 0.13229 0.0
C202 C 0.118 0.21509 0.16861 0.0
C203 C 0.12122 0.23127 0.20547 0.0
C204 C 0.14013 0.24168 0.20544 0.0
H205 H 0.04812 0.28826 0.46073 0.0
H206 H 0.07586 0.278 0.39821 0.0
C207 C 0.15566 0.23597 0.16921 0.0
C208 C 0.10512 0.23679 0.24547 0.0
H209 H 0.07336 0.27588 0.28521 0.0
C210 C 0.09972 0.22229 0.28526 0.0
C211 C 0.09553 0.25634 0.24532 0.0
C212 C 0.10037 0.27226 0.20251 0.0
C213 C 0.08513 0.22693 0.32555 0.0
C214 C 0.07542 0.24644 0.32521 0.0
C215 C 0.08087 0.26095 0.28543 0.0
C216 C 0.05921 0.25198 0.36496 0.0
C217 C 0.08058 0.21109 0.3688 0.0
C218 C 0.04076 0.24073 0.36701 0.0
C219 C 0.02509 0.24653 0.40273 0.0
C220 C 0.02751 0.26381 0.43638 0.0
C221 C 0.04604 0.27489 0.43497 0.0
C222 C 0.06176 0.26908 0.3993 0.0
H223 H 0.0932 0.1996 0.37239 0.0
H224 H 0.07824 0.2185 0.40901 0.0
H225 H 0.06627 0.2027 0.35792 0.0
H226 H 0.03834 0.22768 0.34033 0.0
H227 H 0.011 0.23762 0.40391 0.0
H228 H 0.28072 0.62858 0.57549 0.0
H229 H 0.26982 0.60127 0.63792 0.0
H230 H 0.25684 0.64684 0.76092 0.0
H231 H 0.26683 0.67412 0.69829 0.0
H232 H 0.28477 0.58937 0.73161 0.0
H233 H 0.20461 0.61488 0.76582 0.0
H234 H 0.2206 0.62585 0.71337 0.0
H235 H 0.22259 0.63485 0.78248 0.0
C236 C 0.27537 0.63276 0.6157 0.0
C237 C 0.27444 0.65352 0.63174 0.0
C238 C 0.26915 0.61715 0.65134 0.0
C239 C 0.26206 0.62201 0.70378 0.0
C240 C 0.26155 0.64271 0.72014 0.0
H241 H 0.26044 0.53476 0.97262 0.0
H242 H 0.26852 0.56284 0.90953 0.0
C243 C 0.26742 0.65831 0.68432 0.0
C244 C 0.25602 0.60543 0.74222 0.0
H245 H 0.21798 0.59032 0.82932 0.0
C246 C 0.27008 0.58949 0.75261 0.0
C247 C 0.23673 0.60537 0.76906 0.0
C248 C 0.2202 0.62104 0.75666 0.0
C249 C 0.26558 0.57372 0.78978 0.0
C250 C 0.24678 0.57433 0.81893 0.0
C251 C 0.23254 0.59005 0.80774 0.0
C252 C 0.24128 0.55846 0.85992 0.0
C253 C 0.28084 0.55635 0.79634 0.0
C254 C 0.22273 0.54748 0.85501 0.0
C255 C 0.21781 0.53198 0.89214 0.0
C256 C 0.23141 0.52705 0.93451 0.0
C257 C 0.24966 0.53841 0.94048 0.0
C258 C 0.25443 0.55418 0.90389 0.0
H259 H 0.29088 0.5548 0.76 0.0
H260 H 0.29092 0.55959 0.83175 0.0
H261 H 0.27292 0.54142 0.80329 0.0
H262 H 0.21224 0.55061 0.82178 0.0
H263 H 0.20355 0.52353 0.88731 0.0
H264 H 0.82088 0.76688 0.20553 0.0
H265 H 0.84784 0.75727 0.26948 0.0
H266 H 0.89396 0.76936 0.14734 0.0
H267 H 0.86696 0.77992 0.08353 0.0
H268 H 0.87487 0.72766 0.26919 0.0
H269 H 0.9167 0.80207 0.27091 0.0
H270 H 0.89194 0.79907 0.23873 0.0
H271 H 0.91504 0.79103 0.20425 0.0
C272 C 0.83676 0.76753 0.19216 0.0
C273 C 0.84179 0.77427 0.13948 0.0
C274 C 0.85217 0.76202 0.22885 0.0
C275 C 0.87298 0.76292 0.21366 0.0
C276 C 0.87806 0.76912 0.16058 0.0
H277 H 0.97003 0.70107 0.39546 0.0
H278 H 0.94275 0.71024 0.33105 0.0
C279 C 0.86262 0.775 0.124 0.0
C280 C 0.88914 0.75704 0.25347 0.0
H281 H 0.93293 0.77403 0.31588 0.0
C282 C 0.88752 0.73785 0.27954 0.0
C283 C 0.90546 0.77047 0.26775 0.0
C284 C 0.90731 0.79189 0.24438 0.0
C285 C 0.90177 0.73167 0.3192 0.0
C286 C 0.91858 0.74472 0.33175 0.0
C287 C 0.92014 0.76396 0.30595 0.0
C288 C 0.93474 0.73879 0.37149 0.0
C289 C 0.8983 0.71147 0.34818 0.0
C290 C 0.93974 0.75202 0.41477 0.0
C291 C 0.95569 0.74702 0.45056 0.0
C292 C 0.96677 0.72864 0.44395 0.0
C293 C 0.96161 0.71529 0.40121 0.0
C294 C 0.9459 0.72043 0.36489 0.0
H295 H 0.88181 0.70689 0.3471 0.0
H296 H 0.90726 0.6992 0.32755 0.0
H297 H 0.90331 0.71229 0.39127 0.0
H298 H 0.93145 0.76634 0.42048 0.0
H299 H 0.9597 0.75772 0.4826 0.0
H300 H 0.72669 0.3196 0.70875 0.0
H301 H 0.73583 0.34637 0.77388 0.0
H302 H 0.7257 0.39282 0.65128 0.0
H303 H 0.71555 0.36604 0.58639 0.0
H304 H 0.76568 0.37271 0.77665 0.0
H305 H 0.69245 0.41638 0.77203 0.0
H306 H 0.69522 0.39159 0.73981 0.0
H307 H 0.70408 0.41459 0.70614 0.0
C308 C 0.72634 0.33552 0.69561 0.0
C309 C 0.7203 0.34073 0.64247 0.0
C310 C 0.73157 0.35082 0.73295 0.0
C311 C 0.73111 0.37167 0.71791 0.0
C312 C 0.72557 0.37691 0.66442 0.0
H313 H 0.79427 0.46792 0.89824 0.0
H314 H 0.78472 0.44014 0.8358 0.0
C315 C 0.71992 0.36159 0.62723 0.0
C316 C 0.73691 0.38773 0.75816 0.0
H317 H 0.72062 0.4324 0.81742 0.0
C318 C 0.75575 0.3857 0.78577 0.0
C319 C 0.72382 0.40449 0.77092 0.0
C320 C 0.70268 0.4068 0.7461 0.0
C321 C 0.76195 0.40001 0.82526 0.0
C322 C 0.74934 0.41732 0.83598 0.0
C323 C 0.7304 0.41924 0.80886 0.0
C324 C 0.75549 0.43373 0.87479 0.0
C325 C 0.78172 0.3961 0.8559 0.0
C326 C 0.74205 0.4398 0.91659 0.0
C327 C 0.74725 0.45611 0.95107 0.0
C328 C 0.76605 0.46648 0.94464 0.0
C329 C 0.77965 0.46018 0.90359 0.0
C330 C 0.77431 0.44414 0.86851 0.0
H331 H 0.78562 0.37943 0.85648 0.0
H332 H 0.79453 0.4043 0.83536 0.0
H333 H 0.78071 0.40165 0.89849 0.0
H334 H 0.7274 0.4321 0.92207 0.0
H335 H 0.7364 0.46096 0.9819 0.0
H336 H 0.67176 0.253 0.32552 0.0
H337 H 0.64464 0.24469 0.26038 0.0
H338 H 0.60543 0.29085 0.33216 0.0
H339 H 0.63252 0.29946 0.39752 0.0
H340 H 0.6033 0.23167 0.28087 0.0
H341 H 0.60692 0.30579 0.16818 0.0
H342 H 0.62717 0.29736 0.21333 0.0
H343 H 0.60384 0.30806 0.24054 0.0
C344 C 0.65738 0.26142 0.32765 0.0
C345 C 0.6544 0.27702 0.36666 0.0
C346 C 0.6419 0.25661 0.29035 0.0
C347 C 0.6232 0.26737 0.29098 0.0
C348 C 0.61993 0.28262 0.33047 0.0
H349 H 0.51137 0.26338 0.10157 0.0
H350 H 0.53963 0.27167 0.16407 0.0
C351 C 0.63538 0.28742 0.36801 0.0
C352 C 0.6071 0.26251 0.25037 0.0
H353 H 0.58012 0.2828 0.14399 0.0
C354 C 0.59826 0.24279 0.25076 0.0
C355 C 0.60065 0.27707 0.21118 0.0
C356 C 0.61022 0.29822 0.20773 0.0
C357 C 0.58273 0.23738 0.21371 0.0
C358 C 0.57623 0.25197 0.17455 0.0
C359 C 0.58518 0.27165 0.17399 0.0
C360 C 0.55962 0.24735 0.13508 0.0
C361 C 0.57301 0.21631 0.21784 0.0
C362 C 0.56171 0.23126 0.09727 0.0
C363 C 0.54549 0.22643 0.06205 0.0
C364 C 0.52709 0.23772 0.06398 0.0
C365 C 0.52533 0.25428 0.1003 0.0
C366 C 0.54147 0.25906 0.1356 0.0
H367 H 0.57611 0.20898 0.25782 0.0
H368 H 0.55608 0.2172 0.21179 0.0
H369 H 0.5795 0.20621 0.18576 0.0
H370 H 0.57577 0.22232 0.09539 0.0
H371 H 0.54711 0.21364 0.03412 0.0
H372 H 0.24244 0.16882 0.82272 0.0
H373 H 0.25135 0.14164 0.75868 0.0
H374 H 0.20576 0.10184 0.83073 0.0
H375 H 0.19675 0.12897 0.89579 0.0
H376 H 0.24376 0.08245 0.81071 0.0
H377 H 0.21581 0.12428 0.62853 0.0
H378 H 0.23372 0.13882 0.6688 0.0
H379 H 0.2091 0.13191 0.69684 0.0
C380 C 0.23425 0.15431 0.8252 0.0
C381 C 0.21871 0.15118 0.86426 0.0
C382 C 0.23932 0.13882 0.78825 0.0
C383 C 0.22891 0.11992 0.78924 0.0
C384 C 0.21383 0.11643 0.82905 0.0
H385 H 0.23494 0.02727 0.53264 0.0
H386 H 0.22347 0.05387 0.59714 0.0
C387 C 0.20873 0.13195 0.86621 0.0
C388 C 0.234 0.10379 0.74888 0.0
H389 H 0.23634 0.09444 0.61243 0.0
C390 C 0.24202 0.08499 0.76737 0.0
C391 C 0.23144 0.10707 0.69242 0.0
C392 C 0.22186 0.12653 0.67036 0.0
C393 C 0.24813 0.06958 0.73075 0.0
C394 C 0.24646 0.07325 0.67422 0.0
C395 C 0.23785 0.0918 0.65579 0.0
C396 C 0.25354 0.058 0.6336 0.0
C397 C 0.25617 0.04945 0.75291 0.0
C398 C 0.27431 0.05202 0.63172 0.0
C399 C 0.28079 0.03698 0.59492 0.0
C400 C 0.26663 0.02782 0.55935 0.0
C401 C 0.24604 0.0343 0.55975 0.0
C402 C 0.23953 0.04935 0.59658 0.0
H403 H 0.25134 0.04699 0.79574 0.0
H404 H 0.25071 0.03624 0.72807 0.0
H405 H 0.27325 0.04961 0.75178 0.0
H406 H 0.28547 0.05888 0.65901 0.0
H407 H 0.29679 0.0323 0.59447 0.0
H408 H 0.36354 0.69597 0.38985 0.0
H409 H 0.39067 0.70545 0.32548 0.0
H410 H 0.3515 0.75263 0.25814 0.0
H411 H 0.32425 0.74316 0.32141 0.0
H412 H 0.36953 0.72852 0.17954 0.0
H413 H 0.42773 0.75624 0.32791 0.0
H414 H 0.41857 0.73059 0.34064 0.0
H415 H 0.40113 0.75201 0.34605 0.0
C416 C 0.36074 0.70848 0.36166 0.0
C417 C 0.34168 0.71879 0.3609 0.0
C418 C 0.37631 0.71392 0.32502 0.0
C419 C 0.37316 0.72988 0.28742 0.0
C420 C 0.35424 0.74027 0.28684 0.0
H421 H 0.46592 0.7923 0.09468 0.0
H422 H 0.43783 0.78333 0.1573 0.0
C423 C 0.33868 0.73482 0.32318 0.0
C424 C 0.38929 0.73546 0.24747 0.0
H425 H 0.43854 0.75331 0.23615 0.0
C426 C 0.38462 0.73397 0.19186 0.0
C427 C 0.40885 0.74281 0.26371 0.0
C428 C 0.41437 0.74572 0.3228 0.0
C429 C 0.39906 0.73946 0.15198 0.0
C430 C 0.4188 0.74628 0.16825 0.0
C431 C 0.42341 0.74794 0.22384 0.0
C432 C 0.4349 0.75196 0.12835 0.0
C433 C 0.3929 0.73831 0.09289 0.0
C434 C 0.44247 0.73733 0.09133 0.0
C435 C 0.45839 0.7425 0.05566 0.0
C436 C 0.46705 0.76229 0.05685 0.0
C437 C 0.45937 0.77697 0.09339 0.0
C438 C 0.44342 0.77184 0.12897 0.0
H439 H 0.3759 0.73823 0.08788 0.0
H440 H 0.39934 0.75147 0.06957 0.0
H441 H 0.399 0.72385 0.07502 0.0
H442 H 0.43643 0.72178 0.09095 0.0
H443 H 0.4644 0.73092 0.02825 0.0
H444 H 0.80132 0.86352 0.89638 0.0
H445 H 0.792 0.89126 0.83338 0.0
H446 H 0.74181 0.85455 0.77191 0.0
H447 H 0.75085 0.82684 0.83444 0.0
H448 H 0.78918 0.88737 0.71505 0.0
H449 H 0.71541 0.91114 0.8107 0.0
H450 H 0.73483 0.89662 0.84672 0.0
H451 H 0.71816 0.88395 0.79899 0.0
C452 C 0.78818 0.86141 0.86981 0.0
C453 C 0.77684 0.84293 0.87057 0.0
C454 C 0.78293 0.87724 0.83378 0.0
C455 C 0.76612 0.87498 0.79847 0.0
C456 C 0.75467 0.85668 0.79939 0.0
H457 H 0.70629 0.94835 0.5506 0.0
H458 H 0.71721 0.9211 0.61372 0.0
C459 C 0.75995 0.84082 0.83506 0.0
C460 C 0.76086 0.8914 0.75917 0.0
H461 H 0.72273 0.92496 0.72364 0.0
C462 C 0.77474 0.89574 0.71703 0.0
C463 C 0.74194 0.9021 0.76184 0.0
C464 C 0.72675 0.8984 0.8072 0.0
C465 C 0.76997 0.91023 0.67656 0.0
C466 C 0.75101 0.92093 0.67914 0.0
C467 C 0.73722 0.91668 0.72162 0.0
C468 C 0.74516 0.93672 0.63846 0.0
C469 C 0.78501 0.91348 0.63059 0.0
C470 C 0.75725 0.95447 0.63142 0.0
C471 C 0.75112 0.96978 0.59496 0.0
C472 C 0.73276 0.96766 0.56548 0.0
C473 C 0.7207 0.94997 0.57228 0.0
C474 C 0.72685 0.93458 0.60853 0.0
H475 H 0.79574 0.90025 0.62625 0.0
H476 H 0.77683 0.91579 0.59141 0.0
H477 H 0.79435 0.92744 0.63899 0.0
H478 H 0.77116 0.95668 0.65497 0.0
H479 H 0.76047 0.98349 0.59032 0.0
H480 H 0.86377 0.79374 0.89648 0.0
H481 H 0.89 0.78283 0.83121 0.0
H482 H 0.84771 0.73851 0.76349 0.0
H483 H 0.8213 0.74942 0.82783 0.0
H484 H 0.90738 0.74395 0.81418 0.0
H485 H 0.86604 0.77124 0.62996 0.0
H486 H 0.8587 0.77895 0.69773 0.0
H487 H 0.85152 0.75401 0.67227 0.0
C488 C 0.86002 0.78165 0.86779 0.0
C489 C 0.84033 0.7726 0.86719 0.0
C490 C 0.87504 0.77545 0.83051 0.0
C491 C 0.87064 0.76015 0.79189 0.0
C492 C 0.85124 0.75069 0.79211 0.0
H493 H 0.94695 0.70569 0.53555 0.0
H494 H 0.91836 0.7135 0.59825 0.0
C495 C 0.8362 0.75689 0.82921 0.0
C496 C 0.88645 0.75399 0.7517 0.0
H497 H 0.89687 0.75252 0.61564 0.0
C498 C 0.9051 0.74583 0.77079 0.0
C499 C 0.88335 0.75639 0.69509 0.0
C500 C 0.86391 0.76578 0.67238 0.0
C501 C 0.92077 0.73999 0.73475 0.0
C502 C 0.91779 0.74265 0.67826 0.0
C503 C 0.89903 0.75048 0.65902 0.0
C504 C 0.93442 0.73836 0.63886 0.0
C505 C 0.94039 0.73092 0.75735 0.0
C506 C 0.95252 0.75012 0.64014 0.0
C507 C 0.96861 0.74576 0.60447 0.0
C508 C 0.96687 0.72956 0.56701 0.0
C509 C 0.94852 0.7182 0.56439 0.0
C510 C 0.93232 0.72261 0.60008 0.0
H511 H 0.93825 0.72507 0.79941 0.0
H512 H 0.94601 0.71811 0.73135 0.0
H513 H 0.95247 0.74301 0.75836 0.0
H514 H 0.95422 0.76263 0.66895 0.0
H515 H 0.9825 0.75496 0.60615 0.0
H516 H 0.74685 0.32421 0.33135 0.0
H517 H 0.7571 0.35147 0.26865 0.0
H518 H 0.71059 0.39145 0.3359 0.0
H519 H 0.70039 0.3644 0.39952 0.0
H520 H 0.73324 0.37004 0.19008 0.0
H521 H 0.76162 0.4279 0.33827 0.0
H522 H 0.75708 0.40134 0.35647 0.0
H523 H 0.7359 0.41912 0.35174 0.0
C524 C 0.73888 0.33885 0.33327 0.0
C525 C 0.72279 0.34209 0.37068 0.0
C526 C 0.74477 0.3544 0.29729 0.0
C527 C 0.73477 0.37354 0.29802 0.0
C528 C 0.7188 0.37692 0.3354 0.0
H529 H 0.73867 0.48399 0.10336 0.0
H530 H 0.73039 0.45609 0.16696 0.0
C531 C 0.71293 0.36139 0.37161 0.0
C532 C 0.74052 0.38964 0.25809 0.0
H533 H 0.75746 0.43924 0.24696 0.0
C534 C 0.73868 0.38513 0.20246 0.0
C535 C 0.74764 0.40929 0.27441 0.0
C536 C 0.75088 0.41469 0.33345 0.0
C537 C 0.74328 0.39993 0.16268 0.0
C538 C 0.75013 0.41964 0.17907 0.0
C539 C 0.75214 0.4241 0.23463 0.0
C540 C 0.75488 0.43606 0.13931 0.0
C541 C 0.74029 0.39457 0.10352 0.0
C542 C 0.77136 0.43398 0.10275 0.0
C543 C 0.77615 0.44996 0.06677 0.0
C544 C 0.7646 0.46822 0.06723 0.0
C545 C 0.74795 0.47013 0.10318 0.0
C546 C 0.74319 0.45423 0.13917 0.0
H547 H 0.73078 0.38048 0.09824 0.0
H548 H 0.73282 0.40749 0.08141 0.0
H549 H 0.75553 0.39175 0.08454 0.0
H550 H 0.78072 0.42017 0.10272 0.0
H551 H 0.78906 0.4483 0.03929 0.0
H552 H 0.17167 0.24233 0.82185 0.0
H553 H 0.1448 0.25259 0.75829 0.0
H554 H 0.10341 0.20812 0.82907 0.0
H555 H 0.13019 0.19781 0.89366 0.0
H556 H 0.12519 0.22811 0.68156 0.0
H557 H 0.06935 0.26136 0.82842 0.0
H558 H 0.0958 0.25603 0.84618 0.0
H559 H 0.07732 0.23546 0.8433 0.0
C560 C 0.15684 0.23476 0.82434 0.0
C561 C 0.15312 0.21922 0.86306 0.0
C562 C 0.1415 0.24066 0.78782 0.0
C563 C 0.12209 0.23125 0.78925 0.0
C564 C 0.1182 0.21582 0.8279 0.0
H565 H 0.02961 0.23524 0.53303 0.0
H566 H 0.05724 0.22489 0.59569 0.0
C567 C 0.13356 0.2099 0.86466 0.0
C568 C 0.1062 0.23729 0.7491 0.0
H569 H 0.05828 0.25839 0.73698 0.0
C570 C 0.11055 0.23474 0.6936 0.0
C571 C 0.08725 0.24615 0.76501 0.0
C572 C 0.08214 0.25012 0.82392 0.0
C573 C 0.09638 0.24069 0.6535 0.0
C574 C 0.07724 0.24912 0.66946 0.0
C575 C 0.07294 0.25181 0.72493 0.0
C576 C 0.06147 0.25544 0.62932 0.0
C577 C 0.10217 0.23829 0.59444 0.0
C578 C 0.05466 0.27596 0.62769 0.0
C579 C 0.03894 0.28177 0.59212 0.0
C580 C 0.02974 0.26714 0.558 0.0
C581 C 0.03676 0.24672 0.55879 0.0
C582 C 0.05248 0.24087 0.59439 0.0
H583 H 0.11909 0.23669 0.58909 0.0
H584 H 0.09476 0.22421 0.57794 0.0
H585 H 0.09678 0.25167 0.57016 0.0
H586 H 0.0614 0.28743 0.65431 0.0
H587 H 0.03372 0.29762 0.5916 0.0
H588 H 0.24926 0.67178 0.32153 0.0
H589 H 0.23892 0.64477 0.25818 0.0
H590 H 0.28477 0.60415 0.32596 0.0
H591 H 0.29508 0.63096 0.3902 0.0
H592 H 0.26291 0.62592 0.1799 0.0
H593 H 0.2331 0.56848 0.32706 0.0
H594 H 0.23786 0.59499 0.34537 0.0
H595 H 0.25883 0.57694 0.34163 0.0
C596 C 0.25707 0.65706 0.32342 0.0
C597 C 0.27301 0.65357 0.36116 0.0
C598 C 0.25113 0.64165 0.28706 0.0
C599 C 0.26091 0.6224 0.28778 0.0
C600 C 0.27674 0.61877 0.32546 0.0
H601 H 0.25868 0.51179 0.09619 0.0
H602 H 0.26617 0.54023 0.15878 0.0
C603 C 0.28267 0.63417 0.36201 0.0
C604 C 0.25509 0.60641 0.24765 0.0
H605 H 0.23793 0.55692 0.23608 0.0
C606 C 0.25728 0.61088 0.19209 0.0
C607 C 0.24769 0.58686 0.26376 0.0
C608 C 0.24403 0.58155 0.32267 0.0
C609 C 0.25287 0.59605 0.15219 0.0
C610 C 0.24586 0.57639 0.16842 0.0
C611 C 0.24337 0.57203 0.22389 0.0
C612 C 0.24172 0.55979 0.1287 0.0
C613 C 0.2563 0.6013 0.09314 0.0
C614 C 0.22555 0.56147 0.09097 0.0
C615 C 0.22124 0.54518 0.05547 0.0
C616 C 0.23295 0.52705 0.05761 0.0
C617 C 0.24932 0.52558 0.09462 0.0
C618 C 0.25361 0.54178 0.13006 0.0
H619 H 0.26561 0.61553 0.08817 0.0
H620 H 0.26417 0.58844 0.07182 0.0
H621 H 0.24118 0.60378 0.07312 0.0
H622 H 0.21604 0.57517 0.0898 0.0
H623 H 0.2085 0.54648 0.02726 0.0
H624 H 0.3262 0.74355 0.66873 0.0
H625 H 0.3538 0.75198 0.73215 0.0
H626 H 0.39101 0.7031 0.66553 0.0
H627 H 0.36355 0.69464 0.60116 0.0
H628 H 0.37077 0.72639 0.81101 0.0
H629 H 0.43014 0.75249 0.66382 0.0
H630 H 0.40337 0.74961 0.64554 0.0
H631 H 0.41977 0.72737 0.65011 0.0
C632 C 0.34029 0.73465 0.66709 0.0
C633 C 0.34263 0.7184 0.62966 0.0
C634 C 0.35604 0.7395 0.70352 0.0
C635 C 0.37449 0.7283 0.70321 0.0
C636 C 0.37701 0.71218 0.66577 0.0
H637 H 0.48525 0.73288 0.8997 0.0
H638 H 0.45758 0.72335 0.8365 0.0
C639 C 0.36126 0.70732 0.62912 0.0
C640 C 0.39076 0.73312 0.74344 0.0
H641 H 0.44067 0.74895 0.75559 0.0
C642 C 0.38605 0.73139 0.79896 0.0
C643 C 0.41065 0.73962 0.72751 0.0
C644 C 0.4163 0.74259 0.66854 0.0
C645 C 0.40081 0.73572 0.83906 0.0
C646 C 0.42067 0.74222 0.82308 0.0
C647 C 0.42541 0.74391 0.7676 0.0
C648 C 0.43684 0.74741 0.86319 0.0
C649 C 0.39515 0.73295 0.89811 0.0
C650 C 0.43428 0.76404 0.89909 0.0
C651 C 0.4501 0.76951 0.93485 0.0
C652 C 0.46869 0.75851 0.93484 0.0
C653 C 0.4711 0.74169 0.89962 0.0
C654 C 0.45533 0.73623 0.86386 0.0
H655 H 0.38127 0.72313 0.90305 0.0
H656 H 0.40807 0.72595 0.92122 0.0
H657 H 0.39178 0.74824 0.91626 0.0
H658 H 0.42026 0.77307 0.89856 0.0
H659 H 0.44809 0.78261 0.96157 0.0
H660 H 0.80422 0.86245 0.11634 0.0
H661 H 0.79621 0.88962 0.18221 0.0
H662 H 0.74268 0.85571 0.23463 0.0
H663 H 0.75065 0.82843 0.16996 0.0
H664 H 0.76155 0.91413 0.19453 0.0
H665 H 0.77314 0.86533 0.37685 0.0
H666 H 0.78155 0.85759 0.30998 0.0
H667 H 0.75502 0.85459 0.32959 0.0
C668 C 0.7907 0.86081 0.14175 0.0
C669 C 0.77822 0.84314 0.13825 0.0
C670 C 0.78618 0.87632 0.17943 0.0
C671 C 0.76914 0.87441 0.21417 0.0
C672 C 0.75624 0.8572 0.2093 0.0
H673 H 0.70624 0.94892 0.45172 0.0
H674 H 0.71799 0.92192 0.38868 0.0
C675 C 0.76078 0.84167 0.172 0.0
C676 C 0.76462 0.89045 0.25527 0.0
H677 H 0.75658 0.89773 0.39113 0.0
C678 C 0.76067 0.91062 0.23757 0.0
C679 C 0.76354 0.8858 0.31143 0.0
C680 C 0.76874 0.8647 0.33323 0.0
C681 C 0.75499 0.92612 0.2744 0.0
C682 C 0.75344 0.92132 0.33029 0.0
C683 C 0.7577 0.90127 0.34815 0.0
C684 C 0.747 0.93687 0.37072 0.0
C685 C 0.7501 0.94737 0.25318 0.0
C686 C 0.75966 0.95384 0.38222 0.0
C687 C 0.75304 0.969 0.41849 0.0
C688 C 0.73377 0.96732 0.44377 0.0
C689 C 0.72131 0.95016 0.43325 0.0
C690 C 0.72794 0.93493 0.39715 0.0
H691 H 0.74824 0.94753 0.20829 0.0
H692 H 0.73578 0.95338 0.27208 0.0
H693 H 0.76285 0.95801 0.26394 0.0
H694 H 0.77451 0.95546 0.36265 0.0
H695 H 0.76273 0.98226 0.42627 0.0
H696 H 0.66916 0.24969 0.67184 0.0
H697 H 0.64157 0.24048 0.73442 0.0
H698 H 0.60448 0.29035 0.67261 0.0
H699 H 0.63195 0.2996 0.609 0.0
H700 H 0.62523 0.26476 0.81558 0.0
H701 H 0.56486 0.24139 0.66801 0.0
H702 H 0.59155 0.24439 0.64905 0.0
H703 H 0.57532 0.26664 0.6566 0.0
C704 C 0.65509 0.25865 0.67106 0.0
C705 C 0.65281 0.27542 0.63526 0.0
C706 C 0.63934 0.25335 0.70699 0.0
C707 C 0.62093 0.26462 0.70788 0.0
C708 C 0.61844 0.28123 0.67192 0.0
H709 H 0.5313 0.26544 0.97105 0.0
H710 H 0.55899 0.27399 0.90685 0.0
C711 C 0.6342 0.28653 0.63572 0.0
C712 C 0.60477 0.25939 0.74811 0.0
H713 H 0.55479 0.24382 0.7605 0.0
C714 C 0.60983 0.26015 0.80358 0.0
C715 C 0.58479 0.25317 0.73227 0.0
C716 C 0.57878 0.25114 0.67325 0.0
C717 C 0.59537 0.255 0.84372 0.0
C718 C 0.57523 0.24929 0.82792 0.0
C719 C 0.57022 0.24835 0.77246 0.0
C720 C 0.55915 0.244 0.86826 0.0
C721 C 0.6019 0.25534 0.90259 0.0
C722 C 0.54996 0.22442 0.86747 0.0
C723 C 0.53421 0.21961 0.90398 0.0
C724 C 0.52737 0.23432 0.94159 0.0
C725 C 0.53665 0.25382 0.94281 0.0
C726 C 0.5524 0.25866 0.90626 0.0
H727 H 0.61893 0.25474 0.9069 0.0
H728 H 0.59644 0.26982 0.9217 0.0
H729 H 0.59511 0.24219 0.92524 0.0
H730 H 0.55493 0.2129 0.83841 0.0
H731 H 0.52719 0.20449 0.90265 0.0
H732 H 0.19614 0.12988 0.10444 0.0
H733 H 0.2051 0.10296 0.17002 0.0
H734 H 0.25137 0.14258 0.2399 0.0
H735 H 0.24244 0.16961 0.17536 0.0
H736 H 0.24267 0.08328 0.18863 0.0
H737 H 0.21719 0.12595 0.3721 0.0
H738 H 0.21019 0.13377 0.30415 0.0
H739 H 0.23525 0.13988 0.33086 0.0
C740 C 0.20825 0.13288 0.13369 0.0
C741 C 0.21843 0.15202 0.13484 0.0
C742 C 0.21332 0.11748 0.17117 0.0
C743 C 0.22858 0.12096 0.21052 0.0
C744 C 0.23917 0.13978 0.21077 0.0
H745 H 0.28689 0.04818 0.46304 0.0
H746 H 0.27598 0.07555 0.39999 0.0
C747 C 0.2341 0.15518 0.17352 0.0
C748 C 0.23373 0.10482 0.25084 0.0
H749 H 0.23633 0.09521 0.38719 0.0
C750 C 0.24114 0.08581 0.23203 0.0
C751 C 0.23175 0.10821 0.30744 0.0
C752 C 0.22298 0.12798 0.32995 0.0
C753 C 0.24707 0.07024 0.26837 0.0
C754 C 0.24525 0.07371 0.32492 0.0
C755 C 0.23775 0.09266 0.34378 0.0
C756 C 0.25106 0.05778 0.36507 0.0
C757 C 0.2557 0.05038 0.24604 0.0
C758 C 0.24025 0.03908 0.36729 0.0
C759 C 0.24642 0.02363 0.40322 0.0
C760 C 0.26348 0.02663 0.43732 0.0
C761 C 0.27377 0.04562 0.43674 0.0
C762 C 0.26758 0.06114 0.40084 0.0
H763 H 0.26048 0.05196 0.20289 0.0
H764 H 0.26916 0.04519 0.2703 0.0
H765 H 0.24371 0.03822 0.2483 0.0
H766 H 0.22717 0.0364 0.34089 0.0
H767 H 0.23801 0.00923 0.40415 0.0
H768 H 0.21358 0.28275 0.90836 0.0
H769 H 0.21277 0.32036 0.9072 0.0
H770 H 0.21443 0.32142 0.08235 0.0
H771 H 0.21502 0.28379 0.08422 0.0
H772 H 0.18529 0.34876 0.03562 0.0
H773 H 0.26296 0.35677 0.94306 0.0
H774 H 0.24541 0.34062 0.90598 0.0
H775 H 0.25396 0.33293 0.9724 0.0
C776 C 0.21377 0.29093 0.94673 0.0
C777 C 0.21455 0.2802 0.99641 0.0
C778 C 0.21336 0.31243 0.94591 0.0
C779 C 0.21384 0.32361 0.99464 0.0
C780 C 0.21414 0.31302 0.0443 0.0
H781 H 0.24669 0.45065 0.04547 0.0
H782 H 0.24364 0.413 0.04551 0.0
C783 C 0.21452 0.29151 0.04522 0.0
C784 C 0.21434 0.34637 0.99394 0.0
H785 H 0.24365 0.38734 0.95452 0.0
C786 C 0.19802 0.35724 0.01787 0.0
C787 C 0.23109 0.35729 0.97122 0.0
C788 C 0.24946 0.34636 0.9471 0.0
C789 C 0.19796 0.37885 0.01948 0.0
C790 C 0.21455 0.38977 0.99594 0.0
C791 C 0.23089 0.37888 0.97216 0.0
C792 C 0.21574 0.41251 0.99733 0.0
C793 C 0.18042 0.38982 0.04743 0.0
C794 C 0.2011 0.42462 0.97007 0.0
C795 C 0.20279 0.4461 0.97042 0.0
C796 C 0.21916 0.45565 0.99783 0.0
C797 C 0.2338 0.44352 0.02487 0.0
C798 C 0.23212 0.4221 0.02459 0.0
H799 H 0.17141 0.37925 0.07382 0.0
H800 H 0.18623 0.40279 0.07257 0.0
H801 H 0.16986 0.39624 0.01629 0.0
H802 H 0.18857 0.41748 0.94799 0.0
H803 H 0.19142 0.45529 0.94927 0.0
H804 H 0.2103 0.71449 0.41071 0.0
H805 H 0.17273 0.7131 0.41151 0.0
H806 H 0.17302 0.71379 0.58673 0.0
H807 H 0.21064 0.71495 0.58664 0.0
H808 H 0.14591 0.68433 0.54017 0.0
H809 H 0.13567 0.76238 0.45128 0.0
H810 H 0.1519 0.74541 0.41264 0.0
H811 H 0.15989 0.75369 0.47908 0.0
C812 C 0.20243 0.71436 0.44951 0.0
C813 C 0.21353 0.71501 0.49864 0.0
C814 C 0.18094 0.71362 0.44981 0.0
C815 C 0.17016 0.71364 0.49915 0.0
C816 C 0.18112 0.71385 0.54824 0.0
H817 H 0.04274 0.74349 0.55507 0.0
H818 H 0.08042 0.74116 0.55445 0.0
C819 C 0.20262 0.71457 0.54805 0.0
C820 C 0.14741 0.71368 0.4996 0.0
H821 H 0.1056 0.74228 0.46283 0.0
C822 C 0.13705 0.69697 0.52328 0.0
C823 C 0.13599 0.73032 0.47799 0.0
C824 C 0.14637 0.74907 0.45421 0.0
C825 C 0.11546 0.69641 0.52565 0.0
C826 C 0.10405 0.71288 0.50314 0.0
C827 C 0.11444 0.72961 0.47967 0.0
C828 C 0.08132 0.71353 0.50524 0.0
C829 C 0.10504 0.67846 0.55325 0.0
C830 C 0.06942 0.69878 0.47767 0.0
C831 C 0.04793 0.70005 0.47843 0.0
C832 C 0.03814 0.7161 0.50654 0.0
C833 C 0.05006 0.73082 0.53396 0.0
C834 C 0.07149 0.72956 0.5333 0.0
H835 H 0.11594 0.66955 0.57895 0.0
H836 H 0.09206 0.68381 0.57901 0.0
H837 H 0.09872 0.66792 0.5219 0.0
H838 H 0.07675 0.68652 0.45496 0.0
H839 H 0.0389 0.68863 0.45693 0.0
H840 H 0.77351 0.71105 0.91905 0.0
H841 H 0.77424 0.67345 0.91937 0.0
H842 H 0.78528 0.67367 0.09219 0.0
H843 H 0.78424 0.71129 0.09266 0.0
H844 H 0.80523 0.64666 0.9504 0.0
H845 H 0.73531 0.63595 0.0772 0.0
H846 H 0.74196 0.66038 0.04693 0.0
H847 H 0.75472 0.65189 0.10781 0.0
C848 C 0.77605 0.70316 0.95724 0.0
C849 C 0.77864 0.71424 0.00593 0.0
C850 C 0.7765 0.68165 0.95727 0.0
C851 C 0.77951 0.67081 0.0059 0.0
C852 C 0.7825 0.68177 0.0544 0.0
H853 H 0.80927 0.53992 0.03121 0.0
H854 H 0.81075 0.57783 0.03208 0.0
C855 C 0.78198 0.70328 0.05451 0.0
C856 C 0.77955 0.64802 0.00565 0.0
H857 H 0.75464 0.60599 0.05669 0.0
C858 C 0.79418 0.63773 0.97358 0.0
C859 C 0.76494 0.63647 0.03545 0.0
C860 C 0.74821 0.64669 0.06842 0.0
C861 C 0.79466 0.61615 0.97074 0.0
C862 C 0.78036 0.60461 0.00157 0.0
C863 C 0.76568 0.6149 0.03343 0.0
C864 C 0.77989 0.58182 1.00025 0.0
C865 C 0.81014 0.60593 0.93378 0.0
C866 C 0.76196 0.5716 0.98319 0.0
C867 C 0.76111 0.55012 0.98333 0.0
C868 C 0.77816 0.5386 1.00042 0.0
C869 C 0.79609 0.54872 0.01752 0.0
C870 C 0.79694 0.57024 0.01767 0.0
H871 H 0.81626 0.61681 0.90291 0.0
H872 H 0.82329 0.60028 0.95842 0.0
H873 H 0.8032 0.59253 0.91247 0.0
H874 H 0.74861 0.58026 0.96988 0.0
H875 H 0.74714 0.54242 0.9705 0.0
H876 H 0.78557 0.28241 0.41928 0.0
H877 H 0.82314 0.2835 0.42037 0.0
H878 H 0.82282 0.27918 0.59523 0.0
H879 H 0.78517 0.27836 0.59486 0.0
H880 H 0.85016 0.30892 0.55488 0.0
H881 H 0.86009 0.23364 0.45098 0.0
H882 H 0.84409 0.25156 0.41479 0.0
H883 H 0.83582 0.24177 0.47955 0.0
C884 C 0.79343 0.28167 0.45807 0.0
C885 C 0.78231 0.28012 0.50699 0.0
C886 C 0.81492 0.28223 0.45853 0.0
C887 C 0.82572 0.28107 0.5078 0.0
C888 C 0.81473 0.27998 0.55677 0.0
H889 H 0.95479 0.25081 0.5456 0.0
H890 H 0.917 0.25215 0.54975 0.0
C891 C 0.79321 0.27947 0.55641 0.0
C892 C 0.8485 0.28091 0.50821 0.0
H893 H 0.89019 0.2538 0.46347 0.0
C894 C 0.85895 0.29687 0.53504 0.0
C895 C 0.85985 0.265 0.48286 0.0
C896 C 0.84943 0.24691 0.45583 0.0
C897 C 0.88056 0.29749 0.53655 0.0
C898 C 0.8919 0.28191 0.50977 0.0
C899 C 0.88142 0.26582 0.48356 0.0
C900 C 0.91469 0.28168 0.50926 0.0
C901 C 0.89103 0.3146 0.56757 0.0
C902 C 0.92584 0.29779 0.48501 0.0
C903 C 0.94734 0.29703 0.48301 0.0
C904 C 0.95788 0.28009 0.50476 0.0
C905 C 0.94678 0.26401 0.52893 0.0
C906 C 0.92532 0.26477 0.53113 0.0
H907 H 0.88041 0.32205 0.597 0.0
H908 H 0.90467 0.30874 0.58998 0.0
H909 H 0.89634 0.32655 0.53854 0.0
H910 H 0.91791 0.31077 0.46694 0.0
H911 H 0.95579 0.30951 0.46419 0.0
H912 H 0.71644 0.2098 0.4146 0.0
H913 H 0.71471 0.17219 0.41534 0.0
H914 H 0.70787 0.17282 0.58966 0.0
H915 H 0.70991 0.21035 0.58963 0.0
H916 H 0.73747 0.14589 0.55524 0.0
H917 H 0.66525 0.13447 0.43855 0.0
H918 H 0.68383 0.15031 0.40428 0.0
H919 H 0.67253 0.15909 0.46685 0.0
C920 C 0.71441 0.20197 0.4531 0.0
C921 C 0.71335 0.21313 0.50207 0.0
C922 C 0.71329 0.18048 0.45337 0.0
C923 C 0.71086 0.16976 0.50247 0.0
C924 C 0.70965 0.18082 0.55131 0.0
H925 H 0.68633 0.03829 0.53865 0.0
H926 H 0.68398 0.07616 0.54009 0.0
C927 C 0.71085 0.20229 0.55116 0.0
C928 C 0.71076 0.14697 0.50338 0.0
H929 H 0.6859 0.10461 0.45373 0.0
C930 C 0.72613 0.13686 0.53331 0.0
C931 C 0.69579 0.13526 0.47528 0.0
C932 C 0.67829 0.14531 0.44484 0.0
C933 C 0.72721 0.11531 0.53496 0.0
C934 C 0.71276 0.10361 0.50502 0.0
C935 C 0.69709 0.11368 0.47613 0.0
C936 C 0.71384 0.08088 0.50295 0.0
C937 C 0.7437 0.10526 0.56914 0.0
C938 C 0.7312 0.07112 0.4808 0.0
C939 C 0.73254 0.04967 0.4804 0.0
C940 C 0.7165 0.03771 0.50172 0.0
C941 C 0.69892 0.0474 0.52266 0.0
C942 C 0.69756 0.06889 0.5232 0.0
H943 H 0.7498 0.11596 0.60052 0.0
H944 H 0.73772 0.09125 0.58967 0.0
H945 H 0.75671 0.10063 0.54258 0.0
H946 H 0.74374 0.08011 0.46408 0.0
H947 H 0.74619 0.04236 0.46407 0.0
H948 H 0.28409 0.20803 0.91109 0.0
H949 H 0.32164 0.20644 0.91072 0.0
H950 H 0.32238 0.21262 0.08521 0.0
H951 H 0.28479 0.21393 0.08629 0.0
H952 H 0.34792 0.23668 0.94632 0.0
H953 H 0.36128 0.16409 0.05987 0.0
H954 H 0.3365 0.17084 0.03168 0.0
H955 H 0.34487 0.18197 0.09487 0.0
C956 C 0.29218 0.20888 0.94953 0.0
C957 C 0.28137 0.21114 0.99876 0.0
C958 C 0.31366 0.20794 0.94918 0.0
C959 C 0.32476 0.20914 0.99796 0.0
C960 C 0.31408 0.21121 0.0472 0.0
H961 H 0.44981 0.24871 0.04633 0.0
H962 H 0.4123 0.24423 0.04397 0.0
C963 C 0.29258 0.21211 0.04766 0.0
C964 C 0.34754 0.2096 0.99693 0.0
H965 H 0.39054 0.18589 0.04672 0.0
C966 C 0.35724 0.22548 0.96793 0.0
C967 C 0.35965 0.19483 0.02463 0.0
C968 C 0.35008 0.17685 0.0541 0.0
C969 C 0.37874 0.22735 0.96714 0.0
C970 C 0.3908 0.21314 0.99684 0.0
C971 C 0.38118 0.19688 0.0245 0.0
C972 C 0.41341 0.21526 1.00045 0.0
C973 C 0.38838 0.24449 0.93446 0.0
C974 C 0.42637 0.20018 0.97806 0.0
C975 C 0.44775 0.20269 0.97978 0.0
C976 C 0.45636 0.22021 0.00429 0.0
C977 C 0.44339 0.23504 0.02764 0.0
C978 C 0.42207 0.23256 0.02588 0.0
H979 H 0.37759 0.25067 0.90344 0.0
H980 H 0.39266 0.2573 0.96215 0.0
H981 H 0.40258 0.23911 0.91371 0.0
H982 H 0.41993 0.18669 0.95849 0.0
H983 H 0.45759 0.19108 0.96184 0.0
H984 H 0.28667 0.78444 0.40823 0.0
H985 H 0.28956 0.82195 0.40793 0.0
H986 H 0.2826 0.82289 0.58221 0.0
H987 H 0.28002 0.78537 0.58322 0.0
H988 H 0.26065 0.84973 0.44224 0.0
H989 H 0.33304 0.85928 0.55915 0.0
H990 H 0.32517 0.83486 0.53074 0.0
H991 H 0.31416 0.84384 0.5935 0.0
C992 C 0.28588 0.79257 0.44662 0.0
C993 C 0.28311 0.78185 0.49579 0.0
C994 C 0.28757 0.81402 0.44632 0.0
C995 C 0.28661 0.82515 0.4951 0.0
C996 C 0.28386 0.81455 0.54423 0.0
H997 H 0.25304 0.95251 0.53846 0.0
H998 H 0.2553 0.91472 0.53699 0.0
C999 C 0.28223 0.79309 0.54464 0.0
C1000 C 0.28728 0.84793 0.49423 0.0
H1001 H 0.31281 0.8896 0.54559 0.0
C1002 C 0.27214 0.85845 0.4645 0.0
C1003 C 0.30246 0.85924 0.52275 0.0
C1004 C 0.31976 0.84875 0.55291 0.0
C1005 C 0.27141 0.88002 0.46371 0.0
C1006 C 0.28599 0.89132 0.4943 0.0
C1007 C 0.30151 0.88084 0.52274 0.0
C1008 C 0.28513 0.91403 0.4977 0.0
C1009 C 0.2551 0.89053 0.4299 0.0
C1010 C 0.30145 0.92605 0.47779 0.0
C1011 C 0.30019 0.94755 0.47913 0.0
C1012 C 0.28268 0.95718 0.50062 0.0
C1013 C 0.26662 0.94519 0.52175 0.0
C1014 C 0.26787 0.92375 0.52053 0.0
H1015 H 0.24889 0.88013 0.39798 0.0
H1016 H 0.24213 0.89516 0.45659 0.0
H1017 H 0.26129 0.9046 0.4101 0.0
H1018 H 0.31494 0.9188 0.46031 0.0
H1019 H 0.31269 0.95671 0.46288 0.0
H1020 H 0.70912 0.78315 0.91999 0.0
H1021 H 0.67161 0.78539 0.92285 0.0
H1022 H 0.67356 0.78953 0.09771 0.0
H1023 H 0.71107 0.78697 0.09552 0.0
H1024 H 0.64647 0.76051 0.0617 0.0
H1025 H 0.63381 0.83414 0.95279 0.0
H1026 H 0.64964 0.81642 0.91551 0.0
H1027 H 0.65867 0.82665 0.97917 0.0
C1028 C 0.70163 0.78472 0.95909 0.0
C1029 C 0.71314 0.78481 0.00754 0.0
C1030 C 0.68018 0.78617 0.96058 0.0
C1031 C 0.66986 0.78795 0.01043 0.0
C1032 C 0.68127 0.78829 0.0588 0.0
H1033 H 0.5366 0.80646 0.04145 0.0
H1034 H 0.5742 0.81099 0.04781 0.0
C1035 C 0.70271 0.78678 0.05741 0.0
C1036 C 0.64709 0.78791 0.0123 0.0
H1037 H 0.60434 0.81222 0.96314 0.0
C1038 C 0.63725 0.77194 0.04063 0.0
C1039 C 0.63512 0.80299 0.98538 0.0
C1040 C 0.64483 0.82114 0.95695 0.0
C1041 C 0.61575 0.77021 0.04111 0.0
C1042 C 0.60384 0.78462 0.01167 0.0
C1043 C 0.61359 0.80106 0.98509 0.0
C1044 C 0.58129 0.78239 0.00662 0.0
C1045 C 0.60596 0.75292 0.07296 0.0
C1046 C 0.57299 0.76505 0.98059 0.0
C1047 C 0.55171 0.76248 0.97717 0.0
C1048 C 0.53843 0.77729 0.99933 0.0
C1049 C 0.54669 0.79486 0.0244 0.0
C1050 C 0.56803 0.79745 0.02785 0.0
H1051 H 0.61652 0.74686 0.1047 0.0
H1052 H 0.59149 0.75809 0.09274 0.0
H1053 H 0.60217 0.74008 0.0449 0.0
H1054 H 0.58299 0.75342 0.96326 0.0
H1055 H 0.54557 0.74876 0.95812 0.0
loop_
_geom_bond_atom_site_label_1
_geom_bond_atom_site_label_2
_geom_bond_distance
_geom_bond_site_symmetry_2
_ccdc_geom_bond_type
Sc0 O3 2.027 . S
Sc0 O10 2.105 . S
Sc0 O13 2.105 . S
Sc0 O16 2.105 . S
Sc0 O19 2.105 . S
Sc1 O3 2.025 . S
Sc1 O11 2.105 . S
Sc1 O15 2.104 1_554 S
Sc1 O17 2.105 . S
Sc1 O21 2.104 1_554 S
Sc2 O3 2.024 1_556 S
Sc2 O12 2.105 . S
Sc2 O14 2.105 . S
Sc2 O18 2.105 . S
Sc2 O20 2.105 . S
O3 Sc0 2.027 . S
O3 Sc1 2.025 . S
O3 Sc2 2.024 1_554 S
C4 O10 1.271 . S
C4 O20 1.265 1_554 S
C5 O11 1.268 . S
C5 O19 1.268 . S
C6 O12 1.268 . S
C6 O21 1.268 . S
C7 O13 1.268 . S
C7 O17 1.268 . S
C8 O14 1.265 1_554 S
C8 O16 1.271 . S
C9 O15 1.268 . S
C9 O18 1.268 . S
O10 Sc0 2.105 . S
O10 C4 1.271 . S
O11 Sc1 2.105 . S
O11 C5 1.268 . S
O12 Sc2 2.105 . S
O12 C6 1.268 . S
O13 Sc0 2.105 . S
O13 C7 1.268 . S
O14 Sc2 2.105 . S
O14 C8 1.265 1_556 S
O15 Sc1 2.104 1_556 S
O15 C9 1.268 . S
O16 Sc0 2.105 . S
O16 C8 1.271 . S
O17 Sc1 2.105 . S
O17 C7 1.268 . S
O18 Sc2 2.105 . S
O18 C9 1.268 . S
O19 Sc0 2.105 . S
O19 C5 1.268 . S
O20 Sc2 2.105 . S
O20 C4 1.265 1_556 S
O21 Sc1 2.104 1_556 S
O21 C6 1.268 . S
Sc22 O25 2.025 . S
Sc22 O32 2.105 . S
Sc22 O35 2.105 . S
Sc22 O38 2.105 . S
Sc22 O41 2.105 . S
Sc23 O25 2.025 . S
Sc23 O33 2.105 . S
Sc23 O37 2.105 . S
Sc23 O39 2.105 . S
Sc23 O43 2.105 . S
Sc24 O25 2.025 . S
Sc24 O34 2.105 . S
Sc24 O36 2.105 . S
Sc24 O40 2.105 . S
Sc24 O42 2.105 . S
O25 Sc22 2.025 . S
O25 Sc23 2.025 . S
O25 Sc24 2.025 . S
C26 O32 1.268 . S
C26 O42 1.268 . S
C27 O33 1.268 . S
C27 O41 1.268 . S
C28 O34 1.268 . S
C28 O43 1.268 . S
C29 O35 1.268 . S
C29 O39 1.268 . S
C30 O36 1.268 . S
C30 O38 1.268 . S
C31 O37 1.268 . S
C31 O40 1.268 . S
O32 Sc22 2.105 . S
O32 C26 1.268 . S
O33 Sc23 2.105 . S
O33 C27 1.268 . S
O34 Sc24 2.105 . S
O34 C28 1.268 . S
O35 Sc22 2.105 . S
O35 C29 1.268 . S
O36 Sc24 2.105 . S
O36 C30 1.268 . S
O37 Sc23 2.105 . S
O37 C31 1.268 . S
O38 Sc22 2.105 . S
O38 C30 1.268 . S
O39 Sc23 2.105 . S
O39 C29 1.268 . S
O40 Sc24 2.105 . S
O40 C31 1.268 . S
O41 Sc22 2.105 . S
O41 C27 1.268 . S
O42 Sc24 2.105 . S
O42 C26 1.268 . S
O43 Sc23 2.105 . S
O43 C28 1.268 . S
Sc44 O47 2.018 1_556 S
Sc44 O54 2.105 . S
Sc44 O57 2.105 . S
Sc44 O60 2.105 . S
Sc44 O63 2.105 . S
Sc45 O47 2.025 . S
Sc45 O55 2.098 1_554 S
Sc45 O59 2.111 . S
Sc45 O61 2.098 1_554 S
Sc45 O65 2.111 . S
Sc46 O47 2.033 . S
Sc46 O56 2.105 . S
Sc46 O58 2.105 . S
Sc46 O62 2.105 . S
Sc46 O64 2.105 . S
O47 Sc44 2.018 1_554 S
O47 Sc45 2.025 . S
O47 Sc46 2.033 . S
C48 O54 1.262 1_554 S
C48 O64 1.275 . S
C49 O55 1.268 . S
C49 O63 1.268 . S
C50 O56 1.268 . S
C50 O65 1.268 . S
C51 O57 1.268 . S
C51 O61 1.268 . S
C52 O58 1.275 . S
C52 O60 1.262 1_554 S
C53 O59 1.268 . S
C53 O62 1.268 . S
O54 Sc44 2.105 . S
O54 C48 1.262 1_556 S
O55 Sc45 2.098 1_556 S
O55 C49 1.268 . S
O56 Sc46 2.105 . S
O56 C50 1.268 . S
O57 Sc44 2.105 . S
O57 C51 1.268 . S
O58 Sc46 2.105 . S
O58 C52 1.275 . S
O59 Sc45 2.111 . S
O59 C53 1.268 . S
O60 Sc44 2.105 . S
O60 C52 1.262 1_556 S
O61 Sc45 2.098 1_556 S
O61 C51 1.268 . S
O62 Sc46 2.105 . S
O62 C53 1.268 . S
O63 Sc44 2.105 . S
O63 C49 1.268 . S
O64 Sc46 2.105 . S
O64 C48 1.275 . S
O65 Sc45 2.111 . S
O65 C50 1.268 . S
Sc66 O69 2.025 . S
Sc66 O76 2.105 . S
Sc66 O79 2.105 . S
Sc66 O82 2.105 . S
Sc66 O85 2.105 . S
Sc67 O69 2.025 . S
Sc67 O77 2.105 . S
Sc67 O81 2.105 . S
Sc67 O83 2.105 . S
Sc67 O87 2.105 . S
Sc68 O69 2.025 . S
Sc68 O78 2.105 . S
Sc68 O80 2.105 . S
Sc68 O84 2.105 . S
Sc68 O86 2.105 . S
O69 Sc66 2.025 . S
O69 Sc67 2.025 . S
O69 Sc68 2.025 . S
C70 O76 1.268 . S
C70 O86 1.268 . S
C71 O77 1.268 . S
C71 O85 1.268 . S
C72 O78 1.268 . S
C72 O87 1.268 . S
C73 O79 1.268 . S
C73 O83 1.268 . S
C74 O80 1.268 . S
C74 O82 1.268 . S
C75 O81 1.268 . S
C75 O84 1.268 . S
O76 Sc66 2.105 . S
O76 C70 1.268 . S
O77 Sc67 2.105 . S
O77 C71 1.268 . S
O78 Sc68 2.105 . S
O78 C72 1.268 . S
O79 Sc66 2.105 . S
O79 C73 1.268 . S
O80 Sc68 2.105 . S
O80 C74 1.268 . S
O81 Sc67 2.105 . S
O81 C75 1.268 . S
O82 Sc66 2.105 . S
O82 C74 1.268 . S
O83 Sc67 2.105 . S
O83 C73 1.268 . S
O84 Sc68 2.105 . S
O84 C75 1.268 . S
O85 Sc66 2.105 . S
O85 C71 1.268 . S
O86 Sc68 2.105 . S
O86 C70 1.268 . S
O87 Sc67 2.105 . S
O87 C72 1.268 . S
C88 N89 1.317 . S
C88 N90 1.360 . S
C88 C91 1.485 . S
N89 C88 1.317 . S
N89 N93 1.370 1_556 S
N90 C88 1.360 . S
N90 C92 1.335 1_556 S
C91 C88 1.485 . S
C91 H95 0.960 . S
C91 H96 0.961 . S
C91 H97 0.960 . S
C92 N90 1.335 1_554 S
C92 N93 1.307 . S
C92 C94 1.486 . S
N93 N89 1.370 1_554 S
N93 C92 1.307 . S
C94 C92 1.486 . S
C94 H98 0.960 . S
C94 H99 0.960 . S
C94 H100 0.959 . S
H95 C91 0.960 . S
H96 C91 0.961 . S
H97 C91 0.960 . S
H98 C94 0.960 . S
H99 C94 0.960 . S
H100 C94 0.959 . S
C101 N102 1.317 1_455 S
C101 N103 1.348 . S
C101 C104 1.485 . S
N102 C101 1.317 1_655 S
N102 N106 1.370 . S
N103 C101 1.348 . S
N103 C105 1.346 . S
C104 C101 1.485 . S
C104 H108 0.960 . S
C104 H109 0.961 . S
C104 H110 0.960 1_455 S
C105 N103 1.346 . S
C105 N106 1.307 1_455 S
C105 C107 1.486 . S
N106 N102 1.370 . S
N106 C105 1.307 1_655 S
C107 C105 1.486 . S
C107 H111 0.960 . S
C107 H112 0.960 . S
C107 H113 0.959 1_455 S
H108 C104 0.960 . S
H109 C104 0.961 . S
H110 C104 0.960 1_655 S
H111 C107 0.960 . S
H112 C107 0.960 . S
H113 C107 0.959 1_655 S
C114 N115 1.317 . S
C114 N116 1.348 . S
C114 C117 1.485 . S
N115 C114 1.317 . S
N115 N119 1.370 1_554 S
N116 C114 1.348 . S
N116 C118 1.346 1_554 S
C117 C114 1.485 . S
C117 H121 0.960 . S
C117 H122 0.961 . S
C117 H123 0.960 . S
C118 N116 1.346 1_556 S
C118 N119 1.307 . S
C118 C120 1.486 . S
N119 N115 1.370 1_556 S
N119 C118 1.307 . S
C120 C118 1.486 . S
C120 H124 0.960 . S
C120 H125 0.960 . S
C120 H126 0.959 . S
H121 C117 0.960 . S
H122 C117 0.961 . S
H123 C117 0.960 . S
H124 C120 0.960 . S
H125 C120 0.960 . S
H126 C120 0.959 . S
C127 N128 1.317 1_655 S
C127 N129 1.348 . S
C127 C130 1.485 . S
N128 C127 1.317 1_455 S
N128 N132 1.370 . S
N129 C127 1.348 . S
N129 C131 1.346 . S
C130 C127 1.485 . S
C130 H134 0.960 . S
C130 H135 0.961 . S
C130 H136 0.960 1_655 S
C131 N129 1.346 . S
C131 N132 1.307 1_655 S
C131 C133 1.486 . S
N132 N128 1.370 . S
N132 C131 1.307 1_455 S
C133 C131 1.486 . S
C133 H137 0.960 . S
C133 H138 0.960 . S
C133 H139 0.959 1_655 S
H134 C130 0.960 . S
H135 C130 0.961 . S
H136 C130 0.960 1_455 S
H137 C133 0.960 . S
H138 C133 0.960 . S
H139 C133 0.959 1_455 S
C140 N141 1.317 1_545 S
C140 N142 1.348 . S
C140 C143 1.485 . S
N141 C140 1.317 1_565 S
N141 N145 1.370 . S
N142 C140 1.348 . S
N142 C144 1.346 . S
C143 C140 1.485 . S
C143 H147 0.960 . S
C143 H148 0.961 . S
C143 H149 0.960 1_545 S
C144 N142 1.346 . S
C144 N145 1.307 1_545 S
C144 C146 1.486 . S
N145 N141 1.370 . S
N145 C144 1.307 1_565 S
C146 C144 1.486 . S
C146 H150 0.960 . S
C146 H151 0.960 . S
C146 H152 0.959 1_545 S
H147 C143 0.960 . S
H148 C143 0.961 . S
H149 C143 0.960 1_565 S
H150 C146 0.960 . S
H151 C146 0.960 . S
H152 C146 0.959 1_565 S
C153 N154 1.317 . S
C153 N155 1.360 . S
C153 C156 1.485 . S
N154 C153 1.317 . S
N154 N158 1.370 1_556 S
N155 C153 1.360 . S
N155 C157 1.335 1_556 S
C156 C153 1.485 . S
C156 H160 0.960 . S
C156 H161 0.961 . S
C156 H162 0.960 . S
C157 N155 1.335 1_554 S
C157 N158 1.307 . S
C157 C159 1.486 . S
N158 N154 1.370 1_554 S
N158 C157 1.307 . S
C159 C157 1.486 . S
C159 H163 0.960 . S
C159 H164 0.960 . S
C159 H165 0.959 . S
H160 C156 0.960 . S
H161 C156 0.961 . S
H162 C156 0.960 . S
H163 C159 0.960 . S
H164 C159 0.960 . S
H165 C159 0.959 . S
C166 N167 1.317 1_565 S
C166 N168 1.348 . S
C166 C169 1.485 . S
N167 C166 1.317 1_545 S
N167 N171 1.370 . S
N168 C166 1.348 . S
N168 C170 1.346 . S
C169 C166 1.485 . S
C169 H173 0.960 . S
C169 H174 0.961 . S
C169 H175 0.960 1_565 S
C170 N168 1.346 . S
C170 N171 1.307 1_565 S
C170 C172 1.486 . S
N171 N167 1.370 . S
N171 C170 1.307 1_545 S
C172 C170 1.486 . S
C172 H176 0.960 . S
C172 H177 0.960 . S
C172 H178 0.959 1_565 S
H173 C169 0.960 . S
H174 C169 0.961 . S
H175 C169 0.960 1_545 S
H176 C172 0.960 . S
H177 C172 0.960 . S
H178 C172 0.959 1_545 S
C179 N180 1.317 . S
C179 N181 1.348 . S
C179 C182 1.485 . S
N180 C179 1.317 . S
N180 N184 1.370 1_554 S
N181 C179 1.348 . S
N181 C183 1.346 1_554 S
C182 C179 1.485 . S
C182 H186 0.960 . S
C182 H187 0.961 . S
C182 H188 0.960 . S
C183 N181 1.346 1_556 S
C183 N184 1.307 . S
C183 C185 1.486 . S
N184 N180 1.370 1_556 S
N184 C183 1.307 . S
C185 C183 1.486 . S
C185 H189 0.960 . S
C185 H190 0.960 . S
C185 H191 0.959 . S
H186 C182 0.960 . S
H187 C182 0.961 . S
H188 C182 0.960 . S
H189 C185 0.960 . S
H190 C185 0.960 . S
H191 C185 0.959 . S
H192 C200 0.929 . S
H193 C202 0.930 . S
H194 C204 0.930 . S
H195 C207 0.929 . S
H196 C210 0.930 . S
H197 C212 0.960 . S
H198 C212 0.960 . S
H199 C212 0.960 . S
C200 H192 0.929 . S
C200 C201 1.377 . S
C200 C202 1.384 . S
C201 C200 1.377 . S
C201 C207 1.390 . S
C202 H193 0.930 . S
C202 C200 1.384 . S
C202 C203 1.372 . S
C203 C202 1.372 . S
C203 C204 1.400 . S
C203 C208 1.490 . S
C204 H194 0.930 . S
C204 C203 1.400 . S
C204 C207 1.386 . S
H205 C221 0.930 . S
H206 C222 0.931 . S
C207 H195 0.929 . S
C207 C201 1.390 . S
C207 C204 1.386 . S
C208 C203 1.490 . S
C208 C210 1.395 . S
C208 C211 1.403 . S
H209 C215 0.930 . S
C210 H196 0.930 . S
C210 C208 1.395 . S
C210 C213 1.403 . S
C211 C208 1.403 . S
C211 C212 1.524 . S
C211 C215 1.400 . S
C212 H197 0.960 . S
C212 H198 0.960 . S
C212 H199 0.960 . S
C212 C211 1.524 . S
C213 C210 1.403 . S
C213 C214 1.392 . S
C213 C217 1.495 . S
C214 C213 1.392 . S
C214 C215 1.385 . S
C214 C216 1.478 . S
C215 H209 0.930 . S
C215 C211 1.400 . S
C215 C214 1.385 . S
C216 C214 1.478 . S
C216 C218 1.381 . S
C216 C222 1.383 . S
C217 C213 1.495 . S
C217 H223 0.959 . S
C217 H224 0.961 . S
C217 H225 0.960 . S
C218 C216 1.381 . S
C218 C219 1.394 . S
C218 H226 0.930 . S
C219 C218 1.394 . S
C219 C220 1.383 . S
C219 H227 0.929 . S
C220 C219 1.383 . S
C220 C221 1.377 . S
C221 H205 0.930 . S
C221 C220 1.377 . S
C221 C222 1.379 . S
C222 H206 0.931 . S
C222 C216 1.383 . S
C222 C221 1.379 . S
H223 C217 0.959 . S
H224 C217 0.961 . S
H225 C217 0.960 . S
H226 C218 0.930 . S
H227 C219 0.929 . S
H228 C236 0.929 . S
H229 C238 0.930 . S
H230 C240 0.930 . S
H231 C243 0.929 . S
H232 C246 0.930 . S
H233 C248 0.960 . S
H234 C248 0.960 . S
H235 C248 0.960 . S
C236 H228 0.929 . S
C236 C237 1.377 . S
C236 C238 1.384 . S
C237 C236 1.377 . S
C237 C243 1.390 . S
C238 H229 0.930 . S
C238 C236 1.384 . S
C238 C239 1.372 . S
C239 C238 1.372 . S
C239 C240 1.400 . S
C239 C244 1.490 . S
C240 H230 0.930 . S
C240 C239 1.400 . S
C240 C243 1.386 . S
H241 C257 0.930 . S
H242 C258 0.931 . S
C243 H231 0.929 . S
C243 C237 1.390 . S
C243 C240 1.386 . S
C244 C239 1.490 . S
C244 C246 1.395 . S
C244 C247 1.403 . S
H245 C251 0.930 . S
C246 H232 0.930 . S
C246 C244 1.395 . S
C246 C249 1.403 . S
C247 C244 1.403 . S
C247 C248 1.524 . S
C247 C251 1.400 . S
C248 H233 0.960 . S
C248 H234 0.960 . S
C248 H235 0.960 . S
C248 C247 1.524 . S
C249 C246 1.403 . S
C249 C250 1.392 . S
C249 C253 1.495 . S
C250 C249 1.392 . S
C250 C251 1.385 . S
C250 C252 1.478 . S
C251 H245 0.930 . S
C251 C247 1.400 . S
C251 C250 1.385 . S
C252 C250 1.478 . S
C252 C254 1.381 . S
C252 C258 1.383 . S
C253 C249 1.495 . S
C253 H259 0.959 . S
C253 H260 0.961 . S
C253 H261 0.960 . S
C254 C252 1.381 . S
C254 C255 1.394 . S
C254 H262 0.930 . S
C255 C254 1.394 . S
C255 C256 1.383 . S
C255 H263 0.929 . S
C256 C255 1.383 . S
C256 C257 1.377 . S
C257 H241 0.930 . S
C257 C256 1.377 . S
C257 C258 1.379 . S
C258 H242 0.931 . S
C258 C252 1.383 . S
C258 C257 1.379 . S
H259 C253 0.959 . S
H260 C253 0.961 . S
H261 C253 0.960 . S
H262 C254 0.930 . S
H263 C255 0.929 . S
H264 C272 0.929 . S
H265 C274 0.930 . S
H266 C276 0.930 . S
H267 C279 0.929 . S
H268 C282 0.930 . S
H269 C284 0.960 . S
H270 C284 0.960 . S
H271 C284 0.960 . S
C272 H264 0.929 . S
C272 C273 1.377 . S
C272 C274 1.384 . S
C273 C272 1.377 . S
C273 C279 1.390 . S
C274 H265 0.930 . S
C274 C272 1.384 . S
C274 C275 1.372 . S
C275 C274 1.372 . S
C275 C276 1.400 . S
C275 C280 1.490 . S
C276 H266 0.930 . S
C276 C275 1.400 . S
C276 C279 1.386 . S
H277 C293 0.930 . S
H278 C294 0.931 . S
C279 H267 0.929 . S
C279 C273 1.390 . S
C279 C276 1.386 . S
C280 C275 1.490 . S
C280 C282 1.395 . S
C280 C283 1.403 . S
H281 C287 0.930 . S
C282 H268 0.930 . S
C282 C280 1.395 . S
C282 C285 1.403 . S
C283 C280 1.403 . S
C283 C284 1.524 . S
C283 C287 1.400 . S
C284 H269 0.960 . S
C284 H270 0.960 . S
C284 H271 0.960 . S
C284 C283 1.524 . S
C285 C282 1.403 . S
C285 C286 1.392 . S
C285 C289 1.495 . S
C286 C285 1.392 . S
C286 C287 1.385 . S
C286 C288 1.478 . S
C287 H281 0.930 . S
C287 C283 1.400 . S
C287 C286 1.385 . S
C288 C286 1.478 . S
C288 C290 1.381 . S
C288 C294 1.383 . S
C289 C285 1.495 . S
C289 H295 0.959 . S
C289 H296 0.961 . S
C289 H297 0.960 . S
C290 C288 1.381 . S
C290 C291 1.394 . S
C290 H298 0.930 . S
C291 C290 1.394 . S
C291 C292 1.383 . S
C291 H299 0.929 . S
C292 C291 1.383 . S
C292 C293 1.377 . S
C293 H277 0.930 . S
C293 C292 1.377 . S
C293 C294 1.379 . S
C294 H278 0.931 . S
C294 C288 1.383 . S
C294 C293 1.379 . S
H295 C289 0.959 . S
H296 C289 0.961 . S
H297 C289 0.960 . S
H298 C290 0.930 . S
H299 C291 0.929 . S
H300 C308 0.929 . S
H301 C310 0.930 . S
H302 C312 0.930 . S
H303 C315 0.929 . S
H304 C318 0.930 . S
H305 C320 0.960 . S
H306 C320 0.960 . S
H307 C320 0.960 . S
C308 H300 0.929 . S
C308 C309 1.377 . S
C308 C310 1.384 . S
C309 C308 1.377 . S
C309 C315 1.390 . S
C310 H301 0.930 . S
C310 C308 1.384 . S
C310 C311 1.372 . S
C311 C310 1.372 . S
C311 C312 1.400 . S
C311 C316 1.490 . S
C312 H302 0.930 . S
C312 C311 1.400 . S
C312 C315 1.386 . S
H313 C329 0.930 . S
H314 C330 0.931 . S
C315 H303 0.929 . S
C315 C309 1.390 . S
C315 C312 1.386 . S
C316 C311 1.490 . S
C316 C318 1.395 . S
C316 C319 1.403 . S
H317 C323 0.930 . S
C318 H304 0.930 . S
C318 C316 1.395 . S
C318 C321 1.403 . S
C319 C316 1.403 . S
C319 C320 1.524 . S
C319 C323 1.400 . S
C320 H305 0.960 . S
C320 H306 0.960 . S
C320 H307 0.960 . S
C320 C319 1.524 . S
C321 C318 1.403 . S
C321 C322 1.392 . S
C321 C325 1.495 . S
C322 C321 1.392 . S
C322 C323 1.385 . S
C322 C324 1.478 . S
C323 H317 0.930 . S
C323 C319 1.400 . S
C323 C322 1.385 . S
C324 C322 1.478 . S
C324 C326 1.381 . S
C324 C330 1.383 . S
C325 C321 1.495 . S
C325 H331 0.959 . S
C325 H332 0.961 . S
C325 H333 0.960 . S
C326 C324 1.381 . S
C326 C327 1.394 . S
C326 H334 0.930 . S
C327 C326 1.394 . S
C327 C328 1.383 . S
C327 H335 0.929 . S
C328 C327 1.383 . S
C328 C329 1.377 . S
C329 H313 0.930 . S
C329 C328 1.377 . S
C329 C330 1.379 . S
C330 H314 0.931 . S
C330 C324 1.383 . S
C330 C329 1.379 . S
H331 C325 0.959 . S
H332 C325 0.961 . S
H333 C325 0.960 . S
H334 C326 0.930 . S
H335 C327 0.929 . S
H336 C344 0.929 . S
H337 C346 0.930 . S
H338 C348 0.930 . S
H339 C351 0.929 . S
H340 C354 0.930 . S
H341 C356 0.960 . S
H342 C356 0.960 . S
H343 C356 0.960 . S
C344 H336 0.929 . S
C344 C345 1.377 . S
C344 C346 1.384 . S
C345 C344 1.377 . S
C345 C351 1.390 . S
C346 H337 0.930 . S
C346 C344 1.384 . S
C346 C347 1.372 . S
C347 C346 1.372 . S
C347 C348 1.400 . S
C347 C352 1.490 . S
C348 H338 0.930 . S
C348 C347 1.400 . S
C348 C351 1.386 . S
H349 C365 0.930 . S
H350 C366 0.931 . S
C351 H339 0.929 . S
C351 C345 1.390 . S
C351 C348 1.386 . S
C352 C347 1.490 . S
C352 C354 1.395 . S
C352 C355 1.403 . S
H353 C359 0.930 . S
C354 H340 0.930 . S
C354 C352 1.395 . S
C354 C357 1.403 . S
C355 C352 1.403 . S
C355 C356 1.524 . S
C355 C359 1.400 . S
C356 H341 0.960 . S
C356 H342 0.960 . S
C356 H343 0.960 . S
C356 C355 1.524 . S
C357 C354 1.403 . S
C357 C358 1.392 . S
C357 C361 1.495 . S
C358 C357 1.392 . S
C358 C359 1.385 . S
C358 C360 1.478 . S
C359 H353 0.930 . S
C359 C355 1.400 . S
C359 C358 1.385 . S
C360 C358 1.478 . S
C360 C362 1.381 . S
C360 C366 1.383 . S
C361 C357 1.495 . S
C361 H367 0.959 . S
C361 H368 0.961 . S
C361 H369 0.960 . S
C362 C360 1.381 . S
C362 C363 1.394 . S
C362 H370 0.930 . S
C363 C362 1.394 . S
C363 C364 1.383 . S
C363 H371 0.929 . S
C364 C363 1.383 . S
C364 C365 1.377 . S
C365 H349 0.930 . S
C365 C364 1.377 . S
C365 C366 1.379 . S
C366 H350 0.931 . S
C366 C360 1.383 . S
C366 C365 1.379 . S
H367 C361 0.959 . S
H368 C361 0.961 . S
H369 C361 0.960 . S
H370 C362 0.930 . S
H371 C363 0.929 . S
H372 C380 0.929 . S
H373 C382 0.930 . S
H374 C384 0.930 . S
H375 C387 0.929 . S
H376 C390 0.930 . S
H377 C392 0.960 . S
H378 C392 0.960 . S
H379 C392 0.960 . S
C380 H372 0.929 . S
C380 C381 1.377 . S
C380 C382 1.384 . S
C381 C380 1.377 . S
C381 C387 1.390 . S
C382 H373 0.930 . S
C382 C380 1.384 . S
C382 C383 1.372 . S
C383 C382 1.372 . S
C383 C384 1.400 . S
C383 C388 1.490 . S
C384 H374 0.930 . S
C384 C383 1.400 . S
C384 C387 1.386 . S
H385 C401 0.930 . S
H386 C402 0.931 . S
C387 H375 0.929 . S
C387 C381 1.390 . S
C387 C384 1.386 . S
C388 C383 1.490 . S
C388 C390 1.395 . S
C388 C391 1.403 . S
H389 C395 0.930 . S
C390 H376 0.930 . S
C390 C388 1.395 . S
C390 C393 1.403 . S
C391 C388 1.403 . S
C391 C392 1.524 . S
C391 C395 1.400 . S
C392 H377 0.960 . S
C392 H378 0.960 . S
C392 H379 0.960 . S
C392 C391 1.524 . S
C393 C390 1.403 . S
C393 C394 1.392 . S
C393 C397 1.495 . S
C394 C393 1.392 . S
C394 C395 1.385 . S
C394 C396 1.478 . S
C395 H389 0.930 . S
C395 C391 1.400 . S
C395 C394 1.385 . S
C396 C394 1.478 . S
C396 C398 1.381 . S
C396 C402 1.383 . S
C397 C393 1.495 . S
C397 H403 0.959 . S
C397 H404 0.961 . S
C397 H405 0.960 . S
C398 C396 1.381 . S
C398 C399 1.394 . S
C398 H406 0.930 . S
C399 C398 1.394 . S
C399 C400 1.383 . S
C399 H407 0.929 . S
C400 C399 1.383 . S
C400 C401 1.377 . S
C401 H385 0.930 . S
C401 C400 1.377 . S
C401 C402 1.379 . S
C402 H386 0.931 . S
C402 C396 1.383 . S
C402 C401 1.379 . S
H403 C397 0.959 . S
H404 C397 0.961 . S
H405 C397 0.960 . S
H406 C398 0.930 . S
H407 C399 0.929 . S
H408 C416 0.929 . S
H409 C418 0.930 . S
H410 C420 0.930 . S
H411 C423 0.929 . S
H412 C426 0.930 . S
H413 C428 0.960 . S
H414 C428 0.960 . S
H415 C428 0.960 . S
C416 H408 0.929 . S
C416 C417 1.377 . S
C416 C418 1.384 . S
C417 C416 1.377 . S
C417 C423 1.390 . S
C418 H409 0.930 . S
C418 C416 1.384 . S
C418 C419 1.372 . S
C419 C418 1.372 . S
C419 C420 1.400 . S
C419 C424 1.490 . S
C420 H410 0.930 . S
C420 C419 1.400 . S
C420 C423 1.386 . S
H421 C437 0.930 . S
H422 C438 0.931 . S
C423 H411 0.929 . S
C423 C417 1.390 . S
C423 C420 1.386 . S
C424 C419 1.490 . S
C424 C426 1.395 . S
C424 C427 1.403 . S
H425 C431 0.930 . S
C426 H412 0.930 . S
C426 C424 1.395 . S
C426 C429 1.403 . S
C427 C424 1.403 . S
C427 C428 1.524 . S
C427 C431 1.400 . S
C428 H413 0.960 . S
C428 H414 0.960 . S
C428 H415 0.960 . S
C428 C427 1.524 . S
C429 C426 1.403 . S
C429 C430 1.392 . S
C429 C433 1.495 . S
C430 C429 1.392 . S
C430 C431 1.385 . S
C430 C432 1.478 . S
C431 H425 0.930 . S
C431 C427 1.400 . S
C431 C430 1.385 . S
C432 C430 1.478 . S
C432 C434 1.381 . S
C432 C438 1.383 . S
C433 C429 1.495 . S
C433 H439 0.959 . S
C433 H440 0.961 . S
C433 H441 0.960 . S
C434 C432 1.381 . S
C434 C435 1.394 . S
C434 H442 0.930 . S
C435 C434 1.394 . S
C435 C436 1.383 . S
C435 H443 0.929 . S
C436 C435 1.383 . S
C436 C437 1.377 . S
C437 H421 0.930 . S
C437 C436 1.377 . S
C437 C438 1.379 . S
C438 H422 0.931 . S
C438 C432 1.383 . S
C438 C437 1.379 . S
H439 C433 0.959 . S
H440 C433 0.961 . S
H441 C433 0.960 . S
H442 C434 0.930 . S
H443 C435 0.929 . S
H444 C452 0.929 . S
H445 C454 0.930 . S
H446 C456 0.930 . S
H447 C459 0.929 . S
H448 C462 0.930 . S
H449 C464 0.960 . S
H450 C464 0.960 . S
H451 C464 0.960 . S
C452 H444 0.929 . S
C452 C453 1.377 . S
C452 C454 1.384 . S
C453 C452 1.377 . S
C453 C459 1.390 . S
C454 H445 0.930 . S
C454 C452 1.384 . S
C454 C455 1.372 . S
C455 C454 1.372 . S
C455 C456 1.400 . S
C455 C460 1.490 . S
C456 H446 0.930 . S
C456 C455 1.400 . S
C456 C459 1.386 . S
H457 C473 0.930 . S
H458 C474 0.931 . S
C459 H447 0.929 . S
C459 C453 1.390 . S
C459 C456 1.386 . S
C460 C455 1.490 . S
C460 C462 1.395 . S
C460 C463 1.403 . S
H461 C467 0.930 . S
C462 H448 0.930 . S
C462 C460 1.395 . S
C462 C465 1.403 . S
C463 C460 1.403 . S
C463 C464 1.524 . S
C463 C467 1.400 . S
C464 H449 0.960 . S
C464 H450 0.960 . S
C464 H451 0.960 . S
C464 C463 1.524 . S
C465 C462 1.403 . S
C465 C466 1.392 . S
C465 C469 1.495 . S
C466 C465 1.392 . S
C466 C467 1.385 . S
C466 C468 1.478 . S
C467 H461 0.930 . S
C467 C463 1.400 . S
C467 C466 1.385 . S
C468 C466 1.478 . S
C468 C470 1.381 . S
C468 C474 1.383 . S
C469 C465 1.495 . S
C469 H475 0.959 . S
C469 H476 0.961 . S
C469 H477 0.960 . S
C470 C468 1.381 . S
C470 C471 1.394 . S
C470 H478 0.930 . S
C471 C470 1.394 . S
C471 C472 1.383 . S
C471 H479 0.929 . S
C472 C471 1.383 . S
C472 C473 1.377 . S
C473 H457 0.930 . S
C473 C472 1.377 . S
C473 C474 1.379 . S
C474 H458 0.931 . S
C474 C468 1.383 . S
C474 C473 1.379 . S
H475 C469 0.959 . S
H476 C469 0.961 . S
H477 C469 0.960 . S
H478 C470 0.930 . S
H479 C471 0.929 . S
H480 C488 0.929 . S
H481 C490 0.930 . S
H482 C492 0.930 . S
H483 C495 0.929 . S
H484 C498 0.930 . S
H485 C500 0.960 . S
H486 C500 0.960 . S
H487 C500 0.960 . S
C488 H480 0.929 . S
C488 C489 1.377 . S
C488 C490 1.384 . S
C489 C488 1.377 . S
C489 C495 1.390 . S
C490 H481 0.930 . S
C490 C488 1.384 . S
C490 C491 1.372 . S
C491 C490 1.372 . S
C491 C492 1.400 . S
C491 C496 1.490 . S
C492 H482 0.930 . S
C492 C491 1.400 . S
C492 C495 1.386 . S
H493 C509 0.930 . S
H494 C510 0.931 . S
C495 H483 0.929 . S
C495 C489 1.390 . S
C495 C492 1.386 . S
C496 C491 1.490 . S
C496 C498 1.395 . S
C496 C499 1.403 . S
H497 C503 0.930 . S
C498 H484 0.930 . S
C498 C496 1.395 . S
C498 C501 1.403 . S
C499 C496 1.403 . S
C499 C500 1.524 . S
C499 C503 1.400 . S
C500 H485 0.960 . S
C500 H486 0.960 . S
C500 H487 0.960 . S
C500 C499 1.524 . S
C501 C498 1.403 . S
C501 C502 1.392 . S
C501 C505 1.495 . S
C502 C501 1.392 . S
C502 C503 1.385 . S
C502 C504 1.478 . S
C503 H497 0.930 . S
C503 C499 1.400 . S
C503 C502 1.385 . S
C504 C502 1.478 . S
C504 C506 1.381 . S
C504 C510 1.383 . S
C505 C501 1.495 . S
C505 H511 0.959 . S
C505 H512 0.961 . S
C505 H513 0.960 . S
C506 C504 1.381 . S
C506 C507 1.394 . S
C506 H514 0.930 . S
C507 C506 1.394 . S
C507 C508 1.383 . S
C507 H515 0.929 . S
C508 C507 1.383 . S
C508 C509 1.377 . S
C509 H493 0.930 . S
C509 C508 1.377 . S
C509 C510 1.379 . S
C510 H494 0.931 . S
C510 C504 1.383 . S
C510 C509 1.379 . S
H511 C505 0.959 . S
H512 C505 0.961 . S
H513 C505 0.960 . S
H514 C506 0.930 . S
H515 C507 0.929 . S
H516 C524 0.929 . S
H517 C526 0.930 . S
H518 C528 0.930 . S
H519 C531 0.929 . S
H520 C534 0.930 . S
H521 C536 0.960 . S
H522 C536 0.960 . S
H523 C536 0.960 . S
C524 H516 0.929 . S
C524 C525 1.377 . S
C524 C526 1.384 . S
C525 C524 1.377 . S
C525 C531 1.390 . S
C526 H517 0.930 . S
C526 C524 1.384 . S
C526 C527 1.372 . S
C527 C526 1.372 . S
C527 C528 1.400 . S
C527 C532 1.490 . S
C528 H518 0.930 . S
C528 C527 1.400 . S
C528 C531 1.386 . S
H529 C545 0.930 . S
H530 C546 0.931 . S
C531 H519 0.929 . S
C531 C525 1.390 . S
C531 C528 1.386 . S
C532 C527 1.490 . S
C532 C534 1.395 . S
C532 C535 1.403 . S
H533 C539 0.930 . S
C534 H520 0.930 . S
C534 C532 1.395 . S
C534 C537 1.403 . S
C535 C532 1.403 . S
C535 C536 1.524 . S
C535 C539 1.400 . S
C536 H521 0.960 . S
C536 H522 0.960 . S
C536 H523 0.960 . S
C536 C535 1.524 . S
C537 C534 1.403 . S
C537 C538 1.392 . S
C537 C541 1.495 . S
C538 C537 1.392 . S
C538 C539 1.385 . S
C538 C540 1.478 . S
C539 H533 0.930 . S
C539 C535 1.400 . S
C539 C538 1.385 . S
C540 C538 1.478 . S
C540 C542 1.381 . S
C540 C546 1.383 . S
C541 C537 1.495 . S
C541 H547 0.959 . S
C541 H548 0.961 . S
C541 H549 0.960 . S
C542 C540 1.381 . S
C542 C543 1.394 . S
C542 H550 0.930 . S
C543 C542 1.394 . S
C543 C544 1.383 . S
C543 H551 0.929 . S
C544 C543 1.383 . S
C544 C545 1.377 . S
C545 H529 0.930 . S
C545 C544 1.377 . S
C545 C546 1.379 . S
C546 H530 0.931 . S
C546 C540 1.383 . S
C546 C545 1.379 . S
H547 C541 0.959 . S
H548 C541 0.961 . S
H549 C541 0.960 . S
H550 C542 0.930 . S
H551 C543 0.929 . S
H552 C560 0.929 . S
H553 C562 0.930 . S
H554 C564 0.930 . S
H555 C567 0.929 . S
H556 C570 0.930 . S
H557 C572 0.960 . S
H558 C572 0.960 . S
H559 C572 0.960 . S
C560 H552 0.929 . S
C560 C561 1.377 . S
C560 C562 1.384 . S
C561 C560 1.377 . S
C561 C567 1.390 . S
C562 H553 0.930 . S
C562 C560 1.384 . S
C562 C563 1.372 . S
C563 C562 1.372 . S
C563 C564 1.400 . S
C563 C568 1.490 . S
C564 H554 0.930 . S
C564 C563 1.400 . S
C564 C567 1.386 . S
H565 C581 0.930 . S
H566 C582 0.931 . S
C567 H555 0.929 . S
C567 C561 1.390 . S
C567 C564 1.386 . S
C568 C563 1.490 . S
C568 C570 1.395 . S
C568 C571 1.403 . S
H569 C575 0.930 . S
C570 H556 0.930 . S
C570 C568 1.395 . S
C570 C573 1.403 . S
C571 C568 1.403 . S
C571 C572 1.524 . S
C571 C575 1.400 . S
C572 H557 0.960 . S
C572 H558 0.960 . S
C572 H559 0.960 . S
C572 C571 1.524 . S
C573 C570 1.403 . S
C573 C574 1.392 . S
C573 C577 1.495 . S
C574 C573 1.392 . S
C574 C575 1.385 . S
C574 C576 1.478 . S
C575 H569 0.930 . S
C575 C571 1.400 . S
C575 C574 1.385 . S
C576 C574 1.478 . S
C576 C578 1.381 . S
C576 C582 1.383 . S
C577 C573 1.495 . S
C577 H583 0.959 . S
C577 H584 0.961 . S
C577 H585 0.960 . S
C578 C576 1.381 . S
C578 C579 1.394 . S
C578 H586 0.930 . S
C579 C578 1.394 . S
C579 C580 1.383 . S
C579 H587 0.929 . S
C580 C579 1.383 . S
C580 C581 1.377 . S
C581 H565 0.930 . S
C581 C580 1.377 . S
C581 C582 1.379 . S
C582 H566 0.931 . S
C582 C576 1.383 . S
C582 C581 1.379 . S
H583 C577 0.959 . S
H584 C577 0.961 . S
H585 C577 0.960 . S
H586 C578 0.930 . S
H587 C579 0.929 . S
H588 C596 0.929 . S
H589 C598 0.930 . S
H590 C600 0.930 . S
H591 C603 0.929 . S
H592 C606 0.930 . S
H593 C608 0.960 . S
H594 C608 0.960 . S
H595 C608 0.960 . S
C596 H588 0.929 . S
C596 C597 1.377 . S
C596 C598 1.384 . S
C597 C596 1.377 . S
C597 C603 1.390 . S
C598 H589 0.930 . S
C598 C596 1.384 . S
C598 C599 1.372 . S
C599 C598 1.372 . S
C599 C600 1.400 . S
C599 C604 1.490 . S
C600 H590 0.930 . S
C600 C599 1.400 . S
C600 C603 1.386 . S
H601 C617 0.930 . S
H602 C618 0.931 . S
C603 H591 0.929 . S
C603 C597 1.390 . S
C603 C600 1.386 . S
C604 C599 1.490 . S
C604 C606 1.395 . S
C604 C607 1.403 . S
H605 C611 0.930 . S
C606 H592 0.930 . S
C606 C604 1.395 . S
C606 C609 1.403 . S
C607 C604 1.403 . S
C607 C608 1.524 . S
C607 C611 1.400 . S
C608 H593 0.960 . S
C608 H594 0.960 . S
C608 H595 0.960 . S
C608 C607 1.524 . S
C609 C606 1.403 . S
C609 C610 1.392 . S
C609 C613 1.495 . S
C610 C609 1.392 . S
C610 C611 1.385 . S
C610 C612 1.478 . S
C611 H605 0.930 . S
C611 C607 1.400 . S
C611 C610 1.385 . S
C612 C610 1.478 . S
C612 C614 1.381 . S
C612 C618 1.383 . S
C613 C609 1.495 . S
C613 H619 0.959 . S
C613 H620 0.961 . S
C613 H621 0.960 . S
C614 C612 1.381 . S
C614 C615 1.394 . S
C614 H622 0.930 . S
C615 C614 1.394 . S
C615 C616 1.383 . S
C615 H623 0.929 . S
C616 C615 1.383 . S
C616 C617 1.377 . S
C617 H601 0.930 . S
C617 C616 1.377 . S
C617 C618 1.379 . S
C618 H602 0.931 . S
C618 C612 1.383 . S
C618 C617 1.379 . S
H619 C613 0.959 . S
H620 C613 0.961 . S
H621 C613 0.960 . S
H622 C614 0.930 . S
H623 C615 0.929 . S
H624 C632 0.929 . S
H625 C634 0.930 . S
H626 C636 0.930 . S
H627 C639 0.929 . S
H628 C642 0.930 . S
H629 C644 0.960 . S
H630 C644 0.960 . S
H631 C644 0.960 . S
C632 H624 0.929 . S
C632 C633 1.377 . S
C632 C634 1.384 . S
C633 C632 1.377 . S
C633 C639 1.390 . S
C634 H625 0.930 . S
C634 C632 1.384 . S
C634 C635 1.372 . S
C635 C634 1.372 . S
C635 C636 1.400 . S
C635 C640 1.490 . S
C636 H626 0.930 . S
C636 C635 1.400 . S
C636 C639 1.386 . S
H637 C653 0.930 . S
H638 C654 0.931 . S
C639 H627 0.929 . S
C639 C633 1.390 . S
C639 C636 1.386 . S
C640 C635 1.490 . S
C640 C642 1.395 . S
C640 C643 1.403 . S
H641 C647 0.930 . S
C642 H628 0.930 . S
C642 C640 1.395 . S
C642 C645 1.403 . S
C643 C640 1.403 . S
C643 C644 1.524 . S
C643 C647 1.400 . S
C644 H629 0.960 . S
C644 H630 0.960 . S
C644 H631 0.960 . S
C644 C643 1.524 . S
C645 C642 1.403 . S
C645 C646 1.392 . S
C645 C649 1.495 . S
C646 C645 1.392 . S
C646 C647 1.385 . S
C646 C648 1.478 . S
C647 H641 0.930 . S
C647 C643 1.400 . S
C647 C646 1.385 . S
C648 C646 1.478 . S
C648 C650 1.381 . S
C648 C654 1.383 . S
C649 C645 1.495 . S
C649 H655 0.959 . S
C649 H656 0.961 . S
C649 H657 0.960 . S
C650 C648 1.381 . S
C650 C651 1.394 . S
C650 H658 0.930 . S
C651 C650 1.394 . S
C651 C652 1.383 . S
C651 H659 0.929 . S
C652 C651 1.383 . S
C652 C653 1.377 . S
C653 H637 0.930 . S
C653 C652 1.377 . S
C653 C654 1.379 . S
C654 H638 0.931 . S
C654 C648 1.383 . S
C654 C653 1.379 . S
H655 C649 0.959 . S
H656 C649 0.961 . S
H657 C649 0.960 . S
H658 C650 0.930 . S
H659 C651 0.929 . S
H660 C668 0.929 . S
H661 C670 0.930 . S
H662 C672 0.930 . S
H663 C675 0.929 . S
H664 C678 0.930 . S
H665 C680 0.960 . S
H666 C680 0.960 . S
H667 C680 0.960 . S
C668 H660 0.929 . S
C668 C669 1.377 . S
C668 C670 1.384 . S
C669 C668 1.377 . S
C669 C675 1.390 . S
C670 H661 0.930 . S
C670 C668 1.384 . S
C670 C671 1.372 . S
C671 C670 1.372 . S
C671 C672 1.400 . S
C671 C676 1.490 . S
C672 H662 0.930 . S
C672 C671 1.400 . S
C672 C675 1.386 . S
H673 C689 0.930 . S
H674 C690 0.931 . S
C675 H663 0.929 . S
C675 C669 1.390 . S
C675 C672 1.386 . S
C676 C671 1.490 . S
C676 C678 1.395 . S
C676 C679 1.403 . S
H677 C683 0.930 . S
C678 H664 0.930 . S
C678 C676 1.395 . S
C678 C681 1.403 . S
C679 C676 1.403 . S
C679 C680 1.524 . S
C679 C683 1.400 . S
C680 H665 0.960 . S
C680 H666 0.960 . S
C680 H667 0.960 . S
C680 C679 1.524 . S
C681 C678 1.403 . S
C681 C682 1.392 . S
C681 C685 1.495 . S
C682 C681 1.392 . S
C682 C683 1.385 . S
C682 C684 1.478 . S
C683 H677 0.930 . S
C683 C679 1.400 . S
C683 C682 1.385 . S
C684 C682 1.478 . S
C684 C686 1.381 . S
C684 C690 1.383 . S
C685 C681 1.495 . S
C685 H691 0.959 . S
C685 H692 0.961 . S
C685 H693 0.960 . S
C686 C684 1.381 . S
C686 C687 1.394 . S
C686 H694 0.930 . S
C687 C686 1.394 . S
C687 C688 1.383 . S
C687 H695 0.929 . S
C688 C687 1.383 . S
C688 C689 1.377 . S
C689 H673 0.930 . S
C689 C688 1.377 . S
C689 C690 1.379 . S
C690 H674 0.931 . S
C690 C684 1.383 . S
C690 C689 1.379 . S
H691 C685 0.959 . S
H692 C685 0.961 . S
H693 C685 0.960 . S
H694 C686 0.930 . S
H695 C687 0.929 . S
H696 C704 0.929 . S
H697 C706 0.930 . S
H698 C708 0.930 . S
H699 C711 0.929 . S
H700 C714 0.930 . S
H701 C716 0.960 . S
H702 C716 0.960 . S
H703 C716 0.960 . S
C704 H696 0.929 . S
C704 C705 1.377 . S
C704 C706 1.384 . S
C705 C704 1.377 . S
C705 C711 1.390 . S
C706 H697 0.930 . S
C706 C704 1.384 . S
C706 C707 1.372 . S
C707 C706 1.372 . S
C707 C708 1.400 . S
C707 C712 1.490 . S
C708 H698 0.930 . S
C708 C707 1.400 . S
C708 C711 1.386 . S
H709 C725 0.930 . S
H710 C726 0.931 . S
C711 H699 0.929 . S
C711 C705 1.390 . S
C711 C708 1.386 . S
C712 C707 1.490 . S
C712 C714 1.395 . S
C712 C715 1.403 . S
H713 C719 0.930 . S
C714 H700 0.930 . S
C714 C712 1.395 . S
C714 C717 1.403 . S
C715 C712 1.403 . S
C715 C716 1.524 . S
C715 C719 1.400 . S
C716 H701 0.960 . S
C716 H702 0.960 . S
C716 H703 0.960 . S
C716 C715 1.524 . S
C717 C714 1.403 . S
C717 C718 1.392 . S
C717 C721 1.495 . S
C718 C717 1.392 . S
C718 C719 1.385 . S
C718 C720 1.478 . S
C719 H713 0.930 . S
C719 C715 1.400 . S
C719 C718 1.385 . S
C720 C718 1.478 . S
C720 C722 1.381 . S
C720 C726 1.383 . S
C721 C717 1.495 . S
C721 H727 0.959 . S
C721 H728 0.961 . S
C721 H729 0.960 . S
C722 C720 1.381 . S
C722 C723 1.394 . S
C722 H730 0.930 . S
C723 C722 1.394 . S
C723 C724 1.383 . S
C723 H731 0.929 . S
C724 C723 1.383 . S
C724 C725 1.377 . S
C725 H709 0.930 . S
C725 C724 1.377 . S
C725 C726 1.379 . S
C726 H710 0.931 . S
C726 C720 1.383 . S
C726 C725 1.379 . S
H727 C721 0.959 . S
H728 C721 0.961 . S
H729 C721 0.960 . S
H730 C722 0.930 . S
H731 C723 0.929 . S
H732 C740 0.929 . S
H733 C742 0.930 . S
H734 C744 0.930 . S
H735 C747 0.929 . S
H736 C750 0.930 . S
H737 C752 0.960 . S
H738 C752 0.960 . S
H739 C752 0.960 . S
C740 H732 0.929 . S
C740 C741 1.377 . S
C740 C742 1.384 . S
C741 C740 1.377 . S
C741 C747 1.390 . S
C742 H733 0.930 . S
C742 C740 1.384 . S
C742 C743 1.372 . S
C743 C742 1.372 . S
C743 C744 1.400 . S
C743 C748 1.490 . S
C744 H734 0.930 . S
C744 C743 1.400 . S
C744 C747 1.386 . S
H745 C761 0.930 . S
H746 C762 0.931 . S
C747 H735 0.929 . S
C747 C741 1.390 . S
C747 C744 1.386 . S
C748 C743 1.490 . S
C748 C750 1.395 . S
C748 C751 1.403 . S
H749 C755 0.930 . S
C750 H736 0.930 . S
C750 C748 1.395 . S
C750 C753 1.403 . S
C751 C748 1.403 . S
C751 C752 1.524 . S
C751 C755 1.400 . S
C752 H737 0.960 . S
C752 H738 0.960 . S
C752 H739 0.960 . S
C752 C751 1.524 . S
C753 C750 1.403 . S
C753 C754 1.392 . S
C753 C757 1.495 . S
C754 C753 1.392 . S
C754 C755 1.385 . S
C754 C756 1.478 . S
C755 H749 0.930 . S
C755 C751 1.400 . S
C755 C754 1.385 . S
C756 C754 1.478 . S
C756 C758 1.381 . S
C756 C762 1.383 . S
C757 C753 1.495 . S
C757 H763 0.959 . S
C757 H764 0.961 . S
C757 H765 0.960 . S
C758 C756 1.381 . S
C758 C759 1.394 . S
C758 H766 0.930 . S
C759 C758 1.394 . S
C759 C760 1.383 . S
C759 H767 0.929 . S
C760 C759 1.383 . S
C760 C761 1.377 . S
C761 H745 0.930 . S
C761 C760 1.377 . S
C761 C762 1.379 . S
C762 H746 0.931 . S
C762 C756 1.383 . S
C762 C761 1.379 . S
H763 C757 0.959 . S
H764 C757 0.961 . S
H765 C757 0.960 . S
H766 C758 0.930 . S
H767 C759 0.929 . S
H768 C776 0.929 . S
H769 C778 0.930 . S
H770 C780 0.930 . S
H771 C783 0.929 . S
H772 C786 0.930 . S
H773 C788 0.960 . S
H774 C788 0.960 1_556 S
H775 C788 0.960 . S
C776 H768 0.929 . S
C776 C777 1.385 . S
C776 C778 1.384 . S
C777 C776 1.385 . S
C777 C783 1.383 1_556 S
C778 H769 0.930 . S
C778 C776 1.384 . S
C778 C779 1.372 . S
C779 C778 1.372 . S
C779 C780 1.400 1_556 S
C779 C784 1.490 . S
C780 H770 0.930 . S
C780 C779 1.400 1_554 S
C780 C783 1.386 . S
H781 C797 0.930 . S
H782 C798 0.931 . S
C783 H771 0.929 . S
C783 C777 1.383 1_554 S
C783 C780 1.386 . S
C784 C779 1.490 . S
C784 C786 1.395 . S
C784 C787 1.403 1_556 S
H785 C791 0.930 . S
C786 H772 0.930 . S
C786 C784 1.395 . S
C786 C789 1.403 . S
C787 C784 1.403 1_554 S
C787 C788 1.524 . S
C787 C791 1.400 . S
C788 H773 0.960 . S
C788 H774 0.960 1_554 S
C788 H775 0.960 . S
C788 C787 1.524 . S
C789 C786 1.403 . S
C789 C790 1.392 . S
C789 C793 1.495 . S
C790 C789 1.392 . S
C790 C791 1.385 1_556 S
C790 C792 1.478 . S
C791 H785 0.930 . S
C791 C787 1.400 . S
C791 C790 1.385 1_554 S
C792 C790 1.478 . S
C792 C794 1.381 . S
C792 C798 1.383 1_556 S
C793 C789 1.495 . S
C793 H799 0.959 . S
C793 H800 0.961 1_556 S
C793 H801 0.960 . S
C794 C792 1.381 . S
C794 C795 1.394 . S
C794 H802 0.930 . S
C795 C794 1.394 . S
C795 C796 1.381 . S
C795 H803 0.929 . S
C796 C795 1.381 . S
C796 C797 1.379 1_556 S
C797 H781 0.930 . S
C797 C796 1.379 1_554 S
C797 C798 1.379 . S
C798 H782 0.931 . S
C798 C792 1.383 1_554 S
C798 C797 1.379 . S
H799 C793 0.959 . S
H800 C793 0.961 1_554 S
H801 C793 0.960 . S
H802 C794 0.930 . S
H803 C795 0.929 . S
H804 C812 0.929 . S
H805 C814 0.930 . S
H806 C816 0.930 . S
H807 C819 0.929 . S
H808 C822 0.930 . S
H809 C824 0.960 . S
H810 C824 0.960 . S
H811 C824 0.960 . S
C812 H804 0.929 . S
C812 C813 1.377 . S
C812 C814 1.384 . S
C813 C812 1.377 . S
C813 C819 1.390 . S
C814 H805 0.930 . S
C814 C812 1.384 . S
C814 C815 1.372 . S
C815 C814 1.372 . S
C815 C816 1.400 . S
C815 C820 1.490 . S
C816 H806 0.930 . S
C816 C815 1.400 . S
C816 C819 1.386 . S
H817 C833 0.930 . S
H818 C834 0.931 . S
C819 H807 0.929 . S
C819 C813 1.390 . S
C819 C816 1.386 . S
C820 C815 1.490 . S
C820 C822 1.395 . S
C820 C823 1.403 . S
H821 C827 0.930 . S
C822 H808 0.930 . S
C822 C820 1.395 . S
C822 C825 1.403 . S
C823 C820 1.403 . S
C823 C824 1.524 . S
C823 C827 1.400 . S
C824 H809 0.960 . S
C824 H810 0.960 . S
C824 H811 0.960 . S
C824 C823 1.524 . S
C825 C822 1.403 . S
C825 C826 1.392 . S
C825 C829 1.495 . S
C826 C825 1.392 . S
C826 C827 1.385 . S
C826 C828 1.478 . S
C827 H821 0.930 . S
C827 C823 1.400 . S
C827 C826 1.385 . S
C828 C826 1.478 . S
C828 C830 1.381 . S
C828 C834 1.383 . S
C829 C825 1.495 . S
C829 H835 0.959 . S
C829 H836 0.961 . S
C829 H837 0.960 . S
C830 C828 1.381 . S
C830 C831 1.394 . S
C830 H838 0.930 . S
C831 C830 1.394 . S
C831 C832 1.383 . S
C831 H839 0.929 . S
C832 C831 1.383 . S
C832 C833 1.377 . S
C833 H817 0.930 . S
C833 C832 1.377 . S
C833 C834 1.379 . S
C834 H818 0.931 . S
C834 C828 1.383 . S
C834 C833 1.379 . S
H835 C829 0.959 . S
H836 C829 0.961 . S
H837 C829 0.960 . S
H838 C830 0.930 . S
H839 C831 0.929 . S
H840 C848 0.929 . S
H841 C850 0.930 . S
H842 C852 0.930 . S
H843 C855 0.929 . S
H844 C858 0.930 . S
H845 C860 0.960 . S
H846 C860 0.960 . S
H847 C860 0.960 . S
C848 H840 0.929 . S
C848 C849 1.376 . S
C848 C850 1.384 . S
C849 C848 1.376 . S
C849 C855 1.391 1_556 S
C850 H841 0.930 . S
C850 C848 1.384 . S
C850 C851 1.372 . S
C851 C850 1.372 . S
C851 C852 1.400 1_556 S
C851 C856 1.490 . S
C852 H842 0.930 . S
C852 C851 1.400 1_554 S
C852 C855 1.386 . S
H853 C869 0.930 . S
H854 C870 0.931 . S
C855 H843 0.929 . S
C855 C849 1.391 1_554 S
C855 C852 1.386 . S
C856 C851 1.490 . S
C856 C858 1.395 . S
C856 C859 1.403 1_556 S
H857 C863 0.930 . S
C858 H844 0.930 . S
C858 C856 1.395 . S
C858 C861 1.403 . S
C859 C856 1.403 1_554 S
C859 C860 1.524 . S
C859 C863 1.400 . S
C860 H845 0.960 . S
C860 H846 0.960 . S
C860 H847 0.960 . S
C860 C859 1.524 . S
C861 C858 1.403 . S
C861 C862 1.392 . S
C861 C865 1.495 . S
C862 C861 1.392 . S
C862 C863 1.385 1_556 S
C862 C864 1.478 . S
C863 H857 0.930 . S
C863 C859 1.400 . S
C863 C862 1.385 1_554 S
C864 C862 1.478 . S
C864 C866 1.381 . S
C864 C870 1.383 1_556 S
C865 C861 1.495 . S
C865 H871 0.959 . S
C865 H872 0.961 . S
C865 H873 0.960 . S
C866 C864 1.381 . S
C866 C867 1.394 . S
C866 H874 0.930 . S
C867 C866 1.394 . S
C867 C868 1.383 . S
C867 H875 0.929 . S
C868 C867 1.383 . S
C868 C869 1.377 1_556 S
C869 H853 0.930 . S
C869 C868 1.377 1_554 S
C869 C870 1.379 . S
C870 H854 0.931 . S
C870 C864 1.383 1_554 S
C870 C869 1.379 . S
H871 C865 0.959 . S
H872 C865 0.961 . S
H873 C865 0.960 . S
H874 C866 0.930 . S
H875 C867 0.929 . S
H876 C884 0.929 . S
H877 C886 0.930 . S
H878 C888 0.930 . S
H879 C891 0.929 . S
H880 C894 0.930 . S
H881 C896 0.960 . S
H882 C896 0.960 . S
H883 C896 0.960 . S
C884 H876 0.929 . S
C884 C885 1.377 . S
C884 C886 1.384 . S
C885 C884 1.377 . S
C885 C891 1.390 . S
C886 H877 0.930 . S
C886 C884 1.384 . S
C886 C887 1.372 . S
C887 C886 1.372 . S
C887 C888 1.400 . S
C887 C892 1.490 . S
C888 H878 0.930 . S
C888 C887 1.400 . S
C888 C891 1.386 . S
H889 C905 0.930 . S
H890 C906 0.931 . S
C891 H879 0.929 . S
C891 C885 1.390 . S
C891 C888 1.386 . S
C892 C887 1.490 . S
C892 C894 1.395 . S
C892 C895 1.403 . S
H893 C899 0.930 . S
C894 H880 0.930 . S
C894 C892 1.395 . S
C894 C897 1.403 . S
C895 C892 1.403 . S
C895 C896 1.524 . S
C895 C899 1.400 . S
C896 H881 0.960 . S
C896 H882 0.960 . S
C896 H883 0.960 . S
C896 C895 1.524 . S
C897 C894 1.403 . S
C897 C898 1.392 . S
C897 C901 1.495 . S
C898 C897 1.392 . S
C898 C899 1.385 . S
C898 C900 1.478 . S
C899 H893 0.930 . S
C899 C895 1.400 . S
C899 C898 1.385 . S
C900 C898 1.478 . S
C900 C902 1.381 . S
C900 C906 1.383 . S
C901 C897 1.495 . S
C901 H907 0.959 . S
C901 H908 0.961 . S
C901 H909 0.960 . S
C902 C900 1.381 . S
C902 C903 1.394 . S
C902 H910 0.930 . S
C903 C902 1.394 . S
C903 C904 1.383 . S
C903 H911 0.929 . S
C904 C903 1.383 . S
C904 C905 1.377 . S
C905 H889 0.930 . S
C905 C904 1.377 . S
C905 C906 1.379 . S
C906 H890 0.931 . S
C906 C900 1.383 . S
C906 C905 1.379 . S
H907 C901 0.959 . S
H908 C901 0.961 . S
H909 C901 0.960 . S
H910 C902 0.930 . S
H911 C903 0.929 . S
H912 C920 0.929 . S
H913 C922 0.930 . S
H914 C924 0.930 . S
H915 C927 0.929 . S
H916 C930 0.930 . S
H917 C932 0.960 . S
H918 C932 0.960 . S
H919 C932 0.960 . S
C920 H912 0.929 . S
C920 C921 1.377 . S
C920 C922 1.384 . S
C921 C920 1.377 . S
C921 C927 1.390 . S
C922 H913 0.930 . S
C922 C920 1.384 . S
C922 C923 1.372 . S
C923 C922 1.372 . S
C923 C924 1.400 . S
C923 C928 1.490 . S
C924 H914 0.930 . S
C924 C923 1.400 . S
C924 C927 1.386 . S
H925 C941 0.930 . S
H926 C942 0.931 . S
C927 H915 0.929 . S
C927 C921 1.390 . S
C927 C924 1.386 . S
C928 C923 1.490 . S
C928 C930 1.395 . S
C928 C931 1.403 . S
H929 C935 0.930 . S
C930 H916 0.930 . S
C930 C928 1.395 . S
C930 C933 1.403 . S
C931 C928 1.403 . S
C931 C932 1.524 . S
C931 C935 1.400 . S
C932 H917 0.960 . S
C932 H918 0.960 . S
C932 H919 0.960 . S
C932 C931 1.524 . S
C933 C930 1.403 . S
C933 C934 1.392 . S
C933 C937 1.495 . S
C934 C933 1.392 . S
C934 C935 1.385 . S
C934 C936 1.478 . S
C935 H929 0.930 . S
C935 C931 1.400 . S
C935 C934 1.385 . S
C936 C934 1.478 . S
C936 C938 1.381 . S
C936 C942 1.383 . S
C937 C933 1.495 . S
C937 H943 0.959 . S
C937 H944 0.961 . S
C937 H945 0.960 . S
C938 C936 1.381 . S
C938 C939 1.394 . S
C938 H946 0.930 . S
C939 C938 1.394 . S
C939 C940 1.383 . S
C939 H947 0.929 . S
C940 C939 1.383 . S
C940 C941 1.377 . S
C941 H925 0.930 . S
C941 C940 1.377 . S
C941 C942 1.379 . S
C942 H926 0.931 . S
C942 C936 1.383 . S
C942 C941 1.379 . S
H943 C937 0.959 . S
H944 C937 0.961 . S
H945 C937 0.960 . S
H946 C938 0.930 . S
H947 C939 0.929 . S
H948 C956 0.929 . S
H949 C958 0.931 . S
H950 C960 0.930 . S
H951 C963 0.929 . S
H952 C966 0.930 . S
H953 C968 0.960 . S
H954 C968 0.960 . S
H955 C968 0.960 . S
C956 H948 0.929 . S
C956 C957 1.377 1_556 S
C956 C958 1.384 . S
C957 C956 1.377 1_554 S
C957 C963 1.390 . S
C958 H949 0.931 . S
C958 C956 1.384 . S
C958 C959 1.372 1_556 S
C959 C958 1.372 1_554 S
C959 C960 1.400 . S
C959 C964 1.490 1_554 S
C960 H950 0.930 . S
C960 C959 1.400 . S
C960 C963 1.386 . S
H961 C977 0.930 . S
H962 C978 0.931 . S
C963 H951 0.929 . S
C963 C957 1.390 . S
C963 C960 1.386 . S
C964 C959 1.490 1_556 S
C964 C966 1.395 . S
C964 C967 1.403 1_556 S
H965 C971 0.930 . S
C966 H952 0.930 . S
C966 C964 1.395 . S
C966 C969 1.403 . S
C967 C964 1.403 1_554 S
C967 C968 1.524 . S
C967 C971 1.400 . S
C968 H953 0.960 . S
C968 H954 0.960 . S
C968 H955 0.960 . S
C968 C967 1.524 . S
C969 C966 1.403 . S
C969 C970 1.392 . S
C969 C973 1.495 . S
C970 C969 1.392 . S
C970 C971 1.385 1_556 S
C970 C972 1.478 . S
C971 H965 0.930 . S
C971 C967 1.400 . S
C971 C970 1.385 1_554 S
C972 C970 1.478 . S
C972 C974 1.381 . S
C972 C978 1.383 . S
C973 C969 1.495 . S
C973 H979 0.959 . S
C973 H980 0.961 . S
C973 H981 0.960 . S
C974 C972 1.381 . S
C974 C975 1.394 . S
C974 H982 0.930 . S
C975 C974 1.394 . S
C975 C976 1.383 . S
C975 H983 0.929 1_556 S
C976 C975 1.383 . S
C976 C977 1.377 . S
C977 H961 0.930 . S
C977 C976 1.377 . S
C977 C978 1.379 . S
C978 H962 0.931 . S
C978 C972 1.383 . S
C978 C977 1.379 . S
H979 C973 0.959 . S
H980 C973 0.961 . S
H981 C973 0.960 . S
H982 C974 0.930 . S
H983 C975 0.929 1_554 S
H984 C992 0.929 . S
H985 C994 0.930 . S
H986 C996 0.930 . S
H987 C999 0.929 . S
H988 C1002 0.930 . S
H989 C1004 0.960 . S
H990 C1004 0.960 . S
H991 C1004 0.960 . S
C992 H984 0.929 . S
C992 C993 1.377 . S
C992 C994 1.384 . S
C993 C992 1.377 . S
C993 C999 1.390 . S
C994 H985 0.930 . S
C994 C992 1.384 . S
C994 C995 1.372 . S
C995 C994 1.372 . S
C995 C996 1.400 . S
C995 C1000 1.490 . S
C996 H986 0.930 . S
C996 C995 1.400 . S
C996 C999 1.386 . S
H997 C1013 0.930 . S
H998 C1014 0.931 . S
C999 H987 0.929 . S
C999 C993 1.390 . S
C999 C996 1.386 . S
C1000 C995 1.490 . S
C1000 C1002 1.395 . S
C1000 C1003 1.403 . S
H1001 C1007 0.930 . S
C1002 H988 0.930 . S
C1002 C1000 1.395 . S
C1002 C1005 1.403 . S
C1003 C1000 1.403 . S
C1003 C1004 1.524 . S
C1003 C1007 1.400 . S
C1004 H989 0.960 . S
C1004 H990 0.960 . S
C1004 H991 0.960 . S
C1004 C1003 1.524 . S
C1005 C1002 1.403 . S
C1005 C1006 1.392 . S
C1005 C1009 1.495 . S
C1006 C1005 1.392 . S
C1006 C1007 1.385 . S
C1006 C1008 1.478 . S
C1007 H1001 0.930 . S
C1007 C1003 1.400 . S
C1007 C1006 1.385 . S
C1008 C1006 1.478 . S
C1008 C1010 1.381 . S
C1008 C1014 1.383 . S
C1009 C1005 1.495 . S
C1009 H1015 0.959 . S
C1009 H1016 0.961 . S
C1009 H1017 0.960 . S
C1010 C1008 1.381 . S
C1010 C1011 1.394 . S
C1010 H1018 0.930 . S
C1011 C1010 1.394 . S
C1011 C1012 1.383 . S
C1011 H1019 0.929 . S
C1012 C1011 1.383 . S
C1012 C1013 1.377 . S
C1013 H997 0.930 . S
C1013 C1012 1.377 . S
C1013 C1014 1.379 . S
C1014 H998 0.931 . S
C1014 C1008 1.383 . S
C1014 C1013 1.379 . S
H1015 C1009 0.959 . S
H1016 C1009 0.961 . S
H1017 C1009 0.960 . S
H1018 C1010 0.930 . S
H1019 C1011 0.929 . S
H1020 C1028 0.929 . S
H1021 C1030 0.930 . S
H1022 C1032 0.930 . S
H1023 C1035 0.929 . S
H1024 C1038 0.930 . S
H1025 C1040 0.960 . S
H1026 C1040 0.960 1_556 S
H1027 C1040 0.960 . S
C1028 H1020 0.929 . S
C1028 C1029 1.382 . S
C1028 C1030 1.384 . S
C1029 C1028 1.382 . S
C1029 C1035 1.386 1_556 S
C1030 H1021 0.930 . S
C1030 C1028 1.384 . S
C1030 C1031 1.372 . S
C1031 C1030 1.372 . S
C1031 C1032 1.400 1_556 S
C1031 C1036 1.490 . S
C1032 H1022 0.930 . S
C1032 C1031 1.400 1_554 S
C1032 C1035 1.386 . S
H1033 C1049 0.930 . S
H1034 C1050 0.931 . S
C1035 H1023 0.929 . S
C1035 C1029 1.386 1_554 S
C1035 C1032 1.386 . S
C1036 C1031 1.490 . S
C1036 C1038 1.395 . S
C1036 C1039 1.403 1_556 S
H1037 C1043 0.930 . S
C1038 H1024 0.930 . S
C1038 C1036 1.395 . S
C1038 C1041 1.403 . S
C1039 C1036 1.403 1_554 S
C1039 C1040 1.524 . S
C1039 C1043 1.400 . S
C1040 H1025 0.960 . S
C1040 H1026 0.960 1_554 S
C1040 H1027 0.960 . S
C1040 C1039 1.524 . S
C1041 C1038 1.403 . S
C1041 C1042 1.392 . S
C1041 C1045 1.495 . S
C1042 C1041 1.392 . S
C1042 C1043 1.385 1_556 S
C1042 C1044 1.478 . S
C1043 H1037 0.930 . S
C1043 C1039 1.400 . S
C1043 C1042 1.385 1_554 S
C1044 C1042 1.478 . S
C1044 C1046 1.381 . S
C1044 C1050 1.383 1_556 S
C1045 C1041 1.495 . S
C1045 H1051 0.959 . S
C1045 H1052 0.961 1_556 S
C1045 H1053 0.960 . S
C1046 C1044 1.381 . S
C1046 C1047 1.394 . S
C1046 H1054 0.930 . S
C1047 C1046 1.394 . S
C1047 C1048 1.385 1_556 S
C1047 H1055 0.929 . S
C1048 C1047 1.385 1_554 S
C1048 C1049 1.375 . S
C1049 H1033 0.930 . S
C1049 C1048 1.375 . S
C1049 C1050 1.379 . S
C1050 H1034 0.931 . S
C1050 C1044 1.383 1_554 S
C1050 C1049 1.379 . S
H1051 C1045 0.959 . S
H1052 C1045 0.961 1_554 S
H1053 C1045 0.960 . S
H1054 C1046 0.930 . S
H1055 C1047 0.929 . S
C201 C5 1.466 . S
C220 N128 1.470 . S
C237 C31 1.467 . S
C256 N89 1.464 . S
C292 N106 1.487 . S
C273 C53 1.463 . S
C309 C71 1.462 . S
C328 N119 1.486 . S
C364 N158 1.483 . S
C345 C75 1.461 . S
C400 N171 1.473 . S
C381 C9 1.467 . S
C436 N180 1.469 . S
C417 C27 1.467 . S
C472 N141 1.467 . S
C453 C49 1.467 . S
C489 C51 1.463 . S
C508 N102 1.477 . S
C525 C72 1.468 . S
C544 N115 1.486 . S
C561 C6 1.469 . S
C580 N132 1.486 . S
C616 N93 1.485 . S
C597 C29 1.468 . S
C633 C28 1.468 . S
C652 N184 1.482 . S
C688 N145 1.472 . S
C669 C50 1.462 . S
C724 N154 1.486 . S
C705 C73 1.469 . S
C741 C7 1.461 . S
C760 N167 1.475 . S
C796 N90 1.516 . S
C777 C4 1.497 1_556 S
C832 N103 1.514 . S
C813 C30 1.498 . S
C849 C52 1.495 1_556 S
C868 N116 1.515 1_556 S
C885 C70 1.496 . S
C904 N129 1.515 . S
C940 N142 1.500 . S
C921 C74 1.498 . S
C957 C8 1.500 . S
C976 N155 1.513 . S
C993 C26 1.501 . S
C1012 N168 1.509 . S
C1029 C48 1.500 1_556 S
C1048 N181 1.500 . S
