# Generated by pormake.
# Topology cml, (3,6)-cn, num edge types: 1
# Building blocks:
#     Node 0, Type 0, BuildingBlock: ESEHIV_clean_linker_0, # of connection points: 3
#     Node 1, Type 0, BuildingBlock: ESEHIV_clean_linker_0, # of connection points: 3
#     Node 2, Type 0, BuildingBlock: ESEHIV_clean_linker_0, # of connection points: 3
#     Node 3, Type 0, BuildingBlock: ESEHIV_clean_linker_0, # of connection points: 3
#     Node 4, Type 0, BuildingBlock: ESEHIV_clean_linker_0, # of connection points: 3
#     Node 5, Type 0, BuildingBlock: ESEHIV_clean_linker_0, # of connection points: 3
#     Node 6, Type 0, BuildingBlock: ESEHIV_clean_linker_0, # of connection points: 3
#     Node 7, Type 0, BuildingBlock: ESEHIV_clean_linker_0, # of connection points: 3
#     Node 8, Type 1, BuildingBlock: OJICUG_clean_sbu_0, # of connection points: 6
#     Node 9, Type 1, BuildingBlock: OJICUG_clean_sbu_0, # of connection points: 6
#     Node 10, Type 1, BuildingBlock: OJICUG_clean_sbu_0, # of connection points: 6
#     Node 11, Type 1, BuildingBlock: OJICUG_clean_sbu_0, # of connection points: 6
#     Edge 12, Type (0, 1), BuildingBlock: KIFKEQ_clean_linker_1, # of connection points: 2
#     Edge 13, Type (0, 1), BuildingBlock: KIFKEQ_clean_linker_1, # of connection points: 2
#     Edge 14, Type (0, 1), BuildingBlock: KIFKEQ_clean_linker_1, # of connection points: 2
#     Edge 15, Type (0, 1), BuildingBlock: KIFKEQ_clean_linker_1, # of connection points: 2
#     Edge 16, Type (0, 1), BuildingBlock: KIFKEQ_clean_linker_1, # of connection points: 2
#     Edge 17, Type (0, 1), BuildingBlock: KIFKEQ_clean_linker_1, # of connection points: 2
#     Edge 18, Type (0, 1), BuildingBlock: KIFKEQ_clean_linker_1, # of connection points: 2
#     Edge 19, Type (0, 1), BuildingBlock: KIFKEQ_clean_linker_1, # of connection points: 2
#     Edge 20, Type (0, 1), BuildingBlock: KIFKEQ_clean_linker_1, # of connection points: 2
#     Edge 21, Type (0, 1), BuildingBlock: KIFKEQ_clean_linker_1, # of connection points: 2
#     Edge 22, Type (0, 1), BuildingBlock: KIFKEQ_clean_linker_1, # of connection points: 2
#     Edge 23, Type (0, 1), BuildingBlock: KIFKEQ_clean_linker_1, # of connection points: 2
#     Edge 24, Type (0, 1), BuildingBlock: KIFKEQ_clean_linker_1, # of connection points: 2
#     Edge 25, Type (0, 1), BuildingBlock: KIFKEQ_clean_linker_1, # of connection points: 2
#     Edge 26, Type (0, 1), BuildingBlock: KIFKEQ_clean_linker_1, # of connection points: 2
#     Edge 27, Type (0, 1), BuildingBlock: KIFKEQ_clean_linker_1, # of connection points: 2
#     Edge 28, Type (0, 1), BuildingBlock: KIFKEQ_clean_linker_1, # of connection points: 2
#     Edge 29, Type (0, 1), BuildingBlock: KIFKEQ_clean_linker_1, # of connection points: 2
#     Edge 30, Type (0, 1), BuildingBlock: KIFKEQ_clean_linker_1, # of connection points: 2
#     Edge 31, Type (0, 1), BuildingBlock: KIFKEQ_clean_linker_1, # of connection points: 2
#     Edge 32, Type (0, 1), BuildingBlock: KIFKEQ_clean_linker_1, # of connection points: 2
#     Edge 33, Type (0, 1), BuildingBlock: KIFKEQ_clean_linker_1, # of connection points: 2
#     Edge 34, Type (0, 1), BuildingBlock: KIFKEQ_clean_linker_1, # of connection points: 2
#     Edge 35, Type (0, 1), BuildingBlock: KIFKEQ_clean_linker_1, # of connection points: 2
# Relax obj value: 0.072
# Max RMSD: 0.084
# Mean RMSD: 0.079
data_MOF--net-cml--node1-OJICUG_clean_sbu_0--node2-ESEHIV_clean_linker_0--edge1-KIFKEQ_clean_linker_1
_symmetry_space_group_name_H-M    P1
_symmetry_Int_Tables_number       1
_symmetry_cell_setting            triclinic
loop_
_symmetry_equiv_pos_as_xyz
'x, y, z'
_cell_length_a     37.708366
_cell_length_b     38.014319
_cell_length_c     35.741341
_cell_angle_alpha  90.129822
_cell_angle_beta   89.952872
_cell_angle_gamma 90.2453
loop_
_atom_site_label
_atom_site_type_symbol
_atom_site_fract_x
_atom_site_fract_y
_atom_site_fract_z
_atom_type_partial_charge
H0 H 0.32926 0.40403 0.03013 0.0
H1 H 0.24844 0.39618 0.94587 0.0
H2 H 0.24558 0.32801 0.04223 0.0
C3 C 0.30505 0.39198 0.01974 0.0
C4 C 0.28888 0.36492 0.04014 0.0
C5 C 0.29018 0.40378 0.98617 0.0
C6 C 0.25905 0.38799 0.97264 0.0
C7 C 0.24311 0.36007 0.99231 0.0
C8 C 0.25775 0.3493 0.0266 0.0
H9 H 0.67139 0.57715 0.53092 0.0
H10 H 0.73438 0.59668 0.43287 0.0
H11 H 0.74023 0.6673 0.52735 0.0
C12 C 0.69119 0.59273 0.51632 0.0
C13 C 0.70468 0.62329 0.53312 0.0
C14 C 0.7015 0.58327 0.48002 0.0
C15 C 0.72643 0.60399 0.46099 0.0
C16 C 0.74096 0.63414 0.47798 0.0
C17 C 0.72944 0.64402 0.51392 0.0
H18 H 0.66836 0.42658 0.03524 0.0
H19 H 0.73572 0.33564 0.03868 0.0
H20 H 0.74821 0.41264 0.95122 0.0
C21 C 0.69038 0.41158 0.02409 0.0
C22 C 0.70773 0.4235 0.99188 0.0
C23 C 0.69983 0.37957 0.04076 0.0
C24 C 0.72826 0.36036 0.02592 0.0
C25 C 0.7462 0.37235 0.99379 0.0
C26 C 0.73559 0.40387 0.97685 0.0
H27 H 0.30465 0.56063 0.55008 0.0
H28 H 0.23951 0.5719 0.45239 0.0
H29 H 0.2317 0.64662 0.54314 0.0
C30 C 0.28353 0.5741 0.53538 0.0
C31 C 0.26859 0.60438 0.55101 0.0
C32 C 0.27323 0.56239 0.49985 0.0
C33 C 0.24666 0.58037 0.48039 0.0
C34 C 0.23157 0.61098 0.49568 0.0
C35 C 0.24278 0.62287 0.53111 0.0
H36 H 0.8203 0.91592 0.02441 0.0
H37 H 0.73293 0.9073 0.94788 0.0
H38 H 0.75198 0.82552 0.02869 0.0
C39 C 0.79714 0.90188 0.01425 0.0
C40 C 0.78834 0.86927 0.03007 0.0
C41 C 0.77724 0.916 0.98478 0.0
C42 C 0.74796 0.89699 0.97119 0.0
C43 C 0.73872 0.8642 0.98664 0.0
C44 C 0.75879 0.85076 0.01654 0.0
H45 H 0.16008 0.07466 0.52861 0.0
H46 H 0.246 0.08071 0.45041 0.0
H47 H 0.2384 0.15647 0.54014 0.0
C48 C 0.18428 0.08745 0.51926 0.0
C49 C 0.19713 0.11723 0.5382 0.0
C50 C 0.20207 0.07407 0.48802 0.0
C51 C 0.23328 0.0903 0.47564 0.0
C52 C 0.24646 0.12036 0.49401 0.0
C53 C 0.22854 0.13328 0.52578 0.0
H54 H 0.15441 0.89915 0.01842 0.0
H55 H 0.24256 0.82856 0.02023 0.0
H56 H 0.22954 0.89964 0.92759 0.0
C57 C 0.17806 0.88895 0.00505 0.0
C58 C 0.18952 0.90279 0.9707 0.0
C59 C 0.19704 0.86223 0.02282 0.0
C60 C 0.22833 0.84974 0.00671 0.0
C61 C 0.24016 0.86312 0.97224 0.0
C62 C 0.22066 0.88962 0.95438 0.0
H63 H 0.83944 0.08295 0.51402 0.0
H64 H 0.7656 0.09762 0.42391 0.0
H65 H 0.76362 0.16672 0.51977 0.0
C66 C 0.81749 0.09724 0.50179 0.0
C67 C 0.80329 0.12629 0.52065 0.0
C68 C 0.80375 0.08666 0.4671 0.0
C69 C 0.7758 0.10551 0.45103 0.0
C70 C 0.76109 0.13447 0.46989 0.0
C71 C 0.77483 0.14451 0.50488 0.0
Sc72 Sc -0.00085 0.77871 0.29808 0.0
Sc73 Sc 0.00629 0.8712 0.2947 0.0
Sc74 Sc 0.00189 0.82888 0.38136 0.0
O75 O 0.0024 0.82617 0.32467 0.0
C76 C 0.94355 0.77014 0.365 0.0
C77 C 0.95228 0.82617 0.24458 0.0
C78 C 0.95373 0.89471 0.35901 0.0
C79 C 0.05762 0.8199 0.25015 0.0
C80 C 0.04916 0.76063 0.36712 0.0
C81 C 0.05884 0.88758 0.36277 0.0
O82 O 0.9567 0.76074 0.33376 0.0
O83 O 0.96797 0.85436 0.25425 0.0
O84 O 0.9663 0.87286 0.38231 0.0
O85 O 0.04118 0.79192 0.2594 0.0
O86 O 0.03741 0.78557 0.38719 0.0
O87 O 0.04539 0.89413 0.33101 0.0
O88 O 0.03866 0.75508 0.3338 0.0
O89 O 0.04892 0.85029 0.26183 0.0
O90 O 0.04733 0.86324 0.38387 0.0
O91 O 0.95929 0.79649 0.25906 0.0
O92 O 0.95652 0.79485 0.38478 0.0
O93 O 0.96392 0.89626 0.32512 0.0
Sc94 Sc 0.99037 0.20942 0.80811 0.0
Sc95 Sc 0.98341 0.11704 0.80451 0.0
Sc96 Sc 0.9862 0.15952 0.89126 0.0
O97 O 0.98674 0.16209 0.83461 0.0
C98 C 0.04292 0.22008 0.87762 0.0
C99 C 0.03942 0.16222 0.75689 0.0
C100 C 0.03515 0.0942 0.86954 0.0
C101 C 0.93448 0.16743 0.75717 0.0
C102 C 0.93757 0.22627 0.875 0.0
C103 C 0.92958 0.1007 0.87132 0.0
O104 O 0.03009 0.22931 0.84625 0.0
O105 O 0.02254 0.13433 0.76518 0.0
O106 O 0.02218 0.11583 0.89296 0.0
O107 O 0.95123 0.19527 0.7664 0.0
O108 O 0.95014 0.2024 0.89583 0.0
O109 O 0.94358 0.09384 0.83985 0.0
O110 O 0.94828 0.23163 0.8417 0.0
O111 O 0.94144 0.13736 0.77063 0.0
O112 O 0.94088 0.12503 0.89263 0.0
O113 O 0.03272 0.19188 0.7718 0.0
O114 O 0.03097 0.19416 0.89621 0.0
O115 O 0.02527 0.09254 0.83561 0.0
Sc116 Sc 0.49395 0.28212 0.31122 0.0
Sc117 Sc 0.48823 0.37465 0.31169 0.0
Sc118 Sc 0.49407 0.32932 0.39654 0.0
O119 O 0.49209 0.32861 0.33979 0.0
C120 C 0.44498 0.26232 0.38066 0.0
C121 C 0.43589 0.32546 0.26543 0.0
C122 C 0.43712 0.38864 0.38142 0.0
C123 C 0.54117 0.33117 0.25925 0.0
C124 C 0.55054 0.27029 0.37646 0.0
C125 C 0.54267 0.39548 0.37555 0.0
O126 O 0.45431 0.25797 0.34674 0.0
O127 O 0.44493 0.35533 0.27843 0.0
O128 O 0.44909 0.36385 0.40152 0.0
O129 O 0.53385 0.30097 0.27248 0.0
O130 O 0.53896 0.29474 0.39743 0.0
O131 O 0.53137 0.3984 0.34222 0.0
O132 O 0.53626 0.26214 0.34539 0.0
O133 O 0.52589 0.35903 0.27021 0.0
O134 O 0.5305 0.37289 0.39841 0.0
O135 O 0.45197 0.29711 0.27351 0.0
O136 O 0.45801 0.28614 0.40147 0.0
O137 O 0.44987 0.39617 0.34955 0.0
Sc138 Sc 0.49335 0.70145 0.80086 0.0
Sc139 Sc 0.4965 0.60873 0.80341 0.0
Sc140 Sc 0.48927 0.65597 0.88704 0.0
O141 O 0.49301 0.65552 0.8304 0.0
C142 C 0.5432 0.71908 0.87068 0.0
C143 C 0.54848 0.65595 0.75384 0.0
C144 C 0.54659 0.59577 0.87279 0.0
C145 C 0.44203 0.65147 0.75298 0.0
C146 C 0.43766 0.71881 0.8654 0.0
C147 C 0.44074 0.59024 0.86806 0.0
O148 O 0.53265 0.72497 0.83741 0.0
O149 O 0.53611 0.6269 0.76538 0.0
O150 O 0.52977 0.61688 0.89384 0.0
O151 O 0.45359 0.68187 0.76212 0.0
O152 O 0.44885 0.69517 0.88736 0.0
O153 O 0.45718 0.58364 0.83786 0.0
O154 O 0.45084 0.72403 0.83315 0.0
O155 O 0.45485 0.62311 0.76592 0.0
O156 O 0.44795 0.61673 0.88844 0.0
O157 O 0.53629 0.68544 0.76446 0.0
O158 O 0.53004 0.69515 0.8913 0.0
O159 O 0.53879 0.59083 0.83861 0.0
H160 H 0.23462 0.28902 0.98935 0.0
H161 H 0.18433 0.38623 0.957 0.0
H162 H 0.18635 0.25577 0.96111 0.0
H163 H 0.1357 0.35276 0.92862 0.0
H164 H 0.07614 0.27806 0.84795 0.0
H165 H 0.12418 0.31253 0.87561 0.0
H166 H 0.12374 0.24427 0.97207 0.0
H167 H 0.07641 0.20946 0.94438 0.0
C168 C 0.21296 0.3033 0.97666 0.0
C169 C 0.21306 0.34025 0.97574 0.0
C170 C 0.18534 0.28424 0.9604 0.0
C171 C 0.15715 0.30165 0.94281 0.0
C172 C 0.15728 0.33862 0.94165 0.0
C173 C 0.18501 0.35776 0.95796 0.0
C174 C 0.08635 0.27032 0.87501 0.0
C175 C 0.07245 0.24087 0.89384 0.0
C176 C 0.1137 0.29025 0.89095 0.0
C177 C 0.12773 0.28108 0.92598 0.0
C178 C 0.11381 0.25171 0.9448 0.0
C179 C 0.08654 0.23183 0.92893 0.0
H180 H 0.74643 0.70569 0.47264 0.0
H181 H 0.79804 0.60922 0.43957 0.0
H182 H 0.79372 0.73961 0.44283 0.0
H183 H 0.84523 0.64304 0.40984 0.0
H184 H 0.9081 0.71484 0.3326 0.0
H185 H 0.85698 0.68305 0.35736 0.0
H186 H 0.8568 0.75063 0.45471 0.0
H187 H 0.90734 0.78283 0.42988 0.0
C188 C 0.76791 0.69178 0.45906 0.0
C189 C 0.76863 0.65485 0.4585 0.0
C190 C 0.79492 0.71115 0.44199 0.0
C191 C 0.82317 0.69395 0.42408 0.0
C192 C 0.82353 0.65702 0.42295 0.0
C193 C 0.79653 0.63767 0.43999 0.0
C194 C 0.89708 0.72305 0.3592 0.0
C195 C 0.91196 0.75131 0.37931 0.0
C196 C 0.86789 0.70474 0.37342 0.0
C197 C 0.85296 0.71436 0.40797 0.0
C198 C 0.86746 0.74291 0.42777 0.0
C199 C 0.89662 0.76119 0.41362 0.0
H200 H 0.74646 0.30138 0.98245 0.0
H201 H 0.80916 0.39533 0.96469 0.0
H202 H 0.79203 0.26643 0.95165 0.0
H203 H 0.85461 0.36029 0.93346 0.0
H204 H 0.90991 0.28771 0.84714 0.0
H205 H 0.86284 0.3235 0.87498 0.0
H206 H 0.85395 0.24974 0.96628 0.0
H207 H 0.90017 0.21401 0.93873 0.0
C208 C 0.77015 0.31449 0.97235 0.0
C209 C 0.77441 0.35102 0.97623 0.0
C210 C 0.7961 0.29454 0.95453 0.0
C211 C 0.82675 0.31074 0.94016 0.0
C212 C 0.83098 0.34727 0.94383 0.0
C213 C 0.80507 0.36723 0.96181 0.0
C214 C 0.89777 0.27913 0.87305 0.0
C215 C 0.90887 0.24809 0.89073 0.0
C216 C 0.87103 0.29967 0.88905 0.0
C217 C 0.8548 0.28926 0.9227 0.0
C218 C 0.86572 0.25815 0.9401 0.0
C219 C 0.89244 0.23784 0.92437 0.0
H220 H 0.23123 0.68198 0.4863 0.0
H221 H 0.17487 0.58729 0.45474 0.0
H222 H 0.18818 0.71717 0.45243 0.0
H223 H 0.13154 0.62273 0.42065 0.0
H224 H 0.07918 0.70089 0.33716 0.0
H225 H 0.1246 0.66369 0.3657 0.0
H226 H 0.12544 0.73095 0.46325 0.0
H227 H 0.08094 0.76807 0.43506 0.0
C228 C 0.20947 0.66872 0.47231 0.0
C229 C 0.20602 0.63195 0.4737 0.0
C230 C 0.18491 0.68885 0.45281 0.0
C231 C 0.15632 0.6727 0.43426 0.0
C232 C 0.15346 0.63583 0.43452 0.0
C233 C 0.17814 0.61561 0.45409 0.0
C234 C 0.08915 0.70773 0.36465 0.0
C235 C 0.07644 0.73755 0.38372 0.0
C236 C 0.11499 0.68635 0.38101 0.0
C237 C 0.1287 0.69462 0.41654 0.0
C238 C 0.11583 0.72425 0.43556 0.0
C239 C 0.09007 0.74542 0.41941 0.0
H240 H 0.73776 0.79355 0.97273 0.0
H241 H 0.67402 0.88726 0.96198 0.0
H242 H 0.69069 0.75898 0.94371 0.0
H243 H 0.62719 0.85257 0.93215 0.0
H244 H 0.57002 0.78167 0.84444 0.0
H245 H 0.61742 0.81732 0.87225 0.0
H246 H 0.62884 0.74102 0.96069 0.0
H247 H 0.58201 0.70542 0.93316 0.0
C248 C 0.71356 0.80672 0.96458 0.0
C249 C 0.70954 0.84313 0.96993 0.0
C250 C 0.68672 0.78694 0.94776 0.0
C251 C 0.65537 0.80315 0.93568 0.0
C252 C 0.65131 0.83954 0.9408 0.0
C253 C 0.67808 0.85933 0.9579 0.0
C254 C 0.58275 0.77248 0.86973 0.0
C255 C 0.57219 0.74074 0.88659 0.0
C256 C 0.60967 0.79298 0.88574 0.0
C257 C 0.62674 0.78185 0.91857 0.0
C258 C 0.61636 0.75005 0.93519 0.0
C259 C 0.58935 0.72979 0.91947 0.0
H260 H 0.25368 0.19141 0.48722 0.0
H261 H 0.30759 0.09367 0.46358 0.0
H262 H 0.30258 0.22398 0.45937 0.0
H263 H 0.35639 0.12659 0.43481 0.0
H264 H 0.41384 0.20317 0.35021 0.0
H265 H 0.36658 0.16717 0.37787 0.0
H266 H 0.36657 0.234 0.4757 0.0
H267 H 0.41313 0.26986 0.44853 0.0
C268 C 0.27619 0.17687 0.47656 0.0
C269 C 0.27695 0.13996 0.47805 0.0
C270 C 0.30406 0.19554 0.46038 0.0
C271 C 0.33322 0.17775 0.44507 0.0
C272 C 0.33401 0.14086 0.44615 0.0
C273 C 0.30615 0.1221 0.46265 0.0
C274 C 0.40377 0.21009 0.37764 0.0
C275 C 0.41718 0.2395 0.39703 0.0
C276 C 0.37693 0.18939 0.3935 0.0
C277 C 0.36289 0.19803 0.42876 0.0
C278 C 0.37664 0.22705 0.44826 0.0
C279 C 0.40347 0.24748 0.43266 0.0
H280 H 0.30384 0.84846 0.00435 0.0
H281 H 0.24737 0.84279 0.89937 0.0
H282 H 0.35324 0.81646 0.97653 0.0
H283 H 0.29678 0.81067 0.87153 0.0
H284 H 0.40649 0.77425 0.82894 0.0
H285 H 0.36078 0.8136 0.8533 0.0
H286 H 0.35825 0.75463 0.95644 0.0
H287 H 0.4038 0.71578 0.93269 0.0
C288 C 0.30215 0.84056 0.97526 0.0
C289 C 0.27171 0.84773 0.9541 0.0
C290 C 0.33034 0.82227 0.95936 0.0
C291 C 0.32857 0.81072 0.92204 0.0
C292 C 0.29891 0.81946 0.90029 0.0
C293 C 0.27068 0.83783 0.91622 0.0
C294 C 0.39612 0.76967 0.85679 0.0
C295 C 0.40893 0.74192 0.87889 0.0
C296 C 0.36997 0.79218 0.87066 0.0
C297 C 0.35636 0.78738 0.9069 0.0
C298 C 0.36883 0.75942 0.92871 0.0
C299 C 0.39476 0.73696 0.9149 0.0
H300 H 0.70173 0.10818 0.4359 0.0
H301 H 0.75355 0.20566 0.46647 0.0
H302 H 0.6513 0.14117 0.4117 0.0
H303 H 0.70323 0.23859 0.44233 0.0
H304 H 0.58969 0.28039 0.43999 0.0
H305 H 0.64113 0.24738 0.4606 0.0
H306 H 0.63476 0.18246 0.36145 0.0
H307 H 0.58283 0.21507 0.34092 0.0
C308 C 0.70251 0.13665 0.437 0.0
C309 C 0.7314 0.15437 0.4533 0.0
C310 C 0.67368 0.15551 0.42316 0.0
C311 C 0.67326 0.19242 0.42539 0.0
C312 C 0.70255 0.21013 0.44089 0.0
C313 C 0.73132 0.19129 0.45469 0.0
C314 C 0.59918 0.25911 0.4225 0.0
C315 C 0.58205 0.25039 0.38879 0.0
C316 C 0.62882 0.24034 0.43423 0.0
C317 C 0.642 0.21243 0.41256 0.0
C318 C 0.62495 0.20365 0.37888 0.0
C319 C 0.59531 0.22247 0.36707 0.0
H320 H 0.26403 0.46676 0.96237 0.0
H321 H 0.358 0.40237 0.96167 0.0
H322 H 0.29689 0.51383 0.93006 0.0
H323 H 0.39054 0.44884 0.92917 0.0
H324 H 0.42752 0.52462 0.84013 0.0
H325 H 0.38734 0.48019 0.86502 0.0
H326 H 0.35207 0.55313 0.94978 0.0
H327 H 0.39254 0.59793 0.92511 0.0
C328 C 0.29154 0.46263 0.95485 0.0
C329 C 0.30868 0.43121 0.96443 0.0
C330 C 0.31029 0.48946 0.93665 0.0
C331 C 0.34612 0.48479 0.92713 0.0
C332 C 0.36284 0.45293 0.9359 0.0
C333 C 0.34435 0.42649 0.9546 0.0
C334 C 0.41095 0.53149 0.86379 0.0
C335 C 0.41357 0.56476 0.88091 0.0
C336 C 0.38801 0.50597 0.87803 0.0
C337 C 0.36686 0.51327 0.90937 0.0
C338 C 0.36803 0.54699 0.92543 0.0
C339 C 0.39135 0.57249 0.91146 0.0
H340 H 0.69583 0.51627 0.50607 0.0
H341 H 0.66855 0.58228 0.41249 0.0
H342 H 0.66248 0.46766 0.4783 0.0
H343 H 0.63377 0.53446 0.38536 0.0
H344 H 0.58775 0.43636 0.33381 0.0
H345 H 0.63168 0.47851 0.35667 0.0
H346 H 0.60243 0.45331 0.47057 0.0
H347 H 0.55998 0.41036 0.44782 0.0
C348 C 0.68274 0.5202 0.47944 0.0
C349 C 0.68452 0.55288 0.46142 0.0
C350 C 0.66346 0.49253 0.46362 0.0
C351 C 0.64498 0.49722 0.42979 0.0
C352 C 0.64798 0.52967 0.41115 0.0
C353 C 0.66776 0.55715 0.42671 0.0
C354 C 0.59098 0.43969 0.36372 0.0
C355 C 0.57032 0.4201 0.38899 0.0
C356 C 0.61605 0.46394 0.37684 0.0
C357 C 0.62064 0.46942 0.4155 0.0
C358 C 0.60026 0.44936 0.44065 0.0
C359 C 0.57562 0.42485 0.42757 0.0
H360 H 0.68677 0.42575 0.91955 0.0
H361 H 0.69588 0.48937 0.01921 0.0
H362 H 0.65299 0.47195 0.88929 0.0
H363 H 0.66346 0.5367 0.98846 0.0
H364 H 0.55799 0.58175 0.94641 0.0
H365 H 0.60351 0.54475 0.97325 0.0
H366 H 0.64847 0.52842 0.86319 0.0
H367 H 0.60163 0.56427 0.83611 0.0
C368 C 0.68249 0.45022 0.93445 0.0
C369 C 0.69358 0.45409 0.97167 0.0
C370 C 0.66323 0.47681 0.91712 0.0
C371 C 0.65509 0.50796 0.93658 0.0
C372 C 0.6685 0.5127 0.97299 0.0
C373 C 0.68727 0.48583 0.99053 0.0
C374 C 0.57776 0.5705 0.92797 0.0
C375 C 0.57599 0.57552 0.88912 0.0
C376 C 0.60415 0.54952 0.94341 0.0
C377 C 0.62973 0.53351 0.9204 0.0
C378 C 0.62882 0.53981 0.88165 0.0
C379 C 0.60204 0.56039 0.86613 0.0
H380 H 0.34345 0.56367 0.48656 0.0
H381 H 0.24989 0.49941 0.47132 0.0
H382 H 0.37938 0.51883 0.45576 0.0
H383 H 0.28637 0.45375 0.44092 0.0
H384 H 0.39247 0.37543 0.44065 0.0
H385 H 0.34841 0.41557 0.46759 0.0
H386 H 0.3734 0.49248 0.38296 0.0
H387 H 0.41677 0.45275 0.35563 0.0
C388 C 0.33071 0.53976 0.47676 0.0
C389 C 0.29409 0.53473 0.48127 0.0
C390 C 0.35116 0.51428 0.45911 0.0
C391 C 0.33546 0.48309 0.44614 0.0
C392 C 0.29887 0.47769 0.45092 0.0
C393 C 0.27814 0.50366 0.46804 0.0
C394 C 0.38822 0.40072 0.42753 0.0
C395 C 0.40835 0.41103 0.39622 0.0
C396 C 0.36289 0.42345 0.44277 0.0
C397 C 0.3578 0.45688 0.4272 0.0
C398 C 0.377 0.46673 0.39531 0.0
C399 C 0.40181 0.44395 0.37977 0.0
H400 H 0.7784 0.93125 0.90985 0.0
H401 H 0.80367 0.97546 0.01816 0.0
H402 H 0.80688 0.98112 0.87963 0.0
H403 H 0.83464 0.02376 0.98805 0.0
H404 H 0.88177 0.11443 0.92719 0.0
H405 H 0.83616 0.07503 0.95165 0.0
H406 H 0.86647 -0.00377 0.87033 0.0
H407 H 0.91061 0.03603 0.845 0.0
C408 C 0.78949 0.95187 0.92727 0.0
C409 C 0.78929 0.94901 0.96647 0.0
C410 C 0.80634 0.98025 0.9099 0.0
C411 C 0.82384 0.00612 0.93131 0.0
C412 C 0.82143 0.00449 0.97053 0.0
C413 C 0.80411 0.97643 0.98787 0.0
C414 C 0.87832 0.08883 0.91431 0.0
C415 C 0.90002 0.07822 0.8844 0.0
C416 C 0.85225 0.06619 0.92838 0.0
C417 C 0.84769 0.03229 0.91319 0.0
C418 C 0.86864 0.0223 0.88239 0.0
C419 C 0.89428 0.04507 0.86802 0.0
H420 H 0.22953 0.00917 0.47283 0.0
H421 H 0.13802 0.07473 0.45478 0.0
H422 H 0.20004 0.96069 0.43892 0.0
H423 H 0.10901 0.02699 0.42055 0.0
H424 H 0.08248 0.94853 0.33102 0.0
H425 H 0.12233 0.99198 0.35834 0.0
H426 H 0.13943 0.92435 0.45334 0.0
H427 H 0.09914 0.88052 0.4263 0.0
C428 C 0.20332 0.01317 0.46125 0.0
C429 C 0.1858 0.04533 0.46631 0.0
C430 C 0.18652 0.98561 0.44208 0.0
C431 C 0.15247 0.99038 0.42707 0.0
C432 C 0.13544 0.02287 0.43154 0.0
C433 C 0.15186 0.05002 0.45122 0.0
C434 C 0.09509 0.94249 0.35744 0.0
C435 C 0.08713 0.91124 0.37678 0.0
C436 C 0.11789 0.96743 0.37301 0.0
C437 C 0.13357 0.96148 0.40795 0.0
C438 C 0.12766 0.92936 0.42623 0.0
C439 C 0.10446 0.90446 0.41085 0.0
H440 H 0.21408 0.96042 0.93205 0.0
H441 H 0.1174 0.90817 0.96689 0.0
H442 H 0.17886 0.00801 0.90498 0.0
H443 H 0.08283 0.95653 0.94162 0.0
H444 H 0.04544 0.0728 0.94124 0.0
H445 H 0.08492 0.02659 0.96318 0.0
H446 H 0.12384 0.01137 0.8508 0.0
H447 H 0.08374 0.05735 0.82831 0.0
C448 C 0.18544 0.95886 0.93365 0.0
C449 C 0.16858 0.93068 0.95209 0.0
C450 C 0.16542 0.98615 0.91835 0.0
C451 C 0.12839 0.98584 0.92178 0.0
C452 C 0.11148 0.9574 0.93922 0.0
C453 C 0.13132 0.92991 0.95388 0.0
C454 C 0.06264 0.05993 0.9212 0.0
C455 C 0.06136 0.06851 0.88301 0.0
C456 C 0.08507 0.03347 0.93377 0.0
C457 C 0.10707 0.01559 0.90853 0.0
C458 C 0.10703 0.02501 0.87064 0.0
C459 C 0.08405 0.0511 0.85786 0.0
H460 H 0.83414 0.08516 0.39807 0.0
H461 H 0.8085 0.01992 0.49292 0.0
H462 H 0.86687 0.03655 0.36974 0.0
H463 H 0.8394 0.97061 0.46404 0.0
H464 H 0.93887 0.91123 0.4314 0.0
H465 H 0.8987 0.95556 0.45471 0.0
H466 H 0.8673 0.98012 0.3414 0.0
H467 H 0.90907 0.93639 0.31784 0.0
C468 C 0.83488 0.06005 0.41233 0.0
C469 C 0.81929 0.05615 0.44771 0.0
C470 C 0.85343 0.03214 0.3961 0.0
C471 C 0.85622 -0.0003 0.4148 0.0
C472 C 0.83867 -0.00456 0.44929 0.0
C473 C 0.82075 0.02351 0.46575 0.0
C474 C 0.92323 0.92583 0.41136 0.0
C475 C 0.92728 0.92032 0.37272 0.0
C476 C 0.89989 0.95118 0.42479 0.0
C477 C 0.87949 0.9714 0.4 0.0
C478 C 0.88292 0.96537 0.3613 0.0
C479 C 0.90673 0.9402 0.34778 0.0
H480 H 0.25965 0.36084 0.10981 0.0
H481 H 0.35582 0.34071 0.04801 0.0
H482 H 0.28993 0.34494 0.16822 0.0
H483 H 0.38587 0.32443 0.10592 0.0
H484 H 0.38345 0.37362 0.25457 0.0
H485 H 0.34253 0.37672 0.20185 0.0
H486 H 0.38322 0.27848 0.15931 0.0
H487 H 0.42408 0.27508 0.21219 0.0
C488 C 0.28704 0.35242 0.10878 0.0
C489 C 0.30564 0.35217 0.07475 0.0
C490 C 0.3043 0.34343 0.14201 0.0
C491 C 0.34012 0.33337 0.14141 0.0
C492 C 0.35813 0.33168 0.10706 0.0
C493 C 0.34111 0.34124 0.07406 0.0
C494 C 0.3832 0.35233 0.23437 0.0
C495 C 0.40729 0.32434 0.23725 0.0
C496 C 0.3596 0.35399 0.20439 0.0
C497 C 0.35998 0.32794 0.17651 0.0
C498 C 0.38262 0.29896 0.18042 0.0
C499 C 0.40588 0.29701 0.21073 0.0
H500 H 0.71151 0.58822 0.59858 0.0
H501 H 0.66702 0.68186 0.55002 0.0
H502 H 0.68082 0.6005 0.65729 0.0
H503 H 0.63453 0.69341 0.60794 0.0
H504 H 0.58566 0.71103 0.72211 0.0
H505 H 0.63115 0.70739 0.67336 0.0
H506 H 0.62077 0.59407 0.67307 0.0
H507 H 0.57697 0.59752 0.72195 0.0
C508 C 0.69546 0.61171 0.60085 0.0
C509 C 0.69126 0.63402 0.57007 0.0
C510 C 0.67767 0.61866 0.63424 0.0
C511 C 0.65454 0.64754 0.6371 0.0
C512 C 0.65224 0.67109 0.60689 0.0
C513 C 0.67066 0.66446 0.57367 0.0
C514 C 0.59349 0.68537 0.71187 0.0
C515 C 0.57749 0.65462 0.72589 0.0
C516 C 0.61946 0.68329 0.68387 0.0
C517 C 0.62981 0.65043 0.66936 0.0
C518 C 0.61423 0.6198 0.68407 0.0
C519 C 0.58865 0.62185 0.712 0.0
H520 H 0.62804 0.37737 0.04514 0.0
H521 H 0.72254 0.34953 0.10644 0.0
H522 H 0.59172 0.36127 0.09878 0.0
H523 H 0.68562 0.33262 0.16031 0.0
H524 H 0.58786 0.28144 0.23205 0.0
H525 H 0.62865 0.28806 0.1787 0.0
H526 H 0.59378 0.39509 0.16419 0.0
H527 H 0.55378 0.38905 0.21679 0.0
C528 C 0.64103 0.36763 0.07005 0.0
C529 C 0.67817 0.36557 0.072 0.0
C530 C 0.62022 0.35818 0.10057 0.0
C531 C 0.63602 0.34612 0.13361 0.0
C532 C 0.67296 0.3418 0.13497 0.0
C533 C 0.69397 0.35152 0.10429 0.0
C534 C 0.58912 0.3064 0.21755 0.0
C535 C 0.56736 0.33461 0.22858 0.0
C536 C 0.61249 0.31016 0.18724 0.0
C537 C 0.6139 0.34194 0.16735 0.0
C538 C 0.59281 0.3702 0.1789 0.0
C539 C 0.56997 0.36667 0.20918 0.0
H540 H 0.30335 0.66622 0.56152 0.0
H541 H 0.26828 0.57263 0.61881 0.0
H542 H 0.34108 0.6816 0.61474 0.0
H543 H 0.30455 0.58857 0.67284 0.0
H544 H 0.41564 0.5914 0.72205 0.0
H545 H 0.36734 0.58499 0.67838 0.0
H546 H 0.3508 0.69742 0.67997 0.0
H547 H 0.40043 0.70412 0.72362 0.0
C548 C 0.30273 0.64975 0.58622 0.0
C549 C 0.28334 0.61818 0.58625 0.0
C550 C 0.32426 0.65852 0.6167 0.0
C551 C 0.32641 0.6359 0.6477 0.0
C552 C 0.30422 0.60605 0.64895 0.0
C553 C 0.28321 0.59704 0.61829 0.0
C554 C 0.40175 0.61489 0.7134 0.0
C555 C 0.41208 0.64833 0.72637 0.0
C556 C 0.37364 0.61113 0.68855 0.0
C557 C 0.35477 0.64063 0.67607 0.0
C558 C 0.36487 0.67418 0.68904 0.0
C559 C 0.39328 0.678 0.714 0.0
H560 H 0.8602 0.86543 0.03021 0.0
H561 H 0.76809 0.83972 0.09685 0.0
H562 H 0.89862 0.85011 0.08239 0.0
H563 H 0.80697 0.82381 0.14928 0.0
H564 H 0.90315 0.7765 0.22187 0.0
H565 H 0.86182 0.78097 0.16888 0.0
H566 H 0.90162 0.88516 0.14519 0.0
H567 H 0.94221 0.88116 0.19746 0.0
C568 C 0.84821 0.85615 0.05594 0.0
C569 C 0.81117 0.85453 0.05983 0.0
C570 C 0.87018 0.84724 0.08567 0.0
C571 C 0.85563 0.8363 0.11987 0.0
C572 C 0.81872 0.83215 0.12307 0.0
C573 C 0.79657 0.84127 0.09319 0.0
C574 C 0.90292 0.80035 0.20536 0.0
C575 C 0.92609 0.8284 0.21384 0.0
C576 C 0.87926 0.80289 0.17522 0.0
C577 C 0.87897 0.83322 0.15286 0.0
C578 C 0.90171 0.86129 0.16172 0.0
C579 C 0.92483 0.859 0.19187 0.0
H580 H 0.22188 0.14082 0.60612 0.0
H581 H 0.12591 0.12731 0.54154 0.0
H582 H 0.18613 0.15771 0.66082 0.0
H583 H 0.09066 0.14322 0.59613 0.0
H584 H 0.05352 0.10526 0.71337 0.0
H585 H 0.09409 0.10112 0.66102 0.0
H586 H 0.12827 0.20814 0.67951 0.0
H587 H 0.08678 0.21296 0.7325 0.0
C588 C 0.19331 0.14213 0.60341 0.0
C589 C 0.17659 0.132 0.56987 0.0
C590 C 0.17299 0.15184 0.63458 0.0
C591 C 0.13585 0.15143 0.63243 0.0
C592 C 0.11933 0.14346 0.59833 0.0
C593 C 0.13948 0.13405 0.56729 0.0
C594 C 0.0697 0.12803 0.70676 0.0
C595 C 0.06659 0.15962 0.72706 0.0
C596 C 0.09289 0.12555 0.67667 0.0
C597 C 0.11388 0.15438 0.66632 0.0
C598 C 0.11216 0.18563 0.68721 0.0
C599 C 0.08842 0.18834 0.71732 0.0
H600 H 0.22977 0.85817 0.0907 0.0
H601 H 0.13272 0.83214 0.03287 0.0
H602 H 0.20277 0.83968 0.15014 0.0
H603 H 0.1059 0.81344 0.09174 0.0
H604 H 0.06936 0.76767 0.19896 0.0
H605 H 0.11013 0.76973 0.14579 0.0
H606 H 0.15128 0.86933 0.18505 0.0
H607 H 0.11066 0.86744 0.23803 0.0
C608 C 0.20299 0.84775 0.09072 0.0
C609 C 0.18305 0.84679 0.05761 0.0
C610 C 0.18758 0.83726 0.12454 0.0
C611 C 0.15233 0.8251 0.12541 0.0
C612 C 0.13326 0.82226 0.0918 0.0
C613 C 0.14842 0.83324 0.05824 0.0
C614 C 0.08772 0.78956 0.19675 0.0
C615 C 0.08641 0.81771 0.22226 0.0
C616 C 0.11096 0.79074 0.16631 0.0
C617 C 0.13359 0.81979 0.16127 0.0
C618 C 0.13428 0.84651 0.18843 0.0
C619 C 0.11077 0.84557 0.21854 0.0
H620 H 0.76929 0.13646 0.58715 0.0
H621 H 0.87213 0.14241 0.53439 0.0
H622 H 0.79612 0.15298 0.64731 0.0
H623 H 0.89881 0.15935 0.59413 0.0
H624 H 0.93156 0.21488 0.70009 0.0
H625 H 0.89547 0.21041 0.64343 0.0
H626 H 0.8425 0.11896 0.68847 0.0
H627 H 0.87875 0.12303 0.74489 0.0
C628 C 0.79751 0.14175 0.58845 0.0
C629 C 0.81881 0.138 0.55645 0.0
C630 C 0.81279 0.15114 0.62269 0.0
C631 C 0.84941 0.15763 0.62513 0.0
C632 C 0.87043 0.15493 0.59282 0.0
C633 C 0.8553 0.14493 0.55883 0.0
C634 C 0.9116 0.19437 0.69829 0.0
C635 C 0.90819 0.16907 0.72669 0.0
C636 C 0.89114 0.19174 0.66584 0.0
C637 C 0.8665 0.16421 0.66164 0.0
C638 C 0.86122 0.14051 0.69117 0.0
C639 C 0.88209 0.14275 0.72332 0.0
loop_
_geom_bond_atom_site_label_1
_geom_bond_atom_site_label_2
_geom_bond_distance
_geom_bond_site_symmetry_2
_ccdc_geom_bond_type
H0 C3 0.931 . S
H1 C6 0.928 . S
H2 C8 0.930 . S
C3 H0 0.931 . S
C3 C4 1.413 . S
C3 C5 1.360 1_554 S
C4 C3 1.413 . S
C4 C8 1.429 . S
C5 C3 1.360 1_556 S
C5 C6 1.372 . S
C6 H1 0.928 . S
C6 C5 1.372 . S
C6 C7 1.404 . S
C7 C6 1.404 . S
C7 C8 1.391 1_556 S
C8 H2 0.930 . S
C8 C4 1.429 . S
C8 C7 1.391 1_554 S
H9 C12 0.931 . S
H10 C15 0.928 . S
H11 C17 0.930 . S
C12 H9 0.931 . S
C12 C13 1.413 . S
C12 C14 1.360 . S
C13 C12 1.413 . S
C13 C17 1.429 . S
C14 C12 1.360 . S
C14 C15 1.372 . S
C15 H10 0.928 . S
C15 C14 1.372 . S
C15 C16 1.404 . S
C16 C15 1.404 . S
C16 C17 1.391 . S
C17 H11 0.930 . S
C17 C13 1.429 . S
C17 C16 1.391 . S
H18 C21 0.931 . S
H19 C24 0.928 . S
H20 C26 0.930 . S
C21 H18 0.931 . S
C21 C22 1.413 1_554 S
C21 C23 1.360 . S
C22 C21 1.413 1_556 S
C22 C26 1.429 . S
C23 C21 1.360 . S
C23 C24 1.372 . S
C24 H19 0.928 . S
C24 C23 1.372 . S
C24 C25 1.404 1_554 S
C25 C24 1.404 1_556 S
C25 C26 1.391 . S
C26 H20 0.930 . S
C26 C22 1.429 . S
C26 C25 1.391 . S
H27 C30 0.931 . S
H28 C33 0.928 . S
H29 C35 0.930 . S
C30 H27 0.931 . S
C30 C31 1.413 . S
C30 C32 1.360 . S
C31 C30 1.413 . S
C31 C35 1.429 . S
C32 C30 1.360 . S
C32 C33 1.372 . S
C33 H28 0.928 . S
C33 C32 1.372 . S
C33 C34 1.404 . S
C34 C33 1.404 . S
C34 C35 1.391 . S
C35 H29 0.930 . S
C35 C31 1.429 . S
C35 C34 1.391 . S
H36 C39 0.931 . S
H37 C42 0.928 . S
H38 C44 0.930 . S
C39 H36 0.931 . S
C39 C40 1.413 . S
C39 C41 1.360 1_554 S
C40 C39 1.413 . S
C40 C44 1.429 . S
C41 C39 1.360 1_556 S
C41 C42 1.372 . S
C42 H37 0.928 . S
C42 C41 1.372 . S
C42 C43 1.404 . S
C43 C42 1.404 . S
C43 C44 1.391 1_556 S
C44 H38 0.930 . S
C44 C40 1.429 . S
C44 C43 1.391 1_554 S
H45 C48 0.931 . S
H46 C51 0.928 . S
H47 C53 0.930 . S
C48 H45 0.931 . S
C48 C49 1.413 . S
C48 C50 1.360 . S
C49 C48 1.413 . S
C49 C53 1.429 . S
C50 C48 1.360 . S
C50 C51 1.372 . S
C51 H46 0.928 . S
C51 C50 1.372 . S
C51 C52 1.404 . S
C52 C51 1.404 . S
C52 C53 1.391 . S
C53 H47 0.930 . S
C53 C49 1.429 . S
C53 C52 1.391 . S
H54 C57 0.931 . S
H55 C60 0.928 . S
H56 C62 0.930 . S
C57 H54 0.931 . S
C57 C58 1.413 1_554 S
C57 C59 1.360 . S
C58 C57 1.413 1_556 S
C58 C62 1.429 . S
C59 C57 1.360 . S
C59 C60 1.372 . S
C60 H55 0.928 . S
C60 C59 1.372 . S
C60 C61 1.404 1_554 S
C61 C60 1.404 1_556 S
C61 C62 1.391 . S
C62 H56 0.930 . S
C62 C58 1.429 . S
C62 C61 1.391 . S
H63 C66 0.931 . S
H64 C69 0.928 . S
H65 C71 0.930 . S
C66 H63 0.931 . S
C66 C67 1.413 . S
C66 C68 1.360 . S
C67 C66 1.413 . S
C67 C71 1.429 . S
C68 C66 1.360 . S
C68 C69 1.372 . S
C69 H64 0.928 . S
C69 C68 1.372 . S
C69 C70 1.404 . S
C70 C69 1.404 . S
C70 C71 1.391 . S
C71 H65 0.930 . S
C71 C67 1.429 . S
C71 C70 1.391 . S
Sc72 O75 2.025 . S
Sc72 O82 2.093 1_455 S
Sc72 O85 2.117 . S
Sc72 O88 2.117 . S
Sc72 O91 2.093 1_455 S
Sc73 O75 2.025 . S
Sc73 O83 2.092 1_455 S
Sc73 O87 2.117 . S
Sc73 O89 2.117 . S
Sc73 O93 2.092 1_455 S
Sc74 O75 2.025 . S
Sc74 O84 2.093 1_455 S
Sc74 O86 2.117 . S
Sc74 O90 2.117 . S
Sc74 O92 2.093 1_455 S
O75 Sc72 2.025 . S
O75 Sc73 2.025 . S
O75 Sc74 2.025 . S
C76 O82 1.268 . S
C76 O92 1.268 . S
C77 O83 1.268 . S
C77 O91 1.268 . S
C78 O84 1.268 . S
C78 O93 1.268 . S
C79 O85 1.268 . S
C79 O89 1.268 . S
C80 O86 1.268 . S
C80 O88 1.268 . S
C81 O87 1.268 . S
C81 O90 1.268 . S
O82 Sc72 2.093 1_655 S
O82 C76 1.268 . S
O83 Sc73 2.092 1_655 S
O83 C77 1.268 . S
O84 Sc74 2.093 1_655 S
O84 C78 1.268 . S
O85 Sc72 2.117 . S
O85 C79 1.268 . S
O86 Sc74 2.117 . S
O86 C80 1.268 . S
O87 Sc73 2.117 . S
O87 C81 1.268 . S
O88 Sc72 2.117 . S
O88 C80 1.268 . S
O89 Sc73 2.117 . S
O89 C79 1.268 . S
O90 Sc74 2.117 . S
O90 C81 1.268 . S
O91 Sc72 2.093 1_655 S
O91 C77 1.268 . S
O92 Sc74 2.093 1_655 S
O92 C76 1.268 . S
O93 Sc73 2.092 1_655 S
O93 C78 1.268 . S
Sc94 O97 2.025 . S
Sc94 O104 2.112 . S
Sc94 O107 2.098 1_455 S
Sc94 O110 2.098 1_455 S
Sc94 O113 2.112 . S
Sc95 O97 2.025 . S
Sc95 O105 2.111 . S
Sc95 O109 2.098 1_455 S
Sc95 O111 2.098 1_455 S
Sc95 O115 2.111 . S
Sc96 O97 2.025 . S
Sc96 O106 2.111 . S
Sc96 O108 2.099 1_455 S
Sc96 O112 2.099 1_455 S
Sc96 O114 2.111 . S
O97 Sc94 2.025 . S
O97 Sc95 2.025 . S
O97 Sc96 2.025 . S
C98 O104 1.268 . S
C98 O114 1.268 . S
C99 O105 1.268 . S
C99 O113 1.268 . S
C100 O106 1.268 . S
C100 O115 1.268 . S
C101 O107 1.268 . S
C101 O111 1.268 . S
C102 O108 1.268 . S
C102 O110 1.268 . S
C103 O109 1.268 . S
C103 O112 1.268 . S
O104 Sc94 2.112 . S
O104 C98 1.268 . S
O105 Sc95 2.111 . S
O105 C99 1.268 . S
O106 Sc96 2.111 . S
O106 C100 1.268 . S
O107 Sc94 2.098 1_655 S
O107 C101 1.268 . S
O108 Sc96 2.099 1_655 S
O108 C102 1.268 . S
O109 Sc95 2.098 1_655 S
O109 C103 1.268 . S
O110 Sc94 2.098 1_655 S
O110 C102 1.268 . S
O111 Sc95 2.098 1_655 S
O111 C101 1.268 . S
O112 Sc96 2.099 1_655 S
O112 C103 1.268 . S
O113 Sc94 2.112 . S
O113 C99 1.268 . S
O114 Sc96 2.111 . S
O114 C98 1.268 . S
O115 Sc95 2.111 . S
O115 C100 1.268 . S
Sc116 O119 2.025 . S
Sc116 O126 2.105 . S
Sc116 O129 2.105 . S
Sc116 O132 2.105 . S
Sc116 O135 2.105 . S
Sc117 O119 2.025 . S
Sc117 O127 2.105 . S
Sc117 O131 2.105 . S
Sc117 O133 2.105 . S
Sc117 O137 2.105 . S
Sc118 O119 2.025 . S
Sc118 O128 2.105 . S
Sc118 O130 2.105 . S
Sc118 O134 2.105 . S
Sc118 O136 2.105 . S
O119 Sc116 2.025 . S
O119 Sc117 2.025 . S
O119 Sc118 2.025 . S
C120 O126 1.268 . S
C120 O136 1.268 . S
C121 O127 1.268 . S
C121 O135 1.268 . S
C122 O128 1.268 . S
C122 O137 1.268 . S
C123 O129 1.268 . S
C123 O133 1.268 . S
C124 O130 1.268 . S
C124 O132 1.268 . S
C125 O131 1.268 . S
C125 O134 1.268 . S
O126 Sc116 2.105 . S
O126 C120 1.268 . S
O127 Sc117 2.105 . S
O127 C121 1.268 . S
O128 Sc118 2.105 . S
O128 C122 1.268 . S
O129 Sc116 2.105 . S
O129 C123 1.268 . S
O130 Sc118 2.105 . S
O130 C124 1.268 . S
O131 Sc117 2.105 . S
O131 C125 1.268 . S
O132 Sc116 2.105 . S
O132 C124 1.268 . S
O133 Sc117 2.105 . S
O133 C123 1.268 . S
O134 Sc118 2.105 . S
O134 C125 1.268 . S
O135 Sc116 2.105 . S
O135 C121 1.268 . S
O136 Sc118 2.105 . S
O136 C120 1.268 . S
O137 Sc117 2.105 . S
O137 C122 1.268 . S
Sc138 O141 2.025 . S
Sc138 O148 2.105 . S
Sc138 O151 2.105 . S
Sc138 O154 2.105 . S
Sc138 O157 2.105 . S
Sc139 O141 2.025 . S
Sc139 O149 2.105 . S
Sc139 O153 2.105 . S
Sc139 O155 2.105 . S
Sc139 O159 2.105 . S
Sc140 O141 2.025 . S
Sc140 O150 2.105 . S
Sc140 O152 2.105 . S
Sc140 O156 2.105 . S
Sc140 O158 2.105 . S
O141 Sc138 2.025 . S
O141 Sc139 2.025 . S
O141 Sc140 2.025 . S
C142 O148 1.268 . S
C142 O158 1.268 . S
C143 O149 1.268 . S
C143 O157 1.268 . S
C144 O150 1.268 . S
C144 O159 1.268 . S
C145 O151 1.268 . S
C145 O155 1.268 . S
C146 O152 1.268 . S
C146 O154 1.268 . S
C147 O153 1.268 . S
C147 O156 1.268 . S
O148 Sc138 2.105 . S
O148 C142 1.268 . S
O149 Sc139 2.105 . S
O149 C143 1.268 . S
O150 Sc140 2.105 . S
O150 C144 1.268 . S
O151 Sc138 2.105 . S
O151 C145 1.268 . S
O152 Sc140 2.105 . S
O152 C146 1.268 . S
O153 Sc139 2.105 . S
O153 C147 1.268 . S
O154 Sc138 2.105 . S
O154 C146 1.268 . S
O155 Sc139 2.105 . S
O155 C145 1.268 . S
O156 Sc140 2.105 . S
O156 C147 1.268 . S
O157 Sc138 2.105 . S
O157 C143 1.268 . S
O158 Sc140 2.105 . S
O158 C142 1.268 . S
O159 Sc139 2.105 . S
O159 C144 1.268 . S
H160 C168 0.950 . S
H161 C173 0.950 . S
H162 C170 0.950 . S
H163 C172 0.950 . S
H164 C174 0.950 . S
H165 C176 0.950 . S
H166 C178 0.950 . S
H167 C179 0.950 . S
C168 H160 0.950 . S
C168 C169 1.386 . S
C168 C170 1.391 . S
C169 C168 1.386 . S
C169 C173 1.393 . S
C170 H162 0.950 . S
C170 C168 1.391 . S
C170 C171 1.400 . S
C171 C170 1.400 . S
C171 C172 1.398 . S
C171 C177 1.491 . S
C172 H163 0.950 . S
C172 C171 1.398 . S
C172 C173 1.391 . S
C173 H161 0.950 . S
C173 C169 1.393 . S
C173 C172 1.391 . S
C174 H164 0.950 . S
C174 C175 1.386 . S
C174 C176 1.391 . S
C175 C174 1.386 . S
C175 C179 1.393 . S
C176 H165 0.950 . S
C176 C174 1.391 . S
C176 C177 1.400 . S
C177 C171 1.491 . S
C177 C176 1.400 . S
C177 C178 1.398 . S
C178 H166 0.950 . S
C178 C177 1.398 . S
C178 C179 1.391 . S
C179 H167 0.950 . S
C179 C175 1.393 . S
C179 C178 1.391 . S
H180 C188 0.950 . S
H181 C193 0.950 . S
H182 C190 0.950 . S
H183 C192 0.950 . S
H184 C194 0.950 . S
H185 C196 0.950 . S
H186 C198 0.950 . S
H187 C199 0.950 . S
C188 H180 0.950 . S
C188 C189 1.386 . S
C188 C190 1.391 . S
C189 C188 1.386 . S
C189 C193 1.393 . S
C190 H182 0.950 . S
C190 C188 1.391 . S
C190 C191 1.400 . S
C191 C190 1.400 . S
C191 C192 1.398 . S
C191 C197 1.491 . S
C192 H183 0.950 . S
C192 C191 1.398 . S
C192 C193 1.391 . S
C193 H181 0.950 . S
C193 C189 1.393 . S
C193 C192 1.391 . S
C194 H184 0.950 . S
C194 C195 1.386 . S
C194 C196 1.391 . S
C195 C194 1.386 . S
C195 C199 1.393 . S
C196 H185 0.950 . S
C196 C194 1.391 . S
C196 C197 1.400 . S
C197 C191 1.491 . S
C197 C196 1.400 . S
C197 C198 1.398 . S
C198 H186 0.950 . S
C198 C197 1.398 . S
C198 C199 1.391 . S
C199 H187 0.950 . S
C199 C195 1.393 . S
C199 C198 1.391 . S
H200 C208 0.950 1_554 S
H201 C213 0.950 . S
H202 C210 0.950 . S
H203 C212 0.950 . S
H204 C214 0.950 . S
H205 C216 0.950 . S
H206 C218 0.950 . S
H207 C219 0.950 . S
C208 H200 0.950 1_556 S
C208 C209 1.386 . S
C208 C210 1.391 . S
C209 C208 1.386 . S
C209 C213 1.393 . S
C210 H202 0.950 . S
C210 C208 1.391 . S
C210 C211 1.400 . S
C211 C210 1.400 . S
C211 C212 1.398 . S
C211 C217 1.491 . S
C212 H203 0.950 . S
C212 C211 1.398 . S
C212 C213 1.391 . S
C213 H201 0.950 . S
C213 C209 1.393 . S
C213 C212 1.391 . S
C214 H204 0.950 . S
C214 C215 1.386 . S
C214 C216 1.391 . S
C215 C214 1.386 . S
C215 C219 1.393 . S
C216 H205 0.950 . S
C216 C214 1.391 . S
C216 C217 1.400 . S
C217 C211 1.491 . S
C217 C216 1.400 . S
C217 C218 1.398 . S
C218 H206 0.950 . S
C218 C217 1.398 . S
C218 C219 1.391 . S
C219 H207 0.950 . S
C219 C215 1.393 . S
C219 C218 1.391 . S
H220 C228 0.950 . S
H221 C233 0.950 . S
H222 C230 0.950 . S
H223 C232 0.950 . S
H224 C234 0.950 . S
H225 C236 0.950 . S
H226 C238 0.950 . S
H227 C239 0.950 . S
C228 H220 0.950 . S
C228 C229 1.386 . S
C228 C230 1.391 . S
C229 C228 1.386 . S
C229 C233 1.393 . S
C230 H222 0.950 . S
C230 C228 1.391 . S
C230 C231 1.400 . S
C231 C230 1.400 . S
C231 C232 1.398 . S
C231 C237 1.491 . S
C232 H223 0.950 . S
C232 C231 1.398 . S
C232 C233 1.391 . S
C233 H221 0.950 . S
C233 C229 1.393 . S
C233 C232 1.391 . S
C234 H224 0.950 . S
C234 C235 1.386 . S
C234 C236 1.391 . S
C235 C234 1.386 . S
C235 C239 1.393 . S
C236 H225 0.950 . S
C236 C234 1.391 . S
C236 C237 1.400 . S
C237 C231 1.491 . S
C237 C236 1.400 . S
C237 C238 1.398 . S
C238 H226 0.950 . S
C238 C237 1.398 . S
C238 C239 1.391 . S
C239 H227 0.950 . S
C239 C235 1.393 . S
C239 C238 1.391 . S
H240 C248 0.950 1_554 S
H241 C253 0.950 . S
H242 C250 0.950 . S
H243 C252 0.950 . S
H244 C254 0.950 . S
H245 C256 0.950 . S
H246 C258 0.950 . S
H247 C259 0.950 . S
C248 H240 0.950 1_556 S
C248 C249 1.386 . S
C248 C250 1.391 . S
C249 C248 1.386 . S
C249 C253 1.393 . S
C250 H242 0.950 . S
C250 C248 1.391 . S
C250 C251 1.400 . S
C251 C250 1.400 . S
C251 C252 1.398 . S
C251 C257 1.491 . S
C252 H243 0.950 . S
C252 C251 1.398 . S
C252 C253 1.391 . S
C253 H241 0.950 . S
C253 C249 1.393 . S
C253 C252 1.391 . S
C254 H244 0.950 . S
C254 C255 1.386 . S
C254 C256 1.391 . S
C255 C254 1.386 . S
C255 C259 1.393 . S
C256 H245 0.950 . S
C256 C254 1.391 . S
C256 C257 1.400 . S
C257 C251 1.491 . S
C257 C256 1.400 . S
C257 C258 1.398 . S
C258 H246 0.950 . S
C258 C257 1.398 . S
C258 C259 1.391 . S
C259 H247 0.950 . S
C259 C255 1.393 . S
C259 C258 1.391 . S
H260 C268 0.950 . S
H261 C273 0.950 . S
H262 C270 0.950 . S
H263 C272 0.950 . S
H264 C274 0.950 . S
H265 C276 0.950 . S
H266 C278 0.950 . S
H267 C279 0.950 . S
C268 H260 0.950 . S
C268 C269 1.386 . S
C268 C270 1.391 . S
C269 C268 1.386 . S
C269 C273 1.393 . S
C270 H262 0.950 . S
C270 C268 1.391 . S
C270 C271 1.400 . S
C271 C270 1.400 . S
C271 C272 1.398 . S
C271 C277 1.491 . S
C272 H263 0.950 . S
C272 C271 1.398 . S
C272 C273 1.391 . S
C273 H261 0.950 . S
C273 C269 1.393 . S
C273 C272 1.391 . S
C274 H264 0.950 . S
C274 C275 1.386 . S
C274 C276 1.391 . S
C275 C274 1.386 . S
C275 C279 1.393 . S
C276 H265 0.950 . S
C276 C274 1.391 . S
C276 C277 1.400 . S
C277 C271 1.491 . S
C277 C276 1.400 . S
C277 C278 1.398 . S
C278 H266 0.950 . S
C278 C277 1.398 . S
C278 C279 1.391 . S
C279 H267 0.950 . S
C279 C275 1.393 . S
C279 C278 1.391 . S
H280 C288 0.950 1_554 S
H281 C293 0.950 . S
H282 C290 0.950 . S
H283 C292 0.950 . S
H284 C294 0.950 . S
H285 C296 0.950 . S
H286 C298 0.950 . S
H287 C299 0.950 . S
C288 H280 0.950 1_556 S
C288 C289 1.386 . S
C288 C290 1.391 . S
C289 C288 1.386 . S
C289 C293 1.393 . S
C290 H282 0.950 . S
C290 C288 1.391 . S
C290 C291 1.400 . S
C291 C290 1.400 . S
C291 C292 1.398 . S
C291 C297 1.491 . S
C292 H283 0.950 . S
C292 C291 1.398 . S
C292 C293 1.391 . S
C293 H281 0.950 . S
C293 C289 1.393 . S
C293 C292 1.391 . S
C294 H284 0.950 . S
C294 C295 1.386 . S
C294 C296 1.391 . S
C295 C294 1.386 . S
C295 C299 1.393 . S
C296 H285 0.950 . S
C296 C294 1.391 . S
C296 C297 1.400 . S
C297 C291 1.491 . S
C297 C296 1.400 . S
C297 C298 1.398 . S
C298 H286 0.950 . S
C298 C297 1.398 . S
C298 C299 1.391 . S
C299 H287 0.950 . S
C299 C295 1.393 . S
C299 C298 1.391 . S
H300 C308 0.950 . S
H301 C313 0.950 . S
H302 C310 0.950 . S
H303 C312 0.950 . S
H304 C314 0.950 . S
H305 C316 0.950 . S
H306 C318 0.950 . S
H307 C319 0.950 . S
C308 H300 0.950 . S
C308 C309 1.386 . S
C308 C310 1.391 . S
C309 C308 1.386 . S
C309 C313 1.393 . S
C310 H302 0.950 . S
C310 C308 1.391 . S
C310 C311 1.400 . S
C311 C310 1.400 . S
C311 C312 1.398 . S
C311 C317 1.491 . S
C312 H303 0.950 . S
C312 C311 1.398 . S
C312 C313 1.391 . S
C313 H301 0.950 . S
C313 C309 1.393 . S
C313 C312 1.391 . S
C314 H304 0.950 . S
C314 C315 1.386 . S
C314 C316 1.391 . S
C315 C314 1.386 . S
C315 C319 1.393 . S
C316 H305 0.950 . S
C316 C314 1.391 . S
C316 C317 1.400 . S
C317 C311 1.491 . S
C317 C316 1.400 . S
C317 C318 1.398 . S
C318 H306 0.950 . S
C318 C317 1.398 . S
C318 C319 1.391 . S
C319 H307 0.950 . S
C319 C315 1.393 . S
C319 C318 1.391 . S
H320 C328 0.950 . S
H321 C333 0.950 . S
H322 C330 0.950 . S
H323 C332 0.950 . S
H324 C334 0.950 . S
H325 C336 0.950 . S
H326 C338 0.950 . S
H327 C339 0.950 . S
C328 H320 0.950 . S
C328 C329 1.386 . S
C328 C330 1.391 . S
C329 C328 1.386 . S
C329 C333 1.393 . S
C330 H322 0.950 . S
C330 C328 1.391 . S
C330 C331 1.400 . S
C331 C330 1.400 . S
C331 C332 1.398 . S
C331 C337 1.491 . S
C332 H323 0.950 . S
C332 C331 1.398 . S
C332 C333 1.391 . S
C333 H321 0.950 . S
C333 C329 1.393 . S
C333 C332 1.391 . S
C334 H324 0.950 . S
C334 C335 1.386 . S
C334 C336 1.391 . S
C335 C334 1.386 . S
C335 C339 1.393 . S
C336 H325 0.950 . S
C336 C334 1.391 . S
C336 C337 1.400 . S
C337 C331 1.491 . S
C337 C336 1.400 . S
C337 C338 1.398 . S
C338 H326 0.950 . S
C338 C337 1.398 . S
C338 C339 1.391 . S
C339 H327 0.950 . S
C339 C335 1.393 . S
C339 C338 1.391 . S
H340 C348 0.950 . S
H341 C353 0.950 . S
H342 C350 0.950 . S
H343 C352 0.950 . S
H344 C354 0.950 . S
H345 C356 0.950 . S
H346 C358 0.950 . S
H347 C359 0.950 . S
C348 H340 0.950 . S
C348 C349 1.386 . S
C348 C350 1.391 . S
C349 C348 1.386 . S
C349 C353 1.393 . S
C350 H342 0.950 . S
C350 C348 1.391 . S
C350 C351 1.400 . S
C351 C350 1.400 . S
C351 C352 1.398 . S
C351 C357 1.491 . S
C352 H343 0.950 . S
C352 C351 1.398 . S
C352 C353 1.391 . S
C353 H341 0.950 . S
C353 C349 1.393 . S
C353 C352 1.391 . S
C354 H344 0.950 . S
C354 C355 1.386 . S
C354 C356 1.391 . S
C355 C354 1.386 . S
C355 C359 1.393 . S
C356 H345 0.950 . S
C356 C354 1.391 . S
C356 C357 1.400 . S
C357 C351 1.491 . S
C357 C356 1.400 . S
C357 C358 1.398 . S
C358 H346 0.950 . S
C358 C357 1.398 . S
C358 C359 1.391 . S
C359 H347 0.950 . S
C359 C355 1.393 . S
C359 C358 1.391 . S
H360 C368 0.950 . S
H361 C373 0.950 1_554 S
H362 C370 0.950 . S
H363 C372 0.950 . S
H364 C374 0.950 . S
H365 C376 0.950 . S
H366 C378 0.950 . S
H367 C379 0.950 . S
C368 H360 0.950 . S
C368 C369 1.386 . S
C368 C370 1.391 . S
C369 C368 1.386 . S
C369 C373 1.393 . S
C370 H362 0.950 . S
C370 C368 1.391 . S
C370 C371 1.400 . S
C371 C370 1.400 . S
C371 C372 1.398 . S
C371 C377 1.491 . S
C372 H363 0.950 . S
C372 C371 1.398 . S
C372 C373 1.391 . S
C373 H361 0.950 1_556 S
C373 C369 1.393 . S
C373 C372 1.391 . S
C374 H364 0.950 . S
C374 C375 1.386 . S
C374 C376 1.391 . S
C375 C374 1.386 . S
C375 C379 1.393 . S
C376 H365 0.950 . S
C376 C374 1.391 . S
C376 C377 1.400 . S
C377 C371 1.491 . S
C377 C376 1.400 . S
C377 C378 1.398 . S
C378 H366 0.950 . S
C378 C377 1.398 . S
C378 C379 1.391 . S
C379 H367 0.950 . S
C379 C375 1.393 . S
C379 C378 1.391 . S
H380 C388 0.950 . S
H381 C393 0.950 . S
H382 C390 0.950 . S
H383 C392 0.950 . S
H384 C394 0.950 . S
H385 C396 0.950 . S
H386 C398 0.950 . S
H387 C399 0.950 . S
C388 H380 0.950 . S
C388 C389 1.386 . S
C388 C390 1.391 . S
C389 C388 1.386 . S
C389 C393 1.393 . S
C390 H382 0.950 . S
C390 C388 1.391 . S
C390 C391 1.400 . S
C391 C390 1.400 . S
C391 C392 1.398 . S
C391 C397 1.491 . S
C392 H383 0.950 . S
C392 C391 1.398 . S
C392 C393 1.391 . S
C393 H381 0.950 . S
C393 C389 1.393 . S
C393 C392 1.391 . S
C394 H384 0.950 . S
C394 C395 1.386 . S
C394 C396 1.391 . S
C395 C394 1.386 . S
C395 C399 1.393 . S
C396 H385 0.950 . S
C396 C394 1.391 . S
C396 C397 1.400 . S
C397 C391 1.491 . S
C397 C396 1.400 . S
C397 C398 1.398 . S
C398 H386 0.950 . S
C398 C397 1.398 . S
C398 C399 1.391 . S
C399 H387 0.950 . S
C399 C395 1.393 . S
C399 C398 1.391 . S
H400 C408 0.950 . S
H401 C413 0.945 1_545 S
H402 C410 0.950 . S
H403 C412 0.950 . S
H404 C414 0.950 . S
H405 C416 0.950 . S
H406 C418 0.950 . S
H407 C419 0.950 . S
C408 H400 0.950 . S
C408 C409 1.386 . S
C408 C410 1.391 . S
C409 C408 1.386 . S
C409 C413 1.410 . S
C410 H402 0.950 . S
C410 C408 1.391 . S
C410 C411 1.400 1_565 S
C411 C410 1.400 1_545 S
C411 C412 1.398 . S
C411 C417 1.491 . S
C412 H403 0.950 . S
C412 C411 1.398 . S
C412 C413 1.379 1_545 S
C413 H401 0.945 1_565 S
C413 C409 1.410 . S
C413 C412 1.379 1_565 S
C414 H404 0.950 . S
C414 C415 1.386 . S
C414 C416 1.391 . S
C415 C414 1.386 . S
C415 C419 1.393 . S
C416 H405 0.950 . S
C416 C414 1.391 . S
C416 C417 1.400 . S
C417 C411 1.491 . S
C417 C416 1.400 . S
C417 C418 1.398 . S
C418 H406 0.950 . S
C418 C417 1.398 . S
C418 C419 1.391 . S
C419 H407 0.950 . S
C419 C415 1.393 . S
C419 C418 1.391 . S
H420 C428 0.950 1_565 S
H421 C433 0.950 . S
H422 C430 0.950 . S
H423 C432 0.950 . S
H424 C434 0.950 . S
H425 C436 0.950 . S
H426 C438 0.950 . S
H427 C439 0.950 . S
C428 H420 0.950 1_545 S
C428 C429 1.386 . S
C428 C430 1.391 1_545 S
C429 C428 1.386 . S
C429 C433 1.393 . S
C430 H422 0.950 . S
C430 C428 1.391 1_565 S
C430 C431 1.400 . S
C431 C430 1.400 . S
C431 C432 1.398 1_565 S
C431 C437 1.491 . S
C432 H423 0.950 . S
C432 C431 1.398 1_545 S
C432 C433 1.391 . S
C433 H421 0.950 . S
C433 C429 1.393 . S
C433 C432 1.391 . S
C434 H424 0.950 . S
C434 C435 1.386 . S
C434 C436 1.391 . S
C435 C434 1.386 . S
C435 C439 1.393 . S
C436 H425 0.950 . S
C436 C434 1.391 . S
C436 C437 1.400 . S
C437 C431 1.491 . S
C437 C436 1.400 . S
C437 C438 1.398 . S
C438 H426 0.950 . S
C438 C437 1.398 . S
C438 C439 1.391 . S
C439 H427 0.950 . S
C439 C435 1.393 . S
C439 C438 1.391 . S
H440 C448 0.950 . S
H441 C453 0.950 . S
H442 C450 0.950 . S
H443 C452 0.950 . S
H444 C454 0.950 . S
H445 C456 0.950 . S
H446 C458 0.950 . S
H447 C459 0.950 . S
C448 H440 0.950 . S
C448 C449 1.386 . S
C448 C450 1.391 1_565 S
C449 C448 1.386 . S
C449 C453 1.393 . S
C450 H442 0.950 . S
C450 C448 1.391 1_545 S
C450 C451 1.400 . S
C451 C450 1.400 . S
C451 C452 1.398 1_545 S
C451 C457 1.491 . S
C452 H443 0.950 . S
C452 C451 1.398 1_565 S
C452 C453 1.391 . S
C453 H441 0.950 . S
C453 C449 1.393 . S
C453 C452 1.391 . S
C454 H444 0.950 . S
C454 C455 1.386 . S
C454 C456 1.391 . S
C455 C454 1.386 . S
C455 C459 1.393 . S
C456 H445 0.950 . S
C456 C454 1.391 . S
C456 C457 1.400 . S
C457 C451 1.491 . S
C457 C456 1.400 . S
C457 C458 1.398 . S
C458 H446 0.950 . S
C458 C457 1.398 . S
C458 C459 1.391 . S
C459 H447 0.950 . S
C459 C455 1.393 . S
C459 C458 1.391 . S
H460 C468 0.950 . S
H461 C473 0.950 . S
H462 C470 0.948 1_565 S
H463 C472 0.950 . S
H464 C474 0.950 . S
H465 C476 0.950 . S
H466 C478 0.950 . S
H467 C479 0.950 . S
C468 H460 0.950 . S
C468 C469 1.386 . S
C468 C470 1.391 . S
C469 C468 1.386 . S
C469 C473 1.393 . S
C470 H462 0.948 1_545 S
C470 C468 1.391 . S
C470 C471 1.400 1_545 S
C471 C470 1.400 1_565 S
C471 C472 1.398 . S
C471 C477 1.491 . S
C472 H463 0.950 . S
C472 C471 1.398 . S
C472 C473 1.391 1_565 S
C473 H461 0.950 . S
C473 C469 1.393 . S
C473 C472 1.391 1_545 S
C474 H464 0.950 . S
C474 C475 1.386 . S
C474 C476 1.391 . S
C475 C474 1.386 . S
C475 C479 1.393 . S
C476 H465 0.950 . S
C476 C474 1.391 . S
C476 C477 1.400 . S
C477 C471 1.491 . S
C477 C476 1.400 . S
C477 C478 1.398 . S
C478 H466 0.950 . S
C478 C477 1.398 . S
C478 C479 1.391 . S
C479 H467 0.950 . S
C479 C475 1.393 . S
C479 C478 1.391 . S
H480 C488 0.950 . S
H481 C493 0.950 . S
H482 C490 0.950 . S
H483 C492 0.950 . S
H484 C494 0.950 . S
H485 C496 0.950 . S
H486 C498 0.950 . S
H487 C499 0.950 . S
C488 H480 0.950 . S
C488 C489 1.386 . S
C488 C490 1.391 . S
C489 C488 1.386 . S
C489 C493 1.393 . S
C490 H482 0.950 . S
C490 C488 1.391 . S
C490 C491 1.400 . S
C491 C490 1.400 . S
C491 C492 1.398 . S
C491 C497 1.491 . S
C492 H483 0.950 . S
C492 C491 1.398 . S
C492 C493 1.391 . S
C493 H481 0.950 . S
C493 C489 1.393 . S
C493 C492 1.391 . S
C494 H484 0.950 . S
C494 C495 1.386 . S
C494 C496 1.391 . S
C495 C494 1.386 . S
C495 C499 1.393 . S
C496 H485 0.950 . S
C496 C494 1.391 . S
C496 C497 1.400 . S
C497 C491 1.491 . S
C497 C496 1.400 . S
C497 C498 1.398 . S
C498 H486 0.950 . S
C498 C497 1.398 . S
C498 C499 1.391 . S
C499 H487 0.950 . S
C499 C495 1.393 . S
C499 C498 1.391 . S
H500 C508 0.950 . S
H501 C513 0.950 . S
H502 C510 0.950 . S
H503 C512 0.950 . S
H504 C514 0.950 . S
H505 C516 0.950 . S
H506 C518 0.950 . S
H507 C519 0.950 . S
C508 H500 0.950 . S
C508 C509 1.386 . S
C508 C510 1.391 . S
C509 C508 1.386 . S
C509 C513 1.393 . S
C510 H502 0.950 . S
C510 C508 1.391 . S
C510 C511 1.400 . S
C511 C510 1.400 . S
C511 C512 1.398 . S
C511 C517 1.491 . S
C512 H503 0.950 . S
C512 C511 1.398 . S
C512 C513 1.391 . S
C513 H501 0.950 . S
C513 C509 1.393 . S
C513 C512 1.391 . S
C514 H504 0.950 . S
C514 C515 1.386 . S
C514 C516 1.391 . S
C515 C514 1.386 . S
C515 C519 1.393 . S
C516 H505 0.950 . S
C516 C514 1.391 . S
C516 C517 1.400 . S
C517 C511 1.491 . S
C517 C516 1.400 . S
C517 C518 1.398 . S
C518 H506 0.950 . S
C518 C517 1.398 . S
C518 C519 1.391 . S
C519 H507 0.950 . S
C519 C515 1.393 . S
C519 C518 1.391 . S
H520 C528 0.950 . S
H521 C533 0.950 . S
H522 C530 0.950 . S
H523 C532 0.950 . S
H524 C534 0.950 . S
H525 C536 0.950 . S
H526 C538 0.950 . S
H527 C539 0.950 . S
C528 H520 0.950 . S
C528 C529 1.386 . S
C528 C530 1.391 . S
C529 C528 1.386 . S
C529 C533 1.393 . S
C530 H522 0.950 . S
C530 C528 1.391 . S
C530 C531 1.400 . S
C531 C530 1.400 . S
C531 C532 1.398 . S
C531 C537 1.491 . S
C532 H523 0.950 . S
C532 C531 1.398 . S
C532 C533 1.391 . S
C533 H521 0.950 . S
C533 C529 1.393 . S
C533 C532 1.391 . S
C534 H524 0.950 . S
C534 C535 1.386 . S
C534 C536 1.391 . S
C535 C534 1.386 . S
C535 C539 1.393 . S
C536 H525 0.950 . S
C536 C534 1.391 . S
C536 C537 1.400 . S
C537 C531 1.491 . S
C537 C536 1.400 . S
C537 C538 1.398 . S
C538 H526 0.950 . S
C538 C537 1.398 . S
C538 C539 1.391 . S
C539 H527 0.950 . S
C539 C535 1.393 . S
C539 C538 1.391 . S
H540 C548 0.950 . S
H541 C553 0.950 . S
H542 C550 0.950 . S
H543 C552 0.950 . S
H544 C554 0.950 . S
H545 C556 0.950 . S
H546 C558 0.950 . S
H547 C559 0.950 . S
C548 H540 0.950 . S
C548 C549 1.386 . S
C548 C550 1.391 . S
C549 C548 1.386 . S
C549 C553 1.393 . S
C550 H542 0.950 . S
C550 C548 1.391 . S
C550 C551 1.400 . S
C551 C550 1.400 . S
C551 C552 1.398 . S
C551 C557 1.491 . S
C552 H543 0.950 . S
C552 C551 1.398 . S
C552 C553 1.391 . S
C553 H541 0.950 . S
C553 C549 1.393 . S
C553 C552 1.391 . S
C554 H544 0.950 . S
C554 C555 1.386 . S
C554 C556 1.391 . S
C555 C554 1.386 . S
C555 C559 1.393 . S
C556 H545 0.950 . S
C556 C554 1.391 . S
C556 C557 1.400 . S
C557 C551 1.491 . S
C557 C556 1.400 . S
C557 C558 1.398 . S
C558 H546 0.950 . S
C558 C557 1.398 . S
C558 C559 1.391 . S
C559 H547 0.950 . S
C559 C555 1.393 . S
C559 C558 1.391 . S
H560 C568 0.950 . S
H561 C573 0.950 . S
H562 C570 0.950 . S
H563 C572 0.950 . S
H564 C574 0.950 . S
H565 C576 0.950 . S
H566 C578 0.950 . S
H567 C579 0.950 . S
C568 H560 0.950 . S
C568 C569 1.386 . S
C568 C570 1.391 . S
C569 C568 1.386 . S
C569 C573 1.393 . S
C570 H562 0.950 . S
C570 C568 1.391 . S
C570 C571 1.400 . S
C571 C570 1.400 . S
C571 C572 1.398 . S
C571 C577 1.491 . S
C572 H563 0.950 . S
C572 C571 1.398 . S
C572 C573 1.391 . S
C573 H561 0.950 . S
C573 C569 1.393 . S
C573 C572 1.391 . S
C574 H564 0.950 . S
C574 C575 1.386 . S
C574 C576 1.391 . S
C575 C574 1.386 . S
C575 C579 1.393 . S
C576 H565 0.950 . S
C576 C574 1.391 . S
C576 C577 1.400 . S
C577 C571 1.491 . S
C577 C576 1.400 . S
C577 C578 1.398 . S
C578 H566 0.950 . S
C578 C577 1.398 . S
C578 C579 1.391 . S
C579 H567 0.950 . S
C579 C575 1.393 . S
C579 C578 1.391 . S
H580 C588 0.950 . S
H581 C593 0.950 . S
H582 C590 0.950 . S
H583 C592 0.950 . S
H584 C594 0.950 . S
H585 C596 0.950 . S
H586 C598 0.950 . S
H587 C599 0.950 . S
C588 H580 0.950 . S
C588 C589 1.386 . S
C588 C590 1.391 . S
C589 C588 1.386 . S
C589 C593 1.393 . S
C590 H582 0.950 . S
C590 C588 1.391 . S
C590 C591 1.400 . S
C591 C590 1.400 . S
C591 C592 1.398 . S
C591 C597 1.491 . S
C592 H583 0.950 . S
C592 C591 1.398 . S
C592 C593 1.391 . S
C593 H581 0.950 . S
C593 C589 1.393 . S
C593 C592 1.391 . S
C594 H584 0.950 . S
C594 C595 1.386 . S
C594 C596 1.391 . S
C595 C594 1.386 . S
C595 C599 1.393 . S
C596 H585 0.950 . S
C596 C594 1.391 . S
C596 C597 1.400 . S
C597 C591 1.491 . S
C597 C596 1.400 . S
C597 C598 1.398 . S
C598 H586 0.950 . S
C598 C597 1.398 . S
C598 C599 1.391 . S
C599 H587 0.950 . S
C599 C595 1.393 . S
C599 C598 1.391 . S
H600 C608 0.950 . S
H601 C613 0.950 . S
H602 C610 0.950 . S
H603 C612 0.950 . S
H604 C614 0.950 . S
H605 C616 0.950 . S
H606 C618 0.950 . S
H607 C619 0.950 . S
C608 H600 0.950 . S
C608 C609 1.386 . S
C608 C610 1.391 . S
C609 C608 1.386 . S
C609 C613 1.393 . S
C610 H602 0.950 . S
C610 C608 1.391 . S
C610 C611 1.400 . S
C611 C610 1.400 . S
C611 C612 1.398 . S
C611 C617 1.491 . S
C612 H603 0.950 . S
C612 C611 1.398 . S
C612 C613 1.391 . S
C613 H601 0.950 . S
C613 C609 1.393 . S
C613 C612 1.391 . S
C614 H604 0.950 . S
C614 C615 1.386 . S
C614 C616 1.391 . S
C615 C614 1.386 . S
C615 C619 1.393 . S
C616 H605 0.950 . S
C616 C614 1.391 . S
C616 C617 1.400 . S
C617 C611 1.491 . S
C617 C616 1.400 . S
C617 C618 1.398 . S
C618 H606 0.950 . S
C618 C617 1.398 . S
C618 C619 1.391 . S
C619 H607 0.950 . S
C619 C615 1.393 . S
C619 C618 1.391 . S
H620 C628 0.950 . S
H621 C633 0.950 . S
H622 C630 0.950 . S
H623 C632 0.950 . S
H624 C634 0.950 . S
H625 C636 0.950 . S
H626 C638 0.950 . S
H627 C639 0.950 . S
C628 H620 0.950 . S
C628 C629 1.386 . S
C628 C630 1.391 . S
C629 C628 1.386 . S
C629 C633 1.393 . S
C630 H622 0.950 . S
C630 C628 1.391 . S
C630 C631 1.400 . S
C631 C630 1.400 . S
C631 C632 1.398 . S
C631 C637 1.491 . S
C632 H623 0.950 . S
C632 C631 1.398 . S
C632 C633 1.391 . S
C633 H621 0.950 . S
C633 C629 1.393 . S
C633 C632 1.391 . S
C634 H624 0.950 . S
C634 C635 1.386 . S
C634 C636 1.391 . S
C635 C634 1.386 . S
C635 C639 1.393 . S
C636 H625 0.950 . S
C636 C634 1.391 . S
C636 C637 1.400 . S
C637 C631 1.491 . S
C637 C636 1.400 . S
C637 C638 1.398 . S
C638 H626 0.950 . S
C638 C637 1.398 . S
C638 C639 1.391 . S
C639 H627 0.950 . S
C639 C635 1.393 . S
C639 C638 1.391 . S
C169 C7 1.514 . S
C175 C98 1.495 . S
C195 C76 1.495 . S
C189 C16 1.514 . S
C215 C102 1.475 . S
C209 C25 1.504 . S
C235 C80 1.480 . S
C229 C34 1.504 . S
C255 C142 1.496 . S
C249 C43 1.514 . S
C275 C120 1.495 . S
C269 C52 1.514 . S
C289 C61 1.504 . S
C295 C146 1.476 . S
C315 C124 1.491 . S
C309 C70 1.510 . S
C329 C5 1.477 . S
C335 C147 1.463 . S
C355 C125 1.471 . S
C349 C14 1.473 . S
C369 C22 1.470 . S
C375 C144 1.468 . S
C389 C32 1.476 . S
C395 C122 1.464 . S
C415 C103 1.453 . S
C409 C41 1.484 . S
C429 C50 1.475 . S
C435 C81 1.467 . S
C455 C100 1.460 . S
C449 C58 1.476 . S
C475 C78 1.472 . S
C469 C68 1.471 . S
C495 C121 1.446 . S
C489 C4 1.458 . S
C515 C143 1.436 . S
C509 C13 1.469 . S
C529 C23 1.462 . S
C535 C123 1.441 . S
C555 C145 1.433 . S
C549 C31 1.465 . S
C575 C77 1.441 . S
C569 C40 1.466 . S
C589 C49 1.460 . S
C595 C99 1.444 . S
C609 C59 1.461 . S
C615 C79 1.451 . S
C629 C67 1.460 . S
C635 C101 1.449 . S
